# Generated by pormake.
# Topology smc, (6)-cn, num edge types: 1
# Building blocks:
#     Node 0, Type 0, BuildingBlock: KUMBUR_clean_sbu_0, # of connection points: 6
#     Node 1, Type 0, BuildingBlock: KUMBUR_clean_sbu_0, # of connection points: 6
#     Node 2, Type 0, BuildingBlock: KUMBUR_clean_sbu_0, # of connection points: 6
#     Node 3, Type 0, BuildingBlock: KUMBUR_clean_sbu_0, # of connection points: 6
#     Node 4, Type 0, BuildingBlock: KUMBUR_clean_sbu_0, # of connection points: 6
#     Node 5, Type 0, BuildingBlock: KUMBUR_clean_sbu_0, # of connection points: 6
#     Node 6, Type 0, BuildingBlock: KUMBUR_clean_sbu_0, # of connection points: 6
#     Node 7, Type 0, BuildingBlock: KUMBUR_clean_sbu_0, # of connection points: 6
#     Node 8, Type 0, BuildingBlock: KUMBUR_clean_sbu_0, # of connection points: 6
#     Edge 9, Type (0, 0), BuildingBlock: TEMPAE_clean_linker_10, # of connection points: 2
#     Edge 10, Type (0, 0), BuildingBlock: TEMPAE_clean_linker_10, # of connection points: 2
#     Edge 11, Type (0, 0), BuildingBlock: TEMPAE_clean_linker_10, # of connection points: 2
#     Edge 12, Type (0, 0), BuildingBlock: TEMPAE_clean_linker_10, # of connection points: 2
#     Edge 13, Type (0, 0), BuildingBlock: TEMPAE_clean_linker_10, # of connection points: 2
#     Edge 14, Type (0, 0), BuildingBlock: TEMPAE_clean_linker_10, # of connection points: 2
#     Edge 15, Type (0, 0), BuildingBlock: TEMPAE_clean_linker_10, # of connection points: 2
#     Edge 16, Type (0, 0), BuildingBlock: TEMPAE_clean_linker_10, # of connection points: 2
#     Edge 17, Type (0, 0), BuildingBlock: TEMPAE_clean_linker_10, # of connection points: 2
#     Edge 18, Type (0, 0), BuildingBlock: TEMPAE_clean_linker_10, # of connection points: 2
#     Edge 19, Type (0, 0), BuildingBlock: TEMPAE_clean_linker_10, # of connection points: 2
#     Edge 20, Type (0, 0), BuildingBlock: TEMPAE_clean_linker_10, # of connection points: 2
#     Edge 21, Type (0, 0), BuildingBlock: TEMPAE_clean_linker_10, # of connection points: 2
#     Edge 22, Type (0, 0), BuildingBlock: TEMPAE_clean_linker_10, # of connection points: 2
#     Edge 23, Type (0, 0), BuildingBlock: TEMPAE_clean_linker_10, # of connection points: 2
#     Edge 24, Type (0, 0), BuildingBlock: TEMPAE_clean_linker_10, # of connection points: 2
#     Edge 25, Type (0, 0), BuildingBlock: TEMPAE_clean_linker_10, # of connection points: 2
#     Edge 26, Type (0, 0), BuildingBlock: TEMPAE_clean_linker_10, # of connection points: 2
#     Edge 27, Type (0, 0), BuildingBlock: TEMPAE_clean_linker_10, # of connection points: 2
#     Edge 28, Type (0, 0), BuildingBlock: TEMPAE_clean_linker_10, # of connection points: 2
#     Edge 29, Type (0, 0), BuildingBlock: TEMPAE_clean_linker_10, # of connection points: 2
#     Edge 30, Type (0, 0), BuildingBlock: TEMPAE_clean_linker_10, # of connection points: 2
#     Edge 31, Type (0, 0), BuildingBlock: TEMPAE_clean_linker_10, # of connection points: 2
#     Edge 32, Type (0, 0), BuildingBlock: TEMPAE_clean_linker_10, # of connection points: 2
#     Edge 33, Type (0, 0), BuildingBlock: TEMPAE_clean_linker_10, # of connection points: 2
#     Edge 34, Type (0, 0), BuildingBlock: TEMPAE_clean_linker_10, # of connection points: 2
#     Edge 35, Type (0, 0), BuildingBlock: TEMPAE_clean_linker_10, # of connection points: 2
# Relax obj value: 0.110
# Max RMSD: 0.287
# Mean RMSD: 0.287
data_MOF--net-smc--node1-KUMBUR_clean_sbu_0--edge1-TEMPAE_clean_linker_10
_symmetry_space_group_name_H-M    P1
_symmetry_Int_Tables_number       1
_symmetry_cell_setting            triclinic
loop_
_symmetry_equiv_pos_as_xyz
'x, y, z'
_cell_length_a     37.906005
_cell_length_b     37.939082
_cell_length_c     40.675494
_cell_angle_alpha  89.992421
_cell_angle_beta   89.947273
_cell_angle_gamma 119.9595
loop_
_atom_site_label
_atom_site_type_symbol
_atom_site_fract_x
_atom_site_fract_y
_atom_site_fract_z
_atom_type_partial_charge
Tb0 Tb 0.06781 0.505 0.99479 0.0
C1 C 1.02277 0.34738 0.06952 0.0
C2 C 0.05996 0.3208 0.04019 0.0
C3 C 0.04263 0.30352 0.09774 0.0
C4 C 0.04087 0.34457 0.04102 0.0
C5 C 1.02289 0.3265 0.09813 0.0
C6 C 0.06131 0.30083 0.06884 0.0
C7 C 0.98221 0.35088 0.12474 0.0
N8 N 1.00417 0.37006 0.06884 0.0
C9 C 0.98277 0.37092 0.0957 0.0
C10 C 1.00263 0.32883 0.12606 0.0
Tb11 Tb 1.00623 0.40129 0.01979 0.0
N12 N 0.03814 0.36368 0.01375 0.0
C13 C 0.05169 0.35783 0.9842 0.0
C14 C 0.07611 0.31694 0.01039 0.0
C15 C 0.0715 0.33515 0.98219 0.0
H16 H 0.96659 0.38755 0.09512 0.0
H17 H 0.08292 0.3315 0.95879 0.0
H18 H 0.07603 0.28261 0.06874 0.0
H19 H 0.96594 0.35238 0.14608 0.0
H20 H 0.04778 0.37087 0.96198 0.0
H21 H 0.04489 0.56089 0.11108 0.0
H22 H 0.09115 0.29909 1.00872 0.0
H23 H 0.0525 0.52403 0.91705 0.0
H24 H 0.04939 0.51099 0.07603 0.0
H25 H 0.04127 0.57457 0.88874 0.0
H26 H 0.04333 0.28746 0.11954 0.0
H27 H 0.04403 0.61997 0.0863 0.0
H28 H 0.0465 0.65867 0.03543 0.0
H29 H 1.00211 0.31332 0.14858 0.0
H30 H 0.04333 0.66115 0.97514 0.0
N31 N 0.05012 0.54019 0.03093 0.0
C32 C 0.0489 0.53615 0.06443 0.0
C33 C 0.04529 0.59758 0.07058 0.0
C34 C 0.04578 0.6012 0.03637 0.0
C35 C 0.04595 0.56439 0.08463 0.0
C36 C 0.04663 0.57081 0.01701 0.0
H37 H 0.03758 0.62807 0.92057 0.0
N38 N 0.04651 0.54269 0.96541 0.0
C39 C 0.04154 0.57388 0.91534 0.0
C40 C 0.04456 0.57199 0.98314 0.0
C41 C 0.0465 0.54424 0.9317 0.0
C42 C 0.03973 0.60415 0.93336 0.0
C43 C 0.04226 0.60406 0.96762 0.0
O44 O 0.11754 0.53679 0.96296 0.0
O45 O 0.06778 0.44896 1.00373 0.0
O46 O 0.04793 0.42807 0.06056 0.0
O47 O 0.09209 0.49513 0.04324 0.0
O48 O 0.09147 0.47864 0.96031 0.0
O49 O 0.1193 0.55971 0.01143 0.0
O50 O 0.94258 0.37045 0.02761 0.0
O51 O 1.00844 0.45802 1.00774 0.0
O52 O 1.02174 0.4704 0.95535 0.0
O53 O 1.0081 0.40468 0.96643 0.0
O54 O 0.97362 0.4271 0.04678 0.0
O55 O 0.96859 0.34855 0.99206 0.0
C56 C 0.08912 0.45003 0.97895 0.0
C57 C 0.15101 0.60909 0.96809 0.0
C58 C 0.18582 0.6841 0.97149 0.0
C59 C 0.17363 0.64573 0.98635 0.0
C60 C 0.17485 0.68514 0.93869 0.0
C61 C 0.14295 0.61213 0.93473 0.0
C62 C 0.15396 0.64956 0.9205 0.0
C63 C 0.08011 0.46437 0.06498 0.0
C64 C 0.1368 0.56775 0.98265 0.0
C65 C 0.04405 0.63577 0.98667 0.0
C66 C 0.04598 0.63442 0.02099 0.0
C67 C 0.98489 0.45885 0.02901 0.0
C68 C 0.9078 0.29944 0.01883 0.0
C69 C 0.86505 0.27993 0.01403 0.0
C70 C 0.83916 0.23999 0.02618 0.0
C71 C 0.85696 0.2211 0.04418 0.0
C72 C 0.9242 0.27864 0.03555 0.0
C73 C 0.89896 0.24009 0.04849 0.0
C74 C 1.00732 0.43165 0.94649 0.0
C75 C 0.93522 0.34152 1.00693 0.0
H76 H 0.18173 0.64444 0.01167 0.0
H77 H 0.18388 0.7139 0.92664 0.0
H78 H 0.12803 0.58547 0.91925 0.0
H79 H 0.14678 0.65105 0.89496 0.0
H80 H 0.85227 0.29548 1.00047 0.0
H81 H 0.83838 0.19133 0.05506 0.0
H82 H 0.95658 0.29212 0.03863 0.0
H83 H 0.91205 0.22473 0.06189 0.0
Tb84 Tb 0.55361 0.5639 1.00794 0.0
C85 C 0.71336 0.67695 0.07914 0.0
C86 C 0.7367 0.74196 0.05268 0.0
C87 C 0.75698 0.7394 0.1089 0.0
C88 C 0.71403 0.69908 0.05207 0.0
C89 C 0.73574 0.69672 0.10756 0.0
C90 C 0.75728 0.76202 0.08154 0.0
C91 C 0.71629 0.63072 0.13036 0.0
N92 N 0.69213 0.63573 0.07688 0.0
C93 C 0.69426 0.61248 0.10174 0.0
C94 C 0.73703 0.673 0.13333 0.0
Tb95 Tb 0.65929 0.60872 0.02793 0.0
N96 N 0.69477 0.67847 0.02442 0.0
C97 C 0.7 0.69918 0.99568 0.0
C98 C 0.73935 0.76328 0.02389 0.0
C99 C 0.7215 0.74174 0.99511 0.0
H100 H 0.67894 0.57982 0.0998 0.0
H101 H 0.72451 0.75787 0.97239 0.0
H102 H 0.77453 0.79494 0.0826 0.0
H103 H 0.71747 0.61214 0.15004 0.0
H104 H 0.68731 0.68315 0.97302 0.0
H105 H 0.51315 0.48406 0.12486 0.0
H106 H 0.75634 0.79623 0.02332 0.0
H107 H 0.52847 0.53029 0.9305 0.0
H108 H 0.55679 0.54034 0.08841 0.0
H109 H 0.47674 0.46789 0.90379 0.0
H110 H 0.77392 0.7552 0.13069 0.0
H111 H 0.45505 0.42158 0.1022 0.0
H112 H 0.41283 0.38409 0.05323 0.0
H113 H 0.75427 0.68703 0.15546 0.0
H114 H 0.40295 0.37995 0.99332 0.0
N115 N 0.52516 0.51054 0.04449 0.0
C116 C 0.532 0.51365 0.0777 0.0
C117 C 0.47475 0.44612 0.0858 0.0
C118 C 0.46796 0.44292 0.05189 0.0
C119 C 0.50734 0.4814 0.09868 0.0
C120 C 0.49492 0.47542 0.03152 0.0
H121 H 0.42894 0.40899 0.93742 0.0
N122 N 0.51648 0.50472 0.97892 0.0
C123 C 0.48052 0.46856 0.9302 0.0
C124 C 0.4903 0.4725 0.99768 0.0
C125 C 0.51092 0.50356 0.94551 0.0
C126 C 0.45347 0.43549 0.94926 0.0
C127 C 0.45746 0.43759 0.98345 0.0
O128 O 0.51067 0.57043 0.97936 0.0
O129 O 0.60931 0.62041 0.01511 0.0
O130 O 0.63359 0.62059 0.07134 0.0
O131 O 0.56586 0.59804 0.05614 0.0
O132 O 0.573 0.61713 0.97682 0.0
O133 O 0.50095 0.55699 0.03135 0.0
O134 O 0.69096 0.57616 0.0304 0.0
O135 O 0.6031 0.55345 0.01604 0.0
O136 O 0.58664 0.55725 0.96467 0.0
O137 O 0.65273 0.60966 0.97484 0.0
O138 O 0.63706 0.54942 0.05267 0.0
O139 O 0.71228 0.62819 0.99914 0.0
C140 C 0.60569 0.6418 0.99254 0.0
C141 C 0.45839 0.57846 1.00569 0.0
C142 C 0.38873 0.56816 1.00665 0.0
C143 C 0.41564 0.55237 1.00574 0.0
C144 C 0.40627 0.61092 1.00744 0.0
C145 C 0.47451 0.62048 1.00759 0.0
C146 C 0.4485 0.63654 1.00848 0.0
C147 C 0.59745 0.61645 0.07701 0.0
C148 C 0.48528 0.56079 1.00397 0.0
C149 C 0.42887 0.40651 1.00379 0.0
C150 C 0.43448 0.40887 0.03791 0.0
C151 C 0.60477 0.52873 0.03556 0.0
C152 C 0.76185 0.61483 0.02301 0.0
C153 C 0.78034 0.59064 0.0186 0.0
C154 C 0.81958 0.60323 0.03157 0.0
C155 C 0.83888 0.63962 0.04993 0.0
C156 C 0.78298 0.65169 0.04011 0.0
C157 C 0.82093 0.66367 0.05379 0.0
C158 C 0.62484 0.58268 0.95497 0.0
C159 C 0.72001 0.60084 0.011 0.0
H160 H 0.40369 0.51981 1.00542 0.0
H161 H 0.38761 0.62508 1.00687 0.0
H162 H 0.50711 0.64069 1.00823 0.0
H163 H 0.46107 0.66914 0.00974 0.0
H164 H 0.76443 0.56255 1.0048 0.0
H165 H 0.86811 0.64972 0.06148 0.0
H166 H 0.77013 0.67123 0.04309 0.0
H167 H 0.83654 0.69181 0.06754 0.0
Tb168 Tb 0.48771 0.98494 0.99439 0.0
C169 C 0.3826 0.03365 0.07287 0.0
C170 C 0.31835 0.99605 0.04449 0.0
C171 C 0.31932 1.01207 0.10243 0.0
C172 C 0.36124 1.01565 0.04465 0.0
C173 C 0.3621 0.0332 0.1019 0.0
C174 C 0.29745 0.99321 0.07381 0.0
C175 C 0.42752 0.07858 0.12621 0.0
N176 N 0.42382 0.05438 0.07101 0.0
C177 C 0.44642 0.07831 0.09672 0.0
C178 C 0.3852 0.05538 0.12902 0.0
Tb179 Tb 0.45238 0.05154 0.02197 0.0
N180 N 0.38274 0.0206 0.01669 0.0
C181 C 0.36302 1.01 0.98707 0.0
C182 C 0.29795 0.98178 0.01458 0.0
C183 C 0.32045 0.98951 0.98565 0.0
H184 H 0.47915 0.09637 0.09482 0.0
H185 H 0.30507 0.97994 0.9622 0.0
H186 H 0.26449 0.97795 0.07427 0.0
H187 H 0.44561 0.09668 0.14676 0.0
H188 H 0.37978 1.01615 0.96435 0.0
H189 H 0.5861 1.01137 0.09925 0.0
H190 H 0.26501 0.96638 0.01339 0.0
H191 H 0.50358 0.98512 0.91387 0.0
H192 H 0.5245 1.00173 0.07205 0.0
H193 H 0.5593 0.99417 0.8773 0.0
H194 H 0.30292 1.01103 0.12458 0.0
H195 H 0.64337 1.01664 0.06637 0.0
H196 H 0.67167 1.015 0.01112 0.0
H197 H 0.37063 0.05577 0.15183 0.0
H198 H 0.66584 1.01373 0.95094 0.0
N199 N 0.54627 1.00302 0.02335 0.0
C200 C 0.54892 1.00433 0.05695 0.0
C201 C 0.61645 1.0131 0.05406 0.0
C202 C 0.61361 1.01151 0.01979 0.0
C203 C 0.58414 1.00998 0.07269 0.0
C204 C 0.57818 1.00749 1.00492 0.0
H205 H 0.62502 1.00796 0.90089 0.0
N206 N 0.53929 1.00029 0.95757 0.0
C207 C 0.56432 0.99833 0.90355 0.0
C208 C 0.57468 1.00637 0.97098 0.0
C209 C 0.5331 0.99412 0.92434 0.0
C210 C 0.60128 1.00598 0.91696 0.0
C211 C 0.60644 1.00895 0.95107 0.0
O212 O 0.45951 0.93059 0.96743 0.0
O213 O 0.43463 0.98896 1.00733 0.0
O214 O 0.44392 1.01446 0.06468 0.0
O215 O 0.4602 0.96591 0.0455 0.0
O216 O 0.43427 0.96218 0.96347 0.0
O217 O 0.49383 0.93495 0.01066 0.0
O218 O 0.48867 0.11496 0.02911 0.0
O219 O 0.50436 0.04569 1.00793 0.0
O220 O 0.50016 0.0307 0.95486 0.0
O221 O 0.45321 0.05083 0.96834 0.0
O222 O 0.51161 0.08147 0.04739 0.0
O223 O 0.4382 0.09091 0.99593 0.0
C224 C 0.41151 0.96797 0.98381 0.0
C225 C 0.49655 0.89518 0.96567 0.0
C226 C 0.53112 0.85494 0.96203 0.0
C227 C 0.51358 0.87352 0.98119 0.0
C228 C 0.53296 0.85973 0.92774 0.0
C229 C 0.49735 0.89738 0.93106 0.0
C230 C 0.51622 0.88074 0.91246 0.0
C231 C 0.44714 0.98175 0.06896 0.0
C232 C 0.4757 0.91338 0.98466 0.0
C233 C 0.64142 1.0123 0.96581 0.0
C234 C 0.6447 1.01294 1.00008 0.0
C235 C 0.53014 0.06851 0.02886 0.0
C236 C 0.4549 0.15245 0.0233 0.0
C237 C 0.47992 0.19475 0.01815 0.0
C238 C 0.4684 0.22226 0.03073 0.0
C239 C 0.43234 0.20678 0.04935 0.0
C240 C 0.4187 0.13802 0.0413 0.0
C241 C 0.40777 0.16507 0.05451 0.0
C242 C 0.47906 0.04916 0.94758 0.0
C243 C 0.46669 0.12359 0.00997 0.0
H244 H 0.51184 0.86989 1.00766 0.0
H245 H 0.54647 0.84607 0.91258 0.0
H246 H 0.48301 0.9117 0.91799 0.0
H247 H 0.51701 0.88331 0.88593 0.0
H248 H 0.50759 0.20603 1.0038 0.0
H249 H 0.42296 0.22705 0.05989 0.0
H250 H 0.39869 0.10583 0.04502 0.0
H251 H 0.37993 0.15363 0.06861 0.0
Tb252 Tb 0.73925 0.84506 0.33523 0.0
C253 C 0.68628 0.68757 0.41238 0.0
C254 C 0.72446 0.6602 0.38581 0.0
C255 C 0.7035 0.64308 0.44279 0.0
C256 C 0.70597 0.68453 0.38502 0.0
C257 C 0.6838 0.66606 0.44134 0.0
C258 C 0.72402 0.64034 0.41509 0.0
C259 C 0.63999 0.68903 0.46424 0.0
N260 N 0.66748 0.70993 0.40983 0.0
C261 C 0.64339 0.7099 0.43498 0.0
C262 C 0.66043 0.66717 0.4675 0.0
Tb263 Tb 0.67313 0.74163 0.3603 0.0
N264 N 0.70432 0.70299 0.35696 0.0
C265 C 0.7178 0.69536 0.32808 0.0
C266 C 0.74126 0.65518 0.3568 0.0
C267 C 0.73731 0.67232 0.32769 0.0
H268 H 0.62701 0.72623 0.43275 0.0
H269 H 0.74895 0.66752 0.30484 0.0
H270 H 0.73834 0.62179 0.41626 0.0
H271 H 0.6214 0.68964 0.4842 0.0
H272 H 0.71426 0.70743 0.30515 0.0
H273 H 0.71041 0.90807 0.44488 0.0
H274 H 0.7559 0.6369 0.35636 0.0
H275 H 0.73407 0.86287 0.25522 0.0
H276 H 0.71825 0.85702 0.41424 0.0
H277 H 0.72554 0.91223 0.22215 0.0
H278 H 0.70235 0.62668 0.46494 0.0
H279 H 0.70922 0.96451 0.41553 0.0
H280 H 0.71406 0.99983 0.36222 0.0
H281 H 0.65753 0.65084 0.49012 0.0
H282 H 0.71547 0.99945 0.30182 0.0
N283 N 0.72011 0.88265 0.36706 0.0
C284 C 0.71746 0.88088 0.40066 0.0
C285 C 0.7119 0.94154 0.4017 0.0
C286 C 0.71437 0.94315 0.3674 0.0
C287 C 0.71273 0.90985 0.41834 0.0
C288 C 0.71705 0.91211 0.35051 0.0
H289 H 0.71665 0.96539 0.2495 0.0
N290 N 0.72206 0.88236 0.30112 0.0
C291 C 0.72268 0.91212 0.24863 0.0
C292 C 0.71783 0.91182 0.31648 0.0
C293 C 0.7263 0.88335 0.26755 0.0
C294 C 0.71786 0.94216 0.26416 0.0
C295 C 0.71648 0.94295 0.29847 0.0
O296 O 0.79243 0.87511 0.30676 0.0
O297 O 0.73587 0.78793 0.34638 0.0
O298 O 0.71107 0.76831 0.40307 0.0
O299 O 0.75828 0.83455 0.38565 0.0
O300 O 0.7659 0.81762 0.30447 0.0
O301 O 0.78918 0.89995 0.35332 0.0
O302 O 0.60913 0.71262 0.36546 0.0
O303 O 0.67847 0.79939 0.34677 0.0
O304 O 0.69501 0.81141 0.29482 0.0
O305 O 0.67849 0.74502 0.30694 0.0
O306 O 0.64074 0.76924 0.38476 0.0
O307 O 0.63599 0.68919 0.33214 0.0
C308 C 0.75852 0.78742 0.32338 0.0
C309 C 0.82586 0.94758 0.30988 0.0
C310 C 0.86016 0.0226 0.31129 0.0
C311 C 0.84602 0.98479 0.32772 0.0
C312 C 0.85355 0.02259 0.27735 0.0
C313 C 0.82216 0.94949 0.27555 0.0
C314 C 0.83505 0.98643 0.25968 0.0
C315 C 0.74355 0.80423 0.40797 0.0
C316 C 0.80971 0.90677 0.32602 0.0
C317 C 0.71566 0.97486 0.31522 0.0
C318 C 0.71498 0.97514 0.34961 0.0
C319 C 0.65427 0.80122 0.36686 0.0
C320 C 0.57372 0.64145 0.35766 0.0
C321 C 0.53121 0.62261 0.35191 0.0
C322 C 0.50442 0.58296 0.36411 0.0
C323 C 0.52098 0.56369 0.38316 0.0
C324 C 0.58895 0.62032 0.37545 0.0
C325 C 0.56276 0.58206 0.38848 0.0
C326 C 0.68018 0.7726 0.2863 0.0
C327 C 0.60217 0.68313 0.34553 0.0
H328 H 0.8508 0.98439 0.35394 0.0
H329 H 0.86415 0.05097 0.26419 0.0
H330 H 0.80918 0.92231 0.26059 0.0
H331 H 0.83121 0.98706 0.23336 0.0
H332 H 0.51931 0.63839 0.33753 0.0
H333 H 0.50158 0.53406 0.39401 0.0
H334 H 0.62118 0.63328 0.37926 0.0
H335 H 0.57494 0.56644 0.40268 0.0
Tb336 Tb 0.22243 0.90683 0.3272 0.0
C337 C 0.38202 0.02399 0.39505 0.0
C338 C 0.4047 0.08525 0.363 0.0
C339 C 0.42467 0.09 0.42033 0.0
C340 C 0.38248 0.0425 0.3658 0.0
C341 C 0.40375 0.04736 0.42251 0.0
C342 C 0.42498 0.10894 0.39064 0.0
C343 C 0.38481 0.9847 0.45131 0.0
N344 N 0.36132 0.98272 0.39611 0.0
C345 C 0.36381 0.96283 0.42336 0.0
C346 C 0.40449 0.02715 0.45103 0.0
Tb347 Tb 0.32746 0.94953 0.34909 0.0
N348 N 0.36336 1.01844 0.33954 0.0
C349 C 0.36847 0.0354 0.30897 0.0
C350 C 0.40713 0.10278 0.33224 0.0
C351 C 0.38948 0.07768 0.305 0.0
H352 H 0.34887 0.93006 0.42387 0.0
H353 H 0.39227 0.09086 0.28087 0.0
H354 H 0.44192 0.14184 0.38907 0.0
H355 H 0.38585 0.9688 0.47306 0.0
H356 H 0.35572 1.01658 0.28749 0.0
H357 H 0.16799 0.82184 0.44115 0.0
H358 H 0.42374 0.1355 0.32904 0.0
H359 H 0.19948 0.87881 0.24885 0.0
H360 H 0.21467 0.8799 0.40766 0.0
H361 H 0.15093 0.81738 0.21854 0.0
H362 H 0.44122 0.10856 0.44126 0.0
H363 H 0.11395 0.75955 0.41485 0.0
H364 H 0.08092 0.72138 0.36314 0.0
H365 H 0.42076 0.04399 0.47271 0.0
H366 H 0.07771 0.7194 0.3028 0.0
N367 N 0.18771 0.85209 0.36175 0.0
C368 C 0.19128 0.8536 0.3953 0.0
C369 C 0.13455 0.78517 0.39973 0.0
C370 C 0.13171 0.78312 0.36545 0.0
C371 C 0.16493 0.8203 0.41466 0.0
C372 C 0.1591 0.81742 0.3469 0.0
H373 H 0.10409 0.75462 0.24879 0.0
N374 N 0.18399 0.85 0.29587 0.0
C375 C 0.15276 0.81642 0.24505 0.0
C376 C 0.15731 0.8163 0.31289 0.0
C377 C 0.18081 0.85096 0.26234 0.0
C378 C 0.12623 0.78118 0.26221 0.0
C379 C 0.12784 0.78096 0.29655 0.0
O380 O 0.1922 0.92966 0.29875 0.0
O381 O 0.27905 0.96269 0.33497 0.0
O382 O 0.30184 0.96365 0.39115 0.0
O383 O 0.23353 0.93905 0.37653 0.0
O384 O 0.24789 0.95709 0.29249 0.0
O385 O 0.16662 0.9005 0.34478 0.0
O386 O 0.3586 0.91716 0.35718 0.0
O387 O 0.27007 0.8945 0.33958 0.0
O388 O 0.25403 0.89244 0.28734 0.0
O389 O 0.32117 0.94337 0.29575 0.0
O390 O 0.30358 0.89283 0.37775 0.0
O391 O 0.37974 0.96411 0.32079 0.0
C392 C 0.27771 0.9829 0.31041 0.0
C393 C 0.11989 0.89108 0.30101 0.0
C394 C 0.04496 0.85512 0.30113 0.0
C395 C 0.08249 0.87633 0.3182 0.0
C396 C 0.04516 0.84795 0.26734 0.0
C397 C 0.11856 0.88502 0.26673 0.0
C398 C 0.08167 0.86288 0.25032 0.0
C399 C 0.26522 0.958 0.39734 0.0
C400 C 0.16029 0.91493 0.31771 0.0
C401 C 0.10053 0.74678 0.31493 0.0
C402 C 0.10237 0.74791 0.34929 0.0
C403 C 0.27088 0.87115 0.36125 0.0
C404 C 0.42938 0.95374 0.34798 0.0
C405 C 0.44845 0.92995 0.34478 0.0
C406 C 0.48813 0.94405 0.35743 0.0
C407 C 0.50727 0.98157 0.37426 0.0
C408 C 0.45039 0.99174 0.36342 0.0
C409 C 0.48876 1.00525 0.37684 0.0
C410 C 0.29273 0.91436 0.27756 0.0
C411 C 0.38725 0.93843 0.33616 0.0
H412 H 0.08258 0.88218 0.34427 0.0
H413 H 1.01681 0.83185 0.25384 0.0
H414 H 0.14611 0.89775 0.25219 0.0
H415 H 0.08139 0.8581 0.22406 0.0
H416 H 0.43265 0.90101 0.33212 0.0
H417 H 0.53682 0.99289 0.3856 0.0
H418 H 0.43716 1.01104 0.36525 0.0
H419 H 0.50428 0.03429 0.38935 0.0
Tb420 Tb 0.15546 0.32846 0.33005 0.0
C421 C 0.04798 0.37652 0.4086 0.0
C422 C 0.98326 0.33743 0.38127 0.0
C423 C 0.98519 0.35457 0.43904 0.0
C424 C 1.02619 0.3576 0.38085 0.0
C425 C 1.02794 0.37608 0.43793 0.0
C426 C 0.96285 0.33509 0.41075 0.0
C427 C 0.09376 0.4209 0.46178 0.0
N428 N 0.08913 0.39697 0.40633 0.0
C429 C 0.11218 0.4204 0.43209 0.0
C430 C 0.05147 0.39815 0.4649 0.0
Tb431 Tb 0.11714 0.39313 0.3572 0.0
N432 N 0.04723 0.36142 0.35285 0.0
C433 C 1.02681 0.34886 0.32362 0.0
C434 C 0.96228 0.32165 0.35181 0.0
C435 C 0.98422 0.32805 0.32275 0.0
H436 H 0.14493 0.43784 0.43016 0.0
H437 H 0.96839 0.31708 0.29961 0.0
H438 H 0.92988 0.31939 0.41167 0.0
H439 H 0.11223 0.43869 0.48229 0.0
H440 H 0.04291 0.3536 0.30079 0.0
H441 H 0.25507 0.35661 0.43414 0.0
H442 H 0.92931 0.30581 0.35106 0.0
H443 H 0.17141 0.3318 0.24899 0.0
H444 H 0.19325 0.34724 0.40735 0.0
H445 H 0.22721 0.34182 0.21214 0.0
H446 H 0.96916 0.35351 0.46142 0.0
H447 H 0.31167 0.36094 0.40085 0.0
H448 H 0.33928 0.35888 0.34533 0.0
H449 H 0.03727 0.39854 0.48793 0.0
H450 H 0.33322 0.35841 0.28518 0.0
N451 N 0.21449 0.34796 0.35855 0.0
C452 C 0.21751 0.34959 0.39212 0.0
C453 C 0.28473 0.35763 0.38874 0.0
C454 C 0.28157 0.35599 0.35447 0.0
C455 C 0.25281 0.35505 0.4076 0.0
C456 C 0.24616 0.3523 0.33987 0.0
H457 H 0.29267 0.35437 0.2354 0.0
N458 N 0.20699 0.34556 0.29276 0.0
C459 C 0.23215 0.34518 0.23843 0.0
C460 C 0.24243 0.35143 0.30593 0.0
C461 C 0.2009 0.34044 0.25943 0.0
C462 C 0.26897 0.35213 0.25166 0.0
C463 C 0.27408 0.35422 0.28577 0.0
O464 O 0.12983 0.27437 0.30263 0.0
O465 O 0.10136 0.33072 0.34323 0.0
O466 O 0.10852 0.35557 0.39973 0.0
O467 O 0.12878 0.30955 0.38144 0.0
O468 O 0.10115 0.30293 0.29994 0.0
O469 O 0.16302 0.27939 0.3467 0.0
O470 O 0.14815 0.45663 0.36637 0.0
O471 O 0.17007 0.38864 0.34352 0.0
O472 O 0.16688 0.37489 0.29121 0.0
O473 O 0.11551 0.38894 0.30374 0.0
O474 O 0.17701 0.4257 0.38171 0.0
O475 O 0.10649 0.4312 0.32619 0.0
C476 C 0.07818 0.30859 0.32014 0.0
C477 C 0.16863 0.24042 0.30213 0.0
C478 C 0.20574 0.20229 0.29941 0.0
C479 C 0.18496 0.21818 0.31798 0.0
C480 C 0.21034 0.20934 0.26542 0.0
C481 C 0.17212 0.24452 0.26767 0.0
C482 C 0.19345 0.22997 0.24974 0.0
C483 C 0.11404 0.32426 0.40452 0.0
C484 C 0.14622 0.25773 0.32043 0.0
C485 C 0.30894 0.35696 0.30025 0.0
C486 C 0.31234 0.35714 0.3345 0.0
C487 C 0.19588 0.41261 0.36384 0.0
C488 C 0.11302 0.49116 0.35039 0.0
C489 C 0.13877 0.53399 0.3521 0.0
C490 C 0.12234 0.56009 0.35688 0.0
C491 C 0.07959 0.54192 0.35931 0.0
C492 C 0.07089 0.47451 0.35428 0.0
C493 C 0.05441 0.49976 0.35851 0.0
C494 C 0.14241 0.38932 0.283 0.0
C495 C 0.12981 0.46413 0.34278 0.0
H496 H 0.18129 0.21304 0.34426 0.0
H497 H 0.226 0.19755 0.25069 0.0
H498 H 0.15806 0.2588 0.25417 0.0
H499 H 0.19627 0.23411 0.22334 0.0
H500 H 0.17134 0.54665 0.34976 0.0
H501 H 0.06508 0.56017 0.36143 0.0
H502 H 0.05053 0.44192 0.35332 0.0
H503 H 1.02176 0.48659 0.36074 0.0
Tb504 Tb 0.39957 0.16742 0.66463 0.0
C505 C 0.35065 1.01158 0.7424 0.0
C506 C 0.39017 0.98621 0.71528 0.0
C507 C 0.37232 0.97063 0.77293 0.0
C508 C 0.36997 1.00894 0.71476 0.0
C509 C 0.35077 0.99183 0.77172 0.0
C510 C 0.39217 0.96797 0.74475 0.0
C511 C 0.30553 1.01258 0.79531 0.0
N512 N 0.33017 0.03224 0.74003 0.0
C513 C 0.30636 0.03165 0.76564 0.0
C514 C 0.32833 0.99309 0.79855 0.0
Tb515 Tb 0.33459 0.06436 0.69094 0.0
N516 N 0.36645 0.0263 0.68676 0.0
C517 C 0.37932 1.01859 0.65759 0.0
C518 C 0.40631 0.9812 0.6859 0.0
C519 C 0.40018 0.99686 0.65681 0.0
H520 H 0.28888 0.04692 0.76362 0.0
H521 H 0.4114 0.99211 0.63372 0.0
H522 H 0.40789 0.95072 0.74574 0.0
H523 H 0.28747 1.01312 0.81572 0.0
H524 H 0.37469 0.02997 0.63475 0.0
H525 H 0.36953 0.23656 0.76951 0.0
H526 H 0.42218 0.96409 0.68521 0.0
H527 H 0.39733 0.18164 0.58378 0.0
H528 H 0.37894 0.18452 0.74208 0.0
H529 H 0.38845 0.22852 0.54749 0.0
H530 H 0.37312 0.95553 0.7953 0.0
H531 H 0.36656 0.28998 0.73691 0.0
H532 H 0.37019 0.3212 0.68182 0.0
H533 H 0.32769 0.9784 0.82156 0.0
H534 H 0.37185 0.31704 0.62161 0.0
N535 N 0.37973 0.20647 0.69356 0.0
C536 C 0.37727 0.20698 0.72713 0.0
C537 C 0.36993 0.26656 0.72451 0.0
C538 C 0.37236 0.26592 0.69024 0.0
C539 C 0.37174 0.23655 0.74298 0.0
C540 C 0.37606 0.23441 0.67524 0.0
H541 H 0.37627 0.28138 0.57137 0.0
N542 N 0.38326 0.20283 0.62779 0.0
C543 C 0.38472 0.2296 0.57379 0.0
C544 C 0.37753 0.23232 0.6413 0.0
C545 C 0.38877 0.20243 0.59446 0.0
C546 C 0.37798 0.25944 0.58736 0.0
C547 C 0.37541 0.26178 0.6215 0.0
O548 O 0.45395 0.19587 0.63751 0.0
O549 O 0.39726 0.11098 0.67746 0.0
O550 O 0.37149 0.09291 0.73382 0.0
O551 O 0.41792 0.15917 0.71596 0.0
O552 O 0.42527 0.13896 0.63429 0.0
O553 O 0.44873 0.22349 0.6819 0.0
O554 O 0.27095 0.03166 0.69969 0.0
O555 O 0.33916 0.12175 0.67738 0.0
O556 O 0.35399 0.13303 0.62519 0.0
O557 O 0.33934 0.06737 0.63746 0.0
O558 O 0.30138 0.09128 0.71515 0.0
O559 O 0.29707 1.0159 0.6596 0.0
C560 C 0.4195 0.11016 0.65429 0.0
C561 C 0.48864 0.26846 0.63791 0.0
C562 C 0.52934 0.34344 0.63616 0.0
C563 C 0.51121 0.30648 0.65433 0.0
C564 C 0.52366 0.34198 0.60203 0.0
C565 C 0.48548 0.26864 0.60339 0.0
C566 C 0.50197 0.30494 0.58585 0.0
C567 C 0.40283 0.12959 0.73886 0.0
C568 C 0.47063 0.2285 0.6557 0.0
C569 C 0.37278 0.29375 0.63638 0.0
C570 C 0.37194 0.29617 0.67067 0.0
C571 C 0.31474 0.12336 0.69742 0.0
C572 C 0.23696 0.9622 0.68346 0.0
C573 C 0.1942 0.94531 0.6859 0.0
C574 C 0.16805 0.90283 0.69046 0.0
C575 C 0.18609 0.87807 0.69194 0.0
C576 C 0.25356 0.93658 0.68642 0.0
C577 C 0.22823 0.89486 0.69044 0.0
C578 C 0.33968 0.09427 0.61677 0.0
C579 C 0.2639 1.00602 0.67604 0.0
H580 H 0.5156 0.30725 0.68069 0.0
H581 H 0.53715 0.36977 0.58766 0.0
H582 H 0.47069 0.24062 0.58954 0.0
H583 H 0.49872 0.3043 0.55939 0.0
H584 H 0.18162 0.96535 0.68431 0.0
H585 H 0.16772 0.84532 0.69386 0.0
H586 H 0.28614 0.94867 0.68491 0.0
H587 H 0.24133 0.87525 0.69195 0.0
Tb588 Tb 0.88363 0.23624 0.66119 0.0
C589 C 0.04078 0.34418 0.73645 0.0
C590 C 0.06704 0.40796 0.70734 0.0
C591 C 0.08443 0.40776 0.76481 0.0
C592 C 0.04333 0.36514 0.7081 0.0
C593 C 0.06224 0.36504 0.76489 0.0
C594 C 0.08663 0.42922 0.73611 0.0
C595 C 0.041 0.2999 0.79025 0.0
N596 N 1.01914 0.30293 0.73539 0.0
C597 C 1.02012 0.28058 0.76147 0.0
C598 C 0.06193 0.34232 0.79206 0.0
Tb599 Tb 0.98701 0.27382 0.68672 0.0
N600 N 1.02514 0.34332 0.68064 0.0
C601 C 0.0326 0.36262 0.65089 0.0
C602 C 0.07182 0.42795 0.67739 0.0
C603 C 0.0551 0.4051 0.64894 0.0
H604 H 1.00437 0.2478 0.7603 0.0
H605 H 0.05975 0.42014 0.62541 0.0
H606 H 0.10467 0.46213 0.73611 0.0
H607 H 0.04108 0.28206 0.81098 0.0
H608 H 1.02066 0.34562 0.62846 0.0
H609 H 0.81732 0.14339 0.76975 0.0
H610 H 0.08965 0.46081 0.67575 0.0
H611 H 0.86589 0.21541 0.58113 0.0
H612 H 0.86896 0.20277 0.7399 0.0
H613 H 0.81747 0.15803 0.54708 0.0
H614 H 0.10072 0.42441 0.78655 0.0
H615 H 0.76223 0.0857 0.73948 0.0
H616 H 0.72879 0.05541 0.68562 0.0
H617 H 0.07826 0.35719 0.81433 0.0
H618 H 0.73079 0.05785 0.62525 0.0
N619 N 0.84513 0.17911 0.69229 0.0
C620 C 0.84575 0.17803 0.72594 0.0
C621 C 0.78547 0.11156 0.72602 0.0
C622 C 0.78491 0.11271 0.69168 0.0
C623 C 0.81641 0.1441 0.74317 0.0
C624 C 0.81621 0.14675 0.67528 0.0
H625 H 0.76501 0.09472 0.57348 0.0
N626 N 0.84647 0.1826 0.62638 0.0
C627 C 0.8174 0.1546 0.5735 0.0
C628 C 0.81714 0.14839 0.64126 0.0
C629 C 0.84558 0.18672 0.59292 0.0
C630 C 0.78777 0.11902 0.58849 0.0
C631 C 0.78664 0.11602 0.62277 0.0
O632 O 0.85326 0.25952 0.6333 0.0
O633 O 0.94075 0.28995 0.67208 0.0
O634 O 0.96033 0.28596 0.72906 0.0
O635 O 0.89374 0.26548 0.71171 0.0
O636 O 0.91176 0.28974 0.62974 0.0
O637 O 0.82935 0.23194 0.6802 0.0
O638 O 1.01574 0.23888 0.69395 0.0
O639 O 0.92905 0.22104 0.67408 0.0
O640 O 0.91688 0.22447 0.62102 0.0
O641 O 0.98405 0.27247 0.63321 0.0
O642 O 0.95918 0.21511 0.71298 0.0
O643 O 0.04 0.28804 0.65957 0.0
C644 C 0.94153 0.31293 0.64886 0.0
C645 C 0.78074 0.22072 0.63769 0.0
C646 C 0.70573 0.17994 0.64064 0.0
C647 C 0.74402 0.20384 0.65629 0.0
C648 C 0.70476 0.17293 0.6067 0.0
C649 C 0.77786 0.21465 0.60341 0.0
C650 C 0.74044 0.19038 0.58829 0.0
C651 C 0.92407 0.28173 0.73398 0.0
C652 C 0.822 0.24545 0.65307 0.0
C653 C 0.75486 0.08261 0.63902 0.0
C654 C 0.75367 0.08129 0.6734 0.0
C655 C 0.92721 0.19589 0.69515 0.0
C656 C 0.08707 0.27385 0.68669 0.0
C657 C 0.10595 0.25007 0.68167 0.0
C658 C 0.14532 0.26285 0.69453 0.0
C659 C 0.16423 0.29876 0.71346 0.0
C660 C 0.10794 0.31033 0.70431 0.0
C661 C 0.14588 0.32233 0.71799 0.0
C662 C 0.95625 0.24609 0.61301 0.0
C663 C 0.0456 0.26059 0.67402 0.0
H664 H 0.74517 0.20933 0.68251 0.0
H665 H 0.67598 0.15493 0.59412 0.0
H666 H 0.80464 0.22868 0.58792 0.0
H667 H 0.73905 0.18556 0.56198 0.0
H668 H 0.09041 0.22235 0.66737 0.0
H669 H 0.19357 0.30893 0.72485 0.0
H670 H 0.095 0.32972 0.70752 0.0
H671 H 0.16126 0.3502 0.73209 0.0
Tb672 Tb 0.81992 0.65782 0.66872 0.0
C673 C 0.70901 0.70344 0.74534 0.0
C674 C 0.64414 0.66244 0.71856 0.0
C675 C 0.64628 0.68328 0.77534 0.0
C676 C 0.68707 0.6829 0.71797 0.0
C677 C 0.689 0.705 0.77405 0.0
C678 C 0.62385 0.66179 0.74768 0.0
C679 C 0.75479 0.75176 0.79702 0.0
N680 N 0.75025 0.72406 0.74299 0.0
C681 C 0.77326 0.7491 0.76806 0.0
C682 C 0.71249 0.72948 0.80009 0.0
Tb683 Tb 0.77785 0.71962 0.69384 0.0
N684 N 0.70792 0.68558 0.69008 0.0
C685 C 0.68728 0.67128 0.66112 0.0
C686 C 0.62297 0.64479 0.68951 0.0
C687 C 0.64469 0.64985 0.66053 0.0
H688 H 0.80592 0.76705 0.76598 0.0
H689 H 0.62868 0.63758 0.63764 0.0
H690 H 0.59089 0.64594 0.7487 0.0
H691 H 0.7732 0.77122 0.81688 0.0
H692 H 0.70332 0.67561 0.63827 0.0
H693 H 0.90967 0.68765 0.77992 0.0
H694 H 0.58999 0.62865 0.68892 0.0
H695 H 0.8456 0.66614 0.58917 0.0
H696 H 0.85038 0.67696 0.74864 0.0
H697 H 0.90614 0.68038 0.55688 0.0
H698 H 0.63031 0.68365 0.79733 0.0
H699 H 0.97069 0.6957 0.75124 0.0
H700 H 1.00673 0.70141 0.69814 0.0
H701 H 0.69827 0.73182 0.82247 0.0
H702 H 1.00663 0.70185 0.63776 0.0
N703 N 0.87609 0.67792 0.7016 0.0
C704 C 0.87604 0.67981 0.73523 0.0
C705 C 0.94449 0.69099 0.73708 0.0
C706 C 0.94518 0.69071 0.70273 0.0
C707 C 0.91009 0.68638 0.75335 0.0
C708 C 0.91018 0.68424 0.68545 0.0
H709 H 0.96977 0.69502 0.58504 0.0
N710 N 0.87579 0.67787 0.63556 0.0
C711 C 0.9079 0.6822 0.58344 0.0
C712 C 0.91008 0.68439 0.65139 0.0
C713 C 0.87387 0.67506 0.60192 0.0
C714 C 0.94363 0.69016 0.59941 0.0
C715 C 0.94491 0.69077 0.63376 0.0
O716 O 0.79732 0.60568 0.63926 0.0
O717 O 0.76434 0.6578 0.67993 0.0
O718 O 0.76794 0.68209 0.73667 0.0
O719 O 0.78986 0.63711 0.71899 0.0
O720 O 0.76621 0.63009 0.63747 0.0
O721 O 0.82815 0.60874 0.68426 0.0
O722 O 0.81168 0.78372 0.69786 0.0
O723 O 0.83266 0.71791 0.6808 0.0
O724 O 0.83003 0.70305 0.62913 0.0
O725 O 0.77668 0.71455 0.64053 0.0
O726 O 0.83645 0.75307 0.71974 0.0
O727 O 0.75966 0.75518 0.66651 0.0
C728 C 0.74194 0.63486 0.65678 0.0
C729 C 0.83683 0.57276 0.63879 0.0
C730 C 0.87226 0.53323 0.63553 0.0
C731 C 0.85153 0.54897 0.65424 0.0
C732 C 0.87907 0.54244 0.60194 0.0
C733 C 0.84242 0.57914 0.60458 0.0
C734 C 0.86417 0.56508 0.58663 0.0
C735 C 0.77299 0.65051 0.74141 0.0
C736 C 0.81311 0.58851 0.65705 0.0
C737 C 0.97968 0.697 0.65089 0.0
C738 C 0.97974 0.69677 0.68527 0.0
C739 C 0.85721 0.74221 0.7018 0.0
C740 C 0.77435 0.81772 0.69159 0.0
C741 C 0.79783 0.8602 0.6859 0.0
C742 C 0.78539 0.88698 0.69891 0.0
C743 C 0.75002 0.87033 0.7186 0.0
C744 C 0.73846 0.80238 0.71011 0.0
C745 C 0.72674 0.82853 0.72384 0.0
C746 C 0.80454 0.71602 0.62031 0.0
C747 C 0.7876 0.78953 0.67888 0.0
H748 H 0.84593 0.54182 0.68017 0.0
H749 H 0.89481 0.53075 0.58721 0.0
H750 H 0.82949 0.5946 0.59122 0.0
H751 H 0.86859 0.5709 0.56047 0.0
H752 H 0.82512 0.87211 0.67101 0.0
H753 H 0.74013 0.88967 0.7301 0.0
H754 H 0.7194 0.77013 0.71403 0.0
H755 H 0.69934 0.81632 0.7386 0.0
C756 C 0.3239 0.50227 0.9913 0.0
C757 C 0.34284 0.54095 1.00627 0.0
C758 C 0.28105 0.47826 0.98901 0.0
C759 C 0.25614 0.49376 1.00051 0.0
C760 C 0.27477 0.53185 0.01677 0.0
C761 C 0.31742 0.55427 0.02015 0.0
C762 C 0.26252 0.43663 0.97355 0.0
C763 C 0.24972 0.54982 0.02956 0.0
C764 C 0.15764 0.46832 0.95668 0.0
C765 C 0.12832 0.4495 0.98166 0.0
C766 C 0.19895 0.48122 0.96202 0.0
C767 C 0.21144 0.47295 0.99247 0.0
C768 C 0.18119 0.44916 0.01614 0.0
C769 C 0.14019 0.43839 0.0106 0.0
C770 C 0.22961 0.50719 0.93614 0.0
C771 C 0.19198 0.43695 0.04819 0.0
H772 H 0.34234 0.49089 0.98043 0.0
H773 H 0.33072 0.58282 0.03335 0.0
H774 H 0.23497 0.41448 0.98731 0.0
H775 H 0.25309 0.43792 0.94799 0.0
H776 H 0.28444 0.42527 0.97278 0.0
H777 H 0.2688 0.58029 0.0408 0.0
H778 H 0.23181 0.55271 1.0092 0.0
H779 H 0.22778 0.52935 0.0483 0.0
H780 H 0.14892 0.47636 0.93372 0.0
H781 H 0.11773 0.42272 0.02934 0.0
H782 H 0.24942 0.4945 0.92959 0.0
H783 H 0.24953 0.53825 0.94605 0.0
H784 H 0.21489 0.50974 0.91336 0.0
H785 H 0.22043 0.4355 0.04629 0.0
H786 H 0.16693 0.40682 0.05635 0.0
H787 H 0.19614 0.45944 0.06743 0.0
C788 C 0.5803 0.84195 0.99459 0.0
C789 C 0.54455 0.82721 0.97597 0.0
C790 C 0.59726 0.81693 1.00161 0.0
C791 C 0.57791 0.77626 0.98978 0.0
C792 C 0.54116 0.76122 0.97171 0.0
C793 C 0.5251 0.78675 0.96517 0.0
C794 C 0.63717 0.83478 0.0198 0.0
C795 C 0.51979 0.71906 0.95697 0.0
C796 C 0.62489 0.71041 0.9705 0.0
C797 C 0.6117 0.68337 0.99719 0.0
C798 C 0.61832 0.74384 0.96954 0.0
C799 C 0.59603 0.74934 0.99511 0.0
C800 C 0.58464 0.72347 0.02296 0.0
C801 C 0.59267 0.69101 0.02361 0.0
C802 C 0.6322 0.77111 0.93972 0.0
C803 C 0.55966 0.72687 0.05038 0.0
H804 H 0.59606 0.87356 1.00219 0.0
H805 H 0.49795 0.7755 0.95014 0.0
H806 H 0.63527 0.81448 0.04018 0.0
H807 H 0.66128 0.83749 1.00275 0.0
H808 H 0.64646 0.86537 0.02998 0.0
H809 H 0.48656 0.7073 0.95455 0.0
H810 H 0.53206 0.72044 0.93194 0.0
H811 H 0.52448 0.69712 0.97155 0.0
H812 H 0.63828 0.70403 0.94937 0.0
H813 H 0.57989 0.66915 0.04328 0.0
H814 H 0.64337 0.80324 0.94675 0.0
H815 H 0.60614 0.76164 0.92271 0.0
H816 H 0.65676 0.76926 0.92629 0.0
H817 H 0.55847 0.70883 0.07231 0.0
H818 H 0.5281 0.71547 0.04153 0.0
H819 H 0.57208 0.75903 0.05784 0.0
C820 C 0.35263 0.91738 0.01932 0.0
C821 C 0.36958 0.93235 0.98819 0.0
C822 C 0.31854 0.87784 0.02301 0.0
C823 C 0.30146 0.85244 0.99506 0.0
C824 C 0.3166 0.86886 0.96348 0.0
C825 C 0.34996 0.90849 0.96049 0.0
C826 C 0.30219 0.86253 0.05695 0.0
C827 C 0.29929 0.84363 0.93277 0.0
C828 C 0.25319 0.73669 0.99473 0.0
C829 C 0.21237 0.72419 0.98784 0.0
C830 C 0.28204 0.77818 0.99985 0.0
C831 C 0.26985 0.80801 0.99822 0.0
C832 C 0.22792 0.79493 0.99435 0.0
C833 C 0.19987 0.75338 0.98895 0.0
C834 C 0.32625 0.79045 1.00411 0.0
C835 C 0.21302 0.82508 0.99301 0.0
H836 H 0.36709 0.93562 0.04089 0.0
H837 H 0.36255 0.91994 0.9363 0.0
H838 H 0.31424 0.88755 0.07529 0.0
H839 H 0.26845 0.84704 0.05713 0.0
H840 H 0.31085 0.83979 0.06448 0.0
H841 H 0.31294 0.8615 0.90999 0.0
H842 H 0.30498 0.81763 0.93317 0.0
H843 H 0.26586 0.83087 0.93179 0.0
H844 H 0.26324 0.71452 0.99343 0.0
H845 H 0.16841 0.74401 0.98341 0.0
H846 H 0.33981 0.81207 0.02488 0.0
H847 H 0.34341 0.80622 0.98156 0.0
H848 H 0.33032 0.76382 1.00864 0.0
H849 H 0.22899 0.8497 0.01133 0.0
H850 H 0.1797 0.81015 0.99746 0.0
H851 H 0.21944 0.8394 0.96831 0.0
C852 C 0.47154 0.28723 0.01476 0.0
C853 C 0.49228 0.26691 0.02399 0.0
C854 C 0.49138 0.32973 0.01273 0.0
C855 C 0.53348 0.35329 0.01995 0.0
C856 C 0.55548 0.33277 0.02643 0.0
C857 C 0.53459 0.28981 0.02865 0.0
C858 C 0.46572 0.34829 1.00409 0.0
C859 C 0.60094 0.3562 0.03156 0.0
C860 C 0.58086 0.46685 0.99969 0.0
C861 C 0.58567 0.48397 0.03106 0.0
C862 C 0.56586 0.42476 0.99567 0.0
C863 C 0.55334 0.39876 0.0236 0.0
C864 C 0.55719 0.41609 0.05523 0.0
C865 C 0.57492 0.45851 0.05861 0.0
C866 C 0.56254 0.40803 0.96148 0.0
C867 C 0.54116 0.38972 0.08552 0.0
H868 H 0.43908 0.26979 0.00995 0.0
H869 H 0.5511 0.27434 0.03524 0.0
H870 H 0.44184 0.33967 0.02318 0.0
H871 H 0.48347 0.38172 1.00194 0.0
H872 H 0.44988 0.33559 0.9804 0.0
H873 H 0.61446 0.33613 0.03052 0.0
H874 H 0.61572 0.38036 0.01263 0.0
H875 H 0.60794 0.3713 0.05592 0.0
H876 H 0.58991 0.48652 0.97831 0.0
H877 H 0.5792 0.47176 0.08291 0.0
H878 H 0.53014 0.39175 0.9538 0.0
H879 H 0.57357 0.38587 0.96101 0.0
H880 H 0.58015 0.43249 0.94328 0.0
H881 H 0.50857 0.36664 0.082 0.0
H882 H 0.54395 0.40767 0.10793 0.0
H883 H 0.55795 0.37314 0.08962 0.0
C884 C 0.59987 0.10641 0.05321 0.0
C885 C 0.57537 0.09168 0.02512 0.0
C886 C 0.64251 0.13101 0.05087 0.0
C887 C 0.6614 0.14305 0.01957 0.0
C888 C 0.63659 0.12858 0.99099 0.0
C889 C 0.59405 0.10267 0.99412 0.0
C890 C 0.66741 0.14367 0.08203 0.0
C891 C 0.6546 0.14014 0.95694 0.0
C892 C 0.76984 0.23552 0.02186 0.0
C893 C 0.79387 0.21687 0.02038 0.0
C894 C 0.7268 0.21222 0.01997 0.0
C895 C 0.70713 0.16917 0.0172 0.0
C896 C 0.73148 0.15074 0.01428 0.0
C897 C 0.7741 0.17462 0.01525 0.0
C898 C 0.70228 0.23354 0.0216 0.0
C899 C 0.71251 0.10542 0.01114 0.0
H900 H 0.58556 0.0982 0.07723 0.0
H901 H 0.57531 0.09204 0.97225 0.0
H902 H 0.69016 0.13339 0.0813 0.0
H903 H 0.68443 0.17731 0.08409 0.0
H904 H 0.6483 0.13084 0.10438 0.0
H905 H 0.63184 0.13868 0.93897 0.0
H906 H 0.68159 0.17119 0.95636 0.0
H907 H 0.66423 0.11833 0.94876 0.0
H908 H 0.78447 0.2681 0.02555 0.0
H909 H 0.79207 0.15978 0.01268 0.0
H910 H 0.68471 0.22556 0.0449 0.0
H911 H 0.68001 0.2232 1.00109 0.0
H912 H 0.72184 0.26715 0.0203 0.0
H913 H 0.69182 0.09038 0.03226 0.0
H914 H 0.73544 0.09534 0.0103 0.0
H915 H 0.69426 0.09538 0.9883 0.0
C916 C 0.9465 0.48899 0.05566 0.0
C917 C 0.96117 0.48048 0.02687 0.0
C918 C 0.92219 0.50745 0.05456 0.0
C919 C 0.9106 0.51618 0.02381 0.0
C920 C 0.92472 0.50679 0.99454 0.0
C921 C 0.95015 0.48952 0.99644 0.0
C922 C 0.90947 0.51824 0.08644 0.0
C923 C 0.91306 0.51497 0.96113 0.0
C924 C 0.82108 0.53691 0.02645 0.0
C925 C 0.84142 0.57971 0.02622 0.0
C926 C 0.84288 0.51564 0.02433 0.0
C927 C 0.88607 0.53753 0.02256 0.0
C928 C 0.90628 0.58048 0.02128 0.0
C929 C 0.88394 0.60082 0.02245 0.0
C930 C 0.81978 0.46977 0.02469 0.0
C931 C 0.95188 0.60525 0.01987 0.0
H932 H 0.95464 0.48171 0.07923 0.0
H933 H 0.96052 0.48212 0.97405 0.0
H934 H 0.92115 0.55151 0.08735 0.0
H935 H 0.87579 0.50283 0.08795 0.0
H936 H 0.92099 0.50953 0.10829 0.0
H937 H 0.92046 0.4997 0.94118 0.0
H938 H 0.88002 0.50454 0.96024 0.0
H939 H 0.92978 0.54815 0.95622 0.0
H940 H 0.78828 0.51999 0.02924 0.0
H941 H 0.90019 0.63373 0.02097 0.0
H942 H 0.82645 0.4586 0.04775 0.0
H943 H 0.82981 0.45787 1.00393 0.0
H944 H 0.78635 0.45714 0.02294 0.0
H945 H 0.96472 0.59972 0.0425 0.0
H946 H 0.96332 0.63842 0.01766 0.0
H947 H 0.9629 0.59534 0.99857 0.0
C948 C 0.81805 0.79642 0.35681 0.0
C949 C 0.79406 0.78137 0.32848 0.0
C950 C 0.85804 0.80308 0.35809 0.0
C951 C 0.87542 0.7962 0.32973 0.0
C952 C 0.8506 0.77873 0.30158 0.0
C953 C 0.81035 0.77158 0.30133 0.0
C954 C 0.88281 0.82106 0.38888 0.0
C955 C 0.86762 0.77096 0.27063 0.0
C956 C 0.98781 0.86805 0.31119 0.0
C957 C 1.00488 0.8432 0.31637 0.0
C958 C 0.94612 0.85352 0.3166 0.0
C959 C 0.92062 0.813 0.32764 0.0
C960 C 0.93824 0.78849 0.33471 0.0
C961 C 0.98009 0.80372 0.3286 0.0
C962 C 0.92894 0.88087 0.30857 0.0
C963 C 0.91251 0.74551 0.3471 0.0
H964 H 0.80733 0.80682 0.37693 0.0
H965 H 0.79251 0.76105 0.27895 0.0
H966 H 0.90094 0.80625 0.39476 0.0
H967 H 0.90445 0.85391 0.38495 0.0
H968 H 0.86331 0.81786 0.41036 0.0
H969 H 0.84338 0.75271 0.25249 0.0
H970 H 0.88948 0.80047 0.25912 0.0
H971 H 0.88448 0.75483 0.2764 0.0
H972 H 1.00672 0.8982 0.30094 0.0
H973 H 0.99301 0.7841 0.33182 0.0
H974 H 0.91201 0.8831 0.32998 0.0
H975 H 0.90705 0.86769 0.2879 0.0
H976 H 0.95301 0.91204 0.30156 0.0
H977 H 0.89266 0.74445 0.3676 0.0
H978 H 0.93141 0.73246 0.35569 0.0
H979 H 0.89236 0.72602 0.32708 0.0
C980 C 0.19401 0.13459 0.31904 0.0
C981 C 0.22115 0.17603 0.31338 0.0
C982 C 0.20803 0.10652 0.32218 0.0
C983 C 0.2503 0.12007 0.31968 0.0
C984 C 0.27797 0.16235 0.31638 0.0
C985 C 0.26309 0.18966 0.31286 0.0
C986 C 0.17735 0.06192 0.32614 0.0
C987 C 0.32325 0.17851 0.31481 0.0
C988 C 0.28197 0.0417 0.34323 0.0
C989 C 0.28134 0.02406 0.31282 0.0
C990 C 0.27415 0.07433 0.34594 0.0
C991 C 0.26491 0.08968 0.31739 0.0
C992 C 0.26703 0.07381 0.28632 0.0
C993 C 0.27531 0.0415 0.28445 0.0
C994 C 0.27314 0.09012 0.37975 0.0
C995 C 0.25805 0.08924 0.25502 0.0
H996 H 0.16157 0.12369 0.31871 0.0
H997 H 0.28421 0.22153 0.30793 0.0
H998 H 0.17771 0.04508 0.30395 0.0
H999 H 0.18558 0.04923 0.34746 0.0
H1000 H 0.14594 0.0564 0.32978 0.0
H1001 H 0.34094 0.21226 0.3159 0.0
H1002 H 0.33288 0.16602 0.33541 0.0
H1003 H 0.33092 0.16851 0.29158 0.0
H1004 H 0.28601 0.02838 0.36509 0.0
H1005 H 0.27462 0.02814 0.26072 0.0
H1006 H 0.24226 0.07125 0.39037 0.0
H1007 H 0.28021 0.12223 0.3792 0.0
H1008 H 0.29516 0.08787 0.39635 0.0
H1009 H 0.2257 0.08158 0.255 0.0
H1010 H 0.26369 0.07585 0.23273 0.0
H1011 H 0.27705 0.12284 0.25358 0.0
C1012 C 1.01723 0.24812 0.29743 0.0
C1013 C 0.03643 0.27285 0.32483 0.0
C1014 C 0.9844 0.20828 0.30091 0.0
C1015 C 0.96926 0.19261 0.33265 0.0
C1016 C 0.98565 0.21893 0.36018 0.0
C1017 C 1.01933 0.25864 0.35604 0.0
C1018 C 0.96784 0.18203 0.27061 0.0
C1019 C 0.9688 0.20444 0.39414 0.0
C1020 C 0.87023 0.09091 0.32702 0.0
C1021 C 0.88455 0.06315 0.32741 0.0
C1022 C 0.89675 0.13293 0.33191 0.0
C1023 C 0.93896 0.14792 0.33655 0.0
C1024 C 0.95293 0.11957 0.33953 0.0
C1025 C 0.92557 0.0776 0.33504 0.0
C1026 C 0.87993 0.16142 0.32917 0.0
C1027 C 0.99753 0.13387 0.34445 0.0
H1028 H 0.02986 0.25902 0.27316 0.0
H1029 H 0.03338 0.27762 0.37735 0.0
H1030 H 0.97443 0.15665 0.27186 0.0
H1031 H 0.93431 0.16841 0.26936 0.0
H1032 H 0.98132 0.19939 0.24759 0.0
H1033 H 0.97536 0.18028 0.40186 0.0
H1034 H 0.98198 0.22953 0.4124 0.0
H1035 H 0.93522 0.19083 0.39409 0.0
H1036 H 0.83865 0.08002 0.3207 0.0
H1037 H 0.93701 0.0565 0.33473 0.0
H1038 H 0.88466 0.17361 0.30376 0.0
H1039 H 0.8957 0.18761 0.34617 0.0
H1040 H 0.84674 0.1455 0.33447 0.0
H1041 H 1.01465 0.14956 0.32186 0.0
H1042 H 1.00299 0.10827 0.34981 0.0
H1043 H 1.01002 0.1561 0.36491 0.0
C1044 C 0.23283 0.80339 0.33151 0.0
C1045 C 0.25088 0.82567 0.36018 0.0
C1046 C 0.21391 0.76049 0.33102 0.0
C1047 C 0.21563 0.7392 0.35918 0.0
C1048 C 0.23683 0.76208 0.38734 0.0
C1049 C 0.2532 0.80462 0.38774 0.0
C1050 C 0.19153 0.73799 0.30044 0.0
C1051 C 0.24199 0.74185 0.41744 0.0
C1052 C 0.13538 0.62845 0.37768 0.0
C1053 C 0.14855 0.60591 0.35906 0.0
C1054 C 0.15646 0.67121 0.37768 0.0
C1055 C 0.19346 0.6932 0.35988 0.0
C1056 C 0.20874 0.67072 0.34297 0.0
C1057 C 0.18578 0.62768 0.34215 0.0
C1058 C 0.13795 0.69177 0.39717 0.0
C1059 C 0.24943 0.69123 0.32568 0.0
H1060 H 0.23312 0.81941 0.30946 0.0
H1061 H 0.26826 0.82158 0.40975 0.0
H1062 H 0.20735 0.72319 0.28903 0.0
H1063 H 0.16019 0.71375 0.30682 0.0
H1064 H 0.18979 0.75851 0.28187 0.0
H1065 H 0.26901 0.76344 0.43201 0.0
H1066 H 0.2148 0.73109 0.43342 0.0
H1067 H 0.24528 0.71526 0.41076 0.0
H1068 H 0.10802 0.61277 0.39245 0.0
H1069 H 0.19704 0.61133 0.32778 0.0
H1070 H 0.15273 0.72479 0.39264 0.0
H1071 H 0.14015 0.6867 0.42379 0.0
H1072 H 0.10504 0.67775 0.39133 0.0
H1073 H 0.24448 0.68768 0.29872 0.0
H1074 H 0.26687 0.67591 0.3324 0.0
H1075 H 0.26828 0.72404 0.33158 0.0
C1076 C 0.26546 0.45073 0.38831 0.0
C1077 C 0.24109 0.43587 0.36017 0.0
C1078 C 0.30809 0.47533 0.38606 0.0
C1079 C 0.3271 0.48733 0.3548 0.0
C1080 C 0.3024 0.47282 0.32616 0.0
C1081 C 0.25986 0.44686 0.32921 0.0
C1082 C 0.33287 0.48795 0.4173 0.0
C1083 C 0.32043 0.48427 0.29211 0.0
C1084 C 0.43567 0.57934 0.35827 0.0
C1085 C 0.45944 0.56039 0.3572 0.0
C1086 C 0.39268 0.55632 0.35569 0.0
C1087 C 0.37284 0.5133 0.35261 0.0
C1088 C 0.39703 0.49468 0.34986 0.0
C1089 C 0.43961 0.51826 0.35161 0.0
C1090 C 0.36838 0.57787 0.35699 0.0
C1091 C 0.37789 0.44942 0.3463 0.0
H1092 H 0.25105 0.44255 0.41229 0.0
H1093 H 0.24121 0.43619 0.3073 0.0
H1094 H 0.3556 0.47765 0.41665 0.0
H1095 H 0.34989 0.52159 0.41938 0.0
H1096 H 0.31366 0.47512 0.4396 0.0
H1097 H 0.29812 0.48428 0.27442 0.0
H1098 H 0.34838 0.51465 0.29163 0.0
H1099 H 0.32841 0.46139 0.28346 0.0
H1100 H 0.45044 0.61189 0.36225 0.0
H1101 H 0.45749 0.50329 0.34941 0.0
H1102 H 0.3506 0.57001 0.38018 0.0
H1103 H 0.34631 0.56764 0.33634 0.0
H1104 H 0.38812 0.61146 0.3557 0.0
H1105 H 0.40071 0.43924 0.34476 0.0
H1106 H 0.35912 0.43967 0.32372 0.0
H1107 H 0.35769 0.43429 0.36765 0.0
C1108 C 0.553 0.94233 0.34928 0.0
C1109 C 0.51051 0.92089 0.35337 0.0
C1110 C 0.57588 0.92254 0.34953 0.0
C1111 C 0.55621 0.87974 0.35252 0.0
C1112 C 0.51304 0.85739 0.3544 0.0
C1113 C 0.49072 0.87818 0.35517 0.0
C1114 C 0.62146 0.94782 0.34803 0.0
C1115 C 0.49052 0.81158 0.3563 0.0
C1116 C 0.62129 0.83118 0.33134 0.0
C1117 C 0.6314 0.82342 0.36263 0.0
C1118 C 0.59589 0.84827 0.32755 0.0
C1119 C 0.58121 0.85908 0.35575 0.0
C1120 C 0.59221 0.85198 0.38736 0.0
C1121 C 0.61622 0.83338 0.39036 0.0
C1122 C 0.58481 0.85459 0.2933 0.0
C1123 C 0.57906 0.86453 0.41814 0.0
H1124 H 0.5688 0.97511 0.34653 0.0
H1125 H 0.45796 0.86099 0.35817 0.0
H1126 H 0.63442 0.94377 0.37122 0.0
H1127 H 0.6329 0.93719 0.32749 0.0
H1128 H 0.63241 0.98075 0.34459 0.0
H1129 H 0.45705 0.79839 0.35411 0.0
H1130 H 0.50108 0.79891 0.33649 0.0
H1131 H 0.49713 0.80181 0.3801 0.0
H1132 H 0.63215 0.82273 0.30978 0.0
H1133 H 0.62368 0.82707 0.41458 0.0
H1134 H 0.60316 0.88721 0.28663 0.0
H1135 H 0.5522 0.84587 0.29195 0.0
H1136 H 0.59086 0.83675 0.27475 0.0
H1137 H 0.59004 0.89767 0.41739 0.0
H1138 H 0.59091 0.85775 0.44081 0.0
H1139 H 0.54535 0.84856 0.41958 0.0
C1140 C 0.63823 0.12181 0.65829 0.0
C1141 C 0.66563 0.16392 0.65763 0.0
C1142 C 0.59627 0.10607 0.6641 0.0
C1143 C 0.58095 0.13305 0.66857 0.0
C1144 C 0.60904 0.1755 0.67047 0.0
C1145 C 0.65096 0.19036 0.66509 0.0
C1146 C 0.56807 0.06066 0.66258 0.0
C1147 C 0.59441 0.20558 0.67512 0.0
C1148 C 0.47931 0.10885 0.63095 0.0
C1149 C 0.45526 0.10411 0.6587 0.0
C1150 C 0.51939 0.11629 0.63387 0.0
C1151 C 0.53602 0.11809 0.66543 0.0
C1152 C 0.51039 0.10891 0.6934 0.0
C1153 C 0.47039 0.1024 0.68979 0.0
C1154 C 0.54488 0.12521 0.60314 0.0
C1155 C 0.52592 0.10811 0.72728 0.0
H1156 H 0.64926 0.1012 0.65208 0.0
H1157 H 0.67177 0.2229 0.66398 0.0
H1158 H 0.54284 0.05064 0.68058 0.0
H1159 H 0.55439 0.05221 0.6377 0.0
H1160 H 0.58459 0.04388 0.66737 0.0
H1161 H 0.61995 0.23688 0.67968 0.0
H1162 H 0.57793 0.20606 0.65273 0.0
H1163 H 0.57276 0.19632 0.69602 0.0
H1164 H 0.4677 0.10974 0.60678 0.0
H1165 H 0.45195 0.09815 0.71137 0.0
H1166 H 0.55883 0.10559 0.60206 0.0
H1167 H 0.57005 0.15729 0.60358 0.0
H1168 H 0.52682 0.12037 0.58038 0.0
H1169 H 0.54829 0.13958 0.73485 0.0
H1170 H 0.54194 0.09036 0.72728 0.0
H1171 H 0.5009 0.09471 0.74566 0.0
C1172 C 0.93034 0.36196 0.68269 0.0
C1173 C 0.94606 0.35399 0.65422 0.0
C1174 C 0.92316 0.3949 0.68466 0.0
C1175 C 0.93036 0.42005 0.65687 0.0
C1176 C 0.94812 0.41351 0.62844 0.0
C1177 C 0.95563 0.38061 0.62747 0.0
C1178 C 0.90466 0.40065 0.71565 0.0
C1179 C 0.95622 0.43925 0.59806 0.0
C1180 C 0.85919 0.46251 0.64169 0.0
C1181 C 0.88408 0.50397 0.64869 0.0
C1182 C 0.87358 0.43493 0.64509 0.0
C1183 C 0.91405 0.44899 0.65588 0.0
C1184 C 0.93871 0.49057 0.66456 0.0
C1185 C 0.9236 0.51766 0.6605 0.0
C1186 C 0.84604 0.39103 0.63543 0.0
C1187 C 0.98169 0.50682 0.67667 0.0
H1188 H 0.91998 0.34047 0.70247 0.0
H1189 H 0.9666 0.37411 0.60493 0.0
H1190 H 0.92118 0.43305 0.72328 0.0
H1191 H 0.87255 0.39219 0.71096 0.0
H1192 H 0.90519 0.38176 0.73629 0.0
H1193 H 0.97459 0.43378 0.57961 0.0
H1194 H 0.92681 0.43211 0.58661 0.0
H1195 H 0.97241 0.47202 0.60453 0.0
H1196 H 0.82905 0.45207 0.63169 0.0
H1197 H 0.94334 0.54989 0.66504 0.0
H1198 H 0.84335 0.37059 0.65597 0.0
H1199 H 0.85938 0.38339 0.61419 0.0
H1200 H 0.81502 0.38462 0.6286 0.0
H1201 H 0.98242 0.48725 0.69663 0.0
H1202 H 0.99527 0.53851 0.68591 0.0
H1203 H 1.00094 0.50632 0.65632 0.0
C1204 C 0.69414 0.5731 0.6899 0.0
C1205 C 0.70159 0.59726 0.66179 0.0
C1206 C 0.66214 0.5324 0.69119 0.0
C1207 C 0.63756 0.51445 0.6631 0.0
C1208 C 0.64356 0.53923 0.63511 0.0
C1209 C 0.67543 0.58012 0.6348 0.0
C1210 C 0.65696 0.50773 0.72177 0.0
C1211 C 0.61841 0.52172 0.60445 0.0
C1212 C 0.5991 0.40234 0.64439 0.0
C1213 C 0.55724 0.38414 0.65075 0.0
C1214 C 0.62556 0.44424 0.64944 0.0
C1215 C 0.60996 0.469 0.66117 0.0
C1216 C 0.56796 0.45035 0.66926 0.0
C1217 C 0.54203 0.40823 0.66367 0.0
C1218 C 0.66995 0.46239 0.64043 0.0
C1219 C 0.55003 0.47525 0.68226 0.0
H1220 H 0.71535 0.58452 0.70992 0.0
H1221 H 0.68156 0.59803 0.61256 0.0
H1222 H 0.62428 0.48891 0.72829 0.0
H1223 H 0.66885 0.48674 0.71717 0.0
H1224 H 0.67355 0.52731 0.7431 0.0
H1225 H 0.6233 0.54573 0.58639 0.0
H1226 H 0.62671 0.5005 0.59264 0.0
H1227 H 0.58555 0.50407 0.61066 0.0
H1228 H 0.61079 0.38403 0.63366 0.0
H1229 H 0.50954 0.39455 0.66781 0.0
H1230 H 0.68953 0.47981 0.66145 0.0
H1231 H 0.67744 0.48399 0.61968 0.0
H1232 H 0.6777 0.43885 0.63312 0.0
H1233 H 0.56884 0.49507 0.70271 0.0
H1234 H 0.51829 0.45581 0.69112 0.0
H1235 H 0.54999 0.4954 0.66251 0.0
C1236 C 0.85068 0.95522 0.69178 0.0
C1237 C 0.8079 0.93201 0.69225 0.0
C1238 C 0.87105 0.99817 0.68897 0.0
C1239 C 0.84828 1.01859 0.68721 0.0
C1240 C 0.80531 0.99501 0.68627 0.0
C1241 C 0.78585 0.95243 0.68818 0.0
C1242 C 0.91695 0.0218 0.68854 0.0
C1243 C 0.7796 1.01481 0.6842 0.0
C1244 C 0.8966 0.12705 0.72099 0.0
C1245 C 0.90491 0.15061 0.69244 0.0
C1246 C 0.87794 0.08435 0.71952 0.0
C1247 C 0.86885 0.06439 0.68861 0.0
C1248 C 0.87778 0.08824 0.65955 0.0
C1249 C 0.89519 0.13092 0.66186 0.0
C1250 C 0.86736 0.0605 0.75123 0.0
C1251 C 0.8689 0.06906 0.62588 0.0
H1252 H 0.86827 0.94004 0.69465 0.0
H1253 H 0.7529 0.93504 0.68715 0.0
H1254 H 0.92788 0.04325 0.66744 0.0
H1255 H 0.92837 0.04019 0.7113 0.0
H1256 H 0.93025 1.00159 0.68677 0.0
H1257 H 0.74644 0.99248 0.68463 0.0
H1258 H 0.7869 0.03614 0.70508 0.0
H1259 H 0.78687 0.03246 0.66107 0.0
H1260 H 0.90427 0.14215 0.74468 0.0
H1261 H 0.90217 0.14894 0.63963 0.0
H1262 H 0.88337 0.04279 0.75253 0.0
H1263 H 0.83418 0.03844 0.75203 0.0
H1264 H 0.87563 0.08041 0.77323 0.0
H1265 H 0.87251 0.0418 0.62521 0.0
H1266 H 0.88912 0.091 0.60696 0.0
H1267 H 0.83704 0.05959 0.61909 0.0
C1268 C 0.92365 0.7722 0.66992 0.0
C1269 C 0.90261 0.76752 0.69942 0.0
C1270 C 0.96657 0.79605 0.66833 0.0
C1271 C 0.98903 0.81847 0.69632 0.0
C1272 C 0.96729 0.81653 0.72534 0.0
C1273 C 0.92478 0.79042 0.72676 0.0
C1274 C 0.98779 0.79668 0.63678 0.0
C1275 C 0.98866 0.84149 0.75534 0.0
C1276 C 0.10006 0.84776 0.71204 0.0
C1277 C 0.12232 0.88349 0.69345 0.0
C1278 C 0.0573 0.82643 0.71287 0.0
C1279 C 0.03506 0.84182 0.69594 0.0
C1280 C 0.05735 0.87963 0.67911 0.0
C1281 C 0.10036 0.89935 0.67743 0.0
C1282 C 0.03703 0.78741 0.73236 0.0
C1283 C 0.03671 0.90036 0.66294 0.0
H1284 H 0.90664 0.75697 0.64806 0.0
H1285 H 0.90874 0.78823 0.74943 0.0
H1286 H 1.00218 0.82746 0.62575 0.0
H1287 H 1.01223 0.78939 0.6418 0.0
H1288 H 0.96645 0.77483 0.61839 0.0
H1289 H 0.96792 0.84791 0.77022 0.0
H1290 H 0.99854 0.82413 0.77107 0.0
H1291 H 1.0159 0.87084 0.7486 0.0
H1292 H 0.11598 0.83582 0.72617 0.0
H1293 H 0.11652 0.92703 0.66314 0.0
H1294 H 1.00388 0.76937 0.72836 0.0
H1295 H 0.04275 0.79464 0.75894 0.0
H1296 H 0.05077 0.7684 0.72601 0.0
H1297 H 0.0403 0.9001 0.63587 0.0
H1298 H 0.05201 0.9328 0.67054 0.0
H1299 H 1.00387 0.88616 0.66896 0.0
C1300 C 0.27601 0.15448 0.7215 0.0
C1301 C 0.29157 0.14538 0.69353 0.0
C1302 C 0.25156 0.17266 0.71897 0.0
C1303 C 0.24043 0.18025 0.68757 0.0
C1304 C 0.25563 0.17044 0.65911 0.0
C1305 C 0.28143 0.1537 0.66246 0.0
C1306 C 0.23814 0.18436 0.75006 0.0
C1307 C 0.24506 0.17761 0.62494 0.0
C1308 C 0.14872 0.19757 0.68924 0.0
C1309 C 0.16794 0.24028 0.68842 0.0
C1310 C 0.17161 0.1774 0.68725 0.0
C1311 C 0.21476 0.20034 0.68504 0.0
C1312 C 0.23374 0.24317 0.68266 0.0
C1313 C 0.21031 0.26237 0.68375 0.0
C1314 C 0.14974 0.13156 0.68819 0.0
C1315 C 0.27918 0.26905 0.68012 0.0
H1316 H 0.28355 0.14784 0.74557 0.0
H1317 H 0.29263 0.14603 0.64067 0.0
H1318 H 0.24871 0.21742 0.74973 0.0
H1319 H 0.20443 0.16796 0.75153 0.0
H1320 H 0.25021 0.17742 0.77252 0.0
H1321 H 0.24611 0.15604 0.60703 0.0
H1322 H 0.21441 0.17458 0.62399 0.0
H1323 H 0.26777 0.20883 0.61694 0.0
H1324 H 0.11601 0.17994 0.69252 0.0
H1325 H 0.22558 0.29522 0.68173 0.0
H1326 H 0.15686 0.12126 0.71149 0.0
H1327 H 0.16042 0.11988 0.6677 0.0
H1328 H 0.11618 0.11797 0.68634 0.0
H1329 H 0.29345 0.26345 0.70179 0.0
H1330 H 0.28964 0.30208 0.67882 0.0
H1331 H 0.28966 0.26032 0.65777 0.0
C1332 C 0.17808 0.42828 0.23099 0.0
C1333 C 0.14241 0.40528 0.24942 0.0
C1334 C 0.1771 0.44655 0.20081 0.0
C1335 C 0.13953 0.44107 0.18853 0.0
C1336 C 0.10364 0.41763 0.20716 0.0
C1337 C 0.10562 0.40043 0.23714 0.0
C1338 C 0.21615 0.47172 0.18204 0.0
C1339 C 0.06263 0.40974 0.19506 0.0
C1340 C 0.11853 0.49581 0.11829 0.0
C1341 C 0.10589 0.46623 0.09354 0.0
C1342 C 0.13337 0.49017 0.14878 0.0
C1343 C 0.13572 0.45431 0.15444 0.0
C1344 C 0.12637 0.42651 0.12835 0.0
C1345 C 0.11127 0.43258 0.09881 0.0
C1346 C 0.14371 0.52109 0.17568 0.0
C1347 C 0.12793 0.38773 0.13266 0.0
H1348 H 0.20676 0.43282 0.24052 0.0
H1349 H 0.07782 0.38264 0.25099 0.0
H1350 H 0.21463 0.45733 0.15795 0.0
H1351 H 0.22033 0.50232 0.17693 0.0
H1352 H 0.24313 0.47528 0.19567 0.0
H1353 H 0.03757 0.39084 0.21243 0.0
H1354 H 0.06322 0.43898 0.19126 0.0
H1355 H 0.05568 0.39395 0.171 0.0
H1356 H 0.11417 0.52171 0.11484 0.0
H1357 H 0.10115 0.40904 0.08048 0.0
H1358 H 0.17103 0.5259 0.18945 0.0
H1359 H 0.118 0.50973 0.19334 0.0
H1360 H 0.14927 0.55072 0.16575 0.0
H1361 H 0.15618 0.39366 0.14543 0.0
H1362 H 0.12642 0.3729 0.10876 0.0
H1363 H 0.10176 0.3661 0.14799 0.0
C1364 C 0.68109 0.7334 0.23806 0.0
C1365 C 0.66742 0.75817 0.25211 0.0
C1366 C 0.66446 0.71204 0.20876 0.0
C1367 C 0.63282 0.71496 0.19278 0.0
C1368 C 0.61953 0.74091 0.20633 0.0
C1369 C 0.6371 0.76238 0.23587 0.0
C1370 C 0.68042 0.68567 0.1952 0.0
C1371 C 0.58571 0.74472 0.19037 0.0
C1372 C 0.62543 0.68393 0.10328 0.0
C1373 C 0.59705 0.64211 0.10444 0.0
C1374 C 0.63463 0.7088 0.13116 0.0
C1375 C 0.6153 0.69154 0.16145 0.0
C1376 C 0.58438 0.64982 0.16225 0.0
C1377 C 0.57568 0.62548 0.1337 0.0
C1378 C 0.66786 0.75277 0.12875 0.0
C1379 C 0.56264 0.63016 0.19385 0.0
H1380 H 0.70443 0.72995 0.25058 0.0
H1381 H 0.62579 0.78077 0.24703 0.0
H1382 H 0.65624 0.65322 0.19633 0.0
H1383 H 0.68883 0.69333 0.16905 0.0
H1384 H 0.70744 0.68937 0.20884 0.0
H1385 H 0.58095 0.76834 0.20234 0.0
H1386 H 0.59235 0.75229 0.16391 0.0
H1387 H 0.55696 0.7151 0.19187 0.0
H1388 H 0.64234 0.69687 0.08077 0.0
H1389 H 0.5542 0.59311 0.1349 0.0
H1390 H 0.69525 0.75699 0.14206 0.0
H1391 H 0.65809 0.77286 0.14054 0.0
H1392 H 0.67654 0.76267 0.10286 0.0
H1393 H 0.58348 0.62563 0.21018 0.0
H1394 H 0.53506 0.60011 0.18948 0.0
H1395 H 0.55366 0.6501 0.207 0.0
C1396 C 0.43642 0.98572 0.12873 0.0
C1397 C 0.43047 0.96107 0.10116 0.0
C1398 C 0.41185 0.97075 0.15691 0.0
C1399 C 0.38091 0.92935 0.15842 0.0
C1400 C 0.37726 0.90319 0.132 0.0
C1401 C 0.40171 0.91942 0.10343 0.0
C1402 C 0.41749 1.00006 0.18426 0.0
C1403 C 0.3464 0.85844 0.13339 0.0
C1404 C 0.34062 0.90041 0.24597 0.0
C1405 C 0.3071 0.90668 0.24575 0.0
C1406 C 0.36268 0.90381 0.2171 0.0
C1407 C 0.35174 0.91485 0.18714 0.0
C1408 C 0.31614 0.91845 0.18639 0.0
C1409 C 0.29412 0.91414 0.21566 0.0
C1410 C 0.39965 0.89878 0.21941 0.0
C1411 C 0.30333 0.93023 0.15513 0.0
H1412 H 0.459 1.01778 0.12744 0.0
H1413 H 0.39657 0.90007 0.08228 0.0
H1414 H 0.38965 1.00255 0.18666 0.0
H1415 H 0.4221 0.98868 0.20805 0.0
H1416 H 0.44387 0.03094 0.17989 0.0
H1417 H 0.35123 0.84121 0.11352 0.0
H1418 H 0.34785 0.84547 0.15747 0.0
H1419 H 0.31531 0.85405 0.131 0.0
H1420 H 0.35097 0.89486 0.26924 0.0
H1421 H 0.26872 0.91972 0.21541 0.0
H1422 H 0.42749 0.92919 0.22042 0.0
H1423 H 0.40217 0.88274 0.19751 0.0
H1424 H 0.39885 0.88167 0.24184 0.0
H1425 H 0.32786 0.96062 0.14716 0.0
H1426 H 0.27472 0.93124 0.15817 0.0
H1427 H 0.29905 0.90843 0.13525 0.0
C1428 C 0.47559 0.04875 0.88561 0.0
C1429 C 0.48348 0.06979 0.91545 0.0
C1430 C 0.4695 0.06521 0.85636 0.0
C1431 C 0.47162 0.10373 0.85689 0.0
C1432 C 0.48268 0.12624 0.88657 0.0
C1433 C 0.48806 0.10889 0.91538 0.0
C1434 C 0.45762 0.04002 0.82541 0.0
C1435 C 0.48579 0.16742 0.88865 0.0
C1436 C 0.46537 0.14823 0.7734 0.0
C1437 C 0.4234 0.13387 0.77108 0.0
C1438 C 0.48211 0.14056 0.80186 0.0
C1439 C 0.45619 0.11729 0.82817 0.0
C1440 C 0.41435 0.10529 0.82662 0.0
C1441 C 0.39878 0.11419 0.79847 0.0
C1442 C 0.52719 0.15579 0.80323 0.0
C1443 C 0.38532 0.08088 0.85394 0.0
H1444 H 0.47119 1.01826 0.88554 0.0
H1445 H 0.49406 0.12531 0.93841 0.0
H1446 H 0.42595 0.03136 0.81875 0.0
H1447 H 0.47751 0.05813 0.80472 0.0
H1448 H 0.4595 1.01188 0.82826 0.0
H1449 H 0.50217 0.1842 0.91115 0.0
H1450 H 0.50165 0.18622 0.8668 0.0
H1451 H 0.45475 0.16346 0.88924 0.0
H1452 H 0.48466 0.16315 0.75233 0.0
H1453 H 0.36646 0.10357 0.7971 0.0
H1454 H 0.53259 0.1297 0.80129 0.0
H1455 H 0.53992 0.17084 0.82714 0.0
H1456 H 0.54394 0.17768 0.78313 0.0
H1457 H 0.38358 0.05087 0.85596 0.0
H1458 H 0.35412 0.0757 0.84977 0.0
H1459 H 0.3965 0.09663 0.87783 0.0
C1460 C 1.00244 0.38847 0.89901 0.0
C1461 C 0.99271 0.4166 0.91253 0.0
C1462 C 0.98471 0.36753 0.86978 0.0
C1463 C 0.95606 0.37452 0.853 0.0
C1464 C 0.94646 0.40353 0.86608 0.0
C1465 C 0.965 0.42438 0.8957 0.0
C1466 C 0.99619 0.33703 0.85743 0.0
C1467 C 0.91562 0.41148 0.84939 0.0
C1468 C 0.95401 0.3477 0.76317 0.0
C1469 C 0.92324 0.30662 0.76207 0.0
C1470 C 0.96209 0.37133 0.79165 0.0
C1471 C 0.9394 0.35349 0.82059 0.0
C1472 C 0.90632 0.31274 0.81915 0.0
C1473 C 0.8986 0.28967 0.78987 0.0
C1474 C 0.99781 0.41421 0.79155 0.0
C1475 C 0.88092 0.29254 0.84921 0.0
H1476 H 1.02377 0.38216 0.91174 0.0
H1477 H 0.95661 0.44538 0.90632 0.0
H1478 H 0.97095 0.30582 0.86263 0.0
H1479 H 1.00104 0.33968 0.83051 0.0
H1480 H 1.02419 0.34077 0.86941 0.0
H1481 H 0.91295 0.43629 0.86151 0.0
H1482 H 0.92388 0.4196 0.8232 0.0
H1483 H 0.88539 0.38333 0.84984 0.0
H1484 H 0.97352 0.36103 0.74194 0.0
H1485 H 0.8752 0.25785 0.78948 0.0
H1486 H 1.02302 0.41526 0.80619 0.0
H1487 H 0.9894 0.43543 0.80316 0.0
H1488 H 1.00918 0.42521 0.7663 0.0
H1489 H 0.8981 0.28344 0.86594 0.0
H1490 H 0.85175 0.26489 0.84275 0.0
H1491 H 0.87428 0.31391 0.86284 0.0
C1492 C 0.76651 0.61942 0.79793 0.0
C1493 C 0.74865 0.62462 0.76958 0.0
C1494 C 0.74366 0.60447 0.82737 0.0
C1495 C 0.70223 0.59485 0.82845 0.0
C1496 C 0.68363 0.59736 0.79909 0.0
C1497 C 0.70702 0.6124 0.77039 0.0
C1498 C 0.76471 0.60182 0.8579 0.0
C1499 C 0.63999 0.58812 0.79866 0.0
C1500 C 0.6327 0.54849 0.90418 0.0
C1501 C 0.63877 0.58362 0.92058 0.0
C1502 C 0.65352 0.55134 0.87441 0.0
C1503 C 0.68071 0.59016 0.86071 0.0
C1504 C 0.68578 0.62542 0.87697 0.0
C1505 C 0.66502 0.62168 0.90649 0.0
C1506 C 0.6477 0.513 0.85834 0.0
C1507 C 0.71419 0.66754 0.86383 0.0
H1508 H 0.79877 0.62948 0.79777 0.0
H1509 H 0.69308 0.61695 0.74878 0.0
H1510 H 0.77215 0.62824 0.874 0.0
H1511 H 0.74446 0.57381 0.87199 0.0
H1512 H 0.79344 0.60207 0.85196 0.0
H1513 H 0.62882 0.58742 0.77329 0.0
H1514 H 0.61977 0.55841 0.81058 0.0
H1515 H 0.6375 0.61175 0.81288 0.0
H1516 H 0.6133 0.51902 0.91535 0.0
H1517 H 0.67015 0.64901 0.91912 0.0
H1518 H 0.67691 0.51287 0.85875 0.0
H1519 H 0.63898 0.51193 0.83218 0.0
H1520 H 0.62407 0.48516 0.87094 0.0
H1521 H 0.74612 0.67564 0.86887 0.0
H1522 H 0.70873 0.69093 0.87538 0.0
H1523 H 0.7109 0.6686 0.83688 0.0
C1524 C 0.77631 0.82902 0.46399 0.0
C1525 C 0.76875 0.80452 0.43617 0.0
C1526 C 0.79083 0.82069 0.49345 0.0
C1527 C 0.79759 0.78701 0.49504 0.0
C1528 C 0.79292 0.76444 0.4661 0.0
C1529 C 0.77839 0.77326 0.43741 0.0
C1530 C 0.79613 0.84612 0.52347 0.0
C1531 C 0.79917 0.72812 0.46621 0.0
C1532 C 0.84048 0.75868 0.57003 0.0
C1533 C 0.80456 0.73172 0.58673 0.0
C1534 C 0.83911 0.77807 0.54063 0.0
C1535 C 0.80097 0.76985 0.52749 0.0
C1536 C 0.76481 0.74197 0.54415 0.0
C1537 C 0.76712 0.72362 0.57336 0.0
C1538 C 0.87842 0.80837 0.52424 0.0
C1539 C 0.7233 0.73185 0.5316 0.0
H1540 H 0.76844 0.85283 0.46346 0.0
H1541 H 0.7723 0.7539 0.41614 0.0
H1542 H 0.7693 0.82959 0.53979 0.0
H1543 H 0.8235 0.85169 0.53756 0.0
H1544 H 0.79889 0.87582 0.51686 0.0
H1545 H 0.79852 0.71648 0.44102 0.0
H1546 H 0.82866 0.73595 0.47776 0.0
H1547 H 0.77478 0.70333 0.48101 0.0
H1548 H 0.86956 0.76583 0.58059 0.0
H1549 H 0.73917 0.70298 0.5861 0.0
H1550 H 0.88145 0.839 0.52508 0.0
H1551 H 0.87831 0.80055 0.49796 0.0
H1552 H 0.9054 0.80988 0.53636 0.0
H1553 H 0.71805 0.75751 0.53706 0.0
H1554 H 0.69847 0.70398 0.54328 0.0
H1555 H 0.72131 0.72748 0.50462 0.0
C1556 C 0.23607 0.96276 0.45263 0.0
C1557 C 0.26389 0.98099 0.42677 0.0
C1558 C 0.24239 0.98297 0.4833 0.0
C1559 C 0.2771 0.02225 0.48803 0.0
C1560 C 0.30312 0.04173 0.46104 0.0
C1561 C 0.29649 0.0208 0.43128 0.0
C1562 C 0.21353 0.96117 0.51127 0.0
C1563 C 0.3405 0.08334 0.46429 0.0
C1564 C 0.29992 0.08933 0.56504 0.0
C1565 C 0.3252 0.07905 0.58284 0.0
C1566 C 0.28242 0.06994 0.53476 0.0
C1567 C 0.29092 0.04012 0.52181 0.0
C1568 C 0.31695 0.03035 0.53967 0.0
C1569 C 0.33341 0.04964 0.56977 0.0
C1570 C 0.25466 0.08111 0.51671 0.0
C1571 C 0.32808 0.99982 0.52677 0.0
H1572 H 0.21109 0.9319 0.44971 0.0
H1573 H 0.31855 0.03531 0.41185 0.0
H1574 H 0.22798 0.94965 0.52866 0.0
H1575 H 0.20671 0.98231 0.52507 0.0
H1576 H 0.18452 0.93495 0.5025 0.0
H1577 H 0.35302 0.09726 0.43993 0.0
H1578 H 0.33368 0.10427 0.47831 0.0
H1579 H 0.36438 0.08059 0.4779 0.0
H1580 H 0.29287 0.1115 0.57523 0.0
H1581 H 0.35306 0.04163 0.58319 0.0
H1582 H 0.22469 0.05342 0.5125 0.0
H1583 H 0.26762 0.09389 0.49221 0.0
H1584 H 0.24986 0.10369 0.53042 0.0
H1585 H 0.30016 0.97001 0.5228 0.0
H1586 H 0.34849 0.99537 0.54373 0.0
H1587 H 0.34359 1.01014 0.50267 0.0
C1588 C 1.00665 0.23679 0.58051 0.0
C1589 C 0.97212 0.24142 0.58073 0.0
C1590 C 1.02956 0.24255 0.55169 0.0
C1591 C 1.01824 0.25401 0.52212 0.0
C1592 C 0.98181 0.25615 0.52171 0.0
C1593 C 0.95909 0.2497 0.55098 0.0
C1594 C 0.06772 0.23953 0.55372 0.0
C1595 C 0.96857 0.26835 0.49088 0.0
C1596 C 0.10204 0.3275 0.46416 0.0
C1597 C 0.09748 0.30325 0.43662 0.0
C1598 C 0.07726 0.31162 0.49216 0.0
C1599 C 0.04743 0.26981 0.49344 0.0
C1600 C 0.04513 0.24424 0.46699 0.0
C1601 C 0.06984 0.2613 0.43866 0.0
C1602 C 0.08158 0.3403 0.51964 0.0
C1603 C 1.01542 0.19916 0.46812 0.0
H1604 H 1.01704 0.23057 0.60347 0.0
H1605 H 0.93296 0.25411 0.55104 0.0
H1606 H 0.07108 0.2243 0.53165 0.0
H1607 H 0.09467 0.27057 0.55482 0.0
H1608 H 0.06788 0.22262 0.57597 0.0
H1609 H 0.93874 0.2669 0.49389 0.0
H1610 H 0.9918 0.29987 0.48411 0.0
H1611 H 0.96642 0.24833 0.47018 0.0
H1612 H 0.12373 0.3598 0.46302 0.0
H1613 H 0.06569 0.24227 0.41748 0.0
H1614 H 0.08598 0.32885 0.54348 0.0
H1615 H 0.05327 0.34201 0.52163 0.0
H1616 H 0.10759 0.37152 0.51568 0.0
H1617 H 1.01831 0.18612 0.49169 0.0
H1618 H 1.0202 0.18275 0.44754 0.0
H1619 H 0.98385 0.19373 0.46691 0.0
loop_
_geom_bond_atom_site_label_1
_geom_bond_atom_site_label_2
_geom_bond_distance
_geom_bond_site_symmetry_2
_ccdc_geom_bond_type
Tb0 N31 2.660 1_556 S
Tb0 N38 2.600 . S
Tb0 O44 2.546 . S
Tb0 O45 2.610 1_556 S
Tb0 O47 2.320 1_556 S
Tb0 O48 2.552 . S
Tb0 O49 2.413 1_556 S
Tb0 O51 2.362 1_456 S
Tb0 O52 2.421 . S
Tb0 C64 2.833 . S
C1 C4 1.432 . S
C1 C5 1.414 . S
C1 N8 1.337 1_455 S
C2 C4 1.417 1_556 S
C2 C6 1.432 1_556 S
C2 C14 1.410 . S
C3 C5 1.444 . S
C3 C6 1.317 . S
C3 H26 0.929 . S
C4 C1 1.432 . S
C4 C2 1.417 1_554 S
C4 N12 1.360 1_554 S
C5 C1 1.414 . S
C5 C3 1.444 . S
C5 C10 1.385 . S
C6 C2 1.432 1_554 S
C6 C3 1.317 . S
C6 H18 0.930 . S
C7 C9 1.392 . S
C7 C10 1.370 1_655 S
C7 H19 0.931 . S
N8 C1 1.337 1_655 S
N8 C9 1.333 . S
N8 Tb11 2.619 . S
C9 C7 1.392 . S
C9 N8 1.333 . S
C9 H16 0.930 . S
C10 C5 1.385 . S
C10 C7 1.370 1_455 S
C10 H29 0.930 . S
Tb11 N8 2.619 . S
Tb11 N12 2.660 1_654 S
Tb11 O45 2.362 1_655 S
Tb11 O46 2.421 1_655 S
Tb11 O50 2.546 . S
Tb11 O51 2.610 . S
Tb11 O53 2.320 1_554 S
Tb11 O54 2.552 . S
Tb11 O55 2.413 1_554 S
Tb11 C75 2.833 . S
N12 C4 1.360 1_556 S
N12 Tb11 2.660 1_456 S
N12 C13 1.305 . S
C13 N12 1.305 . S
C13 C15 1.407 . S
C13 H20 0.930 . S
C14 C2 1.410 . S
C14 C15 1.345 . S
C14 H22 0.930 . S
C15 C13 1.407 . S
C15 C14 1.345 . S
C15 H17 0.930 . S
H16 C9 0.930 . S
H17 C15 0.930 . S
H18 C6 0.930 . S
H19 C7 0.931 . S
H20 C13 0.930 . S
H21 C35 0.930 . S
H22 C14 0.930 . S
H23 C41 0.930 . S
H24 C32 0.930 1_455 S
H25 C39 0.931 . S
H26 C3 0.929 . S
H27 C33 0.930 . S
H28 C66 0.930 . S
H29 C10 0.930 . S
H30 C65 0.929 . S
N31 Tb0 2.660 1_554 S
N31 C32 1.305 1_455 S
N31 C36 1.360 1_454 S
C32 H24 0.930 1_655 S
C32 N31 1.305 1_655 S
C32 C35 1.407 . S
C33 H27 0.930 . S
C33 C34 1.410 . S
C33 C35 1.345 . S
C34 C33 1.410 . S
C34 C36 1.417 1_554 S
C34 C66 1.432 1_554 S
C35 H21 0.930 . S
C35 C32 1.407 . S
C35 C33 1.345 . S
C36 N31 1.360 1_656 S
C36 C34 1.417 1_556 S
C36 C40 1.432 . S
H37 C42 0.930 . S
N38 Tb0 2.600 . S
N38 C40 1.359 1_455 S
N38 C41 1.327 . S
C39 H25 0.931 . S
C39 C41 1.392 . S
C39 C42 1.370 1_455 S
C40 C36 1.432 . S
C40 N38 1.359 1_655 S
C40 C43 1.414 . S
C41 H23 0.930 . S
C41 N38 1.327 . S
C41 C39 1.392 . S
C42 H37 0.930 . S
C42 C39 1.370 1_655 S
C42 C43 1.385 . S
C43 C40 1.414 . S
C43 C42 1.385 . S
C43 C65 1.444 . S
O44 Tb0 2.546 . S
O44 C64 1.251 . S
O45 Tb0 2.610 1_554 S
O45 Tb11 2.362 1_455 S
O45 C56 1.283 1_554 S
O46 Tb11 2.421 1_455 S
O46 C63 1.262 . S
O47 Tb0 2.320 1_554 S
O47 C63 1.260 . S
O48 Tb0 2.552 . S
O48 C56 1.243 . S
O49 Tb0 2.413 1_554 S
O49 C64 1.256 1_554 S
O50 Tb11 2.546 . S
O50 C75 1.251 . S
O51 Tb0 2.362 1_654 S
O51 Tb11 2.610 . S
O51 C67 1.283 . S
O52 Tb0 2.421 . S
O52 C74 1.262 1_455 S
O53 Tb11 2.320 1_556 S
O53 C74 1.260 . S
O54 Tb11 2.552 . S
O54 C67 1.243 . S
O55 Tb11 2.413 1_556 S
O55 C75 1.256 1_556 S
C56 O45 1.283 1_556 S
C56 O48 1.243 . S
C57 C59 1.382 1_556 S
C57 C61 1.393 . S
C57 C64 1.500 . S
C58 C59 1.400 . S
C58 C60 1.384 1_554 S
C59 C57 1.382 1_554 S
C59 C58 1.400 . S
C59 H76 0.930 . S
C60 C58 1.384 1_556 S
C60 C62 1.392 . S
C60 H77 0.931 . S
C61 C57 1.393 . S
C61 C62 1.401 . S
C61 H78 0.930 . S
C62 C60 1.392 . S
C62 C61 1.401 . S
C62 H79 0.930 . S
C63 O46 1.262 . S
C63 O47 1.260 . S
C64 Tb0 2.833 . S
C64 O44 1.251 . S
C64 O49 1.256 1_556 S
C64 C57 1.500 . S
C65 H30 0.929 . S
C65 C43 1.444 . S
C65 C66 1.317 . S
C66 H28 0.930 . S
C66 C34 1.432 1_556 S
C66 C65 1.317 . S
C67 O51 1.283 . S
C67 O54 1.243 . S
C68 C69 1.382 1_554 S
C68 C72 1.393 . S
C68 C75 1.500 . S
C69 C68 1.382 1_556 S
C69 C70 1.400 . S
C69 H80 0.930 . S
C70 C69 1.400 . S
C70 C71 1.384 1_556 S
C71 C70 1.384 1_554 S
C71 C73 1.392 . S
C71 H81 0.931 . S
C72 C68 1.393 . S
C72 C73 1.401 . S
C72 H82 0.930 . S
C73 C71 1.392 . S
C73 C72 1.401 . S
C73 H83 0.930 . S
C74 O52 1.262 1_655 S
C74 O53 1.260 . S
C75 Tb11 2.833 . S
C75 O50 1.251 . S
C75 O55 1.256 1_554 S
C75 C68 1.500 . S
H76 C59 0.930 . S
H77 C60 0.931 . S
H78 C61 0.930 . S
H79 C62 0.930 . S
H80 C69 0.930 . S
H81 C71 0.931 . S
H82 C72 0.930 . S
H83 C73 0.930 . S
Tb84 N115 2.660 1_556 S
Tb84 N122 2.600 . S
Tb84 O128 2.546 . S
Tb84 O129 2.610 1_556 S
Tb84 O131 2.320 1_556 S
Tb84 O132 2.552 . S
Tb84 O133 2.413 1_556 S
Tb84 O135 2.362 1_556 S
Tb84 O136 2.421 . S
Tb84 C148 2.833 . S
C85 C88 1.432 . S
C85 C89 1.414 . S
C85 N92 1.359 . S
C86 C88 1.417 1_556 S
C86 C90 1.432 1_556 S
C86 C98 1.410 . S
C87 C89 1.444 . S
C87 C90 1.317 . S
C87 H110 0.929 . S
C88 C85 1.432 . S
C88 C86 1.417 1_554 S
C88 N96 1.360 1_554 S
C89 C85 1.414 . S
C89 C87 1.444 . S
C89 C94 1.385 . S
C90 C86 1.432 1_554 S
C90 C87 1.317 . S
C90 H102 0.930 . S
C91 C93 1.392 . S
C91 C94 1.370 . S
C91 H103 0.931 . S
N92 C85 1.359 . S
N92 C93 1.327 . S
N92 Tb95 2.600 . S
C93 C91 1.392 . S
C93 N92 1.327 . S
C93 H100 0.930 . S
C94 C89 1.385 . S
C94 C91 1.370 . S
C94 H113 0.930 . S
Tb95 N92 2.600 . S
Tb95 N96 2.660 1_554 S
Tb95 O129 2.362 . S
Tb95 O130 2.421 . S
Tb95 O134 2.546 . S
Tb95 O135 2.610 . S
Tb95 O137 2.320 1_554 S
Tb95 O138 2.552 . S
Tb95 O139 2.413 1_554 S
Tb95 C159 2.833 . S
N96 C88 1.360 1_556 S
N96 Tb95 2.660 1_556 S
N96 C97 1.305 . S
C97 N96 1.305 . S
C97 C99 1.407 . S
C97 H104 0.930 . S
C98 C86 1.410 . S
C98 C99 1.345 . S
C98 H106 0.930 . S
C99 C97 1.407 . S
C99 C98 1.345 . S
C99 H101 0.930 . S
H100 C93 0.930 . S
H101 C99 0.930 . S
H102 C90 0.930 . S
H103 C91 0.931 . S
H104 C97 0.930 . S
H105 C119 0.930 . S
H106 C98 0.930 . S
H107 C125 0.930 . S
H108 C116 0.930 . S
H109 C123 0.931 . S
H110 C87 0.929 . S
H111 C117 0.930 . S
H112 C150 0.930 . S
H113 C94 0.930 . S
H114 C149 0.929 . S
N115 Tb84 2.660 1_554 S
N115 C116 1.305 . S
N115 C120 1.360 1_554 S
C116 H108 0.930 . S
C116 N115 1.305 . S
C116 C119 1.407 . S
C117 H111 0.930 . S
C117 C118 1.410 . S
C117 C119 1.345 . S
C118 C117 1.410 . S
C118 C120 1.417 1_554 S
C118 C150 1.432 1_554 S
C119 H105 0.930 . S
C119 C116 1.407 . S
C119 C117 1.345 . S
C120 N115 1.360 1_556 S
C120 C118 1.417 1_556 S
C120 C124 1.432 . S
H121 C126 0.930 . S
N122 Tb84 2.600 . S
N122 C124 1.359 . S
N122 C125 1.327 . S
C123 H109 0.931 . S
C123 C125 1.392 . S
C123 C126 1.370 . S
C124 C120 1.432 . S
C124 N122 1.359 . S
C124 C127 1.414 . S
C125 H107 0.930 . S
C125 N122 1.327 . S
C125 C123 1.392 . S
C126 H121 0.930 . S
C126 C123 1.370 . S
C126 C127 1.385 . S
C127 C124 1.414 . S
C127 C126 1.385 . S
C127 C149 1.444 . S
O128 Tb84 2.546 . S
O128 C148 1.251 . S
O129 Tb84 2.610 1_554 S
O129 Tb95 2.362 . S
O129 C140 1.283 1_554 S
O130 Tb95 2.421 . S
O130 C147 1.262 . S
O131 Tb84 2.320 1_554 S
O131 C147 1.260 . S
O132 Tb84 2.552 . S
O132 C140 1.243 . S
O133 Tb84 2.413 1_554 S
O133 C148 1.256 1_554 S
O134 Tb95 2.546 . S
O134 C159 1.251 . S
O135 Tb84 2.362 1_554 S
O135 Tb95 2.610 . S
O135 C151 1.283 . S
O136 Tb84 2.421 . S
O136 C158 1.262 . S
O137 Tb95 2.320 1_556 S
O137 C158 1.260 . S
O138 Tb95 2.552 . S
O138 C151 1.243 . S
O139 Tb95 2.413 1_556 S
O139 C159 1.256 1_556 S
C140 O129 1.283 1_556 S
C140 O132 1.243 . S
C141 C143 1.382 1_556 S
C141 C145 1.393 . S
C141 C148 1.500 . S
C142 C143 1.400 . S
C142 C144 1.384 1_554 S
C143 C141 1.382 1_554 S
C143 C142 1.400 . S
C143 H160 0.930 . S
C144 C142 1.384 1_556 S
C144 C146 1.392 . S
C144 H161 0.931 . S
C145 C141 1.393 . S
C145 C146 1.401 . S
C145 H162 0.930 . S
C146 C144 1.392 . S
C146 C145 1.401 . S
C146 H163 0.930 . S
C147 O130 1.262 . S
C147 O131 1.260 . S
C148 Tb84 2.833 . S
C148 O128 1.251 . S
C148 O133 1.256 1_556 S
C148 C141 1.500 . S
C149 H114 0.929 . S
C149 C127 1.444 . S
C149 C150 1.317 . S
C150 H112 0.930 . S
C150 C118 1.432 1_556 S
C150 C149 1.317 . S
C151 O135 1.283 . S
C151 O138 1.243 . S
C152 C153 1.382 1_554 S
C152 C156 1.393 . S
C152 C159 1.500 . S
C153 C152 1.382 1_556 S
C153 C154 1.400 . S
C153 H164 0.930 . S
C154 C153 1.400 . S
C154 C155 1.384 1_556 S
C155 C154 1.384 1_554 S
C155 C157 1.392 . S
C155 H165 0.931 . S
C156 C152 1.393 . S
C156 C157 1.401 . S
C156 H166 0.930 . S
C157 C155 1.392 . S
C157 C156 1.401 . S
C157 H167 0.930 . S
C158 O136 1.262 . S
C158 O137 1.260 . S
C159 Tb95 2.833 . S
C159 O134 1.251 . S
C159 O139 1.256 1_554 S
C159 C152 1.500 . S
H160 C143 0.930 . S
H161 C144 0.931 . S
H162 C145 0.930 . S
H163 C146 0.930 . S
H164 C153 0.930 . S
H165 C155 0.931 . S
H166 C156 0.930 . S
H167 C157 0.930 . S
Tb168 N199 2.660 1_566 S
Tb168 N206 2.600 . S
Tb168 O212 2.546 . S
Tb168 O213 2.610 1_556 S
Tb168 O215 2.320 1_556 S
Tb168 O216 2.552 . S
Tb168 O217 2.413 1_556 S
Tb168 O219 2.362 1_566 S
Tb168 O220 2.408 1_565 S
Tb168 C232 2.833 . S
C169 C172 1.432 . S
C169 C173 1.414 . S
C169 N176 1.359 1_565 S
C170 C172 1.417 1_556 S
C170 C174 1.432 1_556 S
C170 C182 1.410 . S
C171 C173 1.444 . S
C171 C174 1.317 . S
C171 H194 0.929 . S
C172 C169 1.432 . S
C172 C170 1.417 1_554 S
C172 N180 1.360 1_564 S
C173 C169 1.414 . S
C173 C171 1.444 . S
C173 C178 1.385 . S
C174 C170 1.432 1_554 S
C174 C171 1.317 . S
C174 H186 0.930 . S
C175 C177 1.392 . S
C175 C178 1.370 1_545 S
C175 H187 0.931 . S
N176 C169 1.359 1_545 S
N176 C177 1.327 . S
N176 Tb179 2.600 . S
C177 C175 1.392 . S
C177 N176 1.327 . S
C177 H184 0.930 . S
C178 C173 1.385 . S
C178 C175 1.370 1_565 S
C178 H197 0.930 . S
Tb179 N176 2.600 . S
Tb179 N180 2.660 1_554 S
Tb179 O213 2.362 1_545 S
Tb179 O214 2.421 . S
Tb179 O218 2.546 . S
Tb179 O219 2.610 . S
Tb179 O221 2.320 1_554 S
Tb179 O222 2.552 . S
Tb179 O223 2.413 1_554 S
Tb179 C243 2.833 . S
N180 C172 1.360 1_546 S
N180 Tb179 2.660 1_556 S
N180 C181 1.305 1_545 S
C181 N180 1.305 1_565 S
C181 C183 1.407 . S
C181 H188 0.936 1_565 S
C182 C170 1.410 . S
C182 C183 1.345 . S
C182 H190 0.930 . S
C183 C181 1.407 . S
C183 C182 1.345 . S
C183 H185 0.930 . S
H184 C177 0.930 . S
H185 C183 0.930 . S
H186 C174 0.930 . S
H187 C175 0.931 . S
H188 C181 0.936 1_545 S
H189 C203 0.930 . S
H190 C182 0.930 . S
H191 C209 0.930 . S
H192 C200 0.930 . S
H193 C207 0.931 . S
H194 C171 0.929 . S
H195 C201 0.930 . S
H196 C234 0.930 . S
H197 C178 0.930 . S
H198 C233 0.929 . S
N199 Tb168 2.660 1_544 S
N199 C200 1.305 . S
N199 C204 1.360 1_554 S
C200 H192 0.930 . S
C200 N199 1.305 . S
C200 C203 1.407 . S
C201 H195 0.930 . S
C201 C202 1.410 . S
C201 C203 1.345 . S
C202 C201 1.410 . S
C202 C204 1.417 1_554 S
C202 C234 1.432 1_554 S
C203 H189 0.930 . S
C203 C200 1.407 . S
C203 C201 1.345 . S
C204 N199 1.360 1_556 S
C204 C202 1.417 1_556 S
C204 C208 1.432 . S
H205 C210 0.930 . S
N206 Tb168 2.600 . S
N206 C208 1.359 1_565 S
N206 C209 1.327 . S
C207 H193 0.931 . S
C207 C209 1.392 . S
C207 C210 1.370 1_565 S
C208 C204 1.432 . S
C208 N206 1.359 1_545 S
C208 C211 1.414 . S
C209 H191 0.930 . S
C209 N206 1.327 . S
C209 C207 1.392 . S
C210 H205 0.930 . S
C210 C207 1.370 1_545 S
C210 C211 1.385 . S
C211 C208 1.414 . S
C211 C210 1.385 . S
C211 C233 1.444 . S
O212 Tb168 2.546 . S
O212 C232 1.251 . S
O213 Tb168 2.610 1_554 S
O213 Tb179 2.362 1_565 S
O213 C224 1.283 1_554 S
O214 Tb179 2.421 . S
O214 C231 1.262 1_545 S
O215 Tb168 2.320 1_554 S
O215 C231 1.260 . S
O216 Tb168 2.552 . S
O216 C224 1.243 . S
O217 Tb168 2.413 1_554 S
O217 C232 1.256 1_554 S
O218 Tb179 2.546 . S
O218 C243 1.251 . S
O219 Tb168 2.362 1_544 S
O219 Tb179 2.610 . S
O219 C235 1.283 . S
O220 Tb168 2.408 1_545 S
O220 C242 1.286 . S
O221 Tb179 2.320 1_556 S
O221 C242 1.260 . S
O222 Tb179 2.552 . S
O222 C235 1.243 . S
O223 Tb179 2.413 1_556 S
O223 C243 1.256 1_556 S
C224 O213 1.283 1_556 S
C224 O216 1.243 . S
C225 C227 1.382 1_556 S
C225 C229 1.393 . S
C225 C232 1.500 . S
C226 C227 1.400 . S
C226 C228 1.384 1_554 S
C227 C225 1.382 1_554 S
C227 C226 1.400 . S
C227 H244 0.930 . S
C228 C226 1.384 1_556 S
C228 C230 1.392 . S
C228 H245 0.931 . S
C229 C225 1.393 . S
C229 C230 1.401 . S
C229 H246 0.930 . S
C230 C228 1.392 . S
C230 C229 1.401 . S
C230 H247 0.930 . S
C231 O214 1.262 1_565 S
C231 O215 1.260 . S
C232 Tb168 2.833 . S
C232 O212 1.251 . S
C232 O217 1.256 1_556 S
C232 C225 1.500 . S
C233 H198 0.929 . S
C233 C211 1.444 . S
C233 C234 1.317 . S
C234 H196 0.930 . S
C234 C202 1.432 1_556 S
C234 C233 1.317 . S
C235 O219 1.283 . S
C235 O222 1.243 . S
C236 C237 1.382 1_554 S
C236 C240 1.393 . S
C236 C243 1.500 . S
C237 C236 1.382 1_556 S
C237 C238 1.400 . S
C237 H248 0.930 . S
C238 C237 1.400 . S
C238 C239 1.384 1_556 S
C239 C238 1.384 1_554 S
C239 C241 1.392 . S
C239 H249 0.931 . S
C240 C236 1.393 . S
C240 C241 1.401 . S
C240 H250 0.930 . S
C241 C239 1.392 . S
C241 C240 1.401 . S
C241 H251 0.930 . S
C242 O220 1.286 . S
C242 O221 1.260 . S
C243 Tb179 2.833 . S
C243 O218 1.251 . S
C243 O223 1.256 1_554 S
C243 C236 1.500 . S
H244 C227 0.930 . S
H245 C228 0.931 . S
H246 C229 0.930 . S
H247 C230 0.930 . S
H248 C237 0.930 . S
H249 C239 0.931 . S
H250 C240 0.930 . S
H251 C241 0.930 . S
Tb252 N283 2.660 . S
Tb252 N290 2.600 . S
Tb252 O296 2.546 . S
Tb252 O297 2.610 . S
Tb252 O299 2.320 . S
Tb252 O300 2.552 . S
Tb252 O301 2.413 . S
Tb252 O303 2.362 . S
Tb252 O304 2.421 . S
Tb252 C316 2.833 . S
C253 C256 1.432 . S
C253 C257 1.414 . S
C253 N260 1.359 . S
C254 C256 1.417 . S
C254 C258 1.432 . S
C254 C266 1.410 . S
C255 C257 1.444 . S
C255 C258 1.317 . S
C255 H278 0.929 . S
C256 C253 1.432 . S
C256 C254 1.417 . S
C256 N264 1.360 . S
C257 C253 1.414 . S
C257 C255 1.444 . S
C257 C262 1.385 . S
C258 C254 1.432 . S
C258 C255 1.317 . S
C258 H270 0.930 . S
C259 C261 1.392 . S
C259 C262 1.370 . S
C259 H271 0.931 . S
N260 C253 1.359 . S
N260 C261 1.327 . S
N260 Tb263 2.600 . S
C261 C259 1.392 . S
C261 N260 1.327 . S
C261 H268 0.930 . S
C262 C257 1.385 . S
C262 C259 1.370 . S
C262 H281 0.930 . S
Tb263 N260 2.600 . S
Tb263 N264 2.660 . S
Tb263 O297 2.362 . S
Tb263 O298 2.421 . S
Tb263 O302 2.546 . S
Tb263 O303 2.610 . S
Tb263 O305 2.320 . S
Tb263 O306 2.552 . S
Tb263 O307 2.413 . S
Tb263 C327 2.833 . S
N264 C256 1.360 . S
N264 Tb263 2.660 . S
N264 C265 1.305 . S
C265 N264 1.305 . S
C265 C267 1.407 . S
C265 H272 0.930 . S
C266 C254 1.410 . S
C266 C267 1.345 . S
C266 H274 0.930 . S
C267 C265 1.407 . S
C267 C266 1.345 . S
C267 H269 0.930 . S
H268 C261 0.930 . S
H269 C267 0.930 . S
H270 C258 0.930 . S
H271 C259 0.931 . S
H272 C265 0.930 . S
H273 C287 0.930 . S
H274 C266 0.930 . S
H275 C293 0.930 . S
H276 C284 0.930 . S
H277 C291 0.931 . S
H278 C255 0.929 . S
H279 C285 0.930 . S
H280 C318 0.930 . S
H281 C262 0.930 . S
H282 C317 0.929 . S
N283 Tb252 2.660 . S
N283 C284 1.305 . S
N283 C288 1.360 . S
C284 H276 0.930 . S
C284 N283 1.305 . S
C284 C287 1.407 . S
C285 H279 0.930 . S
C285 C286 1.410 . S
C285 C287 1.345 . S
C286 C285 1.410 . S
C286 C288 1.417 . S
C286 C318 1.432 . S
C287 H273 0.930 . S
C287 C284 1.407 . S
C287 C285 1.345 . S
C288 N283 1.360 . S
C288 C286 1.417 . S
C288 C292 1.432 . S
H289 C294 0.930 . S
N290 Tb252 2.600 . S
N290 C292 1.359 . S
N290 C293 1.327 . S
C291 H277 0.931 . S
C291 C293 1.392 . S
C291 C294 1.370 . S
C292 C288 1.432 . S
C292 N290 1.359 . S
C292 C295 1.414 . S
C293 H275 0.930 . S
C293 N290 1.327 . S
C293 C291 1.392 . S
C294 H289 0.930 . S
C294 C291 1.370 . S
C294 C295 1.385 . S
C295 C292 1.414 . S
C295 C294 1.385 . S
C295 C317 1.444 . S
O296 Tb252 2.546 . S
O296 C316 1.251 . S
O297 Tb252 2.610 . S
O297 Tb263 2.362 . S
O297 C308 1.283 . S
O298 Tb263 2.421 . S
O298 C315 1.262 . S
O299 Tb252 2.320 . S
O299 C315 1.260 . S
O300 Tb252 2.552 . S
O300 C308 1.243 . S
O301 Tb252 2.413 . S
O301 C316 1.256 . S
O302 Tb263 2.546 . S
O302 C327 1.251 . S
O303 Tb252 2.362 . S
O303 Tb263 2.610 . S
O303 C319 1.283 . S
O304 Tb252 2.421 . S
O304 C326 1.262 . S
O305 Tb263 2.320 . S
O305 C326 1.260 . S
O306 Tb263 2.552 . S
O306 C319 1.243 . S
O307 Tb263 2.413 . S
O307 C327 1.256 . S
C308 O297 1.283 . S
C308 O300 1.243 . S
C309 C311 1.382 . S
C309 C313 1.393 . S
C309 C316 1.500 . S
C310 C311 1.400 1_545 S
C310 C312 1.384 . S
C311 C309 1.382 . S
C311 C310 1.400 1_565 S
C311 H328 0.930 . S
C312 C310 1.384 . S
C312 C314 1.392 . S
C312 H329 0.931 . S
C313 C309 1.393 . S
C313 C314 1.401 1_565 S
C313 H330 0.930 . S
C314 C312 1.392 . S
C314 C313 1.401 1_545 S
C314 H331 0.930 . S
C315 O298 1.262 . S
C315 O299 1.260 . S
C316 Tb252 2.833 . S
C316 O296 1.251 . S
C316 O301 1.256 . S
C316 C309 1.500 . S
C317 H282 0.929 . S
C317 C295 1.444 . S
C317 C318 1.317 . S
C318 H280 0.930 . S
C318 C286 1.432 . S
C318 C317 1.317 . S
C319 O303 1.283 . S
C319 O306 1.243 . S
C320 C321 1.382 . S
C320 C324 1.393 . S
C320 C327 1.500 . S
C321 C320 1.382 . S
C321 C322 1.400 . S
C321 H332 0.930 . S
C322 C321 1.400 . S
C322 C323 1.384 . S
C323 C322 1.384 . S
C323 C325 1.392 . S
C323 H333 0.931 . S
C324 C320 1.393 . S
C324 C325 1.401 . S
C324 H334 0.930 . S
C325 C323 1.392 . S
C325 C324 1.401 . S
C325 H335 0.930 . S
C326 O304 1.262 . S
C326 O305 1.260 . S
C327 Tb263 2.833 . S
C327 O302 1.251 . S
C327 O307 1.256 . S
C327 C320 1.500 . S
H328 C311 0.930 . S
H329 C312 0.931 . S
H330 C313 0.930 . S
H331 C314 0.930 . S
H332 C321 0.930 . S
H333 C323 0.931 . S
H334 C324 0.930 . S
H335 C325 0.930 . S
Tb336 N367 2.660 . S
Tb336 N374 2.600 . S
Tb336 O380 2.546 . S
Tb336 O381 2.610 . S
Tb336 O383 2.320 . S
Tb336 O384 2.552 . S
Tb336 O385 2.413 . S
Tb336 O387 2.362 . S
Tb336 O388 2.421 . S
Tb336 C400 2.833 . S
C337 C340 1.432 . S
C337 C341 1.414 1_565 S
C337 N344 1.359 . S
C338 C340 1.417 1_545 S
C338 C342 1.432 . S
C338 C350 1.410 . S
C339 C341 1.444 . S
C339 C342 1.317 . S
C339 H362 0.929 . S
C340 C337 1.432 . S
C340 C338 1.417 1_565 S
C340 N348 1.360 . S
C341 C337 1.414 1_545 S
C341 C339 1.444 . S
C341 C346 1.385 . S
C342 C338 1.432 . S
C342 C339 1.317 . S
C342 H354 0.930 . S
C343 C345 1.392 . S
C343 C346 1.370 1_565 S
C343 H355 0.931 . S
N344 C337 1.359 . S
N344 C345 1.327 . S
N344 Tb347 2.600 . S
C345 C343 1.392 . S
C345 N344 1.327 . S
C345 H352 0.930 . S
C346 C341 1.385 . S
C346 C343 1.370 1_545 S
C346 H365 0.930 . S
Tb347 N344 2.600 . S
Tb347 N348 2.660 . S
Tb347 O381 2.362 . S
Tb347 O382 2.421 . S
Tb347 O386 2.546 . S
Tb347 O387 2.610 . S
Tb347 O389 2.320 . S
Tb347 O390 2.552 . S
Tb347 O391 2.413 . S
Tb347 C411 2.833 . S
N348 C340 1.360 . S
N348 Tb347 2.660 . S
N348 C349 1.305 . S
C349 N348 1.305 . S
C349 C351 1.407 1_565 S
C349 H356 0.930 . S
C350 C338 1.410 . S
C350 C351 1.345 . S
C350 H358 0.930 . S
C351 C349 1.407 1_545 S
C351 C350 1.345 . S
C351 H353 0.930 . S
H352 C345 0.930 . S
H353 C351 0.930 . S
H354 C342 0.930 . S
H355 C343 0.931 . S
H356 C349 0.930 . S
H357 C371 0.930 . S
H358 C350 0.930 . S
H359 C377 0.930 . S
H360 C368 0.930 . S
H361 C375 0.931 . S
H362 C339 0.929 . S
H363 C369 0.930 . S
H364 C402 0.930 . S
H365 C346 0.930 . S
H366 C401 0.929 . S
N367 Tb336 2.660 . S
N367 C368 1.305 . S
N367 C372 1.360 . S
C368 H360 0.930 . S
C368 N367 1.305 . S
C368 C371 1.407 . S
C369 H363 0.930 . S
C369 C370 1.410 . S
C369 C371 1.345 . S
C370 C369 1.410 . S
C370 C372 1.417 . S
C370 C402 1.432 . S
C371 H357 0.930 . S
C371 C368 1.407 . S
C371 C369 1.345 . S
C372 N367 1.360 . S
C372 C370 1.417 . S
C372 C376 1.432 . S
H373 C378 0.930 . S
N374 Tb336 2.600 . S
N374 C376 1.359 . S
N374 C377 1.327 . S
C375 H361 0.931 . S
C375 C377 1.392 . S
C375 C378 1.370 . S
C376 C372 1.432 . S
C376 N374 1.359 . S
C376 C379 1.414 . S
C377 H359 0.930 . S
C377 N374 1.327 . S
C377 C375 1.392 . S
C378 H373 0.930 . S
C378 C375 1.370 . S
C378 C379 1.385 . S
C379 C376 1.414 . S
C379 C378 1.385 . S
C379 C401 1.444 . S
O380 Tb336 2.546 . S
O380 C400 1.251 . S
O381 Tb336 2.610 . S
O381 Tb347 2.362 . S
O381 C392 1.283 . S
O382 Tb347 2.421 . S
O382 C399 1.262 . S
O383 Tb336 2.320 . S
O383 C399 1.260 . S
O384 Tb336 2.552 . S
O384 C392 1.243 . S
O385 Tb336 2.413 . S
O385 C400 1.256 . S
O386 Tb347 2.546 . S
O386 C411 1.251 . S
O387 Tb336 2.362 . S
O387 Tb347 2.610 . S
O387 C403 1.283 . S
O388 Tb336 2.421 . S
O388 C410 1.262 . S
O389 Tb347 2.320 . S
O389 C410 1.260 . S
O390 Tb347 2.552 . S
O390 C403 1.243 . S
O391 Tb347 2.413 . S
O391 C411 1.256 . S
C392 O381 1.283 . S
C392 O384 1.243 . S
C393 C395 1.382 . S
C393 C397 1.393 . S
C393 C400 1.500 . S
C394 C395 1.400 1_655 S
C394 C396 1.384 . S
C395 C393 1.382 . S
C395 C394 1.400 1_455 S
C395 H412 0.930 . S
C396 C394 1.384 . S
C396 C398 1.392 . S
C396 H413 0.931 . S
C397 C393 1.393 . S
C397 C398 1.401 1_455 S
C397 H414 0.930 . S
C398 C396 1.392 . S
C398 C397 1.401 1_655 S
C398 H415 0.930 . S
C399 O382 1.262 . S
C399 O383 1.260 . S
C400 Tb336 2.833 . S
C400 O380 1.251 . S
C400 O385 1.256 . S
C400 C393 1.500 . S
C401 H366 0.929 . S
C401 C379 1.444 . S
C401 C402 1.317 . S
C402 H364 0.930 . S
C402 C370 1.432 . S
C402 C401 1.317 . S
C403 O387 1.283 . S
C403 O390 1.243 . S
C404 C405 1.382 . S
C404 C408 1.393 . S
C404 C411 1.500 . S
C405 C404 1.382 . S
C405 C406 1.400 . S
C405 H416 0.930 . S
C406 C405 1.400 . S
C406 C407 1.384 . S
C407 C406 1.384 . S
C407 C409 1.392 . S
C407 H417 0.931 . S
C408 C404 1.393 . S
C408 C409 1.401 . S
C408 H418 0.930 . S
C409 C407 1.392 . S
C409 C408 1.401 . S
C409 H419 0.930 . S
C410 O388 1.262 . S
C410 O389 1.260 . S
C411 Tb347 2.833 . S
C411 O386 1.251 . S
C411 O391 1.256 . S
C411 C404 1.500 . S
H412 C395 0.930 . S
H413 C396 0.931 . S
H414 C397 0.930 . S
H415 C398 0.930 . S
H416 C405 0.930 . S
H417 C407 0.931 . S
H418 C408 0.930 . S
H419 C409 0.930 . S
Tb420 N451 2.660 . S
Tb420 N458 2.600 . S
Tb420 O464 2.546 . S
Tb420 O465 2.610 . S
Tb420 O467 2.320 . S
Tb420 O468 2.552 . S
Tb420 O469 2.413 . S
Tb420 O471 2.362 . S
Tb420 O472 2.421 . S
Tb420 C484 2.833 . S
C421 C424 1.432 . S
C421 C425 1.414 1_455 S
C421 N428 1.359 . S
C422 C424 1.417 1_655 S
C422 C426 1.432 . S
C422 C434 1.410 . S
C423 C425 1.444 . S
C423 C426 1.317 . S
C423 H446 0.929 . S
C424 C421 1.432 . S
C424 C422 1.417 1_455 S
C424 N432 1.360 . S
C425 C421 1.414 1_655 S
C425 C423 1.444 . S
C425 C430 1.385 . S
C426 C422 1.432 . S
C426 C423 1.317 . S
C426 H438 0.930 . S
C427 C429 1.392 . S
C427 C430 1.370 1_455 S
C427 H439 0.931 . S
N428 C421 1.359 . S
N428 C429 1.327 . S
N428 Tb431 2.600 . S
C429 C427 1.392 . S
C429 N428 1.327 . S
C429 H436 0.930 . S
C430 C425 1.385 . S
C430 C427 1.370 1_655 S
C430 H449 0.930 . S
Tb431 N428 2.600 . S
Tb431 N432 2.660 . S
Tb431 O465 2.362 . S
Tb431 O466 2.421 . S
Tb431 O470 2.546 . S
Tb431 O471 2.610 . S
Tb431 O473 2.320 . S
Tb431 O474 2.552 . S
Tb431 O475 2.413 . S
Tb431 C495 2.833 . S
N432 C424 1.360 . S
N432 Tb431 2.660 . S
N432 C433 1.305 . S
C433 N432 1.305 . S
C433 C435 1.407 . S
C433 H440 0.930 . S
C434 C422 1.410 . S
C434 C435 1.345 1_655 S
C434 H442 0.930 . S
C435 C433 1.407 . S
C435 C434 1.345 1_455 S
C435 H437 0.930 . S
H436 C429 0.930 . S
H437 C435 0.930 . S
H438 C426 0.930 . S
H439 C427 0.931 . S
H440 C433 0.930 . S
H441 C455 0.930 . S
H442 C434 0.930 . S
H443 C461 0.930 . S
H444 C452 0.930 . S
H445 C459 0.931 . S
H446 C423 0.929 . S
H447 C453 0.930 . S
H448 C486 0.930 . S
H449 C430 0.930 . S
H450 C485 0.929 . S
N451 Tb420 2.660 . S
N451 C452 1.305 . S
N451 C456 1.360 . S
C452 H444 0.930 . S
C452 N451 1.305 . S
C452 C455 1.407 . S
C453 H447 0.930 . S
C453 C454 1.410 . S
C453 C455 1.345 . S
C454 C453 1.410 . S
C454 C456 1.417 . S
C454 C486 1.432 . S
C455 H441 0.930 . S
C455 C452 1.407 . S
C455 C453 1.345 . S
C456 N451 1.360 . S
C456 C454 1.417 . S
C456 C460 1.432 . S
H457 C462 0.930 . S
N458 Tb420 2.600 . S
N458 C460 1.359 . S
N458 C461 1.327 . S
C459 H445 0.931 . S
C459 C461 1.392 . S
C459 C462 1.370 . S
C460 C456 1.432 . S
C460 N458 1.359 . S
C460 C463 1.414 . S
C461 H443 0.930 . S
C461 N458 1.327 . S
C461 C459 1.392 . S
C462 H457 0.930 . S
C462 C459 1.370 . S
C462 C463 1.385 . S
C463 C460 1.414 . S
C463 C462 1.385 . S
C463 C485 1.444 . S
O464 Tb420 2.546 . S
O464 C484 1.251 . S
O465 Tb420 2.610 . S
O465 Tb431 2.362 . S
O465 C476 1.283 . S
O466 Tb431 2.421 . S
O466 C483 1.262 . S
O467 Tb420 2.320 . S
O467 C483 1.260 . S
O468 Tb420 2.552 . S
O468 C476 1.243 . S
O469 Tb420 2.413 . S
O469 C484 1.256 . S
O470 Tb431 2.546 . S
O470 C495 1.251 . S
O471 Tb420 2.362 . S
O471 Tb431 2.610 . S
O471 C487 1.283 . S
O472 Tb420 2.421 . S
O472 C494 1.262 . S
O473 Tb431 2.320 . S
O473 C494 1.260 . S
O474 Tb431 2.552 . S
O474 C487 1.243 . S
O475 Tb431 2.413 . S
O475 C495 1.256 . S
C476 O465 1.283 . S
C476 O468 1.243 . S
C477 C479 1.382 . S
C477 C481 1.393 . S
C477 C484 1.500 . S
C478 C479 1.400 . S
C478 C480 1.384 . S
C479 C477 1.382 . S
C479 C478 1.400 . S
C479 H496 0.930 . S
C480 C478 1.384 . S
C480 C482 1.392 . S
C480 H497 0.931 . S
C481 C477 1.393 . S
C481 C482 1.401 . S
C481 H498 0.930 . S
C482 C480 1.392 . S
C482 C481 1.401 . S
C482 H499 0.930 . S
C483 O466 1.262 . S
C483 O467 1.260 . S
C484 Tb420 2.833 . S
C484 O464 1.251 . S
C484 O469 1.256 . S
C484 C477 1.500 . S
C485 H450 0.929 . S
C485 C463 1.444 . S
C485 C486 1.317 . S
C486 H448 0.930 . S
C486 C454 1.432 . S
C486 C485 1.317 . S
C487 O471 1.283 . S
C487 O474 1.243 . S
C488 C489 1.382 . S
C488 C492 1.393 . S
C488 C495 1.500 . S
C489 C488 1.382 . S
C489 C490 1.400 . S
C489 H500 0.930 . S
C490 C489 1.400 . S
C490 C491 1.384 . S
C491 C490 1.384 . S
C491 C493 1.392 . S
C491 H501 0.931 . S
C492 C488 1.393 . S
C492 C493 1.401 . S
C492 H502 0.930 . S
C493 C491 1.392 . S
C493 C492 1.401 . S
C493 H503 0.930 . S
C494 O472 1.262 . S
C494 O473 1.260 . S
C495 Tb431 2.833 . S
C495 O470 1.251 . S
C495 O475 1.256 . S
C495 C488 1.500 . S
H496 C479 0.930 . S
H497 C480 0.931 . S
H498 C481 0.930 . S
H499 C482 0.930 . S
H500 C489 0.930 . S
H501 C491 0.931 . S
H502 C492 0.930 . S
H503 C493 0.930 . S
Tb504 N535 2.660 . S
Tb504 N542 2.600 . S
Tb504 O548 2.546 . S
Tb504 O549 2.610 . S
Tb504 O551 2.320 . S
Tb504 O552 2.552 . S
Tb504 O553 2.413 . S
Tb504 O555 2.362 . S
Tb504 O556 2.421 . S
Tb504 C568 2.833 . S
C505 C508 1.432 . S
C505 C509 1.437 . S
C505 N512 1.359 . S
C506 C508 1.417 . S
C506 C510 1.432 1_545 S
C506 C518 1.410 . S
C507 C509 1.420 1_565 S
C507 C510 1.317 . S
C507 H530 0.929 . S
C508 C505 1.432 . S
C508 C506 1.417 . S
C508 N516 1.360 . S
C509 C505 1.437 . S
C509 C507 1.420 1_545 S
C509 C514 1.387 1_545 S
C510 C506 1.432 1_565 S
C510 C507 1.317 . S
C510 H522 0.930 . S
C511 C513 1.392 . S
C511 C514 1.370 1_545 S
C511 H523 0.931 . S
N512 C505 1.359 . S
N512 C513 1.327 . S
N512 Tb515 2.600 . S
C513 C511 1.392 . S
C513 N512 1.327 . S
C513 H520 0.930 . S
C514 C509 1.387 1_565 S
C514 C511 1.370 1_565 S
C514 H533 0.930 . S
Tb515 N512 2.600 . S
Tb515 N516 2.660 . S
Tb515 O549 2.362 . S
Tb515 O550 2.421 . S
Tb515 O554 2.546 . S
Tb515 O555 2.610 . S
Tb515 O557 2.320 . S
Tb515 O558 2.552 . S
Tb515 O559 2.413 . S
Tb515 C579 2.833 . S
N516 C508 1.360 . S
N516 Tb515 2.660 . S
N516 C517 1.305 . S
C517 N516 1.305 . S
C517 C519 1.407 . S
C517 H524 0.930 . S
C518 C506 1.410 . S
C518 C519 1.345 . S
C518 H526 0.904 1_545 S
C519 C517 1.407 . S
C519 C518 1.345 . S
C519 H521 0.930 . S
H520 C513 0.930 . S
H521 C519 0.930 . S
H522 C510 0.930 . S
H523 C511 0.931 . S
H524 C517 0.930 . S
H525 C539 0.930 . S
H526 C518 0.904 1_565 S
H527 C545 0.930 . S
H528 C536 0.930 . S
H529 C543 0.931 . S
H530 C507 0.929 . S
H531 C537 0.930 . S
H532 C570 0.930 . S
H533 C514 0.930 . S
H534 C569 0.929 . S
N535 Tb504 2.660 . S
N535 C536 1.305 . S
N535 C540 1.360 . S
C536 H528 0.930 . S
C536 N535 1.305 . S
C536 C539 1.407 . S
C537 H531 0.930 . S
C537 C538 1.410 . S
C537 C539 1.345 . S
C538 C537 1.410 . S
C538 C540 1.417 . S
C538 C570 1.432 . S
C539 H525 0.930 . S
C539 C536 1.407 . S
C539 C537 1.345 . S
C540 N535 1.360 . S
C540 C538 1.417 . S
C540 C544 1.432 . S
H541 C546 0.930 . S
N542 Tb504 2.600 . S
N542 C544 1.359 . S
N542 C545 1.327 . S
C543 H529 0.931 . S
C543 C545 1.392 . S
C543 C546 1.370 . S
C544 C540 1.432 . S
C544 N542 1.359 . S
C544 C547 1.414 . S
C545 H527 0.930 . S
C545 N542 1.327 . S
C545 C543 1.392 . S
C546 H541 0.930 . S
C546 C543 1.370 . S
C546 C547 1.385 . S
C547 C544 1.414 . S
C547 C546 1.385 . S
C547 C569 1.444 . S
O548 Tb504 2.546 . S
O548 C568 1.251 . S
O549 Tb504 2.610 . S
O549 Tb515 2.362 . S
O549 C560 1.283 . S
O550 Tb515 2.421 . S
O550 C567 1.262 . S
O551 Tb504 2.320 . S
O551 C567 1.260 . S
O552 Tb504 2.552 . S
O552 C560 1.243 . S
O553 Tb504 2.413 . S
O553 C568 1.256 . S
O554 Tb515 2.546 . S
O554 C579 1.251 . S
O555 Tb504 2.362 . S
O555 Tb515 2.610 . S
O555 C571 1.283 . S
O556 Tb504 2.421 . S
O556 C578 1.262 . S
O557 Tb515 2.320 . S
O557 C578 1.260 . S
O558 Tb515 2.552 . S
O558 C571 1.243 . S
O559 Tb515 2.413 . S
O559 C579 1.256 . S
C560 O549 1.283 . S
C560 O552 1.243 . S
C561 C563 1.382 . S
C561 C565 1.393 . S
C561 C568 1.500 . S
C562 C563 1.400 . S
C562 C564 1.384 . S
C563 C561 1.382 . S
C563 C562 1.400 . S
C563 H580 0.930 . S
C564 C562 1.384 . S
C564 C566 1.392 . S
C564 H581 0.931 . S
C565 C561 1.393 . S
C565 C566 1.401 . S
C565 H582 0.930 . S
C566 C564 1.392 . S
C566 C565 1.401 . S
C566 H583 0.930 . S
C567 O550 1.262 . S
C567 O551 1.260 . S
C568 Tb504 2.833 . S
C568 O548 1.251 . S
C568 O553 1.256 . S
C568 C561 1.500 . S
C569 H534 0.929 . S
C569 C547 1.444 . S
C569 C570 1.317 . S
C570 H532 0.930 . S
C570 C538 1.432 . S
C570 C569 1.317 . S
C571 O555 1.283 . S
C571 O558 1.243 . S
C572 C573 1.382 . S
C572 C576 1.393 . S
C572 C579 1.500 1_565 S
C573 C572 1.382 . S
C573 C574 1.400 . S
C573 H584 0.930 . S
C574 C573 1.400 . S
C574 C575 1.384 . S
C575 C574 1.384 . S
C575 C577 1.392 . S
C575 H585 0.931 . S
C576 C572 1.393 . S
C576 C577 1.401 . S
C576 H586 0.930 . S
C577 C575 1.392 . S
C577 C576 1.401 . S
C577 H587 0.930 . S
C578 O556 1.262 . S
C578 O557 1.260 . S
C579 Tb515 2.833 . S
C579 O554 1.251 . S
C579 O559 1.256 . S
C579 C572 1.500 1_545 S
H580 C563 0.930 . S
H581 C564 0.931 . S
H582 C565 0.930 . S
H583 C566 0.930 . S
H584 C573 0.930 . S
H585 C575 0.931 . S
H586 C576 0.930 . S
H587 C577 0.930 . S
Tb588 N619 2.660 . S
Tb588 N626 2.600 . S
Tb588 O632 2.546 . S
Tb588 O633 2.610 . S
Tb588 O635 2.320 . S
Tb588 O636 2.552 . S
Tb588 O637 2.413 . S
Tb588 O639 2.362 . S
Tb588 O640 2.421 . S
Tb588 C652 2.833 . S
C589 C592 1.432 . S
C589 C593 1.414 1_655 S
C589 N596 1.359 . S
C590 C592 1.417 1_455 S
C590 C594 1.432 . S
C590 C602 1.410 . S
C591 C593 1.444 . S
C591 C594 1.317 . S
C591 H614 0.929 . S
C592 C589 1.432 . S
C592 C590 1.417 1_655 S
C592 N600 1.360 . S
C593 C589 1.414 1_455 S
C593 C591 1.444 . S
C593 C598 1.385 . S
C594 C590 1.432 . S
C594 C591 1.317 . S
C594 H606 0.930 . S
C595 C597 1.392 . S
C595 C598 1.370 1_655 S
C595 H607 0.931 . S
N596 C589 1.359 . S
N596 C597 1.327 . S
N596 Tb599 2.600 . S
C597 C595 1.392 . S
C597 N596 1.327 . S
C597 H604 0.930 . S
C598 C593 1.385 . S
C598 C595 1.370 1_455 S
C598 H617 0.930 . S
Tb599 N596 2.600 . S
Tb599 N600 2.660 . S
Tb599 O633 2.362 . S
Tb599 O634 2.421 . S
Tb599 O638 2.546 . S
Tb599 O639 2.610 . S
Tb599 O641 2.320 . S
Tb599 O642 2.552 . S
Tb599 O643 2.413 . S
Tb599 C663 2.833 1_655 S
N600 C592 1.360 . S
N600 Tb599 2.660 . S
N600 C601 1.305 . S
C601 N600 1.305 . S
C601 C603 1.407 . S
C601 H608 0.930 . S
C602 C590 1.410 . S
C602 C603 1.345 1_455 S
C602 H610 0.930 . S
C603 C601 1.407 . S
C603 C602 1.345 1_655 S
C603 H605 0.930 . S
H604 C597 0.930 . S
H605 C603 0.930 . S
H606 C594 0.930 . S
H607 C595 0.931 . S
H608 C601 0.930 . S
H609 C623 0.930 . S
H610 C602 0.930 . S
H611 C629 0.930 . S
H612 C620 0.930 . S
H613 C627 0.931 . S
H614 C591 0.929 . S
H615 C621 0.930 . S
H616 C654 0.930 1_565 S
H617 C598 0.930 . S
H618 C653 0.929 1_565 S
N619 Tb588 2.660 . S
N619 C620 1.305 . S
N619 C624 1.360 . S
C620 H612 0.930 . S
C620 N619 1.305 . S
C620 C623 1.407 . S
C621 H615 0.930 . S
C621 C622 1.410 . S
C621 C623 1.345 . S
C622 C621 1.410 . S
C622 C624 1.417 . S
C622 C654 1.432 . S
C623 H609 0.930 . S
C623 C620 1.407 . S
C623 C621 1.345 . S
C624 N619 1.360 . S
C624 C622 1.417 . S
C624 C628 1.432 . S
H625 C630 0.930 . S
N626 Tb588 2.600 . S
N626 C628 1.359 . S
N626 C629 1.327 . S
C627 H613 0.931 . S
C627 C629 1.392 . S
C627 C630 1.370 . S
C628 C624 1.432 . S
C628 N626 1.359 . S
C628 C631 1.414 . S
C629 H611 0.930 . S
C629 N626 1.327 . S
C629 C627 1.392 . S
C630 H625 0.930 . S
C630 C627 1.370 . S
C630 C631 1.385 . S
C631 C628 1.414 . S
C631 C630 1.385 . S
C631 C653 1.444 . S
O632 Tb588 2.546 . S
O632 C652 1.251 . S
O633 Tb588 2.610 . S
O633 Tb599 2.362 . S
O633 C644 1.283 . S
O634 Tb599 2.421 . S
O634 C651 1.262 . S
O635 Tb588 2.320 . S
O635 C651 1.260 . S
O636 Tb588 2.552 . S
O636 C644 1.243 . S
O637 Tb588 2.413 . S
O637 C652 1.256 . S
O638 Tb599 2.546 . S
O638 C663 1.251 1_655 S
O639 Tb588 2.362 . S
O639 Tb599 2.610 . S
O639 C655 1.283 . S
O640 Tb588 2.421 . S
O640 C662 1.262 . S
O641 Tb599 2.320 . S
O641 C662 1.260 . S
O642 Tb599 2.552 . S
O642 C655 1.243 . S
O643 Tb599 2.413 . S
O643 C663 1.256 1_655 S
C644 O633 1.283 . S
C644 O636 1.243 . S
C645 C647 1.382 . S
C645 C649 1.393 . S
C645 C652 1.500 . S
C646 C647 1.400 . S
C646 C648 1.384 . S
C647 C645 1.382 . S
C647 C646 1.400 . S
C647 H664 0.930 . S
C648 C646 1.384 . S
C648 C650 1.392 . S
C648 H665 0.931 . S
C649 C645 1.393 . S
C649 C650 1.401 . S
C649 H666 0.930 . S
C650 C648 1.392 . S
C650 C649 1.401 . S
C650 H667 0.930 . S
C651 O634 1.262 . S
C651 O635 1.260 . S
C652 Tb588 2.833 . S
C652 O632 1.251 . S
C652 O637 1.256 . S
C652 C645 1.500 . S
C653 H618 0.929 1_545 S
C653 C631 1.444 . S
C653 C654 1.317 . S
C654 H616 0.930 1_545 S
C654 C622 1.432 . S
C654 C653 1.317 . S
C655 O639 1.283 . S
C655 O642 1.243 . S
C656 C657 1.382 . S
C656 C660 1.393 . S
C656 C663 1.500 . S
C657 C656 1.382 . S
C657 C658 1.400 . S
C657 H668 0.930 . S
C658 C657 1.400 . S
C658 C659 1.384 . S
C659 C658 1.384 . S
C659 C661 1.392 . S
C659 H669 0.931 . S
C660 C656 1.393 . S
C660 C661 1.401 . S
C660 H670 0.930 . S
C661 C659 1.392 . S
C661 C660 1.401 . S
C661 H671 0.930 . S
C662 O640 1.262 . S
C662 O641 1.260 . S
C663 Tb599 2.833 1_455 S
C663 O638 1.251 1_455 S
C663 O643 1.256 1_455 S
C663 C656 1.500 . S
H664 C647 0.930 . S
H665 C648 0.931 . S
H666 C649 0.930 . S
H667 C650 0.930 . S
H668 C657 0.930 . S
H669 C659 0.931 . S
H670 C660 0.930 . S
H671 C661 0.930 . S
Tb672 N703 2.660 . S
Tb672 N710 2.600 . S
Tb672 O716 2.546 . S
Tb672 O717 2.610 . S
Tb672 O719 2.320 . S
Tb672 O720 2.552 . S
Tb672 O721 2.413 . S
Tb672 O723 2.362 . S
Tb672 O724 2.421 . S
Tb672 C736 2.833 . S
C673 C676 1.432 . S
C673 C677 1.414 . S
C673 N680 1.359 . S
C674 C676 1.417 . S
C674 C678 1.432 . S
C674 C686 1.410 . S
C675 C677 1.444 . S
C675 C678 1.317 . S
C675 H698 0.929 . S
C676 C673 1.432 . S
C676 C674 1.417 . S
C676 N684 1.360 . S
C677 C673 1.414 . S
C677 C675 1.444 . S
C677 C682 1.385 . S
C678 C674 1.432 . S
C678 C675 1.317 . S
C678 H690 0.930 . S
C679 C681 1.392 . S
C679 C682 1.370 . S
C679 H691 0.931 . S
N680 C673 1.359 . S
N680 C681 1.327 . S
N680 Tb683 2.600 . S
C681 C679 1.392 . S
C681 N680 1.327 . S
C681 H688 0.930 . S
C682 C677 1.385 . S
C682 C679 1.370 . S
C682 H701 0.930 . S
Tb683 N680 2.600 . S
Tb683 N684 2.660 . S
Tb683 O717 2.362 . S
Tb683 O718 2.421 . S
Tb683 O722 2.546 . S
Tb683 O723 2.610 . S
Tb683 O725 2.320 . S
Tb683 O726 2.552 . S
Tb683 O727 2.413 . S
Tb683 C747 2.833 . S
N684 C676 1.360 . S
N684 Tb683 2.660 . S
N684 C685 1.305 . S
C685 N684 1.305 . S
C685 C687 1.407 . S
C685 H692 0.930 . S
C686 C674 1.410 . S
C686 C687 1.345 . S
C686 H694 0.930 . S
C687 C685 1.407 . S
C687 C686 1.345 . S
C687 H689 0.930 . S
H688 C681 0.930 . S
H689 C687 0.930 . S
H690 C678 0.930 . S
H691 C679 0.931 . S
H692 C685 0.930 . S
H693 C707 0.930 . S
H694 C686 0.930 . S
H695 C713 0.930 . S
H696 C704 0.930 . S
H697 C711 0.931 . S
H698 C675 0.929 . S
H699 C705 0.930 1_455 S
H700 C738 0.930 . S
H701 C682 0.930 . S
H702 C737 0.929 . S
N703 Tb672 2.660 . S
N703 C704 1.305 . S
N703 C708 1.360 . S
C704 H696 0.930 . S
C704 N703 1.305 . S
C704 C707 1.407 . S
C705 H699 0.930 1_655 S
C705 C706 1.410 . S
C705 C707 1.345 . S
C706 C705 1.410 . S
C706 C708 1.417 . S
C706 C738 1.432 1_655 S
C707 H693 0.930 . S
C707 C704 1.407 . S
C707 C705 1.345 . S
C708 N703 1.360 . S
C708 C706 1.417 . S
C708 C712 1.432 . S
H709 C714 0.930 . S
N710 Tb672 2.600 . S
N710 C712 1.359 . S
N710 C713 1.327 . S
C711 H697 0.931 . S
C711 C713 1.392 . S
C711 C714 1.370 . S
C712 C708 1.432 . S
C712 N710 1.359 . S
C712 C715 1.414 . S
C713 H695 0.930 . S
C713 N710 1.327 . S
C713 C711 1.392 . S
C714 H709 0.930 . S
C714 C711 1.370 . S
C714 C715 1.385 . S
C715 C712 1.414 . S
C715 C714 1.385 . S
C715 C737 1.444 1_655 S
O716 Tb672 2.546 . S
O716 C736 1.251 . S
O717 Tb672 2.610 . S
O717 Tb683 2.362 . S
O717 C728 1.283 . S
O718 Tb683 2.421 . S
O718 C735 1.262 . S
O719 Tb672 2.320 . S
O719 C735 1.260 . S
O720 Tb672 2.552 . S
O720 C728 1.243 . S
O721 Tb672 2.413 . S
O721 C736 1.256 . S
O722 Tb683 2.546 . S
O722 C747 1.251 . S
O723 Tb672 2.362 . S
O723 Tb683 2.610 . S
O723 C739 1.283 . S
O724 Tb672 2.421 . S
O724 C746 1.262 . S
O725 Tb683 2.320 . S
O725 C746 1.260 . S
O726 Tb683 2.552 . S
O726 C739 1.243 . S
O727 Tb683 2.413 . S
O727 C747 1.256 . S
C728 O717 1.283 . S
C728 O720 1.243 . S
C729 C731 1.382 . S
C729 C733 1.393 . S
C729 C736 1.500 . S
C730 C731 1.400 . S
C730 C732 1.384 . S
C731 C729 1.382 . S
C731 C730 1.400 . S
C731 H748 0.930 . S
C732 C730 1.384 . S
C732 C734 1.392 . S
C732 H749 0.931 . S
C733 C729 1.393 . S
C733 C734 1.401 . S
C733 H750 0.930 . S
C734 C732 1.392 . S
C734 C733 1.401 . S
C734 H751 0.930 . S
C735 O718 1.262 . S
C735 O719 1.260 . S
C736 Tb672 2.833 . S
C736 O716 1.251 . S
C736 O721 1.256 . S
C736 C729 1.500 . S
C737 H702 0.929 . S
C737 C715 1.444 1_455 S
C737 C738 1.317 . S
C738 H700 0.930 . S
C738 C706 1.432 1_455 S
C738 C737 1.317 . S
C739 O723 1.283 . S
C739 O726 1.243 . S
C740 C741 1.382 . S
C740 C744 1.393 . S
C740 C747 1.500 . S
C741 C740 1.382 . S
C741 C742 1.400 . S
C741 H752 0.930 . S
C742 C741 1.400 . S
C742 C743 1.384 . S
C743 C742 1.384 . S
C743 C745 1.392 . S
C743 H753 0.931 . S
C744 C740 1.393 . S
C744 C745 1.401 . S
C744 H754 0.930 . S
C745 C743 1.392 . S
C745 C744 1.401 . S
C745 H755 0.930 . S
C746 O724 1.262 . S
C746 O725 1.260 . S
C747 Tb683 2.833 . S
C747 O722 1.251 . S
C747 O727 1.256 . S
C747 C740 1.500 . S
H748 C731 0.930 . S
H749 C732 0.931 . S
H750 C733 0.930 . S
H751 C734 0.930 . S
H752 C741 0.930 . S
H753 C743 0.931 . S
H754 C744 0.930 . S
H755 C745 0.930 . S
C756 C757 1.391 1_556 S
C756 C758 1.394 . S
C756 H772 0.931 . S
C757 C756 1.391 1_554 S
C757 C761 1.376 . S
C758 C756 1.394 . S
C758 C759 1.369 1_556 S
C758 C762 1.531 . S
C759 C758 1.369 1_554 S
C759 C760 1.410 . S
C759 C767 1.503 . S
C760 C759 1.410 . S
C760 C761 1.392 . S
C760 C763 1.511 . S
C761 C757 1.376 . S
C761 C760 1.392 . S
C761 H773 0.929 . S
C762 C758 1.531 . S
C762 H774 0.960 . S
C762 H775 0.962 . S
C762 H776 0.960 . S
C763 C760 1.511 . S
C763 H777 0.961 . S
C763 H778 0.961 . S
C763 H779 0.961 . S
C764 C765 1.370 1_556 S
C764 C766 1.366 . S
C764 H780 0.931 . S
C765 C764 1.370 1_554 S
C765 C769 1.408 . S
C766 C764 1.366 . S
C766 C767 1.362 1_556 S
C766 C770 1.530 . S
C767 C759 1.503 . S
C767 C766 1.362 1_554 S
C767 C768 1.403 . S
C768 C767 1.403 . S
C768 C769 1.404 . S
C768 C771 1.539 . S
C769 C765 1.408 . S
C769 C768 1.404 . S
C769 H781 0.930 . S
C770 C766 1.530 . S
C770 H782 0.956 . S
C770 H783 0.961 1_556 S
C770 H784 0.961 . S
C771 C768 1.539 . S
C771 H785 0.958 . S
C771 H786 0.961 . S
C771 H787 0.960 . S
H772 C756 0.931 . S
H773 C761 0.929 . S
H774 C762 0.960 . S
H775 C762 0.962 . S
H776 C762 0.960 . S
H777 C763 0.961 . S
H778 C763 0.961 . S
H779 C763 0.961 . S
H780 C764 0.931 . S
H781 C769 0.930 . S
H782 C770 0.956 . S
H783 C770 0.961 1_554 S
H784 C770 0.961 . S
H785 C771 0.958 . S
H786 C771 0.961 . S
H787 C771 0.960 . S
C788 C789 1.391 . S
C788 C790 1.394 . S
C788 H804 0.931 . S
C789 C788 1.391 . S
C789 C793 1.376 1_554 S
C790 C788 1.394 . S
C790 C791 1.369 . S
C790 C794 1.531 . S
C791 C790 1.369 . S
C791 C792 1.410 1_554 S
C791 C799 1.503 . S
C792 C791 1.410 1_556 S
C792 C793 1.392 . S
C792 C795 1.511 . S
C793 C789 1.376 1_556 S
C793 C792 1.392 . S
C793 H805 0.929 . S
C794 C790 1.531 . S
C794 H806 0.960 . S
C794 H807 0.962 . S
C794 H808 0.960 . S
C795 C792 1.511 . S
C795 H809 0.961 . S
C795 H810 0.961 . S
C795 H811 0.961 . S
C796 C797 1.370 . S
C796 C798 1.363 . S
C796 H812 0.931 . S
C797 C796 1.370 . S
C797 C801 1.408 . S
C798 C796 1.363 . S
C798 C799 1.370 . S
C798 C802 1.524 . S
C799 C791 1.503 . S
C799 C798 1.370 . S
C799 C800 1.403 . S
C800 C799 1.403 . S
C800 C801 1.404 . S
C800 C803 1.539 . S
C801 C797 1.408 . S
C801 C800 1.404 . S
C801 H813 0.930 . S
C802 C798 1.524 . S
C802 H814 0.956 . S
C802 H815 0.961 1_554 S
C802 H816 0.961 . S
C803 C800 1.539 . S
C803 H817 0.958 . S
C803 H818 0.961 1_554 S
C803 H819 0.960 . S
H804 C788 0.931 . S
H805 C793 0.929 . S
H806 C794 0.960 . S
H807 C794 0.962 . S
H808 C794 0.960 . S
H809 C795 0.961 . S
H810 C795 0.961 . S
H811 C795 0.961 . S
H812 C796 0.931 . S
H813 C801 0.930 . S
H814 C802 0.956 . S
H815 C802 0.961 1_556 S
H816 C802 0.961 . S
H817 C803 0.958 . S
H818 C803 0.961 1_556 S
H819 C803 0.960 . S
C820 C821 1.391 . S
C820 C822 1.394 . S
C820 H836 0.931 . S
C821 C820 1.391 . S
C821 C825 1.376 . S
C822 C820 1.394 . S
C822 C823 1.369 . S
C822 C826 1.531 . S
C823 C822 1.369 . S
C823 C824 1.410 . S
C823 C831 1.503 . S
C824 C823 1.410 . S
C824 C825 1.392 . S
C824 C827 1.511 . S
C825 C821 1.376 . S
C825 C824 1.392 . S
C825 H837 0.929 . S
C826 C822 1.531 . S
C826 H838 0.960 . S
C826 H839 0.962 . S
C826 H840 0.960 . S
C827 C824 1.511 . S
C827 H841 0.952 1_554 S
C827 H842 0.961 . S
C827 H843 0.961 . S
C828 C829 1.370 1_556 S
C828 C830 1.363 . S
C828 H844 0.931 . S
C829 C828 1.370 1_554 S
C829 C833 1.408 . S
C830 C828 1.363 . S
C830 C831 1.370 1_556 S
C830 C834 1.524 . S
C831 C823 1.503 . S
C831 C830 1.370 1_554 S
C831 C832 1.403 . S
C832 C831 1.403 . S
C832 C833 1.404 . S
C832 C835 1.539 . S
C833 C829 1.408 . S
C833 C832 1.404 . S
C833 H845 0.930 . S
C834 C830 1.524 . S
C834 H846 0.956 . S
C834 H847 0.961 . S
C834 H848 0.961 . S
C835 C832 1.539 . S
C835 H849 0.958 . S
C835 H850 0.961 . S
C835 H851 0.960 . S
H836 C820 0.931 . S
H837 C825 0.929 . S
H838 C826 0.960 . S
H839 C826 0.962 . S
H840 C826 0.960 . S
H841 C827 0.952 1_556 S
H842 C827 0.961 . S
H843 C827 0.961 . S
H844 C828 0.931 . S
H845 C833 0.930 . S
H846 C834 0.956 . S
H847 C834 0.961 . S
H848 C834 0.961 . S
H849 C835 0.958 . S
H850 C835 0.961 . S
H851 C835 0.960 . S
C852 C853 1.391 . S
C852 C854 1.394 . S
C852 H868 0.931 . S
C853 C852 1.391 . S
C853 C857 1.376 1_556 S
C854 C852 1.394 . S
C854 C855 1.369 . S
C854 C858 1.531 . S
C855 C854 1.369 . S
C855 C856 1.410 1_556 S
C855 C863 1.503 . S
C856 C855 1.410 1_554 S
C856 C857 1.392 . S
C856 C859 1.511 . S
C857 C853 1.376 1_554 S
C857 C856 1.392 . S
C857 H869 0.929 . S
C858 C854 1.531 . S
C858 H870 0.960 . S
C858 H871 0.962 . S
C858 H872 0.960 . S
C859 C856 1.511 . S
C859 H873 0.961 . S
C859 H874 0.961 . S
C859 H875 0.961 . S
C860 C861 1.370 1_556 S
C860 C862 1.363 . S
C860 H876 0.931 . S
C861 C860 1.370 1_554 S
C861 C865 1.408 . S
C862 C860 1.363 . S
C862 C863 1.370 . S
C862 C866 1.524 . S
C863 C855 1.503 . S
C863 C862 1.370 . S
C863 C864 1.403 . S
C864 C863 1.403 . S
C864 C865 1.404 1_556 S
C864 C867 1.539 1_556 S
C865 C861 1.408 . S
C865 C864 1.404 1_554 S
C865 H877 0.930 . S
C866 C862 1.524 . S
C866 H878 0.956 . S
C866 H879 0.961 1_556 S
C866 H880 0.961 . S
C867 C864 1.539 1_554 S
C867 H881 0.957 1_554 S
C867 H882 0.962 . S
C867 H883 0.960 . S
H868 C852 0.931 . S
H869 C857 0.929 . S
H870 C858 0.960 . S
H871 C858 0.962 . S
H872 C858 0.960 . S
H873 C859 0.961 . S
H874 C859 0.961 . S
H875 C859 0.961 . S
H876 C860 0.931 . S
H877 C865 0.930 . S
H878 C866 0.956 . S
H879 C866 0.961 1_554 S
H880 C866 0.961 . S
H881 C867 0.957 1_556 S
H882 C867 0.962 . S
H883 C867 0.960 . S
C884 C885 1.400 . S
C884 C886 1.394 . S
C884 H900 0.931 . S
C885 C884 1.400 . S
C885 C889 1.365 1_554 S
C886 C884 1.394 . S
C886 C887 1.369 1_554 S
C886 C890 1.531 . S
C887 C886 1.369 1_556 S
C887 C888 1.410 . S
C887 C895 1.503 . S
C888 C887 1.410 . S
C888 C889 1.392 . S
C888 C891 1.511 . S
C889 C885 1.365 1_556 S
C889 C888 1.392 . S
C889 H901 0.929 . S
C890 C886 1.531 . S
C890 H902 0.960 . S
C890 H903 0.962 . S
C890 H904 0.960 . S
C891 C888 1.511 . S
C891 H905 0.961 . S
C891 H906 0.961 . S
C891 H907 0.961 . S
C892 C893 1.370 1_554 S
C892 C894 1.363 . S
C892 H908 0.931 . S
C893 C892 1.370 1_556 S
C893 C897 1.408 . S
C894 C892 1.363 . S
C894 C895 1.370 1_554 S
C894 C898 1.524 . S
C895 C887 1.503 . S
C895 C894 1.370 1_556 S
C895 C896 1.403 . S
C896 C895 1.403 . S
C896 C897 1.404 . S
C896 C899 1.539 . S
C897 C893 1.408 . S
C897 C896 1.404 . S
C897 H909 0.930 . S
C898 C894 1.524 . S
C898 H910 0.956 . S
C898 H911 0.961 . S
C898 H912 0.961 . S
C899 C896 1.539 . S
C899 H913 0.958 . S
C899 H914 0.961 . S
C899 H915 0.960 . S
H900 C884 0.931 . S
H901 C889 0.929 . S
H902 C890 0.960 . S
H903 C890 0.962 . S
H904 C890 0.960 . S
H905 C891 0.961 . S
H906 C891 0.961 . S
H907 C891 0.961 . S
H908 C892 0.931 . S
H909 C897 0.930 . S
H910 C898 0.956 . S
H911 C898 0.961 . S
H912 C898 0.961 . S
H913 C899 0.958 . S
H914 C899 0.961 . S
H915 C899 0.960 . S
C916 C917 1.391 . S
C916 C918 1.394 . S
C916 H932 0.931 . S
C917 C916 1.391 . S
C917 C921 1.376 1_554 S
C918 C916 1.394 . S
C918 C919 1.369 1_554 S
C918 C922 1.531 . S
C919 C918 1.369 1_556 S
C919 C920 1.410 . S
C919 C927 1.503 . S
C920 C919 1.410 . S
C920 C921 1.392 . S
C920 C923 1.511 . S
C921 C917 1.376 1_556 S
C921 C920 1.392 . S
C921 H933 0.929 . S
C922 C918 1.531 . S
C922 H934 0.960 . S
C922 H935 0.962 . S
C922 H936 0.960 . S
C923 C920 1.511 . S
C923 H937 0.961 . S
C923 H938 0.961 . S
C923 H939 0.961 . S
C924 C925 1.370 . S
C924 C926 1.363 . S
C924 H940 0.931 . S
C925 C924 1.370 . S
C925 C929 1.408 . S
C926 C924 1.363 . S
C926 C927 1.370 . S
C926 C930 1.524 . S
C927 C919 1.503 . S
C927 C926 1.370 . S
C927 C928 1.403 . S
C928 C927 1.403 . S
C928 C929 1.404 . S
C928 C931 1.539 . S
C929 C925 1.408 . S
C929 C928 1.404 . S
C929 H941 0.930 . S
C930 C926 1.524 . S
C930 H942 0.956 1_556 S
C930 H943 0.961 . S
C930 H944 0.961 . S
C931 C928 1.539 . S
C931 H945 0.958 1_556 S
C931 H946 0.961 . S
C931 H947 0.960 . S
H932 C916 0.931 . S
H933 C921 0.929 . S
H934 C922 0.960 . S
H935 C922 0.962 . S
H936 C922 0.960 . S
H937 C923 0.961 . S
H938 C923 0.961 . S
H939 C923 0.961 . S
H940 C924 0.931 . S
H941 C929 0.930 . S
H942 C930 0.956 1_554 S
H943 C930 0.961 . S
H944 C930 0.961 . S
H945 C931 0.958 1_554 S
H946 C931 0.961 . S
H947 C931 0.960 . S
C948 C949 1.391 . S
C948 C950 1.394 . S
C948 H964 0.931 . S
C949 C948 1.391 . S
C949 C953 1.376 . S
C950 C948 1.394 . S
C950 C951 1.369 . S
C950 C954 1.531 . S
C951 C950 1.369 . S
C951 C952 1.410 . S
C951 C959 1.503 . S
C952 C951 1.410 . S
C952 C953 1.392 . S
C952 C955 1.511 . S
C953 C949 1.376 . S
C953 C952 1.392 . S
C953 H965 0.929 . S
C954 C950 1.531 . S
C954 H966 0.960 . S
C954 H967 0.962 . S
C954 H968 0.960 . S
C955 C952 1.511 . S
C955 H969 0.961 . S
C955 H970 0.961 . S
C955 H971 0.961 . S
C956 C957 1.370 . S
C956 C958 1.363 . S
C956 H972 0.931 . S
C957 C956 1.370 . S
C957 C961 1.408 . S
C958 C956 1.363 . S
C958 C959 1.370 . S
C958 C962 1.524 . S
C959 C951 1.503 . S
C959 C958 1.370 . S
C959 C960 1.403 . S
C960 C959 1.403 . S
C960 C961 1.404 . S
C960 C963 1.539 . S
C961 C957 1.408 . S
C961 C960 1.404 . S
C961 H973 0.930 . S
C962 C958 1.524 . S
C962 H974 0.956 . S
C962 H975 0.961 . S
C962 H976 0.961 . S
C963 C960 1.539 . S
C963 H977 0.958 . S
C963 H978 0.961 . S
C963 H979 0.960 . S
H964 C948 0.931 . S
H965 C953 0.929 . S
H966 C954 0.960 . S
H967 C954 0.962 . S
H968 C954 0.960 . S
H969 C955 0.961 . S
H970 C955 0.961 . S
H971 C955 0.961 . S
H972 C956 0.931 . S
H973 C961 0.930 . S
H974 C962 0.956 . S
H975 C962 0.961 . S
H976 C962 0.961 . S
H977 C963 0.958 . S
H978 C963 0.961 . S
H979 C963 0.960 . S
C980 C981 1.391 . S
C980 C982 1.394 . S
C980 H996 0.931 . S
C981 C980 1.391 . S
C981 C985 1.376 . S
C982 C980 1.394 . S
C982 C983 1.369 . S
C982 C986 1.531 . S
C983 C982 1.369 . S
C983 C984 1.410 . S
C983 C991 1.503 . S
C984 C983 1.410 . S
C984 C985 1.392 . S
C984 C987 1.511 . S
C985 C981 1.376 . S
C985 C984 1.392 . S
C985 H997 0.929 . S
C986 C982 1.531 . S
C986 H998 0.949 1_545 S
C986 H999 0.962 1_545 S
C986 H1000 0.960 . S
C987 C984 1.511 . S
C987 H1001 0.961 . S
C987 H1002 0.961 . S
C987 H1003 0.961 . S
C988 C989 1.370 . S
C988 C990 1.363 . S
C988 H1004 0.931 . S
C989 C988 1.370 . S
C989 C993 1.408 . S
C990 C988 1.363 . S
C990 C991 1.370 1_565 S
C990 C994 1.516 1_565 S
C991 C983 1.503 . S
C991 C990 1.370 1_545 S
C991 C992 1.403 . S
C992 C991 1.403 . S
C992 C993 1.404 1_545 S
C992 C995 1.539 . S
C993 C989 1.408 . S
C993 C992 1.404 1_565 S
C993 H1005 0.930 . S
C994 C990 1.516 1_545 S
C994 H1006 0.963 1_545 S
C994 H1007 0.979 . S
C994 H1008 0.944 1_545 S
C995 C992 1.539 . S
C995 H1009 0.958 . S
C995 H1010 0.961 . S
C995 H1011 0.960 . S
H996 C980 0.931 . S
H997 C985 0.929 . S
H998 C986 0.949 1_565 S
H999 C986 0.962 1_565 S
H1000 C986 0.960 . S
H1001 C987 0.961 . S
H1002 C987 0.961 . S
H1003 C987 0.961 . S
H1004 C988 0.931 . S
H1005 C993 0.930 . S
H1006 C994 0.963 1_565 S
H1007 C994 0.979 . S
H1008 C994 0.944 1_565 S
H1009 C995 0.958 . S
H1010 C995 0.961 . S
H1011 C995 0.960 . S
C1012 C1013 1.391 . S
C1012 C1014 1.394 1_455 S
C1012 H1028 0.931 . S
C1013 C1012 1.391 . S
C1013 C1017 1.376 . S
C1014 C1012 1.394 1_655 S
C1014 C1015 1.369 . S
C1014 C1018 1.531 . S
C1015 C1014 1.369 . S
C1015 C1016 1.410 1_655 S
C1015 C1023 1.503 . S
C1016 C1015 1.410 1_455 S
C1016 C1017 1.392 . S
C1016 C1019 1.511 . S
C1017 C1013 1.376 . S
C1017 C1016 1.392 . S
C1017 H1029 0.929 . S
C1018 C1014 1.531 . S
C1018 H1030 0.960 . S
C1018 H1031 0.962 . S
C1018 H1032 0.960 . S
C1019 C1016 1.511 . S
C1019 H1033 0.961 . S
C1019 H1034 0.961 . S
C1019 H1035 0.961 . S
C1020 C1021 1.370 . S
C1020 C1022 1.363 . S
C1020 H1036 0.931 . S
C1021 C1020 1.370 . S
C1021 C1025 1.408 . S
C1022 C1020 1.363 . S
C1022 C1023 1.370 . S
C1022 C1026 1.524 . S
C1023 C1015 1.503 . S
C1023 C1022 1.370 . S
C1023 C1024 1.403 . S
C1024 C1023 1.403 . S
C1024 C1025 1.404 . S
C1024 C1027 1.539 . S
C1025 C1021 1.408 . S
C1025 C1024 1.404 . S
C1025 H1037 0.930 . S
C1026 C1022 1.524 . S
C1026 H1038 0.956 . S
C1026 H1039 0.961 . S
C1026 H1040 0.961 . S
C1027 C1024 1.539 . S
C1027 H1041 0.958 . S
C1027 H1042 0.973 . S
C1027 H1043 0.960 1_655 S
H1028 C1012 0.931 . S
H1029 C1017 0.929 . S
H1030 C1018 0.960 . S
H1031 C1018 0.962 . S
H1032 C1018 0.960 . S
H1033 C1019 0.961 . S
H1034 C1019 0.961 . S
H1035 C1019 0.961 . S
H1036 C1020 0.931 . S
H1037 C1025 0.930 . S
H1038 C1026 0.956 . S
H1039 C1026 0.961 . S
H1040 C1026 0.961 . S
H1041 C1027 0.958 . S
H1042 C1027 0.973 . S
H1043 C1027 0.960 1_455 S
C1044 C1045 1.391 . S
C1044 C1046 1.394 . S
C1044 H1060 0.931 . S
C1045 C1044 1.391 . S
C1045 C1049 1.376 . S
C1046 C1044 1.394 . S
C1046 C1047 1.369 . S
C1046 C1050 1.531 . S
C1047 C1046 1.369 . S
C1047 C1048 1.410 . S
C1047 C1055 1.503 . S
C1048 C1047 1.410 . S
C1048 C1049 1.392 . S
C1048 C1051 1.511 . S
C1049 C1045 1.376 . S
C1049 C1048 1.392 . S
C1049 H1061 0.929 . S
C1050 C1046 1.531 . S
C1050 H1062 0.960 . S
C1050 H1063 0.962 . S
C1050 H1064 0.960 . S
C1051 C1048 1.511 . S
C1051 H1065 0.961 . S
C1051 H1066 0.961 . S
C1051 H1067 0.961 . S
C1052 C1053 1.370 . S
C1052 C1054 1.363 . S
C1052 H1068 0.931 . S
C1053 C1052 1.370 . S
C1053 C1057 1.408 . S
C1054 C1052 1.363 . S
C1054 C1055 1.370 . S
C1054 C1058 1.524 . S
C1055 C1047 1.503 . S
C1055 C1054 1.370 . S
C1055 C1056 1.403 . S
C1056 C1055 1.403 . S
C1056 C1057 1.404 . S
C1056 C1059 1.539 . S
C1057 C1053 1.408 . S
C1057 C1056 1.404 . S
C1057 H1069 0.930 . S
C1058 C1054 1.524 . S
C1058 H1070 0.956 . S
C1058 H1071 0.961 . S
C1058 H1072 0.961 . S
C1059 C1056 1.539 . S
C1059 H1073 0.958 . S
C1059 H1074 0.961 . S
C1059 H1075 0.960 . S
H1060 C1044 0.931 . S
H1061 C1049 0.929 . S
H1062 C1050 0.960 . S
H1063 C1050 0.962 . S
H1064 C1050 0.960 . S
H1065 C1051 0.961 . S
H1066 C1051 0.961 . S
H1067 C1051 0.961 . S
H1068 C1052 0.931 . S
H1069 C1057 0.930 . S
H1070 C1058 0.956 . S
H1071 C1058 0.961 . S
H1072 C1058 0.961 . S
H1073 C1059 0.958 . S
H1074 C1059 0.961 . S
H1075 C1059 0.960 . S
C1076 C1077 1.391 . S
C1076 C1078 1.394 . S
C1076 H1092 0.931 . S
C1077 C1076 1.391 . S
C1077 C1081 1.376 . S
C1078 C1076 1.394 . S
C1078 C1079 1.369 . S
C1078 C1082 1.531 . S
C1079 C1078 1.369 . S
C1079 C1080 1.410 . S
C1079 C1087 1.503 . S
C1080 C1079 1.410 . S
C1080 C1081 1.392 . S
C1080 C1083 1.511 . S
C1081 C1077 1.376 . S
C1081 C1080 1.392 . S
C1081 H1093 0.929 . S
C1082 C1078 1.531 . S
C1082 H1094 0.960 . S
C1082 H1095 0.962 . S
C1082 H1096 0.960 . S
C1083 C1080 1.511 . S
C1083 H1097 0.961 . S
C1083 H1098 0.961 . S
C1083 H1099 0.961 . S
C1084 C1085 1.370 . S
C1084 C1086 1.363 . S
C1084 H1100 0.931 . S
C1085 C1084 1.370 . S
C1085 C1089 1.408 . S
C1086 C1084 1.363 . S
C1086 C1087 1.370 . S
C1086 C1090 1.524 . S
C1087 C1079 1.503 . S
C1087 C1086 1.370 . S
C1087 C1088 1.403 . S
C1088 C1087 1.403 . S
C1088 C1089 1.404 . S
C1088 C1091 1.539 . S
C1089 C1085 1.408 . S
C1089 C1088 1.404 . S
C1089 H1101 0.930 . S
C1090 C1086 1.524 . S
C1090 H1102 0.956 . S
C1090 H1103 0.961 . S
C1090 H1104 0.961 . S
C1091 C1088 1.539 . S
C1091 H1105 0.958 . S
C1091 H1106 0.961 . S
C1091 H1107 0.960 . S
H1092 C1076 0.931 . S
H1093 C1081 0.929 . S
H1094 C1082 0.960 . S
H1095 C1082 0.962 . S
H1096 C1082 0.960 . S
H1097 C1083 0.961 . S
H1098 C1083 0.961 . S
H1099 C1083 0.961 . S
H1100 C1084 0.931 . S
H1101 C1089 0.930 . S
H1102 C1090 0.956 . S
H1103 C1090 0.961 . S
H1104 C1090 0.961 . S
H1105 C1091 0.958 . S
H1106 C1091 0.961 . S
H1107 C1091 0.960 . S
C1108 C1109 1.391 . S
C1108 C1110 1.394 . S
C1108 H1124 0.931 . S
C1109 C1108 1.391 . S
C1109 C1113 1.376 . S
C1110 C1108 1.394 . S
C1110 C1111 1.369 . S
C1110 C1114 1.531 . S
C1111 C1110 1.369 . S
C1111 C1112 1.410 . S
C1111 C1119 1.503 . S
C1112 C1111 1.410 . S
C1112 C1113 1.392 . S
C1112 C1115 1.511 . S
C1113 C1109 1.376 . S
C1113 C1112 1.392 . S
C1113 H1125 0.929 . S
C1114 C1110 1.531 . S
C1114 H1126 0.960 . S
C1114 H1127 0.962 . S
C1114 H1128 0.960 . S
C1115 C1112 1.511 . S
C1115 H1129 0.961 . S
C1115 H1130 0.961 . S
C1115 H1131 0.961 . S
C1116 C1117 1.370 . S
C1116 C1118 1.363 . S
C1116 H1132 0.931 . S
C1117 C1116 1.370 . S
C1117 C1121 1.408 . S
C1118 C1116 1.363 . S
C1118 C1119 1.370 . S
C1118 C1122 1.524 . S
C1119 C1111 1.503 . S
C1119 C1118 1.370 . S
C1119 C1120 1.403 . S
C1120 C1119 1.403 . S
C1120 C1121 1.404 . S
C1120 C1123 1.539 . S
C1121 C1117 1.408 . S
C1121 C1120 1.404 . S
C1121 H1133 0.930 . S
C1122 C1118 1.524 . S
C1122 H1134 0.956 . S
C1122 H1135 0.961 . S
C1122 H1136 0.961 . S
C1123 C1120 1.539 . S
C1123 H1137 0.958 . S
C1123 H1138 0.961 . S
C1123 H1139 0.960 . S
H1124 C1108 0.931 . S
H1125 C1113 0.929 . S
H1126 C1114 0.960 . S
H1127 C1114 0.962 . S
H1128 C1114 0.960 . S
H1129 C1115 0.961 . S
H1130 C1115 0.961 . S
H1131 C1115 0.961 . S
H1132 C1116 0.931 . S
H1133 C1121 0.930 . S
H1134 C1122 0.956 . S
H1135 C1122 0.961 . S
H1136 C1122 0.961 . S
H1137 C1123 0.958 . S
H1138 C1123 0.961 . S
H1139 C1123 0.960 . S
C1140 C1141 1.391 . S
C1140 C1142 1.394 . S
C1140 H1156 0.931 . S
C1141 C1140 1.391 . S
C1141 C1145 1.376 . S
C1142 C1140 1.394 . S
C1142 C1143 1.369 . S
C1142 C1146 1.531 . S
C1143 C1142 1.369 . S
C1143 C1144 1.410 . S
C1143 C1151 1.503 . S
C1144 C1143 1.410 . S
C1144 C1145 1.392 . S
C1144 C1147 1.511 . S
C1145 C1141 1.376 . S
C1145 C1144 1.392 . S
C1145 H1157 0.929 . S
C1146 C1142 1.531 . S
C1146 H1158 0.960 . S
C1146 H1159 0.962 . S
C1146 H1160 0.960 . S
C1147 C1144 1.511 . S
C1147 H1161 0.961 . S
C1147 H1162 0.961 . S
C1147 H1163 0.961 . S
C1148 C1149 1.370 . S
C1148 C1150 1.363 . S
C1148 H1164 0.931 . S
C1149 C1148 1.370 . S
C1149 C1153 1.408 . S
C1150 C1148 1.363 . S
C1150 C1151 1.370 . S
C1150 C1154 1.524 . S
C1151 C1143 1.503 . S
C1151 C1150 1.370 . S
C1151 C1152 1.403 . S
C1152 C1151 1.403 . S
C1152 C1153 1.404 . S
C1152 C1155 1.539 . S
C1153 C1149 1.408 . S
C1153 C1152 1.404 . S
C1153 H1165 0.930 . S
C1154 C1150 1.524 . S
C1154 H1166 0.956 . S
C1154 H1167 0.961 . S
C1154 H1168 0.961 . S
C1155 C1152 1.539 . S
C1155 H1169 0.958 . S
C1155 H1170 0.961 . S
C1155 H1171 0.960 . S
H1156 C1140 0.931 . S
H1157 C1145 0.929 . S
H1158 C1146 0.960 . S
H1159 C1146 0.962 . S
H1160 C1146 0.960 . S
H1161 C1147 0.961 . S
H1162 C1147 0.961 . S
H1163 C1147 0.961 . S
H1164 C1148 0.931 . S
H1165 C1153 0.930 . S
H1166 C1154 0.956 . S
H1167 C1154 0.961 . S
H1168 C1154 0.961 . S
H1169 C1155 0.958 . S
H1170 C1155 0.961 . S
H1171 C1155 0.960 . S
C1172 C1173 1.391 . S
C1172 C1174 1.394 . S
C1172 H1188 0.931 . S
C1173 C1172 1.391 . S
C1173 C1177 1.376 . S
C1174 C1172 1.394 . S
C1174 C1175 1.369 . S
C1174 C1178 1.531 . S
C1175 C1174 1.369 . S
C1175 C1176 1.410 . S
C1175 C1183 1.503 . S
C1176 C1175 1.410 . S
C1176 C1177 1.392 . S
C1176 C1179 1.511 . S
C1177 C1173 1.376 . S
C1177 C1176 1.392 . S
C1177 H1189 0.929 . S
C1178 C1174 1.531 . S
C1178 H1190 0.960 . S
C1178 H1191 0.962 . S
C1178 H1192 0.960 . S
C1179 C1176 1.511 . S
C1179 H1193 0.961 . S
C1179 H1194 0.961 . S
C1179 H1195 0.961 . S
C1180 C1181 1.370 . S
C1180 C1182 1.363 . S
C1180 H1196 0.931 . S
C1181 C1180 1.370 . S
C1181 C1185 1.408 . S
C1182 C1180 1.363 . S
C1182 C1183 1.370 . S
C1182 C1186 1.524 . S
C1183 C1175 1.503 . S
C1183 C1182 1.370 . S
C1183 C1184 1.403 . S
C1184 C1183 1.403 . S
C1184 C1185 1.404 . S
C1184 C1187 1.539 . S
C1185 C1181 1.408 . S
C1185 C1184 1.404 . S
C1185 H1197 0.930 . S
C1186 C1182 1.524 . S
C1186 H1198 0.956 . S
C1186 H1199 0.961 . S
C1186 H1200 0.961 . S
C1187 C1184 1.539 . S
C1187 H1201 0.958 . S
C1187 H1202 0.961 . S
C1187 H1203 0.960 . S
H1188 C1172 0.931 . S
H1189 C1177 0.929 . S
H1190 C1178 0.960 . S
H1191 C1178 0.962 . S
H1192 C1178 0.960 . S
H1193 C1179 0.961 . S
H1194 C1179 0.961 . S
H1195 C1179 0.961 . S
H1196 C1180 0.931 . S
H1197 C1185 0.930 . S
H1198 C1186 0.956 . S
H1199 C1186 0.961 . S
H1200 C1186 0.961 . S
H1201 C1187 0.958 . S
H1202 C1187 0.961 . S
H1203 C1187 0.960 . S
C1204 C1205 1.391 . S
C1204 C1206 1.394 . S
C1204 H1220 0.931 . S
C1205 C1204 1.391 . S
C1205 C1209 1.376 . S
C1206 C1204 1.394 . S
C1206 C1207 1.369 . S
C1206 C1210 1.531 . S
C1207 C1206 1.369 . S
C1207 C1208 1.410 . S
C1207 C1215 1.503 . S
C1208 C1207 1.410 . S
C1208 C1209 1.392 . S
C1208 C1211 1.511 . S
C1209 C1205 1.376 . S
C1209 C1208 1.392 . S
C1209 H1221 0.929 . S
C1210 C1206 1.531 . S
C1210 H1222 0.960 . S
C1210 H1223 0.962 . S
C1210 H1224 0.960 . S
C1211 C1208 1.511 . S
C1211 H1225 0.961 . S
C1211 H1226 0.961 . S
C1211 H1227 0.961 . S
C1212 C1213 1.370 . S
C1212 C1214 1.363 . S
C1212 H1228 0.931 . S
C1213 C1212 1.370 . S
C1213 C1217 1.408 . S
C1214 C1212 1.363 . S
C1214 C1215 1.370 . S
C1214 C1218 1.524 . S
C1215 C1207 1.503 . S
C1215 C1214 1.370 . S
C1215 C1216 1.403 . S
C1216 C1215 1.403 . S
C1216 C1217 1.404 . S
C1216 C1219 1.539 . S
C1217 C1213 1.408 . S
C1217 C1216 1.404 . S
C1217 H1229 0.930 . S
C1218 C1214 1.524 . S
C1218 H1230 0.956 . S
C1218 H1231 0.961 . S
C1218 H1232 0.961 . S
C1219 C1216 1.539 . S
C1219 H1233 0.958 . S
C1219 H1234 0.961 . S
C1219 H1235 0.960 . S
H1220 C1204 0.931 . S
H1221 C1209 0.929 . S
H1222 C1210 0.960 . S
H1223 C1210 0.962 . S
H1224 C1210 0.960 . S
H1225 C1211 0.961 . S
H1226 C1211 0.961 . S
H1227 C1211 0.961 . S
H1228 C1212 0.931 . S
H1229 C1217 0.930 . S
H1230 C1218 0.956 . S
H1231 C1218 0.961 . S
H1232 C1218 0.961 . S
H1233 C1219 0.958 . S
H1234 C1219 0.961 . S
H1235 C1219 0.960 . S
C1236 C1237 1.391 . S
C1236 C1238 1.394 . S
C1236 H1252 0.931 . S
C1237 C1236 1.391 . S
C1237 C1241 1.376 . S
C1238 C1236 1.394 . S
C1238 C1239 1.369 . S
C1238 C1242 1.531 1_565 S
C1239 C1238 1.369 . S
C1239 C1240 1.410 . S
C1239 C1247 1.503 1_565 S
C1240 C1239 1.410 . S
C1240 C1241 1.392 . S
C1240 C1243 1.511 . S
C1241 C1237 1.376 . S
C1241 C1240 1.392 . S
C1241 H1253 0.929 . S
C1242 C1238 1.531 1_545 S
C1242 H1254 0.960 . S
C1242 H1255 0.962 . S
C1242 H1256 0.960 1_545 S
C1243 C1240 1.511 . S
C1243 H1257 0.961 . S
C1243 H1258 0.961 . S
C1243 H1259 0.961 . S
C1244 C1245 1.370 . S
C1244 C1246 1.363 . S
C1244 H1260 0.931 . S
C1245 C1244 1.370 . S
C1245 C1249 1.408 . S
C1246 C1244 1.363 . S
C1246 C1247 1.370 . S
C1246 C1250 1.524 . S
C1247 C1239 1.503 1_545 S
C1247 C1246 1.370 . S
C1247 C1248 1.403 . S
C1248 C1247 1.403 . S
C1248 C1249 1.404 . S
C1248 C1251 1.539 . S
C1249 C1245 1.408 . S
C1249 C1248 1.404 . S
C1249 H1261 0.930 . S
C1250 C1246 1.524 . S
C1250 H1262 0.956 . S
C1250 H1263 0.961 1_545 S
C1250 H1264 0.961 . S
C1251 C1248 1.539 . S
C1251 H1265 0.958 . S
C1251 H1266 0.961 . S
C1251 H1267 0.960 . S
H1252 C1236 0.931 . S
H1253 C1241 0.929 . S
H1254 C1242 0.960 . S
H1255 C1242 0.962 . S
H1256 C1242 0.960 1_565 S
H1257 C1243 0.961 . S
H1258 C1243 0.961 . S
H1259 C1243 0.961 . S
H1260 C1244 0.931 . S
H1261 C1249 0.930 . S
H1262 C1250 0.956 . S
H1263 C1250 0.961 1_565 S
H1264 C1250 0.961 . S
H1265 C1251 0.958 . S
H1266 C1251 0.961 . S
H1267 C1251 0.960 . S
C1268 C1269 1.391 . S
C1268 C1270 1.394 . S
C1268 H1284 0.931 . S
C1269 C1268 1.391 . S
C1269 C1273 1.376 . S
C1270 C1268 1.394 . S
C1270 C1271 1.369 . S
C1270 C1274 1.531 1_655 S
C1271 C1270 1.369 . S
C1271 C1272 1.410 . S
C1271 C1279 1.503 1_655 S
C1272 C1271 1.410 . S
C1272 C1273 1.392 . S
C1272 C1275 1.511 . S
C1273 C1269 1.376 . S
C1273 C1272 1.392 . S
C1273 H1285 0.929 . S
C1274 C1270 1.531 1_455 S
C1274 H1286 0.960 . S
C1274 H1287 0.962 . S
C1274 H1288 0.960 1_455 S
C1275 C1272 1.511 . S
C1275 H1289 0.961 . S
C1275 H1290 0.961 . S
C1275 H1291 0.961 . S
C1276 C1277 1.370 . S
C1276 C1278 1.363 . S
C1276 H1292 0.931 . S
C1277 C1276 1.370 . S
C1277 C1281 1.408 . S
C1278 C1276 1.363 . S
C1278 C1279 1.370 . S
C1278 C1282 1.524 . S
C1279 C1271 1.503 1_455 S
C1279 C1278 1.370 . S
C1279 C1280 1.403 . S
C1280 C1279 1.403 . S
C1280 C1281 1.404 . S
C1280 C1283 1.539 . S
C1281 C1277 1.408 . S
C1281 C1280 1.404 . S
C1281 H1293 0.930 . S
C1282 C1278 1.524 . S
C1282 H1294 0.956 . S
C1282 H1295 0.961 . S
C1282 H1296 0.961 . S
C1283 C1280 1.539 . S
C1283 H1297 0.958 . S
C1283 H1298 0.961 . S
C1283 H1299 0.960 1_455 S
H1284 C1268 0.931 . S
H1285 C1273 0.929 . S
H1286 C1274 0.960 . S
H1287 C1274 0.962 . S
H1288 C1274 0.960 1_655 S
H1289 C1275 0.961 . S
H1290 C1275 0.961 . S
H1291 C1275 0.961 . S
H1292 C1276 0.931 . S
H1293 C1281 0.930 . S
H1294 C1282 0.956 . S
H1295 C1282 0.961 . S
H1296 C1282 0.961 . S
H1297 C1283 0.958 . S
H1298 C1283 0.961 . S
H1299 C1283 0.960 1_655 S
C1300 C1301 1.391 . S
C1300 C1302 1.394 . S
C1300 H1316 0.931 . S
C1301 C1300 1.391 . S
C1301 C1305 1.376 . S
C1302 C1300 1.394 . S
C1302 C1303 1.369 . S
C1302 C1306 1.531 . S
C1303 C1302 1.369 . S
C1303 C1304 1.410 . S
C1303 C1311 1.503 . S
C1304 C1303 1.410 . S
C1304 C1305 1.392 . S
C1304 C1307 1.511 . S
C1305 C1301 1.376 . S
C1305 C1304 1.392 . S
C1305 H1317 0.929 . S
C1306 C1302 1.531 . S
C1306 H1318 0.960 . S
C1306 H1319 0.962 . S
C1306 H1320 0.960 . S
C1307 C1304 1.511 . S
C1307 H1321 0.961 . S
C1307 H1322 0.961 . S
C1307 H1323 0.961 . S
C1308 C1309 1.370 . S
C1308 C1310 1.363 . S
C1308 H1324 0.931 . S
C1309 C1308 1.370 . S
C1309 C1313 1.408 . S
C1310 C1308 1.363 . S
C1310 C1311 1.370 . S
C1310 C1314 1.524 . S
C1311 C1303 1.503 . S
C1311 C1310 1.370 . S
C1311 C1312 1.403 . S
C1312 C1311 1.403 . S
C1312 C1313 1.404 . S
C1312 C1315 1.539 . S
C1313 C1309 1.408 . S
C1313 C1312 1.404 . S
C1313 H1325 0.930 . S
C1314 C1310 1.524 . S
C1314 H1326 0.956 . S
C1314 H1327 0.961 . S
C1314 H1328 0.961 . S
C1315 C1312 1.539 . S
C1315 H1329 0.958 . S
C1315 H1330 0.961 . S
C1315 H1331 0.960 . S
H1316 C1300 0.931 . S
H1317 C1305 0.929 . S
H1318 C1306 0.960 . S
H1319 C1306 0.962 . S
H1320 C1306 0.960 . S
H1321 C1307 0.961 . S
H1322 C1307 0.961 . S
H1323 C1307 0.961 . S
H1324 C1308 0.931 . S
H1325 C1313 0.930 . S
H1326 C1314 0.956 . S
H1327 C1314 0.961 . S
H1328 C1314 0.961 . S
H1329 C1315 0.958 . S
H1330 C1315 0.961 . S
H1331 C1315 0.960 . S
C1332 C1333 1.391 . S
C1332 C1334 1.394 . S
C1332 H1348 0.931 . S
C1333 C1332 1.391 . S
C1333 C1337 1.376 . S
C1334 C1332 1.394 . S
C1334 C1335 1.369 . S
C1334 C1338 1.531 . S
C1335 C1334 1.369 . S
C1335 C1336 1.410 . S
C1335 C1343 1.503 . S
C1336 C1335 1.410 . S
C1336 C1337 1.392 . S
C1336 C1339 1.511 . S
C1337 C1333 1.376 . S
C1337 C1336 1.392 . S
C1337 H1349 0.929 . S
C1338 C1334 1.531 . S
C1338 H1350 0.960 . S
C1338 H1351 0.962 . S
C1338 H1352 0.960 . S
C1339 C1336 1.511 . S
C1339 H1353 0.961 . S
C1339 H1354 0.961 . S
C1339 H1355 0.961 . S
C1340 C1341 1.370 . S
C1340 C1342 1.363 . S
C1340 H1356 0.931 . S
C1341 C1340 1.370 . S
C1341 C1345 1.408 . S
C1342 C1340 1.363 . S
C1342 C1343 1.370 . S
C1342 C1346 1.524 . S
C1343 C1335 1.503 . S
C1343 C1342 1.370 . S
C1343 C1344 1.403 . S
C1344 C1343 1.403 . S
C1344 C1345 1.404 . S
C1344 C1347 1.539 . S
C1345 C1341 1.408 . S
C1345 C1344 1.404 . S
C1345 H1357 0.930 . S
C1346 C1342 1.524 . S
C1346 H1358 0.956 . S
C1346 H1359 0.961 . S
C1346 H1360 0.961 . S
C1347 C1344 1.539 . S
C1347 H1361 0.958 . S
C1347 H1362 0.961 . S
C1347 H1363 0.960 . S
H1348 C1332 0.931 . S
H1349 C1337 0.929 . S
H1350 C1338 0.960 . S
H1351 C1338 0.962 . S
H1352 C1338 0.960 . S
H1353 C1339 0.961 . S
H1354 C1339 0.961 . S
H1355 C1339 0.961 . S
H1356 C1340 0.931 . S
H1357 C1345 0.930 . S
H1358 C1346 0.956 . S
H1359 C1346 0.961 . S
H1360 C1346 0.961 . S
H1361 C1347 0.958 . S
H1362 C1347 0.961 . S
H1363 C1347 0.960 . S
C1364 C1365 1.391 . S
C1364 C1366 1.394 . S
C1364 H1380 0.931 . S
C1365 C1364 1.391 . S
C1365 C1369 1.376 . S
C1366 C1364 1.394 . S
C1366 C1367 1.369 . S
C1366 C1370 1.531 . S
C1367 C1366 1.369 . S
C1367 C1368 1.410 . S
C1367 C1375 1.503 . S
C1368 C1367 1.410 . S
C1368 C1369 1.392 . S
C1368 C1371 1.511 . S
C1369 C1365 1.376 . S
C1369 C1368 1.392 . S
C1369 H1381 0.929 . S
C1370 C1366 1.531 . S
C1370 H1382 0.960 . S
C1370 H1383 0.962 . S
C1370 H1384 0.960 . S
C1371 C1368 1.511 . S
C1371 H1385 0.961 . S
C1371 H1386 0.961 . S
C1371 H1387 0.961 . S
C1372 C1373 1.370 . S
C1372 C1374 1.363 . S
C1372 H1388 0.931 . S
C1373 C1372 1.370 . S
C1373 C1377 1.408 . S
C1374 C1372 1.363 . S
C1374 C1375 1.370 . S
C1374 C1378 1.524 . S
C1375 C1367 1.503 . S
C1375 C1374 1.370 . S
C1375 C1376 1.403 . S
C1376 C1375 1.403 . S
C1376 C1377 1.404 . S
C1376 C1379 1.539 . S
C1377 C1373 1.408 . S
C1377 C1376 1.404 . S
C1377 H1389 0.930 . S
C1378 C1374 1.524 . S
C1378 H1390 0.956 . S
C1378 H1391 0.961 . S
C1378 H1392 0.961 . S
C1379 C1376 1.539 . S
C1379 H1393 0.958 . S
C1379 H1394 0.961 . S
C1379 H1395 0.960 . S
H1380 C1364 0.931 . S
H1381 C1369 0.929 . S
H1382 C1370 0.960 . S
H1383 C1370 0.962 . S
H1384 C1370 0.960 . S
H1385 C1371 0.961 . S
H1386 C1371 0.961 . S
H1387 C1371 0.961 . S
H1388 C1372 0.931 . S
H1389 C1377 0.930 . S
H1390 C1378 0.956 . S
H1391 C1378 0.961 . S
H1392 C1378 0.961 . S
H1393 C1379 0.958 . S
H1394 C1379 0.961 . S
H1395 C1379 0.960 . S
C1396 C1397 1.391 . S
C1396 C1398 1.394 . S
C1396 H1412 0.904 1_565 S
C1397 C1396 1.391 . S
C1397 C1401 1.376 . S
C1398 C1396 1.394 . S
C1398 C1399 1.369 . S
C1398 C1402 1.531 . S
C1399 C1398 1.369 . S
C1399 C1400 1.410 . S
C1399 C1407 1.503 . S
C1400 C1399 1.410 . S
C1400 C1401 1.392 . S
C1400 C1403 1.511 . S
C1401 C1397 1.376 . S
C1401 C1400 1.392 . S
C1401 H1413 0.929 . S
C1402 C1398 1.531 . S
C1402 H1414 0.960 . S
C1402 H1415 0.962 . S
C1402 H1416 0.960 1_565 S
C1403 C1400 1.511 . S
C1403 H1417 0.961 . S
C1403 H1418 0.961 . S
C1403 H1419 0.961 . S
C1404 C1405 1.370 . S
C1404 C1406 1.363 . S
C1404 H1420 0.931 . S
C1405 C1404 1.370 . S
C1405 C1409 1.408 . S
C1406 C1404 1.363 . S
C1406 C1407 1.370 . S
C1406 C1410 1.524 . S
C1407 C1399 1.503 . S
C1407 C1406 1.370 . S
C1407 C1408 1.403 . S
C1408 C1407 1.403 . S
C1408 C1409 1.404 . S
C1408 C1411 1.539 . S
C1409 C1405 1.408 . S
C1409 C1408 1.404 . S
C1409 H1421 0.930 . S
C1410 C1406 1.524 . S
C1410 H1422 0.956 . S
C1410 H1423 0.961 . S
C1410 H1424 0.961 . S
C1411 C1408 1.539 . S
C1411 H1425 0.958 . S
C1411 H1426 0.961 . S
C1411 H1427 0.960 . S
H1412 C1396 0.904 1_545 S
H1413 C1401 0.929 . S
H1414 C1402 0.960 . S
H1415 C1402 0.962 . S
H1416 C1402 0.960 1_545 S
H1417 C1403 0.961 . S
H1418 C1403 0.961 . S
H1419 C1403 0.961 . S
H1420 C1404 0.931 . S
H1421 C1409 0.930 . S
H1422 C1410 0.956 . S
H1423 C1410 0.961 . S
H1424 C1410 0.961 . S
H1425 C1411 0.958 . S
H1426 C1411 0.961 . S
H1427 C1411 0.960 . S
C1428 C1429 1.391 . S
C1428 C1430 1.394 . S
C1428 H1444 0.931 . S
C1429 C1428 1.391 . S
C1429 C1433 1.376 . S
C1430 C1428 1.394 . S
C1430 C1431 1.369 . S
C1430 C1434 1.531 . S
C1431 C1430 1.369 . S
C1431 C1432 1.410 . S
C1431 C1439 1.503 . S
C1432 C1431 1.410 . S
C1432 C1433 1.392 . S
C1432 C1435 1.511 . S
C1433 C1429 1.376 . S
C1433 C1432 1.392 . S
C1433 H1445 0.929 . S
C1434 C1430 1.531 . S
C1434 H1446 0.960 . S
C1434 H1447 0.962 . S
C1434 H1448 0.960 . S
C1435 C1432 1.511 . S
C1435 H1449 0.961 . S
C1435 H1450 0.961 . S
C1435 H1451 0.961 . S
C1436 C1437 1.370 . S
C1436 C1438 1.363 . S
C1436 H1452 0.931 . S
C1437 C1436 1.370 . S
C1437 C1441 1.408 . S
C1438 C1436 1.363 . S
C1438 C1439 1.370 . S
C1438 C1442 1.524 . S
C1439 C1431 1.503 . S
C1439 C1438 1.370 . S
C1439 C1440 1.403 . S
C1440 C1439 1.403 . S
C1440 C1441 1.404 . S
C1440 C1443 1.539 . S
C1441 C1437 1.408 . S
C1441 C1440 1.404 . S
C1441 H1453 0.930 . S
C1442 C1438 1.524 . S
C1442 H1454 0.956 . S
C1442 H1455 0.961 . S
C1442 H1456 0.961 . S
C1443 C1440 1.539 . S
C1443 H1457 0.958 . S
C1443 H1458 0.961 . S
C1443 H1459 0.960 . S
H1444 C1428 0.931 . S
H1445 C1433 0.929 . S
H1446 C1434 0.960 . S
H1447 C1434 0.962 . S
H1448 C1434 0.960 . S
H1449 C1435 0.961 . S
H1450 C1435 0.961 . S
H1451 C1435 0.961 . S
H1452 C1436 0.931 . S
H1453 C1441 0.930 . S
H1454 C1442 0.956 . S
H1455 C1442 0.961 . S
H1456 C1442 0.961 . S
H1457 C1443 0.958 . S
H1458 C1443 0.961 . S
H1459 C1443 0.960 . S
C1460 C1461 1.391 . S
C1460 C1462 1.394 . S
C1460 H1476 0.931 . S
C1461 C1460 1.391 . S
C1461 C1465 1.376 . S
C1462 C1460 1.394 . S
C1462 C1463 1.369 . S
C1462 C1466 1.531 . S
C1463 C1462 1.369 . S
C1463 C1464 1.410 . S
C1463 C1471 1.503 . S
C1464 C1463 1.410 . S
C1464 C1465 1.392 . S
C1464 C1467 1.511 . S
C1465 C1461 1.376 . S
C1465 C1464 1.392 . S
C1465 H1477 0.929 . S
C1466 C1462 1.531 . S
C1466 H1478 0.960 . S
C1466 H1479 0.962 . S
C1466 H1480 0.960 . S
C1467 C1464 1.511 . S
C1467 H1481 0.961 . S
C1467 H1482 0.961 . S
C1467 H1483 0.961 . S
C1468 C1469 1.370 . S
C1468 C1470 1.363 . S
C1468 H1484 0.931 . S
C1469 C1468 1.370 . S
C1469 C1473 1.408 . S
C1470 C1468 1.363 . S
C1470 C1471 1.370 . S
C1470 C1474 1.524 . S
C1471 C1463 1.503 . S
C1471 C1470 1.370 . S
C1471 C1472 1.403 . S
C1472 C1471 1.403 . S
C1472 C1473 1.404 . S
C1472 C1475 1.539 . S
C1473 C1469 1.408 . S
C1473 C1472 1.404 . S
C1473 H1485 0.930 . S
C1474 C1470 1.524 . S
C1474 H1486 0.956 . S
C1474 H1487 0.961 . S
C1474 H1488 0.961 . S
C1475 C1472 1.539 . S
C1475 H1489 0.958 . S
C1475 H1490 0.961 . S
C1475 H1491 0.960 . S
H1476 C1460 0.931 . S
H1477 C1465 0.929 . S
H1478 C1466 0.960 . S
H1479 C1466 0.962 . S
H1480 C1466 0.960 . S
H1481 C1467 0.961 . S
H1482 C1467 0.961 . S
H1483 C1467 0.961 . S
H1484 C1468 0.931 . S
H1485 C1473 0.930 . S
H1486 C1474 0.956 . S
H1487 C1474 0.961 . S
H1488 C1474 0.961 . S
H1489 C1475 0.958 . S
H1490 C1475 0.961 . S
H1491 C1475 0.960 . S
C1492 C1493 1.391 . S
C1492 C1494 1.394 . S
C1492 H1508 0.931 . S
C1493 C1492 1.391 . S
C1493 C1497 1.376 . S
C1494 C1492 1.394 . S
C1494 C1495 1.369 . S
C1494 C1498 1.531 . S
C1495 C1494 1.369 . S
C1495 C1496 1.410 . S
C1495 C1503 1.503 . S
C1496 C1495 1.410 . S
C1496 C1497 1.392 . S
C1496 C1499 1.511 . S
C1497 C1493 1.376 . S
C1497 C1496 1.392 . S
C1497 H1509 0.929 . S
C1498 C1494 1.531 . S
C1498 H1510 0.960 . S
C1498 H1511 0.962 . S
C1498 H1512 0.960 . S
C1499 C1496 1.511 . S
C1499 H1513 0.961 . S
C1499 H1514 0.961 . S
C1499 H1515 0.961 . S
C1500 C1501 1.370 . S
C1500 C1502 1.363 . S
C1500 H1516 0.931 . S
C1501 C1500 1.370 . S
C1501 C1505 1.408 . S
C1502 C1500 1.363 . S
C1502 C1503 1.370 . S
C1502 C1506 1.524 . S
C1503 C1495 1.503 . S
C1503 C1502 1.370 . S
C1503 C1504 1.403 . S
C1504 C1503 1.403 . S
C1504 C1505 1.404 . S
C1504 C1507 1.539 . S
C1505 C1501 1.408 . S
C1505 C1504 1.404 . S
C1505 H1517 0.930 . S
C1506 C1502 1.524 . S
C1506 H1518 0.956 . S
C1506 H1519 0.961 . S
C1506 H1520 0.961 . S
C1507 C1504 1.539 . S
C1507 H1521 0.958 . S
C1507 H1522 0.961 . S
C1507 H1523 0.960 . S
H1508 C1492 0.931 . S
H1509 C1497 0.929 . S
H1510 C1498 0.960 . S
H1511 C1498 0.962 . S
H1512 C1498 0.960 . S
H1513 C1499 0.961 . S
H1514 C1499 0.961 . S
H1515 C1499 0.961 . S
H1516 C1500 0.931 . S
H1517 C1505 0.930 . S
H1518 C1506 0.956 . S
H1519 C1506 0.961 . S
H1520 C1506 0.961 . S
H1521 C1507 0.958 . S
H1522 C1507 0.961 . S
H1523 C1507 0.960 . S
C1524 C1525 1.391 . S
C1524 C1526 1.394 . S
C1524 H1540 0.931 . S
C1525 C1524 1.391 . S
C1525 C1529 1.376 . S
C1526 C1524 1.394 . S
C1526 C1527 1.369 . S
C1526 C1530 1.531 . S
C1527 C1526 1.369 . S
C1527 C1528 1.410 . S
C1527 C1535 1.503 . S
C1528 C1527 1.410 . S
C1528 C1529 1.392 . S
C1528 C1531 1.511 . S
C1529 C1525 1.376 . S
C1529 C1528 1.392 . S
C1529 H1541 0.929 . S
C1530 C1526 1.531 . S
C1530 H1542 0.960 . S
C1530 H1543 0.962 . S
C1530 H1544 0.960 . S
C1531 C1528 1.511 . S
C1531 H1545 0.961 . S
C1531 H1546 0.961 . S
C1531 H1547 0.961 . S
C1532 C1533 1.370 . S
C1532 C1534 1.363 . S
C1532 H1548 0.931 . S
C1533 C1532 1.370 . S
C1533 C1537 1.408 . S
C1534 C1532 1.363 . S
C1534 C1535 1.370 . S
C1534 C1538 1.524 . S
C1535 C1527 1.503 . S
C1535 C1534 1.370 . S
C1535 C1536 1.403 . S
C1536 C1535 1.403 . S
C1536 C1537 1.404 . S
C1536 C1539 1.539 . S
C1537 C1533 1.408 . S
C1537 C1536 1.404 . S
C1537 H1549 0.930 . S
C1538 C1534 1.524 . S
C1538 H1550 0.956 . S
C1538 H1551 0.961 . S
C1538 H1552 0.961 . S
C1539 C1536 1.539 . S
C1539 H1553 0.958 . S
C1539 H1554 0.961 . S
C1539 H1555 0.960 . S
H1540 C1524 0.931 . S
H1541 C1529 0.929 . S
H1542 C1530 0.960 . S
H1543 C1530 0.962 . S
H1544 C1530 0.960 . S
H1545 C1531 0.961 . S
H1546 C1531 0.961 . S
H1547 C1531 0.961 . S
H1548 C1532 0.931 . S
H1549 C1537 0.930 . S
H1550 C1538 0.956 . S
H1551 C1538 0.961 . S
H1552 C1538 0.961 . S
H1553 C1539 0.958 . S
H1554 C1539 0.961 . S
H1555 C1539 0.960 . S
C1556 C1557 1.391 . S
C1556 C1558 1.394 . S
C1556 H1572 0.931 . S
C1557 C1556 1.391 . S
C1557 C1561 1.376 . S
C1558 C1556 1.394 . S
C1558 C1559 1.369 . S
C1558 C1562 1.531 . S
C1559 C1558 1.369 . S
C1559 C1560 1.410 . S
C1559 C1567 1.503 1_565 S
C1560 C1559 1.410 . S
C1560 C1561 1.392 . S
C1560 C1563 1.511 1_565 S
C1561 C1557 1.376 . S
C1561 C1560 1.392 . S
C1561 H1573 0.929 . S
C1562 C1558 1.531 . S
C1562 H1574 0.960 . S
C1562 H1575 0.962 . S
C1562 H1576 0.960 . S
C1563 C1560 1.511 1_545 S
C1563 H1577 0.961 . S
C1563 H1578 0.961 . S
C1563 H1579 0.961 1_545 S
C1564 C1565 1.370 . S
C1564 C1566 1.363 . S
C1564 H1580 0.931 . S
C1565 C1564 1.370 . S
C1565 C1569 1.408 . S
C1566 C1564 1.363 . S
C1566 C1567 1.370 . S
C1566 C1570 1.524 . S
C1567 C1559 1.503 1_545 S
C1567 C1566 1.370 . S
C1567 C1568 1.403 . S
C1568 C1567 1.403 . S
C1568 C1569 1.404 . S
C1568 C1571 1.539 1_545 S
C1569 C1565 1.408 . S
C1569 C1568 1.404 . S
C1569 H1581 0.930 . S
C1570 C1566 1.524 . S
C1570 H1582 0.956 . S
C1570 H1583 0.961 . S
C1570 H1584 0.961 . S
C1571 C1568 1.539 1_565 S
C1571 H1585 0.958 . S
C1571 H1586 0.961 . S
C1571 H1587 0.960 . S
H1572 C1556 0.931 . S
H1573 C1561 0.929 . S
H1574 C1562 0.960 . S
H1575 C1562 0.962 . S
H1576 C1562 0.960 . S
H1577 C1563 0.961 . S
H1578 C1563 0.961 . S
H1579 C1563 0.961 1_565 S
H1580 C1564 0.931 . S
H1581 C1569 0.930 . S
H1582 C1570 0.956 . S
H1583 C1570 0.961 . S
H1584 C1570 0.961 . S
H1585 C1571 0.958 . S
H1586 C1571 0.961 . S
H1587 C1571 0.960 . S
C1588 C1589 1.391 . S
C1588 C1590 1.394 1_655 S
C1588 H1604 0.931 . S
C1589 C1588 1.391 . S
C1589 C1593 1.376 . S
C1590 C1588 1.394 1_455 S
C1590 C1591 1.369 1_455 S
C1590 C1594 1.531 . S
C1591 C1590 1.369 1_655 S
C1591 C1592 1.410 . S
C1591 C1599 1.503 1_655 S
C1592 C1591 1.410 . S
C1592 C1593 1.392 . S
C1592 C1595 1.511 . S
C1593 C1589 1.376 . S
C1593 C1592 1.392 . S
C1593 H1605 0.929 . S
C1594 C1590 1.531 . S
C1594 H1606 0.960 . S
C1594 H1607 0.962 . S
C1594 H1608 0.960 . S
C1595 C1592 1.511 . S
C1595 H1609 0.961 . S
C1595 H1610 0.961 . S
C1595 H1611 0.961 . S
C1596 C1597 1.370 . S
C1596 C1598 1.363 . S
C1596 H1612 0.931 . S
C1597 C1596 1.370 . S
C1597 C1601 1.408 . S
C1598 C1596 1.363 . S
C1598 C1599 1.370 . S
C1598 C1602 1.524 . S
C1599 C1591 1.503 1_455 S
C1599 C1598 1.370 . S
C1599 C1600 1.403 . S
C1600 C1599 1.403 . S
C1600 C1601 1.404 . S
C1600 C1603 1.539 . S
C1601 C1597 1.408 . S
C1601 C1600 1.404 . S
C1601 H1613 0.930 . S
C1602 C1598 1.524 . S
C1602 H1614 0.956 . S
C1602 H1615 0.961 . S
C1602 H1616 0.961 . S
C1603 C1600 1.539 . S
C1603 H1617 0.958 . S
C1603 H1618 0.961 . S
C1603 H1619 0.960 1_455 S
H1604 C1588 0.931 . S
H1605 C1593 0.929 . S
H1606 C1594 0.960 . S
H1607 C1594 0.962 . S
H1608 C1594 0.960 . S
H1609 C1595 0.961 . S
H1610 C1595 0.961 . S
H1611 C1595 0.961 . S
H1612 C1596 0.931 . S
H1613 C1601 0.930 . S
H1614 C1602 0.956 . S
H1615 C1602 0.961 . S
H1616 C1602 0.961 . S
H1617 C1603 0.958 . S
H1618 C1603 0.961 . S
H1619 C1603 0.960 1_655 S
C757 C142 1.150 . S
C765 C56 1.361 1_554 S
C789 C226 1.215 . S
C797 C140 1.321 1_554 S
C821 C224 1.355 1_554 S
C829 C58 1.191 . S
C853 C238 1.147 . S
C861 C151 1.337 . S
C885 C235 1.351 . S
C893 C70 1.184 . S
C917 C67 1.346 . S
C925 C154 1.172 . S
C949 C308 1.385 . S
C957 C394 1.162 . S
C981 C478 1.097 . S
C989 C392 1.349 . S
C1013 C476 1.298 . S
C1021 C310 1.172 . S
C1045 C403 1.328 . S
C1053 C490 1.203 . S
C1077 C487 1.338 . S
C1085 C322 1.158 . S
C1109 C406 1.143 . S
C1117 C319 1.321 . S
C1141 C646 1.218 . S
C1149 C560 1.321 . S
C1173 C644 1.381 . S
C1181 C730 1.170 . S
C1205 C728 1.375 . S
C1213 C562 1.177 . S
C1237 C742 1.235 . S
C1245 C655 1.335 . S
C1269 C739 1.329 . S
C1277 C574 1.203 . S
C1301 C571 1.346 . S
C1309 C658 1.171 . S
C1333 C494 2.552 . S
C1341 C63 2.622 . S
C1365 C326 2.555 . S
C1373 C147 2.637 . S
C1397 C231 2.609 . S
C1405 C410 2.567 . S
C1429 C242 2.539 . S
C1437 C567 2.623 . S
C1461 C74 2.555 . S
C1469 C651 2.637 . S
C1493 C735 2.608 . S
C1501 C158 2.556 . S
C1525 C315 2.614 . S
C1533 C746 2.554 . S
C1557 C399 2.623 . S
C1565 C578 2.555 . S
C1589 C662 2.584 . S
C1597 C483 2.636 . S
