# Generated by pormake.
# Topology mer, (4)-cn, num edge types: 1
# Building blocks:
#     Node 0, Type 0, BuildingBlock: ICAMEG_clean_sbu_1, # of connection points: 4
#     Node 1, Type 0, BuildingBlock: ICAMEG_clean_sbu_1, # of connection points: 4
#     Node 2, Type 0, BuildingBlock: ICAMEG_clean_sbu_1, # of connection points: 4
#     Node 3, Type 0, BuildingBlock: ICAMEG_clean_sbu_1, # of connection points: 4
#     Node 4, Type 0, BuildingBlock: ICAMEG_clean_sbu_1, # of connection points: 4
#     Node 5, Type 0, BuildingBlock: ICAMEG_clean_sbu_1, # of connection points: 4
#     Node 6, Type 0, BuildingBlock: ICAMEG_clean_sbu_1, # of connection points: 4
#     Node 7, Type 0, BuildingBlock: ICAMEG_clean_sbu_1, # of connection points: 4
#     Node 8, Type 0, BuildingBlock: ICAMEG_clean_sbu_1, # of connection points: 4
#     Node 9, Type 0, BuildingBlock: ICAMEG_clean_sbu_1, # of connection points: 4
#     Node 10, Type 0, BuildingBlock: ICAMEG_clean_sbu_1, # of connection points: 4
#     Node 11, Type 0, BuildingBlock: ICAMEG_clean_sbu_1, # of connection points: 4
#     Node 12, Type 0, BuildingBlock: ICAMEG_clean_sbu_1, # of connection points: 4
#     Node 13, Type 0, BuildingBlock: ICAMEG_clean_sbu_1, # of connection points: 4
#     Node 14, Type 0, BuildingBlock: ICAMEG_clean_sbu_1, # of connection points: 4
#     Node 15, Type 0, BuildingBlock: ICAMEG_clean_sbu_1, # of connection points: 4
#     Node 16, Type 0, BuildingBlock: ICAMEG_clean_sbu_1, # of connection points: 4
#     Node 17, Type 0, BuildingBlock: ICAMEG_clean_sbu_1, # of connection points: 4
#     Node 18, Type 0, BuildingBlock: ICAMEG_clean_sbu_1, # of connection points: 4
#     Node 19, Type 0, BuildingBlock: ICAMEG_clean_sbu_1, # of connection points: 4
#     Node 20, Type 0, BuildingBlock: ICAMEG_clean_sbu_1, # of connection points: 4
#     Node 21, Type 0, BuildingBlock: ICAMEG_clean_sbu_1, # of connection points: 4
#     Node 22, Type 0, BuildingBlock: ICAMEG_clean_sbu_1, # of connection points: 4
#     Node 23, Type 0, BuildingBlock: ICAMEG_clean_sbu_1, # of connection points: 4
#     Node 24, Type 0, BuildingBlock: ICAMEG_clean_sbu_1, # of connection points: 4
#     Node 25, Type 0, BuildingBlock: ICAMEG_clean_sbu_1, # of connection points: 4
#     Node 26, Type 0, BuildingBlock: ICAMEG_clean_sbu_1, # of connection points: 4
#     Node 27, Type 0, BuildingBlock: ICAMEG_clean_sbu_1, # of connection points: 4
#     Node 28, Type 0, BuildingBlock: ICAMEG_clean_sbu_1, # of connection points: 4
#     Node 29, Type 0, BuildingBlock: ICAMEG_clean_sbu_1, # of connection points: 4
#     Node 30, Type 0, BuildingBlock: ICAMEG_clean_sbu_1, # of connection points: 4
#     Node 31, Type 0, BuildingBlock: ICAMEG_clean_sbu_1, # of connection points: 4
#     Edge 32, Type (0, 0), BuildingBlock: ZUJKAS_clean_linker_0, # of connection points: 2
#     Edge 33, Type (0, 0), BuildingBlock: ZUJKAS_clean_linker_0, # of connection points: 2
#     Edge 34, Type (0, 0), BuildingBlock: ZUJKAS_clean_linker_0, # of connection points: 2
#     Edge 35, Type (0, 0), BuildingBlock: ZUJKAS_clean_linker_0, # of connection points: 2
#     Edge 36, Type (0, 0), BuildingBlock: ZUJKAS_clean_linker_0, # of connection points: 2
#     Edge 37, Type (0, 0), BuildingBlock: ZUJKAS_clean_linker_0, # of connection points: 2
#     Edge 38, Type (0, 0), BuildingBlock: ZUJKAS_clean_linker_0, # of connection points: 2
#     Edge 39, Type (0, 0), BuildingBlock: ZUJKAS_clean_linker_0, # of connection points: 2
#     Edge 40, Type (0, 0), BuildingBlock: ZUJKAS_clean_linker_0, # of connection points: 2
#     Edge 41, Type (0, 0), BuildingBlock: ZUJKAS_clean_linker_0, # of connection points: 2
#     Edge 42, Type (0, 0), BuildingBlock: ZUJKAS_clean_linker_0, # of connection points: 2
#     Edge 43, Type (0, 0), BuildingBlock: ZUJKAS_clean_linker_0, # of connection points: 2
#     Edge 44, Type (0, 0), BuildingBlock: ZUJKAS_clean_linker_0, # of connection points: 2
#     Edge 45, Type (0, 0), BuildingBlock: ZUJKAS_clean_linker_0, # of connection points: 2
#     Edge 46, Type (0, 0), BuildingBlock: ZUJKAS_clean_linker_0, # of connection points: 2
#     Edge 47, Type (0, 0), BuildingBlock: ZUJKAS_clean_linker_0, # of connection points: 2
#     Edge 48, Type (0, 0), BuildingBlock: ZUJKAS_clean_linker_0, # of connection points: 2
#     Edge 49, Type (0, 0), BuildingBlock: ZUJKAS_clean_linker_0, # of connection points: 2
#     Edge 50, Type (0, 0), BuildingBlock: ZUJKAS_clean_linker_0, # of connection points: 2
#     Edge 51, Type (0, 0), BuildingBlock: ZUJKAS_clean_linker_0, # of connection points: 2
#     Edge 52, Type (0, 0), BuildingBlock: ZUJKAS_clean_linker_0, # of connection points: 2
#     Edge 53, Type (0, 0), BuildingBlock: ZUJKAS_clean_linker_0, # of connection points: 2
#     Edge 54, Type (0, 0), BuildingBlock: ZUJKAS_clean_linker_0, # of connection points: 2
#     Edge 55, Type (0, 0), BuildingBlock: ZUJKAS_clean_linker_0, # of connection points: 2
#     Edge 56, Type (0, 0), BuildingBlock: ZUJKAS_clean_linker_0, # of connection points: 2
#     Edge 57, Type (0, 0), BuildingBlock: ZUJKAS_clean_linker_0, # of connection points: 2
#     Edge 58, Type (0, 0), BuildingBlock: ZUJKAS_clean_linker_0, # of connection points: 2
#     Edge 59, Type (0, 0), BuildingBlock: ZUJKAS_clean_linker_0, # of connection points: 2
#     Edge 60, Type (0, 0), BuildingBlock: ZUJKAS_clean_linker_0, # of connection points: 2
#     Edge 61, Type (0, 0), BuildingBlock: ZUJKAS_clean_linker_0, # of connection points: 2
#     Edge 62, Type (0, 0), BuildingBlock: ZUJKAS_clean_linker_0, # of connection points: 2
#     Edge 63, Type (0, 0), BuildingBlock: ZUJKAS_clean_linker_0, # of connection points: 2
#     Edge 64, Type (0, 0), BuildingBlock: ZUJKAS_clean_linker_0, # of connection points: 2
#     Edge 65, Type (0, 0), BuildingBlock: ZUJKAS_clean_linker_0, # of connection points: 2
#     Edge 66, Type (0, 0), BuildingBlock: ZUJKAS_clean_linker_0, # of connection points: 2
#     Edge 67, Type (0, 0), BuildingBlock: ZUJKAS_clean_linker_0, # of connection points: 2
#     Edge 68, Type (0, 0), BuildingBlock: ZUJKAS_clean_linker_0, # of connection points: 2
#     Edge 69, Type (0, 0), BuildingBlock: ZUJKAS_clean_linker_0, # of connection points: 2
#     Edge 70, Type (0, 0), BuildingBlock: ZUJKAS_clean_linker_0, # of connection points: 2
#     Edge 71, Type (0, 0), BuildingBlock: ZUJKAS_clean_linker_0, # of connection points: 2
#     Edge 72, Type (0, 0), BuildingBlock: ZUJKAS_clean_linker_0, # of connection points: 2
#     Edge 73, Type (0, 0), BuildingBlock: ZUJKAS_clean_linker_0, # of connection points: 2
#     Edge 74, Type (0, 0), BuildingBlock: ZUJKAS_clean_linker_0, # of connection points: 2
#     Edge 75, Type (0, 0), BuildingBlock: ZUJKAS_clean_linker_0, # of connection points: 2
#     Edge 76, Type (0, 0), BuildingBlock: ZUJKAS_clean_linker_0, # of connection points: 2
#     Edge 77, Type (0, 0), BuildingBlock: ZUJKAS_clean_linker_0, # of connection points: 2
#     Edge 78, Type (0, 0), BuildingBlock: ZUJKAS_clean_linker_0, # of connection points: 2
#     Edge 79, Type (0, 0), BuildingBlock: ZUJKAS_clean_linker_0, # of connection points: 2
#     Edge 80, Type (0, 0), BuildingBlock: ZUJKAS_clean_linker_0, # of connection points: 2
#     Edge 81, Type (0, 0), BuildingBlock: ZUJKAS_clean_linker_0, # of connection points: 2
#     Edge 82, Type (0, 0), BuildingBlock: ZUJKAS_clean_linker_0, # of connection points: 2
#     Edge 83, Type (0, 0), BuildingBlock: ZUJKAS_clean_linker_0, # of connection points: 2
#     Edge 84, Type (0, 0), BuildingBlock: ZUJKAS_clean_linker_0, # of connection points: 2
#     Edge 85, Type (0, 0), BuildingBlock: ZUJKAS_clean_linker_0, # of connection points: 2
#     Edge 86, Type (0, 0), BuildingBlock: ZUJKAS_clean_linker_0, # of connection points: 2
#     Edge 87, Type (0, 0), BuildingBlock: ZUJKAS_clean_linker_0, # of connection points: 2
#     Edge 88, Type (0, 0), BuildingBlock: ZUJKAS_clean_linker_0, # of connection points: 2
#     Edge 89, Type (0, 0), BuildingBlock: ZUJKAS_clean_linker_0, # of connection points: 2
#     Edge 90, Type (0, 0), BuildingBlock: ZUJKAS_clean_linker_0, # of connection points: 2
#     Edge 91, Type (0, 0), BuildingBlock: ZUJKAS_clean_linker_0, # of connection points: 2
#     Edge 92, Type (0, 0), BuildingBlock: ZUJKAS_clean_linker_0, # of connection points: 2
#     Edge 93, Type (0, 0), BuildingBlock: ZUJKAS_clean_linker_0, # of connection points: 2
#     Edge 94, Type (0, 0), BuildingBlock: ZUJKAS_clean_linker_0, # of connection points: 2
#     Edge 95, Type (0, 0), BuildingBlock: ZUJKAS_clean_linker_0, # of connection points: 2
# Relax obj value: 0.032
# Max RMSD: 0.079
# Mean RMSD: 0.079
data_MOF--net-mer--node1-ICAMEG_clean_sbu_1--edge1-ZUJKAS_clean_linker_0
_symmetry_space_group_name_H-M    P1
_symmetry_Int_Tables_number       1
_symmetry_cell_setting            triclinic
loop_
_symmetry_equiv_pos_as_xyz
'x, y, z'
_cell_length_a     83.166642
_cell_length_b     83.170013
_cell_length_c     76.324668
_cell_angle_alpha  89.9985
_cell_angle_beta   90.001314
_cell_angle_gamma 90.000011
loop_
_atom_site_label
_atom_site_type_symbol
_atom_site_fract_x
_atom_site_fract_y
_atom_site_fract_z
_atom_type_partial_charge
Co0 Co 0.13982 0.30648 0.37286 0.0
Co1 Co 0.11374 0.2742 0.37377 0.0
O2 O 0.12095 0.29484 0.36451 0.0
C3 C 0.14543 0.30218 0.33514 0.0
O4 O 0.14146 0.28708 0.3376 0.0
C5 C 0.08547 0.29531 0.37763 0.0
O6 O 0.09518 0.30591 0.38476 0.0
O7 O 0.11513 0.28227 0.39817 0.0
O8 O 0.13451 0.30113 0.39781 0.0
H9 H 0.11505 0.22664 0.41434 0.0
H10 H 0.11673 0.32266 0.3491 0.0
O11 O 0.14546 0.31194 0.34801 0.0
H12 H 0.11719 0.35533 0.40301 0.0
H13 H 0.17913 0.35248 0.37271 0.0
H14 H 0.16493 0.30049 0.39965 0.0
H15 H 0.13448 0.33136 0.4004 0.0
H16 H 0.15515 0.33753 0.36287 0.0
O17 O 0.09094 0.28184 0.37235 0.0
H18 H 0.12445 0.25253 0.40233 0.0
H19 H 0.08657 0.25227 0.36502 0.0
H20 H 0.18894 0.31509 0.41001 0.0
H21 H 0.09933 0.34662 0.35109 0.0
H22 H 0.19617 0.34129 0.3965 0.0
H23 H 0.09946 0.36311 0.37822 0.0
O24 O 0.15339 0.28684 0.37114 0.0
H25 H 0.09844 0.27725 0.31017 0.0
H26 H 0.12543 0.24472 0.35549 0.0
H27 H 0.12467 0.23492 0.32501 0.0
H28 H 0.1111 0.25123 0.3021 0.0
H29 H 0.0996 0.28666 0.34079 0.0
H30 H 0.07668 0.22644 0.37671 0.0
H31 H 0.091 0.21343 0.40151 0.0
O32 O 0.13636 0.26618 0.37546 0.0
C33 C 0.12444 0.29219 0.40588 0.0
C34 C 0.10875 0.23216 0.40349 0.0
C35 C 0.0872 0.23205 0.38238 0.0
N36 N 0.10617 0.2538 0.38287 0.0
C37 C 0.11405 0.24678 0.39659 0.0
C38 C 0.09284 0.24669 0.37583 0.0
C39 C 0.09524 0.22476 0.39629 0.0
C40 C 0.11696 0.32986 0.36088 0.0
N41 N 0.12666 0.32566 0.37458 0.0
C42 C 0.10704 0.34338 0.36196 0.0
C43 C 0.1071 0.35261 0.3772 0.0
C44 C 0.11703 0.34825 0.39111 0.0
C45 C 0.12677 0.33464 0.38958 0.0
C46 C 0.17609 0.3411 0.37872 0.0
C47 C 0.16795 0.31193 0.39379 0.0
C48 C 0.16255 0.33257 0.37318 0.0
N49 N 0.15859 0.31822 0.38078 0.0
C50 C 0.18158 0.32012 0.39967 0.0
C51 C 0.18564 0.33481 0.39207 0.0
C52 C 0.15045 0.27194 0.37345 0.0
C53 C 0.10435 0.27001 0.32004 0.0
C54 C 0.11952 0.2519 0.3456 0.0
C55 C 0.1191 0.24627 0.32836 0.0
C56 C 0.11147 0.25542 0.31552 0.0
N57 N 0.1125 0.26622 0.34993 0.0
C58 C 0.10498 0.27524 0.33741 0.0
Co59 Co 0.69283 0.13984 0.3729 0.0
Co60 Co 0.72526 0.11385 0.37342 0.0
O61 O 0.70449 0.12098 0.36446 0.0
C62 C 0.69764 0.14582 0.3353 0.0
O63 O 0.71266 0.14159 0.33791 0.0
C64 C 0.70425 0.08553 0.3783 0.0
O65 O 0.69342 0.09527 0.38492 0.0
O66 O 0.71768 0.11577 0.39804 0.0
O67 O 0.69781 0.13413 0.39777 0.0
H68 H 0.7737 0.11612 0.41267 0.0
H69 H 0.67693 0.11717 0.34844 0.0
O70 O 0.68775 0.14588 0.34806 0.0
H71 H 0.64345 0.11696 0.40176 0.0
H72 H 0.64698 0.17933 0.37261 0.0
H73 H 0.6985 0.16453 0.40024 0.0
H74 H 0.66754 0.13417 0.3999 0.0
H75 H 0.66198 0.15543 0.36264 0.0
O76 O 0.71764 0.09104 0.37285 0.0
H77 H 0.74759 0.12527 0.40102 0.0
H78 H 0.74697 0.0864 0.36494 0.0
H79 H 0.68384 0.18846 0.41072 0.0
H80 H 0.65286 0.09987 0.34968 0.0
H81 H 0.65788 0.196 0.39686 0.0
H82 H 0.63596 0.09966 0.37652 0.0
O83 O 0.71253 0.15347 0.37187 0.0
H84 H 0.72072 0.09726 0.31032 0.0
H85 H 0.75447 0.12486 0.35411 0.0
H86 H 0.76359 0.12338 0.32341 0.0
H87 H 0.74666 0.1095 0.30127 0.0
H88 H 0.71199 0.09913 0.34114 0.0
H89 H 0.77302 0.07675 0.37629 0.0
H90 H 0.78658 0.09169 0.40029 0.0
O91 O 0.73334 0.1364 0.3742 0.0
C92 C 0.70729 0.12454 0.40579 0.0
C93 C 0.76794 0.10954 0.40218 0.0
C94 C 0.76754 0.08743 0.38177 0.0
N95 N 0.74584 0.10646 0.38222 0.0
C96 C 0.75318 0.11469 0.39549 0.0
C97 C 0.75278 0.09293 0.37542 0.0
C98 C 0.77515 0.09582 0.39523 0.0
C99 C 0.66955 0.11725 0.36009 0.0
N100 N 0.67358 0.12672 0.37404 0.0
C101 C 0.65597 0.10738 0.36075 0.0
C102 C 0.64651 0.10726 0.37582 0.0
C103 C 0.65071 0.11695 0.38999 0.0
C104 C 0.66438 0.12665 0.38888 0.0
C105 C 0.65826 0.17616 0.37877 0.0
C106 C 0.68716 0.16768 0.39423 0.0
C107 C 0.66682 0.16266 0.37316 0.0
N108 N 0.68103 0.15853 0.38095 0.0
C109 C 0.67894 0.18127 0.40018 0.0
C110 C 0.66438 0.1855 0.39239 0.0
C111 C 0.72754 0.15055 0.37314 0.0
C112 C 0.72822 0.1033 0.31985 0.0
C113 C 0.74702 0.11881 0.34455 0.0
C114 C 0.75227 0.11799 0.32719 0.0
C115 C 0.74277 0.11019 0.31478 0.0
N116 N 0.73274 0.11202 0.34942 0.0
C117 C 0.72337 0.10433 0.33734 0.0
Co118 Co 0.86073 0.6929 0.37373 0.0
Co119 Co 0.88663 0.72538 0.3731 0.0
O120 O 0.87941 0.70445 0.36473 0.0
C121 C 0.85427 0.69714 0.33616 0.0
O122 O 0.85844 0.7122 0.33852 0.0
C123 C 0.91491 0.70436 0.37788 0.0
O124 O 0.90521 0.69387 0.3852 0.0
O125 O 0.88505 0.71827 0.39791 0.0
O126 O 0.86677 0.69834 0.39841 0.0
H127 H 0.88492 0.77455 0.41129 0.0
H128 H 0.88312 0.67664 0.34922 0.0
O129 O 0.85438 0.6874 0.34906 0.0
H130 H 0.88419 0.6441 0.40321 0.0
H131 H 0.82136 0.64695 0.37496 0.0
H132 H 0.8364 0.69894 0.40136 0.0
H133 H 0.86686 0.66809 0.40114 0.0
H134 H 0.84509 0.66185 0.36431 0.0
O135 O 0.90942 0.71769 0.37224 0.0
H136 H 0.87558 0.74824 0.40037 0.0
H137 H 0.91398 0.74689 0.36371 0.0
H138 H 0.81266 0.68439 0.41251 0.0
H139 H 0.90053 0.65267 0.35068 0.0
H140 H 0.80501 0.6582 0.39928 0.0
H141 H 0.90117 0.63624 0.37785 0.0
O142 O 0.84705 0.71253 0.37254 0.0
H143 H 0.90226 0.71971 0.30981 0.0
H144 H 0.87533 0.75423 0.35338 0.0
H145 H 0.87634 0.76282 0.32247 0.0
H146 H 0.88989 0.74549 0.30044 0.0
H147 H 0.90086 0.71153 0.34084 0.0
H148 H 0.92381 0.77313 0.37433 0.0
H149 H 0.90921 0.78716 0.39824 0.0
O150 O 0.86406 0.73347 0.37411 0.0
C151 C 0.87642 0.70801 0.40605 0.0
C152 C 0.89136 0.76858 0.40083 0.0
C153 C 0.9132 0.76777 0.38009 0.0
N154 N 0.89415 0.74612 0.38132 0.0
C155 C 0.8861 0.75371 0.39455 0.0
C156 C 0.9076 0.75291 0.37416 0.0
C157 C 0.90499 0.77564 0.39351 0.0
C158 C 0.88322 0.66947 0.36102 0.0
N159 N 0.87392 0.67371 0.37504 0.0
C160 C 0.89315 0.65594 0.3618 0.0
C161 C 0.89352 0.64674 0.37706 0.0
C162 C 0.884 0.65115 0.3913 0.0
C163 C 0.87424 0.66476 0.39006 0.0
C164 C 0.8246 0.65834 0.38086 0.0
C165 C 0.8332 0.6875 0.39562 0.0
C166 C 0.83799 0.66684 0.37486 0.0
N167 N 0.84219 0.68118 0.38231 0.0
C168 C 0.81972 0.67934 0.40195 0.0
C169 C 0.81543 0.66465 0.39451 0.0
C170 C 0.84991 0.72758 0.37343 0.0
C171 C 0.89637 0.72738 0.31929 0.0
C172 C 0.88123 0.74662 0.34387 0.0
C173 C 0.88179 0.75156 0.32639 0.0
C174 C 0.8894 0.74184 0.31404 0.0
N175 N 0.88809 0.73243 0.34892 0.0
C176 C 0.8956 0.72285 0.33689 0.0
Co177 Co 0.30775 0.86033 0.37282 0.0
Co178 Co 0.27531 0.88633 0.37274 0.0
O179 O 0.29622 0.8792 0.36417 0.0
C180 C 0.30337 0.8543 0.33516 0.0
O181 O 0.28837 0.8587 0.3375 0.0
C182 C 0.29636 0.9145 0.37833 0.0
O183 O 0.30705 0.90461 0.38495 0.0
O184 O 0.2824 0.88422 0.39752 0.0
O185 O 0.3025 0.86611 0.39758 0.0
H186 H 0.22611 0.88393 0.41086 0.0
H187 H 0.32396 0.88291 0.34849 0.0
O188 O 0.31309 0.8542 0.34808 0.0
H189 H 0.35685 0.88322 0.40225 0.0
H190 H 0.35353 0.82075 0.37326 0.0
H191 H 0.30174 0.83573 0.40017 0.0
H192 H 0.33276 0.86603 0.40012 0.0
H193 H 0.33869 0.84466 0.36302 0.0
O194 O 0.28302 0.90913 0.37257 0.0
H195 H 0.25242 0.87477 0.39973 0.0
H196 H 0.25386 0.91392 0.36402 0.0
H197 H 0.31623 0.8118 0.41091 0.0
H198 H 0.34804 0.90018 0.35 0.0
H199 H 0.34232 0.80417 0.39742 0.0
H200 H 0.36464 0.90044 0.37705 0.0
O201 O 0.28804 0.84673 0.37159 0.0
H202 H 0.28107 0.90341 0.30992 0.0
H203 H 0.24646 0.87554 0.35269 0.0
H204 H 0.2379 0.87729 0.3218 0.0
H205 H 0.25527 0.89131 0.30018 0.0
H206 H 0.28922 0.90127 0.34091 0.0
H207 H 0.22763 0.92357 0.37486 0.0
H208 H 0.21355 0.9085 0.3984 0.0
O209 O 0.26716 0.8638 0.37317 0.0
C210 C 0.29278 0.87556 0.40544 0.0
C211 C 0.2321 0.89057 0.40056 0.0
C212 C 0.23297 0.91283 0.38037 0.0
N213 N 0.25459 0.89373 0.38115 0.0
C214 C 0.24697 0.88542 0.39417 0.0
C215 C 0.24782 0.90733 0.37431 0.0
C216 C 0.22507 0.90437 0.39358 0.0
C217 C 0.33121 0.88285 0.36024 0.0
N218 N 0.32701 0.87342 0.37416 0.0
C219 C 0.34479 0.8927 0.36104 0.0
C220 C 0.35409 0.89285 0.37624 0.0
C221 C 0.34972 0.8832 0.39039 0.0
C222 C 0.33605 0.87352 0.38912 0.0
C223 C 0.34218 0.82397 0.37926 0.0
C224 C 0.31314 0.83254 0.39431 0.0
C225 C 0.33372 0.83747 0.37349 0.0
N226 N 0.31943 0.84164 0.38109 0.0
C227 C 0.32126 0.81895 0.40041 0.0
C228 C 0.33589 0.81467 0.39283 0.0
C229 C 0.273 0.84964 0.37241 0.0
C230 C 0.27338 0.89731 0.31922 0.0
C231 C 0.25409 0.88164 0.34335 0.0
C232 C 0.24917 0.88262 0.32589 0.0
C233 C 0.25891 0.8905 0.31377 0.0
N234 N 0.26829 0.88836 0.3486 0.0
C235 C 0.2779 0.89612 0.3368 0.0
Co236 Co 0.13887 0.69272 0.62625 0.0
Co237 Co 0.11285 0.72512 0.62652 0.0
O238 O 0.12011 0.70426 0.6351 0.0
C239 C 0.14527 0.69706 0.66384 0.0
O240 O 0.14096 0.7121 0.66154 0.0
C241 C 0.08461 0.70403 0.62166 0.0
O242 O 0.09436 0.69351 0.61447 0.0
O243 O 0.11455 0.71786 0.60176 0.0
O244 O 0.13291 0.698 0.60154 0.0
H245 H 0.11463 0.77409 0.58801 0.0
H246 H 0.11644 0.67652 0.65075 0.0
O247 O 0.14518 0.68734 0.65093 0.0
H248 H 0.11565 0.64371 0.59694 0.0
H249 H 0.17836 0.64687 0.62537 0.0
H250 H 0.16328 0.69874 0.59871 0.0
H251 H 0.13292 0.66775 0.59896 0.0
H252 H 0.15456 0.66174 0.63585 0.0
O253 O 0.09007 0.71738 0.6273 0.0
H254 H 0.12397 0.74785 0.59916 0.0
H255 H 0.08539 0.74661 0.63559 0.0
H256 H 0.18711 0.68422 0.58772 0.0
H257 H 0.09909 0.6525 0.64935 0.0
H258 H 0.19478 0.65809 0.60108 0.0
H259 H 0.09859 0.63594 0.62227 0.0
O260 O 0.15248 0.71241 0.6274 0.0
H261 H 0.0969 0.71982 0.68975 0.0
H262 H 0.12397 0.75413 0.64609 0.0
H263 H 0.12277 0.76291 0.67693 0.0
H264 H 0.10916 0.74569 0.699 0.0
H265 H 0.09849 0.71143 0.6588 0.0
H266 H 0.07555 0.77277 0.62475 0.0
H267 H 0.09025 0.78671 0.60084 0.0
O268 O 0.1354 0.73327 0.62559 0.0
C269 C 0.12326 0.70757 0.59376 0.0
C270 C 0.10815 0.76815 0.59848 0.0
C271 C 0.08621 0.7674 0.61908 0.0
N272 N 0.10531 0.74578 0.6181 0.0
C273 C 0.11341 0.75333 0.60487 0.0
C274 C 0.09181 0.75258 0.62514 0.0
C275 C 0.09446 0.77522 0.60567 0.0
C276 C 0.1164 0.66929 0.63899 0.0
N277 N 0.12574 0.67348 0.62499 0.0
C278 C 0.1065 0.65574 0.63824 0.0
C279 C 0.10621 0.64646 0.62304 0.0
C280 C 0.11578 0.65082 0.60882 0.0
C281 C 0.12551 0.66447 0.61002 0.0
C282 C 0.17513 0.65823 0.61942 0.0
C283 C 0.1665 0.68733 0.60451 0.0
C284 C 0.16168 0.66672 0.62532 0.0
N285 N 0.15748 0.68102 0.6178 0.0
C286 C 0.18002 0.67918 0.59827 0.0
C287 C 0.18433 0.66453 0.60579 0.0
C288 C 0.14956 0.72744 0.62641 0.0
C289 C 0.10283 0.72744 0.68025 0.0
C290 C 0.11805 0.74656 0.65562 0.0
C291 C 0.11738 0.75161 0.67306 0.0
C292 C 0.10973 0.74195 0.68543 0.0
N293 N 0.11125 0.73231 0.65064 0.0
C294 C 0.10371 0.72279 0.66269 0.0
Co295 Co 0.30683 0.13916 0.62595 0.0
Co296 Co 0.27404 0.11363 0.62637 0.0
O297 O 0.29508 0.12052 0.63477 0.0
C298 C 0.30281 0.14541 0.66361 0.0
O299 O 0.2877 0.14134 0.66136 0.0
C300 C 0.29477 0.08521 0.62107 0.0
O301 O 0.30539 0.09494 0.61402 0.0
O302 O 0.28105 0.11546 0.60153 0.0
O303 O 0.30128 0.13341 0.60124 0.0
H304 H 0.22469 0.11646 0.58851 0.0
H305 H 0.32287 0.11637 0.65019 0.0
O306 O 0.31247 0.14525 0.65065 0.0
H307 H 0.3553 0.11539 0.5961 0.0
H308 H 0.35324 0.17799 0.62496 0.0
H309 H 0.301 0.16379 0.59859 0.0
H310 H 0.33153 0.133 0.59842 0.0
H311 H 0.33809 0.15435 0.63542 0.0
O312 O 0.28147 0.09074 0.62678 0.0
H313 H 0.25117 0.12532 0.59942 0.0
H314 H 0.25227 0.08638 0.6354 0.0
H315 H 0.3158 0.18745 0.58762 0.0
H316 H 0.34663 0.09868 0.64848 0.0
H317 H 0.34212 0.19468 0.60084 0.0
H318 H 0.36299 0.09808 0.62127 0.0
O319 O 0.28735 0.15305 0.62734 0.0
H320 H 0.2798 0.09704 0.68935 0.0
H321 H 0.2454 0.12496 0.64642 0.0
H322 H 0.23694 0.12361 0.67735 0.0
H323 H 0.2542 0.10956 0.69906 0.0
H324 H 0.28787 0.09879 0.65831 0.0
H325 H 0.22586 0.07701 0.62479 0.0
H326 H 0.21187 0.09213 0.60122 0.0
O327 O 0.26621 0.13629 0.62578 0.0
C328 C 0.29143 0.12402 0.59349 0.0
C329 C 0.23065 0.1098 0.59882 0.0
C330 C 0.23131 0.08765 0.61917 0.0
N331 N 0.25318 0.10645 0.61813 0.0
C332 C 0.24561 0.11479 0.60509 0.0
C333 C 0.24627 0.09299 0.6251 0.0
C334 C 0.22346 0.09614 0.60595 0.0
C335 C 0.33003 0.11629 0.63836 0.0
N336 N 0.32587 0.12576 0.62446 0.0
C337 C 0.34343 0.1062 0.63745 0.0
C338 C 0.35259 0.10585 0.62216 0.0
C339 C 0.34827 0.11555 0.60804 0.0
C340 C 0.33478 0.12547 0.60941 0.0
C341 C 0.3418 0.17494 0.61907 0.0
C342 C 0.31249 0.16681 0.60432 0.0
C343 C 0.33316 0.1616 0.62496 0.0
N344 N 0.31875 0.15764 0.61752 0.0
C345 C 0.3208 0.18024 0.5981 0.0
C346 C 0.33556 0.1843 0.60553 0.0
C347 C 0.27227 0.15036 0.62656 0.0
C348 C 0.27216 0.10315 0.68001 0.0
C349 C 0.25299 0.11885 0.65579 0.0
C350 C 0.24812 0.1181 0.67328 0.0
C351 C 0.2578 0.1102 0.68545 0.0
N352 N 0.26708 0.1119 0.65055 0.0
C353 C 0.27663 0.10412 0.6624 0.0
Co354 Co 0.86141 0.30729 0.6269 0.0
Co355 Co 0.88612 0.2738 0.62719 0.0
O356 O 0.87968 0.29496 0.6357 0.0
C357 C 0.85448 0.30239 0.66436 0.0
O358 O 0.8586 0.28733 0.66189 0.0
C359 C 0.91469 0.29423 0.62142 0.0
O360 O 0.90494 0.30506 0.6148 0.0
O361 O 0.88384 0.28066 0.6023 0.0
O362 O 0.86773 0.30247 0.60219 0.0
H363 H 0.88167 0.22413 0.58999 0.0
H364 H 0.88404 0.32206 0.65225 0.0
O365 O 0.85485 0.31228 0.6516 0.0
H366 H 0.88648 0.35637 0.59963 0.0
H367 H 0.82327 0.35428 0.62666 0.0
H368 H 0.83735 0.30271 0.59869 0.0
H369 H 0.8684 0.33287 0.60061 0.0
H370 H 0.84647 0.33847 0.63714 0.0
O371 O 0.90913 0.28091 0.62704 0.0
H372 H 0.87342 0.25081 0.60088 0.0
H373 H 0.91331 0.25177 0.6356 0.0
H374 H 0.81412 0.31817 0.5877 0.0
H375 H 0.90218 0.34552 0.65189 0.0
H376 H 0.80696 0.34416 0.60173 0.0
H377 H 0.90352 0.36283 0.62541 0.0
O378 O 0.84713 0.28797 0.62719 0.0
H379 H 0.90403 0.27953 0.68975 0.0
H380 H 0.87471 0.24544 0.64763 0.0
H381 H 0.87656 0.23705 0.67856 0.0
H382 H 0.89131 0.25415 0.69985 0.0
H383 H 0.90179 0.28753 0.65872 0.0
H384 H 0.92208 0.22515 0.62499 0.0
H385 H 0.90618 0.21113 0.60207 0.0
O386 O 0.86338 0.26638 0.6271 0.0
C387 C 0.87626 0.29188 0.59444 0.0
C388 C 0.88869 0.2301 0.60001 0.0
C389 C 0.91138 0.23069 0.61964 0.0
N390 N 0.89283 0.25279 0.61892 0.0
C391 C 0.88405 0.24519 0.60625 0.0
C392 C 0.90638 0.24577 0.62556 0.0
C393 C 0.90244 0.22282 0.60678 0.0
C394 C 0.88445 0.32962 0.64075 0.0
N395 N 0.87514 0.32614 0.6265 0.0
C396 C 0.89479 0.34285 0.64059 0.0
C397 C 0.89555 0.35255 0.62572 0.0
C398 C 0.886 0.34892 0.61124 0.0
C399 C 0.87582 0.33558 0.61186 0.0
C400 C 0.82629 0.34299 0.62042 0.0
C401 C 0.83436 0.31406 0.60478 0.0
C402 C 0.83939 0.33398 0.62632 0.0
N403 N 0.84332 0.31975 0.61844 0.0
C404 C 0.82117 0.32274 0.59854 0.0
C405 C 0.81715 0.33731 0.60643 0.0
C406 C 0.84946 0.2728 0.62701 0.0
C407 C 0.89762 0.27196 0.68058 0.0
C408 C 0.88114 0.25295 0.65682 0.0
C409 C 0.88217 0.24813 0.67431 0.0
C410 C 0.89046 0.25773 0.68625 0.0
N411 N 0.88821 0.26692 0.65136 0.0
C412 C 0.89636 0.27639 0.66299 0.0
Co413 Co 0.69253 0.86072 0.6265 0.0
Co414 Co 0.72505 0.88647 0.62529 0.0
O415 O 0.70452 0.87935 0.63491 0.0
C416 C 0.6973 0.85448 0.66406 0.0
O417 O 0.71241 0.85834 0.66147 0.0
C418 C 0.70426 0.91507 0.62233 0.0
O419 O 0.69334 0.90557 0.61546 0.0
O420 O 0.71649 0.88554 0.60105 0.0
O421 O 0.69753 0.86628 0.60154 0.0
H422 H 0.77176 0.88525 0.58354 0.0
H423 H 0.67697 0.88366 0.65092 0.0
O424 O 0.68738 0.8548 0.65134 0.0
H425 H 0.64345 0.88427 0.59762 0.0
H426 H 0.64608 0.82192 0.62691 0.0
H427 H 0.69782 0.83587 0.59925 0.0
H428 H 0.66728 0.8667 0.5995 0.0
H429 H 0.66144 0.84562 0.63682 0.0
O430 O 0.71775 0.90934 0.62723 0.0
H431 H 0.74602 0.87596 0.59601 0.0
H432 H 0.7475 0.91323 0.63401 0.0
H433 H 0.68279 0.81216 0.58881 0.0
H434 H 0.65316 0.90131 0.64965 0.0
H435 H 0.65672 0.80505 0.60268 0.0
H436 H 0.63625 0.90173 0.62283 0.0
O437 O 0.71204 0.84691 0.62764 0.0
H438 H 0.72344 0.9009 0.68918 0.0
H439 H 0.75473 0.87415 0.64267 0.0
H440 H 0.76514 0.87436 0.67293 0.0
H441 H 0.74945 0.88782 0.69643 0.0
H442 H 0.71342 0.90028 0.65877 0.0
H443 H 0.7732 0.92301 0.62187 0.0
H444 H 0.78552 0.90894 0.59649 0.0
O445 O 0.73276 0.8638 0.62298 0.0
C446 C 0.70638 0.87638 0.59343 0.0
C447 C 0.76654 0.89144 0.59465 0.0
C448 C 0.76734 0.91264 0.61614 0.0
N449 N 0.74537 0.89393 0.61584 0.0
C450 C 0.752 0.88619 0.6018 0.0
C451 C 0.75278 0.90706 0.62295 0.0
C452 C 0.77425 0.90474 0.60191 0.0
C453 C 0.66958 0.88366 0.63927 0.0
N454 N 0.67346 0.87411 0.62534 0.0
C455 C 0.65615 0.89373 0.6386 0.0
C456 C 0.64668 0.89397 0.62354 0.0
C457 C 0.65072 0.88419 0.60938 0.0
C458 C 0.66425 0.87429 0.61051 0.0
C459 C 0.65741 0.82491 0.62074 0.0
C460 C 0.68644 0.83291 0.60526 0.0
C461 C 0.66617 0.83829 0.62632 0.0
N462 N 0.68045 0.84218 0.61852 0.0
C463 C 0.67801 0.81944 0.59934 0.0
C464 C 0.66339 0.81545 0.60714 0.0
C465 C 0.7269 0.84974 0.62494 0.0
C466 C 0.73041 0.89504 0.67905 0.0
C467 C 0.74782 0.88001 0.65283 0.0
C468 C 0.75379 0.88012 0.66993 0.0
C469 C 0.74499 0.88768 0.68311 0.0
N470 N 0.73351 0.88727 0.64895 0.0
C471 C 0.72483 0.89472 0.66179 0.0
Co472 Co 0.85957 0.69272 0.62647 0.0
Co473 Co 0.88544 0.7253 0.6279 0.0
O474 O 0.87819 0.70422 0.63581 0.0
C475 C 0.85259 0.69723 0.66393 0.0
O476 O 0.85714 0.71219 0.66166 0.0
C477 C 0.91355 0.70417 0.62199 0.0
O478 O 0.90367 0.69365 0.61503 0.0
O479 O 0.88329 0.71886 0.60283 0.0
O480 O 0.86621 0.69789 0.60199 0.0
H481 H 0.88314 0.77547 0.59134 0.0
H482 H 0.88131 0.67658 0.65178 0.0
O483 O 0.85264 0.6875 0.65103 0.0
H484 H 0.88339 0.64349 0.59821 0.0
H485 H 0.81996 0.64699 0.62476 0.0
H486 H 0.83603 0.69851 0.59796 0.0
H487 H 0.86617 0.66761 0.59954 0.0
H488 H 0.84349 0.6619 0.6359 0.0
O489 O 0.90821 0.71748 0.62786 0.0
H490 H 0.87388 0.74895 0.60174 0.0
H491 H 0.9132 0.74637 0.63713 0.0
H492 H 0.8125 0.68394 0.58631 0.0
H493 H 0.8986 0.65248 0.65107 0.0
H494 H 0.80434 0.65799 0.59974 0.0
H495 H 0.89975 0.63578 0.62412 0.0
O496 O 0.84594 0.71245 0.62694 0.0
H497 H 0.90217 0.71757 0.69059 0.0
H498 H 0.87524 0.75386 0.64876 0.0
H499 H 0.87697 0.76155 0.67992 0.0
H500 H 0.89051 0.74333 0.70107 0.0
H501 H 0.90004 0.7103 0.65934 0.0
H502 H 0.92296 0.7728 0.62702 0.0
H503 H 0.90785 0.78756 0.60402 0.0
O504 O 0.86293 0.73352 0.62792 0.0
C505 C 0.87532 0.70817 0.59453 0.0
C506 C 0.88979 0.76918 0.60142 0.0
C507 C 0.91216 0.76767 0.62143 0.0
N508 N 0.89292 0.74619 0.62012 0.0
C509 C 0.88458 0.75419 0.60739 0.0
C510 C 0.9066 0.7527 0.62707 0.0
C511 C 0.90367 0.77595 0.60852 0.0
C512 C 0.88163 0.66928 0.64007 0.0
N513 N 0.87268 0.67344 0.62576 0.0
C514 C 0.89149 0.65569 0.63972 0.0
C515 C 0.89215 0.64634 0.62458 0.0
C516 C 0.88298 0.65066 0.61004 0.0
C517 C 0.87328 0.66434 0.61086 0.0
C518 C 0.82342 0.65828 0.61878 0.0
C519 C 0.83259 0.68718 0.60381 0.0
C520 C 0.8367 0.66679 0.62506 0.0
N521 N 0.84117 0.68101 0.61752 0.0
C522 C 0.81924 0.67901 0.59719 0.0
C523 C 0.81466 0.66445 0.60474 0.0
C524 C 0.84884 0.7275 0.62741 0.0
C525 C 0.89626 0.72562 0.6815 0.0
C526 C 0.88111 0.74586 0.6579 0.0
C527 C 0.88209 0.75029 0.67552 0.0
C528 C 0.8897 0.74007 0.68737 0.0
N529 N 0.88755 0.73166 0.65224 0.0
C530 C 0.89507 0.7216 0.66378 0.0
Co531 Co 0.30667 0.8598 0.62634 0.0
Co532 Co 0.27422 0.88576 0.62652 0.0
O533 O 0.29506 0.87852 0.63519 0.0
C534 C 0.30228 0.85332 0.66391 0.0
O535 O 0.28723 0.85755 0.6616 0.0
C536 C 0.29525 0.91408 0.62191 0.0
O537 O 0.30584 0.9044 0.61474 0.0
O538 O 0.28161 0.88418 0.60178 0.0
O539 O 0.30144 0.86579 0.60164 0.0
H540 H 0.22547 0.88402 0.58769 0.0
H541 H 0.32276 0.88224 0.65092 0.0
O542 O 0.31202 0.85348 0.65102 0.0
H543 H 0.35571 0.88316 0.59722 0.0
H544 H 0.35262 0.82042 0.62551 0.0
H545 H 0.30076 0.83541 0.59875 0.0
H546 H 0.3317 0.86584 0.59914 0.0
H547 H 0.33767 0.84417 0.636 0.0
O548 O 0.28189 0.90856 0.62745 0.0
H549 H 0.25166 0.8747 0.59896 0.0
H550 H 0.25261 0.91313 0.63559 0.0
H551 H 0.31537 0.81164 0.58775 0.0
H552 H 0.34675 0.89964 0.64962 0.0
H553 H 0.34149 0.80401 0.60116 0.0
H554 H 0.36338 0.90021 0.6226 0.0
O555 O 0.28701 0.84615 0.62742 0.0
H556 H 0.27918 0.90147 0.68985 0.0
H557 H 0.24515 0.87449 0.64586 0.0
H558 H 0.23621 0.87555 0.67665 0.0
H559 H 0.25329 0.88912 0.69889 0.0
H560 H 0.28772 0.90002 0.65894 0.0
H561 H 0.22649 0.92294 0.62464 0.0
H562 H 0.21271 0.90831 0.60056 0.0
O563 O 0.26614 0.8632 0.62542 0.0
C564 C 0.29192 0.87547 0.59383 0.0
C565 C 0.23132 0.89047 0.59823 0.0
C566 C 0.23191 0.91232 0.61895 0.0
N567 N 0.25358 0.89328 0.61801 0.0
C568 C 0.24613 0.88522 0.60469 0.0
C569 C 0.24671 0.90673 0.62507 0.0
C570 C 0.22418 0.9041 0.60544 0.0
C571 C 0.33002 0.88231 0.63918 0.0
N572 N 0.32588 0.87298 0.62516 0.0
C573 C 0.34355 0.89223 0.6385 0.0
C574 C 0.35287 0.89256 0.62332 0.0
C575 C 0.34856 0.88301 0.60907 0.0
C576 C 0.33494 0.87325 0.61022 0.0
C577 C 0.34126 0.82364 0.61953 0.0
C578 C 0.31218 0.83222 0.60457 0.0
C579 C 0.33273 0.83705 0.62544 0.0
N580 N 0.31843 0.84123 0.61789 0.0
C581 C 0.32036 0.81872 0.59833 0.0
C582 C 0.33501 0.81444 0.60587 0.0
C583 C 0.27198 0.84904 0.62629 0.0
C584 C 0.27162 0.89556 0.68027 0.0
C585 C 0.25265 0.8804 0.65546 0.0
C586 C 0.24752 0.88098 0.67287 0.0
C587 C 0.2571 0.88861 0.68534 0.0
N588 N 0.26691 0.88725 0.6506 0.0
C589 C 0.27636 0.89477 0.66274 0.0
Co590 Co 0.14023 0.30774 0.62681 0.0
Co591 Co 0.11455 0.27507 0.62688 0.0
O592 O 0.12157 0.29597 0.63558 0.0
C593 C 0.14661 0.30339 0.66439 0.0
O594 O 0.14251 0.2883 0.66204 0.0
C595 C 0.086 0.29578 0.6222 0.0
O596 O 0.09557 0.30651 0.61508 0.0
O597 O 0.11612 0.2825 0.60216 0.0
O598 O 0.13438 0.30245 0.60208 0.0
H599 H 0.11688 0.22636 0.58802 0.0
H600 H 0.11756 0.32364 0.65129 0.0
O601 O 0.14641 0.31314 0.65151 0.0
H602 H 0.11652 0.35654 0.59755 0.0
H603 H 0.17919 0.35404 0.62614 0.0
H604 H 0.16477 0.30205 0.59933 0.0
H605 H 0.13405 0.33269 0.59956 0.0
H606 H 0.15553 0.33888 0.63653 0.0
O607 O 0.09167 0.2825 0.62775 0.0
H608 H 0.1259 0.25265 0.59933 0.0
H609 H 0.08738 0.25317 0.63586 0.0
H610 H 0.18845 0.31686 0.58844 0.0
H611 H 0.09995 0.34747 0.6499 0.0
H612 H 0.19579 0.34306 0.60187 0.0
H613 H 0.09932 0.36408 0.62286 0.0
O614 O 0.15406 0.2882 0.62794 0.0
H615 H 0.09862 0.27984 0.69016 0.0
H616 H 0.12604 0.24609 0.64625 0.0
H617 H 0.12498 0.23713 0.67703 0.0
H618 H 0.11119 0.25406 0.69923 0.0
H619 H 0.10008 0.28841 0.65926 0.0
H620 H 0.07787 0.22695 0.62486 0.0
H621 H 0.0927 0.21334 0.60082 0.0
O622 O 0.13718 0.26721 0.62585 0.0
C623 C 0.12478 0.29287 0.59424 0.0
C624 C 0.11035 0.23215 0.59854 0.0
C625 C 0.08844 0.23249 0.61921 0.0
N626 N 0.10725 0.25436 0.61833 0.0
C627 C 0.11542 0.247 0.60503 0.0
C628 C 0.09386 0.24734 0.62536 0.0
C629 C 0.09677 0.22486 0.60572 0.0
C630 C 0.11746 0.3309 0.63955 0.0
N631 N 0.12688 0.32683 0.62556 0.0
C632 C 0.10742 0.34434 0.63881 0.0
C633 C 0.10706 0.35364 0.62362 0.0
C634 C 0.1167 0.34941 0.60941 0.0
C635 C 0.12658 0.33588 0.61061 0.0
C636 C 0.1761 0.34266 0.62015 0.0
C637 C 0.16784 0.31349 0.60516 0.0
C638 C 0.16274 0.33401 0.626 0.0
N639 N 0.15872 0.31967 0.61844 0.0
C640 C 0.18128 0.3218 0.59898 0.0
C641 C 0.1854 0.33649 0.60653 0.0
C642 C 0.15129 0.27316 0.62679 0.0
C643 C 0.10463 0.27234 0.6806 0.0
C644 C 0.12004 0.25353 0.65583 0.0
C645 C 0.11945 0.24838 0.67324 0.0
C646 C 0.1117 0.25788 0.68568 0.0
N647 N 0.11307 0.26773 0.65095 0.0
C648 C 0.10543 0.27709 0.66307 0.0
Co649 Co 0.69255 0.14032 0.62703 0.0
Co650 Co 0.7255 0.11501 0.62659 0.0
O651 O 0.70464 0.12179 0.63558 0.0
C652 C 0.69734 0.14659 0.66458 0.0
O653 O 0.71243 0.14263 0.66195 0.0
C654 C 0.7049 0.08638 0.62212 0.0
O655 O 0.69407 0.09594 0.61517 0.0
O656 O 0.71782 0.11663 0.60196 0.0
O657 O 0.69758 0.13458 0.6022 0.0
H658 H 0.7738 0.11794 0.58718 0.0
H659 H 0.67723 0.11744 0.65171 0.0
O660 O 0.68742 0.1464 0.65185 0.0
H661 H 0.64361 0.11616 0.59851 0.0
H662 H 0.64585 0.17881 0.62721 0.0
H663 H 0.69759 0.16496 0.59949 0.0
H664 H 0.66729 0.13394 0.60018 0.0
H665 H 0.66139 0.15529 0.6373 0.0
O666 O 0.71826 0.09207 0.62745 0.0
H667 H 0.74756 0.12669 0.59884 0.0
H668 H 0.74771 0.08799 0.63515 0.0
H669 H 0.68239 0.1885 0.58889 0.0
H670 H 0.65357 0.09957 0.65066 0.0
H671 H 0.65631 0.19556 0.60279 0.0
H672 H 0.63661 0.09882 0.62389 0.0
O673 O 0.71195 0.15436 0.62788 0.0
H674 H 0.72154 0.09878 0.68985 0.0
H675 H 0.75457 0.12671 0.64565 0.0
H676 H 0.76386 0.1256 0.67631 0.0
H677 H 0.7473 0.11155 0.69865 0.0
H678 H 0.71264 0.10028 0.65906 0.0
H679 H 0.7739 0.07875 0.62379 0.0
H680 H 0.78714 0.09381 0.59967 0.0
O681 O 0.73314 0.13774 0.62556 0.0
C682 C 0.70724 0.12516 0.5942 0.0
C683 C 0.76818 0.11131 0.59773 0.0
C684 C 0.76822 0.0893 0.61826 0.0
N685 N 0.74619 0.10794 0.61776 0.0
C686 C 0.75334 0.11624 0.60442 0.0
C687 C 0.75338 0.09457 0.62462 0.0
C688 C 0.77565 0.09776 0.60473 0.0
C689 C 0.66981 0.11729 0.64009 0.0
N690 N 0.67359 0.12678 0.62606 0.0
C691 C 0.65647 0.1071 0.63953 0.0
C692 C 0.64697 0.10667 0.6245 0.0
C693 C 0.6509 0.11639 0.61025 0.0
C694 C 0.66434 0.12641 0.61126 0.0
C695 C 0.65718 0.17584 0.62103 0.0
C696 C 0.68621 0.1679 0.60552 0.0
C697 C 0.66604 0.16256 0.6267 0.0
N698 N 0.68031 0.1587 0.61889 0.0
C699 C 0.67767 0.18127 0.5995 0.0
C700 C 0.66305 0.18523 0.60732 0.0
C701 C 0.72702 0.15178 0.62655 0.0
C702 C 0.72889 0.10489 0.68022 0.0
C703 C 0.74728 0.12059 0.6553 0.0
C704 C 0.75262 0.11998 0.67263 0.0
C705 C 0.74333 0.11208 0.68516 0.0
N706 N 0.7331 0.1135 0.65056 0.0
C707 C 0.72394 0.10572 0.66276 0.0
Co708 Co 0.85952 0.30748 0.37313 0.0
Co709 Co 0.8862 0.27571 0.3737 0.0
O710 O 0.8787 0.29632 0.36472 0.0
C711 C 0.85421 0.30343 0.33535 0.0
O712 O 0.85834 0.28837 0.33778 0.0
C713 C 0.91443 0.29697 0.37773 0.0
O714 O 0.90478 0.3076 0.38488 0.0
O715 O 0.88479 0.28366 0.3982 0.0
O716 O 0.86469 0.30184 0.39802 0.0
H717 H 0.88525 0.2277 0.41364 0.0
H718 H 0.88241 0.32443 0.34974 0.0
O719 O 0.85396 0.31313 0.34829 0.0
H720 H 0.88118 0.35626 0.40424 0.0
H721 H 0.81947 0.35284 0.3733 0.0
H722 H 0.83417 0.30064 0.39942 0.0
H723 H 0.86434 0.33201 0.40113 0.0
H724 H 0.84382 0.33844 0.36354 0.0
O725 O 0.90891 0.28356 0.37237 0.0
H726 H 0.8756 0.2536 0.40188 0.0
H727 H 0.9137 0.25418 0.36483 0.0
H728 H 0.80979 0.31467 0.40968 0.0
H729 H 0.89934 0.34867 0.35223 0.0
H730 H 0.80231 0.34097 0.39658 0.0
H731 H 0.89882 0.36474 0.37966 0.0
O732 O 0.8463 0.28766 0.37115 0.0
H733 H 0.90135 0.27962 0.31012 0.0
H734 H 0.8751 0.24613 0.35511 0.0
H735 H 0.876 0.23664 0.32452 0.0
H736 H 0.8892 0.25343 0.30178 0.0
H737 H 0.90005 0.28872 0.34085 0.0
H738 H 0.92384 0.22835 0.37627 0.0
H739 H 0.90953 0.21491 0.40081 0.0
O740 O 0.8637 0.26734 0.37518 0.0
C741 C 0.87511 0.2932 0.40593 0.0
C742 C 0.89155 0.23342 0.40291 0.0
C743 C 0.91322 0.23379 0.38195 0.0
N744 N 0.894 0.25531 0.3826 0.0
C745 C 0.88612 0.24805 0.39617 0.0
C746 C 0.90745 0.24842 0.37555 0.0
C747 C 0.90519 0.22625 0.39571 0.0
C748 C 0.882 0.33145 0.36165 0.0
N749 N 0.87234 0.32686 0.37524 0.0
C750 C 0.89167 0.34513 0.36302 0.0
C751 C 0.89139 0.35412 0.37842 0.0
C752 C 0.8815 0.34937 0.39222 0.0
C753 C 0.87202 0.33561 0.3904 0.0
C754 C 0.82263 0.34141 0.37914 0.0
C755 C 0.83105 0.31214 0.39377 0.0
C756 C 0.83639 0.3332 0.37365 0.0
N757 N 0.84049 0.3188 0.38104 0.0
C758 C 0.81721 0.32 0.39958 0.0
C759 C 0.81301 0.33475 0.39221 0.0
C760 C 0.84946 0.27279 0.37324 0.0
C761 C 0.8956 0.27217 0.31992 0.0
C762 C 0.88083 0.25352 0.34529 0.0
C763 C 0.88134 0.24807 0.328 0.0
C764 C 0.88876 0.25749 0.31525 0.0
N765 N 0.88757 0.26794 0.34977 0.0
C766 C 0.89489 0.27723 0.33735 0.0
Co767 Co 0.69258 0.85956 0.37251 0.0
Co768 Co 0.72489 0.88572 0.37254 0.0
O769 O 0.70408 0.87844 0.36382 0.0
C770 C 0.69708 0.85338 0.33491 0.0
O771 O 0.71209 0.85774 0.33728 0.0
C772 C 0.70378 0.91396 0.37745 0.0
O773 O 0.69305 0.90419 0.38421 0.0
O774 O 0.7175 0.88389 0.39724 0.0
O775 O 0.69774 0.86543 0.39727 0.0
H776 H 0.77361 0.88388 0.4114 0.0
H777 H 0.67635 0.88202 0.34806 0.0
O778 O 0.68732 0.85336 0.34778 0.0
H779 H 0.64335 0.88239 0.40173 0.0
H780 H 0.64691 0.81986 0.37295 0.0
H781 H 0.69861 0.83504 0.39993 0.0
H782 H 0.6675 0.86527 0.39973 0.0
H783 H 0.66171 0.84379 0.36268 0.0
O784 O 0.71715 0.90849 0.37191 0.0
H785 H 0.74747 0.87454 0.40002 0.0
H786 H 0.74641 0.91322 0.36371 0.0
H787 H 0.68417 0.81109 0.41071 0.0
H788 H 0.65222 0.89922 0.34944 0.0
H789 H 0.65812 0.80337 0.39719 0.0
H790 H 0.63556 0.89951 0.37645 0.0
O791 O 0.71233 0.84603 0.37136 0.0
H792 H 0.7198 0.90197 0.30939 0.0
H793 H 0.75401 0.87476 0.35305 0.0
H794 H 0.76291 0.87614 0.32226 0.0
H795 H 0.74575 0.88983 0.30019 0.0
H796 H 0.7113 0.90021 0.3403 0.0
H797 H 0.77248 0.92306 0.37479 0.0
H798 H 0.78629 0.90832 0.39876 0.0
O799 O 0.73308 0.86321 0.37339 0.0
C800 C 0.7072 0.87512 0.40513 0.0
C801 C 0.76774 0.89038 0.40091 0.0
C802 C 0.7671 0.91239 0.38038 0.0
N803 N 0.7455 0.89325 0.38112 0.0
C804 C 0.75296 0.88512 0.39438 0.0
C805 C 0.75232 0.90677 0.37418 0.0
C806 C 0.77484 0.9041 0.39383 0.0
C807 C 0.66908 0.88197 0.35979 0.0
N808 N 0.67328 0.8726 0.37376 0.0
C809 C 0.65547 0.89178 0.36052 0.0
C810 C 0.64614 0.89195 0.37569 0.0
C811 C 0.6505 0.88236 0.38989 0.0
C812 C 0.66421 0.87272 0.38869 0.0
C813 C 0.65823 0.82312 0.37897 0.0
C814 C 0.68723 0.83181 0.39406 0.0
C815 C 0.66668 0.83663 0.37319 0.0
N816 N 0.68094 0.84086 0.3808 0.0
C817 C 0.67913 0.81821 0.40019 0.0
C818 C 0.66453 0.81388 0.39258 0.0
C819 C 0.72734 0.84902 0.37246 0.0
C820 C 0.7274 0.89602 0.31889 0.0
C821 C 0.74646 0.88072 0.34352 0.0
C822 C 0.75158 0.88149 0.32611 0.0
C823 C 0.74195 0.88918 0.31374 0.0
N824 N 0.73218 0.88746 0.34848 0.0
C825 C 0.72269 0.89504 0.33642 0.0
Co826 Co 0.14009 0.6932 0.37296 0.0
Co827 Co 0.11401 0.72556 0.37256 0.0
O828 O 0.12135 0.70473 0.36402 0.0
C829 C 0.14658 0.69775 0.33545 0.0
O830 O 0.14233 0.71278 0.3379 0.0
C831 C 0.08586 0.70436 0.37721 0.0
O832 O 0.09566 0.69381 0.38426 0.0
O833 O 0.11562 0.71829 0.39731 0.0
O834 O 0.13396 0.69841 0.39766 0.0
H835 H 0.11548 0.77449 0.41114 0.0
H836 H 0.11784 0.67701 0.34823 0.0
O837 O 0.14651 0.68793 0.34828 0.0
H838 H 0.11683 0.64405 0.40193 0.0
H839 H 0.17969 0.64746 0.37389 0.0
H840 H 0.16431 0.69916 0.40072 0.0
H841 H 0.13403 0.66815 0.40012 0.0
H842 H 0.15591 0.66231 0.36331 0.0
O843 O 0.09125 0.71777 0.37168 0.0
H844 H 0.12494 0.74829 0.40002 0.0
H845 H 0.08655 0.747 0.36334 0.0
H846 H 0.18811 0.68465 0.4118 0.0
H847 H 0.10057 0.65293 0.34942 0.0
H848 H 0.19593 0.65861 0.39835 0.0
H849 H 0.09995 0.63629 0.37644 0.0
O850 O 0.15366 0.71292 0.37201 0.0
H851 H 0.0984 0.72021 0.30924 0.0
H852 H 0.12517 0.75459 0.35306 0.0
H853 H 0.1241 0.76337 0.32221 0.0
H854 H 0.11064 0.74612 0.30006 0.0
H855 H 0.09984 0.71185 0.34021 0.0
H856 H 0.0766 0.77312 0.37415 0.0
H857 H 0.09114 0.78707 0.39818 0.0
O858 O 0.13654 0.73375 0.37365 0.0
C859 C 0.12426 0.70799 0.40537 0.0
C860 C 0.10907 0.76855 0.40062 0.0
C861 C 0.08724 0.76778 0.37988 0.0
N862 N 0.10639 0.7462 0.38095 0.0
C863 C 0.1144 0.75375 0.39424 0.0
C864 C 0.09291 0.75298 0.37384 0.0
C865 C 0.0954 0.7756 0.39336 0.0
C866 C 0.11776 0.66975 0.35997 0.0
N867 N 0.12699 0.67393 0.37405 0.0
C868 C 0.1079 0.65616 0.3606 0.0
C869 C 0.10755 0.64684 0.37577 0.0
C870 C 0.117 0.65119 0.39008 0.0
C871 C 0.1267 0.66487 0.38899 0.0
C872 C 0.17639 0.65878 0.37988 0.0
C873 C 0.16759 0.68778 0.39488 0.0
C874 C 0.16296 0.66726 0.37392 0.0
N875 N 0.15867 0.68152 0.38149 0.0
C876 C 0.1811 0.67965 0.40118 0.0
C877 C 0.18549 0.66504 0.39361 0.0
C878 C 0.15072 0.72795 0.373 0.0
C879 C 0.10425 0.72786 0.31878 0.0
C880 C 0.1193 0.74702 0.34349 0.0
C881 C 0.11871 0.75206 0.32605 0.0
C882 C 0.11115 0.74238 0.31363 0.0
N883 N 0.1125 0.73276 0.34844 0.0
C884 C 0.10505 0.72321 0.33634 0.0
Co885 Co 0.30799 0.13969 0.37306 0.0
Co886 Co 0.27521 0.11407 0.37141 0.0
O887 O 0.29652 0.12099 0.36384 0.0
C888 C 0.30411 0.14621 0.3354 0.0
O889 O 0.28917 0.14147 0.33736 0.0
C890 C 0.29597 0.0859 0.37861 0.0
O891 O 0.30665 0.09585 0.38518 0.0
O892 O 0.28111 0.11677 0.39658 0.0
O893 O 0.30242 0.13341 0.39752 0.0
H894 H 0.2243 0.1176 0.40662 0.0
H895 H 0.32439 0.11756 0.34837 0.0
O896 O 0.31361 0.14632 0.34851 0.0
H897 H 0.35668 0.11602 0.40254 0.0
H898 H 0.35389 0.17909 0.37501 0.0
H899 H 0.30184 0.16367 0.40104 0.0
H900 H 0.33266 0.13332 0.40053 0.0
H901 H 0.33904 0.15548 0.36397 0.0
O902 O 0.2828 0.09126 0.37239 0.0
H903 H 0.2511 0.12643 0.39662 0.0
H904 H 0.2541 0.08628 0.3624 0.0
H905 H 0.31634 0.18728 0.41258 0.0
H906 H 0.3484 0.10019 0.34977 0.0
H907 H 0.34256 0.19513 0.39954 0.0
H908 H 0.3647 0.09932 0.37702 0.0
O909 O 0.28834 0.15343 0.37198 0.0
H910 H 0.28414 0.09557 0.30951 0.0
H911 H 0.24725 0.12404 0.34945 0.0
H912 H 0.24024 0.12152 0.31817 0.0
H913 H 0.25876 0.10719 0.29797 0.0
H914 H 0.29075 0.09849 0.34086 0.0
H915 H 0.2274 0.07694 0.37212 0.0
H916 H 0.21229 0.09268 0.39434 0.0
O917 O 0.26717 0.13661 0.37049 0.0
C918 C 0.29182 0.12465 0.40495 0.0
C919 C 0.23074 0.11067 0.39689 0.0
C920 C 0.23249 0.08783 0.37754 0.0
N921 N 0.25409 0.10695 0.37885 0.0
C922 C 0.24589 0.11563 0.39114 0.0
C923 C 0.24762 0.09316 0.37212 0.0
C924 C 0.22402 0.09668 0.39001 0.0
C925 C 0.33151 0.11736 0.36022 0.0
N926 N 0.32719 0.12651 0.37432 0.0
C927 C 0.34506 0.10745 0.36096 0.0
C928 C 0.35418 0.10695 0.37626 0.0
C929 C 0.34969 0.11631 0.39059 0.0
C930 C 0.33606 0.12606 0.38939 0.0
C931 C 0.34248 0.17578 0.38082 0.0
C932 C 0.31329 0.16696 0.39536 0.0
C933 C 0.33401 0.16245 0.3746 0.0
N934 N 0.31965 0.15816 0.38193 0.0
C935 C 0.32142 0.18036 0.40192 0.0
C936 C 0.33612 0.18477 0.39459 0.0
C937 C 0.27329 0.15065 0.37101 0.0
C938 C 0.27596 0.10181 0.31819 0.0
C939 C 0.25538 0.11782 0.34074 0.0
C940 C 0.25133 0.1164 0.32305 0.0
C941 C 0.26172 0.10835 0.31172 0.0
N942 N 0.26938 0.11138 0.34698 0.0
C943 C 0.27961 0.10344 0.33596 0.0
Co944 Co 0.63975 0.80718 0.87247 0.0
Co945 Co 0.61386 0.77467 0.8726 0.0
O946 O 0.62101 0.79549 0.86379 0.0
C947 C 0.64604 0.8026 0.8349 0.0
O948 O 0.64187 0.78755 0.83736 0.0
C949 C 0.58555 0.79569 0.87729 0.0
O950 O 0.59529 0.80637 0.8842 0.0
O951 O 0.61558 0.78215 0.89728 0.0
O952 O 0.63388 0.80207 0.89724 0.0
H953 H 0.61596 0.72606 0.91161 0.0
H954 H 0.61717 0.8231 0.8479 0.0
O955 O 0.64595 0.81242 0.84772 0.0
H956 H 0.61642 0.85632 0.90142 0.0
H957 H 0.67904 0.85321 0.8728 0.0
H958 H 0.66427 0.80148 0.89999 0.0
H959 H 0.63378 0.83234 0.89956 0.0
H960 H 0.65527 0.83816 0.86253 0.0
O961 O 0.59104 0.78229 0.87183 0.0
H962 H 0.62515 0.75224 0.90016 0.0
H963 H 0.58649 0.75297 0.86382 0.0
H964 H 0.68805 0.81619 0.91077 0.0
H965 H 0.59973 0.84707 0.84915 0.0
H966 H 0.69557 0.84226 0.89714 0.0
H967 H 0.59924 0.86383 0.87608 0.0
O968 O 0.65345 0.78754 0.87145 0.0
H969 H 0.59776 0.77941 0.80936 0.0
H970 H 0.62506 0.74556 0.85328 0.0
H971 H 0.62385 0.73653 0.82253 0.0
H972 H 0.61011 0.75351 0.80033 0.0
H973 H 0.59937 0.78804 0.84023 0.0
H974 H 0.5768 0.72686 0.87496 0.0
H975 H 0.59162 0.7132 0.89898 0.0
O976 O 0.63644 0.76665 0.87354 0.0
C977 C 0.62427 0.79254 0.90514 0.0
C978 C 0.60943 0.73187 0.9011 0.0
C979 C 0.58744 0.73233 0.88054 0.0
N980 N 0.60644 0.75405 0.88125 0.0
C981 C 0.61461 0.74666 0.89453 0.0
C982 C 0.59296 0.74712 0.87431 0.0
C983 C 0.59577 0.72467 0.89402 0.0
C984 C 0.61714 0.83043 0.8596 0.0
N985 N 0.62654 0.82637 0.8736 0.0
C986 C 0.60719 0.84394 0.86026 0.0
C987 C 0.60691 0.85333 0.87538 0.0
C988 C 0.61653 0.84912 0.88961 0.0
C989 C 0.62632 0.83551 0.88849 0.0
C990 C 0.67587 0.84188 0.87887 0.0
C991 C 0.66741 0.81287 0.89407 0.0
C992 C 0.66245 0.8333 0.87308 0.0
N993 N 0.65833 0.81903 0.88075 0.0
C994 C 0.68092 0.82112 0.90019 0.0
C995 C 0.68514 0.83573 0.89253 0.0
C996 C 0.65059 0.77251 0.87261 0.0
C997 C 0.60374 0.77188 0.81892 0.0
C998 C 0.61909 0.75302 0.84369 0.0
C999 C 0.61841 0.74783 0.82631 0.0
C1000 C 0.61069 0.75736 0.81386 0.0
N1001 N 0.61223 0.76728 0.84856 0.0
C1002 C 0.60463 0.77667 0.83643 0.0
Co1003 Co 0.19227 0.63999 0.87239 0.0
Co1004 Co 0.22484 0.61417 0.87294 0.0
O1005 O 0.20405 0.62121 0.86395 0.0
C1006 C 0.19702 0.646 0.83479 0.0
O1007 O 0.21207 0.64192 0.83739 0.0
C1008 C 0.20389 0.58581 0.87767 0.0
O1009 O 0.19312 0.59553 0.88445 0.0
O1010 O 0.21722 0.61603 0.89756 0.0
O1011 O 0.1973 0.63432 0.89725 0.0
H1012 H 0.27322 0.61662 0.91226 0.0
H1013 H 0.17651 0.61719 0.84795 0.0
O1014 O 0.18713 0.64597 0.84756 0.0
H1015 H 0.14305 0.61677 0.90129 0.0
H1016 H 0.14615 0.67917 0.87212 0.0
H1017 H 0.19779 0.66472 0.89972 0.0
H1018 H 0.16701 0.63416 0.8994 0.0
H1019 H 0.16131 0.65536 0.86214 0.0
O1020 O 0.21729 0.59133 0.87227 0.0
H1021 H 0.24709 0.62567 0.90058 0.0
H1022 H 0.24667 0.58682 0.86448 0.0
H1023 H 0.18297 0.68855 0.91021 0.0
H1024 H 0.15258 0.59971 0.84922 0.0
H1025 H 0.15696 0.69591 0.89637 0.0
H1026 H 0.13569 0.5994 0.87606 0.0
O1027 O 0.21188 0.65372 0.87136 0.0
H1028 H 0.22049 0.5977 0.80978 0.0
H1029 H 0.25403 0.62534 0.85373 0.0
H1030 H 0.26322 0.62397 0.82305 0.0
H1031 H 0.2464 0.61006 0.80083 0.0
H1032 H 0.21169 0.59946 0.84059 0.0
H1033 H 0.27274 0.57727 0.87585 0.0
H1034 H 0.28622 0.59225 0.89988 0.0
O1035 O 0.2328 0.63678 0.87379 0.0
C1036 C 0.2068 0.62478 0.90529 0.0
C1037 C 0.2675 0.61002 0.90175 0.0
C1038 C 0.26722 0.58792 0.88133 0.0
N1039 N 0.24544 0.60686 0.88177 0.0
C1040 C 0.25272 0.61512 0.89505 0.0
C1041 C 0.25244 0.59337 0.87497 0.0
C1042 C 0.27477 0.59634 0.89481 0.0
C1043 C 0.16914 0.61723 0.85961 0.0
N1044 N 0.17311 0.62674 0.87355 0.0
C1045 C 0.15563 0.60726 0.86028 0.0
C1046 C 0.14618 0.60707 0.87536 0.0
C1047 C 0.15031 0.61681 0.88952 0.0
C1048 C 0.16391 0.62661 0.88839 0.0
C1049 C 0.15746 0.67607 0.87828 0.0
C1050 C 0.18642 0.66779 0.89372 0.0
C1051 C 0.16611 0.66263 0.87266 0.0
N1052 N 0.18035 0.6586 0.88044 0.0
C1053 C 0.17811 0.68132 0.89967 0.0
C1054 C 0.16353 0.68545 0.89189 0.0
C1055 C 0.22691 0.6509 0.87269 0.0
C1056 C 0.22795 0.60375 0.81935 0.0
C1057 C 0.24663 0.61929 0.84414 0.0
C1058 C 0.25192 0.61852 0.82679 0.0
C1059 C 0.24247 0.61071 0.81433 0.0
N1060 N 0.23237 0.61243 0.84896 0.0
C1061 C 0.22306 0.60472 0.83683 0.0
Co1062 Co 0.35982 0.19199 0.87243 0.0
Co1063 Co 0.38565 0.22455 0.87278 0.0
O1064 O 0.37867 0.20367 0.86397 0.0
C1065 C 0.35403 0.19652 0.83475 0.0
O1066 O 0.35819 0.21157 0.83729 0.0
C1067 C 0.41412 0.20377 0.87798 0.0
O1068 O 0.40445 0.19294 0.88473 0.0
O1069 O 0.38369 0.21712 0.89745 0.0
O1070 O 0.36542 0.19717 0.89728 0.0
H1071 H 0.38301 0.27323 0.91165 0.0
H1072 H 0.38268 0.17602 0.8482 0.0
O1073 O 0.35392 0.18671 0.84759 0.0
H1074 H 0.38282 0.14291 0.9018 0.0
H1075 H 0.32054 0.14595 0.87231 0.0
H1076 H 0.33501 0.19771 0.89962 0.0
H1077 H 0.3655 0.16691 0.89966 0.0
H1078 H 0.34442 0.16099 0.86233 0.0
O1079 O 0.4085 0.21705 0.87235 0.0
H1080 H 0.37403 0.247 0.90017 0.0
H1081 H 0.41301 0.24635 0.86423 0.0
H1082 H 0.3111 0.18301 0.9101 0.0
H1083 H 0.40009 0.15205 0.84974 0.0
H1084 H 0.30374 0.15693 0.89641 0.0
H1085 H 0.40026 0.13533 0.87671 0.0
O1086 O 0.3461 0.21161 0.87118 0.0
H1087 H 0.40246 0.21965 0.80978 0.0
H1088 H 0.37456 0.25356 0.85319 0.0
H1089 H 0.37608 0.26248 0.82242 0.0
H1090 H 0.39012 0.24547 0.80048 0.0
H1091 H 0.40054 0.21113 0.84067 0.0
H1092 H 0.4225 0.27251 0.87541 0.0
H1093 H 0.40742 0.28616 0.89925 0.0
O1094 O 0.36306 0.23251 0.87343 0.0
C1095 C 0.37495 0.20673 0.90526 0.0
C1096 C 0.38965 0.26743 0.90122 0.0
C1097 C 0.41183 0.26702 0.8809 0.0
N1098 N 0.39291 0.24523 0.88145 0.0
C1099 C 0.3846 0.2526 0.89463 0.0
C1100 C 0.40642 0.25219 0.87464 0.0
C1101 C 0.40336 0.27467 0.89427 0.0
C1102 C 0.38258 0.16873 0.85992 0.0
N1103 N 0.37303 0.17281 0.87379 0.0
C1104 C 0.39251 0.1552 0.86074 0.0
C1105 C 0.39261 0.14584 0.87589 0.0
C1106 C 0.38284 0.15009 0.88998 0.0
C1107 C 0.37309 0.16371 0.8887 0.0
C1108 C 0.32365 0.15728 0.8784 0.0
C1109 C 0.33193 0.18632 0.89367 0.0
C1110 C 0.33713 0.16587 0.87278 0.0
N1111 N 0.34116 0.18015 0.88048 0.0
C1112 C 0.31836 0.17807 0.89963 0.0
C1113 C 0.31423 0.16345 0.89193 0.0
C1114 C 0.34893 0.22664 0.87235 0.0
C1115 C 0.39635 0.22719 0.81923 0.0
C1116 C 0.38067 0.24608 0.84372 0.0
C1117 C 0.38152 0.25121 0.82632 0.0
C1118 C 0.3894 0.24167 0.81401 0.0
N1119 N 0.38751 0.23187 0.84873 0.0
C1120 C 0.39529 0.22246 0.83675 0.0
Co1121 Co 0.80742 0.36024 0.87281 0.0
Co1122 Co 0.77482 0.38603 0.87273 0.0
O1123 O 0.79569 0.37892 0.86403 0.0
C1124 C 0.80285 0.35383 0.83527 0.0
O1125 O 0.7878 0.35802 0.83772 0.0
C1126 C 0.79578 0.41438 0.87746 0.0
O1127 O 0.80645 0.40465 0.88441 0.0
O1128 O 0.7822 0.38436 0.89745 0.0
O1129 O 0.80226 0.36621 0.89756 0.0
H1130 H 0.72603 0.38391 0.91148 0.0
H1131 H 0.82331 0.38273 0.84814 0.0
O1132 O 0.81267 0.35394 0.84809 0.0
H1133 H 0.85647 0.38381 0.90169 0.0
H1134 H 0.85352 0.32104 0.87339 0.0
H1135 H 0.80175 0.33584 0.90046 0.0
H1136 H 0.83253 0.36639 0.8999 0.0
H1137 H 0.83843 0.34473 0.86298 0.0
O1138 O 0.7824 0.40887 0.87196 0.0
H1139 H 0.75229 0.37475 0.9002 0.0
H1140 H 0.75311 0.41335 0.86377 0.0
H1141 H 0.8165 0.31213 0.91138 0.0
H1142 H 0.84724 0.40023 0.84932 0.0
H1143 H 0.84258 0.3046 0.8978 0.0
H1144 H 0.86397 0.40088 0.87627 0.0
O1145 O 0.78781 0.3465 0.87187 0.0
H1146 H 0.7798 0.40205 0.80949 0.0
H1147 H 0.74582 0.37473 0.85328 0.0
H1148 H 0.73693 0.37588 0.82248 0.0
H1149 H 0.75397 0.38962 0.80034 0.0
H1150 H 0.78829 0.40051 0.84041 0.0
H1151 H 0.72693 0.423 0.87474 0.0
H1152 H 0.71318 0.40819 0.89872 0.0
O1153 O 0.76684 0.36343 0.8737 0.0
C1154 C 0.79262 0.37577 0.90539 0.0
C1155 C 0.73188 0.39043 0.90098 0.0
C1156 C 0.73239 0.41238 0.88038 0.0
N1157 N 0.75415 0.39343 0.88125 0.0
C1158 C 0.74672 0.38527 0.89452 0.0
C1159 C 0.74722 0.40688 0.87425 0.0
C1160 C 0.72468 0.40406 0.89383 0.0
C1161 C 0.83062 0.38284 0.85985 0.0
N1162 N 0.82658 0.37349 0.87389 0.0
C1163 C 0.84412 0.39282 0.86047 0.0
C1164 C 0.85349 0.39319 0.8756 0.0
C1165 C 0.84928 0.38362 0.88987 0.0
C1166 C 0.83569 0.37381 0.88879 0.0
C1167 C 0.84218 0.32422 0.87943 0.0
C1168 C 0.81314 0.33269 0.89457 0.0
C1169 C 0.83357 0.33759 0.87357 0.0
N1170 N 0.81929 0.34172 0.8812 0.0
C1171 C 0.82141 0.31923 0.90077 0.0
C1172 C 0.83604 0.315 0.89313 0.0
C1173 C 0.77276 0.34931 0.87293 0.0
C1174 C 0.77224 0.39607 0.81902 0.0
C1175 C 0.75331 0.38071 0.84372 0.0
C1176 C 0.7482 0.38135 0.8263 0.0
C1177 C 0.75776 0.38907 0.81389 0.0
N1178 N 0.76753 0.38761 0.84865 0.0
C1179 C 0.77696 0.39522 0.83656 0.0
Co1180 Co 0.64011 0.19331 0.12678 0.0
Co1181 Co 0.61439 0.22596 0.1271 0.0
O1182 O 0.62154 0.20509 0.13576 0.0
C1183 C 0.64687 0.19774 0.16429 0.0
O1184 O 0.64276 0.21282 0.16196 0.0
C1185 C 0.58592 0.20511 0.12273 0.0
O1186 O 0.59553 0.19444 0.11558 0.0
O1187 O 0.61576 0.21852 0.10238 0.0
O1188 O 0.63398 0.19854 0.1021 0.0
H1189 H 0.61624 0.27464 0.08818 0.0
H1190 H 0.61772 0.17745 0.1516 0.0
O1191 O 0.64656 0.18797 0.15142 0.0
H1192 H 0.61614 0.14441 0.09797 0.0
H1193 H 0.67911 0.14706 0.12574 0.0
H1194 H 0.66434 0.19896 0.09895 0.0
H1195 H 0.63367 0.16828 0.09969 0.0
H1196 H 0.65556 0.16222 0.13639 0.0
O1197 O 0.59154 0.21845 0.12821 0.0
H1198 H 0.62543 0.24839 0.09941 0.0
H1199 H 0.58725 0.24778 0.13635 0.0
H1200 H 0.68791 0.18414 0.08779 0.0
H1201 H 0.60012 0.1536 0.1505 0.0
H1202 H 0.69543 0.15799 0.10122 0.0
H1203 H 0.59922 0.13693 0.12352 0.0
O1204 O 0.65392 0.21287 0.12767 0.0
H1205 H 0.59904 0.22123 0.19056 0.0
H1206 H 0.62603 0.25496 0.1463 0.0
H1207 H 0.62524 0.26396 0.17708 0.0
H1208 H 0.61167 0.24704 0.19945 0.0
H1209 H 0.60023 0.21263 0.15965 0.0
H1210 H 0.57756 0.27397 0.12544 0.0
H1211 H 0.59214 0.2876 0.10122 0.0
O1212 O 0.637 0.23386 0.12579 0.0
C1213 C 0.62432 0.20813 0.09436 0.0
C1214 C 0.60982 0.26885 0.09878 0.0
C1215 C 0.5881 0.26846 0.11967 0.0
N1216 N 0.60696 0.24663 0.11861 0.0
C1217 C 0.61499 0.254 0.10522 0.0
C1218 C 0.59362 0.25362 0.12577 0.0
C1219 C 0.59628 0.2761 0.10609 0.0
C1220 C 0.61751 0.17016 0.13988 0.0
N1221 N 0.62677 0.1742 0.12576 0.0
C1222 C 0.60747 0.15671 0.1393 0.0
C1223 C 0.60695 0.14738 0.12415 0.0
C1224 C 0.61644 0.15157 0.10981 0.0
C1225 C 0.62632 0.16512 0.11085 0.0
C1226 C 0.67594 0.15842 0.11976 0.0
C1227 C 0.66748 0.18754 0.10478 0.0
C1228 C 0.66264 0.16707 0.12576 0.0
N1229 N 0.65852 0.18139 0.1182 0.0
C1230 C 0.68087 0.17923 0.09844 0.0
C1231 C 0.68509 0.16456 0.10599 0.0
C1232 C 0.65112 0.22792 0.12651 0.0
C1233 C 0.60495 0.22873 0.18092 0.0
C1234 C 0.62012 0.24752 0.15596 0.0
C1235 C 0.61969 0.25269 0.17336 0.0
C1236 C 0.61206 0.2432 0.18591 0.0
N1237 N 0.61312 0.23332 0.15118 0.0
C1238 C 0.6056 0.22395 0.16339 0.0
Co1239 Co 0.80784 0.64023 0.12714 0.0
Co1240 Co 0.77531 0.61438 0.1268 0.0
O1241 O 0.79614 0.62144 0.13566 0.0
C1242 C 0.8033 0.64623 0.16479 0.0
O1243 O 0.78825 0.64208 0.1623 0.0
C1244 C 0.79623 0.58603 0.12191 0.0
O1245 O 0.80688 0.59573 0.11487 0.0
O1246 O 0.78279 0.61624 0.10213 0.0
O1247 O 0.80268 0.63456 0.10231 0.0
H1248 H 0.72669 0.61679 0.08782 0.0
H1249 H 0.82375 0.61743 0.15147 0.0
O1250 O 0.81311 0.64623 0.15196 0.0
H1251 H 0.85692 0.61707 0.09791 0.0
H1252 H 0.85392 0.67946 0.12712 0.0
H1253 H 0.80215 0.66496 0.09985 0.0
H1254 H 0.83296 0.63445 0.09997 0.0
H1255 H 0.83885 0.65564 0.13719 0.0
O1256 O 0.78289 0.59155 0.12747 0.0
H1257 H 0.75289 0.62586 0.09931 0.0
H1258 H 0.75356 0.587 0.13541 0.0
H1259 H 0.81689 0.68881 0.08927 0.0
H1260 H 0.84768 0.59996 0.15002 0.0
H1261 H 0.84297 0.69619 0.10294 0.0
H1262 H 0.86442 0.59967 0.12307 0.0
O1263 O 0.78822 0.65395 0.12832 0.0
H1264 H 0.77999 0.59793 0.18994 0.0
H1265 H 0.7462 0.62553 0.14619 0.0
H1266 H 0.73716 0.62416 0.17692 0.0
H1267 H 0.75411 0.61028 0.19904 0.0
H1268 H 0.78863 0.5997 0.15908 0.0
H1269 H 0.72743 0.57743 0.12422 0.0
H1270 H 0.71379 0.5924 0.1003 0.0
O1271 O 0.76732 0.63698 0.12599 0.0
C1272 C 0.79315 0.62501 0.09433 0.0
C1273 C 0.73248 0.61019 0.09829 0.0
C1274 C 0.73291 0.58809 0.1187 0.0
N1275 N 0.75467 0.60705 0.11811 0.0
C1276 C 0.74729 0.6153 0.10488 0.0
C1277 C 0.74772 0.59354 0.12496 0.0
C1278 C 0.72526 0.5965 0.10528 0.0
C1279 C 0.83106 0.61748 0.13976 0.0
N1280 N 0.82701 0.627 0.12586 0.0
C1281 C 0.84456 0.60752 0.13899 0.0
C1282 C 0.85394 0.60735 0.12386 0.0
C1283 C 0.84973 0.6171 0.10973 0.0
C1284 C 0.83613 0.62689 0.11096 0.0
C1285 C 0.84259 0.67635 0.12104 0.0
C1286 C 0.81355 0.66805 0.10579 0.0
C1287 C 0.83398 0.6629 0.12671 0.0
N1288 N 0.8197 0.65886 0.11902 0.0
C1289 C 0.82181 0.68159 0.09978 0.0
C1290 C 0.83644 0.68573 0.10747 0.0
C1291 C 0.77319 0.65111 0.12708 0.0
C1292 C 0.77248 0.60397 0.18041 0.0
C1293 C 0.75366 0.61949 0.15573 0.0
C1294 C 0.74846 0.61873 0.17311 0.0
C1295 C 0.75797 0.61093 0.18552 0.0
N1296 N 0.7679 0.61264 0.15083 0.0
C1297 C 0.77728 0.60495 0.16291 0.0
Co1298 Co 0.36037 0.8079 0.1264 0.0
Co1299 Co 0.38571 0.77497 0.12593 0.0
O1300 O 0.37895 0.79585 0.1349 0.0
C1301 C 0.35417 0.80313 0.16395 0.0
O1302 O 0.35805 0.78803 0.16129 0.0
C1303 C 0.41432 0.79557 0.12127 0.0
O1304 O 0.40474 0.80638 0.11435 0.0
O1305 O 0.38401 0.78261 0.1013 0.0
O1306 O 0.36605 0.80283 0.10155 0.0
H1307 H 0.38268 0.7266 0.08663 0.0
H1308 H 0.38332 0.82328 0.15097 0.0
O1309 O 0.35438 0.81307 0.15123 0.0
H1310 H 0.38442 0.85681 0.0977 0.0
H1311 H 0.32186 0.85458 0.12662 0.0
H1312 H 0.33566 0.8028 0.09895 0.0
H1313 H 0.36666 0.83312 0.09947 0.0
H1314 H 0.34541 0.83906 0.13666 0.0
O1315 O 0.40865 0.78223 0.12668 0.0
H1316 H 0.37396 0.75286 0.09828 0.0
H1317 H 0.41277 0.75279 0.13444 0.0
H1318 H 0.31208 0.81798 0.0884 0.0
H1319 H 0.40116 0.84695 0.14981 0.0
H1320 H 0.30505 0.84407 0.10228 0.0
H1321 H 0.40182 0.86387 0.123 0.0
O1322 O 0.34636 0.78849 0.12733 0.0
H1323 H 0.40211 0.77908 0.18913 0.0
H1324 H 0.37412 0.74592 0.1451 0.0
H1325 H 0.37531 0.7367 0.17578 0.0
H1326 H 0.38939 0.75333 0.19804 0.0
H1327 H 0.40052 0.78791 0.15833 0.0
H1328 H 0.422 0.72659 0.1231 0.0
H1329 H 0.40687 0.71329 0.09906 0.0
O1330 O 0.363 0.76732 0.12502 0.0
C1331 C 0.37546 0.79317 0.09355 0.0
C1332 C 0.38934 0.73225 0.09714 0.0
C1333 C 0.41142 0.73225 0.1176 0.0
N1334 N 0.39277 0.75427 0.11712 0.0
C1335 C 0.38444 0.74709 0.10383 0.0
C1336 C 0.40616 0.7471 0.12394 0.0
C1337 C 0.40293 0.7248 0.10411 0.0
C1338 C 0.38343 0.83067 0.13933 0.0
N1339 N 0.3739 0.82687 0.12534 0.0
C1340 C 0.3936 0.84402 0.13872 0.0
C1341 C 0.39398 0.8535 0.12366 0.0
C1342 C 0.38423 0.84954 0.10945 0.0
C1343 C 0.37422 0.83609 0.11052 0.0
C1344 C 0.32482 0.84324 0.12045 0.0
C1345 C 0.33273 0.81419 0.10497 0.0
C1346 C 0.33811 0.83439 0.1261 0.0
N1347 N 0.34196 0.82011 0.1183 0.0
C1348 C 0.31934 0.82271 0.09898 0.0
C1349 C 0.3154 0.83734 0.10679 0.0
C1350 C 0.34896 0.77342 0.12605 0.0
C1351 C 0.39598 0.77171 0.17954 0.0
C1352 C 0.38025 0.75324 0.15471 0.0
C1353 C 0.38091 0.74794 0.17206 0.0
C1354 C 0.38882 0.75727 0.18454 0.0
N1355 N 0.38731 0.76741 0.14991 0.0
C1356 C 0.39511 0.77661 0.16207 0.0
Co1357 Co 0.19253 0.36049 0.12683 0.0
Co1358 Co 0.22542 0.38591 0.12677 0.0
O1359 O 0.20444 0.37912 0.13548 0.0
C1360 C 0.19684 0.35426 0.16446 0.0
O1361 O 0.21194 0.35829 0.16211 0.0
C1362 C 0.20493 0.41457 0.12166 0.0
O1363 O 0.19402 0.40498 0.11493 0.0
O1364 O 0.21806 0.38416 0.10205 0.0
O1365 O 0.19784 0.36619 0.10205 0.0
H1366 H 0.27419 0.38286 0.08806 0.0
H1367 H 0.1768 0.38337 0.1512 0.0
O1368 O 0.1871 0.35445 0.15157 0.0
H1369 H 0.14386 0.38438 0.09749 0.0
H1370 H 0.14597 0.32184 0.12642 0.0
H1371 H 0.19803 0.33578 0.09947 0.0
H1372 H 0.1676 0.36671 0.09956 0.0
H1373 H 0.16129 0.34544 0.13665 0.0
O1374 O 0.21818 0.40885 0.12727 0.0
H1375 H 0.24782 0.37413 0.09941 0.0
H1376 H 0.24751 0.41299 0.13551 0.0
H1377 H 0.18305 0.31215 0.08872 0.0
H1378 H 0.15307 0.40111 0.14975 0.0
H1379 H 0.15682 0.30505 0.10223 0.0
H1380 H 0.13644 0.40173 0.12272 0.0
O1381 O 0.21197 0.34652 0.12803 0.0
H1382 H 0.22058 0.40255 0.18982 0.0
H1383 H 0.25424 0.37439 0.14638 0.0
H1384 H 0.26312 0.37571 0.17718 0.0
H1385 H 0.24624 0.38988 0.19914 0.0
H1386 H 0.2121 0.40083 0.1589 0.0
H1387 H 0.27381 0.42222 0.12446 0.0
H1388 H 0.28736 0.40707 0.10061 0.0
O1389 O 0.23311 0.36322 0.12604 0.0
C1390 C 0.20757 0.37561 0.09416 0.0
C1391 C 0.26844 0.38953 0.0985 0.0
C1392 C 0.26821 0.41163 0.11891 0.0
N1393 N 0.24621 0.39296 0.1182 0.0
C1394 C 0.25353 0.38462 0.10501 0.0
C1395 C 0.25331 0.40637 0.12509 0.0
C1396 C 0.27581 0.40312 0.10553 0.0
C1397 C 0.16953 0.38346 0.13946 0.0
N1398 N 0.17353 0.37396 0.12552 0.0
C1399 C 0.15615 0.39358 0.13869 0.0
C1400 C 0.14684 0.39393 0.12351 0.0
C1401 C 0.151 0.38421 0.10934 0.0
C1402 C 0.16448 0.37426 0.11058 0.0
C1403 C 0.15737 0.32483 0.1204 0.0
C1404 C 0.18658 0.33282 0.10533 0.0
C1405 C 0.16611 0.33816 0.12617 0.0
N1406 N 0.18047 0.34204 0.11857 0.0
C1407 C 0.17817 0.3194 0.09923 0.0
C1408 C 0.16346 0.31542 0.10683 0.0
C1409 C 0.22705 0.34917 0.12697 0.0
C1410 C 0.22807 0.39638 0.18037 0.0
C1411 C 0.24682 0.38055 0.15586 0.0
C1412 C 0.25192 0.38129 0.17328 0.0
C1413 C 0.24245 0.38925 0.18559 0.0
N1414 N 0.2327 0.38759 0.15084 0.0
C1415 C 0.22336 0.39543 0.16283 0.0
Co1416 Co 0.36067 0.19323 0.12685 0.0
Co1417 Co 0.38612 0.22606 0.12582 0.0
O1418 O 0.37939 0.20525 0.13502 0.0
C1419 C 0.35496 0.19813 0.16449 0.0
O1420 O 0.35882 0.21322 0.16172 0.0
C1421 C 0.41465 0.20536 0.12102 0.0
O1422 O 0.40498 0.19449 0.11435 0.0
O1423 O 0.38415 0.21827 0.10127 0.0
O1424 O 0.36605 0.19818 0.10189 0.0
H1425 H 0.38281 0.27419 0.0862 0.0
H1426 H 0.38388 0.17785 0.15114 0.0
O1427 O 0.35499 0.18816 0.1518 0.0
H1428 H 0.38418 0.14413 0.098 0.0
H1429 H 0.32202 0.14668 0.12787 0.0
H1430 H 0.33562 0.19831 0.09977 0.0
H1431 H 0.36653 0.16789 0.09994 0.0
H1432 H 0.34575 0.16215 0.13748 0.0
O1433 O 0.40905 0.21876 0.12633 0.0
H1434 H 0.37414 0.24803 0.09815 0.0
H1435 H 0.41332 0.24823 0.13384 0.0
H1436 H 0.31186 0.18317 0.08965 0.0
H1437 H 0.40163 0.15412 0.14981 0.0
H1438 H 0.30493 0.15715 0.10374 0.0
H1439 H 0.40188 0.1371 0.12307 0.0
O1440 O 0.34673 0.21269 0.12793 0.0
H1441 H 0.40314 0.22228 0.18885 0.0
H1442 H 0.37481 0.25526 0.14492 0.0
H1443 H 0.37631 0.26465 0.17552 0.0
H1444 H 0.39057 0.24811 0.19772 0.0
H1445 H 0.40122 0.21327 0.15812 0.0
H1446 H 0.42248 0.27434 0.1222 0.0
H1447 H 0.40714 0.28752 0.09825 0.0
O1448 O 0.36342 0.23377 0.12514 0.0
C1449 C 0.37543 0.20773 0.09369 0.0
C1450 C 0.38956 0.2686 0.09668 0.0
C1451 C 0.41184 0.26867 0.11686 0.0
N1452 N 0.39314 0.24668 0.11677 0.0
C1453 C 0.38469 0.25381 0.10352 0.0
C1454 C 0.40661 0.25387 0.12338 0.0
C1455 C 0.40323 0.27606 0.10343 0.0
C1456 C 0.38382 0.17042 0.13952 0.0
N1457 N 0.37413 0.17421 0.12567 0.0
C1458 C 0.39394 0.15703 0.13882 0.0
C1459 C 0.39409 0.1475 0.1238 0.0
C1460 C 0.38417 0.15144 0.10972 0.0
C1461 C 0.37422 0.16493 0.11089 0.0
C1462 C 0.32493 0.15798 0.12161 0.0
C1463 C 0.33273 0.18695 0.10589 0.0
C1464 C 0.33833 0.16681 0.12702 0.0
N1465 N 0.34212 0.18105 0.11909 0.0
C1466 C 0.31924 0.17845 0.10014 0.0
C1467 C 0.31535 0.16387 0.10806 0.0
C1468 C 0.34937 0.22774 0.12647 0.0
C1469 C 0.39693 0.22961 0.17928 0.0
C1470 C 0.38101 0.24798 0.1545 0.0
C1471 C 0.38185 0.25338 0.17181 0.0
C1472 C 0.38986 0.2441 0.18426 0.0
N1473 N 0.38798 0.23376 0.14972 0.0
C1474 C 0.39587 0.22461 0.16185 0.0
Co1475 Co 0.80776 0.36079 0.12651 0.0
Co1476 Co 0.77508 0.38647 0.12644 0.0
O1477 O 0.79598 0.37947 0.13517 0.0
C1478 C 0.80334 0.35457 0.16412 0.0
O1479 O 0.78826 0.35867 0.16172 0.0
C1480 C 0.79594 0.41484 0.1215 0.0
O1481 O 0.80661 0.40511 0.11456 0.0
O1482 O 0.78244 0.38469 0.10171 0.0
O1483 O 0.80251 0.36656 0.10173 0.0
H1484 H 0.72626 0.38395 0.08776 0.0
H1485 H 0.82362 0.38352 0.15094 0.0
O1486 O 0.81311 0.35468 0.15126 0.0
H1487 H 0.85664 0.38437 0.09729 0.0
H1488 H 0.85403 0.32179 0.1261 0.0
H1489 H 0.80212 0.33617 0.09908 0.0
H1490 H 0.83278 0.36685 0.0993 0.0
H1491 H 0.83886 0.34548 0.13637 0.0
O1492 O 0.78258 0.40933 0.12707 0.0
H1493 H 0.75256 0.37496 0.09906 0.0
H1494 H 0.75328 0.41375 0.13524 0.0
H1495 H 0.81694 0.31246 0.0883 0.0
H1496 H 0.84746 0.40112 0.14954 0.0
H1497 H 0.8431 0.30513 0.10185 0.0
H1498 H 0.86412 0.40165 0.12254 0.0
O1499 O 0.7882 0.34697 0.12763 0.0
H1500 H 0.78001 0.40286 0.18957 0.0
H1501 H 0.74614 0.37514 0.14598 0.0
H1502 H 0.73725 0.37643 0.17678 0.0
H1503 H 0.75424 0.39037 0.19881 0.0
H1504 H 0.7885 0.40117 0.15866 0.0
H1505 H 0.72705 0.42325 0.12424 0.0
H1506 H 0.71333 0.40826 0.10037 0.0
O1507 O 0.76718 0.36383 0.12562 0.0
C1508 C 0.79285 0.37604 0.09383 0.0
C1509 C 0.73209 0.39055 0.0982 0.0
C1510 C 0.73254 0.41262 0.11866 0.0
N1511 N 0.75437 0.39374 0.11789 0.0
C1512 C 0.74695 0.38549 0.10469 0.0
C1513 C 0.7474 0.40721 0.12481 0.0
C1514 C 0.72485 0.4042 0.10527 0.0
C1515 C 0.8309 0.38358 0.13921 0.0
N1516 N 0.82686 0.37411 0.12526 0.0
C1517 C 0.84434 0.39361 0.13847 0.0
C1518 C 0.85368 0.39392 0.12331 0.0
C1519 C 0.84948 0.38423 0.10913 0.0
C1520 C 0.83594 0.37436 0.11033 0.0
C1521 C 0.84266 0.32487 0.12007 0.0
C1522 C 0.81354 0.33311 0.10496 0.0
C1523 C 0.83401 0.33825 0.12585 0.0
N1524 N 0.81969 0.34226 0.11823 0.0
C1525 C 0.82186 0.31965 0.09884 0.0
C1526 C 0.83652 0.31554 0.10646 0.0
C1527 C 0.77315 0.34973 0.12652 0.0
C1528 C 0.77248 0.39679 0.18008 0.0
C1529 C 0.75361 0.38121 0.1555 0.0
C1530 C 0.7485 0.38193 0.17291 0.0
C1531 C 0.75803 0.38976 0.18526 0.0
N1532 N 0.76779 0.38814 0.15052 0.0
C1533 C 0.77719 0.39586 0.16255 0.0
Co1534 Co 0.63959 0.80713 0.12631 0.0
Co1535 Co 0.61408 0.77432 0.12591 0.0
O1536 O 0.62095 0.79519 0.13483 0.0
C1537 C 0.64577 0.80236 0.16385 0.0
O1538 O 0.64175 0.78729 0.16124 0.0
C1539 C 0.58561 0.79509 0.12112 0.0
O1540 O 0.59531 0.80589 0.11435 0.0
O1541 O 0.61589 0.78187 0.10126 0.0
O1542 O 0.63386 0.80209 0.10148 0.0
H1543 H 0.61695 0.72581 0.0868 0.0
H1544 H 0.61676 0.82266 0.1509 0.0
O1545 O 0.64564 0.81228 0.15112 0.0
H1546 H 0.61581 0.85618 0.09761 0.0
H1547 H 0.67838 0.85358 0.12646 0.0
H1548 H 0.66425 0.80187 0.09885 0.0
H1549 H 0.63342 0.83237 0.09937 0.0
H1550 H 0.65474 0.83821 0.13653 0.0
O1551 O 0.59117 0.78171 0.12652 0.0
H1552 H 0.62579 0.75206 0.09838 0.0
H1553 H 0.58687 0.75232 0.13441 0.0
H1554 H 0.68791 0.8169 0.08826 0.0
H1555 H 0.59906 0.84644 0.14975 0.0
H1556 H 0.6951 0.84296 0.10211 0.0
H1557 H 0.59848 0.86335 0.12293 0.0
O1558 O 0.65349 0.78764 0.12725 0.0
H1559 H 0.59751 0.77875 0.18903 0.0
H1560 H 0.62545 0.74528 0.14524 0.0
H1561 H 0.62412 0.73617 0.17596 0.0
H1562 H 0.61007 0.75296 0.19809 0.0
H1563 H 0.59924 0.78746 0.15819 0.0
H1564 H 0.57753 0.72614 0.12313 0.0
H1565 H 0.59266 0.71268 0.0992 0.0
O1566 O 0.63675 0.76654 0.12512 0.0
C1567 C 0.62445 0.79242 0.09349 0.0
C1568 C 0.61029 0.73153 0.09727 0.0
C1569 C 0.58815 0.73172 0.11765 0.0
N1570 N 0.60693 0.75364 0.11715 0.0
C1571 C 0.61526 0.74637 0.10392 0.0
C1572 C 0.59348 0.74656 0.12396 0.0
C1573 C 0.59665 0.72418 0.10423 0.0
C1574 C 0.61668 0.83005 0.13925 0.0
N1575 N 0.62617 0.82618 0.12525 0.0
C1576 C 0.60659 0.84346 0.13864 0.0
C1577 C 0.60625 0.85293 0.12358 0.0
C1578 C 0.61597 0.84891 0.10937 0.0
C1579 C 0.62589 0.8354 0.11043 0.0
C1580 C 0.67535 0.84226 0.1203 0.0
C1581 C 0.66725 0.81325 0.10486 0.0
C1582 C 0.662 0.83349 0.12597 0.0
N1583 N 0.65806 0.81923 0.11819 0.0
C1584 C 0.68069 0.82168 0.09885 0.0
C1585 C 0.68472 0.83629 0.10663 0.0
C1586 C 0.65082 0.77258 0.12608 0.0
C1587 C 0.60363 0.7713 0.1795 0.0
C1588 C 0.61933 0.75266 0.1548 0.0
C1589 C 0.61859 0.74742 0.17217 0.0
C1590 C 0.6107 0.75685 0.18458 0.0
N1591 N 0.61237 0.76686 0.14992 0.0
C1592 C 0.60458 0.77614 0.162 0.0
Co1593 Co 0.19235 0.64051 0.12646 0.0
Co1594 Co 0.22519 0.61503 0.12613 0.0
O1595 O 0.20429 0.62185 0.13501 0.0
C1596 C 0.19702 0.6467 0.16404 0.0
O1597 O 0.21209 0.64263 0.1615 0.0
C1598 C 0.20461 0.5864 0.12123 0.0
O1599 O 0.19368 0.59599 0.11456 0.0
O1600 O 0.21766 0.6168 0.10147 0.0
O1601 O 0.19746 0.63478 0.10164 0.0
H1602 H 0.27372 0.61801 0.08706 0.0
H1603 H 0.17677 0.61767 0.151 0.0
O1604 O 0.18715 0.64656 0.15126 0.0
H1605 H 0.14339 0.61672 0.09761 0.0
H1606 H 0.14588 0.67927 0.1265 0.0
H1607 H 0.19767 0.66518 0.09902 0.0
H1608 H 0.16719 0.63433 0.09944 0.0
H1609 H 0.16124 0.65564 0.1366 0.0
O1610 O 0.21791 0.5921 0.12671 0.0
H1611 H 0.24743 0.62677 0.0986 0.0
H1612 H 0.24729 0.58792 0.13471 0.0
H1613 H 0.18264 0.68883 0.0884 0.0
H1614 H 0.15299 0.59998 0.14979 0.0
H1615 H 0.15655 0.69601 0.10218 0.0
H1616 H 0.13614 0.5994 0.12292 0.0
O1617 O 0.21183 0.65444 0.12747 0.0
H1618 H 0.22072 0.59845 0.18924 0.0
H1619 H 0.25418 0.62649 0.14552 0.0
H1620 H 0.26323 0.62519 0.17625 0.0
H1621 H 0.24645 0.61109 0.19836 0.0
H1622 H 0.21205 0.60015 0.15838 0.0
H1623 H 0.27352 0.57866 0.12347 0.0
H1624 H 0.28694 0.59379 0.09952 0.0
O1625 O 0.23293 0.6377 0.12535 0.0
C1626 C 0.20712 0.62535 0.09367 0.0
C1627 C 0.26802 0.61135 0.09754 0.0
C1628 C 0.2679 0.58925 0.11796 0.0
N1629 N 0.24591 0.60794 0.11741 0.0
C1630 C 0.25316 0.61628 0.10416 0.0
C1631 C 0.25304 0.59453 0.12424 0.0
C1632 C 0.27542 0.59775 0.10452 0.0
C1633 C 0.16941 0.6176 0.13933 0.0
N1634 N 0.17331 0.62708 0.12535 0.0
C1635 C 0.156 0.60751 0.13869 0.0
C1636 C 0.14656 0.60717 0.1236 0.0
C1637 C 0.15063 0.61688 0.1094 0.0
C1638 C 0.16414 0.6268 0.1105 0.0
C1639 C 0.15722 0.67625 0.12037 0.0
C1640 C 0.18627 0.66817 0.105 0.0
C1641 C 0.16598 0.66291 0.12606 0.0
N1642 N 0.18027 0.65898 0.11831 0.0
C1643 C 0.17784 0.6816 0.09897 0.0
C1644 C 0.16321 0.68563 0.10672 0.0
C1645 C 0.2269 0.65177 0.12631 0.0
C1646 C 0.22816 0.60459 0.17972 0.0
C1647 C 0.2468 0.62035 0.15506 0.0
C1648 C 0.252 0.61963 0.17244 0.0
C1649 C 0.24258 0.61171 0.18483 0.0
N1650 N 0.23263 0.61334 0.15015 0.0
C1651 C 0.22335 0.60553 0.16222 0.0
Co1652 Co 0.36023 0.80708 0.87236 0.0
Co1653 Co 0.38607 0.77454 0.8728 0.0
O1654 O 0.37897 0.79531 0.86382 0.0
C1655 C 0.35404 0.80224 0.83482 0.0
O1656 O 0.35817 0.7872 0.83744 0.0
C1657 C 0.41441 0.79554 0.87736 0.0
O1658 O 0.40471 0.80622 0.88434 0.0
O1659 O 0.38433 0.78219 0.89742 0.0
O1660 O 0.36603 0.80211 0.89719 0.0
H1661 H 0.38387 0.72618 0.91217 0.0
H1662 H 0.3829 0.82281 0.84775 0.0
O1663 O 0.35411 0.81216 0.84755 0.0
H1664 H 0.38356 0.85636 0.90101 0.0
H1665 H 0.321 0.85316 0.87222 0.0
H1666 H 0.33564 0.80159 0.89985 0.0
H1667 H 0.36617 0.83239 0.89928 0.0
H1668 H 0.34477 0.83801 0.86214 0.0
O1669 O 0.40889 0.78213 0.87196 0.0
H1670 H 0.37473 0.75229 0.90052 0.0
H1671 H 0.41343 0.75275 0.86422 0.0
H1672 H 0.31184 0.81641 0.91044 0.0
H1673 H 0.40037 0.84675 0.84887 0.0
H1674 H 0.30439 0.84239 0.89659 0.0
H1675 H 0.40081 0.86368 0.87567 0.0
O1676 O 0.34651 0.78746 0.87144 0.0
H1677 H 0.40221 0.77882 0.80953 0.0
H1678 H 0.37484 0.7453 0.8537 0.0
H1679 H 0.37606 0.73607 0.82303 0.0
H1680 H 0.38983 0.75288 0.8007 0.0
H1681 H 0.40059 0.78766 0.84033 0.0
H1682 H 0.42307 0.7267 0.87556 0.0
H1683 H 0.40821 0.71321 0.89967 0.0
O1684 O 0.36347 0.76655 0.87378 0.0
C1685 C 0.37563 0.79262 0.90518 0.0
C1686 C 0.39042 0.73191 0.90163 0.0
C1687 C 0.41243 0.73222 0.88109 0.0
N1688 N 0.39346 0.75396 0.88161 0.0
C1689 C 0.38527 0.74667 0.89494 0.0
C1690 C 0.40693 0.74698 0.87475 0.0
C1691 C 0.40408 0.72465 0.89462 0.0
C1692 C 0.38291 0.8302 0.85939 0.0
N1693 N 0.37347 0.82626 0.87339 0.0
C1694 C 0.39288 0.84371 0.85998 0.0
C1695 C 0.39314 0.85319 0.87503 0.0
C1696 C 0.38347 0.84909 0.88926 0.0
C1697 C 0.37367 0.83548 0.88821 0.0
C1698 C 0.32414 0.84187 0.87838 0.0
C1699 C 0.33252 0.81294 0.89384 0.0
C1700 C 0.33757 0.83323 0.87271 0.0
N1701 N 0.34165 0.819 0.8805 0.0
C1702 C 0.31901 0.82125 0.89985 0.0
C1703 C 0.31483 0.83582 0.89206 0.0
C1704 C 0.34934 0.77243 0.87275 0.0
C1705 C 0.39622 0.77137 0.81915 0.0
C1706 C 0.38083 0.7527 0.84406 0.0
C1707 C 0.38151 0.74739 0.82672 0.0
C1708 C 0.38925 0.75682 0.8142 0.0
N1709 N 0.3877 0.76698 0.84882 0.0
C1710 C 0.39533 0.77628 0.83662 0.0
Co1711 Co 0.19337 0.36061 0.87293 0.0
Co1712 Co 0.22599 0.38634 0.87335 0.0
O1713 O 0.20515 0.37937 0.86446 0.0
C1714 C 0.19801 0.35469 0.83531 0.0
O1715 O 0.21306 0.35879 0.83788 0.0
C1716 C 0.20505 0.41467 0.87826 0.0
O1717 O 0.19439 0.40492 0.88521 0.0
O1718 O 0.2185 0.38442 0.89802 0.0
O1719 O 0.19849 0.36623 0.89777 0.0
H1720 H 0.2746 0.38372 0.91235 0.0
H1721 H 0.17758 0.38349 0.84859 0.0
O1722 O 0.18815 0.35467 0.8481 0.0
H1723 H 0.1443 0.38388 0.90206 0.0
H1724 H 0.14718 0.32151 0.87275 0.0
H1725 H 0.19892 0.33582 0.90019 0.0
H1726 H 0.1682 0.36644 0.90004 0.0
H1727 H 0.16234 0.34531 0.86276 0.0
O1728 O 0.21844 0.40919 0.87278 0.0
H1729 H 0.24839 0.37472 0.9008 0.0
H1730 H 0.24778 0.41372 0.86488 0.0
H1731 H 0.1841 0.312 0.91068 0.0
H1732 H 0.1537 0.40103 0.85 0.0
H1733 H 0.15803 0.30471 0.89692 0.0
H1734 H 0.1369 0.40133 0.87691 0.0
O1735 O 0.21294 0.34685 0.87178 0.0
H1736 H 0.22137 0.403 0.81028 0.0
H1737 H 0.25508 0.3752 0.85395 0.0
H1738 H 0.26414 0.37665 0.82322 0.0
H1739 H 0.24723 0.39063 0.80114 0.0
H1740 H 0.21271 0.40115 0.84112 0.0
H1741 H 0.27393 0.42321 0.87613 0.0
H1742 H 0.28754 0.40813 0.89998 0.0
O1743 O 0.23394 0.36371 0.87407 0.0
C1744 C 0.20807 0.37571 0.90578 0.0
C1745 C 0.26881 0.39036 0.90191 0.0
C1746 C 0.26843 0.41254 0.88159 0.0
N1747 N 0.24664 0.39361 0.88209 0.0
C1748 C 0.254 0.3853 0.89528 0.0
C1749 C 0.25361 0.40713 0.8753 0.0
C1750 C 0.27606 0.40407 0.89498 0.0
C1751 C 0.17024 0.38344 0.86028 0.0
N1752 N 0.17423 0.37389 0.87418 0.0
C1753 C 0.15677 0.39345 0.86103 0.0
C1754 C 0.14736 0.39363 0.87614 0.0
C1755 C 0.15151 0.38385 0.89026 0.0
C1756 C 0.16508 0.37402 0.88905 0.0
C1757 C 0.15851 0.32458 0.87887 0.0
C1758 C 0.18753 0.33278 0.89422 0.0
C1759 C 0.16716 0.33802 0.87325 0.0
N1760 N 0.18143 0.34201 0.88099 0.0
C1761 C 0.17922 0.31925 0.90018 0.0
C1762 C 0.1646 0.31516 0.89244 0.0
C1763 C 0.22799 0.34961 0.87298 0.0
C1764 C 0.22886 0.39691 0.81978 0.0
C1765 C 0.24765 0.38129 0.84442 0.0
C1766 C 0.25285 0.38209 0.82704 0.0
C1767 C 0.24336 0.38995 0.81466 0.0
N1768 N 0.23341 0.38815 0.84934 0.0
C1769 C 0.22405 0.39589 0.83728 0.0
Co1770 Co 0.64007 0.19259 0.87362 0.0
Co1771 Co 0.61418 0.2251 0.87309 0.0
O1772 O 0.62137 0.20418 0.86466 0.0
C1773 C 0.64657 0.19702 0.8361 0.0
O1774 O 0.64238 0.21207 0.83852 0.0
C1775 C 0.58582 0.20419 0.87805 0.0
O1776 O 0.59552 0.1935 0.885 0.0
O1777 O 0.61583 0.21794 0.89789 0.0
O1778 O 0.63398 0.19789 0.8983 0.0
H1779 H 0.6161 0.27421 0.91138 0.0
H1780 H 0.61774 0.17644 0.84895 0.0
O1781 O 0.64645 0.18722 0.84894 0.0
H1782 H 0.61659 0.14362 0.90275 0.0
H1783 H 0.67943 0.14663 0.87465 0.0
H1784 H 0.66434 0.19848 0.90135 0.0
H1785 H 0.63389 0.16764 0.90086 0.0
H1786 H 0.65573 0.16159 0.86404 0.0
O1787 O 0.59137 0.21749 0.87238 0.0
H1788 H 0.62534 0.24789 0.90039 0.0
H1789 H 0.58687 0.2467 0.86381 0.0
H1790 H 0.68806 0.18387 0.91246 0.0
H1791 H 0.60035 0.15243 0.85022 0.0
H1792 H 0.69574 0.15775 0.89908 0.0
H1793 H 0.59967 0.13587 0.87729 0.0
O1794 O 0.65377 0.21223 0.8726 0.0
H1795 H 0.59831 0.2195 0.80988 0.0
H1796 H 0.62548 0.25394 0.85335 0.0
H1797 H 0.62437 0.26254 0.82244 0.0
H1798 H 0.61071 0.24525 0.80047 0.0
H1799 H 0.5998 0.21131 0.84091 0.0
H1800 H 0.57714 0.27295 0.87449 0.0
H1801 H 0.59183 0.28691 0.8984 0.0
O1802 O 0.63675 0.23315 0.87405 0.0
C1803 C 0.62439 0.20759 0.90598 0.0
C1804 C 0.60963 0.26827 0.90091 0.0
C1805 C 0.58775 0.26756 0.88023 0.0
N1806 N 0.60673 0.24584 0.88138 0.0
C1807 C 0.61483 0.25339 0.89461 0.0
C1808 C 0.59329 0.25268 0.87426 0.0
C1809 C 0.596 0.27538 0.89364 0.0
C1810 C 0.61762 0.1692 0.86071 0.0
N1811 N 0.62688 0.17339 0.87478 0.0
C1812 C 0.6077 0.15566 0.86138 0.0
C1813 C 0.60731 0.14638 0.87658 0.0
C1814 C 0.61679 0.15073 0.89087 0.0
C1815 C 0.62654 0.16437 0.88974 0.0
C1816 C 0.67619 0.15799 0.88061 0.0
C1817 C 0.66755 0.18707 0.89554 0.0
C1818 C 0.6628 0.16652 0.87463 0.0
N1819 N 0.6586 0.18082 0.88217 0.0
C1820 C 0.68102 0.17888 0.90185 0.0
C1821 C 0.68533 0.16423 0.89432 0.0
C1822 C 0.6509 0.22727 0.87348 0.0
C1823 C 0.60425 0.22715 0.81934 0.0
C1824 C 0.61952 0.24635 0.84386 0.0
C1825 C 0.61891 0.25129 0.82638 0.0
C1826 C 0.61124 0.24159 0.81406 0.0
N1827 N 0.61264 0.23217 0.84893 0.0
C1828 C 0.60507 0.22261 0.83694 0.0
Co1829 Co 0.80731 0.63972 0.87298 0.0
Co1830 Co 0.77474 0.61392 0.8735 0.0
O1831 O 0.7955 0.62099 0.86448 0.0
C1832 C 0.80243 0.64591 0.83542 0.0
O1833 O 0.7874 0.64176 0.83806 0.0
C1834 C 0.7957 0.58555 0.87803 0.0
O1835 O 0.80641 0.59522 0.88501 0.0
O1836 O 0.78243 0.61567 0.89811 0.0
O1837 O 0.80236 0.63395 0.89784 0.0
H1838 H 0.72644 0.6162 0.91296 0.0
H1839 H 0.82298 0.61702 0.84836 0.0
O1840 O 0.81237 0.64583 0.84815 0.0
H1841 H 0.8566 0.61634 0.90159 0.0
H1842 H 0.85345 0.67889 0.87274 0.0
H1843 H 0.80189 0.66435 0.90045 0.0
H1844 H 0.83265 0.63376 0.89987 0.0
H1845 H 0.83825 0.65512 0.8627 0.0
O1846 O 0.7823 0.59109 0.87265 0.0
H1847 H 0.75255 0.62531 0.90126 0.0
H1848 H 0.7529 0.58659 0.86497 0.0
H1849 H 0.81674 0.68813 0.911 0.0
H1850 H 0.8469 0.59951 0.84947 0.0
H1851 H 0.84272 0.69553 0.8971 0.0
H1852 H 0.86387 0.59907 0.87625 0.0
O1853 O 0.78771 0.65346 0.87208 0.0
H1854 H 0.77889 0.59772 0.81024 0.0
H1855 H 0.74549 0.62519 0.85445 0.0
H1856 H 0.7362 0.62394 0.8238 0.0
H1857 H 0.75295 0.61013 0.80145 0.0
H1858 H 0.78779 0.59936 0.84102 0.0
H1859 H 0.72685 0.57699 0.87637 0.0
H1860 H 0.71342 0.59188 0.90049 0.0
O1861 O 0.76678 0.63653 0.8745 0.0
C1862 C 0.79287 0.62437 0.90586 0.0
C1863 C 0.73215 0.60965 0.90241 0.0
C1864 C 0.73239 0.58763 0.88188 0.0
N1865 N 0.75416 0.60657 0.88236 0.0
C1866 C 0.74691 0.61477 0.8957 0.0
C1867 C 0.74715 0.5931 0.87551 0.0
C1868 C 0.72486 0.59599 0.89542 0.0
C1869 C 0.83039 0.617 0.86 0.0
N1870 N 0.82647 0.62646 0.874 0.0
C1871 C 0.84388 0.60702 0.86057 0.0
C1872 C 0.85338 0.60676 0.87561 0.0
C1873 C 0.84931 0.61644 0.88984 0.0
C1874 C 0.83571 0.62626 0.8888 0.0
C1875 C 0.84216 0.67577 0.87892 0.0
C1876 C 0.81323 0.66744 0.89442 0.0
C1877 C 0.83349 0.66235 0.87327 0.0
N1878 N 0.81927 0.6583 0.88108 0.0
C1879 C 0.82157 0.68094 0.90041 0.0
C1880 C 0.83613 0.6851 0.89259 0.0
C1881 C 0.77268 0.65066 0.87343 0.0
C1882 C 0.77146 0.60373 0.81987 0.0
C1883 C 0.75286 0.61917 0.8448 0.0
C1884 C 0.74752 0.61848 0.82747 0.0
C1885 C 0.75692 0.61072 0.81494 0.0
N1886 N 0.76714 0.61229 0.84953 0.0
C1887 C 0.77641 0.60464 0.83733 0.0
H1888 H 0.24889 0.15484 0.34798 0.0
H1889 H 0.22961 0.177 0.34693 0.0
H1890 H 0.25266 0.19873 0.39179 0.0
H1891 H 0.27267 0.17711 0.39195 0.0
H1892 H 0.20806 0.18481 0.36801 0.0
H1893 H 0.24801 0.23765 0.36326 0.0
H1894 H 0.25545 0.21743 0.36086 0.0
H1895 H 0.25273 0.22606 0.38234 0.0
C1896 C 0.24994 0.16451 0.35742 0.0
C1897 C 0.26223 0.16439 0.37 0.0
C1898 C 0.23893 0.17716 0.35685 0.0
C1899 C 0.23974 0.18975 0.36912 0.0
C1900 C 0.25204 0.18953 0.38178 0.0
H1901 H 0.15423 0.24545 0.39384 0.0
H1902 H 0.1763 0.22607 0.39318 0.0
C1903 C 0.26339 0.17711 0.382 0.0
C1904 C 0.22707 0.20241 0.36929 0.0
H1905 H 0.22079 0.24292 0.37199 0.0
C1906 C 0.21091 0.19753 0.36867 0.0
C1907 C 0.23066 0.21906 0.36988 0.0
C1908 C 0.24766 0.22535 0.36892 0.0
C1909 C 0.19829 0.20871 0.36876 0.0
C1910 C 0.20185 0.22528 0.37055 0.0
C1911 C 0.21801 0.23021 0.37093 0.0
C1912 C 0.189 0.23768 0.37184 0.0
C1913 C 0.18135 0.20255 0.36639 0.0
C1914 C 0.18925 0.25126 0.36087 0.0
C1915 C 0.17694 0.26269 0.36173 0.0
C1916 C 0.16402 0.26057 0.37335 0.0
C1917 C 0.16393 0.2472 0.38457 0.0
C1918 C 0.17647 0.23605 0.38407 0.0
H1919 H 0.18121 0.19095 0.35916 0.0
H1920 H 0.17588 0.20036 0.37944 0.0
H1921 H 0.17375 0.21128 0.35914 0.0
H1922 H 0.19881 0.25288 0.3514 0.0
H1923 H 0.17725 0.27291 0.35293 0.0
H1924 H 0.76029 0.14931 0.37614 0.0
H1925 H 0.77924 0.17162 0.37573 0.0
H1926 H 0.74008 0.20509 0.36935 0.0
H1927 H 0.72086 0.1828 0.36994 0.0
H1928 H 0.78394 0.19403 0.34873 0.0
H1929 H 0.76555 0.22377 0.41088 0.0
H1930 H 0.75968 0.20347 0.40546 0.0
H1931 H 0.74974 0.22021 0.3953 0.0
C1932 C 0.75562 0.16139 0.37471 0.0
C1933 C 0.73899 0.16422 0.37309 0.0
C1934 C 0.76651 0.17414 0.37447 0.0
C1935 C 0.76106 0.19 0.37269 0.0
C1936 C 0.74451 0.19295 0.37103 0.0
H1937 H 0.8172 0.27904 0.36969 0.0
H1938 H 0.79515 0.25956 0.36879 0.0
C1939 C 0.73355 0.18017 0.37128 0.0
C1940 C 0.77287 0.20332 0.37213 0.0
H1941 H 0.78604 0.23638 0.39445 0.0
C1942 C 0.78437 0.20333 0.35869 0.0
C1943 C 0.77333 0.21546 0.3851 0.0
C1944 C 0.76151 0.21575 0.4001 0.0
C1945 C 0.79646 0.21506 0.35795 0.0
C1946 C 0.79719 0.22694 0.37118 0.0
C1947 C 0.78544 0.22722 0.38437 0.0
C1948 C 0.81048 0.23876 0.37191 0.0
C1949 C 0.80833 0.21467 0.343 0.0
C1950 C 0.82636 0.2335 0.37428 0.0
C1951 C 0.83898 0.24455 0.37482 0.0
C1952 C 0.83597 0.26113 0.37305 0.0
C1953 C 0.81998 0.26637 0.37099 0.0
C1954 C 0.80735 0.25528 0.37049 0.0
H1955 H 0.80359 0.20777 0.33165 0.0
H1956 H 0.81139 0.22702 0.33858 0.0
H1957 H 0.81956 0.20873 0.34745 0.0
H1958 H 0.82898 0.22082 0.37577 0.0
H1959 H 0.85109 0.24005 0.37658 0.0
H1960 H 0.85091 0.76042 0.37527 0.0
H1961 H 0.82838 0.77915 0.37468 0.0
H1962 H 0.7952 0.7395 0.37049 0.0
H1963 H 0.81769 0.72052 0.37126 0.0
H1964 H 0.8053 0.78262 0.34788 0.0
H1965 H 0.77711 0.76618 0.41153 0.0
H1966 H 0.79739 0.76042 0.4059 0.0
H1967 H 0.78063 0.74987 0.39655 0.0
C1968 C 0.83884 0.7556 0.37429 0.0
C1969 C 0.83615 0.73892 0.37332 0.0
C1970 C 0.82597 0.76636 0.37395 0.0
C1971 C 0.81013 0.7607 0.37273 0.0
C1972 C 0.80733 0.74409 0.37174 0.0
H1973 H 0.72071 0.81668 0.37033 0.0
H1974 H 0.74003 0.79445 0.36952 0.0
C1975 C 0.82022 0.73328 0.37208 0.0
C1976 C 0.79668 0.77234 0.37201 0.0
H1977 H 0.76399 0.78601 0.39464 0.0
C1978 C 0.79623 0.78333 0.35807 0.0
C1979 C 0.78481 0.77314 0.38526 0.0
C1980 C 0.78499 0.76187 0.40075 0.0
C1981 C 0.78434 0.79525 0.35712 0.0
C1982 C 0.77277 0.79637 0.37064 0.0
C1983 C 0.77291 0.7851 0.38432 0.0
C1984 C 0.76102 0.80973 0.37127 0.0
C1985 C 0.78428 0.80656 0.34166 0.0
C1986 C 0.76644 0.82562 0.37284 0.0
C1987 C 0.7555 0.83832 0.37331 0.0
C1988 C 0.73885 0.8354 0.3723 0.0
C1989 C 0.73343 0.81939 0.37104 0.0
C1990 C 0.74444 0.80666 0.37059 0.0
H1991 H 0.79081 0.80138 0.33028 0.0
H1992 H 0.77181 0.80951 0.33757 0.0
H1993 H 0.7904 0.81792 0.34539 0.0
H1994 H 0.77918 0.8282 0.37376 0.0
H1995 H 0.76015 0.85044 0.37445 0.0
H1996 H 0.18301 0.72108 0.37136 0.0
H1997 H 0.20545 0.74015 0.37214 0.0
H1998 H 0.17195 0.77957 0.37584 0.0
H1999 H 0.14952 0.76076 0.37524 0.0
H2000 H 0.21198 0.76612 0.34904 0.0
H2001 H 0.20265 0.78721 0.41719 0.0
H2002 H 0.1936 0.76902 0.40881 0.0
H2003 H 0.18487 0.78829 0.4039 0.0
C2004 C 0.1804 0.73381 0.37239 0.0
C2005 C 0.16442 0.73935 0.37331 0.0
C2006 C 0.19324 0.74467 0.37282 0.0
C2007 C 0.19034 0.76123 0.37433 0.0
C2008 C 0.17445 0.76681 0.37503 0.0
H2009 H 0.24017 0.85082 0.37408 0.0
H2010 H 0.22136 0.82837 0.37446 0.0
C2011 C 0.16162 0.75601 0.37458 0.0
C2012 C 0.20385 0.77282 0.3748 0.0
H2013 H 0.22 0.80311 0.39929 0.0
C2014 C 0.2139 0.77409 0.36009 0.0
C2015 C 0.20631 0.78314 0.38928 0.0
C2016 C 0.19639 0.78178 0.40577 0.0
C2017 C 0.22592 0.78593 0.35916 0.0
C2018 C 0.22803 0.79657 0.37343 0.0
C2019 C 0.21829 0.79497 0.38834 0.0
C2020 C 0.23971 0.81 0.37286 0.0
C2021 C 0.23582 0.7874 0.34267 0.0
C2022 C 0.25631 0.8071 0.37193 0.0
C2023 C 0.26718 0.81995 0.37169 0.0
C2024 C 0.26161 0.83592 0.37244 0.0
C2025 C 0.24493 0.83871 0.37343 0.0
C2026 C 0.23413 0.82589 0.37368 0.0
H2027 H 0.23057 0.78042 0.33166 0.0
H2028 H 0.23688 0.80018 0.33863 0.0
H2029 H 0.24811 0.78276 0.3452 0.0
H2030 H 0.26086 0.7949 0.37159 0.0
H2031 H 0.27992 0.81734 0.37102 0.0
H2032 H 0.18184 0.72055 0.62845 0.0
H2033 H 0.20423 0.73968 0.62939 0.0
H2034 H 0.1708 0.77912 0.6254 0.0
H2035 H 0.1484 0.76027 0.6246 0.0
H2036 H 0.21299 0.76361 0.60455 0.0
H2037 H 0.19762 0.79034 0.66895 0.0
H2038 H 0.1893 0.77148 0.66152 0.0
H2039 H 0.18114 0.7902 0.65376 0.0
C2040 C 0.17923 0.7333 0.62782 0.0
C2041 C 0.16327 0.73885 0.62661 0.0
C2042 C 0.19205 0.74419 0.62834 0.0
C2043 C 0.18913 0.7608 0.62778 0.0
C2044 C 0.17328 0.76636 0.62624 0.0
H2045 H 0.23917 0.8502 0.6241 0.0
H2046 H 0.22031 0.82779 0.62457 0.0
C2047 C 0.16048 0.75552 0.6257 0.0
C2048 C 0.20259 0.77243 0.62852 0.0
H2049 H 0.21659 0.80473 0.65149 0.0
C2050 C 0.21394 0.77249 0.61491 0.0
C2051 C 0.20378 0.78393 0.6421 0.0
C2052 C 0.19241 0.78394 0.65751 0.0
C2053 C 0.22604 0.78425 0.6141 0.0
C2054 C 0.2269 0.79607 0.6274 0.0
C2055 C 0.21584 0.79569 0.64127 0.0
C2056 C 0.23863 0.80944 0.62676 0.0
C2057 C 0.2374 0.78436 0.59869 0.0
C2058 C 0.25522 0.80655 0.62791 0.0
C2059 C 0.26612 0.81937 0.62764 0.0
C2060 C 0.26058 0.83533 0.62631 0.0
C2061 C 0.24391 0.83811 0.62516 0.0
C2062 C 0.23308 0.82531 0.62543 0.0
H2063 H 0.23314 0.77647 0.5879 0.0
H2064 H 0.23892 0.79675 0.59352 0.0
H2065 H 0.24937 0.77997 0.60298 0.0
H2066 H 0.25973 0.79439 0.62922 0.0
H2067 H 0.27885 0.81678 0.6286 0.0
H2068 H 0.27966 0.18254 0.62838 0.0
H2069 H 0.26088 0.20522 0.62956 0.0
H2070 H 0.2209 0.17235 0.62646 0.0
H2071 H 0.2394 0.14967 0.62541 0.0
H2072 H 0.23667 0.21416 0.60504 0.0
H2073 H 0.21073 0.1996 0.67003 0.0
H2074 H 0.22938 0.19101 0.66234 0.0
H2075 H 0.21045 0.18298 0.65503 0.0
C2076 C 0.26687 0.18012 0.628 0.0
C2077 C 0.26107 0.16424 0.62695 0.0
C2078 C 0.25617 0.1931 0.62866 0.0
C2079 C 0.23952 0.19042 0.62841 0.0
C2080 C 0.23371 0.17464 0.62705 0.0
H2081 H 0.15036 0.24033 0.62481 0.0
H2082 H 0.17289 0.22164 0.62541 0.0
C2083 C 0.24434 0.16169 0.62637 0.0
C2084 C 0.22808 0.20403 0.62925 0.0
H2085 H 0.19613 0.21841 0.65251 0.0
C2086 C 0.22794 0.21526 0.61552 0.0
C2087 C 0.21677 0.20543 0.64299 0.0
C2088 C 0.2169 0.19421 0.65853 0.0
C2089 C 0.21622 0.22742 0.61474 0.0
C2090 C 0.20455 0.22843 0.62817 0.0
C2091 C 0.20506 0.21753 0.64219 0.0
C2092 C 0.19111 0.24009 0.62747 0.0
C2093 C 0.21598 0.23864 0.59921 0.0
C2094 C 0.19391 0.2567 0.62849 0.0
C2095 C 0.18101 0.26751 0.62816 0.0
C2096 C 0.16509 0.26186 0.62687 0.0
C2097 C 0.16241 0.24517 0.62584 0.0
C2098 C 0.17529 0.23443 0.62619 0.0
H2099 H 0.2239 0.23437 0.58845 0.0
H2100 H 0.20356 0.23997 0.59406 0.0
H2101 H 0.22022 0.25069 0.60337 0.0
H2102 H 0.20604 0.2613 0.62975 0.0
H2103 H 0.18352 0.28027 0.62902 0.0
H2104 H 0.75983 0.15134 0.62414 0.0
H2105 H 0.77815 0.17419 0.62372 0.0
H2106 H 0.73797 0.20677 0.62756 0.0
H2107 H 0.71942 0.18392 0.62821 0.0
H2108 H 0.77887 0.19968 0.59936 0.0
H2109 H 0.76818 0.22151 0.66733 0.0
H2110 H 0.76214 0.20172 0.66015 0.0
H2111 H 0.75067 0.21905 0.65378 0.0
C2112 C 0.75482 0.16333 0.62498 0.0
C2113 C 0.73811 0.16574 0.6263 0.0
C2114 C 0.76534 0.17639 0.62471 0.0
C2115 C 0.75943 0.19215 0.62581 0.0
C2116 C 0.74279 0.19468 0.62701 0.0
H2117 H 0.81734 0.28078 0.62797 0.0
H2118 H 0.79429 0.26241 0.62683 0.0
C2119 C 0.73221 0.18159 0.62729 0.0
C2120 C 0.77084 0.20581 0.62533 0.0
H2121 H 0.78683 0.23597 0.65023 0.0
C2122 C 0.78054 0.20769 0.61043 0.0
C2123 C 0.77289 0.2163 0.63976 0.0
C2124 C 0.76303 0.21455 0.65624 0.0
C2125 C 0.79249 0.21955 0.6097 0.0
C2126 C 0.79497 0.22963 0.62437 0.0
C2127 C 0.78488 0.22819 0.63903 0.0
C2128 C 0.80876 0.24085 0.62521 0.0
C2129 C 0.80251 0.2211 0.5933 0.0
C2130 C 0.82446 0.23476 0.62499 0.0
C2131 C 0.83761 0.24514 0.62568 0.0
C2132 C 0.83534 0.26189 0.62667 0.0
C2133 C 0.81954 0.26797 0.62715 0.0
C2134 C 0.80635 0.25751 0.62651 0.0
H2135 H 0.7963 0.21583 0.58176 0.0
H2136 H 0.80534 0.23389 0.59048 0.0
H2137 H 0.81401 0.21455 0.59515 0.0
H2138 H 0.82656 0.22192 0.62431 0.0
H2139 H 0.84956 0.23997 0.62535 0.0
H2140 H 0.822 0.72657 0.60699 0.0
H2141 H 0.8005 0.74673 0.60553 0.0
H2142 H 0.82294 0.77305 0.64773 0.0
H2143 H 0.8449 0.75355 0.64832 0.0
H2144 H 0.77844 0.75699 0.62596 0.0
H2145 H 0.81893 0.80837 0.61376 0.0
H2146 H 0.82606 0.78792 0.61367 0.0
H2147 H 0.82399 0.79878 0.63402 0.0
C2148 C 0.82229 0.73671 0.61589 0.0
C2149 C 0.83517 0.73873 0.62755 0.0
C2150 C 0.81002 0.74821 0.61508 0.0
C2151 C 0.81032 0.76173 0.62616 0.0
C2152 C 0.82276 0.76316 0.63852 0.0
H2153 H 0.72737 0.82329 0.64597 0.0
H2154 H 0.74719 0.80153 0.6459 0.0
C2155 C 0.83524 0.75194 0.63897 0.0
C2156 C 0.79767 0.77432 0.6248 0.0
H2157 H 0.79214 0.8149 0.62251 0.0
C2158 C 0.78143 0.76965 0.62501 0.0
C2159 C 0.80151 0.79085 0.62314 0.0
C2160 C 0.81857 0.79674 0.62092 0.0
C2161 C 0.76898 0.78103 0.62396 0.0
C2162 C 0.77284 0.79762 0.62355 0.0
C2163 C 0.78908 0.80224 0.62305 0.0
C2164 C 0.76038 0.81048 0.62341 0.0
C2165 C 0.75188 0.77502 0.62282 0.0
C2166 C 0.76145 0.82316 0.61127 0.0
C2167 C 0.75054 0.8359 0.61179 0.0
C2168 C 0.73809 0.83605 0.62419 0.0
C2169 C 0.73675 0.82329 0.63613 0.0
C2170 C 0.748 0.81077 0.63597 0.0
H2171 H 0.75137 0.76276 0.61704 0.0
H2172 H 0.74672 0.77429 0.6362 0.0
H2173 H 0.74427 0.78313 0.61477 0.0
H2174 H 0.77085 0.82329 0.60145 0.0
H2175 H 0.75177 0.84561 0.60241 0.0
H2176 H 0.68285 0.77944 0.87034 0.0
H2177 H 0.70527 0.76034 0.86951 0.0
H2178 H 0.67191 0.72089 0.87412 0.0
H2179 H 0.64949 0.7397 0.87482 0.0
H2180 H 0.71417 0.73658 0.89458 0.0
H2181 H 0.69854 0.70936 0.83051 0.0
H2182 H 0.69026 0.72828 0.8378 0.0
H2183 H 0.6821 0.70963 0.84575 0.0
C2184 C 0.68027 0.7667 0.87114 0.0
C2185 C 0.66432 0.76113 0.87249 0.0
C2186 C 0.6931 0.75582 0.87068 0.0
C2187 C 0.6902 0.73921 0.87144 0.0
C2188 C 0.67437 0.73365 0.87313 0.0
H2189 H 0.73988 0.64971 0.87595 0.0
H2190 H 0.72115 0.67222 0.87535 0.0
C2191 C 0.66156 0.74446 0.8736 0.0
C2192 C 0.70367 0.72758 0.87074 0.0
H2193 H 0.71749 0.69503 0.84808 0.0
C2194 C 0.71506 0.72761 0.88431 0.0
C2195 C 0.70478 0.71596 0.85728 0.0
C2196 C 0.69337 0.71585 0.84191 0.0
C2197 C 0.72712 0.71581 0.88521 0.0
C2198 C 0.72789 0.70387 0.87204 0.0
C2199 C 0.7168 0.70416 0.8582 0.0
C2200 C 0.73956 0.69044 0.8728 0.0
C2201 C 0.73853 0.71581 0.90057 0.0
C2202 C 0.75615 0.69323 0.8715 0.0
C2203 C 0.76697 0.68034 0.87184 0.0
C2204 C 0.76135 0.66443 0.87339 0.0
C2205 C 0.74468 0.66176 0.87471 0.0
C2206 C 0.73392 0.67462 0.87437 0.0
H2207 H 0.73437 0.72386 0.91127 0.0
H2208 H 0.73998 0.70347 0.9059 0.0
H2209 H 0.75052 0.72005 0.89617 0.0
H2210 H 0.76072 0.70535 0.87001 0.0
H2211 H 0.77971 0.68286 0.87074 0.0
H2212 H 0.2597 0.64988 0.87529 0.0
H2213 H 0.27848 0.67236 0.87482 0.0
H2214 H 0.239 0.70557 0.86931 0.0
H2215 H 0.21995 0.68313 0.86992 0.0
H2216 H 0.28241 0.69517 0.8477 0.0
H2217 H 0.2651 0.72397 0.91076 0.0
H2218 H 0.25944 0.70362 0.9053 0.0
H2219 H 0.24906 0.72027 0.89549 0.0
C2220 C 0.25492 0.66194 0.87403 0.0
C2221 C 0.23826 0.66466 0.87264 0.0
C2222 C 0.26571 0.67478 0.87376 0.0
C2223 C 0.26012 0.69062 0.8722 0.0
C2224 C 0.24353 0.69344 0.8708 0.0
H2225 H 0.31711 0.77943 0.87022 0.0
H2226 H 0.29465 0.76038 0.86925 0.0
C2227 C 0.23268 0.68058 0.87107 0.0
C2228 C 0.27183 0.70402 0.87156 0.0
H2229 H 0.28548 0.73665 0.89429 0.0
C2230 C 0.28304 0.70429 0.85784 0.0
C2231 C 0.27253 0.71594 0.88476 0.0
C2232 C 0.26099 0.71597 0.90001 0.0
C2233 C 0.29511 0.71603 0.85707 0.0
C2234 C 0.29616 0.72763 0.87056 0.0
C2235 C 0.28465 0.7277 0.88401 0.0
C2236 C 0.30965 0.73923 0.87139 0.0
C2237 C 0.30667 0.71589 0.84183 0.0
C2238 C 0.32545 0.73363 0.87326 0.0
C2239 C 0.33828 0.74441 0.87382 0.0
C2240 C 0.33558 0.76108 0.87261 0.0
C2241 C 0.31966 0.76668 0.87109 0.0
C2242 C 0.3068 0.75584 0.87055 0.0
H2243 H 0.3016 0.7094 0.83037 0.0
H2244 H 0.30984 0.72831 0.83774 0.0
H2245 H 0.31789 0.70966 0.8458 0.0
H2246 H 0.32787 0.72086 0.87431 0.0
H2247 H 0.35033 0.73963 0.87517 0.0
H2248 H 0.35004 0.25944 0.87459 0.0
H2249 H 0.32763 0.27827 0.87407 0.0
H2250 H 0.29427 0.23886 0.86904 0.0
H2251 H 0.31667 0.21974 0.86971 0.0
H2252 H 0.30465 0.28216 0.84712 0.0
H2253 H 0.27625 0.2652 0.91052 0.0
H2254 H 0.29654 0.25944 0.9049 0.0
H2255 H 0.27979 0.24909 0.89528 0.0
C2256 C 0.33796 0.25468 0.87342 0.0
C2257 C 0.3352 0.23802 0.8722 0.0
C2258 C 0.32516 0.26551 0.87312 0.0
C2259 C 0.3093 0.25995 0.87169 0.0
C2260 C 0.30642 0.24336 0.87043 0.0
H2261 H 0.2208 0.31743 0.87051 0.0
H2262 H 0.2397 0.29487 0.86931 0.0
C2263 C 0.31925 0.23247 0.87073 0.0
C2264 C 0.29593 0.2717 0.87111 0.0
H2265 H 0.26358 0.28562 0.89412 0.0
C2266 C 0.29562 0.28287 0.85734 0.0
C2267 C 0.28413 0.27251 0.88441 0.0
C2268 C 0.28417 0.26102 0.89971 0.0
C2269 C 0.28395 0.29502 0.85665 0.0
C2270 C 0.27247 0.29618 0.87026 0.0
C2271 C 0.27244 0.2847 0.88374 0.0
C2272 C 0.26096 0.30974 0.87118 0.0
C2273 C 0.28403 0.30655 0.84138 0.0
C2274 C 0.26668 0.32552 0.87296 0.0
C2275 C 0.25597 0.33841 0.87365 0.0
C2276 C 0.23927 0.3358 0.87266 0.0
C2277 C 0.23356 0.31991 0.87121 0.0
C2278 C 0.24433 0.30699 0.87054 0.0
H2279 H 0.2904 0.3014 0.82987 0.0
H2280 H 0.2716 0.30978 0.83741 0.0
H2281 H 0.29037 0.31773 0.84526 0.0
H2282 H 0.27946 0.32786 0.87385 0.0
H2283 H 0.26083 0.35044 0.87493 0.0
H2284 H 0.68319 0.22031 0.87191 0.0
H2285 H 0.70568 0.23934 0.87279 0.0
H2286 H 0.67227 0.27883 0.87634 0.0
H2287 H 0.64979 0.26008 0.87563 0.0
H2288 H 0.71229 0.26546 0.84968 0.0
H2289 H 0.70284 0.28623 0.91793 0.0
H2290 H 0.69387 0.26805 0.90946 0.0
H2291 H 0.68508 0.2873 0.90463 0.0
C2292 C 0.68061 0.23305 0.87292 0.0
C2293 C 0.66464 0.23863 0.87377 0.0
C2294 C 0.69348 0.24388 0.87341 0.0
C2295 C 0.69061 0.26045 0.87491 0.0
C2296 C 0.67473 0.26607 0.87553 0.0
H2297 H 0.73993 0.35024 0.87502 0.0
H2298 H 0.72129 0.32764 0.87549 0.0
C2299 C 0.66189 0.25529 0.87502 0.0
C2300 C 0.70413 0.27202 0.87547 0.0
H2301 H 0.72013 0.30229 0.90011 0.0
C2302 C 0.71418 0.27339 0.86078 0.0
C2303 C 0.70655 0.28228 0.89 0.0
C2304 C 0.69662 0.28083 0.90648 0.0
C2305 C 0.72614 0.2853 0.85991 0.0
C2306 C 0.72819 0.2959 0.87422 0.0
C2307 C 0.71847 0.29418 0.88912 0.0
C2308 C 0.73977 0.30942 0.87369 0.0
C2309 C 0.73601 0.28689 0.84341 0.0
C2310 C 0.75638 0.30664 0.87265 0.0
C2311 C 0.76715 0.31957 0.87234 0.0
C2312 C 0.76147 0.33551 0.87316 0.0
C2313 C 0.74479 0.33817 0.87431 0.0
C2314 C 0.73408 0.32526 0.87461 0.0
H2315 H 0.73079 0.27993 0.83236 0.0
H2316 H 0.73702 0.29969 0.83943 0.0
H2317 H 0.74833 0.28228 0.8459 0.0
H2318 H 0.76103 0.29449 0.87223 0.0
H2319 H 0.77991 0.31706 0.87155 0.0
H2320 H 0.6502 0.26068 0.12356 0.0
H2321 H 0.67278 0.27931 0.12272 0.0
H2322 H 0.70595 0.23972 0.12754 0.0
H2323 H 0.68337 0.22083 0.12855 0.0
H2324 H 0.71244 0.26616 0.15021 0.0
H2325 H 0.70391 0.28592 0.08147 0.0
H2326 H 0.68598 0.28729 0.09448 0.0
H2327 H 0.69474 0.26792 0.09015 0.0
C2328 C 0.66227 0.25585 0.12441 0.0
C2329 C 0.66493 0.2392 0.12607 0.0
C2330 C 0.67518 0.26655 0.12383 0.0
C2331 C 0.69103 0.26087 0.12478 0.0
C2332 C 0.69379 0.24432 0.12666 0.0
H2333 H 0.78036 0.31751 0.12837 0.0
H2334 H 0.76153 0.29488 0.12777 0.0
C2335 C 0.68086 0.23355 0.12722 0.0
C2336 C 0.7046 0.27237 0.12419 0.0
H2337 H 0.72098 0.30225 0.09928 0.0
C2338 C 0.71449 0.27392 0.139 0.0
C2339 C 0.70724 0.28241 0.10952 0.0
C2340 C 0.69751 0.28073 0.09293 0.0
C2341 C 0.72646 0.28581 0.13985 0.0
C2342 C 0.72871 0.29621 0.12539 0.0
C2343 C 0.71917 0.2943 0.11038 0.0
C2344 C 0.74025 0.30976 0.1259 0.0
C2345 C 0.73614 0.28761 0.15645 0.0
C2346 C 0.73453 0.32557 0.12474 0.0
C2347 C 0.74521 0.33851 0.12501 0.0
C2348 C 0.76189 0.3359 0.12637 0.0
C2349 C 0.7676 0.31998 0.12742 0.0
C2350 C 0.75686 0.30703 0.12716 0.0
H2351 H 0.73084 0.28074 0.16752 0.0
H2352 H 0.74851 0.28306 0.15418 0.0
H2353 H 0.73704 0.30046 0.16028 0.0
H2354 H 0.72175 0.32792 0.1237 0.0
H2355 H 0.74034 0.35056 0.12411 0.0
H2356 H 0.78015 0.68337 0.12931 0.0
H2357 H 0.76106 0.7058 0.1302 0.0
H2358 H 0.72157 0.67246 0.12588 0.0
H2359 H 0.74037 0.65003 0.12509 0.0
H2360 H 0.73709 0.71455 0.10512 0.0
H2361 H 0.71034 0.69929 0.16954 0.0
H2362 H 0.72926 0.69105 0.16217 0.0
H2363 H 0.7106 0.68275 0.15443 0.0
C2364 C 0.7674 0.68079 0.1286 0.0
C2365 C 0.76182 0.66485 0.12729 0.0
C2366 C 0.75653 0.69363 0.12909 0.0
C2367 C 0.73992 0.69074 0.12842 0.0
C2368 C 0.73434 0.67491 0.1268 0.0
H2369 H 0.65016 0.73975 0.12396 0.0
H2370 H 0.67285 0.72123 0.12468 0.0
C2371 C 0.74515 0.6621 0.12627 0.0
C2372 C 0.72829 0.7042 0.12912 0.0
H2373 H 0.69581 0.71804 0.1519 0.0
C2374 C 0.72819 0.71549 0.11545 0.0
C2375 C 0.71675 0.70537 0.14267 0.0
C2376 C 0.71679 0.69407 0.15813 0.0
C2377 C 0.71632 0.72749 0.11453 0.0
C2378 C 0.70444 0.72829 0.12777 0.0
C2379 C 0.70489 0.71732 0.14173 0.0
C2380 C 0.69091 0.73983 0.12695 0.0
C2381 C 0.71616 0.73877 0.09905 0.0
C2382 C 0.69355 0.75646 0.12805 0.0
C2383 C 0.68057 0.76716 0.12764 0.0
C2384 C 0.6647 0.76138 0.12621 0.0
C2385 C 0.66217 0.74468 0.12509 0.0
C2386 C 0.67513 0.73404 0.12551 0.0
H2387 H 0.7242 0.73459 0.08836 0.0
H2388 H 0.70378 0.74005 0.09377 0.0
H2389 H 0.7203 0.75083 0.10332 0.0
H2390 H 0.70563 0.76115 0.12944 0.0
H2391 H 0.68297 0.77993 0.12858 0.0
H2392 H 0.25972 0.651 0.12435 0.0
H2393 H 0.27832 0.67357 0.12528 0.0
H2394 H 0.23854 0.70657 0.1296 0.0
H2395 H 0.21964 0.68397 0.12857 0.0
H2396 H 0.26262 0.71561 0.10465 0.0
H2397 H 0.28907 0.7003 0.1692 0.0
H2398 H 0.28898 0.68378 0.15405 0.0
H2399 H 0.27023 0.69199 0.16167 0.0
C2400 C 0.25483 0.66302 0.12555 0.0
C2401 C 0.23813 0.66562 0.12653 0.0
C2402 C 0.26553 0.67592 0.12615 0.0
C2403 C 0.25981 0.69169 0.12783 0.0
C2404 C 0.24317 0.69444 0.12845 0.0
H2405 H 0.31683 0.78091 0.12855 0.0
H2406 H 0.29409 0.76222 0.1293 0.0
C2407 C 0.23241 0.68151 0.12787 0.0
C2408 C 0.27134 0.70523 0.12868 0.0
H2409 H 0.30369 0.71908 0.15167 0.0
C2410 C 0.27147 0.71655 0.11504 0.0
C2411 C 0.2828 0.70641 0.1423 0.0
C2412 C 0.28271 0.69507 0.15773 0.0
C2413 C 0.28333 0.72857 0.11421 0.0
C2414 C 0.29515 0.72935 0.1275 0.0
C2415 C 0.29465 0.71838 0.14145 0.0
C2416 C 0.30873 0.74085 0.12673 0.0
C2417 C 0.28355 0.73988 0.09876 0.0
C2418 C 0.32447 0.73499 0.12528 0.0
C2419 C 0.33748 0.74558 0.12492 0.0
C2420 C 0.33502 0.76229 0.12611 0.0
C2421 C 0.31918 0.76813 0.12756 0.0
C2422 C 0.30615 0.75748 0.1279 0.0
H2423 H 0.27547 0.73577 0.08806 0.0
H2424 H 0.27948 0.75196 0.10306 0.0
H2425 H 0.29593 0.7411 0.09348 0.0
H2426 H 0.3267 0.72218 0.12439 0.0
H2427 H 0.34947 0.7406 0.12376 0.0
H2428 H 0.25985 0.34985 0.1246 0.0
H2429 H 0.2784 0.3272 0.1252 0.0
H2430 H 0.23857 0.29437 0.13051 0.0
H2431 H 0.21974 0.31701 0.12975 0.0
H2432 H 0.28206 0.3044 0.15228 0.0
H2433 H 0.26461 0.27568 0.0892 0.0
H2434 H 0.25908 0.29608 0.09464 0.0
H2435 H 0.24861 0.27951 0.10448 0.0
C2436 C 0.25494 0.33784 0.12584 0.0
C2437 C 0.23825 0.33529 0.12712 0.0
C2438 C 0.2656 0.3249 0.12619 0.0
C2439 C 0.25985 0.30912 0.12772 0.0
C2440 C 0.24323 0.30645 0.12903 0.0
H2441 H 0.31724 0.2204 0.12938 0.0
H2442 H 0.29459 0.23923 0.13061 0.0
C2443 C 0.23251 0.31942 0.12868 0.0
C2444 C 0.27144 0.29561 0.1284 0.0
H2445 H 0.28507 0.26303 0.10556 0.0
C2446 C 0.28266 0.2953 0.14212 0.0
C2447 C 0.27211 0.28371 0.11518 0.0
C2448 C 0.26056 0.28373 0.09994 0.0
C2449 C 0.29474 0.28356 0.14283 0.0
C2450 C 0.29578 0.272 0.12929 0.0
C2451 C 0.28424 0.27195 0.11588 0.0
C2452 C 0.30936 0.26053 0.12831 0.0
C2453 C 0.30635 0.28367 0.15803 0.0
C2454 C 0.32509 0.26629 0.12626 0.0
C2455 C 0.33802 0.25563 0.12554 0.0
C2456 C 0.33549 0.23894 0.12678 0.0
C2457 C 0.31965 0.23317 0.12849 0.0
C2458 C 0.30668 0.2439 0.12918 0.0
H2459 H 0.30129 0.29012 0.16953 0.0
H2460 H 0.30956 0.27125 0.16205 0.0
H2461 H 0.31754 0.28995 0.15404 0.0
H2462 H 0.32736 0.27908 0.1252 0.0
H2463 H 0.35 0.26055 0.12406 0.0
H2464 H 0.93739 0.27746 0.36363 0.0
H2465 H 0.96635 0.28185 0.36276 0.0
H2466 H 0.96021 0.32798 0.38769 0.0
H2467 H 0.93106 0.32362 0.38882 0.0
H2468 H 0.98433 0.307 0.3472 0.0
H2469 H 0.99263 0.30439 0.41957 0.0
H2470 H 0.97441 0.29766 0.40903 0.0
H2471 H 0.97828 0.31877 0.41149 0.0
C2472 C 0.94214 0.28858 0.36891 0.0
C2473 C 0.93191 0.30014 0.37644 0.0
C2474 C 0.95871 0.29107 0.36836 0.0
C2475 C 0.96543 0.30514 0.37536 0.0
C2476 C 0.95527 0.31692 0.38248 0.0
H2477 H 0.06908 0.32185 0.38928 0.0
H2478 H 0.04003 0.32671 0.38777 0.0
C2479 C 0.93862 0.31443 0.38305 0.0
C2480 C 0.98313 0.3071 0.37538 0.0
H2481 H 0.01588 0.30721 0.40237 0.0
C2482 C 0.99123 0.30722 0.35925 0.0
C2483 C 0.99208 0.30746 0.39114 0.0
C2484 C 0.98399 0.30696 0.40883 0.0
C2485 C 0.00809 0.30724 0.35845 0.0
C2486 C 0.01704 0.30687 0.3742 0.0
C2487 C 0.00895 0.30747 0.39033 0.0
C2488 C 0.03469 0.30449 0.37425 0.0
C2489 C 0.01616 0.30747 0.34076 0.0
C2490 C 0.04125 0.29035 0.36725 0.0
C2491 C 0.05776 0.2875 0.36813 0.0
C2492 C 0.06806 0.29873 0.37612 0.0
C2493 C 0.06148 0.31297 0.38302 0.0
C2494 C 0.0449 0.31578 0.38217 0.0
H2495 H 0.00818 0.31268 0.33056 0.0
H2496 H 0.02752 0.31447 0.34114 0.0
H2497 H 0.01907 0.29496 0.33682 0.0
H2498 H 0.03354 0.28132 0.36141 0.0
H2499 H 0.06241 0.27639 0.36273 0.0
H2500 H 0.67769 0.06889 0.38971 0.0
H2501 H 0.67418 0.03958 0.39064 0.0
H2502 H 0.72078 0.03331 0.36689 0.0
H2503 H 0.72447 0.06235 0.36595 0.0
H2504 H 0.6762 0.01562 0.3622 0.0
H2505 H 0.7226 0.00747 0.41364 0.0
H2506 H 0.7133 0.02666 0.40918 0.0
H2507 H 0.7292 0.01935 0.39535 0.0
C2508 C 0.68716 0.06126 0.38462 0.0
C2509 C 0.70144 0.06796 0.37793 0.0
C2510 C 0.68511 0.04454 0.38514 0.0
C2511 C 0.69734 0.03434 0.37909 0.0
C2512 C 0.71133 0.04101 0.37189 0.0
H2513 H 0.72388 0.9372 0.36503 0.0
H2514 H 0.72009 0.96624 0.36595 0.0
C2515 C 0.71338 0.05763 0.37133 0.0
C2516 C 0.69584 0.01667 0.38053 0.0
H2517 H 0.71459 0.98392 0.39804 0.0
C2518 C 0.68439 0.00865 0.37023 0.0
C2519 C 0.7065 0.00767 0.39112 0.0
C2520 C 0.7185 0.01571 0.40309 0.0
C2521 C 0.68395 0.99175 0.3695 0.0
C2522 C 0.69514 0.9828 0.37947 0.0
C2523 C 0.7061 0.99085 0.39033 0.0
C2524 C 0.69656 0.96513 0.37795 0.0
C2525 C 0.67208 0.98359 0.35751 0.0
C2526 C 0.68449 0.95488 0.38431 0.0
C2527 C 0.68662 0.93817 0.38383 0.0
C2528 C 0.70088 0.93152 0.37704 0.0
C2529 C 0.71277 0.94189 0.37038 0.0
C2530 C 0.71063 0.9585 0.3709 0.0
H2531 H 0.66578 0.99228 0.34884 0.0
H2532 H 0.67827 0.97451 0.34925 0.0
H2533 H 0.66293 0.97721 0.36549 0.0
H2534 H 0.67362 0.95979 0.39 0.0
H2535 H 0.67725 0.93052 0.38907 0.0
H2536 H 0.06254 0.72361 0.36336 0.0
H2537 H 0.03362 0.71883 0.36274 0.0
H2538 H 0.04056 0.67282 0.38767 0.0
H2539 H 0.06965 0.67755 0.38853 0.0
H2540 H 0.01598 0.69307 0.34731 0.0
H2541 H 0.00796 0.69623 0.41971 0.0
H2542 H 0.02597 0.7033 0.40899 0.0
H2543 H 0.02258 0.68213 0.41164 0.0
C2544 C 0.05797 0.71244 0.3687 0.0
C2545 C 0.06841 0.70102 0.37614 0.0
C2546 C 0.04143 0.70972 0.36829 0.0
C2547 C 0.03495 0.69557 0.37535 0.0
C2548 C 0.04532 0.68394 0.38241 0.0
H2549 H 0.93145 0.67811 0.39012 0.0
H2550 H 0.96052 0.67334 0.3886 0.0
C2551 C 0.06193 0.68664 0.38282 0.0
C2552 C 0.01729 0.69333 0.37549 0.0
H2553 H 0.98467 0.69307 0.40265 0.0
C2554 C 0.00913 0.69289 0.35941 0.0
C2555 C 0.00842 0.693 0.39129 0.0
C2556 C 0.0166 0.69379 0.40892 0.0
C2557 C 0.99228 0.6926 0.3587 0.0
C2558 C 0.98339 0.69306 0.37448 0.0
C2559 C 0.99155 0.69275 0.39057 0.0
C2560 C 0.96573 0.69534 0.37458 0.0
C2561 C 0.98414 0.69203 0.34104 0.0
C2562 C 0.95908 0.70933 0.36732 0.0
C2563 C 0.94256 0.71211 0.3682 0.0
C2564 C 0.93233 0.70099 0.37647 0.0
C2565 C 0.939 0.6869 0.38364 0.0
C2566 C 0.95559 0.68415 0.38279 0.0
H2567 H 0.99212 0.68667 0.33093 0.0
H2568 H 0.97281 0.68498 0.34161 0.0
H2569 H 0.98117 0.70445 0.33684 0.0
H2570 H 0.96673 0.71829 0.36127 0.0
H2571 H 0.93786 0.72311 0.36257 0.0
H2572 H 0.27617 0.93804 0.36675 0.0
H2573 H 0.28012 0.96704 0.36818 0.0
H2574 H 0.32685 0.95998 0.39139 0.0
H2575 H 0.32307 0.93074 0.38996 0.0
H2576 H 0.28632 0.98437 0.40055 0.0
H2577 H 0.33424 0.99279 0.35031 0.0
H2578 H 0.32157 0.97515 0.35072 0.0
H2579 H 0.33718 0.9775 0.36671 0.0
C2580 C 0.28737 0.94258 0.37204 0.0
C2581 C 0.29929 0.93205 0.3783 0.0
C2582 C 0.28959 0.95918 0.37285 0.0
C2583 C 0.30379 0.96562 0.3798 0.0
C2584 C 0.31588 0.95521 0.38579 0.0
H2585 H 0.32264 0.06964 0.39041 0.0
H2586 H 0.32632 0.04037 0.39208 0.0
C2587 C 0.31366 0.93853 0.38503 0.0
C2588 C 0.30537 0.98327 0.38149 0.0
H2589 H 0.32397 0.0161 0.36381 0.0
C2590 C 0.29467 0.99131 0.39266 0.0
C2591 C 0.31638 0.99222 0.37129 0.0
C2592 C 0.32799 0.98407 0.35898 0.0
C2593 C 0.2943 0.00813 0.39348 0.0
C2594 C 0.30472 0.01713 0.38263 0.0
C2595 C 0.31597 0.00911 0.37206 0.0
C2596 C 0.30304 0.03477 0.38102 0.0
C2597 C 0.28254 0.01616 0.40573 0.0
C2598 C 0.2889 0.0412 0.37391 0.0
C2599 C 0.28677 0.0578 0.3729 0.0
C2600 C 0.29877 0.06833 0.37898 0.0
C2601 C 0.31313 0.06185 0.38571 0.0
C2602 C 0.31527 0.04516 0.38666 0.0
H2603 H 0.2787 0.00794 0.41641 0.0
H2604 H 0.28784 0.02716 0.41163 0.0
H2605 H 0.27167 0.01974 0.39825 0.0
H2606 H 0.27943 0.03335 0.36924 0.0
H2607 H 0.2756 0.06234 0.36754 0.0
H2608 H 0.06158 0.72279 0.6368 0.0
H2609 H 0.03268 0.71805 0.6378 0.0
H2610 H 0.039 0.67317 0.61036 0.0
H2611 H 0.0681 0.67786 0.60916 0.0
H2612 H 0.0149 0.69308 0.59621 0.0
H2613 H 0.00713 0.68625 0.66785 0.0
H2614 H 0.01816 0.70403 0.66209 0.0
H2615 H 0.02648 0.68456 0.65725 0.0
C2616 C 0.05689 0.71183 0.63109 0.0
C2617 C 0.06717 0.7007 0.62289 0.0
C2618 C 0.04036 0.70909 0.63178 0.0
C2619 C 0.03373 0.69514 0.62441 0.0
C2620 C 0.04391 0.68395 0.61626 0.0
H2621 H 0.92975 0.67756 0.61008 0.0
H2622 H 0.95886 0.67283 0.61072 0.0
C2623 C 0.06052 0.68666 0.61559 0.0
C2624 C 0.01607 0.69288 0.62438 0.0
H2625 H 0.98336 0.69273 0.65138 0.0
C2626 C 0.00798 0.69268 0.60825 0.0
C2627 C 0.00711 0.69232 0.64012 0.0
C2628 C 0.01517 0.69164 0.65781 0.0
C2629 C 0.99111 0.69295 0.60744 0.0
C2630 C 0.98216 0.69318 0.6232 0.0
C2631 C 0.99026 0.69262 0.63932 0.0
C2632 C 0.9645 0.69546 0.62329 0.0
C2633 C 0.983 0.69387 0.58978 0.0
C2634 C 0.95805 0.70955 0.63052 0.0
C2635 C 0.9415 0.71226 0.63023 0.0
C2636 C 0.93103 0.70089 0.62274 0.0
C2637 C 0.93749 0.6866 0.61583 0.0
C2638 C 0.95411 0.6839 0.61612 0.0
H2639 H 0.99169 0.69635 0.57906 0.0
H2640 H 0.977 0.68224 0.58696 0.0
H2641 H 0.97365 0.7034 0.58974 0.0
H2642 H 0.96587 0.7186 0.63615 0.0
H2643 H 0.93695 0.72336 0.63574 0.0
H2644 H 0.32144 0.93073 0.60968 0.0
H2645 H 0.32592 0.95986 0.61085 0.0
H2646 H 0.28077 0.96594 0.63781 0.0
H2647 H 0.27624 0.93701 0.63685 0.0
H2648 H 0.30606 0.98368 0.59637 0.0
H2649 H 0.31196 0.99193 0.66804 0.0
H2650 H 0.31387 0.97252 0.65761 0.0
H2651 H 0.29431 0.98078 0.66212 0.0
C2652 C 0.31254 0.93826 0.616 0.0
C2653 C 0.29848 0.93154 0.62318 0.0
C2654 C 0.31513 0.95489 0.61666 0.0
C2655 C 0.3038 0.96501 0.62466 0.0
C2656 C 0.28983 0.95831 0.63192 0.0
H2657 H 0.27528 0.06202 0.63477 0.0
H2658 H 0.27993 0.03307 0.63554 0.0
C2659 C 0.28722 0.94175 0.63124 0.0
C2660 C 0.30592 0.98269 0.62455 0.0
H2661 H 0.30557 0.01557 0.65131 0.0
C2662 C 0.30626 0.99068 0.60836 0.0
C2663 C 0.30622 0.99175 0.64023 0.0
C2664 C 0.30673 0.9838 0.65799 0.0
C2665 C 0.30592 0.00755 0.60743 0.0
C2666 C 0.30546 0.01659 0.62312 0.0
C2667 C 0.30584 0.00859 0.6393 0.0
C2668 C 0.30323 0.03425 0.62303 0.0
C2669 C 0.3052 0.01554 0.58969 0.0
C2670 C 0.31493 0.04453 0.61594 0.0
C2671 C 0.3123 0.06115 0.61544 0.0
C2672 C 0.29795 0.06773 0.62207 0.0
C2673 C 0.28644 0.05737 0.62948 0.0
C2674 C 0.28908 0.04081 0.62998 0.0
H2675 H 0.3028 0.00678 0.57901 0.0
H2676 H 0.29568 0.02491 0.58946 0.0
H2677 H 0.31687 0.02149 0.58696 0.0
H2678 H 0.32605 0.0397 0.61077 0.0
H2679 H 0.32146 0.06881 0.60976 0.0
H2680 H 0.06905 0.32186 0.61015 0.0
H2681 H 0.03986 0.32596 0.61125 0.0
H2682 H 0.03428 0.28047 0.63768 0.0
H2683 H 0.06326 0.27633 0.63681 0.0
H2684 H 0.01628 0.30604 0.5965 0.0
H2685 H 0.00788 0.31098 0.66823 0.0
H2686 H 0.02728 0.31319 0.65788 0.0
H2687 H 0.0192 0.2935 0.6621 0.0
C2688 C 0.06161 0.31281 0.61634 0.0
C2689 C 0.06849 0.29878 0.6234 0.0
C2690 C 0.04495 0.31518 0.61695 0.0
C2691 C 0.03495 0.30364 0.62479 0.0
C2692 C 0.04181 0.2897 0.63192 0.0
H2693 H 0.93796 0.2744 0.6344 0.0
H2694 H 0.96692 0.279 0.63507 0.0
C2695 C 0.05839 0.2873 0.63129 0.0
C2696 C 0.01724 0.30555 0.62468 0.0
H2697 H 0.98433 0.30455 0.65137 0.0
C2698 C 0.00926 0.30602 0.60848 0.0
C2699 C 0.00816 0.30556 0.64034 0.0
C2700 C 0.01607 0.30595 0.65813 0.0
C2701 C 0.9924 0.30554 0.60752 0.0
C2702 C 0.98335 0.3048 0.62318 0.0
C2703 C 0.99132 0.30503 0.63939 0.0
C2704 C 0.9657 0.30252 0.62304 0.0
C2705 C 0.98443 0.305 0.58976 0.0
C2706 C 0.95539 0.31433 0.61624 0.0
C2707 C 0.93876 0.31173 0.6158 0.0
C2708 C 0.9322 0.29729 0.62221 0.0
C2709 C 0.94259 0.28563 0.62929 0.0
C2710 C 0.95915 0.28825 0.62973 0.0
H2711 H 0.99322 0.30281 0.57906 0.0
H2712 H 0.97513 0.29542 0.58937 0.0
H2713 H 0.97839 0.31666 0.58721 0.0
H2714 H 0.9602 0.32554 0.61126 0.0
H2715 H 0.93109 0.321 0.61038 0.0
H2716 H 0.6785 0.06952 0.61081 0.0
H2717 H 0.67416 0.04039 0.61242 0.0
H2718 H 0.72009 0.03468 0.63788 0.0
H2719 H 0.72449 0.06362 0.63649 0.0
H2720 H 0.69362 0.01643 0.59759 0.0
H2721 H 0.68979 0.00903 0.66955 0.0
H2722 H 0.68758 0.02831 0.65892 0.0
H2723 H 0.70727 0.02007 0.66282 0.0
C2724 C 0.68762 0.06207 0.61688 0.0
C2725 C 0.70184 0.0689 0.62353 0.0
C2726 C 0.6851 0.04545 0.61779 0.0
C2727 C 0.69668 0.03543 0.62552 0.0
C2728 C 0.71084 0.04223 0.63222 0.0
H2729 H 0.72439 0.93792 0.63566 0.0
H2730 H 0.72021 0.96695 0.63656 0.0
C2731 C 0.71338 0.05879 0.63129 0.0
C2732 C 0.69457 0.01774 0.62573 0.0
H2733 H 0.69539 0.98516 0.65291 0.0
C2734 C 0.69371 0.00957 0.60967 0.0
C2735 C 0.69466 0.00886 0.64153 0.0
C2736 C 0.69471 0.01702 0.65919 0.0
C2737 C 0.69386 0.9927 0.60896 0.0
C2738 C 0.69466 0.98383 0.62475 0.0
C2739 C 0.69485 0.99201 0.64083 0.0
C2740 C 0.69656 0.96613 0.62482 0.0
C2741 C 0.69401 0.98451 0.59131 0.0
C2742 C 0.68449 0.95602 0.61819 0.0
C2743 C 0.68684 0.93936 0.61763 0.0
C2744 C 0.70129 0.93257 0.62373 0.0
C2745 C 0.71315 0.94274 0.63078 0.0
C2746 C 0.71078 0.95934 0.63134 0.0
H2747 H 0.69632 0.99311 0.58046 0.0
H2748 H 0.70332 0.97495 0.59093 0.0
H2749 H 0.68216 0.97877 0.58899 0.0
H2750 H 0.67331 0.96102 0.61336 0.0
H2751 H 0.67742 0.93185 0.61223 0.0
H2752 H 0.56913 0.82243 0.88842 0.0
H2753 H 0.54 0.82694 0.88753 0.0
H2754 H 0.5334 0.78068 0.86307 0.0
H2755 H 0.56236 0.77612 0.86372 0.0
H2756 H 0.51568 0.80611 0.8473 0.0
H2757 H 0.5074 0.80372 0.91969 0.0
H2758 H 0.52197 0.81783 0.91153 0.0
H2759 H 0.52549 0.79666 0.90914 0.0
C2760 C 0.56148 0.81324 0.88282 0.0
C2761 C 0.56806 0.79886 0.87626 0.0
C2762 C 0.54484 0.81581 0.88239 0.0
C2763 C 0.53456 0.80405 0.87544 0.0
C2764 C 0.54114 0.78988 0.86853 0.0
H2765 H 0.43737 0.77642 0.86262 0.0
H2766 H 0.46628 0.78105 0.86149 0.0
C2767 C 0.55771 0.78729 0.86896 0.0
C2768 C 0.51689 0.80619 0.87548 0.0
H2769 H 0.48416 0.80674 0.90249 0.0
C2770 C 0.50878 0.80642 0.85936 0.0
C2771 C 0.50795 0.80669 0.89125 0.0
C2772 C 0.51607 0.80611 0.90892 0.0
C2773 C 0.49193 0.80668 0.85858 0.0
C2774 C 0.48298 0.80642 0.87433 0.0
C2775 C 0.49108 0.80692 0.89045 0.0
C2776 C 0.46531 0.80421 0.87437 0.0
C2777 C 0.48385 0.80703 0.84088 0.0
C2778 C 0.45517 0.81557 0.88229 0.0
C2779 C 0.43856 0.81293 0.88304 0.0
C2780 C 0.43186 0.79878 0.87605 0.0
C2781 C 0.44209 0.78747 0.8681 0.0
C2782 C 0.45864 0.79014 0.86732 0.0
H2783 H 0.49189 0.8122 0.8307 0.0
H2784 H 0.48084 0.79455 0.83689 0.0
H2785 H 0.47255 0.81413 0.84128 0.0
H2786 H 0.46013 0.82645 0.88794 0.0
H2787 H 0.43102 0.82187 0.88928 0.0
H2788 H 0.17852 0.43113 0.88991 0.0
H2789 H 0.17376 0.46021 0.88848 0.0
H2790 H 0.21942 0.46664 0.86263 0.0
H2791 H 0.22422 0.43776 0.86385 0.0
H2792 H 0.19305 0.48446 0.9032 0.0
H2793 H 0.18845 0.49188 0.8313 0.0
H2794 H 0.18656 0.47257 0.84193 0.0
H2795 H 0.20611 0.48101 0.83779 0.0
C2796 C 0.18748 0.43873 0.8838 0.0
C2797 C 0.20175 0.43212 0.87699 0.0
C2798 C 0.18474 0.45532 0.88299 0.0
C2799 C 0.19612 0.46553 0.8752 0.0
C2800 C 0.21031 0.45894 0.86835 0.0
H2801 H 0.2237 0.56265 0.86447 0.0
H2802 H 0.21928 0.53368 0.8639 0.0
C2803 C 0.21309 0.44242 0.86918 0.0
C2804 C 0.19376 0.48318 0.87504 0.0
H2805 H 0.19416 0.51578 0.84788 0.0
C2806 C 0.19298 0.49133 0.89112 0.0
C2807 C 0.19363 0.49207 0.85925 0.0
C2808 C 0.19357 0.48393 0.84159 0.0
C2809 C 0.19307 0.50821 0.89185 0.0
C2810 C 0.19371 0.51709 0.87605 0.0
C2811 C 0.19375 0.50892 0.85997 0.0
C2812 C 0.19577 0.53477 0.87596 0.0
C2813 C 0.19335 0.51639 0.90949 0.0
C2814 C 0.18388 0.54503 0.88271 0.0
C2815 C 0.18638 0.56168 0.8831 0.0
C2816 C 0.2008 0.5683 0.87669 0.0
C2817 C 0.21249 0.55797 0.86959 0.0
C2818 C 0.20998 0.54139 0.86921 0.0
H2819 H 0.19565 0.50777 0.92033 0.0
H2820 H 0.20274 0.52588 0.90982 0.0
H2821 H 0.18156 0.52222 0.91188 0.0
H2822 H 0.17272 0.54016 0.88773 0.0
H2823 H 0.17709 0.56931 0.88854 0.0
H2824 H 0.43102 0.17771 0.89027 0.0
H2825 H 0.46036 0.17451 0.89133 0.0
H2826 H 0.46617 0.22046 0.86595 0.0
H2827 H 0.43709 0.22382 0.86489 0.0
H2828 H 0.48431 0.17583 0.86303 0.0
H2829 H 0.49197 0.22408 0.91249 0.0
H2830 H 0.47285 0.21452 0.90833 0.0
H2831 H 0.48012 0.22997 0.89389 0.0
C2832 C 0.43855 0.18709 0.88485 0.0
C2833 C 0.43171 0.2011 0.87767 0.0
C2834 C 0.45529 0.18523 0.88545 0.0
C2835 C 0.46538 0.19738 0.87898 0.0
C2836 C 0.45857 0.21108 0.87129 0.0
H2837 H 0.56269 0.22407 0.86494 0.0
H2838 H 0.53363 0.22029 0.86567 0.0
C2839 C 0.44192 0.21295 0.87066 0.0
C2840 C 0.48306 0.19611 0.8805 0.0
H2841 H 0.51562 0.21569 0.89734 0.0
C2842 C 0.4912 0.18436 0.87072 0.0
C2843 C 0.49195 0.20721 0.89064 0.0
C2844 C 0.48379 0.21957 0.90208 0.0
C2845 C 0.5081 0.18401 0.87008 0.0
C2846 C 0.51695 0.1956 0.87961 0.0
C2847 C 0.50877 0.2069 0.88994 0.0
C2848 C 0.53464 0.197 0.87823 0.0
C2849 C 0.51637 0.17176 0.85864 0.0
C2850 C 0.54484 0.18507 0.88497 0.0
C2851 C 0.56155 0.18719 0.8846 0.0
C2852 C 0.56826 0.20131 0.87754 0.0
C2853 C 0.55795 0.21306 0.87051 0.0
C2854 C 0.54133 0.21094 0.87091 0.0
H2855 H 0.50778 0.1653 0.85 0.0
H2856 H 0.52565 0.17764 0.85036 0.0
H2857 H 0.52252 0.16278 0.86704 0.0
H2858 H 0.53988 0.17433 0.89089 0.0
H2859 H 0.56915 0.17792 0.89013 0.0
H2860 H 0.8225 0.4308 0.88865 0.0
H2861 H 0.82698 0.45993 0.88784 0.0
H2862 H 0.78072 0.46654 0.86337 0.0
H2863 H 0.77619 0.43758 0.86393 0.0
H2864 H 0.80612 0.48434 0.84768 0.0
H2865 H 0.80376 0.49242 0.92009 0.0
H2866 H 0.81789 0.47789 0.91189 0.0
H2867 H 0.79672 0.47434 0.90948 0.0
C2868 C 0.8133 0.43845 0.88306 0.0
C2869 C 0.79894 0.43187 0.87647 0.0
C2870 C 0.81586 0.45509 0.88268 0.0
C2871 C 0.80409 0.46538 0.87575 0.0
C2872 C 0.78993 0.4588 0.86881 0.0
H2873 H 0.77653 0.56265 0.86328 0.0
H2874 H 0.78111 0.53373 0.86206 0.0
C2875 C 0.78736 0.44223 0.86919 0.0
C2876 C 0.80622 0.48305 0.87585 0.0
H2877 H 0.80681 0.5157 0.90297 0.0
C2878 C 0.80644 0.49121 0.85976 0.0
C2879 C 0.80673 0.49194 0.89165 0.0
C2880 C 0.80616 0.48378 0.9093 0.0
C2881 C 0.80671 0.50806 0.85903 0.0
C2882 C 0.80647 0.51696 0.87481 0.0
C2883 C 0.80697 0.50882 0.8909 0.0
C2884 C 0.80428 0.53464 0.87492 0.0
C2885 C 0.80705 0.51619 0.84136 0.0
C2886 C 0.81567 0.54474 0.88285 0.0
C2887 C 0.81306 0.56135 0.88365 0.0
C2888 C 0.79891 0.56809 0.87669 0.0
C2889 C 0.78757 0.55789 0.86872 0.0
C2890 C 0.79022 0.54135 0.8679 0.0
H2891 H 0.8122 0.50817 0.83115 0.0
H2892 H 0.79458 0.51923 0.8374 0.0
H2893 H 0.81417 0.52747 0.8418 0.0
H2894 H 0.82655 0.53975 0.88847 0.0
H2895 H 0.82202 0.56887 0.88989 0.0
H2896 H 0.43769 0.22528 0.13428 0.0
H2897 H 0.46666 0.22083 0.13527 0.0
H2898 H 0.4604 0.17416 0.11162 0.0
H2899 H 0.43126 0.17855 0.1104 0.0
H2900 H 0.48422 0.19558 0.15177 0.0
H2901 H 0.49335 0.19699 0.07948 0.0
H2902 H 0.47515 0.20424 0.08967 0.0
H2903 H 0.47865 0.18302 0.08766 0.0
C2904 C 0.44242 0.21405 0.12928 0.0
C2905 C 0.43216 0.20232 0.12212 0.0
C2906 C 0.45899 0.21152 0.1299 0.0
C2907 C 0.46567 0.19726 0.12334 0.0
C2908 C 0.45548 0.18536 0.1165 0.0
H2909 H 0.56919 0.17883 0.11089 0.0
H2910 H 0.54004 0.1745 0.112 0.0
C2911 C 0.43884 0.18787 0.11588 0.0
C2912 C 0.48335 0.19513 0.12358 0.0
H2913 H 0.51638 0.19412 0.09704 0.0
C2914 C 0.49126 0.1951 0.13981 0.0
C2915 C 0.49246 0.19441 0.10795 0.0
C2916 C 0.48455 0.19477 0.09016 0.0
C2917 C 0.5081 0.19478 0.14084 0.0
C2918 C 0.51724 0.19479 0.12522 0.0
C2919 C 0.50932 0.19413 0.10899 0.0
C2920 C 0.53493 0.19685 0.12538 0.0
C2921 C 0.51596 0.1946 0.15866 0.0
C2922 C 0.54167 0.21089 0.13243 0.0
C2923 C 0.55824 0.21342 0.13179 0.0
C2924 C 0.56844 0.20199 0.12398 0.0
C2925 C 0.56168 0.18786 0.11702 0.0
C2926 C 0.54504 0.18536 0.11764 0.0
H2927 H 0.50778 0.18956 0.16878 0.0
H2928 H 0.52724 0.18746 0.15852 0.0
H2929 H 0.51896 0.2071 0.16254 0.0
H2930 H 0.53406 0.22008 0.13811 0.0
H2931 H 0.56302 0.22446 0.13723 0.0
H2932 H 0.77719 0.5631 0.13682 0.0
H2933 H 0.78171 0.53417 0.13778 0.0
H2934 H 0.82683 0.54021 0.11074 0.0
H2935 H 0.82237 0.56935 0.10957 0.0
H2936 H 0.80685 0.5163 0.09637 0.0
H2937 H 0.8131 0.50835 0.16806 0.0
H2938 H 0.79544 0.5195 0.16215 0.0
H2939 H 0.815 0.5277 0.15751 0.0
C2940 C 0.78816 0.55835 0.13118 0.0
C2941 C 0.79943 0.56855 0.12311 0.0
C2942 C 0.79077 0.54179 0.13186 0.0
C2943 C 0.80472 0.53508 0.12459 0.0
C2944 C 0.81605 0.54519 0.11655 0.0
H2945 H 0.82257 0.43128 0.1101 0.0
H2946 H 0.82709 0.4604 0.11097 0.0
C2947 C 0.81347 0.56182 0.1159 0.0
C2948 C 0.80686 0.5174 0.12455 0.0
H2949 H 0.80672 0.48463 0.15147 0.0
C2950 C 0.80713 0.50934 0.10839 0.0
C2951 C 0.80726 0.50841 0.14026 0.0
C2952 C 0.80785 0.51644 0.15798 0.0
C2953 C 0.80682 0.49248 0.10755 0.0
C2954 C 0.80647 0.4835 0.12328 0.0
C2955 C 0.80691 0.49156 0.13943 0.0
C2956 C 0.8043 0.46583 0.1233 0.0
C2957 C 0.80601 0.48441 0.08986 0.0
C2958 C 0.79019 0.45925 0.13033 0.0
C2959 C 0.78759 0.44268 0.12991 0.0
C2960 C 0.7991 0.43233 0.12249 0.0
C2961 C 0.81342 0.43893 0.1158 0.0
C2962 C 0.816 0.45556 0.11622 0.0
H2963 H 0.80355 0.49311 0.07915 0.0
H2964 H 0.81768 0.47846 0.08708 0.0
H2965 H 0.79651 0.47503 0.08974 0.0
H2966 H 0.78103 0.46698 0.1359 0.0
H2967 H 0.77645 0.43803 0.13525 0.0
H2968 H 0.43714 0.77599 0.13556 0.0
H2969 H 0.4661 0.78031 0.13667 0.0
H2970 H 0.46033 0.82614 0.11101 0.0
H2971 H 0.43117 0.82187 0.10969 0.0
H2972 H 0.48416 0.8065 0.09608 0.0
H2973 H 0.49202 0.81072 0.16796 0.0
H2974 H 0.48085 0.79325 0.16144 0.0
H2975 H 0.47268 0.81295 0.15746 0.0
C2976 C 0.44196 0.78706 0.13026 0.0
C2977 C 0.43182 0.79859 0.12253 0.0
C2978 C 0.45853 0.78956 0.13102 0.0
C2979 C 0.46532 0.80366 0.12419 0.0
C2980 C 0.45528 0.81524 0.11649 0.0
H2981 H 0.56912 0.82193 0.11038 0.0
H2982 H 0.53998 0.82634 0.11132 0.0
C2983 C 0.43864 0.81277 0.11575 0.0
C2984 C 0.48301 0.80572 0.12424 0.0
H2985 H 0.51575 0.80483 0.1512 0.0
C2986 C 0.49109 0.80644 0.10812 0.0
C2987 C 0.49199 0.80567 0.13998 0.0
C2988 C 0.48394 0.80577 0.1577 0.0
C2989 C 0.50796 0.80616 0.10729 0.0
C2990 C 0.51692 0.80538 0.12302 0.0
C2991 C 0.50883 0.80536 0.13916 0.0
C2992 C 0.53459 0.80325 0.12299 0.0
C2993 C 0.51605 0.80585 0.08959 0.0
C2994 C 0.54121 0.789 0.12965 0.0
C2995 C 0.55778 0.78646 0.12919 0.0
C2996 C 0.56811 0.79817 0.12212 0.0
C2997 C 0.56149 0.81262 0.1158 0.0
C2998 C 0.54485 0.81514 0.11626 0.0
H2999 H 0.50736 0.80362 0.0788 0.0
H3000 H 0.52193 0.81762 0.08718 0.0
H3001 H 0.52548 0.79641 0.08919 0.0
H3002 H 0.53349 0.77969 0.13494 0.0
H3003 H 0.56246 0.77522 0.13424 0.0
H3004 H 0.17869 0.43154 0.10999 0.0
H3005 H 0.17556 0.46088 0.10895 0.0
H3006 H 0.22209 0.4666 0.13307 0.0
H3007 H 0.22539 0.4375 0.13409 0.0
H3008 H 0.17748 0.48474 0.13714 0.0
H3009 H 0.22473 0.4925 0.08656 0.0
H3010 H 0.2153 0.47336 0.09095 0.0
H3011 H 0.231 0.48068 0.10504 0.0
C3012 C 0.18823 0.43905 0.11513 0.0
C3013 C 0.20237 0.43218 0.12195 0.0
C3014 C 0.1864 0.45579 0.11454 0.0
C3015 C 0.19871 0.46585 0.12067 0.0
C3016 C 0.21257 0.45902 0.12799 0.0
H3017 H 0.22507 0.56349 0.13371 0.0
H3018 H 0.2216 0.5344 0.13312 0.0
C3019 C 0.21441 0.44236 0.12861 0.0
C3020 C 0.19741 0.48354 0.1192 0.0
H3021 H 0.21648 0.51614 0.10179 0.0
C3022 C 0.18582 0.49165 0.12924 0.0
C3023 C 0.20827 0.49245 0.10878 0.0
C3024 C 0.22044 0.48432 0.09708 0.0
C3025 C 0.1854 0.50855 0.12982 0.0
C3026 C 0.19673 0.51743 0.11997 0.0
C3027 C 0.20788 0.50928 0.10942 0.0
C3028 C 0.19802 0.53514 0.1212 0.0
C3029 C 0.17334 0.51679 0.14154 0.0
C3030 C 0.18583 0.5452 0.11476 0.0
C3031 C 0.18778 0.56193 0.11506 0.0
C3032 C 0.20197 0.5688 0.12174 0.0
C3033 C 0.214 0.55863 0.12844 0.0
C3034 C 0.21205 0.54198 0.12811 0.0
H3035 H 0.16717 0.50819 0.15043 0.0
H3036 H 0.17932 0.52618 0.14957 0.0
H3037 H 0.1641 0.52278 0.13334 0.0
H3038 H 0.175 0.54012 0.10916 0.0
H3039 H 0.17829 0.56943 0.10979 0.0
H3040 H 0.14213 0.31154 0.42775 0.0
H3041 H 0.14151 0.31218 0.45978 0.0
H3042 H 0.10445 0.27593 0.45996 0.0
H3043 H 0.10503 0.27502 0.42802 0.0
H3044 H 0.11534 0.31865 0.48282 0.0
H3045 H 0.13963 0.25698 0.4918 0.0
H3046 H 0.14085 0.26759 0.47121 0.0
H3047 H 0.12234 0.25821 0.47776 0.0
C3048 C 0.13382 0.3037 0.43456 0.0
C3049 C 0.1237 0.29315 0.42526 0.0
C3050 C 0.13348 0.30411 0.45287 0.0
C3051 C 0.12312 0.29393 0.4622 0.0
C3052 C 0.11275 0.28366 0.45299 0.0
H3053 H 0.10592 0.27486 0.57226 0.0
H3054 H 0.10497 0.27588 0.54029 0.0
C3055 C 0.11306 0.28324 0.43471 0.0
C3056 C 0.12314 0.294 0.48159 0.0
H3057 H 0.13029 0.27031 0.51727 0.0
C3058 C 0.11866 0.30812 0.49038 0.0
C3059 C 0.12746 0.28022 0.49137 0.0
C3060 C 0.13298 0.26492 0.4826 0.0
C3061 C 0.11811 0.30874 0.50876 0.0
C3062 C 0.12243 0.29495 0.51853 0.0
C3063 C 0.12692 0.28084 0.50972 0.0
C3064 C 0.12257 0.2949 0.53794 0.0
C3065 C 0.11259 0.32403 0.51753 0.0
C3066 C 0.13286 0.30521 0.5472 0.0
C3067 C 0.13344 0.3047 0.56548 0.0
C3068 C 0.12379 0.29377 0.57487 0.0
C3069 C 0.11348 0.28346 0.5655 0.0
C3070 C 0.11292 0.28401 0.54722 0.0
H3071 H 0.10571 0.33183 0.50839 0.0
H3072 H 0.10495 0.32137 0.52911 0.0
H3073 H 0.12325 0.33089 0.52207 0.0
H3074 H 0.14067 0.31347 0.54027 0.0
H3075 H 0.1416 0.31275 0.57221 0.0
H3076 H 0.72589 0.10727 0.57188 0.0
H3077 H 0.72489 0.10676 0.53988 0.0
H3078 H 0.68537 0.14031 0.54054 0.0
H3079 H 0.68633 0.14109 0.5725 0.0
H3080 H 0.69916 0.09848 0.51723 0.0
H3081 H 0.71854 0.16188 0.50821 0.0
H3082 H 0.72075 0.15136 0.52876 0.0
H3083 H 0.7015 0.15924 0.52238 0.0
C3084 C 0.71695 0.11454 0.56526 0.0
C3085 C 0.70625 0.12429 0.57482 0.0
C3086 C 0.7164 0.11421 0.54696 0.0
C3087 C 0.70522 0.12368 0.53787 0.0
C3088 C 0.69429 0.13314 0.54732 0.0
H3089 H 0.68683 0.14102 0.42751 0.0
H3090 H 0.68572 0.14007 0.45947 0.0
C3091 C 0.69482 0.1335 0.56561 0.0
C3092 C 0.70503 0.12367 0.51846 0.0
H3093 H 0.71042 0.14779 0.48276 0.0
C3094 C 0.70165 0.10924 0.50967 0.0
C3095 C 0.70828 0.13774 0.50868 0.0
C3096 C 0.71261 0.15342 0.51744 0.0
C3097 C 0.70122 0.10855 0.49129 0.0
C3098 C 0.70452 0.12262 0.48151 0.0
C3099 C 0.70785 0.13705 0.49031 0.0
C3100 C 0.70484 0.12261 0.4621 0.0
C3101 C 0.69694 0.09287 0.48252 0.0
C3102 C 0.71604 0.11317 0.45299 0.0
C3103 C 0.71672 0.11364 0.43471 0.0
C3104 C 0.70626 0.12367 0.42516 0.0
C3105 C 0.69504 0.13312 0.43438 0.0
C3106 C 0.69438 0.13262 0.45267 0.0
H3107 H 0.69065 0.08457 0.49164 0.0
H3108 H 0.68917 0.09492 0.4709 0.0
H3109 H 0.70812 0.08686 0.47804 0.0
H3110 H 0.72445 0.10562 0.46005 0.0
H3111 H 0.72558 0.10628 0.42809 0.0
H3112 H 0.86014 0.68816 0.42864 0.0
H3113 H 0.86119 0.68814 0.46064 0.0
H3114 H 0.89618 0.72637 0.4595 0.0
H3115 H 0.89514 0.72667 0.42753 0.0
H3116 H 0.8878 0.68339 0.48332 0.0
H3117 H 0.86064 0.74395 0.4917 0.0
H3118 H 0.85974 0.73306 0.47127 0.0
H3119 H 0.87788 0.74329 0.47753 0.0
C3120 C 0.86809 0.69658 0.43515 0.0
C3121 C 0.87749 0.70749 0.42545 0.0
C3122 C 0.86867 0.69652 0.45345 0.0
C3123 C 0.87858 0.70741 0.46242 0.0
C3124 C 0.88823 0.71807 0.45282 0.0
H3125 H 0.8935 0.72752 0.57316 0.0
H3126 H 0.89514 0.72684 0.54118 0.0
C3127 C 0.88767 0.71816 0.43453 0.0
C3128 C 0.87878 0.70762 0.48183 0.0
H3129 H 0.87026 0.73113 0.5173 0.0
C3130 C 0.88394 0.69381 0.49077 0.0
C3131 C 0.87378 0.72125 0.49148 0.0
C3132 C 0.86756 0.7362 0.48256 0.0
C3133 C 0.88439 0.69332 0.50915 0.0
C3134 C 0.87927 0.7069 0.51881 0.0
C3135 C 0.87422 0.72075 0.50986 0.0
C3136 C 0.87867 0.7069 0.53822 0.0
C3137 C 0.8906 0.67835 0.51806 0.0
C3138 C 0.86874 0.696 0.54715 0.0
C3139 C 0.86778 0.69631 0.56541 0.0
C3140 C 0.87664 0.70764 0.57515 0.0
C3141 C 0.88654 0.7186 0.56613 0.0
C3142 C 0.8875 0.71825 0.54784 0.0
H3143 H 0.89813 0.671 0.5091 0.0
H3144 H 0.89781 0.68142 0.52985 0.0
H3145 H 0.88026 0.67087 0.52229 0.0
H3146 H 0.86154 0.68738 0.53996 0.0
H3147 H 0.85994 0.68776 0.57186 0.0
H3148 H 0.31218 0.85911 0.57182 0.0
H3149 H 0.31309 0.86027 0.53988 0.0
H3150 H 0.27451 0.89489 0.53986 0.0
H3151 H 0.27357 0.89401 0.57183 0.0
H3152 H 0.28804 0.8528 0.51679 0.0
H3153 H 0.30839 0.91591 0.50816 0.0
H3154 H 0.30998 0.9054 0.5288 0.0
H3155 H 0.29101 0.91358 0.5219 0.0
C3156 C 0.30396 0.86709 0.56508 0.0
C3157 C 0.29283 0.87651 0.57446 0.0
C3158 C 0.3045 0.86771 0.54681 0.0
C3159 C 0.29403 0.87782 0.53754 0.0
C3160 C 0.28293 0.88726 0.54679 0.0
H3161 H 0.27399 0.89362 0.42746 0.0
H3162 H 0.27454 0.89408 0.45947 0.0
C3163 C 0.28236 0.88666 0.56508 0.0
C3164 C 0.29424 0.87791 0.51814 0.0
H3165 H 0.30006 0.90205 0.48251 0.0
C3166 C 0.29076 0.86354 0.50928 0.0
C3167 C 0.29772 0.89196 0.50841 0.0
C3168 C 0.30213 0.90757 0.51727 0.0
C3169 C 0.29041 0.86289 0.49092 0.0
C3170 C 0.29392 0.87693 0.48119 0.0
C3171 C 0.29738 0.89131 0.49003 0.0
C3172 C 0.29397 0.87692 0.46179 0.0
C3173 C 0.28594 0.84728 0.48209 0.0
C3174 C 0.30491 0.86732 0.45251 0.0
C3175 C 0.30464 0.86699 0.43422 0.0
C3176 C 0.29346 0.87635 0.42483 0.0
C3177 C 0.28274 0.88623 0.43422 0.0
C3178 C 0.28303 0.88653 0.45252 0.0
H3179 H 0.27978 0.83891 0.49124 0.0
H3180 H 0.27797 0.84945 0.47066 0.0
H3181 H 0.29703 0.84128 0.47731 0.0
H3182 H 0.31365 0.86005 0.45943 0.0
H3183 H 0.31313 0.85931 0.42746 0.0
H3184 H 0.10513 0.7261 0.42695 0.0
H3185 H 0.10394 0.72544 0.4589 0.0
H3186 H 0.13963 0.68786 0.45978 0.0
H3187 H 0.14081 0.68822 0.42779 0.0
H3188 H 0.11322 0.68234 0.48228 0.0
H3189 H 0.13889 0.74343 0.49145 0.0
H3190 H 0.1217 0.74261 0.47723 0.0
H3191 H 0.14005 0.73278 0.47088 0.0
C3192 C 0.11273 0.71765 0.43389 0.0
C3193 C 0.12314 0.70727 0.42474 0.0
C3194 C 0.11208 0.71737 0.45217 0.0
C3195 C 0.12189 0.70679 0.46169 0.0
C3196 C 0.13203 0.69617 0.45265 0.0
H3197 H 0.13975 0.68755 0.57159 0.0
H3198 H 0.13873 0.68697 0.53964 0.0
C3199 C 0.13269 0.69642 0.43436 0.0
C3200 C 0.1216 0.70681 0.48109 0.0
H3201 H 0.12914 0.7303 0.51683 0.0
C3202 C 0.11673 0.6928 0.48986 0.0
C3203 C 0.12618 0.72049 0.4909 0.0
C3204 C 0.13214 0.73565 0.48218 0.0
C3205 C 0.11611 0.69217 0.50823 0.0
C3206 C 0.12073 0.70584 0.51804 0.0
C3207 C 0.12555 0.71986 0.50926 0.0
C3208 C 0.12092 0.70582 0.53744 0.0
C3209 C 0.11023 0.677 0.51697 0.0
C3210 C 0.11145 0.71682 0.5468 0.0
C3211 C 0.11205 0.71727 0.56509 0.0
C3212 C 0.12223 0.70678 0.57438 0.0
C3213 C 0.13169 0.69575 0.56492 0.0
C3214 C 0.13107 0.69532 0.54663 0.0
H3215 H 0.10321 0.66936 0.50781 0.0
H3216 H 0.12073 0.66991 0.52154 0.0
H3217 H 0.10262 0.67982 0.52853 0.0
H3218 H 0.10361 0.7251 0.53993 0.0
H3219 H 0.10463 0.72596 0.57191 0.0
H3220 H 0.31232 0.13982 0.42767 0.0
H3221 H 0.31234 0.13854 0.4596 0.0
H3222 H 0.27175 0.10632 0.45833 0.0
H3223 H 0.27167 0.10734 0.42631 0.0
H3224 H 0.28709 0.1473 0.48219 0.0
H3225 H 0.30397 0.08311 0.49054 0.0
H3226 H 0.30662 0.09373 0.47011 0.0
H3227 H 0.28705 0.08664 0.47642 0.0
C3228 C 0.30343 0.13235 0.43411 0.0
C3229 C 0.29202 0.12363 0.42435 0.0
C3230 C 0.30348 0.13166 0.45239 0.0
C3231 C 0.29219 0.12218 0.46131 0.0
C3232 C 0.28076 0.11347 0.45167 0.0
H3233 H 0.27188 0.10658 0.57165 0.0
H3234 H 0.27208 0.10618 0.53963 0.0
C3235 C 0.28069 0.11415 0.43337 0.0
C3236 C 0.29205 0.12193 0.48071 0.0
H3237 H 0.29666 0.09738 0.51622 0.0
C3238 C 0.28923 0.13641 0.48965 0.0
C3239 C 0.29479 0.10768 0.49036 0.0
C3240 C 0.29842 0.09191 0.48142 0.0
C3241 C 0.2889 0.13699 0.50802 0.0
C3242 C 0.29176 0.12276 0.51768 0.0
C3243 C 0.29449 0.10826 0.50875 0.0
C3244 C 0.29201 0.12272 0.53709 0.0
C3245 C 0.28516 0.15276 0.5169 0.0
C3246 C 0.30335 0.13193 0.54627 0.0
C3247 C 0.30328 0.13223 0.56457 0.0
C3248 C 0.29191 0.12321 0.57408 0.0
C3249 C 0.28079 0.1137 0.5648 0.0
C3250 C 0.28088 0.11343 0.54648 0.0
H3251 H 0.27919 0.16134 0.50784 0.0
H3252 H 0.27729 0.15092 0.52848 0.0
H3253 H 0.29654 0.15834 0.52145 0.0
H3254 H 0.31226 0.13893 0.53926 0.0
H3255 H 0.31209 0.13962 0.57124 0.0
H3256 H 0.90176 0.29377 0.42659 0.0
H3257 H 0.90277 0.29477 0.45863 0.0
H3258 H 0.85086 0.29431 0.46052 0.0
H3259 H 0.84991 0.2946 0.4285 0.0
H3260 H 0.86051 0.31345 0.48364 0.0
H3261 H 0.89756 0.25872 0.49114 0.0
H3262 H 0.90804 0.2737 0.47877 0.0
H3263 H 0.8898 0.26498 0.4702 0.0
C3264 C 0.8906 0.29393 0.43392 0.0
C3265 C 0.87576 0.29402 0.42518 0.0
C3266 C 0.89117 0.29432 0.45223 0.0
C3267 C 0.8769 0.29411 0.46211 0.0
C3268 C 0.86206 0.29441 0.45327 0.0
H3269 H 0.87402 0.26682 0.57183 0.0
H3270 H 0.87379 0.26785 0.53982 0.0
C3271 C 0.86151 0.29455 0.43498 0.0
C3272 C 0.87733 0.29382 0.48162 0.0
H3273 H 0.89411 0.27472 0.51674 0.0
C3274 C 0.86776 0.30487 0.49086 0.0
C3275 C 0.88656 0.28247 0.49114 0.0
C3276 C 0.89591 0.2692 0.48229 0.0
C3277 C 0.86712 0.30489 0.50924 0.0
C3278 C 0.87705 0.29414 0.51877 0.0
C3279 C 0.88664 0.28311 0.50952 0.0
C3280 C 0.87727 0.29366 0.53827 0.0
C3281 C 0.85531 0.31603 0.5181 0.0
C3282 C 0.87952 0.30773 0.54818 0.0
C3283 C 0.8791 0.3072 0.56648 0.0
C3284 C 0.87713 0.29247 0.5752 0.0
C3285 C 0.8756 0.27831 0.56537 0.0
C3286 C 0.87548 0.27891 0.54708 0.0
H3287 H 0.84517 0.31916 0.50925 0.0
H3288 H 0.85026 0.31057 0.53018 0.0
H3289 H 0.8615 0.32739 0.52163 0.0
H3290 H 0.88159 0.31916 0.54179 0.0
H3291 H 0.88057 0.31824 0.57383 0.0
H3292 H 0.72341 0.8958 0.57117 0.0
H3293 H 0.72223 0.89645 0.53923 0.0
H3294 H 0.68584 0.85953 0.53974 0.0
H3295 H 0.68674 0.85887 0.57173 0.0
H3296 H 0.72865 0.87062 0.51679 0.0
H3297 H 0.66664 0.89382 0.50715 0.0
H3298 H 0.67708 0.8953 0.52784 0.0
H3299 H 0.6681 0.8766 0.52126 0.0
C3300 C 0.71502 0.88791 0.56455 0.0
C3301 C 0.70514 0.8773 0.57408 0.0
C3302 C 0.71439 0.8883 0.54628 0.0
C3303 C 0.70382 0.87818 0.53715 0.0
C3304 C 0.69386 0.86766 0.54656 0.0
H3305 H 0.68772 0.85786 0.42718 0.0
H3306 H 0.68698 0.85883 0.45916 0.0
C3307 C 0.69446 0.86725 0.56486 0.0
C3308 C 0.70387 0.87808 0.51776 0.0
H3309 H 0.68038 0.88465 0.48178 0.0
C3310 C 0.71813 0.87377 0.50912 0.0
C3311 C 0.6901 0.88212 0.50783 0.0
C3312 C 0.67464 0.88736 0.51645 0.0
C3313 C 0.71893 0.87315 0.49077 0.0
C3314 C 0.70517 0.87726 0.48083 0.0
C3315 C 0.6909 0.88153 0.48946 0.0
C3316 C 0.70537 0.87709 0.46144 0.0
C3317 C 0.73438 0.86776 0.48222 0.0
C3318 C 0.71577 0.88726 0.45213 0.0
C3319 C 0.71628 0.88672 0.43384 0.0
C3320 C 0.7063 0.87608 0.4245 0.0
C3321 C 0.69562 0.86617 0.43391 0.0
C3322 C 0.69515 0.86671 0.4522 0.0
H3323 H 0.74224 0.86116 0.49153 0.0
H3324 H 0.73191 0.85988 0.47078 0.0
H3325 H 0.74107 0.87846 0.47751 0.0
H3326 H 0.72353 0.89559 0.45902 0.0
H3327 H 0.72458 0.89461 0.42706 0.0
H3328 H 0.60659 0.77371 0.07119 0.0
H3329 H 0.6061 0.77469 0.0392 0.0
H3330 H 0.6396 0.81424 0.03982 0.0
H3331 H 0.64038 0.8133 0.07178 0.0
H3332 H 0.59781 0.80039 0.01651 0.0
H3333 H 0.66122 0.78102 0.00759 0.0
H3334 H 0.65069 0.77884 0.02813 0.0
H3335 H 0.65858 0.79808 0.02173 0.0
C3336 C 0.61386 0.78265 0.06457 0.0
C3337 C 0.62361 0.79337 0.07411 0.0
C3338 C 0.61353 0.78319 0.04627 0.0
C3339 C 0.62299 0.79437 0.03717 0.0
C3340 C 0.63245 0.80531 0.04661 0.0
H3341 H 0.64054 0.813 0.92702 0.0
H3342 H 0.63945 0.81401 0.95897 0.0
C3343 C 0.6328 0.8048 0.0649 0.0
C3344 C 0.623 0.79454 0.01778 0.0
H3345 H 0.64718 0.78918 0.98212 0.0
C3346 C 0.60858 0.7979 0.00896 0.0
C3347 C 0.63708 0.79129 0.00802 0.0
C3348 C 0.65276 0.78696 0.0168 0.0
C3349 C 0.60792 0.79834 0.99059 0.0
C3350 C 0.622 0.79506 0.98083 0.0
C3351 C 0.63642 0.79173 0.98966 0.0
C3352 C 0.62204 0.79482 0.96143 0.0
C3353 C 0.59224 0.8026 0.98178 0.0
C3354 C 0.61268 0.78361 0.95224 0.0
C3355 C 0.61324 0.78299 0.93395 0.0
C3356 C 0.62328 0.79351 0.92451 0.0
C3357 C 0.63264 0.80474 0.93381 0.0
C3358 C 0.63205 0.80534 0.95209 0.0
H3359 H 0.58389 0.80882 0.9909 0.0
H3360 H 0.59431 0.81044 0.97022 0.0
H3361 H 0.58629 0.79142 0.97721 0.0
H3362 H 0.60513 0.77515 0.95922 0.0
H3363 H 0.60595 0.77412 0.92726 0.0
H3364 H 0.18612 0.64106 0.92692 0.0
H3365 H 0.18521 0.64047 0.95888 0.0
H3366 H 0.22435 0.60649 0.95968 0.0
H3367 H 0.22529 0.60679 0.92768 0.0
H3368 H 0.19869 0.59862 0.98247 0.0
H3369 H 0.21861 0.66191 0.99095 0.0
H3370 H 0.20148 0.65936 0.97689 0.0
H3371 H 0.22062 0.65127 0.97045 0.0
C3372 C 0.19453 0.63341 0.93384 0.0
C3373 C 0.20584 0.62403 0.92467 0.0
C3374 C 0.19404 0.63317 0.95213 0.0
C3375 C 0.20488 0.62364 0.96163 0.0
C3376 C 0.21593 0.61399 0.95257 0.0
H3377 H 0.22546 0.607 0.0715 0.0
H3378 H 0.22429 0.60613 0.03954 0.0
C3379 C 0.21645 0.6142 0.93427 0.0
C3380 C 0.20474 0.62375 0.98103 0.0
H3381 H 0.21038 0.64807 0.01653 0.0
C3382 C 0.20128 0.60941 0.98994 0.0
C3383 C 0.20812 0.63786 0.9907 0.0
C3384 C 0.21256 0.65345 0.9818 0.0
C3385 C 0.2009 0.60884 0.00833 0.0
C3386 C 0.20432 0.62295 0.01799 0.0
C3387 C 0.20772 0.6373 0.00906 0.0
C3388 C 0.20465 0.62307 0.03739 0.0
C3389 C 0.19655 0.59325 0.01725 0.0
C3390 C 0.19418 0.63311 0.04675 0.0
C3391 C 0.19485 0.63373 0.06503 0.0
C3392 C 0.2061 0.62437 0.0743 0.0
C3393 C 0.21658 0.61431 0.06483 0.0
C3394 C 0.21588 0.61371 0.04655 0.0
H3395 H 0.19027 0.58488 0.00819 0.0
H3396 H 0.2077 0.58726 0.02184 0.0
H3397 H 0.18874 0.59543 0.02881 0.0
H3398 H 0.18549 0.6405 0.03989 0.0
H3399 H 0.18662 0.64165 0.07185 0.0
H3400 H 0.39325 0.22608 0.07102 0.0
H3401 H 0.39346 0.22486 0.03903 0.0
H3402 H 0.35952 0.18569 0.04037 0.0
H3403 H 0.35904 0.18688 0.07234 0.0
H3404 H 0.40132 0.19891 0.01659 0.0
H3405 H 0.33803 0.21875 0.00786 0.0
H3406 H 0.34869 0.22102 0.02832 0.0
H3407 H 0.34062 0.20179 0.02216 0.0
C3408 C 0.38583 0.21718 0.06456 0.0
C3409 C 0.37606 0.20664 0.07431 0.0
C3410 C 0.38598 0.2165 0.04626 0.0
C3411 C 0.37632 0.20535 0.03736 0.0
C3412 C 0.36683 0.19459 0.047 0.0
H3413 H 0.35836 0.18649 0.92713 0.0
H3414 H 0.35937 0.18551 0.9591 0.0
C3415 C 0.36664 0.19525 0.0653 0.0
C3416 C 0.3762 0.205 0.01796 0.0
H3417 H 0.35191 0.21039 0.98238 0.0
C3418 C 0.39054 0.20145 0.00908 0.0
C3419 C 0.3621 0.20831 0.00824 0.0
C3420 C 0.3465 0.21282 0.01708 0.0
C3421 C 0.39112 0.20091 0.9907 0.0
C3422 C 0.37703 0.20428 0.98099 0.0
C3423 C 0.36267 0.20776 0.98988 0.0
C3424 C 0.37695 0.20454 0.96158 0.0
C3425 C 0.40672 0.19645 0.98185 0.0
C3426 C 0.38643 0.21565 0.9524 0.0
C3427 C 0.38591 0.21626 0.93411 0.0
C3428 C 0.37581 0.20581 0.92464 0.0
C3429 C 0.36632 0.19469 0.93394 0.0
C3430 C 0.36686 0.19411 0.95223 0.0
H3431 H 0.41501 0.19014 0.99095 0.0
H3432 H 0.40453 0.18864 0.97029 0.0
H3433 H 0.41279 0.20756 0.97727 0.0
H3434 H 0.39404 0.22404 0.95939 0.0
H3435 H 0.39331 0.22505 0.92743 0.0
H3436 H 0.77402 0.39394 0.07169 0.0
H3437 H 0.77471 0.39438 0.03967 0.0
H3438 H 0.81413 0.36071 0.03997 0.0
H3439 H 0.81347 0.36 0.07193 0.0
H3440 H 0.80014 0.40255 0.01671 0.0
H3441 H 0.7807 0.33915 0.00804 0.0
H3442 H 0.77872 0.34969 0.0286 0.0
H3443 H 0.79788 0.34174 0.02201 0.0
C3444 C 0.78287 0.38663 0.06498 0.0
C3445 C 0.79363 0.37686 0.07444 0.0
C3446 C 0.78324 0.38692 0.04668 0.0
C3447 C 0.7943 0.37739 0.03747 0.0
C3448 C 0.80529 0.36791 0.04683 0.0
H3449 H 0.81304 0.35963 0.92744 0.0
H3450 H 0.81389 0.3608 0.9594 0.0
C3451 C 0.80494 0.3676 0.06513 0.0
C3452 C 0.79432 0.37736 0.01807 0.0
H3453 H 0.78893 0.35308 0.98249 0.0
C3454 C 0.79764 0.39176 0.0092 0.0
C3455 C 0.79105 0.36325 0.00836 0.0
C3456 C 0.78674 0.3476 0.01719 0.0
C3457 C 0.79805 0.39237 0.99082 0.0
C3458 C 0.79479 0.37826 0.98111 0.0
C3459 C 0.79147 0.36386 0.98999 0.0
C3460 C 0.79462 0.37814 0.9617 0.0
C3461 C 0.80228 0.40803 0.98195 0.0
C3462 C 0.78343 0.38744 0.95241 0.0
C3463 C 0.7829 0.38683 0.93412 0.0
C3464 C 0.7935 0.37681 0.92477 0.0
C3465 C 0.80472 0.36752 0.93417 0.0
C3466 C 0.80522 0.36815 0.95245 0.0
H3467 H 0.80843 0.41645 0.99105 0.0
H3468 H 0.81016 0.40595 0.97043 0.0
H3469 H 0.79109 0.41391 0.9773 0.0
H3470 H 0.77491 0.39498 0.95933 0.0
H3471 H 0.77403 0.39408 0.92736 0.0
H3472 H 0.60575 0.22662 0.07256 0.0
H3473 H 0.60449 0.22563 0.04059 0.0
H3474 H 0.63915 0.18708 0.04023 0.0
H3475 H 0.6404 0.1878 0.07216 0.0
H3476 H 0.62995 0.23041 0.01727 0.0
H3477 H 0.60319 0.16977 0.00877 0.0
H3478 H 0.60285 0.18034 0.02943 0.0
H3479 H 0.62079 0.17016 0.02238 0.0
C3480 C 0.61301 0.21782 0.06573 0.0
C3481 C 0.62314 0.20724 0.07499 0.0
C3482 C 0.61228 0.21729 0.04744 0.0
C3483 C 0.62155 0.20613 0.03807 0.0
C3484 C 0.63164 0.19555 0.04723 0.0
H3485 H 0.64076 0.18774 0.92846 0.0
H3486 H 0.63967 0.18756 0.96046 0.0
C3487 C 0.6324 0.19606 0.06551 0.0
C3488 C 0.62124 0.20607 0.01867 0.0
H3489 H 0.61324 0.18249 0.9831 0.0
C3490 C 0.62619 0.21998 0.00978 0.0
C3491 C 0.61638 0.19242 0.00897 0.0
C3492 C 0.61036 0.17736 0.01784 0.0
C3493 C 0.62674 0.22051 0.99141 0.0
C3494 C 0.62193 0.20684 0.98171 0.0
C3495 C 0.61692 0.19294 0.99059 0.0
C3496 C 0.62215 0.20671 0.96231 0.0
C3497 C 0.63285 0.23555 0.98256 0.0
C3498 C 0.61244 0.21735 0.95276 0.0
C3499 C 0.61303 0.21753 0.93447 0.0
C3500 C 0.6233 0.20698 0.92536 0.0
C3501 C 0.63274 0.19607 0.93501 0.0
C3502 C 0.63214 0.19592 0.95331 0.0
H3503 H 0.63972 0.2433 0.99175 0.0
H3504 H 0.64068 0.23252 0.97125 0.0
H3505 H 0.62248 0.2426 0.97761 0.0
H3506 H 0.60442 0.22556 0.95947 0.0
H3507 H 0.60551 0.22603 0.92751 0.0
H3508 H 0.81372 0.64129 0.07255 0.0
H3509 H 0.8146 0.64053 0.04058 0.0
H3510 H 0.77555 0.60643 0.04005 0.0
H3511 H 0.77464 0.60691 0.07205 0.0
H3512 H 0.80119 0.59844 0.01737 0.0
H3513 H 0.78127 0.66164 0.00822 0.0
H3514 H 0.79839 0.65923 0.02232 0.0
H3515 H 0.77925 0.65118 0.02883 0.0
C3516 C 0.80531 0.63359 0.06569 0.0
C3517 C 0.79405 0.62422 0.07493 0.0
C3518 C 0.80579 0.63325 0.04739 0.0
C3519 C 0.79497 0.62362 0.03797 0.0
C3520 C 0.78395 0.614 0.0471 0.0
H3521 H 0.77466 0.60602 0.92817 0.0
H3522 H 0.77579 0.60537 0.96013 0.0
C3523 C 0.78345 0.61432 0.06541 0.0
C3524 C 0.79514 0.62358 0.01856 0.0
H3525 H 0.78956 0.64761 0.9828 0.0
C3526 C 0.79861 0.60916 0.00978 0.0
C3527 C 0.79177 0.63761 0.00874 0.0
C3528 C 0.78732 0.65327 0.01746 0.0
C3529 C 0.79904 0.60845 0.99141 0.0
C3530 C 0.79564 0.62247 0.98159 0.0
C3531 C 0.79221 0.63689 0.99037 0.0
C3532 C 0.79534 0.62243 0.96218 0.0
C3533 C 0.80341 0.59278 0.98266 0.0
C3534 C 0.80578 0.63246 0.95274 0.0
C3535 C 0.80512 0.63295 0.93445 0.0
C3536 C 0.79393 0.62347 0.92524 0.0
C3537 C 0.7835 0.61341 0.93478 0.0
C3538 C 0.78418 0.61295 0.95307 0.0
H3539 H 0.80971 0.58451 0.9918 0.0
H3540 H 0.79227 0.58672 0.97814 0.0
H3541 H 0.81121 0.59487 0.97107 0.0
H3542 H 0.81441 0.63995 0.95955 0.0
H3543 H 0.81331 0.64087 0.92758 0.0
H3544 H 0.35926 0.81316 0.9269 0.0
H3545 H 0.36032 0.81437 0.95885 0.0
H3546 H 0.39477 0.77563 0.95942 0.0
H3547 H 0.39398 0.7744 0.92747 0.0
H3548 H 0.35266 0.78965 0.9822 0.0
H3549 H 0.41587 0.80958 0.99085 0.0
H3550 H 0.40545 0.81103 0.97015 0.0
H3551 H 0.41355 0.79209 0.97728 0.0
C3552 C 0.36718 0.80497 0.93376 0.0
C3553 C 0.37659 0.79371 0.92455 0.0
C3554 C 0.36775 0.80568 0.95204 0.0
C3555 C 0.37778 0.79525 0.96147 0.0
C3556 C 0.38719 0.78402 0.95237 0.0
H3557 H 0.39335 0.77451 0.07124 0.0
H3558 H 0.39382 0.77546 0.03925 0.0
C3559 C 0.38665 0.78328 0.93408 0.0
C3560 C 0.37782 0.79561 0.98087 0.0
H3561 H 0.40201 0.80117 0.01651 0.0
C3562 C 0.36341 0.79228 0.98972 0.0
C3563 C 0.39189 0.79899 0.9906 0.0
C3564 C 0.40755 0.80327 0.98177 0.0
C3565 C 0.36276 0.79191 0.00808 0.0
C3566 C 0.37684 0.79524 0.01782 0.0
C3567 C 0.39124 0.79862 0.00898 0.0
C3568 C 0.37687 0.7951 0.03722 0.0
C3569 C 0.3471 0.78757 0.0169 0.0
C3570 C 0.36739 0.80603 0.04666 0.0
C3571 C 0.36706 0.80553 0.06495 0.0
C3572 C 0.37629 0.79413 0.07417 0.0
C3573 C 0.38606 0.78343 0.06462 0.0
C3574 C 0.38636 0.78395 0.04632 0.0
H3575 H 0.33864 0.7816 0.0077 0.0
H3576 H 0.3492 0.77947 0.02824 0.0
H3577 H 0.34127 0.79868 0.02182 0.0
H3578 H 0.3602 0.81492 0.03987 0.0
H3579 H 0.35947 0.81402 0.07184 0.0
H3580 H 0.22661 0.3937 0.92812 0.0
H3581 H 0.22566 0.39408 0.96013 0.0
H3582 H 0.18652 0.3601 0.95942 0.0
H3583 H 0.18743 0.35943 0.92746 0.0
H3584 H 0.19991 0.40203 0.98281 0.0
H3585 H 0.21991 0.33881 0.99166 0.0
H3586 H 0.22198 0.34939 0.97113 0.0
H3587 H 0.20283 0.34127 0.97752 0.0
C3588 C 0.21777 0.3863 0.93473 0.0
C3589 C 0.20716 0.37646 0.92516 0.0
C3590 C 0.21725 0.38656 0.95303 0.0
C3591 C 0.20619 0.37694 0.96211 0.0
C3592 C 0.19535 0.36738 0.95265 0.0
H3593 H 0.18725 0.35927 0.07219 0.0
H3594 H 0.18639 0.36033 0.04022 0.0
C3595 C 0.19585 0.36709 0.93436 0.0
C3596 C 0.20601 0.3769 0.98151 0.0
H3597 H 0.21151 0.35271 0.01714 0.0
C3598 C 0.20249 0.39128 0.99034 0.0
C3599 C 0.20937 0.36283 0.99126 0.0
C3600 C 0.21388 0.34722 0.98245 0.0
C3601 C 0.202 0.3919 0.00872 0.0
C3602 C 0.20538 0.37783 0.01846 0.0
C3603 C 0.20887 0.36346 0.00962 0.0
C3604 C 0.20556 0.37776 0.03786 0.0
C3605 C 0.19757 0.40752 0.01755 0.0
C3606 C 0.21671 0.38715 0.0471 0.0
C3607 C 0.21726 0.3866 0.06539 0.0
C3608 C 0.2067 0.37656 0.07479 0.0
C3609 C 0.19553 0.36717 0.06543 0.0
C3610 C 0.19501 0.36774 0.04714 0.0
H3611 H 0.19136 0.41586 0.00841 0.0
H3612 H 0.18967 0.40536 0.02904 0.0
H3613 H 0.20868 0.41352 0.02224 0.0
H3614 H 0.22517 0.39472 0.04015 0.0
H3615 H 0.22608 0.39392 0.07212 0.0
H3616 H 0.214 0.35359 0.19501 0.0
H3617 H 0.20472 0.3449 0.22389 0.0
H3618 H 0.15772 0.33498 0.20261 0.0
H3619 H 0.16681 0.34382 0.17369 0.0
H3620 H 0.1569 0.3518 0.23432 0.0
H3621 H 0.19646 0.29817 0.23858 0.0
H3622 H 0.20692 0.31662 0.23416 0.0
H3623 H 0.19297 0.3088 0.21831 0.0
C3624 C 0.20169 0.34953 0.19644 0.0
C3625 C 0.19118 0.34928 0.18201 0.0
C3626 C 0.19644 0.3445 0.21295 0.0
C3627 C 0.18062 0.33905 0.21531 0.0
C3628 C 0.17001 0.33907 0.20102 0.0
H3629 H 0.14463 0.2852 0.30449 0.0
H3630 H 0.15249 0.29445 0.27531 0.0
C3631 C 0.17524 0.3441 0.18451 0.0
C3632 C 0.17509 0.33344 0.23271 0.0
H3633 H 0.18219 0.30533 0.26437 0.0
C3634 C 0.16238 0.34161 0.24089 0.0
C3635 C 0.18214 0.32002 0.24112 0.0
C3636 C 0.19528 0.31028 0.23255 0.0
C3637 C 0.15669 0.33688 0.25743 0.0
C3638 C 0.1641 0.32379 0.26608 0.0
C3639 C 0.17663 0.31546 0.25777 0.0
C3640 C 0.15897 0.31843 0.28374 0.0
C3641 C 0.14265 0.34578 0.26534 0.0
C3642 C 0.16011 0.32883 0.29816 0.0
C3643 C 0.15559 0.32361 0.31486 0.0
C3644 C 0.14998 0.30782 0.31744 0.0
C3645 C 0.14891 0.29742 0.30296 0.0
C3646 C 0.1534 0.30268 0.28627 0.0
H3647 H 0.13571 0.35247 0.25526 0.0
H3648 H 0.13439 0.33738 0.2722 0.0
H3649 H 0.14719 0.35461 0.27505 0.0
H3650 H 0.1647 0.34093 0.29656 0.0
H3651 H 0.15664 0.33189 0.32575 0.0
H3652 H 0.64734 0.21483 0.19489 0.0
H3653 H 0.65596 0.20554 0.22379 0.0
H3654 H 0.66645 0.15872 0.20238 0.0
H3655 H 0.65768 0.16782 0.17344 0.0
H3656 H 0.64941 0.15753 0.23379 0.0
H3657 H 0.7025 0.19767 0.23916 0.0
H3658 H 0.68399 0.20799 0.2346 0.0
H3659 H 0.69213 0.19425 0.21872 0.0
C3660 C 0.65153 0.20257 0.19629 0.0
C3661 C 0.65193 0.1921 0.18183 0.0
C3662 C 0.65651 0.1973 0.21281 0.0
C3663 C 0.66209 0.18153 0.21515 0.0
C3664 C 0.66227 0.17097 0.20081 0.0
H3665 H 0.71504 0.14537 0.30492 0.0
H3666 H 0.70616 0.15341 0.27567 0.0
C3667 C 0.65727 0.1762 0.18429 0.0
C3668 C 0.66756 0.17596 0.2326 0.0
H3669 H 0.69514 0.18321 0.26477 0.0
C3670 C 0.65943 0.1631 0.24056 0.0
C3671 C 0.68077 0.18312 0.24127 0.0
C3672 C 0.69047 0.19642 0.23296 0.0
C3673 C 0.664 0.15738 0.25714 0.0
C3674 C 0.67688 0.1649 0.26606 0.0
C3675 C 0.68517 0.17757 0.25796 0.0
C3676 C 0.68204 0.15973 0.28377 0.0
C3677 C 0.65517 0.14319 0.26483 0.0
C3678 C 0.67145 0.16073 0.29804 0.0
C3679 C 0.67647 0.15612 0.31478 0.0
C3680 C 0.69223 0.15054 0.31757 0.0
C3681 C 0.70283 0.14962 0.30324 0.0
C3682 C 0.69778 0.15422 0.28651 0.0
H3683 H 0.64866 0.13626 0.2546 0.0
H3684 H 0.66358 0.13497 0.27172 0.0
H3685 H 0.64619 0.14756 0.27447 0.0
H3686 H 0.65935 0.16526 0.29627 0.0
H3687 H 0.66803 0.15705 0.32555 0.0
H3688 H 0.78604 0.64609 0.19528 0.0
H3689 H 0.79507 0.65443 0.22438 0.0
H3690 H 0.84194 0.66559 0.2035 0.0
H3691 H 0.8331 0.6571 0.17436 0.0
H3692 H 0.84301 0.6483 0.23488 0.0
H3693 H 0.80233 0.70099 0.24011 0.0
H3694 H 0.79226 0.68241 0.2353 0.0
H3695 H 0.80606 0.69079 0.21964 0.0
C3696 C 0.79827 0.65036 0.19685 0.0
C3697 C 0.80882 0.65105 0.18247 0.0
C3698 C 0.80337 0.65518 0.21348 0.0
C3699 C 0.81908 0.66088 0.21603 0.0
C3700 C 0.82974 0.66131 0.20178 0.0
H3701 H 0.85451 0.71425 0.30561 0.0
H3702 H 0.84649 0.70507 0.27648 0.0
C3703 C 0.82465 0.65647 0.18514 0.0
C3704 C 0.82445 0.66629 0.23358 0.0
H3705 H 0.81676 0.69376 0.26575 0.0
C3706 C 0.83731 0.65825 0.24163 0.0
C3707 C 0.8171 0.67942 0.24223 0.0
C3708 C 0.80377 0.68902 0.23384 0.0
C3709 C 0.84289 0.66284 0.25826 0.0
C3710 C 0.83522 0.67566 0.26714 0.0
C3711 C 0.82251 0.68384 0.25897 0.0
C3712 C 0.84036 0.68097 0.28481 0.0
C3713 C 0.85711 0.65413 0.26604 0.0
C3714 C 0.83946 0.67049 0.2992 0.0
C3715 C 0.84406 0.67569 0.31588 0.0
C3716 C 0.84952 0.69152 0.3185 0.0
C3717 C 0.85033 0.702 0.30407 0.0
C3718 C 0.84576 0.69678 0.2874 0.0
H3719 H 0.86409 0.64757 0.25589 0.0
H3720 H 0.86528 0.66263 0.27287 0.0
H3721 H 0.85277 0.64521 0.27576 0.0
H3722 H 0.83503 0.65834 0.29755 0.0
H3723 H 0.84321 0.66734 0.32674 0.0
H3724 H 0.34407 0.83309 0.1739 0.0
H3725 H 0.33607 0.84188 0.2032 0.0
H3726 H 0.34592 0.79448 0.22344 0.0
H3727 H 0.35377 0.7855 0.19416 0.0
H3728 H 0.31642 0.8067 0.23416 0.0
H3729 H 0.36536 0.85092 0.24523 0.0
H3730 H 0.35434 0.85399 0.22526 0.0
H3731 H 0.36613 0.83605 0.22802 0.0
C3732 C 0.34461 0.82454 0.18459 0.0
C3733 C 0.34957 0.80859 0.18169 0.0
C3734 C 0.34012 0.82962 0.20135 0.0
C3735 C 0.34062 0.81889 0.21552 0.0
C3736 C 0.34552 0.80296 0.21267 0.0
H3737 H 0.3329 0.84245 0.32606 0.0
H3738 H 0.34181 0.83366 0.29705 0.0
C3739 C 0.35 0.79786 0.19593 0.0
C3740 C 0.33556 0.82411 0.23324 0.0
H3741 H 0.34396 0.85089 0.26589 0.0
C3742 C 0.32246 0.81633 0.24113 0.0
C3743 C 0.3436 0.83654 0.24237 0.0
C3744 C 0.35823 0.84478 0.23489 0.0
C3745 C 0.31701 0.8208 0.25783 0.0
C3746 C 0.32471 0.83359 0.26672 0.0
C3747 C 0.33798 0.8412 0.25895 0.0
C3748 C 0.31928 0.83912 0.28419 0.0
C3749 C 0.30322 0.81164 0.26592 0.0
C3750 C 0.30374 0.84533 0.2865 0.0
C3751 C 0.29858 0.85032 0.30305 0.0
C3752 C 0.30893 0.8493 0.31758 0.0
C3753 C 0.32461 0.84336 0.31515 0.0
C3754 C 0.32974 0.83834 0.29859 0.0
H3755 H 0.30148 0.79974 0.25957 0.0
H3756 H 0.30519 0.80976 0.28016 0.0
H3757 H 0.29196 0.81864 0.26424 0.0
H3758 H 0.29561 0.84637 0.27548 0.0
H3759 H 0.28649 0.85499 0.30444 0.0
H3760 H 0.16723 0.65674 0.82503 0.0
H3761 H 0.1584 0.66477 0.79576 0.0
H3762 H 0.20541 0.65375 0.77516 0.0
H3763 H 0.21444 0.64586 0.80442 0.0
H3764 H 0.1938 0.68338 0.76426 0.0
H3765 H 0.14829 0.63548 0.7541 0.0
H3766 H 0.14562 0.64672 0.77398 0.0
H3767 H 0.16326 0.63449 0.7712 0.0
C3768 C 0.17568 0.65595 0.81427 0.0
C3769 C 0.19154 0.65064 0.81706 0.0
C3770 C 0.17058 0.66046 0.79753 0.0
C3771 C 0.18119 0.65963 0.78326 0.0
C3772 C 0.19703 0.6544 0.786 0.0
H3773 H 0.15662 0.66733 0.67293 0.0
H3774 H 0.16558 0.65835 0.70186 0.0
C3775 C 0.20215 0.64991 0.80273 0.0
C3776 C 0.17592 0.66469 0.76555 0.0
H3777 H 0.1486 0.65677 0.7333 0.0
C3778 C 0.18395 0.67754 0.75745 0.0
C3779 C 0.16321 0.65691 0.75663 0.0
C3780 C 0.15467 0.64254 0.76432 0.0
C3781 C 0.17943 0.683 0.74077 0.0
C3782 C 0.16636 0.67557 0.7321 0.0
C3783 C 0.15851 0.66254 0.74006 0.0
C3784 C 0.16076 0.68105 0.71467 0.0
C3785 C 0.18884 0.69652 0.73246 0.0
C3786 C 0.15485 0.69671 0.71237 0.0
C3787 C 0.14976 0.7019 0.69586 0.0
C3788 C 0.15039 0.69147 0.68138 0.0
C3789 C 0.15603 0.67568 0.6838 0.0
C3790 C 0.16114 0.67052 0.70032 0.0
H3791 H 0.20084 0.698 0.73865 0.0
H3792 H 0.19052 0.6944 0.71822 0.0
H3793 H 0.18213 0.70794 0.73413 0.0
H3794 H 0.15413 0.70491 0.72336 0.0
H3795 H 0.14534 0.71408 0.69448 0.0
H3796 H 0.28572 0.14611 0.69419 0.0
H3797 H 0.29507 0.15469 0.72307 0.0
H3798 H 0.34209 0.16442 0.70177 0.0
H3799 H 0.33292 0.1557 0.67282 0.0
H3800 H 0.34277 0.14747 0.73354 0.0
H3801 H 0.30364 0.20139 0.73782 0.0
H3802 H 0.29303 0.18305 0.73327 0.0
H3803 H 0.30712 0.1908 0.71752 0.0
C3804 C 0.29805 0.15011 0.69561 0.0
C3805 C 0.30854 0.15034 0.68116 0.0
C3806 C 0.30334 0.15507 0.71212 0.0
C3807 C 0.31919 0.16044 0.71448 0.0
C3808 C 0.32978 0.1604 0.70018 0.0
H3809 H 0.35513 0.21362 0.8042 0.0
H3810 H 0.34739 0.20457 0.77492 0.0
C3811 C 0.32451 0.15544 0.68365 0.0
C3812 C 0.32474 0.16598 0.73191 0.0
H3813 H 0.31769 0.19399 0.76368 0.0
C3814 C 0.33734 0.15767 0.74013 0.0
C3815 C 0.31776 0.17942 0.74034 0.0
C3816 C 0.30474 0.1893 0.73175 0.0
C3817 C 0.34296 0.16227 0.75674 0.0
C3818 C 0.33561 0.17537 0.76543 0.0
C3819 C 0.3232 0.18385 0.75706 0.0
C3820 C 0.34066 0.1806 0.78316 0.0
C3821 C 0.35688 0.15321 0.76471 0.0
C3822 C 0.33934 0.17015 0.79753 0.0
C3823 C 0.34379 0.17527 0.81429 0.0
C3824 C 0.3495 0.19099 0.817 0.0
C3825 C 0.35075 0.20144 0.80258 0.0
C3826 C 0.34634 0.1963 0.78583 0.0
H3827 H 0.36382 0.14651 0.75465 0.0
H3828 H 0.36516 0.1615 0.77169 0.0
H3829 H 0.3522 0.14438 0.77434 0.0
H3830 H 0.33467 0.1581 0.79582 0.0
H3831 H 0.3426 0.16695 0.82513 0.0
H3832 H 0.85359 0.28495 0.69472 0.0
H3833 H 0.8449 0.29402 0.72368 0.0
H3834 H 0.8351 0.3412 0.70282 0.0
H3835 H 0.84394 0.33232 0.67383 0.0
H3836 H 0.85203 0.34179 0.73438 0.0
H3837 H 0.79834 0.30234 0.73881 0.0
H3838 H 0.81674 0.29185 0.73422 0.0
H3839 H 0.80886 0.30587 0.71849 0.0
C3840 C 0.84954 0.29725 0.69626 0.0
C3841 C 0.84935 0.30788 0.68193 0.0
C3842 C 0.84452 0.30238 0.71281 0.0
C3843 C 0.83912 0.3182 0.71532 0.0
C3844 C 0.83915 0.32891 0.70112 0.0
H3845 H 0.78577 0.35443 0.80468 0.0
H3846 H 0.79489 0.34631 0.77554 0.0
C3847 C 0.84418 0.3238 0.68457 0.0
C3848 C 0.83362 0.32365 0.7328 0.0
H3849 H 0.80565 0.31653 0.7646 0.0
C3850 C 0.84187 0.33631 0.74099 0.0
C3851 C 0.82023 0.3166 0.74126 0.0
C3852 C 0.81041 0.30352 0.73271 0.0
C3853 C 0.83723 0.34196 0.75757 0.0
C3854 C 0.82415 0.33457 0.76627 0.0
C3855 C 0.81576 0.32207 0.75796 0.0
C3856 C 0.81885 0.33972 0.78394 0.0
C3857 C 0.84619 0.35597 0.76548 0.0
C3858 C 0.82927 0.33858 0.79835 0.0
C3859 C 0.82412 0.34325 0.81503 0.0
C3860 C 0.80839 0.349 0.81761 0.0
C3861 C 0.79795 0.35003 0.80315 0.0
C3862 C 0.80313 0.3454 0.78649 0.0
H3863 H 0.8529 0.36288 0.7554 0.0
H3864 H 0.83784 0.36425 0.77236 0.0
H3865 H 0.85501 0.35139 0.77518 0.0
H3866 H 0.84134 0.33392 0.79674 0.0
H3867 H 0.83243 0.34222 0.8259 0.0
H3868 H 0.71465 0.85414 0.6945 0.0
H3869 H 0.70563 0.84548 0.7235 0.0
H3870 H 0.65866 0.83485 0.70255 0.0
H3871 H 0.66747 0.84369 0.67355 0.0
H3872 H 0.65755 0.85166 0.73393 0.0
H3873 H 0.69823 0.79894 0.73884 0.0
H3874 H 0.70836 0.81756 0.73436 0.0
H3875 H 0.69466 0.80938 0.71847 0.0
C3876 C 0.70241 0.84993 0.69604 0.0
C3877 C 0.69181 0.8495 0.68168 0.0
C3878 C 0.6973 0.84492 0.71261 0.0
C3879 C 0.68156 0.83927 0.71509 0.0
C3880 C 0.67088 0.83909 0.70087 0.0
H3881 H 0.6459 0.7854 0.80438 0.0
H3882 H 0.654 0.79458 0.77525 0.0
C3883 C 0.67595 0.84413 0.68431 0.0
C3884 C 0.67616 0.8337 0.73257 0.0
H3885 H 0.68373 0.80599 0.76451 0.0
C3886 C 0.66324 0.84165 0.74062 0.0
C3887 C 0.68347 0.82051 0.74113 0.0
C3888 C 0.69685 0.81098 0.73272 0.0
C3889 C 0.65758 0.83691 0.75716 0.0
C3890 C 0.66523 0.82405 0.76596 0.0
C3891 C 0.67799 0.81594 0.75779 0.0
C3892 C 0.66009 0.81868 0.7836 0.0
C3893 C 0.64329 0.84553 0.76492 0.0
C3894 C 0.66096 0.82917 0.79798 0.0
C3895 C 0.65631 0.82398 0.81464 0.0
C3896 C 0.65084 0.80816 0.81725 0.0
C3897 C 0.65008 0.79766 0.80283 0.0
C3898 C 0.6547 0.80287 0.78617 0.0
H3899 H 0.6363 0.85206 0.75476 0.0
H3900 H 0.63515 0.83698 0.77172 0.0
H3901 H 0.64757 0.85447 0.77466 0.0
H3902 H 0.66539 0.84132 0.79634 0.0
H3903 H 0.65713 0.83234 0.82548 0.0
H3904 H 0.85289 0.71431 0.69451 0.0
H3905 H 0.84484 0.70511 0.72362 0.0
H3906 H 0.83288 0.65856 0.7024 0.0
H3907 H 0.84109 0.66758 0.67323 0.0
H3908 H 0.81507 0.69389 0.73457 0.0
H3909 H 0.8623 0.64747 0.7437 0.0
H3910 H 0.86342 0.66262 0.72681 0.0
H3911 H 0.85081 0.64527 0.72392 0.0
C3912 C 0.84858 0.70209 0.69601 0.0
C3913 C 0.84766 0.69166 0.68154 0.0
C3914 C 0.84399 0.69686 0.71267 0.0
C3915 C 0.83847 0.6811 0.71521 0.0
C3916 C 0.83741 0.67068 0.70078 0.0
H3917 H 0.78487 0.64598 0.80514 0.0
H3918 H 0.79363 0.65446 0.776 0.0
C3919 C 0.84202 0.67589 0.6841 0.0
C3920 C 0.83345 0.67573 0.73289 0.0
H3921 H 0.84144 0.64821 0.76494 0.0
C3922 C 0.82085 0.68392 0.74124 0.0
C3923 C 0.84115 0.66285 0.74163 0.0
C3924 C 0.85527 0.65411 0.73366 0.0
C3925 C 0.81557 0.67945 0.75801 0.0
C3926 C 0.82295 0.66627 0.76653 0.0
C3927 C 0.83571 0.65821 0.75829 0.0
C3928 C 0.81774 0.6608 0.78411 0.0
C3929 C 0.80235 0.68907 0.76659 0.0
C3930 C 0.82853 0.66114 0.79823 0.0
C3931 C 0.8236 0.65622 0.8149 0.0
C3932 C 0.80779 0.65081 0.81772 0.0
C3933 C 0.79709 0.65023 0.80346 0.0
C3934 C 0.80204 0.65513 0.7868 0.0
H3935 H 0.80088 0.70107 0.76039 0.0
H3936 H 0.79081 0.68249 0.76524 0.0
H3937 H 0.80478 0.69077 0.78078 0.0
H3938 H 0.84073 0.6654 0.79639 0.0
H3939 H 0.83216 0.65677 0.82558 0.0
H3940 H 0.35429 0.78479 0.80447 0.0
H3941 H 0.34626 0.79372 0.77523 0.0
H3942 H 0.33481 0.84063 0.7958 0.0
H3943 H 0.343 0.83191 0.82506 0.0
H3944 H 0.31653 0.80499 0.76436 0.0
H3945 H 0.3639 0.85103 0.75409 0.0
H3946 H 0.36507 0.8361 0.77121 0.0
H3947 H 0.35264 0.85361 0.77397 0.0
C3948 C 0.35012 0.79704 0.80278 0.0
C3949 C 0.34931 0.80766 0.81709 0.0
C3950 C 0.34554 0.8021 0.78606 0.0
C3951 C 0.34015 0.81789 0.78331 0.0
C3952 C 0.33925 0.8285 0.79757 0.0
H3953 H 0.28524 0.85307 0.69454 0.0
H3954 H 0.2945 0.84438 0.72343 0.0
C3955 C 0.34385 0.82346 0.8143 0.0
C3956 C 0.33501 0.82308 0.76561 0.0
H3957 H 0.34257 0.85048 0.73333 0.0
C3958 C 0.32225 0.8149 0.75754 0.0
C3959 C 0.34263 0.83588 0.75667 0.0
C3960 C 0.35692 0.84458 0.76433 0.0
C3961 C 0.31671 0.81934 0.74086 0.0
C3962 C 0.32398 0.83249 0.73218 0.0
C3963 C 0.33693 0.8405 0.74011 0.0
C3964 C 0.31843 0.83801 0.71474 0.0
C3965 C 0.30331 0.80977 0.73258 0.0
C3966 C 0.32896 0.83772 0.70039 0.0
C3967 C 0.32375 0.84276 0.68388 0.0
C3968 C 0.30791 0.84824 0.68144 0.0
C3969 C 0.29746 0.84877 0.69593 0.0
C3970 C 0.30271 0.84374 0.71244 0.0
H3971 H 0.30195 0.79776 0.73879 0.0
H3972 H 0.2918 0.81635 0.73423 0.0
H3973 H 0.30544 0.80808 0.71833 0.0
H3974 H 0.34118 0.83341 0.70193 0.0
H3975 H 0.33211 0.84226 0.67301 0.0
H3976 H 0.15738 0.3333 0.67358 0.0
H3977 H 0.16622 0.34235 0.70251 0.0
H3978 H 0.15573 0.2955 0.72386 0.0
H3979 H 0.14705 0.28626 0.69496 0.0
H3980 H 0.14926 0.34345 0.73405 0.0
H3981 H 0.2024 0.30332 0.73891 0.0
H3982 H 0.19194 0.30683 0.71854 0.0
H3983 H 0.18388 0.29302 0.73439 0.0
C3984 C 0.15698 0.3249 0.68441 0.0
C3985 C 0.15164 0.30902 0.68194 0.0
C3986 C 0.16201 0.33011 0.70093 0.0
C3987 C 0.16186 0.31952 0.71524 0.0
C3988 C 0.15626 0.30376 0.7129 0.0
H3989 H 0.16834 0.34355 0.82566 0.0
H3990 H 0.15951 0.33549 0.79639 0.0
C3991 C 0.15124 0.29853 0.69638 0.0
C3992 C 0.16741 0.32504 0.73267 0.0
H3993 H 0.19518 0.31769 0.76462 0.0
C3994 C 0.15932 0.33786 0.74073 0.0
C3995 C 0.18069 0.31786 0.74122 0.0
C3996 C 0.19035 0.30459 0.73278 0.0
C3997 C 0.16398 0.34353 0.7573 0.0
C3998 C 0.17691 0.33599 0.7661 0.0
C3999 C 0.18517 0.32335 0.7579 0.0
C4000 C 0.18215 0.34108 0.7838 0.0
C4001 C 0.15518 0.35769 0.7651 0.0
C4002 C 0.19791 0.34656 0.78648 0.0
C4003 C 0.20304 0.35106 0.80321 0.0
C4004 C 0.19251 0.35007 0.81759 0.0
C4005 C 0.17673 0.34453 0.81486 0.0
C4006 C 0.17162 0.34001 0.79812 0.0
H4007 H 0.14862 0.36466 0.75494 0.0
H4008 H 0.14624 0.35327 0.77476 0.0
H4009 H 0.16362 0.36587 0.772 0.0
H4010 H 0.20623 0.34741 0.7756 0.0
H4011 H 0.21527 0.3553 0.80485 0.0
H4012 H 0.66763 0.15758 0.67426 0.0
H4013 H 0.65891 0.16599 0.70347 0.0
H4014 H 0.70576 0.15447 0.72417 0.0
H4015 H 0.71468 0.14623 0.695 0.0
H4016 H 0.65771 0.14862 0.73463 0.0
H4017 H 0.6989 0.2009 0.74029 0.0
H4018 H 0.69514 0.19081 0.71975 0.0
H4019 H 0.70881 0.18224 0.73543 0.0
C4020 C 0.6761 0.15686 0.68502 0.0
C4021 C 0.6919 0.15137 0.68228 0.0
C4022 C 0.67108 0.16165 0.70169 0.0
C4023 C 0.68177 0.1611 0.7159 0.0
C4024 C 0.69744 0.15532 0.71329 0.0
H4025 H 0.65751 0.16722 0.82658 0.0
H4026 H 0.66573 0.1583 0.79737 0.0
C4027 C 0.70249 0.15056 0.69662 0.0
C4028 C 0.67646 0.16645 0.73349 0.0
H4029 H 0.68435 0.19366 0.76585 0.0
C4030 C 0.6635 0.15849 0.74146 0.0
C4031 C 0.68392 0.17945 0.74225 0.0
C4032 C 0.69736 0.18897 0.73395 0.0
C4033 C 0.65793 0.16305 0.7581 0.0
C4034 C 0.6657 0.17574 0.76707 0.0
C4035 C 0.67852 0.18383 0.759 0.0
C4036 C 0.66056 0.18102 0.78474 0.0
C4037 C 0.6436 0.15444 0.76579 0.0
C4038 C 0.65525 0.19684 0.78738 0.0
C4039 C 0.65065 0.20201 0.80406 0.0
C4040 C 0.65136 0.19146 0.81844 0.0
C4041 C 0.65675 0.17562 0.81576 0.0
C4042 C 0.66137 0.17047 0.79907 0.0
H4043 H 0.6366 0.14798 0.75558 0.0
H4044 H 0.64783 0.14546 0.7755 0.0
H4045 H 0.63549 0.163 0.77261 0.0
H4046 H 0.6546 0.20518 0.7765 0.0
H4047 H 0.64654 0.21429 0.80565 0.0
H4048 H 0.83324 0.34385 0.17348 0.0
H4049 H 0.84224 0.33525 0.20253 0.0
H4050 H 0.79537 0.34597 0.22368 0.0
H4051 H 0.78618 0.35442 0.19468 0.0
H4052 H 0.84328 0.35242 0.23402 0.0
H4053 H 0.80306 0.29935 0.23903 0.0
H4054 H 0.80666 0.3097 0.21861 0.0
H4055 H 0.79282 0.31787 0.23436 0.0
C4056 C 0.82483 0.34436 0.1843 0.0
C4057 C 0.80895 0.34969 0.18174 0.0
C4058 C 0.83 0.33946 0.20089 0.0
C4059 C 0.8194 0.33974 0.21518 0.0
C4060 C 0.80364 0.34535 0.21274 0.0
H4061 H 0.84321 0.33321 0.32581 0.0
H4062 H 0.83526 0.34218 0.29654 0.0
C4063 C 0.79844 0.35023 0.19616 0.0
C4064 C 0.82486 0.33427 0.23266 0.0
H4065 H 0.81743 0.30662 0.26471 0.0
C4066 C 0.83767 0.34238 0.24073 0.0
C4067 C 0.81765 0.32104 0.24126 0.0
C4068 C 0.80438 0.31137 0.23284 0.0
C4069 C 0.8433 0.33778 0.25734 0.0
C4070 C 0.83575 0.32487 0.26617 0.0
C4071 C 0.82311 0.3166 0.25797 0.0
C4072 C 0.84087 0.3196 0.28385 0.0
C4073 C 0.85745 0.34658 0.26515 0.0
C4074 C 0.84636 0.30383 0.28647 0.0
C4075 C 0.8508 0.29862 0.30319 0.0
C4076 C 0.84975 0.30908 0.31762 0.0
C4077 C 0.84424 0.32488 0.31496 0.0
C4078 C 0.83977 0.33006 0.29822 0.0
H4079 H 0.8644 0.35319 0.25501 0.0
H4080 H 0.85302 0.35547 0.27486 0.0
H4081 H 0.86567 0.33814 0.27199 0.0
H4082 H 0.84723 0.29555 0.27555 0.0
H4083 H 0.85502 0.28639 0.30477 0.0
H4084 H 0.64583 0.78486 0.19416 0.0
H4085 H 0.65384 0.79382 0.22339 0.0
H4086 H 0.66463 0.84092 0.20289 0.0
H4087 H 0.65646 0.83216 0.17363 0.0
H4088 H 0.68354 0.80551 0.2341 0.0
H4089 H 0.63548 0.85078 0.24476 0.0
H4090 H 0.63446 0.83585 0.22762 0.0
H4091 H 0.64661 0.85353 0.22482 0.0
C4092 C 0.64985 0.79715 0.19586 0.0
C4093 C 0.65048 0.80781 0.18157 0.0
C4094 C 0.65442 0.80224 0.21258 0.0
C4095 C 0.65962 0.81809 0.21533 0.0
C4096 C 0.66034 0.82874 0.2011 0.0
H4097 H 0.71413 0.85364 0.30428 0.0
H4098 H 0.705 0.84503 0.27531 0.0
C4099 C 0.65575 0.82367 0.18437 0.0
C4100 C 0.66476 0.8233 0.23302 0.0
H4101 H 0.65682 0.85041 0.26548 0.0
C4102 C 0.67768 0.8153 0.241 0.0
C4103 C 0.65695 0.83594 0.24205 0.0
C4104 C 0.64251 0.84444 0.23448 0.0
C4105 C 0.68318 0.81975 0.25769 0.0
C4106 C 0.67571 0.83273 0.26647 0.0
C4107 C 0.66262 0.84057 0.25862 0.0
C4108 C 0.68117 0.83821 0.28395 0.0
C4109 C 0.69676 0.81036 0.26588 0.0
C4110 C 0.67065 0.83765 0.2983 0.0
C4111 C 0.67578 0.84265 0.31485 0.0
C4112 C 0.69154 0.84836 0.31733 0.0
C4113 C 0.70197 0.84916 0.30285 0.0
C4114 C 0.6968 0.84418 0.2863 0.0
H4115 H 0.69832 0.79841 0.25958 0.0
H4116 H 0.70815 0.81715 0.26426 0.0
H4117 H 0.69468 0.80854 0.28011 0.0
H4118 H 0.6585 0.83316 0.29672 0.0
H4119 H 0.66743 0.84193 0.32571 0.0
H4120 H 0.14606 0.71492 0.30494 0.0
H4121 H 0.15397 0.70582 0.27574 0.0
H4122 H 0.16597 0.65918 0.2967 0.0
H4123 H 0.15788 0.66809 0.32594 0.0
H4124 H 0.18369 0.69473 0.26472 0.0
H4125 H 0.13664 0.64818 0.25537 0.0
H4126 H 0.13549 0.66324 0.27236 0.0
H4127 H 0.14813 0.64589 0.27513 0.0
C4128 C 0.15033 0.70271 0.30336 0.0
C4129 C 0.15132 0.69222 0.31777 0.0
C4130 C 0.15485 0.69753 0.28665 0.0
C4131 C 0.16035 0.68177 0.28402 0.0
C4132 C 0.16144 0.6713 0.29838 0.0
H4133 H 0.21443 0.6469 0.19442 0.0
H4134 H 0.20548 0.65538 0.22349 0.0
C4135 C 0.1569 0.67644 0.3151 0.0
C4136 C 0.16539 0.67648 0.26632 0.0
H4137 H 0.15764 0.64893 0.23424 0.0
C4138 C 0.17798 0.68474 0.25802 0.0
C4139 C 0.15777 0.66358 0.25755 0.0
C4140 C 0.14365 0.65478 0.26546 0.0
C4141 C 0.18333 0.6803 0.24128 0.0
C4142 C 0.17605 0.66707 0.23274 0.0
C4143 C 0.16329 0.65896 0.24091 0.0
C4144 C 0.18138 0.6616 0.21521 0.0
C4145 C 0.19654 0.68997 0.23275 0.0
C4146 C 0.17066 0.66186 0.20102 0.0
C4147 C 0.1757 0.65693 0.1844 0.0
C4148 C 0.19155 0.6516 0.18169 0.0
C4149 C 0.20218 0.65108 0.19602 0.0
C4150 C 0.19712 0.65599 0.21263 0.0
H4151 H 0.19791 0.70199 0.23893 0.0
H4152 H 0.20811 0.68346 0.23418 0.0
H4153 H 0.19417 0.69164 0.21854 0.0
H4154 H 0.15843 0.66606 0.20278 0.0
H4155 H 0.16719 0.65742 0.17366 0.0
H4156 H 0.33367 0.15841 0.32688 0.0
H4157 H 0.34286 0.16758 0.29809 0.0
H4158 H 0.29698 0.1548 0.27574 0.0
H4159 H 0.2876 0.14579 0.30445 0.0
H4160 H 0.34538 0.15058 0.26668 0.0
H4161 H 0.30281 0.20165 0.26046 0.0
H4162 H 0.30641 0.19148 0.28099 0.0
H4163 H 0.29328 0.18271 0.2649 0.0
C4164 C 0.32551 0.15758 0.31585 0.0
C4165 C 0.30985 0.1515 0.31799 0.0
C4166 C 0.33079 0.16281 0.29942 0.0
C4167 C 0.32051 0.16211 0.28487 0.0
C4168 C 0.30498 0.15577 0.28689 0.0
H4169 H 0.34509 0.16817 0.1747 0.0
H4170 H 0.33735 0.15948 0.20412 0.0
C4171 C 0.29968 0.15056 0.3033 0.0
C4172 C 0.32607 0.16782 0.26751 0.0
H4173 H 0.31775 0.19474 0.23499 0.0
C4174 C 0.33939 0.16028 0.25977 0.0
C4175 C 0.31836 0.18061 0.25864 0.0
C4176 C 0.30452 0.1897 0.26672 0.0
C4177 C 0.34501 0.16498 0.24319 0.0
C4178 C 0.33694 0.17738 0.23406 0.0
C4179 C 0.32383 0.18513 0.24196 0.0
C4180 C 0.3419 0.18254 0.21629 0.0
C4181 C 0.35967 0.15677 0.23571 0.0
C4182 C 0.34672 0.19847 0.21331 0.0
C4183 C 0.35105 0.20352 0.19649 0.0
C4184 C 0.35055 0.19273 0.18232 0.0
C4185 C 0.34568 0.17677 0.18535 0.0
C4186 C 0.34134 0.17175 0.20217 0.0
H4187 H 0.36684 0.1507 0.24605 0.0
H4188 H 0.35579 0.14751 0.22614 0.0
H4189 H 0.3675 0.16551 0.22877 0.0
H4190 H 0.34716 0.20701 0.22402 0.0
H4191 H 0.35475 0.21589 0.19463 0.0
loop_
_geom_bond_atom_site_label_1
_geom_bond_atom_site_label_2
_geom_bond_distance
_geom_bond_site_symmetry_2
_ccdc_geom_bond_type
Co0 O2 2.143 . S
Co0 O8 2.074 . S
Co0 O11 2.093 . S
Co0 O24 2.097 . S
Co0 N41 2.151 . S
Co0 N49 2.214 . S
Co1 O2 2.160 . S
Co1 O7 2.058 . S
Co1 O17 2.057 . S
Co1 O32 2.037 . S
Co1 N36 2.145 . S
Co1 N57 2.257 . S
O2 Co0 2.143 . S
O2 Co1 2.160 . S
C3 O4 1.278 . S
C3 O11 1.224 . S
O4 C3 1.278 . S
C5 O6 1.245 . S
C5 O17 1.232 . S
O6 C5 1.245 . S
O7 Co1 2.058 . S
O7 C33 1.269 . S
O8 Co0 2.074 . S
O8 C33 1.257 . S
H9 C34 0.930 . S
H10 C40 0.930 . S
O11 Co0 2.093 . S
O11 C3 1.224 . S
H12 C44 0.929 . S
H13 C46 0.930 . S
H14 C47 0.930 . S
H15 C45 0.929 . S
H16 C48 0.928 . S
O17 Co1 2.057 . S
O17 C5 1.232 . S
H18 C37 0.929 . S
H19 C38 0.929 . S
H20 C50 0.931 . S
H21 C42 0.929 . S
H22 C51 0.930 . S
H23 C43 0.931 . S
O24 Co0 2.097 . S
O24 C52 1.214 . S
H25 C53 0.929 . S
H26 C54 0.929 . S
H27 C55 0.930 . S
H28 C56 0.929 . S
H29 C58 0.930 . S
H30 C35 0.930 . S
H31 C39 0.930 . S
O32 Co1 2.037 . S
O32 C52 1.234 . S
C33 O7 1.269 . S
C33 O8 1.257 . S
C34 H9 0.930 . S
C34 C37 1.388 . S
C34 C39 1.418 . S
C35 H30 0.930 . S
C35 C38 1.404 . S
C35 C39 1.353 . S
N36 Co1 2.145 . S
N36 C37 1.397 . S
N36 C38 1.334 . S
C37 H18 0.929 . S
C37 C34 1.388 . S
C37 N36 1.397 . S
C38 H19 0.929 . S
C38 C35 1.404 . S
C38 N36 1.334 . S
C39 H31 0.930 . S
C39 C34 1.418 . S
C39 C35 1.353 . S
C40 H10 0.930 . S
C40 N41 1.330 . S
C40 C42 1.446 . S
N41 Co0 2.151 . S
N41 C40 1.330 . S
N41 C45 1.418 . S
C42 H21 0.929 . S
C42 C40 1.446 . S
C42 C43 1.332 . S
C43 H23 0.931 . S
C43 C42 1.332 . S
C43 C44 1.267 . S
C44 H12 0.929 . S
C44 C43 1.267 . S
C44 C45 1.251 . S
C45 H15 0.929 . S
C45 N41 1.418 . S
C45 C44 1.251 . S
C46 H13 0.930 . S
C46 C48 1.406 . S
C46 C51 1.261 . S
C47 H14 0.930 . S
C47 N49 1.325 . S
C47 C50 1.357 . S
C48 H16 0.928 . S
C48 C46 1.406 . S
C48 N49 1.261 . S
N49 Co0 2.214 . S
N49 C47 1.325 . S
N49 C48 1.261 . S
C50 H20 0.931 . S
C50 C47 1.357 . S
C50 C51 1.312 . S
C51 H22 0.930 . S
C51 C46 1.261 . S
C51 C50 1.312 . S
C52 O24 1.214 . S
C52 O32 1.234 . S
C53 H25 0.929 . S
C53 C56 1.391 . S
C53 C58 1.391 . S
C54 H26 0.929 . S
C54 C55 1.390 . S
C54 N57 1.391 . S
C55 H27 0.930 . S
C55 C54 1.390 . S
C55 C56 1.392 . S
C56 H28 0.929 . S
C56 C53 1.391 . S
C56 C55 1.392 . S
N57 Co1 2.257 . S
N57 C54 1.391 . S
N57 C58 1.388 . S
C58 H29 0.930 . S
C58 C53 1.391 . S
C58 N57 1.388 . S
Co59 O61 2.143 . S
Co59 O67 2.074 . S
Co59 O70 2.093 . S
Co59 O83 2.097 . S
Co59 N100 2.151 . S
Co59 N108 2.214 . S
Co60 O61 2.160 . S
Co60 O66 2.058 . S
Co60 O76 2.057 . S
Co60 O91 2.037 . S
Co60 N95 2.145 . S
Co60 N116 2.257 . S
O61 Co59 2.143 . S
O61 Co60 2.160 . S
C62 O63 1.278 . S
C62 O70 1.224 . S
O63 C62 1.278 . S
C64 O65 1.245 . S
C64 O76 1.232 . S
O65 C64 1.245 . S
O66 Co60 2.058 . S
O66 C92 1.269 . S
O67 Co59 2.074 . S
O67 C92 1.257 . S
H68 C93 0.930 . S
H69 C99 0.930 . S
O70 Co59 2.093 . S
O70 C62 1.224 . S
H71 C103 0.929 . S
H72 C105 0.930 . S
H73 C106 0.930 . S
H74 C104 0.929 . S
H75 C107 0.928 . S
O76 Co60 2.057 . S
O76 C64 1.232 . S
H77 C96 0.929 . S
H78 C97 0.929 . S
H79 C109 0.931 . S
H80 C101 0.929 . S
H81 C110 0.930 . S
H82 C102 0.931 . S
O83 Co59 2.097 . S
O83 C111 1.214 . S
H84 C112 0.929 . S
H85 C113 0.929 . S
H86 C114 0.930 . S
H87 C115 0.929 . S
H88 C117 0.930 . S
H89 C94 0.930 . S
H90 C98 0.930 . S
O91 Co60 2.037 . S
O91 C111 1.234 . S
C92 O66 1.269 . S
C92 O67 1.257 . S
C93 H68 0.930 . S
C93 C96 1.388 . S
C93 C98 1.418 . S
C94 H89 0.930 . S
C94 C97 1.404 . S
C94 C98 1.353 . S
N95 Co60 2.145 . S
N95 C96 1.397 . S
N95 C97 1.334 . S
C96 H77 0.929 . S
C96 C93 1.388 . S
C96 N95 1.397 . S
C97 H78 0.929 . S
C97 C94 1.404 . S
C97 N95 1.334 . S
C98 H90 0.930 . S
C98 C93 1.418 . S
C98 C94 1.353 . S
C99 H69 0.930 . S
C99 N100 1.330 . S
C99 C101 1.446 . S
N100 Co59 2.151 . S
N100 C99 1.330 . S
N100 C104 1.418 . S
C101 H80 0.929 . S
C101 C99 1.446 . S
C101 C102 1.332 . S
C102 H82 0.931 . S
C102 C101 1.332 . S
C102 C103 1.267 . S
C103 H71 0.929 . S
C103 C102 1.267 . S
C103 C104 1.251 . S
C104 H74 0.929 . S
C104 N100 1.418 . S
C104 C103 1.251 . S
C105 H72 0.930 . S
C105 C107 1.406 . S
C105 C110 1.261 . S
C106 H73 0.930 . S
C106 N108 1.325 . S
C106 C109 1.357 . S
C107 H75 0.928 . S
C107 C105 1.406 . S
C107 N108 1.261 . S
N108 Co59 2.214 . S
N108 C106 1.325 . S
N108 C107 1.261 . S
C109 H79 0.931 . S
C109 C106 1.357 . S
C109 C110 1.312 . S
C110 H81 0.930 . S
C110 C105 1.261 . S
C110 C109 1.312 . S
C111 O83 1.214 . S
C111 O91 1.234 . S
C112 H84 0.929 . S
C112 C115 1.391 . S
C112 C117 1.391 . S
C113 H85 0.929 . S
C113 C114 1.390 . S
C113 N116 1.391 . S
C114 H86 0.930 . S
C114 C113 1.390 . S
C114 C115 1.392 . S
C115 H87 0.929 . S
C115 C112 1.391 . S
C115 C114 1.392 . S
N116 Co60 2.257 . S
N116 C113 1.391 . S
N116 C117 1.388 . S
C117 H88 0.930 . S
C117 C112 1.391 . S
C117 N116 1.388 . S
Co118 O120 2.143 . S
Co118 O126 2.074 . S
Co118 O129 2.093 . S
Co118 O142 2.097 . S
Co118 N159 2.151 . S
Co118 N167 2.214 . S
Co119 O120 2.160 . S
Co119 O125 2.058 . S
Co119 O135 2.057 . S
Co119 O150 2.037 . S
Co119 N154 2.145 . S
Co119 N175 2.257 . S
O120 Co118 2.143 . S
O120 Co119 2.160 . S
C121 O122 1.278 . S
C121 O129 1.224 . S
O122 C121 1.278 . S
C123 O124 1.245 . S
C123 O135 1.232 . S
O124 C123 1.245 . S
O125 Co119 2.058 . S
O125 C151 1.269 . S
O126 Co118 2.074 . S
O126 C151 1.257 . S
H127 C152 0.930 . S
H128 C158 0.930 . S
O129 Co118 2.093 . S
O129 C121 1.224 . S
H130 C162 0.929 . S
H131 C164 0.930 . S
H132 C165 0.930 . S
H133 C163 0.929 . S
H134 C166 0.928 . S
O135 Co119 2.057 . S
O135 C123 1.232 . S
H136 C155 0.929 . S
H137 C156 0.929 . S
H138 C168 0.931 . S
H139 C160 0.929 . S
H140 C169 0.930 . S
H141 C161 0.931 . S
O142 Co118 2.097 . S
O142 C170 1.214 . S
H143 C171 0.929 . S
H144 C172 0.929 . S
H145 C173 0.930 . S
H146 C174 0.929 . S
H147 C176 0.930 . S
H148 C153 0.930 . S
H149 C157 0.930 . S
O150 Co119 2.037 . S
O150 C170 1.234 . S
C151 O125 1.269 . S
C151 O126 1.257 . S
C152 H127 0.930 . S
C152 C155 1.388 . S
C152 C157 1.418 . S
C153 H148 0.930 . S
C153 C156 1.404 . S
C153 C157 1.353 . S
N154 Co119 2.145 . S
N154 C155 1.397 . S
N154 C156 1.334 . S
C155 H136 0.929 . S
C155 C152 1.388 . S
C155 N154 1.397 . S
C156 H137 0.929 . S
C156 C153 1.404 . S
C156 N154 1.334 . S
C157 H149 0.930 . S
C157 C152 1.418 . S
C157 C153 1.353 . S
C158 H128 0.930 . S
C158 N159 1.330 . S
C158 C160 1.446 . S
N159 Co118 2.151 . S
N159 C158 1.330 . S
N159 C163 1.418 . S
C160 H139 0.929 . S
C160 C158 1.446 . S
C160 C161 1.332 . S
C161 H141 0.931 . S
C161 C160 1.332 . S
C161 C162 1.267 . S
C162 H130 0.929 . S
C162 C161 1.267 . S
C162 C163 1.251 . S
C163 H133 0.929 . S
C163 N159 1.418 . S
C163 C162 1.251 . S
C164 H131 0.930 . S
C164 C166 1.406 . S
C164 C169 1.261 . S
C165 H132 0.930 . S
C165 N167 1.325 . S
C165 C168 1.357 . S
C166 H134 0.928 . S
C166 C164 1.406 . S
C166 N167 1.261 . S
N167 Co118 2.214 . S
N167 C165 1.325 . S
N167 C166 1.261 . S
C168 H138 0.931 . S
C168 C165 1.357 . S
C168 C169 1.312 . S
C169 H140 0.930 . S
C169 C164 1.261 . S
C169 C168 1.312 . S
C170 O142 1.214 . S
C170 O150 1.234 . S
C171 H143 0.929 . S
C171 C174 1.391 . S
C171 C176 1.391 . S
C172 H144 0.929 . S
C172 C173 1.390 . S
C172 N175 1.391 . S
C173 H145 0.930 . S
C173 C172 1.390 . S
C173 C174 1.392 . S
C174 H146 0.929 . S
C174 C171 1.391 . S
C174 C173 1.392 . S
N175 Co119 2.257 . S
N175 C172 1.391 . S
N175 C176 1.388 . S
C176 H147 0.930 . S
C176 C171 1.391 . S
C176 N175 1.388 . S
Co177 O179 2.143 . S
Co177 O185 2.074 . S
Co177 O188 2.093 . S
Co177 O201 2.097 . S
Co177 N218 2.151 . S
Co177 N226 2.214 . S
Co178 O179 2.160 . S
Co178 O184 2.058 . S
Co178 O194 2.057 . S
Co178 O209 2.037 . S
Co178 N213 2.145 . S
Co178 N234 2.257 . S
O179 Co177 2.143 . S
O179 Co178 2.160 . S
C180 O181 1.278 . S
C180 O188 1.224 . S
O181 C180 1.278 . S
C182 O183 1.245 . S
C182 O194 1.232 . S
O183 C182 1.245 . S
O184 Co178 2.058 . S
O184 C210 1.269 . S
O185 Co177 2.074 . S
O185 C210 1.257 . S
H186 C211 0.930 . S
H187 C217 0.930 . S
O188 Co177 2.093 . S
O188 C180 1.224 . S
H189 C221 0.929 . S
H190 C223 0.930 . S
H191 C224 0.930 . S
H192 C222 0.929 . S
H193 C225 0.928 . S
O194 Co178 2.057 . S
O194 C182 1.232 . S
H195 C214 0.929 . S
H196 C215 0.929 . S
H197 C227 0.931 . S
H198 C219 0.929 . S
H199 C228 0.930 . S
H200 C220 0.931 . S
O201 Co177 2.097 . S
O201 C229 1.214 . S
H202 C230 0.929 . S
H203 C231 0.929 . S
H204 C232 0.930 . S
H205 C233 0.929 . S
H206 C235 0.930 . S
H207 C212 0.930 . S
H208 C216 0.930 . S
O209 Co178 2.037 . S
O209 C229 1.234 . S
C210 O184 1.269 . S
C210 O185 1.257 . S
C211 H186 0.930 . S
C211 C214 1.388 . S
C211 C216 1.418 . S
C212 H207 0.930 . S
C212 C215 1.404 . S
C212 C216 1.353 . S
N213 Co178 2.145 . S
N213 C214 1.397 . S
N213 C215 1.334 . S
C214 H195 0.929 . S
C214 C211 1.388 . S
C214 N213 1.397 . S
C215 H196 0.929 . S
C215 C212 1.404 . S
C215 N213 1.334 . S
C216 H208 0.930 . S
C216 C211 1.418 . S
C216 C212 1.353 . S
C217 H187 0.930 . S
C217 N218 1.330 . S
C217 C219 1.446 . S
N218 Co177 2.151 . S
N218 C217 1.330 . S
N218 C222 1.418 . S
C219 H198 0.929 . S
C219 C217 1.446 . S
C219 C220 1.332 . S
C220 H200 0.931 . S
C220 C219 1.332 . S
C220 C221 1.267 . S
C221 H189 0.929 . S
C221 C220 1.267 . S
C221 C222 1.251 . S
C222 H192 0.929 . S
C222 N218 1.418 . S
C222 C221 1.251 . S
C223 H190 0.930 . S
C223 C225 1.406 . S
C223 C228 1.261 . S
C224 H191 0.930 . S
C224 N226 1.325 . S
C224 C227 1.357 . S
C225 H193 0.928 . S
C225 C223 1.406 . S
C225 N226 1.261 . S
N226 Co177 2.214 . S
N226 C224 1.325 . S
N226 C225 1.261 . S
C227 H197 0.931 . S
C227 C224 1.357 . S
C227 C228 1.312 . S
C228 H199 0.930 . S
C228 C223 1.261 . S
C228 C227 1.312 . S
C229 O201 1.214 . S
C229 O209 1.234 . S
C230 H202 0.929 . S
C230 C233 1.391 . S
C230 C235 1.391 . S
C231 H203 0.929 . S
C231 C232 1.390 . S
C231 N234 1.391 . S
C232 H204 0.930 . S
C232 C231 1.390 . S
C232 C233 1.392 . S
C233 H205 0.929 . S
C233 C230 1.391 . S
C233 C232 1.392 . S
N234 Co178 2.257 . S
N234 C231 1.391 . S
N234 C235 1.388 . S
C235 H206 0.930 . S
C235 C230 1.391 . S
C235 N234 1.388 . S
Co236 O238 2.143 . S
Co236 O244 2.074 . S
Co236 O247 2.093 . S
Co236 O260 2.097 . S
Co236 N277 2.151 . S
Co236 N285 2.214 . S
Co237 O238 2.160 . S
Co237 O243 2.058 . S
Co237 O253 2.057 . S
Co237 O268 2.037 . S
Co237 N272 2.145 . S
Co237 N293 2.257 . S
O238 Co236 2.143 . S
O238 Co237 2.160 . S
C239 O240 1.278 . S
C239 O247 1.224 . S
O240 C239 1.278 . S
C241 O242 1.245 . S
C241 O253 1.232 . S
O242 C241 1.245 . S
O243 Co237 2.058 . S
O243 C269 1.269 . S
O244 Co236 2.074 . S
O244 C269 1.257 . S
H245 C270 0.930 . S
H246 C276 0.930 . S
O247 Co236 2.093 . S
O247 C239 1.224 . S
H248 C280 0.929 . S
H249 C282 0.930 . S
H250 C283 0.930 . S
H251 C281 0.929 . S
H252 C284 0.928 . S
O253 Co237 2.057 . S
O253 C241 1.232 . S
H254 C273 0.929 . S
H255 C274 0.929 . S
H256 C286 0.931 . S
H257 C278 0.929 . S
H258 C287 0.930 . S
H259 C279 0.931 . S
O260 Co236 2.097 . S
O260 C288 1.214 . S
H261 C289 0.929 . S
H262 C290 0.929 . S
H263 C291 0.930 . S
H264 C292 0.929 . S
H265 C294 0.930 . S
H266 C271 0.930 . S
H267 C275 0.930 . S
O268 Co237 2.037 . S
O268 C288 1.234 . S
C269 O243 1.269 . S
C269 O244 1.257 . S
C270 H245 0.930 . S
C270 C273 1.388 . S
C270 C275 1.418 . S
C271 H266 0.930 . S
C271 C274 1.404 . S
C271 C275 1.353 . S
N272 Co237 2.145 . S
N272 C273 1.397 . S
N272 C274 1.334 . S
C273 H254 0.929 . S
C273 C270 1.388 . S
C273 N272 1.397 . S
C274 H255 0.929 . S
C274 C271 1.404 . S
C274 N272 1.334 . S
C275 H267 0.930 . S
C275 C270 1.418 . S
C275 C271 1.353 . S
C276 H246 0.930 . S
C276 N277 1.330 . S
C276 C278 1.446 . S
N277 Co236 2.151 . S
N277 C276 1.330 . S
N277 C281 1.418 . S
C278 H257 0.929 . S
C278 C276 1.446 . S
C278 C279 1.332 . S
C279 H259 0.931 . S
C279 C278 1.332 . S
C279 C280 1.267 . S
C280 H248 0.929 . S
C280 C279 1.267 . S
C280 C281 1.251 . S
C281 H251 0.929 . S
C281 N277 1.418 . S
C281 C280 1.251 . S
C282 H249 0.930 . S
C282 C284 1.406 . S
C282 C287 1.261 . S
C283 H250 0.930 . S
C283 N285 1.325 . S
C283 C286 1.357 . S
C284 H252 0.928 . S
C284 C282 1.406 . S
C284 N285 1.261 . S
N285 Co236 2.214 . S
N285 C283 1.325 . S
N285 C284 1.261 . S
C286 H256 0.931 . S
C286 C283 1.357 . S
C286 C287 1.312 . S
C287 H258 0.930 . S
C287 C282 1.261 . S
C287 C286 1.312 . S
C288 O260 1.214 . S
C288 O268 1.234 . S
C289 H261 0.929 . S
C289 C292 1.391 . S
C289 C294 1.391 . S
C290 H262 0.929 . S
C290 C291 1.390 . S
C290 N293 1.391 . S
C291 H263 0.930 . S
C291 C290 1.390 . S
C291 C292 1.392 . S
C292 H264 0.929 . S
C292 C289 1.391 . S
C292 C291 1.392 . S
N293 Co237 2.257 . S
N293 C290 1.391 . S
N293 C294 1.388 . S
C294 H265 0.930 . S
C294 C289 1.391 . S
C294 N293 1.388 . S
Co295 O297 2.143 . S
Co295 O303 2.074 . S
Co295 O306 2.093 . S
Co295 O319 2.097 . S
Co295 N336 2.151 . S
Co295 N344 2.214 . S
Co296 O297 2.160 . S
Co296 O302 2.058 . S
Co296 O312 2.057 . S
Co296 O327 2.037 . S
Co296 N331 2.145 . S
Co296 N352 2.257 . S
O297 Co295 2.143 . S
O297 Co296 2.160 . S
C298 O299 1.278 . S
C298 O306 1.224 . S
O299 C298 1.278 . S
C300 O301 1.245 . S
C300 O312 1.232 . S
O301 C300 1.245 . S
O302 Co296 2.058 . S
O302 C328 1.269 . S
O303 Co295 2.074 . S
O303 C328 1.257 . S
H304 C329 0.930 . S
H305 C335 0.930 . S
O306 Co295 2.093 . S
O306 C298 1.224 . S
H307 C339 0.929 . S
H308 C341 0.930 . S
H309 C342 0.930 . S
H310 C340 0.929 . S
H311 C343 0.928 . S
O312 Co296 2.057 . S
O312 C300 1.232 . S
H313 C332 0.929 . S
H314 C333 0.929 . S
H315 C345 0.931 . S
H316 C337 0.929 . S
H317 C346 0.930 . S
H318 C338 0.931 . S
O319 Co295 2.097 . S
O319 C347 1.214 . S
H320 C348 0.929 . S
H321 C349 0.929 . S
H322 C350 0.930 . S
H323 C351 0.929 . S
H324 C353 0.930 . S
H325 C330 0.930 . S
H326 C334 0.930 . S
O327 Co296 2.037 . S
O327 C347 1.234 . S
C328 O302 1.269 . S
C328 O303 1.257 . S
C329 H304 0.930 . S
C329 C332 1.388 . S
C329 C334 1.418 . S
C330 H325 0.930 . S
C330 C333 1.404 . S
C330 C334 1.353 . S
N331 Co296 2.145 . S
N331 C332 1.397 . S
N331 C333 1.334 . S
C332 H313 0.929 . S
C332 C329 1.388 . S
C332 N331 1.397 . S
C333 H314 0.929 . S
C333 C330 1.404 . S
C333 N331 1.334 . S
C334 H326 0.930 . S
C334 C329 1.418 . S
C334 C330 1.353 . S
C335 H305 0.930 . S
C335 N336 1.330 . S
C335 C337 1.446 . S
N336 Co295 2.151 . S
N336 C335 1.330 . S
N336 C340 1.418 . S
C337 H316 0.929 . S
C337 C335 1.446 . S
C337 C338 1.332 . S
C338 H318 0.931 . S
C338 C337 1.332 . S
C338 C339 1.267 . S
C339 H307 0.929 . S
C339 C338 1.267 . S
C339 C340 1.251 . S
C340 H310 0.929 . S
C340 N336 1.418 . S
C340 C339 1.251 . S
C341 H308 0.930 . S
C341 C343 1.406 . S
C341 C346 1.261 . S
C342 H309 0.930 . S
C342 N344 1.325 . S
C342 C345 1.357 . S
C343 H311 0.928 . S
C343 C341 1.406 . S
C343 N344 1.261 . S
N344 Co295 2.214 . S
N344 C342 1.325 . S
N344 C343 1.261 . S
C345 H315 0.931 . S
C345 C342 1.357 . S
C345 C346 1.312 . S
C346 H317 0.930 . S
C346 C341 1.261 . S
C346 C345 1.312 . S
C347 O319 1.214 . S
C347 O327 1.234 . S
C348 H320 0.929 . S
C348 C351 1.391 . S
C348 C353 1.391 . S
C349 H321 0.929 . S
C349 C350 1.390 . S
C349 N352 1.391 . S
C350 H322 0.930 . S
C350 C349 1.390 . S
C350 C351 1.392 . S
C351 H323 0.929 . S
C351 C348 1.391 . S
C351 C350 1.392 . S
N352 Co296 2.257 . S
N352 C349 1.391 . S
N352 C353 1.388 . S
C353 H324 0.930 . S
C353 C348 1.391 . S
C353 N352 1.388 . S
Co354 O356 2.143 . S
Co354 O362 2.074 . S
Co354 O365 2.093 . S
Co354 O378 2.097 . S
Co354 N395 2.151 . S
Co354 N403 2.214 . S
Co355 O356 2.160 . S
Co355 O361 2.058 . S
Co355 O371 2.057 . S
Co355 O386 2.037 . S
Co355 N390 2.145 . S
Co355 N411 2.257 . S
O356 Co354 2.143 . S
O356 Co355 2.160 . S
C357 O358 1.278 . S
C357 O365 1.224 . S
O358 C357 1.278 . S
C359 O360 1.245 . S
C359 O371 1.232 . S
O360 C359 1.245 . S
O361 Co355 2.058 . S
O361 C387 1.269 . S
O362 Co354 2.074 . S
O362 C387 1.257 . S
H363 C388 0.930 . S
H364 C394 0.930 . S
O365 Co354 2.093 . S
O365 C357 1.224 . S
H366 C398 0.929 . S
H367 C400 0.930 . S
H368 C401 0.930 . S
H369 C399 0.929 . S
H370 C402 0.928 . S
O371 Co355 2.057 . S
O371 C359 1.232 . S
H372 C391 0.929 . S
H373 C392 0.929 . S
H374 C404 0.931 . S
H375 C396 0.929 . S
H376 C405 0.930 . S
H377 C397 0.931 . S
O378 Co354 2.097 . S
O378 C406 1.214 . S
H379 C407 0.929 . S
H380 C408 0.929 . S
H381 C409 0.930 . S
H382 C410 0.929 . S
H383 C412 0.930 . S
H384 C389 0.930 . S
H385 C393 0.930 . S
O386 Co355 2.037 . S
O386 C406 1.234 . S
C387 O361 1.269 . S
C387 O362 1.257 . S
C388 H363 0.930 . S
C388 C391 1.388 . S
C388 C393 1.418 . S
C389 H384 0.930 . S
C389 C392 1.404 . S
C389 C393 1.353 . S
N390 Co355 2.145 . S
N390 C391 1.397 . S
N390 C392 1.334 . S
C391 H372 0.929 . S
C391 C388 1.388 . S
C391 N390 1.397 . S
C392 H373 0.929 . S
C392 C389 1.404 . S
C392 N390 1.334 . S
C393 H385 0.930 . S
C393 C388 1.418 . S
C393 C389 1.353 . S
C394 H364 0.930 . S
C394 N395 1.330 . S
C394 C396 1.446 . S
N395 Co354 2.151 . S
N395 C394 1.330 . S
N395 C399 1.418 . S
C396 H375 0.929 . S
C396 C394 1.446 . S
C396 C397 1.332 . S
C397 H377 0.931 . S
C397 C396 1.332 . S
C397 C398 1.267 . S
C398 H366 0.929 . S
C398 C397 1.267 . S
C398 C399 1.251 . S
C399 H369 0.929 . S
C399 N395 1.418 . S
C399 C398 1.251 . S
C400 H367 0.930 . S
C400 C402 1.406 . S
C400 C405 1.261 . S
C401 H368 0.930 . S
C401 N403 1.325 . S
C401 C404 1.357 . S
C402 H370 0.928 . S
C402 C400 1.406 . S
C402 N403 1.261 . S
N403 Co354 2.214 . S
N403 C401 1.325 . S
N403 C402 1.261 . S
C404 H374 0.931 . S
C404 C401 1.357 . S
C404 C405 1.312 . S
C405 H376 0.930 . S
C405 C400 1.261 . S
C405 C404 1.312 . S
C406 O378 1.214 . S
C406 O386 1.234 . S
C407 H379 0.929 . S
C407 C410 1.391 . S
C407 C412 1.391 . S
C408 H380 0.929 . S
C408 C409 1.390 . S
C408 N411 1.391 . S
C409 H381 0.930 . S
C409 C408 1.390 . S
C409 C410 1.392 . S
C410 H382 0.929 . S
C410 C407 1.391 . S
C410 C409 1.392 . S
N411 Co355 2.257 . S
N411 C408 1.391 . S
N411 C412 1.388 . S
C412 H383 0.930 . S
C412 C407 1.391 . S
C412 N411 1.388 . S
Co413 O415 2.143 . S
Co413 O421 2.074 . S
Co413 O424 2.093 . S
Co413 O437 2.097 . S
Co413 N454 2.151 . S
Co413 N462 2.214 . S
Co414 O415 2.160 . S
Co414 O420 2.058 . S
Co414 O430 2.057 . S
Co414 O445 2.037 . S
Co414 N449 2.145 . S
Co414 N470 2.257 . S
O415 Co413 2.143 . S
O415 Co414 2.160 . S
C416 O417 1.278 . S
C416 O424 1.224 . S
O417 C416 1.278 . S
C418 O419 1.245 . S
C418 O430 1.232 . S
O419 C418 1.245 . S
O420 Co414 2.058 . S
O420 C446 1.269 . S
O421 Co413 2.074 . S
O421 C446 1.257 . S
H422 C447 0.930 . S
H423 C453 0.930 . S
O424 Co413 2.093 . S
O424 C416 1.224 . S
H425 C457 0.929 . S
H426 C459 0.930 . S
H427 C460 0.930 . S
H428 C458 0.929 . S
H429 C461 0.928 . S
O430 Co414 2.057 . S
O430 C418 1.232 . S
H431 C450 0.929 . S
H432 C451 0.929 . S
H433 C463 0.931 . S
H434 C455 0.929 . S
H435 C464 0.930 . S
H436 C456 0.931 . S
O437 Co413 2.097 . S
O437 C465 1.214 . S
H438 C466 0.929 . S
H439 C467 0.929 . S
H440 C468 0.930 . S
H441 C469 0.929 . S
H442 C471 0.930 . S
H443 C448 0.930 . S
H444 C452 0.930 . S
O445 Co414 2.037 . S
O445 C465 1.234 . S
C446 O420 1.269 . S
C446 O421 1.257 . S
C447 H422 0.930 . S
C447 C450 1.388 . S
C447 C452 1.418 . S
C448 H443 0.930 . S
C448 C451 1.404 . S
C448 C452 1.353 . S
N449 Co414 2.145 . S
N449 C450 1.397 . S
N449 C451 1.334 . S
C450 H431 0.929 . S
C450 C447 1.388 . S
C450 N449 1.397 . S
C451 H432 0.929 . S
C451 C448 1.404 . S
C451 N449 1.334 . S
C452 H444 0.930 . S
C452 C447 1.418 . S
C452 C448 1.353 . S
C453 H423 0.930 . S
C453 N454 1.330 . S
C453 C455 1.446 . S
N454 Co413 2.151 . S
N454 C453 1.330 . S
N454 C458 1.418 . S
C455 H434 0.929 . S
C455 C453 1.446 . S
C455 C456 1.332 . S
C456 H436 0.931 . S
C456 C455 1.332 . S
C456 C457 1.267 . S
C457 H425 0.929 . S
C457 C456 1.267 . S
C457 C458 1.251 . S
C458 H428 0.929 . S
C458 N454 1.418 . S
C458 C457 1.251 . S
C459 H426 0.930 . S
C459 C461 1.406 . S
C459 C464 1.261 . S
C460 H427 0.930 . S
C460 N462 1.325 . S
C460 C463 1.357 . S
C461 H429 0.928 . S
C461 C459 1.406 . S
C461 N462 1.261 . S
N462 Co413 2.214 . S
N462 C460 1.325 . S
N462 C461 1.261 . S
C463 H433 0.931 . S
C463 C460 1.357 . S
C463 C464 1.312 . S
C464 H435 0.930 . S
C464 C459 1.261 . S
C464 C463 1.312 . S
C465 O437 1.214 . S
C465 O445 1.234 . S
C466 H438 0.929 . S
C466 C469 1.391 . S
C466 C471 1.391 . S
C467 H439 0.929 . S
C467 C468 1.390 . S
C467 N470 1.391 . S
C468 H440 0.930 . S
C468 C467 1.390 . S
C468 C469 1.392 . S
C469 H441 0.929 . S
C469 C466 1.391 . S
C469 C468 1.392 . S
N470 Co414 2.257 . S
N470 C467 1.391 . S
N470 C471 1.388 . S
C471 H442 0.930 . S
C471 C466 1.391 . S
C471 N470 1.388 . S
Co472 O474 2.143 . S
Co472 O480 2.074 . S
Co472 O483 2.093 . S
Co472 O496 2.097 . S
Co472 N513 2.151 . S
Co472 N521 2.214 . S
Co473 O474 2.160 . S
Co473 O479 2.058 . S
Co473 O489 2.057 . S
Co473 O504 2.037 . S
Co473 N508 2.145 . S
Co473 N529 2.257 . S
O474 Co472 2.143 . S
O474 Co473 2.160 . S
C475 O476 1.278 . S
C475 O483 1.224 . S
O476 C475 1.278 . S
C477 O478 1.245 . S
C477 O489 1.232 . S
O478 C477 1.245 . S
O479 Co473 2.058 . S
O479 C505 1.269 . S
O480 Co472 2.074 . S
O480 C505 1.257 . S
H481 C506 0.930 . S
H482 C512 0.930 . S
O483 Co472 2.093 . S
O483 C475 1.224 . S
H484 C516 0.929 . S
H485 C518 0.930 . S
H486 C519 0.930 . S
H487 C517 0.929 . S
H488 C520 0.928 . S
O489 Co473 2.057 . S
O489 C477 1.232 . S
H490 C509 0.929 . S
H491 C510 0.929 . S
H492 C522 0.931 . S
H493 C514 0.929 . S
H494 C523 0.930 . S
H495 C515 0.931 . S
O496 Co472 2.097 . S
O496 C524 1.214 . S
H497 C525 0.929 . S
H498 C526 0.929 . S
H499 C527 0.930 . S
H500 C528 0.929 . S
H501 C530 0.930 . S
H502 C507 0.930 . S
H503 C511 0.930 . S
O504 Co473 2.037 . S
O504 C524 1.234 . S
C505 O479 1.269 . S
C505 O480 1.257 . S
C506 H481 0.930 . S
C506 C509 1.388 . S
C506 C511 1.418 . S
C507 H502 0.930 . S
C507 C510 1.404 . S
C507 C511 1.353 . S
N508 Co473 2.145 . S
N508 C509 1.397 . S
N508 C510 1.334 . S
C509 H490 0.929 . S
C509 C506 1.388 . S
C509 N508 1.397 . S
C510 H491 0.929 . S
C510 C507 1.404 . S
C510 N508 1.334 . S
C511 H503 0.930 . S
C511 C506 1.418 . S
C511 C507 1.353 . S
C512 H482 0.930 . S
C512 N513 1.330 . S
C512 C514 1.446 . S
N513 Co472 2.151 . S
N513 C512 1.330 . S
N513 C517 1.418 . S
C514 H493 0.929 . S
C514 C512 1.446 . S
C514 C515 1.332 . S
C515 H495 0.931 . S
C515 C514 1.332 . S
C515 C516 1.267 . S
C516 H484 0.929 . S
C516 C515 1.267 . S
C516 C517 1.251 . S
C517 H487 0.929 . S
C517 N513 1.418 . S
C517 C516 1.251 . S
C518 H485 0.930 . S
C518 C520 1.406 . S
C518 C523 1.261 . S
C519 H486 0.930 . S
C519 N521 1.325 . S
C519 C522 1.357 . S
C520 H488 0.928 . S
C520 C518 1.406 . S
C520 N521 1.261 . S
N521 Co472 2.214 . S
N521 C519 1.325 . S
N521 C520 1.261 . S
C522 H492 0.931 . S
C522 C519 1.357 . S
C522 C523 1.312 . S
C523 H494 0.930 . S
C523 C518 1.261 . S
C523 C522 1.312 . S
C524 O496 1.214 . S
C524 O504 1.234 . S
C525 H497 0.929 . S
C525 C528 1.391 . S
C525 C530 1.391 . S
C526 H498 0.929 . S
C526 C527 1.390 . S
C526 N529 1.391 . S
C527 H499 0.930 . S
C527 C526 1.390 . S
C527 C528 1.392 . S
C528 H500 0.929 . S
C528 C525 1.391 . S
C528 C527 1.392 . S
N529 Co473 2.257 . S
N529 C526 1.391 . S
N529 C530 1.388 . S
C530 H501 0.930 . S
C530 C525 1.391 . S
C530 N529 1.388 . S
Co531 O533 2.143 . S
Co531 O539 2.074 . S
Co531 O542 2.093 . S
Co531 O555 2.097 . S
Co531 N572 2.151 . S
Co531 N580 2.214 . S
Co532 O533 2.160 . S
Co532 O538 2.058 . S
Co532 O548 2.057 . S
Co532 O563 2.037 . S
Co532 N567 2.145 . S
Co532 N588 2.257 . S
O533 Co531 2.143 . S
O533 Co532 2.160 . S
C534 O535 1.278 . S
C534 O542 1.224 . S
O535 C534 1.278 . S
C536 O537 1.245 . S
C536 O548 1.232 . S
O537 C536 1.245 . S
O538 Co532 2.058 . S
O538 C564 1.269 . S
O539 Co531 2.074 . S
O539 C564 1.257 . S
H540 C565 0.930 . S
H541 C571 0.930 . S
O542 Co531 2.093 . S
O542 C534 1.224 . S
H543 C575 0.929 . S
H544 C577 0.930 . S
H545 C578 0.930 . S
H546 C576 0.929 . S
H547 C579 0.928 . S
O548 Co532 2.057 . S
O548 C536 1.232 . S
H549 C568 0.929 . S
H550 C569 0.929 . S
H551 C581 0.931 . S
H552 C573 0.929 . S
H553 C582 0.930 . S
H554 C574 0.931 . S
O555 Co531 2.097 . S
O555 C583 1.214 . S
H556 C584 0.929 . S
H557 C585 0.929 . S
H558 C586 0.930 . S
H559 C587 0.929 . S
H560 C589 0.930 . S
H561 C566 0.930 . S
H562 C570 0.930 . S
O563 Co532 2.037 . S
O563 C583 1.234 . S
C564 O538 1.269 . S
C564 O539 1.257 . S
C565 H540 0.930 . S
C565 C568 1.388 . S
C565 C570 1.418 . S
C566 H561 0.930 . S
C566 C569 1.404 . S
C566 C570 1.353 . S
N567 Co532 2.145 . S
N567 C568 1.397 . S
N567 C569 1.334 . S
C568 H549 0.929 . S
C568 C565 1.388 . S
C568 N567 1.397 . S
C569 H550 0.929 . S
C569 C566 1.404 . S
C569 N567 1.334 . S
C570 H562 0.930 . S
C570 C565 1.418 . S
C570 C566 1.353 . S
C571 H541 0.930 . S
C571 N572 1.330 . S
C571 C573 1.446 . S
N572 Co531 2.151 . S
N572 C571 1.330 . S
N572 C576 1.418 . S
C573 H552 0.929 . S
C573 C571 1.446 . S
C573 C574 1.332 . S
C574 H554 0.931 . S
C574 C573 1.332 . S
C574 C575 1.267 . S
C575 H543 0.929 . S
C575 C574 1.267 . S
C575 C576 1.251 . S
C576 H546 0.929 . S
C576 N572 1.418 . S
C576 C575 1.251 . S
C577 H544 0.930 . S
C577 C579 1.406 . S
C577 C582 1.261 . S
C578 H545 0.930 . S
C578 N580 1.325 . S
C578 C581 1.357 . S
C579 H547 0.928 . S
C579 C577 1.406 . S
C579 N580 1.261 . S
N580 Co531 2.214 . S
N580 C578 1.325 . S
N580 C579 1.261 . S
C581 H551 0.931 . S
C581 C578 1.357 . S
C581 C582 1.312 . S
C582 H553 0.930 . S
C582 C577 1.261 . S
C582 C581 1.312 . S
C583 O555 1.214 . S
C583 O563 1.234 . S
C584 H556 0.929 . S
C584 C587 1.391 . S
C584 C589 1.391 . S
C585 H557 0.929 . S
C585 C586 1.390 . S
C585 N588 1.391 . S
C586 H558 0.930 . S
C586 C585 1.390 . S
C586 C587 1.392 . S
C587 H559 0.929 . S
C587 C584 1.391 . S
C587 C586 1.392 . S
N588 Co532 2.257 . S
N588 C585 1.391 . S
N588 C589 1.388 . S
C589 H560 0.930 . S
C589 C584 1.391 . S
C589 N588 1.388 . S
Co590 O592 2.143 . S
Co590 O598 2.074 . S
Co590 O601 2.093 . S
Co590 O614 2.097 . S
Co590 N631 2.151 . S
Co590 N639 2.214 . S
Co591 O592 2.160 . S
Co591 O597 2.058 . S
Co591 O607 2.057 . S
Co591 O622 2.037 . S
Co591 N626 2.145 . S
Co591 N647 2.257 . S
O592 Co590 2.143 . S
O592 Co591 2.160 . S
C593 O594 1.278 . S
C593 O601 1.224 . S
O594 C593 1.278 . S
C595 O596 1.245 . S
C595 O607 1.232 . S
O596 C595 1.245 . S
O597 Co591 2.058 . S
O597 C623 1.269 . S
O598 Co590 2.074 . S
O598 C623 1.257 . S
H599 C624 0.930 . S
H600 C630 0.930 . S
O601 Co590 2.093 . S
O601 C593 1.224 . S
H602 C634 0.929 . S
H603 C636 0.930 . S
H604 C637 0.930 . S
H605 C635 0.929 . S
H606 C638 0.928 . S
O607 Co591 2.057 . S
O607 C595 1.232 . S
H608 C627 0.929 . S
H609 C628 0.929 . S
H610 C640 0.931 . S
H611 C632 0.929 . S
H612 C641 0.930 . S
H613 C633 0.931 . S
O614 Co590 2.097 . S
O614 C642 1.214 . S
H615 C643 0.929 . S
H616 C644 0.929 . S
H617 C645 0.930 . S
H618 C646 0.929 . S
H619 C648 0.930 . S
H620 C625 0.930 . S
H621 C629 0.930 . S
O622 Co591 2.037 . S
O622 C642 1.234 . S
C623 O597 1.269 . S
C623 O598 1.257 . S
C624 H599 0.930 . S
C624 C627 1.388 . S
C624 C629 1.418 . S
C625 H620 0.930 . S
C625 C628 1.404 . S
C625 C629 1.353 . S
N626 Co591 2.145 . S
N626 C627 1.397 . S
N626 C628 1.334 . S
C627 H608 0.929 . S
C627 C624 1.388 . S
C627 N626 1.397 . S
C628 H609 0.929 . S
C628 C625 1.404 . S
C628 N626 1.334 . S
C629 H621 0.930 . S
C629 C624 1.418 . S
C629 C625 1.353 . S
C630 H600 0.930 . S
C630 N631 1.330 . S
C630 C632 1.446 . S
N631 Co590 2.151 . S
N631 C630 1.330 . S
N631 C635 1.418 . S
C632 H611 0.929 . S
C632 C630 1.446 . S
C632 C633 1.332 . S
C633 H613 0.931 . S
C633 C632 1.332 . S
C633 C634 1.267 . S
C634 H602 0.929 . S
C634 C633 1.267 . S
C634 C635 1.251 . S
C635 H605 0.929 . S
C635 N631 1.418 . S
C635 C634 1.251 . S
C636 H603 0.930 . S
C636 C638 1.406 . S
C636 C641 1.261 . S
C637 H604 0.930 . S
C637 N639 1.325 . S
C637 C640 1.357 . S
C638 H606 0.928 . S
C638 C636 1.406 . S
C638 N639 1.261 . S
N639 Co590 2.214 . S
N639 C637 1.325 . S
N639 C638 1.261 . S
C640 H610 0.931 . S
C640 C637 1.357 . S
C640 C641 1.312 . S
C641 H612 0.930 . S
C641 C636 1.261 . S
C641 C640 1.312 . S
C642 O614 1.214 . S
C642 O622 1.234 . S
C643 H615 0.929 . S
C643 C646 1.391 . S
C643 C648 1.391 . S
C644 H616 0.929 . S
C644 C645 1.390 . S
C644 N647 1.391 . S
C645 H617 0.930 . S
C645 C644 1.390 . S
C645 C646 1.392 . S
C646 H618 0.929 . S
C646 C643 1.391 . S
C646 C645 1.392 . S
N647 Co591 2.257 . S
N647 C644 1.391 . S
N647 C648 1.388 . S
C648 H619 0.930 . S
C648 C643 1.391 . S
C648 N647 1.388 . S
Co649 O651 2.143 . S
Co649 O657 2.074 . S
Co649 O660 2.093 . S
Co649 O673 2.097 . S
Co649 N690 2.151 . S
Co649 N698 2.214 . S
Co650 O651 2.160 . S
Co650 O656 2.058 . S
Co650 O666 2.057 . S
Co650 O681 2.037 . S
Co650 N685 2.145 . S
Co650 N706 2.257 . S
O651 Co649 2.143 . S
O651 Co650 2.160 . S
C652 O653 1.278 . S
C652 O660 1.224 . S
O653 C652 1.278 . S
C654 O655 1.245 . S
C654 O666 1.232 . S
O655 C654 1.245 . S
O656 Co650 2.058 . S
O656 C682 1.269 . S
O657 Co649 2.074 . S
O657 C682 1.257 . S
H658 C683 0.930 . S
H659 C689 0.930 . S
O660 Co649 2.093 . S
O660 C652 1.224 . S
H661 C693 0.929 . S
H662 C695 0.930 . S
H663 C696 0.930 . S
H664 C694 0.929 . S
H665 C697 0.928 . S
O666 Co650 2.057 . S
O666 C654 1.232 . S
H667 C686 0.929 . S
H668 C687 0.929 . S
H669 C699 0.931 . S
H670 C691 0.929 . S
H671 C700 0.930 . S
H672 C692 0.931 . S
O673 Co649 2.097 . S
O673 C701 1.214 . S
H674 C702 0.929 . S
H675 C703 0.929 . S
H676 C704 0.930 . S
H677 C705 0.929 . S
H678 C707 0.930 . S
H679 C684 0.930 . S
H680 C688 0.930 . S
O681 Co650 2.037 . S
O681 C701 1.234 . S
C682 O656 1.269 . S
C682 O657 1.257 . S
C683 H658 0.930 . S
C683 C686 1.388 . S
C683 C688 1.418 . S
C684 H679 0.930 . S
C684 C687 1.404 . S
C684 C688 1.353 . S
N685 Co650 2.145 . S
N685 C686 1.397 . S
N685 C687 1.334 . S
C686 H667 0.929 . S
C686 C683 1.388 . S
C686 N685 1.397 . S
C687 H668 0.929 . S
C687 C684 1.404 . S
C687 N685 1.334 . S
C688 H680 0.930 . S
C688 C683 1.418 . S
C688 C684 1.353 . S
C689 H659 0.930 . S
C689 N690 1.330 . S
C689 C691 1.446 . S
N690 Co649 2.151 . S
N690 C689 1.330 . S
N690 C694 1.418 . S
C691 H670 0.929 . S
C691 C689 1.446 . S
C691 C692 1.332 . S
C692 H672 0.931 . S
C692 C691 1.332 . S
C692 C693 1.267 . S
C693 H661 0.929 . S
C693 C692 1.267 . S
C693 C694 1.251 . S
C694 H664 0.929 . S
C694 N690 1.418 . S
C694 C693 1.251 . S
C695 H662 0.930 . S
C695 C697 1.406 . S
C695 C700 1.261 . S
C696 H663 0.930 . S
C696 N698 1.325 . S
C696 C699 1.357 . S
C697 H665 0.928 . S
C697 C695 1.406 . S
C697 N698 1.261 . S
N698 Co649 2.214 . S
N698 C696 1.325 . S
N698 C697 1.261 . S
C699 H669 0.931 . S
C699 C696 1.357 . S
C699 C700 1.312 . S
C700 H671 0.930 . S
C700 C695 1.261 . S
C700 C699 1.312 . S
C701 O673 1.214 . S
C701 O681 1.234 . S
C702 H674 0.929 . S
C702 C705 1.391 . S
C702 C707 1.391 . S
C703 H675 0.929 . S
C703 C704 1.390 . S
C703 N706 1.391 . S
C704 H676 0.930 . S
C704 C703 1.390 . S
C704 C705 1.392 . S
C705 H677 0.929 . S
C705 C702 1.391 . S
C705 C704 1.392 . S
N706 Co650 2.257 . S
N706 C703 1.391 . S
N706 C707 1.388 . S
C707 H678 0.930 . S
C707 C702 1.391 . S
C707 N706 1.388 . S
Co708 O710 2.143 . S
Co708 O716 2.074 . S
Co708 O719 2.093 . S
Co708 O732 2.097 . S
Co708 N749 2.151 . S
Co708 N757 2.214 . S
Co709 O710 2.160 . S
Co709 O715 2.058 . S
Co709 O725 2.057 . S
Co709 O740 2.037 . S
Co709 N744 2.145 . S
Co709 N765 2.257 . S
O710 Co708 2.143 . S
O710 Co709 2.160 . S
C711 O712 1.278 . S
C711 O719 1.224 . S
O712 C711 1.278 . S
C713 O714 1.245 . S
C713 O725 1.232 . S
O714 C713 1.245 . S
O715 Co709 2.058 . S
O715 C741 1.269 . S
O716 Co708 2.074 . S
O716 C741 1.257 . S
H717 C742 0.930 . S
H718 C748 0.930 . S
O719 Co708 2.093 . S
O719 C711 1.224 . S
H720 C752 0.929 . S
H721 C754 0.930 . S
H722 C755 0.930 . S
H723 C753 0.929 . S
H724 C756 0.928 . S
O725 Co709 2.057 . S
O725 C713 1.232 . S
H726 C745 0.929 . S
H727 C746 0.929 . S
H728 C758 0.931 . S
H729 C750 0.929 . S
H730 C759 0.930 . S
H731 C751 0.931 . S
O732 Co708 2.097 . S
O732 C760 1.214 . S
H733 C761 0.929 . S
H734 C762 0.929 . S
H735 C763 0.930 . S
H736 C764 0.929 . S
H737 C766 0.930 . S
H738 C743 0.930 . S
H739 C747 0.930 . S
O740 Co709 2.037 . S
O740 C760 1.234 . S
C741 O715 1.269 . S
C741 O716 1.257 . S
C742 H717 0.930 . S
C742 C745 1.388 . S
C742 C747 1.418 . S
C743 H738 0.930 . S
C743 C746 1.404 . S
C743 C747 1.353 . S
N744 Co709 2.145 . S
N744 C745 1.397 . S
N744 C746 1.334 . S
C745 H726 0.929 . S
C745 C742 1.388 . S
C745 N744 1.397 . S
C746 H727 0.929 . S
C746 C743 1.404 . S
C746 N744 1.334 . S
C747 H739 0.930 . S
C747 C742 1.418 . S
C747 C743 1.353 . S
C748 H718 0.930 . S
C748 N749 1.330 . S
C748 C750 1.446 . S
N749 Co708 2.151 . S
N749 C748 1.330 . S
N749 C753 1.418 . S
C750 H729 0.929 . S
C750 C748 1.446 . S
C750 C751 1.332 . S
C751 H731 0.931 . S
C751 C750 1.332 . S
C751 C752 1.267 . S
C752 H720 0.929 . S
C752 C751 1.267 . S
C752 C753 1.251 . S
C753 H723 0.929 . S
C753 N749 1.418 . S
C753 C752 1.251 . S
C754 H721 0.930 . S
C754 C756 1.406 . S
C754 C759 1.261 . S
C755 H722 0.930 . S
C755 N757 1.325 . S
C755 C758 1.357 . S
C756 H724 0.928 . S
C756 C754 1.406 . S
C756 N757 1.261 . S
N757 Co708 2.214 . S
N757 C755 1.325 . S
N757 C756 1.261 . S
C758 H728 0.931 . S
C758 C755 1.357 . S
C758 C759 1.312 . S
C759 H730 0.930 . S
C759 C754 1.261 . S
C759 C758 1.312 . S
C760 O732 1.214 . S
C760 O740 1.234 . S
C761 H733 0.929 . S
C761 C764 1.391 . S
C761 C766 1.391 . S
C762 H734 0.929 . S
C762 C763 1.390 . S
C762 N765 1.391 . S
C763 H735 0.930 . S
C763 C762 1.390 . S
C763 C764 1.392 . S
C764 H736 0.929 . S
C764 C761 1.391 . S
C764 C763 1.392 . S
N765 Co709 2.257 . S
N765 C762 1.391 . S
N765 C766 1.388 . S
C766 H737 0.930 . S
C766 C761 1.391 . S
C766 N765 1.388 . S
Co767 O769 2.143 . S
Co767 O775 2.074 . S
Co767 O778 2.093 . S
Co767 O791 2.097 . S
Co767 N808 2.151 . S
Co767 N816 2.214 . S
Co768 O769 2.160 . S
Co768 O774 2.058 . S
Co768 O784 2.057 . S
Co768 O799 2.037 . S
Co768 N803 2.145 . S
Co768 N824 2.257 . S
O769 Co767 2.143 . S
O769 Co768 2.160 . S
C770 O771 1.278 . S
C770 O778 1.224 . S
O771 C770 1.278 . S
C772 O773 1.245 . S
C772 O784 1.232 . S
O773 C772 1.245 . S
O774 Co768 2.058 . S
O774 C800 1.269 . S
O775 Co767 2.074 . S
O775 C800 1.257 . S
H776 C801 0.930 . S
H777 C807 0.930 . S
O778 Co767 2.093 . S
O778 C770 1.224 . S
H779 C811 0.929 . S
H780 C813 0.930 . S
H781 C814 0.930 . S
H782 C812 0.929 . S
H783 C815 0.928 . S
O784 Co768 2.057 . S
O784 C772 1.232 . S
H785 C804 0.929 . S
H786 C805 0.929 . S
H787 C817 0.931 . S
H788 C809 0.929 . S
H789 C818 0.930 . S
H790 C810 0.931 . S
O791 Co767 2.097 . S
O791 C819 1.214 . S
H792 C820 0.929 . S
H793 C821 0.929 . S
H794 C822 0.930 . S
H795 C823 0.929 . S
H796 C825 0.930 . S
H797 C802 0.930 . S
H798 C806 0.930 . S
O799 Co768 2.037 . S
O799 C819 1.234 . S
C800 O774 1.269 . S
C800 O775 1.257 . S
C801 H776 0.930 . S
C801 C804 1.388 . S
C801 C806 1.418 . S
C802 H797 0.930 . S
C802 C805 1.404 . S
C802 C806 1.353 . S
N803 Co768 2.145 . S
N803 C804 1.397 . S
N803 C805 1.334 . S
C804 H785 0.929 . S
C804 C801 1.388 . S
C804 N803 1.397 . S
C805 H786 0.929 . S
C805 C802 1.404 . S
C805 N803 1.334 . S
C806 H798 0.930 . S
C806 C801 1.418 . S
C806 C802 1.353 . S
C807 H777 0.930 . S
C807 N808 1.330 . S
C807 C809 1.446 . S
N808 Co767 2.151 . S
N808 C807 1.330 . S
N808 C812 1.418 . S
C809 H788 0.929 . S
C809 C807 1.446 . S
C809 C810 1.332 . S
C810 H790 0.931 . S
C810 C809 1.332 . S
C810 C811 1.267 . S
C811 H779 0.929 . S
C811 C810 1.267 . S
C811 C812 1.251 . S
C812 H782 0.929 . S
C812 N808 1.418 . S
C812 C811 1.251 . S
C813 H780 0.930 . S
C813 C815 1.406 . S
C813 C818 1.261 . S
C814 H781 0.930 . S
C814 N816 1.325 . S
C814 C817 1.357 . S
C815 H783 0.928 . S
C815 C813 1.406 . S
C815 N816 1.261 . S
N816 Co767 2.214 . S
N816 C814 1.325 . S
N816 C815 1.261 . S
C817 H787 0.931 . S
C817 C814 1.357 . S
C817 C818 1.312 . S
C818 H789 0.930 . S
C818 C813 1.261 . S
C818 C817 1.312 . S
C819 O791 1.214 . S
C819 O799 1.234 . S
C820 H792 0.929 . S
C820 C823 1.391 . S
C820 C825 1.391 . S
C821 H793 0.929 . S
C821 C822 1.390 . S
C821 N824 1.391 . S
C822 H794 0.930 . S
C822 C821 1.390 . S
C822 C823 1.392 . S
C823 H795 0.929 . S
C823 C820 1.391 . S
C823 C822 1.392 . S
N824 Co768 2.257 . S
N824 C821 1.391 . S
N824 C825 1.388 . S
C825 H796 0.930 . S
C825 C820 1.391 . S
C825 N824 1.388 . S
Co826 O828 2.143 . S
Co826 O834 2.074 . S
Co826 O837 2.093 . S
Co826 O850 2.097 . S
Co826 N867 2.151 . S
Co826 N875 2.214 . S
Co827 O828 2.160 . S
Co827 O833 2.058 . S
Co827 O843 2.057 . S
Co827 O858 2.037 . S
Co827 N862 2.145 . S
Co827 N883 2.257 . S
O828 Co826 2.143 . S
O828 Co827 2.160 . S
C829 O830 1.278 . S
C829 O837 1.224 . S
O830 C829 1.278 . S
C831 O832 1.245 . S
C831 O843 1.232 . S
O832 C831 1.245 . S
O833 Co827 2.058 . S
O833 C859 1.269 . S
O834 Co826 2.074 . S
O834 C859 1.257 . S
H835 C860 0.930 . S
H836 C866 0.930 . S
O837 Co826 2.093 . S
O837 C829 1.224 . S
H838 C870 0.929 . S
H839 C872 0.930 . S
H840 C873 0.930 . S
H841 C871 0.929 . S
H842 C874 0.928 . S
O843 Co827 2.057 . S
O843 C831 1.232 . S
H844 C863 0.929 . S
H845 C864 0.929 . S
H846 C876 0.931 . S
H847 C868 0.929 . S
H848 C877 0.930 . S
H849 C869 0.931 . S
O850 Co826 2.097 . S
O850 C878 1.214 . S
H851 C879 0.929 . S
H852 C880 0.929 . S
H853 C881 0.930 . S
H854 C882 0.929 . S
H855 C884 0.930 . S
H856 C861 0.930 . S
H857 C865 0.930 . S
O858 Co827 2.037 . S
O858 C878 1.234 . S
C859 O833 1.269 . S
C859 O834 1.257 . S
C860 H835 0.930 . S
C860 C863 1.388 . S
C860 C865 1.418 . S
C861 H856 0.930 . S
C861 C864 1.404 . S
C861 C865 1.353 . S
N862 Co827 2.145 . S
N862 C863 1.397 . S
N862 C864 1.334 . S
C863 H844 0.929 . S
C863 C860 1.388 . S
C863 N862 1.397 . S
C864 H845 0.929 . S
C864 C861 1.404 . S
C864 N862 1.334 . S
C865 H857 0.930 . S
C865 C860 1.418 . S
C865 C861 1.353 . S
C866 H836 0.930 . S
C866 N867 1.330 . S
C866 C868 1.446 . S
N867 Co826 2.151 . S
N867 C866 1.330 . S
N867 C871 1.418 . S
C868 H847 0.929 . S
C868 C866 1.446 . S
C868 C869 1.332 . S
C869 H849 0.931 . S
C869 C868 1.332 . S
C869 C870 1.267 . S
C870 H838 0.929 . S
C870 C869 1.267 . S
C870 C871 1.251 . S
C871 H841 0.929 . S
C871 N867 1.418 . S
C871 C870 1.251 . S
C872 H839 0.930 . S
C872 C874 1.406 . S
C872 C877 1.261 . S
C873 H840 0.930 . S
C873 N875 1.325 . S
C873 C876 1.357 . S
C874 H842 0.928 . S
C874 C872 1.406 . S
C874 N875 1.261 . S
N875 Co826 2.214 . S
N875 C873 1.325 . S
N875 C874 1.261 . S
C876 H846 0.931 . S
C876 C873 1.357 . S
C876 C877 1.312 . S
C877 H848 0.930 . S
C877 C872 1.261 . S
C877 C876 1.312 . S
C878 O850 1.214 . S
C878 O858 1.234 . S
C879 H851 0.929 . S
C879 C882 1.391 . S
C879 C884 1.391 . S
C880 H852 0.929 . S
C880 C881 1.390 . S
C880 N883 1.391 . S
C881 H853 0.930 . S
C881 C880 1.390 . S
C881 C882 1.392 . S
C882 H854 0.929 . S
C882 C879 1.391 . S
C882 C881 1.392 . S
N883 Co827 2.257 . S
N883 C880 1.391 . S
N883 C884 1.388 . S
C884 H855 0.930 . S
C884 C879 1.391 . S
C884 N883 1.388 . S
Co885 O887 2.143 . S
Co885 O893 2.074 . S
Co885 O896 2.093 . S
Co885 O909 2.097 . S
Co885 N926 2.151 . S
Co885 N934 2.214 . S
Co886 O887 2.160 . S
Co886 O892 2.058 . S
Co886 O902 2.057 . S
Co886 O917 2.037 . S
Co886 N921 2.145 . S
Co886 N942 2.257 . S
O887 Co885 2.143 . S
O887 Co886 2.160 . S
C888 O889 1.278 . S
C888 O896 1.224 . S
O889 C888 1.278 . S
C890 O891 1.245 . S
C890 O902 1.232 . S
O891 C890 1.245 . S
O892 Co886 2.058 . S
O892 C918 1.269 . S
O893 Co885 2.074 . S
O893 C918 1.257 . S
H894 C919 0.930 . S
H895 C925 0.930 . S
O896 Co885 2.093 . S
O896 C888 1.224 . S
H897 C929 0.929 . S
H898 C931 0.930 . S
H899 C932 0.930 . S
H900 C930 0.929 . S
H901 C933 0.928 . S
O902 Co886 2.057 . S
O902 C890 1.232 . S
H903 C922 0.929 . S
H904 C923 0.929 . S
H905 C935 0.931 . S
H906 C927 0.929 . S
H907 C936 0.930 . S
H908 C928 0.931 . S
O909 Co885 2.097 . S
O909 C937 1.214 . S
H910 C938 0.929 . S
H911 C939 0.929 . S
H912 C940 0.930 . S
H913 C941 0.929 . S
H914 C943 0.930 . S
H915 C920 0.930 . S
H916 C924 0.930 . S
O917 Co886 2.037 . S
O917 C937 1.234 . S
C918 O892 1.269 . S
C918 O893 1.257 . S
C919 H894 0.930 . S
C919 C922 1.388 . S
C919 C924 1.418 . S
C920 H915 0.930 . S
C920 C923 1.404 . S
C920 C924 1.353 . S
N921 Co886 2.145 . S
N921 C922 1.397 . S
N921 C923 1.334 . S
C922 H903 0.929 . S
C922 C919 1.388 . S
C922 N921 1.397 . S
C923 H904 0.929 . S
C923 C920 1.404 . S
C923 N921 1.334 . S
C924 H916 0.930 . S
C924 C919 1.418 . S
C924 C920 1.353 . S
C925 H895 0.930 . S
C925 N926 1.330 . S
C925 C927 1.446 . S
N926 Co885 2.151 . S
N926 C925 1.330 . S
N926 C930 1.418 . S
C927 H906 0.929 . S
C927 C925 1.446 . S
C927 C928 1.332 . S
C928 H908 0.931 . S
C928 C927 1.332 . S
C928 C929 1.267 . S
C929 H897 0.929 . S
C929 C928 1.267 . S
C929 C930 1.251 . S
C930 H900 0.929 . S
C930 N926 1.418 . S
C930 C929 1.251 . S
C931 H898 0.930 . S
C931 C933 1.406 . S
C931 C936 1.261 . S
C932 H899 0.930 . S
C932 N934 1.325 . S
C932 C935 1.357 . S
C933 H901 0.928 . S
C933 C931 1.406 . S
C933 N934 1.261 . S
N934 Co885 2.214 . S
N934 C932 1.325 . S
N934 C933 1.261 . S
C935 H905 0.931 . S
C935 C932 1.357 . S
C935 C936 1.312 . S
C936 H907 0.930 . S
C936 C931 1.261 . S
C936 C935 1.312 . S
C937 O909 1.214 . S
C937 O917 1.234 . S
C938 H910 0.929 . S
C938 C941 1.391 . S
C938 C943 1.391 . S
C939 H911 0.929 . S
C939 C940 1.390 . S
C939 N942 1.391 . S
C940 H912 0.930 . S
C940 C939 1.390 . S
C940 C941 1.392 . S
C941 H913 0.929 . S
C941 C938 1.391 . S
C941 C940 1.392 . S
N942 Co886 2.257 . S
N942 C939 1.391 . S
N942 C943 1.388 . S
C943 H914 0.930 . S
C943 C938 1.391 . S
C943 N942 1.388 . S
Co944 O946 2.143 . S
Co944 O952 2.074 . S
Co944 O955 2.093 . S
Co944 O968 2.097 . S
Co944 N985 2.151 . S
Co944 N993 2.214 . S
Co945 O946 2.160 . S
Co945 O951 2.058 . S
Co945 O961 2.057 . S
Co945 O976 2.037 . S
Co945 N980 2.145 . S
Co945 N1001 2.257 . S
O946 Co944 2.143 . S
O946 Co945 2.160 . S
C947 O948 1.278 . S
C947 O955 1.224 . S
O948 C947 1.278 . S
C949 O950 1.245 . S
C949 O961 1.232 . S
O950 C949 1.245 . S
O951 Co945 2.058 . S
O951 C977 1.269 . S
O952 Co944 2.074 . S
O952 C977 1.257 . S
H953 C978 0.930 . S
H954 C984 0.930 . S
O955 Co944 2.093 . S
O955 C947 1.224 . S
H956 C988 0.929 . S
H957 C990 0.930 . S
H958 C991 0.930 . S
H959 C989 0.929 . S
H960 C992 0.928 . S
O961 Co945 2.057 . S
O961 C949 1.232 . S
H962 C981 0.929 . S
H963 C982 0.929 . S
H964 C994 0.931 . S
H965 C986 0.929 . S
H966 C995 0.930 . S
H967 C987 0.931 . S
O968 Co944 2.097 . S
O968 C996 1.214 . S
H969 C997 0.929 . S
H970 C998 0.929 . S
H971 C999 0.930 . S
H972 C1000 0.929 . S
H973 C1002 0.930 . S
H974 C979 0.930 . S
H975 C983 0.930 . S
O976 Co945 2.037 . S
O976 C996 1.234 . S
C977 O951 1.269 . S
C977 O952 1.257 . S
C978 H953 0.930 . S
C978 C981 1.388 . S
C978 C983 1.418 . S
C979 H974 0.930 . S
C979 C982 1.404 . S
C979 C983 1.353 . S
N980 Co945 2.145 . S
N980 C981 1.397 . S
N980 C982 1.334 . S
C981 H962 0.929 . S
C981 C978 1.388 . S
C981 N980 1.397 . S
C982 H963 0.929 . S
C982 C979 1.404 . S
C982 N980 1.334 . S
C983 H975 0.930 . S
C983 C978 1.418 . S
C983 C979 1.353 . S
C984 H954 0.930 . S
C984 N985 1.330 . S
C984 C986 1.446 . S
N985 Co944 2.151 . S
N985 C984 1.330 . S
N985 C989 1.418 . S
C986 H965 0.929 . S
C986 C984 1.446 . S
C986 C987 1.332 . S
C987 H967 0.931 . S
C987 C986 1.332 . S
C987 C988 1.267 . S
C988 H956 0.929 . S
C988 C987 1.267 . S
C988 C989 1.251 . S
C989 H959 0.929 . S
C989 N985 1.418 . S
C989 C988 1.251 . S
C990 H957 0.930 . S
C990 C992 1.406 . S
C990 C995 1.261 . S
C991 H958 0.930 . S
C991 N993 1.325 . S
C991 C994 1.357 . S
C992 H960 0.928 . S
C992 C990 1.406 . S
C992 N993 1.261 . S
N993 Co944 2.214 . S
N993 C991 1.325 . S
N993 C992 1.261 . S
C994 H964 0.931 . S
C994 C991 1.357 . S
C994 C995 1.312 . S
C995 H966 0.930 . S
C995 C990 1.261 . S
C995 C994 1.312 . S
C996 O968 1.214 . S
C996 O976 1.234 . S
C997 H969 0.929 . S
C997 C1000 1.391 . S
C997 C1002 1.391 . S
C998 H970 0.929 . S
C998 C999 1.390 . S
C998 N1001 1.391 . S
C999 H971 0.930 . S
C999 C998 1.390 . S
C999 C1000 1.392 . S
C1000 H972 0.929 . S
C1000 C997 1.391 . S
C1000 C999 1.392 . S
N1001 Co945 2.257 . S
N1001 C998 1.391 . S
N1001 C1002 1.388 . S
C1002 H973 0.930 . S
C1002 C997 1.391 . S
C1002 N1001 1.388 . S
Co1003 O1005 2.143 . S
Co1003 O1011 2.074 . S
Co1003 O1014 2.093 . S
Co1003 O1027 2.097 . S
Co1003 N1044 2.151 . S
Co1003 N1052 2.214 . S
Co1004 O1005 2.160 . S
Co1004 O1010 2.058 . S
Co1004 O1020 2.057 . S
Co1004 O1035 2.037 . S
Co1004 N1039 2.145 . S
Co1004 N1060 2.257 . S
O1005 Co1003 2.143 . S
O1005 Co1004 2.160 . S
C1006 O1007 1.278 . S
C1006 O1014 1.224 . S
O1007 C1006 1.278 . S
C1008 O1009 1.245 . S
C1008 O1020 1.232 . S
O1009 C1008 1.245 . S
O1010 Co1004 2.058 . S
O1010 C1036 1.269 . S
O1011 Co1003 2.074 . S
O1011 C1036 1.257 . S
H1012 C1037 0.930 . S
H1013 C1043 0.930 . S
O1014 Co1003 2.093 . S
O1014 C1006 1.224 . S
H1015 C1047 0.929 . S
H1016 C1049 0.930 . S
H1017 C1050 0.930 . S
H1018 C1048 0.929 . S
H1019 C1051 0.928 . S
O1020 Co1004 2.057 . S
O1020 C1008 1.232 . S
H1021 C1040 0.929 . S
H1022 C1041 0.929 . S
H1023 C1053 0.931 . S
H1024 C1045 0.929 . S
H1025 C1054 0.930 . S
H1026 C1046 0.931 . S
O1027 Co1003 2.097 . S
O1027 C1055 1.214 . S
H1028 C1056 0.929 . S
H1029 C1057 0.929 . S
H1030 C1058 0.930 . S
H1031 C1059 0.929 . S
H1032 C1061 0.930 . S
H1033 C1038 0.930 . S
H1034 C1042 0.930 . S
O1035 Co1004 2.037 . S
O1035 C1055 1.234 . S
C1036 O1010 1.269 . S
C1036 O1011 1.257 . S
C1037 H1012 0.930 . S
C1037 C1040 1.388 . S
C1037 C1042 1.418 . S
C1038 H1033 0.930 . S
C1038 C1041 1.404 . S
C1038 C1042 1.353 . S
N1039 Co1004 2.145 . S
N1039 C1040 1.397 . S
N1039 C1041 1.334 . S
C1040 H1021 0.929 . S
C1040 C1037 1.388 . S
C1040 N1039 1.397 . S
C1041 H1022 0.929 . S
C1041 C1038 1.404 . S
C1041 N1039 1.334 . S
C1042 H1034 0.930 . S
C1042 C1037 1.418 . S
C1042 C1038 1.353 . S
C1043 H1013 0.930 . S
C1043 N1044 1.330 . S
C1043 C1045 1.446 . S
N1044 Co1003 2.151 . S
N1044 C1043 1.330 . S
N1044 C1048 1.418 . S
C1045 H1024 0.929 . S
C1045 C1043 1.446 . S
C1045 C1046 1.332 . S
C1046 H1026 0.931 . S
C1046 C1045 1.332 . S
C1046 C1047 1.267 . S
C1047 H1015 0.929 . S
C1047 C1046 1.267 . S
C1047 C1048 1.251 . S
C1048 H1018 0.929 . S
C1048 N1044 1.418 . S
C1048 C1047 1.251 . S
C1049 H1016 0.930 . S
C1049 C1051 1.406 . S
C1049 C1054 1.261 . S
C1050 H1017 0.930 . S
C1050 N1052 1.325 . S
C1050 C1053 1.357 . S
C1051 H1019 0.928 . S
C1051 C1049 1.406 . S
C1051 N1052 1.261 . S
N1052 Co1003 2.214 . S
N1052 C1050 1.325 . S
N1052 C1051 1.261 . S
C1053 H1023 0.931 . S
C1053 C1050 1.357 . S
C1053 C1054 1.312 . S
C1054 H1025 0.930 . S
C1054 C1049 1.261 . S
C1054 C1053 1.312 . S
C1055 O1027 1.214 . S
C1055 O1035 1.234 . S
C1056 H1028 0.929 . S
C1056 C1059 1.391 . S
C1056 C1061 1.391 . S
C1057 H1029 0.929 . S
C1057 C1058 1.390 . S
C1057 N1060 1.391 . S
C1058 H1030 0.930 . S
C1058 C1057 1.390 . S
C1058 C1059 1.392 . S
C1059 H1031 0.929 . S
C1059 C1056 1.391 . S
C1059 C1058 1.392 . S
N1060 Co1004 2.257 . S
N1060 C1057 1.391 . S
N1060 C1061 1.388 . S
C1061 H1032 0.930 . S
C1061 C1056 1.391 . S
C1061 N1060 1.388 . S
Co1062 O1064 2.143 . S
Co1062 O1070 2.074 . S
Co1062 O1073 2.093 . S
Co1062 O1086 2.097 . S
Co1062 N1103 2.151 . S
Co1062 N1111 2.214 . S
Co1063 O1064 2.160 . S
Co1063 O1069 2.058 . S
Co1063 O1079 2.057 . S
Co1063 O1094 2.037 . S
Co1063 N1098 2.145 . S
Co1063 N1119 2.257 . S
O1064 Co1062 2.143 . S
O1064 Co1063 2.160 . S
C1065 O1066 1.278 . S
C1065 O1073 1.224 . S
O1066 C1065 1.278 . S
C1067 O1068 1.245 . S
C1067 O1079 1.232 . S
O1068 C1067 1.245 . S
O1069 Co1063 2.058 . S
O1069 C1095 1.269 . S
O1070 Co1062 2.074 . S
O1070 C1095 1.257 . S
H1071 C1096 0.930 . S
H1072 C1102 0.930 . S
O1073 Co1062 2.093 . S
O1073 C1065 1.224 . S
H1074 C1106 0.929 . S
H1075 C1108 0.930 . S
H1076 C1109 0.930 . S
H1077 C1107 0.929 . S
H1078 C1110 0.928 . S
O1079 Co1063 2.057 . S
O1079 C1067 1.232 . S
H1080 C1099 0.929 . S
H1081 C1100 0.929 . S
H1082 C1112 0.931 . S
H1083 C1104 0.929 . S
H1084 C1113 0.930 . S
H1085 C1105 0.931 . S
O1086 Co1062 2.097 . S
O1086 C1114 1.214 . S
H1087 C1115 0.929 . S
H1088 C1116 0.929 . S
H1089 C1117 0.930 . S
H1090 C1118 0.929 . S
H1091 C1120 0.930 . S
H1092 C1097 0.930 . S
H1093 C1101 0.930 . S
O1094 Co1063 2.037 . S
O1094 C1114 1.234 . S
C1095 O1069 1.269 . S
C1095 O1070 1.257 . S
C1096 H1071 0.930 . S
C1096 C1099 1.388 . S
C1096 C1101 1.418 . S
C1097 H1092 0.930 . S
C1097 C1100 1.404 . S
C1097 C1101 1.353 . S
N1098 Co1063 2.145 . S
N1098 C1099 1.397 . S
N1098 C1100 1.334 . S
C1099 H1080 0.929 . S
C1099 C1096 1.388 . S
C1099 N1098 1.397 . S
C1100 H1081 0.929 . S
C1100 C1097 1.404 . S
C1100 N1098 1.334 . S
C1101 H1093 0.930 . S
C1101 C1096 1.418 . S
C1101 C1097 1.353 . S
C1102 H1072 0.930 . S
C1102 N1103 1.330 . S
C1102 C1104 1.446 . S
N1103 Co1062 2.151 . S
N1103 C1102 1.330 . S
N1103 C1107 1.418 . S
C1104 H1083 0.929 . S
C1104 C1102 1.446 . S
C1104 C1105 1.332 . S
C1105 H1085 0.931 . S
C1105 C1104 1.332 . S
C1105 C1106 1.267 . S
C1106 H1074 0.929 . S
C1106 C1105 1.267 . S
C1106 C1107 1.251 . S
C1107 H1077 0.929 . S
C1107 N1103 1.418 . S
C1107 C1106 1.251 . S
C1108 H1075 0.930 . S
C1108 C1110 1.406 . S
C1108 C1113 1.261 . S
C1109 H1076 0.930 . S
C1109 N1111 1.325 . S
C1109 C1112 1.357 . S
C1110 H1078 0.928 . S
C1110 C1108 1.406 . S
C1110 N1111 1.261 . S
N1111 Co1062 2.214 . S
N1111 C1109 1.325 . S
N1111 C1110 1.261 . S
C1112 H1082 0.931 . S
C1112 C1109 1.357 . S
C1112 C1113 1.312 . S
C1113 H1084 0.930 . S
C1113 C1108 1.261 . S
C1113 C1112 1.312 . S
C1114 O1086 1.214 . S
C1114 O1094 1.234 . S
C1115 H1087 0.929 . S
C1115 C1118 1.391 . S
C1115 C1120 1.391 . S
C1116 H1088 0.929 . S
C1116 C1117 1.390 . S
C1116 N1119 1.391 . S
C1117 H1089 0.930 . S
C1117 C1116 1.390 . S
C1117 C1118 1.392 . S
C1118 H1090 0.929 . S
C1118 C1115 1.391 . S
C1118 C1117 1.392 . S
N1119 Co1063 2.257 . S
N1119 C1116 1.391 . S
N1119 C1120 1.388 . S
C1120 H1091 0.930 . S
C1120 C1115 1.391 . S
C1120 N1119 1.388 . S
Co1121 O1123 2.143 . S
Co1121 O1129 2.074 . S
Co1121 O1132 2.093 . S
Co1121 O1145 2.097 . S
Co1121 N1162 2.151 . S
Co1121 N1170 2.214 . S
Co1122 O1123 2.160 . S
Co1122 O1128 2.058 . S
Co1122 O1138 2.057 . S
Co1122 O1153 2.037 . S
Co1122 N1157 2.145 . S
Co1122 N1178 2.257 . S
O1123 Co1121 2.143 . S
O1123 Co1122 2.160 . S
C1124 O1125 1.278 . S
C1124 O1132 1.224 . S
O1125 C1124 1.278 . S
C1126 O1127 1.245 . S
C1126 O1138 1.232 . S
O1127 C1126 1.245 . S
O1128 Co1122 2.058 . S
O1128 C1154 1.269 . S
O1129 Co1121 2.074 . S
O1129 C1154 1.257 . S
H1130 C1155 0.930 . S
H1131 C1161 0.930 . S
O1132 Co1121 2.093 . S
O1132 C1124 1.224 . S
H1133 C1165 0.929 . S
H1134 C1167 0.930 . S
H1135 C1168 0.930 . S
H1136 C1166 0.929 . S
H1137 C1169 0.928 . S
O1138 Co1122 2.057 . S
O1138 C1126 1.232 . S
H1139 C1158 0.929 . S
H1140 C1159 0.929 . S
H1141 C1171 0.931 . S
H1142 C1163 0.929 . S
H1143 C1172 0.930 . S
H1144 C1164 0.931 . S
O1145 Co1121 2.097 . S
O1145 C1173 1.214 . S
H1146 C1174 0.929 . S
H1147 C1175 0.929 . S
H1148 C1176 0.930 . S
H1149 C1177 0.929 . S
H1150 C1179 0.930 . S
H1151 C1156 0.930 . S
H1152 C1160 0.930 . S
O1153 Co1122 2.037 . S
O1153 C1173 1.234 . S
C1154 O1128 1.269 . S
C1154 O1129 1.257 . S
C1155 H1130 0.930 . S
C1155 C1158 1.388 . S
C1155 C1160 1.418 . S
C1156 H1151 0.930 . S
C1156 C1159 1.404 . S
C1156 C1160 1.353 . S
N1157 Co1122 2.145 . S
N1157 C1158 1.397 . S
N1157 C1159 1.334 . S
C1158 H1139 0.929 . S
C1158 C1155 1.388 . S
C1158 N1157 1.397 . S
C1159 H1140 0.929 . S
C1159 C1156 1.404 . S
C1159 N1157 1.334 . S
C1160 H1152 0.930 . S
C1160 C1155 1.418 . S
C1160 C1156 1.353 . S
C1161 H1131 0.930 . S
C1161 N1162 1.330 . S
C1161 C1163 1.446 . S
N1162 Co1121 2.151 . S
N1162 C1161 1.330 . S
N1162 C1166 1.418 . S
C1163 H1142 0.929 . S
C1163 C1161 1.446 . S
C1163 C1164 1.332 . S
C1164 H1144 0.931 . S
C1164 C1163 1.332 . S
C1164 C1165 1.267 . S
C1165 H1133 0.929 . S
C1165 C1164 1.267 . S
C1165 C1166 1.251 . S
C1166 H1136 0.929 . S
C1166 N1162 1.418 . S
C1166 C1165 1.251 . S
C1167 H1134 0.930 . S
C1167 C1169 1.406 . S
C1167 C1172 1.261 . S
C1168 H1135 0.930 . S
C1168 N1170 1.325 . S
C1168 C1171 1.357 . S
C1169 H1137 0.928 . S
C1169 C1167 1.406 . S
C1169 N1170 1.261 . S
N1170 Co1121 2.214 . S
N1170 C1168 1.325 . S
N1170 C1169 1.261 . S
C1171 H1141 0.931 . S
C1171 C1168 1.357 . S
C1171 C1172 1.312 . S
C1172 H1143 0.930 . S
C1172 C1167 1.261 . S
C1172 C1171 1.312 . S
C1173 O1145 1.214 . S
C1173 O1153 1.234 . S
C1174 H1146 0.929 . S
C1174 C1177 1.391 . S
C1174 C1179 1.391 . S
C1175 H1147 0.929 . S
C1175 C1176 1.390 . S
C1175 N1178 1.391 . S
C1176 H1148 0.930 . S
C1176 C1175 1.390 . S
C1176 C1177 1.392 . S
C1177 H1149 0.929 . S
C1177 C1174 1.391 . S
C1177 C1176 1.392 . S
N1178 Co1122 2.257 . S
N1178 C1175 1.391 . S
N1178 C1179 1.388 . S
C1179 H1150 0.930 . S
C1179 C1174 1.391 . S
C1179 N1178 1.388 . S
Co1180 O1182 2.143 . S
Co1180 O1188 2.074 . S
Co1180 O1191 2.093 . S
Co1180 O1204 2.097 . S
Co1180 N1221 2.151 . S
Co1180 N1229 2.214 . S
Co1181 O1182 2.160 . S
Co1181 O1187 2.058 . S
Co1181 O1197 2.057 . S
Co1181 O1212 2.037 . S
Co1181 N1216 2.145 . S
Co1181 N1237 2.257 . S
O1182 Co1180 2.143 . S
O1182 Co1181 2.160 . S
C1183 O1184 1.278 . S
C1183 O1191 1.224 . S
O1184 C1183 1.278 . S
C1185 O1186 1.245 . S
C1185 O1197 1.232 . S
O1186 C1185 1.245 . S
O1187 Co1181 2.058 . S
O1187 C1213 1.269 . S
O1188 Co1180 2.074 . S
O1188 C1213 1.257 . S
H1189 C1214 0.930 . S
H1190 C1220 0.930 . S
O1191 Co1180 2.093 . S
O1191 C1183 1.224 . S
H1192 C1224 0.929 . S
H1193 C1226 0.930 . S
H1194 C1227 0.930 . S
H1195 C1225 0.929 . S
H1196 C1228 0.928 . S
O1197 Co1181 2.057 . S
O1197 C1185 1.232 . S
H1198 C1217 0.929 . S
H1199 C1218 0.929 . S
H1200 C1230 0.931 . S
H1201 C1222 0.929 . S
H1202 C1231 0.930 . S
H1203 C1223 0.931 . S
O1204 Co1180 2.097 . S
O1204 C1232 1.214 . S
H1205 C1233 0.929 . S
H1206 C1234 0.929 . S
H1207 C1235 0.930 . S
H1208 C1236 0.929 . S
H1209 C1238 0.930 . S
H1210 C1215 0.930 . S
H1211 C1219 0.930 . S
O1212 Co1181 2.037 . S
O1212 C1232 1.234 . S
C1213 O1187 1.269 . S
C1213 O1188 1.257 . S
C1214 H1189 0.930 . S
C1214 C1217 1.388 . S
C1214 C1219 1.418 . S
C1215 H1210 0.930 . S
C1215 C1218 1.404 . S
C1215 C1219 1.353 . S
N1216 Co1181 2.145 . S
N1216 C1217 1.397 . S
N1216 C1218 1.334 . S
C1217 H1198 0.929 . S
C1217 C1214 1.388 . S
C1217 N1216 1.397 . S
C1218 H1199 0.929 . S
C1218 C1215 1.404 . S
C1218 N1216 1.334 . S
C1219 H1211 0.930 . S
C1219 C1214 1.418 . S
C1219 C1215 1.353 . S
C1220 H1190 0.930 . S
C1220 N1221 1.330 . S
C1220 C1222 1.446 . S
N1221 Co1180 2.151 . S
N1221 C1220 1.330 . S
N1221 C1225 1.418 . S
C1222 H1201 0.929 . S
C1222 C1220 1.446 . S
C1222 C1223 1.332 . S
C1223 H1203 0.931 . S
C1223 C1222 1.332 . S
C1223 C1224 1.267 . S
C1224 H1192 0.929 . S
C1224 C1223 1.267 . S
C1224 C1225 1.251 . S
C1225 H1195 0.929 . S
C1225 N1221 1.418 . S
C1225 C1224 1.251 . S
C1226 H1193 0.930 . S
C1226 C1228 1.406 . S
C1226 C1231 1.261 . S
C1227 H1194 0.930 . S
C1227 N1229 1.325 . S
C1227 C1230 1.357 . S
C1228 H1196 0.928 . S
C1228 C1226 1.406 . S
C1228 N1229 1.261 . S
N1229 Co1180 2.214 . S
N1229 C1227 1.325 . S
N1229 C1228 1.261 . S
C1230 H1200 0.931 . S
C1230 C1227 1.357 . S
C1230 C1231 1.312 . S
C1231 H1202 0.930 . S
C1231 C1226 1.261 . S
C1231 C1230 1.312 . S
C1232 O1204 1.214 . S
C1232 O1212 1.234 . S
C1233 H1205 0.929 . S
C1233 C1236 1.391 . S
C1233 C1238 1.391 . S
C1234 H1206 0.929 . S
C1234 C1235 1.390 . S
C1234 N1237 1.391 . S
C1235 H1207 0.930 . S
C1235 C1234 1.390 . S
C1235 C1236 1.392 . S
C1236 H1208 0.929 . S
C1236 C1233 1.391 . S
C1236 C1235 1.392 . S
N1237 Co1181 2.257 . S
N1237 C1234 1.391 . S
N1237 C1238 1.388 . S
C1238 H1209 0.930 . S
C1238 C1233 1.391 . S
C1238 N1237 1.388 . S
Co1239 O1241 2.143 . S
Co1239 O1247 2.074 . S
Co1239 O1250 2.093 . S
Co1239 O1263 2.097 . S
Co1239 N1280 2.151 . S
Co1239 N1288 2.214 . S
Co1240 O1241 2.160 . S
Co1240 O1246 2.058 . S
Co1240 O1256 2.057 . S
Co1240 O1271 2.037 . S
Co1240 N1275 2.145 . S
Co1240 N1296 2.257 . S
O1241 Co1239 2.143 . S
O1241 Co1240 2.160 . S
C1242 O1243 1.278 . S
C1242 O1250 1.224 . S
O1243 C1242 1.278 . S
C1244 O1245 1.245 . S
C1244 O1256 1.232 . S
O1245 C1244 1.245 . S
O1246 Co1240 2.058 . S
O1246 C1272 1.269 . S
O1247 Co1239 2.074 . S
O1247 C1272 1.257 . S
H1248 C1273 0.930 . S
H1249 C1279 0.930 . S
O1250 Co1239 2.093 . S
O1250 C1242 1.224 . S
H1251 C1283 0.929 . S
H1252 C1285 0.930 . S
H1253 C1286 0.930 . S
H1254 C1284 0.929 . S
H1255 C1287 0.928 . S
O1256 Co1240 2.057 . S
O1256 C1244 1.232 . S
H1257 C1276 0.929 . S
H1258 C1277 0.929 . S
H1259 C1289 0.931 . S
H1260 C1281 0.929 . S
H1261 C1290 0.930 . S
H1262 C1282 0.931 . S
O1263 Co1239 2.097 . S
O1263 C1291 1.214 . S
H1264 C1292 0.929 . S
H1265 C1293 0.929 . S
H1266 C1294 0.930 . S
H1267 C1295 0.929 . S
H1268 C1297 0.930 . S
H1269 C1274 0.930 . S
H1270 C1278 0.930 . S
O1271 Co1240 2.037 . S
O1271 C1291 1.234 . S
C1272 O1246 1.269 . S
C1272 O1247 1.257 . S
C1273 H1248 0.930 . S
C1273 C1276 1.388 . S
C1273 C1278 1.418 . S
C1274 H1269 0.930 . S
C1274 C1277 1.404 . S
C1274 C1278 1.353 . S
N1275 Co1240 2.145 . S
N1275 C1276 1.397 . S
N1275 C1277 1.334 . S
C1276 H1257 0.929 . S
C1276 C1273 1.388 . S
C1276 N1275 1.397 . S
C1277 H1258 0.929 . S
C1277 C1274 1.404 . S
C1277 N1275 1.334 . S
C1278 H1270 0.930 . S
C1278 C1273 1.418 . S
C1278 C1274 1.353 . S
C1279 H1249 0.930 . S
C1279 N1280 1.330 . S
C1279 C1281 1.446 . S
N1280 Co1239 2.151 . S
N1280 C1279 1.330 . S
N1280 C1284 1.418 . S
C1281 H1260 0.929 . S
C1281 C1279 1.446 . S
C1281 C1282 1.332 . S
C1282 H1262 0.931 . S
C1282 C1281 1.332 . S
C1282 C1283 1.267 . S
C1283 H1251 0.929 . S
C1283 C1282 1.267 . S
C1283 C1284 1.251 . S
C1284 H1254 0.929 . S
C1284 N1280 1.418 . S
C1284 C1283 1.251 . S
C1285 H1252 0.930 . S
C1285 C1287 1.406 . S
C1285 C1290 1.261 . S
C1286 H1253 0.930 . S
C1286 N1288 1.325 . S
C1286 C1289 1.357 . S
C1287 H1255 0.928 . S
C1287 C1285 1.406 . S
C1287 N1288 1.261 . S
N1288 Co1239 2.214 . S
N1288 C1286 1.325 . S
N1288 C1287 1.261 . S
C1289 H1259 0.931 . S
C1289 C1286 1.357 . S
C1289 C1290 1.312 . S
C1290 H1261 0.930 . S
C1290 C1285 1.261 . S
C1290 C1289 1.312 . S
C1291 O1263 1.214 . S
C1291 O1271 1.234 . S
C1292 H1264 0.929 . S
C1292 C1295 1.391 . S
C1292 C1297 1.391 . S
C1293 H1265 0.929 . S
C1293 C1294 1.390 . S
C1293 N1296 1.391 . S
C1294 H1266 0.930 . S
C1294 C1293 1.390 . S
C1294 C1295 1.392 . S
C1295 H1267 0.929 . S
C1295 C1292 1.391 . S
C1295 C1294 1.392 . S
N1296 Co1240 2.257 . S
N1296 C1293 1.391 . S
N1296 C1297 1.388 . S
C1297 H1268 0.930 . S
C1297 C1292 1.391 . S
C1297 N1296 1.388 . S
Co1298 O1300 2.143 . S
Co1298 O1306 2.074 . S
Co1298 O1309 2.093 . S
Co1298 O1322 2.097 . S
Co1298 N1339 2.151 . S
Co1298 N1347 2.214 . S
Co1299 O1300 2.160 . S
Co1299 O1305 2.058 . S
Co1299 O1315 2.057 . S
Co1299 O1330 2.037 . S
Co1299 N1334 2.145 . S
Co1299 N1355 2.257 . S
O1300 Co1298 2.143 . S
O1300 Co1299 2.160 . S
C1301 O1302 1.278 . S
C1301 O1309 1.224 . S
O1302 C1301 1.278 . S
C1303 O1304 1.245 . S
C1303 O1315 1.232 . S
O1304 C1303 1.245 . S
O1305 Co1299 2.058 . S
O1305 C1331 1.269 . S
O1306 Co1298 2.074 . S
O1306 C1331 1.257 . S
H1307 C1332 0.930 . S
H1308 C1338 0.930 . S
O1309 Co1298 2.093 . S
O1309 C1301 1.224 . S
H1310 C1342 0.929 . S
H1311 C1344 0.930 . S
H1312 C1345 0.930 . S
H1313 C1343 0.929 . S
H1314 C1346 0.928 . S
O1315 Co1299 2.057 . S
O1315 C1303 1.232 . S
H1316 C1335 0.929 . S
H1317 C1336 0.929 . S
H1318 C1348 0.931 . S
H1319 C1340 0.929 . S
H1320 C1349 0.930 . S
H1321 C1341 0.931 . S
O1322 Co1298 2.097 . S
O1322 C1350 1.214 . S
H1323 C1351 0.929 . S
H1324 C1352 0.929 . S
H1325 C1353 0.930 . S
H1326 C1354 0.929 . S
H1327 C1356 0.930 . S
H1328 C1333 0.930 . S
H1329 C1337 0.930 . S
O1330 Co1299 2.037 . S
O1330 C1350 1.234 . S
C1331 O1305 1.269 . S
C1331 O1306 1.257 . S
C1332 H1307 0.930 . S
C1332 C1335 1.388 . S
C1332 C1337 1.418 . S
C1333 H1328 0.930 . S
C1333 C1336 1.404 . S
C1333 C1337 1.353 . S
N1334 Co1299 2.145 . S
N1334 C1335 1.397 . S
N1334 C1336 1.334 . S
C1335 H1316 0.929 . S
C1335 C1332 1.388 . S
C1335 N1334 1.397 . S
C1336 H1317 0.929 . S
C1336 C1333 1.404 . S
C1336 N1334 1.334 . S
C1337 H1329 0.930 . S
C1337 C1332 1.418 . S
C1337 C1333 1.353 . S
C1338 H1308 0.930 . S
C1338 N1339 1.330 . S
C1338 C1340 1.446 . S
N1339 Co1298 2.151 . S
N1339 C1338 1.330 . S
N1339 C1343 1.418 . S
C1340 H1319 0.929 . S
C1340 C1338 1.446 . S
C1340 C1341 1.332 . S
C1341 H1321 0.931 . S
C1341 C1340 1.332 . S
C1341 C1342 1.267 . S
C1342 H1310 0.929 . S
C1342 C1341 1.267 . S
C1342 C1343 1.251 . S
C1343 H1313 0.929 . S
C1343 N1339 1.418 . S
C1343 C1342 1.251 . S
C1344 H1311 0.930 . S
C1344 C1346 1.406 . S
C1344 C1349 1.261 . S
C1345 H1312 0.930 . S
C1345 N1347 1.325 . S
C1345 C1348 1.357 . S
C1346 H1314 0.928 . S
C1346 C1344 1.406 . S
C1346 N1347 1.261 . S
N1347 Co1298 2.214 . S
N1347 C1345 1.325 . S
N1347 C1346 1.261 . S
C1348 H1318 0.931 . S
C1348 C1345 1.357 . S
C1348 C1349 1.312 . S
C1349 H1320 0.930 . S
C1349 C1344 1.261 . S
C1349 C1348 1.312 . S
C1350 O1322 1.214 . S
C1350 O1330 1.234 . S
C1351 H1323 0.929 . S
C1351 C1354 1.391 . S
C1351 C1356 1.391 . S
C1352 H1324 0.929 . S
C1352 C1353 1.390 . S
C1352 N1355 1.391 . S
C1353 H1325 0.930 . S
C1353 C1352 1.390 . S
C1353 C1354 1.392 . S
C1354 H1326 0.929 . S
C1354 C1351 1.391 . S
C1354 C1353 1.392 . S
N1355 Co1299 2.257 . S
N1355 C1352 1.391 . S
N1355 C1356 1.388 . S
C1356 H1327 0.930 . S
C1356 C1351 1.391 . S
C1356 N1355 1.388 . S
Co1357 O1359 2.143 . S
Co1357 O1365 2.074 . S
Co1357 O1368 2.093 . S
Co1357 O1381 2.097 . S
Co1357 N1398 2.151 . S
Co1357 N1406 2.214 . S
Co1358 O1359 2.160 . S
Co1358 O1364 2.058 . S
Co1358 O1374 2.057 . S
Co1358 O1389 2.037 . S
Co1358 N1393 2.145 . S
Co1358 N1414 2.257 . S
O1359 Co1357 2.143 . S
O1359 Co1358 2.160 . S
C1360 O1361 1.278 . S
C1360 O1368 1.224 . S
O1361 C1360 1.278 . S
C1362 O1363 1.245 . S
C1362 O1374 1.232 . S
O1363 C1362 1.245 . S
O1364 Co1358 2.058 . S
O1364 C1390 1.269 . S
O1365 Co1357 2.074 . S
O1365 C1390 1.257 . S
H1366 C1391 0.930 . S
H1367 C1397 0.930 . S
O1368 Co1357 2.093 . S
O1368 C1360 1.224 . S
H1369 C1401 0.929 . S
H1370 C1403 0.930 . S
H1371 C1404 0.930 . S
H1372 C1402 0.929 . S
H1373 C1405 0.928 . S
O1374 Co1358 2.057 . S
O1374 C1362 1.232 . S
H1375 C1394 0.929 . S
H1376 C1395 0.929 . S
H1377 C1407 0.931 . S
H1378 C1399 0.929 . S
H1379 C1408 0.930 . S
H1380 C1400 0.931 . S
O1381 Co1357 2.097 . S
O1381 C1409 1.214 . S
H1382 C1410 0.929 . S
H1383 C1411 0.929 . S
H1384 C1412 0.930 . S
H1385 C1413 0.929 . S
H1386 C1415 0.930 . S
H1387 C1392 0.930 . S
H1388 C1396 0.930 . S
O1389 Co1358 2.037 . S
O1389 C1409 1.234 . S
C1390 O1364 1.269 . S
C1390 O1365 1.257 . S
C1391 H1366 0.930 . S
C1391 C1394 1.388 . S
C1391 C1396 1.418 . S
C1392 H1387 0.930 . S
C1392 C1395 1.404 . S
C1392 C1396 1.353 . S
N1393 Co1358 2.145 . S
N1393 C1394 1.397 . S
N1393 C1395 1.334 . S
C1394 H1375 0.929 . S
C1394 C1391 1.388 . S
C1394 N1393 1.397 . S
C1395 H1376 0.929 . S
C1395 C1392 1.404 . S
C1395 N1393 1.334 . S
C1396 H1388 0.930 . S
C1396 C1391 1.418 . S
C1396 C1392 1.353 . S
C1397 H1367 0.930 . S
C1397 N1398 1.330 . S
C1397 C1399 1.446 . S
N1398 Co1357 2.151 . S
N1398 C1397 1.330 . S
N1398 C1402 1.418 . S
C1399 H1378 0.929 . S
C1399 C1397 1.446 . S
C1399 C1400 1.332 . S
C1400 H1380 0.931 . S
C1400 C1399 1.332 . S
C1400 C1401 1.267 . S
C1401 H1369 0.929 . S
C1401 C1400 1.267 . S
C1401 C1402 1.251 . S
C1402 H1372 0.929 . S
C1402 N1398 1.418 . S
C1402 C1401 1.251 . S
C1403 H1370 0.930 . S
C1403 C1405 1.406 . S
C1403 C1408 1.261 . S
C1404 H1371 0.930 . S
C1404 N1406 1.325 . S
C1404 C1407 1.357 . S
C1405 H1373 0.928 . S
C1405 C1403 1.406 . S
C1405 N1406 1.261 . S
N1406 Co1357 2.214 . S
N1406 C1404 1.325 . S
N1406 C1405 1.261 . S
C1407 H1377 0.931 . S
C1407 C1404 1.357 . S
C1407 C1408 1.312 . S
C1408 H1379 0.930 . S
C1408 C1403 1.261 . S
C1408 C1407 1.312 . S
C1409 O1381 1.214 . S
C1409 O1389 1.234 . S
C1410 H1382 0.929 . S
C1410 C1413 1.391 . S
C1410 C1415 1.391 . S
C1411 H1383 0.929 . S
C1411 C1412 1.390 . S
C1411 N1414 1.391 . S
C1412 H1384 0.930 . S
C1412 C1411 1.390 . S
C1412 C1413 1.392 . S
C1413 H1385 0.929 . S
C1413 C1410 1.391 . S
C1413 C1412 1.392 . S
N1414 Co1358 2.257 . S
N1414 C1411 1.391 . S
N1414 C1415 1.388 . S
C1415 H1386 0.930 . S
C1415 C1410 1.391 . S
C1415 N1414 1.388 . S
Co1416 O1418 2.143 . S
Co1416 O1424 2.074 . S
Co1416 O1427 2.093 . S
Co1416 O1440 2.097 . S
Co1416 N1457 2.151 . S
Co1416 N1465 2.214 . S
Co1417 O1418 2.160 . S
Co1417 O1423 2.058 . S
Co1417 O1433 2.057 . S
Co1417 O1448 2.037 . S
Co1417 N1452 2.145 . S
Co1417 N1473 2.257 . S
O1418 Co1416 2.143 . S
O1418 Co1417 2.160 . S
C1419 O1420 1.278 . S
C1419 O1427 1.224 . S
O1420 C1419 1.278 . S
C1421 O1422 1.245 . S
C1421 O1433 1.232 . S
O1422 C1421 1.245 . S
O1423 Co1417 2.058 . S
O1423 C1449 1.269 . S
O1424 Co1416 2.074 . S
O1424 C1449 1.257 . S
H1425 C1450 0.930 . S
H1426 C1456 0.930 . S
O1427 Co1416 2.093 . S
O1427 C1419 1.224 . S
H1428 C1460 0.929 . S
H1429 C1462 0.930 . S
H1430 C1463 0.930 . S
H1431 C1461 0.929 . S
H1432 C1464 0.928 . S
O1433 Co1417 2.057 . S
O1433 C1421 1.232 . S
H1434 C1453 0.929 . S
H1435 C1454 0.929 . S
H1436 C1466 0.931 . S
H1437 C1458 0.929 . S
H1438 C1467 0.930 . S
H1439 C1459 0.931 . S
O1440 Co1416 2.097 . S
O1440 C1468 1.214 . S
H1441 C1469 0.929 . S
H1442 C1470 0.929 . S
H1443 C1471 0.930 . S
H1444 C1472 0.929 . S
H1445 C1474 0.930 . S
H1446 C1451 0.930 . S
H1447 C1455 0.930 . S
O1448 Co1417 2.037 . S
O1448 C1468 1.234 . S
C1449 O1423 1.269 . S
C1449 O1424 1.257 . S
C1450 H1425 0.930 . S
C1450 C1453 1.388 . S
C1450 C1455 1.418 . S
C1451 H1446 0.930 . S
C1451 C1454 1.404 . S
C1451 C1455 1.353 . S
N1452 Co1417 2.145 . S
N1452 C1453 1.397 . S
N1452 C1454 1.334 . S
C1453 H1434 0.929 . S
C1453 C1450 1.388 . S
C1453 N1452 1.397 . S
C1454 H1435 0.929 . S
C1454 C1451 1.404 . S
C1454 N1452 1.334 . S
C1455 H1447 0.930 . S
C1455 C1450 1.418 . S
C1455 C1451 1.353 . S
C1456 H1426 0.930 . S
C1456 N1457 1.330 . S
C1456 C1458 1.446 . S
N1457 Co1416 2.151 . S
N1457 C1456 1.330 . S
N1457 C1461 1.418 . S
C1458 H1437 0.929 . S
C1458 C1456 1.446 . S
C1458 C1459 1.332 . S
C1459 H1439 0.931 . S
C1459 C1458 1.332 . S
C1459 C1460 1.267 . S
C1460 H1428 0.929 . S
C1460 C1459 1.267 . S
C1460 C1461 1.251 . S
C1461 H1431 0.929 . S
C1461 N1457 1.418 . S
C1461 C1460 1.251 . S
C1462 H1429 0.930 . S
C1462 C1464 1.406 . S
C1462 C1467 1.261 . S
C1463 H1430 0.930 . S
C1463 N1465 1.325 . S
C1463 C1466 1.357 . S
C1464 H1432 0.928 . S
C1464 C1462 1.406 . S
C1464 N1465 1.261 . S
N1465 Co1416 2.214 . S
N1465 C1463 1.325 . S
N1465 C1464 1.261 . S
C1466 H1436 0.931 . S
C1466 C1463 1.357 . S
C1466 C1467 1.312 . S
C1467 H1438 0.930 . S
C1467 C1462 1.261 . S
C1467 C1466 1.312 . S
C1468 O1440 1.214 . S
C1468 O1448 1.234 . S
C1469 H1441 0.929 . S
C1469 C1472 1.391 . S
C1469 C1474 1.391 . S
C1470 H1442 0.929 . S
C1470 C1471 1.390 . S
C1470 N1473 1.391 . S
C1471 H1443 0.930 . S
C1471 C1470 1.390 . S
C1471 C1472 1.392 . S
C1472 H1444 0.929 . S
C1472 C1469 1.391 . S
C1472 C1471 1.392 . S
N1473 Co1417 2.257 . S
N1473 C1470 1.391 . S
N1473 C1474 1.388 . S
C1474 H1445 0.930 . S
C1474 C1469 1.391 . S
C1474 N1473 1.388 . S
Co1475 O1477 2.143 . S
Co1475 O1483 2.074 . S
Co1475 O1486 2.093 . S
Co1475 O1499 2.097 . S
Co1475 N1516 2.151 . S
Co1475 N1524 2.214 . S
Co1476 O1477 2.160 . S
Co1476 O1482 2.058 . S
Co1476 O1492 2.057 . S
Co1476 O1507 2.037 . S
Co1476 N1511 2.145 . S
Co1476 N1532 2.257 . S
O1477 Co1475 2.143 . S
O1477 Co1476 2.160 . S
C1478 O1479 1.278 . S
C1478 O1486 1.224 . S
O1479 C1478 1.278 . S
C1480 O1481 1.245 . S
C1480 O1492 1.232 . S
O1481 C1480 1.245 . S
O1482 Co1476 2.058 . S
O1482 C1508 1.269 . S
O1483 Co1475 2.074 . S
O1483 C1508 1.257 . S
H1484 C1509 0.930 . S
H1485 C1515 0.930 . S
O1486 Co1475 2.093 . S
O1486 C1478 1.224 . S
H1487 C1519 0.929 . S
H1488 C1521 0.930 . S
H1489 C1522 0.930 . S
H1490 C1520 0.929 . S
H1491 C1523 0.928 . S
O1492 Co1476 2.057 . S
O1492 C1480 1.232 . S
H1493 C1512 0.929 . S
H1494 C1513 0.929 . S
H1495 C1525 0.931 . S
H1496 C1517 0.929 . S
H1497 C1526 0.930 . S
H1498 C1518 0.931 . S
O1499 Co1475 2.097 . S
O1499 C1527 1.214 . S
H1500 C1528 0.929 . S
H1501 C1529 0.929 . S
H1502 C1530 0.930 . S
H1503 C1531 0.929 . S
H1504 C1533 0.930 . S
H1505 C1510 0.930 . S
H1506 C1514 0.930 . S
O1507 Co1476 2.037 . S
O1507 C1527 1.234 . S
C1508 O1482 1.269 . S
C1508 O1483 1.257 . S
C1509 H1484 0.930 . S
C1509 C1512 1.388 . S
C1509 C1514 1.418 . S
C1510 H1505 0.930 . S
C1510 C1513 1.404 . S
C1510 C1514 1.353 . S
N1511 Co1476 2.145 . S
N1511 C1512 1.397 . S
N1511 C1513 1.334 . S
C1512 H1493 0.929 . S
C1512 C1509 1.388 . S
C1512 N1511 1.397 . S
C1513 H1494 0.929 . S
C1513 C1510 1.404 . S
C1513 N1511 1.334 . S
C1514 H1506 0.930 . S
C1514 C1509 1.418 . S
C1514 C1510 1.353 . S
C1515 H1485 0.930 . S
C1515 N1516 1.330 . S
C1515 C1517 1.446 . S
N1516 Co1475 2.151 . S
N1516 C1515 1.330 . S
N1516 C1520 1.418 . S
C1517 H1496 0.929 . S
C1517 C1515 1.446 . S
C1517 C1518 1.332 . S
C1518 H1498 0.931 . S
C1518 C1517 1.332 . S
C1518 C1519 1.267 . S
C1519 H1487 0.929 . S
C1519 C1518 1.267 . S
C1519 C1520 1.251 . S
C1520 H1490 0.929 . S
C1520 N1516 1.418 . S
C1520 C1519 1.251 . S
C1521 H1488 0.930 . S
C1521 C1523 1.406 . S
C1521 C1526 1.261 . S
C1522 H1489 0.930 . S
C1522 N1524 1.325 . S
C1522 C1525 1.357 . S
C1523 H1491 0.928 . S
C1523 C1521 1.406 . S
C1523 N1524 1.261 . S
N1524 Co1475 2.214 . S
N1524 C1522 1.325 . S
N1524 C1523 1.261 . S
C1525 H1495 0.931 . S
C1525 C1522 1.357 . S
C1525 C1526 1.312 . S
C1526 H1497 0.930 . S
C1526 C1521 1.261 . S
C1526 C1525 1.312 . S
C1527 O1499 1.214 . S
C1527 O1507 1.234 . S
C1528 H1500 0.929 . S
C1528 C1531 1.391 . S
C1528 C1533 1.391 . S
C1529 H1501 0.929 . S
C1529 C1530 1.390 . S
C1529 N1532 1.391 . S
C1530 H1502 0.930 . S
C1530 C1529 1.390 . S
C1530 C1531 1.392 . S
C1531 H1503 0.929 . S
C1531 C1528 1.391 . S
C1531 C1530 1.392 . S
N1532 Co1476 2.257 . S
N1532 C1529 1.391 . S
N1532 C1533 1.388 . S
C1533 H1504 0.930 . S
C1533 C1528 1.391 . S
C1533 N1532 1.388 . S
Co1534 O1536 2.143 . S
Co1534 O1542 2.074 . S
Co1534 O1545 2.093 . S
Co1534 O1558 2.097 . S
Co1534 N1575 2.151 . S
Co1534 N1583 2.214 . S
Co1535 O1536 2.160 . S
Co1535 O1541 2.058 . S
Co1535 O1551 2.057 . S
Co1535 O1566 2.037 . S
Co1535 N1570 2.145 . S
Co1535 N1591 2.257 . S
O1536 Co1534 2.143 . S
O1536 Co1535 2.160 . S
C1537 O1538 1.278 . S
C1537 O1545 1.224 . S
O1538 C1537 1.278 . S
C1539 O1540 1.245 . S
C1539 O1551 1.232 . S
O1540 C1539 1.245 . S
O1541 Co1535 2.058 . S
O1541 C1567 1.269 . S
O1542 Co1534 2.074 . S
O1542 C1567 1.257 . S
H1543 C1568 0.930 . S
H1544 C1574 0.930 . S
O1545 Co1534 2.093 . S
O1545 C1537 1.224 . S
H1546 C1578 0.929 . S
H1547 C1580 0.930 . S
H1548 C1581 0.930 . S
H1549 C1579 0.929 . S
H1550 C1582 0.928 . S
O1551 Co1535 2.057 . S
O1551 C1539 1.232 . S
H1552 C1571 0.929 . S
H1553 C1572 0.929 . S
H1554 C1584 0.931 . S
H1555 C1576 0.929 . S
H1556 C1585 0.930 . S
H1557 C1577 0.931 . S
O1558 Co1534 2.097 . S
O1558 C1586 1.214 . S
H1559 C1587 0.929 . S
H1560 C1588 0.929 . S
H1561 C1589 0.930 . S
H1562 C1590 0.929 . S
H1563 C1592 0.930 . S
H1564 C1569 0.930 . S
H1565 C1573 0.930 . S
O1566 Co1535 2.037 . S
O1566 C1586 1.234 . S
C1567 O1541 1.269 . S
C1567 O1542 1.257 . S
C1568 H1543 0.930 . S
C1568 C1571 1.388 . S
C1568 C1573 1.418 . S
C1569 H1564 0.930 . S
C1569 C1572 1.404 . S
C1569 C1573 1.353 . S
N1570 Co1535 2.145 . S
N1570 C1571 1.397 . S
N1570 C1572 1.334 . S
C1571 H1552 0.929 . S
C1571 C1568 1.388 . S
C1571 N1570 1.397 . S
C1572 H1553 0.929 . S
C1572 C1569 1.404 . S
C1572 N1570 1.334 . S
C1573 H1565 0.930 . S
C1573 C1568 1.418 . S
C1573 C1569 1.353 . S
C1574 H1544 0.930 . S
C1574 N1575 1.330 . S
C1574 C1576 1.446 . S
N1575 Co1534 2.151 . S
N1575 C1574 1.330 . S
N1575 C1579 1.418 . S
C1576 H1555 0.929 . S
C1576 C1574 1.446 . S
C1576 C1577 1.332 . S
C1577 H1557 0.931 . S
C1577 C1576 1.332 . S
C1577 C1578 1.267 . S
C1578 H1546 0.929 . S
C1578 C1577 1.267 . S
C1578 C1579 1.251 . S
C1579 H1549 0.929 . S
C1579 N1575 1.418 . S
C1579 C1578 1.251 . S
C1580 H1547 0.930 . S
C1580 C1582 1.406 . S
C1580 C1585 1.261 . S
C1581 H1548 0.930 . S
C1581 N1583 1.325 . S
C1581 C1584 1.357 . S
C1582 H1550 0.928 . S
C1582 C1580 1.406 . S
C1582 N1583 1.261 . S
N1583 Co1534 2.214 . S
N1583 C1581 1.325 . S
N1583 C1582 1.261 . S
C1584 H1554 0.931 . S
C1584 C1581 1.357 . S
C1584 C1585 1.312 . S
C1585 H1556 0.930 . S
C1585 C1580 1.261 . S
C1585 C1584 1.312 . S
C1586 O1558 1.214 . S
C1586 O1566 1.234 . S
C1587 H1559 0.929 . S
C1587 C1590 1.391 . S
C1587 C1592 1.391 . S
C1588 H1560 0.929 . S
C1588 C1589 1.390 . S
C1588 N1591 1.391 . S
C1589 H1561 0.930 . S
C1589 C1588 1.390 . S
C1589 C1590 1.392 . S
C1590 H1562 0.929 . S
C1590 C1587 1.391 . S
C1590 C1589 1.392 . S
N1591 Co1535 2.257 . S
N1591 C1588 1.391 . S
N1591 C1592 1.388 . S
C1592 H1563 0.930 . S
C1592 C1587 1.391 . S
C1592 N1591 1.388 . S
Co1593 O1595 2.143 . S
Co1593 O1601 2.074 . S
Co1593 O1604 2.093 . S
Co1593 O1617 2.097 . S
Co1593 N1634 2.151 . S
Co1593 N1642 2.214 . S
Co1594 O1595 2.160 . S
Co1594 O1600 2.058 . S
Co1594 O1610 2.057 . S
Co1594 O1625 2.037 . S
Co1594 N1629 2.145 . S
Co1594 N1650 2.257 . S
O1595 Co1593 2.143 . S
O1595 Co1594 2.160 . S
C1596 O1597 1.278 . S
C1596 O1604 1.224 . S
O1597 C1596 1.278 . S
C1598 O1599 1.245 . S
C1598 O1610 1.232 . S
O1599 C1598 1.245 . S
O1600 Co1594 2.058 . S
O1600 C1626 1.269 . S
O1601 Co1593 2.074 . S
O1601 C1626 1.257 . S
H1602 C1627 0.930 . S
H1603 C1633 0.930 . S
O1604 Co1593 2.093 . S
O1604 C1596 1.224 . S
H1605 C1637 0.929 . S
H1606 C1639 0.930 . S
H1607 C1640 0.930 . S
H1608 C1638 0.929 . S
H1609 C1641 0.928 . S
O1610 Co1594 2.057 . S
O1610 C1598 1.232 . S
H1611 C1630 0.929 . S
H1612 C1631 0.929 . S
H1613 C1643 0.931 . S
H1614 C1635 0.929 . S
H1615 C1644 0.930 . S
H1616 C1636 0.931 . S
O1617 Co1593 2.097 . S
O1617 C1645 1.214 . S
H1618 C1646 0.929 . S
H1619 C1647 0.929 . S
H1620 C1648 0.930 . S
H1621 C1649 0.929 . S
H1622 C1651 0.930 . S
H1623 C1628 0.930 . S
H1624 C1632 0.930 . S
O1625 Co1594 2.037 . S
O1625 C1645 1.234 . S
C1626 O1600 1.269 . S
C1626 O1601 1.257 . S
C1627 H1602 0.930 . S
C1627 C1630 1.388 . S
C1627 C1632 1.418 . S
C1628 H1623 0.930 . S
C1628 C1631 1.404 . S
C1628 C1632 1.353 . S
N1629 Co1594 2.145 . S
N1629 C1630 1.397 . S
N1629 C1631 1.334 . S
C1630 H1611 0.929 . S
C1630 C1627 1.388 . S
C1630 N1629 1.397 . S
C1631 H1612 0.929 . S
C1631 C1628 1.404 . S
C1631 N1629 1.334 . S
C1632 H1624 0.930 . S
C1632 C1627 1.418 . S
C1632 C1628 1.353 . S
C1633 H1603 0.930 . S
C1633 N1634 1.330 . S
C1633 C1635 1.446 . S
N1634 Co1593 2.151 . S
N1634 C1633 1.330 . S
N1634 C1638 1.418 . S
C1635 H1614 0.929 . S
C1635 C1633 1.446 . S
C1635 C1636 1.332 . S
C1636 H1616 0.931 . S
C1636 C1635 1.332 . S
C1636 C1637 1.267 . S
C1637 H1605 0.929 . S
C1637 C1636 1.267 . S
C1637 C1638 1.251 . S
C1638 H1608 0.929 . S
C1638 N1634 1.418 . S
C1638 C1637 1.251 . S
C1639 H1606 0.930 . S
C1639 C1641 1.406 . S
C1639 C1644 1.261 . S
C1640 H1607 0.930 . S
C1640 N1642 1.325 . S
C1640 C1643 1.357 . S
C1641 H1609 0.928 . S
C1641 C1639 1.406 . S
C1641 N1642 1.261 . S
N1642 Co1593 2.214 . S
N1642 C1640 1.325 . S
N1642 C1641 1.261 . S
C1643 H1613 0.931 . S
C1643 C1640 1.357 . S
C1643 C1644 1.312 . S
C1644 H1615 0.930 . S
C1644 C1639 1.261 . S
C1644 C1643 1.312 . S
C1645 O1617 1.214 . S
C1645 O1625 1.234 . S
C1646 H1618 0.929 . S
C1646 C1649 1.391 . S
C1646 C1651 1.391 . S
C1647 H1619 0.929 . S
C1647 C1648 1.390 . S
C1647 N1650 1.391 . S
C1648 H1620 0.930 . S
C1648 C1647 1.390 . S
C1648 C1649 1.392 . S
C1649 H1621 0.929 . S
C1649 C1646 1.391 . S
C1649 C1648 1.392 . S
N1650 Co1594 2.257 . S
N1650 C1647 1.391 . S
N1650 C1651 1.388 . S
C1651 H1622 0.930 . S
C1651 C1646 1.391 . S
C1651 N1650 1.388 . S
Co1652 O1654 2.143 . S
Co1652 O1660 2.074 . S
Co1652 O1663 2.093 . S
Co1652 O1676 2.097 . S
Co1652 N1693 2.151 . S
Co1652 N1701 2.214 . S
Co1653 O1654 2.160 . S
Co1653 O1659 2.058 . S
Co1653 O1669 2.057 . S
Co1653 O1684 2.037 . S
Co1653 N1688 2.145 . S
Co1653 N1709 2.257 . S
O1654 Co1652 2.143 . S
O1654 Co1653 2.160 . S
C1655 O1656 1.278 . S
C1655 O1663 1.224 . S
O1656 C1655 1.278 . S
C1657 O1658 1.245 . S
C1657 O1669 1.232 . S
O1658 C1657 1.245 . S
O1659 Co1653 2.058 . S
O1659 C1685 1.269 . S
O1660 Co1652 2.074 . S
O1660 C1685 1.257 . S
H1661 C1686 0.930 . S
H1662 C1692 0.930 . S
O1663 Co1652 2.093 . S
O1663 C1655 1.224 . S
H1664 C1696 0.929 . S
H1665 C1698 0.930 . S
H1666 C1699 0.930 . S
H1667 C1697 0.929 . S
H1668 C1700 0.928 . S
O1669 Co1653 2.057 . S
O1669 C1657 1.232 . S
H1670 C1689 0.929 . S
H1671 C1690 0.929 . S
H1672 C1702 0.931 . S
H1673 C1694 0.929 . S
H1674 C1703 0.930 . S
H1675 C1695 0.931 . S
O1676 Co1652 2.097 . S
O1676 C1704 1.214 . S
H1677 C1705 0.929 . S
H1678 C1706 0.929 . S
H1679 C1707 0.930 . S
H1680 C1708 0.929 . S
H1681 C1710 0.930 . S
H1682 C1687 0.930 . S
H1683 C1691 0.930 . S
O1684 Co1653 2.037 . S
O1684 C1704 1.234 . S
C1685 O1659 1.269 . S
C1685 O1660 1.257 . S
C1686 H1661 0.930 . S
C1686 C1689 1.388 . S
C1686 C1691 1.418 . S
C1687 H1682 0.930 . S
C1687 C1690 1.404 . S
C1687 C1691 1.353 . S
N1688 Co1653 2.145 . S
N1688 C1689 1.397 . S
N1688 C1690 1.334 . S
C1689 H1670 0.929 . S
C1689 C1686 1.388 . S
C1689 N1688 1.397 . S
C1690 H1671 0.929 . S
C1690 C1687 1.404 . S
C1690 N1688 1.334 . S
C1691 H1683 0.930 . S
C1691 C1686 1.418 . S
C1691 C1687 1.353 . S
C1692 H1662 0.930 . S
C1692 N1693 1.330 . S
C1692 C1694 1.446 . S
N1693 Co1652 2.151 . S
N1693 C1692 1.330 . S
N1693 C1697 1.418 . S
C1694 H1673 0.929 . S
C1694 C1692 1.446 . S
C1694 C1695 1.332 . S
C1695 H1675 0.931 . S
C1695 C1694 1.332 . S
C1695 C1696 1.267 . S
C1696 H1664 0.929 . S
C1696 C1695 1.267 . S
C1696 C1697 1.251 . S
C1697 H1667 0.929 . S
C1697 N1693 1.418 . S
C1697 C1696 1.251 . S
C1698 H1665 0.930 . S
C1698 C1700 1.406 . S
C1698 C1703 1.261 . S
C1699 H1666 0.930 . S
C1699 N1701 1.325 . S
C1699 C1702 1.357 . S
C1700 H1668 0.928 . S
C1700 C1698 1.406 . S
C1700 N1701 1.261 . S
N1701 Co1652 2.214 . S
N1701 C1699 1.325 . S
N1701 C1700 1.261 . S
C1702 H1672 0.931 . S
C1702 C1699 1.357 . S
C1702 C1703 1.312 . S
C1703 H1674 0.930 . S
C1703 C1698 1.261 . S
C1703 C1702 1.312 . S
C1704 O1676 1.214 . S
C1704 O1684 1.234 . S
C1705 H1677 0.929 . S
C1705 C1708 1.391 . S
C1705 C1710 1.391 . S
C1706 H1678 0.929 . S
C1706 C1707 1.390 . S
C1706 N1709 1.391 . S
C1707 H1679 0.930 . S
C1707 C1706 1.390 . S
C1707 C1708 1.392 . S
C1708 H1680 0.929 . S
C1708 C1705 1.391 . S
C1708 C1707 1.392 . S
N1709 Co1653 2.257 . S
N1709 C1706 1.391 . S
N1709 C1710 1.388 . S
C1710 H1681 0.930 . S
C1710 C1705 1.391 . S
C1710 N1709 1.388 . S
Co1711 O1713 2.143 . S
Co1711 O1719 2.074 . S
Co1711 O1722 2.093 . S
Co1711 O1735 2.097 . S
Co1711 N1752 2.151 . S
Co1711 N1760 2.214 . S
Co1712 O1713 2.160 . S
Co1712 O1718 2.058 . S
Co1712 O1728 2.057 . S
Co1712 O1743 2.037 . S
Co1712 N1747 2.145 . S
Co1712 N1768 2.257 . S
O1713 Co1711 2.143 . S
O1713 Co1712 2.160 . S
C1714 O1715 1.278 . S
C1714 O1722 1.224 . S
O1715 C1714 1.278 . S
C1716 O1717 1.245 . S
C1716 O1728 1.232 . S
O1717 C1716 1.245 . S
O1718 Co1712 2.058 . S
O1718 C1744 1.269 . S
O1719 Co1711 2.074 . S
O1719 C1744 1.257 . S
H1720 C1745 0.930 . S
H1721 C1751 0.930 . S
O1722 Co1711 2.093 . S
O1722 C1714 1.224 . S
H1723 C1755 0.929 . S
H1724 C1757 0.930 . S
H1725 C1758 0.930 . S
H1726 C1756 0.929 . S
H1727 C1759 0.928 . S
O1728 Co1712 2.057 . S
O1728 C1716 1.232 . S
H1729 C1748 0.929 . S
H1730 C1749 0.929 . S
H1731 C1761 0.931 . S
H1732 C1753 0.929 . S
H1733 C1762 0.930 . S
H1734 C1754 0.931 . S
O1735 Co1711 2.097 . S
O1735 C1763 1.214 . S
H1736 C1764 0.929 . S
H1737 C1765 0.929 . S
H1738 C1766 0.930 . S
H1739 C1767 0.929 . S
H1740 C1769 0.930 . S
H1741 C1746 0.930 . S
H1742 C1750 0.930 . S
O1743 Co1712 2.037 . S
O1743 C1763 1.234 . S
C1744 O1718 1.269 . S
C1744 O1719 1.257 . S
C1745 H1720 0.930 . S
C1745 C1748 1.388 . S
C1745 C1750 1.418 . S
C1746 H1741 0.930 . S
C1746 C1749 1.404 . S
C1746 C1750 1.353 . S
N1747 Co1712 2.145 . S
N1747 C1748 1.397 . S
N1747 C1749 1.334 . S
C1748 H1729 0.929 . S
C1748 C1745 1.388 . S
C1748 N1747 1.397 . S
C1749 H1730 0.929 . S
C1749 C1746 1.404 . S
C1749 N1747 1.334 . S
C1750 H1742 0.930 . S
C1750 C1745 1.418 . S
C1750 C1746 1.353 . S
C1751 H1721 0.930 . S
C1751 N1752 1.330 . S
C1751 C1753 1.446 . S
N1752 Co1711 2.151 . S
N1752 C1751 1.330 . S
N1752 C1756 1.418 . S
C1753 H1732 0.929 . S
C1753 C1751 1.446 . S
C1753 C1754 1.332 . S
C1754 H1734 0.931 . S
C1754 C1753 1.332 . S
C1754 C1755 1.267 . S
C1755 H1723 0.929 . S
C1755 C1754 1.267 . S
C1755 C1756 1.251 . S
C1756 H1726 0.929 . S
C1756 N1752 1.418 . S
C1756 C1755 1.251 . S
C1757 H1724 0.930 . S
C1757 C1759 1.406 . S
C1757 C1762 1.261 . S
C1758 H1725 0.930 . S
C1758 N1760 1.325 . S
C1758 C1761 1.357 . S
C1759 H1727 0.928 . S
C1759 C1757 1.406 . S
C1759 N1760 1.261 . S
N1760 Co1711 2.214 . S
N1760 C1758 1.325 . S
N1760 C1759 1.261 . S
C1761 H1731 0.931 . S
C1761 C1758 1.357 . S
C1761 C1762 1.312 . S
C1762 H1733 0.930 . S
C1762 C1757 1.261 . S
C1762 C1761 1.312 . S
C1763 O1735 1.214 . S
C1763 O1743 1.234 . S
C1764 H1736 0.929 . S
C1764 C1767 1.391 . S
C1764 C1769 1.391 . S
C1765 H1737 0.929 . S
C1765 C1766 1.390 . S
C1765 N1768 1.391 . S
C1766 H1738 0.930 . S
C1766 C1765 1.390 . S
C1766 C1767 1.392 . S
C1767 H1739 0.929 . S
C1767 C1764 1.391 . S
C1767 C1766 1.392 . S
N1768 Co1712 2.257 . S
N1768 C1765 1.391 . S
N1768 C1769 1.388 . S
C1769 H1740 0.930 . S
C1769 C1764 1.391 . S
C1769 N1768 1.388 . S
Co1770 O1772 2.143 . S
Co1770 O1778 2.074 . S
Co1770 O1781 2.093 . S
Co1770 O1794 2.097 . S
Co1770 N1811 2.151 . S
Co1770 N1819 2.214 . S
Co1771 O1772 2.160 . S
Co1771 O1777 2.058 . S
Co1771 O1787 2.057 . S
Co1771 O1802 2.037 . S
Co1771 N1806 2.145 . S
Co1771 N1827 2.257 . S
O1772 Co1770 2.143 . S
O1772 Co1771 2.160 . S
C1773 O1774 1.278 . S
C1773 O1781 1.224 . S
O1774 C1773 1.278 . S
C1775 O1776 1.245 . S
C1775 O1787 1.232 . S
O1776 C1775 1.245 . S
O1777 Co1771 2.058 . S
O1777 C1803 1.269 . S
O1778 Co1770 2.074 . S
O1778 C1803 1.257 . S
H1779 C1804 0.930 . S
H1780 C1810 0.930 . S
O1781 Co1770 2.093 . S
O1781 C1773 1.224 . S
H1782 C1814 0.929 . S
H1783 C1816 0.930 . S
H1784 C1817 0.930 . S
H1785 C1815 0.929 . S
H1786 C1818 0.928 . S
O1787 Co1771 2.057 . S
O1787 C1775 1.232 . S
H1788 C1807 0.929 . S
H1789 C1808 0.929 . S
H1790 C1820 0.931 . S
H1791 C1812 0.929 . S
H1792 C1821 0.930 . S
H1793 C1813 0.931 . S
O1794 Co1770 2.097 . S
O1794 C1822 1.214 . S
H1795 C1823 0.929 . S
H1796 C1824 0.929 . S
H1797 C1825 0.930 . S
H1798 C1826 0.929 . S
H1799 C1828 0.930 . S
H1800 C1805 0.930 . S
H1801 C1809 0.930 . S
O1802 Co1771 2.037 . S
O1802 C1822 1.234 . S
C1803 O1777 1.269 . S
C1803 O1778 1.257 . S
C1804 H1779 0.930 . S
C1804 C1807 1.388 . S
C1804 C1809 1.418 . S
C1805 H1800 0.930 . S
C1805 C1808 1.404 . S
C1805 C1809 1.353 . S
N1806 Co1771 2.145 . S
N1806 C1807 1.397 . S
N1806 C1808 1.334 . S
C1807 H1788 0.929 . S
C1807 C1804 1.388 . S
C1807 N1806 1.397 . S
C1808 H1789 0.929 . S
C1808 C1805 1.404 . S
C1808 N1806 1.334 . S
C1809 H1801 0.930 . S
C1809 C1804 1.418 . S
C1809 C1805 1.353 . S
C1810 H1780 0.930 . S
C1810 N1811 1.330 . S
C1810 C1812 1.446 . S
N1811 Co1770 2.151 . S
N1811 C1810 1.330 . S
N1811 C1815 1.418 . S
C1812 H1791 0.929 . S
C1812 C1810 1.446 . S
C1812 C1813 1.332 . S
C1813 H1793 0.931 . S
C1813 C1812 1.332 . S
C1813 C1814 1.267 . S
C1814 H1782 0.929 . S
C1814 C1813 1.267 . S
C1814 C1815 1.251 . S
C1815 H1785 0.929 . S
C1815 N1811 1.418 . S
C1815 C1814 1.251 . S
C1816 H1783 0.930 . S
C1816 C1818 1.406 . S
C1816 C1821 1.261 . S
C1817 H1784 0.930 . S
C1817 N1819 1.325 . S
C1817 C1820 1.357 . S
C1818 H1786 0.928 . S
C1818 C1816 1.406 . S
C1818 N1819 1.261 . S
N1819 Co1770 2.214 . S
N1819 C1817 1.325 . S
N1819 C1818 1.261 . S
C1820 H1790 0.931 . S
C1820 C1817 1.357 . S
C1820 C1821 1.312 . S
C1821 H1792 0.930 . S
C1821 C1816 1.261 . S
C1821 C1820 1.312 . S
C1822 O1794 1.214 . S
C1822 O1802 1.234 . S
C1823 H1795 0.929 . S
C1823 C1826 1.391 . S
C1823 C1828 1.391 . S
C1824 H1796 0.929 . S
C1824 C1825 1.390 . S
C1824 N1827 1.391 . S
C1825 H1797 0.930 . S
C1825 C1824 1.390 . S
C1825 C1826 1.392 . S
C1826 H1798 0.929 . S
C1826 C1823 1.391 . S
C1826 C1825 1.392 . S
N1827 Co1771 2.257 . S
N1827 C1824 1.391 . S
N1827 C1828 1.388 . S
C1828 H1799 0.930 . S
C1828 C1823 1.391 . S
C1828 N1827 1.388 . S
Co1829 O1831 2.143 . S
Co1829 O1837 2.074 . S
Co1829 O1840 2.093 . S
Co1829 O1853 2.097 . S
Co1829 N1870 2.151 . S
Co1829 N1878 2.214 . S
Co1830 O1831 2.160 . S
Co1830 O1836 2.058 . S
Co1830 O1846 2.057 . S
Co1830 O1861 2.037 . S
Co1830 N1865 2.145 . S
Co1830 N1886 2.257 . S
O1831 Co1829 2.143 . S
O1831 Co1830 2.160 . S
C1832 O1833 1.278 . S
C1832 O1840 1.224 . S
O1833 C1832 1.278 . S
C1834 O1835 1.245 . S
C1834 O1846 1.232 . S
O1835 C1834 1.245 . S
O1836 Co1830 2.058 . S
O1836 C1862 1.269 . S
O1837 Co1829 2.074 . S
O1837 C1862 1.257 . S
H1838 C1863 0.930 . S
H1839 C1869 0.930 . S
O1840 Co1829 2.093 . S
O1840 C1832 1.224 . S
H1841 C1873 0.929 . S
H1842 C1875 0.930 . S
H1843 C1876 0.930 . S
H1844 C1874 0.929 . S
H1845 C1877 0.928 . S
O1846 Co1830 2.057 . S
O1846 C1834 1.232 . S
H1847 C1866 0.929 . S
H1848 C1867 0.929 . S
H1849 C1879 0.931 . S
H1850 C1871 0.929 . S
H1851 C1880 0.930 . S
H1852 C1872 0.931 . S
O1853 Co1829 2.097 . S
O1853 C1881 1.214 . S
H1854 C1882 0.929 . S
H1855 C1883 0.929 . S
H1856 C1884 0.930 . S
H1857 C1885 0.929 . S
H1858 C1887 0.930 . S
H1859 C1864 0.930 . S
H1860 C1868 0.930 . S
O1861 Co1830 2.037 . S
O1861 C1881 1.234 . S
C1862 O1836 1.269 . S
C1862 O1837 1.257 . S
C1863 H1838 0.930 . S
C1863 C1866 1.388 . S
C1863 C1868 1.418 . S
C1864 H1859 0.930 . S
C1864 C1867 1.404 . S
C1864 C1868 1.353 . S
N1865 Co1830 2.145 . S
N1865 C1866 1.397 . S
N1865 C1867 1.334 . S
C1866 H1847 0.929 . S
C1866 C1863 1.388 . S
C1866 N1865 1.397 . S
C1867 H1848 0.929 . S
C1867 C1864 1.404 . S
C1867 N1865 1.334 . S
C1868 H1860 0.930 . S
C1868 C1863 1.418 . S
C1868 C1864 1.353 . S
C1869 H1839 0.930 . S
C1869 N1870 1.330 . S
C1869 C1871 1.446 . S
N1870 Co1829 2.151 . S
N1870 C1869 1.330 . S
N1870 C1874 1.418 . S
C1871 H1850 0.929 . S
C1871 C1869 1.446 . S
C1871 C1872 1.332 . S
C1872 H1852 0.931 . S
C1872 C1871 1.332 . S
C1872 C1873 1.267 . S
C1873 H1841 0.929 . S
C1873 C1872 1.267 . S
C1873 C1874 1.251 . S
C1874 H1844 0.929 . S
C1874 N1870 1.418 . S
C1874 C1873 1.251 . S
C1875 H1842 0.930 . S
C1875 C1877 1.406 . S
C1875 C1880 1.261 . S
C1876 H1843 0.930 . S
C1876 N1878 1.325 . S
C1876 C1879 1.357 . S
C1877 H1845 0.928 . S
C1877 C1875 1.406 . S
C1877 N1878 1.261 . S
N1878 Co1829 2.214 . S
N1878 C1876 1.325 . S
N1878 C1877 1.261 . S
C1879 H1849 0.931 . S
C1879 C1876 1.357 . S
C1879 C1880 1.312 . S
C1880 H1851 0.930 . S
C1880 C1875 1.261 . S
C1880 C1879 1.312 . S
C1881 O1853 1.214 . S
C1881 O1861 1.234 . S
C1882 H1854 0.929 . S
C1882 C1885 1.391 . S
C1882 C1887 1.391 . S
C1883 H1855 0.929 . S
C1883 C1884 1.390 . S
C1883 N1886 1.391 . S
C1884 H1856 0.930 . S
C1884 C1883 1.390 . S
C1884 C1885 1.392 . S
C1885 H1857 0.929 . S
C1885 C1882 1.391 . S
C1885 C1884 1.392 . S
N1886 Co1830 2.257 . S
N1886 C1883 1.391 . S
N1886 C1887 1.388 . S
C1887 H1858 0.930 . S
C1887 C1882 1.391 . S
C1887 N1886 1.388 . S
H1888 C1896 0.929 . S
H1889 C1898 0.930 . S
H1890 C1900 0.930 . S
H1891 C1903 0.929 . S
H1892 C1906 0.930 . S
H1893 C1908 0.960 . S
H1894 C1908 0.960 . S
H1895 C1908 0.960 . S
C1896 H1888 0.929 . S
C1896 C1897 1.377 . S
C1896 C1898 1.384 . S
C1897 C1896 1.377 . S
C1897 C1903 1.390 . S
C1898 H1889 0.930 . S
C1898 C1896 1.384 . S
C1898 C1899 1.372 . S
C1899 C1898 1.372 . S
C1899 C1900 1.400 . S
C1899 C1904 1.490 . S
C1900 H1890 0.930 . S
C1900 C1899 1.400 . S
C1900 C1903 1.386 . S
H1901 C1917 0.930 . S
H1902 C1918 0.931 . S
C1903 H1891 0.929 . S
C1903 C1897 1.390 . S
C1903 C1900 1.386 . S
C1904 C1899 1.490 . S
C1904 C1906 1.395 . S
C1904 C1907 1.403 . S
H1905 C1911 0.930 . S
C1906 H1892 0.930 . S
C1906 C1904 1.395 . S
C1906 C1909 1.403 . S
C1907 C1904 1.403 . S
C1907 C1908 1.524 . S
C1907 C1911 1.400 . S
C1908 H1893 0.960 . S
C1908 H1894 0.960 . S
C1908 H1895 0.960 . S
C1908 C1907 1.524 . S
C1909 C1906 1.403 . S
C1909 C1910 1.392 . S
C1909 C1913 1.495 . S
C1910 C1909 1.392 . S
C1910 C1911 1.385 . S
C1910 C1912 1.478 . S
C1911 H1905 0.930 . S
C1911 C1907 1.400 . S
C1911 C1910 1.385 . S
C1912 C1910 1.478 . S
C1912 C1914 1.381 . S
C1912 C1918 1.383 . S
C1913 C1909 1.495 . S
C1913 H1919 0.959 . S
C1913 H1920 0.961 . S
C1913 H1921 0.960 . S
C1914 C1912 1.381 . S
C1914 C1915 1.394 . S
C1914 H1922 0.930 . S
C1915 C1914 1.394 . S
C1915 C1916 1.383 . S
C1915 H1923 0.929 . S
C1916 C1915 1.383 . S
C1916 C1917 1.377 . S
C1917 H1901 0.930 . S
C1917 C1916 1.377 . S
C1917 C1918 1.379 . S
C1918 H1902 0.931 . S
C1918 C1912 1.383 . S
C1918 C1917 1.379 . S
H1919 C1913 0.959 . S
H1920 C1913 0.961 . S
H1921 C1913 0.960 . S
H1922 C1914 0.930 . S
H1923 C1915 0.929 . S
H1924 C1932 0.929 . S
H1925 C1934 0.930 . S
H1926 C1936 0.930 . S
H1927 C1939 0.929 . S
H1928 C1942 0.930 . S
H1929 C1944 0.960 . S
H1930 C1944 0.960 . S
H1931 C1944 0.960 . S
C1932 H1924 0.929 . S
C1932 C1933 1.377 . S
C1932 C1934 1.384 . S
C1933 C1932 1.377 . S
C1933 C1939 1.390 . S
C1934 H1925 0.930 . S
C1934 C1932 1.384 . S
C1934 C1935 1.372 . S
C1935 C1934 1.372 . S
C1935 C1936 1.400 . S
C1935 C1940 1.490 . S
C1936 H1926 0.930 . S
C1936 C1935 1.400 . S
C1936 C1939 1.386 . S
H1937 C1953 0.930 . S
H1938 C1954 0.931 . S
C1939 H1927 0.929 . S
C1939 C1933 1.390 . S
C1939 C1936 1.386 . S
C1940 C1935 1.490 . S
C1940 C1942 1.395 . S
C1940 C1943 1.403 . S
H1941 C1947 0.930 . S
C1942 H1928 0.930 . S
C1942 C1940 1.395 . S
C1942 C1945 1.403 . S
C1943 C1940 1.403 . S
C1943 C1944 1.524 . S
C1943 C1947 1.400 . S
C1944 H1929 0.960 . S
C1944 H1930 0.960 . S
C1944 H1931 0.960 . S
C1944 C1943 1.524 . S
C1945 C1942 1.403 . S
C1945 C1946 1.392 . S
C1945 C1949 1.495 . S
C1946 C1945 1.392 . S
C1946 C1947 1.385 . S
C1946 C1948 1.478 . S
C1947 H1941 0.930 . S
C1947 C1943 1.400 . S
C1947 C1946 1.385 . S
C1948 C1946 1.478 . S
C1948 C1950 1.381 . S
C1948 C1954 1.383 . S
C1949 C1945 1.495 . S
C1949 H1955 0.959 . S
C1949 H1956 0.961 . S
C1949 H1957 0.960 . S
C1950 C1948 1.381 . S
C1950 C1951 1.394 . S
C1950 H1958 0.930 . S
C1951 C1950 1.394 . S
C1951 C1952 1.383 . S
C1951 H1959 0.929 . S
C1952 C1951 1.383 . S
C1952 C1953 1.377 . S
C1953 H1937 0.930 . S
C1953 C1952 1.377 . S
C1953 C1954 1.379 . S
C1954 H1938 0.931 . S
C1954 C1948 1.383 . S
C1954 C1953 1.379 . S
H1955 C1949 0.959 . S
H1956 C1949 0.961 . S
H1957 C1949 0.960 . S
H1958 C1950 0.930 . S
H1959 C1951 0.929 . S
H1960 C1968 0.929 . S
H1961 C1970 0.930 . S
H1962 C1972 0.930 . S
H1963 C1975 0.929 . S
H1964 C1978 0.930 . S
H1965 C1980 0.960 . S
H1966 C1980 0.960 . S
H1967 C1980 0.960 . S
C1968 H1960 0.929 . S
C1968 C1969 1.377 . S
C1968 C1970 1.384 . S
C1969 C1968 1.377 . S
C1969 C1975 1.390 . S
C1970 H1961 0.930 . S
C1970 C1968 1.384 . S
C1970 C1971 1.372 . S
C1971 C1970 1.372 . S
C1971 C1972 1.400 . S
C1971 C1976 1.490 . S
C1972 H1962 0.930 . S
C1972 C1971 1.400 . S
C1972 C1975 1.386 . S
H1973 C1989 0.930 . S
H1974 C1990 0.931 . S
C1975 H1963 0.929 . S
C1975 C1969 1.390 . S
C1975 C1972 1.386 . S
C1976 C1971 1.490 . S
C1976 C1978 1.395 . S
C1976 C1979 1.403 . S
H1977 C1983 0.930 . S
C1978 H1964 0.930 . S
C1978 C1976 1.395 . S
C1978 C1981 1.403 . S
C1979 C1976 1.403 . S
C1979 C1980 1.524 . S
C1979 C1983 1.400 . S
C1980 H1965 0.960 . S
C1980 H1966 0.960 . S
C1980 H1967 0.960 . S
C1980 C1979 1.524 . S
C1981 C1978 1.403 . S
C1981 C1982 1.392 . S
C1981 C1985 1.495 . S
C1982 C1981 1.392 . S
C1982 C1983 1.385 . S
C1982 C1984 1.478 . S
C1983 H1977 0.930 . S
C1983 C1979 1.400 . S
C1983 C1982 1.385 . S
C1984 C1982 1.478 . S
C1984 C1986 1.381 . S
C1984 C1990 1.383 . S
C1985 C1981 1.495 . S
C1985 H1991 0.959 . S
C1985 H1992 0.961 . S
C1985 H1993 0.960 . S
C1986 C1984 1.381 . S
C1986 C1987 1.394 . S
C1986 H1994 0.930 . S
C1987 C1986 1.394 . S
C1987 C1988 1.383 . S
C1987 H1995 0.929 . S
C1988 C1987 1.383 . S
C1988 C1989 1.377 . S
C1989 H1973 0.930 . S
C1989 C1988 1.377 . S
C1989 C1990 1.379 . S
C1990 H1974 0.931 . S
C1990 C1984 1.383 . S
C1990 C1989 1.379 . S
H1991 C1985 0.959 . S
H1992 C1985 0.961 . S
H1993 C1985 0.960 . S
H1994 C1986 0.930 . S
H1995 C1987 0.929 . S
H1996 C2004 0.929 . S
H1997 C2006 0.930 . S
H1998 C2008 0.930 . S
H1999 C2011 0.929 . S
H2000 C2014 0.930 . S
H2001 C2016 0.960 . S
H2002 C2016 0.960 . S
H2003 C2016 0.960 . S
C2004 H1996 0.929 . S
C2004 C2005 1.377 . S
C2004 C2006 1.384 . S
C2005 C2004 1.377 . S
C2005 C2011 1.390 . S
C2006 H1997 0.930 . S
C2006 C2004 1.384 . S
C2006 C2007 1.372 . S
C2007 C2006 1.372 . S
C2007 C2008 1.400 . S
C2007 C2012 1.490 . S
C2008 H1998 0.930 . S
C2008 C2007 1.400 . S
C2008 C2011 1.386 . S
H2009 C2025 0.930 . S
H2010 C2026 0.931 . S
C2011 H1999 0.929 . S
C2011 C2005 1.390 . S
C2011 C2008 1.386 . S
C2012 C2007 1.490 . S
C2012 C2014 1.395 . S
C2012 C2015 1.403 . S
H2013 C2019 0.930 . S
C2014 H2000 0.930 . S
C2014 C2012 1.395 . S
C2014 C2017 1.403 . S
C2015 C2012 1.403 . S
C2015 C2016 1.524 . S
C2015 C2019 1.400 . S
C2016 H2001 0.960 . S
C2016 H2002 0.960 . S
C2016 H2003 0.960 . S
C2016 C2015 1.524 . S
C2017 C2014 1.403 . S
C2017 C2018 1.392 . S
C2017 C2021 1.495 . S
C2018 C2017 1.392 . S
C2018 C2019 1.385 . S
C2018 C2020 1.478 . S
C2019 H2013 0.930 . S
C2019 C2015 1.400 . S
C2019 C2018 1.385 . S
C2020 C2018 1.478 . S
C2020 C2022 1.381 . S
C2020 C2026 1.383 . S
C2021 C2017 1.495 . S
C2021 H2027 0.959 . S
C2021 H2028 0.961 . S
C2021 H2029 0.960 . S
C2022 C2020 1.381 . S
C2022 C2023 1.394 . S
C2022 H2030 0.930 . S
C2023 C2022 1.394 . S
C2023 C2024 1.383 . S
C2023 H2031 0.929 . S
C2024 C2023 1.383 . S
C2024 C2025 1.377 . S
C2025 H2009 0.930 . S
C2025 C2024 1.377 . S
C2025 C2026 1.379 . S
C2026 H2010 0.931 . S
C2026 C2020 1.383 . S
C2026 C2025 1.379 . S
H2027 C2021 0.959 . S
H2028 C2021 0.961 . S
H2029 C2021 0.960 . S
H2030 C2022 0.930 . S
H2031 C2023 0.929 . S
H2032 C2040 0.929 . S
H2033 C2042 0.930 . S
H2034 C2044 0.930 . S
H2035 C2047 0.929 . S
H2036 C2050 0.930 . S
H2037 C2052 0.960 . S
H2038 C2052 0.960 . S
H2039 C2052 0.960 . S
C2040 H2032 0.929 . S
C2040 C2041 1.377 . S
C2040 C2042 1.384 . S
C2041 C2040 1.377 . S
C2041 C2047 1.390 . S
C2042 H2033 0.930 . S
C2042 C2040 1.384 . S
C2042 C2043 1.372 . S
C2043 C2042 1.372 . S
C2043 C2044 1.400 . S
C2043 C2048 1.490 . S
C2044 H2034 0.930 . S
C2044 C2043 1.400 . S
C2044 C2047 1.386 . S
H2045 C2061 0.930 . S
H2046 C2062 0.931 . S
C2047 H2035 0.929 . S
C2047 C2041 1.390 . S
C2047 C2044 1.386 . S
C2048 C2043 1.490 . S
C2048 C2050 1.395 . S
C2048 C2051 1.403 . S
H2049 C2055 0.930 . S
C2050 H2036 0.930 . S
C2050 C2048 1.395 . S
C2050 C2053 1.403 . S
C2051 C2048 1.403 . S
C2051 C2052 1.524 . S
C2051 C2055 1.400 . S
C2052 H2037 0.960 . S
C2052 H2038 0.960 . S
C2052 H2039 0.960 . S
C2052 C2051 1.524 . S
C2053 C2050 1.403 . S
C2053 C2054 1.392 . S
C2053 C2057 1.495 . S
C2054 C2053 1.392 . S
C2054 C2055 1.385 . S
C2054 C2056 1.478 . S
C2055 H2049 0.930 . S
C2055 C2051 1.400 . S
C2055 C2054 1.385 . S
C2056 C2054 1.478 . S
C2056 C2058 1.381 . S
C2056 C2062 1.383 . S
C2057 C2053 1.495 . S
C2057 H2063 0.959 . S
C2057 H2064 0.961 . S
C2057 H2065 0.960 . S
C2058 C2056 1.381 . S
C2058 C2059 1.394 . S
C2058 H2066 0.930 . S
C2059 C2058 1.394 . S
C2059 C2060 1.383 . S
C2059 H2067 0.929 . S
C2060 C2059 1.383 . S
C2060 C2061 1.377 . S
C2061 H2045 0.930 . S
C2061 C2060 1.377 . S
C2061 C2062 1.379 . S
C2062 H2046 0.931 . S
C2062 C2056 1.383 . S
C2062 C2061 1.379 . S
H2063 C2057 0.959 . S
H2064 C2057 0.961 . S
H2065 C2057 0.960 . S
H2066 C2058 0.930 . S
H2067 C2059 0.929 . S
H2068 C2076 0.929 . S
H2069 C2078 0.930 . S
H2070 C2080 0.930 . S
H2071 C2083 0.929 . S
H2072 C2086 0.930 . S
H2073 C2088 0.960 . S
H2074 C2088 0.960 . S
H2075 C2088 0.960 . S
C2076 H2068 0.929 . S
C2076 C2077 1.377 . S
C2076 C2078 1.384 . S
C2077 C2076 1.377 . S
C2077 C2083 1.390 . S
C2078 H2069 0.930 . S
C2078 C2076 1.384 . S
C2078 C2079 1.372 . S
C2079 C2078 1.372 . S
C2079 C2080 1.400 . S
C2079 C2084 1.490 . S
C2080 H2070 0.930 . S
C2080 C2079 1.400 . S
C2080 C2083 1.386 . S
H2081 C2097 0.930 . S
H2082 C2098 0.931 . S
C2083 H2071 0.929 . S
C2083 C2077 1.390 . S
C2083 C2080 1.386 . S
C2084 C2079 1.490 . S
C2084 C2086 1.395 . S
C2084 C2087 1.403 . S
H2085 C2091 0.930 . S
C2086 H2072 0.930 . S
C2086 C2084 1.395 . S
C2086 C2089 1.403 . S
C2087 C2084 1.403 . S
C2087 C2088 1.524 . S
C2087 C2091 1.400 . S
C2088 H2073 0.960 . S
C2088 H2074 0.960 . S
C2088 H2075 0.960 . S
C2088 C2087 1.524 . S
C2089 C2086 1.403 . S
C2089 C2090 1.392 . S
C2089 C2093 1.495 . S
C2090 C2089 1.392 . S
C2090 C2091 1.385 . S
C2090 C2092 1.478 . S
C2091 H2085 0.930 . S
C2091 C2087 1.400 . S
C2091 C2090 1.385 . S
C2092 C2090 1.478 . S
C2092 C2094 1.381 . S
C2092 C2098 1.383 . S
C2093 C2089 1.495 . S
C2093 H2099 0.959 . S
C2093 H2100 0.961 . S
C2093 H2101 0.960 . S
C2094 C2092 1.381 . S
C2094 C2095 1.394 . S
C2094 H2102 0.930 . S
C2095 C2094 1.394 . S
C2095 C2096 1.383 . S
C2095 H2103 0.929 . S
C2096 C2095 1.383 . S
C2096 C2097 1.377 . S
C2097 H2081 0.930 . S
C2097 C2096 1.377 . S
C2097 C2098 1.379 . S
C2098 H2082 0.931 . S
C2098 C2092 1.383 . S
C2098 C2097 1.379 . S
H2099 C2093 0.959 . S
H2100 C2093 0.961 . S
H2101 C2093 0.960 . S
H2102 C2094 0.930 . S
H2103 C2095 0.929 . S
H2104 C2112 0.929 . S
H2105 C2114 0.930 . S
H2106 C2116 0.930 . S
H2107 C2119 0.929 . S
H2108 C2122 0.930 . S
H2109 C2124 0.960 . S
H2110 C2124 0.960 . S
H2111 C2124 0.960 . S
C2112 H2104 0.929 . S
C2112 C2113 1.377 . S
C2112 C2114 1.384 . S
C2113 C2112 1.377 . S
C2113 C2119 1.390 . S
C2114 H2105 0.930 . S
C2114 C2112 1.384 . S
C2114 C2115 1.372 . S
C2115 C2114 1.372 . S
C2115 C2116 1.400 . S
C2115 C2120 1.490 . S
C2116 H2106 0.930 . S
C2116 C2115 1.400 . S
C2116 C2119 1.386 . S
H2117 C2133 0.930 . S
H2118 C2134 0.931 . S
C2119 H2107 0.929 . S
C2119 C2113 1.390 . S
C2119 C2116 1.386 . S
C2120 C2115 1.490 . S
C2120 C2122 1.395 . S
C2120 C2123 1.403 . S
H2121 C2127 0.930 . S
C2122 H2108 0.930 . S
C2122 C2120 1.395 . S
C2122 C2125 1.403 . S
C2123 C2120 1.403 . S
C2123 C2124 1.524 . S
C2123 C2127 1.400 . S
C2124 H2109 0.960 . S
C2124 H2110 0.960 . S
C2124 H2111 0.960 . S
C2124 C2123 1.524 . S
C2125 C2122 1.403 . S
C2125 C2126 1.392 . S
C2125 C2129 1.495 . S
C2126 C2125 1.392 . S
C2126 C2127 1.385 . S
C2126 C2128 1.478 . S
C2127 H2121 0.930 . S
C2127 C2123 1.400 . S
C2127 C2126 1.385 . S
C2128 C2126 1.478 . S
C2128 C2130 1.381 . S
C2128 C2134 1.383 . S
C2129 C2125 1.495 . S
C2129 H2135 0.959 . S
C2129 H2136 0.961 . S
C2129 H2137 0.960 . S
C2130 C2128 1.381 . S
C2130 C2131 1.394 . S
C2130 H2138 0.930 . S
C2131 C2130 1.394 . S
C2131 C2132 1.383 . S
C2131 H2139 0.929 . S
C2132 C2131 1.383 . S
C2132 C2133 1.377 . S
C2133 H2117 0.930 . S
C2133 C2132 1.377 . S
C2133 C2134 1.379 . S
C2134 H2118 0.931 . S
C2134 C2128 1.383 . S
C2134 C2133 1.379 . S
H2135 C2129 0.959 . S
H2136 C2129 0.961 . S
H2137 C2129 0.960 . S
H2138 C2130 0.930 . S
H2139 C2131 0.929 . S
H2140 C2148 0.929 . S
H2141 C2150 0.930 . S
H2142 C2152 0.930 . S
H2143 C2155 0.929 . S
H2144 C2158 0.930 . S
H2145 C2160 0.960 . S
H2146 C2160 0.960 . S
H2147 C2160 0.960 . S
C2148 H2140 0.929 . S
C2148 C2149 1.377 . S
C2148 C2150 1.384 . S
C2149 C2148 1.377 . S
C2149 C2155 1.390 . S
C2150 H2141 0.930 . S
C2150 C2148 1.384 . S
C2150 C2151 1.372 . S
C2151 C2150 1.372 . S
C2151 C2152 1.400 . S
C2151 C2156 1.490 . S
C2152 H2142 0.930 . S
C2152 C2151 1.400 . S
C2152 C2155 1.386 . S
H2153 C2169 0.930 . S
H2154 C2170 0.931 . S
C2155 H2143 0.929 . S
C2155 C2149 1.390 . S
C2155 C2152 1.386 . S
C2156 C2151 1.490 . S
C2156 C2158 1.395 . S
C2156 C2159 1.403 . S
H2157 C2163 0.930 . S
C2158 H2144 0.930 . S
C2158 C2156 1.395 . S
C2158 C2161 1.403 . S
C2159 C2156 1.403 . S
C2159 C2160 1.524 . S
C2159 C2163 1.400 . S
C2160 H2145 0.960 . S
C2160 H2146 0.960 . S
C2160 H2147 0.960 . S
C2160 C2159 1.524 . S
C2161 C2158 1.403 . S
C2161 C2162 1.392 . S
C2161 C2165 1.495 . S
C2162 C2161 1.392 . S
C2162 C2163 1.385 . S
C2162 C2164 1.478 . S
C2163 H2157 0.930 . S
C2163 C2159 1.400 . S
C2163 C2162 1.385 . S
C2164 C2162 1.478 . S
C2164 C2166 1.381 . S
C2164 C2170 1.383 . S
C2165 C2161 1.495 . S
C2165 H2171 0.959 . S
C2165 H2172 0.961 . S
C2165 H2173 0.960 . S
C2166 C2164 1.381 . S
C2166 C2167 1.394 . S
C2166 H2174 0.930 . S
C2167 C2166 1.394 . S
C2167 C2168 1.383 . S
C2167 H2175 0.929 . S
C2168 C2167 1.383 . S
C2168 C2169 1.377 . S
C2169 H2153 0.930 . S
C2169 C2168 1.377 . S
C2169 C2170 1.379 . S
C2170 H2154 0.931 . S
C2170 C2164 1.383 . S
C2170 C2169 1.379 . S
H2171 C2165 0.959 . S
H2172 C2165 0.961 . S
H2173 C2165 0.960 . S
H2174 C2166 0.930 . S
H2175 C2167 0.929 . S
H2176 C2184 0.929 . S
H2177 C2186 0.930 . S
H2178 C2188 0.930 . S
H2179 C2191 0.929 . S
H2180 C2194 0.930 . S
H2181 C2196 0.960 . S
H2182 C2196 0.960 . S
H2183 C2196 0.960 . S
C2184 H2176 0.929 . S
C2184 C2185 1.377 . S
C2184 C2186 1.384 . S
C2185 C2184 1.377 . S
C2185 C2191 1.390 . S
C2186 H2177 0.930 . S
C2186 C2184 1.384 . S
C2186 C2187 1.372 . S
C2187 C2186 1.372 . S
C2187 C2188 1.400 . S
C2187 C2192 1.490 . S
C2188 H2178 0.930 . S
C2188 C2187 1.400 . S
C2188 C2191 1.386 . S
H2189 C2205 0.930 . S
H2190 C2206 0.931 . S
C2191 H2179 0.929 . S
C2191 C2185 1.390 . S
C2191 C2188 1.386 . S
C2192 C2187 1.490 . S
C2192 C2194 1.395 . S
C2192 C2195 1.403 . S
H2193 C2199 0.930 . S
C2194 H2180 0.930 . S
C2194 C2192 1.395 . S
C2194 C2197 1.403 . S
C2195 C2192 1.403 . S
C2195 C2196 1.524 . S
C2195 C2199 1.400 . S
C2196 H2181 0.960 . S
C2196 H2182 0.960 . S
C2196 H2183 0.960 . S
C2196 C2195 1.524 . S
C2197 C2194 1.403 . S
C2197 C2198 1.392 . S
C2197 C2201 1.495 . S
C2198 C2197 1.392 . S
C2198 C2199 1.385 . S
C2198 C2200 1.478 . S
C2199 H2193 0.930 . S
C2199 C2195 1.400 . S
C2199 C2198 1.385 . S
C2200 C2198 1.478 . S
C2200 C2202 1.381 . S
C2200 C2206 1.383 . S
C2201 C2197 1.495 . S
C2201 H2207 0.959 . S
C2201 H2208 0.961 . S
C2201 H2209 0.960 . S
C2202 C2200 1.381 . S
C2202 C2203 1.394 . S
C2202 H2210 0.930 . S
C2203 C2202 1.394 . S
C2203 C2204 1.383 . S
C2203 H2211 0.929 . S
C2204 C2203 1.383 . S
C2204 C2205 1.377 . S
C2205 H2189 0.930 . S
C2205 C2204 1.377 . S
C2205 C2206 1.379 . S
C2206 H2190 0.931 . S
C2206 C2200 1.383 . S
C2206 C2205 1.379 . S
H2207 C2201 0.959 . S
H2208 C2201 0.961 . S
H2209 C2201 0.960 . S
H2210 C2202 0.930 . S
H2211 C2203 0.929 . S
H2212 C2220 0.929 . S
H2213 C2222 0.930 . S
H2214 C2224 0.930 . S
H2215 C2227 0.929 . S
H2216 C2230 0.930 . S
H2217 C2232 0.960 . S
H2218 C2232 0.960 . S
H2219 C2232 0.960 . S
C2220 H2212 0.929 . S
C2220 C2221 1.377 . S
C2220 C2222 1.384 . S
C2221 C2220 1.377 . S
C2221 C2227 1.390 . S
C2222 H2213 0.930 . S
C2222 C2220 1.384 . S
C2222 C2223 1.372 . S
C2223 C2222 1.372 . S
C2223 C2224 1.400 . S
C2223 C2228 1.490 . S
C2224 H2214 0.930 . S
C2224 C2223 1.400 . S
C2224 C2227 1.386 . S
H2225 C2241 0.930 . S
H2226 C2242 0.931 . S
C2227 H2215 0.929 . S
C2227 C2221 1.390 . S
C2227 C2224 1.386 . S
C2228 C2223 1.490 . S
C2228 C2230 1.395 . S
C2228 C2231 1.403 . S
H2229 C2235 0.930 . S
C2230 H2216 0.930 . S
C2230 C2228 1.395 . S
C2230 C2233 1.403 . S
C2231 C2228 1.403 . S
C2231 C2232 1.524 . S
C2231 C2235 1.400 . S
C2232 H2217 0.960 . S
C2232 H2218 0.960 . S
C2232 H2219 0.960 . S
C2232 C2231 1.524 . S
C2233 C2230 1.403 . S
C2233 C2234 1.392 . S
C2233 C2237 1.495 . S
C2234 C2233 1.392 . S
C2234 C2235 1.385 . S
C2234 C2236 1.478 . S
C2235 H2229 0.930 . S
C2235 C2231 1.400 . S
C2235 C2234 1.385 . S
C2236 C2234 1.478 . S
C2236 C2238 1.381 . S
C2236 C2242 1.383 . S
C2237 C2233 1.495 . S
C2237 H2243 0.959 . S
C2237 H2244 0.961 . S
C2237 H2245 0.960 . S
C2238 C2236 1.381 . S
C2238 C2239 1.394 . S
C2238 H2246 0.930 . S
C2239 C2238 1.394 . S
C2239 C2240 1.383 . S
C2239 H2247 0.929 . S
C2240 C2239 1.383 . S
C2240 C2241 1.377 . S
C2241 H2225 0.930 . S
C2241 C2240 1.377 . S
C2241 C2242 1.379 . S
C2242 H2226 0.931 . S
C2242 C2236 1.383 . S
C2242 C2241 1.379 . S
H2243 C2237 0.959 . S
H2244 C2237 0.961 . S
H2245 C2237 0.960 . S
H2246 C2238 0.930 . S
H2247 C2239 0.929 . S
H2248 C2256 0.929 . S
H2249 C2258 0.930 . S
H2250 C2260 0.930 . S
H2251 C2263 0.929 . S
H2252 C2266 0.930 . S
H2253 C2268 0.960 . S
H2254 C2268 0.960 . S
H2255 C2268 0.960 . S
C2256 H2248 0.929 . S
C2256 C2257 1.377 . S
C2256 C2258 1.384 . S
C2257 C2256 1.377 . S
C2257 C2263 1.390 . S
C2258 H2249 0.930 . S
C2258 C2256 1.384 . S
C2258 C2259 1.372 . S
C2259 C2258 1.372 . S
C2259 C2260 1.400 . S
C2259 C2264 1.490 . S
C2260 H2250 0.930 . S
C2260 C2259 1.400 . S
C2260 C2263 1.386 . S
H2261 C2277 0.930 . S
H2262 C2278 0.931 . S
C2263 H2251 0.929 . S
C2263 C2257 1.390 . S
C2263 C2260 1.386 . S
C2264 C2259 1.490 . S
C2264 C2266 1.395 . S
C2264 C2267 1.403 . S
H2265 C2271 0.930 . S
C2266 H2252 0.930 . S
C2266 C2264 1.395 . S
C2266 C2269 1.403 . S
C2267 C2264 1.403 . S
C2267 C2268 1.524 . S
C2267 C2271 1.400 . S
C2268 H2253 0.960 . S
C2268 H2254 0.960 . S
C2268 H2255 0.960 . S
C2268 C2267 1.524 . S
C2269 C2266 1.403 . S
C2269 C2270 1.392 . S
C2269 C2273 1.495 . S
C2270 C2269 1.392 . S
C2270 C2271 1.385 . S
C2270 C2272 1.478 . S
C2271 H2265 0.930 . S
C2271 C2267 1.400 . S
C2271 C2270 1.385 . S
C2272 C2270 1.478 . S
C2272 C2274 1.381 . S
C2272 C2278 1.383 . S
C2273 C2269 1.495 . S
C2273 H2279 0.959 . S
C2273 H2280 0.961 . S
C2273 H2281 0.960 . S
C2274 C2272 1.381 . S
C2274 C2275 1.394 . S
C2274 H2282 0.930 . S
C2275 C2274 1.394 . S
C2275 C2276 1.383 . S
C2275 H2283 0.929 . S
C2276 C2275 1.383 . S
C2276 C2277 1.377 . S
C2277 H2261 0.930 . S
C2277 C2276 1.377 . S
C2277 C2278 1.379 . S
C2278 H2262 0.931 . S
C2278 C2272 1.383 . S
C2278 C2277 1.379 . S
H2279 C2273 0.959 . S
H2280 C2273 0.961 . S
H2281 C2273 0.960 . S
H2282 C2274 0.930 . S
H2283 C2275 0.929 . S
H2284 C2292 0.929 . S
H2285 C2294 0.930 . S
H2286 C2296 0.930 . S
H2287 C2299 0.929 . S
H2288 C2302 0.930 . S
H2289 C2304 0.960 . S
H2290 C2304 0.960 . S
H2291 C2304 0.960 . S
C2292 H2284 0.929 . S
C2292 C2293 1.377 . S
C2292 C2294 1.384 . S
C2293 C2292 1.377 . S
C2293 C2299 1.390 . S
C2294 H2285 0.930 . S
C2294 C2292 1.384 . S
C2294 C2295 1.372 . S
C2295 C2294 1.372 . S
C2295 C2296 1.400 . S
C2295 C2300 1.490 . S
C2296 H2286 0.930 . S
C2296 C2295 1.400 . S
C2296 C2299 1.386 . S
H2297 C2313 0.930 . S
H2298 C2314 0.931 . S
C2299 H2287 0.929 . S
C2299 C2293 1.390 . S
C2299 C2296 1.386 . S
C2300 C2295 1.490 . S
C2300 C2302 1.395 . S
C2300 C2303 1.403 . S
H2301 C2307 0.930 . S
C2302 H2288 0.930 . S
C2302 C2300 1.395 . S
C2302 C2305 1.403 . S
C2303 C2300 1.403 . S
C2303 C2304 1.524 . S
C2303 C2307 1.400 . S
C2304 H2289 0.960 . S
C2304 H2290 0.960 . S
C2304 H2291 0.960 . S
C2304 C2303 1.524 . S
C2305 C2302 1.403 . S
C2305 C2306 1.392 . S
C2305 C2309 1.495 . S
C2306 C2305 1.392 . S
C2306 C2307 1.385 . S
C2306 C2308 1.478 . S
C2307 H2301 0.930 . S
C2307 C2303 1.400 . S
C2307 C2306 1.385 . S
C2308 C2306 1.478 . S
C2308 C2310 1.381 . S
C2308 C2314 1.383 . S
C2309 C2305 1.495 . S
C2309 H2315 0.959 . S
C2309 H2316 0.961 . S
C2309 H2317 0.960 . S
C2310 C2308 1.381 . S
C2310 C2311 1.394 . S
C2310 H2318 0.930 . S
C2311 C2310 1.394 . S
C2311 C2312 1.383 . S
C2311 H2319 0.929 . S
C2312 C2311 1.383 . S
C2312 C2313 1.377 . S
C2313 H2297 0.930 . S
C2313 C2312 1.377 . S
C2313 C2314 1.379 . S
C2314 H2298 0.931 . S
C2314 C2308 1.383 . S
C2314 C2313 1.379 . S
H2315 C2309 0.959 . S
H2316 C2309 0.961 . S
H2317 C2309 0.960 . S
H2318 C2310 0.930 . S
H2319 C2311 0.929 . S
H2320 C2328 0.929 . S
H2321 C2330 0.930 . S
H2322 C2332 0.930 . S
H2323 C2335 0.929 . S
H2324 C2338 0.930 . S
H2325 C2340 0.960 . S
H2326 C2340 0.960 . S
H2327 C2340 0.960 . S
C2328 H2320 0.929 . S
C2328 C2329 1.377 . S
C2328 C2330 1.384 . S
C2329 C2328 1.377 . S
C2329 C2335 1.390 . S
C2330 H2321 0.930 . S
C2330 C2328 1.384 . S
C2330 C2331 1.372 . S
C2331 C2330 1.372 . S
C2331 C2332 1.400 . S
C2331 C2336 1.490 . S
C2332 H2322 0.930 . S
C2332 C2331 1.400 . S
C2332 C2335 1.386 . S
H2333 C2349 0.930 . S
H2334 C2350 0.931 . S
C2335 H2323 0.929 . S
C2335 C2329 1.390 . S
C2335 C2332 1.386 . S
C2336 C2331 1.490 . S
C2336 C2338 1.395 . S
C2336 C2339 1.403 . S
H2337 C2343 0.930 . S
C2338 H2324 0.930 . S
C2338 C2336 1.395 . S
C2338 C2341 1.403 . S
C2339 C2336 1.403 . S
C2339 C2340 1.524 . S
C2339 C2343 1.400 . S
C2340 H2325 0.960 . S
C2340 H2326 0.960 . S
C2340 H2327 0.960 . S
C2340 C2339 1.524 . S
C2341 C2338 1.403 . S
C2341 C2342 1.392 . S
C2341 C2345 1.495 . S
C2342 C2341 1.392 . S
C2342 C2343 1.385 . S
C2342 C2344 1.478 . S
C2343 H2337 0.930 . S
C2343 C2339 1.400 . S
C2343 C2342 1.385 . S
C2344 C2342 1.478 . S
C2344 C2346 1.381 . S
C2344 C2350 1.383 . S
C2345 C2341 1.495 . S
C2345 H2351 0.959 . S
C2345 H2352 0.961 . S
C2345 H2353 0.960 . S
C2346 C2344 1.381 . S
C2346 C2347 1.394 . S
C2346 H2354 0.930 . S
C2347 C2346 1.394 . S
C2347 C2348 1.383 . S
C2347 H2355 0.929 . S
C2348 C2347 1.383 . S
C2348 C2349 1.377 . S
C2349 H2333 0.930 . S
C2349 C2348 1.377 . S
C2349 C2350 1.379 . S
C2350 H2334 0.931 . S
C2350 C2344 1.383 . S
C2350 C2349 1.379 . S
H2351 C2345 0.959 . S
H2352 C2345 0.961 . S
H2353 C2345 0.960 . S
H2354 C2346 0.930 . S
H2355 C2347 0.929 . S
H2356 C2364 0.929 . S
H2357 C2366 0.930 . S
H2358 C2368 0.930 . S
H2359 C2371 0.929 . S
H2360 C2374 0.930 . S
H2361 C2376 0.960 . S
H2362 C2376 0.960 . S
H2363 C2376 0.960 . S
C2364 H2356 0.929 . S
C2364 C2365 1.377 . S
C2364 C2366 1.384 . S
C2365 C2364 1.377 . S
C2365 C2371 1.390 . S
C2366 H2357 0.930 . S
C2366 C2364 1.384 . S
C2366 C2367 1.372 . S
C2367 C2366 1.372 . S
C2367 C2368 1.400 . S
C2367 C2372 1.490 . S
C2368 H2358 0.930 . S
C2368 C2367 1.400 . S
C2368 C2371 1.386 . S
H2369 C2385 0.930 . S
H2370 C2386 0.931 . S
C2371 H2359 0.929 . S
C2371 C2365 1.390 . S
C2371 C2368 1.386 . S
C2372 C2367 1.490 . S
C2372 C2374 1.395 . S
C2372 C2375 1.403 . S
H2373 C2379 0.930 . S
C2374 H2360 0.930 . S
C2374 C2372 1.395 . S
C2374 C2377 1.403 . S
C2375 C2372 1.403 . S
C2375 C2376 1.524 . S
C2375 C2379 1.400 . S
C2376 H2361 0.960 . S
C2376 H2362 0.960 . S
C2376 H2363 0.960 . S
C2376 C2375 1.524 . S
C2377 C2374 1.403 . S
C2377 C2378 1.392 . S
C2377 C2381 1.495 . S
C2378 C2377 1.392 . S
C2378 C2379 1.385 . S
C2378 C2380 1.478 . S
C2379 H2373 0.930 . S
C2379 C2375 1.400 . S
C2379 C2378 1.385 . S
C2380 C2378 1.478 . S
C2380 C2382 1.381 . S
C2380 C2386 1.383 . S
C2381 C2377 1.495 . S
C2381 H2387 0.959 . S
C2381 H2388 0.961 . S
C2381 H2389 0.960 . S
C2382 C2380 1.381 . S
C2382 C2383 1.394 . S
C2382 H2390 0.930 . S
C2383 C2382 1.394 . S
C2383 C2384 1.383 . S
C2383 H2391 0.929 . S
C2384 C2383 1.383 . S
C2384 C2385 1.377 . S
C2385 H2369 0.930 . S
C2385 C2384 1.377 . S
C2385 C2386 1.379 . S
C2386 H2370 0.931 . S
C2386 C2380 1.383 . S
C2386 C2385 1.379 . S
H2387 C2381 0.959 . S
H2388 C2381 0.961 . S
H2389 C2381 0.960 . S
H2390 C2382 0.930 . S
H2391 C2383 0.929 . S
H2392 C2400 0.929 . S
H2393 C2402 0.930 . S
H2394 C2404 0.930 . S
H2395 C2407 0.929 . S
H2396 C2410 0.930 . S
H2397 C2412 0.960 . S
H2398 C2412 0.960 . S
H2399 C2412 0.960 . S
C2400 H2392 0.929 . S
C2400 C2401 1.377 . S
C2400 C2402 1.384 . S
C2401 C2400 1.377 . S
C2401 C2407 1.390 . S
C2402 H2393 0.930 . S
C2402 C2400 1.384 . S
C2402 C2403 1.372 . S
C2403 C2402 1.372 . S
C2403 C2404 1.400 . S
C2403 C2408 1.490 . S
C2404 H2394 0.930 . S
C2404 C2403 1.400 . S
C2404 C2407 1.386 . S
H2405 C2421 0.930 . S
H2406 C2422 0.931 . S
C2407 H2395 0.929 . S
C2407 C2401 1.390 . S
C2407 C2404 1.386 . S
C2408 C2403 1.490 . S
C2408 C2410 1.395 . S
C2408 C2411 1.403 . S
H2409 C2415 0.930 . S
C2410 H2396 0.930 . S
C2410 C2408 1.395 . S
C2410 C2413 1.403 . S
C2411 C2408 1.403 . S
C2411 C2412 1.524 . S
C2411 C2415 1.400 . S
C2412 H2397 0.960 . S
C2412 H2398 0.960 . S
C2412 H2399 0.960 . S
C2412 C2411 1.524 . S
C2413 C2410 1.403 . S
C2413 C2414 1.392 . S
C2413 C2417 1.495 . S
C2414 C2413 1.392 . S
C2414 C2415 1.385 . S
C2414 C2416 1.478 . S
C2415 H2409 0.930 . S
C2415 C2411 1.400 . S
C2415 C2414 1.385 . S
C2416 C2414 1.478 . S
C2416 C2418 1.381 . S
C2416 C2422 1.383 . S
C2417 C2413 1.495 . S
C2417 H2423 0.959 . S
C2417 H2424 0.961 . S
C2417 H2425 0.960 . S
C2418 C2416 1.381 . S
C2418 C2419 1.394 . S
C2418 H2426 0.930 . S
C2419 C2418 1.394 . S
C2419 C2420 1.383 . S
C2419 H2427 0.929 . S
C2420 C2419 1.383 . S
C2420 C2421 1.377 . S
C2421 H2405 0.930 . S
C2421 C2420 1.377 . S
C2421 C2422 1.379 . S
C2422 H2406 0.931 . S
C2422 C2416 1.383 . S
C2422 C2421 1.379 . S
H2423 C2417 0.959 . S
H2424 C2417 0.961 . S
H2425 C2417 0.960 . S
H2426 C2418 0.930 . S
H2427 C2419 0.929 . S
H2428 C2436 0.929 . S
H2429 C2438 0.930 . S
H2430 C2440 0.930 . S
H2431 C2443 0.929 . S
H2432 C2446 0.930 . S
H2433 C2448 0.960 . S
H2434 C2448 0.960 . S
H2435 C2448 0.960 . S
C2436 H2428 0.929 . S
C2436 C2437 1.377 . S
C2436 C2438 1.384 . S
C2437 C2436 1.377 . S
C2437 C2443 1.390 . S
C2438 H2429 0.930 . S
C2438 C2436 1.384 . S
C2438 C2439 1.372 . S
C2439 C2438 1.372 . S
C2439 C2440 1.400 . S
C2439 C2444 1.490 . S
C2440 H2430 0.930 . S
C2440 C2439 1.400 . S
C2440 C2443 1.386 . S
H2441 C2457 0.930 . S
H2442 C2458 0.931 . S
C2443 H2431 0.929 . S
C2443 C2437 1.390 . S
C2443 C2440 1.386 . S
C2444 C2439 1.490 . S
C2444 C2446 1.395 . S
C2444 C2447 1.403 . S
H2445 C2451 0.930 . S
C2446 H2432 0.930 . S
C2446 C2444 1.395 . S
C2446 C2449 1.403 . S
C2447 C2444 1.403 . S
C2447 C2448 1.524 . S
C2447 C2451 1.400 . S
C2448 H2433 0.960 . S
C2448 H2434 0.960 . S
C2448 H2435 0.960 . S
C2448 C2447 1.524 . S
C2449 C2446 1.403 . S
C2449 C2450 1.392 . S
C2449 C2453 1.495 . S
C2450 C2449 1.392 . S
C2450 C2451 1.385 . S
C2450 C2452 1.478 . S
C2451 H2445 0.930 . S
C2451 C2447 1.400 . S
C2451 C2450 1.385 . S
C2452 C2450 1.478 . S
C2452 C2454 1.381 . S
C2452 C2458 1.383 . S
C2453 C2449 1.495 . S
C2453 H2459 0.959 . S
C2453 H2460 0.961 . S
C2453 H2461 0.960 . S
C2454 C2452 1.381 . S
C2454 C2455 1.394 . S
C2454 H2462 0.930 . S
C2455 C2454 1.394 . S
C2455 C2456 1.383 . S
C2455 H2463 0.929 . S
C2456 C2455 1.383 . S
C2456 C2457 1.377 . S
C2457 H2441 0.930 . S
C2457 C2456 1.377 . S
C2457 C2458 1.379 . S
C2458 H2442 0.931 . S
C2458 C2452 1.383 . S
C2458 C2457 1.379 . S
H2459 C2453 0.959 . S
H2460 C2453 0.961 . S
H2461 C2453 0.960 . S
H2462 C2454 0.930 . S
H2463 C2455 0.929 . S
H2464 C2472 0.929 . S
H2465 C2474 0.930 . S
H2466 C2476 0.930 . S
H2467 C2479 0.929 . S
H2468 C2482 0.930 . S
H2469 C2484 0.960 . S
H2470 C2484 0.960 . S
H2471 C2484 0.960 . S
C2472 H2464 0.929 . S
C2472 C2473 1.377 . S
C2472 C2474 1.384 . S
C2473 C2472 1.377 . S
C2473 C2479 1.390 . S
C2474 H2465 0.930 . S
C2474 C2472 1.384 . S
C2474 C2475 1.372 . S
C2475 C2474 1.372 . S
C2475 C2476 1.400 . S
C2475 C2480 1.490 . S
C2476 H2466 0.930 . S
C2476 C2475 1.400 . S
C2476 C2479 1.386 . S
H2477 C2493 0.930 . S
H2478 C2494 0.931 . S
C2479 H2467 0.929 . S
C2479 C2473 1.390 . S
C2479 C2476 1.386 . S
C2480 C2475 1.490 . S
C2480 C2482 1.395 . S
C2480 C2483 1.403 . S
H2481 C2487 0.930 . S
C2482 H2468 0.930 . S
C2482 C2480 1.395 . S
C2482 C2485 1.403 1_655 S
C2483 C2480 1.403 . S
C2483 C2484 1.524 . S
C2483 C2487 1.400 1_655 S
C2484 H2469 0.960 . S
C2484 H2470 0.960 . S
C2484 H2471 0.960 . S
C2484 C2483 1.524 . S
C2485 C2482 1.403 1_455 S
C2485 C2486 1.392 . S
C2485 C2489 1.495 . S
C2486 C2485 1.392 . S
C2486 C2487 1.385 . S
C2486 C2488 1.478 . S
C2487 H2481 0.930 . S
C2487 C2483 1.400 1_455 S
C2487 C2486 1.385 . S
C2488 C2486 1.478 . S
C2488 C2490 1.381 . S
C2488 C2494 1.383 . S
C2489 C2485 1.495 . S
C2489 H2495 0.959 . S
C2489 H2496 0.961 . S
C2489 H2497 0.960 . S
C2490 C2488 1.381 . S
C2490 C2491 1.394 . S
C2490 H2498 0.930 . S
C2491 C2490 1.394 . S
C2491 C2492 1.383 . S
C2491 H2499 0.929 . S
C2492 C2491 1.383 . S
C2492 C2493 1.377 . S
C2493 H2477 0.930 . S
C2493 C2492 1.377 . S
C2493 C2494 1.379 . S
C2494 H2478 0.931 . S
C2494 C2488 1.383 . S
C2494 C2493 1.379 . S
H2495 C2489 0.959 . S
H2496 C2489 0.961 . S
H2497 C2489 0.960 . S
H2498 C2490 0.930 . S
H2499 C2491 0.929 . S
H2500 C2508 0.929 . S
H2501 C2510 0.930 . S
H2502 C2512 0.930 . S
H2503 C2515 0.929 . S
H2504 C2518 0.930 . S
H2505 C2520 0.960 . S
H2506 C2520 0.960 . S
H2507 C2520 0.960 . S
C2508 H2500 0.929 . S
C2508 C2509 1.377 . S
C2508 C2510 1.384 . S
C2509 C2508 1.377 . S
C2509 C2515 1.390 . S
C2510 H2501 0.930 . S
C2510 C2508 1.384 . S
C2510 C2511 1.372 . S
C2511 C2510 1.372 . S
C2511 C2512 1.400 . S
C2511 C2516 1.490 . S
C2512 H2502 0.930 . S
C2512 C2511 1.400 . S
C2512 C2515 1.386 . S
H2513 C2529 0.930 . S
H2514 C2530 0.931 . S
C2515 H2503 0.929 . S
C2515 C2509 1.390 . S
C2515 C2512 1.386 . S
C2516 C2511 1.490 . S
C2516 C2518 1.395 . S
C2516 C2519 1.403 . S
H2517 C2523 0.930 . S
C2518 H2504 0.930 . S
C2518 C2516 1.395 . S
C2518 C2521 1.403 1_545 S
C2519 C2516 1.403 . S
C2519 C2520 1.524 . S
C2519 C2523 1.400 1_545 S
C2520 H2505 0.960 . S
C2520 H2506 0.960 . S
C2520 H2507 0.960 . S
C2520 C2519 1.524 . S
C2521 C2518 1.403 1_565 S
C2521 C2522 1.392 . S
C2521 C2525 1.495 . S
C2522 C2521 1.392 . S
C2522 C2523 1.385 . S
C2522 C2524 1.478 . S
C2523 H2517 0.930 . S
C2523 C2519 1.400 1_565 S
C2523 C2522 1.385 . S
C2524 C2522 1.478 . S
C2524 C2526 1.381 . S
C2524 C2530 1.383 . S
C2525 C2521 1.495 . S
C2525 H2531 0.959 . S
C2525 H2532 0.961 . S
C2525 H2533 0.960 . S
C2526 C2524 1.381 . S
C2526 C2527 1.394 . S
C2526 H2534 0.930 . S
C2527 C2526 1.394 . S
C2527 C2528 1.383 . S
C2527 H2535 0.929 . S
C2528 C2527 1.383 . S
C2528 C2529 1.377 . S
C2529 H2513 0.930 . S
C2529 C2528 1.377 . S
C2529 C2530 1.379 . S
C2530 H2514 0.931 . S
C2530 C2524 1.383 . S
C2530 C2529 1.379 . S
H2531 C2525 0.959 . S
H2532 C2525 0.961 . S
H2533 C2525 0.960 . S
H2534 C2526 0.930 . S
H2535 C2527 0.929 . S
H2536 C2544 0.929 . S
H2537 C2546 0.930 . S
H2538 C2548 0.930 . S
H2539 C2551 0.929 . S
H2540 C2554 0.930 . S
H2541 C2556 0.960 . S
H2542 C2556 0.960 . S
H2543 C2556 0.960 . S
C2544 H2536 0.929 . S
C2544 C2545 1.377 . S
C2544 C2546 1.384 . S
C2545 C2544 1.377 . S
C2545 C2551 1.390 . S
C2546 H2537 0.930 . S
C2546 C2544 1.384 . S
C2546 C2547 1.372 . S
C2547 C2546 1.372 . S
C2547 C2548 1.400 . S
C2547 C2552 1.490 . S
C2548 H2538 0.930 . S
C2548 C2547 1.400 . S
C2548 C2551 1.386 . S
H2549 C2565 0.930 . S
H2550 C2566 0.931 . S
C2551 H2539 0.929 . S
C2551 C2545 1.390 . S
C2551 C2548 1.386 . S
C2552 C2547 1.490 . S
C2552 C2554 1.395 . S
C2552 C2555 1.403 . S
H2553 C2559 0.930 . S
C2554 H2540 0.930 . S
C2554 C2552 1.395 . S
C2554 C2557 1.403 1_455 S
C2555 C2552 1.403 . S
C2555 C2556 1.524 . S
C2555 C2559 1.400 1_455 S
C2556 H2541 0.960 . S
C2556 H2542 0.960 . S
C2556 H2543 0.960 . S
C2556 C2555 1.524 . S
C2557 C2554 1.403 1_655 S
C2557 C2558 1.392 . S
C2557 C2561 1.495 . S
C2558 C2557 1.392 . S
C2558 C2559 1.385 . S
C2558 C2560 1.478 . S
C2559 H2553 0.930 . S
C2559 C2555 1.400 1_655 S
C2559 C2558 1.385 . S
C2560 C2558 1.478 . S
C2560 C2562 1.381 . S
C2560 C2566 1.383 . S
C2561 C2557 1.495 . S
C2561 H2567 0.959 . S
C2561 H2568 0.961 . S
C2561 H2569 0.960 . S
C2562 C2560 1.381 . S
C2562 C2563 1.394 . S
C2562 H2570 0.930 . S
C2563 C2562 1.394 . S
C2563 C2564 1.383 . S
C2563 H2571 0.929 . S
C2564 C2563 1.383 . S
C2564 C2565 1.377 . S
C2565 H2549 0.930 . S
C2565 C2564 1.377 . S
C2565 C2566 1.379 . S
C2566 H2550 0.931 . S
C2566 C2560 1.383 . S
C2566 C2565 1.379 . S
H2567 C2561 0.959 . S
H2568 C2561 0.961 . S
H2569 C2561 0.960 . S
H2570 C2562 0.930 . S
H2571 C2563 0.929 . S
H2572 C2580 0.929 . S
H2573 C2582 0.930 . S
H2574 C2584 0.930 . S
H2575 C2587 0.929 . S
H2576 C2590 0.930 . S
H2577 C2592 0.960 . S
H2578 C2592 0.960 . S
H2579 C2592 0.960 . S
C2580 H2572 0.929 . S
C2580 C2581 1.377 . S
C2580 C2582 1.384 . S
C2581 C2580 1.377 . S
C2581 C2587 1.390 . S
C2582 H2573 0.930 . S
C2582 C2580 1.384 . S
C2582 C2583 1.372 . S
C2583 C2582 1.372 . S
C2583 C2584 1.400 . S
C2583 C2588 1.490 . S
C2584 H2574 0.930 . S
C2584 C2583 1.400 . S
C2584 C2587 1.386 . S
H2585 C2601 0.930 . S
H2586 C2602 0.931 . S
C2587 H2575 0.929 . S
C2587 C2581 1.390 . S
C2587 C2584 1.386 . S
C2588 C2583 1.490 . S
C2588 C2590 1.395 . S
C2588 C2591 1.403 . S
H2589 C2595 0.930 . S
C2590 H2576 0.930 . S
C2590 C2588 1.395 . S
C2590 C2593 1.403 1_565 S
C2591 C2588 1.403 . S
C2591 C2592 1.524 . S
C2591 C2595 1.400 1_565 S
C2592 H2577 0.960 . S
C2592 H2578 0.960 . S
C2592 H2579 0.960 . S
C2592 C2591 1.524 . S
C2593 C2590 1.403 1_545 S
C2593 C2594 1.392 . S
C2593 C2597 1.495 . S
C2594 C2593 1.392 . S
C2594 C2595 1.385 . S
C2594 C2596 1.478 . S
C2595 H2589 0.930 . S
C2595 C2591 1.400 1_545 S
C2595 C2594 1.385 . S
C2596 C2594 1.478 . S
C2596 C2598 1.381 . S
C2596 C2602 1.383 . S
C2597 C2593 1.495 . S
C2597 H2603 0.959 . S
C2597 H2604 0.961 . S
C2597 H2605 0.960 . S
C2598 C2596 1.381 . S
C2598 C2599 1.394 . S
C2598 H2606 0.930 . S
C2599 C2598 1.394 . S
C2599 C2600 1.383 . S
C2599 H2607 0.929 . S
C2600 C2599 1.383 . S
C2600 C2601 1.377 . S
C2601 H2585 0.930 . S
C2601 C2600 1.377 . S
C2601 C2602 1.379 . S
C2602 H2586 0.931 . S
C2602 C2596 1.383 . S
C2602 C2601 1.379 . S
H2603 C2597 0.959 . S
H2604 C2597 0.961 . S
H2605 C2597 0.960 . S
H2606 C2598 0.930 . S
H2607 C2599 0.929 . S
H2608 C2616 0.929 . S
H2609 C2618 0.930 . S
H2610 C2620 0.930 . S
H2611 C2623 0.929 . S
H2612 C2626 0.930 . S
H2613 C2628 0.960 . S
H2614 C2628 0.960 . S
H2615 C2628 0.960 . S
C2616 H2608 0.929 . S
C2616 C2617 1.377 . S
C2616 C2618 1.384 . S
C2617 C2616 1.377 . S
C2617 C2623 1.390 . S
C2618 H2609 0.930 . S
C2618 C2616 1.384 . S
C2618 C2619 1.372 . S
C2619 C2618 1.372 . S
C2619 C2620 1.400 . S
C2619 C2624 1.490 . S
C2620 H2610 0.930 . S
C2620 C2619 1.400 . S
C2620 C2623 1.386 . S
H2621 C2637 0.930 . S
H2622 C2638 0.931 . S
C2623 H2611 0.929 . S
C2623 C2617 1.390 . S
C2623 C2620 1.386 . S
C2624 C2619 1.490 . S
C2624 C2626 1.395 . S
C2624 C2627 1.403 . S
H2625 C2631 0.930 . S
C2626 H2612 0.930 . S
C2626 C2624 1.395 . S
C2626 C2629 1.403 1_455 S
C2627 C2624 1.403 . S
C2627 C2628 1.524 . S
C2627 C2631 1.400 1_455 S
C2628 H2613 0.960 . S
C2628 H2614 0.960 . S
C2628 H2615 0.960 . S
C2628 C2627 1.524 . S
C2629 C2626 1.403 1_655 S
C2629 C2630 1.392 . S
C2629 C2633 1.495 . S
C2630 C2629 1.392 . S
C2630 C2631 1.385 . S
C2630 C2632 1.478 . S
C2631 H2625 0.930 . S
C2631 C2627 1.400 1_655 S
C2631 C2630 1.385 . S
C2632 C2630 1.478 . S
C2632 C2634 1.381 . S
C2632 C2638 1.383 . S
C2633 C2629 1.495 . S
C2633 H2639 0.959 . S
C2633 H2640 0.961 . S
C2633 H2641 0.960 . S
C2634 C2632 1.381 . S
C2634 C2635 1.394 . S
C2634 H2642 0.930 . S
C2635 C2634 1.394 . S
C2635 C2636 1.383 . S
C2635 H2643 0.929 . S
C2636 C2635 1.383 . S
C2636 C2637 1.377 . S
C2637 H2621 0.930 . S
C2637 C2636 1.377 . S
C2637 C2638 1.379 . S
C2638 H2622 0.931 . S
C2638 C2632 1.383 . S
C2638 C2637 1.379 . S
H2639 C2633 0.959 . S
H2640 C2633 0.961 . S
H2641 C2633 0.960 . S
H2642 C2634 0.930 . S
H2643 C2635 0.929 . S
H2644 C2652 0.929 . S
H2645 C2654 0.930 . S
H2646 C2656 0.930 . S
H2647 C2659 0.929 . S
H2648 C2662 0.930 . S
H2649 C2664 0.960 . S
H2650 C2664 0.960 . S
H2651 C2664 0.960 . S
C2652 H2644 0.929 . S
C2652 C2653 1.377 . S
C2652 C2654 1.384 . S
C2653 C2652 1.377 . S
C2653 C2659 1.390 . S
C2654 H2645 0.930 . S
C2654 C2652 1.384 . S
C2654 C2655 1.372 . S
C2655 C2654 1.372 . S
C2655 C2656 1.400 . S
C2655 C2660 1.490 . S
C2656 H2646 0.930 . S
C2656 C2655 1.400 . S
C2656 C2659 1.386 . S
H2657 C2673 0.930 . S
H2658 C2674 0.931 . S
C2659 H2647 0.929 . S
C2659 C2653 1.390 . S
C2659 C2656 1.386 . S
C2660 C2655 1.490 . S
C2660 C2662 1.395 . S
C2660 C2663 1.403 . S
H2661 C2667 0.930 . S
C2662 H2648 0.930 . S
C2662 C2660 1.395 . S
C2662 C2665 1.403 1_565 S
C2663 C2660 1.403 . S
C2663 C2664 1.524 . S
C2663 C2667 1.400 1_565 S
C2664 H2649 0.960 . S
C2664 H2650 0.960 . S
C2664 H2651 0.960 . S
C2664 C2663 1.524 . S
C2665 C2662 1.403 1_545 S
C2665 C2666 1.392 . S
C2665 C2669 1.495 . S
C2666 C2665 1.392 . S
C2666 C2667 1.385 . S
C2666 C2668 1.478 . S
C2667 H2661 0.930 . S
C2667 C2663 1.400 1_545 S
C2667 C2666 1.385 . S
C2668 C2666 1.478 . S
C2668 C2670 1.381 . S
C2668 C2674 1.383 . S
C2669 C2665 1.495 . S
C2669 H2675 0.959 . S
C2669 H2676 0.961 . S
C2669 H2677 0.960 . S
C2670 C2668 1.381 . S
C2670 C2671 1.394 . S
C2670 H2678 0.930 . S
C2671 C2670 1.394 . S
C2671 C2672 1.383 . S
C2671 H2679 0.929 . S
C2672 C2671 1.383 . S
C2672 C2673 1.377 . S
C2673 H2657 0.930 . S
C2673 C2672 1.377 . S
C2673 C2674 1.379 . S
C2674 H2658 0.931 . S
C2674 C2668 1.383 . S
C2674 C2673 1.379 . S
H2675 C2669 0.959 . S
H2676 C2669 0.961 . S
H2677 C2669 0.960 . S
H2678 C2670 0.930 . S
H2679 C2671 0.929 . S
H2680 C2688 0.929 . S
H2681 C2690 0.930 . S
H2682 C2692 0.930 . S
H2683 C2695 0.929 . S
H2684 C2698 0.930 . S
H2685 C2700 0.960 . S
H2686 C2700 0.960 . S
H2687 C2700 0.960 . S
C2688 H2680 0.929 . S
C2688 C2689 1.377 . S
C2688 C2690 1.384 . S
C2689 C2688 1.377 . S
C2689 C2695 1.390 . S
C2690 H2681 0.930 . S
C2690 C2688 1.384 . S
C2690 C2691 1.372 . S
C2691 C2690 1.372 . S
C2691 C2692 1.400 . S
C2691 C2696 1.490 . S
C2692 H2682 0.930 . S
C2692 C2691 1.400 . S
C2692 C2695 1.386 . S
H2693 C2709 0.930 . S
H2694 C2710 0.931 . S
C2695 H2683 0.929 . S
C2695 C2689 1.390 . S
C2695 C2692 1.386 . S
C2696 C2691 1.490 . S
C2696 C2698 1.395 . S
C2696 C2699 1.403 . S
H2697 C2703 0.930 . S
C2698 H2684 0.930 . S
C2698 C2696 1.395 . S
C2698 C2701 1.403 1_455 S
C2699 C2696 1.403 . S
C2699 C2700 1.524 . S
C2699 C2703 1.400 1_455 S
C2700 H2685 0.960 . S
C2700 H2686 0.960 . S
C2700 H2687 0.960 . S
C2700 C2699 1.524 . S
C2701 C2698 1.403 1_655 S
C2701 C2702 1.392 . S
C2701 C2705 1.495 . S
C2702 C2701 1.392 . S
C2702 C2703 1.385 . S
C2702 C2704 1.478 . S
C2703 H2697 0.930 . S
C2703 C2699 1.400 1_655 S
C2703 C2702 1.385 . S
C2704 C2702 1.478 . S
C2704 C2706 1.381 . S
C2704 C2710 1.383 . S
C2705 C2701 1.495 . S
C2705 H2711 0.959 . S
C2705 H2712 0.961 . S
C2705 H2713 0.960 . S
C2706 C2704 1.381 . S
C2706 C2707 1.394 . S
C2706 H2714 0.930 . S
C2707 C2706 1.394 . S
C2707 C2708 1.383 . S
C2707 H2715 0.929 . S
C2708 C2707 1.383 . S
C2708 C2709 1.377 . S
C2709 H2693 0.930 . S
C2709 C2708 1.377 . S
C2709 C2710 1.379 . S
C2710 H2694 0.931 . S
C2710 C2704 1.383 . S
C2710 C2709 1.379 . S
H2711 C2705 0.959 . S
H2712 C2705 0.961 . S
H2713 C2705 0.960 . S
H2714 C2706 0.930 . S
H2715 C2707 0.929 . S
H2716 C2724 0.929 . S
H2717 C2726 0.930 . S
H2718 C2728 0.930 . S
H2719 C2731 0.929 . S
H2720 C2734 0.930 . S
H2721 C2736 0.960 . S
H2722 C2736 0.960 . S
H2723 C2736 0.960 . S
C2724 H2716 0.929 . S
C2724 C2725 1.377 . S
C2724 C2726 1.384 . S
C2725 C2724 1.377 . S
C2725 C2731 1.390 . S
C2726 H2717 0.930 . S
C2726 C2724 1.384 . S
C2726 C2727 1.372 . S
C2727 C2726 1.372 . S
C2727 C2728 1.400 . S
C2727 C2732 1.490 . S
C2728 H2718 0.930 . S
C2728 C2727 1.400 . S
C2728 C2731 1.386 . S
H2729 C2745 0.930 . S
H2730 C2746 0.931 . S
C2731 H2719 0.929 . S
C2731 C2725 1.390 . S
C2731 C2728 1.386 . S
C2732 C2727 1.490 . S
C2732 C2734 1.395 . S
C2732 C2735 1.403 . S
H2733 C2739 0.930 . S
C2734 H2720 0.930 . S
C2734 C2732 1.395 . S
C2734 C2737 1.403 1_545 S
C2735 C2732 1.403 . S
C2735 C2736 1.524 . S
C2735 C2739 1.400 1_545 S
C2736 H2721 0.960 . S
C2736 H2722 0.960 . S
C2736 H2723 0.960 . S
C2736 C2735 1.524 . S
C2737 C2734 1.403 1_565 S
C2737 C2738 1.392 . S
C2737 C2741 1.495 . S
C2738 C2737 1.392 . S
C2738 C2739 1.385 . S
C2738 C2740 1.478 . S
C2739 H2733 0.930 . S
C2739 C2735 1.400 1_565 S
C2739 C2738 1.385 . S
C2740 C2738 1.478 . S
C2740 C2742 1.381 . S
C2740 C2746 1.383 . S
C2741 C2737 1.495 . S
C2741 H2747 0.959 . S
C2741 H2748 0.961 . S
C2741 H2749 0.960 . S
C2742 C2740 1.381 . S
C2742 C2743 1.394 . S
C2742 H2750 0.930 . S
C2743 C2742 1.394 . S
C2743 C2744 1.383 . S
C2743 H2751 0.929 . S
C2744 C2743 1.383 . S
C2744 C2745 1.377 . S
C2745 H2729 0.930 . S
C2745 C2744 1.377 . S
C2745 C2746 1.379 . S
C2746 H2730 0.931 . S
C2746 C2740 1.383 . S
C2746 C2745 1.379 . S
H2747 C2741 0.959 . S
H2748 C2741 0.961 . S
H2749 C2741 0.960 . S
H2750 C2742 0.930 . S
H2751 C2743 0.929 . S
H2752 C2760 0.929 . S
H2753 C2762 0.930 . S
H2754 C2764 0.930 . S
H2755 C2767 0.929 . S
H2756 C2770 0.930 . S
H2757 C2772 0.960 . S
H2758 C2772 0.960 . S
H2759 C2772 0.960 . S
C2760 H2752 0.929 . S
C2760 C2761 1.377 . S
C2760 C2762 1.384 . S
C2761 C2760 1.377 . S
C2761 C2767 1.390 . S
C2762 H2753 0.930 . S
C2762 C2760 1.384 . S
C2762 C2763 1.372 . S
C2763 C2762 1.372 . S
C2763 C2764 1.400 . S
C2763 C2768 1.490 . S
C2764 H2754 0.930 . S
C2764 C2763 1.400 . S
C2764 C2767 1.386 . S
H2765 C2781 0.930 . S
H2766 C2782 0.931 . S
C2767 H2755 0.929 . S
C2767 C2761 1.390 . S
C2767 C2764 1.386 . S
C2768 C2763 1.490 . S
C2768 C2770 1.395 . S
C2768 C2771 1.403 . S
H2769 C2775 0.930 . S
C2770 H2756 0.930 . S
C2770 C2768 1.395 . S
C2770 C2773 1.403 . S
C2771 C2768 1.403 . S
C2771 C2772 1.524 . S
C2771 C2775 1.400 . S
C2772 H2757 0.960 . S
C2772 H2758 0.960 . S
C2772 H2759 0.960 . S
C2772 C2771 1.524 . S
C2773 C2770 1.403 . S
C2773 C2774 1.392 . S
C2773 C2777 1.495 . S
C2774 C2773 1.392 . S
C2774 C2775 1.385 . S
C2774 C2776 1.478 . S
C2775 H2769 0.930 . S
C2775 C2771 1.400 . S
C2775 C2774 1.385 . S
C2776 C2774 1.478 . S
C2776 C2778 1.381 . S
C2776 C2782 1.383 . S
C2777 C2773 1.495 . S
C2777 H2783 0.959 . S
C2777 H2784 0.961 . S
C2777 H2785 0.960 . S
C2778 C2776 1.381 . S
C2778 C2779 1.394 . S
C2778 H2786 0.930 . S
C2779 C2778 1.394 . S
C2779 C2780 1.383 . S
C2779 H2787 0.929 . S
C2780 C2779 1.383 . S
C2780 C2781 1.377 . S
C2781 H2765 0.930 . S
C2781 C2780 1.377 . S
C2781 C2782 1.379 . S
C2782 H2766 0.931 . S
C2782 C2776 1.383 . S
C2782 C2781 1.379 . S
H2783 C2777 0.959 . S
H2784 C2777 0.961 . S
H2785 C2777 0.960 . S
H2786 C2778 0.930 . S
H2787 C2779 0.929 . S
H2788 C2796 0.929 . S
H2789 C2798 0.930 . S
H2790 C2800 0.930 . S
H2791 C2803 0.929 . S
H2792 C2806 0.930 . S
H2793 C2808 0.960 . S
H2794 C2808 0.960 . S
H2795 C2808 0.960 . S
C2796 H2788 0.929 . S
C2796 C2797 1.377 . S
C2796 C2798 1.384 . S
C2797 C2796 1.377 . S
C2797 C2803 1.390 . S
C2798 H2789 0.930 . S
C2798 C2796 1.384 . S
C2798 C2799 1.372 . S
C2799 C2798 1.372 . S
C2799 C2800 1.400 . S
C2799 C2804 1.490 . S
C2800 H2790 0.930 . S
C2800 C2799 1.400 . S
C2800 C2803 1.386 . S
H2801 C2817 0.930 . S
H2802 C2818 0.931 . S
C2803 H2791 0.929 . S
C2803 C2797 1.390 . S
C2803 C2800 1.386 . S
C2804 C2799 1.490 . S
C2804 C2806 1.395 . S
C2804 C2807 1.403 . S
H2805 C2811 0.930 . S
C2806 H2792 0.930 . S
C2806 C2804 1.395 . S
C2806 C2809 1.403 . S
C2807 C2804 1.403 . S
C2807 C2808 1.524 . S
C2807 C2811 1.400 . S
C2808 H2793 0.960 . S
C2808 H2794 0.960 . S
C2808 H2795 0.960 . S
C2808 C2807 1.524 . S
C2809 C2806 1.403 . S
C2809 C2810 1.392 . S
C2809 C2813 1.495 . S
C2810 C2809 1.392 . S
C2810 C2811 1.385 . S
C2810 C2812 1.478 . S
C2811 H2805 0.930 . S
C2811 C2807 1.400 . S
C2811 C2810 1.385 . S
C2812 C2810 1.478 . S
C2812 C2814 1.381 . S
C2812 C2818 1.383 . S
C2813 C2809 1.495 . S
C2813 H2819 0.959 . S
C2813 H2820 0.961 . S
C2813 H2821 0.960 . S
C2814 C2812 1.381 . S
C2814 C2815 1.394 . S
C2814 H2822 0.930 . S
C2815 C2814 1.394 . S
C2815 C2816 1.383 . S
C2815 H2823 0.929 . S
C2816 C2815 1.383 . S
C2816 C2817 1.377 . S
C2817 H2801 0.930 . S
C2817 C2816 1.377 . S
C2817 C2818 1.379 . S
C2818 H2802 0.931 . S
C2818 C2812 1.383 . S
C2818 C2817 1.379 . S
H2819 C2813 0.959 . S
H2820 C2813 0.961 . S
H2821 C2813 0.960 . S
H2822 C2814 0.930 . S
H2823 C2815 0.929 . S
H2824 C2832 0.929 . S
H2825 C2834 0.930 . S
H2826 C2836 0.930 . S
H2827 C2839 0.929 . S
H2828 C2842 0.930 . S
H2829 C2844 0.960 . S
H2830 C2844 0.960 . S
H2831 C2844 0.960 . S
C2832 H2824 0.929 . S
C2832 C2833 1.377 . S
C2832 C2834 1.384 . S
C2833 C2832 1.377 . S
C2833 C2839 1.390 . S
C2834 H2825 0.930 . S
C2834 C2832 1.384 . S
C2834 C2835 1.372 . S
C2835 C2834 1.372 . S
C2835 C2836 1.400 . S
C2835 C2840 1.490 . S
C2836 H2826 0.930 . S
C2836 C2835 1.400 . S
C2836 C2839 1.386 . S
H2837 C2853 0.930 . S
H2838 C2854 0.931 . S
C2839 H2827 0.929 . S
C2839 C2833 1.390 . S
C2839 C2836 1.386 . S
C2840 C2835 1.490 . S
C2840 C2842 1.395 . S
C2840 C2843 1.403 . S
H2841 C2847 0.930 . S
C2842 H2828 0.930 . S
C2842 C2840 1.395 . S
C2842 C2845 1.403 . S
C2843 C2840 1.403 . S
C2843 C2844 1.524 . S
C2843 C2847 1.400 . S
C2844 H2829 0.960 . S
C2844 H2830 0.960 . S
C2844 H2831 0.960 . S
C2844 C2843 1.524 . S
C2845 C2842 1.403 . S
C2845 C2846 1.392 . S
C2845 C2849 1.495 . S
C2846 C2845 1.392 . S
C2846 C2847 1.385 . S
C2846 C2848 1.478 . S
C2847 H2841 0.930 . S
C2847 C2843 1.400 . S
C2847 C2846 1.385 . S
C2848 C2846 1.478 . S
C2848 C2850 1.381 . S
C2848 C2854 1.383 . S
C2849 C2845 1.495 . S
C2849 H2855 0.959 . S
C2849 H2856 0.961 . S
C2849 H2857 0.960 . S
C2850 C2848 1.381 . S
C2850 C2851 1.394 . S
C2850 H2858 0.930 . S
C2851 C2850 1.394 . S
C2851 C2852 1.383 . S
C2851 H2859 0.929 . S
C2852 C2851 1.383 . S
C2852 C2853 1.377 . S
C2853 H2837 0.930 . S
C2853 C2852 1.377 . S
C2853 C2854 1.379 . S
C2854 H2838 0.931 . S
C2854 C2848 1.383 . S
C2854 C2853 1.379 . S
H2855 C2849 0.959 . S
H2856 C2849 0.961 . S
H2857 C2849 0.960 . S
H2858 C2850 0.930 . S
H2859 C2851 0.929 . S
H2860 C2868 0.929 . S
H2861 C2870 0.930 . S
H2862 C2872 0.930 . S
H2863 C2875 0.929 . S
H2864 C2878 0.930 . S
H2865 C2880 0.960 . S
H2866 C2880 0.960 . S
H2867 C2880 0.960 . S
C2868 H2860 0.929 . S
C2868 C2869 1.377 . S
C2868 C2870 1.384 . S
C2869 C2868 1.377 . S
C2869 C2875 1.390 . S
C2870 H2861 0.930 . S
C2870 C2868 1.384 . S
C2870 C2871 1.372 . S
C2871 C2870 1.372 . S
C2871 C2872 1.400 . S
C2871 C2876 1.490 . S
C2872 H2862 0.930 . S
C2872 C2871 1.400 . S
C2872 C2875 1.386 . S
H2873 C2889 0.930 . S
H2874 C2890 0.931 . S
C2875 H2863 0.929 . S
C2875 C2869 1.390 . S
C2875 C2872 1.386 . S
C2876 C2871 1.490 . S
C2876 C2878 1.395 . S
C2876 C2879 1.403 . S
H2877 C2883 0.930 . S
C2878 H2864 0.930 . S
C2878 C2876 1.395 . S
C2878 C2881 1.403 . S
C2879 C2876 1.403 . S
C2879 C2880 1.524 . S
C2879 C2883 1.400 . S
C2880 H2865 0.960 . S
C2880 H2866 0.960 . S
C2880 H2867 0.960 . S
C2880 C2879 1.524 . S
C2881 C2878 1.403 . S
C2881 C2882 1.392 . S
C2881 C2885 1.495 . S
C2882 C2881 1.392 . S
C2882 C2883 1.385 . S
C2882 C2884 1.478 . S
C2883 H2877 0.930 . S
C2883 C2879 1.400 . S
C2883 C2882 1.385 . S
C2884 C2882 1.478 . S
C2884 C2886 1.381 . S
C2884 C2890 1.383 . S
C2885 C2881 1.495 . S
C2885 H2891 0.959 . S
C2885 H2892 0.961 . S
C2885 H2893 0.960 . S
C2886 C2884 1.381 . S
C2886 C2887 1.394 . S
C2886 H2894 0.930 . S
C2887 C2886 1.394 . S
C2887 C2888 1.383 . S
C2887 H2895 0.929 . S
C2888 C2887 1.383 . S
C2888 C2889 1.377 . S
C2889 H2873 0.930 . S
C2889 C2888 1.377 . S
C2889 C2890 1.379 . S
C2890 H2874 0.931 . S
C2890 C2884 1.383 . S
C2890 C2889 1.379 . S
H2891 C2885 0.959 . S
H2892 C2885 0.961 . S
H2893 C2885 0.960 . S
H2894 C2886 0.930 . S
H2895 C2887 0.929 . S
H2896 C2904 0.929 . S
H2897 C2906 0.930 . S
H2898 C2908 0.930 . S
H2899 C2911 0.929 . S
H2900 C2914 0.930 . S
H2901 C2916 0.960 . S
H2902 C2916 0.960 . S
H2903 C2916 0.960 . S
C2904 H2896 0.929 . S
C2904 C2905 1.377 . S
C2904 C2906 1.384 . S
C2905 C2904 1.377 . S
C2905 C2911 1.390 . S
C2906 H2897 0.930 . S
C2906 C2904 1.384 . S
C2906 C2907 1.372 . S
C2907 C2906 1.372 . S
C2907 C2908 1.400 . S
C2907 C2912 1.490 . S
C2908 H2898 0.930 . S
C2908 C2907 1.400 . S
C2908 C2911 1.386 . S
H2909 C2925 0.930 . S
H2910 C2926 0.931 . S
C2911 H2899 0.929 . S
C2911 C2905 1.390 . S
C2911 C2908 1.386 . S
C2912 C2907 1.490 . S
C2912 C2914 1.395 . S
C2912 C2915 1.403 . S
H2913 C2919 0.930 . S
C2914 H2900 0.930 . S
C2914 C2912 1.395 . S
C2914 C2917 1.403 . S
C2915 C2912 1.403 . S
C2915 C2916 1.524 . S
C2915 C2919 1.400 . S
C2916 H2901 0.960 . S
C2916 H2902 0.960 . S
C2916 H2903 0.960 . S
C2916 C2915 1.524 . S
C2917 C2914 1.403 . S
C2917 C2918 1.392 . S
C2917 C2921 1.495 . S
C2918 C2917 1.392 . S
C2918 C2919 1.385 . S
C2918 C2920 1.478 . S
C2919 H2913 0.930 . S
C2919 C2915 1.400 . S
C2919 C2918 1.385 . S
C2920 C2918 1.478 . S
C2920 C2922 1.381 . S
C2920 C2926 1.383 . S
C2921 C2917 1.495 . S
C2921 H2927 0.959 . S
C2921 H2928 0.961 . S
C2921 H2929 0.960 . S
C2922 C2920 1.381 . S
C2922 C2923 1.394 . S
C2922 H2930 0.930 . S
C2923 C2922 1.394 . S
C2923 C2924 1.383 . S
C2923 H2931 0.929 . S
C2924 C2923 1.383 . S
C2924 C2925 1.377 . S
C2925 H2909 0.930 . S
C2925 C2924 1.377 . S
C2925 C2926 1.379 . S
C2926 H2910 0.931 . S
C2926 C2920 1.383 . S
C2926 C2925 1.379 . S
H2927 C2921 0.959 . S
H2928 C2921 0.961 . S
H2929 C2921 0.960 . S
H2930 C2922 0.930 . S
H2931 C2923 0.929 . S
H2932 C2940 0.929 . S
H2933 C2942 0.930 . S
H2934 C2944 0.930 . S
H2935 C2947 0.929 . S
H2936 C2950 0.930 . S
H2937 C2952 0.960 . S
H2938 C2952 0.960 . S
H2939 C2952 0.960 . S
C2940 H2932 0.929 . S
C2940 C2941 1.377 . S
C2940 C2942 1.384 . S
C2941 C2940 1.377 . S
C2941 C2947 1.390 . S
C2942 H2933 0.930 . S
C2942 C2940 1.384 . S
C2942 C2943 1.372 . S
C2943 C2942 1.372 . S
C2943 C2944 1.400 . S
C2943 C2948 1.490 . S
C2944 H2934 0.930 . S
C2944 C2943 1.400 . S
C2944 C2947 1.386 . S
H2945 C2961 0.930 . S
H2946 C2962 0.931 . S
C2947 H2935 0.929 . S
C2947 C2941 1.390 . S
C2947 C2944 1.386 . S
C2948 C2943 1.490 . S
C2948 C2950 1.395 . S
C2948 C2951 1.403 . S
H2949 C2955 0.930 . S
C2950 H2936 0.930 . S
C2950 C2948 1.395 . S
C2950 C2953 1.403 . S
C2951 C2948 1.403 . S
C2951 C2952 1.524 . S
C2951 C2955 1.400 . S
C2952 H2937 0.960 . S
C2952 H2938 0.960 . S
C2952 H2939 0.960 . S
C2952 C2951 1.524 . S
C2953 C2950 1.403 . S
C2953 C2954 1.392 . S
C2953 C2957 1.495 . S
C2954 C2953 1.392 . S
C2954 C2955 1.385 . S
C2954 C2956 1.478 . S
C2955 H2949 0.930 . S
C2955 C2951 1.400 . S
C2955 C2954 1.385 . S
C2956 C2954 1.478 . S
C2956 C2958 1.381 . S
C2956 C2962 1.383 . S
C2957 C2953 1.495 . S
C2957 H2963 0.959 . S
C2957 H2964 0.961 . S
C2957 H2965 0.960 . S
C2958 C2956 1.381 . S
C2958 C2959 1.394 . S
C2958 H2966 0.930 . S
C2959 C2958 1.394 . S
C2959 C2960 1.383 . S
C2959 H2967 0.929 . S
C2960 C2959 1.383 . S
C2960 C2961 1.377 . S
C2961 H2945 0.930 . S
C2961 C2960 1.377 . S
C2961 C2962 1.379 . S
C2962 H2946 0.931 . S
C2962 C2956 1.383 . S
C2962 C2961 1.379 . S
H2963 C2957 0.959 . S
H2964 C2957 0.961 . S
H2965 C2957 0.960 . S
H2966 C2958 0.930 . S
H2967 C2959 0.929 . S
H2968 C2976 0.929 . S
H2969 C2978 0.930 . S
H2970 C2980 0.930 . S
H2971 C2983 0.929 . S
H2972 C2986 0.930 . S
H2973 C2988 0.960 . S
H2974 C2988 0.960 . S
H2975 C2988 0.960 . S
C2976 H2968 0.929 . S
C2976 C2977 1.377 . S
C2976 C2978 1.384 . S
C2977 C2976 1.377 . S
C2977 C2983 1.390 . S
C2978 H2969 0.930 . S
C2978 C2976 1.384 . S
C2978 C2979 1.372 . S
C2979 C2978 1.372 . S
C2979 C2980 1.400 . S
C2979 C2984 1.490 . S
C2980 H2970 0.930 . S
C2980 C2979 1.400 . S
C2980 C2983 1.386 . S
H2981 C2997 0.930 . S
H2982 C2998 0.931 . S
C2983 H2971 0.929 . S
C2983 C2977 1.390 . S
C2983 C2980 1.386 . S
C2984 C2979 1.490 . S
C2984 C2986 1.395 . S
C2984 C2987 1.403 . S
H2985 C2991 0.930 . S
C2986 H2972 0.930 . S
C2986 C2984 1.395 . S
C2986 C2989 1.403 . S
C2987 C2984 1.403 . S
C2987 C2988 1.524 . S
C2987 C2991 1.400 . S
C2988 H2973 0.960 . S
C2988 H2974 0.960 . S
C2988 H2975 0.960 . S
C2988 C2987 1.524 . S
C2989 C2986 1.403 . S
C2989 C2990 1.392 . S
C2989 C2993 1.495 . S
C2990 C2989 1.392 . S
C2990 C2991 1.385 . S
C2990 C2992 1.478 . S
C2991 H2985 0.930 . S
C2991 C2987 1.400 . S
C2991 C2990 1.385 . S
C2992 C2990 1.478 . S
C2992 C2994 1.381 . S
C2992 C2998 1.383 . S
C2993 C2989 1.495 . S
C2993 H2999 0.959 . S
C2993 H3000 0.961 . S
C2993 H3001 0.960 . S
C2994 C2992 1.381 . S
C2994 C2995 1.394 . S
C2994 H3002 0.930 . S
C2995 C2994 1.394 . S
C2995 C2996 1.383 . S
C2995 H3003 0.929 . S
C2996 C2995 1.383 . S
C2996 C2997 1.377 . S
C2997 H2981 0.930 . S
C2997 C2996 1.377 . S
C2997 C2998 1.379 . S
C2998 H2982 0.931 . S
C2998 C2992 1.383 . S
C2998 C2997 1.379 . S
H2999 C2993 0.959 . S
H3000 C2993 0.961 . S
H3001 C2993 0.960 . S
H3002 C2994 0.930 . S
H3003 C2995 0.929 . S
H3004 C3012 0.929 . S
H3005 C3014 0.930 . S
H3006 C3016 0.930 . S
H3007 C3019 0.929 . S
H3008 C3022 0.930 . S
H3009 C3024 0.960 . S
H3010 C3024 0.960 . S
H3011 C3024 0.960 . S
C3012 H3004 0.929 . S
C3012 C3013 1.377 . S
C3012 C3014 1.384 . S
C3013 C3012 1.377 . S
C3013 C3019 1.390 . S
C3014 H3005 0.930 . S
C3014 C3012 1.384 . S
C3014 C3015 1.372 . S
C3015 C3014 1.372 . S
C3015 C3016 1.400 . S
C3015 C3020 1.490 . S
C3016 H3006 0.930 . S
C3016 C3015 1.400 . S
C3016 C3019 1.386 . S
H3017 C3033 0.930 . S
H3018 C3034 0.931 . S
C3019 H3007 0.929 . S
C3019 C3013 1.390 . S
C3019 C3016 1.386 . S
C3020 C3015 1.490 . S
C3020 C3022 1.395 . S
C3020 C3023 1.403 . S
H3021 C3027 0.930 . S
C3022 H3008 0.930 . S
C3022 C3020 1.395 . S
C3022 C3025 1.403 . S
C3023 C3020 1.403 . S
C3023 C3024 1.524 . S
C3023 C3027 1.400 . S
C3024 H3009 0.960 . S
C3024 H3010 0.960 . S
C3024 H3011 0.960 . S
C3024 C3023 1.524 . S
C3025 C3022 1.403 . S
C3025 C3026 1.392 . S
C3025 C3029 1.495 . S
C3026 C3025 1.392 . S
C3026 C3027 1.385 . S
C3026 C3028 1.478 . S
C3027 H3021 0.930 . S
C3027 C3023 1.400 . S
C3027 C3026 1.385 . S
C3028 C3026 1.478 . S
C3028 C3030 1.381 . S
C3028 C3034 1.383 . S
C3029 C3025 1.495 . S
C3029 H3035 0.959 . S
C3029 H3036 0.961 . S
C3029 H3037 0.960 . S
C3030 C3028 1.381 . S
C3030 C3031 1.394 . S
C3030 H3038 0.930 . S
C3031 C3030 1.394 . S
C3031 C3032 1.383 . S
C3031 H3039 0.929 . S
C3032 C3031 1.383 . S
C3032 C3033 1.377 . S
C3033 H3017 0.930 . S
C3033 C3032 1.377 . S
C3033 C3034 1.379 . S
C3034 H3018 0.931 . S
C3034 C3028 1.383 . S
C3034 C3033 1.379 . S
H3035 C3029 0.959 . S
H3036 C3029 0.961 . S
H3037 C3029 0.960 . S
H3038 C3030 0.930 . S
H3039 C3031 0.929 . S
H3040 C3048 0.929 . S
H3041 C3050 0.930 . S
H3042 C3052 0.930 . S
H3043 C3055 0.929 . S
H3044 C3058 0.930 . S
H3045 C3060 0.960 . S
H3046 C3060 0.960 . S
H3047 C3060 0.960 . S
C3048 H3040 0.929 . S
C3048 C3049 1.377 . S
C3048 C3050 1.384 . S
C3049 C3048 1.377 . S
C3049 C3055 1.390 . S
C3050 H3041 0.930 . S
C3050 C3048 1.384 . S
C3050 C3051 1.372 . S
C3051 C3050 1.372 . S
C3051 C3052 1.400 . S
C3051 C3056 1.490 . S
C3052 H3042 0.930 . S
C3052 C3051 1.400 . S
C3052 C3055 1.386 . S
H3053 C3069 0.930 . S
H3054 C3070 0.931 . S
C3055 H3043 0.929 . S
C3055 C3049 1.390 . S
C3055 C3052 1.386 . S
C3056 C3051 1.490 . S
C3056 C3058 1.395 . S
C3056 C3059 1.403 . S
H3057 C3063 0.930 . S
C3058 H3044 0.930 . S
C3058 C3056 1.395 . S
C3058 C3061 1.403 . S
C3059 C3056 1.403 . S
C3059 C3060 1.524 . S
C3059 C3063 1.400 . S
C3060 H3045 0.960 . S
C3060 H3046 0.960 . S
C3060 H3047 0.960 . S
C3060 C3059 1.524 . S
C3061 C3058 1.403 . S
C3061 C3062 1.392 . S
C3061 C3065 1.495 . S
C3062 C3061 1.392 . S
C3062 C3063 1.385 . S
C3062 C3064 1.478 . S
C3063 H3057 0.930 . S
C3063 C3059 1.400 . S
C3063 C3062 1.385 . S
C3064 C3062 1.478 . S
C3064 C3066 1.381 . S
C3064 C3070 1.383 . S
C3065 C3061 1.495 . S
C3065 H3071 0.959 . S
C3065 H3072 0.961 . S
C3065 H3073 0.960 . S
C3066 C3064 1.381 . S
C3066 C3067 1.394 . S
C3066 H3074 0.930 . S
C3067 C3066 1.394 . S
C3067 C3068 1.383 . S
C3067 H3075 0.929 . S
C3068 C3067 1.383 . S
C3068 C3069 1.377 . S
C3069 H3053 0.930 . S
C3069 C3068 1.377 . S
C3069 C3070 1.379 . S
C3070 H3054 0.931 . S
C3070 C3064 1.383 . S
C3070 C3069 1.379 . S
H3071 C3065 0.959 . S
H3072 C3065 0.961 . S
H3073 C3065 0.960 . S
H3074 C3066 0.930 . S
H3075 C3067 0.929 . S
H3076 C3084 0.929 . S
H3077 C3086 0.930 . S
H3078 C3088 0.930 . S
H3079 C3091 0.929 . S
H3080 C3094 0.930 . S
H3081 C3096 0.960 . S
H3082 C3096 0.960 . S
H3083 C3096 0.960 . S
C3084 H3076 0.929 . S
C3084 C3085 1.377 . S
C3084 C3086 1.384 . S
C3085 C3084 1.377 . S
C3085 C3091 1.390 . S
C3086 H3077 0.930 . S
C3086 C3084 1.384 . S
C3086 C3087 1.372 . S
C3087 C3086 1.372 . S
C3087 C3088 1.400 . S
C3087 C3092 1.490 . S
C3088 H3078 0.930 . S
C3088 C3087 1.400 . S
C3088 C3091 1.386 . S
H3089 C3105 0.930 . S
H3090 C3106 0.931 . S
C3091 H3079 0.929 . S
C3091 C3085 1.390 . S
C3091 C3088 1.386 . S
C3092 C3087 1.490 . S
C3092 C3094 1.395 . S
C3092 C3095 1.403 . S
H3093 C3099 0.930 . S
C3094 H3080 0.930 . S
C3094 C3092 1.395 . S
C3094 C3097 1.403 . S
C3095 C3092 1.403 . S
C3095 C3096 1.524 . S
C3095 C3099 1.400 . S
C3096 H3081 0.960 . S
C3096 H3082 0.960 . S
C3096 H3083 0.960 . S
C3096 C3095 1.524 . S
C3097 C3094 1.403 . S
C3097 C3098 1.392 . S
C3097 C3101 1.495 . S
C3098 C3097 1.392 . S
C3098 C3099 1.385 . S
C3098 C3100 1.478 . S
C3099 H3093 0.930 . S
C3099 C3095 1.400 . S
C3099 C3098 1.385 . S
C3100 C3098 1.478 . S
C3100 C3102 1.381 . S
C3100 C3106 1.383 . S
C3101 C3097 1.495 . S
C3101 H3107 0.959 . S
C3101 H3108 0.961 . S
C3101 H3109 0.960 . S
C3102 C3100 1.381 . S
C3102 C3103 1.394 . S
C3102 H3110 0.930 . S
C3103 C3102 1.394 . S
C3103 C3104 1.383 . S
C3103 H3111 0.929 . S
C3104 C3103 1.383 . S
C3104 C3105 1.377 . S
C3105 H3089 0.930 . S
C3105 C3104 1.377 . S
C3105 C3106 1.379 . S
C3106 H3090 0.931 . S
C3106 C3100 1.383 . S
C3106 C3105 1.379 . S
H3107 C3101 0.959 . S
H3108 C3101 0.961 . S
H3109 C3101 0.960 . S
H3110 C3102 0.930 . S
H3111 C3103 0.929 . S
H3112 C3120 0.929 . S
H3113 C3122 0.930 . S
H3114 C3124 0.930 . S
H3115 C3127 0.929 . S
H3116 C3130 0.930 . S
H3117 C3132 0.960 . S
H3118 C3132 0.960 . S
H3119 C3132 0.960 . S
C3120 H3112 0.929 . S
C3120 C3121 1.377 . S
C3120 C3122 1.384 . S
C3121 C3120 1.377 . S
C3121 C3127 1.390 . S
C3122 H3113 0.930 . S
C3122 C3120 1.384 . S
C3122 C3123 1.372 . S
C3123 C3122 1.372 . S
C3123 C3124 1.400 . S
C3123 C3128 1.490 . S
C3124 H3114 0.930 . S
C3124 C3123 1.400 . S
C3124 C3127 1.386 . S
H3125 C3141 0.930 . S
H3126 C3142 0.931 . S
C3127 H3115 0.929 . S
C3127 C3121 1.390 . S
C3127 C3124 1.386 . S
C3128 C3123 1.490 . S
C3128 C3130 1.395 . S
C3128 C3131 1.403 . S
H3129 C3135 0.930 . S
C3130 H3116 0.930 . S
C3130 C3128 1.395 . S
C3130 C3133 1.403 . S
C3131 C3128 1.403 . S
C3131 C3132 1.524 . S
C3131 C3135 1.400 . S
C3132 H3117 0.960 . S
C3132 H3118 0.960 . S
C3132 H3119 0.960 . S
C3132 C3131 1.524 . S
C3133 C3130 1.403 . S
C3133 C3134 1.392 . S
C3133 C3137 1.495 . S
C3134 C3133 1.392 . S
C3134 C3135 1.385 . S
C3134 C3136 1.478 . S
C3135 H3129 0.930 . S
C3135 C3131 1.400 . S
C3135 C3134 1.385 . S
C3136 C3134 1.478 . S
C3136 C3138 1.381 . S
C3136 C3142 1.383 . S
C3137 C3133 1.495 . S
C3137 H3143 0.959 . S
C3137 H3144 0.961 . S
C3137 H3145 0.960 . S
C3138 C3136 1.381 . S
C3138 C3139 1.394 . S
C3138 H3146 0.930 . S
C3139 C3138 1.394 . S
C3139 C3140 1.383 . S
C3139 H3147 0.929 . S
C3140 C3139 1.383 . S
C3140 C3141 1.377 . S
C3141 H3125 0.930 . S
C3141 C3140 1.377 . S
C3141 C3142 1.379 . S
C3142 H3126 0.931 . S
C3142 C3136 1.383 . S
C3142 C3141 1.379 . S
H3143 C3137 0.959 . S
H3144 C3137 0.961 . S
H3145 C3137 0.960 . S
H3146 C3138 0.930 . S
H3147 C3139 0.929 . S
H3148 C3156 0.929 . S
H3149 C3158 0.930 . S
H3150 C3160 0.930 . S
H3151 C3163 0.929 . S
H3152 C3166 0.930 . S
H3153 C3168 0.960 . S
H3154 C3168 0.960 . S
H3155 C3168 0.960 . S
C3156 H3148 0.929 . S
C3156 C3157 1.377 . S
C3156 C3158 1.384 . S
C3157 C3156 1.377 . S
C3157 C3163 1.390 . S
C3158 H3149 0.930 . S
C3158 C3156 1.384 . S
C3158 C3159 1.372 . S
C3159 C3158 1.372 . S
C3159 C3160 1.400 . S
C3159 C3164 1.490 . S
C3160 H3150 0.930 . S
C3160 C3159 1.400 . S
C3160 C3163 1.386 . S
H3161 C3177 0.930 . S
H3162 C3178 0.931 . S
C3163 H3151 0.929 . S
C3163 C3157 1.390 . S
C3163 C3160 1.386 . S
C3164 C3159 1.490 . S
C3164 C3166 1.395 . S
C3164 C3167 1.403 . S
H3165 C3171 0.930 . S
C3166 H3152 0.930 . S
C3166 C3164 1.395 . S
C3166 C3169 1.403 . S
C3167 C3164 1.403 . S
C3167 C3168 1.524 . S
C3167 C3171 1.400 . S
C3168 H3153 0.960 . S
C3168 H3154 0.960 . S
C3168 H3155 0.960 . S
C3168 C3167 1.524 . S
C3169 C3166 1.403 . S
C3169 C3170 1.392 . S
C3169 C3173 1.495 . S
C3170 C3169 1.392 . S
C3170 C3171 1.385 . S
C3170 C3172 1.478 . S
C3171 H3165 0.930 . S
C3171 C3167 1.400 . S
C3171 C3170 1.385 . S
C3172 C3170 1.478 . S
C3172 C3174 1.381 . S
C3172 C3178 1.383 . S
C3173 C3169 1.495 . S
C3173 H3179 0.959 . S
C3173 H3180 0.961 . S
C3173 H3181 0.960 . S
C3174 C3172 1.381 . S
C3174 C3175 1.394 . S
C3174 H3182 0.930 . S
C3175 C3174 1.394 . S
C3175 C3176 1.383 . S
C3175 H3183 0.929 . S
C3176 C3175 1.383 . S
C3176 C3177 1.377 . S
C3177 H3161 0.930 . S
C3177 C3176 1.377 . S
C3177 C3178 1.379 . S
C3178 H3162 0.931 . S
C3178 C3172 1.383 . S
C3178 C3177 1.379 . S
H3179 C3173 0.959 . S
H3180 C3173 0.961 . S
H3181 C3173 0.960 . S
H3182 C3174 0.930 . S
H3183 C3175 0.929 . S
H3184 C3192 0.929 . S
H3185 C3194 0.930 . S
H3186 C3196 0.930 . S
H3187 C3199 0.929 . S
H3188 C3202 0.930 . S
H3189 C3204 0.960 . S
H3190 C3204 0.960 . S
H3191 C3204 0.960 . S
C3192 H3184 0.929 . S
C3192 C3193 1.377 . S
C3192 C3194 1.384 . S
C3193 C3192 1.377 . S
C3193 C3199 1.390 . S
C3194 H3185 0.930 . S
C3194 C3192 1.384 . S
C3194 C3195 1.372 . S
C3195 C3194 1.372 . S
C3195 C3196 1.400 . S
C3195 C3200 1.490 . S
C3196 H3186 0.930 . S
C3196 C3195 1.400 . S
C3196 C3199 1.386 . S
H3197 C3213 0.930 . S
H3198 C3214 0.931 . S
C3199 H3187 0.929 . S
C3199 C3193 1.390 . S
C3199 C3196 1.386 . S
C3200 C3195 1.490 . S
C3200 C3202 1.395 . S
C3200 C3203 1.403 . S
H3201 C3207 0.930 . S
C3202 H3188 0.930 . S
C3202 C3200 1.395 . S
C3202 C3205 1.403 . S
C3203 C3200 1.403 . S
C3203 C3204 1.524 . S
C3203 C3207 1.400 . S
C3204 H3189 0.960 . S
C3204 H3190 0.960 . S
C3204 H3191 0.960 . S
C3204 C3203 1.524 . S
C3205 C3202 1.403 . S
C3205 C3206 1.392 . S
C3205 C3209 1.495 . S
C3206 C3205 1.392 . S
C3206 C3207 1.385 . S
C3206 C3208 1.478 . S
C3207 H3201 0.930 . S
C3207 C3203 1.400 . S
C3207 C3206 1.385 . S
C3208 C3206 1.478 . S
C3208 C3210 1.381 . S
C3208 C3214 1.383 . S
C3209 C3205 1.495 . S
C3209 H3215 0.959 . S
C3209 H3216 0.961 . S
C3209 H3217 0.960 . S
C3210 C3208 1.381 . S
C3210 C3211 1.394 . S
C3210 H3218 0.930 . S
C3211 C3210 1.394 . S
C3211 C3212 1.383 . S
C3211 H3219 0.929 . S
C3212 C3211 1.383 . S
C3212 C3213 1.377 . S
C3213 H3197 0.930 . S
C3213 C3212 1.377 . S
C3213 C3214 1.379 . S
C3214 H3198 0.931 . S
C3214 C3208 1.383 . S
C3214 C3213 1.379 . S
H3215 C3209 0.959 . S
H3216 C3209 0.961 . S
H3217 C3209 0.960 . S
H3218 C3210 0.930 . S
H3219 C3211 0.929 . S
H3220 C3228 0.929 . S
H3221 C3230 0.930 . S
H3222 C3232 0.930 . S
H3223 C3235 0.929 . S
H3224 C3238 0.930 . S
H3225 C3240 0.960 . S
H3226 C3240 0.960 . S
H3227 C3240 0.960 . S
C3228 H3220 0.929 . S
C3228 C3229 1.377 . S
C3228 C3230 1.384 . S
C3229 C3228 1.377 . S
C3229 C3235 1.390 . S
C3230 H3221 0.930 . S
C3230 C3228 1.384 . S
C3230 C3231 1.372 . S
C3231 C3230 1.372 . S
C3231 C3232 1.400 . S
C3231 C3236 1.490 . S
C3232 H3222 0.930 . S
C3232 C3231 1.400 . S
C3232 C3235 1.386 . S
H3233 C3249 0.930 . S
H3234 C3250 0.931 . S
C3235 H3223 0.929 . S
C3235 C3229 1.390 . S
C3235 C3232 1.386 . S
C3236 C3231 1.490 . S
C3236 C3238 1.395 . S
C3236 C3239 1.403 . S
H3237 C3243 0.930 . S
C3238 H3224 0.930 . S
C3238 C3236 1.395 . S
C3238 C3241 1.403 . S
C3239 C3236 1.403 . S
C3239 C3240 1.524 . S
C3239 C3243 1.400 . S
C3240 H3225 0.960 . S
C3240 H3226 0.960 . S
C3240 H3227 0.960 . S
C3240 C3239 1.524 . S
C3241 C3238 1.403 . S
C3241 C3242 1.392 . S
C3241 C3245 1.495 . S
C3242 C3241 1.392 . S
C3242 C3243 1.385 . S
C3242 C3244 1.478 . S
C3243 H3237 0.930 . S
C3243 C3239 1.400 . S
C3243 C3242 1.385 . S
C3244 C3242 1.478 . S
C3244 C3246 1.381 . S
C3244 C3250 1.383 . S
C3245 C3241 1.495 . S
C3245 H3251 0.959 . S
C3245 H3252 0.961 . S
C3245 H3253 0.960 . S
C3246 C3244 1.381 . S
C3246 C3247 1.394 . S
C3246 H3254 0.930 . S
C3247 C3246 1.394 . S
C3247 C3248 1.383 . S
C3247 H3255 0.929 . S
C3248 C3247 1.383 . S
C3248 C3249 1.377 . S
C3249 H3233 0.930 . S
C3249 C3248 1.377 . S
C3249 C3250 1.379 . S
C3250 H3234 0.931 . S
C3250 C3244 1.383 . S
C3250 C3249 1.379 . S
H3251 C3245 0.959 . S
H3252 C3245 0.961 . S
H3253 C3245 0.960 . S
H3254 C3246 0.930 . S
H3255 C3247 0.929 . S
H3256 C3264 0.929 . S
H3257 C3266 0.930 . S
H3258 C3268 0.930 . S
H3259 C3271 0.929 . S
H3260 C3274 0.930 . S
H3261 C3276 0.960 . S
H3262 C3276 0.960 . S
H3263 C3276 0.960 . S
C3264 H3256 0.929 . S
C3264 C3265 1.377 . S
C3264 C3266 1.384 . S
C3265 C3264 1.377 . S
C3265 C3271 1.390 . S
C3266 H3257 0.930 . S
C3266 C3264 1.384 . S
C3266 C3267 1.372 . S
C3267 C3266 1.372 . S
C3267 C3268 1.400 . S
C3267 C3272 1.490 . S
C3268 H3258 0.930 . S
C3268 C3267 1.400 . S
C3268 C3271 1.386 . S
H3269 C3285 0.930 . S
H3270 C3286 0.931 . S
C3271 H3259 0.929 . S
C3271 C3265 1.390 . S
C3271 C3268 1.386 . S
C3272 C3267 1.490 . S
C3272 C3274 1.395 . S
C3272 C3275 1.403 . S
H3273 C3279 0.930 . S
C3274 H3260 0.930 . S
C3274 C3272 1.395 . S
C3274 C3277 1.403 . S
C3275 C3272 1.403 . S
C3275 C3276 1.524 . S
C3275 C3279 1.400 . S
C3276 H3261 0.960 . S
C3276 H3262 0.960 . S
C3276 H3263 0.960 . S
C3276 C3275 1.524 . S
C3277 C3274 1.403 . S
C3277 C3278 1.392 . S
C3277 C3281 1.495 . S
C3278 C3277 1.392 . S
C3278 C3279 1.385 . S
C3278 C3280 1.478 . S
C3279 H3273 0.930 . S
C3279 C3275 1.400 . S
C3279 C3278 1.385 . S
C3280 C3278 1.478 . S
C3280 C3282 1.381 . S
C3280 C3286 1.383 . S
C3281 C3277 1.495 . S
C3281 H3287 0.959 . S
C3281 H3288 0.961 . S
C3281 H3289 0.960 . S
C3282 C3280 1.381 . S
C3282 C3283 1.394 . S
C3282 H3290 0.930 . S
C3283 C3282 1.394 . S
C3283 C3284 1.383 . S
C3283 H3291 0.929 . S
C3284 C3283 1.383 . S
C3284 C3285 1.377 . S
C3285 H3269 0.930 . S
C3285 C3284 1.377 . S
C3285 C3286 1.379 . S
C3286 H3270 0.931 . S
C3286 C3280 1.383 . S
C3286 C3285 1.379 . S
H3287 C3281 0.959 . S
H3288 C3281 0.961 . S
H3289 C3281 0.960 . S
H3290 C3282 0.930 . S
H3291 C3283 0.929 . S
H3292 C3300 0.929 . S
H3293 C3302 0.930 . S
H3294 C3304 0.930 . S
H3295 C3307 0.929 . S
H3296 C3310 0.930 . S
H3297 C3312 0.960 . S
H3298 C3312 0.960 . S
H3299 C3312 0.960 . S
C3300 H3292 0.929 . S
C3300 C3301 1.377 . S
C3300 C3302 1.384 . S
C3301 C3300 1.377 . S
C3301 C3307 1.390 . S
C3302 H3293 0.930 . S
C3302 C3300 1.384 . S
C3302 C3303 1.372 . S
C3303 C3302 1.372 . S
C3303 C3304 1.400 . S
C3303 C3308 1.490 . S
C3304 H3294 0.930 . S
C3304 C3303 1.400 . S
C3304 C3307 1.386 . S
H3305 C3321 0.930 . S
H3306 C3322 0.931 . S
C3307 H3295 0.929 . S
C3307 C3301 1.390 . S
C3307 C3304 1.386 . S
C3308 C3303 1.490 . S
C3308 C3310 1.395 . S
C3308 C3311 1.403 . S
H3309 C3315 0.930 . S
C3310 H3296 0.930 . S
C3310 C3308 1.395 . S
C3310 C3313 1.403 . S
C3311 C3308 1.403 . S
C3311 C3312 1.524 . S
C3311 C3315 1.400 . S
C3312 H3297 0.960 . S
C3312 H3298 0.960 . S
C3312 H3299 0.960 . S
C3312 C3311 1.524 . S
C3313 C3310 1.403 . S
C3313 C3314 1.392 . S
C3313 C3317 1.495 . S
C3314 C3313 1.392 . S
C3314 C3315 1.385 . S
C3314 C3316 1.478 . S
C3315 H3309 0.930 . S
C3315 C3311 1.400 . S
C3315 C3314 1.385 . S
C3316 C3314 1.478 . S
C3316 C3318 1.381 . S
C3316 C3322 1.383 . S
C3317 C3313 1.495 . S
C3317 H3323 0.959 . S
C3317 H3324 0.961 . S
C3317 H3325 0.960 . S
C3318 C3316 1.381 . S
C3318 C3319 1.394 . S
C3318 H3326 0.930 . S
C3319 C3318 1.394 . S
C3319 C3320 1.383 . S
C3319 H3327 0.929 . S
C3320 C3319 1.383 . S
C3320 C3321 1.377 . S
C3321 H3305 0.930 . S
C3321 C3320 1.377 . S
C3321 C3322 1.379 . S
C3322 H3306 0.931 . S
C3322 C3316 1.383 . S
C3322 C3321 1.379 . S
H3323 C3317 0.959 . S
H3324 C3317 0.961 . S
H3325 C3317 0.960 . S
H3326 C3318 0.930 . S
H3327 C3319 0.929 . S
H3328 C3336 0.929 . S
H3329 C3338 0.930 . S
H3330 C3340 0.930 . S
H3331 C3343 0.929 . S
H3332 C3346 0.930 . S
H3333 C3348 0.960 . S
H3334 C3348 0.960 . S
H3335 C3348 0.960 . S
C3336 H3328 0.929 . S
C3336 C3337 1.377 . S
C3336 C3338 1.384 . S
C3337 C3336 1.377 . S
C3337 C3343 1.390 . S
C3338 H3329 0.930 . S
C3338 C3336 1.384 . S
C3338 C3339 1.372 . S
C3339 C3338 1.372 . S
C3339 C3340 1.400 . S
C3339 C3344 1.490 . S
C3340 H3330 0.930 . S
C3340 C3339 1.400 . S
C3340 C3343 1.386 . S
H3341 C3357 0.930 . S
H3342 C3358 0.931 . S
C3343 H3331 0.929 . S
C3343 C3337 1.390 . S
C3343 C3340 1.386 . S
C3344 C3339 1.490 . S
C3344 C3346 1.395 . S
C3344 C3347 1.403 . S
H3345 C3351 0.930 . S
C3346 H3332 0.930 . S
C3346 C3344 1.395 . S
C3346 C3349 1.403 1_554 S
C3347 C3344 1.403 . S
C3347 C3348 1.524 . S
C3347 C3351 1.400 1_554 S
C3348 H3333 0.960 . S
C3348 H3334 0.960 . S
C3348 H3335 0.960 . S
C3348 C3347 1.524 . S
C3349 C3346 1.403 1_556 S
C3349 C3350 1.392 . S
C3349 C3353 1.495 . S
C3350 C3349 1.392 . S
C3350 C3351 1.385 . S
C3350 C3352 1.478 . S
C3351 H3345 0.930 . S
C3351 C3347 1.400 1_556 S
C3351 C3350 1.385 . S
C3352 C3350 1.478 . S
C3352 C3354 1.381 . S
C3352 C3358 1.383 . S
C3353 C3349 1.495 . S
C3353 H3359 0.959 . S
C3353 H3360 0.961 . S
C3353 H3361 0.960 . S
C3354 C3352 1.381 . S
C3354 C3355 1.394 . S
C3354 H3362 0.930 . S
C3355 C3354 1.394 . S
C3355 C3356 1.383 . S
C3355 H3363 0.929 . S
C3356 C3355 1.383 . S
C3356 C3357 1.377 . S
C3357 H3341 0.930 . S
C3357 C3356 1.377 . S
C3357 C3358 1.379 . S
C3358 H3342 0.931 . S
C3358 C3352 1.383 . S
C3358 C3357 1.379 . S
H3359 C3353 0.959 . S
H3360 C3353 0.961 . S
H3361 C3353 0.960 . S
H3362 C3354 0.930 . S
H3363 C3355 0.929 . S
H3364 C3372 0.929 . S
H3365 C3374 0.930 . S
H3366 C3376 0.930 . S
H3367 C3379 0.929 . S
H3368 C3382 0.930 . S
H3369 C3384 0.960 . S
H3370 C3384 0.960 . S
H3371 C3384 0.960 . S
C3372 H3364 0.929 . S
C3372 C3373 1.377 . S
C3372 C3374 1.384 . S
C3373 C3372 1.377 . S
C3373 C3379 1.390 . S
C3374 H3365 0.930 . S
C3374 C3372 1.384 . S
C3374 C3375 1.372 . S
C3375 C3374 1.372 . S
C3375 C3376 1.400 . S
C3375 C3380 1.490 . S
C3376 H3366 0.930 . S
C3376 C3375 1.400 . S
C3376 C3379 1.386 . S
H3377 C3393 0.930 . S
H3378 C3394 0.931 . S
C3379 H3367 0.929 . S
C3379 C3373 1.390 . S
C3379 C3376 1.386 . S
C3380 C3375 1.490 . S
C3380 C3382 1.395 . S
C3380 C3383 1.403 . S
H3381 C3387 0.930 . S
C3382 H3368 0.930 . S
C3382 C3380 1.395 . S
C3382 C3385 1.403 1_556 S
C3383 C3380 1.403 . S
C3383 C3384 1.524 . S
C3383 C3387 1.400 1_556 S
C3384 H3369 0.960 . S
C3384 H3370 0.960 . S
C3384 H3371 0.960 . S
C3384 C3383 1.524 . S
C3385 C3382 1.403 1_554 S
C3385 C3386 1.392 . S
C3385 C3389 1.495 . S
C3386 C3385 1.392 . S
C3386 C3387 1.385 . S
C3386 C3388 1.478 . S
C3387 H3381 0.930 . S
C3387 C3383 1.400 1_554 S
C3387 C3386 1.385 . S
C3388 C3386 1.478 . S
C3388 C3390 1.381 . S
C3388 C3394 1.383 . S
C3389 C3385 1.495 . S
C3389 H3395 0.959 . S
C3389 H3396 0.961 . S
C3389 H3397 0.960 . S
C3390 C3388 1.381 . S
C3390 C3391 1.394 . S
C3390 H3398 0.930 . S
C3391 C3390 1.394 . S
C3391 C3392 1.383 . S
C3391 H3399 0.929 . S
C3392 C3391 1.383 . S
C3392 C3393 1.377 . S
C3393 H3377 0.930 . S
C3393 C3392 1.377 . S
C3393 C3394 1.379 . S
C3394 H3378 0.931 . S
C3394 C3388 1.383 . S
C3394 C3393 1.379 . S
H3395 C3389 0.959 . S
H3396 C3389 0.961 . S
H3397 C3389 0.960 . S
H3398 C3390 0.930 . S
H3399 C3391 0.929 . S
H3400 C3408 0.929 . S
H3401 C3410 0.930 . S
H3402 C3412 0.930 . S
H3403 C3415 0.929 . S
H3404 C3418 0.930 . S
H3405 C3420 0.960 . S
H3406 C3420 0.960 . S
H3407 C3420 0.960 . S
C3408 H3400 0.929 . S
C3408 C3409 1.377 . S
C3408 C3410 1.384 . S
C3409 C3408 1.377 . S
C3409 C3415 1.390 . S
C3410 H3401 0.930 . S
C3410 C3408 1.384 . S
C3410 C3411 1.372 . S
C3411 C3410 1.372 . S
C3411 C3412 1.400 . S
C3411 C3416 1.490 . S
C3412 H3402 0.930 . S
C3412 C3411 1.400 . S
C3412 C3415 1.386 . S
H3413 C3429 0.930 . S
H3414 C3430 0.931 . S
C3415 H3403 0.929 . S
C3415 C3409 1.390 . S
C3415 C3412 1.386 . S
C3416 C3411 1.490 . S
C3416 C3418 1.395 . S
C3416 C3419 1.403 . S
H3417 C3423 0.930 . S
C3418 H3404 0.930 . S
C3418 C3416 1.395 . S
C3418 C3421 1.403 1_554 S
C3419 C3416 1.403 . S
C3419 C3420 1.524 . S
C3419 C3423 1.400 1_554 S
C3420 H3405 0.960 . S
C3420 H3406 0.960 . S
C3420 H3407 0.960 . S
C3420 C3419 1.524 . S
C3421 C3418 1.403 1_556 S
C3421 C3422 1.392 . S
C3421 C3425 1.495 . S
C3422 C3421 1.392 . S
C3422 C3423 1.385 . S
C3422 C3424 1.478 . S
C3423 H3417 0.930 . S
C3423 C3419 1.400 1_556 S
C3423 C3422 1.385 . S
C3424 C3422 1.478 . S
C3424 C3426 1.381 . S
C3424 C3430 1.383 . S
C3425 C3421 1.495 . S
C3425 H3431 0.959 . S
C3425 H3432 0.961 . S
C3425 H3433 0.960 . S
C3426 C3424 1.381 . S
C3426 C3427 1.394 . S
C3426 H3434 0.930 . S
C3427 C3426 1.394 . S
C3427 C3428 1.383 . S
C3427 H3435 0.929 . S
C3428 C3427 1.383 . S
C3428 C3429 1.377 . S
C3429 H3413 0.930 . S
C3429 C3428 1.377 . S
C3429 C3430 1.379 . S
C3430 H3414 0.931 . S
C3430 C3424 1.383 . S
C3430 C3429 1.379 . S
H3431 C3425 0.959 . S
H3432 C3425 0.961 . S
H3433 C3425 0.960 . S
H3434 C3426 0.930 . S
H3435 C3427 0.929 . S
H3436 C3444 0.929 . S
H3437 C3446 0.930 . S
H3438 C3448 0.930 . S
H3439 C3451 0.929 . S
H3440 C3454 0.930 . S
H3441 C3456 0.960 . S
H3442 C3456 0.960 . S
H3443 C3456 0.960 . S
C3444 H3436 0.929 . S
C3444 C3445 1.377 . S
C3444 C3446 1.384 . S
C3445 C3444 1.377 . S
C3445 C3451 1.390 . S
C3446 H3437 0.930 . S
C3446 C3444 1.384 . S
C3446 C3447 1.372 . S
C3447 C3446 1.372 . S
C3447 C3448 1.400 . S
C3447 C3452 1.490 . S
C3448 H3438 0.930 . S
C3448 C3447 1.400 . S
C3448 C3451 1.386 . S
H3449 C3465 0.930 . S
H3450 C3466 0.931 . S
C3451 H3439 0.929 . S
C3451 C3445 1.390 . S
C3451 C3448 1.386 . S
C3452 C3447 1.490 . S
C3452 C3454 1.395 . S
C3452 C3455 1.403 . S
H3453 C3459 0.930 . S
C3454 H3440 0.930 . S
C3454 C3452 1.395 . S
C3454 C3457 1.403 1_554 S
C3455 C3452 1.403 . S
C3455 C3456 1.524 . S
C3455 C3459 1.400 1_554 S
C3456 H3441 0.960 . S
C3456 H3442 0.960 . S
C3456 H3443 0.960 . S
C3456 C3455 1.524 . S
C3457 C3454 1.403 1_556 S
C3457 C3458 1.392 . S
C3457 C3461 1.495 . S
C3458 C3457 1.392 . S
C3458 C3459 1.385 . S
C3458 C3460 1.478 . S
C3459 H3453 0.930 . S
C3459 C3455 1.400 1_556 S
C3459 C3458 1.385 . S
C3460 C3458 1.478 . S
C3460 C3462 1.381 . S
C3460 C3466 1.383 . S
C3461 C3457 1.495 . S
C3461 H3467 0.959 . S
C3461 H3468 0.961 . S
C3461 H3469 0.960 . S
C3462 C3460 1.381 . S
C3462 C3463 1.394 . S
C3462 H3470 0.930 . S
C3463 C3462 1.394 . S
C3463 C3464 1.383 . S
C3463 H3471 0.929 . S
C3464 C3463 1.383 . S
C3464 C3465 1.377 . S
C3465 H3449 0.930 . S
C3465 C3464 1.377 . S
C3465 C3466 1.379 . S
C3466 H3450 0.931 . S
C3466 C3460 1.383 . S
C3466 C3465 1.379 . S
H3467 C3461 0.959 . S
H3468 C3461 0.961 . S
H3469 C3461 0.960 . S
H3470 C3462 0.930 . S
H3471 C3463 0.929 . S
H3472 C3480 0.929 . S
H3473 C3482 0.930 . S
H3474 C3484 0.930 . S
H3475 C3487 0.929 . S
H3476 C3490 0.930 . S
H3477 C3492 0.960 . S
H3478 C3492 0.960 . S
H3479 C3492 0.960 . S
C3480 H3472 0.929 . S
C3480 C3481 1.377 . S
C3480 C3482 1.384 . S
C3481 C3480 1.377 . S
C3481 C3487 1.390 . S
C3482 H3473 0.930 . S
C3482 C3480 1.384 . S
C3482 C3483 1.372 . S
C3483 C3482 1.372 . S
C3483 C3484 1.400 . S
C3483 C3488 1.490 . S
C3484 H3474 0.930 . S
C3484 C3483 1.400 . S
C3484 C3487 1.386 . S
H3485 C3501 0.930 . S
H3486 C3502 0.931 . S
C3487 H3475 0.929 . S
C3487 C3481 1.390 . S
C3487 C3484 1.386 . S
C3488 C3483 1.490 . S
C3488 C3490 1.395 . S
C3488 C3491 1.403 . S
H3489 C3495 0.930 . S
C3490 H3476 0.930 . S
C3490 C3488 1.395 . S
C3490 C3493 1.403 1_554 S
C3491 C3488 1.403 . S
C3491 C3492 1.524 . S
C3491 C3495 1.400 1_554 S
C3492 H3477 0.960 . S
C3492 H3478 0.960 . S
C3492 H3479 0.960 . S
C3492 C3491 1.524 . S
C3493 C3490 1.403 1_556 S
C3493 C3494 1.392 . S
C3493 C3497 1.495 . S
C3494 C3493 1.392 . S
C3494 C3495 1.385 . S
C3494 C3496 1.478 . S
C3495 H3489 0.930 . S
C3495 C3491 1.400 1_556 S
C3495 C3494 1.385 . S
C3496 C3494 1.478 . S
C3496 C3498 1.381 . S
C3496 C3502 1.383 . S
C3497 C3493 1.495 . S
C3497 H3503 0.959 . S
C3497 H3504 0.961 . S
C3497 H3505 0.960 . S
C3498 C3496 1.381 . S
C3498 C3499 1.394 . S
C3498 H3506 0.930 . S
C3499 C3498 1.394 . S
C3499 C3500 1.383 . S
C3499 H3507 0.929 . S
C3500 C3499 1.383 . S
C3500 C3501 1.377 . S
C3501 H3485 0.930 . S
C3501 C3500 1.377 . S
C3501 C3502 1.379 . S
C3502 H3486 0.931 . S
C3502 C3496 1.383 . S
C3502 C3501 1.379 . S
H3503 C3497 0.959 . S
H3504 C3497 0.961 . S
H3505 C3497 0.960 . S
H3506 C3498 0.930 . S
H3507 C3499 0.929 . S
H3508 C3516 0.929 . S
H3509 C3518 0.930 . S
H3510 C3520 0.930 . S
H3511 C3523 0.929 . S
H3512 C3526 0.930 . S
H3513 C3528 0.960 . S
H3514 C3528 0.960 . S
H3515 C3528 0.960 . S
C3516 H3508 0.929 . S
C3516 C3517 1.377 . S
C3516 C3518 1.384 . S
C3517 C3516 1.377 . S
C3517 C3523 1.390 . S
C3518 H3509 0.930 . S
C3518 C3516 1.384 . S
C3518 C3519 1.372 . S
C3519 C3518 1.372 . S
C3519 C3520 1.400 . S
C3519 C3524 1.490 . S
C3520 H3510 0.930 . S
C3520 C3519 1.400 . S
C3520 C3523 1.386 . S
H3521 C3537 0.930 . S
H3522 C3538 0.931 . S
C3523 H3511 0.929 . S
C3523 C3517 1.390 . S
C3523 C3520 1.386 . S
C3524 C3519 1.490 . S
C3524 C3526 1.395 . S
C3524 C3527 1.403 . S
H3525 C3531 0.930 . S
C3526 H3512 0.930 . S
C3526 C3524 1.395 . S
C3526 C3529 1.403 1_554 S
C3527 C3524 1.403 . S
C3527 C3528 1.524 . S
C3527 C3531 1.400 1_554 S
C3528 H3513 0.960 . S
C3528 H3514 0.960 . S
C3528 H3515 0.960 . S
C3528 C3527 1.524 . S
C3529 C3526 1.403 1_556 S
C3529 C3530 1.392 . S
C3529 C3533 1.495 . S
C3530 C3529 1.392 . S
C3530 C3531 1.385 . S
C3530 C3532 1.478 . S
C3531 H3525 0.930 . S
C3531 C3527 1.400 1_556 S
C3531 C3530 1.385 . S
C3532 C3530 1.478 . S
C3532 C3534 1.381 . S
C3532 C3538 1.383 . S
C3533 C3529 1.495 . S
C3533 H3539 0.959 . S
C3533 H3540 0.961 . S
C3533 H3541 0.960 . S
C3534 C3532 1.381 . S
C3534 C3535 1.394 . S
C3534 H3542 0.930 . S
C3535 C3534 1.394 . S
C3535 C3536 1.383 . S
C3535 H3543 0.929 . S
C3536 C3535 1.383 . S
C3536 C3537 1.377 . S
C3537 H3521 0.930 . S
C3537 C3536 1.377 . S
C3537 C3538 1.379 . S
C3538 H3522 0.931 . S
C3538 C3532 1.383 . S
C3538 C3537 1.379 . S
H3539 C3533 0.959 . S
H3540 C3533 0.961 . S
H3541 C3533 0.960 . S
H3542 C3534 0.930 . S
H3543 C3535 0.929 . S
H3544 C3552 0.929 . S
H3545 C3554 0.930 . S
H3546 C3556 0.930 . S
H3547 C3559 0.929 . S
H3548 C3562 0.930 . S
H3549 C3564 0.960 . S
H3550 C3564 0.960 . S
H3551 C3564 0.960 . S
C3552 H3544 0.929 . S
C3552 C3553 1.377 . S
C3552 C3554 1.384 . S
C3553 C3552 1.377 . S
C3553 C3559 1.390 . S
C3554 H3545 0.930 . S
C3554 C3552 1.384 . S
C3554 C3555 1.372 . S
C3555 C3554 1.372 . S
C3555 C3556 1.400 . S
C3555 C3560 1.490 . S
C3556 H3546 0.930 . S
C3556 C3555 1.400 . S
C3556 C3559 1.386 . S
H3557 C3573 0.930 . S
H3558 C3574 0.931 . S
C3559 H3547 0.929 . S
C3559 C3553 1.390 . S
C3559 C3556 1.386 . S
C3560 C3555 1.490 . S
C3560 C3562 1.395 . S
C3560 C3563 1.403 . S
H3561 C3567 0.930 . S
C3562 H3548 0.930 . S
C3562 C3560 1.395 . S
C3562 C3565 1.403 1_556 S
C3563 C3560 1.403 . S
C3563 C3564 1.524 . S
C3563 C3567 1.400 1_556 S
C3564 H3549 0.960 . S
C3564 H3550 0.960 . S
C3564 H3551 0.960 . S
C3564 C3563 1.524 . S
C3565 C3562 1.403 1_554 S
C3565 C3566 1.392 . S
C3565 C3569 1.495 . S
C3566 C3565 1.392 . S
C3566 C3567 1.385 . S
C3566 C3568 1.478 . S
C3567 H3561 0.930 . S
C3567 C3563 1.400 1_554 S
C3567 C3566 1.385 . S
C3568 C3566 1.478 . S
C3568 C3570 1.381 . S
C3568 C3574 1.383 . S
C3569 C3565 1.495 . S
C3569 H3575 0.959 . S
C3569 H3576 0.961 . S
C3569 H3577 0.960 . S
C3570 C3568 1.381 . S
C3570 C3571 1.394 . S
C3570 H3578 0.930 . S
C3571 C3570 1.394 . S
C3571 C3572 1.383 . S
C3571 H3579 0.929 . S
C3572 C3571 1.383 . S
C3572 C3573 1.377 . S
C3573 H3557 0.930 . S
C3573 C3572 1.377 . S
C3573 C3574 1.379 . S
C3574 H3558 0.931 . S
C3574 C3568 1.383 . S
C3574 C3573 1.379 . S
H3575 C3569 0.959 . S
H3576 C3569 0.961 . S
H3577 C3569 0.960 . S
H3578 C3570 0.930 . S
H3579 C3571 0.929 . S
H3580 C3588 0.929 . S
H3581 C3590 0.930 . S
H3582 C3592 0.930 . S
H3583 C3595 0.929 . S
H3584 C3598 0.930 . S
H3585 C3600 0.960 . S
H3586 C3600 0.960 . S
H3587 C3600 0.960 . S
C3588 H3580 0.929 . S
C3588 C3589 1.377 . S
C3588 C3590 1.384 . S
C3589 C3588 1.377 . S
C3589 C3595 1.390 . S
C3590 H3581 0.930 . S
C3590 C3588 1.384 . S
C3590 C3591 1.372 . S
C3591 C3590 1.372 . S
C3591 C3592 1.400 . S
C3591 C3596 1.490 . S
C3592 H3582 0.930 . S
C3592 C3591 1.400 . S
C3592 C3595 1.386 . S
H3593 C3609 0.930 . S
H3594 C3610 0.931 . S
C3595 H3583 0.929 . S
C3595 C3589 1.390 . S
C3595 C3592 1.386 . S
C3596 C3591 1.490 . S
C3596 C3598 1.395 . S
C3596 C3599 1.403 . S
H3597 C3603 0.930 . S
C3598 H3584 0.930 . S
C3598 C3596 1.395 . S
C3598 C3601 1.403 1_556 S
C3599 C3596 1.403 . S
C3599 C3600 1.524 . S
C3599 C3603 1.400 1_556 S
C3600 H3585 0.960 . S
C3600 H3586 0.960 . S
C3600 H3587 0.960 . S
C3600 C3599 1.524 . S
C3601 C3598 1.403 1_554 S
C3601 C3602 1.392 . S
C3601 C3605 1.495 . S
C3602 C3601 1.392 . S
C3602 C3603 1.385 . S
C3602 C3604 1.478 . S
C3603 H3597 0.930 . S
C3603 C3599 1.400 1_554 S
C3603 C3602 1.385 . S
C3604 C3602 1.478 . S
C3604 C3606 1.381 . S
C3604 C3610 1.383 . S
C3605 C3601 1.495 . S
C3605 H3611 0.959 . S
C3605 H3612 0.961 . S
C3605 H3613 0.960 . S
C3606 C3604 1.381 . S
C3606 C3607 1.394 . S
C3606 H3614 0.930 . S
C3607 C3606 1.394 . S
C3607 C3608 1.383 . S
C3607 H3615 0.929 . S
C3608 C3607 1.383 . S
C3608 C3609 1.377 . S
C3609 H3593 0.930 . S
C3609 C3608 1.377 . S
C3609 C3610 1.379 . S
C3610 H3594 0.931 . S
C3610 C3604 1.383 . S
C3610 C3609 1.379 . S
H3611 C3605 0.959 . S
H3612 C3605 0.961 . S
H3613 C3605 0.960 . S
H3614 C3606 0.930 . S
H3615 C3607 0.929 . S
H3616 C3624 0.929 . S
H3617 C3626 0.930 . S
H3618 C3628 0.930 . S
H3619 C3631 0.929 . S
H3620 C3634 0.930 . S
H3621 C3636 0.960 . S
H3622 C3636 0.960 . S
H3623 C3636 0.960 . S
C3624 H3616 0.929 . S
C3624 C3625 1.377 . S
C3624 C3626 1.384 . S
C3625 C3624 1.377 . S
C3625 C3631 1.390 . S
C3626 H3617 0.930 . S
C3626 C3624 1.384 . S
C3626 C3627 1.372 . S
C3627 C3626 1.372 . S
C3627 C3628 1.400 . S
C3627 C3632 1.490 . S
C3628 H3618 0.930 . S
C3628 C3627 1.400 . S
C3628 C3631 1.386 . S
H3629 C3645 0.930 . S
H3630 C3646 0.931 . S
C3631 H3619 0.929 . S
C3631 C3625 1.390 . S
C3631 C3628 1.386 . S
C3632 C3627 1.490 . S
C3632 C3634 1.395 . S
C3632 C3635 1.403 . S
H3633 C3639 0.930 . S
C3634 H3620 0.930 . S
C3634 C3632 1.395 . S
C3634 C3637 1.403 . S
C3635 C3632 1.403 . S
C3635 C3636 1.524 . S
C3635 C3639 1.400 . S
C3636 H3621 0.960 . S
C3636 H3622 0.960 . S
C3636 H3623 0.960 . S
C3636 C3635 1.524 . S
C3637 C3634 1.403 . S
C3637 C3638 1.392 . S
C3637 C3641 1.495 . S
C3638 C3637 1.392 . S
C3638 C3639 1.385 . S
C3638 C3640 1.478 . S
C3639 H3633 0.930 . S
C3639 C3635 1.400 . S
C3639 C3638 1.385 . S
C3640 C3638 1.478 . S
C3640 C3642 1.381 . S
C3640 C3646 1.383 . S
C3641 C3637 1.495 . S
C3641 H3647 0.959 . S
C3641 H3648 0.961 . S
C3641 H3649 0.960 . S
C3642 C3640 1.381 . S
C3642 C3643 1.394 . S
C3642 H3650 0.930 . S
C3643 C3642 1.394 . S
C3643 C3644 1.383 . S
C3643 H3651 0.929 . S
C3644 C3643 1.383 . S
C3644 C3645 1.377 . S
C3645 H3629 0.930 . S
C3645 C3644 1.377 . S
C3645 C3646 1.379 . S
C3646 H3630 0.931 . S
C3646 C3640 1.383 . S
C3646 C3645 1.379 . S
H3647 C3641 0.959 . S
H3648 C3641 0.961 . S
H3649 C3641 0.960 . S
H3650 C3642 0.930 . S
H3651 C3643 0.929 . S
H3652 C3660 0.929 . S
H3653 C3662 0.930 . S
H3654 C3664 0.930 . S
H3655 C3667 0.929 . S
H3656 C3670 0.930 . S
H3657 C3672 0.960 . S
H3658 C3672 0.960 . S
H3659 C3672 0.960 . S
C3660 H3652 0.929 . S
C3660 C3661 1.377 . S
C3660 C3662 1.384 . S
C3661 C3660 1.377 . S
C3661 C3667 1.390 . S
C3662 H3653 0.930 . S
C3662 C3660 1.384 . S
C3662 C3663 1.372 . S
C3663 C3662 1.372 . S
C3663 C3664 1.400 . S
C3663 C3668 1.490 . S
C3664 H3654 0.930 . S
C3664 C3663 1.400 . S
C3664 C3667 1.386 . S
H3665 C3681 0.930 . S
H3666 C3682 0.931 . S
C3667 H3655 0.929 . S
C3667 C3661 1.390 . S
C3667 C3664 1.386 . S
C3668 C3663 1.490 . S
C3668 C3670 1.395 . S
C3668 C3671 1.403 . S
H3669 C3675 0.930 . S
C3670 H3656 0.930 . S
C3670 C3668 1.395 . S
C3670 C3673 1.403 . S
C3671 C3668 1.403 . S
C3671 C3672 1.524 . S
C3671 C3675 1.400 . S
C3672 H3657 0.960 . S
C3672 H3658 0.960 . S
C3672 H3659 0.960 . S
C3672 C3671 1.524 . S
C3673 C3670 1.403 . S
C3673 C3674 1.392 . S
C3673 C3677 1.495 . S
C3674 C3673 1.392 . S
C3674 C3675 1.385 . S
C3674 C3676 1.478 . S
C3675 H3669 0.930 . S
C3675 C3671 1.400 . S
C3675 C3674 1.385 . S
C3676 C3674 1.478 . S
C3676 C3678 1.381 . S
C3676 C3682 1.383 . S
C3677 C3673 1.495 . S
C3677 H3683 0.959 . S
C3677 H3684 0.961 . S
C3677 H3685 0.960 . S
C3678 C3676 1.381 . S
C3678 C3679 1.394 . S
C3678 H3686 0.930 . S
C3679 C3678 1.394 . S
C3679 C3680 1.383 . S
C3679 H3687 0.929 . S
C3680 C3679 1.383 . S
C3680 C3681 1.377 . S
C3681 H3665 0.930 . S
C3681 C3680 1.377 . S
C3681 C3682 1.379 . S
C3682 H3666 0.931 . S
C3682 C3676 1.383 . S
C3682 C3681 1.379 . S
H3683 C3677 0.959 . S
H3684 C3677 0.961 . S
H3685 C3677 0.960 . S
H3686 C3678 0.930 . S
H3687 C3679 0.929 . S
H3688 C3696 0.929 . S
H3689 C3698 0.930 . S
H3690 C3700 0.930 . S
H3691 C3703 0.929 . S
H3692 C3706 0.930 . S
H3693 C3708 0.960 . S
H3694 C3708 0.960 . S
H3695 C3708 0.960 . S
C3696 H3688 0.929 . S
C3696 C3697 1.377 . S
C3696 C3698 1.384 . S
C3697 C3696 1.377 . S
C3697 C3703 1.390 . S
C3698 H3689 0.930 . S
C3698 C3696 1.384 . S
C3698 C3699 1.372 . S
C3699 C3698 1.372 . S
C3699 C3700 1.400 . S
C3699 C3704 1.490 . S
C3700 H3690 0.930 . S
C3700 C3699 1.400 . S
C3700 C3703 1.386 . S
H3701 C3717 0.930 . S
H3702 C3718 0.931 . S
C3703 H3691 0.929 . S
C3703 C3697 1.390 . S
C3703 C3700 1.386 . S
C3704 C3699 1.490 . S
C3704 C3706 1.395 . S
C3704 C3707 1.403 . S
H3705 C3711 0.930 . S
C3706 H3692 0.930 . S
C3706 C3704 1.395 . S
C3706 C3709 1.403 . S
C3707 C3704 1.403 . S
C3707 C3708 1.524 . S
C3707 C3711 1.400 . S
C3708 H3693 0.960 . S
C3708 H3694 0.960 . S
C3708 H3695 0.960 . S
C3708 C3707 1.524 . S
C3709 C3706 1.403 . S
C3709 C3710 1.392 . S
C3709 C3713 1.495 . S
C3710 C3709 1.392 . S
C3710 C3711 1.385 . S
C3710 C3712 1.478 . S
C3711 H3705 0.930 . S
C3711 C3707 1.400 . S
C3711 C3710 1.385 . S
C3712 C3710 1.478 . S
C3712 C3714 1.381 . S
C3712 C3718 1.383 . S
C3713 C3709 1.495 . S
C3713 H3719 0.959 . S
C3713 H3720 0.961 . S
C3713 H3721 0.960 . S
C3714 C3712 1.381 . S
C3714 C3715 1.394 . S
C3714 H3722 0.930 . S
C3715 C3714 1.394 . S
C3715 C3716 1.383 . S
C3715 H3723 0.929 . S
C3716 C3715 1.383 . S
C3716 C3717 1.377 . S
C3717 H3701 0.930 . S
C3717 C3716 1.377 . S
C3717 C3718 1.379 . S
C3718 H3702 0.931 . S
C3718 C3712 1.383 . S
C3718 C3717 1.379 . S
H3719 C3713 0.959 . S
H3720 C3713 0.961 . S
H3721 C3713 0.960 . S
H3722 C3714 0.930 . S
H3723 C3715 0.929 . S
H3724 C3732 0.929 . S
H3725 C3734 0.930 . S
H3726 C3736 0.930 . S
H3727 C3739 0.929 . S
H3728 C3742 0.930 . S
H3729 C3744 0.960 . S
H3730 C3744 0.960 . S
H3731 C3744 0.960 . S
C3732 H3724 0.929 . S
C3732 C3733 1.377 . S
C3732 C3734 1.384 . S
C3733 C3732 1.377 . S
C3733 C3739 1.390 . S
C3734 H3725 0.930 . S
C3734 C3732 1.384 . S
C3734 C3735 1.372 . S
C3735 C3734 1.372 . S
C3735 C3736 1.400 . S
C3735 C3740 1.490 . S
C3736 H3726 0.930 . S
C3736 C3735 1.400 . S
C3736 C3739 1.386 . S
H3737 C3753 0.930 . S
H3738 C3754 0.931 . S
C3739 H3727 0.929 . S
C3739 C3733 1.390 . S
C3739 C3736 1.386 . S
C3740 C3735 1.490 . S
C3740 C3742 1.395 . S
C3740 C3743 1.403 . S
H3741 C3747 0.930 . S
C3742 H3728 0.930 . S
C3742 C3740 1.395 . S
C3742 C3745 1.403 . S
C3743 C3740 1.403 . S
C3743 C3744 1.524 . S
C3743 C3747 1.400 . S
C3744 H3729 0.960 . S
C3744 H3730 0.960 . S
C3744 H3731 0.960 . S
C3744 C3743 1.524 . S
C3745 C3742 1.403 . S
C3745 C3746 1.392 . S
C3745 C3749 1.495 . S
C3746 C3745 1.392 . S
C3746 C3747 1.385 . S
C3746 C3748 1.478 . S
C3747 H3741 0.930 . S
C3747 C3743 1.400 . S
C3747 C3746 1.385 . S
C3748 C3746 1.478 . S
C3748 C3750 1.381 . S
C3748 C3754 1.383 . S
C3749 C3745 1.495 . S
C3749 H3755 0.959 . S
C3749 H3756 0.961 . S
C3749 H3757 0.960 . S
C3750 C3748 1.381 . S
C3750 C3751 1.394 . S
C3750 H3758 0.930 . S
C3751 C3750 1.394 . S
C3751 C3752 1.383 . S
C3751 H3759 0.929 . S
C3752 C3751 1.383 . S
C3752 C3753 1.377 . S
C3753 H3737 0.930 . S
C3753 C3752 1.377 . S
C3753 C3754 1.379 . S
C3754 H3738 0.931 . S
C3754 C3748 1.383 . S
C3754 C3753 1.379 . S
H3755 C3749 0.959 . S
H3756 C3749 0.961 . S
H3757 C3749 0.960 . S
H3758 C3750 0.930 . S
H3759 C3751 0.929 . S
H3760 C3768 0.929 . S
H3761 C3770 0.930 . S
H3762 C3772 0.930 . S
H3763 C3775 0.929 . S
H3764 C3778 0.930 . S
H3765 C3780 0.960 . S
H3766 C3780 0.960 . S
H3767 C3780 0.960 . S
C3768 H3760 0.929 . S
C3768 C3769 1.377 . S
C3768 C3770 1.384 . S
C3769 C3768 1.377 . S
C3769 C3775 1.390 . S
C3770 H3761 0.930 . S
C3770 C3768 1.384 . S
C3770 C3771 1.372 . S
C3771 C3770 1.372 . S
C3771 C3772 1.400 . S
C3771 C3776 1.490 . S
C3772 H3762 0.930 . S
C3772 C3771 1.400 . S
C3772 C3775 1.386 . S
H3773 C3789 0.930 . S
H3774 C3790 0.931 . S
C3775 H3763 0.929 . S
C3775 C3769 1.390 . S
C3775 C3772 1.386 . S
C3776 C3771 1.490 . S
C3776 C3778 1.395 . S
C3776 C3779 1.403 . S
H3777 C3783 0.930 . S
C3778 H3764 0.930 . S
C3778 C3776 1.395 . S
C3778 C3781 1.403 . S
C3779 C3776 1.403 . S
C3779 C3780 1.524 . S
C3779 C3783 1.400 . S
C3780 H3765 0.960 . S
C3780 H3766 0.960 . S
C3780 H3767 0.960 . S
C3780 C3779 1.524 . S
C3781 C3778 1.403 . S
C3781 C3782 1.392 . S
C3781 C3785 1.495 . S
C3782 C3781 1.392 . S
C3782 C3783 1.385 . S
C3782 C3784 1.478 . S
C3783 H3777 0.930 . S
C3783 C3779 1.400 . S
C3783 C3782 1.385 . S
C3784 C3782 1.478 . S
C3784 C3786 1.381 . S
C3784 C3790 1.383 . S
C3785 C3781 1.495 . S
C3785 H3791 0.959 . S
C3785 H3792 0.961 . S
C3785 H3793 0.960 . S
C3786 C3784 1.381 . S
C3786 C3787 1.394 . S
C3786 H3794 0.930 . S
C3787 C3786 1.394 . S
C3787 C3788 1.383 . S
C3787 H3795 0.929 . S
C3788 C3787 1.383 . S
C3788 C3789 1.377 . S
C3789 H3773 0.930 . S
C3789 C3788 1.377 . S
C3789 C3790 1.379 . S
C3790 H3774 0.931 . S
C3790 C3784 1.383 . S
C3790 C3789 1.379 . S
H3791 C3785 0.959 . S
H3792 C3785 0.961 . S
H3793 C3785 0.960 . S
H3794 C3786 0.930 . S
H3795 C3787 0.929 . S
H3796 C3804 0.929 . S
H3797 C3806 0.930 . S
H3798 C3808 0.930 . S
H3799 C3811 0.929 . S
H3800 C3814 0.930 . S
H3801 C3816 0.960 . S
H3802 C3816 0.960 . S
H3803 C3816 0.960 . S
C3804 H3796 0.929 . S
C3804 C3805 1.377 . S
C3804 C3806 1.384 . S
C3805 C3804 1.377 . S
C3805 C3811 1.390 . S
C3806 H3797 0.930 . S
C3806 C3804 1.384 . S
C3806 C3807 1.372 . S
C3807 C3806 1.372 . S
C3807 C3808 1.400 . S
C3807 C3812 1.490 . S
C3808 H3798 0.930 . S
C3808 C3807 1.400 . S
C3808 C3811 1.386 . S
H3809 C3825 0.930 . S
H3810 C3826 0.931 . S
C3811 H3799 0.929 . S
C3811 C3805 1.390 . S
C3811 C3808 1.386 . S
C3812 C3807 1.490 . S
C3812 C3814 1.395 . S
C3812 C3815 1.403 . S
H3813 C3819 0.930 . S
C3814 H3800 0.930 . S
C3814 C3812 1.395 . S
C3814 C3817 1.403 . S
C3815 C3812 1.403 . S
C3815 C3816 1.524 . S
C3815 C3819 1.400 . S
C3816 H3801 0.960 . S
C3816 H3802 0.960 . S
C3816 H3803 0.960 . S
C3816 C3815 1.524 . S
C3817 C3814 1.403 . S
C3817 C3818 1.392 . S
C3817 C3821 1.495 . S
C3818 C3817 1.392 . S
C3818 C3819 1.385 . S
C3818 C3820 1.478 . S
C3819 H3813 0.930 . S
C3819 C3815 1.400 . S
C3819 C3818 1.385 . S
C3820 C3818 1.478 . S
C3820 C3822 1.381 . S
C3820 C3826 1.383 . S
C3821 C3817 1.495 . S
C3821 H3827 0.959 . S
C3821 H3828 0.961 . S
C3821 H3829 0.960 . S
C3822 C3820 1.381 . S
C3822 C3823 1.394 . S
C3822 H3830 0.930 . S
C3823 C3822 1.394 . S
C3823 C3824 1.383 . S
C3823 H3831 0.929 . S
C3824 C3823 1.383 . S
C3824 C3825 1.377 . S
C3825 H3809 0.930 . S
C3825 C3824 1.377 . S
C3825 C3826 1.379 . S
C3826 H3810 0.931 . S
C3826 C3820 1.383 . S
C3826 C3825 1.379 . S
H3827 C3821 0.959 . S
H3828 C3821 0.961 . S
H3829 C3821 0.960 . S
H3830 C3822 0.930 . S
H3831 C3823 0.929 . S
H3832 C3840 0.929 . S
H3833 C3842 0.930 . S
H3834 C3844 0.930 . S
H3835 C3847 0.929 . S
H3836 C3850 0.930 . S
H3837 C3852 0.960 . S
H3838 C3852 0.960 . S
H3839 C3852 0.960 . S
C3840 H3832 0.929 . S
C3840 C3841 1.377 . S
C3840 C3842 1.384 . S
C3841 C3840 1.377 . S
C3841 C3847 1.390 . S
C3842 H3833 0.930 . S
C3842 C3840 1.384 . S
C3842 C3843 1.372 . S
C3843 C3842 1.372 . S
C3843 C3844 1.400 . S
C3843 C3848 1.490 . S
C3844 H3834 0.930 . S
C3844 C3843 1.400 . S
C3844 C3847 1.386 . S
H3845 C3861 0.930 . S
H3846 C3862 0.931 . S
C3847 H3835 0.929 . S
C3847 C3841 1.390 . S
C3847 C3844 1.386 . S
C3848 C3843 1.490 . S
C3848 C3850 1.395 . S
C3848 C3851 1.403 . S
H3849 C3855 0.930 . S
C3850 H3836 0.930 . S
C3850 C3848 1.395 . S
C3850 C3853 1.403 . S
C3851 C3848 1.403 . S
C3851 C3852 1.524 . S
C3851 C3855 1.400 . S
C3852 H3837 0.960 . S
C3852 H3838 0.960 . S
C3852 H3839 0.960 . S
C3852 C3851 1.524 . S
C3853 C3850 1.403 . S
C3853 C3854 1.392 . S
C3853 C3857 1.495 . S
C3854 C3853 1.392 . S
C3854 C3855 1.385 . S
C3854 C3856 1.478 . S
C3855 H3849 0.930 . S
C3855 C3851 1.400 . S
C3855 C3854 1.385 . S
C3856 C3854 1.478 . S
C3856 C3858 1.381 . S
C3856 C3862 1.383 . S
C3857 C3853 1.495 . S
C3857 H3863 0.959 . S
C3857 H3864 0.961 . S
C3857 H3865 0.960 . S
C3858 C3856 1.381 . S
C3858 C3859 1.394 . S
C3858 H3866 0.930 . S
C3859 C3858 1.394 . S
C3859 C3860 1.383 . S
C3859 H3867 0.929 . S
C3860 C3859 1.383 . S
C3860 C3861 1.377 . S
C3861 H3845 0.930 . S
C3861 C3860 1.377 . S
C3861 C3862 1.379 . S
C3862 H3846 0.931 . S
C3862 C3856 1.383 . S
C3862 C3861 1.379 . S
H3863 C3857 0.959 . S
H3864 C3857 0.961 . S
H3865 C3857 0.960 . S
H3866 C3858 0.930 . S
H3867 C3859 0.929 . S
H3868 C3876 0.929 . S
H3869 C3878 0.930 . S
H3870 C3880 0.930 . S
H3871 C3883 0.929 . S
H3872 C3886 0.930 . S
H3873 C3888 0.960 . S
H3874 C3888 0.960 . S
H3875 C3888 0.960 . S
C3876 H3868 0.929 . S
C3876 C3877 1.377 . S
C3876 C3878 1.384 . S
C3877 C3876 1.377 . S
C3877 C3883 1.390 . S
C3878 H3869 0.930 . S
C3878 C3876 1.384 . S
C3878 C3879 1.372 . S
C3879 C3878 1.372 . S
C3879 C3880 1.400 . S
C3879 C3884 1.490 . S
C3880 H3870 0.930 . S
C3880 C3879 1.400 . S
C3880 C3883 1.386 . S
H3881 C3897 0.930 . S
H3882 C3898 0.931 . S
C3883 H3871 0.929 . S
C3883 C3877 1.390 . S
C3883 C3880 1.386 . S
C3884 C3879 1.490 . S
C3884 C3886 1.395 . S
C3884 C3887 1.403 . S
H3885 C3891 0.930 . S
C3886 H3872 0.930 . S
C3886 C3884 1.395 . S
C3886 C3889 1.403 . S
C3887 C3884 1.403 . S
C3887 C3888 1.524 . S
C3887 C3891 1.400 . S
C3888 H3873 0.960 . S
C3888 H3874 0.960 . S
C3888 H3875 0.960 . S
C3888 C3887 1.524 . S
C3889 C3886 1.403 . S
C3889 C3890 1.392 . S
C3889 C3893 1.495 . S
C3890 C3889 1.392 . S
C3890 C3891 1.385 . S
C3890 C3892 1.478 . S
C3891 H3885 0.930 . S
C3891 C3887 1.400 . S
C3891 C3890 1.385 . S
C3892 C3890 1.478 . S
C3892 C3894 1.381 . S
C3892 C3898 1.383 . S
C3893 C3889 1.495 . S
C3893 H3899 0.959 . S
C3893 H3900 0.961 . S
C3893 H3901 0.960 . S
C3894 C3892 1.381 . S
C3894 C3895 1.394 . S
C3894 H3902 0.930 . S
C3895 C3894 1.394 . S
C3895 C3896 1.383 . S
C3895 H3903 0.929 . S
C3896 C3895 1.383 . S
C3896 C3897 1.377 . S
C3897 H3881 0.930 . S
C3897 C3896 1.377 . S
C3897 C3898 1.379 . S
C3898 H3882 0.931 . S
C3898 C3892 1.383 . S
C3898 C3897 1.379 . S
H3899 C3893 0.959 . S
H3900 C3893 0.961 . S
H3901 C3893 0.960 . S
H3902 C3894 0.930 . S
H3903 C3895 0.929 . S
H3904 C3912 0.929 . S
H3905 C3914 0.930 . S
H3906 C3916 0.930 . S
H3907 C3919 0.929 . S
H3908 C3922 0.930 . S
H3909 C3924 0.960 . S
H3910 C3924 0.960 . S
H3911 C3924 0.960 . S
C3912 H3904 0.929 . S
C3912 C3913 1.377 . S
C3912 C3914 1.384 . S
C3913 C3912 1.377 . S
C3913 C3919 1.390 . S
C3914 H3905 0.930 . S
C3914 C3912 1.384 . S
C3914 C3915 1.372 . S
C3915 C3914 1.372 . S
C3915 C3916 1.400 . S
C3915 C3920 1.490 . S
C3916 H3906 0.930 . S
C3916 C3915 1.400 . S
C3916 C3919 1.386 . S
H3917 C3933 0.930 . S
H3918 C3934 0.931 . S
C3919 H3907 0.929 . S
C3919 C3913 1.390 . S
C3919 C3916 1.386 . S
C3920 C3915 1.490 . S
C3920 C3922 1.395 . S
C3920 C3923 1.403 . S
H3921 C3927 0.930 . S
C3922 H3908 0.930 . S
C3922 C3920 1.395 . S
C3922 C3925 1.403 . S
C3923 C3920 1.403 . S
C3923 C3924 1.524 . S
C3923 C3927 1.400 . S
C3924 H3909 0.960 . S
C3924 H3910 0.960 . S
C3924 H3911 0.960 . S
C3924 C3923 1.524 . S
C3925 C3922 1.403 . S
C3925 C3926 1.392 . S
C3925 C3929 1.495 . S
C3926 C3925 1.392 . S
C3926 C3927 1.385 . S
C3926 C3928 1.478 . S
C3927 H3921 0.930 . S
C3927 C3923 1.400 . S
C3927 C3926 1.385 . S
C3928 C3926 1.478 . S
C3928 C3930 1.381 . S
C3928 C3934 1.383 . S
C3929 C3925 1.495 . S
C3929 H3935 0.959 . S
C3929 H3936 0.961 . S
C3929 H3937 0.960 . S
C3930 C3928 1.381 . S
C3930 C3931 1.394 . S
C3930 H3938 0.930 . S
C3931 C3930 1.394 . S
C3931 C3932 1.383 . S
C3931 H3939 0.929 . S
C3932 C3931 1.383 . S
C3932 C3933 1.377 . S
C3933 H3917 0.930 . S
C3933 C3932 1.377 . S
C3933 C3934 1.379 . S
C3934 H3918 0.931 . S
C3934 C3928 1.383 . S
C3934 C3933 1.379 . S
H3935 C3929 0.959 . S
H3936 C3929 0.961 . S
H3937 C3929 0.960 . S
H3938 C3930 0.930 . S
H3939 C3931 0.929 . S
H3940 C3948 0.929 . S
H3941 C3950 0.930 . S
H3942 C3952 0.930 . S
H3943 C3955 0.929 . S
H3944 C3958 0.930 . S
H3945 C3960 0.960 . S
H3946 C3960 0.960 . S
H3947 C3960 0.960 . S
C3948 H3940 0.929 . S
C3948 C3949 1.377 . S
C3948 C3950 1.384 . S
C3949 C3948 1.377 . S
C3949 C3955 1.390 . S
C3950 H3941 0.930 . S
C3950 C3948 1.384 . S
C3950 C3951 1.372 . S
C3951 C3950 1.372 . S
C3951 C3952 1.400 . S
C3951 C3956 1.490 . S
C3952 H3942 0.930 . S
C3952 C3951 1.400 . S
C3952 C3955 1.386 . S
H3953 C3969 0.930 . S
H3954 C3970 0.931 . S
C3955 H3943 0.929 . S
C3955 C3949 1.390 . S
C3955 C3952 1.386 . S
C3956 C3951 1.490 . S
C3956 C3958 1.395 . S
C3956 C3959 1.403 . S
H3957 C3963 0.930 . S
C3958 H3944 0.930 . S
C3958 C3956 1.395 . S
C3958 C3961 1.403 . S
C3959 C3956 1.403 . S
C3959 C3960 1.524 . S
C3959 C3963 1.400 . S
C3960 H3945 0.960 . S
C3960 H3946 0.960 . S
C3960 H3947 0.960 . S
C3960 C3959 1.524 . S
C3961 C3958 1.403 . S
C3961 C3962 1.392 . S
C3961 C3965 1.495 . S
C3962 C3961 1.392 . S
C3962 C3963 1.385 . S
C3962 C3964 1.478 . S
C3963 H3957 0.930 . S
C3963 C3959 1.400 . S
C3963 C3962 1.385 . S
C3964 C3962 1.478 . S
C3964 C3966 1.381 . S
C3964 C3970 1.383 . S
C3965 C3961 1.495 . S
C3965 H3971 0.959 . S
C3965 H3972 0.961 . S
C3965 H3973 0.960 . S
C3966 C3964 1.381 . S
C3966 C3967 1.394 . S
C3966 H3974 0.930 . S
C3967 C3966 1.394 . S
C3967 C3968 1.383 . S
C3967 H3975 0.929 . S
C3968 C3967 1.383 . S
C3968 C3969 1.377 . S
C3969 H3953 0.930 . S
C3969 C3968 1.377 . S
C3969 C3970 1.379 . S
C3970 H3954 0.931 . S
C3970 C3964 1.383 . S
C3970 C3969 1.379 . S
H3971 C3965 0.959 . S
H3972 C3965 0.961 . S
H3973 C3965 0.960 . S
H3974 C3966 0.930 . S
H3975 C3967 0.929 . S
H3976 C3984 0.929 . S
H3977 C3986 0.930 . S
H3978 C3988 0.930 . S
H3979 C3991 0.929 . S
H3980 C3994 0.930 . S
H3981 C3996 0.960 . S
H3982 C3996 0.960 . S
H3983 C3996 0.960 . S
C3984 H3976 0.929 . S
C3984 C3985 1.377 . S
C3984 C3986 1.384 . S
C3985 C3984 1.377 . S
C3985 C3991 1.390 . S
C3986 H3977 0.930 . S
C3986 C3984 1.384 . S
C3986 C3987 1.372 . S
C3987 C3986 1.372 . S
C3987 C3988 1.400 . S
C3987 C3992 1.490 . S
C3988 H3978 0.930 . S
C3988 C3987 1.400 . S
C3988 C3991 1.386 . S
H3989 C4005 0.930 . S
H3990 C4006 0.931 . S
C3991 H3979 0.929 . S
C3991 C3985 1.390 . S
C3991 C3988 1.386 . S
C3992 C3987 1.490 . S
C3992 C3994 1.395 . S
C3992 C3995 1.403 . S
H3993 C3999 0.930 . S
C3994 H3980 0.930 . S
C3994 C3992 1.395 . S
C3994 C3997 1.403 . S
C3995 C3992 1.403 . S
C3995 C3996 1.524 . S
C3995 C3999 1.400 . S
C3996 H3981 0.960 . S
C3996 H3982 0.960 . S
C3996 H3983 0.960 . S
C3996 C3995 1.524 . S
C3997 C3994 1.403 . S
C3997 C3998 1.392 . S
C3997 C4001 1.495 . S
C3998 C3997 1.392 . S
C3998 C3999 1.385 . S
C3998 C4000 1.478 . S
C3999 H3993 0.930 . S
C3999 C3995 1.400 . S
C3999 C3998 1.385 . S
C4000 C3998 1.478 . S
C4000 C4002 1.381 . S
C4000 C4006 1.383 . S
C4001 C3997 1.495 . S
C4001 H4007 0.959 . S
C4001 H4008 0.961 . S
C4001 H4009 0.960 . S
C4002 C4000 1.381 . S
C4002 C4003 1.394 . S
C4002 H4010 0.930 . S
C4003 C4002 1.394 . S
C4003 C4004 1.383 . S
C4003 H4011 0.929 . S
C4004 C4003 1.383 . S
C4004 C4005 1.377 . S
C4005 H3989 0.930 . S
C4005 C4004 1.377 . S
C4005 C4006 1.379 . S
C4006 H3990 0.931 . S
C4006 C4000 1.383 . S
C4006 C4005 1.379 . S
H4007 C4001 0.959 . S
H4008 C4001 0.961 . S
H4009 C4001 0.960 . S
H4010 C4002 0.930 . S
H4011 C4003 0.929 . S
H4012 C4020 0.929 . S
H4013 C4022 0.930 . S
H4014 C4024 0.930 . S
H4015 C4027 0.929 . S
H4016 C4030 0.930 . S
H4017 C4032 0.960 . S
H4018 C4032 0.960 . S
H4019 C4032 0.960 . S
C4020 H4012 0.929 . S
C4020 C4021 1.377 . S
C4020 C4022 1.384 . S
C4021 C4020 1.377 . S
C4021 C4027 1.390 . S
C4022 H4013 0.930 . S
C4022 C4020 1.384 . S
C4022 C4023 1.372 . S
C4023 C4022 1.372 . S
C4023 C4024 1.400 . S
C4023 C4028 1.490 . S
C4024 H4014 0.930 . S
C4024 C4023 1.400 . S
C4024 C4027 1.386 . S
H4025 C4041 0.930 . S
H4026 C4042 0.931 . S
C4027 H4015 0.929 . S
C4027 C4021 1.390 . S
C4027 C4024 1.386 . S
C4028 C4023 1.490 . S
C4028 C4030 1.395 . S
C4028 C4031 1.403 . S
H4029 C4035 0.930 . S
C4030 H4016 0.930 . S
C4030 C4028 1.395 . S
C4030 C4033 1.403 . S
C4031 C4028 1.403 . S
C4031 C4032 1.524 . S
C4031 C4035 1.400 . S
C4032 H4017 0.960 . S
C4032 H4018 0.960 . S
C4032 H4019 0.960 . S
C4032 C4031 1.524 . S
C4033 C4030 1.403 . S
C4033 C4034 1.392 . S
C4033 C4037 1.495 . S
C4034 C4033 1.392 . S
C4034 C4035 1.385 . S
C4034 C4036 1.478 . S
C4035 H4029 0.930 . S
C4035 C4031 1.400 . S
C4035 C4034 1.385 . S
C4036 C4034 1.478 . S
C4036 C4038 1.381 . S
C4036 C4042 1.383 . S
C4037 C4033 1.495 . S
C4037 H4043 0.959 . S
C4037 H4044 0.961 . S
C4037 H4045 0.960 . S
C4038 C4036 1.381 . S
C4038 C4039 1.394 . S
C4038 H4046 0.930 . S
C4039 C4038 1.394 . S
C4039 C4040 1.383 . S
C4039 H4047 0.929 . S
C4040 C4039 1.383 . S
C4040 C4041 1.377 . S
C4041 H4025 0.930 . S
C4041 C4040 1.377 . S
C4041 C4042 1.379 . S
C4042 H4026 0.931 . S
C4042 C4036 1.383 . S
C4042 C4041 1.379 . S
H4043 C4037 0.959 . S
H4044 C4037 0.961 . S
H4045 C4037 0.960 . S
H4046 C4038 0.930 . S
H4047 C4039 0.929 . S
H4048 C4056 0.929 . S
H4049 C4058 0.930 . S
H4050 C4060 0.930 . S
H4051 C4063 0.929 . S
H4052 C4066 0.930 . S
H4053 C4068 0.960 . S
H4054 C4068 0.960 . S
H4055 C4068 0.960 . S
C4056 H4048 0.929 . S
C4056 C4057 1.377 . S
C4056 C4058 1.384 . S
C4057 C4056 1.377 . S
C4057 C4063 1.390 . S
C4058 H4049 0.930 . S
C4058 C4056 1.384 . S
C4058 C4059 1.372 . S
C4059 C4058 1.372 . S
C4059 C4060 1.400 . S
C4059 C4064 1.490 . S
C4060 H4050 0.930 . S
C4060 C4059 1.400 . S
C4060 C4063 1.386 . S
H4061 C4077 0.930 . S
H4062 C4078 0.931 . S
C4063 H4051 0.929 . S
C4063 C4057 1.390 . S
C4063 C4060 1.386 . S
C4064 C4059 1.490 . S
C4064 C4066 1.395 . S
C4064 C4067 1.403 . S
H4065 C4071 0.930 . S
C4066 H4052 0.930 . S
C4066 C4064 1.395 . S
C4066 C4069 1.403 . S
C4067 C4064 1.403 . S
C4067 C4068 1.524 . S
C4067 C4071 1.400 . S
C4068 H4053 0.960 . S
C4068 H4054 0.960 . S
C4068 H4055 0.960 . S
C4068 C4067 1.524 . S
C4069 C4066 1.403 . S
C4069 C4070 1.392 . S
C4069 C4073 1.495 . S
C4070 C4069 1.392 . S
C4070 C4071 1.385 . S
C4070 C4072 1.478 . S
C4071 H4065 0.930 . S
C4071 C4067 1.400 . S
C4071 C4070 1.385 . S
C4072 C4070 1.478 . S
C4072 C4074 1.381 . S
C4072 C4078 1.383 . S
C4073 C4069 1.495 . S
C4073 H4079 0.959 . S
C4073 H4080 0.961 . S
C4073 H4081 0.960 . S
C4074 C4072 1.381 . S
C4074 C4075 1.394 . S
C4074 H4082 0.930 . S
C4075 C4074 1.394 . S
C4075 C4076 1.383 . S
C4075 H4083 0.929 . S
C4076 C4075 1.383 . S
C4076 C4077 1.377 . S
C4077 H4061 0.930 . S
C4077 C4076 1.377 . S
C4077 C4078 1.379 . S
C4078 H4062 0.931 . S
C4078 C4072 1.383 . S
C4078 C4077 1.379 . S
H4079 C4073 0.959 . S
H4080 C4073 0.961 . S
H4081 C4073 0.960 . S
H4082 C4074 0.930 . S
H4083 C4075 0.929 . S
H4084 C4092 0.929 . S
H4085 C4094 0.930 . S
H4086 C4096 0.930 . S
H4087 C4099 0.929 . S
H4088 C4102 0.930 . S
H4089 C4104 0.960 . S
H4090 C4104 0.960 . S
H4091 C4104 0.960 . S
C4092 H4084 0.929 . S
C4092 C4093 1.377 . S
C4092 C4094 1.384 . S
C4093 C4092 1.377 . S
C4093 C4099 1.390 . S
C4094 H4085 0.930 . S
C4094 C4092 1.384 . S
C4094 C4095 1.372 . S
C4095 C4094 1.372 . S
C4095 C4096 1.400 . S
C4095 C4100 1.490 . S
C4096 H4086 0.930 . S
C4096 C4095 1.400 . S
C4096 C4099 1.386 . S
H4097 C4113 0.930 . S
H4098 C4114 0.931 . S
C4099 H4087 0.929 . S
C4099 C4093 1.390 . S
C4099 C4096 1.386 . S
C4100 C4095 1.490 . S
C4100 C4102 1.395 . S
C4100 C4103 1.403 . S
H4101 C4107 0.930 . S
C4102 H4088 0.930 . S
C4102 C4100 1.395 . S
C4102 C4105 1.403 . S
C4103 C4100 1.403 . S
C4103 C4104 1.524 . S
C4103 C4107 1.400 . S
C4104 H4089 0.960 . S
C4104 H4090 0.960 . S
C4104 H4091 0.960 . S
C4104 C4103 1.524 . S
C4105 C4102 1.403 . S
C4105 C4106 1.392 . S
C4105 C4109 1.495 . S
C4106 C4105 1.392 . S
C4106 C4107 1.385 . S
C4106 C4108 1.478 . S
C4107 H4101 0.930 . S
C4107 C4103 1.400 . S
C4107 C4106 1.385 . S
C4108 C4106 1.478 . S
C4108 C4110 1.381 . S
C4108 C4114 1.383 . S
C4109 C4105 1.495 . S
C4109 H4115 0.959 . S
C4109 H4116 0.961 . S
C4109 H4117 0.960 . S
C4110 C4108 1.381 . S
C4110 C4111 1.394 . S
C4110 H4118 0.930 . S
C4111 C4110 1.394 . S
C4111 C4112 1.383 . S
C4111 H4119 0.929 . S
C4112 C4111 1.383 . S
C4112 C4113 1.377 . S
C4113 H4097 0.930 . S
C4113 C4112 1.377 . S
C4113 C4114 1.379 . S
C4114 H4098 0.931 . S
C4114 C4108 1.383 . S
C4114 C4113 1.379 . S
H4115 C4109 0.959 . S
H4116 C4109 0.961 . S
H4117 C4109 0.960 . S
H4118 C4110 0.930 . S
H4119 C4111 0.929 . S
H4120 C4128 0.929 . S
H4121 C4130 0.930 . S
H4122 C4132 0.930 . S
H4123 C4135 0.929 . S
H4124 C4138 0.930 . S
H4125 C4140 0.960 . S
H4126 C4140 0.960 . S
H4127 C4140 0.960 . S
C4128 H4120 0.929 . S
C4128 C4129 1.377 . S
C4128 C4130 1.384 . S
C4129 C4128 1.377 . S
C4129 C4135 1.390 . S
C4130 H4121 0.930 . S
C4130 C4128 1.384 . S
C4130 C4131 1.372 . S
C4131 C4130 1.372 . S
C4131 C4132 1.400 . S
C4131 C4136 1.490 . S
C4132 H4122 0.930 . S
C4132 C4131 1.400 . S
C4132 C4135 1.386 . S
H4133 C4149 0.930 . S
H4134 C4150 0.931 . S
C4135 H4123 0.929 . S
C4135 C4129 1.390 . S
C4135 C4132 1.386 . S
C4136 C4131 1.490 . S
C4136 C4138 1.395 . S
C4136 C4139 1.403 . S
H4137 C4143 0.930 . S
C4138 H4124 0.930 . S
C4138 C4136 1.395 . S
C4138 C4141 1.403 . S
C4139 C4136 1.403 . S
C4139 C4140 1.524 . S
C4139 C4143 1.400 . S
C4140 H4125 0.960 . S
C4140 H4126 0.960 . S
C4140 H4127 0.960 . S
C4140 C4139 1.524 . S
C4141 C4138 1.403 . S
C4141 C4142 1.392 . S
C4141 C4145 1.495 . S
C4142 C4141 1.392 . S
C4142 C4143 1.385 . S
C4142 C4144 1.478 . S
C4143 H4137 0.930 . S
C4143 C4139 1.400 . S
C4143 C4142 1.385 . S
C4144 C4142 1.478 . S
C4144 C4146 1.381 . S
C4144 C4150 1.383 . S
C4145 C4141 1.495 . S
C4145 H4151 0.959 . S
C4145 H4152 0.961 . S
C4145 H4153 0.960 . S
C4146 C4144 1.381 . S
C4146 C4147 1.394 . S
C4146 H4154 0.930 . S
C4147 C4146 1.394 . S
C4147 C4148 1.383 . S
C4147 H4155 0.929 . S
C4148 C4147 1.383 . S
C4148 C4149 1.377 . S
C4149 H4133 0.930 . S
C4149 C4148 1.377 . S
C4149 C4150 1.379 . S
C4150 H4134 0.931 . S
C4150 C4144 1.383 . S
C4150 C4149 1.379 . S
H4151 C4145 0.959 . S
H4152 C4145 0.961 . S
H4153 C4145 0.960 . S
H4154 C4146 0.930 . S
H4155 C4147 0.929 . S
H4156 C4164 0.929 . S
H4157 C4166 0.930 . S
H4158 C4168 0.930 . S
H4159 C4171 0.929 . S
H4160 C4174 0.930 . S
H4161 C4176 0.960 . S
H4162 C4176 0.960 . S
H4163 C4176 0.960 . S
C4164 H4156 0.929 . S
C4164 C4165 1.377 . S
C4164 C4166 1.384 . S
C4165 C4164 1.377 . S
C4165 C4171 1.390 . S
C4166 H4157 0.930 . S
C4166 C4164 1.384 . S
C4166 C4167 1.372 . S
C4167 C4166 1.372 . S
C4167 C4168 1.400 . S
C4167 C4172 1.490 . S
C4168 H4158 0.930 . S
C4168 C4167 1.400 . S
C4168 C4171 1.386 . S
H4169 C4185 0.930 . S
H4170 C4186 0.931 . S
C4171 H4159 0.929 . S
C4171 C4165 1.390 . S
C4171 C4168 1.386 . S
C4172 C4167 1.490 . S
C4172 C4174 1.395 . S
C4172 C4175 1.403 . S
H4173 C4179 0.930 . S
C4174 H4160 0.930 . S
C4174 C4172 1.395 . S
C4174 C4177 1.403 . S
C4175 C4172 1.403 . S
C4175 C4176 1.524 . S
C4175 C4179 1.400 . S
C4176 H4161 0.960 . S
C4176 H4162 0.960 . S
C4176 H4163 0.960 . S
C4176 C4175 1.524 . S
C4177 C4174 1.403 . S
C4177 C4178 1.392 . S
C4177 C4181 1.495 . S
C4178 C4177 1.392 . S
C4178 C4179 1.385 . S
C4178 C4180 1.478 . S
C4179 H4173 0.930 . S
C4179 C4175 1.400 . S
C4179 C4178 1.385 . S
C4180 C4178 1.478 . S
C4180 C4182 1.381 . S
C4180 C4186 1.383 . S
C4181 C4177 1.495 . S
C4181 H4187 0.959 . S
C4181 H4188 0.961 . S
C4181 H4189 0.960 . S
C4182 C4180 1.381 . S
C4182 C4183 1.394 . S
C4182 H4190 0.930 . S
C4183 C4182 1.394 . S
C4183 C4184 1.383 . S
C4183 H4191 0.929 . S
C4184 C4183 1.383 . S
C4184 C4185 1.377 . S
C4185 H4169 0.930 . S
C4185 C4184 1.377 . S
C4185 C4186 1.379 . S
C4186 H4170 0.931 . S
C4186 C4180 1.383 . S
C4186 C4185 1.379 . S
H4187 C4181 0.959 . S
H4188 C4181 0.961 . S
H4189 C4181 0.960 . S
H4190 C4182 0.930 . S
H4191 C4183 0.929 . S
C1897 C937 1.612 . S
C1916 C52 1.608 . S
C1933 C111 1.614 . S
C1952 C760 1.609 . S
C1969 C170 1.614 . S
C1988 C819 1.609 . S
C2005 C878 1.614 . S
C2024 C229 1.609 . S
C2041 C288 1.611 . S
C2060 C583 1.611 . S
C2077 C347 1.612 . S
C2096 C642 1.615 . S
C2113 C701 1.612 . S
C2132 C406 1.609 . S
C2149 C524 1.614 . S
C2168 C465 1.610 . S
C2185 C996 1.612 . S
C2204 C1881 1.608 . S
C2221 C1055 1.614 . S
C2240 C1704 1.610 . S
C2257 C1114 1.614 . S
C2276 C1763 1.607 . S
C2293 C1822 1.614 . S
C2312 C1173 1.609 . S
C2329 C1232 1.613 . S
C2348 C1527 1.604 . S
C2365 C1291 1.611 . S
C2384 C1586 1.613 . S
C2401 C1645 1.613 . S
C2420 C1350 1.614 . S
C2437 C1409 1.613 . S
C2456 C1468 1.612 . S
C2473 C713 1.550 . S
C2492 C5 1.551 . S
C2509 C64 1.551 . S
C2528 C772 1.554 . S
C2545 C831 1.550 . S
C2564 C123 1.548 . S
C2581 C182 1.552 . S
C2600 C890 1.542 . S
C2617 C241 1.551 . S
C2636 C477 1.547 . S
C2653 C536 1.553 . S
C2672 C300 1.548 . S
C2689 C595 1.552 . S
C2708 C359 1.550 . S
C2725 C654 1.553 . S
C2744 C418 1.545 . S
C2761 C949 1.552 . S
C2780 C1657 1.553 . S
C2797 C1716 1.552 . S
C2816 C1008 1.552 . S
C2833 C1067 1.550 . S
C2852 C1775 1.550 . S
C2869 C1126 1.553 . S
C2888 C1834 1.549 . S
C2905 C1421 1.550 . S
C2924 C1185 1.549 . S
C2941 C1244 1.551 . S
C2960 C1480 1.543 . S
C2977 C1303 1.550 . S
C2996 C1539 1.548 . S
C3013 C1362 1.550 . S
C3032 C1598 1.553 . S
C3049 C33 1.279 . S
C3068 C623 1.288 . S
C3085 C682 1.280 . S
C3104 C92 1.270 . S
C3121 C151 1.279 . S
C3140 C505 1.288 . S
C3157 C564 1.283 . S
C3176 C210 1.275 . S
C3193 C859 1.280 . S
C3212 C269 1.290 . S
C3229 C918 1.281 . S
C3248 C328 1.288 . S
C3265 C741 1.280 . S
C3284 C387 1.290 . S
C3301 C446 1.283 . S
C3320 C800 1.269 . S
C3337 C1567 1.281 . S
C3356 C977 1.268 . S
C3373 C1036 1.283 . S
C3392 C1626 1.281 . S
C3409 C1449 1.280 . S
C3428 C1095 1.270 . S
C3445 C1508 1.279 . S
C3464 C1154 1.273 . S
C3481 C1213 1.282 . S
C3500 C1803 1.267 . S
C3517 C1272 1.283 . S
C3536 C1862 1.276 . S
C3553 C1685 1.282 . S
C3572 C1331 1.283 . S
C3589 C1744 1.279 . S
C3608 C1390 1.280 . S
C3625 C1360 1.286 . S
C3644 C3 1.293 . S
C3661 C1183 1.285 . S
C3680 C62 1.307 . S
C3697 C1242 1.286 . S
C3716 C121 1.305 . S
C3733 C1301 1.293 . S
C3752 C180 1.274 . S
C3769 C1006 1.293 . S
C3788 C239 1.266 . S
C3805 C298 1.286 . S
C3824 C1065 1.293 . S
C3841 C357 1.286 . S
C3860 C1124 1.293 . S
C3877 C416 1.288 . S
C3896 C947 1.297 . S
C3913 C475 1.290 . S
C3932 C1832 1.267 . S
C3949 C1655 1.292 . S
C3968 C534 1.272 . S
C3985 C593 1.292 . S
C4004 C1714 1.303 . S
C4021 C652 1.285 . S
C4040 C1773 1.287 . S
C4057 C1478 1.288 . S
C4076 C711 1.305 . S
C4093 C1537 1.287 . S
C4112 C770 1.266 . S
C4129 C829 1.292 . S
C4148 C1596 1.274 . S
C4165 C888 1.285 . S
C4184 C1419 1.288 . S
