# Generated by pormake.
# Topology sra, (4)-cn, num edge types: 1
# Building blocks:
#     Node 0, Type 0, BuildingBlock: GALJAG_clean_sbu_0, # of connection points: 4
#     Node 1, Type 0, BuildingBlock: GALJAG_clean_sbu_0, # of connection points: 4
#     Node 2, Type 0, BuildingBlock: GALJAG_clean_sbu_0, # of connection points: 4
#     Node 3, Type 0, BuildingBlock: GALJAG_clean_sbu_0, # of connection points: 4
#     Node 4, Type 0, BuildingBlock: GALJAG_clean_sbu_0, # of connection points: 4
#     Node 5, Type 0, BuildingBlock: GALJAG_clean_sbu_0, # of connection points: 4
#     Node 6, Type 0, BuildingBlock: GALJAG_clean_sbu_0, # of connection points: 4
#     Node 7, Type 0, BuildingBlock: GALJAG_clean_sbu_0, # of connection points: 4
#     Edge 8, Type (0, 0), BuildingBlock: MIFKUJ_clean_linker_0, # of connection points: 2
#     Edge 9, Type (0, 0), BuildingBlock: MIFKUJ_clean_linker_0, # of connection points: 2
#     Edge 10, Type (0, 0), BuildingBlock: MIFKUJ_clean_linker_0, # of connection points: 2
#     Edge 11, Type (0, 0), BuildingBlock: MIFKUJ_clean_linker_0, # of connection points: 2
#     Edge 12, Type (0, 0), BuildingBlock: MIFKUJ_clean_linker_0, # of connection points: 2
#     Edge 13, Type (0, 0), BuildingBlock: MIFKUJ_clean_linker_0, # of connection points: 2
#     Edge 14, Type (0, 0), BuildingBlock: MIFKUJ_clean_linker_0, # of connection points: 2
#     Edge 15, Type (0, 0), BuildingBlock: MIFKUJ_clean_linker_0, # of connection points: 2
#     Edge 16, Type (0, 0), BuildingBlock: MIFKUJ_clean_linker_0, # of connection points: 2
#     Edge 17, Type (0, 0), BuildingBlock: MIFKUJ_clean_linker_0, # of connection points: 2
#     Edge 18, Type (0, 0), BuildingBlock: MIFKUJ_clean_linker_0, # of connection points: 2
#     Edge 19, Type (0, 0), BuildingBlock: MIFKUJ_clean_linker_0, # of connection points: 2
#     Edge 20, Type (0, 0), BuildingBlock: MIFKUJ_clean_linker_0, # of connection points: 2
#     Edge 21, Type (0, 0), BuildingBlock: MIFKUJ_clean_linker_0, # of connection points: 2
#     Edge 22, Type (0, 0), BuildingBlock: MIFKUJ_clean_linker_0, # of connection points: 2
#     Edge 23, Type (0, 0), BuildingBlock: MIFKUJ_clean_linker_0, # of connection points: 2
# Relax obj value: 0.075
# Max RMSD: 0.110
# Mean RMSD: 0.110
data_MOF--net-sra--node1-GALJAG_clean_sbu_0--edge1-MIFKUJ_clean_linker_0
_symmetry_space_group_name_H-M    P1
_symmetry_Int_Tables_number       1
_symmetry_cell_setting            triclinic
loop_
_symmetry_equiv_pos_as_xyz
'x, y, z'
_cell_length_a     36.935885
_cell_length_b     69.911564
_cell_length_c     36.877754
_cell_angle_alpha  89.972217
_cell_angle_beta   89.967871
_cell_angle_gamma 90.032831
loop_
_atom_site_label
_atom_site_type_symbol
_atom_site_fract_x
_atom_site_fract_y
_atom_site_fract_z
_atom_type_partial_charge
In0 In 0.02032 0.10404 0.17247 0.0
O1 O 0.01576 0.09313 0.11446 0.0
O2 O 0.01658 0.07281 0.15756 0.0
C3 C 0.02556 0.14168 0.15975 0.0
C4 C 0.95414 0.10075 0.2021 0.0
C5 C 0.08687 0.09839 0.20001 0.0
O6 O 0.02517 0.12955 0.13434 0.0
O7 O 0.02333 0.13475 0.1913 0.0
O8 O 0.05943 0.10022 0.22025 0.0
O9 O 0.08042 0.09933 0.16652 0.0
C10 C 0.01499 0.07574 0.12385 0.0
O11 O 0.98151 0.09276 0.21605 0.0
O12 O 0.96047 0.11041 0.17395 0.0
In13 In 0.05862 0.38294 0.1512 0.0
O14 O 0.05953 0.39333 0.09265 0.0
O15 O 0.0732 0.41301 0.13469 0.0
C16 C 0.04794 0.34525 0.14254 0.0
C17 C 0.12486 0.38344 0.1812 0.0
C18 C 0.99361 0.39346 0.17719 0.0
O19 O 0.05541 0.35607 0.11611 0.0
O20 O 0.04562 0.35353 0.17284 0.0
O21 O 0.02006 0.39002 0.19795 0.0
O22 O 0.00023 0.3917 0.14384 0.0
C23 C 0.06889 0.41015 0.10119 0.0
O24 O 0.09815 0.39162 0.19605 0.0
O25 O 0.11777 0.37491 0.15193 0.0
In26 In 0.03087 0.88518 0.83904 0.0
O27 O 0.99292 0.89067 0.79099 0.0
O28 O 0.97 0.88588 0.84324 0.0
C29 C 0.09829 0.88805 0.81195 0.0
C30 C 0.03017 0.91587 0.88233 0.0
C31 C 0.02809 0.84774 0.85503 0.0
O32 O 0.07057 0.88962 0.79204 0.0
O33 O 0.09175 0.88507 0.84503 0.0
O34 O 0.02912 0.86042 0.87941 0.0
O35 O 0.02887 0.85402 0.82296 0.0
C36 C 0.96457 0.88927 0.81011 0.0
O37 O 0.03065 0.89901 0.89469 0.0
O38 O 0.03034 0.91717 0.84819 0.0
In39 In 0.03378 0.60874 0.84154 0.0
O40 O 0.04122 0.59361 0.89568 0.0
O41 O 0.03553 0.57671 0.8478 0.0
C42 C 0.02854 0.64599 0.85785 0.0
C43 C 0.1002 0.60745 0.81197 0.0
C44 C 0.96618 0.60343 0.81686 0.0
O45 O 0.02996 0.6333 0.88226 0.0
O46 O 0.02998 0.63978 0.82575 0.0
O47 O 0.99317 0.60378 0.79567 0.0
O48 O 0.97358 0.60572 0.84997 0.0
C49 C 0.04014 0.57709 0.8817 0.0
O50 O 0.07202 0.60466 0.79317 0.0
O51 O 0.0945 0.61108 0.84496 0.0
In52 In 0.53423 0.60503 0.658 0.0
O53 O 0.49425 0.60104 0.70493 0.0
O54 O 0.47369 0.60269 0.65106 0.0
C55 C 0.60037 0.60194 0.68787 0.0
C56 C 0.5382 0.57429 0.61507 0.0
C57 C 0.53143 0.64238 0.64106 0.0
O58 O 0.57185 0.59961 0.70638 0.0
O59 O 0.5952 0.60595 0.65496 0.0
O60 O 0.53076 0.6295 0.61705 0.0
O61 O 0.53372 0.63634 0.67322 0.0
C62 C 0.46683 0.60087 0.68437 0.0
O63 O 0.54046 0.59113 0.60278 0.0
O64 O 0.53366 0.57304 0.64893 0.0
In65 In 0.53145 0.88148 0.6538 0.0
O66 O 0.57143 0.88546 0.70063 0.0
O67 O 0.59204 0.88178 0.64704 0.0
C68 C 0.46442 0.88472 0.6813 0.0
C69 C 0.53257 0.91371 0.61486 0.0
C70 C 0.53007 0.84418 0.63707 0.0
O71 O 0.49225 0.88552 0.70131 0.0
O72 O 0.47074 0.8823 0.648 0.0
O73 O 0.52889 0.85696 0.61279 0.0
O74 O 0.53215 0.85035 0.66915 0.0
C75 C 0.59891 0.88446 0.68015 0.0
O76 O 0.53349 0.89739 0.6 0.0
O77 O 0.53079 0.91358 0.64905 0.0
In78 In 0.5588 0.38814 0.32245 0.0
O79 O 0.50052 0.39815 0.32421 0.0
O80 O 0.52149 0.38987 0.27291 0.0
C81 C 0.62603 0.39129 0.29496 0.0
C82 C 0.56349 0.4156 0.37262 0.0
C83 C 0.54955 0.35073 0.3368 0.0
O84 O 0.59864 0.39776 0.27853 0.0
O85 O 0.61923 0.383 0.32455 0.0
O86 O 0.55188 0.3631 0.36161 0.0
O87 O 0.55232 0.35725 0.30504 0.0
C88 C 0.49463 0.39577 0.2909 0.0
O89 O 0.55762 0.39832 0.38082 0.0
O90 O 0.56706 0.41894 0.33914 0.0
In91 In 0.52168 0.11021 0.34761 0.0
O92 O 0.55908 0.10005 0.30208 0.0
O93 O 0.5822 0.11453 0.34737 0.0
C94 C 0.45431 0.10391 0.32303 0.0
C95 C 0.52815 0.08196 0.39617 0.0
C96 C 0.5186 0.14828 0.35533 0.0
O97 O 0.48158 0.10324 0.3023 0.0
O98 O 0.46129 0.10769 0.35572 0.0
O99 O 0.52057 0.13717 0.38234 0.0
O100 O 0.51823 0.14012 0.3248 0.0
C101 C 0.5874 0.10613 0.31756 0.0
O102 O 0.52536 0.09926 0.40584 0.0
O103 O 0.5273 0.07916 0.36242 0.0
H104 H 0.05718 0.32325 0.08178 0.0
H105 H 0.05469 0.28822 0.07803 0.0
H106 H 0.02729 0.28537 0.19167 0.0
H107 H 0.03006 0.32013 0.19568 0.0
H108 H 0.08266 0.26165 0.17431 0.0
H109 H 0.96401 0.27771 0.12659 0.0
H110 H 0.92213 0.29341 0.08387 0.0
H111 H 0.9719 0.2638 0.99487 0.0
H112 H 0.0144 0.24811 0.03706 0.0
H113 H 0.01841 0.17002 0.2095 0.0
H114 H 0.02401 0.20437 0.19973 0.0
H115 H 0.04537 0.19468 0.08614 0.0
H116 H 0.03883 0.16011 0.09563 0.0
H117 H -9e-05 0.22431 0.09547 0.0
H118 H 0.11444 0.20576 0.14325 0.0
H119 H 0.15655 0.18987 0.18547 0.0
H120 H 0.11636 0.22422 0.27317 0.0
H121 H 0.07363 0.24013 0.23159 0.0
C122 C 0.05032 0.31511 0.10582 0.0
C123 C 0.04395 0.32437 0.13905 0.0
C124 C 0.04885 0.29515 0.10363 0.0
C125 C 0.04081 0.28425 0.13459 0.0
C126 C 0.03372 0.29354 0.16752 0.0
C127 C 0.03522 0.3134 0.16974 0.0
C128 C 0.04104 0.26312 0.13353 0.0
C129 C 0.0644 0.25347 0.15726 0.0
C130 C 0.01823 0.25251 0.11022 0.0
C131 C 0.99264 0.26192 0.08492 0.0
C132 C 0.96622 0.27468 0.09788 0.0
C133 C 0.94233 0.28355 0.07377 0.0
C134 C 0.94443 0.27965 0.03666 0.0
C135 C 0.97035 0.26683 0.02361 0.0
C136 C 0.99433 0.25794 0.0476 0.0
C137 C 0.02429 0.17518 0.18243 0.0
C138 C 0.02845 0.16242 0.15336 0.0
C139 C 0.02763 0.19481 0.1769 0.0
C140 C 0.0358 0.20204 0.14234 0.0
C141 C 0.03925 0.18936 0.11305 0.0
C142 C 0.03561 0.16966 0.11852 0.0
C143 C 0.04064 0.22288 0.13722 0.0
C144 C 0.01849 0.23246 0.1122 0.0
C145 C 0.06474 0.23348 0.15923 0.0
C146 C 0.09066 0.22406 0.18431 0.0
C147 C 0.11442 0.20985 0.17158 0.0
C148 C 0.13842 0.20084 0.1954 0.0
C149 C 0.1391 0.20601 0.23198 0.0
C150 C 0.11581 0.22023 0.24482 0.0
C151 C 0.09173 0.22926 0.22112 0.0
H152 H 0.15769 0.19902 0.25038 0.0
H153 H 0.9259 0.28653 0.01804 0.0
H154 H 0.02682 0.83021 0.92151 0.0
H155 H 0.02124 0.7958 0.93374 0.0
H156 H 0.01761 0.78469 0.81871 0.0
H157 H 0.02289 0.81881 0.80637 0.0
H158 H 0.96523 0.76521 0.85558 0.0
H159 H 0.09464 0.77812 0.86674 0.0
H160 H 0.14772 0.79406 0.89384 0.0
H161 H 0.11902 0.77178 -0.00147 0.0
H162 H 0.06549 0.7559 0.97207 0.0
H163 H 0.02317 0.67475 0.80892 0.0
H164 H 0.01703 0.70882 0.82073 0.0
H165 H 0.01969 0.69815 0.93594 0.0
H166 H 0.02619 0.66369 0.92423 0.0
H167 H 0.0637 0.72846 0.91488 0.0
H168 H 0.94108 0.70992 0.89965 0.0
H169 H 0.88939 0.69346 0.8711 0.0
H170 H 0.90507 0.72611 0.7737 0.0
H171 H 0.95721 0.74256 0.80144 0.0
C172 C 0.02485 0.82038 0.89891 0.0
C173 C 0.02535 0.82714 0.863 0.0
C174 C 0.02169 0.80078 0.90593 0.0
C175 C 0.01904 0.78775 0.8771 0.0
C176 C 0.01942 0.79454 0.84132 0.0
C177 C 0.02262 0.81403 0.83432 0.0
C178 C 0.01629 0.76693 0.88352 0.0
C179 C 0.98669 0.75715 0.86859 0.0
C180 C 0.04366 0.75655 0.90173 0.0
C181 C 0.07584 0.76605 0.91754 0.0
C182 C 0.09949 0.77676 0.89559 0.0
C183 C 0.12969 0.78576 0.91082 0.0
C184 C 0.13667 0.78399 0.94791 0.0
C185 C 0.11353 0.77317 0.96983 0.0
C186 C 0.08327 0.76417 0.95473 0.0
C187 C 0.02239 0.67959 0.83681 0.0
C188 C 0.02502 0.66657 0.86568 0.0
C189 C 0.01868 0.69906 0.84351 0.0
C190 C 0.01729 0.70594 0.8792 0.0
C191 C 0.02044 0.69305 0.90822 0.0
C192 C 0.02411 0.67344 0.9015 0.0
C193 C 0.01346 0.72672 0.88541 0.0
C194 C 0.04169 0.73651 0.90279 0.0
C195 C 0.98482 0.73715 0.8694 0.0
C196 C 0.95317 0.72744 0.85265 0.0
C197 C 0.93364 0.71352 0.87208 0.0
C198 C 0.90424 0.7042 0.85603 0.0
C199 C 0.89397 0.70873 0.8206 0.0
C200 C 0.91304 0.72263 0.80116 0.0
C201 C 0.94248 0.73198 0.81706 0.0
H202 H 0.87121 0.70149 0.80822 0.0
H203 H 0.16006 0.79096 0.95965 0.0
H204 H 0.53273 0.6718 0.6889 0.0
H205 H 0.52698 0.70581 0.67602 0.0
H206 H 0.51847 0.69372 0.56163 0.0
H207 H 0.5246 0.65936 0.57437 0.0
H208 H 0.56416 0.72435 0.57652 0.0
H209 H 0.44367 0.70596 0.6047 0.0
H210 H 0.3947 0.69011 0.63878 0.0
H211 H 0.41976 0.7239 0.73267 0.0
H212 H 0.46924 0.73978 0.69933 0.0
H213 H 0.52387 0.82647 0.57085 0.0
H214 H 0.51903 0.79189 0.55947 0.0
H215 H 0.52761 0.78112 0.67437 0.0
H216 H 0.53216 0.81528 0.68586 0.0
H217 H 0.47153 0.76171 0.64343 0.0
H218 H 0.59923 0.77485 0.61802 0.0
H219 H 0.64877 0.79052 0.58432 0.0
H220 H 0.60919 0.76655 0.48474 0.0
H221 H 0.55913 0.75093 0.51785 0.0
C222 C 0.52966 0.67633 0.66097 0.0
C223 C 0.52891 0.66294 0.63264 0.0
C224 C 0.52622 0.69577 0.65367 0.0
C225 C 0.52166 0.70222 0.61794 0.0
C226 C 0.52171 0.68896 0.58939 0.0
C227 C 0.52517 0.6694 0.59671 0.0
C228 C 0.51719 0.72292 0.61112 0.0
C229 C 0.54338 0.73252 0.59038 0.0
C230 C 0.49007 0.73352 0.62924 0.0
C231 C 0.46026 0.72403 0.64948 0.0
C232 C 0.4389 0.70993 0.63268 0.0
C233 C 0.41101 0.70095 0.65188 0.0
C234 C 0.40411 0.706 0.68788 0.0
C235 C 0.4251 0.72003 0.70477 0.0
C236 C 0.45303 0.72905 0.6857 0.0
C237 C 0.52481 0.81666 0.59357 0.0
C238 C 0.52831 0.82353 0.62924 0.0
C239 C 0.52209 0.79698 0.58704 0.0
C240 C 0.52289 0.78401 0.61612 0.0
C241 C 0.52667 0.79091 0.65159 0.0
C242 C 0.5294 0.81045 0.65809 0.0
C243 C 0.5196 0.76315 0.61049 0.0
C244 C 0.49173 0.75351 0.62875 0.0
C245 C 0.54511 0.75258 0.59009 0.0
C246 C 0.5752 0.76195 0.57031 0.0
C247 C 0.60092 0.77307 0.5889 0.0
C248 C 0.62912 0.78191 0.56992 0.0
C249 C 0.63205 0.77959 0.53239 0.0
C250 C 0.60684 0.76837 0.51379 0.0
C251 C 0.57856 0.75952 0.53264 0.0
H252 H 0.6539 0.78644 0.51775 0.0
H253 H 0.38246 0.69907 0.70269 0.0
H254 H 0.54247 0.32228 0.28719 0.0
H255 H 0.53142 0.28842 0.29859 0.0
H256 H 0.53119 0.29896 0.41387 0.0
H257 H 0.54268 0.33303 0.40262 0.0
H258 H 0.57148 0.26758 0.39556 0.0
H259 H 0.4525 0.29069 0.37209 0.0
H260 H 0.40509 0.30838 0.3391 0.0
H261 H 0.42162 0.27288 0.24557 0.0
H262 H 0.46952 0.25515 0.27779 0.0
H263 H 0.518 0.1696 0.41761 0.0
H264 H 0.51744 0.20459 0.42243 0.0
H265 H 0.51656 0.20906 0.3057 0.0
H266 H 0.51647 0.1743 0.30073 0.0
H267 H 0.46986 0.23369 0.33543 0.0
H268 H 0.59469 0.21449 0.35512 0.0
H269 H 0.64363 0.19717 0.38659 0.0
H270 H 0.61661 0.22559 0.48619 0.0
H271 H 0.56718 0.2429 0.45536 0.0
C272 C 0.54005 0.31742 0.31498 0.0
C273 C 0.54334 0.33027 0.34404 0.0
C274 C 0.53353 0.29809 0.32145 0.0
C275 C 0.52992 0.29128 0.35705 0.0
C276 C 0.53368 0.30401 0.3862 0.0
C277 C 0.54021 0.32341 0.37974 0.0
C278 C 0.52317 0.2707 0.36341 0.0
C279 C 0.54882 0.2602 0.38313 0.0
C280 C 0.49382 0.26112 0.34677 0.0
C281 C 0.46477 0.27165 0.32734 0.0
C282 C 0.4462 0.28673 0.34441 0.0
C283 C 0.41921 0.29675 0.32585 0.0
C284 C 0.41038 0.29177 0.29025 0.0
C285 C 0.42848 0.27672 0.27316 0.0
C286 C 0.45552 0.26666 0.29158 0.0
C287 C 0.51753 0.17808 0.39304 0.0
C288 C 0.51742 0.16927 0.3588 0.0
C289 C 0.51729 0.19803 0.39582 0.0
C290 C 0.51723 0.20939 0.36441 0.0
C291 C 0.5165 0.20056 0.33028 0.0
C292 C 0.51661 0.18069 0.32749 0.0
C293 C 0.51883 0.23051 0.36654 0.0
C294 C 0.49212 0.24112 0.34848 0.0
C295 C 0.54726 0.24017 0.38458 0.0
C296 C 0.57698 0.2298 0.40306 0.0
C297 C 0.599 0.21692 0.3838 0.0
C298 C 0.62686 0.20713 0.4015 0.0
C299 C 0.63315 0.21023 0.4384 0.0
C300 C 0.61165 0.22317 0.45764 0.0
C301 C 0.58373 0.23298 0.44006 0.0
H302 H 0.65473 0.20265 0.45206 0.0
H303 H 0.38948 0.29956 0.27592 0.0
H304 H 0.43149 0.09519 0.25442 0.0
H305 H 0.36886 0.09162 0.23355 0.0
H306 H 0.33035 0.10283 0.34198 0.0
H307 H 0.39266 0.10605 0.36307 0.0
H308 H 0.29292 0.07422 0.31151 0.0
H309 H 0.33036 0.13781 0.27781 0.0
H310 H 0.36978 0.16176 0.24858 0.0
H311 H 0.34962 0.13623 0.14465 0.0
H312 H 0.31044 0.11195 0.17336 0.0
H313 H 0.11049 0.10093 0.27027 0.0
H314 H 0.1733 0.09933 0.29161 0.0
H315 H 0.20953 0.08883 0.18213 0.0
H316 H 0.14723 0.09078 0.16067 0.0
H317 H 0.24847 0.11618 0.21259 0.0
H318 H 0.20873 0.0532 0.24643 0.0
H319 H 0.16911 0.0295 0.27613 0.0
H320 H 0.19301 0.05408 0.38008 0.0
H321 H 0.23242 0.07811 0.35095 0.0
C322 C 0.40964 0.09678 0.27378 0.0
C323 C 0.41689 0.10101 0.31029 0.0
C324 C 0.37393 0.09479 0.26185 0.0
C325 C 0.34498 0.09719 0.28617 0.0
C326 C 0.35228 0.10093 0.32278 0.0
C327 C 0.3879 0.10284 0.33474 0.0
C328 C 0.30701 0.09639 0.27343 0.0
C329 C 0.28306 0.0835 0.2901 0.0
C330 C 0.29439 0.10829 0.24511 0.0
C331 C 0.31777 0.12295 0.22778 0.0
C332 C 0.33455 0.13722 0.24876 0.0
C333 C 0.35681 0.15087 0.23228 0.0
C334 C 0.36228 0.15049 0.19479 0.0
C335 C 0.34541 0.13649 0.17369 0.0
C336 C 0.32315 0.12279 0.19005 0.0
C337 C 0.13187 0.0981 0.25089 0.0
C338 C 0.12404 0.09604 0.21384 0.0
C339 C 0.16768 0.09712 0.26309 0.0
C340 C 0.19606 0.09386 0.23844 0.0
C341 C 0.18808 0.09141 0.20158 0.0
C342 C 0.15245 0.09249 0.18939 0.0
C343 C 0.23428 0.09394 0.25056 0.0
C344 C 0.2583 0.10678 0.23384 0.0
C345 C 0.24687 0.08203 0.27888 0.0
C346 C 0.22325 0.06757 0.29646 0.0
C347 C 0.20531 0.05365 0.27559 0.0
C348 C 0.18294 0.04014 0.29233 0.0
C349 C 0.17847 0.04032 0.32996 0.0
C350 C 0.19646 0.05398 0.35093 0.0
C351 C 0.21885 0.06753 0.33433 0.0
H352 H 0.16114 0.02984 0.34286 0.0
H353 H 0.37953 0.16107 0.18209 0.0
H354 H 0.64829 0.40771 0.23133 0.0
H355 H 0.7108 0.41205 0.21033 0.0
H356 H 0.7502 0.38492 0.3077 0.0
H357 H 0.6881 0.38062 0.32886 0.0
H358 H 0.7882 0.4177 0.29069 0.0
H359 H 0.7461 0.36017 0.2304 0.0
H360 H 0.70466 0.34167 0.19142 0.0
H361 H 0.72705 0.37941 0.10227 0.0
H362 H 0.76828 0.39829 0.14091 0.0
H363 H 0.96661 0.38859 0.24556 0.0
H364 H 0.90366 0.39248 0.26491 0.0
H365 H 0.87537 0.4128 0.15805 0.0
H366 H 0.93788 0.40827 0.13832 0.0
H367 H 0.83015 0.38675 0.17721 0.0
H368 H 0.87637 0.44274 0.23443 0.0
H369 H 0.91734 0.46197 0.27258 0.0
H370 H 0.8871 0.42893 0.366 0.0
H371 H 0.8463 0.40932 0.32831 0.0
C372 C 0.67032 0.40266 0.24818 0.0
C373 C 0.66338 0.39374 0.28162 0.0
C374 C 0.70593 0.40515 0.23619 0.0
C375 C 0.73503 0.39874 0.25746 0.0
C376 C 0.7281 0.39002 0.29098 0.0
C377 C 0.69261 0.38747 0.3029 0.0
C378 C 0.7728 0.40063 0.24463 0.0
C379 C 0.79756 0.41085 0.266 0.0
C380 C 0.78457 0.39216 0.2119 0.0
C381 C 0.75994 0.38076 0.18864 0.0
C382 C 0.74196 0.36461 0.20257 0.0
C383 C 0.71856 0.35404 0.18052 0.0
C384 C 0.71315 0.3594 0.14442 0.0
C385 C 0.73122 0.3753 0.13026 0.0
C386 C 0.75462 0.38593 0.15221 0.0
C387 C 0.94702 0.39416 0.22643 0.0
C388 C 0.95699 0.39804 0.19044 0.0
C389 C 0.9111 0.39647 0.23752 0.0
C390 C 0.88477 0.40306 0.21298 0.0
C391 C 0.89514 0.40764 0.17741 0.0
C392 C 0.93087 0.40508 0.16621 0.0
C393 C 0.846 0.40369 0.22346 0.0
C394 C 0.82095 0.39387 0.20167 0.0
C395 C 0.83397 0.41269 0.25566 0.0
C396 C 0.85849 0.42445 0.27845 0.0
C397 C 0.87867 0.43947 0.26305 0.0
C398 C 0.90182 0.45046 0.28461 0.0
C399 C 0.90488 0.44665 0.32167 0.0
C400 C 0.88472 0.43186 0.33728 0.0
C401 C 0.86154 0.42082 0.31584 0.0
H402 H 0.92282 0.45517 0.33832 0.0
H403 H 0.69502 0.3512 0.1274 0.0
H404 H 0.12047 0.89102 0.74131 0.0
H405 H 0.18296 0.89185 0.71882 0.0
H406 H 0.22264 0.88865 0.82866 0.0
H407 H 0.1605 0.8879 0.85127 0.0
H408 H 0.25984 0.91504 0.78818 0.0
H409 H 0.22155 0.84941 0.77768 0.0
H410 H 0.18143 0.82323 0.75782 0.0
H411 H 0.20019 0.83835 0.6465 0.0
H412 H 0.24004 0.8648 0.66574 0.0
H413 H 0.44213 0.88712 0.75206 0.0
H414 H 0.37965 0.88897 0.77431 0.0
H415 H 0.34039 0.88814 0.66412 0.0
H416 H 0.40241 0.8859 0.64186 0.0
H417 H 0.30261 0.86425 0.7046 0.0
H418 H 0.34161 0.92952 0.71441 0.0
H419 H 0.38145 0.95591 0.73382 0.0
H420 H 0.36128 0.94193 0.84542 0.0
H421 H 0.32168 0.91528 0.82666 0.0
C422 C 0.14254 0.89059 0.76061 0.0
C423 C 0.13566 0.88929 0.798 0.0
C424 C 0.17817 0.89102 0.74776 0.0
C425 C 0.20736 0.89015 0.77211 0.0
C426 C 0.20049 0.88933 0.80946 0.0
C427 C 0.16497 0.88882 0.82228 0.0
C428 C 0.24516 0.88959 0.75876 0.0
C429 C 0.26935 0.90384 0.77019 0.0
C430 C 0.25727 0.87516 0.73479 0.0
C431 C 0.23347 0.85921 0.72317 0.0
C432 C 0.21688 0.84725 0.74898 0.0
C433 C 0.19423 0.83234 0.73783 0.0
C434 C 0.18818 0.82916 0.70092 0.0
C435 C 0.20485 0.84085 0.67508 0.0
C436 C 0.22749 0.85579 0.68609 0.0
C437 C 0.42013 0.88739 0.73265 0.0
C438 C 0.42711 0.88636 0.69526 0.0
C439 C 0.38449 0.88853 0.74536 0.0
C440 C 0.35537 0.88885 0.72083 0.0
C441 C 0.36241 0.88788 0.68352 0.0
C442 C 0.3979 0.88665 0.67086 0.0
C443 C 0.31743 0.88976 0.73387 0.0
C444 C 0.29316 0.87552 0.72247 0.0
C445 C 0.30527 0.90424 0.75776 0.0
C446 C 0.32897 0.92029 0.76912 0.0
C447 C 0.34589 0.93198 0.74309 0.0
C448 C 0.36839 0.947 0.75398 0.0
C449 C 0.37397 0.95056 0.79083 0.0
C450 C 0.35698 0.93914 0.81688 0.0
C451 C 0.33448 0.92409 0.80614 0.0
H452 H 0.3914 0.9622 0.79921 0.0
H453 H 0.17064 0.81761 0.69235 0.0
H454 H 0.62009 0.59637 0.75877 0.0
H455 H 0.68184 0.59413 0.783 0.0
H456 H 0.7251 0.60111 0.6751 0.0
H457 H 0.66383 0.60326 0.65081 0.0
H458 H 0.76 0.57286 0.71266 0.0
H459 H 0.72271 0.63836 0.73181 0.0
H460 H 0.68272 0.66377 0.75519 0.0
H461 H 0.69985 0.64388 0.86402 0.0
H462 H 0.73957 0.61818 0.84121 0.0
H463 H 0.94137 0.60178 0.74697 0.0
H464 H 0.87832 0.59905 0.72702 0.0
H465 H 0.84333 0.59638 0.83859 0.0
H466 H 0.906 0.5995 0.85862 0.0
H467 H 0.80296 0.62068 0.80221 0.0
H468 H 0.84339 0.55646 0.78414 0.0
H469 H 0.88323 0.53088 0.76127 0.0
H470 H 0.86018 0.54765 0.65167 0.0
H471 H 0.82056 0.57352 0.6739 0.0
C472 C 0.64281 0.59736 0.74029 0.0
C473 C 0.63719 0.60011 0.70297 0.0
C474 C 0.678 0.5961 0.75412 0.0
C475 C 0.70799 0.59758 0.73082 0.0
C476 C 0.70233 0.59991 0.69351 0.0
C477 C 0.6673 0.60124 0.67973 0.0
C478 C 0.74542 0.59727 0.74514 0.0
C479 C 0.76954 0.58339 0.73205 0.0
C480 C 0.75751 0.61074 0.77103 0.0
C481 C 0.73376 0.62623 0.78477 0.0
C482 C 0.7177 0.63931 0.7607 0.0
C483 C 0.69513 0.65378 0.77385 0.0
C484 C 0.68866 0.6554 0.81105 0.0
C485 C 0.70483 0.64259 0.8352 0.0
C486 C 0.72739 0.62807 0.82218 0.0
C487 C 0.92022 0.60049 0.76718 0.0
C488 C 0.92856 0.60089 0.80431 0.0
C489 C 0.88424 0.59885 0.75578 0.0
C490 C 0.85613 0.59734 0.78134 0.0
C491 C 0.86455 0.59754 0.81841 0.0
C492 C 0.9004 0.59929 0.82979 0.0
C493 C 0.8178 0.59634 0.76958 0.0
C494 C 0.79346 0.61001 0.7831 0.0
C495 C 0.80551 0.58262 0.74419 0.0
C496 C 0.82926 0.56704 0.73071 0.0
C497 C 0.84703 0.55479 0.75517 0.0
C498 C 0.86954 0.54022 0.74232 0.0
C499 C 0.8743 0.53767 0.70505 0.0
C500 C 0.85649 0.54966 0.68054 0.0
C501 C 0.83398 0.56427 0.69325 0.0
H502 H 0.89174 0.52638 0.69515 0.0
H503 H 0.67118 0.66662 0.82119 0.0
H504 H 0.62269 0.88623 0.75044 0.0
H505 H 0.6855 0.88897 0.77127 0.0
H506 H 0.72216 0.8904 0.66014 0.0
H507 H 0.65984 0.88716 0.6393 0.0
H508 H 0.76278 0.86715 0.69763 0.0
H509 H 0.71944 0.93116 0.71363 0.0
H510 H 0.67826 0.95634 0.73576 0.0
H511 H 0.70136 0.94045 0.84582 0.0
H512 H 0.74232 0.91499 0.82434 0.0
H513 H 0.94427 0.89405 0.73919 0.0
H514 H 0.88231 0.89546 0.7153 0.0
H515 H 0.83998 0.88965 0.82383 0.0
H516 H 0.90145 0.88843 0.84778 0.0
H517 H 0.80321 0.91647 0.78542 0.0
H518 H 0.84432 0.85143 0.76833 0.0
H519 H 0.88575 0.8265 0.7456 0.0
H520 H 0.86695 0.84508 0.63621 0.0
H521 H 0.82576 0.87029 0.65837 0.0
C522 C 0.64419 0.88717 0.73054 0.0
C523 C 0.63642 0.88646 0.6933 0.0
C524 C 0.68002 0.88884 0.74242 0.0
C525 C 0.70851 0.8901 0.71722 0.0
C526 C 0.70066 0.88943 0.68006 0.0
C527 C 0.665 0.88761 0.66821 0.0
C528 C 0.74666 0.89159 0.72942 0.0
C529 C 0.7717 0.87813 0.7164 0.0
C530 C 0.75822 0.90571 0.75435 0.0
C531 C 0.73369 0.92105 0.76736 0.0
C532 C 0.71553 0.93294 0.74255 0.0
C533 C 0.69226 0.94728 0.75497 0.0
C534 C 0.68712 0.94996 0.79217 0.0
C535 C 0.70533 0.93834 0.81702 0.0
C536 C 0.7286 0.92397 0.80473 0.0
C537 C 0.92171 0.89319 0.75789 0.0
C538 C 0.92764 0.89101 0.79529 0.0
C539 C 0.8864 0.89395 0.74425 0.0
C540 C 0.85661 0.89248 0.76782 0.0
C541 C 0.86258 0.89082 0.8052 0.0
C542 C 0.89774 0.89004 0.81881 0.0
C543 C 0.81911 0.89201 0.75371 0.0
C544 C 0.79423 0.90561 0.76643 0.0
C545 C 0.8077 0.87809 0.72837 0.0
C546 C 0.83228 0.86287 0.71503 0.0
C547 C 0.84924 0.85029 0.73946 0.0
C548 C 0.87264 0.83609 0.72667 0.0
C549 C 0.87906 0.83425 0.68949 0.0
C550 C 0.862 0.84655 0.66501 0.0
C551 C 0.83861 0.86078 0.67766 0.0
H552 H 0.89718 0.82325 0.67965 0.0
H553 H 0.6691 0.96107 0.80173 0.0
H554 H 0.4058 0.59657 0.64416 0.0
H555 H 0.34327 0.59599 0.66539 0.0
H556 H 0.38015 0.6015 0.7759 0.0
H557 H 0.44316 0.60169 0.75477 0.0
H558 H 0.32496 0.57633 0.77082 0.0
H559 H 0.34955 0.63985 0.72955 0.0
H560 H 0.37018 0.66438 0.68628 0.0
H561 H 0.28724 0.64752 0.61126 0.0
H562 H 0.26666 0.62251 0.65377 0.0
H563 H 0.16311 0.61047 0.84954 0.0
H564 H 0.22472 0.60764 0.82643 0.0
H565 H 0.18328 0.59847 0.71849 0.0
H566 H 0.1211 0.60135 0.74153 0.0
H567 H 0.23999 0.62467 0.72111 0.0
H568 H 0.21475 0.56138 0.76474 0.0
H569 H 0.19466 0.53743 0.80953 0.0
H570 H 0.27892 0.55514 0.88235 0.0
H571 H 0.2992 0.57941 0.83819 0.0
C572 C 0.40065 0.59754 0.67302 0.0
C573 C 0.42932 0.59934 0.69783 0.0
C574 C 0.36489 0.59727 0.68508 0.0
C575 C 0.35705 0.59905 0.72214 0.0
C576 C 0.38565 0.60019 0.74715 0.0
C577 C 0.42157 0.60034 0.73507 0.0
C578 C 0.31896 0.60027 0.73455 0.0
C579 C 0.30648 0.58703 0.76028 0.0
C580 C 0.2947 0.61402 0.72022 0.0
C581 C 0.30679 0.62917 0.69471 0.0
C582 C 0.33589 0.64126 0.7037 0.0
C583 C 0.34755 0.65528 0.67932 0.0
C584 C 0.33004 0.65753 0.64602 0.0
C585 C 0.30081 0.64575 0.63705 0.0
C586 C 0.28914 0.63164 0.66127 0.0
C587 C 0.16702 0.60786 0.82085 0.0
C588 C 0.13729 0.60609 0.79731 0.0
C589 C 0.20226 0.60616 0.80775 0.0
C590 C 0.2085 0.60261 0.77087 0.0
C591 C 0.17893 0.60113 0.7471 0.0
C592 C 0.14352 0.60275 0.76026 0.0
C593 C 0.24604 0.60073 0.75732 0.0
C594 C 0.25843 0.61389 0.73146 0.0
C595 C 0.27026 0.58702 0.77175 0.0
C596 C 0.2583 0.57233 0.79826 0.0
C597 C 0.22883 0.56027 0.79041 0.0
C598 C 0.21743 0.54662 0.81567 0.0
C599 C 0.23545 0.54479 0.8488 0.0
C600 C 0.26497 0.55658 0.85669 0.0
C601 C 0.27645 0.57027 0.83153 0.0
H602 H 0.22658 0.53421 0.86832 0.0
H603 H 0.33908 0.6684 0.62718 0.0
H604 H 0.60823 0.08175 0.26335 0.0
H605 H 0.67032 0.07477 0.24368 0.0
H606 H 0.71099 0.11647 0.31975 0.0
H607 H 0.64951 0.123 0.34015 0.0
H608 H 0.72064 0.09435 0.2128 0.0
H609 H 0.78977 0.10384 0.35528 0.0
H610 H 0.77525 0.09696 0.41925 0.0
H611 H 0.6985 0.05429 0.38608 0.0
H612 H 0.71305 0.0606 0.32197 0.0
H613 H 0.89705 0.12407 0.18978 0.0
H614 H 0.8346 0.11963 0.20924 0.0
H615 H 0.86453 0.06742 0.26416 0.0
H616 H 0.92783 0.07236 0.24597 0.0
H617 H 0.81834 0.08504 0.30347 0.0
H618 H 0.81914 0.06663 0.18114 0.0
H619 H 0.83276 0.06832 0.11576 0.0
H620 H 0.76804 0.11907 0.1063 0.0
H621 H 0.75446 0.11787 0.17174 0.0
C622 C 0.6305 0.08943 0.27572 0.0
C623 C 0.62416 0.10283 0.30338 0.0
C624 C 0.6659 0.08541 0.26455 0.0
C625 C 0.69537 0.09479 0.28081 0.0
C626 C 0.68881 0.10864 0.30755 0.0
C627 C 0.65362 0.11249 0.31897 0.0
C628 C 0.73307 0.09067 0.26942 0.0
C629 C 0.74197 0.09216 0.23257 0.0
C630 C 0.76074 0.08693 0.29505 0.0
C631 C 0.75237 0.08281 0.33372 0.0
C632 C 0.77 0.09289 0.36161 0.0
C633 C 0.76173 0.08909 0.39792 0.0
C634 C 0.73594 0.07521 0.40673 0.0
C635 C 0.71844 0.06505 0.37924 0.0
C636 C 0.72667 0.06874 0.3429 0.0
C637 C 0.89036 0.11169 0.20618 0.0
C638 C 0.91712 0.09849 0.21623 0.0
C639 C 0.85459 0.10907 0.21703 0.0
C640 C 0.84461 0.09289 0.23727 0.0
C641 C 0.87153 0.07993 0.24828 0.0
C642 C 0.90762 0.08276 0.23796 0.0
C643 C 0.80606 0.08988 0.2471 0.0
C644 C 0.79698 0.08694 0.28362 0.0
C645 C 0.7781 0.09143 0.22096 0.0
C646 C 0.78592 0.0922 0.18144 0.0
C647 C 0.80797 0.07822 0.16517 0.0
C648 C 0.81567 0.07908 0.12809 0.0
C649 C 0.8013 0.0938 0.1069 0.0
C650 C 0.77914 0.10767 0.12275 0.0
C651 C 0.77138 0.10689 0.15983 0.0
H652 H 0.80731 0.09445 0.0782 0.0
H653 H 0.72953 0.07232 0.43484 0.0
H654 H 0.18374 0.36424 0.15651 0.0
H655 H 0.24632 0.36753 0.17652 0.0
H656 H 0.21316 0.40845 0.25754 0.0
H657 H 0.1501 0.40529 0.23738 0.0
H658 H 0.27181 0.42079 0.21877 0.0
H659 H 0.23738 0.36473 0.28324 0.0
H660 H 0.21157 0.33256 0.29231 0.0
H661 H 0.29034 0.30888 0.2194 0.0
H662 H 0.31628 0.34097 0.2094 0.0
H663 H 0.43836 0.41578 0.31927 0.0
H664 H 0.37539 0.41556 0.29869 0.0
H665 H 0.40508 0.37963 0.20841 0.0
H666 H 0.46839 0.38006 0.22853 0.0
H667 H 0.34791 0.3653 0.25372 0.0
H668 H 0.38154 0.42233 0.18943 0.0
H669 H 0.40728 0.45467 0.18265 0.0
H670 H 0.32979 0.47663 0.25882 0.0
H671 H 0.30391 0.44433 0.26647 0.0
C672 C 0.18967 0.37383 0.17881 0.0
C673 C 0.16207 0.38451 0.19544 0.0
C674 C 0.22544 0.37564 0.19027 0.0
C675 C 0.2343 0.38813 0.21865 0.0
C676 C 0.20679 0.39871 0.2356 0.0
C677 C 0.17084 0.39683 0.22421 0.0
C678 C 0.27258 0.3905 0.22956 0.0
C679 C 0.28834 0.40872 0.227 0.0
C680 C 0.29421 0.37465 0.23955 0.0
C681 C 0.27854 0.35531 0.24527 0.0
C682 C 0.24898 0.3527 0.26884 0.0
C683 C 0.23436 0.33447 0.27421 0.0
C684 C 0.24924 0.31869 0.25636 0.0
C685 C 0.2788 0.32112 0.23315 0.0
C686 C 0.29349 0.33933 0.22764 0.0
C687 C 0.43157 0.40815 0.29463 0.0
C688 C 0.45812 0.3979 0.27547 0.0
C689 C 0.39567 0.40806 0.28291 0.0
C690 C 0.38574 0.39756 0.25212 0.0
C691 C 0.41238 0.38783 0.23224 0.0
C692 C 0.44846 0.38816 0.24362 0.0
C693 C 0.34714 0.39552 0.2425 0.0
C694 C 0.33133 0.37735 0.24548 0.0
C695 C 0.32545 0.41144 0.23325 0.0
C696 C 0.34105 0.43086 0.22883 0.0
C697 C 0.37023 0.43401 0.20503 0.0
C698 C 0.38479 0.45235 0.20096 0.0
C699 C 0.37025 0.46769 0.22038 0.0
C700 C 0.34106 0.46472 0.24384 0.0
C701 C 0.32642 0.44641 0.24804 0.0
H702 H 0.38154 0.48188 0.21716 0.0
H703 H 0.2379 0.30459 0.26059 0.0
H704 H 0.01245 0.07805 0.04991 0.0
H705 H 0.01412 0.05142 0.00673 0.0
H706 H 0.01704 0.01128 0.09561 0.0
H707 H 0.01563 0.03771 0.13878 0.0
H708 H 0.06862 0.00383 0.04486 0.0
H709 H 0.94084 0.01727 0.04824 0.0
H710 H 0.88662 0.03767 0.04332 0.0
H711 H 0.91234 0.0498 0.93209 0.0
H712 H 0.96704 0.02969 0.93652 0.0
H713 H 0.03038 0.91671 0.9562 0.0
H714 H 0.02758 0.94492 0.99525 0.0
H715 H 0.02434 0.9814 0.90088 0.0
H716 H 0.02679 0.95323 0.86161 0.0
H717 H 0.9744 0.99184 0.95171 0.0
H718 H 0.10108 0.97761 0.94764 0.0
H719 H 0.15537 0.95727 0.95248 0.0
H720 H 0.13208 0.94682 0.06485 0.0
H721 H 0.07731 0.96688 0.06054 0.0
C722 C 0.0132 0.06353 0.06017 0.0
C723 C 0.01395 0.05991 0.09763 0.0
C724 C 0.01407 0.04837 0.03553 0.0
C725 C 0.01559 0.02943 0.04809 0.0
C726 C 0.01596 0.02582 0.08547 0.0
C727 C 0.01503 0.04092 0.11004 0.0
C728 C 0.01786 0.0133 0.0224 0.0
C729 C 0.04784 0.00106 0.02474 0.0
C730 C 0.9912 0.01011 0.99559 0.0
C731 C 0.95825 0.02214 0.99283 0.0
C732 C 0.93511 0.02442 0.02283 0.0
C733 C 0.90426 0.0359 0.02011 0.0
C734 C 0.8961 0.04507 0.98745 0.0
C735 C 0.91872 0.04272 0.9574 0.0
C736 C 0.94964 0.03127 0.95998 0.0
C737 C 0.02915 0.93074 0.94379 0.0
C738 C 0.02894 0.93282 0.90593 0.0
C739 C 0.02764 0.94682 0.96609 0.0
C740 C 0.0261 0.96521 0.95086 0.0
C741 C 0.02556 0.96731 0.91307 0.0
C742 C 0.02709 0.95123 0.89074 0.0
C743 C 0.02493 0.98222 0.97451 0.0
C744 C 0.99525 0.99465 0.97173 0.0
C745 C 0.05189 0.98563 0.00093 0.0
C746 C 0.0849 0.97361 0.00367 0.0
C747 C 0.10737 0.97085 0.97331 0.0
C748 C 0.13826 0.95939 0.97597 0.0
C749 C 0.14712 0.95072 0.00893 0.0
C750 C 0.12515 0.95353 0.03933 0.0
C751 C 0.0942 0.96496 0.0368 0.0
H752 H 0.17105 0.94186 0.01094 0.0
H753 H 0.8722 0.05395 0.9854 0.0
H754 H 0.02899 0.54065 0.8588 0.0
H755 H 0.03732 0.51118 0.89342 0.0
H756 H 0.07014 0.54408 0.98673 0.0
H757 H 0.06167 0.57375 0.95224 0.0
H758 H 0.11575 0.5124 0.97068 0.0
H759 H 0.98938 0.52685 0.98698 0.0
H760 H 0.92753 0.53465 0.96671 0.0
H761 H 0.92258 0.48201 0.90697 0.0
H762 H 0.98467 0.47402 0.92647 0.0
H763 H 0.0933 0.44619 0.1135 0.0
H764 H 0.09317 0.47308 0.0714 0.0
H765 H 0.05182 0.43642 0.98688 0.0
H766 H 0.05159 0.40934 0.02916 0.0
H767 H 0.01231 0.46879 0.99426 0.0
H768 H 0.13699 0.45302 0.98151 0.0
H769 H 0.19884 0.44513 0.00162 0.0
H770 H 0.20754 0.49976 0.05403 0.0
H771 H 0.14551 0.50789 0.03469 0.0
C772 C 0.03792 0.54162 0.88672 0.0
C773 C 0.04458 0.55945 0.90296 0.0
C774 C 0.04263 0.52479 0.9064 0.0
C775 C 0.0542 0.52554 0.94255 0.0
C776 C 0.06122 0.5433 0.95878 0.0
C777 C 0.05619 0.56018 0.93918 0.0
C778 C 0.0586 0.50772 0.96346 0.0
C779 C 0.09315 0.50292 0.97624 0.0
C780 C 0.02919 0.49519 0.96955 0.0
C781 C 0.99183 0.49994 0.95784 0.0
C782 C 0.97524 0.51702 0.96924 0.0
C783 C 0.94011 0.52146 0.95795 0.0
C784 C 0.92118 0.50887 0.93547 0.0
C785 C 0.93731 0.49177 0.92432 0.0
C786 C 0.97246 0.48727 0.9355 0.0
C787 C 0.08462 0.44378 0.08582 0.0
C788 C 0.0723 0.42572 0.07457 0.0
C789 C 0.08476 0.45913 0.06175 0.0
C790 C 0.07273 0.45668 0.026 0.0
C791 C 0.06129 0.43854 0.01439 0.0
C792 C 0.06126 0.42312 0.03848 0.0
C793 C 0.0695 0.47345 0.00187 0.0
C794 C 0.03509 0.47811 0.98846 0.0
C795 C 0.09908 0.48582 0.99517 0.0
C796 C 0.13644 0.481 0.00688 0.0
C797 C 0.15196 0.4633 0.99759 0.0
C798 C 0.18708 0.45879 0.0088 0.0
C799 C 0.20708 0.47192 0.02916 0.0
C800 C 0.19201 0.4896 0.03828 0.0
C801 C 0.15688 0.49418 0.02716 0.0
H802 H 0.23427 0.4684 0.0378 0.0
H803 H 0.89398 0.51233 0.92677 0.0
H804 H 0.5492 0.41271 0.44499 0.0
H805 H 0.5474 0.43873 0.48937 0.0
H806 H 0.57805 0.47898 0.40608 0.0
H807 H 0.58004 0.45307 0.36163 0.0
H808 H 0.6146 0.48485 0.47035 0.0
H809 H 0.49208 0.47536 0.42919 0.0
H810 H 0.43687 0.45659 0.41706 0.0
H811 H 0.428 0.44286 0.53023 0.0
H812 H 0.48352 0.46133 0.54295 0.0
H813 H 0.55675 0.57313 0.54362 0.0
H814 H 0.56353 0.54472 0.50551 0.0
H815 H 0.53365 0.50879 0.59586 0.0
H816 H 0.52687 0.53714 0.63421 0.0
H817 H 0.4982 0.49932 0.53183 0.0
H818 H 0.61881 0.51067 0.5735 0.0
H819 H 0.67371 0.52973 0.58534 0.0
H820 H 0.6861 0.54019 0.47126 0.0
H821 H 0.63091 0.52142 0.45876 0.0
C822 C 0.55582 0.42708 0.43624 0.0
C823 C 0.56454 0.43094 0.39988 0.0
C824 C 0.55469 0.4419 0.46155 0.0
C825 C 0.56227 0.46073 0.45081 0.0
C826 C 0.57211 0.46451 0.41479 0.0
C827 C 0.5731 0.44973 0.38946 0.0
C828 C 0.55873 0.47668 0.47674 0.0
C829 C 0.58912 0.48814 0.48359 0.0
C830 C 0.52562 0.4806 0.49452 0.0
C831 C 0.49218 0.46954 0.48695 0.0
C832 C 0.47854 0.4682 0.45144 0.0
C833 C 0.44716 0.45764 0.44447 0.0
C834 C 0.429 0.44849 0.47284 0.0
C835 C 0.44214 0.44992 0.50827 0.0
C836 C 0.47355 0.46044 0.51538 0.0
C837 C 0.55157 0.55918 0.55532 0.0
C838 C 0.54138 0.55729 0.59183 0.0
C839 C 0.55559 0.54299 0.53361 0.0
C840 C 0.54941 0.52472 0.54809 0.0
C841 C 0.53862 0.52281 0.58434 0.0
C842 C 0.53484 0.53898 0.60615 0.0
C843 C 0.55398 0.50762 0.52515 0.0
C844 C 0.52378 0.49594 0.51885 0.0
C845 C 0.58725 0.50352 0.50785 0.0
C846 C 0.62052 0.51478 0.51523 0.0
C847 C 0.63305 0.51717 0.55095 0.0
C848 C 0.66426 0.5279 0.55778 0.0
C849 C 0.68333 0.53621 0.52908 0.0
C850 C 0.67127 0.53376 0.49347 0.0
C851 C 0.64005 0.52307 0.4865 0.0
H852 H 0.70749 0.5445 0.53442 0.0
H853 H 0.40469 0.44033 0.46739 0.0
H854 H 0.52737 0.94984 0.6415 0.0
H855 H 0.53004 0.97982 0.60761 0.0
H856 H 0.54368 0.94832 0.50796 0.0
H857 H 0.54123 0.91816 0.54178 0.0
H858 H 0.59099 0.979 0.51424 0.0
H859 H 0.46336 0.96639 0.52777 0.0
H860 H 0.40756 0.95928 0.56196 0.0
H861 H 0.41989 0.01141 0.62222 0.0
H862 H 0.4761 0.0187 0.58871 0.0
H863 H 0.54043 0.04474 0.37992 0.0
H864 H 0.54558 0.01793 0.42177 0.0
H865 H 0.53012 0.05611 0.51235 0.0
H866 H 0.5247 0.08322 0.47031 0.0
H867 H 0.48713 0.02402 0.51595 0.0
H868 H 0.61182 0.03826 0.49753 0.0
H869 H 0.66712 0.04534 0.4625 0.0
H870 H 0.66058 0.99036 0.4111 0.0
H871 H 0.60487 0.98306 0.44532 0.0
C872 C 0.53093 0.94929 0.61236 0.0
C873 C 0.53394 0.93169 0.59418 0.0
C874 C 0.5324 0.96641 0.59308 0.0
C875 C 0.53681 0.96622 0.55534 0.0
C876 C 0.54028 0.9487 0.53713 0.0
C877 C 0.5387 0.93153 0.55641 0.0
C878 C 0.53736 0.98433 0.53479 0.0
C879 C 0.56821 0.98879 0.51429 0.0
C880 C 0.50801 -0.0027 0.53596 0.0
C881 C 0.47415 0.99298 0.55603 0.0
C882 C 0.45435 0.97625 0.54853 0.0
C883 C 0.42261 0.9722 0.56774 0.0
C884 C 0.41025 0.98485 0.59432 0.0
C885 C 0.42954 0.00161 0.60167 0.0
C886 C 0.46132 0.00571 0.58256 0.0
C887 C 0.53828 0.04748 0.40875 0.0
C888 C 0.53213 0.06604 0.42194 0.0
C889 C 0.54145 0.03216 0.43261 0.0
C890 C 0.53867 0.03512 0.47009 0.0
C891 C 0.53252 0.05363 0.48345 0.0
C892 C 0.52948 0.06905 0.4595 0.0
C893 C 0.54055 0.01858 0.49487 0.0
C894 C 0.51015 0.01438 0.51622 0.0
C895 C 0.57033 0.00586 0.49445 0.0
C896 C 0.60397 0.01016 0.47386 0.0
C897 C 0.62199 0.02773 0.47854 0.0
C898 C 0.65344 0.03178 0.45886 0.0
C899 C 0.66732 0.01832 0.43458 0.0
C900 C 0.64979 0.00078 0.42993 0.0
C901 C 0.61828 -0.00333 0.44949 0.0
H902 H 0.69172 0.02145 0.41942 0.0
H903 H 0.38567 0.98169 0.60917 0.0
loop_
_geom_bond_atom_site_label_1
_geom_bond_atom_site_label_2
_geom_bond_distance
_geom_bond_site_symmetry_2
_ccdc_geom_bond_type
In0 O1 2.294 . S
In0 O2 2.326 . S
In0 O6 2.266 . S
In0 O7 2.326 . S
In0 O8 2.266 . S
In0 O9 2.326 . S
In0 O11 2.294 1_455 S
In0 O12 2.326 1_455 S
O1 In0 2.294 . S
O1 C10 1.240 . S
O2 In0 2.326 . S
O2 C10 1.252 . S
C3 O6 1.252 . S
C3 O7 1.260 . S
C4 O11 1.240 . S
C4 O12 1.252 . S
C5 O8 1.252 . S
C5 O9 1.260 . S
O6 In0 2.266 . S
O6 C3 1.252 . S
O7 In0 2.326 . S
O7 C3 1.260 . S
O8 In0 2.266 . S
O8 C5 1.252 . S
O9 In0 2.326 . S
O9 C5 1.260 . S
C10 O1 1.240 . S
C10 O2 1.252 . S
O11 In0 2.294 1_655 S
O11 C4 1.240 . S
O12 In0 2.326 1_655 S
O12 C4 1.252 . S
In13 O14 2.294 . S
In13 O15 2.326 . S
In13 O19 2.266 . S
In13 O20 2.326 . S
In13 O21 2.266 . S
In13 O22 2.326 1_455 S
In13 O24 2.294 . S
In13 O25 2.326 . S
O14 In13 2.294 . S
O14 C23 1.240 . S
O15 In13 2.326 . S
O15 C23 1.252 . S
C16 O19 1.252 . S
C16 O20 1.260 . S
C17 O24 1.240 . S
C17 O25 1.252 . S
C18 O21 1.252 1_655 S
C18 O22 1.260 . S
O19 In13 2.266 . S
O19 C16 1.252 . S
O20 In13 2.326 . S
O20 C16 1.260 . S
O21 In13 2.266 . S
O21 C18 1.252 1_455 S
O22 In13 2.326 1_655 S
O22 C18 1.260 . S
C23 O14 1.240 . S
C23 O15 1.252 . S
O24 In13 2.294 . S
O24 C17 1.240 . S
O25 In13 2.326 . S
O25 C17 1.252 . S
In26 O27 2.294 1_455 S
In26 O28 2.326 1_455 S
In26 O32 2.266 . S
In26 O33 2.326 . S
In26 O34 2.266 . S
In26 O35 2.326 . S
In26 O37 2.294 . S
In26 O38 2.326 . S
O27 In26 2.294 1_655 S
O27 C36 1.240 . S
O28 In26 2.326 1_655 S
O28 C36 1.252 . S
C29 O32 1.252 . S
C29 O33 1.260 . S
C30 O37 1.240 . S
C30 O38 1.252 . S
C31 O34 1.252 . S
C31 O35 1.260 . S
O32 In26 2.266 . S
O32 C29 1.252 . S
O33 In26 2.326 . S
O33 C29 1.260 . S
O34 In26 2.266 . S
O34 C31 1.252 . S
O35 In26 2.326 . S
O35 C31 1.260 . S
C36 O27 1.240 . S
C36 O28 1.252 . S
O37 In26 2.294 . S
O37 C30 1.240 . S
O38 In26 2.326 . S
O38 C30 1.252 . S
In39 O40 2.294 . S
In39 O41 2.326 . S
In39 O45 2.266 . S
In39 O46 2.326 . S
In39 O47 2.266 . S
In39 O48 2.326 1_455 S
In39 O50 2.294 . S
In39 O51 2.326 . S
O40 In39 2.294 . S
O40 C49 1.240 . S
O41 In39 2.326 . S
O41 C49 1.252 . S
C42 O45 1.252 . S
C42 O46 1.260 . S
C43 O50 1.240 . S
C43 O51 1.252 . S
C44 O47 1.252 1_655 S
C44 O48 1.260 . S
O45 In39 2.266 . S
O45 C42 1.252 . S
O46 In39 2.326 . S
O46 C42 1.260 . S
O47 In39 2.266 . S
O47 C44 1.252 1_455 S
O48 In39 2.326 1_655 S
O48 C44 1.260 . S
C49 O40 1.240 . S
C49 O41 1.252 . S
O50 In39 2.294 . S
O50 C43 1.240 . S
O51 In39 2.326 . S
O51 C43 1.252 . S
In52 O53 2.294 . S
In52 O54 2.326 . S
In52 O58 2.266 . S
In52 O59 2.326 . S
In52 O60 2.266 . S
In52 O61 2.326 . S
In52 O63 2.294 . S
In52 O64 2.326 . S
O53 In52 2.294 . S
O53 C62 1.240 . S
O54 In52 2.326 . S
O54 C62 1.252 . S
C55 O58 1.252 . S
C55 O59 1.260 . S
C56 O63 1.240 . S
C56 O64 1.252 . S
C57 O60 1.252 . S
C57 O61 1.260 . S
O58 In52 2.266 . S
O58 C55 1.252 . S
O59 In52 2.326 . S
O59 C55 1.260 . S
O60 In52 2.266 . S
O60 C57 1.252 . S
O61 In52 2.326 . S
O61 C57 1.260 . S
C62 O53 1.240 . S
C62 O54 1.252 . S
O63 In52 2.294 . S
O63 C56 1.240 . S
O64 In52 2.326 . S
O64 C56 1.252 . S
In65 O66 2.294 . S
In65 O67 2.326 . S
In65 O71 2.266 . S
In65 O72 2.326 . S
In65 O73 2.266 . S
In65 O74 2.326 . S
In65 O76 2.294 . S
In65 O77 2.326 . S
O66 In65 2.294 . S
O66 C75 1.240 . S
O67 In65 2.326 . S
O67 C75 1.252 . S
C68 O71 1.252 . S
C68 O72 1.260 . S
C69 O76 1.240 . S
C69 O77 1.252 . S
C70 O73 1.252 . S
C70 O74 1.260 . S
O71 In65 2.266 . S
O71 C68 1.252 . S
O72 In65 2.326 . S
O72 C68 1.260 . S
O73 In65 2.266 . S
O73 C70 1.252 . S
O74 In65 2.326 . S
O74 C70 1.260 . S
C75 O66 1.240 . S
C75 O67 1.252 . S
O76 In65 2.294 . S
O76 C69 1.240 . S
O77 In65 2.326 . S
O77 C69 1.252 . S
In78 O79 2.294 . S
In78 O80 2.326 . S
In78 O84 2.266 . S
In78 O85 2.326 . S
In78 O86 2.266 . S
In78 O87 2.326 . S
In78 O89 2.294 . S
In78 O90 2.326 . S
O79 In78 2.294 . S
O79 C88 1.240 . S
O80 In78 2.326 . S
O80 C88 1.252 . S
C81 O84 1.252 . S
C81 O85 1.260 . S
C82 O89 1.240 . S
C82 O90 1.252 . S
C83 O86 1.252 . S
C83 O87 1.260 . S
O84 In78 2.266 . S
O84 C81 1.252 . S
O85 In78 2.326 . S
O85 C81 1.260 . S
O86 In78 2.266 . S
O86 C83 1.252 . S
O87 In78 2.326 . S
O87 C83 1.260 . S
C88 O79 1.240 . S
C88 O80 1.252 . S
O89 In78 2.294 . S
O89 C82 1.240 . S
O90 In78 2.326 . S
O90 C82 1.252 . S
In91 O92 2.294 . S
In91 O93 2.326 . S
In91 O97 2.266 . S
In91 O98 2.326 . S
In91 O99 2.266 . S
In91 O100 2.326 . S
In91 O102 2.294 . S
In91 O103 2.326 . S
O92 In91 2.294 . S
O92 C101 1.240 . S
O93 In91 2.326 . S
O93 C101 1.252 . S
C94 O97 1.252 . S
C94 O98 1.260 . S
C95 O102 1.240 . S
C95 O103 1.252 . S
C96 O99 1.252 . S
C96 O100 1.260 . S
O97 In91 2.266 . S
O97 C94 1.252 . S
O98 In91 2.326 . S
O98 C94 1.260 . S
O99 In91 2.266 . S
O99 C96 1.252 . S
O100 In91 2.326 . S
O100 C96 1.260 . S
C101 O92 1.240 . S
C101 O93 1.252 . S
O102 In91 2.294 . S
O102 C95 1.240 . S
O103 In91 2.326 . S
O103 C95 1.252 . S
H104 C122 0.951 . S
H105 C124 0.951 . S
H106 C126 0.950 1_655 S
H107 C127 0.950 1_655 S
H108 C129 0.950 . S
H109 C132 0.950 1_655 S
H110 C133 0.950 1_655 S
H111 C135 0.950 . S
H112 C136 0.950 . S
H113 C137 0.951 1_655 S
H114 C139 0.951 1_655 S
H115 C141 0.950 . S
H116 C142 0.950 . S
H117 C144 0.950 . S
H118 C147 0.950 . S
H119 C148 0.950 . S
H120 C150 0.950 1_655 S
H121 C151 0.950 1_655 S
C122 H104 0.951 . S
C122 C123 1.366 . S
C122 C124 1.388 . S
C123 C122 1.366 . S
C123 C127 1.385 . S
C124 H105 0.951 . S
C124 C122 1.388 . S
C124 C125 1.366 . S
C125 C124 1.366 . S
C125 C126 1.414 . S
C125 C128 1.499 . S
C126 H106 0.950 1_455 S
C126 C125 1.414 . S
C126 C127 1.374 . S
C127 H107 0.950 1_455 S
C127 C123 1.385 . S
C127 C126 1.374 . S
C128 C125 1.499 . S
C128 C129 1.373 . S
C128 C130 1.389 . S
C129 H108 0.950 . S
C129 C128 1.373 . S
C129 C145 1.377 . S
C130 C128 1.389 . S
C130 C131 1.524 . S
C130 C144 1.377 . S
C131 C130 1.524 . S
C131 C132 1.397 . S
C131 C136 1.363 . S
C132 H109 0.950 1_455 S
C132 C131 1.397 . S
C132 C133 1.334 . S
C133 H110 0.950 1_455 S
C133 C132 1.334 . S
C133 C134 1.287 . S
C134 C133 1.287 . S
C134 C135 1.524 . S
C134 H153 0.911 1_554 S
C135 H111 0.950 . S
C135 C134 1.524 . S
C135 C136 1.415 . S
C136 H112 0.950 . S
C136 C131 1.363 . S
C136 C135 1.415 . S
C137 H113 0.951 1_455 S
C137 C138 1.366 . S
C137 C139 1.388 . S
C138 C137 1.366 . S
C138 C142 1.385 . S
C139 H114 0.951 1_455 S
C139 C137 1.388 . S
C139 C140 1.366 . S
C140 C139 1.366 . S
C140 C141 1.414 . S
C140 C143 1.499 . S
C141 H115 0.950 . S
C141 C140 1.414 . S
C141 C142 1.374 . S
C142 H116 0.950 . S
C142 C138 1.385 . S
C142 C141 1.374 . S
C143 C140 1.499 . S
C143 C144 1.373 . S
C143 C145 1.389 . S
C144 H117 0.950 . S
C144 C130 1.377 . S
C144 C143 1.373 . S
C145 C129 1.377 . S
C145 C143 1.389 . S
C145 C146 1.524 . S
C146 C145 1.524 . S
C146 C147 1.397 . S
C146 C151 1.363 . S
C147 H118 0.950 . S
C147 C146 1.397 . S
C147 C148 1.334 . S
C148 H119 0.950 . S
C148 C147 1.334 . S
C148 C149 1.287 . S
C149 C148 1.287 . S
C149 C150 1.524 . S
C149 H152 0.999 . S
C150 H120 0.950 1_455 S
C150 C149 1.524 . S
C150 C151 1.415 . S
C151 H121 0.950 1_455 S
C151 C146 1.363 . S
C151 C150 1.415 . S
H152 C149 0.999 . S
H153 C134 0.911 1_556 S
H154 C172 0.951 . S
H155 C174 0.951 . S
H156 C176 0.950 . S
H157 C177 0.950 . S
H158 C179 0.950 . S
H159 C182 0.950 . S
H160 C183 0.950 . S
H161 C185 0.950 . S
H162 C186 0.950 . S
H163 C187 0.951 . S
H164 C189 0.951 . S
H165 C191 0.950 . S
H166 C192 0.950 . S
H167 C194 0.950 . S
H168 C197 0.950 . S
H169 C198 0.950 . S
H170 C200 0.950 . S
H171 C201 0.950 . S
C172 H154 0.951 . S
C172 C173 1.366 . S
C172 C174 1.388 . S
C173 C172 1.366 . S
C173 C177 1.385 . S
C174 H155 0.951 . S
C174 C172 1.388 . S
C174 C175 1.366 . S
C175 C174 1.366 . S
C175 C176 1.414 . S
C175 C178 1.499 . S
C176 H156 0.950 . S
C176 C175 1.414 . S
C176 C177 1.374 . S
C177 H157 0.950 . S
C177 C173 1.385 . S
C177 C176 1.374 . S
C178 C175 1.499 . S
C178 C179 1.373 . S
C178 C180 1.389 . S
C179 H158 0.950 . S
C179 C178 1.373 . S
C179 C195 1.377 . S
C180 C178 1.389 . S
C180 C181 1.524 . S
C180 C194 1.377 . S
C181 C180 1.524 . S
C181 C182 1.397 . S
C181 C186 1.363 . S
C182 H159 0.950 . S
C182 C181 1.397 . S
C182 C183 1.334 . S
C183 H160 0.950 . S
C183 C182 1.334 . S
C183 C184 1.287 . S
C184 C183 1.287 . S
C184 C185 1.524 . S
C184 H203 0.913 . S
C185 H161 0.950 . S
C185 C184 1.524 . S
C185 C186 1.415 . S
C186 H162 0.950 . S
C186 C181 1.363 . S
C186 C185 1.415 . S
C187 H163 0.951 . S
C187 C188 1.366 . S
C187 C189 1.388 . S
C188 C187 1.366 . S
C188 C192 1.385 . S
C189 H164 0.951 . S
C189 C187 1.388 . S
C189 C190 1.366 . S
C190 C189 1.366 . S
C190 C191 1.414 . S
C190 C193 1.499 . S
C191 H165 0.950 . S
C191 C190 1.414 . S
C191 C192 1.374 . S
C192 H166 0.950 . S
C192 C188 1.385 . S
C192 C191 1.374 . S
C193 C190 1.499 . S
C193 C194 1.373 . S
C193 C195 1.389 . S
C194 H167 0.950 . S
C194 C180 1.377 . S
C194 C193 1.373 . S
C195 C179 1.377 . S
C195 C193 1.389 . S
C195 C196 1.524 . S
C196 C195 1.524 . S
C196 C197 1.397 1_455 S
C196 C201 1.363 . S
C197 H168 0.950 . S
C197 C196 1.397 1_655 S
C197 C198 1.334 . S
C198 H169 0.950 . S
C198 C197 1.334 . S
C198 C199 1.287 . S
C199 C198 1.287 . S
C199 C200 1.524 1_655 S
C199 H202 0.999 . S
C200 H170 0.950 . S
C200 C199 1.524 1_455 S
C200 C201 1.415 . S
C201 H171 0.950 . S
C201 C196 1.363 . S
C201 C200 1.415 . S
H202 C199 0.999 . S
H203 C184 0.913 . S
H204 C222 0.951 . S
H205 C224 0.951 . S
H206 C226 0.950 . S
H207 C227 0.950 . S
H208 C229 0.950 . S
H209 C232 0.950 . S
H210 C233 0.950 . S
H211 C235 0.950 . S
H212 C236 0.950 . S
H213 C237 0.951 . S
H214 C239 0.951 . S
H215 C241 0.950 . S
H216 C242 0.950 . S
H217 C244 0.950 . S
H218 C247 0.950 . S
H219 C248 0.950 . S
H220 C250 0.950 . S
H221 C251 0.950 . S
C222 H204 0.951 . S
C222 C223 1.366 . S
C222 C224 1.388 . S
C223 C222 1.366 . S
C223 C227 1.385 . S
C224 H205 0.951 . S
C224 C222 1.388 . S
C224 C225 1.366 . S
C225 C224 1.366 . S
C225 C226 1.414 . S
C225 C228 1.499 . S
C226 H206 0.950 . S
C226 C225 1.414 . S
C226 C227 1.374 . S
C227 H207 0.950 . S
C227 C223 1.385 . S
C227 C226 1.374 . S
C228 C225 1.499 . S
C228 C229 1.373 . S
C228 C230 1.389 . S
C229 H208 0.950 . S
C229 C228 1.373 . S
C229 C245 1.377 . S
C230 C228 1.389 . S
C230 C231 1.524 . S
C230 C244 1.377 . S
C231 C230 1.524 . S
C231 C232 1.397 . S
C231 C236 1.363 . S
C232 H209 0.950 . S
C232 C231 1.397 . S
C232 C233 1.334 . S
C233 H210 0.950 . S
C233 C232 1.334 . S
C233 C234 1.287 . S
C234 C233 1.287 . S
C234 C235 1.524 . S
C234 H253 0.913 . S
C235 H211 0.950 . S
C235 C234 1.524 . S
C235 C236 1.415 . S
C236 H212 0.950 . S
C236 C231 1.363 . S
C236 C235 1.415 . S
C237 H213 0.951 . S
C237 C238 1.366 . S
C237 C239 1.388 . S
C238 C237 1.366 . S
C238 C242 1.385 . S
C239 H214 0.951 . S
C239 C237 1.388 . S
C239 C240 1.366 . S
C240 C239 1.366 . S
C240 C241 1.414 . S
C240 C243 1.499 . S
C241 H215 0.950 . S
C241 C240 1.414 . S
C241 C242 1.374 . S
C242 H216 0.950 . S
C242 C238 1.385 . S
C242 C241 1.374 . S
C243 C240 1.499 . S
C243 C244 1.373 . S
C243 C245 1.389 . S
C244 H217 0.950 . S
C244 C230 1.377 . S
C244 C243 1.373 . S
C245 C229 1.377 . S
C245 C243 1.389 . S
C245 C246 1.524 . S
C246 C245 1.524 . S
C246 C247 1.397 . S
C246 C251 1.363 . S
C247 H218 0.950 . S
C247 C246 1.397 . S
C247 C248 1.334 . S
C248 H219 0.950 . S
C248 C247 1.334 . S
C248 C249 1.287 . S
C249 C248 1.287 . S
C249 C250 1.524 . S
C249 H252 0.999 . S
C250 H220 0.950 . S
C250 C249 1.524 . S
C250 C251 1.415 . S
C251 H221 0.950 . S
C251 C246 1.363 . S
C251 C250 1.415 . S
H252 C249 0.999 . S
H253 C234 0.913 . S
H254 C272 0.951 . S
H255 C274 0.951 . S
H256 C276 0.950 . S
H257 C277 0.950 . S
H258 C279 0.950 . S
H259 C282 0.950 . S
H260 C283 0.950 . S
H261 C285 0.950 . S
H262 C286 0.950 . S
H263 C287 0.951 . S
H264 C289 0.951 . S
H265 C291 0.950 . S
H266 C292 0.950 . S
H267 C294 0.950 . S
H268 C297 0.950 . S
H269 C298 0.950 . S
H270 C300 0.950 . S
H271 C301 0.950 . S
C272 H254 0.951 . S
C272 C273 1.366 . S
C272 C274 1.388 . S
C273 C272 1.366 . S
C273 C277 1.385 . S
C274 H255 0.951 . S
C274 C272 1.388 . S
C274 C275 1.366 . S
C275 C274 1.366 . S
C275 C276 1.414 . S
C275 C278 1.499 . S
C276 H256 0.950 . S
C276 C275 1.414 . S
C276 C277 1.374 . S
C277 H257 0.950 . S
C277 C273 1.385 . S
C277 C276 1.374 . S
C278 C275 1.499 . S
C278 C279 1.373 . S
C278 C280 1.389 . S
C279 H258 0.950 . S
C279 C278 1.373 . S
C279 C295 1.377 . S
C280 C278 1.389 . S
C280 C281 1.524 . S
C280 C294 1.377 . S
C281 C280 1.524 . S
C281 C282 1.397 . S
C281 C286 1.363 . S
C282 H259 0.950 . S
C282 C281 1.397 . S
C282 C283 1.334 . S
C283 H260 0.950 . S
C283 C282 1.334 . S
C283 C284 1.287 . S
C284 C283 1.287 . S
C284 C285 1.524 . S
C284 H303 0.913 . S
C285 H261 0.950 . S
C285 C284 1.524 . S
C285 C286 1.415 . S
C286 H262 0.950 . S
C286 C281 1.363 . S
C286 C285 1.415 . S
C287 H263 0.951 . S
C287 C288 1.366 . S
C287 C289 1.388 . S
C288 C287 1.366 . S
C288 C292 1.385 . S
C289 H264 0.951 . S
C289 C287 1.388 . S
C289 C290 1.366 . S
C290 C289 1.366 . S
C290 C291 1.414 . S
C290 C293 1.499 . S
C291 H265 0.950 . S
C291 C290 1.414 . S
C291 C292 1.374 . S
C292 H266 0.950 . S
C292 C288 1.385 . S
C292 C291 1.374 . S
C293 C290 1.499 . S
C293 C294 1.373 . S
C293 C295 1.389 . S
C294 H267 0.950 . S
C294 C280 1.377 . S
C294 C293 1.373 . S
C295 C279 1.377 . S
C295 C293 1.389 . S
C295 C296 1.524 . S
C296 C295 1.524 . S
C296 C297 1.397 . S
C296 C301 1.363 . S
C297 H268 0.950 . S
C297 C296 1.397 . S
C297 C298 1.334 . S
C298 H269 0.950 . S
C298 C297 1.334 . S
C298 C299 1.287 . S
C299 C298 1.287 . S
C299 C300 1.524 . S
C299 H302 0.999 . S
C300 H270 0.950 . S
C300 C299 1.524 . S
C300 C301 1.415 . S
C301 H271 0.950 . S
C301 C296 1.363 . S
C301 C300 1.415 . S
H302 C299 0.999 . S
H303 C284 0.913 . S
H304 C322 0.951 . S
H305 C324 0.951 . S
H306 C326 0.950 . S
H307 C327 0.950 . S
H308 C329 0.950 . S
H309 C332 0.950 . S
H310 C333 0.950 . S
H311 C335 0.950 . S
H312 C336 0.950 . S
H313 C337 0.951 . S
H314 C339 0.951 . S
H315 C341 0.950 . S
H316 C342 0.950 . S
H317 C344 0.950 . S
H318 C347 0.950 . S
H319 C348 0.950 . S
H320 C350 0.950 . S
H321 C351 0.950 . S
C322 H304 0.951 . S
C322 C323 1.366 . S
C322 C324 1.388 . S
C323 C322 1.366 . S
C323 C327 1.385 . S
C324 H305 0.951 . S
C324 C322 1.388 . S
C324 C325 1.366 . S
C325 C324 1.366 . S
C325 C326 1.414 . S
C325 C328 1.499 . S
C326 H306 0.950 . S
C326 C325 1.414 . S
C326 C327 1.374 . S
C327 H307 0.950 . S
C327 C323 1.385 . S
C327 C326 1.374 . S
C328 C325 1.499 . S
C328 C329 1.373 . S
C328 C330 1.389 . S
C329 H308 0.950 . S
C329 C328 1.373 . S
C329 C345 1.377 . S
C330 C328 1.389 . S
C330 C331 1.524 . S
C330 C344 1.377 . S
C331 C330 1.524 . S
C331 C332 1.397 . S
C331 C336 1.363 . S
C332 H309 0.950 . S
C332 C331 1.397 . S
C332 C333 1.334 . S
C333 H310 0.950 . S
C333 C332 1.334 . S
C333 C334 1.287 . S
C334 C333 1.287 . S
C334 C335 1.524 . S
C334 H353 0.913 . S
C335 H311 0.950 . S
C335 C334 1.524 . S
C335 C336 1.415 . S
C336 H312 0.950 . S
C336 C331 1.363 . S
C336 C335 1.415 . S
C337 H313 0.951 . S
C337 C338 1.366 . S
C337 C339 1.388 . S
C338 C337 1.366 . S
C338 C342 1.385 . S
C339 H314 0.951 . S
C339 C337 1.388 . S
C339 C340 1.366 . S
C340 C339 1.366 . S
C340 C341 1.414 . S
C340 C343 1.499 . S
C341 H315 0.950 . S
C341 C340 1.414 . S
C341 C342 1.374 . S
C342 H316 0.950 . S
C342 C338 1.385 . S
C342 C341 1.374 . S
C343 C340 1.499 . S
C343 C344 1.373 . S
C343 C345 1.389 . S
C344 H317 0.950 . S
C344 C330 1.377 . S
C344 C343 1.373 . S
C345 C329 1.377 . S
C345 C343 1.389 . S
C345 C346 1.524 . S
C346 C345 1.524 . S
C346 C347 1.397 . S
C346 C351 1.363 . S
C347 H318 0.950 . S
C347 C346 1.397 . S
C347 C348 1.334 . S
C348 H319 0.950 . S
C348 C347 1.334 . S
C348 C349 1.287 . S
C349 C348 1.287 . S
C349 C350 1.524 . S
C349 H352 0.999 . S
C350 H320 0.950 . S
C350 C349 1.524 . S
C350 C351 1.415 . S
C351 H321 0.950 . S
C351 C346 1.363 . S
C351 C350 1.415 . S
H352 C349 0.999 . S
H353 C334 0.913 . S
H354 C372 0.951 . S
H355 C374 0.951 . S
H356 C376 0.950 . S
H357 C377 0.950 . S
H358 C379 0.950 . S
H359 C382 0.950 . S
H360 C383 0.950 . S
H361 C385 0.950 . S
H362 C386 0.950 . S
H363 C387 0.951 . S
H364 C389 0.951 . S
H365 C391 0.950 . S
H366 C392 0.950 . S
H367 C394 0.950 . S
H368 C397 0.950 . S
H369 C398 0.950 . S
H370 C400 0.950 . S
H371 C401 0.950 . S
C372 H354 0.951 . S
C372 C373 1.366 . S
C372 C374 1.388 . S
C373 C372 1.366 . S
C373 C377 1.385 . S
C374 H355 0.951 . S
C374 C372 1.388 . S
C374 C375 1.366 . S
C375 C374 1.366 . S
C375 C376 1.414 . S
C375 C378 1.499 . S
C376 H356 0.950 . S
C376 C375 1.414 . S
C376 C377 1.374 . S
C377 H357 0.950 . S
C377 C373 1.385 . S
C377 C376 1.374 . S
C378 C375 1.499 . S
C378 C379 1.373 . S
C378 C380 1.389 . S
C379 H358 0.950 . S
C379 C378 1.373 . S
C379 C395 1.377 . S
C380 C378 1.389 . S
C380 C381 1.524 . S
C380 C394 1.377 . S
C381 C380 1.524 . S
C381 C382 1.397 . S
C381 C386 1.363 . S
C382 H359 0.950 . S
C382 C381 1.397 . S
C382 C383 1.334 . S
C383 H360 0.950 . S
C383 C382 1.334 . S
C383 C384 1.287 . S
C384 C383 1.287 . S
C384 C385 1.524 . S
C384 H403 0.913 . S
C385 H361 0.950 . S
C385 C384 1.524 . S
C385 C386 1.415 . S
C386 H362 0.950 . S
C386 C381 1.363 . S
C386 C385 1.415 . S
C387 H363 0.951 . S
C387 C388 1.366 . S
C387 C389 1.388 . S
C388 C387 1.366 . S
C388 C392 1.385 . S
C389 H364 0.951 . S
C389 C387 1.388 . S
C389 C390 1.366 . S
C390 C389 1.366 . S
C390 C391 1.414 . S
C390 C393 1.499 . S
C391 H365 0.950 . S
C391 C390 1.414 . S
C391 C392 1.374 . S
C392 H366 0.950 . S
C392 C388 1.385 . S
C392 C391 1.374 . S
C393 C390 1.499 . S
C393 C394 1.373 . S
C393 C395 1.389 . S
C394 H367 0.950 . S
C394 C380 1.377 . S
C394 C393 1.373 . S
C395 C379 1.377 . S
C395 C393 1.389 . S
C395 C396 1.524 . S
C396 C395 1.524 . S
C396 C397 1.397 . S
C396 C401 1.363 . S
C397 H368 0.950 . S
C397 C396 1.397 . S
C397 C398 1.334 . S
C398 H369 0.950 . S
C398 C397 1.334 . S
C398 C399 1.287 . S
C399 C398 1.287 . S
C399 C400 1.524 . S
C399 H402 0.999 . S
C400 H370 0.950 . S
C400 C399 1.524 . S
C400 C401 1.415 . S
C401 H371 0.950 . S
C401 C396 1.363 . S
C401 C400 1.415 . S
H402 C399 0.999 . S
H403 C384 0.913 . S
H404 C422 0.951 . S
H405 C424 0.951 . S
H406 C426 0.950 . S
H407 C427 0.950 . S
H408 C429 0.950 . S
H409 C432 0.950 . S
H410 C433 0.950 . S
H411 C435 0.950 . S
H412 C436 0.950 . S
H413 C437 0.951 . S
H414 C439 0.951 . S
H415 C441 0.950 . S
H416 C442 0.950 . S
H417 C444 0.950 . S
H418 C447 0.950 . S
H419 C448 0.950 . S
H420 C450 0.950 . S
H421 C451 0.950 . S
C422 H404 0.951 . S
C422 C423 1.366 . S
C422 C424 1.388 . S
C423 C422 1.366 . S
C423 C427 1.385 . S
C424 H405 0.951 . S
C424 C422 1.388 . S
C424 C425 1.366 . S
C425 C424 1.366 . S
C425 C426 1.414 . S
C425 C428 1.499 . S
C426 H406 0.950 . S
C426 C425 1.414 . S
C426 C427 1.374 . S
C427 H407 0.950 . S
C427 C423 1.385 . S
C427 C426 1.374 . S
C428 C425 1.499 . S
C428 C429 1.373 . S
C428 C430 1.389 . S
C429 H408 0.950 . S
C429 C428 1.373 . S
C429 C445 1.377 . S
C430 C428 1.389 . S
C430 C431 1.524 . S
C430 C444 1.377 . S
C431 C430 1.524 . S
C431 C432 1.397 . S
C431 C436 1.363 . S
C432 H409 0.950 . S
C432 C431 1.397 . S
C432 C433 1.334 . S
C433 H410 0.950 . S
C433 C432 1.334 . S
C433 C434 1.287 . S
C434 C433 1.287 . S
C434 C435 1.524 . S
C434 H453 0.913 . S
C435 H411 0.950 . S
C435 C434 1.524 . S
C435 C436 1.415 . S
C436 H412 0.950 . S
C436 C431 1.363 . S
C436 C435 1.415 . S
C437 H413 0.951 . S
C437 C438 1.366 . S
C437 C439 1.388 . S
C438 C437 1.366 . S
C438 C442 1.385 . S
C439 H414 0.951 . S
C439 C437 1.388 . S
C439 C440 1.366 . S
C440 C439 1.366 . S
C440 C441 1.414 . S
C440 C443 1.499 . S
C441 H415 0.950 . S
C441 C440 1.414 . S
C441 C442 1.374 . S
C442 H416 0.950 . S
C442 C438 1.385 . S
C442 C441 1.374 . S
C443 C440 1.499 . S
C443 C444 1.373 . S
C443 C445 1.389 . S
C444 H417 0.950 . S
C444 C430 1.377 . S
C444 C443 1.373 . S
C445 C429 1.377 . S
C445 C443 1.389 . S
C445 C446 1.524 . S
C446 C445 1.524 . S
C446 C447 1.397 . S
C446 C451 1.363 . S
C447 H418 0.950 . S
C447 C446 1.397 . S
C447 C448 1.334 . S
C448 H419 0.950 . S
C448 C447 1.334 . S
C448 C449 1.287 . S
C449 C448 1.287 . S
C449 C450 1.524 . S
C449 H452 0.999 . S
C450 H420 0.950 . S
C450 C449 1.524 . S
C450 C451 1.415 . S
C451 H421 0.950 . S
C451 C446 1.363 . S
C451 C450 1.415 . S
H452 C449 0.999 . S
H453 C434 0.913 . S
H454 C472 0.951 . S
H455 C474 0.951 . S
H456 C476 0.950 . S
H457 C477 0.950 . S
H458 C479 0.950 . S
H459 C482 0.950 . S
H460 C483 0.950 . S
H461 C485 0.950 . S
H462 C486 0.950 . S
H463 C487 0.951 . S
H464 C489 0.951 . S
H465 C491 0.950 . S
H466 C492 0.950 . S
H467 C494 0.950 . S
H468 C497 0.950 . S
H469 C498 0.950 . S
H470 C500 0.950 . S
H471 C501 0.950 . S
C472 H454 0.951 . S
C472 C473 1.366 . S
C472 C474 1.388 . S
C473 C472 1.366 . S
C473 C477 1.385 . S
C474 H455 0.951 . S
C474 C472 1.388 . S
C474 C475 1.366 . S
C475 C474 1.366 . S
C475 C476 1.414 . S
C475 C478 1.499 . S
C476 H456 0.950 . S
C476 C475 1.414 . S
C476 C477 1.374 . S
C477 H457 0.950 . S
C477 C473 1.385 . S
C477 C476 1.374 . S
C478 C475 1.499 . S
C478 C479 1.373 . S
C478 C480 1.389 . S
C479 H458 0.950 . S
C479 C478 1.373 . S
C479 C495 1.377 . S
C480 C478 1.389 . S
C480 C481 1.524 . S
C480 C494 1.377 . S
C481 C480 1.524 . S
C481 C482 1.397 . S
C481 C486 1.363 . S
C482 H459 0.950 . S
C482 C481 1.397 . S
C482 C483 1.334 . S
C483 H460 0.950 . S
C483 C482 1.334 . S
C483 C484 1.287 . S
C484 C483 1.287 . S
C484 C485 1.524 . S
C484 H503 0.913 . S
C485 H461 0.950 . S
C485 C484 1.524 . S
C485 C486 1.415 . S
C486 H462 0.950 . S
C486 C481 1.363 . S
C486 C485 1.415 . S
C487 H463 0.951 . S
C487 C488 1.366 . S
C487 C489 1.388 . S
C488 C487 1.366 . S
C488 C492 1.385 . S
C489 H464 0.951 . S
C489 C487 1.388 . S
C489 C490 1.366 . S
C490 C489 1.366 . S
C490 C491 1.414 . S
C490 C493 1.499 . S
C491 H465 0.950 . S
C491 C490 1.414 . S
C491 C492 1.374 . S
C492 H466 0.950 . S
C492 C488 1.385 . S
C492 C491 1.374 . S
C493 C490 1.499 . S
C493 C494 1.373 . S
C493 C495 1.389 . S
C494 H467 0.950 . S
C494 C480 1.377 . S
C494 C493 1.373 . S
C495 C479 1.377 . S
C495 C493 1.389 . S
C495 C496 1.524 . S
C496 C495 1.524 . S
C496 C497 1.397 . S
C496 C501 1.363 . S
C497 H468 0.950 . S
C497 C496 1.397 . S
C497 C498 1.334 . S
C498 H469 0.950 . S
C498 C497 1.334 . S
C498 C499 1.287 . S
C499 C498 1.287 . S
C499 C500 1.524 . S
C499 H502 0.999 . S
C500 H470 0.950 . S
C500 C499 1.524 . S
C500 C501 1.415 . S
C501 H471 0.950 . S
C501 C496 1.363 . S
C501 C500 1.415 . S
H502 C499 0.999 . S
H503 C484 0.913 . S
H504 C522 0.951 . S
H505 C524 0.951 . S
H506 C526 0.950 . S
H507 C527 0.950 . S
H508 C529 0.950 . S
H509 C532 0.950 . S
H510 C533 0.950 . S
H511 C535 0.950 . S
H512 C536 0.950 . S
H513 C537 0.951 . S
H514 C539 0.951 . S
H515 C541 0.950 . S
H516 C542 0.950 . S
H517 C544 0.950 . S
H518 C547 0.950 . S
H519 C548 0.950 . S
H520 C550 0.950 . S
H521 C551 0.950 . S
C522 H504 0.951 . S
C522 C523 1.366 . S
C522 C524 1.388 . S
C523 C522 1.366 . S
C523 C527 1.385 . S
C524 H505 0.951 . S
C524 C522 1.388 . S
C524 C525 1.366 . S
C525 C524 1.366 . S
C525 C526 1.414 . S
C525 C528 1.499 . S
C526 H506 0.950 . S
C526 C525 1.414 . S
C526 C527 1.374 . S
C527 H507 0.950 . S
C527 C523 1.385 . S
C527 C526 1.374 . S
C528 C525 1.499 . S
C528 C529 1.373 . S
C528 C530 1.389 . S
C529 H508 0.950 . S
C529 C528 1.373 . S
C529 C545 1.377 . S
C530 C528 1.389 . S
C530 C531 1.524 . S
C530 C544 1.377 . S
C531 C530 1.524 . S
C531 C532 1.397 . S
C531 C536 1.363 . S
C532 H509 0.950 . S
C532 C531 1.397 . S
C532 C533 1.334 . S
C533 H510 0.950 . S
C533 C532 1.334 . S
C533 C534 1.287 . S
C534 C533 1.287 . S
C534 C535 1.524 . S
C534 H553 0.913 . S
C535 H511 0.950 . S
C535 C534 1.524 . S
C535 C536 1.415 . S
C536 H512 0.950 . S
C536 C531 1.363 . S
C536 C535 1.415 . S
C537 H513 0.951 . S
C537 C538 1.366 . S
C537 C539 1.388 . S
C538 C537 1.366 . S
C538 C542 1.385 . S
C539 H514 0.951 . S
C539 C537 1.388 . S
C539 C540 1.366 . S
C540 C539 1.366 . S
C540 C541 1.414 . S
C540 C543 1.499 . S
C541 H515 0.950 . S
C541 C540 1.414 . S
C541 C542 1.374 . S
C542 H516 0.950 . S
C542 C538 1.385 . S
C542 C541 1.374 . S
C543 C540 1.499 . S
C543 C544 1.373 . S
C543 C545 1.389 . S
C544 H517 0.950 . S
C544 C530 1.377 . S
C544 C543 1.373 . S
C545 C529 1.377 . S
C545 C543 1.389 . S
C545 C546 1.524 . S
C546 C545 1.524 . S
C546 C547 1.397 . S
C546 C551 1.363 . S
C547 H518 0.950 . S
C547 C546 1.397 . S
C547 C548 1.334 . S
C548 H519 0.950 . S
C548 C547 1.334 . S
C548 C549 1.287 . S
C549 C548 1.287 . S
C549 C550 1.524 . S
C549 H552 0.999 . S
C550 H520 0.950 . S
C550 C549 1.524 . S
C550 C551 1.415 . S
C551 H521 0.950 . S
C551 C546 1.363 . S
C551 C550 1.415 . S
H552 C549 0.999 . S
H553 C534 0.913 . S
H554 C572 0.951 . S
H555 C574 0.951 . S
H556 C576 0.950 . S
H557 C577 0.950 . S
H558 C579 0.950 . S
H559 C582 0.950 . S
H560 C583 0.950 . S
H561 C585 0.950 . S
H562 C586 0.950 . S
H563 C587 0.951 . S
H564 C589 0.951 . S
H565 C591 0.950 . S
H566 C592 0.950 . S
H567 C594 0.950 . S
H568 C597 0.950 . S
H569 C598 0.950 . S
H570 C600 0.950 . S
H571 C601 0.950 . S
C572 H554 0.951 . S
C572 C573 1.366 . S
C572 C574 1.388 . S
C573 C572 1.366 . S
C573 C577 1.385 . S
C574 H555 0.951 . S
C574 C572 1.388 . S
C574 C575 1.366 . S
C575 C574 1.366 . S
C575 C576 1.414 . S
C575 C578 1.499 . S
C576 H556 0.950 . S
C576 C575 1.414 . S
C576 C577 1.374 . S
C577 H557 0.950 . S
C577 C573 1.385 . S
C577 C576 1.374 . S
C578 C575 1.499 . S
C578 C579 1.373 . S
C578 C580 1.389 . S
C579 H558 0.950 . S
C579 C578 1.373 . S
C579 C595 1.377 . S
C580 C578 1.389 . S
C580 C581 1.524 . S
C580 C594 1.377 . S
C581 C580 1.524 . S
C581 C582 1.397 . S
C581 C586 1.363 . S
C582 H559 0.950 . S
C582 C581 1.397 . S
C582 C583 1.334 . S
C583 H560 0.950 . S
C583 C582 1.334 . S
C583 C584 1.287 . S
C584 C583 1.287 . S
C584 C585 1.524 . S
C584 H603 0.913 . S
C585 H561 0.950 . S
C585 C584 1.524 . S
C585 C586 1.415 . S
C586 H562 0.950 . S
C586 C581 1.363 . S
C586 C585 1.415 . S
C587 H563 0.951 . S
C587 C588 1.366 . S
C587 C589 1.388 . S
C588 C587 1.366 . S
C588 C592 1.385 . S
C589 H564 0.951 . S
C589 C587 1.388 . S
C589 C590 1.366 . S
C590 C589 1.366 . S
C590 C591 1.414 . S
C590 C593 1.499 . S
C591 H565 0.950 . S
C591 C590 1.414 . S
C591 C592 1.374 . S
C592 H566 0.950 . S
C592 C588 1.385 . S
C592 C591 1.374 . S
C593 C590 1.499 . S
C593 C594 1.373 . S
C593 C595 1.389 . S
C594 H567 0.950 . S
C594 C580 1.377 . S
C594 C593 1.373 . S
C595 C579 1.377 . S
C595 C593 1.389 . S
C595 C596 1.524 . S
C596 C595 1.524 . S
C596 C597 1.397 . S
C596 C601 1.363 . S
C597 H568 0.950 . S
C597 C596 1.397 . S
C597 C598 1.334 . S
C598 H569 0.950 . S
C598 C597 1.334 . S
C598 C599 1.287 . S
C599 C598 1.287 . S
C599 C600 1.524 . S
C599 H602 0.999 . S
C600 H570 0.950 . S
C600 C599 1.524 . S
C600 C601 1.415 . S
C601 H571 0.950 . S
C601 C596 1.363 . S
C601 C600 1.415 . S
H602 C599 0.999 . S
H603 C584 0.913 . S
H604 C622 0.951 . S
H605 C624 0.951 . S
H606 C626 0.950 . S
H607 C627 0.950 . S
H608 C629 0.950 . S
H609 C632 0.950 . S
H610 C633 0.950 . S
H611 C635 0.950 . S
H612 C636 0.950 . S
H613 C637 0.951 . S
H614 C639 0.951 . S
H615 C641 0.950 . S
H616 C642 0.950 . S
H617 C644 0.950 . S
H618 C647 0.950 . S
H619 C648 0.950 . S
H620 C650 0.950 . S
H621 C651 0.950 . S
C622 H604 0.951 . S
C622 C623 1.366 . S
C622 C624 1.388 . S
C623 C622 1.366 . S
C623 C627 1.385 . S
C624 H605 0.951 . S
C624 C622 1.388 . S
C624 C625 1.366 . S
C625 C624 1.366 . S
C625 C626 1.414 . S
C625 C628 1.499 . S
C626 H606 0.950 . S
C626 C625 1.414 . S
C626 C627 1.374 . S
C627 H607 0.950 . S
C627 C623 1.385 . S
C627 C626 1.374 . S
C628 C625 1.499 . S
C628 C629 1.373 . S
C628 C630 1.389 . S
C629 H608 0.950 . S
C629 C628 1.373 . S
C629 C645 1.377 . S
C630 C628 1.389 . S
C630 C631 1.524 . S
C630 C644 1.377 . S
C631 C630 1.524 . S
C631 C632 1.397 . S
C631 C636 1.363 . S
C632 H609 0.950 . S
C632 C631 1.397 . S
C632 C633 1.334 . S
C633 H610 0.950 . S
C633 C632 1.334 . S
C633 C634 1.287 . S
C634 C633 1.287 . S
C634 C635 1.524 . S
C634 H653 0.913 . S
C635 H611 0.950 . S
C635 C634 1.524 . S
C635 C636 1.415 . S
C636 H612 0.950 . S
C636 C631 1.363 . S
C636 C635 1.415 . S
C637 H613 0.951 . S
C637 C638 1.366 . S
C637 C639 1.388 . S
C638 C637 1.366 . S
C638 C642 1.385 . S
C639 H614 0.951 . S
C639 C637 1.388 . S
C639 C640 1.366 . S
C640 C639 1.366 . S
C640 C641 1.414 . S
C640 C643 1.499 . S
C641 H615 0.950 . S
C641 C640 1.414 . S
C641 C642 1.374 . S
C642 H616 0.950 . S
C642 C638 1.385 . S
C642 C641 1.374 . S
C643 C640 1.499 . S
C643 C644 1.373 . S
C643 C645 1.389 . S
C644 H617 0.950 . S
C644 C630 1.377 . S
C644 C643 1.373 . S
C645 C629 1.377 . S
C645 C643 1.389 . S
C645 C646 1.524 . S
C646 C645 1.524 . S
C646 C647 1.397 . S
C646 C651 1.363 . S
C647 H618 0.950 . S
C647 C646 1.397 . S
C647 C648 1.334 . S
C648 H619 0.950 . S
C648 C647 1.334 . S
C648 C649 1.287 . S
C649 C648 1.287 . S
C649 C650 1.524 . S
C649 H652 0.999 . S
C650 H620 0.950 . S
C650 C649 1.524 . S
C650 C651 1.415 . S
C651 H621 0.950 . S
C651 C646 1.363 . S
C651 C650 1.415 . S
H652 C649 0.999 . S
H653 C634 0.913 . S
H654 C672 0.951 . S
H655 C674 0.951 . S
H656 C676 0.950 . S
H657 C677 0.950 . S
H658 C679 0.950 . S
H659 C682 0.950 . S
H660 C683 0.950 . S
H661 C685 0.950 . S
H662 C686 0.950 . S
H663 C687 0.951 . S
H664 C689 0.951 . S
H665 C691 0.950 . S
H666 C692 0.950 . S
H667 C694 0.950 . S
H668 C697 0.950 . S
H669 C698 0.950 . S
H670 C700 0.950 . S
H671 C701 0.950 . S
C672 H654 0.951 . S
C672 C673 1.366 . S
C672 C674 1.388 . S
C673 C672 1.366 . S
C673 C677 1.385 . S
C674 H655 0.951 . S
C674 C672 1.388 . S
C674 C675 1.366 . S
C675 C674 1.366 . S
C675 C676 1.414 . S
C675 C678 1.499 . S
C676 H656 0.950 . S
C676 C675 1.414 . S
C676 C677 1.374 . S
C677 H657 0.950 . S
C677 C673 1.385 . S
C677 C676 1.374 . S
C678 C675 1.499 . S
C678 C679 1.373 . S
C678 C680 1.389 . S
C679 H658 0.950 . S
C679 C678 1.373 . S
C679 C695 1.377 . S
C680 C678 1.389 . S
C680 C681 1.524 . S
C680 C694 1.377 . S
C681 C680 1.524 . S
C681 C682 1.397 . S
C681 C686 1.363 . S
C682 H659 0.950 . S
C682 C681 1.397 . S
C682 C683 1.334 . S
C683 H660 0.950 . S
C683 C682 1.334 . S
C683 C684 1.287 . S
C684 C683 1.287 . S
C684 C685 1.524 . S
C684 H703 0.913 . S
C685 H661 0.950 . S
C685 C684 1.524 . S
C685 C686 1.415 . S
C686 H662 0.950 . S
C686 C681 1.363 . S
C686 C685 1.415 . S
C687 H663 0.951 . S
C687 C688 1.366 . S
C687 C689 1.388 . S
C688 C687 1.366 . S
C688 C692 1.385 . S
C689 H664 0.951 . S
C689 C687 1.388 . S
C689 C690 1.366 . S
C690 C689 1.366 . S
C690 C691 1.414 . S
C690 C693 1.499 . S
C691 H665 0.950 . S
C691 C690 1.414 . S
C691 C692 1.374 . S
C692 H666 0.950 . S
C692 C688 1.385 . S
C692 C691 1.374 . S
C693 C690 1.499 . S
C693 C694 1.373 . S
C693 C695 1.389 . S
C694 H667 0.950 . S
C694 C680 1.377 . S
C694 C693 1.373 . S
C695 C679 1.377 . S
C695 C693 1.389 . S
C695 C696 1.524 . S
C696 C695 1.524 . S
C696 C697 1.397 . S
C696 C701 1.363 . S
C697 H668 0.950 . S
C697 C696 1.397 . S
C697 C698 1.334 . S
C698 H669 0.950 . S
C698 C697 1.334 . S
C698 C699 1.287 . S
C699 C698 1.287 . S
C699 C700 1.524 . S
C699 H702 0.999 . S
C700 H670 0.950 . S
C700 C699 1.524 . S
C700 C701 1.415 . S
C701 H671 0.950 . S
C701 C696 1.363 . S
C701 C700 1.415 . S
H702 C699 0.999 . S
H703 C684 0.913 . S
H704 C722 0.951 . S
H705 C724 0.951 . S
H706 C726 0.950 . S
H707 C727 0.950 . S
H708 C729 0.950 . S
H709 C732 0.950 . S
H710 C733 0.950 . S
H711 C735 0.950 . S
H712 C736 0.950 . S
H713 C737 0.951 . S
H714 C739 0.951 . S
H715 C741 0.950 . S
H716 C742 0.950 . S
H717 C744 0.950 . S
H718 C747 0.950 . S
H719 C748 0.950 . S
H720 C750 0.950 . S
H721 C751 0.950 . S
C722 H704 0.951 . S
C722 C723 1.366 . S
C722 C724 1.388 . S
C723 C722 1.366 . S
C723 C727 1.385 . S
C724 H705 0.951 . S
C724 C722 1.388 . S
C724 C725 1.366 . S
C725 C724 1.366 . S
C725 C726 1.414 . S
C725 C728 1.499 . S
C726 H706 0.950 . S
C726 C725 1.414 . S
C726 C727 1.374 . S
C727 H707 0.950 . S
C727 C723 1.385 . S
C727 C726 1.374 . S
C728 C725 1.499 . S
C728 C729 1.373 . S
C728 C730 1.397 1_455 S
C729 H708 0.950 . S
C729 C728 1.373 . S
C729 C745 1.369 1_544 S
C730 C728 1.397 1_655 S
C730 C731 1.524 . S
C730 C744 1.369 1_544 S
C731 C730 1.524 . S
C731 C732 1.419 . S
C731 C736 1.342 1_554 S
C732 H709 0.950 . S
C732 C731 1.419 . S
C732 C733 1.334 . S
C733 H710 0.950 . S
C733 C732 1.334 . S
C733 C734 1.287 . S
C734 C733 1.287 . S
C734 C735 1.524 1_554 S
C734 H753 0.913 . S
C735 H711 0.950 . S
C735 C734 1.524 1_556 S
C735 C736 1.415 . S
C736 H712 0.950 . S
C736 C731 1.342 1_556 S
C736 C735 1.415 . S
C737 H713 0.951 . S
C737 C738 1.366 . S
C737 C739 1.388 . S
C738 C737 1.366 . S
C738 C742 1.385 . S
C739 H714 0.951 . S
C739 C737 1.388 . S
C739 C740 1.366 . S
C740 C739 1.366 . S
C740 C741 1.414 . S
C740 C743 1.499 . S
C741 H715 0.950 . S
C741 C740 1.414 . S
C741 C742 1.374 . S
C742 H716 0.950 . S
C742 C738 1.385 . S
C742 C741 1.374 . S
C743 C740 1.499 . S
C743 C744 1.373 1_455 S
C743 C745 1.397 . S
C744 H717 0.950 . S
C744 C730 1.369 1_566 S
C744 C743 1.373 1_655 S
C745 C729 1.369 1_566 S
C745 C743 1.397 . S
C745 C746 1.524 . S
C746 C745 1.524 . S
C746 C747 1.419 . S
C746 C751 1.342 1_556 S
C747 H718 0.950 . S
C747 C746 1.419 . S
C747 C748 1.334 . S
C748 H719 0.950 . S
C748 C747 1.334 . S
C748 C749 1.287 . S
C749 C748 1.287 . S
C749 C750 1.524 1_556 S
C749 H752 0.999 . S
C750 H720 0.950 . S
C750 C749 1.524 1_554 S
C750 C751 1.415 . S
C751 H721 0.950 . S
C751 C746 1.342 1_554 S
C751 C750 1.415 . S
H752 C749 0.999 . S
H753 C734 0.913 . S
H754 C772 0.951 . S
H755 C774 0.951 . S
H756 C776 0.950 . S
H757 C777 0.950 . S
H758 C779 0.950 . S
H759 C782 0.950 . S
H760 C783 0.950 . S
H761 C785 0.950 . S
H762 C786 0.950 . S
H763 C787 0.951 . S
H764 C789 0.951 . S
H765 C791 0.950 . S
H766 C792 0.950 . S
H767 C794 0.950 . S
H768 C797 0.950 . S
H769 C798 0.950 . S
H770 C800 0.950 . S
H771 C801 0.950 . S
C772 H754 0.951 . S
C772 C773 1.366 . S
C772 C774 1.388 . S
C773 C772 1.366 . S
C773 C777 1.385 . S
C774 H755 0.951 . S
C774 C772 1.388 . S
C774 C775 1.366 . S
C775 C774 1.366 . S
C775 C776 1.414 . S
C775 C778 1.499 . S
C776 H756 0.950 . S
C776 C775 1.414 . S
C776 C777 1.374 . S
C777 H757 0.950 . S
C777 C773 1.385 . S
C777 C776 1.374 . S
C778 C775 1.499 . S
C778 C779 1.373 . S
C778 C780 1.389 1_556 S
C779 H758 0.950 . S
C779 C778 1.373 . S
C779 C795 1.377 . S
C780 C778 1.389 1_554 S
C780 C781 1.524 . S
C780 C794 1.377 . S
C781 C780 1.524 . S
C781 C782 1.397 . S
C781 C786 1.363 1_455 S
C782 H759 0.950 . S
C782 C781 1.397 . S
C782 C783 1.334 . S
C783 H760 0.950 . S
C783 C782 1.334 . S
C783 C784 1.287 1_455 S
C784 C783 1.287 1_655 S
C784 C785 1.524 . S
C784 H803 0.913 . S
C785 H761 0.950 . S
C785 C784 1.524 . S
C785 C786 1.415 . S
C786 H762 0.950 . S
C786 C781 1.363 1_655 S
C786 C785 1.415 . S
C787 H763 0.951 . S
C787 C788 1.366 . S
C787 C789 1.388 . S
C788 C787 1.366 . S
C788 C792 1.385 . S
C789 H764 0.951 . S
C789 C787 1.388 . S
C789 C790 1.366 . S
C790 C789 1.366 . S
C790 C791 1.414 . S
C790 C793 1.499 . S
C791 H765 0.950 . S
C791 C790 1.414 . S
C791 C792 1.374 . S
C792 H766 0.950 . S
C792 C788 1.385 . S
C792 C791 1.374 . S
C793 C790 1.499 . S
C793 C794 1.373 . S
C793 C795 1.389 1_554 S
C794 H767 0.950 . S
C794 C780 1.377 . S
C794 C793 1.373 . S
C795 C779 1.377 . S
C795 C793 1.389 1_556 S
C795 C796 1.524 . S
C796 C795 1.524 . S
C796 C797 1.397 . S
C796 C801 1.363 . S
C797 H768 0.950 . S
C797 C796 1.397 . S
C797 C798 1.334 . S
C798 H769 0.950 . S
C798 C797 1.334 . S
C798 C799 1.287 . S
C799 C798 1.287 . S
C799 C800 1.524 . S
C799 H802 0.999 . S
C800 H770 0.950 . S
C800 C799 1.524 . S
C800 C801 1.415 . S
C801 H771 0.950 . S
C801 C796 1.363 . S
C801 C800 1.415 . S
H802 C799 0.999 . S
H803 C784 0.913 . S
H804 C822 0.951 . S
H805 C824 0.951 . S
H806 C826 0.950 . S
H807 C827 0.950 . S
H808 C829 0.950 . S
H809 C832 0.950 . S
H810 C833 0.950 . S
H811 C835 0.950 . S
H812 C836 0.950 . S
H813 C837 0.951 . S
H814 C839 0.951 . S
H815 C841 0.950 . S
H816 C842 0.950 . S
H817 C844 0.950 . S
H818 C847 0.950 . S
H819 C848 0.950 . S
H820 C850 0.950 . S
H821 C851 0.950 . S
C822 H804 0.951 . S
C822 C823 1.366 . S
C822 C824 1.388 . S
C823 C822 1.366 . S
C823 C827 1.385 . S
C824 H805 0.951 . S
C824 C822 1.388 . S
C824 C825 1.366 . S
C825 C824 1.366 . S
C825 C826 1.414 . S
C825 C828 1.499 . S
C826 H806 0.950 . S
C826 C825 1.414 . S
C826 C827 1.374 . S
C827 H807 0.950 . S
C827 C823 1.385 . S
C827 C826 1.374 . S
C828 C825 1.499 . S
C828 C829 1.373 . S
C828 C830 1.389 . S
C829 H808 0.950 . S
C829 C828 1.373 . S
C829 C845 1.377 . S
C830 C828 1.389 . S
C830 C831 1.524 . S
C830 C844 1.377 . S
C831 C830 1.524 . S
C831 C832 1.397 . S
C831 C836 1.363 . S
C832 H809 0.950 . S
C832 C831 1.397 . S
C832 C833 1.334 . S
C833 H810 0.950 . S
C833 C832 1.334 . S
C833 C834 1.287 . S
C834 C833 1.287 . S
C834 C835 1.524 . S
C834 H853 0.913 . S
C835 H811 0.950 . S
C835 C834 1.524 . S
C835 C836 1.415 . S
C836 H812 0.950 . S
C836 C831 1.363 . S
C836 C835 1.415 . S
C837 H813 0.951 . S
C837 C838 1.366 . S
C837 C839 1.388 . S
C838 C837 1.366 . S
C838 C842 1.385 . S
C839 H814 0.951 . S
C839 C837 1.388 . S
C839 C840 1.366 . S
C840 C839 1.366 . S
C840 C841 1.414 . S
C840 C843 1.499 . S
C841 H815 0.950 . S
C841 C840 1.414 . S
C841 C842 1.374 . S
C842 H816 0.950 . S
C842 C838 1.385 . S
C842 C841 1.374 . S
C843 C840 1.499 . S
C843 C844 1.373 . S
C843 C845 1.389 . S
C844 H817 0.950 . S
C844 C830 1.377 . S
C844 C843 1.373 . S
C845 C829 1.377 . S
C845 C843 1.389 . S
C845 C846 1.524 . S
C846 C845 1.524 . S
C846 C847 1.397 . S
C846 C851 1.363 . S
C847 H818 0.950 . S
C847 C846 1.397 . S
C847 C848 1.334 . S
C848 H819 0.950 . S
C848 C847 1.334 . S
C848 C849 1.287 . S
C849 C848 1.287 . S
C849 C850 1.524 . S
C849 H852 0.999 . S
C850 H820 0.950 . S
C850 C849 1.524 . S
C850 C851 1.415 . S
C851 H821 0.950 . S
C851 C846 1.363 . S
C851 C850 1.415 . S
H852 C849 0.999 . S
H853 C834 0.913 . S
H854 C872 0.951 . S
H855 C874 0.951 . S
H856 C876 0.950 . S
H857 C877 0.950 . S
H858 C879 0.950 . S
H859 C882 0.950 . S
H860 C883 0.950 . S
H861 C885 0.950 . S
H862 C886 0.950 . S
H863 C887 0.951 . S
H864 C889 0.951 . S
H865 C891 0.950 . S
H866 C892 0.950 . S
H867 C894 0.950 . S
H868 C897 0.950 . S
H869 C898 0.950 . S
H870 C900 0.950 . S
H871 C901 0.950 . S
C872 H854 0.951 . S
C872 C873 1.366 . S
C872 C874 1.388 . S
C873 C872 1.366 . S
C873 C877 1.385 . S
C874 H855 0.951 . S
C874 C872 1.388 . S
C874 C875 1.366 . S
C875 C874 1.366 . S
C875 C876 1.414 . S
C875 C878 1.499 . S
C876 H856 0.950 . S
C876 C875 1.414 . S
C876 C877 1.374 . S
C877 H857 0.950 . S
C877 C873 1.385 . S
C877 C876 1.374 . S
C878 C875 1.499 . S
C878 C879 1.373 . S
C878 C880 1.389 . S
C879 H858 0.950 . S
C879 C878 1.373 . S
C879 C895 1.377 1_565 S
C880 C878 1.389 . S
C880 C881 1.524 . S
C880 C894 1.377 1_565 S
C881 C880 1.524 . S
C881 C882 1.397 . S
C881 C886 1.363 . S
C882 H859 0.950 . S
C882 C881 1.397 . S
C882 C883 1.334 . S
C883 H860 0.950 . S
C883 C882 1.334 . S
C883 C884 1.287 . S
C884 C883 1.287 . S
C884 C885 1.524 . S
C884 H903 0.913 . S
C885 H861 0.950 . S
C885 C884 1.524 . S
C885 C886 1.415 . S
C886 H862 0.950 . S
C886 C881 1.363 . S
C886 C885 1.415 . S
C887 H863 0.951 . S
C887 C888 1.366 . S
C887 C889 1.388 . S
C888 C887 1.366 . S
C888 C892 1.385 . S
C889 H864 0.951 . S
C889 C887 1.388 . S
C889 C890 1.366 . S
C890 C889 1.366 . S
C890 C891 1.414 . S
C890 C893 1.499 . S
C891 H865 0.950 . S
C891 C890 1.414 . S
C891 C892 1.374 . S
C892 H866 0.950 . S
C892 C888 1.385 . S
C892 C891 1.374 . S
C893 C890 1.499 . S
C893 C894 1.373 . S
C893 C895 1.389 . S
C894 H867 0.950 . S
C894 C880 1.377 1_545 S
C894 C893 1.373 . S
C895 C879 1.377 1_545 S
C895 C893 1.389 . S
C895 C896 1.524 . S
C896 C895 1.524 . S
C896 C897 1.397 . S
C896 C901 1.363 . S
C897 H868 0.950 . S
C897 C896 1.397 . S
C897 C898 1.334 . S
C898 H869 0.950 . S
C898 C897 1.334 . S
C898 C899 1.287 . S
C899 C898 1.287 . S
C899 C900 1.524 . S
C899 H902 0.999 . S
C900 H870 0.950 . S
C900 C899 1.524 . S
C900 C901 1.415 . S
C901 H871 0.950 . S
C901 C896 1.363 . S
C901 C900 1.415 . S
H902 C899 0.999 . S
H903 C884 0.913 . S
C123 C16 1.439 . S
C138 C3 1.439 . S
C173 C31 1.439 . S
C188 C42 1.439 . S
C223 C57 1.439 . S
C238 C70 1.439 . S
C273 C83 1.439 . S
C288 C96 1.439 . S
C323 C94 1.724 . S
C338 C5 1.724 . S
C373 C81 1.724 . S
C388 C18 1.724 . S
C423 C29 1.724 . S
C438 C68 1.724 . S
C473 C55 1.724 . S
C488 C44 1.724 . S
C523 C75 1.082 . S
C538 C36 1.083 . S
C573 C62 1.083 . S
C588 C43 1.082 . S
C623 C101 1.082 . S
C638 C4 1.082 . S
C673 C17 1.082 . S
C688 C88 1.082 . S
C723 C10 1.385 . S
C738 C30 1.385 . S
C773 C49 1.385 . S
C788 C23 1.385 . S
C823 C82 1.385 . S
C838 C56 1.385 . S
C873 C69 1.385 . S
C888 C95 1.385 . S
