# Generated by pormake.
# Topology fnk, (5)-cn, num edge types: 1
# Building blocks:
#     Node 0, Type 0, BuildingBlock: XOMCOT_clean_sbu_1, # of connection points: 5
#     Node 1, Type 0, BuildingBlock: XOMCOT_clean_sbu_1, # of connection points: 5
#     Node 2, Type 0, BuildingBlock: XOMCOT_clean_sbu_1, # of connection points: 5
#     Node 3, Type 0, BuildingBlock: XOMCOT_clean_sbu_1, # of connection points: 5
#     Node 4, Type 0, BuildingBlock: XOMCOT_clean_sbu_1, # of connection points: 5
#     Node 5, Type 0, BuildingBlock: XOMCOT_clean_sbu_1, # of connection points: 5
#     Node 6, Type 0, BuildingBlock: XOMCOT_clean_sbu_1, # of connection points: 5
#     Node 7, Type 0, BuildingBlock: XOMCOT_clean_sbu_1, # of connection points: 5
#     Node 8, Type 0, BuildingBlock: XOMCOT_clean_sbu_1, # of connection points: 5
#     Node 9, Type 0, BuildingBlock: XOMCOT_clean_sbu_1, # of connection points: 5
#     Node 10, Type 0, BuildingBlock: XOMCOT_clean_sbu_1, # of connection points: 5
#     Node 11, Type 0, BuildingBlock: XOMCOT_clean_sbu_1, # of connection points: 5
#     Node 12, Type 0, BuildingBlock: XOMCOT_clean_sbu_1, # of connection points: 5
#     Node 13, Type 0, BuildingBlock: XOMCOT_clean_sbu_1, # of connection points: 5
#     Node 14, Type 0, BuildingBlock: XOMCOT_clean_sbu_1, # of connection points: 5
#     Node 15, Type 0, BuildingBlock: XOMCOT_clean_sbu_1, # of connection points: 5
#     Edge 16, Type (0, 0), BuildingBlock: EZIPEK_clean_linker_0, # of connection points: 2
#     Edge 17, Type (0, 0), BuildingBlock: EZIPEK_clean_linker_0, # of connection points: 2
#     Edge 18, Type (0, 0), BuildingBlock: EZIPEK_clean_linker_0, # of connection points: 2
#     Edge 19, Type (0, 0), BuildingBlock: EZIPEK_clean_linker_0, # of connection points: 2
#     Edge 20, Type (0, 0), BuildingBlock: EZIPEK_clean_linker_0, # of connection points: 2
#     Edge 21, Type (0, 0), BuildingBlock: EZIPEK_clean_linker_0, # of connection points: 2
#     Edge 22, Type (0, 0), BuildingBlock: EZIPEK_clean_linker_0, # of connection points: 2
#     Edge 23, Type (0, 0), BuildingBlock: EZIPEK_clean_linker_0, # of connection points: 2
#     Edge 24, Type (0, 0), BuildingBlock: EZIPEK_clean_linker_0, # of connection points: 2
#     Edge 25, Type (0, 0), BuildingBlock: EZIPEK_clean_linker_0, # of connection points: 2
#     Edge 26, Type (0, 0), BuildingBlock: EZIPEK_clean_linker_0, # of connection points: 2
#     Edge 27, Type (0, 0), BuildingBlock: EZIPEK_clean_linker_0, # of connection points: 2
#     Edge 28, Type (0, 0), BuildingBlock: EZIPEK_clean_linker_0, # of connection points: 2
#     Edge 29, Type (0, 0), BuildingBlock: EZIPEK_clean_linker_0, # of connection points: 2
#     Edge 30, Type (0, 0), BuildingBlock: EZIPEK_clean_linker_0, # of connection points: 2
#     Edge 31, Type (0, 0), BuildingBlock: EZIPEK_clean_linker_0, # of connection points: 2
#     Edge 32, Type (0, 0), BuildingBlock: EZIPEK_clean_linker_0, # of connection points: 2
#     Edge 33, Type (0, 0), BuildingBlock: EZIPEK_clean_linker_0, # of connection points: 2
#     Edge 34, Type (0, 0), BuildingBlock: EZIPEK_clean_linker_0, # of connection points: 2
#     Edge 35, Type (0, 0), BuildingBlock: EZIPEK_clean_linker_0, # of connection points: 2
#     Edge 36, Type (0, 0), BuildingBlock: EZIPEK_clean_linker_0, # of connection points: 2
#     Edge 37, Type (0, 0), BuildingBlock: EZIPEK_clean_linker_0, # of connection points: 2
#     Edge 38, Type (0, 0), BuildingBlock: EZIPEK_clean_linker_0, # of connection points: 2
#     Edge 39, Type (0, 0), BuildingBlock: EZIPEK_clean_linker_0, # of connection points: 2
#     Edge 40, Type (0, 0), BuildingBlock: EZIPEK_clean_linker_0, # of connection points: 2
#     Edge 41, Type (0, 0), BuildingBlock: EZIPEK_clean_linker_0, # of connection points: 2
#     Edge 42, Type (0, 0), BuildingBlock: EZIPEK_clean_linker_0, # of connection points: 2
#     Edge 43, Type (0, 0), BuildingBlock: EZIPEK_clean_linker_0, # of connection points: 2
#     Edge 44, Type (0, 0), BuildingBlock: EZIPEK_clean_linker_0, # of connection points: 2
#     Edge 45, Type (0, 0), BuildingBlock: EZIPEK_clean_linker_0, # of connection points: 2
#     Edge 46, Type (0, 0), BuildingBlock: EZIPEK_clean_linker_0, # of connection points: 2
#     Edge 47, Type (0, 0), BuildingBlock: EZIPEK_clean_linker_0, # of connection points: 2
#     Edge 48, Type (0, 0), BuildingBlock: EZIPEK_clean_linker_0, # of connection points: 2
#     Edge 49, Type (0, 0), BuildingBlock: EZIPEK_clean_linker_0, # of connection points: 2
#     Edge 50, Type (0, 0), BuildingBlock: EZIPEK_clean_linker_0, # of connection points: 2
#     Edge 51, Type (0, 0), BuildingBlock: EZIPEK_clean_linker_0, # of connection points: 2
#     Edge 52, Type (0, 0), BuildingBlock: EZIPEK_clean_linker_0, # of connection points: 2
#     Edge 53, Type (0, 0), BuildingBlock: EZIPEK_clean_linker_0, # of connection points: 2
#     Edge 54, Type (0, 0), BuildingBlock: EZIPEK_clean_linker_0, # of connection points: 2
#     Edge 55, Type (0, 0), BuildingBlock: EZIPEK_clean_linker_0, # of connection points: 2
# Relax obj value: 0.633
# Max RMSD: 0.261
# Mean RMSD: 0.261
data_MOF--net-fnk--node1-XOMCOT_clean_sbu_1--edge1-EZIPEK_clean_linker_0
_symmetry_space_group_name_H-M    P1
_symmetry_Int_Tables_number       1
_symmetry_cell_setting            triclinic
loop_
_symmetry_equiv_pos_as_xyz
'x, y, z'
_cell_length_a     35.116662
_cell_length_b     35.271916
_cell_length_c     35.108894
_cell_angle_alpha  90.321407
_cell_angle_beta   90.317772
_cell_angle_gamma 90.003084
loop_
_atom_site_label
_atom_site_type_symbol
_atom_site_fract_x
_atom_site_fract_y
_atom_site_fract_z
_atom_type_partial_charge
C0 C 0.22539 0.3181 0.15686 0.0
C1 C 0.25284 0.30128 0.17941 0.0
N2 N 0.24676 0.31179 0.21578 0.0
N3 N 0.20186 0.33878 0.17902 0.0
C4 C 0.21625 0.33485 0.21466 0.0
H5 H 0.22162 0.3135 0.12668 0.0
Co6 Co 0.15515 0.36181 0.16661 0.0
C7 C 0.15747 0.43 0.21985 0.0
O8 O 0.12193 0.42427 0.2292 0.0
N9 N 0.10758 0.38555 0.1539 0.0
C10 C 0.04717 0.39193 0.13471 0.0
C11 C 0.0764 0.36675 0.14116 0.0
C12 C 0.09681 0.42261 0.15284 0.0
N13 N 0.05982 0.42696 0.14292 0.0
O14 O 0.17413 0.37858 0.11774 0.0
H15 H 0.07453 0.33639 0.13743 0.0
H16 H 0.11537 0.4462 0.15934 0.0
O17 O 0.17348 0.40834 0.19512 0.0
C18 C 0.15979 0.35343 0.09504 0.0
O19 O 0.14333 0.3239 0.11029 0.0
N20 N 0.13305 0.33804 0.20909 0.0
C21 C 0.07162 0.30666 0.24449 0.0
C22 C 0.09467 0.33249 0.26463 0.0
C23 C 0.12631 0.34774 0.24615 0.0
C24 C 0.11766 0.30535 0.19498 0.0
C25 C 0.08591 0.2895 0.2118 0.0
H26 H 0.14259 0.36918 0.2605 0.0
H27 H 0.12644 0.29445 0.16778 0.0
H28 H 0.2031 0.3463 0.23992 0.0
H29 H 0.27372 0.28061 0.17028 0.0
H30 H 0.01838 0.38496 0.12598 0.0
H31 H 0.08521 0.34488 0.29125 0.0
H32 H 0.0697 0.26816 0.19641 0.0
C33 C 0.67837 0.21687 0.14012 0.0
C34 C 0.69896 0.24228 0.16215 0.0
N35 N 0.68127 0.24631 0.19582 0.0
N36 N 0.64791 0.20468 0.15992 0.0
C37 C 0.65022 0.22375 0.19344 0.0
H38 H 0.68746 0.2051 0.11319 0.0
Co39 Co 0.62103 0.15906 0.15164 0.0
C40 C 0.5571 0.16408 0.20951 0.0
O41 O 0.56294 0.12841 0.21801 0.0
N42 N 0.5945 0.11187 0.14312 0.0
C43 C 0.58541 0.05014 0.13177 0.0
C44 C 0.61202 0.07845 0.13611 0.0
C45 C 0.55676 0.103 0.14079 0.0
N46 N 0.55057 0.06539 0.1353 0.0
O47 O 0.60084 0.17717 0.10306 0.0
H48 H 0.64241 0.07451 0.1341 0.0
H49 H 0.5342 0.12346 0.14322 0.0
O50 O 0.57698 0.17972 0.18312 0.0
C51 C 0.62354 0.16219 0.07848 0.0
O52 O 0.65207 0.1417 0.09094 0.0
N53 N 0.64741 0.13867 0.1933 0.0
C54 C 0.6865 0.08344 0.23138 0.0
C55 C 0.66043 0.10608 0.25134 0.0
C56 C 0.64132 0.1347 0.23147 0.0
C57 C 0.67956 0.12375 0.17768 0.0
C58 C 0.69944 0.09537 0.19609 0.0
H59 H 0.62032 0.15108 0.24619 0.0
H60 H 0.6871 0.13035 0.14881 0.0
H61 H 0.63233 0.21771 0.21748 0.0
H62 H 0.72644 0.25428 0.15529 0.0
H63 H 0.59121 0.02039 0.12664 0.0
H64 H 0.65126 0.09849 0.27969 0.0
H65 H 0.72074 0.07936 0.18061 0.0
C66 C 0.84097 0.69788 0.17837 0.0
C67 C 0.8161 0.72126 0.19766 0.0
N68 N 0.79171 0.6994 0.21714 0.0
N69 N 0.83245 0.66136 0.18566 0.0
C70 C 0.8018 0.66324 0.20901 0.0
H71 H 0.86512 0.70693 0.16173 0.0
Co72 Co 0.86451 0.6209 0.17129 0.0
C73 C 0.83837 0.55313 0.21353 0.0
O74 O 0.87468 0.54843 0.22109 0.0
N75 N 0.89678 0.57991 0.15561 0.0
C76 C 0.91054 0.52526 0.12642 0.0
C77 C 0.88274 0.55157 0.13354 0.0
C78 C 0.93395 0.5703 0.16079 0.0
N79 N 0.94267 0.537 0.1436 0.0
O80 O 0.84293 0.62193 0.12037 0.0
H81 H 0.85361 0.54981 0.12362 0.0
H82 H 0.95422 0.58634 0.17754 0.0
O83 O 0.82766 0.58154 0.19284 0.0
C84 C 0.86846 0.63665 0.09885 0.0
O85 O 0.90126 0.64522 0.11493 0.0
N86 N 0.88924 0.62632 0.21771 0.0
C87 C 0.92632 0.65686 0.28042 0.0
C88 C 0.89067 0.63996 0.2846 0.0
C89 C 0.87245 0.6249 0.25268 0.0
C90 C 0.92324 0.64423 0.21325 0.0
C91 C 0.94285 0.65882 0.24442 0.0
H92 H 0.84394 0.61468 0.25586 0.0
H93 H 0.93435 0.64879 0.185 0.0
H94 H 0.78837 0.63886 0.22151 0.0
H95 H 0.81702 0.75192 0.19887 0.0
H96 H 0.90734 0.49911 0.11043 0.0
H97 H 0.8768 0.63921 0.31207 0.0
H98 H 0.97006 0.67268 0.24033 0.0
C99 C 0.31773 0.80167 0.14538 0.0
C100 C 0.29459 0.7753 0.16228 0.0
N101 N 0.31143 0.76436 0.19473 0.0
N102 N 0.34899 0.80817 0.16726 0.0
C103 C 0.34452 0.78375 0.19673 0.0
H104 H 0.30989 0.81804 0.12072 0.0
Co105 Co 0.38453 0.84881 0.158 0.0
C106 C 0.42673 0.82278 0.22995 0.0
O107 O 0.39626 0.82871 0.25067 0.0
N108 N 0.42091 0.88769 0.148 0.0
C109 C 0.47887 0.91198 0.13967 0.0
C110 C 0.45841 0.87946 0.14518 0.0
C111 C 0.41936 0.9259 0.14329 0.0
N112 N 0.45447 0.9412 0.13879 0.0
O113 O 0.40091 0.8237 0.11172 0.0
H114 H 0.47038 0.85127 0.14675 0.0
H115 H 0.3934 0.94218 0.14414 0.0
O116 O 0.42435 0.82584 0.19337 0.0
C117 C 0.38031 0.84183 0.0873 0.0
O118 O 0.35698 0.86814 0.09988 0.0
N119 N 0.36293 0.87791 0.1969 0.0
C120 C 0.3272 0.94071 0.22771 0.0
C121 C 0.30618 0.91442 0.20698 0.0
C122 C 0.3248 0.88362 0.1912 0.0
C123 C 0.38319 0.90193 0.21989 0.0
C124 C 0.36562 0.93356 0.23598 0.0
H125 H 0.30919 0.86768 0.17028 0.0
H126 H 0.41377 0.89944 0.22197 0.0
H127 H 0.36404 0.78036 0.22 0.0
H128 H 0.26635 0.76692 0.15299 0.0
H129 H 0.50949 0.9142 0.13697 0.0
H130 H 0.27684 0.92009 0.19914 0.0
H131 H 0.38271 0.95431 0.25122 0.0
C132 C 0.22521 0.63921 0.35634 0.0
C133 C 0.25313 0.65932 0.33793 0.0
N134 N 0.23629 0.68034 0.31087 0.0
N135 N 0.19065 0.64835 0.34181 0.0
C136 C 0.19863 0.67308 0.31353 0.0
H137 H 0.23008 0.61753 0.37748 0.0
Co138 Co 0.14498 0.62137 0.34974 0.0
C139 C 0.16502 0.56629 0.30137 0.0
O140 O 0.14469 0.58988 0.28074 0.0
N141 N 0.09963 0.59341 0.35433 0.0
C142 C 0.04406 0.57096 0.33363 0.0
C143 C 0.0718 0.59741 0.32798 0.0
C144 C 0.08826 0.56343 0.37557 0.0
N145 N 0.05414 0.54963 0.36357 0.0
O146 O 0.15662 0.61538 0.40515 0.0
H147 H 0.07267 0.61672 0.30427 0.0
H148 H 0.1053 0.55081 0.3979 0.0
O149 O 0.17138 0.57521 0.33617 0.0
C150 C 0.17118 0.63969 0.42857 0.0
O151 O 0.18086 0.67277 0.41462 0.0
N152 N 0.11667 0.66627 0.35981 0.0
C153 C 0.04714 0.70328 0.36121 0.0
C154 C 0.06719 0.69936 0.32688 0.0
C155 C 0.10281 0.68179 0.32709 0.0
C156 C 0.09947 0.67497 0.39381 0.0
C157 C 0.06672 0.69699 0.39505 0.0
H158 H 0.11504 0.67375 0.30008 0.0
H159 H 0.10631 0.66106 0.41993 0.0
H160 H 0.17788 0.6835 0.29336 0.0
H161 H 0.28357 0.65687 0.3423 0.0
H162 H 0.01916 0.56637 0.31586 0.0
H163 H 0.05338 0.70462 0.29975 0.0
H164 H 0.05359 0.70288 0.42225 0.0
C165 C 0.31328 0.18514 0.38369 0.0
C166 C 0.28788 0.21124 0.36944 0.0
N167 N 0.30691 0.23468 0.34617 0.0
N168 N 0.34857 0.19263 0.37069 0.0
C169 C 0.34393 0.22468 0.35004 0.0
H170 H 0.30553 0.15964 0.39865 0.0
Co171 Co 0.38785 0.15545 0.37296 0.0
C172 C 0.42661 0.1977 0.3037 0.0
O173 O 0.39614 0.20968 0.28586 0.0
N174 N 0.42765 0.11815 0.37531 0.0
C175 C 0.4712 0.07795 0.35283 0.0
C176 C 0.44757 0.10746 0.3441 0.0
C177 C 0.44017 0.09424 0.40298 0.0
N178 N 0.46637 0.06944 0.38965 0.0
O179 O 0.40625 0.17814 0.41982 0.0
H180 H 0.44347 0.11864 0.31581 0.0
H181 H 0.42916 0.09349 0.43165 0.0
O182 O 0.42426 0.18288 0.33721 0.0
C183 C 0.38739 0.15841 0.44411 0.0
O184 O 0.36572 0.13099 0.43059 0.0
N185 N 0.36452 0.1288 0.33277 0.0
C186 C 0.3254 0.08128 0.2832 0.0
C187 C 0.32534 0.12026 0.27711 0.0
C188 C 0.34545 0.14361 0.30223 0.0
C189 C 0.36016 0.09136 0.34125 0.0
C190 C 0.34243 0.06687 0.31608 0.0
H191 H 0.34359 0.17342 0.29772 0.0
H192 H 0.37022 0.08004 0.36794 0.0
H193 H 0.36657 0.23915 0.33576 0.0
H194 H 0.25717 0.20945 0.3713 0.0
H195 H 0.4893 0.06258 0.33321 0.0
H196 H 0.31039 0.13241 0.25302 0.0
H197 H 0.34173 0.03685 0.3225 0.0
C198 C 0.8049 0.30443 0.36847 0.0
C199 C 0.77732 0.28366 0.35011 0.0
N200 N 0.75643 0.30651 0.32717 0.0
N201 N 0.80301 0.34057 0.3569 0.0
C202 C 0.77397 0.34082 0.33122 0.0
H203 H 0.82714 0.29298 0.38641 0.0
Co204 Co 0.84112 0.37709 0.36693 0.0
C205 C 0.82907 0.43551 0.30701 0.0
O206 O 0.86568 0.4319 0.30043 0.0
N207 N 0.87947 0.41505 0.37713 0.0
C208 C 0.89967 0.47397 0.38916 0.0
C209 C 0.86859 0.45078 0.38586 0.0
C210 C 0.91824 0.41728 0.37688 0.0
N211 N 0.93103 0.45305 0.38335 0.0
O212 O 0.81665 0.39146 0.41406 0.0
H213 H 0.83945 0.45962 0.3894 0.0
H214 H 0.93715 0.39383 0.37127 0.0
O215 O 0.81362 0.41553 0.33347 0.0
C216 C 0.83526 0.36993 0.43712 0.0
O217 O 0.86016 0.3462 0.42291 0.0
N218 N 0.86813 0.35675 0.32716 0.0
C219 C 0.91701 0.31823 0.28018 0.0
C220 C 0.88232 0.33151 0.26551 0.0
C221 C 0.85776 0.35086 0.29007 0.0
C222 C 0.89821 0.33769 0.34226 0.0
C223 C 0.92353 0.31893 0.31926 0.0
H224 H 0.83113 0.36135 0.27943 0.0
H225 H 0.90383 0.33842 0.37238 0.0
H226 H 0.76886 0.36484 0.31314 0.0
H227 H 0.77575 0.25312 0.35128 0.0
H228 H 0.89934 0.50413 0.39514 0.0
H229 H 0.87609 0.33004 0.2353 0.0
H230 H 0.94955 0.30775 0.33164 0.0
C231 C 0.70175 0.83108 0.3611 0.0
C232 C 0.72478 0.80577 0.34224 0.0
N233 N 0.70284 0.77918 0.32523 0.0
N234 N 0.66507 0.8211 0.3559 0.0
C235 C 0.66664 0.78837 0.33522 0.0
H236 H 0.71093 0.85723 0.3745 0.0
Co237 Co 0.6252 0.85637 0.3636 0.0
C238 C 0.5758 0.82015 0.29989 0.0
O239 O 0.59527 0.83626 0.27277 0.0
N240 N 0.58356 0.89144 0.37004 0.0
C241 C 0.53768 0.93062 0.35047 0.0
C242 C 0.56242 0.90279 0.3398 0.0
C243 C 0.57045 0.91327 0.39927 0.0
N244 N 0.54293 0.93759 0.38767 0.0
O245 O 0.61465 0.83365 0.41223 0.0
H246 H 0.56646 0.89357 0.3108 0.0
H247 H 0.58201 0.91314 0.42786 0.0
O248 O 0.58695 0.82392 0.33475 0.0
C249 C 0.63389 0.85557 0.43461 0.0
O250 O 0.64952 0.88547 0.41896 0.0
N251 N 0.64304 0.88433 0.3218 0.0
C252 C 0.68273 0.93495 0.27668 0.0
C253 C 0.68129 0.89665 0.26658 0.0
C254 C 0.66165 0.87157 0.29003 0.0
C255 C 0.64825 0.92102 0.33341 0.0
C256 C 0.66675 0.94689 0.31087 0.0
H257 H 0.66274 0.84201 0.28318 0.0
H258 H 0.63906 0.93061 0.36106 0.0
H259 H 0.64167 0.77327 0.32525 0.0
H260 H 0.75537 0.80801 0.33926 0.0
H261 H 0.51868 0.94621 0.33188 0.0
H262 H 0.69481 0.88638 0.24085 0.0
H263 H 0.66829 0.97627 0.32003 0.0
C264 C 0.82245 0.69839 0.87964 0.0
C265 C 0.80242 0.72696 0.86179 0.0
N266 N 0.81897 0.73379 0.82801 0.0
N267 N 0.85137 0.68723 0.8571 0.0
C268 C 0.84901 0.71011 0.82635 0.0
H269 H 0.81408 0.68417 0.90541 0.0
Co270 Co 0.87777 0.64122 0.85976 0.0
C271 C 0.93987 0.64992 0.8003 0.0
O272 O 0.93052 0.61637 0.78699 0.0
N273 N 0.9054 0.59374 0.86126 0.0
C274 C 0.92572 0.53529 0.84756 0.0
C275 C 0.89919 0.56245 0.83944 0.0
C276 C 0.93614 0.58408 0.8829 0.0
N277 N 0.94903 0.54874 0.87484 0.0
O278 O 0.89736 0.65592 0.9098 0.0
H279 H 0.87783 0.55934 0.81748 0.0
H280 H 0.94927 0.60274 0.90373 0.0
O281 O 0.92153 0.66389 0.829 0.0
C282 C 0.87903 0.63514 0.9337 0.0
O283 O 0.86185 0.6048 0.92032 0.0
N284 N 0.84959 0.62491 0.81824 0.0
C285 C 0.80109 0.58277 0.77226 0.0
C286 C 0.82365 0.61189 0.75668 0.0
C287 C 0.84897 0.63177 0.7802 0.0
C288 C 0.82104 0.60444 0.83425 0.0
C289 C 0.79723 0.58222 0.81199 0.0
H290 H 0.86821 0.65152 0.7677 0.0
H291 H 0.81928 0.60223 0.86479 0.0
H292 H 0.8664 0.70689 0.80131 0.0
H293 H 0.77557 0.73888 0.87099 0.0
H294 H 0.92822 0.50779 0.83391 0.0
H295 H 0.82393 0.6178 0.72665 0.0
H296 H 0.77959 0.56167 0.82635 0.0
C297 C 0.3105 0.80461 0.86262 0.0
C298 C 0.28303 0.78662 0.84096 0.0
N299 N 0.27816 0.80622 0.80846 0.0
N300 N 0.32297 0.83535 0.84375 0.0
C301 C 0.30208 0.83606 0.81126 0.0
H302 H 0.32287 0.79401 0.88873 0.0
Co303 Co 0.36833 0.86161 0.85243 0.0
C304 C 0.36224 0.93031 0.80108 0.0
O305 O 0.3989 0.92824 0.79427 0.0
N306 N 0.41389 0.88858 0.861 0.0
C307 C 0.47441 0.90639 0.86212 0.0
C308 C 0.4499 0.87672 0.85562 0.0
C309 C 0.41752 0.92494 0.8733 0.0
N310 N 0.45405 0.93702 0.87266 0.0
O311 O 0.35139 0.87817 0.90259 0.0
H312 H 0.45805 0.84841 0.84743 0.0
H313 H 0.39366 0.94221 0.88212 0.0
O314 O 0.34657 0.90653 0.82392 0.0
C315 C 0.36932 0.85493 0.92461 0.0
O316 O 0.39033 0.82839 0.909 0.0
N317 N 0.38867 0.83768 0.80898 0.0
C318 C 0.44943 0.80094 0.77638 0.0
C319 C 0.43077 0.8298 0.75616 0.0
C320 C 0.40001 0.84842 0.77349 0.0
C321 C 0.39996 0.80342 0.8228 0.0
C322 C 0.4309 0.78478 0.80733 0.0
H323 H 0.38804 0.87254 0.75956 0.0
H324 H 0.38882 0.7932 0.84934 0.0
H325 H 0.30686 0.8559 0.78838 0.0
H326 H 0.26933 0.75994 0.84745 0.0
H327 H 0.50506 0.90569 0.85916 0.0
H328 H 0.44308 0.84134 0.73049 0.0
H329 H 0.44334 0.76128 0.8228 0.0
C330 C 0.20703 0.313 0.87058 0.0
C331 C 0.22619 0.28299 0.85468 0.0
N332 N 0.202 0.26407 0.83178 0.0
N333 N 0.17076 0.31378 0.85742 0.0
C334 C 0.16825 0.28223 0.83526 0.0
H335 H 0.22039 0.33511 0.88725 0.0
Co336 Co 0.14067 0.35871 0.85938 0.0
C337 C 0.09135 0.32332 0.79006 0.0
O338 O 0.1187 0.30798 0.76983 0.0
N339 N 0.11009 0.40339 0.86017 0.0
C340 C 0.0731 0.44847 0.8353 0.0
C341 C 0.09883 0.42055 0.82761 0.0
C342 C 0.08882 0.4209 0.88738 0.0
N343 N 0.06694 0.44893 0.87283 0.0
O344 O 0.11625 0.3417 0.90638 0.0
H345 H 0.10632 0.41174 0.79926 0.0
H346 H 0.08674 0.41164 0.9165 0.0
O347 O 0.09911 0.33923 0.82251 0.0
C348 C 0.13948 0.35595 0.9314 0.0
O349 O 0.17013 0.37268 0.91931 0.0
N350 N 0.17207 0.38013 0.82155 0.0
C351 C 0.2116 0.43742 0.78606 0.0
C352 C 0.18966 0.41194 0.76424 0.0
C353 C 0.17055 0.38252 0.78286 0.0
C354 C 0.19953 0.39999 0.84076 0.0
C355 C 0.22026 0.42817 0.82344 0.0
H356 H 0.15183 0.36512 0.76689 0.0
H357 H 0.20329 0.39726 0.87074 0.0
H358 H 0.14314 0.27363 0.82 0.0
H359 H 0.25659 0.27809 0.85629 0.0
H360 H 0.05865 0.46625 0.81473 0.0
H361 H 0.1831 0.41783 0.73468 0.0
H362 H 0.2377 0.44671 0.84106 0.0
C363 C 0.67722 0.20257 0.82857 0.0
C364 C 0.71118 0.21728 0.81742 0.0
N365 N 0.7359 0.1888 0.81112 0.0
N366 N 0.67932 0.1643 0.82976 0.0
C367 C 0.71584 0.15688 0.81934 0.0
H368 H 0.65222 0.21952 0.8339 0.0
Co369 Co 0.63721 0.12988 0.8342 0.0
C370 C 0.67263 0.07334 0.796 0.0
O371 O 0.6618 0.09651 0.76882 0.0
N372 N 0.59636 0.09677 0.83578 0.0
C373 C 0.55348 0.05693 0.812 0.0
C374 C 0.58211 0.08158 0.80337 0.0
C375 C 0.57466 0.08221 0.86381 0.0
N376 N 0.54896 0.05714 0.84999 0.0
O377 O 0.64118 0.13119 0.89174 0.0
H378 H 0.59172 0.08823 0.77503 0.0
H379 H 0.5771 0.09001 0.89344 0.0
O380 O 0.67074 0.08573 0.8304 0.0
C381 C 0.64564 0.15923 0.91502 0.0
O382 O 0.64728 0.19342 0.90071 0.0
N383 N 0.60217 0.16954 0.83285 0.0
C384 C 0.54207 0.21745 0.81491 0.0
C385 C 0.56757 0.2056 0.78675 0.0
C386 C 0.59744 0.18163 0.79637 0.0
C387 C 0.57725 0.18043 0.86064 0.0
C388 C 0.54834 0.20638 0.85266 0.0
H389 H 0.61608 0.17101 0.77432 0.0
H390 H 0.57785 0.16764 0.88843 0.0
H391 H 0.72697 0.12857 0.81791 0.0
H392 H 0.71664 0.24704 0.81229 0.0
H393 H 0.53684 0.04028 0.79193 0.0
H394 H 0.56328 0.21321 0.75717 0.0
H395 H 0.52863 0.21455 0.87488 0.0
C396 C 0.81985 0.29568 0.65507 0.0
C397 C 0.80319 0.26644 0.67459 0.0
N398 N 0.82408 0.25967 0.70608 0.0
N399 N 0.85104 0.30757 0.67428 0.0
C400 C 0.85351 0.28434 0.70472 0.0
H401 H 0.80767 0.30972 0.63061 0.0
Co402 Co 0.8738 0.35496 0.6685 0.0
C403 C 0.94536 0.35171 0.71726 0.0
O404 O 0.94005 0.38737 0.72668 0.0
N405 N 0.89653 0.40324 0.66196 0.0
C406 C 0.90499 0.46545 0.65845 0.0
C407 C 0.87962 0.43722 0.66674 0.0
C408 C 0.93169 0.41186 0.64856 0.0
N409 N 0.93805 0.44972 0.64762 0.0
O410 O 0.88905 0.34228 0.61698 0.0
H411 H 0.8504 0.44164 0.67471 0.0
H412 H 0.95216 0.3908 0.63962 0.0
O413 O 0.92215 0.33531 0.69378 0.0
C414 C 0.86273 0.35891 0.59748 0.0
O415 O 0.83578 0.37702 0.61577 0.0
N416 N 0.8508 0.37049 0.71434 0.0
C417 C 0.8152 0.42729 0.75392 0.0
C418 C 0.84481 0.40702 0.77154 0.0
C419 C 0.86288 0.37824 0.75059 0.0
C420 C 0.81531 0.38173 0.70333 0.0
C421 C 0.79717 0.41101 0.72233 0.0
H422 H 0.88768 0.36509 0.76246 0.0
H423 H 0.80372 0.37256 0.67636 0.0
H424 H 0.87379 0.2883 0.72772 0.0
H425 H 0.7762 0.25312 0.6678 0.0
H426 H 0.8996 0.49549 0.65954 0.0
H427 H 0.85762 0.41718 0.79781 0.0
H428 H 0.77279 0.42441 0.70896 0.0
C429 C 0.70961 0.80901 0.65024 0.0
C430 C 0.73964 0.78965 0.66662 0.0
N431 N 0.74727 0.80556 0.70081 0.0
N432 N 0.6985 0.83698 0.67403 0.0
C433 C 0.72292 0.83491 0.70391 0.0
H434 H 0.69395 0.80022 0.6251 0.0
Co435 Co 0.65012 0.85902 0.67505 0.0
C436 C 0.65525 0.92356 0.73158 0.0
O437 O 0.62232 0.91185 0.74457 0.0
N438 N 0.60056 0.88188 0.67708 0.0
C439 C 0.54169 0.89684 0.69492 0.0
C440 C 0.56911 0.86931 0.69528 0.0
C441 C 0.59047 0.91679 0.66442 0.0
N442 N 0.55506 0.92685 0.67574 0.0
O443 O 0.65827 0.87918 0.62421 0.0
H444 H 0.56623 0.84278 0.70996 0.0
H445 H 0.60948 0.93526 0.64896 0.0
O446 O 0.67103 0.905 0.70396 0.0
C447 C 0.63627 0.86027 0.60149 0.0
O448 O 0.60868 0.84062 0.61689 0.0
N449 N 0.64036 0.83111 0.71819 0.0
C450 C 0.60426 0.78354 0.76848 0.0
C451 C 0.63102 0.81046 0.78187 0.0
C452 C 0.64846 0.83468 0.75592 0.0
C453 C 0.62384 0.79876 0.70484 0.0
C454 C 0.60515 0.77461 0.7294 0.0
H455 H 0.66719 0.85654 0.76608 0.0
H456 H 0.62121 0.79421 0.67447 0.0
H457 H 0.72001 0.8515 0.72966 0.0
H458 H 0.75162 0.7632 0.6565 0.0
H459 H 0.51421 0.89538 0.7087 0.0
H460 H 0.63604 0.81534 0.81178 0.0
H461 H 0.58713 0.75308 0.71671 0.0
C462 C 0.20249 0.67432 0.65834 0.0
C463 C 0.22421 0.70111 0.67673 0.0
N464 N 0.20129 0.72895 0.68964 0.0
N465 N 0.16549 0.68438 0.66001 0.0
C466 C 0.16599 0.71894 0.67726 0.0
H467 H 0.21262 0.64678 0.64935 0.0
Co468 Co 0.12692 0.64678 0.66117 0.0
C469 C 0.06969 0.70177 0.71076 0.0
O470 O 0.07391 0.73865 0.70837 0.0
N471 N 0.08827 0.60978 0.66496 0.0
C472 C 0.04815 0.57133 0.69489 0.0
C473 C 0.07336 0.60052 0.69917 0.0
C474 C 0.07056 0.58616 0.64006 0.0
N475 N 0.04654 0.56221 0.6578 0.0
O476 O 0.1092 0.6614 0.61062 0.0
H477 H 0.08117 0.61348 0.72607 0.0
H478 H 0.07434 0.58672 0.60977 0.0
O479 O 0.09204 0.68015 0.69138 0.0
C480 C 0.13201 0.64145 0.58973 0.0
O481 O 0.15762 0.62055 0.60698 0.0
N482 N 0.15021 0.62726 0.70344 0.0
C483 C 0.19675 0.58696 0.75182 0.0
C484 C 0.18339 0.62285 0.76284 0.0
C485 C 0.16043 0.64316 0.7374 0.0
C486 C 0.16527 0.59365 0.69185 0.0
C487 C 0.18925 0.57351 0.71512 0.0
H488 H 0.1514 0.67123 0.74447 0.0
H489 H 0.1582 0.58201 0.66424 0.0
H490 H 0.1407 0.73529 0.68267 0.0
H491 H 0.25432 0.69865 0.68308 0.0
H492 H 0.03289 0.55705 0.71737 0.0
H493 H 0.1891 0.63401 0.79109 0.0
H494 H 0.19883 0.54574 0.70583 0.0
C495 C 0.2956 0.15352 0.66141 0.0
C496 C 0.26386 0.17021 0.67759 0.0
N497 N 0.27091 0.17546 0.71501 0.0
N498 N 0.32247 0.14881 0.68863 0.0
C499 C 0.30606 0.16142 0.72108 0.0
H500 H 0.29897 0.14607 0.63172 0.0
Co501 Co 0.37124 0.1277 0.68817 0.0
C502 C 0.34447 0.0687 0.72695 0.0
O503 O 0.35689 0.09349 0.75222 0.0
N504 N 0.41837 0.10307 0.69228 0.0
C505 C 0.46667 0.07783 0.72463 0.0
C506 C 0.43855 0.10479 0.72512 0.0
C507 C 0.43394 0.07366 0.67288 0.0
N508 N 0.46395 0.05843 0.69163 0.0
O509 O 0.37192 0.12947 0.63099 0.0
H510 H 0.43206 0.12359 0.74865 0.0
H511 H 0.42234 0.0623 0.64656 0.0
O512 O 0.34763 0.07781 0.6918 0.0
C513 C 0.39915 0.13309 0.60679 0.0
O514 O 0.43442 0.12805 0.61793 0.0
N515 N 0.39524 0.17823 0.68773 0.0
C516 C 0.43017 0.24076 0.72086 0.0
C517 C 0.39149 0.24217 0.71207 0.0
C518 C 0.37467 0.21076 0.69436 0.0
C519 C 0.43411 0.1818 0.68651 0.0
C520 C 0.4522 0.21268 0.70343 0.0
H521 H 0.34473 0.21258 0.68887 0.0
H522 H 0.45231 0.15945 0.67652 0.0
H523 H 0.32063 0.16245 0.74833 0.0
H524 H 0.23832 0.17929 0.66284 0.0
H525 H 0.48691 0.07208 0.74723 0.0
H526 H 0.37376 0.26499 0.72269 0.0
H527 H 0.48277 0.21156 0.70784 0.0
C528 C 0.98969 0.49867 0.17939 0.0
C529 C 0.97775 0.51572 0.14496 0.0
C530 C 0.02463 0.47788 0.1096 0.0
C531 C 0.03657 0.46084 0.14406 0.0
N532 N 0.03737 0.46222 0.2126 0.0
N533 N 0.98888 0.52847 0.07896 0.0
C534 C 0.02155 0.47389 0.17922 0.0
C535 C 0.99706 0.50754 0.11054 0.0
N536 N 0.96874 0.50359 0.21171 0.0
N537 N 0.03897 0.46475 0.07598 0.0
H538 H 0.96917 0.55062 0.07952 0.0
H539 H 0.00371 0.52618 0.05346 0.0
H540 H 0.06004 0.44395 0.07494 0.0
H541 H 0.02884 0.47298 0.04936 0.0
H542 H 0.97322 0.48814 0.23653 0.0
H543 H 0.94473 0.52081 0.21292 0.0
H544 H 0.03112 0.47463 0.23879 0.0
H545 H 0.05877 0.44208 0.21355 0.0
C546 C 0.49573 0.03507 0.16792 0.0
C547 C 0.51526 0.04389 0.13379 0.0
C548 C 0.47948 0.99355 0.1005 0.0
C549 C 0.46618 0.98032 0.13593 0.0
N550 N 0.45939 0.98848 0.20336 0.0
N551 N 0.52134 0.03642 0.06636 0.0
C552 C 0.47284 0.00171 0.16954 0.0
C553 C 0.50517 0.02484 0.09951 0.0
N554 N 0.49935 0.05846 0.19872 0.0
N555 N 0.46794 0.97517 0.06812 0.0
H556 H 0.53767 0.061 0.06526 0.0
H557 H 0.51862 0.02236 0.04037 0.0
H558 H 0.44876 0.95256 0.06899 0.0
H559 H 0.47516 0.98332 0.04068 0.0
H560 H 0.48377 0.05559 0.22367 0.0
H561 H 0.51509 0.08327 0.19765 0.0
H562 H 0.46669 0.99986 0.22982 0.0
H563 H 0.44191 0.96468 0.20495 0.0
C564 C 0.98166 0.4908 0.41443 0.0
C565 C 0.96945 0.46808 0.38317 0.0
C566 C 0.02669 0.48737 0.3486 0.0
C567 C 0.033 0.51668 0.37552 0.0
N568 N 0.01693 0.54657 0.4349 0.0
N569 N 0.98008 0.44641 0.3186 0.0
C570 C 0.01117 0.51796 0.40921 0.0
C571 C 0.99241 0.46591 0.35001 0.0
N572 N 0.96452 0.48646 0.44891 0.0
N573 N 0.05315 0.48122 0.32097 0.0
H574 H 0.95421 0.43212 0.31727 0.0
H575 H 0.99421 0.44705 0.29263 0.0
H576 H 0.07807 0.49733 0.31953 0.0
H577 H 0.05233 0.45791 0.30262 0.0
H578 H 0.97373 0.50017 0.47364 0.0
H579 H 0.94347 0.46604 0.45326 0.0
H580 H 0.99898 0.55169 0.45788 0.0
H581 H 0.03865 0.56647 0.43192 0.0
C582 C 0.54486 0.00383 0.41068 0.0
C583 C 0.52512 0.96891 0.40714 0.0
C584 C 0.46397 0.00222 0.40858 0.0
C585 C 0.4838 0.03716 0.40766 0.0
N586 N 0.54077 0.07226 0.41963 0.0
N587 N 0.46769 0.9335 0.41429 0.0
C588 C 0.5236 0.03807 0.41344 0.0
C589 C 0.4851 0.96788 0.41085 0.0
N590 N 0.58359 0.0044 0.40787 0.0
N591 N 0.42536 0.00194 0.40393 0.0
H592 H 0.48341 0.90836 0.4152 0.0
H593 H 0.43871 0.9301 0.41926 0.0
H594 H 0.40936 0.02678 0.40282 0.0
H595 H 0.40935 0.97739 0.39999 0.0
H596 H 0.59958 0.02912 0.40565 0.0
H597 H 0.59984 0.97973 0.40653 0.0
H598 H 0.56948 0.0754 0.42648 0.0
H599 H 0.52502 0.09735 0.421 0.0
C600 C 0.019 0.54017 0.88347 0.0
C601 C 0.98111 0.52788 0.89001 0.0
C602 C 0.00387 0.46302 0.9004 0.0
C603 C 0.04106 0.47491 0.89098 0.0
N604 N 0.08647 0.52515 0.88734 0.0
N605 N 0.9396 0.48176 0.91764 0.0
C606 C 0.04932 0.51393 0.88804 0.0
C607 C 0.97452 0.49063 0.90342 0.0
N608 N 0.02578 0.57542 0.86933 0.0
N609 N 0.99606 0.42527 0.90331 0.0
H610 H 0.91807 0.50206 0.91999 0.0
H611 H 0.93337 0.45582 0.9302 0.0
H612 H 0.0172 0.40461 0.90158 0.0
H613 H 0.96858 0.41447 0.90566 0.0
H614 H 0.05236 0.58432 0.85987 0.0
H615 H 0.00425 0.59497 0.86458 0.0
H616 H 0.09492 0.55346 0.88795 0.0
H617 H 0.10871 0.50561 0.88978 0.0
C618 C 0.45834 0.00661 0.85831 0.0
C619 C 0.47012 0.97431 0.87963 0.0
C620 C 0.53127 0.00497 0.89353 0.0
C621 C 0.52062 0.03532 0.86956 0.0
N622 N 0.47056 0.07247 0.8425 0.0
N623 N 0.51019 0.95046 0.92955 0.0
C624 C 0.4826 0.0387 0.85703 0.0
C625 C 0.50398 0.97651 0.90167 0.0
N626 N 0.42593 0.00599 0.83684 0.0
N627 N 0.56795 0.00163 0.90603 0.0
H628 H 0.49 0.92978 0.93582 0.0
H629 H 0.53301 0.95188 0.94859 0.0
H630 H 0.58858 0.02218 0.90118 0.0
H631 H 0.57836 0.97752 0.91956 0.0
H632 H 0.41936 0.02647 0.81656 0.0
H633 H 0.40607 0.98452 0.83807 0.0
H634 H 0.44229 0.07814 0.83539 0.0
H635 H 0.48861 0.09599 0.84135 0.0
C636 C 0.00674 0.46576 0.65927 0.0
C637 C 0.97206 0.47123 0.63875 0.0
C638 C 0.99304 0.53503 0.62077 0.0
C639 C 0.02634 0.52998 0.64275 0.0
N640 N 0.07159 0.4873 0.67026 0.0
N641 N 0.93973 0.50488 0.5888 0.0
C642 C 0.03553 0.49388 0.6572 0.0
C643 C 0.96807 0.50379 0.61541 0.0
N644 N 0.01119 0.43597 0.68342 0.0
N645 N 0.98389 0.57014 0.60743 0.0
H646 H 0.92183 0.48176 0.58421 0.0
H647 H 0.93677 0.52663 0.56905 0.0
H648 H 1.00175 0.59352 0.61097 0.0
H649 H 0.95768 0.57647 0.59497 0.0
H650 H 0.03388 0.43365 0.70251 0.0
H651 H 0.99118 0.41475 0.68646 0.0
H652 H 0.08124 0.4606 0.67842 0.0
H653 H 0.09276 0.50806 0.66902 0.0
C654 C 0.52781 0.03049 0.68317 0.0
C655 C 0.48771 0.02683 0.68061 0.0
C656 C 0.49604 0.96105 0.66024 0.0
C657 C 0.53484 0.96234 0.67142 0.0
N658 N 0.5863 0.99886 0.69973 0.0
N659 N 0.4334 0.98529 0.67379 0.0
C660 C 0.55072 0.99735 0.68409 0.0
C661 C 0.47158 0.99133 0.67049 0.0
N662 N 0.54394 0.06566 0.68473 0.0
N663 N 0.48255 0.93051 0.64036 0.0
H664 H 0.41499 0.00556 0.68493 0.0
H665 H 0.42096 0.9587 0.66993 0.0
H666 H 0.5004 0.90854 0.63147 0.0
H667 H 0.45497 0.9293 0.62927 0.0
H668 H 0.57329 0.06999 0.68381 0.0
H669 H 0.52779 0.0904 0.68256 0.0
H670 H 0.59722 0.02311 0.71295 0.0
H671 H 0.60343 0.97518 0.70306 0.0
C672 C 0.28751 0.31174 0.27371 0.0
C673 C 0.26124 0.2931 0.2493 0.0
C674 C 0.26672 0.23541 0.28718 0.0
C675 C 0.2908 0.25473 0.31383 0.0
N676 N 0.31986 0.3128 0.33517 0.0
N677 N 0.21839 0.24105 0.23817 0.0
C678 C 0.30006 0.29342 0.30776 0.0
C679 C 0.24859 0.25612 0.25774 0.0
N680 N 0.30078 0.34667 0.26381 0.0
N681 N 0.26272 0.19691 0.28826 0.0
H682 H 0.20412 0.25559 0.21661 0.0
H683 H 0.2051 0.21585 0.24595 0.0
H684 H 0.27629 0.17971 0.30796 0.0
H685 H 0.24907 0.18139 0.26685 0.0
H686 H 0.3227 0.36062 0.27823 0.0
H687 H 0.29132 0.36061 0.23937 0.0
H688 H 0.32485 0.34187 0.33427 0.0
H689 H 0.3287 0.30013 0.3605 0.0
C690 C 0.71647 0.25558 0.29694 0.0
C691 C 0.72831 0.29399 0.29848 0.0
C692 C 0.70099 0.30265 0.23423 0.0
C693 C 0.69719 0.26275 0.23032 0.0
N694 N 0.70757 0.20068 0.25684 0.0
N695 N 0.70734 0.35556 0.27813 0.0
C696 C 0.70639 0.23907 0.26148 0.0
C697 C 0.71415 0.31845 0.26956 0.0
N698 N 0.71038 0.23621 0.32982 0.0
N699 N 0.69191 0.32538 0.20421 0.0
H700 H 0.7079 0.36529 0.30625 0.0
H701 H 0.69511 0.37472 0.25924 0.0
H702 H 0.68 0.31477 0.17904 0.0
H703 H 0.69825 0.35421 0.20349 0.0
H704 H 0.69879 0.20898 0.33025 0.0
H705 H 0.71156 0.24971 0.35634 0.0
H706 H 0.71693 0.18246 0.27824 0.0
H707 H 0.70368 0.18767 0.23039 0.0
C708 C 0.70733 0.75014 0.25954 0.0
C709 C 0.71744 0.75048 0.29903 0.0
C710 C 0.7743 0.7124 0.28444 0.0
C711 C 0.76474 0.71281 0.24522 0.0
N712 N 0.71867 0.72402 0.19617 0.0
N713 N 0.75327 0.72192 0.34956 0.0
C714 C 0.73 0.72912 0.23311 0.0
C715 C 0.74852 0.728 0.31148 0.0
N716 N 0.67729 0.77105 0.24675 0.0
N717 N 0.80916 0.69933 0.29556 0.0
H718 H 0.73414 0.7326 0.36959 0.0
H719 H 0.77347 0.70336 0.36072 0.0
H720 H 0.829 0.68912 0.27614 0.0
H721 H 0.8196 0.70167 0.3233 0.0
H722 H 0.67244 0.77705 0.21814 0.0
H723 H 0.65711 0.7828 0.26464 0.0
H724 H 0.69193 0.73169 0.18584 0.0
H725 H 0.73513 0.70902 0.17653 0.0
C726 C 0.27425 0.68215 0.25165 0.0
C727 C 0.25528 0.70158 0.28152 0.0
C728 C 0.27291 0.76267 0.2535 0.0
C729 C 0.29358 0.74321 0.22481 0.0
N730 N 0.31789 0.68551 0.19813 0.0
N731 N 0.23996 0.75944 0.31418 0.0
C732 C 0.29537 0.70316 0.22439 0.0
C733 C 0.2555 0.74168 0.28329 0.0
N734 N 0.27091 0.64365 0.24886 0.0
N735 N 0.26923 0.80117 0.25152 0.0
H736 H 0.22686 0.74455 0.33612 0.0
H737 H 0.24219 0.78841 0.31947 0.0
H738 H 0.2823 0.81725 0.23047 0.0
H739 H 0.25149 0.817 0.26913 0.0
H740 H 0.28088 0.62773 0.22596 0.0
H741 H 0.25567 0.62771 0.26849 0.0
H742 H 0.32356 0.65656 0.19802 0.0
H743 H 0.33307 0.70055 0.17768 0.0
C744 C 0.74924 0.75462 0.74906 0.0
C745 C 0.76586 0.7873 0.73261 0.0
C746 C 0.81622 0.78634 0.78149 0.0
C747 C 0.80132 0.75188 0.79562 0.0
N748 N 0.75918 0.69857 0.78725 0.0
N749 N 0.81645 0.83285 0.73044 0.0
C750 C 0.76939 0.73467 0.77777 0.0
C751 C 0.7998 0.8028 0.74814 0.0
N752 N 0.71338 0.74365 0.73853 0.0
N753 N 0.84552 0.8035 0.80058 0.0
H754 H 0.80455 0.84534 0.70626 0.0
H755 H 0.84297 0.84378 0.73803 0.0
H756 H 0.85801 0.79157 0.82476 0.0
H757 H 0.85581 0.83035 0.79409 0.0
H758 H 0.6983 0.72245 0.75245 0.0
H759 H 0.69713 0.75829 0.71854 0.0
H760 H 0.73855 0.68313 0.77241 0.0
H761 H 0.77397 0.68264 0.8074 0.0
C762 C 0.24912 0.77626 0.70878 0.0
C763 C 0.2138 0.75842 0.71622 0.0
C764 C 0.21676 0.78543 0.78106 0.0
C765 C 0.25563 0.79421 0.77593 0.0
N766 N 0.31073 0.79245 0.73493 0.0
N767 N 0.16364 0.74656 0.76241 0.0
C768 C 0.27233 0.78885 0.73959 0.0
C769 C 0.19706 0.7636 0.75297 0.0
N770 N 0.26082 0.78006 0.67204 0.0
N771 N 0.19849 0.79855 0.81273 0.0
H772 H 0.14564 0.73357 0.74307 0.0
H773 H 0.15418 0.74449 0.79041 0.0
H774 H 0.21213 0.81546 0.83313 0.0
H775 H 0.16917 0.79623 0.81654 0.0
H776 H 0.28505 0.79533 0.66456 0.0
H777 H 0.24373 0.77145 0.64913 0.0
H778 H 0.32442 0.78563 0.70953 0.0
H779 H 0.32946 0.79784 0.75737 0.0
C780 C 0.24851 0.23753 0.73921 0.0
C781 C 0.24905 0.19746 0.74195 0.0
C782 C 0.21529 0.2012 0.80305 0.0
C783 C 0.21412 0.24115 0.79984 0.0
N784 N 0.22361 0.29733 0.76247 0.0
N785 N 0.22913 0.14041 0.77282 0.0
C786 C 0.22869 0.25922 0.76697 0.0
C787 C 0.23113 0.17907 0.77286 0.0
N788 N 0.269 0.25496 0.71135 0.0
N789 N 0.20219 0.18483 0.83558 0.0
H790 H 0.24048 0.12397 0.75082 0.0
H791 H 0.21427 0.12475 0.79288 0.0
H792 H 0.18962 0.20069 0.85734 0.0
H793 H 0.20516 0.15619 0.84185 0.0
H794 H 0.27389 0.28405 0.71049 0.0
H795 H 0.28359 0.2401 0.69031 0.0
H796 H 0.22944 0.31168 0.73734 0.0
H797 H 0.21084 0.31435 0.78303 0.0
C798 C 0.80332 0.19749 0.73078 0.0
C799 C 0.81217 0.23626 0.73754 0.0
C800 C 0.79175 0.22896 0.80348 0.0
C801 C 0.77291 0.19496 0.79361 0.0
N802 N 0.77479 0.13921 0.75402 0.0
N803 N 0.81008 0.29034 0.78036 0.0
C804 C 0.78301 0.17662 0.759 0.0
C805 C 0.80633 0.25225 0.77429 0.0
N806 N 0.81464 0.1811 0.69736 0.0
N807 N 0.79238 0.24013 0.84069 0.0
H808 H 0.81569 0.30954 0.75877 0.0
H809 H 0.80294 0.30353 0.80597 0.0
H810 H 0.78049 0.22322 0.86189 0.0
H811 H 0.80774 0.26359 0.85043 0.0
H812 H 0.80891 0.15328 0.68931 0.0
H813 H 0.83147 0.19549 0.67775 0.0
H814 H 0.77783 0.12439 0.72857 0.0
H815 H 0.76871 0.12187 0.77696 0.0
C816 C 0.1581 0.32233 0.03058 0.0
C817 C 0.15652 0.3565 0.05259 0.0
C818 C 0.13928 0.39056 0.99441 0.0
C819 C 0.13556 0.35555 0.97371 0.0
N820 N 0.13532 0.2874 0.97527 0.0
N821 N 0.13596 0.42199 0.0555 0.0
C822 C 0.14241 0.3212 0.99307 0.0
C823 C 0.14416 0.39026 0.03465 0.0
N824 N 0.17654 0.2913 0.04477 0.0
N825 N 0.14051 0.42447 0.97579 0.0
H826 H 0.13895 0.4238 0.08488 0.0
H827 H 0.12289 0.44576 0.0437 0.0
H828 H 0.13843 0.42719 0.94645 0.0
H829 H 0.14774 0.44988 0.98932 0.0
H830 H 0.18152 0.26681 0.02883 0.0
H831 H 0.19095 0.29171 0.0708 0.0
H832 H 0.13665 0.26145 0.98927 0.0
H833 H 0.12435 0.28565 0.94766 0.0
C834 C 0.6537 0.18821 0.98058 0.0
C835 C 0.64208 0.15631 0.95812 0.0
C836 C 0.61204 0.13002 0.01585 0.0
C837 C 0.61949 0.1643 0.03615 0.0
N838 N 0.64211 0.22836 0.03568 0.0
N839 N 0.6149 0.09323 0.95753 0.0
C840 C 0.63815 0.19426 0.01751 0.0
C841 C 0.62241 0.1262 0.97658 0.0
N842 N 0.68254 0.21092 0.96809 0.0
N843 N 0.59711 0.10008 0.0352 0.0
H844 H 0.63061 0.08426 0.93416 0.0
H845 H 0.59439 0.07377 0.96605 0.0
H846 H 0.58696 0.10305 0.06286 0.0
H847 H 0.5959 0.07244 0.02475 0.0
H848 H 0.69434 0.23275 0.9844 0.0
H849 H 0.69837 0.20441 0.94384 0.0
H850 H 0.65256 0.2525 0.02232 0.0
H851 H 0.63122 0.23326 0.06288 0.0
C852 C 0.89918 0.66342 0.99887 0.0
C853 C 0.87267 0.64401 0.97528 0.0
C854 C 0.83919 0.62191 0.03262 0.0
C855 C 0.86471 0.64266 0.05639 0.0
N856 N 0.90586 0.69799 0.05801 0.0
N857 N 0.80693 0.62272 0.97199 0.0
C858 C 0.89067 0.66811 0.03828 0.0
C859 C 0.8393 0.62899 0.99284 0.0
N860 N 0.93285 0.67643 0.98484 0.0
N861 N 0.81575 0.59447 0.04659 0.0
H862 H 0.80421 0.63084 0.94361 0.0
H863 H 0.78134 0.61443 0.98441 0.0
H864 H 0.8144 0.58655 0.07493 0.0
H865 H 0.79983 0.57676 0.02871 0.0
H866 H 0.95408 0.6877 1.00245 0.0
H867 H 0.94113 0.67299 0.95666 0.0
H868 H 0.92291 0.71842 0.04515 0.0
H869 H 0.89686 0.70533 0.08535 0.0
C870 C 0.40606 0.86478 0.98537 0.0
C871 C 0.37054 0.85683 0.96708 0.0
C872 C 0.34918 0.8255 0.02552 0.0
C873 C 0.38252 0.83766 0.04506 0.0
N874 N 0.44221 0.87083 0.04408 0.0
N875 N 0.3066 0.83301 0.97123 0.0
C876 C 0.4109 0.85769 0.025 0.0
C877 C 0.34147 0.83844 0.9878 0.0
N878 N 0.43589 0.87788 0.9645 0.0
N879 N 0.32582 0.79997 0.04272 0.0
H880 H 0.30035 0.84221 0.9437 0.0
H881 H 0.28309 0.82266 0.98582 0.0
H882 H 0.33336 0.78751 0.06854 0.0
H883 H 0.30219 0.78769 0.02956 0.0
H884 H 0.46382 0.87877 0.97459 0.0
H885 H 0.43302 0.88579 0.9362 0.0
H886 H 0.4613 0.89031 0.03277 0.0
H887 H 0.44839 0.86279 0.07188 0.0
C888 C 0.14684 0.6048 0.48795 0.0
C889 C 0.16446 0.63696 0.47123 0.0
C890 C 0.15001 0.67407 0.5293 0.0
C891 C 0.13435 0.64176 0.54706 0.0
N892 N 0.12723 0.57331 0.54539 0.0
N893 N 0.19897 0.69459 0.48629 0.0
C894 C 0.13494 0.60635 0.52678 0.0
C895 C 0.17055 0.66961 0.4947 0.0
N896 N 0.14344 0.57171 0.46789 0.0
N897 N 0.14727 0.70885 0.54628 0.0
H898 H 0.21943 0.68879 0.46565 0.0
H899 H 0.20615 0.71745 0.50385 0.0
H900 H 0.13316 0.71325 0.57195 0.0
H901 H 0.15571 0.73371 0.53277 0.0
H902 H 0.12403 0.55057 0.475 0.0
H903 H 0.16093 0.56484 0.44501 0.0
H904 H 0.13175 0.54648 0.53373 0.0
H905 H 0.11976 0.5721 0.57384 0.0
C906 C 0.35577 0.15131 0.50749 0.0
C907 C 0.38869 0.16269 0.48683 0.0
C908 C 0.42154 0.16851 0.54829 0.0
C909 C 0.39275 0.14644 0.56649 0.0
N910 N 0.33308 0.11248 0.55889 0.0
N911 N 0.4557 0.17908 0.48979 0.0
C912 C 0.35975 0.13687 0.54503 0.0
C913 C 0.42241 0.17076 0.50776 0.0
N914 N 0.32048 0.1548 0.49146 0.0
N915 N 0.447 0.189 0.56953 0.0
H916 H 0.45833 0.18104 0.4604 0.0
H917 H 0.48157 0.18113 0.50439 0.0
H918 H 0.4448 0.19182 0.59902 0.0
H919 H 0.46665 0.20743 0.55736 0.0
H920 H 0.2955 0.14925 0.50637 0.0
H921 H 0.31632 0.16808 0.46531 0.0
H922 H 0.31031 0.10267 0.54237 0.0
H923 H 0.33575 0.09861 0.58483 0.0
C924 C 0.82946 0.33525 0.49789 0.0
C925 C 0.83331 0.37082 0.47944 0.0
C926 C 0.86095 0.3975 0.53805 0.0
C927 C 0.86071 0.36094 0.55518 0.0
N928 N 0.84791 0.29417 0.5503 0.0
N929 N 0.85321 0.43595 0.48157 0.0
C930 C 0.846 0.3295 0.53463 0.0
C931 C 0.84882 0.40208 0.4996 0.0
N932 N 0.80916 0.30718 0.48008 0.0
N933 N 0.87171 0.42831 0.55919 0.0
H934 H 0.83993 0.44173 0.45574 0.0
H935 H 0.87013 0.458 0.49194 0.0
H936 H 0.88402 0.42579 0.58605 0.0
H937 H 0.86689 0.45619 0.55087 0.0
H938 H 0.80236 0.2814 0.4926 0.0
H939 H 0.79587 0.31139 0.45376 0.0
H940 H 0.84069 0.2694 0.53575 0.0
H941 H 0.85991 0.28928 0.57706 0.0
C942 C 0.66607 0.8743 0.49677 0.0
C943 C 0.63844 0.85121 0.4773 0.0
C944 C 0.62372 0.82486 0.5397 0.0
C945 C 0.64127 0.85632 0.5589 0.0
N946 N 0.67602 0.91531 0.55103 0.0
N947 N 0.58587 0.80679 0.48532 0.0
C948 C 0.66153 0.8825 0.5362 0.0
C949 C 0.61555 0.82716 0.50008 0.0
N950 N 0.69817 0.88634 0.47871 0.0
N951 N 0.61725 0.79156 0.55823 0.0
H952 H 0.57692 0.8079 0.45715 0.0
H953 H 0.56749 0.79144 0.50269 0.0
H954 H 0.62834 0.78602 0.58525 0.0
H955 H 0.60644 0.76761 0.54433 0.0
H956 H 0.71957 0.90149 0.49282 0.0
H957 H 0.70618 0.87597 0.45206 0.0
H958 H 0.6887 0.93577 0.53388 0.0
H959 H 0.67185 0.92414 0.57898 0.0
C960 C 0.18736 0.53036 0.24379 0.0
C961 C 0.17765 0.5298 0.28318 0.0
C962 C 0.17931 0.46035 0.27992 0.0
C963 C 0.17746 0.46177 0.23974 0.0
N964 N 0.18228 0.49841 0.18252 0.0
N965 N 0.16325 0.49169 0.33884 0.0
C966 C 0.18305 0.49682 0.22132 0.0
C967 C 0.17416 0.4941 0.30166 0.0
N968 N 0.20084 0.56297 0.22799 0.0
N969 N 0.18606 0.42647 0.29714 0.0
H970 H 0.15887 0.51495 0.35652 0.0
H971 H 0.1558 0.4661 0.35149 0.0
H972 H 0.19269 0.40235 0.28119 0.0
H973 H 0.19026 0.4237 0.3264 0.0
H974 H 0.21109 0.56441 0.20025 0.0
H975 H 0.2056 0.58747 0.2441 0.0
H976 H 0.18135 0.52378 0.16748 0.0
H977 H 0.18104 0.47408 0.16553 0.0
C978 C 0.48792 0.17659 0.21664 0.0
C979 C 0.52517 0.18372 0.2299 0.0
C980 C 0.49801 0.20532 0.2913 0.0
C981 C 0.46158 0.1919 0.27973 0.0
N982 N 0.42558 0.15459 0.23386 0.0
N983 N 0.56633 0.20491 0.2807 0.0
C984 C 0.4575 0.17488 0.24297 0.0
C985 C 0.53038 0.19824 0.26753 0.0
N986 N 0.48152 0.1717 0.17861 0.0
N987 N 0.50155 0.22572 0.3243 0.0
H988 H 0.58981 0.20389 0.26285 0.0
H989 H 0.57279 0.21058 0.30916 0.0
H990 H 0.47856 0.23124 0.34217 0.0
H991 H 0.52652 0.23955 0.33246 0.0
H992 H 0.45432 0.16873 0.1669 0.0
H993 H 0.50302 0.17612 0.15875 0.0
H994 H 0.42293 0.13891 0.20872 0.0
H995 H 0.40407 0.14925 0.25334 0.0
C996 C 0.80135 0.50072 0.29617 0.0
C997 C 0.80786 0.46339 0.28267 0.0
C998 C 0.8124 0.48741 0.21735 0.0
C999 C 0.81208 0.52507 0.23152 0.0
N1000 N 0.78936 0.56681 0.28027 0.0
N1001 N 0.80071 0.42069 0.23001 0.0
C1002 C 0.80083 0.53145 0.26974 0.0
C1003 C 0.80705 0.45662 0.24292 0.0
N1004 N 0.79689 0.50673 0.33423 0.0
N1005 N 0.81977 0.48123 0.17975 0.0
H1006 H 0.79309 0.39924 0.24878 0.0
H1007 H 0.79799 0.41354 0.20132 0.0
H1008 H 0.82114 0.50356 0.16047 0.0
H1009 H 0.82518 0.45454 0.16817 0.0
H1010 H 0.79687 0.53347 0.34692 0.0
H1011 H 0.79301 0.48421 0.3529 0.0
H1012 H 0.77915 0.57368 0.30721 0.0
H1013 H 0.78602 0.58805 0.26005 0.0
C1014 C 0.50467 0.82574 0.30753 0.0
C1015 C 0.53586 0.80821 0.28926 0.0
C1016 C 0.49226 0.7909 0.23619 0.0
C1017 C 0.4644 0.81671 0.2503 0.0
N1018 N 0.45035 0.86572 0.29746 0.0
N1019 N 0.55867 0.77113 0.23642 0.0
C1020 C 0.47211 0.83583 0.28562 0.0
C1021 C 0.52927 0.78971 0.25366 0.0
N1022 N 0.50568 0.83289 0.34575 0.0
N1023 N 0.4831 0.76644 0.20727 0.0
H1024 H 0.58475 0.76675 0.25015 0.0
H1025 H 0.55754 0.76134 0.20839 0.0
H1026 H 0.45597 0.76503 0.19517 0.0
H1027 H 0.50113 0.74485 0.19806 0.0
H1028 H 0.48232 0.84363 0.36053 0.0
H1029 H 0.52747 0.8231 0.36334 0.0
H1030 H 0.45753 0.8823 0.32112 0.0
H1031 H 0.42839 0.87736 0.28146 0.0
C1032 C 0.76434 0.52216 0.76431 0.0
C1033 C 0.79345 0.54653 0.75111 0.0
C1034 C 0.83715 0.49395 0.74557 0.0
C1035 C 0.8092 0.4686 0.76002 0.0
N1036 N 0.74409 0.45779 0.77881 0.0
N1037 N 0.84371 0.54845 0.70533 0.0
C1038 C 0.77183 0.48247 0.76774 0.0
C1039 C 0.82548 0.53017 0.73399 0.0
N1040 N 0.73051 0.53785 0.77495 0.0
N1041 N 0.87458 0.48412 0.74216 0.0
H1042 H 0.83078 0.57073 0.69084 0.0
H1043 H 0.86793 0.53787 0.69219 0.0
H1044 H 0.88587 0.45803 0.74963 0.0
H1045 H 0.8954 0.50391 0.735 0.0
H1046 H 0.70856 0.52304 0.78795 0.0
H1047 H 0.72522 0.56673 0.77099 0.0
H1048 H 0.71559 0.46515 0.78187 0.0
H1049 H 0.74973 0.42928 0.78434 0.0
C1050 C 0.54341 0.74724 0.77629 0.0
C1051 C 0.5678 0.77659 0.78942 0.0
C1052 C 0.51607 0.82135 0.78902 0.0
C1053 C 0.49098 0.79363 0.77336 0.0
N1054 N 0.47965 0.72838 0.75565 0.0
N1055 N 0.56655 0.82751 0.83499 0.0
C1056 C 0.50426 0.75565 0.76846 0.0
C1057 C 0.55075 0.80921 0.80457 0.0
N1058 N 0.55874 0.71225 0.77011 0.0
N1059 N 0.50763 0.85908 0.78953 0.0
H1060 H 0.58901 0.81552 0.85031 0.0
H1061 H 0.55364 0.85093 0.84786 0.0
H1062 H 0.48309 0.87077 0.77796 0.0
H1063 H 0.52766 0.87925 0.79828 0.0
H1064 H 0.544 0.68928 0.75863 0.0
H1065 H 0.58726 0.70685 0.77684 0.0
H1066 H 0.4865 0.6998 0.7532 0.0
H1067 H 0.45179 0.73468 0.74731 0.0
C1068 C 0.24582 0.49958 0.77599 0.0
C1069 C 0.21151 0.47843 0.77803 0.0
C1070 C 0.17633 0.53637 0.791 0.0
C1071 C 0.2078 0.55773 0.77924 0.0
N1072 N 0.27395 0.56142 0.76372 0.0
N1073 N 0.14356 0.47735 0.77925 0.0
C1074 C 0.24347 0.53983 0.7738 0.0
C1075 C 0.17646 0.49726 0.78332 0.0
N1076 N 0.28004 0.48128 0.77535 0.0
N1077 N 0.14544 0.55394 0.80651 0.0
H1078 H 0.11663 0.48982 0.7785 0.0
H1079 H 0.11663 0.48982 0.7785 0.0
H1080 H 0.14532 0.58294 0.8124 0.0
H1081 H 0.12221 0.53912 0.81723 0.0
H1082 H 0.30609 0.4953 0.77719 0.0
H1083 H 0.28207 0.45176 0.77459 0.0
H1084 H 0.3 0.5502 0.75521 0.0
H1085 H 0.27205 0.59098 0.76291 0.0
C1086 C 0.43875 0.23503 0.78893 0.0
C1087 C 0.44534 0.25749 0.75657 0.0
C1088 C 0.5094 0.27018 0.78037 0.0
C1089 C 0.50661 0.23699 0.803 0.0
N1090 N 0.46696 0.18508 0.8256 0.0
N1091 N 0.4839 0.30332 0.7252 0.0
C1092 C 0.47056 0.21916 0.80762 0.0
C1093 C 0.4794 0.27846 0.75439 0.0
N1094 N 0.40253 0.22562 0.79888 0.0
N1095 N 0.54116 0.29234 0.78272 0.0
H1096 H 0.46144 0.30927 0.70651 0.0
H1097 H 0.50958 0.31666 0.71905 0.0
H1098 H 0.56323 0.28646 0.80184 0.0
H1099 H 0.54392 0.31796 0.76837 0.0
H1100 H 0.39637 0.21014 0.8233 0.0
H1101 H 0.37891 0.23727 0.78513 0.0
H1102 H 0.44158 0.16973 0.82552 0.0
H1103 H 0.48966 0.16999 0.83709 0.0
C1104 C 0.69507 0.02465 0.74828 0.0
C1105 C 0.67972 0.03232 0.78506 0.0
C1106 C 0.66613 0.96405 0.79006 0.0
C1107 C 0.67183 0.95878 0.75021 0.0
N1108 N 0.68968 0.98742 0.6904 0.0
N1109 N 0.64696 0.00669 0.84015 0.0
C1110 C 0.68642 0.98978 0.72906 0.0
C1111 C 0.66475 0.00128 0.80606 0.0
N1112 N 0.71813 0.05083 0.73161 0.0
N1113 N 0.66244 0.93327 0.81311 0.0
H1114 H 0.64592 0.03223 0.85483 0.0
H1115 H 0.6308 0.98557 0.85299 0.0
H1116 H 0.66503 0.9057 0.80297 0.0
H1117 H 0.66173 0.93524 0.84274 0.0
H1118 H 0.73267 0.04567 0.7063 0.0
H1119 H 0.72609 0.0758 0.74554 0.0
H1120 H 0.69577 0.01084 0.67352 0.0
H1121 H 0.68336 0.9631 0.67473 0.0
C1122 C 0.00935 0.67022 0.79701 0.0
C1123 C 0.97229 0.67004 0.78068 0.0
C1124 C 0.99969 0.68743 0.7184 0.0
C1125 C 0.03695 0.68713 0.73427 0.0
N1126 N 0.07759 0.68008 0.78912 0.0
N1127 N 0.93176 0.69109 0.7299 0.0
C1128 C 0.0418 0.67911 0.77383 0.0
C1129 C 0.96742 0.68199 0.74239 0.0
N1130 N 0.01305 0.6636 0.83515 0.0
N1131 N 0.99514 0.69246 0.68006 0.0
H1132 H 0.90887 0.69225 0.7485 0.0
H1133 H 0.92585 0.70274 0.70335 0.0
H1134 H 0.01799 0.69681 0.66172 0.0
H1135 H 0.96922 0.68907 0.66591 0.0
H1136 H 0.0386 0.66394 0.85018 0.0
H1137 H 0.98957 0.6594 0.85269 0.0
H1138 H 0.08477 0.67126 0.81641 0.0
H1139 H 0.10079 0.68993 0.77393 0.0
C1140 C 0.3214 0.02784 0.78048 0.0
C1141 C 0.33198 0.03032 0.74147 0.0
C1142 C 0.33917 0.96091 0.74088 0.0
C1143 C 0.3406 0.96113 0.7813 0.0
N1144 N 0.32825 0.99404 0.84012 0.0
N1145 N 0.3389 0.99666 0.68181 0.0
C1146 C 0.3294 0.99417 0.80128 0.0
C1147 C 0.33681 0.99599 0.72058 0.0
N1148 N 0.30282 0.05753 0.79719 0.0
N1149 N 0.33866 0.92682 0.72234 0.0
H1150 H 0.33114 0.02019 0.66584 0.0
H1151 H 0.34744 0.97364 0.66529 0.0
H1152 H 0.33644 0.90145 0.73727 0.0
H1153 H 0.33599 0.92358 0.69299 0.0
H1154 H 0.29186 0.0566 0.82468 0.0
H1155 H 0.29442 0.08131 0.78167 0.0
H1156 H 0.32514 0.01857 0.85648 0.0
H1157 H 0.33222 0.96941 0.85595 0.0
C1158 C 0.01465 0.33771 0.71256 0.0
C1159 C 0.98053 0.333 0.73278 0.0
C1160 C 0.01847 0.31591 0.78995 0.0
C1161 C 0.05251 0.32732 0.77127 0.0
N1162 N 0.07995 0.35744 0.71578 0.0
N1163 N 0.94901 0.31511 0.79035 0.0
C1164 C 0.04981 0.34006 0.73269 0.0
C1165 C 0.98224 0.32128 0.77145 0.0
N1166 N 0.01345 0.34026 0.6738 0.0
N1167 N 0.02078 0.29864 0.82461 0.0
H1168 H 0.92291 0.31394 0.77611 0.0
H1169 H 0.94731 0.31152 0.8197 0.0
H1170 H 0.04659 0.29387 0.8386 0.0
H1171 H 0.99758 0.28641 0.83818 0.0
H1172 H 0.03779 0.34047 0.65694 0.0
H1173 H 0.98803 0.33759 0.65851 0.0
H1174 H 0.07811 0.3708 0.68944 0.0
H1175 H 0.10527 0.363 0.72983 0.0
C1176 C 0.28722 0.98889 0.2618 0.0
C1177 C 0.31236 0.97936 0.23204 0.0
C1178 C 0.32955 0.04521 0.22262 0.0
C1179 C 0.30883 0.05408 0.25598 0.0
N1180 N 0.25613 0.03988 0.29659 0.0
N1181 N 0.3412 0.99867 0.17324 0.0
C1182 C 0.28268 0.02771 0.2711 0.0
C1183 C 0.32779 0.00781 0.20851 0.0
N1184 N 0.2701 0.9611 0.28249 0.0
N1185 N 0.35359 0.07102 0.2067 0.0
H1186 H 0.33832 0.97139 0.16199 0.0
H1187 H 0.35069 0.01874 0.15381 0.0
H1188 H 0.35472 0.09932 0.21508 0.0
H1189 H 0.37347 0.06392 0.18592 0.0
H1190 H 0.25447 0.96639 0.30707 0.0
H1191 H 0.27289 0.9324 0.27571 0.0
H1192 H 0.23493 0.0225 0.30758 0.0
H1193 H 0.2538 0.06854 0.30391 0.0
C1194 C 0.01018 0.34104 0.23765 0.0
C1195 C 0.02989 0.30767 0.24879 0.0
C1196 C 0.969 0.27627 0.25971 0.0
C1197 C 0.95066 0.31185 0.25654 0.0
N1198 N 0.954 0.37927 0.24382 0.0
N1199 N 0.02862 0.24274 0.26966 0.0
C1200 C 0.97102 0.34433 0.24484 0.0
C1201 C 0.00941 0.2747 0.25904 0.0
N1202 N 0.02849 0.36963 0.21932 0.0
N1203 N 0.94738 0.24457 0.26488 0.0
H1204 H 0.05829 0.24112 0.26981 0.0
H1205 H 0.01545 0.21878 0.28066 0.0
H1206 H 0.91767 0.24593 0.2656 0.0
H1207 H 0.95834 0.21716 0.26515 0.0
H1208 H 0.01376 0.39106 0.20532 0.0
H1209 H 0.05762 0.37021 0.21465 0.0
H1210 H 0.96919 0.40455 0.24183 0.0
H1211 H 0.92493 0.38376 0.24671 0.0
C1212 C 0.72575 0.98864 0.2641 0.0
C1213 C 0.69607 0.96469 0.25093 0.0
C1214 C 0.6616 0.01793 0.2251 0.0
C1215 C 0.69017 0.04278 0.23965 0.0
N1216 N 0.75348 0.05179 0.26508 0.0
N1217 N 0.64619 0.95407 0.20517 0.0
C1218 C 0.72393 0.0281 0.25627 0.0
C1219 C 0.66797 0.97861 0.22614 0.0
N1220 N 0.75388 0.97362 0.28632 0.0
N1221 N 0.62753 0.0315 0.21205 0.0
H1222 H 0.65077 0.92489 0.2055 0.0
H1223 H 0.62693 0.96296 0.18436 0.0
H1224 H 0.62079 0.06014 0.21088 0.0
H1225 H 0.60439 0.01401 0.20573 0.0
H1226 H 0.77426 0.98976 0.30068 0.0
H1227 H 0.75569 0.94444 0.29099 0.0
H1228 H 0.78 0.04229 0.27437 0.0
H1229 H 0.75202 0.08106 0.26111 0.0
C1230 C 0.96244 0.64957 0.34133 0.0
C1231 C 0.9466 0.6735 0.31321 0.0
C1232 C 0.98554 0.72654 0.33555 0.0
C1233 C 0.00484 0.70114 0.35987 0.0
N1234 N 0.99636 0.64677 0.40102 0.0
N1235 N 0.93227 0.7369 0.29236 0.0
C1236 C 0.98797 0.66549 0.36813 0.0
C1237 C 0.95426 0.713 0.31362 0.0
N1238 N 0.95521 0.61145 0.34113 0.0
N1239 N 0.99933 0.76244 0.33156 0.0
H1240 H 0.909 0.72721 0.2764 0.0
H1241 H 0.935 0.76628 0.29306 0.0
H1242 H 0.02168 0.77245 0.34862 0.0
H1243 H 0.98956 0.78149 0.31119 0.0
H1244 H 0.96894 0.59241 0.35913 0.0
H1245 H 0.93755 0.5981 0.32128 0.0
H1246 H 0.9828 0.62181 0.40904 0.0
H1247 H 0.01216 0.65881 0.42302 0.0
loop_
_geom_bond_atom_site_label_1
_geom_bond_atom_site_label_2
_geom_bond_distance
_geom_bond_site_symmetry_2
_ccdc_geom_bond_type
C0 C1 1.351 . S
C0 N3 1.368 . S
C0 H5 0.931 . S
C1 C0 1.351 . S
C1 N2 1.373 . S
C1 H29 0.930 . S
N2 C1 1.373 . S
N2 C4 1.340 . S
N3 C0 1.368 . S
N3 C4 1.321 . S
N3 Co6 2.135 . S
C4 N2 1.340 . S
C4 N3 1.321 . S
C4 H28 0.930 . S
H5 C0 0.931 . S
Co6 N3 2.135 . S
Co6 N9 2.121 . S
Co6 O14 2.055 . S
Co6 O17 2.039 . S
Co6 N20 2.140 . S
C7 O8 1.227 . S
C7 O17 1.265 . S
O8 C7 1.227 . S
N9 Co6 2.121 . S
N9 C11 1.375 . S
N9 C12 1.313 . S
C10 C11 1.338 . S
C10 N13 1.377 . S
C10 H30 0.930 . S
C11 N9 1.375 . S
C11 C10 1.338 . S
C11 H15 0.931 . S
C12 N9 1.313 . S
C12 N13 1.344 . S
C12 H16 0.930 . S
N13 C10 1.377 . S
N13 C12 1.344 . S
O14 Co6 2.055 . S
O14 C18 1.253 . S
H15 C11 0.931 . S
H16 C12 0.930 . S
O17 Co6 2.039 . S
O17 C7 1.265 . S
C18 O14 1.253 . S
C18 O19 1.227 . S
O19 C18 1.227 . S
N20 Co6 2.140 . S
N20 C23 1.346 . S
N20 C24 1.345 . S
C21 C22 1.387 . S
C21 C25 1.391 . S
C22 C21 1.387 . S
C22 C23 1.369 . S
C22 H31 0.929 . S
C23 N20 1.346 . S
C23 C22 1.369 . S
C23 H26 0.928 . S
C24 N20 1.345 . S
C24 C25 1.371 . S
C24 H27 0.931 . S
C25 C21 1.391 . S
C25 C24 1.371 . S
C25 H32 0.930 . S
H26 C23 0.928 . S
H27 C24 0.931 . S
H28 C4 0.930 . S
H29 C1 0.930 . S
H30 C10 0.930 . S
H31 C22 0.929 . S
H32 C25 0.930 . S
C33 C34 1.351 . S
C33 N36 1.368 . S
C33 H38 0.931 . S
C34 C33 1.351 . S
C34 N35 1.373 . S
C34 H62 0.930 . S
N35 C34 1.373 . S
N35 C37 1.340 . S
N36 C33 1.368 . S
N36 C37 1.321 . S
N36 Co39 2.135 . S
C37 N35 1.340 . S
C37 N36 1.321 . S
C37 H61 0.930 . S
H38 C33 0.931 . S
Co39 N36 2.135 . S
Co39 N42 2.121 . S
Co39 O47 2.055 . S
Co39 O50 2.039 . S
Co39 N53 2.140 . S
C40 O41 1.227 . S
C40 O50 1.265 . S
O41 C40 1.227 . S
N42 Co39 2.121 . S
N42 C44 1.375 . S
N42 C45 1.313 . S
C43 C44 1.338 . S
C43 N46 1.377 . S
C43 H63 0.930 . S
C44 N42 1.375 . S
C44 C43 1.338 . S
C44 H48 0.931 . S
C45 N42 1.313 . S
C45 N46 1.344 . S
C45 H49 0.930 . S
N46 C43 1.377 . S
N46 C45 1.344 . S
O47 Co39 2.055 . S
O47 C51 1.253 . S
H48 C44 0.931 . S
H49 C45 0.930 . S
O50 Co39 2.039 . S
O50 C40 1.265 . S
C51 O47 1.253 . S
C51 O52 1.227 . S
O52 C51 1.227 . S
N53 Co39 2.140 . S
N53 C56 1.346 . S
N53 C57 1.345 . S
C54 C55 1.387 . S
C54 C58 1.391 . S
C55 C54 1.387 . S
C55 C56 1.369 . S
C55 H64 0.929 . S
C56 N53 1.346 . S
C56 C55 1.369 . S
C56 H59 0.928 . S
C57 N53 1.345 . S
C57 C58 1.371 . S
C57 H60 0.931 . S
C58 C54 1.391 . S
C58 C57 1.371 . S
C58 H65 0.930 . S
H59 C56 0.928 . S
H60 C57 0.931 . S
H61 C37 0.930 . S
H62 C34 0.930 . S
H63 C43 0.930 . S
H64 C55 0.929 . S
H65 C58 0.930 . S
C66 C67 1.351 . S
C66 N69 1.368 . S
C66 H71 0.931 . S
C67 C66 1.351 . S
C67 N68 1.373 . S
C67 H95 0.930 . S
N68 C67 1.373 . S
N68 C70 1.340 . S
N69 C66 1.368 . S
N69 C70 1.321 . S
N69 Co72 2.135 . S
C70 N68 1.340 . S
C70 N69 1.321 . S
C70 H94 0.930 . S
H71 C66 0.931 . S
Co72 N69 2.135 . S
Co72 N75 2.121 . S
Co72 O80 2.055 . S
Co72 O83 2.039 . S
Co72 N86 2.140 . S
C73 O74 1.227 . S
C73 O83 1.265 . S
O74 C73 1.227 . S
N75 Co72 2.121 . S
N75 C77 1.375 . S
N75 C78 1.313 . S
C76 C77 1.338 . S
C76 N79 1.377 . S
C76 H96 0.930 . S
C77 N75 1.375 . S
C77 C76 1.338 . S
C77 H81 0.931 . S
C78 N75 1.313 . S
C78 N79 1.344 . S
C78 H82 0.930 . S
N79 C76 1.377 . S
N79 C78 1.344 . S
O80 Co72 2.055 . S
O80 C84 1.253 . S
H81 C77 0.931 . S
H82 C78 0.930 . S
O83 Co72 2.039 . S
O83 C73 1.265 . S
C84 O80 1.253 . S
C84 O85 1.227 . S
O85 C84 1.227 . S
N86 Co72 2.140 . S
N86 C89 1.346 . S
N86 C90 1.345 . S
C87 C88 1.387 . S
C87 C91 1.391 . S
C88 C87 1.387 . S
C88 C89 1.369 . S
C88 H97 0.929 . S
C89 N86 1.346 . S
C89 C88 1.369 . S
C89 H92 0.928 . S
C90 N86 1.345 . S
C90 C91 1.371 . S
C90 H93 0.931 . S
C91 C87 1.391 . S
C91 C90 1.371 . S
C91 H98 0.930 . S
H92 C89 0.928 . S
H93 C90 0.931 . S
H94 C70 0.930 . S
H95 C67 0.930 . S
H96 C76 0.930 . S
H97 C88 0.929 . S
H98 C91 0.930 . S
C99 C100 1.351 . S
C99 N102 1.368 . S
C99 H104 0.931 . S
C100 C99 1.351 . S
C100 N101 1.373 . S
C100 H128 0.930 . S
N101 C100 1.373 . S
N101 C103 1.340 . S
N102 C99 1.368 . S
N102 C103 1.321 . S
N102 Co105 2.135 . S
C103 N101 1.340 . S
C103 N102 1.321 . S
C103 H127 0.930 . S
H104 C99 0.931 . S
Co105 N102 2.135 . S
Co105 N108 2.121 . S
Co105 O113 2.055 . S
Co105 O116 2.039 . S
Co105 N119 2.140 . S
C106 O107 1.227 . S
C106 O116 1.265 . S
O107 C106 1.227 . S
N108 Co105 2.121 . S
N108 C110 1.375 . S
N108 C111 1.313 . S
C109 C110 1.338 . S
C109 N112 1.377 . S
C109 H129 0.930 . S
C110 N108 1.375 . S
C110 C109 1.338 . S
C110 H114 0.931 . S
C111 N108 1.313 . S
C111 N112 1.344 . S
C111 H115 0.930 . S
N112 C109 1.377 . S
N112 C111 1.344 . S
O113 Co105 2.055 . S
O113 C117 1.253 . S
H114 C110 0.931 . S
H115 C111 0.930 . S
O116 Co105 2.039 . S
O116 C106 1.265 . S
C117 O113 1.253 . S
C117 O118 1.227 . S
O118 C117 1.227 . S
N119 Co105 2.140 . S
N119 C122 1.346 . S
N119 C123 1.345 . S
C120 C121 1.387 . S
C120 C124 1.391 . S
C121 C120 1.387 . S
C121 C122 1.369 . S
C121 H130 0.929 . S
C122 N119 1.346 . S
C122 C121 1.369 . S
C122 H125 0.928 . S
C123 N119 1.345 . S
C123 C124 1.371 . S
C123 H126 0.931 . S
C124 C120 1.391 . S
C124 C123 1.371 . S
C124 H131 0.930 . S
H125 C122 0.928 . S
H126 C123 0.931 . S
H127 C103 0.930 . S
H128 C100 0.930 . S
H129 C109 0.930 . S
H130 C121 0.929 . S
H131 C124 0.930 . S
C132 C133 1.351 . S
C132 N135 1.368 . S
C132 H137 0.931 . S
C133 C132 1.351 . S
C133 N134 1.373 . S
C133 H161 0.930 . S
N134 C133 1.373 . S
N134 C136 1.340 . S
N135 C132 1.368 . S
N135 C136 1.321 . S
N135 Co138 2.135 . S
C136 N134 1.340 . S
C136 N135 1.321 . S
C136 H160 0.930 . S
H137 C132 0.931 . S
Co138 N135 2.135 . S
Co138 N141 2.121 . S
Co138 O146 2.055 . S
Co138 O149 2.039 . S
Co138 N152 2.140 . S
C139 O140 1.227 . S
C139 O149 1.265 . S
O140 C139 1.227 . S
N141 Co138 2.121 . S
N141 C143 1.375 . S
N141 C144 1.313 . S
C142 C143 1.338 . S
C142 N145 1.377 . S
C142 H162 0.930 . S
C143 N141 1.375 . S
C143 C142 1.338 . S
C143 H147 0.931 . S
C144 N141 1.313 . S
C144 N145 1.344 . S
C144 H148 0.930 . S
N145 C142 1.377 . S
N145 C144 1.344 . S
O146 Co138 2.055 . S
O146 C150 1.253 . S
H147 C143 0.931 . S
H148 C144 0.930 . S
O149 Co138 2.039 . S
O149 C139 1.265 . S
C150 O146 1.253 . S
C150 O151 1.227 . S
O151 C150 1.227 . S
N152 Co138 2.140 . S
N152 C155 1.346 . S
N152 C156 1.345 . S
C153 C154 1.387 . S
C153 C157 1.391 . S
C154 C153 1.387 . S
C154 C155 1.369 . S
C154 H163 0.929 . S
C155 N152 1.346 . S
C155 C154 1.369 . S
C155 H158 0.928 . S
C156 N152 1.345 . S
C156 C157 1.371 . S
C156 H159 0.931 . S
C157 C153 1.391 . S
C157 C156 1.371 . S
C157 H164 0.930 . S
H158 C155 0.928 . S
H159 C156 0.931 . S
H160 C136 0.930 . S
H161 C133 0.930 . S
H162 C142 0.930 . S
H163 C154 0.929 . S
H164 C157 0.930 . S
C165 C166 1.351 . S
C165 N168 1.368 . S
C165 H170 0.931 . S
C166 C165 1.351 . S
C166 N167 1.373 . S
C166 H194 0.930 . S
N167 C166 1.373 . S
N167 C169 1.340 . S
N168 C165 1.368 . S
N168 C169 1.321 . S
N168 Co171 2.135 . S
C169 N167 1.340 . S
C169 N168 1.321 . S
C169 H193 0.930 . S
H170 C165 0.931 . S
Co171 N168 2.135 . S
Co171 N174 2.121 . S
Co171 O179 2.055 . S
Co171 O182 2.039 . S
Co171 N185 2.140 . S
C172 O173 1.227 . S
C172 O182 1.265 . S
O173 C172 1.227 . S
N174 Co171 2.121 . S
N174 C176 1.375 . S
N174 C177 1.313 . S
C175 C176 1.338 . S
C175 N178 1.377 . S
C175 H195 0.930 . S
C176 N174 1.375 . S
C176 C175 1.338 . S
C176 H180 0.931 . S
C177 N174 1.313 . S
C177 N178 1.344 . S
C177 H181 0.930 . S
N178 C175 1.377 . S
N178 C177 1.344 . S
O179 Co171 2.055 . S
O179 C183 1.253 . S
H180 C176 0.931 . S
H181 C177 0.930 . S
O182 Co171 2.039 . S
O182 C172 1.265 . S
C183 O179 1.253 . S
C183 O184 1.227 . S
O184 C183 1.227 . S
N185 Co171 2.140 . S
N185 C188 1.346 . S
N185 C189 1.345 . S
C186 C187 1.387 . S
C186 C190 1.391 . S
C187 C186 1.387 . S
C187 C188 1.369 . S
C187 H196 0.929 . S
C188 N185 1.346 . S
C188 C187 1.369 . S
C188 H191 0.928 . S
C189 N185 1.345 . S
C189 C190 1.371 . S
C189 H192 0.931 . S
C190 C186 1.391 . S
C190 C189 1.371 . S
C190 H197 0.930 . S
H191 C188 0.928 . S
H192 C189 0.931 . S
H193 C169 0.930 . S
H194 C166 0.930 . S
H195 C175 0.930 . S
H196 C187 0.929 . S
H197 C190 0.930 . S
C198 C199 1.351 . S
C198 N201 1.368 . S
C198 H203 0.931 . S
C199 C198 1.351 . S
C199 N200 1.373 . S
C199 H227 0.930 . S
N200 C199 1.373 . S
N200 C202 1.340 . S
N201 C198 1.368 . S
N201 C202 1.321 . S
N201 Co204 2.135 . S
C202 N200 1.340 . S
C202 N201 1.321 . S
C202 H226 0.930 . S
H203 C198 0.931 . S
Co204 N201 2.135 . S
Co204 N207 2.121 . S
Co204 O212 2.055 . S
Co204 O215 2.039 . S
Co204 N218 2.140 . S
C205 O206 1.227 . S
C205 O215 1.265 . S
O206 C205 1.227 . S
N207 Co204 2.121 . S
N207 C209 1.375 . S
N207 C210 1.313 . S
C208 C209 1.338 . S
C208 N211 1.377 . S
C208 H228 0.930 . S
C209 N207 1.375 . S
C209 C208 1.338 . S
C209 H213 0.931 . S
C210 N207 1.313 . S
C210 N211 1.344 . S
C210 H214 0.930 . S
N211 C208 1.377 . S
N211 C210 1.344 . S
O212 Co204 2.055 . S
O212 C216 1.253 . S
H213 C209 0.931 . S
H214 C210 0.930 . S
O215 Co204 2.039 . S
O215 C205 1.265 . S
C216 O212 1.253 . S
C216 O217 1.227 . S
O217 C216 1.227 . S
N218 Co204 2.140 . S
N218 C221 1.346 . S
N218 C222 1.345 . S
C219 C220 1.387 . S
C219 C223 1.391 . S
C220 C219 1.387 . S
C220 C221 1.369 . S
C220 H229 0.929 . S
C221 N218 1.346 . S
C221 C220 1.369 . S
C221 H224 0.928 . S
C222 N218 1.345 . S
C222 C223 1.371 . S
C222 H225 0.931 . S
C223 C219 1.391 . S
C223 C222 1.371 . S
C223 H230 0.930 . S
H224 C221 0.928 . S
H225 C222 0.931 . S
H226 C202 0.930 . S
H227 C199 0.930 . S
H228 C208 0.930 . S
H229 C220 0.929 . S
H230 C223 0.930 . S
C231 C232 1.351 . S
C231 N234 1.368 . S
C231 H236 0.931 . S
C232 C231 1.351 . S
C232 N233 1.373 . S
C232 H260 0.930 . S
N233 C232 1.373 . S
N233 C235 1.340 . S
N234 C231 1.368 . S
N234 C235 1.321 . S
N234 Co237 2.135 . S
C235 N233 1.340 . S
C235 N234 1.321 . S
C235 H259 0.930 . S
H236 C231 0.931 . S
Co237 N234 2.135 . S
Co237 N240 2.121 . S
Co237 O245 2.055 . S
Co237 O248 2.039 . S
Co237 N251 2.140 . S
C238 O239 1.227 . S
C238 O248 1.265 . S
O239 C238 1.227 . S
N240 Co237 2.121 . S
N240 C242 1.375 . S
N240 C243 1.313 . S
C241 C242 1.338 . S
C241 N244 1.377 . S
C241 H261 0.930 . S
C242 N240 1.375 . S
C242 C241 1.338 . S
C242 H246 0.931 . S
C243 N240 1.313 . S
C243 N244 1.344 . S
C243 H247 0.930 . S
N244 C241 1.377 . S
N244 C243 1.344 . S
O245 Co237 2.055 . S
O245 C249 1.253 . S
H246 C242 0.931 . S
H247 C243 0.930 . S
O248 Co237 2.039 . S
O248 C238 1.265 . S
C249 O245 1.253 . S
C249 O250 1.227 . S
O250 C249 1.227 . S
N251 Co237 2.140 . S
N251 C254 1.346 . S
N251 C255 1.345 . S
C252 C253 1.387 . S
C252 C256 1.391 . S
C253 C252 1.387 . S
C253 C254 1.369 . S
C253 H262 0.929 . S
C254 N251 1.346 . S
C254 C253 1.369 . S
C254 H257 0.928 . S
C255 N251 1.345 . S
C255 C256 1.371 . S
C255 H258 0.931 . S
C256 C252 1.391 . S
C256 C255 1.371 . S
C256 H263 0.930 . S
H257 C254 0.928 . S
H258 C255 0.931 . S
H259 C235 0.930 . S
H260 C232 0.930 . S
H261 C241 0.930 . S
H262 C253 0.929 . S
H263 C256 0.930 . S
C264 C265 1.351 . S
C264 N267 1.368 . S
C264 H269 0.931 . S
C265 C264 1.351 . S
C265 N266 1.373 . S
C265 H293 0.930 . S
N266 C265 1.373 . S
N266 C268 1.340 . S
N267 C264 1.368 . S
N267 C268 1.321 . S
N267 Co270 2.135 . S
C268 N266 1.340 . S
C268 N267 1.321 . S
C268 H292 0.930 . S
H269 C264 0.931 . S
Co270 N267 2.135 . S
Co270 N273 2.121 . S
Co270 O278 2.055 . S
Co270 O281 2.039 . S
Co270 N284 2.140 . S
C271 O272 1.227 . S
C271 O281 1.265 . S
O272 C271 1.227 . S
N273 Co270 2.121 . S
N273 C275 1.375 . S
N273 C276 1.313 . S
C274 C275 1.338 . S
C274 N277 1.377 . S
C274 H294 0.930 1_655 S
C275 N273 1.375 . S
C275 C274 1.338 . S
C275 H279 0.931 . S
C276 N273 1.313 . S
C276 N277 1.344 . S
C276 H280 0.930 . S
N277 C274 1.377 . S
N277 C276 1.344 . S
O278 Co270 2.055 . S
O278 C282 1.253 . S
H279 C275 0.931 . S
H280 C276 0.930 . S
O281 Co270 2.039 . S
O281 C271 1.265 . S
C282 O278 1.253 . S
C282 O283 1.227 . S
O283 C282 1.227 . S
N284 Co270 2.140 . S
N284 C287 1.346 . S
N284 C288 1.345 . S
C285 C286 1.387 . S
C285 C289 1.391 . S
C286 C285 1.387 . S
C286 C287 1.369 . S
C286 H295 0.929 . S
C287 N284 1.346 . S
C287 C286 1.369 . S
C287 H290 0.928 . S
C288 N284 1.345 . S
C288 C289 1.371 . S
C288 H291 0.931 . S
C289 C285 1.391 . S
C289 C288 1.371 . S
C289 H296 0.930 . S
H290 C287 0.928 . S
H291 C288 0.931 . S
H292 C268 0.930 . S
H293 C265 0.930 . S
H294 C274 0.930 1_455 S
H295 C286 0.929 . S
H296 C289 0.930 . S
C297 C298 1.351 . S
C297 N300 1.368 . S
C297 H302 0.931 . S
C298 C297 1.351 . S
C298 N299 1.373 . S
C298 H326 0.930 . S
N299 C298 1.373 . S
N299 C301 1.340 . S
N300 C297 1.368 . S
N300 C301 1.321 . S
N300 Co303 2.135 . S
C301 N299 1.340 . S
C301 N300 1.321 . S
C301 H325 0.930 . S
H302 C297 0.931 . S
Co303 N300 2.135 . S
Co303 N306 2.121 . S
Co303 O311 2.055 . S
Co303 O314 2.039 . S
Co303 N317 2.140 . S
C304 O305 1.227 . S
C304 O314 1.265 . S
O305 C304 1.227 . S
N306 Co303 2.121 . S
N306 C308 1.375 . S
N306 C309 1.313 . S
C307 C308 1.338 . S
C307 N310 1.377 . S
C307 H327 0.930 1_565 S
C308 N306 1.375 . S
C308 C307 1.338 . S
C308 H312 0.931 . S
C309 N306 1.313 . S
C309 N310 1.344 . S
C309 H313 0.930 . S
N310 C307 1.377 . S
N310 C309 1.344 . S
O311 Co303 2.055 . S
O311 C315 1.253 . S
H312 C308 0.931 . S
H313 C309 0.930 . S
O314 Co303 2.039 . S
O314 C304 1.265 . S
C315 O311 1.253 . S
C315 O316 1.227 . S
O316 C315 1.227 . S
N317 Co303 2.140 . S
N317 C320 1.346 . S
N317 C321 1.345 . S
C318 C319 1.387 . S
C318 C322 1.391 . S
C319 C318 1.387 . S
C319 C320 1.369 . S
C319 H328 0.929 . S
C320 N317 1.346 . S
C320 C319 1.369 . S
C320 H323 0.928 . S
C321 N317 1.345 . S
C321 C322 1.371 . S
C321 H324 0.931 . S
C322 C318 1.391 . S
C322 C321 1.371 . S
C322 H329 0.930 . S
H323 C320 0.928 . S
H324 C321 0.931 . S
H325 C301 0.930 . S
H326 C298 0.930 . S
H327 C307 0.930 1_545 S
H328 C319 0.929 . S
H329 C322 0.930 . S
C330 C331 1.351 . S
C330 N333 1.368 . S
C330 H335 0.931 . S
C331 C330 1.351 . S
C331 N332 1.373 . S
C331 H359 0.930 . S
N332 C331 1.373 . S
N332 C334 1.340 . S
N333 C330 1.368 . S
N333 C334 1.321 . S
N333 Co336 2.135 . S
C334 N332 1.340 . S
C334 N333 1.321 . S
C334 H358 0.930 . S
H335 C330 0.931 . S
Co336 N333 2.135 . S
Co336 N339 2.121 . S
Co336 O344 2.055 . S
Co336 O347 2.039 . S
Co336 N350 2.140 . S
C337 O338 1.227 . S
C337 O347 1.265 . S
O338 C337 1.227 . S
N339 Co336 2.121 . S
N339 C341 1.375 . S
N339 C342 1.313 . S
C340 C341 1.338 . S
C340 N343 1.377 . S
C340 H360 0.930 1_455 S
C341 N339 1.375 . S
C341 C340 1.338 . S
C341 H345 0.931 . S
C342 N339 1.313 . S
C342 N343 1.344 . S
C342 H346 0.930 . S
N343 C340 1.377 . S
N343 C342 1.344 . S
O344 Co336 2.055 . S
O344 C348 1.253 . S
H345 C341 0.931 . S
H346 C342 0.930 . S
O347 Co336 2.039 . S
O347 C337 1.265 . S
C348 O344 1.253 . S
C348 O349 1.227 . S
O349 C348 1.227 . S
N350 Co336 2.140 . S
N350 C353 1.346 . S
N350 C354 1.345 . S
C351 C352 1.387 . S
C351 C355 1.391 . S
C352 C351 1.387 . S
C352 C353 1.369 . S
C352 H361 0.929 . S
C353 N350 1.346 . S
C353 C352 1.369 . S
C353 H356 0.928 . S
C354 N350 1.345 . S
C354 C355 1.371 . S
C354 H357 0.931 . S
C355 C351 1.391 . S
C355 C354 1.371 . S
C355 H362 0.930 . S
H356 C353 0.928 . S
H357 C354 0.931 . S
H358 C334 0.930 . S
H359 C331 0.930 . S
H360 C340 0.930 1_655 S
H361 C352 0.929 . S
H362 C355 0.930 . S
C363 C364 1.351 . S
C363 N366 1.368 . S
C363 H368 0.931 . S
C364 C363 1.351 . S
C364 N365 1.373 . S
C364 H392 0.930 . S
N365 C364 1.373 . S
N365 C367 1.340 . S
N366 C363 1.368 . S
N366 C367 1.321 . S
N366 Co369 2.135 . S
C367 N365 1.340 . S
C367 N366 1.321 . S
C367 H391 0.930 . S
H368 C363 0.931 . S
Co369 N366 2.135 . S
Co369 N372 2.121 . S
Co369 O377 2.055 . S
Co369 O380 2.039 . S
Co369 N383 2.140 . S
C370 O371 1.227 . S
C370 O380 1.265 . S
O371 C370 1.227 . S
N372 Co369 2.121 . S
N372 C374 1.375 . S
N372 C375 1.313 . S
C373 C374 1.338 . S
C373 N376 1.377 . S
C373 H393 0.930 1_545 S
C374 N372 1.375 . S
C374 C373 1.338 . S
C374 H378 0.931 . S
C375 N372 1.313 . S
C375 N376 1.344 . S
C375 H379 0.930 . S
N376 C373 1.377 . S
N376 C375 1.344 . S
O377 Co369 2.055 . S
O377 C381 1.253 . S
H378 C374 0.931 . S
H379 C375 0.930 . S
O380 Co369 2.039 . S
O380 C370 1.265 . S
C381 O377 1.253 . S
C381 O382 1.227 . S
O382 C381 1.227 . S
N383 Co369 2.140 . S
N383 C386 1.346 . S
N383 C387 1.345 . S
C384 C385 1.387 . S
C384 C388 1.391 . S
C385 C384 1.387 . S
C385 C386 1.369 . S
C385 H394 0.929 . S
C386 N383 1.346 . S
C386 C385 1.369 . S
C386 H389 0.928 . S
C387 N383 1.345 . S
C387 C388 1.371 . S
C387 H390 0.931 . S
C388 C384 1.391 . S
C388 C387 1.371 . S
C388 H395 0.930 . S
H389 C386 0.928 . S
H390 C387 0.931 . S
H391 C367 0.930 . S
H392 C364 0.930 . S
H393 C373 0.930 1_565 S
H394 C385 0.929 . S
H395 C388 0.930 . S
C396 C397 1.351 . S
C396 N399 1.368 . S
C396 H401 0.931 . S
C397 C396 1.351 . S
C397 N398 1.373 . S
C397 H425 0.930 . S
N398 C397 1.373 . S
N398 C400 1.340 . S
N399 C396 1.368 . S
N399 C400 1.321 . S
N399 Co402 2.135 . S
C400 N398 1.340 . S
C400 N399 1.321 . S
C400 H424 0.930 . S
H401 C396 0.931 . S
Co402 N399 2.135 . S
Co402 N405 2.121 . S
Co402 O410 2.055 . S
Co402 O413 2.039 . S
Co402 N416 2.140 . S
C403 O404 1.227 . S
C403 O413 1.265 . S
O404 C403 1.227 . S
N405 Co402 2.121 . S
N405 C407 1.375 . S
N405 C408 1.313 . S
C406 C407 1.338 . S
C406 N409 1.377 . S
C406 H426 0.930 1_655 S
C407 N405 1.375 . S
C407 C406 1.338 . S
C407 H411 0.931 . S
C408 N405 1.313 . S
C408 N409 1.344 . S
C408 H412 0.930 . S
N409 C406 1.377 . S
N409 C408 1.344 . S
O410 Co402 2.055 . S
O410 C414 1.253 . S
H411 C407 0.931 . S
H412 C408 0.930 . S
O413 Co402 2.039 . S
O413 C403 1.265 . S
C414 O410 1.253 . S
C414 O415 1.227 . S
O415 C414 1.227 . S
N416 Co402 2.140 . S
N416 C419 1.346 . S
N416 C420 1.345 . S
C417 C418 1.387 . S
C417 C421 1.391 . S
C418 C417 1.387 . S
C418 C419 1.369 . S
C418 H427 0.929 . S
C419 N416 1.346 . S
C419 C418 1.369 . S
C419 H422 0.928 . S
C420 N416 1.345 . S
C420 C421 1.371 . S
C420 H423 0.931 . S
C421 C417 1.391 . S
C421 C420 1.371 . S
C421 H428 0.930 . S
H422 C419 0.928 . S
H423 C420 0.931 . S
H424 C400 0.930 . S
H425 C397 0.930 . S
H426 C406 0.930 1_455 S
H427 C418 0.929 . S
H428 C421 0.930 . S
C429 C430 1.351 . S
C429 N432 1.368 . S
C429 H434 0.931 . S
C430 C429 1.351 . S
C430 N431 1.373 . S
C430 H458 0.930 . S
N431 C430 1.373 . S
N431 C433 1.340 . S
N432 C429 1.368 . S
N432 C433 1.321 . S
N432 Co435 2.135 . S
C433 N431 1.340 . S
C433 N432 1.321 . S
C433 H457 0.930 . S
H434 C429 0.931 . S
Co435 N432 2.135 . S
Co435 N438 2.121 . S
Co435 O443 2.055 . S
Co435 O446 2.039 . S
Co435 N449 2.140 . S
C436 O437 1.227 . S
C436 O446 1.265 . S
O437 C436 1.227 . S
N438 Co435 2.121 . S
N438 C440 1.375 . S
N438 C441 1.313 . S
C439 C440 1.338 . S
C439 N442 1.377 . S
C439 H459 0.930 1_565 S
C440 N438 1.375 . S
C440 C439 1.338 . S
C440 H444 0.931 . S
C441 N438 1.313 . S
C441 N442 1.344 . S
C441 H445 0.930 . S
N442 C439 1.377 . S
N442 C441 1.344 . S
O443 Co435 2.055 . S
O443 C447 1.253 . S
H444 C440 0.931 . S
H445 C441 0.930 . S
O446 Co435 2.039 . S
O446 C436 1.265 . S
C447 O443 1.253 . S
C447 O448 1.227 . S
O448 C447 1.227 . S
N449 Co435 2.140 . S
N449 C452 1.346 . S
N449 C453 1.345 . S
C450 C451 1.387 . S
C450 C454 1.391 . S
C451 C450 1.387 . S
C451 C452 1.369 . S
C451 H460 0.929 . S
C452 N449 1.346 . S
C452 C451 1.369 . S
C452 H455 0.928 . S
C453 N449 1.345 . S
C453 C454 1.371 . S
C453 H456 0.931 . S
C454 C450 1.391 . S
C454 C453 1.371 . S
C454 H461 0.930 . S
H455 C452 0.928 . S
H456 C453 0.931 . S
H457 C433 0.930 . S
H458 C430 0.930 . S
H459 C439 0.930 1_545 S
H460 C451 0.929 . S
H461 C454 0.930 . S
C462 C463 1.351 . S
C462 N465 1.368 . S
C462 H467 0.931 . S
C463 C462 1.351 . S
C463 N464 1.373 . S
C463 H491 0.930 . S
N464 C463 1.373 . S
N464 C466 1.340 . S
N465 C462 1.368 . S
N465 C466 1.321 . S
N465 Co468 2.135 . S
C466 N464 1.340 . S
C466 N465 1.321 . S
C466 H490 0.930 . S
H467 C462 0.931 . S
Co468 N465 2.135 . S
Co468 N471 2.121 . S
Co468 O476 2.055 . S
Co468 O479 2.039 . S
Co468 N482 2.140 . S
C469 O470 1.227 . S
C469 O479 1.265 . S
O470 C469 1.227 . S
N471 Co468 2.121 . S
N471 C473 1.375 . S
N471 C474 1.313 . S
C472 C473 1.338 . S
C472 N475 1.377 . S
C472 H492 0.930 1_455 S
C473 N471 1.375 . S
C473 C472 1.338 . S
C473 H477 0.931 . S
C474 N471 1.313 . S
C474 N475 1.344 . S
C474 H478 0.930 . S
N475 C472 1.377 . S
N475 C474 1.344 . S
O476 Co468 2.055 . S
O476 C480 1.253 . S
H477 C473 0.931 . S
H478 C474 0.930 . S
O479 Co468 2.039 . S
O479 C469 1.265 . S
C480 O476 1.253 . S
C480 O481 1.227 . S
O481 C480 1.227 . S
N482 Co468 2.140 . S
N482 C485 1.346 . S
N482 C486 1.345 . S
C483 C484 1.387 . S
C483 C487 1.391 . S
C484 C483 1.387 . S
C484 C485 1.369 . S
C484 H493 0.929 . S
C485 N482 1.346 . S
C485 C484 1.369 . S
C485 H488 0.928 . S
C486 N482 1.345 . S
C486 C487 1.371 . S
C486 H489 0.931 . S
C487 C483 1.391 . S
C487 C486 1.371 . S
C487 H494 0.930 . S
H488 C485 0.928 . S
H489 C486 0.931 . S
H490 C466 0.930 . S
H491 C463 0.930 . S
H492 C472 0.930 1_655 S
H493 C484 0.929 . S
H494 C487 0.930 . S
C495 C496 1.351 . S
C495 N498 1.368 . S
C495 H500 0.931 . S
C496 C495 1.351 . S
C496 N497 1.373 . S
C496 H524 0.930 . S
N497 C496 1.373 . S
N497 C499 1.340 . S
N498 C495 1.368 . S
N498 C499 1.321 . S
N498 Co501 2.135 . S
C499 N497 1.340 . S
C499 N498 1.321 . S
C499 H523 0.930 . S
H500 C495 0.931 . S
Co501 N498 2.135 . S
Co501 N504 2.121 . S
Co501 O509 2.055 . S
Co501 O512 2.039 . S
Co501 N515 2.140 . S
C502 O503 1.227 . S
C502 O512 1.265 . S
O503 C502 1.227 . S
N504 Co501 2.121 . S
N504 C506 1.375 . S
N504 C507 1.313 . S
C505 C506 1.338 . S
C505 N508 1.377 . S
C505 H525 0.930 1_545 S
C506 N504 1.375 . S
C506 C505 1.338 . S
C506 H510 0.931 . S
C507 N504 1.313 . S
C507 N508 1.344 . S
C507 H511 0.930 . S
N508 C505 1.377 . S
N508 C507 1.344 . S
O509 Co501 2.055 . S
O509 C513 1.253 . S
H510 C506 0.931 . S
H511 C507 0.930 . S
O512 Co501 2.039 . S
O512 C502 1.265 . S
C513 O509 1.253 . S
C513 O514 1.227 . S
O514 C513 1.227 . S
N515 Co501 2.140 . S
N515 C518 1.346 . S
N515 C519 1.345 . S
C516 C517 1.387 . S
C516 C520 1.391 . S
C517 C516 1.387 . S
C517 C518 1.369 . S
C517 H526 0.929 . S
C518 N515 1.346 . S
C518 C517 1.369 . S
C518 H521 0.928 . S
C519 N515 1.345 . S
C519 C520 1.371 . S
C519 H522 0.931 . S
C520 C516 1.391 . S
C520 C519 1.371 . S
C520 H527 0.930 . S
H521 C518 0.928 . S
H522 C519 0.931 . S
H523 C499 0.930 . S
H524 C496 0.930 . S
H525 C505 0.930 1_565 S
H526 C517 0.929 . S
H527 C520 0.930 . S
C528 C529 1.363 . S
C528 C534 1.379 1_655 S
C528 N536 1.356 . S
C529 C528 1.363 . S
C529 C535 1.363 . S
C530 C531 1.363 . S
C530 C535 1.379 1_455 S
C530 N537 1.356 . S
C531 C530 1.363 . S
C531 C534 1.363 . S
N532 C534 1.356 . S
N532 H544 0.984 . S
N532 H545 0.985 . S
N533 C535 1.356 . S
N533 H538 0.984 . S
N533 H539 0.985 . S
C534 C528 1.379 1_455 S
C534 C531 1.363 . S
C534 N532 1.356 . S
C535 C529 1.363 . S
C535 C530 1.379 1_655 S
C535 N533 1.356 . S
N536 C528 1.356 . S
N536 H542 0.984 . S
N536 H543 0.984 . S
N537 C530 1.356 . S
N537 H540 0.984 . S
N537 H541 0.985 . S
H538 N533 0.984 . S
H539 N533 0.985 . S
H540 N537 0.984 . S
H541 N537 0.985 . S
H542 N536 0.984 . S
H543 N536 0.984 . S
H544 N532 0.984 . S
H545 N532 0.985 . S
C546 C547 1.363 . S
C546 C552 1.379 1_545 S
C546 N554 1.356 . S
C547 C546 1.363 . S
C547 C553 1.363 . S
C548 C549 1.363 . S
C548 C553 1.379 1_565 S
C548 N555 1.356 . S
C549 C548 1.363 . S
C549 C552 1.363 . S
N550 C552 1.356 . S
N550 H562 0.984 . S
N550 H563 0.985 . S
N551 C553 1.356 . S
N551 H556 0.984 . S
N551 H557 0.985 . S
C552 C546 1.379 1_565 S
C552 C549 1.363 . S
C552 N550 1.356 . S
C553 C547 1.363 . S
C553 C548 1.379 1_545 S
C553 N551 1.356 . S
N554 C546 1.356 . S
N554 H560 0.984 . S
N554 H561 0.984 . S
N555 C548 1.356 . S
N555 H558 0.984 . S
N555 H559 0.985 . S
H556 N551 0.984 . S
H557 N551 0.985 . S
H558 N555 0.984 . S
H559 N555 0.985 . S
H560 N554 0.984 . S
H561 N554 0.984 . S
H562 N550 0.984 . S
H563 N550 0.985 . S
C564 C565 1.363 . S
C564 C570 1.379 1_655 S
C564 N572 1.356 . S
C565 C564 1.363 . S
C565 C571 1.363 . S
C566 C567 1.363 . S
C566 C571 1.379 1_455 S
C566 N573 1.356 . S
C567 C566 1.363 . S
C567 C570 1.363 . S
N568 C570 1.356 . S
N568 H580 0.984 . S
N568 H581 0.985 . S
N569 C571 1.356 . S
N569 H574 0.984 . S
N569 H575 0.985 . S
C570 C564 1.379 1_455 S
C570 C567 1.363 . S
C570 N568 1.356 . S
C571 C565 1.363 . S
C571 C566 1.379 1_655 S
C571 N569 1.356 . S
N572 C564 1.356 . S
N572 H578 0.984 . S
N572 H579 0.984 . S
N573 C566 1.356 . S
N573 H576 0.984 . S
N573 H577 0.985 . S
H574 N569 0.984 . S
H575 N569 0.985 . S
H576 N573 0.984 . S
H577 N573 0.985 . S
H578 N572 0.984 . S
H579 N572 0.984 . S
H580 N568 0.984 . S
H581 N568 0.985 . S
C582 C583 1.363 . S
C582 C588 1.379 1_565 S
C582 N590 1.356 . S
C583 C582 1.363 . S
C583 C589 1.363 . S
C584 C585 1.363 . S
C584 C589 1.379 1_545 S
C584 N591 1.356 . S
C585 C584 1.363 . S
C585 C588 1.363 . S
N586 C588 1.356 . S
N586 H598 0.984 . S
N586 H599 0.985 . S
N587 C589 1.356 . S
N587 H592 0.984 . S
N587 H593 0.985 . S
C588 C582 1.379 1_545 S
C588 C585 1.363 . S
C588 N586 1.356 . S
C589 C583 1.363 . S
C589 C584 1.379 1_565 S
C589 N587 1.356 . S
N590 C582 1.356 . S
N590 H596 0.984 . S
N590 H597 0.984 . S
N591 C584 1.356 . S
N591 H594 0.984 . S
N591 H595 0.985 . S
H592 N587 0.984 . S
H593 N587 0.985 . S
H594 N591 0.984 . S
H595 N591 0.985 . S
H596 N590 0.984 . S
H597 N590 0.984 . S
H598 N586 0.984 . S
H599 N586 0.985 . S
C600 C601 1.363 1_455 S
C600 C606 1.379 . S
C600 N608 1.356 . S
C601 C600 1.363 1_655 S
C601 C607 1.363 . S
C602 C603 1.363 1_655 S
C602 C607 1.379 . S
C602 N609 1.356 . S
C603 C602 1.363 1_455 S
C603 C606 1.363 . S
N604 C606 1.356 . S
N604 H616 0.984 . S
N604 H617 0.985 . S
N605 C607 1.356 . S
N605 H610 0.984 . S
N605 H611 0.985 . S
C606 C600 1.379 . S
C606 C603 1.363 . S
C606 N604 1.356 . S
C607 C601 1.363 . S
C607 C602 1.379 . S
C607 N605 1.356 . S
N608 C600 1.356 . S
N608 H614 0.984 . S
N608 H615 0.984 . S
N609 C602 1.356 . S
N609 H612 0.984 . S
N609 H613 0.985 . S
H610 N605 0.984 . S
H611 N605 0.985 . S
H612 N609 0.984 . S
H613 N609 0.985 . S
H614 N608 0.984 . S
H615 N608 0.984 . S
H616 N604 0.984 . S
H617 N604 0.985 . S
C618 C619 1.363 1_545 S
C618 C624 1.379 . S
C618 N626 1.356 . S
C619 C618 1.363 1_565 S
C619 C625 1.363 . S
C620 C621 1.363 1_565 S
C620 C625 1.379 . S
C620 N627 1.356 . S
C621 C620 1.363 1_545 S
C621 C624 1.363 . S
N622 C624 1.356 . S
N622 H634 0.984 . S
N622 H635 0.985 . S
N623 C625 1.356 . S
N623 H628 0.984 . S
N623 H629 0.985 . S
C624 C618 1.379 . S
C624 C621 1.363 . S
C624 N622 1.356 . S
C625 C619 1.363 . S
C625 C620 1.379 . S
C625 N623 1.356 . S
N626 C618 1.356 . S
N626 H632 0.984 . S
N626 H633 0.984 . S
N627 C620 1.356 . S
N627 H630 0.984 . S
N627 H631 0.985 . S
H628 N623 0.984 . S
H629 N623 0.985 . S
H630 N627 0.984 . S
H631 N627 0.985 . S
H632 N626 0.984 . S
H633 N626 0.984 . S
H634 N622 0.984 . S
H635 N622 0.985 . S
C636 C637 1.363 1_455 S
C636 C642 1.379 . S
C636 N644 1.356 . S
C637 C636 1.363 1_655 S
C637 C643 1.363 . S
C638 C639 1.363 1_655 S
C638 C643 1.379 . S
C638 N645 1.356 . S
C639 C638 1.363 1_455 S
C639 C642 1.363 . S
N640 C642 1.356 . S
N640 H652 0.984 . S
N640 H653 0.985 . S
N641 C643 1.356 . S
N641 H646 0.984 . S
N641 H647 0.985 . S
C642 C636 1.379 . S
C642 C639 1.363 . S
C642 N640 1.356 . S
C643 C637 1.363 . S
C643 C638 1.379 . S
C643 N641 1.356 . S
N644 C636 1.356 . S
N644 H650 0.984 . S
N644 H651 0.984 . S
N645 C638 1.356 . S
N645 H648 0.984 . S
N645 H649 0.985 . S
H646 N641 0.984 . S
H647 N641 0.985 . S
H648 N645 0.984 . S
H649 N645 0.985 . S
H650 N644 0.984 . S
H651 N644 0.984 . S
H652 N640 0.984 . S
H653 N640 0.985 . S
C654 C655 1.363 . S
C654 C660 1.379 . S
C654 N662 1.356 . S
C655 C654 1.363 . S
C655 C661 1.363 1_545 S
C656 C657 1.363 . S
C656 C661 1.379 . S
C656 N663 1.356 . S
C657 C656 1.363 . S
C657 C660 1.363 1_565 S
N658 C660 1.356 . S
N658 H670 0.984 . S
N658 H671 0.985 . S
N659 C661 1.356 . S
N659 H664 0.984 . S
N659 H665 0.985 . S
C660 C654 1.379 . S
C660 C657 1.363 1_545 S
C660 N658 1.356 . S
C661 C655 1.363 1_565 S
C661 C656 1.379 . S
C661 N659 1.356 . S
N662 C654 1.356 . S
N662 H668 0.984 . S
N662 H669 0.984 . S
N663 C656 1.356 . S
N663 H666 0.984 . S
N663 H667 0.985 . S
H664 N659 0.984 . S
H665 N659 0.985 . S
H666 N663 0.984 . S
H667 N663 0.985 . S
H668 N662 0.984 . S
H669 N662 0.984 . S
H670 N658 0.984 . S
H671 N658 0.985 . S
C672 C673 1.363 . S
C672 C678 1.379 . S
C672 N680 1.356 . S
C673 C672 1.363 . S
C673 C679 1.363 . S
C674 C675 1.363 . S
C674 C679 1.379 . S
C674 N681 1.356 . S
C675 C674 1.363 . S
C675 C678 1.363 . S
N676 C678 1.356 . S
N676 H688 0.984 . S
N676 H689 0.985 . S
N677 C679 1.356 . S
N677 H682 0.984 . S
N677 H683 0.985 . S
C678 C672 1.379 . S
C678 C675 1.363 . S
C678 N676 1.356 . S
C679 C673 1.363 . S
C679 C674 1.379 . S
C679 N677 1.356 . S
N680 C672 1.356 . S
N680 H686 0.984 . S
N680 H687 0.984 . S
N681 C674 1.356 . S
N681 H684 0.984 . S
N681 H685 0.985 . S
H682 N677 0.984 . S
H683 N677 0.985 . S
H684 N681 0.984 . S
H685 N681 0.985 . S
H686 N680 0.984 . S
H687 N680 0.984 . S
H688 N676 0.984 . S
H689 N676 0.985 . S
C690 C691 1.363 . S
C690 C696 1.379 . S
C690 N698 1.356 . S
C691 C690 1.363 . S
C691 C697 1.363 . S
C692 C693 1.363 . S
C692 C697 1.379 . S
C692 N699 1.356 . S
C693 C692 1.363 . S
C693 C696 1.363 . S
N694 C696 1.356 . S
N694 H706 0.984 . S
N694 H707 0.985 . S
N695 C697 1.356 . S
N695 H700 0.984 . S
N695 H701 0.985 . S
C696 C690 1.379 . S
C696 C693 1.363 . S
C696 N694 1.356 . S
C697 C691 1.363 . S
C697 C692 1.379 . S
C697 N695 1.356 . S
N698 C690 1.356 . S
N698 H704 0.984 . S
N698 H705 0.984 . S
N699 C692 1.356 . S
N699 H702 0.984 . S
N699 H703 0.985 . S
H700 N695 0.984 . S
H701 N695 0.985 . S
H702 N699 0.984 . S
H703 N699 0.985 . S
H704 N698 0.984 . S
H705 N698 0.984 . S
H706 N694 0.984 . S
H707 N694 0.985 . S
C708 C709 1.363 . S
C708 C714 1.379 . S
C708 N716 1.356 . S
C709 C708 1.363 . S
C709 C715 1.363 . S
C710 C711 1.363 . S
C710 C715 1.379 . S
C710 N717 1.356 . S
C711 C710 1.363 . S
C711 C714 1.363 . S
N712 C714 1.356 . S
N712 H724 0.984 . S
N712 H725 0.985 . S
N713 C715 1.356 . S
N713 H718 0.984 . S
N713 H719 0.985 . S
C714 C708 1.379 . S
C714 C711 1.363 . S
C714 N712 1.356 . S
C715 C709 1.363 . S
C715 C710 1.379 . S
C715 N713 1.356 . S
N716 C708 1.356 . S
N716 H722 0.984 . S
N716 H723 0.984 . S
N717 C710 1.356 . S
N717 H720 0.984 . S
N717 H721 0.985 . S
H718 N713 0.984 . S
H719 N713 0.985 . S
H720 N717 0.984 . S
H721 N717 0.985 . S
H722 N716 0.984 . S
H723 N716 0.984 . S
H724 N712 0.984 . S
H725 N712 0.985 . S
C726 C727 1.363 . S
C726 C732 1.379 . S
C726 N734 1.356 . S
C727 C726 1.363 . S
C727 C733 1.363 . S
C728 C729 1.363 . S
C728 C733 1.379 . S
C728 N735 1.356 . S
C729 C728 1.363 . S
C729 C732 1.363 . S
N730 C732 1.356 . S
N730 H742 0.984 . S
N730 H743 0.985 . S
N731 C733 1.356 . S
N731 H736 0.984 . S
N731 H737 0.985 . S
C732 C726 1.379 . S
C732 C729 1.363 . S
C732 N730 1.356 . S
C733 C727 1.363 . S
C733 C728 1.379 . S
C733 N731 1.356 . S
N734 C726 1.356 . S
N734 H740 0.984 . S
N734 H741 0.984 . S
N735 C728 1.356 . S
N735 H738 0.984 . S
N735 H739 0.985 . S
H736 N731 0.984 . S
H737 N731 0.985 . S
H738 N735 0.984 . S
H739 N735 0.985 . S
H740 N734 0.984 . S
H741 N734 0.984 . S
H742 N730 0.984 . S
H743 N730 0.985 . S
C744 C745 1.363 . S
C744 C750 1.379 . S
C744 N752 1.356 . S
C745 C744 1.363 . S
C745 C751 1.363 . S
C746 C747 1.363 . S
C746 C751 1.379 . S
C746 N753 1.356 . S
C747 C746 1.363 . S
C747 C750 1.363 . S
N748 C750 1.356 . S
N748 H760 0.984 . S
N748 H761 0.985 . S
N749 C751 1.356 . S
N749 H754 0.984 . S
N749 H755 0.985 . S
C750 C744 1.379 . S
C750 C747 1.363 . S
C750 N748 1.356 . S
C751 C745 1.363 . S
C751 C746 1.379 . S
C751 N749 1.356 . S
N752 C744 1.356 . S
N752 H758 0.984 . S
N752 H759 0.984 . S
N753 C746 1.356 . S
N753 H756 0.984 . S
N753 H757 0.985 . S
H754 N749 0.984 . S
H755 N749 0.985 . S
H756 N753 0.984 . S
H757 N753 0.985 . S
H758 N752 0.984 . S
H759 N752 0.984 . S
H760 N748 0.984 . S
H761 N748 0.985 . S
C762 C763 1.363 . S
C762 C768 1.379 . S
C762 N770 1.356 . S
C763 C762 1.363 . S
C763 C769 1.363 . S
C764 C765 1.363 . S
C764 C769 1.379 . S
C764 N771 1.356 . S
C765 C764 1.363 . S
C765 C768 1.363 . S
N766 C768 1.356 . S
N766 H778 0.984 . S
N766 H779 0.985 . S
N767 C769 1.356 . S
N767 H772 0.984 . S
N767 H773 0.985 . S
C768 C762 1.379 . S
C768 C765 1.363 . S
C768 N766 1.356 . S
C769 C763 1.363 . S
C769 C764 1.379 . S
C769 N767 1.356 . S
N770 C762 1.356 . S
N770 H776 0.984 . S
N770 H777 0.984 . S
N771 C764 1.356 . S
N771 H774 0.984 . S
N771 H775 0.985 . S
H772 N767 0.984 . S
H773 N767 0.985 . S
H774 N771 0.984 . S
H775 N771 0.985 . S
H776 N770 0.984 . S
H777 N770 0.984 . S
H778 N766 0.984 . S
H779 N766 0.985 . S
C780 C781 1.363 . S
C780 C786 1.379 . S
C780 N788 1.356 . S
C781 C780 1.363 . S
C781 C787 1.363 . S
C782 C783 1.363 . S
C782 C787 1.379 . S
C782 N789 1.356 . S
C783 C782 1.363 . S
C783 C786 1.363 . S
N784 C786 1.356 . S
N784 H796 0.984 . S
N784 H797 0.985 . S
N785 C787 1.356 . S
N785 H790 0.984 . S
N785 H791 0.985 . S
C786 C780 1.379 . S
C786 C783 1.363 . S
C786 N784 1.356 . S
C787 C781 1.363 . S
C787 C782 1.379 . S
C787 N785 1.356 . S
N788 C780 1.356 . S
N788 H794 0.984 . S
N788 H795 0.984 . S
N789 C782 1.356 . S
N789 H792 0.984 . S
N789 H793 0.985 . S
H790 N785 0.984 . S
H791 N785 0.985 . S
H792 N789 0.984 . S
H793 N789 0.985 . S
H794 N788 0.984 . S
H795 N788 0.984 . S
H796 N784 0.984 . S
H797 N784 0.985 . S
C798 C799 1.363 . S
C798 C804 1.379 . S
C798 N806 1.356 . S
C799 C798 1.363 . S
C799 C805 1.363 . S
C800 C801 1.363 . S
C800 C805 1.379 . S
C800 N807 1.356 . S
C801 C800 1.363 . S
C801 C804 1.363 . S
N802 C804 1.356 . S
N802 H814 0.984 . S
N802 H815 0.985 . S
N803 C805 1.356 . S
N803 H808 0.984 . S
N803 H809 0.985 . S
C804 C798 1.379 . S
C804 C801 1.363 . S
C804 N802 1.356 . S
C805 C799 1.363 . S
C805 C800 1.379 . S
C805 N803 1.356 . S
N806 C798 1.356 . S
N806 H812 0.984 . S
N806 H813 0.984 . S
N807 C800 1.356 . S
N807 H810 0.984 . S
N807 H811 0.985 . S
H808 N803 0.984 . S
H809 N803 0.985 . S
H810 N807 0.984 . S
H811 N807 0.985 . S
H812 N806 0.984 . S
H813 N806 0.984 . S
H814 N802 0.984 . S
H815 N802 0.985 . S
C816 C817 1.363 . S
C816 C822 1.379 1_554 S
C816 N824 1.356 . S
C817 C816 1.363 . S
C817 C823 1.363 . S
C818 C819 1.363 . S
C818 C823 1.379 1_556 S
C818 N825 1.356 . S
C819 C818 1.363 . S
C819 C822 1.363 . S
N820 C822 1.356 . S
N820 H832 0.984 . S
N820 H833 0.985 . S
N821 C823 1.356 . S
N821 H826 0.984 . S
N821 H827 0.985 . S
C822 C816 1.379 1_556 S
C822 C819 1.363 . S
C822 N820 1.356 . S
C823 C817 1.363 . S
C823 C818 1.379 1_554 S
C823 N821 1.356 . S
N824 C816 1.356 . S
N824 H830 0.984 . S
N824 H831 0.984 . S
N825 C818 1.356 . S
N825 H828 0.984 . S
N825 H829 0.985 . S
H826 N821 0.984 . S
H827 N821 0.985 . S
H828 N825 0.984 . S
H829 N825 0.985 . S
H830 N824 0.984 . S
H831 N824 0.984 . S
H832 N820 0.984 . S
H833 N820 0.985 . S
C834 C835 1.363 . S
C834 C840 1.379 1_556 S
C834 N842 1.356 . S
C835 C834 1.363 . S
C835 C841 1.363 . S
C836 C837 1.363 . S
C836 C841 1.379 1_554 S
C836 N843 1.356 . S
C837 C836 1.363 . S
C837 C840 1.363 . S
N838 C840 1.356 . S
N838 H850 0.984 . S
N838 H851 0.985 . S
N839 C841 1.356 . S
N839 H844 0.984 . S
N839 H845 0.985 . S
C840 C834 1.379 1_554 S
C840 C837 1.363 . S
C840 N838 1.356 . S
C841 C835 1.363 . S
C841 C836 1.379 1_556 S
C841 N839 1.356 . S
N842 C834 1.356 . S
N842 H848 0.984 . S
N842 H849 0.984 . S
N843 C836 1.356 . S
N843 H846 0.984 . S
N843 H847 0.985 . S
H844 N839 0.984 . S
H845 N839 0.985 . S
H846 N843 0.984 . S
H847 N843 0.985 . S
H848 N842 0.984 . S
H849 N842 0.984 . S
H850 N838 0.984 . S
H851 N838 0.985 . S
C852 C853 1.363 . S
C852 C858 1.379 1_556 S
C852 N860 1.356 . S
C853 C852 1.363 . S
C853 C859 1.363 . S
C854 C855 1.363 . S
C854 C859 1.379 1_554 S
C854 N861 1.356 . S
C855 C854 1.363 . S
C855 C858 1.363 . S
N856 C858 1.356 . S
N856 H868 0.984 . S
N856 H869 0.985 . S
N857 C859 1.356 . S
N857 H862 0.984 . S
N857 H863 0.985 . S
C858 C852 1.379 1_554 S
C858 C855 1.363 . S
C858 N856 1.356 . S
C859 C853 1.363 . S
C859 C854 1.379 1_556 S
C859 N857 1.356 . S
N860 C852 1.356 . S
N860 H866 0.984 . S
N860 H867 0.984 . S
N861 C854 1.356 . S
N861 H864 0.984 . S
N861 H865 0.985 . S
H862 N857 0.984 . S
H863 N857 0.985 . S
H864 N861 0.984 . S
H865 N861 0.985 . S
H866 N860 0.984 . S
H867 N860 0.984 . S
H868 N856 0.984 . S
H869 N856 0.985 . S
C870 C871 1.363 . S
C870 C876 1.379 1_556 S
C870 N878 1.356 . S
C871 C870 1.363 . S
C871 C877 1.363 . S
C872 C873 1.363 . S
C872 C877 1.379 1_554 S
C872 N879 1.356 . S
C873 C872 1.363 . S
C873 C876 1.363 . S
N874 C876 1.356 . S
N874 H886 0.984 . S
N874 H887 0.985 . S
N875 C877 1.356 . S
N875 H880 0.984 . S
N875 H881 0.985 . S
C876 C870 1.379 1_554 S
C876 C873 1.363 . S
C876 N874 1.356 . S
C877 C871 1.363 . S
C877 C872 1.379 1_556 S
C877 N875 1.356 . S
N878 C870 1.356 . S
N878 H884 0.984 . S
N878 H885 0.984 . S
N879 C872 1.356 . S
N879 H882 0.984 . S
N879 H883 0.985 . S
H880 N875 0.984 . S
H881 N875 0.985 . S
H882 N879 0.984 . S
H883 N879 0.985 . S
H884 N878 0.984 . S
H885 N878 0.984 . S
H886 N874 0.984 . S
H887 N874 0.985 . S
C888 C889 1.363 . S
C888 C894 1.379 . S
C888 N896 1.356 . S
C889 C888 1.363 . S
C889 C895 1.363 . S
C890 C891 1.363 . S
C890 C895 1.379 . S
C890 N897 1.356 . S
C891 C890 1.363 . S
C891 C894 1.363 . S
N892 C894 1.356 . S
N892 H904 0.984 . S
N892 H905 0.985 . S
N893 C895 1.356 . S
N893 H898 0.984 . S
N893 H899 0.985 . S
C894 C888 1.379 . S
C894 C891 1.363 . S
C894 N892 1.356 . S
C895 C889 1.363 . S
C895 C890 1.379 . S
C895 N893 1.356 . S
N896 C888 1.356 . S
N896 H902 0.984 . S
N896 H903 0.984 . S
N897 C890 1.356 . S
N897 H900 0.984 . S
N897 H901 0.985 . S
H898 N893 0.984 . S
H899 N893 0.985 . S
H900 N897 0.984 . S
H901 N897 0.985 . S
H902 N896 0.984 . S
H903 N896 0.984 . S
H904 N892 0.984 . S
H905 N892 0.985 . S
C906 C907 1.363 . S
C906 C912 1.379 . S
C906 N914 1.356 . S
C907 C906 1.363 . S
C907 C913 1.363 . S
C908 C909 1.363 . S
C908 C913 1.379 . S
C908 N915 1.356 . S
C909 C908 1.363 . S
C909 C912 1.363 . S
N910 C912 1.356 . S
N910 H922 0.984 . S
N910 H923 0.985 . S
N911 C913 1.356 . S
N911 H916 0.984 . S
N911 H917 0.985 . S
C912 C906 1.379 . S
C912 C909 1.363 . S
C912 N910 1.356 . S
C913 C907 1.363 . S
C913 C908 1.379 . S
C913 N911 1.356 . S
N914 C906 1.356 . S
N914 H920 0.984 . S
N914 H921 0.984 . S
N915 C908 1.356 . S
N915 H918 0.984 . S
N915 H919 0.985 . S
H916 N911 0.984 . S
H917 N911 0.985 . S
H918 N915 0.984 . S
H919 N915 0.985 . S
H920 N914 0.984 . S
H921 N914 0.984 . S
H922 N910 0.984 . S
H923 N910 0.985 . S
C924 C925 1.363 . S
C924 C930 1.379 . S
C924 N932 1.356 . S
C925 C924 1.363 . S
C925 C931 1.363 . S
C926 C927 1.363 . S
C926 C931 1.379 . S
C926 N933 1.356 . S
C927 C926 1.363 . S
C927 C930 1.363 . S
N928 C930 1.356 . S
N928 H940 0.984 . S
N928 H941 0.985 . S
N929 C931 1.356 . S
N929 H934 0.984 . S
N929 H935 0.985 . S
C930 C924 1.379 . S
C930 C927 1.363 . S
C930 N928 1.356 . S
C931 C925 1.363 . S
C931 C926 1.379 . S
C931 N929 1.356 . S
N932 C924 1.356 . S
N932 H938 0.984 . S
N932 H939 0.984 . S
N933 C926 1.356 . S
N933 H936 0.984 . S
N933 H937 0.985 . S
H934 N929 0.984 . S
H935 N929 0.985 . S
H936 N933 0.984 . S
H937 N933 0.985 . S
H938 N932 0.984 . S
H939 N932 0.984 . S
H940 N928 0.984 . S
H941 N928 0.985 . S
C942 C943 1.363 . S
C942 C948 1.379 . S
C942 N950 1.356 . S
C943 C942 1.363 . S
C943 C949 1.363 . S
C944 C945 1.363 . S
C944 C949 1.379 . S
C944 N951 1.356 . S
C945 C944 1.363 . S
C945 C948 1.363 . S
N946 C948 1.356 . S
N946 H958 0.984 . S
N946 H959 0.985 . S
N947 C949 1.356 . S
N947 H952 0.984 . S
N947 H953 0.985 . S
C948 C942 1.379 . S
C948 C945 1.363 . S
C948 N946 1.356 . S
C949 C943 1.363 . S
C949 C944 1.379 . S
C949 N947 1.356 . S
N950 C942 1.356 . S
N950 H956 0.984 . S
N950 H957 0.984 . S
N951 C944 1.356 . S
N951 H954 0.984 . S
N951 H955 0.985 . S
H952 N947 0.984 . S
H953 N947 0.985 . S
H954 N951 0.984 . S
H955 N951 0.985 . S
H956 N950 0.984 . S
H957 N950 0.984 . S
H958 N946 0.984 . S
H959 N946 0.985 . S
C960 C961 1.363 . S
C960 C966 1.379 . S
C960 N968 1.356 . S
C961 C960 1.363 . S
C961 C967 1.363 . S
C962 C963 1.363 . S
C962 C967 1.379 . S
C962 N969 1.356 . S
C963 C962 1.363 . S
C963 C966 1.363 . S
N964 C966 1.356 . S
N964 H976 0.984 . S
N964 H977 0.985 . S
N965 C967 1.356 . S
N965 H970 0.984 . S
N965 H971 0.985 . S
C966 C960 1.379 . S
C966 C963 1.363 . S
C966 N964 1.356 . S
C967 C961 1.363 . S
C967 C962 1.379 . S
C967 N965 1.356 . S
N968 C960 1.356 . S
N968 H974 0.984 . S
N968 H975 0.984 . S
N969 C962 1.356 . S
N969 H972 0.984 . S
N969 H973 0.985 . S
H970 N965 0.984 . S
H971 N965 0.985 . S
H972 N969 0.984 . S
H973 N969 0.985 . S
H974 N968 0.984 . S
H975 N968 0.984 . S
H976 N964 0.984 . S
H977 N964 0.985 . S
C978 C979 1.363 . S
C978 C984 1.379 . S
C978 N986 1.356 . S
C979 C978 1.363 . S
C979 C985 1.363 . S
C980 C981 1.363 . S
C980 C985 1.379 . S
C980 N987 1.356 . S
C981 C980 1.363 . S
C981 C984 1.363 . S
N982 C984 1.356 . S
N982 H994 0.984 . S
N982 H995 0.985 . S
N983 C985 1.356 . S
N983 H988 0.984 . S
N983 H989 0.985 . S
C984 C978 1.379 . S
C984 C981 1.363 . S
C984 N982 1.356 . S
C985 C979 1.363 . S
C985 C980 1.379 . S
C985 N983 1.356 . S
N986 C978 1.356 . S
N986 H992 0.984 . S
N986 H993 0.984 . S
N987 C980 1.356 . S
N987 H990 0.984 . S
N987 H991 0.985 . S
H988 N983 0.984 . S
H989 N983 0.985 . S
H990 N987 0.984 . S
H991 N987 0.985 . S
H992 N986 0.984 . S
H993 N986 0.984 . S
H994 N982 0.984 . S
H995 N982 0.985 . S
C996 C997 1.363 . S
C996 C1002 1.379 . S
C996 N1004 1.356 . S
C997 C996 1.363 . S
C997 C1003 1.363 . S
C998 C999 1.363 . S
C998 C1003 1.379 . S
C998 N1005 1.356 . S
C999 C998 1.363 . S
C999 C1002 1.363 . S
N1000 C1002 1.356 . S
N1000 H1012 0.984 . S
N1000 H1013 0.985 . S
N1001 C1003 1.356 . S
N1001 H1006 0.984 . S
N1001 H1007 0.985 . S
C1002 C996 1.379 . S
C1002 C999 1.363 . S
C1002 N1000 1.356 . S
C1003 C997 1.363 . S
C1003 C998 1.379 . S
C1003 N1001 1.356 . S
N1004 C996 1.356 . S
N1004 H1010 0.984 . S
N1004 H1011 0.984 . S
N1005 C998 1.356 . S
N1005 H1008 0.984 . S
N1005 H1009 0.985 . S
H1006 N1001 0.984 . S
H1007 N1001 0.985 . S
H1008 N1005 0.984 . S
H1009 N1005 0.985 . S
H1010 N1004 0.984 . S
H1011 N1004 0.984 . S
H1012 N1000 0.984 . S
H1013 N1000 0.985 . S
C1014 C1015 1.363 . S
C1014 C1020 1.379 . S
C1014 N1022 1.356 . S
C1015 C1014 1.363 . S
C1015 C1021 1.363 . S
C1016 C1017 1.363 . S
C1016 C1021 1.379 . S
C1016 N1023 1.356 . S
C1017 C1016 1.363 . S
C1017 C1020 1.363 . S
N1018 C1020 1.356 . S
N1018 H1030 0.984 . S
N1018 H1031 0.985 . S
N1019 C1021 1.356 . S
N1019 H1024 0.984 . S
N1019 H1025 0.985 . S
C1020 C1014 1.379 . S
C1020 C1017 1.363 . S
C1020 N1018 1.356 . S
C1021 C1015 1.363 . S
C1021 C1016 1.379 . S
C1021 N1019 1.356 . S
N1022 C1014 1.356 . S
N1022 H1028 0.984 . S
N1022 H1029 0.984 . S
N1023 C1016 1.356 . S
N1023 H1026 0.984 . S
N1023 H1027 0.985 . S
H1024 N1019 0.984 . S
H1025 N1019 0.985 . S
H1026 N1023 0.984 . S
H1027 N1023 0.985 . S
H1028 N1022 0.984 . S
H1029 N1022 0.984 . S
H1030 N1018 0.984 . S
H1031 N1018 0.985 . S
C1032 C1033 1.363 . S
C1032 C1038 1.379 . S
C1032 N1040 1.356 . S
C1033 C1032 1.363 . S
C1033 C1039 1.363 . S
C1034 C1035 1.363 . S
C1034 C1039 1.379 . S
C1034 N1041 1.356 . S
C1035 C1034 1.363 . S
C1035 C1038 1.363 . S
N1036 C1038 1.356 . S
N1036 H1048 0.984 . S
N1036 H1049 0.985 . S
N1037 C1039 1.356 . S
N1037 H1042 0.984 . S
N1037 H1043 0.985 . S
C1038 C1032 1.379 . S
C1038 C1035 1.363 . S
C1038 N1036 1.356 . S
C1039 C1033 1.363 . S
C1039 C1034 1.379 . S
C1039 N1037 1.356 . S
N1040 C1032 1.356 . S
N1040 H1046 0.984 . S
N1040 H1047 0.984 . S
N1041 C1034 1.356 . S
N1041 H1044 0.984 . S
N1041 H1045 0.985 . S
H1042 N1037 0.984 . S
H1043 N1037 0.985 . S
H1044 N1041 0.984 . S
H1045 N1041 0.985 . S
H1046 N1040 0.984 . S
H1047 N1040 0.984 . S
H1048 N1036 0.984 . S
H1049 N1036 0.985 . S
C1050 C1051 1.363 . S
C1050 C1056 1.379 . S
C1050 N1058 1.356 . S
C1051 C1050 1.363 . S
C1051 C1057 1.363 . S
C1052 C1053 1.363 . S
C1052 C1057 1.379 . S
C1052 N1059 1.356 . S
C1053 C1052 1.363 . S
C1053 C1056 1.363 . S
N1054 C1056 1.356 . S
N1054 H1066 0.984 . S
N1054 H1067 0.985 . S
N1055 C1057 1.356 . S
N1055 H1060 0.984 . S
N1055 H1061 0.985 . S
C1056 C1050 1.379 . S
C1056 C1053 1.363 . S
C1056 N1054 1.356 . S
C1057 C1051 1.363 . S
C1057 C1052 1.379 . S
C1057 N1055 1.356 . S
N1058 C1050 1.356 . S
N1058 H1064 0.984 . S
N1058 H1065 0.984 . S
N1059 C1052 1.356 . S
N1059 H1062 0.984 . S
N1059 H1063 0.985 . S
H1060 N1055 0.984 . S
H1061 N1055 0.985 . S
H1062 N1059 0.984 . S
H1063 N1059 0.985 . S
H1064 N1058 0.984 . S
H1065 N1058 0.984 . S
H1066 N1054 0.984 . S
H1067 N1054 0.985 . S
C1068 C1069 1.363 . S
C1068 C1074 1.379 . S
C1068 N1076 1.356 . S
C1069 C1068 1.363 . S
C1069 C1075 1.363 . S
C1070 C1071 1.363 . S
C1070 C1075 1.379 . S
C1070 N1077 1.356 . S
C1071 C1070 1.363 . S
C1071 C1074 1.363 . S
N1072 C1074 1.356 . S
N1072 H1084 0.984 . S
N1072 H1085 0.985 . S
N1073 C1075 1.356 . S
N1073 H1078 0.984 . S
N1073 H1079 0.985 . S
C1074 C1068 1.379 . S
C1074 C1071 1.363 . S
C1074 N1072 1.356 . S
C1075 C1069 1.363 . S
C1075 C1070 1.379 . S
C1075 N1073 1.356 . S
N1076 C1068 1.356 . S
N1076 H1082 0.984 . S
N1076 H1083 0.984 . S
N1077 C1070 1.356 . S
N1077 H1080 0.984 . S
N1077 H1081 0.985 . S
H1078 N1073 0.984 . S
H1079 N1073 0.985 . S
H1080 N1077 0.984 . S
H1081 N1077 0.985 . S
H1082 N1076 0.984 . S
H1083 N1076 0.984 . S
H1084 N1072 0.984 . S
H1085 N1072 0.985 . S
C1086 C1087 1.363 . S
C1086 C1092 1.379 . S
C1086 N1094 1.356 . S
C1087 C1086 1.363 . S
C1087 C1093 1.363 . S
C1088 C1089 1.363 . S
C1088 C1093 1.379 . S
C1088 N1095 1.356 . S
C1089 C1088 1.363 . S
C1089 C1092 1.363 . S
N1090 C1092 1.356 . S
N1090 H1102 0.984 . S
N1090 H1103 0.985 . S
N1091 C1093 1.356 . S
N1091 H1096 0.984 . S
N1091 H1097 0.985 . S
C1092 C1086 1.379 . S
C1092 C1089 1.363 . S
C1092 N1090 1.356 . S
C1093 C1087 1.363 . S
C1093 C1088 1.379 . S
C1093 N1091 1.356 . S
N1094 C1086 1.356 . S
N1094 H1100 0.984 . S
N1094 H1101 0.984 . S
N1095 C1088 1.356 . S
N1095 H1098 0.984 . S
N1095 H1099 0.985 . S
H1096 N1091 0.984 . S
H1097 N1091 0.985 . S
H1098 N1095 0.984 . S
H1099 N1095 0.985 . S
H1100 N1094 0.984 . S
H1101 N1094 0.984 . S
H1102 N1090 0.984 . S
H1103 N1090 0.985 . S
C1104 C1105 1.363 . S
C1104 C1110 1.379 . S
C1104 N1112 1.356 . S
C1105 C1104 1.363 . S
C1105 C1111 1.363 1_545 S
C1106 C1107 1.363 . S
C1106 C1111 1.379 . S
C1106 N1113 1.356 . S
C1107 C1106 1.363 . S
C1107 C1110 1.363 1_565 S
N1108 C1110 1.356 . S
N1108 H1120 0.984 . S
N1108 H1121 0.985 1_545 S
N1109 C1111 1.356 . S
N1109 H1114 0.984 1_565 S
N1109 H1115 0.985 . S
C1110 C1104 1.379 . S
C1110 C1107 1.363 1_545 S
C1110 N1108 1.356 . S
C1111 C1105 1.363 1_565 S
C1111 C1106 1.379 . S
C1111 N1109 1.356 . S
N1112 C1104 1.356 . S
N1112 H1118 0.984 . S
N1112 H1119 0.984 . S
N1113 C1106 1.356 . S
N1113 H1116 0.984 . S
N1113 H1117 0.985 . S
H1114 N1109 0.984 1_545 S
H1115 N1109 0.985 . S
H1116 N1113 0.984 . S
H1117 N1113 0.985 . S
H1118 N1112 0.984 . S
H1119 N1112 0.984 . S
H1120 N1108 0.984 . S
H1121 N1108 0.985 1_565 S
C1122 C1123 1.356 1_455 S
C1122 C1128 1.385 . S
C1122 N1130 1.354 1_455 S
C1123 C1122 1.356 1_655 S
C1123 C1129 1.363 . S
C1124 C1125 1.356 1_655 S
C1124 C1129 1.385 . S
C1124 N1131 1.354 1_655 S
C1125 C1124 1.356 1_455 S
C1125 C1128 1.363 . S
N1126 C1128 1.356 . S
N1126 H1138 0.984 . S
N1126 H1139 0.985 . S
N1127 C1129 1.356 . S
N1127 H1132 0.984 . S
N1127 H1133 0.985 . S
C1128 C1122 1.385 . S
C1128 C1125 1.363 . S
C1128 N1126 1.356 . S
C1129 C1123 1.363 . S
C1129 C1124 1.385 . S
C1129 N1127 1.356 . S
N1130 C1122 1.354 1_655 S
N1130 H1136 0.984 1_655 S
N1130 H1137 0.984 . S
N1131 C1124 1.354 1_455 S
N1131 H1134 0.984 . S
N1131 H1135 0.985 1_455 S
H1132 N1127 0.984 . S
H1133 N1127 0.985 . S
H1134 N1131 0.984 . S
H1135 N1131 0.985 1_655 S
H1136 N1130 0.984 1_455 S
H1137 N1130 0.984 . S
H1138 N1126 0.984 . S
H1139 N1126 0.985 . S
C1140 C1141 1.363 . S
C1140 C1146 1.379 . S
C1140 N1148 1.356 . S
C1141 C1140 1.363 . S
C1141 C1147 1.363 1_545 S
C1142 C1143 1.363 . S
C1142 C1147 1.379 . S
C1142 N1149 1.356 . S
C1143 C1142 1.363 . S
C1143 C1146 1.363 1_565 S
N1144 C1146 1.356 . S
N1144 H1156 0.984 . S
N1144 H1157 0.985 1_545 S
N1145 C1147 1.356 . S
N1145 H1150 0.984 1_565 S
N1145 H1151 0.985 . S
C1146 C1140 1.379 . S
C1146 C1143 1.363 1_545 S
C1146 N1144 1.356 . S
C1147 C1141 1.363 1_565 S
C1147 C1142 1.379 . S
C1147 N1145 1.356 . S
N1148 C1140 1.356 . S
N1148 H1154 0.984 . S
N1148 H1155 0.984 . S
N1149 C1142 1.356 . S
N1149 H1152 0.984 . S
N1149 H1153 0.985 . S
H1150 N1145 0.984 1_545 S
H1151 N1145 0.985 . S
H1152 N1149 0.984 . S
H1153 N1149 0.985 . S
H1154 N1148 0.984 . S
H1155 N1148 0.984 . S
H1156 N1144 0.984 . S
H1157 N1144 0.985 1_565 S
C1158 C1159 1.356 1_455 S
C1158 C1164 1.385 . S
C1158 N1166 1.354 1_455 S
C1159 C1158 1.356 1_655 S
C1159 C1165 1.363 . S
C1160 C1161 1.356 1_655 S
C1160 C1165 1.385 . S
C1160 N1167 1.354 1_655 S
C1161 C1160 1.356 1_455 S
C1161 C1164 1.363 . S
N1162 C1164 1.356 . S
N1162 H1174 0.984 . S
N1162 H1175 0.985 . S
N1163 C1165 1.356 . S
N1163 H1168 0.984 . S
N1163 H1169 0.985 . S
C1164 C1158 1.385 . S
C1164 C1161 1.363 . S
C1164 N1162 1.356 . S
C1165 C1159 1.363 . S
C1165 C1160 1.385 . S
C1165 N1163 1.356 . S
N1166 C1158 1.354 1_655 S
N1166 H1172 0.984 1_655 S
N1166 H1173 0.984 . S
N1167 C1160 1.354 1_455 S
N1167 H1170 0.984 . S
N1167 H1171 0.985 1_455 S
H1168 N1163 0.984 . S
H1169 N1163 0.985 . S
H1170 N1167 0.984 . S
H1171 N1167 0.985 1_655 S
H1172 N1166 0.984 1_455 S
H1173 N1166 0.984 . S
H1174 N1162 0.984 . S
H1175 N1162 0.985 . S
C1176 C1177 1.363 . S
C1176 C1182 1.404 . S
C1176 N1184 1.356 . S
C1177 C1176 1.363 . S
C1177 C1183 1.337 1_565 S
C1178 C1179 1.363 . S
C1178 C1183 1.404 . S
C1178 N1185 1.356 . S
C1179 C1178 1.363 . S
C1179 C1182 1.337 1_545 S
N1180 C1182 1.349 1_545 S
N1180 H1192 0.984 1_545 S
N1180 H1193 0.985 . S
N1181 C1183 1.349 1_565 S
N1181 H1186 0.984 . S
N1181 H1187 0.985 1_565 S
C1182 C1176 1.404 . S
C1182 C1179 1.337 1_565 S
C1182 N1180 1.349 1_565 S
C1183 C1177 1.337 1_545 S
C1183 C1178 1.404 . S
C1183 N1181 1.349 1_545 S
N1184 C1176 1.356 . S
N1184 H1190 0.984 . S
N1184 H1191 0.984 . S
N1185 C1178 1.356 . S
N1185 H1188 0.984 . S
N1185 H1189 0.985 . S
H1186 N1181 0.984 . S
H1187 N1181 0.985 1_545 S
H1188 N1185 0.984 . S
H1189 N1185 0.985 . S
H1190 N1184 0.984 . S
H1191 N1184 0.984 . S
H1192 N1180 0.984 1_565 S
H1193 N1180 0.985 . S
C1194 C1195 1.363 . S
C1194 C1200 1.379 1_455 S
C1194 N1202 1.356 . S
C1195 C1194 1.363 . S
C1195 C1201 1.363 . S
C1196 C1197 1.363 . S
C1196 C1201 1.379 1_655 S
C1196 N1203 1.356 . S
C1197 C1196 1.363 . S
C1197 C1200 1.363 . S
N1198 C1200 1.356 . S
N1198 H1210 0.984 . S
N1198 H1211 0.985 . S
N1199 C1201 1.356 . S
N1199 H1204 0.984 . S
N1199 H1205 0.985 . S
C1200 C1194 1.379 1_655 S
C1200 C1197 1.363 . S
C1200 N1198 1.356 . S
C1201 C1195 1.363 . S
C1201 C1196 1.379 1_455 S
C1201 N1199 1.356 . S
N1202 C1194 1.356 . S
N1202 H1208 0.984 . S
N1202 H1209 0.984 . S
N1203 C1196 1.356 . S
N1203 H1206 0.984 . S
N1203 H1207 0.985 . S
H1204 N1199 0.984 . S
H1205 N1199 0.985 . S
H1206 N1203 0.984 . S
H1207 N1203 0.985 . S
H1208 N1202 0.984 . S
H1209 N1202 0.984 . S
H1210 N1198 0.984 . S
H1211 N1198 0.985 . S
C1212 C1213 1.363 . S
C1212 C1218 1.379 1_565 S
C1212 N1220 1.356 . S
C1213 C1212 1.363 . S
C1213 C1219 1.363 . S
C1214 C1215 1.363 . S
C1214 C1219 1.379 1_545 S
C1214 N1221 1.356 . S
C1215 C1214 1.363 . S
C1215 C1218 1.363 . S
N1216 C1218 1.356 . S
N1216 H1228 0.984 . S
N1216 H1229 0.985 . S
N1217 C1219 1.356 . S
N1217 H1222 0.984 . S
N1217 H1223 0.985 . S
C1218 C1212 1.379 1_545 S
C1218 C1215 1.363 . S
C1218 N1216 1.356 . S
C1219 C1213 1.363 . S
C1219 C1214 1.379 1_565 S
C1219 N1217 1.356 . S
N1220 C1212 1.356 . S
N1220 H1226 0.984 . S
N1220 H1227 0.984 . S
N1221 C1214 1.356 . S
N1221 H1224 0.984 . S
N1221 H1225 0.985 . S
H1222 N1217 0.984 . S
H1223 N1217 0.985 . S
H1224 N1221 0.984 . S
H1225 N1221 0.985 . S
H1226 N1220 0.984 . S
H1227 N1220 0.984 . S
H1228 N1216 0.984 . S
H1229 N1216 0.985 . S
C1230 C1231 1.363 . S
C1230 C1236 1.379 1_655 S
C1230 N1238 1.356 . S
C1231 C1230 1.363 . S
C1231 C1237 1.363 . S
C1232 C1233 1.363 . S
C1232 C1237 1.379 1_455 S
C1232 N1239 1.356 . S
C1233 C1232 1.363 . S
C1233 C1236 1.363 . S
N1234 C1236 1.356 . S
N1234 H1246 0.984 . S
N1234 H1247 0.985 . S
N1235 C1237 1.356 . S
N1235 H1240 0.984 . S
N1235 H1241 0.985 . S
C1236 C1230 1.379 1_455 S
C1236 C1233 1.363 . S
C1236 N1234 1.356 . S
C1237 C1231 1.363 . S
C1237 C1232 1.379 1_655 S
C1237 N1235 1.356 . S
N1238 C1230 1.356 . S
N1238 H1244 0.984 . S
N1238 H1245 0.984 . S
N1239 C1232 1.356 . S
N1239 H1242 0.984 . S
N1239 H1243 0.985 . S
H1240 N1235 0.984 . S
H1241 N1235 0.985 . S
H1242 N1239 0.984 . S
H1243 N1239 0.985 . S
H1244 N1238 0.984 . S
H1245 N1238 0.984 . S
H1246 N1234 0.984 . S
H1247 N1234 0.985 . S
C529 N79 1.215 . S
C531 N13 1.215 . S
C547 N46 1.215 . S
C549 N112 1.215 . S
C565 N211 1.215 . S
C567 N145 1.215 . S
C583 N244 1.215 . S
C585 N178 1.215 . S
C601 N277 1.215 . S
C603 N343 1.215 . S
C619 N310 1.215 . S
C621 N376 1.215 . S
C637 N409 1.215 . S
C639 N475 1.215 . S
C655 N508 1.215 . S
C657 N442 1.215 . S
C673 N2 1.863 . S
C675 N167 1.863 . S
C691 N200 1.863 . S
C693 N35 1.863 . S
C709 N233 1.863 . S
C711 N68 1.863 . S
C727 N134 1.863 . S
C729 N101 1.863 . S
C745 N431 1.863 . S
C747 N266 1.863 . S
C763 N464 1.863 . S
C765 N299 1.863 . S
C781 N497 1.863 . S
C783 N332 1.863 . S
C799 N398 1.863 . S
C801 N365 1.863 . S
C817 C18 1.273 . S
C819 C348 1.273 . S
C835 C381 1.273 . S
C837 C51 1.273 . S
C853 C282 1.273 . S
C855 C84 1.273 . S
C871 C315 1.273 . S
C873 C117 1.273 . S
C889 C150 1.273 . S
C891 C480 1.273 . S
C907 C183 1.273 . S
C909 C513 1.273 . S
C925 C216 1.273 . S
C927 C414 1.273 . S
C943 C249 1.273 . S
C945 C447 1.273 . S
C961 C139 1.413 . S
C963 C7 1.413 . S
C979 C40 1.413 . S
C981 C172 1.413 . S
C997 C205 1.413 . S
C999 C73 1.413 . S
C1015 C238 1.413 . S
C1017 C106 1.413 . S
C1033 C285 0.867 . S
C1035 C417 0.867 . S
C1051 C450 0.867 . S
C1053 C318 0.867 . S
C1069 C351 0.867 . S
C1071 C483 0.867 . S
C1087 C516 0.867 . S
C1089 C384 0.867 . S
C1105 C370 1.413 . S
C1107 C436 1.413 . S
C1123 C271 1.413 . S
C1125 C469 1.413 . S
C1141 C502 1.413 . S
C1143 C304 1.413 . S
C1159 C403 1.413 . S
C1161 C337 1.413 . S
C1177 C120 0.867 . S
C1179 C186 0.867 . S
C1195 C21 0.867 . S
C1197 C219 0.867 . S
C1213 C252 0.867 . S
C1215 C54 0.867 . S
C1231 C87 0.867 . S
C1233 C153 0.867 . S
