# Generated by pormake.
# Topology flu-e, (6)-cn, num edge types: 1
# Building blocks:
#     Node 0, Type 0, BuildingBlock: MAKGUD_clean_sbu_1, # of connection points: 6
#     Node 1, Type 0, BuildingBlock: MAKGUD_clean_sbu_1, # of connection points: 6
#     Node 2, Type 0, BuildingBlock: MAKGUD_clean_sbu_1, # of connection points: 6
#     Node 3, Type 0, BuildingBlock: MAKGUD_clean_sbu_1, # of connection points: 6
#     Node 4, Type 0, BuildingBlock: MAKGUD_clean_sbu_1, # of connection points: 6
#     Node 5, Type 0, BuildingBlock: MAKGUD_clean_sbu_1, # of connection points: 6
#     Node 6, Type 0, BuildingBlock: MAKGUD_clean_sbu_1, # of connection points: 6
#     Node 7, Type 0, BuildingBlock: MAKGUD_clean_sbu_1, # of connection points: 6
#     Node 8, Type 0, BuildingBlock: MAKGUD_clean_sbu_1, # of connection points: 6
#     Node 9, Type 0, BuildingBlock: MAKGUD_clean_sbu_1, # of connection points: 6
#     Node 10, Type 0, BuildingBlock: MAKGUD_clean_sbu_1, # of connection points: 6
#     Node 11, Type 0, BuildingBlock: MAKGUD_clean_sbu_1, # of connection points: 6
#     Node 12, Type 0, BuildingBlock: MAKGUD_clean_sbu_1, # of connection points: 6
#     Node 13, Type 0, BuildingBlock: MAKGUD_clean_sbu_1, # of connection points: 6
#     Node 14, Type 0, BuildingBlock: MAKGUD_clean_sbu_1, # of connection points: 6
#     Node 15, Type 0, BuildingBlock: MAKGUD_clean_sbu_1, # of connection points: 6
#     Node 16, Type 0, BuildingBlock: MAKGUD_clean_sbu_1, # of connection points: 6
#     Node 17, Type 0, BuildingBlock: MAKGUD_clean_sbu_1, # of connection points: 6
#     Node 18, Type 0, BuildingBlock: MAKGUD_clean_sbu_1, # of connection points: 6
#     Node 19, Type 0, BuildingBlock: MAKGUD_clean_sbu_1, # of connection points: 6
#     Node 20, Type 0, BuildingBlock: MAKGUD_clean_sbu_1, # of connection points: 6
#     Node 21, Type 0, BuildingBlock: MAKGUD_clean_sbu_1, # of connection points: 6
#     Node 22, Type 0, BuildingBlock: MAKGUD_clean_sbu_1, # of connection points: 6
#     Node 23, Type 0, BuildingBlock: MAKGUD_clean_sbu_1, # of connection points: 6
#     Node 24, Type 0, BuildingBlock: MAKGUD_clean_sbu_1, # of connection points: 6
#     Node 25, Type 0, BuildingBlock: MAKGUD_clean_sbu_1, # of connection points: 6
#     Node 26, Type 0, BuildingBlock: MAKGUD_clean_sbu_1, # of connection points: 6
#     Node 27, Type 0, BuildingBlock: MAKGUD_clean_sbu_1, # of connection points: 6
#     Node 28, Type 0, BuildingBlock: MAKGUD_clean_sbu_1, # of connection points: 6
#     Node 29, Type 0, BuildingBlock: MAKGUD_clean_sbu_1, # of connection points: 6
#     Node 30, Type 0, BuildingBlock: MAKGUD_clean_sbu_1, # of connection points: 6
#     Node 31, Type 0, BuildingBlock: MAKGUD_clean_sbu_1, # of connection points: 6
#     Edge 32, Type (0, 0), BuildingBlock: CIFDUS_clean_linker_0, # of connection points: 2
#     Edge 33, Type (0, 0), BuildingBlock: CIFDUS_clean_linker_0, # of connection points: 2
#     Edge 34, Type (0, 0), BuildingBlock: CIFDUS_clean_linker_0, # of connection points: 2
#     Edge 35, Type (0, 0), BuildingBlock: CIFDUS_clean_linker_0, # of connection points: 2
#     Edge 36, Type (0, 0), BuildingBlock: CIFDUS_clean_linker_0, # of connection points: 2
#     Edge 37, Type (0, 0), BuildingBlock: CIFDUS_clean_linker_0, # of connection points: 2
#     Edge 38, Type (0, 0), BuildingBlock: CIFDUS_clean_linker_0, # of connection points: 2
#     Edge 39, Type (0, 0), BuildingBlock: CIFDUS_clean_linker_0, # of connection points: 2
#     Edge 40, Type (0, 0), BuildingBlock: CIFDUS_clean_linker_0, # of connection points: 2
#     Edge 41, Type (0, 0), BuildingBlock: CIFDUS_clean_linker_0, # of connection points: 2
#     Edge 42, Type (0, 0), BuildingBlock: CIFDUS_clean_linker_0, # of connection points: 2
#     Edge 43, Type (0, 0), BuildingBlock: CIFDUS_clean_linker_0, # of connection points: 2
#     Edge 44, Type (0, 0), BuildingBlock: CIFDUS_clean_linker_0, # of connection points: 2
#     Edge 45, Type (0, 0), BuildingBlock: CIFDUS_clean_linker_0, # of connection points: 2
#     Edge 46, Type (0, 0), BuildingBlock: CIFDUS_clean_linker_0, # of connection points: 2
#     Edge 47, Type (0, 0), BuildingBlock: CIFDUS_clean_linker_0, # of connection points: 2
#     Edge 48, Type (0, 0), BuildingBlock: CIFDUS_clean_linker_0, # of connection points: 2
#     Edge 49, Type (0, 0), BuildingBlock: CIFDUS_clean_linker_0, # of connection points: 2
#     Edge 50, Type (0, 0), BuildingBlock: CIFDUS_clean_linker_0, # of connection points: 2
#     Edge 51, Type (0, 0), BuildingBlock: CIFDUS_clean_linker_0, # of connection points: 2
#     Edge 52, Type (0, 0), BuildingBlock: CIFDUS_clean_linker_0, # of connection points: 2
#     Edge 53, Type (0, 0), BuildingBlock: CIFDUS_clean_linker_0, # of connection points: 2
#     Edge 54, Type (0, 0), BuildingBlock: CIFDUS_clean_linker_0, # of connection points: 2
#     Edge 55, Type (0, 0), BuildingBlock: CIFDUS_clean_linker_0, # of connection points: 2
#     Edge 56, Type (0, 0), BuildingBlock: CIFDUS_clean_linker_0, # of connection points: 2
#     Edge 57, Type (0, 0), BuildingBlock: CIFDUS_clean_linker_0, # of connection points: 2
#     Edge 58, Type (0, 0), BuildingBlock: CIFDUS_clean_linker_0, # of connection points: 2
#     Edge 59, Type (0, 0), BuildingBlock: CIFDUS_clean_linker_0, # of connection points: 2
#     Edge 60, Type (0, 0), BuildingBlock: CIFDUS_clean_linker_0, # of connection points: 2
#     Edge 61, Type (0, 0), BuildingBlock: CIFDUS_clean_linker_0, # of connection points: 2
#     Edge 62, Type (0, 0), BuildingBlock: CIFDUS_clean_linker_0, # of connection points: 2
#     Edge 63, Type (0, 0), BuildingBlock: CIFDUS_clean_linker_0, # of connection points: 2
#     Edge 64, Type (0, 0), BuildingBlock: CIFDUS_clean_linker_0, # of connection points: 2
#     Edge 65, Type (0, 0), BuildingBlock: CIFDUS_clean_linker_0, # of connection points: 2
#     Edge 66, Type (0, 0), BuildingBlock: CIFDUS_clean_linker_0, # of connection points: 2
#     Edge 67, Type (0, 0), BuildingBlock: CIFDUS_clean_linker_0, # of connection points: 2
#     Edge 68, Type (0, 0), BuildingBlock: CIFDUS_clean_linker_0, # of connection points: 2
#     Edge 69, Type (0, 0), BuildingBlock: CIFDUS_clean_linker_0, # of connection points: 2
#     Edge 70, Type (0, 0), BuildingBlock: CIFDUS_clean_linker_0, # of connection points: 2
#     Edge 71, Type (0, 0), BuildingBlock: CIFDUS_clean_linker_0, # of connection points: 2
#     Edge 72, Type (0, 0), BuildingBlock: CIFDUS_clean_linker_0, # of connection points: 2
#     Edge 73, Type (0, 0), BuildingBlock: CIFDUS_clean_linker_0, # of connection points: 2
#     Edge 74, Type (0, 0), BuildingBlock: CIFDUS_clean_linker_0, # of connection points: 2
#     Edge 75, Type (0, 0), BuildingBlock: CIFDUS_clean_linker_0, # of connection points: 2
#     Edge 76, Type (0, 0), BuildingBlock: CIFDUS_clean_linker_0, # of connection points: 2
#     Edge 77, Type (0, 0), BuildingBlock: CIFDUS_clean_linker_0, # of connection points: 2
#     Edge 78, Type (0, 0), BuildingBlock: CIFDUS_clean_linker_0, # of connection points: 2
#     Edge 79, Type (0, 0), BuildingBlock: CIFDUS_clean_linker_0, # of connection points: 2
#     Edge 80, Type (0, 0), BuildingBlock: CIFDUS_clean_linker_0, # of connection points: 2
#     Edge 81, Type (0, 0), BuildingBlock: CIFDUS_clean_linker_0, # of connection points: 2
#     Edge 82, Type (0, 0), BuildingBlock: CIFDUS_clean_linker_0, # of connection points: 2
#     Edge 83, Type (0, 0), BuildingBlock: CIFDUS_clean_linker_0, # of connection points: 2
#     Edge 84, Type (0, 0), BuildingBlock: CIFDUS_clean_linker_0, # of connection points: 2
#     Edge 85, Type (0, 0), BuildingBlock: CIFDUS_clean_linker_0, # of connection points: 2
#     Edge 86, Type (0, 0), BuildingBlock: CIFDUS_clean_linker_0, # of connection points: 2
#     Edge 87, Type (0, 0), BuildingBlock: CIFDUS_clean_linker_0, # of connection points: 2
#     Edge 88, Type (0, 0), BuildingBlock: CIFDUS_clean_linker_0, # of connection points: 2
#     Edge 89, Type (0, 0), BuildingBlock: CIFDUS_clean_linker_0, # of connection points: 2
#     Edge 90, Type (0, 0), BuildingBlock: CIFDUS_clean_linker_0, # of connection points: 2
#     Edge 91, Type (0, 0), BuildingBlock: CIFDUS_clean_linker_0, # of connection points: 2
#     Edge 92, Type (0, 0), BuildingBlock: CIFDUS_clean_linker_0, # of connection points: 2
#     Edge 93, Type (0, 0), BuildingBlock: CIFDUS_clean_linker_0, # of connection points: 2
#     Edge 94, Type (0, 0), BuildingBlock: CIFDUS_clean_linker_0, # of connection points: 2
#     Edge 95, Type (0, 0), BuildingBlock: CIFDUS_clean_linker_0, # of connection points: 2
#     Edge 96, Type (0, 0), BuildingBlock: CIFDUS_clean_linker_0, # of connection points: 2
#     Edge 97, Type (0, 0), BuildingBlock: CIFDUS_clean_linker_0, # of connection points: 2
#     Edge 98, Type (0, 0), BuildingBlock: CIFDUS_clean_linker_0, # of connection points: 2
#     Edge 99, Type (0, 0), BuildingBlock: CIFDUS_clean_linker_0, # of connection points: 2
#     Edge 100, Type (0, 0), BuildingBlock: CIFDUS_clean_linker_0, # of connection points: 2
#     Edge 101, Type (0, 0), BuildingBlock: CIFDUS_clean_linker_0, # of connection points: 2
#     Edge 102, Type (0, 0), BuildingBlock: CIFDUS_clean_linker_0, # of connection points: 2
#     Edge 103, Type (0, 0), BuildingBlock: CIFDUS_clean_linker_0, # of connection points: 2
#     Edge 104, Type (0, 0), BuildingBlock: CIFDUS_clean_linker_0, # of connection points: 2
#     Edge 105, Type (0, 0), BuildingBlock: CIFDUS_clean_linker_0, # of connection points: 2
#     Edge 106, Type (0, 0), BuildingBlock: CIFDUS_clean_linker_0, # of connection points: 2
#     Edge 107, Type (0, 0), BuildingBlock: CIFDUS_clean_linker_0, # of connection points: 2
#     Edge 108, Type (0, 0), BuildingBlock: CIFDUS_clean_linker_0, # of connection points: 2
#     Edge 109, Type (0, 0), BuildingBlock: CIFDUS_clean_linker_0, # of connection points: 2
#     Edge 110, Type (0, 0), BuildingBlock: CIFDUS_clean_linker_0, # of connection points: 2
#     Edge 111, Type (0, 0), BuildingBlock: CIFDUS_clean_linker_0, # of connection points: 2
#     Edge 112, Type (0, 0), BuildingBlock: CIFDUS_clean_linker_0, # of connection points: 2
#     Edge 113, Type (0, 0), BuildingBlock: CIFDUS_clean_linker_0, # of connection points: 2
#     Edge 114, Type (0, 0), BuildingBlock: CIFDUS_clean_linker_0, # of connection points: 2
#     Edge 115, Type (0, 0), BuildingBlock: CIFDUS_clean_linker_0, # of connection points: 2
#     Edge 116, Type (0, 0), BuildingBlock: CIFDUS_clean_linker_0, # of connection points: 2
#     Edge 117, Type (0, 0), BuildingBlock: CIFDUS_clean_linker_0, # of connection points: 2
#     Edge 118, Type (0, 0), BuildingBlock: CIFDUS_clean_linker_0, # of connection points: 2
#     Edge 119, Type (0, 0), BuildingBlock: CIFDUS_clean_linker_0, # of connection points: 2
#     Edge 120, Type (0, 0), BuildingBlock: CIFDUS_clean_linker_0, # of connection points: 2
#     Edge 121, Type (0, 0), BuildingBlock: CIFDUS_clean_linker_0, # of connection points: 2
#     Edge 122, Type (0, 0), BuildingBlock: CIFDUS_clean_linker_0, # of connection points: 2
#     Edge 123, Type (0, 0), BuildingBlock: CIFDUS_clean_linker_0, # of connection points: 2
#     Edge 124, Type (0, 0), BuildingBlock: CIFDUS_clean_linker_0, # of connection points: 2
#     Edge 125, Type (0, 0), BuildingBlock: CIFDUS_clean_linker_0, # of connection points: 2
#     Edge 126, Type (0, 0), BuildingBlock: CIFDUS_clean_linker_0, # of connection points: 2
#     Edge 127, Type (0, 0), BuildingBlock: CIFDUS_clean_linker_0, # of connection points: 2
# Relax obj value: 0.242
# Max RMSD: 0.306
# Mean RMSD: 0.281
data_MOF--net-flu-e--node1-MAKGUD_clean_sbu_1--edge1-CIFDUS_clean_linker_0
_symmetry_space_group_name_H-M    P1
_symmetry_Int_Tables_number       1
_symmetry_cell_setting            triclinic
loop_
_symmetry_equiv_pos_as_xyz
'x, y, z'
_cell_length_a     49.933135
_cell_length_b     47.412512
_cell_length_c     51.808574
_cell_angle_alpha  92.452502
_cell_angle_beta   85.983078
_cell_angle_gamma 91.583104
loop_
_atom_site_label
_atom_site_type_symbol
_atom_site_fract_x
_atom_site_fract_y
_atom_site_fract_z
_atom_type_partial_charge
O0 O 0.22397 0.11735 0.39518 0.0
Tb1 Tb 0.20481 0.15845 0.39541 0.0
C2 C 0.15544 0.19892 0.39661 0.0
O3 O 0.24273 0.20237 0.36656 0.0
Tb4 Tb 0.21095 0.23238 0.37743 0.0
C5 C 0.20422 0.26181 0.33552 0.0
O6 O 0.22088 0.16188 0.35565 0.0
O7 O 0.23981 0.2577 0.39945 0.0
C8 C 0.26405 0.26244 0.38808 0.0
O9 O 0.2694 0.25191 0.36448 0.0
O10 O 0.16506 0.17365 0.39066 0.0
O11 O 0.17088 0.22237 0.39746 0.0
O12 O 0.22183 0.18049 0.42868 0.0
C13 C 0.23914 0.18124 0.34997 0.0
C14 C 0.20313 0.10354 0.40505 0.0
O15 O 0.20564 0.23445 0.33587 0.0
O16 O 0.20589 0.27248 0.35894 0.0
C17 C 0.20593 0.18614 0.44961 0.0
O18 O 0.17993 0.18206 0.44829 0.0
O19 O 0.18326 0.12068 0.40943 0.0
O20 O 0.9254 0.16549 0.47255 0.0
Tb21 Tb 0.9372 0.18764 0.43689 0.0
C22 C 0.99391 0.21625 0.41068 0.0
O23 O 0.91497 0.25144 0.42204 0.0
Tb24 Tb 0.94177 0.24263 0.38817 0.0
C25 C 0.94083 0.2858 0.35637 0.0
O26 O 0.89939 0.2064 0.42604 0.0
O27 O 0.92011 0.20869 0.36845 0.0
C28 C 0.89585 0.21437 0.36208 0.0
O29 O 0.88547 0.23852 0.37043 0.0
O30 O 0.98034 0.19716 0.42507 0.0
O31 O 0.98264 0.23471 0.39668 0.0
O32 O 0.93632 0.14371 0.42081 0.0
C33 C 0.89489 0.23384 0.42728 0.0
C34 C 0.93161 0.18564 0.48902 0.0
O35 O 0.93921 0.28792 0.38155 0.0
O36 O 0.94357 0.25943 0.34914 0.0
C37 C 0.95091 0.12398 0.43003 0.0
O38 O 0.9674 0.13146 0.44794 0.0
O39 O 0.94123 0.20708 0.47607 0.0
O40 O 0.96517 0.87576 0.46383 0.0
Tb41 Tb 0.94885 0.88916 0.4283 0.0
C42 C 0.94344 0.95397 0.40917 0.0
O43 O 0.88761 0.88585 0.40422 0.0
Tb44 Tb 0.91023 0.90931 0.37442 0.0
C45 C 0.87871 0.92839 0.33982 0.0
O46 O 0.92189 0.85706 0.4109 0.0
O47 O 0.92958 0.87342 0.35374 0.0
C48 C 0.91317 0.8543 0.34367 0.0
O49 O 0.8872 0.85766 0.34818 0.0
O50 O 0.9495 0.93556 0.4263 0.0
O51 O 0.93205 0.94698 0.38753 0.0
O52 O 0.99025 0.87808 0.41439 0.0
C53 C 0.89591 0.86077 0.40927 0.0
C54 C 0.94444 0.88161 0.47949 0.0
O55 O 0.87095 0.92315 0.3637 0.0
O56 O 0.90395 0.92266 0.33559 0.0
C57 C 1.01096 0.89242 0.42355 0.0
O58 O 1.00598 0.91473 0.43888 0.0
O59 O 0.92583 0.8914 0.46623 0.0
O60 O 0.24032 0.89974 0.4734 0.0
Tb61 Tb 0.22995 0.87872 0.43692 0.0
C62 C 0.17005 0.86222 0.42021 0.0
O63 O 0.24705 0.81091 0.41686 0.0
Tb64 Tb 0.21599 0.82709 0.39419 0.0
C65 C 0.21126 0.79338 0.35209 0.0
O66 O 0.26614 0.85457 0.42444 0.0
O67 O 0.2373 0.86489 0.38082 0.0
C68 C 0.26092 0.86129 0.36845 0.0
O69 O 0.27038 0.83568 0.36551 0.0
O70 O 0.1888 0.88179 0.42439 0.0
O71 O 0.17658 0.83635 0.41267 0.0
O72 O 0.23672 0.92142 0.42338 0.0
C73 C 0.26808 0.82675 0.42253 0.0
C74 C 0.22697 0.88234 0.48851 0.0
O75 O 0.21248 0.78492 0.37554 0.0
O76 O 0.21225 0.82078 0.35248 0.0
C77 C 0.21977 0.94066 0.43295 0.0
O78 O 0.20086 0.9331 0.45039 0.0
O79 O 0.21542 0.8626 0.47451 0.0
O80 O 0.14316 0.92998 0.70391 0.0
Tb81 Tb 0.18355 0.91916 0.68841 0.0
C82 C 0.22135 0.9216 0.64045 0.0
O83 O 0.22781 0.91204 0.72879 0.0
Tb84 Tb 0.24745 0.92668 0.69228 0.0
C85 C 0.28091 0.8859 0.6779 0.0
O86 O 0.1922 0.88664 0.71421 0.0
O87 O 0.27068 0.9593 0.71219 0.0
C88 C 0.26326 0.96774 0.7361 0.0
O89 O 0.23796 0.96447 0.74443 0.0
O90 O 0.2029 0.90551 0.6519 0.0
O91 O 0.23542 0.93952 0.65462 0.0
O92 O 0.19987 0.96175 0.69433 0.0
C93 C 0.21014 0.89104 0.73125 0.0
C94 C 0.13126 0.92112 0.68343 0.0
O95 O 0.25494 0.88271 0.68109 0.0
O96 O 0.28802 0.912 0.68301 0.0
C97 C 0.19388 0.98175 0.67893 0.0
O98 O 0.17868 0.97532 0.65972 0.0
O99 O 0.14876 0.91107 0.66597 0.0
O100 O 0.30212 0.16145 0.74428 0.0
Tb101 Tb 0.28012 0.18068 0.71476 0.0
C102 C 0.22819 0.21355 0.70679 0.0
O103 O 0.25244 0.16166 0.66528 0.0
Tb104 Tb 0.21447 0.18089 0.6583 0.0
C105 C 0.16738 0.15407 0.66811 0.0
O106 O 0.27365 0.13983 0.69544 0.0
O107 O 0.21407 0.19975 0.62052 0.0
C108 C 0.22921 0.18993 0.60039 0.0
O109 O 0.24709 0.17095 0.60404 0.0
O110 O 0.23828 0.18858 0.70882 0.0
O111 O 0.21517 0.21722 0.68596 0.0
O112 O 0.30934 0.20834 0.69485 0.0
C113 C 0.2564 0.13827 0.67728 0.0
C114 C 0.29335 0.1782 0.76345 0.0
O115 O 0.18259 0.15121 0.64675 0.0
O116 O 0.17956 0.17083 0.68422 0.0
C117 C 0.30286 0.23181 0.68446 0.0
O118 O 0.27756 0.23628 0.68107 0.0
O119 O 0.27656 0.19575 0.75518 0.0
O120 O 0.99588 0.18334 0.71344 0.0
Tb121 Tb 0.96058 0.19266 0.69292 0.0
C122 C 0.92909 0.19669 0.64488 0.0
O123 O 0.91279 0.20401 0.73227 0.0
Tb124 Tb 0.8934 0.20329 0.69574 0.0
C125 C 0.8841 0.25498 0.68233 0.0
O126 O 0.95166 0.22702 0.72075 0.0
O127 O 0.85748 0.18715 0.71805 0.0
C128 C 0.84615 0.20451 0.73613 0.0
O129 O 0.8556 0.23063 0.73767 0.0
O130 O 0.94916 0.20857 0.65687 0.0
O131 O 0.90912 0.18381 0.65843 0.0
O132 O 0.93593 0.15491 0.69837 0.0
C133 C 0.93112 0.22344 0.73753 0.0
C134 C 1.01195 0.17866 0.69299 0.0
O135 O 0.90546 0.2478 0.6932 0.0
O136 O 0.86775 0.23336 0.67981 0.0
C137 C 0.93812 0.13428 0.68063 0.0
O138 O 0.95457 0.13771 0.66002 0.0
O139 O 0.99923 0.18237 0.67238 0.0
O140 O 0.96212 0.90464 0.67706 0.0
Tb141 Tb 0.9207 0.91164 0.69076 0.0
C142 C 0.90056 0.97336 0.69786 0.0
O143 O 0.91269 0.91053 0.75547 0.0
Tb144 Tb 0.88149 0.93503 0.74119 0.0
C145 C 0.84517 0.94968 0.779 0.0
O146 O 0.9139 0.87978 0.72027 0.0
O147 O 0.86509 0.89997 0.71873 0.0
C148 C 0.85421 0.87969 0.73276 0.0
O149 O 0.85146 0.88417 0.75801 0.0
O150 O 0.90095 0.95059 0.68239 0.0
O151 O 0.8989 0.97138 0.72298 0.0
O152 O 0.91321 0.89405 0.65215 0.0
C153 C 0.918 0.88544 0.74495 0.0
C154 C 0.97256 0.92385 0.69219 0.0
O155 O 0.87014 0.9442 0.78198 0.0
O156 O 0.8408 0.94713 0.75452 0.0
C157 C 0.92537 0.90671 0.6322 0.0
O158 O 0.94082 0.92905 0.63651 0.0
O159 O 0.95376 0.93639 0.70672 0.0
O160 O 0.49941 0.19633 0.1964 0.0
Tb161 Tb 0.45962 0.2112 0.18916 0.0
C162 C 0.42907 0.19205 0.14209 0.0
O163 O 0.41022 0.21347 0.23084 0.0
Tb164 Tb 0.39547 0.19942 0.1933 0.0
C165 C 0.37441 0.2419 0.17144 0.0
O166 O 0.44486 0.24277 0.21782 0.0
O167 O 0.36469 0.17719 0.21745 0.0
C168 C 0.34451 0.19185 0.22847 0.0
O169 O 0.34223 0.21825 0.22246 0.0
O170 O 0.44441 0.21253 0.15116 0.0
O171 O 0.41369 0.17713 0.1586 0.0
O172 O 0.44549 0.16889 0.1995 0.0
C173 C 0.42518 0.2364 0.23482 0.0
C174 C 0.51288 0.2145 0.18216 0.0
O175 O 0.39682 0.24351 0.18293 0.0
O176 O 0.36352 0.21675 0.17311 0.0
C177 C 0.45368 0.14677 0.18507 0.0
O178 O 0.47042 0.15081 0.16476 0.0
O179 O 0.49637 0.23102 0.17225 0.0
O180 O 0.95858 0.41591 0.18276 0.0
Tb181 Tb 0.91805 0.4265 0.19691 0.0
C182 C 0.90186 0.48952 0.20988 0.0
O183 O 0.91233 0.42126 0.25966 0.0
Tb184 Tb 0.88041 0.4473 0.24953 0.0
C185 C 0.85079 0.46006 0.29303 0.0
O186 O 0.90823 0.3926 0.22404 0.0
O187 O 0.85945 0.41661 0.22501 0.0
C188 C 0.83309 0.41554 0.22485 0.0
O189 O 0.81918 0.43648 0.23574 0.0
O190 O 0.902 0.46866 0.19214 0.0
O191 O 0.89968 0.48459 0.23456 0.0
O192 O 0.91119 0.41179 0.15732 0.0
C193 C 0.91415 0.39608 0.24845 0.0
C194 C 0.97074 0.43298 0.1986 0.0
O195 O 0.87304 0.44634 0.29135 0.0
O196 O 0.84534 0.46692 0.26998 0.0
C197 C 0.92197 0.42733 0.1386 0.0
O198 O 0.93438 0.4511 0.14517 0.0
O199 O 0.9532 0.44676 0.21365 0.0
O200 O 0.66388 0.94878 0.2135 0.0
Tb201 Tb 0.70109 0.9298 0.1969 0.0
C202 C 0.73111 0.9245 0.14407 0.0
O203 O 0.75024 0.88609 0.20855 0.0
Tb204 Tb 0.76779 0.92161 0.18724 0.0
C205 C 0.81139 0.89674 0.16543 0.0
O206 O 0.7109 0.90359 0.22796 0.0
O207 O 0.78099 0.95113 0.21735 0.0
C208 C 0.76881 0.95334 0.24067 0.0
O209 O 0.74347 0.94553 0.24401 0.0
O210 O 0.71305 0.91121 0.15899 0.0
O211 O 0.7501 0.93953 0.15481 0.0
O212 O 0.71902 0.9714 0.19089 0.0
C213 C 0.73002 0.88502 0.22622 0.0
C214 C 0.64814 0.93444 0.19853 0.0
O215 O 0.78672 0.8893 0.16176 0.0
O216 O 0.81156 0.91876 0.18123 0.0
C217 C 0.7086 0.98542 0.17281 0.0
O218 O 0.6888 0.9733 0.16067 0.0
O219 O 0.66218 0.91741 0.18303 0.0
O220 O 0.31514 0.66626 0.22353 0.0
Tb221 Tb 0.27952 0.67732 0.20363 0.0
C222 C 0.23206 0.71412 0.21374 0.0
O223 O 0.23049 0.64653 0.16787 0.0
Tb224 Tb 0.22636 0.69112 0.15997 0.0
C225 C 0.17337 0.69447 0.15785 0.0
O226 O 0.2744 0.64022 0.17862 0.0
O227 O 0.2469 0.69031 0.12122 0.0
C228 C 0.24283 0.7095 0.10427 0.0
O229 O 0.22993 0.73242 0.11211 0.0
O230 O 0.23928 0.68848 0.21753 0.0
O231 O 0.2348 0.72291 0.19003 0.0
O232 O 0.29759 0.7153 0.18709 0.0
C233 C 0.25122 0.63047 0.17085 0.0
C234 C 0.30357 0.66787 0.24687 0.0
O235 O 0.18543 0.67808 0.17248 0.0
O236 O 0.19118 0.70889 0.14405 0.0
C237 C 0.29761 0.73852 0.20191 0.0
O238 O 0.28601 0.73799 0.22541 0.0
O239 O 0.27862 0.67417 0.24552 0.0
O240 O 0.44934 0.88451 0.95901 0.0
Tb241 Tb 0.44438 0.89613 0.91889 0.0
C242 C 0.43702 0.95986 0.90191 0.0
O243 O 0.37921 0.88907 0.90447 0.0
Tb244 Tb 0.39564 0.91724 0.87531 0.0
C245 C 0.35804 0.93687 0.84721 0.0
O246 O 0.41693 0.86316 0.90295 0.0
O247 O 0.41584 0.8853 0.8496 0.0
C248 C 0.39979 0.86583 0.83942 0.0
O249 O 0.37396 0.86705 0.84611 0.0
O250 O 0.45388 0.93947 0.90579 0.0
O251 O 0.41268 0.95453 0.89448 0.0
O252 O 0.48569 0.88095 0.90988 0.0
C253 C 0.39037 0.86451 0.90557 0.0
C254 C 0.43182 0.90179 0.97009 0.0
O255 O 0.35354 0.92543 0.86956 0.0
O256 O 0.38366 0.93712 0.84072 0.0
C257 C 0.50573 0.88959 0.92398 0.0
O258 O 0.50064 0.90793 0.94332 0.0
O259 O 0.42135 0.91566 0.95228 0.0
O260 O 0.23637 0.39601 0.97136 0.0
Tb261 Tb 0.22662 0.37752 0.93364 0.0
C262 C 0.16637 0.36303 0.91512 0.0
O263 O 0.23873 0.30859 0.91399 0.0
Tb264 Tb 0.21172 0.32726 0.88869 0.0
C265 C 0.21021 0.29434 0.84545 0.0
O266 O 0.26165 0.34967 0.92369 0.0
O267 O 0.235 0.36491 0.87866 0.0
C268 C 0.25946 0.36127 0.86833 0.0
O269 O 0.26873 0.3356 0.86531 0.0
O270 O 0.18558 0.38172 0.92066 0.0
O271 O 0.17212 0.33747 0.90591 0.0
O272 O 0.23428 0.421 0.92083 0.0
C273 C 0.26079 0.32164 0.92114 0.0
C274 C 0.22043 0.37956 0.98527 0.0
O275 O 0.20939 0.28552 0.86895 0.0
O276 O 0.21115 0.32177 0.84638 0.0
C277 C 0.21895 0.44118 0.93184 0.0
O278 O 0.20074 0.43408 0.95012 0.0
O279 O 0.20814 0.36166 0.97004 0.0
O280 O 0.68274 0.11329 0.91311 0.0
Tb281 Tb 0.70841 0.14777 0.89721 0.0
C282 C 0.66303 0.19632 0.89691 0.0
O283 O 0.72571 0.19363 0.87446 0.0
Tb284 Tb 0.71439 0.23647 0.87877 0.0
C285 C 0.70327 0.26544 0.8382 0.0
O286 O 0.7376 0.15152 0.86375 0.0
O287 O 0.74755 0.25777 0.89847 0.0
C288 C 0.75722 0.28226 0.89016 0.0
O289 O 0.74496 0.29414 0.87199 0.0
O290 O 0.67414 0.17291 0.88599 0.0
O291 O 0.67629 0.2213 0.8992 0.0
O292 O 0.72791 0.16235 0.93216 0.0
C293 C 0.74071 0.17791 0.85832 0.0
C294 C 0.69675 0.09258 0.90244 0.0
O295 O 0.71922 0.24404 0.8373 0.0
O296 O 0.69315 0.26996 0.86184 0.0
C297 C 0.71554 0.17717 0.95137 0.0
O298 O 0.69152 0.18663 0.94846 0.0
O299 O 0.71689 0.10306 0.88843 0.0
O300 O 0.92252 0.66275 0.96725 0.0
Tb301 Tb 0.9362 0.68286 0.93117 0.0
C302 C 0.99573 0.7048 0.9077 0.0
O303 O 0.91685 0.74873 0.92024 0.0
Tb304 Tb 0.94704 0.73964 0.88877 0.0
C305 C 0.95029 0.78239 0.8565 0.0
O306 O 0.90008 0.70375 0.91982 0.0
O307 O 0.92167 0.70929 0.86844 0.0
C308 C 0.89928 0.71975 0.86121 0.0
O309 O 0.89439 0.74638 0.8674 0.0
O310 O 0.97925 0.68499 0.91766 0.0
O311 O 0.98721 0.72837 0.89864 0.0
O312 O 0.93347 0.63919 0.91583 0.0
C313 C 0.89615 0.73116 0.92327 0.0
C314 C 0.93143 0.68231 0.98302 0.0
O315 O 0.9471 0.785 0.88167 0.0
O316 O 0.95253 0.75582 0.84972 0.0
C317 C 0.94833 0.61998 0.92526 0.0
O318 O 0.96451 0.62795 0.9433 0.0
O319 O 0.94325 0.70231 0.96953 0.0
O320 O 0.14349 0.43698 0.19942 0.0
Tb321 Tb 0.18181 0.41661 0.18939 0.0
C322 C 0.21567 0.41071 0.13862 0.0
O323 O 0.22209 0.36762 0.20413 0.0
Tb324 Tb 0.2468 0.40035 0.1847 0.0
C325 C 0.29067 0.37449 0.16592 0.0
O326 O 0.19232 0.39773 0.22459 0.0
O327 O 0.25671 0.42545 0.21896 0.0
C328 C 0.26314 0.41119 0.23878 0.0
O329 O 0.26214 0.38349 0.23685 0.0
O330 O 0.19484 0.39906 0.15119 0.0
O331 O 0.2345 0.42265 0.15201 0.0
O332 O 0.19949 0.45845 0.18424 0.0
C333 C 0.20523 0.37402 0.22398 0.0
C334 C 0.12878 0.41652 0.18993 0.0
O335 O 0.2662 0.36558 0.16298 0.0
O336 O 0.29048 0.39799 0.17976 0.0
C337 C 0.19079 0.47353 0.16598 0.0
O338 O 0.17198 0.46259 0.15181 0.0
O339 O 0.14391 0.39627 0.18036 0.0
O340 O 0.21502 0.61893 0.8897 0.0
Tb341 Tb 0.20835 0.66374 0.9018 0.0
C342 C 0.15921 0.70278 0.89372 0.0
O343 O 0.22823 0.69734 0.84653 0.0
Tb344 Tb 0.21192 0.7325 0.87036 0.0
C345 C 0.20201 0.77156 0.83642 0.0
O346 O 0.24546 0.67152 0.87761 0.0
O347 O 0.24579 0.74973 0.89172 0.0
C348 C 0.27008 0.75325 0.88008 0.0
O349 O 0.27479 0.74247 0.85647 0.0
O350 O 0.169 0.67706 0.89007 0.0
O351 O 0.17537 0.72531 0.89546 0.0
O352 O 0.21826 0.68771 0.93698 0.0
C353 C 0.2463 0.68029 0.85375 0.0
C354 C 0.20678 0.60808 0.91159 0.0
O355 O 0.19294 0.74561 0.83591 0.0
O356 O 0.21626 0.77562 0.85631 0.0
C357 C 0.23567 0.67792 0.95219 0.0
O358 O 0.24866 0.65497 0.94456 0.0
O359 O 0.19897 0.62858 0.92763 0.0
O360 O 0.43175 0.1761 0.97234 0.0
Tb361 Tb 0.44214 0.19443 0.93429 0.0
C362 C 0.50081 0.21508 0.90614 0.0
O363 O 0.42771 0.26013 0.91488 0.0
Tb364 Tb 0.45014 0.24162 0.88138 0.0
C365 C 0.45179 0.27681 0.842 0.0
O366 O 0.40609 0.21918 0.92622 0.0
O367 O 0.42126 0.20889 0.87035 0.0
C368 C 0.39777 0.21821 0.86488 0.0
O369 O 0.39358 0.2454 0.86819 0.0
O370 O 0.48581 0.19788 0.9213 0.0
O371 O 0.49075 0.23328 0.89103 0.0
O372 O 0.43563 0.15017 0.92006 0.0
C373 C 0.40588 0.24706 0.9242 0.0
C374 C 0.44158 0.19677 0.9864 0.0
O375 O 0.44759 0.28411 0.86643 0.0
O376 O 0.45562 0.24977 0.83987 0.0
C377 C 0.45154 0.12962 0.92574 0.0
O378 O 0.47221 0.1362 0.93935 0.0
O379 O 0.45171 0.21593 0.97101 0.0
O380 O 0.93572 0.37914 0.97282 0.0
Tb381 Tb 0.94523 0.39361 0.93304 0.0
C382 C 0.94582 0.45146 0.9038 0.0
O383 O 0.89435 0.40301 0.90158 0.0
Tb384 Tb 0.91831 0.41017 0.86585 0.0
C385 C 0.88674 0.43031 0.83166 0.0
O386 O 0.91072 0.36666 0.9218 0.0
O387 O 0.93435 0.37032 0.85019 0.0
C388 C 0.91751 0.34981 0.84366 0.0
O389 O 0.89172 0.35302 0.84949 0.0
O390 O 0.93451 0.43613 0.92248 0.0
O391 O 0.94617 0.44251 0.87937 0.0
O392 O 0.98562 0.37919 0.91892 0.0
C393 C 0.89096 0.37747 0.91012 0.0
C394 C 0.94436 0.40204 0.98467 0.0
O395 O 0.87861 0.41983 0.85367 0.0
O396 O 0.91282 0.4296 0.82889 0.0
C397 C 1.00717 0.39456 0.92467 0.0
O398 O 1.00346 0.41921 0.93675 0.0
O399 O 0.95367 0.41947 0.96747 0.0
O400 O 0.72988 0.89658 0.97754 0.0
Tb401 Tb 0.72014 0.86952 0.94386 0.0
C402 C 0.66336 0.85212 0.92055 0.0
O403 O 0.73934 0.80616 0.91465 0.0
Tb404 Tb 0.71553 0.82901 0.88863 0.0
C405 C 0.71876 0.79977 0.84313 0.0
O406 O 0.75686 0.84617 0.93368 0.0
O407 O 0.73487 0.87006 0.88326 0.0
C408 C 0.7612 0.87151 0.88041 0.0
O409 O 0.77479 0.84824 0.88074 0.0
O410 O 0.67793 0.85751 0.94055 0.0
O411 O 0.67405 0.84259 0.89788 0.0
O412 O 0.7207 0.90955 0.92432 0.0
C413 C 0.7588 0.81915 0.92682 0.0
C414 C 0.72089 0.87898 0.9949 0.0
O415 O 0.7015 0.79485 0.86254 0.0
O416 O 0.73387 0.8214 0.84923 0.0
C417 C 0.70212 0.92821 0.93112 0.0
O418 O 0.68301 0.92148 0.94869 0.0
O419 O 0.71176 0.85615 0.98346 0.0
O420 O 0.99787 0.68874 0.20183 0.0
Tb421 Tb 0.96184 0.70567 0.18726 0.0
C422 C 0.93183 0.69998 0.13795 0.0
O423 O 0.9103 0.7135 0.22613 0.0
Tb424 Tb 0.89533 0.70586 0.1876 0.0
C425 C 0.87986 0.75383 0.16993 0.0
O426 O 0.94925 0.73774 0.21618 0.0
O427 O 0.85897 0.68627 0.2059 0.0
C428 C 0.85926 0.67286 0.2277 0.0
O429 O 0.88237 0.66497 0.23528 0.0
O430 O 0.94948 0.71587 0.1498 0.0
O431 O 0.91336 0.68553 0.15182 0.0
O432 O 0.94346 0.66359 0.1894 0.0
C433 C 0.92798 0.73347 0.2319 0.0
C434 C 1.01482 0.70049 0.18511 0.0
O435 O 0.90229 0.75082 0.18079 0.0
O436 O 0.86604 0.73021 0.16981 0.0
C437 C 0.95247 0.64391 0.17249 0.0
O438 O 0.97158 0.65083 0.15499 0.0
O439 O 1.00195 0.71541 0.16977 0.0
O440 O 0.47841 0.91289 0.1616 0.0
Tb441 Tb 0.43927 0.91936 0.18187 0.0
C442 C 0.41899 0.98197 0.19786 0.0
O443 O 0.4373 0.91877 0.2432 0.0
Tb444 Tb 0.39958 0.93698 0.23652 0.0
C445 C 0.37102 0.93852 0.28199 0.0
O446 O 0.4348 0.88617 0.21066 0.0
O447 O 0.38014 0.90587 0.21156 0.0
C448 C 0.37478 0.88094 0.22113 0.0
O449 O 0.38215 0.87603 0.24432 0.0
O450 O 0.42126 0.96119 0.17996 0.0
O451 O 0.41263 0.97728 0.22233 0.0
O452 O 0.42844 0.90227 0.14378 0.0
C453 C 0.44114 0.89289 0.23449 0.0
C454 C 0.49211 0.92815 0.17767 0.0
O455 O 0.3958 0.93094 0.27803 0.0
O456 O 0.36243 0.94618 0.26024 0.0
C457 C 0.42684 0.91957 0.1246 0.0
O458 O 0.42952 0.94685 0.1295 0.0
O459 O 0.47597 0.93889 0.19609 0.0
O460 O 0.81773 0.18206 0.22292 0.0
Tb461 Tb 0.78173 0.19137 0.20278 0.0
C462 C 0.7288 0.21664 0.21573 0.0
O463 O 0.73724 0.15716 0.16327 0.0
Tb464 Tb 0.72431 0.20066 0.16016 0.0
C465 C 0.67092 0.1954 0.16247 0.0
O466 O 0.78198 0.1572 0.1739 0.0
O467 O 0.73651 0.21054 0.12 0.0
C468 C 0.74061 0.19022 0.10201 0.0
O469 O 0.7419 0.16408 0.10915 0.0
O470 O 0.73971 0.19198 0.21532 0.0
O471 O 0.72922 0.22928 0.1937 0.0
O472 O 0.79272 0.23388 0.19104 0.0
C473 C 0.76013 0.14438 0.16587 0.0
C474 C 0.80544 0.18113 0.24594 0.0
O475 O 0.68704 0.17759 0.1711 0.0
O476 O 0.6849 0.21602 0.15208 0.0
C477 C 0.79034 0.25437 0.20892 0.0
O478 O 0.7812 0.24824 0.23245 0.0
O479 O 0.78011 0.18543 0.24426 0.0
O480 O 0.48404 0.69537 0.70403 0.0
Tb481 Tb 0.44899 0.7112 0.68686 0.0
C482 C 0.41989 0.69657 0.638 0.0
O483 O 0.40051 0.71872 0.72712 0.0
Tb484 Tb 0.38543 0.70202 0.69046 0.0
C485 C 0.3576 0.74345 0.67412 0.0
O486 O 0.43567 0.74611 0.71235 0.0
O487 O 0.35539 0.67565 0.71169 0.0
C488 C 0.35772 0.6688 0.73589 0.0
O489 O 0.38137 0.67092 0.74549 0.0
O490 O 0.43688 0.71495 0.6479 0.0
O491 O 0.40269 0.6825 0.65365 0.0
O492 O 0.43116 0.66978 0.69445 0.0
C493 C 0.41596 0.74149 0.72976 0.0
C494 C 0.50167 0.70519 0.68687 0.0
O495 O 0.38275 0.74559 0.67924 0.0
O496 O 0.34826 0.7181 0.67827 0.0
C497 C 0.441 0.64802 0.68063 0.0
O498 O 0.46042 0.65259 0.66272 0.0
O499 O 0.48967 0.71892 0.66997 0.0
O500 O 0.66055 0.44225 0.71885 0.0
Tb501 Tb 0.69728 0.42389 0.70011 0.0
C502 C 0.72203 0.41622 0.6455 0.0
O503 O 0.74542 0.37688 0.70838 0.0
Tb504 Tb 0.76229 0.4113 0.68496 0.0
C505 C 0.80213 0.38414 0.65873 0.0
O506 O 0.70661 0.39486 0.72893 0.0
O507 O 0.78007 0.4401 0.71324 0.0
C508 C 0.76991 0.44298 0.73728 0.0
O509 O 0.745 0.4346 0.74281 0.0
O510 O 0.70519 0.40398 0.66221 0.0
O511 O 0.74266 0.4304 0.6542 0.0
O512 O 0.7191 0.46386 0.6965 0.0
C513 C 0.7253 0.37578 0.72626 0.0
C514 C 0.64462 0.43076 0.7023 0.0
O515 O 0.77673 0.37829 0.6575 0.0
O516 O 0.80513 0.40566 0.67475 0.0
C517 C 0.70882 0.4833 0.68305 0.0
O518 O 0.68618 0.47749 0.67222 0.0
O519 O 0.65837 0.41568 0.68494 0.0
O520 O 0.44913 0.38374 0.46733 0.0
Tb521 Tb 0.4442 0.39295 0.42674 0.0
C522 C 0.437 0.45515 0.4053 0.0
O523 O 0.38162 0.38758 0.4149 0.0
Tb524 Tb 0.39539 0.41064 0.38129 0.0
C525 C 0.35259 0.42324 0.35635 0.0
O526 O 0.41711 0.35927 0.4123 0.0
O527 O 0.41658 0.37871 0.35621 0.0
C528 C 0.40171 0.35776 0.34663 0.0
O529 O 0.37591 0.35709 0.35363 0.0
O530 O 0.4534 0.43515 0.41127 0.0
O531 O 0.41303 0.44964 0.39683 0.0
O532 O 0.48561 0.37812 0.41988 0.0
C533 C 0.39089 0.36221 0.41584 0.0
C534 C 0.43047 0.40025 0.47745 0.0
O535 O 0.35204 0.40983 0.37773 0.0
O536 O 0.37735 0.42987 0.34911 0.0
C537 C 0.50547 0.39124 0.43151 0.0
O538 O 0.49984 0.4134 0.44683 0.0
O539 O 0.41971 0.41278 0.45899 0.0
O540 O 0.72989 0.63155 0.42581 0.0
Tb541 Tb 0.71983 0.66497 0.40042 0.0
C542 C 0.66452 0.69569 0.39176 0.0
O543 O 0.73034 0.69609 0.34471 0.0
Tb544 Tb 0.71693 0.73149 0.37013 0.0
C545 C 0.71155 0.77228 0.33683 0.0
O546 O 0.75409 0.67428 0.37344 0.0
O547 O 0.74928 0.74836 0.39361 0.0
C548 C 0.77396 0.7518 0.38284 0.0
O549 O 0.77954 0.74078 0.35946 0.0
O550 O 0.67782 0.67201 0.39286 0.0
O551 O 0.67659 0.72052 0.38749 0.0
O552 O 0.72373 0.6901 0.43634 0.0
C553 C 0.75123 0.68158 0.34965 0.0
C554 C 0.7238 0.61014 0.41072 0.0
O555 O 0.72398 0.74885 0.33176 0.0
O556 O 0.70171 0.77271 0.36074 0.0
C557 C 0.70955 0.68202 0.45728 0.0
O558 O 0.69168 0.66136 0.45502 0.0
O559 O 0.71541 0.61953 0.38956 0.0
O560 O 0.43576 0.67216 0.46866 0.0
Tb561 Tb 0.4451 0.68938 0.42998 0.0
C562 C 0.50216 0.71072 0.39962 0.0
O563 O 0.42405 0.75236 0.40651 0.0
Tb564 Tb 0.45027 0.73546 0.37467 0.0
C565 C 0.45184 0.76976 0.33452 0.0
O566 O 0.40781 0.70937 0.41943 0.0
O567 O 0.42573 0.69992 0.36127 0.0
C568 C 0.4012 0.70575 0.35571 0.0
O569 O 0.39245 0.73125 0.3616 0.0
O570 O 0.48826 0.69417 0.41619 0.0
O571 O 0.49111 0.72759 0.38391 0.0
O572 O 0.439 0.64488 0.41706 0.0
C573 C 0.40438 0.73673 0.41688 0.0
C574 C 0.44267 0.69464 0.48217 0.0
O575 O 0.45207 0.77796 0.35883 0.0
O576 O 0.45115 0.74237 0.33294 0.0
C577 C 0.45481 0.62463 0.42335 0.0
O578 O 0.4755 0.63154 0.43685 0.0
O579 O 0.45122 0.71395 0.4662 0.0
O580 O 0.74331 0.40653 0.47285 0.0
Tb581 Tb 0.72589 0.38171 0.44137 0.0
C582 C 0.6647 0.36359 0.42679 0.0
O583 O 0.74029 0.31235 0.416 0.0
Tb584 Tb 0.71207 0.33461 0.39419 0.0
C585 C 0.70951 0.31088 0.34669 0.0
O586 O 0.75978 0.35327 0.43198 0.0
O587 O 0.73562 0.37318 0.38944 0.0
C588 C 0.7602 0.37032 0.37919 0.0
O589 O 0.76871 0.34491 0.37242 0.0
O590 O 0.68232 0.38125 0.43718 0.0
O591 O 0.67198 0.34152 0.41192 0.0
O592 O 0.73125 0.42207 0.42226 0.0
C593 C 0.7605 0.32573 0.42663 0.0
C594 C 0.73048 0.3934 0.49162 0.0
O595 O 0.70976 0.29723 0.36795 0.0
O596 O 0.71039 0.33784 0.35228 0.0
C597 C 0.71895 0.44405 0.43366 0.0
O598 O 0.70369 0.44017 0.45498 0.0
O599 O 0.71507 0.37352 0.48211 0.0
O600 O 0.47406 0.4066 0.6684 0.0
Tb601 Tb 0.43497 0.41803 0.68638 0.0
C602 C 0.41378 0.48249 0.69378 0.0
O603 O 0.41961 0.42212 0.74836 0.0
Tb604 Tb 0.38609 0.43833 0.73005 0.0
C605 C 0.34707 0.44379 0.76754 0.0
O606 O 0.42701 0.38792 0.71733 0.0
O607 O 0.37515 0.40374 0.70371 0.0
C608 C 0.36838 0.37962 0.71426 0.0
O609 O 0.36937 0.37773 0.73939 0.0
O610 O 0.42522 0.46186 0.67937 0.0
O611 O 0.39915 0.4783 0.71535 0.0
O612 O 0.42448 0.39835 0.64931 0.0
C613 C 0.42757 0.39665 0.74177 0.0
C614 C 0.4881 0.42133 0.68458 0.0
O615 O 0.37224 0.44013 0.7708 0.0
O616 O 0.34382 0.44483 0.74289 0.0
C617 C 0.41221 0.41225 0.63222 0.0
O618 O 0.40133 0.43649 0.63937 0.0
O619 O 0.47222 0.43433 0.70184 0.0
O620 O 0.81341 0.67135 0.732 0.0
Tb621 Tb 0.79095 0.68934 0.70244 0.0
C622 C 0.74272 0.73146 0.70026 0.0
O623 O 0.73197 0.66529 0.68853 0.0
Tb624 Tb 0.71241 0.69505 0.66476 0.0
C625 C 0.65971 0.69396 0.66194 0.0
O626 O 0.7753 0.65035 0.68481 0.0
O627 O 0.73037 0.68785 0.62561 0.0
C628 C 0.72891 0.70688 0.60797 0.0
O629 O 0.72092 0.73233 0.61532 0.0
O630 O 0.75956 0.71357 0.68877 0.0
O631 O 0.72004 0.73223 0.68938 0.0
O632 O 0.82459 0.71205 0.68379 0.0
C633 C 0.74979 0.64647 0.67965 0.0
C634 C 0.8015 0.68522 0.7516 0.0
O635 O 0.67277 0.67544 0.67376 0.0
O636 O 0.67632 0.71265 0.65185 0.0
C637 C 0.82083 0.73106 0.66673 0.0
O638 O 0.79994 0.72817 0.6527 0.0
O639 O 0.78287 0.70081 0.74349 0.0
H640 H 0.21416 0.31743 0.22607 0.0
H641 H 0.19146 0.39085 0.27383 0.0
H642 H 0.18899 0.36281 0.31236 0.0
H643 H 0.1939 0.31752 0.33287 0.0
H644 H 0.21417 0.24336 0.28526 0.0
H645 H 0.21677 0.27134 0.24647 0.0
C646 C 0.20859 0.32722 0.24492 0.0
C647 C 0.20298 0.35622 0.24701 0.0
C648 C 0.20669 0.31078 0.26708 0.0
C649 C 0.19566 0.36855 0.27158 0.0
C650 C 0.19432 0.35254 0.29369 0.0
C651 C 0.19871 0.30748 0.31397 0.0
C652 C 0.20385 0.27843 0.31194 0.0
C653 C 0.19982 0.32365 0.29171 0.0
C654 C 0.20999 0.26567 0.28733 0.0
C655 C 0.21159 0.2817 0.26514 0.0
H656 H 0.85806 0.1718 0.25423 0.0
H657 H 0.78115 0.19057 0.29356 0.0
H658 H 0.80212 0.19864 0.33432 0.0
H659 H 0.84286 0.20665 0.35751 0.0
H660 H 0.91999 0.18727 0.31936 0.0
H661 H 0.89846 0.17244 0.27972 0.0
C662 C 0.84592 0.17711 0.27186 0.0
C663 C 0.81819 0.181 0.27082 0.0
C664 C 0.85814 0.18166 0.29545 0.0
C665 C 0.80258 0.18763 0.2938 0.0
C666 C 0.81454 0.19233 0.31715 0.0
C667 C 0.85484 0.19843 0.3407 0.0
C668 C 0.88289 0.1982 0.3412 0.0
C669 C 0.84238 0.19029 0.31803 0.0
C670 C 0.89829 0.18744 0.31944 0.0
C671 C 0.88601 0.17928 0.29669 0.0
H672 H 0.88538 0.80696 0.32987 0.0
H673 H 0.96196 0.84985 0.31585 0.0
H674 H 0.97413 0.81513 0.2808 0.0
H675 H 0.96117 0.77491 0.25172 0.0
H676 H 0.88422 0.73261 0.26648 0.0
H677 H 0.87414 0.76472 0.30364 0.0
C678 C 0.90489 0.80859 0.31935 0.0
C679 C 0.92264 0.83117 0.32531 0.0
C680 C 0.91158 0.78875 0.29916 0.0
C681 C 0.94794 0.8327 0.31169 0.0
C682 C 0.95481 0.81293 0.29152 0.0
C683 C 0.9423 0.77253 0.2632 0.0
C684 C 0.92341 0.75142 0.25604 0.0
C685 C 0.93652 0.79123 0.28468 0.0
C686 C 0.89914 0.74863 0.27134 0.0
C687 C 0.8933 0.76706 0.29263 0.0
H688 H 0.31356 0.87182 0.3714 0.0
H689 H 0.24331 0.90243 0.33904 0.0
H690 H 0.27165 0.93336 0.31106 0.0
H691 H 0.31695 0.94511 0.291 0.0
H692 H 0.38673 0.9145 0.32464 0.0
H693 H 0.3581 0.89064 0.35734 0.0
C694 C 0.3045 0.88586 0.35868 0.0
C695 C 0.27662 0.88476 0.35685 0.0
C696 C 0.32086 0.90335 0.34277 0.0
C697 C 0.26484 0.90309 0.34064 0.0
C698 C 0.28104 0.92055 0.32454 0.0
C699 C 0.32582 0.9339 0.30597 0.0
C700 C 0.35385 0.93111 0.30516 0.0
C701 C 0.30917 0.91995 0.32469 0.0
C702 C 0.36518 0.91672 0.32472 0.0
C703 C 0.34883 0.90292 0.34336 0.0
H704 H 0.18085 0.84243 0.73964 0.0
H705 H 0.2397 0.89818 0.77375 0.0
H706 H 0.24137 0.86695 0.80987 0.0
H707 H 0.22735 0.82277 0.83112 0.0
H708 H 0.16978 0.76635 0.79616 0.0
H709 H 0.16626 0.79888 0.76122 0.0
C710 C 0.1939 0.84791 0.75506 0.0
C711 C 0.21009 0.87272 0.75389 0.0
C712 C 0.19503 0.82965 0.77567 0.0
C713 C 0.22701 0.87927 0.77403 0.0
C714 C 0.228 0.86139 0.79475 0.0
C715 C 0.21388 0.81775 0.81595 0.0
C716 C 0.19879 0.79222 0.81624 0.0
C717 C 0.21227 0.83639 0.79568 0.0
C718 C 0.18157 0.78587 0.79638 0.0
C719 C 0.17959 0.80446 0.77637 0.0
H720 H 0.33715 0.15217 0.77875 0.0
H721 H 0.27714 0.21292 0.8042 0.0
H722 H 0.30263 0.22725 0.84131 0.0
H723 H 0.34522 0.22805 0.86201 0.0
H724 H 0.40667 0.16934 0.83559 0.0
H725 H 0.37718 0.14815 0.80379 0.0
C726 C 0.32936 0.16802 0.79281 0.0
C727 C 0.3055 0.18175 0.78861 0.0
C728 C 0.34454 0.17671 0.81375 0.0
C729 C 0.29556 0.20221 0.80694 0.0
C730 C 0.31019 0.2105 0.8281 0.0
C731 C 0.35196 0.21021 0.84965 0.0
C732 C 0.37823 0.20058 0.85077 0.0
C733 C 0.33523 0.19876 0.83102 0.0
C734 C 0.38656 0.17718 0.83501 0.0
C735 C 0.36977 0.16524 0.81667 0.0
H736 H 0.8903 0.30066 0.83361 0.0
H737 H 0.96494 0.34527 0.81406 0.0
H738 H 0.97664 0.30916 0.78034 0.0
H739 H 0.96371 0.2671 0.75379 0.0
H740 H 0.88964 0.22192 0.77467 0.0
H741 H 0.87973 0.25602 0.81029 0.0
C742 C 0.9093 0.30231 0.82219 0.0
C743 C 0.92658 0.3258 0.8262 0.0
C744 C 0.91587 0.28151 0.8028 0.0
C745 C 0.95125 0.32743 0.81142 0.0
C746 C 0.95789 0.30686 0.79199 0.0
C747 C 0.94556 0.26453 0.7663 0.0
C748 C 0.92718 0.24227 0.76109 0.0
C749 C 0.94006 0.28414 0.78709 0.0
C750 C 0.90391 0.23912 0.77779 0.0
C751 C 0.89823 0.2586 0.79829 0.0
H752 H 0.85157 0.94423 0.82966 0.0
H753 H 0.79114 0.95312 0.77529 0.0
H754 H 0.75654 0.93586 0.8069 0.0
H755 H 0.74634 0.90683 0.84481 0.0
H756 H 0.8086 0.89224 0.89585 0.0
H757 H 0.83944 0.92366 0.87135 0.0
C758 C 0.83068 0.9433 0.82509 0.0
C759 C 0.8239 0.94918 0.8001 0.0
C760 C 0.81127 0.93187 0.84276 0.0
C761 C 0.7968 0.94828 0.79439 0.0
C762 C 0.77706 0.9382 0.81238 0.0
C763 C 0.76631 0.91155 0.85109 0.0
C764 C 0.7755 0.89717 0.87174 0.0
C765 C 0.7844 0.92818 0.83591 0.0
C766 C 0.80137 0.90306 0.87978 0.0
C767 C 0.81901 0.92082 0.86568 0.0
H768 H 0.29077 0.19623 0.23677 0.0
H769 H 0.36035 0.16618 0.27073 0.0
H770 H 0.3338 0.15974 0.31184 0.0
H771 H 0.2914 0.16707 0.33929 0.0
H772 H 0.22108 0.19278 0.30371 0.0
H773 H 0.24711 0.19674 0.26217 0.0
C774 C 0.29989 0.18756 0.25301 0.0
C775 C 0.32739 0.18152 0.25076 0.0
C776 C 0.28443 0.1837 0.27642 0.0
C777 C 0.3391 0.1705 0.27191 0.0
C778 C 0.32398 0.16716 0.2955 0.0
C779 C 0.28183 0.1732 0.3223 0.0
C780 C 0.25457 0.18031 0.32456 0.0
C781 C 0.29677 0.17437 0.29818 0.0
C782 C 0.24217 0.18779 0.30246 0.0
C783 C 0.25702 0.18991 0.27869 0.0
H784 H 0.93541 0.28266 0.30414 0.0
H785 H 0.93878 0.34172 0.36959 0.0
H786 H 0.93155 0.38077 0.34182 0.0
H787 H 0.92323 0.39808 0.29952 0.0
H788 H 0.91847 0.33972 0.23366 0.0
H789 H 0.92731 0.30046 0.26098 0.0
C790 C 0.93475 0.30413 0.31223 0.0
C791 C 0.93774 0.30932 0.33891 0.0
C792 C 0.93024 0.32655 0.29611 0.0
C793 C 0.9366 0.33718 0.34916 0.0
C794 C 0.93243 0.35951 0.33329 0.0
C795 C 0.92419 0.37682 0.29097 0.0
C796 C 0.92018 0.37195 0.26445 0.0
C797 C 0.92905 0.35444 0.30681 0.0
C798 C 0.92148 0.34415 0.25394 0.0
C799 C 0.92653 0.32168 0.2696 0.0
H800 H 0.8231 0.95932 0.24011 0.0
H801 H 0.75211 0.95232 0.29222 0.0
H802 H 0.78007 0.94595 0.32831 0.0
H803 H 0.82464 0.93686 0.34403 0.0
H804 H 0.89492 0.94174 0.29087 0.0
H805 H 0.86731 0.95425 0.25631 0.0
C806 C 0.81366 0.95696 0.25942 0.0
C807 C 0.78548 0.95605 0.26332 0.0
C808 C 0.82979 0.9524 0.2799 0.0
C809 C 0.77374 0.95305 0.28858 0.0
C810 C 0.78973 0.94916 0.30923 0.0
C811 C 0.83385 0.94097 0.32494 0.0
C812 C 0.86171 0.93812 0.31992 0.0
C813 C 0.81775 0.94787 0.30496 0.0
C814 C 0.87347 0.94358 0.29515 0.0
C815 C 0.85771 0.95078 0.27537 0.0
H816 H 0.21345 0.80922 0.30212 0.0
H817 H 0.21086 0.73609 0.34911 0.0
H818 H 0.21566 0.70523 0.31018 0.0
H819 H 0.22275 0.69916 0.26329 0.0
H820 H 0.22639 0.77177 0.21558 0.0
H821 H 0.21873 0.8028 0.25436 0.0
C822 C 0.21366 0.7865 0.30377 0.0
C823 C 0.21183 0.77488 0.32842 0.0
C824 C 0.21667 0.76888 0.28125 0.0
C825 C 0.21221 0.74548 0.33035 0.0
C826 C 0.21501 0.72785 0.30811 0.0
C827 C 0.22174 0.72177 0.26126 0.0
C828 C 0.22529 0.73316 0.23656 0.0
C829 C 0.2176 0.73935 0.28353 0.0
C830 C 0.22369 0.76248 0.23435 0.0
C831 C 0.21941 0.78021 0.25653 0.0
H832 H 0.25615 0.9619 0.78804 0.0
H833 H 0.31714 0.9785 0.72699 0.0
H834 H 0.35215 0.97256 0.75692 0.0
H835 H 0.36534 0.95729 0.79902 0.0
H836 H 0.30411 0.93783 0.85896 0.0
H837 H 0.26923 0.95011 0.83083 0.0
C838 C 0.27706 0.9649 0.78136 0.0
C839 C 0.28399 0.97059 0.75524 0.0
C840 C 0.29705 0.96039 0.79839 0.0
C841 C 0.31125 0.97412 0.74697 0.0
C842 C 0.33128 0.97051 0.76403 0.0
C843 C 0.34436 0.95605 0.80598 0.0
C844 C 0.33723 0.94649 0.83093 0.0
C845 C 0.32442 0.96274 0.78954 0.0
C846 C 0.31003 0.94499 0.83977 0.0
C847 C 0.29011 0.95204 0.8237 0.0
H848 H 0.21475 0.31016 0.79508 0.0
H849 H 0.21142 0.2372 0.84233 0.0
H850 H 0.2174 0.20625 0.80363 0.0
H851 H 0.22312 0.19967 0.75661 0.0
H852 H 0.22631 0.2716 0.70835 0.0
H853 H 0.22054 0.30329 0.74711 0.0
C854 C 0.21519 0.28747 0.79683 0.0
C855 C 0.21252 0.27596 0.82157 0.0
C856 C 0.21869 0.26969 0.77435 0.0
C857 C 0.21327 0.24657 0.82356 0.0
C858 C 0.21676 0.22885 0.80143 0.0
C859 C 0.2231 0.22234 0.75456 0.0
C860 C 0.22587 0.23337 0.72971 0.0
C861 C 0.21957 0.24017 0.77679 0.0
C862 C 0.2246 0.26268 0.72731 0.0
C863 C 0.22126 0.28073 0.74946 0.0
H864 H 0.82439 0.23541 0.77761 0.0
H865 H 0.82013 0.15255 0.74006 0.0
H866 H 0.7867 0.13747 0.77401 0.0
H867 H 0.75934 0.14756 0.81511 0.0
H868 H 0.76553 0.22982 0.8532 0.0
H869 H 0.79724 0.24548 0.81825 0.0
C870 C 0.81608 0.21405 0.77663 0.0
C871 C 0.82485 0.19518 0.75603 0.0
C872 C 0.79705 0.20547 0.79637 0.0
C873 C 0.81384 0.16757 0.75548 0.0
C874 C 0.7947 0.15894 0.77497 0.0
C875 C 0.76749 0.16899 0.81566 0.0
C876 C 0.75935 0.18779 0.8365 0.0
C877 C 0.78625 0.17765 0.79561 0.0
C878 C 0.77058 0.21526 0.83707 0.0
C879 C 0.78899 0.22411 0.81715 0.0
H880 H 0.94607 0.7771 0.80445 0.0
H881 H 0.94687 0.8388 0.86804 0.0
H882 H 0.93783 0.87614 0.8389 0.0
H883 H 0.92788 0.89092 0.79592 0.0
H884 H 0.92567 0.82925 0.73229 0.0
H885 H 0.93704 0.79224 0.76088 0.0
C886 C 0.94458 0.79879 0.81184 0.0
C887 C 0.94727 0.80523 0.83836 0.0
C888 C 0.93892 0.82009 0.79501 0.0
C889 C 0.94499 0.83334 0.84771 0.0
C890 C 0.93973 0.85467 0.83107 0.0
C891 C 0.92998 0.86942 0.78818 0.0
C892 C 0.92589 0.86296 0.7619 0.0
C893 C 0.93635 0.84824 0.80476 0.0
C894 C 0.92875 0.83491 0.75236 0.0
C895 C 0.93523 0.8137 0.76873 0.0
H896 H 0.38612 0.29744 0.17915 0.0
H897 H 0.33381 0.23879 0.13962 0.0
H898 H 0.30607 0.27749 0.12867 0.0
H899 H 0.29202 0.32578 0.13797 0.0
H900 H 0.34137 0.38384 0.18141 0.0
H901 H 0.37551 0.34792 0.18255 0.0
C902 C 0.36901 0.29335 0.16761 0.0
C903 C 0.3615 0.26552 0.16061 0.0
C904 C 0.3526 0.31556 0.16228 0.0
C905 C 0.33952 0.26018 0.14555 0.0
C906 C 0.3237 0.28224 0.13929 0.0
C907 C 0.3106 0.33076 0.14708 0.0
C908 C 0.3141 0.35693 0.1601 0.0
C909 C 0.32931 0.30972 0.14871 0.0
C910 C 0.33828 0.36355 0.1715 0.0
C911 C 0.35764 0.34298 0.17234 0.0
H912 H 0.32457 0.75553 0.86848 0.0
H913 H 0.26159 0.79645 0.91622 0.0
H914 H 0.29344 0.83358 0.92929 0.0
H915 H 0.33842 0.85674 0.92436 0.0
H916 H 0.40217 0.81456 0.87891 0.0
H917 H 0.37102 0.77575 0.86793 0.0
C918 C 0.31788 0.77234 0.88207 0.0
C919 C 0.29052 0.77315 0.89121 0.0
C920 C 0.33649 0.79359 0.88981 0.0
C921 C 0.2824 0.79507 0.90893 0.0
C922 C 0.30063 0.81649 0.91631 0.0
C923 C 0.34561 0.83882 0.91239 0.0
C924 C 0.37267 0.83875 0.90237 0.0
C925 C 0.32761 0.8163 0.90647 0.0
C926 C 0.38161 0.8152 0.88705 0.0
C927 C 0.36369 0.79303 0.88062 0.0
H928 H 0.35222 0.22905 0.92199 0.0
H929 H 0.40188 0.30395 0.93241 0.0
H930 H 0.36256 0.33338 0.93309 0.0
H931 H 0.31367 0.33881 0.92901 0.0
H932 H 0.26403 0.26396 0.91791 0.0
H933 H 0.30301 0.23442 0.91917 0.0
C934 C 0.35443 0.25175 0.92484 0.0
C935 C 0.38039 0.26394 0.92731 0.0
C936 C 0.33142 0.269 0.92486 0.0
C937 C 0.38245 0.29364 0.93048 0.0
C938 C 0.35982 0.31068 0.93082 0.0
C939 C 0.31125 0.31604 0.9271 0.0
C940 C 0.28544 0.30402 0.92342 0.0
C941 C 0.33412 0.29875 0.92775 0.0
C942 C 0.28328 0.27426 0.92079 0.0
C943 C 0.30575 0.25711 0.92151 0.0
H944 H 0.77367 0.33656 0.88511 0.0
H945 H 0.79836 0.25842 0.91446 0.0
H946 H 0.84196 0.28053 0.92392 0.0
H947 H 0.8742 0.32228 0.92167 0.0
H948 H 0.84665 0.39982 0.89278 0.0
H949 H 0.80363 0.3777 0.88524 0.0
C950 C 0.78845 0.32428 0.89376 0.0
C951 C 0.78263 0.29578 0.89896 0.0
C952 C 0.81335 0.33707 0.89902 0.0
C953 C 0.80212 0.28043 0.91037 0.0
C954 C 0.82718 0.29307 0.91562 0.0
C955 C 0.85872 0.33433 0.91389 0.0
C956 C 0.86422 0.36275 0.90749 0.0
C957 C 0.83324 0.3214 0.90972 0.0
C958 C 0.84361 0.37791 0.89754 0.0
C959 C 0.8187 0.36529 0.89328 0.0
H960 H 0.77342 0.76333 0.9155 0.0
H961 H 0.80497 0.84414 0.94264 0.0
H962 H 0.84916 0.82446 0.9442 0.0
H963 H 0.87994 0.78484 0.93701 0.0
H964 H 0.84919 0.70333 0.91137 0.0
H965 H 0.8043 0.72257 0.91019 0.0
C966 C 0.78989 0.7766 0.92192 0.0
C967 C 0.78541 0.80538 0.92891 0.0
C968 C 0.81576 0.76498 0.92304 0.0
C969 C 0.80733 0.822 0.93717 0.0
C970 C 0.83287 0.81075 0.93803 0.0
C971 C 0.86342 0.77117 0.93132 0.0
C972 C 0.86822 0.74255 0.92436 0.0
C973 C 0.83744 0.78235 0.9309 0.0
C974 C 0.8463 0.72533 0.9171 0.0
C975 C 0.82051 0.7364 0.91629 0.0
H976 H 0.89575 0.80759 0.18269 0.0
H977 H 0.84274 0.7583 0.13518 0.0
H978 H 0.82093 0.80102 0.12396 0.0
H979 H 0.81148 0.85037 0.13422 0.0
H980 H 0.86069 0.8994 0.18551 0.0
H981 H 0.89014 0.85927 0.18796 0.0
C982 C 0.87983 0.80643 0.16945 0.0
C983 C 0.87042 0.78003 0.1601 0.0
C984 C 0.8667 0.83103 0.16385 0.0
C985 C 0.84989 0.77851 0.14292 0.0
C986 C 0.83747 0.80288 0.13646 0.0
C987 C 0.82913 0.85251 0.14531 0.0
C988 C 0.83374 0.87742 0.16003 0.0
C989 C 0.84489 0.82902 0.14776 0.0
C990 C 0.85675 0.88024 0.17411 0.0
C991 C 0.87337 0.8572 0.17576 0.0
H992 H 0.28293 0.79286 0.20479 0.0
H993 H 0.35016 0.73931 0.18477 0.0
H994 H 0.3809 0.78049 0.1853 0.0
H995 H 0.38886 0.83045 0.19914 0.0
H996 H 0.32145 0.88421 0.21726 0.0
H997 H 0.29033 0.84445 0.20929 0.0
C998 C 0.30422 0.79046 0.19968 0.0
C999 C 0.31444 0.76331 0.19488 0.0
C1000 C 0.32165 0.81421 0.19991 0.0
C1001 C 0.34196 0.76015 0.18831 0.0
C1002 C 0.35952 0.78364 0.18887 0.0
C1003 C 0.36736 0.83355 0.2003 0.0
C1004 C 0.35726 0.86 0.20861 0.0
C1005 C 0.34968 0.81059 0.19569 0.0
C1006 C 0.32947 0.86399 0.21052 0.0
C1007 C 0.31174 0.84123 0.20624 0.0
H1008 H 0.76585 0.30193 0.22637 0.0
H1009 H 0.83561 0.27194 0.18087 0.0
H1010 H 0.8546 0.32024 0.17975 0.0
H1011 H 0.85321 0.37014 0.1961 0.0
H1012 H 0.78177 0.39968 0.23964 0.0
H1013 H 0.76138 0.35255 0.23674 0.0
C1014 C 0.78496 0.30611 0.21577 0.0
C1015 C 0.79947 0.28357 0.20389 0.0
C1016 C 0.79548 0.33381 0.21498 0.0
C1017 C 0.82409 0.2891 0.19005 0.0
C1018 C 0.835 0.31665 0.18958 0.0
C1019 C 0.83298 0.36635 0.20449 0.0
C1020 C 0.81921 0.38838 0.21834 0.0
C1021 C 0.82117 0.33908 0.2026 0.0
C1022 C 0.7929 0.38319 0.2289 0.0
C1023 C 0.78122 0.35615 0.2274 0.0
H1024 H 0.84419 0.6589 0.76836 0.0
H1025 H 0.7834 0.71937 0.7923 0.0
H1026 H 0.80693 0.7324 0.83105 0.0
H1027 H 0.84785 0.73152 0.85437 0.0
H1028 H 0.90996 0.67289 0.8296 0.0
H1029 H 0.8826 0.65374 0.79515 0.0
C1030 C 0.8358 0.67446 0.78238 0.0
C1031 C 0.81226 0.68838 0.77741 0.0
C1032 C 0.84982 0.68234 0.80427 0.0
C1033 C 0.80152 0.70844 0.79571 0.0
C1034 C 0.81506 0.716 0.81777 0.0
C1035 C 0.85525 0.71423 0.84167 0.0
C1036 C 0.88109 0.70395 0.84417 0.0
C1037 C 0.83971 0.70387 0.82167 0.0
C1038 C 0.8902 0.68123 0.82796 0.0
C1039 C 0.87462 0.67043 0.80817 0.0
H1040 H 0.24695 0.39624 0.83162 0.0
H1041 H 0.3091 0.37705 0.88127 0.0
H1042 H 0.34109 0.40742 0.85678 0.0
H1043 H 0.35314 0.43138 0.81679 0.0
H1044 H 0.2928 0.44504 0.76336 0.0
H1045 H 0.2581 0.42555 0.79386 0.0
C1046 C 0.26728 0.39962 0.83747 0.0
C1047 C 0.27589 0.38478 0.8581 0.0
C1048 C 0.28588 0.41574 0.82234 0.0
C1049 C 0.30227 0.38854 0.86542 0.0
C1050 C 0.32052 0.4057 0.85135 0.0
C1051 C 0.33228 0.43078 0.81212 0.0
C1052 C 0.32547 0.43923 0.78784 0.0
C1053 C 0.31286 0.41824 0.82906 0.0
C1054 C 0.29844 0.43846 0.78196 0.0
C1055 C 0.27867 0.42715 0.79931 0.0
H1056 H 0.3476 0.70018 0.35455 0.0
H1057 H 0.42163 0.67271 0.3149 0.0
H1058 H 0.39726 0.65543 0.27769 0.0
H1059 H 0.35569 0.65529 0.25398 0.0
H1060 H 0.28192 0.68264 0.2946 0.0
H1061 H 0.30526 0.69264 0.33382 0.0
C1062 C 0.35824 0.68962 0.33805 0.0
C1063 C 0.38631 0.68784 0.33732 0.0
C1064 C 0.34417 0.6802 0.31668 0.0
C1065 C 0.39996 0.67409 0.31595 0.0
C1066 C 0.38606 0.66456 0.29454 0.0
C1067 C 0.3447 0.66286 0.2716 0.0
C1068 C 0.31724 0.66862 0.27129 0.0
C1069 C 0.35831 0.66859 0.29426 0.0
C1070 C 0.30312 0.67821 0.29428 0.0
C1071 C 0.31645 0.68401 0.31674 0.0
H1072 H 0.74986 0.4177 0.35501 0.0
H1073 H 0.81111 0.37615 0.39274 0.0
H1074 H 0.84536 0.40865 0.37437 0.0
H1075 H 0.85865 0.43955 0.33923 0.0
H1076 H 0.79838 0.4759 0.29612 0.0
H1077 H 0.76292 0.45602 0.32547 0.0
C1078 C 0.77058 0.41664 0.35989 0.0
C1079 C 0.7783 0.39463 0.37478 0.0
C1080 C 0.79034 0.43429 0.34795 0.0
C1081 C 0.80504 0.39295 0.38102 0.0
C1082 C 0.82457 0.41141 0.37046 0.0
C1083 C 0.83777 0.44393 0.33683 0.0
C1084 C 0.83097 0.45836 0.31526 0.0
C1085 C 0.81766 0.43084 0.35257 0.0
C1086 C 0.80398 0.46442 0.31248 0.0
C1087 C 0.78371 0.45279 0.32907 0.0
H1088 H 0.247 0.68069 0.80124 0.0
H1089 H 0.29633 0.66244 0.86326 0.0
H1090 H 0.33466 0.65449 0.8319 0.0
H1091 H 0.35506 0.65665 0.78718 0.0
H1092 H 0.30524 0.67452 0.72531 0.0
H1093 H 0.26621 0.67815 0.75623 0.0
C1094 C 0.26608 0.67474 0.80792 0.0
C1095 C 0.26882 0.67247 0.83465 0.0
C1096 C 0.28799 0.6701 0.78976 0.0
C1097 C 0.29361 0.66436 0.84286 0.0
C1098 C 0.31558 0.6599 0.8249 0.0
C1099 C 0.33559 0.66086 0.78034 0.0
C1100 C 0.33328 0.66552 0.75385 0.0
C1101 C 0.31314 0.66322 0.79834 0.0
C1102 C 0.30777 0.67083 0.74548 0.0
C1103 C 0.28539 0.67311 0.76321 0.0
H1104 H 0.83291 0.43667 0.83757 0.0
H1105 H 0.90055 0.44251 0.78143 0.0
H1106 H 0.87029 0.45072 0.74745 0.0
H1107 H 0.82438 0.45127 0.73304 0.0
H1108 H 0.75678 0.44498 0.7894 0.0
H1109 H 0.78725 0.44261 0.82398 0.0
C1110 C 0.84102 0.44012 0.81795 0.0
C1111 C 0.86886 0.4387 0.81191 0.0
C1112 C 0.8235 0.44475 0.79855 0.0
C1113 C 0.87916 0.4434 0.7865 0.0
C1114 C 0.86186 0.44805 0.76707 0.0
C1115 C 0.81626 0.44998 0.75293 0.0
C1116 C 0.78825 0.44797 0.75849 0.0
C1117 C 0.83394 0.4481 0.77276 0.0
C1118 C 0.7782 0.44641 0.78445 0.0
C1119 C 0.79563 0.44487 0.80428 0.0
H1120 H 0.34956 0.45355 0.31322 0.0
H1121 H 0.30423 0.3964 0.3632 0.0
H1122 H 0.26952 0.39121 0.33233 0.0
H1123 H 0.25593 0.397 0.28835 0.0
H1124 H 0.30043 0.45435 0.23816 0.0
H1125 H 0.33126 0.46606 0.27209 0.0
C1126 C 0.33177 0.44049 0.31754 0.0
C1127 C 0.3296 0.425 0.34018 0.0
C1128 C 0.31184 0.43759 0.29965 0.0
C1129 C 0.30639 0.40837 0.3458 0.0
C1130 C 0.28658 0.40531 0.32812 0.0
C1131 C 0.27191 0.41272 0.28521 0.0
C1132 C 0.27616 0.42468 0.2609 0.0
C1133 C 0.28963 0.41897 0.30459 0.0
C1134 C 0.29676 0.44507 0.25687 0.0
C1135 C 0.31455 0.45147 0.27614 0.0
H1136 H 0.75232 0.69382 0.29828 0.0
H1137 H 0.79855 0.65509 0.35395 0.0
H1138 H 0.83487 0.64687 0.32072 0.0
H1139 H 0.85475 0.65295 0.27654 0.0
H1140 H 0.80904 0.69216 0.22079 0.0
H1141 H 0.77131 0.69744 0.25318 0.0
C1142 C 0.77024 0.6834 0.30314 0.0
C1143 C 0.7726 0.67524 0.32876 0.0
C1144 C 0.79124 0.67873 0.28385 0.0
C1145 C 0.79606 0.66171 0.33453 0.0
C1146 C 0.81692 0.65697 0.31549 0.0
C1147 C 0.83642 0.6623 0.27128 0.0
C1148 C 0.83491 0.67217 0.24613 0.0
C1149 C 0.81489 0.66567 0.29016 0.0
C1150 C 0.81089 0.68428 0.23988 0.0
C1151 C 0.7893 0.68747 0.25849 0.0
H1152 H 0.37286 0.79839 0.67181 0.0
H1153 H 0.30509 0.74098 0.66398 0.0
H1154 H 0.27543 0.78071 0.66153 0.0
H1155 H 0.26807 0.83148 0.66684 0.0
H1156 H 0.33542 0.88904 0.67628 0.0
H1157 H 0.36612 0.84954 0.67261 0.0
C1158 C 0.35168 0.79467 0.6691 0.0
C1159 C 0.34099 0.76703 0.66837 0.0
C1160 C 0.33471 0.81757 0.66825 0.0
C1161 C 0.31362 0.76223 0.66478 0.0
C1162 C 0.29667 0.78489 0.66346 0.0
C1163 C 0.28952 0.83534 0.66773 0.0
C1164 C 0.29957 0.86286 0.67215 0.0
C1165 C 0.30687 0.8126 0.66601 0.0
C1166 C 0.32733 0.86784 0.67305 0.0
C1167 C 0.34484 0.84532 0.67102 0.0
H1168 H 0.33834 0.35989 0.43331 0.0
H1169 H 0.39954 0.3105 0.39122 0.0
H1170 H 0.36567 0.27443 0.38028 0.0
H1171 H 0.31808 0.25904 0.3795 0.0
H1172 H 0.25702 0.30725 0.42305 0.0
H1173 H 0.29142 0.3415 0.43693 0.0
C1174 C 0.34433 0.34099 0.42209 0.0
C1175 C 0.37147 0.33804 0.41291 0.0
C1176 C 0.32473 0.32022 0.41606 0.0
C1177 C 0.37892 0.31329 0.39864 0.0
C1178 C 0.35948 0.29274 0.39223 0.0
C1179 C 0.31232 0.27685 0.39234 0.0
C1180 C 0.28493 0.28072 0.40006 0.0
C1181 C 0.33225 0.29629 0.40036 0.0
C1182 C 0.27788 0.30371 0.4169 0.0
C1183 C 0.29757 0.32339 0.42469 0.0
H1184 H 0.28078 0.77027 0.4243 0.0
H1185 H 0.31718 0.85381 0.42133 0.0
H1186 H 0.36169 0.83374 0.41987 0.0
H1187 H 0.39091 0.79255 0.41838 0.0
H1188 H 0.35523 0.70886 0.42252 0.0
H1189 H 0.31035 0.7288 0.42474 0.0
C1190 C 0.29842 0.78413 0.42346 0.0
C1191 C 0.29525 0.81371 0.42293 0.0
C1192 C 0.32436 0.77236 0.42285 0.0
C1193 C 0.31862 0.8311 0.42189 0.0
C1194 C 0.34427 0.81959 0.42099 0.0
C1195 C 0.37337 0.77858 0.41993 0.0
C1196 C 0.37677 0.74907 0.42027 0.0
C1197 C 0.34746 0.79026 0.42133 0.0
C1198 C 0.35353 0.73157 0.42237 0.0
C1199 C 0.32772 0.74302 0.42353 0.0
H1200 H 0.82872 0.75136 0.37573 0.0
H1201 H 0.76411 0.79844 0.41478 0.0
H1202 H 0.79603 0.83603 0.42696 0.0
H1203 H 0.84209 0.85739 0.42351 0.0
H1204 H 0.90706 0.80851 0.38746 0.0
H1205 H 0.87545 0.77 0.37714 0.0
C1206 C 0.82167 0.76962 0.38731 0.0
C1207 C 0.79392 0.77201 0.39424 0.0
C1208 C 0.84027 0.79105 0.39457 0.0
C1209 C 0.78526 0.79583 0.40933 0.0
C1210 C 0.80354 0.8175 0.41612 0.0
C1211 C 0.84936 0.83813 0.41371 0.0
C1212 C 0.87698 0.83602 0.40613 0.0
C1213 C 0.83104 0.81564 0.40841 0.0
C1214 C 0.88603 0.81075 0.39366 0.0
C1215 C 0.86788 0.78872 0.38764 0.0
H1216 H 0.77271 0.26852 0.41963 0.0
H1217 H 0.80793 0.35016 0.43955 0.0
H1218 H 0.85123 0.32905 0.44225 0.0
H1219 H 0.88018 0.28814 0.43793 0.0
H1220 H 0.84657 0.20574 0.41914 0.0
H1221 H 0.80209 0.22622 0.41735 0.0
C1222 C 0.7898 0.28168 0.4247 0.0
C1223 C 0.7866 0.31115 0.42929 0.0
C1224 C 0.81522 0.26922 0.42651 0.0
C1225 C 0.80928 0.32757 0.43589 0.0
C1226 C 0.83432 0.31548 0.43745 0.0
C1227 C 0.86313 0.27449 0.43363 0.0
C1228 C 0.86698 0.24531 0.4287 0.0
C1229 C 0.83762 0.28642 0.43267 0.0
C1230 C 0.8444 0.22817 0.42326 0.0
C1231 C 0.81889 0.23998 0.42207 0.0
H1232 H 0.85295 0.26807 0.64492 0.0
H1233 H 0.90277 0.3051 0.70263 0.0
H1234 H 0.88588 0.35199 0.69535 0.0
H1235 H 0.85033 0.37985 0.67881 0.0
H1236 H 0.79926 0.34154 0.62264 0.0
H1237 H 0.82408 0.2979 0.62209 0.0
C1238 C 0.86044 0.28656 0.6555 0.0
C1239 C 0.87837 0.28341 0.67471 0.0
C1240 C 0.8505 0.31311 0.65135 0.0
C1241 C 0.88862 0.30728 0.68796 0.0
C1242 C 0.87894 0.33398 0.68383 0.0
C1243 C 0.84538 0.3623 0.66572 0.0
C1244 C 0.82278 0.36346 0.65118 0.0
C1245 C 0.85896 0.33689 0.66642 0.0
C1246 C 0.81648 0.3408 0.63419 0.0
C1247 C 0.83045 0.31579 0.63409 0.0
H1248 H 0.3847 0.32643 0.71589 0.0
H1249 H 0.32991 0.37808 0.67944 0.0
H1250 H 0.30625 0.3356 0.66313 0.0
H1251 H 0.29712 0.28423 0.66577 0.0
H1252 H 0.35328 0.23311 0.70157 0.0
H1253 H 0.38084 0.27484 0.71099 0.0
C1254 C 0.36801 0.32826 0.70376 0.0
C1255 C 0.35871 0.35506 0.69904 0.0
C1256 C 0.35465 0.30388 0.69456 0.0
C1257 C 0.33731 0.35749 0.6832 0.0
C1258 C 0.32371 0.33325 0.67409 0.0
C1259 C 0.31573 0.28212 0.67504 0.0
C1260 C 0.3227 0.25564 0.68353 0.0
C1261 C 0.33155 0.30635 0.68058 0.0
C1262 C 0.34714 0.25323 0.69512 0.0
C1263 C 0.36292 0.27714 0.70067 0.0
H1264 H 0.84166 0.86175 0.68406 0.0
H1265 H 0.86318 0.83242 0.75742 0.0
H1266 H 0.85981 0.78373 0.74122 0.0
H1267 H 0.84701 0.74958 0.70823 0.0
H1268 H 0.81993 0.7771 0.63632 0.0
H1269 H 0.83005 0.82632 0.64953 0.0
C1270 C 0.84563 0.8446 0.69634 0.0
C1271 C 0.85216 0.85057 0.72198 0.0
C1272 C 0.84291 0.81637 0.68711 0.0
C1273 C 0.85748 0.82831 0.73778 0.0
C1274 C 0.8558 0.80045 0.72848 0.0
C1275 C 0.84378 0.76617 0.69508 0.0
C1276 C 0.83263 0.75964 0.67134 0.0
C1277 C 0.84804 0.79424 0.70341 0.0
C1278 C 0.82851 0.78158 0.65473 0.0
C1279 C 0.83404 0.80973 0.66239 0.0
H1280 H 0.73595 0.26941 0.79433 0.0
H1281 H 0.66693 0.30661 0.83587 0.0
H1282 H 0.66702 0.34354 0.80433 0.0
H1283 H 0.68831 0.36681 0.76655 0.0
H1284 H 0.75858 0.33074 0.7259 0.0
H1285 H 0.75647 0.29199 0.75553 0.0
C1286 C 0.72068 0.28535 0.79618 0.0
C1287 C 0.70135 0.28527 0.81726 0.0
C1288 C 0.7213 0.30695 0.77834 0.0
C1289 C 0.68192 0.30623 0.81971 0.0
C1290 C 0.68206 0.32742 0.80177 0.0
C1291 C 0.70314 0.35045 0.76405 0.0
C1292 C 0.72364 0.35189 0.74401 0.0
C1293 C 0.70194 0.32828 0.78127 0.0
C1294 C 0.74262 0.33037 0.74117 0.0
C1295 C 0.74142 0.30811 0.75809 0.0
H1296 H 0.37355 0.81722 0.82659 0.0
H1297 H 0.44702 0.86429 0.80827 0.0
H1298 H 0.45911 0.82961 0.77303 0.0
H1299 H 0.44719 0.7871 0.74576 0.0
H1300 H 0.3737 0.74041 0.76583 0.0
H1301 H 0.36338 0.77367 0.802 0.0
C1302 C 0.39237 0.81986 0.81507 0.0
C1303 C 0.40926 0.84352 0.82001 0.0
C1304 C 0.39911 0.7999 0.79498 0.0
C1305 C 0.43366 0.84632 0.80497 0.0
C1306 C 0.44048 0.82653 0.78471 0.0
C1307 C 0.42901 0.78411 0.75814 0.0
C1308 C 0.41119 0.76122 0.7528 0.0
C1309 C 0.42313 0.80343 0.77924 0.0
C1310 C 0.38781 0.7577 0.76926 0.0
C1311 C 0.38182 0.77679 0.79002 0.0
H1312 H 0.73925 0.77597 0.29052 0.0
H1313 H 0.68241 0.82044 0.34271 0.0
H1314 H 0.68244 0.85916 0.31276 0.0
H1315 H 0.69945 0.88064 0.27193 0.0
H1316 H 0.75783 0.83627 0.22105 0.0
H1317 H 0.75642 0.79736 0.25032 0.0
C1318 C 0.72676 0.79409 0.29528 0.0
C1319 C 0.71075 0.79537 0.31867 0.0
C1320 C 0.72725 0.81635 0.27823 0.0
C1321 C 0.69485 0.81903 0.32474 0.0
C1322 C 0.6949 0.84114 0.30764 0.0
C1323 C 0.71176 0.8624 0.2672 0.0
C1324 C 0.72868 0.86144 0.24425 0.0
C1325 C 0.71113 0.84009 0.28435 0.0
C1326 C 0.74469 0.83772 0.23858 0.0
C1327 C 0.74388 0.81536 0.25529 0.0
H1328 H 0.37829 0.30753 0.33312 0.0
H1329 H 0.44899 0.35939 0.31565 0.0
H1330 H 0.46318 0.32597 0.28011 0.0
H1331 H 0.45385 0.28327 0.25218 0.0
H1332 H 0.38292 0.23188 0.27084 0.0
H1333 H 0.37062 0.26379 0.30757 0.0
C1334 C 0.39695 0.31152 0.32169 0.0
C1335 C 0.41243 0.33617 0.32701 0.0
C1336 C 0.40488 0.29228 0.30129 0.0
C1337 C 0.43667 0.34066 0.31209 0.0
C1338 C 0.44471 0.32158 0.29164 0.0
C1339 C 0.43582 0.27891 0.26439 0.0
C1340 C 0.41933 0.25507 0.25848 0.0
C1341 C 0.42874 0.29751 0.28576 0.0
C1342 C 0.39608 0.24988 0.27472 0.0
C1343 C 0.38894 0.26822 0.2958 0.0
H1344 H 0.44383 0.33329 0.84445 0.0
H1345 H 0.45505 0.26246 0.79023 0.0
H1346 H 0.44921 0.29297 0.75412 0.0
H1347 H 0.43946 0.33998 0.73798 0.0
H1348 H 0.42867 0.41035 0.79314 0.0
H1349 H 0.43578 0.38002 0.82847 0.0
C1350 C 0.44519 0.32458 0.82472 0.0
C1351 C 0.44989 0.29567 0.82006 0.0
C1352 C 0.44178 0.34224 0.80407 0.0
C1353 C 0.45153 0.28469 0.79435 0.0
C1354 C 0.44812 0.30213 0.77368 0.0
C1355 C 0.43887 0.34869 0.75769 0.0
C1356 C 0.43347 0.37753 0.76269 0.0
C1357 C 0.44304 0.33098 0.77828 0.0
C1358 C 0.43272 0.38832 0.78849 0.0
C1359 C 0.43678 0.37096 0.80887 0.0
H1360 H 0.76003 0.80008 0.80555 0.0
H1361 H 0.68158 0.76308 0.82448 0.0
H1362 H 0.68286 0.73787 0.78232 0.0
H1363 H 0.70516 0.72798 0.73947 0.0
H1364 H 0.78424 0.76279 0.72013 0.0
H1365 H 0.78416 0.78701 0.76315 0.0
C1366 C 0.74329 0.78642 0.8004 0.0
C1367 C 0.72056 0.78368 0.81796 0.0
C1368 C 0.74436 0.77161 0.77614 0.0
C1369 C 0.69919 0.76563 0.81126 0.0
C1370 C 0.69991 0.75123 0.78716 0.0
C1371 C 0.72246 0.74074 0.74478 0.0
C1372 C 0.74464 0.74377 0.72678 0.0
C1373 C 0.72222 0.75431 0.76939 0.0
C1374 C 0.76702 0.76013 0.73381 0.0
C1375 C 0.76687 0.77403 0.75832 0.0
H1376 H 0.70922 0.25524 0.33316 0.0
H1377 H 0.7122 0.3376 0.30084 0.0
H1378 H 0.71659 0.316 0.25696 0.0
H1379 H 0.72166 0.27326 0.22774 0.0
H1380 H 0.71991 0.1914 0.26133 0.0
H1381 H 0.71263 0.21312 0.30445 0.0
C1382 C 0.71059 0.26844 0.3165 0.0
C1383 C 0.71039 0.2979 0.32019 0.0
C1384 C 0.71333 0.25591 0.29144 0.0
C1385 C 0.71226 0.31479 0.29845 0.0
C1386 C 0.7148 0.30246 0.27336 0.0
C1387 C 0.7194 0.26026 0.2445 0.0
C1388 C 0.72162 0.23078 0.24126 0.0
C1389 C 0.71562 0.27298 0.26958 0.0
C1390 C 0.71861 0.21417 0.26321 0.0
C1391 C 0.71443 0.22655 0.28797 0.0
H1392 H 0.43544 0.83438 0.23194 0.0
H1393 H 0.46124 0.90453 0.2809 0.0
H1394 H 0.46688 0.87312 0.3157 0.0
H1395 H 0.46249 0.82618 0.33369 0.0
H1396 H 0.43855 0.75501 0.2854 0.0
H1397 H 0.43429 0.78602 0.24928 0.0
C1398 C 0.4427 0.84266 0.25006 0.0
C1399 C 0.44765 0.87194 0.25367 0.0
C1400 C 0.44604 0.82427 0.2704 0.0
C1401 C 0.45697 0.88221 0.27745 0.0
C1402 C 0.46022 0.86424 0.29754 0.0
C1403 C 0.45648 0.81745 0.31521 0.0
C1404 C 0.45071 0.7884 0.3123 0.0
C1405 C 0.45441 0.83533 0.29445 0.0
C1406 C 0.44313 0.77736 0.28815 0.0
C1407 C 0.44066 0.7951 0.26747 0.0
H1408 H 0.18194 0.97999 0.44276 0.0
H1409 H 0.26028 0.96765 0.40391 0.0
H1410 H 0.26212 1.01713 0.39163 0.0
H1411 H 0.24153 0.06432 0.39288 0.0
H1412 H 0.16265 0.07515 0.43103 0.0
H1413 H 0.16097 1.02578 0.44269 0.0
C1414 C 0.1995 0.98804 0.43162 0.0
C1415 C 0.22107 0.97019 0.42447 0.0
C1416 C 0.20029 1.01628 0.42455 0.0
C1417 C 0.24344 0.98096 0.40973 0.0
C1418 C 0.2445 1.00926 0.40275 0.0
C1419 C 0.22399 0.05578 0.4037 0.0
C1420 C 0.20227 0.07335 0.4112 0.0
C1421 C 0.22308 1.02718 0.41019 0.0
C1422 C 0.1796 0.06206 0.42507 0.0
C1423 C 0.17865 1.03383 0.43176 0.0
H1424 H 1.03013 0.17592 0.4226 0.0
H1425 H 1.02666 0.26068 0.39598 0.0
H1426 H 1.07538 0.26391 0.39088 0.0
H1427 H 0.1199 0.24213 0.39169 0.0
H1428 H 0.12339 0.15691 0.41699 0.0
H1429 H 1.07474 0.15476 0.42491 0.0
C1430 C 1.03998 0.19519 0.41591 0.0
C1431 C 1.02423 0.21787 0.40958 0.0
C1432 C 1.06849 0.19695 0.41261 0.0
C1433 C 1.03781 0.24259 0.40082 0.0
C1434 C 1.06593 0.24458 0.3979 0.0
C1435 C 0.11006 0.22323 0.39924 0.0
C1436 C 0.12565 0.19973 0.40356 0.0
C1437 C 0.08161 0.22181 0.4034 0.0
C1438 C 0.11219 0.17535 0.41317 0.0
C1439 C 0.08417 0.17403 0.41777 0.0
H1440 H 0.97326 0.07852 0.45042 0.0
H1441 H 0.92153 0.10005 0.39132 0.0
H1442 H 0.91563 1.0499 0.37904 0.0
H1443 H 0.92415 0.99966 0.38581 0.0
H1444 H 0.97478 0.97839 0.44599 0.0
H1445 H 0.98207 1.02852 0.45694 0.0
C1446 C 0.96077 0.07237 0.43474 0.0
C1447 C 0.9479 0.09335 0.42182 0.0
C1448 C 0.95721 1.04336 0.42796 0.0
C1449 C 0.93171 0.08462 0.40165 0.0
C1450 C 0.92832 0.05584 0.39462 0.0
C1451 C 0.93699 1.00588 0.40121 0.0
C1452 C 0.94894 0.98488 0.41496 0.0
C1453 C 0.94085 1.03496 0.40771 0.0
C1454 C 0.96525 0.99375 0.43502 0.0
C1455 C 0.96944 1.02255 0.44132 0.0
H1456 H 1.05644 0.91941 0.43875 0.0
H1457 H 1.02985 0.84323 0.39873 0.0
H1458 H 0.0762 0.82667 0.39443 0.0
H1459 H 0.12478 0.83366 0.4028 0.0
H1460 H 0.14985 0.91073 0.4427 0.0
H1461 H 0.10392 0.92673 0.4463 0.0
C1462 C 1.06064 0.89919 0.42894 0.0
C1463 C 1.03938 0.88268 0.41908 0.0
C1464 C 0.08731 0.88977 0.42664 0.0
C1465 C 1.0456 0.85655 0.40645 0.0
C1466 C 1.0722 0.84699 0.40408 0.0
C1467 C 0.12019 0.85391 0.41236 0.0
C1468 C 0.14116 0.87084 0.42248 0.0
C1469 C 0.0933 0.86334 0.41426 0.0
C1470 C 0.13453 0.89712 0.43462 0.0
C1471 C 0.10809 0.9064 0.43672 0.0
H1472 H 0.24891 0.0974 0.71157 0.0
H1473 H 0.22805 0.1196 0.63579 0.0
H1474 H 0.20548 0.07323 0.62992 0.0
H1475 H 0.19451 1.02517 0.64561 0.0
H1476 H 0.21664 1.00429 0.7214 0.0
H1477 H 0.2364 1.05131 0.72782 0.0
C1478 C 0.23935 0.09226 0.69374 0.0
C1479 C 0.24017 0.11191 0.67409 0.0
C1480 C 0.22702 0.06562 0.69041 0.0
C1481 C 0.22744 0.10493 0.65128 0.0
C1482 C 0.21476 0.07835 0.64788 0.0
C1483 C 0.20354 1.03099 0.66357 0.0
C1484 C 0.20458 1.01096 0.68285 0.0
C1485 C 0.21484 0.05833 0.66718 0.0
C1486 C 0.21619 1.01893 0.70603 0.0
C1487 C 0.2273 1.04594 0.7098 0.0
H1488 H 1.04426 0.15682 0.65306 0.0
H1489 H 1.04294 0.18262 0.73396 0.0
H1490 H 0.09074 0.17303 0.73441 0.0
H1491 H 0.13369 0.16197 0.71071 0.0
H1492 H 0.13535 0.13581 0.6299 0.0
H1493 H 0.08654 0.13994 0.63065 0.0
C1494 C 1.05447 0.16013 0.67078 0.0
C1495 C 1.04032 0.17087 0.69333 0.0
C1496 C 0.08193 0.15428 0.67095 0.0
C1497 C 1.05354 0.17462 0.71631 0.0
C1498 C 0.08084 0.16909 0.71659 0.0
C1499 C 0.12326 0.15647 0.69344 0.0
C1500 C 0.13805 0.14882 0.67025 0.0
C1501 C 0.09534 0.15948 0.6939 0.0
C1502 C 0.12436 0.14169 0.64801 0.0
C1503 C 0.09649 0.14437 0.64836 0.0
H1504 H 0.94074 0.08693 0.64903 0.0
H1505 H 0.90443 0.11988 0.72188 0.0
H1506 H 0.8865 0.07297 0.73187 0.0
H1507 H 0.88557 1.02219 0.72231 0.0
H1508 H 0.92285 0.98834 0.65037 0.0
H1509 H 0.93551 1.03625 0.63731 0.0
C1510 C 0.92863 0.08392 0.66695 0.0
C1511 C 0.92434 0.10676 0.68491 0.0
C1512 C 0.91864 0.05679 0.67274 0.0
C1513 C 0.90833 0.10259 0.70788 0.0
C1514 C 0.89806 0.07578 0.71362 0.0
C1515 C 0.89618 1.02529 0.7036 0.0
C1516 C 0.90367 1.00182 0.68748 0.0
C1517 C 0.9038 0.05265 0.69656 0.0
C1518 C 0.91693 1.00612 0.66312 0.0
C1519 C 0.92433 1.03347 0.65576 0.0
H1520 H 1.01095 0.90489 0.65772 0.0
H1521 H 0.99865 0.95418 0.72925 0.0
H1522 H 1.04738 0.95854 0.7326 0.0
H1523 H 0.09326 0.94585 0.7161 0.0
H1524 H 0.10472 0.897 0.64415 0.0
H1525 H 1.05635 0.89491 0.63996 0.0
C1526 C 1.01898 0.91674 0.67396 0.0
C1527 C 1.00151 0.929 0.69334 0.0
C1528 C 1.04674 0.91906 0.6757 0.0
C1529 C 1.01193 0.94456 0.71415 0.0
C1530 C 1.03969 0.94695 0.7161 0.0
C1531 C 0.08507 0.93489 0.6995 0.0
C1532 C 0.10229 0.92137 0.68058 0.0
C1533 C 1.05725 0.93388 0.69717 0.0
C1534 C 0.0917 0.90744 0.65899 0.0
C1535 C 1.0641 0.90622 0.65658 0.0
H1536 H 0.45359 0.22478 0.10538 0.0
H1537 H 0.40345 0.14972 0.1137 0.0
H1538 H 0.40306 0.14405 0.06632 0.0
H1539 H 0.41698 0.16102 1.02213 0.0
H1540 H 0.46618 0.23698 1.01556 0.0
H1541 H 0.46691 0.24159 0.06253 0.0
C1542 C 0.44257 0.20703 0.097 0.0
C1543 C 0.42861 0.18764 0.11332 0.0
C1544 C 0.44226 0.2041 0.06987 0.0
C1545 C 0.41439 0.16498 0.10177 0.0
C1546 C 0.41418 0.16175 0.07462 0.0
C1547 C 0.42787 0.17853 1.03104 0.0
C1548 C 0.44157 0.19864 1.01522 0.0
C1549 C 0.42803 0.18124 0.0584 0.0
C1550 C 0.45548 0.22123 1.02713 0.0
C1551 C 0.45591 0.22389 0.05406 0.0
H1552 H 0.91926 0.37202 1.0245 0.0
H1553 H 0.9657 0.44814 1.0082 0.0
H1554 H 0.96227 0.46259 0.05385 0.0
H1555 H 0.94606 0.4544 0.09814 0.0
H1556 H 0.89978 0.37882 0.11639 0.0
H1557 H 0.90296 0.36352 0.07037 0.0
C1558 C 0.92872 0.39164 1.03106 0.0
C1559 C 0.94277 0.40894 1.01292 0.0
C1560 C 0.92654 0.40006 0.05766 0.0
C1561 C 0.9548 0.4344 1.02168 0.0
C1562 C 0.95281 0.44276 1.04782 0.0
C1563 C 0.93654 0.43456 0.09219 0.0
C1564 C 0.92262 0.41786 0.11079 0.0
C1565 C 0.93866 0.42588 0.06593 0.0
C1566 C 0.91055 0.39218 0.10252 0.0
C1567 C 0.91244 0.38339 0.07619 0.0
H1568 H 0.74504 0.92215 1.02166 0.0
H1569 H 0.69499 0.84724 1.03152 0.0
H1570 H 0.69288 0.85535 0.07845 0.0
H1571 H 0.70556 0.88331 0.1167 0.0
H1572 H 0.75737 0.95703 0.10753 0.0
H1573 H 0.75847 0.9499 0.06038 0.0
C1574 C 0.73369 0.90767 1.03415 0.0
C1575 C 0.72016 0.88417 1.02322 0.0
C1576 C 0.73286 0.91226 0.06121 0.0
C1577 C 0.70562 0.86545 1.03952 0.0
C1578 C 0.70436 0.87009 0.06635 0.0
C1579 C 0.71698 0.89792 0.1044 0.0
C1580 C 0.73129 0.92071 0.11558 0.0
C1581 C 0.71791 0.89339 0.07741 0.0
C1582 C 0.74623 0.93927 0.09937 0.0
C1583 C 0.74685 0.93522 0.07242 0.0
H1584 H 0.22484 0.73722 0.06398 0.0
H1585 H 0.27238 0.66651 0.08095 0.0
H1586 H 0.27621 0.65196 1.03504 0.0
H1587 H 0.26293 0.65698 0.99068 0.0
H1588 H 0.21353 0.72633 0.97403 0.0
H1589 H 0.21372 0.74378 1.01912 0.0
C1590 C 0.23642 0.71886 0.05764 0.0
C1591 C 0.24827 0.70296 0.07604 0.0
C1592 C 0.23799 0.7102 1.03123 0.0
C1593 C 0.263 0.67914 0.06733 0.0
C1594 C 0.26513 0.67074 1.04104 0.0
C1595 C 0.25244 0.67611 0.99678 0.0
C1596 C 0.23811 0.69021 0.97889 0.0
C1597 C 0.25221 0.68575 1.0229 0.0
C1598 C 0.22463 0.71495 0.9873 0.0
C1599 C 0.2247 0.72493 1.01314 0.0
H1600 H 0.44488 0.86901 1.0096 0.0
H1601 H 0.40629 0.94624 0.99428 0.0
H1602 H 0.39974 0.95752 1.04067 0.0
H1603 H 0.4074 0.94711 0.08549 0.0
H1604 H 0.44411 0.86922 0.10184 0.0
H1605 H 0.44852 0.85626 0.05538 0.0
C1606 C 0.43486 0.88818 1.01649 0.0
C1607 C 0.42631 0.90692 0.99846 0.0
C1608 C 0.43077 0.89438 1.04341 0.0
C1609 C 0.41312 0.93151 1.00768 0.0
C1610 C 0.40939 0.938 1.03424 0.0
C1611 C 0.41606 0.92709 0.07894 0.0
C1612 C 0.42555 0.90923 0.09715 0.0
C1613 C 0.41845 0.91982 0.05226 0.0
C1614 C 0.4365 0.88329 0.0883 0.0
C1615 C 0.43922 0.876 0.06168 0.0
H1616 H 0.18788 0.37669 0.10542 0.0
H1617 H 0.25122 0.44039 0.10724 0.0
H1618 H 0.25818 0.43643 0.06013 0.0
H1619 H 0.24673 0.41452 1.0183 0.0
H1620 H 0.1844 0.34987 1.01627 0.0
H1621 H 0.17665 0.35445 0.06346 0.0
C1622 C 0.2031 0.38982 0.09549 0.0
C1623 C 0.21897 0.40885 0.10989 0.0
C1624 C 0.20728 0.38714 0.06833 0.0
C1625 C 0.23876 0.42552 0.0967 0.0
C1626 C 0.24277 0.42327 0.06972 0.0
C1627 C 0.23148 0.40141 1.02821 0.0
C1628 C 0.21617 0.38186 1.01385 0.0
C1629 C 0.22726 0.40406 0.05534 0.0
C1630 C 0.19649 0.36501 1.02693 0.0
C1631 C 0.19202 0.36767 0.0539 0.0
H1632 H 0.76097 0.15901 0.06014 0.0
H1633 H 0.71439 0.23276 0.08111 0.0
H1634 H 0.70357 0.23632 1.03604 0.0
H1635 H 0.70379 0.21565 0.99127 0.0
H1636 H 0.7523 0.14327 0.97012 0.0
H1637 H 0.76602 0.14218 1.01437 0.0
C1638 C 0.74884 0.17617 0.05476 0.0
C1639 C 0.73839 0.19548 0.07409 0.0
C1640 C 0.74281 0.17818 1.02872 0.0
C1641 C 0.72284 0.21769 0.06671 0.0
C1642 C 0.71645 0.2196 1.04091 0.0
C1643 C 0.71765 0.19988 0.99627 0.0
C1644 C 0.72675 0.17939 0.97734 0.0
C1645 C 0.72577 0.19955 1.02184 0.0
C1646 C 0.74495 0.15931 0.98416 0.0
C1647 C 0.75273 0.15857 1.00957 0.0
H1648 H 0.95124 0.7203 1.01805 0.0
H1649 H 0.90466 0.64271 1.01242 0.0
H1650 H 0.89956 0.64128 0.05972 0.0
H1651 H 0.90905 0.662 0.10322 0.0
H1652 H 0.95678 0.73917 0.10766 0.0
H1653 H 0.96055 0.7408 0.06082 0.0
C1654 C 0.93995 0.70311 1.02719 0.0
C1655 C 0.92837 0.68168 1.01173 0.0
C1656 C 0.93726 0.70231 0.0544 0.0
C1657 C 0.91382 0.6595 1.02388 0.0
C1658 C 0.91088 0.65867 0.05097 0.0
C1659 C 0.92013 0.6792 0.0939 0.0
C1660 C 0.93265 0.70033 0.10914 0.0
C1661 C 0.92257 0.67995 0.06653 0.0
C1662 C 0.94707 0.72241 0.09661 0.0
C1663 C 0.94925 0.72346 0.06968 0.0
H1664 H 0.09394 0.45356 0.21434 0.0
H1665 H 0.09828 0.37885 0.16377 0.0
H1666 H 1.04967 0.37802 0.1616 0.0
H1667 H 1.00618 0.39817 0.17407 0.0
H1668 H 1.00047 0.47157 0.22604 0.0
H1669 H 1.04952 0.47342 0.22773 0.0
C1670 C 0.08413 0.43717 0.20288 0.0
C1671 C 0.09948 0.41633 0.18919 0.0
C1672 C 1.05609 0.43662 0.20197 0.0
C1673 C 0.08675 0.39507 0.17449 0.0
C1674 C 1.05901 0.39459 0.1732 0.0
C1675 C 1.01569 0.41463 0.18572 0.0
C1676 C 0.99999 0.43479 0.19982 0.0
C1677 C 1.04355 0.41523 0.18685 0.0
C1678 C 1.01236 0.45587 0.21502 0.0
C1679 C 1.04031 0.4569 0.21597 0.0
H1680 H 0.11736 0.66375 0.90327 0.0
H1681 H 0.1329 0.75181 0.88862 0.0
H1682 H 0.08483 0.76013 0.8913 0.0
H1683 H 1.03777 0.74288 0.89772 0.0
H1684 H 1.02173 0.65536 0.91416 0.0
H1685 H 1.0699 0.64668 0.91094 0.0
C1686 C 0.11028 0.68477 0.90063 0.0
C1687 C 0.12921 0.70705 0.8957 0.0
C1688 C 0.08217 0.68966 0.90256 0.0
C1689 C 0.11922 0.73414 0.89255 0.0
C1690 C 0.09153 0.73899 0.89403 0.0
C1691 C 1.0447 0.72185 0.90061 0.0
C1692 C 1.02565 0.69986 0.90613 0.0
C1693 C 1.07273 0.71697 0.89903 0.0
C1694 C 1.03552 0.67286 0.90995 0.0
C1695 C 1.06326 0.66781 0.90805 0.0
H1696 H 0.40938 1.00671 0.89095 0.0
H1697 H 0.48234 0.98282 0.9234 0.0
H1698 H 0.49336 1.0327 0.933 0.0
H1699 H 0.48163 0.08327 0.93347 0.0
H1700 H 0.40864 0.10673 0.90084 0.0
H1701 H 0.39844 0.05701 0.8901 0.0
C1702 C 0.42781 1.01223 0.90005 0.0
C1703 C 0.44495 0.99055 0.90644 0.0
C1704 C 0.43401 1.04108 0.9056 0.0
C1705 C 0.46873 0.99866 0.91813 0.0
C1706 C 0.47501 1.02732 0.92372 0.0
C1707 C 0.4635 0.07762 0.92391 0.0
C1708 C 0.4459 0.09911 0.9181 0.0
C1709 C 0.45771 1.04875 0.91774 0.0
C1710 C 0.4226 0.09099 0.90563 0.0
C1711 C 0.41673 0.06242 0.89949 0.0
H1712 H 0.11978 0.33373 0.90195 0.0
H1713 H 0.14775 0.41378 0.93439 0.0
H1714 H 0.10198 0.43025 0.93927 0.0
H1715 H 1.05386 0.42248 0.93511 0.0
H1716 H 1.02437 0.34309 0.90308 0.0
H1717 H 1.07054 0.32615 0.89718 0.0
C1718 C 0.1159 0.35478 0.91009 0.0
C1719 C 0.13765 0.37235 0.91777 0.0
C1720 C 0.08908 0.36441 0.9129 0.0
C1721 C 0.13184 0.3996 0.92822 0.0
C1722 C 0.10549 0.40916 0.93106 0.0
C1723 C 1.05736 0.40145 0.92672 0.0
C1724 C 1.03534 0.38417 0.91956 0.0
C1725 C 0.08395 0.39181 0.92353 0.0
C1726 C 1.0407 0.35699 0.90874 0.0
C1727 C 1.0672 0.34725 0.90543 0.0
H1728 H 0.66757 0.97103 0.94299 0.0
H1729 H 0.7402 0.95085 0.89655 0.0
H1730 H 0.74412 0.99948 0.88241 0.0
H1731 H 0.72812 1.04857 0.88507 0.0
H1732 H 0.65599 0.0685 0.93226 0.0
H1733 H 0.65063 1.0192 0.94417 0.0
C1734 C 0.68421 0.97714 0.92964 0.0
C1735 C 0.70364 0.9572 0.92097 0.0
C1736 C 0.68646 1.00522 0.92178 0.0
C1737 C 0.72497 0.96565 0.9036 0.0
C1738 C 0.72725 0.99353 0.89554 0.0
C1739 C 0.71109 1.04203 0.89776 0.0
C1740 C 0.69247 0.06221 0.9078 0.0
C1741 C 0.7083 1.01361 0.90476 0.0
C1742 C 0.67058 0.05343 0.92427 0.0
C1743 C 0.66754 1.02523 0.93114 0.0
H1744 H 1.05175 0.72384 0.15101 0.0
H1745 H 1.04308 0.66789 0.21474 0.0
H1746 H 0.09144 0.66033 0.21124 0.0
H1747 H 0.13613 0.66998 0.19038 0.0
H1748 H 0.1453 0.72657 0.12721 0.0
H1749 H 0.09671 0.73344 0.12999 0.0
C1750 C 1.06052 0.71004 0.16413 0.0
C1751 C 1.04402 0.69647 0.18314 0.0
C1752 C 0.08832 0.70585 0.16202 0.0
C1753 C 1.05548 0.67861 0.2 0.0
C1754 C 0.08308 0.67424 0.19798 0.0
C1755 C 0.12744 0.6837 0.17714 0.0
C1756 C 0.14411 0.69772 0.15859 0.0
C1757 C 0.09967 0.68776 0.17909 0.0
C1758 C 0.13274 0.71555 0.14162 0.0
C1759 C 0.10502 0.71951 0.14325 0.0
H1760 H 0.40904 1.03021 0.22734 0.0
H1761 H 0.44044 1.00082 0.15144 0.0
H1762 H 0.45329 1.04917 0.14071 0.0
H1763 H 0.45801 0.09943 0.15365 0.0
H1764 H 0.42621 0.12905 0.22928 0.0
H1765 H 0.41119 0.08095 0.2393 0.0
C1766 C 0.41846 1.03433 0.20834 0.0
C1767 C 0.42379 1.01171 0.19027 0.0
C1768 C 0.42599 0.06224 0.20232 0.0
C1769 C 0.43592 1.01767 0.16572 0.0
C1770 C 0.44346 1.04536 0.1596 0.0
C1771 C 0.44777 0.09541 0.17234 0.0
C1772 C 0.44356 0.11781 0.19082 0.0
C1773 C 0.43901 0.06773 0.1779 0.0
C1774 C 0.42987 0.11222 0.21476 0.0
C1775 C 0.42127 0.0847 0.2205 0.0
H1776 H 0.75232 1.01542 0.18943 0.0
H1777 H 0.68602 1.01998 0.14062 0.0
H1778 H 0.69868 0.06845 0.13118 0.0
H1779 H 0.72562 0.11089 0.13988 0.0
H1780 H 0.79172 0.10771 0.18894 0.0
H1781 H 0.78263 0.05729 0.19447 0.0
C1782 C 0.74079 1.02701 0.17663 0.0
C1783 C 0.718 1.01421 0.16613 0.0
C1784 C 0.74821 0.05512 0.17115 0.0
C1785 C 0.7035 1.02935 0.14922 0.0
C1786 C 0.71073 0.05712 0.14372 0.0
C1787 C 0.73835 0.0991 0.15144 0.0
C1788 C 0.75908 0.11313 0.16421 0.0
C1789 C 0.73265 0.07039 0.15501 0.0
C1790 C 0.77563 0.09743 0.17882 0.0
C1791 C 0.77026 0.06864 0.18224 0.0
H1792 H 0.23164 0.56347 0.88418 0.0
H1793 H 0.18253 0.58423 0.95389 0.0
H1794 H 0.18244 0.53514 0.96612 0.0
H1795 H 0.19588 0.48638 0.9574 0.0
H1796 H 0.24611 0.4642 0.88883 0.0
H1797 H 0.24643 0.51356 0.87596 0.0
C1798 C 0.22086 0.55716 0.90198 0.0
C1799 C 0.20691 0.57764 0.91801 0.0
C1800 C 0.22122 0.52861 0.9092 0.0
C1801 C 0.19333 0.56907 0.94114 0.0
C1802 C 0.19329 0.54093 0.94819 0.0
C1803 C 0.207 0.49218 0.9396 0.0
C1804 C 0.2209 0.47134 0.9241 0.0
C1805 C 0.20714 0.52053 0.93243 0.0
C1806 C 0.23529 0.47964 0.90123 0.0
C1807 C 0.23537 0.50792 0.89382 0.0
H1808 H 0.96533 0.57512 0.94994 0.0
H1809 H 0.92731 0.5965 0.88139 0.0
H1810 H 0.92501 0.54642 0.86757 0.0
H1811 H 0.93286 0.49618 0.87564 0.0
H1812 H 0.9678 0.47533 0.94598 0.0
H1813 H 0.9725 0.5255 0.9583 0.0
C1814 C 0.95662 0.5689 0.93189 0.0
C1815 C 0.9466 0.58964 0.91668 0.0
C1816 C 0.95492 0.54008 0.92435 0.0
C1817 C 0.93512 0.58104 0.89352 0.0
C1818 C 0.93387 0.55238 0.88557 0.0
C1819 C 0.94183 0.50269 0.89348 0.0
C1820 C 0.9503 0.48206 0.90977 0.0
C1821 C 0.94365 0.53167 0.90087 0.0
C1822 C 0.96128 0.49079 0.9331 0.0
C1823 C 0.9639 0.51948 0.94017 0.0
H1824 H 0.23497 0.49961 0.18521 0.0
H1825 H 0.16915 0.51304 0.13772 0.0
H1826 H 0.18348 0.56222 0.13328 0.0
H1827 H 0.21271 0.60215 0.14519 0.0
H1828 H 0.27896 0.58925 0.19224 0.0
H1829 H 0.26674 0.53906 0.19411 0.0
C1830 C 0.22386 0.51329 0.17381 0.0
C1831 C 0.20083 0.50276 0.1621 0.0
C1832 C 0.2323 0.54162 0.17118 0.0
C1833 C 0.18687 0.52062 0.14706 0.0
C1834 C 0.19502 0.54878 0.1445 0.0
C1835 C 0.22466 0.58833 0.15566 0.0
C1836 C 0.24653 0.59951 0.16876 0.0
C1837 C 0.21743 0.55961 0.15681 0.0
C1838 C 0.26203 0.58122 0.18193 0.0
C1839 C 0.25494 0.55253 0.18317 0.0
H1840 H 0.93011 0.51186 0.16809 0.0
H1841 H 0.87974 0.53437 0.23649 0.0
H1842 H 0.88929 0.58434 0.22998 0.0
H1843 H 0.91529 0.62152 0.20739 0.0
H1844 H 0.96712 0.59939 0.13983 0.0
H1845 H 0.95367 0.54977 0.14341 0.0
C1846 C 0.92082 0.52777 0.18119 0.0
C1847 C 0.90436 0.51942 0.20277 0.0
C1848 C 0.92698 0.55663 0.17773 0.0
C1849 C 0.89266 0.54026 0.2198 0.0
C1850 C 0.89816 0.56887 0.21616 0.0
C1851 C 0.92346 0.6059 0.19331 0.0
C1852 C 0.94241 0.61421 0.17358 0.0
C1853 C 0.91588 0.57729 0.19562 0.0
C1854 C 0.95266 0.59362 0.1554 0.0
C1855 C 0.94497 0.56516 0.1574 0.0
H1856 H 0.4457 0.72908 0.60149 0.0
H1857 H 0.39684 0.65309 0.6093 0.0
H1858 H 0.39998 0.64523 0.56205 0.0
H1859 H 0.41685 0.66015 0.51808 0.0
H1860 H 0.46413 0.73732 0.51127 0.0
H1861 H 0.46145 0.74437 0.55833 0.0
C1862 C 0.43572 0.71071 0.59296 0.0
C1863 C 0.42111 0.69164 0.60916 0.0
C1864 C 0.43739 0.70651 0.56578 0.0
C1865 C 0.40817 0.66817 0.59748 0.0
C1866 C 0.41003 0.66364 0.57039 0.0
C1867 C 0.42661 0.67846 0.52694 0.0
C1868 C 0.44082 0.69814 0.51104 0.0
C1869 C 0.42463 0.68266 0.55427 0.0
C1870 C 0.45312 0.72184 0.52291 0.0
C1871 C 0.45159 0.7259 0.54989 0.0
H1872 H 0.90113 0.88348 0.51519 0.0
H1873 H 0.98757 0.87978 0.50791 0.0
H1874 H 0.98909 0.88517 0.55479 0.0
H1875 H 0.96632 0.895 0.59756 0.0
H1876 H 0.87998 0.89576 0.60633 0.0
H1877 H 0.87777 0.88705 0.55935 0.0
C1878 C 0.92021 0.88352 0.52398 0.0
C1879 C 0.94424 0.88156 0.5081 0.0
C1880 C 0.92093 0.88611 0.55119 0.0
C1881 C 0.96882 0.88132 0.51969 0.0
C1882 C 0.96973 0.88447 0.54652 0.0
C1883 C 0.94702 0.89268 0.58918 0.0
C1884 C 0.92335 0.89604 0.60519 0.0
C1885 C 0.94599 0.88744 0.56239 0.0
C1886 C 0.89843 0.89298 0.5943 0.0
C1887 C 0.89721 0.88826 0.56745 0.0
H1888 H 0.75403 0.43643 0.60503 0.0
H1889 H 0.68457 0.38264 0.62289 0.0
H1890 H 0.6814 0.37046 0.5771 0.0
H1891 H 0.69856 0.37434 0.53184 0.0
H1892 H 0.76692 0.42911 0.51335 0.0
H1893 H 0.77038 0.44153 0.55937 0.0
C1894 C 0.73816 0.42214 0.59888 0.0
C1895 C 0.71968 0.4104 0.61743 0.0
C1896 C 0.7363 0.41525 0.57236 0.0
C1897 C 0.69914 0.39198 0.60909 0.0
C1898 C 0.6973 0.38492 0.58286 0.0
C1899 C 0.71423 0.38894 0.53794 0.0
C1900 C 0.73255 0.40066 0.51937 0.0
C1901 C 0.71584 0.39626 0.56434 0.0
C1902 C 0.75262 0.41977 0.5274 0.0
C1903 C 0.75459 0.42689 0.55368 0.0
H1904 H 0.26052 0.18036 0.55551 0.0
H1905 H 0.18433 0.21403 0.58462 0.0
H1906 H 0.17144 0.2183 0.54038 0.0
H1907 H 0.17986 0.20799 0.49356 0.0
H1908 H 0.2563 0.17534 0.46412 0.0
H1909 H 0.27112 0.17559 0.50817 0.0
C1910 C 0.24124 0.18901 0.55219 0.0
C1911 C 0.22332 0.19657 0.5735 0.0
C1912 C 0.23392 0.19148 0.52656 0.0
C1913 C 0.19854 0.208 0.56872 0.0
C1914 C 0.19107 0.21033 0.54336 0.0
C1915 C 0.19994 0.20137 0.49671 0.0
C1916 C 0.21683 0.19141 0.47549 0.0
C1917 C 0.20831 0.20149 0.52215 0.0
C1918 C 0.24287 0.18316 0.47999 0.0
C1919 C 0.2513 0.1831 0.50526 0.0
H1920 H 0.39079 0.43712 0.59212 0.0
H1921 H 0.4404 0.36805 0.60905 0.0
H1922 H 0.45009 0.3579 0.56274 0.0
H1923 H 0.44675 0.37051 0.51724 0.0
H1924 H 0.39684 0.43933 0.5006 0.0
H1925 H 0.38516 0.44778 0.54686 0.0
C1926 C 0.40347 0.4196 0.58575 0.0
C1927 C 0.41491 0.40348 0.6042 0.0
C1928 C 0.40919 0.41404 0.55904 0.0
C1929 C 0.43125 0.38083 0.59541 0.0
C1930 C 0.43695 0.3751 0.56886 0.0
C1931 C 0.43325 0.38728 0.52378 0.0
C1932 C 0.42284 0.40443 0.50552 0.0
C1933 C 0.42645 0.39189 0.55049 0.0
C1934 C 0.40519 0.42591 0.51425 0.0
C1935 C 0.39849 0.43074 0.54072 0.0
H1936 H 0.25021 0.92273 0.51925 0.0
H1937 H 0.19735 0.84921 0.52178 0.0
H1938 H 0.19113 0.85515 0.56888 0.0
H1939 H 0.20009 0.8813 0.60897 0.0
H1940 H 0.25325 0.95465 0.60754 0.0
H1941 H 0.26004 0.94871 0.56024 0.0
C1942 C 0.23742 0.90798 0.53017 0.0
C1943 C 0.22421 0.88554 0.51708 0.0
C1944 C 0.23395 0.91155 0.55733 0.0
C1945 C 0.20772 0.86659 0.53141 0.0
C1946 C 0.20414 0.87002 0.55833 0.0
C1947 C 0.21316 0.89613 0.59842 0.0
C1948 C 0.22604 0.91854 0.61185 0.0
C1949 C 0.21703 0.89247 0.57143 0.0
C1950 C 0.24307 0.93727 0.59773 0.0
C1951 C 0.24693 0.93386 0.57069 0.0
H1952 H 0.71466 0.64964 0.49779 0.0
H1953 H 0.721 0.73606 0.47516 0.0
H1954 H 0.72945 0.75161 0.51984 0.0
H1955 H 0.7319 0.74042 0.56601 0.0
H1956 H 0.72819 0.65318 0.58711 0.0
H1957 H 0.72236 0.63812 0.54228 0.0
C1958 C 0.71798 0.67189 0.50266 0.0
C1959 C 0.7167 0.69179 0.48346 0.0
C1960 C 0.72342 0.68046 0.52808 0.0
C1961 C 0.7217 0.72044 0.48975 0.0
C1962 C 0.72649 0.72928 0.51526 0.0
C1963 C 0.73022 0.7181 0.56072 0.0
C1964 C 0.73022 0.698 0.58005 0.0
C1965 C 0.72699 0.70947 0.5347 0.0
C1966 C 0.72827 0.66915 0.57276 0.0
C1967 C 0.72474 0.66048 0.5471 0.0
H1968 H 0.90771 0.1599 0.60828 0.0
H1969 H 0.95196 0.23879 0.6167 0.0
H1970 H 0.95609 0.24293 0.5699 0.0
H1971 H 0.94852 0.22373 0.52599 0.0
H1972 H 0.90629 0.14386 0.51678 0.0
H1973 H 0.90009 0.14054 0.56386 0.0
C1974 C 0.91801 0.17808 0.59984 0.0
C1975 C 0.92948 0.19899 0.61616 0.0
C1976 C 0.92089 0.18012 0.57253 0.0
C1977 C 0.94305 0.22226 0.60475 0.0
C1978 C 0.94544 0.2247 0.57788 0.0
C1979 C 0.9379 0.20564 0.53429 0.0
C1980 C 0.92788 0.18411 0.51779 0.0
C1981 C 0.93471 0.20367 0.5615 0.0
C1982 C 0.91427 0.16076 0.52896 0.0
C1983 C 0.91067 0.15884 0.55596 0.0
H1984 H 0.48394 0.57828 0.43281 0.0
H1985 H 0.41189 0.60194 0.39862 0.0
H1986 H 0.40075 0.55218 0.38931 0.0
H1987 H 0.41049 0.50184 0.39205 0.0
H1988 H 0.48248 0.47786 0.42625 0.0
H1989 H 0.49455 0.52769 0.43414 0.0
C1990 C 0.46583 0.57264 0.42321 0.0
C1991 C 0.44876 0.59414 0.41655 0.0
C1992 C 0.45947 0.54379 0.4179 0.0
C1993 C 0.42545 0.58612 0.40404 0.0
C1994 C 0.41902 0.55755 0.39872 0.0
C1995 C 0.42895 0.50735 0.40112 0.0
C1996 C 0.44548 0.48571 0.40854 0.0
C1997 C 0.43575 0.53617 0.40573 0.0
C1998 C 0.46931 0.49373 0.42022 0.0
C1999 C 0.47621 0.52235 0.42483 0.0
H2000 H 0.72749 0.56192 0.37911 0.0
H2001 H 0.72071 0.59148 0.45917 0.0
H2002 H 0.71907 0.54296 0.47305 0.0
H2003 H 0.71822 0.49228 0.46282 0.0
H2004 H 0.72848 0.46115 0.3835 0.0
H2005 H 0.73056 0.50993 0.36889 0.0
C2006 C 0.72571 0.55761 0.39955 0.0
C2007 C 0.72394 0.58027 0.41812 0.0
C2008 C 0.7255 0.5294 0.40751 0.0
C2009 C 0.72206 0.57445 0.44453 0.0
C2010 C 0.72109 0.54669 0.4525 0.0
C2011 C 0.721 0.49613 0.4423 0.0
C2012 C 0.72285 0.47314 0.42424 0.0
C2013 C 0.7226 0.52405 0.43421 0.0
C2014 C 0.72698 0.47849 0.39778 0.0
C2015 C 0.72802 0.50639 0.38945 0.0
H2016 H 0.45401 0.60043 0.65198 0.0
H2017 H 0.40572 0.62992 0.71953 0.0
H2018 H 0.39139 0.58144 0.72843 0.0
H2019 H 0.39479 0.53059 0.71848 0.0
H2020 H 0.44389 0.50103 0.65128 0.0
H2021 H 0.45552 0.54969 0.64073 0.0
C2022 C 0.44025 0.5963 0.6686 0.0
C2023 C 0.43104 0.61882 0.68517 0.0
C2024 C 0.4323 0.56833 0.67369 0.0
C2025 C 0.41307 0.61305 0.70647 0.0
C2026 C 0.40494 0.58528 0.7116 0.0
C2027 C 0.40786 0.53469 0.70137 0.0
C2028 C 0.41857 0.51202 0.68583 0.0
C2029 C 0.41473 0.56274 0.69554 0.0
C2030 C 0.43538 0.51794 0.66369 0.0
C2031 C 0.44213 0.54581 0.65765 0.0
H2032 H 0.68748 0.53021 0.66523 0.0
H2033 H 0.75884 0.50021 0.69655 0.0
H2034 H 0.77897 0.54774 0.69546 0.0
H2035 H 0.77505 0.59812 0.68846 0.0
H2036 H 0.7027 0.62887 0.65973 0.0
H2037 H 0.68428 0.58054 0.65662 0.0
C2038 C 0.70753 0.534 0.67162 0.0
C2039 C 0.7216 0.51171 0.68108 0.0
C2040 C 0.71876 0.56148 0.67141 0.0
C2041 C 0.74752 0.51702 0.68935 0.0
C2042 C 0.75905 0.54418 0.68869 0.0
C2043 C 0.75542 0.59429 0.6811 0.0
C2044 C 0.74019 0.61711 0.67439 0.0
C2045 C 0.7447 0.56663 0.68013 0.0
C2046 C 0.7147 0.61169 0.66517 0.0
C2047 C 0.70417 0.58408 0.66344 0.0
H2048 H 0.53597 0.17123 0.91285 0.0
H2049 H 0.5347 0.26028 0.89921 0.0
H2050 H 0.58355 0.26299 0.89666 0.0
H2051 H 0.62748 0.24023 0.89652 0.0
H2052 H 0.62964 0.15072 0.9074 0.0
H2053 H 0.58055 0.14824 0.91277 0.0
C2054 C 0.54636 0.19127 0.90954 0.0
C2055 C 0.53117 0.21551 0.90623 0.0
C2056 C 0.57505 0.19268 0.90744 0.0
C2057 C 0.54543 0.24114 0.90167 0.0
C2058 C 0.5736 0.24279 0.90023 0.0
C2059 C 0.61732 0.22018 0.90031 0.0
C2060 C 0.63272 0.19572 0.90159 0.0
C2061 C 0.58875 0.21871 0.90282 0.0
C2062 C 0.61868 0.16997 0.9062 0.0
C2063 C 0.59041 0.16851 0.9093 0.0
H2064 H 0.62228 0.84379 0.88649 0.0
H2065 H 0.63718 0.87484 0.96401 0.0
H2066 H 0.59094 0.88851 0.97143 0.0
H2067 H 0.54622 0.8934 0.95642 0.0
H2068 H 0.52874 0.8617 0.88009 0.0
H2069 H 0.57544 0.84664 0.87197 0.0
C2070 C 0.61538 0.85333 0.90507 0.0
C2071 C 0.63379 0.85814 0.92455 0.0
C2072 C 0.58806 0.86126 0.90954 0.0
C2073 C 0.62403 0.87063 0.94847 0.0
C2074 C 0.59734 0.87864 0.95284 0.0
C2075 C 0.55248 0.88317 0.93794 0.0
C2076 C 0.53379 0.87898 0.91886 0.0
C2077 C 0.57923 0.87433 0.93354 0.0
C2078 C 0.54252 0.86531 0.8952 0.0
C2079 C 0.56934 0.85672 0.89054 0.0
H2080 H 0.5481 0.17597 0.19502 0.0
H2081 H 0.54305 0.25417 0.1563 0.0
H2082 H 0.5916 0.25475 0.1459 0.0
H2083 H 0.63557 0.23318 0.14824 0.0
H2084 H 0.64048 0.15464 0.18649 0.0
H2085 H 0.59189 0.15381 0.19643 0.0
C2086 C 0.5577 0.19316 0.1844 0.0
C2087 C 0.54219 0.21509 0.17657 0.0
C2088 C 0.58553 0.19317 0.17826 0.0
C2089 C 0.5547 0.23713 0.16261 0.0
C2090 C 0.58241 0.23743 0.15661 0.0
C2091 C 0.62592 0.21581 0.15858 0.0
C2092 C 0.64146 0.19401 0.16663 0.0
C2093 C 0.59802 0.21556 0.16433 0.0
C2094 C 0.62884 0.17163 0.18006 0.0
C2095 C 0.6011 0.1712 0.18583 0.0
H2096 H 0.61664 0.91283 0.16233 0.0
H2097 H 0.61464 0.96341 0.23356 0.0
H2098 H 0.56582 0.96738 0.23279 0.0
H2099 H 0.52355 0.9547 0.21245 0.0
H2100 H 0.52652 0.90452 0.14087 0.0
H2101 H 0.57525 0.90242 0.14097 0.0
C2102 C 0.6055 0.92474 0.17768 0.0
C2103 C 0.61898 0.93758 0.1981 0.0
C2104 C 0.57769 0.92708 0.17695 0.0
C2105 C 0.6045 0.95324 0.21772 0.0
C2106 C 0.57667 0.95552 0.21726 0.0
C2107 C 0.53497 0.94359 0.19678 0.0
C2108 C 0.52159 0.92969 0.17674 0.0
C2109 C 0.56302 0.94233 0.19705 0.0
C2110 C 0.53646 0.91534 0.15652 0.0
C2111 C 0.56429 0.91405 0.1566 0.0
H2112 H 0.51975 0.44821 0.71892 0.0
H2113 H 0.52213 0.3958 0.64863 0.0
H2114 H 0.57098 0.39494 0.64779 0.0
H2115 H 0.6126 0.40784 0.66745 0.0
H2116 H 0.61139 0.45967 0.73796 0.0
H2117 H 0.56229 0.46216 0.73835 0.0
C2118 C 0.53106 0.43675 0.70341 0.0
C2119 C 0.51753 0.42205 0.68389 0.0
C2120 C 0.55917 0.43621 0.70314 0.0
C2121 C 0.53222 0.40723 0.66386 0.0
C2122 C 0.56009 0.40671 0.66338 0.0
C2123 C 0.60161 0.41976 0.6829 0.0
C2124 C 0.61538 0.43348 0.7027 0.0
C2125 C 0.5737 0.42092 0.68299 0.0
C2126 C 0.60104 0.44892 0.72255 0.0
C2127 C 0.57305 0.4503 0.72276 0.0
H2128 H 0.53808 0.67001 0.41233 0.0
H2129 H 0.53528 0.75407 0.38389 0.0
H2130 H 0.58399 0.75713 0.37951 0.0
H2131 H 0.6281 0.73618 0.38265 0.0
H2132 H 0.63203 0.65165 0.4095 0.0
H2133 H 0.58302 0.64875 0.41543 0.0
C2134 C 0.54811 0.68905 0.40533 0.0
C2135 C 0.53252 0.71171 0.39842 0.0
C2136 C 0.57672 0.69067 0.40238 0.0
C2137 C 0.54629 0.73607 0.3892 0.0
C2138 C 0.57439 0.73795 0.3867 0.0
C2139 C 0.61835 0.71709 0.38988 0.0
C2140 C 0.63421 0.69421 0.39555 0.0
C2141 C 0.58991 0.71538 0.39302 0.0
C2142 C 0.62073 0.66968 0.40479 0.0
C2143 C 0.5925 0.66799 0.40827 0.0
H2144 H 0.62086 0.33886 0.40374 0.0
H2145 H 0.64232 0.40389 0.46011 0.0
H2146 H 0.59574 0.41764 0.46637 0.0
H2147 H 0.54894 0.41247 0.45552 0.0
H2148 H 0.52621 0.34797 0.39942 0.0
H2149 H 0.57294 0.33293 0.39351 0.0
C2150 C 0.61535 0.35589 0.41754 0.0
C2151 C 0.63547 0.37024 0.43136 0.0
C2152 C 0.58816 0.364 0.42107 0.0
C2153 C 0.62764 0.39237 0.44907 0.0
C2154 C 0.60085 0.40036 0.4527 0.0
C2155 C 0.55407 0.39508 0.44197 0.0
C2156 C 0.53386 0.3815 0.42788 0.0
C2157 C 0.58097 0.38653 0.4387 0.0
C2158 C 0.54118 0.35891 0.41053 0.0
C2159 C 0.56799 0.35028 0.40714 0.0
H2160 H 0.5395 0.72418 0.65173 0.0
H2161 H 0.52823 0.67347 0.71894 0.0
H2162 H 0.5762 0.66339 0.71606 0.0
H2163 H 0.62168 0.67025 0.69493 0.0
H2164 H 0.63258 0.72261 0.62877 0.0
H2165 H 0.58439 0.73045 0.63042 0.0
C2166 C 0.54759 0.71096 0.66575 0.0
C2167 C 0.53056 0.6997 0.68557 0.0
C2168 C 0.57507 0.70538 0.664 0.0
C2169 C 0.54113 0.68251 0.70359 0.0
C2170 C 0.56849 0.67666 0.70189 0.0
C2171 C 0.61335 0.68303 0.68073 0.0
C2172 C 0.63044 0.69578 0.66173 0.0
C2173 C 0.58568 0.68806 0.68221 0.0
C2174 C 0.61965 0.71261 0.64358 0.0
C2175 C 0.59217 0.71719 0.64455 0.0
loop_
_geom_bond_atom_site_label_1
_geom_bond_atom_site_label_2
_geom_bond_distance
_geom_bond_site_symmetry_2
_ccdc_geom_bond_type
O0 Tb1 2.506 . S
O0 C14 1.265 . S
Tb1 O0 2.506 . S
Tb1 O6 2.312 . S
Tb1 O10 2.271 . S
Tb1 O12 2.338 . S
Tb1 O19 2.441 . S
C2 O10 1.252 . S
C2 O11 1.253 . S
O3 Tb4 2.271 . S
O3 C13 1.252 . S
Tb4 O3 2.271 . S
Tb4 O7 2.338 . S
Tb4 O11 2.312 . S
Tb4 O15 2.441 . S
Tb4 O16 2.506 . S
C5 O15 1.244 . S
C5 O16 1.265 . S
O6 Tb1 2.312 . S
O6 C13 1.253 . S
O7 Tb4 2.338 . S
O7 C8 1.258 . S
C8 O7 1.258 . S
C8 O9 1.251 . S
O9 C8 1.251 . S
O10 Tb1 2.271 . S
O10 C2 1.252 . S
O11 C2 1.253 . S
O11 Tb4 2.312 . S
O12 Tb1 2.338 . S
O12 C17 1.258 . S
C13 O3 1.252 . S
C13 O6 1.253 . S
C14 O0 1.265 . S
C14 O19 1.244 . S
O15 Tb4 2.441 . S
O15 C5 1.244 . S
O16 Tb4 2.506 . S
O16 C5 1.265 . S
C17 O12 1.258 . S
C17 O18 1.251 . S
O18 C17 1.251 . S
O19 Tb1 2.441 . S
O19 C14 1.244 . S
O20 Tb21 2.506 . S
O20 C34 1.265 . S
Tb21 O20 2.506 . S
Tb21 O26 2.312 . S
Tb21 O30 2.271 . S
Tb21 O32 2.338 . S
Tb21 O39 2.441 . S
C22 O30 1.252 . S
C22 O31 1.253 . S
O23 Tb24 2.271 . S
O23 C33 1.252 . S
Tb24 O23 2.271 . S
Tb24 O27 2.338 . S
Tb24 O31 2.312 . S
Tb24 O35 2.441 . S
Tb24 O36 2.506 . S
C25 O35 1.244 . S
C25 O36 1.265 . S
O26 Tb21 2.312 . S
O26 C33 1.253 . S
O27 Tb24 2.338 . S
O27 C28 1.258 . S
C28 O27 1.258 . S
C28 O29 1.251 . S
O29 C28 1.251 . S
O30 Tb21 2.271 . S
O30 C22 1.252 . S
O31 C22 1.253 . S
O31 Tb24 2.312 . S
O32 Tb21 2.338 . S
O32 C37 1.258 . S
C33 O23 1.252 . S
C33 O26 1.253 . S
C34 O20 1.265 . S
C34 O39 1.244 . S
O35 Tb24 2.441 . S
O35 C25 1.244 . S
O36 Tb24 2.506 . S
O36 C25 1.265 . S
C37 O32 1.258 . S
C37 O38 1.251 . S
O38 C37 1.251 . S
O39 Tb21 2.441 . S
O39 C34 1.244 . S
O40 Tb41 2.506 . S
O40 C54 1.265 . S
Tb41 O40 2.506 . S
Tb41 O46 2.312 . S
Tb41 O50 2.271 . S
Tb41 O52 2.338 . S
Tb41 O59 2.441 . S
C42 O50 1.252 . S
C42 O51 1.253 . S
O43 Tb44 2.271 . S
O43 C53 1.252 . S
Tb44 O43 2.271 . S
Tb44 O47 2.338 . S
Tb44 O51 2.312 . S
Tb44 O55 2.441 . S
Tb44 O56 2.506 . S
C45 O55 1.244 . S
C45 O56 1.265 . S
O46 Tb41 2.312 . S
O46 C53 1.253 . S
O47 Tb44 2.338 . S
O47 C48 1.258 . S
C48 O47 1.258 . S
C48 O49 1.251 . S
O49 C48 1.251 . S
O50 Tb41 2.271 . S
O50 C42 1.252 . S
O51 C42 1.253 . S
O51 Tb44 2.312 . S
O52 Tb41 2.338 . S
O52 C57 1.258 . S
C53 O43 1.252 . S
C53 O46 1.253 . S
C54 O40 1.265 . S
C54 O59 1.244 . S
O55 Tb44 2.441 . S
O55 C45 1.244 . S
O56 Tb44 2.506 . S
O56 C45 1.265 . S
C57 O52 1.258 . S
C57 O58 1.251 . S
O58 C57 1.251 . S
O59 Tb41 2.441 . S
O59 C54 1.244 . S
O60 Tb61 2.506 . S
O60 C74 1.265 . S
Tb61 O60 2.506 . S
Tb61 O66 2.312 . S
Tb61 O70 2.271 . S
Tb61 O72 2.338 . S
Tb61 O79 2.441 . S
C62 O70 1.252 . S
C62 O71 1.253 . S
O63 Tb64 2.271 . S
O63 C73 1.252 . S
Tb64 O63 2.271 . S
Tb64 O67 2.338 . S
Tb64 O71 2.312 . S
Tb64 O75 2.441 . S
Tb64 O76 2.506 . S
C65 O75 1.244 . S
C65 O76 1.265 . S
O66 Tb61 2.312 . S
O66 C73 1.253 . S
O67 Tb64 2.338 . S
O67 C68 1.258 . S
C68 O67 1.258 . S
C68 O69 1.251 . S
O69 C68 1.251 . S
O70 Tb61 2.271 . S
O70 C62 1.252 . S
O71 C62 1.253 . S
O71 Tb64 2.312 . S
O72 Tb61 2.338 . S
O72 C77 1.258 . S
C73 O63 1.252 . S
C73 O66 1.253 . S
C74 O60 1.265 . S
C74 O79 1.244 . S
O75 Tb64 2.441 . S
O75 C65 1.244 . S
O76 Tb64 2.506 . S
O76 C65 1.265 . S
C77 O72 1.258 . S
C77 O78 1.251 . S
O78 C77 1.251 . S
O79 Tb61 2.441 . S
O79 C74 1.244 . S
O80 Tb81 2.506 . S
O80 C94 1.265 . S
Tb81 O80 2.506 . S
Tb81 O86 2.312 . S
Tb81 O90 2.271 . S
Tb81 O92 2.338 . S
Tb81 O99 2.441 . S
C82 O90 1.252 . S
C82 O91 1.253 . S
O83 Tb84 2.271 . S
O83 C93 1.252 . S
Tb84 O83 2.271 . S
Tb84 O87 2.338 . S
Tb84 O91 2.312 . S
Tb84 O95 2.441 . S
Tb84 O96 2.506 . S
C85 O95 1.244 . S
C85 O96 1.265 . S
O86 Tb81 2.312 . S
O86 C93 1.253 . S
O87 Tb84 2.338 . S
O87 C88 1.258 . S
C88 O87 1.258 . S
C88 O89 1.251 . S
O89 C88 1.251 . S
O90 Tb81 2.271 . S
O90 C82 1.252 . S
O91 C82 1.253 . S
O91 Tb84 2.312 . S
O92 Tb81 2.338 . S
O92 C97 1.258 . S
C93 O83 1.252 . S
C93 O86 1.253 . S
C94 O80 1.265 . S
C94 O99 1.244 . S
O95 Tb84 2.441 . S
O95 C85 1.244 . S
O96 Tb84 2.506 . S
O96 C85 1.265 . S
C97 O92 1.258 . S
C97 O98 1.251 . S
O98 C97 1.251 . S
O99 Tb81 2.441 . S
O99 C94 1.244 . S
O100 Tb101 2.506 . S
O100 C114 1.265 . S
Tb101 O100 2.506 . S
Tb101 O106 2.312 . S
Tb101 O110 2.271 . S
Tb101 O112 2.338 . S
Tb101 O119 2.441 . S
C102 O110 1.252 . S
C102 O111 1.253 . S
O103 Tb104 2.271 . S
O103 C113 1.252 . S
Tb104 O103 2.271 . S
Tb104 O107 2.338 . S
Tb104 O111 2.312 . S
Tb104 O115 2.441 . S
Tb104 O116 2.506 . S
C105 O115 1.244 . S
C105 O116 1.265 . S
O106 Tb101 2.312 . S
O106 C113 1.253 . S
O107 Tb104 2.338 . S
O107 C108 1.258 . S
C108 O107 1.258 . S
C108 O109 1.251 . S
O109 C108 1.251 . S
O110 Tb101 2.271 . S
O110 C102 1.252 . S
O111 C102 1.253 . S
O111 Tb104 2.312 . S
O112 Tb101 2.338 . S
O112 C117 1.258 . S
C113 O103 1.252 . S
C113 O106 1.253 . S
C114 O100 1.265 . S
C114 O119 1.244 . S
O115 Tb104 2.441 . S
O115 C105 1.244 . S
O116 Tb104 2.506 . S
O116 C105 1.265 . S
C117 O112 1.258 . S
C117 O118 1.251 . S
O118 C117 1.251 . S
O119 Tb101 2.441 . S
O119 C114 1.244 . S
O120 Tb121 2.506 . S
O120 C134 1.265 . S
Tb121 O120 2.506 . S
Tb121 O126 2.312 . S
Tb121 O130 2.271 . S
Tb121 O132 2.338 . S
Tb121 O139 2.441 . S
C122 O130 1.252 . S
C122 O131 1.253 . S
O123 Tb124 2.271 . S
O123 C133 1.252 . S
Tb124 O123 2.271 . S
Tb124 O127 2.338 . S
Tb124 O131 2.312 . S
Tb124 O135 2.441 . S
Tb124 O136 2.506 . S
C125 O135 1.244 . S
C125 O136 1.265 . S
O126 Tb121 2.312 . S
O126 C133 1.253 . S
O127 Tb124 2.338 . S
O127 C128 1.258 . S
C128 O127 1.258 . S
C128 O129 1.251 . S
O129 C128 1.251 . S
O130 Tb121 2.271 . S
O130 C122 1.252 . S
O131 C122 1.253 . S
O131 Tb124 2.312 . S
O132 Tb121 2.338 . S
O132 C137 1.258 . S
C133 O123 1.252 . S
C133 O126 1.253 . S
C134 O120 1.265 . S
C134 O139 1.244 . S
O135 Tb124 2.441 . S
O135 C125 1.244 . S
O136 Tb124 2.506 . S
O136 C125 1.265 . S
C137 O132 1.258 . S
C137 O138 1.251 . S
O138 C137 1.251 . S
O139 Tb121 2.441 . S
O139 C134 1.244 . S
O140 Tb141 2.506 . S
O140 C154 1.265 . S
Tb141 O140 2.506 . S
Tb141 O146 2.312 . S
Tb141 O150 2.271 . S
Tb141 O152 2.338 . S
Tb141 O159 2.441 . S
C142 O150 1.252 . S
C142 O151 1.253 . S
O143 Tb144 2.271 . S
O143 C153 1.252 . S
Tb144 O143 2.271 . S
Tb144 O147 2.338 . S
Tb144 O151 2.312 . S
Tb144 O155 2.441 . S
Tb144 O156 2.506 . S
C145 O155 1.244 . S
C145 O156 1.265 . S
O146 Tb141 2.312 . S
O146 C153 1.253 . S
O147 Tb144 2.338 . S
O147 C148 1.258 . S
C148 O147 1.258 . S
C148 O149 1.251 . S
O149 C148 1.251 . S
O150 Tb141 2.271 . S
O150 C142 1.252 . S
O151 C142 1.253 . S
O151 Tb144 2.312 . S
O152 Tb141 2.338 . S
O152 C157 1.258 . S
C153 O143 1.252 . S
C153 O146 1.253 . S
C154 O140 1.265 . S
C154 O159 1.244 . S
O155 Tb144 2.441 . S
O155 C145 1.244 . S
O156 Tb144 2.506 . S
O156 C145 1.265 . S
C157 O152 1.258 . S
C157 O158 1.251 . S
O158 C157 1.251 . S
O159 Tb141 2.441 . S
O159 C154 1.244 . S
O160 Tb161 2.506 . S
O160 C174 1.265 . S
Tb161 O160 2.506 . S
Tb161 O166 2.312 . S
Tb161 O170 2.271 . S
Tb161 O172 2.338 . S
Tb161 O179 2.441 . S
C162 O170 1.252 . S
C162 O171 1.253 . S
O163 Tb164 2.271 . S
O163 C173 1.252 . S
Tb164 O163 2.271 . S
Tb164 O167 2.338 . S
Tb164 O171 2.312 . S
Tb164 O175 2.441 . S
Tb164 O176 2.506 . S
C165 O175 1.244 . S
C165 O176 1.265 . S
O166 Tb161 2.312 . S
O166 C173 1.253 . S
O167 Tb164 2.338 . S
O167 C168 1.258 . S
C168 O167 1.258 . S
C168 O169 1.251 . S
O169 C168 1.251 . S
O170 Tb161 2.271 . S
O170 C162 1.252 . S
O171 C162 1.253 . S
O171 Tb164 2.312 . S
O172 Tb161 2.338 . S
O172 C177 1.258 . S
C173 O163 1.252 . S
C173 O166 1.253 . S
C174 O160 1.265 . S
C174 O179 1.244 . S
O175 Tb164 2.441 . S
O175 C165 1.244 . S
O176 Tb164 2.506 . S
O176 C165 1.265 . S
C177 O172 1.258 . S
C177 O178 1.251 . S
O178 C177 1.251 . S
O179 Tb161 2.441 . S
O179 C174 1.244 . S
O180 Tb181 2.506 . S
O180 C194 1.265 . S
Tb181 O180 2.506 . S
Tb181 O186 2.312 . S
Tb181 O190 2.271 . S
Tb181 O192 2.338 . S
Tb181 O199 2.441 . S
C182 O190 1.252 . S
C182 O191 1.253 . S
O183 Tb184 2.271 . S
O183 C193 1.252 . S
Tb184 O183 2.271 . S
Tb184 O187 2.338 . S
Tb184 O191 2.312 . S
Tb184 O195 2.441 . S
Tb184 O196 2.506 . S
C185 O195 1.244 . S
C185 O196 1.265 . S
O186 Tb181 2.312 . S
O186 C193 1.253 . S
O187 Tb184 2.338 . S
O187 C188 1.258 . S
C188 O187 1.258 . S
C188 O189 1.251 . S
O189 C188 1.251 . S
O190 Tb181 2.271 . S
O190 C182 1.252 . S
O191 C182 1.253 . S
O191 Tb184 2.312 . S
O192 Tb181 2.338 . S
O192 C197 1.258 . S
C193 O183 1.252 . S
C193 O186 1.253 . S
C194 O180 1.265 . S
C194 O199 1.244 . S
O195 Tb184 2.441 . S
O195 C185 1.244 . S
O196 Tb184 2.506 . S
O196 C185 1.265 . S
C197 O192 1.258 . S
C197 O198 1.251 . S
O198 C197 1.251 . S
O199 Tb181 2.441 . S
O199 C194 1.244 . S
O200 Tb201 2.506 . S
O200 C214 1.265 . S
Tb201 O200 2.506 . S
Tb201 O206 2.312 . S
Tb201 O210 2.271 . S
Tb201 O212 2.338 . S
Tb201 O219 2.441 . S
C202 O210 1.252 . S
C202 O211 1.253 . S
O203 Tb204 2.271 . S
O203 C213 1.252 . S
Tb204 O203 2.271 . S
Tb204 O207 2.338 . S
Tb204 O211 2.312 . S
Tb204 O215 2.441 . S
Tb204 O216 2.506 . S
C205 O215 1.244 . S
C205 O216 1.265 . S
O206 Tb201 2.312 . S
O206 C213 1.253 . S
O207 Tb204 2.338 . S
O207 C208 1.258 . S
C208 O207 1.258 . S
C208 O209 1.251 . S
O209 C208 1.251 . S
O210 Tb201 2.271 . S
O210 C202 1.252 . S
O211 C202 1.253 . S
O211 Tb204 2.312 . S
O212 Tb201 2.338 . S
O212 C217 1.258 . S
C213 O203 1.252 . S
C213 O206 1.253 . S
C214 O200 1.265 . S
C214 O219 1.244 . S
O215 Tb204 2.441 . S
O215 C205 1.244 . S
O216 Tb204 2.506 . S
O216 C205 1.265 . S
C217 O212 1.258 . S
C217 O218 1.251 . S
O218 C217 1.251 . S
O219 Tb201 2.441 . S
O219 C214 1.244 . S
O220 Tb221 2.506 . S
O220 C234 1.265 . S
Tb221 O220 2.506 . S
Tb221 O226 2.312 . S
Tb221 O230 2.271 . S
Tb221 O232 2.338 . S
Tb221 O239 2.441 . S
C222 O230 1.252 . S
C222 O231 1.253 . S
O223 Tb224 2.271 . S
O223 C233 1.252 . S
Tb224 O223 2.271 . S
Tb224 O227 2.338 . S
Tb224 O231 2.312 . S
Tb224 O235 2.441 . S
Tb224 O236 2.506 . S
C225 O235 1.244 . S
C225 O236 1.265 . S
O226 Tb221 2.312 . S
O226 C233 1.253 . S
O227 Tb224 2.338 . S
O227 C228 1.258 . S
C228 O227 1.258 . S
C228 O229 1.251 . S
O229 C228 1.251 . S
O230 Tb221 2.271 . S
O230 C222 1.252 . S
O231 C222 1.253 . S
O231 Tb224 2.312 . S
O232 Tb221 2.338 . S
O232 C237 1.258 . S
C233 O223 1.252 . S
C233 O226 1.253 . S
C234 O220 1.265 . S
C234 O239 1.244 . S
O235 Tb224 2.441 . S
O235 C225 1.244 . S
O236 Tb224 2.506 . S
O236 C225 1.265 . S
C237 O232 1.258 . S
C237 O238 1.251 . S
O238 C237 1.251 . S
O239 Tb221 2.441 . S
O239 C234 1.244 . S
O240 Tb241 2.506 . S
O240 C254 1.265 . S
Tb241 O240 2.506 . S
Tb241 O246 2.312 . S
Tb241 O250 2.271 . S
Tb241 O252 2.338 . S
Tb241 O259 2.441 . S
C242 O250 1.252 . S
C242 O251 1.253 . S
O243 Tb244 2.271 . S
O243 C253 1.252 . S
Tb244 O243 2.271 . S
Tb244 O247 2.338 . S
Tb244 O251 2.312 . S
Tb244 O255 2.441 . S
Tb244 O256 2.506 . S
C245 O255 1.244 . S
C245 O256 1.265 . S
O246 Tb241 2.312 . S
O246 C253 1.253 . S
O247 Tb244 2.338 . S
O247 C248 1.258 . S
C248 O247 1.258 . S
C248 O249 1.251 . S
O249 C248 1.251 . S
O250 Tb241 2.271 . S
O250 C242 1.252 . S
O251 C242 1.253 . S
O251 Tb244 2.312 . S
O252 Tb241 2.338 . S
O252 C257 1.258 . S
C253 O243 1.252 . S
C253 O246 1.253 . S
C254 O240 1.265 . S
C254 O259 1.244 . S
O255 Tb244 2.441 . S
O255 C245 1.244 . S
O256 Tb244 2.506 . S
O256 C245 1.265 . S
C257 O252 1.258 . S
C257 O258 1.251 . S
O258 C257 1.251 . S
O259 Tb241 2.441 . S
O259 C254 1.244 . S
O260 Tb261 2.506 . S
O260 C274 1.265 . S
Tb261 O260 2.506 . S
Tb261 O266 2.312 . S
Tb261 O270 2.271 . S
Tb261 O272 2.338 . S
Tb261 O279 2.441 . S
C262 O270 1.252 . S
C262 O271 1.253 . S
O263 Tb264 2.271 . S
O263 C273 1.252 . S
Tb264 O263 2.271 . S
Tb264 O267 2.338 . S
Tb264 O271 2.312 . S
Tb264 O275 2.441 . S
Tb264 O276 2.506 . S
C265 O275 1.244 . S
C265 O276 1.265 . S
O266 Tb261 2.312 . S
O266 C273 1.253 . S
O267 Tb264 2.338 . S
O267 C268 1.258 . S
C268 O267 1.258 . S
C268 O269 1.251 . S
O269 C268 1.251 . S
O270 Tb261 2.271 . S
O270 C262 1.252 . S
O271 C262 1.253 . S
O271 Tb264 2.312 . S
O272 Tb261 2.338 . S
O272 C277 1.258 . S
C273 O263 1.252 . S
C273 O266 1.253 . S
C274 O260 1.265 . S
C274 O279 1.244 . S
O275 Tb264 2.441 . S
O275 C265 1.244 . S
O276 Tb264 2.506 . S
O276 C265 1.265 . S
C277 O272 1.258 . S
C277 O278 1.251 . S
O278 C277 1.251 . S
O279 Tb261 2.441 . S
O279 C274 1.244 . S
O280 Tb281 2.506 . S
O280 C294 1.265 . S
Tb281 O280 2.506 . S
Tb281 O286 2.312 . S
Tb281 O290 2.271 . S
Tb281 O292 2.338 . S
Tb281 O299 2.441 . S
C282 O290 1.252 . S
C282 O291 1.253 . S
O283 Tb284 2.271 . S
O283 C293 1.252 . S
Tb284 O283 2.271 . S
Tb284 O287 2.338 . S
Tb284 O291 2.312 . S
Tb284 O295 2.441 . S
Tb284 O296 2.506 . S
C285 O295 1.244 . S
C285 O296 1.265 . S
O286 Tb281 2.312 . S
O286 C293 1.253 . S
O287 Tb284 2.338 . S
O287 C288 1.258 . S
C288 O287 1.258 . S
C288 O289 1.251 . S
O289 C288 1.251 . S
O290 Tb281 2.271 . S
O290 C282 1.252 . S
O291 C282 1.253 . S
O291 Tb284 2.312 . S
O292 Tb281 2.338 . S
O292 C297 1.258 . S
C293 O283 1.252 . S
C293 O286 1.253 . S
C294 O280 1.265 . S
C294 O299 1.244 . S
O295 Tb284 2.441 . S
O295 C285 1.244 . S
O296 Tb284 2.506 . S
O296 C285 1.265 . S
C297 O292 1.258 . S
C297 O298 1.251 . S
O298 C297 1.251 . S
O299 Tb281 2.441 . S
O299 C294 1.244 . S
O300 Tb301 2.506 . S
O300 C314 1.265 . S
Tb301 O300 2.506 . S
Tb301 O306 2.312 . S
Tb301 O310 2.271 . S
Tb301 O312 2.338 . S
Tb301 O319 2.441 . S
C302 O310 1.252 . S
C302 O311 1.253 . S
O303 Tb304 2.271 . S
O303 C313 1.252 . S
Tb304 O303 2.271 . S
Tb304 O307 2.338 . S
Tb304 O311 2.312 . S
Tb304 O315 2.441 . S
Tb304 O316 2.506 . S
C305 O315 1.244 . S
C305 O316 1.265 . S
O306 Tb301 2.312 . S
O306 C313 1.253 . S
O307 Tb304 2.338 . S
O307 C308 1.258 . S
C308 O307 1.258 . S
C308 O309 1.251 . S
O309 C308 1.251 . S
O310 Tb301 2.271 . S
O310 C302 1.252 . S
O311 C302 1.253 . S
O311 Tb304 2.312 . S
O312 Tb301 2.338 . S
O312 C317 1.258 . S
C313 O303 1.252 . S
C313 O306 1.253 . S
C314 O300 1.265 . S
C314 O319 1.244 . S
O315 Tb304 2.441 . S
O315 C305 1.244 . S
O316 Tb304 2.506 . S
O316 C305 1.265 . S
C317 O312 1.258 . S
C317 O318 1.251 . S
O318 C317 1.251 . S
O319 Tb301 2.441 . S
O319 C314 1.244 . S
O320 Tb321 2.506 . S
O320 C334 1.265 . S
Tb321 O320 2.506 . S
Tb321 O326 2.312 . S
Tb321 O330 2.271 . S
Tb321 O332 2.338 . S
Tb321 O339 2.441 . S
C322 O330 1.252 . S
C322 O331 1.253 . S
O323 Tb324 2.271 . S
O323 C333 1.252 . S
Tb324 O323 2.271 . S
Tb324 O327 2.338 . S
Tb324 O331 2.312 . S
Tb324 O335 2.441 . S
Tb324 O336 2.506 . S
C325 O335 1.244 . S
C325 O336 1.265 . S
O326 Tb321 2.312 . S
O326 C333 1.253 . S
O327 Tb324 2.338 . S
O327 C328 1.258 . S
C328 O327 1.258 . S
C328 O329 1.251 . S
O329 C328 1.251 . S
O330 Tb321 2.271 . S
O330 C322 1.252 . S
O331 C322 1.253 . S
O331 Tb324 2.312 . S
O332 Tb321 2.338 . S
O332 C337 1.258 . S
C333 O323 1.252 . S
C333 O326 1.253 . S
C334 O320 1.265 . S
C334 O339 1.244 . S
O335 Tb324 2.441 . S
O335 C325 1.244 . S
O336 Tb324 2.506 . S
O336 C325 1.265 . S
C337 O332 1.258 . S
C337 O338 1.251 . S
O338 C337 1.251 . S
O339 Tb321 2.441 . S
O339 C334 1.244 . S
O340 Tb341 2.506 . S
O340 C354 1.265 . S
Tb341 O340 2.506 . S
Tb341 O346 2.312 . S
Tb341 O350 2.271 . S
Tb341 O352 2.338 . S
Tb341 O359 2.441 . S
C342 O350 1.252 . S
C342 O351 1.253 . S
O343 Tb344 2.271 . S
O343 C353 1.252 . S
Tb344 O343 2.271 . S
Tb344 O347 2.338 . S
Tb344 O351 2.312 . S
Tb344 O355 2.441 . S
Tb344 O356 2.506 . S
C345 O355 1.244 . S
C345 O356 1.265 . S
O346 Tb341 2.312 . S
O346 C353 1.253 . S
O347 Tb344 2.338 . S
O347 C348 1.258 . S
C348 O347 1.258 . S
C348 O349 1.251 . S
O349 C348 1.251 . S
O350 Tb341 2.271 . S
O350 C342 1.252 . S
O351 C342 1.253 . S
O351 Tb344 2.312 . S
O352 Tb341 2.338 . S
O352 C357 1.258 . S
C353 O343 1.252 . S
C353 O346 1.253 . S
C354 O340 1.265 . S
C354 O359 1.244 . S
O355 Tb344 2.441 . S
O355 C345 1.244 . S
O356 Tb344 2.506 . S
O356 C345 1.265 . S
C357 O352 1.258 . S
C357 O358 1.251 . S
O358 C357 1.251 . S
O359 Tb341 2.441 . S
O359 C354 1.244 . S
O360 Tb361 2.506 . S
O360 C374 1.265 . S
Tb361 O360 2.506 . S
Tb361 O366 2.312 . S
Tb361 O370 2.271 . S
Tb361 O372 2.338 . S
Tb361 O379 2.441 . S
C362 O370 1.252 . S
C362 O371 1.253 . S
O363 Tb364 2.271 . S
O363 C373 1.252 . S
Tb364 O363 2.271 . S
Tb364 O367 2.338 . S
Tb364 O371 2.312 . S
Tb364 O375 2.441 . S
Tb364 O376 2.506 . S
C365 O375 1.244 . S
C365 O376 1.265 . S
O366 Tb361 2.312 . S
O366 C373 1.253 . S
O367 Tb364 2.338 . S
O367 C368 1.258 . S
C368 O367 1.258 . S
C368 O369 1.251 . S
O369 C368 1.251 . S
O370 Tb361 2.271 . S
O370 C362 1.252 . S
O371 C362 1.253 . S
O371 Tb364 2.312 . S
O372 Tb361 2.338 . S
O372 C377 1.258 . S
C373 O363 1.252 . S
C373 O366 1.253 . S
C374 O360 1.265 . S
C374 O379 1.244 . S
O375 Tb364 2.441 . S
O375 C365 1.244 . S
O376 Tb364 2.506 . S
O376 C365 1.265 . S
C377 O372 1.258 . S
C377 O378 1.251 . S
O378 C377 1.251 . S
O379 Tb361 2.441 . S
O379 C374 1.244 . S
O380 Tb381 2.506 . S
O380 C394 1.265 . S
Tb381 O380 2.506 . S
Tb381 O386 2.312 . S
Tb381 O390 2.271 . S
Tb381 O392 2.338 . S
Tb381 O399 2.441 . S
C382 O390 1.252 . S
C382 O391 1.253 . S
O383 Tb384 2.271 . S
O383 C393 1.252 . S
Tb384 O383 2.271 . S
Tb384 O387 2.338 . S
Tb384 O391 2.312 . S
Tb384 O395 2.441 . S
Tb384 O396 2.506 . S
C385 O395 1.244 . S
C385 O396 1.265 . S
O386 Tb381 2.312 . S
O386 C393 1.253 . S
O387 Tb384 2.338 . S
O387 C388 1.258 . S
C388 O387 1.258 . S
C388 O389 1.251 . S
O389 C388 1.251 . S
O390 Tb381 2.271 . S
O390 C382 1.252 . S
O391 C382 1.253 . S
O391 Tb384 2.312 . S
O392 Tb381 2.338 . S
O392 C397 1.258 . S
C393 O383 1.252 . S
C393 O386 1.253 . S
C394 O380 1.265 . S
C394 O399 1.244 . S
O395 Tb384 2.441 . S
O395 C385 1.244 . S
O396 Tb384 2.506 . S
O396 C385 1.265 . S
C397 O392 1.258 . S
C397 O398 1.251 . S
O398 C397 1.251 . S
O399 Tb381 2.441 . S
O399 C394 1.244 . S
O400 Tb401 2.506 . S
O400 C414 1.265 . S
Tb401 O400 2.506 . S
Tb401 O406 2.312 . S
Tb401 O410 2.271 . S
Tb401 O412 2.338 . S
Tb401 O419 2.441 . S
C402 O410 1.252 . S
C402 O411 1.253 . S
O403 Tb404 2.271 . S
O403 C413 1.252 . S
Tb404 O403 2.271 . S
Tb404 O407 2.338 . S
Tb404 O411 2.312 . S
Tb404 O415 2.441 . S
Tb404 O416 2.506 . S
C405 O415 1.244 . S
C405 O416 1.265 . S
O406 Tb401 2.312 . S
O406 C413 1.253 . S
O407 Tb404 2.338 . S
O407 C408 1.258 . S
C408 O407 1.258 . S
C408 O409 1.251 . S
O409 C408 1.251 . S
O410 Tb401 2.271 . S
O410 C402 1.252 . S
O411 C402 1.253 . S
O411 Tb404 2.312 . S
O412 Tb401 2.338 . S
O412 C417 1.258 . S
C413 O403 1.252 . S
C413 O406 1.253 . S
C414 O400 1.265 . S
C414 O419 1.244 . S
O415 Tb404 2.441 . S
O415 C405 1.244 . S
O416 Tb404 2.506 . S
O416 C405 1.265 . S
C417 O412 1.258 . S
C417 O418 1.251 . S
O418 C417 1.251 . S
O419 Tb401 2.441 . S
O419 C414 1.244 . S
O420 Tb421 2.506 . S
O420 C434 1.265 . S
Tb421 O420 2.506 . S
Tb421 O426 2.312 . S
Tb421 O430 2.271 . S
Tb421 O432 2.338 . S
Tb421 O439 2.441 . S
C422 O430 1.252 . S
C422 O431 1.253 . S
O423 Tb424 2.271 . S
O423 C433 1.252 . S
Tb424 O423 2.271 . S
Tb424 O427 2.338 . S
Tb424 O431 2.312 . S
Tb424 O435 2.441 . S
Tb424 O436 2.506 . S
C425 O435 1.244 . S
C425 O436 1.265 . S
O426 Tb421 2.312 . S
O426 C433 1.253 . S
O427 Tb424 2.338 . S
O427 C428 1.258 . S
C428 O427 1.258 . S
C428 O429 1.251 . S
O429 C428 1.251 . S
O430 Tb421 2.271 . S
O430 C422 1.252 . S
O431 C422 1.253 . S
O431 Tb424 2.312 . S
O432 Tb421 2.338 . S
O432 C437 1.258 . S
C433 O423 1.252 . S
C433 O426 1.253 . S
C434 O420 1.265 . S
C434 O439 1.244 . S
O435 Tb424 2.441 . S
O435 C425 1.244 . S
O436 Tb424 2.506 . S
O436 C425 1.265 . S
C437 O432 1.258 . S
C437 O438 1.251 . S
O438 C437 1.251 . S
O439 Tb421 2.441 . S
O439 C434 1.244 . S
O440 Tb441 2.506 . S
O440 C454 1.265 . S
Tb441 O440 2.506 . S
Tb441 O446 2.312 . S
Tb441 O450 2.271 . S
Tb441 O452 2.338 . S
Tb441 O459 2.441 . S
C442 O450 1.252 . S
C442 O451 1.253 . S
O443 Tb444 2.271 . S
O443 C453 1.252 . S
Tb444 O443 2.271 . S
Tb444 O447 2.338 . S
Tb444 O451 2.312 . S
Tb444 O455 2.441 . S
Tb444 O456 2.506 . S
C445 O455 1.244 . S
C445 O456 1.265 . S
O446 Tb441 2.312 . S
O446 C453 1.253 . S
O447 Tb444 2.338 . S
O447 C448 1.258 . S
C448 O447 1.258 . S
C448 O449 1.251 . S
O449 C448 1.251 . S
O450 Tb441 2.271 . S
O450 C442 1.252 . S
O451 C442 1.253 . S
O451 Tb444 2.312 . S
O452 Tb441 2.338 . S
O452 C457 1.258 . S
C453 O443 1.252 . S
C453 O446 1.253 . S
C454 O440 1.265 . S
C454 O459 1.244 . S
O455 Tb444 2.441 . S
O455 C445 1.244 . S
O456 Tb444 2.506 . S
O456 C445 1.265 . S
C457 O452 1.258 . S
C457 O458 1.251 . S
O458 C457 1.251 . S
O459 Tb441 2.441 . S
O459 C454 1.244 . S
O460 Tb461 2.506 . S
O460 C474 1.265 . S
Tb461 O460 2.506 . S
Tb461 O466 2.312 . S
Tb461 O470 2.271 . S
Tb461 O472 2.338 . S
Tb461 O479 2.441 . S
C462 O470 1.252 . S
C462 O471 1.253 . S
O463 Tb464 2.271 . S
O463 C473 1.252 . S
Tb464 O463 2.271 . S
Tb464 O467 2.338 . S
Tb464 O471 2.312 . S
Tb464 O475 2.441 . S
Tb464 O476 2.506 . S
C465 O475 1.244 . S
C465 O476 1.265 . S
O466 Tb461 2.312 . S
O466 C473 1.253 . S
O467 Tb464 2.338 . S
O467 C468 1.258 . S
C468 O467 1.258 . S
C468 O469 1.251 . S
O469 C468 1.251 . S
O470 Tb461 2.271 . S
O470 C462 1.252 . S
O471 C462 1.253 . S
O471 Tb464 2.312 . S
O472 Tb461 2.338 . S
O472 C477 1.258 . S
C473 O463 1.252 . S
C473 O466 1.253 . S
C474 O460 1.265 . S
C474 O479 1.244 . S
O475 Tb464 2.441 . S
O475 C465 1.244 . S
O476 Tb464 2.506 . S
O476 C465 1.265 . S
C477 O472 1.258 . S
C477 O478 1.251 . S
O478 C477 1.251 . S
O479 Tb461 2.441 . S
O479 C474 1.244 . S
O480 Tb481 2.506 . S
O480 C494 1.265 . S
Tb481 O480 2.506 . S
Tb481 O486 2.312 . S
Tb481 O490 2.271 . S
Tb481 O492 2.338 . S
Tb481 O499 2.441 . S
C482 O490 1.252 . S
C482 O491 1.253 . S
O483 Tb484 2.271 . S
O483 C493 1.252 . S
Tb484 O483 2.271 . S
Tb484 O487 2.338 . S
Tb484 O491 2.312 . S
Tb484 O495 2.441 . S
Tb484 O496 2.506 . S
C485 O495 1.244 . S
C485 O496 1.265 . S
O486 Tb481 2.312 . S
O486 C493 1.253 . S
O487 Tb484 2.338 . S
O487 C488 1.258 . S
C488 O487 1.258 . S
C488 O489 1.251 . S
O489 C488 1.251 . S
O490 Tb481 2.271 . S
O490 C482 1.252 . S
O491 C482 1.253 . S
O491 Tb484 2.312 . S
O492 Tb481 2.338 . S
O492 C497 1.258 . S
C493 O483 1.252 . S
C493 O486 1.253 . S
C494 O480 1.265 . S
C494 O499 1.244 . S
O495 Tb484 2.441 . S
O495 C485 1.244 . S
O496 Tb484 2.506 . S
O496 C485 1.265 . S
C497 O492 1.258 . S
C497 O498 1.251 . S
O498 C497 1.251 . S
O499 Tb481 2.441 . S
O499 C494 1.244 . S
O500 Tb501 2.506 . S
O500 C514 1.265 . S
Tb501 O500 2.506 . S
Tb501 O506 2.312 . S
Tb501 O510 2.271 . S
Tb501 O512 2.338 . S
Tb501 O519 2.441 . S
C502 O510 1.252 . S
C502 O511 1.253 . S
O503 Tb504 2.271 . S
O503 C513 1.252 . S
Tb504 O503 2.271 . S
Tb504 O507 2.338 . S
Tb504 O511 2.312 . S
Tb504 O515 2.441 . S
Tb504 O516 2.506 . S
C505 O515 1.244 . S
C505 O516 1.265 . S
O506 Tb501 2.312 . S
O506 C513 1.253 . S
O507 Tb504 2.338 . S
O507 C508 1.258 . S
C508 O507 1.258 . S
C508 O509 1.251 . S
O509 C508 1.251 . S
O510 Tb501 2.271 . S
O510 C502 1.252 . S
O511 C502 1.253 . S
O511 Tb504 2.312 . S
O512 Tb501 2.338 . S
O512 C517 1.258 . S
C513 O503 1.252 . S
C513 O506 1.253 . S
C514 O500 1.265 . S
C514 O519 1.244 . S
O515 Tb504 2.441 . S
O515 C505 1.244 . S
O516 Tb504 2.506 . S
O516 C505 1.265 . S
C517 O512 1.258 . S
C517 O518 1.251 . S
O518 C517 1.251 . S
O519 Tb501 2.441 . S
O519 C514 1.244 . S
O520 Tb521 2.506 . S
O520 C534 1.265 . S
Tb521 O520 2.506 . S
Tb521 O526 2.312 . S
Tb521 O530 2.271 . S
Tb521 O532 2.338 . S
Tb521 O539 2.441 . S
C522 O530 1.252 . S
C522 O531 1.253 . S
O523 Tb524 2.271 . S
O523 C533 1.252 . S
Tb524 O523 2.271 . S
Tb524 O527 2.338 . S
Tb524 O531 2.312 . S
Tb524 O535 2.441 . S
Tb524 O536 2.506 . S
C525 O535 1.244 . S
C525 O536 1.265 . S
O526 Tb521 2.312 . S
O526 C533 1.253 . S
O527 Tb524 2.338 . S
O527 C528 1.258 . S
C528 O527 1.258 . S
C528 O529 1.251 . S
O529 C528 1.251 . S
O530 Tb521 2.271 . S
O530 C522 1.252 . S
O531 C522 1.253 . S
O531 Tb524 2.312 . S
O532 Tb521 2.338 . S
O532 C537 1.258 . S
C533 O523 1.252 . S
C533 O526 1.253 . S
C534 O520 1.265 . S
C534 O539 1.244 . S
O535 Tb524 2.441 . S
O535 C525 1.244 . S
O536 Tb524 2.506 . S
O536 C525 1.265 . S
C537 O532 1.258 . S
C537 O538 1.251 . S
O538 C537 1.251 . S
O539 Tb521 2.441 . S
O539 C534 1.244 . S
O540 Tb541 2.506 . S
O540 C554 1.265 . S
Tb541 O540 2.506 . S
Tb541 O546 2.312 . S
Tb541 O550 2.271 . S
Tb541 O552 2.338 . S
Tb541 O559 2.441 . S
C542 O550 1.252 . S
C542 O551 1.253 . S
O543 Tb544 2.271 . S
O543 C553 1.252 . S
Tb544 O543 2.271 . S
Tb544 O547 2.338 . S
Tb544 O551 2.312 . S
Tb544 O555 2.441 . S
Tb544 O556 2.506 . S
C545 O555 1.244 . S
C545 O556 1.265 . S
O546 Tb541 2.312 . S
O546 C553 1.253 . S
O547 Tb544 2.338 . S
O547 C548 1.258 . S
C548 O547 1.258 . S
C548 O549 1.251 . S
O549 C548 1.251 . S
O550 Tb541 2.271 . S
O550 C542 1.252 . S
O551 C542 1.253 . S
O551 Tb544 2.312 . S
O552 Tb541 2.338 . S
O552 C557 1.258 . S
C553 O543 1.252 . S
C553 O546 1.253 . S
C554 O540 1.265 . S
C554 O559 1.244 . S
O555 Tb544 2.441 . S
O555 C545 1.244 . S
O556 Tb544 2.506 . S
O556 C545 1.265 . S
C557 O552 1.258 . S
C557 O558 1.251 . S
O558 C557 1.251 . S
O559 Tb541 2.441 . S
O559 C554 1.244 . S
O560 Tb561 2.506 . S
O560 C574 1.265 . S
Tb561 O560 2.506 . S
Tb561 O566 2.312 . S
Tb561 O570 2.271 . S
Tb561 O572 2.338 . S
Tb561 O579 2.441 . S
C562 O570 1.252 . S
C562 O571 1.253 . S
O563 Tb564 2.271 . S
O563 C573 1.252 . S
Tb564 O563 2.271 . S
Tb564 O567 2.338 . S
Tb564 O571 2.312 . S
Tb564 O575 2.441 . S
Tb564 O576 2.506 . S
C565 O575 1.244 . S
C565 O576 1.265 . S
O566 Tb561 2.312 . S
O566 C573 1.253 . S
O567 Tb564 2.338 . S
O567 C568 1.258 . S
C568 O567 1.258 . S
C568 O569 1.251 . S
O569 C568 1.251 . S
O570 Tb561 2.271 . S
O570 C562 1.252 . S
O571 C562 1.253 . S
O571 Tb564 2.312 . S
O572 Tb561 2.338 . S
O572 C577 1.258 . S
C573 O563 1.252 . S
C573 O566 1.253 . S
C574 O560 1.265 . S
C574 O579 1.244 . S
O575 Tb564 2.441 . S
O575 C565 1.244 . S
O576 Tb564 2.506 . S
O576 C565 1.265 . S
C577 O572 1.258 . S
C577 O578 1.251 . S
O578 C577 1.251 . S
O579 Tb561 2.441 . S
O579 C574 1.244 . S
O580 Tb581 2.506 . S
O580 C594 1.265 . S
Tb581 O580 2.506 . S
Tb581 O586 2.312 . S
Tb581 O590 2.271 . S
Tb581 O592 2.338 . S
Tb581 O599 2.441 . S
C582 O590 1.252 . S
C582 O591 1.253 . S
O583 Tb584 2.271 . S
O583 C593 1.252 . S
Tb584 O583 2.271 . S
Tb584 O587 2.338 . S
Tb584 O591 2.312 . S
Tb584 O595 2.441 . S
Tb584 O596 2.506 . S
C585 O595 1.244 . S
C585 O596 1.265 . S
O586 Tb581 2.312 . S
O586 C593 1.253 . S
O587 Tb584 2.338 . S
O587 C588 1.258 . S
C588 O587 1.258 . S
C588 O589 1.251 . S
O589 C588 1.251 . S
O590 Tb581 2.271 . S
O590 C582 1.252 . S
O591 C582 1.253 . S
O591 Tb584 2.312 . S
O592 Tb581 2.338 . S
O592 C597 1.258 . S
C593 O583 1.252 . S
C593 O586 1.253 . S
C594 O580 1.265 . S
C594 O599 1.244 . S
O595 Tb584 2.441 . S
O595 C585 1.244 . S
O596 Tb584 2.506 . S
O596 C585 1.265 . S
C597 O592 1.258 . S
C597 O598 1.251 . S
O598 C597 1.251 . S
O599 Tb581 2.441 . S
O599 C594 1.244 . S
O600 Tb601 2.506 . S
O600 C614 1.265 . S
Tb601 O600 2.506 . S
Tb601 O606 2.312 . S
Tb601 O610 2.271 . S
Tb601 O612 2.338 . S
Tb601 O619 2.441 . S
C602 O610 1.252 . S
C602 O611 1.253 . S
O603 Tb604 2.271 . S
O603 C613 1.252 . S
Tb604 O603 2.271 . S
Tb604 O607 2.338 . S
Tb604 O611 2.312 . S
Tb604 O615 2.441 . S
Tb604 O616 2.506 . S
C605 O615 1.244 . S
C605 O616 1.265 . S
O606 Tb601 2.312 . S
O606 C613 1.253 . S
O607 Tb604 2.338 . S
O607 C608 1.258 . S
C608 O607 1.258 . S
C608 O609 1.251 . S
O609 C608 1.251 . S
O610 Tb601 2.271 . S
O610 C602 1.252 . S
O611 C602 1.253 . S
O611 Tb604 2.312 . S
O612 Tb601 2.338 . S
O612 C617 1.258 . S
C613 O603 1.252 . S
C613 O606 1.253 . S
C614 O600 1.265 . S
C614 O619 1.244 . S
O615 Tb604 2.441 . S
O615 C605 1.244 . S
O616 Tb604 2.506 . S
O616 C605 1.265 . S
C617 O612 1.258 . S
C617 O618 1.251 . S
O618 C617 1.251 . S
O619 Tb601 2.441 . S
O619 C614 1.244 . S
O620 Tb621 2.506 . S
O620 C634 1.265 . S
Tb621 O620 2.506 . S
Tb621 O626 2.312 . S
Tb621 O630 2.271 . S
Tb621 O632 2.338 . S
Tb621 O639 2.441 . S
C622 O630 1.252 . S
C622 O631 1.253 . S
O623 Tb624 2.271 . S
O623 C633 1.252 . S
Tb624 O623 2.271 . S
Tb624 O627 2.338 . S
Tb624 O631 2.312 . S
Tb624 O635 2.441 . S
Tb624 O636 2.506 . S
C625 O635 1.244 . S
C625 O636 1.265 . S
O626 Tb621 2.312 . S
O626 C633 1.253 . S
O627 Tb624 2.338 . S
O627 C628 1.258 . S
C628 O627 1.258 . S
C628 O629 1.251 . S
O629 C628 1.251 . S
O630 Tb621 2.271 . S
O630 C622 1.252 . S
O631 C622 1.253 . S
O631 Tb624 2.312 . S
O632 Tb621 2.338 . S
O632 C637 1.258 . S
C633 O623 1.252 . S
C633 O626 1.253 . S
C634 O620 1.265 . S
C634 O639 1.244 . S
O635 Tb624 2.441 . S
O635 C625 1.244 . S
O636 Tb624 2.506 . S
O636 C625 1.265 . S
C637 O632 1.258 . S
C637 O638 1.251 . S
O638 C637 1.251 . S
O639 Tb621 2.441 . S
O639 C634 1.244 . S
H640 C646 0.930 . S
H641 C649 0.930 . S
H642 C650 0.930 . S
H643 C651 0.930 . S
H644 C654 0.930 . S
H645 C655 0.930 . S
C646 H640 0.930 . S
C646 C647 1.355 . S
C646 C648 1.415 . S
C647 C646 1.355 . S
C647 C649 1.419 . S
C648 C646 1.415 . S
C648 C653 1.425 . S
C648 C655 1.409 . S
C649 H641 0.930 . S
C649 C647 1.419 . S
C649 C650 1.362 . S
C650 H642 0.930 . S
C650 C649 1.362 . S
C650 C653 1.409 . S
C651 H643 0.930 . S
C651 C652 1.355 . S
C651 C653 1.415 . S
C652 C651 1.355 . S
C652 C654 1.419 . S
C653 C648 1.425 . S
C653 C650 1.409 . S
C653 C651 1.415 . S
C654 H644 0.930 . S
C654 C652 1.419 . S
C654 C655 1.362 . S
C655 H645 0.930 . S
C655 C648 1.409 . S
C655 C654 1.362 . S
H656 C662 0.930 . S
H657 C665 0.930 . S
H658 C666 0.930 . S
H659 C667 0.930 . S
H660 C670 0.930 . S
H661 C671 0.930 . S
C662 H656 0.930 . S
C662 C663 1.355 . S
C662 C664 1.415 . S
C663 C662 1.355 . S
C663 C665 1.419 . S
C664 C662 1.415 . S
C664 C669 1.425 . S
C664 C671 1.409 . S
C665 H657 0.930 . S
C665 C663 1.419 . S
C665 C666 1.362 . S
C666 H658 0.930 . S
C666 C665 1.362 . S
C666 C669 1.409 . S
C667 H659 0.930 . S
C667 C668 1.355 . S
C667 C669 1.415 . S
C668 C667 1.355 . S
C668 C670 1.419 . S
C669 C664 1.425 . S
C669 C666 1.409 . S
C669 C667 1.415 . S
C670 H660 0.930 . S
C670 C668 1.419 . S
C670 C671 1.362 . S
C671 H661 0.930 . S
C671 C664 1.409 . S
C671 C670 1.362 . S
H672 C678 0.930 . S
H673 C681 0.930 . S
H674 C682 0.930 . S
H675 C683 0.930 . S
H676 C686 0.930 . S
H677 C687 0.930 . S
C678 H672 0.930 . S
C678 C679 1.355 . S
C678 C680 1.415 . S
C679 C678 1.355 . S
C679 C681 1.419 . S
C680 C678 1.415 . S
C680 C685 1.425 . S
C680 C687 1.409 . S
C681 H673 0.930 . S
C681 C679 1.419 . S
C681 C682 1.362 . S
C682 H674 0.930 . S
C682 C681 1.362 . S
C682 C685 1.409 . S
C683 H675 0.930 . S
C683 C684 1.355 . S
C683 C685 1.415 . S
C684 C683 1.355 . S
C684 C686 1.419 . S
C685 C680 1.425 . S
C685 C682 1.409 . S
C685 C683 1.415 . S
C686 H676 0.930 . S
C686 C684 1.419 . S
C686 C687 1.362 . S
C687 H677 0.930 . S
C687 C680 1.409 . S
C687 C686 1.362 . S
H688 C694 0.930 . S
H689 C697 0.930 . S
H690 C698 0.930 . S
H691 C699 0.930 . S
H692 C702 0.930 . S
H693 C703 0.930 . S
C694 H688 0.930 . S
C694 C695 1.355 . S
C694 C696 1.415 . S
C695 C694 1.355 . S
C695 C697 1.419 . S
C696 C694 1.415 . S
C696 C701 1.425 . S
C696 C703 1.409 . S
C697 H689 0.930 . S
C697 C695 1.419 . S
C697 C698 1.362 . S
C698 H690 0.930 . S
C698 C697 1.362 . S
C698 C701 1.409 . S
C699 H691 0.930 . S
C699 C700 1.355 . S
C699 C701 1.415 . S
C700 C699 1.355 . S
C700 C702 1.419 . S
C701 C696 1.425 . S
C701 C698 1.409 . S
C701 C699 1.415 . S
C702 H692 0.930 . S
C702 C700 1.419 . S
C702 C703 1.362 . S
C703 H693 0.930 . S
C703 C696 1.409 . S
C703 C702 1.362 . S
H704 C710 0.930 . S
H705 C713 0.930 . S
H706 C714 0.930 . S
H707 C715 0.930 . S
H708 C718 0.930 . S
H709 C719 0.930 . S
C710 H704 0.930 . S
C710 C711 1.355 . S
C710 C712 1.415 . S
C711 C710 1.355 . S
C711 C713 1.419 . S
C712 C710 1.415 . S
C712 C717 1.425 . S
C712 C719 1.409 . S
C713 H705 0.930 . S
C713 C711 1.419 . S
C713 C714 1.362 . S
C714 H706 0.930 . S
C714 C713 1.362 . S
C714 C717 1.409 . S
C715 H707 0.930 . S
C715 C716 1.355 . S
C715 C717 1.415 . S
C716 C715 1.355 . S
C716 C718 1.419 . S
C717 C712 1.425 . S
C717 C714 1.409 . S
C717 C715 1.415 . S
C718 H708 0.930 . S
C718 C716 1.419 . S
C718 C719 1.362 . S
C719 H709 0.930 . S
C719 C712 1.409 . S
C719 C718 1.362 . S
H720 C726 0.930 . S
H721 C729 0.930 . S
H722 C730 0.930 . S
H723 C731 0.930 . S
H724 C734 0.930 . S
H725 C735 0.930 . S
C726 H720 0.930 . S
C726 C727 1.355 . S
C726 C728 1.415 . S
C727 C726 1.355 . S
C727 C729 1.419 . S
C728 C726 1.415 . S
C728 C733 1.425 . S
C728 C735 1.409 . S
C729 H721 0.930 . S
C729 C727 1.419 . S
C729 C730 1.362 . S
C730 H722 0.930 . S
C730 C729 1.362 . S
C730 C733 1.409 . S
C731 H723 0.930 . S
C731 C732 1.355 . S
C731 C733 1.415 . S
C732 C731 1.355 . S
C732 C734 1.419 . S
C733 C728 1.425 . S
C733 C730 1.409 . S
C733 C731 1.415 . S
C734 H724 0.930 . S
C734 C732 1.419 . S
C734 C735 1.362 . S
C735 H725 0.930 . S
C735 C728 1.409 . S
C735 C734 1.362 . S
H736 C742 0.930 . S
H737 C745 0.930 . S
H738 C746 0.930 . S
H739 C747 0.930 . S
H740 C750 0.930 . S
H741 C751 0.930 . S
C742 H736 0.930 . S
C742 C743 1.355 . S
C742 C744 1.415 . S
C743 C742 1.355 . S
C743 C745 1.419 . S
C744 C742 1.415 . S
C744 C749 1.425 . S
C744 C751 1.409 . S
C745 H737 0.930 . S
C745 C743 1.419 . S
C745 C746 1.362 . S
C746 H738 0.930 . S
C746 C745 1.362 . S
C746 C749 1.409 . S
C747 H739 0.930 . S
C747 C748 1.355 . S
C747 C749 1.415 . S
C748 C747 1.355 . S
C748 C750 1.419 . S
C749 C744 1.425 . S
C749 C746 1.409 . S
C749 C747 1.415 . S
C750 H740 0.930 . S
C750 C748 1.419 . S
C750 C751 1.362 . S
C751 H741 0.930 . S
C751 C744 1.409 . S
C751 C750 1.362 . S
H752 C758 0.930 . S
H753 C761 0.930 . S
H754 C762 0.930 . S
H755 C763 0.930 . S
H756 C766 0.930 . S
H757 C767 0.930 . S
C758 H752 0.930 . S
C758 C759 1.355 . S
C758 C760 1.415 . S
C759 C758 1.355 . S
C759 C761 1.419 . S
C760 C758 1.415 . S
C760 C765 1.425 . S
C760 C767 1.409 . S
C761 H753 0.930 . S
C761 C759 1.419 . S
C761 C762 1.362 . S
C762 H754 0.930 . S
C762 C761 1.362 . S
C762 C765 1.409 . S
C763 H755 0.930 . S
C763 C764 1.355 . S
C763 C765 1.415 . S
C764 C763 1.355 . S
C764 C766 1.419 . S
C765 C760 1.425 . S
C765 C762 1.409 . S
C765 C763 1.415 . S
C766 H756 0.930 . S
C766 C764 1.419 . S
C766 C767 1.362 . S
C767 H757 0.930 . S
C767 C760 1.409 . S
C767 C766 1.362 . S
H768 C774 0.930 . S
H769 C777 0.930 . S
H770 C778 0.930 . S
H771 C779 0.930 . S
H772 C782 0.930 . S
H773 C783 0.930 . S
C774 H768 0.930 . S
C774 C775 1.355 . S
C774 C776 1.415 . S
C775 C774 1.355 . S
C775 C777 1.419 . S
C776 C774 1.415 . S
C776 C781 1.425 . S
C776 C783 1.409 . S
C777 H769 0.930 . S
C777 C775 1.419 . S
C777 C778 1.362 . S
C778 H770 0.930 . S
C778 C777 1.362 . S
C778 C781 1.409 . S
C779 H771 0.930 . S
C779 C780 1.355 . S
C779 C781 1.415 . S
C780 C779 1.355 . S
C780 C782 1.419 . S
C781 C776 1.425 . S
C781 C778 1.409 . S
C781 C779 1.415 . S
C782 H772 0.930 . S
C782 C780 1.419 . S
C782 C783 1.362 . S
C783 H773 0.930 . S
C783 C776 1.409 . S
C783 C782 1.362 . S
H784 C790 0.930 . S
H785 C793 0.930 . S
H786 C794 0.930 . S
H787 C795 0.930 . S
H788 C798 0.930 . S
H789 C799 0.930 . S
C790 H784 0.930 . S
C790 C791 1.355 . S
C790 C792 1.415 . S
C791 C790 1.355 . S
C791 C793 1.419 . S
C792 C790 1.415 . S
C792 C797 1.425 . S
C792 C799 1.409 . S
C793 H785 0.930 . S
C793 C791 1.419 . S
C793 C794 1.362 . S
C794 H786 0.930 . S
C794 C793 1.362 . S
C794 C797 1.409 . S
C795 H787 0.930 . S
C795 C796 1.355 . S
C795 C797 1.415 . S
C796 C795 1.355 . S
C796 C798 1.419 . S
C797 C792 1.425 . S
C797 C794 1.409 . S
C797 C795 1.415 . S
C798 H788 0.930 . S
C798 C796 1.419 . S
C798 C799 1.362 . S
C799 H789 0.930 . S
C799 C792 1.409 . S
C799 C798 1.362 . S
H800 C806 0.930 . S
H801 C809 0.930 . S
H802 C810 0.930 . S
H803 C811 0.930 . S
H804 C814 0.930 . S
H805 C815 0.930 . S
C806 H800 0.930 . S
C806 C807 1.355 . S
C806 C808 1.415 . S
C807 C806 1.355 . S
C807 C809 1.419 . S
C808 C806 1.415 . S
C808 C813 1.425 . S
C808 C815 1.409 . S
C809 H801 0.930 . S
C809 C807 1.419 . S
C809 C810 1.362 . S
C810 H802 0.930 . S
C810 C809 1.362 . S
C810 C813 1.409 . S
C811 H803 0.930 . S
C811 C812 1.355 . S
C811 C813 1.415 . S
C812 C811 1.355 . S
C812 C814 1.419 . S
C813 C808 1.425 . S
C813 C810 1.409 . S
C813 C811 1.415 . S
C814 H804 0.930 . S
C814 C812 1.419 . S
C814 C815 1.362 . S
C815 H805 0.930 . S
C815 C808 1.409 . S
C815 C814 1.362 . S
H816 C822 0.930 . S
H817 C825 0.930 . S
H818 C826 0.930 . S
H819 C827 0.930 . S
H820 C830 0.930 . S
H821 C831 0.930 . S
C822 H816 0.930 . S
C822 C823 1.355 . S
C822 C824 1.415 . S
C823 C822 1.355 . S
C823 C825 1.419 . S
C824 C822 1.415 . S
C824 C829 1.425 . S
C824 C831 1.409 . S
C825 H817 0.930 . S
C825 C823 1.419 . S
C825 C826 1.362 . S
C826 H818 0.930 . S
C826 C825 1.362 . S
C826 C829 1.409 . S
C827 H819 0.930 . S
C827 C828 1.355 . S
C827 C829 1.415 . S
C828 C827 1.355 . S
C828 C830 1.419 . S
C829 C824 1.425 . S
C829 C826 1.409 . S
C829 C827 1.415 . S
C830 H820 0.930 . S
C830 C828 1.419 . S
C830 C831 1.362 . S
C831 H821 0.930 . S
C831 C824 1.409 . S
C831 C830 1.362 . S
H832 C838 0.930 . S
H833 C841 0.930 . S
H834 C842 0.930 . S
H835 C843 0.930 . S
H836 C846 0.930 . S
H837 C847 0.930 . S
C838 H832 0.930 . S
C838 C839 1.355 . S
C838 C840 1.415 . S
C839 C838 1.355 . S
C839 C841 1.419 . S
C840 C838 1.415 . S
C840 C845 1.425 . S
C840 C847 1.409 . S
C841 H833 0.930 . S
C841 C839 1.419 . S
C841 C842 1.362 . S
C842 H834 0.930 . S
C842 C841 1.362 . S
C842 C845 1.409 . S
C843 H835 0.930 . S
C843 C844 1.355 . S
C843 C845 1.415 . S
C844 C843 1.355 . S
C844 C846 1.419 . S
C845 C840 1.425 . S
C845 C842 1.409 . S
C845 C843 1.415 . S
C846 H836 0.930 . S
C846 C844 1.419 . S
C846 C847 1.362 . S
C847 H837 0.930 . S
C847 C840 1.409 . S
C847 C846 1.362 . S
H848 C854 0.930 . S
H849 C857 0.930 . S
H850 C858 0.930 . S
H851 C859 0.930 . S
H852 C862 0.930 . S
H853 C863 0.930 . S
C854 H848 0.930 . S
C854 C855 1.355 . S
C854 C856 1.415 . S
C855 C854 1.355 . S
C855 C857 1.419 . S
C856 C854 1.415 . S
C856 C861 1.425 . S
C856 C863 1.409 . S
C857 H849 0.930 . S
C857 C855 1.419 . S
C857 C858 1.362 . S
C858 H850 0.930 . S
C858 C857 1.362 . S
C858 C861 1.409 . S
C859 H851 0.930 . S
C859 C860 1.355 . S
C859 C861 1.415 . S
C860 C859 1.355 . S
C860 C862 1.419 . S
C861 C856 1.425 . S
C861 C858 1.409 . S
C861 C859 1.415 . S
C862 H852 0.930 . S
C862 C860 1.419 . S
C862 C863 1.362 . S
C863 H853 0.930 . S
C863 C856 1.409 . S
C863 C862 1.362 . S
H864 C870 0.930 . S
H865 C873 0.930 . S
H866 C874 0.930 . S
H867 C875 0.930 . S
H868 C878 0.930 . S
H869 C879 0.930 . S
C870 H864 0.930 . S
C870 C871 1.355 . S
C870 C872 1.415 . S
C871 C870 1.355 . S
C871 C873 1.419 . S
C872 C870 1.415 . S
C872 C877 1.425 . S
C872 C879 1.409 . S
C873 H865 0.930 . S
C873 C871 1.419 . S
C873 C874 1.362 . S
C874 H866 0.930 . S
C874 C873 1.362 . S
C874 C877 1.409 . S
C875 H867 0.930 . S
C875 C876 1.355 . S
C875 C877 1.415 . S
C876 C875 1.355 . S
C876 C878 1.419 . S
C877 C872 1.425 . S
C877 C874 1.409 . S
C877 C875 1.415 . S
C878 H868 0.930 . S
C878 C876 1.419 . S
C878 C879 1.362 . S
C879 H869 0.930 . S
C879 C872 1.409 . S
C879 C878 1.362 . S
H880 C886 0.930 . S
H881 C889 0.930 . S
H882 C890 0.930 . S
H883 C891 0.930 . S
H884 C894 0.930 . S
H885 C895 0.930 . S
C886 H880 0.930 . S
C886 C887 1.355 . S
C886 C888 1.415 . S
C887 C886 1.355 . S
C887 C889 1.419 . S
C888 C886 1.415 . S
C888 C893 1.425 . S
C888 C895 1.409 . S
C889 H881 0.930 . S
C889 C887 1.419 . S
C889 C890 1.362 . S
C890 H882 0.930 . S
C890 C889 1.362 . S
C890 C893 1.409 . S
C891 H883 0.930 . S
C891 C892 1.355 . S
C891 C893 1.415 . S
C892 C891 1.355 . S
C892 C894 1.419 . S
C893 C888 1.425 . S
C893 C890 1.409 . S
C893 C891 1.415 . S
C894 H884 0.930 . S
C894 C892 1.419 . S
C894 C895 1.362 . S
C895 H885 0.930 . S
C895 C888 1.409 . S
C895 C894 1.362 . S
H896 C902 0.930 . S
H897 C905 0.930 . S
H898 C906 0.930 . S
H899 C907 0.930 . S
H900 C910 0.930 . S
H901 C911 0.930 . S
C902 H896 0.930 . S
C902 C903 1.355 . S
C902 C904 1.415 . S
C903 C902 1.355 . S
C903 C905 1.419 . S
C904 C902 1.415 . S
C904 C909 1.425 . S
C904 C911 1.409 . S
C905 H897 0.930 . S
C905 C903 1.419 . S
C905 C906 1.362 . S
C906 H898 0.930 . S
C906 C905 1.362 . S
C906 C909 1.409 . S
C907 H899 0.930 . S
C907 C908 1.355 . S
C907 C909 1.415 . S
C908 C907 1.355 . S
C908 C910 1.419 . S
C909 C904 1.425 . S
C909 C906 1.409 . S
C909 C907 1.415 . S
C910 H900 0.930 . S
C910 C908 1.419 . S
C910 C911 1.362 . S
C911 H901 0.930 . S
C911 C904 1.409 . S
C911 C910 1.362 . S
H912 C918 0.930 . S
H913 C921 0.930 . S
H914 C922 0.930 . S
H915 C923 0.930 . S
H916 C926 0.930 . S
H917 C927 0.930 . S
C918 H912 0.930 . S
C918 C919 1.355 . S
C918 C920 1.415 . S
C919 C918 1.355 . S
C919 C921 1.419 . S
C920 C918 1.415 . S
C920 C925 1.425 . S
C920 C927 1.409 . S
C921 H913 0.930 . S
C921 C919 1.419 . S
C921 C922 1.362 . S
C922 H914 0.930 . S
C922 C921 1.362 . S
C922 C925 1.409 . S
C923 H915 0.930 . S
C923 C924 1.355 . S
C923 C925 1.415 . S
C924 C923 1.355 . S
C924 C926 1.419 . S
C925 C920 1.425 . S
C925 C922 1.409 . S
C925 C923 1.415 . S
C926 H916 0.930 . S
C926 C924 1.419 . S
C926 C927 1.362 . S
C927 H917 0.930 . S
C927 C920 1.409 . S
C927 C926 1.362 . S
H928 C934 0.930 . S
H929 C937 0.930 . S
H930 C938 0.930 . S
H931 C939 0.930 . S
H932 C942 0.930 . S
H933 C943 0.930 . S
C934 H928 0.930 . S
C934 C935 1.355 . S
C934 C936 1.415 . S
C935 C934 1.355 . S
C935 C937 1.419 . S
C936 C934 1.415 . S
C936 C941 1.425 . S
C936 C943 1.409 . S
C937 H929 0.930 . S
C937 C935 1.419 . S
C937 C938 1.362 . S
C938 H930 0.930 . S
C938 C937 1.362 . S
C938 C941 1.409 . S
C939 H931 0.930 . S
C939 C940 1.355 . S
C939 C941 1.415 . S
C940 C939 1.355 . S
C940 C942 1.419 . S
C941 C936 1.425 . S
C941 C938 1.409 . S
C941 C939 1.415 . S
C942 H932 0.930 . S
C942 C940 1.419 . S
C942 C943 1.362 . S
C943 H933 0.930 . S
C943 C936 1.409 . S
C943 C942 1.362 . S
H944 C950 0.930 . S
H945 C953 0.930 . S
H946 C954 0.930 . S
H947 C955 0.930 . S
H948 C958 0.930 . S
H949 C959 0.930 . S
C950 H944 0.930 . S
C950 C951 1.355 . S
C950 C952 1.415 . S
C951 C950 1.355 . S
C951 C953 1.419 . S
C952 C950 1.415 . S
C952 C957 1.425 . S
C952 C959 1.409 . S
C953 H945 0.930 . S
C953 C951 1.419 . S
C953 C954 1.362 . S
C954 H946 0.930 . S
C954 C953 1.362 . S
C954 C957 1.409 . S
C955 H947 0.930 . S
C955 C956 1.355 . S
C955 C957 1.415 . S
C956 C955 1.355 . S
C956 C958 1.419 . S
C957 C952 1.425 . S
C957 C954 1.409 . S
C957 C955 1.415 . S
C958 H948 0.930 . S
C958 C956 1.419 . S
C958 C959 1.362 . S
C959 H949 0.930 . S
C959 C952 1.409 . S
C959 C958 1.362 . S
H960 C966 0.930 . S
H961 C969 0.930 . S
H962 C970 0.930 . S
H963 C971 0.930 . S
H964 C974 0.930 . S
H965 C975 0.930 . S
C966 H960 0.930 . S
C966 C967 1.355 . S
C966 C968 1.415 . S
C967 C966 1.355 . S
C967 C969 1.419 . S
C968 C966 1.415 . S
C968 C973 1.425 . S
C968 C975 1.409 . S
C969 H961 0.930 . S
C969 C967 1.419 . S
C969 C970 1.362 . S
C970 H962 0.930 . S
C970 C969 1.362 . S
C970 C973 1.409 . S
C971 H963 0.930 . S
C971 C972 1.355 . S
C971 C973 1.415 . S
C972 C971 1.355 . S
C972 C974 1.419 . S
C973 C968 1.425 . S
C973 C970 1.409 . S
C973 C971 1.415 . S
C974 H964 0.930 . S
C974 C972 1.419 . S
C974 C975 1.362 . S
C975 H965 0.930 . S
C975 C968 1.409 . S
C975 C974 1.362 . S
H976 C982 0.930 . S
H977 C985 0.930 . S
H978 C986 0.930 . S
H979 C987 0.930 . S
H980 C990 0.930 . S
H981 C991 0.930 . S
C982 H976 0.930 . S
C982 C983 1.355 . S
C982 C984 1.415 . S
C983 C982 1.355 . S
C983 C985 1.419 . S
C984 C982 1.415 . S
C984 C989 1.425 . S
C984 C991 1.409 . S
C985 H977 0.930 . S
C985 C983 1.419 . S
C985 C986 1.362 . S
C986 H978 0.930 . S
C986 C985 1.362 . S
C986 C989 1.409 . S
C987 H979 0.930 . S
C987 C988 1.355 . S
C987 C989 1.415 . S
C988 C987 1.355 . S
C988 C990 1.419 . S
C989 C984 1.425 . S
C989 C986 1.409 . S
C989 C987 1.415 . S
C990 H980 0.930 . S
C990 C988 1.419 . S
C990 C991 1.362 . S
C991 H981 0.930 . S
C991 C984 1.409 . S
C991 C990 1.362 . S
H992 C998 0.930 . S
H993 C1001 0.930 . S
H994 C1002 0.930 . S
H995 C1003 0.930 . S
H996 C1006 0.930 . S
H997 C1007 0.930 . S
C998 H992 0.930 . S
C998 C999 1.355 . S
C998 C1000 1.415 . S
C999 C998 1.355 . S
C999 C1001 1.419 . S
C1000 C998 1.415 . S
C1000 C1005 1.425 . S
C1000 C1007 1.409 . S
C1001 H993 0.930 . S
C1001 C999 1.419 . S
C1001 C1002 1.362 . S
C1002 H994 0.930 . S
C1002 C1001 1.362 . S
C1002 C1005 1.409 . S
C1003 H995 0.930 . S
C1003 C1004 1.355 . S
C1003 C1005 1.415 . S
C1004 C1003 1.355 . S
C1004 C1006 1.419 . S
C1005 C1000 1.425 . S
C1005 C1002 1.409 . S
C1005 C1003 1.415 . S
C1006 H996 0.930 . S
C1006 C1004 1.419 . S
C1006 C1007 1.362 . S
C1007 H997 0.930 . S
C1007 C1000 1.409 . S
C1007 C1006 1.362 . S
H1008 C1014 0.930 . S
H1009 C1017 0.930 . S
H1010 C1018 0.930 . S
H1011 C1019 0.930 . S
H1012 C1022 0.930 . S
H1013 C1023 0.930 . S
C1014 H1008 0.930 . S
C1014 C1015 1.355 . S
C1014 C1016 1.415 . S
C1015 C1014 1.355 . S
C1015 C1017 1.419 . S
C1016 C1014 1.415 . S
C1016 C1021 1.425 . S
C1016 C1023 1.409 . S
C1017 H1009 0.930 . S
C1017 C1015 1.419 . S
C1017 C1018 1.362 . S
C1018 H1010 0.930 . S
C1018 C1017 1.362 . S
C1018 C1021 1.409 . S
C1019 H1011 0.930 . S
C1019 C1020 1.355 . S
C1019 C1021 1.415 . S
C1020 C1019 1.355 . S
C1020 C1022 1.419 . S
C1021 C1016 1.425 . S
C1021 C1018 1.409 . S
C1021 C1019 1.415 . S
C1022 H1012 0.930 . S
C1022 C1020 1.419 . S
C1022 C1023 1.362 . S
C1023 H1013 0.930 . S
C1023 C1016 1.409 . S
C1023 C1022 1.362 . S
H1024 C1030 0.930 . S
H1025 C1033 0.930 . S
H1026 C1034 0.930 . S
H1027 C1035 0.930 . S
H1028 C1038 0.930 . S
H1029 C1039 0.930 . S
C1030 H1024 0.930 . S
C1030 C1031 1.355 . S
C1030 C1032 1.415 . S
C1031 C1030 1.355 . S
C1031 C1033 1.419 . S
C1032 C1030 1.415 . S
C1032 C1037 1.425 . S
C1032 C1039 1.409 . S
C1033 H1025 0.930 . S
C1033 C1031 1.419 . S
C1033 C1034 1.362 . S
C1034 H1026 0.930 . S
C1034 C1033 1.362 . S
C1034 C1037 1.409 . S
C1035 H1027 0.930 . S
C1035 C1036 1.355 . S
C1035 C1037 1.415 . S
C1036 C1035 1.355 . S
C1036 C1038 1.419 . S
C1037 C1032 1.425 . S
C1037 C1034 1.409 . S
C1037 C1035 1.415 . S
C1038 H1028 0.930 . S
C1038 C1036 1.419 . S
C1038 C1039 1.362 . S
C1039 H1029 0.930 . S
C1039 C1032 1.409 . S
C1039 C1038 1.362 . S
H1040 C1046 0.930 . S
H1041 C1049 0.930 . S
H1042 C1050 0.930 . S
H1043 C1051 0.930 . S
H1044 C1054 0.930 . S
H1045 C1055 0.930 . S
C1046 H1040 0.930 . S
C1046 C1047 1.355 . S
C1046 C1048 1.415 . S
C1047 C1046 1.355 . S
C1047 C1049 1.419 . S
C1048 C1046 1.415 . S
C1048 C1053 1.425 . S
C1048 C1055 1.409 . S
C1049 H1041 0.930 . S
C1049 C1047 1.419 . S
C1049 C1050 1.362 . S
C1050 H1042 0.930 . S
C1050 C1049 1.362 . S
C1050 C1053 1.409 . S
C1051 H1043 0.930 . S
C1051 C1052 1.355 . S
C1051 C1053 1.415 . S
C1052 C1051 1.355 . S
C1052 C1054 1.419 . S
C1053 C1048 1.425 . S
C1053 C1050 1.409 . S
C1053 C1051 1.415 . S
C1054 H1044 0.930 . S
C1054 C1052 1.419 . S
C1054 C1055 1.362 . S
C1055 H1045 0.930 . S
C1055 C1048 1.409 . S
C1055 C1054 1.362 . S
H1056 C1062 0.930 . S
H1057 C1065 0.930 . S
H1058 C1066 0.930 . S
H1059 C1067 0.930 . S
H1060 C1070 0.930 . S
H1061 C1071 0.930 . S
C1062 H1056 0.930 . S
C1062 C1063 1.355 . S
C1062 C1064 1.415 . S
C1063 C1062 1.355 . S
C1063 C1065 1.419 . S
C1064 C1062 1.415 . S
C1064 C1069 1.425 . S
C1064 C1071 1.409 . S
C1065 H1057 0.930 . S
C1065 C1063 1.419 . S
C1065 C1066 1.362 . S
C1066 H1058 0.930 . S
C1066 C1065 1.362 . S
C1066 C1069 1.409 . S
C1067 H1059 0.930 . S
C1067 C1068 1.355 . S
C1067 C1069 1.415 . S
C1068 C1067 1.355 . S
C1068 C1070 1.419 . S
C1069 C1064 1.425 . S
C1069 C1066 1.409 . S
C1069 C1067 1.415 . S
C1070 H1060 0.930 . S
C1070 C1068 1.419 . S
C1070 C1071 1.362 . S
C1071 H1061 0.930 . S
C1071 C1064 1.409 . S
C1071 C1070 1.362 . S
H1072 C1078 0.930 . S
H1073 C1081 0.930 . S
H1074 C1082 0.930 . S
H1075 C1083 0.930 . S
H1076 C1086 0.930 . S
H1077 C1087 0.930 . S
C1078 H1072 0.930 . S
C1078 C1079 1.355 . S
C1078 C1080 1.415 . S
C1079 C1078 1.355 . S
C1079 C1081 1.419 . S
C1080 C1078 1.415 . S
C1080 C1085 1.425 . S
C1080 C1087 1.409 . S
C1081 H1073 0.930 . S
C1081 C1079 1.419 . S
C1081 C1082 1.362 . S
C1082 H1074 0.930 . S
C1082 C1081 1.362 . S
C1082 C1085 1.409 . S
C1083 H1075 0.930 . S
C1083 C1084 1.355 . S
C1083 C1085 1.415 . S
C1084 C1083 1.355 . S
C1084 C1086 1.419 . S
C1085 C1080 1.425 . S
C1085 C1082 1.409 . S
C1085 C1083 1.415 . S
C1086 H1076 0.930 . S
C1086 C1084 1.419 . S
C1086 C1087 1.362 . S
C1087 H1077 0.930 . S
C1087 C1080 1.409 . S
C1087 C1086 1.362 . S
H1088 C1094 0.930 . S
H1089 C1097 0.930 . S
H1090 C1098 0.930 . S
H1091 C1099 0.930 . S
H1092 C1102 0.930 . S
H1093 C1103 0.930 . S
C1094 H1088 0.930 . S
C1094 C1095 1.355 . S
C1094 C1096 1.415 . S
C1095 C1094 1.355 . S
C1095 C1097 1.419 . S
C1096 C1094 1.415 . S
C1096 C1101 1.425 . S
C1096 C1103 1.409 . S
C1097 H1089 0.930 . S
C1097 C1095 1.419 . S
C1097 C1098 1.362 . S
C1098 H1090 0.930 . S
C1098 C1097 1.362 . S
C1098 C1101 1.409 . S
C1099 H1091 0.930 . S
C1099 C1100 1.355 . S
C1099 C1101 1.415 . S
C1100 C1099 1.355 . S
C1100 C1102 1.419 . S
C1101 C1096 1.425 . S
C1101 C1098 1.409 . S
C1101 C1099 1.415 . S
C1102 H1092 0.930 . S
C1102 C1100 1.419 . S
C1102 C1103 1.362 . S
C1103 H1093 0.930 . S
C1103 C1096 1.409 . S
C1103 C1102 1.362 . S
H1104 C1110 0.930 . S
H1105 C1113 0.930 . S
H1106 C1114 0.930 . S
H1107 C1115 0.930 . S
H1108 C1118 0.930 . S
H1109 C1119 0.930 . S
C1110 H1104 0.930 . S
C1110 C1111 1.355 . S
C1110 C1112 1.415 . S
C1111 C1110 1.355 . S
C1111 C1113 1.419 . S
C1112 C1110 1.415 . S
C1112 C1117 1.425 . S
C1112 C1119 1.409 . S
C1113 H1105 0.930 . S
C1113 C1111 1.419 . S
C1113 C1114 1.362 . S
C1114 H1106 0.930 . S
C1114 C1113 1.362 . S
C1114 C1117 1.409 . S
C1115 H1107 0.930 . S
C1115 C1116 1.355 . S
C1115 C1117 1.415 . S
C1116 C1115 1.355 . S
C1116 C1118 1.419 . S
C1117 C1112 1.425 . S
C1117 C1114 1.409 . S
C1117 C1115 1.415 . S
C1118 H1108 0.930 . S
C1118 C1116 1.419 . S
C1118 C1119 1.362 . S
C1119 H1109 0.930 . S
C1119 C1112 1.409 . S
C1119 C1118 1.362 . S
H1120 C1126 0.930 . S
H1121 C1129 0.930 . S
H1122 C1130 0.930 . S
H1123 C1131 0.930 . S
H1124 C1134 0.930 . S
H1125 C1135 0.930 . S
C1126 H1120 0.930 . S
C1126 C1127 1.355 . S
C1126 C1128 1.415 . S
C1127 C1126 1.355 . S
C1127 C1129 1.419 . S
C1128 C1126 1.415 . S
C1128 C1133 1.425 . S
C1128 C1135 1.409 . S
C1129 H1121 0.930 . S
C1129 C1127 1.419 . S
C1129 C1130 1.362 . S
C1130 H1122 0.930 . S
C1130 C1129 1.362 . S
C1130 C1133 1.409 . S
C1131 H1123 0.930 . S
C1131 C1132 1.355 . S
C1131 C1133 1.415 . S
C1132 C1131 1.355 . S
C1132 C1134 1.419 . S
C1133 C1128 1.425 . S
C1133 C1130 1.409 . S
C1133 C1131 1.415 . S
C1134 H1124 0.930 . S
C1134 C1132 1.419 . S
C1134 C1135 1.362 . S
C1135 H1125 0.930 . S
C1135 C1128 1.409 . S
C1135 C1134 1.362 . S
H1136 C1142 0.930 . S
H1137 C1145 0.930 . S
H1138 C1146 0.930 . S
H1139 C1147 0.930 . S
H1140 C1150 0.930 . S
H1141 C1151 0.930 . S
C1142 H1136 0.930 . S
C1142 C1143 1.355 . S
C1142 C1144 1.415 . S
C1143 C1142 1.355 . S
C1143 C1145 1.419 . S
C1144 C1142 1.415 . S
C1144 C1149 1.425 . S
C1144 C1151 1.409 . S
C1145 H1137 0.930 . S
C1145 C1143 1.419 . S
C1145 C1146 1.362 . S
C1146 H1138 0.930 . S
C1146 C1145 1.362 . S
C1146 C1149 1.409 . S
C1147 H1139 0.930 . S
C1147 C1148 1.355 . S
C1147 C1149 1.415 . S
C1148 C1147 1.355 . S
C1148 C1150 1.419 . S
C1149 C1144 1.425 . S
C1149 C1146 1.409 . S
C1149 C1147 1.415 . S
C1150 H1140 0.930 . S
C1150 C1148 1.419 . S
C1150 C1151 1.362 . S
C1151 H1141 0.930 . S
C1151 C1144 1.409 . S
C1151 C1150 1.362 . S
H1152 C1158 0.930 . S
H1153 C1161 0.930 . S
H1154 C1162 0.930 . S
H1155 C1163 0.930 . S
H1156 C1166 0.930 . S
H1157 C1167 0.930 . S
C1158 H1152 0.930 . S
C1158 C1159 1.355 . S
C1158 C1160 1.415 . S
C1159 C1158 1.355 . S
C1159 C1161 1.419 . S
C1160 C1158 1.415 . S
C1160 C1165 1.425 . S
C1160 C1167 1.409 . S
C1161 H1153 0.930 . S
C1161 C1159 1.419 . S
C1161 C1162 1.362 . S
C1162 H1154 0.930 . S
C1162 C1161 1.362 . S
C1162 C1165 1.409 . S
C1163 H1155 0.930 . S
C1163 C1164 1.355 . S
C1163 C1165 1.415 . S
C1164 C1163 1.355 . S
C1164 C1166 1.419 . S
C1165 C1160 1.425 . S
C1165 C1162 1.409 . S
C1165 C1163 1.415 . S
C1166 H1156 0.930 . S
C1166 C1164 1.419 . S
C1166 C1167 1.362 . S
C1167 H1157 0.930 . S
C1167 C1160 1.409 . S
C1167 C1166 1.362 . S
H1168 C1174 0.930 . S
H1169 C1177 0.930 . S
H1170 C1178 0.930 . S
H1171 C1179 0.930 . S
H1172 C1182 0.930 . S
H1173 C1183 0.930 . S
C1174 H1168 0.930 . S
C1174 C1175 1.355 . S
C1174 C1176 1.415 . S
C1175 C1174 1.355 . S
C1175 C1177 1.419 . S
C1176 C1174 1.415 . S
C1176 C1181 1.425 . S
C1176 C1183 1.409 . S
C1177 H1169 0.930 . S
C1177 C1175 1.419 . S
C1177 C1178 1.362 . S
C1178 H1170 0.930 . S
C1178 C1177 1.362 . S
C1178 C1181 1.409 . S
C1179 H1171 0.930 . S
C1179 C1180 1.355 . S
C1179 C1181 1.415 . S
C1180 C1179 1.355 . S
C1180 C1182 1.419 . S
C1181 C1176 1.425 . S
C1181 C1178 1.409 . S
C1181 C1179 1.415 . S
C1182 H1172 0.930 . S
C1182 C1180 1.419 . S
C1182 C1183 1.362 . S
C1183 H1173 0.930 . S
C1183 C1176 1.409 . S
C1183 C1182 1.362 . S
H1184 C1190 0.930 . S
H1185 C1193 0.930 . S
H1186 C1194 0.930 . S
H1187 C1195 0.930 . S
H1188 C1198 0.930 . S
H1189 C1199 0.930 . S
C1190 H1184 0.930 . S
C1190 C1191 1.355 . S
C1190 C1192 1.415 . S
C1191 C1190 1.355 . S
C1191 C1193 1.419 . S
C1192 C1190 1.415 . S
C1192 C1197 1.425 . S
C1192 C1199 1.409 . S
C1193 H1185 0.930 . S
C1193 C1191 1.419 . S
C1193 C1194 1.362 . S
C1194 H1186 0.930 . S
C1194 C1193 1.362 . S
C1194 C1197 1.409 . S
C1195 H1187 0.930 . S
C1195 C1196 1.355 . S
C1195 C1197 1.415 . S
C1196 C1195 1.355 . S
C1196 C1198 1.419 . S
C1197 C1192 1.425 . S
C1197 C1194 1.409 . S
C1197 C1195 1.415 . S
C1198 H1188 0.930 . S
C1198 C1196 1.419 . S
C1198 C1199 1.362 . S
C1199 H1189 0.930 . S
C1199 C1192 1.409 . S
C1199 C1198 1.362 . S
H1200 C1206 0.930 . S
H1201 C1209 0.930 . S
H1202 C1210 0.930 . S
H1203 C1211 0.930 . S
H1204 C1214 0.930 . S
H1205 C1215 0.930 . S
C1206 H1200 0.930 . S
C1206 C1207 1.355 . S
C1206 C1208 1.415 . S
C1207 C1206 1.355 . S
C1207 C1209 1.419 . S
C1208 C1206 1.415 . S
C1208 C1213 1.425 . S
C1208 C1215 1.409 . S
C1209 H1201 0.930 . S
C1209 C1207 1.419 . S
C1209 C1210 1.362 . S
C1210 H1202 0.930 . S
C1210 C1209 1.362 . S
C1210 C1213 1.409 . S
C1211 H1203 0.930 . S
C1211 C1212 1.355 . S
C1211 C1213 1.415 . S
C1212 C1211 1.355 . S
C1212 C1214 1.419 . S
C1213 C1208 1.425 . S
C1213 C1210 1.409 . S
C1213 C1211 1.415 . S
C1214 H1204 0.930 . S
C1214 C1212 1.419 . S
C1214 C1215 1.362 . S
C1215 H1205 0.930 . S
C1215 C1208 1.409 . S
C1215 C1214 1.362 . S
H1216 C1222 0.930 . S
H1217 C1225 0.930 . S
H1218 C1226 0.930 . S
H1219 C1227 0.930 . S
H1220 C1230 0.930 . S
H1221 C1231 0.930 . S
C1222 H1216 0.930 . S
C1222 C1223 1.355 . S
C1222 C1224 1.415 . S
C1223 C1222 1.355 . S
C1223 C1225 1.419 . S
C1224 C1222 1.415 . S
C1224 C1229 1.425 . S
C1224 C1231 1.409 . S
C1225 H1217 0.930 . S
C1225 C1223 1.419 . S
C1225 C1226 1.362 . S
C1226 H1218 0.930 . S
C1226 C1225 1.362 . S
C1226 C1229 1.409 . S
C1227 H1219 0.930 . S
C1227 C1228 1.355 . S
C1227 C1229 1.415 . S
C1228 C1227 1.355 . S
C1228 C1230 1.419 . S
C1229 C1224 1.425 . S
C1229 C1226 1.409 . S
C1229 C1227 1.415 . S
C1230 H1220 0.930 . S
C1230 C1228 1.419 . S
C1230 C1231 1.362 . S
C1231 H1221 0.930 . S
C1231 C1224 1.409 . S
C1231 C1230 1.362 . S
H1232 C1238 0.930 . S
H1233 C1241 0.930 . S
H1234 C1242 0.930 . S
H1235 C1243 0.930 . S
H1236 C1246 0.930 . S
H1237 C1247 0.930 . S
C1238 H1232 0.930 . S
C1238 C1239 1.355 . S
C1238 C1240 1.415 . S
C1239 C1238 1.355 . S
C1239 C1241 1.419 . S
C1240 C1238 1.415 . S
C1240 C1245 1.425 . S
C1240 C1247 1.409 . S
C1241 H1233 0.930 . S
C1241 C1239 1.419 . S
C1241 C1242 1.362 . S
C1242 H1234 0.930 . S
C1242 C1241 1.362 . S
C1242 C1245 1.409 . S
C1243 H1235 0.930 . S
C1243 C1244 1.355 . S
C1243 C1245 1.415 . S
C1244 C1243 1.355 . S
C1244 C1246 1.419 . S
C1245 C1240 1.425 . S
C1245 C1242 1.409 . S
C1245 C1243 1.415 . S
C1246 H1236 0.930 . S
C1246 C1244 1.419 . S
C1246 C1247 1.362 . S
C1247 H1237 0.930 . S
C1247 C1240 1.409 . S
C1247 C1246 1.362 . S
H1248 C1254 0.930 . S
H1249 C1257 0.930 . S
H1250 C1258 0.930 . S
H1251 C1259 0.930 . S
H1252 C1262 0.930 . S
H1253 C1263 0.930 . S
C1254 H1248 0.930 . S
C1254 C1255 1.355 . S
C1254 C1256 1.415 . S
C1255 C1254 1.355 . S
C1255 C1257 1.419 . S
C1256 C1254 1.415 . S
C1256 C1261 1.425 . S
C1256 C1263 1.409 . S
C1257 H1249 0.930 . S
C1257 C1255 1.419 . S
C1257 C1258 1.362 . S
C1258 H1250 0.930 . S
C1258 C1257 1.362 . S
C1258 C1261 1.409 . S
C1259 H1251 0.930 . S
C1259 C1260 1.355 . S
C1259 C1261 1.415 . S
C1260 C1259 1.355 . S
C1260 C1262 1.419 . S
C1261 C1256 1.425 . S
C1261 C1258 1.409 . S
C1261 C1259 1.415 . S
C1262 H1252 0.930 . S
C1262 C1260 1.419 . S
C1262 C1263 1.362 . S
C1263 H1253 0.930 . S
C1263 C1256 1.409 . S
C1263 C1262 1.362 . S
H1264 C1270 0.930 . S
H1265 C1273 0.930 . S
H1266 C1274 0.930 . S
H1267 C1275 0.930 . S
H1268 C1278 0.930 . S
H1269 C1279 0.930 . S
C1270 H1264 0.930 . S
C1270 C1271 1.355 . S
C1270 C1272 1.415 . S
C1271 C1270 1.355 . S
C1271 C1273 1.419 . S
C1272 C1270 1.415 . S
C1272 C1277 1.425 . S
C1272 C1279 1.409 . S
C1273 H1265 0.930 . S
C1273 C1271 1.419 . S
C1273 C1274 1.362 . S
C1274 H1266 0.930 . S
C1274 C1273 1.362 . S
C1274 C1277 1.409 . S
C1275 H1267 0.930 . S
C1275 C1276 1.355 . S
C1275 C1277 1.415 . S
C1276 C1275 1.355 . S
C1276 C1278 1.419 . S
C1277 C1272 1.425 . S
C1277 C1274 1.409 . S
C1277 C1275 1.415 . S
C1278 H1268 0.930 . S
C1278 C1276 1.419 . S
C1278 C1279 1.362 . S
C1279 H1269 0.930 . S
C1279 C1272 1.409 . S
C1279 C1278 1.362 . S
H1280 C1286 0.930 . S
H1281 C1289 0.930 . S
H1282 C1290 0.930 . S
H1283 C1291 0.930 . S
H1284 C1294 0.930 . S
H1285 C1295 0.930 . S
C1286 H1280 0.930 . S
C1286 C1287 1.355 . S
C1286 C1288 1.415 . S
C1287 C1286 1.355 . S
C1287 C1289 1.419 . S
C1288 C1286 1.415 . S
C1288 C1293 1.425 . S
C1288 C1295 1.409 . S
C1289 H1281 0.930 . S
C1289 C1287 1.419 . S
C1289 C1290 1.362 . S
C1290 H1282 0.930 . S
C1290 C1289 1.362 . S
C1290 C1293 1.409 . S
C1291 H1283 0.930 . S
C1291 C1292 1.355 . S
C1291 C1293 1.415 . S
C1292 C1291 1.355 . S
C1292 C1294 1.419 . S
C1293 C1288 1.425 . S
C1293 C1290 1.409 . S
C1293 C1291 1.415 . S
C1294 H1284 0.930 . S
C1294 C1292 1.419 . S
C1294 C1295 1.362 . S
C1295 H1285 0.930 . S
C1295 C1288 1.409 . S
C1295 C1294 1.362 . S
H1296 C1302 0.930 . S
H1297 C1305 0.930 . S
H1298 C1306 0.930 . S
H1299 C1307 0.930 . S
H1300 C1310 0.930 . S
H1301 C1311 0.930 . S
C1302 H1296 0.930 . S
C1302 C1303 1.355 . S
C1302 C1304 1.415 . S
C1303 C1302 1.355 . S
C1303 C1305 1.419 . S
C1304 C1302 1.415 . S
C1304 C1309 1.425 . S
C1304 C1311 1.409 . S
C1305 H1297 0.930 . S
C1305 C1303 1.419 . S
C1305 C1306 1.362 . S
C1306 H1298 0.930 . S
C1306 C1305 1.362 . S
C1306 C1309 1.409 . S
C1307 H1299 0.930 . S
C1307 C1308 1.355 . S
C1307 C1309 1.415 . S
C1308 C1307 1.355 . S
C1308 C1310 1.419 . S
C1309 C1304 1.425 . S
C1309 C1306 1.409 . S
C1309 C1307 1.415 . S
C1310 H1300 0.930 . S
C1310 C1308 1.419 . S
C1310 C1311 1.362 . S
C1311 H1301 0.930 . S
C1311 C1304 1.409 . S
C1311 C1310 1.362 . S
H1312 C1318 0.930 . S
H1313 C1321 0.930 . S
H1314 C1322 0.930 . S
H1315 C1323 0.930 . S
H1316 C1326 0.930 . S
H1317 C1327 0.930 . S
C1318 H1312 0.930 . S
C1318 C1319 1.355 . S
C1318 C1320 1.415 . S
C1319 C1318 1.355 . S
C1319 C1321 1.419 . S
C1320 C1318 1.415 . S
C1320 C1325 1.425 . S
C1320 C1327 1.409 . S
C1321 H1313 0.930 . S
C1321 C1319 1.419 . S
C1321 C1322 1.362 . S
C1322 H1314 0.930 . S
C1322 C1321 1.362 . S
C1322 C1325 1.409 . S
C1323 H1315 0.930 . S
C1323 C1324 1.355 . S
C1323 C1325 1.415 . S
C1324 C1323 1.355 . S
C1324 C1326 1.419 . S
C1325 C1320 1.425 . S
C1325 C1322 1.409 . S
C1325 C1323 1.415 . S
C1326 H1316 0.930 . S
C1326 C1324 1.419 . S
C1326 C1327 1.362 . S
C1327 H1317 0.930 . S
C1327 C1320 1.409 . S
C1327 C1326 1.362 . S
H1328 C1334 0.930 . S
H1329 C1337 0.930 . S
H1330 C1338 0.930 . S
H1331 C1339 0.930 . S
H1332 C1342 0.930 . S
H1333 C1343 0.930 . S
C1334 H1328 0.930 . S
C1334 C1335 1.355 . S
C1334 C1336 1.415 . S
C1335 C1334 1.355 . S
C1335 C1337 1.419 . S
C1336 C1334 1.415 . S
C1336 C1341 1.425 . S
C1336 C1343 1.409 . S
C1337 H1329 0.930 . S
C1337 C1335 1.419 . S
C1337 C1338 1.362 . S
C1338 H1330 0.930 . S
C1338 C1337 1.362 . S
C1338 C1341 1.409 . S
C1339 H1331 0.930 . S
C1339 C1340 1.355 . S
C1339 C1341 1.415 . S
C1340 C1339 1.355 . S
C1340 C1342 1.419 . S
C1341 C1336 1.425 . S
C1341 C1338 1.409 . S
C1341 C1339 1.415 . S
C1342 H1332 0.930 . S
C1342 C1340 1.419 . S
C1342 C1343 1.362 . S
C1343 H1333 0.930 . S
C1343 C1336 1.409 . S
C1343 C1342 1.362 . S
H1344 C1350 0.930 . S
H1345 C1353 0.930 . S
H1346 C1354 0.930 . S
H1347 C1355 0.930 . S
H1348 C1358 0.930 . S
H1349 C1359 0.930 . S
C1350 H1344 0.930 . S
C1350 C1351 1.355 . S
C1350 C1352 1.415 . S
C1351 C1350 1.355 . S
C1351 C1353 1.419 . S
C1352 C1350 1.415 . S
C1352 C1357 1.425 . S
C1352 C1359 1.409 . S
C1353 H1345 0.930 . S
C1353 C1351 1.419 . S
C1353 C1354 1.362 . S
C1354 H1346 0.930 . S
C1354 C1353 1.362 . S
C1354 C1357 1.409 . S
C1355 H1347 0.930 . S
C1355 C1356 1.355 . S
C1355 C1357 1.415 . S
C1356 C1355 1.355 . S
C1356 C1358 1.419 . S
C1357 C1352 1.425 . S
C1357 C1354 1.409 . S
C1357 C1355 1.415 . S
C1358 H1348 0.930 . S
C1358 C1356 1.419 . S
C1358 C1359 1.362 . S
C1359 H1349 0.930 . S
C1359 C1352 1.409 . S
C1359 C1358 1.362 . S
H1360 C1366 0.930 . S
H1361 C1369 0.930 . S
H1362 C1370 0.930 . S
H1363 C1371 0.930 . S
H1364 C1374 0.930 . S
H1365 C1375 0.930 . S
C1366 H1360 0.930 . S
C1366 C1367 1.355 . S
C1366 C1368 1.415 . S
C1367 C1366 1.355 . S
C1367 C1369 1.419 . S
C1368 C1366 1.415 . S
C1368 C1373 1.425 . S
C1368 C1375 1.409 . S
C1369 H1361 0.930 . S
C1369 C1367 1.419 . S
C1369 C1370 1.362 . S
C1370 H1362 0.930 . S
C1370 C1369 1.362 . S
C1370 C1373 1.409 . S
C1371 H1363 0.930 . S
C1371 C1372 1.355 . S
C1371 C1373 1.415 . S
C1372 C1371 1.355 . S
C1372 C1374 1.419 . S
C1373 C1368 1.425 . S
C1373 C1370 1.409 . S
C1373 C1371 1.415 . S
C1374 H1364 0.930 . S
C1374 C1372 1.419 . S
C1374 C1375 1.362 . S
C1375 H1365 0.930 . S
C1375 C1368 1.409 . S
C1375 C1374 1.362 . S
H1376 C1382 0.930 . S
H1377 C1385 0.930 . S
H1378 C1386 0.930 . S
H1379 C1387 0.930 . S
H1380 C1390 0.930 . S
H1381 C1391 0.930 . S
C1382 H1376 0.930 . S
C1382 C1383 1.355 . S
C1382 C1384 1.415 . S
C1383 C1382 1.355 . S
C1383 C1385 1.419 . S
C1384 C1382 1.415 . S
C1384 C1389 1.425 . S
C1384 C1391 1.409 . S
C1385 H1377 0.930 . S
C1385 C1383 1.419 . S
C1385 C1386 1.362 . S
C1386 H1378 0.930 . S
C1386 C1385 1.362 . S
C1386 C1389 1.409 . S
C1387 H1379 0.930 . S
C1387 C1388 1.355 . S
C1387 C1389 1.415 . S
C1388 C1387 1.355 . S
C1388 C1390 1.419 . S
C1389 C1384 1.425 . S
C1389 C1386 1.409 . S
C1389 C1387 1.415 . S
C1390 H1380 0.930 . S
C1390 C1388 1.419 . S
C1390 C1391 1.362 . S
C1391 H1381 0.930 . S
C1391 C1384 1.409 . S
C1391 C1390 1.362 . S
H1392 C1398 0.930 . S
H1393 C1401 0.930 . S
H1394 C1402 0.930 . S
H1395 C1403 0.930 . S
H1396 C1406 0.930 . S
H1397 C1407 0.930 . S
C1398 H1392 0.930 . S
C1398 C1399 1.355 . S
C1398 C1400 1.415 . S
C1399 C1398 1.355 . S
C1399 C1401 1.419 . S
C1400 C1398 1.415 . S
C1400 C1405 1.425 . S
C1400 C1407 1.409 . S
C1401 H1393 0.930 . S
C1401 C1399 1.419 . S
C1401 C1402 1.362 . S
C1402 H1394 0.930 . S
C1402 C1401 1.362 . S
C1402 C1405 1.409 . S
C1403 H1395 0.930 . S
C1403 C1404 1.355 . S
C1403 C1405 1.415 . S
C1404 C1403 1.355 . S
C1404 C1406 1.419 . S
C1405 C1400 1.425 . S
C1405 C1402 1.409 . S
C1405 C1403 1.415 . S
C1406 H1396 0.930 . S
C1406 C1404 1.419 . S
C1406 C1407 1.362 . S
C1407 H1397 0.930 . S
C1407 C1400 1.409 . S
C1407 C1406 1.362 . S
H1408 C1414 0.930 . S
H1409 C1417 0.930 . S
H1410 C1418 0.930 . S
H1411 C1419 0.930 . S
H1412 C1422 0.930 . S
H1413 C1423 0.930 . S
C1414 H1408 0.930 . S
C1414 C1415 1.355 . S
C1414 C1416 1.415 . S
C1415 C1414 1.355 . S
C1415 C1417 1.419 . S
C1416 C1414 1.415 . S
C1416 C1421 1.425 . S
C1416 C1423 1.409 . S
C1417 H1409 0.930 . S
C1417 C1415 1.419 . S
C1417 C1418 1.362 . S
C1418 H1410 0.930 . S
C1418 C1417 1.362 . S
C1418 C1421 1.409 . S
C1419 H1411 0.930 . S
C1419 C1420 1.355 . S
C1419 C1421 1.415 1_545 S
C1420 C1419 1.355 . S
C1420 C1422 1.419 . S
C1421 C1416 1.425 . S
C1421 C1418 1.409 . S
C1421 C1419 1.415 1_565 S
C1422 H1412 0.930 . S
C1422 C1420 1.419 . S
C1422 C1423 1.362 1_545 S
C1423 H1413 0.930 . S
C1423 C1416 1.409 . S
C1423 C1422 1.362 1_565 S
H1424 C1430 0.930 . S
H1425 C1433 0.930 . S
H1426 C1434 0.930 . S
H1427 C1435 0.930 . S
H1428 C1438 0.930 . S
H1429 C1439 0.929 . S
C1430 H1424 0.930 . S
C1430 C1431 1.355 . S
C1430 C1432 1.415 . S
C1431 C1430 1.355 . S
C1431 C1433 1.419 . S
C1432 C1430 1.415 . S
C1432 C1437 1.425 1_655 S
C1432 C1439 1.409 1_655 S
C1433 H1425 0.930 . S
C1433 C1431 1.419 . S
C1433 C1434 1.362 . S
C1434 H1426 0.930 . S
C1434 C1433 1.362 . S
C1434 C1437 1.409 1_655 S
C1435 H1427 0.930 . S
C1435 C1436 1.355 . S
C1435 C1437 1.415 . S
C1436 C1435 1.355 . S
C1436 C1438 1.419 . S
C1437 C1432 1.425 1_455 S
C1437 C1434 1.409 1_455 S
C1437 C1435 1.415 . S
C1438 H1428 0.930 . S
C1438 C1436 1.419 . S
C1438 C1439 1.362 . S
C1439 H1429 0.929 . S
C1439 C1432 1.409 1_455 S
C1439 C1438 1.362 . S
H1440 C1446 0.930 . S
H1441 C1449 0.930 . S
H1442 C1450 0.930 . S
H1443 C1451 0.930 . S
H1444 C1454 0.930 . S
H1445 C1455 0.930 . S
C1446 H1440 0.930 . S
C1446 C1447 1.355 . S
C1446 C1448 1.415 1_545 S
C1447 C1446 1.355 . S
C1447 C1449 1.419 . S
C1448 C1446 1.415 1_565 S
C1448 C1453 1.425 . S
C1448 C1455 1.409 . S
C1449 H1441 0.930 . S
C1449 C1447 1.419 . S
C1449 C1450 1.362 1_545 S
C1450 H1442 0.930 . S
C1450 C1449 1.362 1_565 S
C1450 C1453 1.409 . S
C1451 H1443 0.930 . S
C1451 C1452 1.355 . S
C1451 C1453 1.415 . S
C1452 C1451 1.355 . S
C1452 C1454 1.419 . S
C1453 C1448 1.425 . S
C1453 C1450 1.409 . S
C1453 C1451 1.415 . S
C1454 H1444 0.930 . S
C1454 C1452 1.419 . S
C1454 C1455 1.362 . S
C1455 H1445 0.930 . S
C1455 C1448 1.409 . S
C1455 C1454 1.362 . S
H1456 C1462 0.930 . S
H1457 C1465 0.930 . S
H1458 C1466 0.930 . S
H1459 C1467 0.930 . S
H1460 C1470 0.930 . S
H1461 C1471 0.930 . S
C1462 H1456 0.930 . S
C1462 C1463 1.355 . S
C1462 C1464 1.415 1_655 S
C1463 C1462 1.355 . S
C1463 C1465 1.419 . S
C1464 C1462 1.415 1_455 S
C1464 C1469 1.425 . S
C1464 C1471 1.409 . S
C1465 H1457 0.930 . S
C1465 C1463 1.419 . S
C1465 C1466 1.362 1_655 S
C1466 H1458 0.930 . S
C1466 C1465 1.362 1_455 S
C1466 C1469 1.409 . S
C1467 H1459 0.930 . S
C1467 C1468 1.355 . S
C1467 C1469 1.415 . S
C1468 C1467 1.355 . S
C1468 C1470 1.419 . S
C1469 C1464 1.425 . S
C1469 C1466 1.409 . S
C1469 C1467 1.415 . S
C1470 H1460 0.930 . S
C1470 C1468 1.419 . S
C1470 C1471 1.362 . S
C1471 H1461 0.930 . S
C1471 C1464 1.409 . S
C1471 C1470 1.362 . S
H1472 C1478 0.930 . S
H1473 C1481 0.930 . S
H1474 C1482 0.930 . S
H1475 C1483 0.930 . S
H1476 C1486 0.930 . S
H1477 C1487 0.930 . S
C1478 H1472 0.930 . S
C1478 C1479 1.355 . S
C1478 C1480 1.415 . S
C1479 C1478 1.355 . S
C1479 C1481 1.419 . S
C1480 C1478 1.415 . S
C1480 C1485 1.425 . S
C1480 C1487 1.409 . S
C1481 H1473 0.930 . S
C1481 C1479 1.419 . S
C1481 C1482 1.362 . S
C1482 H1474 0.930 . S
C1482 C1481 1.362 . S
C1482 C1485 1.409 . S
C1483 H1475 0.930 . S
C1483 C1484 1.355 . S
C1483 C1485 1.415 1_565 S
C1484 C1483 1.355 . S
C1484 C1486 1.419 . S
C1485 C1480 1.425 . S
C1485 C1482 1.409 . S
C1485 C1483 1.415 1_545 S
C1486 H1476 0.930 . S
C1486 C1484 1.419 . S
C1486 C1487 1.362 1_565 S
C1487 H1477 0.930 . S
C1487 C1480 1.409 . S
C1487 C1486 1.362 1_545 S
H1488 C1494 0.930 . S
H1489 C1497 0.930 . S
H1490 C1498 0.930 . S
H1491 C1499 0.930 . S
H1492 C1502 0.930 . S
H1493 C1503 0.943 . S
C1494 H1488 0.930 . S
C1494 C1495 1.355 . S
C1494 C1496 1.415 . S
C1495 C1494 1.355 . S
C1495 C1497 1.419 . S
C1496 C1494 1.415 . S
C1496 C1501 1.425 . S
C1496 C1503 1.433 . S
C1497 H1489 0.930 . S
C1497 C1495 1.419 . S
C1497 C1498 1.362 . S
C1498 H1490 0.930 . S
C1498 C1497 1.362 . S
C1498 C1501 1.409 . S
C1499 H1491 0.930 . S
C1499 C1500 1.355 . S
C1499 C1501 1.415 1_455 S
C1500 C1499 1.355 . S
C1500 C1502 1.419 . S
C1501 C1496 1.425 . S
C1501 C1498 1.409 . S
C1501 C1499 1.415 1_655 S
C1502 H1492 0.930 . S
C1502 C1500 1.419 . S
C1502 C1503 1.327 1_455 S
C1503 H1493 0.943 . S
C1503 C1496 1.433 . S
C1503 C1502 1.327 1_655 S
H1504 C1510 0.930 . S
H1505 C1513 0.930 . S
H1506 C1514 0.930 . S
H1507 C1515 0.930 . S
H1508 C1518 0.930 . S
H1509 C1519 0.930 . S
C1510 H1504 0.930 . S
C1510 C1511 1.355 . S
C1510 C1512 1.415 1_545 S
C1511 C1510 1.355 . S
C1511 C1513 1.419 . S
C1512 C1510 1.415 1_565 S
C1512 C1517 1.425 . S
C1512 C1519 1.409 . S
C1513 H1505 0.930 . S
C1513 C1511 1.419 . S
C1513 C1514 1.362 1_545 S
C1514 H1506 0.930 . S
C1514 C1513 1.362 1_565 S
C1514 C1517 1.409 . S
C1515 H1507 0.930 . S
C1515 C1516 1.355 . S
C1515 C1517 1.415 . S
C1516 C1515 1.355 . S
C1516 C1518 1.419 . S
C1517 C1512 1.425 . S
C1517 C1514 1.409 . S
C1517 C1515 1.415 . S
C1518 H1508 0.930 . S
C1518 C1516 1.419 . S
C1518 C1519 1.362 . S
C1519 H1509 0.930 . S
C1519 C1512 1.409 . S
C1519 C1518 1.362 . S
H1520 C1526 0.930 . S
H1521 C1529 0.930 . S
H1522 C1530 0.930 . S
H1523 C1531 0.930 . S
H1524 C1534 0.930 . S
H1525 C1535 0.930 . S
C1526 H1520 0.930 . S
C1526 C1527 1.355 . S
C1526 C1528 1.415 1_655 S
C1527 C1526 1.355 . S
C1527 C1529 1.419 . S
C1528 C1526 1.415 1_455 S
C1528 C1533 1.425 . S
C1528 C1535 1.409 . S
C1529 H1521 0.930 . S
C1529 C1527 1.419 . S
C1529 C1530 1.362 . S
C1530 H1522 0.930 . S
C1530 C1529 1.362 . S
C1530 C1533 1.409 1_655 S
C1531 H1523 0.930 . S
C1531 C1532 1.355 . S
C1531 C1533 1.415 . S
C1532 C1531 1.355 . S
C1532 C1534 1.419 . S
C1533 C1528 1.425 . S
C1533 C1530 1.409 1_455 S
C1533 C1531 1.415 . S
C1534 H1524 0.930 . S
C1534 C1532 1.419 . S
C1534 C1535 1.362 . S
C1535 H1525 0.930 . S
C1535 C1528 1.409 . S
C1535 C1534 1.362 . S
H1536 C1542 0.930 . S
H1537 C1545 0.930 . S
H1538 C1546 0.930 . S
H1539 C1547 0.930 . S
H1540 C1550 0.930 . S
H1541 C1551 0.930 . S
C1542 H1536 0.930 . S
C1542 C1543 1.355 . S
C1542 C1544 1.415 . S
C1543 C1542 1.355 . S
C1543 C1545 1.419 . S
C1544 C1542 1.415 . S
C1544 C1549 1.425 . S
C1544 C1551 1.409 . S
C1545 H1537 0.930 . S
C1545 C1543 1.419 . S
C1545 C1546 1.362 . S
C1546 H1538 0.930 . S
C1546 C1545 1.362 . S
C1546 C1549 1.409 . S
C1547 H1539 0.930 . S
C1547 C1548 1.355 . S
C1547 C1549 1.415 1_556 S
C1548 C1547 1.355 . S
C1548 C1550 1.419 . S
C1549 C1544 1.425 . S
C1549 C1546 1.409 . S
C1549 C1547 1.415 1_554 S
C1550 H1540 0.930 . S
C1550 C1548 1.419 . S
C1550 C1551 1.362 1_556 S
C1551 H1541 0.930 . S
C1551 C1544 1.409 . S
C1551 C1550 1.362 1_554 S
H1552 C1558 0.930 . S
H1553 C1561 0.930 . S
H1554 C1562 0.928 1_554 S
H1555 C1563 0.930 . S
H1556 C1566 0.930 . S
H1557 C1567 0.930 . S
C1558 H1552 0.930 . S
C1558 C1559 1.355 . S
C1558 C1560 1.415 1_556 S
C1559 C1558 1.355 . S
C1559 C1561 1.419 . S
C1560 C1558 1.415 1_554 S
C1560 C1565 1.425 . S
C1560 C1567 1.409 . S
C1561 H1553 0.930 . S
C1561 C1559 1.419 . S
C1561 C1562 1.370 . S
C1562 H1554 0.928 1_556 S
C1562 C1561 1.370 . S
C1562 C1565 1.404 1_556 S
C1563 H1555 0.930 . S
C1563 C1564 1.355 . S
C1563 C1565 1.415 . S
C1564 C1563 1.355 . S
C1564 C1566 1.419 . S
C1565 C1560 1.425 . S
C1565 C1562 1.404 1_554 S
C1565 C1563 1.415 . S
C1566 H1556 0.930 . S
C1566 C1564 1.419 . S
C1566 C1567 1.362 . S
C1567 H1557 0.930 . S
C1567 C1560 1.409 . S
C1567 C1566 1.362 . S
H1568 C1574 0.930 . S
H1569 C1577 0.930 . S
H1570 C1578 0.930 . S
H1571 C1579 0.930 . S
H1572 C1582 0.930 . S
H1573 C1583 0.930 . S
C1574 H1568 0.930 . S
C1574 C1575 1.355 . S
C1574 C1576 1.415 1_556 S
C1575 C1574 1.355 . S
C1575 C1577 1.419 . S
C1576 C1574 1.415 1_554 S
C1576 C1581 1.425 . S
C1576 C1583 1.409 . S
C1577 H1569 0.930 . S
C1577 C1575 1.419 . S
C1577 C1578 1.362 1_556 S
C1578 H1570 0.930 . S
C1578 C1577 1.362 1_554 S
C1578 C1581 1.409 . S
C1579 H1571 0.930 . S
C1579 C1580 1.355 . S
C1579 C1581 1.415 . S
C1580 C1579 1.355 . S
C1580 C1582 1.419 . S
C1581 C1576 1.425 . S
C1581 C1578 1.409 . S
C1581 C1579 1.415 . S
C1582 H1572 0.930 . S
C1582 C1580 1.419 . S
C1582 C1583 1.362 . S
C1583 H1573 0.930 . S
C1583 C1576 1.409 . S
C1583 C1582 1.362 . S
H1584 C1590 0.930 . S
H1585 C1593 0.930 . S
H1586 C1594 0.950 . S
H1587 C1595 0.930 . S
H1588 C1598 0.930 . S
H1589 C1599 0.948 . S
C1590 H1584 0.930 . S
C1590 C1591 1.355 . S
C1590 C1592 1.415 . S
C1591 C1590 1.355 . S
C1591 C1593 1.419 . S
C1592 C1590 1.415 . S
C1592 C1597 1.425 1_554 S
C1592 C1599 1.409 1_554 S
C1593 H1585 0.930 . S
C1593 C1591 1.419 . S
C1593 C1594 1.362 . S
C1594 H1586 0.950 . S
C1594 C1593 1.362 . S
C1594 C1597 1.409 1_554 S
C1595 H1587 0.930 . S
C1595 C1596 1.355 . S
C1595 C1597 1.415 . S
C1596 C1595 1.355 . S
C1596 C1598 1.419 . S
C1597 C1592 1.425 1_556 S
C1597 C1594 1.409 1_556 S
C1597 C1595 1.415 . S
C1598 H1588 0.930 . S
C1598 C1596 1.419 . S
C1598 C1599 1.362 . S
C1599 H1589 0.948 . S
C1599 C1592 1.409 1_556 S
C1599 C1598 1.362 . S
H1600 C1606 0.930 . S
H1601 C1609 0.930 . S
H1602 C1610 0.925 1_554 S
H1603 C1611 0.930 . S
H1604 C1614 0.930 . S
H1605 C1615 0.930 . S
C1606 H1600 0.930 . S
C1606 C1607 1.355 . S
C1606 C1608 1.415 1_556 S
C1607 C1606 1.355 . S
C1607 C1609 1.419 . S
C1608 C1606 1.415 1_554 S
C1608 C1613 1.425 . S
C1608 C1615 1.409 . S
C1609 H1601 0.930 . S
C1609 C1607 1.419 . S
C1609 C1610 1.377 . S
C1610 H1602 0.925 1_556 S
C1610 C1609 1.377 . S
C1610 C1613 1.399 1_556 S
C1611 H1603 0.930 . S
C1611 C1612 1.355 . S
C1611 C1613 1.415 . S
C1612 C1611 1.355 . S
C1612 C1614 1.419 . S
C1613 C1608 1.425 . S
C1613 C1610 1.399 1_554 S
C1613 C1611 1.415 . S
C1614 H1604 0.930 . S
C1614 C1612 1.419 . S
C1614 C1615 1.362 . S
C1615 H1605 0.930 . S
C1615 C1608 1.409 . S
C1615 C1614 1.362 . S
H1616 C1622 0.930 . S
H1617 C1625 0.930 . S
H1618 C1626 0.930 . S
H1619 C1627 0.930 . S
H1620 C1630 0.930 . S
H1621 C1631 0.930 . S
C1622 H1616 0.930 . S
C1622 C1623 1.355 . S
C1622 C1624 1.415 . S
C1623 C1622 1.355 . S
C1623 C1625 1.419 . S
C1624 C1622 1.415 . S
C1624 C1629 1.425 . S
C1624 C1631 1.409 . S
C1625 H1617 0.930 . S
C1625 C1623 1.419 . S
C1625 C1626 1.362 . S
C1626 H1618 0.930 . S
C1626 C1625 1.362 . S
C1626 C1629 1.409 . S
C1627 H1619 0.930 . S
C1627 C1628 1.355 . S
C1627 C1629 1.415 1_556 S
C1628 C1627 1.355 . S
C1628 C1630 1.419 . S
C1629 C1624 1.425 . S
C1629 C1626 1.409 . S
C1629 C1627 1.415 1_554 S
C1630 H1620 0.930 . S
C1630 C1628 1.419 . S
C1630 C1631 1.362 1_556 S
C1631 H1621 0.930 . S
C1631 C1624 1.409 . S
C1631 C1630 1.362 1_554 S
H1632 C1638 0.930 . S
H1633 C1641 0.930 . S
H1634 C1642 0.930 . S
H1635 C1643 0.930 . S
H1636 C1646 0.930 . S
H1637 C1647 0.930 . S
C1638 H1632 0.930 . S
C1638 C1639 1.355 . S
C1638 C1640 1.415 . S
C1639 C1638 1.355 . S
C1639 C1641 1.419 . S
C1640 C1638 1.415 . S
C1640 C1645 1.425 1_554 S
C1640 C1647 1.409 1_554 S
C1641 H1633 0.930 . S
C1641 C1639 1.419 . S
C1641 C1642 1.362 . S
C1642 H1634 0.930 . S
C1642 C1641 1.362 . S
C1642 C1645 1.409 1_554 S
C1643 H1635 0.930 . S
C1643 C1644 1.355 . S
C1643 C1645 1.415 . S
C1644 C1643 1.355 . S
C1644 C1646 1.419 . S
C1645 C1640 1.425 1_556 S
C1645 C1642 1.409 1_556 S
C1645 C1643 1.415 . S
C1646 H1636 0.930 . S
C1646 C1644 1.419 . S
C1646 C1647 1.362 . S
C1647 H1637 0.930 . S
C1647 C1640 1.409 1_556 S
C1647 C1646 1.362 . S
H1648 C1654 0.936 . S
H1649 C1657 0.930 . S
H1650 C1658 0.930 . S
H1651 C1659 0.930 . S
H1652 C1662 0.930 . S
H1653 C1663 0.930 . S
C1654 H1648 0.936 . S
C1654 C1655 1.366 . S
C1654 C1656 1.397 1_556 S
C1655 C1654 1.366 . S
C1655 C1657 1.419 . S
C1656 C1654 1.397 1_554 S
C1656 C1661 1.425 . S
C1656 C1663 1.409 . S
C1657 H1649 0.930 . S
C1657 C1655 1.419 . S
C1657 C1658 1.362 1_556 S
C1658 H1650 0.930 . S
C1658 C1657 1.362 1_554 S
C1658 C1661 1.409 . S
C1659 H1651 0.930 . S
C1659 C1660 1.355 . S
C1659 C1661 1.415 . S
C1660 C1659 1.355 . S
C1660 C1662 1.419 . S
C1661 C1656 1.425 . S
C1661 C1658 1.409 . S
C1661 C1659 1.415 . S
C1662 H1652 0.930 . S
C1662 C1660 1.419 . S
C1662 C1663 1.362 . S
C1663 H1653 0.930 . S
C1663 C1656 1.409 . S
C1663 C1662 1.362 . S
H1664 C1670 0.930 . S
H1665 C1673 0.930 . S
H1666 C1674 0.930 . S
H1667 C1675 0.930 . S
H1668 C1678 0.930 . S
H1669 C1679 0.930 . S
C1670 H1664 0.930 . S
C1670 C1671 1.355 . S
C1670 C1672 1.415 . S
C1671 C1670 1.355 . S
C1671 C1673 1.419 . S
C1672 C1670 1.415 . S
C1672 C1677 1.425 . S
C1672 C1679 1.409 1_455 S
C1673 H1665 0.930 . S
C1673 C1671 1.419 . S
C1673 C1674 1.362 . S
C1674 H1666 0.930 . S
C1674 C1673 1.362 . S
C1674 C1677 1.409 . S
C1675 H1667 0.930 . S
C1675 C1676 1.355 . S
C1675 C1677 1.415 1_655 S
C1676 C1675 1.355 . S
C1676 C1678 1.419 . S
C1677 C1672 1.425 . S
C1677 C1674 1.409 . S
C1677 C1675 1.415 1_455 S
C1678 H1668 0.930 . S
C1678 C1676 1.419 . S
C1678 C1679 1.362 . S
C1679 H1669 0.930 . S
C1679 C1672 1.409 1_655 S
C1679 C1678 1.362 . S
H1680 C1686 0.930 . S
H1681 C1689 0.930 . S
H1682 C1690 0.930 . S
H1683 C1691 0.930 . S
H1684 C1694 0.930 . S
H1685 C1695 0.930 . S
C1686 H1680 0.930 . S
C1686 C1687 1.355 . S
C1686 C1688 1.416 . S
C1687 C1686 1.355 . S
C1687 C1689 1.419 . S
C1688 C1686 1.416 . S
C1688 C1693 1.425 1_455 S
C1688 C1695 1.408 1_455 S
C1689 H1681 0.930 . S
C1689 C1687 1.419 . S
C1689 C1690 1.362 . S
C1690 H1682 0.930 . S
C1690 C1689 1.362 . S
C1690 C1693 1.409 1_455 S
C1691 H1683 0.930 . S
C1691 C1692 1.355 . S
C1691 C1693 1.415 . S
C1692 C1691 1.355 . S
C1692 C1694 1.419 . S
C1693 C1688 1.425 1_655 S
C1693 C1690 1.409 1_655 S
C1693 C1691 1.415 . S
C1694 H1684 0.930 . S
C1694 C1692 1.419 . S
C1694 C1695 1.362 . S
C1695 H1685 0.930 . S
C1695 C1688 1.408 1_655 S
C1695 C1694 1.362 . S
H1696 C1702 0.930 . S
H1697 C1705 0.930 . S
H1698 C1706 0.930 . S
H1699 C1707 0.930 . S
H1700 C1710 0.930 . S
H1701 C1711 0.930 . S
C1702 H1696 0.930 . S
C1702 C1703 1.355 . S
C1702 C1704 1.415 . S
C1703 C1702 1.355 . S
C1703 C1705 1.419 . S
C1704 C1702 1.415 . S
C1704 C1709 1.425 . S
C1704 C1711 1.409 . S
C1705 H1697 0.930 . S
C1705 C1703 1.419 . S
C1705 C1706 1.362 . S
C1706 H1698 0.930 . S
C1706 C1705 1.362 . S
C1706 C1709 1.409 . S
C1707 H1699 0.930 . S
C1707 C1708 1.355 . S
C1707 C1709 1.415 1_545 S
C1708 C1707 1.355 . S
C1708 C1710 1.419 . S
C1709 C1704 1.425 . S
C1709 C1706 1.409 . S
C1709 C1707 1.415 1_565 S
C1710 H1700 0.930 . S
C1710 C1708 1.419 . S
C1710 C1711 1.362 1_545 S
C1711 H1701 0.930 . S
C1711 C1704 1.409 . S
C1711 C1710 1.362 1_565 S
H1712 C1718 0.930 . S
H1713 C1721 0.930 . S
H1714 C1722 0.930 . S
H1715 C1723 0.930 . S
H1716 C1726 0.930 . S
H1717 C1727 0.930 . S
C1718 H1712 0.930 . S
C1718 C1719 1.355 . S
C1718 C1720 1.415 . S
C1719 C1718 1.355 . S
C1719 C1721 1.419 . S
C1720 C1718 1.415 . S
C1720 C1725 1.425 . S
C1720 C1727 1.409 . S
C1721 H1713 0.930 . S
C1721 C1719 1.419 . S
C1721 C1722 1.362 . S
C1722 H1714 0.930 . S
C1722 C1721 1.362 . S
C1722 C1725 1.409 . S
C1723 H1715 0.930 . S
C1723 C1724 1.355 . S
C1723 C1725 1.415 1_655 S
C1724 C1723 1.355 . S
C1724 C1726 1.419 . S
C1725 C1720 1.425 . S
C1725 C1722 1.409 . S
C1725 C1723 1.415 1_455 S
C1726 H1716 0.930 . S
C1726 C1724 1.419 . S
C1726 C1727 1.362 1_655 S
C1727 H1717 0.930 . S
C1727 C1720 1.409 . S
C1727 C1726 1.362 1_455 S
H1728 C1734 0.930 . S
H1729 C1737 0.930 . S
H1730 C1738 0.930 . S
H1731 C1739 0.930 . S
H1732 C1742 0.930 . S
H1733 C1743 0.930 . S
C1734 H1728 0.930 . S
C1734 C1735 1.355 . S
C1734 C1736 1.415 . S
C1735 C1734 1.355 . S
C1735 C1737 1.419 . S
C1736 C1734 1.415 . S
C1736 C1741 1.425 . S
C1736 C1743 1.409 1_565 S
C1737 H1729 0.930 . S
C1737 C1735 1.419 . S
C1737 C1738 1.362 . S
C1738 H1730 0.930 . S
C1738 C1737 1.362 . S
C1738 C1741 1.409 . S
C1739 H1731 0.930 . S
C1739 C1740 1.355 . S
C1739 C1741 1.415 1_545 S
C1740 C1739 1.355 . S
C1740 C1742 1.419 . S
C1741 C1736 1.425 . S
C1741 C1738 1.409 . S
C1741 C1739 1.415 1_565 S
C1742 H1732 0.930 . S
C1742 C1740 1.419 . S
C1742 C1743 1.362 . S
C1743 H1733 0.930 . S
C1743 C1736 1.409 1_545 S
C1743 C1742 1.362 . S
H1744 C1750 0.930 . S
H1745 C1753 0.930 . S
H1746 C1754 0.930 . S
H1747 C1755 0.930 . S
H1748 C1758 0.930 . S
H1749 C1759 0.930 . S
C1750 H1744 0.930 . S
C1750 C1751 1.355 . S
C1750 C1752 1.415 . S
C1751 C1750 1.355 . S
C1751 C1753 1.419 . S
C1752 C1750 1.415 . S
C1752 C1757 1.425 . S
C1752 C1759 1.409 1_655 S
C1753 H1745 0.930 . S
C1753 C1751 1.419 . S
C1753 C1754 1.362 . S
C1754 H1746 0.930 . S
C1754 C1753 1.362 . S
C1754 C1757 1.409 . S
C1755 H1747 0.930 . S
C1755 C1756 1.355 . S
C1755 C1757 1.415 1_455 S
C1756 C1755 1.355 . S
C1756 C1758 1.419 . S
C1757 C1752 1.425 . S
C1757 C1754 1.409 . S
C1757 C1755 1.415 1_655 S
C1758 H1748 0.930 . S
C1758 C1756 1.419 . S
C1758 C1759 1.362 . S
C1759 H1749 0.930 . S
C1759 C1752 1.409 1_455 S
C1759 C1758 1.362 . S
H1760 C1766 0.930 . S
H1761 C1769 0.930 . S
H1762 C1770 0.930 . S
H1763 C1771 0.930 . S
H1764 C1774 0.930 . S
H1765 C1775 0.930 . S
C1766 H1760 0.930 . S
C1766 C1767 1.355 . S
C1766 C1768 1.415 . S
C1767 C1766 1.355 . S
C1767 C1769 1.419 . S
C1768 C1766 1.415 . S
C1768 C1773 1.425 . S
C1768 C1775 1.409 . S
C1769 H1761 0.930 . S
C1769 C1767 1.419 . S
C1769 C1770 1.362 . S
C1770 H1762 0.930 . S
C1770 C1769 1.362 . S
C1770 C1773 1.409 . S
C1771 H1763 0.930 . S
C1771 C1772 1.355 . S
C1771 C1773 1.415 1_545 S
C1772 C1771 1.355 . S
C1772 C1774 1.419 . S
C1773 C1768 1.425 . S
C1773 C1770 1.409 . S
C1773 C1771 1.415 1_565 S
C1774 H1764 0.930 . S
C1774 C1772 1.419 . S
C1774 C1775 1.362 1_545 S
C1775 H1765 0.930 . S
C1775 C1768 1.409 . S
C1775 C1774 1.362 1_565 S
H1776 C1782 0.930 . S
H1777 C1785 0.930 . S
H1778 C1786 0.930 . S
H1779 C1787 0.930 . S
H1780 C1790 0.930 . S
H1781 C1791 0.930 . S
C1782 H1776 0.930 . S
C1782 C1783 1.355 . S
C1782 C1784 1.415 1_565 S
C1783 C1782 1.355 . S
C1783 C1785 1.419 . S
C1784 C1782 1.415 1_545 S
C1784 C1789 1.425 . S
C1784 C1791 1.409 . S
C1785 H1777 0.930 . S
C1785 C1783 1.419 . S
C1785 C1786 1.362 1_565 S
C1786 H1778 0.930 . S
C1786 C1785 1.362 1_545 S
C1786 C1789 1.409 . S
C1787 H1779 0.930 . S
C1787 C1788 1.355 . S
C1787 C1789 1.415 . S
C1788 C1787 1.355 . S
C1788 C1790 1.419 . S
C1789 C1784 1.425 . S
C1789 C1786 1.409 . S
C1789 C1787 1.415 . S
C1790 H1780 0.930 . S
C1790 C1788 1.419 . S
C1790 C1791 1.362 . S
C1791 H1781 0.930 . S
C1791 C1784 1.409 . S
C1791 C1790 1.362 . S
H1792 C1798 0.930 . S
H1793 C1801 0.930 . S
H1794 C1802 0.930 . S
H1795 C1803 0.930 . S
H1796 C1806 0.930 . S
H1797 C1807 0.930 . S
C1798 H1792 0.930 . S
C1798 C1799 1.355 . S
C1798 C1800 1.415 . S
C1799 C1798 1.355 . S
C1799 C1801 1.419 . S
C1800 C1798 1.415 . S
C1800 C1805 1.425 . S
C1800 C1807 1.409 . S
C1801 H1793 0.930 . S
C1801 C1799 1.419 . S
C1801 C1802 1.362 . S
C1802 H1794 0.930 . S
C1802 C1801 1.362 . S
C1802 C1805 1.409 . S
C1803 H1795 0.930 . S
C1803 C1804 1.355 . S
C1803 C1805 1.415 . S
C1804 C1803 1.355 . S
C1804 C1806 1.419 . S
C1805 C1800 1.425 . S
C1805 C1802 1.409 . S
C1805 C1803 1.415 . S
C1806 H1796 0.930 . S
C1806 C1804 1.419 . S
C1806 C1807 1.362 . S
C1807 H1797 0.930 . S
C1807 C1800 1.409 . S
C1807 C1806 1.362 . S
H1808 C1814 0.930 . S
H1809 C1817 0.930 . S
H1810 C1818 0.930 . S
H1811 C1819 0.930 . S
H1812 C1822 0.930 . S
H1813 C1823 0.930 . S
C1814 H1808 0.930 . S
C1814 C1815 1.355 . S
C1814 C1816 1.415 . S
C1815 C1814 1.355 . S
C1815 C1817 1.419 . S
C1816 C1814 1.415 . S
C1816 C1821 1.425 . S
C1816 C1823 1.409 . S
C1817 H1809 0.930 . S
C1817 C1815 1.419 . S
C1817 C1818 1.362 . S
C1818 H1810 0.930 . S
C1818 C1817 1.362 . S
C1818 C1821 1.409 . S
C1819 H1811 0.930 . S
C1819 C1820 1.355 . S
C1819 C1821 1.415 . S
C1820 C1819 1.355 . S
C1820 C1822 1.419 . S
C1821 C1816 1.425 . S
C1821 C1818 1.409 . S
C1821 C1819 1.415 . S
C1822 H1812 0.930 . S
C1822 C1820 1.419 . S
C1822 C1823 1.362 . S
C1823 H1813 0.930 . S
C1823 C1816 1.409 . S
C1823 C1822 1.362 . S
H1824 C1830 0.930 . S
H1825 C1833 0.930 . S
H1826 C1834 0.930 . S
H1827 C1835 0.930 . S
H1828 C1838 0.930 . S
H1829 C1839 0.930 . S
C1830 H1824 0.930 . S
C1830 C1831 1.355 . S
C1830 C1832 1.415 . S
C1831 C1830 1.355 . S
C1831 C1833 1.419 . S
C1832 C1830 1.415 . S
C1832 C1837 1.425 . S
C1832 C1839 1.409 . S
C1833 H1825 0.930 . S
C1833 C1831 1.419 . S
C1833 C1834 1.362 . S
C1834 H1826 0.930 . S
C1834 C1833 1.362 . S
C1834 C1837 1.409 . S
C1835 H1827 0.930 . S
C1835 C1836 1.355 . S
C1835 C1837 1.415 . S
C1836 C1835 1.355 . S
C1836 C1838 1.419 . S
C1837 C1832 1.425 . S
C1837 C1834 1.409 . S
C1837 C1835 1.415 . S
C1838 H1828 0.930 . S
C1838 C1836 1.419 . S
C1838 C1839 1.362 . S
C1839 H1829 0.930 . S
C1839 C1832 1.409 . S
C1839 C1838 1.362 . S
H1840 C1846 0.930 . S
H1841 C1849 0.930 . S
H1842 C1850 0.930 . S
H1843 C1851 0.930 . S
H1844 C1854 0.930 . S
H1845 C1855 0.930 . S
C1846 H1840 0.930 . S
C1846 C1847 1.355 . S
C1846 C1848 1.415 . S
C1847 C1846 1.355 . S
C1847 C1849 1.419 . S
C1848 C1846 1.415 . S
C1848 C1853 1.425 . S
C1848 C1855 1.409 . S
C1849 H1841 0.930 . S
C1849 C1847 1.419 . S
C1849 C1850 1.362 . S
C1850 H1842 0.930 . S
C1850 C1849 1.362 . S
C1850 C1853 1.409 . S
C1851 H1843 0.930 . S
C1851 C1852 1.355 . S
C1851 C1853 1.415 . S
C1852 C1851 1.355 . S
C1852 C1854 1.419 . S
C1853 C1848 1.425 . S
C1853 C1850 1.409 . S
C1853 C1851 1.415 . S
C1854 H1844 0.930 . S
C1854 C1852 1.419 . S
C1854 C1855 1.362 . S
C1855 H1845 0.930 . S
C1855 C1848 1.409 . S
C1855 C1854 1.362 . S
H1856 C1862 0.930 . S
H1857 C1865 0.930 . S
H1858 C1866 0.930 . S
H1859 C1867 0.930 . S
H1860 C1870 0.930 . S
H1861 C1871 0.930 . S
C1862 H1856 0.930 . S
C1862 C1863 1.355 . S
C1862 C1864 1.415 . S
C1863 C1862 1.355 . S
C1863 C1865 1.419 . S
C1864 C1862 1.415 . S
C1864 C1869 1.425 . S
C1864 C1871 1.409 . S
C1865 H1857 0.930 . S
C1865 C1863 1.419 . S
C1865 C1866 1.362 . S
C1866 H1858 0.930 . S
C1866 C1865 1.362 . S
C1866 C1869 1.409 . S
C1867 H1859 0.930 . S
C1867 C1868 1.355 . S
C1867 C1869 1.415 . S
C1868 C1867 1.355 . S
C1868 C1870 1.419 . S
C1869 C1864 1.425 . S
C1869 C1866 1.409 . S
C1869 C1867 1.415 . S
C1870 H1860 0.930 . S
C1870 C1868 1.419 . S
C1870 C1871 1.362 . S
C1871 H1861 0.930 . S
C1871 C1864 1.409 . S
C1871 C1870 1.362 . S
H1872 C1878 0.930 . S
H1873 C1881 0.930 . S
H1874 C1882 0.930 . S
H1875 C1883 0.930 . S
H1876 C1886 0.930 . S
H1877 C1887 0.930 . S
C1878 H1872 0.930 . S
C1878 C1879 1.355 . S
C1878 C1880 1.415 . S
C1879 C1878 1.355 . S
C1879 C1881 1.419 . S
C1880 C1878 1.415 . S
C1880 C1885 1.425 . S
C1880 C1887 1.409 . S
C1881 H1873 0.930 . S
C1881 C1879 1.419 . S
C1881 C1882 1.362 . S
C1882 H1874 0.930 . S
C1882 C1881 1.362 . S
C1882 C1885 1.409 . S
C1883 H1875 0.930 . S
C1883 C1884 1.355 . S
C1883 C1885 1.415 . S
C1884 C1883 1.355 . S
C1884 C1886 1.419 . S
C1885 C1880 1.425 . S
C1885 C1882 1.409 . S
C1885 C1883 1.415 . S
C1886 H1876 0.930 . S
C1886 C1884 1.419 . S
C1886 C1887 1.362 . S
C1887 H1877 0.930 . S
C1887 C1880 1.409 . S
C1887 C1886 1.362 . S
H1888 C1894 0.930 . S
H1889 C1897 0.930 . S
H1890 C1898 0.930 . S
H1891 C1899 0.930 . S
H1892 C1902 0.930 . S
H1893 C1903 0.930 . S
C1894 H1888 0.930 . S
C1894 C1895 1.355 . S
C1894 C1896 1.415 . S
C1895 C1894 1.355 . S
C1895 C1897 1.419 . S
C1896 C1894 1.415 . S
C1896 C1901 1.425 . S
C1896 C1903 1.409 . S
C1897 H1889 0.930 . S
C1897 C1895 1.419 . S
C1897 C1898 1.362 . S
C1898 H1890 0.930 . S
C1898 C1897 1.362 . S
C1898 C1901 1.409 . S
C1899 H1891 0.930 . S
C1899 C1900 1.355 . S
C1899 C1901 1.415 . S
C1900 C1899 1.355 . S
C1900 C1902 1.419 . S
C1901 C1896 1.425 . S
C1901 C1898 1.409 . S
C1901 C1899 1.415 . S
C1902 H1892 0.930 . S
C1902 C1900 1.419 . S
C1902 C1903 1.362 . S
C1903 H1893 0.930 . S
C1903 C1896 1.409 . S
C1903 C1902 1.362 . S
H1904 C1910 0.930 . S
H1905 C1913 0.930 . S
H1906 C1914 0.930 . S
H1907 C1915 0.930 . S
H1908 C1918 0.930 . S
H1909 C1919 0.930 . S
C1910 H1904 0.930 . S
C1910 C1911 1.355 . S
C1910 C1912 1.415 . S
C1911 C1910 1.355 . S
C1911 C1913 1.419 . S
C1912 C1910 1.415 . S
C1912 C1917 1.425 . S
C1912 C1919 1.409 . S
C1913 H1905 0.930 . S
C1913 C1911 1.419 . S
C1913 C1914 1.362 . S
C1914 H1906 0.930 . S
C1914 C1913 1.362 . S
C1914 C1917 1.409 . S
C1915 H1907 0.930 . S
C1915 C1916 1.355 . S
C1915 C1917 1.415 . S
C1916 C1915 1.355 . S
C1916 C1918 1.419 . S
C1917 C1912 1.425 . S
C1917 C1914 1.409 . S
C1917 C1915 1.415 . S
C1918 H1908 0.930 . S
C1918 C1916 1.419 . S
C1918 C1919 1.362 . S
C1919 H1909 0.930 . S
C1919 C1912 1.409 . S
C1919 C1918 1.362 . S
H1920 C1926 0.930 . S
H1921 C1929 0.930 . S
H1922 C1930 0.930 . S
H1923 C1931 0.930 . S
H1924 C1934 0.930 . S
H1925 C1935 0.930 . S
C1926 H1920 0.930 . S
C1926 C1927 1.355 . S
C1926 C1928 1.415 . S
C1927 C1926 1.355 . S
C1927 C1929 1.419 . S
C1928 C1926 1.415 . S
C1928 C1933 1.425 . S
C1928 C1935 1.409 . S
C1929 H1921 0.930 . S
C1929 C1927 1.419 . S
C1929 C1930 1.362 . S
C1930 H1922 0.930 . S
C1930 C1929 1.362 . S
C1930 C1933 1.409 . S
C1931 H1923 0.930 . S
C1931 C1932 1.355 . S
C1931 C1933 1.415 . S
C1932 C1931 1.355 . S
C1932 C1934 1.419 . S
C1933 C1928 1.425 . S
C1933 C1930 1.409 . S
C1933 C1931 1.415 . S
C1934 H1924 0.930 . S
C1934 C1932 1.419 . S
C1934 C1935 1.362 . S
C1935 H1925 0.930 . S
C1935 C1928 1.409 . S
C1935 C1934 1.362 . S
H1936 C1942 0.930 . S
H1937 C1945 0.930 . S
H1938 C1946 0.930 . S
H1939 C1947 0.930 . S
H1940 C1950 0.930 . S
H1941 C1951 0.930 . S
C1942 H1936 0.930 . S
C1942 C1943 1.355 . S
C1942 C1944 1.415 . S
C1943 C1942 1.355 . S
C1943 C1945 1.419 . S
C1944 C1942 1.415 . S
C1944 C1949 1.425 . S
C1944 C1951 1.409 . S
C1945 H1937 0.930 . S
C1945 C1943 1.419 . S
C1945 C1946 1.362 . S
C1946 H1938 0.930 . S
C1946 C1945 1.362 . S
C1946 C1949 1.409 . S
C1947 H1939 0.930 . S
C1947 C1948 1.355 . S
C1947 C1949 1.415 . S
C1948 C1947 1.355 . S
C1948 C1950 1.419 . S
C1949 C1944 1.425 . S
C1949 C1946 1.409 . S
C1949 C1947 1.415 . S
C1950 H1940 0.930 . S
C1950 C1948 1.419 . S
C1950 C1951 1.362 . S
C1951 H1941 0.930 . S
C1951 C1944 1.409 . S
C1951 C1950 1.362 . S
H1952 C1958 0.930 . S
H1953 C1961 0.930 . S
H1954 C1962 0.930 . S
H1955 C1963 0.930 . S
H1956 C1966 0.930 . S
H1957 C1967 0.930 . S
C1958 H1952 0.930 . S
C1958 C1959 1.355 . S
C1958 C1960 1.415 . S
C1959 C1958 1.355 . S
C1959 C1961 1.419 . S
C1960 C1958 1.415 . S
C1960 C1965 1.425 . S
C1960 C1967 1.409 . S
C1961 H1953 0.930 . S
C1961 C1959 1.419 . S
C1961 C1962 1.362 . S
C1962 H1954 0.930 . S
C1962 C1961 1.362 . S
C1962 C1965 1.409 . S
C1963 H1955 0.930 . S
C1963 C1964 1.355 . S
C1963 C1965 1.415 . S
C1964 C1963 1.355 . S
C1964 C1966 1.419 . S
C1965 C1960 1.425 . S
C1965 C1962 1.409 . S
C1965 C1963 1.415 . S
C1966 H1956 0.930 . S
C1966 C1964 1.419 . S
C1966 C1967 1.362 . S
C1967 H1957 0.930 . S
C1967 C1960 1.409 . S
C1967 C1966 1.362 . S
H1968 C1974 0.930 . S
H1969 C1977 0.930 . S
H1970 C1978 0.930 . S
H1971 C1979 0.930 . S
H1972 C1982 0.930 . S
H1973 C1983 0.930 . S
C1974 H1968 0.930 . S
C1974 C1975 1.355 . S
C1974 C1976 1.415 . S
C1975 C1974 1.355 . S
C1975 C1977 1.419 . S
C1976 C1974 1.415 . S
C1976 C1981 1.425 . S
C1976 C1983 1.409 . S
C1977 H1969 0.930 . S
C1977 C1975 1.419 . S
C1977 C1978 1.362 . S
C1978 H1970 0.930 . S
C1978 C1977 1.362 . S
C1978 C1981 1.409 . S
C1979 H1971 0.930 . S
C1979 C1980 1.355 . S
C1979 C1981 1.415 . S
C1980 C1979 1.355 . S
C1980 C1982 1.419 . S
C1981 C1976 1.425 . S
C1981 C1978 1.409 . S
C1981 C1979 1.415 . S
C1982 H1972 0.930 . S
C1982 C1980 1.419 . S
C1982 C1983 1.362 . S
C1983 H1973 0.930 . S
C1983 C1976 1.409 . S
C1983 C1982 1.362 . S
H1984 C1990 0.930 . S
H1985 C1993 0.930 . S
H1986 C1994 0.930 . S
H1987 C1995 0.930 . S
H1988 C1998 0.930 . S
H1989 C1999 0.930 . S
C1990 H1984 0.930 . S
C1990 C1991 1.355 . S
C1990 C1992 1.415 . S
C1991 C1990 1.355 . S
C1991 C1993 1.419 . S
C1992 C1990 1.415 . S
C1992 C1997 1.425 . S
C1992 C1999 1.409 . S
C1993 H1985 0.930 . S
C1993 C1991 1.419 . S
C1993 C1994 1.362 . S
C1994 H1986 0.930 . S
C1994 C1993 1.362 . S
C1994 C1997 1.409 . S
C1995 H1987 0.930 . S
C1995 C1996 1.355 . S
C1995 C1997 1.415 . S
C1996 C1995 1.355 . S
C1996 C1998 1.419 . S
C1997 C1992 1.425 . S
C1997 C1994 1.409 . S
C1997 C1995 1.415 . S
C1998 H1988 0.930 . S
C1998 C1996 1.419 . S
C1998 C1999 1.362 . S
C1999 H1989 0.930 . S
C1999 C1992 1.409 . S
C1999 C1998 1.362 . S
H2000 C2006 0.930 . S
H2001 C2009 0.930 . S
H2002 C2010 0.930 . S
H2003 C2011 0.930 . S
H2004 C2014 0.930 . S
H2005 C2015 0.930 . S
C2006 H2000 0.930 . S
C2006 C2007 1.355 . S
C2006 C2008 1.415 . S
C2007 C2006 1.355 . S
C2007 C2009 1.419 . S
C2008 C2006 1.415 . S
C2008 C2013 1.425 . S
C2008 C2015 1.409 . S
C2009 H2001 0.930 . S
C2009 C2007 1.419 . S
C2009 C2010 1.362 . S
C2010 H2002 0.930 . S
C2010 C2009 1.362 . S
C2010 C2013 1.409 . S
C2011 H2003 0.930 . S
C2011 C2012 1.355 . S
C2011 C2013 1.415 . S
C2012 C2011 1.355 . S
C2012 C2014 1.419 . S
C2013 C2008 1.425 . S
C2013 C2010 1.409 . S
C2013 C2011 1.415 . S
C2014 H2004 0.930 . S
C2014 C2012 1.419 . S
C2014 C2015 1.362 . S
C2015 H2005 0.930 . S
C2015 C2008 1.409 . S
C2015 C2014 1.362 . S
H2016 C2022 0.930 . S
H2017 C2025 0.930 . S
H2018 C2026 0.930 . S
H2019 C2027 0.930 . S
H2020 C2030 0.930 . S
H2021 C2031 0.930 . S
C2022 H2016 0.930 . S
C2022 C2023 1.355 . S
C2022 C2024 1.415 . S
C2023 C2022 1.355 . S
C2023 C2025 1.419 . S
C2024 C2022 1.415 . S
C2024 C2029 1.425 . S
C2024 C2031 1.409 . S
C2025 H2017 0.930 . S
C2025 C2023 1.419 . S
C2025 C2026 1.362 . S
C2026 H2018 0.930 . S
C2026 C2025 1.362 . S
C2026 C2029 1.409 . S
C2027 H2019 0.930 . S
C2027 C2028 1.355 . S
C2027 C2029 1.415 . S
C2028 C2027 1.355 . S
C2028 C2030 1.419 . S
C2029 C2024 1.425 . S
C2029 C2026 1.409 . S
C2029 C2027 1.415 . S
C2030 H2020 0.930 . S
C2030 C2028 1.419 . S
C2030 C2031 1.362 . S
C2031 H2021 0.930 . S
C2031 C2024 1.409 . S
C2031 C2030 1.362 . S
H2032 C2038 0.930 . S
H2033 C2041 0.930 . S
H2034 C2042 0.930 . S
H2035 C2043 0.930 . S
H2036 C2046 0.930 . S
H2037 C2047 0.930 . S
C2038 H2032 0.930 . S
C2038 C2039 1.355 . S
C2038 C2040 1.415 . S
C2039 C2038 1.355 . S
C2039 C2041 1.419 . S
C2040 C2038 1.415 . S
C2040 C2045 1.425 . S
C2040 C2047 1.409 . S
C2041 H2033 0.930 . S
C2041 C2039 1.419 . S
C2041 C2042 1.362 . S
C2042 H2034 0.930 . S
C2042 C2041 1.362 . S
C2042 C2045 1.409 . S
C2043 H2035 0.930 . S
C2043 C2044 1.355 . S
C2043 C2045 1.415 . S
C2044 C2043 1.355 . S
C2044 C2046 1.419 . S
C2045 C2040 1.425 . S
C2045 C2042 1.409 . S
C2045 C2043 1.415 . S
C2046 H2036 0.930 . S
C2046 C2044 1.419 . S
C2046 C2047 1.362 . S
C2047 H2037 0.930 . S
C2047 C2040 1.409 . S
C2047 C2046 1.362 . S
H2048 C2054 0.930 . S
H2049 C2057 0.930 . S
H2050 C2058 0.930 . S
H2051 C2059 0.930 . S
H2052 C2062 0.930 . S
H2053 C2063 0.930 . S
C2054 H2048 0.930 . S
C2054 C2055 1.355 . S
C2054 C2056 1.415 . S
C2055 C2054 1.355 . S
C2055 C2057 1.419 . S
C2056 C2054 1.415 . S
C2056 C2061 1.425 . S
C2056 C2063 1.409 . S
C2057 H2049 0.930 . S
C2057 C2055 1.419 . S
C2057 C2058 1.362 . S
C2058 H2050 0.930 . S
C2058 C2057 1.362 . S
C2058 C2061 1.409 . S
C2059 H2051 0.930 . S
C2059 C2060 1.355 . S
C2059 C2061 1.415 . S
C2060 C2059 1.355 . S
C2060 C2062 1.419 . S
C2061 C2056 1.425 . S
C2061 C2058 1.409 . S
C2061 C2059 1.415 . S
C2062 H2052 0.930 . S
C2062 C2060 1.419 . S
C2062 C2063 1.362 . S
C2063 H2053 0.930 . S
C2063 C2056 1.409 . S
C2063 C2062 1.362 . S
H2064 C2070 0.930 . S
H2065 C2073 0.930 . S
H2066 C2074 0.930 . S
H2067 C2075 0.930 . S
H2068 C2078 0.930 . S
H2069 C2079 0.930 . S
C2070 H2064 0.930 . S
C2070 C2071 1.355 . S
C2070 C2072 1.415 . S
C2071 C2070 1.355 . S
C2071 C2073 1.419 . S
C2072 C2070 1.415 . S
C2072 C2077 1.425 . S
C2072 C2079 1.409 . S
C2073 H2065 0.930 . S
C2073 C2071 1.419 . S
C2073 C2074 1.362 . S
C2074 H2066 0.930 . S
C2074 C2073 1.362 . S
C2074 C2077 1.409 . S
C2075 H2067 0.930 . S
C2075 C2076 1.355 . S
C2075 C2077 1.415 . S
C2076 C2075 1.355 . S
C2076 C2078 1.419 . S
C2077 C2072 1.425 . S
C2077 C2074 1.409 . S
C2077 C2075 1.415 . S
C2078 H2068 0.930 . S
C2078 C2076 1.419 . S
C2078 C2079 1.362 . S
C2079 H2069 0.930 . S
C2079 C2072 1.409 . S
C2079 C2078 1.362 . S
H2080 C2086 0.930 . S
H2081 C2089 0.930 . S
H2082 C2090 0.930 . S
H2083 C2091 0.930 . S
H2084 C2094 0.930 . S
H2085 C2095 0.930 . S
C2086 H2080 0.930 . S
C2086 C2087 1.355 . S
C2086 C2088 1.415 . S
C2087 C2086 1.355 . S
C2087 C2089 1.419 . S
C2088 C2086 1.415 . S
C2088 C2093 1.425 . S
C2088 C2095 1.409 . S
C2089 H2081 0.930 . S
C2089 C2087 1.419 . S
C2089 C2090 1.362 . S
C2090 H2082 0.930 . S
C2090 C2089 1.362 . S
C2090 C2093 1.409 . S
C2091 H2083 0.930 . S
C2091 C2092 1.355 . S
C2091 C2093 1.415 . S
C2092 C2091 1.355 . S
C2092 C2094 1.419 . S
C2093 C2088 1.425 . S
C2093 C2090 1.409 . S
C2093 C2091 1.415 . S
C2094 H2084 0.930 . S
C2094 C2092 1.419 . S
C2094 C2095 1.362 . S
C2095 H2085 0.930 . S
C2095 C2088 1.409 . S
C2095 C2094 1.362 . S
H2096 C2102 0.930 . S
H2097 C2105 0.930 . S
H2098 C2106 0.930 . S
H2099 C2107 0.930 . S
H2100 C2110 0.930 . S
H2101 C2111 0.930 . S
C2102 H2096 0.930 . S
C2102 C2103 1.355 . S
C2102 C2104 1.415 . S
C2103 C2102 1.355 . S
C2103 C2105 1.419 . S
C2104 C2102 1.415 . S
C2104 C2109 1.425 . S
C2104 C2111 1.409 . S
C2105 H2097 0.930 . S
C2105 C2103 1.419 . S
C2105 C2106 1.362 . S
C2106 H2098 0.930 . S
C2106 C2105 1.362 . S
C2106 C2109 1.409 . S
C2107 H2099 0.930 . S
C2107 C2108 1.355 . S
C2107 C2109 1.415 . S
C2108 C2107 1.355 . S
C2108 C2110 1.419 . S
C2109 C2104 1.425 . S
C2109 C2106 1.409 . S
C2109 C2107 1.415 . S
C2110 H2100 0.930 . S
C2110 C2108 1.419 . S
C2110 C2111 1.362 . S
C2111 H2101 0.930 . S
C2111 C2104 1.409 . S
C2111 C2110 1.362 . S
H2112 C2118 0.930 . S
H2113 C2121 0.930 . S
H2114 C2122 0.930 . S
H2115 C2123 0.930 . S
H2116 C2126 0.930 . S
H2117 C2127 0.930 . S
C2118 H2112 0.930 . S
C2118 C2119 1.355 . S
C2118 C2120 1.415 . S
C2119 C2118 1.355 . S
C2119 C2121 1.419 . S
C2120 C2118 1.415 . S
C2120 C2125 1.425 . S
C2120 C2127 1.409 . S
C2121 H2113 0.930 . S
C2121 C2119 1.419 . S
C2121 C2122 1.362 . S
C2122 H2114 0.930 . S
C2122 C2121 1.362 . S
C2122 C2125 1.409 . S
C2123 H2115 0.930 . S
C2123 C2124 1.355 . S
C2123 C2125 1.415 . S
C2124 C2123 1.355 . S
C2124 C2126 1.419 . S
C2125 C2120 1.425 . S
C2125 C2122 1.409 . S
C2125 C2123 1.415 . S
C2126 H2116 0.930 . S
C2126 C2124 1.419 . S
C2126 C2127 1.362 . S
C2127 H2117 0.930 . S
C2127 C2120 1.409 . S
C2127 C2126 1.362 . S
H2128 C2134 0.930 . S
H2129 C2137 0.930 . S
H2130 C2138 0.930 . S
H2131 C2139 0.930 . S
H2132 C2142 0.930 . S
H2133 C2143 0.930 . S
C2134 H2128 0.930 . S
C2134 C2135 1.355 . S
C2134 C2136 1.415 . S
C2135 C2134 1.355 . S
C2135 C2137 1.419 . S
C2136 C2134 1.415 . S
C2136 C2141 1.425 . S
C2136 C2143 1.409 . S
C2137 H2129 0.930 . S
C2137 C2135 1.419 . S
C2137 C2138 1.362 . S
C2138 H2130 0.930 . S
C2138 C2137 1.362 . S
C2138 C2141 1.409 . S
C2139 H2131 0.930 . S
C2139 C2140 1.355 . S
C2139 C2141 1.415 . S
C2140 C2139 1.355 . S
C2140 C2142 1.419 . S
C2141 C2136 1.425 . S
C2141 C2138 1.409 . S
C2141 C2139 1.415 . S
C2142 H2132 0.930 . S
C2142 C2140 1.419 . S
C2142 C2143 1.362 . S
C2143 H2133 0.930 . S
C2143 C2136 1.409 . S
C2143 C2142 1.362 . S
H2144 C2150 0.930 . S
H2145 C2153 0.930 . S
H2146 C2154 0.930 . S
H2147 C2155 0.930 . S
H2148 C2158 0.930 . S
H2149 C2159 0.930 . S
C2150 H2144 0.930 . S
C2150 C2151 1.355 . S
C2150 C2152 1.415 . S
C2151 C2150 1.355 . S
C2151 C2153 1.419 . S
C2152 C2150 1.415 . S
C2152 C2157 1.425 . S
C2152 C2159 1.409 . S
C2153 H2145 0.930 . S
C2153 C2151 1.419 . S
C2153 C2154 1.362 . S
C2154 H2146 0.930 . S
C2154 C2153 1.362 . S
C2154 C2157 1.409 . S
C2155 H2147 0.930 . S
C2155 C2156 1.355 . S
C2155 C2157 1.415 . S
C2156 C2155 1.355 . S
C2156 C2158 1.419 . S
C2157 C2152 1.425 . S
C2157 C2154 1.409 . S
C2157 C2155 1.415 . S
C2158 H2148 0.930 . S
C2158 C2156 1.419 . S
C2158 C2159 1.362 . S
C2159 H2149 0.930 . S
C2159 C2152 1.409 . S
C2159 C2158 1.362 . S
H2160 C2166 0.930 . S
H2161 C2169 0.930 . S
H2162 C2170 0.930 . S
H2163 C2171 0.930 . S
H2164 C2174 0.930 . S
H2165 C2175 0.930 . S
C2166 H2160 0.930 . S
C2166 C2167 1.355 . S
C2166 C2168 1.415 . S
C2167 C2166 1.355 . S
C2167 C2169 1.419 . S
C2168 C2166 1.415 . S
C2168 C2173 1.425 . S
C2168 C2175 1.409 . S
C2169 H2161 0.930 . S
C2169 C2167 1.419 . S
C2169 C2170 1.362 . S
C2170 H2162 0.930 . S
C2170 C2169 1.362 . S
C2170 C2173 1.409 . S
C2171 H2163 0.930 . S
C2171 C2172 1.355 . S
C2171 C2173 1.415 . S
C2172 C2171 1.355 . S
C2172 C2174 1.419 . S
C2173 C2168 1.425 . S
C2173 C2170 1.409 . S
C2173 C2171 1.415 . S
C2174 H2164 0.930 . S
C2174 C2172 1.419 . S
C2174 C2175 1.362 . S
C2175 H2165 0.930 . S
C2175 C2168 1.409 . S
C2175 C2174 1.362 . S
C647 C333 1.913 . S
C652 C5 1.960 . S
C663 C474 1.728 . S
C668 C28 1.572 . S
C679 C48 2.116 . S
C684 C433 2.105 . S
C695 C68 1.166 . S
C700 C445 1.335 . S
C711 C93 1.932 . S
C716 C345 1.946 . S
C727 C114 1.741 . S
C732 C368 1.623 . S
C743 C388 2.110 . S
C748 C133 2.143 . S
C759 C145 1.300 . S
C764 C408 1.171 . S
C775 C168 2.482 . S
C780 C13 2.460 . S
C791 C25 1.724 . S
C796 C193 1.671 . S
C807 C208 1.585 . S
C812 C45 1.590 . S
C823 C65 1.715 . S
C828 C222 1.709 . S
C839 C88 1.524 . S
C844 C245 1.618 . S
C855 C265 1.721 . S
C860 C102 1.697 . S
C871 C128 2.451 . S
C876 C293 2.470 . S
C887 C305 1.697 . S
C892 C153 1.681 . S
C903 C165 0.723 . S
C908 C325 0.702 . S
C919 C348 2.655 . S
C924 C253 2.679 . S
C935 C373 3.367 . S
C940 C273 3.379 . S
C951 C288 2.674 . S
C956 C393 2.634 . S
C967 C413 3.395 . S
C972 C313 3.375 . S
C983 C425 0.758 . S
C988 C205 0.686 . S
C999 C237 1.362 . S
C1004 C448 1.375 . S
C1015 C477 1.346 . S
C1020 C188 1.393 . S
C1031 C634 1.729 . S
C1036 C308 1.572 . S
C1047 C268 1.249 . S
C1052 C605 1.300 . S
C1063 C568 1.596 . S
C1068 C234 1.739 . S
C1079 C588 1.215 . S
C1084 C185 1.296 . S
C1095 C353 2.484 . S
C1100 C488 2.485 . S
C1111 C385 1.590 . S
C1116 C508 1.591 . S
C1127 C525 1.618 . S
C1132 C328 1.529 . S
C1143 C553 2.497 . S
C1148 C428 2.471 . S
C1159 C485 0.705 . S
C1164 C85 0.708 . S
C1175 C533 2.688 . S
C1180 C8 2.674 . S
C1191 C73 3.400 . S
C1196 C573 3.386 . S
C1207 C548 2.664 . S
C1212 C53 2.685 . S
C1223 C593 3.397 . S
C1228 C33 3.388 . S
C1239 C125 0.714 . S
C1244 C505 0.696 . S
C1255 C608 1.405 . S
C1260 C117 1.336 . S
C1271 C148 1.409 . S
C1276 C637 1.341 . S
C1287 C285 1.937 . S
C1292 C513 1.899 . S
C1303 C248 2.132 . S
C1308 C493 2.150 . S
C1319 C545 1.944 . S
C1324 C213 1.886 . S
C1335 C528 2.109 . S
C1340 C173 2.114 . S
C1351 C365 1.678 . S
C1356 C613 1.649 . S
C1367 C405 1.721 . S
C1372 C622 1.698 . S
C1383 C585 1.670 . S
C1388 C462 1.640 . S
C1399 C453 1.623 . S
C1404 C565 1.679 . S
C1415 C77 2.239 . S
C1420 C14 2.356 . S
C1431 C22 3.051 . S
C1436 C2 3.046 . S
C1447 C37 2.499 . S
C1452 C42 2.673 . S
C1463 C57 2.430 . S
C1468 C62 2.748 . S
C1479 C113 1.475 . S
C1484 C97 1.290 . S
C1495 C134 1.392 . S
C1500 C105 1.454 . S
C1511 C137 2.049 . S
C1516 C142 2.291 . S
C1527 C154 1.115 . S
C1532 C94 1.034 . S
C1543 C162 2.166 . S
C1548 C374 2.150 . S
C1559 C394 2.090 . S
C1564 C197 1.972 . S
C1575 C414 1.639 . S
C1580 C202 1.629 . S
C1591 C228 2.381 . S
C1596 C357 2.381 . S
C1607 C254 2.077 . S
C1612 C457 1.992 . S
C1623 C322 1.659 . S
C1628 C274 1.610 . S
C1639 C468 2.369 . S
C1644 C297 2.374 . S
C1655 C314 2.141 . S
C1660 C422 2.155 . S
C1671 C334 1.005 . S
C1676 C194 1.129 . S
C1687 C342 3.005 . S
C1692 C302 3.040 . S
C1703 C242 2.667 . S
C1708 C377 2.514 . S
C1719 C262 2.723 . S
C1724 C397 2.493 . S
C1735 C417 2.247 . S
C1740 C294 2.327 . S
C1751 C434 1.454 . S
C1756 C225 1.376 . S
C1767 C442 2.285 . S
C1772 C177 2.056 . S
C1783 C217 1.336 . S
C1788 C473 1.505 . S
C1799 C354 2.356 . S
C1804 C277 2.238 . S
C1815 C317 2.476 . S
C1820 C382 2.671 . S
C1831 C337 1.368 . S
C1836 C233 1.477 . S
C1847 C182 2.260 . S
C1852 C437 2.106 . S
C1863 C482 2.159 . S
C1868 C574 2.145 . S
C1879 C54 2.106 . S
C1884 C157 1.952 . S
C1895 C502 1.587 . S
C1900 C594 1.566 . S
C1911 C108 2.322 . S
C1916 C17 2.435 . S
C1927 C617 1.944 . S
C1932 C534 2.111 . S
C1943 C74 1.639 . S
C1948 C82 1.610 . S
C1959 C557 2.397 . S
C1964 C628 2.371 . S
C1975 C122 2.178 . S
C1980 C34 2.078 . S
C1991 C577 2.523 . S
C1996 C522 2.661 . S
C2007 C554 2.335 . S
C2012 C597 2.238 . S
C2023 C497 2.048 . S
C2028 C602 2.302 . S
C2039 C517 1.266 . S
C2044 C633 1.487 . S
C2055 C362 3.032 . S
C2060 C282 3.019 . S
C2071 C402 2.749 . S
C2076 C257 2.445 . S
C2087 C174 1.403 . S
C2092 C465 1.457 . S
C2103 C214 1.059 . S
C2108 C454 1.071 . S
C2119 C614 1.062 . S
C2124 C514 1.070 . S
C2135 C562 3.038 . S
C2140 C542 3.037 . S
C2151 C582 2.723 . S
C2156 C537 2.481 . S
C2167 C494 1.459 . S
C2172 C625 1.374 . S
