# Generated by pormake.
# Topology vbj, (5)-cn, num edge types: 1
# Building blocks:
#     Node 0, Type 0, BuildingBlock: BEQFEK_clean_sbu_0, # of connection points: 5
#     Node 1, Type 0, BuildingBlock: BEQFEK_clean_sbu_0, # of connection points: 5
#     Node 2, Type 0, BuildingBlock: BEQFEK_clean_sbu_0, # of connection points: 5
#     Node 3, Type 0, BuildingBlock: BEQFEK_clean_sbu_0, # of connection points: 5
#     Node 4, Type 0, BuildingBlock: BEQFEK_clean_sbu_0, # of connection points: 5
#     Node 5, Type 0, BuildingBlock: BEQFEK_clean_sbu_0, # of connection points: 5
#     Node 6, Type 0, BuildingBlock: BEQFEK_clean_sbu_0, # of connection points: 5
#     Node 7, Type 0, BuildingBlock: BEQFEK_clean_sbu_0, # of connection points: 5
#     Node 8, Type 0, BuildingBlock: BEQFEK_clean_sbu_0, # of connection points: 5
#     Node 9, Type 0, BuildingBlock: BEQFEK_clean_sbu_0, # of connection points: 5
#     Node 10, Type 0, BuildingBlock: BEQFEK_clean_sbu_0, # of connection points: 5
#     Node 11, Type 0, BuildingBlock: BEQFEK_clean_sbu_0, # of connection points: 5
#     Node 12, Type 0, BuildingBlock: BEQFEK_clean_sbu_0, # of connection points: 5
#     Node 13, Type 0, BuildingBlock: BEQFEK_clean_sbu_0, # of connection points: 5
#     Node 14, Type 0, BuildingBlock: BEQFEK_clean_sbu_0, # of connection points: 5
#     Node 15, Type 0, BuildingBlock: BEQFEK_clean_sbu_0, # of connection points: 5
#     Edge 16, Type (0, 0), BuildingBlock: MIFKUJ_clean_linker_0, # of connection points: 2
#     Edge 17, Type (0, 0), BuildingBlock: MIFKUJ_clean_linker_0, # of connection points: 2
#     Edge 18, Type (0, 0), BuildingBlock: MIFKUJ_clean_linker_0, # of connection points: 2
#     Edge 19, Type (0, 0), BuildingBlock: MIFKUJ_clean_linker_0, # of connection points: 2
#     Edge 20, Type (0, 0), BuildingBlock: MIFKUJ_clean_linker_0, # of connection points: 2
#     Edge 21, Type (0, 0), BuildingBlock: MIFKUJ_clean_linker_0, # of connection points: 2
#     Edge 22, Type (0, 0), BuildingBlock: MIFKUJ_clean_linker_0, # of connection points: 2
#     Edge 23, Type (0, 0), BuildingBlock: MIFKUJ_clean_linker_0, # of connection points: 2
#     Edge 24, Type (0, 0), BuildingBlock: MIFKUJ_clean_linker_0, # of connection points: 2
#     Edge 25, Type (0, 0), BuildingBlock: MIFKUJ_clean_linker_0, # of connection points: 2
#     Edge 26, Type (0, 0), BuildingBlock: MIFKUJ_clean_linker_0, # of connection points: 2
#     Edge 27, Type (0, 0), BuildingBlock: MIFKUJ_clean_linker_0, # of connection points: 2
#     Edge 28, Type (0, 0), BuildingBlock: MIFKUJ_clean_linker_0, # of connection points: 2
#     Edge 29, Type (0, 0), BuildingBlock: MIFKUJ_clean_linker_0, # of connection points: 2
#     Edge 30, Type (0, 0), BuildingBlock: MIFKUJ_clean_linker_0, # of connection points: 2
#     Edge 31, Type (0, 0), BuildingBlock: MIFKUJ_clean_linker_0, # of connection points: 2
#     Edge 32, Type (0, 0), BuildingBlock: MIFKUJ_clean_linker_0, # of connection points: 2
#     Edge 33, Type (0, 0), BuildingBlock: MIFKUJ_clean_linker_0, # of connection points: 2
#     Edge 34, Type (0, 0), BuildingBlock: MIFKUJ_clean_linker_0, # of connection points: 2
#     Edge 35, Type (0, 0), BuildingBlock: MIFKUJ_clean_linker_0, # of connection points: 2
#     Edge 36, Type (0, 0), BuildingBlock: MIFKUJ_clean_linker_0, # of connection points: 2
#     Edge 37, Type (0, 0), BuildingBlock: MIFKUJ_clean_linker_0, # of connection points: 2
#     Edge 38, Type (0, 0), BuildingBlock: MIFKUJ_clean_linker_0, # of connection points: 2
#     Edge 39, Type (0, 0), BuildingBlock: MIFKUJ_clean_linker_0, # of connection points: 2
#     Edge 40, Type (0, 0), BuildingBlock: MIFKUJ_clean_linker_0, # of connection points: 2
#     Edge 41, Type (0, 0), BuildingBlock: MIFKUJ_clean_linker_0, # of connection points: 2
#     Edge 42, Type (0, 0), BuildingBlock: MIFKUJ_clean_linker_0, # of connection points: 2
#     Edge 43, Type (0, 0), BuildingBlock: MIFKUJ_clean_linker_0, # of connection points: 2
#     Edge 44, Type (0, 0), BuildingBlock: MIFKUJ_clean_linker_0, # of connection points: 2
#     Edge 45, Type (0, 0), BuildingBlock: MIFKUJ_clean_linker_0, # of connection points: 2
#     Edge 46, Type (0, 0), BuildingBlock: MIFKUJ_clean_linker_0, # of connection points: 2
#     Edge 47, Type (0, 0), BuildingBlock: MIFKUJ_clean_linker_0, # of connection points: 2
#     Edge 48, Type (0, 0), BuildingBlock: MIFKUJ_clean_linker_0, # of connection points: 2
#     Edge 49, Type (0, 0), BuildingBlock: MIFKUJ_clean_linker_0, # of connection points: 2
#     Edge 50, Type (0, 0), BuildingBlock: MIFKUJ_clean_linker_0, # of connection points: 2
#     Edge 51, Type (0, 0), BuildingBlock: MIFKUJ_clean_linker_0, # of connection points: 2
#     Edge 52, Type (0, 0), BuildingBlock: MIFKUJ_clean_linker_0, # of connection points: 2
#     Edge 53, Type (0, 0), BuildingBlock: MIFKUJ_clean_linker_0, # of connection points: 2
#     Edge 54, Type (0, 0), BuildingBlock: MIFKUJ_clean_linker_0, # of connection points: 2
#     Edge 55, Type (0, 0), BuildingBlock: MIFKUJ_clean_linker_0, # of connection points: 2
# Relax obj value: 0.124
# Max RMSD: 0.143
# Mean RMSD: 0.143
data_MOF--net-vbj--node1-BEQFEK_clean_sbu_0--edge1-MIFKUJ_clean_linker_0
_symmetry_space_group_name_H-M    P1
_symmetry_Int_Tables_number       1
_symmetry_cell_setting            triclinic
loop_
_symmetry_equiv_pos_as_xyz
'x, y, z'
_cell_length_a     32.624854
_cell_length_b     89.914341
_cell_length_c     58.174542
_cell_angle_alpha  89.988811
_cell_angle_beta   90.001177
_cell_angle_gamma 90.031556
loop_
_atom_site_label
_atom_site_type_symbol
_atom_site_fract_x
_atom_site_fract_y
_atom_site_fract_z
_atom_type_partial_charge
Co0 Co 0.1166 0.15531 0.10084 0.0
Co1 Co 0.13069 0.12067 0.09469 0.0
C2 C 0.09191 0.13305 0.13681 0.0
O3 O 0.09511 0.14628 0.12919 0.0
O4 O 0.10468 0.1219 0.12535 0.0
C5 C 0.11174 0.18482 0.12133 0.0
O6 O 0.12106 0.17826 0.14082 0.0
C7 C 0.16142 0.08942 0.10063 0.0
C8 C 0.15381 0.08127 0.06507 0.0
C9 C 0.16647 0.07689 0.08676 0.0
N10 N 0.14666 0.1006 0.08756 0.0
N11 N 0.14231 0.09558 0.06636 0.0
C12 C 0.16886 0.09064 0.12593 0.0
H13 H 0.15165 0.1001 0.13333 0.0
H14 H 0.20199 0.09261 0.12897 0.0
H15 H 0.15991 0.08018 0.13475 0.0
C16 C 0.20439 0.15583 0.08933 0.0
N17 N 0.16993 0.14847 0.09487 0.0
N18 N 0.176 0.13407 0.09239 0.0
C19 C 0.21478 0.13183 0.08532 0.0
C20 C 0.23406 0.14557 0.08302 0.0
C21 C 0.20734 0.17242 0.08812 0.0
H22 H 0.18741 0.17653 0.07402 0.0
H23 H 0.19597 0.17729 0.10443 0.0
H24 H 0.23935 0.17612 0.08509 0.0
O25 O 0.08084 0.15007 0.07515 0.0
O26 O 0.08825 0.12567 0.07153 0.0
H27 H 0.21128 0.11292 0.06318 0.0
H28 H 0.26275 0.11746 0.07166 0.0
C29 C 0.23054 0.11702 0.07753 0.0
H30 H 0.22825 0.10897 0.0919 0.0
H31 H 0.1312 0.10195 0.0527 0.0
O32 O 0.11137 0.17726 0.10287 0.0
C33 C 0.07188 0.13787 0.0654 0.0
Co34 Co 0.3982 0.85472 0.10643 0.0
Co35 Co 0.37481 0.88807 0.09564 0.0
C36 C 0.39823 0.87802 0.14304 0.0
O37 O 0.40229 0.86456 0.13656 0.0
O38 O 0.38877 0.88831 0.12892 0.0
C39 C 0.40214 0.82391 0.12498 0.0
O40 O 0.37662 0.82776 0.14139 0.0
C41 C 0.335 0.91765 0.09958 0.0
C42 C 0.3381 0.92547 0.06362 0.0
C43 C 0.32483 0.92951 0.08535 0.0
N44 N 0.35342 0.90711 0.08679 0.0
N45 N 0.3554 0.91194 0.06535 0.0
C46 C 0.32525 0.9159 0.12455 0.0
H47 H 0.31922 0.90403 0.12858 0.0
H48 H 0.29825 0.92272 0.12941 0.0
H49 H 0.352 0.9196 0.13484 0.0
C50 C 0.31588 0.84969 0.08596 0.0
N51 N 0.34637 0.85863 0.09325 0.0
N52 N 0.33618 0.8726 0.08945 0.0
C53 C 0.29856 0.87299 0.07999 0.0
C54 C 0.28441 0.8585 0.07748 0.0
C55 C 0.31733 0.83308 0.08698 0.0
H56 H 0.31937 0.82954 0.1052 0.0
H57 H 0.28976 0.82797 0.07909 0.0
H58 H 0.34532 0.82907 0.07809 0.0
O59 O 0.44156 0.862 0.086 0.0
O60 O 0.42494 0.88512 0.07675 0.0
H61 H 0.24718 0.88497 0.06486 0.0
H62 H 0.27679 0.89512 0.08576 0.0
C63 C 0.27844 0.88693 0.07156 0.0
H64 H 0.29719 0.89175 0.05754 0.0
H65 H 0.36831 0.90591 0.05182 0.0
O66 O 0.41172 0.83324 0.10947 0.0
C67 C 0.44866 0.87395 0.07506 0.0
Co68 Co 0.60815 0.85134 0.39011 0.0
Co69 Co 0.62507 0.88517 0.40083 0.0
C70 C 0.57905 0.8761 0.35921 0.0
O71 O 0.58297 0.86244 0.36447 0.0
O72 O 0.59408 0.88629 0.37178 0.0
C73 C 0.61367 0.82042 0.37002 0.0
O74 O 0.64595 0.8238 0.3576 0.0
C75 C 0.66168 0.91512 0.39512 0.0
C76 C 0.65095 0.92479 0.42951 0.0
C77 C 0.66736 0.92791 0.4081 0.0
N78 N 0.64311 0.90485 0.40838 0.0
N79 N 0.6368 0.91074 0.42889 0.0
C80 C 0.67173 0.91297 0.37024 0.0
H81 H 0.65802 0.90254 0.36361 0.0
H82 H 0.70543 0.91234 0.36802 0.0
H83 H 0.66057 0.92262 0.36012 0.0
C84 C 0.69765 0.84957 0.39984 0.0
N85 N 0.66318 0.85729 0.39519 0.0
N86 N 0.67009 0.87157 0.39886 0.0
C87 C 0.7094 0.87334 0.40533 0.0
C88 C 0.72809 0.85953 0.40609 0.0
C89 C 0.69946 0.83302 0.40228 0.0
H90 H 0.66883 0.82852 0.4067 0.0
H91 H 0.70963 0.82813 0.38574 0.0
H92 H 0.72189 0.82972 0.41569 0.0
O93 O 0.57731 0.85497 0.41837 0.0
O94 O 0.58726 0.87889 0.42595 0.0
H95 H 0.70894 0.89196 0.42833 0.0
H96 H 0.75967 0.88637 0.41936 0.0
C97 C 0.72738 0.88768 0.41375 0.0
H98 H 0.72671 0.89596 0.39971 0.0
H99 H 0.62251 0.90518 0.44248 0.0
O100 O 0.59791 0.82998 0.38346 0.0
C101 C 0.57135 0.86634 0.43086 0.0
Co102 Co 0.88278 0.14965 0.38876 0.0
Co103 Co 0.88333 0.11458 0.39469 0.0
C104 C 0.88378 0.12899 0.34837 0.0
O105 O 0.88286 0.14204 0.35691 0.0
O106 O 0.88448 0.11747 0.36109 0.0
C107 C 0.88753 0.17965 0.37114 0.0
O108 O 0.88789 0.17298 0.35106 0.0
C109 C 0.85389 0.08353 0.39046 0.0
C110 C 0.89068 0.07231 0.41722 0.0
C111 C 0.86146 0.06979 0.40043 0.0
N112 N 0.87744 0.09377 0.40101 0.0
N113 N 0.89935 0.08695 0.41696 0.0
C114 C 0.8269 0.08673 0.37025 0.0
H115 H 0.82231 0.09888 0.3682 0.0
H116 H 0.79679 0.08117 0.37229 0.0
H117 H 0.84149 0.08223 0.35449 0.0
C118 C 0.80811 0.14632 0.41718 0.0
N119 N 0.84036 0.14058 0.40585 0.0
N120 N 0.84034 0.126 0.40822 0.0
C121 C 0.8078 0.12199 0.42105 0.0
C122 C 0.78637 0.13473 0.42719 0.0
C123 C 0.79981 0.16264 0.41918 0.0
H124 H 0.8288 0.16862 0.42289 0.0
H125 H 0.78789 0.1668 0.40251 0.0
H126 H 0.77726 0.16507 0.43294 0.0
O127 O 0.93505 0.14504 0.40345 0.0
O128 O 0.93692 0.12057 0.40795 0.0
H129 H 0.82167 0.10062 0.4353 0.0
H130 H 0.76767 0.10521 0.43606 0.0
C131 C 0.7963 0.10618 0.42597 0.0
H132 H 0.79149 0.10028 0.40951 0.0
H133 H 0.92053 0.09229 0.4276 0.0
O134 O 0.88197 0.17191 0.3892 0.0
C135 C 0.95313 0.13335 0.41028 0.0
Co136 Co 0.89503 0.85287 0.88978 0.0
Co137 Co 0.89194 0.8874 0.8979 0.0
C138 C 0.90741 0.87376 0.85115 0.0
O139 O 0.90374 0.86049 0.85846 0.0
O140 O 0.90435 0.88485 0.86468 0.0
C141 C 0.89664 0.82262 0.87216 0.0
O142 O 0.89001 0.82859 0.85189 0.0
C143 C 0.85484 0.91702 0.89216 0.0
C144 C 0.88903 0.93018 0.91788 0.0
C145 C 0.85856 0.9312 0.90137 0.0
N146 N 0.88166 0.90803 0.90292 0.0
N147 N 0.90202 0.91599 0.91823 0.0
C148 C 0.82826 0.91225 0.87251 0.0
H149 H 0.83882 0.90149 0.86538 0.0
H150 H 0.79626 0.91084 0.87852 0.0
H151 H 0.82832 0.9209 0.85889 0.0
C152 C 0.81197 0.85502 0.91067 0.0
N153 N 0.84689 0.86117 0.90276 0.0
N154 N 0.8462 0.87559 0.90678 0.0
C155 C 0.81128 0.879 0.91792 0.0
C156 C 0.78811 0.86616 0.92038 0.0
C157 C 0.80218 0.83881 0.90912 0.0
H158 H 0.81287 0.83434 0.89239 0.0
H159 H 0.76879 0.8368 0.91106 0.0
H160 H 0.81874 0.83282 0.92297 0.0
O161 O 0.94281 0.85775 0.90913 0.0
O162 O 0.93984 0.88187 0.91681 0.0
H163 H 0.83174 0.89906 0.9345 0.0
H164 H 0.78247 0.89253 0.94407 0.0
C165 C 0.80277 0.89376 0.92889 0.0
H166 H 0.78725 0.90111 0.91634 0.0
H167 H 0.92491 0.91173 0.92892 0.0
O168 O 0.89598 0.83082 0.88996 0.0
C169 C 0.9569 0.86924 0.91907 0.0
Co170 Co 0.60827 0.149 0.89072 0.0
Co171 Co 0.61902 0.11432 0.8973 0.0
C172 C 0.6057 0.12781 0.85108 0.0
O173 O 0.60598 0.14089 0.8594 0.0
O174 O 0.60933 0.1164 0.86386 0.0
C175 C 0.57406 0.17541 0.87642 0.0
O176 O 0.55217 0.16538 0.86552 0.0
C177 C 0.65335 0.08378 0.8929 0.0
C178 C 0.62508 0.07296 0.92311 0.0
C179 C 0.65025 0.0703 0.90442 0.0
N180 N 0.63112 0.09398 0.9044 0.0
N181 N 0.61447 0.0874 0.92245 0.0
C182 C 0.67525 0.08666 0.87073 0.0
H183 H 0.66705 0.09769 0.86364 0.0
H184 H 0.70881 0.08644 0.8737 0.0
H185 H 0.66785 0.07779 0.85813 0.0
C186 C 0.68593 0.149 0.91722 0.0
N187 N 0.65548 0.14195 0.90604 0.0
N188 N 0.66082 0.12746 0.90782 0.0
C189 C 0.69524 0.12485 0.91988 0.0
C190 C 0.71209 0.13838 0.92647 0.0
C191 C 0.68762 0.16549 0.92054 0.0
H192 H 0.65626 0.16991 0.9233 0.0
H193 H 0.70015 0.1707 0.90474 0.0
H194 H 0.70728 0.16855 0.93536 0.0
O195 O 0.55932 0.14293 0.90779 0.0
O196 O 0.56788 0.1188 0.91419 0.0
H197 H 0.69181 0.10377 0.93684 0.0
H198 H 0.74371 0.11 0.93129 0.0
C199 C 0.71201 0.10963 0.92446 0.0
H200 H 0.71246 0.10324 0.90824 0.0
H201 H 0.59528 0.09274 0.93421 0.0
O202 O 0.60392 0.17108 0.88882 0.0
C203 C 0.54734 0.13072 0.91648 0.0
Co204 Co 0.38339 0.15595 0.59827 0.0
Co205 Co 0.36177 0.12173 0.59515 0.0
C206 C 0.40149 0.13416 0.6365 0.0
O207 O 0.40207 0.14708 0.6275 0.0
O208 O 0.38599 0.12308 0.62604 0.0
C209 C 0.39235 0.18537 0.61814 0.0
O210 O 0.38125 0.17901 0.63749 0.0
C211 C 0.3259 0.09138 0.60249 0.0
C212 C 0.33286 0.08235 0.56739 0.0
C213 C 0.31942 0.07868 0.58924 0.0
N214 N 0.34234 0.10199 0.58892 0.0
N215 N 0.34619 0.09647 0.56799 0.0
C216 C 0.31817 0.09323 0.62767 0.0
H217 H 0.33632 0.10256 0.63474 0.0
H218 H 0.28524 0.09576 0.63038 0.0
H219 H 0.32565 0.08283 0.63704 0.0
C220 C 0.29841 0.15837 0.58224 0.0
N221 N 0.32915 0.15042 0.5915 0.0
N222 N 0.31959 0.13619 0.59095 0.0
C223 C 0.28175 0.13473 0.58203 0.0
C224 C 0.26732 0.14869 0.57583 0.0
C225 C 0.30195 0.17447 0.57609 0.0
H226 H 0.32722 0.17594 0.56352 0.0
H227 H 0.30987 0.18095 0.59169 0.0
H228 H 0.27295 0.17879 0.56866 0.0
O229 O 0.41863 0.14917 0.57331 0.0
O230 O 0.40644 0.12488 0.57242 0.0
H231 H 0.27971 0.1154 0.56066 0.0
H232 H 0.23021 0.12138 0.57082 0.0
C233 C 0.26294 0.12013 0.57554 0.0
H234 H 0.26524 0.11229 0.59017 0.0
H235 H 0.3584 0.10234 0.55409 0.0
O236 O 0.39246 0.17778 0.5997 0.0
C237 C 0.42528 0.13633 0.56509 0.0
Co238 Co 0.10505 0.85496 0.59023 0.0
Co239 Co 0.12003 0.88962 0.58682 0.0
C240 C 0.07525 0.8769 0.62627 0.0
O241 O 0.07896 0.86389 0.61781 0.0
O242 O 0.09033 0.88824 0.61625 0.0
C243 C 0.09365 0.82607 0.61111 0.0
O244 O 0.09634 0.83349 0.6305 0.0
C245 C 0.14852 0.9205 0.59604 0.0
C246 C 0.15671 0.92865 0.56049 0.0
C247 C 0.16101 0.93278 0.58329 0.0
N248 N 0.13759 0.90962 0.58133 0.0
N249 N 0.14214 0.91467 0.56016 0.0
C250 C 0.15019 0.9186 0.62156 0.0
H251 H 0.1541 0.90669 0.62604 0.0
H252 H 0.17565 0.92522 0.62902 0.0
H253 H 0.12092 0.92255 0.62912 0.0
C254 C 0.19401 0.85462 0.58098 0.0
N255 N 0.15927 0.8618 0.58672 0.0
N256 N 0.16577 0.87626 0.58624 0.0
C257 C 0.2054 0.8787 0.58104 0.0
C258 C 0.2245 0.86513 0.57701 0.0
C259 C 0.19563 0.83831 0.57594 0.0
H260 H 0.16771 0.83493 0.56637 0.0
H261 H 0.19591 0.8321 0.59243 0.0
H262 H 0.22317 0.83526 0.56583 0.0
O263 O 0.07463 0.86046 0.56266 0.0
O264 O 0.08148 0.88503 0.56116 0.0
H265 H 0.21416 0.89905 0.56266 0.0
H266 H 0.25838 0.89311 0.5789 0.0
C267 C 0.22441 0.89379 0.57891 0.0
H268 H 0.21459 0.90085 0.59349 0.0
H269 H 0.13615 0.90841 0.54541 0.0
O270 O 0.09952 0.83289 0.59224 0.0
C271 C 0.06728 0.8729 0.55321 0.0
Co272 Co 0.60361 0.65077 0.10902 0.0
Co273 Co 0.61523 0.61676 0.09733 0.0
C274 C 0.58769 0.62736 0.14391 0.0
O275 O 0.58957 0.64105 0.1383 0.0
O276 O 0.59669 0.61709 0.12972 0.0
C277 C 0.60187 0.68086 0.12948 0.0
O278 O 0.61431 0.67497 0.14893 0.0
C279 C 0.65428 0.58711 0.10031 0.0
C280 C 0.62176 0.57515 0.07258 0.0
C281 C 0.65069 0.57334 0.08974 0.0
N282 N 0.6286 0.59665 0.08979 0.0
N283 N 0.60948 0.58942 0.07316 0.0
C284 C 0.67902 0.59084 0.12116 0.0
H285 H 0.67296 0.60242 0.12681 0.0
H286 H 0.71211 0.58959 0.11724 0.0
H287 H 0.6715 0.58295 0.13522 0.0
C288 C 0.68928 0.65168 0.09193 0.0
N289 N 0.65525 0.64419 0.09807 0.0
N290 N 0.65974 0.63004 0.09271 0.0
C291 C 0.69642 0.62813 0.08258 0.0
C292 C 0.71664 0.64173 0.08207 0.0
C293 C 0.69434 0.66812 0.09449 0.0
H294 H 0.68403 0.67158 0.11185 0.0
H295 H 0.7267 0.67154 0.09189 0.0
H296 H 0.67466 0.67384 0.08168 0.0
O297 O 0.56074 0.64608 0.08637 0.0
O298 O 0.56949 0.62242 0.07697 0.0
H299 H 0.73128 0.6165 0.05641 0.0
H300 H 0.72333 0.60646 0.0828 0.0
C301 C 0.70895 0.61419 0.07033 0.0
H302 H 0.6818 0.6087 0.06266 0.0
H303 H 0.58732 0.59415 0.06247 0.0
O304 O 0.59868 0.67274 0.11169 0.0
C305 C 0.5506 0.6347 0.07478 0.0
Co306 Co 0.89188 0.35521 0.11068 0.0
Co307 Co 0.88449 0.3887 0.09488 0.0
C308 C 0.9179 0.38021 0.14104 0.0
O309 O 0.91209 0.36644 0.13731 0.0
O310 O 0.90883 0.38999 0.12607 0.0
C311 C 0.92738 0.32963 0.12747 0.0
O312 O 0.95349 0.34002 0.13361 0.0
C313 C 0.84859 0.41869 0.09714 0.0
C314 C 0.87431 0.42925 0.06602 0.0
C315 C 0.84954 0.43195 0.08491 0.0
N316 N 0.87151 0.40861 0.08589 0.0
N317 N 0.88672 0.41499 0.06729 0.0
C318 C 0.82884 0.41593 0.11998 0.0
H319 H 0.8403 0.40546 0.12772 0.0
H320 H 0.79521 0.41496 0.11776 0.0
H321 H 0.83483 0.42543 0.1317 0.0
C322 C 0.80403 0.35537 0.09828 0.0
N323 N 0.83998 0.36235 0.10174 0.0
N324 N 0.83705 0.37623 0.09461 0.0
C325 C 0.79924 0.37842 0.08598 0.0
C326 C 0.77687 0.36535 0.08836 0.0
C327 C 0.79709 0.33921 0.10294 0.0
H328 H 0.81235 0.33257 0.08934 0.0
H329 H 0.81111 0.33615 0.11966 0.0
H330 H 0.76388 0.33651 0.10314 0.0
O331 O 0.93027 0.35748 0.08502 0.0
O332 O 0.92595 0.38082 0.07301 0.0
H333 H 0.81389 0.39599 0.06229 0.0
H334 H 0.76231 0.38917 0.05979 0.0
C335 C 0.78722 0.39178 0.07211 0.0
H336 H 0.77627 0.40064 0.08381 0.0
H337 H 0.90607 0.40967 0.05559 0.0
O338 O 0.89421 0.3335 0.1176 0.0
C339 C 0.94112 0.36781 0.07144 0.0
Co340 Co 0.10311 0.35157 0.39054 0.0
Co341 Co 0.11914 0.38505 0.4054 0.0
C342 C 0.08603 0.3771 0.35897 0.0
O343 O 0.08783 0.36318 0.36299 0.0
O344 O 0.09623 0.38666 0.37406 0.0
C345 C 0.07078 0.32521 0.37017 0.0
O346 O 0.05156 0.33507 0.35747 0.0
C347 C 0.15409 0.4158 0.4045 0.0
C348 C 0.14163 0.42274 0.44024 0.0
C349 C 0.15807 0.42774 0.41967 0.0
N350 N 0.13623 0.40438 0.41576 0.0
N351 N 0.12906 0.40866 0.43711 0.0
C352 C 0.16529 0.41541 0.37956 0.0
H353 H 0.14976 0.40613 0.37064 0.0
H354 H 0.19883 0.41369 0.37791 0.0
H355 H 0.15724 0.42611 0.37116 0.0
C356 C 0.19136 0.3494 0.40266 0.0
N357 N 0.15652 0.35721 0.39986 0.0
N358 N 0.1631 0.37116 0.40581 0.0
C359 C 0.20224 0.37264 0.41268 0.0
C360 C 0.22163 0.35894 0.41068 0.0
C361 C 0.19496 0.33306 0.39835 0.0
H362 H 0.18041 0.33027 0.38166 0.0
H363 H 0.22749 0.32945 0.39823 0.0
H364 H 0.1782 0.32696 0.41201 0.0
O365 O 0.06372 0.35544 0.41544 0.0
O366 O 0.07577 0.37855 0.42688 0.0
H367 H 0.19712 0.39056 0.43669 0.0
H368 H 0.24891 0.38461 0.43205 0.0
C369 C 0.21897 0.38647 0.42358 0.0
H370 H 0.22256 0.39518 0.41024 0.0
H371 H 0.11511 0.40198 0.44954 0.0
O372 O 0.09714 0.3297 0.38476 0.0
C373 C 0.05624 0.36636 0.42866 0.0
Co374 Co 0.39684 0.65012 0.39343 0.0
Co375 Co 0.36735 0.61749 0.40489 0.0
C376 C 0.40459 0.62494 0.3597 0.0
O377 O 0.40783 0.6386 0.3653 0.0
O378 O 0.39035 0.61525 0.37356 0.0
C379 C 0.40212 0.68017 0.37244 0.0
O380 O 0.37488 0.67604 0.35709 0.0
C381 C 0.32802 0.58764 0.40251 0.0
C382 C 0.31753 0.58329 0.43943 0.0
C383 C 0.31225 0.57718 0.41777 0.0
N384 N 0.34193 0.59935 0.4147 0.0
N385 N 0.3357 0.5966 0.43673 0.0
C386 C 0.3275 0.58708 0.37682 0.0
H387 H 0.3235 0.59843 0.3697 0.0
H388 H 0.3025 0.57977 0.37051 0.0
H389 H 0.35727 0.58266 0.37063 0.0
C390 C 0.31089 0.65678 0.40694 0.0
N391 N 0.34188 0.64731 0.40249 0.0
N392 N 0.32899 0.63355 0.40556 0.0
C393 C 0.28894 0.63387 0.41102 0.0
C394 C 0.27624 0.64854 0.41217 0.0
C395 C 0.31491 0.67335 0.40714 0.0
H396 H 0.34521 0.67659 0.41421 0.0
H397 H 0.31286 0.67752 0.38924 0.0
H398 H 0.29008 0.67859 0.41735 0.0
O399 O 0.43351 0.64359 0.41791 0.0
O400 O 0.41231 0.62101 0.42739 0.0
H401 H 0.27183 0.61644 0.43407 0.0
H402 H 0.23062 0.62297 0.41615 0.0
C403 C 0.26382 0.62042 0.4166 0.0
H404 H 0.27029 0.61147 0.40406 0.0
H405 H 0.34368 0.60389 0.44997 0.0
O406 O 0.41267 0.67122 0.38828 0.0
C407 C 0.43636 0.63199 0.43023 0.0
Co408 Co 0.39839 0.3529 0.89583 0.0
Co409 Co 0.38219 0.38698 0.90492 0.0
C410 C 0.40715 0.3756 0.85859 0.0
O411 O 0.40811 0.36214 0.86549 0.0
O412 O 0.39777 0.38623 0.87208 0.0
C413 C 0.4016 0.3227 0.87657 0.0
O414 O 0.38902 0.3285 0.85708 0.0
C415 C 0.34519 0.41688 0.90015 0.0
C416 C 0.35865 0.42643 0.93432 0.0
C417 C 0.34003 0.42962 0.91347 0.0
N418 N 0.36578 0.40675 0.91267 0.0
N419 N 0.37397 0.41259 0.93298 0.0
C420 C 0.32815 0.41378 0.87676 0.0
H421 H 0.32532 0.40162 0.87395 0.0
H422 H 0.29774 0.41914 0.87465 0.0
H423 H 0.34931 0.41835 0.8636 0.0
C424 C 0.31566 0.35076 0.9166 0.0
N425 N 0.34716 0.35873 0.9081 0.0
N426 N 0.34012 0.37299 0.91149 0.0
C427 C 0.30372 0.37455 0.92207 0.0
C428 C 0.28716 0.36054 0.92585 0.0
C429 C 0.31555 0.33414 0.91809 0.0
H430 H 0.34417 0.33035 0.92655 0.0
H431 H 0.31523 0.32944 0.90046 0.0
H432 H 0.28877 0.3299 0.92782 0.0
O433 O 0.44224 0.35893 0.91685 0.0
O434 O 0.4305 0.3827 0.92449 0.0
H435 H 0.30456 0.39424 0.94266 0.0
H436 H 0.25358 0.388 0.93506 0.0
C437 C 0.28559 0.38918 0.92891 0.0
H438 H 0.28561 0.39677 0.91392 0.0
H439 H 0.38961 0.40702 0.94608 0.0
O440 O 0.40501 0.33095 0.8942 0.0
C441 C 0.45141 0.3709 0.92723 0.0
Co442 Co 0.09763 0.64921 0.89208 0.0
Co443 Co 0.10776 0.61473 0.89964 0.0
C444 C 0.09629 0.62809 0.85274 0.0
O445 O 0.09536 0.64126 0.86077 0.0
O446 O 0.10009 0.61679 0.86581 0.0
C447 C 0.10262 0.68091 0.87741 0.0
O448 O 0.12724 0.67721 0.86049 0.0
C449 C 0.14552 0.58479 0.89631 0.0
C450 C 0.11704 0.57376 0.92626 0.0
C451 C 0.14434 0.57139 0.90837 0.0
N452 N 0.12018 0.59449 0.90676 0.0
N453 N 0.10314 0.58777 0.92454 0.0
C454 C 0.17192 0.58882 0.87624 0.0
H455 H 0.17542 0.60108 0.87504 0.0
H456 H 0.20251 0.58351 0.87779 0.0
H457 H 0.15713 0.58483 0.86021 0.0
C458 C 0.17806 0.64944 0.91583 0.0
N459 N 0.14537 0.64232 0.907 0.0
N460 N 0.14948 0.62789 0.91034 0.0
C461 C 0.18471 0.62541 0.92174 0.0
C462 C 0.2042 0.63894 0.92535 0.0
C463 C 0.18432 0.6659 0.91443 0.0
H464 H 0.16091 0.67154 0.92516 0.0
H465 H 0.17985 0.6696 0.89643 0.0
H466 H 0.2154 0.6692 0.92024 0.0
O467 O 0.04882 0.64303 0.90932 0.0
O468 O 0.05609 0.61897 0.91608 0.0
H469 H 0.17087 0.6046 0.93797 0.0
H470 H 0.22119 0.61158 0.94443 0.0
C471 C 0.19768 0.61054 0.93076 0.0
H472 H 0.21049 0.60383 0.91647 0.0
H473 H 0.08228 0.59281 0.9357 0.0
O474 O 0.09089 0.67112 0.89172 0.0
C475 C 0.03604 0.63099 0.91815 0.0
Co476 Co 0.88834 0.65402 0.59612 0.0
Co477 Co 0.8839 0.61933 0.58759 0.0
C478 C 0.92416 0.63195 0.6292 0.0
O479 O 0.91711 0.64521 0.62265 0.0
O480 O 0.9122 0.6208 0.61751 0.0
C481 C 0.89861 0.68268 0.61779 0.0
O482 O 0.90539 0.67476 0.63637 0.0
C483 C 0.85283 0.58878 0.59469 0.0
C484 C 0.87854 0.57718 0.56447 0.0
C485 C 0.85511 0.57501 0.58402 0.0
N486 N 0.87379 0.59868 0.58191 0.0
N487 N 0.88906 0.59165 0.56389 0.0
C488 C 0.83377 0.59225 0.61744 0.0
H489 H 0.83759 0.6042 0.62173 0.0
H490 H 0.80069 0.58942 0.61714 0.0
H491 H 0.84833 0.58531 0.63095 0.0
C492 C 0.79871 0.65105 0.5902 0.0
N493 N 0.83635 0.6451 0.59224 0.0
N494 N 0.83453 0.63075 0.58764 0.0
C495 C 0.79569 0.62722 0.58199 0.0
C496 C 0.77155 0.6399 0.58379 0.0
C497 C 0.78979 0.66726 0.5929 0.0
H498 H 0.80618 0.67165 0.60818 0.0
H499 H 0.7564 0.6693 0.59475 0.0
H500 H 0.80133 0.67331 0.57758 0.0
O501 O 0.92111 0.65087 0.56825 0.0
O502 O 0.92131 0.62641 0.56307 0.0
H503 H 0.80907 0.60806 0.56114 0.0
H504 H 0.75674 0.61414 0.55958 0.0
C505 C 0.78336 0.61275 0.57121 0.0
H506 H 0.77461 0.60478 0.58489 0.0
H507 H 0.90698 0.59672 0.55124 0.0
O508 O 0.88729 0.67612 0.59948 0.0
C509 C 0.93247 0.63942 0.55717 0.0
Co510 Co 0.59728 0.35828 0.60334 0.0
Co511 Co 0.60967 0.3922 0.59147 0.0
C512 C 0.58113 0.38154 0.63806 0.0
O513 O 0.58416 0.3679 0.6325 0.0
O514 O 0.58898 0.39191 0.62377 0.0
C515 C 0.59913 0.32718 0.62183 0.0
O516 O 0.62203 0.33136 0.63923 0.0
C517 C 0.65031 0.42151 0.59601 0.0
C518 C 0.62334 0.43368 0.56669 0.0
C519 C 0.64994 0.43526 0.58508 0.0
N520 N 0.62518 0.41225 0.5845 0.0
N521 N 0.6093 0.41961 0.56697 0.0
C522 C 0.67175 0.41751 0.61789 0.0
H523 H 0.65913 0.40706 0.62516 0.0
H524 H 0.70483 0.41583 0.61444 0.0
H525 H 0.66877 0.4267 0.63053 0.0
C526 C 0.68339 0.35693 0.58727 0.0
N527 N 0.64926 0.36452 0.59278 0.0
N528 N 0.65428 0.37866 0.58742 0.0
C529 C 0.69159 0.38042 0.57789 0.0
C530 C 0.71145 0.36676 0.57774 0.0
C531 C 0.68832 0.34054 0.5907 0.0
H532 H 0.66655 0.33455 0.57934 0.0
H533 H 0.68057 0.33769 0.60871 0.0
H534 H 0.72006 0.33682 0.58705 0.0
O535 O 0.55564 0.36336 0.58035 0.0
O536 O 0.56503 0.3868 0.56989 0.0
H537 H 0.67921 0.39996 0.55779 0.0
H538 H 0.72907 0.39202 0.55288 0.0
C539 C 0.70553 0.39437 0.56614 0.0
H540 H 0.71895 0.40201 0.57906 0.0
H541 H 0.58836 0.41508 0.55533 0.0
O542 O 0.58943 0.33646 0.60628 0.0
C543 C 0.54609 0.3745 0.56807 0.0
H544 H 0.48122 0.14898 0.91332 0.0
H545 H 0.42697 0.15219 0.94185 0.0
H546 H 0.47939 0.11694 0.98277 0.0
H547 H 0.53247 0.11318 0.95368 0.0
H548 H 0.3999 0.116 0.98589 0.0
H549 H 0.50131 0.15483 0.99236 0.0
H550 H 0.54409 0.17532 0.97751 0.0
H551 H 0.43597 0.20024 0.9606 0.0
H552 H 0.39252 0.1798 0.97505 0.0
H553 H 0.31128 0.13558 0.09133 0.0
H554 H 0.36775 0.13483 0.06346 0.0
H555 H 0.29624 0.16108 0.0161 0.0
H556 H 0.23943 0.16145 0.04356 0.0
H557 H 0.38598 0.16715 0.01721 0.0
H558 H 0.2858 0.12756 0.00726 0.0
H559 H 0.24239 0.10705 0.0215 0.0
H560 H 0.34926 0.08402 0.04574 0.0
H561 H 0.3933 0.10444 0.03164 0.0
C562 C 0.48061 0.14173 0.9282 0.0
C563 C 0.51115 0.13094 0.9315 0.0
C564 C 0.44985 0.14364 0.94455 0.0
C565 C 0.45 0.13514 0.96479 0.0
C566 C 0.47896 0.12372 0.96738 0.0
C567 C 0.5092 0.12156 0.95075 0.0
C568 C 0.4214 0.13864 0.98376 0.0
C569 C 0.39736 0.12714 0.9929 0.0
C570 C 0.41758 0.15326 0.99272 0.0
C571 C 0.44367 0.16573 0.98463 0.0
C572 C 0.48666 0.16466 0.9854 0.0
C573 C 0.51103 0.17626 0.97704 0.0
C574 C 0.49276 0.18906 0.96807 0.0
C575 C 0.45008 0.19031 0.96753 0.0
C576 C 0.42557 0.17873 0.97583 0.0
C577 C 0.30826 0.14153 0.07522 0.0
C578 C 0.27119 0.14844 0.06937 0.0
C579 C 0.34034 0.14111 0.05939 0.0
C580 C 0.33572 0.14777 0.03774 0.0
C581 C 0.30022 0.15591 0.03278 0.0
C582 C 0.26794 0.15616 0.04848 0.0
C583 C 0.36509 0.14449 0.01923 0.0
C584 C 0.38901 0.15602 0.01021 0.0
C585 C 0.369 0.12993 0.0104 0.0
C586 C 0.34275 0.11755 0.0186 0.0
C587 C 0.29999 0.11815 0.01572 0.0
C588 C 0.27531 0.10653 0.02369 0.0
C589 C 0.29304 0.09426 0.03458 0.0
C590 C 0.33556 0.09354 0.03734 0.0
C591 C 0.36041 0.10511 0.0293 0.0
H592 H 0.27384 0.08532 0.04086 0.0
H593 H 0.51167 0.19801 0.96156 0.0
H594 H 0.01611 0.84795 0.91742 0.0
H595 H 0.07139 0.8438 0.94497 0.0
H596 H 0.03116 0.88187 0.98415 0.0
H597 H 0.97704 0.8865 0.95596 0.0
H598 H 0.10951 0.88168 0.9833 0.0
H599 H 0.00798 0.84438 -0.00065 0.0
H600 H 0.96122 0.8237 0.98989 0.0
H601 H 0.06369 0.79669 0.96993 0.0
H602 H 0.11106 0.81728 0.979 0.0
H603 H 0.20564 0.86545 0.08754 0.0
H604 H 0.14718 0.86385 0.06117 0.0
H605 H 0.22169 0.83981 0.01254 0.0
H606 H 0.28062 0.84178 0.03865 0.0
H607 H 0.12679 0.83179 0.01867 0.0
H608 H 0.22633 0.87086 -0.00052 0.0
H609 H 0.27162 0.89172 0.01022 0.0
H610 H 0.16886 0.91528 0.03849 0.0
H611 H 0.12303 0.89447 0.02806 0.0
C612 C 0.01932 0.85551 0.93182 0.0
C613 C 0.99222 0.86751 0.93464 0.0
C614 C 0.05069 0.85305 0.94765 0.0
C615 C 0.05479 0.86228 0.96698 0.0
C616 C 0.02847 0.87454 0.96944 0.0
C617 C 0.99761 0.8772 0.95332 0.0
C618 C 0.08649 0.85919 0.98463 0.0
C619 C 0.1128 0.87079 0.99115 0.0
C620 C 0.0914 0.84492 0.99473 0.0
C621 C 0.06304 0.83242 0.98967 0.0
C622 C 0.02053 0.83405 0.99284 0.0
C623 C 0.99392 0.82235 0.98755 0.0
C624 C 0.00947 0.8089 0.97926 0.0
C625 C 0.05169 0.80711 0.97633 0.0
C626 C 0.07844 0.81879 0.98157 0.0
C627 C 0.20903 0.85942 0.07153 0.0
C628 C 0.24741 0.85388 0.06487 0.0
C629 C 0.17576 0.85849 0.05656 0.0
C630 C 0.18044 0.8518 0.03495 0.0
C631 C 0.21764 0.84493 0.02924 0.0
C632 C 0.25114 0.84604 0.04412 0.0
C633 C 0.1491 0.85427 0.01712 0.0
C634 C 0.12311 0.8426 0.01067 0.0
C635 C 0.14406 0.86849 0.0072 0.0
C636 C 0.17139 0.88108 0.01318 0.0
C637 C 0.21347 0.88046 0.00811 0.0
C638 C 0.2392 0.89229 0.01406 0.0
C639 C 0.22313 0.90482 0.02503 0.0
C640 C 0.18126 0.90557 0.02998 0.0
C641 C 0.15539 0.89377 0.02402 0.0
H642 H 0.24314 0.91393 0.02973 0.0
H643 H 0.98881 0.79986 0.97513 0.0
H644 H 0.73919 0.86111 0.45179 0.0
H645 H 0.80488 0.86159 0.47216 0.0
H646 H 0.86805 0.85164 0.40889 0.0
H647 H 0.80197 0.85145 0.38828 0.0
H648 H 0.88763 0.83691 0.46351 0.0
H649 H 0.88471 0.88076 0.41072 0.0
H650 H 0.84575 0.90153 0.3936 0.0
H651 H 0.81595 0.9177 0.461 0.0
H652 H 0.85438 0.89692 0.47848 0.0
H653 H 0.07336 0.85536 0.51567 0.0
H654 H 0.02309 0.85267 0.48475 0.0
H655 H 0.94897 0.88706 0.51574 0.0
H656 H 0.00091 0.89046 0.54571 0.0
H657 H 0.93875 0.88862 0.47263 0.0
H658 H 0.93506 0.84853 0.52672 0.0
H659 H 0.96341 0.82785 0.54958 0.0
H660 H 0.99339 0.80429 0.48763 0.0
H661 H 0.96573 0.82495 0.46438 0.0
C662 C 0.76706 0.85861 0.44243 0.0
C663 C 0.76605 0.85625 0.41862 0.0
C664 C 0.80437 0.85892 0.454 0.0
C665 C 0.84097 0.85676 0.44189 0.0
C666 C 0.83987 0.85331 0.41838 0.0
C667 C 0.80238 0.85315 0.40671 0.0
C668 C 0.88003 0.85977 0.45361 0.0
C669 C 0.89972 0.84811 0.46505 0.0
C670 C 0.89409 0.87451 0.45639 0.0
C671 C 0.87218 0.88725 0.44587 0.0
C672 C 0.86968 0.88871 0.42186 0.0
C673 C 0.84776 0.90049 0.4121 0.0
C674 C 0.82838 0.91093 0.4262 0.0
C675 C 0.83102 0.90962 0.45009 0.0
C676 C 0.85292 0.89786 0.45993 0.0
C677 C 0.04674 0.86256 0.51546 0.0
C678 C 0.04053 0.87302 0.53299 0.0
C679 C 0.01794 0.86096 0.49794 0.0
C680 C 0.98159 0.86932 0.49832 0.0
C681 C 0.97665 0.88042 0.51512 0.0
C682 C 0.0062 0.88236 0.53225 0.0
C683 C 0.94738 0.86568 0.48248 0.0
C684 C 0.92792 0.87728 0.47057 0.0
C685 C 0.93268 0.8509 0.4799 0.0
C686 C 0.94876 0.83836 0.49381 0.0
C687 C 0.94791 0.83897 0.51798 0.0
C688 C 0.96384 0.82726 0.531 0.0
C689 C 0.98031 0.81478 0.52007 0.0
C690 C 0.98071 0.81398 0.49607 0.0
C691 C 0.96489 0.82568 0.48296 0.0
H692 H 0.99268 0.80573 0.53018 0.0
H693 H 0.81134 0.92002 0.41863 0.0
H694 H 0.71596 0.1493 0.41625 0.0
H695 H 0.65167 0.14962 0.43822 0.0
H696 H 0.70704 0.12201 0.49029 0.0
H697 H 0.77187 0.12225 0.46895 0.0
H698 H 0.62519 0.11246 0.47015 0.0
H699 H 0.69789 0.15382 0.50544 0.0
H700 H 0.73527 0.17765 0.50432 0.0
H701 H 0.63153 0.19872 0.47266 0.0
H702 H 0.59375 0.17493 0.47329 0.0
H703 H 0.48169 0.11427 0.56128 0.0
H704 H 0.54053 0.11365 0.53532 0.0
H705 H 0.49787 0.15393 0.5026 0.0
H706 H 0.44073 0.15509 0.52971 0.0
H707 H 0.57235 0.15715 0.51035 0.0
H708 H 0.49676 0.11747 0.47611 0.0
H709 H 0.45765 0.09401 0.47466 0.0
H710 H 0.56214 0.07012 0.50013 0.0
H711 H 0.60174 0.09347 0.50202 0.0
C712 C 0.71446 0.14351 0.43255 0.0
C713 C 0.74848 0.13563 0.44089 0.0
C714 C 0.67783 0.14361 0.44495 0.0
C715 C 0.67481 0.13572 0.46566 0.0
C716 C 0.7089 0.12802 0.47417 0.0
C717 C 0.7457 0.12815 0.46201 0.0
C718 C 0.63596 0.13543 0.47848 0.0
C719 C 0.61356 0.12214 0.47915 0.0
C720 C 0.62057 0.14826 0.48941 0.0
C721 C 0.6432 0.16256 0.48916 0.0
C722 C 0.68321 0.1635 0.49803 0.0
C723 C 0.70443 0.17701 0.49753 0.0
C724 C 0.68584 0.18968 0.48835 0.0
C725 C 0.64592 0.18889 0.47972 0.0
C726 C 0.62459 0.1754 0.48016 0.0
C727 C 0.48468 0.12283 0.54828 0.0
C728 C 0.457 0.13474 0.54742 0.0
C729 C 0.51814 0.12245 0.53334 0.0
C730 C 0.5235 0.13366 0.51676 0.0
C731 C 0.49459 0.14519 0.51529 0.0
C732 C 0.46191 0.14583 0.53068 0.0
C733 C 0.56086 0.13407 0.50223 0.0
C734 C 0.58329 0.14741 0.50122 0.0
C735 C 0.57578 0.12134 0.49058 0.0
C736 C 0.55212 0.10725 0.48937 0.0
C737 C 0.51132 0.10723 0.48154 0.0
C738 C 0.48907 0.09395 0.48062 0.0
C739 C 0.50737 0.08059 0.48735 0.0
C740 C 0.548 0.08048 0.49495 0.0
C741 C 0.57038 0.09373 0.49591 0.0
H742 H 0.49009 0.07032 0.48663 0.0
H743 H 0.70231 0.20013 0.48799 0.0
H744 H 0.76796 0.84712 0.95511 0.0
H745 H 0.70614 0.84796 0.97905 0.0
H746 H 0.65833 0.88361 0.93722 0.0
H747 H 0.72013 0.88279 0.91337 0.0
H748 H 0.65695 0.89068 0.98193 0.0
H749 H 0.61487 0.84918 0.93593 0.0
H750 H 0.62167 0.82454 0.91774 0.0
H751 H 0.63257 0.80411 0.98419 0.0
H752 H 0.62641 0.82866 0.00278 0.0
H753 H 0.46272 0.89315 0.03926 0.0
H754 H 0.51817 0.8918 0.01094 0.0
H755 H 0.56998 0.85432 0.04705 0.0
H756 H 0.51436 0.85535 0.07493 0.0
H757 H 0.56642 0.84852 0.00305 0.0
H758 H 0.61279 0.88969 0.04906 0.0
H759 H 0.60802 0.91422 0.06782 0.0
H760 H 0.59116 0.93511 0.00211 0.0
H761 H 0.59522 0.91067 0.98298 0.0
C762 C 0.7437 0.85483 0.95072 0.0
C763 C 0.74856 0.8649 0.9325 0.0
C764 C 0.7085 0.85535 0.96439 0.0
C765 C 0.67764 0.86585 0.95988 0.0
C766 C 0.68183 0.87547 0.94104 0.0
C767 C 0.71698 0.87497 0.92743 0.0
C768 C 0.64259 0.86762 0.97583 0.0
C769 C 0.63666 0.88153 0.98626 0.0
C770 C 0.61689 0.85558 0.98188 0.0
C771 C 0.62053 0.84079 0.97074 0.0
C772 C 0.61905 0.83945 0.94666 0.0
C773 C 0.62272 0.82549 0.93628 0.0
C774 C 0.62764 0.81277 0.9498 0.0
C775 C 0.62879 0.81398 0.97373 0.0
C776 C 0.62517 0.82791 0.9842 0.0
C777 C 0.48624 0.88475 0.04129 0.0
C778 C 0.48411 0.87432 0.05927 0.0
C779 C 0.51791 0.88399 0.02512 0.0
C780 C 0.54828 0.87297 0.02691 0.0
C781 C 0.54673 0.86285 0.04522 0.0
C782 C 0.51497 0.86349 0.0612 0.0
C783 C 0.58102 0.87155 0.00937 0.0
C784 C 0.58651 0.8577 -0.00139 0.0
C785 C 0.6065 0.88363 0.00312 0.0
C786 C 0.60382 0.89833 0.01462 0.0
C787 C 0.60767 0.8995 0.03863 0.0
C788 C 0.60517 0.91339 0.04933 0.0
C789 C 0.59915 0.92621 0.03617 0.0
C790 C 0.59572 0.92517 0.01229 0.0
C791 C 0.59813 0.9113 0.00151 0.0
H792 H 0.59726 0.93696 0.04449 0.0
H793 H 0.63048 0.80198 0.94173 0.0
H794 H 0.77643 0.15726 0.91957 0.0
H795 H 0.83875 0.15931 0.94292 0.0
H796 H 0.79124 0.12611 0.98952 0.0
H797 H 0.728 0.12492 0.96722 0.0
H798 H 0.83004 0.14513 0.01313 0.0
H799 H 0.86041 0.11795 0.94434 0.0
H800 H 0.86435 0.11359 0.90255 0.0
H801 H 0.94519 0.151 0.89524 0.0
H802 H 0.94125 0.15571 0.93698 0.0
H803 H 0.01908 0.11541 0.05479 0.0
H804 H 0.95911 0.11693 0.02947 0.0
H805 H 0.99207 0.1618 0.01098 0.0
H806 H 0.05141 0.16056 0.03672 0.0
H807 H 0.96302 0.13808 0.97308 0.0
H808 H 0.92897 0.16412 0.04487 0.0
H809 H 0.92629 0.16532 0.08721 0.0
H810 H 0.85297 0.12565 0.0888 0.0
H811 H 0.85569 0.12413 0.04644 0.0
C812 C 0.77913 0.15066 0.93507 0.0
C813 C 0.748 0.14071 0.94142 0.0
C814 C 0.81483 0.1517 0.94824 0.0
C815 C 0.82017 0.14255 0.96762 0.0
C816 C 0.78805 0.13318 0.97455 0.0
C817 C 0.75214 0.13239 0.96168 0.0
C818 C 0.85962 0.1422 0.98024 0.0
C819 C 0.85899 0.14352 0.00429 0.0
C820 C 0.89759 0.14012 0.9688 0.0
C821 C 0.90017 0.13728 0.94373 0.0
C822 C 0.87879 0.1253 0.93379 0.0
C823 C 0.88105 0.12277 0.91012 0.0
C824 C 0.90491 0.13204 0.89624 0.0
C825 C 0.92665 0.14385 0.90601 0.0
C826 C 0.92444 0.14645 0.92967 0.0
C827 C 0.01393 0.12549 0.045 0.0
C828 C 0.03961 0.13791 0.04776 0.0
C829 C 0.97975 0.12634 0.03065 0.0
C830 C 0.97142 0.13949 0.01857 0.0
C831 C -0.00174 0.15159 0.02023 0.0
C832 C 0.03193 0.15087 0.03495 0.0
C833 C 0.93294 0.141 0.00565 0.0
C834 C 0.93391 0.13984 0.98168 0.0
C835 C 0.8952 0.14286 0.01714 0.0
C836 C 0.89287 0.14393 0.04254 0.0
C837 C 0.91256 0.15559 0.05427 0.0
C838 C 0.91097 0.15634 0.07826 0.0
C839 C 0.88956 0.14554 0.09069 0.0
C840 C 0.86956 0.134 0.07914 0.0
C841 C 0.87107 0.1332 0.05515 0.0
H842 H 0.88837 0.14614 0.10926 0.0
H843 H 0.90663 0.13005 0.87791 0.0
H844 H 0.98223 0.15831 0.43068 0.0
H845 H 0.04305 0.1609 0.45425 0.0
H846 H 0.07447 0.11501 0.44125 0.0
H847 H 0.01177 0.11212 0.41842 0.0
H848 H 0.08384 0.11971 0.48338 0.0
H849 H 0.13154 0.14531 0.41834 0.0
H850 H 0.13058 0.16266 0.38552 0.0
H851 H 0.12088 0.19968 0.43181 0.0
H852 H 0.12115 0.18255 0.46492 0.0
H853 H 0.28457 0.15393 0.5313 0.0
H854 H 0.23725 0.15162 0.49884 0.0
H855 H 0.13647 0.14599 0.54619 0.0
H856 H 0.18428 0.14781 0.57865 0.0
H857 H 0.17319 0.16439 0.48184 0.0
H858 H 0.07366 0.11914 0.5279 0.0
H859 H 0.08286 0.09937 0.55687 0.0
H860 H 0.21141 0.0974 0.54138 0.0
H861 H 0.20294 0.11702 0.51216 0.0
C862 C 0.00229 0.14879 0.43255 0.0
C863 C 0.99224 0.13499 0.4227 0.0
C864 C 0.03735 0.15033 0.44592 0.0
C865 C 0.06388 0.13824 0.44921 0.0
C866 C 0.0545 0.12451 0.43891 0.0
C867 C 0.01877 0.12286 0.42586 0.0
C868 C 0.09927 0.13979 0.46501 0.0
C869 C 0.10358 0.12942 0.48288 0.0
C870 C 0.12605 0.15219 0.464 0.0
C871 C 0.12616 0.16261 0.44415 0.0
C872 C 0.12895 0.15714 0.42154 0.0
C873 C 0.12856 0.16694 0.40287 0.0
C874 C 0.12563 0.18226 0.40658 0.0
C875 C 0.12317 0.18781 0.42897 0.0
C876 C 0.12352 0.17806 0.4477 0.0
C877 C 0.25209 0.15263 0.53466 0.0
C878 C 0.23766 0.1511 0.55725 0.0
C879 C 0.22518 0.15124 0.51618 0.0
C880 C 0.18355 0.1483 0.52012 0.0
C881 C 0.16868 0.14793 0.5428 0.0
C882 C 0.19572 0.14915 0.56129 0.0
C883 C 0.15617 0.14469 0.50063 0.0
C884 C 0.15364 0.15463 0.4821 0.0
C885 C 0.13238 0.13153 0.50042 0.0
C886 C 0.13767 0.11965 0.51795 0.0
C887 C 0.10386 0.11445 0.53061 0.0
C888 C 0.10897 0.10328 0.5471 0.0
C889 C 0.14771 0.09716 0.55101 0.0
C890 C 0.18143 0.10218 0.53839 0.0
C891 C 0.17651 0.11335 0.5219 0.0
H892 H 0.15159 0.08852 0.56378 0.0
H893 H 0.1253 0.18982 0.39211 0.0
H894 H 0.28791 0.8462 0.58717 0.0
H895 H 0.35204 0.84305 0.56538 0.0
H896 H 0.31175 0.87643 0.51701 0.0
H897 H 0.24748 0.87888 0.53778 0.0
H898 H 0.3435 0.85479 0.49462 0.0
H899 H 0.38278 0.88327 0.56219 0.0
H900 H 0.39074 0.88752 0.60384 0.0
H901 H 0.46625 0.84857 0.6092 0.0
H902 H 0.45832 0.844 0.5676 0.0
H903 H 0.52751 0.88826 0.45216 0.0
H904 H 0.47424 0.88496 0.48146 0.0
H905 H 0.49996 0.83797 0.484 0.0
H906 H 0.5525 0.84106 0.45435 0.0
H907 H 0.47975 0.86248 0.53072 0.0
H908 H 0.43182 0.8334 0.46183 0.0
H909 H 0.42584 0.83149 0.41963 0.0
H910 H 0.36798 0.87437 0.41725 0.0
H911 H 0.37413 0.87656 0.45946 0.0
C912 C 0.29295 0.85275 0.5718 0.0
C913 C 0.26326 0.86296 0.56433 0.0
C914 C 0.32955 0.85104 0.55947 0.0
C915 C 0.33695 0.85966 0.53971 0.0
C916 C 0.30686 0.86968 0.53219 0.0
C917 C 0.27032 0.87121 0.54425 0.0
C918 C 0.37574 0.85849 0.52655 0.0
C919 C 0.37319 0.85638 0.50266 0.0
C920 C 0.41472 0.86041 0.53692 0.0
C921 C 0.41956 0.8632 0.56187 0.0
C922 C 0.40083 0.87556 0.57229 0.0
C923 C 0.40538 0.87804 0.59588 0.0
C924 C 0.42887 0.8683 0.60918 0.0
C925 C 0.44799 0.85609 0.59889 0.0
C926 C 0.4435 0.85355 0.57532 0.0
C927 C 0.52237 0.87729 0.45928 0.0
C928 C 0.54374 0.86489 0.4508 0.0
C929 C 0.4921 0.87543 0.47602 0.0
C930 C 0.48341 0.86123 0.48473 0.0
C931 C 0.50645 0.849 0.47742 0.0
C932 C 0.5362 0.85079 0.46042 0.0
C933 C 0.44686 0.85899 0.49914 0.0
C934 C 0.44995 0.86052 0.52302 0.0
C935 C 0.40826 0.85665 0.48889 0.0
C936 C 0.40372 0.85519 0.46367 0.0
C937 C 0.41805 0.84245 0.45226 0.0
C938 C 0.4146 0.84131 0.42837 0.0
C939 C 0.39663 0.85282 0.41576 0.0
C940 C 0.38193 0.86547 0.42704 0.0
C941 C 0.38536 0.86666 0.45093 0.0
H942 H 0.39402 0.85194 0.39726 0.0
H943 H 0.43236 0.87024 0.62743 0.0
H944 H 0.72795 0.66207 0.04802 0.0
H945 H 0.78545 0.66288 0.02098 0.0
H946 H 0.84689 0.62851 0.05965 0.0
H947 H 0.78997 0.62803 0.08706 0.0
H948 H 0.9016 0.64757 0.04086 0.0
H949 H 0.78441 0.61932 0.01673 0.0
H950 H 0.71116 0.61543 0.00825 0.0
H951 H 0.71635 0.64896 0.95573 0.0
H952 H 0.78954 0.65325 0.96422 0.0
H953 H 0.01582 0.61213 0.95311 0.0
H954 H 0.96115 0.61558 0.98148 0.0
H955 H 0.91927 0.65449 0.94508 0.0
H956 H 0.97417 0.65129 0.91685 0.0
H957 H 0.85525 0.63426 0.96216 0.0
H958 H 0.97597 0.66122 0.98658 0.0
H959 H 0.04962 0.66345 0.99545 0.0
H960 H 0.03789 0.63003 0.04778 0.0
H961 H 0.96425 0.62742 0.03893 0.0
C962 C 0.7545 0.65515 0.05122 0.0
C963 C 0.75471 0.64492 0.06941 0.0
C964 C 0.7871 0.65551 0.03568 0.0
C965 C 0.81989 0.64551 0.03807 0.0
C966 C 0.82177 0.63626 0.05745 0.0
C967 C 0.78931 0.63597 0.07304 0.0
C968 C 0.84944 0.64333 0.0191 0.0
C969 C 0.89148 0.6446 0.02369 0.0
C970 C 0.83614 0.63945 0.9967 0.0
C971 C 0.79232 0.63673 0.99128 0.0
C972 C 0.76986 0.62594 0.00348 0.0
C973 C 0.72836 0.62366 -0.00133 0.0
C974 C 0.70908 0.63197 0.9815 0.0
C975 C 0.73131 0.64255 0.96906 0.0
C976 C 0.7728 0.64491 0.97387 0.0
C977 C 0.99447 0.62124 0.95089 0.0
C978 C -0.00062 0.63151 0.93291 0.0
C979 C 0.96345 0.62322 0.96714 0.0
C980 C 0.93668 0.63537 0.9654 0.0
C981 C 0.93983 0.64508 0.94666 0.0
C982 C 0.97121 0.64325 0.93063 0.0
C983 C 0.90721 0.63854 0.98396 0.0
C984 C 0.86524 0.63738 0.97929 0.0
C985 C 0.92059 0.6423 0.00634 0.0
C986 C 0.9647 0.64402 0.01194 0.0
C987 C 0.98916 0.65426 -0.00016 0.0
C988 C 0.03089 0.6556 0.00489 0.0
C989 C 0.04845 0.64686 0.02213 0.0
C990 C 0.02426 0.63678 0.03441 0.0
C991 C 0.98252 0.63537 0.0294 0.0
H992 H 0.08076 0.64792 0.02601 0.0
H993 H 0.67694 0.63019 0.97779 0.0
H994 H 0.75973 0.34385 0.057 0.0
H995 H 0.69945 0.34282 0.032 0.0
H996 H 0.64564 0.3795 0.06907 0.0
H997 H 0.70569 0.38037 0.09437 0.0
H998 H 0.5871 0.35919 0.05331 0.0
H999 H 0.70178 0.38725 0.0247 0.0
H1000 H 0.77429 0.3911 0.01431 0.0
H1001 H 0.76658 0.35586 0.96471 0.0
H1002 H 0.69412 0.35164 0.97506 0.0
H1003 H 0.46519 0.38983 0.9632 0.0
H1004 H 0.51862 0.38767 0.99266 0.0
H1005 H 0.56822 0.34934 0.95784 0.0
H1006 H 0.51486 0.3513 0.92854 0.0
H1007 H 0.62787 0.3703 0.97285 0.0
H1008 H 0.51135 0.34297 0.00124 0.0
H1009 H 0.43862 0.33985 0.01168 0.0
H1010 H 0.44942 0.37478 0.06164 0.0
H1011 H 0.52214 0.37827 0.05122 0.0
C1012 C 0.73427 0.35127 0.06037 0.0
C1013 C 0.7371 0.36223 0.07744 0.0
C1014 C 0.70007 0.35076 0.046 0.0
C1015 C 0.66858 0.36127 0.04848 0.0
C1016 C 0.66972 0.37133 0.06688 0.0
C1017 C 0.70392 0.37183 0.08126 0.0
C1018 C 0.63756 0.3631 0.03021 0.0
C1019 C 0.59592 0.36172 0.03576 0.0
C1020 C 0.64927 0.36637 0.00733 0.0
C1021 C 0.69266 0.36902 0.00082 0.0
C1022 C 0.71563 0.38025 0.01169 0.0
C1023 C 0.7567 0.38251 0.00581 0.0
C1024 C 0.77506 0.3737 0.98892 0.0
C1025 C 0.75233 0.36265 0.97782 0.0
C1026 C 0.71125 0.36032 0.98368 0.0
C1027 C 0.48778 0.38106 0.9617 0.0
C1028 C 0.48576 0.37068 0.94368 0.0
C1029 C 0.51807 0.3798 0.97856 0.0
C1030 C 0.54694 0.36826 0.97745 0.0
C1031 C 0.54605 0.35828 0.95897 0.0
C1032 C 0.51551 0.3594 0.94231 0.0
C1033 C 0.57745 0.36627 0.9959 0.0
C1034 C 0.61904 0.36769 0.99038 0.0
C1035 C 0.56563 0.36317 0.0188 0.0
C1036 C 0.52206 0.36099 0.02528 0.0
C1037 C 0.49813 0.35007 0.01431 0.0
C1038 C 0.45693 0.34822 0.02025 0.0
C1039 C 0.43938 0.35714 0.03727 0.0
C1040 C 0.46305 0.3679 0.04844 0.0
C1041 C 0.50427 0.36981 0.04253 0.0
H1042 H 0.40746 0.3557 0.04184 0.0
H1043 H 0.80688 0.37546 0.98439 0.0
H1044 H 0.23957 0.33834 0.44325 0.0
H1045 H 0.30197 0.33764 0.46657 0.0
H1046 H 0.35642 0.37126 0.42331 0.0
H1047 H 0.2945 0.37158 0.3995 0.0
H1048 H 0.41499 0.35292 0.44204 0.0
H1049 H 0.30022 0.38228 0.46767 0.0
H1050 H 0.22782 0.38656 0.47798 0.0
H1051 H 0.23638 0.35361 0.53119 0.0
H1052 H 0.30878 0.34904 0.52105 0.0
H1053 H 0.53388 0.39054 0.52858 0.0
H1054 H 0.48288 0.38559 0.49846 0.0
H1055 H 0.43446 0.34918 0.5384 0.0
H1056 H 0.48523 0.35391 0.56831 0.0
H1057 H 0.37459 0.36861 0.52069 0.0
H1058 H 0.49337 0.34106 0.49589 0.0
H1059 H 0.56604 0.33811 0.48522 0.0
H1060 H 0.55065 0.36936 0.43006 0.0
H1061 H 0.47797 0.37267 0.44065 0.0
C1062 C 0.26561 0.34505 0.43813 0.0
C1063 C 0.26233 0.35519 0.41992 0.0
C1064 C 0.30107 0.34473 0.45153 0.0
C1065 C 0.33323 0.35472 0.44701 0.0
C1066 C 0.33181 0.36356 0.42717 0.0
C1067 C 0.2965 0.36376 0.41364 0.0
C1068 C 0.36458 0.35773 0.46476 0.0
C1069 C 0.40625 0.35643 0.4592 0.0
C1070 C 0.35306 0.36236 0.48711 0.0
C1071 C 0.30973 0.36521 0.49345 0.0
C1072 C 0.28656 0.37588 0.48147 0.0
C1073 C 0.24556 0.37837 0.48728 0.0
C1074 C 0.22747 0.37031 0.50515 0.0
C1075 C 0.25041 0.35981 0.51732 0.0
C1076 C 0.29144 0.35729 0.51157 0.0
C1077 C 0.51209 0.38158 0.53099 0.0
C1078 C 0.51353 0.37259 0.55074 0.0
C1079 C 0.48328 0.37871 0.51374 0.0
C1080 C 0.45534 0.36693 0.5162 0.0
C1081 C 0.45595 0.35827 0.5362 0.0
C1082 C 0.48498 0.36099 0.55323 0.0
C1083 C 0.425 0.36362 0.4981 0.0
C1084 C 0.3834 0.365 0.50359 0.0
C1085 C 0.43672 0.35926 0.47568 0.0
C1086 C 0.48034 0.35724 0.46923 0.0
C1087 C 0.50556 0.34741 0.48163 0.0
C1088 C 0.54674 0.34565 0.47557 0.0
C1089 C 0.56299 0.35358 0.45702 0.0
C1090 C 0.53804 0.36324 0.44445 0.0
C1091 C 0.49685 0.36506 0.45046 0.0
H1092 H 0.59487 0.3522 0.45235 0.0
H1093 H 0.19571 0.37224 0.50961 0.0
H1094 H 0.26579 0.65947 0.45492 0.0
H1095 H 0.20072 0.6614 0.47568 0.0
H1096 H 0.1352 0.65046 0.41344 0.0
H1097 H 0.20058 0.64814 0.39289 0.0
H1098 H 0.13013 0.67554 0.47531 0.0
H1099 H 0.06437 0.62598 0.42449 0.0
H1100 H 0.08812 0.60368 0.40357 0.0
H1101 H 0.19706 0.60244 0.44495 0.0
H1102 H 0.1742 0.62484 0.46585 0.0
H1103 H 0.93741 0.66284 0.52765 0.0
H1104 H 0.9895 0.66712 0.49812 0.0
H1105 H 0.04631 0.6252 0.51543 0.0
H1106 H 0.99278 0.62049 0.54382 0.0
H1107 H 0.05197 0.6282 0.47306 0.0
H1108 H 0.07933 0.661 0.53649 0.0
H1109 H 0.06431 0.6808 0.5646 0.0
H1110 H 0.04662 0.71203 0.50966 0.0
H1111 H 0.06096 0.69235 0.48119 0.0
C1112 C 0.23732 0.65799 0.4456 0.0
C1113 C 0.23771 0.65368 0.42246 0.0
C1114 C 0.20023 0.65906 0.45742 0.0
C1115 C 0.1632 0.65581 0.44619 0.0
C1116 C 0.1635 0.65278 0.4225 0.0
C1117 C 0.20065 0.65159 0.41073 0.0
C1118 C 0.12528 0.65386 0.45985 0.0
C1119 C 0.1127 0.66527 0.47469 0.0
C1120 C 0.1033 0.64029 0.45951 0.0
C1121 C 0.11779 0.62714 0.4465 0.0
C1122 C 0.09348 0.62098 0.42901 0.0
C1123 C 0.10682 0.60835 0.41714 0.0
C1124 C 0.14418 0.6017 0.42285 0.0
C1125 C 0.16826 0.60766 0.44045 0.0
C1126 C 0.15527 0.62037 0.4522 0.0
C1127 C 0.96077 0.65447 0.52485 0.0
C1128 C 0.96134 0.64137 0.53801 0.0
C1129 C 0.99066 0.65697 0.50812 0.0
C1130 C 0.02245 0.64666 0.50489 0.0
C1131 C 0.02214 0.63334 0.51756 0.0
C1132 C 0.99159 0.63065 0.5338 0.0
C1133 C 0.05683 0.64981 0.4889 0.0
C1134 C 0.06873 0.63862 0.47348 0.0
C1135 C 0.07935 0.66331 0.48963 0.0
C1136 C 0.07071 0.67516 0.50671 0.0
C1137 C 0.07192 0.67206 0.5304 0.0
C1138 C 0.06357 0.68326 0.5464 0.0
C1139 C 0.05438 0.69765 0.53892 0.0
C1140 C 0.05363 0.70087 0.51542 0.0
C1141 C 0.06187 0.6897 0.49935 0.0
H1142 H 0.04794 0.70631 0.55133 0.0
H1143 H 0.1544 0.5919 0.4137 0.0
H1144 H 0.27339 0.3696 0.96943 0.0
H1145 H 0.21126 0.36626 0.99217 0.0
H1146 H 0.15838 0.33986 0.93772 0.0
H1147 H 0.2205 0.34373 0.91446 0.0
H1148 H 0.10534 0.35991 0.95206 0.0
H1149 H 0.18858 0.32375 0.98885 0.0
H1150 H 0.25036 0.31352 0.00743 0.0
H1151 H 0.23938 0.34546 0.06194 0.0
H1152 H 0.17792 0.35605 0.04352 0.0
H1153 H 0.97709 0.34102 0.06278 0.0
H1154 H 0.0312 0.33551 0.03527 0.0
H1155 H 0.03131 0.3813 0.01308 0.0
H1156 H 0.9765 0.38693 0.04043 0.0
H1157 H 0.10617 0.3459 0.03455 0.0
H1158 H 0.05916 0.38319 0.95692 0.0
H1159 H 0.9959 0.39169 0.9378 0.0
H1160 H 0.93124 0.35362 0.96372 0.0
H1161 H 0.99423 0.34476 0.9827 0.0
C1162 C 0.24854 0.36302 0.96241 0.0
C1163 C 0.25129 0.35701 0.94022 0.0
C1164 C 0.21325 0.36099 0.97547 0.0
C1165 C 0.18033 0.35267 0.96675 0.0
C1166 C 0.18349 0.34628 0.94477 0.0
C1167 C 0.21889 0.34841 0.93159 0.0
C1168 C 0.14185 0.3516 0.98015 0.0
C1169 C 0.10539 0.3567 0.97004 0.0
C1170 C 0.14177 0.34713 0.00348 0.0
C1171 C 0.17869 0.34074 0.01471 0.0
C1172 C 0.19948 0.32866 0.00472 0.0
C1173 C 0.23444 0.32279 0.01524 0.0
C1174 C 0.24881 0.32884 0.03584 0.0
C1175 C 0.22821 0.34077 0.04598 0.0
C1176 C 0.19326 0.3467 0.03553 0.0
C1177 C 0.98829 0.34994 0.05194 0.0
C1178 C 0.97255 0.36446 0.05387 0.0
C1179 C 0.01926 0.34674 0.03622 0.0
C1180 C 0.03507 0.35795 0.02205 0.0
C1181 C 0.01905 0.37242 0.02363 0.0
C1182 C 0.98792 0.37565 0.03935 0.0
C1183 C 0.07013 0.35474 0.00669 0.0
C1184 C 0.10594 0.34886 0.01647 0.0
C1185 C 0.06936 0.35822 0.98299 0.0
C1186 C 0.0314 0.36338 0.97139 0.0
C1187 C 0.03151 0.37659 0.95845 0.0
C1188 C 0.99567 0.38148 0.94765 0.0
C1189 C 0.95955 0.37322 0.9496 0.0
C1190 C 0.95921 0.36003 0.96229 0.0
C1191 C 0.99496 0.35509 0.9731 0.0
H1192 H 0.93183 0.37703 0.94124 0.0
H1193 H 0.27589 0.32428 0.04395 0.0
H1194 H 0.2193 0.65773 0.96111 0.0
H1195 H 0.28202 0.659 0.98436 0.0
H1196 H 0.33874 0.62627 0.94045 0.0
H1197 H 0.27645 0.6252 0.91699 0.0
H1198 H 0.33832 0.61884 0.98725 0.0
H1199 H 0.37276 0.66055 0.93868 0.0
H1200 H 0.36048 0.6849 0.92042 0.0
H1201 H 0.35098 0.7054 0.98687 0.0
H1202 H 0.36261 0.68113 0.00553 0.0
H1203 H 0.53394 0.61667 0.03819 0.0
H1204 H 0.47742 0.61897 0.01087 0.0
H1205 H 0.43266 0.65741 0.04756 0.0
H1206 H 0.49003 0.65554 0.07432 0.0
H1207 H 0.4268 0.66239 0.00399 0.0
H1208 H 0.38809 0.62228 0.05326 0.0
H1209 H 0.39595 0.59843 0.07373 0.0
H1210 H 0.40739 0.5755 0.00931 0.0
H1211 H 0.40014 0.59925 0.98845 0.0
C1212 C 0.24562 0.65114 0.95613 0.0
C1213 C 0.24331 0.64133 0.93742 0.0
C1214 C 0.28126 0.65183 0.9694 0.0
C1215 C 0.31483 0.6427 0.96407 0.0
C1216 C 0.31305 0.63336 0.94481 0.0
C1217 C 0.27761 0.63275 0.93149 0.0
C1218 C 0.35039 0.64187 0.97968 0.0
C1219 C 0.35814 0.62828 0.99067 0.0
C1220 C 0.37498 0.65438 0.98472 0.0
C1221 C 0.36817 0.66899 0.9735 0.0
C1222 C 0.3677 0.67023 0.9494 0.0
C1223 C 0.36093 0.68402 0.93898 0.0
C1224 C 0.35485 0.69668 0.95248 0.0
C1225 C 0.35564 0.69558 0.97643 0.0
C1226 C 0.36236 0.68181 0.98694 0.0
C1227 C 0.512 0.62559 0.04043 0.0
C1228 C 0.51624 0.63587 0.05843 0.0
C1229 C 0.47967 0.62688 0.02486 0.0
C1230 C 0.45044 0.63823 0.02738 0.0
C1231 C 0.45485 0.64857 0.04526 0.0
C1232 C 0.48756 0.64745 0.06059 0.0
C1233 C 0.41509 0.63928 0.01149 0.0
C1234 C 0.40718 0.65291 0.00054 0.0
C1235 C 0.38969 0.62688 0.00682 0.0
C1236 C 0.39399 0.61256 0.0193 0.0
C1237 C 0.39259 0.61216 0.04346 0.0
C1238 C 0.39689 0.59866 0.05514 0.0
C1239 C 0.40228 0.58546 0.04283 0.0
C1240 C 0.40327 0.58573 0.01882 0.0
C1241 C 0.39904 0.59921 0.00706 0.0
H1242 H 0.4056 0.57502 0.0519 0.0
H1243 H 0.34961 0.70735 0.94437 0.0
H1244 H 0.4417 0.61325 0.46745 0.0
H1245 H 0.49404 0.61366 0.49785 0.0
H1246 H 0.55476 0.65016 0.46381 0.0
H1247 H 0.50306 0.6499 0.43368 0.0
H1248 H 0.6076 0.62749 0.477 0.0
H1249 H 0.49653 0.65707 0.5085 0.0
H1250 H 0.42531 0.66115 0.52119 0.0
H1251 H 0.43705 0.62579 0.57038 0.0
H1252 H 0.50823 0.62137 0.55772 0.0
H1253 H 0.74484 0.65929 0.55133 0.0
H1254 H 0.68063 0.65771 0.52987 0.0
H1255 H 0.64051 0.62173 0.57348 0.0
H1256 H 0.70463 0.62353 0.59542 0.0
H1257 H 0.57524 0.64073 0.55786 0.0
H1258 H 0.68709 0.61195 0.52823 0.0
H1259 H 0.75839 0.60772 0.51576 0.0
H1260 H 0.74479 0.64079 0.46308 0.0
H1261 H 0.67352 0.64535 0.47541 0.0
C1262 C 0.46636 0.6213 0.46644 0.0
C1263 C 0.46824 0.63157 0.44822 0.0
C1264 C 0.49602 0.62156 0.48383 0.0
C1265 C 0.52801 0.632 0.48305 0.0
C1266 C 0.53025 0.64204 0.46468 0.0
C1267 C 0.50059 0.64189 0.44752 0.0
C1268 C 0.55964 0.63263 0.50116 0.0
C1269 C 0.60054 0.63043 0.49465 0.0
C1270 C 0.55016 0.63606 0.52429 0.0
C1271 C 0.5075 0.63877 0.53197 0.0
C1272 C 0.4838 0.65008 0.52187 0.0
C1273 C 0.44347 0.65247 0.52909 0.0
C1274 C 0.42661 0.6437 0.54653 0.0
C1275 C 0.45012 0.63255 0.55684 0.0
C1276 C 0.49046 0.6301 0.54966 0.0
C1277 C 0.72161 0.65149 0.55696 0.0
C1278 C 0.7295 0.64149 0.5749 0.0
C1279 C 0.68512 0.65051 0.5446 0.0
C1280 C 0.65632 0.63942 0.5499 0.0
C1281 C 0.66247 0.63032 0.56915 0.0
C1282 C 0.699 0.63133 0.58158 0.0
C1283 C 0.62315 0.63606 0.53344 0.0
C1284 C 0.58216 0.63762 0.54027 0.0
C1285 C 0.6324 0.63194 0.51055 0.0
C1286 C 0.67507 0.62908 0.50286 0.0
C1287 C 0.69938 0.61839 0.51408 0.0
C1288 C 0.73978 0.61592 0.50703 0.0
C1289 C 0.75614 0.62402 0.4887 0.0
C1290 C 0.73208 0.63455 0.4773 0.0
C1291 C 0.69166 0.63706 0.48429 0.0
H1292 H 0.78743 0.6221 0.48328 0.0
H1293 H 0.39539 0.64557 0.5521 0.0
H1294 H -0.00141 0.34448 0.43185 0.0
H1295 H 0.94345 0.34234 0.46002 0.0
H1296 H 0.98542 0.38233 0.4935 0.0
H1297 H 0.04075 0.38467 0.46524 0.0
H1298 H 0.96356 0.35812 0.52415 0.0
H1299 H 0.90974 0.38608 0.46009 0.0
H1300 H 0.8948 0.39061 0.41914 0.0
H1301 H 0.82287 0.35064 0.41646 0.0
H1302 H 0.83791 0.34576 0.45735 0.0
H1303 H 0.78432 0.38061 0.58451 0.0
H1304 H 0.84705 0.3776 0.56189 0.0
H1305 H 0.78965 0.34235 0.52312 0.0
H1306 H 0.72647 0.34571 0.54524 0.0
H1307 H 0.82082 0.36255 0.49548 0.0
H1308 H 0.86956 0.3353 0.56013 0.0
H1309 H 0.88466 0.33033 0.60093 0.0
H1310 H 0.96575 0.36793 0.60285 0.0
H1311 H 0.95069 0.37327 0.56213 0.0
C1312 C 0.99632 0.35279 0.44527 0.0
C1313 C 0.02385 0.36482 0.44623 0.0
C1314 C 0.96482 0.35153 0.46133 0.0
C1315 C 0.96044 0.36221 0.4787 0.0
C1316 C 0.9885 0.37398 0.48019 0.0
C1317 C 0.01984 0.37534 0.46396 0.0
C1318 C 0.92517 0.36148 0.49452 0.0
C1319 C 0.9323 0.35923 0.51803 0.0
C1320 C 0.88456 0.36253 0.48626 0.0
C1321 C 0.87534 0.36547 0.4617 0.0
C1322 C 0.89106 0.37819 0.45072 0.0
C1323 C 0.88251 0.38083 0.42753 0.0
C1324 C 0.85801 0.3709 0.41518 0.0
C1325 C 0.84191 0.35831 0.42603 0.0
C1326 C 0.85041 0.35561 0.44921 0.0
C1327 C 0.78551 0.37206 0.5714 0.0
C1328 C 0.75088 0.36335 0.56658 0.0
C1329 C 0.82134 0.37028 0.55861 0.0
C1330 C 0.82311 0.35967 0.54093 0.0
C1331 C 0.78895 0.35055 0.53674 0.0
C1332 C 0.75306 0.35239 0.54947 0.0
C1333 C 0.85891 0.35917 0.52533 0.0
C1334 C 0.85195 0.36127 0.50175 0.0
C1335 C 0.89959 0.35791 0.53358 0.0
C1336 C 0.90869 0.35476 0.5581 0.0
C1337 C 0.89034 0.34259 0.5693 0.0
C1338 C 0.89895 0.33969 0.59241 0.0
C1339 C 0.92607 0.34883 0.60449 0.0
C1340 C 0.94471 0.36087 0.59347 0.0
C1341 C 0.93618 0.36383 0.57037 0.0
H1342 H 0.93271 0.34656 0.62238 0.0
H1343 H 0.85141 0.37297 0.39723 0.0
H1344 H 0.14191 0.05121 0.06677 0.0
H1345 H 0.16711 0.02614 0.07345 0.0
H1346 H 0.24803 0.04257 0.12632 0.0
H1347 H 0.22425 0.06793 0.1189 0.0
H1348 H 0.28772 0.02403 0.09963 0.0
H1349 H 0.16192 0.0214 0.13987 0.0
H1350 H 0.08788 0.0246 0.14672 0.0
H1351 H 0.06093 0.99505 0.09076 0.0
H1352 H 0.13482 0.99183 0.08334 0.0
H1353 H 0.33973 0.94769 0.12225 0.0
H1354 H 0.31079 0.97249 0.12931 0.0
H1355 H 0.23712 0.96846 0.06807 0.0
H1356 H 0.2661 0.94378 0.06089 0.0
H1357 H 0.19452 0.98064 0.10689 0.0
H1358 H 0.32195 0.98676 0.06438 0.0
H1359 H 0.39635 0.9836 0.05869 0.0
H1360 H 0.41987 0.00668 0.12195 0.0
H1361 H 0.34551 0.00978 0.12817 0.0
C1362 C 0.16486 0.04953 0.07997 0.0
C1363 C 0.18037 0.06161 0.09261 0.0
C1364 C 0.179 0.03512 0.08393 0.0
C1365 C 0.20884 0.03235 0.10077 0.0
C1366 C 0.22457 0.04438 0.11345 0.0
C1367 C 0.21049 0.05889 0.1094 0.0
C1368 C 0.22499 0.017 0.10395 0.0
C1369 C 0.26735 0.01459 0.10179 0.0
C1370 C 0.19853 0.0046 0.10655 0.0
C1371 C 0.15398 0.00644 0.11097 0.0
C1372 C 0.14022 0.01566 0.12892 0.0
C1373 C 0.09827 0.01746 0.13292 0.0
C1374 C 0.06972 0.01005 0.11916 0.0
C1375 C 0.08308 1.00078 0.1014 0.0
C1376 C 0.12501 0.99895 0.09731 0.0
C1377 C 0.31672 0.95198 0.1106 0.0
C1378 C 0.30483 0.94378 0.09114 0.0
C1379 C 0.30046 0.96617 0.11455 0.0
C1380 C 0.27186 0.9723 0.09919 0.0
C1381 C 0.25902 0.96391 0.08018 0.0
C1382 C 0.27569 0.94985 0.07605 0.0
C1383 C 0.25685 0.98777 0.10201 0.0
C1384 C 0.21477 0.99015 0.10525 0.0
C1385 C 0.28357 1.00014 0.10068 0.0
C1386 C 0.32821 0.99833 0.09688 0.0
C1387 C 0.34298 0.99104 0.07718 0.0
C1388 C 0.38514 0.98928 0.07384 0.0
C1389 C 0.41282 0.99489 0.08999 0.0
C1390 C 0.39839 1.00231 0.10948 0.0
C1391 C 0.35625 0.00407 0.11292 0.0
H1392 H 0.44544 0.99353 0.08737 0.0
H1393 H 0.03725 0.01146 0.12229 0.0
H1394 H 0.74032 0.93226 0.38577 0.0
H1395 H 0.77459 0.95606 0.3783 0.0
H1396 H 0.67313 0.97937 0.40926 0.0
H1397 H 0.63873 0.95562 0.41666 0.0
H1398 H 0.70416 0.99292 0.36797 0.0
H1399 H 0.7528 0.9724 0.44079 0.0
H1400 H 0.78451 0.95259 0.46412 0.0
H1401 H 0.89313 0.95469 0.42258 0.0
H1402 H 0.86179 0.97436 0.39877 0.0
H1403 H 0.78029 0.06298 0.40175 0.0
H1404 H 0.74897 0.03843 0.39754 0.0
H1405 H 0.86814 0.01939 0.38419 0.0
H1406 H 0.89955 0.04393 0.38949 0.0
H1407 H 0.83193 1.00244 0.41183 0.0
H1408 H 0.79025 0.02387 0.34112 0.0
H1409 H 0.76084 0.0426 0.31494 0.0
H1410 H 0.64356 0.03782 0.34761 0.0
H1411 H 0.67239 0.01921 0.37423 0.0
C1412 C 0.72483 0.94247 0.39036 0.0
C1413 C 0.68661 0.94215 0.40147 0.0
C1414 C 0.74459 0.95604 0.38629 0.0
C1415 C 0.72635 0.96945 0.39324 0.0
C1416 C 0.68759 0.96915 0.40365 0.0
C1417 C 0.66809 0.9556 0.40796 0.0
C1418 C 0.74866 0.98376 0.39126 0.0
C1419 C 0.73199 0.99509 0.37761 0.0
C1420 C 0.7857 0.98634 0.40323 0.0
C1421 C 0.80481 0.97475 0.41788 0.0
C1422 C 0.78335 0.96857 0.43655 0.0
C1423 C 0.80126 0.95737 0.44986 0.0
C1424 C 0.84078 0.95237 0.44481 0.0
C1425 C 0.86251 0.95857 0.42646 0.0
C1426 C 0.8447 0.96975 0.41306 0.0
C1427 C 0.79956 0.05359 0.39739 0.0
C1428 C 0.84214 0.05532 0.39546 0.0
C1429 C 0.78169 0.03954 0.39496 0.0
C1430 C 0.806 0.027 0.39007 0.0
C1431 C 0.84863 0.02884 0.38788 0.0
C1432 C 0.86655 0.04285 0.39078 0.0
C1433 C 0.78723 0.0119 0.38869 0.0
C1434 C 0.80447 1.00035 0.40182 0.0
C1435 C 0.75117 0.00905 0.37581 0.0
C1436 C 0.7336 0.02022 0.3598 0.0
C1437 C 0.75825 0.02689 0.34284 0.0
C1438 C 0.74167 0.03747 0.3279 0.0
C1439 C 0.70038 0.04142 0.32964 0.0
C1440 C 0.67555 0.03476 0.34629 0.0
C1441 C 0.69199 0.02418 0.3613 0.0
H1442 H 0.6876 0.04962 0.31806 0.0
H1443 H 0.85463 0.94371 0.45514 0.0
H1444 H 0.7298 0.06451 0.8927 0.0
H1445 H 0.76131 0.04017 0.88678 0.0
H1446 H 0.64412 0.01902 0.89792 0.0
H1447 H 0.61287 0.0434 0.90448 0.0
H1448 H 0.69778 0.0054 0.92159 0.0
H1449 H 0.69254 0.02068 0.84339 0.0
H1450 H 0.70257 0.03721 0.81005 0.0
H1451 H 0.83287 0.03579 0.82015 0.0
H1452 H 0.82362 0.01942 0.85378 0.0
H1453 H 0.77593 0.93392 0.894 0.0
H1454 H 0.73706 0.95695 0.88884 0.0
H1455 H 0.84911 0.9823 0.89275 0.0
H1456 H 0.8882 0.95927 0.89769 0.0
H1457 H 0.79349 0.99256 0.85837 0.0
H1458 H 0.79488 0.97868 0.93915 0.0
H1459 H 0.78252 0.96156 0.97155 0.0
H1460 H 0.65462 0.95969 0.95435 0.0
H1461 H 0.66637 0.97664 0.92163 0.0
C1462 C 0.7106 0.0547 0.89325 0.0
C1463 C 0.66879 0.05581 0.89864 0.0
C1464 C 0.72863 0.04076 0.88991 0.0
C1465 C 0.70501 0.02772 0.89153 0.0
C1466 C 0.66301 0.0289 0.89653 0.0
C1467 C 0.64516 0.04281 0.90022 0.0
C1468 C 0.72462 0.01283 0.88969 0.0
C1469 C 0.71801 0.00253 0.90747 0.0
C1470 C 0.75159 0.00908 0.87149 0.0
C1471 C 0.75734 0.01891 0.85124 0.0
C1472 C 0.72332 0.02398 0.83862 0.0
C1473 C 0.72887 0.03331 0.81964 0.0
C1474 C 0.76833 0.03757 0.81301 0.0
C1475 C 0.80233 0.03248 0.82532 0.0
C1476 C 0.79695 0.02317 0.84433 0.0
C1477 C 0.79242 0.94434 0.89305 0.0
C1478 C 0.83516 0.9448 0.89591 0.0
C1479 C 0.77013 0.9575 0.89034 0.0
C1480 C 0.79025 0.97131 0.89047 0.0
C1481 C 0.83307 0.97175 0.8925 0.0
C1482 C 0.85529 0.95861 0.89543 0.0
C1483 C 0.76663 0.98536 0.89027 0.0
C1484 C 0.77269 0.99546 0.87221 0.0
C1485 C 0.73868 0.98888 0.90802 0.0
C1486 C 0.73159 0.97879 0.9278 0.0
C1487 C 0.76419 0.97452 0.94217 0.0
C1488 C 0.75728 0.96487 0.96061 0.0
C1489 C 0.71783 0.9595 0.96497 0.0
C1490 C 0.68518 0.96383 0.95093 0.0
C1491 C 0.69194 0.97346 0.93244 0.0
H1492 H 0.71254 0.95203 0.97925 0.0
H1493 H 0.77256 0.04479 0.79831 0.0
H1494 H 0.22423 0.94787 0.56437 0.0
H1495 H 0.25013 0.97243 0.57478 0.0
H1496 H 0.16154 0.97515 0.62965 0.0
H1497 H 0.13534 0.95038 0.61923 0.0
H1498 H 0.16437 1.00067 0.60058 0.0
H1499 H 0.25646 0.9713 0.64491 0.0
H1500 H 0.30456 0.95075 0.65253 0.0
H1501 H 0.38642 0.96762 0.60094 0.0
H1502 H 0.33853 0.98816 0.59275 0.0
H1503 H 0.25922 0.07138 0.62089 0.0
H1504 H 0.23229 0.04655 0.62933 0.0
H1505 H 0.31548 0.02765 0.57965 0.0
H1506 H 0.34353 0.05222 0.57187 0.0
H1507 H 0.3114 0.01034 0.6165 0.0
H1508 H 0.21456 0.03597 0.56685 0.0
H1509 H 0.16704 0.05637 0.5572 0.0
H1510 H 0.09466 0.04628 0.61685 0.0
H1511 H 0.14216 0.02595 0.62704 0.0
C1512 C 0.21052 0.95362 0.57881 0.0
C1513 C 0.17809 0.94715 0.59115 0.0
C1514 C 0.22545 0.96762 0.5848 0.0
C1515 C 0.20803 0.97554 0.60313 0.0
C1516 C 0.17559 0.96915 0.61556 0.0
C1517 C 0.16092 0.95497 0.60973 0.0
C1518 C 0.22292 0.99078 0.60823 0.0
C1519 C 0.19628 0.00281 0.60467 0.0
C1520 C 0.26468 0.99354 0.6132 0.0
C1521 C 0.29376 0.98125 0.61815 0.0
C1522 C 0.28458 0.97058 0.63507 0.0
C1523 C 0.31184 0.95894 0.63952 0.0
C1524 C 0.3485 0.95787 0.62722 0.0
C1525 C 0.35801 0.96846 0.61047 0.0
C1526 C 0.33085 0.98013 0.60594 0.0
C1527 C 0.27261 0.06191 0.61227 0.0
C1528 C 0.30396 0.06378 0.59592 0.0
C1529 C 0.25678 0.04772 0.6169 0.0
C1530 C 0.2717 0.03522 0.60503 0.0
C1531 C 0.30357 0.03708 0.58911 0.0
C1532 C 0.31939 0.05118 0.58456 0.0
C1533 C 0.25322 0.02023 0.60802 0.0
C1534 C 0.27924 0.00823 0.61306 0.0
C1535 C 0.211 0.0175 0.60417 0.0
C1536 C 0.18217 0.02957 0.59786 0.0
C1537 C 0.18866 0.03817 0.57799 0.0
C1538 C 0.16173 0.04971 0.57241 0.0
C1539 C 0.12793 0.05265 0.58645 0.0
C1540 C 0.12091 0.04401 0.60603 0.0
C1541 C 0.14782 0.03248 0.61172 0.0
H1542 H 0.10714 0.0616 0.58211 0.0
H1543 H 0.36956 0.94885 0.63068 0.0
H1544 H 0.88267 0.45955 0.08146 0.0
H1545 H 0.84856 0.4835 0.08761 0.0
H1546 H 0.73674 0.46065 0.10544 0.0
H1547 H 0.77071 0.43668 0.0993 0.0
H1548 H 0.72793 0.48287 0.07138 0.0
H1549 H 0.78636 0.47723 0.14664 0.0
H1550 H 0.84211 0.47274 0.1744 0.0
H1551 H 0.90619 0.5112 0.14938 0.0
H1552 H 0.85108 0.5158 0.12123 0.0
H1553 H 0.61477 0.54667 0.09725 0.0
H1554 H 0.64833 0.52255 0.10187 0.0
H1555 H 0.76665 0.54389 0.09747 0.0
H1556 H 0.73287 0.56816 0.09391 0.0
H1557 H 0.77146 0.52189 0.12657 0.0
H1558 H 0.71918 0.52688 0.04996 0.0
H1559 H 0.66691 0.5316 0.02022 0.0
H1560 H 0.59587 0.4947 0.04494 0.0
H1561 H 0.64749 0.48988 0.07504 0.0
C1562 C 0.85095 0.45966 0.08698 0.0
C1563 C 0.82951 0.44627 0.09029 0.0
C1564 C 0.83159 0.47332 0.09058 0.0
C1565 C 0.79026 0.47383 0.09721 0.0
C1566 C 0.76878 0.46047 0.10056 0.0
C1567 C 0.78832 0.44679 0.09727 0.0
C1568 C 0.76886 0.48831 0.09913 0.0
C1569 C 0.7369 0.49132 0.08373 0.0
C1570 C 0.78165 0.49948 0.11469 0.0
C1571 C 0.81474 0.49678 0.13168 0.0
C1572 C 0.8125 0.48466 0.14692 0.0
C1573 C 0.84396 0.48211 0.16276 0.0
C1574 C 0.87772 0.49166 0.16362 0.0
C1575 C 0.88004 0.5038 0.14868 0.0
C1576 C 0.84867 0.5064 0.1328 0.0
C1577 C 0.64795 0.5462 0.09769 0.0
C1578 C 0.67132 0.55921 0.09531 0.0
C1579 C 0.66712 0.53242 0.10017 0.0
C1580 C 0.71007 0.53132 0.09943 0.0
C1581 C 0.7335 0.54442 0.09804 0.0
C1582 C 0.71424 0.55829 0.09607 0.0
C1583 C 0.73029 0.51648 0.09882 0.0
C1584 C 0.76218 0.51342 0.11435 0.0
C1585 C 0.71796 0.50531 0.08306 0.0
C1586 C 0.687 0.50812 0.06489 0.0
C1587 C 0.69228 0.51983 0.04914 0.0
C1588 C 0.66279 0.52252 0.03221 0.0
C1589 C 0.62804 0.51348 0.03073 0.0
C1590 C 0.62277 0.50171 0.04613 0.0
C1591 C 0.65215 0.49899 0.06312 0.0
H1592 H 0.60524 0.51558 0.01761 0.0
H1593 H 0.90204 0.48967 0.17589 0.0
H1594 H 0.24838 0.56447 0.44006 0.0
H1595 H 0.22308 0.53901 0.43645 0.0
H1596 H 0.31097 0.53059 0.38262 0.0
H1597 H 0.33634 0.55618 0.38609 0.0
H1598 H 0.23734 0.51703 0.37356 0.0
H1599 H 0.33163 0.51935 0.43611 0.0
H1600 H 0.36157 0.52916 0.47194 0.0
H1601 H 0.24981 0.51959 0.50802 0.0
H1602 H 0.21895 0.50992 0.4723 0.0
H1603 H 0.21994 0.43733 0.39036 0.0
H1604 H 0.24597 0.46266 0.38592 0.0
H1605 H 0.16033 0.47804 0.43708 0.0
H1606 H 0.13329 0.45291 0.44114 0.0
H1607 H 0.23905 0.48728 0.44543 0.0
H1608 H 0.1445 0.48572 0.38156 0.0
H1609 H 0.11623 0.47563 0.34547 0.0
H1610 H 0.23144 0.48309 0.31168 0.0
H1611 H 0.26059 0.49302 0.34768 0.0
C1612 C 0.26199 0.55725 0.42725 0.0
C1613 C 0.29418 0.56235 0.41328 0.0
C1614 C 0.24757 0.5427 0.42523 0.0
C1615 C 0.26557 0.53281 0.40952 0.0
C1616 C 0.29661 0.53803 0.39485 0.0
C1617 C 0.31092 0.55268 0.39676 0.0
C1618 C 0.25332 0.51688 0.40949 0.0
C1619 C 0.23828 0.51044 0.38918 0.0
C1620 C 0.25435 0.5083 0.4299 0.0
C1621 C 0.27287 0.51402 0.45147 0.0
C1622 C 0.31333 0.51944 0.45164 0.0
C1623 C 0.33048 0.52496 0.47194 0.0
C1624 C 0.30758 0.52503 0.49223 0.0
C1625 C 0.2675 0.51954 0.49228 0.0
C1626 C 0.25017 0.51402 0.47202 0.0
C1627 C 0.20569 0.44612 0.40016 0.0
C1628 C 0.1738 0.44306 0.41577 0.0
C1629 C 0.22096 0.46061 0.39775 0.0
C1630 C 0.20489 0.47226 0.41105 0.0
C1631 C 0.17318 0.46923 0.42662 0.0
C1632 C 0.15779 0.45483 0.42893 0.0
C1633 C 0.22204 0.48754 0.40968 0.0
C1634 C 0.23829 0.49383 0.42976 0.0
C1635 C 0.2224 0.49588 0.38904 0.0
C1636 C 0.20487 0.48995 0.36739 0.0
C1637 C 0.16393 0.48508 0.36649 0.0
C1638 C 0.14772 0.47941 0.34604 0.0
C1639 C 0.17206 0.47867 0.32631 0.0
C1640 C 0.21264 0.48364 0.32698 0.0
C1641 C 0.22901 0.4893 0.3474 0.0
H1642 H 0.15945 0.47429 0.31049 0.0
H1643 H 0.32091 0.52931 0.50793 0.0
H1644 H 0.29898 0.44697 0.94369 0.0
H1645 H 0.26451 0.47051 0.93659 0.0
H1646 H 0.29624 0.46782 0.86474 0.0
H1647 H 0.33246 0.4444 0.87193 0.0
H1648 H 0.30909 0.49545 0.88117 0.0
H1649 H 0.1979 0.46151 0.88149 0.0
H1650 H 0.15519 0.44073 0.89532 0.0
H1651 H 0.12992 0.46457 0.95766 0.0
H1652 H 0.17297 0.48542 0.94437 0.0
H1653 H 0.17116 0.5588 0.86746 0.0
H1654 H 0.20441 0.5346 0.8625 0.0
H1655 H 0.19911 0.52733 0.9357 0.0
H1656 H 0.16712 0.55155 0.9409 0.0
H1657 H 0.16802 0.50377 0.91028 0.0
H1658 H 0.28774 0.53611 0.91092 0.0
H1659 H 0.33027 0.55674 0.89636 0.0
H1660 H 0.33747 0.5356 0.83031 0.0
H1661 H 0.29447 0.51492 0.84441 0.0
C1662 C 0.29856 0.45132 0.92633 0.0
C1663 C 0.31773 0.4436 0.90829 0.0
C1664 C 0.27856 0.46475 0.92226 0.0
C1665 C 0.27699 0.47079 0.90003 0.0
C1666 C 0.2966 0.46326 0.88197 0.0
C1667 C 0.31681 0.44976 0.88606 0.0
C1668 C 0.2557 0.48518 0.89617 0.0
C1669 C 0.27791 0.4972 0.88705 0.0
C1670 C 0.21506 0.48749 0.90391 0.0
C1671 C 0.18887 0.47501 0.91196 0.0
C1672 C 0.18345 0.46229 0.89822 0.0
C1673 C 0.15915 0.4505 0.90595 0.0
C1674 C 0.1399 0.45132 0.92736 0.0
C1675 C 0.14485 0.46395 0.94107 0.0
C1676 C 0.16915 0.47577 0.93343 0.0
C1677 C 0.17813 0.55229 0.88257 0.0
C1678 C 0.167 0.55728 0.90464 0.0
C1679 C 0.19676 0.53836 0.87966 0.0
C1680 C 0.20421 0.52918 0.89875 0.0
C1681 C 0.19347 0.53421 0.92073 0.0
C1682 C 0.17519 0.54808 0.92365 0.0
C1683 C 0.22195 0.5141 0.89615 0.0
C1684 C 0.19892 0.50194 0.90399 0.0
C1685 C 0.26159 0.51167 0.88705 0.0
C1686 C 0.28747 0.52407 0.87862 0.0
C1687 C 0.29807 0.53593 0.89323 0.0
C1688 C 0.32233 0.54761 0.88508 0.0
C1689 C 0.33645 0.54751 0.8624 0.0
C1690 C 0.32644 0.53568 0.84785 0.0
C1691 C 0.30214 0.52398 0.85591 0.0
H1692 H 0.35524 0.55656 0.85612 0.0
H1693 H 0.1211 0.44218 0.93332 0.0
H1694 H 0.77451 0.56956 0.59292 0.0
H1695 H 0.74207 0.54534 0.59894 0.0
H1696 H 0.86077 0.52417 0.59607 0.0
H1697 H 0.89281 0.54836 0.58893 0.0
H1698 H 0.81327 0.50952 0.57097 0.0
H1699 H 0.79953 0.52751 0.6476 0.0
H1700 H 0.78114 0.54511 0.67841 0.0
H1701 H 0.65456 0.54263 0.65856 0.0
H1702 H 0.67225 0.52516 0.62741 0.0
H1703 H 0.72997 0.43856 0.59878 0.0
H1704 H 0.76715 0.46193 0.60483 0.0
H1705 H 0.6571 0.48665 0.58988 0.0
H1706 H 0.61979 0.46333 0.58389 0.0
H1707 H 0.70373 0.49835 0.62753 0.0
H1708 H 0.72178 0.48185 0.54861 0.0
H1709 H 0.74198 0.46374 0.51885 0.0
H1710 H 0.86457 0.46294 0.5457 0.0
H1711 H 0.8449 0.48089 0.57584 0.0
C1712 C 0.79366 0.55976 0.59419 0.0
C1713 C 0.83614 0.56079 0.59084 0.0
C1714 C 0.77514 0.5459 0.59764 0.0
C1715 C 0.79893 0.53285 0.59834 0.0
C1716 C 0.84164 0.53401 0.59563 0.0
C1717 C 0.85999 0.54782 0.59167 0.0
C1718 C 0.77912 0.51793 0.59996 0.0
C1719 C 0.78999 0.50704 0.58372 0.0
C1720 C 0.7481 0.51463 0.61628 0.0
C1721 C 0.73729 0.52511 0.63505 0.0
C1722 C 0.76781 0.53079 0.6497 0.0
C1723 C 0.7575 0.54073 0.66724 0.0
C1724 C 0.71672 0.54501 0.67041 0.0
C1725 C 0.68614 0.53931 0.65607 0.0
C1726 C 0.69628 0.52938 0.63849 0.0
C1727 C 0.71344 0.44895 0.59742 0.0
C1728 C 0.67187 0.44914 0.59112 0.0
C1729 C 0.73479 0.46229 0.60068 0.0
C1730 C 0.71485 0.47601 0.59777 0.0
C1731 C 0.67299 0.47619 0.59232 0.0
C1732 C 0.6518 0.46288 0.58879 0.0
C1733 C 0.73807 0.49019 0.59862 0.0
C1734 C 0.72761 0.50088 0.61515 0.0
C1735 C 0.76989 0.49327 0.58283 0.0
C1736 C 0.78175 0.48256 0.56462 0.0
C1737 C 0.75295 0.47771 0.54828 0.0
C1738 C 0.76431 0.4675 0.53132 0.0
C1739 C 0.8045 0.46216 0.53043 0.0
C1740 C 0.83343 0.46706 0.54644 0.0
C1741 C 0.8222 0.47725 0.56346 0.0
H1742 H 0.81325 0.45425 0.51728 0.0
H1743 H 0.70881 0.55271 0.684 0.0
H1744 H 0.9859 0.31807 0.15536 0.0
H1745 H 0.01491 0.29311 0.15428 0.0
H1746 H 0.92805 0.28062 0.10179 0.0
H1747 H 0.89804 0.30565 0.10321 0.0
H1748 H 0.94057 0.2579 0.13027 0.0
H1749 H 0.02521 0.29041 0.0873 0.0
H1750 H 0.06624 0.31278 0.07884 0.0
H1751 H 0.14918 0.30172 0.13354 0.0
H1752 H 0.10827 0.27938 0.14257 0.0
H1753 H 0.06511 0.19801 0.08819 0.0
H1754 H 0.03221 0.22241 0.08964 0.0
H1755 H 0.0886 0.23095 0.15532 0.0
H1756 H 0.12096 0.2063 0.15435 0.0
H1757 H 0.09106 0.25531 0.1181 0.0
H1758 H -0.0002 0.22203 0.16 0.0
H1759 H 0.95873 0.19912 0.16375 0.0
H1760 H 0.88807 0.21146 0.10447 0.0
H1761 H 0.92917 0.23435 0.10018 0.0
C1762 C 0.97252 0.30996 0.14381 0.0
C1763 C 0.93994 0.31386 0.1292 0.0
C1764 C 0.98931 0.29571 0.14311 0.0
C1765 C 0.97441 0.2851 0.12751 0.0
C1766 C 0.94026 0.28867 0.11384 0.0
C1767 C 0.92308 0.30295 0.1147 0.0
C1768 C 0.99581 0.2706 0.12494 0.0
C1769 C 0.97338 0.25737 0.12736 0.0
C1770 C 0.0387 0.26984 0.12106 0.0
C1771 C 0.06342 0.28329 0.11576 0.0
C1772 C 0.052 0.29281 0.09766 0.0
C1773 C 0.07527 0.30548 0.09274 0.0
C1774 C 0.11024 0.30869 0.10568 0.0
C1775 C 0.12205 0.29922 0.12355 0.0
C1776 C 0.09884 0.28655 0.12857 0.0
C1777 C 0.07097 0.20512 0.10285 0.0
C1778 C 0.09566 0.20021 0.12119 0.0
C1779 C 0.05198 0.21903 0.10366 0.0
C1780 C 0.05785 0.22839 0.12263 0.0
C1781 C 0.08372 0.22382 0.14056 0.0
C1782 C 0.10213 0.20976 0.13998 0.0
C1783 C 0.03593 0.24277 0.12398 0.0
C1784 C 0.05828 0.25594 0.12112 0.0
C1785 C 0.99292 0.24345 0.12686 0.0
C1786 C 0.96784 0.22981 0.12963 0.0
C1787 C 0.97574 0.21979 0.14765 0.0
C1788 C 0.95241 0.20683 0.1499 0.0
C1789 C 0.92089 0.20381 0.13431 0.0
C1790 C 0.91253 0.21379 0.1165 0.0
C1791 C 0.93581 0.22677 0.11417 0.0
H1792 H 0.90288 0.19376 0.13607 0.0
H1793 H 0.12825 0.31849 0.10183 0.0
H1794 H 0.37692 0.79803 0.1457 0.0
H1795 H 0.41327 0.77418 0.14671 0.0
H1796 H 0.51275 0.79354 0.10791 0.0
H1797 H 0.47555 0.81694 0.10572 0.0
H1798 H 0.50286 0.76835 0.09235 0.0
H1799 H 0.51579 0.78619 0.16901 0.0
H1800 H 0.49302 0.7959 0.20654 0.0
H1801 H 0.42327 0.7561 0.21826 0.0
H1802 H 0.44522 0.74623 0.18065 0.0
H1803 H 0.61894 0.70397 0.15883 0.0
H1804 H 0.5895 0.72907 0.15813 0.0
H1805 H 0.51646 0.71699 0.09912 0.0
H1806 H 0.54742 0.69242 0.09895 0.0
H1807 H 0.51896 0.73957 0.1645 0.0
H1808 H 0.49286 0.74524 0.06564 0.0
H1809 H 0.52649 0.7377 0.0295 0.0
H1810 H 0.64206 0.73452 0.06447 0.0
H1811 H 0.60925 0.74223 0.10074 0.0
C1812 C 0.40647 0.79712 0.13733 0.0
C1813 C 0.42329 0.80934 0.12558 0.0
C1814 C 0.42745 0.78352 0.13806 0.0
C1815 C 0.46625 0.78203 0.1277 0.0
C1816 C 0.48289 0.79428 0.11597 0.0
C1817 C 0.46155 0.80771 0.11475 0.0
C1818 C 0.4894 0.76771 0.12862 0.0
C1819 C 0.50639 0.76211 0.10818 0.0
C1820 C 0.4952 0.75965 0.14931 0.0
C1821 C 0.48184 0.76554 0.17192 0.0
C1822 C 0.49536 0.77956 0.17952 0.0
C1823 C 0.48263 0.78508 0.20082 0.0
C1824 C 0.45663 0.77664 0.21475 0.0
C1825 C 0.44336 0.76264 0.20743 0.0
C1826 C 0.45596 0.75707 0.18614 0.0
C1827 C 0.59707 0.7068 0.14553 0.0
C1828 C 0.58594 0.69628 0.12878 0.0
C1829 C 0.58005 0.72111 0.1452 0.0
C1830 C 0.55113 0.72511 0.12834 0.0
C1831 C 0.5396 0.71446 0.11188 0.0
C1832 C 0.55727 0.70033 0.11186 0.0
C1833 C 0.53205 0.74019 0.1282 0.0
C1834 C 0.51565 0.74589 0.14872 0.0
C1835 C 0.52839 0.7487 0.10778 0.0
C1836 C 0.54848 0.74418 0.08596 0.0
C1837 C 0.52548 0.74299 0.0656 0.0
C1838 C 0.5444 0.73868 0.04509 0.0
C1839 C 0.58636 0.73559 0.04471 0.0
C1840 C 0.60953 0.73686 0.06481 0.0
C1841 C 0.59078 0.74119 0.08536 0.0
H1842 H 0.60094 0.73224 0.02882 0.0
H1843 H 0.44682 0.78093 0.23124 0.0
H1844 H 0.53234 0.81585 0.36548 0.0
H1845 H 0.49605 0.79218 0.36308 0.0
H1846 H 0.61129 0.76874 0.36776 0.0
H1847 H 0.64791 0.79264 0.36837 0.0
H1848 H 0.5659 0.75418 0.34077 0.0
H1849 H 0.54141 0.77427 0.41562 0.0
H1850 H 0.52101 0.79343 0.44371 0.0
H1851 H 0.3991 0.79374 0.41592 0.0
H1852 H 0.4189 0.77469 0.38748 0.0
H1853 H 0.47654 0.68792 0.38984 0.0
H1854 H 0.51149 0.71191 0.38681 0.0
H1855 H 0.40908 0.72972 0.34899 0.0
H1856 H 0.37416 0.7055 0.35133 0.0
H1857 H 0.44655 0.7467 0.39241 0.0
H1858 H 0.47599 0.72527 0.3174 0.0
H1859 H 0.50029 0.70524 0.29186 0.0
H1860 H 0.61819 0.70627 0.32464 0.0
H1861 H 0.59433 0.72615 0.35064 0.0
C1862 C 0.54989 0.80562 0.36581 0.0
C1863 C 0.59281 0.80599 0.36732 0.0
C1864 C 0.52913 0.79208 0.36464 0.0
C1865 C 0.55067 0.77858 0.36604 0.0
C1866 C 0.59382 0.77897 0.36684 0.0
C1867 C 0.61477 0.79259 0.36723 0.0
C1868 C 0.52806 0.76417 0.36697 0.0
C1869 C 0.54012 0.75256 0.35227 0.0
C1870 C 0.49405 0.76194 0.38183 0.0
C1871 C 0.48175 0.77314 0.39929 0.0
C1872 C 0.51029 0.77846 0.41545 0.0
C1873 C 0.49883 0.7893 0.43143 0.0
C1874 C 0.45881 0.79483 0.43156 0.0
C1875 C 0.4301 0.78946 0.41579 0.0
C1876 C 0.4414 0.77862 0.39975 0.0
C1877 C 0.46136 0.69693 0.38087 0.0
C1878 C 0.42254 0.69484 0.37082 0.0
C1879 C 0.48145 0.7106 0.37912 0.0
C1880 C 0.46285 0.72252 0.36765 0.0
C1881 C 0.42387 0.7206 0.35787 0.0
C1882 C 0.40406 0.70679 0.35918 0.0
C1883 C 0.48434 0.73699 0.36614 0.0
C1884 C 0.47222 0.74849 0.38088 0.0
C1885 C 0.51882 0.73899 0.35178 0.0
C1886 C 0.53321 0.72707 0.33613 0.0
C1887 C 0.50694 0.72111 0.31933 0.0
C1888 C 0.52067 0.70981 0.30473 0.0
C1889 C 0.56072 0.70445 0.30667 0.0
C1890 C 0.58715 0.71041 0.32318 0.0
C1891 C 0.57355 0.7217 0.33784 0.0
H1892 H 0.5713 0.69571 0.29535 0.0
H1893 H 0.45003 0.80326 0.4439 0.0
H1894 H 0.08255 0.30371 0.403 0.0
H1895 H 0.05154 0.27894 0.40436 0.0
H1896 H 0.99744 0.28631 0.33762 0.0
H1897 H 0.02704 0.31124 0.33661 0.0
H1898 H 0.94223 0.27566 0.36414 0.0
H1899 H 0.08117 0.26182 0.34809 0.0
H1900 H 0.15601 0.26084 0.35381 0.0
H1901 H 0.13859 0.24065 0.42 0.0
H1902 H 0.0636 0.24173 0.41483 0.0
H1903 H 0.88965 0.20047 0.33697 0.0
H1904 H 0.91993 0.22536 0.33856 0.0
H1905 H 0.94774 0.21912 0.41037 0.0
H1906 H 0.91697 0.19426 0.40903 0.0
H1907 H 0.01536 0.22895 0.38339 0.0
H1908 H 0.87531 0.24224 0.39775 0.0
H1909 H 0.80094 0.24251 0.39025 0.0
H1910 H 0.82187 0.26308 0.32466 0.0
H1911 H 0.89646 0.26273 0.33164 0.0
C1912 C 0.06459 0.29995 0.38845 0.0
C1913 C 0.05724 0.30945 0.36969 0.0
C1914 C 0.04688 0.28575 0.38922 0.0
C1915 C 0.02218 0.28064 0.37103 0.0
C1916 C 0.01609 0.28997 0.35195 0.0
C1917 C 0.03325 0.30421 0.35133 0.0
C1918 C 0.00093 0.26595 0.37226 0.0
C1919 C 0.95849 0.26544 0.36805 0.0
C1920 C 0.02165 0.25259 0.37797 0.0
C1921 C 0.06674 0.25202 0.38119 0.0
C1922 C 0.09328 0.25731 0.36396 0.0
C1923 C 0.13574 0.25671 0.36709 0.0
C1924 C 0.15204 0.25074 0.38729 0.0
C1925 C 0.12592 0.24531 0.40439 0.0
C1926 C 0.08344 0.24591 0.40137 0.0
C1927 C 0.90159 0.20448 0.35321 0.0
C1928 C 0.90079 0.19539 0.37288 0.0
C1929 C 0.91892 0.21871 0.35408 0.0
C1930 C 0.93615 0.22408 0.37457 0.0
C1931 C 0.93466 0.21517 0.39438 0.0
C1932 C 0.91677 0.20102 0.39361 0.0
C1933 C 0.95711 0.23876 0.375 0.0
C1934 C -0.00066 0.23923 0.37955 0.0
C1935 C 0.93637 0.25206 0.36934 0.0
C1936 C 0.89151 0.25233 0.36513 0.0
C1937 C 0.86409 0.24671 0.38164 0.0
C1938 C 0.82189 0.2469 0.37751 0.0
C1939 C 0.8067 0.25277 0.35697 0.0
C1940 C 0.83369 0.25851 0.34055 0.0
C1941 C 0.87593 0.25833 0.3446 0.0
H1942 H 0.77401 0.25291 0.3538 0.0
H1943 H 0.18492 0.25027 0.38967 0.0
H1944 H 0.88859 0.79987 0.84118 0.0
H1945 H 0.92106 0.77532 0.84281 0.0
H1946 H 0.97702 0.78695 0.90762 0.0
H1947 H 0.94284 0.81097 0.90672 0.0
H1948 H 0.99473 0.76701 0.84112 0.0
H1949 H -0.00144 0.75814 0.94002 0.0
H1950 H 0.95617 0.76393 0.97399 0.0
H1951 H 0.84861 0.76565 0.93153 0.0
H1952 H 0.89029 0.75975 0.89736 0.0
H1953 H 0.13335 0.70768 0.86245 0.0
H1954 H 0.09832 0.73183 0.86265 0.0
H1955 H 0.99088 0.71107 0.89193 0.0
H1956 H 0.02666 0.6874 0.89326 0.0
H1957 H 0.99697 0.73533 0.91087 0.0
H1958 H 0.00347 0.72126 0.8313 0.0
H1959 H 0.03697 0.71373 0.79511 0.0
H1960 H 0.10701 0.75418 0.79493 0.0
H1961 H 0.07423 0.76187 0.83127 0.0
C1962 C 0.90715 0.79703 0.85598 0.0
C1963 C 0.91273 0.80728 0.87393 0.0
C1964 C 0.92597 0.78304 0.85683 0.0
C1965 C 0.95124 0.77913 0.87547 0.0
C1966 C 0.95682 0.78943 0.89336 0.0
C1967 C 0.93727 0.80323 0.89279 0.0
C1968 C 0.97291 0.76454 0.87588 0.0
C1969 C 0.99499 0.76005 0.85634 0.0
C1970 C 0.97303 0.75529 0.89559 0.0
C1971 C 0.94763 0.75862 0.91612 0.0
C1972 C 0.96584 0.75969 0.93796 0.0
C1973 C 0.94194 0.76301 0.95724 0.0
C1974 C 0.89974 0.76519 0.95491 0.0
C1975 C 0.88132 0.76401 0.9333 0.0
C1976 C 0.90507 0.7607 0.91397 0.0
C1977 C 0.10239 0.70838 0.86909 0.0
C1978 C 0.08281 0.69569 0.8779 0.0
C1979 C 0.08219 0.72214 0.86902 0.0
C1980 C 0.04149 0.72332 0.87692 0.0
C1981 C 0.02223 0.71059 0.88583 0.0
C1982 C 0.04276 0.69701 0.88655 0.0
C1983 C 0.01855 0.73767 0.876 0.0
C1984 C 0.99651 0.74221 0.89556 0.0
C1985 C 0.01706 0.74663 0.85597 0.0
C1986 C 0.0367 0.74206 0.8341 0.0
C1987 C 0.02619 0.7285 0.8236 0.0
C1988 C 0.04502 0.72421 0.80306 0.0
C1989 C 0.07418 0.73345 0.79276 0.0
C1990 C 0.08447 0.74702 0.80295 0.0
C1991 C 0.06575 0.75136 0.8235 0.0
H1992 H 0.08873 0.73011 0.77686 0.0
H1993 H 0.8813 0.76777 0.96985 0.0
H1994 H 0.52166 0.18826 0.84601 0.0
H1995 H 0.49486 0.21357 0.84648 0.0
H1996 H 0.56924 0.22363 0.90577 0.0
H1997 H 0.59639 0.19815 0.90542 0.0
H1998 H 0.48758 0.23227 0.91072 0.0
H1999 H 0.595 0.23785 0.85496 0.0
H2000 H 0.63411 0.23142 0.82008 0.0
H2001 H 0.52699 0.23857 0.77865 0.0
H2002 H 0.48705 0.24483 0.81333 0.0
H2003 H 0.44686 0.3097 0.91054 0.0
H2004 H 0.47711 0.28496 0.91074 0.0
H2005 H 0.4204 0.2755 0.84532 0.0
H2006 H 0.39133 0.3006 0.84458 0.0
H2007 H 0.49526 0.26658 0.84407 0.0
H2008 H 0.38664 0.26007 0.89844 0.0
H2009 H 0.3449 0.26567 0.9327 0.0
H2010 H 0.45007 0.25932 0.97597 0.0
H2011 H 0.49259 0.25388 0.94194 0.0
C2012 C 0.53271 0.19588 0.85903 0.0
C2013 C 0.56123 0.1912 0.87566 0.0
C2014 C 0.51741 0.21037 0.85923 0.0
C2015 C 0.53021 0.22051 0.87607 0.0
C2016 C 0.55904 0.21597 0.89259 0.0
C2017 C 0.5747 0.20145 0.89228 0.0
C2018 C 0.51214 0.23566 0.8768 0.0
C2019 C 0.48981 0.23991 0.89633 0.0
C2020 C 0.51391 0.24537 0.85768 0.0
C2021 C 0.53794 0.24169 0.83678 0.0
C2022 C 0.57969 0.23794 0.83844 0.0
C2023 C 0.60202 0.23434 0.81869 0.0
C2024 C 0.58302 0.23456 0.79717 0.0
C2025 C 0.54166 0.2384 0.79534 0.0
C2026 C 0.51917 0.24198 0.81503 0.0
C2027 C 0.4404 0.30232 0.89628 0.0
C2028 C 0.41656 0.30714 0.87754 0.0
C2029 C 0.45764 0.28811 0.89647 0.0
C2030 C 0.45069 0.27821 0.8782 0.0
C2031 C 0.42627 0.28291 0.85963 0.0
C2032 C 0.4095 0.29724 0.85926 0.0
C2033 C 0.47032 0.26325 0.878 0.0
C2034 C 0.493 0.25901 0.85854 0.0
C2035 C 0.46842 0.25346 0.89709 0.0
C2036 C 0.4429 0.25672 0.9176 0.0
C2037 C 0.40095 0.25998 0.91524 0.0
C2038 C 0.37713 0.26311 0.93463 0.0
C2039 C 0.39485 0.26289 0.95649 0.0
C2040 C 0.4364 0.25951 0.95902 0.0
C2041 C 0.46037 0.25639 0.93969 0.0
H2042 H 0.37636 0.26531 0.97148 0.0
H2043 H 0.60037 0.23178 0.78191 0.0
H2044 H 0.38719 0.20647 0.652 0.0
H2045 H 0.42036 0.2309 0.65287 0.0
H2046 H 0.47316 0.22243 0.58611 0.0
H2047 H 0.43865 0.19843 0.5847 0.0
H2048 H 0.49487 0.23926 0.65406 0.0
H2049 H 0.48955 0.25344 0.55636 0.0
H2050 H 0.44397 0.24949 0.52307 0.0
H2051 H 0.34099 0.24437 0.56835 0.0
H2052 H 0.38582 0.24849 0.60188 0.0
H2053 H 0.63051 0.30022 0.63533 0.0
H2054 H 0.59547 0.27605 0.63454 0.0
H2055 H 0.4857 0.29748 0.60947 0.0
H2056 H 0.52158 0.32119 0.60853 0.0
H2057 H 0.4905 0.27427 0.58826 0.0
H2058 H 0.50331 0.28457 0.66887 0.0
H2059 H 0.53921 0.29045 0.70507 0.0
H2060 H 0.60969 0.25032 0.69913 0.0
H2061 H 0.57453 0.24428 0.66275 0.0
C2062 C 0.40539 0.20993 0.63738 0.0
C2063 C 0.40995 0.20056 0.6182 0.0
C2064 C 0.42458 0.22386 0.63795 0.0
C2065 C 0.44902 0.22864 0.61946 0.0
C2066 C 0.45372 0.21923 0.60037 0.0
C2067 C 0.43399 0.20545 0.59961 0.0
C2068 C 0.47027 0.24331 0.62025 0.0
C2069 C 0.49375 0.24696 0.63971 0.0
C2070 C 0.46841 0.25352 0.60174 0.0
C2071 C 0.44116 0.25112 0.58164 0.0
C2072 C 0.45716 0.25152 0.55921 0.0
C2073 C 0.43145 0.24925 0.54029 0.0
C2074 C 0.38964 0.24663 0.5436 0.0
C2075 C 0.37341 0.24634 0.56582 0.0
C2076 C 0.39896 0.24862 0.58478 0.0
C2077 C 0.59897 0.29966 0.62958 0.0
C2078 C 0.57879 0.31251 0.62188 0.0
C2079 C 0.57877 0.28588 0.62931 0.0
C2080 C 0.53751 0.28485 0.62227 0.0
C2081 C 0.5175 0.29782 0.61481 0.0
C2082 C 0.53802 0.31142 0.61433 0.0
C2083 C 0.51497 0.27038 0.62219 0.0
C2084 C 0.49151 0.26667 0.60273 0.0
C2085 C 0.5154 0.26045 0.64113 0.0
C2086 C 0.53658 0.26405 0.66298 0.0
C2087 C 0.52666 0.27705 0.67521 0.0
C2088 C 0.54684 0.28041 0.69577 0.0
C2089 C 0.57678 0.27079 0.70436 0.0
C2090 C 0.58654 0.25777 0.69244 0.0
C2091 C 0.56647 0.25437 0.67186 0.0
H2092 H 0.59237 0.2734 0.72028 0.0
H2093 H 0.3698 0.24487 0.52894 0.0
H2094 H 0.9241 0.70012 0.65356 0.0
H2095 H 0.95475 0.72488 0.65145 0.0
H2096 H 0.93418 0.72577 0.57823 0.0
H2097 H 0.90365 0.70095 0.58015 0.0
H2098 H 0.01231 0.73324 0.58886 0.0
H2099 H 0.87838 0.74775 0.61359 0.0
H2100 H 0.81671 0.74725 0.63808 0.0
H2101 H 0.88896 0.7599 0.69659 0.0
H2102 H 0.95121 0.76028 0.67252 0.0
H2103 H 0.06966 0.80937 0.57405 0.0
H2104 H 0.03543 0.78521 0.5745 0.0
H2105 H 0.04666 0.7836 0.64836 0.0
H2106 H 0.08005 0.80794 0.64809 0.0
H2107 H 0.97148 0.77665 0.63619 0.0
H2108 H 0.1057 0.76171 0.61169 0.0
H2109 H 0.16765 0.76179 0.58742 0.0
H2110 H 0.09545 0.74952 0.52869 0.0
H2111 H 0.03293 0.74962 0.55253 0.0
C2112 C 0.92543 0.70567 0.63705 0.0
C2113 C 0.91143 0.69852 0.61702 0.0
C2114 C 0.94294 0.71985 0.63588 0.0
C2115 C 0.94673 0.72721 0.61468 0.0
C2116 C 0.93165 0.7203 0.59476 0.0
C2117 C 0.91395 0.70613 0.59592 0.0
C2118 C 0.96842 0.74173 0.61319 0.0
C2119 C 0.003 0.74283 0.59891 0.0
C2120 C 0.95692 0.7541 0.62676 0.0
C2121 C 0.91953 0.75391 0.64128 0.0
C2122 C 0.88119 0.75031 0.63172 0.0
C2123 C 0.84611 0.75007 0.64552 0.0
C2124 C 0.84893 0.75351 0.66889 0.0
C2125 C 0.88683 0.75722 0.67849 0.0
C2126 C 0.92201 0.75747 0.66478 0.0
C2127 C 0.06542 0.80379 0.59038 0.0
C2128 C 0.07766 0.81061 0.61105 0.0
C2129 C 0.04585 0.78994 0.5906 0.0
C2130 C 0.0386 0.7825 0.61146 0.0
C2131 C 0.05177 0.78912 0.63205 0.0
C2132 C 0.07108 0.80301 0.63186 0.0
C2133 C 0.01568 0.76817 0.61198 0.0
C2134 C 0.9808 0.7671 0.62606 0.0
C2135 C 0.02698 0.75582 0.59826 0.0
C2136 C 0.06453 0.75586 0.58385 0.0
C2137 C 0.10295 0.75918 0.59355 0.0
C2138 C 0.13819 0.75917 0.57988 0.0
C2139 C 0.13547 0.75571 0.55651 0.0
C2140 C 0.0975 0.75223 0.54678 0.0
C2141 C 0.06215 0.75227 0.56036 0.0
H2142 H 0.16279 0.75569 0.54596 0.0
H2143 H 0.82174 0.75332 0.67954 0.0
H2144 H 0.06523 0.1067 0.15522 0.0
H2145 H 0.02426 0.10336 0.19013 0.0
H2146 H 0.02894 0.15062 0.2027 0.0
H2147 H 0.06984 0.15408 0.16811 0.0
H2148 H 0.04252 0.13457 0.24144 0.0
H2149 H 0.94624 0.13587 0.17875 0.0
H2150 H 0.91723 0.12772 0.14169 0.0
H2151 H 0.89609 0.08412 0.16938 0.0
H2152 H 0.9256 0.09195 0.20653 0.0
H2153 H 0.8875 0.15096 0.31605 0.0
H2154 H 0.91428 0.1486 0.27716 0.0
H2155 H 0.91988 0.10097 0.28484 0.0
H2156 H 0.89312 0.10314 0.32397 0.0
H2157 H 0.90114 0.11425 0.23638 0.0
H2158 H -0.00141 0.1141 0.29998 0.0
H2159 H 0.02383 0.1239 0.33698 0.0
H2160 H 0.04048 0.16699 0.30654 0.0
H2161 H 0.01455 0.1575 0.26947 0.0
C2162 C 0.05788 0.11635 0.16556 0.0
C2163 C 0.07055 0.13067 0.15884 0.0
C2164 C 0.03432 0.11443 0.18539 0.0
C2165 C 0.02329 0.12677 0.19875 0.0
C2166 C 0.03712 0.14097 0.19253 0.0
C2167 C 0.06041 0.14292 0.17273 0.0
C2168 C 0.99672 0.12511 0.21909 0.0
C2169 C 0.01164 0.13013 0.24029 0.0
C2170 C 0.9566 0.11915 0.21757 0.0
C2171 C 0.93858 0.11444 0.19532 0.0
C2172 C 0.93573 0.12451 0.17687 0.0
C2173 C 0.91914 0.11996 0.15586 0.0
C2174 C 0.90494 0.1054 0.15316 0.0
C2175 C 0.90718 0.09538 0.17149 0.0
C2176 C 0.92383 0.09987 0.19253 0.0
C2177 C 0.89325 0.13993 0.30933 0.0
C2178 C 0.88939 0.12727 0.32334 0.0
C2179 C 0.90827 0.13861 0.28703 0.0
C2180 C 0.9195 0.12464 0.27844 0.0
C2181 C 0.91132 0.11183 0.29132 0.0
C2182 C 0.89636 0.11313 0.31372 0.0
C2183 C 0.94698 0.12387 0.25843 0.0
C2184 C 0.93229 0.11842 0.23745 0.0
C2185 C 0.98731 0.12953 0.26001 0.0
C2186 C 0.00435 0.13512 0.28203 0.0
C2187 C 0.00742 0.12569 0.30123 0.0
C2188 C 0.02184 0.13118 0.3222 0.0
C2189 C 0.03368 0.14607 0.32412 0.0
C2190 C 0.03127 0.15547 0.30503 0.0
C2191 C 0.01674 0.15003 0.28403 0.0
H2192 H 0.0448 0.15031 0.34038 0.0
H2193 H 0.89209 0.1019 0.13688 0.0
H2194 H 0.40465 0.90568 0.1628 0.0
H2195 H 0.42302 0.91135 0.20271 0.0
H2196 H 0.42702 0.86443 0.21806 0.0
H2197 H 0.40848 0.85867 0.17857 0.0
H2198 H 0.39277 0.88052 0.25326 0.0
H2199 H 0.51321 0.883 0.20252 0.0
H2200 H 0.55163 0.89347 0.16975 0.0
H2201 H 0.54397 0.93703 0.19971 0.0
H2202 H 0.50506 0.92681 0.23253 0.0
H2203 H 0.54 0.85728 0.32976 0.0
H2204 H 0.49872 0.86371 0.29644 0.0
H2205 H 0.52169 0.91032 0.30837 0.0
H2206 H 0.56375 0.90399 0.34191 0.0
H2207 H 0.53131 0.90245 0.26311 0.0
H2208 H 0.42859 0.89744 0.31977 0.0
H2209 H 0.39323 0.88601 0.35279 0.0
H2210 H 0.36759 0.84709 0.31252 0.0
H2211 H 0.4034 0.85817 0.27935 0.0
C2212 C 0.40891 0.89659 0.17477 0.0
C2213 C 0.40569 0.88171 0.16744 0.0
C2214 C 0.41935 0.89986 0.19754 0.0
C2215 C 0.42663 0.8883 0.21324 0.0
C2216 C 0.42141 0.87351 0.20622 0.0
C2217 C 0.41116 0.87024 0.18355 0.0
C2218 C 0.44353 0.89124 0.23638 0.0
C2219 C 0.42289 0.88541 0.25552 0.0
C2220 C 0.48221 0.8981 0.23937 0.0
C2221 C 0.50585 0.90419 0.21978 0.0
C2222 C 0.51952 0.89482 0.20202 0.0
C2223 C 0.54139 0.90071 0.18346 0.0
C2224 C 0.55011 0.91592 0.18261 0.0
C2225 C 0.5371 0.92526 0.20036 0.0
C2226 C 0.51514 0.91944 0.21894 0.0
C2227 C 0.53638 0.86892 0.32539 0.0
C2228 C 0.55508 0.88012 0.33857 0.0
C2229 C 0.51247 0.87258 0.30642 0.0
C2230 C 0.50648 0.8875 0.30026 0.0
C2231 C 0.52565 0.89875 0.31304 0.0
C2232 C 0.54966 0.89509 0.33215 0.0
C2233 C 0.48145 0.89102 0.27979 0.0
C2234 C 0.50051 0.89807 0.26115 0.0
C2235 C 0.4413 0.88528 0.2773 0.0
C2236 C 0.4188 0.87865 0.29704 0.0
C2237 C 0.41556 0.88642 0.31796 0.0
C2238 C 0.39544 0.88 0.33672 0.0
C2239 C 0.3782 0.86583 0.33476 0.0
C2240 C 0.38093 0.85808 0.31401 0.0
C2241 C 0.40107 0.86444 0.2952 0.0
H2242 H 0.36271 0.86087 0.34932 0.0
H2243 H 0.56705 0.92045 0.16823 0.0
H2244 H 0.92048 0.9004 0.82946 0.0
H2245 H 0.93969 0.90439 0.78928 0.0
H2246 H 0.93468 0.85708 0.77726 0.0
H2247 H 0.9152 0.85297 0.81718 0.0
H2248 H 0.00795 0.89437 0.76825 0.0
H2249 H 0.90585 0.85006 0.72279 0.0
H2250 H 0.83629 0.83956 0.7263 0.0
H2251 H 0.79525 0.87941 0.75979 0.0
H2252 H 0.86438 0.89025 0.75619 0.0
H2253 H 0.04012 0.85522 0.65256 0.0
H2254 H 0.00434 0.85811 0.68901 0.0
H2255 H 0.0225 0.90561 0.68591 0.0
H2256 H 0.05919 0.90281 0.64948 0.0
H2257 H 0.93579 0.87273 0.70104 0.0
H2258 H 0.03624 0.91814 0.74141 0.0
H2259 H 0.10648 0.92821 0.73861 0.0
H2260 H 0.15068 0.88558 0.71641 0.0
H2261 H 0.08083 0.87524 0.71936 0.0
C2262 C 0.92307 0.89085 0.81821 0.0
C2263 C 0.91652 0.87635 0.82657 0.0
C2264 C 0.93403 0.89316 0.79527 0.0
C2265 C 0.93823 0.88105 0.78027 0.0
C2266 C 0.93091 0.86661 0.78845 0.0
C2267 C 0.92004 0.86428 0.81135 0.0
C2268 C 0.95326 0.88326 0.75652 0.0
C2269 C 0.99172 0.88996 0.75346 0.0
C2270 C 0.93232 0.8773 0.73733 0.0
C2271 C 0.89045 0.87092 0.73936 0.0
C2272 C 0.88195 0.85662 0.7308 0.0
C2273 C 0.84259 0.8506 0.73282 0.0
C2274 C 0.8114 0.8588 0.74331 0.0
C2275 C 0.81947 0.87305 0.75174 0.0
C2276 C 0.85876 0.87913 0.74974 0.0
C2277 C 0.03657 0.8663 0.65956 0.0
C2278 C 0.0528 0.87878 0.64816 0.0
C2279 C 0.01586 0.86794 0.68035 0.0
C2280 C 0.01098 0.88205 0.69021 0.0
C2281 C 0.02636 0.89459 0.6787 0.0
C2282 C 0.04727 0.89297 0.65788 0.0
C2283 C 0.99094 0.88341 0.71294 0.0
C2284 C 0.95155 0.8774 0.71578 0.0
C2285 C 0.01106 0.88996 0.73195 0.0
C2286 C 0.05325 0.896 0.73031 0.0
C2287 C 0.06099 0.91093 0.73597 0.0
C2288 C 0.10072 0.91668 0.73436 0.0
C2289 C 0.13299 0.90756 0.72724 0.0
C2290 C 0.12563 0.89265 0.72182 0.0
C2291 C 0.08597 0.88685 0.72343 0.0
H2292 H 0.16371 0.91203 0.72599 0.0
H2293 H 0.78096 0.85412 0.74487 0.0
H2294 H 0.58251 0.10238 0.82859 0.0
H2295 H 0.55242 0.1009 0.79012 0.0
H2296 H 0.57716 0.14755 0.77967 0.0
H2297 H 0.6068 0.14919 0.818 0.0
H2298 H 0.49593 0.14046 0.77601 0.0
H2299 H 0.62554 0.12199 0.74801 0.0
H2300 H 0.68464 0.10492 0.74701 0.0
H2301 H 0.60416 0.06817 0.73337 0.0
H2302 H 0.54448 0.085 0.73459 0.0
H2303 H 0.44041 0.15498 0.66261 0.0
H2304 H 0.47701 0.15116 0.69853 0.0
H2305 H 0.44468 0.10462 0.69753 0.0
H2306 H 0.40829 0.10827 0.66113 0.0
H2307 H 0.52556 0.10893 0.70807 0.0
H2308 H 0.39657 0.12723 0.73414 0.0
H2309 H 0.33683 0.14399 0.73535 0.0
H2310 H 0.41506 0.18055 0.75359 0.0
H2311 H 0.47538 0.16405 0.75217 0.0
C2312 C 0.58251 0.11222 0.81787 0.0
C2313 C 0.59623 0.12598 0.82647 0.0
C2314 C 0.56541 0.11134 0.79589 0.0
C2315 C 0.56226 0.12416 0.78226 0.0
C2316 C 0.57906 0.13758 0.79009 0.0
C2317 C 0.59595 0.13849 0.812 0.0
C2318 C 0.53676 0.1242 0.76134 0.0
C2319 C 0.5027 0.1337 0.76103 0.0
C2320 C 0.54465 0.11485 0.74233 0.0
C2321 C 0.5805 0.10473 0.74166 0.0
C2322 C 0.6204 0.11025 0.74503 0.0
C2323 C 0.65402 0.10062 0.74437 0.0
C2324 C 0.64815 0.08546 0.74021 0.0
C2325 C 0.60866 0.07991 0.73664 0.0
C2326 C 0.57493 0.08949 0.73729 0.0
C2327 C 0.44075 0.14393 0.67003 0.0
C2328 C 0.42133 0.13193 0.65903 0.0
C2329 C 0.46166 0.14178 0.6906 0.0
C2330 C 0.46317 0.12764 0.70073 0.0
C2331 C 0.44376 0.11562 0.68992 0.0
C2332 C 0.42285 0.11775 0.66922 0.0
C2333 C 0.48559 0.12557 0.72252 0.0
C2334 C 0.51872 0.11561 0.72311 0.0
C2335 C 0.4768 0.13444 0.74195 0.0
C2336 C 0.44055 0.14441 0.74288 0.0
C2337 C 0.40108 0.13886 0.73824 0.0
C2338 C 0.3671 0.14832 0.739 0.0
C2339 C 0.37215 0.16333 0.7445 0.0
C2340 C 0.41119 0.16892 0.74932 0.0
C2341 C 0.44528 0.15951 0.74856 0.0
H2342 H 0.34581 0.17063 0.74508 0.0
H2343 H 0.67422 0.07803 0.73969 0.0
H2344 H 0.41514 0.64276 0.32258 0.0
H2345 H 0.44096 0.6359 0.28485 0.0
H2346 H 0.45089 0.59013 0.30638 0.0
H2347 H 0.42443 0.59692 0.34455 0.0
H2348 H 0.52301 0.60214 0.28541 0.0
H2349 H 0.38303 0.59612 0.26791 0.0
H2350 H 0.30915 0.60184 0.26773 0.0
H2351 H 0.33252 0.64228 0.2307 0.0
H2352 H 0.4066 0.63694 0.23096 0.0
H2353 H 0.58652 0.5998 0.16415 0.0
H2354 H 0.55284 0.59288 0.20032 0.0
H2355 H 0.51798 0.63862 0.21097 0.0
H2356 H 0.55157 0.64568 0.1752 0.0
H2357 H 0.45232 0.61732 0.21364 0.0
H2358 H 0.59251 0.62566 0.24108 0.0
H2359 H 0.66663 0.62033 0.24212 0.0
H2360 H 0.64161 0.57496 0.26046 0.0
H2361 H 0.56725 0.58 0.25923 0.0
C2362 C 0.42249 0.6312 0.31932 0.0
C2363 C 0.41798 0.62039 0.33655 0.0
C2364 C 0.43697 0.62728 0.29769 0.0
C2365 C 0.44743 0.6125 0.29284 0.0
C2366 C 0.44269 0.60158 0.30985 0.0
C2367 C 0.42757 0.60548 0.33155 0.0
C2368 C 0.46577 0.60904 0.2703 0.0
C2369 C 0.50726 0.60497 0.26958 0.0
C2370 C 0.44511 0.6128 0.24976 0.0
C2371 C 0.40049 0.61612 0.2495 0.0
C2372 C 0.37247 0.60628 0.25985 0.0
C2373 C 0.33053 0.60945 0.25972 0.0
C2374 C 0.31615 0.62241 0.24922 0.0
C2375 C 0.34369 0.63223 0.23881 0.0
C2376 C 0.38568 0.62912 0.2389 0.0
C2377 C 0.57202 0.6084 0.17433 0.0
C2378 C 0.57147 0.62328 0.16675 0.0
C2379 C 0.55285 0.60441 0.19493 0.0
C2380 C 0.53271 0.61524 0.20805 0.0
C2381 C 0.53314 0.63011 0.20087 0.0
C2382 C 0.55256 0.63413 0.1805 0.0
C2383 C 0.50992 0.61128 0.22904 0.0
C2384 C 0.4676 0.61392 0.22935 0.0
C2385 C 0.52977 0.60616 0.24912 0.0
C2386 C 0.57438 0.60315 0.24972 0.0
C2387 C 0.60282 0.61451 0.24508 0.0
C2388 C 0.64486 0.61155 0.24577 0.0
C2389 C 0.65882 0.5973 0.25126 0.0
C2390 C 0.63075 0.58598 0.25614 0.0
C2391 C 0.58867 0.58888 0.25545 0.0
H2392 H 0.69139 0.59503 0.2518 0.0
H2393 H 0.28367 0.62485 0.24913 0.0
H2394 H 0.0733 0.36022 0.32078 0.0
H2395 H 0.05214 0.36857 0.28282 0.0
H2396 H 0.04728 0.4139 0.30692 0.0
H2397 H 0.06882 0.40564 0.34527 0.0
H2398 H 0.97718 0.40463 0.28148 0.0
H2399 H 0.12049 0.40702 0.27203 0.0
H2400 H 0.19248 0.39904 0.27557 0.0
H2401 H 0.16718 0.3605 0.23436 0.0
H2402 H 0.09488 0.3681 0.23087 0.0
H2403 H 0.92495 0.40836 0.15912 0.0
H2404 H 0.95969 0.41545 0.195 0.0
H2405 H 0.9901 0.36946 0.20735 0.0
H2406 H 0.95566 0.36228 0.17204 0.0
H2407 H 0.05677 0.38944 0.2127 0.0
H2408 H 0.91095 0.38399 0.23394 0.0
H2409 H 0.83825 0.39133 0.23127 0.0
H2410 H 0.86975 0.43605 0.25028 0.0
H2411 H 0.94275 0.42898 0.2528 0.0
C2412 C 0.06782 0.37197 0.3181 0.0
C2413 C 0.07273 0.38226 0.33605 0.0
C2414 C 0.05599 0.37674 0.29635 0.0
C2415 C 0.04875 0.39186 0.29208 0.0
C2416 C 0.05307 0.4022 0.30993 0.0
C2417 C 0.06534 0.39744 0.33177 0.0
C2418 C 0.03511 0.39644 0.26897 0.0
C2419 C 0.995 0.40179 0.26636 0.0
C2420 C 0.05855 0.39279 0.24934 0.0
C2421 C 0.10215 0.38815 0.25122 0.0
C2422 C 0.13019 0.39679 0.26383 0.0
C2423 C 0.17108 0.39234 0.26582 0.0
C2424 C 0.18439 0.37927 0.2552 0.0
C2425 C 0.15684 0.37064 0.24255 0.0
C2426 C 0.1159 0.37503 0.24052 0.0
C2427 C 0.93907 0.39979 0.16953 0.0
C2428 C 0.93753 0.38476 0.16278 0.0
C2429 C 0.95887 0.40386 0.18993 0.0
C2430 C 0.97761 0.39297 0.20361 0.0
C2431 C 0.9761 0.37802 0.19686 0.0
C2432 C 0.9561 0.37394 0.17674 0.0
C2433 C 0.99814 0.39667 0.22543 0.0
C2434 C 0.03963 0.39292 0.22775 0.0
C2435 C 0.97604 0.40182 0.24474 0.0
C2436 C 0.93226 0.40602 0.24324 0.0
C2437 C 0.90238 0.39542 0.23735 0.0
C2438 C 0.86113 0.39952 0.23591 0.0
C2439 C 0.8494 0.41416 0.24052 0.0
C2440 C 0.87889 0.42472 0.24665 0.0
C2441 C 0.92019 0.42068 0.24809 0.0
H2442 H 0.81745 0.41732 0.23941 0.0
H2443 H 0.21606 0.37584 0.25676 0.0
H2444 H 0.40017 0.4021 0.83555 0.0
H2445 H 0.42908 0.40834 0.79784 0.0
H2446 H 0.47348 0.36341 0.79081 0.0
H2447 H 0.44454 0.35701 0.82814 0.0
H2448 H 0.53385 0.38657 0.78498 0.0
H2449 H 0.39599 0.37263 0.76061 0.0
H2450 H 0.32071 0.37506 0.76009 0.0
H2451 H 0.33172 0.42034 0.73743 0.0
H2452 H 0.40715 0.41822 0.73811 0.0
H2453 H 0.58017 0.36327 0.6752 0.0
H2454 H 0.55243 0.3684 0.71316 0.0
H2455 H 0.52197 0.41308 0.69222 0.0
H2456 H 0.55004 0.40803 0.65379 0.0
H2457 H 0.45693 0.3978 0.71348 0.0
H2458 H 0.59454 0.40993 0.73007 0.0
H2459 H 0.66976 0.40738 0.72984 0.0
H2460 H 0.66021 0.36633 0.76718 0.0
H2461 H 0.5849 0.3685 0.76735 0.0
C2462 C 0.41569 0.39351 0.82584 0.0
C2463 C 0.42035 0.37908 0.83491 0.0
C2464 C 0.43209 0.3971 0.80434 0.0
C2465 C 0.45359 0.38635 0.79176 0.0
C2466 C 0.45715 0.37186 0.80042 0.0
C2467 C 0.44043 0.36822 0.82171 0.0
C2468 C 0.47432 0.39015 0.77003 0.0
C2469 C 0.51715 0.38905 0.76931 0.0
C2470 C 0.45244 0.39405 0.74996 0.0
C2471 C 0.40717 0.39534 0.74976 0.0
C2472 C 0.38236 0.38316 0.75579 0.0
C2473 C 0.33967 0.38446 0.75539 0.0
C2474 C 0.32144 0.39787 0.74882 0.0
C2475 C 0.34588 0.40998 0.74257 0.0
C2476 C 0.3886 0.40873 0.74296 0.0
C2477 C 0.56793 0.37425 0.67864 0.0
C2478 C 0.56713 0.38523 0.66148 0.0
C2479 C 0.55231 0.37719 0.70041 0.0
C2480 C 0.5355 0.39115 0.70549 0.0
C2481 C 0.53503 0.40226 0.68857 0.0
C2482 C 0.55115 0.39937 0.66672 0.0
C2483 C 0.51638 0.39349 0.72821 0.0
C2484 C 0.47388 0.39579 0.72923 0.0
C2485 C 0.53858 0.39077 0.74864 0.0
C2486 C 0.58397 0.38937 0.74865 0.0
C2487 C 0.60844 0.4003 0.7381 0.0
C2488 C 0.65112 0.39893 0.738 0.0
C2489 C 0.66975 0.38669 0.74848 0.0
C2490 C 0.64574 0.37581 0.75909 0.0
C2491 C 0.60304 0.37712 0.75923 0.0
H2492 H 0.7028 0.38565 0.74839 0.0
H2493 H 0.28838 0.39885 0.7485 0.0
H2494 H 0.07727 0.60235 0.8297 0.0
H2495 H 0.05532 0.60024 0.78953 0.0
H2496 H 0.07913 0.64699 0.77954 0.0
H2497 H 0.10064 0.64926 0.81944 0.0
H2498 H 0.00011 0.63908 0.76998 0.0
H2499 H 0.13669 0.62158 0.75288 0.0
H2500 H 0.19643 0.605 0.75689 0.0
H2501 H 0.12241 0.56753 0.7376 0.0
H2502 H 0.06205 0.58387 0.73377 0.0
H2503 H 0.96523 0.65264 0.65447 0.0
H2504 H 0.00019 0.64905 0.691 0.0
H2505 H 0.96946 0.60239 0.68975 0.0
H2506 H 0.93473 0.60581 0.65276 0.0
H2507 H 0.04861 0.6075 0.70555 0.0
H2508 H 0.91298 0.62464 0.72161 0.0
H2509 H 0.85249 0.64088 0.71767 0.0
H2510 H 0.92356 0.67842 0.73993 0.0
H2511 H 0.98465 0.66245 0.74369 0.0
C2512 C 0.07863 0.6121 0.8188 0.0
C2513 C 0.08989 0.62603 0.82783 0.0
C2514 C 0.06624 0.61086 0.79586 0.0
C2515 C 0.06537 0.62349 0.78171 0.0
C2516 C 0.07933 0.63715 0.79029 0.0
C2517 C 0.09151 0.63842 0.81312 0.0
C2518 C 0.04524 0.62309 0.759 0.0
C2519 C 0.01105 0.6323 0.75581 0.0
C2520 C 0.0585 0.61375 0.74093 0.0
C2521 C 0.09473 0.60392 0.74331 0.0
C2522 C 0.13304 0.60978 0.74973 0.0
C2523 C 0.16705 0.60043 0.75191 0.0
C2524 C 0.16319 0.58521 0.74758 0.0
C2525 C 0.12533 0.57931 0.74099 0.0
C2526 C 0.09123 0.58862 0.73879 0.0
C2527 C 0.96592 0.64159 0.66187 0.0
C2528 C 0.94673 0.62954 0.65086 0.0
C2529 C 0.98599 0.63956 0.68273 0.0
C2530 C 0.98682 0.6255 0.69318 0.0
C2531 C 0.96902 0.61332 0.68192 0.0
C2532 C 0.94907 0.61532 0.66088 0.0
C2533 C 0.00447 0.62388 0.71641 0.0
C2534 C 0.03772 0.61422 0.71978 0.0
C2535 C 0.99026 0.63273 0.73484 0.0
C2536 C 0.95347 0.64236 0.73276 0.0
C2537 C 0.91578 0.63638 0.72551 0.0
C2538 C 0.88138 0.64553 0.72333 0.0
C2539 C 0.8842 0.66067 0.7285 0.0
C2540 C 0.92142 0.66669 0.73591 0.0
C2541 C 0.95594 0.65759 0.7381 0.0
H2542 H 0.85753 0.66774 0.7268 0.0
H2543 H 0.18956 0.57799 0.74926 0.0
loop_
_geom_bond_atom_site_label_1
_geom_bond_atom_site_label_2
_geom_bond_distance
_geom_bond_site_symmetry_2
_ccdc_geom_bond_type
Co0 O3 1.970 . S
Co0 N17 1.989 . S
Co0 O25 1.967 . S
Co0 O32 1.920 . S
Co1 O4 1.966 . S
Co1 N10 2.022 . S
Co1 N18 1.993 . S
Co1 O26 1.941 . S
C2 O3 1.258 . S
C2 O4 1.263 . S
O3 Co0 1.970 . S
O3 C2 1.258 . S
O4 Co1 1.966 . S
O4 C2 1.263 . S
C5 O6 1.235 . S
C5 O32 1.289 . S
O6 C5 1.235 . S
C7 C9 1.400 . S
C7 N10 1.351 . S
C7 C12 1.501 . S
C8 C9 1.387 . S
C8 N11 1.341 . S
C9 C7 1.400 . S
C9 C8 1.387 . S
N10 Co1 2.022 . S
N10 C7 1.351 . S
N10 N11 1.365 . S
N11 C8 1.341 . S
N11 N10 1.365 . S
N11 H31 0.862 . S
C12 C7 1.501 . S
C12 H13 0.961 . S
C12 H14 0.961 . S
C12 H15 0.960 . S
H13 C12 0.961 . S
H14 C12 0.961 . S
H15 C12 0.960 . S
C16 N17 1.342 . S
C16 C20 1.401 . S
C16 C21 1.499 . S
N17 Co0 1.989 . S
N17 C16 1.342 . S
N17 N18 1.388 . S
N18 Co1 1.993 . S
N18 N17 1.388 . S
N18 C19 1.346 . S
C19 N18 1.346 . S
C19 C20 1.396 . S
C19 C29 1.510 . S
C20 C16 1.401 . S
C20 C19 1.396 . S
C21 C16 1.499 . S
C21 H22 0.959 . S
C21 H23 0.960 . S
C21 H24 0.961 . S
H22 C21 0.959 . S
H23 C21 0.960 . S
H24 C21 0.961 . S
O25 Co0 1.967 . S
O25 C33 1.258 . S
O26 Co1 1.941 . S
O26 C33 1.266 . S
H27 C29 0.959 . S
H28 C29 0.961 . S
C29 C19 1.510 . S
C29 H27 0.959 . S
C29 H28 0.961 . S
C29 H30 0.960 . S
H30 C29 0.960 . S
H31 N11 0.862 . S
O32 Co0 1.920 . S
O32 C5 1.289 . S
C33 O25 1.258 . S
C33 O26 1.266 . S
Co34 O37 1.970 . S
Co34 N51 1.989 . S
Co34 O59 1.967 . S
Co34 O66 1.920 . S
Co35 O38 1.966 . S
Co35 N44 2.022 . S
Co35 N52 1.993 . S
Co35 O60 1.941 . S
C36 O37 1.258 . S
C36 O38 1.263 . S
O37 Co34 1.970 . S
O37 C36 1.258 . S
O38 Co35 1.966 . S
O38 C36 1.263 . S
C39 O40 1.235 . S
C39 O66 1.289 . S
O40 C39 1.235 . S
C41 C43 1.400 . S
C41 N44 1.351 . S
C41 C46 1.501 . S
C42 C43 1.387 . S
C42 N45 1.341 . S
C43 C41 1.400 . S
C43 C42 1.387 . S
N44 Co35 2.022 . S
N44 C41 1.351 . S
N44 N45 1.365 . S
N45 C42 1.341 . S
N45 N44 1.365 . S
N45 H65 0.862 . S
C46 C41 1.501 . S
C46 H47 0.961 . S
C46 H48 0.961 . S
C46 H49 0.960 . S
H47 C46 0.961 . S
H48 C46 0.961 . S
H49 C46 0.960 . S
C50 N51 1.342 . S
C50 C54 1.401 . S
C50 C55 1.499 . S
N51 Co34 1.989 . S
N51 C50 1.342 . S
N51 N52 1.388 . S
N52 Co35 1.993 . S
N52 N51 1.388 . S
N52 C53 1.346 . S
C53 N52 1.346 . S
C53 C54 1.396 . S
C53 C63 1.510 . S
C54 C50 1.401 . S
C54 C53 1.396 . S
C55 C50 1.499 . S
C55 H56 0.959 . S
C55 H57 0.960 . S
C55 H58 0.961 . S
H56 C55 0.959 . S
H57 C55 0.960 . S
H58 C55 0.961 . S
O59 Co34 1.967 . S
O59 C67 1.258 . S
O60 Co35 1.941 . S
O60 C67 1.266 . S
H61 C63 0.959 . S
H62 C63 0.961 . S
C63 C53 1.510 . S
C63 H61 0.959 . S
C63 H62 0.961 . S
C63 H64 0.960 . S
H64 C63 0.960 . S
H65 N45 0.862 . S
O66 Co34 1.920 . S
O66 C39 1.289 . S
C67 O59 1.258 . S
C67 O60 1.266 . S
Co68 O71 1.970 . S
Co68 N85 1.989 . S
Co68 O93 1.967 . S
Co68 O100 1.920 . S
Co69 O72 1.966 . S
Co69 N78 2.022 . S
Co69 N86 1.993 . S
Co69 O94 1.941 . S
C70 O71 1.258 . S
C70 O72 1.263 . S
O71 Co68 1.970 . S
O71 C70 1.258 . S
O72 Co69 1.966 . S
O72 C70 1.263 . S
C73 O74 1.235 . S
C73 O100 1.289 . S
O74 C73 1.235 . S
C75 C77 1.400 . S
C75 N78 1.351 . S
C75 C80 1.501 . S
C76 C77 1.387 . S
C76 N79 1.341 . S
C77 C75 1.400 . S
C77 C76 1.387 . S
N78 Co69 2.022 . S
N78 C75 1.351 . S
N78 N79 1.365 . S
N79 C76 1.341 . S
N79 N78 1.365 . S
N79 H99 0.862 . S
C80 C75 1.501 . S
C80 H81 0.961 . S
C80 H82 0.961 . S
C80 H83 0.960 . S
H81 C80 0.961 . S
H82 C80 0.961 . S
H83 C80 0.960 . S
C84 N85 1.342 . S
C84 C88 1.401 . S
C84 C89 1.499 . S
N85 Co68 1.989 . S
N85 C84 1.342 . S
N85 N86 1.388 . S
N86 Co69 1.993 . S
N86 N85 1.388 . S
N86 C87 1.346 . S
C87 N86 1.346 . S
C87 C88 1.396 . S
C87 C97 1.510 . S
C88 C84 1.401 . S
C88 C87 1.396 . S
C89 C84 1.499 . S
C89 H90 0.959 . S
C89 H91 0.960 . S
C89 H92 0.961 . S
H90 C89 0.959 . S
H91 C89 0.960 . S
H92 C89 0.961 . S
O93 Co68 1.967 . S
O93 C101 1.258 . S
O94 Co69 1.941 . S
O94 C101 1.266 . S
H95 C97 0.959 . S
H96 C97 0.961 . S
C97 C87 1.510 . S
C97 H95 0.959 . S
C97 H96 0.961 . S
C97 H98 0.960 . S
H98 C97 0.960 . S
H99 N79 0.862 . S
O100 Co68 1.920 . S
O100 C73 1.289 . S
C101 O93 1.258 . S
C101 O94 1.266 . S
Co102 O105 1.970 . S
Co102 N119 1.989 . S
Co102 O127 1.967 . S
Co102 O134 1.920 . S
Co103 O106 1.966 . S
Co103 N112 2.022 . S
Co103 N120 1.993 . S
Co103 O128 1.941 . S
C104 O105 1.258 . S
C104 O106 1.263 . S
O105 Co102 1.970 . S
O105 C104 1.258 . S
O106 Co103 1.966 . S
O106 C104 1.263 . S
C107 O108 1.235 . S
C107 O134 1.289 . S
O108 C107 1.235 . S
C109 C111 1.400 . S
C109 N112 1.351 . S
C109 C114 1.501 . S
C110 C111 1.387 . S
C110 N113 1.341 . S
C111 C109 1.400 . S
C111 C110 1.387 . S
N112 Co103 2.022 . S
N112 C109 1.351 . S
N112 N113 1.365 . S
N113 C110 1.341 . S
N113 N112 1.365 . S
N113 H133 0.862 . S
C114 C109 1.501 . S
C114 H115 0.961 . S
C114 H116 0.961 . S
C114 H117 0.960 . S
H115 C114 0.961 . S
H116 C114 0.961 . S
H117 C114 0.960 . S
C118 N119 1.342 . S
C118 C122 1.401 . S
C118 C123 1.499 . S
N119 Co102 1.989 . S
N119 C118 1.342 . S
N119 N120 1.388 . S
N120 Co103 1.993 . S
N120 N119 1.388 . S
N120 C121 1.346 . S
C121 N120 1.346 . S
C121 C122 1.396 . S
C121 C131 1.510 . S
C122 C118 1.401 . S
C122 C121 1.396 . S
C123 C118 1.499 . S
C123 H124 0.959 . S
C123 H125 0.960 . S
C123 H126 0.961 . S
H124 C123 0.959 . S
H125 C123 0.960 . S
H126 C123 0.961 . S
O127 Co102 1.967 . S
O127 C135 1.258 . S
O128 Co103 1.941 . S
O128 C135 1.266 . S
H129 C131 0.959 . S
H130 C131 0.961 . S
C131 C121 1.510 . S
C131 H129 0.959 . S
C131 H130 0.961 . S
C131 H132 0.960 . S
H132 C131 0.960 . S
H133 N113 0.862 . S
O134 Co102 1.920 . S
O134 C107 1.289 . S
C135 O127 1.258 . S
C135 O128 1.266 . S
Co136 O139 1.970 . S
Co136 N153 1.989 . S
Co136 O161 1.967 . S
Co136 O168 1.920 . S
Co137 O140 1.966 . S
Co137 N146 2.022 . S
Co137 N154 1.993 . S
Co137 O162 1.941 . S
C138 O139 1.258 . S
C138 O140 1.263 . S
O139 Co136 1.970 . S
O139 C138 1.258 . S
O140 Co137 1.966 . S
O140 C138 1.263 . S
C141 O142 1.235 . S
C141 O168 1.289 . S
O142 C141 1.235 . S
C143 C145 1.400 . S
C143 N146 1.351 . S
C143 C148 1.501 . S
C144 C145 1.387 . S
C144 N147 1.341 . S
C145 C143 1.400 . S
C145 C144 1.387 . S
N146 Co137 2.022 . S
N146 C143 1.351 . S
N146 N147 1.365 . S
N147 C144 1.341 . S
N147 N146 1.365 . S
N147 H167 0.862 . S
C148 C143 1.501 . S
C148 H149 0.961 . S
C148 H150 0.961 . S
C148 H151 0.960 . S
H149 C148 0.961 . S
H150 C148 0.961 . S
H151 C148 0.960 . S
C152 N153 1.342 . S
C152 C156 1.401 . S
C152 C157 1.499 . S
N153 Co136 1.989 . S
N153 C152 1.342 . S
N153 N154 1.388 . S
N154 Co137 1.993 . S
N154 N153 1.388 . S
N154 C155 1.346 . S
C155 N154 1.346 . S
C155 C156 1.396 . S
C155 C165 1.510 . S
C156 C152 1.401 . S
C156 C155 1.396 . S
C157 C152 1.499 . S
C157 H158 0.959 . S
C157 H159 0.960 . S
C157 H160 0.961 . S
H158 C157 0.959 . S
H159 C157 0.960 . S
H160 C157 0.961 . S
O161 Co136 1.967 . S
O161 C169 1.258 . S
O162 Co137 1.941 . S
O162 C169 1.266 . S
H163 C165 0.959 . S
H164 C165 0.961 . S
C165 C155 1.510 . S
C165 H163 0.959 . S
C165 H164 0.961 . S
C165 H166 0.960 . S
H166 C165 0.960 . S
H167 N147 0.862 . S
O168 Co136 1.920 . S
O168 C141 1.289 . S
C169 O161 1.258 . S
C169 O162 1.266 . S
Co170 O173 1.970 . S
Co170 N187 1.989 . S
Co170 O195 1.967 . S
Co170 O202 1.920 . S
Co171 O174 1.966 . S
Co171 N180 2.022 . S
Co171 N188 1.993 . S
Co171 O196 1.941 . S
C172 O173 1.258 . S
C172 O174 1.263 . S
O173 Co170 1.970 . S
O173 C172 1.258 . S
O174 Co171 1.966 . S
O174 C172 1.263 . S
C175 O176 1.235 . S
C175 O202 1.289 . S
O176 C175 1.235 . S
C177 C179 1.400 . S
C177 N180 1.351 . S
C177 C182 1.501 . S
C178 C179 1.387 . S
C178 N181 1.341 . S
C179 C177 1.400 . S
C179 C178 1.387 . S
N180 Co171 2.022 . S
N180 C177 1.351 . S
N180 N181 1.365 . S
N181 C178 1.341 . S
N181 N180 1.365 . S
N181 H201 0.862 . S
C182 C177 1.501 . S
C182 H183 0.961 . S
C182 H184 0.961 . S
C182 H185 0.960 . S
H183 C182 0.961 . S
H184 C182 0.961 . S
H185 C182 0.960 . S
C186 N187 1.342 . S
C186 C190 1.401 . S
C186 C191 1.499 . S
N187 Co170 1.989 . S
N187 C186 1.342 . S
N187 N188 1.388 . S
N188 Co171 1.993 . S
N188 N187 1.388 . S
N188 C189 1.346 . S
C189 N188 1.346 . S
C189 C190 1.396 . S
C189 C199 1.510 . S
C190 C186 1.401 . S
C190 C189 1.396 . S
C191 C186 1.499 . S
C191 H192 0.959 . S
C191 H193 0.960 . S
C191 H194 0.961 . S
H192 C191 0.959 . S
H193 C191 0.960 . S
H194 C191 0.961 . S
O195 Co170 1.967 . S
O195 C203 1.258 . S
O196 Co171 1.941 . S
O196 C203 1.266 . S
H197 C199 0.959 . S
H198 C199 0.961 . S
C199 C189 1.510 . S
C199 H197 0.959 . S
C199 H198 0.961 . S
C199 H200 0.960 . S
H200 C199 0.960 . S
H201 N181 0.862 . S
O202 Co170 1.920 . S
O202 C175 1.289 . S
C203 O195 1.258 . S
C203 O196 1.266 . S
Co204 O207 1.970 . S
Co204 N221 1.989 . S
Co204 O229 1.967 . S
Co204 O236 1.920 . S
Co205 O208 1.966 . S
Co205 N214 2.022 . S
Co205 N222 1.993 . S
Co205 O230 1.941 . S
C206 O207 1.258 . S
C206 O208 1.263 . S
O207 Co204 1.970 . S
O207 C206 1.258 . S
O208 Co205 1.966 . S
O208 C206 1.263 . S
C209 O210 1.235 . S
C209 O236 1.289 . S
O210 C209 1.235 . S
C211 C213 1.400 . S
C211 N214 1.351 . S
C211 C216 1.501 . S
C212 C213 1.387 . S
C212 N215 1.341 . S
C213 C211 1.400 . S
C213 C212 1.387 . S
N214 Co205 2.022 . S
N214 C211 1.351 . S
N214 N215 1.365 . S
N215 C212 1.341 . S
N215 N214 1.365 . S
N215 H235 0.862 . S
C216 C211 1.501 . S
C216 H217 0.961 . S
C216 H218 0.961 . S
C216 H219 0.960 . S
H217 C216 0.961 . S
H218 C216 0.961 . S
H219 C216 0.960 . S
C220 N221 1.342 . S
C220 C224 1.401 . S
C220 C225 1.499 . S
N221 Co204 1.989 . S
N221 C220 1.342 . S
N221 N222 1.388 . S
N222 Co205 1.993 . S
N222 N221 1.388 . S
N222 C223 1.346 . S
C223 N222 1.346 . S
C223 C224 1.396 . S
C223 C233 1.510 . S
C224 C220 1.401 . S
C224 C223 1.396 . S
C225 C220 1.499 . S
C225 H226 0.959 . S
C225 H227 0.960 . S
C225 H228 0.961 . S
H226 C225 0.959 . S
H227 C225 0.960 . S
H228 C225 0.961 . S
O229 Co204 1.967 . S
O229 C237 1.258 . S
O230 Co205 1.941 . S
O230 C237 1.266 . S
H231 C233 0.959 . S
H232 C233 0.961 . S
C233 C223 1.510 . S
C233 H231 0.959 . S
C233 H232 0.961 . S
C233 H234 0.960 . S
H234 C233 0.960 . S
H235 N215 0.862 . S
O236 Co204 1.920 . S
O236 C209 1.289 . S
C237 O229 1.258 . S
C237 O230 1.266 . S
Co238 O241 1.970 . S
Co238 N255 1.989 . S
Co238 O263 1.967 . S
Co238 O270 1.920 . S
Co239 O242 1.966 . S
Co239 N248 2.022 . S
Co239 N256 1.993 . S
Co239 O264 1.941 . S
C240 O241 1.258 . S
C240 O242 1.263 . S
O241 Co238 1.970 . S
O241 C240 1.258 . S
O242 Co239 1.966 . S
O242 C240 1.263 . S
C243 O244 1.235 . S
C243 O270 1.289 . S
O244 C243 1.235 . S
C245 C247 1.400 . S
C245 N248 1.351 . S
C245 C250 1.501 . S
C246 C247 1.387 . S
C246 N249 1.341 . S
C247 C245 1.400 . S
C247 C246 1.387 . S
N248 Co239 2.022 . S
N248 C245 1.351 . S
N248 N249 1.365 . S
N249 C246 1.341 . S
N249 N248 1.365 . S
N249 H269 0.862 . S
C250 C245 1.501 . S
C250 H251 0.961 . S
C250 H252 0.961 . S
C250 H253 0.960 . S
H251 C250 0.961 . S
H252 C250 0.961 . S
H253 C250 0.960 . S
C254 N255 1.342 . S
C254 C258 1.401 . S
C254 C259 1.499 . S
N255 Co238 1.989 . S
N255 C254 1.342 . S
N255 N256 1.388 . S
N256 Co239 1.993 . S
N256 N255 1.388 . S
N256 C257 1.346 . S
C257 N256 1.346 . S
C257 C258 1.396 . S
C257 C267 1.510 . S
C258 C254 1.401 . S
C258 C257 1.396 . S
C259 C254 1.499 . S
C259 H260 0.959 . S
C259 H261 0.960 . S
C259 H262 0.961 . S
H260 C259 0.959 . S
H261 C259 0.960 . S
H262 C259 0.961 . S
O263 Co238 1.967 . S
O263 C271 1.258 . S
O264 Co239 1.941 . S
O264 C271 1.266 . S
H265 C267 0.959 . S
H266 C267 0.961 . S
C267 C257 1.510 . S
C267 H265 0.959 . S
C267 H266 0.961 . S
C267 H268 0.960 . S
H268 C267 0.960 . S
H269 N249 0.862 . S
O270 Co238 1.920 . S
O270 C243 1.289 . S
C271 O263 1.258 . S
C271 O264 1.266 . S
Co272 O275 1.970 . S
Co272 N289 1.989 . S
Co272 O297 1.967 . S
Co272 O304 1.920 . S
Co273 O276 1.966 . S
Co273 N282 2.022 . S
Co273 N290 1.993 . S
Co273 O298 1.941 . S
C274 O275 1.258 . S
C274 O276 1.263 . S
O275 Co272 1.970 . S
O275 C274 1.258 . S
O276 Co273 1.966 . S
O276 C274 1.263 . S
C277 O278 1.235 . S
C277 O304 1.289 . S
O278 C277 1.235 . S
C279 C281 1.400 . S
C279 N282 1.351 . S
C279 C284 1.501 . S
C280 C281 1.387 . S
C280 N283 1.341 . S
C281 C279 1.400 . S
C281 C280 1.387 . S
N282 Co273 2.022 . S
N282 C279 1.351 . S
N282 N283 1.365 . S
N283 C280 1.341 . S
N283 N282 1.365 . S
N283 H303 0.862 . S
C284 C279 1.501 . S
C284 H285 0.961 . S
C284 H286 0.961 . S
C284 H287 0.960 . S
H285 C284 0.961 . S
H286 C284 0.961 . S
H287 C284 0.960 . S
C288 N289 1.342 . S
C288 C292 1.401 . S
C288 C293 1.499 . S
N289 Co272 1.989 . S
N289 C288 1.342 . S
N289 N290 1.388 . S
N290 Co273 1.993 . S
N290 N289 1.388 . S
N290 C291 1.346 . S
C291 N290 1.346 . S
C291 C292 1.396 . S
C291 C301 1.510 . S
C292 C288 1.401 . S
C292 C291 1.396 . S
C293 C288 1.499 . S
C293 H294 0.959 . S
C293 H295 0.960 . S
C293 H296 0.961 . S
H294 C293 0.959 . S
H295 C293 0.960 . S
H296 C293 0.961 . S
O297 Co272 1.967 . S
O297 C305 1.258 . S
O298 Co273 1.941 . S
O298 C305 1.266 . S
H299 C301 0.959 . S
H300 C301 0.961 . S
C301 C291 1.510 . S
C301 H299 0.959 . S
C301 H300 0.961 . S
C301 H302 0.960 . S
H302 C301 0.960 . S
H303 N283 0.862 . S
O304 Co272 1.920 . S
O304 C277 1.289 . S
C305 O297 1.258 . S
C305 O298 1.266 . S
Co306 O309 1.970 . S
Co306 N323 1.989 . S
Co306 O331 1.967 . S
Co306 O338 1.920 . S
Co307 O310 1.966 . S
Co307 N316 2.022 . S
Co307 N324 1.993 . S
Co307 O332 1.941 . S
C308 O309 1.258 . S
C308 O310 1.263 . S
O309 Co306 1.970 . S
O309 C308 1.258 . S
O310 Co307 1.966 . S
O310 C308 1.263 . S
C311 O312 1.235 . S
C311 O338 1.289 . S
O312 C311 1.235 . S
C313 C315 1.400 . S
C313 N316 1.351 . S
C313 C318 1.501 . S
C314 C315 1.387 . S
C314 N317 1.341 . S
C315 C313 1.400 . S
C315 C314 1.387 . S
N316 Co307 2.022 . S
N316 C313 1.351 . S
N316 N317 1.365 . S
N317 C314 1.341 . S
N317 N316 1.365 . S
N317 H337 0.862 . S
C318 C313 1.501 . S
C318 H319 0.961 . S
C318 H320 0.961 . S
C318 H321 0.960 . S
H319 C318 0.961 . S
H320 C318 0.961 . S
H321 C318 0.960 . S
C322 N323 1.342 . S
C322 C326 1.401 . S
C322 C327 1.499 . S
N323 Co306 1.989 . S
N323 C322 1.342 . S
N323 N324 1.388 . S
N324 Co307 1.993 . S
N324 N323 1.388 . S
N324 C325 1.346 . S
C325 N324 1.346 . S
C325 C326 1.396 . S
C325 C335 1.510 . S
C326 C322 1.401 . S
C326 C325 1.396 . S
C327 C322 1.499 . S
C327 H328 0.959 . S
C327 H329 0.960 . S
C327 H330 0.961 . S
H328 C327 0.959 . S
H329 C327 0.960 . S
H330 C327 0.961 . S
O331 Co306 1.967 . S
O331 C339 1.258 . S
O332 Co307 1.941 . S
O332 C339 1.266 . S
H333 C335 0.959 . S
H334 C335 0.961 . S
C335 C325 1.510 . S
C335 H333 0.959 . S
C335 H334 0.961 . S
C335 H336 0.960 . S
H336 C335 0.960 . S
H337 N317 0.862 . S
O338 Co306 1.920 . S
O338 C311 1.289 . S
C339 O331 1.258 . S
C339 O332 1.266 . S
Co340 O343 1.970 . S
Co340 N357 1.989 . S
Co340 O365 1.967 . S
Co340 O372 1.920 . S
Co341 O344 1.966 . S
Co341 N350 2.022 . S
Co341 N358 1.993 . S
Co341 O366 1.941 . S
C342 O343 1.258 . S
C342 O344 1.263 . S
O343 Co340 1.970 . S
O343 C342 1.258 . S
O344 Co341 1.966 . S
O344 C342 1.263 . S
C345 O346 1.235 . S
C345 O372 1.289 . S
O346 C345 1.235 . S
C347 C349 1.400 . S
C347 N350 1.351 . S
C347 C352 1.501 . S
C348 C349 1.387 . S
C348 N351 1.341 . S
C349 C347 1.400 . S
C349 C348 1.387 . S
N350 Co341 2.022 . S
N350 C347 1.351 . S
N350 N351 1.365 . S
N351 C348 1.341 . S
N351 N350 1.365 . S
N351 H371 0.862 . S
C352 C347 1.501 . S
C352 H353 0.961 . S
C352 H354 0.961 . S
C352 H355 0.960 . S
H353 C352 0.961 . S
H354 C352 0.961 . S
H355 C352 0.960 . S
C356 N357 1.342 . S
C356 C360 1.401 . S
C356 C361 1.499 . S
N357 Co340 1.989 . S
N357 C356 1.342 . S
N357 N358 1.388 . S
N358 Co341 1.993 . S
N358 N357 1.388 . S
N358 C359 1.346 . S
C359 N358 1.346 . S
C359 C360 1.396 . S
C359 C369 1.510 . S
C360 C356 1.401 . S
C360 C359 1.396 . S
C361 C356 1.499 . S
C361 H362 0.959 . S
C361 H363 0.960 . S
C361 H364 0.961 . S
H362 C361 0.959 . S
H363 C361 0.960 . S
H364 C361 0.961 . S
O365 Co340 1.967 . S
O365 C373 1.258 . S
O366 Co341 1.941 . S
O366 C373 1.266 . S
H367 C369 0.959 . S
H368 C369 0.961 . S
C369 C359 1.510 . S
C369 H367 0.959 . S
C369 H368 0.961 . S
C369 H370 0.960 . S
H370 C369 0.960 . S
H371 N351 0.862 . S
O372 Co340 1.920 . S
O372 C345 1.289 . S
C373 O365 1.258 . S
C373 O366 1.266 . S
Co374 O377 1.970 . S
Co374 N391 1.989 . S
Co374 O399 1.967 . S
Co374 O406 1.920 . S
Co375 O378 1.966 . S
Co375 N384 2.022 . S
Co375 N392 1.993 . S
Co375 O400 1.941 . S
C376 O377 1.258 . S
C376 O378 1.263 . S
O377 Co374 1.970 . S
O377 C376 1.258 . S
O378 Co375 1.966 . S
O378 C376 1.263 . S
C379 O380 1.235 . S
C379 O406 1.289 . S
O380 C379 1.235 . S
C381 C383 1.400 . S
C381 N384 1.351 . S
C381 C386 1.501 . S
C382 C383 1.387 . S
C382 N385 1.341 . S
C383 C381 1.400 . S
C383 C382 1.387 . S
N384 Co375 2.022 . S
N384 C381 1.351 . S
N384 N385 1.365 . S
N385 C382 1.341 . S
N385 N384 1.365 . S
N385 H405 0.862 . S
C386 C381 1.501 . S
C386 H387 0.961 . S
C386 H388 0.961 . S
C386 H389 0.960 . S
H387 C386 0.961 . S
H388 C386 0.961 . S
H389 C386 0.960 . S
C390 N391 1.342 . S
C390 C394 1.401 . S
C390 C395 1.499 . S
N391 Co374 1.989 . S
N391 C390 1.342 . S
N391 N392 1.388 . S
N392 Co375 1.993 . S
N392 N391 1.388 . S
N392 C393 1.346 . S
C393 N392 1.346 . S
C393 C394 1.396 . S
C393 C403 1.510 . S
C394 C390 1.401 . S
C394 C393 1.396 . S
C395 C390 1.499 . S
C395 H396 0.959 . S
C395 H397 0.960 . S
C395 H398 0.961 . S
H396 C395 0.959 . S
H397 C395 0.960 . S
H398 C395 0.961 . S
O399 Co374 1.967 . S
O399 C407 1.258 . S
O400 Co375 1.941 . S
O400 C407 1.266 . S
H401 C403 0.959 . S
H402 C403 0.961 . S
C403 C393 1.510 . S
C403 H401 0.959 . S
C403 H402 0.961 . S
C403 H404 0.960 . S
H404 C403 0.960 . S
H405 N385 0.862 . S
O406 Co374 1.920 . S
O406 C379 1.289 . S
C407 O399 1.258 . S
C407 O400 1.266 . S
Co408 O411 1.970 . S
Co408 N425 1.989 . S
Co408 O433 1.967 . S
Co408 O440 1.920 . S
Co409 O412 1.966 . S
Co409 N418 2.022 . S
Co409 N426 1.993 . S
Co409 O434 1.941 . S
C410 O411 1.258 . S
C410 O412 1.263 . S
O411 Co408 1.970 . S
O411 C410 1.258 . S
O412 Co409 1.966 . S
O412 C410 1.263 . S
C413 O414 1.235 . S
C413 O440 1.289 . S
O414 C413 1.235 . S
C415 C417 1.400 . S
C415 N418 1.351 . S
C415 C420 1.501 . S
C416 C417 1.387 . S
C416 N419 1.341 . S
C417 C415 1.400 . S
C417 C416 1.387 . S
N418 Co409 2.022 . S
N418 C415 1.351 . S
N418 N419 1.365 . S
N419 C416 1.341 . S
N419 N418 1.365 . S
N419 H439 0.862 . S
C420 C415 1.501 . S
C420 H421 0.961 . S
C420 H422 0.961 . S
C420 H423 0.960 . S
H421 C420 0.961 . S
H422 C420 0.961 . S
H423 C420 0.960 . S
C424 N425 1.342 . S
C424 C428 1.401 . S
C424 C429 1.499 . S
N425 Co408 1.989 . S
N425 C424 1.342 . S
N425 N426 1.388 . S
N426 Co409 1.993 . S
N426 N425 1.388 . S
N426 C427 1.346 . S
C427 N426 1.346 . S
C427 C428 1.396 . S
C427 C437 1.510 . S
C428 C424 1.401 . S
C428 C427 1.396 . S
C429 C424 1.499 . S
C429 H430 0.959 . S
C429 H431 0.960 . S
C429 H432 0.961 . S
H430 C429 0.959 . S
H431 C429 0.960 . S
H432 C429 0.961 . S
O433 Co408 1.967 . S
O433 C441 1.258 . S
O434 Co409 1.941 . S
O434 C441 1.266 . S
H435 C437 0.959 . S
H436 C437 0.961 . S
C437 C427 1.510 . S
C437 H435 0.959 . S
C437 H436 0.961 . S
C437 H438 0.960 . S
H438 C437 0.960 . S
H439 N419 0.862 . S
O440 Co408 1.920 . S
O440 C413 1.289 . S
C441 O433 1.258 . S
C441 O434 1.266 . S
Co442 O445 1.970 . S
Co442 N459 1.989 . S
Co442 O467 1.967 . S
Co442 O474 1.920 . S
Co443 O446 1.966 . S
Co443 N452 2.022 . S
Co443 N460 1.993 . S
Co443 O468 1.941 . S
C444 O445 1.258 . S
C444 O446 1.263 . S
O445 Co442 1.970 . S
O445 C444 1.258 . S
O446 Co443 1.966 . S
O446 C444 1.263 . S
C447 O448 1.235 . S
C447 O474 1.289 . S
O448 C447 1.235 . S
C449 C451 1.400 . S
C449 N452 1.351 . S
C449 C454 1.501 . S
C450 C451 1.387 . S
C450 N453 1.341 . S
C451 C449 1.400 . S
C451 C450 1.387 . S
N452 Co443 2.022 . S
N452 C449 1.351 . S
N452 N453 1.365 . S
N453 C450 1.341 . S
N453 N452 1.365 . S
N453 H473 0.862 . S
C454 C449 1.501 . S
C454 H455 0.961 . S
C454 H456 0.961 . S
C454 H457 0.960 . S
H455 C454 0.961 . S
H456 C454 0.961 . S
H457 C454 0.960 . S
C458 N459 1.342 . S
C458 C462 1.401 . S
C458 C463 1.499 . S
N459 Co442 1.989 . S
N459 C458 1.342 . S
N459 N460 1.388 . S
N460 Co443 1.993 . S
N460 N459 1.388 . S
N460 C461 1.346 . S
C461 N460 1.346 . S
C461 C462 1.396 . S
C461 C471 1.510 . S
C462 C458 1.401 . S
C462 C461 1.396 . S
C463 C458 1.499 . S
C463 H464 0.959 . S
C463 H465 0.960 . S
C463 H466 0.961 . S
H464 C463 0.959 . S
H465 C463 0.960 . S
H466 C463 0.961 . S
O467 Co442 1.967 . S
O467 C475 1.258 . S
O468 Co443 1.941 . S
O468 C475 1.266 . S
H469 C471 0.959 . S
H470 C471 0.961 . S
C471 C461 1.510 . S
C471 H469 0.959 . S
C471 H470 0.961 . S
C471 H472 0.960 . S
H472 C471 0.960 . S
H473 N453 0.862 . S
O474 Co442 1.920 . S
O474 C447 1.289 . S
C475 O467 1.258 . S
C475 O468 1.266 . S
Co476 O479 1.970 . S
Co476 N493 1.989 . S
Co476 O501 1.967 . S
Co476 O508 1.920 . S
Co477 O480 1.966 . S
Co477 N486 2.022 . S
Co477 N494 1.993 . S
Co477 O502 1.941 . S
C478 O479 1.258 . S
C478 O480 1.263 . S
O479 Co476 1.970 . S
O479 C478 1.258 . S
O480 Co477 1.966 . S
O480 C478 1.263 . S
C481 O482 1.235 . S
C481 O508 1.289 . S
O482 C481 1.235 . S
C483 C485 1.400 . S
C483 N486 1.351 . S
C483 C488 1.501 . S
C484 C485 1.387 . S
C484 N487 1.341 . S
C485 C483 1.400 . S
C485 C484 1.387 . S
N486 Co477 2.022 . S
N486 C483 1.351 . S
N486 N487 1.365 . S
N487 C484 1.341 . S
N487 N486 1.365 . S
N487 H507 0.862 . S
C488 C483 1.501 . S
C488 H489 0.961 . S
C488 H490 0.961 . S
C488 H491 0.960 . S
H489 C488 0.961 . S
H490 C488 0.961 . S
H491 C488 0.960 . S
C492 N493 1.342 . S
C492 C496 1.401 . S
C492 C497 1.499 . S
N493 Co476 1.989 . S
N493 C492 1.342 . S
N493 N494 1.388 . S
N494 Co477 1.993 . S
N494 N493 1.388 . S
N494 C495 1.346 . S
C495 N494 1.346 . S
C495 C496 1.396 . S
C495 C505 1.510 . S
C496 C492 1.401 . S
C496 C495 1.396 . S
C497 C492 1.499 . S
C497 H498 0.959 . S
C497 H499 0.960 . S
C497 H500 0.961 . S
H498 C497 0.959 . S
H499 C497 0.960 . S
H500 C497 0.961 . S
O501 Co476 1.967 . S
O501 C509 1.258 . S
O502 Co477 1.941 . S
O502 C509 1.266 . S
H503 C505 0.959 . S
H504 C505 0.961 . S
C505 C495 1.510 . S
C505 H503 0.959 . S
C505 H504 0.961 . S
C505 H506 0.960 . S
H506 C505 0.960 . S
H507 N487 0.862 . S
O508 Co476 1.920 . S
O508 C481 1.289 . S
C509 O501 1.258 . S
C509 O502 1.266 . S
Co510 O513 1.970 . S
Co510 N527 1.989 . S
Co510 O535 1.967 . S
Co510 O542 1.920 . S
Co511 O514 1.966 . S
Co511 N520 2.022 . S
Co511 N528 1.993 . S
Co511 O536 1.941 . S
C512 O513 1.258 . S
C512 O514 1.263 . S
O513 Co510 1.970 . S
O513 C512 1.258 . S
O514 Co511 1.966 . S
O514 C512 1.263 . S
C515 O516 1.235 . S
C515 O542 1.289 . S
O516 C515 1.235 . S
C517 C519 1.400 . S
C517 N520 1.351 . S
C517 C522 1.501 . S
C518 C519 1.387 . S
C518 N521 1.341 . S
C519 C517 1.400 . S
C519 C518 1.387 . S
N520 Co511 2.022 . S
N520 C517 1.351 . S
N520 N521 1.365 . S
N521 C518 1.341 . S
N521 N520 1.365 . S
N521 H541 0.862 . S
C522 C517 1.501 . S
C522 H523 0.961 . S
C522 H524 0.961 . S
C522 H525 0.960 . S
H523 C522 0.961 . S
H524 C522 0.961 . S
H525 C522 0.960 . S
C526 N527 1.342 . S
C526 C530 1.401 . S
C526 C531 1.499 . S
N527 Co510 1.989 . S
N527 C526 1.342 . S
N527 N528 1.388 . S
N528 Co511 1.993 . S
N528 N527 1.388 . S
N528 C529 1.346 . S
C529 N528 1.346 . S
C529 C530 1.396 . S
C529 C539 1.510 . S
C530 C526 1.401 . S
C530 C529 1.396 . S
C531 C526 1.499 . S
C531 H532 0.959 . S
C531 H533 0.960 . S
C531 H534 0.961 . S
H532 C531 0.959 . S
H533 C531 0.960 . S
H534 C531 0.961 . S
O535 Co510 1.967 . S
O535 C543 1.258 . S
O536 Co511 1.941 . S
O536 C543 1.266 . S
H537 C539 0.959 . S
H538 C539 0.961 . S
C539 C529 1.510 . S
C539 H537 0.959 . S
C539 H538 0.961 . S
C539 H540 0.960 . S
H540 C539 0.960 . S
H541 N521 0.862 . S
O542 Co510 1.920 . S
O542 C515 1.289 . S
C543 O535 1.258 . S
C543 O536 1.266 . S
H544 C562 0.951 . S
H545 C564 0.951 . S
H546 C566 0.950 . S
H547 C567 0.950 . S
H548 C569 0.950 . S
H549 C572 0.950 . S
H550 C573 0.950 . S
H551 C575 0.950 . S
H552 C576 0.950 . S
H553 C577 0.951 . S
H554 C579 0.951 . S
H555 C581 0.952 . S
H556 C582 0.950 . S
H557 C584 0.950 . S
H558 C587 0.950 . S
H559 C588 0.950 . S
H560 C590 0.950 . S
H561 C591 0.950 . S
C562 H544 0.951 . S
C562 C563 1.366 . S
C562 C564 1.388 . S
C563 C562 1.366 . S
C563 C567 1.385 . S
C564 H545 0.951 . S
C564 C562 1.388 . S
C564 C565 1.366 . S
C565 C564 1.366 . S
C565 C566 1.414 . S
C565 C568 1.499 . S
C566 H546 0.950 . S
C566 C565 1.414 . S
C566 C567 1.374 . S
C567 H547 0.950 . S
C567 C563 1.385 . S
C567 C566 1.374 . S
C568 C565 1.499 . S
C568 C569 1.373 1_556 S
C568 C570 1.389 . S
C569 H548 0.950 . S
C569 C568 1.373 1_554 S
C569 C585 1.377 . S
C570 C568 1.389 . S
C570 C571 1.524 . S
C570 C584 1.377 . S
C571 C570 1.524 . S
C571 C572 1.397 . S
C571 C576 1.363 . S
C572 H549 0.950 . S
C572 C571 1.397 . S
C572 C573 1.334 . S
C573 H550 0.950 . S
C573 C572 1.334 . S
C573 C574 1.287 . S
C574 C573 1.287 . S
C574 C575 1.524 . S
C574 H593 0.913 . S
C575 H551 0.950 . S
C575 C574 1.524 . S
C575 C576 1.415 . S
C576 H552 0.950 . S
C576 C571 1.363 . S
C576 C575 1.415 . S
C577 H553 0.951 . S
C577 C578 1.366 . S
C577 C579 1.388 . S
C578 C577 1.366 . S
C578 C582 1.385 . S
C579 H554 0.951 . S
C579 C577 1.388 . S
C579 C580 1.366 . S
C580 C579 1.366 . S
C580 C581 1.414 . S
C580 C583 1.499 . S
C581 H555 0.952 . S
C581 C580 1.414 . S
C581 C582 1.374 . S
C582 H556 0.950 . S
C582 C578 1.385 . S
C582 C581 1.374 . S
C583 C580 1.499 . S
C583 C584 1.373 1_554 S
C583 C585 1.389 . S
C584 H557 0.950 . S
C584 C570 1.377 . S
C584 C583 1.373 1_556 S
C585 C569 1.377 . S
C585 C583 1.389 . S
C585 C586 1.524 . S
C586 C585 1.524 . S
C586 C587 1.397 . S
C586 C591 1.363 . S
C587 H558 0.950 . S
C587 C586 1.397 . S
C587 C588 1.334 . S
C588 H559 0.950 . S
C588 C587 1.334 . S
C588 C589 1.287 . S
C589 C588 1.287 . S
C589 C590 1.524 . S
C589 H592 0.999 . S
C590 H560 0.950 . S
C590 C589 1.524 . S
C590 C591 1.415 . S
C591 H561 0.950 . S
C591 C586 1.363 . S
C591 C590 1.415 . S
H592 C589 0.999 . S
H593 C574 0.913 . S
H594 C612 0.951 . S
H595 C614 0.951 . S
H596 C616 0.950 . S
H597 C617 0.950 1_655 S
H598 C619 0.950 . S
H599 C622 0.950 . S
H600 C623 0.950 1_655 S
H601 C625 0.950 . S
H602 C626 0.950 . S
H603 C627 0.951 . S
H604 C629 0.951 . S
H605 C631 0.950 . S
H606 C632 0.950 . S
H607 C634 0.950 . S
H608 C637 0.950 . S
H609 C638 0.950 . S
H610 C640 0.950 . S
H611 C641 0.950 1_554 S
C612 H594 0.951 . S
C612 C613 1.366 1_455 S
C612 C614 1.388 . S
C613 C612 1.366 1_655 S
C613 C617 1.385 1_655 S
C614 H595 0.951 . S
C614 C612 1.388 . S
C614 C615 1.366 . S
C615 C614 1.366 . S
C615 C616 1.414 . S
C615 C618 1.499 . S
C616 H596 0.950 . S
C616 C615 1.414 . S
C616 C617 1.374 . S
C617 H597 0.950 1_455 S
C617 C613 1.385 1_455 S
C617 C616 1.374 . S
C618 C615 1.499 . S
C618 C619 1.373 . S
C618 C620 1.389 . S
C619 H598 0.950 . S
C619 C618 1.373 . S
C619 C635 1.377 . S
C620 C618 1.389 . S
C620 C621 1.524 . S
C620 C634 1.377 1_556 S
C621 C620 1.524 . S
C621 C622 1.397 1_556 S
C621 C626 1.363 . S
C622 H599 0.950 . S
C622 C621 1.397 1_554 S
C622 C623 1.334 . S
C623 H600 0.950 1_455 S
C623 C622 1.334 . S
C623 C624 1.287 . S
C624 C623 1.287 . S
C624 C625 1.524 1_554 S
C624 H643 0.913 . S
C625 H601 0.950 . S
C625 C624 1.524 1_556 S
C625 C626 1.415 . S
C626 H602 0.950 . S
C626 C621 1.363 . S
C626 C625 1.415 . S
C627 H603 0.951 . S
C627 C628 1.366 . S
C627 C629 1.388 . S
C628 C627 1.366 . S
C628 C632 1.385 . S
C629 H604 0.951 . S
C629 C627 1.388 . S
C629 C630 1.366 . S
C630 C629 1.366 . S
C630 C631 1.414 . S
C630 C633 1.499 . S
C631 H605 0.950 . S
C631 C630 1.414 . S
C631 C632 1.374 . S
C632 H606 0.950 . S
C632 C628 1.385 . S
C632 C631 1.374 . S
C633 C630 1.499 . S
C633 C634 1.373 . S
C633 C635 1.389 1_554 S
C634 H607 0.950 . S
C634 C620 1.377 1_554 S
C634 C633 1.373 . S
C635 C619 1.377 . S
C635 C633 1.389 1_556 S
C635 C636 1.524 . S
C636 C635 1.524 . S
C636 C637 1.397 . S
C636 C641 1.363 . S
C637 H608 0.950 . S
C637 C636 1.397 . S
C637 C638 1.334 . S
C638 H609 0.950 . S
C638 C637 1.334 . S
C638 C639 1.287 . S
C639 C638 1.287 . S
C639 C640 1.524 . S
C639 H642 0.999 . S
C640 H610 0.950 . S
C640 C639 1.524 . S
C640 C641 1.415 . S
C641 H611 0.950 1_556 S
C641 C636 1.363 . S
C641 C640 1.415 . S
H642 C639 0.999 . S
H643 C624 0.913 . S
H644 C662 0.951 . S
H645 C664 0.951 . S
H646 C666 0.950 . S
H647 C667 0.950 . S
H648 C669 0.950 . S
H649 C672 0.950 . S
H650 C673 0.950 . S
H651 C675 0.950 . S
H652 C676 0.950 . S
H653 C677 0.951 . S
H654 C679 0.951 . S
H655 C681 0.950 . S
H656 C682 0.950 . S
H657 C684 0.950 . S
H658 C687 0.950 . S
H659 C688 0.950 . S
H660 C690 0.950 . S
H661 C691 0.950 . S
C662 H644 0.951 . S
C662 C663 1.366 . S
C662 C664 1.388 . S
C663 C662 1.366 . S
C663 C667 1.385 . S
C664 H645 0.951 . S
C664 C662 1.388 . S
C664 C665 1.366 . S
C665 C664 1.366 . S
C665 C666 1.414 . S
C665 C668 1.499 . S
C666 H646 0.950 . S
C666 C665 1.414 . S
C666 C667 1.374 . S
C667 H647 0.950 . S
C667 C663 1.385 . S
C667 C666 1.374 . S
C668 C665 1.499 . S
C668 C669 1.373 . S
C668 C670 1.389 . S
C669 H648 0.950 . S
C669 C668 1.373 . S
C669 C685 1.377 . S
C670 C668 1.389 . S
C670 C671 1.524 . S
C670 C684 1.377 . S
C671 C670 1.524 . S
C671 C672 1.397 . S
C671 C676 1.363 . S
C672 H649 0.950 . S
C672 C671 1.397 . S
C672 C673 1.334 . S
C673 H650 0.950 . S
C673 C672 1.334 . S
C673 C674 1.287 . S
C674 C673 1.287 . S
C674 C675 1.524 . S
C674 H693 0.913 . S
C675 H651 0.950 . S
C675 C674 1.524 . S
C675 C676 1.415 . S
C676 H652 0.950 . S
C676 C671 1.363 . S
C676 C675 1.415 . S
C677 H653 0.951 . S
C677 C678 1.366 . S
C677 C679 1.388 1_455 S
C678 C677 1.366 . S
C678 C682 1.385 1_455 S
C679 H654 0.951 . S
C679 C677 1.388 1_655 S
C679 C680 1.366 . S
C680 C679 1.366 . S
C680 C681 1.414 . S
C680 C683 1.499 . S
C681 H655 0.950 . S
C681 C680 1.414 . S
C681 C682 1.374 . S
C682 H656 0.950 . S
C682 C678 1.385 1_655 S
C682 C681 1.374 . S
C683 C680 1.499 . S
C683 C684 1.373 . S
C683 C685 1.389 . S
C684 H657 0.950 . S
C684 C670 1.377 . S
C684 C683 1.373 . S
C685 C669 1.377 . S
C685 C683 1.389 . S
C685 C686 1.524 . S
C686 C685 1.524 . S
C686 C687 1.397 . S
C686 C691 1.363 . S
C687 H658 0.950 . S
C687 C686 1.397 . S
C687 C688 1.334 . S
C688 H659 0.950 . S
C688 C687 1.334 . S
C688 C689 1.287 . S
C689 C688 1.287 . S
C689 C690 1.524 . S
C689 H692 0.999 . S
C690 H660 0.950 . S
C690 C689 1.524 . S
C690 C691 1.415 . S
C691 H661 0.950 . S
C691 C686 1.363 . S
C691 C690 1.415 . S
H692 C689 0.999 . S
H693 C674 0.913 . S
H694 C712 0.951 . S
H695 C714 0.951 . S
H696 C716 0.950 . S
H697 C717 0.950 . S
H698 C719 0.950 . S
H699 C722 0.950 . S
H700 C723 0.950 . S
H701 C725 0.950 . S
H702 C726 0.950 . S
H703 C727 0.951 . S
H704 C729 0.951 . S
H705 C731 0.950 . S
H706 C732 0.950 . S
H707 C734 0.950 . S
H708 C737 0.950 . S
H709 C738 0.950 . S
H710 C740 0.950 . S
H711 C741 0.950 . S
C712 H694 0.951 . S
C712 C713 1.366 . S
C712 C714 1.388 . S
C713 C712 1.366 . S
C713 C717 1.385 . S
C714 H695 0.951 . S
C714 C712 1.388 . S
C714 C715 1.366 . S
C715 C714 1.366 . S
C715 C716 1.414 . S
C715 C718 1.499 . S
C716 H696 0.950 . S
C716 C715 1.414 . S
C716 C717 1.374 . S
C717 H697 0.950 . S
C717 C713 1.385 . S
C717 C716 1.374 . S
C718 C715 1.499 . S
C718 C719 1.373 . S
C718 C720 1.389 . S
C719 H698 0.950 . S
C719 C718 1.373 . S
C719 C735 1.377 . S
C720 C718 1.389 . S
C720 C721 1.524 . S
C720 C734 1.377 . S
C721 C720 1.524 . S
C721 C722 1.397 . S
C721 C726 1.363 . S
C722 H699 0.950 . S
C722 C721 1.397 . S
C722 C723 1.334 . S
C723 H700 0.950 . S
C723 C722 1.334 . S
C723 C724 1.287 . S
C724 C723 1.287 . S
C724 C725 1.524 . S
C724 H743 0.913 . S
C725 H701 0.950 . S
C725 C724 1.524 . S
C725 C726 1.415 . S
C726 H702 0.950 . S
C726 C721 1.363 . S
C726 C725 1.415 . S
C727 H703 0.951 . S
C727 C728 1.366 . S
C727 C729 1.388 . S
C728 C727 1.366 . S
C728 C732 1.385 . S
C729 H704 0.951 . S
C729 C727 1.388 . S
C729 C730 1.366 . S
C730 C729 1.366 . S
C730 C731 1.414 . S
C730 C733 1.499 . S
C731 H705 0.950 . S
C731 C730 1.414 . S
C731 C732 1.374 . S
C732 H706 0.950 . S
C732 C728 1.385 . S
C732 C731 1.374 . S
C733 C730 1.499 . S
C733 C734 1.373 . S
C733 C735 1.389 . S
C734 H707 0.950 . S
C734 C720 1.377 . S
C734 C733 1.373 . S
C735 C719 1.377 . S
C735 C733 1.389 . S
C735 C736 1.524 . S
C736 C735 1.524 . S
C736 C737 1.397 . S
C736 C741 1.363 . S
C737 H708 0.950 . S
C737 C736 1.397 . S
C737 C738 1.334 . S
C738 H709 0.950 . S
C738 C737 1.334 . S
C738 C739 1.287 . S
C739 C738 1.287 . S
C739 C740 1.524 . S
C739 H742 0.999 . S
C740 H710 0.950 . S
C740 C739 1.524 . S
C740 C741 1.415 . S
C741 H711 0.950 . S
C741 C736 1.363 . S
C741 C740 1.415 . S
H742 C739 0.999 . S
H743 C724 0.913 . S
H744 C762 0.951 . S
H745 C764 0.951 . S
H746 C766 0.950 . S
H747 C767 0.950 . S
H748 C769 0.950 . S
H749 C772 0.950 . S
H750 C773 0.950 . S
H751 C775 0.950 . S
H752 C776 0.950 . S
H753 C777 0.951 . S
H754 C779 0.951 . S
H755 C781 0.950 . S
H756 C782 0.950 . S
H757 C784 0.950 . S
H758 C787 0.950 . S
H759 C788 0.950 . S
H760 C790 0.950 1_556 S
H761 C791 0.950 1_556 S
C762 H744 0.951 . S
C762 C763 1.366 . S
C762 C764 1.388 . S
C763 C762 1.366 . S
C763 C767 1.385 . S
C764 H745 0.951 . S
C764 C762 1.388 . S
C764 C765 1.366 . S
C765 C764 1.366 . S
C765 C766 1.414 . S
C765 C768 1.499 . S
C766 H746 0.950 . S
C766 C765 1.414 . S
C766 C767 1.374 . S
C767 H747 0.950 . S
C767 C763 1.385 . S
C767 C766 1.374 . S
C768 C765 1.499 . S
C768 C769 1.373 . S
C768 C770 1.409 . S
C769 H748 0.950 . S
C769 C768 1.373 . S
C769 C785 1.377 1_556 S
C770 C768 1.409 . S
C770 C771 1.538 . S
C770 C784 1.346 1_556 S
C771 C770 1.538 . S
C771 C772 1.397 . S
C771 C776 1.363 1_556 S
C772 H749 0.950 . S
C772 C771 1.397 . S
C772 C773 1.334 . S
C773 H750 0.950 . S
C773 C772 1.334 . S
C773 C774 1.287 . S
C774 C773 1.287 . S
C774 C775 1.524 1_556 S
C774 H793 0.913 . S
C775 H751 0.950 . S
C775 C774 1.524 1_554 S
C775 C776 1.415 . S
C776 H752 0.950 . S
C776 C771 1.363 1_554 S
C776 C775 1.415 . S
C777 H753 0.951 . S
C777 C778 1.366 . S
C777 C779 1.388 . S
C778 C777 1.366 . S
C778 C782 1.385 . S
C779 H754 0.951 . S
C779 C777 1.388 . S
C779 C780 1.366 . S
C780 C779 1.366 . S
C780 C781 1.414 . S
C780 C783 1.499 . S
C781 H755 0.950 . S
C781 C780 1.414 . S
C781 C782 1.374 . S
C782 H756 0.950 . S
C782 C778 1.385 . S
C782 C781 1.374 . S
C783 C780 1.499 . S
C783 C784 1.373 . S
C783 C785 1.389 . S
C784 H757 0.950 . S
C784 C770 1.346 1_554 S
C784 C783 1.373 . S
C785 C769 1.377 1_554 S
C785 C783 1.389 . S
C785 C786 1.524 . S
C786 C785 1.524 . S
C786 C787 1.397 . S
C786 C791 1.363 . S
C787 H758 0.950 . S
C787 C786 1.397 . S
C787 C788 1.334 . S
C788 H759 0.950 . S
C788 C787 1.334 . S
C788 C789 1.287 . S
C789 C788 1.287 . S
C789 C790 1.524 . S
C789 H792 0.999 . S
C790 H760 0.950 1_554 S
C790 C789 1.524 . S
C790 C791 1.415 . S
C791 H761 0.950 1_554 S
C791 C786 1.363 . S
C791 C790 1.415 . S
H792 C789 0.999 . S
H793 C774 0.913 . S
H794 C812 0.951 . S
H795 C814 0.951 . S
H796 C816 0.950 . S
H797 C817 0.950 . S
H798 C819 0.950 . S
H799 C822 0.950 . S
H800 C823 0.950 . S
H801 C825 0.950 . S
H802 C826 0.950 . S
H803 C827 0.951 . S
H804 C829 0.951 . S
H805 C831 0.950 . S
H806 C832 0.950 1_455 S
H807 C834 0.950 . S
H808 C837 0.950 . S
H809 C838 0.950 . S
H810 C840 0.950 . S
H811 C841 0.950 . S
C812 H794 0.951 . S
C812 C813 1.366 . S
C812 C814 1.388 . S
C813 C812 1.366 . S
C813 C817 1.385 . S
C814 H795 0.951 . S
C814 C812 1.388 . S
C814 C815 1.366 . S
C815 C814 1.366 . S
C815 C816 1.414 . S
C815 C818 1.499 . S
C816 H796 0.950 . S
C816 C815 1.414 . S
C816 C817 1.374 . S
C817 H797 0.950 . S
C817 C813 1.385 . S
C817 C816 1.374 . S
C818 C815 1.499 . S
C818 C819 1.373 1_556 S
C818 C820 1.389 . S
C819 H798 0.950 . S
C819 C818 1.373 1_554 S
C819 C835 1.377 . S
C820 C818 1.389 . S
C820 C821 1.524 . S
C820 C834 1.377 . S
C821 C820 1.524 . S
C821 C822 1.397 . S
C821 C826 1.363 . S
C822 H799 0.950 . S
C822 C821 1.397 . S
C822 C823 1.334 . S
C823 H800 0.950 . S
C823 C822 1.334 . S
C823 C824 1.287 . S
C824 C823 1.287 . S
C824 C825 1.524 . S
C824 H843 0.913 . S
C825 H801 0.950 . S
C825 C824 1.524 . S
C825 C826 1.415 . S
C826 H802 0.950 . S
C826 C821 1.363 . S
C826 C825 1.415 . S
C827 H803 0.951 . S
C827 C828 1.366 1_655 S
C827 C829 1.388 . S
C828 C827 1.366 1_455 S
C828 C832 1.385 1_455 S
C829 H804 0.951 . S
C829 C827 1.388 . S
C829 C830 1.366 . S
C830 C829 1.366 . S
C830 C831 1.414 . S
C830 C833 1.499 . S
C831 H805 0.950 . S
C831 C830 1.414 . S
C831 C832 1.374 . S
C832 H806 0.950 1_655 S
C832 C828 1.385 1_655 S
C832 C831 1.374 . S
C833 C830 1.499 . S
C833 C834 1.373 1_554 S
C833 C835 1.389 . S
C834 H807 0.950 . S
C834 C820 1.377 . S
C834 C833 1.373 1_556 S
C835 C819 1.377 . S
C835 C833 1.389 . S
C835 C836 1.524 . S
C836 C835 1.524 . S
C836 C837 1.397 . S
C836 C841 1.363 . S
C837 H808 0.950 . S
C837 C836 1.397 . S
C837 C838 1.334 . S
C838 H809 0.950 . S
C838 C837 1.334 . S
C838 C839 1.287 . S
C839 C838 1.287 . S
C839 C840 1.524 . S
C839 H842 0.999 . S
C840 H810 0.950 . S
C840 C839 1.524 . S
C840 C841 1.415 . S
C841 H811 0.950 . S
C841 C836 1.363 . S
C841 C840 1.415 . S
H842 C839 0.999 . S
H843 C824 0.913 . S
H844 C862 0.954 . S
H845 C864 0.951 . S
H846 C866 0.950 . S
H847 C867 0.950 . S
H848 C869 0.950 . S
H849 C872 0.950 . S
H850 C873 0.950 . S
H851 C875 0.950 . S
H852 C876 0.950 . S
H853 C877 0.951 . S
H854 C879 0.951 . S
H855 C881 0.950 . S
H856 C882 0.950 . S
H857 C884 0.950 . S
H858 C887 0.950 . S
H859 C888 0.950 . S
H860 C890 0.950 . S
H861 C891 0.950 . S
C862 H844 0.954 . S
C862 C863 1.366 1_455 S
C862 C864 1.388 . S
C863 C862 1.366 1_655 S
C863 C867 1.385 1_655 S
C864 H845 0.951 . S
C864 C862 1.388 . S
C864 C865 1.366 . S
C865 C864 1.366 . S
C865 C866 1.414 . S
C865 C868 1.499 . S
C866 H846 0.950 . S
C866 C865 1.414 . S
C866 C867 1.374 . S
C867 H847 0.950 . S
C867 C863 1.385 1_455 S
C867 C866 1.374 . S
C868 C865 1.499 . S
C868 C869 1.373 . S
C868 C870 1.389 . S
C869 H848 0.950 . S
C869 C868 1.373 . S
C869 C885 1.377 . S
C870 C868 1.389 . S
C870 C871 1.524 . S
C870 C884 1.377 . S
C871 C870 1.524 . S
C871 C872 1.397 . S
C871 C876 1.363 . S
C872 H849 0.950 . S
C872 C871 1.397 . S
C872 C873 1.334 . S
C873 H850 0.950 . S
C873 C872 1.334 . S
C873 C874 1.287 . S
C874 C873 1.287 . S
C874 C875 1.524 . S
C874 H893 0.913 . S
C875 H851 0.950 . S
C875 C874 1.524 . S
C875 C876 1.415 . S
C876 H852 0.950 . S
C876 C871 1.363 . S
C876 C875 1.415 . S
C877 H853 0.951 . S
C877 C878 1.366 . S
C877 C879 1.388 . S
C878 C877 1.366 . S
C878 C882 1.385 . S
C879 H854 0.951 . S
C879 C877 1.388 . S
C879 C880 1.366 . S
C880 C879 1.366 . S
C880 C881 1.414 . S
C880 C883 1.499 . S
C881 H855 0.950 . S
C881 C880 1.414 . S
C881 C882 1.374 . S
C882 H856 0.950 . S
C882 C878 1.385 . S
C882 C881 1.374 . S
C883 C880 1.499 . S
C883 C884 1.373 . S
C883 C885 1.389 . S
C884 H857 0.950 . S
C884 C870 1.377 . S
C884 C883 1.373 . S
C885 C869 1.377 . S
C885 C883 1.389 . S
C885 C886 1.524 . S
C886 C885 1.524 . S
C886 C887 1.397 . S
C886 C891 1.363 . S
C887 H858 0.950 . S
C887 C886 1.397 . S
C887 C888 1.334 . S
C888 H859 0.950 . S
C888 C887 1.334 . S
C888 C889 1.287 . S
C889 C888 1.287 . S
C889 C890 1.524 . S
C889 H892 0.999 . S
C890 H860 0.950 . S
C890 C889 1.524 . S
C890 C891 1.415 . S
C891 H861 0.950 . S
C891 C886 1.363 . S
C891 C890 1.415 . S
H892 C889 0.999 . S
H893 C874 0.913 . S
H894 C912 0.951 . S
H895 C914 0.951 . S
H896 C916 0.950 . S
H897 C917 0.950 . S
H898 C919 0.950 . S
H899 C922 0.950 . S
H900 C923 0.950 . S
H901 C925 0.950 . S
H902 C926 0.950 . S
H903 C927 0.951 . S
H904 C929 0.951 . S
H905 C931 0.950 . S
H906 C932 0.950 . S
H907 C934 0.950 . S
H908 C937 0.950 . S
H909 C938 0.950 . S
H910 C940 0.950 . S
H911 C941 0.950 . S
C912 H894 0.951 . S
C912 C913 1.366 . S
C912 C914 1.388 . S
C913 C912 1.366 . S
C913 C917 1.385 . S
C914 H895 0.951 . S
C914 C912 1.388 . S
C914 C915 1.366 . S
C915 C914 1.366 . S
C915 C916 1.414 . S
C915 C918 1.499 . S
C916 H896 0.950 . S
C916 C915 1.414 . S
C916 C917 1.374 . S
C917 H897 0.950 . S
C917 C913 1.385 . S
C917 C916 1.374 . S
C918 C915 1.499 . S
C918 C919 1.373 . S
C918 C920 1.389 . S
C919 H898 0.950 . S
C919 C918 1.373 . S
C919 C935 1.377 . S
C920 C918 1.389 . S
C920 C921 1.524 . S
C920 C934 1.377 . S
C921 C920 1.524 . S
C921 C922 1.397 . S
C921 C926 1.363 . S
C922 H899 0.950 . S
C922 C921 1.397 . S
C922 C923 1.334 . S
C923 H900 0.950 . S
C923 C922 1.334 . S
C923 C924 1.287 . S
C924 C923 1.287 . S
C924 C925 1.524 . S
C924 H943 0.913 . S
C925 H901 0.950 . S
C925 C924 1.524 . S
C925 C926 1.415 . S
C926 H902 0.950 . S
C926 C921 1.363 . S
C926 C925 1.415 . S
C927 H903 0.951 . S
C927 C928 1.366 . S
C927 C929 1.388 . S
C928 C927 1.366 . S
C928 C932 1.385 . S
C929 H904 0.951 . S
C929 C927 1.388 . S
C929 C930 1.366 . S
C930 C929 1.366 . S
C930 C931 1.414 . S
C930 C933 1.499 . S
C931 H905 0.950 . S
C931 C930 1.414 . S
C931 C932 1.374 . S
C932 H906 0.950 . S
C932 C928 1.385 . S
C932 C931 1.374 . S
C933 C930 1.499 . S
C933 C934 1.373 . S
C933 C935 1.389 . S
C934 H907 0.950 . S
C934 C920 1.377 . S
C934 C933 1.373 . S
C935 C919 1.377 . S
C935 C933 1.389 . S
C935 C936 1.524 . S
C936 C935 1.524 . S
C936 C937 1.397 . S
C936 C941 1.363 . S
C937 H908 0.950 . S
C937 C936 1.397 . S
C937 C938 1.334 . S
C938 H909 0.950 . S
C938 C937 1.334 . S
C938 C939 1.287 . S
C939 C938 1.287 . S
C939 C940 1.524 . S
C939 H942 0.999 . S
C940 H910 0.950 . S
C940 C939 1.524 . S
C940 C941 1.415 . S
C941 H911 0.950 . S
C941 C936 1.363 . S
C941 C940 1.415 . S
H942 C939 0.999 . S
H943 C924 0.913 . S
H944 C962 0.951 . S
H945 C964 0.951 . S
H946 C966 0.950 . S
H947 C967 0.950 . S
H948 C969 0.950 . S
H949 C972 0.950 . S
H950 C973 0.950 . S
H951 C975 0.950 . S
H952 C976 0.950 . S
H953 C977 0.951 1_455 S
H954 C979 0.951 . S
H955 C981 0.950 . S
H956 C982 0.950 . S
H957 C984 0.950 . S
H958 C987 0.950 . S
H959 C988 0.950 . S
H960 C990 0.950 . S
H961 C991 0.950 . S
C962 H944 0.951 . S
C962 C963 1.366 . S
C962 C964 1.388 . S
C963 C962 1.366 . S
C963 C967 1.385 . S
C964 H945 0.951 . S
C964 C962 1.388 . S
C964 C965 1.366 . S
C965 C964 1.366 . S
C965 C966 1.414 . S
C965 C968 1.499 . S
C966 H946 0.950 . S
C966 C965 1.414 . S
C966 C967 1.374 . S
C967 H947 0.950 . S
C967 C963 1.385 . S
C967 C966 1.374 . S
C968 C965 1.499 . S
C968 C969 1.373 . S
C968 C970 1.389 1_554 S
C969 H948 0.950 . S
C969 C968 1.373 . S
C969 C985 1.377 . S
C970 C968 1.389 1_556 S
C970 C971 1.524 . S
C970 C984 1.377 . S
C971 C970 1.524 . S
C971 C972 1.397 . S
C971 C976 1.363 . S
C972 H949 0.950 . S
C972 C971 1.397 . S
C972 C973 1.334 . S
C973 H950 0.950 . S
C973 C972 1.334 . S
C973 C974 1.287 . S
C974 C973 1.287 . S
C974 C975 1.524 . S
C974 H993 0.913 . S
C975 H951 0.950 . S
C975 C974 1.524 . S
C975 C976 1.415 . S
C976 H952 0.950 . S
C976 C971 1.363 . S
C976 C975 1.415 . S
C977 H953 0.951 1_655 S
C977 C978 1.366 1_655 S
C977 C979 1.388 . S
C978 C977 1.366 1_455 S
C978 C982 1.385 1_455 S
C979 H954 0.951 . S
C979 C977 1.388 . S
C979 C980 1.366 . S
C980 C979 1.366 . S
C980 C981 1.414 . S
C980 C983 1.499 . S
C981 H955 0.950 . S
C981 C980 1.414 . S
C981 C982 1.374 . S
C982 H956 0.950 . S
C982 C978 1.385 1_655 S
C982 C981 1.374 . S
C983 C980 1.499 . S
C983 C984 1.373 . S
C983 C985 1.389 1_556 S
C984 H957 0.950 . S
C984 C970 1.377 . S
C984 C983 1.373 . S
C985 C969 1.377 . S
C985 C983 1.389 1_554 S
C985 C986 1.524 . S
C986 C985 1.524 . S
C986 C987 1.397 . S
C986 C991 1.363 . S
C987 H958 0.950 . S
C987 C986 1.397 . S
C987 C988 1.334 1_655 S
C988 H959 0.950 . S
C988 C987 1.334 1_455 S
C988 C989 1.287 . S
C989 C988 1.287 . S
C989 C990 1.524 1_455 S
C989 H992 0.999 . S
C990 H960 0.950 . S
C990 C989 1.524 1_655 S
C990 C991 1.415 . S
C991 H961 0.950 . S
C991 C986 1.363 . S
C991 C990 1.415 . S
H992 C989 0.999 . S
H993 C974 0.913 . S
H994 C1012 0.951 . S
H995 C1014 0.951 1_556 S
H996 C1016 0.950 . S
H997 C1017 0.950 . S
H998 C1019 0.950 . S
H999 C1022 0.950 1_554 S
H1000 C1023 0.950 1_554 S
H1001 C1025 0.950 . S
H1002 C1026 0.950 . S
H1003 C1027 0.951 . S
H1004 C1029 0.951 . S
H1005 C1031 0.950 . S
H1006 C1032 0.950 . S
H1007 C1034 0.950 . S
H1008 C1037 0.950 . S
H1009 C1038 0.950 . S
H1010 C1040 0.950 . S
H1011 C1041 0.950 . S
C1012 H994 0.951 . S
C1012 C1013 1.366 . S
C1012 C1014 1.388 . S
C1013 C1012 1.366 . S
C1013 C1017 1.385 . S
C1014 H995 0.951 1_554 S
C1014 C1012 1.388 . S
C1014 C1015 1.366 . S
C1015 C1014 1.366 . S
C1015 C1016 1.414 . S
C1015 C1018 1.499 . S
C1016 H996 0.950 . S
C1016 C1015 1.414 . S
C1016 C1017 1.374 . S
C1017 H997 0.950 . S
C1017 C1013 1.385 . S
C1017 C1016 1.374 . S
C1018 C1015 1.499 . S
C1018 C1019 1.373 . S
C1018 C1020 1.389 1_554 S
C1019 H998 0.950 . S
C1019 C1018 1.373 . S
C1019 C1035 1.399 . S
C1020 C1018 1.389 1_556 S
C1020 C1021 1.524 . S
C1020 C1034 1.377 . S
C1021 C1020 1.524 . S
C1021 C1022 1.397 . S
C1021 C1026 1.363 . S
C1022 H999 0.950 1_556 S
C1022 C1021 1.397 . S
C1022 C1023 1.334 . S
C1023 H1000 0.950 1_556 S
C1023 C1022 1.334 . S
C1023 C1024 1.287 . S
C1024 C1023 1.287 . S
C1024 C1025 1.524 . S
C1024 H1043 0.913 . S
C1025 H1001 0.950 . S
C1025 C1024 1.524 . S
C1025 C1026 1.415 . S
C1026 H1002 0.950 . S
C1026 C1021 1.363 . S
C1026 C1025 1.415 . S
C1027 H1003 0.951 . S
C1027 C1028 1.366 . S
C1027 C1029 1.388 . S
C1028 C1027 1.366 . S
C1028 C1032 1.385 . S
C1029 H1004 0.951 . S
C1029 C1027 1.388 . S
C1029 C1030 1.366 . S
C1030 C1029 1.366 . S
C1030 C1031 1.414 . S
C1030 C1033 1.499 . S
C1031 H1005 0.950 . S
C1031 C1030 1.414 . S
C1031 C1032 1.374 . S
C1032 H1006 0.950 . S
C1032 C1028 1.385 . S
C1032 C1031 1.374 . S
C1033 C1030 1.499 . S
C1033 C1034 1.373 . S
C1033 C1035 1.359 1_556 S
C1034 H1007 0.950 . S
C1034 C1020 1.377 . S
C1034 C1033 1.373 . S
C1035 C1019 1.399 . S
C1035 C1033 1.359 1_554 S
C1035 C1036 1.535 . S
C1036 C1035 1.535 . S
C1036 C1037 1.397 1_554 S
C1036 C1041 1.363 . S
C1037 H1008 0.950 . S
C1037 C1036 1.397 1_556 S
C1037 C1038 1.334 . S
C1038 H1009 0.950 . S
C1038 C1037 1.334 . S
C1038 C1039 1.287 1_556 S
C1039 C1038 1.287 1_554 S
C1039 C1040 1.524 . S
C1039 H1042 0.999 . S
C1040 H1010 0.950 . S
C1040 C1039 1.524 . S
C1040 C1041 1.415 . S
C1041 H1011 0.950 . S
C1041 C1036 1.363 . S
C1041 C1040 1.415 . S
H1042 C1039 0.999 . S
H1043 C1024 0.913 . S
H1044 C1062 0.951 . S
H1045 C1064 0.951 . S
H1046 C1066 0.950 . S
H1047 C1067 0.950 . S
H1048 C1069 0.950 . S
H1049 C1072 0.950 . S
H1050 C1073 0.950 . S
H1051 C1075 0.950 . S
H1052 C1076 0.950 . S
H1053 C1077 0.951 . S
H1054 C1079 0.951 . S
H1055 C1081 0.950 . S
H1056 C1082 0.950 . S
H1057 C1084 0.950 . S
H1058 C1087 0.950 . S
H1059 C1088 0.950 . S
H1060 C1090 0.950 . S
H1061 C1091 0.950 . S
C1062 H1044 0.951 . S
C1062 C1063 1.366 . S
C1062 C1064 1.388 . S
C1063 C1062 1.366 . S
C1063 C1067 1.385 . S
C1064 H1045 0.951 . S
C1064 C1062 1.388 . S
C1064 C1065 1.366 . S
C1065 C1064 1.366 . S
C1065 C1066 1.414 . S
C1065 C1068 1.499 . S
C1066 H1046 0.950 . S
C1066 C1065 1.414 . S
C1066 C1067 1.374 . S
C1067 H1047 0.950 . S
C1067 C1063 1.385 . S
C1067 C1066 1.374 . S
C1068 C1065 1.499 . S
C1068 C1069 1.373 . S
C1068 C1070 1.389 . S
C1069 H1048 0.950 . S
C1069 C1068 1.373 . S
C1069 C1085 1.377 . S
C1070 C1068 1.389 . S
C1070 C1071 1.524 . S
C1070 C1084 1.377 . S
C1071 C1070 1.524 . S
C1071 C1072 1.397 . S
C1071 C1076 1.363 . S
C1072 H1049 0.950 . S
C1072 C1071 1.397 . S
C1072 C1073 1.334 . S
C1073 H1050 0.950 . S
C1073 C1072 1.334 . S
C1073 C1074 1.287 . S
C1074 C1073 1.287 . S
C1074 C1075 1.524 . S
C1074 H1093 0.913 . S
C1075 H1051 0.950 . S
C1075 C1074 1.524 . S
C1075 C1076 1.415 . S
C1076 H1052 0.950 . S
C1076 C1071 1.363 . S
C1076 C1075 1.415 . S
C1077 H1053 0.951 . S
C1077 C1078 1.366 . S
C1077 C1079 1.388 . S
C1078 C1077 1.366 . S
C1078 C1082 1.385 . S
C1079 H1054 0.951 . S
C1079 C1077 1.388 . S
C1079 C1080 1.366 . S
C1080 C1079 1.366 . S
C1080 C1081 1.414 . S
C1080 C1083 1.499 . S
C1081 H1055 0.950 . S
C1081 C1080 1.414 . S
C1081 C1082 1.374 . S
C1082 H1056 0.950 . S
C1082 C1078 1.385 . S
C1082 C1081 1.374 . S
C1083 C1080 1.499 . S
C1083 C1084 1.373 . S
C1083 C1085 1.389 . S
C1084 H1057 0.950 . S
C1084 C1070 1.377 . S
C1084 C1083 1.373 . S
C1085 C1069 1.377 . S
C1085 C1083 1.389 . S
C1085 C1086 1.524 . S
C1086 C1085 1.524 . S
C1086 C1087 1.397 . S
C1086 C1091 1.363 . S
C1087 H1058 0.950 . S
C1087 C1086 1.397 . S
C1087 C1088 1.334 . S
C1088 H1059 0.950 . S
C1088 C1087 1.334 . S
C1088 C1089 1.287 . S
C1089 C1088 1.287 . S
C1089 C1090 1.524 . S
C1089 H1092 0.999 . S
C1090 H1060 0.950 . S
C1090 C1089 1.524 . S
C1090 C1091 1.415 . S
C1091 H1061 0.950 . S
C1091 C1086 1.363 . S
C1091 C1090 1.415 . S
H1092 C1089 0.999 . S
H1093 C1074 0.913 . S
H1094 C1112 0.951 . S
H1095 C1114 0.951 . S
H1096 C1116 0.950 . S
H1097 C1117 0.950 . S
H1098 C1119 0.950 . S
H1099 C1122 0.950 . S
H1100 C1123 0.950 . S
H1101 C1125 0.950 . S
H1102 C1126 0.950 . S
H1103 C1127 0.951 . S
H1104 C1129 0.951 . S
H1105 C1131 0.950 . S
H1106 C1132 0.950 . S
H1107 C1134 0.950 . S
H1108 C1137 0.950 . S
H1109 C1138 0.950 . S
H1110 C1140 0.950 . S
H1111 C1141 0.950 . S
C1112 H1094 0.951 . S
C1112 C1113 1.366 . S
C1112 C1114 1.388 . S
C1113 C1112 1.366 . S
C1113 C1117 1.385 . S
C1114 H1095 0.951 . S
C1114 C1112 1.388 . S
C1114 C1115 1.366 . S
C1115 C1114 1.366 . S
C1115 C1116 1.414 . S
C1115 C1118 1.499 . S
C1116 H1096 0.950 . S
C1116 C1115 1.414 . S
C1116 C1117 1.374 . S
C1117 H1097 0.950 . S
C1117 C1113 1.385 . S
C1117 C1116 1.374 . S
C1118 C1115 1.499 . S
C1118 C1119 1.373 . S
C1118 C1120 1.389 . S
C1119 H1098 0.950 . S
C1119 C1118 1.373 . S
C1119 C1135 1.377 . S
C1120 C1118 1.389 . S
C1120 C1121 1.524 . S
C1120 C1134 1.377 . S
C1121 C1120 1.524 . S
C1121 C1122 1.397 . S
C1121 C1126 1.363 . S
C1122 H1099 0.950 . S
C1122 C1121 1.397 . S
C1122 C1123 1.334 . S
C1123 H1100 0.950 . S
C1123 C1122 1.334 . S
C1123 C1124 1.287 . S
C1124 C1123 1.287 . S
C1124 C1125 1.524 . S
C1124 H1143 0.913 . S
C1125 H1101 0.950 . S
C1125 C1124 1.524 . S
C1125 C1126 1.415 . S
C1126 H1102 0.950 . S
C1126 C1121 1.363 . S
C1126 C1125 1.415 . S
C1127 H1103 0.951 . S
C1127 C1128 1.366 . S
C1127 C1129 1.388 1_655 S
C1128 C1127 1.366 . S
C1128 C1132 1.385 1_655 S
C1129 H1104 0.951 . S
C1129 C1127 1.388 1_455 S
C1129 C1130 1.366 . S
C1130 C1129 1.366 . S
C1130 C1131 1.414 . S
C1130 C1133 1.499 . S
C1131 H1105 0.950 . S
C1131 C1130 1.414 . S
C1131 C1132 1.374 . S
C1132 H1106 0.950 . S
C1132 C1128 1.385 1_455 S
C1132 C1131 1.374 . S
C1133 C1130 1.499 . S
C1133 C1134 1.373 . S
C1133 C1135 1.389 . S
C1134 H1107 0.950 . S
C1134 C1120 1.377 . S
C1134 C1133 1.373 . S
C1135 C1119 1.377 . S
C1135 C1133 1.389 . S
C1135 C1136 1.524 . S
C1136 C1135 1.524 . S
C1136 C1137 1.397 . S
C1136 C1141 1.363 . S
C1137 H1108 0.950 . S
C1137 C1136 1.397 . S
C1137 C1138 1.334 . S
C1138 H1109 0.950 . S
C1138 C1137 1.334 . S
C1138 C1139 1.287 . S
C1139 C1138 1.287 . S
C1139 C1140 1.524 . S
C1139 H1142 0.999 . S
C1140 H1110 0.950 . S
C1140 C1139 1.524 . S
C1140 C1141 1.415 . S
C1141 H1111 0.950 . S
C1141 C1136 1.363 . S
C1141 C1140 1.415 . S
H1142 C1139 0.999 . S
H1143 C1124 0.913 . S
H1144 C1162 0.951 . S
H1145 C1164 0.951 . S
H1146 C1166 0.950 . S
H1147 C1167 0.950 . S
H1148 C1169 0.950 . S
H1149 C1172 0.950 . S
H1150 C1173 0.950 . S
H1151 C1175 0.950 . S
H1152 C1176 0.950 . S
H1153 C1177 0.951 1_655 S
H1154 C1179 0.951 . S
H1155 C1181 0.950 . S
H1156 C1182 0.950 . S
H1157 C1184 0.950 . S
H1158 C1187 0.950 . S
H1159 C1188 0.955 . S
H1160 C1190 0.950 . S
H1161 C1191 0.950 . S
C1162 H1144 0.951 . S
C1162 C1163 1.366 . S
C1162 C1164 1.388 . S
C1163 C1162 1.366 . S
C1163 C1167 1.385 . S
C1164 H1145 0.951 . S
C1164 C1162 1.388 . S
C1164 C1165 1.366 . S
C1165 C1164 1.366 . S
C1165 C1166 1.414 . S
C1165 C1168 1.499 . S
C1166 H1146 0.950 . S
C1166 C1165 1.414 . S
C1166 C1167 1.374 . S
C1167 H1147 0.950 . S
C1167 C1163 1.385 . S
C1167 C1166 1.374 . S
C1168 C1165 1.499 . S
C1168 C1169 1.373 . S
C1168 C1170 1.389 1_556 S
C1169 H1148 0.950 . S
C1169 C1168 1.373 . S
C1169 C1185 1.377 . S
C1170 C1168 1.389 1_554 S
C1170 C1171 1.524 . S
C1170 C1184 1.377 . S
C1171 C1170 1.524 . S
C1171 C1172 1.397 . S
C1171 C1176 1.363 . S
C1172 H1149 0.950 . S
C1172 C1171 1.397 . S
C1172 C1173 1.334 . S
C1173 H1150 0.950 . S
C1173 C1172 1.334 . S
C1173 C1174 1.287 . S
C1174 C1173 1.287 . S
C1174 C1175 1.524 . S
C1174 H1193 0.913 . S
C1175 H1151 0.950 . S
C1175 C1174 1.524 . S
C1175 C1176 1.415 . S
C1176 H1152 0.950 . S
C1176 C1171 1.363 . S
C1176 C1175 1.415 . S
C1177 H1153 0.951 1_455 S
C1177 C1178 1.366 1_455 S
C1177 C1179 1.388 . S
C1178 C1177 1.366 1_655 S
C1178 C1182 1.385 1_655 S
C1179 H1154 0.951 . S
C1179 C1177 1.388 . S
C1179 C1180 1.366 . S
C1180 C1179 1.366 . S
C1180 C1181 1.414 . S
C1180 C1183 1.499 . S
C1181 H1155 0.950 . S
C1181 C1180 1.414 . S
C1181 C1182 1.374 . S
C1182 H1156 0.950 . S
C1182 C1178 1.385 1_455 S
C1182 C1181 1.374 . S
C1183 C1180 1.499 . S
C1183 C1184 1.373 . S
C1183 C1185 1.389 1_554 S
C1184 H1157 0.950 . S
C1184 C1170 1.377 . S
C1184 C1183 1.373 . S
C1185 C1169 1.377 . S
C1185 C1183 1.389 1_556 S
C1185 C1186 1.524 . S
C1186 C1185 1.524 . S
C1186 C1187 1.397 . S
C1186 C1191 1.363 . S
C1187 H1158 0.950 . S
C1187 C1186 1.397 . S
C1187 C1188 1.327 1_455 S
C1188 H1159 0.955 . S
C1188 C1187 1.327 1_655 S
C1188 C1189 1.289 . S
C1189 C1188 1.289 . S
C1189 C1190 1.524 1_655 S
C1189 H1192 0.999 . S
C1190 H1160 0.950 . S
C1190 C1189 1.524 1_455 S
C1190 C1191 1.415 . S
C1191 H1161 0.950 . S
C1191 C1186 1.363 . S
C1191 C1190 1.415 . S
H1192 C1189 0.999 . S
H1193 C1174 0.913 . S
H1194 C1212 0.951 . S
H1195 C1214 0.951 . S
H1196 C1216 0.950 . S
H1197 C1217 0.950 . S
H1198 C1219 0.950 . S
H1199 C1222 0.950 . S
H1200 C1223 0.950 . S
H1201 C1225 0.950 . S
H1202 C1226 0.950 . S
H1203 C1227 0.951 . S
H1204 C1229 0.951 . S
H1205 C1231 0.950 . S
H1206 C1232 0.950 . S
H1207 C1234 0.950 . S
H1208 C1237 0.950 . S
H1209 C1238 0.950 . S
H1210 C1240 0.950 1_556 S
H1211 C1241 0.950 . S
C1212 H1194 0.951 . S
C1212 C1213 1.366 . S
C1212 C1214 1.388 . S
C1213 C1212 1.366 . S
C1213 C1217 1.385 . S
C1214 H1195 0.951 . S
C1214 C1212 1.388 . S
C1214 C1215 1.366 . S
C1215 C1214 1.366 . S
C1215 C1216 1.414 . S
C1215 C1218 1.499 . S
C1216 H1196 0.950 . S
C1216 C1215 1.414 . S
C1216 C1217 1.374 . S
C1217 H1197 0.950 . S
C1217 C1213 1.385 . S
C1217 C1216 1.374 . S
C1218 C1215 1.499 . S
C1218 C1219 1.373 . S
C1218 C1220 1.379 1_556 S
C1219 H1198 0.950 . S
C1219 C1218 1.373 . S
C1219 C1235 1.377 1_556 S
C1220 C1218 1.379 1_554 S
C1220 C1221 1.520 1_554 S
C1220 C1234 1.392 . S
C1221 C1220 1.520 1_556 S
C1221 C1222 1.397 . S
C1221 C1226 1.363 1_556 S
C1222 H1199 0.950 . S
C1222 C1221 1.397 . S
C1222 C1223 1.334 . S
C1223 H1200 0.950 . S
C1223 C1222 1.334 . S
C1223 C1224 1.287 . S
C1224 C1223 1.287 . S
C1224 C1225 1.524 1_556 S
C1224 H1243 0.913 . S
C1225 H1201 0.950 . S
C1225 C1224 1.524 1_554 S
C1225 C1226 1.415 . S
C1226 H1202 0.950 . S
C1226 C1221 1.363 1_554 S
C1226 C1225 1.415 . S
C1227 H1203 0.951 . S
C1227 C1228 1.366 . S
C1227 C1229 1.388 . S
C1228 C1227 1.366 . S
C1228 C1232 1.385 . S
C1229 H1204 0.951 . S
C1229 C1227 1.388 . S
C1229 C1230 1.366 . S
C1230 C1229 1.366 . S
C1230 C1231 1.414 . S
C1230 C1233 1.499 . S
C1231 H1205 0.950 . S
C1231 C1230 1.414 . S
C1231 C1232 1.374 . S
C1232 H1206 0.950 . S
C1232 C1228 1.385 . S
C1232 C1231 1.374 . S
C1233 C1230 1.499 . S
C1233 C1234 1.373 . S
C1233 C1235 1.389 . S
C1234 H1207 0.950 . S
C1234 C1220 1.392 . S
C1234 C1233 1.373 . S
C1235 C1219 1.377 1_554 S
C1235 C1233 1.389 . S
C1235 C1236 1.524 . S
C1236 C1235 1.524 . S
C1236 C1237 1.397 . S
C1236 C1241 1.363 1_554 S
C1237 H1208 0.950 . S
C1237 C1236 1.397 . S
C1237 C1238 1.334 . S
C1238 H1209 0.950 . S
C1238 C1237 1.334 . S
C1238 C1239 1.287 . S
C1239 C1238 1.287 . S
C1239 C1240 1.524 . S
C1239 H1242 0.999 . S
C1240 H1210 0.950 1_554 S
C1240 C1239 1.524 . S
C1240 C1241 1.415 1_554 S
C1241 H1211 0.950 . S
C1241 C1236 1.363 1_556 S
C1241 C1240 1.415 1_556 S
H1242 C1239 0.999 . S
H1243 C1224 0.913 . S
H1244 C1262 0.951 . S
H1245 C1264 0.951 . S
H1246 C1266 0.950 . S
H1247 C1267 0.950 . S
H1248 C1269 0.950 . S
H1249 C1272 0.950 . S
H1250 C1273 0.950 . S
H1251 C1275 0.950 . S
H1252 C1276 0.950 . S
H1253 C1277 0.951 . S
H1254 C1279 0.951 . S
H1255 C1281 0.950 . S
H1256 C1282 0.950 . S
H1257 C1284 0.950 . S
H1258 C1287 0.950 . S
H1259 C1288 0.950 . S
H1260 C1290 0.950 . S
H1261 C1291 0.950 . S
C1262 H1244 0.951 . S
C1262 C1263 1.366 . S
C1262 C1264 1.388 . S
C1263 C1262 1.366 . S
C1263 C1267 1.385 . S
C1264 H1245 0.951 . S
C1264 C1262 1.388 . S
C1264 C1265 1.366 . S
C1265 C1264 1.366 . S
C1265 C1266 1.414 . S
C1265 C1268 1.499 . S
C1266 H1246 0.950 . S
C1266 C1265 1.414 . S
C1266 C1267 1.374 . S
C1267 H1247 0.950 . S
C1267 C1263 1.385 . S
C1267 C1266 1.374 . S
C1268 C1265 1.499 . S
C1268 C1269 1.373 . S
C1268 C1270 1.389 . S
C1269 H1248 0.950 . S
C1269 C1268 1.373 . S
C1269 C1285 1.377 . S
C1270 C1268 1.389 . S
C1270 C1271 1.524 . S
C1270 C1284 1.377 . S
C1271 C1270 1.524 . S
C1271 C1272 1.397 . S
C1271 C1276 1.363 . S
C1272 H1249 0.950 . S
C1272 C1271 1.397 . S
C1272 C1273 1.334 . S
C1273 H1250 0.950 . S
C1273 C1272 1.334 . S
C1273 C1274 1.287 . S
C1274 C1273 1.287 . S
C1274 C1275 1.524 . S
C1274 H1293 0.913 . S
C1275 H1251 0.950 . S
C1275 C1274 1.524 . S
C1275 C1276 1.415 . S
C1276 H1252 0.950 . S
C1276 C1271 1.363 . S
C1276 C1275 1.415 . S
C1277 H1253 0.951 . S
C1277 C1278 1.366 . S
C1277 C1279 1.388 . S
C1278 C1277 1.366 . S
C1278 C1282 1.385 . S
C1279 H1254 0.951 . S
C1279 C1277 1.388 . S
C1279 C1280 1.366 . S
C1280 C1279 1.366 . S
C1280 C1281 1.414 . S
C1280 C1283 1.499 . S
C1281 H1255 0.950 . S
C1281 C1280 1.414 . S
C1281 C1282 1.374 . S
C1282 H1256 0.950 . S
C1282 C1278 1.385 . S
C1282 C1281 1.374 . S
C1283 C1280 1.499 . S
C1283 C1284 1.373 . S
C1283 C1285 1.389 . S
C1284 H1257 0.950 . S
C1284 C1270 1.377 . S
C1284 C1283 1.373 . S
C1285 C1269 1.377 . S
C1285 C1283 1.389 . S
C1285 C1286 1.524 . S
C1286 C1285 1.524 . S
C1286 C1287 1.397 . S
C1286 C1291 1.363 . S
C1287 H1258 0.950 . S
C1287 C1286 1.397 . S
C1287 C1288 1.334 . S
C1288 H1259 0.950 . S
C1288 C1287 1.334 . S
C1288 C1289 1.287 . S
C1289 C1288 1.287 . S
C1289 C1290 1.524 . S
C1289 H1292 0.999 . S
C1290 H1260 0.950 . S
C1290 C1289 1.524 . S
C1290 C1291 1.415 . S
C1291 H1261 0.950 . S
C1291 C1286 1.363 . S
C1291 C1290 1.415 . S
H1292 C1289 0.999 . S
H1293 C1274 0.913 . S
H1294 C1312 0.951 . S
H1295 C1314 0.951 . S
H1296 C1316 0.950 . S
H1297 C1317 0.950 . S
H1298 C1319 0.950 . S
H1299 C1322 0.950 . S
H1300 C1323 0.950 . S
H1301 C1325 0.950 . S
H1302 C1326 0.950 . S
H1303 C1327 0.951 . S
H1304 C1329 0.951 . S
H1305 C1331 0.950 . S
H1306 C1332 0.950 . S
H1307 C1334 0.950 . S
H1308 C1337 0.950 . S
H1309 C1338 0.950 . S
H1310 C1340 0.950 . S
H1311 C1341 0.950 . S
C1312 H1294 0.951 . S
C1312 C1313 1.366 1_655 S
C1312 C1314 1.388 . S
C1313 C1312 1.366 1_455 S
C1313 C1317 1.385 . S
C1314 H1295 0.951 . S
C1314 C1312 1.388 . S
C1314 C1315 1.366 . S
C1315 C1314 1.366 . S
C1315 C1316 1.414 . S
C1315 C1318 1.499 . S
C1316 H1296 0.950 . S
C1316 C1315 1.414 . S
C1316 C1317 1.374 1_655 S
C1317 H1297 0.950 . S
C1317 C1313 1.385 . S
C1317 C1316 1.374 1_455 S
C1318 C1315 1.499 . S
C1318 C1319 1.373 . S
C1318 C1320 1.389 . S
C1319 H1298 0.950 . S
C1319 C1318 1.373 . S
C1319 C1335 1.377 . S
C1320 C1318 1.389 . S
C1320 C1321 1.524 . S
C1320 C1334 1.377 . S
C1321 C1320 1.524 . S
C1321 C1322 1.397 . S
C1321 C1326 1.363 . S
C1322 H1299 0.950 . S
C1322 C1321 1.397 . S
C1322 C1323 1.334 . S
C1323 H1300 0.950 . S
C1323 C1322 1.334 . S
C1323 C1324 1.287 . S
C1324 C1323 1.287 . S
C1324 C1325 1.524 . S
C1324 H1343 0.913 . S
C1325 H1301 0.950 . S
C1325 C1324 1.524 . S
C1325 C1326 1.415 . S
C1326 H1302 0.950 . S
C1326 C1321 1.363 . S
C1326 C1325 1.415 . S
C1327 H1303 0.951 . S
C1327 C1328 1.366 . S
C1327 C1329 1.388 . S
C1328 C1327 1.366 . S
C1328 C1332 1.385 . S
C1329 H1304 0.951 . S
C1329 C1327 1.388 . S
C1329 C1330 1.366 . S
C1330 C1329 1.366 . S
C1330 C1331 1.414 . S
C1330 C1333 1.499 . S
C1331 H1305 0.950 . S
C1331 C1330 1.414 . S
C1331 C1332 1.374 . S
C1332 H1306 0.950 . S
C1332 C1328 1.385 . S
C1332 C1331 1.374 . S
C1333 C1330 1.499 . S
C1333 C1334 1.373 . S
C1333 C1335 1.389 . S
C1334 H1307 0.950 . S
C1334 C1320 1.377 . S
C1334 C1333 1.373 . S
C1335 C1319 1.377 . S
C1335 C1333 1.389 . S
C1335 C1336 1.524 . S
C1336 C1335 1.524 . S
C1336 C1337 1.397 . S
C1336 C1341 1.363 . S
C1337 H1308 0.950 . S
C1337 C1336 1.397 . S
C1337 C1338 1.334 . S
C1338 H1309 0.950 . S
C1338 C1337 1.334 . S
C1338 C1339 1.287 . S
C1339 C1338 1.287 . S
C1339 C1340 1.524 . S
C1339 H1342 0.999 . S
C1340 H1310 0.950 . S
C1340 C1339 1.524 . S
C1340 C1341 1.415 . S
C1341 H1311 0.950 . S
C1341 C1336 1.363 . S
C1341 C1340 1.415 . S
H1342 C1339 0.999 . S
H1343 C1324 0.913 . S
H1344 C1362 0.951 . S
H1345 C1364 0.951 . S
H1346 C1366 0.950 . S
H1347 C1367 0.950 . S
H1348 C1369 0.950 . S
H1349 C1372 0.950 . S
H1350 C1373 0.950 . S
H1351 C1375 0.950 . S
H1352 C1376 0.950 . S
H1353 C1377 0.951 . S
H1354 C1379 0.951 . S
H1355 C1381 0.950 . S
H1356 C1382 0.950 . S
H1357 C1384 0.950 . S
H1358 C1387 0.950 . S
H1359 C1388 0.950 . S
H1360 C1390 0.950 . S
H1361 C1391 0.950 . S
C1362 H1344 0.951 . S
C1362 C1363 1.366 . S
C1362 C1364 1.388 . S
C1363 C1362 1.366 . S
C1363 C1367 1.385 . S
C1364 H1345 0.951 . S
C1364 C1362 1.388 . S
C1364 C1365 1.366 . S
C1365 C1364 1.366 . S
C1365 C1366 1.414 . S
C1365 C1368 1.499 . S
C1366 H1346 0.950 . S
C1366 C1365 1.414 . S
C1366 C1367 1.374 . S
C1367 H1347 0.950 . S
C1367 C1363 1.385 . S
C1367 C1366 1.374 . S
C1368 C1365 1.499 . S
C1368 C1369 1.373 . S
C1368 C1370 1.389 . S
C1369 H1348 0.950 . S
C1369 C1368 1.373 . S
C1369 C1385 1.377 1_545 S
C1370 C1368 1.389 . S
C1370 C1371 1.524 . S
C1370 C1384 1.377 1_545 S
C1371 C1370 1.524 . S
C1371 C1372 1.397 . S
C1371 C1376 1.363 1_545 S
C1372 H1349 0.950 . S
C1372 C1371 1.397 . S
C1372 C1373 1.334 . S
C1373 H1350 0.950 . S
C1373 C1372 1.334 . S
C1373 C1374 1.287 . S
C1374 C1373 1.287 . S
C1374 C1375 1.524 1_545 S
C1374 H1393 0.913 . S
C1375 H1351 0.950 . S
C1375 C1374 1.524 1_565 S
C1375 C1376 1.415 . S
C1376 H1352 0.950 . S
C1376 C1371 1.363 1_565 S
C1376 C1375 1.415 . S
C1377 H1353 0.951 . S
C1377 C1378 1.366 . S
C1377 C1379 1.388 . S
C1378 C1377 1.366 . S
C1378 C1382 1.385 . S
C1379 H1354 0.951 . S
C1379 C1377 1.388 . S
C1379 C1380 1.366 . S
C1380 C1379 1.366 . S
C1380 C1381 1.414 . S
C1380 C1383 1.499 . S
C1381 H1355 0.950 . S
C1381 C1380 1.414 . S
C1381 C1382 1.374 . S
C1382 H1356 0.950 . S
C1382 C1378 1.385 . S
C1382 C1381 1.374 . S
C1383 C1380 1.499 . S
C1383 C1384 1.373 . S
C1383 C1385 1.389 . S
C1384 H1357 0.950 . S
C1384 C1370 1.377 1_565 S
C1384 C1383 1.373 . S
C1385 C1369 1.377 1_565 S
C1385 C1383 1.389 . S
C1385 C1386 1.524 . S
C1386 C1385 1.524 . S
C1386 C1387 1.397 . S
C1386 C1391 1.363 1_565 S
C1387 H1358 0.950 . S
C1387 C1386 1.397 . S
C1387 C1388 1.334 . S
C1388 H1359 0.950 . S
C1388 C1387 1.334 . S
C1388 C1389 1.287 . S
C1389 C1388 1.287 . S
C1389 C1390 1.524 1_565 S
C1389 H1392 0.999 . S
C1390 H1360 0.950 . S
C1390 C1389 1.524 1_545 S
C1390 C1391 1.415 . S
C1391 H1361 0.950 . S
C1391 C1386 1.363 1_545 S
C1391 C1390 1.415 . S
H1392 C1389 0.999 . S
H1393 C1374 0.913 . S
H1394 C1412 0.951 . S
H1395 C1414 0.951 . S
H1396 C1416 0.950 . S
H1397 C1417 0.950 . S
H1398 C1419 0.950 . S
H1399 C1422 0.950 . S
H1400 C1423 0.950 . S
H1401 C1425 0.950 . S
H1402 C1426 0.950 . S
H1403 C1427 0.951 . S
H1404 C1429 0.951 . S
H1405 C1431 0.950 . S
H1406 C1432 0.950 . S
H1407 C1434 0.950 . S
H1408 C1437 0.950 . S
H1409 C1438 0.950 . S
H1410 C1440 0.950 . S
H1411 C1441 0.950 . S
C1412 H1394 0.951 . S
C1412 C1413 1.366 . S
C1412 C1414 1.388 . S
C1413 C1412 1.366 . S
C1413 C1417 1.385 . S
C1414 H1395 0.951 . S
C1414 C1412 1.388 . S
C1414 C1415 1.366 . S
C1415 C1414 1.366 . S
C1415 C1416 1.414 . S
C1415 C1418 1.499 . S
C1416 H1396 0.950 . S
C1416 C1415 1.414 . S
C1416 C1417 1.374 . S
C1417 H1397 0.950 . S
C1417 C1413 1.385 . S
C1417 C1416 1.374 . S
C1418 C1415 1.499 . S
C1418 C1419 1.373 . S
C1418 C1420 1.389 . S
C1419 H1398 0.950 . S
C1419 C1418 1.373 . S
C1419 C1435 1.377 1_565 S
C1420 C1418 1.389 . S
C1420 C1421 1.524 . S
C1420 C1434 1.377 1_565 S
C1421 C1420 1.524 . S
C1421 C1422 1.397 . S
C1421 C1426 1.363 . S
C1422 H1399 0.950 . S
C1422 C1421 1.397 . S
C1422 C1423 1.334 . S
C1423 H1400 0.950 . S
C1423 C1422 1.334 . S
C1423 C1424 1.287 . S
C1424 C1423 1.287 . S
C1424 C1425 1.524 . S
C1424 H1443 0.913 . S
C1425 H1401 0.950 . S
C1425 C1424 1.524 . S
C1425 C1426 1.415 . S
C1426 H1402 0.950 . S
C1426 C1421 1.363 . S
C1426 C1425 1.415 . S
C1427 H1403 0.951 . S
C1427 C1428 1.366 . S
C1427 C1429 1.388 . S
C1428 C1427 1.366 . S
C1428 C1432 1.385 . S
C1429 H1404 0.951 . S
C1429 C1427 1.388 . S
C1429 C1430 1.366 . S
C1430 C1429 1.366 . S
C1430 C1431 1.414 . S
C1430 C1433 1.499 . S
C1431 H1405 0.950 . S
C1431 C1430 1.414 . S
C1431 C1432 1.374 . S
C1432 H1406 0.950 . S
C1432 C1428 1.385 . S
C1432 C1431 1.374 . S
C1433 C1430 1.499 . S
C1433 C1434 1.373 . S
C1433 C1435 1.389 . S
C1434 H1407 0.950 . S
C1434 C1420 1.377 1_545 S
C1434 C1433 1.373 . S
C1435 C1419 1.377 1_545 S
C1435 C1433 1.389 . S
C1435 C1436 1.524 . S
C1436 C1435 1.524 . S
C1436 C1437 1.397 . S
C1436 C1441 1.363 . S
C1437 H1408 0.950 . S
C1437 C1436 1.397 . S
C1437 C1438 1.334 . S
C1438 H1409 0.950 . S
C1438 C1437 1.334 . S
C1438 C1439 1.287 . S
C1439 C1438 1.287 . S
C1439 C1440 1.524 . S
C1439 H1442 0.999 . S
C1440 H1410 0.950 . S
C1440 C1439 1.524 . S
C1440 C1441 1.415 . S
C1441 H1411 0.950 . S
C1441 C1436 1.363 . S
C1441 C1440 1.415 . S
H1442 C1439 0.999 . S
H1443 C1424 0.913 . S
H1444 C1462 0.951 . S
H1445 C1464 0.951 . S
H1446 C1466 0.950 . S
H1447 C1467 0.950 . S
H1448 C1469 0.950 . S
H1449 C1472 0.950 . S
H1450 C1473 0.950 . S
H1451 C1475 0.950 . S
H1452 C1476 0.950 . S
H1453 C1477 0.951 . S
H1454 C1479 0.951 . S
H1455 C1481 0.950 . S
H1456 C1482 0.950 . S
H1457 C1484 0.950 . S
H1458 C1487 0.950 . S
H1459 C1488 0.950 . S
H1460 C1490 0.950 . S
H1461 C1491 0.950 . S
C1462 H1444 0.951 . S
C1462 C1463 1.366 . S
C1462 C1464 1.388 . S
C1463 C1462 1.366 . S
C1463 C1467 1.385 . S
C1464 H1445 0.951 . S
C1464 C1462 1.388 . S
C1464 C1465 1.366 . S
C1465 C1464 1.366 . S
C1465 C1466 1.414 . S
C1465 C1468 1.499 . S
C1466 H1446 0.950 . S
C1466 C1465 1.414 . S
C1466 C1467 1.374 . S
C1467 H1447 0.950 . S
C1467 C1463 1.385 . S
C1467 C1466 1.374 . S
C1468 C1465 1.499 . S
C1468 C1469 1.373 . S
C1468 C1470 1.389 . S
C1469 H1448 0.950 . S
C1469 C1468 1.373 . S
C1469 C1485 1.377 1_545 S
C1470 C1468 1.389 . S
C1470 C1471 1.524 . S
C1470 C1484 1.377 1_545 S
C1471 C1470 1.524 . S
C1471 C1472 1.397 . S
C1471 C1476 1.363 . S
C1472 H1449 0.950 . S
C1472 C1471 1.397 . S
C1472 C1473 1.334 . S
C1473 H1450 0.950 . S
C1473 C1472 1.334 . S
C1473 C1474 1.287 . S
C1474 C1473 1.287 . S
C1474 C1475 1.524 . S
C1474 H1493 0.913 . S
C1475 H1451 0.950 . S
C1475 C1474 1.524 . S
C1475 C1476 1.415 . S
C1476 H1452 0.950 . S
C1476 C1471 1.363 . S
C1476 C1475 1.415 . S
C1477 H1453 0.951 . S
C1477 C1478 1.366 . S
C1477 C1479 1.388 . S
C1478 C1477 1.366 . S
C1478 C1482 1.385 . S
C1479 H1454 0.951 . S
C1479 C1477 1.388 . S
C1479 C1480 1.366 . S
C1480 C1479 1.366 . S
C1480 C1481 1.414 . S
C1480 C1483 1.499 . S
C1481 H1455 0.950 . S
C1481 C1480 1.414 . S
C1481 C1482 1.374 . S
C1482 H1456 0.950 . S
C1482 C1478 1.385 . S
C1482 C1481 1.374 . S
C1483 C1480 1.499 . S
C1483 C1484 1.373 . S
C1483 C1485 1.389 . S
C1484 H1457 0.950 . S
C1484 C1470 1.377 1_565 S
C1484 C1483 1.373 . S
C1485 C1469 1.377 1_565 S
C1485 C1483 1.389 . S
C1485 C1486 1.524 . S
C1486 C1485 1.524 . S
C1486 C1487 1.397 . S
C1486 C1491 1.363 . S
C1487 H1458 0.950 . S
C1487 C1486 1.397 . S
C1487 C1488 1.334 . S
C1488 H1459 0.950 . S
C1488 C1487 1.334 . S
C1488 C1489 1.287 . S
C1489 C1488 1.287 . S
C1489 C1490 1.524 . S
C1489 H1492 0.999 . S
C1490 H1460 0.950 . S
C1490 C1489 1.524 . S
C1490 C1491 1.415 . S
C1491 H1461 0.950 . S
C1491 C1486 1.363 . S
C1491 C1490 1.415 . S
H1492 C1489 0.999 . S
H1493 C1474 0.913 . S
H1494 C1512 0.951 . S
H1495 C1514 0.951 . S
H1496 C1516 0.950 . S
H1497 C1517 0.950 . S
H1498 C1519 0.950 . S
H1499 C1522 0.950 . S
H1500 C1523 0.950 . S
H1501 C1525 0.950 . S
H1502 C1526 0.950 . S
H1503 C1527 0.951 . S
H1504 C1529 0.951 . S
H1505 C1531 0.950 . S
H1506 C1532 0.950 . S
H1507 C1534 0.950 . S
H1508 C1537 0.950 . S
H1509 C1538 0.950 . S
H1510 C1540 0.950 . S
H1511 C1541 0.950 . S
C1512 H1494 0.951 . S
C1512 C1513 1.366 . S
C1512 C1514 1.388 . S
C1513 C1512 1.366 . S
C1513 C1517 1.385 . S
C1514 H1495 0.951 . S
C1514 C1512 1.388 . S
C1514 C1515 1.366 . S
C1515 C1514 1.366 . S
C1515 C1516 1.414 . S
C1515 C1518 1.499 . S
C1516 H1496 0.950 . S
C1516 C1515 1.414 . S
C1516 C1517 1.374 . S
C1517 H1497 0.950 . S
C1517 C1513 1.385 . S
C1517 C1516 1.374 . S
C1518 C1515 1.499 . S
C1518 C1519 1.373 . S
C1518 C1520 1.389 . S
C1519 H1498 0.950 . S
C1519 C1518 1.373 . S
C1519 C1535 1.377 1_565 S
C1520 C1518 1.389 . S
C1520 C1521 1.524 . S
C1520 C1534 1.377 1_565 S
C1521 C1520 1.524 . S
C1521 C1522 1.397 . S
C1521 C1526 1.363 . S
C1522 H1499 0.950 . S
C1522 C1521 1.397 . S
C1522 C1523 1.334 . S
C1523 H1500 0.950 . S
C1523 C1522 1.334 . S
C1523 C1524 1.287 . S
C1524 C1523 1.287 . S
C1524 C1525 1.524 . S
C1524 H1543 0.913 . S
C1525 H1501 0.950 . S
C1525 C1524 1.524 . S
C1525 C1526 1.415 . S
C1526 H1502 0.950 . S
C1526 C1521 1.363 . S
C1526 C1525 1.415 . S
C1527 H1503 0.951 . S
C1527 C1528 1.366 . S
C1527 C1529 1.388 . S
C1528 C1527 1.366 . S
C1528 C1532 1.385 . S
C1529 H1504 0.951 . S
C1529 C1527 1.388 . S
C1529 C1530 1.366 . S
C1530 C1529 1.366 . S
C1530 C1531 1.414 . S
C1530 C1533 1.499 . S
C1531 H1505 0.950 . S
C1531 C1530 1.414 . S
C1531 C1532 1.374 . S
C1532 H1506 0.950 . S
C1532 C1528 1.385 . S
C1532 C1531 1.374 . S
C1533 C1530 1.499 . S
C1533 C1534 1.373 . S
C1533 C1535 1.389 . S
C1534 H1507 0.950 . S
C1534 C1520 1.377 1_545 S
C1534 C1533 1.373 . S
C1535 C1519 1.377 1_545 S
C1535 C1533 1.389 . S
C1535 C1536 1.524 . S
C1536 C1535 1.524 . S
C1536 C1537 1.397 . S
C1536 C1541 1.363 . S
C1537 H1508 0.950 . S
C1537 C1536 1.397 . S
C1537 C1538 1.334 . S
C1538 H1509 0.950 . S
C1538 C1537 1.334 . S
C1538 C1539 1.287 . S
C1539 C1538 1.287 . S
C1539 C1540 1.524 . S
C1539 H1542 0.999 . S
C1540 H1510 0.950 . S
C1540 C1539 1.524 . S
C1540 C1541 1.415 . S
C1541 H1511 0.950 . S
C1541 C1536 1.363 . S
C1541 C1540 1.415 . S
H1542 C1539 0.999 . S
H1543 C1524 0.913 . S
H1544 C1562 0.951 . S
H1545 C1564 0.951 . S
H1546 C1566 0.950 . S
H1547 C1567 0.950 . S
H1548 C1569 0.950 . S
H1549 C1572 0.950 . S
H1550 C1573 0.950 . S
H1551 C1575 0.950 . S
H1552 C1576 0.950 . S
H1553 C1577 0.951 . S
H1554 C1579 0.951 . S
H1555 C1581 0.950 . S
H1556 C1582 0.950 . S
H1557 C1584 0.950 . S
H1558 C1587 0.950 . S
H1559 C1588 0.950 . S
H1560 C1590 0.950 . S
H1561 C1591 0.950 . S
C1562 H1544 0.951 . S
C1562 C1563 1.366 . S
C1562 C1564 1.388 . S
C1563 C1562 1.366 . S
C1563 C1567 1.385 . S
C1564 H1545 0.951 . S
C1564 C1562 1.388 . S
C1564 C1565 1.366 . S
C1565 C1564 1.366 . S
C1565 C1566 1.414 . S
C1565 C1568 1.499 . S
C1566 H1546 0.950 . S
C1566 C1565 1.414 . S
C1566 C1567 1.374 . S
C1567 H1547 0.950 . S
C1567 C1563 1.385 . S
C1567 C1566 1.374 . S
C1568 C1565 1.499 . S
C1568 C1569 1.373 . S
C1568 C1570 1.389 . S
C1569 H1548 0.950 . S
C1569 C1568 1.373 . S
C1569 C1585 1.377 . S
C1570 C1568 1.389 . S
C1570 C1571 1.524 . S
C1570 C1584 1.377 . S
C1571 C1570 1.524 . S
C1571 C1572 1.397 . S
C1571 C1576 1.363 . S
C1572 H1549 0.950 . S
C1572 C1571 1.397 . S
C1572 C1573 1.334 . S
C1573 H1550 0.950 . S
C1573 C1572 1.334 . S
C1573 C1574 1.287 . S
C1574 C1573 1.287 . S
C1574 C1575 1.524 . S
C1574 H1593 0.913 . S
C1575 H1551 0.950 . S
C1575 C1574 1.524 . S
C1575 C1576 1.415 . S
C1576 H1552 0.950 . S
C1576 C1571 1.363 . S
C1576 C1575 1.415 . S
C1577 H1553 0.951 . S
C1577 C1578 1.366 . S
C1577 C1579 1.388 . S
C1578 C1577 1.366 . S
C1578 C1582 1.385 . S
C1579 H1554 0.951 . S
C1579 C1577 1.388 . S
C1579 C1580 1.366 . S
C1580 C1579 1.366 . S
C1580 C1581 1.414 . S
C1580 C1583 1.499 . S
C1581 H1555 0.950 . S
C1581 C1580 1.414 . S
C1581 C1582 1.374 . S
C1582 H1556 0.950 . S
C1582 C1578 1.385 . S
C1582 C1581 1.374 . S
C1583 C1580 1.499 . S
C1583 C1584 1.373 . S
C1583 C1585 1.389 . S
C1584 H1557 0.950 . S
C1584 C1570 1.377 . S
C1584 C1583 1.373 . S
C1585 C1569 1.377 . S
C1585 C1583 1.389 . S
C1585 C1586 1.524 . S
C1586 C1585 1.524 . S
C1586 C1587 1.397 . S
C1586 C1591 1.363 . S
C1587 H1558 0.950 . S
C1587 C1586 1.397 . S
C1587 C1588 1.334 . S
C1588 H1559 0.950 . S
C1588 C1587 1.334 . S
C1588 C1589 1.287 . S
C1589 C1588 1.287 . S
C1589 C1590 1.524 . S
C1589 H1592 0.999 . S
C1590 H1560 0.950 . S
C1590 C1589 1.524 . S
C1590 C1591 1.415 . S
C1591 H1561 0.950 . S
C1591 C1586 1.363 . S
C1591 C1590 1.415 . S
H1592 C1589 0.999 . S
H1593 C1574 0.913 . S
H1594 C1612 0.951 . S
H1595 C1614 0.951 . S
H1596 C1616 0.950 . S
H1597 C1617 0.950 . S
H1598 C1619 0.950 . S
H1599 C1622 0.950 . S
H1600 C1623 0.950 . S
H1601 C1625 0.950 . S
H1602 C1626 0.950 . S
H1603 C1627 0.951 . S
H1604 C1629 0.951 . S
H1605 C1631 0.950 . S
H1606 C1632 0.950 . S
H1607 C1634 0.950 . S
H1608 C1637 0.950 . S
H1609 C1638 0.950 . S
H1610 C1640 0.950 . S
H1611 C1641 0.950 . S
C1612 H1594 0.951 . S
C1612 C1613 1.366 . S
C1612 C1614 1.388 . S
C1613 C1612 1.366 . S
C1613 C1617 1.385 . S
C1614 H1595 0.951 . S
C1614 C1612 1.388 . S
C1614 C1615 1.366 . S
C1615 C1614 1.366 . S
C1615 C1616 1.414 . S
C1615 C1618 1.499 . S
C1616 H1596 0.950 . S
C1616 C1615 1.414 . S
C1616 C1617 1.374 . S
C1617 H1597 0.950 . S
C1617 C1613 1.385 . S
C1617 C1616 1.374 . S
C1618 C1615 1.499 . S
C1618 C1619 1.373 . S
C1618 C1620 1.389 . S
C1619 H1598 0.950 . S
C1619 C1618 1.373 . S
C1619 C1635 1.377 . S
C1620 C1618 1.389 . S
C1620 C1621 1.524 . S
C1620 C1634 1.377 . S
C1621 C1620 1.524 . S
C1621 C1622 1.397 . S
C1621 C1626 1.363 . S
C1622 H1599 0.950 . S
C1622 C1621 1.397 . S
C1622 C1623 1.334 . S
C1623 H1600 0.950 . S
C1623 C1622 1.334 . S
C1623 C1624 1.287 . S
C1624 C1623 1.287 . S
C1624 C1625 1.524 . S
C1624 H1643 0.913 . S
C1625 H1601 0.950 . S
C1625 C1624 1.524 . S
C1625 C1626 1.415 . S
C1626 H1602 0.950 . S
C1626 C1621 1.363 . S
C1626 C1625 1.415 . S
C1627 H1603 0.951 . S
C1627 C1628 1.366 . S
C1627 C1629 1.388 . S
C1628 C1627 1.366 . S
C1628 C1632 1.385 . S
C1629 H1604 0.951 . S
C1629 C1627 1.388 . S
C1629 C1630 1.366 . S
C1630 C1629 1.366 . S
C1630 C1631 1.414 . S
C1630 C1633 1.499 . S
C1631 H1605 0.950 . S
C1631 C1630 1.414 . S
C1631 C1632 1.374 . S
C1632 H1606 0.950 . S
C1632 C1628 1.385 . S
C1632 C1631 1.374 . S
C1633 C1630 1.499 . S
C1633 C1634 1.373 . S
C1633 C1635 1.389 . S
C1634 H1607 0.950 . S
C1634 C1620 1.377 . S
C1634 C1633 1.373 . S
C1635 C1619 1.377 . S
C1635 C1633 1.389 . S
C1635 C1636 1.524 . S
C1636 C1635 1.524 . S
C1636 C1637 1.397 . S
C1636 C1641 1.363 . S
C1637 H1608 0.950 . S
C1637 C1636 1.397 . S
C1637 C1638 1.334 . S
C1638 H1609 0.950 . S
C1638 C1637 1.334 . S
C1638 C1639 1.287 . S
C1639 C1638 1.287 . S
C1639 C1640 1.524 . S
C1639 H1642 0.999 . S
C1640 H1610 0.950 . S
C1640 C1639 1.524 . S
C1640 C1641 1.415 . S
C1641 H1611 0.950 . S
C1641 C1636 1.363 . S
C1641 C1640 1.415 . S
H1642 C1639 0.999 . S
H1643 C1624 0.913 . S
H1644 C1662 0.951 . S
H1645 C1664 0.951 . S
H1646 C1666 0.950 . S
H1647 C1667 0.950 . S
H1648 C1669 0.950 . S
H1649 C1672 0.950 . S
H1650 C1673 0.950 . S
H1651 C1675 0.950 . S
H1652 C1676 0.950 . S
H1653 C1677 0.951 . S
H1654 C1679 0.951 . S
H1655 C1681 0.950 . S
H1656 C1682 0.950 . S
H1657 C1684 0.950 . S
H1658 C1687 0.950 . S
H1659 C1688 0.950 . S
H1660 C1690 0.950 . S
H1661 C1691 0.950 . S
C1662 H1644 0.951 . S
C1662 C1663 1.366 . S
C1662 C1664 1.388 . S
C1663 C1662 1.366 . S
C1663 C1667 1.385 . S
C1664 H1645 0.951 . S
C1664 C1662 1.388 . S
C1664 C1665 1.366 . S
C1665 C1664 1.366 . S
C1665 C1666 1.414 . S
C1665 C1668 1.499 . S
C1666 H1646 0.950 . S
C1666 C1665 1.414 . S
C1666 C1667 1.374 . S
C1667 H1647 0.950 . S
C1667 C1663 1.385 . S
C1667 C1666 1.374 . S
C1668 C1665 1.499 . S
C1668 C1669 1.373 . S
C1668 C1670 1.389 . S
C1669 H1648 0.950 . S
C1669 C1668 1.373 . S
C1669 C1685 1.377 . S
C1670 C1668 1.389 . S
C1670 C1671 1.524 . S
C1670 C1684 1.377 . S
C1671 C1670 1.524 . S
C1671 C1672 1.397 . S
C1671 C1676 1.363 . S
C1672 H1649 0.950 . S
C1672 C1671 1.397 . S
C1672 C1673 1.334 . S
C1673 H1650 0.950 . S
C1673 C1672 1.334 . S
C1673 C1674 1.287 . S
C1674 C1673 1.287 . S
C1674 C1675 1.524 . S
C1674 H1693 0.913 . S
C1675 H1651 0.950 . S
C1675 C1674 1.524 . S
C1675 C1676 1.415 . S
C1676 H1652 0.950 . S
C1676 C1671 1.363 . S
C1676 C1675 1.415 . S
C1677 H1653 0.951 . S
C1677 C1678 1.366 . S
C1677 C1679 1.388 . S
C1678 C1677 1.366 . S
C1678 C1682 1.385 . S
C1679 H1654 0.951 . S
C1679 C1677 1.388 . S
C1679 C1680 1.366 . S
C1680 C1679 1.366 . S
C1680 C1681 1.414 . S
C1680 C1683 1.499 . S
C1681 H1655 0.950 . S
C1681 C1680 1.414 . S
C1681 C1682 1.374 . S
C1682 H1656 0.950 . S
C1682 C1678 1.385 . S
C1682 C1681 1.374 . S
C1683 C1680 1.499 . S
C1683 C1684 1.373 . S
C1683 C1685 1.389 . S
C1684 H1657 0.950 . S
C1684 C1670 1.377 . S
C1684 C1683 1.373 . S
C1685 C1669 1.377 . S
C1685 C1683 1.389 . S
C1685 C1686 1.524 . S
C1686 C1685 1.524 . S
C1686 C1687 1.397 . S
C1686 C1691 1.363 . S
C1687 H1658 0.950 . S
C1687 C1686 1.397 . S
C1687 C1688 1.334 . S
C1688 H1659 0.950 . S
C1688 C1687 1.334 . S
C1688 C1689 1.287 . S
C1689 C1688 1.287 . S
C1689 C1690 1.524 . S
C1689 H1692 0.999 . S
C1690 H1660 0.950 . S
C1690 C1689 1.524 . S
C1690 C1691 1.415 . S
C1691 H1661 0.950 . S
C1691 C1686 1.363 . S
C1691 C1690 1.415 . S
H1692 C1689 0.999 . S
H1693 C1674 0.913 . S
H1694 C1712 0.951 . S
H1695 C1714 0.951 . S
H1696 C1716 0.950 . S
H1697 C1717 0.950 . S
H1698 C1719 0.950 . S
H1699 C1722 0.950 . S
H1700 C1723 0.950 . S
H1701 C1725 0.950 . S
H1702 C1726 0.950 . S
H1703 C1727 0.951 . S
H1704 C1729 0.951 . S
H1705 C1731 0.950 . S
H1706 C1732 0.950 . S
H1707 C1734 0.950 . S
H1708 C1737 0.950 . S
H1709 C1738 0.950 . S
H1710 C1740 0.950 . S
H1711 C1741 0.950 . S
C1712 H1694 0.951 . S
C1712 C1713 1.366 . S
C1712 C1714 1.388 . S
C1713 C1712 1.366 . S
C1713 C1717 1.385 . S
C1714 H1695 0.951 . S
C1714 C1712 1.388 . S
C1714 C1715 1.366 . S
C1715 C1714 1.366 . S
C1715 C1716 1.414 . S
C1715 C1718 1.499 . S
C1716 H1696 0.950 . S
C1716 C1715 1.414 . S
C1716 C1717 1.374 . S
C1717 H1697 0.950 . S
C1717 C1713 1.385 . S
C1717 C1716 1.374 . S
C1718 C1715 1.499 . S
C1718 C1719 1.373 . S
C1718 C1720 1.389 . S
C1719 H1698 0.950 . S
C1719 C1718 1.373 . S
C1719 C1735 1.377 . S
C1720 C1718 1.389 . S
C1720 C1721 1.524 . S
C1720 C1734 1.377 . S
C1721 C1720 1.524 . S
C1721 C1722 1.397 . S
C1721 C1726 1.363 . S
C1722 H1699 0.950 . S
C1722 C1721 1.397 . S
C1722 C1723 1.334 . S
C1723 H1700 0.950 . S
C1723 C1722 1.334 . S
C1723 C1724 1.287 . S
C1724 C1723 1.287 . S
C1724 C1725 1.524 . S
C1724 H1743 0.913 . S
C1725 H1701 0.950 . S
C1725 C1724 1.524 . S
C1725 C1726 1.415 . S
C1726 H1702 0.950 . S
C1726 C1721 1.363 . S
C1726 C1725 1.415 . S
C1727 H1703 0.951 . S
C1727 C1728 1.366 . S
C1727 C1729 1.388 . S
C1728 C1727 1.366 . S
C1728 C1732 1.385 . S
C1729 H1704 0.951 . S
C1729 C1727 1.388 . S
C1729 C1730 1.366 . S
C1730 C1729 1.366 . S
C1730 C1731 1.414 . S
C1730 C1733 1.499 . S
C1731 H1705 0.950 . S
C1731 C1730 1.414 . S
C1731 C1732 1.374 . S
C1732 H1706 0.950 . S
C1732 C1728 1.385 . S
C1732 C1731 1.374 . S
C1733 C1730 1.499 . S
C1733 C1734 1.373 . S
C1733 C1735 1.389 . S
C1734 H1707 0.950 . S
C1734 C1720 1.377 . S
C1734 C1733 1.373 . S
C1735 C1719 1.377 . S
C1735 C1733 1.389 . S
C1735 C1736 1.524 . S
C1736 C1735 1.524 . S
C1736 C1737 1.397 . S
C1736 C1741 1.363 . S
C1737 H1708 0.950 . S
C1737 C1736 1.397 . S
C1737 C1738 1.334 . S
C1738 H1709 0.950 . S
C1738 C1737 1.334 . S
C1738 C1739 1.287 . S
C1739 C1738 1.287 . S
C1739 C1740 1.524 . S
C1739 H1742 0.999 . S
C1740 H1710 0.950 . S
C1740 C1739 1.524 . S
C1740 C1741 1.415 . S
C1741 H1711 0.950 . S
C1741 C1736 1.363 . S
C1741 C1740 1.415 . S
H1742 C1739 0.999 . S
H1743 C1724 0.913 . S
H1744 C1762 0.951 . S
H1745 C1764 0.951 1_455 S
H1746 C1766 0.950 . S
H1747 C1767 0.950 . S
H1748 C1769 0.950 . S
H1749 C1772 0.950 . S
H1750 C1773 0.950 . S
H1751 C1775 0.950 . S
H1752 C1776 0.950 . S
H1753 C1777 0.951 . S
H1754 C1779 0.951 1_655 S
H1755 C1781 0.950 . S
H1756 C1782 0.950 . S
H1757 C1784 0.950 . S
H1758 C1787 0.950 . S
H1759 C1788 0.950 . S
H1760 C1790 0.950 . S
H1761 C1791 0.950 . S
C1762 H1744 0.951 . S
C1762 C1763 1.366 . S
C1762 C1764 1.388 . S
C1763 C1762 1.366 . S
C1763 C1767 1.385 . S
C1764 H1745 0.951 1_655 S
C1764 C1762 1.388 . S
C1764 C1765 1.366 . S
C1765 C1764 1.366 . S
C1765 C1766 1.414 . S
C1765 C1768 1.499 . S
C1766 H1746 0.950 . S
C1766 C1765 1.414 . S
C1766 C1767 1.374 . S
C1767 H1747 0.950 . S
C1767 C1763 1.385 . S
C1767 C1766 1.374 . S
C1768 C1765 1.499 . S
C1768 C1769 1.373 . S
C1768 C1770 1.389 1_655 S
C1769 H1748 0.950 . S
C1769 C1768 1.373 . S
C1769 C1785 1.377 . S
C1770 C1768 1.389 1_455 S
C1770 C1771 1.524 . S
C1770 C1784 1.377 . S
C1771 C1770 1.524 . S
C1771 C1772 1.397 . S
C1771 C1776 1.363 . S
C1772 H1749 0.950 . S
C1772 C1771 1.397 . S
C1772 C1773 1.334 . S
C1773 H1750 0.950 . S
C1773 C1772 1.334 . S
C1773 C1774 1.287 . S
C1774 C1773 1.287 . S
C1774 C1775 1.524 . S
C1774 H1793 0.913 . S
C1775 H1751 0.950 . S
C1775 C1774 1.524 . S
C1775 C1776 1.415 . S
C1776 H1752 0.950 . S
C1776 C1771 1.363 . S
C1776 C1775 1.415 . S
C1777 H1753 0.951 . S
C1777 C1778 1.366 . S
C1777 C1779 1.388 . S
C1778 C1777 1.366 . S
C1778 C1782 1.385 . S
C1779 H1754 0.951 1_455 S
C1779 C1777 1.388 . S
C1779 C1780 1.366 . S
C1780 C1779 1.366 . S
C1780 C1781 1.414 . S
C1780 C1783 1.499 . S
C1781 H1755 0.950 . S
C1781 C1780 1.414 . S
C1781 C1782 1.374 . S
C1782 H1756 0.950 . S
C1782 C1778 1.385 . S
C1782 C1781 1.374 . S
C1783 C1780 1.499 . S
C1783 C1784 1.373 . S
C1783 C1785 1.389 1_455 S
C1784 H1757 0.950 . S
C1784 C1770 1.377 . S
C1784 C1783 1.373 . S
C1785 C1769 1.377 . S
C1785 C1783 1.389 1_655 S
C1785 C1786 1.524 . S
C1786 C1785 1.524 . S
C1786 C1787 1.397 . S
C1786 C1791 1.363 . S
C1787 H1758 0.950 . S
C1787 C1786 1.397 . S
C1787 C1788 1.334 . S
C1788 H1759 0.950 . S
C1788 C1787 1.334 . S
C1788 C1789 1.287 . S
C1789 C1788 1.287 . S
C1789 C1790 1.524 . S
C1789 H1792 0.999 . S
C1790 H1760 0.950 . S
C1790 C1789 1.524 . S
C1790 C1791 1.415 . S
C1791 H1761 0.950 . S
C1791 C1786 1.363 . S
C1791 C1790 1.415 . S
H1792 C1789 0.999 . S
H1793 C1774 0.913 . S
H1794 C1812 0.951 . S
H1795 C1814 0.951 . S
H1796 C1816 0.950 . S
H1797 C1817 0.950 . S
H1798 C1819 0.950 . S
H1799 C1822 0.950 . S
H1800 C1823 0.950 . S
H1801 C1825 0.950 . S
H1802 C1826 0.950 . S
H1803 C1827 0.951 . S
H1804 C1829 0.951 . S
H1805 C1831 0.950 . S
H1806 C1832 0.950 . S
H1807 C1834 0.950 . S
H1808 C1837 0.950 . S
H1809 C1838 0.950 . S
H1810 C1840 0.950 . S
H1811 C1841 0.950 . S
C1812 H1794 0.951 . S
C1812 C1813 1.366 . S
C1812 C1814 1.388 . S
C1813 C1812 1.366 . S
C1813 C1817 1.385 . S
C1814 H1795 0.951 . S
C1814 C1812 1.388 . S
C1814 C1815 1.366 . S
C1815 C1814 1.366 . S
C1815 C1816 1.414 . S
C1815 C1818 1.499 . S
C1816 H1796 0.950 . S
C1816 C1815 1.414 . S
C1816 C1817 1.374 . S
C1817 H1797 0.950 . S
C1817 C1813 1.385 . S
C1817 C1816 1.374 . S
C1818 C1815 1.499 . S
C1818 C1819 1.373 . S
C1818 C1820 1.389 . S
C1819 H1798 0.950 . S
C1819 C1818 1.373 . S
C1819 C1835 1.377 . S
C1820 C1818 1.389 . S
C1820 C1821 1.524 . S
C1820 C1834 1.377 . S
C1821 C1820 1.524 . S
C1821 C1822 1.397 . S
C1821 C1826 1.363 . S
C1822 H1799 0.950 . S
C1822 C1821 1.397 . S
C1822 C1823 1.334 . S
C1823 H1800 0.950 . S
C1823 C1822 1.334 . S
C1823 C1824 1.287 . S
C1824 C1823 1.287 . S
C1824 C1825 1.524 . S
C1824 H1843 0.913 . S
C1825 H1801 0.950 . S
C1825 C1824 1.524 . S
C1825 C1826 1.415 . S
C1826 H1802 0.950 . S
C1826 C1821 1.363 . S
C1826 C1825 1.415 . S
C1827 H1803 0.951 . S
C1827 C1828 1.366 . S
C1827 C1829 1.388 . S
C1828 C1827 1.366 . S
C1828 C1832 1.385 . S
C1829 H1804 0.951 . S
C1829 C1827 1.388 . S
C1829 C1830 1.366 . S
C1830 C1829 1.366 . S
C1830 C1831 1.414 . S
C1830 C1833 1.499 . S
C1831 H1805 0.950 . S
C1831 C1830 1.414 . S
C1831 C1832 1.374 . S
C1832 H1806 0.950 . S
C1832 C1828 1.385 . S
C1832 C1831 1.374 . S
C1833 C1830 1.499 . S
C1833 C1834 1.373 . S
C1833 C1835 1.389 . S
C1834 H1807 0.950 . S
C1834 C1820 1.377 . S
C1834 C1833 1.373 . S
C1835 C1819 1.377 . S
C1835 C1833 1.389 . S
C1835 C1836 1.524 . S
C1836 C1835 1.524 . S
C1836 C1837 1.397 . S
C1836 C1841 1.363 . S
C1837 H1808 0.950 . S
C1837 C1836 1.397 . S
C1837 C1838 1.334 . S
C1838 H1809 0.950 . S
C1838 C1837 1.334 . S
C1838 C1839 1.287 . S
C1839 C1838 1.287 . S
C1839 C1840 1.524 . S
C1839 H1842 0.995 . S
C1840 H1810 0.950 . S
C1840 C1839 1.524 . S
C1840 C1841 1.415 . S
C1841 H1811 0.950 . S
C1841 C1836 1.363 . S
C1841 C1840 1.415 . S
H1842 C1839 0.995 . S
H1843 C1824 0.913 . S
H1844 C1862 0.951 . S
H1845 C1864 0.951 . S
H1846 C1866 0.950 . S
H1847 C1867 0.950 . S
H1848 C1869 0.950 . S
H1849 C1872 0.950 . S
H1850 C1873 0.950 . S
H1851 C1875 0.950 . S
H1852 C1876 0.950 . S
H1853 C1877 0.951 . S
H1854 C1879 0.951 . S
H1855 C1881 0.950 . S
H1856 C1882 0.950 . S
H1857 C1884 0.950 . S
H1858 C1887 0.950 . S
H1859 C1888 0.950 . S
H1860 C1890 0.950 . S
H1861 C1891 0.950 . S
C1862 H1844 0.951 . S
C1862 C1863 1.366 . S
C1862 C1864 1.388 . S
C1863 C1862 1.366 . S
C1863 C1867 1.385 . S
C1864 H1845 0.951 . S
C1864 C1862 1.388 . S
C1864 C1865 1.366 . S
C1865 C1864 1.366 . S
C1865 C1866 1.414 . S
C1865 C1868 1.499 . S
C1866 H1846 0.950 . S
C1866 C1865 1.414 . S
C1866 C1867 1.374 . S
C1867 H1847 0.950 . S
C1867 C1863 1.385 . S
C1867 C1866 1.374 . S
C1868 C1865 1.499 . S
C1868 C1869 1.373 . S
C1868 C1870 1.389 . S
C1869 H1848 0.950 . S
C1869 C1868 1.373 . S
C1869 C1885 1.377 . S
C1870 C1868 1.389 . S
C1870 C1871 1.524 . S
C1870 C1884 1.377 . S
C1871 C1870 1.524 . S
C1871 C1872 1.397 . S
C1871 C1876 1.363 . S
C1872 H1849 0.950 . S
C1872 C1871 1.397 . S
C1872 C1873 1.334 . S
C1873 H1850 0.950 . S
C1873 C1872 1.334 . S
C1873 C1874 1.287 . S
C1874 C1873 1.287 . S
C1874 C1875 1.524 . S
C1874 H1893 0.913 . S
C1875 H1851 0.950 . S
C1875 C1874 1.524 . S
C1875 C1876 1.415 . S
C1876 H1852 0.950 . S
C1876 C1871 1.363 . S
C1876 C1875 1.415 . S
C1877 H1853 0.951 . S
C1877 C1878 1.366 . S
C1877 C1879 1.388 . S
C1878 C1877 1.366 . S
C1878 C1882 1.385 . S
C1879 H1854 0.951 . S
C1879 C1877 1.388 . S
C1879 C1880 1.366 . S
C1880 C1879 1.366 . S
C1880 C1881 1.414 . S
C1880 C1883 1.499 . S
C1881 H1855 0.950 . S
C1881 C1880 1.414 . S
C1881 C1882 1.374 . S
C1882 H1856 0.950 . S
C1882 C1878 1.385 . S
C1882 C1881 1.374 . S
C1883 C1880 1.499 . S
C1883 C1884 1.373 . S
C1883 C1885 1.389 . S
C1884 H1857 0.950 . S
C1884 C1870 1.377 . S
C1884 C1883 1.373 . S
C1885 C1869 1.377 . S
C1885 C1883 1.389 . S
C1885 C1886 1.524 . S
C1886 C1885 1.524 . S
C1886 C1887 1.397 . S
C1886 C1891 1.363 . S
C1887 H1858 0.950 . S
C1887 C1886 1.397 . S
C1887 C1888 1.334 . S
C1888 H1859 0.950 . S
C1888 C1887 1.334 . S
C1888 C1889 1.287 . S
C1889 C1888 1.287 . S
C1889 C1890 1.524 . S
C1889 H1892 0.999 . S
C1890 H1860 0.950 . S
C1890 C1889 1.524 . S
C1890 C1891 1.415 . S
C1891 H1861 0.950 . S
C1891 C1886 1.363 . S
C1891 C1890 1.415 . S
H1892 C1889 0.999 . S
H1893 C1874 0.913 . S
H1894 C1912 0.951 . S
H1895 C1914 0.951 . S
H1896 C1916 0.950 . S
H1897 C1917 0.950 . S
H1898 C1919 0.950 . S
H1899 C1922 0.950 . S
H1900 C1923 0.950 . S
H1901 C1925 0.950 . S
H1902 C1926 0.950 . S
H1903 C1927 0.951 . S
H1904 C1929 0.951 . S
H1905 C1931 0.950 . S
H1906 C1932 0.950 . S
H1907 C1934 0.950 . S
H1908 C1937 0.950 . S
H1909 C1938 0.950 . S
H1910 C1940 0.950 . S
H1911 C1941 0.950 . S
C1912 H1894 0.951 . S
C1912 C1913 1.366 . S
C1912 C1914 1.388 . S
C1913 C1912 1.366 . S
C1913 C1917 1.385 . S
C1914 H1895 0.951 . S
C1914 C1912 1.388 . S
C1914 C1915 1.366 . S
C1915 C1914 1.366 . S
C1915 C1916 1.414 . S
C1915 C1918 1.499 . S
C1916 H1896 0.950 . S
C1916 C1915 1.414 . S
C1916 C1917 1.374 . S
C1917 H1897 0.950 . S
C1917 C1913 1.385 . S
C1917 C1916 1.374 . S
C1918 C1915 1.499 . S
C1918 C1919 1.373 1_455 S
C1918 C1920 1.389 . S
C1919 H1898 0.950 . S
C1919 C1918 1.373 1_655 S
C1919 C1935 1.377 . S
C1920 C1918 1.389 . S
C1920 C1921 1.524 . S
C1920 C1934 1.377 . S
C1921 C1920 1.524 . S
C1921 C1922 1.397 . S
C1921 C1926 1.363 . S
C1922 H1899 0.950 . S
C1922 C1921 1.397 . S
C1922 C1923 1.334 . S
C1923 H1900 0.950 . S
C1923 C1922 1.334 . S
C1923 C1924 1.287 . S
C1924 C1923 1.287 . S
C1924 C1925 1.524 . S
C1924 H1943 0.913 . S
C1925 H1901 0.950 . S
C1925 C1924 1.524 . S
C1925 C1926 1.415 . S
C1926 H1902 0.950 . S
C1926 C1921 1.363 . S
C1926 C1925 1.415 . S
C1927 H1903 0.951 . S
C1927 C1928 1.366 . S
C1927 C1929 1.388 . S
C1928 C1927 1.366 . S
C1928 C1932 1.385 . S
C1929 H1904 0.951 . S
C1929 C1927 1.388 . S
C1929 C1930 1.366 . S
C1930 C1929 1.366 . S
C1930 C1931 1.414 . S
C1930 C1933 1.499 . S
C1931 H1905 0.950 . S
C1931 C1930 1.414 . S
C1931 C1932 1.374 . S
C1932 H1906 0.950 . S
C1932 C1928 1.385 . S
C1932 C1931 1.374 . S
C1933 C1930 1.499 . S
C1933 C1934 1.373 1_655 S
C1933 C1935 1.389 . S
C1934 H1907 0.950 . S
C1934 C1920 1.377 . S
C1934 C1933 1.373 1_455 S
C1935 C1919 1.377 . S
C1935 C1933 1.389 . S
C1935 C1936 1.524 . S
C1936 C1935 1.524 . S
C1936 C1937 1.397 . S
C1936 C1941 1.363 . S
C1937 H1908 0.950 . S
C1937 C1936 1.397 . S
C1937 C1938 1.334 . S
C1938 H1909 0.950 . S
C1938 C1937 1.334 . S
C1938 C1939 1.287 . S
C1939 C1938 1.287 . S
C1939 C1940 1.524 . S
C1939 H1942 0.999 . S
C1940 H1910 0.950 . S
C1940 C1939 1.524 . S
C1940 C1941 1.415 . S
C1941 H1911 0.950 . S
C1941 C1936 1.363 . S
C1941 C1940 1.415 . S
H1942 C1939 0.999 . S
H1943 C1924 0.913 . S
H1944 C1962 0.951 . S
H1945 C1964 0.951 . S
H1946 C1966 0.950 1_455 S
H1947 C1967 0.950 . S
H1948 C1969 0.950 . S
H1949 C1972 0.950 . S
H1950 C1973 0.950 . S
H1951 C1975 0.950 . S
H1952 C1976 0.950 . S
H1953 C1977 0.951 . S
H1954 C1979 0.951 . S
H1955 C1981 0.950 1_655 S
H1956 C1982 0.950 . S
H1957 C1984 0.950 . S
H1958 C1987 0.950 . S
H1959 C1988 0.950 . S
H1960 C1990 0.950 . S
H1961 C1991 0.950 . S
C1962 H1944 0.951 . S
C1962 C1963 1.366 . S
C1962 C1964 1.388 . S
C1963 C1962 1.366 . S
C1963 C1967 1.385 . S
C1964 H1945 0.951 . S
C1964 C1962 1.388 . S
C1964 C1965 1.366 . S
C1965 C1964 1.366 . S
C1965 C1966 1.414 . S
C1965 C1968 1.499 . S
C1966 H1946 0.950 1_655 S
C1966 C1965 1.414 . S
C1966 C1967 1.374 . S
C1967 H1947 0.950 . S
C1967 C1963 1.385 . S
C1967 C1966 1.374 . S
C1968 C1965 1.499 . S
C1968 C1969 1.373 1_655 S
C1968 C1970 1.389 . S
C1969 H1948 0.950 . S
C1969 C1968 1.373 1_455 S
C1969 C1985 1.377 . S
C1970 C1968 1.389 . S
C1970 C1971 1.524 . S
C1970 C1984 1.377 . S
C1971 C1970 1.524 . S
C1971 C1972 1.397 . S
C1971 C1976 1.363 . S
C1972 H1949 0.950 . S
C1972 C1971 1.397 . S
C1972 C1973 1.334 . S
C1973 H1950 0.950 . S
C1973 C1972 1.334 . S
C1973 C1974 1.287 . S
C1974 C1973 1.287 . S
C1974 C1975 1.524 . S
C1974 H1993 0.913 . S
C1975 H1951 0.950 . S
C1975 C1974 1.524 . S
C1975 C1976 1.415 . S
C1976 H1952 0.950 . S
C1976 C1971 1.363 . S
C1976 C1975 1.415 . S
C1977 H1953 0.951 . S
C1977 C1978 1.366 . S
C1977 C1979 1.388 . S
C1978 C1977 1.366 . S
C1978 C1982 1.385 . S
C1979 H1954 0.951 . S
C1979 C1977 1.388 . S
C1979 C1980 1.366 . S
C1980 C1979 1.366 . S
C1980 C1981 1.414 . S
C1980 C1983 1.499 . S
C1981 H1955 0.950 1_455 S
C1981 C1980 1.414 . S
C1981 C1982 1.374 . S
C1982 H1956 0.950 . S
C1982 C1978 1.385 . S
C1982 C1981 1.374 . S
C1983 C1980 1.499 . S
C1983 C1984 1.373 1_455 S
C1983 C1985 1.389 . S
C1984 H1957 0.950 . S
C1984 C1970 1.377 . S
C1984 C1983 1.373 1_655 S
C1985 C1969 1.377 . S
C1985 C1983 1.389 . S
C1985 C1986 1.524 . S
C1986 C1985 1.524 . S
C1986 C1987 1.397 . S
C1986 C1991 1.363 . S
C1987 H1958 0.950 . S
C1987 C1986 1.397 . S
C1987 C1988 1.334 . S
C1988 H1959 0.950 . S
C1988 C1987 1.334 . S
C1988 C1989 1.287 . S
C1989 C1988 1.287 . S
C1989 C1990 1.524 . S
C1989 H1992 0.999 . S
C1990 H1960 0.950 . S
C1990 C1989 1.524 . S
C1990 C1991 1.415 . S
C1991 H1961 0.950 . S
C1991 C1986 1.363 . S
C1991 C1990 1.415 . S
H1992 C1989 0.999 . S
H1993 C1974 0.913 . S
H1994 C2012 0.951 . S
H1995 C2014 0.951 . S
H1996 C2016 0.950 . S
H1997 C2017 0.950 . S
H1998 C2019 0.950 . S
H1999 C2022 0.950 . S
H2000 C2023 0.950 . S
H2001 C2025 0.950 . S
H2002 C2026 0.950 . S
H2003 C2027 0.951 . S
H2004 C2029 0.951 . S
H2005 C2031 0.950 . S
H2006 C2032 0.950 . S
H2007 C2034 0.950 . S
H2008 C2037 0.950 . S
H2009 C2038 0.950 . S
H2010 C2040 0.950 . S
H2011 C2041 0.950 . S
C2012 H1994 0.951 . S
C2012 C2013 1.366 . S
C2012 C2014 1.388 . S
C2013 C2012 1.366 . S
C2013 C2017 1.385 . S
C2014 H1995 0.951 . S
C2014 C2012 1.388 . S
C2014 C2015 1.366 . S
C2015 C2014 1.366 . S
C2015 C2016 1.414 . S
C2015 C2018 1.499 . S
C2016 H1996 0.950 . S
C2016 C2015 1.414 . S
C2016 C2017 1.374 . S
C2017 H1997 0.950 . S
C2017 C2013 1.385 . S
C2017 C2016 1.374 . S
C2018 C2015 1.499 . S
C2018 C2019 1.373 . S
C2018 C2020 1.389 . S
C2019 H1998 0.950 . S
C2019 C2018 1.373 . S
C2019 C2035 1.377 . S
C2020 C2018 1.389 . S
C2020 C2021 1.524 . S
C2020 C2034 1.377 . S
C2021 C2020 1.524 . S
C2021 C2022 1.397 . S
C2021 C2026 1.363 . S
C2022 H1999 0.950 . S
C2022 C2021 1.397 . S
C2022 C2023 1.334 . S
C2023 H2000 0.950 . S
C2023 C2022 1.334 . S
C2023 C2024 1.287 . S
C2024 C2023 1.287 . S
C2024 C2025 1.524 . S
C2024 H2043 0.913 . S
C2025 H2001 0.950 . S
C2025 C2024 1.524 . S
C2025 C2026 1.415 . S
C2026 H2002 0.950 . S
C2026 C2021 1.363 . S
C2026 C2025 1.415 . S
C2027 H2003 0.951 . S
C2027 C2028 1.366 . S
C2027 C2029 1.388 . S
C2028 C2027 1.366 . S
C2028 C2032 1.385 . S
C2029 H2004 0.951 . S
C2029 C2027 1.388 . S
C2029 C2030 1.366 . S
C2030 C2029 1.366 . S
C2030 C2031 1.414 . S
C2030 C2033 1.499 . S
C2031 H2005 0.950 . S
C2031 C2030 1.414 . S
C2031 C2032 1.374 . S
C2032 H2006 0.950 . S
C2032 C2028 1.385 . S
C2032 C2031 1.374 . S
C2033 C2030 1.499 . S
C2033 C2034 1.373 . S
C2033 C2035 1.389 . S
C2034 H2007 0.950 . S
C2034 C2020 1.377 . S
C2034 C2033 1.373 . S
C2035 C2019 1.377 . S
C2035 C2033 1.389 . S
C2035 C2036 1.524 . S
C2036 C2035 1.524 . S
C2036 C2037 1.397 . S
C2036 C2041 1.363 . S
C2037 H2008 0.950 . S
C2037 C2036 1.397 . S
C2037 C2038 1.334 . S
C2038 H2009 0.950 . S
C2038 C2037 1.334 . S
C2038 C2039 1.287 . S
C2039 C2038 1.287 . S
C2039 C2040 1.524 . S
C2039 H2042 0.999 . S
C2040 H2010 0.950 . S
C2040 C2039 1.524 . S
C2040 C2041 1.415 . S
C2041 H2011 0.950 . S
C2041 C2036 1.363 . S
C2041 C2040 1.415 . S
H2042 C2039 0.999 . S
H2043 C2024 0.913 . S
H2044 C2062 0.951 . S
H2045 C2064 0.951 . S
H2046 C2066 0.950 . S
H2047 C2067 0.950 . S
H2048 C2069 0.950 . S
H2049 C2072 0.950 . S
H2050 C2073 0.950 . S
H2051 C2075 0.950 . S
H2052 C2076 0.950 . S
H2053 C2077 0.951 . S
H2054 C2079 0.951 . S
H2055 C2081 0.950 . S
H2056 C2082 0.950 . S
H2057 C2084 0.950 . S
H2058 C2087 0.950 . S
H2059 C2088 0.950 . S
H2060 C2090 0.950 . S
H2061 C2091 0.950 . S
C2062 H2044 0.951 . S
C2062 C2063 1.366 . S
C2062 C2064 1.388 . S
C2063 C2062 1.366 . S
C2063 C2067 1.385 . S
C2064 H2045 0.951 . S
C2064 C2062 1.388 . S
C2064 C2065 1.366 . S
C2065 C2064 1.366 . S
C2065 C2066 1.414 . S
C2065 C2068 1.499 . S
C2066 H2046 0.950 . S
C2066 C2065 1.414 . S
C2066 C2067 1.374 . S
C2067 H2047 0.950 . S
C2067 C2063 1.385 . S
C2067 C2066 1.374 . S
C2068 C2065 1.499 . S
C2068 C2069 1.373 . S
C2068 C2070 1.389 . S
C2069 H2048 0.950 . S
C2069 C2068 1.373 . S
C2069 C2085 1.377 . S
C2070 C2068 1.389 . S
C2070 C2071 1.524 . S
C2070 C2084 1.377 . S
C2071 C2070 1.524 . S
C2071 C2072 1.397 . S
C2071 C2076 1.363 . S
C2072 H2049 0.950 . S
C2072 C2071 1.397 . S
C2072 C2073 1.334 . S
C2073 H2050 0.950 . S
C2073 C2072 1.334 . S
C2073 C2074 1.287 . S
C2074 C2073 1.287 . S
C2074 C2075 1.524 . S
C2074 H2093 0.913 . S
C2075 H2051 0.950 . S
C2075 C2074 1.524 . S
C2075 C2076 1.415 . S
C2076 H2052 0.950 . S
C2076 C2071 1.363 . S
C2076 C2075 1.415 . S
C2077 H2053 0.951 . S
C2077 C2078 1.366 . S
C2077 C2079 1.388 . S
C2078 C2077 1.366 . S
C2078 C2082 1.385 . S
C2079 H2054 0.951 . S
C2079 C2077 1.388 . S
C2079 C2080 1.366 . S
C2080 C2079 1.366 . S
C2080 C2081 1.414 . S
C2080 C2083 1.499 . S
C2081 H2055 0.950 . S
C2081 C2080 1.414 . S
C2081 C2082 1.374 . S
C2082 H2056 0.950 . S
C2082 C2078 1.385 . S
C2082 C2081 1.374 . S
C2083 C2080 1.499 . S
C2083 C2084 1.373 . S
C2083 C2085 1.389 . S
C2084 H2057 0.950 . S
C2084 C2070 1.377 . S
C2084 C2083 1.373 . S
C2085 C2069 1.377 . S
C2085 C2083 1.389 . S
C2085 C2086 1.524 . S
C2086 C2085 1.524 . S
C2086 C2087 1.397 . S
C2086 C2091 1.363 . S
C2087 H2058 0.950 . S
C2087 C2086 1.397 . S
C2087 C2088 1.334 . S
C2088 H2059 0.950 . S
C2088 C2087 1.334 . S
C2088 C2089 1.287 . S
C2089 C2088 1.287 . S
C2089 C2090 1.524 . S
C2089 H2092 0.999 . S
C2090 H2060 0.950 . S
C2090 C2089 1.524 . S
C2090 C2091 1.415 . S
C2091 H2061 0.950 . S
C2091 C2086 1.363 . S
C2091 C2090 1.415 . S
H2092 C2089 0.999 . S
H2093 C2074 0.913 . S
H2094 C2112 0.951 . S
H2095 C2114 0.951 . S
H2096 C2116 0.950 . S
H2097 C2117 0.950 . S
H2098 C2119 0.950 . S
H2099 C2122 0.950 . S
H2100 C2123 0.950 . S
H2101 C2125 0.950 . S
H2102 C2126 0.950 . S
H2103 C2127 0.951 . S
H2104 C2129 0.951 . S
H2105 C2131 0.950 . S
H2106 C2132 0.950 . S
H2107 C2134 0.950 . S
H2108 C2137 0.950 . S
H2109 C2138 0.950 . S
H2110 C2140 0.950 . S
H2111 C2141 0.950 . S
C2112 H2094 0.951 . S
C2112 C2113 1.366 . S
C2112 C2114 1.388 . S
C2113 C2112 1.366 . S
C2113 C2117 1.385 . S
C2114 H2095 0.951 . S
C2114 C2112 1.388 . S
C2114 C2115 1.366 . S
C2115 C2114 1.366 . S
C2115 C2116 1.414 . S
C2115 C2118 1.499 . S
C2116 H2096 0.950 . S
C2116 C2115 1.414 . S
C2116 C2117 1.374 . S
C2117 H2097 0.950 . S
C2117 C2113 1.385 . S
C2117 C2116 1.374 . S
C2118 C2115 1.499 . S
C2118 C2119 1.373 1_655 S
C2118 C2120 1.389 . S
C2119 H2098 0.950 . S
C2119 C2118 1.373 1_455 S
C2119 C2135 1.377 . S
C2120 C2118 1.389 . S
C2120 C2121 1.524 . S
C2120 C2134 1.377 . S
C2121 C2120 1.524 . S
C2121 C2122 1.397 . S
C2121 C2126 1.363 . S
C2122 H2099 0.950 . S
C2122 C2121 1.397 . S
C2122 C2123 1.334 . S
C2123 H2100 0.950 . S
C2123 C2122 1.334 . S
C2123 C2124 1.287 . S
C2124 C2123 1.287 . S
C2124 C2125 1.524 . S
C2124 H2143 0.913 . S
C2125 H2101 0.950 . S
C2125 C2124 1.524 . S
C2125 C2126 1.415 . S
C2126 H2102 0.950 . S
C2126 C2121 1.363 . S
C2126 C2125 1.415 . S
C2127 H2103 0.951 . S
C2127 C2128 1.366 . S
C2127 C2129 1.388 . S
C2128 C2127 1.366 . S
C2128 C2132 1.385 . S
C2129 H2104 0.951 . S
C2129 C2127 1.388 . S
C2129 C2130 1.366 . S
C2130 C2129 1.366 . S
C2130 C2131 1.414 . S
C2130 C2133 1.499 . S
C2131 H2105 0.950 . S
C2131 C2130 1.414 . S
C2131 C2132 1.374 . S
C2132 H2106 0.950 . S
C2132 C2128 1.385 . S
C2132 C2131 1.374 . S
C2133 C2130 1.499 . S
C2133 C2134 1.373 1_455 S
C2133 C2135 1.389 . S
C2134 H2107 0.950 . S
C2134 C2120 1.377 . S
C2134 C2133 1.373 1_655 S
C2135 C2119 1.377 . S
C2135 C2133 1.389 . S
C2135 C2136 1.524 . S
C2136 C2135 1.524 . S
C2136 C2137 1.397 . S
C2136 C2141 1.363 . S
C2137 H2108 0.950 . S
C2137 C2136 1.397 . S
C2137 C2138 1.334 . S
C2138 H2109 0.950 . S
C2138 C2137 1.334 . S
C2138 C2139 1.287 . S
C2139 C2138 1.287 . S
C2139 C2140 1.524 . S
C2139 H2142 0.999 . S
C2140 H2110 0.950 . S
C2140 C2139 1.524 . S
C2140 C2141 1.415 . S
C2141 H2111 0.950 . S
C2141 C2136 1.363 . S
C2141 C2140 1.415 . S
H2142 C2139 0.999 . S
H2143 C2124 0.913 . S
H2144 C2162 0.951 . S
H2145 C2164 0.951 . S
H2146 C2166 0.950 . S
H2147 C2167 0.950 . S
H2148 C2169 0.950 . S
H2149 C2172 0.950 . S
H2150 C2173 0.950 . S
H2151 C2175 0.950 . S
H2152 C2176 0.950 . S
H2153 C2177 0.951 . S
H2154 C2179 0.951 . S
H2155 C2181 0.950 . S
H2156 C2182 0.950 . S
H2157 C2184 0.950 . S
H2158 C2187 0.950 . S
H2159 C2188 0.950 . S
H2160 C2190 0.950 . S
H2161 C2191 0.950 . S
C2162 H2144 0.951 . S
C2162 C2163 1.366 . S
C2162 C2164 1.388 . S
C2163 C2162 1.366 . S
C2163 C2167 1.385 . S
C2164 H2145 0.951 . S
C2164 C2162 1.388 . S
C2164 C2165 1.366 . S
C2165 C2164 1.366 . S
C2165 C2166 1.414 . S
C2165 C2168 1.499 . S
C2166 H2146 0.950 . S
C2166 C2165 1.414 . S
C2166 C2167 1.374 . S
C2167 H2147 0.950 . S
C2167 C2163 1.385 . S
C2167 C2166 1.374 . S
C2168 C2165 1.499 . S
C2168 C2169 1.373 . S
C2168 C2170 1.389 1_455 S
C2169 H2148 0.950 . S
C2169 C2168 1.373 . S
C2169 C2185 1.377 . S
C2170 C2168 1.389 1_655 S
C2170 C2171 1.524 . S
C2170 C2184 1.377 . S
C2171 C2170 1.524 . S
C2171 C2172 1.397 . S
C2171 C2176 1.363 . S
C2172 H2149 0.950 . S
C2172 C2171 1.397 . S
C2172 C2173 1.334 . S
C2173 H2150 0.950 . S
C2173 C2172 1.334 . S
C2173 C2174 1.287 . S
C2174 C2173 1.287 . S
C2174 C2175 1.524 . S
C2174 H2193 0.913 . S
C2175 H2151 0.950 . S
C2175 C2174 1.524 . S
C2175 C2176 1.415 . S
C2176 H2152 0.950 . S
C2176 C2171 1.363 . S
C2176 C2175 1.415 . S
C2177 H2153 0.951 . S
C2177 C2178 1.366 . S
C2177 C2179 1.388 . S
C2178 C2177 1.366 . S
C2178 C2182 1.385 . S
C2179 H2154 0.951 . S
C2179 C2177 1.388 . S
C2179 C2180 1.366 . S
C2180 C2179 1.366 . S
C2180 C2181 1.414 . S
C2180 C2183 1.499 . S
C2181 H2155 0.950 . S
C2181 C2180 1.414 . S
C2181 C2182 1.374 . S
C2182 H2156 0.950 . S
C2182 C2178 1.385 . S
C2182 C2181 1.374 . S
C2183 C2180 1.499 . S
C2183 C2184 1.373 . S
C2183 C2185 1.389 1_655 S
C2184 H2157 0.950 . S
C2184 C2170 1.377 . S
C2184 C2183 1.373 . S
C2185 C2169 1.377 . S
C2185 C2183 1.389 1_455 S
C2185 C2186 1.524 . S
C2186 C2185 1.524 . S
C2186 C2187 1.397 . S
C2186 C2191 1.363 . S
C2187 H2158 0.950 . S
C2187 C2186 1.397 . S
C2187 C2188 1.334 . S
C2188 H2159 0.950 . S
C2188 C2187 1.334 . S
C2188 C2189 1.287 . S
C2189 C2188 1.287 . S
C2189 C2190 1.524 . S
C2189 H2192 0.999 . S
C2190 H2160 0.950 . S
C2190 C2189 1.524 . S
C2190 C2191 1.415 . S
C2191 H2161 0.950 . S
C2191 C2186 1.363 . S
C2191 C2190 1.415 . S
H2192 C2189 0.999 . S
H2193 C2174 0.913 . S
H2194 C2212 0.951 . S
H2195 C2214 0.951 . S
H2196 C2216 0.950 . S
H2197 C2217 0.950 . S
H2198 C2219 0.950 . S
H2199 C2222 0.950 . S
H2200 C2223 0.950 . S
H2201 C2225 0.950 . S
H2202 C2226 0.950 . S
H2203 C2227 0.951 . S
H2204 C2229 0.951 . S
H2205 C2231 0.950 . S
H2206 C2232 0.950 . S
H2207 C2234 0.950 . S
H2208 C2237 0.950 . S
H2209 C2238 0.950 . S
H2210 C2240 0.950 . S
H2211 C2241 0.950 . S
C2212 H2194 0.951 . S
C2212 C2213 1.366 . S
C2212 C2214 1.388 . S
C2213 C2212 1.366 . S
C2213 C2217 1.385 . S
C2214 H2195 0.951 . S
C2214 C2212 1.388 . S
C2214 C2215 1.366 . S
C2215 C2214 1.366 . S
C2215 C2216 1.414 . S
C2215 C2218 1.499 . S
C2216 H2196 0.950 . S
C2216 C2215 1.414 . S
C2216 C2217 1.374 . S
C2217 H2197 0.950 . S
C2217 C2213 1.385 . S
C2217 C2216 1.374 . S
C2218 C2215 1.499 . S
C2218 C2219 1.373 . S
C2218 C2220 1.389 . S
C2219 H2198 0.950 . S
C2219 C2218 1.373 . S
C2219 C2235 1.377 . S
C2220 C2218 1.389 . S
C2220 C2221 1.524 . S
C2220 C2234 1.377 . S
C2221 C2220 1.524 . S
C2221 C2222 1.397 . S
C2221 C2226 1.363 . S
C2222 H2199 0.950 . S
C2222 C2221 1.397 . S
C2222 C2223 1.334 . S
C2223 H2200 0.950 . S
C2223 C2222 1.334 . S
C2223 C2224 1.287 . S
C2224 C2223 1.287 . S
C2224 C2225 1.524 . S
C2224 H2243 0.913 . S
C2225 H2201 0.950 . S
C2225 C2224 1.524 . S
C2225 C2226 1.415 . S
C2226 H2202 0.950 . S
C2226 C2221 1.363 . S
C2226 C2225 1.415 . S
C2227 H2203 0.951 . S
C2227 C2228 1.366 . S
C2227 C2229 1.388 . S
C2228 C2227 1.366 . S
C2228 C2232 1.385 . S
C2229 H2204 0.951 . S
C2229 C2227 1.388 . S
C2229 C2230 1.366 . S
C2230 C2229 1.366 . S
C2230 C2231 1.414 . S
C2230 C2233 1.499 . S
C2231 H2205 0.950 . S
C2231 C2230 1.414 . S
C2231 C2232 1.374 . S
C2232 H2206 0.950 . S
C2232 C2228 1.385 . S
C2232 C2231 1.374 . S
C2233 C2230 1.499 . S
C2233 C2234 1.373 . S
C2233 C2235 1.389 . S
C2234 H2207 0.950 . S
C2234 C2220 1.377 . S
C2234 C2233 1.373 . S
C2235 C2219 1.377 . S
C2235 C2233 1.389 . S
C2235 C2236 1.524 . S
C2236 C2235 1.524 . S
C2236 C2237 1.397 . S
C2236 C2241 1.363 . S
C2237 H2208 0.950 . S
C2237 C2236 1.397 . S
C2237 C2238 1.334 . S
C2238 H2209 0.950 . S
C2238 C2237 1.334 . S
C2238 C2239 1.287 . S
C2239 C2238 1.287 . S
C2239 C2240 1.524 . S
C2239 H2242 0.999 . S
C2240 H2210 0.950 . S
C2240 C2239 1.524 . S
C2240 C2241 1.415 . S
C2241 H2211 0.950 . S
C2241 C2236 1.363 . S
C2241 C2240 1.415 . S
H2242 C2239 0.999 . S
H2243 C2224 0.913 . S
H2244 C2262 0.951 . S
H2245 C2264 0.951 . S
H2246 C2266 0.950 1_455 S
H2247 C2267 0.951 . S
H2248 C2269 0.950 . S
H2249 C2272 0.950 . S
H2250 C2273 0.950 . S
H2251 C2275 0.950 . S
H2252 C2276 0.950 . S
H2253 C2277 0.951 . S
H2254 C2279 0.951 . S
H2255 C2281 0.950 1_655 S
H2256 C2282 0.952 . S
H2257 C2284 0.950 . S
H2258 C2287 0.950 . S
H2259 C2288 0.950 . S
H2260 C2290 0.950 . S
H2261 C2291 0.950 . S
C2262 H2244 0.951 . S
C2262 C2263 1.366 . S
C2262 C2264 1.388 . S
C2263 C2262 1.366 . S
C2263 C2267 1.385 . S
C2264 H2245 0.951 . S
C2264 C2262 1.388 . S
C2264 C2265 1.366 . S
C2265 C2264 1.366 . S
C2265 C2266 1.414 . S
C2265 C2268 1.499 . S
C2266 H2246 0.950 1_655 S
C2266 C2265 1.414 . S
C2266 C2267 1.374 . S
C2267 H2247 0.951 . S
C2267 C2263 1.385 . S
C2267 C2266 1.374 . S
C2268 C2265 1.499 . S
C2268 C2269 1.373 1_655 S
C2268 C2270 1.389 . S
C2269 H2248 0.950 . S
C2269 C2268 1.373 1_455 S
C2269 C2285 1.377 . S
C2270 C2268 1.389 . S
C2270 C2271 1.524 . S
C2270 C2284 1.377 . S
C2271 C2270 1.524 . S
C2271 C2272 1.397 . S
C2271 C2276 1.363 . S
C2272 H2249 0.950 . S
C2272 C2271 1.397 . S
C2272 C2273 1.334 . S
C2273 H2250 0.950 . S
C2273 C2272 1.334 . S
C2273 C2274 1.287 . S
C2274 C2273 1.287 . S
C2274 C2275 1.524 . S
C2274 H2293 0.913 . S
C2275 H2251 0.950 . S
C2275 C2274 1.524 . S
C2275 C2276 1.415 . S
C2276 H2252 0.950 . S
C2276 C2271 1.363 . S
C2276 C2275 1.415 . S
C2277 H2253 0.951 . S
C2277 C2278 1.366 . S
C2277 C2279 1.388 . S
C2278 C2277 1.366 . S
C2278 C2282 1.385 . S
C2279 H2254 0.951 . S
C2279 C2277 1.388 . S
C2279 C2280 1.366 . S
C2280 C2279 1.366 . S
C2280 C2281 1.414 . S
C2280 C2283 1.499 . S
C2281 H2255 0.950 1_455 S
C2281 C2280 1.414 . S
C2281 C2282 1.374 . S
C2282 H2256 0.952 . S
C2282 C2278 1.385 . S
C2282 C2281 1.374 . S
C2283 C2280 1.499 . S
C2283 C2284 1.373 1_455 S
C2283 C2285 1.389 . S
C2284 H2257 0.950 . S
C2284 C2270 1.377 . S
C2284 C2283 1.373 1_655 S
C2285 C2269 1.377 . S
C2285 C2283 1.389 . S
C2285 C2286 1.524 . S
C2286 C2285 1.524 . S
C2286 C2287 1.397 . S
C2286 C2291 1.363 . S
C2287 H2258 0.950 . S
C2287 C2286 1.397 . S
C2287 C2288 1.334 . S
C2288 H2259 0.950 . S
C2288 C2287 1.334 . S
C2288 C2289 1.287 . S
C2289 C2288 1.287 . S
C2289 C2290 1.524 . S
C2289 H2292 0.999 . S
C2290 H2260 0.950 . S
C2290 C2289 1.524 . S
C2290 C2291 1.415 . S
C2291 H2261 0.950 . S
C2291 C2286 1.363 . S
C2291 C2290 1.415 . S
H2292 C2289 0.999 . S
H2293 C2274 0.913 . S
H2294 C2312 0.951 . S
H2295 C2314 0.951 . S
H2296 C2316 0.950 . S
H2297 C2317 0.950 . S
H2298 C2319 0.950 . S
H2299 C2322 0.950 . S
H2300 C2323 0.950 . S
H2301 C2325 0.950 . S
H2302 C2326 0.950 . S
H2303 C2327 0.951 . S
H2304 C2329 0.951 . S
H2305 C2331 0.950 . S
H2306 C2332 0.950 . S
H2307 C2334 0.950 . S
H2308 C2337 0.950 . S
H2309 C2338 0.950 . S
H2310 C2340 0.950 . S
H2311 C2341 0.950 . S
C2312 H2294 0.951 . S
C2312 C2313 1.366 . S
C2312 C2314 1.388 . S
C2313 C2312 1.366 . S
C2313 C2317 1.385 . S
C2314 H2295 0.951 . S
C2314 C2312 1.388 . S
C2314 C2315 1.366 . S
C2315 C2314 1.366 . S
C2315 C2316 1.414 . S
C2315 C2318 1.499 . S
C2316 H2296 0.950 . S
C2316 C2315 1.414 . S
C2316 C2317 1.374 . S
C2317 H2297 0.950 . S
C2317 C2313 1.385 . S
C2317 C2316 1.374 . S
C2318 C2315 1.499 . S
C2318 C2319 1.373 . S
C2318 C2320 1.389 . S
C2319 H2298 0.950 . S
C2319 C2318 1.373 . S
C2319 C2335 1.377 . S
C2320 C2318 1.389 . S
C2320 C2321 1.524 . S
C2320 C2334 1.377 . S
C2321 C2320 1.524 . S
C2321 C2322 1.397 . S
C2321 C2326 1.363 . S
C2322 H2299 0.950 . S
C2322 C2321 1.397 . S
C2322 C2323 1.334 . S
C2323 H2300 0.950 . S
C2323 C2322 1.334 . S
C2323 C2324 1.287 . S
C2324 C2323 1.287 . S
C2324 C2325 1.524 . S
C2324 H2343 0.913 . S
C2325 H2301 0.950 . S
C2325 C2324 1.524 . S
C2325 C2326 1.415 . S
C2326 H2302 0.950 . S
C2326 C2321 1.363 . S
C2326 C2325 1.415 . S
C2327 H2303 0.951 . S
C2327 C2328 1.366 . S
C2327 C2329 1.388 . S
C2328 C2327 1.366 . S
C2328 C2332 1.385 . S
C2329 H2304 0.951 . S
C2329 C2327 1.388 . S
C2329 C2330 1.366 . S
C2330 C2329 1.366 . S
C2330 C2331 1.414 . S
C2330 C2333 1.499 . S
C2331 H2305 0.950 . S
C2331 C2330 1.414 . S
C2331 C2332 1.374 . S
C2332 H2306 0.950 . S
C2332 C2328 1.385 . S
C2332 C2331 1.374 . S
C2333 C2330 1.499 . S
C2333 C2334 1.373 . S
C2333 C2335 1.389 . S
C2334 H2307 0.950 . S
C2334 C2320 1.377 . S
C2334 C2333 1.373 . S
C2335 C2319 1.377 . S
C2335 C2333 1.389 . S
C2335 C2336 1.524 . S
C2336 C2335 1.524 . S
C2336 C2337 1.397 . S
C2336 C2341 1.363 . S
C2337 H2308 0.950 . S
C2337 C2336 1.397 . S
C2337 C2338 1.334 . S
C2338 H2309 0.950 . S
C2338 C2337 1.334 . S
C2338 C2339 1.287 . S
C2339 C2338 1.287 . S
C2339 C2340 1.524 . S
C2339 H2342 0.999 . S
C2340 H2310 0.950 . S
C2340 C2339 1.524 . S
C2340 C2341 1.415 . S
C2341 H2311 0.950 . S
C2341 C2336 1.363 . S
C2341 C2340 1.415 . S
H2342 C2339 0.999 . S
H2343 C2324 0.913 . S
H2344 C2362 0.951 . S
H2345 C2364 0.951 . S
H2346 C2366 0.950 . S
H2347 C2367 0.950 . S
H2348 C2369 0.950 . S
H2349 C2372 0.950 . S
H2350 C2373 0.950 . S
H2351 C2375 0.950 . S
H2352 C2376 0.950 . S
H2353 C2377 0.951 . S
H2354 C2379 0.951 . S
H2355 C2381 0.950 . S
H2356 C2382 0.950 . S
H2357 C2384 0.950 . S
H2358 C2387 0.950 . S
H2359 C2388 0.950 . S
H2360 C2390 0.950 . S
H2361 C2391 0.950 . S
C2362 H2344 0.951 . S
C2362 C2363 1.366 . S
C2362 C2364 1.388 . S
C2363 C2362 1.366 . S
C2363 C2367 1.385 . S
C2364 H2345 0.951 . S
C2364 C2362 1.388 . S
C2364 C2365 1.366 . S
C2365 C2364 1.366 . S
C2365 C2366 1.414 . S
C2365 C2368 1.499 . S
C2366 H2346 0.950 . S
C2366 C2365 1.414 . S
C2366 C2367 1.374 . S
C2367 H2347 0.950 . S
C2367 C2363 1.385 . S
C2367 C2366 1.374 . S
C2368 C2365 1.499 . S
C2368 C2369 1.373 . S
C2368 C2370 1.389 . S
C2369 H2348 0.950 . S
C2369 C2368 1.373 . S
C2369 C2385 1.377 . S
C2370 C2368 1.389 . S
C2370 C2371 1.524 . S
C2370 C2384 1.377 . S
C2371 C2370 1.524 . S
C2371 C2372 1.397 . S
C2371 C2376 1.363 . S
C2372 H2349 0.950 . S
C2372 C2371 1.397 . S
C2372 C2373 1.334 . S
C2373 H2350 0.950 . S
C2373 C2372 1.334 . S
C2373 C2374 1.287 . S
C2374 C2373 1.287 . S
C2374 C2375 1.524 . S
C2374 H2393 0.913 . S
C2375 H2351 0.950 . S
C2375 C2374 1.524 . S
C2375 C2376 1.415 . S
C2376 H2352 0.950 . S
C2376 C2371 1.363 . S
C2376 C2375 1.415 . S
C2377 H2353 0.951 . S
C2377 C2378 1.366 . S
C2377 C2379 1.388 . S
C2378 C2377 1.366 . S
C2378 C2382 1.385 . S
C2379 H2354 0.951 . S
C2379 C2377 1.388 . S
C2379 C2380 1.366 . S
C2380 C2379 1.366 . S
C2380 C2381 1.414 . S
C2380 C2383 1.499 . S
C2381 H2355 0.950 . S
C2381 C2380 1.414 . S
C2381 C2382 1.374 . S
C2382 H2356 0.950 . S
C2382 C2378 1.385 . S
C2382 C2381 1.374 . S
C2383 C2380 1.499 . S
C2383 C2384 1.373 . S
C2383 C2385 1.389 . S
C2384 H2357 0.950 . S
C2384 C2370 1.377 . S
C2384 C2383 1.373 . S
C2385 C2369 1.377 . S
C2385 C2383 1.389 . S
C2385 C2386 1.524 . S
C2386 C2385 1.524 . S
C2386 C2387 1.397 . S
C2386 C2391 1.363 . S
C2387 H2358 0.950 . S
C2387 C2386 1.397 . S
C2387 C2388 1.334 . S
C2388 H2359 0.950 . S
C2388 C2387 1.334 . S
C2388 C2389 1.287 . S
C2389 C2388 1.287 . S
C2389 C2390 1.524 . S
C2389 H2392 0.999 . S
C2390 H2360 0.950 . S
C2390 C2389 1.524 . S
C2390 C2391 1.415 . S
C2391 H2361 0.950 . S
C2391 C2386 1.363 . S
C2391 C2390 1.415 . S
H2392 C2389 0.999 . S
H2393 C2374 0.913 . S
H2394 C2412 0.951 . S
H2395 C2414 0.951 . S
H2396 C2416 0.950 . S
H2397 C2417 0.950 . S
H2398 C2419 0.950 . S
H2399 C2422 0.950 . S
H2400 C2423 0.950 . S
H2401 C2425 0.950 . S
H2402 C2426 0.950 . S
H2403 C2427 0.951 . S
H2404 C2429 0.951 . S
H2405 C2431 0.950 . S
H2406 C2432 0.950 . S
H2407 C2434 0.950 . S
H2408 C2437 0.950 . S
H2409 C2438 0.950 . S
H2410 C2440 0.950 . S
H2411 C2441 0.950 . S
C2412 H2394 0.951 . S
C2412 C2413 1.366 . S
C2412 C2414 1.388 . S
C2413 C2412 1.366 . S
C2413 C2417 1.385 . S
C2414 H2395 0.951 . S
C2414 C2412 1.388 . S
C2414 C2415 1.366 . S
C2415 C2414 1.366 . S
C2415 C2416 1.414 . S
C2415 C2418 1.499 . S
C2416 H2396 0.950 . S
C2416 C2415 1.414 . S
C2416 C2417 1.374 . S
C2417 H2397 0.950 . S
C2417 C2413 1.385 . S
C2417 C2416 1.374 . S
C2418 C2415 1.499 . S
C2418 C2419 1.373 1_455 S
C2418 C2420 1.389 . S
C2419 H2398 0.950 . S
C2419 C2418 1.373 1_655 S
C2419 C2435 1.377 . S
C2420 C2418 1.389 . S
C2420 C2421 1.524 . S
C2420 C2434 1.377 . S
C2421 C2420 1.524 . S
C2421 C2422 1.397 . S
C2421 C2426 1.363 . S
C2422 H2399 0.950 . S
C2422 C2421 1.397 . S
C2422 C2423 1.334 . S
C2423 H2400 0.950 . S
C2423 C2422 1.334 . S
C2423 C2424 1.287 . S
C2424 C2423 1.287 . S
C2424 C2425 1.524 . S
C2424 H2443 0.913 . S
C2425 H2401 0.950 . S
C2425 C2424 1.524 . S
C2425 C2426 1.415 . S
C2426 H2402 0.950 . S
C2426 C2421 1.363 . S
C2426 C2425 1.415 . S
C2427 H2403 0.951 . S
C2427 C2428 1.366 . S
C2427 C2429 1.388 . S
C2428 C2427 1.366 . S
C2428 C2432 1.385 . S
C2429 H2404 0.951 . S
C2429 C2427 1.388 . S
C2429 C2430 1.366 . S
C2430 C2429 1.366 . S
C2430 C2431 1.414 . S
C2430 C2433 1.499 . S
C2431 H2405 0.950 . S
C2431 C2430 1.414 . S
C2431 C2432 1.374 . S
C2432 H2406 0.950 . S
C2432 C2428 1.385 . S
C2432 C2431 1.374 . S
C2433 C2430 1.499 . S
C2433 C2434 1.373 1_655 S
C2433 C2435 1.389 . S
C2434 H2407 0.950 . S
C2434 C2420 1.377 . S
C2434 C2433 1.373 1_455 S
C2435 C2419 1.377 . S
C2435 C2433 1.389 . S
C2435 C2436 1.524 . S
C2436 C2435 1.524 . S
C2436 C2437 1.397 . S
C2436 C2441 1.363 . S
C2437 H2408 0.950 . S
C2437 C2436 1.397 . S
C2437 C2438 1.334 . S
C2438 H2409 0.950 . S
C2438 C2437 1.334 . S
C2438 C2439 1.287 . S
C2439 C2438 1.287 . S
C2439 C2440 1.524 . S
C2439 H2442 0.999 . S
C2440 H2410 0.950 . S
C2440 C2439 1.524 . S
C2440 C2441 1.415 . S
C2441 H2411 0.950 . S
C2441 C2436 1.363 . S
C2441 C2440 1.415 . S
H2442 C2439 0.999 . S
H2443 C2424 0.913 . S
H2444 C2462 0.951 . S
H2445 C2464 0.951 . S
H2446 C2466 0.950 . S
H2447 C2467 0.950 . S
H2448 C2469 0.950 . S
H2449 C2472 0.950 . S
H2450 C2473 0.950 . S
H2451 C2475 0.950 . S
H2452 C2476 0.950 . S
H2453 C2477 0.951 . S
H2454 C2479 0.951 . S
H2455 C2481 0.950 . S
H2456 C2482 0.950 . S
H2457 C2484 0.950 . S
H2458 C2487 0.950 . S
H2459 C2488 0.950 . S
H2460 C2490 0.950 . S
H2461 C2491 0.950 . S
C2462 H2444 0.951 . S
C2462 C2463 1.366 . S
C2462 C2464 1.388 . S
C2463 C2462 1.366 . S
C2463 C2467 1.385 . S
C2464 H2445 0.951 . S
C2464 C2462 1.388 . S
C2464 C2465 1.366 . S
C2465 C2464 1.366 . S
C2465 C2466 1.414 . S
C2465 C2468 1.499 . S
C2466 H2446 0.950 . S
C2466 C2465 1.414 . S
C2466 C2467 1.374 . S
C2467 H2447 0.950 . S
C2467 C2463 1.385 . S
C2467 C2466 1.374 . S
C2468 C2465 1.499 . S
C2468 C2469 1.373 . S
C2468 C2470 1.389 . S
C2469 H2448 0.950 . S
C2469 C2468 1.373 . S
C2469 C2485 1.377 . S
C2470 C2468 1.389 . S
C2470 C2471 1.524 . S
C2470 C2484 1.377 . S
C2471 C2470 1.524 . S
C2471 C2472 1.397 . S
C2471 C2476 1.363 . S
C2472 H2449 0.950 . S
C2472 C2471 1.397 . S
C2472 C2473 1.334 . S
C2473 H2450 0.950 . S
C2473 C2472 1.334 . S
C2473 C2474 1.287 . S
C2474 C2473 1.287 . S
C2474 C2475 1.524 . S
C2474 H2493 0.913 . S
C2475 H2451 0.950 . S
C2475 C2474 1.524 . S
C2475 C2476 1.415 . S
C2476 H2452 0.950 . S
C2476 C2471 1.363 . S
C2476 C2475 1.415 . S
C2477 H2453 0.951 . S
C2477 C2478 1.366 . S
C2477 C2479 1.388 . S
C2478 C2477 1.366 . S
C2478 C2482 1.385 . S
C2479 H2454 0.951 . S
C2479 C2477 1.388 . S
C2479 C2480 1.366 . S
C2480 C2479 1.366 . S
C2480 C2481 1.414 . S
C2480 C2483 1.499 . S
C2481 H2455 0.950 . S
C2481 C2480 1.414 . S
C2481 C2482 1.374 . S
C2482 H2456 0.950 . S
C2482 C2478 1.385 . S
C2482 C2481 1.374 . S
C2483 C2480 1.499 . S
C2483 C2484 1.373 . S
C2483 C2485 1.389 . S
C2484 H2457 0.950 . S
C2484 C2470 1.377 . S
C2484 C2483 1.373 . S
C2485 C2469 1.377 . S
C2485 C2483 1.389 . S
C2485 C2486 1.524 . S
C2486 C2485 1.524 . S
C2486 C2487 1.397 . S
C2486 C2491 1.363 . S
C2487 H2458 0.950 . S
C2487 C2486 1.397 . S
C2487 C2488 1.334 . S
C2488 H2459 0.950 . S
C2488 C2487 1.334 . S
C2488 C2489 1.287 . S
C2489 C2488 1.287 . S
C2489 C2490 1.524 . S
C2489 H2492 0.999 . S
C2490 H2460 0.950 . S
C2490 C2489 1.524 . S
C2490 C2491 1.415 . S
C2491 H2461 0.950 . S
C2491 C2486 1.363 . S
C2491 C2490 1.415 . S
H2492 C2489 0.999 . S
H2493 C2474 0.913 . S
H2494 C2512 0.951 . S
H2495 C2514 0.951 . S
H2496 C2516 0.950 . S
H2497 C2517 0.950 . S
H2498 C2519 0.950 . S
H2499 C2522 0.950 . S
H2500 C2523 0.950 . S
H2501 C2525 0.950 . S
H2502 C2526 0.950 . S
H2503 C2527 0.951 . S
H2504 C2529 0.951 . S
H2505 C2531 0.950 . S
H2506 C2532 0.950 . S
H2507 C2534 0.950 . S
H2508 C2537 0.950 . S
H2509 C2538 0.950 . S
H2510 C2540 0.950 . S
H2511 C2541 0.950 . S
C2512 H2494 0.951 . S
C2512 C2513 1.366 . S
C2512 C2514 1.388 . S
C2513 C2512 1.366 . S
C2513 C2517 1.385 . S
C2514 H2495 0.951 . S
C2514 C2512 1.388 . S
C2514 C2515 1.366 . S
C2515 C2514 1.366 . S
C2515 C2516 1.414 . S
C2515 C2518 1.499 . S
C2516 H2496 0.950 . S
C2516 C2515 1.414 . S
C2516 C2517 1.374 . S
C2517 H2497 0.950 . S
C2517 C2513 1.385 . S
C2517 C2516 1.374 . S
C2518 C2515 1.499 . S
C2518 C2519 1.373 1_455 S
C2518 C2520 1.389 . S
C2519 H2498 0.950 . S
C2519 C2518 1.373 1_655 S
C2519 C2535 1.377 . S
C2520 C2518 1.389 . S
C2520 C2521 1.524 . S
C2520 C2534 1.377 . S
C2521 C2520 1.524 . S
C2521 C2522 1.397 . S
C2521 C2526 1.363 . S
C2522 H2499 0.950 . S
C2522 C2521 1.397 . S
C2522 C2523 1.334 . S
C2523 H2500 0.950 . S
C2523 C2522 1.334 . S
C2523 C2524 1.287 . S
C2524 C2523 1.287 . S
C2524 C2525 1.524 . S
C2524 H2543 0.913 . S
C2525 H2501 0.950 . S
C2525 C2524 1.524 . S
C2525 C2526 1.415 . S
C2526 H2502 0.950 . S
C2526 C2521 1.363 . S
C2526 C2525 1.415 . S
C2527 H2503 0.951 . S
C2527 C2528 1.366 . S
C2527 C2529 1.388 . S
C2528 C2527 1.366 . S
C2528 C2532 1.385 . S
C2529 H2504 0.951 . S
C2529 C2527 1.388 . S
C2529 C2530 1.366 . S
C2530 C2529 1.366 . S
C2530 C2531 1.414 . S
C2530 C2533 1.499 . S
C2531 H2505 0.950 . S
C2531 C2530 1.414 . S
C2531 C2532 1.374 . S
C2532 H2506 0.950 . S
C2532 C2528 1.385 . S
C2532 C2531 1.374 . S
C2533 C2530 1.499 . S
C2533 C2534 1.373 1_655 S
C2533 C2535 1.389 . S
C2534 H2507 0.950 . S
C2534 C2520 1.377 . S
C2534 C2533 1.373 1_455 S
C2535 C2519 1.377 . S
C2535 C2533 1.389 . S
C2535 C2536 1.524 . S
C2536 C2535 1.524 . S
C2536 C2537 1.397 . S
C2536 C2541 1.363 . S
C2537 H2508 0.950 . S
C2537 C2536 1.397 . S
C2537 C2538 1.334 . S
C2538 H2509 0.950 . S
C2538 C2537 1.334 . S
C2538 C2539 1.287 . S
C2539 C2538 1.287 . S
C2539 C2540 1.524 . S
C2539 H2542 0.999 . S
C2540 H2510 0.950 . S
C2540 C2539 1.524 . S
C2540 C2541 1.415 . S
C2541 H2511 0.950 . S
C2541 C2536 1.363 . S
C2541 C2540 1.415 . S
H2542 C2539 0.999 . S
H2543 C2524 0.913 . S
C563 C203 0.995 . S
C578 C20 0.994 . S
C613 C169 0.995 . S
C628 C54 0.994 . S
C663 C88 0.994 . S
C678 C271 0.995 . S
C713 C122 0.994 . S
C728 C237 0.995 . S
C763 C156 0.994 . S
C778 C67 0.995 . S
C813 C190 0.994 . S
C828 C33 0.995 . S
C863 C135 0.995 . S
C878 C224 0.994 . S
C913 C258 0.994 . S
C928 C101 0.995 . S
C963 C292 0.994 . S
C978 C475 0.995 . S
C1013 C326 0.994 . S
C1028 C441 0.995 . S
C1063 C360 0.994 . S
C1078 C543 0.995 . S
C1113 C394 0.994 . S
C1128 C509 0.995 . S
C1163 C428 0.994 . S
C1178 C339 0.995 . S
C1213 C462 0.994 . S
C1228 C305 0.995 . S
C1263 C407 0.995 . S
C1278 C496 0.994 . S
C1313 C373 0.995 . S
C1328 C530 0.994 . S
C1363 C9 1.434 . S
C1378 C43 1.434 . S
C1413 C77 1.435 . S
C1428 C111 1.433 . S
C1463 C179 1.433 . S
C1478 C145 1.435 . S
C1513 C247 1.434 . S
C1528 C213 1.434 . S
C1563 C315 1.433 . S
C1578 C281 1.435 . S
C1613 C383 1.435 . S
C1628 C349 1.434 . S
C1663 C417 1.434 . S
C1678 C451 1.434 . S
C1713 C485 1.433 . S
C1728 C519 1.434 . S
C1763 C311 1.578 . S
C1778 C5 1.578 . S
C1813 C39 1.578 . S
C1828 C277 1.577 . S
C1863 C73 1.577 . S
C1878 C379 1.578 . S
C1913 C345 1.577 . S
C1928 C107 1.577 . S
C1963 C141 1.577 . S
C1978 C447 1.577 . S
C2013 C175 1.577 . S
C2028 C413 1.577 . S
C2063 C209 1.577 . S
C2078 C515 1.578 . S
C2113 C481 1.577 . S
C2128 C243 1.577 . S
C2163 C2 1.372 . S
C2178 C104 1.372 . S
C2213 C36 1.372 . S
C2228 C70 1.372 . S
C2263 C138 1.372 . S
C2278 C240 1.372 . S
C2313 C172 1.372 . S
C2328 C206 1.372 . S
C2363 C376 1.372 . S
C2378 C274 1.372 . S
C2413 C342 1.372 . S
C2428 C308 1.372 . S
C2463 C410 1.372 . S
C2478 C512 1.372 . S
C2513 C444 1.372 . S
C2528 C478 1.372 . S
