# Generated by pormake.
# Topology ecv, (8)-cn, num edge types: 1
# Building blocks:
#     Node 0, Type 0, BuildingBlock: VETTIZ_charged_sbu_0, # of connection points: 8
#     Node 1, Type 0, BuildingBlock: VETTIZ_charged_sbu_0, # of connection points: 8
#     Node 2, Type 0, BuildingBlock: VETTIZ_charged_sbu_0, # of connection points: 8
#     Node 3, Type 0, BuildingBlock: VETTIZ_charged_sbu_0, # of connection points: 8
#     Node 4, Type 0, BuildingBlock: VETTIZ_charged_sbu_0, # of connection points: 8
#     Node 5, Type 0, BuildingBlock: VETTIZ_charged_sbu_0, # of connection points: 8
#     Node 6, Type 0, BuildingBlock: VETTIZ_charged_sbu_0, # of connection points: 8
#     Node 7, Type 0, BuildingBlock: VETTIZ_charged_sbu_0, # of connection points: 8
#     Node 8, Type 0, BuildingBlock: VETTIZ_charged_sbu_0, # of connection points: 8
#     Node 9, Type 0, BuildingBlock: VETTIZ_charged_sbu_0, # of connection points: 8
#     Node 10, Type 0, BuildingBlock: VETTIZ_charged_sbu_0, # of connection points: 8
#     Node 11, Type 0, BuildingBlock: VETTIZ_charged_sbu_0, # of connection points: 8
#     Node 12, Type 0, BuildingBlock: VETTIZ_charged_sbu_0, # of connection points: 8
#     Node 13, Type 0, BuildingBlock: VETTIZ_charged_sbu_0, # of connection points: 8
#     Node 14, Type 0, BuildingBlock: VETTIZ_charged_sbu_0, # of connection points: 8
#     Node 15, Type 0, BuildingBlock: VETTIZ_charged_sbu_0, # of connection points: 8
#     Edge 16, Type (0, 0), BuildingBlock: OJICUG_clean_linker_0, # of connection points: 2
#     Edge 17, Type (0, 0), BuildingBlock: OJICUG_clean_linker_0, # of connection points: 2
#     Edge 18, Type (0, 0), BuildingBlock: OJICUG_clean_linker_0, # of connection points: 2
#     Edge 19, Type (0, 0), BuildingBlock: OJICUG_clean_linker_0, # of connection points: 2
#     Edge 20, Type (0, 0), BuildingBlock: OJICUG_clean_linker_0, # of connection points: 2
#     Edge 21, Type (0, 0), BuildingBlock: OJICUG_clean_linker_0, # of connection points: 2
#     Edge 22, Type (0, 0), BuildingBlock: OJICUG_clean_linker_0, # of connection points: 2
#     Edge 23, Type (0, 0), BuildingBlock: OJICUG_clean_linker_0, # of connection points: 2
#     Edge 24, Type (0, 0), BuildingBlock: OJICUG_clean_linker_0, # of connection points: 2
#     Edge 25, Type (0, 0), BuildingBlock: OJICUG_clean_linker_0, # of connection points: 2
#     Edge 26, Type (0, 0), BuildingBlock: OJICUG_clean_linker_0, # of connection points: 2
#     Edge 27, Type (0, 0), BuildingBlock: OJICUG_clean_linker_0, # of connection points: 2
#     Edge 28, Type (0, 0), BuildingBlock: OJICUG_clean_linker_0, # of connection points: 2
#     Edge 29, Type (0, 0), BuildingBlock: OJICUG_clean_linker_0, # of connection points: 2
#     Edge 30, Type (0, 0), BuildingBlock: OJICUG_clean_linker_0, # of connection points: 2
#     Edge 31, Type (0, 0), BuildingBlock: OJICUG_clean_linker_0, # of connection points: 2
#     Edge 32, Type (0, 0), BuildingBlock: OJICUG_clean_linker_0, # of connection points: 2
#     Edge 33, Type (0, 0), BuildingBlock: OJICUG_clean_linker_0, # of connection points: 2
#     Edge 34, Type (0, 0), BuildingBlock: OJICUG_clean_linker_0, # of connection points: 2
#     Edge 35, Type (0, 0), BuildingBlock: OJICUG_clean_linker_0, # of connection points: 2
#     Edge 36, Type (0, 0), BuildingBlock: OJICUG_clean_linker_0, # of connection points: 2
#     Edge 37, Type (0, 0), BuildingBlock: OJICUG_clean_linker_0, # of connection points: 2
#     Edge 38, Type (0, 0), BuildingBlock: OJICUG_clean_linker_0, # of connection points: 2
#     Edge 39, Type (0, 0), BuildingBlock: OJICUG_clean_linker_0, # of connection points: 2
#     Edge 40, Type (0, 0), BuildingBlock: OJICUG_clean_linker_0, # of connection points: 2
#     Edge 41, Type (0, 0), BuildingBlock: OJICUG_clean_linker_0, # of connection points: 2
#     Edge 42, Type (0, 0), BuildingBlock: OJICUG_clean_linker_0, # of connection points: 2
#     Edge 43, Type (0, 0), BuildingBlock: OJICUG_clean_linker_0, # of connection points: 2
#     Edge 44, Type (0, 0), BuildingBlock: OJICUG_clean_linker_0, # of connection points: 2
#     Edge 45, Type (0, 0), BuildingBlock: OJICUG_clean_linker_0, # of connection points: 2
#     Edge 46, Type (0, 0), BuildingBlock: OJICUG_clean_linker_0, # of connection points: 2
#     Edge 47, Type (0, 0), BuildingBlock: OJICUG_clean_linker_0, # of connection points: 2
#     Edge 48, Type (0, 0), BuildingBlock: OJICUG_clean_linker_0, # of connection points: 2
#     Edge 49, Type (0, 0), BuildingBlock: OJICUG_clean_linker_0, # of connection points: 2
#     Edge 50, Type (0, 0), BuildingBlock: OJICUG_clean_linker_0, # of connection points: 2
#     Edge 51, Type (0, 0), BuildingBlock: OJICUG_clean_linker_0, # of connection points: 2
#     Edge 52, Type (0, 0), BuildingBlock: OJICUG_clean_linker_0, # of connection points: 2
#     Edge 53, Type (0, 0), BuildingBlock: OJICUG_clean_linker_0, # of connection points: 2
#     Edge 54, Type (0, 0), BuildingBlock: OJICUG_clean_linker_0, # of connection points: 2
#     Edge 55, Type (0, 0), BuildingBlock: OJICUG_clean_linker_0, # of connection points: 2
#     Edge 56, Type (0, 0), BuildingBlock: OJICUG_clean_linker_0, # of connection points: 2
#     Edge 57, Type (0, 0), BuildingBlock: OJICUG_clean_linker_0, # of connection points: 2
#     Edge 58, Type (0, 0), BuildingBlock: OJICUG_clean_linker_0, # of connection points: 2
#     Edge 59, Type (0, 0), BuildingBlock: OJICUG_clean_linker_0, # of connection points: 2
#     Edge 60, Type (0, 0), BuildingBlock: OJICUG_clean_linker_0, # of connection points: 2
#     Edge 61, Type (0, 0), BuildingBlock: OJICUG_clean_linker_0, # of connection points: 2
#     Edge 62, Type (0, 0), BuildingBlock: OJICUG_clean_linker_0, # of connection points: 2
#     Edge 63, Type (0, 0), BuildingBlock: OJICUG_clean_linker_0, # of connection points: 2
#     Edge 64, Type (0, 0), BuildingBlock: OJICUG_clean_linker_0, # of connection points: 2
#     Edge 65, Type (0, 0), BuildingBlock: OJICUG_clean_linker_0, # of connection points: 2
#     Edge 66, Type (0, 0), BuildingBlock: OJICUG_clean_linker_0, # of connection points: 2
#     Edge 67, Type (0, 0), BuildingBlock: OJICUG_clean_linker_0, # of connection points: 2
#     Edge 68, Type (0, 0), BuildingBlock: OJICUG_clean_linker_0, # of connection points: 2
#     Edge 69, Type (0, 0), BuildingBlock: OJICUG_clean_linker_0, # of connection points: 2
#     Edge 70, Type (0, 0), BuildingBlock: OJICUG_clean_linker_0, # of connection points: 2
#     Edge 71, Type (0, 0), BuildingBlock: OJICUG_clean_linker_0, # of connection points: 2
#     Edge 72, Type (0, 0), BuildingBlock: OJICUG_clean_linker_0, # of connection points: 2
#     Edge 73, Type (0, 0), BuildingBlock: OJICUG_clean_linker_0, # of connection points: 2
#     Edge 74, Type (0, 0), BuildingBlock: OJICUG_clean_linker_0, # of connection points: 2
#     Edge 75, Type (0, 0), BuildingBlock: OJICUG_clean_linker_0, # of connection points: 2
#     Edge 76, Type (0, 0), BuildingBlock: OJICUG_clean_linker_0, # of connection points: 2
#     Edge 77, Type (0, 0), BuildingBlock: OJICUG_clean_linker_0, # of connection points: 2
#     Edge 78, Type (0, 0), BuildingBlock: OJICUG_clean_linker_0, # of connection points: 2
#     Edge 79, Type (0, 0), BuildingBlock: OJICUG_clean_linker_0, # of connection points: 2
# Relax obj value: 0.130
# Max RMSD: 0.230
# Mean RMSD: 0.230
data_MOF--net-ecv--node1-VETTIZ_charged_sbu_0--edge1-OJICUG_clean_linker_0
_symmetry_space_group_name_H-M    P1
_symmetry_Int_Tables_number       1
_symmetry_cell_setting            triclinic
loop_
_symmetry_equiv_pos_as_xyz
'x, y, z'
_cell_length_a     16.362789
_cell_length_b     18.780475
_cell_length_c     81.449076
_cell_angle_alpha  90.338114
_cell_angle_beta   90.415318
_cell_angle_gamma 90.173303
loop_
_atom_site_label
_atom_site_type_symbol
_atom_site_fract_x
_atom_site_fract_y
_atom_site_fract_z
_atom_type_partial_charge
Fe0 Fe 0.16285 0.25709 0.44955 0.0
O1 O 0.16182 0.17998 0.46528 0.0
Fe2 Fe 0.11707 0.0777 0.45797 0.0
Fe3 Fe 0.10858 0.18868 0.48723 0.0
O4 O 0.16623 0.17256 0.46397 0.0
O5 O 0.06694 0.088 0.47997 0.0
O6 O 0.06741 0.09277 0.48125 0.0
Fe7 Fe 0.0743 1.02075 0.49829 0.0
C8 C 0.23263 0.30916 0.48235 0.0
O9 O 0.07432 0.3151 0.46194 0.0
O10 O 0.00927 0.23489 0.47706 0.0
O11 O 0.00924 0.9591 0.48188 0.0
O12 O 0.05028 0.98241 0.45529 0.0
O13 O 0.01674 0.1259 0.44697 0.0
O14 O 0.07387 0.21682 0.43378 0.0
O15 O 0.03865 0.17484 0.51049 0.0
O16 O 0.97331 0.07578 0.50369 0.0
C17 C 0.01684 0.17099 0.43531 0.0
O18 O 0.17596 0.97168 0.4905 0.0
O19 O 0.21761 1.02137 0.46708 0.0
O20 O 0.24369 0.29783 0.46676 0.0
O21 O 0.16972 0.28697 0.49074 0.0
C22 C 0.0136 0.29613 0.47066 0.0
C23 C 0.98866 0.12221 0.5144 0.0
C24 C 0.20174 0.13708 0.51184 0.0
O25 O 0.2117 0.14765 0.49691 0.0
O26 O 0.14873 0.08837 0.51509 0.0
C27 C 1.00237 0.95291 0.46607 0.0
O28 O 0.18121 0.08136 0.43597 0.0
O29 O 0.24349 0.1927 0.43689 0.0
C30 C 0.22608 0.97682 0.47879 0.0
C31 C 0.2372 0.12706 0.43178 0.0
Fe32 Fe 0.11517 0.27969 0.88886 0.0
O33 O 0.09046 0.21732 0.86969 0.0
Fe34 Fe 0.12243 0.10693 0.87243 0.0
Fe35 Fe 0.14362 0.23516 0.8478 0.0
O36 O 0.08823 0.20962 0.87119 0.0
O37 O 0.16385 0.12599 0.85005 0.0
O38 O 0.16506 0.13126 0.8491 0.0
Fe39 Fe 0.14071 0.07136 0.82995 0.0
C40 C 0.04211 0.3626 0.86107 0.0
O41 O 0.20437 0.33753 0.87687 0.0
O42 O 0.25169 0.25874 0.85929 0.0
O43 O 0.19147 0.98992 0.84258 0.0
O44 O 0.17279 1.00379 0.87036 0.0
O45 O 0.23498 0.13481 0.88203 0.0
O46 O 0.20355 0.21952 0.90004 0.0
O47 O 0.21377 0.22793 0.82461 0.0
O48 O 0.25047 0.11198 0.82632 0.0
C49 C 0.2525 0.17338 0.89442 0.0
O50 O 0.02955 0.0369 0.837 0.0
O51 O 0.01136 0.07138 0.86322 0.0
O52 O 0.03692 0.34139 0.87614 0.0
O53 O 0.09647 0.34075 0.85025 0.0
C54 C 0.25827 0.31809 0.86664 0.0
C55 C 0.25597 0.17186 0.8194 0.0
C56 C 0.0449 0.20958 0.82014 0.0
O57 O 0.03613 0.21901 0.83538 0.0
O58 O 0.0874 0.15573 0.81589 0.0
C59 C 0.20393 0.97211 0.85754 0.0
O60 O 0.06829 0.10168 0.89603 0.0
O61 O 0.03078 0.21807 0.90126 0.0
C62 C 0.98755 0.03997 0.85003 0.0
C63 C 0.02624 0.15 0.90393 0.0
Fe64 Fe 0.89116 0.95113 0.62616 0.0
O65 O 0.85468 0.85319 0.61944 0.0
Fe66 Fe 0.92325 1.0192 0.58644 0.0
Fe67 Fe 0.86635 0.76809 0.63327 0.0
O68 O 0.94106 0.94952 0.604 0.0
O69 O 0.94182 0.94443 0.60265 0.0
O70 O 0.85863 0.84711 0.61811 0.0
Fe71 Fe 0.90874 0.84699 0.59582 0.0
C72 C 0.00506 0.86382 0.64771 0.0
O73 O 0.83063 0.9381 0.6482 0.0
O74 O 0.77951 0.82351 0.64608 0.0
O75 O 0.80057 0.88334 0.58728 0.0
O76 O 0.85521 0.94931 0.5692 0.0
O77 O 0.81657 0.05649 0.59492 0.0
O78 O 0.78272 0.9972 0.61768 0.0
O79 O 0.78822 0.72387 0.61601 0.0
O80 O 0.85545 0.74559 0.5916 0.0
C81 C 0.76756 0.04238 0.60639 0.0
O82 O 0.97359 0.87045 0.57242 0.0
O83 O 0.02875 0.97429 0.57989 0.0
O84 O 0.99796 0.9117 0.63669 0.0
O85 O 0.9534 0.81304 0.64902 0.0
C86 C 0.77654 0.88918 0.65112 0.0
C87 C 0.79699 0.71671 0.60023 0.0
C88 C 0.01525 0.74349 0.61131 0.0
O89 O 0.95793 0.71977 0.62026 0.0
O90 O 0.01362 0.80481 0.60483 0.0
C91 C 0.80614 0.89758 0.57242 0.0
O92 O 0.98104 0.08406 0.60344 0.0
O93 O 0.94215 0.05237 0.62969 0.0
C94 C 0.01852 0.92717 0.56901 0.0
C95 C 0.98224 0.09133 0.61929 0.0
Fe96 Fe 0.8905 0.98193 0.24039 0.0
O97 O 0.9203 0.88239 0.2349 0.0
Fe98 Fe 0.85545 0.05525 0.20146 0.0
Fe99 Fe 0.89082 0.81084 0.25145 0.0
O100 O 0.84348 0.97987 0.21759 0.0
O101 O 0.84086 0.97479 0.21624 0.0
O102 O 0.91979 0.87711 0.23335 0.0
Fe103 Fe 0.86991 0.87476 0.21063 0.0
C104 C 0.99199 0.90409 0.26959 0.0
O105 O 0.77933 0.95028 0.24831 0.0
O106 O 0.82667 0.88646 0.26764 0.0
O107 O 0.80904 0.88583 0.1882 0.0
O108 O 0.764 1.00209 0.18914 0.0
O109 O 0.78104 0.10605 0.218 0.0
O110 O 0.8427 0.08576 0.2432 0.0
O111 O 0.78418 0.77803 0.24168 0.0
O112 O 0.75742 0.83809 0.21875 0.0
C113 C 0.78721 0.115 0.23378 0.0
O114 O 0.98004 0.90633 0.19953 0.0
O115 O 0.93798 1.00343 0.1862 0.0
O116 O 0.95167 0.96115 0.26445 0.0
O117 O 0.99519 0.84727 0.26103 0.0
C118 C 0.78143 0.93926 0.26338 0.0
C119 C 0.73777 0.79399 0.22985 0.0
C120 C 0.94949 0.73234 0.21927 0.0
O121 O 0.94819 0.74119 0.23516 0.0
O122 O 0.91072 0.77064 0.2085 0.0
C123 C 0.75766 0.93604 0.18453 0.0
O124 O 0.95146 0.09978 0.21387 0.0
O125 O 0.99837 1.01935 0.232 0.0
C126 C 0.98807 0.95188 0.18793 0.0
C127 C 0.00648 0.07466 0.22328 0.0
Fe128 Fe 0.16556 0.76616 0.94866 0.0
O129 O 0.16734 0.68855 0.96432 0.0
Fe130 Fe 0.13064 0.58444 0.95652 0.0
Fe131 Fe 0.1128 0.69383 0.98619 0.0
O132 O 0.17128 0.68175 0.96296 0.0
O133 O 0.07656 0.59141 0.97834 0.0
O134 O 0.07705 0.59651 0.97978 0.0
Fe135 Fe 0.08863 0.52396 0.9967 0.0
C136 C 0.23131 0.81929 0.98183 0.0
O137 O 0.07315 0.81913 0.96066 0.0
O138 O 0.01185 0.73664 0.97584 0.0
O139 O 0.03038 0.45884 0.97997 0.0
O140 O 0.0724 0.48456 0.95353 0.0
O141 O 0.0284 0.6269 0.94477 0.0
O142 O 0.08063 0.72245 0.93242 0.0
O143 O 0.04182 0.67564 1.0092 0.0
O144 O 0.98412 0.57178 1.00249 0.0
C145 C 0.02626 0.67385 0.93347 0.0
O146 O 0.19412 0.48157 0.98915 0.0
O147 O 0.23421 0.53478 0.96608 0.0
O148 O 0.24219 0.80967 0.96619 0.0
O149 O 0.16921 0.79451 0.99012 0.0
C150 C 0.01339 0.79772 0.96929 0.0
C151 C 0.99457 0.62062 1.01294 0.0
C152 C 0.2069 0.64509 1.01099 0.0
O153 O 0.21764 0.65682 0.99612 0.0
O154 O 0.15642 0.59407 1.01384 0.0
C155 C 0.02944 0.44895 0.96422 0.0
O156 O 0.19941 0.59235 0.93496 0.0
O157 O 0.25234 0.70668 0.93681 0.0
C158 C 0.24502 0.49073 0.97776 0.0
C159 C 0.25509 0.64051 0.93209 0.0
Fe160 Fe 0.10891 0.7729 0.38952 0.0
O161 O 0.08451 0.71077 0.37028 0.0
Fe162 Fe 0.11565 0.60032 0.37315 0.0
Fe163 Fe 0.13607 0.72812 0.34811 0.0
O164 O 0.0824 0.70311 0.37185 0.0
O165 O 0.15707 0.61911 0.35083 0.0
O166 O 0.15797 0.62443 0.34983 0.0
Fe167 Fe 0.13409 0.56406 0.33079 0.0
C168 C 0.03387 0.85564 0.36168 0.0
O169 O 0.19808 0.82993 0.3775 0.0
O170 O 0.24475 0.75331 0.35919 0.0
O171 O 0.18361 0.48243 0.34342 0.0
O172 O 0.16495 0.49681 0.37115 0.0
O173 O 0.22812 0.62696 0.38289 0.0
O174 O 0.19762 0.71276 0.40071 0.0
O175 O 0.20551 0.71796 0.32443 0.0
O176 O 0.24475 0.60515 0.32827 0.0
C177 C 0.24547 0.66514 0.39534 0.0
O178 O 0.02266 0.53062 0.33761 0.0
O179 O 0.00463 0.5664 0.36377 0.0
O180 O 0.03018 0.83457 0.37679 0.0
O181 O 0.08718 0.83357 0.35062 0.0
C182 C 0.2517 0.81127 0.36712 0.0
C183 C 0.24873 0.66102 0.31996 0.0
C184 C 0.03578 0.70124 0.32094 0.0
O185 O 0.02753 0.71063 0.33617 0.0
O186 O 0.08003 0.64843 0.31666 0.0
C187 C 0.19642 0.46503 0.35838 0.0
O188 O 0.06165 0.59521 0.39671 0.0
O189 O 0.02456 0.71156 0.40213 0.0
C190 C 0.98041 0.53531 0.35058 0.0
C191 C 0.02048 0.64347 0.40479 0.0
Fe192 Fe 0.87323 0.45697 0.12503 0.0
O193 O 0.83249 0.35986 0.11873 0.0
Fe194 Fe 0.9046 0.52226 0.08506 0.0
Fe195 Fe 0.84179 0.27595 0.13297 0.0
O196 O 0.92124 0.45292 0.10268 0.0
O197 O 0.92212 0.4477 0.10142 0.0
O198 O 0.8354 0.35372 0.11735 0.0
Fe199 Fe 0.88575 0.35048 0.09508 0.0
C200 C 0.98606 0.36838 0.14633 0.0
O201 O 0.81556 0.44723 0.14739 0.0
O202 O 0.75781 0.33507 0.14576 0.0
O203 O 0.77926 0.38849 0.08611 0.0
O204 O 0.83609 0.4522 0.06798 0.0
O205 O 0.79908 0.56076 0.09362 0.0
O206 O 0.76563 0.50547 0.11692 0.0
O207 O 0.76119 0.23261 0.11606 0.0
O208 O 0.82835 0.24966 0.09143 0.0
C209 C 0.75075 0.54943 0.10537 0.0
O210 O 0.95284 0.37161 0.07173 0.0
O211 O 0.00882 0.47693 0.07828 0.0
O212 O 0.9796 0.41527 0.1351 0.0
O213 O 0.9322 0.3197 0.14825 0.0
C214 C 0.75913 0.40102 0.15065 0.0
C215 C 0.76867 0.22369 0.10029 0.0
C216 C 0.98844 0.24589 0.11104 0.0
O217 O 0.93031 0.22386 0.11999 0.0
O218 O 0.98881 0.3069 0.10444 0.0
C219 C 0.78707 0.40044 0.07117 0.0
O220 O 0.96435 0.58728 0.10186 0.0
O221 O 0.92716 0.55671 0.12825 0.0
C222 C 0.99838 0.42766 0.06789 0.0
C223 C 0.96699 0.59483 0.11769 0.0
Fe224 Fe 0.91121 0.48246 0.73857 0.0
O225 O 0.94403 0.38351 0.73329 0.0
Fe226 Fe 0.87249 0.55489 0.69997 0.0
Fe227 Fe 0.91843 0.31173 0.75001 0.0
O228 O 0.86305 0.47875 0.71595 0.0
O229 O 0.86039 0.47359 0.71466 0.0
O230 O 0.94365 0.37836 0.7318 0.0
Fe231 Fe 0.89315 0.3742 0.70917 0.0
C232 C 0.01464 0.40949 0.76801 0.0
O233 O 0.80169 0.4486 0.74687 0.0
O234 O 0.85141 0.38528 0.76612 0.0
O235 O 0.83173 0.38315 0.68676 0.0
O236 O 0.78401 0.49869 0.68739 0.0
O237 O 0.79495 0.60288 0.71646 0.0
O238 O 0.86077 0.58499 0.74135 0.0
O239 O 0.81334 0.27496 0.74031 0.0
O240 O 0.78242 0.33448 0.71749 0.0
C241 C 0.80322 0.61256 0.7322 0.0
O242 O 1.00172 0.40844 0.69805 0.0
O243 O 0.95878 0.50598 0.68494 0.0
O244 O 0.97288 0.46506 0.76259 0.0
O245 O 0.02122 0.35266 0.75949 0.0
C246 C 0.80477 0.43718 0.76193 0.0
C247 C 0.76562 0.28933 0.72856 0.0
C248 C 0.97814 0.23403 0.71789 0.0
O249 O 0.97802 0.24365 0.73375 0.0
O250 O 0.93783 0.27118 0.70713 0.0
C251 C 0.77943 0.43236 0.68291 0.0
O252 O 0.96496 0.60386 0.71281 0.0
O253 O 0.01733 0.52167 0.72967 0.0
C254 C 0.0094 0.45468 0.68661 0.0
C255 C 0.02102 0.58106 0.72233 0.0
Fe256 Fe 0.62718 0.18635 0.96538 0.0
O257 O 0.66933 0.18797 0.98849 0.0
Fe258 Fe 0.60602 1.00439 0.95799 0.0
Fe259 Fe 0.64957 0.26245 1.00487 0.0
O260 O 0.58713 0.08986 0.97172 0.0
O261 O 0.59114 0.08426 0.97326 0.0
O262 O 0.67206 0.183 0.98981 0.0
Fe263 Fe 0.63793 0.08573 0.99627 0.0
C264 C 0.72394 0.32304 0.97203 0.0
O265 O 0.51695 0.23417 0.97138 0.0
O266 O 0.54718 0.29824 0.9939 0.0
O267 O 0.58152 0.98346 0.99894 0.0
O268 O 0.522 0.96101 0.97345 0.0
O269 O 0.52587 0.05627 0.94253 0.0
O270 O 0.57587 0.17101 0.94194 0.0
O271 O 0.57749 0.1966 1.02199 0.0
O272 O 0.52977 0.12206 1.00422 0.0
C273 C 0.52867 0.11997 0.93651 0.0
O274 O 0.74596 0.04416 0.9882 0.0
O275 O 0.69025 0.95741 0.97293 0.0
O276 O 0.6791 0.28643 0.96182 0.0
O277 O 0.71827 0.32083 0.98796 0.0
C278 C 0.50093 0.28292 0.98186 0.0
C279 C 0.53329 0.14076 1.01897 0.0
C280 C 0.74104 0.17098 1.0247 0.0
O281 O 0.74987 0.2221 1.01478 0.0
O282 O 0.69814 0.11331 1.0206 0.0
C283 C 0.52603 0.9541 0.9893 0.0
O284 O 0.70042 0.04806 0.94406 0.0
O285 O 0.73776 0.14489 0.95807 0.0
C286 C 0.74994 0.9847 0.98077 0.0
C287 C 0.75198 0.09745 0.94725 0.0
Fe288 Fe 0.60144 0.27264 0.38182 0.0
O289 O 0.58414 0.20922 0.3626 0.0
Fe290 Fe 0.62445 0.10314 0.36607 0.0
Fe291 Fe 0.62418 0.22797 0.33955 0.0
O292 O 0.58481 0.20308 0.36417 0.0
O293 O 0.65966 0.12031 0.34297 0.0
O294 O 0.66017 0.12664 0.3417 0.0
Fe295 Fe 0.63081 0.05738 0.32418 0.0
C296 C 0.51383 0.34911 0.35429 0.0
O297 O 0.68531 0.33215 0.36993 0.0
O298 O 0.73224 0.26781 0.34877 0.0
O299 O 0.70136 0.98632 0.33716 0.0
O300 O 0.67587 1.00172 0.36466 0.0
O301 O 0.73721 0.13626 0.3755 0.0
O302 O 0.69381 0.21783 0.39335 0.0
O303 O 0.68139 0.21799 0.31426 0.0
O304 O 0.72973 0.10468 0.31615 0.0
C305 C 0.74779 0.1746 0.38835 0.0
O306 O 0.52968 1.01189 0.33446 0.0
O307 O 0.51207 0.06607 0.35857 0.0
O308 O 0.51752 0.32852 0.36936 0.0
O309 O 0.5627 0.3287 0.34232 0.0
C310 C 0.73684 0.32075 0.35865 0.0
C311 C 0.72369 0.16259 0.30841 0.0
C312 C 0.51719 0.18754 0.31465 0.0
O313 O 0.51537 0.19818 0.32992 0.0
O314 O 0.5586 0.13313 0.30996 0.0
C315 C 0.7145 0.97265 0.35246 0.0
O316 O 0.57522 0.09653 0.3897 0.0
O317 O 0.52053 0.2079 0.3934 0.0
C318 C 0.49001 1.02148 0.34761 0.0
C319 C 0.52208 0.1401 0.39591 0.0
Fe320 Fe 0.39597 1.03293 0.12554 0.0
O321 O 0.40763 0.94755 0.11182 0.0
Fe322 Fe 0.35891 0.95288 0.08731 0.0
Fe323 Fe 0.36925 0.85065 0.11829 0.0
O324 O 0.40542 0.95275 0.11026 0.0
O325 O 0.32136 0.85652 0.09385 0.0
O326 O 0.32196 0.85141 0.09543 0.0
Fe327 Fe 0.34175 0.77746 0.07854 0.0
C328 C 0.4743 0.9141 0.14601 0.0
O329 O 0.3029 0.99176 0.13996 0.0
O330 O 0.2603 0.88997 0.12838 0.0
O331 O 0.24211 0.81968 0.06864 0.0
O332 O 0.29739 0.92714 0.063 0.0
O333 O 0.25336 0.99741 0.09546 0.0
O334 O 0.31126 0.08224 0.11112 0.0
O335 O 0.32036 0.74977 0.1215 0.0
O336 O 0.27406 0.71952 0.09551 0.0
C337 C 0.25221 0.05767 0.10259 0.0
O338 O 0.41508 0.84245 0.06145 0.0
O339 O 0.46591 0.91444 0.0793 0.0
O340 O 0.47602 0.97823 0.14025 0.0
O341 O 0.4271 0.86274 0.14096 0.0
C342 C 0.25153 0.9406 0.13885 0.0
C343 C 0.27243 0.71546 0.11145 0.0
C344 C 0.4916 0.75411 0.10081 0.0
O345 O 0.47872 0.80505 0.11087 0.0
O346 O 0.44305 0.73848 0.08921 0.0
C347 C 0.2529 0.87066 0.05875 0.0
O348 O 0.41849 0.05388 0.08451 0.0
O349 O 0.48011 0.07424 0.10981 0.0
C350 C 0.4613 0.89691 0.0645 0.0
C351 C 0.47517 0.08208 0.09403 0.0
Fe352 Fe 0.35634 0.05264 0.75316 0.0
O353 O 0.34674 0.97156 0.73839 0.0
Fe354 Fe 0.38945 0.97829 0.71424 0.0
Fe355 Fe 0.39043 0.87891 0.7461 0.0
O356 O 0.34646 0.97651 0.73688 0.0
O357 O 0.43679 0.88496 0.72134 0.0
O358 O 0.43457 0.87885 0.72308 0.0
Fe359 Fe 0.4268 0.79652 0.70837 0.0
C360 C 0.48727 0.94333 0.76851 0.0
O361 O 0.25982 0.99686 0.7607 0.0
O362 O 0.32901 0.90489 0.77032 0.0
O363 O 0.3291 0.82996 0.69402 0.0
O364 O 0.28301 0.93038 0.70529 0.0
O365 O 0.3297 0.0741 0.71016 0.0
O366 O 0.28452 0.1043 0.73601 0.0
O367 O 0.28711 0.8281 0.7384 0.0
O368 O 0.34852 0.74404 0.7235 0.0
C369 C 0.28118 0.10712 0.72012 0.0
O370 O 0.49992 0.85383 0.69294 0.0
O371 O 0.44368 0.96655 0.69156 0.0
O372 O 0.43702 0.99527 0.77058 0.0
O373 O 0.49545 0.92474 0.75384 0.0
C374 C 0.27884 0.95952 0.77281 0.0
C375 C 0.28841 0.76706 0.73169 0.0
C376 C 0.51307 0.75596 0.73991 0.0
O377 O 0.45678 0.78217 0.74972 0.0
O378 O 0.51497 0.76263 0.72408 0.0
C379 C 0.27503 0.87832 0.69526 0.0
O380 O 0.49462 0.03401 0.72139 0.0
O381 O 0.45455 0.0992 0.74302 0.0
C382 C 0.49282 0.9169 0.68672 0.0
C383 C 0.50411 0.08584 0.73152 0.0
Fe384 Fe 0.61821 0.67972 0.46592 0.0
O385 O 0.65994 0.68637 0.4891 0.0
Fe386 Fe 0.60548 0.49759 0.45928 0.0
Fe387 Fe 0.63283 0.76122 0.5051 0.0
O388 O 0.58361 0.58266 0.47279 0.0
O389 O 0.58659 0.57791 0.47435 0.0
O390 O 0.66331 0.68149 0.49048 0.0
Fe391 Fe 0.63249 0.58382 0.49739 0.0
C392 C 0.69788 0.82544 0.47165 0.0
O393 O 0.50481 0.72281 0.47142 0.0
O394 O 0.5268 0.78825 0.49409 0.0
O395 O 0.57863 0.48074 0.50078 0.0
O396 O 0.52482 0.45264 0.47495 0.0
O397 O 0.52146 0.54527 0.44382 0.0
O398 O 0.56856 0.66047 0.44256 0.0
O399 O 0.56823 0.69359 0.52284 0.0
O400 O 0.52226 0.61929 0.50501 0.0
C401 C 0.52163 0.60861 0.43757 0.0
O402 O 0.74277 0.54361 0.48971 0.0
O403 O 0.69296 0.45489 0.47418 0.0
O404 O 0.66233 0.78095 0.4617 0.0
O405 O 0.69333 0.82412 0.48763 0.0
C406 C 0.48334 0.7699 0.48186 0.0
C407 C 0.52523 0.63743 0.51983 0.0
C408 C 0.733 0.6754 0.52517 0.0
O409 O 0.73591 0.72833 0.51548 0.0
O410 O 0.69256 0.61539 0.52141 0.0
C411 C 0.52636 0.44815 0.49084 0.0
O412 O 0.69648 0.54386 0.44511 0.0
O413 O 0.73183 0.64212 0.45881 0.0
C414 C 0.75078 0.48478 0.48209 0.0
C415 C 0.74754 0.59357 0.44829 0.0
Fe416 Fe 0.60728 0.77409 0.87941 0.0
O417 O 0.59077 0.70911 0.86041 0.0
Fe418 Fe 0.63232 0.60341 0.86414 0.0
Fe419 Fe 0.63096 0.72757 0.83732 0.0
O420 O 0.59204 0.70308 0.86208 0.0
O421 O 0.66835 0.62063 0.84109 0.0
O422 O 0.66944 0.62711 0.83983 0.0
Fe423 Fe 0.64155 0.55703 0.82232 0.0
C424 C 0.51551 0.84594 0.85177 0.0
O425 O 0.68718 0.83637 0.86706 0.0
O426 O 0.73793 0.77088 0.84653 0.0
O427 O 0.71016 0.48607 0.83561 0.0
O428 O 0.68295 0.50219 0.86298 0.0
O429 O 0.74494 0.63667 0.87384 0.0
O430 O 0.70367 0.72334 0.89066 0.0
O431 O 0.69139 0.71655 0.81232 0.0
O432 O 0.74173 0.60402 0.81479 0.0
C433 C 0.75638 0.67764 0.88626 0.0
O434 O 0.53872 0.51273 0.83223 0.0
O435 O 0.51985 0.56609 0.85647 0.0
O436 O 0.52001 0.82599 0.8669 0.0
O437 O 0.5653 0.82682 0.83975 0.0
C438 C 0.7409 0.82448 0.85625 0.0
C439 C 0.73537 0.6612 0.8068 0.0
C440 C 0.52783 0.6855 0.81212 0.0
O441 O 0.52301 0.6943 0.82743 0.0
O442 O 0.57155 0.63236 0.80762 0.0
C443 C 0.72203 0.47271 0.85094 0.0
O444 O 0.5845 0.59578 0.88771 0.0
O445 O 0.53138 0.70738 0.89209 0.0
C446 C 0.4976 0.52304 0.84519 0.0
C447 C 0.53707 0.64015 0.89522 0.0
Fe448 Fe 0.42131 0.52787 0.62414 0.0
O449 O 0.42978 0.44137 0.61069 0.0
Fe450 Fe 0.38351 0.44625 0.58599 0.0
Fe451 Fe 0.38772 0.34603 0.61747 0.0
O452 O 0.42824 0.44648 0.60909 0.0
O453 O 0.33967 0.35242 0.59303 0.0
O454 O 0.34039 0.34706 0.59465 0.0
Fe455 Fe 0.35593 0.27078 0.57817 0.0
C456 C 0.49533 0.40785 0.64496 0.0
O457 O 0.32601 0.49067 0.6386 0.0
O458 O 0.28052 0.38909 0.6274 0.0
O459 O 0.25944 0.31746 0.56803 0.0
O460 O 0.32172 0.4218 0.56173 0.0
O461 O 0.27994 0.49682 0.59358 0.0
O462 O 0.33968 0.5797 0.60947 0.0
O463 O 0.33464 0.24701 0.62113 0.0
O464 O 0.28466 0.21738 0.5954 0.0
C465 C 0.28034 0.55702 0.60077 0.0
O466 O 0.43301 0.33075 0.56083 0.0
O467 O 0.48851 0.4005 0.57847 0.0
O468 O 0.49888 0.47167 0.63909 0.0
O469 O 0.44626 0.35754 0.64009 0.0
C470 C 0.27312 0.44063 0.63766 0.0
C471 C 0.28438 0.21385 0.61136 0.0
C472 C 0.50495 0.2434 0.60051 0.0
O473 O 0.49513 0.29666 0.61007 0.0
O474 O 0.45497 0.22781 0.58912 0.0
C475 C 0.27414 0.36633 0.55778 0.0
O476 O 0.44969 0.54384 0.58264 0.0
O477 O 0.50733 0.56496 0.60842 0.0
C478 C 0.48243 0.38312 0.56365 0.0
C479 C 0.50545 0.57141 0.59259 0.0
Fe480 Fe 0.33015 0.54615 0.25304 0.0
O481 O 0.3246 0.46878 0.23719 0.0
Fe482 Fe 0.36818 0.48178 0.21331 0.0
Fe483 Fe 0.36693 0.37395 0.24376 0.0
O484 O 0.32414 0.47386 0.2358 0.0
O485 O 0.41944 0.38888 0.21955 0.0
O486 O 0.41661 0.38192 0.22123 0.0
Fe487 Fe 0.41557 0.30414 0.20521 0.0
C488 C 0.45999 0.43328 0.26809 0.0
O489 O 0.23204 0.48798 0.25901 0.0
O490 O 0.29994 0.39465 0.26782 0.0
O491 O 0.3195 0.33911 0.19049 0.0
O492 O 0.26491 0.4314 0.20368 0.0
O493 O 0.30362 0.576 0.2101 0.0
O494 O 0.2595 0.60119 0.2363 0.0
O495 O 0.26646 0.32425 0.23425 0.0
O496 O 0.33494 0.24684 0.21863 0.0
C497 C 0.25506 0.60656 0.22048 0.0
O498 O 0.48979 0.36778 0.19147 0.0
O499 O 0.42464 0.47687 0.19068 0.0
O500 O 0.40946 0.4853 0.27021 0.0
O501 O 0.4699 0.41584 0.25339 0.0
C502 C 0.24897 0.44794 0.27073 0.0
C503 C 0.2708 0.26673 0.22599 0.0
C504 C 0.49395 0.25512 0.23687 0.0
O505 O 0.43279 0.2764 0.24592 0.0
O506 O 0.50181 0.26706 0.22128 0.0
C507 C 0.26131 0.38311 0.19261 0.0
O508 O 0.46991 0.53971 0.22128 0.0
O509 O 0.42947 0.59666 0.24409 0.0
C510 C 0.47899 0.43152 0.18586 0.0
C511 C 0.47846 0.58846 0.23221 0.0
C512 C 0.30423 0.41666 0.49321 0.0
C513 C 0.30203 0.34287 0.49101 0.0
H514 H 0.38066 0.50863 0.4947 0.0
C515 C 0.37459 0.30373 0.49298 0.0
H516 H 0.24995 0.44818 0.491 0.0
C517 C 0.44899 0.33811 0.49636 0.0
C518 C 0.45273 0.41262 0.49707 0.0
H519 H 0.37476 0.24688 0.49063 0.0
H520 H 0.50476 0.30716 0.49627 0.0
C521 C 0.37913 0.4512 0.49583 0.0
C522 C 0.90042 0.86858 0.45298 0.0
C523 C 0.91851 0.93225 0.46125 0.0
H524 H 0.80989 0.78748 0.44874 0.0
C525 C 0.85475 0.96946 0.46908 0.0
H526 H 0.94809 0.83907 0.44681 0.0
C527 C 0.77846 0.93787 0.47119 0.0
C528 C 0.76303 0.87028 0.46464 0.0
H529 H 0.86701 1.01952 0.47535 0.0
H530 H 0.7341 0.96364 0.47904 0.0
C531 C 0.82185 0.8388 0.45431 0.0
C532 C 0.35217 0.97379 0.86217 0.0
C533 C 0.28162 0.93311 0.85881 0.0
H534 H 0.48284 0.98104 0.86091 0.0
C535 C 0.29065 0.86852 0.85021 0.0
H536 H 0.34706 1.02603 0.86776 0.0
C537 C 0.36834 0.84408 0.84569 0.0
C538 C 0.43893 0.88488 0.84901 0.0
H539 H 0.23723 0.83764 0.84669 0.0
H540 H 0.37362 0.79098 0.84057 0.0
C541 C 0.42953 0.95013 0.85732 0.0
C542 C 0.93939 0.45666 0.86542 0.0
C543 C 0.96796 0.39984 0.85578 0.0
H544 H 0.83751 0.52135 0.8721 0.0
C545 C 0.91234 0.36316 0.84564 0.0
H546 H 0.97997 0.48358 0.87403 0.0
C547 C 0.83058 0.38408 0.84462 0.0
C548 C 0.80182 0.44009 0.85445 0.0
H549 H 0.93063 0.31498 0.83951 0.0
H550 H 0.78956 0.35601 0.83631 0.0
C551 C 0.85716 0.47634 0.86482 0.0
C552 C 0.5796 0.68346 0.58752 0.0
C553 C 0.578 0.60899 0.58639 0.0
H554 H 0.65164 0.77574 0.59341 0.0
C555 C 0.65296 0.57207 0.58692 0.0
H556 H 0.52295 0.71304 0.58816 0.0
C557 C 0.72721 0.60826 0.58922 0.0
C558 C 0.72758 0.68193 0.59176 0.0
H559 H 0.65348 0.51453 0.58765 0.0
H560 H 0.78281 0.57789 0.59089 0.0
C561 C 0.65338 0.71928 0.59062 0.0
C562 C 0.05949 0.20326 0.61869 0.0
C563 C 0.05123 0.13469 0.62515 0.0
H564 H 0.14167 0.28119 0.60913 0.0
C565 C 0.12186 0.09818 0.63039 0.0
H566 H 0.00627 0.23182 0.6143 0.0
C567 C 0.1998 0.12556 0.62701 0.0
C568 C 0.20708 0.18989 0.61855 0.0
H569 H 0.11709 0.04437 0.635 0.0
H570 H 0.25342 0.09391 0.62971 0.0
C571 C 0.13689 0.23056 0.61538 0.0
C572 C 0.71017 0.21595 0.24677 0.0
C573 C 0.71321 0.14525 0.24122 0.0
H574 H 0.63332 0.30699 0.25065 0.0
C575 C 0.63971 0.10753 0.23876 0.0
H576 H 0.76596 0.24643 0.24838 0.0
C577 C 0.56445 0.14136 0.24035 0.0
C578 C 0.5613 0.21407 0.24408 0.0
H579 H 0.64074 0.05311 0.23424 0.0
H580 H 0.5095 0.11293 0.23667 0.0
C581 C 0.63428 0.25022 0.24821 0.0
C582 C 0.0846 0.7249 0.20617 0.0
C583 C 0.01787 0.68928 0.21333 0.0
H584 H 0.2151 0.72667 0.2029 0.0
C585 C 0.02861 0.62049 0.2194 0.0
H586 H 0.07792 0.77902 0.20188 0.0
C587 C 0.1064 0.59064 0.2198 0.0
C588 C 0.17472 0.62985 0.21454 0.0
H589 H 0.97852 0.59272 0.22522 0.0
H590 H 0.11439 0.53952 0.22571 0.0
C591 C 0.16317 0.6955 0.20689 0.0
C592 C 0.45284 0.84075 0.99199 0.0
C593 C 0.45738 0.91314 0.99611 0.0
H594 H 0.37582 0.75447 0.98429 0.0
C595 C 0.38431 0.94981 0.99956 0.0
H596 H 0.5078 0.81175 0.98886 0.0
C597 C 0.30787 0.91709 0.99675 0.0
C598 C 0.30415 0.84723 0.99061 0.0
H599 H 0.38612 1.0063 1.00234 0.0
H600 H 0.2527 0.94849 0.99776 0.0
C601 C 0.3771 0.80837 0.98913 0.0
C602 C 0.81158 0.40902 0.95582 0.0
C603 C 0.8033 0.34887 0.96581 0.0
H604 H 0.8948 0.48776 0.94659 0.0
C605 C 0.87387 0.31226 0.97079 0.0
H606 H 0.75797 0.43769 0.9517 0.0
C607 C 0.95147 0.33831 0.96712 0.0
C608 C 0.96054 0.40331 0.95892 0.0
H609 H 0.86896 0.26478 0.97823 0.0
H610 H 0.00422 0.31233 0.9725 0.0
C611 C 0.89 0.43641 0.95249 0.0
C612 C 0.42228 0.44725 0.36157 0.0
C613 C 0.43764 0.38824 0.35133 0.0
H614 H 0.33314 0.51461 0.37274 0.0
C615 C 0.37056 0.34993 0.34498 0.0
H616 H 0.4727 0.47621 0.3672 0.0
C617 C 0.29037 0.36942 0.34903 0.0
C618 C 0.27515 0.42739 0.35965 0.0
H619 H 0.38023 0.30228 0.33769 0.0
H620 H 0.23982 0.34066 0.34341 0.0
C621 C 0.34239 0.46648 0.36565 0.0
C622 C 0.82184 0.8831 0.34549 0.0
C623 C 0.7941 0.93839 0.3557 0.0
H624 H 0.92049 0.81266 0.33995 0.0
C625 C 0.8503 0.97199 0.36636 0.0
H626 H 0.78027 0.85685 0.33698 0.0
C627 C 0.93215 0.95055 0.36684 0.0
C628 C 0.95969 0.89454 0.35679 0.0
H629 H 0.83163 1.01627 0.37402 0.0
H630 H 0.97328 0.97556 0.37564 0.0
C631 C 0.90317 0.86038 0.34639 0.0
C632 C 0.61656 0.08943 0.0835 0.0
C633 C 0.54281 0.12454 0.08722 0.0
H634 H 0.74829 0.09364 0.08464 0.0
C635 C 0.54593 0.19689 0.09148 0.0
H636 H 0.61599 1.03299 0.08066 0.0
C637 C 0.6211 0.23082 0.09405 0.0
C638 C 0.69497 0.1937 0.09212 0.0
H639 H 0.49055 0.2247 0.09486 0.0
H640 H 0.62144 0.28468 0.09892 0.0
C641 C 0.69238 0.12378 0.08597 0.0
C642 C 0.10617 0.60013 0.12916 0.0
C643 C 0.03686 0.63724 0.12345 0.0
H644 H 0.23776 0.59518 0.12946 0.0
C645 C 0.04665 0.70567 0.11704 0.0
H646 H 0.10006 0.54639 0.13377 0.0
C647 C 0.12475 0.73277 0.11445 0.0
C648 C 0.19405 0.69173 0.11814 0.0
H649 H 0.99442 0.73458 0.1123 0.0
H650 H 0.13103 0.78351 0.10829 0.0
C651 C 0.18487 0.62716 0.12641 0.0
C652 C 0.65971 0.75466 0.74643 0.0
C653 C 0.58456 0.71759 0.7462 0.0
H654 H 0.78966 0.74961 0.74294 0.0
C655 C 0.58544 0.64361 0.74397 0.0
H656 H 0.66075 0.81227 0.74638 0.0
C657 C 0.65866 0.60881 0.74044 0.0
C658 C 0.73304 0.64638 0.74018 0.0
H659 H 0.52855 0.61427 0.74276 0.0
H660 H 0.65665 0.55302 0.73697 0.0
C661 C 0.73362 0.71908 0.74387 0.0
C662 C 0.11355 0.22619 0.70506 0.0
C663 C 0.04592 0.19066 0.71189 0.0
H664 H 0.2444 0.22752 0.70247 0.0
C665 C 0.05537 0.12147 0.7178 0.0
H666 H 0.10767 0.28052 0.70083 0.0
C667 C 0.13285 0.09119 0.7185 0.0
C668 C 0.20194 0.13042 0.71369 0.0
H669 H 0.00444 0.09381 0.72335 0.0
H670 H 0.13988 0.03984 0.72436 0.0
C671 C 0.19178 0.19641 0.70611 0.0
C672 C 0.3076 0.88484 0.49327 0.0
C673 C 0.29277 0.92341 0.47878 0.0
H674 H 0.376 0.80348 0.5052 0.0
C675 C 0.33531 0.90417 0.46447 0.0
H676 H 0.27596 0.89742 0.50456 0.0
C677 C 0.39293 0.84864 0.46487 0.0
C678 C 0.4084 0.8119 0.47958 0.0
H679 H 0.3242 0.93187 0.45304 0.0
H680 H 0.42823 0.837 0.45398 0.0
C681 C 0.36409 0.82993 0.49363 0.0
C682 C 0.95555 0.4195 0.46964 0.0
C683 C 0.95085 0.34867 0.4751 0.0
H684 H 0.89516 0.52067 0.4683 0.0
C685 C 0.88603 0.32828 0.4853 0.0
H686 H 0.00539 0.43703 0.46195 0.0
C687 C 0.82446 0.37621 0.48906 0.0
C688 C 0.82692 0.44543 0.48285 0.0
H689 H 0.88107 0.27451 0.48995 0.0
H690 H 0.77222 0.35794 0.496 0.0
C691 C 0.89369 0.46774 0.47351 0.0
C692 C 0.37702 0.3523 0.84897 0.0
C693 C 0.31807 0.37127 0.86066 0.0
H694 H 0.47908 0.38598 0.83465 0.0
C695 C 0.31334 0.44286 0.8658 0.0
H696 H 0.38159 0.29797 0.84454 0.0
C697 C 0.36799 0.49365 0.85981 0.0
C698 C 0.4293 0.47391 0.84876 0.0
H699 H 0.26745 0.45987 0.8745 0.0
H700 H 0.36341 0.54822 0.86406 0.0
C701 C 0.43204 0.40306 0.84309 0.0
C702 C 0.84346 0.88941 0.83938 0.0
C703 C 0.80358 0.87989 0.85435 0.0
H704 H 0.93024 0.95008 0.82596 0.0
C705 C 0.81839 0.92823 0.86732 0.0
H706 H 0.8317 0.85397 0.82908 0.0
C707 C 0.87378 0.98389 0.86554 0.0
C708 C 0.91593 0.99228 0.85076 0.0
H709 H 0.78784 0.9226 0.87901 0.0
H710 H 0.88569 1.01861 0.87595 0.0
C711 C 0.89872 0.9454 0.83756 0.0
C712 C 0.59738 0.15133 0.5892 0.0
C713 C 0.57375 0.19317 0.60271 0.0
H714 H 0.67384 0.06852 0.58011 0.0
C715 C 0.60863 0.17898 0.6182 0.0
H716 H 0.5713 0.16006 0.57711 0.0
C717 C 0.66756 0.12499 0.61995 0.0
C718 C 0.6919 0.0847 0.60622 0.0
H719 H 0.58976 0.20885 0.62892 0.0
H720 H 0.69652 0.11691 0.63179 0.0
C721 C 0.65524 0.09794 0.59094 0.0
C722 C 0.13265 0.57476 0.60427 0.0
C723 C 0.20904 0.60236 0.6001 0.0
H724 H 0.01075 0.59895 0.6115 0.0
C725 C 0.22023 0.67601 0.59842 0.0
H726 H 0.1238 0.51799 0.60585 0.0
C727 C 0.15631 0.72223 0.60167 0.0
C728 C 0.08118 0.69511 0.60692 0.0
H729 H 0.27949 0.69782 0.59529 0.0
H730 H 0.16671 0.77908 0.60074 0.0
C731 C 0.06895 0.62106 0.60779 0.0
C732 C 0.58378 0.65659 0.21593 0.0
C733 C 0.54416 0.64261 0.23087 0.0
H734 H 0.67523 0.71897 0.20363 0.0
C735 C 0.56184 0.6863 0.24454 0.0
H736 H 0.57001 0.6251 0.20508 0.0
C737 C 0.61939 0.7406 0.24355 0.0
C738 C 0.66124 0.75298 0.2289 0.0
H739 H 0.53213 0.6779 0.25622 0.0
H740 H 0.63425 0.77091 0.25455 0.0
C741 C 0.64205 0.71155 0.21495 0.0
C742 C 0.19232 0.1733 0.21191 0.0
C743 C 0.203 0.21719 0.22576 0.0
H744 H 0.12038 0.09163 0.20053 0.0
C745 C 0.15221 0.20982 0.23941 0.0
H746 H 0.23127 0.17834 0.20127 0.0
C747 C 0.09045 0.15884 0.23909 0.0
C748 C 0.07938 0.11641 0.22506 0.0
H749 H 0.16061 0.24284 0.25025 0.0
H750 H 0.04954 0.15436 0.24945 0.0
C751 C 0.13013 0.12348 0.21151 0.0
C752 C 0.33991 0.41428 0.99331 0.0
C753 C 0.31558 0.44199 0.97807 0.0
H754 H 0.4131 0.33959 1.00624 0.0
C755 C 0.34896 0.41299 0.96363 0.0
H756 H 0.31493 0.43491 1.00467 0.0
C757 C 0.40578 0.35701 0.96456 0.0
C758 C 0.42946 0.32974 0.97993 0.0
H759 H 0.32984 0.43232 0.95171 0.0
H760 H 0.43298 0.33678 0.95339 0.0
C761 C 0.39531 0.35878 0.99421 0.0
C762 C 0.95683 0.9209 0.96981 0.0
C763 C 0.94882 0.84815 0.97356 0.0
H764 H 0.89901 1.02324 0.96989 0.0
C765 C 0.87964 0.82417 0.98199 0.0
H766 H 0.01023 0.94099 0.96354 0.0
C767 C 0.81739 0.87123 0.98575 0.0
C768 C 0.82385 0.94285 0.9813 0.0
H769 H 0.8722 0.76867 0.98523 0.0
H770 H 0.76219 0.85102 0.99138 0.0
C771 C 0.89448 0.96821 0.97373 0.0
C772 C 0.35492 0.85711 0.34709 0.0
C773 C 0.3132 0.86445 0.36204 0.0
H774 H 0.44149 0.90201 0.33049 0.0
C775 C 0.32594 0.9262 0.37154 0.0
H776 H 0.34551 0.81067 0.33935 0.0
C777 C 0.38022 0.97872 0.36638 0.0
C778 C 0.42297 0.97129 0.35158 0.0
H779 H 0.2944 0.93387 0.38306 0.0
H780 H 0.39024 1.02436 0.37423 0.0
C781 C 0.40898 0.9101 0.34189 0.0
C782 C 0.89338 0.43855 0.33882 0.0
C783 C 0.90819 0.48899 0.3514 0.0
H784 H 0.82933 0.34407 0.33145 0.0
C785 C 0.86369 0.485 0.36597 0.0
H786 H 0.92661 0.44008 0.32737 0.0
C787 C 0.80952 0.42917 0.36838 0.0
C788 C 0.79783 0.37673 0.35616 0.0
H789 H 0.87319 0.52322 0.3758 0.0
H790 H 0.77756 0.42674 0.37997 0.0
C791 C 0.83895 0.3826 0.34123 0.0
C792 C 0.59225 0.68527 0.11823 0.0
C793 C 0.56186 0.70557 0.10273 0.0
H794 H 0.67517 0.61681 0.13145 0.0
C795 C 0.58923 0.66928 0.0887 0.0
H796 H 0.57023 0.71084 0.12929 0.0
C797 C 0.64523 0.61439 0.08999 0.0
C798 C 0.67725 0.5946 0.10531 0.0
H799 H 0.56647 0.68284 0.07659 0.0
H800 H 0.66566 0.58865 0.0788 0.0
C801 C 0.64997 0.63004 0.11952 0.0
C802 C 0.10486 0.07567 0.10595 0.0
C803 C 0.18096 0.10233 0.10134 0.0
H804 H 0.98328 0.10161 0.11302 0.0
C805 C 0.19212 0.17525 0.09858 0.0
H806 H 0.09626 1.01943 0.10833 0.0
C807 C 0.12843 0.22215 0.1013 0.0
C808 C 0.0536 0.19637 0.10704 0.0
H809 H 0.25127 0.19617 0.09507 0.0
H810 H 0.1389 0.27863 0.0996 0.0
C811 C 0.04128 0.12272 0.10891 0.0
C812 C 0.60875 0.15304 0.71484 0.0
C813 C 0.57253 0.13699 0.73001 0.0
H814 H 0.69759 0.21737 0.70225 0.0
C815 C 0.59476 0.17744 0.74393 0.0
H816 H 0.59134 0.12394 0.70384 0.0
C817 C 0.65226 0.23155 0.7429 0.0
C818 C 0.69017 0.2467 0.72796 0.0
H819 H 0.56789 0.16707 0.75581 0.0
H820 H 0.66972 0.25989 0.75402 0.0
C821 C 0.66745 0.20776 0.71383 0.0
C822 C 0.07602 0.70298 0.72542 0.0
C823 C 0.08794 0.62905 0.72637 0.0
H824 H 0.13184 0.80592 0.727 0.0
C825 C 0.16367 0.60173 0.73127 0.0
H826 H 0.01727 0.72504 0.72198 0.0
C827 C 0.22855 0.64786 0.73411 0.0
C828 C 0.21746 0.72143 0.73239 0.0
H829 H 0.17357 0.54487 0.73221 0.0
H830 H 0.28816 0.62608 0.73703 0.0
C831 C 0.14061 0.74917 0.72857 0.0
C832 C 0.30064 0.12682 0.4047 0.0
C833 C 0.30217 0.10354 0.42092 0.0
H834 H 0.37173 0.15525 0.3839 0.0
C835 C 0.37527 0.07755 0.4278 0.0
H836 H 0.24512 0.14826 0.39936 0.0
C837 C 0.44825 0.0815 0.41896 0.0
C838 C 0.4477 0.11186 0.40331 0.0
H839 H 0.37736 0.06094 0.44052 0.0
H840 H 0.50542 0.06759 0.42489 0.0
C841 C 0.37303 0.13119 0.39597 0.0
C842 C 0.86843 0.23174 0.40196 0.0
C843 C 0.82336 0.16957 0.3985 0.0
H844 H 0.96449 0.28083 0.41607 0.0
C845 C 0.84271 0.10709 0.40711 0.0
H846 H 0.85371 0.28102 0.39576 0.0
C847 C 0.9047 0.10742 0.41922 0.0
C848 C 0.94956 0.16999 0.42277 0.0
H849 H 0.80754 0.05889 0.405 0.0
H850 H 0.91746 0.05874 0.42582 0.0
C851 C 0.9314 0.23172 0.41373 0.0
C852 C 0.43537 0.20541 0.92223 0.0
C853 C 0.46774 0.13649 0.92357 0.0
H854 H 0.34106 0.2709 0.91201 0.0
C855 C 0.43358 0.08135 0.91394 0.0
H856 H 0.46001 0.24889 0.92955 0.0
C857 C 0.36589 0.09403 0.90382 0.0
C858 C 0.33035 0.16189 0.90331 0.0
H859 H 0.4573 1.02766 0.91468 0.0
H860 H 0.33873 0.04984 0.89714 0.0
C861 C 0.36684 0.21784 0.91231 0.0
C862 C 0.8506 0.0535 0.92527 0.0
C863 C 0.82863 0.10396 0.93736 0.0
H864 H 0.93181 1.02711 0.9054 0.0
C865 C 0.87883 0.16429 0.93941 0.0
H866 H 0.81395 1.00602 0.92337 0.0
C867 C 0.94554 0.17634 0.92918 0.0
C868 C 0.96525 0.12818 0.91654 0.0
H869 H 0.8647 0.20416 0.94855 0.0
H870 H 0.98023 0.22513 0.93086 0.0
C871 C 0.91855 0.0653 0.91502 0.0
C872 C 0.62226 0.97255 0.67915 0.0
C873 C 0.55255 0.93369 0.67438 0.0
H874 H 0.75091 0.98784 0.67546 0.0
C875 C 0.55396 0.89052 0.66039 0.0
H876 H 0.6219 1.00502 0.69019 0.0
C877 C 0.62707 0.87934 0.65237 0.0
C878 C 0.69931 0.91123 0.6583 0.0
H879 H 0.5006 0.8598 0.65672 0.0
H880 H 0.62787 0.84245 0.64208 0.0
C881 C 0.69594 0.9616 0.67102 0.0
C882 C 0.10887 0.8056 0.6664 0.0
C883 C 0.07423 0.86799 0.65987 0.0
H884 H 0.19907 0.75987 0.68245 0.0
C885 C 0.10399 0.93407 0.66568 0.0
H886 H 0.0873 0.7538 0.66231 0.0
C887 C 0.16665 0.93757 0.67765 0.0
C888 C 0.20277 0.87509 0.68383 0.0
H889 H 0.07784 0.98318 0.66118 0.0
H890 H 0.18829 0.98933 0.68174 0.0
C891 C 0.17292 0.8091 0.678 0.0
C892 C 0.60931 0.95244 0.18125 0.0
C893 C 0.68054 0.91662 0.17642 0.0
H894 H 0.4852 0.97694 0.17543 0.0
C895 C 0.67654 0.86616 0.16368 0.0
H896 H 0.61024 0.98989 0.19143 0.0
C897 C 0.60392 0.85805 0.15466 0.0
C898 C 0.53547 0.89965 0.15857 0.0
H899 H 0.73059 0.83726 0.15995 0.0
H900 H 0.60363 0.82462 0.14378 0.0
C901 C 0.53737 0.94411 0.17236 0.0
C902 C 0.08779 0.88092 0.16993 0.0
C903 C 0.05686 0.94663 0.17565 0.0
H904 H 0.1708 0.82678 0.15353 0.0
C905 C 0.08829 1.00909 0.16849 0.0
H906 H 0.06398 0.83154 0.17476 0.0
C907 C 0.14968 1.00643 0.15649 0.0
C908 C 0.18083 0.9411 0.15072 0.0
H909 H 0.06575 0.06075 0.17228 0.0
H910 H 0.17273 0.05614 0.15164 0.0
C911 C 0.14823 0.87816 0.15752 0.0
C912 C 0.47717 0.64896 0.92253 0.0
C913 C 0.47958 0.61369 0.90741 0.0
H914 H 0.40307 0.68317 0.9424 0.0
C915 C 0.41228 0.57234 0.90227 0.0
H916 H 0.52857 0.68097 0.92672 0.0
C917 C 0.33865 0.57535 0.91097 0.0
C918 C 0.33346 0.61914 0.92491 0.0
H919 H 0.41406 0.54413 0.89071 0.0
H920 H 0.28479 0.54899 0.90603 0.0
C921 C 0.40485 0.65116 0.93129 0.0
C922 C 0.93614 0.73605 0.91286 0.0
C923 C 0.95881 0.67281 0.92088 0.0
H924 H 0.85527 0.78664 0.89567 0.0
C925 C 0.91811 0.60929 0.91631 0.0
H926 H 0.96589 0.78599 0.91597 0.0
C927 C 0.85574 0.60945 0.90423 0.0
C928 C 0.83188 0.67328 0.89661 0.0
H929 H 0.93457 0.55945 0.92204 0.0
H930 H 0.82383 0.56025 0.90139 0.0
C931 C 0.87304 0.7364 0.9011 0.0
C932 C 0.35089 0.58185 0.40645 0.0
C933 C 0.3219 0.65157 0.40455 0.0
H934 H 0.43739 0.51352 0.41824 0.0
C935 C 0.36353 0.70781 0.41244 0.0
H936 H 0.31881 0.53738 0.40084 0.0
C937 C 0.43163 0.69434 0.42242 0.0
C938 C 0.45863 0.62415 0.42491 0.0
H939 H 0.34242 0.76214 0.41115 0.0
H940 H 0.46063 0.73862 0.42877 0.0
C941 C 0.4184 0.56822 0.41656 0.0
C942 C 0.83873 0.55312 0.42494 0.0
C943 C 0.82478 0.59829 0.43854 0.0
H944 H 0.91352 0.53008 0.40394 0.0
C945 C 0.8838 0.65075 0.4422 0.0
H946 H 0.79578 0.51105 0.42186 0.0
C947 C 0.94959 0.66296 0.43164 0.0
C948 C 0.96056 0.62092 0.41748 0.0
H949 H 0.87803 0.68387 0.45303 0.0
H950 H 0.99101 0.70666 0.43436 0.0
C951 C 0.9064 0.56383 0.41464 0.0
C952 C 0.61142 0.48417 0.17987 0.0
C953 C 0.53854 0.45354 0.17394 0.0
H954 H 0.74157 0.4903 0.17698 0.0
C955 C 0.53682 0.41845 0.1588 0.0
H956 H 0.61342 0.51012 0.19178 0.0
C957 C 0.60947 0.40521 0.15074 0.0
C958 C 0.68389 0.42752 0.15775 0.0
H959 H 0.481 0.39387 0.15424 0.0
H960 H 0.608 0.37333 0.1396 0.0
C961 C 0.6845 0.47151 0.17167 0.0
C962 C 0.16204 0.31353 0.17469 0.0
C963 C 0.18885 0.37929 0.18124 0.0
H964 H 0.07654 0.25834 0.1589 0.0
C965 C 0.14828 0.44146 0.17611 0.0
H966 H 0.19184 0.2646 0.1783 0.0
C967 C 0.08403 0.43803 0.1645 0.0
C968 C 0.05678 0.37218 0.1581 0.0
H969 H 0.16748 0.49304 0.18077 0.0
H970 H 0.05455 0.48695 0.16077 0.0
C971 C 0.09602 0.30992 0.16353 0.0
C972 C 0.6271 0.35406 0.65284 0.0
C973 C 0.55697 0.39227 0.65735 0.0
H974 H 0.75507 0.33698 0.65755 0.0
C975 C 0.55784 0.43411 0.67158 0.0
H976 H 0.62769 0.32306 0.64159 0.0
C977 C 0.63011 0.44339 0.68033 0.0
C978 C 0.70257 0.41113 0.67494 0.0
H979 H 0.50451 0.46461 0.67507 0.0
H980 H 0.63026 0.47909 0.69084 0.0
C981 C 0.69995 0.363 0.66173 0.0
C982 C 0.17376 0.50841 0.65561 0.0
C983 C 0.20264 0.44267 0.64957 0.0
H984 H 0.09136 0.56357 0.67166 0.0
C985 C 0.16771 0.38011 0.65608 0.0
H986 H 0.19877 0.55783 0.65101 0.0
C987 C 0.10718 0.38346 0.66843 0.0
C988 C 0.07824 0.44946 0.67437 0.0
H989 H 0.18852 0.32844 0.65189 0.0
H990 H 0.08175 0.3343 0.67306 0.0
C991 C 0.11208 0.51172 0.66758 0.0
C992 C 0.31929 0.29342 0.53298 0.0
C993 C 0.25827 0.33508 0.54085 0.0
H994 H 0.35029 0.1996 0.51884 0.0
C995 C 0.17773 0.31121 0.53828 0.0
H996 H 0.3829 0.30753 0.53406 0.0
C997 C 0.15974 0.24597 0.53039 0.0
C998 C 0.2205 0.20168 0.52321 0.0
H999 H 0.12825 0.33842 0.54448 0.0
H1000 H 0.09685 0.23183 0.53099 0.0
C1001 C 0.30072 0.22907 0.52437 0.0
C1002 C 0.95143 0.96547 0.54205 0.0
C1003 C 0.01923 0.96542 0.55269 0.0
H1004 H 0.88104 1.02059 0.52405 0.0
C1005 C 0.0724 1.02521 0.55163 0.0
H1006 H 0.90826 0.92234 0.54189 0.0
C1007 C 0.05461 0.08441 0.54177 0.0
C1008 C 0.98794 0.08389 0.53083 0.0
H1009 H 0.12523 1.02906 0.55971 0.0
H1010 H 0.09744 0.12757 0.54214 0.0
C1011 C 0.93414 1.02442 0.53205 0.0
C1012 C 0.20753 0.05809 0.78706 0.0
C1013 C 0.27571 1.01129 0.78746 0.0
H1014 H 0.15906 0.16186 0.79068 0.0
C1015 C 0.34585 0.03965 0.79558 0.0
H1016 H 0.15247 0.04222 0.78048 0.0
C1017 C 0.34922 0.11077 0.80144 0.0
C1018 C 0.27829 0.15374 0.80219 0.0
H1019 H 0.40033 1.00918 0.79748 0.0
H1020 H 0.40282 0.12667 0.80848 0.0
C1021 C 0.21223 0.12919 0.79254 0.0
C1022 C 0.96596 0.31279 0.8066 0.0
C1023 C 0.03886 0.27383 0.80868 0.0
H1024 H 0.90232 0.39584 0.79388 0.0
C1025 C 0.10741 0.29927 0.79996 0.0
H1026 H 0.91077 0.29546 0.81263 0.0
C1027 C 0.10289 0.35756 0.78926 0.0
C1028 C 0.02844 0.39166 0.78581 0.0
H1029 H 0.16527 0.27316 0.80048 0.0
H1030 H 0.15601 0.36949 0.78187 0.0
C1031 C 0.96121 0.37127 0.79564 0.0
C1032 C 0.83335 0.73136 0.54382 0.0
C1033 C 0.75373 0.70366 0.54205 0.0
H1034 H 0.91155 0.81331 0.55172 0.0
C1035 C 0.69235 0.74071 0.55085 0.0
H1036 H 0.88247 0.70787 0.53678 0.0
C1037 C 0.70916 0.80449 0.55981 0.0
C1038 C 0.78803 0.83508 0.56053 0.0
H1039 H 0.62939 0.72376 0.54986 0.0
H1040 H 0.65928 0.83093 0.566 0.0
C1041 C 0.84966 0.79559 0.55236 0.0
C1042 C 0.83041 0.04011 0.28308 0.0
C1043 C 0.76687 1.00536 0.27428 0.0
H1044 H 0.87204 0.13012 0.29705 0.0
C1045 C 0.69261 0.04363 0.27327 0.0
H1046 H 0.88704 1.0138 0.28568 0.0
C1047 C 0.68133 0.11027 0.28146 0.0
C1048 C 0.74426 0.14282 0.29098 0.0
H1049 H 0.64172 1.02069 0.2665 0.0
H1050 H 0.6207 0.13306 0.2815 0.0
C1051 C 0.82166 0.10956 0.28969 0.0
C1052 C 0.95124 0.80151 0.30765 0.0
C1053 C 0.02615 0.7653 0.3095 0.0
H1054 H 0.8828 0.88304 0.29538 0.0
C1055 C 0.093 0.79383 0.30076 0.0
H1056 H 0.89727 0.78154 0.3137 0.0
C1057 C 0.08489 0.85275 0.29024 0.0
C1058 C 0.00873 0.88503 0.28723 0.0
H1059 H 0.15221 0.76972 0.30119 0.0
H1060 H 0.13683 0.86715 0.28276 0.0
C1061 C 0.94306 0.86085 0.29702 0.0
C1062 C 0.30309 0.81221 1.03249 0.0
C1063 C 0.23798 0.84223 0.0416 0.0
H1064 H 0.34553 0.72671 1.01678 0.0
C1065 C 0.16172 0.8086 1.03949 0.0
H1066 H 0.36334 0.83573 1.03325 0.0
C1067 C 0.15319 0.7432 1.03114 0.0
C1068 C 0.21839 0.70999 1.02263 0.0
H1069 H 0.10999 0.82738 0.04654 0.0
H1070 H 0.09413 0.71981 1.0323 0.0
C1071 C 0.29325 0.748 1.02319 0.0
C1072 C 0.92575 0.53356 1.03115 0.0
C1073 C 0.98839 0.58548 1.02967 0.0
H1074 H 0.88376 0.43634 1.04096 0.0
C1075 C 0.05694 0.57562 1.03999 0.0
H1076 H 0.87194 0.53676 1.02334 0.0
C1077 C 0.06627 0.51423 0.04962 0.0
C1078 C 1.00366 0.46242 0.05115 0.0
H1079 H 0.10681 0.61261 1.04041 0.0
H1080 H 0.12026 0.51098 0.05738 0.0
C1081 C 0.93434 0.47273 1.04105 0.0
C1082 C 0.1984 0.61843 0.29282 0.0
C1083 C 0.26612 0.63284 0.30298 0.0
H1084 H 0.13182 0.54384 0.27807 0.0
C1085 C 0.32897 0.57996 0.3026 0.0
H1086 H 0.15067 0.65721 0.29132 0.0
C1087 C 0.31576 0.51116 0.29574 0.0
C1088 C 0.24674 0.49635 0.2859 0.0
H1089 H 0.3823 0.58695 0.31042 0.0
H1090 H 0.362 0.47092 0.29756 0.0
C1091 C 0.18636 0.55096 0.28555 0.0
C1092 C 0.69232 0.22996 0.05091 0.0
C1093 C 0.75723 0.20016 0.04171 0.0
H1094 H 0.64981 0.31577 0.06653 0.0
C1095 C 0.83274 0.23572 0.04324 0.0
H1096 H 0.63251 0.2054 0.05045 0.0
C1097 C 0.83987 0.3029 0.05084 0.0
C1098 C 0.77527 0.33504 0.05971 0.0
H1099 H 0.88405 0.21735 1.03601 0.0
H1100 H 0.89717 0.32846 0.04886 0.0
C1101 C 0.70164 0.29516 0.05986 0.0
C1102 C 0.8353 0.6099 0.78809 0.0
C1103 C 0.75581 0.63898 0.78946 0.0
H1104 H 0.90851 0.51939 0.78349 0.0
C1105 C 0.6946 0.60121 0.78043 0.0
H1106 H 0.88465 0.63382 0.79518 0.0
C1107 C 0.71005 0.53502 0.77247 0.0
C1108 C 0.78729 0.5021 0.77298 0.0
H1109 H 0.63202 0.61883 0.78062 0.0
H1110 H 0.66009 0.50838 0.76614 0.0
C1111 C 0.84914 0.54133 0.78131 0.0
C1112 C 0.56895 1.01943 1.03295 0.0
C1113 C 0.51883 0.08143 1.03175 0.0
H1114 H 0.59078 0.91522 0.04328 0.0
C1115 C 0.44661 0.07888 1.04087 0.0
H1116 H 0.6244 1.0144 1.02616 0.0
C1117 C 0.42636 1.01907 0.05066 0.0
C1118 C 0.47627 0.95686 0.05184 0.0
H1119 H 0.4045 0.12321 1.04033 0.0
H1120 H 0.37127 1.02476 0.05752 0.0
C1121 C 0.54864 0.95952 0.04273 0.0
C1122 C 0.54541 0.31742 0.30446 0.0
C1123 C 0.50266 0.25125 0.30302 0.0
H1124 H 0.56686 0.42423 0.29528 0.0
C1125 C 0.44351 0.2481 0.29054 0.0
H1126 H 0.59305 0.32379 0.31353 0.0
C1127 C 0.42767 0.30699 0.28016 0.0
C1128 C 0.47085 0.37322 0.28117 0.0
H1129 H 0.40804 0.19978 0.28884 0.0
H1130 H 0.38005 0.2982 0.27133 0.0
C1131 C 0.53032 0.37643 0.2938 0.0
C1132 C 0.57183 0.77002 0.78829 0.0
C1133 C 0.51656 0.75147 0.8009 0.0
H1134 H 0.61137 0.84658 0.77036 0.0
C1135 C 0.45439 0.80193 0.80381 0.0
H1136 H 0.62219 0.73581 0.78537 0.0
C1137 C 0.44634 0.86546 0.79442 0.0
C1138 C 0.5012 0.88371 0.78157 0.0
H1139 H 0.40969 0.79128 0.81317 0.0
H1140 H 0.39381 0.89727 0.79708 0.0
C1141 C 0.5655 0.83473 0.77935 0.0
C1142 C 0.44166 0.46254 0.5385 0.0
C1143 C 0.49747 0.44388 0.55112 0.0
H1144 H 0.4004 0.54073 0.52104 0.0
C1145 C 0.5621 0.49319 0.55367 0.0
H1146 H 0.39104 0.42835 0.53544 0.0
C1147 C 0.56885 0.55827 0.54477 0.0
C1148 C 0.51193 0.577 0.53236 0.0
H1149 H 0.60832 0.48081 0.56267 0.0
H1150 H 0.61998 0.59282 0.54753 0.0
C1151 C 0.44752 0.5279 0.52984 0.0
loop_
_geom_bond_atom_site_label_1
_geom_bond_atom_site_label_2
_geom_bond_distance
_geom_bond_site_symmetry_2
_ccdc_geom_bond_type
Fe0 O1 1.886 . S
Fe0 O4 1.715 . S
Fe0 O9 2.077 . S
Fe0 O14 1.935 . S
Fe0 O20 2.077 . S
Fe0 O29 1.935 . S
O1 Fe0 1.886 . S
O1 Fe3 1.715 . S
Fe2 O4 1.886 . S
Fe2 O5 1.715 . S
Fe2 O12 1.935 1_545 S
Fe2 O13 2.077 . S
Fe2 O19 1.935 1_545 S
Fe2 O28 2.077 . S
Fe3 O1 1.715 . S
Fe3 O6 1.886 . S
Fe3 O10 1.935 . S
Fe3 O15 2.077 . S
Fe3 O21 1.935 . S
Fe3 O25 2.077 . S
O4 Fe0 1.715 . S
O4 Fe2 1.886 . S
O5 Fe2 1.715 . S
O5 Fe7 1.886 . S
O6 Fe3 1.886 . S
O6 Fe7 1.715 . S
Fe7 O5 1.886 . S
Fe7 O6 1.715 . S
Fe7 O11 2.077 1_545 S
Fe7 O16 1.935 . S
Fe7 O18 2.077 1_545 S
Fe7 O26 1.935 . S
C8 O20 1.381 . S
C8 O21 1.421 . S
O9 Fe0 2.077 . S
O9 C22 1.381 1_455 S
O10 Fe3 1.935 . S
O10 C22 1.421 1_455 S
O11 Fe7 2.077 1_565 S
O11 C27 1.381 . S
O12 Fe2 1.935 1_565 S
O12 C27 1.421 . S
O13 Fe2 2.077 . S
O13 C17 1.381 . S
O14 Fe0 1.935 . S
O14 C17 1.421 . S
O15 Fe3 2.077 . S
O15 C23 1.381 . S
O16 Fe7 1.935 . S
O16 C23 1.421 . S
C17 O13 1.381 . S
C17 O14 1.421 . S
O18 Fe7 2.077 1_565 S
O18 C30 1.381 . S
O19 Fe2 1.935 1_565 S
O19 C30 1.421 . S
O20 Fe0 2.077 . S
O20 C8 1.381 . S
O21 Fe3 1.935 . S
O21 C8 1.421 . S
C22 O9 1.381 1_655 S
C22 O10 1.421 1_655 S
C23 O15 1.381 . S
C23 O16 1.421 . S
C24 O25 1.381 . S
C24 O26 1.421 . S
O25 Fe3 2.077 . S
O25 C24 1.381 . S
O26 Fe7 1.935 . S
O26 C24 1.421 . S
C27 O11 1.381 . S
C27 O12 1.421 . S
O28 Fe2 2.077 . S
O28 C31 1.381 . S
O29 Fe0 1.935 . S
O29 C31 1.421 . S
C30 O18 1.381 . S
C30 O19 1.421 . S
C31 O28 1.381 . S
C31 O29 1.421 . S
Fe32 O33 1.886 . S
Fe32 O36 1.715 . S
Fe32 O41 2.077 . S
Fe32 O46 1.935 . S
Fe32 O52 2.077 . S
Fe32 O61 1.935 . S
O33 Fe32 1.886 . S
O33 Fe35 1.715 . S
Fe34 O36 1.886 . S
Fe34 O37 1.715 . S
Fe34 O44 1.935 1_545 S
Fe34 O45 2.077 . S
Fe34 O51 1.935 1_545 S
Fe34 O60 2.077 . S
Fe35 O33 1.715 . S
Fe35 O38 1.886 . S
Fe35 O42 1.935 . S
Fe35 O47 2.077 . S
Fe35 O53 1.935 . S
Fe35 O57 2.077 . S
O36 Fe32 1.715 . S
O36 Fe34 1.886 . S
O37 Fe34 1.715 . S
O37 Fe39 1.886 . S
O38 Fe35 1.886 . S
O38 Fe39 1.715 . S
Fe39 O37 1.886 . S
Fe39 O38 1.715 . S
Fe39 O43 2.077 1_545 S
Fe39 O48 1.935 . S
Fe39 O50 2.077 1_545 S
Fe39 O58 1.935 . S
C40 O52 1.381 . S
C40 O53 1.421 . S
O41 Fe32 2.077 . S
O41 C54 1.381 . S
O42 Fe35 1.935 . S
O42 C54 1.421 . S
O43 Fe39 2.077 1_565 S
O43 C59 1.381 . S
O44 Fe34 1.935 1_565 S
O44 C59 1.421 . S
O45 Fe34 2.077 . S
O45 C49 1.381 . S
O46 Fe32 1.935 . S
O46 C49 1.421 . S
O47 Fe35 2.077 . S
O47 C55 1.381 . S
O48 Fe39 1.935 . S
O48 C55 1.421 . S
C49 O45 1.381 . S
C49 O46 1.421 . S
O50 Fe39 2.077 1_565 S
O50 C62 1.381 1_455 S
O51 Fe34 1.935 1_565 S
O51 C62 1.421 1_455 S
O52 Fe32 2.077 . S
O52 C40 1.381 . S
O53 Fe35 1.935 . S
O53 C40 1.421 . S
C54 O41 1.381 . S
C54 O42 1.421 . S
C55 O47 1.381 . S
C55 O48 1.421 . S
C56 O57 1.381 . S
C56 O58 1.421 . S
O57 Fe35 2.077 . S
O57 C56 1.381 . S
O58 Fe39 1.935 . S
O58 C56 1.421 . S
C59 O43 1.381 . S
C59 O44 1.421 . S
O60 Fe34 2.077 . S
O60 C63 1.381 . S
O61 Fe32 1.935 . S
O61 C63 1.421 . S
C62 O50 1.381 1_655 S
C62 O51 1.421 1_655 S
C63 O60 1.381 . S
C63 O61 1.421 . S
Fe64 O65 1.886 . S
Fe64 O68 1.715 . S
Fe64 O73 2.077 . S
Fe64 O78 1.935 1_565 S
Fe64 O84 2.077 . S
Fe64 O93 1.935 1_565 S
O65 Fe64 1.886 . S
O65 Fe67 1.715 . S
Fe66 O68 1.886 . S
Fe66 O69 1.715 . S
Fe66 O76 1.935 . S
Fe66 O77 2.077 1_565 S
Fe66 O83 1.935 . S
Fe66 O92 2.077 1_565 S
Fe67 O65 1.715 . S
Fe67 O70 1.886 . S
Fe67 O74 1.935 . S
Fe67 O79 2.077 . S
Fe67 O85 1.935 . S
Fe67 O89 2.077 . S
O68 Fe64 1.715 . S
O68 Fe66 1.886 . S
O69 Fe66 1.715 . S
O69 Fe71 1.886 . S
O70 Fe67 1.886 . S
O70 Fe71 1.715 . S
Fe71 O69 1.886 . S
Fe71 O70 1.715 . S
Fe71 O75 2.077 . S
Fe71 O80 1.935 . S
Fe71 O82 2.077 . S
Fe71 O90 1.935 . S
C72 O84 1.381 . S
C72 O85 1.421 . S
O73 Fe64 2.077 . S
O73 C86 1.381 . S
O74 Fe67 1.935 . S
O74 C86 1.421 . S
O75 Fe71 2.077 . S
O75 C91 1.381 . S
O76 Fe66 1.935 . S
O76 C91 1.421 . S
O77 Fe66 2.077 1_545 S
O77 C81 1.381 . S
O78 Fe64 1.935 1_545 S
O78 C81 1.421 . S
O79 Fe67 2.077 . S
O79 C87 1.381 . S
O80 Fe71 1.935 . S
O80 C87 1.421 . S
C81 O77 1.381 . S
C81 O78 1.421 . S
O82 Fe71 2.077 . S
O82 C94 1.381 . S
O83 Fe66 1.935 . S
O83 C94 1.421 . S
O84 Fe64 2.077 . S
O84 C72 1.381 . S
O85 Fe67 1.935 . S
O85 C72 1.421 . S
C86 O73 1.381 . S
C86 O74 1.421 . S
C87 O79 1.381 . S
C87 O80 1.421 . S
C88 O89 1.381 1_455 S
C88 O90 1.421 1_455 S
O89 Fe67 2.077 . S
O89 C88 1.381 1_655 S
O90 Fe71 1.935 . S
O90 C88 1.421 1_655 S
C91 O75 1.381 . S
C91 O76 1.421 . S
O92 Fe66 2.077 1_545 S
O92 C95 1.381 . S
O93 Fe64 1.935 1_545 S
O93 C95 1.421 . S
C94 O82 1.381 . S
C94 O83 1.421 . S
C95 O92 1.381 . S
C95 O93 1.421 . S
Fe96 O97 1.886 . S
Fe96 O100 1.715 . S
Fe96 O105 2.077 . S
Fe96 O110 1.935 1_565 S
Fe96 O116 2.077 . S
Fe96 O125 1.935 1_565 S
O97 Fe96 1.886 . S
O97 Fe99 1.715 . S
Fe98 O100 1.886 . S
Fe98 O101 1.715 . S
Fe98 O108 1.935 . S
Fe98 O109 2.077 1_565 S
Fe98 O115 1.935 . S
Fe98 O124 2.077 1_565 S
Fe99 O97 1.715 . S
Fe99 O102 1.886 . S
Fe99 O106 1.935 . S
Fe99 O111 2.077 . S
Fe99 O117 1.935 . S
Fe99 O121 2.077 . S
O100 Fe96 1.715 . S
O100 Fe98 1.886 . S
O101 Fe98 1.715 . S
O101 Fe103 1.886 . S
O102 Fe99 1.886 . S
O102 Fe103 1.715 . S
Fe103 O101 1.886 . S
Fe103 O102 1.715 . S
Fe103 O107 2.077 . S
Fe103 O112 1.935 . S
Fe103 O114 2.077 . S
Fe103 O122 1.935 . S
C104 O116 1.381 . S
C104 O117 1.421 . S
O105 Fe96 2.077 . S
O105 C118 1.381 . S
O106 Fe99 1.935 . S
O106 C118 1.421 . S
O107 Fe103 2.077 . S
O107 C123 1.381 . S
O108 Fe98 1.935 . S
O108 C123 1.421 . S
O109 Fe98 2.077 1_545 S
O109 C113 1.381 . S
O110 Fe96 1.935 1_545 S
O110 C113 1.421 . S
O111 Fe99 2.077 . S
O111 C119 1.381 . S
O112 Fe103 1.935 . S
O112 C119 1.421 . S
C113 O109 1.381 . S
C113 O110 1.421 . S
O114 Fe103 2.077 . S
O114 C126 1.381 . S
O115 Fe98 1.935 . S
O115 C126 1.421 . S
O116 Fe96 2.077 . S
O116 C104 1.381 . S
O117 Fe99 1.935 . S
O117 C104 1.421 . S
C118 O105 1.381 . S
C118 O106 1.421 . S
C119 O111 1.381 . S
C119 O112 1.421 . S
C120 O121 1.381 . S
C120 O122 1.421 . S
O121 Fe99 2.077 . S
O121 C120 1.381 . S
O122 Fe103 1.935 . S
O122 C120 1.421 . S
C123 O107 1.381 . S
C123 O108 1.421 . S
O124 Fe98 2.077 1_545 S
O124 C127 1.381 1_655 S
O125 Fe96 1.935 1_545 S
O125 C127 1.421 1_655 S
C126 O114 1.381 . S
C126 O115 1.421 . S
C127 O124 1.381 1_455 S
C127 O125 1.421 1_455 S
Fe128 O129 1.886 . S
Fe128 O132 1.715 . S
Fe128 O137 2.077 . S
Fe128 O142 1.935 . S
Fe128 O148 2.077 . S
Fe128 O157 1.935 . S
O129 Fe128 1.886 . S
O129 Fe131 1.715 . S
Fe130 O132 1.886 . S
Fe130 O133 1.715 . S
Fe130 O140 1.935 . S
Fe130 O141 2.077 . S
Fe130 O147 1.935 . S
Fe130 O156 2.077 . S
Fe131 O129 1.715 . S
Fe131 O134 1.886 . S
Fe131 O138 1.935 . S
Fe131 O143 2.077 . S
Fe131 O149 1.935 . S
Fe131 O153 2.077 . S
O132 Fe128 1.715 . S
O132 Fe130 1.886 . S
O133 Fe130 1.715 . S
O133 Fe135 1.886 . S
O134 Fe131 1.886 . S
O134 Fe135 1.715 . S
Fe135 O133 1.886 . S
Fe135 O134 1.715 . S
Fe135 O139 2.077 . S
Fe135 O144 1.935 . S
Fe135 O146 2.077 . S
Fe135 O154 1.935 . S
C136 O148 1.381 . S
C136 O149 1.421 . S
O137 Fe128 2.077 . S
O137 C150 1.381 1_455 S
O138 Fe131 1.935 . S
O138 C150 1.421 1_455 S
O139 Fe135 2.077 . S
O139 C155 1.381 . S
O140 Fe130 1.935 . S
O140 C155 1.421 . S
O141 Fe130 2.077 . S
O141 C145 1.381 . S
O142 Fe128 1.935 . S
O142 C145 1.421 . S
O143 Fe131 2.077 . S
O143 C151 1.381 . S
O144 Fe135 1.935 . S
O144 C151 1.421 . S
C145 O141 1.381 . S
C145 O142 1.421 . S
O146 Fe135 2.077 . S
O146 C158 1.381 . S
O147 Fe130 1.935 . S
O147 C158 1.421 . S
O148 Fe128 2.077 . S
O148 C136 1.381 . S
O149 Fe131 1.935 . S
O149 C136 1.421 . S
C150 O137 1.381 1_655 S
C150 O138 1.421 1_655 S
C151 O143 1.381 . S
C151 O144 1.421 . S
C152 O153 1.381 . S
C152 O154 1.421 . S
O153 Fe131 2.077 . S
O153 C152 1.381 . S
O154 Fe135 1.935 . S
O154 C152 1.421 . S
C155 O139 1.381 . S
C155 O140 1.421 . S
O156 Fe130 2.077 . S
O156 C159 1.381 . S
O157 Fe128 1.935 . S
O157 C159 1.421 . S
C158 O146 1.381 . S
C158 O147 1.421 . S
C159 O156 1.381 . S
C159 O157 1.421 . S
Fe160 O161 1.886 . S
Fe160 O164 1.715 . S
Fe160 O169 2.077 . S
Fe160 O174 1.935 . S
Fe160 O180 2.077 . S
Fe160 O189 1.935 . S
O161 Fe160 1.886 . S
O161 Fe163 1.715 . S
Fe162 O164 1.886 . S
Fe162 O165 1.715 . S
Fe162 O172 1.935 . S
Fe162 O173 2.077 . S
Fe162 O179 1.935 . S
Fe162 O188 2.077 . S
Fe163 O161 1.715 . S
Fe163 O166 1.886 . S
Fe163 O170 1.935 . S
Fe163 O175 2.077 . S
Fe163 O181 1.935 . S
Fe163 O185 2.077 . S
O164 Fe160 1.715 . S
O164 Fe162 1.886 . S
O165 Fe162 1.715 . S
O165 Fe167 1.886 . S
O166 Fe163 1.886 . S
O166 Fe167 1.715 . S
Fe167 O165 1.886 . S
Fe167 O166 1.715 . S
Fe167 O171 2.077 . S
Fe167 O176 1.935 . S
Fe167 O178 2.077 . S
Fe167 O186 1.935 . S
C168 O180 1.381 . S
C168 O181 1.421 . S
O169 Fe160 2.077 . S
O169 C182 1.381 . S
O170 Fe163 1.935 . S
O170 C182 1.421 . S
O171 Fe167 2.077 . S
O171 C187 1.381 . S
O172 Fe162 1.935 . S
O172 C187 1.421 . S
O173 Fe162 2.077 . S
O173 C177 1.381 . S
O174 Fe160 1.935 . S
O174 C177 1.421 . S
O175 Fe163 2.077 . S
O175 C183 1.381 . S
O176 Fe167 1.935 . S
O176 C183 1.421 . S
C177 O173 1.381 . S
C177 O174 1.421 . S
O178 Fe167 2.077 . S
O178 C190 1.381 1_455 S
O179 Fe162 1.935 . S
O179 C190 1.421 1_455 S
O180 Fe160 2.077 . S
O180 C168 1.381 . S
O181 Fe163 1.935 . S
O181 C168 1.421 . S
C182 O169 1.381 . S
C182 O170 1.421 . S
C183 O175 1.381 . S
C183 O176 1.421 . S
C184 O185 1.381 . S
C184 O186 1.421 . S
O185 Fe163 2.077 . S
O185 C184 1.381 . S
O186 Fe167 1.935 . S
O186 C184 1.421 . S
C187 O171 1.381 . S
C187 O172 1.421 . S
O188 Fe162 2.077 . S
O188 C191 1.381 . S
O189 Fe160 1.935 . S
O189 C191 1.421 . S
C190 O178 1.381 1_655 S
C190 O179 1.421 1_655 S
C191 O188 1.381 . S
C191 O189 1.421 . S
Fe192 O193 1.886 . S
Fe192 O196 1.715 . S
Fe192 O201 2.077 . S
Fe192 O206 1.935 . S
Fe192 O212 2.077 . S
Fe192 O221 1.935 . S
O193 Fe192 1.886 . S
O193 Fe195 1.715 . S
Fe194 O196 1.886 . S
Fe194 O197 1.715 . S
Fe194 O204 1.935 . S
Fe194 O205 2.077 . S
Fe194 O211 1.935 . S
Fe194 O220 2.077 . S
Fe195 O193 1.715 . S
Fe195 O198 1.886 . S
Fe195 O202 1.935 . S
Fe195 O207 2.077 . S
Fe195 O213 1.935 . S
Fe195 O217 2.077 . S
O196 Fe192 1.715 . S
O196 Fe194 1.886 . S
O197 Fe194 1.715 . S
O197 Fe199 1.886 . S
O198 Fe195 1.886 . S
O198 Fe199 1.715 . S
Fe199 O197 1.886 . S
Fe199 O198 1.715 . S
Fe199 O203 2.077 . S
Fe199 O208 1.935 . S
Fe199 O210 2.077 . S
Fe199 O218 1.935 . S
C200 O212 1.381 . S
C200 O213 1.421 . S
O201 Fe192 2.077 . S
O201 C214 1.381 . S
O202 Fe195 1.935 . S
O202 C214 1.421 . S
O203 Fe199 2.077 . S
O203 C219 1.381 . S
O204 Fe194 1.935 . S
O204 C219 1.421 . S
O205 Fe194 2.077 . S
O205 C209 1.381 . S
O206 Fe192 1.935 . S
O206 C209 1.421 . S
O207 Fe195 2.077 . S
O207 C215 1.381 . S
O208 Fe199 1.935 . S
O208 C215 1.421 . S
C209 O205 1.381 . S
C209 O206 1.421 . S
O210 Fe199 2.077 . S
O210 C222 1.381 . S
O211 Fe194 1.935 . S
O211 C222 1.421 . S
O212 Fe192 2.077 . S
O212 C200 1.381 . S
O213 Fe195 1.935 . S
O213 C200 1.421 . S
C214 O201 1.381 . S
C214 O202 1.421 . S
C215 O207 1.381 . S
C215 O208 1.421 . S
C216 O217 1.381 1_455 S
C216 O218 1.421 1_455 S
O217 Fe195 2.077 . S
O217 C216 1.381 1_655 S
O218 Fe199 1.935 . S
O218 C216 1.421 1_655 S
C219 O203 1.381 . S
C219 O204 1.421 . S
O220 Fe194 2.077 . S
O220 C223 1.381 . S
O221 Fe192 1.935 . S
O221 C223 1.421 . S
C222 O210 1.381 . S
C222 O211 1.421 . S
C223 O220 1.381 . S
C223 O221 1.421 . S
Fe224 O225 1.886 . S
Fe224 O228 1.715 . S
Fe224 O233 2.077 . S
Fe224 O238 1.935 . S
Fe224 O244 2.077 . S
Fe224 O253 1.935 . S
O225 Fe224 1.886 . S
O225 Fe227 1.715 . S
Fe226 O228 1.886 . S
Fe226 O229 1.715 . S
Fe226 O236 1.935 . S
Fe226 O237 2.077 . S
Fe226 O243 1.935 . S
Fe226 O252 2.077 . S
Fe227 O225 1.715 . S
Fe227 O230 1.886 . S
Fe227 O234 1.935 . S
Fe227 O239 2.077 . S
Fe227 O245 1.935 . S
Fe227 O249 2.077 . S
O228 Fe224 1.715 . S
O228 Fe226 1.886 . S
O229 Fe226 1.715 . S
O229 Fe231 1.886 . S
O230 Fe227 1.886 . S
O230 Fe231 1.715 . S
Fe231 O229 1.886 . S
Fe231 O230 1.715 . S
Fe231 O235 2.077 . S
Fe231 O240 1.935 . S
Fe231 O242 2.077 . S
Fe231 O250 1.935 . S
C232 O244 1.381 . S
C232 O245 1.421 . S
O233 Fe224 2.077 . S
O233 C246 1.381 . S
O234 Fe227 1.935 . S
O234 C246 1.421 . S
O235 Fe231 2.077 . S
O235 C251 1.381 . S
O236 Fe226 1.935 . S
O236 C251 1.421 . S
O237 Fe226 2.077 . S
O237 C241 1.381 . S
O238 Fe224 1.935 . S
O238 C241 1.421 . S
O239 Fe227 2.077 . S
O239 C247 1.381 . S
O240 Fe231 1.935 . S
O240 C247 1.421 . S
C241 O237 1.381 . S
C241 O238 1.421 . S
O242 Fe231 2.077 . S
O242 C254 1.381 . S
O243 Fe226 1.935 . S
O243 C254 1.421 . S
O244 Fe224 2.077 . S
O244 C232 1.381 . S
O245 Fe227 1.935 . S
O245 C232 1.421 . S
C246 O233 1.381 . S
C246 O234 1.421 . S
C247 O239 1.381 . S
C247 O240 1.421 . S
C248 O249 1.381 . S
C248 O250 1.421 . S
O249 Fe227 2.077 . S
O249 C248 1.381 . S
O250 Fe231 1.935 . S
O250 C248 1.421 . S
C251 O235 1.381 . S
C251 O236 1.421 . S
O252 Fe226 2.077 . S
O252 C255 1.381 1_655 S
O253 Fe224 1.935 . S
O253 C255 1.421 1_655 S
C254 O242 1.381 . S
C254 O243 1.421 . S
C255 O252 1.381 1_455 S
C255 O253 1.421 1_455 S
Fe256 O257 1.886 . S
Fe256 O260 1.715 . S
Fe256 O265 2.077 . S
Fe256 O270 1.935 . S
Fe256 O276 2.077 . S
Fe256 O285 1.935 . S
O257 Fe256 1.886 . S
O257 Fe259 1.715 . S
Fe258 O260 1.886 . S
Fe258 O261 1.715 . S
Fe258 O268 1.935 1_545 S
Fe258 O269 2.077 . S
Fe258 O275 1.935 1_545 S
Fe258 O284 2.077 . S
Fe259 O257 1.715 . S
Fe259 O262 1.886 . S
Fe259 O266 1.935 . S
Fe259 O271 2.077 . S
Fe259 O277 1.935 . S
Fe259 O281 2.077 . S
O260 Fe256 1.715 . S
O260 Fe258 1.886 . S
O261 Fe258 1.715 . S
O261 Fe263 1.886 . S
O262 Fe259 1.886 . S
O262 Fe263 1.715 . S
Fe263 O261 1.886 . S
Fe263 O262 1.715 . S
Fe263 O267 2.077 1_545 S
Fe263 O272 1.935 . S
Fe263 O274 2.077 1_545 S
Fe263 O282 1.935 . S
C264 O276 1.381 . S
C264 O277 1.421 . S
O265 Fe256 2.077 . S
O265 C278 1.381 . S
O266 Fe259 1.935 . S
O266 C278 1.421 . S
O267 Fe263 2.077 1_565 S
O267 C283 1.381 . S
O268 Fe258 1.935 1_565 S
O268 C283 1.421 . S
O269 Fe258 2.077 . S
O269 C273 1.381 . S
O270 Fe256 1.935 . S
O270 C273 1.421 . S
O271 Fe259 2.077 . S
O271 C279 1.381 . S
O272 Fe263 1.935 . S
O272 C279 1.421 . S
C273 O269 1.381 . S
C273 O270 1.421 . S
O274 Fe263 2.077 1_565 S
O274 C286 1.381 . S
O275 Fe258 1.935 1_565 S
O275 C286 1.421 . S
O276 Fe256 2.077 . S
O276 C264 1.381 . S
O277 Fe259 1.935 . S
O277 C264 1.421 . S
C278 O265 1.381 . S
C278 O266 1.421 . S
C279 O271 1.381 . S
C279 O272 1.421 . S
C280 O281 1.381 . S
C280 O282 1.421 . S
O281 Fe259 2.077 . S
O281 C280 1.381 . S
O282 Fe263 1.935 . S
O282 C280 1.421 . S
C283 O267 1.381 . S
C283 O268 1.421 . S
O284 Fe258 2.077 . S
O284 C287 1.381 . S
O285 Fe256 1.935 . S
O285 C287 1.421 . S
C286 O274 1.381 . S
C286 O275 1.421 . S
C287 O284 1.381 . S
C287 O285 1.421 . S
Fe288 O289 1.886 . S
Fe288 O292 1.715 . S
Fe288 O297 2.077 . S
Fe288 O302 1.935 . S
Fe288 O308 2.077 . S
Fe288 O317 1.935 . S
O289 Fe288 1.886 . S
O289 Fe291 1.715 . S
Fe290 O292 1.886 . S
Fe290 O293 1.715 . S
Fe290 O300 1.935 1_545 S
Fe290 O301 2.077 . S
Fe290 O307 1.935 1_545 S
Fe290 O316 2.077 . S
Fe291 O289 1.715 . S
Fe291 O294 1.886 . S
Fe291 O298 1.935 . S
Fe291 O303 2.077 . S
Fe291 O309 1.935 . S
Fe291 O313 2.077 . S
O292 Fe288 1.715 . S
O292 Fe290 1.886 . S
O293 Fe290 1.715 . S
O293 Fe295 1.886 . S
O294 Fe291 1.886 . S
O294 Fe295 1.715 . S
Fe295 O293 1.886 . S
Fe295 O294 1.715 . S
Fe295 O299 2.077 1_545 S
Fe295 O304 1.935 . S
Fe295 O306 2.077 1_545 S
Fe295 O314 1.935 . S
C296 O308 1.381 . S
C296 O309 1.421 . S
O297 Fe288 2.077 . S
O297 C310 1.381 . S
O298 Fe291 1.935 . S
O298 C310 1.421 . S
O299 Fe295 2.077 1_565 S
O299 C315 1.381 . S
O300 Fe290 1.935 1_565 S
O300 C315 1.421 . S
O301 Fe290 2.077 . S
O301 C305 1.381 . S
O302 Fe288 1.935 . S
O302 C305 1.421 . S
O303 Fe291 2.077 . S
O303 C311 1.381 . S
O304 Fe295 1.935 . S
O304 C311 1.421 . S
C305 O301 1.381 . S
C305 O302 1.421 . S
O306 Fe295 2.077 1_565 S
O306 C318 1.381 . S
O307 Fe290 1.935 1_565 S
O307 C318 1.421 . S
O308 Fe288 2.077 . S
O308 C296 1.381 . S
O309 Fe291 1.935 . S
O309 C296 1.421 . S
C310 O297 1.381 . S
C310 O298 1.421 . S
C311 O303 1.381 . S
C311 O304 1.421 . S
C312 O313 1.381 . S
C312 O314 1.421 . S
O313 Fe291 2.077 . S
O313 C312 1.381 . S
O314 Fe295 1.935 . S
O314 C312 1.421 . S
C315 O299 1.381 . S
C315 O300 1.421 . S
O316 Fe290 2.077 . S
O316 C319 1.381 . S
O317 Fe288 1.935 . S
O317 C319 1.421 . S
C318 O306 1.381 . S
C318 O307 1.421 . S
C319 O316 1.381 . S
C319 O317 1.421 . S
Fe320 O321 1.886 . S
Fe320 O324 1.715 . S
Fe320 O329 2.077 . S
Fe320 O334 1.935 1_565 S
Fe320 O340 2.077 . S
Fe320 O349 1.935 1_565 S
O321 Fe320 1.886 . S
O321 Fe323 1.715 . S
Fe322 O324 1.886 . S
Fe322 O325 1.715 . S
Fe322 O332 1.935 . S
Fe322 O333 2.077 1_565 S
Fe322 O339 1.935 . S
Fe322 O348 2.077 1_565 S
Fe323 O321 1.715 . S
Fe323 O326 1.886 . S
Fe323 O330 1.935 . S
Fe323 O335 2.077 . S
Fe323 O341 1.935 . S
Fe323 O345 2.077 . S
O324 Fe320 1.715 . S
O324 Fe322 1.886 . S
O325 Fe322 1.715 . S
O325 Fe327 1.886 . S
O326 Fe323 1.886 . S
O326 Fe327 1.715 . S
Fe327 O325 1.886 . S
Fe327 O326 1.715 . S
Fe327 O331 2.077 . S
Fe327 O336 1.935 . S
Fe327 O338 2.077 . S
Fe327 O346 1.935 . S
C328 O340 1.381 . S
C328 O341 1.421 . S
O329 Fe320 2.077 . S
O329 C342 1.381 . S
O330 Fe323 1.935 . S
O330 C342 1.421 . S
O331 Fe327 2.077 . S
O331 C347 1.381 . S
O332 Fe322 1.935 . S
O332 C347 1.421 . S
O333 Fe322 2.077 1_545 S
O333 C337 1.381 . S
O334 Fe320 1.935 1_545 S
O334 C337 1.421 . S
O335 Fe323 2.077 . S
O335 C343 1.381 . S
O336 Fe327 1.935 . S
O336 C343 1.421 . S
C337 O333 1.381 . S
C337 O334 1.421 . S
O338 Fe327 2.077 . S
O338 C350 1.381 . S
O339 Fe322 1.935 . S
O339 C350 1.421 . S
O340 Fe320 2.077 . S
O340 C328 1.381 . S
O341 Fe323 1.935 . S
O341 C328 1.421 . S
C342 O329 1.381 . S
C342 O330 1.421 . S
C343 O335 1.381 . S
C343 O336 1.421 . S
C344 O345 1.381 . S
C344 O346 1.421 . S
O345 Fe323 2.077 . S
O345 C344 1.381 . S
O346 Fe327 1.935 . S
O346 C344 1.421 . S
C347 O331 1.381 . S
C347 O332 1.421 . S
O348 Fe322 2.077 1_545 S
O348 C351 1.381 . S
O349 Fe320 1.935 1_545 S
O349 C351 1.421 . S
C350 O338 1.381 . S
C350 O339 1.421 . S
C351 O348 1.381 . S
C351 O349 1.421 . S
Fe352 O353 1.886 . S
Fe352 O356 1.715 . S
Fe352 O361 2.077 . S
Fe352 O366 1.935 1_565 S
Fe352 O372 2.077 . S
Fe352 O381 1.935 1_565 S
O353 Fe352 1.886 . S
O353 Fe355 1.715 . S
Fe354 O356 1.886 . S
Fe354 O357 1.715 . S
Fe354 O364 1.935 . S
Fe354 O365 2.077 1_565 S
Fe354 O371 1.935 . S
Fe354 O380 2.077 1_565 S
Fe355 O353 1.715 . S
Fe355 O358 1.886 . S
Fe355 O362 1.935 . S
Fe355 O367 2.077 . S
Fe355 O373 1.935 . S
Fe355 O377 2.077 . S
O356 Fe352 1.715 . S
O356 Fe354 1.886 . S
O357 Fe354 1.715 . S
O357 Fe359 1.886 . S
O358 Fe355 1.886 . S
O358 Fe359 1.715 . S
Fe359 O357 1.886 . S
Fe359 O358 1.715 . S
Fe359 O363 2.077 . S
Fe359 O368 1.935 . S
Fe359 O370 2.077 . S
Fe359 O378 1.935 . S
C360 O372 1.381 . S
C360 O373 1.421 . S
O361 Fe352 2.077 . S
O361 C374 1.381 . S
O362 Fe355 1.935 . S
O362 C374 1.421 . S
O363 Fe359 2.077 . S
O363 C379 1.381 . S
O364 Fe354 1.935 . S
O364 C379 1.421 . S
O365 Fe354 2.077 1_545 S
O365 C369 1.381 . S
O366 Fe352 1.935 1_545 S
O366 C369 1.421 . S
O367 Fe355 2.077 . S
O367 C375 1.381 . S
O368 Fe359 1.935 . S
O368 C375 1.421 . S
C369 O365 1.381 . S
C369 O366 1.421 . S
O370 Fe359 2.077 . S
O370 C382 1.381 . S
O371 Fe354 1.935 . S
O371 C382 1.421 . S
O372 Fe352 2.077 . S
O372 C360 1.381 . S
O373 Fe355 1.935 . S
O373 C360 1.421 . S
C374 O361 1.381 . S
C374 O362 1.421 . S
C375 O367 1.381 . S
C375 O368 1.421 . S
C376 O377 1.381 . S
C376 O378 1.421 . S
O377 Fe355 2.077 . S
O377 C376 1.381 . S
O378 Fe359 1.935 . S
O378 C376 1.421 . S
C379 O363 1.381 . S
C379 O364 1.421 . S
O380 Fe354 2.077 1_545 S
O380 C383 1.381 . S
O381 Fe352 1.935 1_545 S
O381 C383 1.421 . S
C382 O370 1.381 . S
C382 O371 1.421 . S
C383 O380 1.381 . S
C383 O381 1.421 . S
Fe384 O385 1.886 . S
Fe384 O388 1.715 . S
Fe384 O393 2.077 . S
Fe384 O398 1.935 . S
Fe384 O404 2.077 . S
Fe384 O413 1.935 . S
O385 Fe384 1.886 . S
O385 Fe387 1.715 . S
Fe386 O388 1.886 . S
Fe386 O389 1.715 . S
Fe386 O396 1.935 . S
Fe386 O397 2.077 . S
Fe386 O403 1.935 . S
Fe386 O412 2.077 . S
Fe387 O385 1.715 . S
Fe387 O390 1.886 . S
Fe387 O394 1.935 . S
Fe387 O399 2.077 . S
Fe387 O405 1.935 . S
Fe387 O409 2.077 . S
O388 Fe384 1.715 . S
O388 Fe386 1.886 . S
O389 Fe386 1.715 . S
O389 Fe391 1.886 . S
O390 Fe387 1.886 . S
O390 Fe391 1.715 . S
Fe391 O389 1.886 . S
Fe391 O390 1.715 . S
Fe391 O395 2.077 . S
Fe391 O400 1.935 . S
Fe391 O402 2.077 . S
Fe391 O410 1.935 . S
C392 O404 1.381 . S
C392 O405 1.421 . S
O393 Fe384 2.077 . S
O393 C406 1.381 . S
O394 Fe387 1.935 . S
O394 C406 1.421 . S
O395 Fe391 2.077 . S
O395 C411 1.381 . S
O396 Fe386 1.935 . S
O396 C411 1.421 . S
O397 Fe386 2.077 . S
O397 C401 1.381 . S
O398 Fe384 1.935 . S
O398 C401 1.421 . S
O399 Fe387 2.077 . S
O399 C407 1.381 . S
O400 Fe391 1.935 . S
O400 C407 1.421 . S
C401 O397 1.381 . S
C401 O398 1.421 . S
O402 Fe391 2.077 . S
O402 C414 1.381 . S
O403 Fe386 1.935 . S
O403 C414 1.421 . S
O404 Fe384 2.077 . S
O404 C392 1.381 . S
O405 Fe387 1.935 . S
O405 C392 1.421 . S
C406 O393 1.381 . S
C406 O394 1.421 . S
C407 O399 1.381 . S
C407 O400 1.421 . S
C408 O409 1.381 . S
C408 O410 1.421 . S
O409 Fe387 2.077 . S
O409 C408 1.381 . S
O410 Fe391 1.935 . S
O410 C408 1.421 . S
C411 O395 1.381 . S
C411 O396 1.421 . S
O412 Fe386 2.077 . S
O412 C415 1.381 . S
O413 Fe384 1.935 . S
O413 C415 1.421 . S
C414 O402 1.381 . S
C414 O403 1.421 . S
C415 O412 1.381 . S
C415 O413 1.421 . S
Fe416 O417 1.886 . S
Fe416 O420 1.715 . S
Fe416 O425 2.077 . S
Fe416 O430 1.935 . S
Fe416 O436 2.077 . S
Fe416 O445 1.935 . S
O417 Fe416 1.886 . S
O417 Fe419 1.715 . S
Fe418 O420 1.886 . S
Fe418 O421 1.715 . S
Fe418 O428 1.935 . S
Fe418 O429 2.077 . S
Fe418 O435 1.935 . S
Fe418 O444 2.077 . S
Fe419 O417 1.715 . S
Fe419 O422 1.886 . S
Fe419 O426 1.935 . S
Fe419 O431 2.077 . S
Fe419 O437 1.935 . S
Fe419 O441 2.077 . S
O420 Fe416 1.715 . S
O420 Fe418 1.886 . S
O421 Fe418 1.715 . S
O421 Fe423 1.886 . S
O422 Fe419 1.886 . S
O422 Fe423 1.715 . S
Fe423 O421 1.886 . S
Fe423 O422 1.715 . S
Fe423 O427 2.077 . S
Fe423 O432 1.935 . S
Fe423 O434 2.077 . S
Fe423 O442 1.935 . S
C424 O436 1.381 . S
C424 O437 1.421 . S
O425 Fe416 2.077 . S
O425 C438 1.381 . S
O426 Fe419 1.935 . S
O426 C438 1.421 . S
O427 Fe423 2.077 . S
O427 C443 1.381 . S
O428 Fe418 1.935 . S
O428 C443 1.421 . S
O429 Fe418 2.077 . S
O429 C433 1.381 . S
O430 Fe416 1.935 . S
O430 C433 1.421 . S
O431 Fe419 2.077 . S
O431 C439 1.381 . S
O432 Fe423 1.935 . S
O432 C439 1.421 . S
C433 O429 1.381 . S
C433 O430 1.421 . S
O434 Fe423 2.077 . S
O434 C446 1.381 . S
O435 Fe418 1.935 . S
O435 C446 1.421 . S
O436 Fe416 2.077 . S
O436 C424 1.381 . S
O437 Fe419 1.935 . S
O437 C424 1.421 . S
C438 O425 1.381 . S
C438 O426 1.421 . S
C439 O431 1.381 . S
C439 O432 1.421 . S
C440 O441 1.381 . S
C440 O442 1.421 . S
O441 Fe419 2.077 . S
O441 C440 1.381 . S
O442 Fe423 1.935 . S
O442 C440 1.421 . S
C443 O427 1.381 . S
C443 O428 1.421 . S
O444 Fe418 2.077 . S
O444 C447 1.381 . S
O445 Fe416 1.935 . S
O445 C447 1.421 . S
C446 O434 1.381 . S
C446 O435 1.421 . S
C447 O444 1.381 . S
C447 O445 1.421 . S
Fe448 O449 1.886 . S
Fe448 O452 1.715 . S
Fe448 O457 2.077 . S
Fe448 O462 1.935 . S
Fe448 O468 2.077 . S
Fe448 O477 1.935 . S
O449 Fe448 1.886 . S
O449 Fe451 1.715 . S
Fe450 O452 1.886 . S
Fe450 O453 1.715 . S
Fe450 O460 1.935 . S
Fe450 O461 2.077 . S
Fe450 O467 1.935 . S
Fe450 O476 2.077 . S
Fe451 O449 1.715 . S
Fe451 O454 1.886 . S
Fe451 O458 1.935 . S
Fe451 O463 2.077 . S
Fe451 O469 1.935 . S
Fe451 O473 2.077 . S
O452 Fe448 1.715 . S
O452 Fe450 1.886 . S
O453 Fe450 1.715 . S
O453 Fe455 1.886 . S
O454 Fe451 1.886 . S
O454 Fe455 1.715 . S
Fe455 O453 1.886 . S
Fe455 O454 1.715 . S
Fe455 O459 2.077 . S
Fe455 O464 1.935 . S
Fe455 O466 2.077 . S
Fe455 O474 1.935 . S
C456 O468 1.381 . S
C456 O469 1.421 . S
O457 Fe448 2.077 . S
O457 C470 1.381 . S
O458 Fe451 1.935 . S
O458 C470 1.421 . S
O459 Fe455 2.077 . S
O459 C475 1.381 . S
O460 Fe450 1.935 . S
O460 C475 1.421 . S
O461 Fe450 2.077 . S
O461 C465 1.381 . S
O462 Fe448 1.935 . S
O462 C465 1.421 . S
O463 Fe451 2.077 . S
O463 C471 1.381 . S
O464 Fe455 1.935 . S
O464 C471 1.421 . S
C465 O461 1.381 . S
C465 O462 1.421 . S
O466 Fe455 2.077 . S
O466 C478 1.381 . S
O467 Fe450 1.935 . S
O467 C478 1.421 . S
O468 Fe448 2.077 . S
O468 C456 1.381 . S
O469 Fe451 1.935 . S
O469 C456 1.421 . S
C470 O457 1.381 . S
C470 O458 1.421 . S
C471 O463 1.381 . S
C471 O464 1.421 . S
C472 O473 1.381 . S
C472 O474 1.421 . S
O473 Fe451 2.077 . S
O473 C472 1.381 . S
O474 Fe455 1.935 . S
O474 C472 1.421 . S
C475 O459 1.381 . S
C475 O460 1.421 . S
O476 Fe450 2.077 . S
O476 C479 1.381 . S
O477 Fe448 1.935 . S
O477 C479 1.421 . S
C478 O466 1.381 . S
C478 O467 1.421 . S
C479 O476 1.381 . S
C479 O477 1.421 . S
Fe480 O481 1.886 . S
Fe480 O484 1.715 . S
Fe480 O489 2.077 . S
Fe480 O494 1.935 . S
Fe480 O500 2.077 . S
Fe480 O509 1.935 . S
O481 Fe480 1.886 . S
O481 Fe483 1.715 . S
Fe482 O484 1.886 . S
Fe482 O485 1.715 . S
Fe482 O492 1.935 . S
Fe482 O493 2.077 . S
Fe482 O499 1.935 . S
Fe482 O508 2.077 . S
Fe483 O481 1.715 . S
Fe483 O486 1.886 . S
Fe483 O490 1.935 . S
Fe483 O495 2.077 . S
Fe483 O501 1.935 . S
Fe483 O505 2.077 . S
O484 Fe480 1.715 . S
O484 Fe482 1.886 . S
O485 Fe482 1.715 . S
O485 Fe487 1.886 . S
O486 Fe483 1.886 . S
O486 Fe487 1.715 . S
Fe487 O485 1.886 . S
Fe487 O486 1.715 . S
Fe487 O491 2.077 . S
Fe487 O496 1.935 . S
Fe487 O498 2.077 . S
Fe487 O506 1.935 . S
C488 O500 1.381 . S
C488 O501 1.421 . S
O489 Fe480 2.077 . S
O489 C502 1.381 . S
O490 Fe483 1.935 . S
O490 C502 1.421 . S
O491 Fe487 2.077 . S
O491 C507 1.381 . S
O492 Fe482 1.935 . S
O492 C507 1.421 . S
O493 Fe482 2.077 . S
O493 C497 1.381 . S
O494 Fe480 1.935 . S
O494 C497 1.421 . S
O495 Fe483 2.077 . S
O495 C503 1.381 . S
O496 Fe487 1.935 . S
O496 C503 1.421 . S
C497 O493 1.381 . S
C497 O494 1.421 . S
O498 Fe487 2.077 . S
O498 C510 1.381 . S
O499 Fe482 1.935 . S
O499 C510 1.421 . S
O500 Fe480 2.077 . S
O500 C488 1.381 . S
O501 Fe483 1.935 . S
O501 C488 1.421 . S
C502 O489 1.381 . S
C502 O490 1.421 . S
C503 O495 1.381 . S
C503 O496 1.421 . S
C504 O505 1.381 . S
C504 O506 1.421 . S
O505 Fe483 2.077 . S
O505 C504 1.381 . S
O506 Fe487 1.935 . S
O506 C504 1.421 . S
C507 O491 1.381 . S
C507 O492 1.421 . S
O508 Fe482 2.077 . S
O508 C511 1.381 . S
O509 Fe480 1.935 . S
O509 C511 1.421 . S
C510 O498 1.381 . S
C510 O499 1.421 . S
C511 O508 1.381 . S
C511 O509 1.421 . S
C512 C513 1.387 . S
C512 H516 0.950 . S
C512 C521 1.390 . S
C513 C512 1.387 . S
C513 C515 1.387 . S
H514 C521 0.950 . S
C515 C513 1.387 . S
C515 C517 1.390 . S
C515 H519 0.950 . S
H516 C512 0.950 . S
C517 C515 1.390 . S
C517 C518 1.387 . S
C517 H520 0.950 . S
C518 C517 1.387 . S
C518 C521 1.387 . S
H519 C515 0.950 . S
H520 C517 0.950 . S
C521 C512 1.390 . S
C521 H514 0.950 . S
C521 C518 1.387 . S
C522 C523 1.387 . S
C522 H526 0.950 . S
C522 C531 1.390 . S
C523 C522 1.387 . S
C523 C525 1.387 . S
H524 C531 0.950 . S
C525 C523 1.387 . S
C525 C527 1.390 . S
C525 H529 0.950 . S
H526 C522 0.950 . S
C527 C525 1.390 . S
C527 C528 1.387 . S
C527 H530 0.950 . S
C528 C527 1.387 . S
C528 C531 1.387 . S
H529 C525 0.950 . S
H530 C527 0.950 . S
C531 C522 1.390 . S
C531 H524 0.950 . S
C531 C528 1.387 . S
C532 C533 1.387 . S
C532 H536 0.950 . S
C532 C541 1.390 . S
C533 C532 1.387 . S
C533 C535 1.387 . S
H534 C541 0.950 . S
C535 C533 1.387 . S
C535 C537 1.390 . S
C535 H539 0.950 . S
H536 C532 0.950 . S
C537 C535 1.390 . S
C537 C538 1.387 . S
C537 H540 0.950 . S
C538 C537 1.387 . S
C538 C541 1.387 . S
H539 C535 0.950 . S
H540 C537 0.950 . S
C541 C532 1.390 . S
C541 H534 0.950 . S
C541 C538 1.387 . S
C542 C543 1.387 . S
C542 H546 0.950 . S
C542 C551 1.390 . S
C543 C542 1.387 . S
C543 C545 1.387 . S
H544 C551 0.950 . S
C545 C543 1.387 . S
C545 C547 1.390 . S
C545 H549 0.950 . S
H546 C542 0.950 . S
C547 C545 1.390 . S
C547 C548 1.387 . S
C547 H550 0.950 . S
C548 C547 1.387 . S
C548 C551 1.387 . S
H549 C545 0.950 . S
H550 C547 0.950 . S
C551 C542 1.390 . S
C551 H544 0.950 . S
C551 C548 1.387 . S
C552 C553 1.387 . S
C552 H556 0.950 . S
C552 C561 1.390 . S
C553 C552 1.387 . S
C553 C555 1.387 . S
H554 C561 0.950 . S
C555 C553 1.387 . S
C555 C557 1.390 . S
C555 H559 0.950 . S
H556 C552 0.950 . S
C557 C555 1.390 . S
C557 C558 1.387 . S
C557 H560 0.950 . S
C558 C557 1.387 . S
C558 C561 1.387 . S
H559 C555 0.950 . S
H560 C557 0.950 . S
C561 C552 1.390 . S
C561 H554 0.950 . S
C561 C558 1.387 . S
C562 C563 1.387 . S
C562 H566 0.950 . S
C562 C571 1.390 . S
C563 C562 1.387 . S
C563 C565 1.387 . S
H564 C571 0.950 . S
C565 C563 1.387 . S
C565 C567 1.390 . S
C565 H569 0.950 . S
H566 C562 0.950 . S
C567 C565 1.390 . S
C567 C568 1.387 . S
C567 H570 0.950 . S
C568 C567 1.387 . S
C568 C571 1.387 . S
H569 C565 0.950 . S
H570 C567 0.950 . S
C571 C562 1.390 . S
C571 H564 0.950 . S
C571 C568 1.387 . S
C572 C573 1.387 . S
C572 H576 0.950 . S
C572 C581 1.390 . S
C573 C572 1.387 . S
C573 C575 1.387 . S
H574 C581 0.950 . S
C575 C573 1.387 . S
C575 C577 1.390 . S
C575 H579 0.950 . S
H576 C572 0.950 . S
C577 C575 1.390 . S
C577 C578 1.387 . S
C577 H580 0.950 . S
C578 C577 1.387 . S
C578 C581 1.387 . S
H579 C575 0.950 . S
H580 C577 0.950 . S
C581 C572 1.390 . S
C581 H574 0.950 . S
C581 C578 1.387 . S
C582 C583 1.387 . S
C582 H586 0.950 . S
C582 C591 1.390 . S
C583 C582 1.387 . S
C583 C585 1.387 . S
H584 C591 0.950 . S
C585 C583 1.387 . S
C585 C587 1.390 . S
C585 H589 0.950 . S
H586 C582 0.950 . S
C587 C585 1.390 . S
C587 C588 1.387 . S
C587 H590 0.950 . S
C588 C587 1.387 . S
C588 C591 1.387 . S
H589 C585 0.950 . S
H590 C587 0.950 . S
C591 C582 1.390 . S
C591 H584 0.950 . S
C591 C588 1.387 . S
C592 C593 1.387 . S
C592 H596 0.950 . S
C592 C601 1.390 . S
C593 C592 1.387 . S
C593 C595 1.387 . S
H594 C601 0.950 . S
C595 C593 1.387 . S
C595 C597 1.390 . S
C595 H599 0.950 . S
H596 C592 0.950 . S
C597 C595 1.390 . S
C597 C598 1.387 . S
C597 H600 0.950 . S
C598 C597 1.387 . S
C598 C601 1.387 . S
H599 C595 0.950 . S
H600 C597 0.950 . S
C601 C592 1.390 . S
C601 H594 0.950 . S
C601 C598 1.387 . S
C602 C603 1.387 . S
C602 H606 0.950 . S
C602 C611 1.390 . S
C603 C602 1.387 . S
C603 C605 1.387 . S
H604 C611 0.950 . S
C605 C603 1.387 . S
C605 C607 1.390 . S
C605 H609 0.950 . S
H606 C602 0.950 . S
C607 C605 1.390 . S
C607 C608 1.387 . S
C607 H610 0.950 . S
C608 C607 1.387 . S
C608 C611 1.387 . S
H609 C605 0.950 . S
H610 C607 0.950 . S
C611 C602 1.390 . S
C611 H604 0.950 . S
C611 C608 1.387 . S
C612 C613 1.387 . S
C612 H616 0.950 . S
C612 C621 1.390 . S
C613 C612 1.387 . S
C613 C615 1.387 . S
H614 C621 0.950 . S
C615 C613 1.387 . S
C615 C617 1.390 . S
C615 H619 0.950 . S
H616 C612 0.950 . S
C617 C615 1.390 . S
C617 C618 1.387 . S
C617 H620 0.950 . S
C618 C617 1.387 . S
C618 C621 1.387 . S
H619 C615 0.950 . S
H620 C617 0.950 . S
C621 C612 1.390 . S
C621 H614 0.950 . S
C621 C618 1.387 . S
C622 C623 1.387 . S
C622 H626 0.950 . S
C622 C631 1.390 . S
C623 C622 1.387 . S
C623 C625 1.387 . S
H624 C631 0.950 . S
C625 C623 1.387 . S
C625 C627 1.390 . S
C625 H629 0.950 . S
H626 C622 0.950 . S
C627 C625 1.390 . S
C627 C628 1.387 . S
C627 H630 0.950 . S
C628 C627 1.387 . S
C628 C631 1.387 . S
H629 C625 0.950 . S
H630 C627 0.950 . S
C631 C622 1.390 . S
C631 H624 0.950 . S
C631 C628 1.387 . S
C632 C633 1.387 . S
C632 H636 0.950 . S
C632 C641 1.390 . S
C633 C632 1.387 . S
C633 C635 1.387 . S
H634 C641 0.950 . S
C635 C633 1.387 . S
C635 C637 1.390 . S
C635 H639 0.950 . S
H636 C632 0.950 . S
C637 C635 1.390 . S
C637 C638 1.387 . S
C637 H640 0.950 . S
C638 C637 1.387 . S
C638 C641 1.387 . S
H639 C635 0.950 . S
H640 C637 0.950 . S
C641 C632 1.390 . S
C641 H634 0.950 . S
C641 C638 1.387 . S
C642 C643 1.387 . S
C642 H646 0.950 . S
C642 C651 1.390 . S
C643 C642 1.387 . S
C643 C645 1.387 . S
H644 C651 0.950 . S
C645 C643 1.387 . S
C645 C647 1.390 . S
C645 H649 0.950 . S
H646 C642 0.950 . S
C647 C645 1.390 . S
C647 C648 1.387 . S
C647 H650 0.950 . S
C648 C647 1.387 . S
C648 C651 1.387 . S
H649 C645 0.950 . S
H650 C647 0.950 . S
C651 C642 1.390 . S
C651 H644 0.950 . S
C651 C648 1.387 . S
C652 C653 1.387 . S
C652 H656 0.950 . S
C652 C661 1.390 . S
C653 C652 1.387 . S
C653 C655 1.387 . S
H654 C661 0.950 . S
C655 C653 1.387 . S
C655 C657 1.390 . S
C655 H659 0.950 . S
H656 C652 0.950 . S
C657 C655 1.390 . S
C657 C658 1.387 . S
C657 H660 0.950 . S
C658 C657 1.387 . S
C658 C661 1.387 . S
H659 C655 0.950 . S
H660 C657 0.950 . S
C661 C652 1.390 . S
C661 H654 0.950 . S
C661 C658 1.387 . S
C662 C663 1.387 . S
C662 H666 0.950 . S
C662 C671 1.390 . S
C663 C662 1.387 . S
C663 C665 1.387 . S
H664 C671 0.950 . S
C665 C663 1.387 . S
C665 C667 1.390 . S
C665 H669 0.950 . S
H666 C662 0.950 . S
C667 C665 1.390 . S
C667 C668 1.387 . S
C667 H670 0.950 . S
C668 C667 1.387 . S
C668 C671 1.387 . S
H669 C665 0.950 . S
H670 C667 0.950 . S
C671 C662 1.390 . S
C671 H664 0.950 . S
C671 C668 1.387 . S
C672 C673 1.387 . S
C672 H676 0.950 . S
C672 C681 1.390 . S
C673 C672 1.387 . S
C673 C675 1.387 . S
H674 C681 0.950 . S
C675 C673 1.387 . S
C675 C677 1.390 . S
C675 H679 0.950 . S
H676 C672 0.950 . S
C677 C675 1.390 . S
C677 C678 1.387 . S
C677 H680 0.950 . S
C678 C677 1.387 . S
C678 C681 1.387 . S
H679 C675 0.950 . S
H680 C677 0.950 . S
C681 C672 1.390 . S
C681 H674 0.950 . S
C681 C678 1.387 . S
C682 C683 1.387 . S
C682 H686 0.950 . S
C682 C691 1.390 . S
C683 C682 1.387 . S
C683 C685 1.387 . S
H684 C691 0.950 . S
C685 C683 1.387 . S
C685 C687 1.390 . S
C685 H689 0.950 . S
H686 C682 0.950 . S
C687 C685 1.390 . S
C687 C688 1.387 . S
C687 H690 0.950 . S
C688 C687 1.387 . S
C688 C691 1.387 . S
H689 C685 0.950 . S
H690 C687 0.950 . S
C691 C682 1.390 . S
C691 H684 0.950 . S
C691 C688 1.387 . S
C692 C693 1.387 . S
C692 H696 0.950 . S
C692 C701 1.390 . S
C693 C692 1.387 . S
C693 C695 1.387 . S
H694 C701 0.950 . S
C695 C693 1.387 . S
C695 C697 1.390 . S
C695 H699 0.950 . S
H696 C692 0.950 . S
C697 C695 1.390 . S
C697 C698 1.387 . S
C697 H700 0.950 . S
C698 C697 1.387 . S
C698 C701 1.387 . S
H699 C695 0.950 . S
H700 C697 0.950 . S
C701 C692 1.390 . S
C701 H694 0.950 . S
C701 C698 1.387 . S
C702 C703 1.387 . S
C702 H706 0.950 . S
C702 C711 1.390 . S
C703 C702 1.387 . S
C703 C705 1.387 . S
H704 C711 0.950 . S
C705 C703 1.387 . S
C705 C707 1.390 . S
C705 H709 0.950 . S
H706 C702 0.950 . S
C707 C705 1.390 . S
C707 C708 1.387 . S
C707 H710 0.950 . S
C708 C707 1.387 . S
C708 C711 1.387 . S
H709 C705 0.950 . S
H710 C707 0.950 . S
C711 C702 1.390 . S
C711 H704 0.950 . S
C711 C708 1.387 . S
C712 C713 1.387 . S
C712 H716 0.950 . S
C712 C721 1.390 . S
C713 C712 1.387 . S
C713 C715 1.387 . S
H714 C721 0.950 . S
C715 C713 1.387 . S
C715 C717 1.390 . S
C715 H719 0.950 . S
H716 C712 0.950 . S
C717 C715 1.390 . S
C717 C718 1.387 . S
C717 H720 0.950 . S
C718 C717 1.387 . S
C718 C721 1.387 . S
H719 C715 0.950 . S
H720 C717 0.950 . S
C721 C712 1.390 . S
C721 H714 0.950 . S
C721 C718 1.387 . S
C722 C723 1.387 . S
C722 H726 0.950 . S
C722 C731 1.390 . S
C723 C722 1.387 . S
C723 C725 1.387 . S
H724 C731 0.950 . S
C725 C723 1.387 . S
C725 C727 1.390 . S
C725 H729 0.950 . S
H726 C722 0.950 . S
C727 C725 1.390 . S
C727 C728 1.387 . S
C727 H730 0.950 . S
C728 C727 1.387 . S
C728 C731 1.387 . S
H729 C725 0.950 . S
H730 C727 0.950 . S
C731 C722 1.390 . S
C731 H724 0.950 . S
C731 C728 1.387 . S
C732 C733 1.387 . S
C732 H736 0.950 . S
C732 C741 1.390 . S
C733 C732 1.387 . S
C733 C735 1.387 . S
H734 C741 0.950 . S
C735 C733 1.387 . S
C735 C737 1.390 . S
C735 H739 0.950 . S
H736 C732 0.950 . S
C737 C735 1.390 . S
C737 C738 1.387 . S
C737 H740 0.950 . S
C738 C737 1.387 . S
C738 C741 1.387 . S
H739 C735 0.950 . S
H740 C737 0.950 . S
C741 C732 1.390 . S
C741 H734 0.950 . S
C741 C738 1.387 . S
C742 C743 1.387 . S
C742 H746 0.950 . S
C742 C751 1.390 . S
C743 C742 1.387 . S
C743 C745 1.387 . S
H744 C751 0.950 . S
C745 C743 1.387 . S
C745 C747 1.390 . S
C745 H749 0.950 . S
H746 C742 0.950 . S
C747 C745 1.390 . S
C747 C748 1.387 . S
C747 H750 0.950 . S
C748 C747 1.387 . S
C748 C751 1.387 . S
H749 C745 0.950 . S
H750 C747 0.950 . S
C751 C742 1.390 . S
C751 H744 0.950 . S
C751 C748 1.387 . S
C752 C753 1.387 . S
C752 H756 0.950 . S
C752 C761 1.390 . S
C753 C752 1.387 . S
C753 C755 1.387 . S
H754 C761 0.950 . S
C755 C753 1.387 . S
C755 C757 1.390 . S
C755 H759 0.950 . S
H756 C752 0.950 . S
C757 C755 1.390 . S
C757 C758 1.387 . S
C757 H760 0.950 . S
C758 C757 1.387 . S
C758 C761 1.387 . S
H759 C755 0.950 . S
H760 C757 0.950 . S
C761 C752 1.390 . S
C761 H754 0.950 . S
C761 C758 1.387 . S
C762 C763 1.387 . S
C762 H766 0.950 . S
C762 C771 1.390 . S
C763 C762 1.387 . S
C763 C765 1.387 . S
H764 C771 0.950 . S
C765 C763 1.387 . S
C765 C767 1.390 . S
C765 H769 0.950 . S
H766 C762 0.950 . S
C767 C765 1.390 . S
C767 C768 1.387 . S
C767 H770 0.950 . S
C768 C767 1.387 . S
C768 C771 1.387 . S
H769 C765 0.950 . S
H770 C767 0.950 . S
C771 C762 1.390 . S
C771 H764 0.950 . S
C771 C768 1.387 . S
C772 C773 1.387 . S
C772 H776 0.950 . S
C772 C781 1.390 . S
C773 C772 1.387 . S
C773 C775 1.387 . S
H774 C781 0.950 . S
C775 C773 1.387 . S
C775 C777 1.390 . S
C775 H779 0.950 . S
H776 C772 0.950 . S
C777 C775 1.390 . S
C777 C778 1.387 . S
C777 H780 0.950 . S
C778 C777 1.387 . S
C778 C781 1.387 . S
H779 C775 0.950 . S
H780 C777 0.950 . S
C781 C772 1.390 . S
C781 H774 0.950 . S
C781 C778 1.387 . S
C782 C783 1.387 . S
C782 H786 0.950 . S
C782 C791 1.390 . S
C783 C782 1.387 . S
C783 C785 1.387 . S
H784 C791 0.950 . S
C785 C783 1.387 . S
C785 C787 1.390 . S
C785 H789 0.950 . S
H786 C782 0.950 . S
C787 C785 1.390 . S
C787 C788 1.387 . S
C787 H790 0.950 . S
C788 C787 1.387 . S
C788 C791 1.387 . S
H789 C785 0.950 . S
H790 C787 0.950 . S
C791 C782 1.390 . S
C791 H784 0.950 . S
C791 C788 1.387 . S
C792 C793 1.387 . S
C792 H796 0.950 . S
C792 C801 1.390 . S
C793 C792 1.387 . S
C793 C795 1.387 . S
H794 C801 0.950 . S
C795 C793 1.387 . S
C795 C797 1.390 . S
C795 H799 0.950 . S
H796 C792 0.950 . S
C797 C795 1.390 . S
C797 C798 1.387 . S
C797 H800 0.950 . S
C798 C797 1.387 . S
C798 C801 1.387 . S
H799 C795 0.950 . S
H800 C797 0.950 . S
C801 C792 1.390 . S
C801 H794 0.950 . S
C801 C798 1.387 . S
C802 C803 1.387 . S
C802 H806 0.950 . S
C802 C811 1.390 . S
C803 C802 1.387 . S
C803 C805 1.387 . S
H804 C811 0.950 . S
C805 C803 1.387 . S
C805 C807 1.390 . S
C805 H809 0.950 . S
H806 C802 0.950 . S
C807 C805 1.390 . S
C807 C808 1.387 . S
C807 H810 0.950 . S
C808 C807 1.387 . S
C808 C811 1.387 . S
H809 C805 0.950 . S
H810 C807 0.950 . S
C811 C802 1.390 . S
C811 H804 0.950 . S
C811 C808 1.387 . S
C812 C813 1.387 . S
C812 H816 0.950 . S
C812 C821 1.390 . S
C813 C812 1.387 . S
C813 C815 1.387 . S
H814 C821 0.950 . S
C815 C813 1.387 . S
C815 C817 1.390 . S
C815 H819 0.950 . S
H816 C812 0.950 . S
C817 C815 1.390 . S
C817 C818 1.387 . S
C817 H820 0.950 . S
C818 C817 1.387 . S
C818 C821 1.387 . S
H819 C815 0.950 . S
H820 C817 0.950 . S
C821 C812 1.390 . S
C821 H814 0.950 . S
C821 C818 1.387 . S
C822 C823 1.387 . S
C822 H826 0.950 . S
C822 C831 1.390 . S
C823 C822 1.387 . S
C823 C825 1.387 . S
H824 C831 0.950 . S
C825 C823 1.387 . S
C825 C827 1.390 . S
C825 H829 0.950 . S
H826 C822 0.950 . S
C827 C825 1.390 . S
C827 C828 1.387 . S
C827 H830 0.950 . S
C828 C827 1.387 . S
C828 C831 1.387 . S
H829 C825 0.950 . S
H830 C827 0.950 . S
C831 C822 1.390 . S
C831 H824 0.950 . S
C831 C828 1.387 . S
C832 C833 1.387 . S
C832 H836 0.950 . S
C832 C841 1.390 . S
C833 C832 1.387 . S
C833 C835 1.387 . S
H834 C841 0.950 . S
C835 C833 1.387 . S
C835 C837 1.390 . S
C835 H839 0.950 . S
H836 C832 0.950 . S
C837 C835 1.390 . S
C837 C838 1.387 . S
C837 H840 0.950 . S
C838 C837 1.387 . S
C838 C841 1.387 . S
H839 C835 0.950 . S
H840 C837 0.950 . S
C841 C832 1.390 . S
C841 H834 0.950 . S
C841 C838 1.387 . S
C842 C843 1.387 . S
C842 H846 0.950 . S
C842 C851 1.390 . S
C843 C842 1.387 . S
C843 C845 1.387 . S
H844 C851 0.950 . S
C845 C843 1.387 . S
C845 C847 1.390 . S
C845 H849 0.950 . S
H846 C842 0.950 . S
C847 C845 1.390 . S
C847 C848 1.387 . S
C847 H850 0.950 . S
C848 C847 1.387 . S
C848 C851 1.387 . S
H849 C845 0.950 . S
H850 C847 0.950 . S
C851 C842 1.390 . S
C851 H844 0.950 . S
C851 C848 1.387 . S
C852 C853 1.387 . S
C852 H856 0.950 . S
C852 C861 1.390 . S
C853 C852 1.387 . S
C853 C855 1.387 . S
H854 C861 0.950 . S
C855 C853 1.387 . S
C855 C857 1.390 . S
C855 H859 0.950 . S
H856 C852 0.950 . S
C857 C855 1.390 . S
C857 C858 1.387 . S
C857 H860 0.950 . S
C858 C857 1.387 . S
C858 C861 1.387 . S
H859 C855 0.950 . S
H860 C857 0.950 . S
C861 C852 1.390 . S
C861 H854 0.950 . S
C861 C858 1.387 . S
C862 C863 1.387 . S
C862 H866 0.950 . S
C862 C871 1.390 . S
C863 C862 1.387 . S
C863 C865 1.387 . S
H864 C871 0.950 . S
C865 C863 1.387 . S
C865 C867 1.390 . S
C865 H869 0.950 . S
H866 C862 0.950 . S
C867 C865 1.390 . S
C867 C868 1.387 . S
C867 H870 0.950 . S
C868 C867 1.387 . S
C868 C871 1.387 . S
H869 C865 0.950 . S
H870 C867 0.950 . S
C871 C862 1.390 . S
C871 H864 0.950 . S
C871 C868 1.387 . S
C872 C873 1.387 . S
C872 H876 0.950 . S
C872 C881 1.390 . S
C873 C872 1.387 . S
C873 C875 1.387 . S
H874 C881 0.950 . S
C875 C873 1.387 . S
C875 C877 1.390 . S
C875 H879 0.950 . S
H876 C872 0.950 . S
C877 C875 1.390 . S
C877 C878 1.387 . S
C877 H880 0.950 . S
C878 C877 1.387 . S
C878 C881 1.387 . S
H879 C875 0.950 . S
H880 C877 0.950 . S
C881 C872 1.390 . S
C881 H874 0.950 . S
C881 C878 1.387 . S
C882 C883 1.387 . S
C882 H886 0.950 . S
C882 C891 1.390 . S
C883 C882 1.387 . S
C883 C885 1.387 . S
H884 C891 0.950 . S
C885 C883 1.387 . S
C885 C887 1.390 . S
C885 H889 0.950 . S
H886 C882 0.950 . S
C887 C885 1.390 . S
C887 C888 1.387 . S
C887 H890 0.950 . S
C888 C887 1.387 . S
C888 C891 1.387 . S
H889 C885 0.950 . S
H890 C887 0.950 . S
C891 C882 1.390 . S
C891 H884 0.950 . S
C891 C888 1.387 . S
C892 C893 1.387 . S
C892 H896 0.950 . S
C892 C901 1.390 . S
C893 C892 1.387 . S
C893 C895 1.387 . S
H894 C901 0.950 . S
C895 C893 1.387 . S
C895 C897 1.390 . S
C895 H899 0.950 . S
H896 C892 0.950 . S
C897 C895 1.390 . S
C897 C898 1.387 . S
C897 H900 0.950 . S
C898 C897 1.387 . S
C898 C901 1.387 . S
H899 C895 0.950 . S
H900 C897 0.950 . S
C901 C892 1.390 . S
C901 H894 0.950 . S
C901 C898 1.387 . S
C902 C903 1.387 . S
C902 H906 0.950 . S
C902 C911 1.390 . S
C903 C902 1.387 . S
C903 C905 1.387 . S
H904 C911 0.950 . S
C905 C903 1.387 . S
C905 C907 1.390 . S
C905 H909 0.950 . S
H906 C902 0.950 . S
C907 C905 1.390 . S
C907 C908 1.387 . S
C907 H910 0.950 . S
C908 C907 1.387 . S
C908 C911 1.387 . S
H909 C905 0.950 . S
H910 C907 0.950 . S
C911 C902 1.390 . S
C911 H904 0.950 . S
C911 C908 1.387 . S
C912 C913 1.387 . S
C912 H916 0.950 . S
C912 C921 1.390 . S
C913 C912 1.387 . S
C913 C915 1.387 . S
H914 C921 0.950 . S
C915 C913 1.387 . S
C915 C917 1.390 . S
C915 H919 0.950 . S
H916 C912 0.950 . S
C917 C915 1.390 . S
C917 C918 1.387 . S
C917 H920 0.950 . S
C918 C917 1.387 . S
C918 C921 1.387 . S
H919 C915 0.950 . S
H920 C917 0.950 . S
C921 C912 1.390 . S
C921 H914 0.950 . S
C921 C918 1.387 . S
C922 C923 1.387 . S
C922 H926 0.950 . S
C922 C931 1.390 . S
C923 C922 1.387 . S
C923 C925 1.387 . S
H924 C931 0.950 . S
C925 C923 1.387 . S
C925 C927 1.390 . S
C925 H929 0.950 . S
H926 C922 0.950 . S
C927 C925 1.390 . S
C927 C928 1.387 . S
C927 H930 0.950 . S
C928 C927 1.387 . S
C928 C931 1.387 . S
H929 C925 0.950 . S
H930 C927 0.950 . S
C931 C922 1.390 . S
C931 H924 0.950 . S
C931 C928 1.387 . S
C932 C933 1.387 . S
C932 H936 0.950 . S
C932 C941 1.390 . S
C933 C932 1.387 . S
C933 C935 1.387 . S
H934 C941 0.950 . S
C935 C933 1.387 . S
C935 C937 1.390 . S
C935 H939 0.950 . S
H936 C932 0.950 . S
C937 C935 1.390 . S
C937 C938 1.387 . S
C937 H940 0.950 . S
C938 C937 1.387 . S
C938 C941 1.387 . S
H939 C935 0.950 . S
H940 C937 0.950 . S
C941 C932 1.390 . S
C941 H934 0.950 . S
C941 C938 1.387 . S
C942 C943 1.387 . S
C942 H946 0.950 . S
C942 C951 1.390 . S
C943 C942 1.387 . S
C943 C945 1.387 . S
H944 C951 0.950 . S
C945 C943 1.387 . S
C945 C947 1.390 . S
C945 H949 0.950 . S
H946 C942 0.950 . S
C947 C945 1.390 . S
C947 C948 1.387 . S
C947 H950 0.950 . S
C948 C947 1.387 . S
C948 C951 1.387 . S
H949 C945 0.950 . S
H950 C947 0.950 . S
C951 C942 1.390 . S
C951 H944 0.950 . S
C951 C948 1.387 . S
C952 C953 1.387 . S
C952 H956 0.950 . S
C952 C961 1.390 . S
C953 C952 1.387 . S
C953 C955 1.387 . S
H954 C961 0.950 . S
C955 C953 1.387 . S
C955 C957 1.390 . S
C955 H959 0.950 . S
H956 C952 0.950 . S
C957 C955 1.390 . S
C957 C958 1.387 . S
C957 H960 0.950 . S
C958 C957 1.387 . S
C958 C961 1.387 . S
H959 C955 0.950 . S
H960 C957 0.950 . S
C961 C952 1.390 . S
C961 H954 0.950 . S
C961 C958 1.387 . S
C962 C963 1.387 . S
C962 H966 0.950 . S
C962 C971 1.390 . S
C963 C962 1.387 . S
C963 C965 1.387 . S
H964 C971 0.950 . S
C965 C963 1.387 . S
C965 C967 1.390 . S
C965 H969 0.950 . S
H966 C962 0.950 . S
C967 C965 1.390 . S
C967 C968 1.387 . S
C967 H970 0.950 . S
C968 C967 1.387 . S
C968 C971 1.387 . S
H969 C965 0.950 . S
H970 C967 0.950 . S
C971 C962 1.390 . S
C971 H964 0.950 . S
C971 C968 1.387 . S
C972 C973 1.387 . S
C972 H976 0.950 . S
C972 C981 1.390 . S
C973 C972 1.387 . S
C973 C975 1.387 . S
H974 C981 0.950 . S
C975 C973 1.387 . S
C975 C977 1.390 . S
C975 H979 0.950 . S
H976 C972 0.950 . S
C977 C975 1.390 . S
C977 C978 1.387 . S
C977 H980 0.950 . S
C978 C977 1.387 . S
C978 C981 1.387 . S
H979 C975 0.950 . S
H980 C977 0.950 . S
C981 C972 1.390 . S
C981 H974 0.950 . S
C981 C978 1.387 . S
C982 C983 1.387 . S
C982 H986 0.950 . S
C982 C991 1.390 . S
C983 C982 1.387 . S
C983 C985 1.387 . S
H984 C991 0.950 . S
C985 C983 1.387 . S
C985 C987 1.390 . S
C985 H989 0.950 . S
H986 C982 0.950 . S
C987 C985 1.390 . S
C987 C988 1.387 . S
C987 H990 0.950 . S
C988 C987 1.387 . S
C988 C991 1.387 . S
H989 C985 0.950 . S
H990 C987 0.950 . S
C991 C982 1.390 . S
C991 H984 0.950 . S
C991 C988 1.387 . S
C992 C993 1.387 . S
C992 H996 0.950 . S
C992 C1001 1.390 . S
C993 C992 1.387 . S
C993 C995 1.387 . S
H994 C1001 0.950 . S
C995 C993 1.387 . S
C995 C997 1.390 . S
C995 H999 0.950 . S
H996 C992 0.950 . S
C997 C995 1.390 . S
C997 C998 1.387 . S
C997 H1000 0.950 . S
C998 C997 1.387 . S
C998 C1001 1.387 . S
H999 C995 0.950 . S
H1000 C997 0.950 . S
C1001 C992 1.390 . S
C1001 H994 0.950 . S
C1001 C998 1.387 . S
C1002 C1003 1.387 1_655 S
C1002 H1006 0.950 . S
C1002 C1011 1.390 . S
C1003 C1002 1.387 1_455 S
C1003 C1005 1.387 1_565 S
H1004 C1011 0.950 . S
C1005 C1003 1.387 1_545 S
C1005 C1007 1.390 . S
C1005 H1009 0.950 . S
H1006 C1002 0.950 . S
C1007 C1005 1.390 . S
C1007 C1008 1.387 1_455 S
C1007 H1010 0.950 . S
C1008 C1007 1.387 1_655 S
C1008 C1011 1.387 1_545 S
H1009 C1005 0.950 . S
H1010 C1007 0.950 . S
C1011 C1002 1.390 . S
C1011 H1004 0.950 . S
C1011 C1008 1.387 1_565 S
C1012 C1013 1.387 . S
C1012 H1016 0.950 . S
C1012 C1021 1.390 1_565 S
C1013 C1012 1.387 . S
C1013 C1015 1.387 . S
H1014 C1021 0.950 . S
C1015 C1013 1.387 . S
C1015 C1017 1.390 1_565 S
C1015 H1019 0.950 . S
H1016 C1012 0.950 . S
C1017 C1015 1.390 1_545 S
C1017 C1018 1.387 . S
C1017 H1020 0.950 . S
C1018 C1017 1.387 . S
C1018 C1021 1.387 . S
H1019 C1015 0.950 . S
H1020 C1017 0.950 . S
C1021 C1012 1.390 1_545 S
C1021 H1014 0.950 . S
C1021 C1018 1.387 . S
C1022 C1023 1.387 . S
C1022 H1026 0.950 . S
C1022 C1031 1.390 . S
C1023 C1022 1.387 . S
C1023 C1025 1.387 1_655 S
H1024 C1031 0.950 . S
C1025 C1023 1.387 1_455 S
C1025 C1027 1.390 . S
C1025 H1029 0.950 . S
H1026 C1022 0.950 . S
C1027 C1025 1.390 . S
C1027 C1028 1.387 . S
C1027 H1030 0.950 . S
C1028 C1027 1.387 . S
C1028 C1031 1.387 1_455 S
H1029 C1025 0.950 . S
H1030 C1027 0.950 . S
C1031 C1022 1.390 . S
C1031 H1024 0.950 . S
C1031 C1028 1.387 1_655 S
C1032 C1033 1.387 . S
C1032 H1036 0.950 . S
C1032 C1041 1.390 . S
C1033 C1032 1.387 . S
C1033 C1035 1.387 . S
H1034 C1041 0.950 . S
C1035 C1033 1.387 . S
C1035 C1037 1.390 . S
C1035 H1039 0.950 . S
H1036 C1032 0.950 . S
C1037 C1035 1.390 . S
C1037 C1038 1.387 . S
C1037 H1040 0.950 . S
C1038 C1037 1.387 . S
C1038 C1041 1.387 . S
H1039 C1035 0.950 . S
H1040 C1037 0.950 . S
C1041 C1032 1.390 . S
C1041 H1034 0.950 . S
C1041 C1038 1.387 . S
C1042 C1043 1.387 . S
C1042 H1046 0.950 . S
C1042 C1051 1.390 . S
C1043 C1042 1.387 . S
C1043 C1045 1.387 1_565 S
H1044 C1051 0.950 . S
C1045 C1043 1.387 1_545 S
C1045 C1047 1.390 . S
C1045 H1049 0.950 . S
H1046 C1042 0.950 . S
C1047 C1045 1.390 . S
C1047 C1048 1.387 . S
C1047 H1050 0.950 . S
C1048 C1047 1.387 . S
C1048 C1051 1.387 1_545 S
H1049 C1045 0.950 . S
H1050 C1047 0.950 . S
C1051 C1042 1.390 . S
C1051 H1044 0.950 . S
C1051 C1048 1.387 1_565 S
C1052 C1053 1.387 . S
C1052 H1056 0.950 . S
C1052 C1061 1.390 . S
C1053 C1052 1.387 . S
C1053 C1055 1.387 1_655 S
H1054 C1061 0.950 . S
C1055 C1053 1.387 1_455 S
C1055 C1057 1.390 . S
C1055 H1059 0.950 . S
H1056 C1052 0.950 . S
C1057 C1055 1.390 . S
C1057 C1058 1.387 . S
C1057 H1060 0.950 . S
C1058 C1057 1.387 . S
C1058 C1061 1.387 1_455 S
H1059 C1055 0.950 . S
H1060 C1057 0.950 . S
C1061 C1052 1.390 . S
C1061 H1054 0.950 . S
C1061 C1058 1.387 1_655 S
C1062 C1063 1.390 . S
C1062 H1066 0.950 . S
C1062 C1071 1.387 1_554 S
C1063 C1062 1.390 . S
C1063 C1065 1.387 . S
H1064 C1071 0.950 . S
C1065 C1063 1.387 . S
C1065 C1067 1.387 1_554 S
C1065 H1069 0.950 . S
H1066 C1062 0.950 . S
C1067 C1065 1.387 1_556 S
C1067 C1068 1.390 . S
C1067 H1070 0.950 . S
C1068 C1067 1.390 . S
C1068 C1071 1.387 . S
H1069 C1065 0.950 . S
H1070 C1067 0.950 . S
C1071 C1062 1.387 1_556 S
C1071 H1064 0.950 . S
C1071 C1068 1.387 . S
C1072 C1073 1.387 . S
C1072 H1076 0.950 . S
C1072 C1081 1.390 1_556 S
C1073 C1072 1.387 . S
C1073 C1075 1.387 1_655 S
H1074 C1081 0.950 . S
C1075 C1073 1.387 1_455 S
C1075 C1077 1.390 1_556 S
C1075 H1079 0.950 . S
H1076 C1072 0.950 . S
C1077 C1075 1.390 1_554 S
C1077 C1078 1.387 . S
C1077 H1080 0.950 . S
C1078 C1077 1.387 . S
C1078 C1081 1.387 1_455 S
H1079 C1075 0.950 . S
H1080 C1077 0.950 . S
C1081 C1072 1.390 1_554 S
C1081 H1074 0.950 . S
C1081 C1078 1.387 1_655 S
C1082 C1083 1.387 . S
C1082 H1086 0.950 . S
C1082 C1091 1.390 . S
C1083 C1082 1.387 . S
C1083 C1085 1.387 . S
H1084 C1091 0.950 . S
C1085 C1083 1.387 . S
C1085 C1087 1.390 . S
C1085 H1089 0.950 . S
H1086 C1082 0.950 . S
C1087 C1085 1.390 . S
C1087 C1088 1.387 . S
C1087 H1090 0.950 . S
C1088 C1087 1.387 . S
C1088 C1091 1.387 . S
H1089 C1085 0.950 . S
H1090 C1087 0.950 . S
C1091 C1082 1.390 . S
C1091 H1084 0.950 . S
C1091 C1088 1.387 . S
C1092 C1093 1.387 . S
C1092 H1096 0.950 . S
C1092 C1101 1.390 1_556 S
C1093 C1092 1.387 . S
C1093 C1095 1.387 . S
H1094 C1101 0.950 . S
C1095 C1093 1.387 . S
C1095 C1097 1.390 1_556 S
C1095 H1099 0.950 . S
H1096 C1092 0.950 . S
C1097 C1095 1.390 1_554 S
C1097 C1098 1.387 . S
C1097 H1100 0.950 . S
C1098 C1097 1.387 . S
C1098 C1101 1.387 . S
H1099 C1095 0.950 . S
H1100 C1097 0.950 . S
C1101 C1092 1.390 1_554 S
C1101 H1094 0.950 . S
C1101 C1098 1.387 . S
C1102 C1103 1.387 . S
C1102 H1106 0.950 . S
C1102 C1111 1.390 . S
C1103 C1102 1.387 . S
C1103 C1105 1.387 . S
H1104 C1111 0.950 . S
C1105 C1103 1.387 . S
C1105 C1107 1.390 . S
C1105 H1109 0.950 . S
H1106 C1102 0.950 . S
C1107 C1105 1.390 . S
C1107 C1108 1.387 . S
C1107 H1110 0.950 . S
C1108 C1107 1.387 . S
C1108 C1111 1.387 . S
H1109 C1105 0.950 . S
H1110 C1107 0.950 . S
C1111 C1102 1.390 . S
C1111 H1104 0.950 . S
C1111 C1108 1.387 . S
C1112 C1113 1.387 1_565 S
C1112 H1116 0.950 . S
C1112 C1121 1.390 . S
C1113 C1112 1.387 1_545 S
C1113 C1115 1.387 1_556 S
H1114 C1121 0.950 . S
C1115 C1113 1.387 1_554 S
C1115 C1117 1.390 . S
C1115 H1119 0.950 . S
H1116 C1112 0.950 . S
C1117 C1115 1.390 . S
C1117 C1118 1.387 1_545 S
C1117 H1120 0.950 . S
C1118 C1117 1.387 1_565 S
C1118 C1121 1.387 1_554 S
H1119 C1115 0.950 . S
H1120 C1117 0.950 . S
C1121 C1112 1.390 . S
C1121 H1114 0.950 . S
C1121 C1118 1.387 1_556 S
C1122 C1123 1.387 . S
C1122 H1126 0.950 . S
C1122 C1131 1.390 . S
C1123 C1122 1.387 . S
C1123 C1125 1.387 . S
H1124 C1131 0.950 . S
C1125 C1123 1.387 . S
C1125 C1127 1.390 . S
C1125 H1129 0.950 . S
H1126 C1122 0.950 . S
C1127 C1125 1.390 . S
C1127 C1128 1.387 . S
C1127 H1130 0.950 . S
C1128 C1127 1.387 . S
C1128 C1131 1.387 . S
H1129 C1125 0.950 . S
H1130 C1127 0.950 . S
C1131 C1122 1.390 . S
C1131 H1124 0.950 . S
C1131 C1128 1.387 . S
C1132 C1133 1.387 . S
C1132 H1136 0.950 . S
C1132 C1141 1.390 . S
C1133 C1132 1.387 . S
C1133 C1135 1.387 . S
H1134 C1141 0.950 . S
C1135 C1133 1.387 . S
C1135 C1137 1.390 . S
C1135 H1139 0.950 . S
H1136 C1132 0.950 . S
C1137 C1135 1.390 . S
C1137 C1138 1.387 . S
C1137 H1140 0.950 . S
C1138 C1137 1.387 . S
C1138 C1141 1.387 . S
H1139 C1135 0.950 . S
H1140 C1137 0.950 . S
C1141 C1132 1.390 . S
C1141 H1134 0.950 . S
C1141 C1138 1.387 . S
C1142 C1143 1.387 . S
C1142 H1146 0.950 . S
C1142 C1151 1.390 . S
C1143 C1142 1.387 . S
C1143 C1145 1.387 . S
H1144 C1151 0.950 . S
C1145 C1143 1.387 . S
C1145 C1147 1.390 . S
C1145 H1149 0.950 . S
H1146 C1142 0.950 . S
C1147 C1145 1.390 . S
C1147 C1148 1.387 . S
C1147 H1150 0.950 . S
C1148 C1147 1.387 . S
C1148 C1151 1.387 . S
H1149 C1145 0.950 . S
H1150 C1147 0.950 . S
C1151 C1142 1.390 . S
C1151 H1144 0.950 . S
C1151 C1148 1.387 . S
C513 C8 1.493 . S
C518 C411 1.493 . S
C523 C27 1.493 1_655 S
C528 C392 1.493 . S
C533 C59 1.493 . S
C538 C424 1.493 . S
C543 C40 1.493 1_655 S
C548 C443 1.493 . S
C553 C479 1.493 . S
C558 C87 1.493 . S
C563 C95 1.493 1_455 S
C568 C471 1.493 . S
C573 C113 1.493 . S
C578 C504 1.493 . S
C583 C120 1.493 1_455 S
C588 C497 1.493 . S
C593 C283 1.493 . S
C598 C136 1.493 . S
C603 C264 1.493 . S
C608 C155 1.493 1_655 S
C613 C296 1.493 . S
C618 C187 1.493 . S
C623 C315 1.493 . S
C628 C168 1.493 1_655 S
C633 C351 1.493 . S
C638 C215 1.493 . S
C643 C223 1.493 1_455 S
C648 C343 1.493 . S
C653 C376 1.493 . S
C658 C241 1.493 . S
C663 C248 1.493 1_455 S
C668 C369 1.493 . S
C673 C30 1.243 . S
C678 C406 1.243 . S
C683 C22 1.240 . S
C688 C414 1.240 . S
C693 C54 1.243 . S
C698 C446 1.243 . S
C703 C438 1.243 . S
C708 C62 1.243 . S
C713 C472 1.240 . S
C718 C81 1.240 . S
C723 C465 1.243 . S
C728 C88 1.243 . S
C733 C511 1.243 . S
C738 C119 1.243 . S
C743 C503 1.243 . S
C748 C127 1.243 . S
C753 C158 1.243 . S
C758 C278 1.243 . S
C763 C150 1.240 . S
C768 C286 1.240 . S
C773 C182 1.243 . S
C778 C318 1.243 . S
C783 C190 1.243 . S
C788 C310 1.243 . S
C793 C344 1.243 . S
C798 C209 1.243 . S
C803 C337 1.243 . S
C808 C216 1.243 . S
C813 C383 1.243 . S
C818 C247 1.243 . S
C823 C255 1.243 . S
C828 C375 1.243 . S
C833 C31 1.601 . S
C838 C319 1.601 . S
C843 C305 1.598 . S
C848 C17 1.598 1_655 S
C853 C273 1.598 . S
C858 C49 1.598 . S
C863 C287 1.603 . S
C868 C63 1.603 1_655 S
C873 C382 1.596 . S
C878 C86 1.601 . S
C883 C72 1.596 1_455 S
C888 C379 1.601 . S
C893 C123 1.603 . S
C898 C328 1.598 . S
C903 C126 1.598 1_455 S
C908 C342 1.603 . S
C913 C447 1.601 . S
C918 C159 1.601 . S
C923 C145 1.598 1_655 S
C928 C433 1.598 . S
C933 C177 1.596 . S
C938 C401 1.596 . S
C943 C415 1.603 . S
C948 C191 1.603 1_655 S
C953 C510 1.596 . S
C958 C214 1.601 . S
C963 C507 1.601 . S
C968 C200 1.596 1_455 S
C973 C456 1.596 . S
C978 C251 1.601 . S
C983 C470 1.601 . S
C988 C254 1.596 1_455 S
C993 C475 1.933 . S
C998 C24 1.933 . S
C1003 C94 1.841 1_455 S
C1008 C23 1.841 1_655 S
C1013 C374 1.931 . S
C1018 C55 1.838 . S
C1023 C56 1.934 1_655 S
C1028 C232 1.841 1_455 S
C1033 C408 1.933 . S
C1038 C91 1.933 . S
C1043 C118 1.934 . S
C1048 C311 1.842 . S
C1053 C184 1.934 1_655 S
C1058 C104 1.842 1_455 S
C1063 C347 1.933 . S
C1068 C152 1.933 . S
C1073 C151 1.840 1_655 S
C1078 C222 1.840 1_455 S
C1083 C183 1.837 . S
C1088 C502 1.930 . S
C1093 C280 1.932 . S
C1098 C219 1.932 . S
C1103 C439 1.839 . S
C1108 C246 1.931 . S
C1113 C279 1.841 . S
C1118 C350 1.841 . S
C1123 C312 1.933 . S
C1128 C488 1.840 . S
C1133 C440 1.930 . S
C1138 C360 1.837 . S
C1143 C478 1.842 . S
C1148 C407 1.842 . S
