# Generated by pormake.
# Topology vbp, (6)-cn, num edge types: 1
# Building blocks:
#     Node 0, Type 0, BuildingBlock: OJICUG_clean_sbu_0, # of connection points: 6
#     Node 1, Type 0, BuildingBlock: OJICUG_clean_sbu_0, # of connection points: 6
#     Node 2, Type 0, BuildingBlock: OJICUG_clean_sbu_0, # of connection points: 6
#     Node 3, Type 0, BuildingBlock: OJICUG_clean_sbu_0, # of connection points: 6
#     Node 4, Type 0, BuildingBlock: OJICUG_clean_sbu_0, # of connection points: 6
#     Node 5, Type 0, BuildingBlock: OJICUG_clean_sbu_0, # of connection points: 6
#     Node 6, Type 0, BuildingBlock: OJICUG_clean_sbu_0, # of connection points: 6
#     Node 7, Type 0, BuildingBlock: OJICUG_clean_sbu_0, # of connection points: 6
#     Node 8, Type 0, BuildingBlock: OJICUG_clean_sbu_0, # of connection points: 6
#     Node 9, Type 0, BuildingBlock: OJICUG_clean_sbu_0, # of connection points: 6
#     Node 10, Type 0, BuildingBlock: OJICUG_clean_sbu_0, # of connection points: 6
#     Node 11, Type 0, BuildingBlock: OJICUG_clean_sbu_0, # of connection points: 6
#     Node 12, Type 0, BuildingBlock: OJICUG_clean_sbu_0, # of connection points: 6
#     Node 13, Type 0, BuildingBlock: OJICUG_clean_sbu_0, # of connection points: 6
#     Node 14, Type 0, BuildingBlock: OJICUG_clean_sbu_0, # of connection points: 6
#     Node 15, Type 0, BuildingBlock: OJICUG_clean_sbu_0, # of connection points: 6
#     Edge 16, Type (0, 0), BuildingBlock: UVAHIK_clean_linker_0, # of connection points: 2
#     Edge 17, Type (0, 0), BuildingBlock: UVAHIK_clean_linker_0, # of connection points: 2
#     Edge 18, Type (0, 0), BuildingBlock: UVAHIK_clean_linker_0, # of connection points: 2
#     Edge 19, Type (0, 0), BuildingBlock: UVAHIK_clean_linker_0, # of connection points: 2
#     Edge 20, Type (0, 0), BuildingBlock: UVAHIK_clean_linker_0, # of connection points: 2
#     Edge 21, Type (0, 0), BuildingBlock: UVAHIK_clean_linker_0, # of connection points: 2
#     Edge 22, Type (0, 0), BuildingBlock: UVAHIK_clean_linker_0, # of connection points: 2
#     Edge 23, Type (0, 0), BuildingBlock: UVAHIK_clean_linker_0, # of connection points: 2
#     Edge 24, Type (0, 0), BuildingBlock: UVAHIK_clean_linker_0, # of connection points: 2
#     Edge 25, Type (0, 0), BuildingBlock: UVAHIK_clean_linker_0, # of connection points: 2
#     Edge 26, Type (0, 0), BuildingBlock: UVAHIK_clean_linker_0, # of connection points: 2
#     Edge 27, Type (0, 0), BuildingBlock: UVAHIK_clean_linker_0, # of connection points: 2
#     Edge 28, Type (0, 0), BuildingBlock: UVAHIK_clean_linker_0, # of connection points: 2
#     Edge 29, Type (0, 0), BuildingBlock: UVAHIK_clean_linker_0, # of connection points: 2
#     Edge 30, Type (0, 0), BuildingBlock: UVAHIK_clean_linker_0, # of connection points: 2
#     Edge 31, Type (0, 0), BuildingBlock: UVAHIK_clean_linker_0, # of connection points: 2
#     Edge 32, Type (0, 0), BuildingBlock: UVAHIK_clean_linker_0, # of connection points: 2
#     Edge 33, Type (0, 0), BuildingBlock: UVAHIK_clean_linker_0, # of connection points: 2
#     Edge 34, Type (0, 0), BuildingBlock: UVAHIK_clean_linker_0, # of connection points: 2
#     Edge 35, Type (0, 0), BuildingBlock: UVAHIK_clean_linker_0, # of connection points: 2
#     Edge 36, Type (0, 0), BuildingBlock: UVAHIK_clean_linker_0, # of connection points: 2
#     Edge 37, Type (0, 0), BuildingBlock: UVAHIK_clean_linker_0, # of connection points: 2
#     Edge 38, Type (0, 0), BuildingBlock: UVAHIK_clean_linker_0, # of connection points: 2
#     Edge 39, Type (0, 0), BuildingBlock: UVAHIK_clean_linker_0, # of connection points: 2
#     Edge 40, Type (0, 0), BuildingBlock: UVAHIK_clean_linker_0, # of connection points: 2
#     Edge 41, Type (0, 0), BuildingBlock: UVAHIK_clean_linker_0, # of connection points: 2
#     Edge 42, Type (0, 0), BuildingBlock: UVAHIK_clean_linker_0, # of connection points: 2
#     Edge 43, Type (0, 0), BuildingBlock: UVAHIK_clean_linker_0, # of connection points: 2
#     Edge 44, Type (0, 0), BuildingBlock: UVAHIK_clean_linker_0, # of connection points: 2
#     Edge 45, Type (0, 0), BuildingBlock: UVAHIK_clean_linker_0, # of connection points: 2
#     Edge 46, Type (0, 0), BuildingBlock: UVAHIK_clean_linker_0, # of connection points: 2
#     Edge 47, Type (0, 0), BuildingBlock: UVAHIK_clean_linker_0, # of connection points: 2
#     Edge 48, Type (0, 0), BuildingBlock: UVAHIK_clean_linker_0, # of connection points: 2
#     Edge 49, Type (0, 0), BuildingBlock: UVAHIK_clean_linker_0, # of connection points: 2
#     Edge 50, Type (0, 0), BuildingBlock: UVAHIK_clean_linker_0, # of connection points: 2
#     Edge 51, Type (0, 0), BuildingBlock: UVAHIK_clean_linker_0, # of connection points: 2
#     Edge 52, Type (0, 0), BuildingBlock: UVAHIK_clean_linker_0, # of connection points: 2
#     Edge 53, Type (0, 0), BuildingBlock: UVAHIK_clean_linker_0, # of connection points: 2
#     Edge 54, Type (0, 0), BuildingBlock: UVAHIK_clean_linker_0, # of connection points: 2
#     Edge 55, Type (0, 0), BuildingBlock: UVAHIK_clean_linker_0, # of connection points: 2
#     Edge 56, Type (0, 0), BuildingBlock: UVAHIK_clean_linker_0, # of connection points: 2
#     Edge 57, Type (0, 0), BuildingBlock: UVAHIK_clean_linker_0, # of connection points: 2
#     Edge 58, Type (0, 0), BuildingBlock: UVAHIK_clean_linker_0, # of connection points: 2
#     Edge 59, Type (0, 0), BuildingBlock: UVAHIK_clean_linker_0, # of connection points: 2
#     Edge 60, Type (0, 0), BuildingBlock: UVAHIK_clean_linker_0, # of connection points: 2
#     Edge 61, Type (0, 0), BuildingBlock: UVAHIK_clean_linker_0, # of connection points: 2
#     Edge 62, Type (0, 0), BuildingBlock: UVAHIK_clean_linker_0, # of connection points: 2
#     Edge 63, Type (0, 0), BuildingBlock: UVAHIK_clean_linker_0, # of connection points: 2
# Relax obj value: 0.262
# Max RMSD: 0.268
# Mean RMSD: 0.268
data_MOF--net-vbp--node1-OJICUG_clean_sbu_0--edge1-UVAHIK_clean_linker_0
_symmetry_space_group_name_H-M    P1
_symmetry_Int_Tables_number       1
_symmetry_cell_setting            triclinic
loop_
_symmetry_equiv_pos_as_xyz
'x, y, z'
_cell_length_a     37.350216
_cell_length_b     54.482517
_cell_length_c     70.84035
_cell_angle_alpha  90.006286
_cell_angle_beta   90.002349
_cell_angle_gamma 89.99884
loop_
_atom_site_label
_atom_site_type_symbol
_atom_site_fract_x
_atom_site_fract_y
_atom_site_fract_z
_atom_type_partial_charge
Sc0 Sc 0.33577 0.10359 0.13576 0.0
Sc1 Sc 0.38246 0.04827 0.12683 0.0
Sc2 Sc 0.41114 0.10291 0.10564 0.0
O3 O 0.37645 0.08491 0.12284 0.0
C4 C 0.33544 0.12537 0.09349 0.0
C5 C 0.2978 0.05283 0.12512 0.0
C6 C 0.40148 0.05281 0.08319 0.0
C7 C 0.36146 0.06679 0.16831 0.0
C8 C 0.40075 0.14176 0.13874 0.0
C9 C 0.46358 0.06641 0.12708 0.0
O10 O 0.31959 0.12056 0.10904 0.0
O11 O 0.32663 0.04088 0.12281 0.0
O12 O 0.40907 0.07546 0.08413 0.0
O13 O 0.34647 0.08684 0.16328 0.0
O14 O 0.418 0.13207 0.12527 0.0
O15 O 0.43896 0.05135 0.13139 0.0
O16 O 0.36991 0.13431 0.14386 0.0
O17 O 0.37516 0.05171 0.1567 0.0
O18 O 0.45772 0.08605 0.11792 0.0
O19 O 0.29716 0.07532 0.1299 0.0
O20 O 0.36851 0.12105 0.09094 0.0
O21 O 0.39113 0.04043 0.09737 0.0
Sc22 Sc 0.65341 0.39403 0.13819 0.0
Sc23 Sc 0.59941 0.4465 0.13082 0.0
Sc24 Sc 0.57399 0.3902 0.11114 0.0
O25 O 0.60897 0.41025 0.12681 0.0
C26 C 0.65003 0.37084 0.09648 0.0
C27 C 0.68428 0.44634 0.1264 0.0
C28 C 0.57752 0.44001 0.08776 0.0
C29 C 0.62714 0.42989 0.17145 0.0
C30 C 0.59288 0.35322 0.14439 0.0
C31 C 0.52012 0.42485 0.13325 0.0
O32 O 0.6674 0.3768 0.11131 0.0
O33 O 0.65398 0.45685 0.12612 0.0
O34 O 0.5711 0.41723 0.08934 0.0
O35 O 0.64518 0.41135 0.16578 0.0
O36 O 0.57265 0.36151 0.13153 0.0
O37 O 0.54366 0.44113 0.13639 0.0
O38 O 0.62354 0.36219 0.14818 0.0
O39 O 0.60894 0.44345 0.16047 0.0
O40 O 0.52698 0.40502 0.12456 0.0
O41 O 0.68827 0.42367 0.13004 0.0
O42 O 0.61637 0.37362 0.09514 0.0
O43 O 0.58853 0.45318 0.1014 0.0
Sc44 Sc 0.33719 0.89677 0.37483 0.0
Sc45 Sc 0.38795 0.95055 0.38359 0.0
Sc46 Sc 0.41189 0.89513 0.40522 0.0
O47 O 0.37897 0.91419 0.38778 0.0
C48 C 0.33515 0.87387 0.41665 0.0
C49 C 0.30289 0.94876 0.38548 0.0
C50 C 0.40467 0.94519 0.42762 0.0
C51 C 0.36503 0.9328 0.3422 0.0
C52 C 0.4006 0.85748 0.37153 0.0
C53 C 0.46759 0.9302 0.38444 0.0
O54 O 0.31947 0.88003 0.40135 0.0
O55 O 0.33254 0.95984 0.38768 0.0
O56 O 0.40919 0.92212 0.42705 0.0
O57 O 0.34882 0.91327 0.34736 0.0
O58 O 0.41868 0.86675 0.38487 0.0
O59 O 0.44439 0.94561 0.37884 0.0
O60 O 0.36967 0.86516 0.36677 0.0
O61 O 0.38005 0.9474 0.35372 0.0
O62 O 0.45966 0.91147 0.39421 0.0
O63 O 0.30073 0.92627 0.38081 0.0
O64 O 0.36848 0.87694 0.41912 0.0
O65 O 0.39741 0.95794 0.41308 0.0
Sc66 Sc 0.57502 0.60417 0.40419 0.0
Sc67 Sc 0.60205 0.54959 0.38235 0.0
Sc68 Sc 0.65305 0.60371 0.37593 0.0
O69 O 0.61008 0.58582 0.3874 0.0
C70 C 0.59036 0.64348 0.37195 0.0
C71 C 0.52186 0.56971 0.38136 0.0
C72 C 0.62739 0.56883 0.34196 0.0
C73 C 0.58142 0.55316 0.42577 0.0
C74 C 0.65075 0.62458 0.4184 0.0
C75 C 0.68696 0.55159 0.38591 0.0
O76 O 0.57157 0.63408 0.38497 0.0
O77 O 0.54595 0.55412 0.37742 0.0
O78 O 0.64448 0.5876 0.34796 0.0
O79 O 0.57419 0.57588 0.42502 0.0
O80 O 0.66748 0.62005 0.40308 0.0
O81 O 0.6572 0.54038 0.38632 0.0
O82 O 0.61742 0.62064 0.42024 0.0
O83 O 0.59234 0.54096 0.4116 0.0
O84 O 0.6897 0.57448 0.38275 0.0
O85 O 0.52817 0.58912 0.39072 0.0
O86 O 0.62107 0.63528 0.3673 0.0
O87 O 0.61045 0.55427 0.35272 0.0
Sc88 Sc 0.5726 0.89289 0.90535 0.0
Sc89 Sc 0.59795 0.94794 0.88369 0.0
Sc90 Sc 0.64819 0.89387 0.87552 0.0
O91 O 0.6063 0.9116 0.8881 0.0
C92 C 0.64888 0.87129 0.91743 0.0
C93 C 0.57896 0.94301 0.92755 0.0
C94 C 0.68262 0.94574 0.8866 0.0
C95 C 0.51832 0.928 0.88349 0.0
C96 C 0.58437 0.85492 0.87193 0.0
C97 C 0.62232 0.9299 0.84258 0.0
O98 O 0.61544 0.87434 0.91959 0.0
O99 O 0.58634 0.95558 0.91294 0.0
O100 O 0.68467 0.92338 0.88153 0.0
O101 O 0.52535 0.90969 0.89393 0.0
O102 O 0.61567 0.86224 0.86751 0.0
O103 O 0.60781 0.94483 0.854 0.0
O104 O 0.5659 0.86455 0.88498 0.0
O105 O 0.54206 0.94293 0.87778 0.0
O106 O 0.63736 0.90998 0.84782 0.0
O107 O 0.57514 0.91988 0.92718 0.0
O108 O 0.66506 0.87749 0.90229 0.0
O109 O 0.65305 0.95689 0.88889 0.0
Sc110 Sc 0.34003 0.59746 0.87775 0.0
Sc111 Sc 0.39619 0.54543 0.88288 0.0
Sc112 Sc 0.4178 0.60027 0.90597 0.0
O113 O 0.38461 0.58103 0.88879 0.0
C114 C 0.39998 0.63917 0.8738 0.0
C115 C 0.36856 0.56459 0.84305 0.0
C116 C 0.4746 0.56856 0.8832 0.0
C117 C 0.31095 0.54386 0.88681 0.0
C118 C 0.34109 0.61856 0.92017 0.0
C119 C 0.41485 0.5485 0.92664 0.0
O120 O 0.36983 0.63004 0.86908 0.0
O121 O 0.38803 0.55093 0.85332 0.0
O122 O 0.46587 0.58721 0.89287 0.0
O123 O 0.30609 0.56681 0.88479 0.0
O124 O 0.37453 0.61535 0.92191 0.0
O125 O 0.40581 0.53634 0.91207 0.0
O126 O 0.32445 0.61343 0.90494 0.0
O127 O 0.34163 0.53385 0.88621 0.0
O128 O 0.41996 0.57154 0.92644 0.0
O129 O 0.34906 0.58186 0.84965 0.0
O130 O 0.41931 0.6304 0.88687 0.0
O131 O 0.4523 0.55212 0.87842 0.0
Sc132 Sc 0.57441 0.10241 0.60718 0.0
Sc133 Sc 0.60073 0.04725 0.62836 0.0
Sc134 Sc 0.65077 0.10136 0.63663 0.0
O135 O 0.60866 0.08366 0.62415 0.0
C136 C 0.65091 0.12296 0.59431 0.0
C137 C 0.58085 0.05203 0.58484 0.0
C138 C 0.68552 0.04949 0.62608 0.0
C139 C 0.52063 0.06735 0.62916 0.0
C140 C 0.58793 0.14112 0.64002 0.0
C141 C 0.62415 0.06545 0.66957 0.0
O142 O 0.61753 0.11953 0.59212 0.0
O143 O 0.59075 0.03945 0.59901 0.0
O144 O 0.68761 0.072 0.63069 0.0
O145 O 0.52722 0.08671 0.61978 0.0
O146 O 0.61863 0.13306 0.6448 0.0
O147 O 0.60921 0.0507 0.65814 0.0
O148 O 0.5696 0.13172 0.62684 0.0
O149 O 0.54462 0.0518 0.63342 0.0
O150 O 0.64004 0.08509 0.66433 0.0
O151 O 0.5746 0.07488 0.58573 0.0
O152 O 0.66705 0.1177 0.6097 0.0
O153 O 0.65595 0.03835 0.62397 0.0
Sc154 Sc 0.41882 0.3927 0.60747 0.0
Sc155 Sc 0.39661 0.44883 0.62853 0.0
Sc156 Sc 0.34167 0.39672 0.63608 0.0
O157 O 0.38565 0.41279 0.62411 0.0
C158 C 0.34194 0.37319 0.59447 0.0
C159 C 0.41458 0.44291 0.5848 0.0
C160 C 0.31132 0.44953 0.62528 0.0
C161 C 0.47545 0.4265 0.6286 0.0
C162 C 0.40246 0.35582 0.64114 0.0
C163 C 0.37037 0.43186 0.66931 0.0
O164 O 0.37546 0.37592 0.59257 0.0
O165 O 0.40604 0.45594 0.59901 0.0
O166 O 0.30711 0.42678 0.62859 0.0
O167 O 0.46695 0.40735 0.61948 0.0
O168 O 0.37196 0.36471 0.64542 0.0
O169 O 0.38864 0.44532 0.65829 0.0
O170 O 0.42188 0.36413 0.62793 0.0
O171 O 0.45285 0.44285 0.63318 0.0
O172 O 0.35156 0.41371 0.66362 0.0
O173 O 0.41957 0.41989 0.58574 0.0
O174 O 0.32547 0.37956 0.60947 0.0
O175 O 0.34181 0.45984 0.62483 0.0
Sc176 Sc 0.84027 0.59842 0.63657 0.0
Sc177 Sc 0.89673 0.54696 0.62976 0.0
Sc178 Sc 0.91772 0.60293 0.60812 0.0
O179 O 0.88484 0.58274 0.62488 0.0
C180 C 0.84038 0.62134 0.59475 0.0
C181 C 0.8117 0.5451 0.62578 0.0
C182 C 0.91591 0.55228 0.58606 0.0
C183 C 0.86888 0.56406 0.67022 0.0
C184 C 0.9 0.64009 0.64145 0.0
C185 C 0.97475 0.57037 0.6302 0.0
O186 O 0.82404 0.61502 0.6098 0.0
O187 O 0.84249 0.53522 0.62548 0.0
O188 O 0.9195 0.57544 0.58664 0.0
O189 O 0.84997 0.58203 0.66433 0.0
O190 O 0.91974 0.63184 0.62835 0.0
O191 O 0.95234 0.55407 0.63509 0.0
O192 O 0.86969 0.63089 0.64575 0.0
O193 O 0.88749 0.55061 0.65938 0.0
O194 O 0.96625 0.58896 0.62038 0.0
O195 O 0.80667 0.56778 0.62911 0.0
O196 O 0.87399 0.61896 0.5929 0.0
O197 O 0.90783 0.53945 0.60045 0.0
Sc198 Sc 0.1492 0.8939 0.63533 0.0
Sc199 Sc 0.10033 0.94869 0.62749 0.0
Sc200 Sc 0.07188 0.89374 0.60668 0.0
O201 O 0.10717 0.91213 0.62326 0.0
C202 C 0.14716 0.87217 0.59305 0.0
C203 C 0.18499 0.94521 0.62414 0.0
C204 C 0.07897 0.94402 0.58418 0.0
C205 C 0.12462 0.93027 0.66847 0.0
C206 C 0.0856 0.85486 0.6394 0.0
C207 C 0.0199 0.92924 0.62935 0.0
O208 O 0.16399 0.87711 0.60829 0.0
O209 O 0.15572 0.95687 0.62255 0.0
O210 O 0.07175 0.92133 0.58526 0.0
O211 O 0.13996 0.91049 0.66307 0.0
O212 O 0.06723 0.86437 0.62628 0.0
O213 O 0.04415 0.94485 0.63309 0.0
O214 O 0.11651 0.86269 0.64401 0.0
O215 O 0.10959 0.94516 0.65719 0.0
O216 O 0.02588 0.90976 0.62004 0.0
O217 O 0.18653 0.92267 0.62872 0.0
O218 O 0.11389 0.87624 0.59113 0.0
O219 O 0.08987 0.9565 0.5982 0.0
Sc220 Sc 0.84028 0.39678 0.87747 0.0
Sc221 Sc 0.89605 0.44888 0.88319 0.0
Sc222 Sc 0.91609 0.39439 0.90715 0.0
O223 O 0.88408 0.41338 0.8892 0.0
C224 C 0.83865 0.37592 0.91998 0.0
C225 C 0.81064 0.45035 0.88601 0.0
C226 C 0.91229 0.44643 0.92727 0.0
C227 C 0.87011 0.42964 0.84309 0.0
C228 C 0.90079 0.35532 0.87468 0.0
C229 C 0.97432 0.42577 0.885 0.0
O230 O 0.82318 0.38069 0.90435 0.0
O231 O 0.84131 0.46041 0.88575 0.0
O232 O 0.91687 0.42335 0.92744 0.0
O233 O 0.85038 0.4124 0.8495 0.0
O234 O 0.91889 0.36407 0.88826 0.0
O235 O 0.95229 0.442 0.87951 0.0
O236 O 0.87106 0.36443 0.86925 0.0
O237 O 0.88926 0.44325 0.85355 0.0
O238 O 0.96504 0.40742 0.89487 0.0
O239 O 0.80589 0.42736 0.88405 0.0
O240 O 0.87185 0.37943 0.92244 0.0
O241 O 0.90448 0.45838 0.9124 0.0
Sc242 Sc 0.07011 0.10313 0.90293 0.0
Sc243 Sc 0.09598 0.04769 0.88199 0.0
Sc244 Sc 0.14877 0.10089 0.87519 0.0
O245 O 0.10502 0.08389 0.88663 0.0
C246 C 0.08723 0.14115 0.87005 0.0
C247 C 0.01641 0.06893 0.88035 0.0
C248 C 0.12276 0.06548 0.8415 0.0
C249 C 0.07451 0.0525 0.92527 0.0
C250 C 0.14596 0.12313 0.91728 0.0
C251 C 0.18091 0.04863 0.88606 0.0
O252 O 0.06786 0.13249 0.88312 0.0
O253 O 0.04003 0.05283 0.87682 0.0
O254 O 0.1406 0.08399 0.8474 0.0
O255 O 0.06785 0.0753 0.92419 0.0
O256 O 0.16298 0.11796 0.90216 0.0
O257 O 0.15087 0.03777 0.88623 0.0
O258 O 0.11253 0.11952 0.91896 0.0
O259 O 0.08568 0.03994 0.91133 0.0
O260 O 0.18434 0.07146 0.88284 0.0
O261 O 0.02322 0.08848 0.8894 0.0
O262 O 0.1178 0.13247 0.8657 0.0
O263 O 0.10482 0.05157 0.85233 0.0
Sc264 Sc 0.07753 0.39314 0.40673 0.0
Sc265 Sc 0.10426 0.4472 0.38409 0.0
Sc266 Sc 0.15203 0.39202 0.37611 0.0
O267 O 0.1113 0.41081 0.38887 0.0
C268 C 0.15337 0.37063 0.41839 0.0
C269 C 0.08737 0.44368 0.42816 0.0
C270 C 0.18904 0.44348 0.38589 0.0
C271 C 0.02375 0.42873 0.38505 0.0
C272 C 0.08673 0.35388 0.37391 0.0
C273 C 0.12571 0.42763 0.34299 0.0
O274 O 0.12023 0.37455 0.4209 0.0
O275 O 0.09508 0.45582 0.41339 0.0
O276 O 0.19016 0.42092 0.38128 0.0
O277 O 0.03043 0.41023 0.39536 0.0
O278 O 0.11786 0.36089 0.36883 0.0
O279 O 0.11206 0.44303 0.35434 0.0
O280 O 0.06942 0.36406 0.38715 0.0
O281 O 0.04784 0.44331 0.37922 0.0
O282 O 0.14069 0.40774 0.34835 0.0
O283 O 0.08166 0.42074 0.428 0.0
O284 O 0.16918 0.37588 0.40293 0.0
O285 O 0.15995 0.45517 0.38821 0.0
Sc286 Sc 0.83455 0.10063 0.37502 0.0
Sc287 Sc 0.88988 0.0486 0.38153 0.0
Sc288 Sc 0.91417 0.10478 0.40187 0.0
O289 O 0.8795 0.08466 0.38606 0.0
C290 C 0.89403 0.14212 0.36901 0.0
C291 C 0.86087 0.06545 0.34124 0.0
C292 C 0.96856 0.07133 0.37906 0.0
C293 C 0.80509 0.04789 0.38652 0.0
C294 C 0.838 0.12326 0.41698 0.0
C295 C 0.9126 0.05433 0.42455 0.0
O296 O 0.86378 0.13269 0.36498 0.0
O297 O 0.87996 0.05208 0.35193 0.0
O298 O 0.96126 0.09094 0.38795 0.0
O299 O 0.80056 0.07063 0.38332 0.0
O300 O 0.87163 0.12036 0.41833 0.0
O301 O 0.90135 0.04139 0.41083 0.0
O302 O 0.82069 0.11769 0.40204 0.0
O303 O 0.83556 0.0376 0.38628 0.0
O304 O 0.91845 0.07721 0.42322 0.0
O305 O 0.84233 0.08356 0.34727 0.0
O306 O 0.9143 0.13403 0.38192 0.0
O307 O 0.94545 0.05477 0.37589 0.0
Sc308 Sc 0.07647 0.60174 0.10793 0.0
Sc309 Sc 0.10061 0.54645 0.12967 0.0
Sc310 Sc 0.15071 0.60042 0.13863 0.0
O311 O 0.10926 0.58284 0.12553 0.0
C312 C 0.15331 0.62293 0.09673 0.0
C313 C 0.08477 0.5517 0.0856 0.0
C314 C 0.18564 0.54849 0.12834 0.0
C315 C 0.02075 0.56642 0.12846 0.0
C316 C 0.0872 0.63987 0.14136 0.0
C317 C 0.12241 0.5645 0.17113 0.0
O318 O 0.11999 0.61996 0.09419 0.0
O319 O 0.09186 0.53894 0.10015 0.0
O320 O 0.18753 0.57095 0.1331 0.0
O321 O 0.02858 0.58526 0.11877 0.0
O322 O 0.11804 0.63214 0.14627 0.0
O323 O 0.10795 0.54976 0.15953 0.0
O324 O 0.06932 0.63034 0.12803 0.0
O325 O 0.04407 0.55113 0.13411 0.0
O326 O 0.13849 0.58414 0.1661 0.0
O327 O 0.07978 0.57472 0.0862 0.0
O328 O 0.16883 0.61681 0.11208 0.0
O329 O 0.15612 0.53735 0.12585 0.0
Sc330 Sc 0.91275 0.89147 0.10757 0.0
Sc331 Sc 0.88322 0.94707 0.1269 0.0
Sc332 Sc 0.83458 0.89254 0.13565 0.0
O333 O 0.87685 0.91037 0.12347 0.0
C334 C 0.83753 0.86956 0.09385 0.0
C335 C 0.90619 0.94077 0.08386 0.0
C336 C 0.79885 0.94333 0.12301 0.0
C337 C 0.96379 0.92825 0.12973 0.0
C338 C 0.89823 0.8539 0.14103 0.0
C339 C 0.85811 0.93 0.16816 0.0
O340 O 0.87102 0.87309 0.09217 0.0
O341 O 0.89507 0.95374 0.09758 0.0
O342 O 0.79733 0.92111 0.12841 0.0
O343 O 0.95853 0.90851 0.12058 0.0
O344 O 0.86688 0.8615 0.14494 0.0
O345 O 0.87277 0.9447 0.15659 0.0
O346 O 0.91744 0.86317 0.12815 0.0
O347 O 0.93902 0.94354 0.13323 0.0
O348 O 0.84349 0.90981 0.16315 0.0
O349 O 0.91302 0.91806 0.08539 0.0
O350 O 0.82039 0.87519 0.10884 0.0
O351 O 0.82811 0.95489 0.12107 0.0
C352 C 0.41673 0.01451 0.06552 0.0
C353 C 0.41018 0.03991 0.06546 0.0
C354 C 0.43319 0.00336 0.05005 0.0
C355 C 0.45949 0.01208 1.00021 0.0
H356 H 0.54152 0.97244 0.01439 0.0
C357 C 0.56166 0.98117 0.94494 0.0
C358 C 0.56922 0.9559 0.94516 0.0
C359 C 0.54471 0.9922 0.96031 0.0
C360 C 0.5186 0.98335 0.01022 0.0
H361 H 0.41242 0.07305 0.04848 0.0
H362 H 0.44103 0.05357 0.02155 0.0
H363 H 0.5017 0.98826 0.0388 0.0
H364 H 0.56807 0.92292 0.96238 0.0
H365 H 0.53845 0.94215 0.98907 0.0
H366 H 0.47636 0.00716 0.97163 0.0
C367 C 0.43374 0.04231 0.03355 0.0
C368 C 0.49566 0.99225 0.02416 0.0
C369 C 0.41746 0.05348 0.04902 0.0
C370 C 0.56228 0.94239 0.96167 0.0
C371 C 0.54542 0.95342 0.97703 0.0
C372 C 0.4824 0.00315 0.98626 0.0
C373 C 0.44308 0.01737 0.03423 0.0
C374 C 0.46589 0.0067 0.01929 0.0
C375 C 0.53522 0.9782 0.97619 0.0
C376 C 0.51221 0.98872 0.99113 0.0
H377 H 0.41133 0.00353 0.07794 0.0
H378 H 0.4395 0.98397 0.05076 0.0
H379 H 0.43662 0.02305 0.99606 0.0
H380 H 0.56684 0.99216 0.93249 0.0
H381 H 0.53783 0.01149 0.95949 0.0
C382 C 0.56111 0.43748 0.05371 0.0
C383 C 0.56784 0.4519 0.06979 0.0
C384 C 0.54554 0.44785 0.03773 0.0
C385 C 0.48506 0.4976 0.02546 0.0
H386 H 0.51098 0.48189 0.97385 0.0
C387 C 0.42909 0.54849 0.96099 0.0
C388 C 0.42353 0.53527 0.94421 0.0
C389 C 0.44366 0.53702 0.97677 0.0
C390 C 0.50306 0.48608 0.9882 0.0
H391 H 0.56592 0.48883 0.08124 0.0
H392 H 0.53884 0.50698 0.05317 0.0
H393 H 0.54701 0.46587 0.9998 0.0
H394 H 0.42636 0.49921 0.93125 0.0
H395 H 0.45148 0.47905 0.95903 0.0
H396 H 0.4411 0.51776 0.01391 0.0
C397 C 0.54515 0.48758 0.05312 0.0
C398 C 0.52384 0.47708 1.00301 0.0
C399 C 0.56095 0.47723 0.0691 0.0
C400 C 0.43048 0.50992 0.94395 0.0
C401 C 0.44516 0.49843 0.95977 0.0
C402 C 0.46423 0.50653 0.01066 0.0
C403 C 0.53631 0.47281 0.03755 0.0
C404 C 0.51515 0.4829 0.02176 0.0
C405 C 0.45291 0.51206 0.97611 0.0
C406 C 0.47314 0.50098 0.99188 0.0
H407 H 0.56644 0.41793 0.05375 0.0
H408 H 0.53897 0.43605 0.02592 0.0
H409 H 0.47731 0.5019 0.03982 0.0
H410 H 0.42369 0.56801 0.96171 0.0
H411 H 0.44945 0.54804 0.98912 0.0
C412 C 0.41953 0.94414 0.46196 0.0
C413 C 0.41342 0.95787 0.44546 0.0
C414 C 0.43574 0.95496 0.47759 0.0
C415 C 0.49917 0.004 0.48759 0.0
H416 H 0.47816 0.98904 0.53993 0.0
C417 C 0.56469 0.05302 0.55071 0.0
C418 C 0.57132 0.03931 0.56715 0.0
C419 C 0.54805 0.04218 0.53521 0.0
C420 C 0.48466 0.99304 0.52535 0.0
H421 H 0.41642 0.99427 0.43309 0.0
H422 H 0.44436 0.01321 0.46056 0.0
H423 H 0.43859 0.9738 0.51517 0.0
H424 H 0.56848 0.00299 0.57965 0.0
H425 H 0.53971 0.98398 0.5524 0.0
H426 H 0.54524 0.02323 0.49777 0.0
C427 C 0.43731 0.99394 0.46117 0.0
C428 C 0.46186 0.98449 0.51121 0.0
C429 C 0.42099 0.98313 0.44552 0.0
C430 C 0.56361 0.01407 0.56722 0.0
C431 C 0.5468 0.00324 0.55171 0.0
C432 C 0.52196 0.01255 0.50173 0.0
C433 C 0.44611 0.97971 0.47704 0.0
C434 C 0.46888 0.98992 0.4922 0.0
C435 C 0.53771 0.01743 0.53586 0.0
C436 C 0.51492 0.00715 0.52074 0.0
H437 H 0.41366 0.92468 0.46244 0.0
H438 H 0.44217 0.94353 0.48964 0.0
H439 H 0.5057 0.00801 0.47302 0.0
H440 H 0.57062 0.07247 0.55015 0.0
H441 H 0.54137 0.05359 0.52319 0.0
C442 C 0.56644 0.55359 0.46 0.0
C443 C 0.57243 0.54014 0.44337 0.0
C444 C 0.55059 0.54247 0.47559 0.0
C445 C 0.52544 0.48333 0.49691 0.0
H446 H 0.44658 0.52119 0.5176 0.0
C447 C 0.42915 0.44113 0.55047 0.0
C448 C 0.42347 0.45519 0.56685 0.0
C449 C 0.44452 0.45173 0.53452 0.0
C450 C 0.46864 0.51049 0.51204 0.0
H451 H 0.56917 0.50405 0.43053 0.0
H452 H 0.54128 0.48461 0.45783 0.0
H453 H 0.48342 0.53867 0.49258 0.0
H454 H 0.42686 0.49179 0.57883 0.0
H455 H 0.45389 0.51024 0.55097 0.0
H456 H 0.51074 0.45519 0.51644 0.0
C457 C 0.54888 0.50375 0.45877 0.0
C458 C 0.48983 0.5205 0.49781 0.0
C459 C 0.56489 0.51488 0.44315 0.0
C460 C 0.43092 0.48046 0.56645 0.0
C461 C 0.4464 0.49104 0.55048 0.0
C462 C 0.50426 0.47331 0.51117 0.0
C463 C 0.54037 0.51771 0.47484 0.0
C464 C 0.51853 0.50707 0.49018 0.0
C465 C 0.4545 0.47655 0.53463 0.0
C466 C 0.4757 0.48682 0.51889 0.0
H467 H 0.57251 0.57302 0.4607 0.0
H468 H 0.54517 0.55348 0.488 0.0
H469 H 0.54754 0.47267 0.49137 0.0
H470 H 0.42319 0.42168 0.55023 0.0
H471 H 0.44967 0.44029 0.52231 0.0
C472 C 0.93515 0.51468 0.56857 0.0
C473 C 0.92626 0.53974 0.56843 0.0
C474 C 0.95217 0.5041 0.55303 0.0
C475 C 0.97492 0.51331 0.50283 0.0
H476 H 0.05954 0.47547 0.51562 0.0
C477 C 0.07254 0.48229 0.44552 0.0
C478 C 0.07984 0.457 0.44585 0.0
C479 C 0.0574 0.49371 0.46125 0.0
C480 C 0.03594 0.48594 0.51186 0.0
H481 H 0.92529 0.5728 0.5513 0.0
H482 H 0.95497 0.55433 0.5243 0.0
H483 H 0.02095 0.49096 0.54073 0.0
H484 H 0.08049 0.42439 0.46348 0.0
H485 H 0.05404 0.4443 0.4908 0.0
H486 H 0.98978 0.5082 0.47397 0.0
C487 C 0.949 0.5429 0.5364 0.0
C488 C 0.01371 0.49462 0.52619 0.0
C489 C 0.93212 0.55349 0.55192 0.0
C490 C 0.07476 0.44386 0.46271 0.0
C491 C 0.05976 0.45529 0.47842 0.0
C492 C -0.00287 0.50462 0.4885 0.0
C493 C 0.96034 0.51836 0.53708 0.0
C494 C 0.98293 0.50831 0.5218 0.0
C495 C 0.0496 0.48006 0.47756 0.0
C496 C 0.02781 0.49081 0.49288 0.0
H497 H 0.93087 0.50355 0.58104 0.0
H498 H 0.96002 0.48498 0.55374 0.0
H499 H 0.95122 0.52367 0.49906 0.0
H500 H 0.07634 0.49296 0.43278 0.0
H501 H 0.05044 0.51298 0.46038 0.0
C502 C 0.06558 0.98229 0.56598 0.0
C503 C 0.07033 0.95671 0.56635 0.0
C504 C 0.05066 0.9936 0.55014 0.0
C505 C 0.02701 0.98434 0.49997 0.0
H506 H 0.94814 0.0281 0.51173 0.0
C507 C 0.9292 0.01663 0.44273 0.0
C508 C 0.92324 0.04209 0.44226 0.0
C509 C 0.94555 0.00584 0.45838 0.0
C510 C 0.97023 0.01605 0.50824 0.0
H511 H 0.0661 0.92323 0.54985 0.0
H512 H 0.04005 0.94295 0.52235 0.0
H513 H 0.9847 0.0115 0.53722 0.0
H514 H 0.92717 0.07588 0.45841 0.0
H515 H 0.95569 0.05705 0.48561 0.0
H516 H 0.01245 0.98884 0.47099 0.0
C517 C 0.04768 0.95426 0.53427 0.0
C518 C 0.99131 0.00668 0.52279 0.0
C519 C 0.06243 0.94295 0.55008 0.0
C520 C 0.93168 0.05623 0.45826 0.0
C521 C 0.94788 0.04544 0.4739 0.0
C522 C 0.00593 0.99371 0.48541 0.0
C523 C 0.04051 0.97955 0.53439 0.0
C524 C 0.01985 0.99071 0.5188 0.0
C525 C 0.95597 0.02029 0.47387 0.0
C526 C 0.97728 0.0096 0.48941 0.0
H527 H 0.07153 0.99342 0.57826 0.0
H528 H 0.04599 0.01322 0.55045 0.0
H529 H 0.04903 0.97222 0.49649 0.0
H530 H 0.92291 0.00521 0.43066 0.0
H531 H 0.95091 0.9863 0.45817 0.0
C532 C 0.93117 0.48478 0.94386 0.0
C533 C 0.92114 0.45995 0.94467 0.0
C534 C 0.94738 0.49593 0.95941 0.0
C535 C 0.96704 0.48847 0.01028 0.0
H536 H 0.05521 0.52241 0.99764 0.0
C537 C 0.06739 0.51414 0.06763 0.0
C538 C 0.07675 0.53912 0.06768 0.0
C539 C 0.05131 0.50375 0.05175 0.0
C540 C 0.0306 0.51305 1.00135 0.0
H541 H 0.91691 0.42805 0.9629 0.0
H542 H 0.94523 0.44742 0.98989 0.0
H543 H 0.01587 0.50806 0.97244 0.0
H544 H 0.08025 0.57207 0.05053 0.0
H545 H 0.05226 0.55389 0.02288 0.0
H546 H 0.98189 0.49331 0.03917 0.0
C547 C 0.9408 0.45828 0.9773 0.0
C548 C 0.00793 0.50505 0.98697 0.0
C549 C 0.92473 0.44714 0.96178 0.0
C550 C 0.07291 0.55284 0.05099 0.0
C551 C 0.05701 0.54242 0.03512 0.0
C552 C 0.98974 0.4964 0.02464 0.0
C553 C 0.95354 0.48246 0.97601 0.0
C554 C 0.97599 0.49262 0.9913 0.0
C555 C 0.04465 0.51811 0.03567 0.0
C556 C 0.02179 0.50867 0.0203 0.0
H557 H 0.92862 0.49516 0.93089 0.0
H558 H 0.95635 0.51477 0.9582 0.0
H559 H 0.94244 0.47914 0.01402 0.0
H560 H 0.07018 0.50304 0.08022 0.0
H561 H 0.04264 0.48479 0.05235 0.0
C562 C 0.06027 0.01417 0.94326 0.0
C563 C 0.06478 0.03978 0.94295 0.0
C564 C 0.04456 0.00278 0.95885 0.0
C565 C 0.01848 0.01205 0.0087 0.0
H566 H 0.94185 0.96672 0.99635 0.0
C567 C 0.9204 0.97854 0.06523 0.0
C568 C 0.91591 0.95295 0.06597 0.0
C569 C 0.93638 0.98948 0.04954 0.0
C570 C 0.9633 0.97923 1.0 0.0
H571 H 0.05903 0.07324 0.95934 0.0
H572 H 0.0316 0.0534 0.98639 0.0
H573 H 0.97873 0.98381 0.97115 0.0
H574 H 0.92187 0.91902 0.05017 0.0
H575 H 0.94974 0.93812 0.02287 0.0
H576 H 0.00297 0.00754 0.03754 0.0
C577 C 0.04007 0.04211 0.97462 0.0
C578 C 0.98456 0.98888 0.98562 0.0
C579 C 0.05564 0.0535 0.95905 0.0
C580 C 0.92525 0.93877 0.05012 0.0
C581 C 0.94109 0.94971 0.03443 0.0
C582 C -0.0028 0.00243 0.02308 0.0
C583 C 0.03333 0.01677 0.97443 0.0
C584 C 0.01232 0.00542 0.98983 0.0
C585 C 0.94792 0.97504 0.03426 0.0
C586 C 0.96934 0.98598 0.01886 0.0
H587 H 0.06714 0.00305 0.93111 0.0
H588 H 0.04025 0.98312 0.95849 0.0
H589 H 0.03991 0.02457 0.01237 0.0
H590 H 0.91336 0.99001 0.07716 0.0
H591 H 0.94074 0.00913 0.04959 0.0
C592 C 0.39322 0.05032 0.19639 0.0
C593 C 0.36136 0.05898 0.18828 0.0
C594 C 0.39262 0.0371 0.21329 0.0
C595 C 0.33371 0.01687 0.25339 0.0
H596 H 0.40378 0.96444 0.25627 0.0
C597 C 0.33205 0.94208 0.3122 0.0
C598 C 0.36447 0.94068 0.32222 0.0
C599 C 0.33024 0.95496 0.29505 0.0
C600 C 0.38404 0.97899 0.25566 0.0
H601 H 0.30393 0.06116 0.19166 0.0
H602 H 0.30249 0.03745 0.22098 0.0
H603 H 0.40329 0.99157 0.22901 0.0
H604 H 0.4206 0.95058 0.3218 0.0
H605 H 0.41783 0.972 0.29154 0.0
H606 H 0.31409 0.00356 0.28 0.0
C607 C 0.32821 0.0414 0.21464 0.0
C608 C 0.38394 0.99481 0.24011 0.0
C609 C 0.32895 0.05514 0.19786 0.0
C610 C 0.39537 0.95114 0.31426 0.0
C611 C 0.39374 0.96347 0.29697 0.0
C612 C 0.33348 0.00074 0.26883 0.0
C613 C 0.35998 0.03149 0.22229 0.0
C614 C 0.35919 0.0143 0.23884 0.0
C615 C 0.36098 0.96617 0.28745 0.0
C616 C 0.35896 0.98182 0.27025 0.0
H617 H 0.41855 0.05292 0.18919 0.0
H618 H 0.41782 0.03061 0.21896 0.0
H619 H 0.31441 0.03169 0.25312 0.0
H620 H 0.30771 0.93458 0.3182 0.0
H621 H 0.30467 0.95665 0.28795 0.0
C622 C 0.66245 0.44277 0.19983 0.0
C623 C 0.62919 0.43818 0.19128 0.0
C624 C 0.66451 0.45726 0.21621 0.0
C625 C 0.61109 0.50538 0.24066 0.0
H626 H 0.68047 0.49778 0.28091 0.0
C627 C 0.59827 0.55245 0.31306 0.0
C628 C 0.62919 0.56161 0.32187 0.0
C629 C 0.60054 0.53992 0.2959 0.0
C630 C 0.6613 0.50034 0.2696 0.0
H631 H 0.57197 0.4434 0.19382 0.0
H632 H 0.57523 0.46732 0.22279 0.0
H633 H 0.6796 0.46835 0.25481 0.0
H634 H 0.68668 0.56543 0.31943 0.0
H635 H 0.6908 0.54322 0.28929 0.0
H636 H 0.59216 0.53692 0.2557 0.0
C637 C 0.59993 0.46073 0.21659 0.0
C638 C 0.66071 0.48342 0.25466 0.0
C639 C 0.59796 0.44665 0.20016 0.0
C640 C 0.66236 0.55896 0.31274 0.0
C641 C 0.66476 0.54595 0.29567 0.0
C642 C 0.61149 0.52209 0.25562 0.0
C643 C 0.63329 0.46722 0.22438 0.0
C644 C 0.63517 0.48548 0.24013 0.0
C645 C 0.63392 0.53582 0.2873 0.0
C646 C 0.63625 0.51962 0.27041 0.0
H647 H 0.68698 0.43683 0.19307 0.0
H648 H 0.69068 0.46183 0.22176 0.0
H649 H 0.59176 0.50813 0.22946 0.0
H650 H 0.57243 0.55396 0.31993 0.0
H651 H 0.57633 0.53222 0.28993 0.0
C652 C 0.59227 0.94779 0.81443 0.0
C653 C 0.62322 0.93766 0.82257 0.0
C654 C 0.59402 0.96023 0.7972 0.0
C655 C 0.65432 -0.00179 0.76948 0.0
H656 H 0.58432 0.98944 0.72969 0.0
C657 C 0.65751 0.05357 0.69883 0.0
C658 C 0.62483 0.05758 0.68953 0.0
C659 C 0.65869 0.03962 0.7155 0.0
C660 C 0.60374 0.99254 0.74078 0.0
H661 H 0.68022 0.93228 0.81897 0.0
H662 H 0.68347 0.9545 0.78878 0.0
H663 H 0.58423 0.96186 0.75668 0.0
H664 H 0.56764 0.05165 0.69092 0.0
H665 H 0.5692 0.02892 0.72048 0.0
H666 H 0.67311 0.02944 0.75397 0.0
C667 C 0.65777 0.95248 0.7957 0.0
C668 C 0.60387 0.97647 0.75618 0.0
C669 C 0.65585 0.93949 0.81281 0.0
C670 C 0.59318 0.04892 0.69787 0.0
C671 C 0.59424 0.03546 0.71466 0.0
C672 C 0.6539 0.01456 0.75416 0.0
C673 C 0.62694 0.96338 0.7879 0.0
C674 C 0.62896 0.9792 0.77078 0.0
C675 C 0.62712 0.02964 0.72331 0.0
C676 C 0.62831 0.01215 0.73966 0.0
H677 H 0.56688 0.94692 0.8218 0.0
H678 H 0.56986 0.96853 0.79165 0.0
H679 H 0.67374 0.00095 0.78064 0.0
H680 H 0.68238 0.05959 0.69246 0.0
H681 H 0.68457 0.03554 0.72161 0.0
C682 C 0.39768 0.54995 0.81356 0.0
C683 C 0.36653 0.5578 0.82287 0.0
C684 C 0.39559 0.53804 0.79613 0.0
C685 C 0.33662 0.49766 0.76949 0.0
H686 H 0.40336 0.50968 0.72866 0.0
C687 C 0.33583 0.44297 0.69843 0.0
C688 C 0.36884 0.43993 0.68923 0.0
C689 C 0.33365 0.4568 0.71513 0.0
C690 C 0.38486 0.50575 0.74003 0.0
H691 H 0.30876 0.55998 0.82103 0.0
H692 H 0.30497 0.53881 0.79045 0.0
H693 H 0.40229 0.53719 0.7557 0.0
H694 H 0.42571 0.44719 0.69095 0.0
H695 H 0.42237 0.46998 0.72043 0.0
H696 H 0.31991 0.46576 0.75409 0.0
C697 C 0.33105 0.54209 0.79665 0.0
C698 C 0.38406 0.52173 0.75546 0.0
C699 C 0.33323 0.55449 0.81399 0.0
C700 C 0.3999 0.44931 0.69775 0.0
C701 C 0.39784 0.46273 0.7145 0.0
C702 C 0.33765 0.48147 0.75409 0.0
C703 C 0.3622 0.53327 0.78775 0.0
C704 C 0.36026 0.51773 0.77048 0.0
C705 C 0.36454 0.46763 0.72301 0.0
C706 C 0.36222 0.48508 0.73927 0.0
H707 H 0.42366 0.55204 0.82019 0.0
H708 H 0.42005 0.53135 0.78972 0.0
H709 H 0.31825 0.49394 0.78097 0.0
H710 H 0.31139 0.43627 0.692 0.0
H711 H 0.30752 0.46016 0.72122 0.0
C712 C 0.8993 0.44545 0.81394 0.0
C713 C 0.86833 0.43665 0.82293 0.0
C714 C 0.89704 0.45758 0.79661 0.0
C715 C 0.83639 0.49669 0.76981 0.0
H716 H 0.90531 0.48745 0.72956 0.0
C717 C 0.89864 0.5479 0.69899 0.0
C718 C 0.86725 0.5562 0.69018 0.0
C719 C 0.89698 0.53435 0.7157 0.0
C720 C 0.88617 0.49061 0.74077 0.0
H721 H 0.81079 0.43298 0.82057 0.0
H722 H 0.80673 0.45449 0.79015 0.0
H723 H 0.90516 0.45951 0.75633 0.0
H724 H 0.80952 0.55782 0.69234 0.0
H725 H 0.80635 0.53371 0.72148 0.0
H726 H 0.81803 0.52824 0.75449 0.0
C727 C 0.83278 0.45182 0.79655 0.0
C728 C 0.88591 0.47439 0.75605 0.0
C729 C 0.83514 0.43922 0.81379 0.0
C730 C 0.83417 0.55199 0.69903 0.0
C731 C 0.83242 0.53803 0.71568 0.0
C732 C 0.83684 0.51312 0.75455 0.0
C733 C 0.86366 0.46161 0.788 0.0
C734 C 0.86133 0.47738 0.77086 0.0
C735 C 0.86377 0.52824 0.72383 0.0
C736 C 0.86214 0.51052 0.73995 0.0
H737 H 0.92518 0.44394 0.82076 0.0
H738 H 0.9213 0.46502 0.79048 0.0
H739 H 0.81737 0.49964 0.78112 0.0
H740 H 0.9245 0.5509 0.69244 0.0
H741 H 0.92179 0.5279 0.72185 0.0
C742 C 0.09344 0.04975 0.81244 0.0
C743 C 0.12477 0.05766 0.82153 0.0
C744 C 0.09524 0.03624 0.79571 0.0
C745 C 0.15651 0.01409 0.75743 0.0
H746 H 0.08555 0.96227 0.75414 0.0
C747 C 0.15821 0.93958 0.69832 0.0
C748 C 0.1256 0.93788 0.68851 0.0
C749 C 0.16012 0.95243 0.7155 0.0
C750 C 0.10555 0.97664 0.75485 0.0
H751 H 0.18258 0.05844 0.8199 0.0
H752 H 0.186 0.03435 0.79076 0.0
H753 H 0.08515 0.98997 0.78105 0.0
H754 H 0.06928 0.94722 0.6893 0.0
H755 H 0.07226 0.96866 0.71949 0.0
H756 H 0.17705 0.00022 0.73118 0.0
C757 C 0.15987 0.03901 0.79631 0.0
C758 C 0.10516 0.99276 0.77021 0.0
C759 C 0.15798 0.05297 0.81297 0.0
C760 C 0.09467 0.94799 0.69669 0.0
C761 C 0.09642 0.96033 0.71395 0.0
C762 C 0.15712 -0.00228 0.74212 0.0
C763 C 0.12851 0.02969 0.78782 0.0
C764 C 0.13017 0.01206 0.77158 0.0
C765 C 0.12931 0.96335 0.72331 0.0
C766 C 0.13127 0.97905 0.74051 0.0
H767 H 0.06748 0.05306 0.81879 0.0
H768 H 0.07043 0.0302 0.78932 0.0
H769 H 0.17611 0.02872 0.75788 0.0
H770 H 0.18256 0.93236 0.69214 0.0
H771 H 0.1858 0.95433 0.72245 0.0
C772 C 0.09447 0.44419 0.31478 0.0
C773 C 0.12596 0.43487 0.32291 0.0
C774 C 0.09556 0.45669 0.29757 0.0
C775 C 0.15381 0.49663 0.27051 0.0
H776 H 0.08517 0.48671 0.23023 0.0
C777 C 0.15546 0.55323 0.20057 0.0
C778 C 0.12285 0.55644 0.19103 0.0
C779 C 0.15697 0.53909 0.21713 0.0
C780 C 0.10416 0.49013 0.24147 0.0
H781 H 0.1832 0.4309 0.31932 0.0
H782 H 0.18527 0.45322 0.28916 0.0
H783 H 0.08622 0.45858 0.25689 0.0
H784 H 0.066 0.549 0.1919 0.0
H785 H 0.06802 0.52591 0.22129 0.0
H786 H 0.17094 0.52871 0.25553 0.0
C787 C 0.15969 0.4505 0.29605 0.0
C788 C 0.10497 0.47376 0.25666 0.0
C789 C 0.15846 0.43746 0.31313 0.0
C790 C 0.09147 0.54685 0.19904 0.0
C791 C 0.09282 0.53321 0.21572 0.0
C792 C 0.15267 0.51329 0.25542 0.0
C793 C 0.12832 0.4607 0.28832 0.0
C794 C 0.12962 0.47688 0.27141 0.0
C795 C 0.12577 0.52815 0.22458 0.0
C796 C 0.12756 0.51043 0.24074 0.0
H797 H 0.06919 0.44277 0.32221 0.0
H798 H 0.07099 0.46445 0.29204 0.0
H799 H 0.17281 0.49969 0.28182 0.0
H800 H 0.18015 0.56 0.19447 0.0
H801 H 0.18289 0.53561 0.22341 0.0
C802 C 0.82507 0.05241 0.31303 0.0
C803 C 0.85843 0.05745 0.32133 0.0
C804 C 0.82301 0.03846 0.29637 0.0
C805 C 0.82584 0.01374 0.2574 0.0
H806 H 0.89797 0.96277 0.25338 0.0
C807 C 0.82479 0.93927 0.19813 0.0
C808 C 0.85719 0.9381 0.18808 0.0
C809 C 0.82286 0.95214 0.2153 0.0
C810 C 0.87763 0.9769 0.2543 0.0
H811 H 0.91573 0.05346 0.3181 0.0
H812 H 0.91243 0.0306 0.28865 0.0
H813 H 0.89837 0.99027 0.28041 0.0
H814 H 0.91314 0.94846 0.18842 0.0
H815 H 0.91018 0.96994 0.21859 0.0
H816 H 0.80497 -0.00019 0.23123 0.0
C817 C 0.88767 0.03636 0.29525 0.0
C818 C 0.87802 0.99291 0.26972 0.0
C819 C 0.88966 0.04986 0.31198 0.0
C820 C 0.88792 0.94885 0.19598 0.0
C821 C 0.88619 0.9612 0.21323 0.0
C822 C 0.82523 0.99747 0.24202 0.0
C823 C 0.85432 0.02948 0.28762 0.0
C824 C 0.8526 0.01192 0.27135 0.0
C825 C 0.85348 0.96359 0.22286 0.0
C826 C 0.85151 0.97912 0.24015 0.0
H827 H 0.80056 0.05764 0.32015 0.0
H828 H 0.79683 0.03355 0.29102 0.0
H829 H 0.80591 0.02814 0.25805 0.0
H830 H 0.80058 0.93152 0.19217 0.0
H831 H 0.79733 0.95358 0.22246 0.0
C832 C 0.33216 0.1378 0.05938 0.0
C833 C 0.3144 0.13333 0.0766 0.0
C834 C 0.31307 0.14097 0.04258 0.0
C835 C 0.22429 0.12672 0.02129 0.0
H836 H 0.26181 0.16461 0.97935 0.0
C837 C 0.14661 0.13594 0.95136 0.0
C838 C 0.16575 0.13098 0.93462 0.0
C839 C 0.16436 0.13938 0.96853 0.0
C840 C 0.2511 0.15385 0.9909 0.0
H841 H 0.26203 0.13019 0.08956 0.0
H842 H 0.22856 0.13665 0.06033 0.0
H843 H 0.29177 0.16618 0.00997 0.0
H844 H 0.21913 0.12708 0.92296 0.0
H845 H 0.25022 0.13357 0.95304 0.0
H846 H 0.1834 0.11467 1.00222 0.0
C847 C 0.25751 0.13695 0.05976 0.0
C848 C 0.26831 0.15467 0.00851 0.0
C849 C 0.27673 0.13356 0.07663 0.0
C850 C 0.20343 0.13092 0.93546 0.0
C851 C 0.22127 0.13462 0.95273 0.0
C852 C 0.20688 0.12616 1.00378 0.0
C853 C 0.27543 0.14006 0.04236 0.0
C854 C 0.25544 0.14088 0.02396 0.0
C855 C 0.20185 0.13822 0.96956 0.0
C856 C 0.2202 0.13954 0.9883 0.0
H857 H 0.36113 0.13779 0.05864 0.0
H858 H 0.32811 0.14299 0.02961 0.0
H859 H 0.21382 0.11541 0.03257 0.0
H860 H 0.11762 0.13632 0.9514 0.0
H861 H 0.14859 0.14257 0.98113 0.0
C862 C 0.77972 0.36773 0.93673 0.0
C863 C 0.81738 0.36828 0.93688 0.0
C864 C 0.76042 0.36369 0.95351 0.0
C865 C 0.77157 0.34389 1.00425 0.0
H866 H 0.68532 0.3822 0.01165 0.0
C867 C 0.70724 0.36417 0.07789 0.0
C868 C 0.6696 0.36345 0.07896 0.0
C869 C 0.72479 0.36124 0.06047 0.0
C870 C 0.70919 0.37116 0.00976 0.0
H871 H 0.86403 0.36404 0.95495 0.0
H872 H 0.83089 0.35777 0.98376 0.0
H873 H 0.71564 0.38328 0.98124 0.0
H874 H 0.62127 0.35772 0.06242 0.0
H875 H 0.65178 0.35281 0.03239 0.0
H876 H 0.7656 0.33261 0.03314 0.0
C877 C 0.81591 0.35994 0.97079 0.0
C878 C 0.72654 0.37166 0.99222 0.0
C879 C 0.83508 0.36376 0.95411 0.0
C880 C 0.65024 0.35856 0.06229 0.0
C881 C 0.6677 0.3559 0.04495 0.0
C882 C 0.75444 0.34367 0.02188 0.0
C883 C 0.77827 0.36022 0.97088 0.0
C884 C 0.7582 0.35819 0.9892 0.0
C885 C 0.70511 0.35777 0.04372 0.0
C886 C 0.72311 0.35738 0.02488 0.0
H887 H 0.76511 0.37112 0.92379 0.0
H888 H 0.73147 0.36361 0.95286 0.0
H889 H 0.7954 0.33283 1.00248 0.0
H890 H 0.72309 0.36801 0.09035 0.0
H891 H 0.75368 0.36282 0.06 0.0
C892 C 0.33178 0.86014 0.45043 0.0
C893 C 0.31395 0.86566 0.43341 0.0
C894 C 0.31283 0.85656 0.46721 0.0
C895 C 0.22463 0.87089 0.48921 0.0
H896 H 0.26237 0.8313 0.53016 0.0
C897 C 0.14783 0.85907 0.55908 0.0
C898 C 0.16702 0.86423 0.57576 0.0
C899 C 0.16547 0.85596 0.54185 0.0
C900 C 0.25161 0.84251 0.51888 0.0
H901 H 0.26156 0.87023 0.42075 0.0
H902 H 0.22825 0.86295 0.44993 0.0
H903 H 0.2917 0.83056 0.49936 0.0
H904 H 0.22039 0.86868 0.58731 0.0
H905 H 0.25135 0.86265 0.5571 0.0
H906 H 0.18418 0.88244 0.50873 0.0
C907 C 0.2572 0.8622 0.45038 0.0
C908 C 0.26846 0.84219 0.50117 0.0
C909 C 0.27629 0.86607 0.43352 0.0
C910 C 0.20468 0.86466 0.57484 0.0
C911 C 0.22243 0.86127 0.55751 0.0
C912 C 0.20751 0.8709 0.50681 0.0
C913 C 0.27525 0.85802 0.46761 0.0
C914 C 0.25552 0.85663 0.48608 0.0
C915 C 0.20289 0.85762 0.54072 0.0
C916 C 0.22095 0.8569 0.52192 0.0
H917 H 0.36075 0.85963 0.45107 0.0
H918 H 0.32802 0.85375 0.48005 0.0
H919 H 0.2141 0.88269 0.47824 0.0
H920 H 0.11885 0.85836 0.5591 0.0
H921 H 0.14966 0.85274 0.52926 0.0
C922 C 0.65272 0.63449 0.45304 0.0
C923 C 0.67097 0.63186 0.43574 0.0
C924 C 0.6714 0.63742 0.47 0.0
C925 C 0.76122 0.62595 0.49105 0.0
H926 H 0.72043 0.66034 0.53392 0.0
C927 C 0.8383 0.63562 0.56106 0.0
C928 C 0.81979 0.6291 0.57767 0.0
C929 C 0.82013 0.63904 0.54402 0.0
C930 C 0.73207 0.65056 0.5221 0.0
H931 H 0.72362 0.63162 0.42286 0.0
H932 H 0.75626 0.63764 0.45239 0.0
H933 H 0.69027 0.6619 0.50336 0.0
H934 H 0.76698 0.62238 0.5893 0.0
H935 H 0.7351 0.62881 0.55944 0.0
H936 H 0.80322 0.6149 0.50981 0.0
C937 C 0.72733 0.63669 0.45288 0.0
C938 C 0.71475 0.65137 0.50453 0.0
C939 C 0.70856 0.63353 0.43585 0.0
C940 C 0.78218 0.62746 0.57688 0.0
C941 C 0.76389 0.63111 0.55975 0.0
C942 C 0.77872 0.62541 0.50854 0.0
C943 C 0.70904 0.63809 0.47029 0.0
C944 C 0.72885 0.63886 0.48874 0.0
C945 C 0.78281 0.63628 0.543 0.0
C946 C 0.76426 0.63754 0.52433 0.0
H947 H 0.6238 0.63325 0.45368 0.0
H948 H 0.65614 0.63806 0.48298 0.0
H949 H 0.77269 0.61561 0.47949 0.0
H950 H 0.8672 0.63727 0.561 0.0
H951 H 0.83547 0.64345 0.53149 0.0
C952 C 0.65117 0.85628 0.95093 0.0
C953 C 0.6696 0.86309 0.93436 0.0
C954 C 0.66938 0.85284 0.96796 0.0
C955 C 0.75745 0.84197 0.99006 0.0
H956 H 0.7162 0.87706 0.03243 0.0
C957 C 0.83607 0.8587 0.05936 0.0
C958 C 0.8176 0.8617 0.07656 0.0
C959 C 0.81759 0.85549 0.04235 0.0
C960 C 0.72785 0.86667 0.02095 0.0
H961 H 0.72233 0.87019 0.92277 0.0
H962 H 0.75428 0.86369 0.95261 0.0
H963 H 0.68587 0.87738 1.00207 0.0
H964 H 0.76478 0.86219 0.08923 0.0
H965 H 0.73252 0.85561 0.05967 0.0
H966 H 0.79922 0.83094 0.00894 0.0
C967 C 0.72552 0.86121 0.95228 0.0
C968 C 0.71047 0.867 1.00343 0.0
C969 C 0.70719 0.86488 0.93515 0.0
C970 C 0.78001 0.86002 0.07633 0.0
C971 C 0.76146 0.85654 0.05926 0.0
C972 C 0.77466 0.84136 0.00768 0.0
C973 C 0.70665 0.85587 0.96901 0.0
C974 C 0.72513 0.85481 0.98771 0.0
C975 C 0.77995 0.85487 0.04192 0.0
C976 C 0.76033 0.85392 0.0234 0.0
H977 H 0.62229 0.85449 0.95098 0.0
H978 H 0.65408 0.84828 0.98047 0.0
H979 H 0.76927 0.83217 0.9783 0.0
H980 H 0.86499 0.85994 0.05881 0.0
H981 H 0.83303 0.85463 0.02944 0.0
C982 C 0.28347 0.62613 0.93833 0.0
C983 C 0.32115 0.62615 0.93751 0.0
C984 C 0.26566 0.6299 0.9556 0.0
C985 C 0.27967 0.62085 0.0064 0.0
H986 H 0.19824 0.66388 0.01347 0.0
C987 C 0.21231 0.62936 0.07973 0.0
C988 C 0.17471 0.63072 0.07994 0.0
C989 C 0.23139 0.63244 0.06278 0.0
C990 C 0.22068 0.65151 0.01176 0.0
H991 H 0.36931 0.63146 0.9543 0.0
H992 H 0.3384 0.63766 0.98401 0.0
H993 H 0.22723 0.66155 0.98262 0.0
H994 H 0.12806 0.63778 0.06241 0.0
H995 H 0.16073 0.64232 0.03326 0.0
H996 H 0.27261 0.60994 0.03513 0.0
C997 C 0.32262 0.63453 0.9714 0.0
C998 C 0.23732 0.65027 0.99403 0.0
C999 C 0.34032 0.63108 0.95424 0.0
C1000 C 0.15698 0.63652 0.06295 0.0
C1001 C 0.1759 0.63932 0.04607 0.0
C1002 C 0.26275 0.62179 0.02403 0.0
C1003 C 0.28516 0.63348 0.97241 0.0
C1004 C 0.26702 0.63492 0.99114 0.0
C1005 C 0.21335 0.63676 0.04557 0.0
C1006 C 0.23287 0.63707 0.02702 0.0
H1007 H 0.26778 0.62234 0.92581 0.0
H1008 H 0.2367 0.62898 0.95595 0.0
H1009 H 0.30227 0.60862 1.00458 0.0
H1010 H 0.22695 0.62495 0.09248 0.0
H1011 H 0.26027 0.6309 0.06314 0.0
C1012 C 0.78075 0.13024 0.43555 0.0
C1013 C 0.81841 0.13061 0.43452 0.0
C1014 C 0.76314 0.13349 0.45293 0.0
C1015 C 0.77841 0.12439 0.50386 0.0
H1016 H 0.69305 0.16375 0.51068 0.0
C1017 C 0.70942 0.13075 0.5771 0.0
C1018 C 0.67175 0.13056 0.57724 0.0
C1019 C 0.72837 0.13419 0.56014 0.0
C1020 C 0.71663 0.15241 0.50905 0.0
H1021 H 0.86674 0.13597 0.45114 0.0
H1022 H 0.83618 0.14145 0.48108 0.0
H1023 H 0.7226 0.16279 0.47995 0.0
H1024 H 0.62474 0.13494 0.55947 0.0
H1025 H 0.65729 0.1402 0.53031 0.0
H1026 H 0.77201 0.11321 0.5326 0.0
C1027 C 0.82025 0.13838 0.46852 0.0
C1028 C 0.73362 0.15194 0.49137 0.0
C1029 C 0.83776 0.13539 0.45122 0.0
C1030 C 0.65371 0.13496 0.56009 0.0
C1031 C 0.67254 0.13817 0.54321 0.0
C1032 C 0.76121 0.12459 0.52145 0.0
C1033 C 0.78278 0.13695 0.46971 0.0
C1034 C 0.7647 0.13788 0.48854 0.0
C1035 C 0.71018 0.13737 0.54283 0.0
C1036 C 0.7299 0.1385 0.52434 0.0
H1037 H 0.76489 0.12652 0.42307 0.0
H1038 H 0.73422 0.13225 0.45336 0.0
H1039 H 0.80204 0.11309 0.50213 0.0
H1040 H 0.72432 0.12744 0.58996 0.0
H1041 H 0.75733 0.13394 0.56059 0.0
C1042 C 0.34053 0.35869 0.56086 0.0
C1043 C 0.32165 0.36505 0.57739 0.0
C1044 C 0.32271 0.35516 0.54374 0.0
C1045 C 0.23622 0.34214 0.52119 0.0
H1046 H 0.27475 0.38002 0.47953 0.0
C1047 C 0.15641 0.35797 0.45241 0.0
C1048 C 0.17435 0.36261 0.43527 0.0
C1049 C 0.17531 0.35475 0.46925 0.0
C1050 C 0.26393 0.36884 0.4908 0.0
H1051 H 0.26855 0.37121 0.58884 0.0
H1052 H 0.23723 0.3644 0.55881 0.0
H1053 H 0.30473 0.38071 0.51001 0.0
H1054 H 0.22681 0.36591 0.42246 0.0
H1055 H 0.26 0.35923 0.45176 0.0
H1056 H 0.19581 0.32983 0.502 0.0
C1057 C 0.26607 0.36243 0.55926 0.0
C1058 C 0.28107 0.36941 0.50838 0.0
C1059 C 0.28402 0.36628 0.57647 0.0
C1060 C 0.21201 0.36243 0.43533 0.0
C1061 C 0.23104 0.35892 0.45225 0.0
C1062 C 0.21935 0.34124 0.5035 0.0
C1063 C 0.28538 0.35755 0.54259 0.0
C1064 C 0.26726 0.35626 0.52384 0.0
C1065 C 0.21293 0.3557 0.46958 0.0
C1066 C 0.23266 0.35484 0.48805 0.0
H1067 H 0.36947 0.35735 0.56089 0.0
H1068 H 0.33831 0.351 0.53124 0.0
H1069 H 0.22518 0.33157 0.53276 0.0
H1070 H 0.12744 0.35793 0.45308 0.0
H1071 H 0.16009 0.35267 0.48215 0.0
C1072 C 0.50801 0.03668 0.14001 0.0
C1073 C 0.50099 0.05894 0.13068 0.0
C1074 C 0.54222 0.02658 0.13972 0.0
C1075 C 0.6371 0.03659 0.13116 0.0
H1076 H 0.63349 0.97064 0.11051 0.0
C1077 C 0.76521 0.98154 0.11444 0.0
C1078 C 0.76499 0.95694 0.12048 0.0
C1079 C 0.7336 0.99522 0.11423 0.0
C1080 C 0.63498 0.98893 0.11644 0.0
H1081 H 0.52527 0.08932 0.11548 0.0
H1082 H 0.58537 0.07157 0.1152 0.0
H1083 H 0.57817 0.9933 0.11551 0.0
H1084 H 0.73112 0.92721 0.13039 0.0
H1085 H 0.67641 0.95107 0.13032 0.0
H1086 H 0.69393 0.03195 0.13262 0.0
C1087 C 0.5641 0.06193 0.12248 0.0
C1088 C 0.60334 0.00187 0.1193 0.0
C1089 C 0.5297 0.07203 0.12265 0.0
C1090 C 0.73231 0.94607 0.1256 0.0
C1091 C 0.70083 0.95976 0.12549 0.0
C1092 C 0.66888 0.02349 0.12851 0.0
C1093 C 0.57012 0.03863 0.13028 0.0
C1094 C 0.6041 0.02563 0.12693 0.0
C1095 C 0.7012 0.98458 0.12008 0.0
C1096 C 0.66805 -0.00062 0.12137 0.0
H1097 H 0.4867 0.02628 0.14661 0.0
H1098 H 0.54653 0.00877 0.14615 0.0
H1099 H 0.6382 0.05495 0.13701 0.0
H1100 H 0.78991 0.99045 0.11029 0.0
H1101 H 0.73461 0.01419 0.1097 0.0
C1102 C 0.47494 0.45219 0.14832 0.0
C1103 C 0.48251 0.43109 0.13761 0.0
C1104 C 0.4405 0.46193 0.1486 0.0
C1105 C 0.34578 0.45287 0.1385 0.0
H1106 H 0.3508 0.5202 0.12081 0.0
C1107 C 0.21909 0.5097 0.12089 0.0
C1108 C 0.21923 0.53421 0.12715 0.0
C1109 C 0.25038 0.49565 0.12147 0.0
C1110 C 0.34886 0.50154 0.12597 0.0
H1111 H 0.45903 0.40214 0.12055 0.0
H1112 H 0.39849 0.41926 0.12124 0.0
H1113 H 0.40567 0.49711 0.12571 0.0
H1114 H 0.25258 0.56323 0.13868 0.0
H1115 H 0.30659 0.53874 0.14002 0.0
H1116 H 0.28886 0.45754 0.13923 0.0
C1117 C 0.41948 0.42827 0.12921 0.0
C1118 C 0.38028 0.48832 0.12875 0.0
C1119 C 0.45412 0.41851 0.12883 0.0
C1120 C 0.25148 0.54449 0.1336 0.0
C1121 C 0.28259 0.53044 0.1343 0.0
C1122 C 0.31417 0.46625 0.13595 0.0
C1123 C 0.41291 0.45068 0.13833 0.0
C1124 C 0.37906 0.46402 0.13527 0.0
C1125 C 0.28239 0.50581 0.12839 0.0
C1126 C 0.31545 0.49085 0.12987 0.0
H1127 H 0.49604 0.4621 0.15553 0.0
H1128 H 0.4358 0.47902 0.15604 0.0
H1129 H 0.3443 0.43408 0.14345 0.0
H1130 H 0.1947 0.50123 0.11579 0.0
H1131 H 0.24947 0.47684 0.11655 0.0
C1132 C 0.51647 0.95414 0.36872 0.0
C1133 C 0.50585 0.93585 0.38155 0.0
C1134 C 0.55191 0.9623 0.3684 0.0
C1135 C 0.63481 0.96715 0.36735 0.0
H1136 H 0.66301 0.99313 0.41621 0.0
C1137 C 0.77461 0.00748 0.38307 0.0
C1138 C 0.77324 0.03222 0.38871 0.0
C1139 C 0.74358 0.99328 0.38277 0.0
C1140 C 0.65548 0.98579 0.40256 0.0
H1141 H 0.52453 0.91077 0.40329 0.0
H1142 H 0.5861 0.92551 0.40292 0.0
H1143 H 0.60614 0.9711 0.413 0.0
H1144 H 0.73882 0.06116 0.3993 0.0
H1145 H 0.68455 0.0359 0.39936 0.0
H1146 H 0.68422 0.9819 0.35694 0.0
C1147 C 0.56698 0.93336 0.39313 0.0
C1148 C 0.62323 0.97313 0.40074 0.0
C1149 C 0.53178 0.92491 0.39324 0.0
C1150 C 0.74058 0.04217 0.39487 0.0
C1151 C 0.70966 0.02777 0.39494 0.0
C1152 C 0.66745 0.97938 0.36926 0.0
C1153 C 0.57702 0.95254 0.38107 0.0
C1154 C 0.61248 0.96402 0.38307 0.0
C1155 C 0.71087 0.00343 0.38849 0.0
C1156 C 0.6777 0.98906 0.38683 0.0
H1157 H 0.49715 0.96281 0.35946 0.0
H1158 H 0.55921 0.97718 0.35901 0.0
H1159 H 0.62689 0.96028 0.35362 0.0
H1160 H 0.79937 -0.00063 0.37811 0.0
H1161 H 0.74499 0.97449 0.37783 0.0
C1162 C 0.4774 0.5425 0.36556 0.0
C1163 C 0.48442 0.56301 0.37703 0.0
C1164 C 0.44333 0.53219 0.36505 0.0
C1165 C 0.34851 0.53943 0.37637 0.0
H1166 H 0.35536 0.47073 0.39043 0.0
C1167 C 0.22365 0.48135 0.39426 0.0
C1168 C 0.22299 0.45732 0.38702 0.0
C1169 C 0.25499 0.4953 0.39351 0.0
C1170 C 0.3529 0.48978 0.38626 0.0
H1171 H 0.46025 0.59035 0.39534 0.0
H1172 H 0.40037 0.57224 0.39429 0.0
H1173 H 0.40965 0.49456 0.38576 0.0
H1174 H 0.25493 0.42896 0.3736 0.0
H1175 H 0.30914 0.45335 0.37195 0.0
H1176 H 0.29165 0.53451 0.37649 0.0
C1177 C 0.4215 0.56413 0.38587 0.0
C1178 C 0.384 0.50341 0.3836 0.0
C1179 C 0.45577 0.57446 0.38646 0.0
C1180 C 0.25455 0.44732 0.37946 0.0
C1181 C 0.28573 0.46132 0.37856 0.0
C1182 C 0.31724 0.52566 0.37881 0.0
C1183 C 0.41555 0.54226 0.37588 0.0
C1184 C 0.3821 0.52827 0.37848 0.0
C1185 C 0.28624 0.48555 0.3854 0.0
C1186 C 0.31914 0.50062 0.38365 0.0
H1187 H 0.4987 0.53348 0.35783 0.0
H1188 H 0.4391 0.51558 0.35694 0.0
H1189 H 0.34648 0.5586 0.37248 0.0
H1190 H 0.19982 0.48955 0.40027 0.0
H1191 H 0.25467 0.51374 0.39921 0.0
C1192 C 0.24642 0.0442 0.89245 0.0
C1193 C 0.2135 0.03353 0.88759 0.0
C1194 C 0.27786 0.03042 0.8916 0.0
C1195 C 0.34165 0.00369 0.87605 0.0
H1196 H 0.3446 0.93414 0.88746 0.0
C1197 C 0.47107 0.94993 0.86507 0.0
C1198 C 0.48049 0.93396 0.87981 0.0
C1199 C 0.43622 0.95898 0.86371 0.0
C1200 C 0.34432 0.95359 0.8843 0.0
H1201 H 0.18749 -7e-05 0.87845 0.0
H1202 H 0.24228 0.97621 0.87633 0.0
H1203 H 0.28935 0.95686 0.89223 0.0
H1204 H 0.4604 0.91377 0.90399 0.0
H1205 H 0.40028 0.93024 0.90212 0.0
H1206 H 0.39706 0.00086 0.86928 0.0
C1207 C 0.24392 0.99498 0.88128 0.0
C1208 C 0.31248 0.96658 0.88684 0.0
C1209 C 0.21245 0.00863 0.88246 0.0
C1210 C 0.45393 0.92601 0.89243 0.0
C1211 C 0.4193 0.93541 0.8913 0.0
C1212 C 0.37358 0.99082 0.87382 0.0
C1213 C 0.2771 0.00582 0.88552 0.0
C1214 C 0.31084 0.99185 0.88287 0.0
C1215 C 0.41033 0.95263 0.87729 0.0
C1216 C 0.37542 0.96563 0.87804 0.0
H1217 H 0.24795 0.06331 0.89661 0.0
H1218 H 0.30283 0.03917 0.89547 0.0
H1219 H 0.34122 0.023 0.87242 0.0
H1220 H 0.49093 0.95608 0.85498 0.0
H1221 H 0.42995 0.97164 0.85241 0.0
C1222 C 0.746 0.45737 0.89359 0.0
C1223 C 0.77896 0.46642 0.88707 0.0
C1224 C 0.71554 0.47223 0.89316 0.0
C1225 C 0.67441 0.52046 0.86648 0.0
H1226 H 0.61467 0.53107 0.91052 0.0
C1227 C 0.53896 0.57557 0.89095 0.0
C1228 C 0.51299 0.56409 0.8796 0.0
C1229 C 0.57447 0.56767 0.8905 0.0
C1230 C 0.63135 0.52846 0.89817 0.0
H1231 H 0.80599 0.49809 0.87509 0.0
H1232 H 0.75241 0.52376 0.87392 0.0
H1233 H 0.67089 0.50834 0.91371 0.0
H1234 H 0.50448 0.53697 0.85762 0.0
H1235 H 0.5669 0.52357 0.85658 0.0
H1236 H 0.63398 0.53963 0.85079 0.0
C1237 C 0.75041 0.50532 0.87956 0.0
C1238 C 0.66323 0.51536 0.89998 0.0
C1239 C 0.781 0.49068 0.88035 0.0
C1240 C 0.52383 0.54603 0.86663 0.0
C1241 C 0.55952 0.53842 0.86597 0.0
C1242 C 0.64212 0.53315 0.8646 0.0
C1243 C 0.71747 0.49614 0.88584 0.0
C1244 C 0.68483 0.51113 0.88413 0.0
C1245 C 0.58473 0.54853 0.87843 0.0
C1246 C 0.6203 0.53712 0.88042 0.0
H1247 H 0.7437 0.43876 0.89885 0.0
H1248 H 0.69025 0.46481 0.898 0.0
H1249 H 0.6907 0.51724 0.85407 0.0
H1250 H 0.53153 0.58956 0.90109 0.0
H1251 H 0.59362 0.57581 0.90013 0.0
C1252 C 0.21881 0.98359 0.61617 0.0
C1253 C 0.21886 0.95899 0.6222 0.0
C1254 C 0.25036 0.99734 0.61637 0.0
C1255 C 0.34893 0.99098 0.61979 0.0
H1256 H 0.34516 0.05767 0.63898 0.0
C1257 C 0.47533 0.03921 0.64327 0.0
C1258 C 0.48299 0.06072 0.63306 0.0
C1259 C 0.44092 0.02944 0.64321 0.0
C1260 C 0.34641 0.03911 0.63354 0.0
H1261 H 0.25232 0.92941 0.63273 0.0
H1262 H 0.30687 0.9534 0.63343 0.0
H1263 H 0.28951 0.03456 0.63454 0.0
H1264 H 0.45963 0.09027 0.61656 0.0
H1265 H 0.39914 0.0731 0.61668 0.0
H1266 H 0.40577 0.99526 0.61932 0.0
C1267 C 0.28269 0.96202 0.62821 0.0
C1268 C 0.31468 0.02594 0.63085 0.0
C1269 C 0.2513 0.94825 0.62787 0.0
C1270 C 0.45469 0.07356 0.62442 0.0
C1271 C 0.42008 0.06379 0.62448 0.0
C1272 C 0.38049 0.00398 0.62271 0.0
C1273 C 0.28253 0.9868 0.62268 0.0
C1274 C 0.31569 0.0016 0.62417 0.0
C1275 C 0.41345 0.04108 0.63313 0.0
C1276 C 0.37952 0.02799 0.62984 0.0
H1277 H 0.19428 0.9924 0.61162 0.0
H1278 H 0.24949 0.01628 0.61174 0.0
H1279 H 0.35061 0.97252 0.61419 0.0
H1280 H 0.49633 0.02906 0.65037 0.0
H1281 H 0.43614 0.0121 0.65027 0.0
C1282 C 0.52463 0.44994 0.64448 0.0
C1283 C 0.51382 0.43156 0.63177 0.0
C1284 C 0.56022 0.45781 0.64486 0.0
C1285 C 0.63166 0.4679 0.61251 0.0
H1286 H 0.69217 0.47803 0.65633 0.0
C1287 C 0.74714 0.53847 0.6179 0.0
C1288 C 0.78015 0.52902 0.62399 0.0
C1289 C 0.7166 0.52368 0.61802 0.0
C1290 C 0.67555 0.47512 0.644 0.0
H1291 H 0.53228 0.40598 0.61034 0.0
H1292 H 0.59417 0.42022 0.61078 0.0
H1293 H 0.63516 0.45603 0.65978 0.0
H1294 H 0.80728 0.49667 0.63477 0.0
H1295 H 0.75354 0.47109 0.63545 0.0
H1296 H 0.67117 0.48799 0.59691 0.0
C1297 C 0.57508 0.42835 0.62046 0.0
C1298 C 0.64309 0.46266 0.64598 0.0
C1299 C 0.53971 0.42017 0.6203 0.0
C1300 C 0.78223 0.50439 0.62984 0.0
C1301 C 0.75157 0.4898 0.63036 0.0
C1302 C 0.6637 0.4808 0.61062 0.0
C1303 C 0.58533 0.44767 0.63236 0.0
C1304 C 0.62088 0.45906 0.63025 0.0
C1305 C 0.71853 0.49943 0.62463 0.0
C1306 C 0.68574 0.48461 0.62636 0.0
H1307 H 0.50533 0.45895 0.65355 0.0
H1308 H 0.56762 0.47281 0.65412 0.0
H1309 H 0.61468 0.46554 0.60024 0.0
H1310 H 0.74482 0.55737 0.6133 0.0
H1311 H 0.69124 0.53143 0.6136 0.0
C1312 C 0.2458 0.45481 0.6193 0.0
C1313 C 0.27913 0.46513 0.62383 0.0
C1314 C 0.21471 0.46896 0.6203 0.0
C1315 C 0.18109 0.53309 0.62502 0.0
H1316 H 0.09709 0.49939 0.64393 0.0
C1317 C 0.0233 0.54995 0.64863 0.0
C1318 C 0.01297 0.56556 0.63385 0.0
C1319 C 0.05839 0.54125 0.64971 0.0
C1320 C 0.1204 0.50931 0.639 0.0
H1321 H 0.30623 0.49856 0.63241 0.0
H1322 H 0.25198 0.52299 0.63476 0.0
H1323 H 0.15255 0.47703 0.64028 0.0
H1324 H 0.0317 0.58566 0.60935 0.0
H1325 H 0.09235 0.5698 0.61074 0.0
H1326 H 0.14908 0.56564 0.62444 0.0
C1327 C 0.24978 0.50416 0.63 0.0
C1328 C 0.15212 0.49628 0.63649 0.0
C1329 C 0.28093 0.49011 0.62869 0.0
C1330 C 0.03893 0.5737 0.62095 0.0
C1331 C 0.07384 0.56462 0.6218 0.0
C1332 C 0.1494 0.54626 0.6278 0.0
C1333 C 0.21619 0.49362 0.6262 0.0
C1334 C 0.18273 0.50787 0.62918 0.0
C1335 C 0.08363 0.54754 0.63577 0.0
C1336 C 0.11849 0.53444 0.6346 0.0
H1337 H 0.24365 0.43567 0.61531 0.0
H1338 H 0.18943 0.46042 0.61673 0.0
H1339 H 0.20408 0.54263 0.61928 0.0
H1340 H 0.00389 0.54365 0.65892 0.0
H1341 H 0.06528 0.52877 0.66103 0.0
C1342 C 0.751 0.04467 0.63221 0.0
C1343 C 0.71879 0.03488 0.62525 0.0
C1344 C 0.78115 0.02982 0.63412 0.0
C1345 C 0.82363 0.97364 0.61757 0.0
H1346 H 0.87571 0.9781 0.66485 0.0
C1347 C 0.95409 0.92046 0.62817 0.0
C1348 C 0.98255 0.93533 0.63438 0.0
C1349 C 0.91877 0.92849 0.62995 0.0
C1350 C 0.86143 0.97665 0.65159 0.0
H1351 H 0.69357 0.00212 0.61387 0.0
H1352 H 0.74661 0.9763 0.61701 0.0
H1353 H 0.82048 0.00141 0.6607 0.0
H1354 H -0.00401 0.96928 0.64881 0.0
H1355 H 0.9347 0.98336 0.65161 0.0
H1356 H 0.86522 0.94971 0.60812 0.0
C1357 C 0.74824 0.99542 0.62113 0.0
C1358 C 0.82994 0.99002 0.6492 0.0
C1359 C 0.71794 0.01022 0.61935 0.0
C1360 C 0.97477 0.95746 0.6437 0.0
C1361 C 0.93952 0.96547 0.64545 0.0
C1362 C 0.85527 0.96038 0.61991 0.0
C1363 C 0.7798 0.00496 0.62896 0.0
C1364 C 0.81127 0.98908 0.63201 0.0
C1365 C 0.91126 0.95148 0.638 0.0
C1366 C 0.87495 0.96223 0.63678 0.0
H1367 H 0.75265 0.06358 0.63686 0.0
H1368 H 0.80546 0.03772 0.63984 0.0
H1369 H 0.80972 0.97268 0.60417 0.0
H1370 H 0.9591 0.90315 0.62112 0.0
H1371 H 0.89743 0.91712 0.6244 0.0
C1372 C 0.28132 0.50328 0.88212 0.0
C1373 C 0.27934 0.52775 0.88837 0.0
C1374 C 0.25074 0.48859 0.88174 0.0
C1375 C 0.16312 0.47958 0.90236 0.0
H1376 H 0.13475 0.45298 0.85374 0.0
C1377 C 0.03824 0.41948 0.8941 0.0
C1378 C 0.0129 0.43018 0.88194 0.0
C1379 C 0.07377 0.42736 0.89389 0.0
C1380 C 0.14263 0.46012 0.8674 0.0
H1381 H 0.24419 0.55573 0.8998 0.0
H1382 H 0.19078 0.52965 0.89965 0.0
H1383 H 0.19157 0.47529 0.85671 0.0
H1384 H 0.00557 0.45595 0.85891 0.0
H1385 H 0.06803 0.4693 0.85828 0.0
H1386 H 0.11416 0.46463 0.91305 0.0
C1387 C 0.21602 0.52207 0.89486 0.0
C1388 C 0.175 0.47276 0.86912 0.0
C1389 C 0.24646 0.53696 0.89489 0.0
C1390 C 0.02443 0.44748 0.86853 0.0
C1391 C 0.06014 0.45505 0.86811 0.0
C1392 C 0.13114 0.46654 0.90073 0.0
C1393 C 0.21785 0.49794 0.88797 0.0
C1394 C 0.18513 0.48293 0.88654 0.0
C1395 C 0.08472 0.44571 0.88127 0.0
C1396 C 0.12038 0.45705 0.88318 0.0
H1397 H 0.30623 0.49571 0.87689 0.0
H1398 H 0.2527 0.46998 0.87644 0.0
H1399 H 0.17054 0.48724 0.91592 0.0
H1400 H 0.03024 0.40612 0.90461 0.0
H1401 H 0.09241 0.41981 0.90407 0.0
C1402 C 0.95053 0.07567 0.88469 0.0
C1403 C 0.97877 0.06273 0.87608 0.0
C1404 C 0.91583 0.06604 0.88454 0.0
C1405 C 0.87681 0.0063 0.88669 0.0
H1406 H 0.78519 0.0361 0.87508 0.0
C1407 C 0.74872 0.94951 0.88243 0.0
C1408 C 0.71617 0.95995 0.88826 0.0
C1409 C 0.77978 0.9636 0.88184 0.0
C1410 C 0.81056 0.02771 0.8787 0.0
H1411 H 0.99194 0.03123 0.8586 0.0
H1412 H 0.93159 0.0145 0.85853 0.0
H1413 H 0.84046 0.05953 0.87016 0.0
H1414 H 0.69106 0.99318 0.89883 0.0
H1415 H 0.74576 0.01765 0.89825 0.0
H1416 H 0.84756 0.97477 0.89563 0.0
C1417 C 0.93647 0.03179 0.86564 0.0
C1418 C 0.84206 0.04105 0.87573 0.0
C1419 C 0.97097 0.04141 0.86569 0.0
C1420 C 0.71569 0.9846 0.89418 0.0
C1421 C 0.74693 -0.00132 0.89371 0.0
C1422 C 0.84551 0.99314 0.88988 0.0
C1423 C 0.9091 0.04341 0.87581 0.0
C1424 C 0.87538 0.03018 0.87934 0.0
C1425 C 0.77919 0.98841 0.88726 0.0
C1426 C 0.81205 0.00347 0.88556 0.0
H1427 H 0.9556 0.09225 0.8927 0.0
H1428 H 0.89497 0.07532 0.89241 0.0
H1429 H 0.90228 -0.0022 0.89001 0.0
H1430 H 0.7501 0.93064 0.87767 0.0
H1431 H 0.80403 0.95518 0.87651 0.0
C1432 C 0.97688 0.45109 0.36671 0.0
C1433 C 0.98607 0.43531 0.3816 0.0
C1434 C 0.94232 0.46066 0.36542 0.0
C1435 C 0.88032 0.49339 0.37502 0.0
H1436 H 0.79556 0.46058 0.39395 0.0
C1437 C 0.75278 0.54778 0.39183 0.0
C1438 C 0.7199 0.53681 0.3873 0.0
C1439 C 0.78433 0.53406 0.39127 0.0
C1440 C 0.81883 0.46998 0.3884 0.0
H1441 H 0.96593 0.41612 0.40624 0.0
H1442 H 0.90629 0.43349 0.40448 0.0
H1443 H 0.85059 0.43743 0.38989 0.0
H1444 H 0.69414 0.5028 0.3789 0.0
H1445 H 0.74904 0.4792 0.37725 0.0
H1446 H 0.84827 0.52565 0.37272 0.0
C1447 C 0.92525 0.43809 0.39347 0.0
C1448 C 0.85056 0.45674 0.38629 0.0
C1449 C 0.95958 0.42816 0.39454 0.0
C1450 C 0.71905 0.51174 0.38265 0.0
C1451 C 0.75059 0.49815 0.38177 0.0
C1452 C 0.84848 0.50651 0.37682 0.0
C1453 C 0.91651 0.45505 0.37923 0.0
C1454 C 0.88183 0.46836 0.3798 0.0
C1455 C 0.78369 0.5092 0.38583 0.0
C1456 C 0.81745 0.49507 0.38377 0.0
H1457 H -0.00329 0.45663 0.35639 0.0
H1458 H 0.93622 0.47309 0.35394 0.0
H1459 H 0.90395 0.50312 0.37029 0.0
H1460 H 0.75418 0.56703 0.39561 0.0
H1461 H 0.80924 0.54302 0.39495 0.0
C1462 C 0.23692 0.95275 0.38078 0.0
C1463 C 0.2694 0.96313 0.38679 0.0
C1464 C 0.20591 0.96688 0.38002 0.0
C1465 C 0.17491 0.03109 0.37711 0.0
H1466 H 0.08323 0.00085 0.388 0.0
C1467 C 0.03437 0.07851 0.38344 0.0
C1468 C 0.00631 0.06561 0.37462 0.0
C1469 C 0.06919 0.06906 0.38321 0.0
C1470 C 0.10868 0.00945 0.38479 0.0
H1471 H 0.29443 0.99637 0.39739 0.0
H1472 H 0.2398 0.02091 0.39653 0.0
H1473 H 0.13799 0.97786 0.39352 0.0
H1474 H 0.9936 0.03444 0.3567 0.0
H1475 H 0.05415 0.01803 0.35649 0.0
H1476 H 0.1449 0.063 0.36882 0.0
C1477 C 0.23865 0.00195 0.39199 0.0
C1478 C 0.14003 0.9963 0.38792 0.0
C1479 C 0.26986 0.98782 0.39263 0.0
C1480 C 0.01443 0.04458 0.36395 0.0
C1481 C 0.04905 0.03514 0.36382 0.0
C1482 C 0.14335 0.04443 0.37421 0.0
C1483 C 0.20643 0.9917 0.38545 0.0
C1484 C 0.17349 0.00674 0.38375 0.0
C1485 C 0.07624 0.04665 0.3742 0.0
C1486 C 0.11004 0.03345 0.37767 0.0
H1487 H 0.23556 0.93387 0.37605 0.0
H1488 H 0.18173 0.95848 0.37459 0.0
H1489 H 0.20026 0.03959 0.37362 0.0
H1490 H 0.02904 0.09485 0.39168 0.0
H1491 H 0.0899 0.07826 0.39125 0.0
C1492 C 0.95677 0.57034 0.11887 0.0
C1493 C 0.98257 0.5604 0.13115 0.0
C1494 C 0.92184 0.56135 0.11888 0.0
C1495 C 0.85406 0.52816 0.14512 0.0
H1496 H 0.82789 0.49924 0.09693 0.0
C1497 C 0.71503 0.48674 0.12923 0.0
C1498 C 0.71644 0.46176 0.12429 0.0
C1499 C 0.74614 0.50086 0.12951 0.0
C1500 C 0.83487 0.50737 0.11039 0.0
H1501 H 0.9913 0.53469 0.15409 0.0
H1502 H 0.92969 0.51943 0.15439 0.0
H1503 H 0.88428 0.52191 0.09991 0.0
H1504 H 0.75113 0.43224 0.11495 0.0
H1505 H 0.80558 0.45734 0.11485 0.0
H1506 H 0.80452 0.51364 0.15557 0.0
C1507 C 0.93687 0.53392 0.14462 0.0
C1508 C 0.86685 0.5204 0.11208 0.0
C1509 C 0.97205 0.54259 0.1444 0.0
C1510 C 0.74932 0.45143 0.11884 0.0
C1511 C 0.78034 0.46573 0.11874 0.0
C1512 C 0.82169 0.51556 0.14333 0.0
C1513 C 0.91193 0.54266 0.13142 0.0
C1514 C 0.87683 0.53063 0.1295 0.0
C1515 C 0.77902 0.49038 0.12447 0.0
C1516 C 0.81216 0.50483 0.12601 0.0
H1517 H 0.964 0.58405 0.10847 0.0
H1518 H 0.90284 0.56841 0.10867 0.0
H1519 H 0.86138 0.53589 0.15867 0.0
H1520 H 0.69012 0.49518 0.13363 0.0
H1521 H 0.74462 0.51989 0.13389 0.0
C1522 C 0.26259 0.01508 0.11721 0.0
C1523 C 0.26356 0.03938 0.12388 0.0
C1524 C 0.23097 0.00147 0.11807 0.0
C1525 C 0.13311 0.00801 0.12442 0.0
H1526 H 0.13826 0.94009 0.14077 0.0
C1527 C 0.00703 0.95691 0.14499 0.0
C1528 C 0.00086 0.93554 0.13435 0.0
C1529 C 0.04104 0.96729 0.14568 0.0
C1530 C 0.13658 0.95902 0.13616 0.0
H1531 H 0.2318 0.06862 0.13627 0.0
H1532 H 0.17705 0.04484 0.13808 0.0
H1533 H 0.19349 0.96362 0.13638 0.0
H1534 H 0.02634 0.90686 0.11782 0.0
H1535 H 0.086 0.92512 0.11916 0.0
H1536 H 0.07631 0.00355 0.1245 0.0
C1537 C 0.2005 0.03637 0.13188 0.0
C1538 C 0.16808 0.97244 0.13351 0.0
C1539 C 0.23198 0.05001 0.13089 0.0
C1540 C 0.03015 0.92344 0.12601 0.0
C1541 C 0.06431 0.93385 0.12678 0.0
C1542 C 0.10177 0.99472 0.12727 0.0
C1543 C 0.19974 0.01186 0.12571 0.0
C1544 C 0.16661 0.99714 0.12771 0.0
C1545 C 0.06956 0.95644 0.13587 0.0
C1546 C 0.1032 0.9702 0.13329 0.0
H1547 H 0.28642 0.00637 0.11162 0.0
H1548 H 0.23106 0.98277 0.11288 0.0
H1549 H 0.13105 0.02679 0.11955 0.0
H1550 H 0.98521 0.96646 0.15188 0.0
H1551 H 0.0447 0.98449 0.15312 0.0
C1552 C 0.39914 0.18095 0.15775 0.0
C1553 C 0.41858 0.16222 0.14877 0.0
C1554 C 0.417 0.20154 0.16507 0.0
C1555 C 0.5081 0.22617 0.17651 0.0
H1556 H 0.46929 0.28728 0.15754 0.0
C1557 C 0.59397 0.30947 0.15488 0.0
C1558 C 0.57834 0.33283 0.15557 0.0
C1559 C 0.57456 0.28892 0.16099 0.0
C1560 C 0.4803 0.27055 0.1634 0.0
H1561 H 0.47202 0.14944 0.14175 0.0
H1562 H 0.5027 0.18499 0.15422 0.0
H1563 H 0.43329 0.25031 0.15609 0.0
H1564 H 0.53203 0.35363 0.16457 0.0
H1565 H 0.49877 0.31807 0.17591 0.0
H1566 H 0.55589 0.24633 0.18293 0.0
C1567 C 0.47388 0.18403 0.15573 0.0
C1568 C 0.45951 0.24928 0.16258 0.0
C1569 C 0.45616 0.16373 0.14833 0.0
C1570 C 0.54454 0.33569 0.16392 0.0
C1571 C 0.5254 0.31532 0.17023 0.0
C1572 C 0.52897 0.24748 0.17731 0.0
C1573 C 0.45456 0.20351 0.16375 0.0
C1574 C 0.4736 0.22667 0.1685 0.0
C1575 C 0.53938 0.29156 0.16795 0.0
C1576 C 0.5157 0.26978 0.17022 0.0
H1577 H 0.37019 0.18021 0.15838 0.0
H1578 H 0.40138 0.2162 0.1713 0.0
H1579 H 0.51953 0.20908 0.18148 0.0
H1580 H 0.61982 0.30686 0.14825 0.0
H1581 H 0.58608 0.27088 0.15891 0.0
C1582 C 0.59552 0.68431 0.35544 0.0
C1583 C 0.57454 0.66469 0.36196 0.0
C1584 C 0.57906 0.70584 0.34889 0.0
C1585 C 0.49045 0.733 0.33552 0.0
H1586 H 0.5262 0.7901 0.36206 0.0
C1587 C 0.4018 0.81457 0.35874 0.0
C1588 C 0.41805 0.83759 0.3609 0.0
C1589 C 0.42208 0.79445 0.35254 0.0
C1590 C 0.51613 0.77458 0.35412 0.0
H1591 H 0.52019 0.65127 0.36519 0.0
H1592 H 0.49178 0.68844 0.35394 0.0
H1593 H 0.56139 0.75276 0.36174 0.0
H1594 H 0.46677 0.85841 0.3567 0.0
H1595 H 0.50164 0.82376 0.34518 0.0
H1596 H 0.44433 0.75467 0.32864 0.0
C1597 C 0.52074 0.6875 0.35381 0.0
C1598 C 0.53647 0.7531 0.35392 0.0
C1599 C 0.53708 0.66625 0.36049 0.0
C1600 C 0.4538 0.84071 0.35529 0.0
C1601 C 0.47381 0.82083 0.34884 0.0
C1602 C 0.47004 0.75455 0.3357 0.0
C1603 C 0.54142 0.70788 0.34852 0.0
C1604 C 0.52339 0.73181 0.34515 0.0
C1605 C 0.45875 0.79722 0.34824 0.0
C1606 C 0.4822 0.7754 0.34547 0.0
H1607 H 0.62445 0.68353 0.35637 0.0
H1608 H 0.59571 0.72119 0.34474 0.0
H1609 H 0.47984 0.71697 0.32841 0.0
H1610 H 0.37431 0.81176 0.36313 0.0
H1611 H 0.40964 0.77651 0.35234 0.0
C1612 C 0.53121 0.83772 0.8559 0.0
C1613 C 0.56709 0.83489 0.86137 0.0
C1614 C 0.51144 0.81768 0.84952 0.0
C1615 C 0.51609 0.7515 0.83631 0.0
H1616 H 0.42556 0.7488 0.86308 0.0
C1617 C 0.4521 0.66259 0.86177 0.0
C1618 C 0.41476 0.66057 0.86363 0.0
C1619 C 0.46761 0.68401 0.85489 0.0
C1620 C 0.45022 0.74939 0.85505 0.0
H1621 H 0.61131 0.80941 0.86339 0.0
H1622 H 0.57643 0.77389 0.85272 0.0
H1623 H 0.45997 0.78648 0.86313 0.0
H1624 H 0.36414 0.67874 0.85852 0.0
H1625 H 0.39144 0.71673 0.84653 0.0
H1626 H 0.50687 0.71384 0.82907 0.0
C1627 C 0.56369 0.79173 0.85298 0.0
C1628 C 0.47012 0.77106 0.8551 0.0
C1629 C 0.58372 0.81201 0.85912 0.0
C1630 C 0.393 0.67988 0.85729 0.0
C1631 C 0.40865 0.7016 0.85053 0.0
C1632 C 0.49612 0.72976 0.83626 0.0
C1633 C 0.52691 0.7942 0.84884 0.0
C1634 C 0.5038 0.7722 0.8462 0.0
C1635 C 0.44621 0.7041 0.84977 0.0
C1636 C 0.46351 0.72824 0.84618 0.0
H1637 H 0.51795 0.85532 0.85734 0.0
H1638 H 0.48351 0.82039 0.84598 0.0
H1639 H 0.54161 0.75187 0.82906 0.0
H1640 H 0.46956 0.64784 0.86632 0.0
H1641 H 0.49655 0.6853 0.85472 0.0
C1642 C 0.40138 0.31264 0.65317 0.0
C1643 C 0.41794 0.33569 0.65228 0.0
C1644 C 0.4207 0.29221 0.6596 0.0
C1645 C 0.51446 0.27216 0.6604 0.0
H1646 H 0.475 0.21329 0.68292 0.0
C1647 C 0.5924 0.18125 0.65763 0.0
C1648 C 0.57165 0.16217 0.65003 0.0
C1649 C 0.57578 0.20258 0.66447 0.0
C1650 C 0.4865 0.22966 0.67671 0.0
H1651 H 0.46598 0.35619 0.65886 0.0
H1652 H 0.49913 0.32092 0.67075 0.0
H1653 H 0.43999 0.25121 0.6831 0.0
H1654 H 0.51734 0.14949 0.64513 0.0
H1655 H 0.48873 0.18632 0.65681 0.0
H1656 H 0.56012 0.2505 0.65317 0.0
C1657 C 0.47183 0.31826 0.66601 0.0
C1658 C 0.46639 0.25134 0.67678 0.0
C1659 C 0.45279 0.33848 0.65936 0.0
C1660 C 0.53412 0.16405 0.65064 0.0
C1661 C 0.51763 0.1851 0.65758 0.0
C1662 C 0.53449 0.25054 0.66033 0.0
C1663 C 0.4567 0.29467 0.66534 0.0
C1664 C 0.47972 0.27266 0.66811 0.0
C1665 C 0.53819 0.20496 0.66404 0.0
C1666 C 0.52028 0.22881 0.6679 0.0
H1667 H 0.37464 0.31009 0.64759 0.0
H1668 H 0.40826 0.27429 0.65878 0.0
H1669 H 0.52546 0.28809 0.65334 0.0
H1670 H 0.62136 0.18023 0.6574 0.0
H1671 H 0.59235 0.21752 0.66952 0.0
C1672 C 0.08962 0.81486 0.65723 0.0
C1673 C 0.06908 0.83395 0.64948 0.0
C1674 C 0.07278 0.79365 0.66413 0.0
C1675 C 0.98303 0.76698 0.67614 0.0
H1676 H 0.02238 0.70805 0.65369 0.0
C1677 C 0.89847 0.68354 0.65287 0.0
C1678 C 0.91499 0.66045 0.65252 0.0
C1679 C 0.91759 0.70412 0.65918 0.0
C1680 C 0.01126 0.72414 0.66049 0.0
H1681 H 0.01489 0.84677 0.6444 0.0
H1682 H 0.98592 0.81015 0.65615 0.0
H1683 H 0.05714 0.74559 0.65332 0.0
H1684 H 0.96272 0.64008 0.65991 0.0
H1685 H -0.00447 0.67565 0.67157 0.0
H1686 H 0.9363 0.74561 0.68243 0.0
C1687 C 0.01482 0.81126 0.657 0.0
C1688 C 0.03135 0.74573 0.6603 0.0
C1689 C 0.03153 0.8322 0.65002 0.0
C1690 C 0.94955 0.65781 0.66002 0.0
C1691 C 0.9684 0.6782 0.66653 0.0
C1692 C 0.96285 0.74533 0.6763 0.0
C1693 C 0.03517 0.79138 0.66361 0.0
C1694 C 0.01704 0.76762 0.66755 0.0
C1695 C 0.95336 0.70177 0.66532 0.0
C1696 C 0.97634 0.72383 0.66797 0.0
H1697 H 0.11859 0.81578 0.65707 0.0
H1698 H 0.08919 0.77871 0.66931 0.0
H1699 H 0.97145 0.78346 0.68212 0.0
H1700 H 0.87196 0.68597 0.64694 0.0
H1701 H 0.90524 0.72203 0.65795 0.0
C1702 C 0.89602 0.31548 0.85665 0.0
C1703 C 0.91687 0.33427 0.8646 0.0
C1704 C 0.91256 0.2943 0.84946 0.0
C1705 C 0.00175 0.26771 0.83652 0.0
H1706 H 0.96345 0.20842 0.85889 0.0
C1707 C 0.08783 0.1846 0.85862 0.0
C1708 C 0.07157 0.16144 0.85914 0.0
C1709 C 0.06824 0.20508 0.85251 0.0
C1710 C 0.97425 0.22461 0.8521 0.0
H1711 H 0.97123 0.3466 0.86985 0.0
H1712 H -0.00033 0.31008 0.85756 0.0
H1713 H 0.92847 0.24588 0.85982 0.0
H1714 H 0.0238 0.14082 0.85224 0.0
H1715 H 0.99018 0.1762 0.84091 0.0
H1716 H 0.04839 0.24656 0.82965 0.0
C1717 C 0.97078 0.31139 0.85678 0.0
C1718 C 0.95404 0.24615 0.85261 0.0
C1719 C 0.95438 0.33225 0.86408 0.0
C1720 C 0.03677 0.15862 0.85201 0.0
C1721 C 0.01745 0.1789 0.84569 0.0
C1722 C 0.02204 0.24612 0.83602 0.0
C1723 C 0.95014 0.29184 0.84987 0.0
C1724 C 0.96805 0.26815 0.84543 0.0
C1725 C 0.03228 0.20255 0.84674 0.0
C1726 C 0.00897 0.22449 0.84433 0.0
H1727 H 0.86707 0.31664 0.8568 0.0
H1728 H 0.89595 0.27957 0.8441 0.0
H1729 H 0.01307 0.28431 0.8306 0.0
H1730 H 0.11452 0.18717 0.86426 0.0
H1731 H 0.08045 0.22305 0.85362 0.0
C1732 C 0.89281 0.18602 0.35889 0.0
C1733 C 0.9083 0.16264 0.35786 0.0
C1734 C 0.91214 0.20661 0.3528 0.0
C1735 C 0.00631 0.22491 0.34993 0.0
H1736 H 0.96699 0.28648 0.33211 0.0
C1737 C 0.08792 0.31441 0.3552 0.0
C1738 C 0.06868 0.33329 0.36412 0.0
C1739 C 0.06987 0.29379 0.34806 0.0
C1740 C 0.97844 0.26937 0.33702 0.0
H1741 H 0.95429 0.14187 0.34838 0.0
H1742 H 0.98743 0.17754 0.33711 0.0
H1743 H 0.93047 0.2493 0.3308 0.0
H1744 H 0.01537 0.34626 0.37123 0.0
H1745 H 0.98439 0.31065 0.3591 0.0
H1746 H 0.0535 0.24505 0.35706 0.0
C1747 C 0.96095 0.18025 0.34299 0.0
C1748 C 0.95748 0.2481 0.33628 0.0
C1749 C 0.94187 0.15982 0.34925 0.0
C1750 C 0.0311 0.33186 0.3647 0.0
C1751 C 0.0132 0.31152 0.35749 0.0
C1752 C 0.02718 0.24614 0.3507 0.0
C1753 C 0.94712 0.20399 0.34556 0.0
C1754 C 0.9708 0.22576 0.34327 0.0
C1755 C 0.03232 0.29193 0.34951 0.0
C1756 C 0.01308 0.26879 0.34487 0.0
H1757 H 0.86715 0.18857 0.36574 0.0
H1758 H 0.90076 0.22464 0.3551 0.0
H1759 H 0.01735 0.20813 0.35569 0.0
H1760 H 0.11687 0.31508 0.35447 0.0
H1761 H 0.08535 0.27905 0.34185 0.0
C1762 C 0.94971 0.83677 0.15856 0.0
C1763 C 0.91454 0.83385 0.15197 0.0
C1764 C 0.96903 0.81669 0.16524 0.0
C1765 C 0.96386 0.74992 0.17687 0.0
H1766 H 0.05752 0.74893 0.15321 0.0
C1767 C 0.03284 0.66245 0.15168 0.0
C1768 C 0.07039 0.66082 0.15124 0.0
C1769 C 0.01594 0.6835 0.15838 0.0
C1770 C 0.0319 0.74902 0.16037 0.0
H1771 H 0.87101 0.80816 0.1482 0.0
H1772 H 0.90515 0.77259 0.15934 0.0
H1773 H 0.02259 0.78637 0.15292 0.0
H1774 H 0.11973 0.67932 0.15867 0.0
H1775 H 0.09001 0.71658 0.17034 0.0
H1776 H 0.97276 0.712 0.18342 0.0
C1777 C 0.91765 0.79051 0.15977 0.0
C1778 C 0.01171 0.77057 0.1602 0.0
C1779 C 0.89804 0.81082 0.15336 0.0
C1780 C 0.09075 0.68014 0.15878 0.0
C1781 C 0.07374 0.70145 0.16536 0.0
C1782 C 0.98411 0.72829 0.17702 0.0
C1783 C 0.95388 0.79308 0.16506 0.0
C1784 C 0.97701 0.77113 0.16796 0.0
C1785 C 0.03614 0.70358 0.16473 0.0
C1786 C 0.0179 0.72741 0.16823 0.0
H1787 H 0.96285 0.85448 0.15774 0.0
H1788 H -0.00351 0.81948 0.16967 0.0
H1789 H 0.93751 0.74981 0.18325 0.0
H1790 H 0.01636 0.64771 0.14619 0.0
H1791 H 0.98703 0.68453 0.15747 0.0
loop_
_geom_bond_atom_site_label_1
_geom_bond_atom_site_label_2
_geom_bond_distance
_geom_bond_site_symmetry_2
_ccdc_geom_bond_type
Sc0 O3 2.025 . S
Sc0 O10 2.105 . S
Sc0 O13 2.105 . S
Sc0 O16 2.105 . S
Sc0 O19 2.105 . S
Sc1 O3 2.025 . S
Sc1 O11 2.105 . S
Sc1 O15 2.105 . S
Sc1 O17 2.105 . S
Sc1 O21 2.105 . S
Sc2 O3 2.025 . S
Sc2 O12 2.105 . S
Sc2 O14 2.105 . S
Sc2 O18 2.105 . S
Sc2 O20 2.105 . S
O3 Sc0 2.025 . S
O3 Sc1 2.025 . S
O3 Sc2 2.025 . S
C4 O10 1.268 . S
C4 O20 1.268 . S
C5 O11 1.268 . S
C5 O19 1.268 . S
C6 O12 1.268 . S
C6 O21 1.268 . S
C7 O13 1.268 . S
C7 O17 1.268 . S
C8 O14 1.268 . S
C8 O16 1.268 . S
C9 O15 1.268 . S
C9 O18 1.268 . S
O10 Sc0 2.105 . S
O10 C4 1.268 . S
O11 Sc1 2.105 . S
O11 C5 1.268 . S
O12 Sc2 2.105 . S
O12 C6 1.268 . S
O13 Sc0 2.105 . S
O13 C7 1.268 . S
O14 Sc2 2.105 . S
O14 C8 1.268 . S
O15 Sc1 2.105 . S
O15 C9 1.268 . S
O16 Sc0 2.105 . S
O16 C8 1.268 . S
O17 Sc1 2.105 . S
O17 C7 1.268 . S
O18 Sc2 2.105 . S
O18 C9 1.268 . S
O19 Sc0 2.105 . S
O19 C5 1.268 . S
O20 Sc2 2.105 . S
O20 C4 1.268 . S
O21 Sc1 2.105 . S
O21 C6 1.268 . S
Sc22 O25 2.025 . S
Sc22 O32 2.105 . S
Sc22 O35 2.105 . S
Sc22 O38 2.105 . S
Sc22 O41 2.105 . S
Sc23 O25 2.025 . S
Sc23 O33 2.105 . S
Sc23 O37 2.105 . S
Sc23 O39 2.105 . S
Sc23 O43 2.105 . S
Sc24 O25 2.025 . S
Sc24 O34 2.105 . S
Sc24 O36 2.105 . S
Sc24 O40 2.105 . S
Sc24 O42 2.105 . S
O25 Sc22 2.025 . S
O25 Sc23 2.025 . S
O25 Sc24 2.025 . S
C26 O32 1.268 . S
C26 O42 1.268 . S
C27 O33 1.268 . S
C27 O41 1.268 . S
C28 O34 1.268 . S
C28 O43 1.268 . S
C29 O35 1.268 . S
C29 O39 1.268 . S
C30 O36 1.268 . S
C30 O38 1.268 . S
C31 O37 1.268 . S
C31 O40 1.268 . S
O32 Sc22 2.105 . S
O32 C26 1.268 . S
O33 Sc23 2.105 . S
O33 C27 1.268 . S
O34 Sc24 2.105 . S
O34 C28 1.268 . S
O35 Sc22 2.105 . S
O35 C29 1.268 . S
O36 Sc24 2.105 . S
O36 C30 1.268 . S
O37 Sc23 2.105 . S
O37 C31 1.268 . S
O38 Sc22 2.105 . S
O38 C30 1.268 . S
O39 Sc23 2.105 . S
O39 C29 1.268 . S
O40 Sc24 2.105 . S
O40 C31 1.268 . S
O41 Sc22 2.105 . S
O41 C27 1.268 . S
O42 Sc24 2.105 . S
O42 C26 1.268 . S
O43 Sc23 2.105 . S
O43 C28 1.268 . S
Sc44 O47 2.025 . S
Sc44 O54 2.105 . S
Sc44 O57 2.105 . S
Sc44 O60 2.105 . S
Sc44 O63 2.105 . S
Sc45 O47 2.025 . S
Sc45 O55 2.105 . S
Sc45 O59 2.105 . S
Sc45 O61 2.105 . S
Sc45 O65 2.105 . S
Sc46 O47 2.025 . S
Sc46 O56 2.105 . S
Sc46 O58 2.105 . S
Sc46 O62 2.105 . S
Sc46 O64 2.105 . S
O47 Sc44 2.025 . S
O47 Sc45 2.025 . S
O47 Sc46 2.025 . S
C48 O54 1.268 . S
C48 O64 1.268 . S
C49 O55 1.268 . S
C49 O63 1.268 . S
C50 O56 1.268 . S
C50 O65 1.268 . S
C51 O57 1.268 . S
C51 O61 1.268 . S
C52 O58 1.268 . S
C52 O60 1.268 . S
C53 O59 1.268 . S
C53 O62 1.268 . S
O54 Sc44 2.105 . S
O54 C48 1.268 . S
O55 Sc45 2.105 . S
O55 C49 1.268 . S
O56 Sc46 2.105 . S
O56 C50 1.268 . S
O57 Sc44 2.105 . S
O57 C51 1.268 . S
O58 Sc46 2.105 . S
O58 C52 1.268 . S
O59 Sc45 2.105 . S
O59 C53 1.268 . S
O60 Sc44 2.105 . S
O60 C52 1.268 . S
O61 Sc45 2.105 . S
O61 C51 1.268 . S
O62 Sc46 2.105 . S
O62 C53 1.268 . S
O63 Sc44 2.105 . S
O63 C49 1.268 . S
O64 Sc46 2.105 . S
O64 C48 1.268 . S
O65 Sc45 2.105 . S
O65 C50 1.268 . S
Sc66 O69 2.025 . S
Sc66 O76 2.105 . S
Sc66 O79 2.105 . S
Sc66 O82 2.105 . S
Sc66 O85 2.105 . S
Sc67 O69 2.025 . S
Sc67 O77 2.105 . S
Sc67 O81 2.105 . S
Sc67 O83 2.105 . S
Sc67 O87 2.105 . S
Sc68 O69 2.025 . S
Sc68 O78 2.105 . S
Sc68 O80 2.105 . S
Sc68 O84 2.105 . S
Sc68 O86 2.105 . S
O69 Sc66 2.025 . S
O69 Sc67 2.025 . S
O69 Sc68 2.025 . S
C70 O76 1.268 . S
C70 O86 1.268 . S
C71 O77 1.268 . S
C71 O85 1.268 . S
C72 O78 1.268 . S
C72 O87 1.268 . S
C73 O79 1.268 . S
C73 O83 1.268 . S
C74 O80 1.268 . S
C74 O82 1.268 . S
C75 O81 1.268 . S
C75 O84 1.268 . S
O76 Sc66 2.105 . S
O76 C70 1.268 . S
O77 Sc67 2.105 . S
O77 C71 1.268 . S
O78 Sc68 2.105 . S
O78 C72 1.268 . S
O79 Sc66 2.105 . S
O79 C73 1.268 . S
O80 Sc68 2.105 . S
O80 C74 1.268 . S
O81 Sc67 2.105 . S
O81 C75 1.268 . S
O82 Sc66 2.105 . S
O82 C74 1.268 . S
O83 Sc67 2.105 . S
O83 C73 1.268 . S
O84 Sc68 2.105 . S
O84 C75 1.268 . S
O85 Sc66 2.105 . S
O85 C71 1.268 . S
O86 Sc68 2.105 . S
O86 C70 1.268 . S
O87 Sc67 2.105 . S
O87 C72 1.268 . S
Sc88 O91 2.025 . S
Sc88 O98 2.105 . S
Sc88 O101 2.105 . S
Sc88 O104 2.105 . S
Sc88 O107 2.105 . S
Sc89 O91 2.025 . S
Sc89 O99 2.105 . S
Sc89 O103 2.105 . S
Sc89 O105 2.105 . S
Sc89 O109 2.105 . S
Sc90 O91 2.025 . S
Sc90 O100 2.105 . S
Sc90 O102 2.105 . S
Sc90 O106 2.105 . S
Sc90 O108 2.105 . S
O91 Sc88 2.025 . S
O91 Sc89 2.025 . S
O91 Sc90 2.025 . S
C92 O98 1.268 . S
C92 O108 1.268 . S
C93 O99 1.268 . S
C93 O107 1.268 . S
C94 O100 1.268 . S
C94 O109 1.268 . S
C95 O101 1.268 . S
C95 O105 1.268 . S
C96 O102 1.268 . S
C96 O104 1.268 . S
C97 O103 1.268 . S
C97 O106 1.268 . S
O98 Sc88 2.105 . S
O98 C92 1.268 . S
O99 Sc89 2.105 . S
O99 C93 1.268 . S
O100 Sc90 2.105 . S
O100 C94 1.268 . S
O101 Sc88 2.105 . S
O101 C95 1.268 . S
O102 Sc90 2.105 . S
O102 C96 1.268 . S
O103 Sc89 2.105 . S
O103 C97 1.268 . S
O104 Sc88 2.105 . S
O104 C96 1.268 . S
O105 Sc89 2.105 . S
O105 C95 1.268 . S
O106 Sc90 2.105 . S
O106 C97 1.268 . S
O107 Sc88 2.105 . S
O107 C93 1.268 . S
O108 Sc90 2.105 . S
O108 C92 1.268 . S
O109 Sc89 2.105 . S
O109 C94 1.268 . S
Sc110 O113 2.025 . S
Sc110 O120 2.105 . S
Sc110 O123 2.105 . S
Sc110 O126 2.105 . S
Sc110 O129 2.105 . S
Sc111 O113 2.025 . S
Sc111 O121 2.105 . S
Sc111 O125 2.105 . S
Sc111 O127 2.105 . S
Sc111 O131 2.105 . S
Sc112 O113 2.025 . S
Sc112 O122 2.105 . S
Sc112 O124 2.105 . S
Sc112 O128 2.105 . S
Sc112 O130 2.105 . S
O113 Sc110 2.025 . S
O113 Sc111 2.025 . S
O113 Sc112 2.025 . S
C114 O120 1.268 . S
C114 O130 1.268 . S
C115 O121 1.268 . S
C115 O129 1.268 . S
C116 O122 1.268 . S
C116 O131 1.268 . S
C117 O123 1.268 . S
C117 O127 1.268 . S
C118 O124 1.268 . S
C118 O126 1.268 . S
C119 O125 1.268 . S
C119 O128 1.268 . S
O120 Sc110 2.105 . S
O120 C114 1.268 . S
O121 Sc111 2.105 . S
O121 C115 1.268 . S
O122 Sc112 2.105 . S
O122 C116 1.268 . S
O123 Sc110 2.105 . S
O123 C117 1.268 . S
O124 Sc112 2.105 . S
O124 C118 1.268 . S
O125 Sc111 2.105 . S
O125 C119 1.268 . S
O126 Sc110 2.105 . S
O126 C118 1.268 . S
O127 Sc111 2.105 . S
O127 C117 1.268 . S
O128 Sc112 2.105 . S
O128 C119 1.268 . S
O129 Sc110 2.105 . S
O129 C115 1.268 . S
O130 Sc112 2.105 . S
O130 C114 1.268 . S
O131 Sc111 2.105 . S
O131 C116 1.268 . S
Sc132 O135 2.025 . S
Sc132 O142 2.105 . S
Sc132 O145 2.105 . S
Sc132 O148 2.105 . S
Sc132 O151 2.105 . S
Sc133 O135 2.025 . S
Sc133 O143 2.105 . S
Sc133 O147 2.105 . S
Sc133 O149 2.105 . S
Sc133 O153 2.105 . S
Sc134 O135 2.025 . S
Sc134 O144 2.105 . S
Sc134 O146 2.105 . S
Sc134 O150 2.105 . S
Sc134 O152 2.105 . S
O135 Sc132 2.025 . S
O135 Sc133 2.025 . S
O135 Sc134 2.025 . S
C136 O142 1.268 . S
C136 O152 1.268 . S
C137 O143 1.268 . S
C137 O151 1.268 . S
C138 O144 1.268 . S
C138 O153 1.268 . S
C139 O145 1.268 . S
C139 O149 1.268 . S
C140 O146 1.268 . S
C140 O148 1.268 . S
C141 O147 1.268 . S
C141 O150 1.268 . S
O142 Sc132 2.105 . S
O142 C136 1.268 . S
O143 Sc133 2.105 . S
O143 C137 1.268 . S
O144 Sc134 2.105 . S
O144 C138 1.268 . S
O145 Sc132 2.105 . S
O145 C139 1.268 . S
O146 Sc134 2.105 . S
O146 C140 1.268 . S
O147 Sc133 2.105 . S
O147 C141 1.268 . S
O148 Sc132 2.105 . S
O148 C140 1.268 . S
O149 Sc133 2.105 . S
O149 C139 1.268 . S
O150 Sc134 2.105 . S
O150 C141 1.268 . S
O151 Sc132 2.105 . S
O151 C137 1.268 . S
O152 Sc134 2.105 . S
O152 C136 1.268 . S
O153 Sc133 2.105 . S
O153 C138 1.268 . S
Sc154 O157 2.025 . S
Sc154 O164 2.105 . S
Sc154 O167 2.105 . S
Sc154 O170 2.105 . S
Sc154 O173 2.105 . S
Sc155 O157 2.025 . S
Sc155 O165 2.105 . S
Sc155 O169 2.105 . S
Sc155 O171 2.105 . S
Sc155 O175 2.105 . S
Sc156 O157 2.025 . S
Sc156 O166 2.105 . S
Sc156 O168 2.105 . S
Sc156 O172 2.105 . S
Sc156 O174 2.105 . S
O157 Sc154 2.025 . S
O157 Sc155 2.025 . S
O157 Sc156 2.025 . S
C158 O164 1.268 . S
C158 O174 1.268 . S
C159 O165 1.268 . S
C159 O173 1.268 . S
C160 O166 1.268 . S
C160 O175 1.268 . S
C161 O167 1.268 . S
C161 O171 1.268 . S
C162 O168 1.268 . S
C162 O170 1.268 . S
C163 O169 1.268 . S
C163 O172 1.268 . S
O164 Sc154 2.105 . S
O164 C158 1.268 . S
O165 Sc155 2.105 . S
O165 C159 1.268 . S
O166 Sc156 2.105 . S
O166 C160 1.268 . S
O167 Sc154 2.105 . S
O167 C161 1.268 . S
O168 Sc156 2.105 . S
O168 C162 1.268 . S
O169 Sc155 2.105 . S
O169 C163 1.268 . S
O170 Sc154 2.105 . S
O170 C162 1.268 . S
O171 Sc155 2.105 . S
O171 C161 1.268 . S
O172 Sc156 2.105 . S
O172 C163 1.268 . S
O173 Sc154 2.105 . S
O173 C159 1.268 . S
O174 Sc156 2.105 . S
O174 C158 1.268 . S
O175 Sc155 2.105 . S
O175 C160 1.268 . S
Sc176 O179 2.025 . S
Sc176 O186 2.105 . S
Sc176 O189 2.105 . S
Sc176 O192 2.105 . S
Sc176 O195 2.105 . S
Sc177 O179 2.025 . S
Sc177 O187 2.105 . S
Sc177 O191 2.105 . S
Sc177 O193 2.105 . S
Sc177 O197 2.105 . S
Sc178 O179 2.025 . S
Sc178 O188 2.105 . S
Sc178 O190 2.105 . S
Sc178 O194 2.105 1_655 S
Sc178 O196 2.105 . S
O179 Sc176 2.025 . S
O179 Sc177 2.025 . S
O179 Sc178 2.025 . S
C180 O186 1.268 . S
C180 O196 1.268 . S
C181 O187 1.268 . S
C181 O195 1.268 . S
C182 O188 1.268 . S
C182 O197 1.268 . S
C183 O189 1.268 . S
C183 O193 1.268 . S
C184 O190 1.268 . S
C184 O192 1.268 . S
C185 O191 1.268 1_455 S
C185 O194 1.268 . S
O186 Sc176 2.105 . S
O186 C180 1.268 . S
O187 Sc177 2.105 . S
O187 C181 1.268 . S
O188 Sc178 2.105 . S
O188 C182 1.268 . S
O189 Sc176 2.105 . S
O189 C183 1.268 . S
O190 Sc178 2.105 . S
O190 C184 1.268 . S
O191 Sc177 2.105 . S
O191 C185 1.268 1_655 S
O192 Sc176 2.105 . S
O192 C184 1.268 . S
O193 Sc177 2.105 . S
O193 C183 1.268 . S
O194 Sc178 2.105 1_455 S
O194 C185 1.268 . S
O195 Sc176 2.105 . S
O195 C181 1.268 . S
O196 Sc178 2.105 . S
O196 C180 1.268 . S
O197 Sc177 2.105 . S
O197 C182 1.268 . S
Sc198 O201 2.025 . S
Sc198 O208 2.105 . S
Sc198 O211 2.105 . S
Sc198 O214 2.105 . S
Sc198 O217 2.105 . S
Sc199 O201 2.025 . S
Sc199 O209 2.105 . S
Sc199 O213 2.105 . S
Sc199 O215 2.105 . S
Sc199 O219 2.105 . S
Sc200 O201 2.025 . S
Sc200 O210 2.105 . S
Sc200 O212 2.105 . S
Sc200 O216 2.105 1_455 S
Sc200 O218 2.105 . S
O201 Sc198 2.025 . S
O201 Sc199 2.025 . S
O201 Sc200 2.025 . S
C202 O208 1.268 . S
C202 O218 1.268 . S
C203 O209 1.268 . S
C203 O217 1.268 . S
C204 O210 1.268 . S
C204 O219 1.268 . S
C205 O211 1.268 . S
C205 O215 1.268 . S
C206 O212 1.268 . S
C206 O214 1.268 . S
C207 O213 1.268 1_655 S
C207 O216 1.268 . S
O208 Sc198 2.105 . S
O208 C202 1.268 . S
O209 Sc199 2.105 . S
O209 C203 1.268 . S
O210 Sc200 2.105 . S
O210 C204 1.268 . S
O211 Sc198 2.105 . S
O211 C205 1.268 . S
O212 Sc200 2.105 . S
O212 C206 1.268 . S
O213 Sc199 2.105 . S
O213 C207 1.268 1_455 S
O214 Sc198 2.105 . S
O214 C206 1.268 . S
O215 Sc199 2.105 . S
O215 C205 1.268 . S
O216 Sc200 2.105 1_655 S
O216 C207 1.268 . S
O217 Sc198 2.105 . S
O217 C203 1.268 . S
O218 Sc200 2.105 . S
O218 C202 1.268 . S
O219 Sc199 2.105 . S
O219 C204 1.268 . S
Sc220 O223 2.025 . S
Sc220 O230 2.105 . S
Sc220 O233 2.105 . S
Sc220 O236 2.105 . S
Sc220 O239 2.105 . S
Sc221 O223 2.025 . S
Sc221 O231 2.105 . S
Sc221 O235 2.105 . S
Sc221 O237 2.105 . S
Sc221 O241 2.105 . S
Sc222 O223 2.025 . S
Sc222 O232 2.105 . S
Sc222 O234 2.105 . S
Sc222 O238 2.105 1_655 S
Sc222 O240 2.105 . S
O223 Sc220 2.025 . S
O223 Sc221 2.025 . S
O223 Sc222 2.025 . S
C224 O230 1.268 . S
C224 O240 1.268 . S
C225 O231 1.268 . S
C225 O239 1.268 . S
C226 O232 1.268 . S
C226 O241 1.268 . S
C227 O233 1.268 . S
C227 O237 1.268 . S
C228 O234 1.268 . S
C228 O236 1.268 . S
C229 O235 1.268 1_455 S
C229 O238 1.268 . S
O230 Sc220 2.105 . S
O230 C224 1.268 . S
O231 Sc221 2.105 . S
O231 C225 1.268 . S
O232 Sc222 2.105 . S
O232 C226 1.268 . S
O233 Sc220 2.105 . S
O233 C227 1.268 . S
O234 Sc222 2.105 . S
O234 C228 1.268 . S
O235 Sc221 2.105 . S
O235 C229 1.268 1_655 S
O236 Sc220 2.105 . S
O236 C228 1.268 . S
O237 Sc221 2.105 . S
O237 C227 1.268 . S
O238 Sc222 2.105 1_455 S
O238 C229 1.268 . S
O239 Sc220 2.105 . S
O239 C225 1.268 . S
O240 Sc222 2.105 . S
O240 C224 1.268 . S
O241 Sc221 2.105 . S
O241 C226 1.268 . S
Sc242 O245 2.025 . S
Sc242 O252 2.105 . S
Sc242 O255 2.105 . S
Sc242 O258 2.105 . S
Sc242 O261 2.105 1_455 S
Sc243 O245 2.025 . S
Sc243 O253 2.105 . S
Sc243 O257 2.105 . S
Sc243 O259 2.105 . S
Sc243 O263 2.105 . S
Sc244 O245 2.025 . S
Sc244 O254 2.105 . S
Sc244 O256 2.105 . S
Sc244 O260 2.105 . S
Sc244 O262 2.105 . S
O245 Sc242 2.025 . S
O245 Sc243 2.025 . S
O245 Sc244 2.025 . S
C246 O252 1.268 . S
C246 O262 1.268 . S
C247 O253 1.268 1_655 S
C247 O261 1.268 . S
C248 O254 1.268 . S
C248 O263 1.268 . S
C249 O255 1.268 . S
C249 O259 1.268 . S
C250 O256 1.268 . S
C250 O258 1.268 . S
C251 O257 1.268 . S
C251 O260 1.268 . S
O252 Sc242 2.105 . S
O252 C246 1.268 . S
O253 Sc243 2.105 . S
O253 C247 1.268 1_455 S
O254 Sc244 2.105 . S
O254 C248 1.268 . S
O255 Sc242 2.105 . S
O255 C249 1.268 . S
O256 Sc244 2.105 . S
O256 C250 1.268 . S
O257 Sc243 2.105 . S
O257 C251 1.268 . S
O258 Sc242 2.105 . S
O258 C250 1.268 . S
O259 Sc243 2.105 . S
O259 C249 1.268 . S
O260 Sc244 2.105 . S
O260 C251 1.268 . S
O261 Sc242 2.105 1_655 S
O261 C247 1.268 . S
O262 Sc244 2.105 . S
O262 C246 1.268 . S
O263 Sc243 2.105 . S
O263 C248 1.268 . S
Sc264 O267 2.025 . S
Sc264 O274 2.105 . S
Sc264 O277 2.105 1_455 S
Sc264 O280 2.105 . S
Sc264 O283 2.105 . S
Sc265 O267 2.025 . S
Sc265 O275 2.105 . S
Sc265 O279 2.105 . S
Sc265 O281 2.105 . S
Sc265 O285 2.105 . S
Sc266 O267 2.025 . S
Sc266 O276 2.105 . S
Sc266 O278 2.105 . S
Sc266 O282 2.105 . S
Sc266 O284 2.105 . S
O267 Sc264 2.025 . S
O267 Sc265 2.025 . S
O267 Sc266 2.025 . S
C268 O274 1.268 . S
C268 O284 1.268 . S
C269 O275 1.268 . S
C269 O283 1.268 . S
C270 O276 1.268 . S
C270 O285 1.268 . S
C271 O277 1.268 . S
C271 O281 1.268 1_655 S
C272 O278 1.268 . S
C272 O280 1.268 . S
C273 O279 1.268 . S
C273 O282 1.268 . S
O274 Sc264 2.105 . S
O274 C268 1.268 . S
O275 Sc265 2.105 . S
O275 C269 1.268 . S
O276 Sc266 2.105 . S
O276 C270 1.268 . S
O277 Sc264 2.105 1_655 S
O277 C271 1.268 . S
O278 Sc266 2.105 . S
O278 C272 1.268 . S
O279 Sc265 2.105 . S
O279 C273 1.268 . S
O280 Sc264 2.105 . S
O280 C272 1.268 . S
O281 Sc265 2.105 . S
O281 C271 1.268 1_455 S
O282 Sc266 2.105 . S
O282 C273 1.268 . S
O283 Sc264 2.105 . S
O283 C269 1.268 . S
O284 Sc266 2.105 . S
O284 C268 1.268 . S
O285 Sc265 2.105 . S
O285 C270 1.268 . S
Sc286 O289 2.025 . S
Sc286 O296 2.105 . S
Sc286 O299 2.105 . S
Sc286 O302 2.105 . S
Sc286 O305 2.105 . S
Sc287 O289 2.025 . S
Sc287 O297 2.105 . S
Sc287 O301 2.105 . S
Sc287 O303 2.105 . S
Sc287 O307 2.105 . S
Sc288 O289 2.025 . S
Sc288 O298 2.105 1_655 S
Sc288 O300 2.105 . S
Sc288 O304 2.105 . S
Sc288 O306 2.105 . S
O289 Sc286 2.025 . S
O289 Sc287 2.025 . S
O289 Sc288 2.025 . S
C290 O296 1.268 . S
C290 O306 1.268 . S
C291 O297 1.268 . S
C291 O305 1.268 . S
C292 O298 1.268 . S
C292 O307 1.268 1_455 S
C293 O299 1.268 . S
C293 O303 1.268 . S
C294 O300 1.268 . S
C294 O302 1.268 . S
C295 O301 1.268 . S
C295 O304 1.268 . S
O296 Sc286 2.105 . S
O296 C290 1.268 . S
O297 Sc287 2.105 . S
O297 C291 1.268 . S
O298 Sc288 2.105 1_455 S
O298 C292 1.268 . S
O299 Sc286 2.105 . S
O299 C293 1.268 . S
O300 Sc288 2.105 . S
O300 C294 1.268 . S
O301 Sc287 2.105 . S
O301 C295 1.268 . S
O302 Sc286 2.105 . S
O302 C294 1.268 . S
O303 Sc287 2.105 . S
O303 C293 1.268 . S
O304 Sc288 2.105 . S
O304 C295 1.268 . S
O305 Sc286 2.105 . S
O305 C291 1.268 . S
O306 Sc288 2.105 . S
O306 C290 1.268 . S
O307 Sc287 2.105 . S
O307 C292 1.268 1_655 S
Sc308 O311 2.025 . S
Sc308 O318 2.105 . S
Sc308 O321 2.105 1_455 S
Sc308 O324 2.105 . S
Sc308 O327 2.105 . S
Sc309 O311 2.025 . S
Sc309 O319 2.105 . S
Sc309 O323 2.105 . S
Sc309 O325 2.105 . S
Sc309 O329 2.105 . S
Sc310 O311 2.025 . S
Sc310 O320 2.105 . S
Sc310 O322 2.105 . S
Sc310 O326 2.105 . S
Sc310 O328 2.105 . S
O311 Sc308 2.025 . S
O311 Sc309 2.025 . S
O311 Sc310 2.025 . S
C312 O318 1.268 . S
C312 O328 1.268 . S
C313 O319 1.268 . S
C313 O327 1.268 . S
C314 O320 1.268 . S
C314 O329 1.268 . S
C315 O321 1.268 . S
C315 O325 1.268 1_655 S
C316 O322 1.268 . S
C316 O324 1.268 . S
C317 O323 1.268 . S
C317 O326 1.268 . S
O318 Sc308 2.105 . S
O318 C312 1.268 . S
O319 Sc309 2.105 . S
O319 C313 1.268 . S
O320 Sc310 2.105 . S
O320 C314 1.268 . S
O321 Sc308 2.105 1_655 S
O321 C315 1.268 . S
O322 Sc310 2.105 . S
O322 C316 1.268 . S
O323 Sc309 2.105 . S
O323 C317 1.268 . S
O324 Sc308 2.105 . S
O324 C316 1.268 . S
O325 Sc309 2.105 . S
O325 C315 1.268 1_455 S
O326 Sc310 2.105 . S
O326 C317 1.268 . S
O327 Sc308 2.105 . S
O327 C313 1.268 . S
O328 Sc310 2.105 . S
O328 C312 1.268 . S
O329 Sc309 2.105 . S
O329 C314 1.268 . S
Sc330 O333 2.025 . S
Sc330 O340 2.105 . S
Sc330 O343 2.105 1_655 S
Sc330 O346 2.105 . S
Sc330 O349 2.105 . S
Sc331 O333 2.025 . S
Sc331 O341 2.105 . S
Sc331 O345 2.105 . S
Sc331 O347 2.105 . S
Sc331 O351 2.105 . S
Sc332 O333 2.025 . S
Sc332 O342 2.105 . S
Sc332 O344 2.105 . S
Sc332 O348 2.105 . S
Sc332 O350 2.105 . S
O333 Sc330 2.025 . S
O333 Sc331 2.025 . S
O333 Sc332 2.025 . S
C334 O340 1.268 . S
C334 O350 1.268 . S
C335 O341 1.268 . S
C335 O349 1.268 . S
C336 O342 1.268 . S
C336 O351 1.268 . S
C337 O343 1.268 . S
C337 O347 1.268 1_455 S
C338 O344 1.268 . S
C338 O346 1.268 . S
C339 O345 1.268 . S
C339 O348 1.268 . S
O340 Sc330 2.105 . S
O340 C334 1.268 . S
O341 Sc331 2.105 . S
O341 C335 1.268 . S
O342 Sc332 2.105 . S
O342 C336 1.268 . S
O343 Sc330 2.105 1_455 S
O343 C337 1.268 . S
O344 Sc332 2.105 . S
O344 C338 1.268 . S
O345 Sc331 2.105 . S
O345 C339 1.268 . S
O346 Sc330 2.105 . S
O346 C338 1.268 . S
O347 Sc331 2.105 . S
O347 C337 1.268 1_655 S
O348 Sc332 2.105 . S
O348 C339 1.268 . S
O349 Sc330 2.105 . S
O349 C335 1.268 . S
O350 Sc332 2.105 . S
O350 C334 1.268 . S
O351 Sc331 2.105 . S
O351 C336 1.268 . S
C352 C353 1.349 . S
C352 C354 1.327 . S
C352 H377 0.950 . S
C353 C352 1.349 . S
C353 C369 1.349 . S
C354 C352 1.327 . S
C354 C373 1.429 . S
C354 H378 0.950 . S
C355 C372 1.574 1_554 S
C355 C374 1.368 1_565 S
C355 H379 0.949 . S
H356 C360 0.949 . S
C357 C358 1.349 . S
C357 C359 1.327 . S
C357 H380 0.950 . S
C358 C357 1.349 . S
C358 C370 1.349 . S
C359 C357 1.327 . S
C359 C375 1.429 . S
C359 H381 0.950 . S
C360 H356 0.949 . S
C360 C368 1.574 1_556 S
C360 C376 1.368 1_545 S
H361 C369 0.950 1_565 S
H362 C367 0.950 . S
H363 C368 0.949 . S
H364 C370 0.950 1_545 S
H365 C371 0.950 . S
H366 C372 0.949 . S
C367 H362 0.950 . S
C367 C369 1.327 1_565 S
C367 C373 1.429 1_565 S
C368 C360 1.574 1_554 S
C368 H363 0.949 . S
C368 C374 1.368 . S
C369 C353 1.349 . S
C369 H361 0.950 1_545 S
C369 C367 1.327 1_545 S
C370 C358 1.349 . S
C370 H364 0.950 1_565 S
C370 C371 1.327 1_565 S
C371 H365 0.950 . S
C371 C370 1.327 1_545 S
C371 C375 1.429 1_545 S
C372 C355 1.574 1_556 S
C372 H366 0.949 . S
C372 C376 1.368 . S
C373 C354 1.429 . S
C373 C367 1.429 1_545 S
C373 C374 1.523 . S
C374 C355 1.368 1_545 S
C374 C368 1.368 . S
C374 C373 1.523 . S
C375 C359 1.429 . S
C375 C371 1.429 1_565 S
C375 C376 1.523 . S
C376 C360 1.368 1_565 S
C376 C372 1.368 . S
C376 C375 1.523 . S
H377 C352 0.950 . S
H378 C354 0.950 . S
H379 C355 0.949 . S
H380 C357 0.950 . S
H381 C359 0.950 . S
C382 C383 1.349 . S
C382 C384 1.327 . S
C382 H407 0.950 . S
C383 C382 1.349 . S
C383 C399 1.349 . S
C384 C382 1.327 . S
C384 C403 1.429 . S
C384 H408 0.950 . S
C385 C402 1.574 1_554 S
C385 C404 1.368 . S
C385 H409 0.949 . S
H386 C390 0.949 . S
C387 C388 1.349 . S
C387 C389 1.327 . S
C387 H410 0.950 . S
C388 C387 1.349 . S
C388 C400 1.349 . S
C389 C387 1.327 . S
C389 C405 1.429 . S
C389 H411 0.950 . S
C390 H386 0.949 . S
C390 C398 1.574 1_556 S
C390 C406 1.368 . S
H391 C399 0.950 . S
H392 C397 0.950 . S
H393 C398 0.949 . S
H394 C400 0.950 . S
H395 C401 0.950 . S
H396 C402 0.949 . S
C397 H392 0.950 . S
C397 C399 1.327 . S
C397 C403 1.429 . S
C398 C390 1.574 1_554 S
C398 H393 0.949 . S
C398 C404 1.368 . S
C399 C383 1.349 . S
C399 H391 0.950 . S
C399 C397 1.327 . S
C400 C388 1.349 . S
C400 H394 0.950 . S
C400 C401 1.327 . S
C401 H395 0.950 . S
C401 C400 1.327 . S
C401 C405 1.429 . S
C402 C385 1.574 1_556 S
C402 H396 0.949 . S
C402 C406 1.368 . S
C403 C384 1.429 . S
C403 C397 1.429 . S
C403 C404 1.523 . S
C404 C385 1.368 . S
C404 C398 1.368 . S
C404 C403 1.523 . S
C405 C389 1.429 . S
C405 C401 1.429 . S
C405 C406 1.523 . S
C406 C390 1.368 . S
C406 C402 1.368 . S
C406 C405 1.523 . S
H407 C382 0.950 . S
H408 C384 0.950 . S
H409 C385 0.949 . S
H410 C387 0.950 . S
H411 C389 0.950 . S
C412 C413 1.349 . S
C412 C414 1.327 . S
C412 H437 0.941 1_565 S
C413 C412 1.349 . S
C413 C429 1.349 . S
C414 C412 1.327 . S
C414 C433 1.429 . S
C414 H438 0.950 1_565 S
C415 C432 1.574 . S
C415 C434 1.368 . S
C415 H439 0.949 . S
H416 C420 0.949 . S
C417 C418 1.349 . S
C417 C419 1.327 . S
C417 H440 0.941 1_545 S
C418 C417 1.349 . S
C418 C430 1.349 . S
C419 C417 1.327 . S
C419 C435 1.429 . S
C419 H441 0.950 1_545 S
C420 H416 0.949 . S
C420 C428 1.574 . S
C420 C436 1.368 . S
H421 C429 0.950 . S
H422 C427 0.950 . S
H423 C428 0.949 . S
H424 C430 0.950 . S
H425 C431 0.950 . S
H426 C432 0.949 . S
C427 H422 0.950 . S
C427 C429 1.327 . S
C427 C433 1.429 . S
C428 C420 1.574 . S
C428 H423 0.949 . S
C428 C434 1.368 1_545 S
C429 C413 1.349 . S
C429 H421 0.950 . S
C429 C427 1.327 . S
C430 C418 1.349 . S
C430 H424 0.950 . S
C430 C431 1.327 . S
C431 H425 0.950 . S
C431 C430 1.327 . S
C431 C435 1.429 . S
C432 C415 1.574 . S
C432 H426 0.949 . S
C432 C436 1.368 1_565 S
C433 C414 1.429 . S
C433 C427 1.429 . S
C433 C434 1.523 . S
C434 C415 1.368 . S
C434 C428 1.368 1_565 S
C434 C433 1.523 . S
C435 C419 1.429 . S
C435 C431 1.429 . S
C435 C436 1.523 . S
C436 C420 1.368 . S
C436 C432 1.368 1_545 S
C436 C435 1.523 . S
H437 C412 0.941 1_545 S
H438 C414 0.950 1_545 S
H439 C415 0.949 . S
H440 C417 0.941 1_565 S
H441 C419 0.950 1_565 S
C442 C443 1.349 . S
C442 C444 1.327 . S
C442 H467 0.950 . S
C443 C442 1.349 . S
C443 C459 1.349 . S
C444 C442 1.327 . S
C444 C463 1.429 . S
C444 H468 0.950 . S
C445 C462 1.574 . S
C445 C464 1.368 . S
C445 H469 0.949 . S
H446 C450 0.949 . S
C447 C448 1.349 . S
C447 C449 1.327 . S
C447 H470 0.950 . S
C448 C447 1.349 . S
C448 C460 1.349 . S
C449 C447 1.327 . S
C449 C465 1.429 . S
C449 H471 0.950 . S
C450 H446 0.949 . S
C450 C458 1.574 . S
C450 C466 1.368 . S
H451 C459 0.950 . S
H452 C457 0.950 . S
H453 C458 0.949 . S
H454 C460 0.950 . S
H455 C461 0.950 . S
H456 C462 0.949 . S
C457 H452 0.950 . S
C457 C459 1.327 . S
C457 C463 1.429 . S
C458 C450 1.574 . S
C458 H453 0.949 . S
C458 C464 1.368 . S
C459 C443 1.349 . S
C459 H451 0.950 . S
C459 C457 1.327 . S
C460 C448 1.349 . S
C460 H454 0.950 . S
C460 C461 1.327 . S
C461 H455 0.950 . S
C461 C460 1.327 . S
C461 C465 1.429 . S
C462 C445 1.574 . S
C462 H456 0.949 . S
C462 C466 1.368 . S
C463 C444 1.429 . S
C463 C457 1.429 . S
C463 C464 1.523 . S
C464 C445 1.368 . S
C464 C458 1.368 . S
C464 C463 1.523 . S
C465 C449 1.429 . S
C465 C461 1.429 . S
C465 C466 1.523 . S
C466 C450 1.368 . S
C466 C462 1.368 . S
C466 C465 1.523 . S
H467 C442 0.950 . S
H468 C444 0.950 . S
H469 C445 0.949 . S
H470 C447 0.950 . S
H471 C449 0.950 . S
C472 C473 1.349 . S
C472 C474 1.327 . S
C472 H497 0.950 . S
C473 C472 1.349 . S
C473 C489 1.349 . S
C474 C472 1.327 . S
C474 C493 1.429 . S
C474 H498 0.950 . S
C475 C492 1.574 . S
C475 C494 1.368 . S
C475 H499 0.949 . S
H476 C480 0.949 . S
C477 C478 1.349 . S
C477 C479 1.327 . S
C477 H500 0.950 . S
C478 C477 1.349 . S
C478 C490 1.349 . S
C479 C477 1.327 . S
C479 C495 1.429 . S
C479 H501 0.950 . S
C480 H476 0.949 . S
C480 C488 1.574 . S
C480 C496 1.368 . S
H481 C489 0.950 . S
H482 C487 0.950 . S
H483 C488 0.949 . S
H484 C490 0.950 . S
H485 C491 0.950 . S
H486 C492 0.949 . S
C487 H482 0.950 . S
C487 C489 1.327 . S
C487 C493 1.429 . S
C488 C480 1.574 . S
C488 H483 0.949 . S
C488 C494 1.368 1_455 S
C489 C473 1.349 . S
C489 H481 0.950 . S
C489 C487 1.327 . S
C490 C478 1.349 . S
C490 H484 0.950 . S
C490 C491 1.327 . S
C491 H485 0.950 . S
C491 C490 1.327 . S
C491 C495 1.429 . S
C492 C475 1.574 . S
C492 H486 0.949 . S
C492 C496 1.368 1_655 S
C493 C474 1.429 . S
C493 C487 1.429 . S
C493 C494 1.523 . S
C494 C475 1.368 . S
C494 C488 1.368 1_655 S
C494 C493 1.523 . S
C495 C479 1.429 . S
C495 C491 1.429 . S
C495 C496 1.523 . S
C496 C480 1.368 . S
C496 C492 1.368 1_455 S
C496 C495 1.523 . S
H497 C472 0.950 . S
H498 C474 0.950 . S
H499 C475 0.949 . S
H500 C477 0.950 . S
H501 C479 0.950 . S
C502 C503 1.349 . S
C502 C504 1.327 . S
C502 H527 0.950 . S
C503 C502 1.349 . S
C503 C519 1.349 . S
C504 C502 1.327 . S
C504 C523 1.429 . S
C504 H528 0.950 . S
C505 C522 1.574 . S
C505 C524 1.368 1_545 S
C505 H529 0.949 . S
H506 C510 0.949 . S
C507 C508 1.349 . S
C507 C509 1.327 . S
C507 H530 0.950 . S
C508 C507 1.349 . S
C508 C520 1.349 . S
C509 C507 1.327 . S
C509 C525 1.429 . S
C509 H531 0.950 . S
C510 H506 0.949 . S
C510 C518 1.574 . S
C510 C526 1.368 1_565 S
H511 C519 0.950 1_545 S
H512 C517 0.950 . S
H513 C518 0.949 . S
H514 C520 0.950 1_565 S
H515 C521 0.950 . S
H516 C522 0.949 . S
C517 H512 0.950 . S
C517 C519 1.327 1_545 S
C517 C523 1.429 1_545 S
C518 C510 1.574 . S
C518 H513 0.949 . S
C518 C524 1.368 1_655 S
C519 C503 1.349 . S
C519 H511 0.950 1_565 S
C519 C517 1.327 1_565 S
C520 C508 1.349 . S
C520 H514 0.950 1_545 S
C520 C521 1.327 1_545 S
C521 H515 0.950 . S
C521 C520 1.327 1_565 S
C521 C525 1.429 1_565 S
C522 C505 1.574 . S
C522 H516 0.949 . S
C522 C526 1.368 1_455 S
C523 C504 1.429 . S
C523 C517 1.429 1_565 S
C523 C524 1.523 . S
C524 C505 1.368 1_565 S
C524 C518 1.368 1_455 S
C524 C523 1.523 . S
C525 C509 1.429 . S
C525 C521 1.429 1_545 S
C525 C526 1.523 . S
C526 C510 1.368 1_545 S
C526 C522 1.368 1_655 S
C526 C525 1.523 . S
H527 C502 0.950 . S
H528 C504 0.950 . S
H529 C505 0.949 . S
H530 C507 0.950 . S
H531 C509 0.950 . S
C532 C533 1.349 . S
C532 C534 1.327 . S
C532 H557 0.950 . S
C533 C532 1.349 . S
C533 C549 1.349 . S
C534 C532 1.327 . S
C534 C553 1.429 . S
C534 H558 0.950 . S
C535 C552 1.574 1_556 S
C535 C554 1.368 . S
C535 H559 0.949 . S
H536 C540 0.949 . S
C537 C538 1.349 . S
C537 C539 1.327 . S
C537 H560 0.950 . S
C538 C537 1.349 . S
C538 C550 1.349 . S
C539 C537 1.327 . S
C539 C555 1.429 . S
C539 H561 0.950 . S
C540 H536 0.949 . S
C540 C548 1.574 1_554 S
C540 C556 1.368 . S
H541 C549 0.950 . S
H542 C547 0.950 . S
H543 C548 0.949 . S
H544 C550 0.950 . S
H545 C551 0.950 . S
H546 C552 0.949 . S
C547 H542 0.950 . S
C547 C549 1.327 . S
C547 C553 1.429 . S
C548 C540 1.574 1_556 S
C548 H543 0.949 . S
C548 C554 1.368 1_455 S
C549 C533 1.349 . S
C549 H541 0.950 . S
C549 C547 1.327 . S
C550 C538 1.349 . S
C550 H544 0.950 . S
C550 C551 1.327 . S
C551 H545 0.950 . S
C551 C550 1.327 . S
C551 C555 1.429 . S
C552 C535 1.574 1_554 S
C552 H546 0.949 . S
C552 C556 1.368 1_655 S
C553 C534 1.429 . S
C553 C547 1.429 . S
C553 C554 1.523 . S
C554 C535 1.368 . S
C554 C548 1.368 1_655 S
C554 C553 1.523 . S
C555 C539 1.429 . S
C555 C551 1.429 . S
C555 C556 1.523 . S
C556 C540 1.368 . S
C556 C552 1.368 1_455 S
C556 C555 1.523 . S
H557 C532 0.950 . S
H558 C534 0.950 . S
H559 C535 0.949 . S
H560 C537 0.950 . S
H561 C539 0.950 . S
C562 C563 1.349 . S
C562 C564 1.327 . S
C562 H587 0.950 . S
C563 C562 1.349 . S
C563 C579 1.349 . S
C564 C562 1.327 . S
C564 C583 1.429 . S
C564 H588 0.950 1_455 S
C565 C582 1.574 1_556 S
C565 C584 1.368 1_565 S
C565 H589 0.949 . S
H566 C570 0.949 . S
C567 C568 1.349 . S
C567 C569 1.327 . S
C567 H590 0.950 . S
C568 C567 1.349 . S
C568 C580 1.349 . S
C569 C567 1.327 . S
C569 C585 1.429 . S
C569 H591 0.950 1_655 S
C570 H566 0.949 . S
C570 C578 1.574 1_554 S
C570 C586 1.368 1_545 S
H571 C579 0.956 . S
H572 C577 0.950 1_565 S
H573 C578 0.949 . S
H574 C580 0.956 . S
H575 C581 0.950 1_545 S
H576 C582 0.949 . S
C577 H572 0.950 1_545 S
C577 C579 1.327 . S
C577 C583 1.429 . S
C578 C570 1.574 1_556 S
C578 H573 0.949 . S
C578 C584 1.368 1_655 S
C579 C563 1.349 . S
C579 H571 0.956 . S
C579 C577 1.327 . S
C580 C568 1.349 . S
C580 H574 0.956 . S
C580 C581 1.327 . S
C581 H575 0.950 1_565 S
C581 C580 1.327 . S
C581 C585 1.429 . S
C582 C565 1.574 1_554 S
C582 H576 0.949 . S
C582 C586 1.368 1_455 S
C583 C564 1.429 . S
C583 C577 1.429 . S
C583 C584 1.523 . S
C584 C565 1.368 1_545 S
C584 C578 1.368 1_455 S
C584 C583 1.523 . S
C585 C569 1.429 . S
C585 C581 1.429 . S
C585 C586 1.523 . S
C586 C570 1.368 1_565 S
C586 C582 1.368 1_655 S
C586 C585 1.523 . S
H587 C562 0.950 . S
H588 C564 0.950 1_655 S
H589 C565 0.949 . S
H590 C567 0.950 . S
H591 C569 0.950 1_455 S
C592 C593 1.349 . S
C592 C594 1.327 . S
C592 H617 0.950 . S
C593 C592 1.349 . S
C593 C609 1.349 . S
C594 C592 1.327 . S
C594 C613 1.429 . S
C594 H618 0.974 . S
C595 C612 1.574 . S
C595 C614 1.368 . S
C595 H619 0.949 . S
H596 C600 0.949 . S
C597 C598 1.349 . S
C597 C599 1.327 . S
C597 H620 0.950 . S
C598 C597 1.349 . S
C598 C610 1.349 . S
C599 C597 1.327 . S
C599 C615 1.429 . S
C599 H621 0.974 . S
C600 H596 0.949 . S
C600 C608 1.574 . S
C600 C616 1.368 . S
H601 C609 0.950 . S
H602 C607 0.950 . S
H603 C608 0.949 . S
H604 C610 0.950 . S
H605 C611 0.950 . S
H606 C612 0.949 . S
C607 H602 0.950 . S
C607 C609 1.327 . S
C607 C613 1.429 . S
C608 C600 1.574 . S
C608 H603 0.949 . S
C608 C614 1.368 1_565 S
C609 C593 1.349 . S
C609 H601 0.950 . S
C609 C607 1.327 . S
C610 C598 1.349 . S
C610 H604 0.950 . S
C610 C611 1.327 . S
C611 H605 0.950 . S
C611 C610 1.327 . S
C611 C615 1.429 . S
C612 C595 1.574 . S
C612 H606 0.949 . S
C612 C616 1.368 1_545 S
C613 C594 1.429 . S
C613 C607 1.429 . S
C613 C614 1.523 . S
C614 C595 1.368 . S
C614 C608 1.368 1_545 S
C614 C613 1.523 . S
C615 C599 1.429 . S
C615 C611 1.429 . S
C615 C616 1.523 . S
C616 C600 1.368 . S
C616 C612 1.368 1_565 S
C616 C615 1.523 . S
H617 C592 0.950 . S
H618 C594 0.974 . S
H619 C595 0.949 . S
H620 C597 0.950 . S
H621 C599 0.974 . S
C622 C623 1.349 . S
C622 C624 1.327 . S
C622 H647 0.950 . S
C623 C622 1.349 . S
C623 C639 1.349 . S
C624 C622 1.327 . S
C624 C643 1.429 . S
C624 H648 0.950 . S
C625 C642 1.574 . S
C625 C644 1.368 . S
C625 H649 0.949 . S
H626 C630 0.949 . S
C627 C628 1.349 . S
C627 C629 1.327 . S
C627 H650 0.950 . S
C628 C627 1.349 . S
C628 C640 1.349 . S
C629 C627 1.327 . S
C629 C645 1.429 . S
C629 H651 0.950 . S
C630 H626 0.949 . S
C630 C638 1.574 . S
C630 C646 1.368 . S
H631 C639 0.950 . S
H632 C637 0.950 . S
H633 C638 0.949 . S
H634 C640 0.950 . S
H635 C641 0.950 . S
H636 C642 0.949 . S
C637 H632 0.950 . S
C637 C639 1.327 . S
C637 C643 1.429 . S
C638 C630 1.574 . S
C638 H633 0.949 . S
C638 C644 1.368 . S
C639 C623 1.349 . S
C639 H631 0.950 . S
C639 C637 1.327 . S
C640 C628 1.349 . S
C640 H634 0.950 . S
C640 C641 1.327 . S
C641 H635 0.950 . S
C641 C640 1.327 . S
C641 C645 1.429 . S
C642 C625 1.574 . S
C642 H636 0.949 . S
C642 C646 1.368 . S
C643 C624 1.429 . S
C643 C637 1.429 . S
C643 C644 1.523 . S
C644 C625 1.368 . S
C644 C638 1.368 . S
C644 C643 1.523 . S
C645 C629 1.429 . S
C645 C641 1.429 . S
C645 C646 1.523 . S
C646 C630 1.368 . S
C646 C642 1.368 . S
C646 C645 1.523 . S
H647 C622 0.950 . S
H648 C624 0.950 . S
H649 C625 0.949 . S
H650 C627 0.950 . S
H651 C629 0.950 . S
C652 C653 1.349 . S
C652 C654 1.327 . S
C652 H677 0.950 . S
C653 C652 1.349 . S
C653 C669 1.349 . S
C654 C652 1.327 . S
C654 C673 1.429 . S
C654 H678 0.950 . S
C655 C672 1.574 . S
C655 C674 1.368 1_545 S
C655 H679 0.949 . S
H656 C660 0.949 . S
C657 C658 1.349 . S
C657 C659 1.327 . S
C657 H680 0.950 . S
C658 C657 1.349 . S
C658 C670 1.349 . S
C659 C657 1.327 . S
C659 C675 1.429 . S
C659 H681 0.950 . S
C660 H656 0.949 . S
C660 C668 1.574 . S
C660 C676 1.368 1_565 S
H661 C669 0.950 . S
H662 C667 0.950 . S
H663 C668 0.949 . S
H664 C670 0.950 . S
H665 C671 0.950 . S
H666 C672 0.949 . S
C667 H662 0.950 . S
C667 C669 1.327 . S
C667 C673 1.429 . S
C668 C660 1.574 . S
C668 H663 0.949 . S
C668 C674 1.368 . S
C669 C653 1.349 . S
C669 H661 0.950 . S
C669 C667 1.327 . S
C670 C658 1.349 . S
C670 H664 0.950 . S
C670 C671 1.327 . S
C671 H665 0.950 . S
C671 C670 1.327 . S
C671 C675 1.429 . S
C672 C655 1.574 . S
C672 H666 0.949 . S
C672 C676 1.368 . S
C673 C654 1.429 . S
C673 C667 1.429 . S
C673 C674 1.523 . S
C674 C655 1.368 1_565 S
C674 C668 1.368 . S
C674 C673 1.523 . S
C675 C659 1.429 . S
C675 C671 1.429 . S
C675 C676 1.523 . S
C676 C660 1.368 1_545 S
C676 C672 1.368 . S
C676 C675 1.523 . S
H677 C652 0.950 . S
H678 C654 0.950 . S
H679 C655 0.949 . S
H680 C657 0.950 . S
H681 C659 0.950 . S
C682 C683 1.349 . S
C682 C684 1.327 . S
C682 H707 0.950 . S
C683 C682 1.349 . S
C683 C699 1.349 . S
C684 C682 1.327 . S
C684 C703 1.429 . S
C684 H708 0.950 . S
C685 C702 1.574 . S
C685 C704 1.368 . S
C685 H709 0.949 . S
H686 C690 0.949 . S
C687 C688 1.349 . S
C687 C689 1.327 . S
C687 H710 0.950 . S
C688 C687 1.349 . S
C688 C700 1.349 . S
C689 C687 1.327 . S
C689 C705 1.429 . S
C689 H711 0.950 . S
C690 H686 0.949 . S
C690 C698 1.574 . S
C690 C706 1.368 . S
H691 C699 0.950 . S
H692 C697 0.950 . S
H693 C698 0.949 . S
H694 C700 0.950 . S
H695 C701 0.950 . S
H696 C702 0.949 . S
C697 H692 0.950 . S
C697 C699 1.327 . S
C697 C703 1.429 . S
C698 C690 1.574 . S
C698 H693 0.949 . S
C698 C704 1.368 . S
C699 C683 1.349 . S
C699 H691 0.950 . S
C699 C697 1.327 . S
C700 C688 1.349 . S
C700 H694 0.950 . S
C700 C701 1.327 . S
C701 H695 0.950 . S
C701 C700 1.327 . S
C701 C705 1.429 . S
C702 C685 1.574 . S
C702 H696 0.949 . S
C702 C706 1.368 . S
C703 C684 1.429 . S
C703 C697 1.429 . S
C703 C704 1.523 . S
C704 C685 1.368 . S
C704 C698 1.368 . S
C704 C703 1.523 . S
C705 C689 1.429 . S
C705 C701 1.429 . S
C705 C706 1.523 . S
C706 C690 1.368 . S
C706 C702 1.368 . S
C706 C705 1.523 . S
H707 C682 0.950 . S
H708 C684 0.950 . S
H709 C685 0.949 . S
H710 C687 0.950 . S
H711 C689 0.950 . S
C712 C713 1.349 . S
C712 C714 1.327 . S
C712 H737 0.950 . S
C713 C712 1.349 . S
C713 C729 1.349 . S
C714 C712 1.327 . S
C714 C733 1.429 . S
C714 H738 0.950 . S
C715 C732 1.574 . S
C715 C734 1.368 . S
C715 H739 0.949 . S
H716 C720 0.949 . S
C717 C718 1.349 . S
C717 C719 1.327 . S
C717 H740 0.950 . S
C718 C717 1.349 . S
C718 C730 1.349 . S
C719 C717 1.327 . S
C719 C735 1.429 . S
C719 H741 0.950 . S
C720 H716 0.949 . S
C720 C728 1.574 . S
C720 C736 1.368 . S
H721 C729 0.950 . S
H722 C727 0.950 . S
H723 C728 0.949 . S
H724 C730 0.950 . S
H725 C731 0.950 . S
H726 C732 0.949 . S
C727 H722 0.950 . S
C727 C729 1.327 . S
C727 C733 1.429 . S
C728 C720 1.574 . S
C728 H723 0.949 . S
C728 C734 1.368 . S
C729 C713 1.349 . S
C729 H721 0.950 . S
C729 C727 1.327 . S
C730 C718 1.349 . S
C730 H724 0.950 . S
C730 C731 1.327 . S
C731 H725 0.950 . S
C731 C730 1.327 . S
C731 C735 1.429 . S
C732 C715 1.574 . S
C732 H726 0.949 . S
C732 C736 1.368 . S
C733 C714 1.429 . S
C733 C727 1.429 . S
C733 C734 1.523 . S
C734 C715 1.368 . S
C734 C728 1.368 . S
C734 C733 1.523 . S
C735 C719 1.429 . S
C735 C731 1.429 . S
C735 C736 1.523 . S
C736 C720 1.368 . S
C736 C732 1.368 . S
C736 C735 1.523 . S
H737 C712 0.950 . S
H738 C714 0.950 . S
H739 C715 0.949 . S
H740 C717 0.950 . S
H741 C719 0.950 . S
C742 C743 1.349 . S
C742 C744 1.327 . S
C742 H767 0.950 . S
C743 C742 1.349 . S
C743 C759 1.349 . S
C744 C742 1.327 . S
C744 C763 1.429 . S
C744 H768 0.941 1_545 S
C745 C762 1.574 . S
C745 C764 1.368 . S
C745 H769 0.949 . S
H746 C750 0.949 . S
C747 C748 1.349 . S
C747 C749 1.327 . S
C747 H770 0.950 . S
C748 C747 1.349 . S
C748 C760 1.349 . S
C749 C747 1.327 . S
C749 C765 1.429 . S
C749 H771 0.941 1_565 S
C750 H746 0.949 . S
C750 C758 1.574 . S
C750 C766 1.368 . S
H751 C759 0.950 . S
H752 C757 0.950 . S
H753 C758 0.949 . S
H754 C760 0.950 . S
H755 C761 0.950 . S
H756 C762 0.949 . S
C757 H752 0.950 . S
C757 C759 1.327 . S
C757 C763 1.429 . S
C758 C750 1.574 . S
C758 H753 0.949 . S
C758 C764 1.368 1_565 S
C759 C743 1.349 . S
C759 H751 0.950 . S
C759 C757 1.327 . S
C760 C748 1.349 . S
C760 H754 0.950 . S
C760 C761 1.327 . S
C761 H755 0.950 . S
C761 C760 1.327 . S
C761 C765 1.429 . S
C762 C745 1.574 . S
C762 H756 0.949 . S
C762 C766 1.368 1_545 S
C763 C744 1.429 . S
C763 C757 1.429 . S
C763 C764 1.523 . S
C764 C745 1.368 . S
C764 C758 1.368 1_545 S
C764 C763 1.523 . S
C765 C749 1.429 . S
C765 C761 1.429 . S
C765 C766 1.523 . S
C766 C750 1.368 . S
C766 C762 1.368 1_565 S
C766 C765 1.523 . S
H767 C742 0.950 . S
H768 C744 0.941 1_565 S
H769 C745 0.949 . S
H770 C747 0.950 . S
H771 C749 0.941 1_545 S
C772 C773 1.349 . S
C772 C774 1.327 . S
C772 H797 0.950 . S
C773 C772 1.349 . S
C773 C789 1.349 . S
C774 C772 1.327 . S
C774 C793 1.429 . S
C774 H798 0.950 . S
C775 C792 1.574 . S
C775 C794 1.368 . S
C775 H799 0.949 . S
H776 C780 0.949 . S
C777 C778 1.349 . S
C777 C779 1.327 . S
C777 H800 0.950 . S
C778 C777 1.349 . S
C778 C790 1.349 . S
C779 C777 1.327 . S
C779 C795 1.429 . S
C779 H801 0.950 . S
C780 H776 0.949 . S
C780 C788 1.574 . S
C780 C796 1.368 . S
H781 C789 0.950 . S
H782 C787 0.950 . S
H783 C788 0.949 . S
H784 C790 0.950 . S
H785 C791 0.950 . S
H786 C792 0.949 . S
C787 H782 0.950 . S
C787 C789 1.327 . S
C787 C793 1.429 . S
C788 C780 1.574 . S
C788 H783 0.949 . S
C788 C794 1.368 . S
C789 C773 1.349 . S
C789 H781 0.950 . S
C789 C787 1.327 . S
C790 C778 1.349 . S
C790 H784 0.950 . S
C790 C791 1.327 . S
C791 H785 0.950 . S
C791 C790 1.327 . S
C791 C795 1.429 . S
C792 C775 1.574 . S
C792 H786 0.949 . S
C792 C796 1.368 . S
C793 C774 1.429 . S
C793 C787 1.429 . S
C793 C794 1.523 . S
C794 C775 1.368 . S
C794 C788 1.368 . S
C794 C793 1.523 . S
C795 C779 1.429 . S
C795 C791 1.429 . S
C795 C796 1.523 . S
C796 C780 1.368 . S
C796 C792 1.368 . S
C796 C795 1.523 . S
H797 C772 0.950 . S
H798 C774 0.950 . S
H799 C775 0.949 . S
H800 C777 0.950 . S
H801 C779 0.950 . S
C802 C803 1.349 . S
C802 C804 1.327 . S
C802 H827 0.950 . S
C803 C802 1.349 . S
C803 C819 1.349 . S
C804 C802 1.327 . S
C804 C823 1.429 . S
C804 H828 0.950 1_545 S
C805 C822 1.574 . S
C805 C824 1.368 . S
C805 H829 0.949 . S
H806 C810 0.949 . S
C807 C808 1.349 . S
C807 C809 1.327 . S
C807 H830 0.950 . S
C808 C807 1.349 . S
C808 C820 1.349 . S
C809 C807 1.327 . S
C809 C825 1.429 . S
C809 H831 0.950 1_565 S
C810 H806 0.949 . S
C810 C818 1.574 . S
C810 C826 1.368 . S
H811 C819 0.950 . S
H812 C817 0.950 . S
H813 C818 0.949 . S
H814 C820 0.950 . S
H815 C821 0.950 . S
H816 C822 0.949 . S
C817 H812 0.950 . S
C817 C819 1.327 . S
C817 C823 1.429 . S
C818 C810 1.574 . S
C818 H813 0.949 . S
C818 C824 1.368 1_565 S
C819 C803 1.349 . S
C819 H811 0.950 . S
C819 C817 1.327 . S
C820 C808 1.349 . S
C820 H814 0.950 . S
C820 C821 1.327 . S
C821 H815 0.950 . S
C821 C820 1.327 . S
C821 C825 1.429 . S
C822 C805 1.574 . S
C822 H816 0.949 . S
C822 C826 1.368 1_545 S
C823 C804 1.429 . S
C823 C817 1.429 . S
C823 C824 1.523 . S
C824 C805 1.368 . S
C824 C818 1.368 1_545 S
C824 C823 1.523 . S
C825 C809 1.429 . S
C825 C821 1.429 . S
C825 C826 1.523 . S
C826 C810 1.368 . S
C826 C822 1.368 1_565 S
C826 C825 1.523 . S
H827 C802 0.950 . S
H828 C804 0.950 1_565 S
H829 C805 0.949 . S
H830 C807 0.950 . S
H831 C809 0.950 1_545 S
C832 C833 1.349 . S
C832 C834 1.327 . S
C832 H857 0.950 . S
C833 C832 1.349 . S
C833 C849 1.349 . S
C834 C832 1.327 . S
C834 C853 1.429 . S
C834 H858 0.950 . S
C835 C852 1.574 1_554 S
C835 C854 1.368 . S
C835 H859 0.949 . S
H836 C840 0.949 . S
C837 C838 1.349 . S
C837 C839 1.327 . S
C837 H860 0.950 . S
C838 C837 1.349 . S
C838 C850 1.349 . S
C839 C837 1.327 . S
C839 C855 1.429 . S
C839 H861 0.950 . S
C840 H836 0.949 . S
C840 C848 1.574 1_556 S
C840 C856 1.368 . S
H841 C849 0.950 . S
H842 C847 0.950 . S
H843 C848 0.949 . S
H844 C850 0.950 . S
H845 C851 0.950 . S
H846 C852 0.949 . S
C847 H842 0.950 . S
C847 C849 1.327 . S
C847 C853 1.429 . S
C848 C840 1.574 1_554 S
C848 H843 0.949 . S
C848 C854 1.368 . S
C849 C833 1.349 . S
C849 H841 0.950 . S
C849 C847 1.327 . S
C850 C838 1.349 . S
C850 H844 0.950 . S
C850 C851 1.327 . S
C851 H845 0.950 . S
C851 C850 1.327 . S
C851 C855 1.429 . S
C852 C835 1.574 1_556 S
C852 H846 0.949 . S
C852 C856 1.368 . S
C853 C834 1.429 . S
C853 C847 1.429 . S
C853 C854 1.523 . S
C854 C835 1.368 . S
C854 C848 1.368 . S
C854 C853 1.523 . S
C855 C839 1.429 . S
C855 C851 1.429 . S
C855 C856 1.523 . S
C856 C840 1.368 . S
C856 C852 1.368 . S
C856 C855 1.523 . S
H857 C832 0.950 . S
H858 C834 0.950 . S
H859 C835 0.949 . S
H860 C837 0.950 . S
H861 C839 0.950 . S
C862 C863 1.349 . S
C862 C864 1.327 . S
C862 H887 0.950 . S
C863 C862 1.349 . S
C863 C879 1.349 . S
C864 C862 1.327 . S
C864 C883 1.429 . S
C864 H888 0.950 . S
C865 C882 1.574 1_556 S
C865 C884 1.368 . S
C865 H889 0.949 . S
H866 C870 0.949 . S
C867 C868 1.349 . S
C867 C869 1.327 . S
C867 H890 0.950 . S
C868 C867 1.349 . S
C868 C880 1.349 . S
C869 C867 1.327 . S
C869 C885 1.429 . S
C869 H891 0.950 . S
C870 H866 0.949 . S
C870 C878 1.574 1_554 S
C870 C886 1.368 . S
H871 C879 0.950 . S
H872 C877 0.950 . S
H873 C878 0.949 . S
H874 C880 0.950 . S
H875 C881 0.950 . S
H876 C882 0.949 . S
C877 H872 0.950 . S
C877 C879 1.327 . S
C877 C883 1.429 . S
C878 C870 1.574 1_556 S
C878 H873 0.949 . S
C878 C884 1.368 . S
C879 C863 1.349 . S
C879 H871 0.950 . S
C879 C877 1.327 . S
C880 C868 1.349 . S
C880 H874 0.950 . S
C880 C881 1.327 . S
C881 H875 0.950 . S
C881 C880 1.327 . S
C881 C885 1.429 . S
C882 C865 1.574 1_554 S
C882 H876 0.949 . S
C882 C886 1.368 . S
C883 C864 1.429 . S
C883 C877 1.429 . S
C883 C884 1.523 . S
C884 C865 1.368 . S
C884 C878 1.368 . S
C884 C883 1.523 . S
C885 C869 1.429 . S
C885 C881 1.429 . S
C885 C886 1.523 . S
C886 C870 1.368 . S
C886 C882 1.368 . S
C886 C885 1.523 . S
H887 C862 0.950 . S
H888 C864 0.950 . S
H889 C865 0.949 . S
H890 C867 0.950 . S
H891 C869 0.950 . S
C892 C893 1.349 . S
C892 C894 1.327 . S
C892 H917 0.950 . S
C893 C892 1.349 . S
C893 C909 1.349 . S
C894 C892 1.327 . S
C894 C913 1.429 . S
C894 H918 0.950 . S
C895 C912 1.574 . S
C895 C914 1.368 . S
C895 H919 0.949 . S
H896 C900 0.949 . S
C897 C898 1.349 . S
C897 C899 1.327 . S
C897 H920 0.950 . S
C898 C897 1.349 . S
C898 C910 1.349 . S
C899 C897 1.327 . S
C899 C915 1.429 . S
C899 H921 0.950 . S
C900 H896 0.949 . S
C900 C908 1.574 . S
C900 C916 1.368 . S
H901 C909 0.950 . S
H902 C907 0.950 . S
H903 C908 0.949 . S
H904 C910 0.950 . S
H905 C911 0.950 . S
H906 C912 0.949 . S
C907 H902 0.950 . S
C907 C909 1.327 . S
C907 C913 1.429 . S
C908 C900 1.574 . S
C908 H903 0.949 . S
C908 C914 1.368 . S
C909 C893 1.349 . S
C909 H901 0.950 . S
C909 C907 1.327 . S
C910 C898 1.349 . S
C910 H904 0.950 . S
C910 C911 1.327 . S
C911 H905 0.950 . S
C911 C910 1.327 . S
C911 C915 1.429 . S
C912 C895 1.574 . S
C912 H906 0.949 . S
C912 C916 1.368 . S
C913 C894 1.429 . S
C913 C907 1.429 . S
C913 C914 1.523 . S
C914 C895 1.368 . S
C914 C908 1.368 . S
C914 C913 1.523 . S
C915 C899 1.429 . S
C915 C911 1.429 . S
C915 C916 1.523 . S
C916 C900 1.368 . S
C916 C912 1.368 . S
C916 C915 1.523 . S
H917 C892 0.950 . S
H918 C894 0.950 . S
H919 C895 0.949 . S
H920 C897 0.950 . S
H921 C899 0.950 . S
C922 C923 1.349 . S
C922 C924 1.327 . S
C922 H947 0.950 . S
C923 C922 1.349 . S
C923 C939 1.349 . S
C924 C922 1.327 . S
C924 C943 1.429 . S
C924 H948 0.950 . S
C925 C942 1.574 . S
C925 C944 1.368 . S
C925 H949 0.949 . S
H926 C930 0.949 . S
C927 C928 1.349 . S
C927 C929 1.327 . S
C927 H950 0.950 . S
C928 C927 1.349 . S
C928 C940 1.349 . S
C929 C927 1.327 . S
C929 C945 1.429 . S
C929 H951 0.950 . S
C930 H926 0.949 . S
C930 C938 1.574 . S
C930 C946 1.368 . S
H931 C939 0.950 . S
H932 C937 0.950 . S
H933 C938 0.949 . S
H934 C940 0.950 . S
H935 C941 0.950 . S
H936 C942 0.949 . S
C937 H932 0.950 . S
C937 C939 1.327 . S
C937 C943 1.429 . S
C938 C930 1.574 . S
C938 H933 0.949 . S
C938 C944 1.368 . S
C939 C923 1.349 . S
C939 H931 0.950 . S
C939 C937 1.327 . S
C940 C928 1.349 . S
C940 H934 0.950 . S
C940 C941 1.327 . S
C941 H935 0.950 . S
C941 C940 1.327 . S
C941 C945 1.429 . S
C942 C925 1.574 . S
C942 H936 0.949 . S
C942 C946 1.368 . S
C943 C924 1.429 . S
C943 C937 1.429 . S
C943 C944 1.523 . S
C944 C925 1.368 . S
C944 C938 1.368 . S
C944 C943 1.523 . S
C945 C929 1.429 . S
C945 C941 1.429 . S
C945 C946 1.523 . S
C946 C930 1.368 . S
C946 C942 1.368 . S
C946 C945 1.523 . S
H947 C922 0.950 . S
H948 C924 0.950 . S
H949 C925 0.949 . S
H950 C927 0.950 . S
H951 C929 0.950 . S
C952 C953 1.349 . S
C952 C954 1.327 . S
C952 H977 0.950 . S
C953 C952 1.349 . S
C953 C969 1.349 . S
C954 C952 1.327 . S
C954 C973 1.429 . S
C954 H978 0.950 . S
C955 C972 1.574 1_556 S
C955 C974 1.368 . S
C955 H979 0.949 . S
H956 C960 0.949 . S
C957 C958 1.349 . S
C957 C959 1.327 . S
C957 H980 0.950 . S
C958 C957 1.349 . S
C958 C970 1.349 . S
C959 C957 1.327 . S
C959 C975 1.429 . S
C959 H981 0.950 . S
C960 H956 0.949 . S
C960 C968 1.574 1_554 S
C960 C976 1.368 . S
H961 C969 0.950 . S
H962 C967 0.950 . S
H963 C968 0.949 . S
H964 C970 0.950 . S
H965 C971 0.950 . S
H966 C972 0.949 . S
C967 H962 0.950 . S
C967 C969 1.327 . S
C967 C973 1.429 . S
C968 C960 1.574 1_556 S
C968 H963 0.949 . S
C968 C974 1.368 . S
C969 C953 1.349 . S
C969 H961 0.950 . S
C969 C967 1.327 . S
C970 C958 1.349 . S
C970 H964 0.950 . S
C970 C971 1.327 . S
C971 H965 0.950 . S
C971 C970 1.327 . S
C971 C975 1.429 . S
C972 C955 1.574 1_554 S
C972 H966 0.949 . S
C972 C976 1.368 . S
C973 C954 1.429 . S
C973 C967 1.429 . S
C973 C974 1.523 . S
C974 C955 1.368 . S
C974 C968 1.368 . S
C974 C973 1.523 . S
C975 C959 1.429 . S
C975 C971 1.429 . S
C975 C976 1.523 . S
C976 C960 1.368 . S
C976 C972 1.368 . S
C976 C975 1.523 . S
H977 C952 0.950 . S
H978 C954 0.950 . S
H979 C955 0.949 . S
H980 C957 0.950 . S
H981 C959 0.950 . S
C982 C983 1.349 . S
C982 C984 1.327 . S
C982 H1007 0.950 . S
C983 C982 1.349 . S
C983 C999 1.349 . S
C984 C982 1.327 . S
C984 C1003 1.429 . S
C984 H1008 0.950 . S
C985 C1002 1.574 1_556 S
C985 C1004 1.368 . S
C985 H1009 0.949 . S
H986 C990 0.949 . S
C987 C988 1.349 . S
C987 C989 1.327 . S
C987 H1010 0.950 . S
C988 C987 1.349 . S
C988 C1000 1.349 . S
C989 C987 1.327 . S
C989 C1005 1.429 . S
C989 H1011 0.950 . S
C990 H986 0.949 . S
C990 C998 1.574 1_554 S
C990 C1006 1.368 . S
H991 C999 0.950 . S
H992 C997 0.950 . S
H993 C998 0.949 . S
H994 C1000 0.950 . S
H995 C1001 0.950 . S
H996 C1002 0.949 . S
C997 H992 0.950 . S
C997 C999 1.327 . S
C997 C1003 1.429 . S
C998 C990 1.574 1_556 S
C998 H993 0.949 . S
C998 C1004 1.368 . S
C999 C983 1.349 . S
C999 H991 0.950 . S
C999 C997 1.327 . S
C1000 C988 1.349 . S
C1000 H994 0.950 . S
C1000 C1001 1.327 . S
C1001 H995 0.950 . S
C1001 C1000 1.327 . S
C1001 C1005 1.429 . S
C1002 C985 1.574 1_554 S
C1002 H996 0.949 . S
C1002 C1006 1.368 . S
C1003 C984 1.429 . S
C1003 C997 1.429 . S
C1003 C1004 1.523 . S
C1004 C985 1.368 . S
C1004 C998 1.368 . S
C1004 C1003 1.523 . S
C1005 C989 1.429 . S
C1005 C1001 1.429 . S
C1005 C1006 1.523 . S
C1006 C990 1.368 . S
C1006 C1002 1.368 . S
C1006 C1005 1.523 . S
H1007 C982 0.950 . S
H1008 C984 0.950 . S
H1009 C985 0.949 . S
H1010 C987 0.950 . S
H1011 C989 0.950 . S
C1012 C1013 1.349 . S
C1012 C1014 1.327 . S
C1012 H1037 0.950 . S
C1013 C1012 1.349 . S
C1013 C1029 1.349 . S
C1014 C1012 1.327 . S
C1014 C1033 1.429 . S
C1014 H1038 0.950 . S
C1015 C1032 1.574 . S
C1015 C1034 1.368 . S
C1015 H1039 0.949 . S
H1016 C1020 0.949 . S
C1017 C1018 1.349 . S
C1017 C1019 1.327 . S
C1017 H1040 0.950 . S
C1018 C1017 1.349 . S
C1018 C1030 1.349 . S
C1019 C1017 1.327 . S
C1019 C1035 1.429 . S
C1019 H1041 0.950 . S
C1020 H1016 0.949 . S
C1020 C1028 1.574 . S
C1020 C1036 1.368 . S
H1021 C1029 0.950 . S
H1022 C1027 0.950 . S
H1023 C1028 0.949 . S
H1024 C1030 0.950 . S
H1025 C1031 0.950 . S
H1026 C1032 0.949 . S
C1027 H1022 0.950 . S
C1027 C1029 1.327 . S
C1027 C1033 1.429 . S
C1028 C1020 1.574 . S
C1028 H1023 0.949 . S
C1028 C1034 1.368 . S
C1029 C1013 1.349 . S
C1029 H1021 0.950 . S
C1029 C1027 1.327 . S
C1030 C1018 1.349 . S
C1030 H1024 0.950 . S
C1030 C1031 1.327 . S
C1031 H1025 0.950 . S
C1031 C1030 1.327 . S
C1031 C1035 1.429 . S
C1032 C1015 1.574 . S
C1032 H1026 0.949 . S
C1032 C1036 1.368 . S
C1033 C1014 1.429 . S
C1033 C1027 1.429 . S
C1033 C1034 1.523 . S
C1034 C1015 1.368 . S
C1034 C1028 1.368 . S
C1034 C1033 1.523 . S
C1035 C1019 1.429 . S
C1035 C1031 1.429 . S
C1035 C1036 1.523 . S
C1036 C1020 1.368 . S
C1036 C1032 1.368 . S
C1036 C1035 1.523 . S
H1037 C1012 0.950 . S
H1038 C1014 0.950 . S
H1039 C1015 0.949 . S
H1040 C1017 0.950 . S
H1041 C1019 0.950 . S
C1042 C1043 1.349 . S
C1042 C1044 1.327 . S
C1042 H1067 0.950 . S
C1043 C1042 1.349 . S
C1043 C1059 1.349 . S
C1044 C1042 1.327 . S
C1044 C1063 1.429 . S
C1044 H1068 0.950 . S
C1045 C1062 1.574 . S
C1045 C1064 1.368 . S
C1045 H1069 0.949 . S
H1046 C1050 0.949 . S
C1047 C1048 1.349 . S
C1047 C1049 1.327 . S
C1047 H1070 0.950 . S
C1048 C1047 1.349 . S
C1048 C1060 1.349 . S
C1049 C1047 1.327 . S
C1049 C1065 1.429 . S
C1049 H1071 0.950 . S
C1050 H1046 0.949 . S
C1050 C1058 1.574 . S
C1050 C1066 1.368 . S
H1051 C1059 0.950 . S
H1052 C1057 0.950 . S
H1053 C1058 0.949 . S
H1054 C1060 0.950 . S
H1055 C1061 0.950 . S
H1056 C1062 0.949 . S
C1057 H1052 0.950 . S
C1057 C1059 1.327 . S
C1057 C1063 1.429 . S
C1058 C1050 1.574 . S
C1058 H1053 0.949 . S
C1058 C1064 1.368 . S
C1059 C1043 1.349 . S
C1059 H1051 0.950 . S
C1059 C1057 1.327 . S
C1060 C1048 1.349 . S
C1060 H1054 0.950 . S
C1060 C1061 1.327 . S
C1061 H1055 0.950 . S
C1061 C1060 1.327 . S
C1061 C1065 1.429 . S
C1062 C1045 1.574 . S
C1062 H1056 0.949 . S
C1062 C1066 1.368 . S
C1063 C1044 1.429 . S
C1063 C1057 1.429 . S
C1063 C1064 1.523 . S
C1064 C1045 1.368 . S
C1064 C1058 1.368 . S
C1064 C1063 1.523 . S
C1065 C1049 1.429 . S
C1065 C1061 1.429 . S
C1065 C1066 1.523 . S
C1066 C1050 1.368 . S
C1066 C1062 1.368 . S
C1066 C1065 1.523 . S
H1067 C1042 0.950 . S
H1068 C1044 0.950 . S
H1069 C1045 0.949 . S
H1070 C1047 0.950 . S
H1071 C1049 0.950 . S
C1072 C1073 1.349 . S
C1072 C1074 1.327 . S
C1072 H1097 0.950 . S
C1073 C1072 1.349 . S
C1073 C1089 1.349 . S
C1074 C1072 1.327 . S
C1074 C1093 1.429 . S
C1074 H1098 0.950 . S
C1075 C1092 1.574 . S
C1075 C1094 1.368 . S
C1075 H1099 0.949 . S
H1076 C1080 0.949 . S
C1077 C1078 1.349 . S
C1077 C1079 1.327 1_565 S
C1077 H1100 0.950 1_565 S
C1078 C1077 1.349 . S
C1078 C1090 1.349 . S
C1079 C1077 1.327 1_545 S
C1079 C1095 1.429 1_545 S
C1079 H1101 0.950 . S
C1080 H1076 0.949 . S
C1080 C1088 1.574 1_565 S
C1080 C1096 1.368 1_565 S
H1081 C1089 0.950 . S
H1082 C1087 0.950 . S
H1083 C1088 0.945 1_565 S
H1084 C1090 0.950 . S
H1085 C1091 0.950 . S
H1086 C1092 0.949 . S
C1087 H1082 0.950 . S
C1087 C1089 1.327 . S
C1087 C1093 1.429 . S
C1088 C1080 1.574 1_545 S
C1088 H1083 0.945 1_545 S
C1088 C1094 1.368 . S
C1089 C1073 1.349 . S
C1089 H1081 0.950 . S
C1089 C1087 1.327 . S
C1090 C1078 1.349 . S
C1090 H1084 0.950 . S
C1090 C1091 1.327 . S
C1091 H1085 0.950 . S
C1091 C1090 1.327 . S
C1091 C1095 1.429 . S
C1092 C1075 1.574 . S
C1092 H1086 0.949 . S
C1092 C1096 1.368 . S
C1093 C1074 1.429 . S
C1093 C1087 1.429 . S
C1093 C1094 1.523 . S
C1094 C1075 1.368 . S
C1094 C1088 1.368 . S
C1094 C1093 1.523 . S
C1095 C1079 1.429 1_565 S
C1095 C1091 1.429 . S
C1095 C1096 1.523 1_565 S
C1096 C1080 1.368 1_545 S
C1096 C1092 1.368 . S
C1096 C1095 1.523 1_545 S
H1097 C1072 0.950 . S
H1098 C1074 0.950 . S
H1099 C1075 0.949 . S
H1100 C1077 0.950 1_545 S
H1101 C1079 0.950 . S
C1102 C1103 1.349 . S
C1102 C1104 1.327 . S
C1102 H1127 0.950 . S
C1103 C1102 1.349 . S
C1103 C1119 1.349 . S
C1104 C1102 1.327 . S
C1104 C1123 1.429 . S
C1104 H1128 0.950 . S
C1105 C1122 1.574 . S
C1105 C1124 1.368 . S
C1105 H1129 0.949 . S
H1106 C1110 0.949 . S
C1107 C1108 1.349 . S
C1107 C1109 1.327 . S
C1107 H1130 0.950 . S
C1108 C1107 1.349 . S
C1108 C1120 1.349 . S
C1109 C1107 1.327 . S
C1109 C1125 1.429 . S
C1109 H1131 0.950 . S
C1110 H1106 0.949 . S
C1110 C1118 1.574 . S
C1110 C1126 1.368 . S
H1111 C1119 0.950 . S
H1112 C1117 0.950 . S
H1113 C1118 0.949 . S
H1114 C1120 0.950 . S
H1115 C1121 0.950 . S
H1116 C1122 0.949 . S
C1117 H1112 0.950 . S
C1117 C1119 1.327 . S
C1117 C1123 1.429 . S
C1118 C1110 1.574 . S
C1118 H1113 0.949 . S
C1118 C1124 1.368 . S
C1119 C1103 1.349 . S
C1119 H1111 0.950 . S
C1119 C1117 1.327 . S
C1120 C1108 1.349 . S
C1120 H1114 0.950 . S
C1120 C1121 1.327 . S
C1121 H1115 0.950 . S
C1121 C1120 1.327 . S
C1121 C1125 1.429 . S
C1122 C1105 1.574 . S
C1122 H1116 0.949 . S
C1122 C1126 1.368 . S
C1123 C1104 1.429 . S
C1123 C1117 1.429 . S
C1123 C1124 1.523 . S
C1124 C1105 1.368 . S
C1124 C1118 1.368 . S
C1124 C1123 1.523 . S
C1125 C1109 1.429 . S
C1125 C1121 1.429 . S
C1125 C1126 1.523 . S
C1126 C1110 1.368 . S
C1126 C1122 1.368 . S
C1126 C1125 1.523 . S
H1127 C1102 0.950 . S
H1128 C1104 0.950 . S
H1129 C1105 0.949 . S
H1130 C1107 0.950 . S
H1131 C1109 0.950 . S
C1132 C1133 1.349 . S
C1132 C1134 1.327 . S
C1132 H1157 0.950 . S
C1133 C1132 1.349 . S
C1133 C1149 1.349 . S
C1134 C1132 1.327 . S
C1134 C1153 1.429 . S
C1134 H1158 0.950 . S
C1135 C1152 1.574 . S
C1135 C1154 1.368 . S
C1135 H1159 0.949 . S
H1136 C1140 0.949 . S
C1137 C1138 1.349 . S
C1137 C1139 1.327 1_545 S
C1137 H1160 0.950 1_545 S
C1138 C1137 1.349 . S
C1138 C1150 1.349 . S
C1139 C1137 1.327 1_565 S
C1139 C1155 1.429 1_565 S
C1139 H1161 0.950 . S
C1140 H1136 0.949 . S
C1140 C1148 1.574 1_545 S
C1140 C1156 1.368 1_545 S
H1141 C1149 0.950 . S
H1142 C1147 0.950 . S
H1143 C1148 0.949 1_545 S
H1144 C1150 0.950 . S
H1145 C1151 0.950 . S
H1146 C1152 0.949 . S
C1147 H1142 0.950 . S
C1147 C1149 1.327 . S
C1147 C1153 1.429 . S
C1148 C1140 1.574 1_565 S
C1148 H1143 0.949 1_565 S
C1148 C1154 1.368 . S
C1149 C1133 1.349 . S
C1149 H1141 0.950 . S
C1149 C1147 1.327 . S
C1150 C1138 1.349 . S
C1150 H1144 0.950 . S
C1150 C1151 1.327 . S
C1151 H1145 0.950 . S
C1151 C1150 1.327 . S
C1151 C1155 1.429 . S
C1152 C1135 1.574 . S
C1152 H1146 0.949 . S
C1152 C1156 1.368 . S
C1153 C1134 1.429 . S
C1153 C1147 1.429 . S
C1153 C1154 1.523 . S
C1154 C1135 1.368 . S
C1154 C1148 1.368 . S
C1154 C1153 1.523 . S
C1155 C1139 1.429 1_545 S
C1155 C1151 1.429 . S
C1155 C1156 1.523 1_545 S
C1156 C1140 1.368 1_565 S
C1156 C1152 1.368 . S
C1156 C1155 1.523 1_565 S
H1157 C1132 0.950 . S
H1158 C1134 0.950 . S
H1159 C1135 0.949 . S
H1160 C1137 0.950 1_565 S
H1161 C1139 0.950 . S
C1162 C1163 1.349 . S
C1162 C1164 1.327 . S
C1162 H1187 0.950 . S
C1163 C1162 1.349 . S
C1163 C1179 1.349 . S
C1164 C1162 1.327 . S
C1164 C1183 1.429 . S
C1164 H1188 0.950 . S
C1165 C1182 1.574 . S
C1165 C1184 1.368 . S
C1165 H1189 0.949 . S
H1166 C1170 0.949 . S
C1167 C1168 1.349 . S
C1167 C1169 1.327 . S
C1167 H1190 0.950 . S
C1168 C1167 1.349 . S
C1168 C1180 1.349 . S
C1169 C1167 1.327 . S
C1169 C1185 1.429 . S
C1169 H1191 0.950 . S
C1170 H1166 0.949 . S
C1170 C1178 1.574 . S
C1170 C1186 1.368 . S
H1171 C1179 0.950 . S
H1172 C1177 0.950 . S
H1173 C1178 0.949 . S
H1174 C1180 0.950 . S
H1175 C1181 0.950 . S
H1176 C1182 0.949 . S
C1177 H1172 0.950 . S
C1177 C1179 1.327 . S
C1177 C1183 1.429 . S
C1178 C1170 1.574 . S
C1178 H1173 0.949 . S
C1178 C1184 1.368 . S
C1179 C1163 1.349 . S
C1179 H1171 0.950 . S
C1179 C1177 1.327 . S
C1180 C1168 1.349 . S
C1180 H1174 0.950 . S
C1180 C1181 1.327 . S
C1181 H1175 0.950 . S
C1181 C1180 1.327 . S
C1181 C1185 1.429 . S
C1182 C1165 1.574 . S
C1182 H1176 0.949 . S
C1182 C1186 1.368 . S
C1183 C1164 1.429 . S
C1183 C1177 1.429 . S
C1183 C1184 1.523 . S
C1184 C1165 1.368 . S
C1184 C1178 1.368 . S
C1184 C1183 1.523 . S
C1185 C1169 1.429 . S
C1185 C1181 1.429 . S
C1185 C1186 1.523 . S
C1186 C1170 1.368 . S
C1186 C1182 1.368 . S
C1186 C1185 1.523 . S
H1187 C1162 0.950 . S
H1188 C1164 0.950 . S
H1189 C1165 0.949 . S
H1190 C1167 0.950 . S
H1191 C1169 0.950 . S
C1192 C1193 1.349 . S
C1192 C1194 1.327 . S
C1192 H1217 0.950 . S
C1193 C1192 1.349 . S
C1193 C1209 1.349 . S
C1194 C1192 1.327 . S
C1194 C1213 1.429 . S
C1194 H1218 0.950 . S
C1195 C1212 1.574 . S
C1195 C1214 1.368 . S
C1195 H1219 0.949 . S
H1196 C1200 0.949 . S
C1197 C1198 1.349 . S
C1197 C1199 1.327 . S
C1197 H1220 0.950 . S
C1198 C1197 1.349 . S
C1198 C1210 1.349 . S
C1199 C1197 1.327 . S
C1199 C1215 1.429 . S
C1199 H1221 0.950 . S
C1200 H1196 0.949 . S
C1200 C1208 1.574 . S
C1200 C1216 1.368 . S
H1201 C1209 0.950 . S
H1202 C1207 0.950 . S
H1203 C1208 0.949 . S
H1204 C1210 0.950 . S
H1205 C1211 0.950 . S
H1206 C1212 0.949 . S
C1207 H1202 0.950 . S
C1207 C1209 1.327 . S
C1207 C1213 1.429 . S
C1208 C1200 1.574 . S
C1208 H1203 0.949 . S
C1208 C1214 1.368 . S
C1209 C1193 1.349 . S
C1209 H1201 0.950 . S
C1209 C1207 1.327 . S
C1210 C1198 1.349 . S
C1210 H1204 0.950 . S
C1210 C1211 1.327 . S
C1211 H1205 0.950 . S
C1211 C1210 1.327 . S
C1211 C1215 1.429 . S
C1212 C1195 1.574 . S
C1212 H1206 0.949 . S
C1212 C1216 1.368 . S
C1213 C1194 1.429 . S
C1213 C1207 1.429 . S
C1213 C1214 1.523 1_545 S
C1214 C1195 1.368 . S
C1214 C1208 1.368 . S
C1214 C1213 1.523 1_565 S
C1215 C1199 1.429 . S
C1215 C1211 1.429 . S
C1215 C1216 1.523 . S
C1216 C1200 1.368 . S
C1216 C1212 1.368 . S
C1216 C1215 1.523 . S
H1217 C1192 0.950 . S
H1218 C1194 0.950 . S
H1219 C1195 0.949 . S
H1220 C1197 0.950 . S
H1221 C1199 0.950 . S
C1222 C1223 1.349 . S
C1222 C1224 1.327 . S
C1222 H1247 0.950 . S
C1223 C1222 1.349 . S
C1223 C1239 1.349 . S
C1224 C1222 1.327 . S
C1224 C1243 1.429 . S
C1224 H1248 0.950 . S
C1225 C1242 1.574 . S
C1225 C1244 1.368 . S
C1225 H1249 0.949 . S
H1226 C1230 0.949 . S
C1227 C1228 1.349 . S
C1227 C1229 1.327 . S
C1227 H1250 0.950 . S
C1228 C1227 1.349 . S
C1228 C1240 1.349 . S
C1229 C1227 1.327 . S
C1229 C1245 1.429 . S
C1229 H1251 0.950 . S
C1230 H1226 0.949 . S
C1230 C1238 1.574 . S
C1230 C1246 1.368 . S
H1231 C1239 0.950 . S
H1232 C1237 0.950 . S
H1233 C1238 0.949 . S
H1234 C1240 0.950 . S
H1235 C1241 0.950 . S
H1236 C1242 0.949 . S
C1237 H1232 0.950 . S
C1237 C1239 1.327 . S
C1237 C1243 1.429 . S
C1238 C1230 1.574 . S
C1238 H1233 0.949 . S
C1238 C1244 1.368 . S
C1239 C1223 1.349 . S
C1239 H1231 0.950 . S
C1239 C1237 1.327 . S
C1240 C1228 1.349 . S
C1240 H1234 0.950 . S
C1240 C1241 1.327 . S
C1241 H1235 0.950 . S
C1241 C1240 1.327 . S
C1241 C1245 1.429 . S
C1242 C1225 1.574 . S
C1242 H1236 0.949 . S
C1242 C1246 1.368 . S
C1243 C1224 1.429 . S
C1243 C1237 1.429 . S
C1243 C1244 1.523 . S
C1244 C1225 1.368 . S
C1244 C1238 1.368 . S
C1244 C1243 1.523 . S
C1245 C1229 1.429 . S
C1245 C1241 1.429 . S
C1245 C1246 1.523 . S
C1246 C1230 1.368 . S
C1246 C1242 1.368 . S
C1246 C1245 1.523 . S
H1247 C1222 0.950 . S
H1248 C1224 0.950 . S
H1249 C1225 0.949 . S
H1250 C1227 0.950 . S
H1251 C1229 0.950 . S
C1252 C1253 1.349 . S
C1252 C1254 1.327 1_565 S
C1252 H1277 0.950 . S
C1253 C1252 1.349 . S
C1253 C1269 1.349 . S
C1254 C1252 1.327 1_545 S
C1254 C1273 1.429 1_545 S
C1254 H1278 0.950 . S
C1255 C1272 1.574 1_565 S
C1255 C1274 1.368 1_565 S
C1255 H1279 0.949 . S
H1256 C1260 0.949 . S
C1257 C1258 1.349 . S
C1257 C1259 1.327 . S
C1257 H1280 0.950 . S
C1258 C1257 1.349 . S
C1258 C1270 1.349 . S
C1259 C1257 1.327 . S
C1259 C1275 1.429 . S
C1259 H1281 0.950 . S
C1260 H1256 0.949 . S
C1260 C1268 1.574 . S
C1260 C1276 1.368 . S
H1261 C1269 0.950 . S
H1262 C1267 0.950 . S
H1263 C1268 0.949 . S
H1264 C1270 0.950 . S
H1265 C1271 0.950 . S
H1266 C1272 0.949 . S
C1267 H1262 0.950 . S
C1267 C1269 1.327 . S
C1267 C1273 1.429 . S
C1268 C1260 1.574 . S
C1268 H1263 0.949 . S
C1268 C1274 1.368 . S
C1269 C1253 1.349 . S
C1269 H1261 0.950 . S
C1269 C1267 1.327 . S
C1270 C1258 1.349 . S
C1270 H1264 0.950 . S
C1270 C1271 1.327 . S
C1271 H1265 0.950 . S
C1271 C1270 1.327 . S
C1271 C1275 1.429 . S
C1272 C1255 1.574 1_545 S
C1272 H1266 0.949 . S
C1272 C1276 1.368 . S
C1273 C1254 1.429 1_565 S
C1273 C1267 1.429 . S
C1273 C1274 1.523 1_565 S
C1274 C1255 1.368 1_545 S
C1274 C1268 1.368 . S
C1274 C1273 1.523 1_545 S
C1275 C1259 1.429 . S
C1275 C1271 1.429 . S
C1275 C1276 1.523 . S
C1276 C1260 1.368 . S
C1276 C1272 1.368 . S
C1276 C1275 1.523 . S
H1277 C1252 0.950 . S
H1278 C1254 0.950 . S
H1279 C1255 0.949 . S
H1280 C1257 0.950 . S
H1281 C1259 0.950 . S
C1282 C1283 1.349 . S
C1282 C1284 1.327 . S
C1282 H1307 0.950 . S
C1283 C1282 1.349 . S
C1283 C1299 1.349 . S
C1284 C1282 1.327 . S
C1284 C1303 1.429 . S
C1284 H1308 0.950 . S
C1285 C1302 1.574 . S
C1285 C1304 1.368 . S
C1285 H1309 0.949 . S
H1286 C1290 0.949 . S
C1287 C1288 1.349 . S
C1287 C1289 1.327 . S
C1287 H1310 0.950 . S
C1288 C1287 1.349 . S
C1288 C1300 1.349 . S
C1289 C1287 1.327 . S
C1289 C1305 1.429 . S
C1289 H1311 0.950 . S
C1290 H1286 0.949 . S
C1290 C1298 1.574 . S
C1290 C1306 1.368 . S
H1291 C1299 0.950 . S
H1292 C1297 0.950 . S
H1293 C1298 0.949 . S
H1294 C1300 0.950 . S
H1295 C1301 0.950 . S
H1296 C1302 0.949 . S
C1297 H1292 0.950 . S
C1297 C1299 1.327 . S
C1297 C1303 1.429 . S
C1298 C1290 1.574 . S
C1298 H1293 0.949 . S
C1298 C1304 1.368 . S
C1299 C1283 1.349 . S
C1299 H1291 0.950 . S
C1299 C1297 1.327 . S
C1300 C1288 1.349 . S
C1300 H1294 0.950 . S
C1300 C1301 1.327 . S
C1301 H1295 0.950 . S
C1301 C1300 1.327 . S
C1301 C1305 1.429 . S
C1302 C1285 1.574 . S
C1302 H1296 0.949 . S
C1302 C1306 1.368 . S
C1303 C1284 1.429 . S
C1303 C1297 1.429 . S
C1303 C1304 1.523 . S
C1304 C1285 1.368 . S
C1304 C1298 1.368 . S
C1304 C1303 1.523 . S
C1305 C1289 1.429 . S
C1305 C1301 1.429 . S
C1305 C1306 1.523 . S
C1306 C1290 1.368 . S
C1306 C1302 1.368 . S
C1306 C1305 1.523 . S
H1307 C1282 0.950 . S
H1308 C1284 0.950 . S
H1309 C1285 0.949 . S
H1310 C1287 0.950 . S
H1311 C1289 0.950 . S
C1312 C1313 1.349 . S
C1312 C1314 1.327 . S
C1312 H1337 0.950 . S
C1313 C1312 1.349 . S
C1313 C1329 1.349 . S
C1314 C1312 1.327 . S
C1314 C1333 1.429 . S
C1314 H1338 0.950 . S
C1315 C1332 1.574 . S
C1315 C1334 1.368 . S
C1315 H1339 0.949 . S
H1316 C1320 0.949 . S
C1317 C1318 1.349 . S
C1317 C1319 1.327 . S
C1317 H1340 0.950 . S
C1318 C1317 1.349 . S
C1318 C1330 1.349 . S
C1319 C1317 1.327 . S
C1319 C1335 1.429 . S
C1319 H1341 0.950 . S
C1320 H1316 0.949 . S
C1320 C1328 1.574 . S
C1320 C1336 1.368 . S
H1321 C1329 0.950 . S
H1322 C1327 0.950 . S
H1323 C1328 0.949 . S
H1324 C1330 0.950 . S
H1325 C1331 0.950 . S
H1326 C1332 0.949 . S
C1327 H1322 0.950 . S
C1327 C1329 1.327 . S
C1327 C1333 1.429 . S
C1328 C1320 1.574 . S
C1328 H1323 0.949 . S
C1328 C1334 1.368 . S
C1329 C1313 1.349 . S
C1329 H1321 0.950 . S
C1329 C1327 1.327 . S
C1330 C1318 1.349 . S
C1330 H1324 0.950 . S
C1330 C1331 1.327 . S
C1331 H1325 0.950 . S
C1331 C1330 1.327 . S
C1331 C1335 1.429 . S
C1332 C1315 1.574 . S
C1332 H1326 0.949 . S
C1332 C1336 1.368 . S
C1333 C1314 1.429 . S
C1333 C1327 1.429 . S
C1333 C1334 1.523 . S
C1334 C1315 1.368 . S
C1334 C1328 1.368 . S
C1334 C1333 1.523 . S
C1335 C1319 1.429 . S
C1335 C1331 1.429 . S
C1335 C1336 1.523 . S
C1336 C1320 1.368 . S
C1336 C1332 1.368 . S
C1336 C1335 1.523 . S
H1337 C1312 0.950 . S
H1338 C1314 0.950 . S
H1339 C1315 0.949 . S
H1340 C1317 0.950 . S
H1341 C1319 0.950 . S
C1342 C1343 1.349 . S
C1342 C1344 1.327 1_545 S
C1342 H1367 0.950 . S
C1343 C1342 1.349 . S
C1343 C1359 1.349 . S
C1344 C1342 1.327 1_565 S
C1344 C1363 1.429 1_565 S
C1344 H1368 0.950 . S
C1345 C1362 1.574 1_545 S
C1345 C1364 1.368 1_545 S
C1345 H1369 0.949 . S
H1346 C1350 0.949 . S
C1347 C1348 1.349 . S
C1347 C1349 1.327 . S
C1347 H1370 0.950 . S
C1348 C1347 1.349 . S
C1348 C1360 1.349 . S
C1349 C1347 1.327 . S
C1349 C1365 1.429 . S
C1349 H1371 0.950 . S
C1350 H1346 0.949 . S
C1350 C1358 1.574 . S
C1350 C1366 1.368 . S
H1351 C1359 0.950 . S
H1352 C1357 0.950 . S
H1353 C1358 0.949 . S
H1354 C1360 0.950 . S
H1355 C1361 0.950 . S
H1356 C1362 0.949 . S
C1357 H1352 0.950 . S
C1357 C1359 1.327 . S
C1357 C1363 1.429 . S
C1358 C1350 1.574 . S
C1358 H1353 0.949 . S
C1358 C1364 1.368 . S
C1359 C1343 1.349 . S
C1359 H1351 0.950 . S
C1359 C1357 1.327 . S
C1360 C1348 1.349 . S
C1360 H1354 0.950 . S
C1360 C1361 1.327 . S
C1361 H1355 0.950 . S
C1361 C1360 1.327 . S
C1361 C1365 1.429 . S
C1362 C1345 1.574 1_565 S
C1362 H1356 0.949 . S
C1362 C1366 1.368 . S
C1363 C1344 1.429 1_545 S
C1363 C1357 1.429 . S
C1363 C1364 1.523 1_545 S
C1364 C1345 1.368 1_565 S
C1364 C1358 1.368 . S
C1364 C1363 1.523 1_565 S
C1365 C1349 1.429 . S
C1365 C1361 1.429 . S
C1365 C1366 1.523 . S
C1366 C1350 1.368 . S
C1366 C1362 1.368 . S
C1366 C1365 1.523 . S
H1367 C1342 0.950 . S
H1368 C1344 0.950 . S
H1369 C1345 0.949 . S
H1370 C1347 0.950 . S
H1371 C1349 0.950 . S
C1372 C1373 1.349 . S
C1372 C1374 1.327 . S
C1372 H1397 0.950 . S
C1373 C1372 1.349 . S
C1373 C1389 1.349 . S
C1374 C1372 1.327 . S
C1374 C1393 1.429 . S
C1374 H1398 0.950 . S
C1375 C1392 1.574 . S
C1375 C1394 1.368 . S
C1375 H1399 0.949 . S
H1376 C1380 0.949 . S
C1377 C1378 1.349 . S
C1377 C1379 1.327 . S
C1377 H1400 0.950 . S
C1378 C1377 1.349 . S
C1378 C1390 1.349 . S
C1379 C1377 1.327 . S
C1379 C1395 1.429 . S
C1379 H1401 0.950 . S
C1380 H1376 0.949 . S
C1380 C1388 1.574 . S
C1380 C1396 1.368 . S
H1381 C1389 0.950 . S
H1382 C1387 0.950 . S
H1383 C1388 0.949 . S
H1384 C1390 0.950 . S
H1385 C1391 0.950 . S
H1386 C1392 0.949 . S
C1387 H1382 0.950 . S
C1387 C1389 1.327 . S
C1387 C1393 1.429 . S
C1388 C1380 1.574 . S
C1388 H1383 0.949 . S
C1388 C1394 1.368 . S
C1389 C1373 1.349 . S
C1389 H1381 0.950 . S
C1389 C1387 1.327 . S
C1390 C1378 1.349 . S
C1390 H1384 0.950 . S
C1390 C1391 1.327 . S
C1391 H1385 0.950 . S
C1391 C1390 1.327 . S
C1391 C1395 1.429 . S
C1392 C1375 1.574 . S
C1392 H1386 0.949 . S
C1392 C1396 1.368 . S
C1393 C1374 1.429 . S
C1393 C1387 1.429 . S
C1393 C1394 1.523 . S
C1394 C1375 1.368 . S
C1394 C1388 1.368 . S
C1394 C1393 1.523 . S
C1395 C1379 1.429 . S
C1395 C1391 1.429 . S
C1395 C1396 1.523 . S
C1396 C1380 1.368 . S
C1396 C1392 1.368 . S
C1396 C1395 1.523 . S
H1397 C1372 0.950 . S
H1398 C1374 0.950 . S
H1399 C1375 0.949 . S
H1400 C1377 0.950 . S
H1401 C1379 0.950 . S
C1402 C1403 1.349 . S
C1402 C1404 1.327 . S
C1402 H1427 0.950 . S
C1403 C1402 1.349 . S
C1403 C1419 1.349 . S
C1404 C1402 1.327 . S
C1404 C1423 1.429 . S
C1404 H1428 0.950 . S
C1405 C1422 1.574 1_545 S
C1405 C1424 1.368 . S
C1405 H1429 0.949 . S
H1406 C1410 0.949 . S
C1407 C1408 1.349 . S
C1407 C1409 1.327 . S
C1407 H1430 0.950 . S
C1408 C1407 1.349 . S
C1408 C1420 1.349 . S
C1409 C1407 1.327 . S
C1409 C1425 1.429 . S
C1409 H1431 0.950 . S
C1410 H1406 0.949 . S
C1410 C1418 1.574 . S
C1410 C1426 1.368 . S
H1411 C1419 0.950 . S
H1412 C1417 0.950 . S
H1413 C1418 0.949 . S
H1414 C1420 0.950 . S
H1415 C1421 0.950 . S
H1416 C1422 0.949 . S
C1417 H1412 0.950 . S
C1417 C1419 1.327 . S
C1417 C1423 1.429 . S
C1418 C1410 1.574 . S
C1418 H1413 0.949 . S
C1418 C1424 1.368 . S
C1419 C1403 1.349 . S
C1419 H1411 0.950 . S
C1419 C1417 1.327 . S
C1420 C1408 1.349 . S
C1420 H1414 0.950 . S
C1420 C1421 1.327 1_565 S
C1421 H1415 0.950 . S
C1421 C1420 1.327 1_545 S
C1421 C1425 1.429 1_545 S
C1422 C1405 1.574 1_565 S
C1422 H1416 0.949 . S
C1422 C1426 1.368 1_565 S
C1423 C1404 1.429 . S
C1423 C1417 1.429 . S
C1423 C1424 1.523 . S
C1424 C1405 1.368 . S
C1424 C1418 1.368 . S
C1424 C1423 1.523 . S
C1425 C1409 1.429 . S
C1425 C1421 1.429 1_565 S
C1425 C1426 1.523 1_565 S
C1426 C1410 1.368 . S
C1426 C1422 1.368 1_545 S
C1426 C1425 1.523 1_545 S
H1427 C1402 0.950 . S
H1428 C1404 0.950 . S
H1429 C1405 0.949 . S
H1430 C1407 0.950 . S
H1431 C1409 0.950 . S
C1432 C1433 1.349 . S
C1432 C1434 1.327 . S
C1432 H1457 0.950 . S
C1433 C1432 1.349 . S
C1433 C1449 1.349 . S
C1434 C1432 1.327 . S
C1434 C1453 1.429 . S
C1434 H1458 0.950 . S
C1435 C1452 1.574 . S
C1435 C1454 1.368 . S
C1435 H1459 0.949 . S
H1436 C1440 0.949 . S
C1437 C1438 1.349 . S
C1437 C1439 1.327 . S
C1437 H1460 0.950 . S
C1438 C1437 1.349 . S
C1438 C1450 1.349 . S
C1439 C1437 1.327 . S
C1439 C1455 1.429 . S
C1439 H1461 0.950 . S
C1440 H1436 0.949 . S
C1440 C1448 1.574 . S
C1440 C1456 1.368 . S
H1441 C1449 0.950 . S
H1442 C1447 0.950 . S
H1443 C1448 0.949 . S
H1444 C1450 0.950 . S
H1445 C1451 0.950 . S
H1446 C1452 0.949 . S
C1447 H1442 0.950 . S
C1447 C1449 1.327 . S
C1447 C1453 1.429 . S
C1448 C1440 1.574 . S
C1448 H1443 0.949 . S
C1448 C1454 1.368 . S
C1449 C1433 1.349 . S
C1449 H1441 0.950 . S
C1449 C1447 1.327 . S
C1450 C1438 1.349 . S
C1450 H1444 0.950 . S
C1450 C1451 1.327 . S
C1451 H1445 0.950 . S
C1451 C1450 1.327 . S
C1451 C1455 1.429 . S
C1452 C1435 1.574 . S
C1452 H1446 0.949 . S
C1452 C1456 1.368 . S
C1453 C1434 1.429 . S
C1453 C1447 1.429 . S
C1453 C1454 1.523 . S
C1454 C1435 1.368 . S
C1454 C1448 1.368 . S
C1454 C1453 1.523 . S
C1455 C1439 1.429 . S
C1455 C1451 1.429 . S
C1455 C1456 1.523 . S
C1456 C1440 1.368 . S
C1456 C1452 1.368 . S
C1456 C1455 1.523 . S
H1457 C1432 0.950 . S
H1458 C1434 0.950 . S
H1459 C1435 0.949 . S
H1460 C1437 0.950 . S
H1461 C1439 0.950 . S
C1462 C1463 1.349 . S
C1462 C1464 1.327 . S
C1462 H1487 0.950 . S
C1463 C1462 1.349 . S
C1463 C1479 1.349 . S
C1464 C1462 1.327 . S
C1464 C1483 1.429 . S
C1464 H1488 0.950 . S
C1465 C1482 1.574 . S
C1465 C1484 1.368 . S
C1465 H1489 0.949 . S
H1466 C1470 0.958 . S
C1467 C1468 1.349 . S
C1467 C1469 1.327 . S
C1467 H1490 0.950 . S
C1468 C1467 1.349 . S
C1468 C1480 1.349 . S
C1469 C1467 1.327 . S
C1469 C1485 1.429 . S
C1469 H1491 0.950 . S
C1470 H1466 0.958 . S
C1470 C1478 1.574 1_545 S
C1470 C1486 1.368 . S
H1471 C1479 0.936 1_545 S
H1472 C1477 0.950 . S
H1473 C1478 0.949 . S
H1474 C1480 0.950 . S
H1475 C1481 0.950 . S
H1476 C1482 0.949 . S
C1477 H1472 0.950 . S
C1477 C1479 1.327 1_545 S
C1477 C1483 1.429 1_545 S
C1478 C1470 1.574 1_565 S
C1478 H1473 0.949 . S
C1478 C1484 1.368 1_565 S
C1479 C1463 1.349 . S
C1479 H1471 0.936 1_565 S
C1479 C1477 1.327 1_565 S
C1480 C1468 1.349 . S
C1480 H1474 0.950 . S
C1480 C1481 1.327 . S
C1481 H1475 0.950 . S
C1481 C1480 1.327 . S
C1481 C1485 1.429 . S
C1482 C1465 1.574 . S
C1482 H1476 0.949 . S
C1482 C1486 1.368 . S
C1483 C1464 1.429 . S
C1483 C1477 1.429 1_565 S
C1483 C1484 1.523 1_565 S
C1484 C1465 1.368 . S
C1484 C1478 1.368 1_545 S
C1484 C1483 1.523 1_545 S
C1485 C1469 1.429 . S
C1485 C1481 1.429 . S
C1485 C1486 1.523 . S
C1486 C1470 1.368 . S
C1486 C1482 1.368 . S
C1486 C1485 1.523 . S
H1487 C1462 0.950 . S
H1488 C1464 0.950 . S
H1489 C1465 0.949 . S
H1490 C1467 0.950 . S
H1491 C1469 0.950 . S
C1492 C1493 1.349 . S
C1492 C1494 1.327 . S
C1492 H1517 0.950 . S
C1493 C1492 1.349 . S
C1493 C1509 1.349 . S
C1494 C1492 1.327 . S
C1494 C1513 1.429 . S
C1494 H1518 0.950 . S
C1495 C1512 1.574 . S
C1495 C1514 1.368 . S
C1495 H1519 0.949 . S
H1496 C1500 0.949 . S
C1497 C1498 1.349 . S
C1497 C1499 1.327 . S
C1497 H1520 0.950 . S
C1498 C1497 1.349 . S
C1498 C1510 1.349 . S
C1499 C1497 1.327 . S
C1499 C1515 1.429 . S
C1499 H1521 0.950 . S
C1500 H1496 0.949 . S
C1500 C1508 1.574 . S
C1500 C1516 1.368 . S
H1501 C1509 0.950 . S
H1502 C1507 0.950 . S
H1503 C1508 0.949 . S
H1504 C1510 0.950 . S
H1505 C1511 0.950 . S
H1506 C1512 0.949 . S
C1507 H1502 0.950 . S
C1507 C1509 1.327 . S
C1507 C1513 1.429 . S
C1508 C1500 1.574 . S
C1508 H1503 0.949 . S
C1508 C1514 1.368 . S
C1509 C1493 1.349 . S
C1509 H1501 0.950 . S
C1509 C1507 1.327 . S
C1510 C1498 1.349 . S
C1510 H1504 0.950 . S
C1510 C1511 1.327 . S
C1511 H1505 0.950 . S
C1511 C1510 1.327 . S
C1511 C1515 1.429 . S
C1512 C1495 1.574 . S
C1512 H1506 0.949 . S
C1512 C1516 1.368 . S
C1513 C1494 1.429 . S
C1513 C1507 1.429 . S
C1513 C1514 1.523 . S
C1514 C1495 1.368 . S
C1514 C1508 1.368 . S
C1514 C1513 1.523 . S
C1515 C1499 1.429 . S
C1515 C1511 1.429 . S
C1515 C1516 1.523 . S
C1516 C1500 1.368 . S
C1516 C1512 1.368 . S
C1516 C1515 1.523 . S
H1517 C1492 0.950 . S
H1518 C1494 0.950 . S
H1519 C1495 0.949 . S
H1520 C1497 0.950 . S
H1521 C1499 0.950 . S
C1522 C1523 1.349 . S
C1522 C1524 1.327 1_545 S
C1522 H1547 0.950 . S
C1523 C1522 1.349 . S
C1523 C1539 1.349 . S
C1524 C1522 1.327 1_565 S
C1524 C1543 1.429 1_565 S
C1524 H1548 0.950 . S
C1525 C1542 1.574 1_545 S
C1525 C1544 1.368 1_545 S
C1525 H1549 0.949 . S
H1526 C1530 0.949 . S
C1527 C1528 1.349 . S
C1527 C1529 1.327 . S
C1527 H1550 0.950 . S
C1528 C1527 1.349 . S
C1528 C1540 1.349 . S
C1529 C1527 1.327 . S
C1529 C1545 1.429 . S
C1529 H1551 0.950 . S
C1530 H1526 0.949 . S
C1530 C1538 1.574 . S
C1530 C1546 1.368 . S
H1531 C1539 0.950 . S
H1532 C1537 0.950 . S
H1533 C1538 0.949 . S
H1534 C1540 0.950 . S
H1535 C1541 0.950 . S
H1536 C1542 0.949 . S
C1537 H1532 0.950 . S
C1537 C1539 1.327 . S
C1537 C1543 1.429 . S
C1538 C1530 1.574 . S
C1538 H1533 0.949 . S
C1538 C1544 1.368 . S
C1539 C1523 1.349 . S
C1539 H1531 0.950 . S
C1539 C1537 1.327 . S
C1540 C1528 1.349 . S
C1540 H1534 0.950 . S
C1540 C1541 1.327 . S
C1541 H1535 0.950 . S
C1541 C1540 1.327 . S
C1541 C1545 1.429 . S
C1542 C1525 1.574 1_565 S
C1542 H1536 0.949 . S
C1542 C1546 1.368 . S
C1543 C1524 1.429 1_545 S
C1543 C1537 1.429 . S
C1543 C1544 1.523 1_545 S
C1544 C1525 1.368 1_565 S
C1544 C1538 1.368 . S
C1544 C1543 1.523 1_565 S
C1545 C1529 1.429 . S
C1545 C1541 1.429 . S
C1545 C1546 1.523 . S
C1546 C1530 1.368 . S
C1546 C1542 1.368 . S
C1546 C1545 1.523 . S
H1547 C1522 0.950 . S
H1548 C1524 0.950 . S
H1549 C1525 0.949 . S
H1550 C1527 0.950 . S
H1551 C1529 0.950 . S
C1552 C1553 1.349 . S
C1552 C1554 1.327 . S
C1552 H1577 0.950 . S
C1553 C1552 1.349 . S
C1553 C1569 1.349 . S
C1554 C1552 1.327 . S
C1554 C1573 1.429 . S
C1554 H1578 0.950 . S
C1555 C1572 1.574 . S
C1555 C1574 1.368 . S
C1555 H1579 0.949 . S
H1556 C1560 0.949 . S
C1557 C1558 1.349 . S
C1557 C1559 1.327 . S
C1557 H1580 0.950 . S
C1558 C1557 1.349 . S
C1558 C1570 1.349 . S
C1559 C1557 1.327 . S
C1559 C1575 1.429 . S
C1559 H1581 0.950 . S
C1560 H1556 0.949 . S
C1560 C1568 1.574 . S
C1560 C1576 1.368 . S
H1561 C1569 0.950 . S
H1562 C1567 0.950 . S
H1563 C1568 0.949 . S
H1564 C1570 0.950 . S
H1565 C1571 0.950 . S
H1566 C1572 0.949 . S
C1567 H1562 0.950 . S
C1567 C1569 1.327 . S
C1567 C1573 1.429 . S
C1568 C1560 1.574 . S
C1568 H1563 0.949 . S
C1568 C1574 1.368 . S
C1569 C1553 1.349 . S
C1569 H1561 0.950 . S
C1569 C1567 1.327 . S
C1570 C1558 1.349 . S
C1570 H1564 0.950 . S
C1570 C1571 1.327 . S
C1571 H1565 0.950 . S
C1571 C1570 1.327 . S
C1571 C1575 1.429 . S
C1572 C1555 1.574 . S
C1572 H1566 0.949 . S
C1572 C1576 1.368 . S
C1573 C1554 1.429 . S
C1573 C1567 1.429 . S
C1573 C1574 1.523 . S
C1574 C1555 1.368 . S
C1574 C1568 1.368 . S
C1574 C1573 1.523 . S
C1575 C1559 1.429 . S
C1575 C1571 1.429 . S
C1575 C1576 1.523 . S
C1576 C1560 1.368 . S
C1576 C1572 1.368 . S
C1576 C1575 1.523 . S
H1577 C1552 0.950 . S
H1578 C1554 0.950 . S
H1579 C1555 0.949 . S
H1580 C1557 0.950 . S
H1581 C1559 0.950 . S
C1582 C1583 1.349 . S
C1582 C1584 1.327 . S
C1582 H1607 0.950 . S
C1583 C1582 1.349 . S
C1583 C1599 1.349 . S
C1584 C1582 1.327 . S
C1584 C1603 1.429 . S
C1584 H1608 0.950 . S
C1585 C1602 1.574 . S
C1585 C1604 1.368 . S
C1585 H1609 0.949 . S
H1586 C1590 0.949 . S
C1587 C1588 1.349 . S
C1587 C1589 1.327 . S
C1587 H1610 0.950 . S
C1588 C1587 1.349 . S
C1588 C1600 1.349 . S
C1589 C1587 1.327 . S
C1589 C1605 1.429 . S
C1589 H1611 0.950 . S
C1590 H1586 0.949 . S
C1590 C1598 1.574 . S
C1590 C1606 1.368 . S
H1591 C1599 0.950 . S
H1592 C1597 0.950 . S
H1593 C1598 0.949 . S
H1594 C1600 0.950 . S
H1595 C1601 0.950 . S
H1596 C1602 0.949 . S
C1597 H1592 0.950 . S
C1597 C1599 1.327 . S
C1597 C1603 1.429 . S
C1598 C1590 1.574 . S
C1598 H1593 0.949 . S
C1598 C1604 1.368 . S
C1599 C1583 1.349 . S
C1599 H1591 0.950 . S
C1599 C1597 1.327 . S
C1600 C1588 1.349 . S
C1600 H1594 0.950 . S
C1600 C1601 1.327 . S
C1601 H1595 0.950 . S
C1601 C1600 1.327 . S
C1601 C1605 1.429 . S
C1602 C1585 1.574 . S
C1602 H1596 0.949 . S
C1602 C1606 1.368 . S
C1603 C1584 1.429 . S
C1603 C1597 1.429 . S
C1603 C1604 1.523 . S
C1604 C1585 1.368 . S
C1604 C1598 1.368 . S
C1604 C1603 1.523 . S
C1605 C1589 1.429 . S
C1605 C1601 1.429 . S
C1605 C1606 1.523 . S
C1606 C1590 1.368 . S
C1606 C1602 1.368 . S
C1606 C1605 1.523 . S
H1607 C1582 0.950 . S
H1608 C1584 0.950 . S
H1609 C1585 0.949 . S
H1610 C1587 0.950 . S
H1611 C1589 0.950 . S
C1612 C1613 1.349 . S
C1612 C1614 1.327 . S
C1612 H1637 0.950 . S
C1613 C1612 1.349 . S
C1613 C1629 1.349 . S
C1614 C1612 1.327 . S
C1614 C1633 1.429 . S
C1614 H1638 0.950 . S
C1615 C1632 1.574 . S
C1615 C1634 1.368 . S
C1615 H1639 0.949 . S
H1616 C1620 0.949 . S
C1617 C1618 1.349 . S
C1617 C1619 1.327 . S
C1617 H1640 0.950 . S
C1618 C1617 1.349 . S
C1618 C1630 1.349 . S
C1619 C1617 1.327 . S
C1619 C1635 1.429 . S
C1619 H1641 0.950 . S
C1620 H1616 0.949 . S
C1620 C1628 1.574 . S
C1620 C1636 1.368 . S
H1621 C1629 0.950 . S
H1622 C1627 0.950 . S
H1623 C1628 0.949 . S
H1624 C1630 0.950 . S
H1625 C1631 0.950 . S
H1626 C1632 0.949 . S
C1627 H1622 0.950 . S
C1627 C1629 1.327 . S
C1627 C1633 1.429 . S
C1628 C1620 1.574 . S
C1628 H1623 0.949 . S
C1628 C1634 1.368 . S
C1629 C1613 1.349 . S
C1629 H1621 0.950 . S
C1629 C1627 1.327 . S
C1630 C1618 1.349 . S
C1630 H1624 0.950 . S
C1630 C1631 1.327 . S
C1631 H1625 0.950 . S
C1631 C1630 1.327 . S
C1631 C1635 1.429 . S
C1632 C1615 1.574 . S
C1632 H1626 0.949 . S
C1632 C1636 1.368 . S
C1633 C1614 1.429 . S
C1633 C1627 1.429 . S
C1633 C1634 1.523 . S
C1634 C1615 1.368 . S
C1634 C1628 1.368 . S
C1634 C1633 1.523 . S
C1635 C1619 1.429 . S
C1635 C1631 1.429 . S
C1635 C1636 1.523 . S
C1636 C1620 1.368 . S
C1636 C1632 1.368 . S
C1636 C1635 1.523 . S
H1637 C1612 0.950 . S
H1638 C1614 0.950 . S
H1639 C1615 0.949 . S
H1640 C1617 0.950 . S
H1641 C1619 0.950 . S
C1642 C1643 1.349 . S
C1642 C1644 1.327 . S
C1642 H1667 0.950 . S
C1643 C1642 1.349 . S
C1643 C1659 1.349 . S
C1644 C1642 1.327 . S
C1644 C1663 1.429 . S
C1644 H1668 0.950 . S
C1645 C1662 1.574 . S
C1645 C1664 1.368 . S
C1645 H1669 0.949 . S
H1646 C1650 0.949 . S
C1647 C1648 1.349 . S
C1647 C1649 1.327 . S
C1647 H1670 0.950 . S
C1648 C1647 1.349 . S
C1648 C1660 1.349 . S
C1649 C1647 1.327 . S
C1649 C1665 1.429 . S
C1649 H1671 0.950 . S
C1650 H1646 0.949 . S
C1650 C1658 1.574 . S
C1650 C1666 1.368 . S
H1651 C1659 0.950 . S
H1652 C1657 0.950 . S
H1653 C1658 0.949 . S
H1654 C1660 0.950 . S
H1655 C1661 0.950 . S
H1656 C1662 0.949 . S
C1657 H1652 0.950 . S
C1657 C1659 1.327 . S
C1657 C1663 1.429 . S
C1658 C1650 1.574 . S
C1658 H1653 0.949 . S
C1658 C1664 1.368 . S
C1659 C1643 1.349 . S
C1659 H1651 0.950 . S
C1659 C1657 1.327 . S
C1660 C1648 1.349 . S
C1660 H1654 0.950 . S
C1660 C1661 1.327 . S
C1661 H1655 0.950 . S
C1661 C1660 1.327 . S
C1661 C1665 1.429 . S
C1662 C1645 1.574 . S
C1662 H1656 0.949 . S
C1662 C1666 1.368 . S
C1663 C1644 1.429 . S
C1663 C1657 1.429 . S
C1663 C1664 1.523 . S
C1664 C1645 1.368 . S
C1664 C1658 1.368 . S
C1664 C1663 1.523 . S
C1665 C1649 1.429 . S
C1665 C1661 1.429 . S
C1665 C1666 1.523 . S
C1666 C1650 1.368 . S
C1666 C1662 1.368 . S
C1666 C1665 1.523 . S
H1667 C1642 0.950 . S
H1668 C1644 0.950 . S
H1669 C1645 0.949 . S
H1670 C1647 0.950 . S
H1671 C1649 0.950 . S
C1672 C1673 1.349 . S
C1672 C1674 1.327 . S
C1672 H1697 0.950 . S
C1673 C1672 1.349 . S
C1673 C1689 1.349 . S
C1674 C1672 1.327 . S
C1674 C1693 1.429 . S
C1674 H1698 0.950 . S
C1675 C1692 1.574 . S
C1675 C1694 1.368 1_655 S
C1675 H1699 0.949 . S
H1676 C1680 0.949 . S
C1677 C1678 1.349 . S
C1677 C1679 1.327 . S
C1677 H1700 0.950 . S
C1678 C1677 1.349 . S
C1678 C1690 1.349 . S
C1679 C1677 1.327 . S
C1679 C1695 1.429 . S
C1679 H1701 0.950 . S
C1680 H1676 0.949 . S
C1680 C1688 1.574 . S
C1680 C1696 1.368 1_455 S
H1681 C1689 0.950 . S
H1682 C1687 0.950 1_655 S
H1683 C1688 0.949 . S
H1684 C1690 0.950 . S
H1685 C1691 0.950 1_455 S
H1686 C1692 0.949 . S
C1687 H1682 0.950 1_455 S
C1687 C1689 1.327 . S
C1687 C1693 1.429 . S
C1688 C1680 1.574 . S
C1688 H1683 0.949 . S
C1688 C1694 1.368 . S
C1689 C1673 1.349 . S
C1689 H1681 0.950 . S
C1689 C1687 1.327 . S
C1690 C1678 1.349 . S
C1690 H1684 0.950 . S
C1690 C1691 1.327 . S
C1691 H1685 0.950 1_655 S
C1691 C1690 1.327 . S
C1691 C1695 1.429 . S
C1692 C1675 1.574 . S
C1692 H1686 0.949 . S
C1692 C1696 1.368 . S
C1693 C1674 1.429 . S
C1693 C1687 1.429 . S
C1693 C1694 1.523 . S
C1694 C1675 1.368 1_455 S
C1694 C1688 1.368 . S
C1694 C1693 1.523 . S
C1695 C1679 1.429 . S
C1695 C1691 1.429 . S
C1695 C1696 1.523 . S
C1696 C1680 1.368 1_655 S
C1696 C1692 1.368 . S
C1696 C1695 1.523 . S
H1697 C1672 0.950 . S
H1698 C1674 0.950 . S
H1699 C1675 0.949 . S
H1700 C1677 0.950 . S
H1701 C1679 0.950 . S
C1702 C1703 1.349 . S
C1702 C1704 1.327 . S
C1702 H1727 0.950 . S
C1703 C1702 1.349 . S
C1703 C1719 1.349 . S
C1704 C1702 1.327 . S
C1704 C1723 1.429 . S
C1704 H1728 0.950 . S
C1705 C1722 1.574 . S
C1705 C1724 1.368 1_455 S
C1705 H1729 0.949 . S
H1706 C1710 0.949 . S
C1707 C1708 1.349 . S
C1707 C1709 1.327 . S
C1707 H1730 0.950 . S
C1708 C1707 1.349 . S
C1708 C1720 1.349 . S
C1709 C1707 1.327 . S
C1709 C1725 1.429 . S
C1709 H1731 0.950 . S
C1710 H1706 0.949 . S
C1710 C1718 1.574 . S
C1710 C1726 1.368 1_655 S
H1711 C1719 0.950 . S
H1712 C1717 0.950 1_455 S
H1713 C1718 0.949 . S
H1714 C1720 0.950 . S
H1715 C1721 0.950 1_655 S
H1716 C1722 0.949 . S
C1717 H1712 0.950 1_655 S
C1717 C1719 1.327 . S
C1717 C1723 1.429 . S
C1718 C1710 1.574 . S
C1718 H1713 0.949 . S
C1718 C1724 1.368 . S
C1719 C1703 1.349 . S
C1719 H1711 0.950 . S
C1719 C1717 1.327 . S
C1720 C1708 1.349 . S
C1720 H1714 0.950 . S
C1720 C1721 1.327 . S
C1721 H1715 0.950 1_455 S
C1721 C1720 1.327 . S
C1721 C1725 1.429 . S
C1722 C1705 1.574 . S
C1722 H1716 0.949 . S
C1722 C1726 1.368 . S
C1723 C1704 1.429 . S
C1723 C1717 1.429 . S
C1723 C1724 1.523 . S
C1724 C1705 1.368 1_655 S
C1724 C1718 1.368 . S
C1724 C1723 1.523 . S
C1725 C1709 1.429 . S
C1725 C1721 1.429 . S
C1725 C1726 1.523 . S
C1726 C1710 1.368 1_455 S
C1726 C1722 1.368 . S
C1726 C1725 1.523 . S
H1727 C1702 0.950 . S
H1728 C1704 0.950 . S
H1729 C1705 0.949 . S
H1730 C1707 0.950 . S
H1731 C1709 0.950 . S
C1732 C1733 1.349 . S
C1732 C1734 1.327 . S
C1732 H1757 0.950 . S
C1733 C1732 1.349 . S
C1733 C1749 1.349 . S
C1734 C1732 1.327 . S
C1734 C1753 1.429 . S
C1734 H1758 0.950 . S
C1735 C1752 1.574 . S
C1735 C1754 1.368 1_455 S
C1735 H1759 0.949 . S
H1736 C1740 0.949 . S
C1737 C1738 1.349 . S
C1737 C1739 1.327 . S
C1737 H1760 0.950 . S
C1738 C1737 1.349 . S
C1738 C1750 1.349 . S
C1739 C1737 1.327 . S
C1739 C1755 1.429 . S
C1739 H1761 0.950 . S
C1740 H1736 0.949 . S
C1740 C1748 1.574 . S
C1740 C1756 1.368 1_655 S
H1741 C1749 0.950 . S
H1742 C1747 0.950 1_455 S
H1743 C1748 0.949 . S
H1744 C1750 0.950 . S
H1745 C1751 0.950 1_655 S
H1746 C1752 0.949 . S
C1747 H1742 0.950 1_655 S
C1747 C1749 1.327 . S
C1747 C1753 1.429 . S
C1748 C1740 1.574 . S
C1748 H1743 0.949 . S
C1748 C1754 1.368 . S
C1749 C1733 1.349 . S
C1749 H1741 0.950 . S
C1749 C1747 1.327 . S
C1750 C1738 1.349 . S
C1750 H1744 0.950 . S
C1750 C1751 1.327 . S
C1751 H1745 0.950 1_455 S
C1751 C1750 1.327 . S
C1751 C1755 1.429 . S
C1752 C1735 1.574 . S
C1752 H1746 0.949 . S
C1752 C1756 1.368 . S
C1753 C1734 1.429 . S
C1753 C1747 1.429 . S
C1753 C1754 1.523 . S
C1754 C1735 1.368 1_655 S
C1754 C1748 1.368 . S
C1754 C1753 1.523 . S
C1755 C1739 1.429 . S
C1755 C1751 1.429 . S
C1755 C1756 1.523 . S
C1756 C1740 1.368 1_455 S
C1756 C1752 1.368 . S
C1756 C1755 1.523 . S
H1757 C1732 0.950 . S
H1758 C1734 0.950 . S
H1759 C1735 0.949 . S
H1760 C1737 0.950 . S
H1761 C1739 0.950 . S
C1762 C1763 1.349 . S
C1762 C1764 1.327 . S
C1762 H1787 0.950 . S
C1763 C1762 1.349 . S
C1763 C1779 1.349 . S
C1764 C1762 1.327 . S
C1764 C1783 1.429 . S
C1764 H1788 0.950 1_655 S
C1765 C1782 1.574 . S
C1765 C1784 1.368 . S
C1765 H1789 0.949 . S
H1766 C1770 0.949 . S
C1767 C1768 1.349 . S
C1767 C1769 1.327 . S
C1767 H1790 0.950 . S
C1768 C1767 1.349 . S
C1768 C1780 1.349 . S
C1769 C1767 1.327 . S
C1769 C1785 1.429 . S
C1769 H1791 0.950 1_455 S
C1770 H1766 0.949 . S
C1770 C1778 1.574 . S
C1770 C1786 1.368 . S
H1771 C1779 0.950 . S
H1772 C1777 0.950 . S
H1773 C1778 0.949 . S
H1774 C1780 0.950 . S
H1775 C1781 0.950 . S
H1776 C1782 0.949 . S
C1777 H1772 0.950 . S
C1777 C1779 1.327 . S
C1777 C1783 1.429 . S
C1778 C1770 1.574 . S
C1778 H1773 0.949 . S
C1778 C1784 1.368 1_455 S
C1779 C1763 1.349 . S
C1779 H1771 0.950 . S
C1779 C1777 1.327 . S
C1780 C1768 1.349 . S
C1780 H1774 0.950 . S
C1780 C1781 1.327 . S
C1781 H1775 0.950 . S
C1781 C1780 1.327 . S
C1781 C1785 1.429 . S
C1782 C1765 1.574 . S
C1782 H1776 0.949 . S
C1782 C1786 1.368 1_655 S
C1783 C1764 1.429 . S
C1783 C1777 1.429 . S
C1783 C1784 1.523 . S
C1784 C1765 1.368 . S
C1784 C1778 1.368 1_655 S
C1784 C1783 1.523 . S
C1785 C1769 1.429 . S
C1785 C1781 1.429 . S
C1785 C1786 1.523 . S
C1786 C1770 1.368 . S
C1786 C1782 1.368 1_455 S
C1786 C1785 1.523 . S
H1787 C1762 0.950 . S
H1788 C1764 0.950 1_455 S
H1789 C1765 0.949 . S
H1790 C1767 0.950 . S
H1791 C1769 0.950 1_655 S
C353 C6 0.657 . S
C358 C93 0.657 . S
C383 C28 0.657 . S
C388 C119 0.657 . S
C413 C50 0.657 . S
C418 C137 0.657 . S
C443 C73 0.657 . S
C448 C159 0.657 . S
C473 C182 0.657 . S
C478 C269 0.657 . S
C503 C204 0.657 . S
C508 C295 0.657 . S
C533 C226 0.657 . S
C538 C313 0.657 . S
C563 C249 0.657 . S
C568 C335 0.657 . S
C593 C7 1.829 . S
C598 C51 1.829 . S
C623 C29 1.829 . S
C628 C72 1.829 . S
C653 C97 1.829 . S
C658 C141 1.829 . S
C683 C115 1.829 . S
C688 C163 1.829 . S
C713 C227 1.829 . S
C718 C183 1.829 . S
C743 C248 1.829 . S
C748 C205 1.829 . S
C773 C273 1.829 . S
C778 C317 1.829 . S
C803 C291 1.829 . S
C808 C339 1.829 . S
C833 C4 1.897 . S
C838 C250 1.897 . S
C863 C224 1.897 . S
C868 C26 1.897 . S
C893 C48 1.897 . S
C898 C202 1.897 . S
C923 C74 1.897 . S
C928 C180 1.897 . S
C953 C92 1.897 . S
C958 C334 1.897 . S
C983 C118 1.897 . S
C988 C312 1.897 . S
C1013 C294 1.897 . S
C1018 C136 1.897 . S
C1043 C158 1.897 . S
C1048 C268 1.897 . S
C1073 C9 1.155 . S
C1078 C336 1.193 . S
C1103 C31 1.155 . S
C1108 C314 1.193 . S
C1133 C53 1.155 . S
C1138 C293 1.193 . S
C1163 C71 1.155 . S
C1168 C270 1.193 . S
C1193 C251 1.193 . S
C1198 C95 1.155 . S
C1223 C225 1.193 . S
C1228 C116 1.155 . S
C1253 C203 1.193 . S
C1258 C139 1.155 . S
C1283 C161 1.155 . S
C1288 C181 1.193 . S
C1313 C160 1.193 . S
C1318 C185 1.155 . S
C1343 C138 1.193 . S
C1348 C207 1.155 . S
C1373 C117 1.193 . S
C1378 C229 1.155 . S
C1403 C247 1.155 . S
C1408 C94 1.193 . S
C1433 C271 1.155 . S
C1438 C75 1.193 . S
C1463 C49 1.193 . S
C1468 C292 1.155 . S
C1493 C315 1.155 . S
C1498 C27 1.193 . S
C1523 C5 1.193 . S
C1528 C337 1.155 . S
C1553 C8 1.403 . S
C1558 C30 1.403 . S
C1583 C70 1.403 . S
C1588 C52 1.403 . S
C1613 C96 1.403 . S
C1618 C114 1.403 . S
C1643 C162 1.403 . S
C1648 C140 1.403 . S
C1673 C206 1.403 . S
C1678 C184 1.403 . S
C1703 C228 1.403 . S
C1708 C246 1.403 . S
C1733 C290 1.403 . S
C1738 C272 1.403 . S
C1763 C338 1.403 . S
C1768 C316 1.403 . S
