# Generated by pormake.
# Topology wkf, (6)-cn, num edge types: 1
# Building blocks:
#     Node 0, Type 0, BuildingBlock: KUMJIN_clean_sbu_0, # of connection points: 6
#     Node 1, Type 0, BuildingBlock: KUMJIN_clean_sbu_0, # of connection points: 6
#     Node 2, Type 0, BuildingBlock: KUMJIN_clean_sbu_0, # of connection points: 6
#     Node 3, Type 0, BuildingBlock: KUMJIN_clean_sbu_0, # of connection points: 6
#     Node 4, Type 0, BuildingBlock: KUMJIN_clean_sbu_0, # of connection points: 6
#     Node 5, Type 0, BuildingBlock: KUMJIN_clean_sbu_0, # of connection points: 6
#     Node 6, Type 0, BuildingBlock: KUMJIN_clean_sbu_0, # of connection points: 6
#     Node 7, Type 0, BuildingBlock: KUMJIN_clean_sbu_0, # of connection points: 6
#     Node 8, Type 0, BuildingBlock: KUMJIN_clean_sbu_0, # of connection points: 6
#     Node 9, Type 0, BuildingBlock: KUMJIN_clean_sbu_0, # of connection points: 6
#     Node 10, Type 0, BuildingBlock: KUMJIN_clean_sbu_0, # of connection points: 6
#     Node 11, Type 0, BuildingBlock: KUMJIN_clean_sbu_0, # of connection points: 6
#     Edge 12, Type (0, 0), BuildingBlock: KIFKEQ_clean_linker_1, # of connection points: 2
#     Edge 13, Type (0, 0), BuildingBlock: KIFKEQ_clean_linker_1, # of connection points: 2
#     Edge 14, Type (0, 0), BuildingBlock: KIFKEQ_clean_linker_1, # of connection points: 2
#     Edge 15, Type (0, 0), BuildingBlock: KIFKEQ_clean_linker_1, # of connection points: 2
#     Edge 16, Type (0, 0), BuildingBlock: KIFKEQ_clean_linker_1, # of connection points: 2
#     Edge 17, Type (0, 0), BuildingBlock: KIFKEQ_clean_linker_1, # of connection points: 2
#     Edge 18, Type (0, 0), BuildingBlock: KIFKEQ_clean_linker_1, # of connection points: 2
#     Edge 19, Type (0, 0), BuildingBlock: KIFKEQ_clean_linker_1, # of connection points: 2
#     Edge 20, Type (0, 0), BuildingBlock: KIFKEQ_clean_linker_1, # of connection points: 2
#     Edge 21, Type (0, 0), BuildingBlock: KIFKEQ_clean_linker_1, # of connection points: 2
#     Edge 22, Type (0, 0), BuildingBlock: KIFKEQ_clean_linker_1, # of connection points: 2
#     Edge 23, Type (0, 0), BuildingBlock: KIFKEQ_clean_linker_1, # of connection points: 2
#     Edge 24, Type (0, 0), BuildingBlock: KIFKEQ_clean_linker_1, # of connection points: 2
#     Edge 25, Type (0, 0), BuildingBlock: KIFKEQ_clean_linker_1, # of connection points: 2
#     Edge 26, Type (0, 0), BuildingBlock: KIFKEQ_clean_linker_1, # of connection points: 2
#     Edge 27, Type (0, 0), BuildingBlock: KIFKEQ_clean_linker_1, # of connection points: 2
#     Edge 28, Type (0, 0), BuildingBlock: KIFKEQ_clean_linker_1, # of connection points: 2
#     Edge 29, Type (0, 0), BuildingBlock: KIFKEQ_clean_linker_1, # of connection points: 2
#     Edge 30, Type (0, 0), BuildingBlock: KIFKEQ_clean_linker_1, # of connection points: 2
#     Edge 31, Type (0, 0), BuildingBlock: KIFKEQ_clean_linker_1, # of connection points: 2
#     Edge 32, Type (0, 0), BuildingBlock: KIFKEQ_clean_linker_1, # of connection points: 2
#     Edge 33, Type (0, 0), BuildingBlock: KIFKEQ_clean_linker_1, # of connection points: 2
#     Edge 34, Type (0, 0), BuildingBlock: KIFKEQ_clean_linker_1, # of connection points: 2
#     Edge 35, Type (0, 0), BuildingBlock: KIFKEQ_clean_linker_1, # of connection points: 2
#     Edge 36, Type (0, 0), BuildingBlock: KIFKEQ_clean_linker_1, # of connection points: 2
#     Edge 37, Type (0, 0), BuildingBlock: KIFKEQ_clean_linker_1, # of connection points: 2
#     Edge 38, Type (0, 0), BuildingBlock: KIFKEQ_clean_linker_1, # of connection points: 2
#     Edge 39, Type (0, 0), BuildingBlock: KIFKEQ_clean_linker_1, # of connection points: 2
#     Edge 40, Type (0, 0), BuildingBlock: KIFKEQ_clean_linker_1, # of connection points: 2
#     Edge 41, Type (0, 0), BuildingBlock: KIFKEQ_clean_linker_1, # of connection points: 2
#     Edge 42, Type (0, 0), BuildingBlock: KIFKEQ_clean_linker_1, # of connection points: 2
#     Edge 43, Type (0, 0), BuildingBlock: KIFKEQ_clean_linker_1, # of connection points: 2
#     Edge 44, Type (0, 0), BuildingBlock: KIFKEQ_clean_linker_1, # of connection points: 2
#     Edge 45, Type (0, 0), BuildingBlock: KIFKEQ_clean_linker_1, # of connection points: 2
#     Edge 46, Type (0, 0), BuildingBlock: KIFKEQ_clean_linker_1, # of connection points: 2
#     Edge 47, Type (0, 0), BuildingBlock: KIFKEQ_clean_linker_1, # of connection points: 2
# Relax obj value: 0.167
# Max RMSD: 0.269
# Mean RMSD: 0.261
data_MOF--net-wkf--node1-KUMJIN_clean_sbu_0--edge1-KIFKEQ_clean_linker_1
_symmetry_space_group_name_H-M    P1
_symmetry_Int_Tables_number       1
_symmetry_cell_setting            triclinic
loop_
_symmetry_equiv_pos_as_xyz
'x, y, z'
_cell_length_a     30.909358
_cell_length_b     30.916051
_cell_length_c     82.645713
_cell_angle_alpha  90.023783
_cell_angle_beta   89.96034
_cell_angle_gamma 119.37408
loop_
_atom_site_label
_atom_site_type_symbol
_atom_site_fract_x
_atom_site_fract_y
_atom_site_fract_z
_atom_type_partial_charge
Eu0 Eu 0.5318 0.99783 0.36811 0.0
C1 C 0.46031 1.014 0.30695 0.0
C2 C 0.41591 0.06069 0.30518 0.0
C3 C 0.46318 0.0576 0.2821 0.0
C4 C 0.42926 1.02984 0.31387 0.0
C5 C 0.47771 1.02811 0.29099 0.0
C6 C 0.4324 0.07384 0.28917 0.0
C7 C 0.52299 0.98322 0.29372 0.0
N8 N 0.47454 0.98609 0.31595 0.0
C9 C 0.50458 0.96979 0.30946 0.0
C10 C 0.5095 1.01244 0.28444 0.0
Eu11 Eu 0.43483 0.96036 0.34136 0.0
N12 N 0.41582 1.01856 0.32968 0.0
C13 C 0.38826 1.03583 0.33742 0.0
C14 C 0.38772 0.07871 0.31302 0.0
C15 C 0.37414 0.06651 0.32922 0.0
H16 H 0.51448 0.94624 0.31624 0.0
H17 H 0.35245 0.08037 0.33535 0.0
H18 H 0.42234 0.09734 0.28225 0.0
H19 H 0.54722 0.9706 0.2887 0.0
H20 H 0.37707 1.02543 0.34986 0.0
H21 H 0.63715 0.07691 0.31158 0.0
H22 H 0.37683 0.10262 0.30674 0.0
H23 H 0.52443 0.9001 0.38873 0.0
H24 H 0.56783 0.05249 0.3301 0.0
H25 H 0.57274 0.85722 0.3921 0.0
H26 H 0.47606 0.0686 0.2698 0.0
H27 H 0.69899 0.04979 0.3165 0.0
H28 H 0.72463 0.9976 0.33253 0.0
H29 H 0.52374 1.02259 0.27223 0.0
H30 H 0.70604 0.93625 0.35409 0.0
N31 N 0.59186 1.01659 0.34702 0.0
C32 C 0.59549 0.04271 0.33324 0.0
C33 C 0.66917 1.0402 0.3251 0.0
C34 C 0.66304 1.00976 0.33837 0.0
C35 C 0.63447 0.05568 0.32232 0.0
C36 C 0.62328 0.99804 0.34917 0.0
H37 H 0.64853 0.88238 0.37585 0.0
N38 N 0.57114 0.94877 0.37022 0.0
C39 C 0.58439 0.8869 0.38335 0.0
C40 C 0.61254 0.96302 0.36116 0.0
C41 C 0.55675 0.91118 0.38124 0.0
C42 C 0.62731 0.90144 0.37425 0.0
C43 C 0.64171 0.93961 0.3629 0.0
O44 O 0.52953 0.98338 0.39394 0.0
O45 O 0.45592 0.99196 0.36679 0.0
O46 O 0.48206 0.05014 0.34031 0.0
O47 O 0.55179 0.07592 0.35649 0.0
O48 O 0.51379 0.05632 0.3763 0.0
O49 O 0.59682 0.04166 0.38314 0.0
O50 O 0.38743 0.90576 0.32302 0.0
O51 O 0.50186 0.9487 0.34631 0.0
O52 O 0.4668 0.92429 0.37792 0.0
O53 O 0.39861 0.92158 0.36557 0.0
O54 O 0.43908 0.88767 0.33935 0.0
O55 O 0.35341 0.92632 0.34204 0.0
C56 C 0.46681 1.03385 0.37329 0.0
C57 C 0.57414 0.05654 0.40922 0.0
C58 C 0.61512 0.13956 0.42107 0.0
C59 C 0.61124 0.10634 0.40882 0.0
C60 C 0.57889 0.12291 0.43332 0.0
C61 C 0.53857 1.04034 0.42168 0.0
C62 C 0.54061 0.07362 0.4335 0.0
C63 C 0.52458 0.08738 0.34638 0.0
C64 C 0.57271 1.02206 0.39658 0.0
C65 C 0.68308 0.95358 0.35285 0.0
C66 C 0.69372 0.98859 0.3406 0.0
C67 C 0.48337 0.90137 0.34426 0.0
C68 C 0.30803 0.89832 0.31669 0.0
C69 C 0.28666 0.86054 0.30451 0.0
C70 C 0.24838 0.85749 0.29408 0.0
C71 C 0.23351 0.89352 0.29573 0.0
C72 C 0.29048 0.93234 0.31799 0.0
C73 C 0.25439 0.93044 0.30748 0.0
C74 C 0.41786 0.90472 0.37674 0.0
C75 C 0.34588 0.90064 0.3287 0.0
H76 H 0.6377 0.11919 0.39895 0.0
H77 H 0.58087 0.14732 0.44303 0.0
H78 H 0.50912 1.00208 0.42227 0.0
H79 H 0.51301 0.06093 0.44302 0.0
H80 H 0.29847 0.83295 0.30353 0.0
H81 H 0.20485 0.89269 0.28797 0.0
H82 H 0.3038 0.9601 0.32738 0.0
H83 H 0.24171 0.95729 0.30867 0.0
Eu84 Eu 0.58265 0.52277 0.53586 0.0
C85 C 0.49304 0.45273 0.47418 0.0
C86 C 0.40313 0.40551 0.47169 0.0
C87 C 0.45268 0.45952 0.44977 0.0
C88 C 0.44694 0.41892 0.4805 0.0
C89 C 0.49613 0.47394 0.45881 0.0
C90 C 0.40633 0.42536 0.45617 0.0
C91 C 0.58462 0.52405 0.46272 0.0
N92 N 0.53446 0.46646 0.48332 0.0
C93 C 0.57984 0.50194 0.47786 0.0
C94 C 0.5427 0.50972 0.45309 0.0
Eu95 Eu 0.52137 0.42126 0.50775 0.0
N96 N 0.44481 0.40213 0.49584 0.0
C97 C 0.40039 0.37134 0.50304 0.0
C98 C 0.35734 0.37371 0.47894 0.0
C99 C 0.35598 0.35681 0.49472 0.0
H100 H 0.61267 0.51417 0.48508 0.0
H101 H 0.32077 0.33243 0.50045 0.0
H102 H 0.37309 0.41535 0.44918 0.0
H103 H 0.62071 0.55226 0.45851 0.0
H104 H 0.3996 0.35805 0.5152 0.0
H105 H 0.5934 0.63128 0.48121 0.0
H106 H 0.32285 0.3626 0.47256 0.0
H107 H 0.67691 0.51084 0.55188 0.0
H108 H 0.55342 0.56209 0.49977 0.0
H109 H 0.76793 0.55779 0.55279 0.0
H110 H 0.45445 0.47523 0.4379 0.0
H111 H 0.68311 0.69011 0.48353 0.0
H112 H 0.76419 0.7129 0.49668 0.0
H113 H 0.54661 0.52701 0.44138 0.0
H114 H 0.81189 0.69253 0.51598 0.0
N115 N 0.61758 0.58271 0.51444 0.0
C116 C 0.59156 0.58822 0.50196 0.0
C117 C 0.66526 0.6602 0.49222 0.0
C118 C 0.69274 0.65246 0.50413 0.0
C119 C 0.61465 0.62724 0.49092 0.0
C120 C 0.66772 0.61263 0.51509 0.0
H121 H 0.81377 0.63414 0.53653 0.0
N122 N 0.6703 0.55951 0.535 0.0
C123 C 0.74787 0.57047 0.54519 0.0
C124 C 0.69479 0.60087 0.5258 0.0
C125 C 0.69605 0.54373 0.54452 0.0
C126 C 0.77357 0.6137 0.53609 0.0
C127 C 0.7472 0.62909 0.52608 0.0
O128 O 0.61116 0.53272 0.56036 0.0
O129 O 0.51315 0.45113 0.53135 0.0
O130 O 0.47505 0.46557 0.50924 0.0
O131 O 0.51821 0.53574 0.52567 0.0
O132 O 0.51329 0.49114 0.55118 0.0
O133 O 0.59191 0.58598 0.55047 0.0
O134 O 0.5216 0.36829 0.48985 0.0
O135 O 0.59758 0.48158 0.5163 0.0
O136 O 0.5892 0.45684 0.54588 0.0
O137 O 0.52835 0.38787 0.53206 0.0
O138 O 0.60027 0.43565 0.49979 0.0
O139 O 0.47865 0.34055 0.51164 0.0
C140 C 0.48723 0.45022 0.54362 0.0
C141 C 0.57016 0.56087 0.57785 0.0
C142 C 0.52814 0.59126 0.59569 0.0
C143 C 0.56112 0.59884 0.58288 0.0
C144 C 0.50358 0.54481 0.60335 0.0
C145 C 0.54594 0.5147 0.58589 0.0
C146 C 0.51268 0.50679 0.59847 0.0
C147 C 0.47888 0.50713 0.51616 0.0
C148 C 0.60196 0.56862 0.56355 0.0
C149 C 0.77176 0.67037 0.51587 0.0
C150 C 0.74459 0.68198 0.5049 0.0
C151 C 0.62911 0.47217 0.50905 0.0
C152 C 0.45045 0.2861 0.48816 0.0
C153 C 0.46144 0.263 0.4749 0.0
C154 C 0.42286 0.22034 0.46693 0.0
C155 C 0.37369 0.20334 0.47204 0.0
C156 C 0.40073 0.26565 0.49308 0.0
C157 C 0.36293 0.22557 0.48492 0.0
C158 C 0.56121 0.40796 0.54409 0.0
C159 C 0.49029 0.32872 0.49771 0.0
H160 H 0.57908 0.63411 0.57656 0.0
H161 H 0.47805 0.53818 0.61324 0.0
H162 H 0.55165 0.48423 0.58224 0.0
H163 H 0.49379 0.47103 0.60442 0.0
H164 H 0.49965 0.27702 0.47122 0.0
H165 H 0.34302 0.17211 0.46611 0.0
H166 H 0.39071 0.28003 0.50347 0.0
H167 H 0.32482 0.21098 0.4888 0.0
Eu168 Eu 0.11439 0.56906 0.70042 0.0
C169 C 0.09816 0.48123 0.63703 0.0
C170 C 1.0553 0.39109 0.63513 0.0
C171 C 1.05562 0.44016 0.61214 0.0
C172 C 0.08434 0.43515 0.6439 0.0
C173 C 0.08318 0.48392 0.6211 0.0
C174 C 1.04175 0.39389 0.61912 0.0
C175 C 0.12173 0.57278 0.6242 0.0
N176 N 0.12434 0.52305 0.64611 0.0
C177 C 0.13592 0.56843 0.6399 0.0
C178 C 0.0956 0.53045 0.61471 0.0
Eu179 Eu 0.15177 0.50995 0.67164 0.0
N180 N 0.09612 0.43339 0.65964 0.0
C181 C 0.08048 0.38913 0.66735 0.0
C182 C 1.03948 0.34546 0.64289 0.0
C183 C 1.05179 0.3445 0.6591 0.0
H184 H 0.15566 0.60177 0.64692 0.0
H185 H 1.03948 0.30943 0.66521 0.0
H186 H 1.01966 0.36046 0.61216 0.0
H187 H 0.131 0.60891 0.61942 0.0
H188 H 0.09061 0.38865 0.67985 0.0
H189 H 1.04958 0.60719 0.64319 0.0
H190 H 1.01707 0.3108 0.63655 0.0
H191 H 0.19595 0.64905 0.72744 0.0
H192 H 1.05692 0.55512 0.66402 0.0
H193 H 0.24506 0.73936 0.73166 0.0
H194 H 1.04411 0.44165 0.59986 0.0
H195 H 0.09761 0.69853 0.64546 0.0
H196 H 0.15786 0.77347 0.66102 0.0
H197 H 0.08466 0.53405 0.60255 0.0
H198 H 0.21059 0.80929 0.685 0.0
N199 N 0.10726 0.61552 0.67871 0.0
C200 C 0.07713 0.59457 0.66563 0.0
C201 C 0.10046 0.67571 0.65488 0.0
C202 C 0.1311 0.69717 0.66831 0.0
C203 C 0.0732 0.6242 0.65359 0.0
C204 C 0.13353 0.66576 0.68026 0.0
H205 H 0.24284 0.79698 0.71138 0.0
N206 N 0.16632 0.65509 0.7048 0.0
C207 C 0.22243 0.7249 0.72092 0.0
C208 C 0.16354 0.68605 0.69373 0.0
C209 C 0.19468 0.67367 0.71841 0.0
C210 C 0.22094 0.75729 0.70947 0.0
C211 C 0.19136 0.73809 0.69567 0.0
O212 O 0.10482 0.58457 0.72548 0.0
O213 O 0.1027 0.49382 0.69403 0.0
O214 O 0.06197 0.46599 0.6714 0.0
O215 O 1.0373 0.5083 0.68884 0.0
O216 O 0.1162 0.51376 0.71783 0.0
O217 O 1.048 0.57146 0.70784 0.0
O218 O 0.20361 0.50655 0.65403 0.0
O219 O 0.17029 0.58649 0.6809 0.0
O220 O 0.18825 0.57891 0.71011 0.0
O221 O 0.19747 0.51994 0.69505 0.0
O222 O 0.2137 0.58824 0.66277 0.0
O223 O 0.18798 0.465 0.67619 0.0
C224 C 0.10274 0.47653 0.70816 0.0
C225 C 1.02131 0.53916 0.73417 0.0
C226 C 0.93374 0.49205 0.74169 0.0
C227 C 0.97128 0.52229 0.73074 0.0
C228 C 0.94704 0.47502 0.75563 0.0
C229 C 1.03389 0.52193 0.74816 0.0
C230 C 0.99674 0.48929 0.75865 0.0
C231 C 1.02487 0.47058 0.67835 0.0
C232 C 1.05951 0.57537 0.72317 0.0
C233 C 0.18917 0.7693 0.68377 0.0
C234 C 0.15918 0.7489 0.67011 0.0
C235 C 0.20928 0.61757 0.67293 0.0
C236 C 0.21125 0.43287 0.65281 0.0
C237 C 0.24298 0.44126 0.63909 0.0
C238 C 0.2436 0.40072 0.63089 0.0
C239 C 0.20986 0.35235 0.6362 0.0
C240 C 0.18142 0.38385 0.65813 0.0
C241 C 0.17979 0.3442 0.64967 0.0
C242 C 0.21063 0.55214 0.70733 0.0
C243 C 0.21077 0.4746 0.66217 0.0
H244 H 0.9619 0.53402 0.71957 0.0
H245 H 0.9196 0.45221 0.76452 0.0
H246 H 0.07225 0.53369 0.75105 0.0
H247 H 1.00663 0.4762 0.76942 0.0
H248 H 0.26791 0.47892 0.63521 0.0
H249 H 0.20697 0.32014 0.63001 0.0
H250 H 0.15926 0.37575 0.66897 0.0
H251 H 0.1554 0.30663 0.65375 0.0
Eu252 Eu 0.58361 0.0787 0.86756 0.0
C253 C 0.70356 1.03586 0.82338 0.0
C254 C 0.76705 1.02716 0.83806 0.0
C255 C 0.73194 0.98015 0.81332 0.0
C256 C 0.73651 0.04901 0.83647 0.0
C257 C 0.70111 1.00137 0.81174 0.0
C258 C 0.76465 0.99289 0.82643 0.0
C259 C 0.63786 1.01151 0.79764 0.0
N260 N 0.67201 0.05515 0.82244 0.0
C261 C 0.64111 0.04537 0.80945 0.0
C262 C 0.6676 0.98914 0.79886 0.0
Eu263 Eu 0.6851 0.11495 0.84245 0.0
N264 N 0.7382 0.08222 0.84773 0.0
C265 C 0.76944 0.09512 0.86068 0.0
C266 C 0.79895 1.04007 0.85139 0.0
C267 C 0.80007 0.07408 0.86274 0.0
H268 H 0.61864 0.06322 0.80847 0.0
H269 H 0.82459 0.08414 0.87308 0.0
H270 H 0.78791 0.97584 0.8275 0.0
H271 H 0.61262 1.00285 0.78755 0.0
H272 H 0.77083 0.12133 0.86954 0.0
H273 H 0.48198 1.00702 0.81014 0.0
H274 H 0.82281 1.02391 0.85306 0.0
H275 H 0.59699 0.17916 0.88842 0.0
H276 H 0.54909 1.02646 0.82928 0.0
H277 H 0.55347 0.22702 0.89129 0.0
H278 H 0.73056 0.95356 0.8045 0.0
H279 H 0.42433 1.03974 0.81454 0.0
H280 H 0.40227 0.09513 0.83037 0.0
H281 H 0.66477 0.96283 0.78969 0.0
H282 H 0.42288 0.15645 0.85208 0.0
N283 N 0.52763 0.06556 0.84578 0.0
C284 C 0.52321 1.03899 0.83205 0.0
C285 C 0.45314 0.04731 0.82335 0.0
C286 C 0.46025 0.07797 0.83667 0.0
C287 C 0.48554 1.02874 0.82084 0.0
C288 C 0.49857 0.08692 0.84775 0.0
H289 H 0.48029 0.20722 0.87431 0.0
N290 N 0.55056 0.13334 0.86935 0.0
C291 C 0.54099 0.19759 0.8824 0.0
C292 C 0.51044 0.1219 0.8599 0.0
C293 C 0.566 0.17057 0.88055 0.0
C294 C 0.49949 0.18605 0.87289 0.0
C295 C 0.48385 0.14806 0.86141 0.0
O296 O 0.57802 0.08937 0.89342 0.0
O297 O 0.65903 0.08444 0.86756 0.0
O298 O 0.63134 1.02594 0.8408 0.0
O299 O 0.56073 0.9999 0.85622 0.0
O300 O 0.6001 1.01962 0.8764 0.0
O301 O 0.51378 1.03455 0.88029 0.0
O302 O 0.70101 0.15201 0.81874 0.0
O303 O 0.6154 0.12485 0.84503 0.0
O304 O 0.65063 0.14872 0.87911 0.0
O305 O 0.72153 0.16068 0.86544 0.0
O306 O 0.68174 0.18811 0.84268 0.0
O307 O 0.76229 0.16441 0.83424 0.0
C308 C 0.64736 0.04233 0.87392 0.0
C309 C 0.52496 1.01552 0.90729 0.0
C310 C 0.48454 0.92951 0.91665 0.0
C311 C 0.49737 0.96449 0.90414 0.0
C312 C 0.50392 0.94643 0.93223 0.0
C313 C 0.54372 1.03164 0.92292 0.0
C314 C 0.53393 0.99714 0.93523 0.0
C315 C 0.58837 0.98848 0.84642 0.0
C316 C 0.5332 0.05194 0.89447 0.0
C317 C 0.44384 0.13694 0.85103 0.0
C318 C 0.43206 0.10196 0.83868 0.0
C319 C 0.63505 0.17276 0.84405 0.0
C320 C 0.77927 0.17691 0.80529 0.0
C321 C 0.81692 0.22259 0.79841 0.0
C322 C 0.84238 0.22248 0.78391 0.0
C323 C 0.83032 0.17684 0.77677 0.0
C324 C 0.76796 0.13292 0.7971 0.0
C325 C 0.79344 0.13267 0.78326 0.0
C326 C 0.70007 0.17223 0.87745 0.0
C327 C 0.74951 0.1745 0.82019 0.0
H328 H 0.48465 0.95202 0.89194 0.0
H329 H 0.49448 0.92094 0.94228 0.0
H330 H 0.56558 0.07088 0.92562 0.0
H331 H 0.5483 1.00982 0.94728 0.0
H332 H 0.82561 0.25754 0.80405 0.0
H333 H 0.84887 0.17546 0.7658 0.0
H334 H 0.73846 0.09832 0.80103 0.0
H335 H 0.78377 0.09784 0.77733 0.0
Eu336 Eu 0.54425 0.5621 0.03453 0.0
C337 C 0.64146 0.64565 0.97494 0.0
C338 C 0.73165 0.69453 0.97456 0.0
C339 C 0.68733 0.64768 0.95072 0.0
C340 C 0.68597 0.67779 0.98259 0.0
C341 C 0.64193 0.62992 0.95895 0.0
C342 C 0.73204 0.67991 0.9585 0.0
C343 C 0.55274 0.57907 0.96049 0.0
N344 N 0.59807 0.62839 0.98333 0.0
C345 C 0.554 0.59584 0.97629 0.0
C346 C 0.59681 0.59632 0.95175 0.0
Eu347 Eu 0.60522 0.66578 0.00896 0.0
N348 N 0.68456 0.6893 0.99841 0.0
C349 C 0.72712 0.71844 0.0068 0.0
C350 C 0.77559 0.72464 0.98306 0.0
C351 C 0.77331 0.73655 0.99925 0.0
H352 H 0.51953 0.5821 0.98275 0.0
H353 H 0.80708 0.75971 1.00589 0.0
H354 H 0.76677 0.69262 0.95208 0.0
H355 H 0.51768 0.55293 0.95504 0.0
H356 H 0.72508 0.72798 0.01927 0.0
H357 H 0.52427 0.46424 0.97652 0.0
H358 H 0.81145 0.73839 0.97728 0.0
H359 H 0.45385 0.56801 0.05548 0.0
H360 H 0.56779 0.52923 0.99631 0.0
H361 H 0.36304 0.52285 0.05742 0.0
H362 H 0.68832 0.63617 0.93841 0.0
H363 H 0.43453 0.40634 0.97949 0.0
H364 H 0.35555 0.38221 0.99432 0.0
H365 H 0.59561 0.58324 0.9395 0.0
H366 H 0.3114 0.39919 0.01595 0.0
N367 N 0.50561 0.50688 0.01211 0.0
C368 C 0.52965 0.50331 0.99868 0.0
C369 C 0.45394 0.4343 0.98867 0.0
C370 C 0.42848 0.44007 1.00171 0.0
C371 C 0.50456 0.46676 0.98699 0.0
C372 C 0.45551 0.47739 0.0133 0.0
H373 H 0.31365 0.45255 0.03904 0.0
N374 N 0.45681 0.52579 0.0355 0.0
C375 C 0.38145 0.51247 0.04831 0.0
C376 C 0.43042 0.48717 0.02537 0.0
C377 C 0.43317 0.53849 0.04699 0.0
C378 C 0.35375 0.47261 0.03801 0.0
C379 C 0.37807 0.45953 0.02634 0.0
O380 O 0.53141 0.55812 0.06058 0.0
O381 O 0.61157 0.63838 0.03395 0.0
O382 O 0.65098 0.62073 0.00824 0.0
O383 O 0.6047 0.54594 0.02195 0.0
O384 O 0.62023 0.58105 0.04332 0.0
O385 O 0.52083 0.49288 0.04754 0.0
O386 O 0.60295 0.71931 0.99181 0.0
O387 O 0.52846 0.60299 0.01546 0.0
O388 O 0.53592 0.62596 0.04638 0.0
O389 O 0.59519 0.69702 0.03336 0.0
O390 O 0.52709 0.65312 1.0007 0.0
O391 O 0.64762 0.74622 0.01327 0.0
C392 C 0.64293 0.62831 0.04071 0.0
C393 C 0.5558 0.5063 0.07391 0.0
C394 C 0.60394 0.46667 0.08222 0.0
C395 C 0.57956 0.47886 0.07019 0.0
C396 C 0.60874 0.48722 0.09778 0.0
C397 C 0.56085 0.52623 0.08949 0.0
C398 C 0.58807 0.51751 0.10125 0.0
C399 C 0.64509 0.57627 0.01299 0.0
C400 C 0.52507 0.51342 0.0617 0.0
C401 C 0.35152 0.42087 0.01534 0.0
C402 C 0.37667 0.41117 1.00304 0.0
C403 C 0.49727 0.61388 0.00873 0.0
C404 C 0.67459 0.80077 0.98991 0.0
C405 C 0.66307 0.82267 0.97648 0.0
C406 C 0.70124 0.86486 0.96824 0.0
C407 C 0.75061 0.88262 0.97326 0.0
C408 C 0.72441 0.82191 0.99476 0.0
C409 C 0.76189 0.86153 0.98633 0.0
C410 C 0.5614 0.67529 0.04505 0.0
C411 C 0.63511 0.75852 0.99961 0.0
H412 H 0.57769 0.46566 0.05794 0.0
H413 H 0.62654 0.47845 0.10751 0.0
H414 H 0.54347 0.54821 0.09259 0.0
H415 H 0.59164 0.5328 0.11327 0.0
H416 H 0.62475 0.8081 0.97285 0.0
H417 H 0.78099 0.91352 0.9671 0.0
H418 H 0.73478 0.80843 1.00529 0.0
H419 H 0.80011 0.87665 0.99014 0.0
Eu420 Eu 1.01264 0.51282 0.2019 0.0
C421 C 1.03191 0.6363 0.1446 0.0
C422 C 0.06185 0.72312 0.15137 0.0
C423 C 0.07608 0.70079 0.12448 0.0
C424 C 1.03631 0.67249 0.15562 0.0
C425 C 1.05266 0.65052 0.12899 0.0
C426 C 0.0807 0.73696 0.13563 0.0
C427 C 1.02891 0.56489 0.12373 0.0
N428 N 1.01044 0.58789 0.14951 0.0
C429 C 1.00895 0.55237 0.13932 0.0
C430 C 1.05047 0.61401 0.1185 0.0
Eu431 Eu 0.97179 0.57259 0.17538 0.0
N432 N 1.01958 0.65833 0.171 0.0
C433 C 1.02705 0.69234 0.18269 0.0
C434 C 0.06916 0.75844 0.16325 0.0
C435 C 1.05209 0.743 0.17901 0.0
H436 H 0.9925 0.51414 0.14294 0.0
H437 H 1.05765 0.77003 0.18826 0.0
H438 H 0.10008 0.77568 0.13209 0.0
H439 H 1.02755 0.5365 0.11574 0.0
H440 H 1.01201 0.68011 0.19466 0.0
H441 H 0.07217 0.48644 0.14173 0.0
H442 H 0.08864 0.79773 0.16045 0.0
H443 H 0.93267 0.4273 0.22777 0.0
H444 H 0.0636 0.53374 0.16392 0.0
H445 H 0.88675 0.33632 0.23071 0.0
H446 H 0.09186 0.71224 0.11249 0.0
H447 H 1.03123 0.39499 0.14327 0.0
H448 H 0.97667 0.31701 0.15853 0.0
H449 H 0.06604 0.62347 0.10642 0.0
H450 H 0.92601 0.27626 0.18254 0.0
N451 N 1.02054 0.47089 0.17883 0.0
C452 C 1.04686 0.49436 0.16527 0.0
C453 C 1.02808 0.4158 0.15332 0.0
C454 C 1.00024 0.39163 0.16704 0.0
C455 C 1.05131 0.46737 0.15242 0.0
C456 C 0.99723 0.42048 0.1798 0.0
H457 H 0.8922 0.28305 0.20939 0.0
N458 N 0.96399 0.42588 0.20494 0.0
C459 C 0.90947 0.35297 0.2201 0.0
C460 C 0.9683 0.39739 0.19326 0.0
C461 C 0.93549 0.40458 0.21835 0.0
C462 C 0.91279 0.32305 0.20808 0.0
C463 C 0.94228 0.34509 0.19442 0.0
O464 O 1.02251 0.49517 0.22669 0.0
O465 O 1.02331 0.58805 0.19678 0.0
O466 O 0.0614 0.61883 0.17464 0.0
O467 O 0.08865 0.57435 0.18986 0.0
O468 O 1.01438 0.56669 0.22059 0.0
O469 O 0.07959 0.51084 0.20892 0.0
O470 O 0.91882 0.56991 0.15694 0.0
O471 O 0.94706 0.49507 0.18588 0.0
O472 O 0.9403 0.50288 0.21342 0.0
O473 O 0.9277 0.56106 0.19914 0.0
O474 O 0.93144 0.49507 0.16242 0.0
O475 O 0.92232 0.60337 0.18008 0.0
C476 C 1.02415 0.60369 0.21122 0.0
C477 C 0.10563 0.54417 0.23526 0.0
C478 C 0.19259 0.60353 0.24133 0.0
C479 C 0.15555 0.57117 0.23052 0.0
C480 C 0.17749 0.61221 0.25655 0.0
C481 C 0.09175 0.55331 0.25052 0.0
C482 C 0.12743 0.58795 0.26091 0.0
C483 C 0.09955 0.61371 0.1803 0.0
C484 C 0.06842 0.50652 0.22428 0.0
C485 C 0.94585 0.31643 0.18187 0.0
C486 C 0.97472 0.33964 0.16821 0.0
C487 C 0.92495 0.46489 0.17415 0.0
C488 C 0.89814 0.63556 0.15719 0.0
C489 C 0.86712 0.62673 0.14332 0.0
C490 C 0.86119 0.66585 0.13634 0.0
C491 C 0.8887 0.71367 0.14302 0.0
C492 C 0.92249 0.68367 0.16374 0.0
C493 C 0.91868 0.7223 0.15653 0.0
C494 C 0.91699 0.52921 0.2114 0.0
C495 C 0.90322 0.5949 0.16552 0.0
H496 H 0.16535 0.56578 0.21843 0.0
H497 H 0.20405 0.63593 0.26549 0.0
H498 H 1.05341 0.53362 0.25446 0.0
H499 H 0.11646 0.59469 0.27267 0.0
H500 H 0.84665 0.58961 0.13837 0.0
H501 H 0.88672 0.74484 0.13786 0.0
H502 H 0.94415 0.69169 0.17466 0.0
H503 H 0.93854 0.75923 0.16166 0.0
Eu504 Eu 0.10325 0.56274 0.47605 0.0
C505 C 0.07188 0.67344 0.52974 0.0
C506 C 1.04903 0.73237 0.51861 0.0
C507 C 1.02211 0.69897 0.54568 0.0
C508 C 0.07357 0.70435 0.51713 0.0
C509 C 1.04539 0.66995 0.544 0.0
C510 C 1.02389 0.73003 0.53303 0.0
C511 C 0.06398 0.60679 0.55347 0.0
N512 N 0.09267 0.64379 0.52742 0.0
C513 C 0.08945 0.61105 0.53904 0.0
C514 C 1.04199 0.63641 0.55599 0.0
Eu515 Eu 0.1396 0.65969 0.5034 0.0
N516 N 0.09705 0.70495 0.50311 0.0
C517 C 0.09855 0.73336 0.49031 0.0
C518 C 1.04977 0.76122 0.50542 0.0
C519 C 0.07455 0.76163 0.49121 0.0
H520 H 0.10661 0.58829 0.5373 0.0
H521 H 0.07573 0.7842 0.48103 0.0
H522 H 1.00499 0.75148 0.53442 0.0
H523 H 0.06136 0.58069 0.56267 0.0
H524 H 0.11953 0.73528 0.47962 0.0
H525 H 1.0438 0.47466 0.53586 0.0
H526 H 1.03128 0.78323 0.50608 0.0
H527 H 0.18858 0.56184 0.4511 0.0
H528 H 1.05429 0.53303 0.51435 0.0
H529 H 0.23514 0.51669 0.4478 0.0
H530 H 1.00177 0.69693 0.5566 0.0
H531 H 0.08161 0.42074 0.53324 0.0
H532 H 0.13537 0.39634 0.51746 0.0
H533 H 1.02198 0.63267 0.56713 0.0
H534 H 0.18819 0.40851 0.49375 0.0
N535 N 0.09411 0.51059 0.49861 0.0
C536 C 0.06912 0.50864 0.51247 0.0
C537 C 0.08532 0.44567 0.52345 0.0
C538 C 0.11296 0.44935 0.50963 0.0
C539 C 0.06386 0.47594 0.52496 0.0
C540 C 0.11683 0.48259 0.49725 0.0
H541 H 0.22608 0.45364 0.46792 0.0
N542 N 0.15319 0.52481 0.47296 0.0
C543 C 0.21056 0.50879 0.45804 0.0
C544 C 0.14715 0.48986 0.48401 0.0
C545 C 0.18417 0.53442 0.46002 0.0
C546 C 0.20518 0.47309 0.46939 0.0
C547 C 0.17348 0.46343 0.48262 0.0
O548 O 0.0977 0.53795 0.45107 0.0
O549 O 0.08905 0.62493 0.48171 0.0
O550 O 1.05012 0.61352 0.50454 0.0
O551 O 1.02581 0.54547 0.48794 0.0
O552 O 0.10198 0.61617 0.45789 0.0
O553 O 1.03684 0.49663 0.46755 0.0
O554 O 0.18827 0.69902 0.52414 0.0
O555 O 0.1674 0.60926 0.49256 0.0
O556 O 0.17536 0.62657 0.46531 0.0
O557 O 0.18537 0.69529 0.48014 0.0
O558 O 0.17193 0.6148 0.51682 0.0
O559 O 0.1946 0.73923 0.50224 0.0
C560 C 0.08892 0.64076 0.46737 0.0
C561 C 1.01644 0.50554 0.44069 0.0
C562 C 0.93309 0.4648 0.42923 0.0
C563 C 0.9676 0.46665 0.44065 0.0
C564 C 0.94741 0.5046 0.4184 0.0
C565 C 1.03053 0.54473 0.42959 0.0
C566 C 0.99588 0.54446 0.41868 0.0
C567 C 1.01321 0.57155 0.49811 0.0
C568 C 1.05146 0.50414 0.4525 0.0
C569 C 0.16828 0.42911 0.49462 0.0
C570 C 0.13814 0.42213 0.5081 0.0
C571 C 0.1849 0.59719 0.5047 0.0
C572 C 0.21499 0.78609 0.52725 0.0
C573 C 0.25005 0.80747 0.54026 0.0
C574 C 0.25522 0.85005 0.54886 0.0
C575 C 0.22321 0.86852 0.54469 0.0
C576 C 0.18602 0.80809 0.5233 0.0
C577 C 0.18933 0.84793 0.53209 0.0
C578 C 0.19736 0.67558 0.46769 0.0
C579 C 0.20936 0.74261 0.51728 0.0
H580 H 0.95675 0.4372 0.44949 0.0
H581 H 0.92183 0.50426 0.40939 0.0
H582 H 0.06809 0.57555 0.4293 0.0
H583 H 1.00686 0.57481 0.41023 0.0
H584 H 0.27395 0.79222 0.54327 0.0
H585 H 0.22483 0.89985 0.55111 0.0
H586 H 0.16097 0.7951 0.51318 0.0
H587 H 0.16592 0.86361 0.52891 0.0
Eu588 Eu 0.59286 0.08914 0.64083 0.0
C589 C 0.50476 0.07385 0.70421 0.0
C590 C 0.4146 1.03204 0.70601 0.0
C591 C 0.46307 1.03145 0.72906 0.0
C592 C 0.45888 0.06066 0.69729 0.0
C593 C 0.50704 0.05867 0.72014 0.0
C594 C 0.41701 1.0182 0.72202 0.0
C595 C 0.59592 0.09651 0.71717 0.0
N596 N 0.54677 0.09971 0.69518 0.0
C597 C 0.59196 0.11089 0.70146 0.0
C598 C 0.55338 0.0706 0.7266 0.0
Eu599 Eu 0.5344 0.12728 0.66958 0.0
N600 N 0.45749 0.07274 0.68156 0.0
C601 C 0.41344 0.05796 0.67382 0.0
C602 C 0.36917 1.01702 0.69822 0.0
C603 C 0.3686 1.02976 0.68203 0.0
H604 H 0.62545 0.13051 0.69448 0.0
H605 H 0.33367 1.01809 0.6759 0.0
H606 H 0.3834 0.99642 0.72895 0.0
H607 H 0.6319 0.10545 0.722 0.0
H608 H 0.41327 0.06835 0.66134 0.0
H609 H 0.63141 1.02543 0.69815 0.0
H610 H 0.33435 0.99497 0.70452 0.0
H611 H 0.67217 0.16874 0.61333 0.0
H612 H 0.57904 1.0319 0.67719 0.0
H613 H 0.76253 0.21795 0.60897 0.0
H614 H 0.46425 1.01978 0.74133 0.0
H615 H 0.72277 0.0741 0.6959 0.0
H616 H 0.79758 0.13428 0.68021 0.0
H617 H 0.55666 0.05951 0.73877 0.0
H618 H 0.83311 0.18615 0.65604 0.0
N619 N 0.63939 0.08265 0.66258 0.0
C620 C 0.61853 0.05251 0.67565 0.0
C621 C 0.69983 0.07663 0.68644 0.0
C622 C 0.72116 0.10705 0.67295 0.0
C623 C 0.64831 0.04902 0.68774 0.0
C624 C 0.68962 0.10905 0.66097 0.0
H625 H 0.82046 0.21707 0.62942 0.0
N626 N 0.67867 0.14084 0.63623 0.0
C627 C 0.74821 0.19598 0.61985 0.0
C628 C 0.70976 0.13859 0.64737 0.0
C629 C 0.697 0.16824 0.62244 0.0
C630 C 0.78077 0.19523 0.63139 0.0
C631 C 0.76177 0.16634 0.64535 0.0
O632 O 0.60602 0.07699 0.61573 0.0
O633 O 0.51779 0.07794 0.64726 0.0
O634 O 0.48992 1.03743 0.66997 0.0
O635 O 0.53139 1.01236 0.65229 0.0
O636 O 0.53749 0.09015 0.62332 0.0
O637 O 0.59805 1.02385 0.63416 0.0
O638 O 0.53163 0.17984 0.68701 0.0
O639 O 0.61092 0.1455 0.6603 0.0
O640 O 0.60309 0.16292 0.63094 0.0
O641 O 0.5445 0.17249 0.64612 0.0
O642 O 0.61278 0.18874 0.6785 0.0
O643 O 0.49044 0.16437 0.66477 0.0
C644 C 0.5007 0.07804 0.6331 0.0
C645 C 0.56235 0.99186 0.60856 0.0
C646 C 0.51427 0.9026 0.60342 0.0
C647 C 0.54449 0.94274 0.61356 0.0
C648 C 0.49803 0.9127 0.58868 0.0
C649 C 0.54581 1.00107 0.59381 0.0
C650 C 0.51301 0.96156 0.58411 0.0
C651 C 0.4941 1.00019 0.66294 0.0
C652 C 0.59916 1.03273 0.61868 0.0
C653 C 0.79313 0.16473 0.65732 0.0
C654 C 0.77288 0.13523 0.67109 0.0
C655 C 0.64209 0.18441 0.66831 0.0
C656 C 0.45967 0.19068 0.68778 0.0
C657 C 0.4694 0.22378 0.70117 0.0
C658 C 0.43007 0.2278 0.70893 0.0
C659 C 0.38134 0.19642 0.70343 0.0
C660 C 0.41045 0.16239 0.68243 0.0
C661 C 0.37183 0.16451 0.69037 0.0
C662 C 0.57647 0.18541 0.63379 0.0
C663 C 0.50051 0.18777 0.67867 0.0
H664 H 0.55551 0.9361 0.6253 0.0
H665 H 0.47539 0.88339 0.5803 0.0
H666 H 0.55839 1.03865 0.5897 0.0
H667 H 0.50053 0.96887 0.57273 0.0
H668 H 0.50729 0.2472 0.70515 0.0
H669 H 0.34998 0.19658 0.70923 0.0
H670 H 0.40147 0.13871 0.67192 0.0
H671 H 0.33406 0.14161 0.68621 0.0
Eu672 Eu 0.54251 0.55648 0.80884 0.0
C673 C 0.47077 0.47187 0.8692 0.0
C674 C 0.42566 0.38182 0.87184 0.0
C675 C 0.47578 0.43283 0.8942 0.0
C676 C 0.43899 0.4251 0.86274 0.0
C677 C 0.48942 0.47592 0.88504 0.0
C678 C 0.44397 0.38597 0.88763 0.0
C679 C 0.53288 0.56503 0.88189 0.0
N680 N 0.48361 0.51316 0.86003 0.0
C681 C 0.51313 0.55937 0.86633 0.0
C682 C 0.52111 0.5232 0.89128 0.0
Eu683 Eu 0.44288 0.49786 0.83467 0.0
N684 N 0.42349 0.42194 0.84714 0.0
C685 C 0.39301 0.37706 0.84014 0.0
C686 C 0.39469 0.33557 0.86472 0.0
C687 C 0.37821 0.3332 0.84883 0.0
H688 H 0.52183 0.5923 0.85956 0.0
H689 H 0.35417 0.29763 0.84327 0.0
H690 H 0.43405 0.35313 0.89484 0.0
H691 H 0.55683 0.60177 0.88671 0.0
H692 H 0.38013 0.3755 0.82787 0.0
H693 H 0.6436 0.57539 0.86602 0.0
H694 H 0.38347 0.30148 0.87136 0.0
H695 H 0.53518 0.65001 0.79 0.0
H696 H 0.5752 0.53407 0.8471 0.0
H697 H 0.58455 0.7404 0.78737 0.0
H698 H 0.48972 0.43536 0.90639 0.0
H699 H 0.70684 0.66307 0.86178 0.0
H700 H 0.73446 0.74177 0.84633 0.0
H701 H 0.53629 0.52783 0.90337 0.0
H702 H 0.71753 0.78721 0.82515 0.0
N703 N 0.60122 0.59466 0.83049 0.0
C704 C 0.60351 0.57097 0.8442 0.0
C705 C 0.67745 0.6444 0.85297 0.0
C706 C 0.67254 0.67008 0.83985 0.0
C707 C 0.64197 0.59494 0.85537 0.0
C708 C 0.63331 0.64405 0.82877 0.0
H709 H 0.66078 0.78733 0.8036 0.0
N710 N 0.58239 0.64455 0.80777 0.0
C711 C 0.59612 0.72103 0.79571 0.0
C712 C 0.62359 0.66978 0.81698 0.0
C713 C 0.56802 0.6695 0.79734 0.0
C714 C 0.63926 0.74733 0.8048 0.0
C715 C 0.65316 0.72192 0.81576 0.0
O716 O 0.54505 0.57645 0.78358 0.0
O717 O 0.46645 0.4883 0.80954 0.0
O718 O 0.48748 0.45151 0.83515 0.0
O719 O 0.56108 0.49737 0.82096 0.0
O720 O 0.52416 0.48071 0.7999 0.0
O721 O 0.60657 0.5709 0.79376 0.0
O722 O 0.39368 0.50303 0.85301 0.0
O723 O 0.50982 0.57579 0.83009 0.0
O724 O 0.47782 0.5651 0.79791 0.0
O725 O 0.40831 0.50224 0.81024 0.0
O726 O 0.44607 0.57431 0.83637 0.0
O727 O 0.36166 0.45307 0.83287 0.0
C728 C 0.47715 0.45731 0.80281 0.0
C729 C 0.58059 0.54045 0.76701 0.0
C730 C 0.61584 0.49823 0.75143 0.0
C731 C 0.61912 0.53015 0.76407 0.0
C732 C 0.57264 0.47532 0.74196 0.0
C733 C 0.5379 0.51798 0.75717 0.0
C734 C 0.53398 0.4854 0.74482 0.0
C735 C 0.53171 0.45737 0.83014 0.0
C736 C 0.58482 0.57364 0.78053 0.0
C737 C 0.69422 0.7473 0.82601 0.0
C738 C 0.70389 0.72141 0.83805 0.0
C739 C 0.4906 0.60457 0.83176 0.0
C740 C 0.313 0.43197 0.85762 0.0
C741 C 0.2932 0.44689 0.87083 0.0
C742 C 0.25274 0.4109 0.88026 0.0
C743 C 0.23439 0.36046 0.87664 0.0
C744 C 0.29162 0.38101 0.85426 0.0
C745 C 0.25361 0.34583 0.86385 0.0
C746 C 0.42867 0.5375 0.79894 0.0
C747 C 0.35274 0.46884 0.84652 0.0
H748 H 0.65189 0.54711 0.77168 0.0
H749 H 0.56938 0.45086 0.73209 0.0
H750 H 0.50734 0.5252 0.75904 0.0
H751 H 0.50104 0.46826 0.73733 0.0
H752 H 0.30778 0.486 0.87334 0.0
H753 H 0.20419 0.33196 0.88363 0.0
H754 H 0.30339 0.36795 0.84395 0.0
H755 H 0.23808 0.30676 0.8611 0.0
Eu756 Eu 1.02081 0.51909 0.97281 0.0
C757 C 0.0657 0.413 0.0238 0.0
C758 C 0.07322 0.34545 0.01162 0.0
C759 C 0.12008 0.38609 0.03593 0.0
C760 C 1.05233 0.377 0.01174 0.0
C761 C 0.0996 0.41782 0.03598 0.0
C762 C 0.10702 0.35012 0.02378 0.0
C763 C 0.09018 0.48495 0.04743 0.0
N764 N 1.0466 0.44467 0.02322 0.0
C765 C 1.05694 0.47919 0.03505 0.0
C766 C 0.11183 0.45442 0.04784 0.0
Eu767 Eu 0.98791 0.42846 1.00252 0.0
N768 N 1.01979 0.3735 0.99999 0.0
C769 C 1.00632 0.33921 0.98793 0.0
C770 C 1.05983 0.31037 0.99919 0.0
C771 C 1.02629 0.30728 0.9873 0.0
H772 H 1.03974 0.50234 0.03479 0.0
H773 H 1.01571 0.28023 0.97767 0.0
H774 H 0.12341 0.32615 0.02387 0.0
H775 H 0.099 0.51281 0.05669 0.0
H776 H 0.98004 0.3363 0.97881 0.0
H777 H 0.09234 0.62478 0.02952 0.0
H778 H 0.07518 0.28554 0.99865 0.0
H779 H 0.92596 0.50878 0.95007 0.0
H780 H 0.07624 0.55925 0.01017 0.0
H781 H 0.8754 0.54961 0.94697 0.0
H782 H 0.14624 0.38921 0.04519 0.0
H783 H 1.05458 0.67827 0.02562 0.0
H784 H 0.99629 0.69677 0.01006 0.0
H785 H 0.13767 0.45919 0.05744 0.0
H786 H 0.93577 0.67502 0.98803 0.0
N787 N 1.03412 0.57744 0.99396 0.0
C788 C 0.06171 0.58344 0.00754 0.0
C789 C 1.04863 0.65027 0.01667 0.0
C790 C 1.0176 0.64199 1.00338 0.0
C791 C 0.07005 0.62023 0.01889 0.0
C792 C 1.01088 0.60483 0.99209 0.0
H793 H 0.88951 0.61942 0.96485 0.0
N794 N 0.96793 0.55396 0.96991 0.0
C795 C 0.90365 0.56201 0.95626 0.0
C796 C 0.97658 0.5925 0.97974 0.0
C797 C 0.9322 0.53862 0.95819 0.0
C798 C 0.91193 0.60157 0.96631 0.0
C799 C 0.94854 0.61718 0.97827 0.0
O800 O 1.02017 0.53828 0.94744 0.0
O801 O 1.03574 0.4585 0.98011 0.0
O802 O 0.07731 0.47741 1.00258 0.0
O803 O 0.10035 0.53994 0.98384 0.0
O804 O 1.02018 0.46109 0.95622 0.0
O805 O 0.08549 0.582 0.96186 0.0
O806 O 0.94355 0.4076 0.02478 0.0
O807 O 0.9584 0.47561 0.99031 0.0
O808 O 0.94851 0.45267 0.96357 0.0
O809 O 0.93693 0.38728 0.9805 0.0
O810 O 0.9616 0.48057 0.01466 0.0
O811 O 0.93361 0.34979 0.0083 0.0
C812 C 1.03426 0.43887 0.96632 0.0
C813 C 0.09812 0.56609 0.93485 0.0
C814 C 0.17758 0.60182 0.92082 0.0
C815 C 0.14576 0.60572 0.93214 0.0
C816 C 0.16191 0.55694 0.91253 0.0
C817 C 0.08214 0.52185 0.92602 0.0
C818 C 0.11419 0.51723 0.91509 0.0
C819 C 0.11379 0.51681 0.99491 0.0
C820 C 0.06688 0.57147 0.94732 0.0
C821 C 0.95682 0.65559 0.98903 0.0
C822 C 0.99135 0.66803 1.00154 0.0
C823 C 0.94421 0.49229 1.00213 0.0
C824 C 0.91857 0.32855 0.03697 0.0
C825 C 0.87321 0.28862 0.04322 0.0
C826 C 0.87341 0.26292 0.05764 0.0
C827 C 0.91889 0.27665 0.0652 0.0
C828 C 0.96198 0.34244 0.04589 0.0
C829 C 0.96257 0.3162 0.05946 0.0
C830 C 0.92534 0.40446 0.96727 0.0
C831 C 0.92125 0.35967 0.02243 0.0
H832 H 0.15814 0.63986 0.93891 0.0
H833 H 0.1859 0.55311 0.90378 0.0
H834 H 1.04518 0.49071 0.92755 0.0
H835 H 0.10186 0.48289 0.9085 0.0
H836 H 0.83837 0.27869 0.03726 0.0
H837 H 0.92031 0.25792 0.07611 0.0
H838 H 0.99548 0.37515 0.04292 0.0
H839 H 0.99701 0.32778 0.06591 0.0
Eu840 Eu 0.53089 0.99495 0.14161 0.0
C841 C 0.60975 1.01215 0.20572 0.0
C842 C 0.69915 0.05259 0.2097 0.0
C843 C 0.6463 0.05543 0.23097 0.0
C844 C 0.65678 1.02428 0.2001 0.0
C845 C 0.6043 1.02828 0.22119 0.0
C846 C 0.69357 0.06751 0.22525 0.0
C847 C 0.51642 0.99133 0.21607 0.0
N848 N 0.56972 0.98614 0.1959 0.0
C849 C 0.52349 0.97593 0.20087 0.0
C850 C 0.55688 1.01728 0.22633 0.0
Eu851 Eu 0.58688 0.95718 0.17131 0.0
N852 N 0.66134 1.01102 0.18478 0.0
C853 C 0.70683 1.02412 0.17835 0.0
C854 C 0.746 0.06603 0.20324 0.0
C855 C 0.74984 0.05195 0.18747 0.0
H856 H 0.49159 0.95653 0.19322 0.0
H857 H 0.78589 0.06234 0.18236 0.0
H858 H 0.72566 0.08911 0.23284 0.0
H859 H 0.47965 0.98318 0.21986 0.0
H860 H 0.70956 1.01289 0.16617 0.0
H861 H 0.49832 0.07777 0.19599 0.0
H862 H 0.77942 0.08777 0.21025 0.0
H863 H 0.44657 0.89977 0.11876 0.0
H864 H 0.5476 0.05901 0.17727 0.0
H865 H 0.35614 0.85021 0.11597 0.0
H866 H 0.64268 0.06784 0.2429 0.0
H867 H 0.40737 1.03764 0.19275 0.0
H868 H 0.33109 0.97729 0.17789 0.0
H869 H 0.55119 1.02912 0.2381 0.0
H870 H 0.29244 0.91488 0.15644 0.0
N871 N 0.4866 1.01046 0.16237 0.0
C872 C 0.50859 0.04231 0.17503 0.0
C873 C 0.42912 1.02984 0.18415 0.0
C874 C 0.40637 0.99621 0.1715 0.0
C875 C 0.48041 0.05263 0.18599 0.0
C876 C 0.43638 0.98708 0.16066 0.0
H877 H 0.30131 0.86638 0.13373 0.0
N878 N 0.44399 0.94227 0.13873 0.0
C879 C 0.37201 0.87857 0.12522 0.0
C880 C 0.4145 0.95196 0.14852 0.0
C881 C 0.42349 0.9064 0.12706 0.0
C882 C 0.34122 0.88803 0.13519 0.0
C883 C 0.36225 0.92511 0.14698 0.0
O884 O 0.50709 0.99653 0.11692 0.0
O885 O 0.60523 1.00512 0.14853 0.0
O886 O 0.63427 0.04695 0.17075 0.0
O887 O 0.59289 0.07213 0.15302 0.0
O888 O 0.58595 0.98983 0.12485 0.0
O889 O 0.53817 0.06342 0.13128 0.0
O890 O 0.5869 0.90551 0.18961 0.0
O891 O 0.51142 0.94132 0.16188 0.0
O892 O 0.52214 0.92059 0.13263 0.0
O893 O 0.57898 0.91039 0.14838 0.0
O894 O 0.50768 0.89397 0.17892 0.0
O895 O 0.63056 0.91906 0.16792 0.0
C896 C 0.62307 1.00412 0.13458 0.0
C897 C 0.56006 0.07179 0.1036 0.0
C898 C 0.60624 0.14893 0.08859 0.0
C899 C 0.57221 0.12097 0.10076 0.0
C900 C 0.62958 0.12777 0.07956 0.0
C901 C 0.58248 0.05037 0.09409 0.0
C902 C 0.61747 0.07852 0.08228 0.0
C903 C 0.63062 0.08431 0.16355 0.0
C904 C 0.52528 0.04433 0.11684 0.0
C905 C 0.33254 0.9351 0.15748 0.0
C906 C 0.35455 0.97061 0.16969 0.0
C907 C 0.47947 0.90095 0.16902 0.0
C908 C 0.65681 0.89179 0.19181 0.0
C909 C 0.64388 0.85852 0.2053 0.0
C910 C 0.68083 0.85214 0.21365 0.0
C911 C 0.73048 0.881 0.20865 0.0
C912 C 0.70684 0.91817 0.18708 0.0
C913 C 0.7432 0.91349 0.1956 0.0
C914 C 0.54757 0.89717 0.13591 0.0
C915 C 0.61823 0.89622 0.18194 0.0
H916 H 0.55488 0.13752 0.10802 0.0
H917 H 0.65595 0.14877 0.07013 0.0
H918 H 0.57351 1.01219 0.09583 0.0
H919 H 0.63504 0.06202 0.07517 0.0
H920 H 0.60533 0.83654 0.20885 0.0
H921 H 0.75983 0.87799 0.21481 0.0
H922 H 0.71815 0.94207 0.17659 0.0
H923 H 0.78161 0.9346 0.19183 0.0
Eu924 Eu 0.57606 0.51927 0.30797 0.0
C925 C 0.67491 0.64308 0.366 0.0
C926 C 0.73368 0.72838 0.35854 0.0
C927 C 0.69538 0.71017 0.38518 0.0
C928 C 0.70786 0.67735 0.35483 0.0
C929 C 0.66789 0.65957 0.38118 0.0
C930 C 0.72808 0.74446 0.37389 0.0
C931 C 0.60429 0.57548 0.38696 0.0
N932 N 0.64722 0.5944 0.36152 0.0
C933 C 0.61216 0.56072 0.37175 0.0
C934 C 0.63247 0.62495 0.39175 0.0
Eu935 Eu 0.67102 0.57471 0.33647 0.0
N936 N 0.71128 0.66108 0.33982 0.0
C937 C 0.73957 0.69331 0.32802 0.0
C938 C 0.76313 0.76189 0.34651 0.0
C939 C 0.76574 0.74431 0.33115 0.0
H940 H 0.58995 0.52232 0.36841 0.0
H941 H 0.78852 0.76992 0.32181 0.0
H942 H 0.74796 0.78351 0.37702 0.0
H943 H 0.57647 0.54859 0.39501 0.0
H944 H 0.74346 0.67941 0.31644 0.0
H945 H 0.48207 0.49179 0.36678 0.0
H946 H 0.78348 0.80142 0.34889 0.0
H947 H 0.57566 0.43234 0.28331 0.0
H948 H 0.54282 0.53838 0.3459 0.0
H949 H 0.52981 0.34168 0.27986 0.0
H950 H 0.69067 0.72337 0.39684 0.0
H951 H 0.42753 0.40133 0.36387 0.0
H952 H 0.40377 0.32381 0.34815 0.0
H953 H 0.626 0.63618 0.40352 0.0
H954 H 0.4174 0.28291 0.32475 0.0
N955 N 0.52119 0.47694 0.33002 0.0
C956 C 0.5182 0.49982 0.34379 0.0
C957 C 0.45351 0.42205 0.35431 0.0
C958 C 0.45817 0.3981 0.34064 0.0
C959 C 0.48409 0.47306 0.35597 0.0
C960 C 0.49274 0.42683 0.32853 0.0
H961 H 0.46455 0.28913 0.29943 0.0
N962 N 0.53645 0.43185 0.30462 0.0
C963 C 0.52113 0.35858 0.28991 0.0
C964 C 0.50062 0.40366 0.31544 0.0
C965 C 0.54708 0.41007 0.29196 0.0
C966 C 0.48424 0.32909 0.30095 0.0
C967 C 0.47382 0.35141 0.31397 0.0
O968 O 0.55087 0.49813 0.28314 0.0
O969 O 0.63954 0.59328 0.31443 0.0
O970 O 0.62765 0.6217 0.33665 0.0
O971 O 0.55928 0.57975 0.32007 0.0
O972 O 0.63371 0.57287 0.29069 0.0
O973 O 0.51722 0.53122 0.29777 0.0
O974 O 0.71372 0.5658 0.35635 0.0
O975 O 0.62008 0.49883 0.32494 0.0
O976 O 0.63955 0.50793 0.29809 0.0
O977 O 0.70771 0.56325 0.31353 0.0
O978 O 0.62787 0.49674 0.34894 0.0
O979 O 0.75117 0.60188 0.33432 0.0
C980 C 0.65763 0.60958 0.30037 0.0
C981 C 0.53339 0.5559 0.27028 0.0
C982 C 0.50732 0.60696 0.25524 0.0
C983 C 0.49899 0.57196 0.26743 0.0
C984 C 0.55193 0.62803 0.24648 0.0
C985 C 0.57696 0.57568 0.26083 0.0
C986 C 0.5865 0.61223 0.24927 0.0
C987 C 0.5859 0.61794 0.33019 0.0
C988 C 0.52337 0.51902 0.28319 0.0
C989 C 0.43833 0.323 0.3257 0.0
C990 C 0.43053 0.3463 0.339 0.0
C991 C 0.60803 0.46786 0.33665 0.0
C992 C 0.79993 0.62762 0.35894 0.0
C993 C 0.81989 0.61416 0.37246 0.0
C994 C 0.86282 0.65078 0.38082 0.0
C995 C 0.88356 0.70046 0.37582 0.0
C996 C 0.82361 0.67769 0.35424 0.0
C997 C 0.86418 0.71364 0.36274 0.0
C998 C 0.68832 0.53225 0.30099 0.0
C999 C 0.75656 0.59005 0.34912 0.0
H1000 H 0.46502 0.55629 0.27448 0.0
H1001 H 0.55906 0.65499 0.23703 0.0
H1002 H 0.60378 0.56311 0.26229 0.0
H1003 H 0.6204 0.62769 0.24223 0.0
H1004 H 0.80328 0.57561 0.37607 0.0
H1005 H 0.91569 0.72943 0.38197 0.0
H1006 H 0.81149 0.68939 0.34374 0.0
H1007 H 0.88141 0.75205 0.35894 0.0
H1008 H 1.00975 0.67222 0.22753 0.0
H1009 H 0.12471 0.63995 0.2132 0.0
H1010 H 0.06639 0.73323 0.24696 0.0
H1011 H 0.18111 0.69954 0.23282 0.0
H1012 H 0.28255 0.83451 0.266 0.0
H1013 H 0.2323 0.77983 0.24383 0.0
H1014 H 0.09975 0.73503 0.27228 0.0
H1015 H 0.14978 0.79025 0.29393 0.0
C1016 C 1.04784 0.67969 0.22798 0.0
C1017 C 0.06285 0.65243 0.21809 0.0
C1018 C 0.08027 0.71389 0.23952 0.0
C1019 C 0.12881 0.72136 0.24194 0.0
C1020 C 0.14464 0.69588 0.23142 0.0
C1021 C 0.11222 0.66195 0.21981 0.0
C1022 C 0.24279 0.81205 0.26761 0.0
C1023 C 0.22045 0.8166 0.2819 0.0
C1024 C 0.21366 0.78078 0.2548 0.0
C1025 C 0.16118 0.75322 0.25585 0.0
C1026 C 0.13951 0.7564 0.27052 0.0
C1027 C 0.16845 0.78757 0.28319 0.0
H1028 H 0.48191 0.25415 0.43918 0.0
H1029 H 0.38112 0.11935 0.46407 0.0
H1030 H 0.48415 0.20475 0.41622 0.0
H1031 H 0.38147 0.0704 0.44117 0.0
H1032 H 0.4288 0.9924 0.40271 0.0
H1033 H 0.42141 1.03784 0.42573 0.0
H1034 H 0.44014 0.15612 0.3937 0.0
H1035 H 0.44885 0.11078 0.37088 0.0
C1036 C 0.46062 0.21406 0.43988 0.0
C1037 C 0.43112 0.19122 0.4536 0.0
C1038 C 0.46112 0.18543 0.42653 0.0
C1039 C 0.43226 0.13288 0.42644 0.0
C1040 C 0.40445 0.11032 0.44049 0.0
C1041 C 0.40402 0.13876 0.45374 0.0
C1042 C 0.42833 1.02669 0.40044 0.0
C1043 C 0.43733 0.04665 0.38469 0.0
C1044 C 0.42515 0.05364 0.41379 0.0
C1045 C 0.43096 0.10174 0.41191 0.0
C1046 C 0.43654 0.12002 0.39595 0.0
C1047 C 0.43989 0.09312 0.38266 0.0
H1048 H 0.27798 0.46694 0.60465 0.0
H1049 H 0.29063 0.34616 0.62581 0.0
H1050 H 0.32908 0.46788 0.58172 0.0
H1051 H 0.33746 0.34435 0.60278 0.0
H1052 H 0.46735 0.38623 0.568 0.0
H1053 H 0.40991 0.37668 0.58936 0.0
H1054 H 0.33783 0.43277 0.55762 0.0
H1055 H 0.3972 0.44357 0.53639 0.0
C1056 C 0.2915 0.4406 0.60449 0.0
C1057 C 0.27904 0.40609 0.61722 0.0
C1058 C 0.32031 0.44044 0.59111 0.0
C1059 C 0.33769 0.40572 0.58994 0.0
C1060 C 0.32593 0.37219 0.60291 0.0
C1061 C 0.29797 0.37279 0.61624 0.0
C1062 C 0.4373 0.39355 0.56515 0.0
C1063 C 0.43715 0.41507 0.55015 0.0
C1064 C 0.40446 0.38912 0.5777 0.0
C1065 C 0.36896 0.40499 0.57571 0.0
C1066 C 0.36522 0.42147 0.56009 0.0
C1067 C 0.3986 0.42628 0.54758 0.0
H1068 H 0.10332 0.39668 0.72285 0.0
H1069 H 1.0081 0.45791 0.71267 0.0
H1070 H 1.04089 0.33781 0.74175 0.0
H1071 H 0.94647 0.4006 0.73096 0.0
H1072 H 0.82563 0.27009 0.75905 0.0
H1073 H 0.88525 0.32478 0.73904 0.0
H1074 H 1.00473 0.32849 0.76724 0.0
H1075 H 0.94395 0.2718 0.78688 0.0
C1076 C 0.06812 0.39609 0.72395 0.0
C1077 C 1.05991 0.43037 0.71513 0.0
C1078 C 1.03252 0.36306 0.73518 0.0
C1079 C 0.98771 0.36375 0.73821 0.0
C1080 C 0.9792 0.39709 0.72896 0.0
C1081 C 1.01459 0.42976 0.71787 0.0
C1082 C 0.86482 0.28411 0.76128 0.0
C1083 C 0.8799 0.26783 0.77496 0.0
C1084 C 0.89942 0.31535 0.74964 0.0
C1085 C 0.95073 0.33155 0.75116 0.0
C1086 C 0.96589 0.31656 0.76523 0.0
C1087 C 0.93106 0.28493 0.77682 0.0
H1088 H 0.68501 0.08474 0.90323 0.0
H1089 H 0.66589 0.96556 0.87191 0.0
H1090 H 0.69575 0.04171 0.92634 0.0
H1091 H 0.67792 0.92262 0.89481 0.0
H1092 H 0.64031 0.82815 0.94108 0.0
H1093 H 0.63545 0.87522 0.91789 0.0
H1094 H 0.73964 1.0121 0.94127 0.0
H1095 H 0.74262 0.96547 0.96444 0.0
C1096 C 0.68611 0.05071 0.9011 0.0
C1097 C 0.67637 1.02966 0.88552 0.0
C1098 C 0.69137 1.02525 0.91447 0.0
C1099 C 0.68695 0.97768 0.91275 0.0
C1100 C 0.68049 0.95836 0.89691 0.0
C1101 C 0.67501 0.98376 0.8836 0.0
C1102 C 0.66142 0.8683 0.94138 0.0
C1103 C 0.69209 0.8926 0.95474 0.0
C1104 C 0.65938 0.89555 0.9279 0.0
C1105 C 0.68776 0.94806 0.92734 0.0
C1106 C 0.71694 0.9721 0.941 0.0
C1107 C 0.71892 0.94503 0.95438 0.0
H1108 H 0.79745 0.70321 0.13379 0.0
H1109 H 0.84603 0.61474 0.10721 0.0
H1110 H 0.75106 0.70549 0.11048 0.0
H1111 H 0.79717 0.61486 0.0838 0.0
H1112 H 0.74024 0.65464 0.03899 0.0
H1113 H 0.79228 0.66255 0.06224 0.0
H1114 H 0.68222 0.66482 0.09393 0.0
H1115 H 0.63157 0.65856 0.07053 0.0
C1116 C 0.79786 0.68363 0.12297 0.0
C1117 C 0.82632 0.65921 0.1225 0.0
C1118 C 0.77067 0.68466 0.1095 0.0
C1119 C 0.77023 0.66094 0.0949 0.0
C1120 C 0.79716 0.63474 0.09458 0.0
C1121 C 0.82467 0.63384 0.10815 0.0
C1122 C 0.7286 0.65983 0.05085 0.0
C1123 C 0.68244 0.65798 0.05269 0.0
C1124 C 0.7578 0.66273 0.06434 0.0
C1125 C 0.74162 0.66336 0.08027 0.0
C1126 C 0.69689 0.66499 0.08202 0.0
C1127 C 0.66794 0.66243 0.06848 0.0
H1128 H 0.47439 0.98068 0.62875 0.0
H1129 H 0.42474 0.08561 0.61876 0.0
H1130 H 0.41498 0.9225 0.60958 0.0
H1131 H 0.36504 1.02759 0.59915 0.0
H1132 H 0.3185 0.9498 0.55031 0.0
H1133 H 0.36992 0.99957 0.57263 0.0
H1134 H 0.33125 0.86618 0.59971 0.0
H1135 H 0.27893 0.81585 0.57704 0.0
C1136 C 0.44842 0.99014 0.62336 0.0
C1137 C 0.4529 1.03721 0.62628 0.0
C1138 C 0.41477 0.95688 0.61188 0.0
C1139 C 0.3849 0.96984 0.60246 0.0
C1140 C 0.38763 1.01602 0.60589 0.0
C1141 C 0.4212 0.04914 0.61749 0.0
C1142 C 0.32106 0.93076 0.56096 0.0
C1143 C 0.29396 0.87842 0.56173 0.0
C1144 C 0.35032 0.9596 0.57395 0.0
C1145 C 0.35421 0.93756 0.58839 0.0
C1146 C 0.32923 0.88497 0.58893 0.0
C1147 C 0.29942 0.85585 0.57583 0.0
H1148 H 0.38338 0.28327 0.71301 0.0
H1149 H 0.49252 0.25527 0.7359 0.0
H1150 H 0.38373 0.33149 0.73617 0.0
H1151 H 0.49512 0.30636 0.75898 0.0
H1152 H 0.46495 0.365 0.80502 0.0
H1153 H 0.45442 0.31066 0.78226 0.0
H1154 H 0.42057 0.40294 0.75146 0.0
H1155 H 0.43033 0.45642 0.77451 0.0
C1156 C 0.40792 0.2876 0.72297 0.0
C1157 C 0.4373 0.2641 0.72248 0.0
C1158 C 0.40846 0.31605 0.73635 0.0
C1159 C 0.43883 0.32293 0.7499 0.0
C1160 C 0.46998 0.30124 0.74914 0.0
C1161 C 0.46924 0.2724 0.73569 0.0
C1162 C 0.45263 0.37218 0.79358 0.0
C1163 C 0.44693 0.41445 0.79189 0.0
C1164 C 0.44811 0.34172 0.78027 0.0
C1165 C 0.438 0.35248 0.76459 0.0
C1166 C 0.42836 0.39265 0.76316 0.0
C1167 C 0.43293 0.42315 0.77655 0.0
H1168 H 0.13479 0.5031 0.96365 0.0
H1169 H 1.02095 0.35651 0.95027 0.0
H1170 H 0.19039 0.49949 0.94366 0.0
H1171 H 0.07675 0.3522 0.93024 0.0
H1172 H 0.15433 0.38191 0.88185 0.0
H1173 H 0.10657 0.3864 0.90454 0.0
H1174 H 0.24168 0.46872 0.93196 0.0
H1175 H 0.28981 0.46473 0.9088 0.0
C1176 C 0.12247 0.46859 0.95729 0.0
C1177 C 0.07356 0.42903 0.9594 0.0
C1178 C 0.15445 0.4669 0.9454 0.0
C1179 C 0.13847 0.42588 0.93492 0.0
C1180 C 0.09062 0.38511 0.93771 0.0
C1181 C 1.05874 0.38689 0.94959 0.0
C1182 C 0.17409 0.40166 0.89263 0.0
C1183 C 0.22616 0.42303 0.89336 0.0
C1184 C 0.14646 0.40358 0.90585 0.0
C1185 C 0.16955 0.42668 0.92051 0.0
C1186 C 0.22207 0.4503 0.92102 0.0
C1187 C 0.24994 0.44841 0.90766 0.0
H1188 H 0.70411 1.00457 0.12029 0.0
H1189 H 0.63954 0.09773 0.12897 0.0
H1190 H 0.76217 0.06626 0.10105 0.0
H1191 H 0.69588 0.1584 0.11054 0.0
H1192 H 0.82183 0.27869 0.08134 0.0
H1193 H 0.76882 0.21999 0.10174 0.0
H1194 H 0.77282 0.10093 0.07554 0.0
H1195 H 0.82853 0.16122 0.05562 0.0
C1196 C 0.70382 1.03924 0.11884 0.0
C1197 C 0.66883 0.04708 0.12741 0.0
C1198 C 0.7364 0.0744 0.10741 0.0
C1199 C 0.73456 0.11839 0.10391 0.0
C1200 C 0.70062 0.12659 0.11294 0.0
C1201 C 0.66839 0.09165 0.12418 0.0
C1202 C 0.80985 0.23967 0.07961 0.0
C1203 C 0.82817 0.22467 0.06644 0.0
C1204 C 0.77952 0.20555 0.09149 0.0
C1205 C 0.76596 0.15471 0.09068 0.0
C1206 C 0.78274 0.13946 0.07704 0.0
C1207 C 0.81374 0.17391 0.06526 0.0
H1208 H 0.59374 0.64759 0.29814 0.0
H1209 H 0.73876 0.67555 0.28348 0.0
H1210 H 0.59636 0.70621 0.27805 0.0
H1211 H 0.74211 0.73494 0.26338 0.0
H1212 H 0.70988 0.78208 0.21528 0.0
H1213 H 0.70648 0.73077 0.23802 0.0
H1214 H 0.62646 0.78686 0.26591 0.0
H1215 H 0.62933 0.83811 0.24268 0.0
C1216 C 0.62772 0.66856 0.29141 0.0
C1217 C 0.66711 0.65806 0.29316 0.0
C1218 C 0.62884 0.70188 0.27951 0.0
C1219 C 0.66908 0.72536 0.26867 0.0
C1220 C 0.70974 0.71709 0.27111 0.0
C1221 C 0.70852 0.6838 0.283 0.0
C1222 C 0.69108 0.78327 0.2262 0.0
C1223 C 0.67012 0.81473 0.22703 0.0
C1224 C 0.68972 0.75414 0.23945 0.0
C1225 C 0.66758 0.75526 0.25425 0.0
C1226 C 0.64425 0.78486 0.25487 0.0
C1227 C 0.64555 0.81418 0.24147 0.0
H1228 H 0.98779 0.57721 0.46673 0.0
H1229 H 0.10119 0.71818 0.44873 0.0
H1230 H 0.92973 0.57616 0.44672 0.0
H1231 H 1.04317 0.71746 0.42857 0.0
H1232 H 0.95941 0.67281 0.38124 0.0
H1233 H 1.00923 0.67303 0.40405 0.0
H1234 H 0.87852 0.60797 0.43427 0.0
H1235 H 0.82822 0.60749 0.41105 0.0
C1236 C 0.99964 0.60974 0.4593 0.0
C1237 C 1.04908 0.64913 0.46013 0.0
C1238 C 0.96624 0.60859 0.44742 0.0
C1239 C 0.98138 0.6463 0.43567 0.0
C1240 C 1.02991 0.68706 0.43711 0.0
C1241 C 0.06312 0.68821 0.44901 0.0
C1242 C 0.94096 0.65772 0.39268 0.0
C1243 C 0.88954 0.63998 0.39418 0.0
C1244 C 0.96984 0.65858 0.40592 0.0
C1245 C 0.94866 0.6419 0.42134 0.0
C1246 C 0.89658 0.6215 0.4227 0.0
C1247 C 0.86747 0.62075 0.40932 0.0
H1248 H 0.49414 0.61718 0.32692 0.0
H1249 H 0.64579 0.71837 0.33942 0.0
H1250 H 0.4733 0.68379 0.33082 0.0
H1251 H 0.62545 0.78552 0.34281 0.0
H1252 H 0.57492 0.90986 0.33182 0.0
H1253 H 0.60037 0.84584 0.32961 0.0
H1254 H 0.46088 0.73846 0.35025 0.0
H1255 H 0.43751 0.80305 0.35351 0.0
C1256 C 0.52349 0.65345 0.33053 0.0
C1257 C 0.57205 0.66033 0.33296 0.0
C1258 C 0.51133 0.69254 0.33284 0.0
C1259 C 0.54708 0.74208 0.33725 0.0
C1260 C 0.59589 0.74913 0.33939 0.0
C1261 C 0.60774 0.70966 0.33753 0.0
C1262 C 0.55055 0.87353 0.33676 0.0
C1263 C 0.5048 0.86427 0.34389 0.0
C1264 C 0.56486 0.83557 0.33513 0.0
C1265 C 0.53333 0.78492 0.33969 0.0
C1266 C 0.48723 0.77574 0.34641 0.0
C1267 C 0.47373 0.81378 0.34846 0.0
H1268 H 0.68049 0.42568 0.52093 0.0
H1269 H 0.71124 0.56028 0.49662 0.0
H1270 H 0.76827 0.44774 0.51845 0.0
H1271 H 0.79989 0.58421 0.49501 0.0
H1272 H 0.97077 0.63121 0.50668 0.0
H1273 H 0.88353 0.61073 0.50964 0.0
H1274 H 0.83669 0.45803 0.49884 0.0
H1275 H 0.92405 0.47904 0.49524 0.0
C1276 C 0.70597 0.46113 0.51554 0.0
C1277 C 0.68688 0.49214 0.51003 0.0
C1278 C 0.75732 0.47379 0.51391 0.0
C1279 C 0.794 0.51869 0.50663 0.0
C1280 C 0.77491 0.54972 0.50101 0.0
C1281 C 0.7231 0.53622 0.50223 0.0
C1282 C 0.94233 0.593 0.50497 0.0
C1283 C 0.957 0.55727 0.5008 0.0
C1284 C 0.89113 0.58105 0.50658 0.0
C1285 C 0.85042 0.53208 0.50463 0.0
C1286 C 0.86516 0.4962 0.50068 0.0
C1287 C 0.91635 0.50847 0.49857 0.0
H1288 H 0.47064 0.91415 0.64434 0.0
H1289 H 0.41994 0.95399 0.68729 0.0
H1290 H 0.40312 0.82817 0.64699 0.0
H1291 H 0.3538 0.86703 0.69047 0.0
H1292 H 0.26918 0.6847 0.69805 0.0
H1293 H 0.33279 0.77336 0.69641 0.0
H1294 H 0.30797 0.77092 0.64521 0.0
H1295 H 0.24215 0.68396 0.64717 0.0
C1296 C 0.44556 0.90529 0.65448 0.0
C1297 C 0.45257 0.94391 0.66543 0.0
C1298 C 0.40586 0.85471 0.65604 0.0
C1299 C 0.3709 0.83799 0.66902 0.0
C1300 C 0.37869 0.87626 0.68024 0.0
C1301 C 0.41744 0.92731 0.67836 0.0
C1302 C 0.27483 0.70339 0.68656 0.0
C1303 C 0.24603 0.67561 0.67303 0.0
C1304 C 0.31297 0.75506 0.68548 0.0
C1305 C 0.3273 0.78209 0.6706 0.0
C1306 C 0.29957 0.75366 0.65703 0.0
C1307 C 0.26061 0.70274 0.65822 0.0
H1308 H 0.47102 0.35409 0.83612 0.0
H1309 H 0.62528 0.46056 0.8302 0.0
H1310 H 0.49198 0.28739 0.83917 0.0
H1311 H 0.64665 0.39417 0.83385 0.0
H1312 H 0.67571 0.26852 0.85614 0.0
H1313 H 0.65258 0.33339 0.85296 0.0
H1314 H 0.52438 0.23263 0.8255 0.0
H1315 H 0.54995 0.16866 0.82771 0.0
C1316 C 0.50971 0.36413 0.83567 0.0
C1317 C 0.54577 0.41487 0.83296 0.0
C1318 C 0.52202 0.32484 0.83731 0.0
C1319 C 0.57168 0.33323 0.83687 0.0
C1320 C 0.60786 0.38417 0.83445 0.0
C1321 C 0.59536 0.42319 0.8323 0.0
C1322 C 0.64207 0.25926 0.8495 0.0
C1323 C 0.61399 0.21038 0.84303 0.0
C1324 C 0.62869 0.29753 0.84755 0.0
C1325 C 0.58565 0.29029 0.83903 0.0
C1326 C 0.55733 0.24138 0.83245 0.0
C1327 C 0.5717 0.20337 0.83401 0.0
H1328 H 0.20378 0.6097 0.99284 0.0
H1329 H 0.15564 0.45655 1.00303 0.0
H1330 H 0.29078 0.63005 0.99718 0.0
H1331 H 0.24233 0.47638 0.00679 0.0
H1332 H 0.41569 0.52703 0.99524 0.0
H1333 H 0.32737 0.50358 0.99303 0.0
H1334 H 0.35763 0.63834 0.01738 0.0
H1335 H 0.44495 0.65949 0.02064 0.0
C1336 C 0.21105 0.57991 0.99602 0.0
C1337 C 0.17005 0.53102 0.99772 0.0
C1338 C 0.26205 0.59178 0.99859 0.0
C1339 C 0.2763 0.55545 1.00249 0.0
C1340 C 0.23523 0.50644 1.00385 0.0
C1341 C 0.18427 0.49488 1.00178 0.0
C1342 C 0.40351 0.5505 1.00107 0.0
C1343 C 0.43928 0.59375 0.00939 0.0
C1344 C 0.35187 0.53744 0.99943 0.0
C1345 C 0.33249 0.56829 1.00502 0.0
C1346 C 0.36872 0.61242 0.01281 0.0
C1347 C 0.41983 0.62452 0.01491 0.0
H1348 H 0.88681 0.39991 0.14792 0.0
H1349 H 0.86123 0.39808 0.19898 0.0
H1350 H 0.81904 0.31385 0.14575 0.0
H1351 H 0.79561 0.31028 0.19709 0.0
H1352 H 0.70383 0.13053 0.18817 0.0
H1353 H 0.77073 0.21709 0.19134 0.0
H1354 H 0.72524 0.25599 0.14711 0.0
H1355 H 0.65697 0.17033 0.14442 0.0
C1356 C 0.8677 0.38132 0.15892 0.0
C1357 C 0.88293 0.40807 0.17379 0.0
C1358 C 0.82776 0.33079 0.15763 0.0
C1359 C 0.79992 0.30211 0.17118 0.0
C1360 C 0.81514 0.32874 0.18614 0.0
C1361 C 0.85425 0.38004 0.18733 0.0
C1362 C 0.7073 0.15712 0.17906 0.0
C1363 C 0.67287 0.14054 0.16592 0.0
C1364 C 0.74655 0.20802 0.18094 0.0
C1365 C 0.75572 0.24629 0.16953 0.0
C1366 C 0.72152 0.22955 0.15634 0.0
C1367 C 0.68131 0.17912 0.15476 0.0
H1368 H 0.25395 0.60025 0.48091 0.0
H1369 H 0.21765 0.56353 0.53096 0.0
H1370 H 0.31956 0.57702 0.48301 0.0
H1371 H 0.28525 0.54368 0.53342 0.0
H1372 H 0.44607 0.55778 0.5369 0.0
H1373 H 0.37798 0.57687 0.53407 0.0
H1374 H 0.34424 0.50891 0.48702 0.0
H1375 H 0.41142 0.48835 0.49014 0.0
C1376 C 0.25879 0.58632 0.49237 0.0
C1377 C 0.22735 0.58256 0.50554 0.0
C1378 C 0.29771 0.57335 0.49369 0.0
C1379 C 0.30971 0.55774 0.50847 0.0
C1380 C 0.27902 0.5553 0.52171 0.0
C1381 C 0.23929 0.56684 0.52026 0.0
C1382 C 0.42455 0.54673 0.52584 0.0
C1383 C 0.43624 0.521 0.51382 0.0
C1384 C 0.38439 0.55763 0.52422 0.0
C1385 C 0.35358 0.54513 0.51022 0.0
C1386 C 0.36585 0.52012 0.49805 0.0
C1387 C 0.40509 0.50784 0.4999 0.0
H1388 H 0.70805 0.2186 0.69416 0.0
H1389 H 0.70989 0.24343 0.6431 0.0
H1390 H 0.79486 0.28468 0.69616 0.0
H1391 H 0.79841 0.30741 0.6448 0.0
H1392 H 0.97853 0.39679 0.65392 0.0
H1393 H 0.89173 0.33041 0.65077 0.0
H1394 H 0.85274 0.37876 0.69442 0.0
H1395 H 0.93864 0.44652 0.69707 0.0
C1396 C 0.72703 0.23666 0.68309 0.0
C1397 C 0.70019 0.22135 0.66824 0.0
C1398 C 0.7779 0.2758 0.68429 0.0
C1399 C 0.80665 0.3031 0.6707 0.0
C1400 C 0.77991 0.28803 0.65577 0.0
C1401 C 0.72828 0.24967 0.65466 0.0
C1402 C 0.95188 0.39404 0.6629 0.0
C1403 C 0.96849 0.42901 0.67588 0.0
C1404 C 0.90087 0.35512 0.66104 0.0
C1405 C 0.86255 0.34694 0.6723 0.0
C1406 C 0.87928 0.38175 0.68532 0.0
C1407 C 0.92984 0.42162 0.68688 0.0
H1408 H 0.65025 0.94635 0.84074 0.0
H1409 H 0.49524 0.89898 0.84611 0.0
H1410 H 0.63088 0.86 0.83693 0.0
H1411 H 0.47545 0.81225 0.84221 0.0
H1412 H 0.4443 0.65729 0.82218 0.0
H1413 H 0.46621 0.74432 0.82542 0.0
H1414 H 0.60476 0.77521 0.84719 0.0
H1415 H 0.58107 0.68674 0.84469 0.0
C1416 C 0.61164 0.91804 0.8408 0.0
C1417 C 0.57485 0.93248 0.84342 0.0
C1418 C 0.60028 0.8671 0.83882 0.0
C1419 C 0.55093 0.82618 0.83904 0.0
C1420 C 0.51406 0.8407 0.84163 0.0
C1421 C 0.52559 0.89164 0.84396 0.0
C1422 C 0.48003 0.6823 0.82749 0.0
C1423 C 0.51131 0.66273 0.8323 0.0
C1424 C 0.49269 0.73342 0.82954 0.0
C1425 C 0.53803 0.76988 0.8366 0.0
C1426 C 0.56975 0.75052 0.84142 0.0
C1427 C 0.55641 0.69873 0.83967 0.0
H1428 H 0.7489 0.63902 0.00957 0.0
H1429 H 0.64343 0.48329 0.01065 0.0
H1430 H 0.81718 0.62017 0.00706 0.0
H1431 H 0.71179 0.46427 0.00721 0.0
H1432 H 0.85598 0.45761 0.98327 0.0
H1433 H 0.78645 0.47538 0.98558 0.0
H1434 H 0.86212 0.57711 0.02441 0.0
H1435 H 0.92994 0.55699 0.02276 0.0
C1436 C 0.73945 0.6005 0.00905 0.0
C1437 C 0.68849 0.56336 0.01032 0.0
C1438 C 0.77961 0.58941 0.00766 0.0
C1439 C 0.7721 0.54014 0.0068 0.0
C1440 C 0.72104 0.50285 0.00769 0.0
C1441 C 0.68095 0.51399 0.0097 0.0
C1442 C 0.85828 0.48379 0.99239 0.0
C1443 C 0.90064 0.50553 1.00273 0.0
C1444 C 0.81747 0.49407 0.99379 0.0
C1445 C 0.81658 0.5282 1.00527 0.0
C1446 C 0.85955 0.55071 0.01533 0.0
C1447 C 0.89932 0.53895 0.01436 0.0
H1448 H 0.42955 0.80674 0.15467 0.0
H1449 H 0.39679 0.90319 0.18305 0.0
H1450 H 0.34266 0.7402 0.15725 0.0
H1451 H 0.30908 0.83804 0.18473 0.0
H1452 H 0.13852 0.71554 0.17315 0.0
H1453 H 0.22465 0.78289 0.16989 0.0
H1454 H 0.27698 0.67889 0.17763 0.0
H1455 H 0.19073 0.61186 0.18159 0.0
C1456 C 0.40373 0.81508 0.16093 0.0
C1457 C 0.42196 0.86346 0.1676 0.0
C1458 C 0.35295 0.77586 0.16264 0.0
C1459 C 0.31605 0.78186 0.17113 0.0
C1460 C 0.33424 0.8303 0.1778 0.0
C1461 C 0.38547 0.86893 0.17654 0.0
C1462 C 0.16793 0.70631 0.17414 0.0
C1463 C 0.15512 0.65621 0.17756 0.0
C1464 C 0.21849 0.74589 0.17233 0.0
C1465 C 0.26037 0.73834 0.17331 0.0
C1466 C 0.2475 0.68805 0.17654 0.0
C1467 C 0.19696 0.64874 0.17886 0.0
H1468 H 0.61297 0.40403 0.31222 0.0
H1469 H 0.57366 0.40019 0.3622 0.0
H1470 H 0.59134 0.31592 0.31378 0.0
H1471 H 0.5555 0.31365 0.36414 0.0
H1472 H 0.57293 0.16933 0.36735 0.0
H1473 H 0.59032 0.25557 0.36472 0.0
H1474 H 0.52523 0.22325 0.31724 0.0
H1475 H 0.50643 0.13631 0.32015 0.0
C1476 C 0.59857 0.38462 0.32352 0.0
C1477 C 0.59359 0.41109 0.33685 0.0
C1478 C 0.58666 0.33319 0.32453 0.0
C1479 C 0.57102 0.30495 0.33916 0.0
C1480 C 0.56725 0.332 0.35253 0.0
C1481 C 0.57774 0.38274 0.35138 0.0
C1482 C 0.56226 0.18003 0.35622 0.0
C1483 C 0.53796 0.14342 0.34401 0.0
C1484 C 0.57212 0.23055 0.35472 0.0
C1485 C 0.55981 0.24909 0.34068 0.0
C1486 C 0.53622 0.21263 0.32832 0.0
C1487 C 0.525 0.1616 0.33004 0.0
H1488 H 0.26796 0.77523 0.4695 0.0
H1489 H 0.20369 0.65272 0.43593 0.0
H1490 H 0.32083 0.82975 0.44775 0.0
H1491 H 0.25546 0.70735 0.41422 0.0
H1492 H 0.31711 0.83794 0.37622 0.0
H1493 H 0.26507 0.78301 0.39804 0.0
H1494 H 0.39286 0.83998 0.42935 0.0
H1495 H 0.44495 0.89374 0.40751 0.0
C1496 C 0.26509 0.75978 0.45753 0.0
C1497 C 0.23155 0.70917 0.45465 0.0
C1498 C 0.29553 0.79111 0.44502 0.0
C1499 C 0.29255 0.77325 0.42909 0.0
C1500 C 0.25875 0.72275 0.42622 0.0
C1501 C 0.22923 0.69121 0.43878 0.0
C1502 C 0.3342 0.83861 0.38772 0.0
C1503 C 0.38554 0.8703 0.38994 0.0
C1504 C 0.30432 0.80694 0.40027 0.0
C1505 C 0.32451 0.80685 0.41559 0.0
C1506 C 0.37573 0.83903 0.41783 0.0
C1507 C 0.40576 0.86974 0.40519 0.0
H1508 H 0.5314 0.30759 0.54296 0.0
H1509 H 0.59639 0.43355 0.57516 0.0
H1510 H 0.53581 0.25516 0.56451 0.0
H1511 H 0.59962 0.38106 0.59669 0.0
H1512 H 0.54472 0.25486 0.63609 0.0
H1513 H 0.54106 0.30799 0.61466 0.0
H1514 H 0.60182 0.2462 0.58066 0.0
H1515 H 0.60651 0.19407 0.60203 0.0
C1516 C 0.54653 0.32419 0.5546 0.0
C1517 C 0.56374 0.37515 0.55715 0.0
C1518 C 0.54922 0.29408 0.56699 0.0
C1519 C 0.56805 0.31362 0.58247 0.0
C1520 C 0.58457 0.3644 0.58505 0.0
C1521 C 0.58296 0.39468 0.57258 0.0
C1522 C 0.55773 0.25286 0.62409 0.0
C1523 C 0.57632 0.22015 0.62098 0.0
C1524 C 0.55565 0.28345 0.61175 0.0
C1525 C 0.57093 0.2815 0.59579 0.0
C1526 C 0.5893 0.24864 0.59269 0.0
C1527 C 0.59241 0.21893 0.60507 0.0
H1528 H 0.45708 0.57426 0.76806 0.0
H1529 H 0.32828 0.5069 0.79903 0.0
H1530 H 0.40598 0.57729 0.74593 0.0
H1531 H 0.27735 0.51119 0.77696 0.0
H1532 H 0.2179 0.58186 0.73904 0.0
H1533 H 0.26935 0.57768 0.76071 0.0
H1534 H 0.3336 0.51795 0.72728 0.0
H1535 H 0.28091 0.52096 0.7055 0.0
C1536 C 0.4179 0.56037 0.77024 0.0
C1537 C 0.39712 0.5405 0.78551 0.0
C1538 C 0.38843 0.56182 0.75744 0.0
C1539 C 0.33726 0.54456 0.75952 0.0
C1540 C 0.31656 0.52515 0.77484 0.0
C1541 C 0.34583 0.52258 0.78754 0.0
C1542 C 0.24313 0.56807 0.73617 0.0
C1543 C 0.24509 0.55205 0.72031 0.0
C1544 C 0.27249 0.56528 0.74873 0.0
C1545 C 0.30584 0.54736 0.74591 0.0
C1546 C 0.30864 0.5322 0.72999 0.0
C1547 C 0.2783 0.53388 0.71745 0.0
H1548 H 0.79974 0.24168 0.87662 0.0
H1549 H 0.67356 0.18054 0.90876 0.0
H1550 H 0.85207 0.29568 0.89842 0.0
H1551 H 0.72619 0.23397 0.93065 0.0
H1552 H 0.91571 0.42426 0.93557 0.0
H1553 H 0.86204 0.36875 0.91458 0.0
H1554 H 0.79968 0.24818 0.94884 0.0
H1555 H 0.85463 0.30409 0.97007 0.0
C1556 C 0.78299 0.23973 0.88831 0.0
C1557 C 0.732 0.20675 0.89073 0.0
C1558 C 0.81312 0.27088 0.90087 0.0
C1559 C 0.79371 0.26952 0.91646 0.0
C1560 C 0.74281 0.23608 0.91894 0.0
C1561 C 0.71242 0.20564 0.90627 0.0
C1562 C 0.89052 0.38602 0.93881 0.0
C1563 C 0.88977 0.36918 0.95476 0.0
C1564 C 0.85979 0.35388 0.92661 0.0
C1565 C 0.82626 0.30359 0.92983 0.0
C1566 C 0.82471 0.28665 0.94583 0.0
C1567 C 0.85638 0.31877 0.95805 0.0
H1568 H 0.51746 0.88809 0.1042 0.0
H1569 H 0.57856 0.82656 0.13817 0.0
H1570 H 0.52077 0.83527 0.08289 0.0
H1571 H 0.58092 0.77254 0.1167 0.0
H1572 H 0.52676 0.64782 0.07631 0.0
H1573 H 0.52371 0.69947 0.09833 0.0
H1574 H 0.58469 0.82615 0.06648 0.0
H1575 H 0.58873 0.77479 0.04456 0.0
C1576 C 0.53117 0.86292 0.10726 0.0
C1577 C 0.54748 0.86186 0.12315 0.0
C1578 C 0.53344 0.83271 0.09488 0.0
C1579 C 0.55124 0.79934 0.09787 0.0
C1580 C 0.56671 0.79742 0.11383 0.0
C1581 C 0.56544 0.82857 0.1262 0.0
C1582 C 0.5394 0.68666 0.07393 0.0
C1583 C 0.55776 0.70674 0.05846 0.0
C1584 C 0.53801 0.7165 0.08667 0.0
C1585 C 0.55387 0.76734 0.08435 0.0
C1586 C 0.57174 0.78724 0.06883 0.0
C1587 C 0.57418 0.75767 0.05619 0.0
H1588 H 0.66528 0.49947 0.26966 0.0
H1589 H 0.78813 0.55974 0.30316 0.0
H1590 H 0.71947 0.49831 0.24841 0.0
H1591 H 0.84246 0.55773 0.28178 0.0
H1592 H 0.90841 0.49541 0.24272 0.0
H1593 H 0.8547 0.49604 0.26439 0.0
H1594 H 0.79237 0.55941 0.23164 0.0
H1595 H 0.84671 0.55962 0.21 0.0
C1596 C 0.70378 0.51209 0.27261 0.0
C1597 C 0.72196 0.5295 0.28831 0.0
C1598 C 0.73508 0.51176 0.26029 0.0
C1599 C 0.78561 0.528 0.26325 0.0
C1600 C 0.80375 0.54463 0.27902 0.0
C1601 C 0.77256 0.5459 0.2913 0.0
C1602 C 0.8831 0.50928 0.24005 0.0
C1603 C 0.88199 0.52722 0.22444 0.0
C1604 C 0.8525 0.51001 0.25259 0.0
C1605 C 0.81897 0.5278 0.24989 0.0
C1606 C 0.81735 0.54509 0.23422 0.0
C1607 C 0.84868 0.5453 0.22177 0.0
H1608 H 0.91299 0.36963 0.43349 0.0
H1609 H 0.84202 0.45655 0.42194 0.0
H1610 H 0.83428 0.295 0.43244 0.0
H1611 H 0.76248 0.37973 0.41913 0.0
H1612 H 0.70951 0.16588 0.41188 0.0
H1613 H 0.7817 0.24644 0.41209 0.0
H1614 H 0.69671 0.30876 0.43347 0.0
H1615 H 0.62152 0.2277 0.43143 0.0
C1616 C 0.8805 0.37299 0.43078 0.0
C1617 C 0.88394 0.4194 0.42802 0.0
C1618 C 0.83524 0.32978 0.42981 0.0
C1619 C 0.79216 0.33121 0.42536 0.0
C1620 C 0.79508 0.37747 0.42262 0.0
C1621 C 0.84068 0.42133 0.42401 0.0
C1622 C 0.70522 0.19668 0.41613 0.0
C1623 C 0.65918 0.19001 0.42148 0.0
C1624 C 0.74725 0.24302 0.4166 0.0
C1625 C 0.74533 0.28388 0.42317 0.0
C1626 C 0.69935 0.27792 0.42833 0.0
C1627 C 0.65649 0.23134 0.42741 0.0
H1628 H 0.57228 0.87688 0.62204 0.0
H1629 H 0.43634 0.81117 0.5939 0.0
H1630 H 0.56545 0.79717 0.6253 0.0
H1631 H 0.4342 0.73154 0.59532 0.0
H1632 H 0.59859 0.68675 0.60035 0.0
H1633 H 0.58694 0.75705 0.60567 0.0
H1634 H 0.42819 0.65968 0.60916 0.0
H1635 H 0.44007 0.5887 0.60278 0.0
C1636 C 0.54015 0.84575 0.61675 0.0
C1637 C 0.50528 0.85168 0.60738 0.0
C1638 C 0.537 0.79966 0.61838 0.0
C1639 C 0.50058 0.75841 0.61003 0.0
C1640 C 0.46317 0.76282 0.60178 0.0
C1641 C 0.46512 0.80892 0.60067 0.0
C1642 C 0.56118 0.68025 0.60227 0.0
C1643 C 0.52024 0.63247 0.60095 0.0
C1644 C 0.55443 0.7205 0.6056 0.0
C1645 C 0.50655 0.71401 0.60801 0.0
C1646 C 0.46548 0.66587 0.60728 0.0
C1647 C 0.4723 0.62529 0.6038 0.0
H1648 H 0.61695 0.41221 0.74356 0.0
H1649 H 0.71219 0.56974 0.75092 0.0
H1650 H 0.69035 0.40334 0.73809 0.0
H1651 H 0.78432 0.56056 0.74664 0.0
H1652 H 0.90561 0.55331 0.72654 0.0
H1653 H 0.82503 0.54563 0.72513 0.0
H1654 H 0.76351 0.40859 0.75216 0.0
H1655 H 0.84432 0.41239 0.75173 0.0
C1656 C 0.65343 0.4448 0.74397 0.0
C1657 C 0.65898 0.49162 0.74776 0.0
C1658 C 0.69529 0.43964 0.741 0.0
C1659 C 0.74303 0.4813 0.74175 0.0
C1660 C 0.7481 0.52785 0.74555 0.0
C1661 C 0.70669 0.53303 0.74831 0.0
C1662 C 0.87512 0.51997 0.73154 0.0
C1663 C 0.88236 0.48358 0.73939 0.0
C1664 C 0.82864 0.51625 0.73102 0.0
C1665 C 0.78833 0.4775 0.73903 0.0
C1666 C 0.79414 0.43919 0.74598 0.0
C1667 C 0.84074 0.44195 0.74601 0.0
H1668 H 0.47527 0.84469 0.93123 0.0
H1669 H 0.40618 0.8939 0.89554 0.0
H1670 H 0.40374 0.76124 0.92977 0.0
H1671 H 0.33868 0.81062 0.89297 0.0
H1672 H 0.19431 0.69467 0.91521 0.0
H1673 H 0.2731 0.76957 0.91189 0.0
H1674 H 0.34944 0.68411 0.91444 0.0
H1675 H 0.26929 0.60826 0.91849 0.0
C1676 C 0.44566 0.83779 0.92286 0.0
C1677 C 0.44655 0.87673 0.91375 0.0
C1678 C 0.4051 0.78972 0.92182 0.0
C1679 C 0.36518 0.7797 0.91148 0.0
C1680 C 0.36835 0.81746 0.90133 0.0
C1681 C 0.4079 0.86541 0.90265 0.0
C1682 C 0.22786 0.69176 0.91506 0.0
C1683 C 0.22588 0.6459 0.91728 0.0
C1684 C 0.27306 0.73462 0.91292 0.0
C1685 C 0.31755 0.73272 0.91274 0.0
C1686 C 0.3157 0.68662 0.91458 0.0
C1687 C 0.27001 0.64334 0.91676 0.0
H1688 H 0.69443 0.23583 0.08465 0.0
H1689 H 0.53516 0.17385 0.08396 0.0
H1690 H 0.70472 0.31897 0.07974 0.0
H1691 H 0.54507 0.2555 0.07964 0.0
H1692 H 0.67927 0.45483 0.09611 0.0
H1693 H 0.68774 0.38037 0.09503 0.0
H1694 H 0.57247 0.31804 0.05884 0.0
H1695 H 0.55984 0.38825 0.06108 0.0
C1696 C 0.66182 0.24004 0.08331 0.0
C1697 C 0.61401 0.19878 0.08477 0.0
C1698 C 0.66767 0.28738 0.08061 0.0
C1699 C 0.62572 0.2936 0.07913 0.0
C1700 C 0.57817 0.25192 0.08036 0.0
C1701 C 0.57241 0.20515 0.08305 0.0
C1702 C 0.65566 0.42527 0.08793 0.0
C1703 C 0.618 0.42767 0.07902 0.0
C1704 C 0.66125 0.38302 0.0871 0.0
C1705 C 0.62989 0.34302 0.07713 0.0
C1706 C 0.59637 0.34788 0.06693 0.0
C1707 C 0.58977 0.38903 0.06807 0.0
H1708 H 0.51164 0.69678 0.24935 0.0
H1709 H 0.41189 0.53844 0.2503 0.0
H1710 H 0.44192 0.70986 0.24149 0.0
H1711 H 0.34342 0.55123 0.24302 0.0
H1712 H 0.23326 0.56397 0.22 0.0
H1713 H 0.31666 0.57941 0.21921 0.0
H1714 H 0.35996 0.69603 0.25456 0.0
H1715 H 0.27653 0.68549 0.25399 0.0
C1716 C 0.47497 0.66498 0.24783 0.0
C1717 C 0.46683 0.61663 0.25056 0.0
C1718 C 0.43532 0.67245 0.2434 0.0
C1719 C 0.38756 0.63154 0.24138 0.0
C1720 C 0.38 0.58347 0.24408 0.0
C1721 C 0.41909 0.57612 0.24852 0.0
C1722 C 0.26004 0.59491 0.22707 0.0
C1723 C 0.24633 0.62191 0.23768 0.0
C1724 C 0.30841 0.60325 0.2267 0.0
C1725 C 0.34401 0.63718 0.23738 0.0
C1726 C 0.33276 0.66879 0.24643 0.0
C1727 C 0.2844 0.66174 0.24637 0.0
loop_
_geom_bond_atom_site_label_1
_geom_bond_atom_site_label_2
_geom_bond_distance
_geom_bond_site_symmetry_2
_ccdc_geom_bond_type
Eu0 N31 2.657 . S
Eu0 N38 2.609 1_545 S
Eu0 O44 2.558 . S
Eu0 O45 2.612 . S
Eu0 O47 2.339 . S
Eu0 O48 2.563 . S
Eu0 O49 2.419 . S
Eu0 O51 2.380 1_545 S
Eu0 O52 2.432 1_545 S
Eu0 C64 2.848 . S
C1 C4 1.429 . S
C1 C5 1.411 . S
C1 N8 1.377 . S
C2 C4 1.420 . S
C2 C6 1.423 . S
C2 C14 1.392 . S
C3 C5 1.420 . S
C3 C6 1.351 . S
C3 H26 0.931 . S
C4 C1 1.429 . S
C4 C2 1.420 . S
C4 N12 1.362 1_545 S
C5 C1 1.411 . S
C5 C3 1.420 . S
C5 C10 1.395 . S
C6 C2 1.423 . S
C6 C3 1.351 . S
C6 H18 0.930 . S
C7 C9 1.400 . S
C7 C10 1.386 . S
C7 H19 0.930 . S
N8 C1 1.377 . S
N8 C9 1.321 . S
N8 Eu11 2.609 1_545 S
C9 C7 1.400 . S
C9 N8 1.321 . S
C9 H16 0.930 . S
C10 C5 1.395 . S
C10 C7 1.386 . S
C10 H29 0.930 . S
Eu11 N8 2.609 1_565 S
Eu11 N12 2.657 . S
Eu11 O45 2.380 1_565 S
Eu11 O46 2.432 1_565 S
Eu11 O50 2.558 . S
Eu11 O51 2.612 . S
Eu11 O53 2.339 . S
Eu11 O54 2.563 . S
Eu11 O55 2.419 . S
Eu11 C75 2.848 . S
N12 C4 1.362 1_565 S
N12 Eu11 2.657 . S
N12 C13 1.334 . S
C13 N12 1.334 . S
C13 C15 1.413 . S
C13 H20 0.929 . S
C14 C2 1.392 . S
C14 C15 1.367 1_545 S
C14 H22 0.930 . S
C15 C13 1.413 . S
C15 C14 1.367 1_565 S
C15 H17 0.930 . S
H16 C9 0.930 . S
H17 C15 0.930 . S
H18 C6 0.930 . S
H19 C7 0.930 . S
H20 C13 0.929 . S
H21 C35 0.930 . S
H22 C14 0.930 . S
H23 C41 0.930 . S
H24 C32 0.929 . S
H25 C39 0.930 . S
H26 C3 0.931 . S
H27 C33 0.930 . S
H28 C66 0.930 . S
H29 C10 0.930 . S
H30 C65 0.931 . S
N31 Eu0 2.657 . S
N31 C32 1.334 . S
N31 C36 1.362 1_545 S
C32 H24 0.929 . S
C32 N31 1.334 . S
C32 C35 1.413 . S
C33 H27 0.930 . S
C33 C34 1.392 . S
C33 C35 1.367 1_565 S
C34 C33 1.392 . S
C34 C36 1.420 . S
C34 C66 1.423 . S
C35 H21 0.930 . S
C35 C32 1.413 . S
C35 C33 1.367 1_545 S
C36 N31 1.362 1_565 S
C36 C34 1.420 . S
C36 C40 1.429 . S
H37 C42 0.930 . S
N38 Eu0 2.609 1_565 S
N38 C40 1.377 . S
N38 C41 1.321 . S
C39 H25 0.930 . S
C39 C41 1.400 . S
C39 C42 1.386 . S
C40 C36 1.429 . S
C40 N38 1.377 . S
C40 C43 1.411 . S
C41 H23 0.930 . S
C41 N38 1.321 . S
C41 C39 1.400 . S
C42 H37 0.930 . S
C42 C39 1.386 . S
C42 C43 1.395 . S
C43 C40 1.411 . S
C43 C42 1.395 . S
C43 C65 1.420 . S
O44 Eu0 2.558 . S
O44 C64 1.257 . S
O45 Eu0 2.612 . S
O45 Eu11 2.380 1_545 S
O45 C56 1.276 . S
O46 Eu11 2.432 1_545 S
O46 C63 1.264 . S
O47 Eu0 2.339 . S
O47 C63 1.254 . S
O48 Eu0 2.563 . S
O48 C56 1.235 . S
O49 Eu0 2.419 . S
O49 C64 1.249 . S
O50 Eu11 2.558 . S
O50 C75 1.257 . S
O51 Eu0 2.380 1_565 S
O51 Eu11 2.612 . S
O51 C67 1.276 . S
O52 Eu0 2.432 1_565 S
O52 C74 1.264 . S
O53 Eu11 2.339 . S
O53 C74 1.254 . S
O54 Eu11 2.563 . S
O54 C67 1.235 . S
O55 Eu11 2.419 . S
O55 C75 1.249 . S
C56 O45 1.276 . S
C56 O48 1.235 . S
C57 C59 1.393 . S
C57 C61 1.395 . S
C57 C64 1.492 . S
C58 C59 1.392 . S
C58 C60 1.386 . S
C59 C57 1.393 . S
C59 C58 1.392 . S
C59 H76 0.930 . S
C60 C58 1.386 . S
C60 C62 1.395 . S
C60 H77 0.930 . S
C61 C57 1.395 . S
C61 C62 1.379 . S
C61 H78 0.930 . S
C62 C60 1.395 . S
C62 C61 1.379 . S
C62 H79 0.930 . S
C63 O46 1.264 . S
C63 O47 1.254 . S
C64 Eu0 2.848 . S
C64 O44 1.257 . S
C64 O49 1.249 . S
C64 C57 1.492 . S
C65 H30 0.931 . S
C65 C43 1.420 . S
C65 C66 1.351 . S
C66 H28 0.930 . S
C66 C34 1.423 . S
C66 C65 1.351 . S
C67 O51 1.276 . S
C67 O54 1.235 . S
C68 C69 1.393 . S
C68 C72 1.395 . S
C68 C75 1.492 . S
C69 C68 1.393 . S
C69 C70 1.392 . S
C69 H80 0.930 . S
C70 C69 1.392 . S
C70 C71 1.386 . S
C71 C70 1.386 . S
C71 C73 1.395 . S
C71 H81 0.930 . S
C72 C68 1.395 . S
C72 C73 1.379 . S
C72 H82 0.930 . S
C73 C71 1.395 . S
C73 C72 1.379 . S
C73 H83 0.930 . S
C74 O52 1.264 . S
C74 O53 1.254 . S
C75 Eu11 2.848 . S
C75 O50 1.257 . S
C75 O55 1.249 . S
C75 C68 1.492 . S
H76 C59 0.930 . S
H77 C60 0.930 . S
H78 C61 0.930 . S
H79 C62 0.930 . S
H80 C69 0.930 . S
H81 C71 0.930 . S
H82 C72 0.930 . S
H83 C73 0.930 . S
Eu84 N115 2.657 . S
Eu84 N122 2.609 . S
Eu84 O128 2.558 . S
Eu84 O129 2.612 . S
Eu84 O131 2.339 . S
Eu84 O132 2.563 . S
Eu84 O133 2.419 . S
Eu84 O135 2.380 . S
Eu84 O136 2.432 . S
Eu84 C148 2.848 . S
C85 C88 1.429 . S
C85 C89 1.411 . S
C85 N92 1.377 . S
C86 C88 1.420 . S
C86 C90 1.423 . S
C86 C98 1.392 . S
C87 C89 1.420 . S
C87 C90 1.351 . S
C87 H110 0.931 . S
C88 C85 1.429 . S
C88 C86 1.420 . S
C88 N96 1.362 . S
C89 C85 1.411 . S
C89 C87 1.420 . S
C89 C94 1.395 . S
C90 C86 1.423 . S
C90 C87 1.351 . S
C90 H102 0.930 . S
C91 C93 1.400 . S
C91 C94 1.386 . S
C91 H103 0.930 . S
N92 C85 1.377 . S
N92 C93 1.321 . S
N92 Eu95 2.609 . S
C93 C91 1.400 . S
C93 N92 1.321 . S
C93 H100 0.930 . S
C94 C89 1.395 . S
C94 C91 1.386 . S
C94 H113 0.930 . S
Eu95 N92 2.609 . S
Eu95 N96 2.657 . S
Eu95 O129 2.380 . S
Eu95 O130 2.432 . S
Eu95 O134 2.558 . S
Eu95 O135 2.612 . S
Eu95 O137 2.339 . S
Eu95 O138 2.563 . S
Eu95 O139 2.419 . S
Eu95 C159 2.848 . S
N96 C88 1.362 . S
N96 Eu95 2.657 . S
N96 C97 1.334 . S
C97 N96 1.334 . S
C97 C99 1.413 . S
C97 H104 0.929 . S
C98 C86 1.392 . S
C98 C99 1.367 . S
C98 H106 0.930 . S
C99 C97 1.413 . S
C99 C98 1.367 . S
C99 H101 0.930 . S
H100 C93 0.930 . S
H101 C99 0.930 . S
H102 C90 0.930 . S
H103 C91 0.930 . S
H104 C97 0.929 . S
H105 C119 0.930 . S
H106 C98 0.930 . S
H107 C125 0.930 . S
H108 C116 0.929 . S
H109 C123 0.930 . S
H110 C87 0.931 . S
H111 C117 0.930 . S
H112 C150 0.930 . S
H113 C94 0.930 . S
H114 C149 0.931 . S
N115 Eu84 2.657 . S
N115 C116 1.334 . S
N115 C120 1.362 . S
C116 H108 0.929 . S
C116 N115 1.334 . S
C116 C119 1.413 . S
C117 H111 0.930 . S
C117 C118 1.392 . S
C117 C119 1.367 . S
C118 C117 1.392 . S
C118 C120 1.420 . S
C118 C150 1.423 . S
C119 H105 0.930 . S
C119 C116 1.413 . S
C119 C117 1.367 . S
C120 N115 1.362 . S
C120 C118 1.420 . S
C120 C124 1.429 . S
H121 C126 0.930 . S
N122 Eu84 2.609 . S
N122 C124 1.377 . S
N122 C125 1.321 . S
C123 H109 0.930 . S
C123 C125 1.400 . S
C123 C126 1.386 . S
C124 C120 1.429 . S
C124 N122 1.377 . S
C124 C127 1.411 . S
C125 H107 0.930 . S
C125 N122 1.321 . S
C125 C123 1.400 . S
C126 H121 0.930 . S
C126 C123 1.386 . S
C126 C127 1.395 . S
C127 C124 1.411 . S
C127 C126 1.395 . S
C127 C149 1.420 . S
O128 Eu84 2.558 . S
O128 C148 1.257 . S
O129 Eu84 2.612 . S
O129 Eu95 2.380 . S
O129 C140 1.276 . S
O130 Eu95 2.432 . S
O130 C147 1.264 . S
O131 Eu84 2.339 . S
O131 C147 1.254 . S
O132 Eu84 2.563 . S
O132 C140 1.235 . S
O133 Eu84 2.419 . S
O133 C148 1.249 . S
O134 Eu95 2.558 . S
O134 C159 1.257 . S
O135 Eu84 2.380 . S
O135 Eu95 2.612 . S
O135 C151 1.276 . S
O136 Eu84 2.432 . S
O136 C158 1.264 . S
O137 Eu95 2.339 . S
O137 C158 1.254 . S
O138 Eu95 2.563 . S
O138 C151 1.235 . S
O139 Eu95 2.419 . S
O139 C159 1.249 . S
C140 O129 1.276 . S
C140 O132 1.235 . S
C141 C143 1.393 . S
C141 C145 1.395 . S
C141 C148 1.492 . S
C142 C143 1.392 . S
C142 C144 1.386 . S
C143 C141 1.393 . S
C143 C142 1.392 . S
C143 H160 0.930 . S
C144 C142 1.386 . S
C144 C146 1.395 . S
C144 H161 0.930 . S
C145 C141 1.395 . S
C145 C146 1.379 . S
C145 H162 0.930 . S
C146 C144 1.395 . S
C146 C145 1.379 . S
C146 H163 0.930 . S
C147 O130 1.264 . S
C147 O131 1.254 . S
C148 Eu84 2.848 . S
C148 O128 1.257 . S
C148 O133 1.249 . S
C148 C141 1.492 . S
C149 H114 0.931 . S
C149 C127 1.420 . S
C149 C150 1.351 . S
C150 H112 0.930 . S
C150 C118 1.423 . S
C150 C149 1.351 . S
C151 O135 1.276 . S
C151 O138 1.235 . S
C152 C153 1.393 . S
C152 C156 1.395 . S
C152 C159 1.492 . S
C153 C152 1.393 . S
C153 C154 1.392 . S
C153 H164 0.930 . S
C154 C153 1.392 . S
C154 C155 1.386 . S
C155 C154 1.386 . S
C155 C157 1.395 . S
C155 H165 0.930 . S
C156 C152 1.395 . S
C156 C157 1.379 . S
C156 H166 0.930 . S
C157 C155 1.395 . S
C157 C156 1.379 . S
C157 H167 0.930 . S
C158 O136 1.264 . S
C158 O137 1.254 . S
C159 Eu95 2.848 . S
C159 O134 1.257 . S
C159 O139 1.249 . S
C159 C152 1.492 . S
H160 C143 0.930 . S
H161 C144 0.930 . S
H162 C145 0.930 . S
H163 C146 0.930 . S
H164 C153 0.930 . S
H165 C155 0.930 . S
H166 C156 0.930 . S
H167 C157 0.930 . S
Eu168 N199 2.657 . S
Eu168 N206 2.609 1_655 S
Eu168 O212 2.558 . S
Eu168 O213 2.612 . S
Eu168 O215 2.339 . S
Eu168 O216 2.563 . S
Eu168 O217 2.419 . S
Eu168 O219 2.380 1_655 S
Eu168 O220 2.432 1_655 S
Eu168 C232 2.848 . S
C169 C172 1.429 . S
C169 C173 1.411 . S
C169 N176 1.377 . S
C170 C172 1.420 . S
C170 C174 1.423 . S
C170 C182 1.392 1_655 S
C171 C173 1.420 . S
C171 C174 1.351 . S
C171 H194 0.931 . S
C172 C169 1.429 . S
C172 C170 1.420 . S
C172 N180 1.362 1_655 S
C173 C169 1.411 . S
C173 C171 1.420 . S
C173 C178 1.395 . S
C174 C170 1.423 . S
C174 C171 1.351 . S
C174 H186 0.930 . S
C175 C177 1.400 . S
C175 C178 1.386 . S
C175 H187 0.930 . S
N176 C169 1.377 . S
N176 C177 1.321 . S
N176 Eu179 2.609 1_655 S
C177 C175 1.400 . S
C177 N176 1.321 . S
C177 H184 0.930 . S
C178 C173 1.395 . S
C178 C175 1.386 . S
C178 H197 0.930 . S
Eu179 N176 2.609 1_455 S
Eu179 N180 2.657 . S
Eu179 O213 2.380 1_455 S
Eu179 O214 2.432 1_455 S
Eu179 O218 2.558 . S
Eu179 O219 2.612 . S
Eu179 O221 2.339 . S
Eu179 O222 2.563 . S
Eu179 O223 2.419 . S
Eu179 C243 2.848 . S
N180 C172 1.362 1_455 S
N180 Eu179 2.657 . S
N180 C181 1.334 . S
C181 N180 1.334 . S
C181 C183 1.413 . S
C181 H188 0.929 . S
C182 C170 1.392 1_455 S
C182 C183 1.367 . S
C182 H190 0.934 1_455 S
C183 C181 1.413 . S
C183 C182 1.367 . S
C183 H185 0.930 . S
H184 C177 0.930 . S
H185 C183 0.930 . S
H186 C174 0.930 . S
H187 C175 0.930 . S
H188 C181 0.929 . S
H189 C203 0.930 . S
H190 C182 0.934 1_655 S
H191 C209 0.930 . S
H192 C200 0.929 . S
H193 C207 0.930 . S
H194 C171 0.931 . S
H195 C201 0.932 1_455 S
H196 C234 0.930 . S
H197 C178 0.930 . S
H198 C233 0.931 . S
N199 Eu168 2.657 . S
N199 C200 1.334 . S
N199 C204 1.362 1_655 S
C200 H192 0.929 . S
C200 N199 1.334 . S
C200 C203 1.413 . S
C201 H195 0.932 1_655 S
C201 C202 1.392 1_655 S
C201 C203 1.367 . S
C202 C201 1.392 1_455 S
C202 C204 1.420 . S
C202 C234 1.423 . S
C203 H189 0.930 . S
C203 C200 1.413 . S
C203 C201 1.367 . S
C204 N199 1.362 1_455 S
C204 C202 1.420 . S
C204 C208 1.429 . S
H205 C210 0.930 . S
N206 Eu168 2.609 1_455 S
N206 C208 1.377 . S
N206 C209 1.321 . S
C207 H193 0.930 . S
C207 C209 1.400 . S
C207 C210 1.386 . S
C208 C204 1.429 . S
C208 N206 1.377 . S
C208 C211 1.411 . S
C209 H191 0.930 . S
C209 N206 1.321 . S
C209 C207 1.400 . S
C210 H205 0.930 . S
C210 C207 1.386 . S
C210 C211 1.395 . S
C211 C208 1.411 . S
C211 C210 1.395 . S
C211 C233 1.420 . S
O212 Eu168 2.558 . S
O212 C232 1.257 . S
O213 Eu168 2.612 . S
O213 Eu179 2.380 1_655 S
O213 C224 1.276 . S
O214 Eu179 2.432 1_655 S
O214 C231 1.264 . S
O215 Eu168 2.339 . S
O215 C231 1.254 . S
O216 Eu168 2.563 . S
O216 C224 1.235 . S
O217 Eu168 2.419 . S
O217 C232 1.249 . S
O218 Eu179 2.558 . S
O218 C243 1.257 . S
O219 Eu168 2.380 1_455 S
O219 Eu179 2.612 . S
O219 C235 1.276 . S
O220 Eu168 2.432 1_455 S
O220 C242 1.264 . S
O221 Eu179 2.339 . S
O221 C242 1.254 . S
O222 Eu179 2.563 . S
O222 C235 1.235 . S
O223 Eu179 2.419 . S
O223 C243 1.249 . S
C224 O213 1.276 . S
C224 O216 1.235 . S
C225 C227 1.393 . S
C225 C229 1.395 . S
C225 C232 1.492 . S
C226 C227 1.392 . S
C226 C228 1.386 . S
C227 C225 1.393 . S
C227 C226 1.392 . S
C227 H244 0.930 . S
C228 C226 1.386 . S
C228 C230 1.395 . S
C228 H245 0.930 . S
C229 C225 1.395 . S
C229 C230 1.379 . S
C229 H246 0.930 . S
C230 C228 1.395 . S
C230 C229 1.379 . S
C230 H247 0.930 . S
C231 O214 1.264 . S
C231 O215 1.254 . S
C232 Eu168 2.848 . S
C232 O212 1.257 . S
C232 O217 1.249 . S
C232 C225 1.492 . S
C233 H198 0.931 . S
C233 C211 1.420 . S
C233 C234 1.351 . S
C234 H196 0.930 . S
C234 C202 1.423 . S
C234 C233 1.351 . S
C235 O219 1.276 . S
C235 O222 1.235 . S
C236 C237 1.393 . S
C236 C240 1.395 . S
C236 C243 1.492 . S
C237 C236 1.393 . S
C237 C238 1.392 . S
C237 H248 0.930 . S
C238 C237 1.392 . S
C238 C239 1.386 . S
C239 C238 1.386 . S
C239 C241 1.395 . S
C239 H249 0.930 . S
C240 C236 1.395 . S
C240 C241 1.379 . S
C240 H250 0.930 . S
C241 C239 1.395 . S
C241 C240 1.379 . S
C241 H251 0.930 . S
C242 O220 1.264 . S
C242 O221 1.254 . S
C243 Eu179 2.848 . S
C243 O218 1.257 . S
C243 O223 1.249 . S
C243 C236 1.492 . S
H244 C227 0.930 . S
H245 C228 0.930 . S
H246 C229 0.930 . S
H247 C230 0.930 . S
H248 C237 0.930 . S
H249 C239 0.930 . S
H250 C240 0.930 . S
H251 C241 0.930 . S
Eu252 N283 2.657 . S
Eu252 N290 2.609 1_565 S
Eu252 O296 2.558 . S
Eu252 O297 2.612 . S
Eu252 O299 2.339 . S
Eu252 O300 2.563 . S
Eu252 O301 2.419 . S
Eu252 O303 2.380 1_565 S
Eu252 O304 2.432 1_565 S
Eu252 C316 2.848 . S
C253 C256 1.429 . S
C253 C257 1.411 . S
C253 N260 1.377 . S
C254 C256 1.420 . S
C254 C258 1.423 . S
C254 C266 1.392 . S
C255 C257 1.420 . S
C255 C258 1.351 . S
C255 H278 0.931 . S
C256 C253 1.429 . S
C256 C254 1.420 . S
C256 N264 1.362 1_565 S
C257 C253 1.411 . S
C257 C255 1.420 . S
C257 C262 1.395 . S
C258 C254 1.423 . S
C258 C255 1.351 . S
C258 H270 0.930 . S
C259 C261 1.400 . S
C259 C262 1.386 . S
C259 H271 0.930 . S
N260 C253 1.377 . S
N260 C261 1.321 . S
N260 Eu263 2.609 1_565 S
C261 C259 1.400 . S
C261 N260 1.321 . S
C261 H268 0.930 . S
C262 C257 1.395 . S
C262 C259 1.386 . S
C262 H281 0.930 . S
Eu263 N260 2.609 1_545 S
Eu263 N264 2.657 . S
Eu263 O297 2.380 1_545 S
Eu263 O298 2.432 1_545 S
Eu263 O302 2.558 . S
Eu263 O303 2.612 . S
Eu263 O305 2.339 . S
Eu263 O306 2.563 . S
Eu263 O307 2.419 . S
Eu263 C327 2.848 . S
N264 C256 1.362 1_545 S
N264 Eu263 2.657 . S
N264 C265 1.334 . S
C265 N264 1.334 . S
C265 C267 1.413 . S
C265 H272 0.929 . S
C266 C254 1.392 . S
C266 C267 1.367 1_565 S
C266 H274 0.930 . S
C267 C265 1.413 . S
C267 C266 1.367 1_545 S
C267 H269 0.930 . S
H268 C261 0.930 . S
H269 C267 0.930 . S
H270 C258 0.930 . S
H271 C259 0.930 . S
H272 C265 0.929 . S
H273 C287 0.930 . S
H274 C266 0.930 . S
H275 C293 0.930 . S
H276 C284 0.929 . S
H277 C291 0.930 . S
H278 C255 0.931 . S
H279 C285 0.930 . S
H280 C318 0.930 . S
H281 C262 0.930 . S
H282 C317 0.931 . S
N283 Eu252 2.657 . S
N283 C284 1.334 . S
N283 C288 1.362 1_565 S
C284 H276 0.929 . S
C284 N283 1.334 . S
C284 C287 1.413 . S
C285 H279 0.930 . S
C285 C286 1.392 . S
C285 C287 1.367 1_545 S
C286 C285 1.392 . S
C286 C288 1.420 . S
C286 C318 1.423 . S
C287 H273 0.930 . S
C287 C284 1.413 . S
C287 C285 1.367 1_565 S
C288 N283 1.362 1_545 S
C288 C286 1.420 . S
C288 C292 1.429 . S
H289 C294 0.930 . S
N290 Eu252 2.609 1_545 S
N290 C292 1.377 . S
N290 C293 1.321 . S
C291 H277 0.930 . S
C291 C293 1.400 . S
C291 C294 1.386 . S
C292 C288 1.429 . S
C292 N290 1.377 . S
C292 C295 1.411 . S
C293 H275 0.930 . S
C293 N290 1.321 . S
C293 C291 1.400 . S
C294 H289 0.930 . S
C294 C291 1.386 . S
C294 C295 1.395 . S
C295 C292 1.411 . S
C295 C294 1.395 . S
C295 C317 1.420 . S
O296 Eu252 2.558 . S
O296 C316 1.257 . S
O297 Eu252 2.612 . S
O297 Eu263 2.380 1_565 S
O297 C308 1.276 . S
O298 Eu263 2.432 1_565 S
O298 C315 1.264 . S
O299 Eu252 2.339 . S
O299 C315 1.254 . S
O300 Eu252 2.563 . S
O300 C308 1.235 . S
O301 Eu252 2.419 . S
O301 C316 1.249 . S
O302 Eu263 2.558 . S
O302 C327 1.257 . S
O303 Eu252 2.380 1_545 S
O303 Eu263 2.612 . S
O303 C319 1.276 . S
O304 Eu252 2.432 1_545 S
O304 C326 1.264 . S
O305 Eu263 2.339 . S
O305 C326 1.254 . S
O306 Eu263 2.563 . S
O306 C319 1.235 . S
O307 Eu263 2.419 . S
O307 C327 1.249 . S
C308 O297 1.276 . S
C308 O300 1.235 . S
C309 C311 1.393 . S
C309 C313 1.395 . S
C309 C316 1.492 . S
C310 C311 1.392 . S
C310 C312 1.386 . S
C311 C309 1.393 . S
C311 C310 1.392 . S
C311 H328 0.930 . S
C312 C310 1.386 . S
C312 C314 1.395 . S
C312 H329 0.930 . S
C313 C309 1.395 . S
C313 C314 1.379 . S
C313 H330 0.930 . S
C314 C312 1.395 . S
C314 C313 1.379 . S
C314 H331 0.930 . S
C315 O298 1.264 . S
C315 O299 1.254 . S
C316 Eu252 2.848 . S
C316 O296 1.257 . S
C316 O301 1.249 . S
C316 C309 1.492 . S
C317 H282 0.931 . S
C317 C295 1.420 . S
C317 C318 1.351 . S
C318 H280 0.930 . S
C318 C286 1.423 . S
C318 C317 1.351 . S
C319 O303 1.276 . S
C319 O306 1.235 . S
C320 C321 1.393 . S
C320 C324 1.395 . S
C320 C327 1.492 . S
C321 C320 1.393 . S
C321 C322 1.392 . S
C321 H332 0.930 . S
C322 C321 1.392 . S
C322 C323 1.386 . S
C323 C322 1.386 . S
C323 C325 1.395 . S
C323 H333 0.930 . S
C324 C320 1.395 . S
C324 C325 1.379 . S
C324 H334 0.930 . S
C325 C323 1.395 . S
C325 C324 1.379 . S
C325 H335 0.930 . S
C326 O304 1.264 . S
C326 O305 1.254 . S
C327 Eu263 2.848 . S
C327 O302 1.257 . S
C327 O307 1.249 . S
C327 C320 1.492 . S
H328 C311 0.930 . S
H329 C312 0.930 . S
H330 C313 0.930 . S
H331 C314 0.930 . S
H332 C321 0.930 . S
H333 C323 0.930 . S
H334 C324 0.930 . S
H335 C325 0.930 . S
Eu336 N367 2.657 . S
Eu336 N374 2.609 . S
Eu336 O380 2.558 . S
Eu336 O381 2.612 . S
Eu336 O383 2.339 . S
Eu336 O384 2.563 . S
Eu336 O385 2.419 . S
Eu336 O387 2.380 . S
Eu336 O388 2.432 . S
Eu336 C400 2.848 . S
C337 C340 1.429 . S
C337 C341 1.411 . S
C337 N344 1.377 . S
C338 C340 1.420 . S
C338 C342 1.423 . S
C338 C350 1.392 . S
C339 C341 1.420 . S
C339 C342 1.351 . S
C339 H362 0.931 . S
C340 C337 1.429 . S
C340 C338 1.420 . S
C340 N348 1.362 . S
C341 C337 1.411 . S
C341 C339 1.420 . S
C341 C346 1.395 1_554 S
C342 C338 1.423 . S
C342 C339 1.351 . S
C342 H354 0.930 . S
C343 C345 1.400 . S
C343 C346 1.386 . S
C343 H355 0.930 . S
N344 C337 1.377 . S
N344 C345 1.321 1_554 S
N344 Eu347 2.609 . S
C345 C343 1.400 . S
C345 N344 1.321 1_556 S
C345 H352 0.930 . S
C346 C341 1.395 1_556 S
C346 C343 1.386 . S
C346 H365 0.930 . S
Eu347 N344 2.609 . S
Eu347 N348 2.657 . S
Eu347 O381 2.380 . S
Eu347 O382 2.432 . S
Eu347 O386 2.558 1_554 S
Eu347 O387 2.612 . S
Eu347 O389 2.339 . S
Eu347 O390 2.563 . S
Eu347 O391 2.419 . S
Eu347 C411 2.848 1_554 S
N348 C340 1.362 . S
N348 Eu347 2.657 . S
N348 C349 1.334 . S
C349 N348 1.334 . S
C349 C351 1.413 . S
C349 H356 0.929 . S
C350 C338 1.392 . S
C350 C351 1.367 . S
C350 H358 0.930 . S
C351 C349 1.413 . S
C351 C350 1.367 . S
C351 H353 0.930 . S
H352 C345 0.930 . S
H353 C351 0.930 . S
H354 C342 0.930 . S
H355 C343 0.930 . S
H356 C349 0.929 . S
H357 C371 0.930 1_556 S
H358 C350 0.930 . S
H359 C377 0.930 . S
H360 C368 0.929 . S
H361 C375 0.930 . S
H362 C339 0.931 . S
H363 C369 0.930 . S
H364 C402 0.930 . S
H365 C346 0.930 . S
H366 C401 0.931 . S
N367 Eu336 2.657 . S
N367 C368 1.334 . S
N367 C372 1.362 . S
C368 H360 0.929 . S
C368 N367 1.334 . S
C368 C371 1.413 . S
C369 H363 0.930 . S
C369 C370 1.392 . S
C369 C371 1.367 . S
C370 C369 1.392 . S
C370 C372 1.420 . S
C370 C402 1.423 . S
C371 H357 0.930 1_554 S
C371 C368 1.413 . S
C371 C369 1.367 . S
C372 N367 1.362 . S
C372 C370 1.420 . S
C372 C376 1.429 . S
H373 C378 0.930 . S
N374 Eu336 2.609 . S
N374 C376 1.377 . S
N374 C377 1.321 . S
C375 H361 0.930 . S
C375 C377 1.400 . S
C375 C378 1.386 . S
C376 C372 1.429 . S
C376 N374 1.377 . S
C376 C379 1.411 . S
C377 H359 0.930 . S
C377 N374 1.321 . S
C377 C375 1.400 . S
C378 H373 0.930 . S
C378 C375 1.386 . S
C378 C379 1.395 . S
C379 C376 1.411 . S
C379 C378 1.395 . S
C379 C401 1.420 . S
O380 Eu336 2.558 . S
O380 C400 1.257 . S
O381 Eu336 2.612 . S
O381 Eu347 2.380 . S
O381 C392 1.276 . S
O382 Eu347 2.432 . S
O382 C399 1.264 . S
O383 Eu336 2.339 . S
O383 C399 1.254 . S
O384 Eu336 2.563 . S
O384 C392 1.235 . S
O385 Eu336 2.419 . S
O385 C400 1.249 . S
O386 Eu347 2.558 1_556 S
O386 C411 1.257 . S
O387 Eu336 2.380 . S
O387 Eu347 2.612 . S
O387 C403 1.276 . S
O388 Eu336 2.432 . S
O388 C410 1.264 . S
O389 Eu347 2.339 . S
O389 C410 1.254 . S
O390 Eu347 2.563 . S
O390 C403 1.235 . S
O391 Eu347 2.419 . S
O391 C411 1.249 1_554 S
C392 O381 1.276 . S
C392 O384 1.235 . S
C393 C395 1.393 . S
C393 C397 1.395 . S
C393 C400 1.492 . S
C394 C395 1.392 . S
C394 C396 1.386 . S
C395 C393 1.393 . S
C395 C394 1.392 . S
C395 H412 0.930 . S
C396 C394 1.386 . S
C396 C398 1.395 . S
C396 H413 0.930 . S
C397 C393 1.395 . S
C397 C398 1.379 . S
C397 H414 0.930 . S
C398 C396 1.395 . S
C398 C397 1.379 . S
C398 H415 0.930 . S
C399 O382 1.264 . S
C399 O383 1.254 . S
C400 Eu336 2.848 . S
C400 O380 1.257 . S
C400 O385 1.249 . S
C400 C393 1.492 . S
C401 H366 0.931 . S
C401 C379 1.420 . S
C401 C402 1.351 . S
C402 H364 0.930 . S
C402 C370 1.423 . S
C402 C401 1.351 . S
C403 O387 1.276 . S
C403 O390 1.235 . S
C404 C405 1.393 . S
C404 C408 1.395 . S
C404 C411 1.492 . S
C405 C404 1.393 . S
C405 C406 1.392 . S
C405 H416 0.930 . S
C406 C405 1.392 . S
C406 C407 1.386 . S
C407 C406 1.386 . S
C407 C409 1.395 . S
C407 H417 0.930 . S
C408 C404 1.395 . S
C408 C409 1.379 . S
C408 H418 0.930 . S
C409 C407 1.395 . S
C409 C408 1.379 . S
C409 H419 0.930 . S
C410 O388 1.264 . S
C410 O389 1.254 . S
C411 Eu347 2.848 1_556 S
C411 O386 1.257 . S
C411 O391 1.249 1_556 S
C411 C404 1.492 . S
H412 C395 0.930 . S
H413 C396 0.930 . S
H414 C397 0.930 . S
H415 C398 0.930 . S
H416 C405 0.930 . S
H417 C407 0.930 . S
H418 C408 0.930 . S
H419 C409 0.930 . S
Eu420 N451 2.657 . S
Eu420 N458 2.609 1_455 S
Eu420 O464 2.558 . S
Eu420 O465 2.612 . S
Eu420 O467 2.339 . S
Eu420 O468 2.563 . S
Eu420 O469 2.419 . S
Eu420 O471 2.380 1_455 S
Eu420 O472 2.432 1_455 S
Eu420 C484 2.848 . S
C421 C424 1.429 . S
C421 C425 1.411 . S
C421 N428 1.377 . S
C422 C424 1.420 . S
C422 C426 1.423 . S
C422 C434 1.392 1_455 S
C423 C425 1.420 . S
C423 C426 1.351 . S
C423 H446 0.931 . S
C424 C421 1.429 . S
C424 C422 1.420 . S
C424 N432 1.362 1_455 S
C425 C421 1.411 . S
C425 C423 1.420 . S
C425 C430 1.395 . S
C426 C422 1.423 . S
C426 C423 1.351 . S
C426 H438 0.930 . S
C427 C429 1.400 . S
C427 C430 1.386 . S
C427 H439 0.930 . S
N428 C421 1.377 . S
N428 C429 1.321 . S
N428 Eu431 2.609 1_455 S
C429 C427 1.400 . S
C429 N428 1.321 . S
C429 H436 0.930 . S
C430 C425 1.395 . S
C430 C427 1.386 . S
C430 H449 0.930 . S
Eu431 N428 2.609 1_655 S
Eu431 N432 2.657 . S
Eu431 O465 2.380 1_655 S
Eu431 O466 2.432 1_655 S
Eu431 O470 2.558 . S
Eu431 O471 2.612 . S
Eu431 O473 2.339 . S
Eu431 O474 2.563 . S
Eu431 O475 2.419 . S
Eu431 C495 2.848 . S
N432 C424 1.362 1_655 S
N432 Eu431 2.657 . S
N432 C433 1.334 . S
C433 N432 1.334 . S
C433 C435 1.413 . S
C433 H440 0.929 . S
C434 C422 1.392 1_655 S
C434 C435 1.367 . S
C434 H442 0.935 1_655 S
C435 C433 1.413 . S
C435 C434 1.367 . S
C435 H437 0.930 . S
H436 C429 0.930 . S
H437 C435 0.930 . S
H438 C426 0.930 . S
H439 C427 0.930 . S
H440 C433 0.929 . S
H441 C455 0.930 . S
H442 C434 0.935 1_455 S
H443 C461 0.930 . S
H444 C452 0.929 . S
H445 C459 0.930 . S
H446 C423 0.931 . S
H447 C453 0.932 1_655 S
H448 C486 0.930 . S
H449 C430 0.930 . S
H450 C485 0.931 . S
N451 Eu420 2.657 . S
N451 C452 1.334 . S
N451 C456 1.362 1_455 S
C452 H444 0.929 . S
C452 N451 1.334 . S
C452 C455 1.413 . S
C453 H447 0.932 1_455 S
C453 C454 1.392 1_455 S
C453 C455 1.367 . S
C454 C453 1.392 1_655 S
C454 C456 1.420 . S
C454 C486 1.423 . S
C455 H441 0.930 . S
C455 C452 1.413 . S
C455 C453 1.367 . S
C456 N451 1.362 1_655 S
C456 C454 1.420 . S
C456 C460 1.429 . S
H457 C462 0.930 . S
N458 Eu420 2.609 1_655 S
N458 C460 1.377 . S
N458 C461 1.321 . S
C459 H445 0.930 . S
C459 C461 1.400 . S
C459 C462 1.386 . S
C460 C456 1.429 . S
C460 N458 1.377 . S
C460 C463 1.411 . S
C461 H443 0.930 . S
C461 N458 1.321 . S
C461 C459 1.400 . S
C462 H457 0.930 . S
C462 C459 1.386 . S
C462 C463 1.395 . S
C463 C460 1.411 . S
C463 C462 1.395 . S
C463 C485 1.420 . S
O464 Eu420 2.558 . S
O464 C484 1.257 . S
O465 Eu420 2.612 . S
O465 Eu431 2.380 1_455 S
O465 C476 1.276 . S
O466 Eu431 2.432 1_455 S
O466 C483 1.264 . S
O467 Eu420 2.339 . S
O467 C483 1.254 . S
O468 Eu420 2.563 . S
O468 C476 1.235 . S
O469 Eu420 2.419 . S
O469 C484 1.249 . S
O470 Eu431 2.558 . S
O470 C495 1.257 . S
O471 Eu420 2.380 1_655 S
O471 Eu431 2.612 . S
O471 C487 1.276 . S
O472 Eu420 2.432 1_655 S
O472 C494 1.264 . S
O473 Eu431 2.339 . S
O473 C494 1.254 . S
O474 Eu431 2.563 . S
O474 C487 1.235 . S
O475 Eu431 2.419 . S
O475 C495 1.249 . S
C476 O465 1.276 . S
C476 O468 1.235 . S
C477 C479 1.393 . S
C477 C481 1.395 . S
C477 C484 1.492 . S
C478 C479 1.392 . S
C478 C480 1.386 . S
C479 C477 1.393 . S
C479 C478 1.392 . S
C479 H496 0.930 . S
C480 C478 1.386 . S
C480 C482 1.395 . S
C480 H497 0.930 . S
C481 C477 1.395 . S
C481 C482 1.379 . S
C481 H498 0.930 . S
C482 C480 1.395 . S
C482 C481 1.379 . S
C482 H499 0.930 . S
C483 O466 1.264 . S
C483 O467 1.254 . S
C484 Eu420 2.848 . S
C484 O464 1.257 . S
C484 O469 1.249 . S
C484 C477 1.492 . S
C485 H450 0.931 . S
C485 C463 1.420 . S
C485 C486 1.351 . S
C486 H448 0.930 . S
C486 C454 1.423 . S
C486 C485 1.351 . S
C487 O471 1.276 . S
C487 O474 1.235 . S
C488 C489 1.393 . S
C488 C492 1.395 . S
C488 C495 1.492 . S
C489 C488 1.393 . S
C489 C490 1.392 . S
C489 H500 0.930 . S
C490 C489 1.392 . S
C490 C491 1.386 . S
C491 C490 1.386 . S
C491 C493 1.395 . S
C491 H501 0.930 . S
C492 C488 1.395 . S
C492 C493 1.379 . S
C492 H502 0.930 . S
C493 C491 1.395 . S
C493 C492 1.379 . S
C493 H503 0.930 . S
C494 O472 1.264 . S
C494 O473 1.254 . S
C495 Eu431 2.848 . S
C495 O470 1.257 . S
C495 O475 1.249 . S
C495 C488 1.492 . S
H496 C479 0.930 . S
H497 C480 0.930 . S
H498 C481 0.930 . S
H499 C482 0.930 . S
H500 C489 0.930 . S
H501 C491 0.930 . S
H502 C492 0.930 . S
H503 C493 0.930 . S
Eu504 N535 2.657 . S
Eu504 N542 2.609 1_655 S
Eu504 O548 2.558 . S
Eu504 O549 2.612 . S
Eu504 O551 2.339 . S
Eu504 O552 2.563 . S
Eu504 O553 2.419 . S
Eu504 O555 2.380 1_655 S
Eu504 O556 2.432 1_655 S
Eu504 C568 2.848 . S
C505 C508 1.429 . S
C505 C509 1.411 . S
C505 N512 1.377 . S
C506 C508 1.420 . S
C506 C510 1.423 . S
C506 C518 1.392 . S
C507 C509 1.420 . S
C507 C510 1.351 . S
C507 H530 0.931 . S
C508 C505 1.429 . S
C508 C506 1.420 . S
C508 N516 1.362 1_655 S
C509 C505 1.411 . S
C509 C507 1.420 . S
C509 C514 1.395 . S
C510 C506 1.423 . S
C510 C507 1.351 . S
C510 H522 0.930 . S
C511 C513 1.400 . S
C511 C514 1.386 . S
C511 H523 0.930 . S
N512 C505 1.377 . S
N512 C513 1.321 . S
N512 Eu515 2.609 1_655 S
C513 C511 1.400 . S
C513 N512 1.321 . S
C513 H520 0.930 . S
C514 C509 1.395 . S
C514 C511 1.386 . S
C514 H533 0.930 . S
Eu515 N512 2.609 1_455 S
Eu515 N516 2.657 . S
Eu515 O549 2.380 1_455 S
Eu515 O550 2.432 1_455 S
Eu515 O554 2.558 . S
Eu515 O555 2.612 . S
Eu515 O557 2.339 . S
Eu515 O558 2.563 . S
Eu515 O559 2.419 . S
Eu515 C579 2.848 . S
N516 C508 1.362 1_455 S
N516 Eu515 2.657 . S
N516 C517 1.334 . S
C517 N516 1.334 . S
C517 C519 1.413 . S
C517 H524 0.929 . S
C518 C506 1.392 . S
C518 C519 1.367 1_655 S
C518 H526 0.930 . S
C519 C517 1.413 . S
C519 C518 1.367 1_455 S
C519 H521 0.930 . S
H520 C513 0.930 . S
H521 C519 0.930 . S
H522 C510 0.930 . S
H523 C511 0.930 . S
H524 C517 0.929 . S
H525 C539 0.930 . S
H526 C518 0.930 . S
H527 C545 0.930 . S
H528 C536 0.929 . S
H529 C543 0.930 . S
H530 C507 0.931 . S
H531 C537 0.930 . S
H532 C570 0.930 . S
H533 C514 0.930 . S
H534 C569 0.931 . S
N535 Eu504 2.657 . S
N535 C536 1.334 . S
N535 C540 1.362 1_655 S
C536 H528 0.929 . S
C536 N535 1.334 . S
C536 C539 1.413 . S
C537 H531 0.930 . S
C537 C538 1.392 . S
C537 C539 1.367 1_455 S
C538 C537 1.392 . S
C538 C540 1.420 . S
C538 C570 1.423 . S
C539 H525 0.930 . S
C539 C536 1.413 . S
C539 C537 1.367 1_655 S
C540 N535 1.362 1_455 S
C540 C538 1.420 . S
C540 C544 1.429 . S
H541 C546 0.930 . S
N542 Eu504 2.609 1_455 S
N542 C544 1.377 . S
N542 C545 1.321 . S
C543 H529 0.930 . S
C543 C545 1.400 . S
C543 C546 1.386 . S
C544 C540 1.429 . S
C544 N542 1.377 . S
C544 C547 1.411 . S
C545 H527 0.930 . S
C545 N542 1.321 . S
C545 C543 1.400 . S
C546 H541 0.930 . S
C546 C543 1.386 . S
C546 C547 1.395 . S
C547 C544 1.411 . S
C547 C546 1.395 . S
C547 C569 1.420 . S
O548 Eu504 2.558 . S
O548 C568 1.257 . S
O549 Eu504 2.612 . S
O549 Eu515 2.380 1_655 S
O549 C560 1.276 . S
O550 Eu515 2.432 1_655 S
O550 C567 1.264 . S
O551 Eu504 2.339 . S
O551 C567 1.254 . S
O552 Eu504 2.563 . S
O552 C560 1.235 . S
O553 Eu504 2.419 . S
O553 C568 1.249 . S
O554 Eu515 2.558 . S
O554 C579 1.257 . S
O555 Eu504 2.380 1_455 S
O555 Eu515 2.612 . S
O555 C571 1.276 . S
O556 Eu504 2.432 1_455 S
O556 C578 1.264 . S
O557 Eu515 2.339 . S
O557 C578 1.254 . S
O558 Eu515 2.563 . S
O558 C571 1.235 . S
O559 Eu515 2.419 . S
O559 C579 1.249 . S
C560 O549 1.276 . S
C560 O552 1.235 . S
C561 C563 1.393 . S
C561 C565 1.395 . S
C561 C568 1.492 . S
C562 C563 1.392 . S
C562 C564 1.386 . S
C563 C561 1.393 . S
C563 C562 1.392 . S
C563 H580 0.930 . S
C564 C562 1.386 . S
C564 C566 1.395 . S
C564 H581 0.930 . S
C565 C561 1.395 . S
C565 C566 1.379 . S
C565 H582 0.930 . S
C566 C564 1.395 . S
C566 C565 1.379 . S
C566 H583 0.930 . S
C567 O550 1.264 . S
C567 O551 1.254 . S
C568 Eu504 2.848 . S
C568 O548 1.257 . S
C568 O553 1.249 . S
C568 C561 1.492 . S
C569 H534 0.931 . S
C569 C547 1.420 . S
C569 C570 1.351 . S
C570 H532 0.930 . S
C570 C538 1.423 . S
C570 C569 1.351 . S
C571 O555 1.276 . S
C571 O558 1.235 . S
C572 C573 1.393 . S
C572 C576 1.395 . S
C572 C579 1.492 . S
C573 C572 1.393 . S
C573 C574 1.392 . S
C573 H584 0.930 . S
C574 C573 1.392 . S
C574 C575 1.386 . S
C575 C574 1.386 . S
C575 C577 1.395 . S
C575 H585 0.930 . S
C576 C572 1.395 . S
C576 C577 1.379 . S
C576 H586 0.930 . S
C577 C575 1.395 . S
C577 C576 1.379 . S
C577 H587 0.930 . S
C578 O556 1.264 . S
C578 O557 1.254 . S
C579 Eu515 2.848 . S
C579 O554 1.257 . S
C579 O559 1.249 . S
C579 C572 1.492 . S
H580 C563 0.930 . S
H581 C564 0.930 . S
H582 C565 0.930 . S
H583 C566 0.930 . S
H584 C573 0.930 . S
H585 C575 0.930 . S
H586 C576 0.930 . S
H587 C577 0.930 . S
Eu588 N619 2.657 . S
Eu588 N626 2.609 1_565 S
Eu588 O632 2.558 . S
Eu588 O633 2.612 . S
Eu588 O635 2.339 . S
Eu588 O636 2.563 . S
Eu588 O637 2.419 . S
Eu588 O639 2.380 1_565 S
Eu588 O640 2.432 1_565 S
Eu588 C652 2.848 . S
C589 C592 1.429 . S
C589 C593 1.411 . S
C589 N596 1.377 . S
C590 C592 1.420 . S
C590 C594 1.423 . S
C590 C602 1.392 1_565 S
C591 C593 1.420 . S
C591 C594 1.351 . S
C591 H614 0.931 . S
C592 C589 1.429 . S
C592 C590 1.420 . S
C592 N600 1.362 1_565 S
C593 C589 1.411 . S
C593 C591 1.420 . S
C593 C598 1.395 . S
C594 C590 1.423 . S
C594 C591 1.351 . S
C594 H606 0.930 . S
C595 C597 1.400 . S
C595 C598 1.386 . S
C595 H607 0.930 . S
N596 C589 1.377 . S
N596 C597 1.321 . S
N596 Eu599 2.609 1_565 S
C597 C595 1.400 . S
C597 N596 1.321 . S
C597 H604 0.930 . S
C598 C593 1.395 . S
C598 C595 1.386 . S
C598 H617 0.930 . S
Eu599 N596 2.609 1_545 S
Eu599 N600 2.657 . S
Eu599 O633 2.380 1_545 S
Eu599 O634 2.432 1_545 S
Eu599 O638 2.558 . S
Eu599 O639 2.612 . S
Eu599 O641 2.339 . S
Eu599 O642 2.563 . S
Eu599 O643 2.419 . S
Eu599 C663 2.848 . S
N600 C592 1.362 1_545 S
N600 Eu599 2.657 . S
N600 C601 1.334 . S
C601 N600 1.334 . S
C601 C603 1.413 . S
C601 H608 0.929 . S
C602 C590 1.392 1_545 S
C602 C603 1.367 . S
C602 H610 0.935 1_545 S
C603 C601 1.413 . S
C603 C602 1.367 . S
C603 H605 0.930 . S
H604 C597 0.930 . S
H605 C603 0.930 . S
H606 C594 0.930 . S
H607 C595 0.930 . S
H608 C601 0.929 . S
H609 C623 0.930 . S
H610 C602 0.935 1_565 S
H611 C629 0.930 . S
H612 C620 0.929 . S
H613 C627 0.930 . S
H614 C591 0.931 . S
H615 C621 0.932 1_545 S
H616 C654 0.930 . S
H617 C598 0.930 . S
H618 C653 0.931 . S
N619 Eu588 2.657 . S
N619 C620 1.334 . S
N619 C624 1.362 1_565 S
C620 H612 0.929 . S
C620 N619 1.334 . S
C620 C623 1.413 . S
C621 H615 0.932 1_565 S
C621 C622 1.392 1_565 S
C621 C623 1.367 . S
C622 C621 1.392 1_545 S
C622 C624 1.420 . S
C622 C654 1.423 . S
C623 H609 0.930 . S
C623 C620 1.413 . S
C623 C621 1.367 . S
C624 N619 1.362 1_545 S
C624 C622 1.420 . S
C624 C628 1.429 . S
H625 C630 0.930 . S
N626 Eu588 2.609 1_545 S
N626 C628 1.377 . S
N626 C629 1.321 . S
C627 H613 0.930 . S
C627 C629 1.400 . S
C627 C630 1.386 . S
C628 C624 1.429 . S
C628 N626 1.377 . S
C628 C631 1.411 . S
C629 H611 0.930 . S
C629 N626 1.321 . S
C629 C627 1.400 . S
C630 H625 0.930 . S
C630 C627 1.386 . S
C630 C631 1.395 . S
C631 C628 1.411 . S
C631 C630 1.395 . S
C631 C653 1.420 . S
O632 Eu588 2.558 . S
O632 C652 1.257 . S
O633 Eu588 2.612 . S
O633 Eu599 2.380 1_565 S
O633 C644 1.276 . S
O634 Eu599 2.432 1_565 S
O634 C651 1.264 . S
O635 Eu588 2.339 . S
O635 C651 1.254 . S
O636 Eu588 2.563 . S
O636 C644 1.235 . S
O637 Eu588 2.419 . S
O637 C652 1.249 . S
O638 Eu599 2.558 . S
O638 C663 1.257 . S
O639 Eu588 2.380 1_545 S
O639 Eu599 2.612 . S
O639 C655 1.276 . S
O640 Eu588 2.432 1_545 S
O640 C662 1.264 . S
O641 Eu599 2.339 . S
O641 C662 1.254 . S
O642 Eu599 2.563 . S
O642 C655 1.235 . S
O643 Eu599 2.419 . S
O643 C663 1.249 . S
C644 O633 1.276 . S
C644 O636 1.235 . S
C645 C647 1.393 . S
C645 C649 1.395 . S
C645 C652 1.492 . S
C646 C647 1.392 . S
C646 C648 1.386 . S
C647 C645 1.393 . S
C647 C646 1.392 . S
C647 H664 0.930 . S
C648 C646 1.386 . S
C648 C650 1.395 . S
C648 H665 0.930 . S
C649 C645 1.395 . S
C649 C650 1.379 . S
C649 H666 0.930 . S
C650 C648 1.395 . S
C650 C649 1.379 . S
C650 H667 0.930 . S
C651 O634 1.264 . S
C651 O635 1.254 . S
C652 Eu588 2.848 . S
C652 O632 1.257 . S
C652 O637 1.249 . S
C652 C645 1.492 . S
C653 H618 0.931 . S
C653 C631 1.420 . S
C653 C654 1.351 . S
C654 H616 0.930 . S
C654 C622 1.423 . S
C654 C653 1.351 . S
C655 O639 1.276 . S
C655 O642 1.235 . S
C656 C657 1.393 . S
C656 C660 1.395 . S
C656 C663 1.492 . S
C657 C656 1.393 . S
C657 C658 1.392 . S
C657 H668 0.930 . S
C658 C657 1.392 . S
C658 C659 1.386 . S
C659 C658 1.386 . S
C659 C661 1.395 . S
C659 H669 0.930 . S
C660 C656 1.395 . S
C660 C661 1.379 . S
C660 H670 0.930 . S
C661 C659 1.395 . S
C661 C660 1.379 . S
C661 H671 0.930 . S
C662 O640 1.264 . S
C662 O641 1.254 . S
C663 Eu599 2.848 . S
C663 O638 1.257 . S
C663 O643 1.249 . S
C663 C656 1.492 . S
H664 C647 0.930 . S
H665 C648 0.930 . S
H666 C649 0.930 . S
H667 C650 0.930 . S
H668 C657 0.930 . S
H669 C659 0.930 . S
H670 C660 0.930 . S
H671 C661 0.930 . S
Eu672 N703 2.657 . S
Eu672 N710 2.609 . S
Eu672 O716 2.558 . S
Eu672 O717 2.612 . S
Eu672 O719 2.339 . S
Eu672 O720 2.563 . S
Eu672 O721 2.419 . S
Eu672 O723 2.380 . S
Eu672 O724 2.432 . S
Eu672 C736 2.848 . S
C673 C676 1.429 . S
C673 C677 1.411 . S
C673 N680 1.377 . S
C674 C676 1.420 . S
C674 C678 1.423 . S
C674 C686 1.392 . S
C675 C677 1.420 . S
C675 C678 1.351 . S
C675 H698 0.931 . S
C676 C673 1.429 . S
C676 C674 1.420 . S
C676 N684 1.362 . S
C677 C673 1.411 . S
C677 C675 1.420 . S
C677 C682 1.395 . S
C678 C674 1.423 . S
C678 C675 1.351 . S
C678 H690 0.930 . S
C679 C681 1.400 . S
C679 C682 1.386 . S
C679 H691 0.930 . S
N680 C673 1.377 . S
N680 C681 1.321 . S
N680 Eu683 2.609 . S
C681 C679 1.400 . S
C681 N680 1.321 . S
C681 H688 0.930 . S
C682 C677 1.395 . S
C682 C679 1.386 . S
C682 H701 0.930 . S
Eu683 N680 2.609 . S
Eu683 N684 2.657 . S
Eu683 O717 2.380 . S
Eu683 O718 2.432 . S
Eu683 O722 2.558 . S
Eu683 O723 2.612 . S
Eu683 O725 2.339 . S
Eu683 O726 2.563 . S
Eu683 O727 2.419 . S
Eu683 C747 2.848 . S
N684 C676 1.362 . S
N684 Eu683 2.657 . S
N684 C685 1.334 . S
C685 N684 1.334 . S
C685 C687 1.413 . S
C685 H692 0.929 . S
C686 C674 1.392 . S
C686 C687 1.367 . S
C686 H694 0.930 . S
C687 C685 1.413 . S
C687 C686 1.367 . S
C687 H689 0.930 . S
H688 C681 0.930 . S
H689 C687 0.930 . S
H690 C678 0.930 . S
H691 C679 0.930 . S
H692 C685 0.929 . S
H693 C707 0.930 . S
H694 C686 0.930 . S
H695 C713 0.930 . S
H696 C704 0.929 . S
H697 C711 0.930 . S
H698 C675 0.931 . S
H699 C705 0.930 . S
H700 C738 0.930 . S
H701 C682 0.930 . S
H702 C737 0.931 . S
N703 Eu672 2.657 . S
N703 C704 1.334 . S
N703 C708 1.362 . S
C704 H696 0.929 . S
C704 N703 1.334 . S
C704 C707 1.413 . S
C705 H699 0.930 . S
C705 C706 1.392 . S
C705 C707 1.367 . S
C706 C705 1.392 . S
C706 C708 1.420 . S
C706 C738 1.423 . S
C707 H693 0.930 . S
C707 C704 1.413 . S
C707 C705 1.367 . S
C708 N703 1.362 . S
C708 C706 1.420 . S
C708 C712 1.429 . S
H709 C714 0.930 . S
N710 Eu672 2.609 . S
N710 C712 1.377 . S
N710 C713 1.321 . S
C711 H697 0.930 . S
C711 C713 1.400 . S
C711 C714 1.386 . S
C712 C708 1.429 . S
C712 N710 1.377 . S
C712 C715 1.411 . S
C713 H695 0.930 . S
C713 N710 1.321 . S
C713 C711 1.400 . S
C714 H709 0.930 . S
C714 C711 1.386 . S
C714 C715 1.395 . S
C715 C712 1.411 . S
C715 C714 1.395 . S
C715 C737 1.420 . S
O716 Eu672 2.558 . S
O716 C736 1.257 . S
O717 Eu672 2.612 . S
O717 Eu683 2.380 . S
O717 C728 1.276 . S
O718 Eu683 2.432 . S
O718 C735 1.264 . S
O719 Eu672 2.339 . S
O719 C735 1.254 . S
O720 Eu672 2.563 . S
O720 C728 1.235 . S
O721 Eu672 2.419 . S
O721 C736 1.249 . S
O722 Eu683 2.558 . S
O722 C747 1.257 . S
O723 Eu672 2.380 . S
O723 Eu683 2.612 . S
O723 C739 1.276 . S
O724 Eu672 2.432 . S
O724 C746 1.264 . S
O725 Eu683 2.339 . S
O725 C746 1.254 . S
O726 Eu683 2.563 . S
O726 C739 1.235 . S
O727 Eu683 2.419 . S
O727 C747 1.249 . S
C728 O717 1.276 . S
C728 O720 1.235 . S
C729 C731 1.393 . S
C729 C733 1.395 . S
C729 C736 1.492 . S
C730 C731 1.392 . S
C730 C732 1.386 . S
C731 C729 1.393 . S
C731 C730 1.392 . S
C731 H748 0.930 . S
C732 C730 1.386 . S
C732 C734 1.395 . S
C732 H749 0.930 . S
C733 C729 1.395 . S
C733 C734 1.379 . S
C733 H750 0.930 . S
C734 C732 1.395 . S
C734 C733 1.379 . S
C734 H751 0.930 . S
C735 O718 1.264 . S
C735 O719 1.254 . S
C736 Eu672 2.848 . S
C736 O716 1.257 . S
C736 O721 1.249 . S
C736 C729 1.492 . S
C737 H702 0.931 . S
C737 C715 1.420 . S
C737 C738 1.351 . S
C738 H700 0.930 . S
C738 C706 1.423 . S
C738 C737 1.351 . S
C739 O723 1.276 . S
C739 O726 1.235 . S
C740 C741 1.393 . S
C740 C744 1.395 . S
C740 C747 1.492 . S
C741 C740 1.393 . S
C741 C742 1.392 . S
C741 H752 0.930 . S
C742 C741 1.392 . S
C742 C743 1.386 . S
C743 C742 1.386 . S
C743 C745 1.395 . S
C743 H753 0.930 . S
C744 C740 1.395 . S
C744 C745 1.379 . S
C744 H754 0.930 . S
C745 C743 1.395 . S
C745 C744 1.379 . S
C745 H755 0.930 . S
C746 O724 1.264 . S
C746 O725 1.254 . S
C747 Eu683 2.848 . S
C747 O722 1.257 . S
C747 O727 1.249 . S
C747 C740 1.492 . S
H748 C731 0.930 . S
H749 C732 0.930 . S
H750 C733 0.930 . S
H751 C734 0.930 . S
H752 C741 0.930 . S
H753 C743 0.930 . S
H754 C744 0.930 . S
H755 C745 0.930 . S
Eu756 N787 2.657 . S
Eu756 N794 2.609 1_455 S
Eu756 O800 2.558 . S
Eu756 O801 2.612 . S
Eu756 O803 2.339 . S
Eu756 O804 2.563 . S
Eu756 O805 2.419 . S
Eu756 O807 2.380 1_455 S
Eu756 O808 2.432 1_455 S
Eu756 C820 2.848 . S
C757 C760 1.429 . S
C757 C761 1.411 . S
C757 N764 1.377 . S
C758 C760 1.420 . S
C758 C762 1.423 . S
C758 C770 1.392 . S
C759 C761 1.420 . S
C759 C762 1.351 . S
C759 H782 0.931 . S
C760 C757 1.429 . S
C760 C758 1.420 . S
C760 N768 1.362 1_455 S
C761 C757 1.411 . S
C761 C759 1.420 . S
C761 C766 1.395 1_556 S
C762 C758 1.423 . S
C762 C759 1.351 . S
C762 H774 0.930 . S
C763 C765 1.400 . S
C763 C766 1.386 . S
C763 H775 0.930 . S
N764 C757 1.377 . S
N764 C765 1.321 1_556 S
N764 Eu767 2.609 1_455 S
C765 C763 1.400 . S
C765 N764 1.321 1_554 S
C765 H772 0.930 . S
C766 C761 1.395 1_554 S
C766 C763 1.386 . S
C766 H785 0.930 . S
Eu767 N764 2.609 1_655 S
Eu767 N768 2.657 . S
Eu767 O801 2.380 1_655 S
Eu767 O802 2.432 1_655 S
Eu767 O806 2.558 1_556 S
Eu767 O807 2.612 . S
Eu767 O809 2.339 . S
Eu767 O810 2.563 1_556 S
Eu767 O811 2.419 . S
Eu767 C831 2.848 1_556 S
N768 C760 1.362 1_655 S
N768 Eu767 2.657 . S
N768 C769 1.334 . S
C769 N768 1.334 . S
C769 C771 1.413 . S
C769 H776 0.929 . S
C770 C758 1.392 . S
C770 C771 1.367 1_455 S
C770 H778 0.930 . S
C771 C769 1.413 . S
C771 C770 1.367 1_655 S
C771 H773 0.930 . S
H772 C765 0.930 . S
H773 C771 0.930 . S
H774 C762 0.930 . S
H775 C763 0.930 . S
H776 C769 0.929 . S
H777 C791 0.909 1_554 S
H778 C770 0.930 . S
H779 C797 0.930 . S
H780 C788 0.929 . S
H781 C795 0.930 . S
H782 C759 0.931 . S
H783 C789 0.915 1_554 S
H784 C822 0.930 . S
H785 C766 0.930 . S
H786 C821 0.931 . S
N787 Eu756 2.657 . S
N787 C788 1.334 . S
N787 C792 1.362 1_455 S
C788 H780 0.929 . S
C788 N787 1.334 . S
C788 C791 1.427 . S
C789 H783 0.915 1_556 S
C789 C790 1.392 . S
C789 C791 1.375 1_655 S
C790 C789 1.392 . S
C790 C792 1.420 . S
C790 C822 1.423 . S
C791 H777 0.909 1_556 S
C791 C788 1.427 . S
C791 C789 1.375 1_455 S
C792 N787 1.362 1_655 S
C792 C790 1.420 . S
C792 C796 1.429 . S
H793 C798 0.930 . S
N794 Eu756 2.609 1_655 S
N794 C796 1.377 . S
N794 C797 1.321 . S
C795 H781 0.930 . S
C795 C797 1.400 . S
C795 C798 1.386 . S
C796 C792 1.429 . S
C796 N794 1.377 . S
C796 C799 1.411 . S
C797 H779 0.930 . S
C797 N794 1.321 . S
C797 C795 1.400 . S
C798 H793 0.930 . S
C798 C795 1.386 . S
C798 C799 1.395 . S
C799 C796 1.411 . S
C799 C798 1.395 . S
C799 C821 1.420 . S
O800 Eu756 2.558 . S
O800 C820 1.257 . S
O801 Eu756 2.612 . S
O801 Eu767 2.380 1_455 S
O801 C812 1.276 . S
O802 Eu767 2.432 1_455 S
O802 C819 1.264 . S
O803 Eu756 2.339 . S
O803 C819 1.254 . S
O804 Eu756 2.563 . S
O804 C812 1.235 . S
O805 Eu756 2.419 . S
O805 C820 1.249 . S
O806 Eu767 2.558 1_554 S
O806 C831 1.257 . S
O807 Eu756 2.380 1_655 S
O807 Eu767 2.612 . S
O807 C823 1.276 . S
O808 Eu756 2.432 1_655 S
O808 C830 1.264 . S
O809 Eu767 2.339 . S
O809 C830 1.254 . S
O810 Eu767 2.563 1_554 S
O810 C823 1.235 1_554 S
O811 Eu767 2.419 . S
O811 C831 1.249 1_556 S
C812 O801 1.276 . S
C812 O804 1.235 . S
C813 C815 1.393 . S
C813 C817 1.395 . S
C813 C820 1.492 . S
C814 C815 1.392 . S
C814 C816 1.386 . S
C815 C813 1.393 . S
C815 C814 1.392 . S
C815 H832 0.930 . S
C816 C814 1.386 . S
C816 C818 1.395 . S
C816 H833 0.930 . S
C817 C813 1.395 . S
C817 C818 1.379 . S
C817 H834 0.930 . S
C818 C816 1.395 . S
C818 C817 1.379 . S
C818 H835 0.930 . S
C819 O802 1.264 . S
C819 O803 1.254 . S
C820 Eu756 2.848 . S
C820 O800 1.257 . S
C820 O805 1.249 . S
C820 C813 1.492 . S
C821 H786 0.931 . S
C821 C799 1.420 . S
C821 C822 1.351 . S
C822 H784 0.930 . S
C822 C790 1.423 . S
C822 C821 1.351 . S
C823 O807 1.276 . S
C823 O810 1.235 1_556 S
C824 C825 1.393 . S
C824 C828 1.395 . S
C824 C831 1.492 . S
C825 C824 1.393 . S
C825 C826 1.392 . S
C825 H836 0.930 . S
C826 C825 1.392 . S
C826 C827 1.386 . S
C827 C826 1.386 . S
C827 C829 1.395 . S
C827 H837 0.930 . S
C828 C824 1.395 . S
C828 C829 1.379 . S
C828 H838 0.930 . S
C829 C827 1.395 . S
C829 C828 1.379 . S
C829 H839 0.930 . S
C830 O808 1.264 . S
C830 O809 1.254 . S
C831 Eu767 2.848 1_554 S
C831 O806 1.257 . S
C831 O811 1.249 1_554 S
C831 C824 1.492 . S
H832 C815 0.930 . S
H833 C816 0.930 . S
H834 C817 0.930 . S
H835 C818 0.930 . S
H836 C825 0.930 . S
H837 C827 0.930 . S
H838 C828 0.930 . S
H839 C829 0.930 . S
Eu840 N871 2.657 . S
Eu840 N878 2.609 1_545 S
Eu840 O884 2.558 . S
Eu840 O885 2.612 . S
Eu840 O887 2.339 . S
Eu840 O888 2.563 . S
Eu840 O889 2.419 . S
Eu840 O891 2.380 1_545 S
Eu840 O892 2.432 1_545 S
Eu840 C904 2.848 . S
C841 C844 1.429 . S
C841 C845 1.411 . S
C841 N848 1.377 . S
C842 C844 1.420 . S
C842 C846 1.423 . S
C842 C854 1.392 1_545 S
C843 C845 1.420 . S
C843 C846 1.351 . S
C843 H866 0.931 . S
C844 C841 1.429 . S
C844 C842 1.420 . S
C844 N852 1.362 1_545 S
C845 C841 1.411 . S
C845 C843 1.420 . S
C845 C850 1.395 . S
C846 C842 1.423 . S
C846 C843 1.351 . S
C846 H858 0.930 . S
C847 C849 1.400 . S
C847 C850 1.386 . S
C847 H859 0.930 . S
N848 C841 1.377 . S
N848 C849 1.321 . S
N848 Eu851 2.609 1_545 S
C849 C847 1.400 . S
C849 N848 1.321 . S
C849 H856 0.930 . S
C850 C845 1.395 . S
C850 C847 1.386 . S
C850 H869 0.930 . S
Eu851 N848 2.609 1_565 S
Eu851 N852 2.657 . S
Eu851 O885 2.380 1_565 S
Eu851 O886 2.432 1_565 S
Eu851 O890 2.558 . S
Eu851 O891 2.612 . S
Eu851 O893 2.339 . S
Eu851 O894 2.563 . S
Eu851 O895 2.419 . S
Eu851 C915 2.848 . S
N852 C844 1.362 1_565 S
N852 Eu851 2.657 . S
N852 C853 1.334 . S
C853 N852 1.334 . S
C853 C855 1.413 . S
C853 H860 0.929 . S
C854 C842 1.392 1_565 S
C854 C855 1.367 . S
C854 H862 0.934 1_565 S
C855 C853 1.413 . S
C855 C854 1.367 . S
C855 H857 0.930 . S
H856 C849 0.930 . S
H857 C855 0.930 . S
H858 C846 0.930 . S
H859 C847 0.930 . S
H860 C853 0.929 . S
H861 C875 0.930 . S
H862 C854 0.934 1_545 S
H863 C881 0.930 . S
H864 C872 0.929 . S
H865 C879 0.930 . S
H866 C843 0.931 . S
H867 C873 0.932 1_565 S
H868 C906 0.930 . S
H869 C850 0.930 . S
H870 C905 0.931 . S
N871 Eu840 2.657 . S
N871 C872 1.334 . S
N871 C876 1.362 1_545 S
C872 H864 0.929 . S
C872 N871 1.334 . S
C872 C875 1.413 . S
C873 H867 0.932 1_545 S
C873 C874 1.392 1_545 S
C873 C875 1.367 . S
C874 C873 1.392 1_565 S
C874 C876 1.420 . S
C874 C906 1.423 . S
C875 H861 0.930 . S
C875 C872 1.413 . S
C875 C873 1.367 . S
C876 N871 1.362 1_565 S
C876 C874 1.420 . S
C876 C880 1.429 . S
H877 C882 0.930 . S
N878 Eu840 2.609 1_565 S
N878 C880 1.377 . S
N878 C881 1.321 . S
C879 H865 0.930 . S
C879 C881 1.400 . S
C879 C882 1.386 . S
C880 C876 1.429 . S
C880 N878 1.377 . S
C880 C883 1.411 . S
C881 H863 0.930 . S
C881 N878 1.321 . S
C881 C879 1.400 . S
C882 H877 0.930 . S
C882 C879 1.386 . S
C882 C883 1.395 . S
C883 C880 1.411 . S
C883 C882 1.395 . S
C883 C905 1.420 . S
O884 Eu840 2.558 . S
O884 C904 1.257 . S
O885 Eu840 2.612 . S
O885 Eu851 2.380 1_545 S
O885 C896 1.276 . S
O886 Eu851 2.432 1_545 S
O886 C903 1.264 . S
O887 Eu840 2.339 . S
O887 C903 1.254 . S
O888 Eu840 2.563 . S
O888 C896 1.235 . S
O889 Eu840 2.419 . S
O889 C904 1.249 . S
O890 Eu851 2.558 . S
O890 C915 1.257 . S
O891 Eu840 2.380 1_565 S
O891 Eu851 2.612 . S
O891 C907 1.276 . S
O892 Eu840 2.432 1_565 S
O892 C914 1.264 . S
O893 Eu851 2.339 . S
O893 C914 1.254 . S
O894 Eu851 2.563 . S
O894 C907 1.235 . S
O895 Eu851 2.419 . S
O895 C915 1.249 . S
C896 O885 1.276 . S
C896 O888 1.235 . S
C897 C899 1.393 . S
C897 C901 1.395 . S
C897 C904 1.492 . S
C898 C899 1.392 . S
C898 C900 1.386 . S
C899 C897 1.393 . S
C899 C898 1.392 . S
C899 H916 0.930 . S
C900 C898 1.386 . S
C900 C902 1.395 . S
C900 H917 0.930 . S
C901 C897 1.395 . S
C901 C902 1.379 . S
C901 H918 0.930 . S
C902 C900 1.395 . S
C902 C901 1.379 . S
C902 H919 0.930 . S
C903 O886 1.264 . S
C903 O887 1.254 . S
C904 Eu840 2.848 . S
C904 O884 1.257 . S
C904 O889 1.249 . S
C904 C897 1.492 . S
C905 H870 0.931 . S
C905 C883 1.420 . S
C905 C906 1.351 . S
C906 H868 0.930 . S
C906 C874 1.423 . S
C906 C905 1.351 . S
C907 O891 1.276 . S
C907 O894 1.235 . S
C908 C909 1.393 . S
C908 C912 1.395 . S
C908 C915 1.492 . S
C909 C908 1.393 . S
C909 C910 1.392 . S
C909 H920 0.930 . S
C910 C909 1.392 . S
C910 C911 1.386 . S
C911 C910 1.386 . S
C911 C913 1.395 . S
C911 H921 0.930 . S
C912 C908 1.395 . S
C912 C913 1.379 . S
C912 H922 0.930 . S
C913 C911 1.395 . S
C913 C912 1.379 . S
C913 H923 0.930 . S
C914 O892 1.264 . S
C914 O893 1.254 . S
C915 Eu851 2.848 . S
C915 O890 1.257 . S
C915 O895 1.249 . S
C915 C908 1.492 . S
H916 C899 0.930 . S
H917 C900 0.930 . S
H918 C901 0.930 . S
H919 C902 0.930 . S
H920 C909 0.930 . S
H921 C911 0.930 . S
H922 C912 0.930 . S
H923 C913 0.930 . S
Eu924 N955 2.657 . S
Eu924 N962 2.609 . S
Eu924 O968 2.558 . S
Eu924 O969 2.612 . S
Eu924 O971 2.339 . S
Eu924 O972 2.563 . S
Eu924 O973 2.419 . S
Eu924 O975 2.380 . S
Eu924 O976 2.432 . S
Eu924 C988 2.848 . S
C925 C928 1.429 . S
C925 C929 1.411 . S
C925 N932 1.377 . S
C926 C928 1.420 . S
C926 C930 1.423 . S
C926 C938 1.392 . S
C927 C929 1.420 . S
C927 C930 1.351 . S
C927 H950 0.931 . S
C928 C925 1.429 . S
C928 C926 1.420 . S
C928 N936 1.362 . S
C929 C925 1.411 . S
C929 C927 1.420 . S
C929 C934 1.395 . S
C930 C926 1.423 . S
C930 C927 1.351 . S
C930 H942 0.930 . S
C931 C933 1.400 . S
C931 C934 1.386 . S
C931 H943 0.930 . S
N932 C925 1.377 . S
N932 C933 1.321 . S
N932 Eu935 2.609 . S
C933 C931 1.400 . S
C933 N932 1.321 . S
C933 H940 0.930 . S
C934 C929 1.395 . S
C934 C931 1.386 . S
C934 H953 0.930 . S
Eu935 N932 2.609 . S
Eu935 N936 2.657 . S
Eu935 O969 2.380 . S
Eu935 O970 2.432 . S
Eu935 O974 2.558 . S
Eu935 O975 2.612 . S
Eu935 O977 2.339 . S
Eu935 O978 2.563 . S
Eu935 O979 2.419 . S
Eu935 C999 2.848 . S
N936 C928 1.362 . S
N936 Eu935 2.657 . S
N936 C937 1.334 . S
C937 N936 1.334 . S
C937 C939 1.413 . S
C937 H944 0.929 . S
C938 C926 1.392 . S
C938 C939 1.367 . S
C938 H946 0.930 . S
C939 C937 1.413 . S
C939 C938 1.367 . S
C939 H941 0.930 . S
H940 C933 0.930 . S
H941 C939 0.930 . S
H942 C930 0.930 . S
H943 C931 0.930 . S
H944 C937 0.929 . S
H945 C959 0.930 . S
H946 C938 0.930 . S
H947 C965 0.930 . S
H948 C956 0.929 . S
H949 C963 0.930 . S
H950 C927 0.931 . S
H951 C957 0.930 . S
H952 C990 0.930 . S
H953 C934 0.930 . S
H954 C989 0.931 . S
N955 Eu924 2.657 . S
N955 C956 1.334 . S
N955 C960 1.362 . S
C956 H948 0.929 . S
C956 N955 1.334 . S
C956 C959 1.413 . S
C957 H951 0.930 . S
C957 C958 1.392 . S
C957 C959 1.367 . S
C958 C957 1.392 . S
C958 C960 1.420 . S
C958 C990 1.423 . S
C959 H945 0.930 . S
C959 C956 1.413 . S
C959 C957 1.367 . S
C960 N955 1.362 . S
C960 C958 1.420 . S
C960 C964 1.429 . S
H961 C966 0.930 . S
N962 Eu924 2.609 . S
N962 C964 1.377 . S
N962 C965 1.321 . S
C963 H949 0.930 . S
C963 C965 1.400 . S
C963 C966 1.386 . S
C964 C960 1.429 . S
C964 N962 1.377 . S
C964 C967 1.411 . S
C965 H947 0.930 . S
C965 N962 1.321 . S
C965 C963 1.400 . S
C966 H961 0.930 . S
C966 C963 1.386 . S
C966 C967 1.395 . S
C967 C964 1.411 . S
C967 C966 1.395 . S
C967 C989 1.420 . S
O968 Eu924 2.558 . S
O968 C988 1.257 . S
O969 Eu924 2.612 . S
O969 Eu935 2.380 . S
O969 C980 1.276 . S
O970 Eu935 2.432 . S
O970 C987 1.264 . S
O971 Eu924 2.339 . S
O971 C987 1.254 . S
O972 Eu924 2.563 . S
O972 C980 1.235 . S
O973 Eu924 2.419 . S
O973 C988 1.249 . S
O974 Eu935 2.558 . S
O974 C999 1.257 . S
O975 Eu924 2.380 . S
O975 Eu935 2.612 . S
O975 C991 1.276 . S
O976 Eu924 2.432 . S
O976 C998 1.264 . S
O977 Eu935 2.339 . S
O977 C998 1.254 . S
O978 Eu935 2.563 . S
O978 C991 1.235 . S
O979 Eu935 2.419 . S
O979 C999 1.249 . S
C980 O969 1.276 . S
C980 O972 1.235 . S
C981 C983 1.393 . S
C981 C985 1.395 . S
C981 C988 1.492 . S
C982 C983 1.392 . S
C982 C984 1.386 . S
C983 C981 1.393 . S
C983 C982 1.392 . S
C983 H1000 0.930 . S
C984 C982 1.386 . S
C984 C986 1.395 . S
C984 H1001 0.930 . S
C985 C981 1.395 . S
C985 C986 1.379 . S
C985 H1002 0.930 . S
C986 C984 1.395 . S
C986 C985 1.379 . S
C986 H1003 0.930 . S
C987 O970 1.264 . S
C987 O971 1.254 . S
C988 Eu924 2.848 . S
C988 O968 1.257 . S
C988 O973 1.249 . S
C988 C981 1.492 . S
C989 H954 0.931 . S
C989 C967 1.420 . S
C989 C990 1.351 . S
C990 H952 0.930 . S
C990 C958 1.423 . S
C990 C989 1.351 . S
C991 O975 1.276 . S
C991 O978 1.235 . S
C992 C993 1.393 . S
C992 C996 1.395 . S
C992 C999 1.492 . S
C993 C992 1.393 . S
C993 C994 1.392 . S
C993 H1004 0.930 . S
C994 C993 1.392 . S
C994 C995 1.386 . S
C995 C994 1.386 . S
C995 C997 1.395 . S
C995 H1005 0.930 . S
C996 C992 1.395 . S
C996 C997 1.379 . S
C996 H1006 0.930 . S
C997 C995 1.395 . S
C997 C996 1.379 . S
C997 H1007 0.930 . S
C998 O976 1.264 . S
C998 O977 1.254 . S
C999 Eu935 2.848 . S
C999 O974 1.257 . S
C999 O979 1.249 . S
C999 C992 1.492 . S
H1000 C983 0.930 . S
H1001 C984 0.930 . S
H1002 C985 0.930 . S
H1003 C986 0.930 . S
H1004 C993 0.930 . S
H1005 C995 0.930 . S
H1006 C996 0.930 . S
H1007 C997 0.930 . S
H1008 C1016 0.950 . S
H1009 C1021 0.950 . S
H1010 C1018 0.950 . S
H1011 C1020 0.950 . S
H1012 C1022 0.950 . S
H1013 C1024 0.950 . S
H1014 C1026 0.950 . S
H1015 C1027 0.950 . S
C1016 H1008 0.950 . S
C1016 C1017 1.386 . S
C1016 C1018 1.391 . S
C1017 C1016 1.386 . S
C1017 C1021 1.393 . S
C1018 H1010 0.950 . S
C1018 C1016 1.391 . S
C1018 C1019 1.400 . S
C1019 C1018 1.400 . S
C1019 C1020 1.398 . S
C1019 C1025 1.491 . S
C1020 H1011 0.950 . S
C1020 C1019 1.398 . S
C1020 C1021 1.391 . S
C1021 H1009 0.950 . S
C1021 C1017 1.393 . S
C1021 C1020 1.391 . S
C1022 H1012 0.950 . S
C1022 C1023 1.386 . S
C1022 C1024 1.391 . S
C1023 C1022 1.386 . S
C1023 C1027 1.393 . S
C1024 H1013 0.950 . S
C1024 C1022 1.391 . S
C1024 C1025 1.400 . S
C1025 C1019 1.491 . S
C1025 C1024 1.400 . S
C1025 C1026 1.398 . S
C1026 H1014 0.950 . S
C1026 C1025 1.398 . S
C1026 C1027 1.391 . S
C1027 H1015 0.950 . S
C1027 C1023 1.393 . S
C1027 C1026 1.391 . S
H1028 C1036 0.950 . S
H1029 C1041 0.950 . S
H1030 C1038 0.950 . S
H1031 C1040 0.950 . S
H1032 C1042 0.950 . S
H1033 C1044 0.950 . S
H1034 C1046 0.950 . S
H1035 C1047 0.950 . S
C1036 H1028 0.950 . S
C1036 C1037 1.386 . S
C1036 C1038 1.391 . S
C1037 C1036 1.386 . S
C1037 C1041 1.393 . S
C1038 H1030 0.950 . S
C1038 C1036 1.391 . S
C1038 C1039 1.400 . S
C1039 C1038 1.400 . S
C1039 C1040 1.398 . S
C1039 C1045 1.491 . S
C1040 H1031 0.950 . S
C1040 C1039 1.398 . S
C1040 C1041 1.391 . S
C1041 H1029 0.950 . S
C1041 C1037 1.393 . S
C1041 C1040 1.391 . S
C1042 H1032 0.950 . S
C1042 C1043 1.386 . S
C1042 C1044 1.391 . S
C1043 C1042 1.386 . S
C1043 C1047 1.393 . S
C1044 H1033 0.950 . S
C1044 C1042 1.391 . S
C1044 C1045 1.400 . S
C1045 C1039 1.491 . S
C1045 C1044 1.400 . S
C1045 C1046 1.398 . S
C1046 H1034 0.950 . S
C1046 C1045 1.398 . S
C1046 C1047 1.391 . S
C1047 H1035 0.950 . S
C1047 C1043 1.393 . S
C1047 C1046 1.391 . S
H1048 C1056 0.950 . S
H1049 C1061 0.950 . S
H1050 C1058 0.950 . S
H1051 C1060 0.950 . S
H1052 C1062 0.950 . S
H1053 C1064 0.950 . S
H1054 C1066 0.950 . S
H1055 C1067 0.950 . S
C1056 H1048 0.950 . S
C1056 C1057 1.386 . S
C1056 C1058 1.391 . S
C1057 C1056 1.386 . S
C1057 C1061 1.393 . S
C1058 H1050 0.950 . S
C1058 C1056 1.391 . S
C1058 C1059 1.400 . S
C1059 C1058 1.400 . S
C1059 C1060 1.398 . S
C1059 C1065 1.491 . S
C1060 H1051 0.950 . S
C1060 C1059 1.398 . S
C1060 C1061 1.391 . S
C1061 H1049 0.950 . S
C1061 C1057 1.393 . S
C1061 C1060 1.391 . S
C1062 H1052 0.950 . S
C1062 C1063 1.386 . S
C1062 C1064 1.391 . S
C1063 C1062 1.386 . S
C1063 C1067 1.393 . S
C1064 H1053 0.950 . S
C1064 C1062 1.391 . S
C1064 C1065 1.400 . S
C1065 C1059 1.491 . S
C1065 C1064 1.400 . S
C1065 C1066 1.398 . S
C1066 H1054 0.950 . S
C1066 C1065 1.398 . S
C1066 C1067 1.391 . S
C1067 H1055 0.950 . S
C1067 C1063 1.393 . S
C1067 C1066 1.391 . S
H1068 C1076 0.950 . S
H1069 C1081 0.950 . S
H1070 C1078 0.950 . S
H1071 C1080 0.950 . S
H1072 C1082 0.950 . S
H1073 C1084 0.950 . S
H1074 C1086 0.950 . S
H1075 C1087 0.950 . S
C1076 H1068 0.950 . S
C1076 C1077 1.386 . S
C1076 C1078 1.391 . S
C1077 C1076 1.386 . S
C1077 C1081 1.393 . S
C1078 H1070 0.950 . S
C1078 C1076 1.391 . S
C1078 C1079 1.400 . S
C1079 C1078 1.400 . S
C1079 C1080 1.398 . S
C1079 C1085 1.491 . S
C1080 H1071 0.950 . S
C1080 C1079 1.398 . S
C1080 C1081 1.391 . S
C1081 H1069 0.950 . S
C1081 C1077 1.393 . S
C1081 C1080 1.391 . S
C1082 H1072 0.950 . S
C1082 C1083 1.386 . S
C1082 C1084 1.391 . S
C1083 C1082 1.386 . S
C1083 C1087 1.393 . S
C1084 H1073 0.950 . S
C1084 C1082 1.391 . S
C1084 C1085 1.400 . S
C1085 C1079 1.491 . S
C1085 C1084 1.400 . S
C1085 C1086 1.398 . S
C1086 H1074 0.950 . S
C1086 C1085 1.398 . S
C1086 C1087 1.391 . S
C1087 H1075 0.950 . S
C1087 C1083 1.393 . S
C1087 C1086 1.391 . S
H1088 C1096 0.950 . S
H1089 C1101 0.950 . S
H1090 C1098 0.950 . S
H1091 C1100 0.950 . S
H1092 C1102 0.950 . S
H1093 C1104 0.950 . S
H1094 C1106 0.950 . S
H1095 C1107 0.950 . S
C1096 H1088 0.950 . S
C1096 C1097 1.386 . S
C1096 C1098 1.391 . S
C1097 C1096 1.386 . S
C1097 C1101 1.393 . S
C1098 H1090 0.950 . S
C1098 C1096 1.391 . S
C1098 C1099 1.400 . S
C1099 C1098 1.400 . S
C1099 C1100 1.398 . S
C1099 C1105 1.491 . S
C1100 H1091 0.950 . S
C1100 C1099 1.398 . S
C1100 C1101 1.391 . S
C1101 H1089 0.950 . S
C1101 C1097 1.393 . S
C1101 C1100 1.391 . S
C1102 H1092 0.950 . S
C1102 C1103 1.386 . S
C1102 C1104 1.391 . S
C1103 C1102 1.386 . S
C1103 C1107 1.393 . S
C1104 H1093 0.950 . S
C1104 C1102 1.391 . S
C1104 C1105 1.400 . S
C1105 C1099 1.491 . S
C1105 C1104 1.400 . S
C1105 C1106 1.398 . S
C1106 H1094 0.950 . S
C1106 C1105 1.398 . S
C1106 C1107 1.391 . S
C1107 H1095 0.950 . S
C1107 C1103 1.393 . S
C1107 C1106 1.391 . S
H1108 C1116 0.950 . S
H1109 C1121 0.950 . S
H1110 C1118 0.950 . S
H1111 C1120 0.950 . S
H1112 C1122 0.950 . S
H1113 C1124 0.950 . S
H1114 C1126 0.950 . S
H1115 C1127 0.950 . S
C1116 H1108 0.950 . S
C1116 C1117 1.386 . S
C1116 C1118 1.391 . S
C1117 C1116 1.386 . S
C1117 C1121 1.393 . S
C1118 H1110 0.950 . S
C1118 C1116 1.391 . S
C1118 C1119 1.400 . S
C1119 C1118 1.400 . S
C1119 C1120 1.398 . S
C1119 C1125 1.491 . S
C1120 H1111 0.950 . S
C1120 C1119 1.398 . S
C1120 C1121 1.391 . S
C1121 H1109 0.950 . S
C1121 C1117 1.393 . S
C1121 C1120 1.391 . S
C1122 H1112 0.950 . S
C1122 C1123 1.386 . S
C1122 C1124 1.391 . S
C1123 C1122 1.386 . S
C1123 C1127 1.393 . S
C1124 H1113 0.950 . S
C1124 C1122 1.391 . S
C1124 C1125 1.400 . S
C1125 C1119 1.491 . S
C1125 C1124 1.400 . S
C1125 C1126 1.398 . S
C1126 H1114 0.950 . S
C1126 C1125 1.398 . S
C1126 C1127 1.391 . S
C1127 H1115 0.950 . S
C1127 C1123 1.393 . S
C1127 C1126 1.391 . S
H1128 C1136 0.950 . S
H1129 C1141 0.950 . S
H1130 C1138 0.950 . S
H1131 C1140 0.950 . S
H1132 C1142 0.950 . S
H1133 C1144 0.950 . S
H1134 C1146 0.950 . S
H1135 C1147 0.950 . S
C1136 H1128 0.950 . S
C1136 C1137 1.386 . S
C1136 C1138 1.391 . S
C1137 C1136 1.386 . S
C1137 C1141 1.393 . S
C1138 H1130 0.950 . S
C1138 C1136 1.391 . S
C1138 C1139 1.400 . S
C1139 C1138 1.400 . S
C1139 C1140 1.398 . S
C1139 C1145 1.491 . S
C1140 H1131 0.950 . S
C1140 C1139 1.398 . S
C1140 C1141 1.391 . S
C1141 H1129 0.950 . S
C1141 C1137 1.393 . S
C1141 C1140 1.391 . S
C1142 H1132 0.950 . S
C1142 C1143 1.386 . S
C1142 C1144 1.391 . S
C1143 C1142 1.386 . S
C1143 C1147 1.393 . S
C1144 H1133 0.950 . S
C1144 C1142 1.391 . S
C1144 C1145 1.400 . S
C1145 C1139 1.491 . S
C1145 C1144 1.400 . S
C1145 C1146 1.398 . S
C1146 H1134 0.950 . S
C1146 C1145 1.398 . S
C1146 C1147 1.391 . S
C1147 H1135 0.950 . S
C1147 C1143 1.393 . S
C1147 C1146 1.391 . S
H1148 C1156 0.950 . S
H1149 C1161 0.950 . S
H1150 C1158 0.950 . S
H1151 C1160 0.950 . S
H1152 C1162 0.950 . S
H1153 C1164 0.950 . S
H1154 C1166 0.950 . S
H1155 C1167 0.950 . S
C1156 H1148 0.950 . S
C1156 C1157 1.386 . S
C1156 C1158 1.391 . S
C1157 C1156 1.386 . S
C1157 C1161 1.393 . S
C1158 H1150 0.950 . S
C1158 C1156 1.391 . S
C1158 C1159 1.400 . S
C1159 C1158 1.400 . S
C1159 C1160 1.398 . S
C1159 C1165 1.491 . S
C1160 H1151 0.950 . S
C1160 C1159 1.398 . S
C1160 C1161 1.391 . S
C1161 H1149 0.950 . S
C1161 C1157 1.393 . S
C1161 C1160 1.391 . S
C1162 H1152 0.950 . S
C1162 C1163 1.386 . S
C1162 C1164 1.391 . S
C1163 C1162 1.386 . S
C1163 C1167 1.393 . S
C1164 H1153 0.950 . S
C1164 C1162 1.391 . S
C1164 C1165 1.400 . S
C1165 C1159 1.491 . S
C1165 C1164 1.400 . S
C1165 C1166 1.398 . S
C1166 H1154 0.950 . S
C1166 C1165 1.398 . S
C1166 C1167 1.391 . S
C1167 H1155 0.950 . S
C1167 C1163 1.393 . S
C1167 C1166 1.391 . S
H1168 C1176 0.950 . S
H1169 C1181 0.950 . S
H1170 C1178 0.950 . S
H1171 C1180 0.950 . S
H1172 C1182 0.950 . S
H1173 C1184 0.950 . S
H1174 C1186 0.950 . S
H1175 C1187 0.950 . S
C1176 H1168 0.950 . S
C1176 C1177 1.386 . S
C1176 C1178 1.391 . S
C1177 C1176 1.386 . S
C1177 C1181 1.393 . S
C1178 H1170 0.950 . S
C1178 C1176 1.391 . S
C1178 C1179 1.400 . S
C1179 C1178 1.400 . S
C1179 C1180 1.398 . S
C1179 C1185 1.491 . S
C1180 H1171 0.950 . S
C1180 C1179 1.398 . S
C1180 C1181 1.391 . S
C1181 H1169 0.950 . S
C1181 C1177 1.393 . S
C1181 C1180 1.391 . S
C1182 H1172 0.950 . S
C1182 C1183 1.386 . S
C1182 C1184 1.391 . S
C1183 C1182 1.386 . S
C1183 C1187 1.393 . S
C1184 H1173 0.950 . S
C1184 C1182 1.391 . S
C1184 C1185 1.400 . S
C1185 C1179 1.491 . S
C1185 C1184 1.400 . S
C1185 C1186 1.398 . S
C1186 H1174 0.950 . S
C1186 C1185 1.398 . S
C1186 C1187 1.391 . S
C1187 H1175 0.950 . S
C1187 C1183 1.393 . S
C1187 C1186 1.391 . S
H1188 C1196 0.950 . S
H1189 C1201 0.950 . S
H1190 C1198 0.950 . S
H1191 C1200 0.950 . S
H1192 C1202 0.950 . S
H1193 C1204 0.950 . S
H1194 C1206 0.950 . S
H1195 C1207 0.950 . S
C1196 H1188 0.950 . S
C1196 C1197 1.386 . S
C1196 C1198 1.391 . S
C1197 C1196 1.386 . S
C1197 C1201 1.393 . S
C1198 H1190 0.950 . S
C1198 C1196 1.391 . S
C1198 C1199 1.400 . S
C1199 C1198 1.400 . S
C1199 C1200 1.398 . S
C1199 C1205 1.491 . S
C1200 H1191 0.950 . S
C1200 C1199 1.398 . S
C1200 C1201 1.391 . S
C1201 H1189 0.950 . S
C1201 C1197 1.393 . S
C1201 C1200 1.391 . S
C1202 H1192 0.950 . S
C1202 C1203 1.386 . S
C1202 C1204 1.391 . S
C1203 C1202 1.386 . S
C1203 C1207 1.393 . S
C1204 H1193 0.950 . S
C1204 C1202 1.391 . S
C1204 C1205 1.400 . S
C1205 C1199 1.491 . S
C1205 C1204 1.400 . S
C1205 C1206 1.398 . S
C1206 H1194 0.950 . S
C1206 C1205 1.398 . S
C1206 C1207 1.391 . S
C1207 H1195 0.950 . S
C1207 C1203 1.393 . S
C1207 C1206 1.391 . S
H1208 C1216 0.950 . S
H1209 C1221 0.950 . S
H1210 C1218 0.950 . S
H1211 C1220 0.950 . S
H1212 C1222 0.950 . S
H1213 C1224 0.950 . S
H1214 C1226 0.950 . S
H1215 C1227 0.950 . S
C1216 H1208 0.950 . S
C1216 C1217 1.386 . S
C1216 C1218 1.391 . S
C1217 C1216 1.386 . S
C1217 C1221 1.393 . S
C1218 H1210 0.950 . S
C1218 C1216 1.391 . S
C1218 C1219 1.400 . S
C1219 C1218 1.400 . S
C1219 C1220 1.398 . S
C1219 C1225 1.491 . S
C1220 H1211 0.950 . S
C1220 C1219 1.398 . S
C1220 C1221 1.391 . S
C1221 H1209 0.950 . S
C1221 C1217 1.393 . S
C1221 C1220 1.391 . S
C1222 H1212 0.950 . S
C1222 C1223 1.386 . S
C1222 C1224 1.391 . S
C1223 C1222 1.386 . S
C1223 C1227 1.393 . S
C1224 H1213 0.950 . S
C1224 C1222 1.391 . S
C1224 C1225 1.400 . S
C1225 C1219 1.491 . S
C1225 C1224 1.400 . S
C1225 C1226 1.398 . S
C1226 H1214 0.950 . S
C1226 C1225 1.398 . S
C1226 C1227 1.391 . S
C1227 H1215 0.950 . S
C1227 C1223 1.393 . S
C1227 C1226 1.391 . S
H1228 C1236 0.950 . S
H1229 C1241 0.950 . S
H1230 C1238 0.950 . S
H1231 C1240 0.950 . S
H1232 C1242 0.950 . S
H1233 C1244 0.950 . S
H1234 C1246 0.950 . S
H1235 C1247 0.950 . S
C1236 H1228 0.950 . S
C1236 C1237 1.386 . S
C1236 C1238 1.391 . S
C1237 C1236 1.386 . S
C1237 C1241 1.393 . S
C1238 H1230 0.950 . S
C1238 C1236 1.391 . S
C1238 C1239 1.400 . S
C1239 C1238 1.400 . S
C1239 C1240 1.398 . S
C1239 C1245 1.491 . S
C1240 H1231 0.950 . S
C1240 C1239 1.398 . S
C1240 C1241 1.391 . S
C1241 H1229 0.950 . S
C1241 C1237 1.393 . S
C1241 C1240 1.391 . S
C1242 H1232 0.950 . S
C1242 C1243 1.386 . S
C1242 C1244 1.391 . S
C1243 C1242 1.386 . S
C1243 C1247 1.393 . S
C1244 H1233 0.950 . S
C1244 C1242 1.391 . S
C1244 C1245 1.400 . S
C1245 C1239 1.491 . S
C1245 C1244 1.400 . S
C1245 C1246 1.398 . S
C1246 H1234 0.950 . S
C1246 C1245 1.398 . S
C1246 C1247 1.391 . S
C1247 H1235 0.950 . S
C1247 C1243 1.393 . S
C1247 C1246 1.391 . S
H1248 C1256 0.950 . S
H1249 C1261 0.950 . S
H1250 C1258 0.950 . S
H1251 C1260 0.950 . S
H1252 C1262 0.950 . S
H1253 C1264 0.950 . S
H1254 C1266 0.950 . S
H1255 C1267 0.950 . S
C1256 H1248 0.950 . S
C1256 C1257 1.386 . S
C1256 C1258 1.391 . S
C1257 C1256 1.386 . S
C1257 C1261 1.393 . S
C1258 H1250 0.950 . S
C1258 C1256 1.391 . S
C1258 C1259 1.400 . S
C1259 C1258 1.400 . S
C1259 C1260 1.398 . S
C1259 C1265 1.491 . S
C1260 H1251 0.950 . S
C1260 C1259 1.398 . S
C1260 C1261 1.391 . S
C1261 H1249 0.950 . S
C1261 C1257 1.393 . S
C1261 C1260 1.391 . S
C1262 H1252 0.950 . S
C1262 C1263 1.386 . S
C1262 C1264 1.391 . S
C1263 C1262 1.386 . S
C1263 C1267 1.393 . S
C1264 H1253 0.950 . S
C1264 C1262 1.391 . S
C1264 C1265 1.400 . S
C1265 C1259 1.491 . S
C1265 C1264 1.400 . S
C1265 C1266 1.398 . S
C1266 H1254 0.950 . S
C1266 C1265 1.398 . S
C1266 C1267 1.391 . S
C1267 H1255 0.950 . S
C1267 C1263 1.393 . S
C1267 C1266 1.391 . S
H1268 C1276 0.950 . S
H1269 C1281 0.950 . S
H1270 C1278 0.950 . S
H1271 C1280 0.950 . S
H1272 C1282 0.950 . S
H1273 C1284 0.950 . S
H1274 C1286 0.950 . S
H1275 C1287 0.950 . S
C1276 H1268 0.950 . S
C1276 C1277 1.386 . S
C1276 C1278 1.391 . S
C1277 C1276 1.386 . S
C1277 C1281 1.393 . S
C1278 H1270 0.950 . S
C1278 C1276 1.391 . S
C1278 C1279 1.400 . S
C1279 C1278 1.400 . S
C1279 C1280 1.398 . S
C1279 C1285 1.491 . S
C1280 H1271 0.950 . S
C1280 C1279 1.398 . S
C1280 C1281 1.391 . S
C1281 H1269 0.950 . S
C1281 C1277 1.393 . S
C1281 C1280 1.391 . S
C1282 H1272 0.950 . S
C1282 C1283 1.386 . S
C1282 C1284 1.391 . S
C1283 C1282 1.386 . S
C1283 C1287 1.393 . S
C1284 H1273 0.950 . S
C1284 C1282 1.391 . S
C1284 C1285 1.400 . S
C1285 C1279 1.491 . S
C1285 C1284 1.400 . S
C1285 C1286 1.398 . S
C1286 H1274 0.950 . S
C1286 C1285 1.398 . S
C1286 C1287 1.391 . S
C1287 H1275 0.950 . S
C1287 C1283 1.393 . S
C1287 C1286 1.391 . S
H1288 C1296 0.950 . S
H1289 C1301 0.950 . S
H1290 C1298 0.950 . S
H1291 C1300 0.950 . S
H1292 C1302 0.950 . S
H1293 C1304 0.950 . S
H1294 C1306 0.950 . S
H1295 C1307 0.950 . S
C1296 H1288 0.950 . S
C1296 C1297 1.386 . S
C1296 C1298 1.391 . S
C1297 C1296 1.386 . S
C1297 C1301 1.393 . S
C1298 H1290 0.950 . S
C1298 C1296 1.391 . S
C1298 C1299 1.400 . S
C1299 C1298 1.400 . S
C1299 C1300 1.398 . S
C1299 C1305 1.491 . S
C1300 H1291 0.950 . S
C1300 C1299 1.398 . S
C1300 C1301 1.391 . S
C1301 H1289 0.950 . S
C1301 C1297 1.393 . S
C1301 C1300 1.391 . S
C1302 H1292 0.950 . S
C1302 C1303 1.386 . S
C1302 C1304 1.391 . S
C1303 C1302 1.386 . S
C1303 C1307 1.393 . S
C1304 H1293 0.950 . S
C1304 C1302 1.391 . S
C1304 C1305 1.400 . S
C1305 C1299 1.491 . S
C1305 C1304 1.400 . S
C1305 C1306 1.398 . S
C1306 H1294 0.950 . S
C1306 C1305 1.398 . S
C1306 C1307 1.391 . S
C1307 H1295 0.950 . S
C1307 C1303 1.393 . S
C1307 C1306 1.391 . S
H1308 C1316 0.950 . S
H1309 C1321 0.950 . S
H1310 C1318 0.950 . S
H1311 C1320 0.950 . S
H1312 C1322 0.950 . S
H1313 C1324 0.950 . S
H1314 C1326 0.950 . S
H1315 C1327 0.950 . S
C1316 H1308 0.950 . S
C1316 C1317 1.386 . S
C1316 C1318 1.391 . S
C1317 C1316 1.386 . S
C1317 C1321 1.393 . S
C1318 H1310 0.950 . S
C1318 C1316 1.391 . S
C1318 C1319 1.400 . S
C1319 C1318 1.400 . S
C1319 C1320 1.398 . S
C1319 C1325 1.491 . S
C1320 H1311 0.950 . S
C1320 C1319 1.398 . S
C1320 C1321 1.391 . S
C1321 H1309 0.950 . S
C1321 C1317 1.393 . S
C1321 C1320 1.391 . S
C1322 H1312 0.950 . S
C1322 C1323 1.386 . S
C1322 C1324 1.391 . S
C1323 C1322 1.386 . S
C1323 C1327 1.393 . S
C1324 H1313 0.950 . S
C1324 C1322 1.391 . S
C1324 C1325 1.400 . S
C1325 C1319 1.491 . S
C1325 C1324 1.400 . S
C1325 C1326 1.398 . S
C1326 H1314 0.950 . S
C1326 C1325 1.398 . S
C1326 C1327 1.391 . S
C1327 H1315 0.950 . S
C1327 C1323 1.393 . S
C1327 C1326 1.391 . S
H1328 C1336 0.950 . S
H1329 C1341 0.950 . S
H1330 C1338 0.950 . S
H1331 C1340 0.950 . S
H1332 C1342 0.950 . S
H1333 C1344 0.950 . S
H1334 C1346 0.950 . S
H1335 C1347 0.950 . S
C1336 H1328 0.950 . S
C1336 C1337 1.386 1_554 S
C1336 C1338 1.391 . S
C1337 C1336 1.386 1_556 S
C1337 C1341 1.393 . S
C1338 H1330 0.950 . S
C1338 C1336 1.391 . S
C1338 C1339 1.410 . S
C1339 C1338 1.410 . S
C1339 C1340 1.386 1_554 S
C1339 C1345 1.494 . S
C1340 H1331 0.950 . S
C1340 C1339 1.386 1_556 S
C1340 C1341 1.391 . S
C1341 H1329 0.950 . S
C1341 C1337 1.393 . S
C1341 C1340 1.391 . S
C1342 H1332 0.950 . S
C1342 C1343 1.386 1_556 S
C1342 C1344 1.391 . S
C1343 C1342 1.386 1_554 S
C1343 C1347 1.393 . S
C1344 H1333 0.950 . S
C1344 C1342 1.391 . S
C1344 C1345 1.400 1_556 S
C1345 C1339 1.494 . S
C1345 C1344 1.400 1_554 S
C1345 C1346 1.398 . S
C1346 H1334 0.950 . S
C1346 C1345 1.398 . S
C1346 C1347 1.391 . S
C1347 H1335 0.950 . S
C1347 C1343 1.393 . S
C1347 C1346 1.391 . S
H1348 C1356 0.950 . S
H1349 C1361 0.950 . S
H1350 C1358 0.950 . S
H1351 C1360 0.950 . S
H1352 C1362 0.950 . S
H1353 C1364 0.950 . S
H1354 C1366 0.950 . S
H1355 C1367 0.950 . S
C1356 H1348 0.950 . S
C1356 C1357 1.386 . S
C1356 C1358 1.391 . S
C1357 C1356 1.386 . S
C1357 C1361 1.393 . S
C1358 H1350 0.950 . S
C1358 C1356 1.391 . S
C1358 C1359 1.400 . S
C1359 C1358 1.400 . S
C1359 C1360 1.398 . S
C1359 C1365 1.491 . S
C1360 H1351 0.950 . S
C1360 C1359 1.398 . S
C1360 C1361 1.391 . S
C1361 H1349 0.950 . S
C1361 C1357 1.393 . S
C1361 C1360 1.391 . S
C1362 H1352 0.950 . S
C1362 C1363 1.386 . S
C1362 C1364 1.391 . S
C1363 C1362 1.386 . S
C1363 C1367 1.393 . S
C1364 H1353 0.950 . S
C1364 C1362 1.391 . S
C1364 C1365 1.400 . S
C1365 C1359 1.491 . S
C1365 C1364 1.400 . S
C1365 C1366 1.398 . S
C1366 H1354 0.950 . S
C1366 C1365 1.398 . S
C1366 C1367 1.391 . S
C1367 H1355 0.950 . S
C1367 C1363 1.393 . S
C1367 C1366 1.391 . S
H1368 C1376 0.950 . S
H1369 C1381 0.950 . S
H1370 C1378 0.950 . S
H1371 C1380 0.950 . S
H1372 C1382 0.950 . S
H1373 C1384 0.950 . S
H1374 C1386 0.950 . S
H1375 C1387 0.950 . S
C1376 H1368 0.950 . S
C1376 C1377 1.386 . S
C1376 C1378 1.391 . S
C1377 C1376 1.386 . S
C1377 C1381 1.393 . S
C1378 H1370 0.950 . S
C1378 C1376 1.391 . S
C1378 C1379 1.400 . S
C1379 C1378 1.400 . S
C1379 C1380 1.398 . S
C1379 C1385 1.491 . S
C1380 H1371 0.950 . S
C1380 C1379 1.398 . S
C1380 C1381 1.391 . S
C1381 H1369 0.950 . S
C1381 C1377 1.393 . S
C1381 C1380 1.391 . S
C1382 H1372 0.950 . S
C1382 C1383 1.386 . S
C1382 C1384 1.391 . S
C1383 C1382 1.386 . S
C1383 C1387 1.393 . S
C1384 H1373 0.950 . S
C1384 C1382 1.391 . S
C1384 C1385 1.400 . S
C1385 C1379 1.491 . S
C1385 C1384 1.400 . S
C1385 C1386 1.398 . S
C1386 H1374 0.950 . S
C1386 C1385 1.398 . S
C1386 C1387 1.391 . S
C1387 H1375 0.950 . S
C1387 C1383 1.393 . S
C1387 C1386 1.391 . S
H1388 C1396 0.950 . S
H1389 C1401 0.950 . S
H1390 C1398 0.950 . S
H1391 C1400 0.950 . S
H1392 C1402 0.950 . S
H1393 C1404 0.950 . S
H1394 C1406 0.950 . S
H1395 C1407 0.950 . S
C1396 H1388 0.950 . S
C1396 C1397 1.386 . S
C1396 C1398 1.391 . S
C1397 C1396 1.386 . S
C1397 C1401 1.393 . S
C1398 H1390 0.950 . S
C1398 C1396 1.391 . S
C1398 C1399 1.400 . S
C1399 C1398 1.400 . S
C1399 C1400 1.398 . S
C1399 C1405 1.491 . S
C1400 H1391 0.950 . S
C1400 C1399 1.398 . S
C1400 C1401 1.391 . S
C1401 H1389 0.950 . S
C1401 C1397 1.393 . S
C1401 C1400 1.391 . S
C1402 H1392 0.950 . S
C1402 C1403 1.386 . S
C1402 C1404 1.391 . S
C1403 C1402 1.386 . S
C1403 C1407 1.393 . S
C1404 H1393 0.950 . S
C1404 C1402 1.391 . S
C1404 C1405 1.400 . S
C1405 C1399 1.491 . S
C1405 C1404 1.400 . S
C1405 C1406 1.398 . S
C1406 H1394 0.950 . S
C1406 C1405 1.398 . S
C1406 C1407 1.391 . S
C1407 H1395 0.950 . S
C1407 C1403 1.393 . S
C1407 C1406 1.391 . S
H1408 C1416 0.950 . S
H1409 C1421 0.950 . S
H1410 C1418 0.950 . S
H1411 C1420 0.950 . S
H1412 C1422 0.950 . S
H1413 C1424 0.950 . S
H1414 C1426 0.950 . S
H1415 C1427 0.950 . S
C1416 H1408 0.950 . S
C1416 C1417 1.386 . S
C1416 C1418 1.391 . S
C1417 C1416 1.386 . S
C1417 C1421 1.393 . S
C1418 H1410 0.950 . S
C1418 C1416 1.391 . S
C1418 C1419 1.400 . S
C1419 C1418 1.400 . S
C1419 C1420 1.398 . S
C1419 C1425 1.491 . S
C1420 H1411 0.950 . S
C1420 C1419 1.398 . S
C1420 C1421 1.391 . S
C1421 H1409 0.950 . S
C1421 C1417 1.393 . S
C1421 C1420 1.391 . S
C1422 H1412 0.950 . S
C1422 C1423 1.386 . S
C1422 C1424 1.391 . S
C1423 C1422 1.386 . S
C1423 C1427 1.393 . S
C1424 H1413 0.950 . S
C1424 C1422 1.391 . S
C1424 C1425 1.400 . S
C1425 C1419 1.491 . S
C1425 C1424 1.400 . S
C1425 C1426 1.398 . S
C1426 H1414 0.950 . S
C1426 C1425 1.398 . S
C1426 C1427 1.391 . S
C1427 H1415 0.950 . S
C1427 C1423 1.393 . S
C1427 C1426 1.391 . S
H1428 C1436 0.950 . S
H1429 C1441 0.950 1_556 S
H1430 C1438 0.950 . S
H1431 C1440 0.952 . S
H1432 C1442 0.950 . S
H1433 C1444 0.950 . S
H1434 C1446 0.950 . S
H1435 C1447 0.950 . S
C1436 H1428 0.950 . S
C1436 C1437 1.386 . S
C1436 C1438 1.391 . S
C1437 C1436 1.386 . S
C1437 C1441 1.393 . S
C1438 H1430 0.950 . S
C1438 C1436 1.391 . S
C1438 C1439 1.400 . S
C1439 C1438 1.400 . S
C1439 C1440 1.397 1_554 S
C1439 C1445 1.491 . S
C1440 H1431 0.952 . S
C1440 C1439 1.397 1_556 S
C1440 C1441 1.390 1_556 S
C1441 H1429 0.950 1_554 S
C1441 C1437 1.393 . S
C1441 C1440 1.390 1_554 S
C1442 H1432 0.950 . S
C1442 C1443 1.386 . S
C1442 C1444 1.391 . S
C1443 C1442 1.386 . S
C1443 C1447 1.393 1_556 S
C1444 H1433 0.950 . S
C1444 C1442 1.391 . S
C1444 C1445 1.400 1_556 S
C1445 C1439 1.491 . S
C1445 C1444 1.400 1_554 S
C1445 C1446 1.398 . S
C1446 H1434 0.950 . S
C1446 C1445 1.398 . S
C1446 C1447 1.391 . S
C1447 H1435 0.950 . S
C1447 C1443 1.393 1_554 S
C1447 C1446 1.391 . S
H1448 C1456 0.950 . S
H1449 C1461 0.950 . S
H1450 C1458 0.950 . S
H1451 C1460 0.950 . S
H1452 C1462 0.950 . S
H1453 C1464 0.950 . S
H1454 C1466 0.950 . S
H1455 C1467 0.950 . S
C1456 H1448 0.950 . S
C1456 C1457 1.386 . S
C1456 C1458 1.391 . S
C1457 C1456 1.386 . S
C1457 C1461 1.393 . S
C1458 H1450 0.950 . S
C1458 C1456 1.391 . S
C1458 C1459 1.400 . S
C1459 C1458 1.400 . S
C1459 C1460 1.398 . S
C1459 C1465 1.491 . S
C1460 H1451 0.950 . S
C1460 C1459 1.398 . S
C1460 C1461 1.391 . S
C1461 H1449 0.950 . S
C1461 C1457 1.393 . S
C1461 C1460 1.391 . S
C1462 H1452 0.950 . S
C1462 C1463 1.386 . S
C1462 C1464 1.391 . S
C1463 C1462 1.386 . S
C1463 C1467 1.393 . S
C1464 H1453 0.950 . S
C1464 C1462 1.391 . S
C1464 C1465 1.400 . S
C1465 C1459 1.491 . S
C1465 C1464 1.400 . S
C1465 C1466 1.398 . S
C1466 H1454 0.950 . S
C1466 C1465 1.398 . S
C1466 C1467 1.391 . S
C1467 H1455 0.950 . S
C1467 C1463 1.393 . S
C1467 C1466 1.391 . S
H1468 C1476 0.950 . S
H1469 C1481 0.950 . S
H1470 C1478 0.950 . S
H1471 C1480 0.950 . S
H1472 C1482 0.950 . S
H1473 C1484 0.950 . S
H1474 C1486 0.950 . S
H1475 C1487 0.950 . S
C1476 H1468 0.950 . S
C1476 C1477 1.386 . S
C1476 C1478 1.391 . S
C1477 C1476 1.386 . S
C1477 C1481 1.393 . S
C1478 H1470 0.950 . S
C1478 C1476 1.391 . S
C1478 C1479 1.400 . S
C1479 C1478 1.400 . S
C1479 C1480 1.398 . S
C1479 C1485 1.491 . S
C1480 H1471 0.950 . S
C1480 C1479 1.398 . S
C1480 C1481 1.391 . S
C1481 H1469 0.950 . S
C1481 C1477 1.393 . S
C1481 C1480 1.391 . S
C1482 H1472 0.950 . S
C1482 C1483 1.386 . S
C1482 C1484 1.391 . S
C1483 C1482 1.386 . S
C1483 C1487 1.393 . S
C1484 H1473 0.950 . S
C1484 C1482 1.391 . S
C1484 C1485 1.400 . S
C1485 C1479 1.491 . S
C1485 C1484 1.400 . S
C1485 C1486 1.398 . S
C1486 H1474 0.950 . S
C1486 C1485 1.398 . S
C1486 C1487 1.391 . S
C1487 H1475 0.950 . S
C1487 C1483 1.393 . S
C1487 C1486 1.391 . S
H1488 C1496 0.950 . S
H1489 C1501 0.950 . S
H1490 C1498 0.950 . S
H1491 C1500 0.950 . S
H1492 C1502 0.950 . S
H1493 C1504 0.950 . S
H1494 C1506 0.950 . S
H1495 C1507 0.950 . S
C1496 H1488 0.950 . S
C1496 C1497 1.386 . S
C1496 C1498 1.391 . S
C1497 C1496 1.386 . S
C1497 C1501 1.393 . S
C1498 H1490 0.950 . S
C1498 C1496 1.391 . S
C1498 C1499 1.400 . S
C1499 C1498 1.400 . S
C1499 C1500 1.398 . S
C1499 C1505 1.491 . S
C1500 H1491 0.950 . S
C1500 C1499 1.398 . S
C1500 C1501 1.391 . S
C1501 H1489 0.950 . S
C1501 C1497 1.393 . S
C1501 C1500 1.391 . S
C1502 H1492 0.950 . S
C1502 C1503 1.386 . S
C1502 C1504 1.391 . S
C1503 C1502 1.386 . S
C1503 C1507 1.393 . S
C1504 H1493 0.950 . S
C1504 C1502 1.391 . S
C1504 C1505 1.400 . S
C1505 C1499 1.491 . S
C1505 C1504 1.400 . S
C1505 C1506 1.398 . S
C1506 H1494 0.950 . S
C1506 C1505 1.398 . S
C1506 C1507 1.391 . S
C1507 H1495 0.950 . S
C1507 C1503 1.393 . S
C1507 C1506 1.391 . S
H1508 C1516 0.950 . S
H1509 C1521 0.950 . S
H1510 C1518 0.950 . S
H1511 C1520 0.950 . S
H1512 C1522 0.950 . S
H1513 C1524 0.950 . S
H1514 C1526 0.950 . S
H1515 C1527 0.950 . S
C1516 H1508 0.950 . S
C1516 C1517 1.386 . S
C1516 C1518 1.391 . S
C1517 C1516 1.386 . S
C1517 C1521 1.393 . S
C1518 H1510 0.950 . S
C1518 C1516 1.391 . S
C1518 C1519 1.400 . S
C1519 C1518 1.400 . S
C1519 C1520 1.398 . S
C1519 C1525 1.491 . S
C1520 H1511 0.950 . S
C1520 C1519 1.398 . S
C1520 C1521 1.391 . S
C1521 H1509 0.950 . S
C1521 C1517 1.393 . S
C1521 C1520 1.391 . S
C1522 H1512 0.950 . S
C1522 C1523 1.386 . S
C1522 C1524 1.391 . S
C1523 C1522 1.386 . S
C1523 C1527 1.393 . S
C1524 H1513 0.950 . S
C1524 C1522 1.391 . S
C1524 C1525 1.400 . S
C1525 C1519 1.491 . S
C1525 C1524 1.400 . S
C1525 C1526 1.398 . S
C1526 H1514 0.950 . S
C1526 C1525 1.398 . S
C1526 C1527 1.391 . S
C1527 H1515 0.950 . S
C1527 C1523 1.393 . S
C1527 C1526 1.391 . S
H1528 C1536 0.950 . S
H1529 C1541 0.950 . S
H1530 C1538 0.950 . S
H1531 C1540 0.950 . S
H1532 C1542 0.950 . S
H1533 C1544 0.950 . S
H1534 C1546 0.950 . S
H1535 C1547 0.950 . S
C1536 H1528 0.950 . S
C1536 C1537 1.386 . S
C1536 C1538 1.391 . S
C1537 C1536 1.386 . S
C1537 C1541 1.393 . S
C1538 H1530 0.950 . S
C1538 C1536 1.391 . S
C1538 C1539 1.400 . S
C1539 C1538 1.400 . S
C1539 C1540 1.398 . S
C1539 C1545 1.491 . S
C1540 H1531 0.950 . S
C1540 C1539 1.398 . S
C1540 C1541 1.391 . S
C1541 H1529 0.950 . S
C1541 C1537 1.393 . S
C1541 C1540 1.391 . S
C1542 H1532 0.950 . S
C1542 C1543 1.386 . S
C1542 C1544 1.391 . S
C1543 C1542 1.386 . S
C1543 C1547 1.393 . S
C1544 H1533 0.950 . S
C1544 C1542 1.391 . S
C1544 C1545 1.400 . S
C1545 C1539 1.491 . S
C1545 C1544 1.400 . S
C1545 C1546 1.398 . S
C1546 H1534 0.950 . S
C1546 C1545 1.398 . S
C1546 C1547 1.391 . S
C1547 H1535 0.950 . S
C1547 C1543 1.393 . S
C1547 C1546 1.391 . S
H1548 C1556 0.950 . S
H1549 C1561 0.950 . S
H1550 C1558 0.950 . S
H1551 C1560 0.950 . S
H1552 C1562 0.950 . S
H1553 C1564 0.950 . S
H1554 C1566 0.950 . S
H1555 C1567 0.950 . S
C1556 H1548 0.950 . S
C1556 C1557 1.386 . S
C1556 C1558 1.391 . S
C1557 C1556 1.386 . S
C1557 C1561 1.393 . S
C1558 H1550 0.950 . S
C1558 C1556 1.391 . S
C1558 C1559 1.400 . S
C1559 C1558 1.400 . S
C1559 C1560 1.398 . S
C1559 C1565 1.491 . S
C1560 H1551 0.950 . S
C1560 C1559 1.398 . S
C1560 C1561 1.391 . S
C1561 H1549 0.950 . S
C1561 C1557 1.393 . S
C1561 C1560 1.391 . S
C1562 H1552 0.950 . S
C1562 C1563 1.386 . S
C1562 C1564 1.391 . S
C1563 C1562 1.386 . S
C1563 C1567 1.393 . S
C1564 H1553 0.950 . S
C1564 C1562 1.391 . S
C1564 C1565 1.400 . S
C1565 C1559 1.491 . S
C1565 C1564 1.400 . S
C1565 C1566 1.398 . S
C1566 H1554 0.950 . S
C1566 C1565 1.398 . S
C1566 C1567 1.391 . S
C1567 H1555 0.950 . S
C1567 C1563 1.393 . S
C1567 C1566 1.391 . S
H1568 C1576 0.950 . S
H1569 C1581 0.950 . S
H1570 C1578 0.950 . S
H1571 C1580 0.950 . S
H1572 C1582 0.950 . S
H1573 C1584 0.950 . S
H1574 C1586 0.950 . S
H1575 C1587 0.950 . S
C1576 H1568 0.950 . S
C1576 C1577 1.386 . S
C1576 C1578 1.391 . S
C1577 C1576 1.386 . S
C1577 C1581 1.393 . S
C1578 H1570 0.950 . S
C1578 C1576 1.391 . S
C1578 C1579 1.400 . S
C1579 C1578 1.400 . S
C1579 C1580 1.398 . S
C1579 C1585 1.491 . S
C1580 H1571 0.950 . S
C1580 C1579 1.398 . S
C1580 C1581 1.391 . S
C1581 H1569 0.950 . S
C1581 C1577 1.393 . S
C1581 C1580 1.391 . S
C1582 H1572 0.950 . S
C1582 C1583 1.386 . S
C1582 C1584 1.391 . S
C1583 C1582 1.386 . S
C1583 C1587 1.393 . S
C1584 H1573 0.950 . S
C1584 C1582 1.391 . S
C1584 C1585 1.400 . S
C1585 C1579 1.491 . S
C1585 C1584 1.400 . S
C1585 C1586 1.398 . S
C1586 H1574 0.950 . S
C1586 C1585 1.398 . S
C1586 C1587 1.391 . S
C1587 H1575 0.950 . S
C1587 C1583 1.393 . S
C1587 C1586 1.391 . S
H1588 C1596 0.950 . S
H1589 C1601 0.950 . S
H1590 C1598 0.950 . S
H1591 C1600 0.950 . S
H1592 C1602 0.950 . S
H1593 C1604 0.950 . S
H1594 C1606 0.950 . S
H1595 C1607 0.950 . S
C1596 H1588 0.950 . S
C1596 C1597 1.386 . S
C1596 C1598 1.391 . S
C1597 C1596 1.386 . S
C1597 C1601 1.393 . S
C1598 H1590 0.950 . S
C1598 C1596 1.391 . S
C1598 C1599 1.400 . S
C1599 C1598 1.400 . S
C1599 C1600 1.398 . S
C1599 C1605 1.491 . S
C1600 H1591 0.950 . S
C1600 C1599 1.398 . S
C1600 C1601 1.391 . S
C1601 H1589 0.950 . S
C1601 C1597 1.393 . S
C1601 C1600 1.391 . S
C1602 H1592 0.950 . S
C1602 C1603 1.386 . S
C1602 C1604 1.391 . S
C1603 C1602 1.386 . S
C1603 C1607 1.393 . S
C1604 H1593 0.950 . S
C1604 C1602 1.391 . S
C1604 C1605 1.400 . S
C1605 C1599 1.491 . S
C1605 C1604 1.400 . S
C1605 C1606 1.398 . S
C1606 H1594 0.950 . S
C1606 C1605 1.398 . S
C1606 C1607 1.391 . S
C1607 H1595 0.950 . S
C1607 C1603 1.393 . S
C1607 C1606 1.391 . S
H1608 C1616 0.950 . S
H1609 C1621 0.950 . S
H1610 C1618 0.950 . S
H1611 C1620 0.950 . S
H1612 C1622 0.950 . S
H1613 C1624 0.950 . S
H1614 C1626 0.950 . S
H1615 C1627 0.950 . S
C1616 H1608 0.950 . S
C1616 C1617 1.386 . S
C1616 C1618 1.391 . S
C1617 C1616 1.386 . S
C1617 C1621 1.393 . S
C1618 H1610 0.950 . S
C1618 C1616 1.391 . S
C1618 C1619 1.400 . S
C1619 C1618 1.400 . S
C1619 C1620 1.398 . S
C1619 C1625 1.491 . S
C1620 H1611 0.950 . S
C1620 C1619 1.398 . S
C1620 C1621 1.391 . S
C1621 H1609 0.950 . S
C1621 C1617 1.393 . S
C1621 C1620 1.391 . S
C1622 H1612 0.950 . S
C1622 C1623 1.386 . S
C1622 C1624 1.391 . S
C1623 C1622 1.386 . S
C1623 C1627 1.393 . S
C1624 H1613 0.950 . S
C1624 C1622 1.391 . S
C1624 C1625 1.400 . S
C1625 C1619 1.491 . S
C1625 C1624 1.400 . S
C1625 C1626 1.398 . S
C1626 H1614 0.950 . S
C1626 C1625 1.398 . S
C1626 C1627 1.391 . S
C1627 H1615 0.950 . S
C1627 C1623 1.393 . S
C1627 C1626 1.391 . S
H1628 C1636 0.950 . S
H1629 C1641 0.950 . S
H1630 C1638 0.950 . S
H1631 C1640 0.950 . S
H1632 C1642 0.950 . S
H1633 C1644 0.950 . S
H1634 C1646 0.950 . S
H1635 C1647 0.950 . S
C1636 H1628 0.950 . S
C1636 C1637 1.386 . S
C1636 C1638 1.391 . S
C1637 C1636 1.386 . S
C1637 C1641 1.393 . S
C1638 H1630 0.950 . S
C1638 C1636 1.391 . S
C1638 C1639 1.400 . S
C1639 C1638 1.400 . S
C1639 C1640 1.398 . S
C1639 C1645 1.491 . S
C1640 H1631 0.950 . S
C1640 C1639 1.398 . S
C1640 C1641 1.391 . S
C1641 H1629 0.950 . S
C1641 C1637 1.393 . S
C1641 C1640 1.391 . S
C1642 H1632 0.950 . S
C1642 C1643 1.386 . S
C1642 C1644 1.391 . S
C1643 C1642 1.386 . S
C1643 C1647 1.393 . S
C1644 H1633 0.950 . S
C1644 C1642 1.391 . S
C1644 C1645 1.400 . S
C1645 C1639 1.491 . S
C1645 C1644 1.400 . S
C1645 C1646 1.398 . S
C1646 H1634 0.950 . S
C1646 C1645 1.398 . S
C1646 C1647 1.391 . S
C1647 H1635 0.950 . S
C1647 C1643 1.393 . S
C1647 C1646 1.391 . S
H1648 C1656 0.950 . S
H1649 C1661 0.950 . S
H1650 C1658 0.950 . S
H1651 C1660 0.950 . S
H1652 C1662 0.950 . S
H1653 C1664 0.950 . S
H1654 C1666 0.950 . S
H1655 C1667 0.950 . S
C1656 H1648 0.950 . S
C1656 C1657 1.386 . S
C1656 C1658 1.391 . S
C1657 C1656 1.386 . S
C1657 C1661 1.393 . S
C1658 H1650 0.950 . S
C1658 C1656 1.391 . S
C1658 C1659 1.400 . S
C1659 C1658 1.400 . S
C1659 C1660 1.398 . S
C1659 C1665 1.491 . S
C1660 H1651 0.950 . S
C1660 C1659 1.398 . S
C1660 C1661 1.391 . S
C1661 H1649 0.950 . S
C1661 C1657 1.393 . S
C1661 C1660 1.391 . S
C1662 H1652 0.950 . S
C1662 C1663 1.386 . S
C1662 C1664 1.391 . S
C1663 C1662 1.386 . S
C1663 C1667 1.393 . S
C1664 H1653 0.950 . S
C1664 C1662 1.391 . S
C1664 C1665 1.400 . S
C1665 C1659 1.491 . S
C1665 C1664 1.400 . S
C1665 C1666 1.398 . S
C1666 H1654 0.950 . S
C1666 C1665 1.398 . S
C1666 C1667 1.391 . S
C1667 H1655 0.950 . S
C1667 C1663 1.393 . S
C1667 C1666 1.391 . S
H1668 C1676 0.950 . S
H1669 C1681 0.950 . S
H1670 C1678 0.950 . S
H1671 C1680 0.950 . S
H1672 C1682 0.950 . S
H1673 C1684 0.950 . S
H1674 C1686 0.950 . S
H1675 C1687 0.950 . S
C1676 H1668 0.950 . S
C1676 C1677 1.386 . S
C1676 C1678 1.391 . S
C1677 C1676 1.386 . S
C1677 C1681 1.393 . S
C1678 H1670 0.950 . S
C1678 C1676 1.391 . S
C1678 C1679 1.400 . S
C1679 C1678 1.400 . S
C1679 C1680 1.398 . S
C1679 C1685 1.491 . S
C1680 H1671 0.950 . S
C1680 C1679 1.398 . S
C1680 C1681 1.391 . S
C1681 H1669 0.950 . S
C1681 C1677 1.393 . S
C1681 C1680 1.391 . S
C1682 H1672 0.950 . S
C1682 C1683 1.386 . S
C1682 C1684 1.391 . S
C1683 C1682 1.386 . S
C1683 C1687 1.393 . S
C1684 H1673 0.950 . S
C1684 C1682 1.391 . S
C1684 C1685 1.400 . S
C1685 C1679 1.491 . S
C1685 C1684 1.400 . S
C1685 C1686 1.398 . S
C1686 H1674 0.950 . S
C1686 C1685 1.398 . S
C1686 C1687 1.391 . S
C1687 H1675 0.950 . S
C1687 C1683 1.393 . S
C1687 C1686 1.391 . S
H1688 C1696 0.950 . S
H1689 C1701 0.950 . S
H1690 C1698 0.950 . S
H1691 C1700 0.950 . S
H1692 C1702 0.950 . S
H1693 C1704 0.950 . S
H1694 C1706 0.950 . S
H1695 C1707 0.950 . S
C1696 H1688 0.950 . S
C1696 C1697 1.386 . S
C1696 C1698 1.391 . S
C1697 C1696 1.386 . S
C1697 C1701 1.393 . S
C1698 H1690 0.950 . S
C1698 C1696 1.391 . S
C1698 C1699 1.400 . S
C1699 C1698 1.400 . S
C1699 C1700 1.398 . S
C1699 C1705 1.491 . S
C1700 H1691 0.950 . S
C1700 C1699 1.398 . S
C1700 C1701 1.391 . S
C1701 H1689 0.950 . S
C1701 C1697 1.393 . S
C1701 C1700 1.391 . S
C1702 H1692 0.950 . S
C1702 C1703 1.386 . S
C1702 C1704 1.391 . S
C1703 C1702 1.386 . S
C1703 C1707 1.393 . S
C1704 H1693 0.950 . S
C1704 C1702 1.391 . S
C1704 C1705 1.400 . S
C1705 C1699 1.491 . S
C1705 C1704 1.400 . S
C1705 C1706 1.398 . S
C1706 H1694 0.950 . S
C1706 C1705 1.398 . S
C1706 C1707 1.391 . S
C1707 H1695 0.950 . S
C1707 C1703 1.393 . S
C1707 C1706 1.391 . S
H1708 C1716 0.950 . S
H1709 C1721 0.950 . S
H1710 C1718 0.950 . S
H1711 C1720 0.950 . S
H1712 C1722 0.950 . S
H1713 C1724 0.950 . S
H1714 C1726 0.950 . S
H1715 C1727 0.950 . S
C1716 H1708 0.950 . S
C1716 C1717 1.386 . S
C1716 C1718 1.391 . S
C1717 C1716 1.386 . S
C1717 C1721 1.393 . S
C1718 H1710 0.950 . S
C1718 C1716 1.391 . S
C1718 C1719 1.400 . S
C1719 C1718 1.400 . S
C1719 C1720 1.398 . S
C1719 C1725 1.491 . S
C1720 H1711 0.950 . S
C1720 C1719 1.398 . S
C1720 C1721 1.391 . S
C1721 H1709 0.950 . S
C1721 C1717 1.393 . S
C1721 C1720 1.391 . S
C1722 H1712 0.950 . S
C1722 C1723 1.386 . S
C1722 C1724 1.391 . S
C1723 C1722 1.386 . S
C1723 C1727 1.393 . S
C1724 H1713 0.950 . S
C1724 C1722 1.391 . S
C1724 C1725 1.400 . S
C1725 C1719 1.491 . S
C1725 C1724 1.400 . S
C1725 C1726 1.398 . S
C1726 H1714 0.950 . S
C1726 C1725 1.398 . S
C1726 C1727 1.391 . S
C1727 H1715 0.950 . S
C1727 C1723 1.393 . S
C1727 C1726 1.391 . S
C1017 C476 1.331 . S
C1023 C70 1.223 . S
C1037 C154 1.226 . S
C1043 C56 1.339 . S
C1057 C238 1.338 . S
C1063 C140 1.453 . S
C1077 C224 1.335 . S
C1083 C322 1.228 . S
C1097 C308 1.339 . S
C1103 C406 1.214 . S
C1117 C490 1.287 . S
C1123 C392 1.411 . S
C1137 C644 1.362 . S
C1143 C574 1.258 . S
C1157 C658 1.285 . S
C1163 C728 1.410 . S
C1177 C812 1.354 . S
C1183 C742 1.232 . S
C1197 C896 1.339 . S
C1203 C826 1.233 . S
C1217 C980 1.443 . S
C1223 C910 1.331 . S
C1237 C560 1.359 . S
C1243 C994 1.238 . S
C1257 C987 3.461 . S
C1263 C67 3.452 . S
C1277 C151 2.850 . S
C1283 C567 2.859 . S
C1297 C651 3.166 . S
C1303 C235 3.151 . S
C1317 C735 3.463 . S
C1323 C319 3.456 . S
C1337 C819 2.861 . S
C1343 C403 2.846 . S
C1357 C487 3.155 . S
C1363 C903 3.166 . S
C1377 C571 3.449 . S
C1383 C147 3.464 . S
C1397 C655 3.156 . S
C1403 C231 3.166 . S
C1417 C315 2.864 . S
C1423 C739 2.852 . S
C1437 C399 3.464 . S
C1443 C823 3.457 . S
C1457 C907 3.154 . S
C1463 C483 3.166 . S
C1477 C991 2.849 . S
C1483 C63 2.857 . S
C1497 C578 2.695 . S
C1503 C74 2.685 . S
C1517 C158 1.841 . S
C1523 C662 1.848 . S
C1537 C746 1.825 . S
C1543 C242 1.865 . S
C1557 C326 2.693 . S
C1563 C830 2.691 . S
C1577 C914 1.837 . S
C1583 C410 1.827 . S
C1597 C998 1.813 . S
C1603 C494 1.860 . S
C1617 C562 0.731 . S
C1623 C58 0.684 . S
C1637 C646 0.525 . S
C1643 C142 0.407 . S
C1657 C730 0.429 . S
C1663 C226 0.482 . S
C1677 C310 0.697 . S
C1683 C814 0.710 . S
C1697 C898 0.429 . S
C1703 C394 0.498 . S
C1717 C982 0.475 . S
C1723 C478 0.438 . S
