# Generated by pormake.
# Topology unn, (4)-cn, num edge types: 1
# Building blocks:
#     Node 0, Type 0, BuildingBlock: CEKHIL_clean_sbu_0, # of connection points: 4
#     Node 1, Type 0, BuildingBlock: CEKHIL_clean_sbu_0, # of connection points: 4
#     Node 2, Type 0, BuildingBlock: CEKHIL_clean_sbu_0, # of connection points: 4
#     Node 3, Type 0, BuildingBlock: CEKHIL_clean_sbu_0, # of connection points: 4
#     Node 4, Type 0, BuildingBlock: CEKHIL_clean_sbu_0, # of connection points: 4
#     Node 5, Type 0, BuildingBlock: CEKHIL_clean_sbu_0, # of connection points: 4
#     Node 6, Type 0, BuildingBlock: CEKHIL_clean_sbu_0, # of connection points: 4
#     Node 7, Type 0, BuildingBlock: CEKHIL_clean_sbu_0, # of connection points: 4
#     Node 8, Type 0, BuildingBlock: CEKHIL_clean_sbu_0, # of connection points: 4
#     Node 9, Type 0, BuildingBlock: CEKHIL_clean_sbu_0, # of connection points: 4
#     Node 10, Type 0, BuildingBlock: CEKHIL_clean_sbu_0, # of connection points: 4
#     Node 11, Type 0, BuildingBlock: CEKHIL_clean_sbu_0, # of connection points: 4
#     Node 12, Type 0, BuildingBlock: CEKHIL_clean_sbu_0, # of connection points: 4
#     Node 13, Type 0, BuildingBlock: CEKHIL_clean_sbu_0, # of connection points: 4
#     Node 14, Type 0, BuildingBlock: CEKHIL_clean_sbu_0, # of connection points: 4
#     Node 15, Type 0, BuildingBlock: CEKHIL_clean_sbu_0, # of connection points: 4
#     Node 16, Type 0, BuildingBlock: CEKHIL_clean_sbu_0, # of connection points: 4
#     Node 17, Type 0, BuildingBlock: CEKHIL_clean_sbu_0, # of connection points: 4
#     Edge 18, Type (0, 0), BuildingBlock: ZUJKAS_clean_linker_0, # of connection points: 2
#     Edge 19, Type (0, 0), BuildingBlock: ZUJKAS_clean_linker_0, # of connection points: 2
#     Edge 20, Type (0, 0), BuildingBlock: ZUJKAS_clean_linker_0, # of connection points: 2
#     Edge 21, Type (0, 0), BuildingBlock: ZUJKAS_clean_linker_0, # of connection points: 2
#     Edge 22, Type (0, 0), BuildingBlock: ZUJKAS_clean_linker_0, # of connection points: 2
#     Edge 23, Type (0, 0), BuildingBlock: ZUJKAS_clean_linker_0, # of connection points: 2
#     Edge 24, Type (0, 0), BuildingBlock: ZUJKAS_clean_linker_0, # of connection points: 2
#     Edge 25, Type (0, 0), BuildingBlock: ZUJKAS_clean_linker_0, # of connection points: 2
#     Edge 26, Type (0, 0), BuildingBlock: ZUJKAS_clean_linker_0, # of connection points: 2
#     Edge 27, Type (0, 0), BuildingBlock: ZUJKAS_clean_linker_0, # of connection points: 2
#     Edge 28, Type (0, 0), BuildingBlock: ZUJKAS_clean_linker_0, # of connection points: 2
#     Edge 29, Type (0, 0), BuildingBlock: ZUJKAS_clean_linker_0, # of connection points: 2
#     Edge 30, Type (0, 0), BuildingBlock: ZUJKAS_clean_linker_0, # of connection points: 2
#     Edge 31, Type (0, 0), BuildingBlock: ZUJKAS_clean_linker_0, # of connection points: 2
#     Edge 32, Type (0, 0), BuildingBlock: ZUJKAS_clean_linker_0, # of connection points: 2
#     Edge 33, Type (0, 0), BuildingBlock: ZUJKAS_clean_linker_0, # of connection points: 2
#     Edge 34, Type (0, 0), BuildingBlock: ZUJKAS_clean_linker_0, # of connection points: 2
#     Edge 35, Type (0, 0), BuildingBlock: ZUJKAS_clean_linker_0, # of connection points: 2
#     Edge 36, Type (0, 0), BuildingBlock: ZUJKAS_clean_linker_0, # of connection points: 2
#     Edge 37, Type (0, 0), BuildingBlock: ZUJKAS_clean_linker_0, # of connection points: 2
#     Edge 38, Type (0, 0), BuildingBlock: ZUJKAS_clean_linker_0, # of connection points: 2
#     Edge 39, Type (0, 0), BuildingBlock: ZUJKAS_clean_linker_0, # of connection points: 2
#     Edge 40, Type (0, 0), BuildingBlock: ZUJKAS_clean_linker_0, # of connection points: 2
#     Edge 41, Type (0, 0), BuildingBlock: ZUJKAS_clean_linker_0, # of connection points: 2
#     Edge 42, Type (0, 0), BuildingBlock: ZUJKAS_clean_linker_0, # of connection points: 2
#     Edge 43, Type (0, 0), BuildingBlock: ZUJKAS_clean_linker_0, # of connection points: 2
#     Edge 44, Type (0, 0), BuildingBlock: ZUJKAS_clean_linker_0, # of connection points: 2
#     Edge 45, Type (0, 0), BuildingBlock: ZUJKAS_clean_linker_0, # of connection points: 2
#     Edge 46, Type (0, 0), BuildingBlock: ZUJKAS_clean_linker_0, # of connection points: 2
#     Edge 47, Type (0, 0), BuildingBlock: ZUJKAS_clean_linker_0, # of connection points: 2
#     Edge 48, Type (0, 0), BuildingBlock: ZUJKAS_clean_linker_0, # of connection points: 2
#     Edge 49, Type (0, 0), BuildingBlock: ZUJKAS_clean_linker_0, # of connection points: 2
#     Edge 50, Type (0, 0), BuildingBlock: ZUJKAS_clean_linker_0, # of connection points: 2
#     Edge 51, Type (0, 0), BuildingBlock: ZUJKAS_clean_linker_0, # of connection points: 2
#     Edge 52, Type (0, 0), BuildingBlock: ZUJKAS_clean_linker_0, # of connection points: 2
#     Edge 53, Type (0, 0), BuildingBlock: ZUJKAS_clean_linker_0, # of connection points: 2
# Relax obj value: 0.132
# Max RMSD: 0.233
# Mean RMSD: 0.227
data_MOF--net-unn--node1-CEKHIL_clean_sbu_0--edge1-ZUJKAS_clean_linker_0
_symmetry_space_group_name_H-M    P1
_symmetry_Int_Tables_number       1
_symmetry_cell_setting            triclinic
loop_
_symmetry_equiv_pos_as_xyz
'x, y, z'
_cell_length_a     60.437796
_cell_length_b     60.243042
_cell_length_c     48.387191
_cell_angle_alpha  90.249271
_cell_angle_beta   89.888119
_cell_angle_gamma 120.22785
loop_
_atom_site_label
_atom_site_type_symbol
_atom_site_fract_x
_atom_site_fract_y
_atom_site_fract_z
_atom_type_partial_charge
Co0 Co 0.99812 0.74395 0.26007 0.0
O1 O 0.9617 0.72403 0.25525 0.0
O2 O 0.9864 0.76096 0.23433 0.0
C3 C 0.99922 0.7411 0.30595 0.0
O4 O 0.0371 0.76953 0.2626 0.0
Co5 Co 0.02384 0.71353 0.28129 0.0
O6 O 0.0527 0.74881 0.28777 0.0
C7 C 0.00786 0.70773 0.22379 0.0
C8 C 0.96352 0.74115 0.23794 0.0
C9 C 0.05518 0.76904 0.27654 0.0
O10 O 1.00264 0.72565 0.22779 0.0
O11 O 0.01535 0.69855 0.24303 0.0
O12 O 0.99425 0.7578 0.29499 0.0
O13 O 0.99914 0.72438 0.28903 0.0
Co14 Co 0.26919 0.2718 0.22714 0.0
O15 O 0.25484 0.29281 0.23645 0.0
O16 O 0.23994 0.25354 0.25244 0.0
C17 C 0.27177 0.28112 0.18203 0.0
O18 O 0.2805 0.24521 0.21915 0.0
Co19 Co 0.32454 0.30155 0.20378 0.0
O20 O 0.31739 0.26652 0.19475 0.0
C21 C 0.31566 0.30567 0.2625 0.0
C22 C 0.23826 0.27431 0.25149 0.0
C23 C 0.29893 0.24591 0.20464 0.0
O24 O 0.29294 0.28639 0.25958 0.0
O25 O 0.33094 0.31634 0.24216 0.0
O26 O 0.25061 0.26265 0.19225 0.0
O27 O 0.28965 0.29415 0.19977 0.0
Co28 Co 0.74586 1.00183 0.21504 0.0
O29 O 0.72435 0.96544 0.22031 0.0
O30 O 0.76351 0.98812 0.23703 0.0
C31 C 0.73825 1.00286 0.16995 0.0
O32 O 0.77297 0.0403 0.21172 0.0
Co33 Co 0.71609 0.03031 0.20036 0.0
O34 O 0.75145 0.05989 0.19699 0.0
C35 C 0.71357 0.01182 0.2562 0.0
C36 C 0.74247 0.96589 0.23489 0.0
C37 C 0.77212 0.06031 0.20342 0.0
O38 O 0.73225 0.00827 0.25017 0.0
O39 O 0.70191 0.01775 0.23827 0.0
O40 O 0.75483 0.9964 0.17773 0.0
O41 O 0.72462 1.0046 0.18945 0.0
Co42 Co 0.03042 0.28018 0.72803 0.0
O43 O 0.06577 0.30046 0.73792 0.0
O44 O 0.04009 0.26154 0.75418 0.0
C45 C 0.03865 0.28901 0.68293 0.0
O46 O 0.99232 0.25425 0.7197 0.0
Co47 Co 1.00618 0.30996 0.70192 0.0
O48 O 0.98 0.27497 0.69018 0.0
C49 C 0.01695 0.31457 0.76135 0.0
C50 C 0.06298 0.28182 0.75325 0.0
C51 C 0.97626 0.2546 0.70222 0.0
O52 O 0.02129 0.29582 0.75945 0.0
O53 O 0.01231 0.3245 0.74041 0.0
O54 O 0.04013 0.27013 0.69383 0.0
O55 O 0.03372 0.30248 0.69998 0.0
Co56 Co 0.74147 0.70576 0.75668 0.0
O57 O 0.7563 0.68578 0.74458 0.0
O58 O 0.76162 0.72019 0.72281 0.0
C59 C 0.75158 0.70802 0.80154 0.0
O60 O 0.72858 0.73101 0.76547 0.0
Co61 Co 0.69534 0.67862 0.79736 0.0
O62 O 0.7038 0.71459 0.80348 0.0
C63 C 0.68631 0.66764 0.73822 0.0
C64 C 0.76626 0.70125 0.72394 0.0
C65 C 0.71593 0.73275 0.78628 0.0
O66 O 0.71009 0.6839 0.73376 0.0
O67 O 0.67651 0.6617 0.76241 0.0
O68 O 0.76856 0.72364 0.78402 0.0
O69 O 0.73096 0.68953 0.79071 0.0
Co70 Co 0.30327 0.04288 0.76902 0.0
O71 O 0.32377 0.07919 0.76287 0.0
O72 O 0.28648 0.0545 0.74275 0.0
C73 C 0.30716 0.04339 0.815 0.0
O74 O 0.27724 1.00393 0.7728 0.0
Co75 Co 0.33305 0.01686 0.7912 0.0
O76 O 0.29769 0.98901 0.7994 0.0
C77 C 0.33828 0.03132 0.73323 0.0
C78 C 0.30677 0.07727 0.74535 0.0
C79 C 0.27749 0.98629 0.78793 0.0
O80 O 0.32053 0.03677 0.73694 0.0
O81 O 0.34762 0.02436 0.7528 0.0
O82 O 0.29047 0.0483 0.80396 0.0
O83 O 0.32313 0.04244 0.79795 0.0
Co84 Co 0.66888 0.07578 0.57731 0.0
O85 O 0.63559 0.05597 0.5613 0.0
O86 O 0.66143 0.09722 0.55285 0.0
C87 C 0.65472 0.06022 0.61974 0.0
O88 O 0.70501 0.10108 0.59237 0.0
Co89 Co 0.69105 0.04353 0.60244 0.0
O90 O 0.71562 0.07715 0.61917 0.0
C91 C 0.68664 0.04634 0.54244 0.0
C92 C 0.63937 0.07638 0.54878 0.0
C93 C 0.7197 0.09878 0.61024 0.0
O94 O 0.6836 0.06579 0.54581 0.0
O95 O 0.68722 0.03281 0.56245 0.0
O96 O 0.65359 0.07997 0.61101 0.0
O97 O 0.66289 0.04999 0.602 0.0
Co98 Co 0.95986 0.60955 0.56952 0.0
O99 O 0.98441 0.59892 0.56281 0.0
O100 O 0.95393 0.59239 0.53338 0.0
C101 C 0.95114 0.59529 0.61309 0.0
O102 O 0.93095 0.61833 0.57178 0.0
Co103 Co 0.97511 0.6518 0.61529 0.0
O104 O 0.93887 0.64238 0.61059 0.0
C105 C 0.99935 0.66638 0.56089 0.0
C106 C 0.97368 0.58993 0.53916 0.0
C107 C 0.92471 0.62998 0.59011 0.0
O108 O 0.98359 0.6436 0.55201 0.0
O109 O 1.00049 0.67324 0.58615 0.0
O110 O 0.93973 0.57932 0.59283 0.0
O111 O 0.96898 0.61794 0.60612 0.0
Co112 Co 0.42674 0.36767 0.58316 0.0
O113 O 0.44313 0.40424 0.57915 0.0
O114 O 0.45676 0.38049 0.55883 0.0
C115 C 0.42088 0.36601 0.62889 0.0
O116 O 0.41358 0.32866 0.58515 0.0
Co117 Co 0.36963 0.34099 0.60174 0.0
O118 O 0.37491 0.31133 0.60626 0.0
C119 C 0.38245 0.35874 0.54501 0.0
C120 C 0.45939 0.40318 0.56263 0.0
C121 C 0.39366 0.30962 0.59664 0.0
O122 O 0.40525 0.36331 0.54978 0.0
O123 O 0.36519 0.35128 0.56368 0.0
O124 O 0.443 0.37132 0.61891 0.0
O125 O 0.40483 0.36586 0.61118 0.0
Co126 Co 0.66715 0.63528 0.0918 0.0
O127 O 0.63186 0.62241 0.08254 0.0
O128 O 0.65702 0.61198 0.05987 0.0
C129 C 0.66222 0.62958 0.13762 0.0
O130 O 0.70497 0.64525 0.09753 0.0
Co131 Co 0.69367 0.68515 0.12793 0.0
O132 O 0.7194 0.67427 0.13248 0.0
C133 C 0.68697 0.68955 0.06878 0.0
C134 C 0.63448 0.60979 0.06236 0.0
C135 C 0.72189 0.65907 0.11606 0.0
O136 O 0.67768 0.66519 0.06625 0.0
O137 O 0.69344 0.7014 0.09198 0.0
O138 O 0.6576 0.6103 0.12163 0.0
O139 O 0.66583 0.65001 0.12509 0.0
Co140 Co 0.42417 0.06386 0.0857 0.0
O141 O 0.43811 0.04186 0.08035 0.0
O142 O 0.44204 0.07075 0.04991 0.0
C143 C 0.43802 0.07445 0.12917 0.0
O144 O 0.41168 0.09015 0.08742 0.0
Co145 Co 0.38108 0.04461 0.1304 0.0
O146 O 0.38874 0.08051 0.12711 0.0
C147 C 0.36832 0.0218 0.07513 0.0
C148 C 0.44705 0.0528 0.0569 0.0
C149 C 0.39969 0.09516 0.10654 0.0
O150 O 0.39136 0.03778 0.06753 0.0
O151 O 0.36034 0.02029 0.09994 0.0
O152 O 0.4534 0.08661 0.10885 0.0
O153 O 0.41629 0.05478 0.1224 0.0
Co154 Co 0.97615 0.36725 0.09258 0.0
O155 O 1.00096 0.40326 0.09056 0.0
O156 O 0.9613 0.38604 0.07512 0.0
C157 C 0.98365 0.36054 0.13606 0.0
O158 O 0.94566 0.32999 0.09335 0.0
Co159 Co 0.99938 0.33144 0.09853 0.0
O160 O 0.96287 0.3051 0.10327 0.0
C161 C 1.00255 0.35534 0.0455 0.0
C162 C 0.98384 0.40648 0.07819 0.0
C163 C 0.94368 0.30808 0.09931 0.0
O164 O 0.98704 0.36219 0.05497 0.0
O165 O 0.01196 0.34462 0.0604 0.0
O166 O 0.96935 0.37057 0.1313 0.0
O167 O 0.99583 0.35888 0.11494 0.0
Co168 Co 0.34275 0.41866 0.91293 0.0
O169 O 0.30714 0.39425 0.90832 0.0
O170 O 0.32933 0.42578 0.87909 0.0
C171 C 0.33912 0.42549 0.9578 0.0
O172 O 0.38069 0.44769 0.91404 0.0
Co173 Co 0.37153 0.40146 0.95305 0.0
O174 O 0.39762 0.43834 0.95084 0.0
C175 C 0.35968 0.38012 0.8971 0.0
C176 C 0.30734 0.40598 0.88605 0.0
C177 C 0.39894 0.45344 0.93172 0.0
O178 O 0.35172 0.39574 0.8914 0.0
O179 O 0.36708 0.37806 0.92123 0.0
O180 O 0.33425 0.4379 0.93918 0.0
O181 O 0.34345 0.4079 0.94856 0.0
Co182 Co 0.58697 0.91884 0.8855 0.0
O183 O 0.57351 0.94081 0.89371 0.0
O184 O 0.56531 0.90708 0.91888 0.0
C185 C 0.57767 0.91594 0.84045 0.0
O186 O 0.59858 0.8922 0.88 0.0
Co187 Co 0.63444 0.94368 0.84638 0.0
O188 O 0.6254 0.90724 0.84326 0.0
C189 C 0.64101 0.95873 0.90449 0.0
C190 C 0.56175 0.92647 0.91456 0.0
C191 C 0.6121 0.88965 0.8607 0.0
O192 O 0.61784 0.9408 0.90882 0.0
O193 O 0.65102 0.96488 0.8804 0.0
O194 O 0.56022 0.9009 0.85787 0.0
O195 O 0.59884 0.93355 0.85124 0.0
Co196 Co 0.08401 0.67462 0.90107 0.0
O197 O 0.06276 0.64011 0.91353 0.0
O198 O 0.10348 0.66385 0.92477 0.0
C199 C 0.0696 0.66438 0.85745 0.0
O200 O 0.11104 0.7117 0.88957 0.0
Co201 Co 0.05543 0.70161 0.87947 0.0
O202 O 0.08947 0.72588 0.8639 0.0
C203 C 0.05626 0.69267 0.93884 0.0
C204 C 0.08212 0.64186 0.92658 0.0
C205 C 0.11031 0.72819 0.87295 0.0
O206 O 0.07396 0.68726 0.93433 0.0
O207 O 0.04467 0.69708 0.91942 0.0
O208 O 0.08857 0.66178 0.86585 0.0
O209 O 0.05931 0.67174 0.87607 0.0
Co210 Co 0.36016 0.94863 0.40956 0.0
O211 O 0.39434 0.96885 0.42326 0.0
O212 O 0.36946 0.92759 0.43238 0.0
C213 C 0.37187 0.96427 0.36672 0.0
O214 O 0.3233 0.92259 0.3968 0.0
Co215 Co 0.33511 0.97912 0.38883 0.0
O216 O 0.30926 0.94551 0.37338 0.0
C217 C 0.34377 0.97714 0.44799 0.0
C218 C 0.39155 0.94864 0.43537 0.0
C219 C 0.30676 0.92422 0.38119 0.0
O220 O 0.34744 0.95833 0.44295 0.0
O221 O 0.34051 0.98985 0.42889 0.0
O222 O 0.37322 0.94441 0.37459 0.0
O223 O 0.36453 0.97457 0.38541 0.0
Co224 Co 0.10931 0.42266 0.41248 0.0
O225 O 0.12195 0.39953 0.40743 0.0
O226 O 0.12988 0.43084 0.37845 0.0
C227 C 0.11949 0.42929 0.45742 0.0
O228 O 0.09844 0.45008 0.41394 0.0
Co229 Co 0.06264 0.40222 0.45258 0.0
O230 O 0.07143 0.43866 0.45049 0.0
C231 C 0.05481 0.38163 0.39665 0.0
C232 C 0.13295 0.41155 0.38505 0.0
C233 C 0.08483 0.45442 0.43154 0.0
O234 O 0.07783 0.39915 0.39095 0.0
O235 O 0.04534 0.37758 0.42101 0.0
O236 O 0.13675 0.44254 0.43896 0.0
O237 O 0.09796 0.41123 0.44787 0.0
Co238 Co 0.6546 0.70642 0.43125 0.0
O239 O 0.67665 0.74228 0.42339 0.0
O240 O 0.64205 0.71682 0.39925 0.0
C241 C 0.65223 0.71013 0.47715 0.0
O242 O 0.62728 0.66795 0.43543 0.0
Co243 Co 0.67784 0.68038 0.46757 0.0
O244 O 0.64124 0.65359 0.47067 0.0
C245 C 0.69074 0.6886 0.40876 0.0
C246 C 0.6619 0.73972 0.40283 0.0
C247 C 0.62396 0.65076 0.4536 0.0
O248 O 0.67543 0.69745 0.40597 0.0
O249 O 0.69557 0.68192 0.43201 0.0
O250 O 0.63762 0.71438 0.46095 0.0
O251 O 0.6698 0.70756 0.46492 0.0
H252 H 0.0339 0.68598 0.20053 0.0
H253 H 0.03711 0.67894 0.15104 0.0
H254 H 0.98199 0.70237 0.13305 0.0
H255 H 0.97894 0.7098 0.18214 0.0
H256 H 1.00054 0.64971 0.10806 0.0
H257 H 0.04787 0.75535 0.0928 0.0
H258 H 0.04329 0.74103 0.12653 0.0
H259 H 0.01704 0.74105 0.10918 0.0
C260 C 0.02211 0.68912 0.18605 0.0
C261 C 0.00655 0.69888 0.19508 0.0
C262 C 0.02398 0.68514 0.15786 0.0
C263 C 0.01021 0.69073 0.13852 0.0
C264 C 0.99317 0.6985 0.1477 0.0
H265 H 0.02112 0.70485 0.95898 0.0
H266 H 0.00752 0.70269 0.00714 0.0
C267 C 0.99145 0.70269 0.17573 0.0
C268 C 0.01515 0.69049 0.1087 0.0
H269 H 0.03963 0.72986 0.05278 0.0
C270 C 0.00904 0.66717 0.09591 0.0
C271 C 0.02627 0.7134 0.09305 0.0
C272 C 0.03423 0.73919 0.10606 0.0
C273 C 0.01368 0.66614 0.06766 0.0
C274 C 0.025 0.68909 0.05211 0.0
C275 C 0.03078 0.71232 0.06483 0.0
C276 C 0.03255 0.68976 0.02301 0.0
C277 C 1.00638 0.64054 0.05464 0.0
C278 C 0.05147 0.68375 0.0163 0.0
C279 C 0.05937 0.68511 0.98901 0.0
C280 C 0.04857 0.69263 0.96787 0.0
C281 C 0.0298 0.69899 0.97474 0.0
C282 C 0.02196 0.69768 0.00218 0.0
H283 H 0.99181 0.62429 0.06714 0.0
H284 H 0.99875 0.6391 0.03344 0.0
H285 H 0.02362 0.63854 0.0532 0.0
H286 H 0.06027 0.67818 0.03223 0.0
H287 H 0.07386 0.68004 0.98455 0.0
H288 H 0.29901 0.42876 0.97788 0.0
H289 H 0.27874 0.41202 0.02278 0.0
H290 H 0.34322 0.40442 0.04721 0.0
H291 H 0.36298 0.42017 0.00216 0.0
H292 H 0.27069 0.36017 0.02968 0.0
H293 H 0.318 0.42206 0.12053 0.0
H294 H 0.31773 0.43479 0.08678 0.0
H295 H 0.34031 0.42451 0.09444 0.0
C296 C 0.3094 0.42475 0.99342 0.0
C297 C 0.33236 0.42542 0.98678 0.0
C298 C 0.2978 0.4152 0.01898 0.0
C299 C 0.30956 0.40711 0.03818 0.0
C300 C 0.33407 0.41096 0.03275 0.0
H301 H 0.31337 0.31093 0.15083 0.0
H302 H 0.31593 0.34014 0.11447 0.0
C303 C 0.34531 0.41983 0.00703 0.0
C304 C 0.29439 0.38868 0.05986 0.0
H305 H 0.30064 0.37618 0.12687 0.0
C306 C 0.27641 0.36368 0.05123 0.0
C307 C 0.30199 0.39353 0.08774 0.0
C308 C 0.32041 0.42026 0.09801 0.0
C309 C 0.26829 0.34279 0.06913 0.0
C310 C 0.27805 0.34741 0.09631 0.0
C311 C 0.29364 0.37275 0.10575 0.0
C312 C 0.27522 0.3265 0.11427 0.0
C313 C 0.25135 0.3159 0.05817 0.0
C314 C 0.25129 0.30824 0.12482 0.0
C315 C 0.24976 0.29109 0.14507 0.0
C316 C 0.27221 0.29254 0.15529 0.0
C317 C 0.29585 0.30952 0.1432 0.0
C318 C 0.29732 0.32631 0.1227 0.0
H319 H 0.24838 0.31558 0.03549 0.0
H320 H 0.25977 0.30367 0.06291 0.0
H321 H 0.23236 0.30724 0.06838 0.0
H322 H 0.23409 0.30827 0.11868 0.0
H323 H 0.23132 0.27833 0.15438 0.0
H324 H 0.72608 0.03781 0.15083 0.0
H325 H 0.7196 0.0455 0.10278 0.0
H326 H 0.73654 0.98711 0.07628 0.0
H327 H 0.74533 0.98114 0.12414 0.0
H328 H 0.75292 0.02326 0.03911 0.0
H329 H 0.65358 0.99736 0.06816 0.0
H330 H 0.67812 0.02605 0.08427 0.0
H331 H 0.67506 0.99546 0.0924 0.0
C332 C 0.7288 0.02694 0.13467 0.0
C333 C 0.73578 0.00858 0.14106 0.0
C334 C 0.72495 0.03123 0.10725 0.0
C335 C 0.72671 0.01628 0.08599 0.0
C336 C 0.73493 0.99882 0.09233 0.0
H337 H 0.63422 0.93914 0.95589 0.0
H338 H 0.65873 0.95972 -0.00278 0.0
C339 C 0.73975 0.99525 0.11965 0.0
C340 C 0.7177 0.01672 0.05764 0.0
H341 H 0.66377 1.0026 0.02146 0.0
C342 C 0.73352 0.01903 0.03518 0.0
C343 C 0.69238 0.01136 0.05258 0.0
C344 C 0.67372 0.0072 0.07557 0.0
C345 C 0.72405 0.01404 0.00801 0.0
C346 C 0.6984 0.00745 0.00325 0.0
C347 C 0.68343 0.00758 0.02535 0.0
C348 C 0.685 0.99556 0.97709 0.0
C349 C 0.74089 0.01396 0.98499 0.0
C350 C 0.6919 0.00876 0.95183 0.0
C351 C 0.678 0.99675 0.92779 0.0
C352 C 0.65681 0.97166 0.929 0.0
C353 C 0.65022 0.9586 0.95432 0.0
C354 C 0.66424 0.97035 0.978 0.0
H355 H 0.75919 0.01624 0.99283 0.0
H356 H 0.73076 0.99577 0.97299 0.0
H357 H 0.74545 0.03004 0.97067 0.0
H358 H 0.70766 0.02836 0.95079 0.0
H359 H 0.68339 0.00724 0.90851 0.0
H360 H 0.66682 0.99797 0.52157 0.0
H361 H 0.66565 0.98592 0.47295 0.0
H362 H 0.70993 0.06612 0.45099 0.0
H363 H 0.70978 0.07814 0.4992 0.0
H364 H 0.67142 0.04226 0.41749 0.0
H365 H 0.71933 0.98455 0.42685 0.0
H366 H 0.6908 0.97262 0.44724 0.0
H367 H 0.71814 1.00355 0.45505 0.0
C368 C 0.6766 0.01294 0.50633 0.0
C369 C 0.68853 0.03895 0.51398 0.0
C370 C 0.67599 0.00605 0.47861 0.0
C371 C 0.68801 0.02511 0.45837 0.0
C372 C 0.70047 0.05109 0.46624 0.0
H373 H 0.74481 0.02209 0.30026 0.0
H374 H 0.73451 0.02205 0.34886 0.0
C375 C 0.7005 0.05796 0.49375 0.0
C376 C 0.68706 0.01837 0.42878 0.0
H377 H 0.70383 0.9864 0.38276 0.0
C378 C 0.67849 0.03002 0.40986 0.0
C379 C 0.6962 1.00232 0.41895 0.0
C380 C 0.70686 0.99022 0.43803 0.0
C381 C 0.68008 0.02722 0.3813 0.0
C382 C 0.68936 0.01128 0.37144 0.0
C383 C 0.69665 0.99854 0.3904 0.0
C384 C 0.69462 0.00996 0.34178 0.0
C385 C 0.67322 0.04258 0.36215 0.0
C386 C 0.67554 1.00293 0.32156 0.0
C387 C 0.6816 1.00363 0.29355 0.0
C388 C 0.7066 0.01057 0.28552 0.0
C389 C 0.72535 0.0166 0.30586 0.0
C390 C 0.71946 0.01651 0.33366 0.0
H391 H 0.67256 0.05845 0.37318 0.0
H392 H 0.68722 0.05098 0.34498 0.0
H393 H 0.65399 0.0298 0.35318 0.0
H394 H 0.65607 0.99709 0.3274 0.0
H395 H 0.66673 0.99853 0.27823 0.0
H396 H 0.02249 0.71883 0.56543 0.0
H397 H 0.03991 0.74968 0.52733 0.0
H398 H 0.02867 0.6887 0.47171 0.0
H399 H 0.01172 0.65802 0.50942 0.0
H400 H 0.07284 0.73819 0.45938 0.0
H401 H 0.98237 0.74065 0.47424 0.0
H402 H 1.00495 0.75054 0.50223 0.0
H403 H 0.98754 0.71739 0.49193 0.0
C404 C 0.02448 0.71218 0.54525 0.0
C405 C 0.01512 0.68591 0.54019 0.0
C406 C 0.0344 0.72982 0.52356 0.0
C407 C 0.03507 0.7213 0.49671 0.0
C408 C 0.02822 0.69561 0.49231 0.0
H409 H 0.01181 0.70963 0.3332 0.0
H410 H 0.02805 0.71454 0.38023 0.0
C411 C 0.0183 0.67804 0.51384 0.0
C412 C 0.03821 0.73718 0.47229 0.0
H413 H 1.00133 0.75109 0.43085 0.0
C414 C 0.05771 0.74189 0.45338 0.0
C415 C 0.01855 0.74219 0.46466 0.0
C416 C 0.99707 0.73743 0.48418 0.0
C417 C 0.05665 0.74907 0.42612 0.0
C418 C 0.03534 0.75105 0.41767 0.0
C419 C 0.0175 0.74926 0.43739 0.0
C420 C 0.02856 0.75021 0.38824 0.0
C421 C 0.07756 0.75301 0.40624 0.0
C422 C 0.02272 0.76822 0.37742 0.0
C423 C 0.01297 0.76518 0.35066 0.0
C424 C 0.00879 0.74399 0.33443 0.0
C425 C 0.01483 0.72613 0.34524 0.0
C426 C 0.02451 0.72915 0.37195 0.0
H427 H 0.0962 0.76082 0.41712 0.0
H428 H 0.0729 0.73422 0.39708 0.0
H429 H 0.07961 0.76627 0.38926 0.0
H430 H 0.02532 0.78437 0.38985 0.0
H431 H 0.00864 0.77936 0.34274 0.0
H432 H 0.41557 0.38558 0.50353 0.0
H433 H 0.40586 0.38457 0.45451 0.0
H434 H 0.32541 0.33548 0.47177 0.0
H435 H 0.33491 0.33674 0.52108 0.0
H436 H 0.38459 0.34019 0.42518 0.0
H437 H 0.32458 0.3853 0.41588 0.0
H438 H 0.34383 0.38936 0.44606 0.0
H439 H 0.31318 0.36067 0.44171 0.0
C440 C 0.39573 0.37492 0.497 0.0
C441 C 0.37599 0.36099 0.51613 0.0
C442 C 0.39024 0.37446 0.46898 0.0
C443 C 0.36493 0.3601 0.45955 0.0
C444 C 0.34503 0.34712 0.47871 0.0
H445 H 0.28713 0.29118 0.30977 0.0
H446 H 0.30103 0.30757 0.35644 0.0
C447 C 0.35049 0.34773 0.50685 0.0
C448 C 0.3598 0.35605 0.42956 0.0
H449 H 0.32349 0.35928 0.37756 0.0
C450 C 0.37155 0.34474 0.41464 0.0
C451 C 0.34274 0.36197 0.41596 0.0
C452 C 0.33054 0.37523 0.43066 0.0
C453 C 0.36591 0.33819 0.38671 0.0
C454 C 0.34829 0.34342 0.37333 0.0
C455 C 0.33701 0.35534 0.388 0.0
C456 C 0.33997 0.3349 0.34467 0.0
C457 C 0.37797 0.32472 0.37207 0.0
C458 C 0.35729 0.34512 0.32261 0.0
C459 C 0.34948 0.33569 0.29581 0.0
C460 C 0.32421 0.31593 0.29072 0.0
C461 C 0.30683 0.30619 0.31292 0.0
C462 C 0.31465 0.31564 0.33961 0.0
H463 H 0.38741 0.31792 0.38671 0.0
H464 H 0.36337 0.308 0.36005 0.0
H465 H 0.39267 0.33823 0.35739 0.0
H466 H 0.37687 0.36024 0.32616 0.0
H467 H 0.36328 0.34378 0.27917 0.0
H468 H 1.00082 0.348 0.77709 0.0
H469 H 1.00245 0.36507 0.82365 0.0
H470 H 0.03691 0.32245 0.85454 0.0
H471 H 0.03554 0.30547 0.8085 0.0
H472 H 0.9785 0.33441 0.87095 0.0
H473 H 0.08318 0.39533 0.88583 0.0
H474 H 0.06862 0.38515 0.8521 0.0
H475 H 0.07397 0.36378 0.8732 0.0
C476 C 0.00892 0.34244 0.79378 0.0
C477 C 0.01794 0.32529 0.78912 0.0
C478 C 0.00989 0.35225 0.82027 0.0
C479 C 0.02024 0.34536 0.84228 0.0
C480 C 0.02938 0.32842 0.83765 0.0
H481 H 0.02638 0.33542 0.01435 0.0
H482 H 0.03211 0.33803 0.96422 0.0
C483 C 0.02829 0.31851 0.81134 0.0
C484 C 0.01967 0.3539 0.87072 0.0
H485 H 0.05759 0.38092 0.9273 0.0
C486 C 0.99575 0.3451 0.8832 0.0
C487 C 0.04229 0.36784 0.88647 0.0
C488 C 0.06848 0.3788 0.87364 0.0
C489 C 0.99376 0.34829 0.91162 0.0
C490 C 0.01636 0.36101 0.92768 0.0
C491 C 0.04033 0.37106 0.91488 0.0
C492 C 0.01532 0.36199 0.95807 0.0
C493 C 0.96749 0.33664 0.9245 0.0
C494 C 1.00467 0.37524 0.9711 0.0
C495 C 1.00122 0.37367 -0.00032 0.0
C496 C 0.00854 0.35895 0.01568 0.0
C497 C 0.02043 0.3468 0.00264 0.0
C498 C 0.02376 0.3483 0.97403 0.0
H499 H 0.95213 0.32357 0.91002 0.0
H500 H 0.96637 0.32571 0.94339 0.0
H501 H 0.96373 0.35221 0.93061 0.0
H502 H 0.99849 0.38628 0.95911 0.0
H503 H 0.99236 0.38362 0.00913 0.0
H504 H 0.72457 0.73942 0.06064 0.0
H505 H 0.74101 0.7602 0.01588 0.0
H506 H 0.68016 0.69403 0.97454 0.0
H507 H 0.66374 0.67328 0.01888 0.0
H508 H 0.75797 0.73671 0.97934 0.0
H509 H 0.68595 0.75257 0.92769 0.0
H510 H 0.68683 0.74961 0.9648 0.0
H511 H 0.67092 0.72137 0.94322 0.0
C512 C 0.71416 0.72976 0.04204 0.0
C513 C 0.69302 0.70464 0.04315 0.0
C514 C 0.7236 0.74165 0.01653 0.0
C515 C 0.71168 0.72877 0.99195 0.0
C516 C 0.68936 0.70457 0.99326 0.0
H517 H 0.72058 0.67767 0.84241 0.0
H518 H 0.7166 0.69089 0.88905 0.0
C519 C 0.68011 0.6926 0.01862 0.0
C520 C 0.7247 0.7377 0.96505 0.0
H521 H 0.71042 0.73967 0.89737 0.0
C522 C 0.74814 0.73843 0.96147 0.0
C523 C 0.71192 0.74007 0.94183 0.0
C524 C 0.68763 0.74114 0.94466 0.0
C525 C 0.75752 0.73839 0.93496 0.0
C526 C 0.74311 0.73774 0.91178 0.0
C527 C 0.72121 0.73985 0.91535 0.0
C528 C 0.74759 0.73006 0.8844 0.0
C529 C 0.78136 0.73654 0.93179 0.0
C530 C 0.76685 0.74764 0.86684 0.0
C531 C 0.76931 0.74006 0.84018 0.0
C532 C 0.75239 0.7149 0.83088 0.0
C533 C 0.73386 0.69716 0.84904 0.0
C534 C 0.73148 0.7047 0.87557 0.0
H535 H 0.7911 0.73856 0.95187 0.0
H536 H 0.77629 0.71767 0.9225 0.0
H537 H 0.79496 0.75171 0.91756 0.0
H538 H 0.77941 0.76729 0.87346 0.0
H539 H 0.78362 0.75419 0.82649 0.0
H540 H 0.31694 1.00461 0.07424 0.0
H541 H 0.29003 0.99249 0.03283 0.0
H542 H 0.35152 0.99517 0.98474 0.0
H543 H 0.37824 0.00701 0.02579 0.0
H544 H 0.30706 0.02842 0.99265 0.0
H545 H 0.29004 0.93748 0.94643 0.0
H546 H 0.29795 0.94508 0.98256 0.0
H547 H 0.32286 0.95655 0.95679 0.0
C548 C 0.32426 1.00146 0.05507 0.0
C549 C 0.34979 0.00711 0.05309 0.0
C550 C 0.30887 0.99457 0.03144 0.0
C551 C 0.31871 0.99282 0.00572 0.0
C552 C 0.34329 0.99588 0.0044 0.0
H553 H 0.34055 0.03421 0.84313 0.0
H554 H 0.33602 0.0177 0.89004 0.0
C555 C 0.35868 1.00293 0.02787 0.0
C556 C 0.3064 0.99382 0.97974 0.0
H557 H 0.29644 0.97132 0.91351 0.0
C558 C 0.30381 0.01545 0.97552 0.0
C559 C 0.30221 0.9769 0.95747 0.0
C560 C 0.30316 0.95257 0.96117 0.0
C561 C 0.29987 0.02211 0.94902 0.0
C562 C 0.29798 0.00638 0.92634 0.0
C563 C 0.29819 0.98349 0.93095 0.0
C564 C 0.29952 0.01519 0.89761 0.0
C565 C 0.30001 0.04704 0.94519 0.0
C566 C 0.28048 0.01927 0.8864 0.0
C567 C 0.28322 0.02908 0.85969 0.0
C568 C 0.3049 0.03466 0.84378 0.0
C569 C 0.32374 0.03025 0.85498 0.0
C570 C 0.32107 0.02062 0.88167 0.0
H571 H 0.30533 0.05874 0.96444 0.0
H572 H 0.31365 0.05867 0.92863 0.0
H573 H 0.28064 0.04285 0.93888 0.0
H574 H 0.26357 0.01489 0.89828 0.0
H575 H 0.2682 0.03192 0.85137 0.0
H576 H 0.33239 0.05609 0.68952 0.0
H577 H 0.33886 0.05059 0.64082 0.0
H578 H 0.36955 1.0021 0.6628 0.0
H579 H 0.36286 0.00722 0.71189 0.0
H580 H 0.38213 0.05749 0.60777 0.0
H581 H 0.30312 0.956 0.61707 0.0
H582 H 0.30937 0.9799 0.64323 0.0
H583 H 0.32945 0.96593 0.64062 0.0
C584 C 0.34086 0.04451 0.68409 0.0
C585 C 0.34664 0.03163 0.7045 0.0
C586 C 0.34467 0.04155 0.65625 0.0
C587 C 0.35425 0.02563 0.64836 0.0
C588 C 0.36183 0.01423 0.66866 0.0
H589 H 0.35671 0.9586 0.4925 0.0
H590 H 0.36054 0.97226 0.54038 0.0
C591 C 0.35809 0.01724 0.69663 0.0
C592 C 0.35367 0.01892 0.61895 0.0
H593 H 0.32232 0.9694 0.57341 0.0
C594 C 0.36919 0.03823 0.60017 0.0
C595 C 0.33642 0.99386 0.60926 0.0
C596 C 0.31845 0.97271 0.62848 0.0
C597 C 0.36829 0.03295 0.57179 0.0
C598 C 0.35106 0.00785 0.56214 0.0
C599 C 0.33549 0.98862 0.58097 0.0
C600 C 0.34938 1.00062 0.53272 0.0
C601 C 0.38607 0.05406 0.55247 0.0
C602 C 0.34155 0.01192 0.51257 0.0
C603 C 0.33936 1.00419 0.48492 0.0
C604 C 0.34471 0.98484 0.47719 0.0
C605 C 0.35226 0.97344 0.49764 0.0
C606 C 0.35458 0.98128 0.52507 0.0
H607 H 0.40205 0.07029 0.56377 0.0
H608 H 0.39423 0.04666 0.5368 0.0
H609 H 0.37516 0.06159 0.54142 0.0
H610 H 0.33692 0.02652 0.51825 0.0
H611 H 0.3335 0.01332 0.46969 0.0
H612 H 0.07396 0.2819 0.65515 0.0
H613 H 0.10338 0.31071 0.61972 0.0
H614 H 0.0608 0.3505 0.61647 0.0
H615 H 0.03169 0.32219 0.65201 0.0
H616 H 0.09669 0.32584 0.56558 0.0
H617 H 0.13426 0.40637 0.63997 0.0
H618 H 0.11629 0.37311 0.6505 0.0
H619 H 0.09991 0.38946 0.63905 0.0
C620 C 0.07045 0.29631 0.64623 0.0
C621 C 0.05084 0.30018 0.65645 0.0
C622 C 0.08742 0.31287 0.6263 0.0
C623 C 0.08473 0.33323 0.61651 0.0
C624 C 0.06359 0.33536 0.62462 0.0
H625 H 0.08906 0.42093 0.50154 0.0
H626 H 0.09321 0.40411 0.5458 0.0
C627 C 0.04681 0.31902 0.64459 0.0
C628 C 0.10404 0.35296 0.5983 0.0
H629 H 0.13621 0.41801 0.59111 0.0
C630 C 0.10628 0.346 0.57129 0.0
C631 C 0.11697 0.37915 0.60618 0.0
C632 C 0.11698 0.38744 0.63564 0.0
C633 C 0.11829 0.3648 0.55093 0.0
C634 C 0.12802 0.39091 0.55809 0.0
C635 C 0.12856 0.39794 0.58577 0.0
C636 C 0.13059 0.40923 0.5367 0.0
C637 C 0.11788 0.35653 0.52135 0.0
C638 C 0.15111 0.41932 0.51808 0.0
C639 C 0.14893 0.42942 0.49296 0.0
C640 C 0.12603 0.42888 0.48636 0.0
C641 C 0.10684 0.42148 0.50635 0.0
C642 C 0.10923 0.41191 0.53155 0.0
H643 H 0.11063 0.33559 0.51951 0.0
H644 H 0.10546 0.36126 0.50878 0.0
H645 H 0.13747 0.36711 0.51252 0.0
H646 H 0.16764 0.41725 0.52184 0.0
H647 H 0.16386 0.43486 0.47763 0.0
H648 H 0.6808 0.70237 0.51453 0.0
H649 H 0.66811 0.68416 0.56058 0.0
H650 H 0.59601 0.68189 0.55187 0.0
H651 H 0.60853 0.70005 0.50512 0.0
H652 H 0.62846 0.70424 0.6052 0.0
H653 H 0.60787 0.60681 0.57562 0.0
H654 H 0.63602 0.63214 0.5594 0.0
H655 H 0.60522 0.62839 0.55172 0.0
C656 C 0.6623 0.69819 0.52239 0.0
C657 C 0.64561 0.70252 0.50622 0.0
C658 C 0.65502 0.68763 0.54861 0.0
C659 C 0.63095 0.68122 0.55921 0.0
C660 C 0.61454 0.68646 0.54374 0.0
H661 H 0.63503 0.65125 0.73588 0.0
H662 H 0.61021 0.64625 0.69389 0.0
C663 C 0.6218 0.697 0.51724 0.0
C664 C 0.62399 0.66965 0.58689 0.0
H665 H 0.62372 0.6208 0.62232 0.0
C666 C 0.62629 0.68554 0.60921 0.0
C667 C 0.62097 0.64519 0.59179 0.0
C668 C 0.61712 0.627 0.56835 0.0
C669 C 0.62894 0.67891 0.63625 0.0
C670 C 0.62905 0.65575 0.64076 0.0
C671 C 0.62372 0.63856 0.61876 0.0
C672 C 0.64075 0.65238 0.66596 0.0
C673 C 0.63445 0.69798 0.6593 0.0
C674 C 0.66551 0.65604 0.66397 0.0
C675 C 0.67968 0.65893 0.68773 0.0
C676 C 0.66926 0.65807 0.71393 0.0
C677 C 0.64356 0.65199 0.71594 0.0
C678 C 0.6294 0.64927 0.69203 0.0
H679 H 0.63464 0.71554 0.65201 0.0
H680 H 0.61962 0.68894 0.6756 0.0
H681 H 0.6533 0.70374 0.66883 0.0
H682 H 0.67458 0.65846 0.64399 0.0
H683 H 0.69934 0.66336 0.68553 0.0
H684 H 0.39025 0.35857 0.89379 0.0
H685 H 0.40027 0.34236 0.85182 0.0
H686 H 0.34516 0.35311 0.8062 0.0
H687 H 0.33488 0.369 0.84777 0.0
H688 H 0.34857 0.30794 0.79044 0.0
H689 H 0.44226 0.39984 0.79419 0.0
H690 H 0.43322 0.37872 0.82346 0.0
H691 H 0.41567 0.39467 0.81567 0.0
C692 C 0.37978 0.35681 0.87499 0.0
C693 C 0.36217 0.36555 0.8739 0.0
C694 C 0.38557 0.3476 0.85107 0.0
C695 C 0.3737 0.34695 0.82594 0.0
C696 C 0.35455 0.35354 0.82542 0.0
H697 H 0.3769 0.35586 0.65522 0.0
H698 H 0.36629 0.34516 0.70388 0.0
C699 C 0.34885 0.36281 0.84916 0.0
C700 C 0.38346 0.34325 0.79939 0.0
H701 H 0.43111 0.37685 0.75285 0.0
C702 C 0.36688 0.32263 0.78235 0.0
C703 C 0.40739 0.36247 0.78902 0.0
C704 C 0.42572 0.38529 0.80636 0.0
C705 C 0.37304 0.3215 0.75461 0.0
C706 C 0.39605 0.34181 0.74368 0.0
C707 C 0.41343 0.36137 0.76129 0.0
C708 C 0.40119 0.34503 0.71366 0.0
C709 C 0.35451 0.29901 0.73709 0.0
C710 C 0.42455 0.349 0.70312 0.0
C711 C 0.43085 0.3556 0.67544 0.0
C712 C 0.41392 0.3584 0.6579 0.0
C713 C 0.39031 0.35384 0.6683 0.0
C714 C 0.38408 0.34738 0.69601 0.0
H715 H 0.34352 0.2815 0.74985 0.0
H716 H 0.34057 0.30351 0.72747 0.0
H717 H 0.36454 0.29483 0.7204 0.0
H718 H 0.43812 0.34755 0.71649 0.0
H719 H 0.44911 0.35881 0.66789 0.0
H720 H 0.66019 0.02431 0.64705 0.0
H721 H 0.6296 0.99253 0.67914 0.0
H722 H 0.58432 0.02956 0.67712 0.0
H723 H 0.61537 0.06196 0.64535 0.0
H724 H 0.58833 0.01435 0.72866 0.0
H725 H 0.55988 0.93354 0.65672 0.0
H726 H 0.59411 0.95167 0.659 0.0
H727 H 0.57699 0.96663 0.64549 0.0
C728 C 0.64397 0.02594 0.65386 0.0
C729 C 0.63996 0.04535 0.64367 0.0
C730 C 0.6263 0.00757 0.67175 0.0
C731 C 0.60415 0.00809 0.67933 0.0
C732 C 0.60101 0.02855 0.67084 0.0
H733 H 0.53165 0.90437 0.81867 0.0
H734 H 0.52544 0.91966 0.77401 0.0
C735 C 0.61889 0.04717 0.65306 0.0
C736 C 0.58515 0.98757 0.69713 0.0
H737 H 0.5597 0.92328 0.70649 0.0
C738 C 0.58097 0.99428 0.72355 0.0
C739 C 0.57497 0.96139 0.69009 0.0
C740 C 0.57648 0.95293 0.66111 0.0
C741 C 0.5703 0.97576 0.74434 0.0
C742 C 0.56403 0.95026 0.73829 0.0
C743 C 0.56486 0.94296 0.71101 0.0
C744 C 0.56444 0.93408 0.76056 0.0
C745 C 0.56885 0.98412 0.77341 0.0
C746 C 0.58805 0.93612 0.76679 0.0
C747 C 0.59178 0.92796 0.79225 0.0
C748 C 0.57178 0.91727 0.81147 0.0
C749 C 0.5473 0.9125 0.80397 0.0
C750 C 0.54369 0.92118 0.77859 0.0
H751 H 0.57234 1.00407 0.77418 0.0
H752 H 0.54971 0.971 0.7824 0.0
H753 H 0.58337 0.98312 0.78653 0.0
H754 H 0.60425 0.94617 0.75299 0.0
H755 H 0.61074 0.93167 0.79766 0.0
H756 H 0.03323 0.67078 0.83193 0.0
H757 H 1.00479 0.64446 0.79462 0.0
H758 H 0.04418 0.60145 0.79025 0.0
H759 H 0.07338 0.62844 0.82674 0.0
H760 H 0.03519 0.61153 0.74113 0.0
H761 H 0.94508 0.57309 0.79942 0.0
H762 H 0.96185 0.60746 0.80097 0.0
H763 H 0.97599 0.59016 0.81608 0.0
C764 C 0.03599 0.65592 0.82273 0.0
C765 C 0.05541 0.65159 0.83218 0.0
C766 C 0.01946 0.64058 0.80182 0.0
C767 C 0.02169 0.62029 0.79051 0.0
C768 C 0.04181 0.61668 0.79909 0.0
H769 H 0.94399 0.55048 0.63457 0.0
H770 H 0.95357 0.545 0.68256 0.0
C771 C 0.05863 0.63229 0.81971 0.0
C772 C 1.00402 0.6041 0.7684 0.0
H773 H 0.94131 0.57527 0.74897 0.0
C774 C 0.01459 0.60279 0.74307 0.0
C775 C 0.97709 0.59222 0.77114 0.0
C776 C 0.96439 0.59055 0.79852 0.0
C777 C 0.99919 0.59247 0.71961 0.0
C778 C 0.97263 0.58335 0.72169 0.0
C779 C 0.96171 0.5824 0.74752 0.0
C780 C 0.9579 0.5811 0.69666 0.0
C781 C 0.01176 0.59366 0.69221 0.0
C782 C 0.95559 0.60235 0.68948 0.0
C783 C 0.95064 0.6057 0.66226 0.0
C784 C 0.94743 0.58757 0.64209 0.0
C785 C 0.94632 0.56462 0.64995 0.0
C786 C 0.95178 0.56147 0.67725 0.0
H787 H 0.03275 0.6017 0.6942 0.0
H788 H 1.00322 0.57408 0.68321 0.0
H789 H 0.00836 0.60573 0.6775 0.0
H790 H 0.96033 0.61769 0.70425 0.0
H791 H 0.95144 0.62346 0.65658 0.0
H792 H 0.69639 0.71055 0.3583 0.0
H793 H 0.70297 0.69475 0.3144 0.0
H794 H 0.71333 0.63801 0.35725 0.0
H795 H 0.70674 0.65375 0.40156 0.0
H796 H 0.74253 0.68354 0.2917 0.0
H797 H 0.64578 0.59791 0.30968 0.0
H798 H 0.65676 0.62691 0.32975 0.0
H799 H 0.67055 0.60699 0.33522 0.0
C800 C 0.70071 0.69514 0.35849 0.0
C801 C 0.70067 0.68314 0.38332 0.0
C802 C 0.70458 0.68621 0.33341 0.0
C803 C 0.7083 0.66505 0.33269 0.0
C804 C 0.71033 0.65429 0.3575 0.0
H805 H 0.6666 0.59322 0.16722 0.0
H806 H 0.68212 0.5973 0.21497 0.0
C807 C 0.70666 0.66338 0.38274 0.0
C808 C 0.70631 0.65255 0.30583 0.0
H809 H 0.66054 0.60675 0.26409 0.0
C810 C 0.725 0.66625 0.28577 0.0
C811 C 0.68348 0.62987 0.29829 0.0
C812 C 0.66287 0.61446 0.31923 0.0
C813 C 0.72042 0.65913 0.25785 0.0
C814 C 0.6964 0.63821 0.24999 0.0
C815 C 0.67885 0.6229 0.27031 0.0
C816 C 0.6873 0.6352 0.22123 0.0
C817 C 0.7406 0.67505 0.23676 0.0
C818 C 0.68422 0.65473 0.20958 0.0
C819 C 0.6751 0.65234 0.18273 0.0
C820 C 0.66887 0.63034 0.167 0.0
C821 C 0.67122 0.61037 0.17895 0.0
C822 C 0.68026 0.61274 0.20604 0.0
H823 H 0.76009 0.68416 0.24593 0.0
H824 H 0.73975 0.66322 0.21868 0.0
H825 H 0.73738 0.69062 0.22937 0.0
H826 H 0.68887 0.6719 0.22133 0.0
H827 H 0.67334 0.66797 0.17417 0.0
H828 H 0.48597 0.09222 0.14954 0.0
H829 H 0.4962 0.08824 0.19771 0.0
H830 H 0.41859 0.0647 0.22129 0.0
H831 H 0.40814 0.06783 0.17342 0.0
H832 H 0.4637 0.09543 0.264 0.0
H833 H 0.45362 0.00678 0.21489 0.0
H834 H 0.4759 0.03829 0.20183 0.0
H835 H 0.44217 0.02499 0.19649 0.0
C836 C 0.47146 0.08723 0.16529 0.0
C837 C 0.44615 0.0798 0.15801 0.0
C838 C 0.47737 0.0851 0.1927 0.0
C839 C 0.45808 0.07605 0.21278 0.0
C840 C 0.43372 0.07184 0.20596 0.0
H841 H 0.36761 1.00124 0.33956 0.0
H842 H 0.3976 0.03147 0.30576 0.0
C843 C 0.42769 0.0734 0.17864 0.0
C844 C 0.46024 0.06448 0.23848 0.0
H845 H 0.43856 1.00337 0.26021 0.0
C846 C 0.4593 0.07561 0.26358 0.0
C847 C 0.45507 0.03884 0.23785 0.0
C848 C 0.45677 0.02638 0.2114 0.0
C849 C 0.45013 0.06066 0.28749 0.0
C850 C 0.44075 0.03393 0.2856 0.0
C851 C 0.44514 0.02375 0.26148 0.0
C852 C 0.42294 0.01572 0.30628 0.0
C853 C 0.44922 0.07339 0.31403 0.0
C854 C 0.42611 0.99564 0.31611 0.0
C855 C 0.40834 0.97768 0.33439 0.0
C856 C 0.38733 0.97977 0.3434 0.0
C857 C 0.3837 0.99933 0.33291 0.0
C858 C 0.40116 0.01693 0.31415 0.0
H859 H 0.46613 0.09305 0.31564 0.0
H860 H 0.43191 0.07533 0.31409 0.0
H861 H 0.44873 0.06219 0.33243 0.0
H862 H 0.44249 0.99404 0.3099 0.0
H863 H 0.41174 0.9629 0.34244 0.0
H864 H 0.05694 0.3995 0.34549 0.0
H865 H 0.0341 0.37557 0.30463 0.0
H866 H 0.99374 0.30631 0.35288 0.0
H867 H 0.01657 0.33073 0.39475 0.0
H868 H 0.03699 0.33053 0.28578 0.0
H869 H 0.93807 0.3119 0.30395 0.0
H870 H 0.96441 0.3377 0.32249 0.0
H871 H 0.95519 0.30503 0.32993 0.0
C872 C 0.04309 0.37922 0.34756 0.0
C873 C 0.03867 0.36686 0.37315 0.0
C874 C 0.03006 0.36557 0.32421 0.0
C875 C 0.01252 0.33918 0.32576 0.0
C876 C 0.00726 0.32671 0.3514 0.0
H877 H 0.99252 0.32125 0.14736 0.0
H878 H 0.99182 0.30305 0.19265 0.0
C879 C 0.02021 0.34061 0.37517 0.0
C880 C 1.00103 0.32562 0.29965 0.0
H881 H 0.95161 0.31514 0.25763 0.0
C882 C 0.01799 0.3262 0.27948 0.0
C883 C 0.97617 0.3197 0.29195 0.0
C884 C 0.95723 0.3184 0.31311 0.0
C885 C 0.01242 0.32543 0.25131 0.0
C886 C 0.98852 0.32252 0.24336 0.0
C887 C 0.97005 0.31781 0.26376 0.0
C888 C 0.98453 0.32979 0.21536 0.0
C889 C 0.03342 0.33094 0.23075 0.0
C890 C 0.97905 0.34977 0.21284 0.0
C891 C 0.97835 0.3594 0.18695 0.0
C892 C 0.98378 0.34971 0.16315 0.0
C893 C 0.98863 0.32931 0.16547 0.0
C894 C 0.98837 0.31899 0.19136 0.0
H895 H 0.05205 0.3369 0.24096 0.0
H896 H 0.02814 0.31336 0.2185 0.0
H897 H 0.03619 0.34644 0.21635 0.0
H898 H 0.97611 0.35855 0.23101 0.0
H899 H 0.97438 0.37501 0.18566 0.0
H900 H 0.26318 0.89773 0.4112 0.0
H901 H 0.21994 0.87058 0.39222 0.0
H902 H 0.25229 0.87459 0.31166 0.0
H903 H 0.2954 0.90182 0.33061 0.0
H904 H 0.2014 0.88958 0.34913 0.0
H905 H 0.1958 0.79803 0.31814 0.0
H906 H 0.21856 0.81962 0.34336 0.0
H907 H 0.22419 0.82672 0.30716 0.0
C908 C 0.26107 0.89173 0.38976 0.0
C909 C 0.28267 0.90118 0.37255 0.0
C910 C 0.23634 0.87653 0.37882 0.0
C911 C 0.23278 0.87038 0.3505 0.0
C912 C 0.25447 0.87863 0.33363 0.0
H913 H 0.09787 0.7899 0.24423 0.0
H914 H 0.14192 0.81768 0.26076 0.0
C915 C 0.27914 0.89401 0.34451 0.0
C916 C 0.20661 0.85787 0.33804 0.0
H917 H 0.16266 0.80485 0.3022 0.0
C918 C 0.19286 0.87098 0.339 0.0
C919 C 0.19558 0.83379 0.32446 0.0
C920 C 0.20913 0.81854 0.32332 0.0
C921 C 0.16859 0.86084 0.32654 0.0
C922 C 0.15736 0.83656 0.31323 0.0
C923 C 0.1712 0.82351 0.31219 0.0
C924 C 0.13084 0.8237 0.30144 0.0
C925 C 0.15554 0.87658 0.32724 0.0
C926 C 0.10981 0.81851 0.31831 0.0
C927 C 0.0847 0.80313 0.30862 0.0
C928 C 0.08 0.79252 0.28188 0.0
C929 C 0.10094 0.79867 0.2645 0.0
C930 C 0.12612 0.81417 0.27416 0.0
H931 H 0.16964 0.8974 0.32955 0.0
H932 H 0.14416 0.8737 0.3082 0.0
H933 H 0.14244 0.87068 0.34527 0.0
H934 H 0.11271 0.82489 0.33963 0.0
H935 H 0.06894 0.79777 0.32285 0.0
H936 H 0.20521 0.28637 0.22883 0.0
H937 H 0.18549 0.30827 0.25185 0.0
H938 H 0.2108 0.29623 0.33072 0.0
H939 H 0.23092 0.27441 0.30743 0.0
H940 H 0.15009 0.29866 0.29318 0.0
H941 H 0.24759 0.37454 0.32505 0.0
H942 H 0.24225 0.34937 0.30098 0.0
H943 H 0.23817 0.34294 0.33744 0.0
C944 C 0.20563 0.28745 0.2512 0.0
C945 C 0.21922 0.27834 0.2664 0.0
C946 C 0.19456 0.3002 0.26434 0.0
C947 C 0.19714 0.30449 0.29296 0.0
C948 C 0.20895 0.29358 0.30853 0.0
H949 H 0.16156 0.39282 0.40542 0.0
H950 H 0.17788 0.36854 0.3811 0.0
C951 C 0.22 0.28065 0.29532 0.0
C952 C 0.1894 0.32217 0.30574 0.0
H953 H 0.21315 0.37984 0.33934 0.0
C954 C 0.16387 0.31641 0.30327 0.0
C955 C 0.20745 0.34558 0.31854 0.0
C956 C 0.23545 0.35369 0.3205 0.0
C957 C 0.15579 0.33299 0.31391 0.0
C958 C 0.17381 0.35628 0.32692 0.0
C959 C 0.19936 0.36211 0.32919 0.0
C960 C 0.16613 0.37365 0.34058 0.0
C961 C 0.12786 0.32506 0.31189 0.0
C962 C 0.15499 0.3857 0.3258 0.0
C963 C 0.14577 0.4 0.33979 0.0
C964 C 0.14752 0.40229 0.36872 0.0
C965 C 0.15994 0.3914 0.3831 0.0
C966 C 0.16924 0.37742 0.36922 0.0
H967 H 0.11569 0.30444 0.30633 0.0
H968 H 0.12091 0.32862 0.33175 0.0
H969 H 0.12541 0.33663 0.29569 0.0
H970 H 0.1528 0.38347 0.30359 0.0
H971 H 0.13605 0.40793 0.32823 0.0
H972 H 0.70512 0.91683 0.22421 0.0
H973 H 0.69254 0.87846 0.25172 0.0
H974 H 0.75555 0.92248 0.30732 0.0
H975 H 0.76826 0.96135 0.27973 0.0
H976 H 0.71775 0.85223 0.26717 0.0
H977 H 0.69266 0.89106 0.35872 0.0
H978 H 0.69838 0.90578 0.32508 0.0
H979 H 0.72485 0.91071 0.34631 0.0
C980 C 0.71655 0.9184 0.24213 0.0
C981 C 0.73768 0.94228 0.24982 0.0
C982 C 0.70928 0.89635 0.25786 0.0
C983 C 0.72275 0.89755 0.28191 0.0
C984 C 0.74454 0.92112 0.28911 0.0
H985 H 0.70052 0.78885 0.41016 0.0
H986 H 0.71397 0.8257 0.3801 0.0
C987 C 0.75197 0.9433 0.27318 0.0
C988 C 0.7133 0.87421 0.29962 0.0
H989 H 0.68901 0.85035 0.36362 0.0
C990 C 0.71147 0.85181 0.28827 0.0
C991 C 0.70479 0.8735 0.32707 0.0
C992 C 0.705 0.89643 0.34004 0.0
C993 C 0.70203 0.82904 0.30377 0.0
C994 C 0.69365 0.82837 0.33128 0.0
C995 C 0.69533 0.85074 0.34254 0.0
C996 C 0.68457 0.80529 0.34938 0.0
C997 C 0.70182 0.80612 0.2908 0.0
C998 C 0.66316 0.78129 0.3425 0.0
C999 C 0.65529 0.75987 0.35986 0.0
C1000 C 0.66865 0.76209 0.38446 0.0
C1001 C 0.68973 0.78626 0.39139 0.0
C1002 C 0.69751 0.8075 0.37418 0.0
H1003 H 0.71429 0.81154 0.27223 0.0
H1004 H 0.70826 0.79663 0.30579 0.0
H1005 H 0.682 0.79194 0.28432 0.0
H1006 H 0.65248 0.77914 0.32377 0.0
H1007 H 0.63896 0.7416 0.35392 0.0
H1008 H 0.78563 0.10453 0.23074 0.0
H1009 H 0.81493 0.14799 0.21395 0.0
H1010 H 0.83844 0.1165 0.14754 0.0
H1011 H 0.80949 0.0729 0.16485 0.0
H1012 H 0.87856 0.16277 0.16766 0.0
H1013 H 0.79355 0.17226 0.14622 0.0
H1014 H 0.79653 0.16576 0.18176 0.0
H1015 H 0.79093 0.1421 0.1557 0.0
C1016 C 0.7979 0.10698 0.21327 0.0
C1017 C 0.79566 0.0854 0.1994 0.0
C1018 C 0.81427 0.1318 0.20335 0.0
C1019 C 0.82832 0.13554 0.17895 0.0
C1020 C 0.82764 0.11413 0.16628 0.0
H1021 H 0.92354 0.26329 0.07119 0.0
H1022 H 0.89301 0.22101 0.08984 0.0
C1023 C 0.81138 0.08922 0.17639 0.0
C1024 C 0.84236 0.16145 0.1658 0.0
H1025 H 0.83415 0.20927 0.13859 0.0
C1026 C 0.86881 0.17287 0.16126 0.0
C1027 C 0.82968 0.17472 0.15731 0.0
C1028 C 0.80108 0.16302 0.16023 0.0
C1029 C 0.88293 0.19724 0.14894 0.0
C1030 C 0.87024 0.21046 0.14044 0.0
C1031 C 0.84385 0.19916 0.14509 0.0
C1032 C 0.88428 0.23589 0.12642 0.0
C1033 C 0.91147 0.20885 0.14546 0.0
C1034 C 0.88804 0.25835 0.1397 0.0
C1035 C 0.90517 0.28266 0.1287 0.0
C1036 C 0.91862 0.28478 0.1042 0.0
C1037 C 0.91302 0.26222 0.08978 0.0
C1038 C 0.89591 0.23804 0.10068 0.0
H1039 H 0.91913 0.19922 0.15868 0.0
H1040 H 0.91572 0.20673 0.12361 0.0
H1041 H 0.92171 0.22967 0.15059 0.0
H1042 H 0.87919 0.25715 0.15955 0.0
H1043 H 0.9097 0.29967 0.14067 0.0
H1044 H 0.76304 0.67955 0.08134 0.0
H1045 H 0.80723 0.69241 0.09457 0.0
H1046 H 0.77986 0.65403 0.17275 0.0
H1047 H 0.73601 0.64136 0.1596 0.0
H1048 H 0.83084 0.72417 0.14078 0.0
H1049 H 0.83276 0.63373 0.15084 0.0
H1050 H 0.80853 0.63581 0.13108 0.0
H1051 H 0.80589 0.63259 0.16808 0.0
C1052 C 0.76641 0.67279 0.10072 0.0
C1053 C 0.74605 0.6588 0.11911 0.0
C1054 C 0.79168 0.68046 0.10845 0.0
C1055 C 0.79695 0.67404 0.1346 0.0
C1056 C 0.77637 0.65878 0.15226 0.0
H1057 H 0.91402 0.71021 0.2526 0.0
H1058 H 0.87577 0.69617 0.22462 0.0
C1059 C 0.75124 0.65136 0.14466 0.0
C1060 C 0.82379 0.68558 0.14497 0.0
H1061 H 0.86517 0.67022 0.17568 0.0
C1062 C 0.83859 0.71243 0.14795 0.0
C1063 C 0.83392 0.67031 0.1544 0.0
C1064 C 0.81956 0.64153 0.15071 0.0
C1065 C 0.8625 0.72425 0.16152 0.0
C1066 C 0.87214 0.70885 0.17199 0.0
C1067 C 0.85781 0.6821 0.16785 0.0
C1068 C 0.89585 0.7196 0.18927 0.0
C1069 C 0.87657 0.75296 0.16584 0.0
C1070 C 0.9201 0.73803 0.1791 0.0
C1071 C 0.94224 0.74643 0.19538 0.0
C1072 C 0.94048 0.73629 0.22195 0.0
C1073 C 0.91612 0.71844 0.23223 0.0
C1074 C 0.89416 0.71026 0.21616 0.0
H1075 H 0.86417 0.7613 0.16171 0.0
H1076 H 0.88397 0.75796 0.18731 0.0
H1077 H 0.89315 0.76204 0.15154 0.0
H1078 H 0.92205 0.74527 0.15827 0.0
H1079 H 0.96076 0.75987 0.18671 0.0
H1080 H 0.27546 0.21126 0.16317 0.0
H1081 H 0.29134 0.18457 0.1426 0.0
H1082 H 0.34468 0.20438 0.20998 0.0
H1083 H 0.32889 0.23109 0.23037 0.0
H1084 H 0.36768 0.21701 0.15706 0.0
H1085 H 0.28791 0.11569 0.15966 0.0
H1086 H 0.28002 0.13878 0.14668 0.0
H1087 H 0.28901 0.14018 0.18226 0.0
C1088 C 0.28954 0.2087 0.17434 0.0
C1089 C 0.30038 0.22259 0.19883 0.0
C1090 C 0.29883 0.19367 0.16242 0.0
C1091 C 0.31923 0.19238 0.17472 0.0
C1092 C 0.32889 0.20495 0.20012 0.0
H1093 H 0.42172 0.13623 0.1404 0.0
H1094 H 0.40317 0.16259 0.15328 0.0
C1095 C 0.31958 0.21989 0.21202 0.0
C1096 C 0.33255 0.18069 0.15975 0.0
H1097 H 0.32498 0.12409 0.13479 0.0
C1098 C 0.35832 0.19667 0.15219 0.0
C1099 C 0.32031 0.15426 0.15296 0.0
C1100 C 0.29284 0.1361 0.16093 0.0
C1101 C 0.37219 0.18699 0.1383 0.0
C1102 C 0.36022 0.16039 0.13224 0.0
C1103 C 0.33424 0.14449 0.13925 0.0
C1104 C 0.37468 0.14826 0.12076 0.0
C1105 C 0.3995 0.20549 0.13002 0.0
C1106 C 0.3655 0.1318 0.09762 0.0
C1107 C 0.37637 0.11679 0.09007 0.0
C1108 C 0.39657 0.11792 0.10555 0.0
C1109 C 0.40685 0.13569 0.12743 0.0
C1110 C 0.39603 0.15064 0.13497 0.0
H1111 H 0.40268 0.22515 0.12693 0.0
H1112 H 0.41253 0.20657 0.14677 0.0
H1113 H 0.40477 0.19924 0.11071 0.0
H1114 H 0.34897 0.12944 0.08637 0.0
H1115 H 0.36742 0.10258 0.07381 0.0
H1116 H 0.76027 0.13356 0.57929 0.0
H1117 H 0.80442 0.16064 0.59616 0.0
H1118 H 0.77811 0.13974 0.68001 0.0
H1119 H 0.73423 0.1126 0.66323 0.0
H1120 H 0.81878 0.19384 0.67146 0.0
H1121 H 0.8407 0.12162 0.62744 0.0
H1122 H 0.82688 0.13452 0.60413 0.0
H1123 H 0.80833 0.11498 0.63261 0.0
C1124 C 0.7638 0.13565 0.60135 0.0
C1125 C 0.7438 0.12126 0.61998 0.0
C1126 C 0.78907 0.1508 0.61097 0.0
C1127 C 0.79463 0.15186 0.63935 0.0
C1128 C 0.77433 0.13916 0.65806 0.0
H1129 H 0.93681 0.22533 0.73773 0.0
H1130 H 0.89171 0.1975 0.72419 0.0
C1131 C 0.74923 0.12383 0.64846 0.0
C1132 C 0.82155 0.16424 0.6495 0.0
H1133 H 0.87467 0.15781 0.64923 0.0
C1134 C 0.83102 0.18599 0.66664 0.0
C1135 C 0.83741 0.1538 0.64344 0.0
C1136 C 0.82788 0.12983 0.62608 0.0
C1137 C 0.85617 0.19803 0.6772 0.0
C1138 C 0.8721 0.18761 0.6711 0.0
C1139 C 0.86247 0.1657 0.65413 0.0
C1140 C 0.89943 0.20041 0.68021 0.0
C1141 C 0.86573 0.22232 0.69401 0.0
C1142 C 0.91891 0.20972 0.66025 0.0
C1143 C 0.94455 0.22518 0.668 0.0
C1144 C 0.95138 0.23142 0.69591 0.0
C1145 C 0.93216 0.22038 0.71614 0.0
C1146 C 0.90635 0.20492 0.70834 0.0
H1147 H 0.85335 0.23092 0.69149 0.0
H1148 H 0.86579 0.21783 0.71621 0.0
H1149 H 0.88559 0.23681 0.68801 0.0
H1150 H 0.91419 0.20642 0.63847 0.0
H1151 H 0.95894 0.2338 0.65196 0.0
H1152 H 0.88164 0.60193 0.61979 0.0
H1153 H 0.85023 0.61474 0.63112 0.0
H1154 H 0.88424 0.67527 0.5707 0.0
H1155 H 0.91593 0.66245 0.55956 0.0
H1156 H 0.88261 0.69363 0.62119 0.0
H1157 H 0.78695 0.6108 0.59892 0.0
H1158 H 0.80572 0.60118 0.61874 0.0
H1159 H 0.81581 0.61364 0.58436 0.0
C1160 C 0.88146 0.61699 0.6078 0.0
C1161 C 0.90069 0.63064 0.58815 0.0
C1162 C 0.86358 0.62448 0.61443 0.0
C1163 C 0.86458 0.64588 0.60163 0.0
C1164 C 0.88285 0.65857 0.58071 0.0
H1165 H 0.78845 0.72723 0.67507 0.0
H1166 H 0.81192 0.71645 0.64074 0.0
C1167 C 0.90072 0.65099 0.57402 0.0
C1168 C 0.84909 0.65691 0.61292 0.0
H1169 H 0.78881 0.64004 0.63473 0.0
C1170 C 0.862 0.68213 0.62354 0.0
C1171 C 0.82218 0.64204 0.616 0.0
C1172 C 0.80685 0.61552 0.60362 0.0
C1173 C 0.84904 0.69211 0.63881 0.0
C1174 C 0.82239 0.67658 0.64338 0.0
C1175 C 0.80926 0.65195 0.63137 0.0
C1176 C 0.80842 0.68396 0.66351 0.0
C1177 C 0.86419 0.71855 0.65144 0.0
C1178 C 0.79858 0.66932 0.68754 0.0
C1179 C 0.78533 0.67539 0.70695 0.0
C1180 C 0.78136 0.69627 0.70294 0.0
C1181 C 0.79127 0.71112 0.67887 0.0
C1182 C 0.80471 0.70499 0.65928 0.0
H1183 H 0.88516 0.72692 0.6487 0.0
H1184 H 0.85854 0.73154 0.64155 0.0
H1185 H 0.85997 0.71786 0.67387 0.0
H1186 H 0.80124 0.65311 0.69139 0.0
H1187 H 0.77807 0.66346 0.72518 0.0
H1188 H 0.28348 0.07894 0.69661 0.0
H1189 H 0.29836 0.11595 0.6652 0.0
H1190 H 0.35847 0.16312 0.72261 0.0
H1191 H 0.3439 0.12678 0.75375 0.0
H1192 H 0.30681 0.16795 0.67487 0.0
H1193 H 0.39698 0.16946 0.64933 0.0
H1194 H 0.36975 0.14189 0.66455 0.0
H1195 H 0.39092 0.16892 0.68574 0.0
C1196 C 0.29959 0.09732 0.70268 0.0
C1197 C 0.31253 0.09979 0.72768 0.0
C1198 C 0.3082 0.11841 0.68464 0.0
C1199 C 0.32996 0.1422 0.69123 0.0
C1200 C 0.34206 0.14488 0.71671 0.0
H1201 H 0.41991 0.29803 0.63388 0.0
H1202 H 0.40471 0.25533 0.65387 0.0
C1203 C 0.33352 0.12401 0.73462 0.0
C1204 C 0.34041 0.16447 0.67184 0.0
H1205 H 0.39495 0.20675 0.63712 0.0
C1206 C 0.32591 0.17621 0.66623 0.0
C1207 C 0.36545 0.17541 0.66072 0.0
C1208 C 0.38164 0.16317 0.66514 0.0
C1209 C 0.33612 0.19912 0.65086 0.0
C1210 C 0.36138 0.21036 0.64013 0.0
C1211 C 0.37564 0.19824 0.64523 0.0
C1212 C 0.37359 0.23528 0.62477 0.0
C1213 C 0.32012 0.21171 0.64738 0.0
C1214 C 0.36231 0.2381 0.60068 0.0
C1215 C 0.3711 0.26246 0.58919 0.0
C1216 C 0.39176 0.28445 0.60112 0.0
C1217 C 0.40451 0.28134 0.62371 0.0
C1218 C 0.39555 0.25696 0.63538 0.0
H1219 H 0.30407 0.20429 0.66243 0.0
H1220 H 0.33197 0.23287 0.64999 0.0
H1221 H 0.31179 0.20766 0.62629 0.0
H1222 H 0.34574 0.22167 0.59167 0.0
H1223 H 0.36053 0.26437 0.5722 0.0
H1224 H 0.2479 0.94681 0.75213 0.0
H1225 H 0.21823 0.90189 0.76539 0.0
H1226 H 0.22745 0.92469 0.85113 0.0
H1227 H 0.25649 0.9692 0.8379 0.0
H1228 H 0.23142 0.873 0.79687 0.0
H1229 H 0.15155 0.87629 0.84877 0.0
H1230 H 0.17431 0.90207 0.82715 0.0
H1231 H 0.18202 0.89979 0.86258 0.0
C1232 C 0.24253 0.94232 0.77363 0.0
C1233 C 0.25392 0.9616 0.79391 0.0
C1234 C 0.22589 0.9166 0.78128 0.0
C1235 C 0.22027 0.90975 0.80933 0.0
C1236 C 0.2308 0.92932 0.82937 0.0
H1237 H 0.14444 0.76781 0.90581 0.0
H1238 H 0.1738 0.81209 0.89041 0.0
C1239 C 0.24737 0.95486 0.82176 0.0
C1240 C 0.20562 0.88216 0.81805 0.0
H1241 H 0.15572 0.8396 0.85846 0.0
C1242 C 0.21469 0.86566 0.81009 0.0
C1243 C 0.18389 0.87244 0.83555 0.0
C1244 C 0.17222 0.88851 0.84379 0.0
C1245 C 0.20305 0.8401 0.81955 0.0
C1246 C 0.18157 0.83054 0.83733 0.0
C1247 C 0.1724 0.84695 0.84516 0.0
C1248 C 0.16732 0.8032 0.84675 0.0
C1249 C 0.21417 0.82365 0.81089 0.0
C1250 C 0.15448 0.78328 0.82744 0.0
C1251 C 0.13783 0.75809 0.83622 0.0
C1252 C 0.13379 0.75209 0.86452 0.0
C1253 C 0.14778 0.77168 0.88389 0.0
C1254 C 0.16427 0.79705 0.87508 0.0
H1255 H 0.23423 0.83547 0.80355 0.0
H1256 H 0.21371 0.81142 0.82823 0.0
H1257 H 0.20258 0.81085 0.79368 0.0
H1258 H 0.15606 0.78746 0.80554 0.0
H1259 H 0.12678 0.74353 0.82086 0.0
H1260 H 0.07117 0.28179 0.80909 0.0
H1261 H 0.1136 0.30119 0.8314 0.0
H1262 H 0.14901 0.31049 0.75161 0.0
H1263 H 0.107 0.29141 0.72949 0.0
H1264 H 0.15805 0.29152 0.82764 0.0
H1265 H 0.17833 0.385 0.78359 0.0
H1266 H 0.1463 0.35771 0.78612 0.0
H1267 H 0.1675 0.35883 0.7594 0.0
C1268 C 0.08793 0.28693 0.79655 0.0
C1269 C 0.08582 0.28473 0.76763 0.0
C1270 C 0.11218 0.29831 0.80921 0.0
C1271 C 0.13453 0.30774 0.79308 0.0
C1272 C 0.13212 0.3037 0.76443 0.0
H1273 H 0.29941 0.40558 0.82949 0.0
H1274 H 0.25773 0.38187 0.80547 0.0
C1275 C 0.10807 0.29248 0.75185 0.0
C1276 C 0.16042 0.32354 0.8056 0.0
H1277 H 0.21235 0.38448 0.80702 0.0
C1278 C 0.16989 0.31184 0.82322 0.0
C1279 C 0.17599 0.35005 0.79958 0.0
C1280 C 0.16655 0.36379 0.78131 0.0
C1281 C 0.19457 0.32586 0.8348 0.0
C1282 C 0.21003 0.35251 0.82916 0.0
C1283 C 0.20062 0.36412 0.81129 0.0
C1284 C 0.23526 0.36878 0.84303 0.0
C1285 C 0.20402 0.31187 0.85267 0.0
C1286 C 0.2364 0.37034 0.87193 0.0
C1287 C 0.25991 0.3837 0.88547 0.0
C1288 C 0.28301 0.39627 0.87053 0.0
C1289 C 0.28194 0.39621 0.84152 0.0
C1290 C 0.25816 0.38252 0.82784 0.0
H1291 H 0.19377 0.29095 0.848 0.0
H1292 H 0.22488 0.31963 0.84985 0.0
H1293 H 0.20048 0.31426 0.8747 0.0
H1294 H 0.21904 0.36068 0.88414 0.0
H1295 H 0.26005 0.38362 0.90787 0.0
H1296 H 0.69803 0.75509 0.75026 0.0
H1297 H 0.68066 0.78288 0.76341 0.0
H1298 H 0.70775 0.78713 0.84672 0.0
H1299 H 0.72503 0.75963 0.83367 0.0
H1300 H 0.64226 0.76744 0.80413 0.0
H1301 H 0.72625 0.86131 0.83281 0.0
H1302 H 0.72899 0.83798 0.81176 0.0
H1303 H 0.72596 0.83427 0.84866 0.0
C1304 C 0.70131 0.763 0.77099 0.0
C1305 C 0.71327 0.7556 0.79081 0.0
C1306 C 0.69108 0.77857 0.77862 0.0
C1307 C 0.69297 0.78725 0.80607 0.0
C1308 C 0.7064 0.78116 0.82535 0.0
H1309 H 0.63135 0.86985 0.89823 0.0
H1310 H 0.6487 0.84168 0.88689 0.0
C1311 C 0.71638 0.7655 0.81782 0.0
C1312 C 0.67858 0.80006 0.81547 0.0
H1313 H 0.68548 0.85397 0.84737 0.0
C1314 C 0.65174 0.78646 0.81337 0.0
C1315 C 0.69084 0.82468 0.82802 0.0
C1316 C 0.71961 0.84054 0.83028 0.0
C1317 C 0.63686 0.79664 0.82367 0.0
C1318 C 0.64911 0.82138 0.83598 0.0
C1319 C 0.67597 0.83492 0.8382 0.0
C1320 C 0.63473 0.83441 0.84474 0.0
C1321 C 0.60808 0.7805 0.82174 0.0
C1322 C 0.62031 0.839 0.82527 0.0
C1323 C 0.6102 0.85475 0.83186 0.0
C1324 C 0.61422 0.86633 0.85807 0.0
C1325 C 0.62725 0.86053 0.87819 0.0
C1326 C 0.63752 0.84477 0.87153 0.0
H1327 H 0.60164 0.75968 0.82077 0.0
H1328 H 0.59866 0.78396 0.83963 0.0
H1329 H 0.60156 0.78549 0.80255 0.0
H1330 H 0.61832 0.83185 0.80432 0.0
H1331 H 0.60087 0.85948 0.81573 0.0
H1332 H 0.47589 0.45225 0.57809 0.0
H1333 H 0.50109 0.49138 0.55165 0.0
H1334 H 0.51024 0.4477 0.48642 0.0
H1335 H 0.48487 0.40792 0.51327 0.0
H1336 H 0.55556 0.49554 0.4983 0.0
H1337 H 0.4728 0.50979 0.48433 0.0
H1338 H 0.47783 0.50543 0.51995 0.0
H1339 H 0.46928 0.47965 0.49563 0.0
C1340 C 0.48342 0.45085 0.55823 0.0
C1341 C 0.4782 0.42686 0.54775 0.0
C1342 C 0.4977 0.47331 0.543 0.0
C1343 C 0.50698 0.4725 0.51666 0.0
C1344 C 0.503 0.44878 0.50658 0.0
H1345 H 0.60455 0.61137 0.41605 0.0
H1346 H 0.57359 0.56603 0.42638 0.0
C1347 C 0.48867 0.42609 0.52199 0.0
C1348 C 0.52056 0.49663 0.50009 0.0
H1349 H 0.51445 0.54714 0.47771 0.0
C1350 C 0.54644 0.50657 0.49323 0.0
C1351 C 0.50868 0.51107 0.49331 0.0
C1352 C 0.48054 0.50082 0.49842 0.0
C1353 C 0.5611 0.53119 0.48146 0.0
C1354 C 0.54952 0.54618 0.47615 0.0
C1355 C 0.52337 0.53573 0.48183 0.0
C1356 C 0.56489 0.57363 0.46755 0.0
C1357 C 0.58923 0.54162 0.47617 0.0
C1358 C 0.56926 0.59306 0.48661 0.0
C1359 C 0.58672 0.61882 0.48067 0.0
C1360 C 0.59985 0.62581 0.45531 0.0
C1361 C 0.59415 0.6066 0.43541 0.0
C1362 C 0.57679 0.58067 0.44149 0.0
H1363 H 0.59597 0.52889 0.48448 0.0
H1364 H 0.59286 0.54364 0.45357 0.0
H1365 H 0.60073 0.56097 0.48565 0.0
H1366 H 0.56036 0.58815 0.50683 0.0
H1367 H 0.59128 0.63316 0.49664 0.0
H1368 H 0.59964 0.08104 0.56668 0.0
H1369 H 0.55678 0.05884 0.54612 0.0
H1370 H 0.58716 0.04167 0.47366 0.0
H1371 H 0.62997 0.06343 0.4946 0.0
H1372 H 0.53191 0.05946 0.49832 0.0
H1373 H 0.53765 0.97046 0.50349 0.0
H1374 H 0.56124 1.00021 0.51935 0.0
H1375 H 0.56213 0.99539 0.48275 0.0
C1376 C 0.59738 0.07373 0.54575 0.0
C1377 C 0.61824 0.07452 0.53193 0.0
C1378 C 0.57278 0.06066 0.53417 0.0
C1379 C 0.56855 0.04791 0.50866 0.0
C1380 C 0.58981 0.05083 0.49365 0.0
H1381 H 0.43177 0.94575 0.41549 0.0
H1382 H 0.47498 0.96828 0.43527 0.0
C1383 C 0.6144 0.06381 0.50532 0.0
C1384 C 0.54183 0.02983 0.49913 0.0
H1385 H 0.5001 0.96659 0.48373 0.0
C1386 C 0.52496 0.03916 0.49517 0.0
C1387 C 0.5326 1.00322 0.49525 0.0
C1388 C 0.54923 0.9916 0.50066 0.0
C1389 C 0.4994 0.02282 0.48687 0.0
C1390 C 0.49021 0.99623 0.48294 0.0
C1391 C 0.50707 0.98689 0.48687 0.0
C1392 C 0.46346 0.97814 0.4736 0.0
C1393 C 0.48264 0.03431 0.48173 0.0
C1394 C 0.44232 0.97461 0.48929 0.0
C1395 C 0.41754 0.96137 0.47812 0.0
C1396 C 0.41343 0.95109 0.45126 0.0
C1397 C 0.43427 0.95269 0.4366 0.0
C1398 C 0.45904 0.96594 0.44774 0.0
H1399 H 0.49408 0.05551 0.47928 0.0
H1400 H 0.47076 0.0259 0.46291 0.0
H1401 H 0.46958 0.03011 0.49958 0.0
H1402 H 0.44516 0.98344 0.5095 0.0
H1403 H 0.40198 0.96116 0.48949 0.0
H1404 H 0.0994 0.49147 0.47026 0.0
H1405 H 0.08153 0.51962 0.47671 0.0
H1406 H 0.04401 0.49577 0.39753 0.0
H1407 H 0.06199 0.46741 0.3911 0.0
H1408 H 0.08011 0.55982 0.44693 0.0
H1409 H 0.98434 0.47101 0.45347 0.0
H1410 H 0.01369 0.47004 0.45432 0.0
H1411 H 1.00249 0.47582 0.42233 0.0
C1412 C 0.08832 0.49316 0.45366 0.0
C1413 C 0.08247 0.47763 0.42996 0.0
C1414 C 0.07788 0.50905 0.45747 0.0
C1415 C 0.06099 0.50946 0.43788 0.0
C1416 C 0.05671 0.49552 0.41312 0.0
H1417 H 0.95843 0.56991 0.48612 0.0
H1418 H 0.97868 0.55189 0.45606 0.0
C1419 C 0.06736 0.47968 0.4092 0.0
C1420 C 0.04621 0.52245 0.44505 0.0
H1421 H 0.98681 0.50977 0.46606 0.0
C1422 C 0.05962 0.54894 0.4506 0.0
C1423 C 0.01942 0.50831 0.44985 0.0
C1424 C 1.00402 0.4797 0.44489 0.0
C1425 C 0.04725 0.56143 0.46178 0.0
C1426 C 0.02079 0.54701 0.46819 0.0
C1427 C 0.00705 0.52083 0.46115 0.0
C1428 C 0.00811 0.55794 0.48557 0.0
C1429 C 0.06283 0.58992 0.46734 0.0
C1430 C 0.01744 0.56669 0.51227 0.0
C1431 C 1.00596 0.57675 0.5293 0.0
C1432 C 0.98462 0.57828 0.52029 0.0
C1433 C 0.97486 0.56909 0.49367 0.0
C1434 C 0.98644 0.55885 0.47649 0.0
H1435 H 0.07951 0.59941 0.45316 0.0
H1436 H 0.05106 0.59922 0.46505 0.0
H1437 H 0.0703 0.59314 0.4888 0.0
H1438 H 0.03363 0.56557 0.52012 0.0
H1439 H 0.014 0.58338 0.5497 0.0
H1440 H 0.44015 0.46467 0.8996 0.0
H1441 H 0.48473 0.4955 0.91213 0.0
H1442 H 0.45825 0.52558 0.97712 0.0
H1443 H 0.41385 0.495 0.9644 0.0
H1444 H 0.50402 0.56364 0.95179 0.0
H1445 H 0.51056 0.47824 0.98271 0.0
H1446 H 0.50265 0.47935 0.94716 0.0
H1447 H 0.48053 0.47602 0.97389 0.0
C1448 C 0.44391 0.47884 0.91553 0.0
C1449 C 0.42353 0.47788 0.93058 0.0
C1450 C 0.4694 0.49609 0.92309 0.0
C1451 C 0.4749 0.51248 0.94603 0.0
C1452 C 0.45457 0.51312 0.95941 0.0
H1453 H 0.58657 0.60276 0.06608 0.0
H1454 H 0.55073 0.58016 0.03455 0.0
C1455 C 0.42915 0.49587 0.95188 0.0
C1456 C 0.50124 0.52699 0.95806 0.0
H1457 H 0.5458 0.51874 0.99307 0.0
C1458 C 0.51328 0.55382 0.96049 0.0
C1459 C 0.51345 0.51425 0.96949 0.0
C1460 C 0.50115 0.48537 0.96845 0.0
C1461 C 0.53678 0.56814 0.97447 0.0
C1462 C 0.54841 0.5553 0.98694 0.0
C1463 C 0.53695 0.5286 0.98352 0.0
C1464 C 0.57084 0.56887 0.00594 0.0
C1465 C 0.54878 0.59695 0.97608 0.0
C1466 C 0.59407 0.56935 0.00106 0.0
C1467 C 0.61489 0.58232 0.01937 0.0
C1468 C 0.6127 0.59479 0.04302 0.0
C1469 C 0.58917 0.59362 0.04803 0.0
C1470 C 0.56858 0.58081 0.02984 0.0
H1471 H 0.54256 0.6044 0.95858 0.0
H1472 H 0.54269 0.60213 -0.00447 0.0
H1473 H 0.57002 0.60663 0.97599 0.0
H1474 H 0.59619 0.55999 0.98292 0.0
H1475 H 0.63268 0.58279 0.01491 0.0
H1476 H 0.5298 0.9412 0.89471 0.0
H1477 H 0.50995 0.96189 0.91963 0.0
H1478 H 0.53694 0.94854 -0.00326 0.0
H1479 H 0.5573 0.9278 0.97146 0.0
H1480 H 0.47399 0.94777 0.96066 0.0
H1481 H 0.56867 0.02685 -0.00403 0.0
H1482 H 0.5655 1.00367 0.97022 0.0
H1483 H 0.56117 0.99517 0.00618 0.0
C1484 C 0.53103 0.94212 0.91707 0.0
C1485 C 0.54505 0.93283 0.93116 0.0
C1486 C 0.51972 0.95405 0.93129 0.0
C1487 C 0.52234 0.95732 0.96002 0.0
C1488 C 0.53505 0.94668 0.97448 0.0
H1489 H 0.47684 0.03509 0.07646 0.0
H1490 H 0.49576 0.01368 0.0513 0.0
C1491 C 0.54633 0.93447 0.96013 0.0
C1492 C 0.51276 0.97298 0.97407 0.0
H1493 H 0.5323 0.02883 0.01008 0.0
C1494 C 0.48674 0.96548 0.9715 0.0
C1495 C 0.52944 0.99633 0.98787 0.0
C1496 C 0.5578 0.0062 0.99009 0.0
C1497 C 0.47688 0.98031 0.98281 0.0
C1498 C 0.49353 1.0036 -0.0033 0.0
C1499 C 0.51956 0.01113 -0.00078 0.0
C1500 C 0.48392 0.01912 0.01098 0.0
C1501 C 0.44855 0.97057 0.98046 0.0
C1502 C 0.47168 0.03031 -0.00335 0.0
C1503 C 0.46086 0.04291 0.01114 0.0
C1504 C 0.46206 0.04431 0.04014 0.0
C1505 C 0.47543 0.03421 0.05411 0.0
C1506 C 0.48631 0.02192 0.03975 0.0
H1507 H 0.43765 0.95005 0.97409 0.0
H1508 H 0.44075 0.97274 0.00044 0.0
H1509 H 0.44534 0.982 0.96473 0.0
H1510 H 0.46999 0.02881 0.97436 0.0
H1511 H 0.45057 0.05037 -0.00015 0.0
H1512 H 0.05079 0.59246 0.91277 0.0
H1513 H 0.03684 0.55452 0.94114 0.0
H1514 H 0.09015 0.60104 0.00484 0.0
H1515 H 0.10401 0.63973 0.97624 0.0
H1516 H 0.05989 0.53049 0.96308 0.0
H1517 H 0.02251 0.56614 0.04684 0.0
H1518 H 0.03266 0.58199 0.01386 0.0
H1519 H 0.05603 0.58613 0.03935 0.0
C1520 C 0.05988 0.59468 0.93268 0.0
C1521 C 0.07846 0.61915 0.94231 0.0
C1522 C 0.05183 0.57288 0.94893 0.0
C1523 C 0.06196 0.57483 0.97544 0.0
C1524 C 0.0816 0.59908 0.98468 0.0
H1525 H 0.02214 0.45299 0.09539 0.0
H1526 H 0.04013 0.49412 0.07139 0.0
C1527 C 0.08982 0.62112 0.9682 0.0
C1528 C 0.05101 0.55134 0.9931 0.0
H1529 H 0.01699 0.52473 0.05244 0.0
C1530 C 0.05061 0.52932 0.98267 0.0
C1531 C 0.03861 0.54961 0.01859 0.0
C1532 C 0.03719 0.57211 0.03031 0.0
C1533 C 0.03822 0.50577 -0.00314 0.0
C1534 C 0.02565 0.504 0.02213 0.0
C1535 C 0.02643 0.52607 0.03293 0.0
C1536 C 0.01255 0.47957 0.0381 0.0
C1537 C 0.03884 0.48294 0.98482 0.0
C1538 C 0.99041 0.45781 0.02791 0.0
C1539 C 0.97979 0.43419 0.04186 0.0
C1540 C 0.99133 0.43194 0.06607 0.0
C1541 C 0.01279 0.45407 0.07678 0.0
C1542 C 0.02315 0.47762 0.06308 0.0
H1543 H 0.05309 0.48856 0.96788 0.0
H1544 H 0.04345 0.47293 0.00107 0.0
H1545 H 0.01967 0.46911 0.97634 0.0
H1546 H 0.98178 0.45892 0.00876 0.0
H1547 H 0.96343 0.41747 0.03295 0.0
loop_
_geom_bond_atom_site_label_1
_geom_bond_atom_site_label_2
_geom_bond_distance
_geom_bond_site_symmetry_2
_ccdc_geom_bond_type
Co0 O1 2.216 1_455 S
Co0 O2 2.091 1_455 S
Co0 O4 2.004 . S
Co0 O10 2.021 . S
Co0 O12 2.137 1_455 S
Co0 O13 2.244 . S
O1 Co0 2.216 1_655 S
O1 C8 1.247 . S
O2 Co0 2.091 1_655 S
O2 C8 1.261 . S
C3 O12 1.247 . S
C3 O13 1.272 1_655 S
O4 Co0 2.004 . S
O4 C9 1.259 . S
Co5 O6 2.061 . S
Co5 O11 2.052 . S
Co5 O13 2.135 . S
O6 Co5 2.061 . S
O6 C9 1.235 . S
C7 O10 1.238 . S
C7 O11 1.241 . S
C8 O1 1.247 . S
C8 O2 1.261 . S
C9 O4 1.259 . S
C9 O6 1.235 . S
O10 Co0 2.021 . S
O10 C7 1.238 . S
O11 Co5 2.052 . S
O11 C7 1.241 . S
O12 Co0 2.137 1_655 S
O12 C3 1.247 . S
O13 Co0 2.244 . S
O13 C3 1.272 1_455 S
O13 Co5 2.135 . S
Co14 O15 2.216 . S
Co14 O16 2.091 . S
Co14 O18 2.004 . S
Co14 O24 2.021 . S
Co14 O26 2.137 . S
Co14 O27 2.244 . S
O15 Co14 2.216 . S
O15 C22 1.247 . S
O16 Co14 2.091 . S
O16 C22 1.261 . S
C17 O26 1.247 . S
C17 O27 1.272 . S
O18 Co14 2.004 . S
O18 C23 1.259 . S
Co19 O20 2.061 . S
Co19 O25 2.052 . S
Co19 O27 2.135 . S
O20 Co19 2.061 . S
O20 C23 1.235 . S
C21 O24 1.238 . S
C21 O25 1.241 . S
C22 O15 1.247 . S
C22 O16 1.261 . S
C23 O18 1.259 . S
C23 O20 1.235 . S
O24 Co14 2.021 . S
O24 C21 1.238 . S
O25 Co19 2.052 . S
O25 C21 1.241 . S
O26 Co14 2.137 . S
O26 C17 1.247 . S
O27 Co14 2.244 . S
O27 C17 1.272 . S
O27 Co19 2.135 . S
Co28 O29 2.216 1_545 S
Co28 O30 2.091 1_545 S
Co28 O32 2.004 . S
Co28 O38 2.021 . S
Co28 O40 2.137 1_545 S
Co28 O41 2.244 . S
O29 Co28 2.216 1_565 S
O29 C36 1.247 . S
O30 Co28 2.091 1_565 S
O30 C36 1.261 . S
C31 O40 1.247 . S
C31 O41 1.272 1_565 S
O32 Co28 2.004 . S
O32 C37 1.259 . S
Co33 O34 2.061 . S
Co33 O39 2.052 . S
Co33 O41 2.135 . S
O34 Co33 2.061 . S
O34 C37 1.235 . S
C35 O38 1.238 . S
C35 O39 1.241 . S
C36 O29 1.247 . S
C36 O30 1.261 . S
C37 O32 1.259 . S
C37 O34 1.235 . S
O38 Co28 2.021 . S
O38 C35 1.238 . S
O39 Co33 2.052 . S
O39 C35 1.241 . S
O40 Co28 2.137 1_565 S
O40 C31 1.247 . S
O41 Co28 2.244 . S
O41 C31 1.272 1_545 S
O41 Co33 2.135 . S
Co42 O43 2.216 . S
Co42 O44 2.091 . S
Co42 O46 2.004 1_455 S
Co42 O52 2.020 1_455 S
Co42 O54 2.137 . S
Co42 O55 2.244 . S
O43 Co42 2.216 . S
O43 C50 1.247 . S
O44 Co42 2.091 . S
O44 C50 1.261 . S
C45 O54 1.247 . S
C45 O55 1.272 . S
O46 Co42 2.004 1_655 S
O46 C51 1.259 . S
Co47 O48 2.061 . S
Co47 O53 2.052 . S
Co47 O55 2.135 1_655 S
O48 Co47 2.061 . S
O48 C51 1.235 . S
C49 O52 1.238 . S
C49 O53 1.241 . S
C50 O43 1.247 . S
C50 O44 1.261 . S
C51 O46 1.259 . S
C51 O48 1.235 . S
O52 Co42 2.020 1_655 S
O52 C49 1.238 . S
O53 Co47 2.052 . S
O53 C49 1.241 . S
O54 Co42 2.137 . S
O54 C45 1.247 . S
O55 Co42 2.244 . S
O55 C45 1.272 . S
O55 Co47 2.135 1_455 S
Co56 O57 2.216 . S
Co56 O58 2.091 . S
Co56 O60 2.004 . S
Co56 O66 2.021 . S
Co56 O68 2.137 . S
Co56 O69 2.244 . S
O57 Co56 2.216 . S
O57 C64 1.247 . S
O58 Co56 2.091 . S
O58 C64 1.261 . S
C59 O68 1.247 . S
C59 O69 1.272 . S
O60 Co56 2.004 . S
O60 C65 1.259 . S
Co61 O62 2.061 . S
Co61 O67 2.052 . S
Co61 O69 2.135 . S
O62 Co61 2.061 . S
O62 C65 1.235 . S
C63 O66 1.238 . S
C63 O67 1.241 . S
C64 O57 1.247 . S
C64 O58 1.261 . S
C65 O60 1.259 . S
C65 O62 1.235 . S
O66 Co56 2.021 . S
O66 C63 1.238 . S
O67 Co61 2.052 . S
O67 C63 1.241 . S
O68 Co56 2.137 . S
O68 C59 1.247 . S
O69 Co56 2.244 . S
O69 C59 1.272 . S
O69 Co61 2.135 . S
Co70 O71 2.216 . S
Co70 O72 2.091 . S
Co70 O74 2.004 1_545 S
Co70 O80 2.037 . S
Co70 O82 2.137 . S
Co70 O83 2.244 . S
O71 Co70 2.216 . S
O71 C78 1.247 . S
O72 Co70 2.091 . S
O72 C78 1.261 . S
C73 O82 1.247 . S
C73 O83 1.272 . S
O74 Co70 2.004 1_565 S
O74 C79 1.259 . S
Co75 O76 2.061 . S
Co75 O81 2.052 . S
Co75 O83 2.135 1_565 S
O76 Co75 2.061 . S
O76 C79 1.235 . S
C77 O80 1.212 1_565 S
C77 O81 1.241 . S
C78 O71 1.247 . S
C78 O72 1.261 . S
C79 O74 1.259 . S
C79 O76 1.235 . S
O80 Co70 2.037 . S
O80 C77 1.212 1_545 S
O81 Co75 2.052 . S
O81 C77 1.241 . S
O82 Co70 2.137 . S
O82 C73 1.247 . S
O83 Co70 2.244 . S
O83 C73 1.272 . S
O83 Co75 2.135 1_545 S
Co84 O85 2.216 . S
Co84 O86 2.091 . S
Co84 O88 2.004 . S
Co84 O94 2.021 . S
Co84 O96 2.137 . S
Co84 O97 2.244 . S
O85 Co84 2.216 . S
O85 C92 1.247 . S
O86 Co84 2.091 . S
O86 C92 1.261 . S
C87 O96 1.247 . S
C87 O97 1.272 . S
O88 Co84 2.004 . S
O88 C93 1.259 . S
Co89 O90 2.061 . S
Co89 O95 2.052 . S
Co89 O97 2.135 . S
O90 Co89 2.061 . S
O90 C93 1.235 . S
C91 O94 1.238 . S
C91 O95 1.241 . S
C92 O85 1.247 . S
C92 O86 1.261 . S
C93 O88 1.259 . S
C93 O90 1.235 . S
O94 Co84 2.021 . S
O94 C91 1.238 . S
O95 Co89 2.052 . S
O95 C91 1.241 . S
O96 Co84 2.137 . S
O96 C87 1.247 . S
O97 Co84 2.244 . S
O97 C87 1.272 . S
O97 Co89 2.135 . S
Co98 O99 2.216 . S
Co98 O100 2.091 . S
Co98 O102 2.004 . S
Co98 O108 2.021 . S
Co98 O110 2.137 . S
Co98 O111 2.244 . S
O99 Co98 2.216 . S
O99 C106 1.247 . S
O100 Co98 2.091 . S
O100 C106 1.261 . S
C101 O110 1.247 . S
C101 O111 1.272 . S
O102 Co98 2.004 . S
O102 C107 1.259 . S
Co103 O104 2.061 . S
Co103 O109 2.052 . S
Co103 O111 2.135 . S
O104 Co103 2.061 . S
O104 C107 1.235 . S
C105 O108 1.238 . S
C105 O109 1.241 . S
C106 O99 1.247 . S
C106 O100 1.261 . S
C107 O102 1.259 . S
C107 O104 1.235 . S
O108 Co98 2.021 . S
O108 C105 1.238 . S
O109 Co103 2.052 . S
O109 C105 1.241 . S
O110 Co98 2.137 . S
O110 C101 1.247 . S
O111 Co98 2.244 . S
O111 C101 1.272 . S
O111 Co103 2.135 . S
Co112 O113 2.216 . S
Co112 O114 2.091 . S
Co112 O116 2.004 . S
Co112 O122 2.021 . S
Co112 O124 2.137 . S
Co112 O125 2.244 . S
O113 Co112 2.216 . S
O113 C120 1.247 . S
O114 Co112 2.091 . S
O114 C120 1.261 . S
C115 O124 1.247 . S
C115 O125 1.272 . S
O116 Co112 2.004 . S
O116 C121 1.259 . S
Co117 O118 2.061 . S
Co117 O123 2.052 . S
Co117 O125 2.135 . S
O118 Co117 2.061 . S
O118 C121 1.235 . S
C119 O122 1.238 . S
C119 O123 1.241 . S
C120 O113 1.247 . S
C120 O114 1.261 . S
C121 O116 1.259 . S
C121 O118 1.235 . S
O122 Co112 2.021 . S
O122 C119 1.238 . S
O123 Co117 2.052 . S
O123 C119 1.241 . S
O124 Co112 2.137 . S
O124 C115 1.247 . S
O125 Co112 2.244 . S
O125 C115 1.272 . S
O125 Co117 2.135 . S
Co126 O127 2.216 . S
Co126 O128 2.091 . S
Co126 O130 2.004 . S
Co126 O136 2.021 . S
Co126 O138 2.137 . S
Co126 O139 2.244 . S
O127 Co126 2.216 . S
O127 C134 1.247 . S
O128 Co126 2.091 . S
O128 C134 1.261 . S
C129 O138 1.247 . S
C129 O139 1.272 . S
O130 Co126 2.004 . S
O130 C135 1.259 . S
Co131 O132 2.061 . S
Co131 O137 2.052 . S
Co131 O139 2.135 . S
O132 Co131 2.061 . S
O132 C135 1.235 . S
C133 O136 1.238 . S
C133 O137 1.241 . S
C134 O127 1.247 . S
C134 O128 1.261 . S
C135 O130 1.259 . S
C135 O132 1.235 . S
O136 Co126 2.021 . S
O136 C133 1.238 . S
O137 Co131 2.052 . S
O137 C133 1.241 . S
O138 Co126 2.137 . S
O138 C129 1.247 . S
O139 Co126 2.244 . S
O139 C129 1.272 . S
O139 Co131 2.135 . S
Co140 O141 2.216 . S
Co140 O142 2.091 . S
Co140 O144 2.004 . S
Co140 O150 2.021 . S
Co140 O152 2.137 . S
Co140 O153 2.244 . S
O141 Co140 2.216 . S
O141 C148 1.247 . S
O142 Co140 2.091 . S
O142 C148 1.261 . S
C143 O152 1.247 . S
C143 O153 1.272 . S
O144 Co140 2.004 . S
O144 C149 1.259 . S
Co145 O146 2.061 . S
Co145 O151 2.052 . S
Co145 O153 2.135 . S
O146 Co145 2.061 . S
O146 C149 1.235 . S
C147 O150 1.238 . S
C147 O151 1.241 . S
C148 O141 1.247 . S
C148 O142 1.261 . S
C149 O144 1.259 . S
C149 O146 1.235 . S
O150 Co140 2.021 . S
O150 C147 1.238 . S
O151 Co145 2.052 . S
O151 C147 1.241 . S
O152 Co140 2.137 . S
O152 C143 1.247 . S
O153 Co140 2.244 . S
O153 C143 1.272 . S
O153 Co145 2.135 . S
Co154 O155 2.216 . S
Co154 O156 2.091 . S
Co154 O158 2.004 . S
Co154 O164 2.021 . S
Co154 O166 2.137 . S
Co154 O167 2.244 . S
O155 Co154 2.216 . S
O155 C162 1.247 . S
O156 Co154 2.091 . S
O156 C162 1.261 . S
C157 O166 1.247 . S
C157 O167 1.272 . S
O158 Co154 2.004 . S
O158 C163 1.259 . S
Co159 O160 2.061 . S
Co159 O165 2.052 . S
Co159 O167 2.135 . S
O160 Co159 2.061 . S
O160 C163 1.235 . S
C161 O164 1.238 . S
C161 O165 1.241 . S
C162 O155 1.247 . S
C162 O156 1.261 . S
C163 O158 1.259 . S
C163 O160 1.235 . S
O164 Co154 2.021 . S
O164 C161 1.238 . S
O165 Co159 2.052 . S
O165 C161 1.241 . S
O166 Co154 2.137 . S
O166 C157 1.247 . S
O167 Co154 2.244 . S
O167 C157 1.272 . S
O167 Co159 2.135 . S
Co168 O169 2.216 . S
Co168 O170 2.091 . S
Co168 O172 2.004 . S
Co168 O178 2.021 . S
Co168 O180 2.137 . S
Co168 O181 2.244 . S
O169 Co168 2.216 . S
O169 C176 1.247 . S
O170 Co168 2.091 . S
O170 C176 1.261 . S
C171 O180 1.247 . S
C171 O181 1.272 . S
O172 Co168 2.004 . S
O172 C177 1.259 . S
Co173 O174 2.061 . S
Co173 O179 2.052 . S
Co173 O181 2.135 . S
O174 Co173 2.061 . S
O174 C177 1.235 . S
C175 O178 1.238 . S
C175 O179 1.241 . S
C176 O169 1.247 . S
C176 O170 1.261 . S
C177 O172 1.259 . S
C177 O174 1.235 . S
O178 Co168 2.021 . S
O178 C175 1.238 . S
O179 Co173 2.052 . S
O179 C175 1.241 . S
O180 Co168 2.137 . S
O180 C171 1.247 . S
O181 Co168 2.244 . S
O181 C171 1.272 . S
O181 Co173 2.135 . S
Co182 O183 2.216 . S
Co182 O184 2.091 . S
Co182 O186 2.004 . S
Co182 O192 2.021 . S
Co182 O194 2.137 . S
Co182 O195 2.244 . S
O183 Co182 2.216 . S
O183 C190 1.247 . S
O184 Co182 2.091 . S
O184 C190 1.261 . S
C185 O194 1.247 . S
C185 O195 1.272 . S
O186 Co182 2.004 . S
O186 C191 1.259 . S
Co187 O188 2.061 . S
Co187 O193 2.052 . S
Co187 O195 2.135 . S
O188 Co187 2.061 . S
O188 C191 1.235 . S
C189 O192 1.238 . S
C189 O193 1.241 . S
C190 O183 1.247 . S
C190 O184 1.261 . S
C191 O186 1.259 . S
C191 O188 1.235 . S
O192 Co182 2.021 . S
O192 C189 1.238 . S
O193 Co187 2.052 . S
O193 C189 1.241 . S
O194 Co182 2.137 . S
O194 C185 1.247 . S
O195 Co182 2.244 . S
O195 C185 1.272 . S
O195 Co187 2.135 . S
Co196 O197 2.216 . S
Co196 O198 2.091 . S
Co196 O200 2.004 . S
Co196 O206 2.021 . S
Co196 O208 2.137 . S
Co196 O209 2.244 . S
O197 Co196 2.216 . S
O197 C204 1.247 . S
O198 Co196 2.091 . S
O198 C204 1.261 . S
C199 O208 1.247 . S
C199 O209 1.272 . S
O200 Co196 2.004 . S
O200 C205 1.259 . S
Co201 O202 2.061 . S
Co201 O207 2.052 . S
Co201 O209 2.135 . S
O202 Co201 2.061 . S
O202 C205 1.235 . S
C203 O206 1.238 . S
C203 O207 1.241 . S
C204 O197 1.247 . S
C204 O198 1.261 . S
C205 O200 1.259 . S
C205 O202 1.235 . S
O206 Co196 2.021 . S
O206 C203 1.238 . S
O207 Co201 2.052 . S
O207 C203 1.241 . S
O208 Co196 2.137 . S
O208 C199 1.247 . S
O209 Co196 2.244 . S
O209 C199 1.272 . S
O209 Co201 2.135 . S
Co210 O211 2.216 . S
Co210 O212 2.091 . S
Co210 O214 2.004 . S
Co210 O220 2.021 . S
Co210 O222 2.137 . S
Co210 O223 2.244 . S
O211 Co210 2.216 . S
O211 C218 1.247 . S
O212 Co210 2.091 . S
O212 C218 1.261 . S
C213 O222 1.247 . S
C213 O223 1.272 . S
O214 Co210 2.004 . S
O214 C219 1.259 . S
Co215 O216 2.061 . S
Co215 O221 2.052 . S
Co215 O223 2.135 . S
O216 Co215 2.061 . S
O216 C219 1.235 . S
C217 O220 1.238 . S
C217 O221 1.241 . S
C218 O211 1.247 . S
C218 O212 1.261 . S
C219 O214 1.259 . S
C219 O216 1.235 . S
O220 Co210 2.021 . S
O220 C217 1.238 . S
O221 Co215 2.052 . S
O221 C217 1.241 . S
O222 Co210 2.137 . S
O222 C213 1.247 . S
O223 Co210 2.244 . S
O223 C213 1.272 . S
O223 Co215 2.135 . S
Co224 O225 2.216 . S
Co224 O226 2.091 . S
Co224 O228 2.004 . S
Co224 O234 2.021 . S
Co224 O236 2.137 . S
Co224 O237 2.244 . S
O225 Co224 2.216 . S
O225 C232 1.247 . S
O226 Co224 2.091 . S
O226 C232 1.261 . S
C227 O236 1.247 . S
C227 O237 1.272 . S
O228 Co224 2.004 . S
O228 C233 1.259 . S
Co229 O230 2.061 . S
Co229 O235 2.052 . S
Co229 O237 2.135 . S
O230 Co229 2.061 . S
O230 C233 1.235 . S
C231 O234 1.238 . S
C231 O235 1.241 . S
C232 O225 1.247 . S
C232 O226 1.261 . S
C233 O228 1.259 . S
C233 O230 1.235 . S
O234 Co224 2.021 . S
O234 C231 1.238 . S
O235 Co229 2.052 . S
O235 C231 1.241 . S
O236 Co224 2.137 . S
O236 C227 1.247 . S
O237 Co224 2.244 . S
O237 C227 1.272 . S
O237 Co229 2.135 . S
Co238 O239 2.216 . S
Co238 O240 2.091 . S
Co238 O242 2.004 . S
Co238 O248 2.021 . S
Co238 O250 2.137 . S
Co238 O251 2.244 . S
O239 Co238 2.216 . S
O239 C246 1.247 . S
O240 Co238 2.091 . S
O240 C246 1.261 . S
C241 O250 1.247 . S
C241 O251 1.272 . S
O242 Co238 2.004 . S
O242 C247 1.259 . S
Co243 O244 2.061 . S
Co243 O249 2.052 . S
Co243 O251 2.135 . S
O244 Co243 2.061 . S
O244 C247 1.235 . S
C245 O248 1.238 . S
C245 O249 1.241 . S
C246 O239 1.247 . S
C246 O240 1.261 . S
C247 O242 1.259 . S
C247 O244 1.235 . S
O248 Co238 2.021 . S
O248 C245 1.238 . S
O249 Co243 2.052 . S
O249 C245 1.241 . S
O250 Co238 2.137 . S
O250 C241 1.247 . S
O251 Co238 2.244 . S
O251 C241 1.272 . S
O251 Co243 2.135 . S
H252 C260 0.929 . S
H253 C262 0.930 . S
H254 C264 0.930 . S
H255 C267 0.929 . S
H256 C270 0.930 . S
H257 C272 0.960 . S
H258 C272 0.960 . S
H259 C272 0.960 . S
C260 H252 0.929 . S
C260 C261 1.377 . S
C260 C262 1.384 . S
C261 C260 1.377 . S
C261 C267 1.390 . S
C262 H253 0.930 . S
C262 C260 1.384 . S
C262 C263 1.372 . S
C263 C262 1.372 . S
C263 C264 1.400 . S
C263 C268 1.490 . S
C264 H254 0.930 . S
C264 C263 1.400 . S
C264 C267 1.386 . S
H265 C281 0.930 . S
H266 C282 0.931 . S
C267 H255 0.929 . S
C267 C261 1.390 . S
C267 C264 1.386 . S
C268 C263 1.490 . S
C268 C270 1.395 . S
C268 C271 1.403 . S
H269 C275 0.930 . S
C270 H256 0.930 . S
C270 C268 1.395 . S
C270 C273 1.403 . S
C271 C268 1.403 . S
C271 C272 1.524 . S
C271 C275 1.400 . S
C272 H257 0.960 . S
C272 H258 0.960 . S
C272 H259 0.960 . S
C272 C271 1.524 . S
C273 C270 1.403 . S
C273 C274 1.392 . S
C273 C277 1.495 . S
C274 C273 1.392 . S
C274 C275 1.385 . S
C274 C276 1.478 . S
C275 H269 0.930 . S
C275 C271 1.400 . S
C275 C274 1.385 . S
C276 C274 1.478 . S
C276 C278 1.381 . S
C276 C282 1.383 . S
C277 C273 1.495 . S
C277 H283 0.959 . S
C277 H284 0.961 . S
C277 H285 0.960 . S
C278 C276 1.381 . S
C278 C279 1.394 . S
C278 H286 0.930 . S
C279 C278 1.394 . S
C279 C280 1.383 1_554 S
C279 H287 0.929 1_554 S
C280 C279 1.383 1_556 S
C280 C281 1.377 . S
C281 H265 0.930 . S
C281 C280 1.377 . S
C281 C282 1.379 1_556 S
C282 H266 0.931 . S
C282 C276 1.383 . S
C282 C281 1.379 1_554 S
H283 C277 0.959 . S
H284 C277 0.961 . S
H285 C277 0.960 . S
H286 C278 0.930 . S
H287 C279 0.929 1_556 S
H288 C296 0.929 . S
H289 C298 0.930 . S
H290 C300 0.930 . S
H291 C303 0.929 . S
H292 C306 0.930 . S
H293 C308 0.960 . S
H294 C308 0.960 . S
H295 C308 0.960 . S
C296 H288 0.929 . S
C296 C297 1.377 . S
C296 C298 1.384 1_556 S
C297 C296 1.377 . S
C297 C303 1.390 . S
C298 H289 0.930 . S
C298 C296 1.384 1_554 S
C298 C299 1.372 . S
C299 C298 1.372 . S
C299 C300 1.400 . S
C299 C304 1.490 . S
C300 H290 0.930 . S
C300 C299 1.400 . S
C300 C303 1.386 1_554 S
H301 C317 0.930 . S
H302 C318 0.931 . S
C303 H291 0.929 . S
C303 C297 1.390 . S
C303 C300 1.386 1_556 S
C304 C299 1.490 . S
C304 C306 1.395 . S
C304 C307 1.403 . S
H305 C311 0.930 . S
C306 H292 0.930 . S
C306 C304 1.395 . S
C306 C309 1.403 . S
C307 C304 1.403 . S
C307 C308 1.524 . S
C307 C311 1.400 . S
C308 H293 0.960 . S
C308 H294 0.960 . S
C308 H295 0.960 . S
C308 C307 1.524 . S
C309 C306 1.403 . S
C309 C310 1.392 . S
C309 C313 1.495 . S
C310 C309 1.392 . S
C310 C311 1.385 . S
C310 C312 1.478 . S
C311 H305 0.930 . S
C311 C307 1.400 . S
C311 C310 1.385 . S
C312 C310 1.478 . S
C312 C314 1.381 . S
C312 C318 1.383 . S
C313 C309 1.495 . S
C313 H319 0.959 . S
C313 H320 0.961 . S
C313 H321 0.960 . S
C314 C312 1.381 . S
C314 C315 1.394 . S
C314 H322 0.930 . S
C315 C314 1.394 . S
C315 C316 1.383 . S
C315 H323 0.929 . S
C316 C315 1.383 . S
C316 C317 1.377 . S
C317 H301 0.930 . S
C317 C316 1.377 . S
C317 C318 1.379 . S
C318 H302 0.931 . S
C318 C312 1.383 . S
C318 C317 1.379 . S
H319 C313 0.959 . S
H320 C313 0.961 . S
H321 C313 0.960 . S
H322 C314 0.930 . S
H323 C315 0.929 . S
H324 C332 0.929 . S
H325 C334 0.930 . S
H326 C336 0.930 . S
H327 C339 0.929 . S
H328 C342 0.930 . S
H329 C344 0.960 . S
H330 C344 0.960 . S
H331 C344 0.960 . S
C332 H324 0.929 . S
C332 C333 1.377 1_545 S
C332 C334 1.384 . S
C333 C332 1.377 1_565 S
C333 C339 1.390 . S
C334 H325 0.930 . S
C334 C332 1.384 . S
C334 C335 1.372 1_545 S
C335 C334 1.372 1_565 S
C335 C336 1.400 . S
C335 C340 1.490 . S
C336 H326 0.930 . S
C336 C335 1.400 . S
C336 C339 1.386 . S
H337 C353 0.930 . S
H338 C354 0.931 . S
C339 H327 0.929 . S
C339 C333 1.390 . S
C339 C336 1.386 . S
C340 C335 1.490 . S
C340 C342 1.395 . S
C340 C343 1.403 . S
H341 C347 0.930 . S
C342 H328 0.930 . S
C342 C340 1.395 . S
C342 C345 1.403 . S
C343 C340 1.403 . S
C343 C344 1.524 . S
C343 C347 1.400 . S
C344 H329 0.960 . S
C344 H330 0.960 . S
C344 H331 0.960 . S
C344 C343 1.524 . S
C345 C342 1.403 . S
C345 C346 1.392 . S
C345 C349 1.495 . S
C346 C345 1.392 . S
C346 C347 1.385 . S
C346 C348 1.478 . S
C347 H341 0.930 . S
C347 C343 1.400 . S
C347 C346 1.385 . S
C348 C346 1.478 . S
C348 C350 1.381 . S
C348 C354 1.383 . S
C349 C345 1.495 . S
C349 H355 0.959 . S
C349 H356 0.961 . S
C349 H357 0.960 . S
C350 C348 1.381 . S
C350 C351 1.394 1_554 S
C350 H358 0.930 . S
C351 C350 1.394 1_556 S
C351 C352 1.383 . S
C351 H359 0.929 . S
C352 C351 1.383 . S
C352 C353 1.377 . S
C353 H337 0.930 . S
C353 C352 1.377 . S
C353 C354 1.379 1_556 S
C354 H338 0.931 . S
C354 C348 1.383 . S
C354 C353 1.379 1_554 S
H355 C349 0.959 . S
H356 C349 0.961 . S
H357 C349 0.960 . S
H358 C350 0.930 . S
H359 C351 0.929 . S
H360 C368 0.929 . S
H361 C370 0.930 . S
H362 C372 0.930 . S
H363 C375 0.929 . S
H364 C378 0.930 . S
H365 C380 0.960 . S
H366 C380 0.960 . S
H367 C380 0.960 . S
C368 H360 0.929 . S
C368 C369 1.377 . S
C368 C370 1.384 . S
C369 C368 1.377 . S
C369 C375 1.390 . S
C370 H361 0.930 . S
C370 C368 1.384 . S
C370 C371 1.372 . S
C371 C370 1.372 . S
C371 C372 1.400 . S
C371 C376 1.490 . S
C372 H362 0.930 . S
C372 C371 1.400 . S
C372 C375 1.386 . S
H373 C389 0.930 . S
H374 C390 0.931 . S
C375 H363 0.929 . S
C375 C369 1.390 . S
C375 C372 1.386 . S
C376 C371 1.490 . S
C376 C378 1.395 . S
C376 C379 1.403 . S
H377 C383 0.930 . S
C378 H364 0.930 . S
C378 C376 1.395 . S
C378 C381 1.403 . S
C379 C376 1.403 . S
C379 C380 1.524 . S
C379 C383 1.400 . S
C380 H365 0.960 . S
C380 H366 0.960 . S
C380 H367 0.960 . S
C380 C379 1.524 . S
C381 C378 1.403 . S
C381 C382 1.392 . S
C381 C385 1.495 . S
C382 C381 1.392 . S
C382 C383 1.385 . S
C382 C384 1.478 . S
C383 H377 0.930 . S
C383 C379 1.400 . S
C383 C382 1.385 . S
C384 C382 1.478 . S
C384 C386 1.381 . S
C384 C390 1.383 . S
C385 C381 1.495 . S
C385 H391 0.959 . S
C385 H392 0.961 . S
C385 H393 0.960 . S
C386 C384 1.381 . S
C386 C387 1.394 . S
C386 H394 0.930 . S
C387 C386 1.394 . S
C387 C388 1.383 . S
C387 H395 0.929 . S
C388 C387 1.383 . S
C388 C389 1.377 . S
C389 H373 0.930 . S
C389 C388 1.377 . S
C389 C390 1.379 . S
C390 H374 0.931 . S
C390 C384 1.383 . S
C390 C389 1.379 . S
H391 C385 0.959 . S
H392 C385 0.961 . S
H393 C385 0.960 . S
H394 C386 0.930 . S
H395 C387 0.929 . S
H396 C404 0.929 . S
H397 C406 0.930 . S
H398 C408 0.930 . S
H399 C411 0.929 . S
H400 C414 0.930 . S
H401 C416 0.960 . S
H402 C416 0.960 . S
H403 C416 0.960 . S
C404 H396 0.929 . S
C404 C405 1.377 . S
C404 C406 1.384 . S
C405 C404 1.377 . S
C405 C411 1.390 . S
C406 H397 0.930 . S
C406 C404 1.384 . S
C406 C407 1.372 . S
C407 C406 1.372 . S
C407 C408 1.400 . S
C407 C412 1.490 . S
C408 H398 0.930 . S
C408 C407 1.400 . S
C408 C411 1.386 . S
H409 C425 0.930 . S
H410 C426 0.931 . S
C411 H399 0.929 . S
C411 C405 1.390 . S
C411 C408 1.386 . S
C412 C407 1.490 . S
C412 C414 1.395 . S
C412 C415 1.403 . S
H413 C419 0.930 . S
C414 H400 0.930 . S
C414 C412 1.395 . S
C414 C417 1.403 . S
C415 C412 1.403 . S
C415 C416 1.524 . S
C415 C419 1.400 . S
C416 H401 0.960 . S
C416 H402 0.960 . S
C416 H403 0.960 . S
C416 C415 1.524 . S
C417 C414 1.403 . S
C417 C418 1.392 . S
C417 C421 1.495 1_655 S
C418 C417 1.392 . S
C418 C419 1.385 . S
C418 C420 1.478 . S
C419 H413 0.930 . S
C419 C415 1.400 . S
C419 C418 1.385 . S
C420 C418 1.478 . S
C420 C422 1.381 . S
C420 C426 1.383 . S
C421 C417 1.495 1_455 S
C421 H427 0.959 . S
C421 H428 0.961 . S
C421 H429 0.960 . S
C422 C420 1.381 . S
C422 C423 1.394 . S
C422 H430 0.930 . S
C423 C422 1.394 . S
C423 C424 1.383 . S
C423 H431 0.929 . S
C424 C423 1.383 . S
C424 C425 1.377 . S
C425 H409 0.930 . S
C425 C424 1.377 . S
C425 C426 1.379 . S
C426 H410 0.931 . S
C426 C420 1.383 . S
C426 C425 1.379 . S
H427 C421 0.959 . S
H428 C421 0.961 . S
H429 C421 0.960 . S
H430 C422 0.930 . S
H431 C423 0.929 . S
H432 C440 0.929 . S
H433 C442 0.930 . S
H434 C444 0.930 . S
H435 C447 0.929 . S
H436 C450 0.930 . S
H437 C452 0.960 . S
H438 C452 0.960 . S
H439 C452 0.960 . S
C440 H432 0.929 . S
C440 C441 1.377 . S
C440 C442 1.384 . S
C441 C440 1.377 . S
C441 C447 1.390 . S
C442 H433 0.930 . S
C442 C440 1.384 . S
C442 C443 1.372 . S
C443 C442 1.372 . S
C443 C444 1.400 . S
C443 C448 1.490 . S
C444 H434 0.930 . S
C444 C443 1.400 . S
C444 C447 1.386 . S
H445 C461 0.930 . S
H446 C462 0.931 . S
C447 H435 0.929 . S
C447 C441 1.390 . S
C447 C444 1.386 . S
C448 C443 1.490 . S
C448 C450 1.395 . S
C448 C451 1.403 . S
H449 C455 0.930 . S
C450 H436 0.930 . S
C450 C448 1.395 . S
C450 C453 1.403 . S
C451 C448 1.403 . S
C451 C452 1.524 . S
C451 C455 1.400 . S
C452 H437 0.960 . S
C452 H438 0.960 . S
C452 H439 0.960 . S
C452 C451 1.524 . S
C453 C450 1.403 . S
C453 C454 1.392 . S
C453 C457 1.495 . S
C454 C453 1.392 . S
C454 C455 1.385 . S
C454 C456 1.478 . S
C455 H449 0.930 . S
C455 C451 1.400 . S
C455 C454 1.385 . S
C456 C454 1.478 . S
C456 C458 1.381 . S
C456 C462 1.383 . S
C457 C453 1.495 . S
C457 H463 0.959 . S
C457 H464 0.961 . S
C457 H465 0.960 . S
C458 C456 1.381 . S
C458 C459 1.394 . S
C458 H466 0.930 . S
C459 C458 1.394 . S
C459 C460 1.383 . S
C459 H467 0.929 . S
C460 C459 1.383 . S
C460 C461 1.377 . S
C461 H445 0.930 . S
C461 C460 1.377 . S
C461 C462 1.379 . S
C462 H446 0.931 . S
C462 C456 1.383 . S
C462 C461 1.379 . S
H463 C457 0.959 . S
H464 C457 0.961 . S
H465 C457 0.960 . S
H466 C458 0.930 . S
H467 C459 0.929 . S
H468 C476 0.929 . S
H469 C478 0.930 . S
H470 C480 0.930 . S
H471 C483 0.929 . S
H472 C486 0.930 . S
H473 C488 0.960 . S
H474 C488 0.960 . S
H475 C488 0.960 . S
C476 H468 0.929 . S
C476 C477 1.377 . S
C476 C478 1.384 . S
C477 C476 1.377 . S
C477 C483 1.390 . S
C478 H469 0.930 . S
C478 C476 1.384 . S
C478 C479 1.372 . S
C479 C478 1.372 . S
C479 C480 1.400 . S
C479 C484 1.490 . S
C480 H470 0.930 . S
C480 C479 1.400 . S
C480 C483 1.386 . S
H481 C497 0.930 . S
H482 C498 0.931 . S
C483 H471 0.929 . S
C483 C477 1.390 . S
C483 C480 1.386 . S
C484 C479 1.490 . S
C484 C486 1.395 . S
C484 C487 1.403 . S
H485 C491 0.930 . S
C486 H472 0.930 . S
C486 C484 1.395 . S
C486 C489 1.403 . S
C487 C484 1.403 . S
C487 C488 1.524 1_655 S
C487 C491 1.400 . S
C488 H473 0.960 . S
C488 H474 0.960 . S
C488 H475 0.960 . S
C488 C487 1.524 1_455 S
C489 C486 1.403 . S
C489 C490 1.392 . S
C489 C493 1.495 . S
C490 C489 1.392 . S
C490 C491 1.385 . S
C490 C492 1.478 . S
C491 H485 0.930 . S
C491 C487 1.400 . S
C491 C490 1.385 . S
C492 C490 1.478 . S
C492 C494 1.381 . S
C492 C498 1.383 . S
C493 C489 1.495 . S
C493 H499 0.959 . S
C493 H500 0.961 . S
C493 H501 0.960 . S
C494 C492 1.381 . S
C494 C495 1.394 . S
C494 H502 0.930 . S
C495 C494 1.394 . S
C495 C496 1.383 1_556 S
C495 H503 0.929 . S
C496 C495 1.383 1_554 S
C496 C497 1.377 . S
C497 H481 0.930 . S
C497 C496 1.377 . S
C497 C498 1.379 1_554 S
C498 H482 0.931 . S
C498 C492 1.383 . S
C498 C497 1.379 1_556 S
H499 C493 0.959 . S
H500 C493 0.961 . S
H501 C493 0.960 . S
H502 C494 0.930 . S
H503 C495 0.929 . S
H504 C512 0.929 . S
H505 C514 0.930 . S
H506 C516 0.930 . S
H507 C519 0.936 . S
H508 C522 0.930 . S
H509 C524 0.960 . S
H510 C524 0.960 . S
H511 C524 0.960 . S
C512 H504 0.929 . S
C512 C513 1.377 . S
C512 C514 1.384 1_554 S
C513 C512 1.377 . S
C513 C519 1.421 . S
C514 H505 0.930 . S
C514 C512 1.384 1_556 S
C514 C515 1.372 . S
C515 C514 1.372 . S
C515 C516 1.400 . S
C515 C520 1.490 . S
C516 H506 0.930 . S
C516 C515 1.400 . S
C516 C519 1.349 1_556 S
H517 C533 0.930 . S
H518 C534 0.931 . S
C519 H507 0.936 . S
C519 C513 1.421 . S
C519 C516 1.349 1_554 S
C520 C515 1.490 . S
C520 C522 1.395 . S
C520 C523 1.403 . S
H521 C527 0.930 . S
C522 H508 0.930 . S
C522 C520 1.395 . S
C522 C525 1.403 . S
C523 C520 1.403 . S
C523 C524 1.524 . S
C523 C527 1.400 . S
C524 H509 0.960 . S
C524 H510 0.960 . S
C524 H511 0.960 . S
C524 C523 1.524 . S
C525 C522 1.403 . S
C525 C526 1.392 . S
C525 C529 1.495 . S
C526 C525 1.392 . S
C526 C527 1.385 . S
C526 C528 1.478 . S
C527 H521 0.930 . S
C527 C523 1.400 . S
C527 C526 1.385 . S
C528 C526 1.478 . S
C528 C530 1.381 . S
C528 C534 1.383 . S
C529 C525 1.495 . S
C529 H535 0.959 . S
C529 H536 0.961 . S
C529 H537 0.960 . S
C530 C528 1.381 . S
C530 C531 1.394 . S
C530 H538 0.930 . S
C531 C530 1.394 . S
C531 C532 1.383 . S
C531 H539 0.929 . S
C532 C531 1.383 . S
C532 C533 1.377 . S
C533 H517 0.930 . S
C533 C532 1.377 . S
C533 C534 1.379 . S
C534 H518 0.931 . S
C534 C528 1.383 . S
C534 C533 1.379 . S
H535 C529 0.959 . S
H536 C529 0.961 . S
H537 C529 0.960 . S
H538 C530 0.930 . S
H539 C531 0.929 . S
H540 C548 0.929 . S
H541 C550 0.930 . S
H542 C552 0.930 . S
H543 C555 0.929 . S
H544 C558 0.930 . S
H545 C560 0.960 . S
H546 C560 0.960 . S
H547 C560 0.960 . S
C548 H540 0.929 . S
C548 C549 1.377 . S
C548 C550 1.384 1_554 S
C549 C548 1.377 . S
C549 C555 1.390 1_554 S
C550 H541 0.930 . S
C550 C548 1.384 1_556 S
C550 C551 1.372 . S
C551 C550 1.372 . S
C551 C552 1.400 . S
C551 C556 1.490 . S
C552 H542 0.930 . S
C552 C551 1.400 . S
C552 C555 1.386 . S
H553 C569 0.930 . S
H554 C570 0.931 . S
C555 H543 0.929 . S
C555 C549 1.390 1_556 S
C555 C552 1.386 . S
C556 C551 1.490 . S
C556 C558 1.395 . S
C556 C559 1.403 . S
H557 C563 0.930 . S
C558 H544 0.930 . S
C558 C556 1.395 . S
C558 C561 1.403 . S
C559 C556 1.403 . S
C559 C560 1.524 . S
C559 C563 1.400 . S
C560 H545 0.960 . S
C560 H546 0.960 . S
C560 H547 0.960 . S
C560 C559 1.524 . S
C561 C558 1.403 . S
C561 C562 1.392 . S
C561 C565 1.495 . S
C562 C561 1.392 . S
C562 C563 1.385 . S
C562 C564 1.478 . S
C563 H557 0.930 . S
C563 C559 1.400 . S
C563 C562 1.385 . S
C564 C562 1.478 . S
C564 C566 1.381 . S
C564 C570 1.383 . S
C565 C561 1.495 . S
C565 H571 0.959 . S
C565 H572 0.961 . S
C565 H573 0.960 . S
C566 C564 1.381 . S
C566 C567 1.394 . S
C566 H574 0.930 . S
C567 C566 1.394 . S
C567 C568 1.383 . S
C567 H575 0.929 . S
C568 C567 1.383 . S
C568 C569 1.377 . S
C569 H553 0.930 . S
C569 C568 1.377 . S
C569 C570 1.379 . S
C570 H554 0.931 . S
C570 C564 1.383 . S
C570 C569 1.379 . S
H571 C565 0.959 . S
H572 C565 0.961 . S
H573 C565 0.960 . S
H574 C566 0.930 . S
H575 C567 0.929 . S
H576 C584 0.929 . S
H577 C586 0.930 . S
H578 C588 0.930 . S
H579 C591 0.929 . S
H580 C594 0.930 . S
H581 C596 0.960 . S
H582 C596 0.960 . S
H583 C596 0.960 . S
C584 H576 0.929 . S
C584 C585 1.377 . S
C584 C586 1.384 . S
C585 C584 1.377 . S
C585 C591 1.390 . S
C586 H577 0.930 . S
C586 C584 1.384 . S
C586 C587 1.372 . S
C587 C586 1.372 . S
C587 C588 1.400 . S
C587 C592 1.490 . S
C588 H578 0.930 . S
C588 C587 1.400 . S
C588 C591 1.386 . S
H589 C605 0.930 . S
H590 C606 0.931 . S
C591 H579 0.929 . S
C591 C585 1.390 . S
C591 C588 1.386 . S
C592 C587 1.490 . S
C592 C594 1.395 . S
C592 C595 1.403 . S
H593 C599 0.930 . S
C594 H580 0.930 . S
C594 C592 1.395 . S
C594 C597 1.403 . S
C595 C592 1.403 . S
C595 C596 1.524 . S
C595 C599 1.400 . S
C596 H581 0.960 . S
C596 H582 0.960 . S
C596 H583 0.960 . S
C596 C595 1.524 . S
C597 C594 1.403 . S
C597 C598 1.392 . S
C597 C601 1.495 . S
C598 C597 1.392 . S
C598 C599 1.385 . S
C598 C600 1.478 . S
C599 H593 0.930 . S
C599 C595 1.400 . S
C599 C598 1.385 . S
C600 C598 1.478 . S
C600 C602 1.381 . S
C600 C606 1.383 . S
C601 C597 1.495 . S
C601 H607 0.959 1_565 S
C601 H608 0.961 1_565 S
C601 H609 0.960 . S
C602 C600 1.381 . S
C602 C603 1.394 . S
C602 H610 0.930 . S
C603 C602 1.394 . S
C603 C604 1.383 . S
C603 H611 0.929 . S
C604 C603 1.383 . S
C604 C605 1.377 . S
C605 H589 0.930 . S
C605 C604 1.377 . S
C605 C606 1.379 . S
C606 H590 0.931 . S
C606 C600 1.383 . S
C606 C605 1.379 . S
H607 C601 0.959 1_545 S
H608 C601 0.961 1_545 S
H609 C601 0.960 . S
H610 C602 0.930 . S
H611 C603 0.929 . S
H612 C620 0.929 . S
H613 C622 0.930 . S
H614 C624 0.930 . S
H615 C627 0.929 . S
H616 C630 0.930 . S
H617 C632 0.960 . S
H618 C632 0.960 . S
H619 C632 0.960 . S
C620 H612 0.929 . S
C620 C621 1.377 . S
C620 C622 1.384 . S
C621 C620 1.377 . S
C621 C627 1.390 . S
C622 H613 0.930 . S
C622 C620 1.384 . S
C622 C623 1.372 . S
C623 C622 1.372 . S
C623 C624 1.400 . S
C623 C628 1.490 . S
C624 H614 0.930 . S
C624 C623 1.400 . S
C624 C627 1.386 . S
H625 C641 0.930 . S
H626 C642 0.931 . S
C627 H615 0.929 . S
C627 C621 1.390 . S
C627 C624 1.386 . S
C628 C623 1.490 . S
C628 C630 1.395 . S
C628 C631 1.403 . S
H629 C635 0.930 . S
C630 H616 0.930 . S
C630 C628 1.395 . S
C630 C633 1.403 . S
C631 C628 1.403 . S
C631 C632 1.524 . S
C631 C635 1.400 . S
C632 H617 0.960 . S
C632 H618 0.960 . S
C632 H619 0.960 . S
C632 C631 1.524 . S
C633 C630 1.403 . S
C633 C634 1.392 . S
C633 C637 1.495 . S
C634 C633 1.392 . S
C634 C635 1.385 . S
C634 C636 1.478 . S
C635 H629 0.930 . S
C635 C631 1.400 . S
C635 C634 1.385 . S
C636 C634 1.478 . S
C636 C638 1.381 . S
C636 C642 1.383 . S
C637 C633 1.495 . S
C637 H643 0.959 . S
C637 H644 0.961 . S
C637 H645 0.960 . S
C638 C636 1.381 . S
C638 C639 1.394 . S
C638 H646 0.930 . S
C639 C638 1.394 . S
C639 C640 1.383 . S
C639 H647 0.929 . S
C640 C639 1.383 . S
C640 C641 1.377 . S
C641 H625 0.930 . S
C641 C640 1.377 . S
C641 C642 1.379 . S
C642 H626 0.931 . S
C642 C636 1.383 . S
C642 C641 1.379 . S
H643 C637 0.959 . S
H644 C637 0.961 . S
H645 C637 0.960 . S
H646 C638 0.930 . S
H647 C639 0.929 . S
H648 C656 0.929 . S
H649 C658 0.930 . S
H650 C660 0.930 . S
H651 C663 0.929 . S
H652 C666 0.930 . S
H653 C668 0.960 . S
H654 C668 0.960 . S
H655 C668 0.960 . S
C656 H648 0.929 . S
C656 C657 1.377 . S
C656 C658 1.384 . S
C657 C656 1.377 . S
C657 C663 1.390 . S
C658 H649 0.930 . S
C658 C656 1.384 . S
C658 C659 1.372 . S
C659 C658 1.372 . S
C659 C660 1.400 . S
C659 C664 1.490 . S
C660 H650 0.930 . S
C660 C659 1.400 . S
C660 C663 1.386 . S
H661 C677 0.930 . S
H662 C678 0.931 . S
C663 H651 0.929 . S
C663 C657 1.390 . S
C663 C660 1.386 . S
C664 C659 1.490 . S
C664 C666 1.395 . S
C664 C667 1.403 . S
H665 C671 0.930 . S
C666 H652 0.930 . S
C666 C664 1.395 . S
C666 C669 1.403 . S
C667 C664 1.403 . S
C667 C668 1.524 . S
C667 C671 1.400 . S
C668 H653 0.960 . S
C668 H654 0.960 . S
C668 H655 0.960 . S
C668 C667 1.524 . S
C669 C666 1.403 . S
C669 C670 1.392 . S
C669 C673 1.495 . S
C670 C669 1.392 . S
C670 C671 1.385 . S
C670 C672 1.478 . S
C671 H665 0.930 . S
C671 C667 1.400 . S
C671 C670 1.385 . S
C672 C670 1.478 . S
C672 C674 1.381 . S
C672 C678 1.383 . S
C673 C669 1.495 . S
C673 H679 0.959 . S
C673 H680 0.961 . S
C673 H681 0.960 . S
C674 C672 1.381 . S
C674 C675 1.394 . S
C674 H682 0.930 . S
C675 C674 1.394 . S
C675 C676 1.383 . S
C675 H683 0.929 . S
C676 C675 1.383 . S
C676 C677 1.377 . S
C677 H661 0.930 . S
C677 C676 1.377 . S
C677 C678 1.379 . S
C678 H662 0.931 . S
C678 C672 1.383 . S
C678 C677 1.379 . S
H679 C673 0.959 . S
H680 C673 0.961 . S
H681 C673 0.960 . S
H682 C674 0.930 . S
H683 C675 0.929 . S
H684 C692 0.929 . S
H685 C694 0.930 . S
H686 C696 0.930 . S
H687 C699 0.929 . S
H688 C702 0.930 . S
H689 C704 0.960 . S
H690 C704 0.960 . S
H691 C704 0.960 . S
C692 H684 0.929 . S
C692 C693 1.377 . S
C692 C694 1.384 . S
C693 C692 1.377 . S
C693 C699 1.390 . S
C694 H685 0.930 . S
C694 C692 1.384 . S
C694 C695 1.372 . S
C695 C694 1.372 . S
C695 C696 1.400 . S
C695 C700 1.490 . S
C696 H686 0.930 . S
C696 C695 1.400 . S
C696 C699 1.386 . S
H697 C713 0.930 . S
H698 C714 0.931 . S
C699 H687 0.929 . S
C699 C693 1.390 . S
C699 C696 1.386 . S
C700 C695 1.490 . S
C700 C702 1.395 . S
C700 C703 1.403 . S
H701 C707 0.930 . S
C702 H688 0.930 . S
C702 C700 1.395 . S
C702 C705 1.403 . S
C703 C700 1.403 . S
C703 C704 1.524 . S
C703 C707 1.400 . S
C704 H689 0.960 . S
C704 H690 0.960 . S
C704 H691 0.960 . S
C704 C703 1.524 . S
C705 C702 1.403 . S
C705 C706 1.392 . S
C705 C709 1.495 . S
C706 C705 1.392 . S
C706 C707 1.385 . S
C706 C708 1.478 . S
C707 H701 0.930 . S
C707 C703 1.400 . S
C707 C706 1.385 . S
C708 C706 1.478 . S
C708 C710 1.381 . S
C708 C714 1.383 . S
C709 C705 1.495 . S
C709 H715 0.959 . S
C709 H716 0.961 . S
C709 H717 0.960 . S
C710 C708 1.381 . S
C710 C711 1.394 . S
C710 H718 0.930 . S
C711 C710 1.394 . S
C711 C712 1.383 . S
C711 H719 0.929 . S
C712 C711 1.383 . S
C712 C713 1.377 . S
C713 H697 0.930 . S
C713 C712 1.377 . S
C713 C714 1.379 . S
C714 H698 0.931 . S
C714 C708 1.383 . S
C714 C713 1.379 . S
H715 C709 0.959 . S
H716 C709 0.961 . S
H717 C709 0.960 . S
H718 C710 0.930 . S
H719 C711 0.929 . S
H720 C728 0.929 . S
H721 C730 0.930 . S
H722 C732 0.930 . S
H723 C735 0.929 . S
H724 C738 0.930 . S
H725 C740 0.960 . S
H726 C740 0.960 . S
H727 C740 0.960 . S
C728 H720 0.929 . S
C728 C729 1.377 . S
C728 C730 1.384 . S
C729 C728 1.377 . S
C729 C735 1.390 . S
C730 H721 0.930 . S
C730 C728 1.384 . S
C730 C731 1.372 . S
C731 C730 1.372 . S
C731 C732 1.400 . S
C731 C736 1.490 . S
C732 H722 0.930 . S
C732 C731 1.400 . S
C732 C735 1.386 . S
H733 C749 0.930 . S
H734 C750 0.931 . S
C735 H723 0.929 . S
C735 C729 1.390 . S
C735 C732 1.386 . S
C736 C731 1.490 . S
C736 C738 1.395 . S
C736 C739 1.403 1_545 S
H737 C743 0.930 . S
C738 H724 0.930 . S
C738 C736 1.395 . S
C738 C741 1.403 . S
C739 C736 1.403 1_565 S
C739 C740 1.524 . S
C739 C743 1.400 . S
C740 H725 0.960 . S
C740 H726 0.960 . S
C740 H727 0.960 . S
C740 C739 1.524 . S
C741 C738 1.403 . S
C741 C742 1.392 . S
C741 C745 1.495 . S
C742 C741 1.392 . S
C742 C743 1.385 1_545 S
C742 C744 1.478 1_545 S
C743 H737 0.930 . S
C743 C739 1.400 . S
C743 C742 1.385 1_565 S
C744 C742 1.478 1_565 S
C744 C746 1.381 . S
C744 C750 1.383 . S
C745 C741 1.495 . S
C745 H751 0.959 . S
C745 H752 0.961 . S
C745 H753 0.960 . S
C746 C744 1.381 . S
C746 C747 1.394 . S
C746 H754 0.930 . S
C747 C746 1.394 . S
C747 C748 1.383 . S
C747 H755 0.929 . S
C748 C747 1.383 . S
C748 C749 1.377 . S
C749 H733 0.930 . S
C749 C748 1.377 . S
C749 C750 1.379 . S
C750 H734 0.931 . S
C750 C744 1.383 . S
C750 C749 1.379 . S
H751 C745 0.959 . S
H752 C745 0.961 . S
H753 C745 0.960 . S
H754 C746 0.930 . S
H755 C747 0.929 . S
H756 C764 0.929 . S
H757 C766 0.930 . S
H758 C768 0.930 . S
H759 C771 0.929 . S
H760 C774 0.930 . S
H761 C776 0.960 . S
H762 C776 0.960 . S
H763 C776 0.960 . S
C764 H756 0.929 . S
C764 C765 1.377 . S
C764 C766 1.384 . S
C765 C764 1.377 . S
C765 C771 1.390 . S
C766 H757 0.930 . S
C766 C764 1.384 . S
C766 C767 1.372 . S
C767 C766 1.372 . S
C767 C768 1.400 . S
C767 C772 1.490 . S
C768 H758 0.930 . S
C768 C767 1.400 . S
C768 C771 1.386 . S
H769 C785 0.930 . S
H770 C786 0.931 . S
C771 H759 0.929 . S
C771 C765 1.390 . S
C771 C768 1.386 . S
C772 C767 1.490 . S
C772 C774 1.395 . S
C772 C775 1.403 . S
H773 C779 0.930 . S
C774 H760 0.930 . S
C774 C772 1.395 . S
C774 C777 1.403 . S
C775 C772 1.403 . S
C775 C776 1.524 1_455 S
C775 C779 1.400 1_455 S
C776 H761 0.960 . S
C776 H762 0.960 . S
C776 H763 0.960 . S
C776 C775 1.524 1_655 S
C777 C774 1.403 . S
C777 C778 1.392 . S
C777 C781 1.495 . S
C778 C777 1.392 . S
C778 C779 1.385 1_455 S
C778 C780 1.478 1_455 S
C779 H773 0.930 . S
C779 C775 1.400 1_655 S
C779 C778 1.385 1_655 S
C780 C778 1.478 1_655 S
C780 C782 1.381 . S
C780 C786 1.383 . S
C781 C777 1.495 . S
C781 H787 0.959 . S
C781 H788 0.961 . S
C781 H789 0.960 . S
C782 C780 1.381 . S
C782 C783 1.394 . S
C782 H790 0.930 1_655 S
C783 C782 1.394 . S
C783 C784 1.383 . S
C783 H791 0.929 . S
C784 C783 1.383 . S
C784 C785 1.377 . S
C785 H769 0.930 . S
C785 C784 1.377 . S
C785 C786 1.379 . S
C786 H770 0.931 . S
C786 C780 1.383 . S
C786 C785 1.379 . S
H787 C781 0.959 . S
H788 C781 0.961 . S
H789 C781 0.960 . S
H790 C782 0.930 1_455 S
H791 C783 0.929 . S
H792 C800 0.929 . S
H793 C802 0.930 . S
H794 C804 0.930 . S
H795 C807 0.929 . S
H796 C810 0.930 . S
H797 C812 0.960 . S
H798 C812 0.960 . S
H799 C812 0.960 . S
C800 H792 0.929 . S
C800 C801 1.377 . S
C800 C802 1.384 . S
C801 C800 1.377 . S
C801 C807 1.390 . S
C802 H793 0.930 . S
C802 C800 1.384 . S
C802 C803 1.372 . S
C803 C802 1.372 . S
C803 C804 1.400 . S
C803 C808 1.490 . S
C804 H794 0.930 . S
C804 C803 1.400 . S
C804 C807 1.386 . S
H805 C821 0.930 . S
H806 C822 0.931 . S
C807 H795 0.929 . S
C807 C801 1.390 . S
C807 C804 1.386 . S
C808 C803 1.490 . S
C808 C810 1.395 . S
C808 C811 1.403 . S
H809 C815 0.930 . S
C810 H796 0.930 . S
C810 C808 1.395 . S
C810 C813 1.403 . S
C811 C808 1.403 . S
C811 C812 1.524 . S
C811 C815 1.400 . S
C812 H797 0.960 . S
C812 H798 0.960 . S
C812 H799 0.960 . S
C812 C811 1.524 . S
C813 C810 1.403 . S
C813 C814 1.392 . S
C813 C817 1.495 . S
C814 C813 1.392 . S
C814 C815 1.385 . S
C814 C816 1.478 . S
C815 H809 0.930 . S
C815 C811 1.400 . S
C815 C814 1.385 . S
C816 C814 1.478 . S
C816 C818 1.381 . S
C816 C822 1.383 . S
C817 C813 1.495 . S
C817 H823 0.959 . S
C817 H824 0.961 . S
C817 H825 0.960 . S
C818 C816 1.381 . S
C818 C819 1.394 . S
C818 H826 0.930 . S
C819 C818 1.394 . S
C819 C820 1.383 . S
C819 H827 0.929 . S
C820 C819 1.383 . S
C820 C821 1.377 . S
C821 H805 0.930 . S
C821 C820 1.377 . S
C821 C822 1.379 . S
C822 H806 0.931 . S
C822 C816 1.383 . S
C822 C821 1.379 . S
H823 C817 0.959 . S
H824 C817 0.961 . S
H825 C817 0.960 . S
H826 C818 0.930 . S
H827 C819 0.929 . S
H828 C836 0.929 . S
H829 C838 0.930 . S
H830 C840 0.930 . S
H831 C843 0.929 . S
H832 C846 0.930 . S
H833 C848 0.960 . S
H834 C848 0.960 . S
H835 C848 0.960 1_545 S
C836 H828 0.929 . S
C836 C837 1.377 . S
C836 C838 1.384 . S
C837 C836 1.377 . S
C837 C843 1.390 . S
C838 H829 0.930 . S
C838 C836 1.384 . S
C838 C839 1.372 . S
C839 C838 1.372 . S
C839 C840 1.400 . S
C839 C844 1.490 . S
C840 H830 0.930 . S
C840 C839 1.400 . S
C840 C843 1.386 . S
H841 C857 0.930 . S
H842 C858 0.931 . S
C843 H831 0.929 . S
C843 C837 1.390 . S
C843 C840 1.386 . S
C844 C839 1.490 . S
C844 C846 1.395 . S
C844 C847 1.392 1_545 S
H845 C851 0.930 . S
C846 H832 0.930 . S
C846 C844 1.395 . S
C846 C849 1.403 . S
C847 C844 1.392 1_565 S
C847 C848 1.521 . S
C847 C851 1.416 . S
C848 H833 0.960 . S
C848 H834 0.960 . S
C848 H835 0.960 1_565 S
C848 C847 1.521 . S
C849 C846 1.403 . S
C849 C850 1.392 1_545 S
C849 C853 1.495 . S
C850 C849 1.392 1_565 S
C850 C851 1.385 . S
C850 C852 1.478 . S
C851 H845 0.930 . S
C851 C847 1.416 . S
C851 C850 1.385 . S
C852 C850 1.478 . S
C852 C854 1.381 . S
C852 C858 1.383 . S
C853 C849 1.495 . S
C853 H859 0.959 . S
C853 H860 0.961 . S
C853 H861 0.960 . S
C854 C852 1.381 . S
C854 C855 1.394 . S
C854 H862 0.930 . S
C855 C854 1.394 . S
C855 C856 1.383 . S
C855 H863 0.929 . S
C856 C855 1.383 . S
C856 C857 1.377 . S
C857 H841 0.930 . S
C857 C856 1.377 . S
C857 C858 1.379 . S
C858 H842 0.931 . S
C858 C852 1.383 . S
C858 C857 1.379 . S
H859 C853 0.959 . S
H860 C853 0.961 . S
H861 C853 0.960 . S
H862 C854 0.930 . S
H863 C855 0.929 . S
H864 C872 0.929 . S
H865 C874 0.930 . S
H866 C876 0.930 . S
H867 C879 0.929 . S
H868 C882 0.930 . S
H869 C884 0.960 . S
H870 C884 0.960 . S
H871 C884 0.960 . S
C872 H864 0.929 . S
C872 C873 1.377 . S
C872 C874 1.384 . S
C873 C872 1.377 . S
C873 C879 1.390 . S
C874 H865 0.930 . S
C874 C872 1.384 . S
C874 C875 1.372 . S
C875 C874 1.372 . S
C875 C876 1.400 . S
C875 C880 1.490 . S
C876 H866 0.930 . S
C876 C875 1.400 . S
C876 C879 1.386 . S
H877 C893 0.930 . S
H878 C894 0.931 . S
C879 H867 0.929 . S
C879 C873 1.390 . S
C879 C876 1.386 . S
C880 C875 1.490 . S
C880 C882 1.395 . S
C880 C883 1.403 1_455 S
H881 C887 0.930 . S
C882 H868 0.930 . S
C882 C880 1.395 . S
C882 C885 1.403 . S
C883 C880 1.403 1_655 S
C883 C884 1.524 . S
C883 C887 1.400 . S
C884 H869 0.960 . S
C884 H870 0.960 . S
C884 H871 0.960 . S
C884 C883 1.524 . S
C885 C882 1.403 . S
C885 C886 1.386 1_455 S
C885 C889 1.495 . S
C886 C885 1.386 1_655 S
C886 C887 1.388 . S
C886 C888 1.481 . S
C887 H881 0.930 . S
C887 C883 1.400 . S
C887 C886 1.388 . S
C888 C886 1.481 . S
C888 C890 1.381 . S
C888 C894 1.383 . S
C889 C885 1.495 . S
C889 H895 0.959 . S
C889 H896 0.961 . S
C889 H897 0.960 . S
C890 C888 1.381 . S
C890 C891 1.394 . S
C890 H898 0.930 . S
C891 C890 1.394 . S
C891 C892 1.383 . S
C891 H899 0.929 . S
C892 C891 1.383 . S
C892 C893 1.377 . S
C893 H877 0.930 . S
C893 C892 1.377 . S
C893 C894 1.379 . S
C894 H878 0.931 . S
C894 C888 1.383 . S
C894 C893 1.379 . S
H895 C889 0.959 . S
H896 C889 0.961 . S
H897 C889 0.960 . S
H898 C890 0.930 . S
H899 C891 0.929 . S
H900 C908 0.929 . S
H901 C910 0.930 . S
H902 C912 0.930 . S
H903 C915 0.929 . S
H904 C918 0.930 . S
H905 C920 0.960 . S
H906 C920 0.960 . S
H907 C920 0.960 . S
C908 H900 0.929 . S
C908 C909 1.377 . S
C908 C910 1.384 . S
C909 C908 1.377 . S
C909 C915 1.390 . S
C910 H901 0.930 . S
C910 C908 1.384 . S
C910 C911 1.372 . S
C911 C910 1.372 . S
C911 C912 1.400 . S
C911 C916 1.490 . S
C912 H902 0.930 . S
C912 C911 1.400 . S
C912 C915 1.386 . S
H913 C929 0.930 . S
H914 C930 0.931 . S
C915 H903 0.929 . S
C915 C909 1.390 . S
C915 C912 1.386 . S
C916 C911 1.490 . S
C916 C918 1.395 . S
C916 C919 1.403 . S
H917 C923 0.930 . S
C918 H904 0.930 . S
C918 C916 1.395 . S
C918 C921 1.403 . S
C919 C916 1.403 . S
C919 C920 1.524 . S
C919 C923 1.400 . S
C920 H905 0.960 . S
C920 H906 0.960 . S
C920 H907 0.960 . S
C920 C919 1.524 . S
C921 C918 1.403 . S
C921 C922 1.392 . S
C921 C925 1.495 . S
C922 C921 1.392 . S
C922 C923 1.385 . S
C922 C924 1.478 . S
C923 H917 0.930 . S
C923 C919 1.400 . S
C923 C922 1.385 . S
C924 C922 1.478 . S
C924 C926 1.381 . S
C924 C930 1.383 . S
C925 C921 1.495 . S
C925 H931 0.959 . S
C925 H932 0.961 . S
C925 H933 0.960 . S
C926 C924 1.381 . S
C926 C927 1.394 . S
C926 H934 0.930 . S
C927 C926 1.394 . S
C927 C928 1.383 . S
C927 H935 0.929 . S
C928 C927 1.383 . S
C928 C929 1.377 . S
C929 H913 0.930 . S
C929 C928 1.377 . S
C929 C930 1.379 . S
C930 H914 0.931 . S
C930 C924 1.383 . S
C930 C929 1.379 . S
H931 C925 0.959 . S
H932 C925 0.961 . S
H933 C925 0.960 . S
H934 C926 0.930 . S
H935 C927 0.929 . S
H936 C944 0.929 . S
H937 C946 0.930 . S
H938 C948 0.930 . S
H939 C951 0.929 . S
H940 C954 0.930 . S
H941 C956 0.960 . S
H942 C956 0.960 . S
H943 C956 0.960 . S
C944 H936 0.929 . S
C944 C945 1.377 . S
C944 C946 1.384 . S
C945 C944 1.377 . S
C945 C951 1.390 . S
C946 H937 0.930 . S
C946 C944 1.384 . S
C946 C947 1.372 . S
C947 C946 1.372 . S
C947 C948 1.400 . S
C947 C952 1.490 . S
C948 H938 0.930 . S
C948 C947 1.400 . S
C948 C951 1.386 . S
H949 C965 0.930 . S
H950 C966 0.931 . S
C951 H939 0.929 . S
C951 C945 1.390 . S
C951 C948 1.386 . S
C952 C947 1.490 . S
C952 C954 1.395 . S
C952 C955 1.403 . S
H953 C959 0.930 . S
C954 H940 0.930 . S
C954 C952 1.395 . S
C954 C957 1.403 . S
C955 C952 1.403 . S
C955 C956 1.524 . S
C955 C959 1.400 . S
C956 H941 0.960 . S
C956 H942 0.960 . S
C956 H943 0.960 . S
C956 C955 1.524 . S
C957 C954 1.403 . S
C957 C958 1.392 . S
C957 C961 1.495 . S
C958 C957 1.392 . S
C958 C959 1.385 . S
C958 C960 1.478 . S
C959 H953 0.930 . S
C959 C955 1.400 . S
C959 C958 1.385 . S
C960 C958 1.478 . S
C960 C962 1.381 . S
C960 C966 1.383 . S
C961 C957 1.495 . S
C961 H967 0.959 . S
C961 H968 0.961 . S
C961 H969 0.960 . S
C962 C960 1.381 . S
C962 C963 1.394 . S
C962 H970 0.930 . S
C963 C962 1.394 . S
C963 C964 1.383 . S
C963 H971 0.929 . S
C964 C963 1.383 . S
C964 C965 1.377 . S
C965 H949 0.930 . S
C965 C964 1.377 . S
C965 C966 1.379 . S
C966 H950 0.931 . S
C966 C960 1.383 . S
C966 C965 1.379 . S
H967 C961 0.959 . S
H968 C961 0.961 . S
H969 C961 0.960 . S
H970 C962 0.930 . S
H971 C963 0.929 . S
H972 C980 0.929 . S
H973 C982 0.930 . S
H974 C984 0.930 . S
H975 C987 0.929 . S
H976 C990 0.930 . S
H977 C992 0.960 . S
H978 C992 0.960 . S
H979 C992 0.960 . S
C980 H972 0.929 . S
C980 C981 1.377 . S
C980 C982 1.384 . S
C981 C980 1.377 . S
C981 C987 1.390 . S
C982 H973 0.930 . S
C982 C980 1.384 . S
C982 C983 1.372 . S
C983 C982 1.372 . S
C983 C984 1.400 . S
C983 C988 1.490 . S
C984 H974 0.930 . S
C984 C983 1.400 . S
C984 C987 1.386 . S
H985 C1001 0.930 . S
H986 C1002 0.931 . S
C987 H975 0.929 . S
C987 C981 1.390 . S
C987 C984 1.386 . S
C988 C983 1.490 . S
C988 C990 1.395 . S
C988 C991 1.403 . S
H989 C995 0.930 . S
C990 H976 0.930 . S
C990 C988 1.395 . S
C990 C993 1.403 . S
C991 C988 1.403 . S
C991 C992 1.524 . S
C991 C995 1.400 . S
C992 H977 0.960 . S
C992 H978 0.960 . S
C992 H979 0.960 . S
C992 C991 1.524 . S
C993 C990 1.403 . S
C993 C994 1.392 . S
C993 C997 1.495 . S
C994 C993 1.392 . S
C994 C995 1.385 . S
C994 C996 1.478 . S
C995 H989 0.930 . S
C995 C991 1.400 . S
C995 C994 1.385 . S
C996 C994 1.478 . S
C996 C998 1.381 . S
C996 C1002 1.383 . S
C997 C993 1.495 . S
C997 H1003 0.959 . S
C997 H1004 0.961 . S
C997 H1005 0.960 . S
C998 C996 1.381 . S
C998 C999 1.394 . S
C998 H1006 0.930 . S
C999 C998 1.394 . S
C999 C1000 1.383 . S
C999 H1007 0.929 . S
C1000 C999 1.383 . S
C1000 C1001 1.377 . S
C1001 H985 0.930 . S
C1001 C1000 1.377 . S
C1001 C1002 1.379 . S
C1002 H986 0.931 . S
C1002 C996 1.383 . S
C1002 C1001 1.379 . S
H1003 C997 0.959 . S
H1004 C997 0.961 . S
H1005 C997 0.960 . S
H1006 C998 0.930 . S
H1007 C999 0.929 . S
H1008 C1016 0.929 . S
H1009 C1018 0.930 . S
H1010 C1020 0.930 . S
H1011 C1023 0.929 . S
H1012 C1026 0.930 . S
H1013 C1028 0.960 . S
H1014 C1028 0.960 . S
H1015 C1028 0.960 . S
C1016 H1008 0.929 . S
C1016 C1017 1.377 . S
C1016 C1018 1.384 . S
C1017 C1016 1.377 . S
C1017 C1023 1.390 . S
C1018 H1009 0.930 . S
C1018 C1016 1.384 . S
C1018 C1019 1.372 . S
C1019 C1018 1.372 . S
C1019 C1020 1.400 . S
C1019 C1024 1.490 . S
C1020 H1010 0.930 . S
C1020 C1019 1.400 . S
C1020 C1023 1.386 . S
H1021 C1037 0.930 . S
H1022 C1038 0.931 . S
C1023 H1011 0.929 . S
C1023 C1017 1.390 . S
C1023 C1020 1.386 . S
C1024 C1019 1.490 . S
C1024 C1026 1.395 . S
C1024 C1027 1.403 . S
H1025 C1031 0.930 . S
C1026 H1012 0.930 . S
C1026 C1024 1.395 . S
C1026 C1029 1.403 . S
C1027 C1024 1.403 . S
C1027 C1028 1.524 . S
C1027 C1031 1.400 . S
C1028 H1013 0.960 . S
C1028 H1014 0.960 . S
C1028 H1015 0.960 . S
C1028 C1027 1.524 . S
C1029 C1026 1.403 . S
C1029 C1030 1.392 . S
C1029 C1033 1.495 . S
C1030 C1029 1.392 . S
C1030 C1031 1.385 . S
C1030 C1032 1.478 . S
C1031 H1025 0.930 . S
C1031 C1027 1.400 . S
C1031 C1030 1.385 . S
C1032 C1030 1.478 . S
C1032 C1034 1.381 . S
C1032 C1038 1.383 . S
C1033 C1029 1.495 . S
C1033 H1039 0.959 . S
C1033 H1040 0.961 . S
C1033 H1041 0.960 . S
C1034 C1032 1.381 . S
C1034 C1035 1.394 . S
C1034 H1042 0.930 . S
C1035 C1034 1.394 . S
C1035 C1036 1.383 . S
C1035 H1043 0.929 . S
C1036 C1035 1.383 . S
C1036 C1037 1.377 . S
C1037 H1021 0.930 . S
C1037 C1036 1.377 . S
C1037 C1038 1.379 . S
C1038 H1022 0.931 . S
C1038 C1032 1.383 . S
C1038 C1037 1.379 . S
H1039 C1033 0.959 . S
H1040 C1033 0.961 . S
H1041 C1033 0.960 . S
H1042 C1034 0.930 . S
H1043 C1035 0.929 . S
H1044 C1052 0.929 . S
H1045 C1054 0.930 . S
H1046 C1056 0.930 . S
H1047 C1059 0.929 . S
H1048 C1062 0.930 . S
H1049 C1064 0.960 . S
H1050 C1064 0.960 . S
H1051 C1064 0.960 . S
C1052 H1044 0.929 . S
C1052 C1053 1.377 . S
C1052 C1054 1.384 . S
C1053 C1052 1.377 . S
C1053 C1059 1.390 . S
C1054 H1045 0.930 . S
C1054 C1052 1.384 . S
C1054 C1055 1.372 . S
C1055 C1054 1.372 . S
C1055 C1056 1.400 . S
C1055 C1060 1.490 . S
C1056 H1046 0.930 . S
C1056 C1055 1.400 . S
C1056 C1059 1.386 . S
H1057 C1073 0.930 . S
H1058 C1074 0.931 . S
C1059 H1047 0.929 . S
C1059 C1053 1.390 . S
C1059 C1056 1.386 . S
C1060 C1055 1.490 . S
C1060 C1062 1.395 . S
C1060 C1063 1.403 . S
H1061 C1067 0.930 . S
C1062 H1048 0.930 . S
C1062 C1060 1.395 . S
C1062 C1065 1.403 . S
C1063 C1060 1.403 . S
C1063 C1064 1.524 . S
C1063 C1067 1.400 . S
C1064 H1049 0.960 . S
C1064 H1050 0.960 . S
C1064 H1051 0.960 . S
C1064 C1063 1.524 . S
C1065 C1062 1.403 . S
C1065 C1066 1.392 . S
C1065 C1069 1.495 . S
C1066 C1065 1.392 . S
C1066 C1067 1.385 . S
C1066 C1068 1.478 . S
C1067 H1061 0.930 . S
C1067 C1063 1.400 . S
C1067 C1066 1.385 . S
C1068 C1066 1.478 . S
C1068 C1070 1.381 . S
C1068 C1074 1.383 . S
C1069 C1065 1.495 . S
C1069 H1075 0.959 . S
C1069 H1076 0.961 . S
C1069 H1077 0.960 . S
C1070 C1068 1.381 . S
C1070 C1071 1.394 . S
C1070 H1078 0.930 . S
C1071 C1070 1.394 . S
C1071 C1072 1.383 . S
C1071 H1079 0.929 . S
C1072 C1071 1.383 . S
C1072 C1073 1.377 . S
C1073 H1057 0.930 . S
C1073 C1072 1.377 . S
C1073 C1074 1.379 . S
C1074 H1058 0.931 . S
C1074 C1068 1.383 . S
C1074 C1073 1.379 . S
H1075 C1069 0.959 . S
H1076 C1069 0.961 . S
H1077 C1069 0.960 . S
H1078 C1070 0.930 . S
H1079 C1071 0.929 . S
H1080 C1088 0.929 . S
H1081 C1090 0.930 . S
H1082 C1092 0.930 . S
H1083 C1095 0.929 . S
H1084 C1098 0.930 . S
H1085 C1100 0.960 . S
H1086 C1100 0.960 . S
H1087 C1100 0.960 . S
C1088 H1080 0.929 . S
C1088 C1089 1.377 . S
C1088 C1090 1.384 . S
C1089 C1088 1.377 . S
C1089 C1095 1.390 . S
C1090 H1081 0.930 . S
C1090 C1088 1.384 . S
C1090 C1091 1.372 . S
C1091 C1090 1.372 . S
C1091 C1092 1.400 . S
C1091 C1096 1.490 . S
C1092 H1082 0.930 . S
C1092 C1091 1.400 . S
C1092 C1095 1.386 . S
H1093 C1109 0.930 . S
H1094 C1110 0.931 . S
C1095 H1083 0.929 . S
C1095 C1089 1.390 . S
C1095 C1092 1.386 . S
C1096 C1091 1.490 . S
C1096 C1098 1.395 . S
C1096 C1099 1.403 . S
H1097 C1103 0.930 . S
C1098 H1084 0.930 . S
C1098 C1096 1.395 . S
C1098 C1101 1.403 . S
C1099 C1096 1.403 . S
C1099 C1100 1.524 . S
C1099 C1103 1.400 . S
C1100 H1085 0.960 . S
C1100 H1086 0.960 . S
C1100 H1087 0.960 . S
C1100 C1099 1.524 . S
C1101 C1098 1.403 . S
C1101 C1102 1.392 . S
C1101 C1105 1.495 . S
C1102 C1101 1.392 . S
C1102 C1103 1.385 . S
C1102 C1104 1.478 . S
C1103 H1097 0.930 . S
C1103 C1099 1.400 . S
C1103 C1102 1.385 . S
C1104 C1102 1.478 . S
C1104 C1106 1.381 . S
C1104 C1110 1.383 . S
C1105 C1101 1.495 . S
C1105 H1111 0.959 . S
C1105 H1112 0.961 . S
C1105 H1113 0.960 . S
C1106 C1104 1.381 . S
C1106 C1107 1.394 . S
C1106 H1114 0.930 . S
C1107 C1106 1.394 . S
C1107 C1108 1.383 . S
C1107 H1115 0.929 . S
C1108 C1107 1.383 . S
C1108 C1109 1.377 . S
C1109 H1093 0.930 . S
C1109 C1108 1.377 . S
C1109 C1110 1.379 . S
C1110 H1094 0.931 . S
C1110 C1104 1.383 . S
C1110 C1109 1.379 . S
H1111 C1105 0.959 . S
H1112 C1105 0.961 . S
H1113 C1105 0.960 . S
H1114 C1106 0.930 . S
H1115 C1107 0.929 . S
H1116 C1124 0.929 . S
H1117 C1126 0.930 . S
H1118 C1128 0.930 . S
H1119 C1131 0.929 . S
H1120 C1134 0.930 . S
H1121 C1136 0.960 . S
H1122 C1136 0.960 . S
H1123 C1136 0.960 . S
C1124 H1116 0.929 . S
C1124 C1125 1.377 . S
C1124 C1126 1.384 . S
C1125 C1124 1.377 . S
C1125 C1131 1.390 . S
C1126 H1117 0.930 . S
C1126 C1124 1.384 . S
C1126 C1127 1.372 . S
C1127 C1126 1.372 . S
C1127 C1128 1.400 . S
C1127 C1132 1.490 . S
C1128 H1118 0.930 . S
C1128 C1127 1.400 . S
C1128 C1131 1.386 . S
H1129 C1145 0.930 . S
H1130 C1146 0.931 . S
C1131 H1119 0.929 . S
C1131 C1125 1.390 . S
C1131 C1128 1.386 . S
C1132 C1127 1.490 . S
C1132 C1134 1.395 . S
C1132 C1135 1.403 . S
H1133 C1139 0.930 . S
C1134 H1120 0.930 . S
C1134 C1132 1.395 . S
C1134 C1137 1.403 . S
C1135 C1132 1.403 . S
C1135 C1136 1.524 . S
C1135 C1139 1.400 . S
C1136 H1121 0.960 . S
C1136 H1122 0.960 . S
C1136 H1123 0.960 . S
C1136 C1135 1.524 . S
C1137 C1134 1.403 . S
C1137 C1138 1.392 . S
C1137 C1141 1.495 . S
C1138 C1137 1.392 . S
C1138 C1139 1.385 . S
C1138 C1140 1.478 . S
C1139 H1133 0.930 . S
C1139 C1135 1.400 . S
C1139 C1138 1.385 . S
C1140 C1138 1.478 . S
C1140 C1142 1.381 . S
C1140 C1146 1.383 . S
C1141 C1137 1.495 . S
C1141 H1147 0.959 . S
C1141 H1148 0.961 . S
C1141 H1149 0.960 . S
C1142 C1140 1.381 . S
C1142 C1143 1.394 . S
C1142 H1150 0.930 . S
C1143 C1142 1.394 . S
C1143 C1144 1.383 . S
C1143 H1151 0.929 . S
C1144 C1143 1.383 . S
C1144 C1145 1.377 . S
C1145 H1129 0.930 . S
C1145 C1144 1.377 . S
C1145 C1146 1.379 . S
C1146 H1130 0.931 . S
C1146 C1140 1.383 . S
C1146 C1145 1.379 . S
H1147 C1141 0.959 . S
H1148 C1141 0.961 . S
H1149 C1141 0.960 . S
H1150 C1142 0.930 . S
H1151 C1143 0.929 . S
H1152 C1160 0.929 . S
H1153 C1162 0.930 . S
H1154 C1164 0.930 . S
H1155 C1167 0.929 . S
H1156 C1170 0.930 . S
H1157 C1172 0.960 . S
H1158 C1172 0.960 . S
H1159 C1172 0.960 . S
C1160 H1152 0.929 . S
C1160 C1161 1.377 . S
C1160 C1162 1.384 . S
C1161 C1160 1.377 . S
C1161 C1167 1.390 . S
C1162 H1153 0.930 . S
C1162 C1160 1.384 . S
C1162 C1163 1.372 . S
C1163 C1162 1.372 . S
C1163 C1164 1.400 . S
C1163 C1168 1.490 . S
C1164 H1154 0.930 . S
C1164 C1163 1.400 . S
C1164 C1167 1.386 . S
H1165 C1181 0.930 . S
H1166 C1182 0.931 . S
C1167 H1155 0.929 . S
C1167 C1161 1.390 . S
C1167 C1164 1.386 . S
C1168 C1163 1.490 . S
C1168 C1170 1.395 . S
C1168 C1171 1.403 . S
H1169 C1175 0.930 . S
C1170 H1156 0.930 . S
C1170 C1168 1.395 . S
C1170 C1173 1.403 . S
C1171 C1168 1.403 . S
C1171 C1172 1.524 . S
C1171 C1175 1.400 . S
C1172 H1157 0.960 . S
C1172 H1158 0.960 . S
C1172 H1159 0.960 . S
C1172 C1171 1.524 . S
C1173 C1170 1.403 . S
C1173 C1174 1.392 . S
C1173 C1177 1.495 . S
C1174 C1173 1.392 . S
C1174 C1175 1.385 . S
C1174 C1176 1.478 . S
C1175 H1169 0.930 . S
C1175 C1171 1.400 . S
C1175 C1174 1.385 . S
C1176 C1174 1.478 . S
C1176 C1178 1.381 . S
C1176 C1182 1.383 . S
C1177 C1173 1.495 . S
C1177 H1183 0.959 . S
C1177 H1184 0.961 . S
C1177 H1185 0.960 . S
C1178 C1176 1.381 . S
C1178 C1179 1.394 . S
C1178 H1186 0.930 . S
C1179 C1178 1.394 . S
C1179 C1180 1.383 . S
C1179 H1187 0.929 . S
C1180 C1179 1.383 . S
C1180 C1181 1.377 . S
C1181 H1165 0.930 . S
C1181 C1180 1.377 . S
C1181 C1182 1.379 . S
C1182 H1166 0.931 . S
C1182 C1176 1.383 . S
C1182 C1181 1.379 . S
H1183 C1177 0.959 . S
H1184 C1177 0.961 . S
H1185 C1177 0.960 . S
H1186 C1178 0.930 . S
H1187 C1179 0.929 . S
H1188 C1196 0.929 . S
H1189 C1198 0.930 . S
H1190 C1200 0.930 . S
H1191 C1203 0.929 . S
H1192 C1206 0.930 . S
H1193 C1208 0.960 . S
H1194 C1208 0.960 . S
H1195 C1208 0.960 . S
C1196 H1188 0.929 . S
C1196 C1197 1.377 . S
C1196 C1198 1.384 . S
C1197 C1196 1.377 . S
C1197 C1203 1.390 . S
C1198 H1189 0.930 . S
C1198 C1196 1.384 . S
C1198 C1199 1.372 . S
C1199 C1198 1.372 . S
C1199 C1200 1.400 . S
C1199 C1204 1.490 . S
C1200 H1190 0.930 . S
C1200 C1199 1.400 . S
C1200 C1203 1.386 . S
H1201 C1217 0.930 . S
H1202 C1218 0.931 . S
C1203 H1191 0.929 . S
C1203 C1197 1.390 . S
C1203 C1200 1.386 . S
C1204 C1199 1.490 . S
C1204 C1206 1.395 . S
C1204 C1207 1.403 . S
H1205 C1211 0.930 . S
C1206 H1192 0.930 . S
C1206 C1204 1.395 . S
C1206 C1209 1.403 . S
C1207 C1204 1.403 . S
C1207 C1208 1.524 . S
C1207 C1211 1.400 . S
C1208 H1193 0.960 . S
C1208 H1194 0.960 . S
C1208 H1195 0.960 . S
C1208 C1207 1.524 . S
C1209 C1206 1.403 . S
C1209 C1210 1.392 . S
C1209 C1213 1.495 . S
C1210 C1209 1.392 . S
C1210 C1211 1.385 . S
C1210 C1212 1.478 . S
C1211 H1205 0.930 . S
C1211 C1207 1.400 . S
C1211 C1210 1.385 . S
C1212 C1210 1.478 . S
C1212 C1214 1.381 . S
C1212 C1218 1.383 . S
C1213 C1209 1.495 . S
C1213 H1219 0.959 . S
C1213 H1220 0.961 . S
C1213 H1221 0.960 . S
C1214 C1212 1.381 . S
C1214 C1215 1.394 . S
C1214 H1222 0.930 . S
C1215 C1214 1.394 . S
C1215 C1216 1.383 . S
C1215 H1223 0.929 . S
C1216 C1215 1.383 . S
C1216 C1217 1.377 . S
C1217 H1201 0.930 . S
C1217 C1216 1.377 . S
C1217 C1218 1.379 . S
C1218 H1202 0.931 . S
C1218 C1212 1.383 . S
C1218 C1217 1.379 . S
H1219 C1213 0.959 . S
H1220 C1213 0.961 . S
H1221 C1213 0.960 . S
H1222 C1214 0.930 . S
H1223 C1215 0.929 . S
H1224 C1232 0.929 . S
H1225 C1234 0.930 . S
H1226 C1236 0.930 . S
H1227 C1239 0.929 . S
H1228 C1242 0.930 . S
H1229 C1244 0.960 . S
H1230 C1244 0.960 . S
H1231 C1244 0.960 . S
C1232 H1224 0.929 . S
C1232 C1233 1.377 . S
C1232 C1234 1.384 . S
C1233 C1232 1.377 . S
C1233 C1239 1.390 . S
C1234 H1225 0.930 . S
C1234 C1232 1.384 . S
C1234 C1235 1.372 . S
C1235 C1234 1.372 . S
C1235 C1236 1.400 . S
C1235 C1240 1.490 . S
C1236 H1226 0.930 . S
C1236 C1235 1.400 . S
C1236 C1239 1.386 . S
H1237 C1253 0.930 . S
H1238 C1254 0.931 . S
C1239 H1227 0.929 . S
C1239 C1233 1.390 . S
C1239 C1236 1.386 . S
C1240 C1235 1.490 . S
C1240 C1242 1.395 . S
C1240 C1243 1.403 . S
H1241 C1247 0.930 . S
C1242 H1228 0.930 . S
C1242 C1240 1.395 . S
C1242 C1245 1.403 . S
C1243 C1240 1.403 . S
C1243 C1244 1.524 . S
C1243 C1247 1.400 . S
C1244 H1229 0.960 . S
C1244 H1230 0.960 . S
C1244 H1231 0.960 . S
C1244 C1243 1.524 . S
C1245 C1242 1.403 . S
C1245 C1246 1.392 . S
C1245 C1249 1.495 . S
C1246 C1245 1.392 . S
C1246 C1247 1.385 . S
C1246 C1248 1.478 . S
C1247 H1241 0.930 . S
C1247 C1243 1.400 . S
C1247 C1246 1.385 . S
C1248 C1246 1.478 . S
C1248 C1250 1.381 . S
C1248 C1254 1.383 . S
C1249 C1245 1.495 . S
C1249 H1255 0.959 . S
C1249 H1256 0.961 . S
C1249 H1257 0.960 . S
C1250 C1248 1.381 . S
C1250 C1251 1.394 . S
C1250 H1258 0.930 . S
C1251 C1250 1.394 . S
C1251 C1252 1.383 . S
C1251 H1259 0.929 . S
C1252 C1251 1.383 . S
C1252 C1253 1.377 . S
C1253 H1237 0.930 . S
C1253 C1252 1.377 . S
C1253 C1254 1.379 . S
C1254 H1238 0.931 . S
C1254 C1248 1.383 . S
C1254 C1253 1.379 . S
H1255 C1249 0.959 . S
H1256 C1249 0.961 . S
H1257 C1249 0.960 . S
H1258 C1250 0.930 . S
H1259 C1251 0.929 . S
H1260 C1268 0.929 . S
H1261 C1270 0.930 . S
H1262 C1272 0.930 . S
H1263 C1275 0.929 . S
H1264 C1278 0.930 . S
H1265 C1280 0.960 . S
H1266 C1280 0.960 . S
H1267 C1280 0.960 . S
C1268 H1260 0.929 . S
C1268 C1269 1.377 . S
C1268 C1270 1.384 . S
C1269 C1268 1.377 . S
C1269 C1275 1.390 . S
C1270 H1261 0.930 . S
C1270 C1268 1.384 . S
C1270 C1271 1.372 . S
C1271 C1270 1.372 . S
C1271 C1272 1.400 . S
C1271 C1276 1.490 . S
C1272 H1262 0.930 . S
C1272 C1271 1.400 . S
C1272 C1275 1.386 . S
H1273 C1289 0.930 . S
H1274 C1290 0.931 . S
C1275 H1263 0.929 . S
C1275 C1269 1.390 . S
C1275 C1272 1.386 . S
C1276 C1271 1.490 . S
C1276 C1278 1.395 . S
C1276 C1279 1.403 . S
H1277 C1283 0.930 . S
C1278 H1264 0.930 . S
C1278 C1276 1.395 . S
C1278 C1281 1.403 . S
C1279 C1276 1.403 . S
C1279 C1280 1.524 . S
C1279 C1283 1.400 . S
C1280 H1265 0.960 . S
C1280 H1266 0.960 . S
C1280 H1267 0.960 . S
C1280 C1279 1.524 . S
C1281 C1278 1.403 . S
C1281 C1282 1.392 . S
C1281 C1285 1.495 . S
C1282 C1281 1.392 . S
C1282 C1283 1.385 . S
C1282 C1284 1.478 . S
C1283 H1277 0.930 . S
C1283 C1279 1.400 . S
C1283 C1282 1.385 . S
C1284 C1282 1.478 . S
C1284 C1286 1.381 . S
C1284 C1290 1.383 . S
C1285 C1281 1.495 . S
C1285 H1291 0.959 . S
C1285 H1292 0.961 . S
C1285 H1293 0.960 . S
C1286 C1284 1.381 . S
C1286 C1287 1.394 . S
C1286 H1294 0.930 . S
C1287 C1286 1.394 . S
C1287 C1288 1.383 . S
C1287 H1295 0.929 . S
C1288 C1287 1.383 . S
C1288 C1289 1.377 . S
C1289 H1273 0.930 . S
C1289 C1288 1.377 . S
C1289 C1290 1.379 . S
C1290 H1274 0.931 . S
C1290 C1284 1.383 . S
C1290 C1289 1.379 . S
H1291 C1285 0.959 . S
H1292 C1285 0.961 . S
H1293 C1285 0.960 . S
H1294 C1286 0.930 . S
H1295 C1287 0.929 . S
H1296 C1304 0.929 . S
H1297 C1306 0.930 . S
H1298 C1308 0.930 . S
H1299 C1311 0.929 . S
H1300 C1314 0.930 . S
H1301 C1316 0.960 . S
H1302 C1316 0.960 . S
H1303 C1316 0.960 . S
C1304 H1296 0.929 . S
C1304 C1305 1.377 . S
C1304 C1306 1.384 . S
C1305 C1304 1.377 . S
C1305 C1311 1.390 . S
C1306 H1297 0.930 . S
C1306 C1304 1.384 . S
C1306 C1307 1.372 . S
C1307 C1306 1.372 . S
C1307 C1308 1.400 . S
C1307 C1312 1.490 . S
C1308 H1298 0.930 . S
C1308 C1307 1.400 . S
C1308 C1311 1.386 . S
H1309 C1325 0.930 . S
H1310 C1326 0.931 . S
C1311 H1299 0.929 . S
C1311 C1305 1.390 . S
C1311 C1308 1.386 . S
C1312 C1307 1.490 . S
C1312 C1314 1.395 . S
C1312 C1315 1.403 . S
H1313 C1319 0.930 . S
C1314 H1300 0.930 . S
C1314 C1312 1.395 . S
C1314 C1317 1.403 . S
C1315 C1312 1.403 . S
C1315 C1316 1.524 . S
C1315 C1319 1.400 . S
C1316 H1301 0.960 . S
C1316 H1302 0.960 . S
C1316 H1303 0.960 . S
C1316 C1315 1.524 . S
C1317 C1314 1.403 . S
C1317 C1318 1.392 . S
C1317 C1321 1.495 . S
C1318 C1317 1.392 . S
C1318 C1319 1.385 . S
C1318 C1320 1.478 . S
C1319 H1313 0.930 . S
C1319 C1315 1.400 . S
C1319 C1318 1.385 . S
C1320 C1318 1.478 . S
C1320 C1322 1.381 . S
C1320 C1326 1.383 . S
C1321 C1317 1.495 . S
C1321 H1327 0.959 . S
C1321 H1328 0.961 . S
C1321 H1329 0.960 . S
C1322 C1320 1.381 . S
C1322 C1323 1.394 . S
C1322 H1330 0.930 . S
C1323 C1322 1.394 . S
C1323 C1324 1.383 . S
C1323 H1331 0.929 . S
C1324 C1323 1.383 . S
C1324 C1325 1.377 . S
C1325 H1309 0.930 . S
C1325 C1324 1.377 . S
C1325 C1326 1.379 . S
C1326 H1310 0.931 . S
C1326 C1320 1.383 . S
C1326 C1325 1.379 . S
H1327 C1321 0.959 . S
H1328 C1321 0.961 . S
H1329 C1321 0.960 . S
H1330 C1322 0.930 . S
H1331 C1323 0.929 . S
H1332 C1340 0.929 . S
H1333 C1342 0.930 . S
H1334 C1344 0.930 . S
H1335 C1347 0.929 . S
H1336 C1350 0.930 . S
H1337 C1352 0.960 . S
H1338 C1352 0.960 . S
H1339 C1352 0.960 . S
C1340 H1332 0.929 . S
C1340 C1341 1.377 . S
C1340 C1342 1.384 . S
C1341 C1340 1.377 . S
C1341 C1347 1.390 . S
C1342 H1333 0.930 . S
C1342 C1340 1.384 . S
C1342 C1343 1.372 . S
C1343 C1342 1.372 . S
C1343 C1344 1.400 . S
C1343 C1348 1.490 . S
C1344 H1334 0.930 . S
C1344 C1343 1.400 . S
C1344 C1347 1.386 . S
H1345 C1361 0.930 . S
H1346 C1362 0.931 . S
C1347 H1335 0.929 . S
C1347 C1341 1.390 . S
C1347 C1344 1.386 . S
C1348 C1343 1.490 . S
C1348 C1350 1.395 . S
C1348 C1351 1.403 . S
H1349 C1355 0.930 . S
C1350 H1336 0.930 . S
C1350 C1348 1.395 . S
C1350 C1353 1.403 . S
C1351 C1348 1.403 . S
C1351 C1352 1.524 . S
C1351 C1355 1.400 . S
C1352 H1337 0.960 . S
C1352 H1338 0.960 . S
C1352 H1339 0.960 . S
C1352 C1351 1.524 . S
C1353 C1350 1.403 . S
C1353 C1354 1.392 . S
C1353 C1357 1.495 . S
C1354 C1353 1.392 . S
C1354 C1355 1.385 . S
C1354 C1356 1.478 . S
C1355 H1349 0.930 . S
C1355 C1351 1.400 . S
C1355 C1354 1.385 . S
C1356 C1354 1.478 . S
C1356 C1358 1.381 . S
C1356 C1362 1.383 . S
C1357 C1353 1.495 . S
C1357 H1363 0.959 . S
C1357 H1364 0.961 . S
C1357 H1365 0.960 . S
C1358 C1356 1.381 . S
C1358 C1359 1.394 . S
C1358 H1366 0.930 . S
C1359 C1358 1.394 . S
C1359 C1360 1.383 . S
C1359 H1367 0.929 . S
C1360 C1359 1.383 . S
C1360 C1361 1.377 . S
C1361 H1345 0.930 . S
C1361 C1360 1.377 . S
C1361 C1362 1.379 . S
C1362 H1346 0.931 . S
C1362 C1356 1.383 . S
C1362 C1361 1.379 . S
H1363 C1357 0.959 . S
H1364 C1357 0.961 . S
H1365 C1357 0.960 . S
H1366 C1358 0.930 . S
H1367 C1359 0.929 . S
H1368 C1376 0.929 . S
H1369 C1378 0.930 . S
H1370 C1380 0.930 . S
H1371 C1383 0.929 . S
H1372 C1386 0.930 . S
H1373 C1388 0.960 . S
H1374 C1388 0.960 . S
H1375 C1388 0.960 . S
C1376 H1368 0.929 . S
C1376 C1377 1.377 . S
C1376 C1378 1.384 . S
C1377 C1376 1.377 . S
C1377 C1383 1.390 . S
C1378 H1369 0.930 . S
C1378 C1376 1.384 . S
C1378 C1379 1.372 . S
C1379 C1378 1.372 . S
C1379 C1380 1.400 . S
C1379 C1384 1.490 . S
C1380 H1370 0.930 . S
C1380 C1379 1.400 . S
C1380 C1383 1.386 . S
H1381 C1397 0.930 . S
H1382 C1398 0.931 . S
C1383 H1371 0.929 . S
C1383 C1377 1.390 . S
C1383 C1380 1.386 . S
C1384 C1379 1.490 . S
C1384 C1386 1.395 . S
C1384 C1387 1.382 1_545 S
H1385 C1391 0.930 . S
C1386 H1372 0.930 . S
C1386 C1384 1.395 . S
C1386 C1389 1.403 . S
C1387 C1384 1.382 1_565 S
C1387 C1388 1.541 . S
C1387 C1391 1.403 . S
C1388 H1373 0.960 . S
C1388 H1374 0.960 . S
C1388 H1375 0.960 . S
C1388 C1387 1.541 . S
C1389 C1386 1.403 . S
C1389 C1390 1.392 1_545 S
C1389 C1393 1.495 . S
C1390 C1389 1.392 1_565 S
C1390 C1391 1.385 . S
C1390 C1392 1.478 . S
C1391 H1385 0.930 . S
C1391 C1387 1.403 . S
C1391 C1390 1.385 . S
C1392 C1390 1.478 . S
C1392 C1394 1.381 . S
C1392 C1398 1.383 . S
C1393 C1389 1.495 . S
C1393 H1399 0.959 . S
C1393 H1400 0.961 . S
C1393 H1401 0.960 . S
C1394 C1392 1.381 . S
C1394 C1395 1.394 . S
C1394 H1402 0.930 . S
C1395 C1394 1.394 . S
C1395 C1396 1.383 . S
C1395 H1403 0.929 . S
C1396 C1395 1.383 . S
C1396 C1397 1.377 . S
C1397 H1381 0.930 . S
C1397 C1396 1.377 . S
C1397 C1398 1.379 . S
C1398 H1382 0.931 . S
C1398 C1392 1.383 . S
C1398 C1397 1.379 . S
H1399 C1393 0.959 . S
H1400 C1393 0.961 . S
H1401 C1393 0.960 . S
H1402 C1394 0.930 . S
H1403 C1395 0.929 . S
H1404 C1412 0.929 . S
H1405 C1414 0.930 . S
H1406 C1416 0.930 . S
H1407 C1419 0.929 . S
H1408 C1422 0.930 . S
H1409 C1424 0.960 . S
H1410 C1424 0.960 . S
H1411 C1424 0.960 1_455 S
C1412 H1404 0.929 . S
C1412 C1413 1.377 . S
C1412 C1414 1.384 . S
C1413 C1412 1.377 . S
C1413 C1419 1.390 . S
C1414 H1405 0.930 . S
C1414 C1412 1.384 . S
C1414 C1415 1.372 . S
C1415 C1414 1.372 . S
C1415 C1416 1.400 . S
C1415 C1420 1.490 . S
C1416 H1406 0.930 . S
C1416 C1415 1.400 . S
C1416 C1419 1.386 . S
H1417 C1433 0.930 . S
H1418 C1434 0.931 . S
C1419 H1407 0.929 . S
C1419 C1413 1.390 . S
C1419 C1416 1.386 . S
C1420 C1415 1.490 . S
C1420 C1422 1.395 . S
C1420 C1423 1.403 . S
H1421 C1427 0.930 . S
C1422 H1408 0.930 . S
C1422 C1420 1.395 . S
C1422 C1425 1.403 . S
C1423 C1420 1.403 . S
C1423 C1424 1.524 1_455 S
C1423 C1427 1.400 1_455 S
C1424 H1409 0.960 . S
C1424 H1410 0.960 . S
C1424 H1411 0.960 1_655 S
C1424 C1423 1.524 1_655 S
C1425 C1422 1.403 . S
C1425 C1426 1.358 1_455 S
C1425 C1429 1.495 . S
C1426 C1425 1.358 1_655 S
C1426 C1427 1.387 . S
C1426 C1428 1.511 . S
C1427 H1421 0.930 . S
C1427 C1423 1.400 1_655 S
C1427 C1426 1.387 . S
C1428 C1426 1.511 . S
C1428 C1430 1.381 . S
C1428 C1434 1.383 . S
C1429 C1425 1.495 . S
C1429 H1435 0.959 . S
C1429 H1436 0.961 . S
C1429 H1437 0.960 . S
C1430 C1428 1.381 . S
C1430 C1431 1.394 . S
C1430 H1438 0.930 . S
C1431 C1430 1.394 . S
C1431 C1432 1.383 . S
C1431 H1439 0.929 . S
C1432 C1431 1.383 . S
C1432 C1433 1.377 . S
C1433 H1417 0.930 . S
C1433 C1432 1.377 . S
C1433 C1434 1.379 . S
C1434 H1418 0.931 . S
C1434 C1428 1.383 . S
C1434 C1433 1.379 . S
H1435 C1429 0.959 . S
H1436 C1429 0.961 . S
H1437 C1429 0.960 . S
H1438 C1430 0.930 . S
H1439 C1431 0.929 . S
H1440 C1448 0.929 . S
H1441 C1450 0.930 . S
H1442 C1452 0.930 . S
H1443 C1455 0.929 . S
H1444 C1458 0.930 . S
H1445 C1460 0.960 . S
H1446 C1460 0.960 . S
H1447 C1460 0.960 . S
C1448 H1440 0.929 . S
C1448 C1449 1.377 . S
C1448 C1450 1.384 . S
C1449 C1448 1.377 . S
C1449 C1455 1.390 . S
C1450 H1441 0.930 . S
C1450 C1448 1.384 . S
C1450 C1451 1.372 . S
C1451 C1450 1.372 . S
C1451 C1452 1.400 . S
C1451 C1456 1.490 . S
C1452 H1442 0.930 . S
C1452 C1451 1.400 . S
C1452 C1455 1.386 . S
H1453 C1469 0.930 . S
H1454 C1470 0.931 . S
C1455 H1443 0.929 . S
C1455 C1449 1.390 . S
C1455 C1452 1.386 . S
C1456 C1451 1.490 . S
C1456 C1458 1.395 1_556 S
C1456 C1459 1.403 . S
H1457 C1463 0.930 . S
C1458 H1444 0.930 . S
C1458 C1456 1.395 1_554 S
C1458 C1461 1.403 . S
C1459 C1456 1.403 . S
C1459 C1460 1.524 . S
C1459 C1463 1.400 . S
C1460 H1445 0.960 . S
C1460 H1446 0.960 . S
C1460 H1447 0.960 . S
C1460 C1459 1.524 . S
C1461 C1458 1.403 . S
C1461 C1462 1.392 . S
C1461 C1465 1.495 . S
C1462 C1461 1.392 . S
C1462 C1463 1.385 1_554 S
C1462 C1464 1.478 . S
C1463 H1457 0.930 . S
C1463 C1459 1.400 . S
C1463 C1462 1.385 1_556 S
C1464 C1462 1.478 . S
C1464 C1466 1.381 . S
C1464 C1470 1.383 . S
C1465 C1461 1.495 . S
C1465 H1471 0.959 . S
C1465 H1472 0.961 . S
C1465 H1473 0.960 . S
C1466 C1464 1.381 . S
C1466 C1467 1.394 . S
C1466 H1474 0.930 . S
C1467 C1466 1.394 . S
C1467 C1468 1.383 . S
C1467 H1475 0.929 . S
C1468 C1467 1.383 . S
C1468 C1469 1.377 . S
C1469 H1453 0.930 . S
C1469 C1468 1.377 . S
C1469 C1470 1.379 . S
C1470 H1454 0.931 . S
C1470 C1464 1.383 . S
C1470 C1469 1.379 . S
H1471 C1465 0.959 . S
H1472 C1465 0.961 . S
H1473 C1465 0.960 . S
H1474 C1466 0.930 . S
H1475 C1467 0.929 . S
H1476 C1484 0.929 . S
H1477 C1486 0.930 . S
H1478 C1488 0.930 1_554 S
H1479 C1491 0.929 . S
H1480 C1494 0.930 . S
H1481 C1496 0.960 . S
H1482 C1496 0.960 . S
H1483 C1496 0.960 . S
C1484 H1476 0.929 . S
C1484 C1485 1.377 . S
C1484 C1486 1.384 . S
C1485 C1484 1.377 . S
C1485 C1491 1.390 . S
C1486 H1477 0.930 . S
C1486 C1484 1.384 . S
C1486 C1487 1.372 . S
C1487 C1486 1.372 . S
C1487 C1488 1.400 . S
C1487 C1492 1.490 . S
C1488 H1478 0.930 1_556 S
C1488 C1487 1.400 . S
C1488 C1491 1.386 . S
H1489 C1505 0.930 . S
H1490 C1506 0.931 . S
C1491 H1479 0.929 . S
C1491 C1485 1.390 . S
C1491 C1488 1.386 . S
C1492 C1487 1.490 . S
C1492 C1494 1.395 . S
C1492 C1495 1.403 1_565 S
H1493 C1499 0.930 . S
C1494 H1480 0.930 . S
C1494 C1492 1.395 . S
C1494 C1497 1.403 1_556 S
C1495 C1492 1.403 1_545 S
C1495 C1496 1.524 . S
C1495 C1499 1.400 1_556 S
C1496 H1481 0.960 . S
C1496 H1482 0.960 . S
C1496 H1483 0.960 . S
C1496 C1495 1.524 . S
C1497 C1494 1.403 1_554 S
C1497 C1498 1.392 1_565 S
C1497 C1501 1.495 . S
C1498 C1497 1.392 1_545 S
C1498 C1499 1.385 . S
C1498 C1500 1.478 . S
C1499 H1493 0.930 . S
C1499 C1495 1.400 1_554 S
C1499 C1498 1.385 . S
C1500 C1498 1.478 . S
C1500 C1502 1.381 . S
C1500 C1506 1.383 . S
C1501 C1497 1.495 . S
C1501 H1507 0.959 . S
C1501 H1508 0.961 . S
C1501 H1509 0.960 . S
C1502 C1500 1.381 . S
C1502 C1503 1.394 . S
C1502 H1510 0.930 1_554 S
C1503 C1502 1.394 . S
C1503 C1504 1.383 . S
C1503 H1511 0.929 . S
C1504 C1503 1.383 . S
C1504 C1505 1.377 . S
C1505 H1489 0.930 . S
C1505 C1504 1.377 . S
C1505 C1506 1.379 . S
C1506 H1490 0.931 . S
C1506 C1500 1.383 . S
C1506 C1505 1.379 . S
H1507 C1501 0.959 . S
H1508 C1501 0.961 . S
H1509 C1501 0.960 . S
H1510 C1502 0.930 1_556 S
H1511 C1503 0.929 . S
H1512 C1520 0.929 . S
H1513 C1522 0.930 . S
H1514 C1524 0.930 1_554 S
H1515 C1527 0.929 . S
H1516 C1530 0.930 . S
H1517 C1532 0.960 . S
H1518 C1532 0.960 . S
H1519 C1532 0.960 1_455 S
C1520 H1512 0.929 . S
C1520 C1521 1.377 . S
C1520 C1522 1.384 . S
C1521 C1520 1.377 . S
C1521 C1527 1.390 . S
C1522 H1513 0.930 . S
C1522 C1520 1.384 . S
C1522 C1523 1.372 . S
C1523 C1522 1.372 . S
C1523 C1524 1.400 . S
C1523 C1528 1.490 . S
C1524 H1514 0.930 1_556 S
C1524 C1523 1.400 . S
C1524 C1527 1.386 . S
H1525 C1541 0.930 . S
H1526 C1542 0.931 . S
C1527 H1515 0.929 . S
C1527 C1521 1.390 . S
C1527 C1524 1.386 . S
C1528 C1523 1.490 . S
C1528 C1530 1.395 . S
C1528 C1531 1.403 . S
H1529 C1535 0.930 . S
C1530 H1516 0.930 . S
C1530 C1528 1.395 . S
C1530 C1533 1.403 1_556 S
C1531 C1528 1.403 . S
C1531 C1532 1.524 1_455 S
C1531 C1535 1.400 1_456 S
C1532 H1517 0.960 . S
C1532 H1518 0.960 . S
C1532 H1519 0.960 1_655 S
C1532 C1531 1.524 1_655 S
C1533 C1530 1.403 1_554 S
C1533 C1534 1.392 1_455 S
C1533 C1537 1.495 . S
C1534 C1533 1.392 1_655 S
C1534 C1535 1.385 . S
C1534 C1536 1.478 . S
C1535 H1529 0.930 . S
C1535 C1531 1.400 1_654 S
C1535 C1534 1.385 . S
C1536 C1534 1.478 . S
C1536 C1538 1.381 . S
C1536 C1542 1.383 . S
C1537 C1533 1.495 . S
C1537 H1543 0.959 . S
C1537 H1544 0.961 . S
C1537 H1545 0.960 . S
C1538 C1536 1.381 . S
C1538 C1539 1.394 . S
C1538 H1546 0.930 1_554 S
C1539 C1538 1.394 . S
C1539 C1540 1.383 . S
C1539 H1547 0.929 . S
C1540 C1539 1.383 . S
C1540 C1541 1.377 . S
C1541 H1525 0.930 . S
C1541 C1540 1.377 . S
C1541 C1542 1.379 . S
C1542 H1526 0.931 . S
C1542 C1536 1.383 . S
C1542 C1541 1.379 . S
H1543 C1537 0.959 . S
H1544 C1537 0.961 . S
H1545 C1537 0.960 . S
H1546 C1538 0.930 1_556 S
H1547 C1539 0.929 . S
C261 C7 1.050 . S
C280 C203 1.071 . S
C297 C171 1.008 . S
C316 C17 0.999 . S
C333 C31 1.037 . S
C352 C189 1.003 . S
C369 C91 1.043 . S
C388 C35 1.022 . S
C405 C105 1.030 . S
C424 C3 1.034 . S
C441 C119 1.052 . S
C460 C21 1.030 . S
C477 C49 1.051 . S
C496 C161 1.060 . S
C513 C133 1.036 . S
C532 C59 1.048 . S
C549 C147 1.032 . S
C568 C73 1.032 . S
C585 C77 1.050 . S
C604 C217 1.032 . S
C621 C45 1.010 . S
C640 C227 1.017 . S
C657 C241 1.037 . S
C676 C63 1.017 . S
C693 C175 1.021 . S
C712 C115 1.021 . S
C729 C87 1.020 . S
C748 C185 1.025 . S
C765 C199 1.012 . S
C784 C101 1.017 . S
C801 C245 1.020 . S
C820 C129 1.020 . S
C837 C143 1.011 . S
C856 C213 1.011 . S
C873 C231 1.016 . S
C892 C157 1.035 . S
C909 C219 1.523 . S
C928 C9 1.554 . S
C945 C22 1.591 . S
C964 C232 1.566 . S
C981 C36 1.606 . S
C1000 C246 1.585 . S
C1017 C37 1.518 . S
C1036 C163 1.475 . S
C1053 C135 1.539 . S
C1072 C8 1.664 . S
C1089 C23 1.483 . S
C1108 C149 1.518 . S
C1125 C93 1.484 . S
C1144 C51 1.453 . S
C1161 C107 1.499 . S
C1180 C64 1.619 . S
C1197 C78 1.640 . S
C1216 C121 1.524 . S
C1233 C79 1.533 . S
C1252 C205 1.545 . S
C1269 C50 1.602 . S
C1288 C176 1.577 . S
C1305 C65 1.523 . S
C1324 C191 1.523 . S
C1341 C120 1.628 . S
C1360 C247 1.483 . S
C1377 C92 1.644 . S
C1396 C218 1.614 . S
C1413 C233 1.477 . S
C1432 C106 1.565 . S
C1449 C177 1.490 . S
C1468 C134 1.565 . S
C1485 C190 1.595 . S
C1504 C148 1.570 . S
C1521 C204 1.644 . S
C1540 C162 1.616 . S
