# Generated by pormake.
# Topology bcs, (6)-cn, num edge types: 1
# Building blocks:
#     Node 0, Type 0, BuildingBlock: BETDEL_clean_sbu_0, # of connection points: 6
#     Node 1, Type 0, BuildingBlock: BETDEL_clean_sbu_0, # of connection points: 6
#     Node 2, Type 0, BuildingBlock: BETDEL_clean_sbu_0, # of connection points: 6
#     Node 3, Type 0, BuildingBlock: BETDEL_clean_sbu_0, # of connection points: 6
#     Node 4, Type 0, BuildingBlock: BETDEL_clean_sbu_0, # of connection points: 6
#     Node 5, Type 0, BuildingBlock: BETDEL_clean_sbu_0, # of connection points: 6
#     Node 6, Type 0, BuildingBlock: BETDEL_clean_sbu_0, # of connection points: 6
#     Node 7, Type 0, BuildingBlock: BETDEL_clean_sbu_0, # of connection points: 6
#     Node 8, Type 0, BuildingBlock: BETDEL_clean_sbu_0, # of connection points: 6
#     Node 9, Type 0, BuildingBlock: BETDEL_clean_sbu_0, # of connection points: 6
#     Node 10, Type 0, BuildingBlock: BETDEL_clean_sbu_0, # of connection points: 6
#     Node 11, Type 0, BuildingBlock: BETDEL_clean_sbu_0, # of connection points: 6
#     Node 12, Type 0, BuildingBlock: BETDEL_clean_sbu_0, # of connection points: 6
#     Node 13, Type 0, BuildingBlock: BETDEL_clean_sbu_0, # of connection points: 6
#     Node 14, Type 0, BuildingBlock: BETDEL_clean_sbu_0, # of connection points: 6
#     Node 15, Type 0, BuildingBlock: BETDEL_clean_sbu_0, # of connection points: 6
#     Edge 16, Type (0, 0), BuildingBlock: TEMPAE_clean_linker_10, # of connection points: 2
#     Edge 17, Type (0, 0), BuildingBlock: TEMPAE_clean_linker_10, # of connection points: 2
#     Edge 18, Type (0, 0), BuildingBlock: TEMPAE_clean_linker_10, # of connection points: 2
#     Edge 19, Type (0, 0), BuildingBlock: TEMPAE_clean_linker_10, # of connection points: 2
#     Edge 20, Type (0, 0), BuildingBlock: TEMPAE_clean_linker_10, # of connection points: 2
#     Edge 21, Type (0, 0), BuildingBlock: TEMPAE_clean_linker_10, # of connection points: 2
#     Edge 22, Type (0, 0), BuildingBlock: TEMPAE_clean_linker_10, # of connection points: 2
#     Edge 23, Type (0, 0), BuildingBlock: TEMPAE_clean_linker_10, # of connection points: 2
#     Edge 24, Type (0, 0), BuildingBlock: TEMPAE_clean_linker_10, # of connection points: 2
#     Edge 25, Type (0, 0), BuildingBlock: TEMPAE_clean_linker_10, # of connection points: 2
#     Edge 26, Type (0, 0), BuildingBlock: TEMPAE_clean_linker_10, # of connection points: 2
#     Edge 27, Type (0, 0), BuildingBlock: TEMPAE_clean_linker_10, # of connection points: 2
#     Edge 28, Type (0, 0), BuildingBlock: TEMPAE_clean_linker_10, # of connection points: 2
#     Edge 29, Type (0, 0), BuildingBlock: TEMPAE_clean_linker_10, # of connection points: 2
#     Edge 30, Type (0, 0), BuildingBlock: TEMPAE_clean_linker_10, # of connection points: 2
#     Edge 31, Type (0, 0), BuildingBlock: TEMPAE_clean_linker_10, # of connection points: 2
#     Edge 32, Type (0, 0), BuildingBlock: TEMPAE_clean_linker_10, # of connection points: 2
#     Edge 33, Type (0, 0), BuildingBlock: TEMPAE_clean_linker_10, # of connection points: 2
#     Edge 34, Type (0, 0), BuildingBlock: TEMPAE_clean_linker_10, # of connection points: 2
#     Edge 35, Type (0, 0), BuildingBlock: TEMPAE_clean_linker_10, # of connection points: 2
#     Edge 36, Type (0, 0), BuildingBlock: TEMPAE_clean_linker_10, # of connection points: 2
#     Edge 37, Type (0, 0), BuildingBlock: TEMPAE_clean_linker_10, # of connection points: 2
#     Edge 38, Type (0, 0), BuildingBlock: TEMPAE_clean_linker_10, # of connection points: 2
#     Edge 39, Type (0, 0), BuildingBlock: TEMPAE_clean_linker_10, # of connection points: 2
#     Edge 40, Type (0, 0), BuildingBlock: TEMPAE_clean_linker_10, # of connection points: 2
#     Edge 41, Type (0, 0), BuildingBlock: TEMPAE_clean_linker_10, # of connection points: 2
#     Edge 42, Type (0, 0), BuildingBlock: TEMPAE_clean_linker_10, # of connection points: 2
#     Edge 43, Type (0, 0), BuildingBlock: TEMPAE_clean_linker_10, # of connection points: 2
#     Edge 44, Type (0, 0), BuildingBlock: TEMPAE_clean_linker_10, # of connection points: 2
#     Edge 45, Type (0, 0), BuildingBlock: TEMPAE_clean_linker_10, # of connection points: 2
#     Edge 46, Type (0, 0), BuildingBlock: TEMPAE_clean_linker_10, # of connection points: 2
#     Edge 47, Type (0, 0), BuildingBlock: TEMPAE_clean_linker_10, # of connection points: 2
#     Edge 48, Type (0, 0), BuildingBlock: TEMPAE_clean_linker_10, # of connection points: 2
#     Edge 49, Type (0, 0), BuildingBlock: TEMPAE_clean_linker_10, # of connection points: 2
#     Edge 50, Type (0, 0), BuildingBlock: TEMPAE_clean_linker_10, # of connection points: 2
#     Edge 51, Type (0, 0), BuildingBlock: TEMPAE_clean_linker_10, # of connection points: 2
#     Edge 52, Type (0, 0), BuildingBlock: TEMPAE_clean_linker_10, # of connection points: 2
#     Edge 53, Type (0, 0), BuildingBlock: TEMPAE_clean_linker_10, # of connection points: 2
#     Edge 54, Type (0, 0), BuildingBlock: TEMPAE_clean_linker_10, # of connection points: 2
#     Edge 55, Type (0, 0), BuildingBlock: TEMPAE_clean_linker_10, # of connection points: 2
#     Edge 56, Type (0, 0), BuildingBlock: TEMPAE_clean_linker_10, # of connection points: 2
#     Edge 57, Type (0, 0), BuildingBlock: TEMPAE_clean_linker_10, # of connection points: 2
#     Edge 58, Type (0, 0), BuildingBlock: TEMPAE_clean_linker_10, # of connection points: 2
#     Edge 59, Type (0, 0), BuildingBlock: TEMPAE_clean_linker_10, # of connection points: 2
#     Edge 60, Type (0, 0), BuildingBlock: TEMPAE_clean_linker_10, # of connection points: 2
#     Edge 61, Type (0, 0), BuildingBlock: TEMPAE_clean_linker_10, # of connection points: 2
#     Edge 62, Type (0, 0), BuildingBlock: TEMPAE_clean_linker_10, # of connection points: 2
#     Edge 63, Type (0, 0), BuildingBlock: TEMPAE_clean_linker_10, # of connection points: 2
# Relax obj value: 0.150
# Max RMSD: 0.236
# Mean RMSD: 0.194
data_MOF--net-bcs--node1-BETDEL_clean_sbu_0--edge1-TEMPAE_clean_linker_10
_symmetry_space_group_name_H-M    P1
_symmetry_Int_Tables_number       1
_symmetry_cell_setting            triclinic
loop_
_symmetry_equiv_pos_as_xyz
'x, y, z'
_cell_length_a     36.733113
_cell_length_b     38.048058
_cell_length_c     34.662239
_cell_angle_alpha  91.28396
_cell_angle_beta   94.398734
_cell_angle_gamma 104.6043
loop_
_atom_site_label
_atom_site_type_symbol
_atom_site_fract_x
_atom_site_fract_y
_atom_site_fract_z
_atom_type_partial_charge
Dy0 Dy 0.01937 0.97241 0.96993 0.0
C1 C 0.95051 0.05903 0.06199 0.0
C2 C 0.06237 0.93553 0.93449 0.0
Dy3 Dy 0.99279 0.02367 0.02337 0.0
O4 O 0.0482 0.92761 0.96719 0.0
O5 O 0.0522 0.96319 0.92012 0.0
O6 O 0.96399 0.93052 0.97155 0.0
O7 O 0.9867 0.96567 0.01972 0.0
C8 C 0.95843 0.94151 0.00588 0.0
C9 C 0.05417 0.05446 0.98819 0.0
O10 O 0.03019 0.00433 0.06673 0.0
O11 O 0.06443 0.98706 0.01963 0.0
O12 O 0.97382 0.07342 0.03706 0.0
O13 O 0.95103 0.02543 0.0669 0.0
O14 O 0.04852 0.06503 0.02267 0.0
O15 O 0.02586 0.03056 0.9738 0.0
O16 O 0.98277 0.99202 0.92589 0.0
O17 O 0.94973 0.0131 0.97181 0.0
C18 C 0.05975 0.99357 0.05644 0.0
C19 C 0.95427 0.00496 0.93536 0.0
Dy20 Dy 0.2676 0.73107 0.25231 0.0
C21 C 0.19205 0.84055 0.20993 0.0
C22 C 0.30321 0.67981 0.27652 0.0
Dy23 Dy 0.22606 0.79001 0.23963 0.0
O24 O 0.29177 0.6837 0.24098 0.0
O25 O 0.295 0.70386 0.29919 0.0
O26 O 0.26395 0.72104 0.18818 0.0
O27 O 0.22002 0.73642 0.21306 0.0
C28 C 0.2321 0.72957 0.18147 0.0
C29 C 0.26101 0.7912 0.31048 0.0
O30 O 0.17863 0.7478 0.25992 0.0
O31 O 0.21532 0.70967 0.28265 0.0
O32 O 0.2185 0.84688 0.23813 0.0
O33 O 0.18419 0.80668 0.19805 0.0
O34 O 0.22966 0.80088 0.30382 0.0
O35 O 0.27318 0.7844 0.27892 0.0
O36 O 0.31545 0.77595 0.2387 0.0
O37 O 0.27735 0.80759 0.20617 0.0
C38 C 0.18296 0.7193 0.27919 0.0
C39 C 0.31088 0.80113 0.21457 0.0
Dy40 Dy 0.49373 0.00495 0.53627 0.0
C41 C 0.53245 0.95982 0.38942 0.0
C42 C 0.47075 0.03287 0.60044 0.0
Dy43 Dy 0.5197 0.99273 0.45595 0.0
O44 O 0.44884 0.01322 0.57269 0.0
O45 O 0.50592 0.03688 0.59377 0.0
O46 O 0.45853 0.94726 0.53295 0.0
O47 O 0.46686 0.97684 0.48238 0.0
C48 C 0.45295 0.94618 0.49541 0.0
C49 C 0.5617 0.05131 0.49653 0.0
O50 O 0.47684 0.02329 0.43879 0.0
O51 O 0.47777 0.04871 0.50036 0.0
O52 O 0.54713 0.99374 0.39997 0.0
O53 O 0.51051 0.94413 0.41504 0.0
O54 O 0.55767 0.0494 0.45888 0.0
O55 O 0.54665 0.021 0.50964 0.0
O56 O 0.53354 0.97159 0.55523 0.0
O57 O 0.54464 0.9547 0.49303 0.0
C58 C 0.46842 0.04744 0.46243 0.0
C59 C 0.54826 0.95215 0.53136 0.0
Dy60 Dy 0.29396 0.22318 0.75817 0.0
C61 C 0.18087 0.30626 0.75474 0.0
C62 C 0.34535 0.18337 0.75071 0.0
Dy63 Dy 0.23196 0.26613 0.74607 0.0
O64 O 0.35335 0.21859 0.75409 0.0
O65 O 0.30919 0.16981 0.75126 0.0
O66 O 0.30919 0.24732 0.81878 0.0
O67 O 0.28754 0.27601 0.77575 0.0
C68 C 0.29593 0.2753 0.81135 0.0
C69 C 0.22963 0.21423 0.69241 0.0
O70 O 0.27671 0.29977 0.71318 0.0
O71 O 0.31015 0.25585 0.70608 0.0
O72 O 0.17317 0.27101 0.75408 0.0
O73 O 0.21646 0.31962 0.7505 0.0
O74 O 0.21671 0.24253 0.68563 0.0
O75 O 0.23808 0.21306 0.72804 0.0
O76 O 0.25024 0.19004 0.79231 0.0
O77 O 0.21688 0.23408 0.79889 0.0
C78 C 0.30279 0.28724 0.69711 0.0
C79 C 0.22453 0.20294 0.80852 0.0
Dy80 Dy 0.03627 0.97384 0.49974 0.0
C81 C 0.93032 0.06388 0.46866 0.0
C82 C 0.08778 0.93704 0.52555 0.0
Dy83 Dy 0.98236 0.02723 0.49349 0.0
O84 O 0.05765 0.9232 0.50252 0.0
O85 O 0.08969 0.97084 0.53427 0.0
O86 O 0.00943 0.94715 0.4427 0.0
O87 O 0.97846 0.97071 0.47976 0.0
C88 C 0.97809 0.95648 0.44671 0.0
C89 C 0.04145 0.0449 0.54571 0.0
O90 O 0.95351 0.99008 0.5372 0.0
O91 O 1.00087 0.95993 0.55068 0.0
O92 O 0.96325 0.07885 0.48647 0.0
O93 O 0.92592 0.02903 0.46451 0.0
O94 O 0.01031 0.05443 0.55031 0.0
O95 O 0.04011 0.0303 0.51276 0.0
O96 O 0.06554 0.01175 0.45697 0.0
O97 O 0.01666 0.03954 0.44139 0.0
C98 C 0.96825 0.96715 0.55775 0.0
C99 C 0.04999 0.03336 0.43522 0.0
Dy100 Dy 0.25798 0.76578 0.76181 0.0
C101 C 0.3318 0.71385 0.64125 0.0
C102 C 0.22734 0.80002 0.8151 0.0
Dy103 Dy 0.30224 0.74854 0.69536 0.0
O104 O 0.21512 0.76597 0.80418 0.0
O105 O 0.25663 0.81535 0.79726 0.0
O106 O 0.2204 0.70941 0.75661 0.0
O107 O 0.24332 0.73444 0.70729 0.0
C108 C 0.22472 0.70524 0.72011 0.0
C109 C 0.33537 0.80856 0.73828 0.0
O110 O 0.26481 0.77729 0.66154 0.0
O111 O 0.24374 0.80154 0.71515 0.0
O112 O 0.3452 0.7476 0.65302 0.0
O113 O 0.30207 0.69918 0.6588 0.0
O114 O 0.34034 0.80532 0.70178 0.0
O115 O 0.31653 0.77904 0.74988 0.0
O116 O 0.29498 0.73748 0.79583 0.0
O117 O 0.31565 0.71214 0.74261 0.0
C118 C 0.24663 0.79933 0.67726 0.0
C119 C 0.31215 0.71444 0.78051 0.0
Dy120 Dy 0.53715 0.97436 0.98065 0.0
C121 C 0.45015 0.06354 0.05906 0.0
C122 C 0.57632 0.93563 0.93891 0.0
Dy123 Dy 0.48844 0.02472 0.0163 0.0
O124 O 0.54184 0.92328 0.9482 0.0
O125 O 0.58898 0.96911 0.95207 0.0
O126 O 0.57442 0.98272 0.03613 0.0
O127 O 0.54743 0.02294 0.01858 0.0
C128 C 0.56693 0.01314 0.04569 0.0
C129 C 0.45787 0.98577 0.95153 0.0
O130 O 0.5211 0.06217 0.97552 0.0
O131 O 0.53592 0.01695 0.93739 0.0
O132 O 0.43636 0.0311 0.04335 0.0
O133 O 0.48549 0.07484 0.05189 0.0
O134 O 0.44989 0.01585 0.96164 0.0
O135 O 0.47806 0.97619 0.97827 0.0
O136 O 0.5037 0.93654 0.02053 0.0
O137 O 0.48885 0.98148 0.05902 0.0
C138 C 0.53296 0.0507 0.94345 0.0
C139 C 0.4918 0.94777 0.05267 0.0
Dy140 Dy 0.28484 0.24554 0.28284 0.0
C141 C 0.20269 0.28869 0.15262 0.0
C142 C 0.31858 0.2115 0.33886 0.0
Dy143 Dy 0.23544 0.2536 0.20821 0.0
O144 O 0.33216 0.24453 0.32828 0.0
O145 O 0.28593 0.19786 0.31995 0.0
O146 O 0.32019 0.30291 0.278 0.0
O147 O 0.29478 0.27129 0.22813 0.0
C148 C 0.31321 0.30256 0.24051 0.0
C149 C 0.20657 0.19678 0.2508 0.0
O150 O 0.27316 0.22384 0.18034 0.0
O151 O 0.29893 0.20708 0.23839 0.0
O152 O 0.18883 0.25539 0.16227 0.0
O153 O 0.23502 0.30198 0.17221 0.0
O154 O 0.19955 0.1965 0.21332 0.0
O155 O 0.22538 0.228 0.26301 0.0
O156 O 0.24713 0.27571 0.31052 0.0
O157 O 0.22158 0.29225 0.25226 0.0
C158 C 0.29419 0.20515 0.1998 0.0
C159 C 0.22625 0.29444 0.29081 0.0
Dy160 Dy 0.53458 0.46921 -0.00052 0.0
C161 C 0.43838 0.56523 0.95742 0.0
C162 C 0.578 0.42738 0.03264 0.0
Dy163 Dy 0.48378 0.52526 0.99023 0.0
O164 O 0.54889 0.41555 0.00773 0.0
O165 O 0.58421 0.46235 0.03832 0.0
O166 O 0.50629 0.44146 0.94305 0.0
O167 O 0.47761 0.46819 0.97935 0.0
C168 C 0.47591 0.45261 0.9469 0.0
C169 C 0.54117 0.54125 0.04392 0.0
O170 O 0.45159 0.49025 0.03363 0.0
O171 O 0.4982 0.45996 0.05016 0.0
O172 O 0.46833 0.57828 0.98095 0.0
O173 O 0.43271 0.53024 0.95275 0.0
O174 O 0.51068 0.55241 0.04707 0.0
O175 O 0.54058 0.52629 0.01125 0.0
O176 O 0.56718 0.50461 0.9565 0.0
O177 O 0.52055 0.5349 0.93993 0.0
C178 C 0.46563 0.46795 0.05589 0.0
C179 C 0.55328 0.52715 0.93441 0.0
Dy180 Dy 0.70433 0.24255 0.30126 0.0
C181 C 0.78876 0.1939 0.18871 0.0
C182 C 0.67454 0.27859 0.35386 0.0
Dy183 Dy 0.7489 0.22408 0.23627 0.0
O184 O 0.66173 0.24442 0.3437 0.0
O185 O 0.70378 0.293 0.33551 0.0
O186 O 0.66953 0.18494 0.30236 0.0
O187 O 0.69098 0.20602 0.25057 0.0
C188 C 0.675 0.17763 0.26682 0.0
C189 C 0.77797 0.28877 0.2722 0.0
O190 O 0.71199 0.25038 0.19977 0.0
O191 O 0.6865 0.27362 0.25107 0.0
O192 O 0.80266 0.21374 0.21976 0.0
O193 O 0.75271 0.19089 0.18282 0.0
O194 O 0.7805 0.2825 0.23568 0.0
O195 O 0.76267 0.25981 0.28782 0.0
O196 O 0.74554 0.21845 0.33581 0.0
O197 O 0.75807 0.18653 0.28291 0.0
C198 C 0.69158 0.27118 0.21354 0.0
C199 C 0.76038 0.19338 0.3208 0.0
Dy200 Dy 0.03003 0.47671 0.46819 0.0
C201 C 0.9449 0.56056 0.5557 0.0
C202 C 0.06785 0.43864 0.42381 0.0
Dy203 Dy 0.98219 0.52256 0.51063 0.0
O204 O 0.0807 0.47196 0.43734 0.0
O205 O 0.03348 0.42625 0.43353 0.0
O206 O 0.07378 0.48918 0.51844 0.0
O207 O 0.04177 0.52653 0.50484 0.0
C208 C 0.06569 0.51899 0.52908 0.0
C209 C 0.9466 0.48058 0.44951 0.0
O210 O 1.00649 0.56053 0.46597 0.0
O211 O 0.02121 0.51746 0.42493 0.0
O212 O 0.97915 0.57291 0.54569 0.0
O213 O 0.93179 0.52733 0.54194 0.0
O214 O 0.93851 0.51033 0.4604 0.0
O215 O 0.97037 0.47285 0.47383 0.0
O216 O 1.00544 0.43861 0.51268 0.0
O217 O 0.99105 0.48178 0.55379 0.0
C218 C 0.01586 0.55021 0.43208 0.0
C219 C 0.99613 0.44896 0.54658 0.0
Dy220 Dy 0.78331 0.72345 0.24833 0.0
C221 C 0.68277 0.81845 0.26047 0.0
C222 C 0.82666 0.67849 0.228 0.0
Dy223 Dy 0.7255 0.77229 0.2428 0.0
O224 O 0.82976 0.69525 0.26168 0.0
O225 O 0.79974 0.68605 0.20589 0.0
O226 O 0.80593 0.74857 0.30704 0.0
O227 O 0.78329 0.77841 0.26555 0.0
C228 C 0.79504 0.77805 0.30044 0.0
C229 C 0.715 0.71788 0.1907 0.0
O230 O 0.76875 0.80467 0.20739 0.0
O231 O 0.8029 0.76113 0.20041 0.0
O232 O 0.67662 0.79712 0.22954 0.0
O233 O 0.7122 0.81454 0.28151 0.0
O234 O 0.70416 0.74728 0.18342 0.0
O235 O 0.72596 0.71769 0.22573 0.0
O236 O 0.73849 0.69051 0.28225 0.0
O237 O 0.70523 0.73467 0.29038 0.0
C238 C 0.79451 0.79202 0.1908 0.0
C239 C 0.71262 0.70311 0.2989 0.0
Dy240 Dy 0.79365 0.21126 0.74933 0.0
C241 C 0.71181 0.31818 0.7141 0.0
C242 C 0.82892 0.16109 0.77782 0.0
Dy243 Dy 0.75017 0.2687 0.73752 0.0
O244 O 0.80131 0.15445 0.75084 0.0
O245 O 0.83733 0.19514 0.78916 0.0
O246 O 0.78841 0.19951 0.68529 0.0
O247 O 0.74491 0.21525 0.71122 0.0
C248 C 0.75644 0.20817 0.67937 0.0
C249 C 0.78778 0.27172 0.80756 0.0
O250 O 0.70384 0.22287 0.75238 0.0
O251 O 0.74399 0.19349 0.78498 0.0
O252 O 0.7227 0.31364 0.74964 0.0
O253 O 0.72211 0.2958 0.69099 0.0
O254 O 0.75558 0.27969 0.80163 0.0
O255 O 0.79917 0.26492 0.77558 0.0
O256 O 0.83957 0.25389 0.72715 0.0
O257 O 0.80128 0.29104 0.70574 0.0
C258 C 0.70986 0.19873 0.77717 0.0
C259 C 0.83401 0.28207 0.70802 0.0
Dy260 Dy 0.78414 0.74274 0.78192 0.0
C261 C 0.69937 0.78847 0.65493 0.0
C262 C 0.81723 0.70626 0.83588 0.0
Dy263 Dy 0.73346 0.75265 0.70899 0.0
O264 O 0.83089 0.73992 0.82731 0.0
O265 O 0.78494 0.69329 0.81609 0.0
O266 O 0.82068 0.79959 0.77745 0.0
O267 O 0.79333 0.76938 0.72743 0.0
C268 C 0.81282 0.8002 0.74018 0.0
C269 C 0.70536 0.69511 0.75098 0.0
O270 O 0.77015 0.72271 0.67927 0.0
O271 O 0.7967 0.70478 0.73626 0.0
O272 O 0.686 0.75493 0.66411 0.0
O273 O 0.73194 0.80166 0.67414 0.0
O274 O 0.69752 0.6954 0.71368 0.0
O275 O 0.72442 0.72614 0.76343 0.0
O276 O 0.74787 0.77288 0.8117 0.0
O277 O 0.7212 0.79083 0.75479 0.0
C278 C 0.79116 0.70337 0.69776 0.0
C279 C 0.72697 0.79231 0.79329 0.0
Dy280 Dy 0.52526 0.49715 0.53692 0.0
C281 C 0.45135 0.51739 0.39012 0.0
C282 C 0.55537 0.47513 0.60355 0.0
Dy283 Dy 0.48193 0.49648 0.45706 0.0
O284 O 0.57045 0.50438 0.58603 0.0
O285 O 0.52324 0.45864 0.58525 0.0
O286 O 0.56425 0.55087 0.52554 0.0
O287 O 0.54071 0.5131 0.47943 0.0
C288 C 0.56016 0.54493 0.48819 0.0
C289 C 0.44771 0.44825 0.50563 0.0
O290 O 0.5171 0.45966 0.44103 0.0
O291 O 0.53525 0.44904 0.50457 0.0
O292 O 0.43542 0.48969 0.40948 0.0
O293 O 0.48453 0.53299 0.40683 0.0
O294 O 0.4438 0.44227 0.46828 0.0
O295 O 0.4666 0.48028 0.5144 0.0
O296 O 0.48955 0.53351 0.55289 0.0
O297 O 0.47228 0.54482 0.48934 0.0
C298 C 0.53267 0.44138 0.46677 0.0
C299 C 0.47428 0.55207 0.52719 0.0
Dy300 Dy 0.9975 0.5041 0.03548 0.0
C301 C 0.05205 0.46509 0.89299 0.0
C302 C 0.97958 0.53581 0.10043 0.0
Dy303 Dy 0.02641 0.49367 0.95518 0.0
O304 O 0.96401 0.5027 0.08743 0.0
O305 O 1.00546 0.55125 0.07833 0.0
O306 O 0.96383 0.44568 0.03217 0.0
O307 O 0.97374 0.4747 0.98145 0.0
C308 C 0.96068 0.4439 0.99449 0.0
C309 C 0.06212 0.55411 0.9961 0.0
O310 O 0.98409 0.52396 0.93512 0.0
O311 O 0.97147 0.54033 -0.00294 0.0
O312 O 0.07284 0.48683 0.92001 0.0
O313 O 0.01657 0.45973 0.89907 0.0
O314 O 0.05801 0.55258 0.95844 0.0
O315 O 0.05011 0.52309 0.00918 0.0
O316 O 0.0421 0.47609 0.05426 0.0
O317 O 0.04495 0.45228 0.99261 0.0
C318 C 0.96808 0.54253 0.95868 0.0
C319 C 0.05307 0.45345 0.03075 0.0
C320 C 0.21586 0.15333 0.85553 0.0
C321 C 0.2035 0.18188 0.83857 0.0
C322 C 0.19524 0.13222 0.88299 0.0
C323 C 0.16132 0.13965 0.89322 0.0
C324 C 0.14918 0.16895 0.8769 0.0
C325 C 0.17056 0.18987 0.84989 0.0
C326 C 0.20918 0.10143 0.90027 0.0
C327 C 0.1129 0.17744 0.88692 0.0
C328 C 0.08288 0.06454 0.92574 0.0
C329 C 0.08435 0.07379 0.96526 0.0
C330 C 0.10875 0.08508 0.90219 0.0
C331 C 0.13691 0.11529 0.91877 0.0
C332 C 0.13976 0.12359 0.95908 0.0
C333 C 0.1132 0.10272 0.98194 0.0
C334 C 0.10476 0.07547 0.85927 0.0
C335 C 0.16986 0.1553 0.97772 0.0
H336 H 0.24155 0.14729 0.84721 0.0
H337 H 0.16086 0.21189 0.83689 0.0
H338 H 0.21016 0.10339 0.93233 0.0
H339 H 0.18931 0.07506 0.89052 0.0
H340 H 0.2377 0.10125 0.89181 0.0
H341 H 0.10838 0.20218 0.87299 0.0
H342 H 0.0886 0.15417 0.87745 0.0
H343 H 0.11303 0.18141 0.91874 0.0
H344 H 0.06063 0.04201 0.91288 0.0
H345 H 0.11443 0.10963 0.01261 0.0
H346 H 0.13199 0.07255 0.84963 0.0
H347 H 0.0971 0.09772 0.84298 0.0
H348 H 0.08278 0.04983 0.85145 0.0
H349 H 0.19804 0.15439 0.96894 0.0
H350 H 0.17072 0.1557 0.00984 0.0
H351 H 0.16438 0.18113 0.96772 0.0
C352 C 0.07395 0.97456 0.12317 0.0
C353 C 0.0857 0.98351 0.0863 0.0
C354 C 0.09395 0.95626 0.14829 0.0
C355 C 0.12646 0.94709 0.13619 0.0
C356 C 0.14048 0.95935 0.10065 0.0
C357 C 0.11983 0.97734 0.07605 0.0
C358 C 0.07824 0.94381 0.18607 0.0
C359 C 0.17538 0.95061 0.08694 0.0
C360 C 0.18784 0.90473 0.20427 0.0
C361 C 0.17433 0.86786 0.19286 0.0
C362 C 0.17211 0.93103 0.18666 0.0
C363 C 0.14216 0.91995 0.15725 0.0
C364 C 0.12792 0.88259 0.14635 0.0
C365 C 0.14431 0.85701 0.16423 0.0
C366 C 0.1881 0.97063 0.19876 0.0
C367 C 0.09584 0.86964 0.11521 0.0
H368 H 0.04763 0.97933 0.13131 0.0
H369 H 0.12935 0.98471 0.04779 0.0
H370 H 0.06439 0.91426 0.18323 0.0
H371 H 0.10112 0.94803 0.20982 0.0
H372 H 0.05703 0.9583 0.19427 0.0
H373 H 0.1859 0.967 0.06207 0.0
H374 H 0.19829 0.95547 0.11071 0.0
H375 H 0.1687 0.92142 0.07765 0.0
H376 H 0.21113 0.91308 0.22645 0.0
H377 H 0.13379 0.82847 0.15551 0.0
H378 H 0.16522 0.98304 0.20652 0.0
H379 H 0.20128 0.98559 0.17417 0.0
H380 H 0.20969 0.97452 0.22381 0.0
H381 H 0.07107 0.87945 0.12238 0.0
H382 H 0.087 0.83952 0.11146 0.0
H383 H 0.10451 0.88101 0.08715 0.0
C384 C 0.41736 0.92123 0.43309 0.0
C385 C 0.42686 0.91624 0.47207 0.0
C386 C 0.38999 0.8947 0.41098 0.0
C387 C 0.37204 0.86216 0.42822 0.0
C388 C 0.38281 0.85618 0.46712 0.0
C389 C 0.41002 0.88356 0.48879 0.0
C390 C 0.3794 0.90215 0.36951 0.0
C391 C 0.36485 0.82152 0.48618 0.0
C392 C 0.27654 0.82315 0.37529 0.0
C393 C 0.28593 0.80155 0.34637 0.0
C394 C 0.30368 0.84059 0.40485 0.0
C395 C 0.34072 0.83578 0.40549 0.0
C396 C 0.34891 0.8106 0.37899 0.0
C397 C 0.32139 0.79393 0.34943 0.0
C398 C 0.29376 0.86705 0.43281 0.0
C399 C 0.38771 0.80385 0.37955 0.0
H400 H 0.43052 0.94643 0.42008 0.0
H401 H 0.41761 0.87964 0.51894 0.0
H402 H 0.38332 0.88035 0.3497 0.0
H403 H 0.34914 0.90226 0.36589 0.0
H404 H 0.3965 0.92864 0.36045 0.0
H405 H 0.38118 0.8182 0.51359 0.0
H406 H 0.33593 0.82193 0.49293 0.0
H407 H 0.36234 0.79749 0.46646 0.0
H408 H 0.24891 0.82866 0.37324 0.0
H409 H 0.32846 0.77669 0.32739 0.0
H410 H 0.30725 0.89525 0.42514 0.0
H411 H 0.30463 0.86353 0.46282 0.0
H412 H 0.26279 0.86378 0.43208 0.0
H413 H 0.40704 0.82687 0.36646 0.0
H414 H 0.38727 0.77845 0.36284 0.0
H415 H 0.39946 0.80206 0.40969 0.0
C416 C 0.40299 0.17841 0.72048 0.0
C417 C 0.3722 0.16234 0.7411 0.0
C418 C 0.42447 0.15719 0.70408 0.0
C419 C 0.41556 0.11931 0.70966 0.0
C420 C 0.38718 0.10383 0.7342 0.0
C421 C 0.36514 0.12541 0.74891 0.0
C422 C 0.45393 0.17471 0.67752 0.0
C423 C 0.37817 0.06392 0.74246 0.0
C424 C 0.42142 0.05998 0.62275 0.0
C425 C 0.45681 0.05296 0.63034 0.0
C426 C 0.40793 0.08149 0.64846 0.0
C427 C 0.42975 0.09522 0.68355 0.0
C428 C 0.46497 0.08696 0.69225 0.0
C429 C 0.47856 0.06651 0.66496 0.0
C430 C 0.37071 0.09038 0.63737 0.0
C431 C 0.48849 0.10003 0.72989 0.0
H432 H 0.40845 0.20705 0.71457 0.0
H433 H 0.34164 0.11317 0.76545 0.0
H434 H 0.48041 0.16628 0.68416 0.0
H435 H 0.44353 0.1656 0.64711 0.0
H436 H 0.46045 0.20487 0.67976 0.0
H437 H 0.36162 0.05788 0.76811 0.0
H438 H 0.36133 0.04785 0.7171 0.0
H439 H 0.40447 0.05475 0.74748 0.0
H440 H 0.40474 0.04978 0.59577 0.0
H441 H 0.50595 0.06096 0.67078 0.0
H442 H 0.37473 0.12029 0.63756 0.0
H443 H 0.3502 0.07956 0.65875 0.0
H444 H 0.35816 0.07882 0.60821 0.0
H445 H 0.5036 0.12905 0.72821 0.0
H446 H 0.50989 0.08439 0.73614 0.0
H447 H 0.47046 0.09783 0.75445 0.0
C448 C 0.10558 0.87891 0.53831 0.0
C449 C 0.11442 0.91692 0.54199 0.0
C450 C 0.12894 0.85937 0.5572 0.0
C451 C 0.16215 0.8784 0.57981 0.0
C452 C 0.17208 0.91691 0.58198 0.0
C453 C 0.14792 0.9357 0.56329 0.0
C454 C 0.11707 0.81834 0.55457 0.0
C455 C 0.20745 0.93826 0.60533 0.0
C456 C 0.1963 0.8323 0.66621 0.0
C457 C 0.22583 0.81996 0.65196 0.0
C458 C 0.17526 0.85095 0.64285 0.0
C459 C 0.18431 0.85814 0.60437 0.0
C460 C 0.21433 0.84612 0.58981 0.0
C461 C 0.23453 0.82681 0.61369 0.0
C462 C 0.14309 0.86274 0.65937 0.0
C463 C 0.22522 0.85384 0.54915 0.0
H464 H 0.07965 0.86436 0.52185 0.0
H465 H 0.15492 0.96514 0.56598 0.0
H466 H 0.14066 0.8073 0.54615 0.0
H467 H 0.10976 0.80796 0.5834 0.0
H468 H 0.09223 0.80772 0.53335 0.0
H469 H 0.21322 0.96789 0.60068 0.0
H470 H 0.20451 0.93396 0.63661 0.0
H471 H 0.23217 0.92859 0.59769 0.0
H472 H 0.18906 0.82681 0.6956 0.0
H473 H 0.25737 0.81744 0.60254 0.0
H474 H 0.11639 0.85095 0.64118 0.0
H475 H 0.14835 0.89274 0.65909 0.0
H476 H 0.13917 0.85429 0.68957 0.0
H477 H 0.20092 0.84154 0.52792 0.0
H478 H 0.24955 0.84309 0.54235 0.0
H479 H 0.23265 0.8836 0.54524 0.0
C480 C 0.34554 0.8391 0.8031 0.0
C481 C 0.35414 0.83969 0.76448 0.0
C482 C 0.3634 0.86754 0.82942 0.0
C483 C 0.3921 0.89639 0.81725 0.0
C484 C 0.40101 0.89732 0.7782 0.0
C485 C 0.3814 0.869 0.75195 0.0
C486 C 0.35229 0.86602 0.87058 0.0
C487 C 0.43219 0.92725 0.76465 0.0
C488 C 0.41754 0.97596 0.88944 0.0
C489 C 0.44455 0.96577 0.9144 0.0
C490 C 0.40183 0.95495 0.85571 0.0
C491 C 0.41424 0.92368 0.84665 0.0
C492 C 0.4437 0.91507 0.87024 0.0
C493 C 0.45793 0.93587 0.90434 0.0
C494 C 0.36993 0.96454 0.83166 0.0
C495 C 0.45838 0.88244 0.861 0.0
H496 H 0.32518 0.81601 0.81306 0.0
H497 H 0.38825 0.8692 0.72207 0.0
H498 H 0.37571 0.86145 0.89036 0.0
H499 H 0.34689 0.8922 0.87991 0.0
H500 H 0.32658 0.84389 0.87398 0.0
H501 H 0.43297 0.92603 0.73268 0.0
H502 H 0.42886 0.95429 0.77383 0.0
H503 H 0.45979 0.92486 0.77821 0.0
H504 H 0.40734 -0.00067 0.89719 0.0
H505 H 0.47865 0.92805 0.92373 0.0
H506 H 0.34284 0.94528 0.83724 0.0
H507 H 0.37339 0.96201 0.80031 0.0
H508 H 0.36795 0.99259 0.83874 0.0
H509 H 0.43749 0.85729 0.86797 0.0
H510 H 0.48562 0.88349 0.87792 0.0
H511 H 0.46239 0.8805 0.82969 0.0
C512 C 0.38975 0.06872 0.08526 0.0
C513 C 0.42787 0.08453 0.08011 0.0
C514 C 0.36763 0.08804 0.10411 0.0
C515 C 0.3838 0.12433 0.11827 0.0
C516 C 0.42237 0.14045 0.1132 0.0
C517 C 0.4439 0.12039 0.09427 0.0
C518 C 0.32684 0.06953 0.1089 0.0
C519 C 0.4409 0.17896 0.12775 0.0
C520 C 0.31725 0.18485 0.138 0.0
C521 C 0.31583 0.1835 0.17837 0.0
C522 C 0.33928 0.16599 0.11816 0.0
C523 C 0.36049 0.14502 0.13896 0.0
C524 C 0.3589 0.14331 0.17963 0.0
C525 C 0.33677 0.16247 0.19871 0.0
C526 C 0.34004 0.16868 0.07484 0.0
C527 C 0.3807 0.12124 0.20314 0.0
H528 H 0.37704 0.04105 0.07442 0.0
H529 H 0.47328 0.13287 0.09038 0.0
H530 H 0.32196 0.0687 0.1401 0.0
H531 H 0.3082 0.08523 0.09487 0.0
H532 H 0.31838 0.0413 0.09617 0.0
H533 H 0.47092 0.18778 0.12126 0.0
H534 H 0.42545 0.1978 0.11434 0.0
H535 H 0.43955 0.18144 0.15953 0.0
H536 H 0.3015 0.20106 0.12186 0.0
H537 H 0.33609 0.16104 0.22985 0.0
H538 H 0.32991 0.14121 0.0605 0.0
H539 H 0.36945 0.17995 0.06743 0.0
H540 H 0.32224 0.18618 0.06282 0.0
H541 H 0.37165 0.09233 0.19269 0.0
H542 H 0.37668 0.12275 0.23453 0.0
H543 H 0.41127 0.13102 0.19937 0.0
C544 C 0.10664 0.04688 0.39638 0.0
C545 C 0.07193 0.05334 0.4045 0.0
C546 C 0.12908 0.06753 0.36963 0.0
C547 C 0.1167 0.09551 0.35058 0.0
C548 C 0.08125 0.1015 0.35781 0.0
C549 C 0.05928 0.08032 0.38453 0.0
C550 C 0.16655 0.06007 0.36258 0.0
C551 C 0.06703 0.13113 0.33824 0.0
C552 C 0.18927 0.17631 0.31641 0.0
C553 C 0.18583 0.16924 0.27624 0.0
C554 C 0.16751 0.15219 0.34092 0.0
C555 C 0.14172 0.12001 0.32495 0.0
C556 C 0.13902 0.11212 0.2845 0.0
C557 C 0.16104 0.13691 0.26059 0.0
C558 C 0.17138 0.16171 0.38383 0.0
C559 C 0.11224 0.07791 0.26638 0.0
H560 H 0.11672 0.02604 0.41141 0.0
H561 H 0.03258 0.08563 0.39045 0.0
H562 H 0.16857 0.05603 0.33109 0.0
H563 H 0.18986 0.08384 0.37312 0.0
H564 H 0.17088 0.0357 0.37745 0.0
H565 H 0.0381 0.13118 0.34548 0.0
H566 H 0.0863 0.15802 0.34722 0.0
H567 H 0.06688 0.12784 0.30635 0.0
H568 H 0.20839 0.20124 0.32871 0.0
H569 H 0.15836 0.13127 0.22956 0.0
H570 H 0.17832 0.1393 0.40039 0.0
H571 H 0.14414 0.16514 0.39295 0.0
H572 H 0.19361 0.18714 0.39181 0.0
H573 H 0.11734 0.05373 0.28098 0.0
H574 H 0.11515 0.07463 0.23493 0.0
H575 H 0.08271 0.0785 0.27032 0.0
C576 C 0.79335 0.15105 0.13507 0.0
C577 C 0.81043 0.1743 0.16679 0.0
C578 C 0.81382 0.13048 0.11601 0.0
C579 C 0.85192 0.13344 0.12937 0.0
C580 C 0.86921 0.1571 0.16128 0.0
C581 C 0.84823 0.17739 0.17952 0.0
C582 C 0.79481 0.10558 0.08182 0.0
C583 C 0.9098 0.16083 0.17635 0.0
C584 C 0.90156 0.06073 0.10706 0.0
C585 C 0.92453 0.07729 0.07879 0.0
C586 C 0.87649 0.07816 0.12292 0.0
C587 C 0.87443 0.1126 0.10972 0.0
C588 C 0.89679 0.12884 0.0803 0.0
C589 C 0.92184 0.11101 0.06533 0.0
C590 C 0.85322 0.06037 0.1546 0.0
C591 C 0.89509 0.16549 0.06548 0.0
H592 H 0.76402 0.1487 0.12543 0.0
H593 H 0.86134 0.19531 0.20424 0.0
H594 H 0.81018 0.11355 0.05576 0.0
H595 H 0.79574 0.07723 0.0875 0.0
H596 H 0.76488 0.1062 0.07537 0.0
H597 H 0.91866 0.18001 0.20198 0.0
H598 H 0.91378 0.13394 0.18455 0.0
H599 H 0.9288 0.17063 0.15333 0.0
H600 H 0.90357 0.03445 0.11713 0.0
H601 H 0.93936 0.12353 0.04304 0.0
H602 H 0.82298 0.05924 0.14743 0.0
H603 H 0.86236 0.07682 0.1821 0.0
H604 H 0.856 0.03235 0.15938 0.0
H605 H 0.86542 0.16576 0.05701 0.0
H606 H 0.91187 0.17276 0.04017 0.0
H607 H 0.90611 0.1868 0.08882 0.0
C608 C 0.03145 0.61438 0.41205 0.0
C609 C 0.02428 0.57721 0.4021 0.0
C610 C 0.0486 0.64043 0.38672 0.0
C611 C 0.05859 0.62876 0.35092 0.0
C612 C 0.04626 0.59172 0.33851 0.0
C613 C 0.02941 0.5662 0.36447 0.0
C614 C 0.06015 0.67995 0.40024 0.0
C615 C 0.05486 0.57859 0.29967 0.0
C616 C 0.11352 0.6978 0.28546 0.0
C617 C 0.15065 0.69695 0.29741 0.0
C618 C 0.08281 0.67582 0.30253 0.0
C619 C 0.08975 0.65278 0.33215 0.0
C620 C 0.12726 0.6522 0.34449 0.0
C621 C 0.15718 0.6742 0.32686 0.0
C622 C 0.04325 0.67661 0.28792 0.0
C623 C 0.13596 0.6282 0.37629 0.0
H624 H 0.02662 0.62316 0.44076 0.0
H625 H 0.0226 0.53751 0.35609 0.0
H626 H 0.09068 0.68761 0.41013 0.0
H627 H 0.05569 0.69758 0.37619 0.0
H628 H 0.04417 0.68537 0.42469 0.0
H629 H 0.0374 0.5507 0.29142 0.0
H630 H 0.04993 0.59719 0.27679 0.0
H631 H 0.08506 0.57826 0.30091 0.0
H632 H 0.10839 0.71513 0.26235 0.0
H633 H 0.18585 0.6737 0.3364 0.0
H634 H 0.02395 0.67261 0.31145 0.0
H635 H 0.03204 0.65425 0.26572 0.0
H636 H 0.04285 0.70261 0.27415 0.0
H637 H 0.12408 0.63462 0.40327 0.0
H638 H 0.16677 0.63153 0.38273 0.0
H639 H 0.12268 0.59924 0.36782 0.0
C640 C 0.58817 0.90782 0.52356 0.0
C641 C 0.57036 0.92714 0.54786 0.0
C642 C 0.60932 0.88434 0.53865 0.0
C643 C 0.61279 0.87978 0.5791 0.0
C644 C 0.59473 0.89901 0.60379 0.0
C645 C 0.57385 0.92242 0.58794 0.0
C646 C 0.62819 0.86456 0.51126 0.0
C647 C 0.59756 0.89494 0.64707 0.0
C648 C 0.64009 0.79616 0.61885 0.0
C649 C 0.67821 0.81046 0.63181 0.0
C650 C 0.61864 0.81817 0.60098 0.0
C651 C 0.63573 0.85539 0.59577 0.0
C652 C 0.67458 0.8696 0.60771 0.0
C653 C 0.69526 0.84703 0.62563 0.0
C654 C 0.57737 0.80185 0.58874 0.0
C655 C 0.69409 0.90897 0.60255 0.0
H656 H 0.58579 0.91112 0.49257 0.0
H657 H 0.56024 0.93704 0.60708 0.0
H658 H 0.65916 0.87216 0.51876 0.0
H659 H 0.61814 0.83479 0.51423 0.0
H660 H 0.62258 0.87078 0.48054 0.0
H661 H 0.58145 0.9113 0.66228 0.0
H662 H 0.58674 0.86598 0.65375 0.0
H663 H 0.62757 0.90357 0.65882 0.0
H664 H 0.62669 0.76798 0.62373 0.0
H665 H 0.72471 0.85829 0.63564 0.0
H666 H 0.57116 0.80656 0.55773 0.0
H667 H 0.55985 0.81534 0.60563 0.0
H668 H 0.5687 0.77216 0.59312 0.0
H669 H 0.69011 0.91582 0.57183 0.0
H670 H 0.72484 0.91534 0.61141 0.0
H671 H 0.68133 0.92672 0.62009 0.0
C672 C 0.43911 0.41994 0.88843 0.0
C673 C 0.44044 0.44014 0.92274 0.0
C674 C 0.40439 0.40082 0.87009 0.0
C675 C 0.37067 0.40221 0.88692 0.0
C676 C 0.37188 0.42651 0.91852 0.0
C677 C 0.40699 0.44499 0.93647 0.0
C678 C 0.40418 0.37606 0.8353 0.0
C679 C 0.33669 0.43042 0.93607 0.0
C680 C 0.29665 0.33979 0.82288 0.0
C681 C 0.30148 0.30706 0.83752 0.0
C682 C 0.31416 0.37275 0.84278 0.0
C683 C 0.33695 0.37216 0.87725 0.0
C684 C 0.33531 0.33897 0.89564 0.0
C685 C 0.31756 0.30642 0.87518 0.0
C686 C 0.31286 0.40785 0.82404 0.0
C687 C 0.35735 0.33754 0.93393 0.0
H688 H 0.46512 0.41702 0.87749 0.0
H689 H 0.40798 0.461 0.96295 0.0
H690 H 0.39552 0.34727 0.84342 0.0
H691 H 0.38362 0.38002 0.81173 0.0
H692 H 0.43239 0.38093 0.82387 0.0
H693 H 0.33981 0.45918 0.94563 0.0
H694 H 0.31107 0.4214 0.9156 0.0
H695 H 0.33261 0.41392 0.96214 0.0
H696 H 0.28279 0.34008 0.7942 0.0
H697 H 0.31973 0.2808 0.88702 0.0
H698 H 0.33599 0.41521 0.80459 0.0
H699 H 0.3166 0.43043 0.846 0.0
H700 H 0.28569 0.40488 0.80626 0.0
H701 H 0.38791 0.34332 0.92965 0.0
H702 H 0.34867 0.31045 0.94664 0.0
H703 H 0.35341 0.35841 0.95491 0.0
C704 C 0.80302 0.84416 0.31214 0.0
C705 C 0.80575 0.81055 0.32612 0.0
C706 C 0.8221 0.87647 0.33254 0.0
C707 C 0.84464 0.87453 0.36687 0.0
C708 C 0.84285 0.84059 0.3837 0.0
C709 C 0.82322 0.80879 0.36294 0.0
C710 C 0.82144 0.91229 0.31508 0.0
C711 C 0.86552 0.83752 0.42118 0.0
C712 C 0.94511 0.92646 0.38541 0.0
C713 C 0.94368 0.94379 0.42092 0.0
C714 C 0.91188 0.90698 0.36454 0.0
C715 C 0.87678 0.90526 0.37984 0.0
C716 C 0.87508 0.92684 0.41295 0.0
C717 C 0.90881 0.94549 0.43363 0.0
C718 C 0.91476 0.88493 0.32861 0.0
C719 C 0.83814 0.92737 0.42892 0.0
H720 H 0.78858 0.84544 0.28393 0.0
H721 H 0.8242 0.78262 0.37412 0.0
H722 H 0.82576 0.93439 0.33771 0.0
H723 H 0.84444 0.91979 0.2955 0.0
H724 H 0.79427 0.91027 0.29763 0.0
H725 H 0.85783 0.80961 0.43214 0.0
H726 H 0.89604 0.84464 0.41658 0.0
H727 H 0.86113 0.85675 0.44379 0.0
H728 H 0.97221 0.92595 0.37532 0.0
H729 H 0.90767 0.95906 0.46114 0.0
H730 H 0.8946 0.88902 0.30471 0.0
H731 H 0.90739 0.85558 0.33475 0.0
H732 H 0.94363 0.89222 0.3186 0.0
H733 H 0.83999 0.9542 0.44337 0.0
H734 H 0.83177 0.90651 0.45098 0.0
H735 H 0.81439 0.92147 0.40596 0.0
C736 C 0.43661 0.5973 0.51408 0.0
C737 C 0.45608 0.57991 0.54081 0.0
C738 C 0.41654 0.62158 0.52658 0.0
C739 C 0.41606 0.62862 0.5667 0.0
C740 C 0.43669 0.61217 0.59379 0.0
C741 C 0.45646 0.58794 0.5805 0.0
C742 C 0.3948 0.63864 0.49691 0.0
C743 C 0.43696 0.61933 0.63688 0.0
C744 C 0.38715 0.71002 0.60613 0.0
C745 C 0.35098 0.69357 0.6168 0.0
C746 C 0.40827 0.68943 0.58817 0.0
C747 C 0.39253 0.65174 0.58068 0.0
C748 C 0.35512 0.63551 0.58933 0.0
C749 C 0.33475 0.65671 0.60743 0.0
C750 C 0.44805 0.70759 0.57914 0.0
C751 C 0.33731 0.59542 0.58132 0.0
H752 H 0.43621 0.59135 0.4833 0.0
H753 H 0.47159 0.57477 0.6013 0.0
H754 H 0.36406 0.62749 0.49887 0.0
H755 H 0.40114 0.66845 0.50268 0.0
H756 H 0.40137 0.63336 0.4669 0.0
H757 H 0.45599 0.60583 0.65397 0.0
H758 H 0.44609 0.64898 0.64404 0.0
H759 H 0.40798 0.60931 0.64603 0.0
H760 H 0.39962 0.73862 0.61336 0.0
H761 H 0.30664 0.64411 0.61554 0.0
H762 H 0.45238 0.70073 0.54885 0.0
H763 H 0.46839 0.69741 0.59832 0.0
H764 H 0.45473 0.73764 0.58334 0.0
H765 H 0.34002 0.58759 0.55086 0.0
H766 H 0.30694 0.58777 0.5867 0.0
H767 H 0.35229 0.57942 0.60016 0.0
C768 C 0.54655 0.06366 0.87565 0.0
C769 C 0.546 0.07663 0.9137 0.0
C770 C 0.56685 0.08589 0.84897 0.0
C771 C 0.58721 0.12163 0.86101 0.0
C772 C 0.58319 0.13609 0.89797 0.0
C773 C 0.56237 0.11328 0.92404 0.0
C774 C 0.56971 0.06978 0.80944 0.0
C775 C 0.60404 0.17437 0.91144 0.0
C776 C 0.68391 0.15349 0.8251 0.0
C777 C 0.67796 0.17796 0.79725 0.0
C778 C 0.65436 0.13488 0.84582 0.0
C779 C 0.61801 0.14091 0.83839 0.0
C780 C 0.61152 0.16496 0.80976 0.0
C781 C 0.64171 0.18337 0.78953 0.0
C782 C 0.66217 0.10896 0.87593 0.0
C783 C 0.573 0.17171 0.80098 0.0
H784 H 0.53297 0.03547 0.86737 0.0
H785 H 0.56157 0.12339 0.95338 0.0
H786 H 0.56981 0.08993 0.78679 0.0
H787 H 0.59663 0.06156 0.80946 0.0
H788 H 0.54609 0.04538 0.8016 0.0
H789 H 0.59288 0.1834 0.93779 0.0
H790 H 0.63436 0.17561 0.9183 0.0
H791 H 0.60215 0.19367 0.88832 0.0
H792 H 0.7118 0.14913 0.83112 0.0
H793 H 0.6369 0.20224 0.76794 0.0
H794 H 0.64362 0.08133 0.86891 0.0
H795 H 0.65576 0.11784 0.90479 0.0
H796 H 0.692 0.10725 0.87791 0.0
H797 H 0.55096 0.14563 0.79691 0.0
H798 H 0.57162 0.18761 0.77465 0.0
H799 H 0.56606 0.18696 0.82584 0.0
C800 C 0.09153 0.40821 0.02237 0.0
C801 C 0.07522 0.42857 0.04709 0.0
C802 C 0.11273 0.38471 0.03712 0.0
C803 C 0.11761 0.38112 0.07763 0.0
C804 C 0.10113 0.40146 0.10276 0.0
C805 C 0.0803 0.42501 0.08723 0.0
C806 C 0.13008 0.36384 0.00931 0.0
C807 C 0.10549 0.39832 0.14613 0.0
C808 C 0.14348 0.29706 0.11745 0.0
C809 C 0.18195 0.31069 0.12921 0.0
C810 C 0.12233 0.31946 0.09994 0.0
C811 C 0.14016 0.35631 0.09383 0.0
C812 C 0.17936 0.36976 0.10436 0.0
C813 C 0.19972 0.34684 0.12204 0.0
C814 C 0.08063 0.30404 0.08921 0.0
C815 C 0.19963 0.40869 0.09803 0.0
H816 H 0.08803 0.41079 0.99132 0.0
H817 H 0.06781 0.44049 0.10661 0.0
H818 H 0.16115 0.3706 0.01596 0.0
H819 H 0.11926 0.33421 0.01275 0.0
H820 H 0.12392 0.36985 0.97863 0.0
H821 H 0.09059 0.4156 0.16171 0.0
H822 H 0.09424 0.36965 0.15369 0.0
H823 H 0.13584 0.40639 0.1567 0.0
H824 H 0.12956 0.26921 0.12315 0.0
H825 H 0.22946 0.35753 0.13114 0.0
H826 H 0.07358 0.30837 0.05829 0.0
H827 H 0.06428 0.31845 0.10659 0.0
H828 H 0.07135 0.2745 0.09423 0.0
H829 H 0.19463 0.41517 0.06734 0.0
H830 H 0.23056 0.4143 0.10558 0.0
H831 H 0.1883 0.42728 0.11602 0.0
C832 C 0.61134 0.54128 0.89708 0.0
C833 C 0.57599 0.5469 0.90399 0.0
C834 C 0.63401 0.56216 0.87052 0.0
C835 C 0.62123 0.58954 0.85062 0.0
C836 C 0.58519 0.59462 0.85672 0.0
C837 C 0.56305 0.57323 0.88307 0.0
C838 C 0.67206 0.55559 0.86452 0.0
C839 C 0.57047 0.62362 0.83639 0.0
C840 C 0.69042 0.67292 0.81666 0.0
C841 C 0.68666 0.66636 0.77639 0.0
C842 C 0.67039 0.64754 0.84122 0.0
C843 C 0.64613 0.61452 0.82522 0.0
C844 C 0.64351 0.60704 0.78469 0.0
C845 C 0.66365 0.63316 0.76072 0.0
C846 C 0.67397 0.65681 0.88417 0.0
C847 C 0.61844 0.57199 0.7665 0.0
H848 H 0.62166 0.52101 0.91292 0.0
H849 H 0.53584 0.57794 0.88794 0.0
H850 H 0.6749 0.55171 0.83317 0.0
H851 H 0.69475 0.57971 0.87548 0.0
H852 H 0.67661 0.53142 0.87964 0.0
H853 H 0.54128 0.6232 0.84313 0.0
H854 H 0.58916 0.65083 0.84518 0.0
H855 H 0.57071 0.61999 0.80458 0.0
H856 H 0.70821 0.6985 0.82901 0.0
H857 H 0.66084 0.62785 0.72963 0.0
H858 H 0.68133 0.63458 0.9007 0.0
H859 H 0.64647 0.65967 0.89316 0.0
H860 H 0.69575 0.68252 0.89229 0.0
H861 H 0.62411 0.5484 0.78187 0.0
H862 H 0.62251 0.5686 0.73533 0.0
H863 H 0.58842 0.57151 0.7692 0.0
C864 C 0.68654 0.29778 0.14842 0.0
C865 C 0.67458 0.29315 0.18594 0.0
C866 C 0.67187 0.31943 0.12227 0.0
C867 C 0.64415 0.3366 0.13361 0.0
C868 C 0.63157 0.33169 0.17124 0.0
C869 C 0.64711 0.31025 0.19703 0.0
C870 C 0.68635 0.32426 0.08261 0.0
C871 C 0.60166 0.34912 0.18426 0.0
C872 C 0.6289 0.41934 0.0812 0.0
C873 C 0.59695 0.40393 0.05588 0.0
C874 C 0.64501 0.39765 0.10612 0.0
C875 C 0.62838 0.35974 0.10613 0.0
C876 C 0.5964 0.34402 0.08016 0.0
C877 C 0.58125 0.36628 0.05515 0.0
C878 C 0.67946 0.4154 0.13289 0.0
C879 C 0.57757 0.30383 0.07952 0.0
H880 H 0.70794 0.28494 0.13957 0.0
H881 H 0.63757 0.30678 0.22585 0.0
H882 H 0.66269 0.31463 0.05991 0.0
H883 H 0.69874 0.35352 0.07832 0.0
H884 H 0.70812 0.30922 0.0783 0.0
H885 H 0.61158 0.37912 0.1833 0.0
H886 H 0.57566 0.34037 0.16426 0.0
H887 H 0.59437 0.34206 0.21413 0.0
H888 H 0.64104 0.44847 0.08188 0.0
H889 H 0.55634 0.35432 0.03583 0.0
H890 H 0.70251 0.40202 0.12856 0.0
H891 H 0.67274 0.41197 0.16345 0.0
H892 H 0.68992 0.4449 0.12819 0.0
H893 H 0.59821 0.28791 0.07374 0.0
H894 H 0.55328 0.29575 0.05721 0.0
H895 H 0.56736 0.29631 0.10826 0.0
C896 C 0.89451 0.465 0.39747 0.0
C897 C 0.92525 0.45619 0.41775 0.0
C898 C 0.87094 0.44036 0.37011 0.0
C899 C 0.87886 0.40651 0.36263 0.0
C900 C 0.91128 0.39845 0.38127 0.0
C901 C 0.934 0.42338 0.40903 0.0
C902 C 0.83638 0.44966 0.35102 0.0
C903 C 0.92094 0.36282 0.37332 0.0
C904 C 0.79854 0.32438 0.33416 0.0
C905 C 0.80121 0.32095 0.2943 0.0
C906 C 0.82294 0.35297 0.3565 0.0
C907 C 0.85119 0.37806 0.33853 0.0
C908 C 0.85352 0.37521 0.2981 0.0
C909 C 0.8281 0.34675 0.27629 0.0
C910 C 0.81911 0.35572 0.39949 0.0
C911 C 0.88366 0.40131 0.27822 0.0
H912 H 0.88793 0.49058 0.4041 0.0
H913 H 0.9579 0.41674 0.42467 0.0
H914 H 0.83448 0.44461 0.31921 0.0
H915 H 0.81065 0.4319 0.36178 0.0
H916 H 0.83637 0.47845 0.35711 0.0
H917 H 0.94948 0.36275 0.38648 0.0
H918 H 0.89991 0.34039 0.38533 0.0
H919 H 0.91972 0.35701 0.34167 0.0
H920 H 0.77792 0.30424 0.34808 0.0
H921 H 0.83023 0.34394 0.24541 0.0
H922 H 0.81693 0.38334 0.40804 0.0
H923 H 0.84463 0.35124 0.41581 0.0
H924 H 0.79396 0.33551 0.40833 0.0
H925 H 0.8832 0.42979 0.28511 0.0
H926 H 0.88021 0.39658 0.24625 0.0
H927 H 0.91189 0.39829 0.28905 0.0
C928 C 0.57652 0.55902 0.42099 0.0
C929 C 0.58104 0.56926 0.46047 0.0
C930 C 0.59688 0.58138 0.39428 0.0
C931 C 0.62299 0.61428 0.40763 0.0
C932 C 0.62761 0.62479 0.44751 0.0
C933 C 0.60629 0.6022 0.47349 0.0
C934 C 0.59074 0.56959 0.35186 0.0
C935 C 0.65553 0.65952 0.46279 0.0
C936 C 0.70232 0.65242 0.34458 0.0
C937 C 0.68979 0.68046 0.32679 0.0
C938 C 0.681 0.6309 0.37132 0.0
C939 C 0.64611 0.63728 0.37994 0.0
C940 C 0.63317 0.66537 0.36188 0.0
C941 C 0.65533 0.68683 0.33572 0.0
C942 C 0.69584 0.6014 0.39041 0.0
C943 C 0.59577 0.67251 0.36993 0.0
H944 H 0.55729 0.53333 0.41095 0.0
H945 H 0.60986 0.61006 0.50408 0.0
H946 H 0.58336 0.5913 0.33443 0.0
H947 H 0.61719 0.56507 0.34175 0.0
H948 H 0.56792 0.54418 0.34605 0.0
H949 H 0.65544 0.66391 0.49458 0.0
H950 H 0.68443 0.65883 0.45617 0.0
H951 H 0.64897 0.68314 0.44824 0.0
H952 H 0.72904 0.64754 0.33798 0.0
H953 H 0.64536 0.70831 0.32184 0.0
H954 H 0.67576 0.57453 0.38331 0.0
H955 H 0.6983 0.6058 0.42236 0.0
H956 H 0.72389 0.60049 0.38115 0.0
H957 H 0.57258 0.64777 0.36227 0.0
H958 H 0.58976 0.69538 0.35339 0.0
H959 H 0.5955 0.67891 0.40127 0.0
C960 C 0.85105 0.28289 0.84418 0.0
C961 C 0.81334 0.28472 0.84258 0.0
C962 C 0.8775 0.30221 0.87343 0.0
C963 C 0.86586 0.32423 0.90097 0.0
C964 C 0.82713 0.3233 0.90152 0.0
C965 C 0.80123 0.3032 0.87244 0.0
C966 C 0.91834 0.30149 0.8728 0.0
C967 C 0.81353 0.34646 0.93033 0.0
C968 C 0.9281 0.37781 0.98588 0.0
C969 C 0.93959 0.41207 0.97019 0.0
C970 C 0.9058 0.34803 0.96306 0.0
C971 C 0.89423 0.35316 0.92414 0.0
C972 C 0.90706 0.38747 0.90792 0.0
C973 C 0.92985 0.41642 0.93111 0.0
C974 C 0.8936 0.31157 0.98094 0.0
C975 C 0.89525 0.39419 0.86656 0.0
H976 H 0.86035 0.26813 0.82138 0.0
H977 H 0.77193 0.30417 0.87157 0.0
H978 H 0.93411 0.32627 0.85926 0.0
H979 H 0.93162 0.30132 0.90262 0.0
H980 H 0.92133 0.27738 0.85585 0.0
H981 H 0.78224 0.33938 0.92977 0.0
H982 H 0.82535 0.34347 0.96012 0.0
H983 H 0.82348 0.3755 0.92347 0.0
H984 H 0.93609 0.37441 0.01606 0.0
H985 H 0.93889 0.4429 0.91893 0.0
H986 H 0.89564 0.28935 0.96058 0.0
H987 H 0.86367 0.30659 0.98741 0.0
H988 H 0.91089 0.31027 0.00836 0.0
H989 H 0.90288 0.37468 0.84639 0.0
H990 H 0.90865 0.42221 0.85819 0.0
H991 H 0.86413 0.38984 0.8627 0.0
C992 C 0.84814 0.80588 0.14886 0.0
C993 C 0.81533 0.81361 0.16091 0.0
C994 C 0.86866 0.82669 0.12117 0.0
C995 C 0.85578 0.85563 0.10491 0.0
C996 C 0.82212 0.86294 0.1161 0.0
C997 C 0.80237 0.84194 0.14419 0.0
C998 C 0.90472 0.81839 0.11019 0.0
C999 C 0.80744 0.89339 0.09901 0.0
C1000 C 0.93205 0.9311 0.06946 0.0
C1001 C 0.92937 0.9217 0.02985 0.0
C1002 C 0.90738 0.91043 0.094 0.0
C1003 C 0.87919 0.87981 0.0784 0.0
C1004 C 0.87517 0.87116 0.03809 0.0
C1005 C 0.90055 0.89222 0.01419 0.0
C1006 C 0.91263 0.92044 0.13688 0.0
C1007 C 0.84498 0.83898 0.0205 0.0
H1008 H 0.85829 0.784 0.16161 0.0
H1009 H 0.77676 0.84778 0.15302 0.0
H1010 H 0.9037 0.81396 0.07834 0.0
H1011 H 0.92903 0.84192 0.11876 0.0
H1012 H 0.90993 0.79396 0.12426 0.0
H1013 H 0.77931 0.89367 0.10854 0.0
H1014 H 0.82749 0.91992 0.10779 0.0
H1015 H 0.80527 0.89087 0.06692 0.0
H1016 H 0.95435 0.95391 0.08163 0.0
H1017 H 0.89841 0.88513 0.98348 0.0
H1018 H 0.92097 0.89844 0.15303 0.0
H1019 H 0.88571 0.92328 0.14739 0.0
H1020 H 0.9346 0.94624 0.14395 0.0
H1021 H 0.851 0.81344 0.03074 0.0
H1022 H 0.84333 0.83806 0.98834 0.0
H1023 H 0.81702 0.83982 0.02993 0.0
C1024 C 0.877 0.1444 0.82303 0.0
C1025 C 0.84666 0.1337 0.79473 0.0
C1026 C 0.89281 0.1186 0.8413 0.0
C1027 C 0.87769 0.08119 0.8311 0.0
C1028 C 0.84768 0.07028 0.80173 0.0
C1029 C 0.8325 0.09678 0.78379 0.0
C1030 C 0.92498 0.13135 0.87236 0.0
C1031 C 0.83085 0.03067 0.7902 0.0
C1032 C 0.94251 0.02404 0.86807 0.0
C1033 C 0.92972 0.01594 0.90473 0.0
C1034 C 0.92403 0.04302 0.84217 0.0
C1035 C 0.89202 0.05381 0.85327 0.0
C1036 C 0.87695 0.04255 0.88866 0.0
C1037 C 0.89607 0.02382 0.91402 0.0
C1038 C 0.94076 0.05426 0.80453 0.0
C1039 C 0.84251 0.05299 0.9013 0.0
H1040 H 0.88805 0.17298 0.83137 0.0
H1041 H 0.80899 0.08852 0.76183 0.0
H1042 H 0.91591 0.1209 0.90065 0.0
H1043 H 0.94922 0.12045 0.86573 0.0
H1044 H 0.93476 0.16147 0.87534 0.0
H1045 H 0.81001 0.02694 0.7645 0.0
H1046 H 0.85338 0.01728 0.78371 0.0
H1047 H 0.8165 0.01654 0.81464 0.0
H1048 H 0.96848 0.01798 0.86067 0.0
H1049 H 0.88574 0.01713 0.94212 0.0
H1050 H 0.95571 0.08356 0.80702 0.0
H1051 H 0.91831 0.05052 0.78038 0.0
H1052 H 0.96124 0.03862 0.79715 0.0
H1053 H 0.84995 0.08251 0.90925 0.0
H1054 H 0.83136 0.03788 0.92673 0.0
H1055 H 0.81978 0.04784 0.87732 0.0
C1056 C 0.73965 0.17431 0.61562 0.0
C1057 C 0.73069 0.19655 0.64421 0.0
C1058 C 0.71209 0.15615 0.58676 0.0
C1059 C 0.67505 0.1609 0.58641 0.0
C1060 C 0.66713 0.18645 0.61268 0.0
C1061 C 0.69506 0.2038 0.64158 0.0
C1062 C 0.72171 0.12923 0.55914 0.0
C1063 C 0.62831 0.19312 0.61244 0.0
C1064 C 0.60547 0.11349 0.50315 0.0
C1065 C 0.58823 0.08094 0.51989 0.0
C1066 C 0.63292 0.14067 0.52481 0.0
C1067 C 0.64359 0.13461 0.56371 0.0
C1068 C 0.62535 0.10217 0.58094 0.0
C1069 C 0.59768 0.07586 0.55886 0.0
C1070 C 0.65115 0.17527 0.50579 0.0
C1071 C 0.63593 0.09461 0.62238 0.0
H1072 H 0.76737 0.16901 0.61737 0.0
H1073 H 0.6883 0.22148 0.66339 0.0
H1074 H 0.70812 0.10119 0.56722 0.0
H1075 H 0.71071 0.13241 0.52908 0.0
H1076 H 0.75264 0.13231 0.55973 0.0
H1077 H 0.62883 0.21861 0.629 0.0
H1078 H 0.61626 0.19466 0.58236 0.0
H1079 H 0.60917 0.17017 0.62584 0.0
H1080 H 0.5979 0.11749 0.47302 0.0
H1081 H 0.58427 0.05073 0.57185 0.0
H1082 H 0.68047 0.17523 0.50022 0.0
H1083 H 0.65271 0.19933 0.52514 0.0
H1084 H 0.63557 0.17824 0.47779 0.0
H1085 H 0.66612 0.09424 0.6259 0.0
H1086 H 0.61864 0.0682 0.63144 0.0
H1087 H 0.63228 0.1165 0.64223 0.0
C1088 C 0.57164 0.95908 0.33394 0.0
C1089 C 0.54537 0.9402 0.3583 0.0
C1090 C 0.5905 0.94036 0.31027 0.0
C1091 C 0.58324 0.90207 0.31171 0.0
C1092 C 0.55419 0.88278 0.33357 0.0
C1093 C 0.53539 0.90214 0.35646 0.0
C1094 C 0.62041 0.9618 0.28634 0.0
C1095 C 0.54546 0.84195 0.33586 0.0
C1096 C 0.62756 0.8451 0.24719 0.0
C1097 C 0.65861 0.84187 0.27173 0.0
C1098 C 0.60328 0.86575 0.25909 0.0
C1099 C 0.61014 0.88298 0.29651 0.0
C1100 C 0.64203 0.88039 0.32094 0.0
C1101 C 0.66597 0.86004 0.30812 0.0
C1102 C 0.56988 0.86838 0.2321 0.0
C1103 C 0.65026 0.89816 0.3612 0.0
H1104 H 0.579 0.98855 0.33497 0.0
H1105 H 0.51478 0.88748 0.37502 0.0
H1106 H 0.64876 0.96288 0.30068 0.0
H1107 H 0.61853 0.94848 0.2572 0.0
H1108 H 0.61799 0.99011 0.28295 0.0
H1109 H 0.51871 0.83075 0.34936 0.0
H1110 H 0.54339 0.82875 0.30665 0.0
H1111 H 0.56875 0.8346 0.3535 0.0
H1112 H 0.62196 0.83113 0.21893 0.0
H1113 H 0.69003 0.85763 0.32708 0.0
H1114 H 0.56872 0.89714 0.22992 0.0
H1115 H 0.54333 0.85343 0.24379 0.0
H1116 H 0.57086 0.85686 0.20258 0.0
H1117 H 0.65286 0.92778 0.35978 0.0
H1118 H 0.67668 0.89414 0.37614 0.0
H1119 H 0.62655 0.88673 0.379 0.0
C1120 C 0.77978 0.1728 0.3861 0.0
C1121 C 0.78273 0.17404 0.34601 0.0
C1122 C 0.80187 0.15499 0.4097 0.0
C1123 C 0.82802 0.13879 0.39286 0.0
C1124 C 0.83118 0.14022 0.35246 0.0
C1125 C 0.80834 0.15748 0.32959 0.0
C1126 C 0.79723 0.15345 0.45256 0.0
C1127 C 0.85906 0.12384 0.33331 0.0
C1128 C 0.9134 0.12147 0.45098 0.0
C1129 C 0.90287 0.08356 0.45304 0.0
C1130 C 0.88867 0.14008 0.43289 0.0
C1131 C 0.85238 0.1203 0.41701 0.0
C1132 C 0.84102 0.08217 0.42074 0.0
C1133 C 0.86654 0.06422 0.43841 0.0
C1134 C 0.90212 0.18065 0.42901 0.0
C1135 C 0.80246 0.06011 0.40469 0.0
H1136 H 0.76003 0.18549 0.39897 0.0
H1137 H 0.81121 0.15861 0.29871 0.0
H1138 H 0.78997 0.12475 0.46113 0.0
H1139 H 0.82424 0.16738 0.46916 0.0
H1140 H 0.77489 0.16638 0.46101 0.0
H1141 H 0.85853 0.12792 0.30165 0.0
H1142 H 0.88809 0.13618 0.34658 0.0
H1143 H 0.85275 0.09424 0.33795 0.0
H1144 H 0.9415 0.13647 0.46226 0.0
H1145 H 0.85825 0.03489 0.44018 0.0
H1146 H 0.88117 0.19443 0.43923 0.0
H1147 H 0.90497 0.18665 0.39804 0.0
H1148 H 0.92981 0.19241 0.44559 0.0
H1149 H 0.78025 0.07254 0.41437 0.0
H1150 H 0.79645 0.03152 0.41371 0.0
H1151 H 0.80053 0.05995 0.37258 0.0
C1152 C 0.67751 0.1316 0.2172 0.0
C1153 C 0.6576 0.14335 0.24533 0.0
C1154 C 0.65936 0.10408 0.1899 0.0
C1155 C 0.62032 0.08797 0.19125 0.0
C1156 C 0.60103 0.09702 0.22233 0.0
C1157 C 0.62007 0.12494 0.24926 0.0
C1158 C 0.68126 0.09479 0.15765 0.0
C1159 C 0.55971 0.07952 0.22533 0.0
C1160 C 0.57431 0.06684 0.08994 0.0
C1161 C 0.57568 0.03076 0.0844 0.0
C1162 C 0.58623 0.08517 0.12588 0.0
C1163 C 0.59927 0.06658 0.15687 0.0
C1164 C 0.59758 0.02919 0.15224 0.0
C1165 C 0.58621 0.01174 0.11571 0.0
C1166 C 0.58747 0.12509 0.12978 0.0
C1167 C 0.60992 0.0082 0.18504 0.0
H1168 H 0.70697 0.14505 0.21565 0.0
H1169 H 0.60493 0.13399 0.27156 0.0
H1170 H 0.67591 0.06493 0.15318 0.0
H1171 H 0.67184 0.10561 0.13022 0.0
H1172 H 0.71216 0.10652 0.16361 0.0
H1173 H 0.5515 0.0829 0.25511 0.0
H1174 H 0.54252 0.09243 0.2052 0.0
H1175 H 0.55268 0.05011 0.21699 0.0
H1176 H 0.56568 0.08126 0.06568 0.0
H1177 H 0.58629 0.98344 0.11148 0.0
H1178 H 0.61731 0.14133 0.13316 0.0
H1179 H 0.57398 0.13076 0.15596 0.0
H1180 H 0.57303 0.13448 0.10416 0.0
H1181 H 0.64119 0.01431 0.1882 0.0
H1182 H 0.59862 0.97839 0.17966 0.0
H1183 H 0.60061 0.0162 0.21288 0.0
C1184 C 0.70732 0.81384 0.85639 0.0
C1185 C 0.70668 0.81447 0.81582 0.0
C1186 C 0.68657 0.83329 0.8773 0.0
C1187 C 0.66452 0.85401 0.85733 0.0
C1188 C 0.66411 0.85503 0.81646 0.0
C1189 C 0.68506 0.83539 0.79635 0.0
C1190 C 0.68797 0.83141 0.92081 0.0
C1191 C 0.64124 0.87672 0.79381 0.0
C1192 C 0.5827 0.87838 0.90506 0.0
C1193 C 0.59858 0.91463 0.91793 0.0
C1194 C 0.60385 0.85827 0.88571 0.0
C1195 C 0.64192 0.8747 0.87898 0.0
C1196 C 0.65803 0.91133 0.89203 0.0
C1197 C 0.63624 0.93077 0.91125 0.0
C1198 C 0.58535 0.81942 0.87228 0.0
C1199 C 0.69835 0.93011 0.88552 0.0
H1200 H 0.72369 0.79778 0.87189 0.0
H1201 H 0.68418 0.83629 0.76507 0.0
H1202 H 0.69822 0.85917 0.93448 0.0
H1203 H 0.65916 0.81988 0.92976 0.0
H1204 H 0.70669 0.8145 0.93216 0.0
H1205 H 0.64397 0.87492 0.76217 0.0
H1206 H 0.61098 0.86681 0.7989 0.0
H1207 H 0.65044 0.90573 0.80388 0.0
H1208 H 0.55365 0.86567 0.91011 0.0
H1209 H 0.6488 0.95874 0.92113 0.0
H1210 H 0.60172 0.80109 0.88517 0.0
H1211 H 0.58528 0.81644 0.84036 0.0
H1212 H 0.55581 0.81035 0.88023 0.0
H1213 H 0.71771 0.91472 0.89872 0.0
H1214 H 0.70698 0.95843 0.89799 0.0
H1215 H 0.70192 0.93075 0.85403 0.0
C1216 C 0.91171 0.95343 0.5969 0.0
C1217 C 0.94614 0.94671 0.58813 0.0
C1218 C 0.8892 0.93235 0.62334 0.0
C1219 C 0.9012 0.90367 0.64136 0.0
C1220 C 0.93635 0.89738 0.63344 0.0
C1221 C 0.95839 0.91898 0.60709 0.0
C1222 C 0.85207 0.94015 0.6312 0.0
C1223 C 0.95018 0.86701 0.65188 0.0
C1224 C 0.85809 0.86039 0.7311 0.0
C1225 C 0.83301 0.82839 0.71505 0.0
C1226 C 0.87964 0.88578 0.70742 0.0
C1227 C 0.8762 0.87884 0.66677 0.0
C1228 C 0.85004 0.84705 0.65041 0.0
C1229 C 0.82873 0.82232 0.67471 0.0
C1230 C 0.90682 0.91955 0.72598 0.0
C1231 C 0.8454 0.83852 0.60727 0.0
H1232 H 0.90193 0.97482 0.58263 0.0
H1233 H 0.98487 0.91344 0.60068 0.0
H1234 H 0.82842 0.9168 0.62038 0.0
H1235 H 0.85039 0.94359 0.66283 0.0
H1236 H 0.84801 0.96498 0.61708 0.0
H1237 H 0.97886 0.86666 0.64406 0.0
H1238 H 0.95078 0.86971 0.68387 0.0
H1239 H 0.93043 0.84046 0.64254 0.0
H1240 H 0.86139 0.86527 0.76226 0.0
H1241 H 0.80935 0.79766 0.66209 0.0
H1242 H 0.9019 0.94411 0.71205 0.0
H1243 H 0.93622 0.91876 0.72163 0.0
H1244 H 0.90419 0.9223 0.75756 0.0
H1245 H 0.83872 0.86151 0.59159 0.0
H1246 H 0.82271 0.81349 0.59899 0.0
H1247 H 0.87229 0.83482 0.59742 0.0
C1248 C 0.22336 0.85581 0.85108 0.0
C1249 C 0.20683 0.81975 0.83838 0.0
C1250 C 0.20218 0.87634 0.869 0.0
C1251 C 0.16361 0.86039 0.87334 0.0
C1252 C 0.14718 0.82362 0.86152 0.0
C1253 C 0.16922 0.80355 0.84452 0.0
C1254 C 0.22073 0.91524 0.88231 0.0
C1255 C 0.10597 0.8059 0.86537 0.0
C1256 C 0.10863 0.89876 0.94336 0.0
C1257 C 0.08917 0.91773 0.91864 0.0
C1258 C 0.13441 0.88133 0.92927 0.0
C1259 C 0.13989 0.88218 0.88938 0.0
C1260 C 0.12065 0.90177 0.86435 0.0
C1261 C 0.09573 0.91984 0.8795 0.0
C1262 C 0.15518 0.86143 0.9569 0.0
C1263 C 0.12543 0.90259 0.82146 0.0
H1264 H 0.25259 0.86815 0.84633 0.0
H1265 H 0.1565 0.77565 0.83444 0.0
H1266 H 0.20803 0.93388 0.86483 0.0
H1267 H 0.21576 0.91987 0.91297 0.0
H1268 H 0.25165 0.92253 0.87959 0.0
H1269 H 0.09775 0.77691 0.85501 0.0
H1270 H 0.09964 0.80744 0.89604 0.0
H1271 H 0.08812 0.82066 0.84842 0.0
H1272 H 0.10387 0.89775 0.97386 0.0
H1273 H 0.08064 0.93473 0.86062 0.0
H1274 H 0.18595 0.86991 0.95371 0.0
H1275 H 0.14564 0.83177 0.94993 0.0
H1276 H 0.15041 0.86643 0.98759 0.0
H1277 H 0.15569 0.91274 0.8165 0.0
H1278 H 0.10935 0.92007 0.80628 0.0
H1279 H 0.11562 0.87461 0.80826 0.0
C1280 C 0.98477 0.43345 0.61472 0.0
C1281 C 0.98756 0.42203 0.57658 0.0
C1282 C 0.96828 0.40848 0.64135 0.0
C1283 C 0.95386 0.37154 0.62913 0.0
C1284 C 0.96096 0.35929 0.5923 0.0
C1285 C 0.97791 0.3848 0.56634 0.0
C1286 C 0.96246 0.42231 0.68097 0.0
C1287 C 0.94666 0.31992 0.57861 0.0
C1288 C 0.90269 0.30321 0.69758 0.0
C1289 C 0.86524 0.30469 0.68843 0.0
C1290 C 0.93232 0.32519 0.67899 0.0
C1291 C 0.9239 0.34838 0.6502 0.0
C1292 C 0.8861 0.34982 0.64088 0.0
C1293 C 0.85731 0.32809 0.66025 0.0
C1294 C 0.97232 0.32319 0.68985 0.0
C1295 C 0.87589 0.37428 0.6103 0.0
H1296 H 0.99334 0.46216 0.62314 0.0
H1297 H 0.98068 0.37574 0.53709 0.0
H1298 H 0.93315 0.42523 0.68105 0.0
H1299 H 0.96632 0.4029 0.70338 0.0
H1300 H 0.9822 0.44924 0.68901 0.0
H1301 H 0.9604 0.31371 0.55275 0.0
H1302 H 0.95156 0.30173 0.60191 0.0
H1303 H 0.91575 0.31376 0.57083 0.0
H1304 H 0.90893 0.2852 0.7195 0.0
H1305 H 0.82841 0.32918 0.65288 0.0
H1306 H 0.99218 0.3506 0.69149 0.0
H1307 H 0.98116 0.3067 0.66729 0.0
H1308 H 0.97496 0.31036 0.71806 0.0
H1309 H 0.8905 0.40305 0.6183 0.0
H1310 H 0.84504 0.37185 0.60644 0.0
H1311 H 0.88532 0.36746 0.58207 0.0
C1312 C 0.43213 0.09465 0.47109 0.0
C1313 C 0.44721 0.07324 0.44634 0.0
C1314 C 0.41114 0.11838 0.4563 0.0
C1315 C 0.40528 0.12116 0.41572 0.0
C1316 C 0.42081 0.09997 0.3906 0.0
C1317 C 0.44137 0.07621 0.40616 0.0
C1318 C 0.39483 0.14016 0.48413 0.0
C1319 C 0.41553 0.10225 0.34717 0.0
C1320 C 0.32229 0.15431 0.37137 0.0
C1321 C 0.3398 0.19013 0.36275 0.0
C1322 C 0.343 0.13198 0.38969 0.0
C1323 C 0.38234 0.14565 0.39937 0.0
C1324 C 0.39993 0.18222 0.3918 0.0
C1325 C 0.37842 0.20405 0.37372 0.0
C1326 C 0.32296 0.09335 0.39757 0.0
C1327 C 0.44177 0.1979 0.40146 0.0
H1328 H 0.43626 0.09254 0.50217 0.0
H1329 H 0.45294 0.05996 0.38672 0.0
H1330 H 0.40535 0.16962 0.47948 0.0
H1331 H 0.36363 0.1332 0.47863 0.0
H1332 H 0.40213 0.13515 0.51487 0.0
H1333 H 0.43021 0.08475 0.33161 0.0
H1334 H 0.38502 0.09385 0.33729 0.0
H1335 H 0.42641 0.13074 0.33887 0.0
H1336 H 0.29245 0.14338 0.36292 0.0
H1337 H 0.39217 0.23165 0.36692 0.0
H1338 H 0.32872 0.08779 0.42842 0.0
H1339 H 0.3338 0.0742 0.37985 0.0
H1340 H 0.29192 0.08764 0.39077 0.0
H1341 H 0.44957 0.19422 0.43238 0.0
H1342 H 0.45082 0.2273 0.39568 0.0
H1343 H 0.45775 0.18316 0.38399 0.0
C1344 C 0.60987 0.5492 0.05798 0.0
C1345 C 0.57529 0.5524 0.07021 0.0
C1346 C 0.6438 0.56768 0.0784 0.0
C1347 C 0.64247 0.59002 0.11099 0.0
C1348 C 0.60753 0.58894 0.12642 0.0
C1349 C 0.57411 0.57006 0.10554 0.0
C1350 C 0.6805 0.56629 0.06246 0.0
C1351 C 0.60503 0.61131 0.16226 0.0
C1352 C 0.7126 0.65299 0.17883 0.0
C1353 C 0.70779 0.68588 0.16459 0.0
C1354 C 0.69645 0.62029 0.1579 0.0
C1355 C 0.67454 0.6211 0.1229 0.0
C1356 C 0.67517 0.65464 0.10559 0.0
C1357 C 0.69185 0.68695 0.12697 0.0
C1358 C 0.69871 0.58504 0.17575 0.0
C1359 C 0.65363 0.65648 0.0671 0.0
H1360 H 0.6107 0.53475 0.03088 0.0
H1361 H 0.54715 0.57142 0.11538 0.0
H1362 H 0.68598 0.58522 0.03845 0.0
H1363 H 0.70475 0.57407 0.08479 0.0
H1364 H 0.6787 0.53855 0.05035 0.0
H1365 H 0.57616 0.60446 0.17229 0.0
H1366 H 0.625 0.60697 0.18621 0.0
H1367 H 0.61279 0.64063 0.15603 0.0
H1368 H 0.72605 0.65231 0.20765 0.0
H1369 H 0.68948 0.71268 0.11558 0.0
H1370 H 0.69525 0.56285 0.15339 0.0
H1371 H 0.67595 0.57689 0.19551 0.0
H1372 H 0.72614 0.58833 0.19316 0.0
H1373 H 0.65934 0.63708 0.04546 0.0
H1374 H 0.66113 0.68418 0.05561 0.0
H1375 H 0.62286 0.64884 0.07054 0.0
C1376 C 0.22114 0.1481 0.67996 0.0
C1377 C 0.22095 0.18232 0.66594 0.0
C1378 C 0.20083 0.11653 0.65892 0.0
C1379 C 0.17991 0.12003 0.62396 0.0
C1380 C 0.18533 0.15421 0.60682 0.0
C1381 C 0.2061 0.1852 0.62821 0.0
C1382 C 0.19804 0.0801 0.67637 0.0
C1383 C 0.16482 0.15884 0.56854 0.0
C1384 C 0.11045 0.05286 0.55754 0.0
C1385 C 0.07654 0.05706 0.57068 0.0
C1386 C 0.14506 0.06919 0.57797 0.0
C1387 C 0.14552 0.0917 0.61095 0.0
C1388 C 0.11117 0.09338 0.62621 0.0
C1389 C 0.0769 0.07566 0.60586 0.0
C1390 C 0.18084 0.06486 0.56202 0.0
C1391 C 0.11049 0.11687 0.66176 0.0
H1392 H 0.23395 0.14596 0.70877 0.0
H1393 H 0.20739 0.21181 0.61695 0.0
H1394 H 0.1737 0.07375 0.69438 0.0
H1395 H 0.19358 0.05812 0.65357 0.0
H1396 H 0.22391 0.08036 0.69533 0.0
H1397 H 0.17511 0.18656 0.5577 0.0
H1398 H 0.16837 0.13881 0.54637 0.0
H1399 H 0.13416 0.15398 0.57192 0.0
H1400 H 0.11031 0.03876 0.53003 0.0
H1401 H 0.05055 0.07836 0.61616 0.0
H1402 H 0.20499 0.07044 0.58451 0.0
H1403 H 0.18815 0.08394 0.53841 0.0
H1404 H 0.17665 0.03689 0.54936 0.0
H1405 H 0.129 0.11071 0.68607 0.0
H1406 H 0.08159 0.11293 0.67128 0.0
H1407 H 0.12138 0.14595 0.65549 0.0
C1408 C 0.67091 0.33648 0.38539 0.0
C1409 C 0.65527 0.29927 0.37767 0.0
C1410 C 0.65044 0.35778 0.40312 0.0
C1411 C 0.61354 0.34127 0.41306 0.0
C1412 C 0.59839 0.30333 0.4071 0.0
C1413 C 0.61961 0.28266 0.38948 0.0
C1414 C 0.66759 0.39816 0.40948 0.0
C1415 C 0.55915 0.28491 0.41755 0.0
C1416 C 0.57105 0.39681 0.47983 0.0
C1417 C 0.55055 0.41332 0.4532 0.0
C1418 C 0.59086 0.37236 0.46727 0.0
C1419 C 0.58999 0.36424 0.42721 0.0
C1420 C 0.56824 0.3797 0.40027 0.0
C1421 C 0.54877 0.40416 0.41362 0.0
C1422 C 0.61386 0.35639 0.49676 0.0
C1423 C 0.5665 0.3713 0.35725 0.0
H1424 H 0.69863 0.3492 0.37636 0.0
H1425 H 0.60762 0.25379 0.3835 0.0
H1426 H 0.65147 0.41321 0.39069 0.0
H1427 H 0.66585 0.40679 0.43993 0.0
H1428 H 0.69762 0.40618 0.40286 0.0
H1429 H 0.55287 0.25483 0.4141 0.0
H1430 H 0.55561 0.29236 0.4479 0.0
H1431 H 0.53801 0.29433 0.3987 0.0
H1432 H 0.57252 0.40364 0.51054 0.0
H1433 H 0.53279 0.41661 0.39292 0.0
H1434 H 0.64437 0.36809 0.4939 0.0
H1435 H 0.60811 0.32654 0.49163 0.0
H1436 H 0.60792 0.36207 0.52688 0.0
H1437 H 0.59495 0.3815 0.34687 0.0
H1438 H 0.54649 0.38387 0.34041 0.0
H1439 H 0.55779 0.34147 0.35112 0.0
C1440 C 0.46129 0.88531 0.07133 0.0
C1441 C 0.47875 0.92164 0.08216 0.0
C1442 C 0.44019 0.86262 0.09727 0.0
C1443 C 0.43705 0.87685 0.13461 0.0
C1444 C 0.45869 0.91204 0.14714 0.0
C1445 C 0.47923 0.93419 0.12054 0.0
C1446 C 0.41793 0.82493 0.08323 0.0
C1447 C 0.45691 0.92777 0.18712 0.0
C1448 C 0.33955 0.84775 0.16914 0.0
C1449 C 0.34382 0.8218 0.19589 0.0
C1450 C 0.37001 0.86617 0.14949 0.0
C1451 C 0.40559 0.85842 0.15688 0.0
C1452 C 0.41047 0.833 0.18461 0.0
C1453 C 0.37938 0.81483 0.20378 0.0
C1454 C 0.36391 0.89354 0.12033 0.0
C1455 C 0.44813 0.82437 0.19334 0.0
H1456 H 0.46135 0.87553 0.04172 0.0
H1457 H 0.49375 0.9621 0.12916 0.0
H1458 H 0.41901 0.80505 0.10593 0.0
H1459 H 0.38789 0.82494 0.07659 0.0
H1460 H 0.42853 0.81574 0.05661 0.0
H1461 H 0.48095 0.95183 0.19489 0.0
H1462 H 0.43028 0.93641 0.18803 0.0
H1463 H 0.45692 0.90721 0.2093 0.0
H1464 H 0.31224 0.85338 0.16306 0.0
H1465 H 0.38292 0.79483 0.22456 0.0
H1466 H 0.36995 0.88498 0.0912 0.0
H1467 H 0.3836 0.92047 0.1282 0.0
H1468 H 0.33458 0.89672 0.1185 0.0
H1469 H 0.45438 0.80889 0.16828 0.0
H1470 H 0.44849 0.80791 0.21937 0.0
H1471 H 0.47117 0.84969 0.19788 0.0
C1472 C 0.92674 0.58542 0.96618 0.0
C1473 C 0.94524 0.56674 0.94194 0.0
C1474 C 0.90541 0.6087 0.9511 0.0
C1475 C 0.90246 0.61366 0.91072 0.0
C1476 C 0.92102 0.59492 0.88606 0.0
C1477 C 0.94209 0.5717 0.90192 0.0
C1478 C 0.88598 0.62797 0.97843 0.0
C1479 C 0.91866 0.59947 0.84285 0.0
C1480 C 0.82068 0.64722 0.86417 0.0
C1481 C 0.83796 0.68389 0.85882 0.0
C1482 C 0.84108 0.62429 0.88176 0.0
C1483 C 0.87983 0.63829 0.89419 0.0
C1484 C 0.89712 0.6756 0.88985 0.0
C1485 C 0.87596 0.69797 0.87229 0.0
C1486 C 0.82139 0.58481 0.88605 0.0
C1487 C 0.9383 0.69167 0.90273 0.0
H1488 H 0.92884 0.58191 -0.00286 0.0
H1489 H 0.95625 0.55755 0.88286 0.0
H1490 H 0.89622 0.65782 0.97619 0.0
H1491 H 0.85512 0.62057 0.97026 0.0
H1492 H 0.89092 0.62114 0.00907 0.0
H1493 H 0.93481 0.58316 0.82762 0.0
H1494 H 0.88876 0.59115 0.83075 0.0
H1495 H 0.92978 0.6285 0.83659 0.0
H1496 H 0.79131 0.63616 0.85375 0.0
H1497 H 0.8895 0.72624 0.86803 0.0
H1498 H 0.825 0.5774 0.91663 0.0
H1499 H 0.83432 0.56734 0.86832 0.0
H1500 H 0.79072 0.57862 0.87684 0.0
H1501 H 0.94407 0.68651 0.93369 0.0
H1502 H 0.94715 0.72143 0.89883 0.0
H1503 H 0.95599 0.67835 0.88587 0.0
C1504 C 0.40774 0.45439 0.09325 0.0
C1505 C 0.44318 0.4488 0.08672 0.0
C1506 C 0.38516 0.43396 0.12011 0.0
C1507 C 0.39817 0.40713 0.14075 0.0
C1508 C 0.43436 0.40219 0.13514 0.0
C1509 C 0.4564 0.4231 0.10841 0.0
C1510 C 0.34689 0.4403 0.12554 0.0
C1511 C 0.44931 0.37376 0.15632 0.0
C1512 C 0.35479 0.36448 0.23056 0.0
C1513 C 0.33218 0.33105 0.21505 0.0
C1514 C 0.3752 0.39033 0.20653 0.0
C1515 C 0.3732 0.38233 0.16615 0.0
C1516 C 0.34935 0.34907 0.1503 0.0
C1517 C 0.32909 0.32395 0.17489 0.0
C1518 C 0.39986 0.42567 0.2245 0.0
C1519 C 0.34641 0.3393 0.10749 0.0
H1520 H 0.39722 0.4742 0.07681 0.0
H1521 H 0.48372 0.4185 0.10385 0.0
H1522 H 0.32444 0.41601 0.11457 0.0
H1523 H 0.3437 0.44439 0.15678 0.0
H1524 H 0.34229 0.46427 0.11006 0.0
H1525 H 0.47871 0.37447 0.15012 0.0
H1526 H 0.44859 0.37774 0.18802 0.0
H1527 H 0.43104 0.34631 0.14772 0.0
H1528 H 0.35709 0.37016 0.26156 0.0
H1529 H 0.31163 0.29817 0.16269 0.0
H1530 H 0.39413 0.44899 0.20867 0.0
H1531 H 0.42999 0.42634 0.22224 0.0
H1532 H 0.39544 0.42935 0.25553 0.0
H1533 H 0.33894 0.36118 0.09043 0.0
H1534 H 0.32496 0.31336 0.09946 0.0
H1535 H 0.37416 0.33665 0.09904 0.0
C1536 C 0.43192 0.6249 0.93353 0.0
C1537 C 0.4173 0.58724 0.93479 0.0
C1538 C 0.41435 0.64567 0.9089 0.0
C1539 C 0.38104 0.62838 0.88546 0.0
C1540 C 0.36552 0.59048 0.88759 0.0
C1541 C 0.38403 0.5703 0.91203 0.0
C1542 C 0.432 0.68594 0.90717 0.0
C1543 C 0.32973 0.57114 0.86357 0.0
C1544 C 0.31941 0.68796 0.84524 0.0
C1545 C 0.32929 0.69175 0.80693 0.0
C1546 C 0.33567 0.66707 0.87093 0.0
C1547 C 0.36284 0.64988 0.85822 0.0
C1548 C 0.37292 0.65353 0.81958 0.0
C1549 C 0.35583 0.67421 0.79432 0.0
C1550 C 0.32379 0.66344 0.91172 0.0
C1551 C 0.40213 0.63597 0.80507 0.0
H1552 H 0.45782 0.638 0.9509 0.0
H1553 H 0.37271 0.54114 0.91296 0.0
H1554 H 0.43997 0.69245 0.87743 0.0
H1555 H 0.41134 0.70153 0.9139 0.0
H1556 H 0.45758 0.69533 0.92772 0.0
H1557 H 0.32041 0.5419 0.86993 0.0
H1558 H 0.3067 0.58422 0.86901 0.0
H1559 H 0.3342 0.57332 0.83234 0.0
H1560 H 0.29873 0.70119 0.8552 0.0
H1561 H 0.36374 0.6771 0.76484 0.0
H1562 H 0.34851 0.67475 0.93279 0.0
H1563 H 0.31295 0.63431 0.91775 0.0
H1564 H 0.30157 0.67774 0.91678 0.0
H1565 H 0.42936 0.64615 0.8229 0.0
H1566 H 0.40688 0.64147 0.77427 0.0
H1567 H 0.39316 0.60612 0.80804 0.0
C1568 C 0.11646 0.53442 0.58255 0.0
C1569 C 0.08612 0.54314 0.56144 0.0
C1570 C 0.1386 0.55862 0.61122 0.0
C1571 C 0.12961 0.59191 0.61915 0.0
C1572 C 0.09779 0.59999 0.59926 0.0
C1573 C 0.07658 0.57556 0.57021 0.0
C1574 C 0.17263 0.54939 0.63161 0.0
C1575 C 0.08704 0.63502 0.60754 0.0
C1576 C 0.17404 0.64784 0.71015 0.0
C1577 C 0.20217 0.67474 0.6951 0.0
C1578 C 0.15018 0.62034 0.68577 0.0
C1579 C 0.15531 0.61963 0.64577 0.0
C1580 C 0.18456 0.64606 0.63073 0.0
C1581 C 0.20739 0.67363 0.65559 0.0
C1582 C 0.11888 0.59279 0.70253 0.0
C1583 C 0.1913 0.64565 0.58828 0.0
H1584 H 0.12371 0.50919 0.57577 0.0
H1585 H 0.05313 0.58222 0.55378 0.0
H1586 H 0.19877 0.5685 0.62335 0.0
H1587 H 0.17232 0.55254 0.66345 0.0
H1588 H 0.17397 0.5212 0.6242 0.0
H1589 H 0.05918 0.63522 0.59271 0.0
H1590 H 0.08607 0.63948 0.63915 0.0
H1591 H 0.1087 0.65823 0.59766 0.0
H1592 H 0.16997 0.64886 0.74076 0.0
H1593 H 0.22896 0.69465 0.64395 0.0
H1594 H 0.12088 0.56482 0.69535 0.0
H1595 H 0.09113 0.59523 0.68948 0.0
H1596 H 0.11959 0.59641 0.7345 0.0
H1597 H 0.19476 0.61869 0.57889 0.0
H1598 H 0.21676 0.66684 0.58183 0.0
H1599 H 0.16649 0.65024 0.57073 0.0
C1600 C 0.35953 0.30369 0.6595 0.0
C1601 C 0.32464 0.30918 0.66814 0.0
C1602 C 0.38106 0.32516 0.63287 0.0
C1603 C 0.36698 0.35226 0.6141 0.0
C1604 C 0.33149 0.35748 0.62221 0.0
C1605 C 0.31086 0.33604 0.6494 0.0
C1606 C 0.41911 0.3193 0.62531 0.0
C1607 C 0.3154 0.38586 0.60233 0.0
C1608 C 0.43286 0.43303 0.57297 0.0
C1609 C 0.42852 0.42294 0.53347 0.0
C1610 C 0.41403 0.40963 0.59978 0.0
C1611 C 0.38959 0.37581 0.58649 0.0
C1612 C 0.38533 0.36535 0.54662 0.0
C1613 C 0.40514 0.38902 0.52054 0.0
C1614 C 0.41971 0.42143 0.64218 0.0
C1615 C 0.35915 0.32963 0.53142 0.0
H1616 H 0.3704 0.28309 0.67413 0.0
H1617 H 0.28376 0.34017 0.65576 0.0
H1618 H 0.42003 0.31326 0.594 0.0
H1619 H 0.44156 0.3445 0.63338 0.0
H1620 H 0.42568 0.29667 0.64185 0.0
H1621 H 0.28681 0.38557 0.61093 0.0
H1622 H 0.33432 0.41329 0.6095 0.0
H1623 H 0.31367 0.38129 0.57044 0.0
H1624 H 0.45067 0.45943 0.58293 0.0
H1625 H 0.40177 0.38126 0.48994 0.0
H1626 H 0.42784 0.40014 0.65973 0.0
H1627 H 0.39286 0.42509 0.65214 0.0
H1628 H 0.44183 0.44734 0.64801 0.0
H1629 H 0.36669 0.30677 0.54662 0.0
H1630 H 0.36005 0.32504 0.49978 0.0
H1631 H 0.32973 0.32904 0.53728 0.0
C1632 C 0.16907 0.71757 0.14439 0.0
C1633 C 0.20704 0.71656 0.14614 0.0
C1634 C 0.14293 0.69754 0.11532 0.0
C1635 C 0.15523 0.67583 0.08799 0.0
C1636 C 0.19418 0.6778 0.08738 0.0
C1637 C 0.21973 0.69846 0.1164 0.0
C1638 C 0.10177 0.69703 0.11609 0.0
C1639 C 0.20846 0.65509 0.05868 0.0
C1640 C 0.09341 0.58238 0.05906 0.0
C1641 C 0.08281 0.58628 0.0201 0.0
C1642 C 0.11578 0.61186 0.08184 0.0
C1643 C 0.12744 0.64616 0.06525 0.0
C1644 C 0.11514 0.65073 0.02643 0.0
C1645 C 0.09316 0.62049 0.00407 0.0
C1646 C 0.12833 0.6058 0.12317 0.0
C1647 C 0.12621 0.6871 0.00813 0.0
H1648 H 0.15931 0.73206 0.1671 0.0
H1649 H 0.24922 0.69815 0.11738 0.0
H1650 H 0.08826 0.69679 0.0863 0.0
H1651 H 0.08673 0.67198 0.12972 0.0
H1652 H 0.09802 0.72084 0.13301 0.0
H1653 H 0.23973 0.66325 0.05887 0.0
H1654 H 0.19973 0.62608 0.06602 0.0
H1655 H 0.19606 0.65728 0.02894 0.0
H1656 H 0.08525 0.55592 0.07149 0.0
H1657 H 0.08455 0.62351 0.97397 0.0
H1658 H 0.15954 0.61095 0.1267 0.0
H1659 H 0.11577 0.5777 0.13189 0.0
H1660 H 0.12032 0.62511 0.14329 0.0
H1661 H 0.12346 0.70921 0.02825 0.0
H1662 H 0.10873 0.6877 0.98066 0.0
H1663 H 0.15621 0.69289 0.00169 0.0
C1664 C 0.6793 0.34719 0.66315 0.0
C1665 C 0.68956 0.34389 0.70233 0.0
C1666 C 0.65715 0.37086 0.65177 0.0
C1667 C 0.64492 0.39146 0.68036 0.0
C1668 C 0.65545 0.38837 0.71999 0.0
C1669 C 0.67778 0.36461 0.73051 0.0
C1670 C 0.64657 0.37359 0.60916 0.0
C1671 C 0.64278 0.4098 0.75119 0.0
C1672 C 0.61505 0.47261 0.64084 0.0
C1673 C 0.57635 0.45763 0.63168 0.0
C1674 C 0.63758 0.45205 0.65904 0.0
C1675 C 0.62077 0.41588 0.66842 0.0
C1676 C 0.58114 0.40186 0.66235 0.0
C1677 C 0.55933 0.42296 0.64392 0.0
C1678 C 0.67973 0.468 0.66524 0.0
C1679 C 0.56211 0.3636 0.67254 0.0
H1680 H 0.68842 0.33113 0.64139 0.0
H1681 H 0.6857 0.36199 0.76088 0.0
H1682 H 0.61541 0.36531 0.60325 0.0
H1683 H 0.65631 0.40216 0.60067 0.0
H1684 H 0.65894 0.3562 0.59061 0.0
H1685 H 0.65403 0.40477 0.78065 0.0
H1686 H 0.6521 0.43931 0.74631 0.0
H1687 H 0.61149 0.40249 0.74998 0.0
H1688 H 0.62821 0.49949 0.63143 0.0
H1689 H 0.52932 0.41144 0.63699 0.0
H1690 H 0.69398 0.45477 0.64424 0.0
H1691 H 0.69059 0.46278 0.69472 0.0
H1692 H 0.68767 0.49777 0.6612 0.0
H1693 H 0.56941 0.34395 0.65226 0.0
H1694 H 0.53087 0.35858 0.67074 0.0
H1695 H 0.57223 0.35807 0.70221 0.0
C1696 C 0.8478 0.64369 0.17656 0.0
C1697 C 0.85147 0.6562 0.2153 0.0
C1698 C 0.8719 0.62381 0.16301 0.0
C1699 C 0.90017 0.61584 0.18898 0.0
C1700 C 0.9038 0.62808 0.22833 0.0
C1701 C 0.87938 0.64827 0.24105 0.0
C1702 C 0.86731 0.61166 0.1207 0.0
C1703 C 0.93322 0.61967 0.25696 0.0
C1704 C 0.93343 0.537 0.14924 0.0
C1705 C 0.96451 0.5553 0.13014 0.0
C1706 C 0.91393 0.55631 0.17146 0.0
C1707 C 0.92567 0.59477 0.17423 0.0
C1708 C 0.95894 0.61309 0.15761 0.0
C1709 C 0.97805 0.59307 0.1358 0.0
C1710 C 0.87909 0.5357 0.18942 0.0
C1711 C 0.97264 0.65404 0.16018 0.0
H1712 H 0.82631 0.64987 0.15657 0.0
H1713 H 0.88218 0.6579 0.27107 0.0
H1714 H 0.89398 0.62289 0.10715 0.0
H1715 H 0.86117 0.58159 0.11783 0.0
H1716 H 0.8442 0.62045 0.10428 0.0
H1717 H 0.93486 0.6341 0.28551 0.0
H1718 H 0.92636 0.59 0.2613 0.0
H1719 H 0.96144 0.62723 0.24558 0.0
H1720 H 0.92311 0.50773 0.14518 0.0
H1721 H 1.00229 0.60726 0.12128 0.0
H1722 H 0.85359 0.53954 0.17251 0.0
H1723 H 0.87879 0.54625 0.21946 0.0
H1724 H 0.87717 0.50611 0.18992 0.0
H1725 H 0.95299 0.6658 0.14182 0.0
H1726 H 1.0014 0.66371 0.15026 0.0
H1727 H 0.97299 0.66458 0.19033 0.0
C1728 C 0.88487 0.56548 0.58298 0.0
C1729 C 0.92264 0.5816 0.57666 0.0
C1730 C 0.86271 0.58504 0.60143 0.0
C1731 C 0.87854 0.6218 0.61412 0.0
C1732 C 0.91675 0.63822 0.60785 0.0
C1733 C 0.93827 0.61799 0.58921 0.0
C1734 C 0.82227 0.56625 0.60742 0.0
C1735 C 0.93496 0.6772 0.62099 0.0
C1736 C 0.81206 0.68215 0.63506 0.0
C1737 C 0.81201 0.68149 0.67558 0.0
C1738 C 0.83348 0.66296 0.61469 0.0
C1739 C 0.85553 0.64252 0.63516 0.0
C1740 C 0.85528 0.64153 0.67597 0.0
C1741 C 0.83367 0.66085 0.69552 0.0
C1742 C 0.8327 0.66475 0.57121 0.0
C1743 C 0.87813 0.62017 0.69918 0.0
H1744 H 0.87245 0.53744 0.57327 0.0
H1745 H 0.96736 0.63073 0.58435 0.0
H1746 H 0.81823 0.56582 0.63882 0.0
H1747 H 0.80303 0.58151 0.59368 0.0
H1748 H 0.81385 0.53785 0.59518 0.0
H1749 H 0.96465 0.68626 0.61346 0.0
H1750 H 0.91869 0.69533 0.60753 0.0
H1751 H 0.93457 0.68047 0.65283 0.0
H1752 H 0.7957 0.69802 0.61922 0.0
H1753 H 0.83406 0.6599 0.72677 0.0
H1754 H 0.8227 0.63696 0.55759 0.0
H1755 H 0.86166 0.67633 0.56267 0.0
H1756 H 0.81408 0.68157 0.55944 0.0
H1757 H 0.86915 0.59108 0.68937 0.0
H1758 H 0.87509 0.62218 0.73075 0.0
H1759 H 0.90845 0.63016 0.69436 0.0
C1760 C 0.39167 0.52151 0.35411 0.0
C1761 C 0.43082 0.53481 0.36152 0.0
C1762 C 0.37009 0.54267 0.33542 0.0
C1763 C 0.38833 0.57766 0.3237 0.0
C1764 C 0.42823 0.5897 0.32793 0.0
C1765 C 0.44907 0.56807 0.34695 0.0
C1766 C 0.32761 0.52883 0.33126 0.0
C1767 C 0.44872 0.62662 0.31519 0.0
C1768 C 0.33298 0.62992 0.26099 0.0
C1769 C 0.32392 0.65301 0.28872 0.0
C1770 C 0.35383 0.60501 0.27188 0.0
C1771 C 0.36566 0.60323 0.31141 0.0
C1772 C 0.35616 0.62625 0.33957 0.0
C1773 C 0.33541 0.65097 0.32782 0.0
C1774 C 0.36355 0.58094 0.24115 0.0
C1775 C 0.36816 0.62495 0.38209 0.0
H1776 H 0.37755 0.49569 0.36529 0.0
H1777 H 0.47943 0.57825 0.35252 0.0
H1778 H 0.31532 0.54411 0.35219 0.0
H1779 H 0.31603 0.53333 0.30181 0.0
H1780 H 0.31824 0.49942 0.33689 0.0
H1781 H 0.47967 0.6298 0.31572 0.0
H1782 H 0.43784 0.63125 0.2855 0.0
H1783 H 0.44366 0.64803 0.3348 0.0
H1784 H 0.32408 0.63155 0.23068 0.0
H1785 H 0.32837 0.66886 0.34922 0.0
H1786 H 0.35283 0.55194 0.24772 0.0
H1787 H 0.39467 0.58639 0.24099 0.0
H1788 H 0.35156 0.58524 0.21175 0.0
H1789 H 0.35728 0.59709 0.3922 0.0
H1790 H 0.35786 0.64421 0.4003 0.0
H1791 H 0.39942 0.63169 0.38666 0.0
C1792 C 0.12523 0.31333 0.78773 0.0
C1793 C 0.15468 0.32797 0.76481 0.0
C1794 C 0.10416 0.3354 0.80338 0.0
C1795 C 0.11202 0.37266 0.79473 0.0
C1796 C 0.13949 0.38666 0.76869 0.0
C1797 C 0.16111 0.3643 0.75467 0.0
C1798 C 0.07598 0.31957 0.83189 0.0
C1799 C 0.14777 0.42585 0.75763 0.0
C1800 C 0.04628 0.42664 0.83184 0.0
C1801 C 0.06747 0.44366 0.86554 0.0
C1802 C 0.06085 0.40437 0.80743 0.0
C1803 C 0.09664 0.39803 0.81806 0.0
C1804 C 0.11791 0.41521 0.85221 0.0
C1805 C 0.10336 0.43831 0.87505 0.0
C1806 C 0.03802 0.38757 0.7705 0.0
C1807 C 0.15562 0.40834 0.86543 0.0
H1808 H 0.12038 0.28521 0.79564 0.0
H1809 H 0.18368 0.37548 0.73657 0.0
H1810 H 0.08731 0.33085 0.86146 0.0
H1811 H 0.04903 0.32716 0.82523 0.0
H1812 H 0.07002 0.28946 0.83206 0.0
H1813 H 0.16419 0.43054 0.73178 0.0
H1814 H 0.12117 0.43429 0.75159 0.0
H1815 H 0.16443 0.44354 0.78204 0.0
H1816 H 0.01849 0.43083 0.82455 0.0
H1817 H 0.11959 0.45108 0.90139 0.0
H1818 H 0.03074 0.35751 0.77136 0.0
H1819 H 0.055 0.3951 0.74541 0.0
H1820 H 0.01147 0.39639 0.76562 0.0
H1821 H 0.15245 0.37879 0.86864 0.0
H1822 H 0.16781 0.42277 0.89351 0.0
H1823 H 0.17602 0.41736 0.84344 0.0
C1824 C 0.18319 0.33659 0.29031 0.0
C1825 C 0.20462 0.31656 0.31158 0.0
C1826 C 0.16087 0.3561 0.30849 0.0
C1827 C 0.15967 0.35594 0.34925 0.0
C1828 C 0.18149 0.33613 0.37105 0.0
C1829 C 0.20362 0.31672 0.35204 0.0
C1830 C 0.13832 0.37677 0.28389 0.0
C1831 C 0.18127 0.33524 0.41452 0.0
C1832 C 0.12853 0.43364 0.39805 0.0
C1833 C 0.09063 0.41745 0.40382 0.0
C1834 C 0.15128 0.41393 0.38084 0.0
C1835 C 0.13594 0.37691 0.36884 0.0
C1836 C 0.09759 0.36043 0.37447 0.0
C1837 C 0.07547 0.38083 0.3919 0.0
C1838 C 0.19185 0.4328 0.37548 0.0
C1839 C 0.07987 0.3212 0.36201 0.0
H1840 H 0.18352 0.3369 0.25909 0.0
H1841 H 0.21979 0.30134 0.36889 0.0
H1842 H 0.10786 0.36672 0.28807 0.0
H1843 H 0.1469 0.40603 0.293 0.0
H1844 H 0.14209 0.3741 0.25255 0.0
H1845 H 0.1998 0.31882 0.42741 0.0
H1846 H 0.1908 0.3633 0.42753 0.0
H1847 H 0.15209 0.32371 0.42248 0.0
H1848 H 0.14061 0.46186 0.4073 0.0
H1849 H 0.0463 0.36802 0.39635 0.0
H1850 H 0.19661 0.43253 0.34427 0.0
H1851 H 0.21097 0.41803 0.39035 0.0
H1852 H 0.1998 0.46144 0.38697 0.0
H1853 H 0.08108 0.31729 0.33036 0.0
H1854 H 0.04995 0.31217 0.3688 0.0
H1855 H 0.09597 0.30347 0.37659 0.0
loop_
_geom_bond_atom_site_label_1
_geom_bond_atom_site_label_2
_geom_bond_distance
_geom_bond_site_symmetry_2
_ccdc_geom_bond_type
Dy0 O4 2.398 1_655 S
Dy0 O5 2.491 1_655 S
Dy0 O6 2.403 . S
Dy0 O7 2.664 1_556 S
Dy0 O11 2.326 1_656 S
Dy0 O15 2.310 1_665 S
Dy0 O16 2.351 . S
C1 O12 1.185 . S
C1 O13 1.355 . S
C2 O4 1.185 . S
C2 O5 1.355 . S
Dy3 O7 2.310 1_445 S
Dy3 O10 2.351 . S
Dy3 O12 2.398 1_455 S
Dy3 O13 2.491 1_455 S
Dy3 O14 2.403 . S
Dy3 O15 2.664 1_554 S
Dy3 O17 2.326 1_454 S
O4 Dy0 2.398 1_455 S
O4 C2 1.185 . S
O5 Dy0 2.491 1_455 S
O5 C2 1.355 . S
O6 Dy0 2.403 . S
O6 C8 1.254 1_556 S
O7 Dy0 2.664 1_554 S
O7 Dy3 2.310 1_665 S
O7 C8 1.268 . S
C8 O6 1.254 1_554 S
C8 O7 1.268 . S
C9 O14 1.254 1_556 S
C9 O15 1.268 . S
O10 Dy3 2.351 . S
O10 C18 1.249 1_545 S
O11 Dy0 2.326 1_454 S
O11 C18 1.267 . S
O12 C1 1.185 . S
O12 Dy3 2.398 1_655 S
O13 C1 1.355 . S
O13 Dy3 2.491 1_655 S
O14 Dy3 2.403 . S
O14 C9 1.254 1_554 S
O15 Dy0 2.310 1_445 S
O15 Dy3 2.664 1_556 S
O15 C9 1.268 . S
O16 Dy0 2.351 . S
O16 C19 1.249 1_565 S
O17 Dy3 2.326 1_656 S
O17 C19 1.267 . S
C18 O10 1.249 1_565 S
C18 O11 1.267 . S
C19 O16 1.249 1_545 S
C19 O17 1.267 . S
Dy20 O24 2.398 . S
Dy20 O25 2.491 . S
Dy20 O26 2.403 . S
Dy20 O27 2.664 . S
Dy20 O31 2.326 . S
Dy20 O35 2.310 . S
Dy20 O36 2.351 . S
C21 O32 1.185 . S
C21 O33 1.355 . S
C22 O24 1.185 . S
C22 O25 1.355 . S
Dy23 O27 2.310 . S
Dy23 O30 2.351 . S
Dy23 O32 2.398 . S
Dy23 O33 2.491 . S
Dy23 O34 2.403 . S
Dy23 O35 2.664 . S
Dy23 O37 2.326 . S
O24 Dy20 2.398 . S
O24 C22 1.185 . S
O25 Dy20 2.491 . S
O25 C22 1.355 . S
O26 Dy20 2.403 . S
O26 C28 1.254 . S
O27 Dy20 2.664 . S
O27 Dy23 2.310 . S
O27 C28 1.268 . S
C28 O26 1.254 . S
C28 O27 1.268 . S
C29 O34 1.254 . S
C29 O35 1.268 . S
O30 Dy23 2.351 . S
O30 C38 1.249 . S
O31 Dy20 2.326 . S
O31 C38 1.267 . S
O32 C21 1.185 . S
O32 Dy23 2.398 . S
O33 C21 1.355 . S
O33 Dy23 2.491 . S
O34 Dy23 2.403 . S
O34 C29 1.254 . S
O35 Dy20 2.310 . S
O35 Dy23 2.664 . S
O35 C29 1.268 . S
O36 Dy20 2.351 . S
O36 C39 1.249 . S
O37 Dy23 2.326 . S
O37 C39 1.267 . S
C38 O30 1.249 . S
C38 O31 1.267 . S
C39 O36 1.249 . S
C39 O37 1.267 . S
Dy40 O44 2.398 1_565 S
Dy40 O45 2.491 1_565 S
Dy40 O46 2.403 . S
Dy40 O47 2.664 . S
Dy40 O51 2.326 1_565 S
Dy40 O55 2.310 1_565 S
Dy40 O56 2.351 . S
C41 O52 1.185 . S
C41 O53 1.355 . S
C42 O44 1.185 . S
C42 O45 1.355 . S
Dy43 O47 2.310 1_545 S
Dy43 O50 2.351 . S
Dy43 O52 2.398 1_545 S
Dy43 O53 2.491 1_545 S
Dy43 O54 2.403 . S
Dy43 O55 2.664 . S
Dy43 O57 2.326 1_545 S
O44 Dy40 2.398 1_545 S
O44 C42 1.185 . S
O45 Dy40 2.491 1_545 S
O45 C42 1.355 . S
O46 Dy40 2.403 . S
O46 C48 1.254 . S
O47 Dy40 2.664 . S
O47 Dy43 2.310 1_565 S
O47 C48 1.268 . S
C48 O46 1.254 . S
C48 O47 1.268 . S
C49 O54 1.254 . S
C49 O55 1.268 . S
O50 Dy43 2.351 . S
O50 C58 1.249 . S
O51 Dy40 2.326 1_545 S
O51 C58 1.267 . S
O52 C41 1.185 . S
O52 Dy43 2.398 1_565 S
O53 C41 1.355 . S
O53 Dy43 2.491 1_565 S
O54 Dy43 2.403 . S
O54 C49 1.254 . S
O55 Dy40 2.310 1_545 S
O55 Dy43 2.664 . S
O55 C49 1.268 . S
O56 Dy40 2.351 . S
O56 C59 1.249 . S
O57 Dy43 2.326 1_565 S
O57 C59 1.267 . S
C58 O50 1.249 . S
C58 O51 1.267 . S
C59 O56 1.249 . S
C59 O57 1.267 . S
Dy60 O64 2.398 . S
Dy60 O65 2.491 . S
Dy60 O66 2.403 . S
Dy60 O67 2.664 . S
Dy60 O71 2.326 . S
Dy60 O75 2.310 . S
Dy60 O76 2.351 . S
C61 O72 1.185 . S
C61 O73 1.355 . S
C62 O64 1.185 . S
C62 O65 1.355 . S
Dy63 O67 2.310 . S
Dy63 O70 2.351 . S
Dy63 O72 2.398 . S
Dy63 O73 2.491 . S
Dy63 O74 2.403 . S
Dy63 O75 2.664 . S
Dy63 O77 2.326 . S
O64 Dy60 2.398 . S
O64 C62 1.185 . S
O65 Dy60 2.491 . S
O65 C62 1.355 . S
O66 Dy60 2.403 . S
O66 C68 1.254 . S
O67 Dy60 2.664 . S
O67 Dy63 2.310 . S
O67 C68 1.268 . S
C68 O66 1.254 . S
C68 O67 1.268 . S
C69 O74 1.254 . S
C69 O75 1.268 . S
O70 Dy63 2.351 . S
O70 C78 1.249 . S
O71 Dy60 2.326 . S
O71 C78 1.267 . S
O72 C61 1.185 . S
O72 Dy63 2.398 . S
O73 C61 1.355 . S
O73 Dy63 2.491 . S
O74 Dy63 2.403 . S
O74 C69 1.254 . S
O75 Dy60 2.310 . S
O75 Dy63 2.664 . S
O75 C69 1.268 . S
O76 Dy60 2.351 . S
O76 C79 1.249 . S
O77 Dy63 2.326 . S
O77 C79 1.267 . S
C78 O70 1.249 . S
C78 O71 1.267 . S
C79 O76 1.249 . S
C79 O77 1.267 . S
Dy80 O84 2.398 . S
Dy80 O85 2.491 . S
Dy80 O86 2.403 1_455 S
Dy80 O87 2.664 1_455 S
Dy80 O91 2.326 1_455 S
Dy80 O95 2.310 1_565 S
Dy80 O96 2.351 1_565 S
C81 O92 1.185 . S
C81 O93 1.355 . S
C82 O84 1.185 . S
C82 O85 1.355 . S
Dy83 O87 2.310 1_545 S
Dy83 O90 2.351 1_545 S
Dy83 O92 2.398 . S
Dy83 O93 2.491 . S
Dy83 O94 2.403 1_655 S
Dy83 O95 2.664 1_655 S
Dy83 O97 2.326 1_655 S
O84 Dy80 2.398 . S
O84 C82 1.185 . S
O85 Dy80 2.491 . S
O85 C82 1.355 . S
O86 Dy80 2.403 1_655 S
O86 C88 1.254 . S
O87 Dy80 2.664 1_655 S
O87 Dy83 2.310 1_565 S
O87 C88 1.268 . S
C88 O86 1.254 . S
C88 O87 1.268 . S
C89 O94 1.254 . S
C89 O95 1.268 . S
O90 Dy83 2.351 1_565 S
O90 C98 1.249 . S
O91 Dy80 2.326 1_655 S
O91 C98 1.267 . S
O92 C81 1.185 . S
O92 Dy83 2.398 . S
O93 C81 1.355 . S
O93 Dy83 2.491 . S
O94 Dy83 2.403 1_455 S
O94 C89 1.254 . S
O95 Dy80 2.310 1_545 S
O95 Dy83 2.664 1_455 S
O95 C89 1.268 . S
O96 Dy80 2.351 1_545 S
O96 C99 1.249 . S
O97 Dy83 2.326 1_455 S
O97 C99 1.267 . S
C98 O90 1.249 . S
C98 O91 1.267 . S
C99 O96 1.249 . S
C99 O97 1.267 . S
Dy100 O104 2.398 . S
Dy100 O105 2.491 . S
Dy100 O106 2.403 . S
Dy100 O107 2.664 . S
Dy100 O111 2.326 . S
Dy100 O115 2.310 . S
Dy100 O116 2.351 . S
C101 O112 1.185 . S
C101 O113 1.355 . S
C102 O104 1.185 . S
C102 O105 1.355 . S
Dy103 O107 2.310 . S
Dy103 O110 2.351 . S
Dy103 O112 2.398 . S
Dy103 O113 2.491 . S
Dy103 O114 2.403 . S
Dy103 O115 2.664 . S
Dy103 O117 2.326 . S
O104 Dy100 2.398 . S
O104 C102 1.185 . S
O105 Dy100 2.491 . S
O105 C102 1.355 . S
O106 Dy100 2.403 . S
O106 C108 1.254 . S
O107 Dy100 2.664 . S
O107 Dy103 2.310 . S
O107 C108 1.268 . S
C108 O106 1.254 . S
C108 O107 1.268 . S
C109 O114 1.254 . S
C109 O115 1.268 . S
O110 Dy103 2.351 . S
O110 C118 1.249 . S
O111 Dy100 2.326 . S
O111 C118 1.267 . S
O112 C101 1.185 . S
O112 Dy103 2.398 . S
O113 C101 1.355 . S
O113 Dy103 2.491 . S
O114 Dy103 2.403 . S
O114 C109 1.254 . S
O115 Dy100 2.310 . S
O115 Dy103 2.664 . S
O115 C109 1.268 . S
O116 Dy100 2.351 . S
O116 C119 1.249 . S
O117 Dy103 2.326 . S
O117 C119 1.267 . S
C118 O110 1.249 . S
C118 O111 1.267 . S
C119 O116 1.249 . S
C119 O117 1.267 . S
Dy120 O124 2.398 1_554 S
Dy120 O125 2.491 1_554 S
Dy120 O126 2.403 1_565 S
Dy120 O127 2.664 1_565 S
Dy120 O131 2.326 1_564 S
Dy120 O135 2.310 1_554 S
Dy120 O136 2.351 . S
C121 O132 1.185 . S
C121 O133 1.355 . S
C122 O124 1.185 . S
C122 O125 1.355 . S
Dy123 O127 2.310 1_556 S
Dy123 O130 2.351 . S
Dy123 O132 2.398 1_556 S
Dy123 O133 2.491 1_556 S
Dy123 O134 2.403 1_545 S
Dy123 O135 2.664 1_545 S
Dy123 O137 2.326 1_546 S
O124 Dy120 2.398 1_556 S
O124 C122 1.185 . S
O125 Dy120 2.491 1_556 S
O125 C122 1.355 . S
O126 Dy120 2.403 1_545 S
O126 C128 1.254 . S
O127 Dy120 2.664 1_545 S
O127 Dy123 2.310 1_554 S
O127 C128 1.268 . S
C128 O126 1.254 . S
C128 O127 1.268 . S
C129 O134 1.254 . S
C129 O135 1.268 . S
O130 Dy123 2.351 . S
O130 C138 1.249 . S
O131 Dy120 2.326 1_546 S
O131 C138 1.267 . S
O132 C121 1.185 . S
O132 Dy123 2.398 1_554 S
O133 C121 1.355 . S
O133 Dy123 2.491 1_554 S
O134 Dy123 2.403 1_565 S
O134 C129 1.254 . S
O135 Dy120 2.310 1_556 S
O135 Dy123 2.664 1_565 S
O135 C129 1.268 . S
O136 Dy120 2.351 . S
O136 C139 1.249 . S
O137 Dy123 2.326 1_564 S
O137 C139 1.267 . S
C138 O130 1.249 . S
C138 O131 1.267 . S
C139 O136 1.249 . S
C139 O137 1.267 . S
Dy140 O144 2.398 . S
Dy140 O145 2.491 . S
Dy140 O146 2.403 . S
Dy140 O147 2.664 . S
Dy140 O151 2.326 . S
Dy140 O155 2.310 . S
Dy140 O156 2.351 . S
C141 O152 1.185 . S
C141 O153 1.355 . S
C142 O144 1.185 . S
C142 O145 1.355 . S
Dy143 O147 2.310 . S
Dy143 O150 2.351 . S
Dy143 O152 2.398 . S
Dy143 O153 2.491 . S
Dy143 O154 2.403 . S
Dy143 O155 2.664 . S
Dy143 O157 2.326 . S
O144 Dy140 2.398 . S
O144 C142 1.185 . S
O145 Dy140 2.491 . S
O145 C142 1.355 . S
O146 Dy140 2.403 . S
O146 C148 1.254 . S
O147 Dy140 2.664 . S
O147 Dy143 2.310 . S
O147 C148 1.268 . S
C148 O146 1.254 . S
C148 O147 1.268 . S
C149 O154 1.254 . S
C149 O155 1.268 . S
O150 Dy143 2.351 . S
O150 C158 1.249 . S
O151 Dy140 2.326 . S
O151 C158 1.267 . S
O152 C141 1.185 . S
O152 Dy143 2.398 . S
O153 C141 1.355 . S
O153 Dy143 2.491 . S
O154 Dy143 2.403 . S
O154 C149 1.254 . S
O155 Dy140 2.310 . S
O155 Dy143 2.664 . S
O155 C149 1.268 . S
O156 Dy140 2.351 . S
O156 C159 1.249 . S
O157 Dy143 2.326 . S
O157 C159 1.267 . S
C158 O150 1.249 . S
C158 O151 1.267 . S
C159 O156 1.249 . S
C159 O157 1.267 . S
Dy160 O164 2.398 . S
Dy160 O165 2.491 . S
Dy160 O166 2.403 1_554 S
Dy160 O167 2.664 1_554 S
Dy160 O171 2.326 . S
Dy160 O175 2.310 . S
Dy160 O176 2.351 1_554 S
C161 O172 1.185 . S
C161 O173 1.355 . S
C162 O164 1.185 . S
C162 O165 1.355 . S
Dy163 O167 2.310 . S
Dy163 O170 2.351 1_556 S
Dy163 O172 2.398 . S
Dy163 O173 2.491 . S
Dy163 O174 2.403 1_556 S
Dy163 O175 2.664 1_556 S
Dy163 O177 2.326 . S
O164 Dy160 2.398 . S
O164 C162 1.185 . S
O165 Dy160 2.491 . S
O165 C162 1.355 . S
O166 Dy160 2.403 1_556 S
O166 C168 1.254 . S
O167 Dy160 2.664 1_556 S
O167 Dy163 2.310 . S
O167 C168 1.268 . S
C168 O166 1.254 . S
C168 O167 1.268 . S
C169 O174 1.254 . S
C169 O175 1.268 . S
O170 Dy163 2.351 1_554 S
O170 C178 1.249 . S
O171 Dy160 2.326 . S
O171 C178 1.267 . S
O172 C161 1.185 . S
O172 Dy163 2.398 . S
O173 C161 1.355 . S
O173 Dy163 2.491 . S
O174 Dy163 2.403 1_554 S
O174 C169 1.254 . S
O175 Dy160 2.310 . S
O175 Dy163 2.664 1_554 S
O175 C169 1.268 . S
O176 Dy160 2.351 1_556 S
O176 C179 1.249 . S
O177 Dy163 2.326 . S
O177 C179 1.267 . S
C178 O170 1.249 . S
C178 O171 1.267 . S
C179 O176 1.249 . S
C179 O177 1.267 . S
Dy180 O184 2.398 . S
Dy180 O185 2.491 . S
Dy180 O186 2.403 . S
Dy180 O187 2.664 . S
Dy180 O191 2.326 . S
Dy180 O195 2.310 . S
Dy180 O196 2.351 . S
C181 O192 1.185 . S
C181 O193 1.355 . S
C182 O184 1.185 . S
C182 O185 1.355 . S
Dy183 O187 2.310 . S
Dy183 O190 2.351 . S
Dy183 O192 2.398 . S
Dy183 O193 2.491 . S
Dy183 O194 2.403 . S
Dy183 O195 2.664 . S
Dy183 O197 2.326 . S
O184 Dy180 2.398 . S
O184 C182 1.185 . S
O185 Dy180 2.491 . S
O185 C182 1.355 . S
O186 Dy180 2.403 . S
O186 C188 1.254 . S
O187 Dy180 2.664 . S
O187 Dy183 2.310 . S
O187 C188 1.268 . S
C188 O186 1.254 . S
C188 O187 1.268 . S
C189 O194 1.254 . S
C189 O195 1.268 . S
O190 Dy183 2.351 . S
O190 C198 1.249 . S
O191 Dy180 2.326 . S
O191 C198 1.267 . S
O192 C181 1.185 . S
O192 Dy183 2.398 . S
O193 C181 1.355 . S
O193 Dy183 2.491 . S
O194 Dy183 2.403 . S
O194 C189 1.254 . S
O195 Dy180 2.310 . S
O195 Dy183 2.664 . S
O195 C189 1.268 . S
O196 Dy180 2.351 . S
O196 C199 1.249 . S
O197 Dy183 2.326 . S
O197 C199 1.267 . S
C198 O190 1.249 . S
C198 O191 1.267 . S
C199 O196 1.249 . S
C199 O197 1.267 . S
Dy200 O204 2.398 . S
Dy200 O205 2.491 . S
Dy200 O206 2.403 . S
Dy200 O207 2.664 . S
Dy200 O211 2.326 . S
Dy200 O215 2.310 1_455 S
Dy200 O216 2.351 1_455 S
C201 O212 1.185 . S
C201 O213 1.355 . S
C202 O204 1.185 . S
C202 O205 1.355 . S
Dy203 O207 2.310 1_655 S
Dy203 O210 2.351 1_655 S
Dy203 O212 2.398 . S
Dy203 O213 2.491 . S
Dy203 O214 2.403 . S
Dy203 O215 2.664 . S
Dy203 O217 2.326 . S
O204 Dy200 2.398 . S
O204 C202 1.185 . S
O205 Dy200 2.491 . S
O205 C202 1.355 . S
O206 Dy200 2.403 . S
O206 C208 1.254 . S
O207 Dy200 2.664 . S
O207 Dy203 2.310 1_455 S
O207 C208 1.268 . S
C208 O206 1.254 . S
C208 O207 1.268 . S
C209 O214 1.254 . S
C209 O215 1.268 . S
O210 Dy203 2.351 1_455 S
O210 C218 1.249 . S
O211 Dy200 2.326 . S
O211 C218 1.267 . S
O212 C201 1.185 . S
O212 Dy203 2.398 . S
O213 C201 1.355 . S
O213 Dy203 2.491 . S
O214 Dy203 2.403 . S
O214 C209 1.254 . S
O215 Dy200 2.310 1_655 S
O215 Dy203 2.664 . S
O215 C209 1.268 . S
O216 Dy200 2.351 1_655 S
O216 C219 1.249 . S
O217 Dy203 2.326 . S
O217 C219 1.267 . S
C218 O210 1.249 . S
C218 O211 1.267 . S
C219 O216 1.249 . S
C219 O217 1.267 . S
Dy220 O224 2.398 . S
Dy220 O225 2.491 . S
Dy220 O226 2.403 . S
Dy220 O227 2.664 . S
Dy220 O231 2.326 . S
Dy220 O235 2.310 . S
Dy220 O236 2.351 . S
C221 O232 1.185 . S
C221 O233 1.355 . S
C222 O224 1.185 . S
C222 O225 1.355 . S
Dy223 O227 2.310 . S
Dy223 O230 2.351 . S
Dy223 O232 2.398 . S
Dy223 O233 2.491 . S
Dy223 O234 2.403 . S
Dy223 O235 2.664 . S
Dy223 O237 2.326 . S
O224 Dy220 2.398 . S
O224 C222 1.185 . S
O225 Dy220 2.491 . S
O225 C222 1.355 . S
O226 Dy220 2.403 . S
O226 C228 1.254 . S
O227 Dy220 2.664 . S
O227 Dy223 2.310 . S
O227 C228 1.268 . S
C228 O226 1.254 . S
C228 O227 1.268 . S
C229 O234 1.254 . S
C229 O235 1.268 . S
O230 Dy223 2.351 . S
O230 C238 1.249 . S
O231 Dy220 2.326 . S
O231 C238 1.267 . S
O232 C221 1.185 . S
O232 Dy223 2.398 . S
O233 C221 1.355 . S
O233 Dy223 2.491 . S
O234 Dy223 2.403 . S
O234 C229 1.254 . S
O235 Dy220 2.310 . S
O235 Dy223 2.664 . S
O235 C229 1.268 . S
O236 Dy220 2.351 . S
O236 C239 1.249 . S
O237 Dy223 2.326 . S
O237 C239 1.267 . S
C238 O230 1.249 . S
C238 O231 1.267 . S
C239 O236 1.249 . S
C239 O237 1.267 . S
Dy240 O244 2.398 . S
Dy240 O245 2.491 . S
Dy240 O246 2.403 . S
Dy240 O247 2.664 . S
Dy240 O251 2.326 . S
Dy240 O255 2.310 . S
Dy240 O256 2.351 . S
C241 O252 1.185 . S
C241 O253 1.355 . S
C242 O244 1.185 . S
C242 O245 1.355 . S
Dy243 O247 2.310 . S
Dy243 O250 2.351 . S
Dy243 O252 2.398 . S
Dy243 O253 2.491 . S
Dy243 O254 2.403 . S
Dy243 O255 2.664 . S
Dy243 O257 2.326 . S
O244 Dy240 2.398 . S
O244 C242 1.185 . S
O245 Dy240 2.491 . S
O245 C242 1.355 . S
O246 Dy240 2.403 . S
O246 C248 1.254 . S
O247 Dy240 2.664 . S
O247 Dy243 2.310 . S
O247 C248 1.268 . S
C248 O246 1.254 . S
C248 O247 1.268 . S
C249 O254 1.254 . S
C249 O255 1.268 . S
O250 Dy243 2.351 . S
O250 C258 1.249 . S
O251 Dy240 2.326 . S
O251 C258 1.267 . S
O252 C241 1.185 . S
O252 Dy243 2.398 . S
O253 C241 1.355 . S
O253 Dy243 2.491 . S
O254 Dy243 2.403 . S
O254 C249 1.254 . S
O255 Dy240 2.310 . S
O255 Dy243 2.664 . S
O255 C249 1.268 . S
O256 Dy240 2.351 . S
O256 C259 1.249 . S
O257 Dy243 2.326 . S
O257 C259 1.267 . S
C258 O250 1.249 . S
C258 O251 1.267 . S
C259 O256 1.249 . S
C259 O257 1.267 . S
Dy260 O264 2.398 . S
Dy260 O265 2.491 . S
Dy260 O266 2.403 . S
Dy260 O267 2.664 . S
Dy260 O271 2.326 . S
Dy260 O275 2.310 . S
Dy260 O276 2.351 . S
C261 O272 1.185 . S
C261 O273 1.355 . S
C262 O264 1.185 . S
C262 O265 1.355 . S
Dy263 O267 2.310 . S
Dy263 O270 2.351 . S
Dy263 O272 2.398 . S
Dy263 O273 2.491 . S
Dy263 O274 2.403 . S
Dy263 O275 2.664 . S
Dy263 O277 2.326 . S
O264 Dy260 2.398 . S
O264 C262 1.185 . S
O265 Dy260 2.491 . S
O265 C262 1.355 . S
O266 Dy260 2.403 . S
O266 C268 1.254 . S
O267 Dy260 2.664 . S
O267 Dy263 2.310 . S
O267 C268 1.268 . S
C268 O266 1.254 . S
C268 O267 1.268 . S
C269 O274 1.254 . S
C269 O275 1.268 . S
O270 Dy263 2.351 . S
O270 C278 1.249 . S
O271 Dy260 2.326 . S
O271 C278 1.267 . S
O272 C261 1.185 . S
O272 Dy263 2.398 . S
O273 C261 1.355 . S
O273 Dy263 2.491 . S
O274 Dy263 2.403 . S
O274 C269 1.254 . S
O275 Dy260 2.310 . S
O275 Dy263 2.664 . S
O275 C269 1.268 . S
O276 Dy260 2.351 . S
O276 C279 1.249 . S
O277 Dy263 2.326 . S
O277 C279 1.267 . S
C278 O270 1.249 . S
C278 O271 1.267 . S
C279 O276 1.249 . S
C279 O277 1.267 . S
Dy280 O284 2.398 . S
Dy280 O285 2.491 . S
Dy280 O286 2.403 . S
Dy280 O287 2.664 . S
Dy280 O291 2.326 . S
Dy280 O295 2.310 . S
Dy280 O296 2.351 . S
C281 O292 1.185 . S
C281 O293 1.355 . S
C282 O284 1.185 . S
C282 O285 1.355 . S
Dy283 O287 2.310 . S
Dy283 O290 2.351 . S
Dy283 O292 2.398 . S
Dy283 O293 2.491 . S
Dy283 O294 2.403 . S
Dy283 O295 2.664 . S
Dy283 O297 2.326 . S
O284 Dy280 2.398 . S
O284 C282 1.185 . S
O285 Dy280 2.491 . S
O285 C282 1.355 . S
O286 Dy280 2.403 . S
O286 C288 1.254 . S
O287 Dy280 2.664 . S
O287 Dy283 2.310 . S
O287 C288 1.268 . S
C288 O286 1.254 . S
C288 O287 1.268 . S
C289 O294 1.254 . S
C289 O295 1.268 . S
O290 Dy283 2.351 . S
O290 C298 1.249 . S
O291 Dy280 2.326 . S
O291 C298 1.267 . S
O292 C281 1.185 . S
O292 Dy283 2.398 . S
O293 C281 1.355 . S
O293 Dy283 2.491 . S
O294 Dy283 2.403 . S
O294 C289 1.254 . S
O295 Dy280 2.310 . S
O295 Dy283 2.664 . S
O295 C289 1.268 . S
O296 Dy280 2.351 . S
O296 C299 1.249 . S
O297 Dy283 2.326 . S
O297 C299 1.267 . S
C298 O290 1.249 . S
C298 O291 1.267 . S
C299 O296 1.249 . S
C299 O297 1.267 . S
Dy300 O304 2.398 . S
Dy300 O305 2.491 . S
Dy300 O306 2.403 1_554 S
Dy300 O307 2.664 1_554 S
Dy300 O311 2.326 1_554 S
Dy300 O315 2.310 1_655 S
Dy300 O316 2.351 1_655 S
C301 O312 1.185 . S
C301 O313 1.355 . S
C302 O304 1.185 . S
C302 O305 1.355 . S
Dy303 O307 2.310 1_455 S
Dy303 O310 2.351 1_455 S
Dy303 O312 2.398 . S
Dy303 O313 2.491 . S
Dy303 O314 2.403 1_556 S
Dy303 O315 2.664 1_556 S
Dy303 O317 2.326 1_556 S
O304 Dy300 2.398 . S
O304 C302 1.185 . S
O305 Dy300 2.491 . S
O305 C302 1.355 . S
O306 Dy300 2.403 1_556 S
O306 C308 1.254 . S
O307 Dy300 2.664 1_556 S
O307 Dy303 2.310 1_655 S
O307 C308 1.268 . S
C308 O306 1.254 . S
C308 O307 1.268 . S
C309 O314 1.254 . S
C309 O315 1.268 . S
O310 Dy303 2.351 1_655 S
O310 C318 1.249 . S
O311 Dy300 2.326 1_556 S
O311 C318 1.267 . S
O312 C301 1.185 . S
O312 Dy303 2.398 . S
O313 C301 1.355 . S
O313 Dy303 2.491 . S
O314 Dy303 2.403 1_554 S
O314 C309 1.254 . S
O315 Dy300 2.310 1_455 S
O315 Dy303 2.664 1_554 S
O315 C309 1.268 . S
O316 Dy300 2.351 1_455 S
O316 C319 1.249 . S
O317 Dy303 2.326 1_554 S
O317 C319 1.267 . S
C318 O310 1.249 . S
C318 O311 1.267 . S
C319 O316 1.249 . S
C319 O317 1.267 . S
C320 C321 1.391 . S
C320 C322 1.394 . S
C320 H336 0.931 . S
C321 C320 1.391 . S
C321 C325 1.376 . S
C322 C320 1.394 . S
C322 C323 1.369 . S
C322 C326 1.531 . S
C323 C322 1.369 . S
C323 C324 1.410 . S
C323 C331 1.503 . S
C324 C323 1.410 . S
C324 C325 1.392 . S
C324 C327 1.511 . S
C325 C321 1.376 . S
C325 C324 1.392 . S
C325 H337 0.929 . S
C326 C322 1.531 . S
C326 H338 0.960 . S
C326 H339 0.962 . S
C326 H340 0.960 . S
C327 C324 1.511 . S
C327 H341 0.961 . S
C327 H342 0.961 . S
C327 H343 0.961 . S
C328 C329 1.370 . S
C328 C330 1.363 . S
C328 H344 0.931 . S
C329 C328 1.370 . S
C329 C333 1.408 . S
C330 C328 1.363 . S
C330 C331 1.370 . S
C330 C334 1.524 . S
C331 C323 1.503 . S
C331 C330 1.370 . S
C331 C332 1.403 . S
C332 C331 1.403 . S
C332 C333 1.404 . S
C332 C335 1.539 . S
C333 C329 1.408 . S
C333 C332 1.404 . S
C333 H345 0.930 . S
C334 C330 1.524 . S
C334 H346 0.956 . S
C334 H347 0.961 . S
C334 H348 0.961 . S
C335 C332 1.539 . S
C335 H349 0.958 . S
C335 H350 0.961 . S
C335 H351 0.960 . S
H336 C320 0.931 . S
H337 C325 0.929 . S
H338 C326 0.960 . S
H339 C326 0.962 . S
H340 C326 0.960 . S
H341 C327 0.961 . S
H342 C327 0.961 . S
H343 C327 0.961 . S
H344 C328 0.931 . S
H345 C333 0.930 . S
H346 C334 0.956 . S
H347 C334 0.961 . S
H348 C334 0.961 . S
H349 C335 0.958 . S
H350 C335 0.961 . S
H351 C335 0.960 . S
C352 C353 1.391 . S
C352 C354 1.394 . S
C352 H368 0.931 . S
C353 C352 1.391 . S
C353 C357 1.376 . S
C354 C352 1.394 . S
C354 C355 1.369 . S
C354 C358 1.531 . S
C355 C354 1.369 . S
C355 C356 1.410 . S
C355 C363 1.503 . S
C356 C355 1.410 . S
C356 C357 1.392 . S
C356 C359 1.511 . S
C357 C353 1.376 . S
C357 C356 1.392 . S
C357 H369 0.929 . S
C358 C354 1.531 . S
C358 H370 0.960 . S
C358 H371 0.962 . S
C358 H372 0.960 . S
C359 C356 1.511 . S
C359 H373 0.961 . S
C359 H374 0.961 . S
C359 H375 0.961 . S
C360 C361 1.370 . S
C360 C362 1.363 . S
C360 H376 0.931 . S
C361 C360 1.370 . S
C361 C365 1.408 . S
C362 C360 1.363 . S
C362 C363 1.370 . S
C362 C366 1.524 . S
C363 C355 1.503 . S
C363 C362 1.370 . S
C363 C364 1.403 . S
C364 C363 1.403 . S
C364 C365 1.404 . S
C364 C367 1.539 . S
C365 C361 1.408 . S
C365 C364 1.404 . S
C365 H377 0.930 . S
C366 C362 1.524 . S
C366 H378 0.956 . S
C366 H379 0.961 . S
C366 H380 0.961 . S
C367 C364 1.539 . S
C367 H381 0.958 . S
C367 H382 0.961 . S
C367 H383 0.960 . S
H368 C352 0.931 . S
H369 C357 0.929 . S
H370 C358 0.960 . S
H371 C358 0.962 . S
H372 C358 0.960 . S
H373 C359 0.961 . S
H374 C359 0.961 . S
H375 C359 0.961 . S
H376 C360 0.931 . S
H377 C365 0.930 . S
H378 C366 0.956 . S
H379 C366 0.961 . S
H380 C366 0.961 . S
H381 C367 0.958 . S
H382 C367 0.961 . S
H383 C367 0.960 . S
C384 C385 1.391 . S
C384 C386 1.394 . S
C384 H400 0.931 . S
C385 C384 1.391 . S
C385 C389 1.376 . S
C386 C384 1.394 . S
C386 C387 1.369 . S
C386 C390 1.531 . S
C387 C386 1.369 . S
C387 C388 1.410 . S
C387 C395 1.503 . S
C388 C387 1.410 . S
C388 C389 1.392 . S
C388 C391 1.511 . S
C389 C385 1.376 . S
C389 C388 1.392 . S
C389 H401 0.929 . S
C390 C386 1.531 . S
C390 H402 0.960 . S
C390 H403 0.962 . S
C390 H404 0.960 . S
C391 C388 1.511 . S
C391 H405 0.961 . S
C391 H406 0.961 . S
C391 H407 0.961 . S
C392 C393 1.370 . S
C392 C394 1.363 . S
C392 H408 0.931 . S
C393 C392 1.370 . S
C393 C397 1.408 . S
C394 C392 1.363 . S
C394 C395 1.370 . S
C394 C398 1.524 . S
C395 C387 1.503 . S
C395 C394 1.370 . S
C395 C396 1.403 . S
C396 C395 1.403 . S
C396 C397 1.404 . S
C396 C399 1.539 . S
C397 C393 1.408 . S
C397 C396 1.404 . S
C397 H409 0.930 . S
C398 C394 1.524 . S
C398 H410 0.956 . S
C398 H411 0.961 . S
C398 H412 0.961 . S
C399 C396 1.539 . S
C399 H413 0.958 . S
C399 H414 0.961 . S
C399 H415 0.960 . S
H400 C384 0.931 . S
H401 C389 0.929 . S
H402 C390 0.960 . S
H403 C390 0.962 . S
H404 C390 0.960 . S
H405 C391 0.961 . S
H406 C391 0.961 . S
H407 C391 0.961 . S
H408 C392 0.931 . S
H409 C397 0.930 . S
H410 C398 0.956 . S
H411 C398 0.961 . S
H412 C398 0.961 . S
H413 C399 0.958 . S
H414 C399 0.961 . S
H415 C399 0.960 . S
C416 C417 1.391 . S
C416 C418 1.394 . S
C416 H432 0.931 . S
C417 C416 1.391 . S
C417 C421 1.376 . S
C418 C416 1.394 . S
C418 C419 1.369 . S
C418 C422 1.531 . S
C419 C418 1.369 . S
C419 C420 1.410 . S
C419 C427 1.503 . S
C420 C419 1.410 . S
C420 C421 1.392 . S
C420 C423 1.511 . S
C421 C417 1.376 . S
C421 C420 1.392 . S
C421 H433 0.929 . S
C422 C418 1.531 . S
C422 H434 0.960 . S
C422 H435 0.962 . S
C422 H436 0.960 . S
C423 C420 1.511 . S
C423 H437 0.961 . S
C423 H438 0.961 . S
C423 H439 0.961 . S
C424 C425 1.370 . S
C424 C426 1.363 . S
C424 H440 0.931 . S
C425 C424 1.370 . S
C425 C429 1.408 . S
C426 C424 1.363 . S
C426 C427 1.370 . S
C426 C430 1.524 . S
C427 C419 1.503 . S
C427 C426 1.370 . S
C427 C428 1.403 . S
C428 C427 1.403 . S
C428 C429 1.404 . S
C428 C431 1.539 . S
C429 C425 1.408 . S
C429 C428 1.404 . S
C429 H441 0.930 . S
C430 C426 1.524 . S
C430 H442 0.956 . S
C430 H443 0.961 . S
C430 H444 0.961 . S
C431 C428 1.539 . S
C431 H445 0.958 . S
C431 H446 0.961 . S
C431 H447 0.960 . S
H432 C416 0.931 . S
H433 C421 0.929 . S
H434 C422 0.960 . S
H435 C422 0.962 . S
H436 C422 0.960 . S
H437 C423 0.961 . S
H438 C423 0.961 . S
H439 C423 0.961 . S
H440 C424 0.931 . S
H441 C429 0.930 . S
H442 C430 0.956 . S
H443 C430 0.961 . S
H444 C430 0.961 . S
H445 C431 0.958 . S
H446 C431 0.961 . S
H447 C431 0.960 . S
C448 C449 1.391 . S
C448 C450 1.394 . S
C448 H464 0.931 . S
C449 C448 1.391 . S
C449 C453 1.376 . S
C450 C448 1.394 . S
C450 C451 1.369 . S
C450 C454 1.531 . S
C451 C450 1.369 . S
C451 C452 1.410 . S
C451 C459 1.503 . S
C452 C451 1.410 . S
C452 C453 1.392 . S
C452 C455 1.511 . S
C453 C449 1.376 . S
C453 C452 1.392 . S
C453 H465 0.929 . S
C454 C450 1.531 . S
C454 H466 0.960 . S
C454 H467 0.962 . S
C454 H468 0.960 . S
C455 C452 1.511 . S
C455 H469 0.961 . S
C455 H470 0.961 . S
C455 H471 0.961 . S
C456 C457 1.370 . S
C456 C458 1.363 . S
C456 H472 0.931 . S
C457 C456 1.370 . S
C457 C461 1.408 . S
C458 C456 1.363 . S
C458 C459 1.370 . S
C458 C462 1.524 . S
C459 C451 1.503 . S
C459 C458 1.370 . S
C459 C460 1.403 . S
C460 C459 1.403 . S
C460 C461 1.404 . S
C460 C463 1.539 . S
C461 C457 1.408 . S
C461 C460 1.404 . S
C461 H473 0.930 . S
C462 C458 1.524 . S
C462 H474 0.956 . S
C462 H475 0.961 . S
C462 H476 0.961 . S
C463 C460 1.539 . S
C463 H477 0.958 . S
C463 H478 0.961 . S
C463 H479 0.960 . S
H464 C448 0.931 . S
H465 C453 0.929 . S
H466 C454 0.960 . S
H467 C454 0.962 . S
H468 C454 0.960 . S
H469 C455 0.961 . S
H470 C455 0.961 . S
H471 C455 0.961 . S
H472 C456 0.931 . S
H473 C461 0.930 . S
H474 C462 0.956 . S
H475 C462 0.961 . S
H476 C462 0.961 . S
H477 C463 0.958 . S
H478 C463 0.961 . S
H479 C463 0.960 . S
C480 C481 1.391 . S
C480 C482 1.394 . S
C480 H496 0.931 . S
C481 C480 1.391 . S
C481 C485 1.376 . S
C482 C480 1.394 . S
C482 C483 1.369 . S
C482 C486 1.531 . S
C483 C482 1.369 . S
C483 C484 1.410 . S
C483 C491 1.503 . S
C484 C483 1.410 . S
C484 C485 1.392 . S
C484 C487 1.511 . S
C485 C481 1.376 . S
C485 C484 1.392 . S
C485 H497 0.929 . S
C486 C482 1.531 . S
C486 H498 0.960 . S
C486 H499 0.962 . S
C486 H500 0.960 . S
C487 C484 1.511 . S
C487 H501 0.961 . S
C487 H502 0.961 . S
C487 H503 0.961 . S
C488 C489 1.370 . S
C488 C490 1.363 . S
C488 H504 0.931 . S
C489 C488 1.370 . S
C489 C493 1.408 . S
C490 C488 1.363 . S
C490 C491 1.370 . S
C490 C494 1.524 . S
C491 C483 1.503 . S
C491 C490 1.370 . S
C491 C492 1.403 . S
C492 C491 1.403 . S
C492 C493 1.404 . S
C492 C495 1.539 . S
C493 C489 1.408 . S
C493 C492 1.404 . S
C493 H505 0.930 . S
C494 C490 1.524 . S
C494 H506 0.956 . S
C494 H507 0.961 . S
C494 H508 0.961 . S
C495 C492 1.539 . S
C495 H509 0.958 . S
C495 H510 0.961 . S
C495 H511 0.960 . S
H496 C480 0.931 . S
H497 C485 0.929 . S
H498 C486 0.960 . S
H499 C486 0.962 . S
H500 C486 0.960 . S
H501 C487 0.961 . S
H502 C487 0.961 . S
H503 C487 0.961 . S
H504 C488 0.931 . S
H505 C493 0.930 . S
H506 C494 0.956 . S
H507 C494 0.961 . S
H508 C494 0.961 . S
H509 C495 0.958 . S
H510 C495 0.961 . S
H511 C495 0.960 . S
C512 C513 1.391 . S
C512 C514 1.394 . S
C512 H528 0.931 . S
C513 C512 1.391 . S
C513 C517 1.376 . S
C514 C512 1.394 . S
C514 C515 1.369 . S
C514 C518 1.531 . S
C515 C514 1.369 . S
C515 C516 1.410 . S
C515 C523 1.503 . S
C516 C515 1.410 . S
C516 C517 1.392 . S
C516 C519 1.511 . S
C517 C513 1.376 . S
C517 C516 1.392 . S
C517 H529 0.929 . S
C518 C514 1.531 . S
C518 H530 0.960 . S
C518 H531 0.962 . S
C518 H532 0.960 . S
C519 C516 1.511 . S
C519 H533 0.961 . S
C519 H534 0.961 . S
C519 H535 0.961 . S
C520 C521 1.370 . S
C520 C522 1.363 . S
C520 H536 0.931 . S
C521 C520 1.370 . S
C521 C525 1.408 . S
C522 C520 1.363 . S
C522 C523 1.370 . S
C522 C526 1.524 . S
C523 C515 1.503 . S
C523 C522 1.370 . S
C523 C524 1.403 . S
C524 C523 1.403 . S
C524 C525 1.404 . S
C524 C527 1.539 . S
C525 C521 1.408 . S
C525 C524 1.404 . S
C525 H537 0.930 . S
C526 C522 1.524 . S
C526 H538 0.956 . S
C526 H539 0.961 . S
C526 H540 0.961 . S
C527 C524 1.539 . S
C527 H541 0.958 . S
C527 H542 0.961 . S
C527 H543 0.960 . S
H528 C512 0.931 . S
H529 C517 0.929 . S
H530 C518 0.960 . S
H531 C518 0.962 . S
H532 C518 0.960 . S
H533 C519 0.961 . S
H534 C519 0.961 . S
H535 C519 0.961 . S
H536 C520 0.931 . S
H537 C525 0.930 . S
H538 C526 0.956 . S
H539 C526 0.961 . S
H540 C526 0.961 . S
H541 C527 0.958 . S
H542 C527 0.961 . S
H543 C527 0.960 . S
C544 C545 1.391 . S
C544 C546 1.394 . S
C544 H560 0.931 . S
C545 C544 1.391 . S
C545 C549 1.376 . S
C546 C544 1.394 . S
C546 C547 1.369 . S
C546 C550 1.531 . S
C547 C546 1.369 . S
C547 C548 1.410 . S
C547 C555 1.503 . S
C548 C547 1.410 . S
C548 C549 1.392 . S
C548 C551 1.511 . S
C549 C545 1.376 . S
C549 C548 1.392 . S
C549 H561 0.929 . S
C550 C546 1.531 . S
C550 H562 0.960 . S
C550 H563 0.962 . S
C550 H564 0.960 . S
C551 C548 1.511 . S
C551 H565 0.961 . S
C551 H566 0.961 . S
C551 H567 0.961 . S
C552 C553 1.370 . S
C552 C554 1.363 . S
C552 H568 0.931 . S
C553 C552 1.370 . S
C553 C557 1.408 . S
C554 C552 1.363 . S
C554 C555 1.370 . S
C554 C558 1.524 . S
C555 C547 1.503 . S
C555 C554 1.370 . S
C555 C556 1.403 . S
C556 C555 1.403 . S
C556 C557 1.404 . S
C556 C559 1.539 . S
C557 C553 1.408 . S
C557 C556 1.404 . S
C557 H569 0.930 . S
C558 C554 1.524 . S
C558 H570 0.956 . S
C558 H571 0.961 . S
C558 H572 0.961 . S
C559 C556 1.539 . S
C559 H573 0.958 . S
C559 H574 0.961 . S
C559 H575 0.960 . S
H560 C544 0.931 . S
H561 C549 0.929 . S
H562 C550 0.960 . S
H563 C550 0.962 . S
H564 C550 0.960 . S
H565 C551 0.961 . S
H566 C551 0.961 . S
H567 C551 0.961 . S
H568 C552 0.931 . S
H569 C557 0.930 . S
H570 C558 0.956 . S
H571 C558 0.961 . S
H572 C558 0.961 . S
H573 C559 0.958 . S
H574 C559 0.961 . S
H575 C559 0.960 . S
C576 C577 1.391 . S
C576 C578 1.394 . S
C576 H592 0.931 . S
C577 C576 1.391 . S
C577 C581 1.376 . S
C578 C576 1.394 . S
C578 C579 1.369 . S
C578 C582 1.531 . S
C579 C578 1.369 . S
C579 C580 1.410 . S
C579 C587 1.503 . S
C580 C579 1.410 . S
C580 C581 1.392 . S
C580 C583 1.511 . S
C581 C577 1.376 . S
C581 C580 1.392 . S
C581 H593 0.929 . S
C582 C578 1.531 . S
C582 H594 0.960 . S
C582 H595 0.962 . S
C582 H596 0.960 . S
C583 C580 1.511 . S
C583 H597 0.961 . S
C583 H598 0.961 . S
C583 H599 0.961 . S
C584 C585 1.370 . S
C584 C586 1.363 . S
C584 H600 0.931 . S
C585 C584 1.370 . S
C585 C589 1.408 . S
C586 C584 1.363 . S
C586 C587 1.370 . S
C586 C590 1.524 . S
C587 C579 1.503 . S
C587 C586 1.370 . S
C587 C588 1.403 . S
C588 C587 1.403 . S
C588 C589 1.404 . S
C588 C591 1.539 . S
C589 C585 1.408 . S
C589 C588 1.404 . S
C589 H601 0.930 . S
C590 C586 1.524 . S
C590 H602 0.956 . S
C590 H603 0.961 . S
C590 H604 0.961 . S
C591 C588 1.539 . S
C591 H605 0.958 . S
C591 H606 0.961 . S
C591 H607 0.960 . S
H592 C576 0.931 . S
H593 C581 0.929 . S
H594 C582 0.960 . S
H595 C582 0.962 . S
H596 C582 0.960 . S
H597 C583 0.961 . S
H598 C583 0.961 . S
H599 C583 0.961 . S
H600 C584 0.931 . S
H601 C589 0.930 . S
H602 C590 0.956 . S
H603 C590 0.961 . S
H604 C590 0.961 . S
H605 C591 0.958 . S
H606 C591 0.961 . S
H607 C591 0.960 . S
C608 C609 1.391 . S
C608 C610 1.394 . S
C608 H624 0.931 . S
C609 C608 1.391 . S
C609 C613 1.376 . S
C610 C608 1.394 . S
C610 C611 1.369 . S
C610 C614 1.531 . S
C611 C610 1.369 . S
C611 C612 1.410 . S
C611 C619 1.503 . S
C612 C611 1.410 . S
C612 C613 1.392 . S
C612 C615 1.511 . S
C613 C609 1.376 . S
C613 C612 1.392 . S
C613 H625 0.929 . S
C614 C610 1.531 . S
C614 H626 0.960 . S
C614 H627 0.962 . S
C614 H628 0.960 . S
C615 C612 1.511 . S
C615 H629 0.961 . S
C615 H630 0.961 . S
C615 H631 0.961 . S
C616 C617 1.370 . S
C616 C618 1.363 . S
C616 H632 0.931 . S
C617 C616 1.370 . S
C617 C621 1.408 . S
C618 C616 1.363 . S
C618 C619 1.370 . S
C618 C622 1.524 . S
C619 C611 1.503 . S
C619 C618 1.370 . S
C619 C620 1.403 . S
C620 C619 1.403 . S
C620 C621 1.404 . S
C620 C623 1.539 . S
C621 C617 1.408 . S
C621 C620 1.404 . S
C621 H633 0.930 . S
C622 C618 1.524 . S
C622 H634 0.956 . S
C622 H635 0.961 . S
C622 H636 0.961 . S
C623 C620 1.539 . S
C623 H637 0.958 . S
C623 H638 0.961 . S
C623 H639 0.960 . S
H624 C608 0.931 . S
H625 C613 0.929 . S
H626 C614 0.960 . S
H627 C614 0.962 . S
H628 C614 0.960 . S
H629 C615 0.961 . S
H630 C615 0.961 . S
H631 C615 0.961 . S
H632 C616 0.931 . S
H633 C621 0.930 . S
H634 C622 0.956 . S
H635 C622 0.961 . S
H636 C622 0.961 . S
H637 C623 0.958 . S
H638 C623 0.961 . S
H639 C623 0.960 . S
C640 C641 1.391 . S
C640 C642 1.394 . S
C640 H656 0.931 . S
C641 C640 1.391 . S
C641 C645 1.376 . S
C642 C640 1.394 . S
C642 C643 1.369 . S
C642 C646 1.531 . S
C643 C642 1.369 . S
C643 C644 1.410 . S
C643 C651 1.503 . S
C644 C643 1.410 . S
C644 C645 1.392 . S
C644 C647 1.511 . S
C645 C641 1.376 . S
C645 C644 1.392 . S
C645 H657 0.929 . S
C646 C642 1.531 . S
C646 H658 0.960 . S
C646 H659 0.962 . S
C646 H660 0.960 . S
C647 C644 1.511 . S
C647 H661 0.961 . S
C647 H662 0.961 . S
C647 H663 0.961 . S
C648 C649 1.370 . S
C648 C650 1.363 . S
C648 H664 0.931 . S
C649 C648 1.370 . S
C649 C653 1.408 . S
C650 C648 1.363 . S
C650 C651 1.370 . S
C650 C654 1.524 . S
C651 C643 1.503 . S
C651 C650 1.370 . S
C651 C652 1.403 . S
C652 C651 1.403 . S
C652 C653 1.404 . S
C652 C655 1.539 . S
C653 C649 1.408 . S
C653 C652 1.404 . S
C653 H665 0.930 . S
C654 C650 1.524 . S
C654 H666 0.956 . S
C654 H667 0.961 . S
C654 H668 0.961 . S
C655 C652 1.539 . S
C655 H669 0.958 . S
C655 H670 0.961 . S
C655 H671 0.960 . S
H656 C640 0.931 . S
H657 C645 0.929 . S
H658 C646 0.960 . S
H659 C646 0.962 . S
H660 C646 0.960 . S
H661 C647 0.961 . S
H662 C647 0.961 . S
H663 C647 0.961 . S
H664 C648 0.931 . S
H665 C653 0.930 . S
H666 C654 0.956 . S
H667 C654 0.961 . S
H668 C654 0.961 . S
H669 C655 0.958 . S
H670 C655 0.961 . S
H671 C655 0.960 . S
C672 C673 1.391 . S
C672 C674 1.394 . S
C672 H688 0.931 . S
C673 C672 1.391 . S
C673 C677 1.376 . S
C674 C672 1.394 . S
C674 C675 1.369 . S
C674 C678 1.531 . S
C675 C674 1.369 . S
C675 C676 1.410 . S
C675 C683 1.503 . S
C676 C675 1.410 . S
C676 C677 1.392 . S
C676 C679 1.511 . S
C677 C673 1.376 . S
C677 C676 1.392 . S
C677 H689 0.929 . S
C678 C674 1.531 . S
C678 H690 0.960 . S
C678 H691 0.962 . S
C678 H692 0.960 . S
C679 C676 1.511 . S
C679 H693 0.961 . S
C679 H694 0.961 . S
C679 H695 0.961 . S
C680 C681 1.370 . S
C680 C682 1.363 . S
C680 H696 0.931 . S
C681 C680 1.370 . S
C681 C685 1.408 . S
C682 C680 1.363 . S
C682 C683 1.370 . S
C682 C686 1.524 . S
C683 C675 1.503 . S
C683 C682 1.370 . S
C683 C684 1.403 . S
C684 C683 1.403 . S
C684 C685 1.404 . S
C684 C687 1.539 . S
C685 C681 1.408 . S
C685 C684 1.404 . S
C685 H697 0.930 . S
C686 C682 1.524 . S
C686 H698 0.956 . S
C686 H699 0.961 . S
C686 H700 0.961 . S
C687 C684 1.539 . S
C687 H701 0.958 . S
C687 H702 0.961 . S
C687 H703 0.960 . S
H688 C672 0.931 . S
H689 C677 0.929 . S
H690 C678 0.960 . S
H691 C678 0.962 . S
H692 C678 0.960 . S
H693 C679 0.961 . S
H694 C679 0.961 . S
H695 C679 0.961 . S
H696 C680 0.931 . S
H697 C685 0.930 . S
H698 C686 0.956 . S
H699 C686 0.961 . S
H700 C686 0.961 . S
H701 C687 0.958 . S
H702 C687 0.961 . S
H703 C687 0.960 . S
C704 C705 1.391 . S
C704 C706 1.394 . S
C704 H720 0.931 . S
C705 C704 1.391 . S
C705 C709 1.376 . S
C706 C704 1.394 . S
C706 C707 1.369 . S
C706 C710 1.531 . S
C707 C706 1.369 . S
C707 C708 1.410 . S
C707 C715 1.503 . S
C708 C707 1.410 . S
C708 C709 1.392 . S
C708 C711 1.511 . S
C709 C705 1.376 . S
C709 C708 1.392 . S
C709 H721 0.929 . S
C710 C706 1.531 . S
C710 H722 0.960 . S
C710 H723 0.962 . S
C710 H724 0.960 . S
C711 C708 1.511 . S
C711 H725 0.961 . S
C711 H726 0.961 . S
C711 H727 0.961 . S
C712 C713 1.370 . S
C712 C714 1.363 . S
C712 H728 0.931 . S
C713 C712 1.370 . S
C713 C717 1.408 . S
C714 C712 1.363 . S
C714 C715 1.370 . S
C714 C718 1.524 . S
C715 C707 1.503 . S
C715 C714 1.370 . S
C715 C716 1.403 . S
C716 C715 1.403 . S
C716 C717 1.404 . S
C716 C719 1.539 . S
C717 C713 1.408 . S
C717 C716 1.404 . S
C717 H729 0.930 . S
C718 C714 1.524 . S
C718 H730 0.956 . S
C718 H731 0.961 . S
C718 H732 0.961 . S
C719 C716 1.539 . S
C719 H733 0.958 . S
C719 H734 0.961 . S
C719 H735 0.960 . S
H720 C704 0.931 . S
H721 C709 0.929 . S
H722 C710 0.960 . S
H723 C710 0.962 . S
H724 C710 0.960 . S
H725 C711 0.961 . S
H726 C711 0.961 . S
H727 C711 0.961 . S
H728 C712 0.931 . S
H729 C717 0.930 . S
H730 C718 0.956 . S
H731 C718 0.961 . S
H732 C718 0.961 . S
H733 C719 0.958 . S
H734 C719 0.961 . S
H735 C719 0.960 . S
C736 C737 1.391 . S
C736 C738 1.394 . S
C736 H752 0.931 . S
C737 C736 1.391 . S
C737 C741 1.376 . S
C738 C736 1.394 . S
C738 C739 1.369 . S
C738 C742 1.531 . S
C739 C738 1.369 . S
C739 C740 1.410 . S
C739 C747 1.503 . S
C740 C739 1.410 . S
C740 C741 1.392 . S
C740 C743 1.511 . S
C741 C737 1.376 . S
C741 C740 1.392 . S
C741 H753 0.929 . S
C742 C738 1.531 . S
C742 H754 0.960 . S
C742 H755 0.962 . S
C742 H756 0.960 . S
C743 C740 1.511 . S
C743 H757 0.961 . S
C743 H758 0.961 . S
C743 H759 0.961 . S
C744 C745 1.370 . S
C744 C746 1.363 . S
C744 H760 0.931 . S
C745 C744 1.370 . S
C745 C749 1.408 . S
C746 C744 1.363 . S
C746 C747 1.370 . S
C746 C750 1.524 . S
C747 C739 1.503 . S
C747 C746 1.370 . S
C747 C748 1.403 . S
C748 C747 1.403 . S
C748 C749 1.404 . S
C748 C751 1.539 . S
C749 C745 1.408 . S
C749 C748 1.404 . S
C749 H761 0.930 . S
C750 C746 1.524 . S
C750 H762 0.956 . S
C750 H763 0.961 . S
C750 H764 0.961 . S
C751 C748 1.539 . S
C751 H765 0.958 . S
C751 H766 0.961 . S
C751 H767 0.960 . S
H752 C736 0.931 . S
H753 C741 0.929 . S
H754 C742 0.960 . S
H755 C742 0.962 . S
H756 C742 0.960 . S
H757 C743 0.961 . S
H758 C743 0.961 . S
H759 C743 0.961 . S
H760 C744 0.931 . S
H761 C749 0.930 . S
H762 C750 0.956 . S
H763 C750 0.961 . S
H764 C750 0.961 . S
H765 C751 0.958 . S
H766 C751 0.961 . S
H767 C751 0.960 . S
C768 C769 1.391 . S
C768 C770 1.394 . S
C768 H784 0.931 . S
C769 C768 1.391 . S
C769 C773 1.376 . S
C770 C768 1.394 . S
C770 C771 1.369 . S
C770 C774 1.531 . S
C771 C770 1.369 . S
C771 C772 1.410 . S
C771 C779 1.503 . S
C772 C771 1.410 . S
C772 C773 1.392 . S
C772 C775 1.511 . S
C773 C769 1.376 . S
C773 C772 1.392 . S
C773 H785 0.929 . S
C774 C770 1.531 . S
C774 H786 0.960 . S
C774 H787 0.962 . S
C774 H788 0.960 . S
C775 C772 1.511 . S
C775 H789 0.961 . S
C775 H790 0.961 . S
C775 H791 0.961 . S
C776 C777 1.370 . S
C776 C778 1.363 . S
C776 H792 0.931 . S
C777 C776 1.370 . S
C777 C781 1.408 . S
C778 C776 1.363 . S
C778 C779 1.370 . S
C778 C782 1.524 . S
C779 C771 1.503 . S
C779 C778 1.370 . S
C779 C780 1.403 . S
C780 C779 1.403 . S
C780 C781 1.404 . S
C780 C783 1.539 . S
C781 C777 1.408 . S
C781 C780 1.404 . S
C781 H793 0.930 . S
C782 C778 1.524 . S
C782 H794 0.956 . S
C782 H795 0.961 . S
C782 H796 0.961 . S
C783 C780 1.539 . S
C783 H797 0.958 . S
C783 H798 0.961 . S
C783 H799 0.960 . S
H784 C768 0.931 . S
H785 C773 0.929 . S
H786 C774 0.960 . S
H787 C774 0.962 . S
H788 C774 0.960 . S
H789 C775 0.961 . S
H790 C775 0.961 . S
H791 C775 0.961 . S
H792 C776 0.931 . S
H793 C781 0.930 . S
H794 C782 0.956 . S
H795 C782 0.961 . S
H796 C782 0.961 . S
H797 C783 0.958 . S
H798 C783 0.961 . S
H799 C783 0.960 . S
C800 C801 1.391 . S
C800 C802 1.394 . S
C800 H816 0.931 . S
C801 C800 1.391 . S
C801 C805 1.376 . S
C802 C800 1.394 . S
C802 C803 1.369 . S
C802 C806 1.531 . S
C803 C802 1.369 . S
C803 C804 1.410 . S
C803 C811 1.503 . S
C804 C803 1.410 . S
C804 C805 1.392 . S
C804 C807 1.511 . S
C805 C801 1.376 . S
C805 C804 1.392 . S
C805 H817 0.929 . S
C806 C802 1.531 . S
C806 H818 0.960 . S
C806 H819 0.962 . S
C806 H820 0.960 . S
C807 C804 1.511 . S
C807 H821 0.961 . S
C807 H822 0.961 . S
C807 H823 0.961 . S
C808 C809 1.370 . S
C808 C810 1.363 . S
C808 H824 0.931 . S
C809 C808 1.370 . S
C809 C813 1.408 . S
C810 C808 1.363 . S
C810 C811 1.370 . S
C810 C814 1.524 . S
C811 C803 1.503 . S
C811 C810 1.370 . S
C811 C812 1.403 . S
C812 C811 1.403 . S
C812 C813 1.404 . S
C812 C815 1.539 . S
C813 C809 1.408 . S
C813 C812 1.404 . S
C813 H825 0.930 . S
C814 C810 1.524 . S
C814 H826 0.956 . S
C814 H827 0.961 . S
C814 H828 0.961 . S
C815 C812 1.539 . S
C815 H829 0.958 . S
C815 H830 0.961 . S
C815 H831 0.960 . S
H816 C800 0.931 . S
H817 C805 0.929 . S
H818 C806 0.960 . S
H819 C806 0.962 . S
H820 C806 0.960 . S
H821 C807 0.961 . S
H822 C807 0.961 . S
H823 C807 0.961 . S
H824 C808 0.931 . S
H825 C813 0.930 . S
H826 C814 0.956 . S
H827 C814 0.961 . S
H828 C814 0.961 . S
H829 C815 0.958 . S
H830 C815 0.961 . S
H831 C815 0.960 . S
C832 C833 1.391 . S
C832 C834 1.394 . S
C832 H848 0.931 . S
C833 C832 1.391 . S
C833 C837 1.376 . S
C834 C832 1.394 . S
C834 C835 1.369 . S
C834 C838 1.531 . S
C835 C834 1.369 . S
C835 C836 1.410 . S
C835 C843 1.503 . S
C836 C835 1.410 . S
C836 C837 1.392 . S
C836 C839 1.511 . S
C837 C833 1.376 . S
C837 C836 1.392 . S
C837 H849 0.929 . S
C838 C834 1.531 . S
C838 H850 0.960 . S
C838 H851 0.962 . S
C838 H852 0.960 . S
C839 C836 1.511 . S
C839 H853 0.961 . S
C839 H854 0.961 . S
C839 H855 0.961 . S
C840 C841 1.370 . S
C840 C842 1.363 . S
C840 H856 0.931 . S
C841 C840 1.370 . S
C841 C845 1.408 . S
C842 C840 1.363 . S
C842 C843 1.370 . S
C842 C846 1.524 . S
C843 C835 1.503 . S
C843 C842 1.370 . S
C843 C844 1.403 . S
C844 C843 1.403 . S
C844 C845 1.404 . S
C844 C847 1.539 . S
C845 C841 1.408 . S
C845 C844 1.404 . S
C845 H857 0.930 . S
C846 C842 1.524 . S
C846 H858 0.956 . S
C846 H859 0.961 . S
C846 H860 0.961 . S
C847 C844 1.539 . S
C847 H861 0.958 . S
C847 H862 0.961 . S
C847 H863 0.960 . S
H848 C832 0.931 . S
H849 C837 0.929 . S
H850 C838 0.960 . S
H851 C838 0.962 . S
H852 C838 0.960 . S
H853 C839 0.961 . S
H854 C839 0.961 . S
H855 C839 0.961 . S
H856 C840 0.931 . S
H857 C845 0.930 . S
H858 C846 0.956 . S
H859 C846 0.961 . S
H860 C846 0.961 . S
H861 C847 0.958 . S
H862 C847 0.961 . S
H863 C847 0.960 . S
C864 C865 1.391 . S
C864 C866 1.394 . S
C864 H880 0.931 . S
C865 C864 1.391 . S
C865 C869 1.376 . S
C866 C864 1.394 . S
C866 C867 1.369 . S
C866 C870 1.531 . S
C867 C866 1.369 . S
C867 C868 1.410 . S
C867 C875 1.503 . S
C868 C867 1.410 . S
C868 C869 1.392 . S
C868 C871 1.511 . S
C869 C865 1.376 . S
C869 C868 1.392 . S
C869 H881 0.929 . S
C870 C866 1.531 . S
C870 H882 0.960 . S
C870 H883 0.962 . S
C870 H884 0.960 . S
C871 C868 1.511 . S
C871 H885 0.961 . S
C871 H886 0.961 . S
C871 H887 0.961 . S
C872 C873 1.370 . S
C872 C874 1.363 . S
C872 H888 0.931 . S
C873 C872 1.370 . S
C873 C877 1.408 . S
C874 C872 1.363 . S
C874 C875 1.370 . S
C874 C878 1.524 . S
C875 C867 1.503 . S
C875 C874 1.370 . S
C875 C876 1.403 . S
C876 C875 1.403 . S
C876 C877 1.404 . S
C876 C879 1.539 . S
C877 C873 1.408 . S
C877 C876 1.404 . S
C877 H889 0.930 . S
C878 C874 1.524 . S
C878 H890 0.956 . S
C878 H891 0.961 . S
C878 H892 0.961 . S
C879 C876 1.539 . S
C879 H893 0.958 . S
C879 H894 0.961 . S
C879 H895 0.960 . S
H880 C864 0.931 . S
H881 C869 0.929 . S
H882 C870 0.960 . S
H883 C870 0.962 . S
H884 C870 0.960 . S
H885 C871 0.961 . S
H886 C871 0.961 . S
H887 C871 0.961 . S
H888 C872 0.931 . S
H889 C877 0.930 . S
H890 C878 0.956 . S
H891 C878 0.961 . S
H892 C878 0.961 . S
H893 C879 0.958 . S
H894 C879 0.961 . S
H895 C879 0.960 . S
C896 C897 1.391 . S
C896 C898 1.394 . S
C896 H912 0.931 . S
C897 C896 1.391 . S
C897 C901 1.376 . S
C898 C896 1.394 . S
C898 C899 1.369 . S
C898 C902 1.531 . S
C899 C898 1.369 . S
C899 C900 1.410 . S
C899 C907 1.503 . S
C900 C899 1.410 . S
C900 C901 1.392 . S
C900 C903 1.511 . S
C901 C897 1.376 . S
C901 C900 1.392 . S
C901 H913 0.929 . S
C902 C898 1.531 . S
C902 H914 0.960 . S
C902 H915 0.962 . S
C902 H916 0.960 . S
C903 C900 1.511 . S
C903 H917 0.961 . S
C903 H918 0.961 . S
C903 H919 0.961 . S
C904 C905 1.370 . S
C904 C906 1.363 . S
C904 H920 0.931 . S
C905 C904 1.370 . S
C905 C909 1.408 . S
C906 C904 1.363 . S
C906 C907 1.370 . S
C906 C910 1.524 . S
C907 C899 1.503 . S
C907 C906 1.370 . S
C907 C908 1.403 . S
C908 C907 1.403 . S
C908 C909 1.404 . S
C908 C911 1.539 . S
C909 C905 1.408 . S
C909 C908 1.404 . S
C909 H921 0.930 . S
C910 C906 1.524 . S
C910 H922 0.956 . S
C910 H923 0.961 . S
C910 H924 0.961 . S
C911 C908 1.539 . S
C911 H925 0.958 . S
C911 H926 0.961 . S
C911 H927 0.960 . S
H912 C896 0.931 . S
H913 C901 0.929 . S
H914 C902 0.960 . S
H915 C902 0.962 . S
H916 C902 0.960 . S
H917 C903 0.961 . S
H918 C903 0.961 . S
H919 C903 0.961 . S
H920 C904 0.931 . S
H921 C909 0.930 . S
H922 C910 0.956 . S
H923 C910 0.961 . S
H924 C910 0.961 . S
H925 C911 0.958 . S
H926 C911 0.961 . S
H927 C911 0.960 . S
C928 C929 1.391 . S
C928 C930 1.394 . S
C928 H944 0.931 . S
C929 C928 1.391 . S
C929 C933 1.376 . S
C930 C928 1.394 . S
C930 C931 1.369 . S
C930 C934 1.531 . S
C931 C930 1.369 . S
C931 C932 1.410 . S
C931 C939 1.503 . S
C932 C931 1.410 . S
C932 C933 1.392 . S
C932 C935 1.511 . S
C933 C929 1.376 . S
C933 C932 1.392 . S
C933 H945 0.929 . S
C934 C930 1.531 . S
C934 H946 0.960 . S
C934 H947 0.962 . S
C934 H948 0.960 . S
C935 C932 1.511 . S
C935 H949 0.961 . S
C935 H950 0.961 . S
C935 H951 0.961 . S
C936 C937 1.370 . S
C936 C938 1.363 . S
C936 H952 0.931 . S
C937 C936 1.370 . S
C937 C941 1.408 . S
C938 C936 1.363 . S
C938 C939 1.370 . S
C938 C942 1.524 . S
C939 C931 1.503 . S
C939 C938 1.370 . S
C939 C940 1.403 . S
C940 C939 1.403 . S
C940 C941 1.404 . S
C940 C943 1.539 . S
C941 C937 1.408 . S
C941 C940 1.404 . S
C941 H953 0.930 . S
C942 C938 1.524 . S
C942 H954 0.956 . S
C942 H955 0.961 . S
C942 H956 0.961 . S
C943 C940 1.539 . S
C943 H957 0.958 . S
C943 H958 0.961 . S
C943 H959 0.960 . S
H944 C928 0.931 . S
H945 C933 0.929 . S
H946 C934 0.960 . S
H947 C934 0.962 . S
H948 C934 0.960 . S
H949 C935 0.961 . S
H950 C935 0.961 . S
H951 C935 0.961 . S
H952 C936 0.931 . S
H953 C941 0.930 . S
H954 C942 0.956 . S
H955 C942 0.961 . S
H956 C942 0.961 . S
H957 C943 0.958 . S
H958 C943 0.961 . S
H959 C943 0.960 . S
C960 C961 1.391 . S
C960 C962 1.394 . S
C960 H976 0.931 . S
C961 C960 1.391 . S
C961 C965 1.376 . S
C962 C960 1.394 . S
C962 C963 1.369 . S
C962 C966 1.531 . S
C963 C962 1.369 . S
C963 C964 1.410 . S
C963 C971 1.503 . S
C964 C963 1.410 . S
C964 C965 1.392 . S
C964 C967 1.511 . S
C965 C961 1.376 . S
C965 C964 1.392 . S
C965 H977 0.929 . S
C966 C962 1.531 . S
C966 H978 0.960 . S
C966 H979 0.962 . S
C966 H980 0.960 . S
C967 C964 1.511 . S
C967 H981 0.961 . S
C967 H982 0.961 . S
C967 H983 0.961 . S
C968 C969 1.370 . S
C968 C970 1.363 . S
C968 H984 0.931 . S
C969 C968 1.370 . S
C969 C973 1.408 . S
C970 C968 1.363 . S
C970 C971 1.370 . S
C970 C974 1.524 . S
C971 C963 1.503 . S
C971 C970 1.370 . S
C971 C972 1.403 . S
C972 C971 1.403 . S
C972 C973 1.404 . S
C972 C975 1.539 . S
C973 C969 1.408 . S
C973 C972 1.404 . S
C973 H985 0.930 . S
C974 C970 1.524 . S
C974 H986 0.956 . S
C974 H987 0.961 . S
C974 H988 0.961 . S
C975 C972 1.539 . S
C975 H989 0.958 . S
C975 H990 0.961 . S
C975 H991 0.960 . S
H976 C960 0.931 . S
H977 C965 0.929 . S
H978 C966 0.960 . S
H979 C966 0.962 . S
H980 C966 0.960 . S
H981 C967 0.961 . S
H982 C967 0.961 . S
H983 C967 0.961 . S
H984 C968 0.931 . S
H985 C973 0.930 . S
H986 C974 0.956 . S
H987 C974 0.961 . S
H988 C974 0.961 . S
H989 C975 0.958 . S
H990 C975 0.961 . S
H991 C975 0.960 . S
C992 C993 1.391 . S
C992 C994 1.394 . S
C992 H1008 0.931 . S
C993 C992 1.391 . S
C993 C997 1.376 . S
C994 C992 1.394 . S
C994 C995 1.369 . S
C994 C998 1.531 . S
C995 C994 1.369 . S
C995 C996 1.410 . S
C995 C1003 1.503 . S
C996 C995 1.410 . S
C996 C997 1.392 . S
C996 C999 1.511 . S
C997 C993 1.376 . S
C997 C996 1.392 . S
C997 H1009 0.929 . S
C998 C994 1.531 . S
C998 H1010 0.960 . S
C998 H1011 0.962 . S
C998 H1012 0.960 . S
C999 C996 1.511 . S
C999 H1013 0.961 . S
C999 H1014 0.961 . S
C999 H1015 0.961 . S
C1000 C1001 1.370 . S
C1000 C1002 1.363 . S
C1000 H1016 0.931 . S
C1001 C1000 1.370 . S
C1001 C1005 1.408 . S
C1002 C1000 1.363 . S
C1002 C1003 1.370 . S
C1002 C1006 1.524 . S
C1003 C995 1.503 . S
C1003 C1002 1.370 . S
C1003 C1004 1.403 . S
C1004 C1003 1.403 . S
C1004 C1005 1.404 . S
C1004 C1007 1.539 . S
C1005 C1001 1.408 . S
C1005 C1004 1.404 . S
C1005 H1017 0.930 1_554 S
C1006 C1002 1.524 . S
C1006 H1018 0.956 . S
C1006 H1019 0.961 . S
C1006 H1020 0.961 . S
C1007 C1004 1.539 . S
C1007 H1021 0.958 . S
C1007 H1022 0.961 . S
C1007 H1023 0.960 . S
H1008 C992 0.931 . S
H1009 C997 0.929 . S
H1010 C998 0.960 . S
H1011 C998 0.962 . S
H1012 C998 0.960 . S
H1013 C999 0.961 . S
H1014 C999 0.961 . S
H1015 C999 0.961 . S
H1016 C1000 0.931 . S
H1017 C1005 0.930 1_556 S
H1018 C1006 0.956 . S
H1019 C1006 0.961 . S
H1020 C1006 0.961 . S
H1021 C1007 0.958 . S
H1022 C1007 0.961 . S
H1023 C1007 0.960 . S
C1024 C1025 1.391 . S
C1024 C1026 1.394 . S
C1024 H1040 0.931 . S
C1025 C1024 1.391 . S
C1025 C1029 1.376 . S
C1026 C1024 1.394 . S
C1026 C1027 1.369 . S
C1026 C1030 1.531 . S
C1027 C1026 1.369 . S
C1027 C1028 1.410 . S
C1027 C1035 1.503 . S
C1028 C1027 1.410 . S
C1028 C1029 1.392 . S
C1028 C1031 1.511 . S
C1029 C1025 1.376 . S
C1029 C1028 1.392 . S
C1029 H1041 0.929 . S
C1030 C1026 1.531 . S
C1030 H1042 0.960 . S
C1030 H1043 0.962 . S
C1030 H1044 0.960 . S
C1031 C1028 1.511 . S
C1031 H1045 0.961 . S
C1031 H1046 0.961 . S
C1031 H1047 0.961 . S
C1032 C1033 1.370 . S
C1032 C1034 1.363 . S
C1032 H1048 0.931 . S
C1033 C1032 1.370 . S
C1033 C1037 1.408 . S
C1034 C1032 1.363 . S
C1034 C1035 1.370 . S
C1034 C1038 1.524 . S
C1035 C1027 1.503 . S
C1035 C1034 1.370 . S
C1035 C1036 1.403 . S
C1036 C1035 1.403 . S
C1036 C1037 1.404 . S
C1036 C1039 1.539 . S
C1037 C1033 1.408 . S
C1037 C1036 1.404 . S
C1037 H1049 0.930 . S
C1038 C1034 1.524 . S
C1038 H1050 0.956 . S
C1038 H1051 0.961 . S
C1038 H1052 0.961 . S
C1039 C1036 1.539 . S
C1039 H1053 0.958 . S
C1039 H1054 0.961 . S
C1039 H1055 0.960 . S
H1040 C1024 0.931 . S
H1041 C1029 0.929 . S
H1042 C1030 0.960 . S
H1043 C1030 0.962 . S
H1044 C1030 0.960 . S
H1045 C1031 0.961 . S
H1046 C1031 0.961 . S
H1047 C1031 0.961 . S
H1048 C1032 0.931 . S
H1049 C1037 0.930 . S
H1050 C1038 0.956 . S
H1051 C1038 0.961 . S
H1052 C1038 0.961 . S
H1053 C1039 0.958 . S
H1054 C1039 0.961 . S
H1055 C1039 0.960 . S
C1056 C1057 1.391 . S
C1056 C1058 1.394 . S
C1056 H1072 0.931 . S
C1057 C1056 1.391 . S
C1057 C1061 1.376 . S
C1058 C1056 1.394 . S
C1058 C1059 1.369 . S
C1058 C1062 1.531 . S
C1059 C1058 1.369 . S
C1059 C1060 1.410 . S
C1059 C1067 1.503 . S
C1060 C1059 1.410 . S
C1060 C1061 1.392 . S
C1060 C1063 1.511 . S
C1061 C1057 1.376 . S
C1061 C1060 1.392 . S
C1061 H1073 0.929 . S
C1062 C1058 1.531 . S
C1062 H1074 0.960 . S
C1062 H1075 0.962 . S
C1062 H1076 0.960 . S
C1063 C1060 1.511 . S
C1063 H1077 0.961 . S
C1063 H1078 0.961 . S
C1063 H1079 0.961 . S
C1064 C1065 1.370 . S
C1064 C1066 1.363 . S
C1064 H1080 0.931 . S
C1065 C1064 1.370 . S
C1065 C1069 1.408 . S
C1066 C1064 1.363 . S
C1066 C1067 1.370 . S
C1066 C1070 1.524 . S
C1067 C1059 1.503 . S
C1067 C1066 1.370 . S
C1067 C1068 1.403 . S
C1068 C1067 1.403 . S
C1068 C1069 1.404 . S
C1068 C1071 1.539 . S
C1069 C1065 1.408 . S
C1069 C1068 1.404 . S
C1069 H1081 0.930 . S
C1070 C1066 1.524 . S
C1070 H1082 0.956 . S
C1070 H1083 0.961 . S
C1070 H1084 0.961 . S
C1071 C1068 1.539 . S
C1071 H1085 0.958 . S
C1071 H1086 0.961 . S
C1071 H1087 0.960 . S
H1072 C1056 0.931 . S
H1073 C1061 0.929 . S
H1074 C1062 0.960 . S
H1075 C1062 0.962 . S
H1076 C1062 0.960 . S
H1077 C1063 0.961 . S
H1078 C1063 0.961 . S
H1079 C1063 0.961 . S
H1080 C1064 0.931 . S
H1081 C1069 0.930 . S
H1082 C1070 0.956 . S
H1083 C1070 0.961 . S
H1084 C1070 0.961 . S
H1085 C1071 0.958 . S
H1086 C1071 0.961 . S
H1087 C1071 0.960 . S
C1088 C1089 1.391 . S
C1088 C1090 1.394 . S
C1088 H1104 0.931 . S
C1089 C1088 1.391 . S
C1089 C1093 1.376 . S
C1090 C1088 1.394 . S
C1090 C1091 1.369 . S
C1090 C1094 1.531 . S
C1091 C1090 1.369 . S
C1091 C1092 1.410 . S
C1091 C1099 1.503 . S
C1092 C1091 1.410 . S
C1092 C1093 1.392 . S
C1092 C1095 1.511 . S
C1093 C1089 1.376 . S
C1093 C1092 1.392 . S
C1093 H1105 0.929 . S
C1094 C1090 1.531 . S
C1094 H1106 0.960 . S
C1094 H1107 0.962 . S
C1094 H1108 0.960 . S
C1095 C1092 1.511 . S
C1095 H1109 0.961 . S
C1095 H1110 0.961 . S
C1095 H1111 0.961 . S
C1096 C1097 1.370 . S
C1096 C1098 1.363 . S
C1096 H1112 0.931 . S
C1097 C1096 1.370 . S
C1097 C1101 1.408 . S
C1098 C1096 1.363 . S
C1098 C1099 1.370 . S
C1098 C1102 1.524 . S
C1099 C1091 1.503 . S
C1099 C1098 1.370 . S
C1099 C1100 1.403 . S
C1100 C1099 1.403 . S
C1100 C1101 1.404 . S
C1100 C1103 1.539 . S
C1101 C1097 1.408 . S
C1101 C1100 1.404 . S
C1101 H1113 0.930 . S
C1102 C1098 1.524 . S
C1102 H1114 0.956 . S
C1102 H1115 0.961 . S
C1102 H1116 0.961 . S
C1103 C1100 1.539 . S
C1103 H1117 0.958 . S
C1103 H1118 0.961 . S
C1103 H1119 0.960 . S
H1104 C1088 0.931 . S
H1105 C1093 0.929 . S
H1106 C1094 0.960 . S
H1107 C1094 0.962 . S
H1108 C1094 0.960 . S
H1109 C1095 0.961 . S
H1110 C1095 0.961 . S
H1111 C1095 0.961 . S
H1112 C1096 0.931 . S
H1113 C1101 0.930 . S
H1114 C1102 0.956 . S
H1115 C1102 0.961 . S
H1116 C1102 0.961 . S
H1117 C1103 0.958 . S
H1118 C1103 0.961 . S
H1119 C1103 0.960 . S
C1120 C1121 1.391 . S
C1120 C1122 1.394 . S
C1120 H1136 0.931 . S
C1121 C1120 1.391 . S
C1121 C1125 1.376 . S
C1122 C1120 1.394 . S
C1122 C1123 1.369 . S
C1122 C1126 1.531 . S
C1123 C1122 1.369 . S
C1123 C1124 1.410 . S
C1123 C1131 1.503 . S
C1124 C1123 1.410 . S
C1124 C1125 1.392 . S
C1124 C1127 1.511 . S
C1125 C1121 1.376 . S
C1125 C1124 1.392 . S
C1125 H1137 0.929 . S
C1126 C1122 1.531 . S
C1126 H1138 0.960 . S
C1126 H1139 0.962 . S
C1126 H1140 0.960 . S
C1127 C1124 1.511 . S
C1127 H1141 0.961 . S
C1127 H1142 0.961 . S
C1127 H1143 0.961 . S
C1128 C1129 1.370 . S
C1128 C1130 1.363 . S
C1128 H1144 0.931 . S
C1129 C1128 1.370 . S
C1129 C1133 1.408 . S
C1130 C1128 1.363 . S
C1130 C1131 1.370 . S
C1130 C1134 1.524 . S
C1131 C1123 1.503 . S
C1131 C1130 1.370 . S
C1131 C1132 1.403 . S
C1132 C1131 1.403 . S
C1132 C1133 1.404 . S
C1132 C1135 1.539 . S
C1133 C1129 1.408 . S
C1133 C1132 1.404 . S
C1133 H1145 0.930 . S
C1134 C1130 1.524 . S
C1134 H1146 0.956 . S
C1134 H1147 0.961 . S
C1134 H1148 0.961 . S
C1135 C1132 1.539 . S
C1135 H1149 0.958 . S
C1135 H1150 0.961 . S
C1135 H1151 0.960 . S
H1136 C1120 0.931 . S
H1137 C1125 0.929 . S
H1138 C1126 0.960 . S
H1139 C1126 0.962 . S
H1140 C1126 0.960 . S
H1141 C1127 0.961 . S
H1142 C1127 0.961 . S
H1143 C1127 0.961 . S
H1144 C1128 0.931 . S
H1145 C1133 0.930 . S
H1146 C1134 0.956 . S
H1147 C1134 0.961 . S
H1148 C1134 0.961 . S
H1149 C1135 0.958 . S
H1150 C1135 0.961 . S
H1151 C1135 0.960 . S
C1152 C1153 1.391 . S
C1152 C1154 1.394 . S
C1152 H1168 0.931 . S
C1153 C1152 1.391 . S
C1153 C1157 1.376 . S
C1154 C1152 1.394 . S
C1154 C1155 1.369 . S
C1154 C1158 1.531 . S
C1155 C1154 1.369 . S
C1155 C1156 1.410 . S
C1155 C1163 1.503 . S
C1156 C1155 1.410 . S
C1156 C1157 1.392 . S
C1156 C1159 1.511 . S
C1157 C1153 1.376 . S
C1157 C1156 1.392 . S
C1157 H1169 0.929 . S
C1158 C1154 1.531 . S
C1158 H1170 0.960 . S
C1158 H1171 0.962 . S
C1158 H1172 0.960 . S
C1159 C1156 1.511 . S
C1159 H1173 0.961 . S
C1159 H1174 0.961 . S
C1159 H1175 0.961 . S
C1160 C1161 1.370 . S
C1160 C1162 1.363 . S
C1160 H1176 0.931 . S
C1161 C1160 1.370 . S
C1161 C1165 1.408 . S
C1162 C1160 1.363 . S
C1162 C1163 1.370 . S
C1162 C1166 1.524 . S
C1163 C1155 1.503 . S
C1163 C1162 1.370 . S
C1163 C1164 1.403 . S
C1164 C1163 1.403 . S
C1164 C1165 1.404 . S
C1164 C1167 1.539 . S
C1165 C1161 1.408 . S
C1165 C1164 1.404 . S
C1165 H1177 0.930 . S
C1166 C1162 1.524 . S
C1166 H1178 0.956 . S
C1166 H1179 0.961 . S
C1166 H1180 0.961 . S
C1167 C1164 1.539 . S
C1167 H1181 0.958 . S
C1167 H1182 0.961 . S
C1167 H1183 0.960 . S
H1168 C1152 0.931 . S
H1169 C1157 0.929 . S
H1170 C1158 0.960 . S
H1171 C1158 0.962 . S
H1172 C1158 0.960 . S
H1173 C1159 0.961 . S
H1174 C1159 0.961 . S
H1175 C1159 0.961 . S
H1176 C1160 0.931 . S
H1177 C1165 0.930 . S
H1178 C1166 0.956 . S
H1179 C1166 0.961 . S
H1180 C1166 0.961 . S
H1181 C1167 0.958 . S
H1182 C1167 0.961 . S
H1183 C1167 0.960 . S
C1184 C1185 1.391 . S
C1184 C1186 1.394 . S
C1184 H1200 0.931 . S
C1185 C1184 1.391 . S
C1185 C1189 1.376 . S
C1186 C1184 1.394 . S
C1186 C1187 1.369 . S
C1186 C1190 1.531 . S
C1187 C1186 1.369 . S
C1187 C1188 1.410 . S
C1187 C1195 1.503 . S
C1188 C1187 1.410 . S
C1188 C1189 1.392 . S
C1188 C1191 1.511 . S
C1189 C1185 1.376 . S
C1189 C1188 1.392 . S
C1189 H1201 0.929 . S
C1190 C1186 1.531 . S
C1190 H1202 0.960 . S
C1190 H1203 0.962 . S
C1190 H1204 0.960 . S
C1191 C1188 1.511 . S
C1191 H1205 0.961 . S
C1191 H1206 0.961 . S
C1191 H1207 0.961 . S
C1192 C1193 1.370 . S
C1192 C1194 1.363 . S
C1192 H1208 0.931 . S
C1193 C1192 1.370 . S
C1193 C1197 1.408 . S
C1194 C1192 1.363 . S
C1194 C1195 1.370 . S
C1194 C1198 1.524 . S
C1195 C1187 1.503 . S
C1195 C1194 1.370 . S
C1195 C1196 1.403 . S
C1196 C1195 1.403 . S
C1196 C1197 1.404 . S
C1196 C1199 1.539 . S
C1197 C1193 1.408 . S
C1197 C1196 1.404 . S
C1197 H1209 0.930 . S
C1198 C1194 1.524 . S
C1198 H1210 0.956 . S
C1198 H1211 0.961 . S
C1198 H1212 0.961 . S
C1199 C1196 1.539 . S
C1199 H1213 0.958 . S
C1199 H1214 0.961 . S
C1199 H1215 0.960 . S
H1200 C1184 0.931 . S
H1201 C1189 0.929 . S
H1202 C1190 0.960 . S
H1203 C1190 0.962 . S
H1204 C1190 0.960 . S
H1205 C1191 0.961 . S
H1206 C1191 0.961 . S
H1207 C1191 0.961 . S
H1208 C1192 0.931 . S
H1209 C1197 0.930 . S
H1210 C1198 0.956 . S
H1211 C1198 0.961 . S
H1212 C1198 0.961 . S
H1213 C1199 0.958 . S
H1214 C1199 0.961 . S
H1215 C1199 0.960 . S
C1216 C1217 1.391 . S
C1216 C1218 1.394 . S
C1216 H1232 0.931 . S
C1217 C1216 1.391 . S
C1217 C1221 1.376 . S
C1218 C1216 1.394 . S
C1218 C1219 1.369 . S
C1218 C1222 1.531 . S
C1219 C1218 1.369 . S
C1219 C1220 1.410 . S
C1219 C1227 1.503 . S
C1220 C1219 1.410 . S
C1220 C1221 1.392 . S
C1220 C1223 1.511 . S
C1221 C1217 1.376 . S
C1221 C1220 1.392 . S
C1221 H1233 0.929 . S
C1222 C1218 1.531 . S
C1222 H1234 0.960 . S
C1222 H1235 0.962 . S
C1222 H1236 0.960 . S
C1223 C1220 1.511 . S
C1223 H1237 0.961 . S
C1223 H1238 0.961 . S
C1223 H1239 0.961 . S
C1224 C1225 1.370 . S
C1224 C1226 1.363 . S
C1224 H1240 0.931 . S
C1225 C1224 1.370 . S
C1225 C1229 1.408 . S
C1226 C1224 1.363 . S
C1226 C1227 1.370 . S
C1226 C1230 1.524 . S
C1227 C1219 1.503 . S
C1227 C1226 1.370 . S
C1227 C1228 1.403 . S
C1228 C1227 1.403 . S
C1228 C1229 1.404 . S
C1228 C1231 1.539 . S
C1229 C1225 1.408 . S
C1229 C1228 1.404 . S
C1229 H1241 0.930 . S
C1230 C1226 1.524 . S
C1230 H1242 0.956 . S
C1230 H1243 0.961 . S
C1230 H1244 0.961 . S
C1231 C1228 1.539 . S
C1231 H1245 0.958 . S
C1231 H1246 0.961 . S
C1231 H1247 0.960 . S
H1232 C1216 0.931 . S
H1233 C1221 0.929 . S
H1234 C1222 0.960 . S
H1235 C1222 0.962 . S
H1236 C1222 0.960 . S
H1237 C1223 0.961 . S
H1238 C1223 0.961 . S
H1239 C1223 0.961 . S
H1240 C1224 0.931 . S
H1241 C1229 0.930 . S
H1242 C1230 0.956 . S
H1243 C1230 0.961 . S
H1244 C1230 0.961 . S
H1245 C1231 0.958 . S
H1246 C1231 0.961 . S
H1247 C1231 0.960 . S
C1248 C1249 1.391 . S
C1248 C1250 1.394 . S
C1248 H1264 0.931 . S
C1249 C1248 1.391 . S
C1249 C1253 1.376 . S
C1250 C1248 1.394 . S
C1250 C1251 1.369 . S
C1250 C1254 1.531 . S
C1251 C1250 1.369 . S
C1251 C1252 1.410 . S
C1251 C1259 1.503 . S
C1252 C1251 1.410 . S
C1252 C1253 1.392 . S
C1252 C1255 1.511 . S
C1253 C1249 1.376 . S
C1253 C1252 1.392 . S
C1253 H1265 0.929 . S
C1254 C1250 1.531 . S
C1254 H1266 0.960 . S
C1254 H1267 0.962 . S
C1254 H1268 0.960 . S
C1255 C1252 1.511 . S
C1255 H1269 0.961 . S
C1255 H1270 0.961 . S
C1255 H1271 0.961 . S
C1256 C1257 1.370 . S
C1256 C1258 1.363 . S
C1256 H1272 0.931 . S
C1257 C1256 1.370 . S
C1257 C1261 1.408 . S
C1258 C1256 1.363 . S
C1258 C1259 1.370 . S
C1258 C1262 1.524 . S
C1259 C1251 1.503 . S
C1259 C1258 1.370 . S
C1259 C1260 1.403 . S
C1260 C1259 1.403 . S
C1260 C1261 1.404 . S
C1260 C1263 1.539 . S
C1261 C1257 1.408 . S
C1261 C1260 1.404 . S
C1261 H1273 0.930 . S
C1262 C1258 1.524 . S
C1262 H1274 0.956 . S
C1262 H1275 0.961 . S
C1262 H1276 0.961 . S
C1263 C1260 1.539 . S
C1263 H1277 0.958 . S
C1263 H1278 0.961 . S
C1263 H1279 0.960 . S
H1264 C1248 0.931 . S
H1265 C1253 0.929 . S
H1266 C1254 0.960 . S
H1267 C1254 0.962 . S
H1268 C1254 0.960 . S
H1269 C1255 0.961 . S
H1270 C1255 0.961 . S
H1271 C1255 0.961 . S
H1272 C1256 0.931 . S
H1273 C1261 0.930 . S
H1274 C1262 0.956 . S
H1275 C1262 0.961 . S
H1276 C1262 0.961 . S
H1277 C1263 0.958 . S
H1278 C1263 0.961 . S
H1279 C1263 0.960 . S
C1280 C1281 1.391 . S
C1280 C1282 1.394 . S
C1280 H1296 0.931 . S
C1281 C1280 1.391 . S
C1281 C1285 1.376 . S
C1282 C1280 1.394 . S
C1282 C1283 1.369 . S
C1282 C1286 1.531 . S
C1283 C1282 1.369 . S
C1283 C1284 1.410 . S
C1283 C1291 1.503 . S
C1284 C1283 1.410 . S
C1284 C1285 1.392 . S
C1284 C1287 1.511 . S
C1285 C1281 1.376 . S
C1285 C1284 1.392 . S
C1285 H1297 0.929 . S
C1286 C1282 1.531 . S
C1286 H1298 0.960 . S
C1286 H1299 0.962 . S
C1286 H1300 0.960 . S
C1287 C1284 1.511 . S
C1287 H1301 0.961 . S
C1287 H1302 0.961 . S
C1287 H1303 0.961 . S
C1288 C1289 1.370 . S
C1288 C1290 1.363 . S
C1288 H1304 0.931 . S
C1289 C1288 1.370 . S
C1289 C1293 1.408 . S
C1290 C1288 1.363 . S
C1290 C1291 1.370 . S
C1290 C1294 1.524 . S
C1291 C1283 1.503 . S
C1291 C1290 1.370 . S
C1291 C1292 1.403 . S
C1292 C1291 1.403 . S
C1292 C1293 1.404 . S
C1292 C1295 1.539 . S
C1293 C1289 1.408 . S
C1293 C1292 1.404 . S
C1293 H1305 0.930 . S
C1294 C1290 1.524 . S
C1294 H1306 0.956 . S
C1294 H1307 0.961 . S
C1294 H1308 0.961 . S
C1295 C1292 1.539 . S
C1295 H1309 0.958 . S
C1295 H1310 0.961 . S
C1295 H1311 0.960 . S
H1296 C1280 0.931 . S
H1297 C1285 0.929 . S
H1298 C1286 0.960 . S
H1299 C1286 0.962 . S
H1300 C1286 0.960 . S
H1301 C1287 0.961 . S
H1302 C1287 0.961 . S
H1303 C1287 0.961 . S
H1304 C1288 0.931 . S
H1305 C1293 0.930 . S
H1306 C1294 0.956 . S
H1307 C1294 0.961 . S
H1308 C1294 0.961 . S
H1309 C1295 0.958 . S
H1310 C1295 0.961 . S
H1311 C1295 0.960 . S
C1312 C1313 1.391 . S
C1312 C1314 1.394 . S
C1312 H1328 0.931 . S
C1313 C1312 1.391 . S
C1313 C1317 1.376 . S
C1314 C1312 1.394 . S
C1314 C1315 1.369 . S
C1314 C1318 1.531 . S
C1315 C1314 1.369 . S
C1315 C1316 1.410 . S
C1315 C1323 1.503 . S
C1316 C1315 1.410 . S
C1316 C1317 1.392 . S
C1316 C1319 1.511 . S
C1317 C1313 1.376 . S
C1317 C1316 1.392 . S
C1317 H1329 0.929 . S
C1318 C1314 1.531 . S
C1318 H1330 0.960 . S
C1318 H1331 0.962 . S
C1318 H1332 0.960 . S
C1319 C1316 1.511 . S
C1319 H1333 0.961 . S
C1319 H1334 0.961 . S
C1319 H1335 0.961 . S
C1320 C1321 1.370 . S
C1320 C1322 1.363 . S
C1320 H1336 0.931 . S
C1321 C1320 1.370 . S
C1321 C1325 1.408 . S
C1322 C1320 1.363 . S
C1322 C1323 1.370 . S
C1322 C1326 1.524 . S
C1323 C1315 1.503 . S
C1323 C1322 1.370 . S
C1323 C1324 1.403 . S
C1324 C1323 1.403 . S
C1324 C1325 1.404 . S
C1324 C1327 1.539 . S
C1325 C1321 1.408 . S
C1325 C1324 1.404 . S
C1325 H1337 0.930 . S
C1326 C1322 1.524 . S
C1326 H1338 0.956 . S
C1326 H1339 0.961 . S
C1326 H1340 0.961 . S
C1327 C1324 1.539 . S
C1327 H1341 0.958 . S
C1327 H1342 0.961 . S
C1327 H1343 0.960 . S
H1328 C1312 0.931 . S
H1329 C1317 0.929 . S
H1330 C1318 0.960 . S
H1331 C1318 0.962 . S
H1332 C1318 0.960 . S
H1333 C1319 0.961 . S
H1334 C1319 0.961 . S
H1335 C1319 0.961 . S
H1336 C1320 0.931 . S
H1337 C1325 0.930 . S
H1338 C1326 0.956 . S
H1339 C1326 0.961 . S
H1340 C1326 0.961 . S
H1341 C1327 0.958 . S
H1342 C1327 0.961 . S
H1343 C1327 0.960 . S
C1344 C1345 1.391 . S
C1344 C1346 1.394 . S
C1344 H1360 0.931 . S
C1345 C1344 1.391 . S
C1345 C1349 1.376 . S
C1346 C1344 1.394 . S
C1346 C1347 1.369 . S
C1346 C1350 1.531 . S
C1347 C1346 1.369 . S
C1347 C1348 1.410 . S
C1347 C1355 1.503 . S
C1348 C1347 1.410 . S
C1348 C1349 1.392 . S
C1348 C1351 1.511 . S
C1349 C1345 1.376 . S
C1349 C1348 1.392 . S
C1349 H1361 0.929 . S
C1350 C1346 1.531 . S
C1350 H1362 0.960 . S
C1350 H1363 0.962 . S
C1350 H1364 0.960 . S
C1351 C1348 1.511 . S
C1351 H1365 0.961 . S
C1351 H1366 0.961 . S
C1351 H1367 0.961 . S
C1352 C1353 1.370 . S
C1352 C1354 1.363 . S
C1352 H1368 0.931 . S
C1353 C1352 1.370 . S
C1353 C1357 1.408 . S
C1354 C1352 1.363 . S
C1354 C1355 1.370 . S
C1354 C1358 1.524 . S
C1355 C1347 1.503 . S
C1355 C1354 1.370 . S
C1355 C1356 1.403 . S
C1356 C1355 1.403 . S
C1356 C1357 1.404 . S
C1356 C1359 1.539 . S
C1357 C1353 1.408 . S
C1357 C1356 1.404 . S
C1357 H1369 0.930 . S
C1358 C1354 1.524 . S
C1358 H1370 0.956 . S
C1358 H1371 0.961 . S
C1358 H1372 0.961 . S
C1359 C1356 1.539 . S
C1359 H1373 0.958 . S
C1359 H1374 0.961 . S
C1359 H1375 0.960 . S
H1360 C1344 0.931 . S
H1361 C1349 0.929 . S
H1362 C1350 0.960 . S
H1363 C1350 0.962 . S
H1364 C1350 0.960 . S
H1365 C1351 0.961 . S
H1366 C1351 0.961 . S
H1367 C1351 0.961 . S
H1368 C1352 0.931 . S
H1369 C1357 0.930 . S
H1370 C1358 0.956 . S
H1371 C1358 0.961 . S
H1372 C1358 0.961 . S
H1373 C1359 0.958 . S
H1374 C1359 0.961 . S
H1375 C1359 0.960 . S
C1376 C1377 1.391 . S
C1376 C1378 1.394 . S
C1376 H1392 0.931 . S
C1377 C1376 1.391 . S
C1377 C1381 1.376 . S
C1378 C1376 1.394 . S
C1378 C1379 1.369 . S
C1378 C1382 1.531 . S
C1379 C1378 1.369 . S
C1379 C1380 1.410 . S
C1379 C1387 1.503 . S
C1380 C1379 1.410 . S
C1380 C1381 1.392 . S
C1380 C1383 1.511 . S
C1381 C1377 1.376 . S
C1381 C1380 1.392 . S
C1381 H1393 0.929 . S
C1382 C1378 1.531 . S
C1382 H1394 0.960 . S
C1382 H1395 0.962 . S
C1382 H1396 0.960 . S
C1383 C1380 1.511 . S
C1383 H1397 0.961 . S
C1383 H1398 0.961 . S
C1383 H1399 0.961 . S
C1384 C1385 1.370 . S
C1384 C1386 1.363 . S
C1384 H1400 0.931 . S
C1385 C1384 1.370 . S
C1385 C1389 1.408 . S
C1386 C1384 1.363 . S
C1386 C1387 1.370 . S
C1386 C1390 1.524 . S
C1387 C1379 1.503 . S
C1387 C1386 1.370 . S
C1387 C1388 1.403 . S
C1388 C1387 1.403 . S
C1388 C1389 1.404 . S
C1388 C1391 1.539 . S
C1389 C1385 1.408 . S
C1389 C1388 1.404 . S
C1389 H1401 0.930 . S
C1390 C1386 1.524 . S
C1390 H1402 0.956 . S
C1390 H1403 0.961 . S
C1390 H1404 0.961 . S
C1391 C1388 1.539 . S
C1391 H1405 0.958 . S
C1391 H1406 0.961 . S
C1391 H1407 0.960 . S
H1392 C1376 0.931 . S
H1393 C1381 0.929 . S
H1394 C1382 0.960 . S
H1395 C1382 0.962 . S
H1396 C1382 0.960 . S
H1397 C1383 0.961 . S
H1398 C1383 0.961 . S
H1399 C1383 0.961 . S
H1400 C1384 0.931 . S
H1401 C1389 0.930 . S
H1402 C1390 0.956 . S
H1403 C1390 0.961 . S
H1404 C1390 0.961 . S
H1405 C1391 0.958 . S
H1406 C1391 0.961 . S
H1407 C1391 0.960 . S
C1408 C1409 1.391 . S
C1408 C1410 1.394 . S
C1408 H1424 0.931 . S
C1409 C1408 1.391 . S
C1409 C1413 1.376 . S
C1410 C1408 1.394 . S
C1410 C1411 1.369 . S
C1410 C1414 1.531 . S
C1411 C1410 1.369 . S
C1411 C1412 1.410 . S
C1411 C1419 1.503 . S
C1412 C1411 1.410 . S
C1412 C1413 1.392 . S
C1412 C1415 1.511 . S
C1413 C1409 1.376 . S
C1413 C1412 1.392 . S
C1413 H1425 0.929 . S
C1414 C1410 1.531 . S
C1414 H1426 0.960 . S
C1414 H1427 0.962 . S
C1414 H1428 0.960 . S
C1415 C1412 1.511 . S
C1415 H1429 0.961 . S
C1415 H1430 0.961 . S
C1415 H1431 0.961 . S
C1416 C1417 1.370 . S
C1416 C1418 1.363 . S
C1416 H1432 0.931 . S
C1417 C1416 1.370 . S
C1417 C1421 1.408 . S
C1418 C1416 1.363 . S
C1418 C1419 1.370 . S
C1418 C1422 1.524 . S
C1419 C1411 1.503 . S
C1419 C1418 1.370 . S
C1419 C1420 1.403 . S
C1420 C1419 1.403 . S
C1420 C1421 1.404 . S
C1420 C1423 1.539 . S
C1421 C1417 1.408 . S
C1421 C1420 1.404 . S
C1421 H1433 0.930 . S
C1422 C1418 1.524 . S
C1422 H1434 0.956 . S
C1422 H1435 0.961 . S
C1422 H1436 0.961 . S
C1423 C1420 1.539 . S
C1423 H1437 0.958 . S
C1423 H1438 0.961 . S
C1423 H1439 0.960 . S
H1424 C1408 0.931 . S
H1425 C1413 0.929 . S
H1426 C1414 0.960 . S
H1427 C1414 0.962 . S
H1428 C1414 0.960 . S
H1429 C1415 0.961 . S
H1430 C1415 0.961 . S
H1431 C1415 0.961 . S
H1432 C1416 0.931 . S
H1433 C1421 0.930 . S
H1434 C1422 0.956 . S
H1435 C1422 0.961 . S
H1436 C1422 0.961 . S
H1437 C1423 0.958 . S
H1438 C1423 0.961 . S
H1439 C1423 0.960 . S
C1440 C1441 1.391 . S
C1440 C1442 1.394 . S
C1440 H1456 0.931 . S
C1441 C1440 1.391 . S
C1441 C1445 1.376 . S
C1442 C1440 1.394 . S
C1442 C1443 1.369 . S
C1442 C1446 1.531 . S
C1443 C1442 1.369 . S
C1443 C1444 1.410 . S
C1443 C1451 1.503 . S
C1444 C1443 1.410 . S
C1444 C1445 1.392 . S
C1444 C1447 1.511 . S
C1445 C1441 1.376 . S
C1445 C1444 1.392 . S
C1445 H1457 0.929 . S
C1446 C1442 1.531 . S
C1446 H1458 0.960 . S
C1446 H1459 0.962 . S
C1446 H1460 0.960 . S
C1447 C1444 1.511 . S
C1447 H1461 0.961 . S
C1447 H1462 0.961 . S
C1447 H1463 0.961 . S
C1448 C1449 1.370 . S
C1448 C1450 1.363 . S
C1448 H1464 0.931 . S
C1449 C1448 1.370 . S
C1449 C1453 1.408 . S
C1450 C1448 1.363 . S
C1450 C1451 1.370 . S
C1450 C1454 1.524 . S
C1451 C1443 1.503 . S
C1451 C1450 1.370 . S
C1451 C1452 1.403 . S
C1452 C1451 1.403 . S
C1452 C1453 1.404 . S
C1452 C1455 1.539 . S
C1453 C1449 1.408 . S
C1453 C1452 1.404 . S
C1453 H1465 0.930 . S
C1454 C1450 1.524 . S
C1454 H1466 0.956 . S
C1454 H1467 0.961 . S
C1454 H1468 0.961 . S
C1455 C1452 1.539 . S
C1455 H1469 0.958 . S
C1455 H1470 0.961 . S
C1455 H1471 0.960 . S
H1456 C1440 0.931 . S
H1457 C1445 0.929 . S
H1458 C1446 0.960 . S
H1459 C1446 0.962 . S
H1460 C1446 0.960 . S
H1461 C1447 0.961 . S
H1462 C1447 0.961 . S
H1463 C1447 0.961 . S
H1464 C1448 0.931 . S
H1465 C1453 0.930 . S
H1466 C1454 0.956 . S
H1467 C1454 0.961 . S
H1468 C1454 0.961 . S
H1469 C1455 0.958 . S
H1470 C1455 0.961 . S
H1471 C1455 0.960 . S
C1472 C1473 1.391 . S
C1472 C1474 1.394 . S
C1472 H1488 0.931 . S
C1473 C1472 1.391 . S
C1473 C1477 1.376 . S
C1474 C1472 1.394 . S
C1474 C1475 1.369 . S
C1474 C1478 1.531 . S
C1475 C1474 1.369 . S
C1475 C1476 1.410 . S
C1475 C1483 1.503 . S
C1476 C1475 1.410 . S
C1476 C1477 1.392 . S
C1476 C1479 1.511 . S
C1477 C1473 1.376 . S
C1477 C1476 1.392 . S
C1477 H1489 0.942 . S
C1478 C1474 1.531 . S
C1478 H1490 0.960 . S
C1478 H1491 0.962 . S
C1478 H1492 0.960 . S
C1479 C1476 1.511 . S
C1479 H1493 0.961 1_655 S
C1479 H1494 0.961 . S
C1479 H1495 0.961 . S
C1480 C1481 1.370 . S
C1480 C1482 1.363 . S
C1480 H1496 0.931 . S
C1481 C1480 1.370 . S
C1481 C1485 1.408 . S
C1482 C1480 1.363 . S
C1482 C1483 1.370 . S
C1482 C1486 1.524 . S
C1483 C1475 1.503 . S
C1483 C1482 1.370 . S
C1483 C1484 1.403 . S
C1484 C1483 1.403 . S
C1484 C1485 1.404 . S
C1484 C1487 1.539 . S
C1485 C1481 1.408 . S
C1485 C1484 1.404 . S
C1485 H1497 0.930 . S
C1486 C1482 1.524 . S
C1486 H1498 0.956 . S
C1486 H1499 0.961 . S
C1486 H1500 0.961 . S
C1487 C1484 1.539 . S
C1487 H1501 0.958 . S
C1487 H1502 0.961 . S
C1487 H1503 0.960 . S
H1488 C1472 0.931 . S
H1489 C1477 0.942 . S
H1490 C1478 0.960 . S
H1491 C1478 0.962 . S
H1492 C1478 0.960 . S
H1493 C1479 0.961 1_455 S
H1494 C1479 0.961 . S
H1495 C1479 0.961 . S
H1496 C1480 0.931 . S
H1497 C1485 0.930 . S
H1498 C1486 0.956 . S
H1499 C1486 0.961 . S
H1500 C1486 0.961 . S
H1501 C1487 0.958 . S
H1502 C1487 0.961 . S
H1503 C1487 0.960 . S
C1504 C1505 1.391 . S
C1504 C1506 1.394 . S
C1504 H1520 0.931 . S
C1505 C1504 1.391 . S
C1505 C1509 1.376 . S
C1506 C1504 1.394 . S
C1506 C1507 1.369 . S
C1506 C1510 1.531 . S
C1507 C1506 1.369 . S
C1507 C1508 1.410 . S
C1507 C1515 1.503 . S
C1508 C1507 1.410 . S
C1508 C1509 1.392 . S
C1508 C1511 1.511 . S
C1509 C1505 1.376 . S
C1509 C1508 1.392 . S
C1509 H1521 0.929 . S
C1510 C1506 1.531 . S
C1510 H1522 0.960 . S
C1510 H1523 0.962 . S
C1510 H1524 0.960 . S
C1511 C1508 1.511 . S
C1511 H1525 0.961 . S
C1511 H1526 0.961 . S
C1511 H1527 0.961 . S
C1512 C1513 1.370 . S
C1512 C1514 1.363 . S
C1512 H1528 0.931 . S
C1513 C1512 1.370 . S
C1513 C1517 1.408 . S
C1514 C1512 1.363 . S
C1514 C1515 1.370 . S
C1514 C1518 1.524 . S
C1515 C1507 1.503 . S
C1515 C1514 1.370 . S
C1515 C1516 1.403 . S
C1516 C1515 1.403 . S
C1516 C1517 1.404 . S
C1516 C1519 1.539 . S
C1517 C1513 1.408 . S
C1517 C1516 1.404 . S
C1517 H1529 0.930 . S
C1518 C1514 1.524 . S
C1518 H1530 0.956 . S
C1518 H1531 0.961 . S
C1518 H1532 0.961 . S
C1519 C1516 1.539 . S
C1519 H1533 0.958 . S
C1519 H1534 0.961 . S
C1519 H1535 0.960 . S
H1520 C1504 0.931 . S
H1521 C1509 0.929 . S
H1522 C1510 0.960 . S
H1523 C1510 0.962 . S
H1524 C1510 0.960 . S
H1525 C1511 0.961 . S
H1526 C1511 0.961 . S
H1527 C1511 0.961 . S
H1528 C1512 0.931 . S
H1529 C1517 0.930 . S
H1530 C1518 0.956 . S
H1531 C1518 0.961 . S
H1532 C1518 0.961 . S
H1533 C1519 0.958 . S
H1534 C1519 0.961 . S
H1535 C1519 0.960 . S
C1536 C1537 1.391 . S
C1536 C1538 1.394 . S
C1536 H1552 0.931 . S
C1537 C1536 1.391 . S
C1537 C1541 1.376 . S
C1538 C1536 1.394 . S
C1538 C1539 1.369 . S
C1538 C1542 1.531 . S
C1539 C1538 1.369 . S
C1539 C1540 1.410 . S
C1539 C1547 1.503 . S
C1540 C1539 1.410 . S
C1540 C1541 1.392 . S
C1540 C1543 1.511 . S
C1541 C1537 1.376 . S
C1541 C1540 1.392 . S
C1541 H1553 0.929 . S
C1542 C1538 1.531 . S
C1542 H1554 0.960 . S
C1542 H1555 0.962 . S
C1542 H1556 0.960 . S
C1543 C1540 1.511 . S
C1543 H1557 0.961 . S
C1543 H1558 0.961 . S
C1543 H1559 0.961 . S
C1544 C1545 1.370 . S
C1544 C1546 1.363 . S
C1544 H1560 0.931 . S
C1545 C1544 1.370 . S
C1545 C1549 1.408 . S
C1546 C1544 1.363 . S
C1546 C1547 1.370 . S
C1546 C1550 1.524 . S
C1547 C1539 1.503 . S
C1547 C1546 1.370 . S
C1547 C1548 1.403 . S
C1548 C1547 1.403 . S
C1548 C1549 1.404 . S
C1548 C1551 1.539 . S
C1549 C1545 1.408 . S
C1549 C1548 1.404 . S
C1549 H1561 0.930 . S
C1550 C1546 1.524 . S
C1550 H1562 0.956 . S
C1550 H1563 0.961 . S
C1550 H1564 0.961 . S
C1551 C1548 1.539 . S
C1551 H1565 0.958 . S
C1551 H1566 0.961 . S
C1551 H1567 0.960 . S
H1552 C1536 0.931 . S
H1553 C1541 0.929 . S
H1554 C1542 0.960 . S
H1555 C1542 0.962 . S
H1556 C1542 0.960 . S
H1557 C1543 0.961 . S
H1558 C1543 0.961 . S
H1559 C1543 0.961 . S
H1560 C1544 0.931 . S
H1561 C1549 0.930 . S
H1562 C1550 0.956 . S
H1563 C1550 0.961 . S
H1564 C1550 0.961 . S
H1565 C1551 0.958 . S
H1566 C1551 0.961 . S
H1567 C1551 0.960 . S
C1568 C1569 1.391 . S
C1568 C1570 1.394 . S
C1568 H1584 0.931 . S
C1569 C1568 1.391 . S
C1569 C1573 1.376 . S
C1570 C1568 1.394 . S
C1570 C1571 1.369 . S
C1570 C1574 1.531 . S
C1571 C1570 1.369 . S
C1571 C1572 1.410 . S
C1571 C1579 1.503 . S
C1572 C1571 1.410 . S
C1572 C1573 1.392 . S
C1572 C1575 1.511 . S
C1573 C1569 1.376 . S
C1573 C1572 1.392 . S
C1573 H1585 0.929 . S
C1574 C1570 1.531 . S
C1574 H1586 0.960 . S
C1574 H1587 0.962 . S
C1574 H1588 0.960 . S
C1575 C1572 1.511 . S
C1575 H1589 0.961 . S
C1575 H1590 0.961 . S
C1575 H1591 0.961 . S
C1576 C1577 1.370 . S
C1576 C1578 1.363 . S
C1576 H1592 0.931 . S
C1577 C1576 1.370 . S
C1577 C1581 1.408 . S
C1578 C1576 1.363 . S
C1578 C1579 1.370 . S
C1578 C1582 1.524 . S
C1579 C1571 1.503 . S
C1579 C1578 1.370 . S
C1579 C1580 1.403 . S
C1580 C1579 1.403 . S
C1580 C1581 1.404 . S
C1580 C1583 1.539 . S
C1581 C1577 1.408 . S
C1581 C1580 1.404 . S
C1581 H1593 0.930 . S
C1582 C1578 1.524 . S
C1582 H1594 0.956 . S
C1582 H1595 0.961 . S
C1582 H1596 0.961 . S
C1583 C1580 1.539 . S
C1583 H1597 0.958 . S
C1583 H1598 0.961 . S
C1583 H1599 0.960 . S
H1584 C1568 0.931 . S
H1585 C1573 0.929 . S
H1586 C1574 0.960 . S
H1587 C1574 0.962 . S
H1588 C1574 0.960 . S
H1589 C1575 0.961 . S
H1590 C1575 0.961 . S
H1591 C1575 0.961 . S
H1592 C1576 0.931 . S
H1593 C1581 0.930 . S
H1594 C1582 0.956 . S
H1595 C1582 0.961 . S
H1596 C1582 0.961 . S
H1597 C1583 0.958 . S
H1598 C1583 0.961 . S
H1599 C1583 0.960 . S
C1600 C1601 1.391 . S
C1600 C1602 1.394 . S
C1600 H1616 0.931 . S
C1601 C1600 1.391 . S
C1601 C1605 1.376 . S
C1602 C1600 1.394 . S
C1602 C1603 1.369 . S
C1602 C1606 1.531 . S
C1603 C1602 1.369 . S
C1603 C1604 1.410 . S
C1603 C1611 1.503 . S
C1604 C1603 1.410 . S
C1604 C1605 1.392 . S
C1604 C1607 1.511 . S
C1605 C1601 1.376 . S
C1605 C1604 1.392 . S
C1605 H1617 0.929 . S
C1606 C1602 1.531 . S
C1606 H1618 0.960 . S
C1606 H1619 0.962 . S
C1606 H1620 0.960 . S
C1607 C1604 1.511 . S
C1607 H1621 0.961 . S
C1607 H1622 0.961 . S
C1607 H1623 0.961 . S
C1608 C1609 1.370 . S
C1608 C1610 1.363 . S
C1608 H1624 0.931 . S
C1609 C1608 1.370 . S
C1609 C1613 1.408 . S
C1610 C1608 1.363 . S
C1610 C1611 1.370 . S
C1610 C1614 1.524 . S
C1611 C1603 1.503 . S
C1611 C1610 1.370 . S
C1611 C1612 1.403 . S
C1612 C1611 1.403 . S
C1612 C1613 1.404 . S
C1612 C1615 1.539 . S
C1613 C1609 1.408 . S
C1613 C1612 1.404 . S
C1613 H1625 0.930 . S
C1614 C1610 1.524 . S
C1614 H1626 0.956 . S
C1614 H1627 0.961 . S
C1614 H1628 0.961 . S
C1615 C1612 1.539 . S
C1615 H1629 0.958 . S
C1615 H1630 0.961 . S
C1615 H1631 0.960 . S
H1616 C1600 0.931 . S
H1617 C1605 0.929 . S
H1618 C1606 0.960 . S
H1619 C1606 0.962 . S
H1620 C1606 0.960 . S
H1621 C1607 0.961 . S
H1622 C1607 0.961 . S
H1623 C1607 0.961 . S
H1624 C1608 0.931 . S
H1625 C1613 0.930 . S
H1626 C1614 0.956 . S
H1627 C1614 0.961 . S
H1628 C1614 0.961 . S
H1629 C1615 0.958 . S
H1630 C1615 0.961 . S
H1631 C1615 0.960 . S
C1632 C1633 1.391 . S
C1632 C1634 1.394 . S
C1632 H1648 0.931 . S
C1633 C1632 1.391 . S
C1633 C1637 1.376 . S
C1634 C1632 1.394 . S
C1634 C1635 1.369 . S
C1634 C1638 1.531 . S
C1635 C1634 1.369 . S
C1635 C1636 1.410 . S
C1635 C1643 1.503 . S
C1636 C1635 1.410 . S
C1636 C1637 1.392 . S
C1636 C1639 1.511 . S
C1637 C1633 1.376 . S
C1637 C1636 1.392 . S
C1637 H1649 0.929 . S
C1638 C1634 1.531 . S
C1638 H1650 0.960 . S
C1638 H1651 0.962 . S
C1638 H1652 0.960 . S
C1639 C1636 1.511 . S
C1639 H1653 0.961 . S
C1639 H1654 0.961 . S
C1639 H1655 0.961 . S
C1640 C1641 1.370 . S
C1640 C1642 1.363 . S
C1640 H1656 0.931 . S
C1641 C1640 1.370 . S
C1641 C1645 1.408 . S
C1642 C1640 1.363 . S
C1642 C1643 1.370 . S
C1642 C1646 1.524 . S
C1643 C1635 1.503 . S
C1643 C1642 1.370 . S
C1643 C1644 1.403 . S
C1644 C1643 1.403 . S
C1644 C1645 1.404 . S
C1644 C1647 1.539 . S
C1645 C1641 1.408 . S
C1645 C1644 1.404 . S
C1645 H1657 0.930 . S
C1646 C1642 1.524 . S
C1646 H1658 0.956 . S
C1646 H1659 0.961 . S
C1646 H1660 0.961 . S
C1647 C1644 1.539 . S
C1647 H1661 0.958 . S
C1647 H1662 0.961 . S
C1647 H1663 0.960 . S
H1648 C1632 0.931 . S
H1649 C1637 0.929 . S
H1650 C1638 0.960 . S
H1651 C1638 0.962 . S
H1652 C1638 0.960 . S
H1653 C1639 0.961 . S
H1654 C1639 0.961 . S
H1655 C1639 0.961 . S
H1656 C1640 0.931 . S
H1657 C1645 0.930 . S
H1658 C1646 0.956 . S
H1659 C1646 0.961 . S
H1660 C1646 0.961 . S
H1661 C1647 0.958 . S
H1662 C1647 0.961 . S
H1663 C1647 0.960 . S
C1664 C1665 1.391 . S
C1664 C1666 1.394 . S
C1664 H1680 0.931 . S
C1665 C1664 1.391 . S
C1665 C1669 1.376 . S
C1666 C1664 1.394 . S
C1666 C1667 1.369 . S
C1666 C1670 1.531 . S
C1667 C1666 1.369 . S
C1667 C1668 1.410 . S
C1667 C1675 1.503 . S
C1668 C1667 1.410 . S
C1668 C1669 1.392 . S
C1668 C1671 1.511 . S
C1669 C1665 1.376 . S
C1669 C1668 1.392 . S
C1669 H1681 0.929 . S
C1670 C1666 1.531 . S
C1670 H1682 0.960 . S
C1670 H1683 0.962 . S
C1670 H1684 0.960 . S
C1671 C1668 1.511 . S
C1671 H1685 0.961 . S
C1671 H1686 0.961 . S
C1671 H1687 0.961 . S
C1672 C1673 1.370 . S
C1672 C1674 1.363 . S
C1672 H1688 0.931 . S
C1673 C1672 1.370 . S
C1673 C1677 1.408 . S
C1674 C1672 1.363 . S
C1674 C1675 1.370 . S
C1674 C1678 1.524 . S
C1675 C1667 1.503 . S
C1675 C1674 1.370 . S
C1675 C1676 1.403 . S
C1676 C1675 1.403 . S
C1676 C1677 1.404 . S
C1676 C1679 1.539 . S
C1677 C1673 1.408 . S
C1677 C1676 1.404 . S
C1677 H1689 0.930 . S
C1678 C1674 1.524 . S
C1678 H1690 0.956 . S
C1678 H1691 0.961 . S
C1678 H1692 0.961 . S
C1679 C1676 1.539 . S
C1679 H1693 0.958 . S
C1679 H1694 0.961 . S
C1679 H1695 0.960 . S
H1680 C1664 0.931 . S
H1681 C1669 0.929 . S
H1682 C1670 0.960 . S
H1683 C1670 0.962 . S
H1684 C1670 0.960 . S
H1685 C1671 0.961 . S
H1686 C1671 0.961 . S
H1687 C1671 0.961 . S
H1688 C1672 0.931 . S
H1689 C1677 0.930 . S
H1690 C1678 0.956 . S
H1691 C1678 0.961 . S
H1692 C1678 0.961 . S
H1693 C1679 0.958 . S
H1694 C1679 0.961 . S
H1695 C1679 0.960 . S
C1696 C1697 1.391 . S
C1696 C1698 1.394 . S
C1696 H1712 0.931 . S
C1697 C1696 1.391 . S
C1697 C1701 1.376 . S
C1698 C1696 1.394 . S
C1698 C1699 1.369 . S
C1698 C1702 1.531 . S
C1699 C1698 1.369 . S
C1699 C1700 1.410 . S
C1699 C1707 1.503 . S
C1700 C1699 1.410 . S
C1700 C1701 1.392 . S
C1700 C1703 1.511 . S
C1701 C1697 1.376 . S
C1701 C1700 1.392 . S
C1701 H1713 0.929 . S
C1702 C1698 1.531 . S
C1702 H1714 0.960 . S
C1702 H1715 0.962 . S
C1702 H1716 0.960 . S
C1703 C1700 1.511 . S
C1703 H1717 0.961 . S
C1703 H1718 0.961 . S
C1703 H1719 0.961 . S
C1704 C1705 1.370 . S
C1704 C1706 1.363 . S
C1704 H1720 0.931 . S
C1705 C1704 1.370 . S
C1705 C1709 1.408 . S
C1706 C1704 1.363 . S
C1706 C1707 1.370 . S
C1706 C1710 1.524 . S
C1707 C1699 1.503 . S
C1707 C1706 1.370 . S
C1707 C1708 1.403 . S
C1708 C1707 1.403 . S
C1708 C1709 1.404 . S
C1708 C1711 1.539 . S
C1709 C1705 1.408 . S
C1709 C1708 1.404 . S
C1709 H1721 0.930 . S
C1710 C1706 1.524 . S
C1710 H1722 0.956 . S
C1710 H1723 0.961 . S
C1710 H1724 0.961 . S
C1711 C1708 1.539 . S
C1711 H1725 0.958 . S
C1711 H1726 0.961 . S
C1711 H1727 0.960 . S
H1712 C1696 0.931 . S
H1713 C1701 0.929 . S
H1714 C1702 0.960 . S
H1715 C1702 0.962 . S
H1716 C1702 0.960 . S
H1717 C1703 0.961 . S
H1718 C1703 0.961 . S
H1719 C1703 0.961 . S
H1720 C1704 0.931 . S
H1721 C1709 0.930 . S
H1722 C1710 0.956 . S
H1723 C1710 0.961 . S
H1724 C1710 0.961 . S
H1725 C1711 0.958 . S
H1726 C1711 0.961 . S
H1727 C1711 0.960 . S
C1728 C1729 1.391 . S
C1728 C1730 1.394 . S
C1728 H1744 0.931 . S
C1729 C1728 1.391 . S
C1729 C1733 1.376 . S
C1730 C1728 1.394 . S
C1730 C1731 1.369 . S
C1730 C1734 1.531 . S
C1731 C1730 1.369 . S
C1731 C1732 1.410 . S
C1731 C1739 1.503 . S
C1732 C1731 1.410 . S
C1732 C1733 1.392 . S
C1732 C1735 1.511 . S
C1733 C1729 1.376 . S
C1733 C1732 1.392 . S
C1733 H1745 0.929 . S
C1734 C1730 1.531 . S
C1734 H1746 0.960 . S
C1734 H1747 0.962 . S
C1734 H1748 0.960 . S
C1735 C1732 1.511 . S
C1735 H1749 0.961 . S
C1735 H1750 0.961 . S
C1735 H1751 0.961 . S
C1736 C1737 1.370 . S
C1736 C1738 1.363 . S
C1736 H1752 0.931 . S
C1737 C1736 1.370 . S
C1737 C1741 1.408 . S
C1738 C1736 1.363 . S
C1738 C1739 1.370 . S
C1738 C1742 1.524 . S
C1739 C1731 1.503 . S
C1739 C1738 1.370 . S
C1739 C1740 1.403 . S
C1740 C1739 1.403 . S
C1740 C1741 1.404 . S
C1740 C1743 1.539 . S
C1741 C1737 1.408 . S
C1741 C1740 1.404 . S
C1741 H1753 0.930 . S
C1742 C1738 1.524 . S
C1742 H1754 0.956 . S
C1742 H1755 0.961 . S
C1742 H1756 0.961 . S
C1743 C1740 1.539 . S
C1743 H1757 0.958 . S
C1743 H1758 0.961 . S
C1743 H1759 0.960 . S
H1744 C1728 0.931 . S
H1745 C1733 0.929 . S
H1746 C1734 0.960 . S
H1747 C1734 0.962 . S
H1748 C1734 0.960 . S
H1749 C1735 0.961 . S
H1750 C1735 0.961 . S
H1751 C1735 0.961 . S
H1752 C1736 0.931 . S
H1753 C1741 0.930 . S
H1754 C1742 0.956 . S
H1755 C1742 0.961 . S
H1756 C1742 0.961 . S
H1757 C1743 0.958 . S
H1758 C1743 0.961 . S
H1759 C1743 0.960 . S
C1760 C1761 1.391 . S
C1760 C1762 1.394 . S
C1760 H1776 0.931 . S
C1761 C1760 1.391 . S
C1761 C1765 1.376 . S
C1762 C1760 1.394 . S
C1762 C1763 1.369 . S
C1762 C1766 1.531 . S
C1763 C1762 1.369 . S
C1763 C1764 1.410 . S
C1763 C1771 1.503 . S
C1764 C1763 1.410 . S
C1764 C1765 1.392 . S
C1764 C1767 1.511 . S
C1765 C1761 1.376 . S
C1765 C1764 1.392 . S
C1765 H1777 0.929 . S
C1766 C1762 1.531 . S
C1766 H1778 0.960 . S
C1766 H1779 0.962 . S
C1766 H1780 0.960 . S
C1767 C1764 1.511 . S
C1767 H1781 0.961 . S
C1767 H1782 0.961 . S
C1767 H1783 0.961 . S
C1768 C1769 1.370 . S
C1768 C1770 1.363 . S
C1768 H1784 0.931 . S
C1769 C1768 1.370 . S
C1769 C1773 1.408 . S
C1770 C1768 1.363 . S
C1770 C1771 1.370 . S
C1770 C1774 1.524 . S
C1771 C1763 1.503 . S
C1771 C1770 1.370 . S
C1771 C1772 1.403 . S
C1772 C1771 1.403 . S
C1772 C1773 1.404 . S
C1772 C1775 1.539 . S
C1773 C1769 1.408 . S
C1773 C1772 1.404 . S
C1773 H1785 0.930 . S
C1774 C1770 1.524 . S
C1774 H1786 0.956 . S
C1774 H1787 0.961 . S
C1774 H1788 0.961 . S
C1775 C1772 1.539 . S
C1775 H1789 0.958 . S
C1775 H1790 0.961 . S
C1775 H1791 0.960 . S
H1776 C1760 0.931 . S
H1777 C1765 0.929 . S
H1778 C1766 0.960 . S
H1779 C1766 0.962 . S
H1780 C1766 0.960 . S
H1781 C1767 0.961 . S
H1782 C1767 0.961 . S
H1783 C1767 0.961 . S
H1784 C1768 0.931 . S
H1785 C1773 0.930 . S
H1786 C1774 0.956 . S
H1787 C1774 0.961 . S
H1788 C1774 0.961 . S
H1789 C1775 0.958 . S
H1790 C1775 0.961 . S
H1791 C1775 0.960 . S
C1792 C1793 1.391 . S
C1792 C1794 1.394 . S
C1792 H1808 0.931 . S
C1793 C1792 1.391 . S
C1793 C1797 1.376 . S
C1794 C1792 1.394 . S
C1794 C1795 1.369 . S
C1794 C1798 1.531 . S
C1795 C1794 1.369 . S
C1795 C1796 1.410 . S
C1795 C1803 1.503 . S
C1796 C1795 1.410 . S
C1796 C1797 1.392 . S
C1796 C1799 1.511 . S
C1797 C1793 1.376 . S
C1797 C1796 1.392 . S
C1797 H1809 0.929 . S
C1798 C1794 1.531 . S
C1798 H1810 0.960 . S
C1798 H1811 0.962 . S
C1798 H1812 0.960 . S
C1799 C1796 1.511 . S
C1799 H1813 0.961 . S
C1799 H1814 0.961 . S
C1799 H1815 0.961 . S
C1800 C1801 1.370 . S
C1800 C1802 1.363 . S
C1800 H1816 0.931 . S
C1801 C1800 1.370 . S
C1801 C1805 1.408 . S
C1802 C1800 1.363 . S
C1802 C1803 1.370 . S
C1802 C1806 1.524 . S
C1803 C1795 1.503 . S
C1803 C1802 1.370 . S
C1803 C1804 1.403 . S
C1804 C1803 1.403 . S
C1804 C1805 1.404 . S
C1804 C1807 1.539 . S
C1805 C1801 1.408 . S
C1805 C1804 1.404 . S
C1805 H1817 0.930 . S
C1806 C1802 1.524 . S
C1806 H1818 0.956 . S
C1806 H1819 0.961 . S
C1806 H1820 0.961 . S
C1807 C1804 1.539 . S
C1807 H1821 0.958 . S
C1807 H1822 0.961 . S
C1807 H1823 0.960 . S
H1808 C1792 0.931 . S
H1809 C1797 0.929 . S
H1810 C1798 0.960 . S
H1811 C1798 0.962 . S
H1812 C1798 0.960 . S
H1813 C1799 0.961 . S
H1814 C1799 0.961 . S
H1815 C1799 0.961 . S
H1816 C1800 0.931 . S
H1817 C1805 0.930 . S
H1818 C1806 0.956 . S
H1819 C1806 0.961 . S
H1820 C1806 0.961 . S
H1821 C1807 0.958 . S
H1822 C1807 0.961 . S
H1823 C1807 0.960 . S
C1824 C1825 1.391 . S
C1824 C1826 1.394 . S
C1824 H1840 0.931 . S
C1825 C1824 1.391 . S
C1825 C1829 1.376 . S
C1826 C1824 1.394 . S
C1826 C1827 1.369 . S
C1826 C1830 1.531 . S
C1827 C1826 1.369 . S
C1827 C1828 1.410 . S
C1827 C1835 1.503 . S
C1828 C1827 1.410 . S
C1828 C1829 1.392 . S
C1828 C1831 1.511 . S
C1829 C1825 1.376 . S
C1829 C1828 1.392 . S
C1829 H1841 0.929 . S
C1830 C1826 1.531 . S
C1830 H1842 0.960 . S
C1830 H1843 0.962 . S
C1830 H1844 0.960 . S
C1831 C1828 1.511 . S
C1831 H1845 0.961 . S
C1831 H1846 0.961 . S
C1831 H1847 0.961 . S
C1832 C1833 1.370 . S
C1832 C1834 1.363 . S
C1832 H1848 0.931 . S
C1833 C1832 1.370 . S
C1833 C1837 1.408 . S
C1834 C1832 1.363 . S
C1834 C1835 1.370 . S
C1834 C1838 1.524 . S
C1835 C1827 1.503 . S
C1835 C1834 1.370 . S
C1835 C1836 1.403 . S
C1836 C1835 1.403 . S
C1836 C1837 1.404 . S
C1836 C1839 1.539 . S
C1837 C1833 1.408 . S
C1837 C1836 1.404 . S
C1837 H1849 0.930 . S
C1838 C1834 1.524 . S
C1838 H1850 0.956 . S
C1838 H1851 0.961 . S
C1838 H1852 0.961 . S
C1839 C1836 1.539 . S
C1839 H1853 0.958 . S
C1839 H1854 0.961 . S
C1839 H1855 0.960 . S
H1840 C1824 0.931 . S
H1841 C1829 0.929 . S
H1842 C1830 0.960 . S
H1843 C1830 0.962 . S
H1844 C1830 0.960 . S
H1845 C1831 0.961 . S
H1846 C1831 0.961 . S
H1847 C1831 0.961 . S
H1848 C1832 0.931 . S
H1849 C1837 0.930 . S
H1850 C1838 0.956 . S
H1851 C1838 0.961 . S
H1852 C1838 0.961 . S
H1853 C1839 0.958 . S
H1854 C1839 0.961 . S
H1855 C1839 0.960 . S
C321 C79 1.390 . S
C329 C9 1.378 . S
C353 C18 1.387 . S
C361 C21 1.422 . S
C385 C48 0.860 . S
C393 C29 0.867 . S
C417 C62 1.131 . S
C425 C42 1.126 . S
C449 C82 1.734 . S
C457 C118 1.762 . S
C481 C109 0.835 . S
C489 C129 0.849 . S
C513 C121 1.978 . S
C521 C158 1.958 . S
C545 C99 1.434 . S
C553 C149 1.417 . S
C577 C181 1.345 . S
C585 C1 1.376 . S
C609 C218 1.413 . S
C617 C38 1.433 . S
C641 C59 1.721 . S
C649 C261 1.748 . S
C673 C168 0.705 . S
C681 C68 0.752 . S
C705 C228 0.848 . S
C713 C88 0.819 . S
C737 C299 1.684 . S
C745 C101 1.695 . S
C769 C138 1.246 . S
C777 C258 1.192 . S
C801 C319 1.663 . S
C809 C141 1.682 . S
C833 C179 1.365 . S
C841 C269 1.395 . S
C865 C198 1.598 . S
C873 C162 1.657 . S
C897 C209 0.727 . S
C905 C189 0.738 . S
C929 C288 1.446 . S
C937 C239 1.421 . S
C961 C249 0.719 . S
C969 C308 0.719 . S
C993 C238 1.393 . S
C1001 C8 1.385 . S
C1025 C242 1.429 . S
C1033 C19 1.408 . S
C1057 C248 0.855 . S
C1065 C49 0.865 . S
C1089 C41 1.156 . S
C1097 C221 1.133 . S
C1121 C199 1.761 . S
C1129 C81 1.751 . S
C1153 C188 0.819 . S
C1161 C128 0.832 . S
C1185 C279 1.972 . S
C1193 C122 1.990 . S
C1217 C98 1.415 . S
C1225 C268 1.421 . S
C1249 C102 1.384 . S
C1257 C2 1.363 . S
C1281 C219 1.398 . S
C1289 C259 1.443 . S
C1313 C58 1.750 . S
C1321 C142 1.747 . S
C1345 C169 0.705 . S
C1353 C229 0.743 . S
C1377 C69 0.772 . S
C1385 C89 0.793 . S
C1409 C182 1.701 . S
C1417 C298 1.685 . S
C1441 C139 1.195 . S
C1449 C39 1.204 . S
C1473 C318 1.688 . S
C1481 C262 1.685 . S
C1505 C178 1.364 . S
C1513 C148 1.379 . S
C1537 C161 1.642 . S
C1545 C119 1.642 . S
C1569 C208 0.748 . S
C1577 C108 0.752 . S
C1601 C78 1.438 . S
C1609 C289 1.433 . S
C1633 C28 0.668 . S
C1641 C309 0.681 . S
C1665 C241 1.088 . S
C1673 C282 1.101 . S
C1697 C222 1.221 . S
C1705 C302 1.215 . S
C1729 C201 1.935 . S
C1737 C278 1.922 . S
C1761 C281 1.092 . S
C1769 C22 1.094 . S
C1793 C61 1.192 . S
C1801 C301 1.223 . S
C1825 C159 1.899 . S
C1833 C202 1.934 . S
