# Generated by pormake.
# Topology wlu, (5)-cn, num edge types: 1
# Building blocks:
#     Node 0, Type 0, BuildingBlock: XOMCOT_clean_sbu_1, # of connection points: 5
#     Node 1, Type 0, BuildingBlock: XOMCOT_clean_sbu_1, # of connection points: 5
#     Node 2, Type 0, BuildingBlock: XOMCOT_clean_sbu_1, # of connection points: 5
#     Node 3, Type 0, BuildingBlock: XOMCOT_clean_sbu_1, # of connection points: 5
#     Node 4, Type 0, BuildingBlock: XOMCOT_clean_sbu_1, # of connection points: 5
#     Node 5, Type 0, BuildingBlock: XOMCOT_clean_sbu_1, # of connection points: 5
#     Node 6, Type 0, BuildingBlock: XOMCOT_clean_sbu_1, # of connection points: 5
#     Node 7, Type 0, BuildingBlock: XOMCOT_clean_sbu_1, # of connection points: 5
#     Node 8, Type 0, BuildingBlock: XOMCOT_clean_sbu_1, # of connection points: 5
#     Node 9, Type 0, BuildingBlock: XOMCOT_clean_sbu_1, # of connection points: 5
#     Node 10, Type 0, BuildingBlock: XOMCOT_clean_sbu_1, # of connection points: 5
#     Node 11, Type 0, BuildingBlock: XOMCOT_clean_sbu_1, # of connection points: 5
#     Node 12, Type 0, BuildingBlock: XOMCOT_clean_sbu_1, # of connection points: 5
#     Node 13, Type 0, BuildingBlock: XOMCOT_clean_sbu_1, # of connection points: 5
#     Node 14, Type 0, BuildingBlock: XOMCOT_clean_sbu_1, # of connection points: 5
#     Node 15, Type 0, BuildingBlock: XOMCOT_clean_sbu_1, # of connection points: 5
#     Node 16, Type 0, BuildingBlock: XOMCOT_clean_sbu_1, # of connection points: 5
#     Node 17, Type 0, BuildingBlock: XOMCOT_clean_sbu_1, # of connection points: 5
#     Node 18, Type 0, BuildingBlock: XOMCOT_clean_sbu_1, # of connection points: 5
#     Node 19, Type 0, BuildingBlock: XOMCOT_clean_sbu_1, # of connection points: 5
#     Node 20, Type 0, BuildingBlock: XOMCOT_clean_sbu_1, # of connection points: 5
#     Node 21, Type 0, BuildingBlock: XOMCOT_clean_sbu_1, # of connection points: 5
#     Node 22, Type 0, BuildingBlock: XOMCOT_clean_sbu_1, # of connection points: 5
#     Node 23, Type 0, BuildingBlock: XOMCOT_clean_sbu_1, # of connection points: 5
#     Node 24, Type 0, BuildingBlock: XOMCOT_clean_sbu_1, # of connection points: 5
#     Node 25, Type 0, BuildingBlock: XOMCOT_clean_sbu_1, # of connection points: 5
#     Node 26, Type 0, BuildingBlock: XOMCOT_clean_sbu_1, # of connection points: 5
#     Node 27, Type 0, BuildingBlock: XOMCOT_clean_sbu_1, # of connection points: 5
#     Node 28, Type 0, BuildingBlock: XOMCOT_clean_sbu_1, # of connection points: 5
#     Node 29, Type 0, BuildingBlock: XOMCOT_clean_sbu_1, # of connection points: 5
#     Node 30, Type 0, BuildingBlock: XOMCOT_clean_sbu_1, # of connection points: 5
#     Node 31, Type 0, BuildingBlock: XOMCOT_clean_sbu_1, # of connection points: 5
#     Node 32, Type 0, BuildingBlock: XOMCOT_clean_sbu_1, # of connection points: 5
#     Node 33, Type 0, BuildingBlock: XOMCOT_clean_sbu_1, # of connection points: 5
#     Node 34, Type 0, BuildingBlock: XOMCOT_clean_sbu_1, # of connection points: 5
#     Node 35, Type 0, BuildingBlock: XOMCOT_clean_sbu_1, # of connection points: 5
#     Edge 36, Type (0, 0), BuildingBlock: AJUNOK_clean_linker_0, # of connection points: 2
#     Edge 37, Type (0, 0), BuildingBlock: AJUNOK_clean_linker_0, # of connection points: 2
#     Edge 38, Type (0, 0), BuildingBlock: AJUNOK_clean_linker_0, # of connection points: 2
#     Edge 39, Type (0, 0), BuildingBlock: AJUNOK_clean_linker_0, # of connection points: 2
#     Edge 40, Type (0, 0), BuildingBlock: AJUNOK_clean_linker_0, # of connection points: 2
#     Edge 41, Type (0, 0), BuildingBlock: AJUNOK_clean_linker_0, # of connection points: 2
#     Edge 42, Type (0, 0), BuildingBlock: AJUNOK_clean_linker_0, # of connection points: 2
#     Edge 43, Type (0, 0), BuildingBlock: AJUNOK_clean_linker_0, # of connection points: 2
#     Edge 44, Type (0, 0), BuildingBlock: AJUNOK_clean_linker_0, # of connection points: 2
#     Edge 45, Type (0, 0), BuildingBlock: AJUNOK_clean_linker_0, # of connection points: 2
#     Edge 46, Type (0, 0), BuildingBlock: AJUNOK_clean_linker_0, # of connection points: 2
#     Edge 47, Type (0, 0), BuildingBlock: AJUNOK_clean_linker_0, # of connection points: 2
#     Edge 48, Type (0, 0), BuildingBlock: AJUNOK_clean_linker_0, # of connection points: 2
#     Edge 49, Type (0, 0), BuildingBlock: AJUNOK_clean_linker_0, # of connection points: 2
#     Edge 50, Type (0, 0), BuildingBlock: AJUNOK_clean_linker_0, # of connection points: 2
#     Edge 51, Type (0, 0), BuildingBlock: AJUNOK_clean_linker_0, # of connection points: 2
#     Edge 52, Type (0, 0), BuildingBlock: AJUNOK_clean_linker_0, # of connection points: 2
#     Edge 53, Type (0, 0), BuildingBlock: AJUNOK_clean_linker_0, # of connection points: 2
#     Edge 54, Type (0, 0), BuildingBlock: AJUNOK_clean_linker_0, # of connection points: 2
#     Edge 55, Type (0, 0), BuildingBlock: AJUNOK_clean_linker_0, # of connection points: 2
#     Edge 56, Type (0, 0), BuildingBlock: AJUNOK_clean_linker_0, # of connection points: 2
#     Edge 57, Type (0, 0), BuildingBlock: AJUNOK_clean_linker_0, # of connection points: 2
#     Edge 58, Type (0, 0), BuildingBlock: AJUNOK_clean_linker_0, # of connection points: 2
#     Edge 59, Type (0, 0), BuildingBlock: AJUNOK_clean_linker_0, # of connection points: 2
#     Edge 60, Type (0, 0), BuildingBlock: AJUNOK_clean_linker_0, # of connection points: 2
#     Edge 61, Type (0, 0), BuildingBlock: AJUNOK_clean_linker_0, # of connection points: 2
#     Edge 62, Type (0, 0), BuildingBlock: AJUNOK_clean_linker_0, # of connection points: 2
#     Edge 63, Type (0, 0), BuildingBlock: AJUNOK_clean_linker_0, # of connection points: 2
#     Edge 64, Type (0, 0), BuildingBlock: AJUNOK_clean_linker_0, # of connection points: 2
#     Edge 65, Type (0, 0), BuildingBlock: AJUNOK_clean_linker_0, # of connection points: 2
#     Edge 66, Type (0, 0), BuildingBlock: AJUNOK_clean_linker_0, # of connection points: 2
#     Edge 67, Type (0, 0), BuildingBlock: AJUNOK_clean_linker_0, # of connection points: 2
#     Edge 68, Type (0, 0), BuildingBlock: AJUNOK_clean_linker_0, # of connection points: 2
#     Edge 69, Type (0, 0), BuildingBlock: AJUNOK_clean_linker_0, # of connection points: 2
#     Edge 70, Type (0, 0), BuildingBlock: AJUNOK_clean_linker_0, # of connection points: 2
#     Edge 71, Type (0, 0), BuildingBlock: AJUNOK_clean_linker_0, # of connection points: 2
#     Edge 72, Type (0, 0), BuildingBlock: AJUNOK_clean_linker_0, # of connection points: 2
#     Edge 73, Type (0, 0), BuildingBlock: AJUNOK_clean_linker_0, # of connection points: 2
#     Edge 74, Type (0, 0), BuildingBlock: AJUNOK_clean_linker_0, # of connection points: 2
#     Edge 75, Type (0, 0), BuildingBlock: AJUNOK_clean_linker_0, # of connection points: 2
#     Edge 76, Type (0, 0), BuildingBlock: AJUNOK_clean_linker_0, # of connection points: 2
#     Edge 77, Type (0, 0), BuildingBlock: AJUNOK_clean_linker_0, # of connection points: 2
#     Edge 78, Type (0, 0), BuildingBlock: AJUNOK_clean_linker_0, # of connection points: 2
#     Edge 79, Type (0, 0), BuildingBlock: AJUNOK_clean_linker_0, # of connection points: 2
#     Edge 80, Type (0, 0), BuildingBlock: AJUNOK_clean_linker_0, # of connection points: 2
#     Edge 81, Type (0, 0), BuildingBlock: AJUNOK_clean_linker_0, # of connection points: 2
#     Edge 82, Type (0, 0), BuildingBlock: AJUNOK_clean_linker_0, # of connection points: 2
#     Edge 83, Type (0, 0), BuildingBlock: AJUNOK_clean_linker_0, # of connection points: 2
#     Edge 84, Type (0, 0), BuildingBlock: AJUNOK_clean_linker_0, # of connection points: 2
#     Edge 85, Type (0, 0), BuildingBlock: AJUNOK_clean_linker_0, # of connection points: 2
#     Edge 86, Type (0, 0), BuildingBlock: AJUNOK_clean_linker_0, # of connection points: 2
#     Edge 87, Type (0, 0), BuildingBlock: AJUNOK_clean_linker_0, # of connection points: 2
#     Edge 88, Type (0, 0), BuildingBlock: AJUNOK_clean_linker_0, # of connection points: 2
#     Edge 89, Type (0, 0), BuildingBlock: AJUNOK_clean_linker_0, # of connection points: 2
#     Edge 90, Type (0, 0), BuildingBlock: AJUNOK_clean_linker_0, # of connection points: 2
#     Edge 91, Type (0, 0), BuildingBlock: AJUNOK_clean_linker_0, # of connection points: 2
#     Edge 92, Type (0, 0), BuildingBlock: AJUNOK_clean_linker_0, # of connection points: 2
#     Edge 93, Type (0, 0), BuildingBlock: AJUNOK_clean_linker_0, # of connection points: 2
#     Edge 94, Type (0, 0), BuildingBlock: AJUNOK_clean_linker_0, # of connection points: 2
#     Edge 95, Type (0, 0), BuildingBlock: AJUNOK_clean_linker_0, # of connection points: 2
#     Edge 96, Type (0, 0), BuildingBlock: AJUNOK_clean_linker_0, # of connection points: 2
#     Edge 97, Type (0, 0), BuildingBlock: AJUNOK_clean_linker_0, # of connection points: 2
#     Edge 98, Type (0, 0), BuildingBlock: AJUNOK_clean_linker_0, # of connection points: 2
#     Edge 99, Type (0, 0), BuildingBlock: AJUNOK_clean_linker_0, # of connection points: 2
#     Edge 100, Type (0, 0), BuildingBlock: AJUNOK_clean_linker_0, # of connection points: 2
#     Edge 101, Type (0, 0), BuildingBlock: AJUNOK_clean_linker_0, # of connection points: 2
#     Edge 102, Type (0, 0), BuildingBlock: AJUNOK_clean_linker_0, # of connection points: 2
#     Edge 103, Type (0, 0), BuildingBlock: AJUNOK_clean_linker_0, # of connection points: 2
#     Edge 104, Type (0, 0), BuildingBlock: AJUNOK_clean_linker_0, # of connection points: 2
#     Edge 105, Type (0, 0), BuildingBlock: AJUNOK_clean_linker_0, # of connection points: 2
#     Edge 106, Type (0, 0), BuildingBlock: AJUNOK_clean_linker_0, # of connection points: 2
#     Edge 107, Type (0, 0), BuildingBlock: AJUNOK_clean_linker_0, # of connection points: 2
#     Edge 108, Type (0, 0), BuildingBlock: AJUNOK_clean_linker_0, # of connection points: 2
#     Edge 109, Type (0, 0), BuildingBlock: AJUNOK_clean_linker_0, # of connection points: 2
#     Edge 110, Type (0, 0), BuildingBlock: AJUNOK_clean_linker_0, # of connection points: 2
#     Edge 111, Type (0, 0), BuildingBlock: AJUNOK_clean_linker_0, # of connection points: 2
#     Edge 112, Type (0, 0), BuildingBlock: AJUNOK_clean_linker_0, # of connection points: 2
#     Edge 113, Type (0, 0), BuildingBlock: AJUNOK_clean_linker_0, # of connection points: 2
#     Edge 114, Type (0, 0), BuildingBlock: AJUNOK_clean_linker_0, # of connection points: 2
#     Edge 115, Type (0, 0), BuildingBlock: AJUNOK_clean_linker_0, # of connection points: 2
#     Edge 116, Type (0, 0), BuildingBlock: AJUNOK_clean_linker_0, # of connection points: 2
#     Edge 117, Type (0, 0), BuildingBlock: AJUNOK_clean_linker_0, # of connection points: 2
#     Edge 118, Type (0, 0), BuildingBlock: AJUNOK_clean_linker_0, # of connection points: 2
#     Edge 119, Type (0, 0), BuildingBlock: AJUNOK_clean_linker_0, # of connection points: 2
#     Edge 120, Type (0, 0), BuildingBlock: AJUNOK_clean_linker_0, # of connection points: 2
#     Edge 121, Type (0, 0), BuildingBlock: AJUNOK_clean_linker_0, # of connection points: 2
#     Edge 122, Type (0, 0), BuildingBlock: AJUNOK_clean_linker_0, # of connection points: 2
#     Edge 123, Type (0, 0), BuildingBlock: AJUNOK_clean_linker_0, # of connection points: 2
#     Edge 124, Type (0, 0), BuildingBlock: AJUNOK_clean_linker_0, # of connection points: 2
#     Edge 125, Type (0, 0), BuildingBlock: AJUNOK_clean_linker_0, # of connection points: 2
# Relax obj value: 0.205
# Max RMSD: 0.162
# Mean RMSD: 0.162
data_MOF--net-wlu--node1-XOMCOT_clean_sbu_1--edge1-AJUNOK_clean_linker_0
_symmetry_space_group_name_H-M    P1
_symmetry_Int_Tables_number       1
_symmetry_cell_setting            triclinic
loop_
_symmetry_equiv_pos_as_xyz
'x, y, z'
_cell_length_a     52.623864
_cell_length_b     52.621566
_cell_length_c     39.914477
_cell_angle_alpha  89.97299
_cell_angle_beta   90.029448
_cell_angle_gamma 119.97702
loop_
_atom_site_label
_atom_site_type_symbol
_atom_site_fract_x
_atom_site_fract_y
_atom_site_fract_z
_atom_type_partial_charge
C0 C 0.24759 0.12819 0.10272 0.0
C1 C 0.23674 0.09888 0.09696 0.0
N2 N 0.24748 0.0959 0.06755 0.0
N3 N 0.2651 0.14379 0.0771 0.0
C4 C 0.26467 0.12353 0.05587 0.0
H5 H 0.2428 0.13764 0.12416 0.0
Co6 Co 0.28251 0.18426 0.07669 0.0
C7 C 0.31808 0.20622 1.0131 0.0
O8 O 0.31462 0.22923 1.01441 0.0
N9 N 0.29954 0.22586 0.07845 0.0
C10 C 0.30379 0.27005 0.08168 0.0
C11 C 0.28487 0.24084 0.07701 0.0
C12 C 0.32774 0.24702 0.08456 0.0
N13 N 0.33088 0.27422 0.08645 0.0
O14 O 0.31171 0.18622 0.10836 0.0
H15 H 0.26168 0.23171 0.07369 0.0
H16 H 0.3455 0.24244 0.08736 0.0
O17 O 0.30717 0.18684 0.03655 0.0
C18 C 0.30574 0.18886 0.13889 0.0
O19 O 0.28371 0.19338 0.14445 0.0
N20 N 0.25132 0.18058 0.04933 0.0
C21 C 0.20683 0.18661 1.01941 0.0
C22 C 0.22788 0.18476 0.99972 0.0
C23 C 0.24954 0.18086 1.01517 0.0
C24 C 0.2284 0.17768 0.06823 0.0
C25 C 0.20608 0.1811 0.05383 0.0
H26 H 0.2648 0.17863 0.99938 0.0
H27 H 0.22908 0.17573 0.09515 0.0
H28 H 0.27602 0.12883 0.03208 0.0
H29 H 0.22211 0.08107 0.11323 0.0
H30 H 0.29771 0.28688 0.08283 0.0
H31 H 0.22806 0.18713 0.97275 0.0
H32 H 0.18968 0.18156 0.06981 0.0
C33 C 0.8659 0.10025 0.08311 0.0
C34 C 0.89608 0.11557 0.08375 0.0
N35 N 0.90539 0.1439 0.07631 0.0
N36 N 0.85615 0.11868 0.0747 0.0
C37 C 0.88059 0.14521 0.07198 0.0
H38 H 0.85198 0.07702 0.08768 0.0
Co39 Co 0.8172 0.10916 0.06936 0.0
C40 C 0.84456 0.14583 1.00356 0.0
O41 O 0.86963 0.14612 1.00433 0.0
N42 N 0.77792 0.09945 0.06431 0.0
C43 C 0.73546 0.08729 0.03963 0.0
C44 C 0.76467 0.09722 0.03456 0.0
C45 C 0.75604 0.09018 0.08714 0.0
N46 N 0.73005 0.08293 0.07265 0.0
O47 O 0.82476 0.14158 0.09927 0.0
H48 H 0.77513 0.10116 1.01033 0.0
H49 H 0.75891 0.08814 0.11366 0.0
O50 O 0.82597 0.13369 0.02752 0.0
C51 C 0.82301 0.1334 0.12994 0.0
O52 O 0.81508 0.10581 0.13564 0.0
N53 N 0.8091 0.0754 0.04438 0.0
C54 C 0.79474 0.02089 1.0173 0.0
C55 C 0.81543 0.04689 1.00157 0.0
C56 C 0.82229 0.07401 1.01551 0.0
C57 C 0.78946 0.0502 0.06032 0.0
C58 C 0.78166 0.02275 0.047 0.0
H59 H 0.83884 0.09349 1.00353 0.0
H60 H 0.78009 0.05139 0.08395 0.0
H61 H 0.88002 0.16475 0.0649 0.0
H62 H 0.91006 0.10631 0.0884 0.0
H63 H 0.71916 0.08242 1.02036 0.0
H64 H 0.8263 0.04624 0.97882 0.0
H65 H 0.76612 0.00313 0.06032 0.0
C66 C 0.90393 0.76549 0.10229 0.0
C67 C 0.89046 0.78184 0.09661 0.0
N68 N 0.87121 0.76924 0.07136 0.0
N69 N 0.89289 0.74256 0.08094 0.0
C70 C 0.873 0.74548 0.0624 0.0
H71 H 0.91998 0.76944 0.12151 0.0
Co72 Co 0.9005 0.71162 0.08223 0.0
C73 C 0.88628 0.68488 1.01479 0.0
O74 O 0.91087 0.68428 1.01729 0.0
N75 N 0.90693 0.6791 0.08456 0.0
C76 C 0.89362 0.63171 0.0833 0.0
C77 C 0.88436 0.65162 0.07935 0.0
C78 C 0.92965 0.67495 0.09283 0.0
N79 N 0.92214 0.6463 0.09183 0.0
O80 O 0.8663 0.6901 0.11073 0.0
H81 H 0.86223 0.64628 0.07312 0.0
H82 H 0.95085 0.69208 0.10105 0.0
O83 O 0.87807 0.6952 0.03909 0.0
C84 C 0.87519 0.6956 0.14119 0.0
O85 O 0.90347 0.71267 0.14622 0.0
N86 N 0.93582 0.73516 0.05857 0.0
C87 C 0.99045 0.77443 0.03108 0.0
C88 C 0.96458 0.76736 1.01378 0.0
C89 C 0.93741 0.74799 0.02823 0.0
C90 C 0.96075 0.74401 0.07683 0.0
C91 C 0.98835 0.76283 0.06317 0.0
H92 H 0.91772 0.74403 1.01545 0.0
H93 H 0.9592 0.73726 0.10265 0.0
H94 H 0.85904 0.72985 0.04369 0.0
H95 H 0.89415 0.80119 0.11023 0.0
H96 H 0.88018 0.60816 0.08057 0.0
H97 H 0.96535 0.7769 0.98948 0.0
H98 H 0.00784 0.76907 0.078 0.0
C99 C 0.14178 0.23931 0.45396 0.0
C100 C 0.11167 0.22367 0.45717 0.0
N101 N 0.10308 0.2404 0.47384 0.0
N102 N 0.15209 0.2657 0.46864 0.0
C103 C 0.12802 0.26583 0.48018 0.0
H104 H 0.15528 0.23219 0.44122 0.0
Co105 Co 0.19063 0.29643 0.46921 0.0
C106 C 0.19906 0.3213 0.53731 0.0
O107 O 0.22387 0.321 0.53761 0.0
N108 N 0.22953 0.329 0.46886 0.0
C109 C 0.26337 0.37654 0.47047 0.0
C110 C 0.23432 0.35636 0.47486 0.0
C111 C 0.25635 0.33351 0.45978 0.0
N112 N 0.27727 0.36217 0.46108 0.0
O113 O 0.1792 0.31798 0.43919 0.0
H114 H 0.21742 0.36154 0.48112 0.0
H115 H 0.26052 0.31682 0.45018 0.0
O116 O 0.18261 0.31262 0.51108 0.0
C117 C 0.18238 0.31218 0.40879 0.0
O118 O 0.19304 0.29462 0.40374 0.0
N119 N 0.20129 0.27272 0.49499 0.0
C120 C 0.21546 0.23425 0.52734 0.0
C121 C 0.1943 0.24002 0.54082 0.0
C122 C 0.18718 0.25897 0.52396 0.0
C123 C 0.21978 0.26498 0.48013 0.0
C124 C 0.22801 0.24666 0.4964 0.0
H125 H 0.16976 0.262 0.53378 0.0
H126 H 0.22703 0.27175 0.45478 0.0
H127 H 0.12873 0.28433 0.4929 0.0
H128 H 0.09724 0.20202 0.44714 0.0
H129 H 0.27338 0.40011 0.47297 0.0
H130 H 0.18306 0.22963 0.56389 0.0
H131 H 0.24301 0.24115 0.4842 0.0
C132 C 0.766 0.90436 0.45977 0.0
C133 C 0.78027 0.8885 0.45959 0.0
N134 N 0.76109 0.86062 0.4686 0.0
N135 N 0.73798 0.88681 0.46937 0.0
C136 C 0.73535 0.86011 0.47328 0.0
H137 H 0.77561 0.92742 0.4539 0.0
Co138 Co 0.70998 0.89849 0.47402 0.0
C139 C 0.69755 0.86172 0.54067 0.0
O140 O 0.72064 0.85839 0.54022 0.0
N141 N 0.68201 0.9106 0.47843 0.0
C142 C 0.65719 0.92972 0.50238 0.0
C143 C 0.67502 0.91811 0.50793 0.0
C144 C 0.66825 0.91816 0.45516 0.0
N145 N 0.65278 0.92972 0.46917 0.0
O146 O 0.68388 0.86627 0.44442 0.0
H147 H 0.68415 0.91735 0.53191 0.0
H148 H 0.6706 0.91648 0.42846 0.0
O149 O 0.69325 0.87528 0.51641 0.0
C150 C 0.69167 0.87475 0.41405 0.0
O151 O 0.71306 0.90182 0.40951 0.0
N152 N 0.73694 0.93191 0.49847 0.0
C153 C 0.77852 0.98592 0.52567 0.0
C154 C 0.77188 0.95948 0.54157 0.0
C155 C 0.751 0.93265 0.52753 0.0
C156 C 0.74374 0.95736 0.4823 0.0
C157 C 0.76404 0.98451 0.49564 0.0
H158 H 0.74708 0.91275 0.5395 0.0
H159 H 0.73333 0.95656 0.45864 0.0
H160 H 0.71513 0.84105 0.48098 0.0
H161 H 0.80326 0.89711 0.45399 0.0
H162 H 0.64995 0.93948 0.52122 0.0
H163 H 0.78329 0.95943 0.56413 0.0
H164 H 0.76843 0.00426 0.48239 0.0
C165 C 0.11387 0.86954 0.43842 0.0
C166 C 0.1295 0.89943 0.44281 0.0
N167 N 0.14483 0.90512 0.47154 0.0
N168 N 0.11947 0.85643 0.46408 0.0
C169 C 0.13858 0.87868 0.48383 0.0
H170 H 0.09904 0.85801 0.41799 0.0
Co171 Co 0.10118 0.81601 0.4686 0.0
C172 C 0.11438 0.80707 0.53966 0.0
O173 O 0.08649 0.78797 0.54355 0.0
N174 N 0.08167 0.77383 0.47236 0.0
C175 C 0.0481 0.72732 0.48329 0.0
C176 C 0.05601 0.75595 0.48819 0.0
C177 C 0.08883 0.75473 0.4582 0.0
N178 N 0.06858 0.72626 0.46427 0.0
O179 O 0.13182 0.81664 0.44036 0.0
H180 H 0.04328 0.76268 0.503 0.0
H181 H 0.10852 0.76155 0.44376 0.0
O182 O 0.12377 0.81993 0.51118 0.0
C183 C 0.12419 0.81347 0.40938 0.0
O184 O 0.09717 0.80687 0.40244 0.0
N185 N 0.07028 0.81717 0.49111 0.0
C186 C 0.01877 0.81225 0.51714 0.0
C187 C 0.04539 0.82741 0.53486 0.0
C188 C 0.07113 0.83011 0.52107 0.0
C189 C 0.04573 0.80623 0.47168 0.0
C190 C 0.01954 0.8027 0.48453 0.0
H191 H 0.09149 0.84216 0.53468 0.0
H192 H 0.04601 0.79818 0.44682 0.0
H193 H 0.14713 0.87566 0.50722 0.0
H194 H 0.12971 0.91568 0.42601 0.0
H195 H 0.02801 0.70862 0.49215 0.0
H196 H 0.04634 0.83697 0.55916 0.0
H197 H 0.99986 0.79147 0.46945 0.0
C198 C 0.76996 0.86737 0.95352 0.0
C199 C 0.78432 0.89756 0.95589 0.0
N200 N 0.76745 0.90518 0.97385 0.0
N201 N 0.74439 0.8561 0.97031 0.0
C202 C 0.74349 0.87957 0.9824 0.0
H203 H 0.7774 0.85447 0.94005 0.0
Co204 Co 0.71497 0.81707 0.97301 0.0
C205 C 0.69704 0.81036 0.04461 0.0
O206 O 0.70031 0.78718 0.04469 0.0
N207 N 0.68367 0.77756 0.97485 0.0
C208 C 0.63834 0.74073 0.98423 0.0
C209 C 0.65757 0.76985 0.98935 0.0
C210 C 0.67869 0.75273 0.95884 0.0
N211 N 0.65153 0.72982 0.96493 0.0
O212 O 0.69026 0.82639 0.94542 0.0
H213 H 0.652 0.7847 1.00165 0.0
H214 H 0.69343 0.75189 0.94072 0.0
O215 O 0.70117 0.82498 1.01723 0.0
C216 C 0.69546 0.82243 0.915 0.0
O217 O 0.714 0.81293 0.9102 0.0
N218 N 0.7417 0.80832 0.99541 0.0
C219 C 0.78567 0.79787 1.01991 0.0
C220 C 0.78028 0.81879 0.03511 0.0
C221 C 0.7586 0.82408 1.0221 0.0
C222 C 0.74792 0.78923 0.97938 0.0
C223 C 0.76886 0.78283 0.99184 0.0
H224 H 0.75584 0.84132 0.03309 0.0
H225 H 0.73782 0.7799 0.95576 0.0
H226 H 0.72556 0.87784 0.99733 0.0
H227 H 0.80524 0.91273 0.94468 0.0
H228 H 0.61594 0.72879 0.99315 0.0
H229 H 0.79327 0.83158 0.05625 0.0
H230 H 0.77208 0.76651 0.97909 0.0
C231 C 0.14219 0.89496 0.95348 0.0
C232 C 0.1123 0.88018 0.95877 0.0
N233 N 0.10545 0.85734 0.97943 0.0
N234 N 0.15417 0.88168 0.97097 0.0
C235 C 0.13134 0.85898 0.98657 0.0
H236 H 0.15435 0.91377 0.93736 0.0
Co237 Co 0.19304 0.89046 0.96994 0.0
C238 C 0.20522 0.87841 0.03931 0.0
O239 O 0.22994 0.90351 0.03727 0.0
N240 N 0.23217 0.89798 0.96839 0.0
C241 C 0.26759 0.88649 0.96984 0.0
C242 C 0.23828 0.87631 0.97453 0.0
C243 C 0.2584 0.92114 0.95932 0.0
N244 N 0.28026 0.91472 0.96039 0.0
O245 O 0.18131 0.85602 0.94199 0.0
H246 H 0.22216 0.8541 0.98139 0.0
H247 H 0.26152 0.94181 0.95031 0.0
O248 O 0.18769 0.86913 1.01396 0.0
C249 C 0.1841 0.86498 0.91153 0.0
O250 O 0.19404 0.8931 0.90664 0.0
N251 N 0.20396 0.9262 0.99198 0.0
C252 C 0.21884 0.98206 1.01531 0.0
C253 C 0.20179 0.95702 0.03497 0.0
C254 C 0.19386 0.92919 0.02242 0.0
C255 C 0.21824 0.95001 0.97156 0.0
C256 C 0.22649 0.97817 0.9829 0.0
H257 H 0.17905 0.9101 0.03684 0.0
H258 H 0.22237 0.94701 0.94577 0.0
H259 H 0.13375 0.84394 1.00289 0.0
H260 H 0.09673 0.88541 0.94756 0.0
H261 H 0.27864 0.8739 0.97235 0.0
H262 H 0.1943 0.95887 0.05963 0.0
H263 H 0.23785 0.99659 0.966 0.0
C264 C 0.09282 0.2316 0.95345 0.0
C265 C 0.10419 0.21321 0.95744 0.0
N266 N 0.1308 0.22862 0.9718 0.0
N267 N 0.11197 0.25826 0.9659 0.0
C268 C 0.13503 0.25587 0.97661 0.0
H269 H 0.07172 0.22583 0.94275 0.0
Co270 Co 0.10668 0.29062 0.96778 0.0
C271 C 0.12275 0.31179 0.03754 0.0
O272 O 0.09769 0.31162 0.03834 0.0
N273 N 0.10238 0.32438 0.9682 0.0
C274 C 0.11422 0.37105 0.97492 0.0
C275 C 0.12252 0.35065 0.98093 0.0
C276 C 0.08322 0.33032 0.95212 0.0
N277 N 0.08938 0.35831 0.95677 0.0
O278 O 0.14028 0.31164 0.93852 0.0
H279 H 0.14286 0.35532 0.99277 0.0
H280 H 0.06663 0.31534 0.93499 0.0
O281 O 0.1309 0.30476 1.01027 0.0
C282 C 0.13213 0.30744 0.90777 0.0
O283 O 0.10393 0.29118 0.90148 0.0
N284 N 0.07177 0.26773 0.99349 0.0
C285 C 0.01927 0.23014 0.02652 0.0
C286 C 0.04575 0.23289 0.03752 0.0
C287 C 0.0717 0.25156 1.02049 0.0
C288 C 0.04573 0.26364 0.98137 0.0
C289 C 0.01936 0.24566 0.99804 0.0
H290 H 0.09177 0.2526 0.02873 0.0
H291 H 0.04484 0.27288 0.95774 0.0
H292 H 0.15422 0.27354 0.98849 0.0
H293 H 0.09376 0.19031 0.95039 0.0
H294 H 0.12611 0.39379 0.98268 0.0
H295 H 0.0463 0.22036 0.05877 0.0
H296 H 0.99901 0.24277 0.98779 0.0
C297 C 0.86484 0.76777 0.59982 0.0
C298 C 0.89466 0.78587 0.59591 0.0
N299 N 0.90325 0.77602 0.56965 0.0
N300 N 0.85489 0.74653 0.57633 0.0
C301 C 0.87888 0.7522 0.55822 0.0
H302 H 0.85139 0.76931 0.6193 0.0
Co303 Co 0.81701 0.71448 0.57521 0.0
C304 C 0.80955 0.68883 0.50794 0.0
O305 O 0.78434 0.68834 0.50727 0.0
N306 N 0.77875 0.68095 0.57532 0.0
C307 C 0.74598 0.63305 0.57528 0.0
C308 C 0.77491 0.65373 0.57099 0.0
C309 C 0.75148 0.67592 0.58293 0.0
N310 N 0.73123 0.64704 0.58265 0.0
O311 O 0.82956 0.69403 0.60523 0.0
H312 H 0.79238 0.64908 0.56606 0.0
H313 H 0.74646 0.69253 0.59071 0.0
O314 O 0.82609 0.6986 0.534 0.0
C315 C 0.82373 0.69676 0.63573 0.0
O316 O 0.80944 0.71085 0.64156 0.0
N317 N 0.8053 0.73705 0.54927 0.0
C318 C 0.78977 0.77484 0.51809 0.0
C319 C 0.81033 0.76888 0.5033 0.0
C320 C 0.81818 0.75026 0.51957 0.0
C321 C 0.78729 0.74485 0.56517 0.0
C322 C 0.7784 0.76287 0.54955 0.0
H323 H 0.83516 0.7471 0.50862 0.0
H324 H 0.78084 0.73818 0.59077 0.0
H325 H 0.87889 0.73854 0.53798 0.0
H326 H 0.90902 0.80443 0.61145 0.0
H327 H 0.73662 0.60948 0.57423 0.0
H328 H 0.82062 0.77896 0.47972 0.0
H329 H 0.76382 0.7685 0.56257 0.0
C330 C 0.23532 0.10363 0.59207 0.0
C331 C 0.22179 0.12019 0.59096 0.0
N332 N 0.24163 0.14775 0.58152 0.0
N333 N 0.2636 0.12039 0.58296 0.0
C334 C 0.26708 0.14739 0.57811 0.0
H335 H 0.22499 0.0806 0.59838 0.0
Co336 Co 0.29068 0.1073 0.57914 0.0
C337 C 0.30361 0.14297 0.51156 0.0
O338 O 0.28045 0.14619 0.51194 0.0
N339 N 0.31768 0.0938 0.57544 0.0
C340 C 0.34305 0.07559 0.55073 0.0
C341 C 0.32339 0.08505 0.54593 0.0
C342 C 0.33381 0.08871 0.59816 0.0
N343 N 0.34962 0.07791 0.58347 0.0
O344 O 0.31745 0.13951 0.60828 0.0
H345 H 0.31316 0.08469 0.52233 0.0
H346 H 0.33399 0.09276 0.62475 0.0
O347 O 0.30811 0.12983 0.53618 0.0
C348 C 0.31014 0.13106 0.63875 0.0
O349 O 0.2885 0.10416 0.64359 0.0
N350 N 0.26307 0.07382 0.55538 0.0
C351 C 0.22318 0.01926 0.52829 0.0
C352 C 0.23169 0.04517 0.5102 0.0
C353 C 0.2515 0.07232 0.52432 0.0
C354 C 0.2544 0.04888 0.57358 0.0
C355 C 0.23471 0.02138 0.56044 0.0
H356 H 0.25725 0.09174 0.51013 0.0
H357 H 0.26318 0.0504 0.59848 0.0
H358 H 0.28768 0.16592 0.57034 0.0
H359 H 0.1988 0.11219 0.5959 0.0
H360 H 0.35147 0.06703 0.53175 0.0
H361 H 0.2234 0.04446 0.48517 0.0
H362 H 0.22841 1.00196 0.57543 0.0
C363 C 0.89721 0.13951 0.60166 0.0
C364 C 0.88219 0.10932 0.60024 0.0
N365 N 0.86427 0.10121 0.57358 0.0
N366 N 0.88935 0.15053 0.57555 0.0
C367 C 0.86856 0.12633 0.55951 0.0
H368 H 0.91161 0.15245 0.6218 0.0
Co369 Co 0.89857 0.19008 0.57125 0.0
C370 C 0.87864 0.17138 0.49968 0.0
O371 O 0.89628 0.16051 0.49738 0.0
N372 N 0.90624 0.22864 0.56797 0.0
C373 C 0.89811 0.26561 0.55905 0.0
C374 C 0.88687 0.236 0.55575 0.0
C375 C 0.92913 0.25421 0.57884 0.0
N376 N 0.92466 0.27709 0.57356 0.0
O377 O 0.86485 0.18044 0.59964 0.0
H378 H 0.86528 0.22066 0.54634 0.0
H379 H 0.9479 0.25575 0.59187 0.0
O380 O 0.87594 0.18149 0.52801 0.0
C381 C 0.87384 0.18643 0.6301 0.0
O382 O 0.90225 0.19925 0.6354 0.0
N383 N 0.93404 0.20063 0.54794 0.0
C384 C 0.9883 0.21454 0.52006 0.0
C385 C 0.9698 0.22272 0.50378 0.0
C386 C 0.9429 0.21603 0.51851 0.0
C387 C 0.95319 0.19531 0.56535 0.0
C388 C 0.98005 0.20156 0.55173 0.0
H389 H 0.92916 0.22304 0.50614 0.0
H390 H 0.9481 0.18679 0.59044 0.0
H391 H 0.85486 0.12661 0.53957 0.0
H392 H 0.8837 0.09451 0.6179 0.0
H393 H 0.88713 0.27768 0.55247 0.0
H394 H 0.97592 0.23391 0.47985 0.0
H395 H 0.99451 0.19667 0.5662 0.0
C396 C 0.91928 0.47788 0.42539 0.0
C397 C 0.90543 0.44767 0.42469 0.0
N398 N 0.92071 0.43973 0.40433 0.0
N399 N 0.94295 0.48892 0.4052 0.0
C400 C 0.94328 0.4652 0.39282 0.0
H401 H 0.91267 0.49099 0.43983 0.0
Co402 Co 0.97081 0.52844 0.39876 0.0
C403 C 0.97924 0.51898 0.32452 0.0
O404 O 0.95994 0.52635 0.31521 0.0
N405 N 1.00006 0.56826 0.39243 0.0
C406 C 0.0267 0.61228 0.36922 0.0
C407 C 0.00712 0.58329 0.3633 0.0
C408 C 0.01633 0.58878 0.41565 0.0
N409 N 0.03277 0.61598 0.40225 0.0
O410 O 0.9976 0.52213 0.42672 0.0
H411 H 0.99695 0.5746 0.33946 0.0
H412 H 0.01496 0.58408 0.44213 0.0
O413 O 0.98525 0.51901 0.35587 0.0
C414 C 0.99126 0.5244 0.45728 0.0
O415 O 0.97122 0.53191 0.46238 0.0
N416 N 0.94177 0.53489 0.37692 0.0
C417 C 0.89733 0.54562 0.3544 0.0
C418 C 0.89624 0.51899 0.34726 0.0
C419 C 0.91819 0.51376 0.35948 0.0
C420 C 0.94183 0.56006 0.3858 0.0
C421 C 0.92046 0.56619 0.37409 0.0
H422 H 0.91655 0.49288 0.35398 0.0
H423 H 0.958 0.57545 0.40303 0.0
H424 H 0.95961 0.4666 0.37536 0.0
H425 H 0.88588 0.43272 0.43848 0.0
H426 H 0.03352 0.62946 0.35072 0.0
H427 H 0.87856 0.50229 0.33241 0.0
H428 H 0.92145 0.58647 0.3815 0.0
C429 C 0.5289 0.42718 0.41642 0.0
C430 C 0.55909 0.44185 0.41702 0.0
N431 N 0.56889 0.47072 0.41318 0.0
N432 N 0.51972 0.44664 0.41125 0.0
C433 C 0.54456 0.47305 0.41059 0.0
H434 H 0.51464 0.40371 0.41854 0.0
Co435 Co 0.48118 0.43887 0.40624 0.0
C436 C 0.51007 0.47391 0.34048 0.0
O437 O 0.53454 0.47307 0.34255 0.0
N438 N 0.44241 0.43104 0.40166 0.0
C439 C 0.40034 0.42231 0.37855 0.0
C440 C 0.42936 0.4317 0.37273 0.0
C441 C 0.42059 0.42066 0.42466 0.0
N442 N 0.39478 0.41516 0.41109 0.0
O443 O 0.49054 0.47224 0.43523 0.0
H444 H 0.43971 0.43732 0.34841 0.0
H445 H 0.42341 0.41661 0.4506 0.0
O446 O 0.49088 0.46274 0.36398 0.0
C447 C 0.4887 0.46457 0.46608 0.0
O448 O 0.47987 0.43689 0.47256 0.0
N449 N 0.47106 0.4042 0.38201 0.0
C450 C 0.45501 0.34836 0.35719 0.0
C451 C 0.47553 0.37379 0.34018 0.0
C452 C 0.48315 0.4015 0.35291 0.0
C453 C 0.45131 0.37972 0.39896 0.0
C454 C 0.44265 0.35171 0.38679 0.0
H455 H 0.49975 0.42038 0.34005 0.0
H456 H 0.44267 0.3819 0.42267 0.0
H457 H 0.54479 0.49341 0.40576 0.0
H458 H 0.5728 0.43196 0.41893 0.0
H459 H 0.3842 0.41974 0.35999 0.0
H460 H 0.48654 0.37242 0.31794 0.0
H461 H 0.42673 0.33283 0.40087 0.0
C462 C 0.57181 0.10256 0.41519 0.0
C463 C 0.55424 0.11501 0.41507 0.0
N464 N 0.52765 0.09532 0.40293 0.0
N465 N 0.55674 0.07514 0.40265 0.0
C466 C 0.52963 0.07108 0.39653 0.0
H467 H 0.5941 0.113 0.42424 0.0
Co468 Co 0.56986 0.0478 0.39835 0.0
C469 C 0.53737 0.03915 0.3321 0.0
O470 O 0.54496 0.067 0.33063 0.0
N471 N 0.58282 0.02046 0.39453 0.0
C472 C 0.59815 0.99188 0.37173 0.0
C473 C 0.58673 0.00976 0.36541 0.0
C474 C 0.59217 0.00867 0.41833 0.0
N475 N 0.60153 0.99111 0.40499 0.0
O476 O 0.53869 0.02194 0.42884 0.0
H477 H 0.58242 0.01515 0.34079 0.0
H478 H 0.59306 0.01362 0.44475 0.0
O479 O 0.54501 0.02975 0.35775 0.0
C480 C 0.54752 0.02958 0.45908 0.0
O481 O 0.5744 0.05138 0.46349 0.0
N482 N 0.60288 0.07464 0.37277 0.0
C483 C 0.65815 0.11519 0.34738 0.0
C484 C 0.6353 0.09682 0.32576 0.0
C485 C 0.60786 0.07646 0.33894 0.0
C486 C 0.62531 0.09169 0.394 0.0
C487 C 0.65288 0.1124 0.38192 0.0
H488 H 0.59149 0.06171 0.32168 0.0
H489 H 0.62181 0.08889 0.42076 0.0
H490 H 0.51206 0.05093 0.38631 0.0
H491 H 0.56071 0.13702 0.4233 0.0
H492 H 0.6038 0.98047 0.35323 0.0
H493 H 0.63863 0.09807 0.29889 0.0
H494 H 0.67014 0.12574 0.39952 0.0
C495 C 0.8146 0.58041 0.78551 0.0
C496 C 0.78446 0.56444 0.78828 0.0
N497 N 0.77633 0.57685 0.81233 0.0
N498 N 0.82523 0.60275 0.80764 0.0
C499 C 0.80136 0.59993 0.8237 0.0
H500 H 0.82788 0.57661 0.76777 0.0
Co501 Co 0.86386 0.63319 0.80979 0.0
C502 C 0.87285 0.65497 0.87946 0.0
O503 O 0.89787 0.65513 0.87797 0.0
N504 N 0.90301 0.66526 0.81075 0.0
C505 C 0.93788 0.71239 0.81361 0.0
C506 C 0.90884 0.6926 0.81908 0.0
C507 C 0.9291 0.6694 0.79929 0.0
N508 N 0.95055 0.69779 0.80096 0.0
O509 O 0.85311 0.65673 0.78244 0.0
H510 H 0.89262 0.69808 0.82742 0.0
H511 H 0.93224 0.65272 0.78758 0.0
O512 O 0.85589 0.64699 0.85366 0.0
C513 C 0.85878 0.65324 0.7521 0.0
O514 O 0.87045 0.63658 0.74698 0.0
N515 N 0.87386 0.6077 0.83224 0.0
C516 C 0.8857 0.56492 0.85676 0.0
C517 C 0.86682 0.57184 0.87416 0.0
C518 C 0.86069 0.59289 0.8611 0.0
C519 C 0.89039 0.59947 0.81391 0.0
C520 C 0.89739 0.57888 0.82617 0.0
H521 H 0.84459 0.59649 0.87362 0.0
H522 H 0.8969 0.60769 0.78879 0.0
H523 H 0.80201 0.61519 0.8423 0.0
H524 H 0.76964 0.54547 0.77356 0.0
H525 H 0.9486 0.73588 0.8174 0.0
H526 H 0.85654 0.56075 0.89734 0.0
H527 H 0.91081 0.57297 0.81116 0.0
C528 C 0.43491 0.24161 0.80371 0.0
C529 C 0.44955 0.22613 0.80344 0.0
N530 N 0.43012 0.19785 0.81019 0.0
N531 N 0.40652 0.22337 0.81161 0.0
C532 C 0.40406 0.19664 0.81422 0.0
H533 H 0.44453 0.26488 0.79911 0.0
Co534 Co 0.37812 0.23449 0.81548 0.0
C535 C 0.36524 0.19836 0.88288 0.0
O536 O 0.38672 0.19253 0.88159 0.0
N537 N 0.34978 0.24601 0.8189 0.0
C538 C 0.32458 0.26559 0.84062 0.0
C539 C 0.34383 0.2559 0.84736 0.0
C540 C 0.3339 0.25007 0.79507 0.0
N541 N 0.31816 0.26181 0.80772 0.0
O542 O 0.35229 0.20147 0.78674 0.0
H543 H 0.35446 0.25792 0.87118 0.0
H544 H 0.3347 0.24559 0.76877 0.0
O545 O 0.3618 0.2125 0.85863 0.0
C546 C 0.35931 0.20883 0.75595 0.0
O547 O 0.38004 0.2359 0.74975 0.0
N548 N 0.40475 0.26836 0.83937 0.0
C549 C 0.44618 0.32202 0.86664 0.0
C550 C 0.44018 0.29569 0.88209 0.0
C551 C 0.41922 0.26895 0.86806 0.0
C552 C 0.41112 0.29387 0.82358 0.0
C553 C 0.43139 0.32095 0.83708 0.0
H554 H 0.41555 0.24892 0.87961 0.0
H555 H 0.40047 0.29314 0.80012 0.0
H556 H 0.38378 0.17689 0.82039 0.0
H557 H 0.47283 0.23505 0.79942 0.0
H558 H 0.31762 0.27655 0.85819 0.0
H559 H 0.45168 0.29582 0.90466 0.0
H560 H 0.43601 0.3409 0.8241 0.0
C561 C 0.77105 0.20062 0.79178 0.0
C562 C 0.78746 0.23075 0.79293 0.0
N563 N 0.81305 0.23838 0.80831 0.0
N564 N 0.78575 0.18897 0.80717 0.0
C565 C 0.81156 0.21267 0.81619 0.0
H566 H 0.75019 0.18842 0.77929 0.0
Co567 Co 0.77624 0.1492 0.81046 0.0
C568 C 0.80181 0.17186 0.87934 0.0
O569 O 0.78671 0.18554 0.88152 0.0
N570 N 0.76747 0.1101 0.81317 0.0
C571 C 0.76559 0.06893 0.82988 0.0
C572 C 0.77706 0.09816 0.83644 0.0
C573 C 0.75004 0.08747 0.79275 0.0
N574 N 0.74861 0.06213 0.80242 0.0
O575 O 0.80885 0.15827 0.78031 0.0
H576 H 0.79149 0.10957 0.85712 0.0
H577 H 0.73917 0.08972 0.77087 0.0
O578 O 0.80075 0.15834 0.85208 0.0
C579 C 0.799 0.15493 0.75021 0.0
O580 O 0.77107 0.14638 0.74637 0.0
N581 N 0.74178 0.13882 0.83522 0.0
C582 C 0.68664 0.12318 0.86133 0.0
C583 C 0.70767 0.12144 0.88129 0.0
C584 C 0.73503 0.12874 0.86746 0.0
C585 C 0.72028 0.13717 0.81479 0.0
C586 C 0.69287 0.13011 0.82738 0.0
H587 H 0.75033 0.12578 0.8826 0.0
H588 H 0.72428 0.14085 0.78823 0.0
H589 H 0.82894 0.21101 0.82852 0.0
H590 H 0.78126 0.24587 0.78251 0.0
H591 H 0.76945 0.05374 0.84429 0.0
H592 H 0.7031 0.11472 0.90727 0.0
H593 H 0.67654 0.12985 0.8106 0.0
C594 C 0.4248 0.19374 0.29034 0.0
C595 C 0.44028 0.22388 0.29313 0.0
N596 N 0.42649 0.23174 0.31571 0.0
N597 N 0.40139 0.18288 0.31097 0.0
C598 C 0.40308 0.20659 0.32618 0.0
H599 H 0.42954 0.18063 0.27337 0.0
Co600 Co 0.37082 0.1444 0.3114 0.0
C601 C 0.34765 0.13403 0.38079 0.0
O602 O 0.34777 0.10915 0.37906 0.0
N603 N 0.33864 0.10535 0.31073 0.0
C604 C 0.29146 0.07041 0.31152 0.0
C605 C 0.31096 0.09962 0.31672 0.0
C606 C 0.33511 0.07897 0.30139 0.0
N607 N 0.30671 0.05742 0.30208 0.0
O608 O 0.34815 0.15656 0.28383 0.0
H609 H 0.30517 0.11598 0.32354 0.0
H610 H 0.35237 0.07548 0.29224 0.0
O611 O 0.3557 0.15114 0.35508 0.0
C612 C 0.35306 0.15443 0.25276 0.0
O613 O 0.36996 0.14341 0.24548 0.0
N614 N 0.39563 0.13346 0.33427 0.0
C615 C 0.43667 0.1197 0.36029 0.0
C616 C 0.42978 0.13862 0.37762 0.0
C617 C 0.40953 0.14562 0.36391 0.0
C618 C 0.4043 0.1173 0.31586 0.0
C619 C 0.42393 0.10924 0.32887 0.0
H620 H 0.40577 0.16152 0.37671 0.0
H621 H 0.39702 0.11173 0.29026 0.0
H622 H 0.38668 0.20572 0.34324 0.0
H623 H 0.45976 0.2389 0.27927 0.0
H624 H 0.26781 0.05967 0.31358 0.0
H625 H 0.44032 0.14827 0.40125 0.0
H626 H 0.43013 0.09606 0.31386 0.0
C627 C 0.81561 0.24505 0.30144 0.0
C628 C 0.78548 0.23098 0.30181 0.0
N629 N 0.77515 0.20203 0.30575 0.0
N630 N 0.82438 0.22519 0.30602 0.0
C631 C 0.79919 0.19905 0.30729 0.0
H632 H 0.83017 0.26843 0.29899 0.0
Co633 Co 0.86328 0.23341 0.3096 0.0
C634 C 0.83623 0.19693 0.37488 0.0
O635 O 0.81184 0.19799 0.37418 0.0
N636 N 0.90235 0.24192 0.31295 0.0
C637 C 0.94598 0.25605 0.33569 0.0
C638 C 0.91679 0.24537 0.34208 0.0
C639 C 0.92337 0.25068 0.28914 0.0
N640 N 0.95024 0.25933 0.30234 0.0
O641 O 0.85408 0.20096 0.27882 0.0
H642 H 0.90719 0.24241 0.36673 0.0
H643 H 0.91928 0.25199 0.26282 0.0
O644 O 0.85489 0.20856 0.35092 0.0
C645 C 0.85566 0.21016 0.24863 0.0
O646 O 0.86309 0.2378 0.24454 0.0
N647 N 0.87326 0.26741 0.33521 0.0
C648 C 0.89034 0.32272 0.36207 0.0
C649 C 0.871 0.29716 0.37957 0.0
C650 C 0.86278 0.26962 0.36575 0.0
C651 C 0.89176 0.29217 0.31778 0.0
C652 C 0.90082 0.31999 0.33085 0.0
H653 H 0.84744 0.25051 0.37936 0.0
H654 H 0.89916 0.29027 0.29312 0.0
H655 H 0.79857 0.17844 0.31166 0.0
H656 H 0.77217 0.24134 0.3004 0.0
H657 H 0.96298 0.26294 0.35449 0.0
H658 H 0.86221 0.29846 0.40363 0.0
H659 H 0.91525 0.3392 0.3162 0.0
C660 C 0.76531 0.56942 0.30128 0.0
C661 C 0.78052 0.55451 0.30246 0.0
N662 N 0.80753 0.57272 0.31451 0.0
N663 N 0.78234 0.59694 0.31307 0.0
C664 C 0.80846 0.5986 0.31941 0.0
H665 H 0.74321 0.56047 0.29207 0.0
Co666 Co 0.77165 0.62621 0.31739 0.0
C667 C 0.80398 0.63303 0.38322 0.0
O668 O 0.7942 0.6047 0.38499 0.0
N669 N 0.76083 0.6551 0.32101 0.0
C670 C 0.74789 0.68594 0.34263 0.0
C671 C 0.75982 0.66853 0.34939 0.0
C672 C 0.74917 0.66464 0.29731 0.0
N673 N 0.74097 0.6834 0.30989 0.0
O674 O 0.80338 0.65087 0.28723 0.0
H675 H 0.76594 0.66493 0.37396 0.0
H676 H 0.74646 0.65762 0.27146 0.0
O677 O 0.79717 0.64326 0.35765 0.0
C678 C 0.79598 0.64421 0.25649 0.0
O679 O 0.76912 0.62311 0.25012 0.0
N680 N 0.73829 0.60099 0.34331 0.0
C681 C 0.68374 0.56072 0.37023 0.0
C682 C 0.70679 0.57984 0.39119 0.0
C683 C 0.73385 0.60017 0.37718 0.0
C684 C 0.71535 0.58398 0.32268 0.0
C685 C 0.68814 0.56328 0.33555 0.0
H686 H 0.75051 0.61549 0.39382 0.0
H687 H 0.71833 0.58645 0.29583 0.0
H688 H 0.82752 0.61813 0.32876 0.0
H689 H 0.7723 0.53197 0.29495 0.0
H690 H 0.74345 0.69851 0.36079 0.0
H691 H 0.70399 0.57898 0.41812 0.0
H692 H 0.67057 0.54953 0.31847 0.0
C693 C 0.53288 0.10157 0.91779 0.0
C694 C 0.56301 0.11608 0.91753 0.0
N695 N 0.57168 0.09774 0.90555 0.0
N696 N 0.52234 0.07421 0.90548 0.0
C697 C 0.54667 0.07222 0.89966 0.0
H698 H 0.51981 0.11068 0.92678 0.0
Co699 Co 0.48267 0.04465 0.90058 0.0
C700 C 0.50887 0.04126 0.83386 0.0
O701 O 0.52668 0.06979 0.83425 0.0
N702 N 0.44331 0.0153 0.89647 0.0
C703 C 0.40066 0.9823 0.87427 0.0
C704 C 0.42957 1.00172 0.86781 0.0
C705 C 0.42195 0.00412 0.92002 0.0
N706 N 0.39585 0.98388 0.90702 0.0
O707 O 0.49027 0.01997 0.9303 0.0
H708 H 0.43945 0.00618 0.84334 0.0
H709 H 0.42541 0.01059 0.94609 0.0
O710 O 0.4919 0.02908 0.85916 0.0
C711 C 0.48824 0.02696 0.96058 0.0
O712 O 0.48154 0.04765 0.96511 0.0
N713 N 0.47384 0.06983 0.87571 0.0
C714 C 0.45713 0.1089 0.85085 0.0
C715 C 0.46105 0.09028 0.82909 0.0
C716 C 0.46902 0.07053 0.84208 0.0
C717 C 0.46794 0.08636 0.89716 0.0
C718 C 0.46027 0.10651 0.88531 0.0
H719 H 0.47024 0.05547 0.82492 0.0
H720 H 0.46923 0.08382 0.92388 0.0
H721 H 0.54609 0.05275 0.8899 0.0
H722 H 0.57743 0.13848 0.92547 0.0
H723 H 0.38418 0.96851 0.85615 0.0
H724 H 0.45809 0.09106 0.80233 0.0
H725 H 0.45653 0.11993 0.90297 0.0
C726 C 0.91438 0.43835 0.92128 0.0
C727 C 0.89861 0.45273 0.91866 0.0
N728 N 0.91341 0.47617 0.89841 0.0
N729 N 0.93899 0.45267 0.90283 0.0
C730 C 0.9379 0.47566 0.88942 0.0
H731 H 0.90871 0.41914 0.93634 0.0
Co732 Co 0.96914 0.44408 0.90021 0.0
C733 C 0.98879 0.45776 0.8292 0.0
O734 O 0.98634 0.43167 0.82822 0.0
N735 N 1.00091 0.43655 0.89849 0.0
C736 C 0.04651 0.44559 0.88982 0.0
C737 C 0.02739 0.45577 0.88545 0.0
C738 C 0.00542 0.41573 0.91281 0.0
N739 N 0.03277 0.42031 0.90712 0.0
O740 O 0.99291 0.4777 0.92878 0.0
H741 H 0.03309 0.47672 0.87451 0.0
H742 H 0.99003 0.39894 0.92939 0.0
O743 O 0.98343 0.467 0.85676 0.0
C744 C 0.98807 0.46799 0.95899 0.0
O745 O 0.9703 0.43971 0.96326 0.0
N746 N 0.94337 0.40895 0.87682 0.0
C747 C 0.90207 0.35458 0.85013 0.0
C748 C 0.90701 0.38072 0.835 0.0
C749 C 0.92746 0.40774 0.84908 0.0
C750 C 0.9366 0.38365 0.89332 0.0
C751 C 0.91682 0.35628 0.87992 0.0
H752 H 0.93015 0.42767 0.83794 0.0
H753 H 0.94524 0.38455 0.91797 0.0
H754 H 0.95494 0.49197 0.87362 0.0
H755 H 0.87843 0.44694 0.93173 0.0
H756 H 0.06913 0.45654 0.88164 0.0
H757 H 0.89503 0.38025 0.81272 0.0
H758 H 0.91217 0.33659 0.89351 0.0
C759 C 0.57764 0.47589 0.9243 0.0
C760 C 0.562 0.44565 0.92278 0.0
N761 N 0.53647 0.43748 0.90682 0.0
N762 N 0.56216 0.48656 0.90887 0.0
C763 C 0.5373 0.46273 0.89848 0.0
H764 H 0.5986 0.48922 0.93643 0.0
Co765 Co 0.57036 0.52507 0.90657 0.0
C766 C 0.55752 0.53198 0.8355 0.0
O767 O 0.58335 0.55598 0.83545 0.0
N768 N 0.57725 0.56407 0.90518 0.0
C769 C 0.56693 0.59982 0.89702 0.0
C770 C 0.55741 0.57068 0.89253 0.0
C771 C 0.59781 0.58959 0.91933 0.0
N772 N 0.5924 0.61185 0.91397 0.0
O773 O 0.53635 0.51437 0.93463 0.0
H774 H 0.53652 0.55507 0.88171 0.0
H775 H 0.61502 0.59148 0.93558 0.0
O776 O 0.54798 0.5167 0.86263 0.0
C777 C 0.54509 0.51812 0.96522 0.0
O778 O 0.57336 0.52958 0.97068 0.0
N779 N 0.60576 0.53503 0.88361 0.0
C780 C 0.66044 0.5473 0.85822 0.0
C781 C 0.6343 0.52656 0.84257 0.0
C782 C 0.6072 0.5204 0.85596 0.0
C783 C 0.63087 0.55336 0.90047 0.0
C784 C 0.65833 0.56057 0.88774 0.0
H785 H 0.58737 0.50321 0.84463 0.0
H786 H 0.62972 0.56121 0.92496 0.0
H787 H 0.52008 0.46398 0.88512 0.0
H788 H 0.56855 0.43084 0.93332 0.0
H789 H 0.55541 0.61104 0.88921 0.0
H790 H 0.63466 0.51437 0.82091 0.0
H791 H 0.67775 0.57593 0.90147 0.0
C792 C 0.57677 0.80883 0.76584 0.0
C793 C 0.5612 0.77869 0.76268 0.0
N794 N 0.57262 0.77125 0.73691 0.0
N795 N 0.59803 0.82012 0.74236 0.0
C796 C 0.59494 0.79664 0.72515 0.0
H797 H 0.57352 0.82164 0.78475 0.0
Co798 Co 0.62783 0.85904 0.73965 0.0
C799 C 0.6478 0.8668 0.66889 0.0
O800 O 0.64577 0.8907 0.66931 0.0
N801 N 0.65934 0.89842 0.7379 0.0
C802 C 0.70584 0.93388 0.73156 0.0
C803 C 0.68626 0.9047 0.7272 0.0
C804 C 0.66373 0.92439 0.75014 0.0
N805 N 0.69174 0.94635 0.74607 0.0
O806 O 0.65214 0.84922 0.76724 0.0
H807 H 0.69178 0.88874 0.71804 0.0
H808 H 0.6477 0.92698 0.76421 0.0
O809 O 0.64197 0.85119 0.69573 0.0
C810 C 0.6488 0.85407 0.79801 0.0
O811 O 0.63231 0.86576 0.8043 0.0
N812 N 0.60156 0.86806 0.71705 0.0
C813 C 0.55909 0.87992 0.6914 0.0
C814 C 0.56521 0.85994 0.67525 0.0
C815 C 0.58612 0.85384 0.68888 0.0
C816 C 0.59393 0.88557 0.73436 0.0
C817 C 0.57353 0.89259 0.72148 0.0
H818 H 0.58952 0.83734 0.677 0.0
H819 H 0.60258 0.89303 0.75912 0.0
H820 H 0.6095 0.79782 0.70533 0.0
H821 H 0.54318 0.7634 0.77829 0.0
H822 H 0.72903 0.94485 0.72577 0.0
H823 H 0.55382 0.849 0.65246 0.0
H824 H 0.56825 0.90693 0.7356 0.0
C825 C 0.20287 0.76553 0.73191 0.0
C826 C 0.23281 0.78241 0.72902 0.0
N827 N 0.23977 0.81056 0.72554 0.0
N828 N 0.19073 0.78282 0.72932 0.0
C829 C 0.214 0.81035 0.72645 0.0
H830 H 0.19097 0.74202 0.73481 0.0
Co831 Co 0.15045 0.77106 0.72843 0.0
C832 C 0.17238 0.80519 0.6623 0.0
O833 O 0.19383 0.79939 0.65943 0.0
N834 N 0.11045 0.75943 0.72748 0.0
C835 C 0.06659 0.74748 0.70691 0.0
C836 C 0.09518 0.75661 0.69913 0.0
C837 C 0.09029 0.75122 0.75229 0.0
N838 N 0.06353 0.74422 0.74029 0.0
O839 O 0.15805 0.80213 0.76041 0.0
H840 H 0.10402 0.76044 0.67405 0.0
H841 H 0.09506 0.75049 0.77852 0.0
O842 O 0.15603 0.79642 0.68852 0.0
C843 C 0.15759 0.7924 0.79008 0.0
O844 O 0.15268 0.76544 0.79283 0.0
N845 N 0.14185 0.73805 0.70181 0.0
C846 C 0.12657 0.68308 0.67562 0.0
C847 C 0.13211 0.70642 0.65424 0.0
C848 C 0.13959 0.73384 0.66786 0.0
C849 C 0.13478 0.71499 0.72273 0.0
C850 C 0.12764 0.68751 0.71024 0.0
H851 H 0.14274 0.75096 0.65086 0.0
H852 H 0.13545 0.71826 0.74953 0.0
H853 H 0.21196 0.82964 0.72279 0.0
H854 H 0.24828 0.77453 0.72842 0.0
H855 H 0.04916 0.743 0.68932 0.0
H856 H 0.13104 0.7036 0.6273 0.0
H857 H 0.12301 0.66983 0.72754 0.0
C858 C 0.24303 0.43324 0.7453 0.0
C859 C 0.22715 0.4475 0.74494 0.0
N860 N 0.19917 0.42787 0.7373 0.0
N861 N 0.22535 0.4048 0.73697 0.0
C862 C 0.19851 0.40207 0.73344 0.0
H863 H 0.26612 0.44346 0.75083 0.0
Co864 Co 0.23487 0.37497 0.73181 0.0
C865 C 0.20348 0.37114 0.66625 0.0
O866 O 0.21318 0.39951 0.66641 0.0
N867 N 0.24422 0.34531 0.72723 0.0
C868 C 0.25563 0.31347 0.70522 0.0
C869 C 0.24541 0.33236 0.6985 0.0
C870 C 0.25394 0.33401 0.75105 0.0
N871 N 0.26087 0.31447 0.73829 0.0
O872 O 0.20257 0.35036 0.76164 0.0
H873 H 0.24035 0.33709 0.67387 0.0
H874 H 0.25718 0.34096 0.77696 0.0
O875 O 0.20978 0.35964 0.691 0.0
C876 C 0.2111 0.35655 0.79216 0.0
O877 O 0.23837 0.37714 0.7976 0.0
N878 N 0.26881 0.39995 0.70662 0.0
C879 C 0.32414 0.43967 0.68109 0.0
C880 C 0.30108 0.42172 0.65947 0.0
C881 C 0.27357 0.40168 0.67276 0.0
C882 C 0.2917 0.41573 0.72782 0.0
C883 C 0.31932 0.43618 0.71567 0.0
H884 H 0.25676 0.38737 0.65559 0.0
H885 H 0.28823 0.4128 0.75458 0.0
H886 H 0.1792 0.38188 0.72595 0.0
H887 H 0.23569 0.47071 0.74901 0.0
H888 H 0.2595 0.30046 0.68713 0.0
H889 H 0.3042 0.42338 0.63257 0.0
H890 H 0.33681 0.44914 0.73319 0.0
C891 C 0.47863 0.90842 0.1159 0.0
C892 C 0.44856 0.89235 0.1197 0.0
N893 N 0.44082 0.90571 0.14298 0.0
N894 N 0.48957 0.93178 0.1366 0.0
C895 C 0.46597 0.92945 0.15284 0.0
H896 H 0.49158 0.90404 0.09829 0.0
Co897 Co 0.52789 0.96296 0.13676 0.0
C898 C 0.53706 0.98721 0.20534 0.0
O899 O 0.56203 0.9872 0.20506 0.0
N900 N 0.5665 0.99577 0.13601 0.0
C901 C 0.59988 0.04343 0.13726 0.0
C902 C 0.57114 0.02295 0.14289 0.0
C903 C 0.59305 1.00064 0.12529 0.0
N904 N 0.61361 0.02944 0.12591 0.0
O905 O 0.5155 0.9846 0.10823 0.0
H906 H 0.5543 0.02782 0.15044 0.0
H907 H 0.59714 0.98401 0.11517 0.0
O908 O 0.52037 0.97845 0.17936 0.0
C909 C 0.51919 0.98001 0.07753 0.0
O910 O 0.53088 0.96348 0.07151 0.0
N911 N 0.53949 0.93921 0.16056 0.0
C912 C 0.55303 0.89778 0.18597 0.0
C913 C 0.53538 0.90575 0.20428 0.0
C914 C 0.52804 0.92579 0.19062 0.0
C915 C 0.55552 0.93055 0.14191 0.0
C916 C 0.56305 0.91038 0.15435 0.0
H917 H 0.51235 0.92963 0.20376 0.0
H918 H 0.56118 0.93811 0.1164 0.0
H919 H 0.46682 0.94557 0.17032 0.0
H920 H 0.43351 0.87274 0.10606 0.0
H921 H 0.60972 0.06694 0.14019 0.0
H922 H 0.52615 0.89549 0.22815 0.0
H923 H 0.5759 0.90402 0.13894 0.0
C924 C 0.10923 0.57738 0.12657 0.0
C925 C 0.12387 0.56184 0.12719 0.0
N926 N 0.10445 0.53372 0.13444 0.0
N927 N 0.0807 0.55933 0.13439 0.0
C928 C 0.07844 0.53267 0.13801 0.0
H929 H 0.11928 0.60044 0.12103 0.0
Co930 Co 0.04942 0.56702 0.13936 0.0
C931 C 0.04782 0.53727 0.2051 0.0
O932 O 0.07661 0.5506 0.20585 0.0
N933 N 0.01807 0.57425 0.144 0.0
C934 C 0.98077 0.5772 0.16573 0.0
C935 C 0.99966 0.56679 0.17043 0.0
C936 C 0.00993 0.58953 0.12357 0.0
N937 N 0.98713 0.59154 0.13631 0.0
O938 O 0.02665 0.53505 0.10843 0.0
H939 H 1.00006 0.55519 0.19249 0.0
H940 H 0.02043 0.59883 0.09987 0.0
O941 O 0.03509 0.54075 0.17942 0.0
C942 C 0.03208 0.54395 0.07795 0.0
O943 O 0.05004 0.57204 0.07262 0.0
N944 N 0.07242 0.60057 0.16589 0.0
C945 C 0.11025 0.65466 0.19535 0.0
C946 C 0.08942 0.63136 0.2148 0.0
C947 C 0.07015 0.60459 0.1994 0.0
C948 C 0.09042 0.62397 0.14639 0.0
C949 C 0.11004 0.65096 0.1606 0.0
H950 H 0.0533 0.58762 0.21454 0.0
H951 H 0.08986 0.62144 0.11946 0.0
H952 H 0.0583 0.51308 0.14497 0.0
H953 H 0.14714 0.57065 0.12324 0.0
H954 H 0.96391 0.57489 0.18304 0.0
H955 H 0.08825 0.63366 0.24164 0.0
H956 H 0.12498 0.66882 0.14453 0.0
C957 C 0.43911 0.52501 0.12488 0.0
C958 C 0.45473 0.55516 0.12585 0.0
N959 N 0.48034 0.56369 0.14169 0.0
N960 N 0.45434 0.51415 0.14069 0.0
C961 C 0.47969 0.53839 0.14984 0.0
H962 H 0.41839 0.51221 0.11226 0.0
Co963 Co 0.44537 0.4745 0.14396 0.0
C964 C 0.47002 0.49753 0.21287 0.0
O965 O 0.45513 0.51147 0.21386 0.0
N966 N 0.43698 0.43542 0.14653 0.0
C967 C 0.42816 0.39221 0.16608 0.0
C968 C 0.44013 0.42149 0.17323 0.0
C969 C 0.42332 0.41409 0.12334 0.0
N970 N 0.41766 0.38737 0.13449 0.0
O971 O 0.4786 0.4843 0.11463 0.0
H972 H 0.44895 0.43136 0.19729 0.0
H973 H 0.41668 0.418 0.09916 0.0
O974 O 0.46918 0.48347 0.18613 0.0
C975 C 0.46925 0.48195 0.08441 0.0
O976 O 0.44144 0.47377 0.08017 0.0
N977 N 0.41018 0.46353 0.16776 0.0
C978 C 0.35423 0.44807 0.19123 0.0
C979 C 0.37506 0.44764 0.21282 0.0
C980 C 0.40285 0.45488 0.20038 0.0
C981 C 0.38895 0.46064 0.14599 0.0
C982 C 0.36113 0.4536 0.1572 0.0
H983 H 0.41802 0.45311 0.21702 0.0
H984 H 0.39364 0.46372 0.11949 0.0
H985 H 0.49722 0.53733 0.16262 0.0
H986 H 0.44791 0.56967 0.11506 0.0
H987 H 0.42554 0.37568 0.184 0.0
H988 H 0.37006 0.44215 0.23906 0.0
H989 H 0.34509 0.45249 0.13933 0.0
C990 C 0.10799 0.52994 0.62622 0.0
C991 C 0.12229 0.56005 0.62696 0.0
N992 N 0.10244 0.56842 0.6332 0.0
N993 N 0.07923 0.51917 0.63292 0.0
C994 C 0.07647 0.5433 0.63598 0.0
H995 H 0.11835 0.5171 0.62134 0.0
Co996 Co 0.04894 0.47982 0.63604 0.0
C997 C 0.04291 0.50598 0.70199 0.0
O998 O 0.07134 0.52419 0.70296 0.0
N999 N 0.01892 0.44066 0.63856 0.0
C1000 C 0.98484 0.39787 0.65942 0.0
C1001 C 1.00347 0.42687 0.66633 0.0
C1002 C 0.00973 0.41922 0.61518 0.0
N1003 N 0.98888 0.39303 0.62738 0.0
O1004 O 0.0261 0.48899 0.60496 0.0
H1005 H 0.00637 0.43668 0.69071 0.0
H1006 H 0.01826 0.42263 0.58991 0.0
O1007 O 0.03198 0.4889 0.6765 0.0
C1008 C 0.03333 0.48807 0.57445 0.0
O1009 O 0.05269 0.47975 0.56884 0.0
N1010 N 0.07237 0.46974 0.66245 0.0
C1011 C 0.11042 0.45296 0.69021 0.0
C1012 C 0.09124 0.45717 0.71071 0.0
C1013 C 0.07201 0.46521 0.69626 0.0
C1014 C 0.08923 0.46332 0.64218 0.0
C1015 C 0.10892 0.45562 0.65551 0.0
H1016 H 0.05666 0.46696 0.71244 0.0
H1017 H 0.08779 0.46489 0.61529 0.0
H1018 H 0.056 0.54243 0.64206 0.0
H1019 H 0.14563 0.57471 0.62386 0.0
H1020 H 0.97006 0.38131 0.67689 0.0
H1021 H 0.09132 0.45458 0.73763 0.0
H1022 H 0.12286 0.45175 0.63881 0.0
C1023 C 0.47713 0.57496 0.63222 0.0
C1024 C 0.447 0.55909 0.63285 0.0
N1025 N 0.43868 0.53076 0.63847 0.0
N1026 N 0.48784 0.55688 0.63844 0.0
C1027 C 0.46385 0.52991 0.64094 0.0
H1028 H 0.49038 0.59839 0.62845 0.0
Co1029 Co 0.5275 0.56806 0.64202 0.0
C1030 C 0.50348 0.53136 0.70851 0.0
O1031 O 0.47732 0.52871 0.70852 0.0
N1032 N 0.56736 0.57948 0.64532 0.0
C1033 C 0.61113 0.59464 0.66828 0.0
C1034 C 0.58212 0.58486 0.67458 0.0
C1035 C 0.58817 0.58697 0.62144 0.0
N1036 N 0.61494 0.59614 0.63493 0.0
O1037 O 0.52042 0.53555 0.61261 0.0
H1038 H 0.57268 0.58303 0.69912 0.0
H1039 H 0.58397 0.58628 0.59482 0.0
O1040 O 0.52126 0.54478 0.68422 0.0
C1041 C 0.5216 0.54386 0.58211 0.0
O1042 O 0.52767 0.57099 0.57692 0.0
N1043 N 0.53504 0.60185 0.66647 0.0
C1044 C 0.54613 0.65633 0.69088 0.0
C1045 C 0.52713 0.63027 0.70801 0.0
C1046 C 0.52186 0.60318 0.69537 0.0
C1047 C 0.55376 0.62698 0.64983 0.0
C1048 C 0.56014 0.65435 0.66196 0.0
H1049 H 0.50619 0.58348 0.708 0.0
H1050 H 0.56348 0.62577 0.62646 0.0
H1051 H 0.46484 0.51028 0.64642 0.0
H1052 H 0.43231 0.56781 0.63037 0.0
H1053 H 0.6284 0.6013 0.68674 0.0
H1054 H 0.51568 0.6307 0.73034 0.0
H1055 H 0.57571 0.67378 0.64842 0.0
C1056 C 0.43627 0.91146 0.61983 0.0
C1057 C 0.44961 0.89487 0.62451 0.0
N1058 N 0.47299 0.90981 0.64481 0.0
N1059 N 0.45118 0.93673 0.63702 0.0
C1060 C 0.47346 0.93517 0.65178 0.0
H1061 H 0.41748 0.90591 0.60407 0.0
Co1062 Co 0.44441 0.96818 0.63629 0.0
C1063 C 0.46101 0.99432 0.70421 0.0
O1064 O 0.43662 0.99543 0.7041 0.0
N1065 N 0.43869 1.00104 0.63488 0.0
C1066 C 0.45212 0.04851 0.6352 0.0
C1067 C 0.46143 0.02858 0.63921 0.0
C1068 C 0.41569 0.00503 0.62772 0.0
N1069 N 0.42339 0.0337 0.62778 0.0
O1070 O 0.47839 0.98913 0.60728 0.0
H1071 H 0.48371 0.03394 0.64461 0.0
H1072 H 0.39399 0.9877 0.62116 0.0
O1073 O 0.46781 0.98416 0.67858 0.0
C1074 C 0.4701 0.98358 0.57661 0.0
O1075 O 0.44192 0.96662 0.57074 0.0
N1076 N 0.40912 0.94508 0.66024 0.0
C1077 C 0.35371 0.90394 0.68452 0.0
C1078 C 0.37877 0.91308 0.70438 0.0
C1079 C 0.40645 0.93297 0.69132 0.0
C1080 C 0.38501 0.93524 0.64024 0.0
C1081 C 0.35709 0.91502 0.65197 0.0
H1082 H 0.42565 0.93753 0.7057 0.0
H1083 H 0.38764 0.94217 0.61436 0.0
H1084 H 0.49009 0.95255 0.66696 0.0
H1085 H 0.44323 0.87405 0.61265 0.0
H1086 H 0.46556 0.07212 0.63713 0.0
H1087 H 0.37709 0.90374 0.72903 0.0
H1088 H 0.33837 0.90748 0.6354 0.0
C1089 C 0.20179 0.43197 0.24381 0.0
C1090 C 0.23186 0.44551 0.24327 0.0
N1091 N 0.2395 0.42608 0.23231 0.0
N1092 N 0.19024 0.40412 0.2327 0.0
C1093 C 0.21391 0.40089 0.2273 0.0
H1094 H 0.18937 0.44206 0.25201 0.0
Co1095 Co 0.14995 0.37627 0.22854 0.0
C1096 C 0.17423 0.36685 0.16288 0.0
O1097 O 0.19461 0.39462 0.16098 0.0
N1098 N 0.10984 0.34859 0.22494 0.0
C1099 C 0.06565 0.32007 0.20272 0.0
C1100 C 0.09495 0.33771 0.19599 0.0
C1101 C 0.08897 0.33708 0.24901 0.0
N1102 N 0.06193 0.31961 0.23604 0.0
O1103 O 0.15564 0.351 0.25947 0.0
H1104 H 0.10448 0.3429 0.17127 0.0
H1105 H 0.09327 0.34222 0.27537 0.0
O1106 O 0.15701 0.35795 0.18838 0.0
C1107 C 0.1543 0.35898 0.28948 0.0
O1108 O 0.14933 0.38092 0.29328 0.0
N1109 N 0.1433 0.40251 0.20243 0.0
C1110 C 0.12963 0.44357 0.17636 0.0
C1111 C 0.13436 0.42524 0.15495 0.0
C1112 C 0.141 0.40465 0.16849 0.0
C1113 C 0.13712 0.41917 0.22338 0.0
C1114 C 0.13088 0.44022 0.21097 0.0
H1115 H 0.14319 0.3901 0.15142 0.0
H1116 H 0.13719 0.41611 0.25016 0.0
H1117 H 0.21247 0.38075 0.2185 0.0
H1118 H 0.24697 0.46803 0.25021 0.0
H1119 H 0.04832 0.30866 0.18452 0.0
H1120 H 0.13301 0.42688 0.12803 0.0
H1121 H 0.1267 0.45353 0.22832 0.0
C1122 C 0.56942 0.76312 0.24139 0.0
C1123 C 0.55512 0.77888 0.23842 0.0
N1124 N 0.57539 0.80738 0.23475 0.0
N1125 N 0.5986 0.78151 0.23854 0.0
C1126 C 0.60156 0.8085 0.23584 0.0
H1127 H 0.55904 0.73955 0.2438 0.0
Co1128 Co 0.62763 0.77077 0.23654 0.0
C1129 C 0.64067 0.80741 0.17033 0.0
O1130 O 0.61625 0.80842 0.16943 0.0
N1131 N 0.65659 0.75978 0.23449 0.0
C1132 C 0.68311 0.74185 0.21209 0.0
C1133 C 0.66606 0.75415 0.20544 0.0
C1134 C 0.66822 0.75053 0.25862 0.0
N1135 N 0.68426 0.73933 0.24546 0.0
O1136 O 0.65201 0.80339 0.26645 0.0
H1137 H 0.65932 0.75681 0.18073 0.0
H1138 H 0.66338 0.75007 0.28503 0.0
O1139 O 0.64546 0.79452 0.19488 0.0
C1140 C 0.64449 0.79603 0.29711 0.0
O1141 O 0.62371 0.76894 0.3031 0.0
N1142 N 0.60248 0.73675 0.21151 0.0
C1143 C 0.5648 0.6816 0.18402 0.0
C1144 C 0.57142 0.70725 0.16639 0.0
C1145 C 0.59054 0.73476 0.18053 0.0
C1146 C 0.5954 0.7119 0.22924 0.0
C1147 C 0.57703 0.68416 0.21579 0.0
H1148 H 0.595 0.7541 0.16679 0.0
H1149 H 0.60412 0.71367 0.25421 0.0
H1150 H 0.6224 0.82834 0.23194 0.0
H1151 H 0.53162 0.76997 0.23714 0.0
H1152 H 0.6929 0.73416 0.19378 0.0
H1153 H 0.56193 0.70602 0.14194 0.0
H1154 H 0.57191 0.66483 0.23044 0.0
C1155 C 0.24423 0.80609 0.24973 0.0
C1156 C 0.22859 0.77594 0.24979 0.0
N1157 N 0.20016 0.76723 0.24419 0.0
N1158 N 0.22589 0.8164 0.24305 0.0
C1159 C 0.19904 0.7922 0.24114 0.0
H1160 H 0.26764 0.81961 0.25337 0.0
Co1161 Co 0.2361 0.85574 0.23911 0.0
C1162 C 0.20095 0.83045 0.17188 0.0
O1163 O 0.19773 0.80411 0.17397 0.0
N1164 N 0.24657 0.89538 0.23588 0.0
C1165 C 0.26128 0.93934 0.21362 0.0
C1166 C 0.25259 0.91059 0.20689 0.0
C1167 C 0.25264 0.91567 0.26007 0.0
N1168 N 0.26148 0.94253 0.24701 0.0
O1169 O 0.20226 0.8474 0.2669 0.0
H1170 H 0.25204 0.90168 0.18234 0.0
H1171 H 0.25118 0.91105 0.28664 0.0
O1172 O 0.21395 0.84904 0.19567 0.0
C1173 C 0.20833 0.8474 0.29807 0.0
O1174 O 0.23534 0.85456 0.30601 0.0
N1175 N 0.27075 0.86428 0.21565 0.0
C1176 C 0.32549 0.87784 0.18937 0.0
C1177 C 0.29934 0.85693 0.17384 0.0
C1178 C 0.27221 0.85056 0.18728 0.0
C1179 C 0.2959 0.88417 0.23144 0.0
C1180 C 0.32339 0.89161 0.21849 0.0
H1181 H 0.25261 0.83362 0.17569 0.0
H1182 H 0.29466 0.89417 0.25459 0.0
H1183 H 0.17927 0.7929 0.23547 0.0
H1184 H 0.23757 0.76149 0.25256 0.0
H1185 H 0.26814 0.95689 0.19549 0.0
H1186 H 0.29973 0.84479 0.15215 0.0
H1187 H 0.34285 0.90786 0.23145 0.0
C1188 C 0.33026 0.20598 0.91904 0.0
C1189 C 0.34994 0.19534 0.91581 0.0
C1190 C 0.31983 0.2087 0.95045 0.0
C1191 C 0.32765 0.19997 0.98031 0.0
H1192 H 0.32332 0.21305 0.89721 0.0
H1193 H 0.30558 0.21805 0.9513 0.0
S1194 S 0.37408 0.16557 0.98593 0.0
N1195 N 0.3741 0.17272 0.9456 0.0
N1196 N 0.35334 0.17683 1.00433 0.0
C1197 C 0.34522 0.18695 0.97745 0.0
C1198 C 0.35655 0.1848 0.94537 0.0
C1199 C 0.81359 0.16232 0.97213 0.0
C1200 C 0.83552 0.15445 0.97181 0.0
C1201 C 0.8037 0.16888 0.94228 0.0
C1202 C 0.81479 0.16726 0.9106 0.0
H1203 H 0.80383 0.16327 0.99564 0.0
H1204 H 0.7865 0.17442 0.94408 0.0
S1205 S 0.87237 0.14759 0.89557 0.0
N1206 N 0.86824 0.14571 0.93667 0.0
N1207 N 0.84918 0.15741 0.88096 0.0
C1208 C 0.8368 0.15957 0.9099 0.0
C1209 C 0.84727 0.15337 0.94032 0.0
C1210 C 0.85884 0.63858 0.93799 0.0
C1211 C 0.86359 0.65936 0.91299 0.0
C1212 C 0.86212 0.64609 0.9721 0.0
C1213 C 0.87018 0.67464 0.98263 0.0
H1214 H 0.85551 0.61722 0.93108 0.0
H1215 H 0.86124 0.63025 0.99012 0.0
S1216 S 0.88146 0.73605 0.92739 0.0
N1217 N 0.87391 0.70882 0.90123 0.0
N1218 N 0.87951 0.72282 0.96546 0.0
C1219 C 0.87201 0.69473 0.95815 0.0
C1220 C 0.8689 0.68713 0.92325 0.0
C1221 C 0.19483 0.3585 0.57193 0.0
C1222 C 0.19052 0.33007 0.56867 0.0
C1223 C 0.19635 0.37075 0.60375 0.0
C1224 C 0.19386 0.35508 0.63355 0.0
H1225 H 0.19934 0.37217 0.54993 0.0
H1226 H 0.20163 0.39343 0.60486 0.0
S1227 S 0.17736 0.27782 0.63782 0.0
N1228 N 0.1805 0.28537 0.59737 0.0
N1229 N 0.18226 0.30776 0.65693 0.0
C1230 C 0.18673 0.32559 0.63028 0.0
C1231 C 0.1855 0.31332 0.59792 0.0
C1232 C 0.64683 0.86525 0.60638 0.0
C1233 C 0.65636 0.85891 0.63663 0.0
C1234 C 0.65848 0.86371 0.57528 0.0
C1235 C 0.68092 0.85662 0.57295 0.0
H1236 H 0.63079 0.87243 0.60681 0.0
H1237 H 0.6506 0.86935 0.55306 0.0
S1238 S 0.7107 0.83413 0.6446 0.0
N1239 N 0.68696 0.84189 0.66212 0.0
N1240 N 0.7096 0.83961 0.604 0.0
C1241 C 0.6891 0.84809 0.60293 0.0
C1242 C 0.67672 0.84917 0.63464 0.0
C1243 C 0.15928 0.81272 0.56935 0.0
C1244 C 0.13342 0.8143 0.56987 0.0
C1245 C 0.17308 0.81203 0.59943 0.0
C1246 C 0.16162 0.813 0.63122 0.0
H1247 H 0.16772 0.80989 0.54575 0.0
H1248 H 0.19187 0.80891 0.59763 0.0
S1249 S 0.0974 0.82295 0.64554 0.0
N1250 N 0.09903 0.82068 0.60442 0.0
N1251 N 0.12521 0.82025 0.6605 0.0
C1252 C 0.13729 0.81733 0.63171 0.0
C1253 C 0.12313 0.81769 0.6012 0.0
C1254 C 0.66128 0.81915 0.07737 0.0
C1255 C 0.68698 0.8173 0.07633 0.0
C1256 C 0.64743 0.81782 0.10811 0.0
C1257 C 0.6588 0.81469 0.13904 0.0
H1258 H 0.65068 0.81952 0.05424 0.0
H1259 H 0.62673 0.81757 0.10735 0.0
S1260 S 0.72886 0.81465 0.14977 0.0
N1261 N 0.72525 0.81587 0.10879 0.0
N1262 N 0.70005 0.81455 0.16632 0.0
C1263 C 0.68593 0.81549 0.13825 0.0
C1264 C 0.69975 0.81644 0.10701 0.0
C1265 C 0.1941 0.83554 0.07679 0.0
C1266 C 0.1974 0.86352 0.07252 0.0
C1267 C 0.19353 0.82432 0.1091 0.0
C1268 C 0.19611 0.84056 0.13846 0.0
H1269 H 0.19381 0.82304 0.0551 0.0
H1270 H 0.1926 0.80333 0.11089 0.0
S1271 S 0.19975 0.91284 0.1404 0.0
N1272 N 0.2001 0.9059 0.10011 0.0
N1273 N 0.19743 0.88428 0.16042 0.0
C1274 C 0.19695 0.86753 0.13428 0.0
C1275 C 0.19807 0.87914 0.10147 0.0
C1276 C 0.12593 0.309 0.09934 0.0
C1277 C 0.14041 0.32073 0.06876 0.0
C1278 C 0.1384 0.32237 0.1301 0.0
C1279 C 0.16557 0.34865 0.13156 0.0
H1280 H 0.1039 0.29024 0.09935 0.0
H1281 H 0.12559 0.31307 0.15261 0.0
S1282 S 0.21449 0.38547 0.05871 0.0
N1283 N 0.18499 0.35765 0.04197 0.0
N1284 N 0.2085 0.38337 0.09952 0.0
C1285 C 0.18148 0.35905 0.10127 0.0
C1286 C 0.16885 0.34501 0.06993 0.0
C1287 C 0.81809 0.69241 0.44659 0.0
C1288 C 0.81816 0.67929 0.47726 0.0
C1289 C 0.81682 0.67881 0.41588 0.0
C1290 C 0.81442 0.65093 0.41465 0.0
H1291 H 0.81716 0.71254 0.44639 0.0
H1292 H 0.81555 0.68934 0.39315 0.0
S1293 S 0.81873 0.60978 0.48822 0.0
N1294 N 0.81989 0.63913 0.50467 0.0
N1295 N 0.81686 0.61296 0.44724 0.0
C1296 C 0.81732 0.63896 0.44521 0.0
C1297 C 0.81918 0.65321 0.47646 0.0
C1298 C 0.33935 0.13673 0.47511 0.0
C1299 C 0.31936 0.14694 0.47881 0.0
C1300 C 0.34932 0.13399 0.44338 0.0
C1301 C 0.34062 0.14225 0.41384 0.0
H1302 H 0.34653 0.12959 0.49671 0.0
H1303 H 0.36345 0.12452 0.44193 0.0
S1304 S 0.29323 0.17561 0.40951 0.0
N1305 N 0.2943 0.16903 0.44981 0.0
N1306 N 0.31391 0.16457 0.39053 0.0
C1307 C 0.32295 0.15509 0.4172 0.0
C1308 C 0.3122 0.15734 0.44954 0.0
C1309 C 0.87833 0.17608 0.43689 0.0
C1310 C 0.86561 0.1756 0.46822 0.0
C1311 C 0.86835 0.18229 0.40692 0.0
C1312 C 0.84483 0.18787 0.40667 0.0
H1313 H 0.89685 0.17248 0.43549 0.0
H1314 H 0.87946 0.18307 0.38377 0.0
S1315 S 0.80284 0.18787 0.48177 0.0
N1316 N 0.82756 0.18036 0.49688 0.0
N1317 N 0.80847 0.1916 0.44092 0.0
C1318 C 0.83132 0.18662 0.43778 0.0
C1319 C 0.84179 0.18066 0.46837 0.0
C1320 C 0.98348 0.50594 0.2656 0.0
C1321 C 0.9969 0.51621 0.2971 0.0
C1322 C 1.00006 0.51068 0.23633 0.0
C1323 C 0.0309 0.52606 0.23711 0.0
H1324 H 0.95987 0.4957 0.26318 0.0
H1325 H 0.98856 0.50372 0.21262 0.0
S1326 S 0.07675 0.55412 0.31403 0.0
N1327 N 0.04275 0.53972 0.32788 0.0
N1328 N 0.07415 0.54862 0.27313 0.0
C1329 C 0.04457 0.53416 0.26895 0.0
C1330 C 0.02754 0.52925 0.29885 0.0
C1331 C 0.47242 0.49786 0.27596 0.0
C1332 C 0.48252 0.49348 0.24486 0.0
C1333 C 0.4817 0.49197 0.30664 0.0
C1334 C 0.50201 0.48201 0.30777 0.0
H1335 H 0.45644 0.50509 0.27672 0.0
H1336 H 0.47271 0.49505 0.32968 0.0
S1337 S 0.5358 0.46753 0.23368 0.0
N1338 N 0.51427 0.47877 0.21739 0.0
N1339 N 0.5322 0.4683 0.27471 0.0
C1340 C 0.51284 0.47819 0.27689 0.0
C1341 C 0.50297 0.48372 0.24561 0.0
C1342 C 0.53101 0.98352 0.26723 0.0
C1343 C 0.5286 0.99581 0.23692 0.0
C1344 C 0.53056 0.99581 0.29829 0.0
C1345 C 0.52888 0.02167 0.30029 0.0
H1346 H 0.53471 0.96503 0.26687 0.0
H1347 H 0.53354 0.986 0.32068 0.0
S1348 S 0.51737 0.0595 0.22802 0.0
N1349 N 0.52036 0.0326 0.21073 0.0
N1350 N 0.52037 0.0565 0.26885 0.0
C1351 C 0.52385 0.03261 0.27012 0.0
C1352 C 0.52365 0.01958 0.23849 0.0
C1353 C 0.46454 0.98676 0.76529 0.0
C1354 C 0.47814 1.00221 0.73577 0.0
C1355 C 0.47649 0.99793 0.79706 0.0
C1356 C 0.50184 0.0257 0.80069 0.0
H1357 H 0.44366 0.96655 0.76389 0.0
H1358 H 0.46461 0.98549 0.81889 0.0
S1359 S 0.54817 0.07248 0.73048 0.0
N1360 N 0.52028 0.04446 0.7117 0.0
N1361 N 0.54252 0.06616 0.77111 0.0
C1362 C 0.517 0.04006 0.77105 0.0
C1363 C 0.50509 0.02825 0.73868 0.0
C1364 C 0.99758 0.47407 0.73637 0.0
C1365 C 0.02578 0.49901 0.73417 0.0
C1366 C 0.98458 0.46222 0.76756 0.0
C1367 C 0.99854 0.47547 0.79793 0.0
H1368 H 0.98613 0.46243 0.71396 0.0
H1369 H 0.96406 0.44157 0.76793 0.0
S1370 S 0.06926 0.54474 0.80653 0.0
N1371 N 0.06507 0.53916 0.76568 0.0
N1372 N 0.03992 0.51722 0.82391 0.0
C1373 C 0.025 0.5022 0.7962 0.0
C1374 C 0.0387 0.51398 0.76444 0.0
C1375 C 0.51276 0.52191 0.80216 0.0
C1376 C 0.54051 0.52421 0.80367 0.0
C1377 C 0.50011 0.5224 0.77111 0.0
C1378 C 0.51468 0.52514 0.74034 0.0
H1379 H 0.50169 0.52179 0.82508 0.0
H1380 H 0.47949 0.5223 0.77147 0.0
S1381 S 0.58547 0.52636 0.73098 0.0
N1382 N 0.58061 0.52588 0.7719 0.0
N1383 N 0.55648 0.52554 0.71389 0.0
C1384 C 0.54129 0.5249 0.74169 0.0
C1385 C 0.55428 0.52481 0.77322 0.0
C1386 C 0.37863 0.35583 0.09434 0.0
C1387 C 0.39943 0.35908 0.11864 0.0
C1388 C 0.3578 0.32817 0.08231 0.0
C1389 C 0.3563 0.30228 0.09433 0.0
H1390 H 0.37729 0.37456 0.08556 0.0
H1391 H 0.34187 0.32703 0.0643 0.0
S1392 S 0.40878 0.29861 0.15348 0.0
N1393 N 0.42018 0.33398 0.15011 0.0
N1394 N 0.37956 0.28185 0.12921 0.0
C1395 C 0.37817 0.30516 0.11679 0.0
C1396 C 0.39996 0.33354 0.12859 0.0
C1397 C 0.69126 0.04694 0.11008 0.0
C1398 C 0.70162 0.07092 0.08797 0.0
C1399 C 0.66225 0.03308 0.12214 0.0
C1400 C 0.64302 0.04317 0.11289 0.0
H1401 H 0.7054 0.03838 0.11723 0.0
H1402 H 0.65482 0.01454 0.13892 0.0
S1403 S 0.65984 0.10536 0.05597 0.0
N1404 N 0.69064 0.1043 0.05775 0.0
N1405 N 0.63636 0.07839 0.08022 0.0
C1406 C 0.65334 0.06733 0.09114 0.0
C1407 C 0.6826 0.08118 0.07874 0.0
C1408 C 0.92538 0.60549 0.11761 0.0
C1409 C 0.93928 0.63298 0.1016 0.0
C1410 C 0.94109 0.59189 0.1277 0.0
C1411 C 0.97149 0.60511 0.1224 0.0
H1412 H 0.90215 0.59454 0.1231 0.0
H1413 H 0.92931 0.57083 0.14014 0.0
S1414 S 0.01842 0.67654 0.08042 0.0
N1415 N 0.98521 0.67252 0.07958 0.0
N1416 N 0.01502 0.64711 0.0995 0.0
C1417 C 0.98577 0.63236 0.10586 0.0
C1418 C 0.96964 0.64632 0.09543 0.0
C1419 C 0.31941 0.40142 0.43086 0.0
C1420 C 0.30731 0.37555 0.45005 0.0
C1421 C 0.34829 0.41461 0.41912 0.0
C1422 C 0.36636 0.40276 0.42653 0.0
H1423 H 0.30619 0.41112 0.42411 0.0
H1424 H 0.35653 0.43413 0.40377 0.0
S1425 S 0.34561 0.33593 0.47675 0.0
N1426 N 0.31581 0.33894 0.47671 0.0
N1427 N 0.37036 0.36394 0.4546 0.0
C1428 C 0.35484 0.3773 0.44632 0.0
C1429 C 0.32521 0.36359 0.45798 0.0
C1430 C 0.65019 0.95926 0.42252 0.0
C1431 C 0.63866 0.94376 0.45257 0.0
C1432 C 0.63809 0.97486 0.40737 0.0
C1433 C 0.61411 0.97572 0.42175 0.0
H1434 H 0.66916 0.95996 0.41103 0.0
H1435 H 0.64786 0.98673 0.38443 0.0
S1436 S 0.57402 0.93669 0.49845 0.0
N1437 N 0.60045 0.92859 0.49485 0.0
N1438 N 0.57817 0.95841 0.46653 0.0
C1439 C 0.60206 0.96001 0.45145 0.0
C1440 C 0.61418 0.94388 0.46677 0.0
C1441 C 0.03981 0.64574 0.45309 0.0
C1442 C 0.04764 0.6438 0.41989 0.0
C1443 C 0.04905 0.67291 0.46831 0.0
C1444 C 0.06599 0.69948 0.45091 0.0
H1445 H 0.02497 0.6263 0.46702 0.0
H1446 H 0.04147 0.67299 0.49349 0.0
S1447 S 0.09858 0.70686 0.36648 0.0
N1448 N 0.07899 0.67113 0.37282 0.0
N1449 N 0.0942 0.72215 0.40042 0.0
C1450 C 0.07643 0.69804 0.41893 0.0
C1451 C 0.06768 0.67023 0.40367 0.0
C1452 C 0.59281 0.65637 0.9339 0.0
C1453 C 0.60816 0.64151 0.92667 0.0
C1454 C 0.60724 0.68519 0.94565 0.0
C1455 C 0.63771 0.70052 0.95122 0.0
H1456 H 0.56926 0.6456 0.93085 0.0
H1457 H 0.59425 0.69554 0.95027 0.0
S1458 S 0.68841 0.67186 0.93613 0.0
N1459 N 0.65588 0.64466 0.92501 0.0
N1460 N 0.6829 0.69858 0.94886 0.0
C1461 C 0.6535 0.68605 0.94415 0.0
C1462 C 0.63875 0.6566 0.93166 0.0
C1463 C 0.32287 0.91975 0.92931 0.0
C1464 C 0.31001 0.93249 0.94895 0.0
C1465 C 0.35129 0.93661 0.91666 0.0
C1466 C 0.36814 0.96675 0.92357 0.0
H1467 H 0.31053 0.89671 0.92283 0.0
H1468 H 0.36011 0.92611 0.9009 0.0
S1469 S 0.34521 0.01046 0.97489 0.0
N1470 N 0.31658 0.97688 0.97566 0.0
N1471 N 0.37037 0.00866 0.95186 0.0
C1472 C 0.35597 0.97969 0.94392 0.0
C1473 C 0.32676 0.96255 0.95652 0.0
C1474 C 0.09032 0.4032 0.93702 0.0
C1475 C 0.07442 0.37285 0.94339 0.0
C1476 C 0.0765 0.41834 0.92563 0.0
C1477 C 0.0461 0.40387 0.91954 0.0
H1478 H 0.11381 0.41555 0.94074 0.0
H1479 H 0.0899 0.44176 0.92195 0.0
S1480 S 0.99422 0.32428 0.93145 0.0
N1481 N 0.02632 0.32876 0.9431 0.0
N1482 N 1.0005 0.35703 0.91978 0.0
C1483 C 0.02983 0.3734 0.92532 0.0
C1484 C 0.04394 0.35794 0.93751 0.0
C1485 C 0.66158 0.59682 0.62829 0.0
C1486 C 0.6427 0.60711 0.6184 0.0
C1487 C 0.69021 0.60954 0.61585 0.0
C1488 C 0.70121 0.63343 0.5936 0.0
H1489 H 0.65421 0.57911 0.64628 0.0
H1490 H 0.7042 0.60127 0.62459 0.0
S1491 S 0.66036 0.66815 0.55951 0.0
N1492 N 0.63659 0.64201 0.58451 0.0
N1493 N 0.69079 0.66632 0.56134 0.0
C1494 C 0.68243 0.64367 0.58309 0.0
C1495 C 0.65303 0.63034 0.59537 0.0
C1496 C 0.37686 0.03469 0.63107 0.0
C1497 C 0.40554 0.04626 0.61845 0.0
C1498 C 0.35907 0.04641 0.62133 0.0
C1499 C 0.36934 0.06971 0.59832 0.0
H1500 H 0.36815 0.01636 0.64832 0.0
H1501 H 0.3368 0.03645 0.63061 0.0
S1502 S 0.44236 0.10752 0.55781 0.0
N1503 N 0.44318 0.0824 0.58187 0.0
N1504 N 0.40969 0.10403 0.56353 0.0
C1505 C 0.398 0.08165 0.58601 0.0
C1506 C 0.41614 0.07004 0.59608 0.0
C1507 C 0.94278 0.34838 0.61413 0.0
C1508 C 0.97339 0.36512 0.61085 0.0
C1509 C 0.92714 0.31979 0.60164 0.0
C1510 C 0.94156 0.30664 0.58588 0.0
H1511 H 0.93093 0.35745 0.62686 0.0
H1512 H 0.90358 0.30759 0.60505 0.0
S1513 S 0.02152 0.34129 0.57085 0.0
N1514 N 0.01769 0.36685 0.59044 0.0
N1515 N 0.98814 0.31264 0.56709 0.0
C1516 C 0.97218 0.32316 0.58221 0.0
C1517 C 0.98813 0.35259 0.59456 0.0
C1518 C 0.99766 0.69858 0.79434 0.0
C1519 C 0.97963 0.71058 0.78714 0.0
C1520 C 0.0259 0.71062 0.78037 0.0
C1521 C 0.0366 0.73462 0.75829 0.0
H1522 H 0.98978 0.67975 0.81076 0.0
H1523 H 0.039 0.70049 0.78577 0.0
S1524 S 0.99801 0.77387 0.7314 0.0
N1525 N 0.9746 0.74782 0.75667 0.0
N1526 N 0.02741 0.77025 0.73046 0.0
C1527 C 0.0189 0.74695 0.75131 0.0
C1528 C 0.99046 0.73498 0.76571 0.0
C1529 C 0.31098 0.28475 0.75732 0.0
C1530 C 0.3019 0.27272 0.78952 0.0
C1531 C 0.2972 0.298 0.74056 0.0
C1532 C 0.274 0.2999 0.75549 0.0
H1533 H 0.32949 0.28484 0.7454 0.0
H1534 H 0.30531 0.3076 0.71614 0.0
S1535 S 0.23958 0.26882 0.83751 0.0
N1536 N 0.26634 0.26117 0.83428 0.0
N1537 N 0.24101 0.28676 0.80295 0.0
C1538 C 0.26411 0.28724 0.78715 0.0
C1539 C 0.27789 0.27345 0.80411 0.0
C1540 C 0.74791 0.01681 0.78599 0.0
C1541 C 0.73413 0.03381 0.78637 0.0
C1542 C 0.73392 0.98846 0.77276 0.0
C1543 C 0.70545 0.97576 0.75934 0.0
H1544 H 0.76979 0.0255 0.79613 0.0
H1545 H 0.74538 0.97618 0.77366 0.0
S1546 S 0.6599 0.01122 0.7535 0.0
N1547 N 0.69046 0.0361 0.77183 0.0
N1548 N 0.66416 0.98264 0.74633 0.0
C1549 C 0.69143 0.99257 0.75913 0.0
C1550 C 0.70581 0.02168 0.77262 0.0
C1551 C 0.2703 0.01575 0.26856 0.0
C1552 C 0.29457 0.02772 0.29033 0.0
C1553 C 0.25903 0.98747 0.25535 0.0
C1554 C 0.27113 0.96987 0.26409 0.0
H1555 H 0.2606 0.02875 0.26082 0.0
H1556 H 0.24099 0.97936 0.23773 0.0
S1557 S 0.33399 0.9904 0.32111 0.0
N1558 N 0.3299 0.01957 0.32066 0.0
N1559 N 0.30821 0.96601 0.29624 0.0
C1560 C 0.2948 0.98116 0.28657 0.0
C1561 C 0.30669 0.01023 0.29954 0.0
C1562 C 0.00986 0.30568 0.24073 0.0
C1563 C 0.03428 0.30464 0.25334 0.0
C1564 C 0.98243 0.29054 0.25652 0.0
C1565 C 0.97825 0.27343 0.28533 0.0
H1566 H 0.01214 0.31868 0.2187 0.0
H1567 H 0.96455 0.29277 0.24641 0.0
S1568 S 0.03485 0.26119 0.32597 0.0
N1569 N 0.05243 0.28411 0.29497 0.0
N1570 N 1.00075 0.2547 0.32418 0.0
C1571 C 1.00247 0.27164 0.29762 0.0
C1572 C 0.0305 0.28749 0.28178 0.0
C1573 C 0.73161 0.72485 0.30374 0.0
C1574 C 0.72643 0.69703 0.29323 0.0
C1575 C 0.71713 0.73826 0.28876 0.0
C1576 C 0.69717 0.72447 0.26253 0.0
H1577 H 0.74729 0.73653 0.32347 0.0
H1578 H 0.72209 0.75984 0.2971 0.0
S1579 S 0.67327 0.65056 0.22785 0.0
N1580 N 0.69785 0.65532 0.25659 0.0
N1581 N 0.67132 0.68091 0.228 0.0
C1582 C 0.69129 0.69652 0.25216 0.0
C1583 C 0.70579 0.68273 0.26755 0.0
C1584 C 0.33535 0.16765 0.16355 0.0
C1585 C 0.31988 0.18276 0.16809 0.0
C1586 C 0.34577 0.15873 0.19106 0.0
C1587 C 0.34132 0.16447 0.22454 0.0
H1588 H 0.33877 0.1619 0.13856 0.0
H1589 H 0.35719 0.14682 0.18584 0.0
S1590 S 0.30426 0.20555 0.25028 0.0
N1591 N 0.30213 0.20465 0.20898 0.0
N1592 N 0.32168 0.18782 0.26031 0.0
C1593 C 0.32659 0.18026 0.22945 0.0
C1594 C 0.31595 0.18941 0.2014 0.0
C1595 C 0.82374 0.14206 0.19222 0.0
C1596 C 0.83104 0.15376 0.1594 0.0
C1597 C 0.83211 0.16014 0.2209 0.0
C1598 C 0.84823 0.19087 0.21821 0.0
H1599 H 0.8113 0.11854 0.19596 0.0
H1600 H 0.82554 0.14991 0.24533 0.0
S1601 S 0.87455 0.23282 0.13832 0.0
N1602 N 0.85637 0.1982 0.12628 0.0
N1603 N 0.87219 0.2322 0.1796 0.0
C1604 C 0.85596 0.20289 0.1855 0.0
C1605 C 0.84735 0.18442 0.15633 0.0
C1606 C 0.80646 0.65062 0.1945 0.0
C1607 C 0.81664 0.65858 0.22778 0.0
C1608 C 0.82523 0.66276 0.1667 0.0
C1609 C 0.85512 0.68342 0.17083 0.0
H1610 H 0.7837 0.63463 0.18968 0.0
H1611 H 0.81623 0.65564 0.14182 0.0
S1612 S 0.89286 0.7125 0.25261 0.0
N1613 N 0.85862 0.68898 0.26301 0.0
N1614 N 0.89388 0.71188 0.21131 0.0
C1615 C 0.86554 0.69188 0.20402 0.0
C1616 C 0.84636 0.6795 0.23228 0.0
C1617 C 0.18102 0.31863 0.34639 0.0
C1618 C 0.17428 0.324 0.37902 0.0
C1619 C 0.17385 0.32918 0.31755 0.0
C1620 C 0.15965 0.3457 0.31996 0.0
H1621 H 0.19225 0.3063 0.34291 0.0
H1622 H 0.18007 0.32487 0.29326 0.0
S1623 S 0.13512 0.36426 0.39915 0.0
N1624 N 0.15122 0.34586 0.41164 0.0
N1625 N 0.13764 0.36561 0.3579 0.0
C1626 C 0.15217 0.3507 0.35241 0.0
C1627 C 0.15951 0.33994 0.38176 0.0
C1628 C 0.66083 0.82458 0.38756 0.0
C1629 C 0.679 0.85507 0.384 0.0
C1630 C 0.65022 0.80595 0.35938 0.0
C1631 C 0.65725 0.81681 0.32619 0.0
H1632 H 0.65499 0.81492 0.41232 0.0
H1633 H 0.63637 0.78265 0.36383 0.0
S1634 S 0.7031 0.89509 0.30265 0.0
N1635 N 0.70288 0.89537 0.344 0.0
N1636 N 0.68305 0.86033 0.29168 0.0
C1637 C 0.67521 0.84724 0.32222 0.0
C1638 C 0.68598 0.86629 0.35087 0.0
C1639 C 0.17578 0.83701 0.3862 0.0
C1640 C 0.14534 0.82008 0.38102 0.0
C1641 C 0.19565 0.84591 0.35918 0.0
C1642 C 0.18611 0.83843 0.32563 0.0
H1643 H 0.18436 0.84404 0.41124 0.0
H1644 H 0.21884 0.85909 0.36473 0.0
S1645 S 0.10884 0.79222 0.29848 0.0
N1646 N 0.10672 0.79462 0.33953 0.0
N1647 N 0.14407 0.81156 0.28919 0.0
C1648 C 0.15579 0.82103 0.32012 0.0
C1649 C 0.1355 0.8118 0.34764 0.0
C1650 C 0.65797 0.85374 0.85997 0.0
C1651 C 0.66136 0.84586 0.82703 0.0
C1652 C 0.66844 0.84574 0.88826 0.0
C1653 C 0.68286 0.82949 0.88503 0.0
H1654 H 0.64709 0.86632 0.86414 0.0
H1655 H 0.66549 0.85269 0.91279 0.0
S1656 S 0.69657 0.8023 0.80462 0.0
N1657 N 0.67969 0.82023 0.79319 0.0
N1658 N 0.69927 0.80506 0.84582 0.0
C1659 C 0.68619 0.82123 0.85221 0.0
C1660 C 0.67553 0.82944 0.82343 0.0
C1661 C 0.18194 0.85802 0.8489 0.0
C1662 C 0.1766 0.84548 0.88137 0.0
C1663 C 0.17531 0.84091 0.81963 0.0
C1664 C 0.16307 0.81034 0.8213 0.0
H1665 H 0.19156 0.8815 0.84585 0.0
H1666 H 0.18026 0.85183 0.79553 0.0
S1667 S 0.1433 0.76614 0.89986 0.0
N1668 N 0.15734 0.80027 0.91308 0.0
N1669 N 0.14479 0.76799 0.85856 0.0
C1670 C 0.15719 0.79738 0.85361 0.0
C1671 C 0.16396 0.8149 0.88343 0.0
C1672 C 0.16064 0.32906 0.81808 0.0
C1673 C 0.19124 0.34258 0.82154 0.0
C1674 C 0.14198 0.31797 0.84611 0.0
C1675 C 0.15301 0.31982 0.87891 0.0
H1676 H 0.15101 0.32758 0.79366 0.0
H1677 H 0.1186 0.30809 0.84191 0.0
S1678 S 0.2314 0.35093 0.90133 0.0
N1679 N 0.23168 0.35562 0.8604 0.0
N1680 N 0.19661 0.3349 0.91267 0.0
C1681 C 0.18352 0.3327 0.88261 0.0
C1682 C 0.20256 0.34399 0.85409 0.0
C1683 C 0.83147 0.67614 0.72551 0.0
C1684 C 0.85121 0.66563 0.72253 0.0
C1685 C 0.82267 0.68587 0.69728 0.0
C1686 C 0.8332 0.68554 0.66477 0.0
H1687 H 0.82232 0.6764 0.74972 0.0
H1688 H 0.80725 0.69354 0.70107 0.0
S1689 S 0.88688 0.66197 0.6435 0.0
N1690 N 0.88218 0.65684 0.68433 0.0
N1691 N 0.86547 0.67492 0.63171 0.0
C1692 C 0.8533 0.67553 0.66151 0.0
C1693 C 0.86235 0.66569 0.69022 0.0
C1694 C 0.35042 0.1996 0.69387 0.0
C1695 C 0.34598 0.18822 0.72687 0.0
C1696 C 0.33954 0.18124 0.6655 0.0
C1697 C 0.32369 0.15055 0.66871 0.0
H1698 H 0.36236 0.22308 0.68977 0.0
H1699 H 0.34319 0.19124 0.64095 0.0
S1700 S 0.30775 0.10932 0.74915 0.0
N1701 N 0.3257 0.14409 0.76066 0.0
N1702 N 0.30537 0.10954 0.70791 0.0
C1703 C 0.3195 0.13884 0.70157 0.0
C1704 C 0.33053 0.1576 0.73042 0.0
C1705 C 0.86606 0.18708 0.69239 0.0
C1706 C 0.85387 0.17812 0.65995 0.0
C1707 C 0.8485 0.17905 0.72145 0.0
C1708 C 0.81782 0.16172 0.71952 0.0
H1709 H 0.88956 0.20058 0.69558 0.0
H1710 H 0.85906 0.18692 0.74552 0.0
S1711 S 0.77473 0.13112 0.64104 0.0
N1712 N 0.80905 0.15004 0.62809 0.0
N1713 N 0.776 0.13489 0.68217 0.0
C1714 C 0.80531 0.15229 0.68725 0.0
C1715 C 0.82327 0.16049 0.65769 0.0
C1716 C 0.02582 0.48998 0.51225 0.0
C1717 C 0.02211 0.49751 0.54522 0.0
C1718 C 0.01673 0.49934 0.48386 0.0
C1719 C 1.00358 0.5168 0.48709 0.0
H1720 H 0.03569 0.47644 0.50822 0.0
H1721 H 0.0195 0.49234 0.45929 0.0
S1722 S 0.99092 0.54472 0.56752 0.0
N1723 N 0.00564 0.52479 0.57904 0.0
N1724 N 0.98881 0.54263 0.52625 0.0
C1725 C 1.00032 0.52504 0.51993 0.0
C1726 C 0.00945 0.51534 0.54877 0.0
C1727 C 0.49788 0.49328 0.55606 0.0
C1728 C 0.51472 0.52389 0.55251 0.0
C1729 C 0.48938 0.47459 0.52794 0.0
C1730 C 0.49731 0.48557 0.49491 0.0
H1731 H 0.49068 0.48366 0.58067 0.0
H1732 H 0.47625 0.45119 0.53226 0.0
S1733 S 0.54327 0.56398 0.47194 0.0
N1734 N 0.54035 0.5643 0.51311 0.0
N1735 N 0.52431 0.52916 0.46075 0.0
C1736 C 0.51454 0.5161 0.49105 0.0
C1737 C 0.52326 0.53518 0.51965 0.0
C1738 C 0.49759 1.00004 0.48596 0.0
C1739 C 0.52825 0.01635 0.48916 0.0
C1740 C 0.47928 0.98969 0.51435 0.0
C1741 C 0.4907 0.99509 0.54735 0.0
H1742 H 0.48755 0.99575 0.46137 0.0
H1743 H 0.4558 0.97753 0.51022 0.0
S1744 S 0.56966 0.03494 0.56962 0.0
N1745 N 0.56935 0.03612 0.52829 0.0
N1746 N 0.53491 0.01679 0.58118 0.0
C1747 C 0.52134 0.01082 0.55089 0.0
C1748 C 0.54005 0.02136 0.52199 0.0
C1749 C 0.51678 0.98699 1.01543 0.0
C1750 C 0.5105 0.99201 0.04845 0.0
C1751 C 0.50901 0.99766 0.98718 0.0
C1752 C 0.49463 0.01394 0.99057 0.0
H1753 H 0.52805 0.9748 1.01116 0.0
H1754 H 0.5148 0.99353 0.96255 0.0
S1755 S 0.47162 0.03198 0.07123 0.0
N1756 N 0.48802 0.01356 0.08256 0.0
N1757 N 0.4733 0.03355 0.02993 0.0
C1758 C 0.48775 0.01872 0.02344 0.0
C1759 C 0.4957 0.00782 0.05219 0.0
C1760 C 0.01272 0.5178 0.9871 0.0
C1761 C 1.00019 0.4872 0.98935 0.0
C1762 C 0.02249 0.53569 1.0159 0.0
C1763 C 0.02017 0.52385 0.04835 0.0
H1764 H 0.01466 0.52805 0.96297 0.0
H1765 H 0.03188 0.55912 1.01259 0.0
S1766 S 0.99076 0.44521 0.06808 0.0
N1767 N 0.98723 0.44596 0.02705 0.0
N1768 N 0.00542 0.47958 0.08062 0.0
C1769 C 0.00801 0.49336 0.05095 0.0
C1770 C 0.99814 0.4751 1.02167 0.0
C1771 C 0.51896 0.50838 0.05633 0.0
C1772 C 0.48848 0.48974 0.05404 0.0
C1773 C 0.53673 0.51764 0.02744 0.0
C1774 C 0.52491 0.5087 0.99486 0.0
H1775 H 0.52916 0.51637 0.08055 0.0
H1776 H 0.56008 0.53213 0.03081 0.0
S1777 S 0.44656 0.45817 0.9751 0.0
N1778 N 0.44735 0.46146 1.01628 0.0
N1779 N 0.48078 0.47895 0.96248 0.0
C1780 C 0.49453 0.48971 0.99225 0.0
C1781 C 0.47639 0.48022 1.02164 0.0
C1782 C 0.21225 0.04402 0.05536 0.0
C1783 C 0.24068 0.06838 0.05229 0.0
C1784 C 0.20541 0.01635 0.04323 0.0
C1785 C 0.22677 0.01184 0.02758 0.0
H1786 H 0.19509 0.04638 0.06733 0.0
H1787 H 0.18313 0.99837 0.046 0.0
S1788 S 0.30485 0.06827 1.01421 0.0
N1789 N 0.29049 0.08619 0.03286 0.0
N1790 N 0.2778 0.03409 1.01015 0.0
C1791 C 0.2553 0.03609 0.02405 0.0
C1792 C 0.26221 0.06437 0.03634 0.0
C1793 C 0.95455 0.15791 0.05405 0.0
C1794 C 0.93497 0.16616 0.0676 0.0
C1795 C 0.98217 0.17886 0.0419 0.0
C1796 C 0.9912 0.20886 0.04245 0.0
H1797 H 0.94813 0.13501 0.0515 0.0
H1798 H 0.99614 0.17145 0.03084 0.0
S1799 S 0.95033 0.24266 0.07875 0.0
N1800 N 0.92829 0.20704 0.08397 0.0
N1801 N 0.9798 0.24624 0.05968 0.0
C1802 C 0.9725 0.21765 0.05686 0.0
C1803 C 0.94451 0.19636 0.0698 0.0
C1804 C 0.81219 0.78959 0.06749 0.0
C1805 C 0.809 0.79211 0.03276 0.0
C1806 C 0.83302 0.78276 0.08004 0.0
C1807 C 0.85111 0.77781 0.05834 0.0
H1808 H 0.79802 0.79224 0.08509 0.0
H1809 H 0.83445 0.7805 0.10684 0.0
S1810 S 0.85437 0.78508 0.96602 0.0
N1811 N 0.82824 0.79202 0.97724 0.0
N1812 N 0.86624 0.77786 1.00105 0.0
C1813 C 0.84876 0.78092 0.02381 0.0
C1814 C 0.82802 0.7884 1.01097 0.0
C1815 C 0.03732 0.2484 0.49383 0.0
C1816 C 0.01661 0.22021 0.50519 0.0
C1817 C 0.06535 0.25473 0.48316 0.0
C1818 C 0.07362 0.23304 0.48312 0.0
H1819 H 0.03218 0.26593 0.49423 0.0
H1820 H 0.08075 0.27683 0.47505 0.0
S1821 S 0.02678 0.15537 0.50893 0.0
N1822 N 0.00574 0.17007 0.51418 0.0
N1823 N 0.05841 0.18207 0.49483 0.0
C1824 C 0.05277 0.20457 0.49353 0.0
C1825 C 0.02432 0.19816 0.50441 0.0
C1826 C 0.8037 0.82571 0.50121 0.0
C1827 C 0.78244 0.79587 0.50257 0.0
C1828 C 0.79671 0.84651 0.48924 0.0
C1829 C 0.76824 0.83826 0.47775 0.0
H1830 H 0.82566 0.83314 0.51052 0.0
H1831 H 0.81362 0.86935 0.49021 0.0
S1832 S 0.70572 0.76183 0.4727 0.0
N1833 N 0.73247 0.75848 0.48984 0.0
N1834 N 0.71943 0.79727 0.46577 0.0
C1835 C 0.74712 0.80811 0.47769 0.0
C1836 C 0.7542 0.78701 0.49048 0.0
C1837 C 0.20927 0.96729 0.51513 0.0
C1838 C 0.20257 0.99005 0.51378 0.0
C1839 C 0.19019 0.93952 0.5016 0.0
C1840 C 0.16377 0.93352 0.48612 0.0
H1841 H 0.22963 0.97109 0.52634 0.0
H1842 H 0.1964 0.92278 0.50269 0.0
S1843 S 0.13456 0.98455 0.47924 0.0
N1844 N 0.16667 0.00405 0.49784 0.0
N1845 N 0.13086 0.95192 0.4724 0.0
C1846 C 0.15651 0.95588 0.48523 0.0
C1847 C 0.1759 0.98411 0.49903 0.0
C1848 C 0.80982 0.98478 0.99912 0.0
C1849 C 0.78757 0.99182 1.00378 0.0
C1850 C 0.80314 0.95659 0.98884 0.0
C1851 C 0.77398 0.93447 0.98266 0.0
H1852 H 0.83245 1.00092 1.00443 0.0
H1853 H 0.82085 0.95185 0.98661 0.0
S1854 S 0.70829 0.9433 0.98698 0.0
N1855 N 0.73565 0.97539 0.99903 0.0
N1856 N 0.72308 0.92273 0.97874 0.0
C1857 C 0.7517 0.94173 0.98591 0.0
C1858 C 0.7585 0.97031 0.9967 0.0
C1859 C 0.02689 0.82377 1.00818 0.0
C1860 C 0.01958 0.79498 1.0166 0.0
C1861 C 0.05488 0.84391 0.99594 0.0
C1862 C 0.07654 0.83594 0.99132 0.0
H1863 H 0.01105 0.83096 1.01182 0.0
H1864 H 0.05975 0.86607 0.99067 0.0
S1865 S 0.06676 0.7618 1.00616 0.0
N1866 N 0.03526 0.75879 1.01776 0.0
N1867 N 0.08742 0.79605 0.99352 0.0
C1868 C 0.06902 0.80677 0.99866 0.0
C1869 C 0.04066 0.78646 1.01158 0.0
C1870 C 0.15679 0.18025 1.01 0.0
C1871 C 0.18729 0.19651 1.00481 0.0
C1872 C 0.13836 0.19053 0.99838 0.0
C1873 C 0.14986 0.21771 0.98187 0.0
H1874 H 0.14718 0.15956 0.02331 0.0
H1875 H 0.11503 0.17756 1.00318 0.0
S1876 S 0.22803 0.26841 0.9616 0.0
N1877 N 0.22808 0.24091 0.98153 0.0
N1878 N 0.19339 0.2602 0.96002 0.0
C1879 C 0.18022 0.234 0.97624 0.0
C1880 C 0.19894 0.22339 0.98759 0.0
C1881 C 0.94027 0.7974 0.52502 0.0
C1882 C 0.93269 0.78695 0.5579 0.0
C1883 C 0.96854 0.80682 0.51258 0.0
C1884 C 0.9901 0.80547 0.53236 0.0
H1885 H 0.92414 0.79819 0.50887 0.0
H1886 H 0.97339 0.81484 0.48707 0.0
S1887 S 0.97997 0.77823 0.62005 0.0
N1888 N 0.94824 0.77554 0.61011 0.0
N1889 N 1.00103 0.79183 0.58661 0.0
C1890 C 0.98257 0.79509 0.56553 0.0
C1891 C 0.95393 0.78609 0.57828 0.0
C1892 C 0.20691 0.16255 0.55927 0.0
C1893 C 0.23528 0.17038 0.57083 0.0
C1894 C 0.20053 0.18347 0.5462 0.0
C1895 C 0.22231 0.21307 0.54365 0.0
H1896 H 0.18952 0.13989 0.55919 0.0
H1897 H 0.17858 0.17628 0.53701 0.0
S1898 S 0.29918 0.24621 0.57287 0.0
N1899 N 0.28468 0.21092 0.58135 0.0
N1900 N 0.27278 0.24984 0.55521 0.0
C1901 C 0.25052 0.22155 0.55564 0.0
C1902 C 0.25698 0.20034 0.56959 0.0
C1903 C 0.82134 0.03657 0.51721 0.0
C1904 C 0.80114 0.01493 0.53921 0.0
C1905 C 0.84195 0.06458 0.52873 0.0
C1906 C 0.84356 0.07195 0.56275 0.0
H1907 H 0.82125 0.03187 0.49078 0.0
H1908 H 0.8569 0.08064 0.51094 0.0
S1909 S 0.79523 0.02422 0.63058 0.0
N1910 N 0.78352 0.00348 0.59668 0.0
N1911 N 0.82299 0.05599 0.6183 0.0
C1912 C 0.82385 0.05063 0.58516 0.0
C1913 C 0.80251 0.02216 0.57341 0.0
C1914 C 0.87681 0.35915 0.38357 0.0
C1915 C 0.89862 0.35223 0.37532 0.0
C1916 C 0.8842 0.38763 0.3935 0.0
C1917 C 0.91369 0.41023 0.39574 0.0
H1918 H 0.85384 0.34265 0.38132 0.0
H1919 H 0.86665 0.39217 0.39856 0.0
S1920 S 0.97899 0.40215 0.38103 0.0
N1921 N 0.95081 0.36945 0.3725 0.0
N1922 N 0.9648 0.4227 0.39202 0.0
C1923 C 0.9357 0.40318 0.38885 0.0
C1924 C 0.92814 0.37426 0.37845 0.0
C1925 C 0.61591 0.4866 0.38446 0.0
C1926 C 0.59848 0.49315 0.40545 0.0
C1927 C 0.64363 0.50855 0.37378 0.0
C1928 C 0.65518 0.53785 0.38398 0.0
H1929 H 0.60762 0.46451 0.37521 0.0
H1930 H 0.65603 0.5026 0.35705 0.0
S1931 S 0.61899 0.56625 0.44025 0.0
N1932 N 0.59517 0.5308 0.43713 0.0
N1933 N 0.64747 0.57219 0.41708 0.0
C1934 C 0.6384 0.54461 0.40577 0.0
C1935 C 0.60998 0.52225 0.41642 0.0
C1936 C 0.48823 0.13563 0.37703 0.0
C1937 C 0.45908 0.11302 0.37332 0.0
C1938 C 0.51025 0.12966 0.38715 0.0
C1939 C 0.50399 0.10083 0.39448 0.0
H1940 H 0.49423 0.15804 0.37111 0.0
H1941 H 0.53251 0.14782 0.38828 0.0
S1942 S 0.4299 0.03428 0.39191 0.0
N1943 N 0.42443 0.06105 0.3792 0.0
N1944 N 0.46537 0.04973 0.39982 0.0
C1945 C 0.47449 0.07812 0.39197 0.0
C1946 C 0.45218 0.08424 0.38103 0.0
C1947 C 0.71173 0.557 0.8681 0.0
C1948 C 0.68977 0.55388 0.84541 0.0
C1949 C 0.73989 0.56441 0.85708 0.0
C1950 C 0.74704 0.56833 0.82291 0.0
H1951 H 0.70717 0.55366 0.89469 0.0
H1952 H 0.75621 0.56689 0.87533 0.0
S1953 S 0.69858 0.56403 0.7532 0.0
N1954 N 0.67794 0.55661 0.787 0.0
N1955 N 0.73063 0.56935 0.76642 0.0
C1956 C 0.72545 0.565 0.79985 0.0
C1957 C 0.69687 0.558 0.81105 0.0
C1958 C 0.46216 0.1824 0.83732 0.0
C1959 C 0.43706 0.17534 0.81813 0.0
C1960 C 0.46858 0.16075 0.84732 0.0
C1961 C 0.45036 0.13128 0.83815 0.0
H1962 H 0.4765 0.20474 0.84551 0.0
H1963 H 0.48788 0.16709 0.86258 0.0
S1964 S 0.38263 0.1015 0.78696 0.0
N1965 N 0.39431 0.137 0.78953 0.0
N1966 N 0.40651 0.09611 0.8082 0.0
C1967 C 0.42554 0.12394 0.81832 0.0
C1968 C 0.4188 0.14601 0.80843 0.0
C1969 C 0.8291 0.28997 0.82301 0.0
C1970 C 0.83608 0.26783 0.81641 0.0
C1971 C 0.8507 0.31828 0.83278 0.0
C1972 C 0.88009 0.32549 0.83662 0.0
H1973 H 0.8066 0.28519 0.8216 0.0
H1974 H 0.84419 0.33435 0.83847 0.0
S1975 S 0.91084 0.27709 0.8188 0.0
N1976 N 0.87538 0.25634 0.81133 0.0
N1977 N 0.91562 0.3092 0.83088 0.0
C1978 C 0.88762 0.304 0.8292 0.0
C1979 C 0.86573 0.27527 0.81882 0.0
C1980 C 0.43815 0.26903 0.35916 0.0
C1981 C 0.43397 0.26095 0.32529 0.0
C1982 C 0.44521 0.29736 0.36911 0.0
C1983 C 0.44771 0.31851 0.34556 0.0
H1984 H 0.43632 0.25337 0.37799 0.0
H1985 H 0.44898 0.30276 0.39549 0.0
S1986 S 0.43589 0.30671 0.25378 0.0
N1987 N 0.4315 0.27534 0.26823 0.0
N1988 N 0.44351 0.32831 0.28675 0.0
C1989 C 0.44296 0.31031 0.31151 0.0
C1990 C 0.43633 0.28159 0.30143 0.0
C1991 C 0.72859 0.18763 0.33496 0.0
C1992 C 0.74537 0.18022 0.31393 0.0
C1993 C 0.70032 0.16653 0.34518 0.0
C1994 C 0.68751 0.13723 0.33447 0.0
H1995 H 0.73772 0.20977 0.34442 0.0
H1996 H 0.68841 0.17318 0.3618 0.0
S1997 S 0.72178 0.10666 0.27836 0.0
N1998 N 0.74685 0.1417 0.28202 0.0
N1999 N 0.69356 0.10191 0.30121 0.0
C2000 C 0.70376 0.12959 0.31287 0.0
C2001 C 0.73275 0.15108 0.3027 0.0
C2002 C 0.85955 0.58548 0.3186 0.0
C2003 C 0.82961 0.56527 0.32354 0.0
C2004 C 0.88127 0.57878 0.32809 0.0
C2005 C 0.87388 0.55164 0.34297 0.0
H2006 H 0.86618 0.60655 0.30718 0.0
H2007 H 0.90406 0.59498 0.32375 0.0
S2008 S 0.79881 0.49236 0.3644 0.0
N2009 N 0.79385 0.51775 0.34626 0.0
N2010 N 0.83455 0.50522 0.36397 0.0
C2011 C 0.84404 0.5314 0.34835 0.0
C2012 C 0.82195 0.5382 0.3387 0.0
C2013 C 0.61092 0.08486 0.90183 0.0
C2014 C 0.60109 0.105 0.89649 0.0
C2015 C 0.63909 0.09121 0.89161 0.0
C2016 C 0.65813 0.1177 0.87516 0.0
H2017 H 0.59665 0.06405 0.91387 0.0
H2018 H 0.64567 0.07496 0.89565 0.0
S2019 S 0.64295 0.17768 0.85516 0.0
N2020 N 0.61274 0.15245 0.87363 0.0
N2021 N 0.6655 0.16441 0.8548 0.0
C2022 C 0.64868 0.13811 0.87012 0.0
C2023 C 0.62022 0.13177 0.88067 0.0
C2024 C 0.9213 0.54884 0.87338 0.0
C2025 C 0.89208 0.54213 0.86921 0.0
C2026 C 0.92801 0.52732 0.88341 0.0
C2027 C 0.90579 0.49814 0.8893 0.0
H2028 H 0.93912 0.57093 0.86884 0.0
H2029 H 0.95085 0.53366 0.88665 0.0
S2030 S 0.82573 0.46908 0.87967 0.0
N2031 N 0.84074 0.50433 0.87076 0.0
N2032 N 0.85325 0.46362 0.88878 0.0
C2033 C 0.87641 0.49118 0.88507 0.0
C2034 C 0.8696 0.51322 0.8752 0.0
C2035 C 0.4981 0.35779 0.88218 0.0
C2036 C 0.46862 0.35071 0.88023 0.0
C2037 C 0.52011 0.386 0.89167 0.0
C2038 C 0.51333 0.40801 0.89966 0.0
H2039 H 0.5043 0.34173 0.87518 0.0
H2040 H 0.54269 0.39091 0.89166 0.0
S2041 S 0.43866 0.39882 0.90307 0.0
N2042 N 0.43333 0.36681 0.88974 0.0
N2043 N 0.47441 0.4195 0.90866 0.0
C2044 C 0.48365 0.4006 0.89941 0.0
C2045 C 0.46136 0.37202 0.88942 0.0
C2046 C 0.55547 0.69276 0.73693 0.0
C2047 C 0.55112 0.68541 0.70263 0.0
C2048 C 0.56175 0.72063 0.74818 0.0
C2049 C 0.56428 0.7422 0.72549 0.0
H2050 H 0.55475 0.67716 0.75515 0.0
H2051 H 0.56556 0.72569 0.77463 0.0
S2052 S 0.55144 0.73339 0.63401 0.0
N2053 N 0.54678 0.70145 0.64666 0.0
N2054 N 0.5599 0.75402 0.66792 0.0
C2055 C 0.55923 0.73502 0.69143 0.0
C2056 C 0.55232 0.70659 0.67998 0.0
C2057 C 0.31078 0.85344 0.67897 0.0
C2058 C 0.32454 0.88044 0.69597 0.0
C2059 C 0.28315 0.83074 0.68894 0.0
C2060 C 0.26801 0.8344 0.71582 0.0
H2061 H 0.32159 0.84979 0.65797 0.0
H2062 H 0.27332 0.81021 0.6753 0.0
S2063 S 0.29433 0.90089 0.76829 0.0
N2064 N 0.32114 0.90957 0.74109 0.0
N2065 N 0.26864 0.86697 0.75922 0.0
C2066 C 0.28133 0.86135 0.73281 0.0
C2067 C 0.3098 0.88434 0.72309 0.0
C2068 C 0.16239 0.46524 0.69648 0.0
C2069 C 0.13269 0.44672 0.70453 0.0
C2070 C 0.184 0.45933 0.70811 0.0
C2071 C 0.17669 0.43446 0.72784 0.0
H2072 H 0.16895 0.48436 0.68084 0.0
H2073 H 0.20654 0.47388 0.70074 0.0
S2074 S 0.10216 0.37943 0.75654 0.0
N2075 N 0.09703 0.40288 0.73405 0.0
N2076 N 0.13781 0.39159 0.7557 0.0
C2077 C 0.14712 0.41592 0.73642 0.0
C2078 C 0.12508 0.42215 0.7249 0.0
C2079 C 0.37693 0.88792 0.19917 0.0
C2080 C 0.35482 0.88441 0.17649 0.0
C2081 C 0.40491 0.89477 0.18802 0.0
C2082 C 0.41172 0.89774 0.15376 0.0
H2083 H 0.3726 0.88524 0.22584 0.0
H2084 H 0.42136 0.89754 0.20625 0.0
S2085 S 0.36298 0.89266 0.08403 0.0
N2086 N 0.34266 0.88618 0.11795 0.0
N2087 N 0.39498 0.89782 0.09722 0.0
C2088 C 0.39005 0.89421 0.13074 0.0
C2089 C 0.36167 0.88779 0.14204 0.0
C2090 C 0.13582 0.51774 0.16249 0.0
C2091 C 0.11113 0.51103 0.14269 0.0
C2092 C 0.14181 0.4958 0.17279 0.0
C2093 C 0.12362 0.46641 0.16319 0.0
H2094 H 0.15013 0.54001 0.17094 0.0
H2095 H 0.16072 0.50184 0.18862 0.0
S2096 S 0.05695 0.43755 0.11029 0.0
N2097 N 0.0688 0.47308 0.11311 0.0
N2098 N 0.08028 0.43177 0.13213 0.0
C2099 C 0.09926 0.45947 0.1427 0.0
C2100 C 0.09292 0.48179 0.1326 0.0
C2101 C 0.51478 0.64384 0.16449 0.0
C2102 C 0.54421 0.6521 0.17034 0.0
C2103 C 0.49427 0.61512 0.15473 0.0
C2104 C 0.50242 0.59355 0.15003 0.0
H2105 H 0.50735 0.65943 0.1686 0.0
H2106 H 0.47165 0.60962 0.15181 0.0
S2107 S 0.57805 0.60564 0.15848 0.0
N2108 N 0.58116 0.63744 0.16892 0.0
N2109 N 0.54311 0.58383 0.14914 0.0
C2110 C 0.53223 0.60207 0.15454 0.0
C2111 C 0.55297 0.63123 0.16501 0.0
C2112 C 0.13867 0.64307 0.67262 0.0
C2113 C 0.12069 0.65435 0.66243 0.0
C2114 C 0.13293 0.6153 0.66225 0.0
C2115 C 0.10873 0.59757 0.6417 0.0
H2116 H 0.15725 0.65578 0.68896 0.0
H2117 H 0.14706 0.60728 0.67117 0.0
S2118 S 0.05528 0.6172 0.60755 0.0
N2119 N 0.07808 0.64606 0.63007 0.0
N2120 N 0.06707 0.59349 0.6108 0.0
C2121 C 0.09071 0.60867 0.63103 0.0
C2122 C 0.0968 0.6372 0.64125 0.0
C2123 C 0.3643 0.49182 0.67869 0.0
C2124 C 0.35297 0.46265 0.66812 0.0
C2125 C 0.39197 0.51399 0.66819 0.0
C2126 C 0.40959 0.50778 0.6471 0.0
H2127 H 0.35167 0.49753 0.69536 0.0
H2128 H 0.40001 0.53606 0.6774 0.0
S2129 S 0.38988 0.43505 0.6119 0.0
N2130 N 0.36119 0.42873 0.63488 0.0
N2131 N 0.41353 0.47053 0.61539 0.0
C2132 C 0.39847 0.47876 0.6361 0.0
C2133 C 0.37004 0.45618 0.64646 0.0
C2134 C 0.54448 0.91612 0.67238 0.0
C2135 C 0.53688 0.8868 0.67798 0.0
C2136 C 0.52363 0.92337 0.66113 0.0
C2137 C 0.49423 0.9016 0.65541 0.0
H2138 H 0.56678 0.93362 0.67665 0.0
H2139 H 0.53071 0.94625 0.65675 0.0
S2140 S 0.46289 0.82154 0.66858 0.0
N2141 N 0.49798 0.83588 0.67796 0.0
N2142 N 0.45852 0.84941 0.6577 0.0
C2143 C 0.48636 0.87213 0.66112 0.0
C2144 C 0.50773 0.86476 0.67222 0.0
C2145 C 0.27798 0.412 0.23067 0.0
C2146 C 0.26858 0.43217 0.22332 0.0
C2147 C 0.30611 0.41756 0.22126 0.0
C2148 C 0.32549 0.44321 0.2036 0.0
H2149 H 0.2635 0.39186 0.24384 0.0
H2150 H 0.31245 0.40138 0.22706 0.0
S2151 S 0.31125 0.50271 0.17789 0.0
N2152 N 0.28086 0.4786 0.19703 0.0
N2153 N 0.33346 0.48907 0.17964 0.0
C2154 C 0.31634 0.46354 0.19632 0.0
C2155 C 0.28796 0.45803 0.20608 0.0
C2156 C 0.57871 0.8557 0.24112 0.0
C2157 C 0.57 0.82997 0.22255 0.0
C2158 C 0.57288 0.87754 0.22941 0.0
C2159 C 0.55882 0.87453 0.1984 0.0
H2160 H 0.5897 0.8587 0.26495 0.0
H2161 H 0.57968 0.89702 0.24446 0.0
S2162 S 0.5325 0.81139 0.14023 0.0
N2163 N 0.54707 0.80279 0.17183 0.0
N2164 N 0.53649 0.84377 0.14952 0.0
C2165 C 0.55039 0.84897 0.17956 0.0
C2166 C 0.55591 0.8267 0.1917 0.0
C2167 C 0.16248 0.69359 0.2024 0.0
C2168 C 0.13283 0.68259 0.21069 0.0
C2169 C 0.18438 0.72074 0.21447 0.0
C2170 C 0.1775 0.73813 0.23507 0.0
H2171 H 0.16877 0.68122 0.18606 0.0
H2172 H 0.20678 0.72866 0.20659 0.0
S2173 S 0.10344 0.71875 0.26555 0.0
N2174 N 0.09777 0.69064 0.24185 0.0
N2175 N 0.13916 0.7419 0.26459 0.0
C2176 C 0.14805 0.72713 0.24428 0.0
C2177 C 0.12567 0.69926 0.23217 0.0
loop_
_geom_bond_atom_site_label_1
_geom_bond_atom_site_label_2
_geom_bond_distance
_geom_bond_site_symmetry_2
_ccdc_geom_bond_type
C0 C1 1.351 . S
C0 N3 1.368 . S
C0 H5 0.931 . S
C1 C0 1.351 . S
C1 N2 1.373 . S
C1 H29 0.930 . S
N2 C1 1.373 . S
N2 C4 1.340 . S
N3 C0 1.368 . S
N3 C4 1.321 . S
N3 Co6 2.135 . S
C4 N2 1.340 . S
C4 N3 1.321 . S
C4 H28 0.930 1_554 S
H5 C0 0.931 . S
Co6 N3 2.135 . S
Co6 N9 2.121 . S
Co6 O14 2.055 . S
Co6 O17 2.039 . S
Co6 N20 2.140 . S
C7 O8 1.227 . S
C7 O17 1.265 1_556 S
O8 C7 1.227 . S
N9 Co6 2.121 . S
N9 C11 1.375 . S
N9 C12 1.313 . S
C10 C11 1.338 . S
C10 N13 1.377 . S
C10 H30 0.930 . S
C11 N9 1.375 . S
C11 C10 1.338 . S
C11 H15 0.931 . S
C12 N9 1.313 . S
C12 N13 1.344 . S
C12 H16 0.930 . S
N13 C10 1.377 . S
N13 C12 1.344 . S
O14 Co6 2.055 . S
O14 C18 1.253 . S
H15 C11 0.931 . S
H16 C12 0.930 . S
O17 Co6 2.039 . S
O17 C7 1.265 1_554 S
C18 O14 1.253 . S
C18 O19 1.227 . S
O19 C18 1.227 . S
N20 Co6 2.140 . S
N20 C23 1.346 . S
N20 C24 1.345 . S
C21 C22 1.387 . S
C21 C25 1.391 . S
C22 C21 1.387 . S
C22 C23 1.369 . S
C22 H31 0.929 1_554 S
C23 N20 1.346 . S
C23 C22 1.369 . S
C23 H26 0.928 . S
C24 N20 1.345 . S
C24 C25 1.371 . S
C24 H27 0.931 . S
C25 C21 1.391 . S
C25 C24 1.371 . S
C25 H32 0.930 . S
H26 C23 0.928 . S
H27 C24 0.931 . S
H28 C4 0.930 1_556 S
H29 C1 0.930 . S
H30 C10 0.930 . S
H31 C22 0.929 1_556 S
H32 C25 0.930 . S
C33 C34 1.351 . S
C33 N36 1.368 . S
C33 H38 0.931 . S
C34 C33 1.351 . S
C34 N35 1.373 . S
C34 H62 0.930 . S
N35 C34 1.373 . S
N35 C37 1.340 . S
N36 C33 1.368 . S
N36 C37 1.321 . S
N36 Co39 2.135 . S
C37 N35 1.340 . S
C37 N36 1.321 . S
C37 H61 0.930 1_554 S
H38 C33 0.931 . S
Co39 N36 2.135 . S
Co39 N42 2.121 . S
Co39 O47 2.055 . S
Co39 O50 2.039 . S
Co39 N53 2.140 . S
C40 O41 1.227 . S
C40 O50 1.265 1_556 S
O41 C40 1.227 . S
N42 Co39 2.121 . S
N42 C44 1.375 . S
N42 C45 1.313 . S
C43 C44 1.338 . S
C43 N46 1.377 . S
C43 H63 0.930 . S
C44 N42 1.375 . S
C44 C43 1.338 . S
C44 H48 0.931 . S
C45 N42 1.313 . S
C45 N46 1.344 . S
C45 H49 0.930 . S
N46 C43 1.377 . S
N46 C45 1.344 . S
O47 Co39 2.055 . S
O47 C51 1.253 . S
H48 C44 0.931 . S
H49 C45 0.930 . S
O50 Co39 2.039 . S
O50 C40 1.265 1_554 S
C51 O47 1.253 . S
C51 O52 1.227 . S
O52 C51 1.227 . S
N53 Co39 2.140 . S
N53 C56 1.346 . S
N53 C57 1.345 . S
C54 C55 1.387 . S
C54 C58 1.391 . S
C55 C54 1.387 . S
C55 C56 1.369 . S
C55 H64 0.929 1_554 S
C56 N53 1.346 . S
C56 C55 1.369 . S
C56 H59 0.928 . S
C57 N53 1.345 . S
C57 C58 1.371 . S
C57 H60 0.931 . S
C58 C54 1.391 . S
C58 C57 1.371 . S
C58 H65 0.930 . S
H59 C56 0.928 . S
H60 C57 0.931 . S
H61 C37 0.930 1_556 S
H62 C34 0.930 . S
H63 C43 0.930 . S
H64 C55 0.929 1_556 S
H65 C58 0.930 . S
C66 C67 1.351 . S
C66 N69 1.368 . S
C66 H71 0.931 . S
C67 C66 1.351 . S
C67 N68 1.373 . S
C67 H95 0.930 . S
N68 C67 1.373 . S
N68 C70 1.340 . S
N69 C66 1.368 . S
N69 C70 1.321 . S
N69 Co72 2.135 . S
C70 N68 1.340 . S
C70 N69 1.321 . S
C70 H94 0.930 1_554 S
H71 C66 0.931 . S
Co72 N69 2.135 . S
Co72 N75 2.121 . S
Co72 O80 2.055 . S
Co72 O83 2.039 . S
Co72 N86 2.140 . S
C73 O74 1.227 . S
C73 O83 1.265 1_556 S
O74 C73 1.227 . S
N75 Co72 2.121 . S
N75 C77 1.375 . S
N75 C78 1.313 . S
C76 C77 1.338 . S
C76 N79 1.377 . S
C76 H96 0.930 . S
C77 N75 1.375 . S
C77 C76 1.338 . S
C77 H81 0.931 . S
C78 N75 1.313 . S
C78 N79 1.344 . S
C78 H82 0.930 . S
N79 C76 1.377 . S
N79 C78 1.344 . S
O80 Co72 2.055 . S
O80 C84 1.253 . S
H81 C77 0.931 . S
H82 C78 0.930 . S
O83 Co72 2.039 . S
O83 C73 1.265 1_554 S
C84 O80 1.253 . S
C84 O85 1.227 . S
O85 C84 1.227 . S
N86 Co72 2.140 . S
N86 C89 1.346 . S
N86 C90 1.345 . S
C87 C88 1.387 . S
C87 C91 1.391 . S
C88 C87 1.387 . S
C88 C89 1.369 . S
C88 H97 0.929 1_554 S
C89 N86 1.346 . S
C89 C88 1.369 . S
C89 H92 0.928 . S
C90 N86 1.345 . S
C90 C91 1.371 . S
C90 H93 0.931 . S
C91 C87 1.391 . S
C91 C90 1.371 . S
C91 H98 0.930 . S
H92 C89 0.928 . S
H93 C90 0.931 . S
H94 C70 0.930 1_556 S
H95 C67 0.930 . S
H96 C76 0.930 . S
H97 C88 0.929 1_556 S
H98 C91 0.930 . S
C99 C100 1.351 . S
C99 N102 1.368 . S
C99 H104 0.931 . S
C100 C99 1.351 . S
C100 N101 1.373 . S
C100 H128 0.930 . S
N101 C100 1.373 . S
N101 C103 1.340 . S
N102 C99 1.368 . S
N102 C103 1.321 . S
N102 Co105 2.135 . S
C103 N101 1.340 . S
C103 N102 1.321 . S
C103 H127 0.930 . S
H104 C99 0.931 . S
Co105 N102 2.135 . S
Co105 N108 2.121 . S
Co105 O113 2.055 . S
Co105 O116 2.039 . S
Co105 N119 2.140 . S
C106 O107 1.227 . S
C106 O116 1.265 . S
O107 C106 1.227 . S
N108 Co105 2.121 . S
N108 C110 1.375 . S
N108 C111 1.313 . S
C109 C110 1.338 . S
C109 N112 1.377 . S
C109 H129 0.930 . S
C110 N108 1.375 . S
C110 C109 1.338 . S
C110 H114 0.931 . S
C111 N108 1.313 . S
C111 N112 1.344 . S
C111 H115 0.930 . S
N112 C109 1.377 . S
N112 C111 1.344 . S
O113 Co105 2.055 . S
O113 C117 1.253 . S
H114 C110 0.931 . S
H115 C111 0.930 . S
O116 Co105 2.039 . S
O116 C106 1.265 . S
C117 O113 1.253 . S
C117 O118 1.227 . S
O118 C117 1.227 . S
N119 Co105 2.140 . S
N119 C122 1.346 . S
N119 C123 1.345 . S
C120 C121 1.387 . S
C120 C124 1.391 . S
C121 C120 1.387 . S
C121 C122 1.369 . S
C121 H130 0.929 . S
C122 N119 1.346 . S
C122 C121 1.369 . S
C122 H125 0.928 . S
C123 N119 1.345 . S
C123 C124 1.371 . S
C123 H126 0.931 . S
C124 C120 1.391 . S
C124 C123 1.371 . S
C124 H131 0.930 . S
H125 C122 0.928 . S
H126 C123 0.931 . S
H127 C103 0.930 . S
H128 C100 0.930 . S
H129 C109 0.930 . S
H130 C121 0.929 . S
H131 C124 0.930 . S
C132 C133 1.351 . S
C132 N135 1.368 . S
C132 H137 0.931 . S
C133 C132 1.351 . S
C133 N134 1.373 . S
C133 H161 0.930 . S
N134 C133 1.373 . S
N134 C136 1.340 . S
N135 C132 1.368 . S
N135 C136 1.321 . S
N135 Co138 2.135 . S
C136 N134 1.340 . S
C136 N135 1.321 . S
C136 H160 0.930 . S
H137 C132 0.931 . S
Co138 N135 2.135 . S
Co138 N141 2.121 . S
Co138 O146 2.055 . S
Co138 O149 2.039 . S
Co138 N152 2.140 . S
C139 O140 1.227 . S
C139 O149 1.265 . S
O140 C139 1.227 . S
N141 Co138 2.121 . S
N141 C143 1.375 . S
N141 C144 1.313 . S
C142 C143 1.338 . S
C142 N145 1.377 . S
C142 H162 0.930 . S
C143 N141 1.375 . S
C143 C142 1.338 . S
C143 H147 0.931 . S
C144 N141 1.313 . S
C144 N145 1.344 . S
C144 H148 0.930 . S
N145 C142 1.377 . S
N145 C144 1.344 . S
O146 Co138 2.055 . S
O146 C150 1.253 . S
H147 C143 0.931 . S
H148 C144 0.930 . S
O149 Co138 2.039 . S
O149 C139 1.265 . S
C150 O146 1.253 . S
C150 O151 1.227 . S
O151 C150 1.227 . S
N152 Co138 2.140 . S
N152 C155 1.346 . S
N152 C156 1.345 . S
C153 C154 1.387 . S
C153 C157 1.391 . S
C154 C153 1.387 . S
C154 C155 1.369 . S
C154 H163 0.929 . S
C155 N152 1.346 . S
C155 C154 1.369 . S
C155 H158 0.928 . S
C156 N152 1.345 . S
C156 C157 1.371 . S
C156 H159 0.931 . S
C157 C153 1.391 . S
C157 C156 1.371 . S
C157 H164 0.930 . S
H158 C155 0.928 . S
H159 C156 0.931 . S
H160 C136 0.930 . S
H161 C133 0.930 . S
H162 C142 0.930 . S
H163 C154 0.929 . S
H164 C157 0.930 . S
C165 C166 1.351 . S
C165 N168 1.368 . S
C165 H170 0.931 . S
C166 C165 1.351 . S
C166 N167 1.373 . S
C166 H194 0.930 . S
N167 C166 1.373 . S
N167 C169 1.340 . S
N168 C165 1.368 . S
N168 C169 1.321 . S
N168 Co171 2.135 . S
C169 N167 1.340 . S
C169 N168 1.321 . S
C169 H193 0.930 . S
H170 C165 0.931 . S
Co171 N168 2.135 . S
Co171 N174 2.121 . S
Co171 O179 2.055 . S
Co171 O182 2.039 . S
Co171 N185 2.140 . S
C172 O173 1.227 . S
C172 O182 1.265 . S
O173 C172 1.227 . S
N174 Co171 2.121 . S
N174 C176 1.375 . S
N174 C177 1.313 . S
C175 C176 1.338 . S
C175 N178 1.377 . S
C175 H195 0.930 . S
C176 N174 1.375 . S
C176 C175 1.338 . S
C176 H180 0.931 . S
C177 N174 1.313 . S
C177 N178 1.344 . S
C177 H181 0.930 . S
N178 C175 1.377 . S
N178 C177 1.344 . S
O179 Co171 2.055 . S
O179 C183 1.253 . S
H180 C176 0.931 . S
H181 C177 0.930 . S
O182 Co171 2.039 . S
O182 C172 1.265 . S
C183 O179 1.253 . S
C183 O184 1.227 . S
O184 C183 1.227 . S
N185 Co171 2.140 . S
N185 C188 1.346 . S
N185 C189 1.345 . S
C186 C187 1.387 . S
C186 C190 1.391 . S
C187 C186 1.387 . S
C187 C188 1.369 . S
C187 H196 0.929 . S
C188 N185 1.346 . S
C188 C187 1.369 . S
C188 H191 0.928 . S
C189 N185 1.345 . S
C189 C190 1.371 . S
C189 H192 0.931 . S
C190 C186 1.391 . S
C190 C189 1.371 . S
C190 H197 0.930 . S
H191 C188 0.928 . S
H192 C189 0.931 . S
H193 C169 0.930 . S
H194 C166 0.930 . S
H195 C175 0.930 . S
H196 C187 0.929 . S
H197 C190 0.930 . S
C198 C199 1.351 . S
C198 N201 1.368 . S
C198 H203 0.931 . S
C199 C198 1.351 . S
C199 N200 1.373 . S
C199 H227 0.930 . S
N200 C199 1.373 . S
N200 C202 1.340 . S
N201 C198 1.368 . S
N201 C202 1.321 . S
N201 Co204 2.135 . S
C202 N200 1.340 . S
C202 N201 1.321 . S
C202 H226 0.930 1_556 S
H203 C198 0.931 . S
Co204 N201 2.135 . S
Co204 N207 2.121 . S
Co204 O212 2.055 . S
Co204 O215 2.039 . S
Co204 N218 2.140 . S
C205 O206 1.227 . S
C205 O215 1.265 1_554 S
O206 C205 1.227 . S
N207 Co204 2.121 . S
N207 C209 1.375 . S
N207 C210 1.313 . S
C208 C209 1.338 . S
C208 N211 1.377 . S
C208 H228 0.930 . S
C209 N207 1.375 . S
C209 C208 1.338 . S
C209 H213 0.931 . S
C210 N207 1.313 . S
C210 N211 1.344 . S
C210 H214 0.930 . S
N211 C208 1.377 . S
N211 C210 1.344 . S
O212 Co204 2.055 . S
O212 C216 1.253 . S
H213 C209 0.931 . S
H214 C210 0.930 . S
O215 Co204 2.039 . S
O215 C205 1.265 1_556 S
C216 O212 1.253 . S
C216 O217 1.227 . S
O217 C216 1.227 . S
N218 Co204 2.140 . S
N218 C221 1.346 . S
N218 C222 1.345 . S
C219 C220 1.387 . S
C219 C223 1.391 . S
C220 C219 1.387 . S
C220 C221 1.369 . S
C220 H229 0.929 1_556 S
C221 N218 1.346 . S
C221 C220 1.369 . S
C221 H224 0.928 . S
C222 N218 1.345 . S
C222 C223 1.371 . S
C222 H225 0.931 . S
C223 C219 1.391 . S
C223 C222 1.371 . S
C223 H230 0.930 . S
H224 C221 0.928 . S
H225 C222 0.931 . S
H226 C202 0.930 1_554 S
H227 C199 0.930 . S
H228 C208 0.930 . S
H229 C220 0.929 1_554 S
H230 C223 0.930 . S
C231 C232 1.351 . S
C231 N234 1.368 . S
C231 H236 0.931 . S
C232 C231 1.351 . S
C232 N233 1.373 . S
C232 H260 0.930 . S
N233 C232 1.373 . S
N233 C235 1.340 . S
N234 C231 1.368 . S
N234 C235 1.321 . S
N234 Co237 2.135 . S
C235 N233 1.340 . S
C235 N234 1.321 . S
C235 H259 0.930 1_556 S
H236 C231 0.931 . S
Co237 N234 2.135 . S
Co237 N240 2.121 . S
Co237 O245 2.055 . S
Co237 O248 2.039 . S
Co237 N251 2.140 . S
C238 O239 1.227 . S
C238 O248 1.265 1_554 S
O239 C238 1.227 . S
N240 Co237 2.121 . S
N240 C242 1.375 . S
N240 C243 1.313 . S
C241 C242 1.338 . S
C241 N244 1.377 . S
C241 H261 0.930 . S
C242 N240 1.375 . S
C242 C241 1.338 . S
C242 H246 0.931 . S
C243 N240 1.313 . S
C243 N244 1.344 . S
C243 H247 0.930 . S
N244 C241 1.377 . S
N244 C243 1.344 . S
O245 Co237 2.055 . S
O245 C249 1.253 . S
H246 C242 0.931 . S
H247 C243 0.930 . S
O248 Co237 2.039 . S
O248 C238 1.265 1_556 S
C249 O245 1.253 . S
C249 O250 1.227 . S
O250 C249 1.227 . S
N251 Co237 2.140 . S
N251 C254 1.346 . S
N251 C255 1.345 . S
C252 C253 1.387 . S
C252 C256 1.391 . S
C253 C252 1.387 . S
C253 C254 1.369 . S
C253 H262 0.929 1_556 S
C254 N251 1.346 . S
C254 C253 1.369 . S
C254 H257 0.928 . S
C255 N251 1.345 . S
C255 C256 1.371 . S
C255 H258 0.931 . S
C256 C252 1.391 . S
C256 C255 1.371 . S
C256 H263 0.930 . S
H257 C254 0.928 . S
H258 C255 0.931 . S
H259 C235 0.930 1_554 S
H260 C232 0.930 . S
H261 C241 0.930 . S
H262 C253 0.929 1_554 S
H263 C256 0.930 . S
C264 C265 1.351 . S
C264 N267 1.368 . S
C264 H269 0.931 . S
C265 C264 1.351 . S
C265 N266 1.373 . S
C265 H293 0.930 . S
N266 C265 1.373 . S
N266 C268 1.340 . S
N267 C264 1.368 . S
N267 C268 1.321 . S
N267 Co270 2.135 . S
C268 N266 1.340 . S
C268 N267 1.321 . S
C268 H292 0.930 1_556 S
H269 C264 0.931 . S
Co270 N267 2.135 . S
Co270 N273 2.121 . S
Co270 O278 2.055 . S
Co270 O281 2.039 . S
Co270 N284 2.140 . S
C271 O272 1.227 . S
C271 O281 1.265 1_554 S
O272 C271 1.227 . S
N273 Co270 2.121 . S
N273 C275 1.375 . S
N273 C276 1.313 . S
C274 C275 1.338 . S
C274 N277 1.377 . S
C274 H294 0.930 . S
C275 N273 1.375 . S
C275 C274 1.338 . S
C275 H279 0.931 . S
C276 N273 1.313 . S
C276 N277 1.344 . S
C276 H280 0.930 . S
N277 C274 1.377 . S
N277 C276 1.344 . S
O278 Co270 2.055 . S
O278 C282 1.253 . S
H279 C275 0.931 . S
H280 C276 0.930 . S
O281 Co270 2.039 . S
O281 C271 1.265 1_556 S
C282 O278 1.253 . S
C282 O283 1.227 . S
O283 C282 1.227 . S
N284 Co270 2.140 . S
N284 C287 1.346 . S
N284 C288 1.345 . S
C285 C286 1.387 . S
C285 C289 1.391 . S
C286 C285 1.387 . S
C286 C287 1.369 . S
C286 H295 0.929 1_556 S
C287 N284 1.346 . S
C287 C286 1.369 . S
C287 H290 0.928 . S
C288 N284 1.345 . S
C288 C289 1.371 . S
C288 H291 0.931 . S
C289 C285 1.391 . S
C289 C288 1.371 . S
C289 H296 0.930 . S
H290 C287 0.928 . S
H291 C288 0.931 . S
H292 C268 0.930 1_554 S
H293 C265 0.930 . S
H294 C274 0.930 . S
H295 C286 0.929 1_554 S
H296 C289 0.930 . S
C297 C298 1.351 . S
C297 N300 1.368 . S
C297 H302 0.931 . S
C298 C297 1.351 . S
C298 N299 1.373 . S
C298 H326 0.930 . S
N299 C298 1.373 . S
N299 C301 1.340 . S
N300 C297 1.368 . S
N300 C301 1.321 . S
N300 Co303 2.135 . S
C301 N299 1.340 . S
C301 N300 1.321 . S
C301 H325 0.930 . S
H302 C297 0.931 . S
Co303 N300 2.135 . S
Co303 N306 2.121 . S
Co303 O311 2.055 . S
Co303 O314 2.039 . S
Co303 N317 2.140 . S
C304 O305 1.227 . S
C304 O314 1.265 . S
O305 C304 1.227 . S
N306 Co303 2.121 . S
N306 C308 1.375 . S
N306 C309 1.313 . S
C307 C308 1.338 . S
C307 N310 1.377 . S
C307 H327 0.930 . S
C308 N306 1.375 . S
C308 C307 1.338 . S
C308 H312 0.931 . S
C309 N306 1.313 . S
C309 N310 1.344 . S
C309 H313 0.930 . S
N310 C307 1.377 . S
N310 C309 1.344 . S
O311 Co303 2.055 . S
O311 C315 1.253 . S
H312 C308 0.931 . S
H313 C309 0.930 . S
O314 Co303 2.039 . S
O314 C304 1.265 . S
C315 O311 1.253 . S
C315 O316 1.227 . S
O316 C315 1.227 . S
N317 Co303 2.140 . S
N317 C320 1.346 . S
N317 C321 1.345 . S
C318 C319 1.387 . S
C318 C322 1.391 . S
C319 C318 1.387 . S
C319 C320 1.369 . S
C319 H328 0.929 . S
C320 N317 1.346 . S
C320 C319 1.369 . S
C320 H323 0.928 . S
C321 N317 1.345 . S
C321 C322 1.371 . S
C321 H324 0.931 . S
C322 C318 1.391 . S
C322 C321 1.371 . S
C322 H329 0.930 . S
H323 C320 0.928 . S
H324 C321 0.931 . S
H325 C301 0.930 . S
H326 C298 0.930 . S
H327 C307 0.930 . S
H328 C319 0.929 . S
H329 C322 0.930 . S
C330 C331 1.351 . S
C330 N333 1.368 . S
C330 H335 0.931 . S
C331 C330 1.351 . S
C331 N332 1.373 . S
C331 H359 0.930 . S
N332 C331 1.373 . S
N332 C334 1.340 . S
N333 C330 1.368 . S
N333 C334 1.321 . S
N333 Co336 2.135 . S
C334 N332 1.340 . S
C334 N333 1.321 . S
C334 H358 0.930 . S
H335 C330 0.931 . S
Co336 N333 2.135 . S
Co336 N339 2.121 . S
Co336 O344 2.055 . S
Co336 O347 2.039 . S
Co336 N350 2.140 . S
C337 O338 1.227 . S
C337 O347 1.265 . S
O338 C337 1.227 . S
N339 Co336 2.121 . S
N339 C341 1.375 . S
N339 C342 1.313 . S
C340 C341 1.338 . S
C340 N343 1.377 . S
C340 H360 0.930 . S
C341 N339 1.375 . S
C341 C340 1.338 . S
C341 H345 0.931 . S
C342 N339 1.313 . S
C342 N343 1.344 . S
C342 H346 0.930 . S
N343 C340 1.377 . S
N343 C342 1.344 . S
O344 Co336 2.055 . S
O344 C348 1.253 . S
H345 C341 0.931 . S
H346 C342 0.930 . S
O347 Co336 2.039 . S
O347 C337 1.265 . S
C348 O344 1.253 . S
C348 O349 1.227 . S
O349 C348 1.227 . S
N350 Co336 2.140 . S
N350 C353 1.346 . S
N350 C354 1.345 . S
C351 C352 1.387 . S
C351 C355 1.391 . S
C352 C351 1.387 . S
C352 C353 1.369 . S
C352 H361 0.929 . S
C353 N350 1.346 . S
C353 C352 1.369 . S
C353 H356 0.928 . S
C354 N350 1.345 . S
C354 C355 1.371 . S
C354 H357 0.931 . S
C355 C351 1.391 . S
C355 C354 1.371 . S
C355 H362 0.930 . S
H356 C353 0.928 . S
H357 C354 0.931 . S
H358 C334 0.930 . S
H359 C331 0.930 . S
H360 C340 0.930 . S
H361 C352 0.929 . S
H362 C355 0.930 . S
C363 C364 1.351 . S
C363 N366 1.368 . S
C363 H368 0.931 . S
C364 C363 1.351 . S
C364 N365 1.373 . S
C364 H392 0.930 . S
N365 C364 1.373 . S
N365 C367 1.340 . S
N366 C363 1.368 . S
N366 C367 1.321 . S
N366 Co369 2.135 . S
C367 N365 1.340 . S
C367 N366 1.321 . S
C367 H391 0.930 . S
H368 C363 0.931 . S
Co369 N366 2.135 . S
Co369 N372 2.121 . S
Co369 O377 2.055 . S
Co369 O380 2.039 . S
Co369 N383 2.140 . S
C370 O371 1.227 . S
C370 O380 1.265 . S
O371 C370 1.227 . S
N372 Co369 2.121 . S
N372 C374 1.375 . S
N372 C375 1.313 . S
C373 C374 1.338 . S
C373 N376 1.377 . S
C373 H393 0.930 . S
C374 N372 1.375 . S
C374 C373 1.338 . S
C374 H378 0.931 . S
C375 N372 1.313 . S
C375 N376 1.344 . S
C375 H379 0.930 . S
N376 C373 1.377 . S
N376 C375 1.344 . S
O377 Co369 2.055 . S
O377 C381 1.253 . S
H378 C374 0.931 . S
H379 C375 0.930 . S
O380 Co369 2.039 . S
O380 C370 1.265 . S
C381 O377 1.253 . S
C381 O382 1.227 . S
O382 C381 1.227 . S
N383 Co369 2.140 . S
N383 C386 1.346 . S
N383 C387 1.345 . S
C384 C385 1.387 . S
C384 C388 1.391 . S
C385 C384 1.387 . S
C385 C386 1.369 . S
C385 H394 0.929 . S
C386 N383 1.346 . S
C386 C385 1.369 . S
C386 H389 0.928 . S
C387 N383 1.345 . S
C387 C388 1.371 . S
C387 H390 0.931 . S
C388 C384 1.391 . S
C388 C387 1.371 . S
C388 H395 0.930 . S
H389 C386 0.928 . S
H390 C387 0.931 . S
H391 C367 0.930 . S
H392 C364 0.930 . S
H393 C373 0.930 . S
H394 C385 0.929 . S
H395 C388 0.930 . S
C396 C397 1.351 . S
C396 N399 1.368 . S
C396 H401 0.931 . S
C397 C396 1.351 . S
C397 N398 1.373 . S
C397 H425 0.930 . S
N398 C397 1.373 . S
N398 C400 1.340 . S
N399 C396 1.368 . S
N399 C400 1.321 . S
N399 Co402 2.135 . S
C400 N398 1.340 . S
C400 N399 1.321 . S
C400 H424 0.930 . S
H401 C396 0.931 . S
Co402 N399 2.135 . S
Co402 N405 2.121 . S
Co402 O410 2.055 . S
Co402 O413 2.039 . S
Co402 N416 2.140 . S
C403 O404 1.227 . S
C403 O413 1.265 . S
O404 C403 1.227 . S
N405 Co402 2.121 . S
N405 C407 1.375 . S
N405 C408 1.313 . S
C406 C407 1.338 . S
C406 N409 1.377 1_655 S
C406 H426 0.930 1_655 S
C407 N405 1.375 . S
C407 C406 1.338 . S
C407 H411 0.931 . S
C408 N405 1.313 . S
C408 N409 1.344 1_655 S
C408 H412 0.930 . S
N409 C406 1.377 1_455 S
N409 C408 1.344 1_455 S
O410 Co402 2.055 . S
O410 C414 1.253 . S
H411 C407 0.931 . S
H412 C408 0.930 . S
O413 Co402 2.039 . S
O413 C403 1.265 . S
C414 O410 1.253 . S
C414 O415 1.227 . S
O415 C414 1.227 . S
N416 Co402 2.140 . S
N416 C419 1.346 . S
N416 C420 1.345 . S
C417 C418 1.387 . S
C417 C421 1.391 . S
C418 C417 1.387 . S
C418 C419 1.369 . S
C418 H427 0.929 . S
C419 N416 1.346 . S
C419 C418 1.369 . S
C419 H422 0.928 . S
C420 N416 1.345 . S
C420 C421 1.371 . S
C420 H423 0.931 . S
C421 C417 1.391 . S
C421 C420 1.371 . S
C421 H428 0.930 . S
H422 C419 0.928 . S
H423 C420 0.931 . S
H424 C400 0.930 . S
H425 C397 0.930 . S
H426 C406 0.930 1_455 S
H427 C418 0.929 . S
H428 C421 0.930 . S
C429 C430 1.351 . S
C429 N432 1.368 . S
C429 H434 0.931 . S
C430 C429 1.351 . S
C430 N431 1.373 . S
C430 H458 0.930 . S
N431 C430 1.373 . S
N431 C433 1.340 . S
N432 C429 1.368 . S
N432 C433 1.321 . S
N432 Co435 2.135 . S
C433 N431 1.340 . S
C433 N432 1.321 . S
C433 H457 0.930 . S
H434 C429 0.931 . S
Co435 N432 2.135 . S
Co435 N438 2.121 . S
Co435 O443 2.055 . S
Co435 O446 2.039 . S
Co435 N449 2.140 . S
C436 O437 1.227 . S
C436 O446 1.265 . S
O437 C436 1.227 . S
N438 Co435 2.121 . S
N438 C440 1.375 . S
N438 C441 1.313 . S
C439 C440 1.338 . S
C439 N442 1.377 . S
C439 H459 0.930 . S
C440 N438 1.375 . S
C440 C439 1.338 . S
C440 H444 0.931 . S
C441 N438 1.313 . S
C441 N442 1.344 . S
C441 H445 0.930 . S
N442 C439 1.377 . S
N442 C441 1.344 . S
O443 Co435 2.055 . S
O443 C447 1.253 . S
H444 C440 0.931 . S
H445 C441 0.930 . S
O446 Co435 2.039 . S
O446 C436 1.265 . S
C447 O443 1.253 . S
C447 O448 1.227 . S
O448 C447 1.227 . S
N449 Co435 2.140 . S
N449 C452 1.346 . S
N449 C453 1.345 . S
C450 C451 1.387 . S
C450 C454 1.391 . S
C451 C450 1.387 . S
C451 C452 1.369 . S
C451 H460 0.929 . S
C452 N449 1.346 . S
C452 C451 1.369 . S
C452 H455 0.928 . S
C453 N449 1.345 . S
C453 C454 1.371 . S
C453 H456 0.931 . S
C454 C450 1.391 . S
C454 C453 1.371 . S
C454 H461 0.930 . S
H455 C452 0.928 . S
H456 C453 0.931 . S
H457 C433 0.930 . S
H458 C430 0.930 . S
H459 C439 0.930 . S
H460 C451 0.929 . S
H461 C454 0.930 . S
C462 C463 1.351 . S
C462 N465 1.368 . S
C462 H467 0.931 . S
C463 C462 1.351 . S
C463 N464 1.373 . S
C463 H491 0.930 . S
N464 C463 1.373 . S
N464 C466 1.340 . S
N465 C462 1.368 . S
N465 C466 1.321 . S
N465 Co468 2.135 . S
C466 N464 1.340 . S
C466 N465 1.321 . S
C466 H490 0.930 . S
H467 C462 0.931 . S
Co468 N465 2.135 . S
Co468 N471 2.121 . S
Co468 O476 2.055 . S
Co468 O479 2.039 . S
Co468 N482 2.140 . S
C469 O470 1.227 . S
C469 O479 1.265 . S
O470 C469 1.227 . S
N471 Co468 2.121 . S
N471 C473 1.375 . S
N471 C474 1.313 . S
C472 C473 1.338 . S
C472 N475 1.377 1_545 S
C472 H492 0.930 1_545 S
C473 N471 1.375 . S
C473 C472 1.338 . S
C473 H477 0.931 . S
C474 N471 1.313 . S
C474 N475 1.344 1_545 S
C474 H478 0.930 . S
N475 C472 1.377 1_565 S
N475 C474 1.344 1_565 S
O476 Co468 2.055 . S
O476 C480 1.253 . S
H477 C473 0.931 . S
H478 C474 0.930 . S
O479 Co468 2.039 . S
O479 C469 1.265 . S
C480 O476 1.253 . S
C480 O481 1.227 . S
O481 C480 1.227 . S
N482 Co468 2.140 . S
N482 C485 1.346 . S
N482 C486 1.345 . S
C483 C484 1.387 . S
C483 C487 1.391 . S
C484 C483 1.387 . S
C484 C485 1.369 . S
C484 H493 0.929 . S
C485 N482 1.346 . S
C485 C484 1.369 . S
C485 H488 0.928 . S
C486 N482 1.345 . S
C486 C487 1.371 . S
C486 H489 0.931 . S
C487 C483 1.391 . S
C487 C486 1.371 . S
C487 H494 0.930 . S
H488 C485 0.928 . S
H489 C486 0.931 . S
H490 C466 0.930 . S
H491 C463 0.930 . S
H492 C472 0.930 1_565 S
H493 C484 0.929 . S
H494 C487 0.930 . S
C495 C496 1.351 . S
C495 N498 1.368 . S
C495 H500 0.931 . S
C496 C495 1.351 . S
C496 N497 1.373 . S
C496 H524 0.930 . S
N497 C496 1.373 . S
N497 C499 1.340 . S
N498 C495 1.368 . S
N498 C499 1.321 . S
N498 Co501 2.135 . S
C499 N497 1.340 . S
C499 N498 1.321 . S
C499 H523 0.930 . S
H500 C495 0.931 . S
Co501 N498 2.135 . S
Co501 N504 2.121 . S
Co501 O509 2.055 . S
Co501 O512 2.039 . S
Co501 N515 2.140 . S
C502 O503 1.227 . S
C502 O512 1.265 . S
O503 C502 1.227 . S
N504 Co501 2.121 . S
N504 C506 1.375 . S
N504 C507 1.313 . S
C505 C506 1.338 . S
C505 N508 1.377 . S
C505 H525 0.930 . S
C506 N504 1.375 . S
C506 C505 1.338 . S
C506 H510 0.931 . S
C507 N504 1.313 . S
C507 N508 1.344 . S
C507 H511 0.930 . S
N508 C505 1.377 . S
N508 C507 1.344 . S
O509 Co501 2.055 . S
O509 C513 1.253 . S
H510 C506 0.931 . S
H511 C507 0.930 . S
O512 Co501 2.039 . S
O512 C502 1.265 . S
C513 O509 1.253 . S
C513 O514 1.227 . S
O514 C513 1.227 . S
N515 Co501 2.140 . S
N515 C518 1.346 . S
N515 C519 1.345 . S
C516 C517 1.387 . S
C516 C520 1.391 . S
C517 C516 1.387 . S
C517 C518 1.369 . S
C517 H526 0.929 . S
C518 N515 1.346 . S
C518 C517 1.369 . S
C518 H521 0.928 . S
C519 N515 1.345 . S
C519 C520 1.371 . S
C519 H522 0.931 . S
C520 C516 1.391 . S
C520 C519 1.371 . S
C520 H527 0.930 . S
H521 C518 0.928 . S
H522 C519 0.931 . S
H523 C499 0.930 . S
H524 C496 0.930 . S
H525 C505 0.930 . S
H526 C517 0.929 . S
H527 C520 0.930 . S
C528 C529 1.351 . S
C528 N531 1.368 . S
C528 H533 0.931 . S
C529 C528 1.351 . S
C529 N530 1.373 . S
C529 H557 0.930 . S
N530 C529 1.373 . S
N530 C532 1.340 . S
N531 C528 1.368 . S
N531 C532 1.321 . S
N531 Co534 2.135 . S
C532 N530 1.340 . S
C532 N531 1.321 . S
C532 H556 0.930 . S
H533 C528 0.931 . S
Co534 N531 2.135 . S
Co534 N537 2.121 . S
Co534 O542 2.055 . S
Co534 O545 2.039 . S
Co534 N548 2.140 . S
C535 O536 1.227 . S
C535 O545 1.265 . S
O536 C535 1.227 . S
N537 Co534 2.121 . S
N537 C539 1.375 . S
N537 C540 1.313 . S
C538 C539 1.338 . S
C538 N541 1.377 . S
C538 H558 0.930 . S
C539 N537 1.375 . S
C539 C538 1.338 . S
C539 H543 0.931 . S
C540 N537 1.313 . S
C540 N541 1.344 . S
C540 H544 0.930 . S
N541 C538 1.377 . S
N541 C540 1.344 . S
O542 Co534 2.055 . S
O542 C546 1.253 . S
H543 C539 0.931 . S
H544 C540 0.930 . S
O545 Co534 2.039 . S
O545 C535 1.265 . S
C546 O542 1.253 . S
C546 O547 1.227 . S
O547 C546 1.227 . S
N548 Co534 2.140 . S
N548 C551 1.346 . S
N548 C552 1.345 . S
C549 C550 1.387 . S
C549 C553 1.391 . S
C550 C549 1.387 . S
C550 C551 1.369 . S
C550 H559 0.929 . S
C551 N548 1.346 . S
C551 C550 1.369 . S
C551 H554 0.928 . S
C552 N548 1.345 . S
C552 C553 1.371 . S
C552 H555 0.931 . S
C553 C549 1.391 . S
C553 C552 1.371 . S
C553 H560 0.930 . S
H554 C551 0.928 . S
H555 C552 0.931 . S
H556 C532 0.930 . S
H557 C529 0.930 . S
H558 C538 0.930 . S
H559 C550 0.929 . S
H560 C553 0.930 . S
C561 C562 1.351 . S
C561 N564 1.368 . S
C561 H566 0.931 . S
C562 C561 1.351 . S
C562 N563 1.373 . S
C562 H590 0.930 . S
N563 C562 1.373 . S
N563 C565 1.340 . S
N564 C561 1.368 . S
N564 C565 1.321 . S
N564 Co567 2.135 . S
C565 N563 1.340 . S
C565 N564 1.321 . S
C565 H589 0.930 . S
H566 C561 0.931 . S
Co567 N564 2.135 . S
Co567 N570 2.121 . S
Co567 O575 2.055 . S
Co567 O578 2.039 . S
Co567 N581 2.140 . S
C568 O569 1.227 . S
C568 O578 1.265 . S
O569 C568 1.227 . S
N570 Co567 2.121 . S
N570 C572 1.375 . S
N570 C573 1.313 . S
C571 C572 1.338 . S
C571 N574 1.377 . S
C571 H591 0.930 . S
C572 N570 1.375 . S
C572 C571 1.338 . S
C572 H576 0.931 . S
C573 N570 1.313 . S
C573 N574 1.344 . S
C573 H577 0.930 . S
N574 C571 1.377 . S
N574 C573 1.344 . S
O575 Co567 2.055 . S
O575 C579 1.253 . S
H576 C572 0.931 . S
H577 C573 0.930 . S
O578 Co567 2.039 . S
O578 C568 1.265 . S
C579 O575 1.253 . S
C579 O580 1.227 . S
O580 C579 1.227 . S
N581 Co567 2.140 . S
N581 C584 1.346 . S
N581 C585 1.345 . S
C582 C583 1.387 . S
C582 C586 1.391 . S
C583 C582 1.387 . S
C583 C584 1.369 . S
C583 H592 0.929 . S
C584 N581 1.346 . S
C584 C583 1.369 . S
C584 H587 0.928 . S
C585 N581 1.345 . S
C585 C586 1.371 . S
C585 H588 0.931 . S
C586 C582 1.391 . S
C586 C585 1.371 . S
C586 H593 0.930 . S
H587 C584 0.928 . S
H588 C585 0.931 . S
H589 C565 0.930 . S
H590 C562 0.930 . S
H591 C571 0.930 . S
H592 C583 0.929 . S
H593 C586 0.930 . S
C594 C595 1.351 . S
C594 N597 1.368 . S
C594 H599 0.931 . S
C595 C594 1.351 . S
C595 N596 1.373 . S
C595 H623 0.930 . S
N596 C595 1.373 . S
N596 C598 1.340 . S
N597 C594 1.368 . S
N597 C598 1.321 . S
N597 Co600 2.135 . S
C598 N596 1.340 . S
C598 N597 1.321 . S
C598 H622 0.930 . S
H599 C594 0.931 . S
Co600 N597 2.135 . S
Co600 N603 2.121 . S
Co600 O608 2.055 . S
Co600 O611 2.039 . S
Co600 N614 2.140 . S
C601 O602 1.227 . S
C601 O611 1.265 . S
O602 C601 1.227 . S
N603 Co600 2.121 . S
N603 C605 1.375 . S
N603 C606 1.313 . S
C604 C605 1.338 . S
C604 N607 1.377 . S
C604 H624 0.930 . S
C605 N603 1.375 . S
C605 C604 1.338 . S
C605 H609 0.931 . S
C606 N603 1.313 . S
C606 N607 1.344 . S
C606 H610 0.930 . S
N607 C604 1.377 . S
N607 C606 1.344 . S
O608 Co600 2.055 . S
O608 C612 1.253 . S
H609 C605 0.931 . S
H610 C606 0.930 . S
O611 Co600 2.039 . S
O611 C601 1.265 . S
C612 O608 1.253 . S
C612 O613 1.227 . S
O613 C612 1.227 . S
N614 Co600 2.140 . S
N614 C617 1.346 . S
N614 C618 1.345 . S
C615 C616 1.387 . S
C615 C619 1.391 . S
C616 C615 1.387 . S
C616 C617 1.369 . S
C616 H625 0.929 . S
C617 N614 1.346 . S
C617 C616 1.369 . S
C617 H620 0.928 . S
C618 N614 1.345 . S
C618 C619 1.371 . S
C618 H621 0.931 . S
C619 C615 1.391 . S
C619 C618 1.371 . S
C619 H626 0.930 . S
H620 C617 0.928 . S
H621 C618 0.931 . S
H622 C598 0.930 . S
H623 C595 0.930 . S
H624 C604 0.930 . S
H625 C616 0.929 . S
H626 C619 0.930 . S
C627 C628 1.351 . S
C627 N630 1.368 . S
C627 H632 0.931 . S
C628 C627 1.351 . S
C628 N629 1.373 . S
C628 H656 0.930 . S
N629 C628 1.373 . S
N629 C631 1.340 . S
N630 C627 1.368 . S
N630 C631 1.321 . S
N630 Co633 2.135 . S
C631 N629 1.340 . S
C631 N630 1.321 . S
C631 H655 0.930 . S
H632 C627 0.931 . S
Co633 N630 2.135 . S
Co633 N636 2.121 . S
Co633 O641 2.055 . S
Co633 O644 2.039 . S
Co633 N647 2.140 . S
C634 O635 1.227 . S
C634 O644 1.265 . S
O635 C634 1.227 . S
N636 Co633 2.121 . S
N636 C638 1.375 . S
N636 C639 1.313 . S
C637 C638 1.338 . S
C637 N640 1.377 . S
C637 H657 0.930 . S
C638 N636 1.375 . S
C638 C637 1.338 . S
C638 H642 0.931 . S
C639 N636 1.313 . S
C639 N640 1.344 . S
C639 H643 0.930 . S
N640 C637 1.377 . S
N640 C639 1.344 . S
O641 Co633 2.055 . S
O641 C645 1.253 . S
H642 C638 0.931 . S
H643 C639 0.930 . S
O644 Co633 2.039 . S
O644 C634 1.265 . S
C645 O641 1.253 . S
C645 O646 1.227 . S
O646 C645 1.227 . S
N647 Co633 2.140 . S
N647 C650 1.346 . S
N647 C651 1.345 . S
C648 C649 1.387 . S
C648 C652 1.391 . S
C649 C648 1.387 . S
C649 C650 1.369 . S
C649 H658 0.929 . S
C650 N647 1.346 . S
C650 C649 1.369 . S
C650 H653 0.928 . S
C651 N647 1.345 . S
C651 C652 1.371 . S
C651 H654 0.931 . S
C652 C648 1.391 . S
C652 C651 1.371 . S
C652 H659 0.930 . S
H653 C650 0.928 . S
H654 C651 0.931 . S
H655 C631 0.930 . S
H656 C628 0.930 . S
H657 C637 0.930 . S
H658 C649 0.929 . S
H659 C652 0.930 . S
C660 C661 1.351 . S
C660 N663 1.368 . S
C660 H665 0.931 . S
C661 C660 1.351 . S
C661 N662 1.373 . S
C661 H689 0.930 . S
N662 C661 1.373 . S
N662 C664 1.340 . S
N663 C660 1.368 . S
N663 C664 1.321 . S
N663 Co666 2.135 . S
C664 N662 1.340 . S
C664 N663 1.321 . S
C664 H688 0.930 . S
H665 C660 0.931 . S
Co666 N663 2.135 . S
Co666 N669 2.121 . S
Co666 O674 2.055 . S
Co666 O677 2.039 . S
Co666 N680 2.140 . S
C667 O668 1.227 . S
C667 O677 1.265 . S
O668 C667 1.227 . S
N669 Co666 2.121 . S
N669 C671 1.375 . S
N669 C672 1.313 . S
C670 C671 1.338 . S
C670 N673 1.377 . S
C670 H690 0.930 . S
C671 N669 1.375 . S
C671 C670 1.338 . S
C671 H675 0.931 . S
C672 N669 1.313 . S
C672 N673 1.344 . S
C672 H676 0.930 . S
N673 C670 1.377 . S
N673 C672 1.344 . S
O674 Co666 2.055 . S
O674 C678 1.253 . S
H675 C671 0.931 . S
H676 C672 0.930 . S
O677 Co666 2.039 . S
O677 C667 1.265 . S
C678 O674 1.253 . S
C678 O679 1.227 . S
O679 C678 1.227 . S
N680 Co666 2.140 . S
N680 C683 1.346 . S
N680 C684 1.345 . S
C681 C682 1.387 . S
C681 C685 1.391 . S
C682 C681 1.387 . S
C682 C683 1.369 . S
C682 H691 0.929 . S
C683 N680 1.346 . S
C683 C682 1.369 . S
C683 H686 0.928 . S
C684 N680 1.345 . S
C684 C685 1.371 . S
C684 H687 0.931 . S
C685 C681 1.391 . S
C685 C684 1.371 . S
C685 H692 0.930 . S
H686 C683 0.928 . S
H687 C684 0.931 . S
H688 C664 0.930 . S
H689 C661 0.930 . S
H690 C670 0.930 . S
H691 C682 0.929 . S
H692 C685 0.930 . S
C693 C694 1.351 . S
C693 N696 1.368 . S
C693 H698 0.931 . S
C694 C693 1.351 . S
C694 N695 1.373 . S
C694 H722 0.930 . S
N695 C694 1.373 . S
N695 C697 1.340 . S
N696 C693 1.368 . S
N696 C697 1.321 . S
N696 Co699 2.135 . S
C697 N695 1.340 . S
C697 N696 1.321 . S
C697 H721 0.930 . S
H698 C693 0.931 . S
Co699 N696 2.135 . S
Co699 N702 2.121 . S
Co699 O707 2.055 . S
Co699 O710 2.039 . S
Co699 N713 2.140 . S
C700 O701 1.227 . S
C700 O710 1.265 . S
O701 C700 1.227 . S
N702 Co699 2.121 . S
N702 C704 1.375 . S
N702 C705 1.313 . S
C703 C704 1.338 . S
C703 N706 1.377 1_545 S
C703 H723 0.930 1_545 S
C704 N702 1.375 . S
C704 C703 1.338 . S
C704 H708 0.931 . S
C705 N702 1.313 . S
C705 N706 1.344 1_545 S
C705 H709 0.930 . S
N706 C703 1.377 1_565 S
N706 C705 1.344 1_565 S
O707 Co699 2.055 . S
O707 C711 1.253 . S
H708 C704 0.931 . S
H709 C705 0.930 . S
O710 Co699 2.039 . S
O710 C700 1.265 . S
C711 O707 1.253 . S
C711 O712 1.227 . S
O712 C711 1.227 . S
N713 Co699 2.140 . S
N713 C716 1.346 . S
N713 C717 1.345 . S
C714 C715 1.387 . S
C714 C718 1.391 . S
C715 C714 1.387 . S
C715 C716 1.369 . S
C715 H724 0.929 . S
C716 N713 1.346 . S
C716 C715 1.369 . S
C716 H719 0.928 . S
C717 N713 1.345 . S
C717 C718 1.371 . S
C717 H720 0.931 . S
C718 C714 1.391 . S
C718 C717 1.371 . S
C718 H725 0.930 . S
H719 C716 0.928 . S
H720 C717 0.931 . S
H721 C697 0.930 . S
H722 C694 0.930 . S
H723 C703 0.930 1_565 S
H724 C715 0.929 . S
H725 C718 0.930 . S
C726 C727 1.351 . S
C726 N729 1.368 . S
C726 H731 0.931 . S
C727 C726 1.351 . S
C727 N728 1.373 . S
C727 H755 0.930 . S
N728 C727 1.373 . S
N728 C730 1.340 . S
N729 C726 1.368 . S
N729 C730 1.321 . S
N729 Co732 2.135 . S
C730 N728 1.340 . S
C730 N729 1.321 . S
C730 H754 0.930 . S
H731 C726 0.931 . S
Co732 N729 2.135 . S
Co732 N735 2.121 . S
Co732 O740 2.055 . S
Co732 O743 2.039 . S
Co732 N746 2.140 . S
C733 O734 1.227 . S
C733 O743 1.265 . S
O734 C733 1.227 . S
N735 Co732 2.121 . S
N735 C737 1.375 . S
N735 C738 1.313 . S
C736 C737 1.338 . S
C736 N739 1.377 1_655 S
C736 H756 0.930 1_655 S
C737 N735 1.375 . S
C737 C736 1.338 . S
C737 H741 0.931 . S
C738 N735 1.313 . S
C738 N739 1.344 1_655 S
C738 H742 0.930 . S
N739 C736 1.377 1_455 S
N739 C738 1.344 1_455 S
O740 Co732 2.055 . S
O740 C744 1.253 . S
H741 C737 0.931 . S
H742 C738 0.930 . S
O743 Co732 2.039 . S
O743 C733 1.265 . S
C744 O740 1.253 . S
C744 O745 1.227 . S
O745 C744 1.227 . S
N746 Co732 2.140 . S
N746 C749 1.346 . S
N746 C750 1.345 . S
C747 C748 1.387 . S
C747 C751 1.391 . S
C748 C747 1.387 . S
C748 C749 1.369 . S
C748 H757 0.929 . S
C749 N746 1.346 . S
C749 C748 1.369 . S
C749 H752 0.928 . S
C750 N746 1.345 . S
C750 C751 1.371 . S
C750 H753 0.931 . S
C751 C747 1.391 . S
C751 C750 1.371 . S
C751 H758 0.930 . S
H752 C749 0.928 . S
H753 C750 0.931 . S
H754 C730 0.930 . S
H755 C727 0.930 . S
H756 C736 0.930 1_455 S
H757 C748 0.929 . S
H758 C751 0.930 . S
C759 C760 1.351 . S
C759 N762 1.368 . S
C759 H764 0.931 . S
C760 C759 1.351 . S
C760 N761 1.373 . S
C760 H788 0.930 . S
N761 C760 1.373 . S
N761 C763 1.340 . S
N762 C759 1.368 . S
N762 C763 1.321 . S
N762 Co765 2.135 . S
C763 N761 1.340 . S
C763 N762 1.321 . S
C763 H787 0.930 . S
H764 C759 0.931 . S
Co765 N762 2.135 . S
Co765 N768 2.121 . S
Co765 O773 2.055 . S
Co765 O776 2.039 . S
Co765 N779 2.140 . S
C766 O767 1.227 . S
C766 O776 1.265 . S
O767 C766 1.227 . S
N768 Co765 2.121 . S
N768 C770 1.375 . S
N768 C771 1.313 . S
C769 C770 1.338 . S
C769 N772 1.377 . S
C769 H789 0.930 . S
C770 N768 1.375 . S
C770 C769 1.338 . S
C770 H774 0.931 . S
C771 N768 1.313 . S
C771 N772 1.344 . S
C771 H775 0.930 . S
N772 C769 1.377 . S
N772 C771 1.344 . S
O773 Co765 2.055 . S
O773 C777 1.253 . S
H774 C770 0.931 . S
H775 C771 0.930 . S
O776 Co765 2.039 . S
O776 C766 1.265 . S
C777 O773 1.253 . S
C777 O778 1.227 . S
O778 C777 1.227 . S
N779 Co765 2.140 . S
N779 C782 1.346 . S
N779 C783 1.345 . S
C780 C781 1.387 . S
C780 C784 1.391 . S
C781 C780 1.387 . S
C781 C782 1.369 . S
C781 H790 0.929 . S
C782 N779 1.346 . S
C782 C781 1.369 . S
C782 H785 0.928 . S
C783 N779 1.345 . S
C783 C784 1.371 . S
C783 H786 0.931 . S
C784 C780 1.391 . S
C784 C783 1.371 . S
C784 H791 0.930 . S
H785 C782 0.928 . S
H786 C783 0.931 . S
H787 C763 0.930 . S
H788 C760 0.930 . S
H789 C769 0.930 . S
H790 C781 0.929 . S
H791 C784 0.930 . S
C792 C793 1.351 . S
C792 N795 1.368 . S
C792 H797 0.931 . S
C793 C792 1.351 . S
C793 N794 1.373 . S
C793 H821 0.930 . S
N794 C793 1.373 . S
N794 C796 1.340 . S
N795 C792 1.368 . S
N795 C796 1.321 . S
N795 Co798 2.135 . S
C796 N794 1.340 . S
C796 N795 1.321 . S
C796 H820 0.930 . S
H797 C792 0.931 . S
Co798 N795 2.135 . S
Co798 N801 2.121 . S
Co798 O806 2.055 . S
Co798 O809 2.039 . S
Co798 N812 2.140 . S
C799 O800 1.227 . S
C799 O809 1.265 . S
O800 C799 1.227 . S
N801 Co798 2.121 . S
N801 C803 1.375 . S
N801 C804 1.313 . S
C802 C803 1.338 . S
C802 N805 1.377 . S
C802 H822 0.930 . S
C803 N801 1.375 . S
C803 C802 1.338 . S
C803 H807 0.931 . S
C804 N801 1.313 . S
C804 N805 1.344 . S
C804 H808 0.930 . S
N805 C802 1.377 . S
N805 C804 1.344 . S
O806 Co798 2.055 . S
O806 C810 1.253 . S
H807 C803 0.931 . S
H808 C804 0.930 . S
O809 Co798 2.039 . S
O809 C799 1.265 . S
C810 O806 1.253 . S
C810 O811 1.227 . S
O811 C810 1.227 . S
N812 Co798 2.140 . S
N812 C815 1.346 . S
N812 C816 1.345 . S
C813 C814 1.387 . S
C813 C817 1.391 . S
C814 C813 1.387 . S
C814 C815 1.369 . S
C814 H823 0.929 . S
C815 N812 1.346 . S
C815 C814 1.369 . S
C815 H818 0.928 . S
C816 N812 1.345 . S
C816 C817 1.371 . S
C816 H819 0.931 . S
C817 C813 1.391 . S
C817 C816 1.371 . S
C817 H824 0.930 . S
H818 C815 0.928 . S
H819 C816 0.931 . S
H820 C796 0.930 . S
H821 C793 0.930 . S
H822 C802 0.930 . S
H823 C814 0.929 . S
H824 C817 0.930 . S
C825 C826 1.351 . S
C825 N828 1.368 . S
C825 H830 0.931 . S
C826 C825 1.351 . S
C826 N827 1.373 . S
C826 H854 0.930 . S
N827 C826 1.373 . S
N827 C829 1.340 . S
N828 C825 1.368 . S
N828 C829 1.321 . S
N828 Co831 2.135 . S
C829 N827 1.340 . S
C829 N828 1.321 . S
C829 H853 0.930 . S
H830 C825 0.931 . S
Co831 N828 2.135 . S
Co831 N834 2.121 . S
Co831 O839 2.055 . S
Co831 O842 2.039 . S
Co831 N845 2.140 . S
C832 O833 1.227 . S
C832 O842 1.265 . S
O833 C832 1.227 . S
N834 Co831 2.121 . S
N834 C836 1.375 . S
N834 C837 1.313 . S
C835 C836 1.338 . S
C835 N838 1.377 . S
C835 H855 0.930 . S
C836 N834 1.375 . S
C836 C835 1.338 . S
C836 H840 0.931 . S
C837 N834 1.313 . S
C837 N838 1.344 . S
C837 H841 0.930 . S
N838 C835 1.377 . S
N838 C837 1.344 . S
O839 Co831 2.055 . S
O839 C843 1.253 . S
H840 C836 0.931 . S
H841 C837 0.930 . S
O842 Co831 2.039 . S
O842 C832 1.265 . S
C843 O839 1.253 . S
C843 O844 1.227 . S
O844 C843 1.227 . S
N845 Co831 2.140 . S
N845 C848 1.346 . S
N845 C849 1.345 . S
C846 C847 1.387 . S
C846 C850 1.391 . S
C847 C846 1.387 . S
C847 C848 1.369 . S
C847 H856 0.929 . S
C848 N845 1.346 . S
C848 C847 1.369 . S
C848 H851 0.928 . S
C849 N845 1.345 . S
C849 C850 1.371 . S
C849 H852 0.931 . S
C850 C846 1.391 . S
C850 C849 1.371 . S
C850 H857 0.930 . S
H851 C848 0.928 . S
H852 C849 0.931 . S
H853 C829 0.930 . S
H854 C826 0.930 . S
H855 C835 0.930 . S
H856 C847 0.929 . S
H857 C850 0.930 . S
C858 C859 1.351 . S
C858 N861 1.368 . S
C858 H863 0.931 . S
C859 C858 1.351 . S
C859 N860 1.373 . S
C859 H887 0.930 . S
N860 C859 1.373 . S
N860 C862 1.340 . S
N861 C858 1.368 . S
N861 C862 1.321 . S
N861 Co864 2.135 . S
C862 N860 1.340 . S
C862 N861 1.321 . S
C862 H886 0.930 . S
H863 C858 0.931 . S
Co864 N861 2.135 . S
Co864 N867 2.121 . S
Co864 O872 2.055 . S
Co864 O875 2.039 . S
Co864 N878 2.140 . S
C865 O866 1.227 . S
C865 O875 1.265 . S
O866 C865 1.227 . S
N867 Co864 2.121 . S
N867 C869 1.375 . S
N867 C870 1.313 . S
C868 C869 1.338 . S
C868 N871 1.377 . S
C868 H888 0.930 . S
C869 N867 1.375 . S
C869 C868 1.338 . S
C869 H873 0.931 . S
C870 N867 1.313 . S
C870 N871 1.344 . S
C870 H874 0.930 . S
N871 C868 1.377 . S
N871 C870 1.344 . S
O872 Co864 2.055 . S
O872 C876 1.253 . S
H873 C869 0.931 . S
H874 C870 0.930 . S
O875 Co864 2.039 . S
O875 C865 1.265 . S
C876 O872 1.253 . S
C876 O877 1.227 . S
O877 C876 1.227 . S
N878 Co864 2.140 . S
N878 C881 1.346 . S
N878 C882 1.345 . S
C879 C880 1.387 . S
C879 C883 1.391 . S
C880 C879 1.387 . S
C880 C881 1.369 . S
C880 H889 0.929 . S
C881 N878 1.346 . S
C881 C880 1.369 . S
C881 H884 0.928 . S
C882 N878 1.345 . S
C882 C883 1.371 . S
C882 H885 0.931 . S
C883 C879 1.391 . S
C883 C882 1.371 . S
C883 H890 0.930 . S
H884 C881 0.928 . S
H885 C882 0.931 . S
H886 C862 0.930 . S
H887 C859 0.930 . S
H888 C868 0.930 . S
H889 C880 0.929 . S
H890 C883 0.930 . S
C891 C892 1.351 . S
C891 N894 1.368 . S
C891 H896 0.931 . S
C892 C891 1.351 . S
C892 N893 1.373 . S
C892 H920 0.930 . S
N893 C892 1.373 . S
N893 C895 1.340 . S
N894 C891 1.368 . S
N894 C895 1.321 . S
N894 Co897 2.135 . S
C895 N893 1.340 . S
C895 N894 1.321 . S
C895 H919 0.930 . S
H896 C891 0.931 . S
Co897 N894 2.135 . S
Co897 N900 2.121 . S
Co897 O905 2.055 . S
Co897 O908 2.039 . S
Co897 N911 2.140 . S
C898 O899 1.227 . S
C898 O908 1.265 . S
O899 C898 1.227 . S
N900 Co897 2.121 . S
N900 C902 1.375 . S
N900 C903 1.313 . S
C901 C902 1.338 . S
C901 N904 1.377 1_565 S
C901 H921 0.930 1_565 S
C902 N900 1.375 . S
C902 C901 1.338 . S
C902 H906 0.931 . S
C903 N900 1.313 . S
C903 N904 1.344 1_565 S
C903 H907 0.930 . S
N904 C901 1.377 1_545 S
N904 C903 1.344 1_545 S
O905 Co897 2.055 . S
O905 C909 1.253 . S
H906 C902 0.931 . S
H907 C903 0.930 . S
O908 Co897 2.039 . S
O908 C898 1.265 . S
C909 O905 1.253 . S
C909 O910 1.227 . S
O910 C909 1.227 . S
N911 Co897 2.140 . S
N911 C914 1.346 . S
N911 C915 1.345 . S
C912 C913 1.387 . S
C912 C916 1.391 . S
C913 C912 1.387 . S
C913 C914 1.369 . S
C913 H922 0.929 . S
C914 N911 1.346 . S
C914 C913 1.369 . S
C914 H917 0.928 . S
C915 N911 1.345 . S
C915 C916 1.371 . S
C915 H918 0.931 . S
C916 C912 1.391 . S
C916 C915 1.371 . S
C916 H923 0.930 . S
H917 C914 0.928 . S
H918 C915 0.931 . S
H919 C895 0.930 . S
H920 C892 0.930 . S
H921 C901 0.930 1_545 S
H922 C913 0.929 . S
H923 C916 0.930 . S
C924 C925 1.351 . S
C924 N927 1.368 . S
C924 H929 0.931 . S
C925 C924 1.351 . S
C925 N926 1.373 . S
C925 H953 0.930 . S
N926 C925 1.373 . S
N926 C928 1.340 . S
N927 C924 1.368 . S
N927 C928 1.321 . S
N927 Co930 2.135 . S
C928 N926 1.340 . S
C928 N927 1.321 . S
C928 H952 0.930 . S
H929 C924 0.931 . S
Co930 N927 2.135 . S
Co930 N933 2.121 . S
Co930 O938 2.055 . S
Co930 O941 2.039 . S
Co930 N944 2.140 . S
C931 O932 1.227 . S
C931 O941 1.265 . S
O932 C931 1.227 . S
N933 Co930 2.121 . S
N933 C935 1.375 . S
N933 C936 1.313 . S
C934 C935 1.338 . S
C934 N937 1.377 1_455 S
C934 H954 0.930 1_455 S
C935 N933 1.375 . S
C935 C934 1.338 . S
C935 H939 0.931 . S
C936 N933 1.313 . S
C936 N937 1.344 1_455 S
C936 H940 0.930 . S
N937 C934 1.377 1_655 S
N937 C936 1.344 1_655 S
O938 Co930 2.055 . S
O938 C942 1.253 . S
H939 C935 0.931 . S
H940 C936 0.930 . S
O941 Co930 2.039 . S
O941 C931 1.265 . S
C942 O938 1.253 . S
C942 O943 1.227 . S
O943 C942 1.227 . S
N944 Co930 2.140 . S
N944 C947 1.346 . S
N944 C948 1.345 . S
C945 C946 1.387 . S
C945 C949 1.391 . S
C946 C945 1.387 . S
C946 C947 1.369 . S
C946 H955 0.929 . S
C947 N944 1.346 . S
C947 C946 1.369 . S
C947 H950 0.928 . S
C948 N944 1.345 . S
C948 C949 1.371 . S
C948 H951 0.931 . S
C949 C945 1.391 . S
C949 C948 1.371 . S
C949 H956 0.930 . S
H950 C947 0.928 . S
H951 C948 0.931 . S
H952 C928 0.930 . S
H953 C925 0.930 . S
H954 C934 0.930 1_655 S
H955 C946 0.929 . S
H956 C949 0.930 . S
C957 C958 1.351 . S
C957 N960 1.368 . S
C957 H962 0.931 . S
C958 C957 1.351 . S
C958 N959 1.373 . S
C958 H986 0.930 . S
N959 C958 1.373 . S
N959 C961 1.340 . S
N960 C957 1.368 . S
N960 C961 1.321 . S
N960 Co963 2.135 . S
C961 N959 1.340 . S
C961 N960 1.321 . S
C961 H985 0.930 . S
H962 C957 0.931 . S
Co963 N960 2.135 . S
Co963 N966 2.121 . S
Co963 O971 2.055 . S
Co963 O974 2.039 . S
Co963 N977 2.140 . S
C964 O965 1.227 . S
C964 O974 1.265 . S
O965 C964 1.227 . S
N966 Co963 2.121 . S
N966 C968 1.375 . S
N966 C969 1.313 . S
C967 C968 1.338 . S
C967 N970 1.377 . S
C967 H987 0.930 . S
C968 N966 1.375 . S
C968 C967 1.338 . S
C968 H972 0.931 . S
C969 N966 1.313 . S
C969 N970 1.344 . S
C969 H973 0.930 . S
N970 C967 1.377 . S
N970 C969 1.344 . S
O971 Co963 2.055 . S
O971 C975 1.253 . S
H972 C968 0.931 . S
H973 C969 0.930 . S
O974 Co963 2.039 . S
O974 C964 1.265 . S
C975 O971 1.253 . S
C975 O976 1.227 . S
O976 C975 1.227 . S
N977 Co963 2.140 . S
N977 C980 1.346 . S
N977 C981 1.345 . S
C978 C979 1.387 . S
C978 C982 1.391 . S
C979 C978 1.387 . S
C979 C980 1.369 . S
C979 H988 0.929 . S
C980 N977 1.346 . S
C980 C979 1.369 . S
C980 H983 0.928 . S
C981 N977 1.345 . S
C981 C982 1.371 . S
C981 H984 0.931 . S
C982 C978 1.391 . S
C982 C981 1.371 . S
C982 H989 0.930 . S
H983 C980 0.928 . S
H984 C981 0.931 . S
H985 C961 0.930 . S
H986 C958 0.930 . S
H987 C967 0.930 . S
H988 C979 0.929 . S
H989 C982 0.930 . S
C990 C991 1.351 . S
C990 N993 1.368 . S
C990 H995 0.931 . S
C991 C990 1.351 . S
C991 N992 1.373 . S
C991 H1019 0.930 . S
N992 C991 1.373 . S
N992 C994 1.340 . S
N993 C990 1.368 . S
N993 C994 1.321 . S
N993 Co996 2.135 . S
C994 N992 1.340 . S
C994 N993 1.321 . S
C994 H1018 0.930 . S
H995 C990 0.931 . S
Co996 N993 2.135 . S
Co996 N999 2.121 . S
Co996 O1004 2.055 . S
Co996 O1007 2.039 . S
Co996 N1010 2.140 . S
C997 O998 1.227 . S
C997 O1007 1.265 . S
O998 C997 1.227 . S
N999 Co996 2.121 . S
N999 C1001 1.375 . S
N999 C1002 1.313 . S
C1000 C1001 1.338 . S
C1000 N1003 1.377 1_455 S
C1000 H1020 0.930 1_455 S
C1001 N999 1.375 . S
C1001 C1000 1.338 . S
C1001 H1005 0.931 . S
C1002 N999 1.313 . S
C1002 N1003 1.344 1_455 S
C1002 H1006 0.930 . S
N1003 C1000 1.377 1_655 S
N1003 C1002 1.344 1_655 S
O1004 Co996 2.055 . S
O1004 C1008 1.253 . S
H1005 C1001 0.931 . S
H1006 C1002 0.930 . S
O1007 Co996 2.039 . S
O1007 C997 1.265 . S
C1008 O1004 1.253 . S
C1008 O1009 1.227 . S
O1009 C1008 1.227 . S
N1010 Co996 2.140 . S
N1010 C1013 1.346 . S
N1010 C1014 1.345 . S
C1011 C1012 1.387 . S
C1011 C1015 1.391 . S
C1012 C1011 1.387 . S
C1012 C1013 1.369 . S
C1012 H1021 0.929 . S
C1013 N1010 1.346 . S
C1013 C1012 1.369 . S
C1013 H1016 0.928 . S
C1014 N1010 1.345 . S
C1014 C1015 1.371 . S
C1014 H1017 0.931 . S
C1015 C1011 1.391 . S
C1015 C1014 1.371 . S
C1015 H1022 0.930 . S
H1016 C1013 0.928 . S
H1017 C1014 0.931 . S
H1018 C994 0.930 . S
H1019 C991 0.930 . S
H1020 C1000 0.930 1_655 S
H1021 C1012 0.929 . S
H1022 C1015 0.930 . S
C1023 C1024 1.351 . S
C1023 N1026 1.368 . S
C1023 H1028 0.931 . S
C1024 C1023 1.351 . S
C1024 N1025 1.373 . S
C1024 H1052 0.930 . S
N1025 C1024 1.373 . S
N1025 C1027 1.340 . S
N1026 C1023 1.368 . S
N1026 C1027 1.321 . S
N1026 Co1029 2.135 . S
C1027 N1025 1.340 . S
C1027 N1026 1.321 . S
C1027 H1051 0.930 . S
H1028 C1023 0.931 . S
Co1029 N1026 2.135 . S
Co1029 N1032 2.121 . S
Co1029 O1037 2.055 . S
Co1029 O1040 2.039 . S
Co1029 N1043 2.140 . S
C1030 O1031 1.227 . S
C1030 O1040 1.265 . S
O1031 C1030 1.227 . S
N1032 Co1029 2.121 . S
N1032 C1034 1.375 . S
N1032 C1035 1.313 . S
C1033 C1034 1.338 . S
C1033 N1036 1.377 . S
C1033 H1053 0.930 . S
C1034 N1032 1.375 . S
C1034 C1033 1.338 . S
C1034 H1038 0.931 . S
C1035 N1032 1.313 . S
C1035 N1036 1.344 . S
C1035 H1039 0.930 . S
N1036 C1033 1.377 . S
N1036 C1035 1.344 . S
O1037 Co1029 2.055 . S
O1037 C1041 1.253 . S
H1038 C1034 0.931 . S
H1039 C1035 0.930 . S
O1040 Co1029 2.039 . S
O1040 C1030 1.265 . S
C1041 O1037 1.253 . S
C1041 O1042 1.227 . S
O1042 C1041 1.227 . S
N1043 Co1029 2.140 . S
N1043 C1046 1.346 . S
N1043 C1047 1.345 . S
C1044 C1045 1.387 . S
C1044 C1048 1.391 . S
C1045 C1044 1.387 . S
C1045 C1046 1.369 . S
C1045 H1054 0.929 . S
C1046 N1043 1.346 . S
C1046 C1045 1.369 . S
C1046 H1049 0.928 . S
C1047 N1043 1.345 . S
C1047 C1048 1.371 . S
C1047 H1050 0.931 . S
C1048 C1044 1.391 . S
C1048 C1047 1.371 . S
C1048 H1055 0.930 . S
H1049 C1046 0.928 . S
H1050 C1047 0.931 . S
H1051 C1027 0.930 . S
H1052 C1024 0.930 . S
H1053 C1033 0.930 . S
H1054 C1045 0.929 . S
H1055 C1048 0.930 . S
C1056 C1057 1.351 . S
C1056 N1059 1.368 . S
C1056 H1061 0.931 . S
C1057 C1056 1.351 . S
C1057 N1058 1.373 . S
C1057 H1085 0.930 . S
N1058 C1057 1.373 . S
N1058 C1060 1.340 . S
N1059 C1056 1.368 . S
N1059 C1060 1.321 . S
N1059 Co1062 2.135 . S
C1060 N1058 1.340 . S
C1060 N1059 1.321 . S
C1060 H1084 0.930 . S
H1061 C1056 0.931 . S
Co1062 N1059 2.135 . S
Co1062 N1065 2.121 . S
Co1062 O1070 2.055 . S
Co1062 O1073 2.039 . S
Co1062 N1076 2.140 . S
C1063 O1064 1.227 . S
C1063 O1073 1.265 . S
O1064 C1063 1.227 . S
N1065 Co1062 2.121 . S
N1065 C1067 1.375 . S
N1065 C1068 1.313 . S
C1066 C1067 1.338 . S
C1066 N1069 1.377 1_565 S
C1066 H1086 0.930 1_565 S
C1067 N1065 1.375 . S
C1067 C1066 1.338 . S
C1067 H1071 0.931 . S
C1068 N1065 1.313 . S
C1068 N1069 1.344 1_565 S
C1068 H1072 0.930 . S
N1069 C1066 1.377 1_545 S
N1069 C1068 1.344 1_545 S
O1070 Co1062 2.055 . S
O1070 C1074 1.253 . S
H1071 C1067 0.931 . S
H1072 C1068 0.930 . S
O1073 Co1062 2.039 . S
O1073 C1063 1.265 . S
C1074 O1070 1.253 . S
C1074 O1075 1.227 . S
O1075 C1074 1.227 . S
N1076 Co1062 2.140 . S
N1076 C1079 1.346 . S
N1076 C1080 1.345 . S
C1077 C1078 1.387 . S
C1077 C1081 1.391 . S
C1078 C1077 1.387 . S
C1078 C1079 1.369 . S
C1078 H1087 0.929 . S
C1079 N1076 1.346 . S
C1079 C1078 1.369 . S
C1079 H1082 0.928 . S
C1080 N1076 1.345 . S
C1080 C1081 1.371 . S
C1080 H1083 0.931 . S
C1081 C1077 1.391 . S
C1081 C1080 1.371 . S
C1081 H1088 0.930 . S
H1082 C1079 0.928 . S
H1083 C1080 0.931 . S
H1084 C1060 0.930 . S
H1085 C1057 0.930 . S
H1086 C1066 0.930 1_545 S
H1087 C1078 0.929 . S
H1088 C1081 0.930 . S
C1089 C1090 1.351 . S
C1089 N1092 1.368 . S
C1089 H1094 0.931 . S
C1090 C1089 1.351 . S
C1090 N1091 1.373 . S
C1090 H1118 0.930 . S
N1091 C1090 1.373 . S
N1091 C1093 1.340 . S
N1092 C1089 1.368 . S
N1092 C1093 1.321 . S
N1092 Co1095 2.135 . S
C1093 N1091 1.340 . S
C1093 N1092 1.321 . S
C1093 H1117 0.930 . S
H1094 C1089 0.931 . S
Co1095 N1092 2.135 . S
Co1095 N1098 2.121 . S
Co1095 O1103 2.055 . S
Co1095 O1106 2.039 . S
Co1095 N1109 2.140 . S
C1096 O1097 1.227 . S
C1096 O1106 1.265 . S
O1097 C1096 1.227 . S
N1098 Co1095 2.121 . S
N1098 C1100 1.375 . S
N1098 C1101 1.313 . S
C1099 C1100 1.338 . S
C1099 N1102 1.377 . S
C1099 H1119 0.930 . S
C1100 N1098 1.375 . S
C1100 C1099 1.338 . S
C1100 H1104 0.931 . S
C1101 N1098 1.313 . S
C1101 N1102 1.344 . S
C1101 H1105 0.930 . S
N1102 C1099 1.377 . S
N1102 C1101 1.344 . S
O1103 Co1095 2.055 . S
O1103 C1107 1.253 . S
H1104 C1100 0.931 . S
H1105 C1101 0.930 . S
O1106 Co1095 2.039 . S
O1106 C1096 1.265 . S
C1107 O1103 1.253 . S
C1107 O1108 1.227 . S
O1108 C1107 1.227 . S
N1109 Co1095 2.140 . S
N1109 C1112 1.346 . S
N1109 C1113 1.345 . S
C1110 C1111 1.387 . S
C1110 C1114 1.391 . S
C1111 C1110 1.387 . S
C1111 C1112 1.369 . S
C1111 H1120 0.929 . S
C1112 N1109 1.346 . S
C1112 C1111 1.369 . S
C1112 H1115 0.928 . S
C1113 N1109 1.345 . S
C1113 C1114 1.371 . S
C1113 H1116 0.931 . S
C1114 C1110 1.391 . S
C1114 C1113 1.371 . S
C1114 H1121 0.930 . S
H1115 C1112 0.928 . S
H1116 C1113 0.931 . S
H1117 C1093 0.930 . S
H1118 C1090 0.930 . S
H1119 C1099 0.930 . S
H1120 C1111 0.929 . S
H1121 C1114 0.930 . S
C1122 C1123 1.351 . S
C1122 N1125 1.368 . S
C1122 H1127 0.931 . S
C1123 C1122 1.351 . S
C1123 N1124 1.373 . S
C1123 H1151 0.930 . S
N1124 C1123 1.373 . S
N1124 C1126 1.340 . S
N1125 C1122 1.368 . S
N1125 C1126 1.321 . S
N1125 Co1128 2.135 . S
C1126 N1124 1.340 . S
C1126 N1125 1.321 . S
C1126 H1150 0.930 . S
H1127 C1122 0.931 . S
Co1128 N1125 2.135 . S
Co1128 N1131 2.121 . S
Co1128 O1136 2.055 . S
Co1128 O1139 2.039 . S
Co1128 N1142 2.140 . S
C1129 O1130 1.227 . S
C1129 O1139 1.265 . S
O1130 C1129 1.227 . S
N1131 Co1128 2.121 . S
N1131 C1133 1.375 . S
N1131 C1134 1.313 . S
C1132 C1133 1.338 . S
C1132 N1135 1.377 . S
C1132 H1152 0.930 . S
C1133 N1131 1.375 . S
C1133 C1132 1.338 . S
C1133 H1137 0.931 . S
C1134 N1131 1.313 . S
C1134 N1135 1.344 . S
C1134 H1138 0.930 . S
N1135 C1132 1.377 . S
N1135 C1134 1.344 . S
O1136 Co1128 2.055 . S
O1136 C1140 1.253 . S
H1137 C1133 0.931 . S
H1138 C1134 0.930 . S
O1139 Co1128 2.039 . S
O1139 C1129 1.265 . S
C1140 O1136 1.253 . S
C1140 O1141 1.227 . S
O1141 C1140 1.227 . S
N1142 Co1128 2.140 . S
N1142 C1145 1.346 . S
N1142 C1146 1.345 . S
C1143 C1144 1.387 . S
C1143 C1147 1.391 . S
C1144 C1143 1.387 . S
C1144 C1145 1.369 . S
C1144 H1153 0.929 . S
C1145 N1142 1.346 . S
C1145 C1144 1.369 . S
C1145 H1148 0.928 . S
C1146 N1142 1.345 . S
C1146 C1147 1.371 . S
C1146 H1149 0.931 . S
C1147 C1143 1.391 . S
C1147 C1146 1.371 . S
C1147 H1154 0.930 . S
H1148 C1145 0.928 . S
H1149 C1146 0.931 . S
H1150 C1126 0.930 . S
H1151 C1123 0.930 . S
H1152 C1132 0.930 . S
H1153 C1144 0.929 . S
H1154 C1147 0.930 . S
C1155 C1156 1.351 . S
C1155 N1158 1.368 . S
C1155 H1160 0.931 . S
C1156 C1155 1.351 . S
C1156 N1157 1.373 . S
C1156 H1184 0.930 . S
N1157 C1156 1.373 . S
N1157 C1159 1.340 . S
N1158 C1155 1.368 . S
N1158 C1159 1.321 . S
N1158 Co1161 2.135 . S
C1159 N1157 1.340 . S
C1159 N1158 1.321 . S
C1159 H1183 0.930 . S
H1160 C1155 0.931 . S
Co1161 N1158 2.135 . S
Co1161 N1164 2.121 . S
Co1161 O1169 2.055 . S
Co1161 O1172 2.039 . S
Co1161 N1175 2.140 . S
C1162 O1163 1.227 . S
C1162 O1172 1.265 . S
O1163 C1162 1.227 . S
N1164 Co1161 2.121 . S
N1164 C1166 1.375 . S
N1164 C1167 1.313 . S
C1165 C1166 1.338 . S
C1165 N1168 1.377 . S
C1165 H1185 0.930 . S
C1166 N1164 1.375 . S
C1166 C1165 1.338 . S
C1166 H1170 0.931 . S
C1167 N1164 1.313 . S
C1167 N1168 1.344 . S
C1167 H1171 0.930 . S
N1168 C1165 1.377 . S
N1168 C1167 1.344 . S
O1169 Co1161 2.055 . S
O1169 C1173 1.253 . S
H1170 C1166 0.931 . S
H1171 C1167 0.930 . S
O1172 Co1161 2.039 . S
O1172 C1162 1.265 . S
C1173 O1169 1.253 . S
C1173 O1174 1.227 . S
O1174 C1173 1.227 . S
N1175 Co1161 2.140 . S
N1175 C1178 1.346 . S
N1175 C1179 1.345 . S
C1176 C1177 1.387 . S
C1176 C1180 1.391 . S
C1177 C1176 1.387 . S
C1177 C1178 1.369 . S
C1177 H1186 0.929 . S
C1178 N1175 1.346 . S
C1178 C1177 1.369 . S
C1178 H1181 0.928 . S
C1179 N1175 1.345 . S
C1179 C1180 1.371 . S
C1179 H1182 0.931 . S
C1180 C1176 1.391 . S
C1180 C1179 1.371 . S
C1180 H1187 0.930 . S
H1181 C1178 0.928 . S
H1182 C1179 0.931 . S
H1183 C1159 0.930 . S
H1184 C1156 0.930 . S
H1185 C1165 0.930 . S
H1186 C1177 0.929 . S
H1187 C1180 0.930 . S
C1188 C1189 1.369 . S
C1188 C1190 1.419 . S
C1188 H1192 0.930 . S
C1189 C1188 1.369 . S
C1189 C1198 1.429 . S
C1190 C1188 1.419 . S
C1190 C1191 1.363 . S
C1190 H1193 0.929 . S
C1191 C1190 1.363 . S
C1191 C1197 1.428 . S
H1192 C1188 0.930 . S
H1193 C1190 0.929 . S
S1194 N1195 1.613 . S
S1194 N1196 1.610 . S
N1195 S1194 1.613 . S
N1195 C1198 1.350 . S
N1196 S1194 1.610 . S
N1196 C1197 1.351 . S
C1197 C1191 1.428 . S
C1197 N1196 1.351 . S
C1197 C1198 1.434 . S
C1198 C1189 1.429 . S
C1198 N1195 1.350 . S
C1198 C1197 1.434 . S
C1199 C1200 1.369 . S
C1199 C1201 1.419 . S
C1199 H1203 0.930 . S
C1200 C1199 1.369 . S
C1200 C1209 1.429 . S
C1201 C1199 1.419 . S
C1201 C1202 1.363 . S
C1201 H1204 0.929 . S
C1202 C1201 1.363 . S
C1202 C1208 1.428 . S
H1203 C1199 0.930 . S
H1204 C1201 0.929 . S
S1205 N1206 1.613 . S
S1205 N1207 1.610 . S
N1206 S1205 1.613 . S
N1206 C1209 1.350 . S
N1207 S1205 1.610 . S
N1207 C1208 1.351 . S
C1208 C1202 1.428 . S
C1208 N1207 1.351 . S
C1208 C1209 1.434 . S
C1209 C1200 1.429 . S
C1209 N1206 1.350 . S
C1209 C1208 1.434 . S
C1210 C1211 1.369 . S
C1210 C1212 1.419 . S
C1210 H1214 0.930 . S
C1211 C1210 1.369 . S
C1211 C1220 1.429 . S
C1212 C1210 1.419 . S
C1212 C1213 1.363 . S
C1212 H1215 0.929 . S
C1213 C1212 1.363 . S
C1213 C1219 1.428 . S
H1214 C1210 0.930 . S
H1215 C1212 0.929 . S
S1216 N1217 1.613 . S
S1216 N1218 1.610 . S
N1217 S1216 1.613 . S
N1217 C1220 1.350 . S
N1218 S1216 1.610 . S
N1218 C1219 1.351 . S
C1219 C1213 1.428 . S
C1219 N1218 1.351 . S
C1219 C1220 1.434 . S
C1220 C1211 1.429 . S
C1220 N1217 1.350 . S
C1220 C1219 1.434 . S
C1221 C1222 1.369 . S
C1221 C1223 1.419 . S
C1221 H1225 0.930 . S
C1222 C1221 1.369 . S
C1222 C1231 1.429 . S
C1223 C1221 1.419 . S
C1223 C1224 1.363 . S
C1223 H1226 0.929 . S
C1224 C1223 1.363 . S
C1224 C1230 1.428 . S
H1225 C1221 0.930 . S
H1226 C1223 0.929 . S
S1227 N1228 1.613 . S
S1227 N1229 1.610 . S
N1228 S1227 1.613 . S
N1228 C1231 1.350 . S
N1229 S1227 1.610 . S
N1229 C1230 1.351 . S
C1230 C1224 1.428 . S
C1230 N1229 1.351 . S
C1230 C1231 1.434 . S
C1231 C1222 1.429 . S
C1231 N1228 1.350 . S
C1231 C1230 1.434 . S
C1232 C1233 1.369 . S
C1232 C1234 1.419 . S
C1232 H1236 0.930 . S
C1233 C1232 1.369 . S
C1233 C1242 1.429 . S
C1234 C1232 1.419 . S
C1234 C1235 1.363 . S
C1234 H1237 0.929 . S
C1235 C1234 1.363 . S
C1235 C1241 1.428 . S
H1236 C1232 0.930 . S
H1237 C1234 0.929 . S
S1238 N1239 1.613 . S
S1238 N1240 1.610 . S
N1239 S1238 1.613 . S
N1239 C1242 1.350 . S
N1240 S1238 1.610 . S
N1240 C1241 1.351 . S
C1241 C1235 1.428 . S
C1241 N1240 1.351 . S
C1241 C1242 1.434 . S
C1242 C1233 1.429 . S
C1242 N1239 1.350 . S
C1242 C1241 1.434 . S
C1243 C1244 1.369 . S
C1243 C1245 1.419 . S
C1243 H1247 0.930 . S
C1244 C1243 1.369 . S
C1244 C1253 1.429 . S
C1245 C1243 1.419 . S
C1245 C1246 1.363 . S
C1245 H1248 0.929 . S
C1246 C1245 1.363 . S
C1246 C1252 1.428 . S
H1247 C1243 0.930 . S
H1248 C1245 0.929 . S
S1249 N1250 1.613 . S
S1249 N1251 1.610 . S
N1250 S1249 1.613 . S
N1250 C1253 1.350 . S
N1251 S1249 1.610 . S
N1251 C1252 1.351 . S
C1252 C1246 1.428 . S
C1252 N1251 1.351 . S
C1252 C1253 1.434 . S
C1253 C1244 1.429 . S
C1253 N1250 1.350 . S
C1253 C1252 1.434 . S
C1254 C1255 1.369 . S
C1254 C1256 1.419 . S
C1254 H1258 0.930 . S
C1255 C1254 1.369 . S
C1255 C1264 1.429 . S
C1256 C1254 1.419 . S
C1256 C1257 1.363 . S
C1256 H1259 0.929 . S
C1257 C1256 1.363 . S
C1257 C1263 1.428 . S
H1258 C1254 0.930 . S
H1259 C1256 0.929 . S
S1260 N1261 1.613 . S
S1260 N1262 1.610 . S
N1261 S1260 1.613 . S
N1261 C1264 1.350 . S
N1262 S1260 1.610 . S
N1262 C1263 1.351 . S
C1263 C1257 1.428 . S
C1263 N1262 1.351 . S
C1263 C1264 1.434 . S
C1264 C1255 1.429 . S
C1264 N1261 1.350 . S
C1264 C1263 1.434 . S
C1265 C1266 1.369 . S
C1265 C1267 1.419 . S
C1265 H1269 0.930 . S
C1266 C1265 1.369 . S
C1266 C1275 1.429 . S
C1267 C1265 1.419 . S
C1267 C1268 1.363 . S
C1267 H1270 0.929 . S
C1268 C1267 1.363 . S
C1268 C1274 1.428 . S
H1269 C1265 0.930 . S
H1270 C1267 0.929 . S
S1271 N1272 1.613 . S
S1271 N1273 1.610 . S
N1272 S1271 1.613 . S
N1272 C1275 1.350 . S
N1273 S1271 1.610 . S
N1273 C1274 1.351 . S
C1274 C1268 1.428 . S
C1274 N1273 1.351 . S
C1274 C1275 1.434 . S
C1275 C1266 1.429 . S
C1275 N1272 1.350 . S
C1275 C1274 1.434 . S
C1276 C1277 1.369 . S
C1276 C1278 1.419 . S
C1276 H1280 0.930 . S
C1277 C1276 1.369 . S
C1277 C1286 1.429 . S
C1278 C1276 1.419 . S
C1278 C1279 1.363 . S
C1278 H1281 0.929 . S
C1279 C1278 1.363 . S
C1279 C1285 1.428 . S
H1280 C1276 0.930 . S
H1281 C1278 0.929 . S
S1282 N1283 1.613 . S
S1282 N1284 1.610 . S
N1283 S1282 1.613 . S
N1283 C1286 1.350 . S
N1284 S1282 1.610 . S
N1284 C1285 1.351 . S
C1285 C1279 1.428 . S
C1285 N1284 1.351 . S
C1285 C1286 1.434 . S
C1286 C1277 1.429 . S
C1286 N1283 1.350 . S
C1286 C1285 1.434 . S
C1287 C1288 1.369 . S
C1287 C1289 1.419 . S
C1287 H1291 0.930 . S
C1288 C1287 1.369 . S
C1288 C1297 1.429 . S
C1289 C1287 1.419 . S
C1289 C1290 1.363 . S
C1289 H1292 0.929 . S
C1290 C1289 1.363 . S
C1290 C1296 1.428 . S
H1291 C1287 0.930 . S
H1292 C1289 0.929 . S
S1293 N1294 1.613 . S
S1293 N1295 1.610 . S
N1294 S1293 1.613 . S
N1294 C1297 1.350 . S
N1295 S1293 1.610 . S
N1295 C1296 1.351 . S
C1296 C1290 1.428 . S
C1296 N1295 1.351 . S
C1296 C1297 1.434 . S
C1297 C1288 1.429 . S
C1297 N1294 1.350 . S
C1297 C1296 1.434 . S
C1298 C1299 1.369 . S
C1298 C1300 1.419 . S
C1298 H1302 0.930 . S
C1299 C1298 1.369 . S
C1299 C1308 1.429 . S
C1300 C1298 1.419 . S
C1300 C1301 1.363 . S
C1300 H1303 0.929 . S
C1301 C1300 1.363 . S
C1301 C1307 1.428 . S
H1302 C1298 0.930 . S
H1303 C1300 0.929 . S
S1304 N1305 1.613 . S
S1304 N1306 1.610 . S
N1305 S1304 1.613 . S
N1305 C1308 1.350 . S
N1306 S1304 1.610 . S
N1306 C1307 1.351 . S
C1307 C1301 1.428 . S
C1307 N1306 1.351 . S
C1307 C1308 1.434 . S
C1308 C1299 1.429 . S
C1308 N1305 1.350 . S
C1308 C1307 1.434 . S
C1309 C1310 1.369 . S
C1309 C1311 1.419 . S
C1309 H1313 0.930 . S
C1310 C1309 1.369 . S
C1310 C1319 1.429 . S
C1311 C1309 1.419 . S
C1311 C1312 1.363 . S
C1311 H1314 0.929 . S
C1312 C1311 1.363 . S
C1312 C1318 1.428 . S
H1313 C1309 0.930 . S
H1314 C1311 0.929 . S
S1315 N1316 1.613 . S
S1315 N1317 1.610 . S
N1316 S1315 1.613 . S
N1316 C1319 1.350 . S
N1317 S1315 1.610 . S
N1317 C1318 1.351 . S
C1318 C1312 1.428 . S
C1318 N1317 1.351 . S
C1318 C1319 1.434 . S
C1319 C1310 1.429 . S
C1319 N1316 1.350 . S
C1319 C1318 1.434 . S
C1320 C1321 1.369 . S
C1320 C1322 1.430 . S
C1320 H1324 0.930 . S
C1321 C1320 1.369 . S
C1321 C1330 1.429 1_655 S
C1322 C1320 1.430 . S
C1322 C1323 1.337 1_655 S
C1322 H1325 0.946 . S
C1323 C1322 1.337 1_455 S
C1323 C1329 1.428 . S
H1324 C1320 0.930 . S
H1325 C1322 0.946 . S
S1326 N1327 1.613 . S
S1326 N1328 1.610 . S
N1327 S1326 1.613 . S
N1327 C1330 1.350 . S
N1328 S1326 1.610 . S
N1328 C1329 1.351 . S
C1329 C1323 1.428 . S
C1329 N1328 1.351 . S
C1329 C1330 1.434 . S
C1330 C1321 1.429 1_455 S
C1330 N1327 1.350 . S
C1330 C1329 1.434 . S
C1331 C1332 1.369 . S
C1331 C1333 1.419 . S
C1331 H1335 0.930 . S
C1332 C1331 1.369 . S
C1332 C1341 1.429 . S
C1333 C1331 1.419 . S
C1333 C1334 1.363 . S
C1333 H1336 0.929 . S
C1334 C1333 1.363 . S
C1334 C1340 1.428 . S
H1335 C1331 0.930 . S
H1336 C1333 0.929 . S
S1337 N1338 1.613 . S
S1337 N1339 1.610 . S
N1338 S1337 1.613 . S
N1338 C1341 1.350 . S
N1339 S1337 1.610 . S
N1339 C1340 1.351 . S
C1340 C1334 1.428 . S
C1340 N1339 1.351 . S
C1340 C1341 1.434 . S
C1341 C1332 1.429 . S
C1341 N1338 1.350 . S
C1341 C1340 1.434 . S
C1342 C1343 1.369 . S
C1342 C1344 1.419 . S
C1342 H1346 0.930 . S
C1343 C1342 1.369 . S
C1343 C1352 1.429 1_565 S
C1344 C1342 1.419 . S
C1344 C1345 1.363 1_565 S
C1344 H1347 0.929 . S
C1345 C1344 1.363 1_545 S
C1345 C1351 1.428 . S
H1346 C1342 0.930 . S
H1347 C1344 0.929 . S
S1348 N1349 1.613 . S
S1348 N1350 1.610 . S
N1349 S1348 1.613 . S
N1349 C1352 1.350 . S
N1350 S1348 1.610 . S
N1350 C1351 1.351 . S
C1351 C1345 1.428 . S
C1351 N1350 1.351 . S
C1351 C1352 1.434 . S
C1352 C1343 1.429 1_545 S
C1352 N1349 1.350 . S
C1352 C1351 1.434 . S
C1353 C1354 1.369 . S
C1353 C1355 1.419 . S
C1353 H1357 0.930 . S
C1354 C1353 1.369 . S
C1354 C1363 1.429 1_565 S
C1355 C1353 1.419 . S
C1355 C1356 1.363 1_565 S
C1355 H1358 0.929 . S
C1356 C1355 1.363 1_545 S
C1356 C1362 1.428 . S
H1357 C1353 0.930 . S
H1358 C1355 0.929 . S
S1359 N1360 1.613 . S
S1359 N1361 1.610 . S
N1360 S1359 1.613 . S
N1360 C1363 1.350 . S
N1361 S1359 1.610 . S
N1361 C1362 1.351 . S
C1362 C1356 1.428 . S
C1362 N1361 1.351 . S
C1362 C1363 1.434 . S
C1363 C1354 1.429 1_545 S
C1363 N1360 1.350 . S
C1363 C1362 1.434 . S
C1364 C1365 1.369 . S
C1364 C1366 1.420 1_455 S
C1364 H1368 0.942 1_455 S
C1365 C1364 1.369 . S
C1365 C1374 1.429 . S
C1366 C1364 1.420 1_655 S
C1366 C1367 1.363 . S
C1366 H1369 0.929 . S
C1367 C1366 1.363 . S
C1367 C1373 1.432 1_655 S
H1368 C1364 0.942 1_655 S
H1369 C1366 0.929 . S
S1370 N1371 1.613 . S
S1370 N1372 1.610 . S
N1371 S1370 1.613 . S
N1371 C1374 1.350 . S
N1372 S1370 1.610 . S
N1372 C1373 1.338 . S
C1373 C1367 1.432 1_455 S
C1373 N1372 1.338 . S
C1373 C1374 1.447 . S
C1374 C1365 1.429 . S
C1374 N1371 1.350 . S
C1374 C1373 1.447 . S
C1375 C1376 1.369 . S
C1375 C1377 1.419 . S
C1375 H1379 0.930 . S
C1376 C1375 1.369 . S
C1376 C1385 1.429 . S
C1377 C1375 1.419 . S
C1377 C1378 1.363 . S
C1377 H1380 0.929 . S
C1378 C1377 1.363 . S
C1378 C1384 1.428 . S
H1379 C1375 0.930 . S
H1380 C1377 0.929 . S
S1381 N1382 1.613 . S
S1381 N1383 1.610 . S
N1382 S1381 1.613 . S
N1382 C1385 1.350 . S
N1383 S1381 1.610 . S
N1383 C1384 1.351 . S
C1384 C1378 1.428 . S
C1384 N1383 1.351 . S
C1384 C1385 1.434 . S
C1385 C1376 1.429 . S
C1385 N1382 1.350 . S
C1385 C1384 1.434 . S
C1386 C1387 1.369 . S
C1386 C1388 1.419 . S
C1386 H1390 0.930 . S
C1387 C1386 1.369 . S
C1387 C1396 1.429 . S
C1388 C1386 1.419 . S
C1388 C1389 1.363 . S
C1388 H1391 0.929 . S
C1389 C1388 1.363 . S
C1389 C1395 1.428 . S
H1390 C1386 0.930 . S
H1391 C1388 0.929 . S
S1392 N1393 1.613 . S
S1392 N1394 1.610 . S
N1393 S1392 1.613 . S
N1393 C1396 1.350 . S
N1394 S1392 1.610 . S
N1394 C1395 1.351 . S
C1395 C1389 1.428 . S
C1395 N1394 1.351 . S
C1395 C1396 1.434 . S
C1396 C1387 1.429 . S
C1396 N1393 1.350 . S
C1396 C1395 1.434 . S
C1397 C1398 1.369 . S
C1397 C1399 1.419 . S
C1397 H1401 0.930 . S
C1398 C1397 1.369 . S
C1398 C1407 1.429 . S
C1399 C1397 1.419 . S
C1399 C1400 1.363 . S
C1399 H1402 0.929 1_545 S
C1400 C1399 1.363 . S
C1400 C1406 1.428 . S
H1401 C1397 0.930 . S
H1402 C1399 0.929 1_565 S
S1403 N1404 1.613 . S
S1403 N1405 1.610 . S
N1404 S1403 1.613 . S
N1404 C1407 1.350 . S
N1405 S1403 1.610 . S
N1405 C1406 1.351 . S
C1406 C1400 1.428 . S
C1406 N1405 1.351 . S
C1406 C1407 1.434 . S
C1407 C1398 1.429 . S
C1407 N1404 1.350 . S
C1407 C1406 1.434 . S
C1408 C1409 1.369 . S
C1408 C1410 1.419 . S
C1408 H1412 0.930 . S
C1409 C1408 1.369 . S
C1409 C1418 1.429 . S
C1410 C1408 1.419 . S
C1410 C1411 1.363 . S
C1410 H1413 0.929 . S
C1411 C1410 1.363 . S
C1411 C1417 1.428 . S
H1412 C1408 0.930 . S
H1413 C1410 0.929 . S
S1414 N1415 1.613 . S
S1414 N1416 1.610 . S
N1415 S1414 1.613 . S
N1415 C1418 1.350 . S
N1416 S1414 1.610 . S
N1416 C1417 1.351 . S
C1417 C1411 1.428 . S
C1417 N1416 1.351 . S
C1417 C1418 1.434 . S
C1418 C1409 1.429 . S
C1418 N1415 1.350 . S
C1418 C1417 1.434 . S
C1419 C1420 1.369 . S
C1419 C1421 1.419 . S
C1419 H1423 0.930 . S
C1420 C1419 1.369 . S
C1420 C1429 1.429 . S
C1421 C1419 1.419 . S
C1421 C1422 1.363 . S
C1421 H1424 0.929 . S
C1422 C1421 1.363 . S
C1422 C1428 1.428 . S
H1423 C1419 0.930 . S
H1424 C1421 0.929 . S
S1425 N1426 1.613 . S
S1425 N1427 1.610 . S
N1426 S1425 1.613 . S
N1426 C1429 1.350 . S
N1427 S1425 1.610 . S
N1427 C1428 1.351 . S
C1428 C1422 1.428 . S
C1428 N1427 1.351 . S
C1428 C1429 1.434 . S
C1429 C1420 1.429 . S
C1429 N1426 1.350 . S
C1429 C1428 1.434 . S
C1430 C1431 1.369 . S
C1430 C1432 1.419 . S
C1430 H1434 0.930 . S
C1431 C1430 1.369 . S
C1431 C1440 1.429 . S
C1432 C1430 1.419 . S
C1432 C1433 1.363 . S
C1432 H1435 0.929 . S
C1433 C1432 1.363 . S
C1433 C1439 1.428 . S
H1434 C1430 0.930 . S
H1435 C1432 0.929 . S
S1436 N1437 1.613 . S
S1436 N1438 1.610 . S
N1437 S1436 1.613 . S
N1437 C1440 1.350 . S
N1438 S1436 1.610 . S
N1438 C1439 1.351 . S
C1439 C1433 1.428 . S
C1439 N1438 1.351 . S
C1439 C1440 1.434 . S
C1440 C1431 1.429 . S
C1440 N1437 1.350 . S
C1440 C1439 1.434 . S
C1441 C1442 1.369 . S
C1441 C1443 1.419 . S
C1441 H1445 0.930 . S
C1442 C1441 1.369 . S
C1442 C1451 1.429 . S
C1443 C1441 1.419 . S
C1443 C1444 1.363 . S
C1443 H1446 0.929 . S
C1444 C1443 1.363 . S
C1444 C1450 1.428 . S
H1445 C1441 0.930 . S
H1446 C1443 0.929 . S
S1447 N1448 1.613 . S
S1447 N1449 1.610 . S
N1448 S1447 1.613 . S
N1448 C1451 1.350 . S
N1449 S1447 1.610 . S
N1449 C1450 1.351 . S
C1450 C1444 1.428 . S
C1450 N1449 1.351 . S
C1450 C1451 1.434 . S
C1451 C1442 1.429 . S
C1451 N1448 1.350 . S
C1451 C1450 1.434 . S
C1452 C1453 1.369 . S
C1452 C1454 1.419 . S
C1452 H1456 0.930 . S
C1453 C1452 1.369 . S
C1453 C1462 1.429 . S
C1454 C1452 1.419 . S
C1454 C1455 1.363 . S
C1454 H1457 0.929 . S
C1455 C1454 1.363 . S
C1455 C1461 1.428 . S
H1456 C1452 0.930 . S
H1457 C1454 0.929 . S
S1458 N1459 1.613 . S
S1458 N1460 1.610 . S
N1459 S1458 1.613 . S
N1459 C1462 1.350 . S
N1460 S1458 1.610 . S
N1460 C1461 1.351 . S
C1461 C1455 1.428 . S
C1461 N1460 1.351 . S
C1461 C1462 1.434 . S
C1462 C1453 1.429 . S
C1462 N1459 1.350 . S
C1462 C1461 1.434 . S
C1463 C1464 1.369 . S
C1463 C1465 1.419 . S
C1463 H1467 0.930 . S
C1464 C1463 1.369 . S
C1464 C1473 1.429 . S
C1465 C1463 1.419 . S
C1465 C1466 1.363 . S
C1465 H1468 0.929 . S
C1466 C1465 1.363 . S
C1466 C1472 1.428 . S
H1467 C1463 0.930 . S
H1468 C1465 0.929 . S
S1469 N1470 1.613 1_545 S
S1469 N1471 1.610 . S
N1470 S1469 1.613 1_565 S
N1470 C1473 1.350 . S
N1471 S1469 1.610 . S
N1471 C1472 1.351 1_545 S
C1472 C1466 1.428 . S
C1472 N1471 1.351 1_565 S
C1472 C1473 1.434 . S
C1473 C1464 1.429 . S
C1473 N1470 1.350 . S
C1473 C1472 1.434 . S
C1474 C1475 1.369 . S
C1474 C1476 1.419 . S
C1474 H1478 0.930 . S
C1475 C1474 1.369 . S
C1475 C1484 1.429 . S
C1476 C1474 1.419 . S
C1476 C1477 1.363 . S
C1476 H1479 0.929 . S
C1477 C1476 1.363 . S
C1477 C1483 1.428 . S
H1478 C1474 0.930 . S
H1479 C1476 0.929 . S
S1480 N1481 1.613 1_655 S
S1480 N1482 1.610 . S
N1481 S1480 1.613 1_455 S
N1481 C1484 1.350 . S
N1482 S1480 1.610 . S
N1482 C1483 1.351 1_655 S
C1483 C1477 1.428 . S
C1483 N1482 1.351 1_455 S
C1483 C1484 1.434 . S
C1484 C1475 1.429 . S
C1484 N1481 1.350 . S
C1484 C1483 1.434 . S
C1485 C1486 1.369 . S
C1485 C1487 1.419 . S
C1485 H1489 0.930 . S
C1486 C1485 1.369 . S
C1486 C1495 1.429 . S
C1487 C1485 1.419 . S
C1487 C1488 1.363 . S
C1487 H1490 0.929 . S
C1488 C1487 1.363 . S
C1488 C1494 1.428 . S
H1489 C1485 0.930 . S
H1490 C1487 0.929 . S
S1491 N1492 1.613 . S
S1491 N1493 1.610 . S
N1492 S1491 1.613 . S
N1492 C1495 1.350 . S
N1493 S1491 1.610 . S
N1493 C1494 1.351 . S
C1494 C1488 1.428 . S
C1494 N1493 1.351 . S
C1494 C1495 1.434 . S
C1495 C1486 1.429 . S
C1495 N1492 1.350 . S
C1495 C1494 1.434 . S
C1496 C1497 1.369 . S
C1496 C1498 1.419 . S
C1496 H1500 0.930 1_545 S
C1497 C1496 1.369 . S
C1497 C1506 1.429 . S
C1498 C1496 1.419 . S
C1498 C1499 1.363 . S
C1498 H1501 0.929 . S
C1499 C1498 1.363 . S
C1499 C1505 1.428 . S
H1500 C1496 0.930 1_565 S
H1501 C1498 0.929 . S
S1502 N1503 1.613 . S
S1502 N1504 1.610 . S
N1503 S1502 1.613 . S
N1503 C1506 1.350 . S
N1504 S1502 1.610 . S
N1504 C1505 1.351 . S
C1505 C1499 1.428 . S
C1505 N1504 1.351 . S
C1505 C1506 1.434 . S
C1506 C1497 1.429 . S
C1506 N1503 1.350 . S
C1506 C1505 1.434 . S
C1507 C1508 1.369 . S
C1507 C1509 1.419 . S
C1507 H1511 0.930 . S
C1508 C1507 1.369 . S
C1508 C1517 1.429 . S
C1509 C1507 1.419 . S
C1509 C1510 1.363 . S
C1509 H1512 0.929 . S
C1510 C1509 1.363 . S
C1510 C1516 1.428 . S
H1511 C1507 0.930 . S
H1512 C1509 0.929 . S
S1513 N1514 1.613 . S
S1513 N1515 1.610 1_455 S
N1514 S1513 1.613 . S
N1514 C1517 1.350 1_455 S
N1515 S1513 1.610 1_655 S
N1515 C1516 1.351 . S
C1516 C1510 1.428 . S
C1516 N1515 1.351 . S
C1516 C1517 1.434 . S
C1517 C1508 1.429 . S
C1517 N1514 1.350 1_655 S
C1517 C1516 1.434 . S
C1518 C1519 1.369 . S
C1518 C1520 1.419 1_655 S
C1518 H1522 0.930 . S
C1519 C1518 1.369 . S
C1519 C1528 1.429 . S
C1520 C1518 1.419 1_455 S
C1520 C1521 1.363 . S
C1520 H1523 0.929 . S
C1521 C1520 1.363 . S
C1521 C1527 1.428 . S
H1522 C1518 0.930 . S
H1523 C1520 0.929 . S
S1524 N1525 1.598 1_455 S
S1524 N1526 1.652 . S
N1525 S1524 1.598 1_655 S
N1525 C1528 1.350 . S
N1526 S1524 1.652 . S
N1526 C1527 1.351 . S
C1527 C1521 1.428 . S
C1527 N1526 1.351 . S
C1527 C1528 1.434 1_455 S
C1528 C1519 1.429 . S
C1528 N1525 1.350 . S
C1528 C1527 1.434 1_655 S
C1529 C1530 1.369 . S
C1529 C1531 1.419 . S
C1529 H1533 0.930 . S
C1530 C1529 1.369 . S
C1530 C1539 1.429 . S
C1531 C1529 1.419 . S
C1531 C1532 1.363 . S
C1531 H1534 0.929 . S
C1532 C1531 1.363 . S
C1532 C1538 1.428 . S
H1533 C1529 0.930 . S
H1534 C1531 0.929 . S
S1535 N1536 1.613 . S
S1535 N1537 1.610 . S
N1536 S1535 1.613 . S
N1536 C1539 1.350 . S
N1537 S1535 1.610 . S
N1537 C1538 1.351 . S
C1538 C1532 1.428 . S
C1538 N1537 1.351 . S
C1538 C1539 1.434 . S
C1539 C1530 1.429 . S
C1539 N1536 1.350 . S
C1539 C1538 1.434 . S
C1540 C1541 1.369 . S
C1540 C1542 1.419 1_545 S
C1540 H1544 0.930 . S
C1541 C1540 1.369 . S
C1541 C1550 1.429 . S
C1542 C1540 1.419 1_565 S
C1542 C1543 1.363 . S
C1542 H1545 0.929 . S
C1543 C1542 1.363 . S
C1543 C1549 1.428 . S
H1544 C1540 0.930 . S
H1545 C1542 0.929 . S
S1546 N1547 1.613 1_565 S
S1546 N1548 1.610 . S
N1547 S1546 1.613 1_545 S
N1547 C1550 1.350 . S
N1548 S1546 1.610 . S
N1548 C1549 1.351 . S
C1549 C1543 1.428 . S
C1549 N1548 1.351 . S
C1549 C1550 1.434 1_565 S
C1550 C1541 1.429 . S
C1550 N1547 1.350 . S
C1550 C1549 1.434 1_545 S
C1551 C1552 1.369 . S
C1551 C1553 1.419 1_545 S
C1551 H1555 0.930 . S
C1552 C1551 1.369 . S
C1552 C1561 1.429 . S
C1553 C1551 1.419 1_565 S
C1553 C1554 1.363 . S
C1553 H1556 0.929 . S
C1554 C1553 1.363 . S
C1554 C1560 1.428 . S
H1555 C1551 0.930 . S
H1556 C1553 0.929 . S
S1557 N1558 1.613 . S
S1557 N1559 1.610 1_545 S
N1558 S1557 1.613 . S
N1558 C1561 1.350 . S
N1559 S1557 1.610 1_565 S
N1559 C1560 1.351 . S
C1560 C1554 1.428 . S
C1560 N1559 1.351 . S
C1560 C1561 1.434 1_565 S
C1561 C1552 1.429 . S
C1561 N1558 1.350 . S
C1561 C1560 1.434 1_545 S
C1562 C1563 1.369 . S
C1562 C1564 1.419 1_455 S
C1562 H1566 0.930 . S
C1563 C1562 1.369 . S
C1563 C1572 1.429 . S
C1564 C1562 1.419 1_655 S
C1564 C1565 1.363 . S
C1564 H1567 0.929 . S
C1565 C1564 1.363 . S
C1565 C1571 1.428 . S
H1566 C1562 0.930 . S
H1567 C1564 0.929 . S
S1568 N1569 1.613 . S
S1568 N1570 1.610 1_455 S
N1569 S1568 1.613 . S
N1569 C1572 1.350 . S
N1570 S1568 1.610 1_655 S
N1570 C1571 1.351 . S
C1571 C1565 1.428 . S
C1571 N1570 1.351 . S
C1571 C1572 1.434 1_655 S
C1572 C1563 1.429 . S
C1572 N1569 1.350 . S
C1572 C1571 1.434 1_455 S
C1573 C1574 1.369 . S
C1573 C1575 1.419 . S
C1573 H1577 0.930 . S
C1574 C1573 1.369 . S
C1574 C1583 1.429 . S
C1575 C1573 1.419 . S
C1575 C1576 1.363 . S
C1575 H1578 0.929 . S
C1576 C1575 1.363 . S
C1576 C1582 1.428 . S
H1577 C1573 0.930 . S
H1578 C1575 0.929 . S
S1579 N1580 1.613 . S
S1579 N1581 1.610 . S
N1580 S1579 1.613 . S
N1580 C1583 1.350 . S
N1581 S1579 1.610 . S
N1581 C1582 1.351 . S
C1582 C1576 1.428 . S
C1582 N1581 1.351 . S
C1582 C1583 1.434 . S
C1583 C1574 1.429 . S
C1583 N1580 1.350 . S
C1583 C1582 1.434 . S
C1584 C1585 1.369 . S
C1584 C1586 1.419 . S
C1584 H1588 0.930 . S
C1585 C1584 1.369 . S
C1585 C1594 1.429 . S
C1586 C1584 1.419 . S
C1586 C1587 1.363 . S
C1586 H1589 0.929 . S
C1587 C1586 1.363 . S
C1587 C1593 1.428 . S
H1588 C1584 0.930 . S
H1589 C1586 0.929 . S
S1590 N1591 1.613 . S
S1590 N1592 1.610 . S
N1591 S1590 1.613 . S
N1591 C1594 1.350 . S
N1592 S1590 1.610 . S
N1592 C1593 1.351 . S
C1593 C1587 1.428 . S
C1593 N1592 1.351 . S
C1593 C1594 1.434 . S
C1594 C1585 1.429 . S
C1594 N1591 1.350 . S
C1594 C1593 1.434 . S
C1595 C1596 1.369 . S
C1595 C1597 1.419 . S
C1595 H1599 0.930 . S
C1596 C1595 1.369 . S
C1596 C1605 1.429 . S
C1597 C1595 1.419 . S
C1597 C1598 1.363 . S
C1597 H1600 0.929 . S
C1598 C1597 1.363 . S
C1598 C1604 1.428 . S
H1599 C1595 0.930 . S
H1600 C1597 0.929 . S
S1601 N1602 1.613 . S
S1601 N1603 1.610 . S
N1602 S1601 1.613 . S
N1602 C1605 1.350 . S
N1603 S1601 1.610 . S
N1603 C1604 1.351 . S
C1604 C1598 1.428 . S
C1604 N1603 1.351 . S
C1604 C1605 1.434 . S
C1605 C1596 1.429 . S
C1605 N1602 1.350 . S
C1605 C1604 1.434 . S
C1606 C1607 1.369 . S
C1606 C1608 1.419 . S
C1606 H1610 0.930 . S
C1607 C1606 1.369 . S
C1607 C1616 1.429 . S
C1608 C1606 1.419 . S
C1608 C1609 1.363 . S
C1608 H1611 0.929 . S
C1609 C1608 1.363 . S
C1609 C1615 1.428 . S
H1610 C1606 0.930 . S
H1611 C1608 0.929 . S
S1612 N1613 1.613 . S
S1612 N1614 1.610 . S
N1613 S1612 1.613 . S
N1613 C1616 1.350 . S
N1614 S1612 1.610 . S
N1614 C1615 1.351 . S
C1615 C1609 1.428 . S
C1615 N1614 1.351 . S
C1615 C1616 1.434 . S
C1616 C1607 1.429 . S
C1616 N1613 1.350 . S
C1616 C1615 1.434 . S
C1617 C1618 1.369 . S
C1617 C1619 1.419 . S
C1617 H1621 0.930 . S
C1618 C1617 1.369 . S
C1618 C1627 1.429 . S
C1619 C1617 1.419 . S
C1619 C1620 1.363 . S
C1619 H1622 0.929 . S
C1620 C1619 1.363 . S
C1620 C1626 1.428 . S
H1621 C1617 0.930 . S
H1622 C1619 0.929 . S
S1623 N1624 1.613 . S
S1623 N1625 1.610 . S
N1624 S1623 1.613 . S
N1624 C1627 1.350 . S
N1625 S1623 1.610 . S
N1625 C1626 1.351 . S
C1626 C1620 1.428 . S
C1626 N1625 1.351 . S
C1626 C1627 1.434 . S
C1627 C1618 1.429 . S
C1627 N1624 1.350 . S
C1627 C1626 1.434 . S
C1628 C1629 1.369 . S
C1628 C1630 1.419 . S
C1628 H1632 0.930 . S
C1629 C1628 1.369 . S
C1629 C1638 1.429 . S
C1630 C1628 1.419 . S
C1630 C1631 1.363 . S
C1630 H1633 0.929 . S
C1631 C1630 1.363 . S
C1631 C1637 1.428 . S
H1632 C1628 0.930 . S
H1633 C1630 0.929 . S
S1634 N1635 1.613 . S
S1634 N1636 1.610 . S
N1635 S1634 1.613 . S
N1635 C1638 1.350 . S
N1636 S1634 1.610 . S
N1636 C1637 1.351 . S
C1637 C1631 1.428 . S
C1637 N1636 1.351 . S
C1637 C1638 1.434 . S
C1638 C1629 1.429 . S
C1638 N1635 1.350 . S
C1638 C1637 1.434 . S
C1639 C1640 1.369 . S
C1639 C1641 1.419 . S
C1639 H1643 0.930 . S
C1640 C1639 1.369 . S
C1640 C1649 1.429 . S
C1641 C1639 1.419 . S
C1641 C1642 1.363 . S
C1641 H1644 0.929 . S
C1642 C1641 1.363 . S
C1642 C1648 1.428 . S
H1643 C1639 0.930 . S
H1644 C1641 0.929 . S
S1645 N1646 1.613 . S
S1645 N1647 1.610 . S
N1646 S1645 1.613 . S
N1646 C1649 1.350 . S
N1647 S1645 1.610 . S
N1647 C1648 1.351 . S
C1648 C1642 1.428 . S
C1648 N1647 1.351 . S
C1648 C1649 1.434 . S
C1649 C1640 1.429 . S
C1649 N1646 1.350 . S
C1649 C1648 1.434 . S
C1650 C1651 1.369 . S
C1650 C1652 1.419 . S
C1650 H1654 0.930 . S
C1651 C1650 1.369 . S
C1651 C1660 1.429 . S
C1652 C1650 1.419 . S
C1652 C1653 1.363 . S
C1652 H1655 0.929 . S
C1653 C1652 1.363 . S
C1653 C1659 1.428 . S
H1654 C1650 0.930 . S
H1655 C1652 0.929 . S
S1656 N1657 1.613 . S
S1656 N1658 1.610 . S
N1657 S1656 1.613 . S
N1657 C1660 1.350 . S
N1658 S1656 1.610 . S
N1658 C1659 1.351 . S
C1659 C1653 1.428 . S
C1659 N1658 1.351 . S
C1659 C1660 1.434 . S
C1660 C1651 1.429 . S
C1660 N1657 1.350 . S
C1660 C1659 1.434 . S
C1661 C1662 1.369 . S
C1661 C1663 1.419 . S
C1661 H1665 0.930 . S
C1662 C1661 1.369 . S
C1662 C1671 1.429 . S
C1663 C1661 1.419 . S
C1663 C1664 1.363 . S
C1663 H1666 0.929 . S
C1664 C1663 1.363 . S
C1664 C1670 1.428 . S
H1665 C1661 0.930 . S
H1666 C1663 0.929 . S
S1667 N1668 1.613 . S
S1667 N1669 1.610 . S
N1668 S1667 1.613 . S
N1668 C1671 1.350 . S
N1669 S1667 1.610 . S
N1669 C1670 1.351 . S
C1670 C1664 1.428 . S
C1670 N1669 1.351 . S
C1670 C1671 1.434 . S
C1671 C1662 1.429 . S
C1671 N1668 1.350 . S
C1671 C1670 1.434 . S
C1672 C1673 1.369 . S
C1672 C1674 1.419 . S
C1672 H1676 0.930 . S
C1673 C1672 1.369 . S
C1673 C1682 1.429 . S
C1674 C1672 1.419 . S
C1674 C1675 1.363 . S
C1674 H1677 0.929 . S
C1675 C1674 1.363 . S
C1675 C1681 1.428 . S
H1676 C1672 0.930 . S
H1677 C1674 0.929 . S
S1678 N1679 1.613 . S
S1678 N1680 1.610 . S
N1679 S1678 1.613 . S
N1679 C1682 1.350 . S
N1680 S1678 1.610 . S
N1680 C1681 1.351 . S
C1681 C1675 1.428 . S
C1681 N1680 1.351 . S
C1681 C1682 1.434 . S
C1682 C1673 1.429 . S
C1682 N1679 1.350 . S
C1682 C1681 1.434 . S
C1683 C1684 1.369 . S
C1683 C1685 1.419 . S
C1683 H1687 0.930 . S
C1684 C1683 1.369 . S
C1684 C1693 1.429 . S
C1685 C1683 1.419 . S
C1685 C1686 1.363 . S
C1685 H1688 0.929 . S
C1686 C1685 1.363 . S
C1686 C1692 1.428 . S
H1687 C1683 0.930 . S
H1688 C1685 0.929 . S
S1689 N1690 1.613 . S
S1689 N1691 1.610 . S
N1690 S1689 1.613 . S
N1690 C1693 1.350 . S
N1691 S1689 1.610 . S
N1691 C1692 1.351 . S
C1692 C1686 1.428 . S
C1692 N1691 1.351 . S
C1692 C1693 1.434 . S
C1693 C1684 1.429 . S
C1693 N1690 1.350 . S
C1693 C1692 1.434 . S
C1694 C1695 1.369 . S
C1694 C1696 1.419 . S
C1694 H1698 0.930 . S
C1695 C1694 1.369 . S
C1695 C1704 1.429 . S
C1696 C1694 1.419 . S
C1696 C1697 1.363 . S
C1696 H1699 0.929 . S
C1697 C1696 1.363 . S
C1697 C1703 1.428 . S
H1698 C1694 0.930 . S
H1699 C1696 0.929 . S
S1700 N1701 1.613 . S
S1700 N1702 1.610 . S
N1701 S1700 1.613 . S
N1701 C1704 1.350 . S
N1702 S1700 1.610 . S
N1702 C1703 1.351 . S
C1703 C1697 1.428 . S
C1703 N1702 1.351 . S
C1703 C1704 1.434 . S
C1704 C1695 1.429 . S
C1704 N1701 1.350 . S
C1704 C1703 1.434 . S
C1705 C1706 1.369 . S
C1705 C1707 1.419 . S
C1705 H1709 0.930 . S
C1706 C1705 1.369 . S
C1706 C1715 1.429 . S
C1707 C1705 1.419 . S
C1707 C1708 1.363 . S
C1707 H1710 0.929 . S
C1708 C1707 1.363 . S
C1708 C1714 1.428 . S
H1709 C1705 0.930 . S
H1710 C1707 0.929 . S
S1711 N1712 1.613 . S
S1711 N1713 1.610 . S
N1712 S1711 1.613 . S
N1712 C1715 1.350 . S
N1713 S1711 1.610 . S
N1713 C1714 1.351 . S
C1714 C1708 1.428 . S
C1714 N1713 1.351 . S
C1714 C1715 1.434 . S
C1715 C1706 1.429 . S
C1715 N1712 1.350 . S
C1715 C1714 1.434 . S
C1716 C1717 1.369 . S
C1716 C1718 1.419 . S
C1716 H1720 0.930 . S
C1717 C1716 1.369 . S
C1717 C1726 1.429 1_455 S
C1718 C1716 1.419 . S
C1718 C1719 1.363 1_455 S
C1718 H1721 0.929 . S
C1719 C1718 1.363 1_655 S
C1719 C1725 1.428 . S
H1720 C1716 0.930 . S
H1721 C1718 0.929 . S
S1722 N1723 1.613 . S
S1722 N1724 1.610 . S
N1723 S1722 1.613 . S
N1723 C1726 1.350 . S
N1724 S1722 1.610 . S
N1724 C1725 1.351 . S
C1725 C1719 1.428 . S
C1725 N1724 1.351 . S
C1725 C1726 1.434 . S
C1726 C1717 1.429 1_655 S
C1726 N1723 1.350 . S
C1726 C1725 1.434 . S
C1727 C1728 1.369 . S
C1727 C1729 1.419 . S
C1727 H1731 0.930 . S
C1728 C1727 1.369 . S
C1728 C1737 1.429 . S
C1729 C1727 1.419 . S
C1729 C1730 1.363 . S
C1729 H1732 0.929 . S
C1730 C1729 1.363 . S
C1730 C1736 1.428 . S
H1731 C1727 0.930 . S
H1732 C1729 0.929 . S
S1733 N1734 1.613 . S
S1733 N1735 1.610 . S
N1734 S1733 1.613 . S
N1734 C1737 1.350 . S
N1735 S1733 1.610 . S
N1735 C1736 1.351 . S
C1736 C1730 1.428 . S
C1736 N1735 1.351 . S
C1736 C1737 1.434 . S
C1737 C1728 1.429 . S
C1737 N1734 1.350 . S
C1737 C1736 1.434 . S
C1738 C1739 1.369 1_565 S
C1738 C1740 1.419 . S
C1738 H1742 0.930 . S
C1739 C1738 1.369 1_545 S
C1739 C1748 1.429 . S
C1740 C1738 1.419 . S
C1740 C1741 1.363 . S
C1740 H1743 0.929 . S
C1741 C1740 1.363 . S
C1741 C1747 1.428 1_565 S
H1742 C1738 0.930 . S
H1743 C1740 0.929 . S
S1744 N1745 1.613 . S
S1744 N1746 1.610 . S
N1745 S1744 1.613 . S
N1745 C1748 1.350 . S
N1746 S1744 1.610 . S
N1746 C1747 1.351 . S
C1747 C1741 1.428 1_545 S
C1747 N1746 1.351 . S
C1747 C1748 1.434 . S
C1748 C1739 1.429 . S
C1748 N1745 1.350 . S
C1748 C1747 1.434 . S
C1749 C1750 1.369 . S
C1749 C1751 1.419 1_554 S
C1749 H1753 0.930 . S
C1750 C1749 1.369 . S
C1750 C1759 1.429 1_565 S
C1751 C1749 1.419 1_556 S
C1751 C1752 1.363 1_565 S
C1751 H1754 0.929 . S
C1752 C1751 1.363 1_545 S
C1752 C1758 1.428 . S
H1753 C1749 0.930 . S
H1754 C1751 0.929 . S
S1755 N1756 1.613 . S
S1755 N1757 1.610 1_554 S
N1756 S1755 1.613 . S
N1756 C1759 1.350 . S
N1757 S1755 1.610 1_556 S
N1757 C1758 1.351 . S
C1758 C1752 1.428 . S
C1758 N1757 1.351 . S
C1758 C1759 1.434 1_556 S
C1759 C1750 1.429 1_545 S
C1759 N1756 1.350 . S
C1759 C1758 1.434 1_554 S
C1760 C1761 1.369 . S
C1760 C1762 1.419 1_656 S
C1760 H1764 0.930 . S
C1761 C1760 1.369 . S
C1761 C1770 1.437 . S
C1762 C1760 1.419 1_454 S
C1762 C1763 1.363 . S
C1762 H1765 0.929 . S
C1763 C1762 1.363 . S
C1763 C1769 1.428 . S
H1764 C1760 0.930 . S
H1765 C1762 0.929 . S
S1766 N1767 1.613 1_455 S
S1766 N1768 1.610 . S
N1767 S1766 1.613 1_655 S
N1767 C1770 1.349 1_554 S
N1768 S1766 1.610 . S
N1768 C1769 1.351 . S
C1769 C1763 1.428 . S
C1769 N1768 1.351 . S
C1769 C1770 1.426 1_454 S
C1770 C1761 1.437 . S
C1770 N1767 1.349 1_556 S
C1770 C1769 1.426 1_656 S
C1771 C1772 1.369 . S
C1771 C1773 1.419 1_554 S
C1771 H1775 0.930 . S
C1772 C1771 1.369 . S
C1772 C1781 1.429 . S
C1773 C1771 1.419 1_556 S
C1773 C1774 1.363 . S
C1773 H1776 0.929 . S
C1774 C1773 1.363 . S
C1774 C1780 1.428 . S
H1775 C1771 0.930 . S
H1776 C1773 0.929 . S
S1777 N1778 1.613 1_556 S
S1777 N1779 1.610 . S
N1778 S1777 1.613 1_554 S
N1778 C1781 1.350 . S
N1779 S1777 1.610 . S
N1779 C1780 1.351 . S
C1780 C1774 1.428 . S
C1780 N1779 1.351 . S
C1780 C1781 1.434 1_556 S
C1781 C1772 1.429 . S
C1781 N1778 1.350 . S
C1781 C1780 1.434 1_554 S
C1782 C1783 1.369 . S
C1782 C1784 1.430 . S
C1782 H1786 0.930 . S
C1783 C1782 1.369 . S
C1783 C1792 1.429 1_554 S
C1784 C1782 1.430 . S
C1784 C1785 1.340 1_554 S
C1784 H1787 0.942 . S
C1785 C1784 1.340 1_556 S
C1785 C1791 1.428 . S
H1786 C1782 0.930 . S
H1787 C1784 0.942 . S
S1788 N1789 1.613 . S
S1788 N1790 1.610 . S
N1789 S1788 1.613 . S
N1789 C1792 1.350 . S
N1790 S1788 1.610 . S
N1790 C1791 1.351 . S
C1791 C1785 1.428 . S
C1791 N1790 1.351 . S
C1791 C1792 1.434 . S
C1792 C1783 1.429 1_556 S
C1792 N1789 1.350 . S
C1792 C1791 1.434 . S
C1793 C1794 1.369 . S
C1793 C1795 1.419 1_554 S
C1793 H1797 0.930 . S
C1794 C1793 1.369 . S
C1794 C1803 1.429 1_554 S
C1795 C1793 1.419 1_556 S
C1795 C1796 1.363 . S
C1795 H1798 0.929 . S
C1796 C1795 1.363 . S
C1796 C1802 1.428 . S
H1797 C1793 0.930 . S
H1798 C1795 0.929 . S
S1799 N1800 1.613 . S
S1799 N1801 1.610 . S
N1800 S1799 1.613 . S
N1800 C1803 1.350 . S
N1801 S1799 1.610 . S
N1801 C1802 1.351 . S
C1802 C1796 1.428 . S
C1802 N1801 1.351 . S
C1802 C1803 1.434 . S
C1803 C1794 1.429 1_556 S
C1803 N1800 1.350 . S
C1803 C1802 1.434 . S
C1804 C1805 1.369 1_554 S
C1804 C1806 1.419 . S
C1804 H1808 0.930 . S
C1805 C1804 1.369 1_556 S
C1805 C1814 1.429 . S
C1806 C1804 1.419 . S
C1806 C1807 1.363 . S
C1806 H1809 0.929 . S
C1807 C1806 1.363 . S
C1807 C1813 1.428 1_554 S
H1808 C1804 0.930 . S
H1809 C1806 0.929 . S
S1810 N1811 1.613 . S
S1810 N1812 1.610 . S
N1811 S1810 1.613 . S
N1811 C1814 1.350 . S
N1812 S1810 1.610 . S
N1812 C1813 1.351 . S
C1813 C1807 1.428 1_556 S
C1813 N1812 1.351 . S
C1813 C1814 1.434 . S
C1814 C1805 1.429 . S
C1814 N1811 1.350 . S
C1814 C1813 1.434 . S
C1815 C1816 1.369 . S
C1815 C1817 1.419 . S
C1815 H1819 0.930 . S
C1816 C1815 1.369 . S
C1816 C1825 1.429 . S
C1817 C1815 1.419 . S
C1817 C1818 1.363 . S
C1817 H1820 0.929 . S
C1818 C1817 1.363 . S
C1818 C1824 1.428 . S
H1819 C1815 0.930 . S
H1820 C1817 0.929 . S
S1821 N1822 1.613 . S
S1821 N1823 1.610 . S
N1822 S1821 1.613 . S
N1822 C1825 1.350 . S
N1823 S1821 1.610 . S
N1823 C1824 1.351 . S
C1824 C1818 1.428 . S
C1824 N1823 1.351 . S
C1824 C1825 1.434 . S
C1825 C1816 1.429 . S
C1825 N1822 1.350 . S
C1825 C1824 1.434 . S
C1826 C1827 1.369 . S
C1826 C1828 1.419 . S
C1826 H1830 0.930 . S
C1827 C1826 1.369 . S
C1827 C1836 1.429 . S
C1828 C1826 1.419 . S
C1828 C1829 1.363 . S
C1828 H1831 0.929 . S
C1829 C1828 1.363 . S
C1829 C1835 1.428 . S
H1830 C1826 0.930 . S
H1831 C1828 0.929 . S
S1832 N1833 1.613 . S
S1832 N1834 1.610 . S
N1833 S1832 1.613 . S
N1833 C1836 1.350 . S
N1834 S1832 1.610 . S
N1834 C1835 1.351 . S
C1835 C1829 1.428 . S
C1835 N1834 1.351 . S
C1835 C1836 1.434 . S
C1836 C1827 1.429 . S
C1836 N1833 1.350 . S
C1836 C1835 1.434 . S
C1837 C1838 1.369 . S
C1837 C1839 1.419 . S
C1837 H1841 0.930 . S
C1838 C1837 1.369 . S
C1838 C1847 1.429 . S
C1839 C1837 1.419 . S
C1839 C1840 1.363 . S
C1839 H1842 0.929 . S
C1840 C1839 1.363 . S
C1840 C1846 1.428 . S
H1841 C1837 0.930 . S
H1842 C1839 0.929 . S
S1843 N1844 1.609 1_565 S
S1843 N1845 1.610 . S
N1844 S1843 1.609 1_545 S
N1844 C1847 1.339 1_545 S
N1845 S1843 1.610 . S
N1845 C1846 1.351 . S
C1846 C1840 1.428 . S
C1846 N1845 1.351 . S
C1846 C1847 1.434 . S
C1847 C1838 1.429 . S
C1847 N1844 1.339 1_565 S
C1847 C1846 1.434 . S
C1848 C1849 1.369 . S
C1848 C1850 1.419 1_554 S
C1848 H1852 0.930 . S
C1849 C1848 1.369 . S
C1849 C1858 1.429 . S
C1850 C1848 1.419 1_556 S
C1850 C1851 1.363 . S
C1850 H1853 0.929 . S
C1851 C1850 1.363 . S
C1851 C1857 1.428 1_556 S
H1852 C1848 0.930 . S
H1853 C1850 0.929 . S
S1854 N1855 1.613 . S
S1854 N1856 1.610 . S
N1855 S1854 1.613 . S
N1855 C1858 1.350 . S
N1856 S1854 1.610 . S
N1856 C1857 1.351 . S
C1857 C1851 1.428 1_554 S
C1857 N1856 1.351 . S
C1857 C1858 1.434 . S
C1858 C1849 1.429 . S
C1858 N1855 1.350 . S
C1858 C1857 1.434 . S
C1859 C1860 1.369 . S
C1859 C1861 1.419 . S
C1859 H1863 0.930 . S
C1860 C1859 1.369 . S
C1860 C1869 1.429 . S
C1861 C1859 1.419 . S
C1861 C1862 1.363 1_554 S
C1861 H1864 0.929 . S
C1862 C1861 1.363 1_556 S
C1862 C1868 1.428 1_556 S
H1863 C1859 0.930 . S
H1864 C1861 0.929 . S
S1865 N1866 1.613 . S
S1865 N1867 1.610 1_554 S
N1866 S1865 1.613 . S
N1866 C1869 1.350 . S
N1867 S1865 1.610 1_556 S
N1867 C1868 1.351 1_556 S
C1868 C1862 1.428 1_554 S
C1868 N1867 1.351 1_554 S
C1868 C1869 1.434 . S
C1869 C1860 1.429 . S
C1869 N1866 1.350 . S
C1869 C1868 1.434 . S
C1870 C1871 1.369 1_556 S
C1870 C1872 1.419 . S
C1870 H1874 0.930 . S
C1871 C1870 1.369 1_554 S
C1871 C1880 1.429 . S
C1872 C1870 1.419 . S
C1872 C1873 1.363 . S
C1872 H1875 0.929 . S
C1873 C1872 1.363 . S
C1873 C1879 1.428 1_556 S
H1874 C1870 0.930 . S
H1875 C1872 0.929 . S
S1876 N1877 1.613 . S
S1876 N1878 1.610 . S
N1877 S1876 1.613 . S
N1877 C1880 1.350 . S
N1878 S1876 1.610 . S
N1878 C1879 1.351 . S
C1879 C1873 1.428 1_554 S
C1879 N1878 1.351 . S
C1879 C1880 1.434 . S
C1880 C1871 1.429 . S
C1880 N1877 1.350 . S
C1880 C1879 1.434 . S
C1881 C1882 1.369 . S
C1881 C1883 1.419 . S
C1881 H1885 0.930 . S
C1882 C1881 1.369 . S
C1882 C1891 1.429 . S
C1883 C1881 1.419 . S
C1883 C1884 1.363 . S
C1883 H1886 0.929 . S
C1884 C1883 1.363 . S
C1884 C1890 1.428 . S
H1885 C1881 0.930 . S
H1886 C1883 0.929 . S
S1887 N1888 1.613 . S
S1887 N1889 1.610 1_655 S
N1888 S1887 1.613 . S
N1888 C1891 1.350 . S
N1889 S1887 1.610 1_455 S
N1889 C1890 1.351 1_455 S
C1890 C1884 1.428 . S
C1890 N1889 1.351 1_655 S
C1890 C1891 1.434 . S
C1891 C1882 1.429 . S
C1891 N1888 1.350 . S
C1891 C1890 1.434 . S
C1892 C1893 1.369 . S
C1892 C1894 1.419 . S
C1892 H1896 0.930 . S
C1893 C1892 1.369 . S
C1893 C1902 1.429 . S
C1894 C1892 1.419 . S
C1894 C1895 1.363 . S
C1894 H1897 0.929 . S
C1895 C1894 1.363 . S
C1895 C1901 1.428 . S
H1896 C1892 0.930 . S
H1897 C1894 0.929 . S
S1898 N1899 1.613 . S
S1898 N1900 1.610 . S
N1899 S1898 1.613 . S
N1899 C1902 1.350 . S
N1900 S1898 1.610 . S
N1900 C1901 1.351 . S
C1901 C1895 1.428 . S
C1901 N1900 1.351 . S
C1901 C1902 1.434 . S
C1902 C1893 1.429 . S
C1902 N1899 1.350 . S
C1902 C1901 1.434 . S
C1903 C1904 1.369 . S
C1903 C1905 1.419 . S
C1903 H1907 0.930 . S
C1904 C1903 1.369 . S
C1904 C1913 1.429 . S
C1905 C1903 1.419 . S
C1905 C1906 1.363 . S
C1905 H1908 0.929 . S
C1906 C1905 1.363 . S
C1906 C1912 1.428 . S
H1907 C1903 0.930 . S
H1908 C1905 0.929 . S
S1909 N1910 1.613 1_545 S
S1909 N1911 1.610 . S
N1910 S1909 1.613 1_565 S
N1910 C1913 1.350 1_565 S
N1911 S1909 1.610 . S
N1911 C1912 1.351 . S
C1912 C1906 1.428 . S
C1912 N1911 1.351 . S
C1912 C1913 1.434 . S
C1913 C1904 1.429 . S
C1913 N1910 1.350 1_545 S
C1913 C1912 1.434 . S
C1914 C1915 1.369 . S
C1914 C1916 1.419 . S
C1914 H1918 0.930 . S
C1915 C1914 1.369 . S
C1915 C1924 1.429 . S
C1916 C1914 1.419 . S
C1916 C1917 1.363 . S
C1916 H1919 0.929 . S
C1917 C1916 1.363 . S
C1917 C1923 1.428 . S
H1918 C1914 0.930 . S
H1919 C1916 0.929 . S
S1920 N1921 1.613 . S
S1920 N1922 1.610 . S
N1921 S1920 1.613 . S
N1921 C1924 1.350 . S
N1922 S1920 1.610 . S
N1922 C1923 1.351 . S
C1923 C1917 1.428 . S
C1923 N1922 1.351 . S
C1923 C1924 1.434 . S
C1924 C1915 1.429 . S
C1924 N1921 1.350 . S
C1924 C1923 1.434 . S
C1925 C1926 1.369 . S
C1925 C1927 1.419 . S
C1925 H1929 0.930 . S
C1926 C1925 1.369 . S
C1926 C1935 1.429 . S
C1927 C1925 1.419 . S
C1927 C1928 1.363 . S
C1927 H1930 0.929 . S
C1928 C1927 1.363 . S
C1928 C1934 1.428 . S
H1929 C1925 0.930 . S
H1930 C1927 0.929 . S
S1931 N1932 1.613 . S
S1931 N1933 1.610 . S
N1932 S1931 1.613 . S
N1932 C1935 1.350 . S
N1933 S1931 1.610 . S
N1933 C1934 1.351 . S
C1934 C1928 1.428 . S
C1934 N1933 1.351 . S
C1934 C1935 1.434 . S
C1935 C1926 1.429 . S
C1935 N1932 1.350 . S
C1935 C1934 1.434 . S
C1936 C1937 1.369 . S
C1936 C1938 1.419 . S
C1936 H1940 0.930 . S
C1937 C1936 1.369 . S
C1937 C1946 1.429 . S
C1938 C1936 1.419 . S
C1938 C1939 1.363 . S
C1938 H1941 0.929 . S
C1939 C1938 1.363 . S
C1939 C1945 1.428 . S
H1940 C1936 0.930 . S
H1941 C1938 0.929 . S
S1942 N1943 1.613 . S
S1942 N1944 1.610 . S
N1943 S1942 1.613 . S
N1943 C1946 1.350 . S
N1944 S1942 1.610 . S
N1944 C1945 1.351 . S
C1945 C1939 1.428 . S
C1945 N1944 1.351 . S
C1945 C1946 1.434 . S
C1946 C1937 1.429 . S
C1946 N1943 1.350 . S
C1946 C1945 1.434 . S
C1947 C1948 1.369 . S
C1947 C1949 1.419 . S
C1947 H1951 0.930 . S
C1948 C1947 1.369 . S
C1948 C1957 1.429 . S
C1949 C1947 1.419 . S
C1949 C1950 1.363 . S
C1949 H1952 0.929 . S
C1950 C1949 1.363 . S
C1950 C1956 1.428 . S
H1951 C1947 0.930 . S
H1952 C1949 0.929 . S
S1953 N1954 1.613 . S
S1953 N1955 1.610 . S
N1954 S1953 1.613 . S
N1954 C1957 1.350 . S
N1955 S1953 1.610 . S
N1955 C1956 1.351 . S
C1956 C1950 1.428 . S
C1956 N1955 1.351 . S
C1956 C1957 1.434 . S
C1957 C1948 1.429 . S
C1957 N1954 1.350 . S
C1957 C1956 1.434 . S
C1958 C1959 1.369 . S
C1958 C1960 1.419 . S
C1958 H1962 0.930 . S
C1959 C1958 1.369 . S
C1959 C1968 1.429 . S
C1960 C1958 1.419 . S
C1960 C1961 1.363 . S
C1960 H1963 0.929 . S
C1961 C1960 1.363 . S
C1961 C1967 1.428 . S
H1962 C1958 0.930 . S
H1963 C1960 0.929 . S
S1964 N1965 1.613 . S
S1964 N1966 1.610 . S
N1965 S1964 1.613 . S
N1965 C1968 1.350 . S
N1966 S1964 1.610 . S
N1966 C1967 1.351 . S
C1967 C1961 1.428 . S
C1967 N1966 1.351 . S
C1967 C1968 1.434 . S
C1968 C1959 1.429 . S
C1968 N1965 1.350 . S
C1968 C1967 1.434 . S
C1969 C1970 1.369 . S
C1969 C1971 1.419 . S
C1969 H1973 0.930 . S
C1970 C1969 1.369 . S
C1970 C1979 1.429 . S
C1971 C1969 1.419 . S
C1971 C1972 1.363 . S
C1971 H1974 0.929 . S
C1972 C1971 1.363 . S
C1972 C1978 1.428 . S
H1973 C1969 0.930 . S
H1974 C1971 0.929 . S
S1975 N1976 1.613 . S
S1975 N1977 1.610 . S
N1976 S1975 1.613 . S
N1976 C1979 1.350 . S
N1977 S1975 1.610 . S
N1977 C1978 1.351 . S
C1978 C1972 1.428 . S
C1978 N1977 1.351 . S
C1978 C1979 1.434 . S
C1979 C1970 1.429 . S
C1979 N1976 1.350 . S
C1979 C1978 1.434 . S
C1980 C1981 1.369 . S
C1980 C1982 1.419 . S
C1980 H1984 0.930 . S
C1981 C1980 1.369 . S
C1981 C1990 1.429 . S
C1982 C1980 1.419 . S
C1982 C1983 1.363 . S
C1982 H1985 0.929 . S
C1983 C1982 1.363 . S
C1983 C1989 1.428 . S
H1984 C1980 0.930 . S
H1985 C1982 0.929 . S
S1986 N1987 1.613 . S
S1986 N1988 1.610 . S
N1987 S1986 1.613 . S
N1987 C1990 1.350 . S
N1988 S1986 1.610 . S
N1988 C1989 1.351 . S
C1989 C1983 1.428 . S
C1989 N1988 1.351 . S
C1989 C1990 1.434 . S
C1990 C1981 1.429 . S
C1990 N1987 1.350 . S
C1990 C1989 1.434 . S
C1991 C1992 1.369 . S
C1991 C1993 1.419 . S
C1991 H1995 0.930 . S
C1992 C1991 1.369 . S
C1992 C2001 1.429 . S
C1993 C1991 1.419 . S
C1993 C1994 1.363 . S
C1993 H1996 0.929 . S
C1994 C1993 1.363 . S
C1994 C2000 1.428 . S
H1995 C1991 0.930 . S
H1996 C1993 0.929 . S
S1997 N1998 1.613 . S
S1997 N1999 1.610 . S
N1998 S1997 1.613 . S
N1998 C2001 1.350 . S
N1999 S1997 1.610 . S
N1999 C2000 1.351 . S
C2000 C1994 1.428 . S
C2000 N1999 1.351 . S
C2000 C2001 1.434 . S
C2001 C1992 1.429 . S
C2001 N1998 1.350 . S
C2001 C2000 1.434 . S
C2002 C2003 1.369 . S
C2002 C2004 1.419 . S
C2002 H2006 0.930 . S
C2003 C2002 1.369 . S
C2003 C2012 1.429 . S
C2004 C2002 1.419 . S
C2004 C2005 1.363 . S
C2004 H2007 0.929 . S
C2005 C2004 1.363 . S
C2005 C2011 1.428 . S
H2006 C2002 0.930 . S
H2007 C2004 0.929 . S
S2008 N2009 1.613 . S
S2008 N2010 1.610 . S
N2009 S2008 1.613 . S
N2009 C2012 1.350 . S
N2010 S2008 1.610 . S
N2010 C2011 1.351 . S
C2011 C2005 1.428 . S
C2011 N2010 1.351 . S
C2011 C2012 1.434 . S
C2012 C2003 1.429 . S
C2012 N2009 1.350 . S
C2012 C2011 1.434 . S
C2013 C2014 1.369 . S
C2013 C2015 1.419 . S
C2013 H2017 0.930 . S
C2014 C2013 1.369 . S
C2014 C2023 1.429 . S
C2015 C2013 1.419 . S
C2015 C2016 1.363 . S
C2015 H2018 0.929 . S
C2016 C2015 1.363 . S
C2016 C2022 1.428 . S
H2017 C2013 0.930 . S
H2018 C2015 0.929 . S
S2019 N2020 1.613 . S
S2019 N2021 1.610 . S
N2020 S2019 1.613 . S
N2020 C2023 1.350 . S
N2021 S2019 1.610 . S
N2021 C2022 1.351 . S
C2022 C2016 1.428 . S
C2022 N2021 1.351 . S
C2022 C2023 1.434 . S
C2023 C2014 1.429 . S
C2023 N2020 1.350 . S
C2023 C2022 1.434 . S
C2024 C2025 1.369 . S
C2024 C2026 1.419 . S
C2024 H2028 0.930 . S
C2025 C2024 1.369 . S
C2025 C2034 1.429 . S
C2026 C2024 1.419 . S
C2026 C2027 1.363 . S
C2026 H2029 0.929 . S
C2027 C2026 1.363 . S
C2027 C2033 1.428 . S
H2028 C2024 0.930 . S
H2029 C2026 0.929 . S
S2030 N2031 1.613 . S
S2030 N2032 1.610 . S
N2031 S2030 1.613 . S
N2031 C2034 1.350 . S
N2032 S2030 1.610 . S
N2032 C2033 1.351 . S
C2033 C2027 1.428 . S
C2033 N2032 1.351 . S
C2033 C2034 1.434 . S
C2034 C2025 1.429 . S
C2034 N2031 1.350 . S
C2034 C2033 1.434 . S
C2035 C2036 1.369 . S
C2035 C2037 1.419 . S
C2035 H2039 0.930 . S
C2036 C2035 1.369 . S
C2036 C2045 1.429 . S
C2037 C2035 1.419 . S
C2037 C2038 1.363 . S
C2037 H2040 0.929 . S
C2038 C2037 1.363 . S
C2038 C2044 1.428 . S
H2039 C2035 0.930 . S
H2040 C2037 0.929 . S
S2041 N2042 1.613 . S
S2041 N2043 1.610 . S
N2042 S2041 1.613 . S
N2042 C2045 1.350 . S
N2043 S2041 1.610 . S
N2043 C2044 1.351 . S
C2044 C2038 1.428 . S
C2044 N2043 1.351 . S
C2044 C2045 1.434 . S
C2045 C2036 1.429 . S
C2045 N2042 1.350 . S
C2045 C2044 1.434 . S
C2046 C2047 1.369 . S
C2046 C2048 1.419 . S
C2046 H2050 0.930 . S
C2047 C2046 1.369 . S
C2047 C2056 1.429 . S
C2048 C2046 1.419 . S
C2048 C2049 1.363 . S
C2048 H2051 0.929 . S
C2049 C2048 1.363 . S
C2049 C2055 1.428 . S
H2050 C2046 0.930 . S
H2051 C2048 0.929 . S
S2052 N2053 1.613 . S
S2052 N2054 1.610 . S
N2053 S2052 1.613 . S
N2053 C2056 1.350 . S
N2054 S2052 1.610 . S
N2054 C2055 1.351 . S
C2055 C2049 1.428 . S
C2055 N2054 1.351 . S
C2055 C2056 1.434 . S
C2056 C2047 1.429 . S
C2056 N2053 1.350 . S
C2056 C2055 1.434 . S
C2057 C2058 1.369 . S
C2057 C2059 1.419 . S
C2057 H2061 0.930 . S
C2058 C2057 1.369 . S
C2058 C2067 1.429 . S
C2059 C2057 1.419 . S
C2059 C2060 1.363 . S
C2059 H2062 0.929 . S
C2060 C2059 1.363 . S
C2060 C2066 1.428 . S
H2061 C2057 0.930 . S
H2062 C2059 0.929 . S
S2063 N2064 1.613 . S
S2063 N2065 1.610 . S
N2064 S2063 1.613 . S
N2064 C2067 1.350 . S
N2065 S2063 1.610 . S
N2065 C2066 1.351 . S
C2066 C2060 1.428 . S
C2066 N2065 1.351 . S
C2066 C2067 1.434 . S
C2067 C2058 1.429 . S
C2067 N2064 1.350 . S
C2067 C2066 1.434 . S
C2068 C2069 1.369 . S
C2068 C2070 1.419 . S
C2068 H2072 0.930 . S
C2069 C2068 1.369 . S
C2069 C2078 1.429 . S
C2070 C2068 1.419 . S
C2070 C2071 1.363 . S
C2070 H2073 0.929 . S
C2071 C2070 1.363 . S
C2071 C2077 1.428 . S
H2072 C2068 0.930 . S
H2073 C2070 0.929 . S
S2074 N2075 1.613 . S
S2074 N2076 1.610 . S
N2075 S2074 1.613 . S
N2075 C2078 1.350 . S
N2076 S2074 1.610 . S
N2076 C2077 1.351 . S
C2077 C2071 1.428 . S
C2077 N2076 1.351 . S
C2077 C2078 1.434 . S
C2078 C2069 1.429 . S
C2078 N2075 1.350 . S
C2078 C2077 1.434 . S
C2079 C2080 1.369 . S
C2079 C2081 1.419 . S
C2079 H2083 0.930 . S
C2080 C2079 1.369 . S
C2080 C2089 1.429 . S
C2081 C2079 1.419 . S
C2081 C2082 1.363 . S
C2081 H2084 0.929 . S
C2082 C2081 1.363 . S
C2082 C2088 1.428 . S
H2083 C2079 0.930 . S
H2084 C2081 0.929 . S
S2085 N2086 1.613 . S
S2085 N2087 1.610 . S
N2086 S2085 1.613 . S
N2086 C2089 1.350 . S
N2087 S2085 1.610 . S
N2087 C2088 1.351 . S
C2088 C2082 1.428 . S
C2088 N2087 1.351 . S
C2088 C2089 1.434 . S
C2089 C2080 1.429 . S
C2089 N2086 1.350 . S
C2089 C2088 1.434 . S
C2090 C2091 1.369 . S
C2090 C2092 1.419 . S
C2090 H2094 0.930 . S
C2091 C2090 1.369 . S
C2091 C2100 1.429 . S
C2092 C2090 1.419 . S
C2092 C2093 1.363 . S
C2092 H2095 0.929 . S
C2093 C2092 1.363 . S
C2093 C2099 1.428 . S
H2094 C2090 0.930 . S
H2095 C2092 0.929 . S
S2096 N2097 1.613 . S
S2096 N2098 1.610 . S
N2097 S2096 1.613 . S
N2097 C2100 1.350 . S
N2098 S2096 1.610 . S
N2098 C2099 1.351 . S
C2099 C2093 1.428 . S
C2099 N2098 1.351 . S
C2099 C2100 1.434 . S
C2100 C2091 1.429 . S
C2100 N2097 1.350 . S
C2100 C2099 1.434 . S
C2101 C2102 1.369 . S
C2101 C2103 1.419 . S
C2101 H2105 0.930 . S
C2102 C2101 1.369 . S
C2102 C2111 1.429 . S
C2103 C2101 1.419 . S
C2103 C2104 1.363 . S
C2103 H2106 0.929 . S
C2104 C2103 1.363 . S
C2104 C2110 1.428 . S
H2105 C2101 0.930 . S
H2106 C2103 0.929 . S
S2107 N2108 1.613 . S
S2107 N2109 1.610 . S
N2108 S2107 1.613 . S
N2108 C2111 1.350 . S
N2109 S2107 1.610 . S
N2109 C2110 1.351 . S
C2110 C2104 1.428 . S
C2110 N2109 1.351 . S
C2110 C2111 1.434 . S
C2111 C2102 1.429 . S
C2111 N2108 1.350 . S
C2111 C2110 1.434 . S
C2112 C2113 1.369 . S
C2112 C2114 1.419 . S
C2112 H2116 0.930 . S
C2113 C2112 1.369 . S
C2113 C2122 1.429 . S
C2114 C2112 1.419 . S
C2114 C2115 1.363 . S
C2114 H2117 0.929 . S
C2115 C2114 1.363 . S
C2115 C2121 1.428 . S
H2116 C2112 0.930 . S
H2117 C2114 0.929 . S
S2118 N2119 1.613 . S
S2118 N2120 1.610 . S
N2119 S2118 1.613 . S
N2119 C2122 1.350 . S
N2120 S2118 1.610 . S
N2120 C2121 1.351 . S
C2121 C2115 1.428 . S
C2121 N2120 1.351 . S
C2121 C2122 1.434 . S
C2122 C2113 1.429 . S
C2122 N2119 1.350 . S
C2122 C2121 1.434 . S
C2123 C2124 1.369 . S
C2123 C2125 1.419 . S
C2123 H2127 0.930 . S
C2124 C2123 1.369 . S
C2124 C2133 1.429 . S
C2125 C2123 1.419 . S
C2125 C2126 1.363 . S
C2125 H2128 0.929 . S
C2126 C2125 1.363 . S
C2126 C2132 1.428 . S
H2127 C2123 0.930 . S
H2128 C2125 0.929 . S
S2129 N2130 1.613 . S
S2129 N2131 1.610 . S
N2130 S2129 1.613 . S
N2130 C2133 1.350 . S
N2131 S2129 1.610 . S
N2131 C2132 1.351 . S
C2132 C2126 1.428 . S
C2132 N2131 1.351 . S
C2132 C2133 1.434 . S
C2133 C2124 1.429 . S
C2133 N2130 1.350 . S
C2133 C2132 1.434 . S
C2134 C2135 1.369 . S
C2134 C2136 1.419 . S
C2134 H2138 0.930 . S
C2135 C2134 1.369 . S
C2135 C2144 1.429 . S
C2136 C2134 1.419 . S
C2136 C2137 1.363 . S
C2136 H2139 0.929 . S
C2137 C2136 1.363 . S
C2137 C2143 1.428 . S
H2138 C2134 0.930 . S
H2139 C2136 0.929 . S
S2140 N2141 1.613 . S
S2140 N2142 1.610 . S
N2141 S2140 1.613 . S
N2141 C2144 1.350 . S
N2142 S2140 1.610 . S
N2142 C2143 1.351 . S
C2143 C2137 1.428 . S
C2143 N2142 1.351 . S
C2143 C2144 1.434 . S
C2144 C2135 1.429 . S
C2144 N2141 1.350 . S
C2144 C2143 1.434 . S
C2145 C2146 1.369 . S
C2145 C2147 1.419 . S
C2145 H2149 0.930 . S
C2146 C2145 1.369 . S
C2146 C2155 1.429 . S
C2147 C2145 1.419 . S
C2147 C2148 1.363 . S
C2147 H2150 0.929 . S
C2148 C2147 1.363 . S
C2148 C2154 1.428 . S
H2149 C2145 0.930 . S
H2150 C2147 0.929 . S
S2151 N2152 1.613 . S
S2151 N2153 1.610 . S
N2152 S2151 1.613 . S
N2152 C2155 1.350 . S
N2153 S2151 1.610 . S
N2153 C2154 1.351 . S
C2154 C2148 1.428 . S
C2154 N2153 1.351 . S
C2154 C2155 1.434 . S
C2155 C2146 1.429 . S
C2155 N2152 1.350 . S
C2155 C2154 1.434 . S
C2156 C2157 1.369 . S
C2156 C2158 1.419 . S
C2156 H2160 0.930 . S
C2157 C2156 1.369 . S
C2157 C2166 1.429 . S
C2158 C2156 1.419 . S
C2158 C2159 1.363 . S
C2158 H2161 0.929 . S
C2159 C2158 1.363 . S
C2159 C2165 1.428 . S
H2160 C2156 0.930 . S
H2161 C2158 0.929 . S
S2162 N2163 1.613 . S
S2162 N2164 1.610 . S
N2163 S2162 1.613 . S
N2163 C2166 1.350 . S
N2164 S2162 1.610 . S
N2164 C2165 1.351 . S
C2165 C2159 1.428 . S
C2165 N2164 1.351 . S
C2165 C2166 1.434 . S
C2166 C2157 1.429 . S
C2166 N2163 1.350 . S
C2166 C2165 1.434 . S
C2167 C2168 1.369 . S
C2167 C2169 1.419 . S
C2167 H2171 0.930 . S
C2168 C2167 1.369 . S
C2168 C2177 1.429 . S
C2169 C2167 1.419 . S
C2169 C2170 1.363 . S
C2169 H2172 0.929 . S
C2170 C2169 1.363 . S
C2170 C2176 1.428 . S
H2171 C2167 0.930 . S
H2172 C2169 0.929 . S
S2173 N2174 1.613 . S
S2173 N2175 1.610 . S
N2174 S2173 1.613 . S
N2174 C2177 1.350 . S
N2175 S2173 1.610 . S
N2175 C2176 1.351 . S
C2176 C2170 1.428 . S
C2176 N2175 1.351 . S
C2176 C2177 1.434 . S
C2177 C2168 1.429 . S
C2177 N2174 1.350 . S
C2177 C2176 1.434 . S
C1189 C535 1.412 . S
C1191 C7 1.416 . S
C1200 C40 1.411 . S
C1202 C568 1.415 . S
C1211 C502 1.417 . S
C1213 C73 1.411 . S
C1222 C106 1.411 . S
C1224 C865 1.416 . S
C1233 C799 1.416 . S
C1235 C139 1.411 . S
C1244 C172 1.411 . S
C1246 C832 1.415 . S
C1255 C205 1.411 . S
C1257 C1129 1.416 . S
C1266 C238 1.410 . S
C1268 C1162 1.415 . S
C1277 C271 1.416 . S
C1279 C1096 1.412 . S
C1288 C304 1.415 . S
C1290 C667 1.414 . S
C1299 C337 1.411 . S
C1301 C601 1.415 . S
C1310 C370 1.416 . S
C1312 C634 1.411 . S
C1321 C403 1.416 . S
C1323 C931 1.413 . S
C1332 C964 1.414 . S
C1334 C436 1.412 . S
C1343 C898 1.416 . S
C1345 C469 1.412 . S
C1354 C1063 1.414 . S
C1356 C700 1.414 . S
C1365 C997 1.412 . S
C1367 C733 1.415 . S
C1376 C766 1.411 . S
C1378 C1030 1.415 . S
C1387 N970 1.511 . S
C1389 N13 1.520 . S
C1398 N46 1.517 . S
C1400 N904 1.516 . S
C1409 N79 1.519 . S
C1411 N937 1.512 . S
C1420 N112 1.515 . S
C1422 N442 1.515 . S
C1431 N145 1.512 . S
C1433 N475 1.519 . S
C1442 N409 1.512 . S
C1444 N178 1.519 . S
C1453 N772 1.518 . S
C1455 N211 1.513 . S
C1464 N244 1.520 . S
C1466 N706 1.512 . S
C1475 N277 1.514 . S
C1477 N739 1.516 . S
C1486 N1036 1.521 . S
C1488 N310 1.512 . S
C1497 N1069 1.516 . S
C1499 N343 1.515 . S
C1508 N1003 1.520 . S
C1510 N376 1.512 . S
C1519 N508 1.517 . S
C1521 N838 1.516 . S
C1530 N541 1.512 . S
C1532 N871 1.519 . S
C1541 N574 1.512 . S
C1543 N805 1.518 . S
C1552 N607 1.520 . S
C1554 N1168 1.512 . S
C1563 N1102 1.516 . S
C1565 N640 1.516 . S
C1574 N673 1.517 . S
C1576 N1135 1.514 . S
C1585 C18 1.851 . S
C1587 C612 1.849 . S
C1596 C51 1.849 . S
C1598 C645 1.851 . S
C1607 C678 1.849 . S
C1609 C84 1.852 . S
C1618 C117 1.849 . S
C1620 C1107 1.851 . S
C1629 C150 1.852 . S
C1631 C1140 1.849 . S
C1640 C183 1.852 . S
C1642 C1173 1.849 . S
C1651 C810 1.848 . S
C1653 C216 1.851 . S
C1662 C249 1.849 . S
C1664 C843 1.851 . S
C1673 C876 1.852 . S
C1675 C282 1.849 . S
C1684 C513 1.850 . S
C1686 C315 1.850 . S
C1695 C546 1.849 . S
C1697 C348 1.851 . S
C1706 C381 1.849 . S
C1708 C579 1.852 . S
C1717 C1008 1.849 . S
C1719 C414 1.852 . S
C1728 C1041 1.852 . S
C1730 C447 1.850 . S
C1739 C480 1.852 . S
C1741 C1074 1.849 . S
C1750 C909 1.849 . S
C1752 C711 1.851 . S
C1761 C744 1.851 . S
C1763 C942 1.850 . S
C1772 C975 1.852 . S
C1774 C777 1.849 . S
C1783 N2 1.235 . S
C1785 C252 1.179 1_545 S
C1794 N35 1.235 . S
C1796 C285 1.177 1_655 S
C1805 C219 1.176 . S
C1807 N68 1.234 . S
C1816 C384 1.186 1_455 S
C1818 N101 1.231 . S
C1827 C318 1.172 . S
C1829 N134 1.231 . S
C1838 C351 1.183 1_565 S
C1840 N167 1.230 . S
C1849 C54 1.176 1_565 S
C1851 N200 1.234 . S
C1860 C87 1.174 1_455 S
C1862 N233 1.233 . S
C1871 C21 1.180 . S
C1873 N266 1.234 . S
C1882 N299 1.229 . S
C1884 C186 1.175 1_655 S
C1893 N332 1.234 . S
C1895 C120 1.177 . S
C1904 C153 1.175 1_545 S
C1906 N365 1.229 . S
C1915 C648 1.174 . S
C1917 N398 1.233 . S
C1926 N431 1.228 . S
C1928 C681 1.176 . S
C1937 C615 1.172 . S
C1939 N464 1.231 . S
C1948 C780 1.176 . S
C1950 N497 1.229 . S
C1959 N530 1.229 . S
C1961 C714 1.175 . S
C1970 N563 1.232 . S
C1972 C747 1.174 . S
C1981 N596 1.228 . S
C1983 C450 1.177 . S
C1992 N629 1.228 . S
C1994 C483 1.180 . S
C2003 N662 1.232 . S
C2005 C417 1.185 . S
C2014 N695 1.230 . S
C2016 C582 1.183 . S
C2025 C516 1.185 . S
C2027 N728 1.231 . S
C2036 C549 1.173 . S
C2038 N761 1.232 . S
C2047 C1044 1.183 . S
C2049 N794 1.234 . S
C2058 C1077 1.180 . S
C2060 N827 1.229 . S
C2069 C1011 1.174 . S
C2071 N860 1.229 . S
C2080 C1176 1.178 . S
C2082 N893 1.229 . S
C2091 N926 1.228 . S
C2093 C1110 1.178 . S
C2102 C1143 1.173 . S
C2104 N959 1.232 . S
C2113 C846 1.173 . S
C2115 N992 1.230 . S
C2124 C879 1.176 . S
C2126 N1025 1.229 . S
C2135 C813 1.186 . S
C2137 N1058 1.232 . S
C2146 N1091 1.235 . S
C2148 C978 1.180 . S
C2157 N1124 1.235 . S
C2159 C912 1.183 . S
C2168 C945 1.173 . S
C2170 N1157 1.230 . S
