# Generated by pormake.
# Topology snk, (6)-cn, num edge types: 1
# Building blocks:
#     Node 0, Type 0, BuildingBlock: BETDAH_clean_sbu_0, # of connection points: 6
#     Node 1, Type 0, BuildingBlock: BETDAH_clean_sbu_0, # of connection points: 6
#     Node 2, Type 0, BuildingBlock: BETDAH_clean_sbu_0, # of connection points: 6
#     Node 3, Type 0, BuildingBlock: BETDAH_clean_sbu_0, # of connection points: 6
#     Node 4, Type 0, BuildingBlock: BETDAH_clean_sbu_0, # of connection points: 6
#     Node 5, Type 0, BuildingBlock: BETDAH_clean_sbu_0, # of connection points: 6
#     Node 6, Type 0, BuildingBlock: BETDAH_clean_sbu_0, # of connection points: 6
#     Node 7, Type 0, BuildingBlock: BETDAH_clean_sbu_0, # of connection points: 6
#     Edge 8, Type (0, 0), BuildingBlock: OJICUG_clean_linker_0, # of connection points: 2
#     Edge 9, Type (0, 0), BuildingBlock: OJICUG_clean_linker_0, # of connection points: 2
#     Edge 10, Type (0, 0), BuildingBlock: OJICUG_clean_linker_0, # of connection points: 2
#     Edge 11, Type (0, 0), BuildingBlock: OJICUG_clean_linker_0, # of connection points: 2
#     Edge 12, Type (0, 0), BuildingBlock: OJICUG_clean_linker_0, # of connection points: 2
#     Edge 13, Type (0, 0), BuildingBlock: OJICUG_clean_linker_0, # of connection points: 2
#     Edge 14, Type (0, 0), BuildingBlock: OJICUG_clean_linker_0, # of connection points: 2
#     Edge 15, Type (0, 0), BuildingBlock: OJICUG_clean_linker_0, # of connection points: 2
#     Edge 16, Type (0, 0), BuildingBlock: OJICUG_clean_linker_0, # of connection points: 2
#     Edge 17, Type (0, 0), BuildingBlock: OJICUG_clean_linker_0, # of connection points: 2
#     Edge 18, Type (0, 0), BuildingBlock: OJICUG_clean_linker_0, # of connection points: 2
#     Edge 19, Type (0, 0), BuildingBlock: OJICUG_clean_linker_0, # of connection points: 2
#     Edge 20, Type (0, 0), BuildingBlock: OJICUG_clean_linker_0, # of connection points: 2
#     Edge 21, Type (0, 0), BuildingBlock: OJICUG_clean_linker_0, # of connection points: 2
#     Edge 22, Type (0, 0), BuildingBlock: OJICUG_clean_linker_0, # of connection points: 2
#     Edge 23, Type (0, 0), BuildingBlock: OJICUG_clean_linker_0, # of connection points: 2
#     Edge 24, Type (0, 0), BuildingBlock: OJICUG_clean_linker_0, # of connection points: 2
#     Edge 25, Type (0, 0), BuildingBlock: OJICUG_clean_linker_0, # of connection points: 2
#     Edge 26, Type (0, 0), BuildingBlock: OJICUG_clean_linker_0, # of connection points: 2
#     Edge 27, Type (0, 0), BuildingBlock: OJICUG_clean_linker_0, # of connection points: 2
#     Edge 28, Type (0, 0), BuildingBlock: OJICUG_clean_linker_0, # of connection points: 2
#     Edge 29, Type (0, 0), BuildingBlock: OJICUG_clean_linker_0, # of connection points: 2
#     Edge 30, Type (0, 0), BuildingBlock: OJICUG_clean_linker_0, # of connection points: 2
#     Edge 31, Type (0, 0), BuildingBlock: OJICUG_clean_linker_0, # of connection points: 2
# Relax obj value: 0.116
# Max RMSD: 0.189
# Mean RMSD: 0.149
data_MOF--net-snk--node1-BETDAH_clean_sbu_0--edge1-OJICUG_clean_linker_0
_symmetry_space_group_name_H-M    P1
_symmetry_Int_Tables_number       1
_symmetry_cell_setting            triclinic
loop_
_symmetry_equiv_pos_as_xyz
'x, y, z'
_cell_length_a     26.344208
_cell_length_b     26.349447
_cell_length_c     20.860831
_cell_angle_alpha  83.020911
_cell_angle_beta   96.785215
_cell_angle_gamma 89.258118
loop_
_atom_site_label
_atom_site_type_symbol
_atom_site_fract_x
_atom_site_fract_y
_atom_site_fract_z
_atom_type_partial_charge
Ho0 Ho 0.977 0.97787 0.46583 0.0
Ho1 Ho 0.03137 0.02238 0.58584 0.0
C2 C 0.07132 0.05606 0.45182 0.0
C3 C 0.93437 0.96182 0.35188 0.0
C4 C 0.94671 0.97187 0.28443 0.0
C5 C 0.97254 0.01586 0.26297 0.0
C6 C 0.98592 0.02327 0.19957 0.0
C7 C 0.97392 0.98676 0.15646 0.0
C8 C 0.94772 0.94297 0.17824 0.0
C9 C 0.93428 0.93566 0.24153 0.0
C10 C 0.05054 0.91747 0.53987 0.0
C11 C 0.93696 0.94418 0.59972 0.0
C12 C 0.07396 0.03835 0.69984 0.0
C13 C 0.06151 0.0283 0.76725 0.0
C14 C 0.03573 0.98427 0.78867 0.0
C15 C 0.02228 0.97685 0.85205 0.0
C16 C 0.03419 0.01337 0.89516 0.0
C17 C 0.06033 0.05722 0.87341 0.0
C18 C 0.07382 0.06454 0.81014 0.0
C19 C 0.95785 0.08272 0.5117 0.0
O20 O 0.02848 0.03794 0.42464 0.0
O21 O 0.08633 0.04728 0.51503 0.0
O22 O 0.9643 0.92832 0.39032 0.0
O23 O 0.92323 0.00145 0.38029 0.0
O24 O 0.00908 0.90068 0.51073 0.0
O25 O 0.05234 0.96523 0.52526 0.0
O26 O 0.97976 0.96239 0.6269 0.0
O27 O 0.92198 0.95292 0.53651 0.0
O28 O 0.04414 0.07192 0.66135 0.0
O29 O 0.08506 0.9987 0.67143 0.0
O30 O 0.99928 0.09957 0.54083 0.0
O31 O 0.95612 0.03499 0.52652 0.0
H32 H 0.98267 0.04435 0.29525 0.0
H33 H 0.00546 0.05775 0.18425 0.0
H34 H 0.93853 0.91369 0.14684 0.0
H35 H 0.91474 0.90127 0.25732 0.0
H36 H 0.02568 0.95577 0.7564 0.0
H37 H 1.00279 0.94234 0.86735 0.0
H38 H 0.06944 0.0865 0.90481 0.0
H39 H 0.09332 0.09897 0.79437 0.0
Ho40 Ho 0.22969 0.72616 0.83676 0.0
Ho41 Ho 0.27835 0.77638 0.71737 0.0
C42 C 0.3092 0.81889 0.85032 0.0
C43 C 0.20859 0.68692 0.9502 0.0
C44 C 0.22139 0.69667 1.01816 0.0
C45 C 0.26716 0.71978 0.03884 0.0
C46 C 0.27674 0.73174 0.10269 0.0
C47 C 0.24065 0.72097 0.14691 0.0
C48 C 0.19517 0.69722 0.12588 0.0
C49 C 0.18571 0.68522 0.0622 0.0
C50 C 0.17097 0.79644 0.75495 0.0
C51 C 0.20116 0.68035 0.70506 0.0
C52 C 0.29727 0.81776 0.60383 0.0
C53 C 0.28704 0.80606 0.53624 0.0
C54 C 0.241 0.78439 0.51341 0.0
C55 C 0.23334 0.77105 0.45012 0.0
C56 C 0.27146 0.77943 0.40834 0.0
C57 C 0.31718 0.80188 0.43122 0.0
C58 C 0.32488 0.81494 0.49458 0.0
C59 C 0.33726 0.70565 0.79799 0.0
O60 O 0.28992 0.7769 0.87819 0.0
O61 O 0.30214 0.83258 0.78674 0.0
O62 O 0.18037 0.72247 0.91284 0.0
O63 O 0.24545 0.66939 0.92132 0.0
O64 O 0.1536 0.75557 0.78499 0.0
O65 O 0.21822 0.79944 0.77237 0.0
O66 O 0.22207 0.72117 0.67615 0.0
O67 O 0.20554 0.66934 0.76908 0.0
O68 O 0.329 0.7861 0.64258 0.0
O69 O 0.25795 0.83097 0.63166 0.0
O70 O 0.35479 0.74613 0.76714 0.0
O71 O 0.28983 0.70313 0.78144 0.0
H72 H 0.29522 0.72908 1.00555 0.0
H73 H 0.31244 0.74939 0.11739 0.0
H74 H 0.16617 0.68906 0.15812 0.0
H75 H 0.14997 0.66779 0.04693 0.0
H76 H 0.2111 0.77754 0.54458 0.0
H77 H 0.19742 0.75447 0.43376 0.0
H78 H 0.34752 0.80835 0.40062 0.0
H79 H 0.36076 0.83144 0.51138 0.0
Ho80 Ho 0.52358 0.96682 0.09294 0.0
Ho81 Ho 0.486 0.03125 0.96166 0.0
C82 C 0.43418 0.05497 0.08404 0.0
C83 C 0.55349 0.9336 0.21394 0.0
C84 C 0.54514 0.94845 0.27791 0.0
C85 C 0.53164 0.99898 0.28514 0.0
C86 C 0.52199 0.01181 0.3459 0.0
C87 C 0.52586 0.97438 0.40069 0.0
C88 C 0.53984 0.92389 0.39309 0.0
C89 C 0.54928 0.91111 0.33231 0.0
C90 C 0.45521 0.92177 1.01336 0.0
C91 C 0.57552 0.9429 0.97088 0.0
C92 C 0.45572 0.06481 0.84083 0.0
C93 C 0.46378 0.0503 0.77661 0.0
C94 C 0.47811 5e-05 0.76918 0.0
C95 C 0.48751 0.98753 0.70821 0.0
C96 C 0.48269 0.025 0.65339 0.0
C97 C 0.46778 0.07519 0.66119 0.0
C98 C 0.45849 0.08766 0.72218 0.0
C99 C 0.55406 0.07647 0.0415 0.0
O100 O 0.47239 0.02793 0.11965 0.0
O101 O 0.42695 0.0575 1.01985 0.0
O102 O 0.51363 0.91655 0.1805 0.0
O103 O 0.57983 0.96466 0.17777 0.0
O104 O 0.49233 0.89739 0.05165 0.0
O105 O 0.45423 0.96835 1.02179 0.0
O106 O 0.53747 0.97015 0.93511 0.0
O107 O 0.58261 0.9403 0.03506 0.0
O108 O 0.49568 0.08175 0.87419 0.0
O109 O 0.42961 0.03349 0.87697 0.0
O110 O 0.51691 0.10072 1.00311 0.0
O111 O 0.55524 0.02993 0.03284 0.0
H112 H 0.52839 0.02849 0.2438 0.0
H113 H 0.51195 0.05116 0.35005 0.0
H114 H 0.54254 0.89394 0.43387 0.0
H115 H 0.5594 0.87184 0.32767 0.0
H116 H 0.48221 0.97054 0.81053 0.0
H117 H 0.49818 0.94836 0.70397 0.0
H118 H 0.46427 0.1052 0.62043 0.0
H119 H 0.44763 0.12671 0.72696 0.0
Ho120 Ho 0.22225 0.26915 0.20976 0.0
Ho121 Ho 0.28544 0.22933 0.34129 0.0
C122 C 0.30956 0.17874 0.2183 0.0
C123 C 0.19065 0.30098 0.08881 0.0
C124 C 0.20497 0.29172 1.02483 0.0
C125 C 0.25513 0.27697 1.01734 0.0
C126 C 0.26744 0.26653 0.95664 0.0
C127 C 0.22983 0.27071 0.90217 0.0
C128 C 0.17974 0.286 0.91 0.0
C129 C 0.16749 0.29632 0.9707 0.0
C130 C 0.17602 0.20015 0.28749 0.0
C131 C 0.19788 0.31952 0.33281 0.0
C132 C 0.31766 0.19733 0.46205 0.0
C133 C 0.30356 0.20589 0.52635 0.0
C134 C 0.25358 0.22099 0.53416 0.0
C135 C 0.24148 0.23081 0.59517 0.0
C136 C 0.27913 0.2257 0.64963 0.0
C137 C 0.32903 0.21001 0.64151 0.0
C138 C 0.34107 0.20025 0.58049 0.0
C139 C 0.33139 0.29857 0.26331 0.0
O140 O 0.28284 0.21731 0.1829 0.0
O141 O 0.31171 0.17091 0.28244 0.0
O142 O 0.17119 0.26233 0.12202 0.0
O143 O 0.22331 0.32538 0.12522 0.0
O144 O 0.15217 0.23783 0.24957 0.0
O145 O 0.22276 0.19899 0.27961 0.0
O146 O 0.22463 0.28091 0.36815 0.0
O147 O 0.1958 0.3275 0.26866 0.0
O148 O 0.33644 0.23648 0.42896 0.0
O149 O 0.28515 0.17278 0.42565 0.0
O150 O 0.35537 0.26083 0.30098 0.0
O151 O 0.28477 0.29953 0.27163 0.0
H152 H 0.2847 0.27312 0.0585 0.0
H153 H 0.30623 0.2543 0.95271 0.0
H154 H 0.14998 0.29042 0.86906 0.0
H155 H 0.12858 0.30774 0.97544 0.0
H156 H 0.22401 0.22559 0.493 0.0
H157 H 0.20284 0.24335 0.59939 0.0
H158 H 0.35879 0.2049 0.68245 0.0
H159 H 0.37984 0.18848 0.57553 0.0
Ho160 Ho 0.73058 0.22354 0.33589 0.0
Ho161 Ho 0.77835 0.27458 0.21623 0.0
C162 C 0.80785 0.31947 0.34837 0.0
C163 C 0.71231 0.18177 0.44953 0.0
C164 C 0.72233 0.1936 0.51711 0.0
C165 C 0.76839 0.21512 0.54017 0.0
C166 C 0.77589 0.22855 0.60343 0.0
C167 C 0.73758 0.22039 0.64497 0.0
C168 C 0.69184 0.19807 0.62188 0.0
C169 C 0.6843 0.18494 0.55854 0.0
C170 C 0.67125 0.29461 0.2565 0.0
C171 C 0.69962 0.18106 0.20298 0.0
C172 C 0.79816 0.3147 0.10258 0.0
C173 C 0.78586 0.30438 0.03474 0.0
C174 C 0.74034 0.28089 1.01393 0.0
C175 C 0.73116 0.2686 0.95019 0.0
C176 C 0.76743 0.27938 0.90621 0.0
C177 C 0.81269 0.30343 0.92738 0.0
C178 C 0.82173 0.31579 0.99095 0.0
C179 C 0.83742 0.20378 0.29683 0.0
O180 O 0.78717 0.27844 0.37712 0.0
O181 O 0.80291 0.33097 0.2844 0.0
O182 O 0.68008 0.21292 0.41079 0.0
O183 O 0.75181 0.16919 0.42162 0.0
O184 O 0.65396 0.25381 0.28691 0.0
O185 O 0.71873 0.29723 0.27256 0.0
O186 O 0.71849 0.22328 0.17505 0.0
O187 O 0.70698 0.16731 0.26654 0.0
O188 O 0.8277 0.2803 0.14009 0.0
O189 O 0.76063 0.33084 0.13149 0.0
O190 O 0.85472 0.24475 0.2669 0.0
O191 O 0.79013 0.20104 0.27969 0.0
H192 H 0.79846 0.22178 0.50922 0.0
H193 H 0.81182 0.24502 0.61996 0.0
H194 H 0.66137 0.19176 0.6523 0.0
H195 H 0.64841 0.16854 0.54159 0.0
H196 H 0.71214 0.27158 0.04702 0.0
H197 H 0.69561 0.25073 0.93539 0.0
H198 H 0.84184 0.31161 0.89536 0.0
H199 H 0.85729 0.3335 1.00631 0.0
Ho200 Ho 0.72394 0.76788 0.71437 0.0
Ho201 Ho 0.78985 0.7302 0.84514 0.0
C202 C 0.81276 0.67933 0.72178 0.0
C203 C 0.69102 0.79703 0.59335 0.0
C204 C 0.70619 0.78782 0.52942 0.0
C205 C 0.75325 0.80394 0.50959 0.0
C206 C 0.76663 0.79434 0.44906 0.0
C207 C 0.73349 0.76809 0.40734 0.0
C208 C 0.68649 0.75211 0.42727 0.0
C209 C 0.67291 0.76211 0.48742 0.0
C210 C 0.68027 0.69937 0.79516 0.0
C211 C 0.70077 0.81903 0.83729 0.0
C212 C 0.82398 0.69987 0.96561 0.0
C213 C 0.81063 0.70853 0.03077 0.0
C214 C 0.76791 0.68614 0.05616 0.0
C215 C 0.75567 0.6956 0.11723 0.0
C216 C 0.7863 0.72704 0.15501 0.0
C217 C 0.82968 0.74846 0.13006 0.0
C218 C 0.84163 0.73932 0.06881 0.0
C219 C 0.83388 0.79868 0.76418 0.0
O220 O 0.7853 0.71752 0.6867 0.0
O221 O 0.81568 0.67163 0.78603 0.0
O222 O 0.67339 0.75773 0.62752 0.0
O223 O 0.72122 0.82423 0.62925 0.0
O224 O 0.65475 0.73492 0.75548 0.0
O225 O 0.72668 0.69884 0.78601 0.0
O226 O 0.72888 0.78137 0.87278 0.0
O227 O 0.69748 0.82625 0.773 0.0
O228 O 0.8415 0.7392 0.9313 0.0
O229 O 0.79275 0.6733 0.92999 0.0
O230 O 0.85863 0.76174 0.80244 0.0
O231 O 0.78744 0.79953 0.77361 0.0
H232 H 0.77988 0.82377 0.54081 0.0
H233 H 0.80328 0.80679 0.4353 0.0
H234 H 0.65985 0.73238 0.39594 0.0
H235 H 0.63629 0.74957 0.50126 0.0
H236 H 0.74377 0.6613 0.02904 0.0
H237 H 0.72174 0.6787 0.13438 0.0
H238 H 0.85489 0.77191 0.15813 0.0
H239 H 0.87536 0.75638 0.0512 0.0
Ho240 Ho 0.47712 0.47871 0.96941 0.0
Ho241 Ho 0.52981 0.52421 0.08962 0.0
C242 C 0.57348 0.55549 0.9565 0.0
C243 C 0.43389 0.46286 0.85572 0.0
C244 C 0.44636 0.47198 0.78823 0.0
C245 C 0.46978 0.51701 0.76504 0.0
C246 C 0.48368 0.52363 0.70191 0.0
C247 C 0.47413 0.48548 0.66059 0.0
C248 C 0.44993 0.44081 0.68377 0.0
C249 C 0.43631 0.43413 0.747 0.0
C250 C 0.54907 0.41826 0.0457 0.0
C251 C 0.43599 0.44579 0.10304 0.0
C252 C 0.57118 0.54196 0.20338 0.0
C253 C 0.5604 0.53005 0.2712 0.0
C254 C 0.53527 0.48544 0.29194 0.0
C255 C 0.5226 0.47674 0.35563 0.0
C256 C 0.53464 0.51259 0.39965 0.0
C257 C 0.56033 0.55692 0.37857 0.0
C258 C 0.57307 0.56548 0.31505 0.0
C259 C 0.45801 0.58429 1.01216 0.0
O260 O 0.53224 0.53519 0.92799 0.0
O261 O 0.58544 0.5498 1.02042 0.0
O262 O 0.4629 0.42876 0.89454 0.0
O263 O 0.42391 0.50311 0.88368 0.0
O264 O 0.50803 0.40147 1.01549 0.0
O265 O 0.55147 0.46594 0.03085 0.0
O266 O 0.47861 0.46394 0.13066 0.0
O267 O 0.42154 0.45446 0.03971 0.0
O268 O 0.53812 0.5731 0.16602 0.0
O269 O 0.58548 0.50383 0.17422 0.0
O270 O 0.49932 0.60117 0.04154 0.0
O271 O 0.45555 0.5368 0.02819 0.0
H272 H 0.47754 0.54696 0.79578 0.0
H273 H 0.5016 0.55879 0.68531 0.0
H274 H 0.44249 0.41048 0.65351 0.0
H275 H 0.41842 0.39903 0.76403 0.0
H276 H 0.52497 0.45759 0.25882 0.0
H277 H 0.50344 0.44189 0.37036 0.0
H278 H 0.56952 0.58575 0.41063 0.0
H279 H 0.59206 0.60036 0.29975 0.0
Ho280 Ho 0.02228 0.465 0.59162 0.0
Ho281 Ho 0.98765 0.53419 0.46155 0.0
C282 C 0.93555 0.55591 0.58463 0.0
C283 C 0.05009 0.43013 0.71237 0.0
C284 C 0.041 0.4451 0.77668 0.0
C285 C 0.07372 0.47854 0.80826 0.0
C286 C 0.065 0.49201 0.86908 0.0
C287 C 0.02349 0.47223 0.89999 0.0
C288 C 0.99109 0.43849 0.86857 0.0
C289 C 0.99982 0.42498 0.80791 0.0
C290 C 0.95409 0.42434 0.50772 0.0
C291 C 0.07439 0.44328 0.46863 0.0
C292 C 0.96013 0.56916 0.34079 0.0
C293 C 0.96917 0.55396 0.27656 0.0
C294 C 0.93642 0.52046 0.24516 0.0
C295 C 0.94514 0.50676 0.18443 0.0
C296 C 0.98669 0.52638 0.15347 0.0
C297 C 0.01912 0.56019 0.18473 0.0
C298 C 0.01039 0.57391 0.24527 0.0
C299 C 0.05577 0.57471 0.54575 0.0
O300 O 0.97224 0.52644 0.61988 0.0
O301 O 0.92914 0.56071 0.52024 0.0
O302 O 0.01061 0.4138 0.6773 0.0
O303 O 0.0786 0.45964 0.67712 0.0
O304 O 0.98835 0.39753 0.54802 0.0
O305 O 0.95432 0.47047 0.51817 0.0
O306 O 0.03757 0.47256 0.43335 0.0
O307 O 0.08087 0.43867 0.533 0.0
O308 O 0.99976 0.58519 0.3759 0.0
O309 O 0.93133 0.53998 0.37601 0.0
O310 O 0.02154 0.6016 0.50549 0.0
O311 O 0.05552 0.52869 0.5349 0.0
H312 H 0.10611 0.49437 0.78604 0.0
H313 H 0.09052 0.51841 0.89157 0.0
H314 H 0.95932 0.42176 0.89134 0.0
H315 H 0.97428 0.39849 0.78562 0.0
H316 H 0.904 0.50475 0.26742 0.0
H317 H 0.91959 0.48033 0.16207 0.0
H318 H 0.05092 0.5768 0.1619 0.0
H319 H 0.03596 0.60044 0.26744 0.0
C320 C 0.15279 0.08908 0.41351 0.0
C321 C 0.09934 0.09191 0.41037 0.0
H322 H 0.21901 0.11925 0.37327 0.0
C323 C 0.07162 0.12959 0.36624 0.0
H324 H 0.17473 0.05976 0.44666 0.0
C325 C 0.0969 0.16485 0.32694 0.0
C326 C 0.15034 0.16215 0.3295 0.0
H327 H 0.0303 0.13238 0.36292 0.0
H328 H 0.07445 0.19407 0.29422 0.0
C329 C 0.17805 0.12333 0.37212 0.0
C330 C 0.06634 0.83897 0.61902 0.0
C331 C 0.08305 0.88675 0.5935 0.0
H332 H 0.08085 0.77353 0.6904 0.0
C333 C 0.12967 0.90477 0.62087 0.0
H334 H 0.03055 0.8241 0.59898 0.0
C335 C 0.15867 0.8756 0.67368 0.0
C336 C 0.14138 0.8281 0.69957 0.0
H337 H 0.14351 0.94137 0.60167 0.0
H338 H 0.19429 0.89029 0.69452 0.0
C339 C 0.095 0.81014 0.6717 0.0
C340 C 0.38219 0.81829 0.93646 0.0
C341 C 0.34549 0.84653 0.89144 0.0
H342 H 0.44643 0.82018 1.00877 0.0
C343 C 0.34418 0.90006 0.88702 0.0
H344 H 0.38378 0.77689 0.94084 0.0
C345 C 0.37892 0.9249 0.92806 0.0
C346 C 0.4168 0.8966 0.97155 0.0
H347 H 0.31565 0.92244 0.85315 0.0
H348 H 0.37597 0.96599 0.92593 0.0
C349 C 0.418 0.84308 0.97534 0.0
C350 C 0.40464 0.07857 0.18651 0.0
C351 C 0.4 0.08453 0.11804 0.0
H352 H 0.37976 0.10335 0.27192 0.0
C353 C 0.36368 0.11998 0.08299 0.0
H354 H 0.4319 0.05124 0.21513 0.0
C355 C 0.33367 0.1498 0.11571 0.0
C356 C 0.33925 0.14477 0.18418 0.0
H357 H 0.359 0.12543 0.0303 0.0
H358 H 0.30643 0.17717 0.08711 0.0
C359 C 0.37458 0.10832 0.21922 0.0
C360 C 0.85562 0.90958 0.637 0.0
C361 C 0.90917 0.90804 0.64112 0.0
H362 H 0.78959 0.87797 0.67636 0.0
C363 C 0.93729 0.8712 0.68605 0.0
H364 H 0.83332 0.93817 0.6031 0.0
C365 C 0.91241 0.8356 0.72529 0.0
C366 C 0.85889 0.83705 0.72189 0.0
H367 H 0.97868 0.8693 0.69006 0.0
H368 H 0.93526 0.8071 0.75869 0.0
C369 C 0.83067 0.87495 0.67834 0.0
C370 C 0.87877 0.09532 0.43062 0.0
C371 C 0.92534 0.11338 0.45806 0.0
H372 H 0.81419 0.1098 0.35692 0.0
C373 C 0.942 0.16121 0.43266 0.0
H374 H 0.86496 0.05869 0.44976 0.0
C375 C 0.91335 0.19006 0.38002 0.0
C376 C 0.86704 0.17206 0.35208 0.0
H377 H 0.97774 0.17613 0.4528 0.0
H378 H 0.92746 0.22672 0.36143 0.0
C379 C 0.84978 0.1245 0.37783 0.0
C380 C 0.62713 0.1808 0.11633 0.0
C381 C 0.66366 0.15297 0.162 0.0
H382 H 0.56308 0.17819 0.04398 0.0
C383 C 0.66494 0.09938 0.16746 0.0
H384 H 0.62552 0.22222 0.11119 0.0
C385 C 0.63028 0.07407 0.12686 0.0
C386 C 0.59254 0.10199 0.08277 0.0
H387 H 0.69331 0.0773 0.20189 0.0
H388 H 0.63313 0.03292 0.12989 0.0
C389 C 0.59141 0.15557 0.0779 0.0
C390 C 0.67533 0.84694 0.93988 0.0
C391 C 0.67073 0.85272 0.87142 0.0
H392 H 0.64916 0.87093 1.02504 0.0
C393 C 0.63611 0.88981 0.83625 0.0
H394 H 0.70178 0.81882 0.96861 0.0
C395 C 0.60591 0.91962 0.86873 0.0
C396 C 0.60973 0.91312 0.93714 0.0
H397 H 0.63165 0.89537 0.78356 0.0
H398 H 0.57926 0.94749 0.83999 0.0
C399 C 0.64523 0.87689 0.97238 0.0
C400 C 0.59369 0.59378 0.84696 0.0
C401 C 0.60475 0.58868 0.91516 0.0
H402 H 0.60905 0.63339 0.75549 0.0
C403 C 0.64294 0.61885 0.94314 0.0
H404 H 0.56472 0.57112 0.82368 0.0
C405 C 0.66839 0.65424 0.90371 0.0
C406 C 0.65638 0.65974 0.83605 0.0
H407 H 0.65193 0.61652 0.99545 0.0
H408 H 0.69563 0.67903 0.92605 0.0
C409 C 0.61899 0.62933 0.80781 0.0
C410 C 0.65851 0.37452 0.17673 0.0
C411 C 0.64089 0.32722 0.20276 0.0
H412 H 0.64297 0.44095 0.10586 0.0
C413 C 0.59353 0.31032 0.17649 0.0
H414 H 0.69488 0.38841 0.19642 0.0
C415 C 0.56447 0.33974 0.12472 0.0
C416 C 0.58159 0.38724 0.09893 0.0
H417 H 0.57905 0.27394 0.19547 0.0
H418 H 0.5281 0.3255 0.1055 0.0
C419 C 0.62889 0.4045 0.12522 0.0
C420 C 0.90512 0.41591 0.40009 0.0
C421 C 0.91337 0.40151 0.46744 0.0
H422 H 0.86484 0.4015 0.30909 0.0
C423 C 0.88485 0.36236 0.4959 0.0
H424 H 0.9282 0.44468 0.37712 0.0
C425 C 0.84873 0.33746 0.4574 0.0
C426 C 0.84116 0.35063 0.38946 0.0
H427 H 0.89095 0.3506 0.54791 0.0
H428 H 0.82783 0.30694 0.48088 0.0
C429 C 0.8692 0.39073 0.36127 0.0
C430 C 0.83703 0.65193 0.6185 0.0
C431 C 0.84235 0.64575 0.68701 0.0
H432 H 0.86194 0.6284 0.53244 0.0
C433 C 0.87713 0.60846 0.72135 0.0
H434 H 0.81041 0.68019 0.59037 0.0
C435 C 0.90677 0.57879 0.68794 0.0
C436 C 0.90213 0.58565 0.61945 0.0
H437 H 0.88215 0.60268 0.77404 0.0
H438 H 0.93372 0.55083 0.71605 0.0
C439 C 0.86652 0.62215 0.58511 0.0
C440 C 0.32919 0.37631 0.18003 0.0
C441 C 0.35703 0.33748 0.22252 0.0
H442 H 0.33242 0.44058 0.10645 0.0
C443 C 0.41055 0.33574 0.22623 0.0
H444 H 0.28812 0.37969 0.17809 0.0
C445 C 0.43579 0.37187 0.1881 0.0
C446 C 0.40798 0.40944 0.14388 0.0
H447 H 0.43309 0.30658 0.25896 0.0
H448 H 0.47717 0.36977 0.19229 0.0
C449 C 0.35446 0.41138 0.13968 0.0
C450 C 0.378 0.59791 0.93297 0.0
C451 C 0.42606 0.61448 0.95767 0.0
H452 H 0.31186 0.61384 0.86199 0.0
C453 C 0.44446 0.66052 0.92917 0.0
H454 H 0.36304 0.56251 0.95429 0.0
C455 C 0.41564 0.68939 0.87672 0.0
C456 C 0.36742 0.67331 0.85219 0.0
H457 H 0.4815 0.67409 0.94698 0.0
H458 H 0.43098 0.72477 0.85589 0.0
C459 C 0.34878 0.62723 0.8805 0.0
C460 C 0.16132 0.66135 0.59601 0.0
C461 C 0.16823 0.64883 0.66405 0.0
H462 H 0.11978 0.64752 0.50537 0.0
C463 C 0.13984 0.60905 0.69236 0.0
H464 H 0.18252 0.69159 0.57245 0.0
C465 C 0.10417 0.58364 0.65353 0.0
C466 C 0.09652 0.59744 0.58605 0.0
H467 H 0.14372 0.59877 0.74461 0.0
H468 H 0.08076 0.55518 0.67655 0.0
C469 C 0.12545 0.6362 0.55748 0.0
C470 C 0.1324 0.38952 0.3324 0.0
C471 C 0.16822 0.35338 0.36711 0.0
H472 H 0.07473 0.44623 0.33713 0.0
C473 C 0.17441 0.34853 0.43557 0.0
H474 H 0.1267 0.39426 0.27972 0.0
C475 C 0.14464 0.37828 0.46863 0.0
C476 C 0.10795 0.41354 0.43399 0.0
H477 H 0.20202 0.3214 0.46392 0.0
H478 H 0.14996 0.37303 0.52132 0.0
C479 C 0.10252 0.41923 0.36548 0.0
C480 C 0.0517 0.0199 1.01523 0.0
C481 C 0.01888 0.00623 0.96219 0.0
H482 H 0.06371 0.02392 0.11776 0.0
C483 C 0.97105 0.98627 0.97363 0.0
H484 H 0.08912 0.03466 1.00845 0.0
C485 C 0.95642 0.98018 0.0364 0.0
C486 C 0.98924 0.99386 0.08943 0.0
H487 H 0.94443 0.97615 0.93386 0.0
H488 H 0.919 0.96542 0.04317 0.0
C489 C 0.03708 0.0138 0.07799 0.0
C490 C 0.27925 0.79634 0.2886 0.0
C491 C 0.26389 0.76434 0.34143 0.0
H492 H 0.28335 0.80826 0.18603 0.0
C493 C 0.24159 0.71759 0.32995 0.0
H494 H 0.29596 0.83289 0.29561 0.0
C495 C 0.23464 0.70329 0.26716 0.0
C496 C 0.24963 0.73545 0.21416 0.0
H497 H 0.23013 0.69165 0.36971 0.0
H498 H 0.21795 0.6667 0.2603 0.0
C499 C 0.27214 0.78211 0.22575 0.0
C500 C 0.46357 0.03328 0.53109 0.0
C501 C 0.49367 0.01199 0.58858 0.0
H502 H 0.44961 0.03778 0.42726 0.0
C503 C 0.53462 0.97845 0.58357 0.0
H504 H 0.43126 0.05865 0.53303 0.0
C505 C 0.54512 0.96645 0.52283 0.0
C506 C 0.515 0.98769 0.46537 0.0
H507 H 0.5592 0.96202 0.62658 0.0
H508 H 0.57739 0.94104 0.52087 0.0
C509 C 0.47412 0.02133 0.47032 0.0
C510 C 0.28922 0.274 0.81544 0.0
C511 C 0.24261 0.25898 0.83757 0.0
H512 H 0.3369 0.27611 0.73886 0.0
C513 C 0.2082 0.23272 0.79735 0.0
H514 H 0.3163 0.29497 0.84456 0.0
C515 C 0.22 0.22194 0.73661 0.0
C516 C 0.26657 0.23703 0.71446 0.0
H517 H 0.17234 0.21976 0.81318 0.0
H518 H 0.1929 0.20105 0.70742 0.0
C519 C 0.30104 0.26317 0.75473 0.0
C520 C 0.73634 0.21801 0.82744 0.0
C521 C 0.7588 0.26471 0.83901 0.0
H522 H 0.71272 0.16712 0.75763 0.0
C523 C 0.77399 0.29676 0.78604 0.0
H524 H 0.72499 0.19194 0.86713 0.0
C525 C 0.76727 0.28232 0.7233 0.0
C526 C 0.74498 0.23558 0.71183 0.0
H527 H 0.79063 0.33337 0.79286 0.0
H528 H 0.77887 0.30819 0.68356 0.0
C529 C 0.72944 0.20368 0.76464 0.0
C530 C 0.76894 0.79554 0.30213 0.0
C531 C 0.74769 0.75742 0.34318 0.0
H532 H 0.79641 0.81651 0.21035 0.0
C533 C 0.73954 0.70914 0.3222 0.0
H534 H 0.77507 0.83334 0.31652 0.0
C535 C 0.7523 0.6992 0.26159 0.0
C536 C 0.77317 0.73744 0.22007 0.0
H537 H 0.72387 0.67873 0.35308 0.0
H538 H 0.74638 0.66123 0.24772 0.0
C539 C 0.78129 0.78577 0.24125 0.0
C540 C 0.53737 0.51248 0.58252 0.0
C541 C 0.48976 0.492 0.59383 0.0
H542 H 0.58938 0.53383 0.51315 0.0
C543 C 0.45737 0.47756 0.54096 0.0
H544 H 0.56361 0.52319 0.62232 0.0
C545 C 0.47205 0.48383 0.47822 0.0
C546 C 0.51959 0.50454 0.46679 0.0
H547 H 0.42016 0.46226 0.54783 0.0
H548 H 0.4456 0.4734 0.43846 0.0
C549 C 0.55214 0.51857 0.51985 0.0
C550 C 0.05503 0.49023 1.0137 0.0
C551 C 0.0141 0.4863 0.96489 0.0
H552 H 0.07854 0.50487 0.11141 0.0
C553 C 0.96403 0.49545 0.97881 0.0
H554 H 0.094 0.48262 1.00515 0.0
C555 C 0.95513 0.50817 0.03985 0.0
C556 C 0.99606 0.51214 0.08864 0.0
H557 H 0.93162 0.49355 0.94213 0.0
H558 H 0.91616 0.5158 0.04839 0.0
C559 C 0.04613 0.50295 0.07474 0.0
loop_
_geom_bond_atom_site_label_1
_geom_bond_atom_site_label_2
_geom_bond_distance
_geom_bond_site_symmetry_2
_ccdc_geom_bond_type
Ho0 C3 2.811 1_655 S
Ho0 O20 2.322 1_665 S
Ho0 O22 2.378 1_655 S
Ho0 O23 2.524 1_565 S
Ho0 O24 2.381 1_655 S
Ho0 O25 2.669 1_655 S
Ho0 O27 2.346 . S
Ho0 O31 2.305 1_565 S
Ho1 C12 2.811 1_455 S
Ho1 O21 2.346 . S
Ho1 O25 2.305 1_545 S
Ho1 O26 2.322 1_445 S
Ho1 O28 2.378 1_455 S
Ho1 O29 2.524 1_545 S
Ho1 O30 2.381 1_455 S
Ho1 O31 2.669 1_455 S
C2 O20 1.259 . S
C2 O21 1.268 . S
C3 Ho0 2.811 1_455 S
C3 C4 1.488 . S
C3 O22 1.215 . S
C3 O23 1.289 1_465 S
C4 C3 1.488 . S
C4 C5 1.348 1_565 S
C4 C9 1.413 . S
C5 C4 1.348 1_545 S
C5 C6 1.442 . S
C5 H32 0.930 1_455 S
C6 C5 1.442 . S
C6 C7 1.381 1_545 S
C6 H33 0.931 . S
C7 C6 1.381 1_565 S
C7 C8 1.321 . S
C8 C7 1.321 . S
C8 C9 1.403 . S
C8 H34 0.934 . S
C9 C4 1.413 . S
C9 C8 1.403 . S
C9 H35 0.930 . S
C10 O24 1.275 . S
C10 O25 1.256 . S
C11 O26 1.259 . S
C11 O27 1.268 . S
C12 Ho1 2.811 1_655 S
C12 C13 1.488 . S
C12 O28 1.215 . S
C12 O29 1.289 1_645 S
C13 C12 1.488 . S
C13 C14 1.348 1_545 S
C13 C18 1.413 . S
C14 C13 1.348 1_565 S
C14 C15 1.442 . S
C14 H36 0.930 1_655 S
C15 C14 1.442 . S
C15 C16 1.381 1_565 S
C15 H37 0.931 . S
C16 C15 1.381 1_545 S
C16 C17 1.321 . S
C17 C16 1.321 . S
C17 C18 1.403 . S
C17 H38 0.934 . S
C18 C13 1.413 . S
C18 C17 1.403 . S
C18 H39 0.930 . S
C19 O30 1.275 . S
C19 O31 1.256 . S
O20 Ho0 2.322 1_445 S
O20 C2 1.259 . S
O21 Ho1 2.346 . S
O21 C2 1.268 . S
O22 Ho0 2.378 1_455 S
O22 C3 1.215 . S
O23 Ho0 2.524 1_545 S
O23 C3 1.289 1_645 S
O24 Ho0 2.381 1_455 S
O24 C10 1.275 . S
O25 Ho0 2.669 1_455 S
O25 Ho1 2.305 1_565 S
O25 C10 1.256 . S
O26 Ho1 2.322 1_665 S
O26 C11 1.259 . S
O27 Ho0 2.346 . S
O27 C11 1.268 . S
O28 Ho1 2.378 1_655 S
O28 C12 1.215 . S
O29 Ho1 2.524 1_565 S
O29 C12 1.289 1_465 S
O30 Ho1 2.381 1_655 S
O30 C19 1.275 . S
O31 Ho0 2.305 1_545 S
O31 Ho1 2.669 1_655 S
O31 C19 1.256 . S
H32 C5 0.930 1_655 S
H33 C6 0.931 . S
H34 C8 0.934 . S
H35 C9 0.930 . S
H36 C14 0.930 1_455 S
H37 C15 0.931 . S
H38 C17 0.934 . S
H39 C18 0.930 . S
Ho40 C43 2.811 . S
Ho40 O60 2.322 . S
Ho40 O62 2.378 . S
Ho40 O63 2.524 . S
Ho40 O64 2.381 . S
Ho40 O65 2.669 . S
Ho40 O67 2.346 . S
Ho40 O71 2.305 . S
Ho41 C52 2.811 . S
Ho41 O61 2.346 . S
Ho41 O65 2.305 . S
Ho41 O66 2.322 . S
Ho41 O68 2.378 . S
Ho41 O69 2.524 . S
Ho41 O70 2.381 . S
Ho41 O71 2.669 . S
C42 O60 1.259 . S
C42 O61 1.268 . S
C43 Ho40 2.811 . S
C43 C44 1.488 1_556 S
C43 O62 1.215 . S
C43 O63 1.289 . S
C44 C43 1.488 1_554 S
C44 C45 1.348 . S
C44 C49 1.413 . S
C45 C44 1.348 . S
C45 C46 1.442 . S
C45 H72 0.930 . S
C46 C45 1.442 . S
C46 C47 1.381 . S
C46 H73 0.931 . S
C47 C46 1.381 . S
C47 C48 1.321 . S
C48 C47 1.321 . S
C48 C49 1.403 . S
C48 H74 0.934 . S
C49 C44 1.413 . S
C49 C48 1.403 . S
C49 H75 0.930 1_554 S
C50 O64 1.275 . S
C50 O65 1.256 . S
C51 O66 1.259 . S
C51 O67 1.268 . S
C52 Ho41 2.811 . S
C52 C53 1.488 . S
C52 O68 1.215 . S
C52 O69 1.289 . S
C53 C52 1.488 . S
C53 C54 1.348 . S
C53 C58 1.413 . S
C54 C53 1.348 . S
C54 C55 1.442 . S
C54 H76 0.930 . S
C55 C54 1.442 . S
C55 C56 1.381 . S
C55 H77 0.931 . S
C56 C55 1.381 . S
C56 C57 1.321 . S
C57 C56 1.321 . S
C57 C58 1.403 . S
C57 H78 0.934 . S
C58 C53 1.413 . S
C58 C57 1.403 . S
C58 H79 0.930 . S
C59 O70 1.275 . S
C59 O71 1.256 . S
O60 Ho40 2.322 . S
O60 C42 1.259 . S
O61 Ho41 2.346 . S
O61 C42 1.268 . S
O62 Ho40 2.378 . S
O62 C43 1.215 . S
O63 Ho40 2.524 . S
O63 C43 1.289 . S
O64 Ho40 2.381 . S
O64 C50 1.275 . S
O65 Ho40 2.669 . S
O65 Ho41 2.305 . S
O65 C50 1.256 . S
O66 Ho41 2.322 . S
O66 C51 1.259 . S
O67 Ho40 2.346 . S
O67 C51 1.268 . S
O68 Ho41 2.378 . S
O68 C52 1.215 . S
O69 Ho41 2.524 . S
O69 C52 1.289 . S
O70 Ho41 2.381 . S
O70 C59 1.275 . S
O71 Ho40 2.305 . S
O71 Ho41 2.669 . S
O71 C59 1.256 . S
H72 C45 0.930 . S
H73 C46 0.931 . S
H74 C48 0.934 . S
H75 C49 0.930 1_556 S
H76 C54 0.930 . S
H77 C55 0.931 . S
H78 C57 0.934 . S
H79 C58 0.930 . S
Ho80 C83 2.811 . S
Ho80 O100 2.322 1_565 S
Ho80 O102 2.378 . S
Ho80 O103 2.524 . S
Ho80 O104 2.381 . S
Ho80 O105 2.669 1_554 S
Ho80 O107 2.346 . S
Ho80 O111 2.305 1_565 S
Ho81 C92 2.811 . S
Ho81 O101 2.346 . S
Ho81 O105 2.305 1_545 S
Ho81 O106 2.322 1_545 S
Ho81 O108 2.378 . S
Ho81 O109 2.524 . S
Ho81 O110 2.381 . S
Ho81 O111 2.669 1_556 S
C82 O100 1.259 . S
C82 O101 1.268 1_554 S
C83 Ho80 2.811 . S
C83 C84 1.488 . S
C83 O102 1.215 . S
C83 O103 1.289 . S
C84 C83 1.488 . S
C84 C85 1.348 . S
C84 C89 1.413 . S
C85 C84 1.348 . S
C85 C86 1.442 . S
C85 H112 0.930 1_565 S
C86 C85 1.442 . S
C86 C87 1.381 . S
C86 H113 0.931 1_565 S
C87 C86 1.381 . S
C87 C88 1.321 . S
C88 C87 1.321 . S
C88 C89 1.403 . S
C88 H114 0.934 . S
C89 C84 1.413 . S
C89 C88 1.403 . S
C89 H115 0.930 . S
C90 O104 1.275 1_556 S
C90 O105 1.256 . S
C91 O106 1.259 . S
C91 O107 1.268 1_556 S
C92 Ho81 2.811 . S
C92 C93 1.488 . S
C92 O108 1.215 . S
C92 O109 1.289 . S
C93 C92 1.488 . S
C93 C94 1.348 . S
C93 C98 1.413 . S
C94 C93 1.348 . S
C94 C95 1.442 . S
C94 H116 0.930 1_545 S
C95 C94 1.442 . S
C95 C96 1.381 . S
C95 H117 0.931 1_545 S
C96 C95 1.381 . S
C96 C97 1.321 . S
C97 C96 1.321 . S
C97 C98 1.403 . S
C97 H118 0.934 . S
C98 C93 1.413 . S
C98 C97 1.403 . S
C98 H119 0.930 . S
C99 O110 1.275 1_554 S
C99 O111 1.256 . S
O100 Ho80 2.322 1_545 S
O100 C82 1.259 . S
O101 Ho81 2.346 . S
O101 C82 1.268 1_556 S
O102 Ho80 2.378 . S
O102 C83 1.215 . S
O103 Ho80 2.524 . S
O103 C83 1.289 . S
O104 Ho80 2.381 . S
O104 C90 1.275 1_554 S
O105 Ho80 2.669 1_556 S
O105 Ho81 2.305 1_565 S
O105 C90 1.256 . S
O106 Ho81 2.322 1_565 S
O106 C91 1.259 . S
O107 Ho80 2.346 . S
O107 C91 1.268 1_554 S
O108 Ho81 2.378 . S
O108 C92 1.215 . S
O109 Ho81 2.524 . S
O109 C92 1.289 . S
O110 Ho81 2.381 . S
O110 C99 1.275 1_556 S
O111 Ho80 2.305 1_545 S
O111 Ho81 2.669 1_554 S
O111 C99 1.256 . S
H112 C85 0.930 1_545 S
H113 C86 0.931 1_545 S
H114 C88 0.934 . S
H115 C89 0.930 . S
H116 C94 0.930 1_565 S
H117 C95 0.931 1_565 S
H118 C97 0.934 . S
H119 C98 0.930 . S
Ho120 C123 2.811 . S
Ho120 O140 2.322 . S
Ho120 O142 2.378 . S
Ho120 O143 2.524 . S
Ho120 O144 2.381 . S
Ho120 O145 2.669 . S
Ho120 O147 2.346 . S
Ho120 O151 2.305 . S
Ho121 C132 2.811 . S
Ho121 O141 2.346 . S
Ho121 O145 2.305 . S
Ho121 O146 2.322 . S
Ho121 O148 2.378 . S
Ho121 O149 2.524 . S
Ho121 O150 2.381 . S
Ho121 O151 2.669 . S
C122 O140 1.259 . S
C122 O141 1.268 . S
C123 Ho120 2.811 . S
C123 C124 1.488 1_554 S
C123 O142 1.215 . S
C123 O143 1.289 . S
C124 C123 1.488 1_556 S
C124 C125 1.348 . S
C124 C129 1.413 . S
C125 C124 1.348 . S
C125 C126 1.442 . S
C125 H152 0.930 . S
C126 C125 1.442 . S
C126 C127 1.381 . S
C126 H153 0.931 . S
C127 C126 1.381 . S
C127 C128 1.321 . S
C128 C127 1.321 . S
C128 C129 1.403 . S
C128 H154 0.934 . S
C129 C124 1.413 . S
C129 C128 1.403 . S
C129 H155 0.930 . S
C130 O144 1.275 . S
C130 O145 1.256 . S
C131 O146 1.259 . S
C131 O147 1.268 . S
C132 Ho121 2.811 . S
C132 C133 1.488 . S
C132 O148 1.215 . S
C132 O149 1.289 . S
C133 C132 1.488 . S
C133 C134 1.348 . S
C133 C138 1.413 . S
C134 C133 1.348 . S
C134 C135 1.442 . S
C134 H156 0.930 . S
C135 C134 1.442 . S
C135 C136 1.381 . S
C135 H157 0.931 . S
C136 C135 1.381 . S
C136 C137 1.321 . S
C137 C136 1.321 . S
C137 C138 1.403 . S
C137 H158 0.934 . S
C138 C133 1.413 . S
C138 C137 1.403 . S
C138 H159 0.930 . S
C139 O150 1.275 . S
C139 O151 1.256 . S
O140 Ho120 2.322 . S
O140 C122 1.259 . S
O141 Ho121 2.346 . S
O141 C122 1.268 . S
O142 Ho120 2.378 . S
O142 C123 1.215 . S
O143 Ho120 2.524 . S
O143 C123 1.289 . S
O144 Ho120 2.381 . S
O144 C130 1.275 . S
O145 Ho120 2.669 . S
O145 Ho121 2.305 . S
O145 C130 1.256 . S
O146 Ho121 2.322 . S
O146 C131 1.259 . S
O147 Ho120 2.346 . S
O147 C131 1.268 . S
O148 Ho121 2.378 . S
O148 C132 1.215 . S
O149 Ho121 2.524 . S
O149 C132 1.289 . S
O150 Ho121 2.381 . S
O150 C139 1.275 . S
O151 Ho120 2.305 . S
O151 Ho121 2.669 . S
O151 C139 1.256 . S
H152 C125 0.930 . S
H153 C126 0.931 . S
H154 C128 0.934 . S
H155 C129 0.930 . S
H156 C134 0.930 . S
H157 C135 0.931 . S
H158 C137 0.934 . S
H159 C138 0.930 . S
Ho160 C163 2.811 . S
Ho160 O180 2.322 . S
Ho160 O182 2.378 . S
Ho160 O183 2.524 . S
Ho160 O184 2.381 . S
Ho160 O185 2.669 . S
Ho160 O187 2.346 . S
Ho160 O191 2.305 . S
Ho161 C172 2.811 . S
Ho161 O181 2.346 . S
Ho161 O185 2.305 . S
Ho161 O186 2.322 . S
Ho161 O188 2.378 . S
Ho161 O189 2.524 . S
Ho161 O190 2.381 . S
Ho161 O191 2.669 . S
C162 O180 1.259 . S
C162 O181 1.268 . S
C163 Ho160 2.811 . S
C163 C164 1.488 . S
C163 O182 1.215 . S
C163 O183 1.289 . S
C164 C163 1.488 . S
C164 C165 1.348 . S
C164 C169 1.413 . S
C165 C164 1.348 . S
C165 C166 1.442 . S
C165 H192 0.930 . S
C166 C165 1.442 . S
C166 C167 1.381 . S
C166 H193 0.931 . S
C167 C166 1.381 . S
C167 C168 1.321 . S
C168 C167 1.321 . S
C168 C169 1.403 . S
C168 H194 0.934 . S
C169 C164 1.413 . S
C169 C168 1.403 . S
C169 H195 0.930 . S
C170 O184 1.275 . S
C170 O185 1.256 . S
C171 O186 1.259 . S
C171 O187 1.268 . S
C172 Ho161 2.811 . S
C172 C173 1.488 1_554 S
C172 O188 1.215 . S
C172 O189 1.289 . S
C173 C172 1.488 1_556 S
C173 C174 1.348 . S
C173 C178 1.413 . S
C174 C173 1.348 . S
C174 C175 1.442 . S
C174 H196 0.930 . S
C175 C174 1.442 . S
C175 C176 1.381 . S
C175 H197 0.931 . S
C176 C175 1.381 . S
C176 C177 1.321 . S
C177 C176 1.321 . S
C177 C178 1.403 . S
C177 H198 0.934 . S
C178 C173 1.413 . S
C178 C177 1.403 . S
C178 H199 0.930 1_556 S
C179 O190 1.275 . S
C179 O191 1.256 . S
O180 Ho160 2.322 . S
O180 C162 1.259 . S
O181 Ho161 2.346 . S
O181 C162 1.268 . S
O182 Ho160 2.378 . S
O182 C163 1.215 . S
O183 Ho160 2.524 . S
O183 C163 1.289 . S
O184 Ho160 2.381 . S
O184 C170 1.275 . S
O185 Ho160 2.669 . S
O185 Ho161 2.305 . S
O185 C170 1.256 . S
O186 Ho161 2.322 . S
O186 C171 1.259 . S
O187 Ho160 2.346 . S
O187 C171 1.268 . S
O188 Ho161 2.378 . S
O188 C172 1.215 . S
O189 Ho161 2.524 . S
O189 C172 1.289 . S
O190 Ho161 2.381 . S
O190 C179 1.275 . S
O191 Ho160 2.305 . S
O191 Ho161 2.669 . S
O191 C179 1.256 . S
H192 C165 0.930 . S
H193 C166 0.931 . S
H194 C168 0.934 . S
H195 C169 0.930 . S
H196 C174 0.930 . S
H197 C175 0.931 . S
H198 C177 0.934 . S
H199 C178 0.930 1_554 S
Ho200 C203 2.811 . S
Ho200 O220 2.322 . S
Ho200 O222 2.378 . S
Ho200 O223 2.524 . S
Ho200 O224 2.381 . S
Ho200 O225 2.669 . S
Ho200 O227 2.346 . S
Ho200 O231 2.305 . S
Ho201 C212 2.811 . S
Ho201 O221 2.346 . S
Ho201 O225 2.305 . S
Ho201 O226 2.322 . S
Ho201 O228 2.378 . S
Ho201 O229 2.524 . S
Ho201 O230 2.381 . S
Ho201 O231 2.669 . S
C202 O220 1.259 . S
C202 O221 1.268 . S
C203 Ho200 2.811 . S
C203 C204 1.488 . S
C203 O222 1.215 . S
C203 O223 1.289 . S
C204 C203 1.488 . S
C204 C205 1.348 . S
C204 C209 1.413 . S
C205 C204 1.348 . S
C205 C206 1.442 . S
C205 H232 0.930 . S
C206 C205 1.442 . S
C206 C207 1.381 . S
C206 H233 0.931 . S
C207 C206 1.381 . S
C207 C208 1.321 . S
C208 C207 1.321 . S
C208 C209 1.403 . S
C208 H234 0.934 . S
C209 C204 1.413 . S
C209 C208 1.403 . S
C209 H235 0.930 . S
C210 O224 1.275 . S
C210 O225 1.256 . S
C211 O226 1.259 . S
C211 O227 1.268 . S
C212 Ho201 2.811 . S
C212 C213 1.488 1_556 S
C212 O228 1.215 . S
C212 O229 1.289 . S
C213 C212 1.488 1_554 S
C213 C214 1.348 . S
C213 C218 1.413 . S
C214 C213 1.348 . S
C214 C215 1.442 . S
C214 H236 0.930 . S
C215 C214 1.442 . S
C215 C216 1.381 . S
C215 H237 0.931 . S
C216 C215 1.381 . S
C216 C217 1.321 . S
C217 C216 1.321 . S
C217 C218 1.403 . S
C217 H238 0.934 . S
C218 C213 1.413 . S
C218 C217 1.403 . S
C218 H239 0.930 . S
C219 O230 1.275 . S
C219 O231 1.256 . S
O220 Ho200 2.322 . S
O220 C202 1.259 . S
O221 Ho201 2.346 . S
O221 C202 1.268 . S
O222 Ho200 2.378 . S
O222 C203 1.215 . S
O223 Ho200 2.524 . S
O223 C203 1.289 . S
O224 Ho200 2.381 . S
O224 C210 1.275 . S
O225 Ho200 2.669 . S
O225 Ho201 2.305 . S
O225 C210 1.256 . S
O226 Ho201 2.322 . S
O226 C211 1.259 . S
O227 Ho200 2.346 . S
O227 C211 1.268 . S
O228 Ho201 2.378 . S
O228 C212 1.215 . S
O229 Ho201 2.524 . S
O229 C212 1.289 . S
O230 Ho201 2.381 . S
O230 C219 1.275 . S
O231 Ho200 2.305 . S
O231 Ho201 2.669 . S
O231 C219 1.256 . S
H232 C205 0.930 . S
H233 C206 0.931 . S
H234 C208 0.934 . S
H235 C209 0.930 . S
H236 C214 0.930 . S
H237 C215 0.931 . S
H238 C217 0.934 . S
H239 C218 0.930 . S
Ho240 C243 2.811 . S
Ho240 O260 2.322 . S
Ho240 O262 2.378 . S
Ho240 O263 2.524 . S
Ho240 O264 2.381 . S
Ho240 O265 2.669 1_556 S
Ho240 O267 2.346 1_556 S
Ho240 O271 2.305 . S
Ho241 C252 2.811 . S
Ho241 O261 2.346 1_554 S
Ho241 O265 2.305 . S
Ho241 O266 2.322 . S
Ho241 O268 2.378 . S
Ho241 O269 2.524 . S
Ho241 O270 2.381 . S
Ho241 O271 2.669 1_554 S
C242 O260 1.259 . S
C242 O261 1.268 . S
C243 Ho240 2.811 . S
C243 C244 1.488 . S
C243 O262 1.215 . S
C243 O263 1.289 . S
C244 C243 1.488 . S
C244 C245 1.348 . S
C244 C249 1.413 . S
C245 C244 1.348 . S
C245 C246 1.442 . S
C245 H272 0.930 . S
C246 C245 1.442 . S
C246 C247 1.381 . S
C246 H273 0.931 . S
C247 C246 1.381 . S
C247 C248 1.321 . S
C248 C247 1.321 . S
C248 C249 1.403 . S
C248 H274 0.934 . S
C249 C244 1.413 . S
C249 C248 1.403 . S
C249 H275 0.930 . S
C250 O264 1.275 1_554 S
C250 O265 1.256 . S
C251 O266 1.259 . S
C251 O267 1.268 . S
C252 Ho241 2.811 . S
C252 C253 1.488 . S
C252 O268 1.215 . S
C252 O269 1.289 . S
C253 C252 1.488 . S
C253 C254 1.348 . S
C253 C258 1.413 . S
C254 C253 1.348 . S
C254 C255 1.442 . S
C254 H276 0.930 . S
C255 C254 1.442 . S
C255 C256 1.381 . S
C255 H277 0.931 . S
C256 C255 1.381 . S
C256 C257 1.321 . S
C257 C256 1.321 . S
C257 C258 1.403 . S
C257 H278 0.934 . S
C258 C253 1.413 . S
C258 C257 1.403 . S
C258 H279 0.930 . S
C259 O270 1.275 1_556 S
C259 O271 1.256 . S
O260 Ho240 2.322 . S
O260 C242 1.259 . S
O261 Ho241 2.346 1_556 S
O261 C242 1.268 . S
O262 Ho240 2.378 . S
O262 C243 1.215 . S
O263 Ho240 2.524 . S
O263 C243 1.289 . S
O264 Ho240 2.381 . S
O264 C250 1.275 1_556 S
O265 Ho240 2.669 1_554 S
O265 Ho241 2.305 . S
O265 C250 1.256 . S
O266 Ho241 2.322 . S
O266 C251 1.259 . S
O267 Ho240 2.346 1_554 S
O267 C251 1.268 . S
O268 Ho241 2.378 . S
O268 C252 1.215 . S
O269 Ho241 2.524 . S
O269 C252 1.289 . S
O270 Ho241 2.381 . S
O270 C259 1.275 1_554 S
O271 Ho240 2.305 . S
O271 Ho241 2.669 1_556 S
O271 C259 1.256 . S
H272 C245 0.930 . S
H273 C246 0.931 . S
H274 C248 0.934 . S
H275 C249 0.930 . S
H276 C254 0.930 . S
H277 C255 0.931 . S
H278 C257 0.934 . S
H279 C258 0.930 . S
Ho280 C283 2.811 1_455 S
Ho280 O300 2.322 1_455 S
Ho280 O302 2.378 1_455 S
Ho280 O303 2.524 . S
Ho280 O304 2.381 1_455 S
Ho280 O305 2.669 1_455 S
Ho280 O307 2.346 . S
Ho280 O311 2.305 . S
Ho281 C292 2.811 1_655 S
Ho281 O301 2.346 . S
Ho281 O305 2.305 . S
Ho281 O306 2.322 1_655 S
Ho281 O308 2.378 1_655 S
Ho281 O309 2.524 . S
Ho281 O310 2.381 1_655 S
Ho281 O311 2.669 1_655 S
C282 O300 1.259 . S
C282 O301 1.268 . S
C283 Ho280 2.811 1_655 S
C283 C284 1.488 . S
C283 O302 1.215 . S
C283 O303 1.289 1_655 S
C284 C283 1.488 . S
C284 C285 1.348 . S
C284 C289 1.413 . S
C285 C284 1.348 . S
C285 C286 1.442 . S
C285 H312 0.930 1_655 S
C286 C285 1.442 . S
C286 C287 1.381 . S
C286 H313 0.931 . S
C287 C286 1.381 . S
C287 C288 1.321 . S
C288 C287 1.321 . S
C288 C289 1.403 . S
C288 H314 0.934 . S
C289 C284 1.413 . S
C289 C288 1.403 . S
C289 H315 0.930 . S
C290 O304 1.275 . S
C290 O305 1.256 . S
C291 O306 1.259 . S
C291 O307 1.268 . S
C292 Ho281 2.811 1_455 S
C292 C293 1.488 . S
C292 O308 1.215 . S
C292 O309 1.289 1_455 S
C293 C292 1.488 . S
C293 C294 1.348 . S
C293 C298 1.413 . S
C294 C293 1.348 . S
C294 C295 1.442 . S
C294 H316 0.930 1_455 S
C295 C294 1.442 . S
C295 C296 1.381 . S
C295 H317 0.931 . S
C296 C295 1.381 . S
C296 C297 1.321 . S
C297 C296 1.321 . S
C297 C298 1.403 . S
C297 H318 0.934 . S
C298 C293 1.413 . S
C298 C297 1.403 . S
C298 H319 0.930 . S
C299 O310 1.275 . S
C299 O311 1.256 . S
O300 Ho280 2.322 1_655 S
O300 C282 1.259 . S
O301 Ho281 2.346 . S
O301 C282 1.268 . S
O302 Ho280 2.378 1_655 S
O302 C283 1.215 . S
O303 Ho280 2.524 . S
O303 C283 1.289 1_455 S
O304 Ho280 2.381 1_655 S
O304 C290 1.275 . S
O305 Ho280 2.669 1_655 S
O305 Ho281 2.305 . S
O305 C290 1.256 . S
O306 Ho281 2.322 1_455 S
O306 C291 1.259 . S
O307 Ho280 2.346 . S
O307 C291 1.268 . S
O308 Ho281 2.378 1_455 S
O308 C292 1.215 . S
O309 Ho281 2.524 . S
O309 C292 1.289 1_655 S
O310 Ho281 2.381 1_455 S
O310 C299 1.275 . S
O311 Ho280 2.305 . S
O311 Ho281 2.669 1_455 S
O311 C299 1.256 . S
H312 C285 0.930 1_455 S
H313 C286 0.931 . S
H314 C288 0.934 . S
H315 C289 0.930 . S
H316 C294 0.930 1_655 S
H317 C295 0.931 . S
H318 C297 0.934 . S
H319 C298 0.930 . S
C320 C321 1.387 . S
C320 H324 0.950 . S
C320 C329 1.390 . S
C321 C320 1.387 . S
C321 C323 1.387 . S
H322 C329 0.950 . S
C323 C321 1.387 . S
C323 C325 1.390 . S
C323 H327 0.950 . S
H324 C320 0.950 . S
C325 C323 1.390 . S
C325 C326 1.387 . S
C325 H328 0.950 . S
C326 C325 1.387 . S
C326 C329 1.387 . S
H327 C323 0.950 . S
H328 C325 0.950 . S
C329 C320 1.390 . S
C329 H322 0.950 . S
C329 C326 1.387 . S
C330 C331 1.387 . S
C330 H334 0.950 . S
C330 C339 1.390 . S
C331 C330 1.387 . S
C331 C333 1.387 . S
H332 C339 0.950 . S
C333 C331 1.387 . S
C333 C335 1.390 . S
C333 H337 0.950 . S
H334 C330 0.950 . S
C335 C333 1.390 . S
C335 C336 1.387 . S
C335 H338 0.950 . S
C336 C335 1.387 . S
C336 C339 1.387 . S
H337 C333 0.950 . S
H338 C335 0.950 . S
C339 C330 1.390 . S
C339 H332 0.950 . S
C339 C336 1.387 . S
C340 C341 1.387 . S
C340 H344 0.950 . S
C340 C349 1.390 . S
C341 C340 1.387 . S
C341 C343 1.387 . S
H342 C349 0.950 . S
C343 C341 1.387 . S
C343 C345 1.390 . S
C343 H347 0.950 . S
H344 C340 0.950 . S
C345 C343 1.390 . S
C345 C346 1.387 . S
C345 H348 0.950 . S
C346 C345 1.387 . S
C346 C349 1.387 . S
H347 C343 0.950 . S
H348 C345 0.950 . S
C349 C340 1.390 . S
C349 H342 0.950 . S
C349 C346 1.387 . S
C350 C351 1.387 . S
C350 H354 0.950 . S
C350 C359 1.390 . S
C351 C350 1.387 . S
C351 C353 1.387 . S
H352 C359 0.950 . S
C353 C351 1.387 . S
C353 C355 1.390 . S
C353 H357 0.950 . S
H354 C350 0.950 . S
C355 C353 1.390 . S
C355 C356 1.387 . S
C355 H358 0.950 . S
C356 C355 1.387 . S
C356 C359 1.387 . S
H357 C353 0.950 . S
H358 C355 0.950 . S
C359 C350 1.390 . S
C359 H352 0.950 . S
C359 C356 1.387 . S
C360 C361 1.387 . S
C360 H364 0.950 . S
C360 C369 1.390 . S
C361 C360 1.387 . S
C361 C363 1.387 . S
H362 C369 0.950 . S
C363 C361 1.387 . S
C363 C365 1.390 . S
C363 H367 0.950 . S
H364 C360 0.950 . S
C365 C363 1.390 . S
C365 C366 1.387 . S
C365 H368 0.950 . S
C366 C365 1.387 . S
C366 C369 1.387 . S
H367 C363 0.950 . S
H368 C365 0.950 . S
C369 C360 1.390 . S
C369 H362 0.950 . S
C369 C366 1.387 . S
C370 C371 1.387 . S
C370 H374 0.950 . S
C370 C379 1.390 . S
C371 C370 1.387 . S
C371 C373 1.387 . S
H372 C379 0.950 . S
C373 C371 1.387 . S
C373 C375 1.390 . S
C373 H377 0.950 . S
H374 C370 0.950 . S
C375 C373 1.390 . S
C375 C376 1.387 . S
C375 H378 0.950 . S
C376 C375 1.387 . S
C376 C379 1.387 . S
H377 C373 0.950 . S
H378 C375 0.950 . S
C379 C370 1.390 . S
C379 H372 0.950 . S
C379 C376 1.387 . S
C380 C381 1.387 . S
C380 H384 0.950 . S
C380 C389 1.390 . S
C381 C380 1.387 . S
C381 C383 1.387 . S
H382 C389 0.950 . S
C383 C381 1.387 . S
C383 C385 1.390 . S
C383 H387 0.950 . S
H384 C380 0.950 . S
C385 C383 1.390 . S
C385 C386 1.387 . S
C385 H388 0.950 . S
C386 C385 1.387 . S
C386 C389 1.387 . S
H387 C383 0.950 . S
H388 C385 0.950 . S
C389 C380 1.390 . S
C389 H382 0.950 . S
C389 C386 1.387 . S
C390 C391 1.387 . S
C390 H394 0.950 . S
C390 C399 1.390 . S
C391 C390 1.387 . S
C391 C393 1.387 . S
H392 C399 0.950 . S
C393 C391 1.387 . S
C393 C395 1.390 . S
C393 H397 0.950 . S
H394 C390 0.950 . S
C395 C393 1.390 . S
C395 C396 1.387 . S
C395 H398 0.950 . S
C396 C395 1.387 . S
C396 C399 1.387 . S
H397 C393 0.950 . S
H398 C395 0.950 . S
C399 C390 1.390 . S
C399 H392 0.950 . S
C399 C396 1.387 . S
C400 C401 1.387 . S
C400 H404 0.950 . S
C400 C409 1.390 . S
C401 C400 1.387 . S
C401 C403 1.387 . S
H402 C409 0.950 . S
C403 C401 1.387 . S
C403 C405 1.390 . S
C403 H407 0.950 . S
H404 C400 0.950 . S
C405 C403 1.390 . S
C405 C406 1.387 . S
C405 H408 0.950 . S
C406 C405 1.387 . S
C406 C409 1.387 . S
H407 C403 0.950 . S
H408 C405 0.950 . S
C409 C400 1.390 . S
C409 H402 0.950 . S
C409 C406 1.387 . S
C410 C411 1.387 . S
C410 H414 0.950 . S
C410 C419 1.390 . S
C411 C410 1.387 . S
C411 C413 1.387 . S
H412 C419 0.950 . S
C413 C411 1.387 . S
C413 C415 1.390 . S
C413 H417 0.950 . S
H414 C410 0.950 . S
C415 C413 1.390 . S
C415 C416 1.387 . S
C415 H418 0.950 . S
C416 C415 1.387 . S
C416 C419 1.387 . S
H417 C413 0.950 . S
H418 C415 0.950 . S
C419 C410 1.390 . S
C419 H412 0.950 . S
C419 C416 1.387 . S
C420 C421 1.387 . S
C420 H424 0.950 . S
C420 C429 1.390 . S
C421 C420 1.387 . S
C421 C423 1.387 . S
H422 C429 0.950 . S
C423 C421 1.387 . S
C423 C425 1.390 . S
C423 H427 0.950 . S
H424 C420 0.950 . S
C425 C423 1.390 . S
C425 C426 1.387 . S
C425 H428 0.950 . S
C426 C425 1.387 . S
C426 C429 1.387 . S
H427 C423 0.950 . S
H428 C425 0.950 . S
C429 C420 1.390 . S
C429 H422 0.950 . S
C429 C426 1.387 . S
C430 C431 1.387 . S
C430 H434 0.950 . S
C430 C439 1.390 . S
C431 C430 1.387 . S
C431 C433 1.387 . S
H432 C439 0.950 . S
C433 C431 1.387 . S
C433 C435 1.390 . S
C433 H437 0.950 . S
H434 C430 0.950 . S
C435 C433 1.390 . S
C435 C436 1.387 . S
C435 H438 0.950 . S
C436 C435 1.387 . S
C436 C439 1.387 . S
H437 C433 0.950 . S
H438 C435 0.950 . S
C439 C430 1.390 . S
C439 H432 0.950 . S
C439 C436 1.387 . S
C440 C441 1.387 . S
C440 H444 0.950 . S
C440 C449 1.390 . S
C441 C440 1.387 . S
C441 C443 1.387 . S
H442 C449 0.950 . S
C443 C441 1.387 . S
C443 C445 1.390 . S
C443 H447 0.950 . S
H444 C440 0.950 . S
C445 C443 1.390 . S
C445 C446 1.387 . S
C445 H448 0.950 . S
C446 C445 1.387 . S
C446 C449 1.387 . S
H447 C443 0.950 . S
H448 C445 0.950 . S
C449 C440 1.390 . S
C449 H442 0.950 . S
C449 C446 1.387 . S
C450 C451 1.387 . S
C450 H454 0.950 . S
C450 C459 1.390 . S
C451 C450 1.387 . S
C451 C453 1.387 . S
H452 C459 0.950 . S
C453 C451 1.387 . S
C453 C455 1.390 . S
C453 H457 0.950 . S
H454 C450 0.950 . S
C455 C453 1.390 . S
C455 C456 1.387 . S
C455 H458 0.950 . S
C456 C455 1.387 . S
C456 C459 1.387 . S
H457 C453 0.950 . S
H458 C455 0.950 . S
C459 C450 1.390 . S
C459 H452 0.950 . S
C459 C456 1.387 . S
C460 C461 1.387 . S
C460 H464 0.950 . S
C460 C469 1.390 . S
C461 C460 1.387 . S
C461 C463 1.387 . S
H462 C469 0.950 . S
C463 C461 1.387 . S
C463 C465 1.390 . S
C463 H467 0.950 . S
H464 C460 0.950 . S
C465 C463 1.390 . S
C465 C466 1.387 . S
C465 H468 0.950 . S
C466 C465 1.387 . S
C466 C469 1.387 . S
H467 C463 0.950 . S
H468 C465 0.950 . S
C469 C460 1.390 . S
C469 H462 0.950 . S
C469 C466 1.387 . S
C470 C471 1.387 . S
C470 H474 0.950 . S
C470 C479 1.390 . S
C471 C470 1.387 . S
C471 C473 1.387 . S
H472 C479 0.950 . S
C473 C471 1.387 . S
C473 C475 1.390 . S
C473 H477 0.950 . S
H474 C470 0.950 . S
C475 C473 1.390 . S
C475 C476 1.387 . S
C475 H478 0.950 . S
C476 C475 1.387 . S
C476 C479 1.387 . S
H477 C473 0.950 . S
H478 C475 0.950 . S
C479 C470 1.390 . S
C479 H472 0.950 . S
C479 C476 1.387 . S
C480 C481 1.387 . S
C480 H484 0.950 . S
C480 C489 1.390 1_656 S
C481 C480 1.387 . S
C481 C483 1.387 1_545 S
H482 C489 0.950 . S
C483 C481 1.387 1_565 S
C483 C485 1.390 1_656 S
C483 H487 0.950 . S
H484 C480 0.950 . S
C485 C483 1.390 1_454 S
C485 C486 1.387 . S
C485 H488 0.950 . S
C486 C485 1.387 . S
C486 C489 1.387 1_565 S
H487 C483 0.950 . S
H488 C485 0.950 . S
C489 C480 1.390 1_454 S
C489 H482 0.950 . S
C489 C486 1.387 1_545 S
C490 C491 1.387 . S
C490 H494 0.950 . S
C490 C499 1.390 . S
C491 C490 1.387 . S
C491 C493 1.387 . S
H492 C499 0.950 . S
C493 C491 1.387 . S
C493 C495 1.390 . S
C493 H497 0.950 . S
H494 C490 0.950 . S
C495 C493 1.390 . S
C495 C496 1.387 . S
C495 H498 0.950 . S
C496 C495 1.387 . S
C496 C499 1.387 . S
H497 C493 0.950 . S
H498 C495 0.950 . S
C499 C490 1.390 . S
C499 H492 0.950 . S
C499 C496 1.387 . S
C500 C501 1.387 . S
C500 H504 0.950 . S
C500 C509 1.390 . S
C501 C500 1.387 . S
C501 C503 1.387 1_545 S
H502 C509 0.950 . S
C503 C501 1.387 1_565 S
C503 C505 1.390 . S
C503 H507 0.950 . S
H504 C500 0.950 . S
C505 C503 1.390 . S
C505 C506 1.387 . S
C505 H508 0.950 . S
C506 C505 1.387 . S
C506 C509 1.387 1_565 S
H507 C503 0.950 . S
H508 C505 0.950 . S
C509 C500 1.390 . S
C509 H502 0.950 . S
C509 C506 1.387 1_545 S
C510 C511 1.387 . S
C510 H514 0.950 . S
C510 C519 1.390 . S
C511 C510 1.387 . S
C511 C513 1.387 . S
H512 C519 0.950 . S
C513 C511 1.387 . S
C513 C515 1.390 . S
C513 H517 0.950 . S
H514 C510 0.950 . S
C515 C513 1.390 . S
C515 C516 1.387 . S
C515 H518 0.950 . S
C516 C515 1.387 . S
C516 C519 1.387 . S
H517 C513 0.950 . S
H518 C515 0.950 . S
C519 C510 1.390 . S
C519 H512 0.950 . S
C519 C516 1.387 . S
C520 C521 1.387 . S
C520 H524 0.950 . S
C520 C529 1.390 . S
C521 C520 1.387 . S
C521 C523 1.387 . S
H522 C529 0.950 . S
C523 C521 1.387 . S
C523 C525 1.390 . S
C523 H527 0.950 . S
H524 C520 0.950 . S
C525 C523 1.390 . S
C525 C526 1.387 . S
C525 H528 0.950 . S
C526 C525 1.387 . S
C526 C529 1.387 . S
H527 C523 0.950 . S
H528 C525 0.950 . S
C529 C520 1.390 . S
C529 H522 0.950 . S
C529 C526 1.387 . S
C530 C531 1.387 . S
C530 H534 0.950 . S
C530 C539 1.390 . S
C531 C530 1.387 . S
C531 C533 1.387 . S
H532 C539 0.950 . S
C533 C531 1.387 . S
C533 C535 1.390 . S
C533 H537 0.950 . S
H534 C530 0.950 . S
C535 C533 1.390 . S
C535 C536 1.387 . S
C535 H538 0.950 . S
C536 C535 1.387 . S
C536 C539 1.387 . S
H537 C533 0.950 . S
H538 C535 0.950 . S
C539 C530 1.390 . S
C539 H532 0.950 . S
C539 C536 1.387 . S
C540 C541 1.387 . S
C540 H544 0.950 . S
C540 C549 1.390 . S
C541 C540 1.387 . S
C541 C543 1.387 . S
H542 C549 0.950 . S
C543 C541 1.387 . S
C543 C545 1.390 . S
C543 H547 0.950 . S
H544 C540 0.950 . S
C545 C543 1.390 . S
C545 C546 1.387 . S
C545 H548 0.950 . S
C546 C545 1.387 . S
C546 C549 1.387 . S
H547 C543 0.950 . S
H548 C545 0.950 . S
C549 C540 1.390 . S
C549 H542 0.950 . S
C549 C546 1.387 . S
C550 C551 1.387 1_455 S
C550 H554 0.950 . S
C550 C559 1.390 . S
C551 C550 1.387 1_655 S
C551 C553 1.387 1_556 S
H552 C559 0.950 . S
C553 C551 1.387 1_554 S
C553 C555 1.390 . S
C553 H557 0.950 . S
H554 C550 0.950 . S
C555 C553 1.390 . S
C555 C556 1.387 1_655 S
C555 H558 0.950 . S
C556 C555 1.387 1_455 S
C556 C559 1.387 1_554 S
H557 C553 0.950 . S
H558 C555 0.950 . S
C559 C550 1.390 . S
C559 H552 0.950 . S
C559 C556 1.387 1_556 S
C321 C2 1.567 . S
C326 C130 1.550 . S
C331 C10 1.043 . S
C336 C50 1.045 . S
C341 C42 1.566 . S
C346 C90 1.554 . S
C351 C82 1.979 . S
C356 C122 1.977 . S
C361 C11 1.566 . S
C366 C219 1.554 . S
C371 C19 1.044 . S
C376 C179 1.043 . S
C381 C171 1.566 . S
C386 C99 1.549 . S
C391 C211 1.979 . S
C396 C91 1.981 . S
C401 C242 1.566 . S
C406 C210 1.552 . S
C411 C170 1.043 . S
C416 C250 1.044 . S
C421 C290 1.553 . S
C426 C162 1.567 . S
C431 C202 1.979 . S
C436 C282 1.980 . S
C441 C139 1.552 . S
C446 C251 1.566 . S
C451 C259 1.044 . S
C456 C59 1.045 . S
C461 C51 1.566 . S
C466 C299 1.552 . S
C471 C131 1.979 . S
C476 C291 1.978 . S
C481 C16 1.520 . S
C486 C7 1.520 . S
C491 C56 1.520 . S
C496 C47 1.520 . S
C501 C96 1.912 . S
C506 C87 1.912 . S
C511 C127 1.914 . S
C516 C136 1.914 . S
C521 C176 1.523 . S
C526 C167 1.523 . S
C531 C207 1.915 . S
C536 C216 1.915 . S
C541 C247 1.520 . S
C546 C256 1.520 . S
C551 C287 1.914 . S
C556 C296 1.914 . S
