# Generated by pormake.
# Topology ske, (6)-cn, num edge types: 1
# Building blocks:
#     Node 0, Type 0, BuildingBlock: JUFBIX_clean_sbu_0, # of connection points: 6
#     Node 1, Type 0, BuildingBlock: JUFBIX_clean_sbu_0, # of connection points: 6
#     Node 2, Type 0, BuildingBlock: JUFBIX_clean_sbu_0, # of connection points: 6
#     Node 3, Type 0, BuildingBlock: JUFBIX_clean_sbu_0, # of connection points: 6
#     Node 4, Type 0, BuildingBlock: JUFBIX_clean_sbu_0, # of connection points: 6
#     Node 5, Type 0, BuildingBlock: JUFBIX_clean_sbu_0, # of connection points: 6
#     Node 6, Type 0, BuildingBlock: JUFBIX_clean_sbu_0, # of connection points: 6
#     Node 7, Type 0, BuildingBlock: JUFBIX_clean_sbu_0, # of connection points: 6
#     Edge 8, Type (0, 0), BuildingBlock: UVAHIK_clean_linker_0, # of connection points: 2
#     Edge 9, Type (0, 0), BuildingBlock: UVAHIK_clean_linker_0, # of connection points: 2
#     Edge 10, Type (0, 0), BuildingBlock: UVAHIK_clean_linker_0, # of connection points: 2
#     Edge 11, Type (0, 0), BuildingBlock: UVAHIK_clean_linker_0, # of connection points: 2
#     Edge 12, Type (0, 0), BuildingBlock: UVAHIK_clean_linker_0, # of connection points: 2
#     Edge 13, Type (0, 0), BuildingBlock: UVAHIK_clean_linker_0, # of connection points: 2
#     Edge 14, Type (0, 0), BuildingBlock: UVAHIK_clean_linker_0, # of connection points: 2
#     Edge 15, Type (0, 0), BuildingBlock: UVAHIK_clean_linker_0, # of connection points: 2
#     Edge 16, Type (0, 0), BuildingBlock: UVAHIK_clean_linker_0, # of connection points: 2
#     Edge 17, Type (0, 0), BuildingBlock: UVAHIK_clean_linker_0, # of connection points: 2
#     Edge 18, Type (0, 0), BuildingBlock: UVAHIK_clean_linker_0, # of connection points: 2
#     Edge 19, Type (0, 0), BuildingBlock: UVAHIK_clean_linker_0, # of connection points: 2
#     Edge 20, Type (0, 0), BuildingBlock: UVAHIK_clean_linker_0, # of connection points: 2
#     Edge 21, Type (0, 0), BuildingBlock: UVAHIK_clean_linker_0, # of connection points: 2
#     Edge 22, Type (0, 0), BuildingBlock: UVAHIK_clean_linker_0, # of connection points: 2
#     Edge 23, Type (0, 0), BuildingBlock: UVAHIK_clean_linker_0, # of connection points: 2
#     Edge 24, Type (0, 0), BuildingBlock: UVAHIK_clean_linker_0, # of connection points: 2
#     Edge 25, Type (0, 0), BuildingBlock: UVAHIK_clean_linker_0, # of connection points: 2
#     Edge 26, Type (0, 0), BuildingBlock: UVAHIK_clean_linker_0, # of connection points: 2
#     Edge 27, Type (0, 0), BuildingBlock: UVAHIK_clean_linker_0, # of connection points: 2
#     Edge 28, Type (0, 0), BuildingBlock: UVAHIK_clean_linker_0, # of connection points: 2
#     Edge 29, Type (0, 0), BuildingBlock: UVAHIK_clean_linker_0, # of connection points: 2
#     Edge 30, Type (0, 0), BuildingBlock: UVAHIK_clean_linker_0, # of connection points: 2
#     Edge 31, Type (0, 0), BuildingBlock: UVAHIK_clean_linker_0, # of connection points: 2
# Relax obj value: 0.196
# Max RMSD: 0.143
# Mean RMSD: 0.135
data_MOF--net-ske--node1-JUFBIX_clean_sbu_0--edge1-UVAHIK_clean_linker_0
_symmetry_space_group_name_H-M    P1
_symmetry_Int_Tables_number       1
_symmetry_cell_setting            triclinic
loop_
_symmetry_equiv_pos_as_xyz
'x, y, z'
_cell_length_a     84.487022
_cell_length_b     38.269634
_cell_length_c     19.975251
_cell_angle_alpha  89.705505
_cell_angle_beta   91.717967
_cell_angle_gamma 92.810628
loop_
_atom_site_label
_atom_site_type_symbol
_atom_site_fract_x
_atom_site_fract_y
_atom_site_fract_z
_atom_type_partial_charge
Co0 Co 0.1517 0.24995 0.69885 0.0
C1 C 0.15675 0.31765 0.65205 0.0
Co2 Co 0.15882 0.25269 0.59427 0.0
C3 C 0.1492 0.21966 0.82608 0.0
C4 C 0.13162 0.25752 0.81171 0.0
N5 N 0.14483 0.2457 0.78518 0.0
N6 N 0.13883 0.21311 0.87494 0.0
C7 C 0.1279 0.23747 0.86714 0.0
H8 H 0.15919 0.20396 0.81657 0.0
H9 H 0.12431 0.2769 0.78853 0.0
C10 C 0.15327 0.18473 0.63818 0.0
N11 N 0.16551 0.25401 0.50755 0.0
C12 C 0.15906 0.23261 0.45996 0.0
C13 C 0.17966 0.26541 0.48388 0.0
N14 N 0.16883 0.22866 0.40907 0.0
C15 C 0.1818 0.24946 0.42325 0.0
C16 C 0.18426 0.25015 0.68827 0.0
O17 O 0.15067 0.19973 0.69283 0.0
O18 O 0.15729 0.20341 0.58866 0.0
O19 O 0.1805 0.25088 0.62617 0.0
O20 O 0.17328 0.24983 0.7304 0.0
O21 O 0.16036 0.30174 0.59935 0.0
H22 H 0.18849 0.28122 0.51186 0.0
H23 H 0.14827 0.21666 0.4666 0.0
O24 O 0.1524 0.30009 0.70334 0.0
O25 O 0.13042 0.25001 0.668 0.0
O26 O 0.13684 0.25441 0.56309 0.0
C27 C 0.12617 0.25217 0.60682 0.0
H28 H 0.11731 0.23902 0.89592 0.0
H29 H 0.19246 0.25106 0.3944 0.0
Co30 Co 0.91089 0.26517 0.56824 0.0
C31 C 0.89403 0.32687 0.5657 0.0
Co32 Co 0.88469 0.25742 0.56639 0.0
C33 C 0.94523 0.25864 0.54794 0.0
C34 C 0.93958 0.29904 0.61581 0.0
N35 N 0.93283 0.27441 0.57448 0.0
N36 N 0.95933 0.27243 0.57209 0.0
C37 C 0.95575 0.29778 0.61466 0.0
H38 H 0.94396 0.23655 0.51423 0.0
H39 H 0.93312 0.31614 0.64682 0.0
C40 C 0.90105 0.19567 0.56575 0.0
N41 N 0.86277 0.24867 0.56341 0.0
C42 C 0.85209 0.25824 0.6082 0.0
C43 C 0.85425 0.22876 0.51854 0.0
N44 N 0.83728 0.24478 0.59354 0.0
C45 C 0.83865 0.22635 0.53679 0.0
C46 C 0.89813 0.26197 0.4366 0.0
O47 O 0.91354 0.21576 0.56649 0.0
O48 O 0.88756 0.20887 0.56707 0.0
O49 O 0.88521 0.25771 0.4682 0.0
O50 O 0.9111 0.26612 0.47088 0.0
O51 O 0.88189 0.30596 0.5651 0.0
H52 H 0.85915 0.216 0.47617 0.0
H53 H 0.85526 0.27373 0.65216 0.0
O54 O 0.90775 0.31451 0.56829 0.0
O55 O 0.91044 0.26401 0.66646 0.0
O56 O 0.88462 0.25726 0.66393 0.0
C57 C 0.89757 0.26055 0.69821 0.0
H58 H 0.96428 0.31374 0.64407 0.0
H59 H 0.8291 0.21182 0.51042 0.0
Co60 Co 0.15078 0.75228 0.51938 0.0
C61 C 0.13531 0.81544 0.51939 0.0
Co62 Co 0.12453 0.74679 0.51743 0.0
C63 C 0.18319 0.74902 0.47761 0.0
C64 C 0.18159 0.77938 0.56654 0.0
N65 N 0.17276 0.75965 0.52241 0.0
N66 N 0.19818 0.76157 0.49155 0.0
C67 C 0.19717 0.78055 0.54786 0.0
H68 H 0.17979 0.73275 0.43494 0.0
H69 H 0.17692 0.79304 0.60832 0.0
C70 C 0.14052 0.68371 0.52176 0.0
N71 N 0.1025 0.73857 0.51062 0.0
C72 C 0.08996 0.75514 0.53418 0.0
C73 C 0.09593 0.71287 0.4713 0.0
N74 N 0.07596 0.74075 0.51001 0.0
C75 C 0.07978 0.71412 0.47087 0.0
C76 C 0.13797 0.74975 0.38751 0.0
O77 O 0.15298 0.70353 0.51947 0.0
O78 O 0.12707 0.69726 0.52076 0.0
O79 O 0.1251 0.74652 0.41923 0.0
O80 O 0.1509 0.75298 0.42185 0.0
O81 O 0.12251 0.79638 0.51615 0.0
H82 H 0.1025 0.69481 0.44284 0.0
H83 H 0.09108 0.77801 0.56598 0.0
O84 O 0.14854 0.80098 0.52011 0.0
O85 O 0.15023 0.75153 0.61755 0.0
O86 O 0.12421 0.74722 0.61479 0.0
C87 C 0.13725 0.74939 0.6491 0.0
H88 H 0.20687 0.79547 0.57241 0.0
H89 H 0.07143 0.69698 0.44299 0.0
Co90 Co 0.87585 0.76447 0.49797 0.0
C91 C 0.88091 0.82898 0.43543 0.0
Co92 Co 0.88264 0.76041 0.39343 0.0
C93 C 0.87576 0.79657 0.62326 0.0
C94 C 0.85576 0.76036 0.6126 0.0
N95 N 0.86953 0.77053 0.58428 0.0
N96 N 0.86613 0.80461 0.67277 0.0
C97 C 0.85364 0.78131 0.66729 0.0
H98 H 0.88663 0.81114 0.61189 0.0
H99 H 0.84715 0.74139 0.59135 0.0
C100 C 0.87801 0.69621 0.4586 0.0
N101 N 0.88908 0.75724 0.30671 0.0
C102 C 0.88459 0.77952 0.25838 0.0
C103 C 0.90198 0.74243 0.2833 0.0
N104 N 0.89455 0.7807 0.20718 0.0
C105 C 0.90549 0.7572 0.22203 0.0
C106 C 0.90847 0.76401 0.48401 0.0
O107 O 0.87519 0.71548 0.50816 0.0
O108 O 0.88117 0.71044 0.40234 0.0
O109 O 0.90397 0.76079 0.4232 0.0
O110 O 0.89801 0.76657 0.52806 0.0
O111 O 0.88446 0.81074 0.38583 0.0
H112 H 0.90929 0.72491 0.31179 0.0
H113 H 0.87534 0.79776 0.2644 0.0
O114 O 0.87646 0.8135 0.48803 0.0
O115 O 0.85401 0.76231 0.46729 0.0
O116 O 0.86097 0.75999 0.36294 0.0
C117 C 0.85008 0.76074 0.40537 0.0
H118 H 0.8432 0.78096 0.6974 0.0
H119 H 0.91585 0.75286 0.19311 0.0
Co120 Co 0.65203 0.75188 0.194 0.0
C121 C 0.65727 0.81738 0.13439 0.0
Co122 Co 0.65938 0.75006 0.08977 0.0
C123 C 0.65011 0.73053 0.32774 0.0
C124 C 0.63223 0.76678 0.30482 0.0
N125 N 0.64532 0.75314 0.28054 0.0
N126 N 0.64023 0.72817 0.37915 0.0
C127 C 0.62896 0.75109 0.36556 0.0
H128 H 0.65963 0.71308 0.32088 0.0
H129 H 0.62472 0.78434 0.27742 0.0
C130 C 0.65381 0.68424 0.14702 0.0
N131 N 0.66602 0.74575 1.00342 0.0
C132 C 0.65995 0.72033 0.96265 0.0
C133 C 0.68007 0.75584 0.97729 0.0
N134 N 0.66996 0.71238 0.91454 0.0
C135 C 0.68252 0.7353 0.92235 0.0
C136 C 0.68472 0.75149 0.18405 0.0
O137 O 0.65034 0.70146 0.19808 0.0
O138 O 0.65828 0.70079 0.09561 0.0
O139 O 0.68105 0.75061 0.12188 0.0
O140 O 0.67366 0.75207 0.22572 0.0
O141 O 0.66061 0.79929 0.08393 0.0
H142 H 0.68867 0.77417 1.0006 0.0
H143 H 0.64894 0.70577 0.97216 0.0
O144 O 0.65332 0.80198 0.18862 0.0
O145 O 0.63082 0.75179 0.16305 0.0
O146 O 0.63731 0.74956 0.05815 0.0
C147 C 0.62662 0.75068 0.10165 0.0
H148 H 0.61864 0.75462 0.39518 0.0
H149 H 0.69325 0.73536 0.89409 0.0
Co150 Co 0.41061 0.76274 0.06917 0.0
C151 C 0.39338 0.82415 0.06606 0.0
Co152 Co 0.38443 0.75463 0.06731 0.0
C153 C 0.44534 0.75735 0.0519 0.0
C154 C 0.43873 0.79891 0.11515 0.0
N155 N 0.43253 0.77284 0.07576 0.0
N156 N 0.45915 0.77277 0.07588 0.0
C157 C 0.45491 0.79897 0.1152 0.0
H158 H 0.44456 0.73452 1.01999 0.0
H159 H 0.43189 0.81631 0.14392 0.0
C160 C 0.40113 0.69318 0.06718 0.0
N161 N 0.36256 0.74537 0.06469 0.0
C162 C 0.35197 0.75559 0.10922 0.0
C163 C 0.35398 0.72481 1.02108 0.0
N164 N 0.33715 0.74202 0.09561 0.0
C165 C 0.3384 0.72276 1.0398 0.0
C166 C 0.39785 0.75915 0.93754 0.0
O167 O 0.41356 0.71345 0.06788 0.0
O168 O 0.38759 0.70618 0.06829 0.0
O169 O 0.38493 0.75477 0.96914 0.0
O170 O 0.41083 0.76348 0.9718 0.0
O171 O 0.38132 0.80306 0.06571 0.0
H172 H 0.35884 0.71129 0.97953 0.0
H173 H 0.35515 0.77241 0.15137 0.0
O174 O 0.40713 0.81198 0.06861 0.0
O175 O 0.41016 0.76179 0.1674 0.0
O176 O 0.38437 0.7546 0.16485 0.0
C177 C 0.3973 0.75814 0.19914 0.0
H178 H 0.463 0.81676 0.14294 0.0
H179 H 0.32887 0.70715 1.01559 0.0
Co180 Co 0.65062 0.25484 1.01418 0.0
C181 C 0.63424 0.31687 1.01427 0.0
Co182 Co 0.6244 0.24761 1.0131 0.0
C183 C 0.68324 0.25404 0.97268 0.0
C184 C 0.68104 0.28355 0.0623 0.0
N185 N 0.67255 0.26364 1.01737 0.0
N186 N 0.69804 0.26748 0.98746 0.0
C187 C 0.69666 0.28593 0.04418 0.0
H188 H 0.68009 0.23854 0.92872 0.0
H189 H 0.67613 0.2963 0.10462 0.0
C190 C 0.64123 0.18563 1.01639 0.0
N191 N 0.60245 0.23806 1.00632 0.0
C192 C 0.58972 0.25394 1.02992 0.0
C193 C 0.59615 0.21203 0.96712 0.0
N194 N 0.57585 0.23879 1.00594 0.0
C195 C 0.57997 0.21237 0.96689 0.0
C196 C 0.63778 0.25159 0.88275 0.0
O197 O 0.65347 0.20619 1.01479 0.0
O198 O 0.6276 0.19834 1.01534 0.0
O199 O 0.62495 0.24792 0.9147 0.0
O200 O 0.65074 0.25524 0.91683 0.0
O201 O 0.62171 0.29694 1.01309 0.0
H202 H 0.60292 0.19435 0.93865 0.0
H203 H 0.5906 0.27683 0.06166 0.0
O204 O 0.64772 0.30349 1.01386 0.0
O205 O 0.65005 0.25434 0.11256 0.0
O206 O 0.62409 0.2475 0.11025 0.0
C207 C 0.63712 0.25092 0.14434 0.0
H208 H 0.70619 0.30045 0.07062 0.0
H209 H 0.57181 0.1947 0.93927 0.0
Co210 Co 0.37564 0.26203 0.99941 0.0
C211 C 0.38083 0.3265 0.93686 0.0
Co212 Co 0.38236 0.25787 0.89481 0.0
C213 C 0.37576 0.29414 0.12471 0.0
C214 C 0.35563 0.25831 0.11434 0.0
N215 N 0.36941 0.2682 0.08582 0.0
N216 N 0.36622 0.30239 0.17438 0.0
C217 C 0.35364 0.27932 0.16907 0.0
H218 H 0.38668 0.30852 0.11316 0.0
H219 H 0.34693 0.23949 0.09322 0.0
C220 C 0.37759 0.19371 0.96004 0.0
N221 N 0.38873 0.25458 0.80801 0.0
C222 C 0.38437 0.27704 0.75977 0.0
C223 C 0.40153 0.2394 0.78449 0.0
N224 N 0.39432 0.27797 0.70855 0.0
C225 C 0.40511 0.25412 0.72327 0.0
C226 C 0.40825 0.26111 0.98506 0.0
O227 O 0.37488 0.21302 1.00967 0.0
O228 O 0.38072 0.20789 0.90372 0.0
O229 O 0.4037 0.25789 0.92432 0.0
O230 O 0.39782 0.26392 1.02921 0.0
O231 O 0.38433 0.30822 0.88724 0.0
H232 H 0.40873 0.22164 0.81289 0.0
H233 H 0.37523 0.29555 0.76588 0.0
O234 O 0.37634 0.31105 0.98942 0.0
O235 O 0.35377 0.26006 0.96899 0.0
O236 O 0.36068 0.2578 0.86454 0.0
C237 C 0.34982 0.25858 0.90709 0.0
H238 H 0.34323 0.27916 0.19933 0.0
H239 H 0.41542 0.2495 0.69429 0.0
C240 C 0.20547 0.24993 0.77975 0.0
C241 C 0.20122 0.25016 0.71109 0.0
C242 C 0.22144 0.25052 0.80115 0.0
C243 C 0.26179 0.23302 0.74355 0.0
H244 H 0.2758 0.28979 0.89625 0.0
C245 C 0.32842 0.25692 0.8164 0.0
C246 C 0.3328 0.25763 0.88492 0.0
C247 C 0.31241 0.25587 0.79552 0.0
C248 C 0.27209 0.27343 0.85402 0.0
H249 H 0.2106 0.25112 0.61115 0.0
H250 H 0.23838 0.25238 0.64838 0.0
H251 H 0.24799 0.28796 0.85963 0.0
H252 H 0.32363 0.25774 0.98517 0.0
H253 H 0.29578 0.25552 0.94888 0.0
H254 H 0.28587 0.21845 0.73795 0.0
C255 C 0.22936 0.25134 0.68583 0.0
C256 C 0.25609 0.27239 0.83295 0.0
C257 C 0.21339 0.25081 0.66443 0.0
C258 C 0.32073 0.25733 0.93199 0.0
C259 C 0.30471 0.25626 0.9111 0.0
C260 C 0.27778 0.23403 0.76466 0.0
C261 C 0.23363 0.25129 0.75452 0.0
C262 C 0.2507 0.2522 0.77733 0.0
C263 C 0.3003 0.25549 0.84253 0.0
C264 C 0.28319 0.25429 0.82017 0.0
H265 H 0.19644 0.24933 0.81716 0.0
H266 H 0.22422 0.24998 0.85441 0.0
H267 H 0.25807 0.21673 0.70122 0.0
H268 H 0.33737 0.25727 0.77867 0.0
H269 H 0.30954 0.25583 0.74232 0.0
C270 C 0.72462 0.29039 0.95355 0.0
C271 C 0.71212 0.26474 0.94854 0.0
C272 C 0.73813 0.28816 0.9152 0.0
C273 C 0.76073 0.22579 0.81884 0.0
H274 H 0.77964 0.31017 0.74024 0.0
C275 C 0.81073 0.22182 0.62763 0.0
C276 C 0.82322 0.24749 0.63258 0.0
C277 C 0.79723 0.22402 0.66605 0.0
C278 C 0.77464 0.2864 0.76245 0.0
H279 H 0.70428 0.2163 0.89928 0.0
H280 H 0.7277 0.21271 0.83166 0.0
H281 H 0.75607 0.31358 0.80695 0.0
H282 H 0.83107 0.29593 0.68183 0.0
H283 H 0.80766 0.29948 0.74957 0.0
H284 H 0.7793 0.1986 0.77434 0.0
C285 C 0.7271 0.23445 0.86583 0.0
C286 C 0.76109 0.28834 0.80076 0.0
C287 C 0.71356 0.2367 0.90416 0.0
C288 C 0.82179 0.27551 0.67699 0.0
C289 C 0.80826 0.27775 0.71539 0.0
C290 C 0.77428 0.22384 0.78053 0.0
C291 C 0.73955 0.26022 0.87069 0.0
C292 C 0.75395 0.25807 0.82952 0.0
C293 C 0.79581 0.25197 0.71057 0.0
C294 C 0.78142 0.25412 0.75177 0.0
H295 H 0.72393 0.31259 0.98642 0.0
H296 H 0.74753 0.30828 0.92093 0.0
H297 H 0.75573 0.20201 0.84104 0.0
H298 H 0.81142 0.19962 0.59475 0.0
H299 H 0.78783 0.2039 0.66035 0.0
C300 C 0.32452 0.7523 0.20396 0.0
C301 C 0.32317 0.7452 0.1349 0.0
C302 C 0.31099 0.75407 0.24239 0.0
C303 C 0.26765 0.76603 0.22913 0.0
H304 H 0.26764 0.72399 0.40614 0.0
C305 C 0.21066 0.75101 0.38292 0.0
C306 C 0.21209 0.75791 0.45204 0.0
C307 C 0.22414 0.74892 0.34429 0.0
C308 C 0.26748 0.73621 0.35712 0.0
H309 H 0.30639 0.73512 0.05221 0.0
H310 H 0.28284 0.73772 0.11922 0.0
H311 H 0.2912 0.72219 0.33898 0.0
H312 H 0.22899 0.76721 0.53462 0.0
H313 H 0.25243 0.76418 0.46729 0.0
H314 H 0.24394 0.78012 0.2473 0.0
C315 C 0.29438 0.74217 0.14365 0.0
C316 C 0.28102 0.7352 0.31856 0.0
C317 C 0.30791 0.74031 0.10526 0.0
C318 C 0.22739 0.76222 0.48153 0.0
C319 C 0.24087 0.76009 0.44294 0.0
C320 C 0.25411 0.76707 0.26771 0.0
C321 C 0.29573 0.74887 0.21283 0.0
C322 C 0.2813 0.75011 0.25404 0.0
C323 C 0.23944 0.75362 0.37369 0.0
C324 C 0.25383 0.75219 0.33228 0.0
H325 H 0.33603 0.75584 0.22881 0.0
H326 H 0.31249 0.75969 0.29534 0.0
H327 H 0.2675 0.77824 0.1801 0.0
H328 H 0.19911 0.74789 0.35814 0.0
H329 H 0.22256 0.74348 0.2913 0.0
C330 C 0.70581 0.75289 0.2761 0.0
C331 C 0.70165 0.75202 0.20737 0.0
C332 C 0.72177 0.75363 0.29787 0.0
C333 C 0.76209 0.73453 0.24197 0.0
H334 H 0.77621 0.79293 0.39229 0.0
C335 C 0.82873 0.75849 0.31453 0.0
C336 C 0.83308 0.75972 0.38306 0.0
C337 C 0.81273 0.75743 0.29352 0.0
C338 C 0.77246 0.77613 0.35073 0.0
H339 H 0.71113 0.75127 0.1077 0.0
H340 H 0.73886 0.75285 0.14552 0.0
H341 H 0.74842 0.79116 0.35528 0.0
H342 H 0.82388 0.76077 0.48319 0.0
H343 H 0.79603 0.75858 0.44666 0.0
H344 H 0.78613 0.7195 0.23738 0.0
C345 C 0.72981 0.75252 0.18279 0.0
C346 C 0.75648 0.77512 0.32944 0.0
C347 C 0.71387 0.75182 0.16103 0.0
C348 C 0.82099 0.75993 0.43 0.0
C349 C 0.80499 0.75888 0.40898 0.0
C350 C 0.77807 0.73554 0.26326 0.0
C351 C 0.73401 0.75346 0.25153 0.0
C352 C 0.75105 0.75434 0.27467 0.0
C353 C 0.80061 0.75759 0.34041 0.0
C354 C 0.78351 0.7564 0.3179 0.0
H355 H 0.69674 0.75295 0.31327 0.0
H356 H 0.72449 0.75387 0.35119 0.0
H357 H 0.75835 0.71776 0.20035 0.0
H358 H 0.83769 0.75843 0.2769 0.0
H359 H 0.80987 0.75696 0.24031 0.0
C360 C 0.14968 0.87294 0.5404 0.0
C361 C 0.13523 0.85385 0.52821 0.0
C362 C 0.14994 0.90849 0.55505 0.0
C363 C 0.12846 0.98788 0.53491 0.0
H364 H 0.15552 0.0204 0.68467 0.0
C365 C 0.15087 0.13152 0.56603 0.0
C366 C 0.15056 0.14648 0.63013 0.0
C367 C 0.1474 0.09581 0.5569 0.0
C368 C 0.14779 0.01171 0.64319 0.0
H369 H 0.10971 0.85756 0.51992 0.0
H370 H 0.11025 0.9205 0.54435 0.0
H371 H 0.15204 0.9578 0.66197 0.0
H372 H 0.14649 0.13557 0.73501 0.0
H373 H 0.14072 0.07276 0.7191 0.0
H374 H 0.12452 0.04194 0.5152 0.0
C375 C 0.12133 0.90747 0.543 0.0
C376 C 0.14588 0.97594 0.62989 0.0
C377 C 0.12103 0.87154 0.52899 0.0
C378 C 0.14689 0.12479 0.6851 0.0
C379 C 0.14358 0.08889 0.676 0.0
C380 C 0.1305 0.02375 0.54778 0.0
C381 C 0.1358 0.92607 0.55736 0.0
C382 C 0.13642 0.96371 0.57498 0.0
C383 C 0.14368 0.07412 0.61167 0.0
C384 C 0.14039 0.03604 0.60144 0.0
H385 H 0.16087 0.86029 0.54013 0.0
H386 H 0.16128 0.9223 0.56469 0.0
H387 H 0.12114 0.97916 0.49219 0.0
H388 H 0.1536 0.14747 0.52251 0.0
H389 H 0.14782 0.08509 0.50693 0.0
C390 C 0.90545 0.38867 0.56379 0.0
C391 C 0.89219 0.36505 0.55922 0.0
C392 C 0.90375 0.42451 0.55356 0.0
C393 C 0.87757 0.48646 0.47043 0.0
H394 H 0.89898 0.55505 0.58816 0.0
C395 C 0.88112 0.6357 0.41385 0.0
C396 C 0.87849 0.65783 0.46794 0.0
C397 C 0.88247 0.59972 0.42414 0.0
C398 C 0.89288 0.53619 0.55499 0.0
H399 H 0.8667 0.36065 0.54121 0.0
H400 H 0.86379 0.4231 0.52331 0.0
H401 H 0.90198 0.49278 0.6094 0.0
H402 H 0.87495 0.65936 0.5751 0.0
H403 H 0.87733 0.59685 0.59278 0.0
H404 H 0.86843 0.52993 0.41617 0.0
C405 C 0.8755 0.41386 0.53434 0.0
C406 C 0.89471 0.50057 0.56683 0.0
C407 C 0.87717 0.37811 0.54512 0.0
C408 C 0.877 0.64313 0.53226 0.0
C409 C 0.87847 0.60731 0.54257 0.0
C410 C 0.87586 0.52212 0.45821 0.0
C411 C 0.88878 0.43743 0.53797 0.0
C412 C 0.88701 0.4753 0.52491 0.0
C413 C 0.88136 0.58524 0.48879 0.0
C414 C 0.88342 0.54736 0.50062 0.0
H415 H 0.91718 0.37946 0.57449 0.0
H416 H 0.91421 0.44202 0.5563 0.0
H417 H 0.87162 0.46759 0.43685 0.0
H418 H 0.88235 0.64619 0.36371 0.0
H419 H 0.88478 0.58337 0.38177 0.0
C420 C 0.87423 0.88657 0.48097 0.0
C421 C 0.88268 0.86757 0.43515 0.0
C422 C 0.8769 0.92264 0.48702 0.0
C423 C 0.90702 0.99213 0.47335 0.0
H424 H 0.87154 0.05245 0.4788 0.0
C425 C 0.91376 0.14291 0.52114 0.0
C426 C 0.90169 0.15745 0.55731 0.0
C427 C 0.91255 0.1075 0.5028 0.0
C428 C 0.88159 0.03597 0.47833 0.0
H429 H 0.90048 0.87144 0.35922 0.0
H430 H 0.90542 0.93508 0.37093 0.0
H431 H 0.86691 0.99124 0.44847 0.0
H432 H 0.87957 0.146 0.60695 0.0
H433 H 0.8778 0.08439 0.57785 0.0
H434 H 0.92165 0.03659 0.50589 0.0
C435 C 0.89661 0.92177 0.40154 0.0
C436 C 0.87893 1.00098 0.46029 0.0
C437 C 0.8937 0.88554 0.39449 0.0
C438 C 0.88897 0.13558 0.5784 0.0
C439 C 0.88787 0.10032 0.56099 0.0
C440 C 0.90969 0.02722 0.49223 0.0
C441 C 0.88827 0.94055 0.44819 0.0
C442 C 0.89155 0.97855 0.4588 0.0
C443 C 0.89932 0.08604 0.52091 0.0
C444 C 0.89694 0.04937 0.49641 0.0
H445 H 0.86569 0.87343 0.51316 0.0
H446 H 0.8704 0.93642 0.52376 0.0
H447 H 0.91694 0.97525 0.47303 0.0
H448 H 0.92365 0.15927 0.50382 0.0
H449 H 0.92159 0.09741 0.47196 0.0
C450 C 0.15589 0.62953 0.51778 0.0
C451 C 0.14173 0.6456 0.53127 0.0
C452 C 0.15747 0.59404 0.53185 0.0
C453 C 0.14366 0.52428 0.64279 0.0
H454 H 0.15846 0.46178 0.50875 0.0
C455 C 0.1452 0.37407 0.68376 0.0
C456 C 0.15675 0.35617 0.65066 0.0
C457 C 0.1437 0.40997 0.67278 0.0
C458 C 0.15462 0.4789 0.5474 0.0
H459 H 0.1181 0.63707 0.56972 0.0
H460 H 0.12103 0.57509 0.59547 0.0
H461 H 0.15504 0.52292 0.48064 0.0
H462 H 0.1765 0.36186 0.58417 0.0
H463 H 0.17455 0.4245 0.56806 0.0
H464 H 0.14368 0.48071 0.71038 0.0
C465 C 0.13083 0.59002 0.57364 0.0
C466 C 0.15254 0.51391 0.53091 0.0
C467 C 0.12912 0.62536 0.55839 0.0
C468 C 0.16737 0.37503 0.60974 0.0
C469 C 0.16611 0.4109 0.59992 0.0
C470 C 0.146 0.48934 0.65976 0.0
C471 C 0.14505 0.57411 0.56084 0.0
C472 C 0.14703 0.5369 0.57836 0.0
C473 C 0.15392 0.42871 0.62941 0.0
C474 C 0.15154 0.46614 0.61228 0.0
H475 H 0.16581 0.64447 0.49696 0.0
H476 H 0.16858 0.58237 0.52171 0.0
H477 H 0.13953 0.54164 0.68047 0.0
H478 H 0.13678 0.36 0.7151 0.0
H479 H 0.13409 0.4226 0.69605 0.0
C480 C 0.64135 0.62685 0.18569 0.0
C481 C 0.65199 0.64566 0.14452 0.0
C482 C 0.63853 0.59069 0.17703 0.0
C483 C 0.65628 0.51283 0.11346 0.0
H484 H 0.61353 0.47587 0.0727 0.0
C485 C 0.64633 0.37687 0.99997 0.0
C486 C 0.63365 0.35515 1.02194 0.0
C487 C 0.64742 0.4123 1.01627 0.0
C488 C 0.62551 0.48559 0.08498 0.0
H489 H 0.66835 0.64131 0.06359 0.0
H490 H 0.6638 0.5784 0.05015 0.0
H491 H 0.61804 0.53727 0.1053 0.0
H492 H 0.6118 0.35367 0.07607 0.0
H493 H 0.61387 0.41571 0.1063 0.0
H494 H 0.66389 0.46161 0.09437 0.0
C495 C 0.65753 0.59151 0.08853 0.0
C496 C 0.62806 0.52074 0.10366 0.0
C497 C 0.66011 0.62754 0.09623 0.0
C498 C 0.62165 0.36993 0.05805 0.0
C499 C 0.62286 0.40547 0.07541 0.0
C500 C 0.65373 0.47775 0.09576 0.0
C501 C 0.64659 0.57278 0.12817 0.0
C502 C 0.64352 0.5348 0.11664 0.0
C503 C 0.63602 0.42687 0.05624 0.0
C504 C 0.63836 0.46381 0.07958 0.0
H505 H 0.63484 0.64023 0.22291 0.0
H506 H 0.63007 0.57673 0.20831 0.0
H507 H 0.66829 0.52294 0.12403 0.0
H508 H 0.65568 0.36624 0.97146 0.0
H509 H 0.65743 0.42811 0.99855 0.0
C510 C 0.37641 0.87524 0.04536 0.0
C511 C 0.39145 0.8623 0.05955 0.0
C512 C 0.37468 0.911 1.03477 0.0
C513 C 0.3938 0.99779 0.06802 0.0
H514 H 0.36756 0.02739 0.91742 0.0
C515 C 0.37642 0.1406 1.03366 0.0
C516 C 0.37794 0.1553 0.96935 0.0
C517 C 0.37778 0.10474 0.04393 0.0
C518 C 0.37498 0.01951 0.95946 0.0
H519 H 0.41641 0.87693 0.07512 0.0
H520 H 0.41334 0.93945 0.05724 0.0
H521 H 0.37071 0.96502 0.93786 0.0
H522 H 0.38174 0.1436 0.86509 0.0
H523 H 0.38397 0.08071 0.88309 0.0
H524 H 0.39811 0.05224 0.08955 0.0
C525 C 0.40291 0.92186 0.05431 0.0
C526 C 0.37667 0.98383 0.97154 0.0
C527 C 0.40467 0.88604 0.06434 0.0
C528 C 0.38049 0.13311 0.91522 0.0
C529 C 0.38172 0.0971 0.92548 0.0
C530 C 0.39199 0.03344 0.05631 0.0
C531 C 0.38792 0.93468 1.03871 0.0
C532 C 0.3861 0.97258 1.02595 0.0
C533 C 0.38058 0.08262 0.99013 0.0
C534 C 0.38256 0.0447 1.00195 0.0
H535 H 0.36598 0.85768 1.04128 0.0
H536 H 0.36295 0.92015 1.02369 0.0
H537 H 0.40106 0.98994 0.11056 0.0
H538 H 0.37443 0.15687 0.07653 0.0
H539 H 0.37662 0.0943 0.09415 0.0
C540 C 0.37427 0.38415 0.98254 0.0
C541 C 0.38267 0.36509 0.93663 0.0
C542 C 0.37699 0.42021 0.98863 0.0
C543 C 0.40717 0.48964 0.97457 0.0
H544 H 0.37172 0.54999 0.98097 0.0
C545 C 0.4139 0.6405 1.02243 0.0
C546 C 0.40187 0.65495 0.05898 0.0
C547 C 0.4127 0.60507 1.00412 0.0
C548 C 0.38176 0.5335 0.98022 0.0
H549 H 0.40045 0.36888 0.86061 0.0
H550 H 0.40548 0.4325 0.87237 0.0
H551 H 0.36704 0.48881 0.95054 0.0
H552 H 0.37987 0.64334 0.10937 0.0
H553 H 0.37813 0.58173 0.08028 0.0
H554 H 0.42184 0.53409 1.00688 0.0
C555 C 0.39667 0.41923 0.90304 0.0
C556 C 0.37907 0.49852 0.96213 0.0
C557 C 0.39371 0.38301 0.89595 0.0
C558 C 0.38923 0.63299 0.08053 0.0
C559 C 0.38814 0.59772 0.06313 0.0
C560 C 0.40987 0.52473 0.99347 0.0
C561 C 0.38837 0.43807 0.94975 0.0
C562 C 0.39168 0.47607 0.96033 0.0
C563 C 0.39953 0.58353 1.02262 0.0
C564 C 0.39713 0.54688 0.99801 0.0
H565 H 0.36573 0.37106 1.01475 0.0
H566 H 0.37052 0.43401 1.02543 0.0
H567 H 0.41708 0.47275 0.974 0.0
H568 H 0.42372 0.65694 1.00475 0.0
H569 H 0.4217 0.59504 0.97296 0.0
C570 C 0.65694 0.13203 1.00747 0.0
C571 C 0.64285 0.14751 1.02427 0.0
C572 C 0.65876 0.09632 1.0188 0.0
C573 C 0.64682 0.02507 0.12842 0.0
H574 H 0.65748 0.96313 0.98549 0.0
C575 C 0.64688 0.875 0.166 0.0
C576 C 0.65714 0.85585 0.12813 0.0
C577 C 0.6456 0.91091 0.15477 0.0
C578 C 0.65484 0.98004 1.02652 0.0
H579 H 0.61963 0.13777 0.06603 0.0
H580 H 0.62304 0.07554 0.08749 0.0
H581 H 0.6545 0.02503 0.962 0.0
H582 H 0.67469 0.85938 0.05124 0.0
H583 H 0.6732 0.92212 1.03425 0.0
H584 H 0.64771 0.98081 0.19379 0.0
C585 C 0.63256 0.09104 0.06491 0.0
C586 C 0.653 0.01549 1.01269 0.0
C587 C 0.63059 0.12654 0.05221 0.0
C588 C 0.66656 0.87347 0.08074 0.0
C589 C 0.66556 0.90946 0.07056 0.0
C590 C 0.64898 0.98976 0.14267 0.0
C591 C 0.64667 0.07566 0.04853 0.0
C592 C 0.64887 0.03824 0.06339 0.0
C593 C 0.65481 0.92864 0.10634 0.0
C594 C 0.65293 0.96662 0.09183 0.0
H595 H 0.66658 0.14755 0.98586 0.0
H596 H 0.66977 0.085 1.0059 0.0
H597 H 0.64378 0.04225 0.16851 0.0
H598 H 0.63936 0.86199 0.20241 0.0
H599 H 0.637 0.92442 0.18272 0.0
C600 C 0.15168 0.19292 0.33309 0.0
C601 C 0.16684 0.20148 0.36007 0.0
C602 C 0.14928 0.16546 0.28822 0.0
C603 C 0.17076 0.12549 0.15893 0.0
H604 H 0.12703 0.09591 0.11834 0.0
C605 C 0.14743 0.15417 0.90696 0.0
C606 C 0.13869 0.18372 0.92034 0.0
C607 C 0.1495 0.12846 0.95574 0.0
C608 C 0.13947 0.10247 0.12898 0.0
H609 H 0.19128 0.18683 0.365 0.0
H610 H 0.18718 0.1386 0.28513 0.0
H611 H 0.13627 0.10149 0.23463 0.0
H612 H 0.1236 0.20683 0.99211 0.0
H613 H 0.12713 0.16211 0.07686 0.0
H614 H 0.17365 0.12915 0.05361 0.0
C615 C 0.17714 0.1534 0.29836 0.0
C616 C 0.14475 0.10609 0.19554 0.0
C617 C 0.17955 0.18128 0.34315 0.0
C618 C 0.13054 0.18476 0.98034 0.0
C619 C 0.13241 0.15878 1.02867 0.0
C620 C 0.1656 0.12096 0.09254 0.0
C621 C 0.162 0.14557 0.26936 0.0
C622 C 0.15977 0.12227 0.2103 0.0
C623 C 0.14263 0.13149 1.01821 0.0
C624 C 0.14942 0.1139 0.07749 0.0
H625 H 0.14171 0.2081 0.34574 0.0
H626 H 0.13753 0.16122 0.26571 0.0
H627 H 0.18259 0.1369 0.16826 0.0
H628 H 0.15331 0.1515 0.86011 0.0
H629 H 0.15741 0.10767 0.94655 0.0
C630 C 0.88381 0.2574 0.32243 0.0
C631 C 0.89806 0.2619 0.36076 0.0
C632 C 0.88375 0.25724 0.25168 0.0
C633 C 0.91042 0.24755 0.10451 0.0
H634 H 0.87547 0.28599 1.00339 0.0
C635 C 0.91191 0.26463 0.81238 0.0
C636 C 0.89765 0.2605 0.77404 0.0
C637 C 0.91196 0.26474 0.88313 0.0
C638 C 0.88528 0.27466 1.03033 0.0
H639 H 0.9235 0.2698 0.35262 0.0
H640 H 0.92342 0.26987 0.23036 0.0
H641 H 0.87554 0.28627 0.12534 0.0
H642 H 0.87218 0.25314 0.78212 0.0
H643 H 0.87226 0.2529 0.90436 0.0
H644 H 0.92015 0.2359 1.00953 0.0
C645 C 0.9122 0.26597 0.25476 0.0
C646 C 0.88532 0.27483 0.10108 0.0
C647 C 0.91225 0.26619 0.3255 0.0
C648 C 0.88344 0.25649 0.80927 0.0
C649 C 0.88349 0.2566 0.88001 0.0
C650 C 0.91037 0.24736 1.03376 0.0
C651 C 0.89795 0.2615 0.21618 0.0
C652 C 0.89789 0.26129 0.13983 0.0
C653 C 0.89775 0.26074 0.91862 0.0
C654 C 0.8978 0.26092 0.99499 0.0
H655 H 0.8726 0.25386 0.34714 0.0
H656 H 0.87249 0.25319 0.22486 0.0
H657 H 0.92023 0.23624 0.13148 0.0
H658 H 0.92312 0.26796 0.78767 0.0
H659 H 0.92323 0.26854 0.90995 0.0
C660 C 0.12361 0.7465 0.27335 0.0
C661 C 0.1379 0.74973 0.31169 0.0
C662 C 0.12354 0.74652 0.2026 0.0
C663 C 0.14995 0.73499 0.05523 0.0
H664 H 0.11573 0.77661 0.95471 0.0
C665 C 0.15163 0.75237 0.76324 0.0
C666 C 0.13733 0.74946 0.72494 0.0
C667 C 0.15171 0.75244 0.83399 0.0
C668 C 0.12533 0.76439 0.98148 0.0
H669 H 0.16341 0.75556 0.30362 0.0
H670 H 0.16333 0.75592 0.18133 0.0
H671 H 0.11584 0.77663 0.07667 0.0
H672 H 0.11181 0.74423 0.73314 0.0
H673 H 0.11192 0.74392 0.85539 0.0
H674 H 0.15943 0.72271 0.96007 0.0
C675 C 0.15207 0.75289 0.20572 0.0
C676 C 0.1254 0.76441 0.05222 0.0
C677 C 0.15213 0.75293 0.27647 0.0
C678 C 0.1231 0.74663 0.76024 0.0
C679 C 0.12317 0.7467 0.83099 0.0
C680 C 0.14988 0.73495 0.98448 0.0
C681 C 0.13778 0.74971 0.16712 0.0
C682 C 0.13771 0.7497 0.09077 0.0
C683 C 0.13748 0.7496 0.86955 0.0
C684 C 0.13757 0.74965 0.94592 0.0
H685 H 0.11237 0.74385 0.29805 0.0
H686 H 0.11225 0.74348 0.17576 0.0
H687 H 0.15955 0.72278 0.08203 0.0
H688 H 0.16287 0.75476 0.7385 0.0
H689 H 0.16303 0.75527 0.86076 0.0
C690 C 0.87928 0.86188 0.70353 0.0
C691 C 0.86835 0.83392 0.7177 0.0
C692 C 0.88368 0.8867 0.75238 0.0
C693 C 0.87684 0.91322 0.9267 0.0
H694 H 0.91619 0.8679 0.96323 0.0
C695 C 0.88081 0.81947 0.12994 0.0
C696 C 0.89504 0.80764 0.15713 0.0
C697 C 0.88091 0.84706 0.08453 0.0
C698 C 0.90559 0.88226 0.95467 0.0
H699 H 0.85187 0.8133 0.79081 0.0
H700 H 0.85936 0.85662 0.87535 0.0
H701 H 0.9079 0.87902 0.84907 0.0
H702 H 0.92057 0.81639 0.16129 0.0
H703 H 0.92086 0.86478 0.0804 0.0
H704 H 0.87395 0.91383 1.03253 0.0
C705 C 0.86462 0.85927 0.82666 0.0
C706 C 0.90082 0.88876 0.88861 0.0
C707 C 0.86044 0.83406 0.77839 0.0
C708 C 0.90946 0.82452 0.13943 0.0
C709 C 0.90959 0.85251 0.09405 0.0
C710 C 0.88182 0.90758 0.99293 0.0
C711 C 0.87695 0.88449 0.81552 0.0
C712 C 0.88548 0.89996 0.87448 0.0
C713 C 0.89529 0.8638 0.06532 0.0
C714 C 0.89514 0.88772 1.00661 0.0
H715 H 0.88508 0.8638 0.65607 0.0
H716 H 0.89319 0.90592 0.74266 0.0
H717 H 0.86515 0.92287 0.91679 0.0
H718 H 0.86957 0.80684 0.14307 0.0
H719 H 0.86966 0.85398 0.06209 0.0
C720 C 0.65493 0.69074 0.45565 0.0
C721 C 0.64039 0.70129 0.42929 0.0
C722 C 0.65546 0.66364 0.50199 0.0
C723 C 0.63168 0.62835 0.63501 0.0
H724 H 0.67311 0.59276 0.67424 0.0
C725 C 0.65776 0.65407 0.88528 0.0
C726 C 0.6682 0.68277 0.87027 0.0
C727 C 0.65382 0.62854 0.83725 0.0
C728 C 0.66119 0.60102 0.66404 0.0
H729 H 0.61498 0.69059 0.42723 0.0
H730 H 0.61579 0.64295 0.50955 0.0
H731 H 0.66391 0.59888 0.55823 0.0
H732 H 0.68435 0.7043 0.79681 0.0
H733 H 0.67762 0.65975 0.71333 0.0
H734 H 0.62943 0.63296 0.74043 0.0
C735 C 0.62682 0.65592 0.49471 0.0
C736 C 0.65597 0.60499 0.59763 0.0
C737 C 0.62631 0.68345 0.44845 0.0
C738 C 0.67613 0.6829 0.80964 0.0
C739 C 0.6724 0.65704 0.7621 0.0
C740 C 0.6367 0.62342 0.70129 0.0
C741 C 0.64142 0.64609 0.523 0.0
C742 C 0.64217 0.62317 0.5831 0.0
C743 C 0.66053 0.63084 0.77406 0.0
C744 C 0.6523 0.61405 0.7157 0.0
H745 H 0.66592 0.70412 0.44141 0.0
H746 H 0.66692 0.65788 0.52387 0.0
H747 H 0.62073 0.6414 0.62595 0.0
H748 H 0.652 0.65207 0.93284 0.0
H749 H 0.64467 0.60858 0.84758 0.0
C750 C 0.41195 0.76355 0.82642 0.0
C751 C 0.39777 0.75907 0.8617 0.0
C752 C 0.4119 0.76338 0.75567 0.0
C753 C 0.38498 0.77203 0.60206 0.0
H754 H 0.41991 0.73361 0.51037 0.0
C755 C 0.38316 0.75391 0.31016 0.0
C756 C 0.39737 0.75812 0.27497 0.0
C757 C 0.3832 0.75399 0.3809 0.0
C758 C 0.4101 0.74493 0.53464 0.0
H759 H 0.37233 0.75075 0.84811 0.0
H760 H 0.37221 0.75015 0.72583 0.0
H761 H 0.41999 0.73384 0.63232 0.0
H762 H 0.42283 0.76588 0.28866 0.0
H763 H 0.42292 0.7664 0.41094 0.0
H764 H 0.37509 0.78316 0.50441 0.0
C765 C 0.38346 0.75432 0.75264 0.0
C766 C 0.41015 0.74506 0.60539 0.0
C767 C 0.38353 0.75443 0.82339 0.0
C768 C 0.41161 0.76241 0.31334 0.0
C769 C 0.41166 0.76247 0.38409 0.0
C770 C 0.38494 0.77192 0.53131 0.0
C771 C 0.39765 0.75877 0.71711 0.0
C772 C 0.39759 0.75861 0.64076 0.0
C773 C 0.39745 0.75827 0.41955 0.0
C774 C 0.39749 0.75837 0.49592 0.0
H775 H 0.4232 0.76729 0.85352 0.0
H776 H 0.42311 0.76742 0.73125 0.0
H777 H 0.37517 0.78333 0.62636 0.0
H778 H 0.37191 0.75044 0.28298 0.0
H779 H 0.37197 0.75013 0.40522 0.0
C780 C 0.62302 0.24712 0.25548 0.0
C781 C 0.63722 0.25099 0.22018 0.0
C782 C 0.62308 0.24724 0.32621 0.0
C783 C 0.64992 0.23743 0.4798 0.0
H784 H 0.61526 0.27686 0.57165 0.0
C785 C 0.65188 0.25553 0.77165 0.0
C786 C 0.63767 0.25157 0.80692 0.0
C787 C 0.65182 0.25546 0.70091 0.0
C788 C 0.62499 0.26527 0.54731 0.0
H789 H 0.66271 0.25818 0.23372 0.0
H790 H 0.66285 0.25873 0.35603 0.0
H791 H 0.61519 0.2768 0.44969 0.0
H792 H 0.61219 0.24429 0.79336 0.0
H793 H 0.61207 0.24383 0.67103 0.0
H794 H 0.65972 0.22591 0.57743 0.0
C795 C 0.65157 0.25507 0.32923 0.0
C796 C 0.62496 0.26523 0.47657 0.0
C797 C 0.6515 0.25498 0.25847 0.0
C798 C 0.6234 0.24755 0.76862 0.0
C799 C 0.62334 0.24752 0.69785 0.0
C800 C 0.64996 0.23748 0.55055 0.0
C801 C 0.63736 0.25121 0.36477 0.0
C802 C 0.63742 0.2513 0.44114 0.0
C803 C 0.63755 0.25146 0.66233 0.0
C804 C 0.6375 0.25139 0.58597 0.0
H805 H 0.61175 0.24388 0.2284 0.0
H806 H 0.61185 0.24365 0.35061 0.0
H807 H 0.65965 0.22583 0.45547 0.0
H808 H 0.66314 0.2588 0.79876 0.0
H809 H 0.66305 0.25911 0.67653 0.0
C810 C 0.3607 0.33202 0.28001 0.0
C811 C 0.3686 0.33166 0.21929 0.0
C812 C 0.36501 0.35717 0.32824 0.0
C813 C 0.40129 0.38588 0.39018 0.0
H814 H 0.37454 0.41179 0.5339 0.0
C815 C 0.40948 0.32143 0.64096 0.0
C816 C 0.39497 0.30496 0.65861 0.0
C817 C 0.40978 0.34944 0.59564 0.0
C818 C 0.38238 0.4053 0.49436 0.0
H819 H 0.38544 0.36115 0.15758 0.0
H820 H 0.39376 0.40316 0.2441 0.0
H821 H 0.36582 0.42097 0.4181 0.0
H822 H 0.36951 0.30494 0.64456 0.0
H823 H 0.3699 0.35211 0.56365 0.0
H824 H 0.41652 0.36465 0.4649 0.0
C825 C 0.38417 0.38414 0.25386 0.0
C826 C 0.37745 0.41102 0.42809 0.0
C827 C 0.37965 0.35938 0.20507 0.0
C828 C 0.38082 0.31724 0.63146 0.0
C829 C 0.3811 0.34485 0.58609 0.0
C830 C 0.406 0.3793 0.45627 0.0
C831 C 0.37744 0.38214 0.31701 0.0
C832 C 0.38603 0.39748 0.37594 0.0
C833 C 0.39557 0.36117 0.56689 0.0
C834 C 0.39558 0.38507 0.50815 0.0
H835 H 0.35204 0.31145 0.29249 0.0
H836 H 0.35974 0.35468 0.37694 0.0
H837 H 0.40833 0.37593 0.35069 0.0
H838 H 0.42053 0.31295 0.66281 0.0
H839 H 0.42112 0.36138 0.58202 0.0
C840 C 0.10309 0.25271 0.52229 0.0
C841 C 0.10891 0.25088 0.58894 0.0
C842 C 0.08665 0.25034 0.50782 0.0
C843 C 0.04892 0.21818 0.58295 0.0
H844 H 0.02841 0.28538 0.468 0.0
C845 C 0.98515 0.25573 0.61805 0.0
C846 C 0.97506 0.26092 0.5622 0.0
C847 C 1.00105 0.2489 0.61009 0.0
C848 C 0.03398 0.26598 0.49922 0.0
H849 H 0.10188 0.24563 0.69245 0.0
H850 H 0.07371 0.24168 0.66739 0.0
H851 H 0.05746 0.28481 0.47404 0.0
H852 H 0.97355 0.26259 0.45405 0.0
H853 H 1.00175 0.25108 0.4396 0.0
H854 H 0.0256 0.20026 0.61033 0.0
C855 C 0.08169 0.24439 0.62604 0.0
C856 C 0.05061 0.26567 0.50271 0.0
C857 C 0.09794 0.24696 0.64042 0.0
C858 C 0.9811 0.2583 0.49776 0.0
C859 C 0.99721 0.25205 0.48965 0.0
C860 C 0.03239 0.21857 0.57963 0.0
C861 C 0.07578 0.2457 0.55968 0.0
C862 C 0.05827 0.24255 0.54649 0.0
C863 C 1.00738 0.24756 0.54593 0.0
C864 C 0.02472 0.24321 0.53949 0.0
H865 H 0.1112 0.25573 0.48147 0.0
H866 H 0.08245 0.25151 0.45613 0.0
H867 H 0.05441 0.19944 0.61595 0.0
H868 H 0.98074 0.25773 0.66818 0.0
H869 H 1.00855 0.246 0.65451 0.0
C870 C 0.93632 0.75785 0.44971 0.0
C871 C 0.92575 0.76405 0.50098 0.0
C872 C 0.95255 0.75689 0.46319 0.0
C873 C 0.98551 0.78557 0.57509 0.0
H874 H 1.00589 0.70993 0.48863 0.0
C875 C 0.05439 0.75978 0.58164 0.0
C876 C 0.06002 0.75159 0.51832 0.0
C877 C 0.03808 0.76379 0.59014 0.0
C878 C 1.0004 0.73124 0.51317 0.0
H879 H 0.9242 0.77501 0.60689 0.0
H880 H 0.953 0.7735 0.63058 0.0
H881 H 0.97712 0.71076 0.48622 0.0
H882 H 0.05334 0.74436 0.4137 0.0
H883 H 0.02521 0.7514 0.42816 0.0
H884 H 1.0091 0.80631 0.60051 0.0
C885 C 0.94845 0.76927 0.57984 0.0
C886 C 0.98391 0.73169 0.51184 0.0
C887 C 0.932 0.76997 0.56635 0.0
C888 C 0.04929 0.74996 0.46325 0.0
C889 C 0.03317 0.75391 0.47161 0.0
C890 C 1.00217 0.78506 0.57655 0.0
C891 C 0.95886 0.76217 0.52835 0.0
C892 C 0.97624 0.75942 0.54069 0.0
C893 C 0.02726 0.75959 0.53538 0.0
C894 C 1.00977 0.75845 0.54351 0.0
H895 H 0.93207 0.7534 0.39862 0.0
H896 H 0.96023 0.75202 0.42213 0.0
H897 H 0.97992 0.80727 0.59778 0.0
H898 H 0.06243 0.7611 0.62488 0.0
H899 H 0.03384 0.76834 0.63984 0.0
C900 C 0.59879 0.75894 0.13379 0.0
C901 C 0.60943 0.75153 0.08349 0.0
C902 C 0.58261 0.76025 0.11946 0.0
C903 C 0.54977 0.72968 1.00964 0.0
H904 H 0.52945 0.80746 0.08913 0.0
C905 C 0.48073 0.75366 1.00418 0.0
C906 C 0.47528 0.7632 0.06708 0.0
C907 C 0.49706 0.75021 0.99486 0.0
C908 C 0.53491 0.78557 0.06648 0.0
H909 H 0.61118 0.739 0.97835 0.0
H910 H 0.58244 0.74099 0.95319 0.0
H911 H 0.55822 0.8067 0.09116 0.0
H912 H 0.48238 0.77342 0.17046 0.0
H913 H 0.51051 0.76748 0.15451 0.0
H914 H 0.52617 0.7082 0.98687 0.0
C915 C 0.5869 0.74593 1.00382 0.0
C916 C 0.55141 0.78517 0.06755 0.0
C917 C 0.60332 0.74497 1.01813 0.0
C918 C 0.48626 0.76689 0.12109 0.0
C919 C 0.50239 0.76353 0.1119 0.0
C920 C 0.53311 0.73011 1.00848 0.0
C921 C 0.57642 0.75404 0.05441 0.0
C922 C 0.55906 0.7567 1.04135 0.0
C923 C 0.50808 0.75633 0.04837 0.0
C924 C 0.52554 0.75753 1.03912 0.0
H925 H 0.60295 0.76403 0.18479 0.0
H926 H 0.57486 0.766 0.15982 0.0
H927 H 0.55535 0.70738 0.98909 0.0
H928 H 0.47251 0.75069 0.96173 0.0
H929 H 0.50112 0.74443 0.9454 0.0
C930 C 0.43189 0.26804 0.06659 0.0
C931 C 0.42553 0.26083 1.00186 0.0
C932 C 0.44836 0.2673 0.07982 0.0
C933 C 0.48363 0.22777 1.01435 0.0
H934 H 0.50904 0.30451 0.09491 0.0
C935 C 0.54881 0.24529 0.96054 0.0
C936 C 0.55978 0.24874 1.01461 0.0
C937 C 0.5327 0.24896 0.96964 0.0
C938 C 0.50206 0.28268 0.07328 0.0
H939 H 0.43162 0.24765 0.9004 0.0
H940 H 0.45981 0.24616 0.9235 0.0
H941 H 0.47988 0.30549 0.09331 0.0
H942 H 0.56256 0.26117 0.11999 0.0
H943 H 0.53399 0.26795 0.13619 0.0
H944 H 0.50554 0.20537 0.99224 0.0
C945 C 0.45222 0.25213 0.96425 0.0
C946 C 0.4854 0.28319 0.07247 0.0
C947 C 0.43597 0.25317 0.95099 0.0
C948 C 0.55435 0.25838 0.07749 0.0
C949 C 0.53804 0.26213 0.08673 0.0
C950 C 0.50013 0.22729 1.01505 0.0
C951 C 0.45865 0.25883 1.02877 0.0
C952 C 0.47605 0.25624 1.04089 0.0
C953 C 0.52702 0.25623 1.03316 0.0
C954 C 0.50956 0.25523 1.0424 0.0
H955 H 0.42419 0.27422 0.10678 0.0
H956 H 0.453 0.27263 0.13005 0.0
H957 H 0.47678 0.20624 0.99091 0.0
H958 H 0.55267 0.23868 0.91119 0.0
H959 H 0.52457 0.24516 0.92699 0.0
loop_
_geom_bond_atom_site_label_1
_geom_bond_atom_site_label_2
_geom_bond_distance
_geom_bond_site_symmetry_2
_ccdc_geom_bond_type
Co0 N5 2.057 . S
Co0 O17 2.021 . S
Co0 O20 2.062 . S
Co0 O24 2.117 . S
Co0 O25 2.020 . S
C1 O21 1.259 . S
C1 O24 1.258 . S
Co2 N11 2.057 . S
Co2 O18 2.117 . S
Co2 O19 2.020 . S
Co2 O21 2.021 . S
Co2 O26 2.062 . S
C3 N5 1.316 . S
C3 N6 1.347 . S
C3 H8 0.931 . S
C4 N5 1.375 . S
C4 C7 1.350 . S
C4 H9 0.930 . S
N5 Co0 2.057 . S
N5 C3 1.316 . S
N5 C4 1.375 . S
N6 C3 1.347 . S
N6 C7 1.373 . S
C7 C4 1.350 . S
C7 N6 1.373 . S
C7 H28 0.931 . S
H8 C3 0.931 . S
H9 C4 0.930 . S
C10 O17 1.259 . S
C10 O18 1.258 . S
N11 Co2 2.057 . S
N11 C12 1.316 . S
N11 C13 1.375 . S
C12 N11 1.316 . S
C12 N14 1.347 . S
C12 H23 0.931 . S
C13 N11 1.375 . S
C13 C15 1.350 . S
C13 H22 0.930 . S
N14 C12 1.347 . S
N14 C15 1.373 . S
C15 C13 1.350 . S
C15 N14 1.373 . S
C15 H29 0.931 . S
C16 O19 1.256 . S
C16 O20 1.255 . S
O17 Co0 2.021 . S
O17 C10 1.259 . S
O18 Co2 2.117 . S
O18 C10 1.258 . S
O19 Co2 2.020 . S
O19 C16 1.256 . S
O20 Co0 2.062 . S
O20 C16 1.255 . S
O21 C1 1.259 . S
O21 Co2 2.021 . S
H22 C13 0.930 . S
H23 C12 0.931 . S
O24 Co0 2.117 . S
O24 C1 1.258 . S
O25 Co0 2.020 . S
O25 C27 1.256 . S
O26 Co2 2.062 . S
O26 C27 1.255 . S
C27 O25 1.256 . S
C27 O26 1.255 . S
H28 C7 0.931 . S
H29 C15 0.931 . S
Co30 N35 2.057 . S
Co30 O47 2.021 . S
Co30 O50 2.062 . S
Co30 O54 2.117 . S
Co30 O55 2.020 . S
C31 O51 1.259 . S
C31 O54 1.258 . S
Co32 N41 2.057 . S
Co32 O48 2.117 . S
Co32 O49 2.020 . S
Co32 O51 2.021 . S
Co32 O56 2.062 . S
C33 N35 1.316 . S
C33 N36 1.347 . S
C33 H38 0.931 . S
C34 N35 1.375 . S
C34 C37 1.350 . S
C34 H39 0.930 . S
N35 Co30 2.057 . S
N35 C33 1.316 . S
N35 C34 1.375 . S
N36 C33 1.347 . S
N36 C37 1.373 . S
C37 C34 1.350 . S
C37 N36 1.373 . S
C37 H58 0.931 . S
H38 C33 0.931 . S
H39 C34 0.930 . S
C40 O47 1.259 . S
C40 O48 1.258 . S
N41 Co32 2.057 . S
N41 C42 1.316 . S
N41 C43 1.375 . S
C42 N41 1.316 . S
C42 N44 1.347 . S
C42 H53 0.931 . S
C43 N41 1.375 . S
C43 C45 1.350 . S
C43 H52 0.930 . S
N44 C42 1.347 . S
N44 C45 1.373 . S
C45 C43 1.350 . S
C45 N44 1.373 . S
C45 H59 0.931 . S
C46 O49 1.256 . S
C46 O50 1.255 . S
O47 Co30 2.021 . S
O47 C40 1.259 . S
O48 Co32 2.117 . S
O48 C40 1.258 . S
O49 Co32 2.020 . S
O49 C46 1.256 . S
O50 Co30 2.062 . S
O50 C46 1.255 . S
O51 C31 1.259 . S
O51 Co32 2.021 . S
H52 C43 0.930 . S
H53 C42 0.931 . S
O54 Co30 2.117 . S
O54 C31 1.258 . S
O55 Co30 2.020 . S
O55 C57 1.256 . S
O56 Co32 2.062 . S
O56 C57 1.255 . S
C57 O55 1.256 . S
C57 O56 1.255 . S
H58 C37 0.931 . S
H59 C45 0.931 . S
Co60 N65 2.057 . S
Co60 O77 2.021 . S
Co60 O80 2.062 . S
Co60 O84 2.117 . S
Co60 O85 2.020 . S
C61 O81 1.259 . S
C61 O84 1.258 . S
Co62 N71 2.057 . S
Co62 O78 2.117 . S
Co62 O79 2.020 . S
Co62 O81 2.021 . S
Co62 O86 2.062 . S
C63 N65 1.316 . S
C63 N66 1.347 . S
C63 H68 0.931 . S
C64 N65 1.375 . S
C64 C67 1.350 . S
C64 H69 0.930 . S
N65 Co60 2.057 . S
N65 C63 1.316 . S
N65 C64 1.375 . S
N66 C63 1.347 . S
N66 C67 1.373 . S
C67 C64 1.350 . S
C67 N66 1.373 . S
C67 H88 0.931 . S
H68 C63 0.931 . S
H69 C64 0.930 . S
C70 O77 1.259 . S
C70 O78 1.258 . S
N71 Co62 2.057 . S
N71 C72 1.316 . S
N71 C73 1.375 . S
C72 N71 1.316 . S
C72 N74 1.347 . S
C72 H83 0.931 . S
C73 N71 1.375 . S
C73 C75 1.350 . S
C73 H82 0.930 . S
N74 C72 1.347 . S
N74 C75 1.373 . S
C75 C73 1.350 . S
C75 N74 1.373 . S
C75 H89 0.931 . S
C76 O79 1.256 . S
C76 O80 1.255 . S
O77 Co60 2.021 . S
O77 C70 1.259 . S
O78 Co62 2.117 . S
O78 C70 1.258 . S
O79 Co62 2.020 . S
O79 C76 1.256 . S
O80 Co60 2.062 . S
O80 C76 1.255 . S
O81 C61 1.259 . S
O81 Co62 2.021 . S
H82 C73 0.930 . S
H83 C72 0.931 . S
O84 Co60 2.117 . S
O84 C61 1.258 . S
O85 Co60 2.020 . S
O85 C87 1.256 . S
O86 Co62 2.062 . S
O86 C87 1.255 . S
C87 O85 1.256 . S
C87 O86 1.255 . S
H88 C67 0.931 . S
H89 C75 0.931 . S
Co90 N95 2.057 . S
Co90 O107 2.021 . S
Co90 O110 2.062 . S
Co90 O114 2.117 . S
Co90 O115 2.020 . S
C91 O111 1.259 . S
C91 O114 1.258 . S
Co92 N101 2.057 . S
Co92 O108 2.117 . S
Co92 O109 2.020 . S
Co92 O111 2.021 . S
Co92 O116 2.062 . S
C93 N95 1.316 . S
C93 N96 1.347 . S
C93 H98 0.931 . S
C94 N95 1.375 . S
C94 C97 1.350 . S
C94 H99 0.930 . S
N95 Co90 2.057 . S
N95 C93 1.316 . S
N95 C94 1.375 . S
N96 C93 1.347 . S
N96 C97 1.373 . S
C97 C94 1.350 . S
C97 N96 1.373 . S
C97 H118 0.931 . S
H98 C93 0.931 . S
H99 C94 0.930 . S
C100 O107 1.259 . S
C100 O108 1.258 . S
N101 Co92 2.057 . S
N101 C102 1.316 . S
N101 C103 1.375 . S
C102 N101 1.316 . S
C102 N104 1.347 . S
C102 H113 0.931 . S
C103 N101 1.375 . S
C103 C105 1.350 . S
C103 H112 0.930 . S
N104 C102 1.347 . S
N104 C105 1.373 . S
C105 C103 1.350 . S
C105 N104 1.373 . S
C105 H119 0.931 . S
C106 O109 1.256 . S
C106 O110 1.255 . S
O107 Co90 2.021 . S
O107 C100 1.259 . S
O108 Co92 2.117 . S
O108 C100 1.258 . S
O109 Co92 2.020 . S
O109 C106 1.256 . S
O110 Co90 2.062 . S
O110 C106 1.255 . S
O111 C91 1.259 . S
O111 Co92 2.021 . S
H112 C103 0.930 . S
H113 C102 0.931 . S
O114 Co90 2.117 . S
O114 C91 1.258 . S
O115 Co90 2.020 . S
O115 C117 1.256 . S
O116 Co92 2.062 . S
O116 C117 1.255 . S
C117 O115 1.256 . S
C117 O116 1.255 . S
H118 C97 0.931 . S
H119 C105 0.931 . S
Co120 N125 2.057 . S
Co120 O137 2.021 . S
Co120 O140 2.062 . S
Co120 O144 2.117 . S
Co120 O145 2.020 . S
C121 O141 1.259 . S
C121 O144 1.258 . S
Co122 N131 2.057 1_554 S
Co122 O138 2.117 . S
Co122 O139 2.020 . S
Co122 O141 2.021 . S
Co122 O146 2.062 . S
C123 N125 1.316 . S
C123 N126 1.347 . S
C123 H128 0.931 . S
C124 N125 1.375 . S
C124 C127 1.350 . S
C124 H129 0.930 . S
N125 Co120 2.057 . S
N125 C123 1.316 . S
N125 C124 1.375 . S
N126 C123 1.347 . S
N126 C127 1.373 . S
C127 C124 1.350 . S
C127 N126 1.373 . S
C127 H148 0.931 . S
H128 C123 0.931 . S
H129 C124 0.930 . S
C130 O137 1.259 . S
C130 O138 1.258 . S
N131 Co122 2.057 1_556 S
N131 C132 1.316 . S
N131 C133 1.375 . S
C132 N131 1.316 . S
C132 N134 1.347 . S
C132 H143 0.931 . S
C133 N131 1.375 . S
C133 C135 1.350 . S
C133 H142 0.930 . S
N134 C132 1.347 . S
N134 C135 1.373 . S
C135 C133 1.350 . S
C135 N134 1.373 . S
C135 H149 0.931 . S
C136 O139 1.256 . S
C136 O140 1.255 . S
O137 Co120 2.021 . S
O137 C130 1.259 . S
O138 Co122 2.117 . S
O138 C130 1.258 . S
O139 Co122 2.020 . S
O139 C136 1.256 . S
O140 Co120 2.062 . S
O140 C136 1.255 . S
O141 C121 1.259 . S
O141 Co122 2.021 . S
H142 C133 0.930 . S
H143 C132 0.931 . S
O144 Co120 2.117 . S
O144 C121 1.258 . S
O145 Co120 2.020 . S
O145 C147 1.256 . S
O146 Co122 2.062 . S
O146 C147 1.255 . S
C147 O145 1.256 . S
C147 O146 1.255 . S
H148 C127 0.931 . S
H149 C135 0.931 . S
Co150 N155 2.057 . S
Co150 O167 2.021 . S
Co150 O170 2.062 1_554 S
Co150 O174 2.117 . S
Co150 O175 2.020 . S
C151 O171 1.259 . S
C151 O174 1.258 . S
Co152 N161 2.057 . S
Co152 O168 2.117 . S
Co152 O169 2.020 1_554 S
Co152 O171 2.021 . S
Co152 O176 2.062 . S
C153 N155 1.316 . S
C153 N156 1.347 . S
C153 H158 0.931 . S
C154 N155 1.375 . S
C154 C157 1.350 . S
C154 H159 0.930 . S
N155 Co150 2.057 . S
N155 C153 1.316 . S
N155 C154 1.375 . S
N156 C153 1.347 . S
N156 C157 1.373 . S
C157 C154 1.350 . S
C157 N156 1.373 . S
C157 H178 0.931 . S
H158 C153 0.931 . S
H159 C154 0.930 . S
C160 O167 1.259 . S
C160 O168 1.258 . S
N161 Co152 2.057 . S
N161 C162 1.316 . S
N161 C163 1.375 . S
C162 N161 1.316 . S
C162 N164 1.347 . S
C162 H173 0.931 . S
C163 N161 1.375 . S
C163 C165 1.350 . S
C163 H172 0.930 . S
N164 C162 1.347 . S
N164 C165 1.373 . S
C165 C163 1.350 . S
C165 N164 1.373 . S
C165 H179 0.931 . S
C166 O169 1.256 . S
C166 O170 1.255 . S
O167 Co150 2.021 . S
O167 C160 1.259 . S
O168 Co152 2.117 . S
O168 C160 1.258 . S
O169 Co152 2.020 1_556 S
O169 C166 1.256 . S
O170 Co150 2.062 1_556 S
O170 C166 1.255 . S
O171 C151 1.259 . S
O171 Co152 2.021 . S
H172 C163 0.930 . S
H173 C162 0.931 . S
O174 Co150 2.117 . S
O174 C151 1.258 . S
O175 Co150 2.020 . S
O175 C177 1.256 . S
O176 Co152 2.062 . S
O176 C177 1.255 . S
C177 O175 1.256 . S
C177 O176 1.255 . S
H178 C157 0.931 . S
H179 C165 0.931 . S
Co180 N185 2.057 . S
Co180 O197 2.021 . S
Co180 O200 2.062 . S
Co180 O204 2.117 . S
Co180 O205 2.020 1_556 S
C181 O201 1.259 . S
C181 O204 1.258 . S
Co182 N191 2.057 . S
Co182 O198 2.117 . S
Co182 O199 2.020 . S
Co182 O201 2.021 . S
Co182 O206 2.062 1_556 S
C183 N185 1.316 . S
C183 N186 1.347 . S
C183 H188 0.931 . S
C184 N185 1.375 . S
C184 C187 1.350 . S
C184 H189 0.930 . S
N185 Co180 2.057 . S
N185 C183 1.316 . S
N185 C184 1.375 . S
N186 C183 1.347 . S
N186 C187 1.373 . S
C187 C184 1.350 . S
C187 N186 1.373 . S
C187 H208 0.931 . S
H188 C183 0.931 . S
H189 C184 0.930 . S
C190 O197 1.259 . S
C190 O198 1.258 . S
N191 Co182 2.057 . S
N191 C192 1.316 . S
N191 C193 1.375 . S
C192 N191 1.316 . S
C192 N194 1.347 . S
C192 H203 0.931 . S
C193 N191 1.375 . S
C193 C195 1.350 . S
C193 H202 0.930 . S
N194 C192 1.347 . S
N194 C195 1.373 . S
C195 C193 1.350 . S
C195 N194 1.373 . S
C195 H209 0.931 . S
C196 O199 1.256 . S
C196 O200 1.255 . S
O197 Co180 2.021 . S
O197 C190 1.259 . S
O198 Co182 2.117 . S
O198 C190 1.258 . S
O199 Co182 2.020 . S
O199 C196 1.256 . S
O200 Co180 2.062 . S
O200 C196 1.255 . S
O201 C181 1.259 . S
O201 Co182 2.021 . S
H202 C193 0.930 . S
H203 C192 0.931 . S
O204 Co180 2.117 . S
O204 C181 1.258 . S
O205 Co180 2.020 1_554 S
O205 C207 1.256 . S
O206 Co182 2.062 1_554 S
O206 C207 1.255 . S
C207 O205 1.256 . S
C207 O206 1.255 . S
H208 C187 0.931 . S
H209 C195 0.931 . S
Co210 N215 2.057 1_556 S
Co210 O227 2.021 . S
Co210 O230 2.062 . S
Co210 O234 2.117 . S
Co210 O235 2.020 . S
C211 O231 1.259 . S
C211 O234 1.258 . S
Co212 N221 2.057 . S
Co212 O228 2.117 . S
Co212 O229 2.020 . S
Co212 O231 2.021 . S
Co212 O236 2.062 . S
C213 N215 1.316 . S
C213 N216 1.347 . S
C213 H218 0.931 . S
C214 N215 1.375 . S
C214 C217 1.350 . S
C214 H219 0.930 . S
N215 Co210 2.057 1_554 S
N215 C213 1.316 . S
N215 C214 1.375 . S
N216 C213 1.347 . S
N216 C217 1.373 . S
C217 C214 1.350 . S
C217 N216 1.373 . S
C217 H238 0.931 . S
H218 C213 0.931 . S
H219 C214 0.930 . S
C220 O227 1.259 . S
C220 O228 1.258 . S
N221 Co212 2.057 . S
N221 C222 1.316 . S
N221 C223 1.375 . S
C222 N221 1.316 . S
C222 N224 1.347 . S
C222 H233 0.931 . S
C223 N221 1.375 . S
C223 C225 1.350 . S
C223 H232 0.930 . S
N224 C222 1.347 . S
N224 C225 1.373 . S
C225 C223 1.350 . S
C225 N224 1.373 . S
C225 H239 0.931 . S
C226 O229 1.256 . S
C226 O230 1.255 . S
O227 Co210 2.021 . S
O227 C220 1.259 . S
O228 Co212 2.117 . S
O228 C220 1.258 . S
O229 Co212 2.020 . S
O229 C226 1.256 . S
O230 Co210 2.062 . S
O230 C226 1.255 . S
O231 C211 1.259 . S
O231 Co212 2.021 . S
H232 C223 0.930 . S
H233 C222 0.931 . S
O234 Co210 2.117 . S
O234 C211 1.258 . S
O235 Co210 2.020 . S
O235 C237 1.256 . S
O236 Co212 2.062 . S
O236 C237 1.255 . S
C237 O235 1.256 . S
C237 O236 1.255 . S
H238 C217 0.931 . S
H239 C225 0.931 . S
C240 C241 1.349 . S
C240 C242 1.327 . S
C240 H265 0.950 . S
C241 C240 1.349 . S
C241 C257 1.349 . S
C242 C240 1.327 . S
C242 C261 1.429 . S
C242 H266 0.950 . S
C243 C260 1.574 . S
C243 C262 1.368 . S
C243 H267 0.949 . S
H244 C248 0.949 . S
C245 C246 1.349 . S
C245 C247 1.327 . S
C245 H268 0.950 . S
C246 C245 1.349 . S
C246 C258 1.349 . S
C247 C245 1.327 . S
C247 C263 1.429 . S
C247 H269 0.950 . S
C248 H244 0.949 . S
C248 C256 1.574 . S
C248 C264 1.368 . S
H249 C257 0.950 . S
H250 C255 0.950 . S
H251 C256 0.949 . S
H252 C258 0.950 . S
H253 C259 0.950 . S
H254 C260 0.949 . S
C255 H250 0.950 . S
C255 C257 1.327 . S
C255 C261 1.429 . S
C256 C248 1.574 . S
C256 H251 0.949 . S
C256 C262 1.368 . S
C257 C241 1.349 . S
C257 H249 0.950 . S
C257 C255 1.327 . S
C258 C246 1.349 . S
C258 H252 0.950 . S
C258 C259 1.327 . S
C259 H253 0.950 . S
C259 C258 1.327 . S
C259 C263 1.429 . S
C260 C243 1.574 . S
C260 H254 0.949 . S
C260 C264 1.368 . S
C261 C242 1.429 . S
C261 C255 1.429 . S
C261 C262 1.523 . S
C262 C243 1.368 . S
C262 C256 1.368 . S
C262 C261 1.523 . S
C263 C247 1.429 . S
C263 C259 1.429 . S
C263 C264 1.523 . S
C264 C248 1.368 . S
C264 C260 1.368 . S
C264 C263 1.523 . S
H265 C240 0.950 . S
H266 C242 0.950 . S
H267 C243 0.949 . S
H268 C245 0.950 . S
H269 C247 0.950 . S
C270 C271 1.349 . S
C270 C272 1.327 . S
C270 H295 0.950 . S
C271 C270 1.349 . S
C271 C287 1.349 . S
C272 C270 1.327 . S
C272 C291 1.429 . S
C272 H296 0.950 . S
C273 C290 1.574 . S
C273 C292 1.368 . S
C273 H297 0.949 . S
H274 C278 0.949 . S
C275 C276 1.349 . S
C275 C277 1.327 . S
C275 H298 0.950 . S
C276 C275 1.349 . S
C276 C288 1.349 . S
C277 C275 1.327 . S
C277 C293 1.429 . S
C277 H299 0.950 . S
C278 H274 0.949 . S
C278 C286 1.574 . S
C278 C294 1.368 . S
H279 C287 0.950 . S
H280 C285 0.950 . S
H281 C286 0.949 . S
H282 C288 0.950 . S
H283 C289 0.950 . S
H284 C290 0.949 . S
C285 H280 0.950 . S
C285 C287 1.327 . S
C285 C291 1.429 . S
C286 C278 1.574 . S
C286 H281 0.949 . S
C286 C292 1.368 . S
C287 C271 1.349 . S
C287 H279 0.950 . S
C287 C285 1.327 . S
C288 C276 1.349 . S
C288 H282 0.950 . S
C288 C289 1.327 . S
C289 H283 0.950 . S
C289 C288 1.327 . S
C289 C293 1.429 . S
C290 C273 1.574 . S
C290 H284 0.949 . S
C290 C294 1.368 . S
C291 C272 1.429 . S
C291 C285 1.429 . S
C291 C292 1.523 . S
C292 C273 1.368 . S
C292 C286 1.368 . S
C292 C291 1.523 . S
C293 C277 1.429 . S
C293 C289 1.429 . S
C293 C294 1.523 . S
C294 C278 1.368 . S
C294 C290 1.368 . S
C294 C293 1.523 . S
H295 C270 0.950 . S
H296 C272 0.950 . S
H297 C273 0.949 . S
H298 C275 0.950 . S
H299 C277 0.950 . S
C300 C301 1.349 . S
C300 C302 1.327 . S
C300 H325 0.950 . S
C301 C300 1.349 . S
C301 C317 1.349 . S
C302 C300 1.327 . S
C302 C321 1.429 . S
C302 H326 0.950 . S
C303 C320 1.574 . S
C303 C322 1.368 . S
C303 H327 0.949 . S
H304 C308 0.949 . S
C305 C306 1.349 . S
C305 C307 1.327 . S
C305 H328 0.950 . S
C306 C305 1.349 . S
C306 C318 1.349 . S
C307 C305 1.327 . S
C307 C323 1.429 . S
C307 H329 0.950 . S
C308 H304 0.949 . S
C308 C316 1.574 . S
C308 C324 1.368 . S
H309 C317 0.950 . S
H310 C315 0.950 . S
H311 C316 0.949 . S
H312 C318 0.950 . S
H313 C319 0.950 . S
H314 C320 0.949 . S
C315 H310 0.950 . S
C315 C317 1.327 . S
C315 C321 1.429 . S
C316 C308 1.574 . S
C316 H311 0.949 . S
C316 C322 1.368 . S
C317 C301 1.349 . S
C317 H309 0.950 . S
C317 C315 1.327 . S
C318 C306 1.349 . S
C318 H312 0.950 . S
C318 C319 1.327 . S
C319 H313 0.950 . S
C319 C318 1.327 . S
C319 C323 1.429 . S
C320 C303 1.574 . S
C320 H314 0.949 . S
C320 C324 1.368 . S
C321 C302 1.429 . S
C321 C315 1.429 . S
C321 C322 1.523 . S
C322 C303 1.368 . S
C322 C316 1.368 . S
C322 C321 1.523 . S
C323 C307 1.429 . S
C323 C319 1.429 . S
C323 C324 1.523 . S
C324 C308 1.368 . S
C324 C320 1.368 . S
C324 C323 1.523 . S
H325 C300 0.950 . S
H326 C302 0.950 . S
H327 C303 0.949 . S
H328 C305 0.950 . S
H329 C307 0.950 . S
C330 C331 1.349 . S
C330 C332 1.327 . S
C330 H355 0.950 . S
C331 C330 1.349 . S
C331 C347 1.349 . S
C332 C330 1.327 . S
C332 C351 1.429 . S
C332 H356 0.950 . S
C333 C350 1.574 . S
C333 C352 1.368 . S
C333 H357 0.949 . S
H334 C338 0.949 . S
C335 C336 1.349 . S
C335 C337 1.327 . S
C335 H358 0.950 . S
C336 C335 1.349 . S
C336 C348 1.349 . S
C337 C335 1.327 . S
C337 C353 1.429 . S
C337 H359 0.950 . S
C338 H334 0.949 . S
C338 C346 1.574 . S
C338 C354 1.368 . S
H339 C347 0.950 . S
H340 C345 0.950 . S
H341 C346 0.949 . S
H342 C348 0.950 . S
H343 C349 0.950 . S
H344 C350 0.949 . S
C345 H340 0.950 . S
C345 C347 1.327 . S
C345 C351 1.429 . S
C346 C338 1.574 . S
C346 H341 0.949 . S
C346 C352 1.368 . S
C347 C331 1.349 . S
C347 H339 0.950 . S
C347 C345 1.327 . S
C348 C336 1.349 . S
C348 H342 0.950 . S
C348 C349 1.327 . S
C349 H343 0.950 . S
C349 C348 1.327 . S
C349 C353 1.429 . S
C350 C333 1.574 . S
C350 H344 0.949 . S
C350 C354 1.368 . S
C351 C332 1.429 . S
C351 C345 1.429 . S
C351 C352 1.523 . S
C352 C333 1.368 . S
C352 C346 1.368 . S
C352 C351 1.523 . S
C353 C337 1.429 . S
C353 C349 1.429 . S
C353 C354 1.523 . S
C354 C338 1.368 . S
C354 C350 1.368 . S
C354 C353 1.523 . S
H355 C330 0.950 . S
H356 C332 0.950 . S
H357 C333 0.949 . S
H358 C335 0.950 . S
H359 C337 0.950 . S
C360 C361 1.349 . S
C360 C362 1.327 . S
C360 H385 0.950 . S
C361 C360 1.349 . S
C361 C377 1.349 . S
C362 C360 1.327 . S
C362 C381 1.429 . S
C362 H386 0.950 . S
C363 C380 1.574 1_565 S
C363 C382 1.368 . S
C363 H387 0.949 . S
H364 C368 0.949 . S
C365 C366 1.349 . S
C365 C367 1.327 . S
C365 H388 0.950 . S
C366 C365 1.349 . S
C366 C378 1.349 . S
C367 C365 1.327 . S
C367 C383 1.429 . S
C367 H389 0.950 . S
C368 H364 0.949 . S
C368 C376 1.574 1_545 S
C368 C384 1.368 . S
H369 C377 0.950 . S
H370 C375 0.950 . S
H371 C376 0.949 . S
H372 C378 0.950 . S
H373 C379 0.950 . S
H374 C380 0.949 . S
C375 H370 0.950 . S
C375 C377 1.327 . S
C375 C381 1.429 . S
C376 C368 1.574 1_565 S
C376 H371 0.949 . S
C376 C382 1.368 . S
C377 C361 1.349 . S
C377 H369 0.950 . S
C377 C375 1.327 . S
C378 C366 1.349 . S
C378 H372 0.950 . S
C378 C379 1.327 . S
C379 H373 0.950 . S
C379 C378 1.327 . S
C379 C383 1.429 . S
C380 C363 1.574 1_545 S
C380 H374 0.949 . S
C380 C384 1.368 . S
C381 C362 1.429 . S
C381 C375 1.429 . S
C381 C382 1.523 . S
C382 C363 1.368 . S
C382 C376 1.368 . S
C382 C381 1.523 . S
C383 C367 1.429 . S
C383 C379 1.429 . S
C383 C384 1.523 . S
C384 C368 1.368 . S
C384 C380 1.368 . S
C384 C383 1.523 . S
H385 C360 0.950 . S
H386 C362 0.950 . S
H387 C363 0.949 . S
H388 C365 0.950 . S
H389 C367 0.950 . S
C390 C391 1.349 . S
C390 C392 1.327 . S
C390 H415 0.950 . S
C391 C390 1.349 . S
C391 C407 1.349 . S
C392 C390 1.327 . S
C392 C411 1.429 . S
C392 H416 0.950 . S
C393 C410 1.574 . S
C393 C412 1.368 . S
C393 H417 0.949 . S
H394 C398 0.949 . S
C395 C396 1.349 . S
C395 C397 1.327 . S
C395 H418 0.950 . S
C396 C395 1.349 . S
C396 C408 1.349 . S
C397 C395 1.327 . S
C397 C413 1.429 . S
C397 H419 0.950 . S
C398 H394 0.949 . S
C398 C406 1.574 . S
C398 C414 1.368 . S
H399 C407 0.950 . S
H400 C405 0.950 . S
H401 C406 0.949 . S
H402 C408 0.950 . S
H403 C409 0.950 . S
H404 C410 0.949 . S
C405 H400 0.950 . S
C405 C407 1.327 . S
C405 C411 1.429 . S
C406 C398 1.574 . S
C406 H401 0.949 . S
C406 C412 1.368 . S
C407 C391 1.349 . S
C407 H399 0.950 . S
C407 C405 1.327 . S
C408 C396 1.349 . S
C408 H402 0.950 . S
C408 C409 1.327 . S
C409 H403 0.950 . S
C409 C408 1.327 . S
C409 C413 1.429 . S
C410 C393 1.574 . S
C410 H404 0.949 . S
C410 C414 1.368 . S
C411 C392 1.429 . S
C411 C405 1.429 . S
C411 C412 1.523 . S
C412 C393 1.368 . S
C412 C406 1.368 . S
C412 C411 1.523 . S
C413 C397 1.429 . S
C413 C409 1.429 . S
C413 C414 1.523 . S
C414 C398 1.368 . S
C414 C410 1.368 . S
C414 C413 1.523 . S
H415 C390 0.950 . S
H416 C392 0.950 . S
H417 C393 0.949 . S
H418 C395 0.950 . S
H419 C397 0.950 . S
C420 C421 1.349 . S
C420 C422 1.327 . S
C420 H445 0.950 . S
C421 C420 1.349 . S
C421 C437 1.349 . S
C422 C420 1.327 . S
C422 C441 1.429 . S
C422 H446 0.950 . S
C423 C440 1.574 1_565 S
C423 C442 1.368 . S
C423 H447 0.949 . S
H424 C428 0.949 . S
C425 C426 1.349 . S
C425 C427 1.327 . S
C425 H448 0.950 . S
C426 C425 1.349 . S
C426 C438 1.349 . S
C427 C425 1.327 . S
C427 C443 1.429 . S
C427 H449 0.950 . S
C428 H424 0.949 . S
C428 C436 1.574 1_545 S
C428 C444 1.368 . S
H429 C437 0.950 . S
H430 C435 0.950 . S
H431 C436 0.949 . S
H432 C438 0.950 . S
H433 C439 0.950 . S
H434 C440 0.949 . S
C435 H430 0.950 . S
C435 C437 1.327 . S
C435 C441 1.429 . S
C436 C428 1.574 1_565 S
C436 H431 0.949 . S
C436 C442 1.368 . S
C437 C421 1.349 . S
C437 H429 0.950 . S
C437 C435 1.327 . S
C438 C426 1.349 . S
C438 H432 0.950 . S
C438 C439 1.327 . S
C439 H433 0.950 . S
C439 C438 1.327 . S
C439 C443 1.429 . S
C440 C423 1.574 1_545 S
C440 H434 0.949 . S
C440 C444 1.368 . S
C441 C422 1.429 . S
C441 C435 1.429 . S
C441 C442 1.523 . S
C442 C423 1.368 . S
C442 C436 1.368 . S
C442 C441 1.523 . S
C443 C427 1.429 . S
C443 C439 1.429 . S
C443 C444 1.523 . S
C444 C428 1.368 . S
C444 C440 1.368 . S
C444 C443 1.523 . S
H445 C420 0.950 . S
H446 C422 0.950 . S
H447 C423 0.949 . S
H448 C425 0.950 . S
H449 C427 0.950 . S
C450 C451 1.349 . S
C450 C452 1.327 . S
C450 H475 0.950 . S
C451 C450 1.349 . S
C451 C467 1.349 . S
C452 C450 1.327 . S
C452 C471 1.429 . S
C452 H476 0.950 . S
C453 C470 1.574 . S
C453 C472 1.368 . S
C453 H477 0.949 . S
H454 C458 0.949 . S
C455 C456 1.349 . S
C455 C457 1.327 . S
C455 H478 0.950 . S
C456 C455 1.349 . S
C456 C468 1.349 . S
C457 C455 1.327 . S
C457 C473 1.429 . S
C457 H479 0.950 . S
C458 H454 0.949 . S
C458 C466 1.574 . S
C458 C474 1.368 . S
H459 C467 0.950 . S
H460 C465 0.950 . S
H461 C466 0.949 . S
H462 C468 0.950 . S
H463 C469 0.950 . S
H464 C470 0.949 . S
C465 H460 0.950 . S
C465 C467 1.327 . S
C465 C471 1.429 . S
C466 C458 1.574 . S
C466 H461 0.949 . S
C466 C472 1.368 . S
C467 C451 1.349 . S
C467 H459 0.950 . S
C467 C465 1.327 . S
C468 C456 1.349 . S
C468 H462 0.950 . S
C468 C469 1.327 . S
C469 H463 0.950 . S
C469 C468 1.327 . S
C469 C473 1.429 . S
C470 C453 1.574 . S
C470 H464 0.949 . S
C470 C474 1.368 . S
C471 C452 1.429 . S
C471 C465 1.429 . S
C471 C472 1.523 . S
C472 C453 1.368 . S
C472 C466 1.368 . S
C472 C471 1.523 . S
C473 C457 1.429 . S
C473 C469 1.429 . S
C473 C474 1.523 . S
C474 C458 1.368 . S
C474 C470 1.368 . S
C474 C473 1.523 . S
H475 C450 0.950 . S
H476 C452 0.950 . S
H477 C453 0.949 . S
H478 C455 0.950 . S
H479 C457 0.950 . S
C480 C481 1.349 . S
C480 C482 1.327 . S
C480 H505 0.950 . S
C481 C480 1.349 . S
C481 C497 1.349 . S
C482 C480 1.327 . S
C482 C501 1.429 . S
C482 H506 0.950 . S
C483 C500 1.574 . S
C483 C502 1.368 . S
C483 H507 0.949 . S
H484 C488 0.949 . S
C485 C486 1.349 . S
C485 C487 1.327 . S
C485 H508 0.950 . S
C486 C485 1.349 . S
C486 C498 1.349 . S
C487 C485 1.327 . S
C487 C503 1.429 . S
C487 H509 0.950 . S
C488 H484 0.949 . S
C488 C496 1.574 . S
C488 C504 1.368 . S
H489 C497 0.950 . S
H490 C495 0.950 . S
H491 C496 0.949 . S
H492 C498 0.950 . S
H493 C499 0.950 . S
H494 C500 0.949 1_556 S
C495 H490 0.950 . S
C495 C497 1.327 . S
C495 C501 1.429 . S
C496 C488 1.574 . S
C496 H491 0.949 . S
C496 C502 1.368 . S
C497 C481 1.349 . S
C497 H489 0.950 . S
C497 C495 1.327 . S
C498 C486 1.349 . S
C498 H492 0.950 . S
C498 C499 1.327 . S
C499 H493 0.950 . S
C499 C498 1.327 . S
C499 C503 1.429 . S
C500 C483 1.574 . S
C500 H494 0.949 1_554 S
C500 C504 1.368 . S
C501 C482 1.429 . S
C501 C495 1.429 . S
C501 C502 1.523 . S
C502 C483 1.368 . S
C502 C496 1.368 . S
C502 C501 1.523 . S
C503 C487 1.429 . S
C503 C499 1.429 . S
C503 C504 1.523 1_556 S
C504 C488 1.368 . S
C504 C500 1.368 . S
C504 C503 1.523 1_554 S
H505 C480 0.950 . S
H506 C482 0.950 . S
H507 C483 0.949 . S
H508 C485 0.950 . S
H509 C487 0.950 . S
C510 C511 1.349 1_556 S
C510 C512 1.327 . S
C510 H535 0.950 . S
C511 C510 1.349 1_554 S
C511 C527 1.349 . S
C512 C510 1.327 . S
C512 C531 1.429 1_556 S
C512 H536 0.950 . S
C513 C530 1.574 1_565 S
C513 C532 1.368 . S
C513 H537 0.949 . S
H514 C518 0.949 . S
C515 C516 1.349 . S
C515 C517 1.323 1_556 S
C515 H538 0.950 1_556 S
C516 C515 1.349 . S
C516 C528 1.349 . S
C517 C515 1.323 1_554 S
C517 C533 1.420 1_554 S
C517 H539 0.963 . S
C518 H514 0.949 . S
C518 C526 1.574 1_545 S
C518 C534 1.368 . S
H519 C527 0.950 . S
H520 C525 0.950 . S
H521 C526 0.949 . S
H522 C528 0.950 . S
H523 C529 0.950 . S
H524 C530 0.949 . S
C525 H520 0.950 . S
C525 C527 1.327 . S
C525 C531 1.429 . S
C526 C518 1.574 1_565 S
C526 H521 0.949 . S
C526 C532 1.368 1_556 S
C527 C511 1.349 . S
C527 H519 0.950 . S
C527 C525 1.327 . S
C528 C516 1.349 . S
C528 H522 0.950 . S
C528 C529 1.327 . S
C529 H523 0.950 . S
C529 C528 1.327 . S
C529 C533 1.429 . S
C530 C513 1.574 1_545 S
C530 H524 0.949 . S
C530 C534 1.368 1_554 S
C531 C512 1.429 1_554 S
C531 C525 1.429 . S
C531 C532 1.523 . S
C532 C513 1.368 . S
C532 C526 1.368 1_554 S
C532 C531 1.523 . S
C533 C517 1.420 1_556 S
C533 C529 1.429 . S
C533 C534 1.523 . S
C534 C518 1.368 . S
C534 C530 1.368 1_556 S
C534 C533 1.523 . S
H535 C510 0.950 . S
H536 C512 0.950 . S
H537 C513 0.949 . S
H538 C515 0.950 1_554 S
H539 C517 0.963 . S
C540 C541 1.349 . S
C540 C542 1.327 . S
C540 H565 0.950 . S
C541 C540 1.349 . S
C541 C557 1.349 . S
C542 C540 1.327 . S
C542 C561 1.429 . S
C542 H566 0.950 . S
C543 C560 1.574 . S
C543 C562 1.368 1_554 S
C543 H567 0.949 . S
H544 C548 0.949 . S
C545 C546 1.349 . S
C545 C547 1.327 . S
C545 H568 0.950 . S
C546 C545 1.349 . S
C546 C558 1.349 1_554 S
C547 C545 1.327 . S
C547 C563 1.429 . S
C547 H569 0.950 . S
C548 H544 0.949 . S
C548 C556 1.574 . S
C548 C564 1.368 . S
H549 C557 0.950 1_554 S
H550 C555 0.950 1_554 S
H551 C556 0.949 . S
H552 C558 0.950 . S
H553 C559 0.950 . S
H554 C560 0.949 . S
C555 H550 0.950 1_556 S
C555 C557 1.327 . S
C555 C561 1.429 . S
C556 C548 1.574 . S
C556 H551 0.949 . S
C556 C562 1.368 . S
C557 C541 1.349 . S
C557 H549 0.950 1_556 S
C557 C555 1.327 . S
C558 C546 1.349 1_556 S
C558 H552 0.950 . S
C558 C559 1.327 . S
C559 H553 0.950 . S
C559 C558 1.327 . S
C559 C563 1.429 1_556 S
C560 C543 1.574 . S
C560 H554 0.949 . S
C560 C564 1.368 1_554 S
C561 C542 1.429 . S
C561 C555 1.429 . S
C561 C562 1.523 . S
C562 C543 1.368 1_556 S
C562 C556 1.368 . S
C562 C561 1.523 . S
C563 C547 1.429 . S
C563 C559 1.429 1_554 S
C563 C564 1.523 1_554 S
C564 C548 1.368 . S
C564 C560 1.368 1_556 S
C564 C563 1.523 1_556 S
H565 C540 0.950 . S
H566 C542 0.950 . S
H567 C543 0.949 . S
H568 C545 0.950 . S
H569 C547 0.950 . S
C570 C571 1.349 . S
C570 C572 1.327 . S
C570 H595 0.950 . S
C571 C570 1.349 . S
C571 C587 1.349 1_556 S
C572 C570 1.327 . S
C572 C591 1.429 . S
C572 H596 0.950 . S
C573 C590 1.574 1_545 S
C573 C592 1.368 1_554 S
C573 H597 0.949 . S
H574 C578 0.949 . S
C575 C576 1.349 . S
C575 C577 1.327 . S
C575 H598 0.950 . S
C576 C575 1.349 . S
C576 C588 1.349 . S
C577 C575 1.327 . S
C577 C593 1.429 . S
C577 H599 0.950 . S
C578 H574 0.949 . S
C578 C586 1.574 1_565 S
C578 C594 1.368 1_556 S
H579 C587 0.950 . S
H580 C585 0.950 . S
H581 C586 0.949 . S
H582 C588 0.950 1_556 S
H583 C589 0.950 . S
H584 C590 0.949 . S
C585 H580 0.950 . S
C585 C587 1.327 . S
C585 C591 1.429 1_554 S
C586 C578 1.574 1_545 S
C586 H581 0.949 . S
C586 C592 1.368 . S
C587 C571 1.349 1_554 S
C587 H579 0.950 . S
C587 C585 1.327 . S
C588 C576 1.349 . S
C588 H582 0.950 1_554 S
C588 C589 1.327 1_554 S
C589 H583 0.950 . S
C589 C588 1.327 1_556 S
C589 C593 1.429 1_556 S
C590 C573 1.574 1_565 S
C590 H584 0.949 . S
C590 C594 1.368 . S
C591 C572 1.429 . S
C591 C585 1.429 1_556 S
C591 C592 1.523 . S
C592 C573 1.368 1_556 S
C592 C586 1.368 . S
C592 C591 1.523 . S
C593 C577 1.429 . S
C593 C589 1.429 1_554 S
C593 C594 1.523 . S
C594 C578 1.368 1_554 S
C594 C590 1.368 . S
C594 C593 1.523 . S
H595 C570 0.950 . S
H596 C572 0.950 . S
H597 C573 0.949 . S
H598 C575 0.950 . S
H599 C577 0.950 . S
C600 C601 1.349 . S
C600 C602 1.327 . S
C600 H625 0.950 . S
C601 C600 1.349 . S
C601 C617 1.349 . S
C602 C600 1.327 . S
C602 C621 1.429 . S
C602 H626 0.950 . S
C603 C620 1.574 . S
C603 C622 1.368 . S
C603 H627 0.949 . S
H604 C608 0.949 . S
C605 C606 1.349 . S
C605 C607 1.327 . S
C605 H628 0.950 . S
C606 C605 1.349 . S
C606 C618 1.349 . S
C607 C605 1.327 . S
C607 C623 1.429 . S
C607 H629 0.950 . S
C608 H604 0.949 . S
C608 C616 1.574 . S
C608 C624 1.368 . S
H609 C617 0.950 . S
H610 C615 0.950 . S
H611 C616 0.949 . S
H612 C618 0.950 . S
H613 C619 0.950 . S
H614 C620 0.949 . S
C615 H610 0.950 . S
C615 C617 1.327 . S
C615 C621 1.429 . S
C616 C608 1.574 . S
C616 H611 0.949 . S
C616 C622 1.368 . S
C617 C601 1.349 . S
C617 H609 0.950 . S
C617 C615 1.327 . S
C618 C606 1.349 . S
C618 H612 0.950 . S
C618 C619 1.327 . S
C619 H613 0.950 . S
C619 C618 1.327 . S
C619 C623 1.429 . S
C620 C603 1.574 . S
C620 H614 0.949 . S
C620 C624 1.368 . S
C621 C602 1.429 . S
C621 C615 1.429 . S
C621 C622 1.523 . S
C622 C603 1.368 . S
C622 C616 1.368 . S
C622 C621 1.523 . S
C623 C607 1.429 . S
C623 C619 1.429 . S
C623 C624 1.523 1_556 S
C624 C608 1.368 . S
C624 C620 1.368 . S
C624 C623 1.523 1_554 S
H625 C600 0.950 . S
H626 C602 0.950 . S
H627 C603 0.949 . S
H628 C605 0.950 . S
H629 C607 0.950 . S
C630 C631 1.349 . S
C630 C632 1.327 . S
C630 H655 0.950 . S
C631 C630 1.349 . S
C631 C647 1.349 . S
C632 C630 1.327 . S
C632 C651 1.429 . S
C632 H656 0.950 . S
C633 C650 1.574 . S
C633 C652 1.368 . S
C633 H657 0.949 . S
H634 C638 0.949 1_556 S
C635 C636 1.349 . S
C635 C637 1.327 . S
C635 H658 0.950 . S
C636 C635 1.349 . S
C636 C648 1.349 . S
C637 C635 1.327 . S
C637 C653 1.429 . S
C637 H659 0.950 . S
C638 H634 0.949 1_554 S
C638 C646 1.574 . S
C638 C654 1.368 1_554 S
H639 C647 0.950 . S
H640 C645 0.950 . S
H641 C646 0.949 . S
H642 C648 0.950 . S
H643 C649 0.950 . S
H644 C650 0.949 1_556 S
C645 H640 0.950 . S
C645 C647 1.327 . S
C645 C651 1.429 . S
C646 C638 1.574 . S
C646 H641 0.949 . S
C646 C652 1.368 . S
C647 C631 1.349 . S
C647 H639 0.950 . S
C647 C645 1.327 . S
C648 C636 1.349 . S
C648 H642 0.950 . S
C648 C649 1.327 . S
C649 H643 0.950 . S
C649 C648 1.327 . S
C649 C653 1.429 . S
C650 C633 1.574 . S
C650 H644 0.949 1_554 S
C650 C654 1.368 1_554 S
C651 C632 1.429 . S
C651 C645 1.429 . S
C651 C652 1.523 . S
C652 C633 1.368 . S
C652 C646 1.368 . S
C652 C651 1.523 . S
C653 C637 1.429 . S
C653 C649 1.429 . S
C653 C654 1.523 . S
C654 C638 1.368 1_556 S
C654 C650 1.368 1_556 S
C654 C653 1.523 . S
H655 C630 0.950 . S
H656 C632 0.950 . S
H657 C633 0.949 . S
H658 C635 0.950 . S
H659 C637 0.950 . S
C660 C661 1.349 . S
C660 C662 1.327 . S
C660 H685 0.950 . S
C661 C660 1.349 . S
C661 C677 1.349 . S
C662 C660 1.327 . S
C662 C681 1.429 . S
C662 H686 0.950 . S
C663 C680 1.574 . S
C663 C682 1.368 1_556 S
C663 H687 0.949 1_556 S
H664 C668 0.949 . S
C665 C666 1.349 . S
C665 C667 1.327 . S
C665 H688 0.950 . S
C666 C665 1.349 . S
C666 C678 1.349 . S
C667 C665 1.327 . S
C667 C683 1.429 . S
C667 H689 0.950 . S
C668 H664 0.949 . S
C668 C676 1.574 . S
C668 C684 1.368 . S
H669 C677 0.950 . S
H670 C675 0.950 . S
H671 C676 0.949 1_554 S
H672 C678 0.950 . S
H673 C679 0.950 . S
H674 C680 0.949 . S
C675 H670 0.950 . S
C675 C677 1.327 . S
C675 C681 1.429 . S
C676 C668 1.574 . S
C676 H671 0.949 1_556 S
C676 C682 1.368 1_556 S
C677 C661 1.349 . S
C677 H669 0.950 . S
C677 C675 1.327 . S
C678 C666 1.349 . S
C678 H672 0.950 . S
C678 C679 1.327 . S
C679 H673 0.950 . S
C679 C678 1.327 . S
C679 C683 1.429 . S
C680 C663 1.574 . S
C680 H674 0.949 . S
C680 C684 1.368 . S
C681 C662 1.429 . S
C681 C675 1.429 . S
C681 C682 1.523 . S
C682 C663 1.368 1_554 S
C682 C676 1.368 1_554 S
C682 C681 1.523 . S
C683 C667 1.429 . S
C683 C679 1.429 . S
C683 C684 1.523 . S
C684 C668 1.368 . S
C684 C680 1.368 . S
C684 C683 1.523 . S
H685 C660 0.950 . S
H686 C662 0.950 . S
H687 C663 0.949 1_554 S
H688 C665 0.950 . S
H689 C667 0.950 . S
C690 C691 1.349 . S
C690 C692 1.327 . S
C690 H715 0.950 . S
C691 C690 1.349 . S
C691 C707 1.349 . S
C692 C690 1.327 . S
C692 C711 1.429 . S
C692 H716 0.950 . S
C693 C710 1.574 . S
C693 C712 1.368 . S
C693 H717 0.949 . S
H694 C698 0.949 . S
C695 C696 1.349 . S
C695 C697 1.327 . S
C695 H718 0.950 . S
C696 C695 1.349 . S
C696 C708 1.349 . S
C697 C695 1.327 . S
C697 C713 1.429 . S
C697 H719 0.950 . S
C698 H694 0.949 . S
C698 C706 1.574 . S
C698 C714 1.368 . S
H699 C707 0.950 . S
H700 C705 0.950 . S
H701 C706 0.949 . S
H702 C708 0.950 . S
H703 C709 0.950 . S
H704 C710 0.949 . S
C705 H700 0.950 . S
C705 C707 1.327 . S
C705 C711 1.429 . S
C706 C698 1.574 . S
C706 H701 0.949 . S
C706 C712 1.368 . S
C707 C691 1.349 . S
C707 H699 0.950 . S
C707 C705 1.327 . S
C708 C696 1.349 . S
C708 H702 0.950 . S
C708 C709 1.327 . S
C709 H703 0.950 . S
C709 C708 1.327 . S
C709 C713 1.429 . S
C710 C693 1.574 . S
C710 H704 0.949 . S
C710 C714 1.368 . S
C711 C692 1.429 . S
C711 C705 1.429 . S
C711 C712 1.523 . S
C712 C693 1.368 . S
C712 C706 1.368 . S
C712 C711 1.523 . S
C713 C697 1.429 . S
C713 C709 1.429 . S
C713 C714 1.523 1_554 S
C714 C698 1.368 . S
C714 C710 1.368 . S
C714 C713 1.523 1_556 S
H715 C690 0.950 . S
H716 C692 0.950 . S
H717 C693 0.949 . S
H718 C695 0.950 . S
H719 C697 0.950 . S
C720 C721 1.349 . S
C720 C722 1.327 . S
C720 H745 0.950 . S
C721 C720 1.349 . S
C721 C737 1.349 . S
C722 C720 1.327 . S
C722 C741 1.429 . S
C722 H746 0.950 . S
C723 C740 1.574 . S
C723 C742 1.368 . S
C723 H747 0.949 . S
H724 C728 0.949 . S
C725 C726 1.349 . S
C725 C727 1.327 . S
C725 H748 0.950 . S
C726 C725 1.349 . S
C726 C738 1.349 . S
C727 C725 1.327 . S
C727 C743 1.429 . S
C727 H749 0.950 . S
C728 H724 0.949 . S
C728 C736 1.574 . S
C728 C744 1.368 . S
H729 C737 0.950 . S
H730 C735 0.950 . S
H731 C736 0.949 . S
H732 C738 0.950 . S
H733 C739 0.950 . S
H734 C740 0.949 . S
C735 H730 0.950 . S
C735 C737 1.327 . S
C735 C741 1.429 . S
C736 C728 1.574 . S
C736 H731 0.949 . S
C736 C742 1.368 . S
C737 C721 1.349 . S
C737 H729 0.950 . S
C737 C735 1.327 . S
C738 C726 1.349 . S
C738 H732 0.950 . S
C738 C739 1.327 . S
C739 H733 0.950 . S
C739 C738 1.327 . S
C739 C743 1.429 . S
C740 C723 1.574 . S
C740 H734 0.949 . S
C740 C744 1.368 . S
C741 C722 1.429 . S
C741 C735 1.429 . S
C741 C742 1.523 . S
C742 C723 1.368 . S
C742 C736 1.368 . S
C742 C741 1.523 . S
C743 C727 1.429 . S
C743 C739 1.429 . S
C743 C744 1.523 . S
C744 C728 1.368 . S
C744 C740 1.368 . S
C744 C743 1.523 . S
H745 C720 0.950 . S
H746 C722 0.950 . S
H747 C723 0.949 . S
H748 C725 0.950 . S
H749 C727 0.950 . S
C750 C751 1.349 . S
C750 C752 1.327 . S
C750 H775 0.950 . S
C751 C750 1.349 . S
C751 C767 1.349 . S
C752 C750 1.327 . S
C752 C771 1.429 . S
C752 H776 0.950 . S
C753 C770 1.574 . S
C753 C772 1.368 . S
C753 H777 0.949 . S
H754 C758 0.949 . S
C755 C756 1.349 . S
C755 C757 1.327 . S
C755 H778 0.950 . S
C756 C755 1.349 . S
C756 C768 1.349 . S
C757 C755 1.327 . S
C757 C773 1.429 . S
C757 H779 0.950 . S
C758 H754 0.949 . S
C758 C766 1.574 . S
C758 C774 1.368 . S
H759 C767 0.950 . S
H760 C765 0.950 . S
H761 C766 0.949 . S
H762 C768 0.950 . S
H763 C769 0.950 . S
H764 C770 0.949 . S
C765 H760 0.950 . S
C765 C767 1.327 . S
C765 C771 1.429 . S
C766 C758 1.574 . S
C766 H761 0.949 . S
C766 C772 1.368 . S
C767 C751 1.349 . S
C767 H759 0.950 . S
C767 C765 1.327 . S
C768 C756 1.349 . S
C768 H762 0.950 . S
C768 C769 1.327 . S
C769 H763 0.950 . S
C769 C768 1.327 . S
C769 C773 1.429 . S
C770 C753 1.574 . S
C770 H764 0.949 . S
C770 C774 1.368 . S
C771 C752 1.429 . S
C771 C765 1.429 . S
C771 C772 1.523 . S
C772 C753 1.368 . S
C772 C766 1.368 . S
C772 C771 1.523 . S
C773 C757 1.429 . S
C773 C769 1.429 . S
C773 C774 1.523 . S
C774 C758 1.368 . S
C774 C770 1.368 . S
C774 C773 1.523 . S
H775 C750 0.950 . S
H776 C752 0.950 . S
H777 C753 0.949 . S
H778 C755 0.950 . S
H779 C757 0.950 . S
C780 C781 1.349 . S
C780 C782 1.327 . S
C780 H805 0.950 . S
C781 C780 1.349 . S
C781 C797 1.349 . S
C782 C780 1.327 . S
C782 C801 1.429 . S
C782 H806 0.950 . S
C783 C800 1.574 . S
C783 C802 1.368 . S
C783 H807 0.949 . S
H784 C788 0.949 . S
C785 C786 1.349 . S
C785 C787 1.327 . S
C785 H808 0.950 . S
C786 C785 1.349 . S
C786 C798 1.349 . S
C787 C785 1.327 . S
C787 C803 1.429 . S
C787 H809 0.950 . S
C788 H784 0.949 . S
C788 C796 1.574 . S
C788 C804 1.368 . S
H789 C797 0.950 . S
H790 C795 0.950 . S
H791 C796 0.949 . S
H792 C798 0.950 . S
H793 C799 0.950 . S
H794 C800 0.949 . S
C795 H790 0.950 . S
C795 C797 1.327 . S
C795 C801 1.429 . S
C796 C788 1.574 . S
C796 H791 0.949 . S
C796 C802 1.368 . S
C797 C781 1.349 . S
C797 H789 0.950 . S
C797 C795 1.327 . S
C798 C786 1.349 . S
C798 H792 0.950 . S
C798 C799 1.327 . S
C799 H793 0.950 . S
C799 C798 1.327 . S
C799 C803 1.429 . S
C800 C783 1.574 . S
C800 H794 0.949 . S
C800 C804 1.368 . S
C801 C782 1.429 . S
C801 C795 1.429 . S
C801 C802 1.523 . S
C802 C783 1.368 . S
C802 C796 1.368 . S
C802 C801 1.523 . S
C803 C787 1.429 . S
C803 C799 1.429 . S
C803 C804 1.523 . S
C804 C788 1.368 . S
C804 C800 1.368 . S
C804 C803 1.523 . S
H805 C780 0.950 . S
H806 C782 0.950 . S
H807 C783 0.949 . S
H808 C785 0.950 . S
H809 C787 0.950 . S
C810 C811 1.349 . S
C810 C812 1.327 . S
C810 H835 0.950 . S
C811 C810 1.349 . S
C811 C827 1.349 . S
C812 C810 1.327 . S
C812 C831 1.429 . S
C812 H836 0.950 . S
C813 C830 1.574 . S
C813 C832 1.368 . S
C813 H837 0.949 . S
H814 C818 0.949 . S
C815 C816 1.349 . S
C815 C817 1.327 . S
C815 H838 0.950 . S
C816 C815 1.349 . S
C816 C828 1.349 . S
C817 C815 1.327 . S
C817 C833 1.429 . S
C817 H839 0.950 . S
C818 H814 0.949 . S
C818 C826 1.574 . S
C818 C834 1.368 . S
H819 C827 0.950 . S
H820 C825 0.950 . S
H821 C826 0.949 . S
H822 C828 0.950 . S
H823 C829 0.950 . S
H824 C830 0.949 . S
C825 H820 0.950 . S
C825 C827 1.327 . S
C825 C831 1.429 . S
C826 C818 1.574 . S
C826 H821 0.949 . S
C826 C832 1.368 . S
C827 C811 1.349 . S
C827 H819 0.950 . S
C827 C825 1.327 . S
C828 C816 1.349 . S
C828 H822 0.950 . S
C828 C829 1.327 . S
C829 H823 0.950 . S
C829 C828 1.327 . S
C829 C833 1.429 . S
C830 C813 1.574 . S
C830 H824 0.949 . S
C830 C834 1.368 . S
C831 C812 1.429 . S
C831 C825 1.429 . S
C831 C832 1.523 . S
C832 C813 1.368 . S
C832 C826 1.368 . S
C832 C831 1.523 . S
C833 C817 1.429 . S
C833 C829 1.429 . S
C833 C834 1.523 . S
C834 C818 1.368 . S
C834 C830 1.368 . S
C834 C833 1.523 . S
H835 C810 0.950 . S
H836 C812 0.950 . S
H837 C813 0.949 . S
H838 C815 0.950 . S
H839 C817 0.950 . S
C840 C841 1.349 . S
C840 C842 1.327 . S
C840 H865 0.950 . S
C841 C840 1.349 . S
C841 C857 1.349 . S
C842 C840 1.327 . S
C842 C861 1.429 . S
C842 H866 0.950 . S
C843 C860 1.574 . S
C843 C862 1.368 . S
C843 H867 0.949 . S
H844 C848 0.949 . S
C845 C846 1.349 . S
C845 C847 1.327 . S
C845 H868 0.950 . S
C846 C845 1.349 . S
C846 C858 1.349 . S
C847 C845 1.327 . S
C847 C863 1.429 . S
C847 H869 0.950 . S
C848 H844 0.949 . S
C848 C856 1.574 . S
C848 C864 1.368 . S
H849 C857 0.950 . S
H850 C855 0.950 . S
H851 C856 0.949 . S
H852 C858 0.950 . S
H853 C859 0.950 . S
H854 C860 0.949 . S
C855 H850 0.950 . S
C855 C857 1.327 . S
C855 C861 1.429 . S
C856 C848 1.574 . S
C856 H851 0.949 . S
C856 C862 1.368 . S
C857 C841 1.349 . S
C857 H849 0.950 . S
C857 C855 1.327 . S
C858 C846 1.349 . S
C858 H852 0.950 . S
C858 C859 1.327 . S
C859 H853 0.950 . S
C859 C858 1.327 . S
C859 C863 1.429 . S
C860 C843 1.574 . S
C860 H854 0.949 . S
C860 C864 1.368 . S
C861 C842 1.429 . S
C861 C855 1.429 . S
C861 C862 1.523 . S
C862 C843 1.368 . S
C862 C856 1.368 . S
C862 C861 1.523 . S
C863 C847 1.429 . S
C863 C859 1.429 . S
C863 C864 1.523 1_655 S
C864 C848 1.368 . S
C864 C860 1.368 . S
C864 C863 1.523 1_455 S
H865 C840 0.950 . S
H866 C842 0.950 . S
H867 C843 0.949 . S
H868 C845 0.950 . S
H869 C847 0.950 . S
C870 C871 1.349 . S
C870 C872 1.327 . S
C870 H895 0.950 . S
C871 C870 1.349 . S
C871 C887 1.349 . S
C872 C870 1.327 . S
C872 C891 1.429 . S
C872 H896 0.950 . S
C873 C890 1.574 . S
C873 C892 1.368 . S
C873 H897 0.949 . S
H874 C878 0.949 . S
C875 C876 1.349 . S
C875 C877 1.327 . S
C875 H898 0.950 . S
C876 C875 1.349 . S
C876 C888 1.349 . S
C877 C875 1.327 . S
C877 C893 1.429 . S
C877 H899 0.950 . S
C878 H874 0.949 . S
C878 C886 1.574 . S
C878 C894 1.368 . S
H879 C887 0.950 . S
H880 C885 0.950 . S
H881 C886 0.949 . S
H882 C888 0.950 . S
H883 C889 0.950 . S
H884 C890 0.949 . S
C885 H880 0.950 . S
C885 C887 1.327 . S
C885 C891 1.429 . S
C886 C878 1.574 . S
C886 H881 0.949 . S
C886 C892 1.368 . S
C887 C871 1.349 . S
C887 H879 0.950 . S
C887 C885 1.327 . S
C888 C876 1.349 . S
C888 H882 0.950 . S
C888 C889 1.327 . S
C889 H883 0.950 . S
C889 C888 1.327 . S
C889 C893 1.429 . S
C890 C873 1.574 . S
C890 H884 0.949 . S
C890 C894 1.368 . S
C891 C872 1.429 . S
C891 C885 1.429 . S
C891 C892 1.523 . S
C892 C873 1.368 . S
C892 C886 1.368 . S
C892 C891 1.523 . S
C893 C877 1.429 . S
C893 C889 1.429 . S
C893 C894 1.523 1_455 S
C894 C878 1.368 . S
C894 C890 1.368 . S
C894 C893 1.523 1_655 S
H895 C870 0.950 . S
H896 C872 0.950 . S
H897 C873 0.949 . S
H898 C875 0.950 . S
H899 C877 0.950 . S
C900 C901 1.349 . S
C900 C902 1.327 . S
C900 H925 0.950 . S
C901 C900 1.349 . S
C901 C917 1.349 1_554 S
C902 C900 1.327 . S
C902 C921 1.429 . S
C902 H926 0.950 . S
C903 C920 1.574 . S
C903 C922 1.368 1_556 S
C903 H927 0.949 . S
H904 C908 0.949 . S
C905 C906 1.349 1_556 S
C905 C907 1.327 . S
C905 H928 0.950 . S
C906 C905 1.349 1_554 S
C906 C918 1.349 . S
C907 C905 1.327 . S
C907 C923 1.429 1_556 S
C907 H929 0.950 . S
C908 H904 0.949 . S
C908 C916 1.574 . S
C908 C924 1.368 . S
H909 C917 0.950 . S
H910 C915 0.950 . S
H911 C916 0.949 . S
H912 C918 0.950 . S
H913 C919 0.950 . S
H914 C920 0.949 . S
C915 H910 0.950 . S
C915 C917 1.327 . S
C915 C921 1.429 1_556 S
C916 C908 1.574 . S
C916 H911 0.949 . S
C916 C922 1.368 . S
C917 C901 1.349 1_556 S
C917 H909 0.950 . S
C917 C915 1.327 . S
C918 C906 1.349 . S
C918 H912 0.950 . S
C918 C919 1.327 . S
C919 H913 0.950 . S
C919 C918 1.327 . S
C919 C923 1.429 . S
C920 C903 1.574 . S
C920 H914 0.949 . S
C920 C924 1.368 1_556 S
C921 C902 1.429 . S
C921 C915 1.429 1_554 S
C921 C922 1.523 . S
C922 C903 1.368 1_554 S
C922 C916 1.368 . S
C922 C921 1.523 . S
C923 C907 1.429 1_554 S
C923 C919 1.429 . S
C923 C924 1.523 . S
C924 C908 1.368 . S
C924 C920 1.368 1_554 S
C924 C923 1.523 . S
H925 C900 0.950 . S
H926 C902 0.950 . S
H927 C903 0.949 . S
H928 C905 0.950 . S
H929 C907 0.950 . S
C930 C931 1.349 1_554 S
C930 C932 1.327 . S
C930 H955 0.950 . S
C931 C930 1.349 1_556 S
C931 C947 1.349 . S
C932 C930 1.327 . S
C932 C951 1.429 1_554 S
C932 H956 0.950 . S
C933 C950 1.574 . S
C933 C952 1.368 . S
C933 H957 0.949 . S
H934 C938 0.949 . S
C935 C936 1.349 . S
C935 C937 1.327 . S
C935 H958 0.950 . S
C936 C935 1.349 . S
C936 C948 1.349 1_556 S
C937 C935 1.327 . S
C937 C953 1.429 . S
C937 H959 0.950 . S
C938 H934 0.949 . S
C938 C946 1.574 . S
C938 C954 1.368 1_554 S
H939 C947 0.950 . S
H940 C945 0.950 . S
H941 C946 0.949 . S
H942 C948 0.950 . S
H943 C949 0.950 . S
H944 C950 0.949 . S
C945 H940 0.950 . S
C945 C947 1.327 . S
C945 C951 1.429 . S
C946 C938 1.574 . S
C946 H941 0.949 . S
C946 C952 1.368 1_554 S
C947 C931 1.349 . S
C947 H939 0.950 . S
C947 C945 1.327 . S
C948 C936 1.349 1_554 S
C948 H942 0.950 . S
C948 C949 1.327 . S
C949 H943 0.950 . S
C949 C948 1.327 . S
C949 C953 1.429 1_554 S
C950 C933 1.574 . S
C950 H944 0.949 . S
C950 C954 1.368 . S
C951 C932 1.429 1_556 S
C951 C945 1.429 . S
C951 C952 1.523 . S
C952 C933 1.368 . S
C952 C946 1.368 1_556 S
C952 C951 1.523 . S
C953 C937 1.429 . S
C953 C949 1.429 1_556 S
C953 C954 1.523 . S
C954 C938 1.368 1_556 S
C954 C950 1.368 . S
C954 C953 1.523 . S
H955 C930 0.950 . S
H956 C932 0.950 . S
H957 C933 0.949 . S
H958 C935 0.950 . S
H959 C937 0.950 . S
C241 C16 2.360 . S
C246 C237 2.360 . S
C271 N186 1.398 . S
C276 N44 1.398 . S
C301 N164 1.398 . S
C306 N66 1.398 . S
C331 C136 2.360 . S
C336 C117 2.360 . S
C361 C61 1.604 . S
C366 C10 1.599 . S
C391 C31 1.617 . S
C396 C100 1.627 . S
C421 C91 1.599 . S
C426 C40 1.604 . S
C451 C70 1.617 . S
C456 C1 1.627 . S
C481 C130 1.598 . S
C486 C181 1.604 . S
C511 C151 1.617 . S
C516 C220 1.627 . S
C541 C211 1.598 . S
C546 C160 1.604 . S
C571 C190 1.617 . S
C576 C121 1.627 . S
C601 N14 0.504 . S
C606 N6 0.504 . S
C631 C46 2.653 . S
C636 C57 2.653 . S
C661 C76 2.653 . S
C666 C87 2.653 . S
C691 N96 0.504 . S
C696 N104 0.504 . S
C721 N126 0.504 . S
C726 N134 0.504 . S
C751 C166 2.653 . S
C756 C177 2.653 . S
C781 C207 2.653 . S
C786 C196 2.653 . S
C811 N216 0.504 . S
C816 N224 0.504 . S
C841 C27 1.676 . S
C846 N36 1.612 . S
C871 C106 1.676 . S
C876 N74 1.612 . S
C901 C147 1.676 . S
C906 N156 1.612 . S
C931 C226 1.676 . S
C936 N194 1.612 . S
