# Generated by pormake.
# Topology wlb, (5)-cn, num edge types: 1
# Building blocks:
#     Node 0, Type 0, BuildingBlock: XOMCOT_clean_sbu_0, # of connection points: 5
#     Node 1, Type 0, BuildingBlock: XOMCOT_clean_sbu_0, # of connection points: 5
#     Node 2, Type 0, BuildingBlock: XOMCOT_clean_sbu_0, # of connection points: 5
#     Node 3, Type 0, BuildingBlock: XOMCOT_clean_sbu_0, # of connection points: 5
#     Node 4, Type 0, BuildingBlock: XOMCOT_clean_sbu_0, # of connection points: 5
#     Node 5, Type 0, BuildingBlock: XOMCOT_clean_sbu_0, # of connection points: 5
#     Node 6, Type 0, BuildingBlock: XOMCOT_clean_sbu_0, # of connection points: 5
#     Node 7, Type 0, BuildingBlock: XOMCOT_clean_sbu_0, # of connection points: 5
#     Node 8, Type 0, BuildingBlock: XOMCOT_clean_sbu_0, # of connection points: 5
#     Node 9, Type 0, BuildingBlock: XOMCOT_clean_sbu_0, # of connection points: 5
#     Node 10, Type 0, BuildingBlock: XOMCOT_clean_sbu_0, # of connection points: 5
#     Node 11, Type 0, BuildingBlock: XOMCOT_clean_sbu_0, # of connection points: 5
#     Node 12, Type 0, BuildingBlock: XOMCOT_clean_sbu_0, # of connection points: 5
#     Node 13, Type 0, BuildingBlock: XOMCOT_clean_sbu_0, # of connection points: 5
#     Node 14, Type 0, BuildingBlock: XOMCOT_clean_sbu_0, # of connection points: 5
#     Node 15, Type 0, BuildingBlock: XOMCOT_clean_sbu_0, # of connection points: 5
#     Node 16, Type 0, BuildingBlock: XOMCOT_clean_sbu_0, # of connection points: 5
#     Node 17, Type 0, BuildingBlock: XOMCOT_clean_sbu_0, # of connection points: 5
#     Edge 18, Type (0, 0), BuildingBlock: TEMPAE_clean_linker_10, # of connection points: 2
#     Edge 19, Type (0, 0), BuildingBlock: TEMPAE_clean_linker_10, # of connection points: 2
#     Edge 20, Type (0, 0), BuildingBlock: TEMPAE_clean_linker_10, # of connection points: 2
#     Edge 21, Type (0, 0), BuildingBlock: TEMPAE_clean_linker_10, # of connection points: 2
#     Edge 22, Type (0, 0), BuildingBlock: TEMPAE_clean_linker_10, # of connection points: 2
#     Edge 23, Type (0, 0), BuildingBlock: TEMPAE_clean_linker_10, # of connection points: 2
#     Edge 24, Type (0, 0), BuildingBlock: TEMPAE_clean_linker_10, # of connection points: 2
#     Edge 25, Type (0, 0), BuildingBlock: TEMPAE_clean_linker_10, # of connection points: 2
#     Edge 26, Type (0, 0), BuildingBlock: TEMPAE_clean_linker_10, # of connection points: 2
#     Edge 27, Type (0, 0), BuildingBlock: TEMPAE_clean_linker_10, # of connection points: 2
#     Edge 28, Type (0, 0), BuildingBlock: TEMPAE_clean_linker_10, # of connection points: 2
#     Edge 29, Type (0, 0), BuildingBlock: TEMPAE_clean_linker_10, # of connection points: 2
#     Edge 30, Type (0, 0), BuildingBlock: TEMPAE_clean_linker_10, # of connection points: 2
#     Edge 31, Type (0, 0), BuildingBlock: TEMPAE_clean_linker_10, # of connection points: 2
#     Edge 32, Type (0, 0), BuildingBlock: TEMPAE_clean_linker_10, # of connection points: 2
#     Edge 33, Type (0, 0), BuildingBlock: TEMPAE_clean_linker_10, # of connection points: 2
#     Edge 34, Type (0, 0), BuildingBlock: TEMPAE_clean_linker_10, # of connection points: 2
#     Edge 35, Type (0, 0), BuildingBlock: TEMPAE_clean_linker_10, # of connection points: 2
#     Edge 36, Type (0, 0), BuildingBlock: TEMPAE_clean_linker_10, # of connection points: 2
#     Edge 37, Type (0, 0), BuildingBlock: TEMPAE_clean_linker_10, # of connection points: 2
#     Edge 38, Type (0, 0), BuildingBlock: TEMPAE_clean_linker_10, # of connection points: 2
#     Edge 39, Type (0, 0), BuildingBlock: TEMPAE_clean_linker_10, # of connection points: 2
#     Edge 40, Type (0, 0), BuildingBlock: TEMPAE_clean_linker_10, # of connection points: 2
#     Edge 41, Type (0, 0), BuildingBlock: TEMPAE_clean_linker_10, # of connection points: 2
#     Edge 42, Type (0, 0), BuildingBlock: TEMPAE_clean_linker_10, # of connection points: 2
#     Edge 43, Type (0, 0), BuildingBlock: TEMPAE_clean_linker_10, # of connection points: 2
#     Edge 44, Type (0, 0), BuildingBlock: TEMPAE_clean_linker_10, # of connection points: 2
#     Edge 45, Type (0, 0), BuildingBlock: TEMPAE_clean_linker_10, # of connection points: 2
#     Edge 46, Type (0, 0), BuildingBlock: TEMPAE_clean_linker_10, # of connection points: 2
#     Edge 47, Type (0, 0), BuildingBlock: TEMPAE_clean_linker_10, # of connection points: 2
#     Edge 48, Type (0, 0), BuildingBlock: TEMPAE_clean_linker_10, # of connection points: 2
#     Edge 49, Type (0, 0), BuildingBlock: TEMPAE_clean_linker_10, # of connection points: 2
#     Edge 50, Type (0, 0), BuildingBlock: TEMPAE_clean_linker_10, # of connection points: 2
#     Edge 51, Type (0, 0), BuildingBlock: TEMPAE_clean_linker_10, # of connection points: 2
#     Edge 52, Type (0, 0), BuildingBlock: TEMPAE_clean_linker_10, # of connection points: 2
#     Edge 53, Type (0, 0), BuildingBlock: TEMPAE_clean_linker_10, # of connection points: 2
#     Edge 54, Type (0, 0), BuildingBlock: TEMPAE_clean_linker_10, # of connection points: 2
#     Edge 55, Type (0, 0), BuildingBlock: TEMPAE_clean_linker_10, # of connection points: 2
#     Edge 56, Type (0, 0), BuildingBlock: TEMPAE_clean_linker_10, # of connection points: 2
#     Edge 57, Type (0, 0), BuildingBlock: TEMPAE_clean_linker_10, # of connection points: 2
#     Edge 58, Type (0, 0), BuildingBlock: TEMPAE_clean_linker_10, # of connection points: 2
#     Edge 59, Type (0, 0), BuildingBlock: TEMPAE_clean_linker_10, # of connection points: 2
#     Edge 60, Type (0, 0), BuildingBlock: TEMPAE_clean_linker_10, # of connection points: 2
#     Edge 61, Type (0, 0), BuildingBlock: TEMPAE_clean_linker_10, # of connection points: 2
#     Edge 62, Type (0, 0), BuildingBlock: TEMPAE_clean_linker_10, # of connection points: 2
# Relax obj value: 0.326
# Max RMSD: 0.198
# Mean RMSD: 0.198
data_MOF--net-wlb--node1-XOMCOT_clean_sbu_0--edge1-TEMPAE_clean_linker_10
_symmetry_space_group_name_H-M    P1
_symmetry_Int_Tables_number       1
_symmetry_cell_setting            triclinic
loop_
_symmetry_equiv_pos_as_xyz
'x, y, z'
_cell_length_a     52.939397
_cell_length_b     52.945418
_cell_length_c     40.281943
_cell_angle_alpha  90.00536
_cell_angle_beta   89.995683
_cell_angle_gamma 120.04137
loop_
_atom_site_label
_atom_site_type_symbol
_atom_site_fract_x
_atom_site_fract_y
_atom_site_fract_z
_atom_type_partial_charge
Co0 Co 0.04939 0.20113 0.24029 0.0
C1 C 0.01565 0.2308 0.22314 0.0
C2 C 0.00427 0.21023 0.27091 0.0
C3 C 0.98717 0.22257 0.26485 0.0
N4 N 0.02159 0.21473 0.24433 0.0
N5 N 0.99454 0.2355 0.23488 0.0
H6 H 0.02592 0.23872 0.19942 0.0
H7 H 0.00365 0.19817 0.29286 0.0
C8 C 0.99043 0.14754 0.24438 0.0
O9 O 0.98048 0.16119 0.22608 0.0
N10 N 0.07738 0.18808 0.23702 0.0
C11 C 0.10149 0.20034 0.21801 0.0
C12 C 0.11402 0.18305 0.21901 0.0
C13 C 0.07554 0.16355 0.24947 0.0
N14 N 0.0977 0.15981 0.23874 0.0
C15 C 0.0534 0.21673 0.17106 0.0
C16 C 0.02145 0.1607 0.14646 0.0
C17 C 0.03013 0.18416 0.1244 0.0
C18 C 0.04734 0.2125 0.13707 0.0
C19 C 0.02856 0.16598 0.18011 0.0
N20 N 0.04215 0.19373 0.19259 0.0
H21 H 0.06669 0.23874 0.18015 0.0
H22 H 0.02304 0.14749 0.19585 0.0
H23 H 0.10874 0.21983 0.20323 0.0
H24 H 0.058 0.14848 0.26539 0.0
O25 O 0.08076 0.24137 0.23898 0.0
O26 O 0.06252 0.21548 0.28489 0.0
O27 O 0.01758 0.15994 0.25181 0.0
C28 C 0.08066 0.24038 0.27122 0.0
H29 H 0.97066 0.2221 0.28111 0.0
H30 H 0.13288 0.18667 0.2048 0.0
H31 H 0.00883 0.13831 0.13816 0.0
H32 H 0.05611 0.23139 0.12097 0.0
Co33 Co 0.80261 0.84804 0.23752 0.0
C34 C 0.77302 0.78489 0.2248 0.0
C35 C 0.8036 0.79713 0.26502 0.0
C36 C 0.79167 0.76769 0.25919 0.0
N37 N 0.79209 0.80782 0.24316 0.0
N38 N 0.77254 0.76012 0.23383 0.0
H39 H 0.76089 0.78666 0.20417 0.0
H40 H 0.81998 0.80997 0.28336 0.0
C41 C 0.86728 0.87741 0.23004 0.0
O42 O 0.86443 0.89093 0.20417 0.0
N43 N 0.813 0.88892 0.23321 0.0
C44 C 0.79762 0.8997 0.21808 0.0
C45 C 0.813 0.92966 0.2199 0.0
C46 C 0.83637 0.91263 0.24646 0.0
N47 N 0.83743 0.93769 0.23756 0.0
C48 C 0.79273 0.8496 0.16676 0.0
C49 C 0.82782 0.82747 0.1469 0.0
C50 C 0.81345 0.83456 0.12272 0.0
C51 C 0.79563 0.84566 0.13293 0.0
C52 C 0.82474 0.83226 0.18034 0.0
N53 N 0.80822 0.84426 0.19005 0.0
H54 H 0.77704 0.85572 0.17403 0.0
H55 H 0.83533 0.82573 0.19857 0.0
H56 H 0.77627 0.88697 0.20716 0.0
H57 H 0.85275 0.91182 0.26171 0.0
O58 O 0.76171 0.83639 0.23695 0.0
O59 O 0.78911 0.84778 0.28229 0.0
O60 O 0.84478 0.85998 0.24709 0.0
C61 C 0.76353 0.83891 0.2691 0.0
H62 H 0.79693 0.75307 0.27231 0.0
H63 H 0.80668 0.94445 0.20923 0.0
H64 H 0.84134 0.8183 0.14004 0.0
H65 H 0.78325 0.8503 0.11498 0.0
Co66 Co 0.15304 0.95089 0.23333 0.0
C67 C 0.21552 0.98488 0.21776 0.0
C68 C 0.20445 0.00446 0.25769 0.0
C69 C 0.23356 0.0222 0.25004 0.0
N70 N 0.19324 0.98133 0.23713 0.0
N71 N 0.24035 0.00994 0.2247 0.0
H72 H 0.21322 0.96985 0.19822 0.0
H73 H 0.19211 0.00864 0.27609 0.0
C74 C 0.12273 0.98496 0.22384 0.0
O75 O 0.1097 0.96794 0.19824 0.0
N76 N 0.11235 0.9196 0.23088 0.0
C77 C 0.10185 0.89226 0.21909 0.0
C78 C 0.07201 0.87691 0.22292 0.0
C79 C 0.08878 0.91955 0.24392 0.0
N80 N 0.06376 0.89425 0.23825 0.0
C81 C 0.14906 0.93678 0.16303 0.0
C82 C 0.17256 0.99368 0.14111 0.0
C83 C 0.16516 0.97153 0.11777 0.0
C84 C 0.15314 0.94273 0.12898 0.0
C85 C 0.1677 0.98676 0.17472 0.0
N86 N 0.15546 0.95849 0.1855 0.0
H87 H 0.14191 0.91492 0.17116 0.0
H88 H 0.17451 0.00443 0.19226 0.0
H89 H 0.11481 0.88348 0.20918 0.0
H90 H 0.08971 0.93773 0.25711 0.0
O91 O 0.16548 0.92231 0.23369 0.0
O92 O 0.15472 0.93947 0.27857 0.0
O93 O 0.1403 0.98074 0.24175 0.0
C94 C 0.16361 0.92261 0.26586 0.0
H95 H 0.24819 0.04315 0.26119 0.0
H96 H 0.05756 0.85462 0.2152 0.0
H97 H 0.18214 0.01626 0.13347 0.0
H98 H 0.14793 0.92513 0.11167 0.0
Co99 Co 0.2024 0.04915 0.76035 0.0
C100 C 0.23238 0.01601 0.7738 0.0
C101 C 0.20154 0.99708 0.7339 0.0
C102 C 0.21335 0.97956 0.7402 0.0
N103 N 0.21322 0.01961 0.75532 0.0
N104 N 0.23259 0.99145 0.7654 0.0
H105 H 0.24457 0.03016 0.79426 0.0
H106 H 0.18499 0.99322 0.71566 0.0
C107 C 0.13823 0.01244 0.77024 0.0
O108 O 0.14142 0.02885 0.7962 0.0
N109 N 0.19167 0.07945 0.76369 0.0
C110 C 0.20857 0.10731 0.77403 0.0
C111 C 0.19343 0.12204 0.77039 0.0
C112 C 0.16717 0.07839 0.75207 0.0
N113 N 0.16729 0.10364 0.7569 0.0
C114 C 0.21121 0.06276 0.83076 0.0
C115 C 0.1805 0.00544 0.85213 0.0
C116 C 0.19372 0.02766 0.87574 0.0
C117 C 0.20917 0.05666 0.86479 0.0
C118 C 0.18271 0.01247 0.81854 0.0
N119 N 0.19741 0.0409 0.80804 0.0
H120 H 0.22468 0.08497 0.82287 0.0
H121 H 0.1728 0.99482 0.8008 0.0
H122 H 0.2307 0.11675 0.78302 0.0
H123 H 0.1497 0.0599 0.73947 0.0
O124 O 0.24313 0.07856 0.76039 0.0
O125 O 0.2155 0.06159 0.71527 0.0
O126 O 0.16021 0.01833 0.75177 0.0
C127 C 0.24111 0.07871 0.72825 0.0
H128 H 0.2078 0.95936 0.72763 0.0
H129 H 0.20085 0.14436 0.77765 0.0
H130 H 0.16846 0.98273 0.85955 0.0
H131 H 0.22033 0.0744 0.88231 0.0
Co132 Co 0.95211 0.1507 0.76779 0.0
C133 C 0.98397 0.21399 0.78718 0.0
C134 C 1.0002 0.20543 0.74241 0.0
C135 C 0.01661 0.23473 0.74936 0.0
N136 N 0.98013 0.19225 0.76654 0.0
N137 N 0.00646 0.24007 0.77765 0.0
H138 H 0.9705 0.21126 0.80832 0.0
H139 H 0.00309 0.1943 0.72152 0.0
C140 C 0.01051 0.15576 0.77261 0.0
O141 O 0.01687 0.17659 0.7944 0.0
N142 N 0.92421 0.10948 0.76797 0.0
C143 C 0.89889 0.09659 0.78483 0.0
C144 C 0.88673 0.06686 0.78226 0.0
C145 C 0.92712 0.08751 0.75521 0.0
N146 N 0.90448 0.06103 0.76368 0.0
C147 C 0.94474 0.16098 0.83673 0.0
C148 C 0.97251 0.1332 0.86323 0.0
C149 C 0.96503 0.14946 0.88423 0.0
C150 C 0.9497 0.1623 0.87098 0.0
C151 C 0.96651 0.13195 0.82932 0.0
N152 N 0.95566 0.14835 0.81598 0.0
H153 H 0.93268 0.17075 0.82685 0.0
H154 H 0.97128 0.11825 0.81381 0.0
H155 H 0.89053 0.10802 0.79931 0.0
H156 H 0.94579 0.09091 0.74079 0.0
O157 O 0.92053 0.15913 0.76652 0.0
O158 O 0.94225 0.1538 0.7222 0.0
O159 O 0.98515 0.14247 0.75922 0.0
C160 C 0.92289 0.15958 0.73437 0.0
H161 H 0.03508 0.25061 0.73509 0.0
H162 H 0.86706 0.05091 0.79474 0.0
H163 H 0.98304 0.1217 0.87293 0.0
H164 H 0.94249 0.17405 0.88674 0.0
Co165 Co 0.85229 0.79796 0.76434 0.0
C166 C 0.78927 0.76879 0.77809 0.0
C167 C 0.80174 0.8009 0.73951 0.0
C168 C 0.77256 0.78969 0.74629 0.0
N169 N 0.81215 0.78802 0.75979 0.0
N170 N 0.76487 0.76962 0.77059 0.0
H171 H 0.79087 0.75577 0.79781 0.0
H172 H 0.81468 0.81791 0.72182 0.0
C173 C 0.88277 0.8623 0.77401 0.0
O174 O 0.89593 0.85814 0.79935 0.0
N175 N 0.89305 0.808 0.76718 0.0
C176 C 0.90488 0.79338 0.78169 0.0
C177 C 0.93469 0.80898 0.77749 0.0
C178 C 0.9157 0.83092 0.75207 0.0
N179 N 0.94159 0.83293 0.75916 0.0
C180 C 0.85461 0.7867 0.8346 0.0
C181 C 0.83306 0.82171 0.85665 0.0
C182 C 0.8402 0.80676 0.87998 0.0
C183 C 0.85104 0.789 0.86869 0.0
C184 C 0.83748 0.81924 0.82296 0.0
N185 N 0.84919 0.80274 0.81216 0.0
H186 H 0.86047 0.77103 0.82643 0.0
H187 H 0.83094 0.83031 0.80541 0.0
H188 H 0.89301 0.77247 0.79379 0.0
H189 H 0.91318 0.84585 0.73605 0.0
O190 O 0.84038 0.75707 0.76378 0.0
O191 O 0.85127 0.78517 0.71905 0.0
O192 O 0.86486 0.84057 0.75622 0.0
C193 C 0.84259 0.75942 0.73165 0.0
H194 H 0.75823 0.79622 0.73477 0.0
H195 H 0.94996 0.80321 0.78787 0.0
H196 H 0.8241 0.83523 0.86437 0.0
H197 H 0.85572 0.77621 0.88598 0.0
Co198 Co 0.71821 0.53304 0.57094 0.0
C199 C 0.6851 0.56324 0.56017 0.0
C200 C 0.66641 0.53166 0.59941 0.0
C201 C 0.64896 0.54375 0.59419 0.0
N202 N 0.68876 0.54369 0.57776 0.0
N203 N 0.66079 0.56352 0.5695 0.0
H204 H 0.69909 0.5758 0.53978 0.0
H205 H 0.66263 0.51476 0.61709 0.0
C206 C 0.68257 0.46842 0.56351 0.0
O207 O 0.69845 0.47122 0.53718 0.0
N208 N 0.74844 0.52249 0.56545 0.0
C209 C 0.77422 0.53753 0.54941 0.0
C210 C 0.78861 0.52196 0.55065 0.0
C211 C 0.74888 0.49918 0.57862 0.0
N212 N 0.77251 0.4978 0.56885 0.0
C213 C 0.7283 0.54313 0.50002 0.0
C214 C 0.67067 0.50805 0.48148 0.0
C215 C 0.69168 0.52246 0.45684 0.0
C216 C 0.72081 0.54028 0.46638 0.0
C217 C 0.67918 0.51106 0.51469 0.0
N218 N 0.70791 0.52754 0.52371 0.0
H219 H 0.75024 0.55885 0.50685 0.0
H220 H 0.6624 0.50046 0.53329 0.0
H221 H 0.78273 0.55877 0.53826 0.0
H222 H 0.73199 0.48304 0.59439 0.0
O223 O 0.74761 0.57386 0.57013 0.0
O224 O 0.73224 0.54637 0.61549 0.0
O225 O 0.68803 0.49093 0.58073 0.0
C226 C 0.74882 0.57195 0.60221 0.0
H227 H 0.62889 0.5381 0.60713 0.0
H228 H 0.80936 0.52793 0.53919 0.0
H229 H 0.64782 0.49454 0.47514 0.0
H230 H 0.73748 0.5527 0.44809 0.0
Co231 Co 0.46841 0.18353 0.56806 0.0
C232 C 0.43922 0.12098 0.55213 0.0
C233 C 0.46984 0.13179 0.59205 0.0
C234 C 0.45788 0.10256 0.58475 0.0
N235 N 0.45829 0.14322 0.57131 0.0
N236 N 0.43881 0.09591 0.55946 0.0
H237 H 0.42652 0.1234 0.53264 0.0
H238 H 0.48636 0.144 0.61051 0.0
C239 C 0.53281 0.21299 0.55804 0.0
O240 O 0.52898 0.22642 0.53275 0.0
N241 N 0.47822 0.22435 0.56634 0.0
C242 C 0.46125 0.23511 0.55576 0.0
C243 C 0.47604 0.26491 0.55986 0.0
C244 C 0.50218 0.24774 0.57899 0.0
N245 N 0.50196 0.27287 0.5742 0.0
C246 C 0.45858 0.18917 0.49821 0.0
C247 C 0.4908 0.16491 0.47471 0.0
C248 C 0.47668 0.1736 0.45198 0.0
C249 C 0.46047 0.18595 0.46399 0.0
C250 C 0.48878 0.16898 0.50857 0.0
N251 N 0.47337 0.18162 0.52012 0.0
H252 H 0.44432 0.19669 0.50688 0.0
H253 H 0.49931 0.16142 0.52565 0.0
H254 H 0.43926 0.22233 0.54644 0.0
H255 H 0.51965 0.2466 0.59136 0.0
O256 O 0.42751 0.17146 0.56852 0.0
O257 O 0.45526 0.18144 0.61343 0.0
O258 O 0.51097 0.1957 0.57612 0.0
C259 C 0.42958 0.17298 0.60068 0.0
H260 H 0.46371 0.0877 0.59623 0.0
H261 H 0.46817 0.27952 0.55301 0.0
H262 H 0.50333 0.15502 0.46638 0.0
H263 H 0.44855 0.19214 0.44713 0.0
Co264 Co 0.82177 0.28441 0.57175 0.0
C265 C 0.88604 0.31946 0.55616 0.0
C266 C 0.87479 0.33101 0.60254 0.0
C267 C 0.90433 0.34872 0.59761 0.0
N268 N 0.86311 0.3131 0.57615 0.0
N269 N 0.91124 0.34129 0.56846 0.0
H270 H 0.8849 0.30908 0.53289 0.0
H271 H 0.86248 0.33155 0.62369 0.0
C272 C 0.82574 0.34238 0.57257 0.0
O273 O 0.84843 0.35136 0.55288 0.0
N274 N 0.78079 0.25582 0.56868 0.0
C275 C 0.769 0.23185 0.54944 0.0
C276 C 0.73912 0.21924 0.55043 0.0
C277 C 0.75803 0.25744 0.5813 0.0
N278 N 0.73213 0.23537 0.57037 0.0
C279 C 0.83598 0.28321 0.50266 0.0
C280 C 0.80386 0.30688 0.47773 0.0
C281 C 0.82233 0.30292 0.45591 0.0
C282 C 0.8379 0.29003 0.46888 0.0
C283 C 0.80354 0.30075 0.5115 0.0
N284 N 0.82127 0.2912 0.52406 0.0
H285 H 0.84681 0.27188 0.51169 0.0
H286 H 0.78872 0.30353 0.52745 0.0
H287 H 0.78132 0.22486 0.53441 0.0
H288 H 0.76048 0.27489 0.59735 0.0
O289 O 0.83133 0.25358 0.57073 0.0
O290 O 0.82319 0.27174 0.61645 0.0
O291 O 0.81176 0.31583 0.58238 0.0
C292 C 0.83032 0.25381 0.60298 0.0
H293 H 0.91952 0.36569 0.61409 0.0
H294 H 0.72392 0.20052 0.53598 0.0
H295 H 0.78956 0.31456 0.46901 0.0
H296 H 0.85196 0.28559 0.4535 0.0
Co297 Co 0.86881 0.38638 0.09927 0.0
C298 C 0.89856 0.3527 0.11749 0.0
C299 C 0.874 0.33762 0.07251 0.0
C300 C 0.88576 0.32018 0.07947 0.0
N301 N 0.88125 0.35748 0.09696 0.0
N302 N 0.90109 0.3296 0.10799 0.0
H303 H 0.90978 0.36604 0.13848 0.0
H304 H 0.86029 0.33541 0.05152 0.0
C305 C 0.81442 0.3284 0.10063 0.0
O306 O 0.8279 0.32 0.12141 0.0
N307 N 0.85664 0.41524 0.10044 0.0
C308 C 0.87137 0.44184 0.11452 0.0
C309 C 0.85416 0.4545 0.1137 0.0
C310 C 0.83068 0.41207 0.09122 0.0
N311 N 0.82848 0.43569 0.09925 0.0
C312 C 0.88524 0.39076 0.16823 0.0
C313 C 0.82973 0.36597 0.19424 0.0
C314 C 0.85277 0.37103 0.21569 0.0
C315 C 0.88106 0.38456 0.20215 0.0
C316 C 0.83488 0.37157 0.16026 0.0
N317 N 0.86209 0.3815 0.14722 0.0
H318 H 0.90725 0.40245 0.15878 0.0
H319 H 0.81681 0.36779 0.14454 0.0
H320 H 0.89274 0.45102 0.12573 0.0
H321 H 0.8132 0.39238 0.0804 0.0
O322 O 0.90928 0.41702 0.09926 0.0
O323 O 0.88267 0.39731 0.05409 0.0
O324 O 0.8272 0.35459 0.0896 0.0
C325 C 0.90785 0.41569 0.06705 0.0
H326 H 0.88248 0.30156 0.06503 0.0
H327 H 0.85995 0.4757 0.12368 0.0
H328 H 0.80776 0.35769 0.2034 0.0
H329 H 0.9 0.38985 0.21717 0.0
Co330 Co 0.61506 0.48446 0.0992 0.0
C331 C 0.64926 0.5468 0.11571 0.0
C332 C 0.66858 0.53594 0.07531 0.0
C333 C 0.68635 0.565 0.08304 0.0
N334 N 0.64558 0.52464 0.09607 0.0
N335 N 0.67425 0.57168 0.10864 0.0
H336 H 0.63431 0.54444 0.13538 0.0
H337 H 0.67258 0.52371 0.05659 0.0
C338 C 0.64887 0.45367 0.10794 0.0
O339 O 0.63129 0.43973 0.13284 0.0
N340 N 0.58372 0.44379 0.10087 0.0
C341 C 0.55636 0.43307 0.1127 0.0
C342 C 0.54106 0.4033 0.1083 0.0
C343 C 0.5837 0.42047 0.08715 0.0
N344 N 0.55845 0.39535 0.09254 0.0
C345 C 0.6002 0.47982 0.16931 0.0
C346 C 0.65673 0.50224 0.19207 0.0
C347 C 0.63435 0.49477 0.21511 0.0
C348 C 0.60574 0.4833 0.20348 0.0
C349 C 0.65021 0.49791 0.15832 0.0
N350 N 0.62211 0.4862 0.14712 0.0
H351 H 0.57853 0.47318 0.16089 0.0
H352 H 0.66807 0.50482 0.14103 0.0
H353 H 0.54752 0.44584 0.12301 0.0
H354 H 0.60192 0.42165 0.07378 0.0
O355 O 0.58647 0.4969 0.09866 0.0
O356 O 0.60416 0.48666 0.05387 0.0
O357 O 0.64508 0.47196 0.09091 0.0
C358 C 0.5871 0.49534 0.06648 0.0
H359 H 0.70717 0.57969 0.07168 0.0
H360 H 0.5188 0.38869 0.11601 0.0
H361 H 0.67919 0.51148 0.20007 0.0
H362 H 0.58798 0.47808 0.22056 0.0
Co363 Co 0.51612 0.13599 0.09428 0.0
C364 C 0.45295 0.1065 0.10695 0.0
C365 C 0.46516 0.13671 0.06636 0.0
C366 C 0.43576 0.12501 0.07237 0.0
N367 N 0.47585 0.1253 0.08834 0.0
N368 N 0.42821 0.10613 0.09797 0.0
H369 H 0.45476 0.09459 0.12779 0.0
H370 H 0.47799 0.15295 0.04789 0.0
C371 C 0.54509 0.20071 0.10135 0.0
O372 O 0.55856 0.19821 0.12749 0.0
N373 N 0.55701 0.14651 0.09904 0.0
C374 C 0.56767 0.13115 0.1145 0.0
C375 C 0.59766 0.14679 0.11361 0.0
C376 C 0.58089 0.17013 0.08647 0.0
N377 N 0.60585 0.17134 0.09615 0.0
C378 C 0.51726 0.12617 0.165 0.0
C379 C 0.49535 0.16153 0.18452 0.0
C380 C 0.50236 0.14718 0.20882 0.0
C381 C 0.51329 0.12919 0.19877 0.0
C382 C 0.50011 0.15829 0.15113 0.0
N383 N 0.51209 0.1417 0.14162 0.0
H384 H 0.52326 0.11038 0.15786 0.0
H385 H 0.49362 0.16882 0.1328 0.0
H386 H 0.55486 0.10973 0.12521 0.0
H387 H 0.58031 0.18666 0.07129 0.0
O388 O 0.50459 0.09517 0.09513 0.0
O389 O 0.51621 0.12244 0.04967 0.0
O390 O 0.52792 0.17804 0.08439 0.0
C391 C 0.50737 0.09692 0.06301 0.0
H392 H 0.42118 0.13033 0.05926 0.0
H393 H 0.61237 0.14071 0.125 0.0
H394 H 0.48627 0.17517 0.19126 0.0
H395 H 0.51781 0.11678 0.21681 0.0
Co396 Co 0.38608 0.87063 0.90119 0.0
C397 C 0.35268 0.89962 0.8859 0.0
C398 C 0.33328 0.86953 0.92636 0.0
C399 C 0.31583 0.88125 0.91889 0.0
N400 N 0.35611 0.88091 0.90537 0.0
N401 N 0.32799 0.89994 0.89323 0.0
H402 H 0.36756 0.912 0.86608 0.0
H403 H 0.32911 0.85317 0.94498 0.0
C404 C 0.35151 0.80599 0.89321 0.0
O405 O 0.36863 0.8092 0.86799 0.0
N406 N 0.41692 0.86071 0.89822 0.0
C407 C 0.44345 0.87649 0.88393 0.0
C408 C 0.45831 0.86146 0.88649 0.0
C409 C 0.41725 0.83746 0.91176 0.0
N410 N 0.44169 0.83688 0.90381 0.0
C411 C 0.39912 0.88095 0.83068 0.0
C412 C 0.34224 0.84589 0.8095 0.0
C413 C 0.36409 0.8607 0.78588 0.0
C414 C 0.39285 0.87842 0.7967 0.0
C415 C 0.34952 0.84851 0.84307 0.0
N416 N 0.37786 0.86515 0.85346 0.0
H417 H 0.42078 0.89663 0.83846 0.0
H418 H 0.33206 0.83766 0.86086 0.0
H419 H 0.45209 0.89785 0.87307 0.0
H420 H 0.39976 0.82081 0.92646 0.0
O421 O 0.41517 0.91158 0.90125 0.0
O422 O 0.398 0.88383 0.94628 0.0
O423 O 0.35583 0.82832 0.91011 0.0
C424 C 0.41502 0.90947 0.93342 0.0
H425 H 0.29514 0.8754 0.93041 0.0
H426 H 0.47971 0.86805 0.87645 0.0
H427 H 0.31965 0.83241 0.8021 0.0
H428 H 0.41015 0.89105 0.77912 0.0
Co429 Co 0.13227 0.52015 0.90068 0.0
C430 C 0.10273 0.45571 0.88624 0.0
C431 C 0.1312 0.46864 0.92835 0.0
C432 C 0.11953 0.43913 0.92374 0.0
N433 N 0.12133 0.47928 0.90429 0.0
N434 N 0.10165 0.43115 0.89727 0.0
H435 H 0.09024 0.45597 0.86537 0.0
H436 H 0.14629 0.48166 0.94772 0.0
C437 C 0.18784 0.51948 0.89432 0.0
O438 O 0.17379 0.49771 0.87347 0.0
N439 N 0.1433 0.56083 0.89853 0.0
C440 C 0.12841 0.57207 0.88353 0.0
C441 C 0.14499 0.60205 0.88457 0.0
C442 C 0.16863 0.58399 0.9086 0.0
N443 N 0.17037 0.60953 0.90019 0.0
C444 C 0.11302 0.50464 0.83291 0.0
C445 C 0.16727 0.53646 0.80373 0.0
C446 C 0.14377 0.51638 0.78435 0.0
C447 C 0.11609 0.50129 0.79901 0.0
C448 C 0.16317 0.5388 0.83764 0.0
N449 N 0.13688 0.52073 0.85241 0.0
H450 H 0.09143 0.4938 0.84355 0.0
H451 H 0.18147 0.55455 0.85212 0.0
H452 H 0.10738 0.55939 0.87167 0.0
H453 H 0.18602 0.58223 0.9204 0.0
O454 O 0.09161 0.50931 0.90255 0.0
O455 O 0.12004 0.51812 0.94651 0.0
O456 O 0.17458 0.53137 0.9081 0.0
C457 C 0.09426 0.5104 0.93465 0.0
H458 H 0.12379 0.42466 0.93864 0.0
H459 H 0.139 0.61711 0.87401 0.0
H460 H 0.18883 0.54949 0.79311 0.0
H461 H 0.09702 0.48692 0.78444 0.0
Co462 Co 0.48684 0.62128 0.90513 0.0
C463 C 0.54978 0.65353 0.88512 0.0
C464 C 0.54262 0.66559 0.93346 0.0
C465 C 0.57196 0.68157 0.92646 0.0
N466 N 0.52858 0.64845 0.90721 0.0
N467 N 0.57643 0.67403 0.89595 0.0
H468 H 0.54617 0.64221 0.86194 0.0
H469 H 0.53209 0.66678 0.95595 0.0
C470 C 0.4942 0.68105 0.90863 0.0
O471 O 0.51736 0.69027 0.8897 0.0
N472 N 0.44533 0.59381 0.90399 0.0
C473 C 0.43252 0.56593 0.8934 0.0
C474 C 0.40276 0.55358 0.89617 0.0
C475 C 0.42312 0.59816 0.91264 0.0
N476 N 0.39693 0.57387 0.90816 0.0
C477 C 0.49581 0.61498 0.83562 0.0
C478 C 0.47398 0.64909 0.81154 0.0
C479 C 0.48782 0.63944 0.78958 0.0
C480 C 0.49771 0.62113 0.80163 0.0
C481 C 0.47202 0.64189 0.84515 0.0
N482 N 0.48527 0.6273 0.85735 0.0
H483 H 0.504 0.60122 0.84459 0.0
H484 H 0.45985 0.64827 0.8611 0.0
H485 H 0.44391 0.55531 0.8838 0.0
H486 H 0.42586 0.61851 0.92201 0.0
O487 O 0.49499 0.58945 0.90421 0.0
O488 O 0.48917 0.6093 0.9499 0.0
O489 O 0.47894 0.65405 0.91646 0.0
C490 C 0.49505 0.59048 0.93645 0.0
H491 H 0.5885 0.69793 0.9424 0.0
H492 H 0.38658 0.53163 0.88895 0.0
H493 H 0.46475 0.66209 0.80277 0.0
H494 H 0.50776 0.61252 0.78516 0.0
Co495 Co 0.53772 0.71779 0.43319 0.0
C496 C 0.56771 0.68492 0.45414 0.0
C497 C 0.54413 0.66941 0.40851 0.0
C498 C 0.55632 0.65251 0.41614 0.0
N499 N 0.55073 0.68937 0.4327 0.0
N500 N 0.57105 0.66223 0.44496 0.0
H501 H 0.57793 0.69803 0.47569 0.0
H502 H 0.53071 0.66689 0.38712 0.0
C503 C 0.48393 0.65969 0.43817 0.0
O504 O 0.4981 0.65331 0.46033 0.0
N505 N 0.52492 0.74616 0.43264 0.0
C506 C 0.53947 0.77314 0.44582 0.0
C507 C 0.52204 0.7855 0.44417 0.0
C508 C 0.49881 0.74244 0.4231 0.0
N509 N 0.49641 0.76614 0.43008 0.0
C510 C 0.55513 0.72586 0.50211 0.0
C511 C 0.4996 0.69868 0.52863 0.0
C512 C 0.52329 0.7062 0.55002 0.0
C513 C 0.55149 0.72133 0.53639 0.0
C514 C 0.5044 0.7042 0.49463 0.0
N515 N 0.53163 0.71477 0.48134 0.0
H516 H 0.577 0.73769 0.49222 0.0
H517 H 0.48591 0.69915 0.479 0.0
H518 H 0.56087 0.7828 0.45704 0.0
H519 H 0.48137 0.72236 0.41287 0.0
O520 O 0.57798 0.74893 0.43198 0.0
O521 O 0.55104 0.7272 0.3876 0.0
O522 O 0.49631 0.68496 0.42455 0.0
C523 C 0.57622 0.74639 0.39986 0.0
H524 H 0.55377 0.63401 0.40199 0.0
H525 H 0.52759 0.80688 0.45337 0.0
H526 H 0.47738 0.68783 0.53767 0.0
H527 H 0.57067 0.72944 0.55195 0.0
Co528 Co 0.28646 0.81948 0.42849 0.0
C529 C 0.32104 0.88226 0.44334 0.0
C530 C 0.33953 0.8703 0.40303 0.0
C531 C 0.35747 0.89953 0.40972 0.0
N532 N 0.31695 0.85957 0.42437 0.0
N533 N 0.34582 0.90693 0.43514 0.0
H534 H 0.30686 0.88037 0.46372 0.0
H535 H 0.343 0.85763 0.38441 0.0
C536 C 0.31905 0.78744 0.43574 0.0
O537 O 0.30147 0.77368 0.46071 0.0
N538 N 0.25538 0.77881 0.43103 0.0
C539 C 0.22978 0.76684 0.44751 0.0
C540 C 0.21544 0.73705 0.44324 0.0
C541 C 0.25488 0.75622 0.41481 0.0
N542 N 0.23153 0.73028 0.42304 0.0
C543 C 0.27376 0.81831 0.49875 0.0
C544 C 0.33001 0.83711 0.52025 0.0
C545 C 0.30843 0.83164 0.54374 0.0
C546 C 0.27999 0.82215 0.53273 0.0
C547 C 0.32273 0.83244 0.48667 0.0
N548 N 0.29461 0.82204 0.47617 0.0
H549 H 0.25261 0.81388 0.49069 0.0
H550 H 0.34009 0.83815 0.46897 0.0
H551 H 0.22148 0.77852 0.46136 0.0
H552 H 0.27168 0.75874 0.39767 0.0
O553 O 0.25775 0.83176 0.42866 0.0
O554 O 0.27456 0.82107 0.38345 0.0
O555 O 0.31611 0.80662 0.41945 0.0
C556 C 0.25774 0.82986 0.39648 0.0
H557 H 0.37765 0.91412 0.39707 0.0
H558 H 0.19521 0.72162 0.45518 0.0
H559 H 0.35241 0.84514 0.52775 0.0
H560 H 0.26302 0.81891 0.55013 0.0
Co561 Co 0.18535 0.46923 0.4295 0.0
C562 C 0.1231 0.43945 0.44587 0.0
C563 C 0.13306 0.4703 0.40642 0.0
C564 C 0.1041 0.45861 0.41496 0.0
N565 N 0.14487 0.45844 0.42615 0.0
N566 N 0.09798 0.4394 0.44001 0.0
H567 H 0.12606 0.42678 0.46496 0.0
H568 H 0.14493 0.4871 0.38812 0.0
C569 C 0.21423 0.53384 0.43706 0.0
O570 O 0.22819 0.5311 0.46257 0.0
N571 N 0.22633 0.47971 0.43165 0.0
C572 C 0.23741 0.46337 0.44347 0.0
C573 C 0.26721 0.47821 0.43901 0.0
C574 C 0.24957 0.50348 0.41841 0.0
N575 N 0.27477 0.50357 0.42359 0.0
C576 C 0.19002 0.46072 0.50025 0.0
C577 C 0.16701 0.49487 0.52088 0.0
C578 C 0.17442 0.48063 0.54495 0.0
C579 C 0.1861 0.46334 0.53425 0.0
C580 C 0.17107 0.49152 0.48739 0.0
N581 N 0.18332 0.47538 0.47721 0.0
H582 H 0.19733 0.44599 0.4926 0.0
H583 H 0.16381 0.50171 0.46949 0.0
H584 H 0.22486 0.44184 0.45408 0.0
H585 H 0.24834 0.52038 0.40474 0.0
O586 O 0.1738 0.42835 0.43011 0.0
O587 O 0.18341 0.45526 0.38458 0.0
O588 O 0.19695 0.51137 0.41985 0.0
C589 C 0.17518 0.42985 0.39787 0.0
H590 H 0.08919 0.4649 0.40462 0.0
H591 H 0.28223 0.47122 0.44719 0.0
H592 H 0.15796 0.50851 0.52773 0.0
H593 H 0.1913 0.45118 0.55189 0.0
C594 C 0.92269 0.32331 0.15967 0.0
C595 C 0.91554 0.31674 0.12594 0.0
C596 C 0.93624 0.31073 0.17764 0.0
C597 C 0.94219 0.29043 0.16187 0.0
C598 C 0.93494 0.28344 0.12801 0.0
C599 C 0.92199 0.29689 0.11036 0.0
C600 C 0.94404 0.31905 0.21363 0.0
C601 C 0.9406 0.26152 0.11051 0.0
C602 C 0.99895 0.27524 0.1994 0.0
C603 C 0.9815 0.24982 0.21765 0.0
C604 C 0.98647 0.28888 0.18135 0.0
C605 C 0.95576 0.27634 0.18099 0.0
C606 C 0.93802 0.25055 0.1993 0.0
C607 C 0.95118 0.23778 0.21776 0.0
C608 C 0.00613 0.31676 0.16283 0.0
C609 C 0.90516 0.23623 0.19897 0.0
H610 H 0.91736 0.33798 0.17246 0.0
H611 H 0.91694 0.29177 0.08436 0.0
H612 H 0.93168 0.29963 0.22968 0.0
H613 H 0.96759 0.32705 0.21767 0.0
H614 H 0.93922 0.33625 0.22178 0.0
H615 H 0.93319 0.25809 0.08425 0.0
H616 H 0.96425 0.26894 0.11101 0.0
H617 H 0.92917 0.24026 0.12365 0.0
H618 H 0.02243 0.28456 0.19961 0.0
H619 H 0.93776 0.21787 0.23154 0.0
H620 H 1.00227 0.33443 0.17156 0.0
H621 H 1.001 0.31373 0.13593 0.0
H622 H 0.0296 0.32394 0.16618 0.0
H623 H 0.89839 0.25148 0.20889 0.0
H624 H 0.89451 0.21588 0.21394 0.0
H625 H 0.897 0.23092 0.17309 0.0
C626 C 0.70602 0.62517 0.11117 0.0
C627 C 0.68688 0.59873 0.12685 0.0
C628 C 0.71938 0.6515 0.12894 0.0
C629 C 0.71338 0.65137 0.16322 0.0
C630 C 0.69384 0.62481 0.17914 0.0
C631 C 0.68087 0.59881 0.16078 0.0
C632 C 0.74017 0.67942 0.11113 0.0
C633 C 0.68696 0.62377 0.21568 0.0
C634 C 0.76927 0.71413 0.21557 0.0
C635 C 0.75703 0.73223 0.21751 0.0
C636 C 0.75517 0.68764 0.19818 0.0
C637 C 0.72809 0.67896 0.18256 0.0
C638 C 0.71535 0.69687 0.18493 0.0
C639 C 0.73005 0.72337 0.20228 0.0
C640 C 0.76955 0.66922 0.19596 0.0
C641 C 0.68634 0.68817 0.1689 0.0
H642 H 0.71051 0.62527 0.08493 0.0
H643 H 0.66656 0.57844 0.17326 0.0
H644 H 0.73261 0.69546 0.11352 0.0
H645 H 0.7621 0.68929 0.1227 0.0
H646 H 0.74225 0.67583 0.08433 0.0
H647 H 0.67068 0.60145 0.2241 0.0
H648 H 0.70718 0.63143 0.23049 0.0
H649 H 0.67842 0.63867 0.22109 0.0
H650 H 0.79031 0.72108 0.22686 0.0
H651 H 0.72039 0.73715 0.20406 0.0
H652 H 0.77414 0.66687 0.16961 0.0
H653 H 0.75465 0.64699 0.20564 0.0
H654 H 0.79034 0.67878 0.2101 0.0
H655 H 0.68788 0.68615 0.14166 0.0
H656 H 0.67906 0.70419 0.17379 0.0
H657 H 0.66942 0.6665 0.17825 0.0
C658 C 0.38263 0.10364 0.11654 0.0
C659 C 0.40046 0.0911 0.11469 0.0
C660 C 0.35628 0.09001 0.13426 0.0
C661 C 0.34746 0.06307 0.15031 0.0
C662 C 0.36512 0.05004 0.14808 0.0
C663 C 0.39148 0.06429 0.13039 0.0
C664 C 0.33814 0.1047 0.1363 0.0
C665 C 0.35626 0.02117 0.16454 0.0
C666 C 0.29385 0.0418 0.22187 0.0
C667 C 0.26734 0.02255 0.20637 0.0
C668 C 0.32014 0.05498 0.20398 0.0
C669 C 0.31989 0.04872 0.16976 0.0
C670 C 0.29325 0.02915 0.154 0.0
C671 C 0.26731 0.01636 0.17247 0.0
C672 C 0.34814 0.07582 0.22162 0.0
C673 C 0.29207 0.02202 0.11752 0.0
H674 H 0.38967 0.12456 0.10489 0.0
H675 H 0.40505 0.05439 0.1287 0.0
H676 H 0.31584 0.0899 0.12673 0.0
H677 H 0.33592 0.10953 0.1626 0.0
H678 H 0.34784 0.12539 0.12197 0.0
H679 H 0.37216 0.01369 0.15988 0.0
H680 H 0.3543 0.02301 0.19174 0.0
H681 H 0.33453 0.00425 0.15534 0.0
H682 H 0.29403 0.04647 0.24807 0.0
H683 H 0.24689 0.002 0.16011 0.0
H684 H 0.35813 0.09764 0.20975 0.0
H685 H 0.36405 0.06808 0.21945 0.0
H686 H 0.34463 0.07821 0.24836 0.0
H687 H 0.29989 0.04215 0.10253 0.0
H688 H 0.26967 0.00584 0.10921 0.0
H689 H 0.30676 0.01321 0.11224 0.0
C690 C 0.27455 0.99687 0.79774 0.0
C691 C 0.24753 0.97889 0.78253 0.0
C692 C 0.28872 0.98491 0.81579 0.0
C693 C 0.27539 0.95424 0.81889 0.0
C694 C 0.24819 0.93596 0.80342 0.0
C695 C 0.23464 0.94852 0.78533 0.0
C696 C 0.31788 0.00506 0.83164 0.0
C697 C 0.23318 0.90315 0.80641 0.0
C698 C 0.32138 0.92015 0.84092 0.0
C699 C 0.31558 0.9145 0.87495 0.0
C700 C 0.30876 0.93344 0.82247 0.0
C701 C 0.28978 0.94117 0.8384 0.0
C702 C 0.28396 0.93573 0.87276 0.0
C703 C 0.29695 0.92246 0.89063 0.0
C704 C 0.3154 0.93876 0.78583 0.0
C705 C 0.26373 0.94361 0.89055 0.0
H706 H 0.28468 0.02034 0.79534 0.0
H707 H 0.21353 0.93455 0.7741 0.0
H708 H 0.3164 0.00172 0.85891 0.0
H709 H 0.33453 0.99992 0.82235 0.0
H710 H 0.32548 0.0284 0.82649 0.0
H711 H 0.2122 0.89203 0.79262 0.0
H712 H 0.24758 0.89519 0.79678 0.0
H713 H 0.22881 0.8967 0.83291 0.0
H714 H 0.33524 0.91353 0.82843 0.0
H715 H 0.29262 0.91837 0.91694 0.0
H716 H 0.3243 0.96221 0.78006 0.0
H717 H 0.29503 0.92629 0.77126 0.0
H718 H 0.33133 0.93225 0.77744 0.0
H719 H 0.27169 0.96727 0.88776 0.0
H720 H 0.26181 0.93831 0.91745 0.0
H721 H 0.24166 0.93172 0.87927 0.0
C722 C 0.05882 0.39291 0.86772 0.0
C723 C 0.0863 0.40281 0.8821 0.0
C724 C 0.04431 0.36596 0.85127 0.0
C725 C 0.05788 0.34883 0.84873 0.0
C726 C 0.08553 0.35862 0.86348 0.0
C727 C 0.09931 0.38543 0.88023 0.0
C728 C 0.01459 0.35595 0.8364 0.0
C729 C 0.10088 0.34114 0.86087 0.0
C730 C 0.01326 0.26801 0.82934 0.0
C731 C 0.01824 0.26748 0.79515 0.0
C732 C 0.02545 0.29438 0.84693 0.0
C733 C 0.04348 0.32088 0.8301 0.0
C734 C 0.04845 0.32064 0.79561 0.0
C735 C 0.03559 0.29398 0.77852 0.0
C736 C 0.01943 0.29382 0.88366 0.0
C737 C 0.06776 0.34851 0.77687 0.0
H738 H 0.04867 0.40626 0.8695 0.0
H739 H 0.12073 0.3933 0.89097 0.0
H740 H 0.01545 0.35375 0.8091 0.0
H741 H 0.99857 0.33413 0.84628 0.0
H742 H 0.00658 0.37133 0.84171 0.0
H743 H 0.12217 0.35169 0.87406 0.0
H744 H 0.08696 0.31901 0.87137 0.0
H745 H 0.10473 0.33838 0.83438 0.0
H746 H 1.00037 0.24778 0.84269 0.0
H747 H 0.03925 0.29395 0.7521 0.0
H748 H 0.01076 0.30857 0.88929 0.0
H749 H 0.04003 0.3019 0.89781 0.0
H750 H 0.00354 0.27156 0.89264 0.0
H751 H 0.05931 0.3638 0.77943 0.0
H752 H 0.06926 0.34459 0.75003 0.0
H753 H 0.09008 0.35944 0.78757 0.0
C754 C 0.63046 0.70092 0.8948 0.0
C755 C 0.60367 0.68617 0.87797 0.0
C756 C 0.65701 0.71394 0.87745 0.0
C757 C 0.65682 0.71177 0.84243 0.0
C758 C 0.62999 0.69638 0.82529 0.0
C759 C 0.60378 0.68403 0.8432 0.0
C760 C 0.68525 0.73046 0.89654 0.0
C761 C 0.62893 0.69339 0.78794 0.0
C762 C 0.72168 0.76907 0.79396 0.0
C763 C 0.73743 0.75477 0.78779 0.0
C764 C 0.69551 0.75538 0.81194 0.0
C765 C 0.68464 0.72653 0.82356 0.0
C766 C 0.70029 0.71184 0.81705 0.0
C767 C 0.72668 0.72627 0.79946 0.0
C768 C 0.67968 0.77192 0.81886 0.0
C769 C 0.6891 0.68088 0.82855 0.0
H770 H 0.63077 0.70239 0.9216 0.0
H771 H 0.58339 0.67323 0.82971 0.0
H772 H 0.69955 0.7212 0.89129 0.0
H773 H 0.69714 0.75359 0.88839 0.0
H774 H 0.68166 0.72984 0.92377 0.0
H775 H 0.60637 0.67921 0.77857 0.0
H776 H 0.63796 0.71521 0.77628 0.0
H777 H 0.64264 0.68415 0.77975 0.0
H778 H 0.73025 0.79128 0.78542 0.0
H779 H 0.73883 0.71521 0.79447 0.0
H780 H 0.67729 0.77343 0.84605 0.0
H781 H 0.65739 0.76007 0.80817 0.0
H782 H 0.69126 0.79434 0.8084 0.0
H783 H 0.68696 0.67967 0.85598 0.0
H784 H 0.70369 0.67243 0.82104 0.0
H785 H 0.66706 0.66638 0.8181 0.0
C786 C 0.61821 0.56618 0.54968 0.0
C787 C 0.64848 0.5792 0.55361 0.0
C788 C 0.606 0.58042 0.53229 0.0
C789 C 0.62454 0.60851 0.51891 0.0
C790 C 0.6551 0.62206 0.52346 0.0
C791 C 0.66672 0.60712 0.54058 0.0
C792 C 0.57333 0.56513 0.52756 0.0
C793 C 0.6755 0.65218 0.51 0.0
C794 C 0.59544 0.63282 0.44708 0.0
C795 C 0.58565 0.64981 0.46327 0.0
C796 C 0.60836 0.61944 0.46485 0.0
C797 C 0.61192 0.62344 0.49963 0.0
C798 C 0.60269 0.64102 0.51608 0.0
C799 C 0.5895 0.65382 0.49776 0.0
C800 C 0.61778 0.60065 0.44649 0.0
C801 C 0.60631 0.64594 0.55314 0.0
H802 H 0.60413 0.54442 0.55931 0.0
H803 H 0.69012 0.61726 0.5439 0.0
H804 H 0.56459 0.57874 0.5376 0.0
H805 H 0.56806 0.56201 0.50069 0.0
H806 H 0.56196 0.54349 0.53996 0.0
H807 H 0.69862 0.66004 0.51672 0.0
H808 H 0.67374 0.65211 0.48256 0.0
H809 H 0.66923 0.6679 0.51967 0.0
H810 H 0.59298 0.62991 0.42045 0.0
H811 H 0.58161 0.66642 0.51071 0.0
H812 H 0.60588 0.57804 0.45632 0.0
H813 H 0.64139 0.60901 0.45051 0.0
H814 H 0.61368 0.59993 0.41936 0.0
H815 H 0.59329 0.62489 0.56633 0.0
H816 H 0.59926 0.66135 0.56191 0.0
H817 H 0.62947 0.65467 0.56019 0.0
C818 C 0.34046 0.94359 0.46738 0.0
C819 C 0.35841 0.9346 0.452 0.0
C820 C 0.35247 0.97004 0.48487 0.0
C821 C 0.38317 0.98779 0.4872 0.0
C822 C 0.4014 0.97892 0.47156 0.0
C823 C 0.3888 0.95248 0.45407 0.0
C824 C 0.33234 0.97893 0.50096 0.0
C825 C 0.43424 0.99717 0.4737 0.0
C826 C 0.41712 0.06823 0.50792 0.0
C827 C 0.42363 0.06864 0.54176 0.0
C828 C 0.4035 0.04201 0.48997 0.0
C829 C 0.39631 0.01555 0.50623 0.0
C830 C 0.40248 0.01573 0.54046 0.0
C831 C 0.41605 0.04228 0.55781 0.0
C832 C 0.39734 0.04272 0.45347 0.0
C833 C 0.39515 0.98792 0.55863 0.0
H834 H 0.31698 0.93 0.46552 0.0
H835 H 0.40277 0.94543 0.44269 0.0
H836 H 0.33618 0.98128 0.52815 0.0
H837 H 0.33703 1.00049 0.49132 0.0
H838 H 0.30897 0.96286 0.49643 0.0
H839 H 0.44533 0.98734 0.4598 0.0
H840 H 0.44173 0.01932 0.46368 0.0
H841 H 0.44122 0.99976 0.50005 0.0
H842 H 0.42336 0.08852 0.49515 0.0
H843 H 0.42074 0.04242 0.584 0.0
H844 H 0.37384 0.02779 0.44834 0.0
H845 H 0.40977 0.03493 0.43865 0.0
H846 H 0.40335 0.06497 0.44484 0.0
H847 H 0.3715 0.97196 0.55631 0.0
H848 H 0.40083 0.99171 0.58541 0.0
H849 H 0.40709 0.97784 0.54729 0.0
C850 C 0.07177 0.41628 0.49202 0.0
C851 C 0.07132 0.42454 0.45898 0.0
C852 C 0.04615 0.40233 0.511 0.0
C853 C 0.01943 0.39682 0.49677 0.0
C854 C 0.01877 0.40516 0.46354 0.0
C855 C 0.04469 0.41878 0.445 0.0
C856 C 0.04771 0.39363 0.54632 0.0
C857 C 0.99069 0.39983 0.44761 0.0
C858 C 0.94768 0.33836 0.53326 0.0
C859 C 0.9392 0.35503 0.55227 0.0
C860 C 0.97406 0.35163 0.51561 0.0
C861 C 0.99214 0.38234 0.51666 0.0
C862 C 0.98386 0.39925 0.53618 0.0
C863 C 0.95754 0.38533 0.55398 0.0
C864 C 0.98243 0.33282 0.49558 0.0
C865 C 0.0024 0.43209 0.53758 0.0
H866 H 0.09223 0.42115 0.5034 0.0
H867 H 0.04405 0.42479 0.41946 0.0
H868 H 0.04049 0.40504 0.56367 0.0
H869 H 0.03271 0.36986 0.54962 0.0
H870 H 0.07009 0.39885 0.55341 0.0
H871 H 0.99396 0.40809 0.42171 0.0
H872 H 0.97459 0.37613 0.44742 0.0
H873 H 0.98106 0.41066 0.46231 0.0
H874 H 0.93363 0.31489 0.53227 0.0
H875 H 0.9508 0.39823 0.56835 0.0
H876 H 0.00428 0.33692 0.50332 0.0
H877 H 0.98387 0.33856 0.46889 0.0
H878 H 0.9665 0.30918 0.49843 0.0
H879 H 0.02474 0.43854 0.54613 0.0
H880 H 0.99313 0.44198 0.55444 0.0
H881 H 0.00441 0.44133 0.51235 0.0
C882 C 0.14888 0.39903 0.34887 0.0
C883 C 0.16546 0.4033 0.37759 0.0
C884 C 0.13637 0.37238 0.33158 0.0
C885 C 0.1415 0.34989 0.34258 0.0
C886 C 0.15942 0.35472 0.37074 0.0
C887 C 0.17066 0.38114 0.38832 0.0
C888 C 0.11663 0.36785 0.3024 0.0
C889 C 0.16634 0.33181 0.3826 0.0
C890 C 0.08575 0.27138 0.3202 0.0
C891 C 0.0977 0.26717 0.29112 0.0
C892 C 0.09981 0.29816 0.33721 0.0
C893 C 0.12702 0.32092 0.32553 0.0
C894 C 0.13977 0.31625 0.29694 0.0
C895 C 0.12465 0.28964 0.27968 0.0
C896 C 0.08496 0.30247 0.3669 0.0
C897 C 0.16918 0.3395 0.28434 0.0
H898 H 0.14451 0.41602 0.34086 0.0
H899 H 0.18355 0.38449 0.41052 0.0
H900 H 0.12479 0.36215 0.27992 0.0
H901 H 0.09444 0.34931 0.30756 0.0
H902 H 0.11491 0.38751 0.29694 0.0
H903 H 0.18289 0.34004 0.40275 0.0
H904 H 0.14622 0.31256 0.39199 0.0
H905 H 0.17456 0.32429 0.36167 0.0
H906 H 0.06467 0.25419 0.32876 0.0
H907 H 0.1339 0.28638 0.25718 0.0
H908 H 0.081 0.32085 0.36216 0.0
H909 H 0.09923 0.30828 0.38905 0.0
H910 H 0.06377 0.28267 0.37271 0.0
H911 H 0.16774 0.35853 0.27533 0.0
H912 H 0.17727 0.3315 0.26373 0.0
H913 H 0.18541 0.3473 0.30478 0.0
C914 C 0.60672 0.74912 0.35127 0.0
C915 C 0.60242 0.76263 0.37886 0.0
C916 C 0.63312 0.76285 0.3335 0.0
C917 C 0.65533 0.79122 0.34284 0.0
C918 C 0.65049 0.80544 0.36983 0.0
C919 C 0.62432 0.79072 0.38795 0.0
C920 C 0.63769 0.74652 0.30558 0.0
C921 C 0.67311 0.83602 0.37989 0.0
C922 C 0.73389 0.81487 0.31962 0.0
C923 C 0.73709 0.82942 0.28953 0.0
C924 C 0.70743 0.8024 0.33727 0.0
C925 C 0.68397 0.80549 0.32511 0.0
C926 C 0.68764 0.82134 0.29544 0.0
C927 C 0.71396 0.8326 0.27765 0.0
C928 C 0.70418 0.78492 0.36821 0.0
C929 C 0.66363 0.82604 0.28222 0.0
H930 H 0.58995 0.72721 0.34456 0.0
H931 H 0.62096 0.80119 0.40928 0.0
H932 H 0.64267 0.75917 0.28218 0.0
H933 H 0.65671 0.74379 0.31125 0.0
H934 H 0.6183 0.72462 0.30144 0.0
H935 H 0.66494 0.84496 0.39941 0.0
H936 H 0.69283 0.83617 0.38944 0.0
H937 H 0.6799 0.85073 0.35801 0.0
H938 H 0.75162 0.81202 0.32856 0.0
H939 H 0.71646 0.8439 0.25437 0.0
H940 H 0.68619 0.76212 0.3648 0.0
H941 H 0.69832 0.79409 0.38966 0.0
H942 H 0.72446 0.78455 0.37435 0.0
H943 H 0.64475 0.80487 0.27453 0.0
H944 H 0.67086 0.84106 0.26058 0.0
H945 H 0.65587 0.83515 0.30197 0.0
C946 C 0.18957 0.91887 0.31557 0.0
C947 C 0.17341 0.90624 0.28669 0.0
C948 C 0.20225 0.90518 0.33335 0.0
C949 C 0.1977 0.8777 0.32262 0.0
C950 C 0.18021 0.86427 0.29428 0.0
C951 C 0.16879 0.87901 0.27624 0.0
C952 C 0.2215 0.92069 0.36278 0.0
C953 C 0.17392 0.83455 0.28272 0.0
C954 C 0.25356 0.85576 0.347 0.0
C955 C 0.24116 0.83962 0.37594 0.0
C956 C 0.23964 0.86829 0.32939 0.0
C957 C 0.21215 0.86358 0.34034 0.0
C958 C 0.19899 0.84615 0.36879 0.0
C959 C 0.21396 0.83489 0.38667 0.0
C960 C 0.25488 0.88749 0.29984 0.0
C961 C 0.16927 0.83968 0.38058 0.0
H962 H 0.19348 0.94015 0.32334 0.0
H963 H 0.15621 0.86924 0.2539 0.0
H964 H 0.21313 0.90688 0.38529 0.0
H965 H 0.24385 0.92461 0.35817 0.0
H966 H 0.22285 0.94196 0.36788 0.0
H967 H 0.15775 0.82599 0.26218 0.0
H968 H 0.19435 0.83573 0.27398 0.0
H969 H 0.1655 0.81882 0.30365 0.0
H970 H 0.27482 0.85977 0.33902 0.0
H971 H 0.20438 0.82233 0.40907 0.0
H972 H 0.25851 0.90976 0.30432 0.0
H973 H 0.24101 0.87888 0.2774 0.0
H974 H 0.27627 0.88914 0.29469 0.0
H975 H 0.1703 0.86008 0.38916 0.0
H976 H 0.16098 0.82368 0.40129 0.0
H977 H 0.15338 0.83097 0.3598 0.0
C978 C 0.38113 0.1686 0.61066 0.0
C979 C 0.40332 0.16341 0.62131 0.0
C980 C 0.35469 0.15718 0.62815 0.0
C981 C 0.34992 0.13916 0.65616 0.0
C982 C 0.37246 0.13411 0.66717 0.0
C983 C 0.39913 0.14676 0.64992 0.0
C984 C 0.33169 0.16399 0.61631 0.0
C985 C 0.36798 0.11435 0.69631 0.0
C986 C 0.28993 0.12264 0.71903 0.0
C987 C 0.26745 0.09563 0.70778 0.0
C988 C 0.31647 0.13765 0.7017 0.0
C989 C 0.32102 0.12473 0.67323 0.0
C990 C 0.29819 0.09751 0.66164 0.0
C991 C 0.27147 0.08353 0.67875 0.0
C992 C 0.33979 0.16708 0.71419 0.0
C993 C 0.30242 0.08257 0.63198 0.0
H994 H 0.38445 0.18155 0.58852 0.0
H995 H 0.41616 0.1424 0.65782 0.0
H996 H 0.31245 0.14383 0.607 0.0
H997 H 0.32417 0.17222 0.63723 0.0
H998 H 0.33983 0.18049 0.59611 0.0
H999 H 0.38768 0.11272 0.70176 0.0
H1000 H 0.36222 0.12245 0.7188 0.0
H1001 H 0.34948 0.09215 0.6911 0.0
H1002 H 0.28677 0.13198 0.74153 0.0
H1003 H 0.25422 0.0624 0.67039 0.0
H1004 H 0.34757 0.18326 0.69369 0.0
H1005 H 0.35882 0.16563 0.72318 0.0
H1006 H 0.33185 0.17527 0.73478 0.0
H1007 H 0.30837 0.09685 0.60982 0.0
H1008 H 0.28254 0.06145 0.62616 0.0
H1009 H 0.3207 0.07846 0.63679 0.0
C1010 C 0.83606 0.21016 0.6117 0.0
C1011 C 0.83996 0.23687 0.62319 0.0
C1012 C 0.84723 0.19504 0.62951 0.0
C1013 C 0.86368 0.20752 0.65878 0.0
C1014 C 0.86754 0.23448 0.6705 0.0
C1015 C 0.85519 0.24856 0.65287 0.0
C1016 C 0.84174 0.1659 0.6168 0.0
C1017 C 0.88567 0.24904 0.70097 0.0
C1018 C 0.8786 0.16342 0.72254 0.0
C1019 C 0.90647 0.16917 0.71317 0.0
C1020 C 0.86383 0.17466 0.70416 0.0
C1021 C 0.87778 0.19303 0.67657 0.0
C1022 C 0.90589 0.19866 0.66689 0.0
C1023 C 0.91967 0.18623 0.68497 0.0
C1024 C 0.83351 0.16729 0.71464 0.0
C1025 C 0.92196 0.21885 0.63832 0.0
H1026 H 0.82424 0.20109 0.58875 0.0
H1027 H 0.8586 0.26944 0.66151 0.0
H1028 H 0.86262 0.16763 0.60887 0.0
H1029 H 0.83263 0.14937 0.6369 0.0
H1030 H 0.82643 0.15802 0.59542 0.0
H1031 H 0.8867 0.27006 0.70671 0.0
H1032 H 0.87654 0.23446 0.72279 0.0
H1033 H 0.90823 0.25325 0.69724 0.0
H1034 H 0.86836 0.15018 0.74433 0.0
H1035 H 0.94142 0.19103 0.678 0.0
H1036 H 0.81849 0.15924 0.69304 0.0
H1037 H 0.83387 0.18717 0.72395 0.0
H1038 H 0.82462 0.15046 0.73449 0.0
H1039 H 0.90882 0.21093 0.61527 0.0
H1040 H 0.94356 0.22079 0.63378 0.0
H1041 H 0.92531 0.2409 0.64356 0.0
C1042 C 0.81652 0.72932 0.68221 0.0
C1043 C 0.83325 0.73336 0.71072 0.0
C1044 C 0.8041 0.70288 0.66454 0.0
C1045 C 0.80952 0.68044 0.67496 0.0
C1046 C 0.82765 0.68509 0.70285 0.0
C1047 C 0.83877 0.71127 0.72083 0.0
C1048 C 0.78413 0.69849 0.63565 0.0
C1049 C 0.83487 0.66223 0.71405 0.0
C1050 C 0.75406 0.60206 0.65201 0.0
C1051 C 0.76587 0.59835 0.62256 0.0
C1052 C 0.76808 0.62866 0.66935 0.0
C1053 C 0.79511 0.65167 0.6576 0.0
C1054 C 0.80776 0.64744 0.62865 0.0
C1055 C 0.79265 0.62103 0.61106 0.0
C1056 C 0.75334 0.63254 0.69945 0.0
C1057 C 0.83702 0.67096 0.61599 0.0
H1058 H 0.81191 0.74628 0.67473 0.0
H1059 H 0.85177 0.71448 0.74291 0.0
H1060 H 0.7922 0.69305 0.61289 0.0
H1061 H 0.76202 0.67982 0.64086 0.0
H1062 H 0.78225 0.71812 0.63063 0.0
H1063 H 0.85162 0.67039 0.73398 0.0
H1064 H 0.81492 0.64283 0.72351 0.0
H1065 H 0.84296 0.65494 0.69277 0.0
H1066 H 0.73309 0.58466 0.66057 0.0
H1067 H 0.80176 0.61811 0.58824 0.0
H1068 H 0.74916 0.65084 0.69519 0.0
H1069 H 0.7678 0.63827 0.72143 0.0
H1070 H 0.73229 0.61258 0.70525 0.0
H1071 H 0.83535 0.68996 0.60737 0.0
H1072 H 0.8451 0.66323 0.59509 0.0
H1073 H 0.85338 0.6787 0.63631 0.0
C1074 C 0.93818 0.41998 0.01764 0.0
C1075 C 0.93433 0.43234 0.04657 0.0
C1076 C 0.96464 0.434 0.99999 0.0
C1077 C 0.98741 0.46151 0.01093 0.0
C1078 C 0.9831 0.47458 0.03944 0.0
C1079 C 0.95682 0.45956 0.05729 0.0
C1080 C 0.96859 0.41888 0.97032 0.0
C1081 C 0.00637 0.50429 0.05128 0.0
C1082 C 0.06524 0.48453 0.98492 0.0
C1083 C 0.06842 0.50072 0.95616 0.0
C1084 C 0.03904 0.47179 0.00313 0.0
C1085 C 0.0159 0.47621 0.99293 0.0
C1086 C 0.01964 0.49374 0.96473 0.0
C1087 C 0.04564 0.5053 0.94631 0.0
C1088 C 0.03568 0.45255 0.03242 0.0
C1089 C 0.99597 0.49984 0.95364 0.0
H1090 H 0.92095 0.39871 0.00962 0.0
H1091 H 0.95382 0.46914 0.07968 0.0
H1092 H 0.97357 0.43273 0.9479 0.0
H1093 H 0.98739 0.41548 0.97455 0.0
H1094 H 0.94891 0.39739 0.96527 0.0
H1095 H 0.99878 0.51237 0.07231 0.0
H1096 H 0.02591 0.50337 0.0594 0.0
H1097 H 0.01325 0.52028 0.03064 0.0
H1098 H 0.08269 0.48062 0.99225 0.0
H1099 H 0.04813 0.51786 0.92405 0.0
H1100 H 0.01744 0.43009 0.02776 0.0
H1101 H 0.03011 0.46066 0.05506 0.0
H1102 H 0.0558 0.45154 0.03734 0.0
H1103 H 0.97674 0.47936 0.94494 0.0
H1104 H 0.00333 0.51608 0.93319 0.0
H1105 H 0.98871 0.50808 0.97479 0.0
C1106 C 0.49921 0.54603 0.94582 0.0
C1107 C 0.50465 0.57349 0.95652 0.0
C1108 C 0.51033 0.53077 0.96342 0.0
C1109 C 0.52829 0.54386 0.99155 0.0
C1110 C 0.53374 0.57161 0.00243 0.0
C1111 C 0.52142 0.58584 0.98512 0.0
C1112 C 0.50314 0.50081 0.95171 0.0
C1113 C 0.55348 0.58677 0.03165 0.0
C1114 C 0.54361 0.50075 0.05606 0.0
C1115 C 0.5707 0.50505 0.04551 0.0
C1116 C 0.52887 0.51205 0.03783 0.0
C1117 C 0.54212 0.52906 0.00913 0.0
C1118 C 0.5694 0.53317 0.99822 0.0
C1119 C 0.58312 0.52064 0.01625 0.0
C1120 C 0.49938 0.50628 0.04965 0.0
C1121 C 0.58474 0.5519 0.96839 0.0
H1122 H 0.48621 0.53648 0.92369 0.0
H1123 H 0.52602 0.6073 0.99309 0.0
H1124 H 0.52325 0.50133 0.94292 0.0
H1125 H 0.49434 0.48505 0.9726 0.0
H1126 H 0.48695 0.49271 0.93119 0.0
H1127 H 0.55579 0.60846 0.03669 0.0
H1128 H 0.54485 0.57315 0.05427 0.0
H1129 H 0.57547 0.58976 0.02687 0.0
H1130 H 0.53398 0.48857 0.07867 0.0
H1131 H 0.60426 0.52427 0.00835 0.0
H1132 H 0.48347 0.49798 0.02888 0.0
H1133 H 0.501 0.52691 0.05838 0.0
H1134 H 0.49077 0.49021 0.07029 0.0
H1135 H 0.57052 0.54358 0.94618 0.0
H1136 H 0.60565 0.55261 0.96289 0.0
H1137 H 0.58933 0.5745 0.97282 0.0
C1138 C 0.49951 0.04663 0.05599 0.0
C1139 C 0.49829 0.07048 0.04274 0.0
C1140 C 0.48837 0.0203 0.03831 0.0
C1141 C 0.47475 0.01744 0.00717 0.0
C1142 C 0.47387 0.04166 0.9935 0.0
C1143 C 0.48608 0.06805 0.01124 0.0
C1144 C 0.49063 0.99536 0.05327 0.0
C1145 C 0.45885 0.03932 0.96084 0.0
C1146 C 0.46016 0.9564 0.94651 0.0
C1147 C 0.43126 0.93568 0.95418 0.0
C1148 C 0.47506 0.98261 0.96452 0.0
C1149 C 0.46016 0.98875 0.98964 0.0
C1150 C 0.43086 0.96776 0.99737 0.0
C1151 C 0.41697 0.9412 0.97997 0.0
C1152 C 0.50659 0.00384 0.95641 0.0
C1153 C 0.41382 0.97381 0.0231 0.0
H1154 H 0.50904 0.04852 0.08033 0.0
H1155 H 0.48481 0.08636 1.00115 0.0
H1156 H 0.46858 0.97733 0.05988 0.0
H1157 H 0.49997 0.98664 0.03493 0.0
H1158 H 0.5044 0.00203 0.07597 0.0
H1159 H 0.46041 0.06026 0.9534 0.0
H1160 H 0.46852 0.03239 0.94091 0.0
H1161 H 0.43544 0.0224 0.96272 0.0
H1162 H 0.47113 0.95202 0.92648 0.0
H1163 H 0.39441 0.9253 0.98542 0.0
H1164 H 0.51996 0.01002 0.97938 0.0
H1165 H 0.50863 0.0241 0.9458 0.0
H1166 H 0.51574 0.99467 0.93836 0.0
H1167 H 0.42484 0.97813 0.04755 0.0
H1168 H 0.39113 0.95538 0.02584 0.0
H1169 H 0.41299 0.99366 0.0161 0.0
C1170 C 0.01726 0.15415 0.07184 0.0
C1171 C 0.02115 0.17913 0.08867 0.0
C1172 C 0.00746 0.14857 0.03879 0.0
C1173 C 1.00224 0.16884 0.02164 0.0
C1174 C 0.00666 0.19435 0.03811 0.0
C1175 C 0.01562 0.19897 0.07146 0.0
C1176 C 0.00255 0.12085 0.02228 0.0
C1177 C 1.00192 0.21683 0.02049 0.0
C1178 C 0.00393 0.16755 0.92732 0.0
C1179 C 0.97419 0.15387 0.91944 0.0
C1180 C 0.01336 0.17286 0.96046 0.0
C1181 C 0.99248 0.16353 0.98634 0.0
C1182 C 0.96234 0.14927 0.97844 0.0
C1183 C 0.95356 0.14499 0.94499 0.0
C1184 C 0.04569 0.18883 0.96774 0.0
C1185 C 0.93939 0.13835 0.00531 0.0
H1186 H 0.02198 0.13889 0.08435 0.0
H1187 H 0.01789 0.21804 0.08414 0.0
H1188 H 0.97988 0.10835 0.01272 0.0
H1189 H 0.01739 0.12621 1.0007 0.0
H1190 H 0.00632 0.10667 0.03948 0.0
H1191 H 0.0074 0.23605 0.03639 0.0
H1192 H 0.01552 0.22444 0.99771 0.0
H1193 H 0.97882 0.20693 0.01261 0.0
H1194 H 0.01984 0.17465 0.90742 0.0
H1195 H 0.93057 0.13432 0.93876 0.0
H1196 H 0.05135 0.17492 0.98297 0.0
H1197 H 0.05167 0.20882 0.98236 0.0
H1198 H 0.05908 0.19518 0.94475 0.0
H1199 H 0.94211 0.1232 0.02198 0.0
H1200 H 0.9169 0.12686 0.99504 0.0
H1201 H 0.94204 0.15688 0.02072 0.0
C1202 C 0.80848 0.80421 0.92731 0.0
C1203 C 0.83557 0.80915 0.91584 0.0
C1204 C 0.80398 0.80721 0.96109 0.0
C1205 C 0.82735 0.81597 0.98377 0.0
C1206 C 0.85475 0.82088 0.97227 0.0
C1207 C 0.85843 0.8171 0.93845 0.0
C1208 C 0.77428 0.80115 0.97245 0.0
C1209 C 0.88033 0.83071 0.99557 0.0
C1210 C 0.82433 0.85216 0.06405 0.0
C1211 C 0.81644 0.82962 0.08709 0.0
C1212 C 0.82813 0.84807 0.03036 0.0
C1213 C 0.82331 0.82056 0.01941 0.0
C1214 C 0.81481 0.79756 0.04255 0.0
C1215 C 0.81177 0.80246 0.0762 0.0
C1216 C 0.83767 0.87328 0.00658 0.0
C1217 C 0.80887 0.76776 0.03176 0.0
H1218 H 0.79072 0.7978 0.90982 0.0
H1219 H 0.87944 0.82111 0.92948 0.0
H1220 H 0.76612 0.78467 0.99262 0.0
H1221 H 0.77588 0.82134 0.98274 0.0
H1222 H 0.75804 0.7931 0.95197 0.0
H1223 H 0.90014 0.83352 0.9827 0.0
H1224 H 0.88553 0.85176 0.00723 0.0
H1225 H 0.87468 0.81459 0.01586 0.0
H1226 H 0.82814 0.87322 0.07255 0.0
H1227 H 0.80539 0.78494 0.094 0.0
H1228 H 0.82116 0.86739 0.98669 0.0
H1229 H 0.85845 0.87815 0.99443 0.0
H1230 H 0.84087 0.89335 0.01914 0.0
H1231 H 0.79191 0.75906 0.0121 0.0
H1232 H 0.80144 0.75194 0.05265 0.0
H1233 H 0.82891 0.76938 0.02097 0.0
C1234 C 0.19743 0.99858 0.92245 0.0
C1235 C 0.19168 0.02034 0.91151 0.0
C1236 C 0.19437 0.99047 0.95602 0.0
C1237 C 0.18494 0.0042 0.97908 0.0
C1238 C 0.17941 0.02643 0.96821 0.0
C1239 C 0.18306 0.0344 0.93455 0.0
C1240 C 0.20099 0.96706 0.96672 0.0
C1241 C 0.16905 0.04137 0.99201 0.0
C1242 C 0.14837 0.96396 0.05872 0.0
C1243 C 0.17065 0.97878 0.08203 0.0
C1244 C 0.15279 0.97192 0.02507 0.0
C1245 C 0.18028 0.99493 0.01449 0.0
C1246 C 0.20309 0.0094 0.03784 0.0
C1247 C 0.19793 1.00129 0.0714 0.0
C1248 C 0.12785 0.95615 1.00096 0.0
C1249 C 0.23286 0.03365 0.02747 0.0
H1250 H 0.20443 0.98793 0.90469 0.0
H1251 H 0.17841 0.05107 0.92606 0.0
H1252 H 0.21736 0.97532 0.98702 0.0
H1253 H 0.18094 0.94802 0.97663 0.0
H1254 H 0.20943 0.95953 0.94598 0.0
H1255 H 0.16601 0.05843 0.97966 0.0
H1256 H 0.148 0.02503 0.0033 0.0
H1257 H 0.18497 0.05162 0.01253 0.0
H1258 H 0.12723 0.94669 0.06701 0.0
H1259 H 0.21527 0.01252 0.08941 0.0
H1260 H 0.13434 0.94645 0.98061 0.0
H1261 H 0.12237 0.97185 0.98946 0.0
H1262 H 0.10796 0.93853 0.01309 0.0
H1263 H 0.24167 0.02604 0.00726 0.0
H1264 H 0.24866 0.0416 0.04839 0.0
H1265 H 0.23108 0.05225 0.01757 0.0
C1266 C 0.62634 0.47697 0.27378 0.0
C1267 C 0.64116 0.4997 0.25099 0.0
C1268 C 0.63399 0.48087 0.30755 0.0
C1269 C 0.65661 0.50832 0.31878 0.0
C1270 C 0.67099 0.53161 0.29596 0.0
C1271 C 0.66326 0.52693 0.26226 0.0
C1272 C 0.61841 0.4554 0.33103 0.0
C1273 C 0.69479 0.56136 0.30703 0.0
C1274 C 0.66045 0.52417 0.4113 0.0
C1275 C 0.68307 0.51943 0.42144 0.0
C1276 C 0.65187 0.52106 0.37787 0.0
C1277 C 0.66585 0.5124 0.35421 0.0
C1278 C 0.68867 0.50751 0.36442 0.0
C1279 C 0.69721 0.51138 0.39788 0.0
C1280 C 0.62791 0.5271 0.36787 0.0
C1281 C 0.70381 0.49783 0.34005 0.0
H1282 H 0.60937 0.45587 0.26498 0.0
H1283 H 0.67449 0.54461 0.24464 0.0
H1284 H 0.6343 0.44996 0.34209 0.0
H1285 H 0.60852 0.46128 0.35175 0.0
H1286 H 0.60097 0.43567 0.31847 0.0
H1287 H 0.70246 0.5776 0.28656 0.0
H1288 H 0.68685 0.56943 0.32769 0.0
H1289 H 0.71366 0.55985 0.31653 0.0
H1290 H 0.64972 0.53067 0.42952 0.0
H1291 H 0.71455 0.50751 0.40582 0.0
H1292 H 0.60923 0.50708 0.3574 0.0
H1293 H 0.63588 0.54401 0.34816 0.0
H1294 H 0.61997 0.53464 0.38909 0.0
H1295 H 0.68761 0.47706 0.3281 0.0
H1296 H 0.72084 0.49455 0.35207 0.0
H1297 H 0.71416 0.5143 0.32007 0.0
C1298 C 0.47236 0.1418 0.40399 0.0
C1299 C 0.47843 0.16913 0.41597 0.0
C1300 C 0.47495 0.13746 0.37009 0.0
C1301 C 0.48434 0.16117 0.34779 0.0
C1302 C 0.49021 0.18876 0.35976 0.0
C1303 C 0.48692 0.19234 0.39372 0.0
C1304 C 0.46795 0.10759 0.35821 0.0
C1305 C 0.50063 0.21464 0.33682 0.0
C1306 C 0.52002 0.1577 0.26743 0.0
C1307 C 0.49758 0.1504 0.24441 0.0
C1308 C 0.51606 0.16148 0.30113 0.0
C1309 C 0.4888 0.15732 0.3121 0.0
C1310 C 0.46592 0.14954 0.28897 0.0
C1311 C 0.47068 0.14643 0.25531 0.0
C1312 C 0.54112 0.1702 0.32495 0.0
C1313 C 0.43639 0.14437 0.2998 0.0
H1314 H 0.46546 0.12378 0.4212 0.0
H1315 H 0.49179 0.2135 0.40308 0.0
H1316 H 0.45156 0.10014 0.33796 0.0
H1317 H 0.48787 0.10861 0.34789 0.0
H1318 H 0.45937 0.09111 0.37844 0.0
H1319 H 0.50382 0.23448 0.34997 0.0
H1320 H 0.52161 0.21954 0.32522 0.0
H1321 H 0.48468 0.20954 0.31646 0.0
H1322 H 0.54089 0.16099 0.25891 0.0
H1323 H 0.45322 0.14049 0.23752 0.0
H1324 H 0.53479 0.15341 0.34459 0.0
H1325 H 0.54647 0.19099 0.33742 0.0
H1326 H 0.56103 0.17301 0.31235 0.0
H1327 H 0.42717 0.12714 0.31913 0.0
H1328 H 0.42069 0.13768 0.27885 0.0
H1329 H 0.43864 0.16453 0.31103 0.0
C1330 C 0.82046 0.33797 0.26147 0.0
C1331 C 0.8473 0.36188 0.25147 0.0
C1332 C 0.81524 0.32855 0.29465 0.0
C1333 C 0.83779 0.3424 0.31839 0.0
C1334 C 0.86496 0.36632 0.30866 0.0
C1335 C 0.86913 0.37618 0.27566 0.0
C1336 C 0.78558 0.30363 0.30425 0.0
C1337 C 0.88988 0.38119 0.33301 0.0
C1338 C 0.82109 0.33553 0.41085 0.0
C1339 C 0.82536 0.31231 0.42024 0.0
C1340 C 0.82413 0.34487 0.37772 0.0
C1341 C 0.83307 0.33174 0.35335 0.0
C1342 C 0.83783 0.30864 0.36247 0.0
C1343 C 0.83326 0.29878 0.39551 0.0
C1344 C 0.81784 0.3689 0.36883 0.0
C1345 C 0.84822 0.29461 0.33741 0.0
H1346 H 0.80348 0.32609 0.24335 0.0
H1347 H 0.88969 0.39514 0.269 0.0
H1348 H 0.78744 0.28452 0.31196 0.0
H1349 H 0.77685 0.30996 0.32576 0.0
H1350 H 0.76964 0.29686 0.28354 0.0
H1351 H 0.91012 0.39853 0.32114 0.0
H1352 H 0.88377 0.39113 0.35344 0.0
H1353 H 0.89463 0.36491 0.34434 0.0
H1354 H 0.81574 0.34689 0.4294 0.0
H1355 H 0.83596 0.28039 0.40172 0.0
H1356 H 0.80216 0.36192 0.34787 0.0
H1357 H 0.83817 0.38853 0.36058 0.0
H1358 H 0.80868 0.3751 0.39007 0.0
H1359 H 0.83174 0.28406 0.3175 0.0
H1360 H 0.85237 0.27792 0.34881 0.0
H1361 H 0.86865 0.31151 0.32549 0.0
C1362 C 0.37058 0.84918 0.72749 0.0
C1363 C 0.35664 0.85818 0.75019 0.0
C1364 C 0.36264 0.84522 0.69383 0.0
C1365 C 0.3407 0.85105 0.68258 0.0
C1366 C 0.3271 0.86088 0.70536 0.0
C1367 C 0.33502 0.86401 0.739 0.0
C1368 C 0.37732 0.83426 0.67042 0.0
C1369 C 0.30411 0.86796 0.69424 0.0
C1370 C 0.33899 0.86389 0.59 0.0
C1371 C 0.31594 0.83694 0.57942 0.0
C1372 C 0.34687 0.86903 0.62364 0.0
C1373 C 0.33172 0.84643 0.64707 0.0
C1374 C 0.30833 0.81918 0.63646 0.0
C1375 C 0.30051 0.81488 0.60275 0.0
C1376 C 0.37147 0.89858 0.63406 0.0
C1377 C 0.29196 0.79439 0.66059 0.0
H1378 H 0.38717 0.8445 0.73629 0.0
H1379 H 0.32446 0.87124 0.75662 0.0
H1380 H 0.36073 0.81341 0.65899 0.0
H1381 H 0.38815 0.85012 0.64998 0.0
H1382 H 0.39387 0.83066 0.68314 0.0
H1383 H 0.29677 0.87681 0.71475 0.0
H1384 H 0.31271 0.88418 0.67379 0.0
H1385 H 0.28489 0.84804 0.68441 0.0
H1386 H 0.35072 0.88105 0.57193 0.0
H1387 H 0.2828 0.79399 0.59445 0.0
H1388 H 0.38966 0.89636 0.64448 0.0
H1389 H 0.36394 0.90781 0.6539 0.0
H1390 H 0.37999 0.91427 0.61305 0.0
H1391 H 0.3073 0.78866 0.6726 0.0
H1392 H 0.27432 0.77459 0.64835 0.0
H1393 H 0.28218 0.80118 0.68056 0.0
C1394 C 0.18973 0.4866 0.60494 0.0
C1395 C 0.16929 0.48355 0.58078 0.0
C1396 C 0.18578 0.4911 0.63851 0.0
C1397 C 0.16096 0.49287 0.64809 0.0
C1398 C 0.13999 0.48923 0.62394 0.0
C1399 C 0.14427 0.48437 0.59072 0.0
C1400 C 0.20842 0.49445 0.66363 0.0
C1401 C 0.11323 0.49098 0.63309 0.0
C1402 C 0.13638 0.48175 0.73822 0.0
C1403 C 0.14812 0.51059 0.74936 0.0
C1404 C 0.14081 0.47566 0.70551 0.0
C1405 C 0.15705 0.49898 0.68325 0.0
C1406 C 0.1689 0.52815 0.69435 0.0
C1407 C 0.16449 0.53361 0.72737 0.0
C1408 C 0.1282 0.44428 0.69481 0.0
C1409 C 0.18594 0.55359 0.67122 0.0
H1410 H 0.20919 0.48619 0.59752 0.0
H1411 H 0.12797 0.48131 0.57242 0.0
H1412 H 0.21886 0.51662 0.67466 0.0
H1413 H 0.19791 0.47861 0.68419 0.0
H1414 H 0.22568 0.49104 0.6525 0.0
H1415 H 0.09892 0.48752 0.61137 0.0
H1416 H 0.10037 0.47439 0.65221 0.0
H1417 H 0.11989 0.51269 0.64398 0.0
H1418 H 0.12409 0.46391 0.75533 0.0
H1419 H 0.17345 0.55591 0.73587 0.0
H1420 H 0.14581 0.44067 0.68531 0.0
H1421 H 0.11247 0.4393 0.67422 0.0
H1422 H 0.11681 0.42871 0.71542 0.0
H1423 H 0.20501 0.5528 0.66107 0.0
H1424 H 0.19384 0.57494 0.68375 0.0
H1425 H 0.17205 0.55218 0.64986 0.0
C1426 C 0.50842 0.6791 0.74728 0.0
C1427 C 0.49266 0.64923 0.75456 0.0
C1428 C 0.51398 0.689 0.71431 0.0
C1429 C 0.50283 0.66851 0.68801 0.0
C1430 C 0.48652 0.63828 0.6953 0.0
C1431 C 0.48198 0.62897 0.72856 0.0
C1432 C 0.53212 0.72134 0.70764 0.0
C1433 C 0.47369 0.6158 0.66799 0.0
C1434 C 0.49487 0.69597 0.60352 0.0
C1435 C 0.51863 0.69774 0.58589 0.0
C1436 C 0.4893 0.6862 0.63657 0.0
C1437 C 0.50836 0.67875 0.65287 0.0
C1438 C 0.53275 0.68113 0.63563 0.0
C1439 C 0.53736 0.69019 0.60232 0.0
C1440 C 0.46279 0.68353 0.65395 0.0
C1441 C 0.55394 0.67395 0.6523 0.0
H1442 H 0.51691 0.69471 0.76749 0.0
H1443 H 0.46969 0.60587 0.7343 0.0
H1444 H 0.5515 0.72593 0.69254 0.0
H1445 H 0.51928 0.7288 0.69309 0.0
H1446 H 0.53966 0.73434 0.73088 0.0
H1447 H 0.46081 0.59323 0.67783 0.0
H1448 H 0.45933 0.6203 0.652 0.0
H1449 H 0.49136 0.61711 0.65199 0.0
H1450 H 0.48052 0.70224 0.59156 0.0
H1451 H 0.55543 0.6908 0.589 0.0
H1452 H 0.46959 0.69803 0.67599 0.0
H1453 H 0.44876 0.66086 0.66297 0.0
H1454 H 0.44959 0.68929 0.63749 0.0
H1455 H 0.56269 0.6871 0.67526 0.0
H1456 H 0.57253 0.67815 0.63591 0.0
H1457 H 0.54254 0.65065 0.65974 0.0
C1458 C 0.10682 0.01968 0.20526 0.0
C1459 C 0.11787 0.0097 0.23053 0.0
C1460 C 0.10309 0.04381 0.21013 0.0
C1461 C 0.11005 0.05808 0.24128 0.0
C1462 C 0.12042 0.04763 0.26728 0.0
C1463 C 0.12456 0.02373 0.26147 0.0
C1464 C 0.09243 0.0545 0.18156 0.0
C1465 C 0.1273 0.06182 0.30108 0.0
C1466 C 0.12867 0.13708 0.23736 0.0
C1467 C 0.10154 0.13486 0.24369 0.0
C1468 C 0.13202 0.11243 0.23785 0.0
C1469 C 0.10782 0.08483 0.24569 0.0
C1470 C 0.08086 0.08264 0.25431 0.0
C1471 C 0.07794 0.10759 0.25288 0.0
C1472 C 0.16109 0.11573 0.22817 0.0
C1473 C 0.05461 0.05371 0.26339 0.0
H1474 H 0.10175 0.00906 0.18121 0.0
H1475 H 0.13289 0.01595 0.28116 0.0
H1476 H 0.07221 0.05452 0.18874 0.0
H1477 H 0.10906 0.0773 0.17531 0.0
H1478 H 0.08784 0.04085 0.15896 0.0
H1479 H 0.13338 0.04995 0.31922 0.0
H1480 H 0.1456 0.08461 0.29915 0.0
H1481 H 0.10816 0.06274 0.31079 0.0
H1482 H 0.14728 0.15805 0.23115 0.0
H1483 H 0.05681 0.10534 0.25774 0.0
H1484 H 0.15872 0.10396 0.20453 0.0
H1485 H 0.16855 0.10584 0.24728 0.0
H1486 H 0.17824 0.13893 0.22482 0.0
H1487 H 0.04494 0.04074 0.24051 0.0
H1488 H 0.03757 0.05656 0.2761 0.0
H1489 H 0.06093 0.04094 0.27977 0.0
C1490 C 0.9801 0.09609 0.24837 0.0
C1491 C 0.97065 0.1164 0.25177 0.0
C1492 C 0.96 0.06594 0.24934 0.0
C1493 C 0.93001 0.05609 0.25482 0.0
C1494 C 0.92089 0.07668 0.26076 0.0
C1495 C 0.94124 0.10657 0.2586 0.0
C1496 C 0.97055 0.04476 0.24223 0.0
C1497 C 0.88931 0.06719 0.26754 0.0
C1498 C 0.87086 0.98643 0.21533 0.0
C1499 C 0.86133 0.96692 0.24206 0.0
C1500 C 0.89406 0.01507 0.2189 0.0
C1501 C 0.9076 0.02475 0.25028 0.0
C1502 C 0.89828 0.00501 0.27736 0.0
C1503 C 0.87545 0.97612 0.27278 0.0
C1504 C 0.90373 0.03513 0.18913 0.0
C1505 C 0.91166 0.01467 0.31136 0.0
H1506 H 0.00284 0.10371 0.24282 0.0
H1507 H 0.93401 0.12234 0.26145 0.0
H1508 H 0.96151 0.03376 0.21813 0.0
H1509 H 0.99474 0.05575 0.24102 0.0
H1510 H 0.96266 0.02756 0.26156 0.0
H1511 H 0.8865 0.08558 0.27612 0.0
H1512 H 0.87634 0.05809 0.24454 0.0
H1513 H 0.88019 0.04974 0.28662 0.0
H1514 H 0.86026 0.97906 0.19143 0.0
H1515 H 0.868 0.96094 0.2934 0.0
H1516 H 0.92766 0.04532 0.18563 0.0
H1517 H 0.89889 0.05299 0.19329 0.0
H1518 H 0.89266 0.02351 0.16593 0.0
H1519 H 0.93575 0.02502 0.30991 0.0
H1520 H 0.9033 0.99624 0.32924 0.0
H1521 H 0.90673 0.03133 0.32112 0.0
C1522 C 0.89896 0.86172 0.25949 0.0
C1523 C 0.8962 0.8807 0.23742 0.0
C1524 C 0.92592 0.86297 0.26388 0.0
C1525 C 0.95062 0.88371 0.24584 0.0
C1526 C 0.94817 0.90368 0.22461 0.0
C1527 C 0.92103 0.90191 0.22065 0.0
C1528 C 0.92773 0.84141 0.28685 0.0
C1529 C 0.97401 0.92627 0.20506 0.0
C1530 C 0.02842 0.90407 0.26754 0.0
C1531 C 0.03439 0.88871 0.24328 0.0
C1532 C 1.00081 0.90167 0.26974 0.0
C1533 C 0.97861 0.88346 0.24716 0.0
C1534 C 0.98404 0.86683 0.22372 0.0
C1535 C 0.01181 0.86965 0.22207 0.0
C1536 C 0.99582 0.91961 0.29525 0.0
C1537 C 0.96098 0.84718 0.19913 0.0
H1538 H 0.87989 0.84526 0.27254 0.0
H1539 H 0.91917 0.91685 0.20377 0.0
H1540 H 0.93193 0.82616 0.27216 0.0
H1541 H 0.94619 0.85291 0.30441 0.0
H1542 H 0.90732 0.82846 0.3013 0.0
H1543 H 0.96887 0.94125 0.19113 0.0
H1544 H 0.99264 0.93944 0.22191 0.0
H1545 H 0.98121 0.91525 0.1871 0.0
H1546 H 0.04551 0.91843 0.28445 0.0
H1547 H 0.01618 0.85792 0.20301 0.0
H1548 H 0.97534 0.90577 0.30915 0.0
H1549 H 0.99336 0.93686 0.28257 0.0
H1550 H 0.01414 0.93021 0.31321 0.0
H1551 H 0.94034 0.83225 0.21219 0.0
H1552 H 0.96783 0.83391 0.18436 0.0
H1553 H 0.95628 0.86061 0.18179 0.0
C1554 C 0.05185 0.14988 0.79197 0.0
C1555 C 0.0317 0.14575 0.76699 0.0
C1556 C 0.07261 0.14114 0.78749 0.0
C1557 C 0.07378 0.12858 0.75692 0.0
C1558 C 0.05339 0.12419 0.73158 0.0
C1559 C 0.03228 0.13249 0.73709 0.0
C1560 C 0.09338 0.14551 0.81553 0.0
C1561 C 0.05431 0.11135 0.69847 0.0
C1562 C 0.1481 0.13615 0.74252 0.0
C1563 C 0.1432 0.10873 0.75252 0.0
C1564 C 0.12517 0.14227 0.7416 0.0
C1565 C 0.09684 0.12066 0.75176 0.0
C1566 C 0.09156 0.09254 0.76066 0.0
C1567 C 0.11478 0.08685 0.76061 0.0
C1568 C 0.13157 0.17229 0.73117 0.0
C1569 C 0.06188 0.06906 0.77234 0.0
H1570 H 0.05122 0.15972 0.81533 0.0
H1571 H 0.01673 0.12932 0.71774 0.0
H1572 H 0.09223 0.12453 0.82169 0.0
H1573 H 0.11611 0.161 0.80778 0.0
H1574 H 0.08855 0.15414 0.83832 0.0
H1575 H 0.03669 0.10897 0.68154 0.0
H1576 H 0.07569 0.12551 0.68635 0.0
H1577 H 0.05226 0.08962 0.70202 0.0
H1578 H 0.17001 0.15295 0.73592 0.0
H1579 H 0.11102 0.06571 0.76867 0.0
H1580 H 0.13034 0.1843 0.75312 0.0
H1581 H 0.11504 0.17065 0.71303 0.0
H1582 H 0.15359 0.18524 0.71992 0.0
H1583 H 0.05703 0.07533 0.7968 0.0
H1584 H 0.06062 0.04757 0.77499 0.0
H1585 H 0.04465 0.06669 0.75486 0.0
C1586 C 0.92556 0.02965 0.74978 0.0
C1587 C 0.90134 0.03258 0.75799 0.0
C1588 C 0.92321 0.00203 0.74778 0.0
C1589 C 0.89614 0.97673 0.75474 0.0
C1590 C 0.87135 0.9794 0.76151 0.0
C1591 C 0.87418 0.00718 0.76261 0.0
C1592 C 0.95003 1.00006 0.73978 0.0
C1593 C 0.84213 0.95302 0.76946 0.0
C1594 C 0.8815 0.89983 0.73698 0.0
C1595 C 0.88729 0.89185 0.76802 0.0
C1596 C 0.88529 0.92781 0.73181 0.0
C1597 C 0.8943 0.94787 0.75856 0.0
C1598 C 0.90028 0.93987 0.78986 0.0
C1599 C 0.89702 0.91212 0.79407 0.0
C1600 C 0.87944 0.93585 0.69788 0.0
C1601 C 0.90933 0.96031 0.81925 0.0
H1602 H 0.9467 0.04888 0.74613 0.0
H1603 H 0.85509 0.00893 0.76798 0.0
H1604 H 0.95761 0.99393 0.76245 0.0
H1605 H 0.9449 0.98286 0.72094 0.0
H1606 H 0.9682 0.02108 0.73039 0.0
H1607 H 0.82459 0.95858 0.7721 0.0
H1608 H 0.83573 0.93627 0.74977 0.0
H1609 H 0.84374 0.94307 0.79303 0.0
H1610 H 0.87418 0.88427 0.71671 0.0
H1611 H 0.90134 0.90602 0.8182 0.0
H1612 H 0.89858 0.95653 0.68938 0.0
H1613 H 0.86062 0.93957 0.69909 0.0
H1614 H 0.87462 0.9186 0.67916 0.0
H1615 H 0.92953 0.98105 0.81335 0.0
H1616 H 0.91329 0.95078 0.84186 0.0
H1617 H 0.89208 0.96575 0.82487 0.0
C1618 C 0.1029 0.97174 0.7334 0.0
C1619 C 0.10957 0.98613 0.76411 0.0
C1620 C 0.0758 0.94635 0.7281 0.0
C1621 C 0.05529 0.93486 0.75437 0.0
C1622 C 0.06206 0.94929 0.78543 0.0
C1623 C 0.08896 0.97485 0.7898 0.0
C1624 C 0.06904 0.93189 0.69444 0.0
C1625 C 0.04101 0.93755 0.81427 0.0
C1626 C 0.97398 0.88472 0.74334 0.0
C1627 C 0.97042 0.85755 0.75284 0.0
C1628 C 1.00172 0.90972 0.74148 0.0
C1629 C 0.02662 0.90778 0.74986 0.0
C1630 C 0.02349 0.88031 0.75774 0.0
C1631 C 0.9955 0.85551 0.75879 0.0
C1632 C 0.00415 0.93856 0.73246 0.0
C1633 C 0.04952 0.87737 0.76712 0.0
H1634 H 0.11875 0.98043 0.71344 0.0
H1635 H 0.09406 0.98568 0.81372 0.0
H1636 H 0.06479 0.90922 0.69674 0.0
H1637 H 0.04894 0.9306 0.68428 0.0
H1638 H 0.08712 0.94382 0.67647 0.0
H1639 H 0.04993 0.95102 0.83703 0.0
H1640 H 0.02031 0.9368 0.80764 0.0
H1641 H 0.03566 0.91491 0.82001 0.0
H1642 H 0.95513 0.88704 0.73876 0.0
H1643 H 0.99336 0.83473 0.76539 0.0
H1644 H 0.02186 0.95039 0.71409 0.0
H1645 H 0.00974 0.95248 0.75492 0.0
H1646 H 0.98346 0.93577 0.72204 0.0
H1647 H 0.06714 0.88822 0.74845 0.0
H1648 H 0.04385 0.85421 0.76943 0.0
H1649 H 0.05837 0.88839 0.79126 0.0
C1650 C 0.78542 0.35364 0.57846 0.0
C1651 C 0.81518 0.3627 0.58024 0.0
C1652 C 0.77591 0.37413 0.57993 0.0
C1653 C 0.79668 0.40412 0.58424 0.0
C1654 C 0.82652 0.41291 0.58851 0.0
C1655 C 0.83545 0.39215 0.58589 0.0
C1656 C 0.74401 0.36394 0.57459 0.0
C1657 C 0.84929 0.4445 0.59402 0.0
C1658 C 0.78596 0.46334 0.54561 0.0
C1659 C 0.7775 0.47369 0.57294 0.0
C1660 C 0.7909 0.4398 0.54876 0.0
C1661 C 0.7881 0.42679 0.58028 0.0
C1662 C 0.77922 0.43696 0.60798 0.0
C1663 C 0.77361 0.4601 0.60385 0.0
C1664 C 0.79962 0.42922 0.51839 0.0
C1665 C 0.7767 0.42416 0.6421 0.0
H1666 H 0.76979 0.33084 0.57383 0.0
H1667 H 0.85846 0.39905 0.58749 0.0
H1668 H 0.73581 0.37264 0.59426 0.0
H1669 H 0.74121 0.37243 0.55051 0.0
H1670 H 0.7304 0.33976 0.57433 0.0
H1671 H 0.87071 0.44712 0.60134 0.0
H1672 H 0.85233 0.45702 0.57084 0.0
H1673 H 0.84207 0.45425 0.61359 0.0
H1674 H 0.78838 0.47355 0.52161 0.0
H1675 H 0.76702 0.46819 0.62491 0.0
H1676 H 0.78538 0.40526 0.51566 0.0
H1677 H 0.82236 0.43374 0.52118 0.0
H1678 H 0.79825 0.43992 0.49528 0.0
H1679 H 0.76252 0.4001 0.64137 0.0
H1680 H 0.76773 0.43317 0.66058 0.0
H1681 H 0.79857 0.42885 0.65062 0.0
C1682 C 0.63581 0.43694 0.59418 0.0
C1683 C 0.65695 0.43959 0.57122 0.0
C1684 C 0.61005 0.4101 0.599 0.0
C1685 C 0.60541 0.38541 0.58046 0.0
C1686 C 0.62722 0.38771 0.55831 0.0
C1687 C 0.65268 0.41475 0.55395 0.0
C1688 C 0.58734 0.40844 0.62295 0.0
C1689 C 0.62322 0.36186 0.53821 0.0
C1690 C 0.54788 0.30776 0.60254 0.0
C1691 C 0.52606 0.30212 0.57906 0.0
C1692 C 0.57332 0.33523 0.60441 0.0
C1693 C 0.57704 0.3576 0.58227 0.0
C1694 C 0.5545 0.3525 0.55966 0.0
C1695 C 0.52932 0.32487 0.55834 0.0
C1696 C 0.59677 0.33989 0.62902 0.0
C1697 C 0.55762 0.37577 0.53558 0.0
H1698 H 0.63894 0.45603 0.60764 0.0
H1699 H 0.669 0.41652 0.53639 0.0
H1700 H 0.56762 0.40451 0.60902 0.0
H1701 H 0.58059 0.38987 0.64028 0.0
H1702 H 0.59535 0.4288 0.63764 0.0
H1703 H 0.64296 0.36687 0.52354 0.0
H1704 H 0.61795 0.34312 0.55478 0.0
H1705 H 0.60461 0.35491 0.52087 0.0
H1706 H 0.54535 0.29053 0.61908 0.0
H1707 H 0.51284 0.32074 0.53988 0.0
H1708 H 0.60397 0.36035 0.64317 0.0
H1709 H 0.61609 0.34218 0.61555 0.0
H1710 H 0.58928 0.32148 0.64682 0.0
H1711 H 0.56386 0.39639 0.54895 0.0
H1712 H 0.53718 0.36917 0.52154 0.0
H1713 H 0.57527 0.38036 0.51757 0.0
C1714 C 0.69977 0.25511 0.58519 0.0
C1715 C 0.70333 0.23162 0.57524 0.0
C1716 C 0.67196 0.25235 0.58682 0.0
C1717 C 0.64709 0.22566 0.57762 0.0
C1718 C 0.65035 0.20156 0.56888 0.0
C1719 C 0.6783 0.20474 0.56818 0.0
C1720 C 0.66945 0.2785 0.59681 0.0
C1721 C 0.62446 0.17278 0.55856 0.0
C1722 C 0.56951 0.20956 0.59461 0.0
C1723 C 0.56224 0.21711 0.56415 0.0
C1724 C 0.59739 0.21305 0.59984 0.0
C1725 C 0.61814 0.22369 0.57374 0.0
C1726 C 0.61088 0.23145 0.54305 0.0
C1727 C 0.58318 0.22831 0.53877 0.0
C1728 C 0.60463 0.20528 0.63317 0.0
C1729 C 0.63213 0.24243 0.51438 0.0
H1730 H 0.71871 0.27608 0.59059 0.0
H1731 H 0.68052 0.18619 0.56131 0.0
H1732 H 0.66581 0.2884 0.57437 0.0
H1733 H 0.65058 0.27197 0.61363 0.0
H1734 H 0.68952 0.2954 0.60938 0.0
H1735 H 0.63038 0.15564 0.55447 0.0
H1736 H 0.60709 0.16498 0.57769 0.0
H1737 H 0.61513 0.17574 0.53519 0.0
H1738 H 0.55349 0.20107 0.61439 0.0
H1739 H 0.5777 0.23403 0.51507 0.0
H1740 H 0.62475 0.22413 0.64326 0.0
H1741 H 0.60902 0.18699 0.63035 0.0
H1742 H 0.5867 0.19882 0.65143 0.0
H1743 H 0.65252 0.2624 0.52179 0.0
H1744 H 0.62309 0.24753 0.49214 0.0
H1745 H 0.63806 0.22577 0.50744 0.0
C1746 C 0.79848 0.4564 0.11904 0.0
C1747 C 0.80292 0.43874 0.09656 0.0
C1748 C 0.77315 0.45858 0.11786 0.0
C1749 C 0.7516 0.44269 0.09361 0.0
C1750 C 0.75607 0.42519 0.07044 0.0
C1751 C 0.78166 0.4234 0.07221 0.0
C1752 C 0.76913 0.4773 0.14322 0.0
C1753 C 0.73361 0.40797 0.04418 0.0
C1754 C 0.67562 0.42658 0.11726 0.0
C1755 C 0.67382 0.44912 0.10111 0.0
C1756 C 0.70028 0.42348 0.11382 0.0
C1757 C 0.72384 0.44344 0.0938 0.0
C1758 C 0.72166 0.46547 0.07626 0.0
C1759 C 0.69663 0.46804 0.0801 0.0
C1760 C 0.70162 0.39956 0.1328 0.0
C1761 C 0.74626 0.48707 0.05454 0.0
H1762 H 0.81442 0.46795 0.13829 0.0
H1763 H 0.78503 0.40998 0.05451 0.0
H1764 H 0.76494 0.49347 0.13059 0.0
H1765 H 0.74984 0.46346 0.15894 0.0
H1766 H 0.78846 0.48919 0.1596 0.0
H1767 H 0.74107 0.39668 0.02691 0.0
H1768 H 0.71305 0.39138 0.05614 0.0
H1769 H 0.72846 0.42259 0.0296 0.0
H1770 H 0.65796 0.41165 0.13327 0.0
H1771 H 0.6954 0.48547 0.06749 0.0
H1772 H 0.71881 0.40936 0.15213 0.0
H1773 H 0.70756 0.38677 0.11596 0.0
H1774 H 0.68057 0.3844 0.14505 0.0
H1775 H 0.76547 0.50127 0.07019 0.0
H1776 H 0.74012 0.50111 0.0402 0.0
H1777 H 0.75305 0.47547 0.03692 0.0
C1778 C 0.56911 0.2545 0.11001 0.0
C1779 C 0.548 0.22938 0.09359 0.0
C1780 C 0.57039 0.2814 0.10579 0.0
C1781 C 0.55 0.28326 0.08469 0.0
C1782 C 0.5294 0.25828 0.06693 0.0
C1783 C 0.52866 0.2316 0.07156 0.0
C1784 C 0.59287 0.30758 0.12499 0.0
C1785 C 0.50741 0.25946 0.04411 0.0
C1786 C 0.53455 0.34344 0.10862 0.0
C1787 C 0.5532 0.36612 0.08728 0.0
C1788 C 0.53228 0.31593 0.10695 0.0
C1789 C 0.54907 0.31087 0.08334 0.0
C1790 C 0.56678 0.33313 0.06057 0.0
C1791 C 0.56863 0.36048 0.0628 0.0
C1792 C 0.51314 0.29277 0.13173 0.0
C1793 C 0.58483 0.3285 0.03486 0.0
H1794 H 0.58432 0.25306 0.12683 0.0
H1795 H 0.51228 0.21229 0.05877 0.0
H1796 H 0.60557 0.32619 0.10796 0.0
H1797 H 0.58175 0.31454 0.1431 0.0
H1798 H 0.60829 0.30293 0.13871 0.0
H1799 H 0.49476 0.23897 0.02972 0.0
H1800 H 0.49193 0.26323 0.05891 0.0
H1801 H 0.51849 0.27795 0.0265 0.0
H1802 H 0.52277 0.34757 0.12783 0.0
H1803 H 0.58268 0.37766 0.04581 0.0
H1804 H 0.52697 0.28854 0.14895 0.0
H1805 H 0.49843 0.27198 0.11883 0.0
H1806 H 0.49965 0.29928 0.14661 0.0
H1807 H 0.60256 0.32673 0.04734 0.0
H1808 H 0.59482 0.3467 0.01667 0.0
H1809 H 0.57125 0.3078 0.02124 0.0
C1810 C 0.76278 0.31651 0.09249 0.0
C1811 C 0.78371 0.3077 0.09235 0.0
C1812 C 0.73288 0.29582 0.08982 0.0
C1813 C 0.72399 0.26586 0.08602 0.0
C1814 C 0.74535 0.25731 0.08355 0.0
C1815 C 0.7749 0.27828 0.08733 0.0
C1816 C 0.71084 0.3058 0.09335 0.0
C1817 C 0.73693 0.22578 0.07858 0.0
C1818 C 0.6526 0.20617 0.1216 0.0
C1819 C 0.63495 0.19577 0.09333 0.0
C1820 C 0.68112 0.22989 0.11971 0.0
C1821 C 0.69261 0.24301 0.08853 0.0
C1822 C 0.6747 0.23279 0.05987 0.0
C1823 C 0.64583 0.2095 0.06273 0.0
C1824 C 0.69913 0.24053 0.15105 0.0
C1825 C 0.68635 0.24573 0.02611 0.0
H1826 H 0.76964 0.33928 0.09667 0.0
H1827 H 0.79119 0.27156 0.08697 0.0
H1828 H 0.69381 0.29586 0.07389 0.0
H1829 H 0.69974 0.29853 0.11774 0.0
H1830 H 0.72117 0.32993 0.09188 0.0
H1831 H 0.7561 0.22331 0.07275 0.0
H1832 H 0.7265 0.21322 0.10148 0.0
H1833 H 0.72081 0.21594 0.05815 0.0
H1834 H 0.64386 0.19581 0.14533 0.0
H1835 H 0.63202 0.20136 0.04096 0.0
H1836 H 0.70864 0.26447 0.15364 0.0
H1837 H 0.71751 0.23615 0.14973 0.0
H1838 H 0.6861 0.22976 0.17363 0.0
H1839 H 0.69592 0.26975 0.02675 0.0
H1840 H 0.66917 0.23655 0.00666 0.0
H1841 H 0.70407 0.24137 0.01902 0.0
C1842 C 0.44183 0.79875 0.9389 0.0
C1843 C 0.447 0.81302 0.90827 0.0
C1844 C 0.44755 0.77572 0.94333 0.0
C1845 C 0.45782 0.76635 0.91617 0.0
C1846 C 0.46205 0.78014 0.8849 0.0
C1847 C 0.45696 0.80355 0.8815 0.0
C1848 C 0.44342 0.762 0.97719 0.0
C1849 C 0.47225 0.77039 0.85506 0.0
C1850 C 0.50405 0.73061 0.92363 0.0
C1851 C 0.48378 0.70148 0.91638 0.0
C1852 C 0.49536 0.75156 0.92629 0.0
C1853 C 0.46584 0.74332 0.9204 0.0
C1854 C 0.44501 0.7136 0.91453 0.0
C1855 C 0.45422 0.6929 0.91301 0.0
C1856 C 0.51811 0.78283 0.93352 0.0
C1857 C 0.41348 0.70397 0.90736 0.0
H1858 H 0.43407 0.80618 0.95952 0.0
H1859 H 0.46037 0.8143 0.85768 0.0
H1860 H 0.4288 0.73804 0.97555 0.0
H1861 H 0.46474 0.76589 0.98672 0.0
H1862 H 0.43411 0.77093 0.99535 0.0
H1863 H 0.47226 0.78191 0.832 0.0
H1864 H 0.49471 0.77455 0.85937 0.0
H1865 H 0.458 0.74657 0.85117 0.0
H1866 H 0.52689 0.73714 0.92643 0.0
H1867 H 0.43859 0.67039 0.90704 0.0
H1868 H 0.51012 0.79217 0.95272 0.0
H1869 H 0.52251 0.79613 0.91069 0.0
H1870 H 0.53899 0.78487 0.94214 0.0
H1871 H 0.40489 0.71348 0.92561 0.0
H1872 H 0.39944 0.67983 0.90775 0.0
H1873 H 0.41182 0.71195 0.88243 0.0
C1874 C 0.32347 0.75217 0.88397 0.0
C1875 C 0.32595 0.77685 0.89995 0.0
C1876 C 0.29823 0.72477 0.88721 0.0
C1877 C 0.27477 0.72195 0.90684 0.0
C1878 C 0.27755 0.74652 0.92412 0.0
C1879 C 0.30316 0.77372 0.92052 0.0
C1880 C 0.29625 0.69908 0.86857 0.0
C1881 C 0.25304 0.74434 0.94534 0.0
C1882 C 0.20016 0.66052 0.88101 0.0
C1883 C 0.19547 0.6384 0.9036 0.0
C1884 C 0.22544 0.68807 0.88251 0.0
C1885 C 0.24669 0.69374 0.90718 0.0
C1886 C 0.24179 0.67186 0.93065 0.0
C1887 C 0.21624 0.64447 0.9286 0.0
C1888 C 0.22988 0.71079 0.85691 0.0
C1889 C 0.26389 0.67711 0.95737 0.0
H1890 H 0.34108 0.75432 0.86828 0.0
H1891 H 0.3049 0.79269 0.93294 0.0
H1892 H 0.29011 0.68049 0.88571 0.0
H1893 H 0.27895 0.69171 0.84937 0.0
H1894 H 0.31712 0.70447 0.8562 0.0
H1895 H 0.25954 0.76476 0.95938 0.0
H1896 H 0.23411 0.73967 0.92936 0.0
H1897 H 0.24565 0.72603 0.96319 0.0
H1898 H 0.18455 0.65605 0.86134 0.0
H1899 H 0.21263 0.62771 0.94647 0.0
H1900 H 0.24898 0.71567 0.84114 0.0
H1901 H 0.23461 0.73142 0.86929 0.0
H1902 H 0.21053 0.70356 0.84061 0.0
H1903 H 0.28439 0.68049 0.94584 0.0
H1904 H 0.25596 0.65857 0.97504 0.0
H1905 H 0.26932 0.69721 0.97145 0.0
C1906 C 0.2339 0.54729 0.92763 0.0
C1907 C 0.21958 0.53168 0.89894 0.0
C1908 C 0.26381 0.55738 0.9325 0.0
C1909 C 0.27974 0.55221 0.90776 0.0
C1910 C 0.26555 0.53755 0.87817 0.0
C1911 C 0.23565 0.52722 0.8743 0.0
C1912 C 0.27808 0.57257 0.96455 0.0
C1913 C 0.28179 0.53211 0.85082 0.0
C1914 C 0.36258 0.59231 0.90258 0.0
C1915 C 0.3684 0.5704 0.91268 0.0
C1916 C 0.33388 0.58738 0.90246 0.0
C1917 C 0.31067 0.56009 0.91329 0.0
C1918 C 0.31685 0.53872 0.92568 0.0
C1919 C 0.34559 0.54404 0.92486 0.0
C1920 C 0.32822 0.61059 0.88867 0.0
C1921 C 0.2929 0.50959 0.93813 0.0
H1922 H 0.22154 0.55082 0.94669 0.0
H1923 H 0.22482 0.51561 0.8518 0.0
H1924 H 0.28438 0.55874 0.97901 0.0
H1925 H 0.29835 0.59349 0.95943 0.0
H1926 H 0.26339 0.57704 0.98006 0.0
H1927 H 0.26813 0.5225 0.82832 0.0
H1928 H 0.30159 0.55281 0.84373 0.0
H1929 H 0.28906 0.51695 0.85976 0.0
H1930 H 0.38023 0.61266 0.893 0.0
H1931 H 0.35023 0.5273 0.93312 0.0
H1932 H 0.31331 0.61386 0.90512 0.0
H1933 H 0.31738 0.60346 0.86413 0.0
H1934 H 0.3487 0.63181 0.88544 0.0
H1935 H 0.27848 0.51265 0.95565 0.0
H1936 H 0.30168 0.49697 0.95079 0.0
H1937 H 0.27923 0.49649 0.91693 0.0
C1938 C 0.3437 0.75816 0.44328 0.0
C1939 C 0.34329 0.78192 0.42843 0.0
C1940 C 0.36789 0.75425 0.43998 0.0
C1941 C 0.39234 0.77461 0.42136 0.0
C1942 C 0.39142 0.79775 0.40476 0.0
C1943 C 0.36687 0.80114 0.40849 0.0
C1944 C 0.36786 0.72919 0.45794 0.0
C1945 C 0.41695 0.81974 0.38443 0.0
C1946 C 0.46565 0.78595 0.44963 0.0
C1947 C 0.47079 0.76898 0.42685 0.0
C1948 C 0.44045 0.78828 0.4477 0.0
C1949 C 0.41982 0.77337 0.42224 0.0
C1950 C 0.425 0.75651 0.39884 0.0
C1951 C 0.45039 0.7544 0.40152 0.0
C1952 C 0.43561 0.80619 0.47343 0.0
C1953 C 0.40361 0.74048 0.37123 0.0
H1954 H 0.32537 0.74294 0.45832 0.0
H1955 H 0.36666 0.81948 0.39682 0.0
H1956 H 0.37443 0.71704 0.44091 0.0
H1957 H 0.38401 0.73782 0.47846 0.0
H1958 H 0.34612 0.7137 0.46856 0.0
H1959 H 0.41155 0.83433 0.37005 0.0
H1960 H 0.43556 0.83337 0.4011 0.0
H1961 H 0.42427 0.8085 0.36695 0.0
H1962 H 0.48098 0.79684 0.46963 0.0
H1963 H 0.45438 0.74149 0.38368 0.0
H1964 H 0.41548 0.79198 0.48775 0.0
H1965 H 0.43246 0.82316 0.46114 0.0
H1966 H 0.45414 0.81705 0.49109 0.0
H1967 H 0.38231 0.72398 0.38184 0.0
H1968 H 0.4114 0.72928 0.35425 0.0
H1969 H 0.39971 0.75594 0.35655 0.0
C1970 C 0.20938 0.56902 0.39946 0.0
C1971 C 0.21682 0.56251 0.43043 0.0
C1972 C 0.21142 0.5962 0.39366 0.0
C1973 C 0.22038 0.61692 0.41971 0.0
C1974 C 0.22775 0.6103 0.45103 0.0
C1975 C 0.22618 0.58335 0.45587 0.0
C1976 C 0.20412 0.60281 0.35971 0.0
C1977 C 0.23691 0.63153 0.47968 0.0
C1978 C 0.25137 0.69818 0.40799 0.0
C1979 C 0.22752 0.70155 0.41686 0.0
C1980 C 0.24883 0.67052 0.40659 0.0
C1981 C 0.22193 0.64553 0.41479 0.0
C1982 C 0.19739 0.64852 0.42206 0.0
C1983 C 0.20042 0.67643 0.42267 0.0
C1984 C 0.27547 0.66828 0.39829 0.0
C1985 C 0.16838 0.62244 0.43131 0.0
H1986 H 0.20224 0.553 0.3797 0.0
H1987 H 0.23168 0.57836 0.47998 0.0
H1988 H 0.18562 0.60698 0.36149 0.0
H1989 H 0.22304 0.62292 0.34969 0.0
H1990 H 0.19824 0.58469 0.34188 0.0
H1991 H 0.24126 0.62274 0.50266 0.0
H1992 H 0.25694 0.65218 0.47307 0.0
H1993 H 0.21958 0.63692 0.48502 0.0
H1994 H 0.27255 0.71717 0.40369 0.0
H1995 H 0.18167 0.67855 0.42885 0.0
H1996 H 0.26987 0.65036 0.3803 0.0
H1997 H 0.28374 0.66313 0.42111 0.0
H1998 H 0.29334 0.68892 0.38773 0.0
H1999 H 0.16178 0.60479 0.41272 0.0
H2000 H 0.15081 0.62802 0.43333 0.0
H2001 H 0.17042 0.61368 0.45556 0.0
C2002 C 0.43625 0.61922 0.45782 0.0
C2003 C 0.45267 0.63869 0.43247 0.0
C2004 C 0.40672 0.59857 0.45327 0.0
C2005 C 0.39334 0.59678 0.42226 0.0
C2006 C 0.40974 0.61651 0.39653 0.0
C2007 C 0.4392 0.63756 0.40211 0.0
C2008 C 0.38989 0.57853 0.48169 0.0
C2009 C 0.39637 0.61491 0.36297 0.0
C2010 C 0.32643 0.52227 0.40935 0.0
C2011 C 0.30393 0.52751 0.41842 0.0
C2012 C 0.35554 0.54511 0.40812 0.0
C2013 C 0.36234 0.57373 0.41705 0.0
C2014 C 0.33951 0.57932 0.42489 0.0
C2015 C 0.31054 0.55617 0.42516 0.0
C2016 C 0.37914 0.53833 0.39885 0.0
C2017 C 0.34578 0.60933 0.43526 0.0
H2018 H 0.44647 0.6203 0.48151 0.0
H2019 H 0.4519 0.65258 0.38246 0.0
H2020 H 0.37007 0.57995 0.48699 0.0
H2021 H 0.38259 0.55559 0.47482 0.0
H2022 H 0.4031 0.58385 0.50475 0.0
H2023 H 0.41183 0.63221 0.34585 0.0
H2024 H 0.38934 0.59331 0.35153 0.0
H2025 H 0.37663 0.61696 0.36566 0.0
H2026 H 0.32126 0.50015 0.40382 0.0
H2027 H 0.29319 0.5602 0.43252 0.0
H2028 H 0.39211 0.53994 0.4212 0.0
H2029 H 0.39429 0.55442 0.3805 0.0
H2030 H 0.37003 0.51606 0.38828 0.0
H2031 H 0.35656 0.6147 0.45993 0.0
H2032 H 0.32559 0.61077 0.43694 0.0
H2033 H 0.36097 0.62609 0.41753 0.0
loop_
_geom_bond_atom_site_label_1
_geom_bond_atom_site_label_2
_geom_bond_distance
_geom_bond_site_symmetry_2
_ccdc_geom_bond_type
Co0 N4 2.148 1_455 S
Co0 N10 2.128 . S
Co0 N20 2.194 . S
Co0 O25 2.351 . S
Co0 O26 2.155 . S
Co0 O27 2.096 1_455 S
C1 N4 1.301 . S
C1 N5 1.328 . S
C1 H6 0.930 1_655 S
C2 C3 1.333 . S
C2 N4 1.317 . S
C2 H7 0.930 . S
C3 C2 1.333 . S
C3 N5 1.350 . S
C3 H29 0.931 . S
N4 Co0 2.148 1_655 S
N4 C1 1.301 . S
N4 C2 1.317 . S
N5 C1 1.328 . S
N5 C3 1.350 . S
H6 C1 0.930 1_455 S
H7 C2 0.930 . S
C8 O9 1.224 . S
C8 O27 1.247 . S
O9 C8 1.224 . S
N10 Co0 2.128 . S
N10 C11 1.355 . S
N10 C13 1.311 . S
C11 N10 1.355 . S
C11 C12 1.363 . S
C11 H23 0.929 . S
C12 C11 1.363 . S
C12 N14 1.375 . S
C12 H30 0.931 . S
C13 N10 1.311 . S
C13 N14 1.347 . S
C13 H24 0.929 . S
N14 C12 1.375 . S
N14 C13 1.347 . S
C15 C18 1.365 . S
C15 N20 1.328 . S
C15 H21 0.929 . S
C16 C17 1.362 . S
C16 C19 1.378 . S
C16 H31 0.929 . S
C17 C16 1.362 . S
C17 C18 1.366 . S
C18 C15 1.365 . S
C18 C17 1.366 . S
C18 H32 0.930 . S
C19 C16 1.378 . S
C19 N20 1.315 . S
C19 H22 0.935 . S
N20 Co0 2.194 . S
N20 C15 1.328 . S
N20 C19 1.315 . S
H21 C15 0.929 . S
H22 C19 0.935 . S
H23 C11 0.929 . S
H24 C13 0.929 . S
O25 Co0 2.351 . S
O25 C28 1.244 . S
O26 Co0 2.155 . S
O26 C28 1.240 . S
O27 Co0 2.096 1_655 S
O27 C8 1.247 . S
C28 O25 1.244 . S
C28 O26 1.240 . S
H29 C3 0.931 . S
H30 C12 0.931 . S
H31 C16 0.929 . S
H32 C18 0.930 . S
Co33 N37 2.148 . S
Co33 N43 2.128 . S
Co33 N53 2.194 . S
Co33 O58 2.351 . S
Co33 O59 2.155 . S
Co33 O60 2.096 . S
C34 N37 1.301 . S
C34 N38 1.328 . S
C34 H39 0.930 . S
C35 C36 1.333 . S
C35 N37 1.317 . S
C35 H40 0.930 . S
C36 C35 1.333 . S
C36 N38 1.350 . S
C36 H62 0.931 . S
N37 Co33 2.148 . S
N37 C34 1.301 . S
N37 C35 1.317 . S
N38 C34 1.328 . S
N38 C36 1.350 . S
H39 C34 0.930 . S
H40 C35 0.930 . S
C41 O42 1.224 . S
C41 O60 1.247 . S
O42 C41 1.224 . S
N43 Co33 2.128 . S
N43 C44 1.355 . S
N43 C46 1.311 . S
C44 N43 1.355 . S
C44 C45 1.363 . S
C44 H56 0.929 . S
C45 C44 1.363 . S
C45 N47 1.375 . S
C45 H63 0.931 . S
C46 N43 1.311 . S
C46 N47 1.347 . S
C46 H57 0.929 . S
N47 C45 1.375 . S
N47 C46 1.347 . S
C48 C51 1.365 . S
C48 N53 1.328 . S
C48 H54 0.929 . S
C49 C50 1.362 . S
C49 C52 1.378 . S
C49 H64 0.929 . S
C50 C49 1.362 . S
C50 C51 1.366 . S
C51 C48 1.365 . S
C51 C50 1.366 . S
C51 H65 0.930 . S
C52 C49 1.378 . S
C52 N53 1.315 . S
C52 H55 0.930 . S
N53 Co33 2.194 . S
N53 C48 1.328 . S
N53 C52 1.315 . S
H54 C48 0.929 . S
H55 C52 0.930 . S
H56 C44 0.929 . S
H57 C46 0.929 . S
O58 Co33 2.351 . S
O58 C61 1.244 . S
O59 Co33 2.155 . S
O59 C61 1.240 . S
O60 Co33 2.096 . S
O60 C41 1.247 . S
C61 O58 1.244 . S
C61 O59 1.240 . S
H62 C36 0.931 . S
H63 C45 0.931 . S
H64 C49 0.929 . S
H65 C51 0.930 . S
Co66 N70 2.148 1_565 S
Co66 N76 2.128 . S
Co66 N86 2.194 . S
Co66 O91 2.351 . S
Co66 O92 2.155 . S
Co66 O93 2.096 1_565 S
C67 N70 1.301 . S
C67 N71 1.328 . S
C67 H72 0.930 1_545 S
C68 C69 1.333 . S
C68 N70 1.317 . S
C68 H73 0.930 . S
C69 C68 1.333 . S
C69 N71 1.350 . S
C69 H95 0.931 . S
N70 Co66 2.148 1_545 S
N70 C67 1.301 . S
N70 C68 1.317 . S
N71 C67 1.328 . S
N71 C69 1.350 . S
H72 C67 0.930 1_565 S
H73 C68 0.930 . S
C74 O75 1.224 . S
C74 O93 1.247 . S
O75 C74 1.224 . S
N76 Co66 2.128 . S
N76 C77 1.355 . S
N76 C79 1.311 . S
C77 N76 1.355 . S
C77 C78 1.363 . S
C77 H89 0.929 . S
C78 C77 1.363 . S
C78 N80 1.375 . S
C78 H96 0.931 . S
C79 N76 1.311 . S
C79 N80 1.347 . S
C79 H90 0.929 . S
N80 C78 1.375 . S
N80 C79 1.347 . S
C81 C84 1.365 . S
C81 N86 1.328 . S
C81 H87 0.929 . S
C82 C83 1.362 . S
C82 C85 1.378 . S
C82 H97 0.929 . S
C83 C82 1.362 . S
C83 C84 1.366 . S
C84 C81 1.365 . S
C84 C83 1.366 . S
C84 H98 0.930 . S
C85 C82 1.378 . S
C85 N86 1.315 . S
C85 H88 0.951 . S
N86 Co66 2.194 . S
N86 C81 1.328 . S
N86 C85 1.315 . S
H87 C81 0.929 . S
H88 C85 0.951 . S
H89 C77 0.929 . S
H90 C79 0.929 . S
O91 Co66 2.351 . S
O91 C94 1.244 . S
O92 Co66 2.155 . S
O92 C94 1.240 . S
O93 Co66 2.096 1_545 S
O93 C74 1.247 . S
C94 O91 1.244 . S
C94 O92 1.240 . S
H95 C69 0.931 . S
H96 C78 0.931 . S
H97 C82 0.929 . S
H98 C84 0.930 . S
Co99 N103 2.148 1_545 S
Co99 N109 2.128 . S
Co99 N119 2.194 . S
Co99 O124 2.351 . S
Co99 O125 2.155 . S
Co99 O126 2.096 1_545 S
C100 N103 1.301 . S
C100 N104 1.328 . S
C100 H105 0.930 1_565 S
C101 C102 1.333 . S
C101 N103 1.317 . S
C101 H106 0.930 . S
C102 C101 1.333 . S
C102 N104 1.350 . S
C102 H128 0.931 . S
N103 Co99 2.148 1_565 S
N103 C100 1.301 . S
N103 C101 1.317 . S
N104 C100 1.328 . S
N104 C102 1.350 . S
H105 C100 0.930 1_545 S
H106 C101 0.930 . S
C107 O108 1.224 . S
C107 O126 1.247 . S
O108 C107 1.224 . S
N109 Co99 2.128 . S
N109 C110 1.355 . S
N109 C112 1.311 . S
C110 N109 1.355 . S
C110 C111 1.363 . S
C110 H122 0.929 . S
C111 C110 1.363 . S
C111 N113 1.375 . S
C111 H129 0.931 . S
C112 N109 1.311 . S
C112 N113 1.347 . S
C112 H123 0.929 . S
N113 C111 1.375 . S
N113 C112 1.347 . S
C114 C117 1.365 . S
C114 N119 1.328 . S
C114 H120 0.929 . S
C115 C116 1.362 . S
C115 C118 1.378 . S
C115 H130 0.929 . S
C116 C115 1.362 . S
C116 C117 1.366 . S
C117 C114 1.365 . S
C117 C116 1.366 . S
C117 H131 0.930 . S
C118 C115 1.378 . S
C118 N119 1.315 . S
C118 H121 0.935 . S
N119 Co99 2.194 . S
N119 C114 1.328 . S
N119 C118 1.315 . S
H120 C114 0.929 . S
H121 C118 0.935 . S
H122 C110 0.929 . S
H123 C112 0.929 . S
O124 Co99 2.351 . S
O124 C127 1.244 . S
O125 Co99 2.155 . S
O125 C127 1.240 . S
O126 Co99 2.096 1_565 S
O126 C107 1.247 . S
C127 O124 1.244 . S
C127 O125 1.240 . S
H128 C102 0.931 . S
H129 C111 0.931 . S
H130 C115 0.929 . S
H131 C117 0.930 . S
Co132 N136 2.148 1_655 S
Co132 N142 2.128 . S
Co132 N152 2.194 . S
Co132 O157 2.351 . S
Co132 O158 2.155 . S
Co132 O159 2.096 1_655 S
C133 N136 1.301 . S
C133 N137 1.328 . S
C133 H138 0.930 1_455 S
C134 C135 1.333 . S
C134 N136 1.317 . S
C134 H139 0.930 . S
C135 C134 1.333 . S
C135 N137 1.350 . S
C135 H161 0.931 . S
N136 Co132 2.148 1_455 S
N136 C133 1.301 . S
N136 C134 1.317 . S
N137 C133 1.328 . S
N137 C135 1.350 . S
H138 C133 0.930 1_655 S
H139 C134 0.930 . S
C140 O141 1.224 . S
C140 O159 1.247 . S
O141 C140 1.224 . S
N142 Co132 2.128 . S
N142 C143 1.355 . S
N142 C145 1.311 . S
C143 N142 1.355 . S
C143 C144 1.363 . S
C143 H155 0.929 . S
C144 C143 1.363 . S
C144 N146 1.375 . S
C144 H162 0.931 . S
C145 N142 1.311 . S
C145 N146 1.347 . S
C145 H156 0.929 . S
N146 C144 1.375 . S
N146 C145 1.347 . S
C147 C150 1.365 . S
C147 N152 1.328 . S
C147 H153 0.929 . S
C148 C149 1.362 . S
C148 C151 1.378 . S
C148 H163 0.929 . S
C149 C148 1.362 . S
C149 C150 1.366 . S
C150 C147 1.365 . S
C150 C149 1.366 . S
C150 H164 0.930 . S
C151 C148 1.378 . S
C151 N152 1.315 . S
C151 H154 0.952 . S
N152 Co132 2.194 . S
N152 C147 1.328 . S
N152 C151 1.315 . S
H153 C147 0.929 . S
H154 C151 0.952 . S
H155 C143 0.929 . S
H156 C145 0.929 . S
O157 Co132 2.351 . S
O157 C160 1.244 . S
O158 Co132 2.155 . S
O158 C160 1.240 . S
O159 Co132 2.096 1_455 S
O159 C140 1.247 . S
C160 O157 1.244 . S
C160 O158 1.240 . S
H161 C135 0.931 . S
H162 C144 0.931 . S
H163 C148 0.929 . S
H164 C150 0.930 . S
Co165 N169 2.148 . S
Co165 N175 2.128 . S
Co165 N185 2.194 . S
Co165 O190 2.351 . S
Co165 O191 2.155 . S
Co165 O192 2.096 . S
C166 N169 1.301 . S
C166 N170 1.328 . S
C166 H171 0.930 . S
C167 C168 1.333 . S
C167 N169 1.317 . S
C167 H172 0.930 . S
C168 C167 1.333 . S
C168 N170 1.350 . S
C168 H194 0.931 . S
N169 Co165 2.148 . S
N169 C166 1.301 . S
N169 C167 1.317 . S
N170 C166 1.328 . S
N170 C168 1.350 . S
H171 C166 0.930 . S
H172 C167 0.930 . S
C173 O174 1.224 . S
C173 O192 1.247 . S
O174 C173 1.224 . S
N175 Co165 2.128 . S
N175 C176 1.355 . S
N175 C178 1.311 . S
C176 N175 1.355 . S
C176 C177 1.363 . S
C176 H188 0.929 . S
C177 C176 1.363 . S
C177 N179 1.375 . S
C177 H195 0.931 . S
C178 N175 1.311 . S
C178 N179 1.347 . S
C178 H189 0.929 . S
N179 C177 1.375 . S
N179 C178 1.347 . S
C180 C183 1.365 . S
C180 N185 1.328 . S
C180 H186 0.929 . S
C181 C182 1.362 . S
C181 C184 1.378 . S
C181 H196 0.929 . S
C182 C181 1.362 . S
C182 C183 1.366 . S
C183 C180 1.365 . S
C183 C182 1.366 . S
C183 H197 0.930 . S
C184 C181 1.378 . S
C184 N185 1.315 . S
C184 H187 0.930 . S
N185 Co165 2.194 . S
N185 C180 1.328 . S
N185 C184 1.315 . S
H186 C180 0.929 . S
H187 C184 0.930 . S
H188 C176 0.929 . S
H189 C178 0.929 . S
O190 Co165 2.351 . S
O190 C193 1.244 . S
O191 Co165 2.155 . S
O191 C193 1.240 . S
O192 Co165 2.096 . S
O192 C173 1.247 . S
C193 O190 1.244 . S
C193 O191 1.240 . S
H194 C168 0.931 . S
H195 C177 0.931 . S
H196 C181 0.929 . S
H197 C183 0.930 . S
Co198 N202 2.148 . S
Co198 N208 2.128 . S
Co198 N218 2.194 . S
Co198 O223 2.351 . S
Co198 O224 2.155 . S
Co198 O225 2.096 . S
C199 N202 1.301 . S
C199 N203 1.328 . S
C199 H204 0.930 . S
C200 C201 1.333 . S
C200 N202 1.317 . S
C200 H205 0.930 . S
C201 C200 1.333 . S
C201 N203 1.350 . S
C201 H227 0.931 . S
N202 Co198 2.148 . S
N202 C199 1.301 . S
N202 C200 1.317 . S
N203 C199 1.328 . S
N203 C201 1.350 . S
H204 C199 0.930 . S
H205 C200 0.930 . S
C206 O207 1.224 . S
C206 O225 1.247 . S
O207 C206 1.224 . S
N208 Co198 2.128 . S
N208 C209 1.355 . S
N208 C211 1.311 . S
C209 N208 1.355 . S
C209 C210 1.363 . S
C209 H221 0.929 . S
C210 C209 1.363 . S
C210 N212 1.375 . S
C210 H228 0.931 . S
C211 N208 1.311 . S
C211 N212 1.347 . S
C211 H222 0.929 . S
N212 C210 1.375 . S
N212 C211 1.347 . S
C213 C216 1.365 . S
C213 N218 1.328 . S
C213 H219 0.929 . S
C214 C215 1.362 . S
C214 C217 1.378 . S
C214 H229 0.929 . S
C215 C214 1.362 . S
C215 C216 1.366 . S
C216 C213 1.365 . S
C216 C215 1.366 . S
C216 H230 0.930 . S
C217 C214 1.378 . S
C217 N218 1.315 . S
C217 H220 0.930 . S
N218 Co198 2.194 . S
N218 C213 1.328 . S
N218 C217 1.315 . S
H219 C213 0.929 . S
H220 C217 0.930 . S
H221 C209 0.929 . S
H222 C211 0.929 . S
O223 Co198 2.351 . S
O223 C226 1.244 . S
O224 Co198 2.155 . S
O224 C226 1.240 . S
O225 Co198 2.096 . S
O225 C206 1.247 . S
C226 O223 1.244 . S
C226 O224 1.240 . S
H227 C201 0.931 . S
H228 C210 0.931 . S
H229 C214 0.929 . S
H230 C216 0.930 . S
Co231 N235 2.148 . S
Co231 N241 2.128 . S
Co231 N251 2.194 . S
Co231 O256 2.351 . S
Co231 O257 2.155 . S
Co231 O258 2.096 . S
C232 N235 1.301 . S
C232 N236 1.328 . S
C232 H237 0.930 . S
C233 C234 1.333 . S
C233 N235 1.317 . S
C233 H238 0.930 . S
C234 C233 1.333 . S
C234 N236 1.350 . S
C234 H260 0.931 . S
N235 Co231 2.148 . S
N235 C232 1.301 . S
N235 C233 1.317 . S
N236 C232 1.328 . S
N236 C234 1.350 . S
H237 C232 0.930 . S
H238 C233 0.930 . S
C239 O240 1.224 . S
C239 O258 1.247 . S
O240 C239 1.224 . S
N241 Co231 2.128 . S
N241 C242 1.355 . S
N241 C244 1.311 . S
C242 N241 1.355 . S
C242 C243 1.363 . S
C242 H254 0.929 . S
C243 C242 1.363 . S
C243 N245 1.375 . S
C243 H261 0.931 . S
C244 N241 1.311 . S
C244 N245 1.347 . S
C244 H255 0.929 . S
N245 C243 1.375 . S
N245 C244 1.347 . S
C246 C249 1.365 . S
C246 N251 1.328 . S
C246 H252 0.929 . S
C247 C248 1.362 . S
C247 C250 1.378 . S
C247 H262 0.929 . S
C248 C247 1.362 . S
C248 C249 1.366 . S
C249 C246 1.365 . S
C249 C248 1.366 . S
C249 H263 0.930 . S
C250 C247 1.378 . S
C250 N251 1.315 . S
C250 H253 0.930 . S
N251 Co231 2.194 . S
N251 C246 1.328 . S
N251 C250 1.315 . S
H252 C246 0.929 . S
H253 C250 0.930 . S
H254 C242 0.929 . S
H255 C244 0.929 . S
O256 Co231 2.351 . S
O256 C259 1.244 . S
O257 Co231 2.155 . S
O257 C259 1.240 . S
O258 Co231 2.096 . S
O258 C239 1.247 . S
C259 O256 1.244 . S
C259 O257 1.240 . S
H260 C234 0.931 . S
H261 C243 0.931 . S
H262 C247 0.929 . S
H263 C249 0.930 . S
Co264 N268 2.148 . S
Co264 N274 2.128 . S
Co264 N284 2.194 . S
Co264 O289 2.351 . S
Co264 O290 2.155 . S
Co264 O291 2.096 . S
C265 N268 1.301 . S
C265 N269 1.328 . S
C265 H270 0.930 . S
C266 C267 1.333 . S
C266 N268 1.317 . S
C266 H271 0.930 . S
C267 C266 1.333 . S
C267 N269 1.350 . S
C267 H293 0.931 . S
N268 Co264 2.148 . S
N268 C265 1.301 . S
N268 C266 1.317 . S
N269 C265 1.328 . S
N269 C267 1.350 . S
H270 C265 0.930 . S
H271 C266 0.930 . S
C272 O273 1.224 . S
C272 O291 1.247 . S
O273 C272 1.224 . S
N274 Co264 2.128 . S
N274 C275 1.355 . S
N274 C277 1.311 . S
C275 N274 1.355 . S
C275 C276 1.363 . S
C275 H287 0.929 . S
C276 C275 1.363 . S
C276 N278 1.375 . S
C276 H294 0.931 . S
C277 N274 1.311 . S
C277 N278 1.347 . S
C277 H288 0.929 . S
N278 C276 1.375 . S
N278 C277 1.347 . S
C279 C282 1.365 . S
C279 N284 1.328 . S
C279 H285 0.929 . S
C280 C281 1.362 . S
C280 C283 1.378 . S
C280 H295 0.929 . S
C281 C280 1.362 . S
C281 C282 1.366 . S
C282 C279 1.365 . S
C282 C281 1.366 . S
C282 H296 0.930 . S
C283 C280 1.378 . S
C283 N284 1.315 . S
C283 H286 0.930 . S
N284 Co264 2.194 . S
N284 C279 1.328 . S
N284 C283 1.315 . S
H285 C279 0.929 . S
H286 C283 0.930 . S
H287 C275 0.929 . S
H288 C277 0.929 . S
O289 Co264 2.351 . S
O289 C292 1.244 . S
O290 Co264 2.155 . S
O290 C292 1.240 . S
O291 Co264 2.096 . S
O291 C272 1.247 . S
C292 O289 1.244 . S
C292 O290 1.240 . S
H293 C267 0.931 . S
H294 C276 0.931 . S
H295 C280 0.929 . S
H296 C282 0.930 . S
Co297 N301 2.148 . S
Co297 N307 2.128 . S
Co297 N317 2.194 . S
Co297 O322 2.351 . S
Co297 O323 2.155 . S
Co297 O324 2.096 . S
C298 N301 1.301 . S
C298 N302 1.328 . S
C298 H303 0.930 . S
C299 C300 1.333 . S
C299 N301 1.317 . S
C299 H304 0.930 . S
C300 C299 1.333 . S
C300 N302 1.350 . S
C300 H326 0.931 . S
N301 Co297 2.148 . S
N301 C298 1.301 . S
N301 C299 1.317 . S
N302 C298 1.328 . S
N302 C300 1.350 . S
H303 C298 0.930 . S
H304 C299 0.930 . S
C305 O306 1.224 . S
C305 O324 1.247 . S
O306 C305 1.224 . S
N307 Co297 2.128 . S
N307 C308 1.355 . S
N307 C310 1.311 . S
C308 N307 1.355 . S
C308 C309 1.363 . S
C308 H320 0.929 . S
C309 C308 1.363 . S
C309 N311 1.375 . S
C309 H327 0.931 . S
C310 N307 1.311 . S
C310 N311 1.347 . S
C310 H321 0.929 . S
N311 C309 1.375 . S
N311 C310 1.347 . S
C312 C315 1.365 . S
C312 N317 1.328 . S
C312 H318 0.929 . S
C313 C314 1.362 . S
C313 C316 1.378 . S
C313 H328 0.929 . S
C314 C313 1.362 . S
C314 C315 1.366 . S
C315 C312 1.365 . S
C315 C314 1.366 . S
C315 H329 0.930 . S
C316 C313 1.378 . S
C316 N317 1.315 . S
C316 H319 0.930 . S
N317 Co297 2.194 . S
N317 C312 1.328 . S
N317 C316 1.315 . S
H318 C312 0.929 . S
H319 C316 0.930 . S
H320 C308 0.929 . S
H321 C310 0.929 . S
O322 Co297 2.351 . S
O322 C325 1.244 . S
O323 Co297 2.155 . S
O323 C325 1.240 . S
O324 Co297 2.096 . S
O324 C305 1.247 . S
C325 O322 1.244 . S
C325 O323 1.240 . S
H326 C300 0.931 . S
H327 C309 0.931 . S
H328 C313 0.929 . S
H329 C315 0.930 . S
Co330 N334 2.148 . S
Co330 N340 2.128 . S
Co330 N350 2.194 . S
Co330 O355 2.351 . S
Co330 O356 2.155 . S
Co330 O357 2.096 . S
C331 N334 1.301 . S
C331 N335 1.328 . S
C331 H336 0.930 . S
C332 C333 1.333 . S
C332 N334 1.317 . S
C332 H337 0.930 . S
C333 C332 1.333 . S
C333 N335 1.350 . S
C333 H359 0.931 . S
N334 Co330 2.148 . S
N334 C331 1.301 . S
N334 C332 1.317 . S
N335 C331 1.328 . S
N335 C333 1.350 . S
H336 C331 0.930 . S
H337 C332 0.930 . S
C338 O339 1.224 . S
C338 O357 1.247 . S
O339 C338 1.224 . S
N340 Co330 2.128 . S
N340 C341 1.355 . S
N340 C343 1.311 . S
C341 N340 1.355 . S
C341 C342 1.363 . S
C341 H353 0.929 . S
C342 C341 1.363 . S
C342 N344 1.375 . S
C342 H360 0.931 . S
C343 N340 1.311 . S
C343 N344 1.347 . S
C343 H354 0.929 . S
N344 C342 1.375 . S
N344 C343 1.347 . S
C345 C348 1.365 . S
C345 N350 1.328 . S
C345 H351 0.929 . S
C346 C347 1.362 . S
C346 C349 1.378 . S
C346 H361 0.929 . S
C347 C346 1.362 . S
C347 C348 1.366 . S
C348 C345 1.365 . S
C348 C347 1.366 . S
C348 H362 0.930 . S
C349 C346 1.378 . S
C349 N350 1.315 . S
C349 H352 0.930 . S
N350 Co330 2.194 . S
N350 C345 1.328 . S
N350 C349 1.315 . S
H351 C345 0.929 . S
H352 C349 0.930 . S
H353 C341 0.929 . S
H354 C343 0.929 . S
O355 Co330 2.351 . S
O355 C358 1.244 . S
O356 Co330 2.155 . S
O356 C358 1.240 . S
O357 Co330 2.096 . S
O357 C338 1.247 . S
C358 O355 1.244 . S
C358 O356 1.240 . S
H359 C333 0.931 . S
H360 C342 0.931 . S
H361 C346 0.929 . S
H362 C348 0.930 . S
Co363 N367 2.148 . S
Co363 N373 2.128 . S
Co363 N383 2.194 . S
Co363 O388 2.351 . S
Co363 O389 2.155 . S
Co363 O390 2.096 . S
C364 N367 1.301 . S
C364 N368 1.328 . S
C364 H369 0.930 . S
C365 C366 1.333 . S
C365 N367 1.317 . S
C365 H370 0.930 . S
C366 C365 1.333 . S
C366 N368 1.350 . S
C366 H392 0.931 . S
N367 Co363 2.148 . S
N367 C364 1.301 . S
N367 C365 1.317 . S
N368 C364 1.328 . S
N368 C366 1.350 . S
H369 C364 0.930 . S
H370 C365 0.930 . S
C371 O372 1.224 . S
C371 O390 1.247 . S
O372 C371 1.224 . S
N373 Co363 2.128 . S
N373 C374 1.355 . S
N373 C376 1.311 . S
C374 N373 1.355 . S
C374 C375 1.363 . S
C374 H386 0.929 . S
C375 C374 1.363 . S
C375 N377 1.375 . S
C375 H393 0.931 . S
C376 N373 1.311 . S
C376 N377 1.347 . S
C376 H387 0.929 . S
N377 C375 1.375 . S
N377 C376 1.347 . S
C378 C381 1.365 . S
C378 N383 1.328 . S
C378 H384 0.929 . S
C379 C380 1.362 . S
C379 C382 1.378 . S
C379 H394 0.929 . S
C380 C379 1.362 . S
C380 C381 1.366 . S
C381 C378 1.365 . S
C381 C380 1.366 . S
C381 H395 0.930 . S
C382 C379 1.378 . S
C382 N383 1.315 . S
C382 H385 0.930 . S
N383 Co363 2.194 . S
N383 C378 1.328 . S
N383 C382 1.315 . S
H384 C378 0.929 . S
H385 C382 0.930 . S
H386 C374 0.929 . S
H387 C376 0.929 . S
O388 Co363 2.351 . S
O388 C391 1.244 . S
O389 Co363 2.155 . S
O389 C391 1.240 . S
O390 Co363 2.096 . S
O390 C371 1.247 . S
C391 O388 1.244 . S
C391 O389 1.240 . S
H392 C366 0.931 . S
H393 C375 0.931 . S
H394 C379 0.929 . S
H395 C381 0.930 . S
Co396 N400 2.148 . S
Co396 N406 2.128 . S
Co396 N416 2.194 . S
Co396 O421 2.351 . S
Co396 O422 2.155 . S
Co396 O423 2.096 . S
C397 N400 1.301 . S
C397 N401 1.328 . S
C397 H402 0.930 . S
C398 C399 1.333 . S
C398 N400 1.317 . S
C398 H403 0.930 . S
C399 C398 1.333 . S
C399 N401 1.350 . S
C399 H425 0.931 . S
N400 Co396 2.148 . S
N400 C397 1.301 . S
N400 C398 1.317 . S
N401 C397 1.328 . S
N401 C399 1.350 . S
H402 C397 0.930 . S
H403 C398 0.930 . S
C404 O405 1.224 . S
C404 O423 1.247 . S
O405 C404 1.224 . S
N406 Co396 2.128 . S
N406 C407 1.355 . S
N406 C409 1.311 . S
C407 N406 1.355 . S
C407 C408 1.363 . S
C407 H419 0.929 . S
C408 C407 1.363 . S
C408 N410 1.375 . S
C408 H426 0.931 . S
C409 N406 1.311 . S
C409 N410 1.347 . S
C409 H420 0.929 . S
N410 C408 1.375 . S
N410 C409 1.347 . S
C411 C414 1.365 . S
C411 N416 1.328 . S
C411 H417 0.929 . S
C412 C413 1.362 . S
C412 C415 1.378 . S
C412 H427 0.929 . S
C413 C412 1.362 . S
C413 C414 1.366 . S
C414 C411 1.365 . S
C414 C413 1.366 . S
C414 H428 0.930 . S
C415 C412 1.378 . S
C415 N416 1.315 . S
C415 H418 0.930 . S
N416 Co396 2.194 . S
N416 C411 1.328 . S
N416 C415 1.315 . S
H417 C411 0.929 . S
H418 C415 0.930 . S
H419 C407 0.929 . S
H420 C409 0.929 . S
O421 Co396 2.351 . S
O421 C424 1.244 . S
O422 Co396 2.155 . S
O422 C424 1.240 . S
O423 Co396 2.096 . S
O423 C404 1.247 . S
C424 O421 1.244 . S
C424 O422 1.240 . S
H425 C399 0.931 . S
H426 C408 0.931 . S
H427 C412 0.929 . S
H428 C414 0.930 . S
Co429 N433 2.148 . S
Co429 N439 2.128 . S
Co429 N449 2.194 . S
Co429 O454 2.351 . S
Co429 O455 2.155 . S
Co429 O456 2.096 . S
C430 N433 1.301 . S
C430 N434 1.328 . S
C430 H435 0.930 . S
C431 C432 1.333 . S
C431 N433 1.317 . S
C431 H436 0.930 . S
C432 C431 1.333 . S
C432 N434 1.350 . S
C432 H458 0.931 . S
N433 Co429 2.148 . S
N433 C430 1.301 . S
N433 C431 1.317 . S
N434 C430 1.328 . S
N434 C432 1.350 . S
H435 C430 0.930 . S
H436 C431 0.930 . S
C437 O438 1.224 . S
C437 O456 1.247 . S
O438 C437 1.224 . S
N439 Co429 2.128 . S
N439 C440 1.355 . S
N439 C442 1.311 . S
C440 N439 1.355 . S
C440 C441 1.363 . S
C440 H452 0.929 . S
C441 C440 1.363 . S
C441 N443 1.375 . S
C441 H459 0.931 . S
C442 N439 1.311 . S
C442 N443 1.347 . S
C442 H453 0.929 . S
N443 C441 1.375 . S
N443 C442 1.347 . S
C444 C447 1.365 . S
C444 N449 1.328 . S
C444 H450 0.929 . S
C445 C446 1.362 . S
C445 C448 1.378 . S
C445 H460 0.929 . S
C446 C445 1.362 . S
C446 C447 1.366 . S
C447 C444 1.365 . S
C447 C446 1.366 . S
C447 H461 0.930 . S
C448 C445 1.378 . S
C448 N449 1.315 . S
C448 H451 0.930 . S
N449 Co429 2.194 . S
N449 C444 1.328 . S
N449 C448 1.315 . S
H450 C444 0.929 . S
H451 C448 0.930 . S
H452 C440 0.929 . S
H453 C442 0.929 . S
O454 Co429 2.351 . S
O454 C457 1.244 . S
O455 Co429 2.155 . S
O455 C457 1.240 . S
O456 Co429 2.096 . S
O456 C437 1.247 . S
C457 O454 1.244 . S
C457 O455 1.240 . S
H458 C432 0.931 . S
H459 C441 0.931 . S
H460 C445 0.929 . S
H461 C447 0.930 . S
Co462 N466 2.148 . S
Co462 N472 2.128 . S
Co462 N482 2.194 . S
Co462 O487 2.351 . S
Co462 O488 2.155 . S
Co462 O489 2.096 . S
C463 N466 1.301 . S
C463 N467 1.328 . S
C463 H468 0.930 . S
C464 C465 1.333 . S
C464 N466 1.317 . S
C464 H469 0.930 . S
C465 C464 1.333 . S
C465 N467 1.350 . S
C465 H491 0.931 . S
N466 Co462 2.148 . S
N466 C463 1.301 . S
N466 C464 1.317 . S
N467 C463 1.328 . S
N467 C465 1.350 . S
H468 C463 0.930 . S
H469 C464 0.930 . S
C470 O471 1.224 . S
C470 O489 1.247 . S
O471 C470 1.224 . S
N472 Co462 2.128 . S
N472 C473 1.355 . S
N472 C475 1.311 . S
C473 N472 1.355 . S
C473 C474 1.363 . S
C473 H485 0.929 . S
C474 C473 1.363 . S
C474 N476 1.375 . S
C474 H492 0.931 . S
C475 N472 1.311 . S
C475 N476 1.347 . S
C475 H486 0.929 . S
N476 C474 1.375 . S
N476 C475 1.347 . S
C477 C480 1.365 . S
C477 N482 1.328 . S
C477 H483 0.929 . S
C478 C479 1.362 . S
C478 C481 1.378 . S
C478 H493 0.929 . S
C479 C478 1.362 . S
C479 C480 1.366 . S
C480 C477 1.365 . S
C480 C479 1.366 . S
C480 H494 0.930 . S
C481 C478 1.378 . S
C481 N482 1.315 . S
C481 H484 0.930 . S
N482 Co462 2.194 . S
N482 C477 1.328 . S
N482 C481 1.315 . S
H483 C477 0.929 . S
H484 C481 0.930 . S
H485 C473 0.929 . S
H486 C475 0.929 . S
O487 Co462 2.351 . S
O487 C490 1.244 . S
O488 Co462 2.155 . S
O488 C490 1.240 . S
O489 Co462 2.096 . S
O489 C470 1.247 . S
C490 O487 1.244 . S
C490 O488 1.240 . S
H491 C465 0.931 . S
H492 C474 0.931 . S
H493 C478 0.929 . S
H494 C480 0.930 . S
Co495 N499 2.148 . S
Co495 N505 2.128 . S
Co495 N515 2.194 . S
Co495 O520 2.351 . S
Co495 O521 2.155 . S
Co495 O522 2.096 . S
C496 N499 1.301 . S
C496 N500 1.328 . S
C496 H501 0.930 . S
C497 C498 1.333 . S
C497 N499 1.317 . S
C497 H502 0.930 . S
C498 C497 1.333 . S
C498 N500 1.350 . S
C498 H524 0.931 . S
N499 Co495 2.148 . S
N499 C496 1.301 . S
N499 C497 1.317 . S
N500 C496 1.328 . S
N500 C498 1.350 . S
H501 C496 0.930 . S
H502 C497 0.930 . S
C503 O504 1.224 . S
C503 O522 1.247 . S
O504 C503 1.224 . S
N505 Co495 2.128 . S
N505 C506 1.355 . S
N505 C508 1.311 . S
C506 N505 1.355 . S
C506 C507 1.363 . S
C506 H518 0.929 . S
C507 C506 1.363 . S
C507 N509 1.375 . S
C507 H525 0.931 . S
C508 N505 1.311 . S
C508 N509 1.347 . S
C508 H519 0.929 . S
N509 C507 1.375 . S
N509 C508 1.347 . S
C510 C513 1.365 . S
C510 N515 1.328 . S
C510 H516 0.929 . S
C511 C512 1.362 . S
C511 C514 1.378 . S
C511 H526 0.929 . S
C512 C511 1.362 . S
C512 C513 1.366 . S
C513 C510 1.365 . S
C513 C512 1.366 . S
C513 H527 0.930 . S
C514 C511 1.378 . S
C514 N515 1.315 . S
C514 H517 0.930 . S
N515 Co495 2.194 . S
N515 C510 1.328 . S
N515 C514 1.315 . S
H516 C510 0.929 . S
H517 C514 0.930 . S
H518 C506 0.929 . S
H519 C508 0.929 . S
O520 Co495 2.351 . S
O520 C523 1.244 . S
O521 Co495 2.155 . S
O521 C523 1.240 . S
O522 Co495 2.096 . S
O522 C503 1.247 . S
C523 O520 1.244 . S
C523 O521 1.240 . S
H524 C498 0.931 . S
H525 C507 0.931 . S
H526 C511 0.929 . S
H527 C513 0.930 . S
Co528 N532 2.148 . S
Co528 N538 2.128 . S
Co528 N548 2.194 . S
Co528 O553 2.351 . S
Co528 O554 2.155 . S
Co528 O555 2.096 . S
C529 N532 1.301 . S
C529 N533 1.328 . S
C529 H534 0.930 . S
C530 C531 1.333 . S
C530 N532 1.317 . S
C530 H535 0.930 . S
C531 C530 1.333 . S
C531 N533 1.350 . S
C531 H557 0.931 . S
N532 Co528 2.148 . S
N532 C529 1.301 . S
N532 C530 1.317 . S
N533 C529 1.328 . S
N533 C531 1.350 . S
H534 C529 0.930 . S
H535 C530 0.930 . S
C536 O537 1.224 . S
C536 O555 1.247 . S
O537 C536 1.224 . S
N538 Co528 2.128 . S
N538 C539 1.355 . S
N538 C541 1.311 . S
C539 N538 1.355 . S
C539 C540 1.363 . S
C539 H551 0.929 . S
C540 C539 1.363 . S
C540 N542 1.375 . S
C540 H558 0.931 . S
C541 N538 1.311 . S
C541 N542 1.347 . S
C541 H552 0.929 . S
N542 C540 1.375 . S
N542 C541 1.347 . S
C543 C546 1.365 . S
C543 N548 1.328 . S
C543 H549 0.929 . S
C544 C545 1.362 . S
C544 C547 1.378 . S
C544 H559 0.929 . S
C545 C544 1.362 . S
C545 C546 1.366 . S
C546 C543 1.365 . S
C546 C545 1.366 . S
C546 H560 0.930 . S
C547 C544 1.378 . S
C547 N548 1.315 . S
C547 H550 0.930 . S
N548 Co528 2.194 . S
N548 C543 1.328 . S
N548 C547 1.315 . S
H549 C543 0.929 . S
H550 C547 0.930 . S
H551 C539 0.929 . S
H552 C541 0.929 . S
O553 Co528 2.351 . S
O553 C556 1.244 . S
O554 Co528 2.155 . S
O554 C556 1.240 . S
O555 Co528 2.096 . S
O555 C536 1.247 . S
C556 O553 1.244 . S
C556 O554 1.240 . S
H557 C531 0.931 . S
H558 C540 0.931 . S
H559 C544 0.929 . S
H560 C546 0.930 . S
Co561 N565 2.148 . S
Co561 N571 2.128 . S
Co561 N581 2.194 . S
Co561 O586 2.351 . S
Co561 O587 2.155 . S
Co561 O588 2.096 . S
C562 N565 1.301 . S
C562 N566 1.328 . S
C562 H567 0.930 . S
C563 C564 1.333 . S
C563 N565 1.317 . S
C563 H568 0.930 . S
C564 C563 1.333 . S
C564 N566 1.350 . S
C564 H590 0.931 . S
N565 Co561 2.148 . S
N565 C562 1.301 . S
N565 C563 1.317 . S
N566 C562 1.328 . S
N566 C564 1.350 . S
H567 C562 0.930 . S
H568 C563 0.930 . S
C569 O570 1.224 . S
C569 O588 1.247 . S
O570 C569 1.224 . S
N571 Co561 2.128 . S
N571 C572 1.355 . S
N571 C574 1.311 . S
C572 N571 1.355 . S
C572 C573 1.363 . S
C572 H584 0.929 . S
C573 C572 1.363 . S
C573 N575 1.375 . S
C573 H591 0.931 . S
C574 N571 1.311 . S
C574 N575 1.347 . S
C574 H585 0.929 . S
N575 C573 1.375 . S
N575 C574 1.347 . S
C576 C579 1.365 . S
C576 N581 1.328 . S
C576 H582 0.929 . S
C577 C578 1.362 . S
C577 C580 1.378 . S
C577 H592 0.929 . S
C578 C577 1.362 . S
C578 C579 1.366 . S
C579 C576 1.365 . S
C579 C578 1.366 . S
C579 H593 0.930 . S
C580 C577 1.378 . S
C580 N581 1.315 . S
C580 H583 0.930 . S
N581 Co561 2.194 . S
N581 C576 1.328 . S
N581 C580 1.315 . S
H582 C576 0.929 . S
H583 C580 0.930 . S
H584 C572 0.929 . S
H585 C574 0.929 . S
O586 Co561 2.351 . S
O586 C589 1.244 . S
O587 Co561 2.155 . S
O587 C589 1.240 . S
O588 Co561 2.096 . S
O588 C569 1.247 . S
C589 O586 1.244 . S
C589 O587 1.240 . S
H590 C564 0.931 . S
H591 C573 0.931 . S
H592 C577 0.929 . S
H593 C579 0.930 . S
C594 C595 1.391 . S
C594 C596 1.394 . S
C594 H610 0.931 . S
C595 C594 1.391 . S
C595 C599 1.376 . S
C596 C594 1.394 . S
C596 C597 1.369 . S
C596 C600 1.531 . S
C597 C596 1.369 . S
C597 C598 1.410 . S
C597 C605 1.503 . S
C598 C597 1.410 . S
C598 C599 1.392 . S
C598 C601 1.511 . S
C599 C595 1.376 . S
C599 C598 1.392 . S
C599 H611 0.929 . S
C600 C596 1.531 . S
C600 H612 0.960 . S
C600 H613 0.962 . S
C600 H614 0.960 . S
C601 C598 1.511 . S
C601 H615 0.961 . S
C601 H616 0.961 . S
C601 H617 0.961 . S
C602 C603 1.370 . S
C602 C604 1.363 . S
C602 H618 0.931 . S
C603 C602 1.370 . S
C603 C607 1.408 . S
C604 C602 1.363 . S
C604 C605 1.370 . S
C604 C608 1.524 . S
C605 C597 1.503 . S
C605 C604 1.370 . S
C605 C606 1.403 . S
C606 C605 1.403 . S
C606 C607 1.404 . S
C606 C609 1.539 . S
C607 C603 1.408 . S
C607 C606 1.404 . S
C607 H619 0.930 . S
C608 C604 1.524 . S
C608 H620 0.956 . S
C608 H621 0.961 . S
C608 H622 0.961 . S
C609 C606 1.539 . S
C609 H623 0.958 . S
C609 H624 0.961 . S
C609 H625 0.960 . S
H610 C594 0.931 . S
H611 C599 0.929 . S
H612 C600 0.960 . S
H613 C600 0.962 . S
H614 C600 0.960 . S
H615 C601 0.961 . S
H616 C601 0.961 . S
H617 C601 0.961 . S
H618 C602 0.931 . S
H619 C607 0.930 . S
H620 C608 0.956 . S
H621 C608 0.961 . S
H622 C608 0.961 . S
H623 C609 0.958 . S
H624 C609 0.961 . S
H625 C609 0.960 . S
C626 C627 1.391 . S
C626 C628 1.394 . S
C626 H642 0.931 . S
C627 C626 1.391 . S
C627 C631 1.376 . S
C628 C626 1.394 . S
C628 C629 1.369 . S
C628 C632 1.531 . S
C629 C628 1.369 . S
C629 C630 1.410 . S
C629 C637 1.503 . S
C630 C629 1.410 . S
C630 C631 1.392 . S
C630 C633 1.511 . S
C631 C627 1.376 . S
C631 C630 1.392 . S
C631 H643 0.929 . S
C632 C628 1.531 . S
C632 H644 0.960 . S
C632 H645 0.962 . S
C632 H646 0.960 . S
C633 C630 1.511 . S
C633 H647 0.961 . S
C633 H648 0.961 . S
C633 H649 0.961 . S
C634 C635 1.370 . S
C634 C636 1.363 . S
C634 H650 0.931 . S
C635 C634 1.370 . S
C635 C639 1.408 . S
C636 C634 1.363 . S
C636 C637 1.370 . S
C636 C640 1.524 . S
C637 C629 1.503 . S
C637 C636 1.370 . S
C637 C638 1.403 . S
C638 C637 1.403 . S
C638 C639 1.404 . S
C638 C641 1.539 . S
C639 C635 1.408 . S
C639 C638 1.404 . S
C639 H651 0.930 . S
C640 C636 1.524 . S
C640 H652 0.956 . S
C640 H653 0.961 . S
C640 H654 0.961 . S
C641 C638 1.539 . S
C641 H655 0.958 . S
C641 H656 0.961 . S
C641 H657 0.960 . S
H642 C626 0.931 . S
H643 C631 0.929 . S
H644 C632 0.960 . S
H645 C632 0.962 . S
H646 C632 0.960 . S
H647 C633 0.961 . S
H648 C633 0.961 . S
H649 C633 0.961 . S
H650 C634 0.931 . S
H651 C639 0.930 . S
H652 C640 0.956 . S
H653 C640 0.961 . S
H654 C640 0.961 . S
H655 C641 0.958 . S
H656 C641 0.961 . S
H657 C641 0.960 . S
C658 C659 1.391 . S
C658 C660 1.394 . S
C658 H674 0.931 . S
C659 C658 1.391 . S
C659 C663 1.376 . S
C660 C658 1.394 . S
C660 C661 1.369 . S
C660 C664 1.531 . S
C661 C660 1.369 . S
C661 C662 1.410 . S
C661 C669 1.503 . S
C662 C661 1.410 . S
C662 C663 1.392 . S
C662 C665 1.511 . S
C663 C659 1.376 . S
C663 C662 1.392 . S
C663 H675 0.929 . S
C664 C660 1.531 . S
C664 H676 0.960 . S
C664 H677 0.962 . S
C664 H678 0.960 . S
C665 C662 1.511 . S
C665 H679 0.961 . S
C665 H680 0.961 . S
C665 H681 0.961 . S
C666 C667 1.370 . S
C666 C668 1.363 . S
C666 H682 0.931 . S
C667 C666 1.370 . S
C667 C671 1.408 . S
C668 C666 1.363 . S
C668 C669 1.370 . S
C668 C672 1.524 . S
C669 C661 1.503 . S
C669 C668 1.370 . S
C669 C670 1.403 . S
C670 C669 1.403 . S
C670 C671 1.404 . S
C670 C673 1.539 . S
C671 C667 1.408 . S
C671 C670 1.404 . S
C671 H683 0.930 . S
C672 C668 1.524 . S
C672 H684 0.956 . S
C672 H685 0.961 . S
C672 H686 0.961 . S
C673 C670 1.539 . S
C673 H687 0.958 . S
C673 H688 0.961 1_545 S
C673 H689 0.960 . S
H674 C658 0.931 . S
H675 C663 0.929 . S
H676 C664 0.960 . S
H677 C664 0.962 . S
H678 C664 0.960 . S
H679 C665 0.961 . S
H680 C665 0.961 . S
H681 C665 0.961 . S
H682 C666 0.931 . S
H683 C671 0.930 . S
H684 C672 0.956 . S
H685 C672 0.961 . S
H686 C672 0.961 . S
H687 C673 0.958 . S
H688 C673 0.961 1_565 S
H689 C673 0.960 . S
C690 C691 1.391 . S
C690 C692 1.394 . S
C690 H706 0.931 . S
C691 C690 1.391 . S
C691 C695 1.376 . S
C692 C690 1.394 . S
C692 C693 1.369 . S
C692 C696 1.531 . S
C693 C692 1.369 . S
C693 C694 1.410 . S
C693 C701 1.503 . S
C694 C693 1.410 . S
C694 C695 1.392 . S
C694 C697 1.511 . S
C695 C691 1.376 . S
C695 C694 1.392 . S
C695 H707 0.929 . S
C696 C692 1.531 . S
C696 H708 0.960 . S
C696 H709 0.962 . S
C696 H710 0.960 . S
C697 C694 1.511 . S
C697 H711 0.961 . S
C697 H712 0.961 . S
C697 H713 0.961 . S
C698 C699 1.370 . S
C698 C700 1.363 . S
C698 H714 0.931 . S
C699 C698 1.370 . S
C699 C703 1.408 . S
C700 C698 1.363 . S
C700 C701 1.370 . S
C700 C704 1.524 . S
C701 C693 1.503 . S
C701 C700 1.370 . S
C701 C702 1.403 . S
C702 C701 1.403 . S
C702 C703 1.404 . S
C702 C705 1.539 . S
C703 C699 1.408 . S
C703 C702 1.404 . S
C703 H715 0.930 . S
C704 C700 1.524 . S
C704 H716 0.956 . S
C704 H717 0.961 . S
C704 H718 0.961 . S
C705 C702 1.539 . S
C705 H719 0.958 . S
C705 H720 0.961 . S
C705 H721 0.960 . S
H706 C690 0.931 . S
H707 C695 0.929 . S
H708 C696 0.960 . S
H709 C696 0.962 . S
H710 C696 0.960 . S
H711 C697 0.961 . S
H712 C697 0.961 . S
H713 C697 0.961 . S
H714 C698 0.931 . S
H715 C703 0.930 . S
H716 C704 0.956 . S
H717 C704 0.961 . S
H718 C704 0.961 . S
H719 C705 0.958 . S
H720 C705 0.961 . S
H721 C705 0.960 . S
C722 C723 1.391 . S
C722 C724 1.394 . S
C722 H738 0.931 . S
C723 C722 1.391 . S
C723 C727 1.376 . S
C724 C722 1.394 . S
C724 C725 1.369 . S
C724 C728 1.531 . S
C725 C724 1.369 . S
C725 C726 1.410 . S
C725 C733 1.503 . S
C726 C725 1.410 . S
C726 C727 1.392 . S
C726 C729 1.511 . S
C727 C723 1.376 . S
C727 C726 1.392 . S
C727 H739 0.929 . S
C728 C724 1.531 . S
C728 H740 0.960 . S
C728 H741 0.962 . S
C728 H742 0.960 . S
C729 C726 1.511 . S
C729 H743 0.961 . S
C729 H744 0.961 . S
C729 H745 0.961 . S
C730 C731 1.370 . S
C730 C732 1.363 . S
C730 H746 0.931 . S
C731 C730 1.370 . S
C731 C735 1.408 . S
C732 C730 1.363 . S
C732 C733 1.370 . S
C732 C736 1.524 . S
C733 C725 1.503 . S
C733 C732 1.370 . S
C733 C734 1.403 . S
C734 C733 1.403 . S
C734 C735 1.404 . S
C734 C737 1.539 . S
C735 C731 1.408 . S
C735 C734 1.404 . S
C735 H747 0.930 . S
C736 C732 1.524 . S
C736 H748 0.956 . S
C736 H749 0.961 . S
C736 H750 0.961 . S
C737 C734 1.539 . S
C737 H751 0.958 . S
C737 H752 0.961 . S
C737 H753 0.960 . S
H738 C722 0.931 . S
H739 C727 0.929 . S
H740 C728 0.960 . S
H741 C728 0.962 . S
H742 C728 0.960 . S
H743 C729 0.961 . S
H744 C729 0.961 . S
H745 C729 0.961 . S
H746 C730 0.931 . S
H747 C735 0.930 . S
H748 C736 0.956 . S
H749 C736 0.961 . S
H750 C736 0.961 . S
H751 C737 0.958 . S
H752 C737 0.961 . S
H753 C737 0.960 . S
C754 C755 1.391 . S
C754 C756 1.394 . S
C754 H770 0.931 . S
C755 C754 1.391 . S
C755 C759 1.376 . S
C756 C754 1.394 . S
C756 C757 1.369 . S
C756 C760 1.531 . S
C757 C756 1.369 . S
C757 C758 1.410 . S
C757 C765 1.503 . S
C758 C757 1.410 . S
C758 C759 1.392 . S
C758 C761 1.511 . S
C759 C755 1.376 . S
C759 C758 1.392 . S
C759 H771 0.929 . S
C760 C756 1.531 . S
C760 H772 0.960 . S
C760 H773 0.962 . S
C760 H774 0.960 . S
C761 C758 1.511 . S
C761 H775 0.961 . S
C761 H776 0.961 . S
C761 H777 0.961 . S
C762 C763 1.370 . S
C762 C764 1.363 . S
C762 H778 0.931 . S
C763 C762 1.370 . S
C763 C767 1.408 . S
C764 C762 1.363 . S
C764 C765 1.370 . S
C764 C768 1.524 . S
C765 C757 1.503 . S
C765 C764 1.370 . S
C765 C766 1.403 . S
C766 C765 1.403 . S
C766 C767 1.404 . S
C766 C769 1.539 . S
C767 C763 1.408 . S
C767 C766 1.404 . S
C767 H779 0.930 . S
C768 C764 1.524 . S
C768 H780 0.956 . S
C768 H781 0.961 . S
C768 H782 0.961 . S
C769 C766 1.539 . S
C769 H783 0.958 . S
C769 H784 0.961 . S
C769 H785 0.960 . S
H770 C754 0.931 . S
H771 C759 0.929 . S
H772 C760 0.960 . S
H773 C760 0.962 . S
H774 C760 0.960 . S
H775 C761 0.961 . S
H776 C761 0.961 . S
H777 C761 0.961 . S
H778 C762 0.931 . S
H779 C767 0.930 . S
H780 C768 0.956 . S
H781 C768 0.961 . S
H782 C768 0.961 . S
H783 C769 0.958 . S
H784 C769 0.961 . S
H785 C769 0.960 . S
C786 C787 1.391 . S
C786 C788 1.394 . S
C786 H802 0.931 . S
C787 C786 1.391 . S
C787 C791 1.376 . S
C788 C786 1.394 . S
C788 C789 1.369 . S
C788 C792 1.531 . S
C789 C788 1.369 . S
C789 C790 1.410 . S
C789 C797 1.503 . S
C790 C789 1.410 . S
C790 C791 1.392 . S
C790 C793 1.511 . S
C791 C787 1.376 . S
C791 C790 1.392 . S
C791 H803 0.929 . S
C792 C788 1.531 . S
C792 H804 0.960 . S
C792 H805 0.962 . S
C792 H806 0.960 . S
C793 C790 1.511 . S
C793 H807 0.961 . S
C793 H808 0.961 . S
C793 H809 0.961 . S
C794 C795 1.370 . S
C794 C796 1.363 . S
C794 H810 0.931 . S
C795 C794 1.370 . S
C795 C799 1.408 . S
C796 C794 1.363 . S
C796 C797 1.370 . S
C796 C800 1.524 . S
C797 C789 1.503 . S
C797 C796 1.370 . S
C797 C798 1.403 . S
C798 C797 1.403 . S
C798 C799 1.404 . S
C798 C801 1.539 . S
C799 C795 1.408 . S
C799 C798 1.404 . S
C799 H811 0.930 . S
C800 C796 1.524 . S
C800 H812 0.956 . S
C800 H813 0.961 . S
C800 H814 0.961 . S
C801 C798 1.539 . S
C801 H815 0.958 . S
C801 H816 0.961 . S
C801 H817 0.960 . S
H802 C786 0.931 . S
H803 C791 0.929 . S
H804 C792 0.960 . S
H805 C792 0.962 . S
H806 C792 0.960 . S
H807 C793 0.961 . S
H808 C793 0.961 . S
H809 C793 0.961 . S
H810 C794 0.931 . S
H811 C799 0.930 . S
H812 C800 0.956 . S
H813 C800 0.961 . S
H814 C800 0.961 . S
H815 C801 0.958 . S
H816 C801 0.961 . S
H817 C801 0.960 . S
C818 C819 1.391 . S
C818 C820 1.394 . S
C818 H834 0.931 . S
C819 C818 1.391 . S
C819 C823 1.376 . S
C820 C818 1.394 . S
C820 C821 1.369 . S
C820 C824 1.531 . S
C821 C820 1.369 . S
C821 C822 1.410 . S
C821 C829 1.503 1_565 S
C822 C821 1.410 . S
C822 C823 1.392 . S
C822 C825 1.511 . S
C823 C819 1.376 . S
C823 C822 1.392 . S
C823 H835 0.929 . S
C824 C820 1.531 . S
C824 H836 0.960 . S
C824 H837 0.962 . S
C824 H838 0.960 . S
C825 C822 1.511 . S
C825 H839 0.961 . S
C825 H840 0.961 1_565 S
C825 H841 0.961 . S
C826 C827 1.370 . S
C826 C828 1.363 . S
C826 H842 0.931 . S
C827 C826 1.370 . S
C827 C831 1.408 . S
C828 C826 1.363 . S
C828 C829 1.370 . S
C828 C832 1.524 . S
C829 C821 1.503 1_545 S
C829 C828 1.370 . S
C829 C830 1.403 . S
C830 C829 1.403 . S
C830 C831 1.404 . S
C830 C833 1.539 1_545 S
C831 C827 1.408 . S
C831 C830 1.404 . S
C831 H843 0.930 . S
C832 C828 1.524 . S
C832 H844 0.956 . S
C832 H845 0.961 . S
C832 H846 0.961 . S
C833 C830 1.539 1_565 S
C833 H847 0.958 . S
C833 H848 0.961 . S
C833 H849 0.960 . S
H834 C818 0.931 . S
H835 C823 0.929 . S
H836 C824 0.960 . S
H837 C824 0.962 . S
H838 C824 0.960 . S
H839 C825 0.961 . S
H840 C825 0.961 1_545 S
H841 C825 0.961 . S
H842 C826 0.931 . S
H843 C831 0.930 . S
H844 C832 0.956 . S
H845 C832 0.961 . S
H846 C832 0.961 . S
H847 C833 0.958 . S
H848 C833 0.961 . S
H849 C833 0.960 . S
C850 C851 1.391 . S
C850 C852 1.394 . S
C850 H866 0.931 . S
C851 C850 1.391 . S
C851 C855 1.376 . S
C852 C850 1.394 . S
C852 C853 1.369 . S
C852 C856 1.531 . S
C853 C852 1.369 . S
C853 C854 1.410 . S
C853 C861 1.503 1_455 S
C854 C853 1.410 . S
C854 C855 1.392 . S
C854 C857 1.511 1_455 S
C855 C851 1.376 . S
C855 C854 1.392 . S
C855 H867 0.929 . S
C856 C852 1.531 . S
C856 H868 0.960 . S
C856 H869 0.962 . S
C856 H870 0.960 . S
C857 C854 1.511 1_655 S
C857 H871 0.961 . S
C857 H872 0.961 . S
C857 H873 0.961 . S
C858 C859 1.370 . S
C858 C860 1.363 . S
C858 H874 0.931 . S
C859 C858 1.370 . S
C859 C863 1.408 . S
C860 C858 1.363 . S
C860 C861 1.370 . S
C860 C864 1.524 . S
C861 C853 1.503 1_655 S
C861 C860 1.370 . S
C861 C862 1.403 . S
C862 C861 1.403 . S
C862 C863 1.404 . S
C862 C865 1.539 . S
C863 C859 1.408 . S
C863 C862 1.404 . S
C863 H875 0.930 . S
C864 C860 1.524 . S
C864 H876 0.956 1_655 S
C864 H877 0.961 . S
C864 H878 0.961 . S
C865 C862 1.539 . S
C865 H879 0.958 . S
C865 H880 0.961 . S
C865 H881 0.960 . S
H866 C850 0.931 . S
H867 C855 0.929 . S
H868 C856 0.960 . S
H869 C856 0.962 . S
H870 C856 0.960 . S
H871 C857 0.961 . S
H872 C857 0.961 . S
H873 C857 0.961 . S
H874 C858 0.931 . S
H875 C863 0.930 . S
H876 C864 0.956 1_455 S
H877 C864 0.961 . S
H878 C864 0.961 . S
H879 C865 0.958 . S
H880 C865 0.961 . S
H881 C865 0.960 . S
C882 C883 1.391 . S
C882 C884 1.394 . S
C882 H898 0.931 . S
C883 C882 1.391 . S
C883 C887 1.376 . S
C884 C882 1.394 . S
C884 C885 1.369 . S
C884 C888 1.531 . S
C885 C884 1.369 . S
C885 C886 1.410 . S
C885 C893 1.503 . S
C886 C885 1.410 . S
C886 C887 1.392 . S
C886 C889 1.511 . S
C887 C883 1.376 . S
C887 C886 1.392 . S
C887 H899 0.929 . S
C888 C884 1.531 . S
C888 H900 0.960 . S
C888 H901 0.962 . S
C888 H902 0.960 . S
C889 C886 1.511 . S
C889 H903 0.961 . S
C889 H904 0.961 . S
C889 H905 0.961 . S
C890 C891 1.370 . S
C890 C892 1.363 . S
C890 H906 0.931 . S
C891 C890 1.370 . S
C891 C895 1.408 . S
C892 C890 1.363 . S
C892 C893 1.370 . S
C892 C896 1.524 . S
C893 C885 1.503 . S
C893 C892 1.370 . S
C893 C894 1.403 . S
C894 C893 1.403 . S
C894 C895 1.404 . S
C894 C897 1.539 . S
C895 C891 1.408 . S
C895 C894 1.404 . S
C895 H907 0.930 . S
C896 C892 1.524 . S
C896 H908 0.956 . S
C896 H909 0.961 . S
C896 H910 0.961 . S
C897 C894 1.539 . S
C897 H911 0.958 . S
C897 H912 0.961 . S
C897 H913 0.960 . S
H898 C882 0.931 . S
H899 C887 0.929 . S
H900 C888 0.960 . S
H901 C888 0.962 . S
H902 C888 0.960 . S
H903 C889 0.961 . S
H904 C889 0.961 . S
H905 C889 0.961 . S
H906 C890 0.931 . S
H907 C895 0.930 . S
H908 C896 0.956 . S
H909 C896 0.961 . S
H910 C896 0.961 . S
H911 C897 0.958 . S
H912 C897 0.961 . S
H913 C897 0.960 . S
C914 C915 1.391 . S
C914 C916 1.394 . S
C914 H930 0.931 . S
C915 C914 1.391 . S
C915 C919 1.376 . S
C916 C914 1.394 . S
C916 C917 1.369 . S
C916 C920 1.531 . S
C917 C916 1.369 . S
C917 C918 1.410 . S
C917 C925 1.503 . S
C918 C917 1.410 . S
C918 C919 1.392 . S
C918 C921 1.511 . S
C919 C915 1.376 . S
C919 C918 1.392 . S
C919 H931 0.929 . S
C920 C916 1.531 . S
C920 H932 0.960 . S
C920 H933 0.962 . S
C920 H934 0.960 . S
C921 C918 1.511 . S
C921 H935 0.961 . S
C921 H936 0.961 . S
C921 H937 0.961 . S
C922 C923 1.370 . S
C922 C924 1.363 . S
C922 H938 0.931 . S
C923 C922 1.370 . S
C923 C927 1.408 . S
C924 C922 1.363 . S
C924 C925 1.370 . S
C924 C928 1.524 . S
C925 C917 1.503 . S
C925 C924 1.370 . S
C925 C926 1.403 . S
C926 C925 1.403 . S
C926 C927 1.404 . S
C926 C929 1.539 . S
C927 C923 1.408 . S
C927 C926 1.404 . S
C927 H939 0.930 . S
C928 C924 1.524 . S
C928 H940 0.956 . S
C928 H941 0.961 . S
C928 H942 0.961 . S
C929 C926 1.539 . S
C929 H943 0.958 . S
C929 H944 0.961 . S
C929 H945 0.960 . S
H930 C914 0.931 . S
H931 C919 0.929 . S
H932 C920 0.960 . S
H933 C920 0.962 . S
H934 C920 0.960 . S
H935 C921 0.961 . S
H936 C921 0.961 . S
H937 C921 0.961 . S
H938 C922 0.931 . S
H939 C927 0.930 . S
H940 C928 0.956 . S
H941 C928 0.961 . S
H942 C928 0.961 . S
H943 C929 0.958 . S
H944 C929 0.961 . S
H945 C929 0.960 . S
C946 C947 1.391 . S
C946 C948 1.394 . S
C946 H962 0.931 . S
C947 C946 1.391 . S
C947 C951 1.376 . S
C948 C946 1.394 . S
C948 C949 1.369 . S
C948 C952 1.531 . S
C949 C948 1.369 . S
C949 C950 1.410 . S
C949 C957 1.503 . S
C950 C949 1.410 . S
C950 C951 1.392 . S
C950 C953 1.511 . S
C951 C947 1.376 . S
C951 C950 1.392 . S
C951 H963 0.929 . S
C952 C948 1.531 . S
C952 H964 0.960 . S
C952 H965 0.962 . S
C952 H966 0.960 . S
C953 C950 1.511 . S
C953 H967 0.961 . S
C953 H968 0.961 . S
C953 H969 0.961 . S
C954 C955 1.370 . S
C954 C956 1.363 . S
C954 H970 0.931 . S
C955 C954 1.370 . S
C955 C959 1.408 . S
C956 C954 1.363 . S
C956 C957 1.370 . S
C956 C960 1.524 . S
C957 C949 1.503 . S
C957 C956 1.370 . S
C957 C958 1.403 . S
C958 C957 1.403 . S
C958 C959 1.404 . S
C958 C961 1.539 . S
C959 C955 1.408 . S
C959 C958 1.404 . S
C959 H971 0.930 . S
C960 C956 1.524 . S
C960 H972 0.956 . S
C960 H973 0.961 . S
C960 H974 0.961 . S
C961 C958 1.539 . S
C961 H975 0.958 . S
C961 H976 0.961 . S
C961 H977 0.960 . S
H962 C946 0.931 . S
H963 C951 0.929 . S
H964 C952 0.960 . S
H965 C952 0.962 . S
H966 C952 0.960 . S
H967 C953 0.961 . S
H968 C953 0.961 . S
H969 C953 0.961 . S
H970 C954 0.931 . S
H971 C959 0.930 . S
H972 C960 0.956 . S
H973 C960 0.961 . S
H974 C960 0.961 . S
H975 C961 0.958 . S
H976 C961 0.961 . S
H977 C961 0.960 . S
C978 C979 1.391 . S
C978 C980 1.394 . S
C978 H994 0.931 . S
C979 C978 1.391 . S
C979 C983 1.376 . S
C980 C978 1.394 . S
C980 C981 1.369 . S
C980 C984 1.531 . S
C981 C980 1.369 . S
C981 C982 1.410 . S
C981 C989 1.503 . S
C982 C981 1.410 . S
C982 C983 1.392 . S
C982 C985 1.511 . S
C983 C979 1.376 . S
C983 C982 1.392 . S
C983 H995 0.929 . S
C984 C980 1.531 . S
C984 H996 0.960 . S
C984 H997 0.962 . S
C984 H998 0.960 . S
C985 C982 1.511 . S
C985 H999 0.961 . S
C985 H1000 0.961 . S
C985 H1001 0.961 . S
C986 C987 1.370 . S
C986 C988 1.363 . S
C986 H1002 0.931 . S
C987 C986 1.370 . S
C987 C991 1.408 . S
C988 C986 1.363 . S
C988 C989 1.370 . S
C988 C992 1.524 . S
C989 C981 1.503 . S
C989 C988 1.370 . S
C989 C990 1.403 . S
C990 C989 1.403 . S
C990 C991 1.404 . S
C990 C993 1.539 . S
C991 C987 1.408 . S
C991 C990 1.404 . S
C991 H1003 0.930 . S
C992 C988 1.524 . S
C992 H1004 0.956 . S
C992 H1005 0.961 . S
C992 H1006 0.961 . S
C993 C990 1.539 . S
C993 H1007 0.958 . S
C993 H1008 0.961 . S
C993 H1009 0.960 . S
H994 C978 0.931 . S
H995 C983 0.929 . S
H996 C984 0.960 . S
H997 C984 0.962 . S
H998 C984 0.960 . S
H999 C985 0.961 . S
H1000 C985 0.961 . S
H1001 C985 0.961 . S
H1002 C986 0.931 . S
H1003 C991 0.930 . S
H1004 C992 0.956 . S
H1005 C992 0.961 . S
H1006 C992 0.961 . S
H1007 C993 0.958 . S
H1008 C993 0.961 . S
H1009 C993 0.960 . S
C1010 C1011 1.391 . S
C1010 C1012 1.394 . S
C1010 H1026 0.931 . S
C1011 C1010 1.391 . S
C1011 C1015 1.376 . S
C1012 C1010 1.394 . S
C1012 C1013 1.369 . S
C1012 C1016 1.531 . S
C1013 C1012 1.369 . S
C1013 C1014 1.410 . S
C1013 C1021 1.503 . S
C1014 C1013 1.410 . S
C1014 C1015 1.392 . S
C1014 C1017 1.511 . S
C1015 C1011 1.376 . S
C1015 C1014 1.392 . S
C1015 H1027 0.929 . S
C1016 C1012 1.531 . S
C1016 H1028 0.960 . S
C1016 H1029 0.962 . S
C1016 H1030 0.960 . S
C1017 C1014 1.511 . S
C1017 H1031 0.961 . S
C1017 H1032 0.961 . S
C1017 H1033 0.961 . S
C1018 C1019 1.370 . S
C1018 C1020 1.363 . S
C1018 H1034 0.931 . S
C1019 C1018 1.370 . S
C1019 C1023 1.408 . S
C1020 C1018 1.363 . S
C1020 C1021 1.370 . S
C1020 C1024 1.524 . S
C1021 C1013 1.503 . S
C1021 C1020 1.370 . S
C1021 C1022 1.403 . S
C1022 C1021 1.403 . S
C1022 C1023 1.404 . S
C1022 C1025 1.539 . S
C1023 C1019 1.408 . S
C1023 C1022 1.404 . S
C1023 H1035 0.930 . S
C1024 C1020 1.524 . S
C1024 H1036 0.956 . S
C1024 H1037 0.961 . S
C1024 H1038 0.961 . S
C1025 C1022 1.539 . S
C1025 H1039 0.958 . S
C1025 H1040 0.961 . S
C1025 H1041 0.960 . S
H1026 C1010 0.931 . S
H1027 C1015 0.929 . S
H1028 C1016 0.960 . S
H1029 C1016 0.962 . S
H1030 C1016 0.960 . S
H1031 C1017 0.961 . S
H1032 C1017 0.961 . S
H1033 C1017 0.961 . S
H1034 C1018 0.931 . S
H1035 C1023 0.930 . S
H1036 C1024 0.956 . S
H1037 C1024 0.961 . S
H1038 C1024 0.961 . S
H1039 C1025 0.958 . S
H1040 C1025 0.961 . S
H1041 C1025 0.960 . S
C1042 C1043 1.391 . S
C1042 C1044 1.394 . S
C1042 H1058 0.931 . S
C1043 C1042 1.391 . S
C1043 C1047 1.376 . S
C1044 C1042 1.394 . S
C1044 C1045 1.369 . S
C1044 C1048 1.531 . S
C1045 C1044 1.369 . S
C1045 C1046 1.410 . S
C1045 C1053 1.503 . S
C1046 C1045 1.410 . S
C1046 C1047 1.392 . S
C1046 C1049 1.511 . S
C1047 C1043 1.376 . S
C1047 C1046 1.392 . S
C1047 H1059 0.929 . S
C1048 C1044 1.531 . S
C1048 H1060 0.960 . S
C1048 H1061 0.962 . S
C1048 H1062 0.960 . S
C1049 C1046 1.511 . S
C1049 H1063 0.961 . S
C1049 H1064 0.961 . S
C1049 H1065 0.961 . S
C1050 C1051 1.370 . S
C1050 C1052 1.363 . S
C1050 H1066 0.931 . S
C1051 C1050 1.370 . S
C1051 C1055 1.408 . S
C1052 C1050 1.363 . S
C1052 C1053 1.370 . S
C1052 C1056 1.524 . S
C1053 C1045 1.503 . S
C1053 C1052 1.370 . S
C1053 C1054 1.403 . S
C1054 C1053 1.403 . S
C1054 C1055 1.404 . S
C1054 C1057 1.539 . S
C1055 C1051 1.408 . S
C1055 C1054 1.404 . S
C1055 H1067 0.930 . S
C1056 C1052 1.524 . S
C1056 H1068 0.956 . S
C1056 H1069 0.961 . S
C1056 H1070 0.961 . S
C1057 C1054 1.539 . S
C1057 H1071 0.958 . S
C1057 H1072 0.961 . S
C1057 H1073 0.960 . S
H1058 C1042 0.931 . S
H1059 C1047 0.929 . S
H1060 C1048 0.960 . S
H1061 C1048 0.962 . S
H1062 C1048 0.960 . S
H1063 C1049 0.961 . S
H1064 C1049 0.961 . S
H1065 C1049 0.961 . S
H1066 C1050 0.931 . S
H1067 C1055 0.930 . S
H1068 C1056 0.956 . S
H1069 C1056 0.961 . S
H1070 C1056 0.961 . S
H1071 C1057 0.958 . S
H1072 C1057 0.961 . S
H1073 C1057 0.960 . S
C1074 C1075 1.391 . S
C1074 C1076 1.394 . S
C1074 H1090 0.931 . S
C1075 C1074 1.391 . S
C1075 C1079 1.376 . S
C1076 C1074 1.394 . S
C1076 C1077 1.369 . S
C1076 C1080 1.531 1_554 S
C1077 C1076 1.369 . S
C1077 C1078 1.410 . S
C1077 C1085 1.503 1_654 S
C1078 C1077 1.410 . S
C1078 C1079 1.392 . S
C1078 C1081 1.511 . S
C1079 C1075 1.376 . S
C1079 C1078 1.392 . S
C1079 H1091 0.929 . S
C1080 C1076 1.531 1_556 S
C1080 H1092 0.960 . S
C1080 H1093 0.962 . S
C1080 H1094 0.960 . S
C1081 C1078 1.511 . S
C1081 H1095 0.961 . S
C1081 H1096 0.961 1_655 S
C1081 H1097 0.961 1_554 S
C1082 C1083 1.370 . S
C1082 C1084 1.363 1_556 S
C1082 H1098 0.931 1_556 S
C1083 C1082 1.370 . S
C1083 C1087 1.408 . S
C1084 C1082 1.363 1_554 S
C1084 C1085 1.370 1_554 S
C1084 C1088 1.524 . S
C1085 C1077 1.503 1_456 S
C1085 C1084 1.370 1_556 S
C1085 C1086 1.403 . S
C1086 C1085 1.403 . S
C1086 C1087 1.404 . S
C1086 C1089 1.539 1_455 S
C1087 C1083 1.408 . S
C1087 C1086 1.404 . S
C1087 H1099 0.930 . S
C1088 C1084 1.524 . S
C1088 H1100 0.956 . S
C1088 H1101 0.961 . S
C1088 H1102 0.961 . S
C1089 C1086 1.539 1_655 S
C1089 H1103 0.958 . S
C1089 H1104 0.961 . S
C1089 H1105 0.960 . S
H1090 C1074 0.931 . S
H1091 C1079 0.929 . S
H1092 C1080 0.960 . S
H1093 C1080 0.962 . S
H1094 C1080 0.960 . S
H1095 C1081 0.961 . S
H1096 C1081 0.961 1_455 S
H1097 C1081 0.961 1_556 S
H1098 C1082 0.931 1_554 S
H1099 C1087 0.930 . S
H1100 C1088 0.956 . S
H1101 C1088 0.961 . S
H1102 C1088 0.961 . S
H1103 C1089 0.958 . S
H1104 C1089 0.961 . S
H1105 C1089 0.960 . S
C1106 C1107 1.391 . S
C1106 C1108 1.394 . S
C1106 H1122 0.931 . S
C1107 C1106 1.391 . S
C1107 C1111 1.376 . S
C1108 C1106 1.394 . S
C1108 C1109 1.369 . S
C1108 C1112 1.531 . S
C1109 C1108 1.369 . S
C1109 C1110 1.410 1_556 S
C1109 C1117 1.503 1_556 S
C1110 C1109 1.410 1_554 S
C1110 C1111 1.392 1_554 S
C1110 C1113 1.511 . S
C1111 C1107 1.376 . S
C1111 C1110 1.392 1_556 S
C1111 H1123 0.929 . S
C1112 C1108 1.531 . S
C1112 H1124 0.960 . S
C1112 H1125 0.962 . S
C1112 H1126 0.960 . S
C1113 C1110 1.511 . S
C1113 H1127 0.961 . S
C1113 H1128 0.961 . S
C1113 H1129 0.961 . S
C1114 C1115 1.370 . S
C1114 C1116 1.363 . S
C1114 H1130 0.931 . S
C1115 C1114 1.370 . S
C1115 C1119 1.408 . S
C1116 C1114 1.363 . S
C1116 C1117 1.370 . S
C1116 C1120 1.524 . S
C1117 C1109 1.503 1_554 S
C1117 C1116 1.370 . S
C1117 C1118 1.403 . S
C1118 C1117 1.403 . S
C1118 C1119 1.404 . S
C1118 C1121 1.539 1_554 S
C1119 C1115 1.408 . S
C1119 C1118 1.404 . S
C1119 H1131 0.930 . S
C1120 C1116 1.524 . S
C1120 H1132 0.956 . S
C1120 H1133 0.961 . S
C1120 H1134 0.961 . S
C1121 C1118 1.539 1_556 S
C1121 H1135 0.958 . S
C1121 H1136 0.953 1_556 S
C1121 H1137 0.960 . S
H1122 C1106 0.931 . S
H1123 C1111 0.929 . S
H1124 C1112 0.960 . S
H1125 C1112 0.962 . S
H1126 C1112 0.960 . S
H1127 C1113 0.961 . S
H1128 C1113 0.961 . S
H1129 C1113 0.961 . S
H1130 C1114 0.931 . S
H1131 C1119 0.930 . S
H1132 C1120 0.956 . S
H1133 C1120 0.961 . S
H1134 C1120 0.961 . S
H1135 C1121 0.958 . S
H1136 C1121 0.953 1_554 S
H1137 C1121 0.960 . S
C1138 C1139 1.391 . S
C1138 C1140 1.394 . S
C1138 H1154 0.931 . S
C1139 C1138 1.391 . S
C1139 C1143 1.376 . S
C1140 C1138 1.394 . S
C1140 C1141 1.369 . S
C1140 C1144 1.531 1_545 S
C1141 C1140 1.369 . S
C1141 C1142 1.410 1_554 S
C1141 C1149 1.503 1_544 S
C1142 C1141 1.410 1_556 S
C1142 C1143 1.392 1_556 S
C1142 C1145 1.511 . S
C1143 C1139 1.376 . S
C1143 C1142 1.392 1_554 S
C1143 H1155 0.929 1_554 S
C1144 C1140 1.531 1_565 S
C1144 H1156 0.960 . S
C1144 H1157 0.962 . S
C1144 H1158 0.960 . S
C1145 C1142 1.511 . S
C1145 H1159 0.961 . S
C1145 H1160 0.961 . S
C1145 H1161 0.961 . S
C1146 C1147 1.370 . S
C1146 C1148 1.363 . S
C1146 H1162 0.931 . S
C1147 C1146 1.370 . S
C1147 C1151 1.408 . S
C1148 C1146 1.363 . S
C1148 C1149 1.370 . S
C1148 C1152 1.525 1_556 S
C1149 C1141 1.503 1_566 S
C1149 C1148 1.370 . S
C1149 C1150 1.403 . S
C1150 C1149 1.403 . S
C1150 C1151 1.404 . S
C1150 C1153 1.539 . S
C1151 C1147 1.408 . S
C1151 C1150 1.404 . S
C1151 H1163 0.930 . S
C1152 C1148 1.525 1_554 S
C1152 H1164 0.953 . S
C1152 H1165 0.962 1_564 S
C1152 H1166 0.962 1_554 S
C1153 C1150 1.539 . S
C1153 H1167 0.971 . S
C1153 H1168 0.961 . S
C1153 H1169 0.960 1_565 S
H1154 C1138 0.931 . S
H1155 C1143 0.929 1_556 S
H1156 C1144 0.960 . S
H1157 C1144 0.962 . S
H1158 C1144 0.960 . S
H1159 C1145 0.961 . S
H1160 C1145 0.961 . S
H1161 C1145 0.961 . S
H1162 C1146 0.931 . S
H1163 C1151 0.930 . S
H1164 C1152 0.953 . S
H1165 C1152 0.962 1_546 S
H1166 C1152 0.962 1_556 S
H1167 C1153 0.971 . S
H1168 C1153 0.961 . S
H1169 C1153 0.960 1_545 S
C1170 C1171 1.391 . S
C1170 C1172 1.394 . S
C1170 H1186 0.931 . S
C1171 C1170 1.391 . S
C1171 C1175 1.376 . S
C1172 C1170 1.394 . S
C1172 C1173 1.399 . S
C1172 C1176 1.531 . S
C1173 C1172 1.399 . S
C1173 C1174 1.398 . S
C1173 C1181 1.489 1_454 S
C1174 C1173 1.398 . S
C1174 C1175 1.392 . S
C1174 C1177 1.511 1_455 S
C1175 C1171 1.376 . S
C1175 C1174 1.392 . S
C1175 H1187 0.929 . S
C1176 C1172 1.531 . S
C1176 H1188 0.960 1_455 S
C1176 H1189 0.962 . S
C1176 H1190 0.951 . S
C1177 C1174 1.511 1_655 S
C1177 H1191 0.961 1_655 S
C1177 H1192 0.961 1_554 S
C1177 H1193 0.961 . S
C1178 C1179 1.370 . S
C1178 C1180 1.363 1_655 S
C1178 H1194 0.931 1_655 S
C1179 C1178 1.370 . S
C1179 C1183 1.408 . S
C1180 C1178 1.363 1_455 S
C1180 C1181 1.370 1_455 S
C1180 C1184 1.524 . S
C1181 C1173 1.489 1_656 S
C1181 C1180 1.370 1_655 S
C1181 C1182 1.403 . S
C1182 C1181 1.403 . S
C1182 C1183 1.404 . S
C1182 C1185 1.539 1_556 S
C1183 C1179 1.408 . S
C1183 C1182 1.404 . S
C1183 H1195 0.930 . S
C1184 C1180 1.524 . S
C1184 H1196 0.956 . S
C1184 H1197 0.961 . S
C1184 H1198 0.961 . S
C1185 C1182 1.539 1_554 S
C1185 H1199 0.958 . S
C1185 H1200 0.961 . S
C1185 H1201 0.960 . S
H1186 C1170 0.931 . S
H1187 C1175 0.929 . S
H1188 C1176 0.960 1_655 S
H1189 C1176 0.962 . S
H1190 C1176 0.951 . S
H1191 C1177 0.961 1_455 S
H1192 C1177 0.961 1_556 S
H1193 C1177 0.961 . S
H1194 C1178 0.931 1_455 S
H1195 C1183 0.930 . S
H1196 C1184 0.956 . S
H1197 C1184 0.961 . S
H1198 C1184 0.961 . S
H1199 C1185 0.958 . S
H1200 C1185 0.961 . S
H1201 C1185 0.960 . S
C1202 C1203 1.391 . S
C1202 C1204 1.394 . S
C1202 H1218 0.931 . S
C1203 C1202 1.391 . S
C1203 C1207 1.376 . S
C1204 C1202 1.394 . S
C1204 C1205 1.369 . S
C1204 C1208 1.531 . S
C1205 C1204 1.369 . S
C1205 C1206 1.410 . S
C1205 C1213 1.503 1_556 S
C1206 C1205 1.410 . S
C1206 C1207 1.392 . S
C1206 C1209 1.511 . S
C1207 C1203 1.376 . S
C1207 C1206 1.392 . S
C1207 H1219 0.929 . S
C1208 C1204 1.531 . S
C1208 H1220 0.960 1_556 S
C1208 H1221 0.962 . S
C1208 H1222 0.960 . S
C1209 C1206 1.511 . S
C1209 H1223 0.961 . S
C1209 H1224 0.961 1_556 S
C1209 H1225 0.961 1_556 S
C1210 C1211 1.370 . S
C1210 C1212 1.363 . S
C1210 H1226 0.931 . S
C1211 C1210 1.370 . S
C1211 C1215 1.408 . S
C1212 C1210 1.363 . S
C1212 C1213 1.370 . S
C1212 C1216 1.524 1_554 S
C1213 C1205 1.503 1_554 S
C1213 C1212 1.370 . S
C1213 C1214 1.403 . S
C1214 C1213 1.403 . S
C1214 C1215 1.404 . S
C1214 C1217 1.539 . S
C1215 C1211 1.408 . S
C1215 C1214 1.404 . S
C1215 H1227 0.930 . S
C1216 C1212 1.524 1_556 S
C1216 H1228 0.956 . S
C1216 H1229 0.961 . S
C1216 H1230 0.961 . S
C1217 C1214 1.539 . S
C1217 H1231 0.958 . S
C1217 H1232 0.961 . S
C1217 H1233 0.960 . S
H1218 C1202 0.931 . S
H1219 C1207 0.929 . S
H1220 C1208 0.960 1_554 S
H1221 C1208 0.962 . S
H1222 C1208 0.960 . S
H1223 C1209 0.961 . S
H1224 C1209 0.961 1_554 S
H1225 C1209 0.961 1_554 S
H1226 C1210 0.931 . S
H1227 C1215 0.930 . S
H1228 C1216 0.956 . S
H1229 C1216 0.961 . S
H1230 C1216 0.961 . S
H1231 C1217 0.958 . S
H1232 C1217 0.961 . S
H1233 C1217 0.960 . S
C1234 C1235 1.391 . S
C1234 C1236 1.394 . S
C1234 H1250 0.931 . S
C1235 C1234 1.391 . S
C1235 C1239 1.376 . S
C1236 C1234 1.394 . S
C1236 C1237 1.369 . S
C1236 C1240 1.535 . S
C1237 C1236 1.369 . S
C1237 C1238 1.410 . S
C1237 C1245 1.503 1_546 S
C1238 C1237 1.410 . S
C1238 C1239 1.392 . S
C1238 C1241 1.511 1_545 S
C1239 C1235 1.376 . S
C1239 C1238 1.392 . S
C1239 H1251 0.929 . S
C1240 C1236 1.535 . S
C1240 H1252 0.953 1_556 S
C1240 H1253 0.963 . S
C1240 H1254 0.962 . S
C1241 C1238 1.511 1_565 S
C1241 H1255 0.961 . S
C1241 H1256 0.961 . S
C1241 H1257 0.961 1_565 S
C1242 C1243 1.370 . S
C1242 C1244 1.363 . S
C1242 H1258 0.931 . S
C1243 C1242 1.370 . S
C1243 C1247 1.408 . S
C1244 C1242 1.363 . S
C1244 C1245 1.370 . S
C1244 C1248 1.524 1_554 S
C1245 C1237 1.503 1_564 S
C1245 C1244 1.370 . S
C1245 C1246 1.403 1_565 S
C1246 C1245 1.403 1_545 S
C1246 C1247 1.404 1_545 S
C1246 C1249 1.539 . S
C1247 C1243 1.408 . S
C1247 C1246 1.404 1_565 S
C1247 H1259 0.930 1_565 S
C1248 C1244 1.524 1_556 S
C1248 H1260 0.956 . S
C1248 H1261 0.961 . S
C1248 H1262 0.961 . S
C1249 C1246 1.539 . S
C1249 H1263 0.958 . S
C1249 H1264 0.961 . S
C1249 H1265 0.960 . S
H1250 C1234 0.931 . S
H1251 C1239 0.929 . S
H1252 C1240 0.953 1_554 S
H1253 C1240 0.963 . S
H1254 C1240 0.962 . S
H1255 C1241 0.961 . S
H1256 C1241 0.961 . S
H1257 C1241 0.961 1_545 S
H1258 C1242 0.931 . S
H1259 C1247 0.930 1_545 S
H1260 C1248 0.956 . S
H1261 C1248 0.961 . S
H1262 C1248 0.961 . S
H1263 C1249 0.958 . S
H1264 C1249 0.961 . S
H1265 C1249 0.960 . S
C1266 C1267 1.391 . S
C1266 C1268 1.394 . S
C1266 H1282 0.931 . S
C1267 C1266 1.391 . S
C1267 C1271 1.376 . S
C1268 C1266 1.394 . S
C1268 C1269 1.369 . S
C1268 C1272 1.531 . S
C1269 C1268 1.369 . S
C1269 C1270 1.410 . S
C1269 C1277 1.503 . S
C1270 C1269 1.410 . S
C1270 C1271 1.392 . S
C1270 C1273 1.511 . S
C1271 C1267 1.376 . S
C1271 C1270 1.392 . S
C1271 H1283 0.929 . S
C1272 C1268 1.531 . S
C1272 H1284 0.960 . S
C1272 H1285 0.962 . S
C1272 H1286 0.960 . S
C1273 C1270 1.511 . S
C1273 H1287 0.961 . S
C1273 H1288 0.961 . S
C1273 H1289 0.961 . S
C1274 C1275 1.370 . S
C1274 C1276 1.363 . S
C1274 H1290 0.931 . S
C1275 C1274 1.370 . S
C1275 C1279 1.408 . S
C1276 C1274 1.363 . S
C1276 C1277 1.370 . S
C1276 C1280 1.524 . S
C1277 C1269 1.503 . S
C1277 C1276 1.370 . S
C1277 C1278 1.403 . S
C1278 C1277 1.403 . S
C1278 C1279 1.404 . S
C1278 C1281 1.539 . S
C1279 C1275 1.408 . S
C1279 C1278 1.404 . S
C1279 H1291 0.930 . S
C1280 C1276 1.524 . S
C1280 H1292 0.956 . S
C1280 H1293 0.961 . S
C1280 H1294 0.961 . S
C1281 C1278 1.539 . S
C1281 H1295 0.958 . S
C1281 H1296 0.961 . S
C1281 H1297 0.960 . S
H1282 C1266 0.931 . S
H1283 C1271 0.929 . S
H1284 C1272 0.960 . S
H1285 C1272 0.962 . S
H1286 C1272 0.960 . S
H1287 C1273 0.961 . S
H1288 C1273 0.961 . S
H1289 C1273 0.961 . S
H1290 C1274 0.931 . S
H1291 C1279 0.930 . S
H1292 C1280 0.956 . S
H1293 C1280 0.961 . S
H1294 C1280 0.961 . S
H1295 C1281 0.958 . S
H1296 C1281 0.961 . S
H1297 C1281 0.960 . S
C1298 C1299 1.391 . S
C1298 C1300 1.394 . S
C1298 H1314 0.931 . S
C1299 C1298 1.391 . S
C1299 C1303 1.376 . S
C1300 C1298 1.394 . S
C1300 C1301 1.369 . S
C1300 C1304 1.531 . S
C1301 C1300 1.369 . S
C1301 C1302 1.410 . S
C1301 C1309 1.503 . S
C1302 C1301 1.410 . S
C1302 C1303 1.392 . S
C1302 C1305 1.511 . S
C1303 C1299 1.376 . S
C1303 C1302 1.392 . S
C1303 H1315 0.929 . S
C1304 C1300 1.531 . S
C1304 H1316 0.960 . S
C1304 H1317 0.962 . S
C1304 H1318 0.960 . S
C1305 C1302 1.511 . S
C1305 H1319 0.961 . S
C1305 H1320 0.961 . S
C1305 H1321 0.961 . S
C1306 C1307 1.370 . S
C1306 C1308 1.363 . S
C1306 H1322 0.931 . S
C1307 C1306 1.370 . S
C1307 C1311 1.408 . S
C1308 C1306 1.363 . S
C1308 C1309 1.370 . S
C1308 C1312 1.524 . S
C1309 C1301 1.503 . S
C1309 C1308 1.370 . S
C1309 C1310 1.403 . S
C1310 C1309 1.403 . S
C1310 C1311 1.404 . S
C1310 C1313 1.539 . S
C1311 C1307 1.408 . S
C1311 C1310 1.404 . S
C1311 H1323 0.930 . S
C1312 C1308 1.524 . S
C1312 H1324 0.956 . S
C1312 H1325 0.961 . S
C1312 H1326 0.961 . S
C1313 C1310 1.539 . S
C1313 H1327 0.958 . S
C1313 H1328 0.961 . S
C1313 H1329 0.960 . S
H1314 C1298 0.931 . S
H1315 C1303 0.929 . S
H1316 C1304 0.960 . S
H1317 C1304 0.962 . S
H1318 C1304 0.960 . S
H1319 C1305 0.961 . S
H1320 C1305 0.961 . S
H1321 C1305 0.961 . S
H1322 C1306 0.931 . S
H1323 C1311 0.930 . S
H1324 C1312 0.956 . S
H1325 C1312 0.961 . S
H1326 C1312 0.961 . S
H1327 C1313 0.958 . S
H1328 C1313 0.961 . S
H1329 C1313 0.960 . S
C1330 C1331 1.391 . S
C1330 C1332 1.394 . S
C1330 H1346 0.931 . S
C1331 C1330 1.391 . S
C1331 C1335 1.376 . S
C1332 C1330 1.394 . S
C1332 C1333 1.369 . S
C1332 C1336 1.531 . S
C1333 C1332 1.369 . S
C1333 C1334 1.410 . S
C1333 C1341 1.503 . S
C1334 C1333 1.410 . S
C1334 C1335 1.392 . S
C1334 C1337 1.511 . S
C1335 C1331 1.376 . S
C1335 C1334 1.392 . S
C1335 H1347 0.929 . S
C1336 C1332 1.531 . S
C1336 H1348 0.960 . S
C1336 H1349 0.962 . S
C1336 H1350 0.960 . S
C1337 C1334 1.511 . S
C1337 H1351 0.961 . S
C1337 H1352 0.961 . S
C1337 H1353 0.961 . S
C1338 C1339 1.370 . S
C1338 C1340 1.363 . S
C1338 H1354 0.931 . S
C1339 C1338 1.370 . S
C1339 C1343 1.408 . S
C1340 C1338 1.363 . S
C1340 C1341 1.370 . S
C1340 C1344 1.524 . S
C1341 C1333 1.503 . S
C1341 C1340 1.370 . S
C1341 C1342 1.403 . S
C1342 C1341 1.403 . S
C1342 C1343 1.404 . S
C1342 C1345 1.539 . S
C1343 C1339 1.408 . S
C1343 C1342 1.404 . S
C1343 H1355 0.930 . S
C1344 C1340 1.524 . S
C1344 H1356 0.956 . S
C1344 H1357 0.961 . S
C1344 H1358 0.961 . S
C1345 C1342 1.539 . S
C1345 H1359 0.958 . S
C1345 H1360 0.961 . S
C1345 H1361 0.960 . S
H1346 C1330 0.931 . S
H1347 C1335 0.929 . S
H1348 C1336 0.960 . S
H1349 C1336 0.962 . S
H1350 C1336 0.960 . S
H1351 C1337 0.961 . S
H1352 C1337 0.961 . S
H1353 C1337 0.961 . S
H1354 C1338 0.931 . S
H1355 C1343 0.930 . S
H1356 C1344 0.956 . S
H1357 C1344 0.961 . S
H1358 C1344 0.961 . S
H1359 C1345 0.958 . S
H1360 C1345 0.961 . S
H1361 C1345 0.960 . S
C1362 C1363 1.391 . S
C1362 C1364 1.394 . S
C1362 H1378 0.931 . S
C1363 C1362 1.391 . S
C1363 C1367 1.376 . S
C1364 C1362 1.394 . S
C1364 C1365 1.369 . S
C1364 C1368 1.531 . S
C1365 C1364 1.369 . S
C1365 C1366 1.410 . S
C1365 C1373 1.503 . S
C1366 C1365 1.410 . S
C1366 C1367 1.392 . S
C1366 C1369 1.511 . S
C1367 C1363 1.376 . S
C1367 C1366 1.392 . S
C1367 H1379 0.929 . S
C1368 C1364 1.531 . S
C1368 H1380 0.960 . S
C1368 H1381 0.962 . S
C1368 H1382 0.960 . S
C1369 C1366 1.511 . S
C1369 H1383 0.961 . S
C1369 H1384 0.961 . S
C1369 H1385 0.961 . S
C1370 C1371 1.370 . S
C1370 C1372 1.363 . S
C1370 H1386 0.931 . S
C1371 C1370 1.370 . S
C1371 C1375 1.408 . S
C1372 C1370 1.363 . S
C1372 C1373 1.370 . S
C1372 C1376 1.524 . S
C1373 C1365 1.503 . S
C1373 C1372 1.370 . S
C1373 C1374 1.403 . S
C1374 C1373 1.403 . S
C1374 C1375 1.404 . S
C1374 C1377 1.539 . S
C1375 C1371 1.408 . S
C1375 C1374 1.404 . S
C1375 H1387 0.930 . S
C1376 C1372 1.524 . S
C1376 H1388 0.956 . S
C1376 H1389 0.961 . S
C1376 H1390 0.961 . S
C1377 C1374 1.539 . S
C1377 H1391 0.958 . S
C1377 H1392 0.961 . S
C1377 H1393 0.960 . S
H1378 C1362 0.931 . S
H1379 C1367 0.929 . S
H1380 C1368 0.960 . S
H1381 C1368 0.962 . S
H1382 C1368 0.960 . S
H1383 C1369 0.961 . S
H1384 C1369 0.961 . S
H1385 C1369 0.961 . S
H1386 C1370 0.931 . S
H1387 C1375 0.930 . S
H1388 C1376 0.956 . S
H1389 C1376 0.961 . S
H1390 C1376 0.961 . S
H1391 C1377 0.958 . S
H1392 C1377 0.961 . S
H1393 C1377 0.960 . S
C1394 C1395 1.391 . S
C1394 C1396 1.394 . S
C1394 H1410 0.931 . S
C1395 C1394 1.391 . S
C1395 C1399 1.376 . S
C1396 C1394 1.394 . S
C1396 C1397 1.369 . S
C1396 C1400 1.531 . S
C1397 C1396 1.369 . S
C1397 C1398 1.410 . S
C1397 C1405 1.503 . S
C1398 C1397 1.410 . S
C1398 C1399 1.392 . S
C1398 C1401 1.511 . S
C1399 C1395 1.376 . S
C1399 C1398 1.392 . S
C1399 H1411 0.929 . S
C1400 C1396 1.531 . S
C1400 H1412 0.960 . S
C1400 H1413 0.962 . S
C1400 H1414 0.960 . S
C1401 C1398 1.511 . S
C1401 H1415 0.961 . S
C1401 H1416 0.961 . S
C1401 H1417 0.961 . S
C1402 C1403 1.370 . S
C1402 C1404 1.363 . S
C1402 H1418 0.931 . S
C1403 C1402 1.370 . S
C1403 C1407 1.408 . S
C1404 C1402 1.363 . S
C1404 C1405 1.370 . S
C1404 C1408 1.524 . S
C1405 C1397 1.503 . S
C1405 C1404 1.370 . S
C1405 C1406 1.403 . S
C1406 C1405 1.403 . S
C1406 C1407 1.404 . S
C1406 C1409 1.539 . S
C1407 C1403 1.408 . S
C1407 C1406 1.404 . S
C1407 H1419 0.930 . S
C1408 C1404 1.524 . S
C1408 H1420 0.956 . S
C1408 H1421 0.961 . S
C1408 H1422 0.961 . S
C1409 C1406 1.539 . S
C1409 H1423 0.958 . S
C1409 H1424 0.961 . S
C1409 H1425 0.960 . S
H1410 C1394 0.931 . S
H1411 C1399 0.929 . S
H1412 C1400 0.960 . S
H1413 C1400 0.962 . S
H1414 C1400 0.960 . S
H1415 C1401 0.961 . S
H1416 C1401 0.961 . S
H1417 C1401 0.961 . S
H1418 C1402 0.931 . S
H1419 C1407 0.930 . S
H1420 C1408 0.956 . S
H1421 C1408 0.961 . S
H1422 C1408 0.961 . S
H1423 C1409 0.958 . S
H1424 C1409 0.961 . S
H1425 C1409 0.960 . S
C1426 C1427 1.391 . S
C1426 C1428 1.394 . S
C1426 H1442 0.931 . S
C1427 C1426 1.391 . S
C1427 C1431 1.376 . S
C1428 C1426 1.394 . S
C1428 C1429 1.369 . S
C1428 C1432 1.531 . S
C1429 C1428 1.369 . S
C1429 C1430 1.410 . S
C1429 C1437 1.503 . S
C1430 C1429 1.410 . S
C1430 C1431 1.392 . S
C1430 C1433 1.511 . S
C1431 C1427 1.376 . S
C1431 C1430 1.392 . S
C1431 H1443 0.929 . S
C1432 C1428 1.531 . S
C1432 H1444 0.960 . S
C1432 H1445 0.962 . S
C1432 H1446 0.960 . S
C1433 C1430 1.511 . S
C1433 H1447 0.961 . S
C1433 H1448 0.961 . S
C1433 H1449 0.961 . S
C1434 C1435 1.370 . S
C1434 C1436 1.363 . S
C1434 H1450 0.931 . S
C1435 C1434 1.370 . S
C1435 C1439 1.408 . S
C1436 C1434 1.363 . S
C1436 C1437 1.370 . S
C1436 C1440 1.524 . S
C1437 C1429 1.503 . S
C1437 C1436 1.370 . S
C1437 C1438 1.403 . S
C1438 C1437 1.403 . S
C1438 C1439 1.404 . S
C1438 C1441 1.539 . S
C1439 C1435 1.408 . S
C1439 C1438 1.404 . S
C1439 H1451 0.930 . S
C1440 C1436 1.524 . S
C1440 H1452 0.956 . S
C1440 H1453 0.961 . S
C1440 H1454 0.961 . S
C1441 C1438 1.539 . S
C1441 H1455 0.958 . S
C1441 H1456 0.961 . S
C1441 H1457 0.960 . S
H1442 C1426 0.931 . S
H1443 C1431 0.929 . S
H1444 C1432 0.960 . S
H1445 C1432 0.962 . S
H1446 C1432 0.960 . S
H1447 C1433 0.961 . S
H1448 C1433 0.961 . S
H1449 C1433 0.961 . S
H1450 C1434 0.931 . S
H1451 C1439 0.930 . S
H1452 C1440 0.956 . S
H1453 C1440 0.961 . S
H1454 C1440 0.961 . S
H1455 C1441 0.958 . S
H1456 C1441 0.961 . S
H1457 C1441 0.960 . S
C1458 C1459 1.391 . S
C1458 C1460 1.394 . S
C1458 H1474 0.931 . S
C1459 C1458 1.391 . S
C1459 C1463 1.376 . S
C1460 C1458 1.394 . S
C1460 C1461 1.369 . S
C1460 C1464 1.531 . S
C1461 C1460 1.369 . S
C1461 C1462 1.410 . S
C1461 C1469 1.503 . S
C1462 C1461 1.410 . S
C1462 C1463 1.392 . S
C1462 C1465 1.511 . S
C1463 C1459 1.376 . S
C1463 C1462 1.392 . S
C1463 H1475 0.929 . S
C1464 C1460 1.531 . S
C1464 H1476 0.960 . S
C1464 H1477 0.962 . S
C1464 H1478 0.960 . S
C1465 C1462 1.511 . S
C1465 H1479 0.961 . S
C1465 H1480 0.961 . S
C1465 H1481 0.961 . S
C1466 C1467 1.370 . S
C1466 C1468 1.363 . S
C1466 H1482 0.931 . S
C1467 C1466 1.370 . S
C1467 C1471 1.408 . S
C1468 C1466 1.363 . S
C1468 C1469 1.370 . S
C1468 C1472 1.524 . S
C1469 C1461 1.503 . S
C1469 C1468 1.370 . S
C1469 C1470 1.403 . S
C1470 C1469 1.403 . S
C1470 C1471 1.404 . S
C1470 C1473 1.539 . S
C1471 C1467 1.408 . S
C1471 C1470 1.404 . S
C1471 H1483 0.930 . S
C1472 C1468 1.524 . S
C1472 H1484 0.956 . S
C1472 H1485 0.961 . S
C1472 H1486 0.961 . S
C1473 C1470 1.539 . S
C1473 H1487 0.958 . S
C1473 H1488 0.961 . S
C1473 H1489 0.960 . S
H1474 C1458 0.931 . S
H1475 C1463 0.929 . S
H1476 C1464 0.960 . S
H1477 C1464 0.962 . S
H1478 C1464 0.960 . S
H1479 C1465 0.961 . S
H1480 C1465 0.961 . S
H1481 C1465 0.961 . S
H1482 C1466 0.931 . S
H1483 C1471 0.930 . S
H1484 C1472 0.956 . S
H1485 C1472 0.961 . S
H1486 C1472 0.961 . S
H1487 C1473 0.958 . S
H1488 C1473 0.961 . S
H1489 C1473 0.960 . S
C1490 C1491 1.391 . S
C1490 C1492 1.394 . S
C1490 H1506 0.931 . S
C1491 C1490 1.391 . S
C1491 C1495 1.376 . S
C1492 C1490 1.394 . S
C1492 C1493 1.369 . S
C1492 C1496 1.531 . S
C1493 C1492 1.369 . S
C1493 C1494 1.410 . S
C1493 C1501 1.503 . S
C1494 C1493 1.410 . S
C1494 C1495 1.392 . S
C1494 C1497 1.511 . S
C1495 C1491 1.376 . S
C1495 C1494 1.392 . S
C1495 H1507 0.929 . S
C1496 C1492 1.531 . S
C1496 H1508 0.960 . S
C1496 H1509 0.962 . S
C1496 H1510 0.960 . S
C1497 C1494 1.511 . S
C1497 H1511 0.961 . S
C1497 H1512 0.961 . S
C1497 H1513 0.961 . S
C1498 C1499 1.370 . S
C1498 C1500 1.363 1_565 S
C1498 H1514 0.931 . S
C1499 C1498 1.370 . S
C1499 C1503 1.408 . S
C1500 C1498 1.363 1_545 S
C1500 C1501 1.370 . S
C1500 C1504 1.524 . S
C1501 C1493 1.503 . S
C1501 C1500 1.370 . S
C1501 C1502 1.403 1_545 S
C1502 C1501 1.403 1_565 S
C1502 C1503 1.404 . S
C1502 C1505 1.541 1_565 S
C1503 C1499 1.408 . S
C1503 C1502 1.404 . S
C1503 H1515 0.930 . S
C1504 C1500 1.524 . S
C1504 H1516 0.956 . S
C1504 H1517 0.961 . S
C1504 H1518 0.961 . S
C1505 C1502 1.541 1_545 S
C1505 H1519 0.956 . S
C1505 H1520 0.941 1_545 S
C1505 H1521 1.003 . S
H1506 C1490 0.931 . S
H1507 C1495 0.929 . S
H1508 C1496 0.960 . S
H1509 C1496 0.962 . S
H1510 C1496 0.960 . S
H1511 C1497 0.961 . S
H1512 C1497 0.961 . S
H1513 C1497 0.961 . S
H1514 C1498 0.931 . S
H1515 C1503 0.930 . S
H1516 C1504 0.956 . S
H1517 C1504 0.961 . S
H1518 C1504 0.961 . S
H1519 C1505 0.956 . S
H1520 C1505 0.941 1_565 S
H1521 C1505 1.003 . S
C1522 C1523 1.391 . S
C1522 C1524 1.394 . S
C1522 H1538 0.931 . S
C1523 C1522 1.391 . S
C1523 C1527 1.376 . S
C1524 C1522 1.394 . S
C1524 C1525 1.369 . S
C1524 C1528 1.531 . S
C1525 C1524 1.369 . S
C1525 C1526 1.410 . S
C1525 C1533 1.503 . S
C1526 C1525 1.410 . S
C1526 C1527 1.392 . S
C1526 C1529 1.511 . S
C1527 C1523 1.376 . S
C1527 C1526 1.392 . S
C1527 H1539 0.929 . S
C1528 C1524 1.531 . S
C1528 H1540 0.960 . S
C1528 H1541 0.962 . S
C1528 H1542 0.960 . S
C1529 C1526 1.511 . S
C1529 H1543 0.961 . S
C1529 H1544 0.961 . S
C1529 H1545 0.961 . S
C1530 C1531 1.370 . S
C1530 C1532 1.370 . S
C1530 H1546 0.931 . S
C1531 C1530 1.370 . S
C1531 C1535 1.408 . S
C1532 C1530 1.370 . S
C1532 C1533 1.366 1_455 S
C1532 C1536 1.522 1_455 S
C1533 C1525 1.503 . S
C1533 C1532 1.366 1_655 S
C1533 C1534 1.403 1_655 S
C1534 C1533 1.403 1_455 S
C1534 C1535 1.404 . S
C1534 C1537 1.539 1_455 S
C1535 C1531 1.408 . S
C1535 C1534 1.404 . S
C1535 H1547 0.930 . S
C1536 C1532 1.522 1_655 S
C1536 H1548 0.956 . S
C1536 H1549 0.961 . S
C1536 H1550 0.961 . S
C1537 C1534 1.539 1_655 S
C1537 H1551 0.958 . S
C1537 H1552 0.961 1_655 S
C1537 H1553 0.960 . S
H1538 C1522 0.931 . S
H1539 C1527 0.929 . S
H1540 C1528 0.960 . S
H1541 C1528 0.962 . S
H1542 C1528 0.960 . S
H1543 C1529 0.961 . S
H1544 C1529 0.961 . S
H1545 C1529 0.961 . S
H1546 C1530 0.931 . S
H1547 C1535 0.930 . S
H1548 C1536 0.956 . S
H1549 C1536 0.961 . S
H1550 C1536 0.961 . S
H1551 C1537 0.958 . S
H1552 C1537 0.961 1_455 S
H1553 C1537 0.960 . S
C1554 C1555 1.391 . S
C1554 C1556 1.394 . S
C1554 H1570 0.931 . S
C1555 C1554 1.391 . S
C1555 C1559 1.376 . S
C1556 C1554 1.394 . S
C1556 C1557 1.369 . S
C1556 C1560 1.531 . S
C1557 C1556 1.369 . S
C1557 C1558 1.410 . S
C1557 C1565 1.503 . S
C1558 C1557 1.410 . S
C1558 C1559 1.392 . S
C1558 C1561 1.511 . S
C1559 C1555 1.376 . S
C1559 C1558 1.392 . S
C1559 H1571 0.929 . S
C1560 C1556 1.531 . S
C1560 H1572 0.960 . S
C1560 H1573 0.962 . S
C1560 H1574 0.960 . S
C1561 C1558 1.511 . S
C1561 H1575 0.961 . S
C1561 H1576 0.961 . S
C1561 H1577 0.961 . S
C1562 C1563 1.370 . S
C1562 C1564 1.363 . S
C1562 H1578 0.931 . S
C1563 C1562 1.370 . S
C1563 C1567 1.408 . S
C1564 C1562 1.363 . S
C1564 C1565 1.370 . S
C1564 C1568 1.524 . S
C1565 C1557 1.503 . S
C1565 C1564 1.370 . S
C1565 C1566 1.403 . S
C1566 C1565 1.403 . S
C1566 C1567 1.404 . S
C1566 C1569 1.539 . S
C1567 C1563 1.408 . S
C1567 C1566 1.404 . S
C1567 H1579 0.930 . S
C1568 C1564 1.524 . S
C1568 H1580 0.956 . S
C1568 H1581 0.961 . S
C1568 H1582 0.961 . S
C1569 C1566 1.539 . S
C1569 H1583 0.958 . S
C1569 H1584 0.961 . S
C1569 H1585 0.960 . S
H1570 C1554 0.931 . S
H1571 C1559 0.929 . S
H1572 C1560 0.960 . S
H1573 C1560 0.962 . S
H1574 C1560 0.960 . S
H1575 C1561 0.961 . S
H1576 C1561 0.961 . S
H1577 C1561 0.961 . S
H1578 C1562 0.931 . S
H1579 C1567 0.930 . S
H1580 C1568 0.956 . S
H1581 C1568 0.961 . S
H1582 C1568 0.961 . S
H1583 C1569 0.958 . S
H1584 C1569 0.961 . S
H1585 C1569 0.960 . S
C1586 C1587 1.391 . S
C1586 C1588 1.394 . S
C1586 H1602 0.931 . S
C1587 C1586 1.391 . S
C1587 C1591 1.376 . S
C1588 C1586 1.394 . S
C1588 C1589 1.369 1_545 S
C1588 C1592 1.531 1_545 S
C1589 C1588 1.369 1_565 S
C1589 C1590 1.437 . S
C1589 C1597 1.503 . S
C1590 C1589 1.437 . S
C1590 C1591 1.360 1_565 S
C1590 C1593 1.516 . S
C1591 C1587 1.376 . S
C1591 C1590 1.360 1_545 S
C1591 H1603 0.929 . S
C1592 C1588 1.531 1_565 S
C1592 H1604 0.960 . S
C1592 H1605 0.962 . S
C1592 H1606 0.960 1_565 S
C1593 C1590 1.516 . S
C1593 H1607 0.961 . S
C1593 H1608 0.961 . S
C1593 H1609 0.961 . S
C1594 C1595 1.370 . S
C1594 C1596 1.363 . S
C1594 H1610 0.931 . S
C1595 C1594 1.370 . S
C1595 C1599 1.408 . S
C1596 C1594 1.363 . S
C1596 C1597 1.370 . S
C1596 C1600 1.524 . S
C1597 C1589 1.503 . S
C1597 C1596 1.370 . S
C1597 C1598 1.403 . S
C1598 C1597 1.403 . S
C1598 C1599 1.404 . S
C1598 C1601 1.539 . S
C1599 C1595 1.408 . S
C1599 C1598 1.404 . S
C1599 H1611 0.930 . S
C1600 C1596 1.524 . S
C1600 H1612 0.956 . S
C1600 H1613 0.961 . S
C1600 H1614 0.961 . S
C1601 C1598 1.539 . S
C1601 H1615 0.958 . S
C1601 H1616 0.961 . S
C1601 H1617 0.960 . S
H1602 C1586 0.931 . S
H1603 C1591 0.929 . S
H1604 C1592 0.960 . S
H1605 C1592 0.962 . S
H1606 C1592 0.960 1_545 S
H1607 C1593 0.961 . S
H1608 C1593 0.961 . S
H1609 C1593 0.961 . S
H1610 C1594 0.931 . S
H1611 C1599 0.930 . S
H1612 C1600 0.956 . S
H1613 C1600 0.961 . S
H1614 C1600 0.961 . S
H1615 C1601 0.958 . S
H1616 C1601 0.961 . S
H1617 C1601 0.960 . S
C1618 C1619 1.391 . S
C1618 C1620 1.394 . S
C1618 H1634 0.931 . S
C1619 C1618 1.391 . S
C1619 C1623 1.376 . S
C1620 C1618 1.394 . S
C1620 C1621 1.369 . S
C1620 C1624 1.531 . S
C1621 C1620 1.369 . S
C1621 C1622 1.410 . S
C1621 C1629 1.503 . S
C1622 C1621 1.410 . S
C1622 C1623 1.392 . S
C1622 C1625 1.511 . S
C1623 C1619 1.376 . S
C1623 C1622 1.392 . S
C1623 H1635 0.929 . S
C1624 C1620 1.531 . S
C1624 H1636 0.960 . S
C1624 H1637 0.962 . S
C1624 H1638 0.960 . S
C1625 C1622 1.511 . S
C1625 H1639 0.961 . S
C1625 H1640 0.961 . S
C1625 H1641 0.961 . S
C1626 C1627 1.370 . S
C1626 C1628 1.363 . S
C1626 H1642 0.931 . S
C1627 C1626 1.370 . S
C1627 C1631 1.408 . S
C1628 C1626 1.363 . S
C1628 C1629 1.370 1_655 S
C1628 C1632 1.524 1_655 S
C1629 C1621 1.503 . S
C1629 C1628 1.370 1_455 S
C1629 C1630 1.403 1_455 S
C1630 C1629 1.403 1_655 S
C1630 C1631 1.404 . S
C1630 C1633 1.539 1_655 S
C1631 C1627 1.408 . S
C1631 C1630 1.404 . S
C1631 H1643 0.930 . S
C1632 C1628 1.524 1_455 S
C1632 H1644 0.956 . S
C1632 H1645 0.961 . S
C1632 H1646 0.961 1_455 S
C1633 C1630 1.539 1_455 S
C1633 H1647 0.958 . S
C1633 H1648 0.961 . S
C1633 H1649 0.960 . S
H1634 C1618 0.931 . S
H1635 C1623 0.929 . S
H1636 C1624 0.960 . S
H1637 C1624 0.962 . S
H1638 C1624 0.960 . S
H1639 C1625 0.961 . S
H1640 C1625 0.961 . S
H1641 C1625 0.961 . S
H1642 C1626 0.931 . S
H1643 C1631 0.930 . S
H1644 C1632 0.956 . S
H1645 C1632 0.961 . S
H1646 C1632 0.961 1_655 S
H1647 C1633 0.958 . S
H1648 C1633 0.961 . S
H1649 C1633 0.960 . S
C1650 C1651 1.391 . S
C1650 C1652 1.394 . S
C1650 H1666 0.931 . S
C1651 C1650 1.391 . S
C1651 C1655 1.376 . S
C1652 C1650 1.394 . S
C1652 C1653 1.369 . S
C1652 C1656 1.531 . S
C1653 C1652 1.369 . S
C1653 C1654 1.410 . S
C1653 C1661 1.503 . S
C1654 C1653 1.410 . S
C1654 C1655 1.392 . S
C1654 C1657 1.511 . S
C1655 C1651 1.376 . S
C1655 C1654 1.392 . S
C1655 H1667 0.929 . S
C1656 C1652 1.531 . S
C1656 H1668 0.960 . S
C1656 H1669 0.962 . S
C1656 H1670 0.960 . S
C1657 C1654 1.511 . S
C1657 H1671 0.961 . S
C1657 H1672 0.961 . S
C1657 H1673 0.961 . S
C1658 C1659 1.370 . S
C1658 C1660 1.363 . S
C1658 H1674 0.931 . S
C1659 C1658 1.370 . S
C1659 C1663 1.408 . S
C1660 C1658 1.363 . S
C1660 C1661 1.370 . S
C1660 C1664 1.524 . S
C1661 C1653 1.503 . S
C1661 C1660 1.370 . S
C1661 C1662 1.403 . S
C1662 C1661 1.403 . S
C1662 C1663 1.404 . S
C1662 C1665 1.539 . S
C1663 C1659 1.408 . S
C1663 C1662 1.404 . S
C1663 H1675 0.930 . S
C1664 C1660 1.524 . S
C1664 H1676 0.956 . S
C1664 H1677 0.961 . S
C1664 H1678 0.961 . S
C1665 C1662 1.539 . S
C1665 H1679 0.958 . S
C1665 H1680 0.961 . S
C1665 H1681 0.960 . S
H1666 C1650 0.931 . S
H1667 C1655 0.929 . S
H1668 C1656 0.960 . S
H1669 C1656 0.962 . S
H1670 C1656 0.960 . S
H1671 C1657 0.961 . S
H1672 C1657 0.961 . S
H1673 C1657 0.961 . S
H1674 C1658 0.931 . S
H1675 C1663 0.930 . S
H1676 C1664 0.956 . S
H1677 C1664 0.961 . S
H1678 C1664 0.961 . S
H1679 C1665 0.958 . S
H1680 C1665 0.961 . S
H1681 C1665 0.960 . S
C1682 C1683 1.391 . S
C1682 C1684 1.394 . S
C1682 H1698 0.931 . S
C1683 C1682 1.391 . S
C1683 C1687 1.376 . S
C1684 C1682 1.394 . S
C1684 C1685 1.369 . S
C1684 C1688 1.531 . S
C1685 C1684 1.369 . S
C1685 C1686 1.410 . S
C1685 C1693 1.503 . S
C1686 C1685 1.410 . S
C1686 C1687 1.392 . S
C1686 C1689 1.511 . S
C1687 C1683 1.376 . S
C1687 C1686 1.392 . S
C1687 H1699 0.929 . S
C1688 C1684 1.531 . S
C1688 H1700 0.960 . S
C1688 H1701 0.962 . S
C1688 H1702 0.960 . S
C1689 C1686 1.511 . S
C1689 H1703 0.961 . S
C1689 H1704 0.961 . S
C1689 H1705 0.961 . S
C1690 C1691 1.370 . S
C1690 C1692 1.363 . S
C1690 H1706 0.931 . S
C1691 C1690 1.370 . S
C1691 C1695 1.408 . S
C1692 C1690 1.363 . S
C1692 C1693 1.370 . S
C1692 C1696 1.524 . S
C1693 C1685 1.503 . S
C1693 C1692 1.370 . S
C1693 C1694 1.403 . S
C1694 C1693 1.403 . S
C1694 C1695 1.404 . S
C1694 C1697 1.539 . S
C1695 C1691 1.408 . S
C1695 C1694 1.404 . S
C1695 H1707 0.930 . S
C1696 C1692 1.524 . S
C1696 H1708 0.956 . S
C1696 H1709 0.961 . S
C1696 H1710 0.961 . S
C1697 C1694 1.539 . S
C1697 H1711 0.958 . S
C1697 H1712 0.961 . S
C1697 H1713 0.960 . S
H1698 C1682 0.931 . S
H1699 C1687 0.929 . S
H1700 C1688 0.960 . S
H1701 C1688 0.962 . S
H1702 C1688 0.960 . S
H1703 C1689 0.961 . S
H1704 C1689 0.961 . S
H1705 C1689 0.961 . S
H1706 C1690 0.931 . S
H1707 C1695 0.930 . S
H1708 C1696 0.956 . S
H1709 C1696 0.961 . S
H1710 C1696 0.961 . S
H1711 C1697 0.958 . S
H1712 C1697 0.961 . S
H1713 C1697 0.960 . S
C1714 C1715 1.391 . S
C1714 C1716 1.394 . S
C1714 H1730 0.931 . S
C1715 C1714 1.391 . S
C1715 C1719 1.376 . S
C1716 C1714 1.394 . S
C1716 C1717 1.369 . S
C1716 C1720 1.531 . S
C1717 C1716 1.369 . S
C1717 C1718 1.410 . S
C1717 C1725 1.503 . S
C1718 C1717 1.410 . S
C1718 C1719 1.392 . S
C1718 C1721 1.511 . S
C1719 C1715 1.376 . S
C1719 C1718 1.392 . S
C1719 H1731 0.929 . S
C1720 C1716 1.531 . S
C1720 H1732 0.960 . S
C1720 H1733 0.962 . S
C1720 H1734 0.960 . S
C1721 C1718 1.511 . S
C1721 H1735 0.961 . S
C1721 H1736 0.961 . S
C1721 H1737 0.961 . S
C1722 C1723 1.370 . S
C1722 C1724 1.363 . S
C1722 H1738 0.931 . S
C1723 C1722 1.370 . S
C1723 C1727 1.408 . S
C1724 C1722 1.363 . S
C1724 C1725 1.370 . S
C1724 C1728 1.524 . S
C1725 C1717 1.503 . S
C1725 C1724 1.370 . S
C1725 C1726 1.403 . S
C1726 C1725 1.403 . S
C1726 C1727 1.404 . S
C1726 C1729 1.539 . S
C1727 C1723 1.408 . S
C1727 C1726 1.404 . S
C1727 H1739 0.930 . S
C1728 C1724 1.524 . S
C1728 H1740 0.956 . S
C1728 H1741 0.961 . S
C1728 H1742 0.961 . S
C1729 C1726 1.539 . S
C1729 H1743 0.958 . S
C1729 H1744 0.961 . S
C1729 H1745 0.960 . S
H1730 C1714 0.931 . S
H1731 C1719 0.929 . S
H1732 C1720 0.960 . S
H1733 C1720 0.962 . S
H1734 C1720 0.960 . S
H1735 C1721 0.961 . S
H1736 C1721 0.961 . S
H1737 C1721 0.961 . S
H1738 C1722 0.931 . S
H1739 C1727 0.930 . S
H1740 C1728 0.956 . S
H1741 C1728 0.961 . S
H1742 C1728 0.961 . S
H1743 C1729 0.958 . S
H1744 C1729 0.961 . S
H1745 C1729 0.960 . S
C1746 C1747 1.391 . S
C1746 C1748 1.394 . S
C1746 H1762 0.931 . S
C1747 C1746 1.391 . S
C1747 C1751 1.376 . S
C1748 C1746 1.394 . S
C1748 C1749 1.369 . S
C1748 C1752 1.531 . S
C1749 C1748 1.369 . S
C1749 C1750 1.410 . S
C1749 C1757 1.503 . S
C1750 C1749 1.410 . S
C1750 C1751 1.392 . S
C1750 C1753 1.511 . S
C1751 C1747 1.376 . S
C1751 C1750 1.392 . S
C1751 H1763 0.929 . S
C1752 C1748 1.531 . S
C1752 H1764 0.960 . S
C1752 H1765 0.962 . S
C1752 H1766 0.960 . S
C1753 C1750 1.511 . S
C1753 H1767 0.961 . S
C1753 H1768 0.961 . S
C1753 H1769 0.961 . S
C1754 C1755 1.370 . S
C1754 C1756 1.363 . S
C1754 H1770 0.931 . S
C1755 C1754 1.370 . S
C1755 C1759 1.408 . S
C1756 C1754 1.363 . S
C1756 C1757 1.370 . S
C1756 C1760 1.524 . S
C1757 C1749 1.503 . S
C1757 C1756 1.370 . S
C1757 C1758 1.403 . S
C1758 C1757 1.403 . S
C1758 C1759 1.404 . S
C1758 C1761 1.539 . S
C1759 C1755 1.408 . S
C1759 C1758 1.404 . S
C1759 H1771 0.930 . S
C1760 C1756 1.524 . S
C1760 H1772 0.956 . S
C1760 H1773 0.961 . S
C1760 H1774 0.961 . S
C1761 C1758 1.539 . S
C1761 H1775 0.958 . S
C1761 H1776 0.961 . S
C1761 H1777 0.960 . S
H1762 C1746 0.931 . S
H1763 C1751 0.929 . S
H1764 C1752 0.960 . S
H1765 C1752 0.962 . S
H1766 C1752 0.960 . S
H1767 C1753 0.961 . S
H1768 C1753 0.961 . S
H1769 C1753 0.961 . S
H1770 C1754 0.931 . S
H1771 C1759 0.930 . S
H1772 C1760 0.956 . S
H1773 C1760 0.961 . S
H1774 C1760 0.961 . S
H1775 C1761 0.958 . S
H1776 C1761 0.961 . S
H1777 C1761 0.960 . S
C1778 C1779 1.391 . S
C1778 C1780 1.394 . S
C1778 H1794 0.931 . S
C1779 C1778 1.391 . S
C1779 C1783 1.376 . S
C1780 C1778 1.394 . S
C1780 C1781 1.369 . S
C1780 C1784 1.531 . S
C1781 C1780 1.369 . S
C1781 C1782 1.410 . S
C1781 C1789 1.503 . S
C1782 C1781 1.410 . S
C1782 C1783 1.392 . S
C1782 C1785 1.511 . S
C1783 C1779 1.376 . S
C1783 C1782 1.392 . S
C1783 H1795 0.929 . S
C1784 C1780 1.531 . S
C1784 H1796 0.960 . S
C1784 H1797 0.962 . S
C1784 H1798 0.960 . S
C1785 C1782 1.511 . S
C1785 H1799 0.961 . S
C1785 H1800 0.961 . S
C1785 H1801 0.961 . S
C1786 C1787 1.370 . S
C1786 C1788 1.363 . S
C1786 H1802 0.931 . S
C1787 C1786 1.370 . S
C1787 C1791 1.408 . S
C1788 C1786 1.363 . S
C1788 C1789 1.370 . S
C1788 C1792 1.524 . S
C1789 C1781 1.503 . S
C1789 C1788 1.370 . S
C1789 C1790 1.403 . S
C1790 C1789 1.403 . S
C1790 C1791 1.404 . S
C1790 C1793 1.539 . S
C1791 C1787 1.408 . S
C1791 C1790 1.404 . S
C1791 H1803 0.930 . S
C1792 C1788 1.524 . S
C1792 H1804 0.956 . S
C1792 H1805 0.961 . S
C1792 H1806 0.961 . S
C1793 C1790 1.539 . S
C1793 H1807 0.958 . S
C1793 H1808 0.961 . S
C1793 H1809 0.960 . S
H1794 C1778 0.931 . S
H1795 C1783 0.929 . S
H1796 C1784 0.960 . S
H1797 C1784 0.962 . S
H1798 C1784 0.960 . S
H1799 C1785 0.961 . S
H1800 C1785 0.961 . S
H1801 C1785 0.961 . S
H1802 C1786 0.931 . S
H1803 C1791 0.930 . S
H1804 C1792 0.956 . S
H1805 C1792 0.961 . S
H1806 C1792 0.961 . S
H1807 C1793 0.958 . S
H1808 C1793 0.961 . S
H1809 C1793 0.960 . S
C1810 C1811 1.391 . S
C1810 C1812 1.394 . S
C1810 H1826 0.931 . S
C1811 C1810 1.391 . S
C1811 C1815 1.376 . S
C1812 C1810 1.394 . S
C1812 C1813 1.369 . S
C1812 C1816 1.531 . S
C1813 C1812 1.369 . S
C1813 C1814 1.410 . S
C1813 C1821 1.503 . S
C1814 C1813 1.410 . S
C1814 C1815 1.392 . S
C1814 C1817 1.511 . S
C1815 C1811 1.376 . S
C1815 C1814 1.392 . S
C1815 H1827 0.929 . S
C1816 C1812 1.531 . S
C1816 H1828 0.960 . S
C1816 H1829 0.962 . S
C1816 H1830 0.960 . S
C1817 C1814 1.511 . S
C1817 H1831 0.961 . S
C1817 H1832 0.961 . S
C1817 H1833 0.961 . S
C1818 C1819 1.370 . S
C1818 C1820 1.363 . S
C1818 H1834 0.931 . S
C1819 C1818 1.370 . S
C1819 C1823 1.408 . S
C1820 C1818 1.363 . S
C1820 C1821 1.370 . S
C1820 C1824 1.524 . S
C1821 C1813 1.503 . S
C1821 C1820 1.370 . S
C1821 C1822 1.403 . S
C1822 C1821 1.403 . S
C1822 C1823 1.404 . S
C1822 C1825 1.539 . S
C1823 C1819 1.408 . S
C1823 C1822 1.404 . S
C1823 H1835 0.930 . S
C1824 C1820 1.524 . S
C1824 H1836 0.956 . S
C1824 H1837 0.961 . S
C1824 H1838 0.961 . S
C1825 C1822 1.539 . S
C1825 H1839 0.958 . S
C1825 H1840 0.961 . S
C1825 H1841 0.960 . S
H1826 C1810 0.931 . S
H1827 C1815 0.929 . S
H1828 C1816 0.960 . S
H1829 C1816 0.962 . S
H1830 C1816 0.960 . S
H1831 C1817 0.961 . S
H1832 C1817 0.961 . S
H1833 C1817 0.961 . S
H1834 C1818 0.931 . S
H1835 C1823 0.930 . S
H1836 C1824 0.956 . S
H1837 C1824 0.961 . S
H1838 C1824 0.961 . S
H1839 C1825 0.958 . S
H1840 C1825 0.961 . S
H1841 C1825 0.960 . S
C1842 C1843 1.391 . S
C1842 C1844 1.394 . S
C1842 H1858 0.931 . S
C1843 C1842 1.391 . S
C1843 C1847 1.376 . S
C1844 C1842 1.394 . S
C1844 C1845 1.369 . S
C1844 C1848 1.531 . S
C1845 C1844 1.369 . S
C1845 C1846 1.410 . S
C1845 C1853 1.503 . S
C1846 C1845 1.410 . S
C1846 C1847 1.392 . S
C1846 C1849 1.511 . S
C1847 C1843 1.376 . S
C1847 C1846 1.392 . S
C1847 H1859 0.929 . S
C1848 C1844 1.531 . S
C1848 H1860 0.960 . S
C1848 H1861 0.962 . S
C1848 H1862 0.960 . S
C1849 C1846 1.511 . S
C1849 H1863 0.961 . S
C1849 H1864 0.961 . S
C1849 H1865 0.961 . S
C1850 C1851 1.370 . S
C1850 C1852 1.363 . S
C1850 H1866 0.931 . S
C1851 C1850 1.370 . S
C1851 C1855 1.408 . S
C1852 C1850 1.363 . S
C1852 C1853 1.370 . S
C1852 C1856 1.524 . S
C1853 C1845 1.503 . S
C1853 C1852 1.370 . S
C1853 C1854 1.403 . S
C1854 C1853 1.403 . S
C1854 C1855 1.404 . S
C1854 C1857 1.539 . S
C1855 C1851 1.408 . S
C1855 C1854 1.404 . S
C1855 H1867 0.930 . S
C1856 C1852 1.524 . S
C1856 H1868 0.956 . S
C1856 H1869 0.961 . S
C1856 H1870 0.961 . S
C1857 C1854 1.539 . S
C1857 H1871 0.958 . S
C1857 H1872 0.961 . S
C1857 H1873 0.960 . S
H1858 C1842 0.931 . S
H1859 C1847 0.929 . S
H1860 C1848 0.960 . S
H1861 C1848 0.962 . S
H1862 C1848 0.960 . S
H1863 C1849 0.961 . S
H1864 C1849 0.961 . S
H1865 C1849 0.961 . S
H1866 C1850 0.931 . S
H1867 C1855 0.930 . S
H1868 C1856 0.956 . S
H1869 C1856 0.961 . S
H1870 C1856 0.961 . S
H1871 C1857 0.958 . S
H1872 C1857 0.961 . S
H1873 C1857 0.960 . S
C1874 C1875 1.391 . S
C1874 C1876 1.394 . S
C1874 H1890 0.931 . S
C1875 C1874 1.391 . S
C1875 C1879 1.376 . S
C1876 C1874 1.394 . S
C1876 C1877 1.369 . S
C1876 C1880 1.531 . S
C1877 C1876 1.369 . S
C1877 C1878 1.410 . S
C1877 C1885 1.503 . S
C1878 C1877 1.410 . S
C1878 C1879 1.392 . S
C1878 C1881 1.511 . S
C1879 C1875 1.376 . S
C1879 C1878 1.392 . S
C1879 H1891 0.929 . S
C1880 C1876 1.531 . S
C1880 H1892 0.960 . S
C1880 H1893 0.962 . S
C1880 H1894 0.960 . S
C1881 C1878 1.511 . S
C1881 H1895 0.961 . S
C1881 H1896 0.961 . S
C1881 H1897 0.961 . S
C1882 C1883 1.370 . S
C1882 C1884 1.363 . S
C1882 H1898 0.931 . S
C1883 C1882 1.370 . S
C1883 C1887 1.408 . S
C1884 C1882 1.363 . S
C1884 C1885 1.370 . S
C1884 C1888 1.524 . S
C1885 C1877 1.503 . S
C1885 C1884 1.370 . S
C1885 C1886 1.403 . S
C1886 C1885 1.403 . S
C1886 C1887 1.404 . S
C1886 C1889 1.539 . S
C1887 C1883 1.408 . S
C1887 C1886 1.404 . S
C1887 H1899 0.930 . S
C1888 C1884 1.524 . S
C1888 H1900 0.956 . S
C1888 H1901 0.961 . S
C1888 H1902 0.961 . S
C1889 C1886 1.539 . S
C1889 H1903 0.958 . S
C1889 H1904 0.961 . S
C1889 H1905 0.960 . S
H1890 C1874 0.931 . S
H1891 C1879 0.929 . S
H1892 C1880 0.960 . S
H1893 C1880 0.962 . S
H1894 C1880 0.960 . S
H1895 C1881 0.961 . S
H1896 C1881 0.961 . S
H1897 C1881 0.961 . S
H1898 C1882 0.931 . S
H1899 C1887 0.930 . S
H1900 C1888 0.956 . S
H1901 C1888 0.961 . S
H1902 C1888 0.961 . S
H1903 C1889 0.958 . S
H1904 C1889 0.961 . S
H1905 C1889 0.960 . S
C1906 C1907 1.391 . S
C1906 C1908 1.394 . S
C1906 H1922 0.931 . S
C1907 C1906 1.391 . S
C1907 C1911 1.376 . S
C1908 C1906 1.394 . S
C1908 C1909 1.369 . S
C1908 C1912 1.531 . S
C1909 C1908 1.369 . S
C1909 C1910 1.410 . S
C1909 C1917 1.503 . S
C1910 C1909 1.410 . S
C1910 C1911 1.392 . S
C1910 C1913 1.511 . S
C1911 C1907 1.376 . S
C1911 C1910 1.392 . S
C1911 H1923 0.929 . S
C1912 C1908 1.531 . S
C1912 H1924 0.960 . S
C1912 H1925 0.962 . S
C1912 H1926 0.960 . S
C1913 C1910 1.511 . S
C1913 H1927 0.961 . S
C1913 H1928 0.961 . S
C1913 H1929 0.961 . S
C1914 C1915 1.370 . S
C1914 C1916 1.363 . S
C1914 H1930 0.931 . S
C1915 C1914 1.370 . S
C1915 C1919 1.408 . S
C1916 C1914 1.363 . S
C1916 C1917 1.370 . S
C1916 C1920 1.524 . S
C1917 C1909 1.503 . S
C1917 C1916 1.370 . S
C1917 C1918 1.403 . S
C1918 C1917 1.403 . S
C1918 C1919 1.404 . S
C1918 C1921 1.539 . S
C1919 C1915 1.408 . S
C1919 C1918 1.404 . S
C1919 H1931 0.930 . S
C1920 C1916 1.524 . S
C1920 H1932 0.956 . S
C1920 H1933 0.961 . S
C1920 H1934 0.961 . S
C1921 C1918 1.539 . S
C1921 H1935 0.958 . S
C1921 H1936 0.961 . S
C1921 H1937 0.960 . S
H1922 C1906 0.931 . S
H1923 C1911 0.929 . S
H1924 C1912 0.960 . S
H1925 C1912 0.962 . S
H1926 C1912 0.960 . S
H1927 C1913 0.961 . S
H1928 C1913 0.961 . S
H1929 C1913 0.961 . S
H1930 C1914 0.931 . S
H1931 C1919 0.930 . S
H1932 C1920 0.956 . S
H1933 C1920 0.961 . S
H1934 C1920 0.961 . S
H1935 C1921 0.958 . S
H1936 C1921 0.961 . S
H1937 C1921 0.960 . S
C1938 C1939 1.391 . S
C1938 C1940 1.394 . S
C1938 H1954 0.931 . S
C1939 C1938 1.391 . S
C1939 C1943 1.376 . S
C1940 C1938 1.394 . S
C1940 C1941 1.369 . S
C1940 C1944 1.531 . S
C1941 C1940 1.369 . S
C1941 C1942 1.410 . S
C1941 C1949 1.503 . S
C1942 C1941 1.410 . S
C1942 C1943 1.392 . S
C1942 C1945 1.511 . S
C1943 C1939 1.376 . S
C1943 C1942 1.392 . S
C1943 H1955 0.929 . S
C1944 C1940 1.531 . S
C1944 H1956 0.960 . S
C1944 H1957 0.962 . S
C1944 H1958 0.960 . S
C1945 C1942 1.511 . S
C1945 H1959 0.961 . S
C1945 H1960 0.961 . S
C1945 H1961 0.961 . S
C1946 C1947 1.370 . S
C1946 C1948 1.363 . S
C1946 H1962 0.931 . S
C1947 C1946 1.370 . S
C1947 C1951 1.408 . S
C1948 C1946 1.363 . S
C1948 C1949 1.370 . S
C1948 C1952 1.524 . S
C1949 C1941 1.503 . S
C1949 C1948 1.370 . S
C1949 C1950 1.403 . S
C1950 C1949 1.403 . S
C1950 C1951 1.404 . S
C1950 C1953 1.539 . S
C1951 C1947 1.408 . S
C1951 C1950 1.404 . S
C1951 H1963 0.930 . S
C1952 C1948 1.524 . S
C1952 H1964 0.956 . S
C1952 H1965 0.961 . S
C1952 H1966 0.961 . S
C1953 C1950 1.539 . S
C1953 H1967 0.958 . S
C1953 H1968 0.961 . S
C1953 H1969 0.960 . S
H1954 C1938 0.931 . S
H1955 C1943 0.929 . S
H1956 C1944 0.960 . S
H1957 C1944 0.962 . S
H1958 C1944 0.960 . S
H1959 C1945 0.961 . S
H1960 C1945 0.961 . S
H1961 C1945 0.961 . S
H1962 C1946 0.931 . S
H1963 C1951 0.930 . S
H1964 C1952 0.956 . S
H1965 C1952 0.961 . S
H1966 C1952 0.961 . S
H1967 C1953 0.958 . S
H1968 C1953 0.961 . S
H1969 C1953 0.960 . S
C1970 C1971 1.391 . S
C1970 C1972 1.394 . S
C1970 H1986 0.931 . S
C1971 C1970 1.391 . S
C1971 C1975 1.376 . S
C1972 C1970 1.394 . S
C1972 C1973 1.369 . S
C1972 C1976 1.531 . S
C1973 C1972 1.369 . S
C1973 C1974 1.410 . S
C1973 C1981 1.503 . S
C1974 C1973 1.410 . S
C1974 C1975 1.392 . S
C1974 C1977 1.511 . S
C1975 C1971 1.376 . S
C1975 C1974 1.392 . S
C1975 H1987 0.929 . S
C1976 C1972 1.531 . S
C1976 H1988 0.960 . S
C1976 H1989 0.962 . S
C1976 H1990 0.960 . S
C1977 C1974 1.511 . S
C1977 H1991 0.961 . S
C1977 H1992 0.961 . S
C1977 H1993 0.961 . S
C1978 C1979 1.370 . S
C1978 C1980 1.363 . S
C1978 H1994 0.931 . S
C1979 C1978 1.370 . S
C1979 C1983 1.408 . S
C1980 C1978 1.363 . S
C1980 C1981 1.370 . S
C1980 C1984 1.524 . S
C1981 C1973 1.503 . S
C1981 C1980 1.370 . S
C1981 C1982 1.403 . S
C1982 C1981 1.403 . S
C1982 C1983 1.404 . S
C1982 C1985 1.539 . S
C1983 C1979 1.408 . S
C1983 C1982 1.404 . S
C1983 H1995 0.930 . S
C1984 C1980 1.524 . S
C1984 H1996 0.956 . S
C1984 H1997 0.961 . S
C1984 H1998 0.961 . S
C1985 C1982 1.539 . S
C1985 H1999 0.958 . S
C1985 H2000 0.961 . S
C1985 H2001 0.960 . S
H1986 C1970 0.931 . S
H1987 C1975 0.929 . S
H1988 C1976 0.960 . S
H1989 C1976 0.962 . S
H1990 C1976 0.960 . S
H1991 C1977 0.961 . S
H1992 C1977 0.961 . S
H1993 C1977 0.961 . S
H1994 C1978 0.931 . S
H1995 C1983 0.930 . S
H1996 C1984 0.956 . S
H1997 C1984 0.961 . S
H1998 C1984 0.961 . S
H1999 C1985 0.958 . S
H2000 C1985 0.961 . S
H2001 C1985 0.960 . S
C2002 C2003 1.391 . S
C2002 C2004 1.394 . S
C2002 H2018 0.931 . S
C2003 C2002 1.391 . S
C2003 C2007 1.376 . S
C2004 C2002 1.394 . S
C2004 C2005 1.369 . S
C2004 C2008 1.531 . S
C2005 C2004 1.369 . S
C2005 C2006 1.410 . S
C2005 C2013 1.503 . S
C2006 C2005 1.410 . S
C2006 C2007 1.392 . S
C2006 C2009 1.511 . S
C2007 C2003 1.376 . S
C2007 C2006 1.392 . S
C2007 H2019 0.929 . S
C2008 C2004 1.531 . S
C2008 H2020 0.960 . S
C2008 H2021 0.962 . S
C2008 H2022 0.960 . S
C2009 C2006 1.511 . S
C2009 H2023 0.961 . S
C2009 H2024 0.961 . S
C2009 H2025 0.961 . S
C2010 C2011 1.370 . S
C2010 C2012 1.363 . S
C2010 H2026 0.931 . S
C2011 C2010 1.370 . S
C2011 C2015 1.408 . S
C2012 C2010 1.363 . S
C2012 C2013 1.370 . S
C2012 C2016 1.524 . S
C2013 C2005 1.503 . S
C2013 C2012 1.370 . S
C2013 C2014 1.403 . S
C2014 C2013 1.403 . S
C2014 C2015 1.404 . S
C2014 C2017 1.539 . S
C2015 C2011 1.408 . S
C2015 C2014 1.404 . S
C2015 H2027 0.930 . S
C2016 C2012 1.524 . S
C2016 H2028 0.956 . S
C2016 H2029 0.961 . S
C2016 H2030 0.961 . S
C2017 C2014 1.539 . S
C2017 H2031 0.958 . S
C2017 H2032 0.961 . S
C2017 H2033 0.960 . S
H2018 C2002 0.931 . S
H2019 C2007 0.929 . S
H2020 C2008 0.960 . S
H2021 C2008 0.962 . S
H2022 C2008 0.960 . S
H2023 C2009 0.961 . S
H2024 C2009 0.961 . S
H2025 C2009 0.961 . S
H2026 C2010 0.931 . S
H2027 C2015 0.930 . S
H2028 C2016 0.956 . S
H2029 C2016 0.961 . S
H2030 C2016 0.961 . S
H2031 C2017 0.958 . S
H2032 C2017 0.961 . S
H2033 C2017 0.960 . S
C595 N302 0.848 . S
C603 N5 0.848 . S
C627 N335 0.919 . S
C635 N38 0.869 . S
C659 N368 0.921 . S
C667 N71 0.864 . S
C691 N104 0.847 . S
C699 N401 0.890 . S
C723 N434 0.810 . S
C731 N137 0.877 . S
C755 N467 0.899 . S
C763 N170 0.883 . S
C787 N203 0.907 . S
C795 N500 0.848 . S
C819 N533 0.810 . S
C827 N236 0.876 . S
C851 N566 0.849 . S
C859 N269 0.848 . S
C883 C589 1.865 . S
C891 C28 1.863 . S
C915 C523 1.867 . S
C923 C61 1.864 . S
C947 C94 1.867 . S
C955 C556 1.868 . S
C979 C259 1.854 . S
C987 C127 1.865 . S
C1011 C292 1.854 . S
C1019 C160 1.865 . S
C1043 C193 1.868 . S
C1051 C226 1.867 . S
C1075 C325 1.867 . S
C1083 C457 1.865 . S
C1107 C490 1.854 . S
C1115 C358 1.864 . S
C1139 C391 1.857 . S
C1147 C424 1.863 . S
C1171 C17 1.284 . S
C1179 C149 1.346 . S
C1203 C182 1.366 . S
C1211 C50 1.312 . S
C1235 C116 1.363 . S
C1243 C83 1.315 . S
C1267 C347 1.334 . S
C1275 C215 1.330 . S
C1299 C248 1.304 . S
C1307 C380 1.334 . S
C1331 C314 1.287 . S
C1339 C281 1.342 . S
C1363 C413 1.289 . S
C1371 C545 1.345 . S
C1395 C578 1.293 . S
C1403 C446 1.344 . S
C1427 C479 1.325 . S
C1435 C512 1.325 . S
C1459 C74 1.109 . S
C1467 N14 1.169 . S
C1491 C8 1.162 . S
C1499 N47 1.172 . S
C1523 C41 1.104 . S
C1531 N80 1.167 . S
C1555 C140 1.149 . S
C1563 N113 1.173 . S
C1587 N146 1.147 . S
C1595 C173 1.132 . S
C1619 C107 1.161 . S
C1627 N179 1.161 . S
C1651 C272 1.173 . S
C1659 N212 1.169 . S
C1683 C206 1.102 . S
C1691 N245 1.163 . S
C1715 N278 1.149 . S
C1723 C239 1.129 . S
C1747 N311 1.149 . S
C1755 C338 1.147 . S
C1779 C371 1.173 . S
C1787 N344 1.165 . S
C1811 C305 1.168 . S
C1819 N377 1.171 . S
C1843 N410 1.173 . S
C1851 C470 1.131 . S
C1875 C404 1.174 . S
C1883 N443 1.166 . S
C1907 C437 1.137 . S
C1915 N476 1.159 . S
C1939 C536 1.174 . S
C1947 N509 1.166 . S
C1971 C569 1.164 . S
C1979 N542 1.162 . S
C2003 C503 1.148 . S
C2011 N575 1.173 . S
