# Generated by pormake.
# Topology wjf, (4)-cn, num edge types: 1
# Building blocks:
#     Node 0, Type 0, BuildingBlock: KUFVIS_clean_sbu_0, # of connection points: 4
#     Node 1, Type 0, BuildingBlock: KUFVIS_clean_sbu_0, # of connection points: 4
#     Node 2, Type 0, BuildingBlock: KUFVIS_clean_sbu_0, # of connection points: 4
#     Node 3, Type 0, BuildingBlock: KUFVIS_clean_sbu_0, # of connection points: 4
#     Node 4, Type 0, BuildingBlock: KUFVIS_clean_sbu_0, # of connection points: 4
#     Node 5, Type 0, BuildingBlock: KUFVIS_clean_sbu_0, # of connection points: 4
#     Node 6, Type 0, BuildingBlock: KUFVIS_clean_sbu_0, # of connection points: 4
#     Node 7, Type 0, BuildingBlock: KUFVIS_clean_sbu_0, # of connection points: 4
#     Node 8, Type 0, BuildingBlock: KUFVIS_clean_sbu_0, # of connection points: 4
#     Node 9, Type 0, BuildingBlock: KUFVIS_clean_sbu_0, # of connection points: 4
#     Node 10, Type 0, BuildingBlock: KUFVIS_clean_sbu_0, # of connection points: 4
#     Node 11, Type 0, BuildingBlock: KUFVIS_clean_sbu_0, # of connection points: 4
#     Edge 12, Type (0, 0), BuildingBlock: AJUNOK_clean_linker_0, # of connection points: 2
#     Edge 13, Type (0, 0), BuildingBlock: AJUNOK_clean_linker_0, # of connection points: 2
#     Edge 14, Type (0, 0), BuildingBlock: AJUNOK_clean_linker_0, # of connection points: 2
#     Edge 15, Type (0, 0), BuildingBlock: AJUNOK_clean_linker_0, # of connection points: 2
#     Edge 16, Type (0, 0), BuildingBlock: AJUNOK_clean_linker_0, # of connection points: 2
#     Edge 17, Type (0, 0), BuildingBlock: AJUNOK_clean_linker_0, # of connection points: 2
#     Edge 18, Type (0, 0), BuildingBlock: AJUNOK_clean_linker_0, # of connection points: 2
#     Edge 19, Type (0, 0), BuildingBlock: AJUNOK_clean_linker_0, # of connection points: 2
#     Edge 20, Type (0, 0), BuildingBlock: AJUNOK_clean_linker_0, # of connection points: 2
#     Edge 21, Type (0, 0), BuildingBlock: AJUNOK_clean_linker_0, # of connection points: 2
#     Edge 22, Type (0, 0), BuildingBlock: AJUNOK_clean_linker_0, # of connection points: 2
#     Edge 23, Type (0, 0), BuildingBlock: AJUNOK_clean_linker_0, # of connection points: 2
#     Edge 24, Type (0, 0), BuildingBlock: AJUNOK_clean_linker_0, # of connection points: 2
#     Edge 25, Type (0, 0), BuildingBlock: AJUNOK_clean_linker_0, # of connection points: 2
#     Edge 26, Type (0, 0), BuildingBlock: AJUNOK_clean_linker_0, # of connection points: 2
#     Edge 27, Type (0, 0), BuildingBlock: AJUNOK_clean_linker_0, # of connection points: 2
#     Edge 28, Type (0, 0), BuildingBlock: AJUNOK_clean_linker_0, # of connection points: 2
#     Edge 29, Type (0, 0), BuildingBlock: AJUNOK_clean_linker_0, # of connection points: 2
#     Edge 30, Type (0, 0), BuildingBlock: AJUNOK_clean_linker_0, # of connection points: 2
#     Edge 31, Type (0, 0), BuildingBlock: AJUNOK_clean_linker_0, # of connection points: 2
#     Edge 32, Type (0, 0), BuildingBlock: AJUNOK_clean_linker_0, # of connection points: 2
#     Edge 33, Type (0, 0), BuildingBlock: AJUNOK_clean_linker_0, # of connection points: 2
#     Edge 34, Type (0, 0), BuildingBlock: AJUNOK_clean_linker_0, # of connection points: 2
#     Edge 35, Type (0, 0), BuildingBlock: AJUNOK_clean_linker_0, # of connection points: 2
# Relax obj value: 0.143
# Max RMSD: 0.208
# Mean RMSD: 0.180
data_MOF--net-wjf--node1-KUFVIS_clean_sbu_0--edge1-AJUNOK_clean_linker_0
_symmetry_space_group_name_H-M    P1
_symmetry_Int_Tables_number       1
_symmetry_cell_setting            triclinic
loop_
_symmetry_equiv_pos_as_xyz
'x, y, z'
_cell_length_a     34.916237
_cell_length_b     37.210162
_cell_length_c     20.422352
_cell_angle_alpha  90.143814
_cell_angle_beta   89.884878
_cell_angle_gamma 117.99254
loop_
_atom_site_label
_atom_site_type_symbol
_atom_site_fract_x
_atom_site_fract_y
_atom_site_fract_z
_atom_type_partial_charge
Mn0 Mn 0.34369 0.39389 0.13346 0.0
Mn1 Mn 0.34892 0.47159 0.05189 0.0
C2 C 0.41437 0.45162 0.1356 0.0
C3 C 0.31923 0.36276 0.23419 0.0
C4 C 0.34078 0.39239 0.99179 0.0
O5 O 0.2811 0.37793 0.10297 0.0
O6 O 0.30168 0.44143 0.11268 0.0
C7 C 0.3541 0.52472 0.16356 0.0
N8 N 0.3672 0.51995 0.10279 0.0
C9 C 0.4094 0.59231 0.08882 0.0
C10 C 0.3963 0.5981 0.15121 0.0
C11 C 0.36883 0.56413 0.18896 0.0
C12 C 0.39449 0.55233 0.06682 0.0
H13 H 0.33236 0.49866 0.19215 0.0
C14 C 0.27246 0.40697 0.09562 0.0
O15 O 0.3205 0.34191 0.18392 0.0
O16 O 0.33061 0.40087 0.22517 0.0
N17 N 0.39384 0.50462 0.99216 0.0
C18 C 0.4048 0.49384 0.93402 0.0
C19 C 0.43051 0.52417 0.88921 0.0
C20 C 0.44426 0.56519 0.90413 0.0
C21 C 0.43383 0.57577 0.96501 0.0
C22 C 0.40739 0.54422 0.00718 0.0
H23 H 0.39293 0.4624 0.92063 0.0
O24 O 0.40594 0.41646 0.15878 0.0
O25 O 0.38132 0.45195 0.1064 0.0
O26 O 0.3531 0.37976 0.04174 0.0
O27 O 0.33176 0.42232 0.9935 0.0
C28 C 0.44815 0.61632 0.98518 0.0
C29 C 0.43645 0.6246 0.04744 0.0
H30 H 0.40715 0.62846 0.17061 0.0
H31 H 0.35861 0.56834 0.23716 0.0
H32 H 0.43879 0.51583 0.84248 0.0
H33 H 0.46261 0.58826 0.8682 0.0
H34 H 0.46856 0.64139 0.95351 0.0
H35 H 0.44818 0.65589 0.06281 0.0
Mn36 Mn 0.96071 0.33262 0.37655 0.0
Mn37 Mn 0.06782 0.39333 0.35336 0.0
C38 C 0.98685 0.34739 0.27075 0.0
C39 C 0.899 0.26885 0.38177 0.0
C40 C 0.00631 0.42628 0.38969 0.0
O41 O 0.98544 0.32977 0.46578 0.0
O42 O 0.0555 0.37223 0.44469 0.0
C43 C 0.0989 0.33224 0.36918 0.0
N44 N 0.09681 0.36209 0.33339 0.0
C45 C 0.14916 0.36273 0.25604 0.0
C46 C 0.15199 0.33202 0.29208 0.0
C47 C 0.12656 0.31656 0.3487 0.0
C48 C 0.12097 0.37704 0.27872 0.0
H49 H 0.07993 0.32079 0.41329 0.0
C50 C 0.02514 0.34899 0.48349 0.0
O51 O 0.89933 0.30122 0.40647 0.0
O52 O 0.93592 0.27277 0.36141 0.0
N53 N 0.0859 0.41667 0.26849 0.0
C54 C 0.07802 0.44507 0.23801 0.0
C55 C 0.10038 0.46321 0.18008 0.0
C56 C 0.13043 0.45192 0.15399 0.0
C57 C 0.13814 0.42279 0.18651 0.0
C58 C 0.11536 0.40616 0.24451 0.0
H59 H 0.05543 0.45433 0.25839 0.0
O60 O 0.94715 0.33779 0.28518 0.0
O61 O 0.01188 0.34953 0.32011 0.0
O62 O 0.97231 0.39181 0.39504 0.0
O63 O 0.04292 0.42965 0.37287 0.0
C64 C 0.16756 0.40965 0.16372 0.0
C65 C 0.17304 0.3796 0.1984 0.0
H66 H 0.17344 0.31999 0.27661 0.0
H67 H 0.12858 0.29289 0.37681 0.0
H68 H 0.0951 0.48643 0.1563 0.0
H69 H 0.14752 0.46592 0.10916 0.0
H70 H 0.18592 0.42246 0.11948 0.0
H71 H 0.19561 0.36956 0.18041 0.0
Mn72 Mn 0.61596 0.94801 0.78487 0.0
Mn73 Mn 0.52846 0.89583 0.6868 0.0
C74 C 0.56267 0.9688 0.77736 0.0
C75 C 0.6504 0.96136 0.88792 0.0
C76 C 0.6148 0.95894 0.63549 0.0
O77 O 0.62085 0.89577 0.76544 0.0
O78 O 0.56264 0.86702 0.70031 0.0
C79 C 0.48111 0.82867 0.78037 0.0
N80 N 0.48175 0.8575 0.73883 0.0
C81 C 0.40481 0.83217 0.75016 0.0
C82 C 0.40316 0.80183 0.79244 0.0
C83 C 0.44157 0.80034 0.80813 0.0
C84 C 0.4453 0.86001 0.72504 0.0
H85 H 0.51053 0.82722 0.79184 0.0
C86 C 0.59532 0.86697 0.7277 0.0
O87 O 0.67245 0.97462 0.8341 0.0
O88 O 0.6092 0.93738 0.88137 0.0
N89 N 0.49056 0.91809 0.66588 0.0
C90 C 0.49746 0.94812 0.62219 0.0
C91 C 0.46222 0.95338 0.60068 0.0
C92 C 0.42038 0.92799 0.6244 0.0
C93 C 0.41374 0.89638 0.66747 0.0
C94 C 0.4499 0.89196 0.68602 0.0
H95 H 0.52935 0.96682 0.60207 0.0
O96 O 0.60136 0.99284 0.79793 0.0
O97 O 0.55465 0.93153 0.76353 0.0
O98 O 0.63538 0.9675 0.68995 0.0
O99 O 0.57454 0.93402 0.62954 0.0
C100 C 0.37248 0.86825 0.69103 0.0
C101 C 0.36804 0.83627 0.73261 0.0
H102 H 0.37266 0.77975 0.81355 0.0
H103 H 0.44062 0.77718 0.84102 0.0
H104 H 0.46681 0.97586 0.56398 0.0
H105 H 0.39345 0.93224 0.60746 0.0
H106 H 0.34395 0.87094 0.67749 0.0
H107 H 0.33623 0.81511 0.751 0.0
Mn108 Mn 0.67054 0.61752 0.14532 0.0
Mn109 Mn 0.63412 0.53467 0.04921 0.0
C110 C 0.59639 0.57256 0.14271 0.0
C111 C 0.69838 0.64404 0.24863 0.0
C112 C 0.66215 0.62063 0.99953 0.0
O113 O 0.72612 0.61712 0.11212 0.0
O114 O 0.69495 0.55334 0.07229 0.0
C115 C 0.63821 0.47753 0.14602 0.0
N116 N 0.61499 0.48726 0.10259 0.0
C117 C 0.54981 0.42562 0.12651 0.0
C118 C 0.5731 0.41464 0.17088 0.0
C119 C 0.61748 0.44079 0.18082 0.0
C120 C 0.57223 0.4626 0.09327 0.0
H121 H 0.6722 0.49778 0.15429 0.0
C122 C 0.72821 0.58726 0.08432 0.0
O123 O 0.70356 0.66811 0.19949 0.0
O124 O 0.67972 0.60545 0.23654 0.0
N125 N 0.57524 0.51262 0.02223 0.0
C126 C 0.55855 0.52628 0.97403 0.0
C127 C 0.51456 0.50407 0.95818 0.0
C128 C 0.4884 0.4676 0.99115 0.0
C129 C 0.50709 0.45235 0.03683 0.0
C130 C 0.55126 0.47586 0.05022 0.0
H131 H 0.57874 0.55365 0.94745 0.0
O132 O 0.6105 0.60814 0.16903 0.0
O133 O 0.62622 0.56358 0.12277 0.0
O134 O 0.6657 0.6383 0.05471 0.0
O135 O 0.65256 0.58309 0.99262 0.0
C136 C 0.48375 0.41512 0.07016 0.0
C137 C 0.50509 0.40174 0.11484 0.0
H138 H 0.55716 0.38641 0.19804 0.0
H139 H 0.63562 0.43272 0.2154 0.0
H140 H 0.501 0.5152 0.92088 0.0
H141 H 0.45407 0.45203 0.98129 0.0
H142 H 0.44931 0.39666 0.06255 0.0
H143 H 0.48672 0.37319 0.14035 0.0
Mn144 Mn 0.04297 0.67248 0.37153 0.0
Mn145 Mn 0.93453 0.61344 0.36906 0.0
C146 C 0.00781 0.65081 0.27235 0.0
C147 C 0.10594 0.73543 0.36608 0.0
C148 C 0.99597 0.5789 0.39199 0.0
O149 O 0.02647 0.68052 0.46477 0.0
O150 O 0.95565 0.63663 0.45711 0.0
C151 C 0.91264 0.68027 0.39319 0.0
N152 N 0.90817 0.64775 0.35693 0.0
C153 C 0.85133 0.64922 0.29275 0.0
C154 C 0.85488 0.68241 0.32984 0.0
C155 C 0.886 0.69825 0.37989 0.0
C156 C 0.87932 0.63308 0.30748 0.0
H157 H 0.93612 0.69223 0.43223 0.0
C158 C 0.98861 0.66164 0.4898 0.0
O159 O 0.1062 0.70339 0.39077 0.0
O160 O 0.06833 0.7318 0.35043 0.0
N161 N 0.90753 0.58833 0.28856 0.0
C162 C 0.90863 0.55657 0.25682 0.0
C163 C 0.8805 0.53812 0.20399 0.0
C164 C 0.8506 0.55157 0.18586 0.0
C165 C 0.8493 0.58356 0.22045 0.0
C166 C 0.87879 0.60143 0.27155 0.0
H167 H 0.93071 0.54536 0.27187 0.0
O168 O 0.04873 0.66202 0.27838 0.0
O169 O 0.98775 0.65342 0.32494 0.0
O170 O 0.03031 0.61345 0.39393 0.0
O171 O 0.95844 0.57543 0.38089 0.0
C172 C 0.81933 0.59788 0.20721 0.0
C173 C 0.82077 0.63115 0.2423 0.0
H174 H 0.83393 0.69594 0.3203 0.0
H175 H 0.88908 0.72394 0.40866 0.0
H176 H 0.88113 0.51299 0.1783 0.0
H177 H 0.82864 0.53692 0.14568 0.0
H178 H 0.79454 0.58303 0.17108 0.0
H179 H 0.79794 0.64224 0.23056 0.0
Mn180 Mn 0.38984 0.05892 0.77212 0.0
Mn181 Mn 0.47822 0.11116 0.67547 0.0
C182 C 0.44179 0.03606 0.76592 0.0
C183 C 0.3545 0.04499 0.87451 0.0
C184 C 0.39189 0.04898 0.62238 0.0
O185 O 0.38616 0.11169 0.75543 0.0
O186 O 0.44441 0.14031 0.69069 0.0
C187 C 0.52505 0.17618 0.77292 0.0
N188 N 0.52486 0.14879 0.72845 0.0
C189 C 0.60155 0.17326 0.74126 0.0
C190 C 0.60276 0.20214 0.78664 0.0
C191 C 0.56426 0.20342 0.80283 0.0
C192 C 0.56152 0.14692 0.7132 0.0
H193 H 0.4955 0.17725 0.78521 0.0
C194 C 0.41197 0.14063 0.71857 0.0
O195 O 0.33285 0.03271 0.82021 0.0
O196 O 0.3959 0.06829 0.86899 0.0
N197 N 0.51657 0.08995 0.65134 0.0
C198 C 0.50957 0.05966 0.60801 0.0
C199 C 0.54473 0.05399 0.58693 0.0
C200 C 0.58668 0.07977 0.60992 0.0
C201 C 0.59336 0.11155 0.65292 0.0
C202 C 0.55733 0.11637 0.67086 0.0
H203 H 0.47755 0.04077 0.5886 0.0
O204 O 0.40219 0.01319 0.78355 0.0
O205 O 0.45159 0.074 0.7519 0.0
O206 O 0.37095 0.04077 0.67657 0.0
O207 O 0.43229 0.07363 0.61714 0.0
C208 C 0.63427 0.13843 0.67908 0.0
C209 C 0.63833 0.16914 0.72352 0.0
H210 H 0.63294 0.22318 0.80983 0.0
H211 H 0.56486 0.22544 0.8381 0.0
H212 H 0.53983 0.03031 0.55211 0.0
H213 H 0.61356 0.07513 0.59378 0.0
H214 H 0.66271 0.1354 0.66606 0.0
H215 H 0.66982 0.1892 0.74415 0.0
Mn216 Mn 0.62706 0.67221 0.63207 0.0
Mn217 Mn 0.67204 0.61014 0.65172 0.0
C218 C 0.63529 0.65324 0.73618 0.0
C219 C 0.62755 0.7352 0.63204 0.0
C220 C 0.57838 0.57882 0.61279 0.0
O221 O 0.65716 0.67824 0.54401 0.0
O222 O 0.68245 0.6336 0.56156 0.0
C223 C 0.76454 0.67158 0.64032 0.0
N224 N 0.73193 0.64101 0.67421 0.0
C225 C 0.78195 0.64082 0.75497 0.0
C226 C 0.81609 0.67228 0.7209 0.0
C227 C 0.80732 0.68779 0.66342 0.0
C228 C 0.74003 0.62582 0.72951 0.0
H229 H 0.75798 0.68332 0.59582 0.0
C230 C 0.67719 0.65886 0.52484 0.0
O231 O 0.59715 0.70346 0.6034 0.0
O232 O 0.66076 0.73174 0.65277 0.0
N233 N 0.66525 0.58518 0.73561 0.0
C234 C 0.62828 0.55729 0.76547 0.0
C235 C 0.63117 0.53992 0.82501 0.0
C236 C 0.672 0.55101 0.85276 0.0
C237 C 0.70957 0.57974 0.82103 0.0
C238 C 0.70469 0.59601 0.76181 0.0
H239 H 0.59685 0.54842 0.74402 0.0
O240 O 0.60578 0.66374 0.7225 0.0
O241 O 0.65967 0.6532 0.68733 0.0
O242 O 0.58021 0.61384 0.60813 0.0
O243 O 0.61086 0.57424 0.62992 0.0
C244 C 0.75158 0.59358 0.8466 0.0
C245 C 0.78776 0.62413 0.81365 0.0
H246 H 0.84913 0.68489 0.73856 0.0
H247 H 0.83351 0.71203 0.63682 0.0
H248 H 0.60202 0.51785 0.84925 0.0
H249 H 0.67411 0.53762 0.89878 0.0
H250 H 0.75621 0.58128 0.89207 0.0
H251 H 0.81987 0.63495 0.83416 0.0
Mn252 Mn 0.94425 0.60551 0.8658 0.0
Mn253 Mn 0.87276 0.52384 0.94614 0.0
C254 C 0.95943 0.54923 0.86901 0.0
C255 C 0.95442 0.63855 0.76525 0.0
C256 C 0.9426 0.6025 0.00977 0.0
O257 O 0.89603 0.61995 0.89696 0.0
O258 O 0.8539 0.55577 0.89239 0.0
C259 C 0.81713 0.47395 0.83712 0.0
N260 N 0.83989 0.47711 0.89287 0.0
C261 C 0.80713 0.40429 0.90317 0.0
C262 C 0.7835 0.40023 0.84572 0.0
C263 C 0.78885 0.43523 0.81223 0.0
C264 C 0.83569 0.44367 0.92467 0.0
H265 H 0.8201 0.50073 0.81226 0.0
C266 C 0.85962 0.59011 0.91078 0.0
O267 O 0.97495 0.65852 0.81715 0.0
O268 O 0.92703 0.60049 0.7726 0.0
N269 N 0.88806 0.48914 0.9961 0.0
C270 C 0.91172 0.49811 0.05225 0.0
C271 C 0.90881 0.46658 0.09271 0.0
C272 C 0.88175 0.426 0.07505 0.0
C273 C 0.85784 0.41724 0.01688 0.0
C274 C 0.86139 0.45003 0.97912 0.0
H275 H 0.93072 0.52896 0.06815 0.0
O276 O 0.98599 0.58412 0.84444 0.0
O277 O 0.92247 0.54666 0.88688 0.0
O278 O 0.96647 0.61837 0.9594 0.0
O279 O 0.90542 0.57047 0.00795 0.0
C280 C 0.82898 0.37733 0.99664 0.0
C281 C 0.80389 0.37084 0.93953 0.0
H282 H 0.76127 0.37042 0.82678 0.0
H283 H 0.77065 0.43235 0.76794 0.0
H284 H 0.92594 0.47365 0.1389 0.0
H285 H 0.87823 0.40194 0.10795 0.0
H286 H 0.82561 0.3514 0.0249 0.0
H287 H 0.78202 0.34002 0.92422 0.0
Mn288 Mn 0.33428 0.95254 0.23119 0.0
Mn289 Mn 0.36649 0.8978 0.3287 0.0
C290 C 0.40786 0.97137 0.23955 0.0
C291 C 0.31457 0.96807 0.12893 0.0
C292 C 0.34529 0.96214 0.38088 0.0
O293 O 0.27637 0.90096 0.24861 0.0
O294 O 0.30344 0.87 0.31364 0.0
C295 C 0.34549 0.82988 0.23593 0.0
N296 N 0.37423 0.85902 0.27671 0.0
C297 C 0.42498 0.83263 0.26591 0.0
C298 C 0.39594 0.80229 0.22378 0.0
C299 C 0.35616 0.80112 0.20832 0.0
C300 C 0.41291 0.86095 0.29079 0.0
H301 H 0.31453 0.82843 0.22507 0.0
C302 C 0.27158 0.87146 0.2857 0.0
O303 O 0.30581 0.98077 0.1834 0.0
O304 O 0.33072 0.94316 0.13416 0.0
N305 N 0.42642 0.91909 0.35061 0.0
C306 C 0.44988 0.94911 0.39431 0.0
C307 C 0.49021 0.95393 0.41584 0.0
C308 C 0.50613 0.92809 0.39216 0.0
C309 C 0.48083 0.89655 0.34897 0.0
C310 C 0.44049 0.89266 0.33025 0.0
H311 H 0.43715 0.96823 0.4143 0.0
O312 O 0.39431 0.99638 0.21976 0.0
O313 O 0.37771 0.93425 0.25237 0.0
O314 O 0.33429 0.97157 0.32641 0.0
O315 O 0.35927 0.93622 0.38657 0.0
C316 C 0.49345 0.86804 0.32537 0.0
C317 C 0.4656 0.83618 0.28367 0.0
H318 H 0.40391 0.77984 0.20285 0.0
H319 H 0.33358 0.77781 0.17584 0.0
H320 H 0.50839 0.97651 0.45241 0.0
H321 H 0.53718 0.932 0.40913 0.0
H322 H 0.52447 0.87032 0.33902 0.0
H323 H 0.4758 0.81466 0.26539 0.0
Mn324 Mn 0.37303 0.33274 0.62408 0.0
Mn325 Mn 0.31916 0.38777 0.63084 0.0
C326 C 0.36119 0.3536 0.72463 0.0
C327 C 0.37816 0.27233 0.62938 0.0
C328 C 0.41498 0.42635 0.60463 0.0
O329 O 0.34578 0.32196 0.53416 0.0
O330 O 0.3189 0.36571 0.54224 0.0
C331 C 0.23246 0.31798 0.60556 0.0
N332 N 0.25886 0.35097 0.64232 0.0
C333 C 0.19841 0.34582 0.70583 0.0
C334 C 0.17052 0.31196 0.66844 0.0
C335 C 0.1877 0.29779 0.6184 0.0
C336 C 0.2428 0.36434 0.69135 0.0
H337 H 0.24533 0.30735 0.56635 0.0
C338 C 0.32699 0.34079 0.50939 0.0
O339 O 0.40801 0.3049 0.60181 0.0
O340 O 0.34317 0.27359 0.64728 0.0
N341 N 0.31467 0.41217 0.71097 0.0
C342 C 0.34578 0.44556 0.74196 0.0
C343 C 0.33373 0.4638 0.79265 0.0
C344 C 0.29002 0.44776 0.81092 0.0
C345 C 0.25849 0.41389 0.77754 0.0
C346 C 0.27224 0.39726 0.72688 0.0
H347 H 0.37935 0.45871 0.72711 0.0
O348 O 0.39217 0.34468 0.71373 0.0
O349 O 0.33561 0.34943 0.67481 0.0
O350 O 0.41624 0.39256 0.59897 0.0
O351 O 0.38044 0.42806 0.61985 0.0
C352 C 0.21387 0.39649 0.79164 0.0
C353 C 0.18387 0.36219 0.75643 0.0
H354 H 0.13592 0.29664 0.67768 0.0
H355 H 0.16641 0.27166 0.5893 0.0
H356 H 0.3578 0.4909 0.81634 0.0
H357 H 0.28101 0.4621 0.84991 0.0
H358 H 0.20225 0.4095 0.82898 0.0
H359 H 0.14966 0.34896 0.76818 0.0
Mn360 Mn 0.05902 0.39005 0.86666 0.0
Mn361 Mn 0.10509 0.46458 0.97808 0.0
C362 C 0.03068 0.4356 0.87725 0.0
C363 C 0.06182 0.3676 0.76083 0.0
C364 C 0.04526 0.37524 0.00945 0.0
O365 O 0.11298 0.38696 0.89935 0.0
O366 O 0.14789 0.45008 0.94027 0.0
C367 C 0.16862 0.53409 0.90012 0.0
N368 N 0.13525 0.51845 0.94378 0.0
C369 C 0.14131 0.5846 0.96462 0.0
C370 C 0.17579 0.60148 0.91987 0.0
C371 C 0.18935 0.57608 0.88726 0.0
C372 C 0.12196 0.54261 0.97542 0.0
H373 H 0.17944 0.51466 0.87569 0.0
C374 C 0.14557 0.41552 0.9279 0.0
O375 O 0.04168 0.34194 0.80753 0.0
O376 O 0.08248 0.40579 0.77658 0.0
N377 N 0.06764 0.48244 0.01866 0.0
C378 C 0.03209 0.46094 0.05658 0.0
C379 C 0.01416 0.48145 0.0926 0.0
C380 C 0.03249 0.52397 0.08851 0.0
C381 C 0.06883 0.54559 0.04843 0.0
C382 C 0.08603 0.52346 0.01519 0.0
H383 H 0.01867 0.42866 0.06146 0.0
O384 O 0.01071 0.40187 0.84491 0.0
O385 O 0.06913 0.44354 0.89883 0.0
O386 O 0.02943 0.36342 0.95249 0.0
O387 O 0.07569 0.41092 0.02179 0.0
C388 C 0.08886 0.58816 0.04035 0.0
C389 C 0.12483 0.60761 0.99803 0.0
H390 H 0.19183 0.63383 0.90974 0.0
H391 H 0.21589 0.58888 0.8526 0.0
H392 H 0.98706 0.46446 0.12483 0.0
H393 H 0.01868 0.53958 0.11702 0.0
H394 H 0.07663 0.60623 0.06584 0.0
H395 H 0.13937 0.64024 0.99116 0.0
Mn396 Mn 0.66999 0.05473 0.24445 0.0
Mn397 Mn 0.63671 0.10942 0.34078 0.0
C398 C 0.59566 0.0342 0.25019 0.0
C399 C 0.6903 0.03876 0.14266 0.0
C400 C 0.65726 0.04526 0.3942 0.0
O401 O 0.72754 0.10637 0.26122 0.0
O402 O 0.69998 0.13628 0.32732 0.0
C403 C 0.6592 0.17559 0.24438 0.0
N404 N 0.6305 0.14845 0.28758 0.0
C405 C 0.58078 0.17565 0.27276 0.0
C406 C 0.6099 0.20411 0.22835 0.0
C407 C 0.64919 0.20393 0.21386 0.0
C408 C 0.59251 0.14811 0.30141 0.0
H409 H 0.68952 0.17564 0.23357 0.0
C410 C 0.73215 0.13518 0.29976 0.0
O411 O 0.6992 0.02667 0.19745 0.0
O412 O 0.67367 0.06331 0.14727 0.0
N413 N 0.57724 0.09051 0.36343 0.0
C414 C 0.5524 0.06046 0.40604 0.0
C415 C 0.5119 0.05634 0.42566 0.0
C416 C 0.49766 0.08341 0.40199 0.0
C417 C 0.52433 0.11486 0.35971 0.0
C418 C 0.56475 0.11808 0.34318 0.0
H419 H 0.564 0.0405 0.42585 0.0
O420 O 0.61116 0.01026 0.23307 0.0
O421 O 0.62482 0.07191 0.26409 0.0
O422 O 0.66997 0.03675 0.34023 0.0
O423 O 0.64233 0.07055 0.39926 0.0
C424 C 0.51225 0.1429 0.33279 0.0
C425 C 0.54036 0.17315 0.28907 0.0
H426 H 0.6023 0.22603 0.20475 0.0
H427 H 0.67176 0.22569 0.17947 0.0
H428 H 0.49187 0.03283 0.45979 0.0
H429 H 0.46636 0.07993 0.41694 0.0
H430 H 0.48116 0.14112 0.34469 0.0
H431 H 0.53045 0.19415 0.26792 0.0
C432 C 0.29125 0.36137 0.3457 0.0
C433 C 0.31088 0.34639 0.30109 0.0
C434 C 0.29364 0.35633 0.413 0.0
C435 C 0.31658 0.3368 0.43842 0.0
H436 H 0.27605 0.37919 0.32863 0.0
H437 H 0.27955 0.37012 0.44527 0.0
S438 S 0.36806 0.28678 0.34055 0.0
N439 N 0.34917 0.30684 0.28544 0.0
N440 N 0.35444 0.2977 0.41254 0.0
C441 C 0.33299 0.31843 0.39384 0.0
C442 C 0.32998 0.32319 0.32492 0.0
C443 C 0.00401 0.32623 0.60032 0.0
C444 C 0.03671 0.34747 0.55361 0.0
C445 C 0.01318 0.32998 0.66776 0.0
C446 C 0.05525 0.35548 0.69109 0.0
H447 H 0.97062 0.30808 0.58508 0.0
H448 H 0.98655 0.31509 0.70191 0.0
S449 S 0.15405 0.41174 0.59069 0.0
N450 N 0.11454 0.39011 0.53668 0.0
N451 N 0.13074 0.39815 0.6632 0.0
C452 C 0.08874 0.37447 0.64538 0.0
C453 C 0.07975 0.37015 0.57674 0.0
C454 C 0.69473 0.02172 0.95935 0.0
C455 C 0.66868 0.97927 0.95311 0.0
C456 C 0.70384 0.04094 0.02119 0.0
C457 C 0.68876 0.01827 0.07925 0.0
H458 H 0.70549 0.04061 0.91597 0.0
H459 H 0.72144 0.07386 0.02346 0.0
S460 S 0.6217 0.90616 0.09007 0.0
N461 N 0.62917 0.91521 0.01066 0.0
N462 N 0.64818 0.95087 0.1265 0.0
C463 C 0.66499 0.97562 0.07379 0.0
C464 C 0.65449 0.95625 0.01088 0.0
C465 C 0.68629 0.68127 0.34146 0.0
C466 C 0.70525 0.65783 0.31757 0.0
C467 C 0.67968 0.68364 0.40903 0.0
C468 C 0.69211 0.66287 0.45518 0.0
H469 H 0.67321 0.69507 0.30759 0.0
H470 H 0.66239 0.69989 0.42465 0.0
S471 S 0.75133 0.60426 0.41688 0.0
N472 N 0.74137 0.61793 0.34471 0.0
N473 N 0.73105 0.62359 0.47131 0.0
C474 C 0.71508 0.64271 0.43167 0.0
C475 C 0.72105 0.63983 0.363 0.0
C476 C 0.00728 0.6721 0.67426 0.0
C477 C 0.96466 0.65576 0.6986 0.0
C478 C 0.01563 0.67699 0.60641 0.0
C479 C 0.98155 0.66573 0.56095 0.0
H480 H 0.03385 0.67802 0.70728 0.0
H481 H 0.04848 0.68689 0.58948 0.0
S482 S 0.86526 0.62932 0.60221 0.0
N483 N 0.88909 0.63367 0.67364 0.0
N484 N 0.90429 0.64379 0.54704 0.0
C485 C 0.93936 0.65316 0.58581 0.0
C486 C 0.93102 0.64786 0.65441 0.0
C487 C 0.30426 0.96467 0.00669 0.0
C488 C 0.31565 0.98767 0.06491 0.0
C489 C 0.31328 0.98366 0.94482 0.0
C490 C 0.33552 0.02639 0.93883 0.0
H491 H 0.28977 0.9318 0.00895 0.0
H492 H 0.30564 0.96473 0.90144 0.0
S493 S 0.37158 0.10045 0.07583 0.0
N494 N 0.34831 0.05559 0.11223 0.0
N495 N 0.36733 0.09099 0.99635 0.0
C496 C 0.34589 0.04966 0.99653 0.0
C497 C 0.33539 0.03038 0.05942 0.0
C498 C 0.22115 0.44238 0.96572 0.0
C499 C 0.18045 0.40846 0.95582 0.0
C500 C 0.2511 0.4408 0.00889 0.0
C501 C 0.24196 0.40503 0.04369 0.0
H502 H 0.22897 0.47129 0.94291 0.0
H503 H 0.28109 0.46855 0.01666 0.0
S504 S 0.14236 0.30608 0.0286 0.0
N505 N 0.13384 0.33683 0.97949 0.0
N506 N 0.19139 0.33344 0.05952 0.0
C507 C 0.20308 0.36971 0.02975 0.0
C508 C 0.17201 0.37151 0.98603 0.0
C509 C 0.81809 0.23248 0.37855 0.0
C510 C 0.8574 0.23216 0.36528 0.0
C511 C 0.77853 0.2016 0.35564 0.0
C512 C 0.77595 0.16844 0.31848 0.0
H513 H 0.81776 0.2574 0.40565 0.0
H514 H 0.74959 0.20409 0.36734 0.0
S515 S 0.86941 0.15214 0.27173 0.0
N516 N 0.89142 0.19532 0.31325 0.0
N517 N 0.8167 0.13683 0.27099 0.0
C518 C 0.81496 0.16729 0.30547 0.0
C519 C 0.85562 0.19907 0.32881 0.0
C520 C 0.64579 0.83641 0.70753 0.0
C521 C 0.60362 0.83239 0.70898 0.0
C522 C 0.65377 0.8055 0.68072 0.0
C523 C 0.62002 0.76972 0.65352 0.0
H524 H 0.6729 0.86392 0.72577 0.0
H525 H 0.68664 0.80971 0.68125 0.0
S526 S 0.50316 0.7427 0.65041 0.0
N527 N 0.52726 0.78802 0.68496 0.0
N528 N 0.54243 0.73143 0.63337 0.0
C529 C 0.57772 0.76521 0.6557 0.0
C530 C 0.56951 0.79604 0.68383 0.0
C531 C 0.7989 0.62793 0.02452 0.0
C532 C 0.76917 0.59164 0.05551 0.0
C533 C 0.83011 0.62819 0.98014 0.0
C534 C 0.83182 0.59203 0.96468 0.0
H535 H 0.79603 0.65548 0.03083 0.0
H536 H 0.85102 0.65617 0.95479 0.0
S537 S 0.76593 0.4907 0.0425 0.0
N538 N 0.74808 0.52044 0.07559 0.0
N539 N 0.80451 0.5202 0.99165 0.0
C540 C 0.80443 0.55646 0.99983 0.0
C541 C 0.7737 0.55647 0.04533 0.0
C542 C 0.18644 0.77058 0.35457 0.0
C543 C 0.14715 0.7719 0.34739 0.0
C544 C 0.22561 0.8022 0.33216 0.0
C545 C 0.22786 0.83722 0.3018 0.0
H546 H 0.18711 0.74451 0.3769 0.0
H547 H 0.25458 0.79897 0.33925 0.0
S548 S 0.13419 0.85618 0.27111 0.0
N549 N 0.1126 0.81118 0.30706 0.0
N550 N 0.18676 0.87122 0.266 0.0
C551 C 0.1888 0.83909 0.29401 0.0
C552 C 0.14847 0.80647 0.31671 0.0
C553 C 0.36157 0.17128 0.70177 0.0
C554 C 0.40375 0.17538 0.70138 0.0
C555 C 0.35323 0.20224 0.67682 0.0
C556 C 0.38665 0.23832 0.65002 0.0
H557 H 0.33465 0.14362 0.71993 0.0
H558 H 0.32028 0.19779 0.67845 0.0
S559 S 0.50345 0.26554 0.64246 0.0
N560 N 0.47982 0.2199 0.67581 0.0
N561 N 0.464 0.27698 0.62811 0.0
C562 C 0.42903 0.243 0.65049 0.0
C563 C 0.43759 0.21191 0.67646 0.0
C564 C 0.31361 0.35551 0.8167 0.0
C565 C 0.35404 0.36131 0.79368 0.0
C566 C 0.30858 0.36529 0.8816 0.0
C567 C 0.34218 0.37557 0.92727 0.0
H568 H 0.28584 0.34313 0.78476 0.0
H569 H 0.27821 0.36417 0.89638 0.0
S570 S 0.44802 0.37789 0.89886 0.0
N571 N 0.42584 0.37125 0.8258 0.0
N572 N 0.41197 0.37924 0.94959 0.0
C573 C 0.37983 0.37431 0.90752 0.0
C574 C 0.38685 0.3693 0.8405 0.0
C575 C 0.03219 0.33921 0.18167 0.0
C576 C 0.99759 0.34617 0.20065 0.0
C577 C 0.04614 0.34425 0.11627 0.0
C578 C 0.02254 0.35152 0.06716 0.0
H579 H 0.0493 0.33116 0.21769 0.0
H580 H 0.07658 0.34456 0.10457 0.0
S581 S 0.91766 0.3518 0.08652 0.0
N582 N 0.93309 0.34944 0.16202 0.0
N583 N 0.9557 0.35207 0.03834 0.0
C584 C 0.98267 0.34926 0.08358 0.0
C585 C 0.97072 0.34805 0.15054 0.0
C586 C 0.65664 0.02345 0.57458 0.0
C587 C 0.6368 0.98083 0.57562 0.0
C588 C 0.66617 0.04446 0.51494 0.0
C589 C 0.65699 0.02354 0.45466 0.0
H590 H 0.66147 0.0404 0.61973 0.0
H591 H 0.6786 0.07718 0.51598 0.0
S592 S 0.61159 0.9122 0.4321 0.0
N593 N 0.61265 0.91858 0.51229 0.0
N594 N 0.63181 0.95825 0.40009 0.0
C595 C 0.64097 0.98121 0.45536 0.0
C596 C 0.63048 0.95978 0.516 0.0
C597 C 0.68642 0.66022 0.82783 0.0
C598 C 0.64438 0.65005 0.80607 0.0
C599 C 0.69393 0.65374 0.89323 0.0
C600 C 0.66042 0.64103 0.9396 0.0
H601 H 0.71327 0.67208 0.79387 0.0
H602 H 0.72546 0.65727 0.90704 0.0
S603 S 0.54954 0.62588 0.91356 0.0
N604 N 0.57121 0.6347 0.83967 0.0
N605 N 0.58755 0.62852 0.96386 0.0
C606 C 0.6205 0.63754 0.92079 0.0
C607 C 0.61189 0.64096 0.85377 0.0
C608 C 0.0017 0.61475 0.16822 0.0
C609 C 0.98839 0.63827 0.20679 0.0
C610 C 0.98836 0.60535 0.1032 0.0
C611 C 0.96033 0.61807 0.07488 0.0
H612 H 0.02289 0.60369 0.1884 0.0
H613 H -0.00075 0.58722 0.075 0.0
S614 S 0.92249 0.68639 0.14981 0.0
N615 N 0.95176 0.68003 0.20779 0.0
N616 N 0.9227 0.65837 0.08701 0.0
C617 C 0.94766 0.64257 0.11169 0.0
C618 C 0.96272 0.65366 0.17742 0.0
C619 C 0.3702 0.02703 0.44194 0.0
C620 C 0.34613 0.98447 0.44087 0.0
C621 C 0.38229 0.04815 0.50156 0.0
C622 C 0.36991 0.02745 0.56188 0.0
H623 H 0.38277 0.04375 0.3968 0.0
H624 H 0.40349 0.08071 0.50048 0.0
S625 S 0.30085 0.91653 0.5844 0.0
N626 N 0.30634 0.92265 0.50422 0.0
N627 N 0.328 0.96254 0.6164 0.0
C628 C 0.34245 0.9853 0.56115 0.0
C629 C 0.33089 0.96373 0.50049 0.0
C630 C 0.47626 0.52036 0.10277 0.0
C631 C 0.45937 0.48599 0.14334 0.0
C632 C 0.52047 0.54913 0.1038 0.0
C633 C 0.54974 0.54357 0.14413 0.0
H634 H 0.45624 0.52375 0.06699 0.0
H635 H 0.53217 0.57463 0.07031 0.0
S636 S 0.52204 0.46422 0.27057 0.0
N637 N 0.47549 0.4526 0.23416 0.0
N638 N 0.55861 0.50538 0.23321 0.0
C639 C 0.53329 0.51131 0.1886 0.0
C640 C 0.48818 0.48274 0.18881 0.0
C641 C 0.96172 0.50225 0.39126 0.0
C642 C -0.00081 0.54031 0.39887 0.0
C643 C 0.96386 0.46545 0.39132 0.0
C644 C 0.00358 0.46489 0.39878 0.0
H645 H 0.93031 0.50068 0.38332 0.0
H646 H 0.9343 0.43737 0.38294 0.0
S647 S 0.11074 0.55533 0.42771 0.0
N648 N 0.07689 0.57444 0.41927 0.0
N649 N 0.08097 0.50563 0.41965 0.0
C650 C 0.04105 0.50251 0.40944 0.0
C651 C 0.03886 0.54001 0.40943 0.0
C652 C 0.5458 0.02645 0.76543 0.0
C653 C 0.53084 0.98455 0.7757 0.0
C654 C 0.51741 0.04332 0.76858 0.0
C655 C 0.47265 0.01883 0.77247 0.0
H656 H 0.58003 0.04673 0.75806 0.0
H657 H 0.53052 0.07565 0.77193 0.0
S658 S 0.42297 0.9147 0.8436 0.0
N659 N 0.47324 0.92484 0.82624 0.0
N660 N 0.41781 0.95392 0.81648 0.0
C661 C 0.45826 0.97801 0.79258 0.0
C662 C 0.48794 0.96161 0.79669 0.0
C663 C 0.5356 0.50279 0.59862 0.0
C664 C 0.53626 0.54099 0.6024 0.0
C665 C 0.49651 0.46615 0.59649 0.0
C666 C 0.45603 0.46579 0.59835 0.0
H667 H 0.56564 0.50093 0.59891 0.0
H668 H 0.49822 0.43783 0.59563 0.0
S669 S 0.43931 0.55754 0.60333 0.0
N670 N 0.49249 0.57605 0.60424 0.0
N671 N 0.41926 0.50763 0.59993 0.0
C672 C 0.45616 0.50389 0.59937 0.0
C673 C 0.49607 0.54125 0.6014 0.0
C674 C 0.01922 0.53215 0.88632 0.0
C675 C 0.97445 0.51825 0.87746 0.0
C676 C 0.03704 0.50543 0.8838 0.0
C677 C 0.01091 0.46335 0.88081 0.0
H678 H 0.04128 0.5644 0.89092 0.0
H679 H 0.07155 0.51798 0.87938 0.0
S680 S 0.89574 0.41324 0.8293 0.0
N681 N 0.9079 0.46145 0.83966 0.0
N682 N 0.93915 0.40976 0.85185 0.0
C683 C 0.96633 0.44906 0.86821 0.0
C684 C 0.94868 0.47682 0.86368 0.0
C685 C 0.52849 0.04358 0.2473 0.0
C686 C 0.54766 0.01816 0.24349 0.0
C687 C 0.48331 0.02773 0.25079 0.0
C688 C 0.45532 0.98595 0.24087 0.0
H689 H 0.54845 0.07579 0.24367 0.0
H690 H 0.47028 0.04873 0.25813 0.0
S691 S 0.49039 0.91404 0.17219 0.0
N692 N 0.53548 0.95258 0.1992 0.0
N693 N 0.4512 0.92543 0.19001 0.0
C694 C 0.47421 0.96211 0.21965 0.0
C695 C 0.5202 0.97748 0.22344 0.0
loop_
_geom_bond_atom_site_label_1
_geom_bond_atom_site_label_2
_geom_bond_distance
_geom_bond_site_symmetry_2
_ccdc_geom_bond_type
Mn0 O5 2.095 . S
Mn0 O15 2.162 . S
Mn0 O16 2.297 . S
Mn0 O24 2.385 . S
Mn0 O25 2.209 . S
Mn0 O26 2.094 1_554 S
Mn1 O6 2.121 1_556 S
Mn1 N8 2.257 . S
Mn1 N17 2.282 . S
Mn1 O25 2.215 1_556 S
Mn1 O27 2.117 . S
C2 O24 1.234 . S
C2 O25 1.283 . S
C3 O15 1.281 . S
C3 O16 1.236 . S
C4 O26 1.240 . S
C4 O27 1.264 . S
O5 Mn0 2.095 . S
O5 C14 1.250 . S
O6 Mn1 2.121 1_554 S
O6 C14 1.258 . S
C7 N8 1.326 . S
C7 C11 1.460 . S
C7 H13 0.929 1_556 S
N8 Mn1 2.257 . S
N8 C7 1.326 . S
N8 C12 1.362 . S
C9 C10 1.258 . S
C9 C12 1.431 . S
C9 C29 1.449 . S
C10 C9 1.258 . S
C10 C11 1.477 . S
C10 H30 0.931 . S
C11 C7 1.460 . S
C11 C10 1.477 . S
C11 H31 0.930 1_556 S
C12 N8 1.362 . S
C12 C9 1.431 . S
C12 C22 1.476 . S
H13 C7 0.929 1_554 S
C14 O5 1.250 . S
C14 O6 1.258 . S
O15 Mn0 2.162 . S
O15 C3 1.281 . S
O16 Mn0 2.297 . S
O16 C3 1.236 . S
N17 Mn1 2.282 . S
N17 C18 1.328 . S
N17 C22 1.318 . S
C18 N17 1.328 . S
C18 C19 1.457 . S
C18 H23 0.929 . S
C19 C18 1.457 . S
C19 C20 1.291 . S
C19 H32 0.931 . S
C20 C19 1.291 . S
C20 C21 1.373 . S
C20 H33 0.929 . S
C21 C20 1.373 . S
C21 C22 1.396 . S
C21 C28 1.403 . S
C22 C12 1.476 . S
C22 N17 1.318 . S
C22 C21 1.396 . S
H23 C18 0.929 . S
O24 Mn0 2.385 . S
O24 C2 1.234 . S
O25 Mn0 2.209 . S
O25 Mn1 2.215 1_554 S
O25 C2 1.283 . S
O26 Mn0 2.094 1_556 S
O26 C4 1.240 . S
O27 Mn1 2.117 . S
O27 C4 1.264 . S
C28 C21 1.403 . S
C28 C29 1.399 . S
C28 H34 0.929 . S
C29 C9 1.449 . S
C29 C28 1.399 . S
C29 H35 0.930 . S
H30 C10 0.931 . S
H31 C11 0.930 1_554 S
H32 C19 0.931 . S
H33 C20 0.929 . S
H34 C28 0.929 . S
H35 C29 0.930 . S
Mn36 O41 2.095 . S
Mn36 O51 2.162 . S
Mn36 O52 2.297 . S
Mn36 O60 2.385 . S
Mn36 O61 2.209 1_655 S
Mn36 O62 2.094 . S
Mn37 O42 2.121 . S
Mn37 N44 2.257 . S
Mn37 N53 2.282 . S
Mn37 O61 2.215 . S
Mn37 O63 2.117 . S
C38 O60 1.234 . S
C38 O61 1.283 1_655 S
C39 O51 1.281 . S
C39 O52 1.236 . S
C40 O62 1.240 . S
C40 O63 1.264 1_655 S
O41 Mn36 2.095 . S
O41 C50 1.250 . S
O42 Mn37 2.121 . S
O42 C50 1.258 1_455 S
C43 N44 1.326 . S
C43 C47 1.460 . S
C43 H49 0.929 . S
N44 Mn37 2.257 . S
N44 C43 1.326 . S
N44 C48 1.362 . S
C45 C46 1.258 . S
C45 C48 1.431 . S
C45 C65 1.449 . S
C46 C45 1.258 . S
C46 C47 1.477 . S
C46 H66 0.931 . S
C47 C43 1.460 . S
C47 C46 1.477 . S
C47 H67 0.930 . S
C48 N44 1.362 . S
C48 C45 1.431 . S
C48 C58 1.476 . S
H49 C43 0.929 . S
C50 O41 1.250 . S
C50 O42 1.258 1_655 S
O51 Mn36 2.162 . S
O51 C39 1.281 . S
O52 Mn36 2.297 . S
O52 C39 1.236 . S
N53 Mn37 2.282 . S
N53 C54 1.328 . S
N53 C58 1.318 . S
C54 N53 1.328 . S
C54 C55 1.457 . S
C54 H59 0.929 . S
C55 C54 1.457 . S
C55 C56 1.291 . S
C55 H68 0.931 . S
C56 C55 1.291 . S
C56 C57 1.373 . S
C56 H69 0.929 . S
C57 C56 1.373 . S
C57 C58 1.396 . S
C57 C64 1.403 . S
C58 C48 1.476 . S
C58 N53 1.318 . S
C58 C57 1.396 . S
H59 C54 0.929 . S
O60 Mn36 2.385 . S
O60 C38 1.234 . S
O61 Mn36 2.209 1_455 S
O61 Mn37 2.215 . S
O61 C38 1.283 1_455 S
O62 Mn36 2.094 . S
O62 C40 1.240 . S
O63 Mn37 2.117 . S
O63 C40 1.264 1_455 S
C64 C57 1.403 . S
C64 C65 1.399 . S
C64 H70 0.929 . S
C65 C45 1.449 . S
C65 C64 1.399 . S
C65 H71 0.930 . S
H66 C46 0.931 . S
H67 C47 0.930 . S
H68 C55 0.931 . S
H69 C56 0.929 . S
H70 C64 0.929 . S
H71 C65 0.930 . S
Mn72 O77 2.095 . S
Mn72 O87 2.162 1_565 S
Mn72 O88 2.297 . S
Mn72 O96 2.385 1_565 S
Mn72 O97 2.209 . S
Mn72 O98 2.094 1_565 S
Mn73 O78 2.121 . S
Mn73 N80 2.257 . S
Mn73 N89 2.282 . S
Mn73 O97 2.215 . S
Mn73 O99 2.117 . S
C74 O96 1.234 1_565 S
C74 O97 1.283 . S
C75 O87 1.281 1_565 S
C75 O88 1.236 . S
C76 O98 1.240 1_565 S
C76 O99 1.264 . S
O77 Mn72 2.095 . S
O77 C86 1.250 . S
O78 Mn73 2.121 . S
O78 C86 1.258 . S
C79 N80 1.326 . S
C79 C83 1.460 . S
C79 H85 0.929 . S
N80 Mn73 2.257 . S
N80 C79 1.326 . S
N80 C84 1.362 . S
C81 C82 1.258 . S
C81 C84 1.431 . S
C81 C101 1.449 . S
C82 C81 1.258 . S
C82 C83 1.477 . S
C82 H102 0.931 . S
C83 C79 1.460 . S
C83 C82 1.477 . S
C83 H103 0.930 . S
C84 N80 1.362 . S
C84 C81 1.431 . S
C84 C94 1.476 . S
H85 C79 0.929 . S
C86 O77 1.250 . S
C86 O78 1.258 . S
O87 Mn72 2.162 1_545 S
O87 C75 1.281 1_545 S
O88 Mn72 2.297 . S
O88 C75 1.236 . S
N89 Mn73 2.282 . S
N89 C90 1.328 . S
N89 C94 1.318 . S
C90 N89 1.328 . S
C90 C91 1.457 1_565 S
C90 H95 0.929 1_565 S
C91 C90 1.457 1_545 S
C91 C92 1.291 1_545 S
C91 H104 0.931 . S
C92 C91 1.291 1_565 S
C92 C93 1.373 . S
C92 H105 0.929 . S
C93 C92 1.373 . S
C93 C94 1.396 . S
C93 C100 1.403 . S
C94 C84 1.476 . S
C94 N89 1.318 . S
C94 C93 1.396 . S
H95 C90 0.929 1_545 S
O96 Mn72 2.385 1_545 S
O96 C74 1.234 1_545 S
O97 Mn72 2.209 . S
O97 Mn73 2.215 . S
O97 C74 1.283 . S
O98 Mn72 2.094 1_545 S
O98 C76 1.240 1_545 S
O99 Mn73 2.117 . S
O99 C76 1.264 . S
C100 C93 1.403 . S
C100 C101 1.399 . S
C100 H106 0.929 . S
C101 C81 1.449 . S
C101 C100 1.399 . S
C101 H107 0.930 . S
H102 C82 0.931 . S
H103 C83 0.930 . S
H104 C91 0.931 . S
H105 C92 0.929 . S
H106 C100 0.929 . S
H107 C101 0.930 . S
Mn108 O113 2.095 . S
Mn108 O123 2.162 . S
Mn108 O124 2.297 . S
Mn108 O132 2.385 . S
Mn108 O133 2.209 . S
Mn108 O134 2.094 1_554 S
Mn109 O114 2.121 1_556 S
Mn109 N116 2.257 . S
Mn109 N125 2.282 . S
Mn109 O133 2.215 1_556 S
Mn109 O135 2.117 . S
C110 O132 1.234 . S
C110 O133 1.283 . S
C111 O123 1.281 . S
C111 O124 1.236 . S
C112 O134 1.240 . S
C112 O135 1.264 . S
O113 Mn108 2.095 . S
O113 C122 1.250 . S
O114 Mn109 2.121 1_554 S
O114 C122 1.258 . S
C115 N116 1.326 . S
C115 C119 1.460 . S
C115 H121 0.929 1_556 S
N116 Mn109 2.257 . S
N116 C115 1.326 . S
N116 C120 1.362 . S
C117 C118 1.258 . S
C117 C120 1.431 . S
C117 C137 1.449 . S
C118 C117 1.258 . S
C118 C119 1.477 . S
C118 H138 0.931 . S
C119 C115 1.460 . S
C119 C118 1.477 . S
C119 H139 0.930 1_556 S
C120 N116 1.362 . S
C120 C117 1.431 . S
C120 C130 1.476 . S
H121 C115 0.929 1_554 S
C122 O113 1.250 . S
C122 O114 1.258 . S
O123 Mn108 2.162 . S
O123 C111 1.281 . S
O124 Mn108 2.297 . S
O124 C111 1.236 . S
N125 Mn109 2.282 . S
N125 C126 1.328 . S
N125 C130 1.318 . S
C126 N125 1.328 . S
C126 C127 1.457 . S
C126 H131 0.929 . S
C127 C126 1.457 . S
C127 C128 1.291 . S
C127 H140 0.931 . S
C128 C127 1.291 . S
C128 C129 1.373 . S
C128 H141 0.929 . S
C129 C128 1.373 . S
C129 C130 1.396 . S
C129 C136 1.403 . S
C130 C120 1.476 . S
C130 N125 1.318 . S
C130 C129 1.396 . S
H131 C126 0.929 . S
O132 Mn108 2.385 . S
O132 C110 1.234 . S
O133 Mn108 2.209 . S
O133 Mn109 2.215 1_554 S
O133 C110 1.283 . S
O134 Mn108 2.094 1_556 S
O134 C112 1.240 . S
O135 Mn109 2.117 . S
O135 C112 1.264 . S
C136 C129 1.403 . S
C136 C137 1.399 . S
C136 H142 0.929 . S
C137 C117 1.449 . S
C137 C136 1.399 . S
C137 H143 0.930 . S
H138 C118 0.931 . S
H139 C119 0.930 1_554 S
H140 C127 0.931 . S
H141 C128 0.929 . S
H142 C136 0.929 . S
H143 C137 0.930 . S
Mn144 O149 2.095 . S
Mn144 O159 2.162 . S
Mn144 O160 2.297 . S
Mn144 O168 2.385 . S
Mn144 O169 2.209 1_455 S
Mn144 O170 2.094 . S
Mn145 O150 2.121 . S
Mn145 N152 2.257 . S
Mn145 N161 2.282 . S
Mn145 O169 2.215 . S
Mn145 O171 2.117 . S
C146 O168 1.234 . S
C146 O169 1.283 1_455 S
C147 O159 1.281 . S
C147 O160 1.236 . S
C148 O170 1.240 . S
C148 O171 1.264 1_455 S
O149 Mn144 2.095 . S
O149 C158 1.250 . S
O150 Mn145 2.121 . S
O150 C158 1.258 1_655 S
C151 N152 1.326 . S
C151 C155 1.460 . S
C151 H157 0.929 . S
N152 Mn145 2.257 . S
N152 C151 1.326 . S
N152 C156 1.362 . S
C153 C154 1.258 . S
C153 C156 1.431 . S
C153 C173 1.449 . S
C154 C153 1.258 . S
C154 C155 1.477 . S
C154 H174 0.931 . S
C155 C151 1.460 . S
C155 C154 1.477 . S
C155 H175 0.930 . S
C156 N152 1.362 . S
C156 C153 1.431 . S
C156 C166 1.476 . S
H157 C151 0.929 . S
C158 O149 1.250 . S
C158 O150 1.258 1_455 S
O159 Mn144 2.162 . S
O159 C147 1.281 . S
O160 Mn144 2.297 . S
O160 C147 1.236 . S
N161 Mn145 2.282 . S
N161 C162 1.328 . S
N161 C166 1.318 . S
C162 N161 1.328 . S
C162 C163 1.457 . S
C162 H167 0.929 . S
C163 C162 1.457 . S
C163 C164 1.291 . S
C163 H176 0.931 . S
C164 C163 1.291 . S
C164 C165 1.373 . S
C164 H177 0.929 . S
C165 C164 1.373 . S
C165 C166 1.396 . S
C165 C172 1.403 . S
C166 C156 1.476 . S
C166 N161 1.318 . S
C166 C165 1.396 . S
H167 C162 0.929 . S
O168 Mn144 2.385 . S
O168 C146 1.234 . S
O169 Mn144 2.209 1_655 S
O169 Mn145 2.215 . S
O169 C146 1.283 1_655 S
O170 Mn144 2.094 . S
O170 C148 1.240 . S
O171 Mn145 2.117 . S
O171 C148 1.264 1_655 S
C172 C165 1.403 . S
C172 C173 1.399 . S
C172 H178 0.929 . S
C173 C153 1.449 . S
C173 C172 1.399 . S
C173 H179 0.930 . S
H174 C154 0.931 . S
H175 C155 0.930 . S
H176 C163 0.931 . S
H177 C164 0.929 . S
H178 C172 0.929 . S
H179 C173 0.930 . S
Mn180 O185 2.095 . S
Mn180 O195 2.162 1_545 S
Mn180 O196 2.297 . S
Mn180 O204 2.385 1_545 S
Mn180 O205 2.209 . S
Mn180 O206 2.094 1_545 S
Mn181 O186 2.121 . S
Mn181 N188 2.257 . S
Mn181 N197 2.282 . S
Mn181 O205 2.215 . S
Mn181 O207 2.117 . S
C182 O204 1.234 1_545 S
C182 O205 1.283 . S
C183 O195 1.281 1_545 S
C183 O196 1.236 . S
C184 O206 1.240 1_545 S
C184 O207 1.264 . S
O185 Mn180 2.095 . S
O185 C194 1.250 . S
O186 Mn181 2.121 . S
O186 C194 1.258 . S
C187 N188 1.326 . S
C187 C191 1.460 . S
C187 H193 0.929 . S
N188 Mn181 2.257 . S
N188 C187 1.326 . S
N188 C192 1.362 . S
C189 C190 1.258 . S
C189 C192 1.431 . S
C189 C209 1.449 . S
C190 C189 1.258 . S
C190 C191 1.477 . S
C190 H210 0.931 . S
C191 C187 1.460 . S
C191 C190 1.477 . S
C191 H211 0.930 . S
C192 N188 1.362 . S
C192 C189 1.431 . S
C192 C202 1.476 . S
H193 C187 0.929 . S
C194 O185 1.250 . S
C194 O186 1.258 . S
O195 Mn180 2.162 1_565 S
O195 C183 1.281 1_565 S
O196 Mn180 2.297 . S
O196 C183 1.236 . S
N197 Mn181 2.282 . S
N197 C198 1.328 . S
N197 C202 1.318 . S
C198 N197 1.328 . S
C198 C199 1.457 1_545 S
C198 H203 0.929 1_545 S
C199 C198 1.457 1_565 S
C199 C200 1.291 1_565 S
C199 H212 0.931 . S
C200 C199 1.291 1_545 S
C200 C201 1.373 . S
C200 H213 0.929 . S
C201 C200 1.373 . S
C201 C202 1.396 . S
C201 C208 1.403 . S
C202 C192 1.476 . S
C202 N197 1.318 . S
C202 C201 1.396 . S
H203 C198 0.929 1_565 S
O204 Mn180 2.385 1_565 S
O204 C182 1.234 1_565 S
O205 Mn180 2.209 . S
O205 Mn181 2.215 . S
O205 C182 1.283 . S
O206 Mn180 2.094 1_565 S
O206 C184 1.240 1_565 S
O207 Mn181 2.117 . S
O207 C184 1.264 . S
C208 C201 1.403 . S
C208 C209 1.399 . S
C208 H214 0.929 . S
C209 C189 1.449 . S
C209 C208 1.399 . S
C209 H215 0.930 . S
H210 C190 0.931 . S
H211 C191 0.930 . S
H212 C199 0.931 . S
H213 C200 0.929 . S
H214 C208 0.929 . S
H215 C209 0.930 . S
Mn216 O221 2.095 . S
Mn216 O231 2.162 . S
Mn216 O232 2.297 . S
Mn216 O240 2.385 . S
Mn216 O241 2.209 . S
Mn216 O242 2.094 . S
Mn217 O222 2.121 . S
Mn217 N224 2.257 . S
Mn217 N233 2.282 . S
Mn217 O241 2.215 . S
Mn217 O243 2.117 . S
C218 O240 1.234 . S
C218 O241 1.283 . S
C219 O231 1.281 . S
C219 O232 1.236 . S
C220 O242 1.240 . S
C220 O243 1.264 . S
O221 Mn216 2.095 . S
O221 C230 1.250 . S
O222 Mn217 2.121 . S
O222 C230 1.258 . S
C223 N224 1.326 . S
C223 C227 1.460 . S
C223 H229 0.929 . S
N224 Mn217 2.257 . S
N224 C223 1.326 . S
N224 C228 1.362 . S
C225 C226 1.258 . S
C225 C228 1.431 . S
C225 C245 1.449 . S
C226 C225 1.258 . S
C226 C227 1.477 . S
C226 H246 0.931 . S
C227 C223 1.460 . S
C227 C226 1.477 . S
C227 H247 0.930 . S
C228 N224 1.362 . S
C228 C225 1.431 . S
C228 C238 1.476 . S
H229 C223 0.929 . S
C230 O221 1.250 . S
C230 O222 1.258 . S
O231 Mn216 2.162 . S
O231 C219 1.281 . S
O232 Mn216 2.297 . S
O232 C219 1.236 . S
N233 Mn217 2.282 . S
N233 C234 1.328 . S
N233 C238 1.318 . S
C234 N233 1.328 . S
C234 C235 1.457 . S
C234 H239 0.929 . S
C235 C234 1.457 . S
C235 C236 1.291 . S
C235 H248 0.931 . S
C236 C235 1.291 . S
C236 C237 1.373 . S
C236 H249 0.929 . S
C237 C236 1.373 . S
C237 C238 1.396 . S
C237 C244 1.403 . S
C238 C228 1.476 . S
C238 N233 1.318 . S
C238 C237 1.396 . S
H239 C234 0.929 . S
O240 Mn216 2.385 . S
O240 C218 1.234 . S
O241 Mn216 2.209 . S
O241 Mn217 2.215 . S
O241 C218 1.283 . S
O242 Mn216 2.094 . S
O242 C220 1.240 . S
O243 Mn217 2.117 . S
O243 C220 1.264 . S
C244 C237 1.403 . S
C244 C245 1.399 . S
C244 H250 0.929 . S
C245 C225 1.449 . S
C245 C244 1.399 . S
C245 H251 0.930 . S
H246 C226 0.931 . S
H247 C227 0.930 . S
H248 C235 0.931 . S
H249 C236 0.929 . S
H250 C244 0.929 . S
H251 C245 0.930 . S
Mn252 O257 2.095 . S
Mn252 O267 2.162 1_655 S
Mn252 O268 2.297 . S
Mn252 O276 2.385 1_655 S
Mn252 O277 2.209 . S
Mn252 O278 2.094 1_656 S
Mn253 O258 2.121 1_554 S
Mn253 N260 2.257 . S
Mn253 N269 2.282 . S
Mn253 O277 2.215 1_554 S
Mn253 O279 2.117 . S
C254 O276 1.234 1_655 S
C254 O277 1.283 . S
C255 O267 1.281 1_655 S
C255 O268 1.236 . S
C256 O278 1.240 . S
C256 O279 1.264 1_455 S
O257 Mn252 2.095 . S
O257 C266 1.250 . S
O258 Mn253 2.121 1_556 S
O258 C266 1.258 . S
C259 N260 1.326 . S
C259 C263 1.460 . S
C259 H265 0.929 1_554 S
N260 Mn253 2.257 . S
N260 C259 1.326 . S
N260 C264 1.362 . S
C261 C262 1.258 . S
C261 C264 1.431 . S
C261 C281 1.449 . S
C262 C261 1.258 . S
C262 C263 1.477 . S
C262 H282 0.931 . S
C263 C259 1.460 . S
C263 C262 1.477 . S
C263 H283 0.930 1_554 S
C264 N260 1.362 . S
C264 C261 1.431 . S
C264 C274 1.476 . S
H265 C259 0.929 1_556 S
C266 O257 1.250 . S
C266 O258 1.258 . S
O267 Mn252 2.162 1_455 S
O267 C255 1.281 1_455 S
O268 Mn252 2.297 . S
O268 C255 1.236 . S
N269 Mn253 2.282 . S
N269 C270 1.328 . S
N269 C274 1.318 . S
C270 N269 1.328 . S
C270 C271 1.457 1_655 S
C270 H275 0.929 1_655 S
C271 C270 1.457 1_455 S
C271 C272 1.291 1_455 S
C271 H284 0.931 . S
C272 C271 1.291 1_655 S
C272 C273 1.373 . S
C272 H285 0.929 . S
C273 C272 1.373 . S
C273 C274 1.396 . S
C273 C280 1.403 . S
C274 C264 1.476 . S
C274 N269 1.318 . S
C274 C273 1.396 . S
H275 C270 0.929 1_455 S
O276 Mn252 2.385 1_455 S
O276 C254 1.234 1_455 S
O277 Mn252 2.209 . S
O277 Mn253 2.215 1_556 S
O277 C254 1.283 . S
O278 Mn252 2.094 1_454 S
O278 C256 1.240 . S
O279 Mn253 2.117 . S
O279 C256 1.264 1_655 S
C280 C273 1.403 . S
C280 C281 1.399 . S
C280 H286 0.929 . S
C281 C261 1.449 . S
C281 C280 1.399 . S
C281 H287 0.930 . S
H282 C262 0.931 . S
H283 C263 0.930 1_556 S
H284 C271 0.931 . S
H285 C272 0.929 . S
H286 C280 0.929 . S
H287 C281 0.930 . S
Mn288 O293 2.095 . S
Mn288 O303 2.162 1_565 S
Mn288 O304 2.297 . S
Mn288 O312 2.385 1_565 S
Mn288 O313 2.209 . S
Mn288 O314 2.094 1_565 S
Mn289 O294 2.121 . S
Mn289 N296 2.257 . S
Mn289 N305 2.282 . S
Mn289 O313 2.215 . S
Mn289 O315 2.117 . S
C290 O312 1.234 1_565 S
C290 O313 1.283 . S
C291 O303 1.281 1_565 S
C291 O304 1.236 . S
C292 O314 1.240 1_565 S
C292 O315 1.264 . S
O293 Mn288 2.095 . S
O293 C302 1.250 . S
O294 Mn289 2.121 . S
O294 C302 1.258 . S
C295 N296 1.326 . S
C295 C299 1.460 . S
C295 H301 0.929 . S
N296 Mn289 2.257 . S
N296 C295 1.326 . S
N296 C300 1.362 . S
C297 C298 1.258 . S
C297 C300 1.431 . S
C297 C317 1.449 . S
C298 C297 1.258 . S
C298 C299 1.477 . S
C298 H318 0.931 . S
C299 C295 1.460 . S
C299 C298 1.477 . S
C299 H319 0.930 . S
C300 N296 1.362 . S
C300 C297 1.431 . S
C300 C310 1.476 . S
H301 C295 0.929 . S
C302 O293 1.250 . S
C302 O294 1.258 . S
O303 Mn288 2.162 1_545 S
O303 C291 1.281 1_545 S
O304 Mn288 2.297 . S
O304 C291 1.236 . S
N305 Mn289 2.282 . S
N305 C306 1.328 . S
N305 C310 1.318 . S
C306 N305 1.328 . S
C306 C307 1.457 1_565 S
C306 H311 0.929 1_565 S
C307 C306 1.457 1_545 S
C307 C308 1.291 1_545 S
C307 H320 0.931 . S
C308 C307 1.291 1_565 S
C308 C309 1.373 . S
C308 H321 0.929 . S
C309 C308 1.373 . S
C309 C310 1.396 . S
C309 C316 1.403 . S
C310 C300 1.476 . S
C310 N305 1.318 . S
C310 C309 1.396 . S
H311 C306 0.929 1_545 S
O312 Mn288 2.385 1_545 S
O312 C290 1.234 1_545 S
O313 Mn288 2.209 . S
O313 Mn289 2.215 . S
O313 C290 1.283 . S
O314 Mn288 2.094 1_545 S
O314 C292 1.240 1_545 S
O315 Mn289 2.117 . S
O315 C292 1.264 . S
C316 C309 1.403 . S
C316 C317 1.399 . S
C316 H322 0.929 . S
C317 C297 1.449 . S
C317 C316 1.399 . S
C317 H323 0.930 . S
H318 C298 0.931 . S
H319 C299 0.930 . S
H320 C307 0.931 . S
H321 C308 0.929 . S
H322 C316 0.929 . S
H323 C317 0.930 . S
Mn324 O329 2.095 . S
Mn324 O339 2.162 . S
Mn324 O340 2.297 . S
Mn324 O348 2.385 . S
Mn324 O349 2.209 . S
Mn324 O350 2.094 . S
Mn325 O330 2.121 . S
Mn325 N332 2.257 . S
Mn325 N341 2.282 . S
Mn325 O349 2.215 . S
Mn325 O351 2.117 . S
C326 O348 1.234 . S
C326 O349 1.283 . S
C327 O339 1.281 . S
C327 O340 1.236 . S
C328 O350 1.240 . S
C328 O351 1.264 . S
O329 Mn324 2.095 . S
O329 C338 1.250 . S
O330 Mn325 2.121 . S
O330 C338 1.258 . S
C331 N332 1.326 . S
C331 C335 1.460 . S
C331 H337 0.929 . S
N332 Mn325 2.257 . S
N332 C331 1.326 . S
N332 C336 1.362 . S
C333 C334 1.258 . S
C333 C336 1.431 . S
C333 C353 1.449 . S
C334 C333 1.258 . S
C334 C335 1.477 . S
C334 H354 0.931 . S
C335 C331 1.460 . S
C335 C334 1.477 . S
C335 H355 0.930 . S
C336 N332 1.362 . S
C336 C333 1.431 . S
C336 C346 1.476 . S
H337 C331 0.929 . S
C338 O329 1.250 . S
C338 O330 1.258 . S
O339 Mn324 2.162 . S
O339 C327 1.281 . S
O340 Mn324 2.297 . S
O340 C327 1.236 . S
N341 Mn325 2.282 . S
N341 C342 1.328 . S
N341 C346 1.318 . S
C342 N341 1.328 . S
C342 C343 1.457 . S
C342 H347 0.929 . S
C343 C342 1.457 . S
C343 C344 1.291 . S
C343 H356 0.931 . S
C344 C343 1.291 . S
C344 C345 1.373 . S
C344 H357 0.929 . S
C345 C344 1.373 . S
C345 C346 1.396 . S
C345 C352 1.403 . S
C346 C336 1.476 . S
C346 N341 1.318 . S
C346 C345 1.396 . S
H347 C342 0.929 . S
O348 Mn324 2.385 . S
O348 C326 1.234 . S
O349 Mn324 2.209 . S
O349 Mn325 2.215 . S
O349 C326 1.283 . S
O350 Mn324 2.094 . S
O350 C328 1.240 . S
O351 Mn325 2.117 . S
O351 C328 1.264 . S
C352 C345 1.403 . S
C352 C353 1.399 . S
C352 H358 0.929 . S
C353 C333 1.449 . S
C353 C352 1.399 . S
C353 H359 0.930 . S
H354 C334 0.931 . S
H355 C335 0.930 . S
H356 C343 0.931 . S
H357 C344 0.929 . S
H358 C352 0.929 . S
H359 C353 0.930 . S
Mn360 O365 2.095 . S
Mn360 O375 2.162 1_455 S
Mn360 O376 2.297 . S
Mn360 O384 2.385 1_455 S
Mn360 O385 2.209 . S
Mn360 O386 2.094 1_456 S
Mn361 O366 2.121 1_554 S
Mn361 N368 2.257 . S
Mn361 N377 2.282 . S
Mn361 O385 2.215 1_554 S
Mn361 O387 2.117 . S
C362 O384 1.234 1_455 S
C362 O385 1.283 . S
C363 O375 1.281 1_455 S
C363 O376 1.236 . S
C364 O386 1.240 . S
C364 O387 1.264 1_655 S
O365 Mn360 2.095 . S
O365 C374 1.250 . S
O366 Mn361 2.121 1_556 S
O366 C374 1.258 . S
C367 N368 1.326 . S
C367 C371 1.460 . S
C367 H373 0.929 1_554 S
N368 Mn361 2.257 . S
N368 C367 1.326 . S
N368 C372 1.362 . S
C369 C370 1.258 . S
C369 C372 1.431 . S
C369 C389 1.449 . S
C370 C369 1.258 . S
C370 C371 1.477 . S
C370 H390 0.931 . S
C371 C367 1.460 . S
C371 C370 1.477 . S
C371 H391 0.930 1_554 S
C372 N368 1.362 . S
C372 C369 1.431 . S
C372 C382 1.476 . S
H373 C367 0.929 1_556 S
C374 O365 1.250 . S
C374 O366 1.258 . S
O375 Mn360 2.162 1_655 S
O375 C363 1.281 1_655 S
O376 Mn360 2.297 . S
O376 C363 1.236 . S
N377 Mn361 2.282 . S
N377 C378 1.328 . S
N377 C382 1.318 . S
C378 N377 1.328 . S
C378 C379 1.457 1_455 S
C378 H383 0.929 1_455 S
C379 C378 1.457 1_655 S
C379 C380 1.291 1_655 S
C379 H392 0.931 . S
C380 C379 1.291 1_455 S
C380 C381 1.373 . S
C380 H393 0.929 . S
C381 C380 1.373 . S
C381 C382 1.396 . S
C381 C388 1.403 . S
C382 C372 1.476 . S
C382 N377 1.318 . S
C382 C381 1.396 . S
H383 C378 0.929 1_655 S
O384 Mn360 2.385 1_655 S
O384 C362 1.234 1_655 S
O385 Mn360 2.209 . S
O385 Mn361 2.215 1_556 S
O385 C362 1.283 . S
O386 Mn360 2.094 1_654 S
O386 C364 1.240 . S
O387 Mn361 2.117 . S
O387 C364 1.264 1_455 S
C388 C381 1.403 . S
C388 C389 1.399 . S
C388 H394 0.929 . S
C389 C369 1.449 . S
C389 C388 1.399 . S
C389 H395 0.930 . S
H390 C370 0.931 . S
H391 C371 0.930 1_556 S
H392 C379 0.931 . S
H393 C380 0.929 . S
H394 C388 0.929 . S
H395 C389 0.930 . S
Mn396 O401 2.095 . S
Mn396 O411 2.162 1_545 S
Mn396 O412 2.297 . S
Mn396 O420 2.385 1_545 S
Mn396 O421 2.209 . S
Mn396 O422 2.094 1_545 S
Mn397 O402 2.121 . S
Mn397 N404 2.257 . S
Mn397 N413 2.282 . S
Mn397 O421 2.215 . S
Mn397 O423 2.117 . S
C398 O420 1.234 1_545 S
C398 O421 1.283 . S
C399 O411 1.281 1_545 S
C399 O412 1.236 . S
C400 O422 1.240 1_545 S
C400 O423 1.264 . S
O401 Mn396 2.095 . S
O401 C410 1.250 . S
O402 Mn397 2.121 . S
O402 C410 1.258 . S
C403 N404 1.326 . S
C403 C407 1.460 . S
C403 H409 0.929 . S
N404 Mn397 2.257 . S
N404 C403 1.326 . S
N404 C408 1.362 . S
C405 C406 1.258 . S
C405 C408 1.431 . S
C405 C425 1.449 . S
C406 C405 1.258 . S
C406 C407 1.477 . S
C406 H426 0.931 . S
C407 C403 1.460 . S
C407 C406 1.477 . S
C407 H427 0.930 . S
C408 N404 1.362 . S
C408 C405 1.431 . S
C408 C418 1.476 . S
H409 C403 0.929 . S
C410 O401 1.250 . S
C410 O402 1.258 . S
O411 Mn396 2.162 1_565 S
O411 C399 1.281 1_565 S
O412 Mn396 2.297 . S
O412 C399 1.236 . S
N413 Mn397 2.282 . S
N413 C414 1.328 . S
N413 C418 1.318 . S
C414 N413 1.328 . S
C414 C415 1.457 1_545 S
C414 H419 0.929 1_545 S
C415 C414 1.457 1_565 S
C415 C416 1.291 1_565 S
C415 H428 0.931 . S
C416 C415 1.291 1_545 S
C416 C417 1.373 . S
C416 H429 0.929 . S
C417 C416 1.373 . S
C417 C418 1.396 . S
C417 C424 1.403 . S
C418 C408 1.476 . S
C418 N413 1.318 . S
C418 C417 1.396 . S
H419 C414 0.929 1_565 S
O420 Mn396 2.385 1_565 S
O420 C398 1.234 1_565 S
O421 Mn396 2.209 . S
O421 Mn397 2.215 . S
O421 C398 1.283 . S
O422 Mn396 2.094 1_565 S
O422 C400 1.240 1_565 S
O423 Mn397 2.117 . S
O423 C400 1.264 . S
C424 C417 1.403 . S
C424 C425 1.399 . S
C424 H430 0.929 . S
C425 C405 1.449 . S
C425 C424 1.399 . S
C425 H431 0.930 . S
H426 C406 0.931 . S
H427 C407 0.930 . S
H428 C415 0.931 . S
H429 C416 0.929 . S
H430 C424 0.929 . S
H431 C425 0.930 . S
C432 C433 1.369 . S
C432 C434 1.419 . S
C432 H436 0.930 . S
C433 C432 1.369 . S
C433 C442 1.429 . S
C434 C432 1.419 . S
C434 C435 1.363 . S
C434 H437 0.929 . S
C435 C434 1.363 . S
C435 C441 1.428 . S
H436 C432 0.930 . S
H437 C434 0.929 . S
S438 N439 1.613 . S
S438 N440 1.610 . S
N439 S438 1.613 . S
N439 C442 1.350 . S
N440 S438 1.610 . S
N440 C441 1.351 . S
C441 C435 1.428 . S
C441 N440 1.351 . S
C441 C442 1.434 . S
C442 C433 1.429 . S
C442 N439 1.350 . S
C442 C441 1.434 . S
C443 C444 1.369 . S
C443 C445 1.419 . S
C443 H447 0.930 . S
C444 C443 1.369 . S
C444 C453 1.435 1_655 S
C445 C443 1.419 . S
C445 C446 1.363 . S
C445 H448 0.929 . S
C446 C445 1.363 . S
C446 C452 1.428 1_655 S
H447 C443 0.930 . S
H448 C445 0.929 . S
S449 N450 1.613 . S
S449 N451 1.610 . S
N450 S449 1.613 . S
N450 C453 1.345 . S
N451 S449 1.610 . S
N451 C452 1.351 . S
C452 C446 1.428 1_455 S
C452 N451 1.351 . S
C452 C453 1.434 . S
C453 C444 1.435 1_455 S
C453 N450 1.345 . S
C453 C452 1.434 . S
C454 C455 1.369 1_545 S
C454 C456 1.419 1_556 S
C454 H458 0.930 . S
C455 C454 1.369 1_565 S
C455 C464 1.429 . S
C456 C454 1.419 1_554 S
C456 C457 1.363 . S
C456 H459 0.929 . S
C457 C456 1.363 . S
C457 C463 1.428 1_545 S
H458 C454 0.930 . S
H459 C456 0.929 . S
S460 N461 1.613 1_554 S
S460 N462 1.610 . S
N461 S460 1.613 1_556 S
N461 C464 1.350 . S
N462 S460 1.610 . S
N462 C463 1.351 . S
C463 C457 1.428 1_565 S
C463 N462 1.351 . S
C463 C464 1.434 1_554 S
C464 C455 1.429 . S
C464 N461 1.350 . S
C464 C463 1.434 1_556 S
C465 C466 1.369 . S
C465 C467 1.419 . S
C465 H469 0.930 . S
C466 C465 1.369 . S
C466 C475 1.429 . S
C467 C465 1.419 . S
C467 C468 1.363 . S
C467 H470 0.929 . S
C468 C467 1.363 . S
C468 C474 1.428 . S
H469 C465 0.930 . S
H470 C467 0.929 . S
S471 N472 1.613 . S
S471 N473 1.610 . S
N472 S471 1.613 . S
N472 C475 1.350 . S
N473 S471 1.610 . S
N473 C474 1.351 . S
C474 C468 1.428 . S
C474 N473 1.351 . S
C474 C475 1.434 . S
C475 C466 1.429 . S
C475 N472 1.350 . S
C475 C474 1.434 . S
C476 C477 1.369 . S
C476 C478 1.419 . S
C476 H480 0.930 . S
C477 C476 1.369 . S
C477 C486 1.429 1_455 S
C478 C476 1.419 . S
C478 C479 1.363 . S
C478 H481 0.929 . S
C479 C478 1.363 . S
C479 C485 1.428 1_455 S
H480 C476 0.930 . S
H481 C478 0.929 . S
S482 N483 1.613 . S
S482 N484 1.610 . S
N483 S482 1.613 . S
N483 C486 1.350 . S
N484 S482 1.610 . S
N484 C485 1.351 . S
C485 C479 1.428 1_655 S
C485 N484 1.351 . S
C485 C486 1.434 . S
C486 C477 1.429 1_655 S
C486 N483 1.350 . S
C486 C485 1.434 . S
C487 C488 1.369 . S
C487 C489 1.419 1_554 S
C487 H491 0.930 . S
C488 C487 1.369 . S
C488 C497 1.429 1_565 S
C489 C487 1.419 1_556 S
C489 C490 1.363 1_565 S
C489 H492 0.929 . S
C490 C489 1.363 1_545 S
C490 C496 1.428 . S
H491 C487 0.930 . S
H492 C489 0.929 . S
S493 N494 1.613 . S
S493 N495 1.610 1_554 S
N494 S493 1.613 . S
N494 C497 1.350 . S
N495 S493 1.610 1_556 S
N495 C496 1.351 . S
C496 C490 1.428 . S
C496 N495 1.351 . S
C496 C497 1.434 1_556 S
C497 C488 1.429 1_545 S
C497 N494 1.350 . S
C497 C496 1.434 1_554 S
C498 C499 1.369 . S
C498 C500 1.419 . S
C498 H502 0.930 . S
C499 C498 1.369 . S
C499 C508 1.429 1_556 S
C500 C498 1.419 . S
C500 C501 1.363 1_556 S
C500 H503 0.929 . S
C501 C500 1.363 1_554 S
C501 C507 1.428 . S
H502 C498 0.930 . S
H503 C500 0.929 . S
S504 N505 1.613 . S
S504 N506 1.610 . S
N505 S504 1.613 . S
N505 C508 1.350 . S
N506 S504 1.610 . S
N506 C507 1.351 . S
C507 C501 1.428 . S
C507 N506 1.351 . S
C507 C508 1.434 . S
C508 C499 1.429 1_554 S
C508 N505 1.350 . S
C508 C507 1.434 . S
C509 C510 1.369 . S
C509 C511 1.419 . S
C509 H513 0.930 . S
C510 C509 1.369 . S
C510 C519 1.429 . S
C511 C509 1.419 . S
C511 C512 1.363 . S
C511 H514 0.929 . S
C512 C511 1.363 . S
C512 C518 1.428 . S
H513 C509 0.930 . S
H514 C511 0.929 . S
S515 N516 1.613 . S
S515 N517 1.610 . S
N516 S515 1.613 . S
N516 C519 1.350 . S
N517 S515 1.610 . S
N517 C518 1.351 . S
C518 C512 1.428 . S
C518 N517 1.351 . S
C518 C519 1.434 . S
C519 C510 1.429 . S
C519 N516 1.350 . S
C519 C518 1.434 . S
C520 C521 1.369 . S
C520 C522 1.419 . S
C520 H524 0.930 . S
C521 C520 1.369 . S
C521 C530 1.429 . S
C522 C520 1.419 . S
C522 C523 1.363 . S
C522 H525 0.929 . S
C523 C522 1.363 . S
C523 C529 1.428 . S
H524 C520 0.930 . S
H525 C522 0.929 . S
S526 N527 1.613 . S
S526 N528 1.610 . S
N527 S526 1.613 . S
N527 C530 1.350 . S
N528 S526 1.610 . S
N528 C529 1.351 . S
C529 C523 1.428 . S
C529 N528 1.351 . S
C529 C530 1.434 . S
C530 C521 1.429 . S
C530 N527 1.350 . S
C530 C529 1.434 . S
C531 C532 1.369 . S
C531 C533 1.419 1_554 S
C531 H535 0.930 . S
C532 C531 1.369 . S
C532 C541 1.429 . S
C533 C531 1.419 1_556 S
C533 C534 1.363 . S
C533 H536 0.929 . S
C534 C533 1.363 . S
C534 C540 1.428 . S
H535 C531 0.930 . S
H536 C533 0.929 . S
S537 N538 1.613 . S
S537 N539 1.610 1_554 S
N538 S537 1.613 . S
N538 C541 1.350 . S
N539 S537 1.610 1_556 S
N539 C540 1.351 . S
C540 C534 1.428 . S
C540 N539 1.351 . S
C540 C541 1.434 1_556 S
C541 C532 1.429 . S
C541 N538 1.350 . S
C541 C540 1.434 1_554 S
C542 C543 1.369 . S
C542 C544 1.419 . S
C542 H546 0.930 . S
C543 C542 1.369 . S
C543 C552 1.429 . S
C544 C542 1.419 . S
C544 C545 1.363 . S
C544 H547 0.929 . S
C545 C544 1.363 . S
C545 C551 1.428 . S
H546 C542 0.930 . S
H547 C544 0.929 . S
S548 N549 1.613 . S
S548 N550 1.610 . S
N549 S548 1.613 . S
N549 C552 1.350 . S
N550 S548 1.610 . S
N550 C551 1.351 . S
C551 C545 1.428 . S
C551 N550 1.351 . S
C551 C552 1.434 . S
C552 C543 1.429 . S
C552 N549 1.350 . S
C552 C551 1.434 . S
C553 C554 1.369 . S
C553 C555 1.419 . S
C553 H557 0.930 . S
C554 C553 1.369 . S
C554 C563 1.429 . S
C555 C553 1.419 . S
C555 C556 1.363 . S
C555 H558 0.929 . S
C556 C555 1.363 . S
C556 C562 1.428 . S
H557 C553 0.930 . S
H558 C555 0.929 . S
S559 N560 1.613 . S
S559 N561 1.610 . S
N560 S559 1.613 . S
N560 C563 1.350 . S
N561 S559 1.610 . S
N561 C562 1.351 . S
C562 C556 1.428 . S
C562 N561 1.351 . S
C562 C563 1.434 . S
C563 C554 1.429 . S
C563 N560 1.350 . S
C563 C562 1.434 . S
C564 C565 1.369 . S
C564 C566 1.419 . S
C564 H568 0.930 . S
C565 C564 1.369 . S
C565 C574 1.429 . S
C566 C564 1.419 . S
C566 C567 1.363 . S
C566 H569 0.929 . S
C567 C566 1.363 . S
C567 C573 1.428 . S
H568 C564 0.930 . S
H569 C566 0.929 . S
S570 N571 1.613 . S
S570 N572 1.610 . S
N571 S570 1.613 . S
N571 C574 1.350 . S
N572 S570 1.610 . S
N572 C573 1.351 . S
C573 C567 1.428 . S
C573 N572 1.351 . S
C573 C574 1.434 . S
C574 C565 1.429 . S
C574 N571 1.350 . S
C574 C573 1.434 . S
C575 C576 1.369 . S
C575 C577 1.419 . S
C575 H579 0.930 . S
C576 C575 1.369 . S
C576 C585 1.429 1_455 S
C577 C575 1.419 . S
C577 C578 1.363 1_455 S
C577 H580 0.929 . S
C578 C577 1.363 1_655 S
C578 C584 1.428 . S
H579 C575 0.930 . S
H580 C577 0.929 . S
S581 N582 1.613 . S
S581 N583 1.610 . S
N582 S581 1.613 . S
N582 C585 1.350 . S
N583 S581 1.610 . S
N583 C584 1.351 . S
C584 C578 1.428 . S
C584 N583 1.351 . S
C584 C585 1.434 . S
C585 C576 1.429 1_655 S
C585 N582 1.350 . S
C585 C584 1.434 . S
C586 C587 1.369 . S
C586 C588 1.419 . S
C586 H590 0.930 . S
C587 C586 1.369 . S
C587 C596 1.429 1_545 S
C588 C586 1.419 . S
C588 C589 1.363 1_545 S
C588 H591 0.929 . S
C589 C588 1.363 1_565 S
C589 C595 1.428 . S
H590 C586 0.930 . S
H591 C588 0.929 . S
S592 N593 1.613 . S
S592 N594 1.610 . S
N593 S592 1.613 . S
N593 C596 1.350 . S
N594 S592 1.610 . S
N594 C595 1.351 . S
C595 C589 1.428 . S
C595 N594 1.351 . S
C595 C596 1.434 . S
C596 C587 1.429 1_565 S
C596 N593 1.350 . S
C596 C595 1.434 . S
C597 C598 1.369 . S
C597 C599 1.419 . S
C597 H601 0.930 . S
C598 C597 1.369 . S
C598 C607 1.429 . S
C599 C597 1.419 . S
C599 C600 1.363 . S
C599 H602 0.929 . S
C600 C599 1.363 . S
C600 C606 1.428 . S
H601 C597 0.930 . S
H602 C599 0.929 . S
S603 N604 1.613 . S
S603 N605 1.610 . S
N604 S603 1.613 . S
N604 C607 1.350 . S
N605 S603 1.610 . S
N605 C606 1.351 . S
C606 C600 1.428 . S
C606 N605 1.351 . S
C606 C607 1.434 . S
C607 C598 1.429 . S
C607 N604 1.350 . S
C607 C606 1.434 . S
C608 C609 1.369 . S
C608 C610 1.419 . S
C608 H612 0.930 . S
C609 C608 1.369 . S
C609 C618 1.429 1_655 S
C610 C608 1.419 . S
C610 C611 1.363 1_655 S
C610 H613 0.929 . S
C611 C610 1.363 1_455 S
C611 C617 1.428 . S
H612 C608 0.930 . S
H613 C610 0.929 . S
S614 N615 1.613 . S
S614 N616 1.610 . S
N615 S614 1.613 . S
N615 C618 1.350 . S
N616 S614 1.610 . S
N616 C617 1.351 . S
C617 C611 1.428 . S
C617 N616 1.351 . S
C617 C618 1.434 . S
C618 C609 1.429 1_455 S
C618 N615 1.350 . S
C618 C617 1.434 . S
C619 C620 1.369 . S
C619 C621 1.419 . S
C619 H623 0.930 . S
C620 C619 1.369 . S
C620 C629 1.429 1_545 S
C621 C619 1.419 . S
C621 C622 1.363 1_545 S
C621 H624 0.929 . S
C622 C621 1.363 1_565 S
C622 C628 1.428 . S
H623 C619 0.930 . S
H624 C621 0.929 . S
S625 N626 1.613 . S
S625 N627 1.610 . S
N626 S625 1.613 . S
N626 C629 1.350 . S
N627 S625 1.610 . S
N627 C628 1.351 . S
C628 C622 1.428 . S
C628 N627 1.351 . S
C628 C629 1.434 . S
C629 C620 1.429 1_565 S
C629 N626 1.350 . S
C629 C628 1.434 . S
C630 C631 1.369 . S
C630 C632 1.419 . S
C630 H634 0.930 . S
C631 C630 1.369 . S
C631 C640 1.429 . S
C632 C630 1.419 . S
C632 C633 1.363 . S
C632 H635 0.929 . S
C633 C632 1.363 . S
C633 C639 1.428 . S
H634 C630 0.930 . S
H635 C632 0.929 . S
S636 N637 1.613 . S
S636 N638 1.610 . S
N637 S636 1.613 . S
N637 C640 1.350 1_556 S
N638 S636 1.610 . S
N638 C639 1.351 1_556 S
C639 C633 1.428 . S
C639 N638 1.351 1_554 S
C639 C640 1.434 . S
C640 C631 1.429 . S
C640 N637 1.350 1_554 S
C640 C639 1.434 . S
C641 C642 1.369 1_655 S
C641 C643 1.419 . S
C641 H645 0.930 . S
C642 C641 1.369 1_455 S
C642 C651 1.429 . S
C643 C641 1.419 . S
C643 C644 1.363 . S
C643 H646 0.929 . S
C644 C643 1.363 . S
C644 C650 1.428 1_655 S
H645 C641 0.930 . S
H646 C643 0.929 . S
S647 N648 1.613 . S
S647 N649 1.610 . S
N648 S647 1.613 . S
N648 C651 1.350 . S
N649 S647 1.610 . S
N649 C650 1.351 . S
C650 C644 1.428 1_455 S
C650 N649 1.351 . S
C650 C651 1.434 . S
C651 C642 1.429 . S
C651 N648 1.350 . S
C651 C650 1.434 . S
C652 C653 1.369 1_545 S
C652 C654 1.419 . S
C652 H656 0.930 . S
C653 C652 1.369 1_565 S
C653 C662 1.429 . S
C654 C652 1.419 . S
C654 C655 1.363 . S
C654 H657 0.929 . S
C655 C654 1.363 . S
C655 C661 1.428 1_545 S
H656 C652 0.930 . S
H657 C654 0.929 . S
S658 N659 1.613 . S
S658 N660 1.610 . S
N659 S658 1.613 . S
N659 C662 1.350 . S
N660 S658 1.610 . S
N660 C661 1.351 . S
C661 C655 1.428 1_565 S
C661 N660 1.351 . S
C661 C662 1.434 . S
C662 C653 1.429 . S
C662 N659 1.350 . S
C662 C661 1.434 . S
C663 C664 1.369 . S
C663 C665 1.419 . S
C663 H667 0.930 . S
C664 C663 1.369 . S
C664 C673 1.429 . S
C665 C663 1.419 . S
C665 C666 1.363 . S
C665 H668 0.929 . S
C666 C665 1.363 . S
C666 C672 1.428 . S
H667 C663 0.930 . S
H668 C665 0.929 . S
S669 N670 1.613 . S
S669 N671 1.610 . S
N670 S669 1.613 . S
N670 C673 1.350 . S
N671 S669 1.610 . S
N671 C672 1.351 . S
C672 C666 1.428 . S
C672 N671 1.351 . S
C672 C673 1.434 . S
C673 C664 1.429 . S
C673 N670 1.350 . S
C673 C672 1.434 . S
C674 C675 1.369 1_455 S
C674 C676 1.419 . S
C674 H678 0.930 . S
C675 C674 1.369 1_655 S
C675 C684 1.429 . S
C676 C674 1.419 . S
C676 C677 1.363 . S
C676 H679 0.929 . S
C677 C676 1.363 . S
C677 C683 1.428 1_455 S
H678 C674 0.930 . S
H679 C676 0.929 . S
S680 N681 1.613 . S
S680 N682 1.610 . S
N681 S680 1.613 . S
N681 C684 1.350 . S
N682 S680 1.610 . S
N682 C683 1.351 . S
C683 C677 1.428 1_655 S
C683 N682 1.351 . S
C683 C684 1.434 . S
C684 C675 1.429 . S
C684 N681 1.350 . S
C684 C683 1.434 . S
C685 C686 1.369 . S
C685 C687 1.419 . S
C685 H689 0.930 . S
C686 C685 1.369 . S
C686 C695 1.429 1_545 S
C687 C685 1.419 . S
C687 C688 1.363 1_545 S
C687 H690 0.929 . S
C688 C687 1.363 1_565 S
C688 C694 1.428 . S
H689 C685 0.930 . S
H690 C687 0.929 . S
S691 N692 1.613 . S
S691 N693 1.610 . S
N692 S691 1.613 . S
N692 C695 1.350 . S
N693 S691 1.610 . S
N693 C694 1.351 . S
C694 C688 1.428 . S
C694 N693 1.351 . S
C694 C695 1.434 . S
C695 C686 1.429 1_565 S
C695 N692 1.350 . S
C695 C694 1.434 . S
C433 C3 1.631 . S
C435 C338 1.581 . S
C444 C50 1.573 . S
C446 C363 1.628 1_655 S
C455 C75 1.405 . S
C457 C399 1.408 . S
C466 C111 1.629 . S
C468 C230 1.574 . S
C477 C255 1.627 1_455 S
C479 C158 1.575 . S
C488 C291 1.409 . S
C490 C183 1.406 . S
C499 C374 1.414 . S
C501 C14 1.423 . S
C510 C39 1.519 . S
C512 C410 1.405 . S
C521 C86 1.407 . S
C523 C219 1.519 . S
C532 C122 1.421 . S
C534 C266 1.417 . S
C543 C147 1.522 . S
C545 C302 1.400 . S
C554 C194 1.404 . S
C556 C327 1.520 . S
C565 C326 1.035 . S
C567 C4 1.076 . S
C576 C38 1.034 1_455 S
C578 C364 1.076 . S
C587 C76 0.892 1_545 S
C589 C400 0.903 1_565 S
C598 C218 1.033 . S
C600 C112 1.076 . S
C609 C146 1.043 1_655 S
C611 C256 1.074 . S
C620 C292 0.890 1_545 S
C622 C184 0.903 1_565 S
C631 C2 1.568 . S
C633 C110 1.571 . S
C642 C148 1.363 . S
C644 C40 1.361 . S
C653 C74 1.462 . S
C655 C182 1.455 . S
C664 C220 1.363 . S
C666 C328 1.361 . S
C675 C254 1.573 . S
C677 C362 1.568 . S
C686 C398 1.454 . S
C688 C290 1.461 . S
