# Generated by pormake.
# Topology uoq, (4)-cn, num edge types: 1
# Building blocks:
#     Node 0, Type 0, BuildingBlock: QUQFOY_clean_sbu_3, # of connection points: 4
#     Node 1, Type 0, BuildingBlock: QUQFOY_clean_sbu_3, # of connection points: 4
#     Node 2, Type 0, BuildingBlock: QUQFOY_clean_sbu_3, # of connection points: 4
#     Node 3, Type 0, BuildingBlock: QUQFOY_clean_sbu_3, # of connection points: 4
#     Node 4, Type 0, BuildingBlock: QUQFOY_clean_sbu_3, # of connection points: 4
#     Node 5, Type 0, BuildingBlock: QUQFOY_clean_sbu_3, # of connection points: 4
#     Node 6, Type 0, BuildingBlock: QUQFOY_clean_sbu_3, # of connection points: 4
#     Node 7, Type 0, BuildingBlock: QUQFOY_clean_sbu_3, # of connection points: 4
#     Node 8, Type 0, BuildingBlock: QUQFOY_clean_sbu_3, # of connection points: 4
#     Node 9, Type 0, BuildingBlock: QUQFOY_clean_sbu_3, # of connection points: 4
#     Node 10, Type 0, BuildingBlock: QUQFOY_clean_sbu_3, # of connection points: 4
#     Node 11, Type 0, BuildingBlock: QUQFOY_clean_sbu_3, # of connection points: 4
#     Edge 12, Type (0, 0), BuildingBlock: KIFKEQ_clean_linker_1, # of connection points: 2
#     Edge 13, Type (0, 0), BuildingBlock: KIFKEQ_clean_linker_1, # of connection points: 2
#     Edge 14, Type (0, 0), BuildingBlock: KIFKEQ_clean_linker_1, # of connection points: 2
#     Edge 15, Type (0, 0), BuildingBlock: KIFKEQ_clean_linker_1, # of connection points: 2
#     Edge 16, Type (0, 0), BuildingBlock: KIFKEQ_clean_linker_1, # of connection points: 2
#     Edge 17, Type (0, 0), BuildingBlock: KIFKEQ_clean_linker_1, # of connection points: 2
#     Edge 18, Type (0, 0), BuildingBlock: KIFKEQ_clean_linker_1, # of connection points: 2
#     Edge 19, Type (0, 0), BuildingBlock: KIFKEQ_clean_linker_1, # of connection points: 2
#     Edge 20, Type (0, 0), BuildingBlock: KIFKEQ_clean_linker_1, # of connection points: 2
#     Edge 21, Type (0, 0), BuildingBlock: KIFKEQ_clean_linker_1, # of connection points: 2
#     Edge 22, Type (0, 0), BuildingBlock: KIFKEQ_clean_linker_1, # of connection points: 2
#     Edge 23, Type (0, 0), BuildingBlock: KIFKEQ_clean_linker_1, # of connection points: 2
#     Edge 24, Type (0, 0), BuildingBlock: KIFKEQ_clean_linker_1, # of connection points: 2
#     Edge 25, Type (0, 0), BuildingBlock: KIFKEQ_clean_linker_1, # of connection points: 2
#     Edge 26, Type (0, 0), BuildingBlock: KIFKEQ_clean_linker_1, # of connection points: 2
#     Edge 27, Type (0, 0), BuildingBlock: KIFKEQ_clean_linker_1, # of connection points: 2
#     Edge 28, Type (0, 0), BuildingBlock: KIFKEQ_clean_linker_1, # of connection points: 2
#     Edge 29, Type (0, 0), BuildingBlock: KIFKEQ_clean_linker_1, # of connection points: 2
#     Edge 30, Type (0, 0), BuildingBlock: KIFKEQ_clean_linker_1, # of connection points: 2
#     Edge 31, Type (0, 0), BuildingBlock: KIFKEQ_clean_linker_1, # of connection points: 2
#     Edge 32, Type (0, 0), BuildingBlock: KIFKEQ_clean_linker_1, # of connection points: 2
#     Edge 33, Type (0, 0), BuildingBlock: KIFKEQ_clean_linker_1, # of connection points: 2
#     Edge 34, Type (0, 0), BuildingBlock: KIFKEQ_clean_linker_1, # of connection points: 2
#     Edge 35, Type (0, 0), BuildingBlock: KIFKEQ_clean_linker_1, # of connection points: 2
# Relax obj value: 0.158
# Max RMSD: 0.152
# Mean RMSD: 0.152
data_MOF--net-uoq--node1-QUQFOY_clean_sbu_3--edge1-KIFKEQ_clean_linker_1
_symmetry_space_group_name_H-M    P1
_symmetry_Int_Tables_number       1
_symmetry_cell_setting            triclinic
loop_
_symmetry_equiv_pos_as_xyz
'x, y, z'
_cell_length_a     61.629645
_cell_length_b     61.626123
_cell_length_c     23.745601
_cell_angle_alpha  89.984583
_cell_angle_beta   89.908738
_cell_angle_gamma 119.9386
loop_
_atom_site_label
_atom_site_type_symbol
_atom_site_fract_x
_atom_site_fract_y
_atom_site_fract_z
_atom_type_partial_charge
C0 C 0.29709 0.38676 0.38254 0.0
O1 O 0.30259 0.39536 0.43226 0.0
Cd2 Cd 0.30583 0.4322 0.46988 0.0
O3 O 0.29111 0.39765 0.34469 0.0
Cd4 Cd 0.28374 0.43452 0.34003 0.0
C5 C 0.34535 0.47485 0.36997 0.0
O6 O 0.26913 0.42923 0.43419 0.0
O7 O 0.2742 0.46305 0.39622 0.0
O8 O 0.245 0.41176 0.28471 0.0
C9 C 0.26817 0.44908 0.43924 0.0
O10 O 0.34102 0.46602 0.41986 0.0
C11 C 0.2514 0.42868 0.24739 0.0
O12 O 0.32826 0.46624 0.33244 0.0
O13 O 0.27328 0.44754 0.25159 0.0
C14 C 0.90279 0.30223 0.6502 0.0
O15 O 0.88978 0.29688 0.69483 0.0
Cd16 Cd 0.8477 0.28609 0.70209 0.0
O17 O 0.89294 0.3009 0.60191 0.0
Cd18 Cd 0.84842 0.28656 0.56943 0.0
C19 C 0.85002 0.33627 0.63193 0.0
O20 O 0.82806 0.25335 0.63565 0.0
O21 O 0.8044 0.26689 0.60449 0.0
O22 O 0.84729 0.25898 0.49377 0.0
C23 C 0.80629 0.25021 0.63159 0.0
O24 O 0.84731 0.32443 0.67777 0.0
C25 C 0.83704 0.26628 0.45791 0.0
O26 O 0.85209 0.32739 0.58508 0.0
O27 O 0.83472 0.28492 0.47183 0.0
C28 C 0.5814 0.87957 0.01048 0.0
O29 O 0.57188 0.8654 0.05295 0.0
Cd30 Cd 0.53299 0.82709 0.05132 0.0
O31 O 0.57149 0.87264 0.96183 0.0
Cd32 Cd 0.53578 0.83526 0.91662 0.0
C33 C 0.49767 0.84993 0.98659 0.0
O34 O 0.53199 0.80181 0.97529 0.0
O35 O 0.49817 0.79465 0.93324 0.0
O36 O 0.56231 0.83129 0.84637 0.0
C37 C 0.50923 0.78651 0.96434 0.0
O38 O 0.50304 0.84078 0.02898 0.0
C39 C 0.54825 0.82861 0.80483 0.0
O40 O 0.50822 0.85212 0.93893 0.0
O41 O 0.52936 0.83121 0.81456 0.0
C42 C 0.67891 0.61222 0.26508 0.0
O43 O 0.68211 0.60712 0.31507 0.0
Cd44 Cd 0.68617 0.57277 0.34488 0.0
O45 O 0.67905 0.59906 0.22358 0.0
Cd46 Cd 0.68758 0.56319 0.21382 0.0
C47 C 0.63416 0.524 0.2815 0.0
O48 O 0.7182 0.5743 0.28745 0.0
O49 O 0.69838 0.53532 0.26522 0.0
O50 O 0.71712 0.58235 0.13517 0.0
C51 C 0.71606 0.55289 0.29241 0.0
O52 O 0.64598 0.53484 0.32629 0.0
C53 C 0.70876 0.56211 0.1075 0.0
O54 O 0.64415 0.53175 0.23319 0.0
O55 O 0.68919 0.54321 0.12656 0.0
C56 C 0.08347 0.68597 0.66885 0.0
O57 O 0.09128 0.69038 0.71923 0.0
Cd58 Cd 0.1302 0.69727 0.75147 0.0
O59 O 0.09786 0.68718 0.62854 0.0
Cd60 Cd 0.1436 0.69984 0.61923 0.0
C61 C 0.1304 0.64671 0.68633 0.0
O62 O 0.15954 0.7298 0.69388 0.0
O63 O 0.18226 0.7135 0.67394 0.0
O64 O 0.15072 0.72916 0.54192 0.0
C65 C 0.17966 0.72956 0.70184 0.0
O66 O 0.12924 0.65796 0.73031 0.0
C67 C 0.16556 0.72423 0.51498 0.0
O68 O 0.1343 0.65699 0.63788 0.0
O69 O 0.16815 0.70632 0.53353 0.0
C70 C 0.40207 0.09306 0.94063 0.0
O71 O 0.40903 0.10731 0.98332 0.0
Cd72 Cd 0.44372 0.14786 0.98818 0.0
O73 O 0.41321 0.10086 0.89312 0.0
Cd74 Cd 0.44834 0.1425 0.8567 0.0
C75 C 0.48859 0.1346 0.93791 0.0
O76 O 0.43803 0.16865 0.91081 0.0
O77 O 0.47657 0.18665 0.88589 0.0
O78 O 0.42522 0.14193 0.7719 0.0
C79 C 0.45876 0.18868 0.90688 0.0
O80 O 0.47935 0.14101 0.97831 0.0
C81 C 0.44442 0.15212 0.74033 0.0
O82 O 0.48012 0.13236 0.88798 0.0
O83 O 0.46465 0.1549 0.76103 0.0
C84 C 0.58113 0.6982 0.28331 0.0
O85 O 0.57031 0.69901 0.23861 0.0
Cd86 Cd 0.53016 0.69549 0.23618 0.0
O87 O 0.57186 0.69807 0.33156 0.0
Cd88 Cd 0.53554 0.70115 0.36986 0.0
C89 C 0.49808 0.6431 0.32166 0.0
O90 O 0.5298 0.72534 0.29843 0.0
O91 O 0.49661 0.7008 0.34537 0.0
O92 O 0.5611 0.73645 0.43167 0.0
C93 C 0.50706 0.71808 0.30912 0.0
O94 O 0.50199 0.6535 0.2734 0.0
C95 C 0.54754 0.7269 0.47504 0.0
O96 O 0.50921 0.6558 0.36539 0.0
O97 O 0.52943 0.70458 0.47053 0.0
C98 C 0.89702 0.58554 0.64619 0.0
O99 O 0.88745 0.5792 0.59752 0.0
Cd100 Cd 0.84651 0.54741 0.57744 0.0
O101 O 0.88395 0.57512 0.69032 0.0
Cd102 Cd 0.83859 0.54277 0.70869 0.0
C103 C 0.84674 0.49835 0.64754 0.0
O104 O 0.82157 0.55713 0.63706 0.0
O105 O 0.79779 0.51861 0.66021 0.0
O106 O 0.83495 0.56678 0.78734 0.0
C107 C 0.80021 0.53778 0.63491 0.0
O108 O 0.84616 0.50858 0.60137 0.0
C109 C 0.82054 0.54758 0.81633 0.0
O110 O 0.84569 0.50766 0.69466 0.0
O111 O 0.81669 0.52662 0.79787 0.0
C112 C 0.30287 0.91054 0.02661 0.0
O113 O 0.29567 0.8964 0.98374 0.0
Cd114 Cd 0.28783 0.85498 0.97868 0.0
O115 O 0.30486 0.9022 0.07459 0.0
Cd116 Cd 0.29592 0.85971 0.10962 0.0
C117 C 0.34415 0.86535 0.03341 0.0
O118 O 0.26016 0.83301 0.05342 0.0
O119 O 0.28279 0.817 0.07614 0.0
O120 O 0.27116 0.85715 0.19302 0.0
C121 C 0.26257 0.81384 0.055 0.0
O122 O 0.32891 0.85872 0.99224 0.0
C123 C 0.28083 0.84748 0.2242 0.0
O124 O 0.33789 0.86917 0.08202 0.0
O125 O 0.2996 0.84674 0.20433 0.0
C126 C 0.39078 0.30199 0.30518 0.0
O127 O 0.39665 0.30513 0.25336 0.0
Cd128 Cd 0.433 0.3095 0.21041 0.0
O129 O 0.40455 0.29931 0.34174 0.0
Cd130 Cd 0.4434 0.29503 0.34195 0.0
C131 C 0.47792 0.3555 0.29784 0.0
O132 O 0.43439 0.27585 0.25167 0.0
O133 O 0.47075 0.28524 0.28236 0.0
O134 O 0.42222 0.2603 0.40978 0.0
C135 C 0.45475 0.27618 0.24327 0.0
O136 O 0.4667 0.34785 0.2508 0.0
C137 C 0.44198 0.26558 0.43703 0.0
O138 O 0.47264 0.3406 0.33961 0.0
O139 O 0.46187 0.28533 0.4225 0.0
C140 C 0.08641 0.39936 0.73245 0.0
O141 O 0.10131 0.40661 0.69079 0.0
Cd142 Cd 0.14273 0.44018 0.69109 0.0
O143 O 0.09395 0.40908 0.78123 0.0
Cd144 Cd 0.13549 0.44128 0.82352 0.0
C145 C 0.13191 0.48563 0.74882 0.0
O146 O 0.16242 0.43252 0.76776 0.0
O147 O 0.18015 0.47003 0.79995 0.0
O148 O 0.13409 0.41453 0.90113 0.0
C149 C 0.18241 0.45302 0.77539 0.0
O150 O 0.1378 0.47663 0.70704 0.0
C151 C 0.1415 0.43142 0.93861 0.0
O152 O 0.12861 0.47584 0.79767 0.0
O153 O 0.14343 0.45215 0.92389 0.0
C154 C 0.67753 0.06202 0.0268 0.0
O155 O 0.67754 0.06682 0.97482 0.0
Cd156 Cd 0.68061 0.10241 0.93056 0.0
O157 O 0.68068 0.07807 0.06481 0.0
Cd158 Cd 0.69181 0.12366 0.0649 0.0
C159 C 0.63584 0.10939 0.00608 0.0
O160 O 0.7146 0.13379 0.97905 0.0
O161 O 0.70721 0.16247 0.00779 0.0
O162 O 0.72698 0.1361 0.12905 0.0
C163 C 0.71679 0.155 0.97079 0.0
O164 O 0.64401 0.1046 0.96116 0.0
C165 C 0.72074 0.14788 0.16322 0.0
O166 O 0.64875 0.11581 0.05136 0.0
O167 O 0.69995 0.14691 0.15399 0.0
H168 H 0.29371 0.35081 0.45402 0.0
H169 H 0.30868 0.37466 0.28034 0.0
H170 H 0.30913 0.32186 0.43785 0.0
H171 H 0.32471 0.34615 0.26435 0.0
H172 H 0.3503 0.29195 0.24146 0.0
H173 H 0.31941 0.30466 0.26033 0.0
H174 H 0.3516 0.33061 0.42523 0.0
H175 H 0.38211 0.31728 0.40672 0.0
C176 C 0.29984 0.34947 0.41202 0.0
C177 C 0.30041 0.36527 0.36858 0.0
C178 C 0.30878 0.33297 0.4029 0.0
C179 C 0.31863 0.33205 0.35023 0.0
C180 C 0.31713 0.34627 0.30544 0.0
C181 C 0.30798 0.36267 0.3145 0.0
C182 C 0.35036 0.29981 0.28231 0.0
C183 C 0.36886 0.30404 0.32235 0.0
C184 C 0.33273 0.30718 0.29296 0.0
C185 C 0.33333 0.3191 0.34373 0.0
C186 C 0.35049 0.32134 0.38571 0.0
C187 C 0.36805 0.31376 0.37518 0.0
H188 H 0.9257 0.29455 0.73912 0.0
H189 H 0.94114 0.33124 0.57701 0.0
H190 H 0.97024 0.31492 0.75874 0.0
H191 H 0.98605 0.35205 0.59716 0.0
H192 H 0.0661 0.37272 0.63631 0.0
H193 H 0.02205 0.34609 0.61381 0.0
H194 H 0.00206 0.35789 0.78085 0.0
H195 H 0.0463 0.3844 0.80384 0.0
C196 C 0.93865 0.30683 0.70735 0.0
C197 C 0.92989 0.31154 0.65669 0.0
C198 C 0.96419 0.3186 0.71885 0.0
C199 C 0.98165 0.33543 0.68004 0.0
C200 C 0.97303 0.3391 0.62791 0.0
C201 C 0.94733 0.32719 0.61626 0.0
C202 C 0.05236 0.36947 0.66859 0.0
C203 C 0.05975 0.38085 0.7219 0.0
C204 C 0.02709 0.3543 0.65543 0.0
C205 C 0.00856 0.35005 0.69527 0.0
C206 C 0.01592 0.36063 0.74932 0.0
C207 C 0.04127 0.37587 0.76254 0.0
H208 H 0.6022 0.90294 0.11031 0.0
H209 H 0.60758 0.91496 0.93022 0.0
H210 H 0.63181 0.94734 0.125 0.0
H211 H 0.63683 0.95917 0.945 0.0
H212 H 0.69559 0.03551 0.97444 0.0
H213 H 0.67814 0.99032 0.97818 0.0
H214 H 0.62852 0.98552 0.11247 0.0
H215 H 0.64663 0.03106 0.10958 0.0
C216 C 0.61002 0.91493 0.07379 0.0
C217 C 0.60234 0.90543 0.01901 0.0
C218 C 0.62688 0.94038 0.08234 0.0
C219 C 0.63658 0.95679 0.03629 0.0
C220 C 0.62997 0.947 0.98146 0.0
C221 C 0.61304 0.92163 0.97292 0.0
C222 C 0.68153 0.02485 0.00605 0.0
C223 C 0.67219 0.0366 0.0413 0.0
C224 C 0.67143 -0.00102 0.00791 0.0
C225 C 0.65153 0.9843 0.04458 0.0
C226 C 0.64387 -0.00366 0.08375 0.0
C227 C 0.65423 0.02239 0.08225 0.0
H228 H 0.6508 0.61668 0.18154 0.0
H229 H 0.69252 0.65265 0.33207 0.0
H230 H 0.63268 0.64401 0.18263 0.0
H231 H 0.67507 0.68042 0.33236 0.0
H232 H 0.60671 0.69963 0.18783 0.0
H233 H 0.63672 0.68513 0.17701 0.0
H234 H 0.63369 0.67189 0.35634 0.0
H235 H 0.60416 0.68684 0.36733 0.0
C236 C 0.65673 0.63098 0.21371 0.0
C237 C 0.67269 0.63226 0.25723 0.0
C238 C 0.6464 0.6467 0.21438 0.0
C239 C 0.65208 0.6641 0.25829 0.0
C240 C 0.66983 0.66681 0.29881 0.0
C241 C 0.67992 0.65098 0.29844 0.0
C242 C 0.61285 0.69412 0.22515 0.0
C243 C 0.60277 0.69408 0.27843 0.0
C244 C 0.62995 0.68568 0.21882 0.0
C245 C 0.63738 0.67705 0.2656 0.0
C246 C 0.62858 0.67862 0.31937 0.0
C247 C 0.61152 0.6871 0.32573 0.0
H248 H 0.92772 0.59856 0.73869 0.0
H249 H 0.92729 0.61519 0.56191 0.0
H250 H 0.97302 0.62656 0.74082 0.0
H251 H 0.97227 0.64332 0.56439 0.0
H252 H 0.05465 0.65978 0.57842 0.0
H253 H 0.00902 0.63836 0.57264 0.0
H254 H 0.00608 0.6703 0.73248 0.0
H255 H 0.05147 0.69132 0.73868 0.0
C256 C 0.93719 0.60846 0.70061 0.0
C257 C 0.92393 0.60443 0.6501 0.0
C258 C 0.96313 0.62457 0.7018 0.0
C259 C 0.97623 0.63701 0.65256 0.0
C260 C 0.96278 0.63369 0.60271 0.0
C261 C 0.93696 0.61762 0.60148 0.0
C262 C 0.04428 0.66264 0.61165 0.0
C263 C 0.05662 0.67696 0.65926 0.0
C264 C 0.01814 0.65037 0.60843 0.0
C265 C 0.00395 0.65234 0.65263 0.0
C266 C 0.01645 0.66796 0.69844 0.0
C267 C 0.04248 0.68012 0.70172 0.0
H268 H 0.29584 0.93218 0.93366 0.0
H269 H 0.33004 0.94984 0.09854 0.0
H270 H 0.31607 0.97654 0.91114 0.0
H271 H 0.35042 -0.00559 0.07563 0.0
H272 H 0.37118 0.07341 0.03124 0.0
H273 H 0.34322 0.02952 0.05312 0.0
H274 H 0.36025 0.00874 0.89233 0.0
H275 H 0.38833 0.05292 0.86998 0.0
C276 C 0.30741 0.94554 0.96549 0.0
C277 C 0.31155 0.93744 0.0178 0.0
C278 C 0.31911 0.97096 0.95231 0.0
C279 C 0.33509 0.98892 0.99121 0.0
C280 C 0.33808 0.98097 0.04481 0.0
C281 C 0.32641 0.95544 0.05801 0.0
C282 C 0.36879 0.05955 8e-05 0.0
C283 C 0.38225 0.06668 0.949 0.0
C284 C 0.35282 0.03438 0.01289 0.0
C285 C 0.34979 0.01569 0.97487 0.0
C286 C 0.36213 0.02278 0.92242 0.0
C287 C 0.37822 0.04807 0.90957 0.0
H288 H 0.16538 0.46685 0.0201 0.0
H289 H 0.14181 0.38996 0.97879 0.0
H290 H 0.19019 0.46507 0.09803 0.0
H291 H 0.16686 0.3883 0.05632 0.0
H292 H 0.20353 0.39064 0.22739 0.0
H293 H 0.17356 0.39009 0.15912 0.0
H294 H 0.22925 0.46345 0.10046 0.0
H295 H 0.25902 0.46411 0.16873 0.0
C296 C 0.16503 0.44939 0.02836 0.0
C297 C 0.15173 0.42861 0.99292 0.0
C298 C 0.17949 0.44846 0.07266 0.0
C299 C 0.1809 0.4267 0.08273 0.0
C300 C 0.16619 0.40535 0.04978 0.0
C301 C 0.15181 0.40631 0.0053 0.0
C302 C 0.2094 0.40659 0.19969 0.0
C303 C 0.23369 0.42741 0.20348 0.0
C304 C 0.19222 0.40626 0.1606 0.0
C305 C 0.1989 0.42684 0.12476 0.0
C306 C 0.2233 0.4475 0.1282 0.0
C307 C 0.24048 0.44776 0.16695 0.0
H308 H 0.83407 0.22241 0.42448 0.0
H309 H 0.81061 0.27535 0.37803 0.0
H310 H 0.80634 0.19338 0.35332 0.0
H311 H 0.78325 0.24652 0.30601 0.0
H312 H 0.76724 0.15524 0.1879 0.0
H313 H 0.79768 0.18515 0.25403 0.0
H314 H 0.74409 0.20702 0.30574 0.0
H315 H 0.71383 0.17747 0.23871 0.0
C316 C 0.82347 0.22813 0.39814 0.0
C317 C 0.82449 0.25118 0.40718 0.0
C318 C 0.80751 0.21144 0.35732 0.0
C319 C 0.79221 0.2174 0.32453 0.0
C320 C 0.79432 0.24106 0.33143 0.0
C321 C 0.81027 0.25775 0.37226 0.0
C322 C 0.76186 0.16626 0.21376 0.0
C323 C 0.73807 0.16394 0.208 0.0
C324 C 0.77934 0.18343 0.25172 0.0
C325 C 0.77348 0.19873 0.28483 0.0
C326 C 0.74944 0.19593 0.28006 0.0
C327 C 0.73196 0.17876 0.2421 0.0
H328 H 0.51459 0.8087 0.719 0.0
H329 H 0.58883 0.8256 0.76876 0.0
H330 H 0.51638 0.78479 0.63897 0.0
H331 H 0.59061 0.80181 0.68815 0.0
H332 H 0.51486 0.71554 0.56235 0.0
H333 H 0.51704 0.74312 0.63849 0.0
H334 H 0.58922 0.80058 0.57825 0.0
H335 H 0.58699 0.77307 0.50132 0.0
C336 C 0.53153 0.80784 0.71213 0.0
C337 C 0.55151 0.81892 0.75039 0.0
C338 C 0.53243 0.79393 0.66665 0.0
C339 C 0.55346 0.79114 0.65805 0.0
C340 C 0.57416 0.80364 0.69397 0.0
C341 C 0.57313 0.81727 0.73999 0.0
C342 C 0.53137 0.73391 0.56571 0.0
C343 C 0.55073 0.74214 0.52575 0.0
C344 C 0.53248 0.74978 0.60894 0.0
C345 C 0.55312 0.7741 0.61361 0.0
C346 C 0.57306 0.78195 0.57539 0.0
C347 C 0.57179 0.76618 0.53154 0.0
H348 H 0.74256 0.5988 0.03741 0.0
H349 H 0.70863 0.51997 0.07462 0.0
H350 H 0.76971 0.59505 0.96796 0.0
H351 H 0.73688 0.5164 0.00935 0.0
H352 H 0.77549 0.51084 0.85363 0.0
H353 H 0.74755 0.51446 0.91966 0.0
H354 H 0.80436 0.59114 0.95405 0.0
H355 H 0.83151 0.58785 0.88384 0.0
C356 C 0.74089 0.58065 0.03049 0.0
C357 C 0.72328 0.55963 0.06084 0.0
C358 C 0.75674 0.57851 0.99132 0.0
C359 C 0.75586 0.55542 0.98282 0.0
C360 C 0.73796 0.53441 0.01321 0.0
C361 C 0.72168 0.53643 0.051 0.0
C362 C 0.78214 0.52838 0.8759 0.0
C363 C 0.80575 0.54903 0.86377 0.0
C364 C 0.76607 0.5305 0.91414 0.0
C365 C 0.77342 0.55316 0.94271 0.0
C366 C 0.79759 0.57355 0.9321 0.0
C367 C 0.81341 0.5716 0.89248 0.0
H368 H 0.15637 0.75334 0.4427 0.0
H369 H 0.21235 0.73405 0.48837 0.0
H370 H 0.18546 0.78419 0.37575 0.0
H371 H 0.24218 0.76614 0.42578 0.0
H372 H 0.28382 0.80878 0.26999 0.0
H373 H 0.25566 0.77849 0.33758 0.0
H374 H 0.21967 0.82278 0.36237 0.0
H375 H 0.24681 0.85205 0.29044 0.0
C376 C 0.17493 0.75571 0.43822 0.0
C377 C 0.18197 0.74104 0.47004 0.0
C378 C 0.19186 0.77374 0.40053 0.0
C379 C 0.21654 0.77811 0.39509 0.0
C380 C 0.22335 0.7632 0.4272 0.0
C381 C 0.2062 0.7447 0.46343 0.0
C382 C 0.27021 0.81233 0.29068 0.0
C383 C 0.26759 0.83287 0.27492 0.0
C384 C 0.25392 0.79485 0.32983 0.0
C385 C 0.23494 0.79776 0.35574 0.0
C386 C 0.23341 0.81928 0.34238 0.0
C387 C 0.2493 0.83641 0.30184 0.0
H388 H 0.40445 0.14243 0.67296 0.0
H389 H 0.48418 0.19125 0.68971 0.0
H390 H 0.40377 0.16817 0.59575 0.0
H391 H 0.48345 0.2181 0.61652 0.0
H392 H 0.48055 0.25792 0.46205 0.0
H393 H 0.48082 0.22755 0.52657 0.0
H394 H 0.40468 0.20473 0.57584 0.0
H395 H 0.40402 0.23378 0.50713 0.0
C396 C 0.42188 0.15854 0.65966 0.0
C397 C 0.44438 0.16469 0.68717 0.0
C398 C 0.42148 0.17365 0.61596 0.0
C399 C 0.44348 0.19571 0.59978 0.0
C400 C 0.4661 0.2012 0.62634 0.0
C401 C 0.46658 0.18573 0.66878 0.0
C402 C 0.46392 0.24643 0.48692 0.0
C403 C 0.44235 0.24837 0.47998 0.0
C404 C 0.46405 0.22898 0.52434 0.0
C405 C 0.44282 0.21347 0.55739 0.0
C406 C 0.42128 0.21574 0.55064 0.0
C407 C 0.42094 0.2327 0.51177 0.0
H408 H 0.19692 0.42033 0.74396 0.0
H409 H 0.21688 0.49796 0.72926 0.0
H410 H 0.22587 0.4258 0.66907 0.0
H411 H 0.24652 0.50373 0.65384 0.0
H412 H 0.25021 0.48059 0.46345 0.0
H413 H 0.2379 0.48795 0.55637 0.0
H414 H 0.26747 0.44445 0.63288 0.0
H415 H 0.27823 0.43593 0.54048 0.0
C416 C 0.20821 0.43881 0.72578 0.0
C417 C 0.20454 0.45862 0.74167 0.0
C418 C 0.22496 0.44205 0.68304 0.0
C419 C 0.23836 0.4652 0.65514 0.0
C420 C 0.23622 0.48564 0.67425 0.0
C421 C 0.21948 0.4824 0.71763 0.0
C422 C 0.25438 0.473 0.50037 0.0
C423 C 0.26451 0.45718 0.49486 0.0
C424 C 0.24763 0.47743 0.55359 0.0
C425 C 0.25137 0.46641 0.60183 0.0
C426 C 0.26383 0.4527 0.59638 0.0
C427 C 0.26997 0.4478 0.54339 0.0
H428 H 0.76576 0.25223 0.67327 0.0
H429 H 0.80307 0.20866 0.67645 0.0
H430 H 0.73839 0.22671 0.75045 0.0
H431 H 0.77651 0.18383 0.75338 0.0
H432 H 0.72064 0.134 0.87385 0.0
H433 H 0.73518 0.1539 0.78283 0.0
H434 H 0.74603 0.22359 0.85144 0.0
H435 H 0.73015 0.20314 0.9426 0.0
C436 C 0.76769 0.23686 0.68959 0.0
C437 C 0.7866 0.23247 0.66951 0.0
C438 C 0.75224 0.22246 0.73397 0.0
C439 C 0.75542 0.2034 0.75818 0.0
C440 C 0.77332 0.19813 0.73532 0.0
C441 C 0.78869 0.21248 0.69144 0.0
C442 C 0.72588 0.15351 0.86949 0.0
C443 C 0.72471 0.1672 0.91549 0.0
C444 C 0.73417 0.16488 0.81728 0.0
C445 C 0.74204 0.19036 0.81017 0.0
C446 C 0.73985 0.20384 0.85552 0.0
C447 C 0.73109 0.19227 0.90781 0.0
H448 H 0.51872 0.74982 -0.00533 0.0
H449 H 0.46881 0.77873 0.02519 0.0
H450 H 0.50375 0.72478 0.08058 0.0
H451 H 0.45466 0.75451 0.1127 0.0
H452 H 0.47464 0.68286 0.23786 0.0
H453 H 0.46191 0.69126 0.1464 0.0
H454 H 0.4943 0.76921 0.19111 0.0
H455 H 0.50797 0.76099 0.28121 0.0
C456 C 0.50375 0.74989 0.01854 0.0
C457 C 0.49484 0.76602 0.00376 0.0
C458 C 0.4951 0.73554 0.06742 0.0
C459 C 0.47808 0.73783 0.10284 0.0
C460 C 0.46754 0.75228 0.08548 0.0
C461 C 0.47564 0.76607 0.03559 0.0
C462 C 0.47788 0.7015 0.22901 0.0
C463 C 0.49214 0.72137 0.26596 0.0
C464 C 0.47061 0.70625 0.17693 0.0
C465 C 0.47705 0.73078 0.16228 0.0
C466 C 0.48879 0.75007 0.20209 0.0
C467 C 0.49668 0.74545 0.25339 0.0
H468 H 0.75989 0.5855 0.34145 0.0
H469 H 0.69924 0.50896 0.34995 0.0
H470 H 0.77762 0.57925 0.42709 0.0
H471 H 0.71635 0.50292 0.4375 0.0
H472 H 0.77189 0.49857 0.56508 0.0
H473 H 0.75044 0.50023 0.47997 0.0
H474 H 0.76726 0.57512 0.52431 0.0
H475 H 0.78968 0.57379 0.60724 0.0
C476 C 0.75044 0.5673 0.36168 0.0
C477 C 0.72821 0.54777 0.3395 0.0
C478 C 0.76038 0.56377 0.41107 0.0
C479 C 0.74799 0.54078 0.43989 0.0
C480 C 0.72629 0.52085 0.41629 0.0
C481 C 0.71654 0.52429 0.3662 0.0
C482 C 0.77043 0.5151 0.55698 0.0
C483 C 0.78252 0.53617 0.59194 0.0
C484 C 0.75823 0.51609 0.50832 0.0
C485 C 0.75776 0.53807 0.49471 0.0
C486 C 0.76808 0.55826 0.53259 0.0
C487 C 0.78062 0.55743 0.58038 0.0
H488 H 0.18291 0.76896 0.75858 0.0
H489 H 0.20861 0.71531 0.76088 0.0
H490 H 0.20167 0.78434 0.85027 0.0
H491 H 0.22686 0.73023 0.85411 0.0
H492 H 0.21359 0.79339 0.02991 0.0
H493 H 0.19301 0.76919 0.94588 0.0
H494 H 0.2599 0.76659 0.90307 0.0
H495 H 0.27999 0.78981 0.98867 0.0
C496 C 0.19271 0.76056 0.77874 0.0
C497 C 0.19425 0.74094 0.75297 0.0
C498 C 0.20314 0.76909 0.83156 0.0
C499 C 0.21508 0.75796 0.86006 0.0
C500 C 0.21762 0.73903 0.83322 0.0
C501 C 0.20732 0.73061 0.77985 0.0
C502 C 0.22348 0.78682 0.00349 0.0
C503 C 0.24833 0.79357 0.01508 0.0
C504 C 0.21188 0.77326 0.95516 0.0
C505 C 0.2252 0.76679 0.91705 0.0
C506 C 0.24923 0.77143 0.93156 0.0
C507 C 0.2607 0.78465 0.9806 0.0
H508 H 0.42402 0.20014 0.94063 0.0
H509 H 0.50308 0.22544 0.95112 0.0
H510 H 0.42803 0.22843 0.01535 0.0
H511 H 0.50744 0.25477 0.02577 0.0
H512 H 0.48818 0.26103 0.21605 0.0
H513 H 0.49427 0.24759 0.12337 0.0
H514 H 0.44323 0.2689 0.05104 0.0
H515 H 0.43585 0.28043 0.14364 0.0
C516 C 0.44246 0.21241 0.95789 0.0
C517 C 0.46313 0.21034 0.94097 0.0
C518 C 0.44485 0.22885 0.00053 0.0
C519 C 0.46806 0.24373 0.02705 0.0
C520 C 0.48926 0.24323 0.00671 0.0
C521 C 0.48682 0.22666 0.96371 0.0
C522 C 0.47852 0.26301 0.18006 0.0
C523 C 0.46112 0.27113 0.18704 0.0
C524 C 0.48222 0.25564 0.12689 0.0
C525 C 0.46891 0.25684 0.07994 0.0
C526 C 0.45325 0.26713 0.08656 0.0
C527 C 0.44904 0.27377 0.13967 0.0
H528 H 0.35849 0.50713 0.28072 0.0
H529 H 0.38838 0.49199 0.43067 0.0
H530 H 0.39777 0.5461 0.2672 0.0
H531 H 0.42795 0.53051 0.41613 0.0
H532 H 0.4758 0.60896 0.23715 0.0
H533 H 0.44139 0.56605 0.2452 0.0
H534 H 0.44218 0.57406 0.42616 0.0
H535 H 0.47708 0.61663 0.41823 0.0
C536 C 0.37363 0.51185 0.31011 0.0
C537 C 0.37021 0.49663 0.35713 0.0
C538 C 0.39623 0.53416 0.30225 0.0
C539 C 0.41597 0.54159 0.34094 0.0
C540 C 0.41295 0.52564 0.38624 0.0
C541 C 0.3903 0.50348 0.39439 0.0
C542 C 0.46884 0.60144 0.27873 0.0
C543 C 0.47906 0.61628 0.32706 0.0
C544 C 0.44901 0.57688 0.28328 0.0
C545 C 0.43883 0.56664 0.33624 0.0
C546 C 0.44973 0.58119 0.38471 0.0
C547 C 0.46969 0.60569 0.38018 0.0
H548 H 0.86297 0.48111 0.56075 0.0
H549 H 0.83415 0.46336 0.7306 0.0
H550 H 0.86517 0.44281 0.55715 0.0
H551 H 0.83509 0.42437 0.7262 0.0
H552 H 0.86057 0.36729 0.72205 0.0
H553 H 0.86125 0.40704 0.72584 0.0
H554 H 0.84032 0.39927 0.55007 0.0
H555 H 0.84094 0.3601 0.54582 0.0
C556 C 0.85693 0.4689 0.59721 0.0
C557 C 0.84839 0.47524 0.64597 0.0
C558 C 0.85801 0.44681 0.59503 0.0
C559 C 0.8502 0.43032 0.64125 0.0
C560 C 0.8417 0.43677 0.6901 0.0
C561 C 0.84101 0.45907 0.69259 0.0
C562 C 0.85619 0.37413 0.68418 0.0
C563 C 0.85068 0.36056 0.63363 0.0
C564 C 0.85641 0.39688 0.68642 0.0
C565 C 0.8507 0.40642 0.63837 0.0
C566 C 0.84524 0.3928 0.58773 0.0
C567 C 0.84544 0.37023 0.58528 0.0
H568 H 0.47985 0.86953 0.90702 0.0
H569 H 0.47083 0.84595 0.08114 0.0
H570 H 0.44519 0.87782 0.91741 0.0
H571 H 0.43603 0.85346 0.09087 0.0
H572 H 0.38346 0.88312 0.10727 0.0
H573 H 0.42324 0.88418 0.09455 0.0
H574 H 0.40044 0.85313 0.92765 0.0
H575 H 0.36114 0.85281 0.9396 0.0
C576 C 0.47061 0.86626 0.94752 0.0
C577 C 0.47804 0.85693 0.99309 0.0
C578 C 0.45067 0.87088 0.95341 0.0
C579 C 0.43775 0.86622 0.00494 0.0
C580 C 0.44575 0.85764 0.05084 0.0
C581 C 0.46565 0.85312 0.04505 0.0
C582 C 0.38705 0.87676 0.06767 0.0
C583 C 0.36902 0.86767 0.02468 0.0
C584 C 0.40982 0.87728 0.06043 0.0
C585 C 0.41497 0.86856 0.01022 0.0
C586 C 0.39726 0.86029 0.96657 0.0
C587 C 0.37459 0.85992 0.97365 0.0
H588 H 0.60519 0.49341 0.1964 0.0
H589 H 0.60671 0.50269 0.37707 0.0
H590 H 0.56603 0.45403 0.20463 0.0
H591 H 0.5671 0.46348 0.38511 0.0
H592 H 0.5153 0.37674 0.37679 0.0
H593 H 0.55167 0.41893 0.37511 0.0
H594 H 0.52245 0.43613 0.22691 0.0
H595 H 0.48663 0.39396 0.22769 0.0
C596 C 0.597 0.48725 0.23782 0.0
C597 C 0.60918 0.5012 0.28605 0.0
C598 C 0.57443 0.46469 0.24255 0.0
C599 C 0.5634 0.45556 0.29559 0.0
C600 C 0.57526 0.46981 0.34373 0.0
C601 C 0.59789 0.49237 0.33902 0.0
C602 C 0.51651 0.38966 0.34435 0.0
C603 C 0.49825 0.38189 0.30198 0.0
C604 C 0.53731 0.41387 0.34344 0.0
C605 C 0.54014 0.43081 0.30038 0.0
C606 C 0.52117 0.42338 0.25986 0.0
C607 C 0.50055 0.39922 0.26052 0.0
H608 H 0.10868 0.61391 0.77313 0.0
H609 H 0.1467 0.62314 0.61444 0.0
H610 H 0.10669 0.57389 0.78729 0.0
H611 H 0.14583 0.58362 0.62968 0.0
H612 H 0.1237 0.50247 0.64955 0.0
H613 H 0.12083 0.53988 0.63316 0.0
H614 H 0.13248 0.55733 0.81081 0.0
H615 H 0.13414 0.51916 0.82739 0.0
C616 C 0.11668 0.60739 0.74129 0.0
C617 C 0.12791 0.62171 0.69272 0.0
C618 C 0.11572 0.5845 0.74961 0.0
C619 C 0.1263 0.57552 0.70997 0.0
C620 C 0.13714 0.58969 0.66082 0.0
C621 C 0.13776 0.61244 0.6521 0.0
C622 C 0.12551 0.51424 0.68517 0.0
C623 C 0.12922 0.50791 0.73978 0.0
C624 C 0.12403 0.53582 0.6757 0.0
C625 C 0.1266 0.55183 0.72051 0.0
C626 C 0.13001 0.54529 0.77532 0.0
C627 C 0.13111 0.52347 0.7849 0.0
H628 H 0.59825 0.08495 0.93035 0.0
H629 H 0.61951 0.13429 0.07409 0.0
H630 H 0.56149 0.08923 0.91654 0.0
H631 H 0.58312 0.13937 0.05909 0.0
H632 H 0.50517 0.12926 0.04082 0.0
H633 H 0.53873 0.12053 0.06117 0.0
H634 H 0.55271 0.12023 0.88278 0.0
H635 H 0.51851 0.12808 0.86242 0.0
C636 C 0.59497 0.09663 0.95924 0.0
C637 C 0.61187 0.10941 0.00313 0.0
C638 C 0.574 0.09927 0.95099 0.0
C639 C 0.56952 0.115 0.98602 0.0
C640 C 0.58585 0.12696 0.03148 0.0
C641 C 0.60675 0.12408 0.04013 0.0
C642 C 0.51537 0.12729 0.00588 0.0
C643 C 0.50914 0.12938 0.94992 0.0
C644 C 0.53473 0.12239 0.01762 0.0
C645 C 0.54847 0.11963 0.97371 0.0
C646 C 0.54223 0.12176 0.91772 0.0
C647 C 0.52272 0.12645 0.90596 0.0
loop_
_geom_bond_atom_site_label_1
_geom_bond_atom_site_label_2
_geom_bond_distance
_geom_bond_site_symmetry_2
_ccdc_geom_bond_type
C0 O1 1.306 . S
C0 O3 1.160 . S
O1 C0 1.306 . S
O1 Cd2 2.228 . S
Cd2 O1 2.228 . S
Cd2 O6 2.273 . S
Cd2 O10 2.277 . S
O3 C0 1.160 . S
O3 Cd4 2.203 . S
Cd4 O3 2.203 . S
Cd4 O6 2.411 . S
Cd4 O7 2.333 . S
Cd4 O8 2.352 . S
Cd4 O12 2.277 . S
Cd4 O13 2.356 . S
C5 O10 1.209 . S
C5 O12 1.226 . S
O6 Cd2 2.273 . S
O6 Cd4 2.411 . S
O6 C9 1.320 . S
O7 Cd4 2.333 . S
O7 C9 1.214 . S
O8 Cd4 2.352 . S
O8 C11 1.258 . S
C9 O6 1.320 . S
C9 O7 1.214 . S
O10 Cd2 2.277 . S
O10 C5 1.209 . S
C11 O8 1.258 . S
C11 O13 1.282 . S
O12 Cd4 2.277 . S
O12 C5 1.226 . S
O13 Cd4 2.356 . S
O13 C11 1.282 . S
C14 O15 1.306 . S
C14 O17 1.160 . S
O15 C14 1.306 . S
O15 Cd16 2.228 . S
Cd16 O15 2.228 . S
Cd16 O20 2.273 . S
Cd16 O24 2.277 . S
O17 C14 1.160 . S
O17 Cd18 2.203 . S
Cd18 O17 2.203 . S
Cd18 O20 2.411 . S
Cd18 O21 2.333 . S
Cd18 O22 2.352 . S
Cd18 O26 2.277 . S
Cd18 O27 2.356 . S
C19 O24 1.209 . S
C19 O26 1.226 . S
O20 Cd16 2.273 . S
O20 Cd18 2.411 . S
O20 C23 1.320 . S
O21 Cd18 2.333 . S
O21 C23 1.214 . S
O22 Cd18 2.352 . S
O22 C25 1.258 . S
C23 O20 1.320 . S
C23 O21 1.214 . S
O24 Cd16 2.277 . S
O24 C19 1.209 . S
C25 O22 1.258 . S
C25 O27 1.282 . S
O26 Cd18 2.277 . S
O26 C19 1.226 . S
O27 Cd18 2.356 . S
O27 C25 1.282 . S
C28 O29 1.306 1_556 S
C28 O31 1.160 . S
O29 C28 1.306 1_554 S
O29 Cd30 2.228 . S
Cd30 O29 2.228 . S
Cd30 O34 2.273 . S
Cd30 O38 2.277 . S
O31 C28 1.160 . S
O31 Cd32 2.203 . S
Cd32 O31 2.203 . S
Cd32 O34 2.411 1_556 S
Cd32 O35 2.333 . S
Cd32 O36 2.352 . S
Cd32 O40 2.277 . S
Cd32 O41 2.356 . S
C33 O38 1.209 1_556 S
C33 O40 1.226 . S
O34 Cd30 2.273 . S
O34 Cd32 2.411 1_554 S
O34 C37 1.320 . S
O35 Cd32 2.333 . S
O35 C37 1.214 1_556 S
O36 Cd32 2.352 . S
O36 C39 1.258 . S
C37 O34 1.320 . S
C37 O35 1.214 1_554 S
O38 Cd30 2.277 . S
O38 C33 1.209 1_554 S
C39 O36 1.258 . S
C39 O41 1.282 . S
O40 Cd32 2.277 . S
O40 C33 1.226 . S
O41 Cd32 2.356 . S
O41 C39 1.282 . S
C42 O43 1.306 . S
C42 O45 1.160 . S
O43 C42 1.306 . S
O43 Cd44 2.228 . S
Cd44 O43 2.228 . S
Cd44 O48 2.273 . S
Cd44 O52 2.277 . S
O45 C42 1.160 . S
O45 Cd46 2.203 . S
Cd46 O45 2.203 . S
Cd46 O48 2.411 . S
Cd46 O49 2.333 . S
Cd46 O50 2.352 . S
Cd46 O54 2.277 . S
Cd46 O55 2.356 . S
C47 O52 1.209 . S
C47 O54 1.226 . S
O48 Cd44 2.273 . S
O48 Cd46 2.411 . S
O48 C51 1.320 . S
O49 Cd46 2.333 . S
O49 C51 1.214 . S
O50 Cd46 2.352 . S
O50 C53 1.258 . S
C51 O48 1.320 . S
C51 O49 1.214 . S
O52 Cd44 2.277 . S
O52 C47 1.209 . S
C53 O50 1.258 . S
C53 O55 1.282 . S
O54 Cd46 2.277 . S
O54 C47 1.226 . S
O55 Cd46 2.356 . S
O55 C53 1.282 . S
C56 O57 1.306 . S
C56 O59 1.160 . S
O57 C56 1.306 . S
O57 Cd58 2.228 . S
Cd58 O57 2.228 . S
Cd58 O62 2.273 . S
Cd58 O66 2.277 . S
O59 C56 1.160 . S
O59 Cd60 2.203 . S
Cd60 O59 2.203 . S
Cd60 O62 2.411 . S
Cd60 O63 2.333 . S
Cd60 O64 2.352 . S
Cd60 O68 2.277 . S
Cd60 O69 2.356 . S
C61 O66 1.209 . S
C61 O68 1.226 . S
O62 Cd58 2.273 . S
O62 Cd60 2.411 . S
O62 C65 1.320 . S
O63 Cd60 2.333 . S
O63 C65 1.214 . S
O64 Cd60 2.352 . S
O64 C67 1.258 . S
C65 O62 1.320 . S
C65 O63 1.214 . S
O66 Cd58 2.277 . S
O66 C61 1.209 . S
C67 O64 1.258 . S
C67 O69 1.282 . S
O68 Cd60 2.277 . S
O68 C61 1.226 . S
O69 Cd60 2.356 . S
O69 C67 1.282 . S
C70 O71 1.306 1_556 S
C70 O73 1.160 . S
O71 C70 1.306 1_554 S
O71 Cd72 2.228 . S
Cd72 O71 2.228 . S
Cd72 O76 2.273 . S
Cd72 O80 2.277 . S
O73 C70 1.160 . S
O73 Cd74 2.203 . S
Cd74 O73 2.203 . S
Cd74 O76 2.411 1_556 S
Cd74 O77 2.333 . S
Cd74 O78 2.352 . S
Cd74 O82 2.277 . S
Cd74 O83 2.356 . S
C75 O80 1.209 1_556 S
C75 O82 1.226 . S
O76 Cd72 2.273 . S
O76 Cd74 2.411 1_554 S
O76 C79 1.320 . S
O77 Cd74 2.333 . S
O77 C79 1.214 1_556 S
O78 Cd74 2.352 . S
O78 C81 1.258 . S
C79 O76 1.320 . S
C79 O77 1.214 1_554 S
O80 Cd72 2.277 . S
O80 C75 1.209 1_554 S
C81 O78 1.258 . S
C81 O83 1.282 . S
O82 Cd74 2.277 . S
O82 C75 1.226 . S
O83 Cd74 2.356 . S
O83 C81 1.282 . S
C84 O85 1.306 . S
C84 O87 1.160 . S
O85 C84 1.306 . S
O85 Cd86 2.228 . S
Cd86 O85 2.228 . S
Cd86 O90 2.273 . S
Cd86 O94 2.277 . S
O87 C84 1.160 . S
O87 Cd88 2.203 . S
Cd88 O87 2.203 . S
Cd88 O90 2.411 . S
Cd88 O91 2.333 . S
Cd88 O92 2.352 . S
Cd88 O96 2.277 . S
Cd88 O97 2.356 . S
C89 O94 1.209 . S
C89 O96 1.226 . S
O90 Cd86 2.273 . S
O90 Cd88 2.411 . S
O90 C93 1.320 . S
O91 Cd88 2.333 . S
O91 C93 1.214 . S
O92 Cd88 2.352 . S
O92 C95 1.258 . S
C93 O90 1.320 . S
C93 O91 1.214 . S
O94 Cd86 2.277 . S
O94 C89 1.209 . S
C95 O92 1.258 . S
C95 O97 1.282 . S
O96 Cd88 2.277 . S
O96 C89 1.226 . S
O97 Cd88 2.356 . S
O97 C95 1.282 . S
C98 O99 1.306 . S
C98 O101 1.160 . S
O99 C98 1.306 . S
O99 Cd100 2.228 . S
Cd100 O99 2.228 . S
Cd100 O104 2.273 . S
Cd100 O108 2.277 . S
O101 C98 1.160 . S
O101 Cd102 2.203 . S
Cd102 O101 2.203 . S
Cd102 O104 2.411 . S
Cd102 O105 2.333 . S
Cd102 O106 2.352 . S
Cd102 O110 2.277 . S
Cd102 O111 2.356 . S
C103 O108 1.209 . S
C103 O110 1.226 . S
O104 Cd100 2.273 . S
O104 Cd102 2.411 . S
O104 C107 1.320 . S
O105 Cd102 2.333 . S
O105 C107 1.214 . S
O106 Cd102 2.352 . S
O106 C109 1.258 . S
C107 O104 1.320 . S
C107 O105 1.214 . S
O108 Cd100 2.277 . S
O108 C103 1.209 . S
C109 O106 1.258 . S
C109 O111 1.282 . S
O110 Cd102 2.277 . S
O110 C103 1.226 . S
O111 Cd102 2.356 . S
O111 C109 1.282 . S
C112 O113 1.306 1_554 S
C112 O115 1.160 . S
O113 C112 1.306 1_556 S
O113 Cd114 2.228 . S
Cd114 O113 2.228 . S
Cd114 O118 2.273 . S
Cd114 O122 2.277 . S
O115 C112 1.160 . S
O115 Cd116 2.203 . S
Cd116 O115 2.203 . S
Cd116 O118 2.411 1_554 S
Cd116 O119 2.333 . S
Cd116 O120 2.352 . S
Cd116 O124 2.277 . S
Cd116 O125 2.356 . S
C117 O122 1.209 1_554 S
C117 O124 1.226 . S
O118 Cd114 2.273 . S
O118 Cd116 2.411 1_556 S
O118 C121 1.320 . S
O119 Cd116 2.333 . S
O119 C121 1.214 1_554 S
O120 Cd116 2.352 . S
O120 C123 1.258 . S
C121 O118 1.320 . S
C121 O119 1.214 1_556 S
O122 Cd114 2.277 . S
O122 C117 1.209 1_556 S
C123 O120 1.258 . S
C123 O125 1.282 . S
O124 Cd116 2.277 . S
O124 C117 1.226 . S
O125 Cd116 2.356 . S
O125 C123 1.282 . S
C126 O127 1.306 . S
C126 O129 1.160 . S
O127 C126 1.306 . S
O127 Cd128 2.228 . S
Cd128 O127 2.228 . S
Cd128 O132 2.273 . S
Cd128 O136 2.277 . S
O129 C126 1.160 . S
O129 Cd130 2.203 . S
Cd130 O129 2.203 . S
Cd130 O132 2.411 . S
Cd130 O133 2.333 . S
Cd130 O134 2.352 . S
Cd130 O138 2.277 . S
Cd130 O139 2.356 . S
C131 O136 1.209 . S
C131 O138 1.226 . S
O132 Cd128 2.273 . S
O132 Cd130 2.411 . S
O132 C135 1.320 . S
O133 Cd130 2.333 . S
O133 C135 1.214 . S
O134 Cd130 2.352 . S
O134 C137 1.258 . S
C135 O132 1.320 . S
C135 O133 1.214 . S
O136 Cd128 2.277 . S
O136 C131 1.209 . S
C137 O134 1.258 . S
C137 O139 1.282 . S
O138 Cd130 2.277 . S
O138 C131 1.226 . S
O139 Cd130 2.356 . S
O139 C137 1.282 . S
C140 O141 1.306 . S
C140 O143 1.160 . S
O141 C140 1.306 . S
O141 Cd142 2.228 . S
Cd142 O141 2.228 . S
Cd142 O146 2.273 . S
Cd142 O150 2.277 . S
O143 C140 1.160 . S
O143 Cd144 2.203 . S
Cd144 O143 2.203 . S
Cd144 O146 2.411 . S
Cd144 O147 2.333 . S
Cd144 O148 2.352 . S
Cd144 O152 2.277 . S
Cd144 O153 2.356 . S
C145 O150 1.209 . S
C145 O152 1.226 . S
O146 Cd142 2.273 . S
O146 Cd144 2.411 . S
O146 C149 1.320 . S
O147 Cd144 2.333 . S
O147 C149 1.214 . S
O148 Cd144 2.352 . S
O148 C151 1.258 . S
C149 O146 1.320 . S
C149 O147 1.214 . S
O150 Cd142 2.277 . S
O150 C145 1.209 . S
C151 O148 1.258 . S
C151 O153 1.282 . S
O152 Cd144 2.277 . S
O152 C145 1.226 . S
O153 Cd144 2.356 . S
O153 C151 1.282 . S
C154 O155 1.306 1_554 S
C154 O157 1.160 . S
O155 C154 1.306 1_556 S
O155 Cd156 2.228 . S
Cd156 O155 2.228 . S
Cd156 O160 2.273 . S
Cd156 O164 2.277 . S
O157 C154 1.160 . S
O157 Cd158 2.203 . S
Cd158 O157 2.203 . S
Cd158 O160 2.411 1_554 S
Cd158 O161 2.333 . S
Cd158 O162 2.352 . S
Cd158 O166 2.277 . S
Cd158 O167 2.356 . S
C159 O164 1.209 1_554 S
C159 O166 1.226 . S
O160 Cd156 2.273 . S
O160 Cd158 2.411 1_556 S
O160 C163 1.320 . S
O161 Cd158 2.333 . S
O161 C163 1.214 1_554 S
O162 Cd158 2.352 . S
O162 C165 1.258 . S
C163 O160 1.320 . S
C163 O161 1.214 1_556 S
O164 Cd156 2.277 . S
O164 C159 1.209 1_556 S
C165 O162 1.258 . S
C165 O167 1.282 . S
O166 Cd158 2.277 . S
O166 C159 1.226 . S
O167 Cd158 2.356 . S
O167 C165 1.282 . S
H168 C176 0.950 . S
H169 C181 0.950 . S
H170 C178 0.950 . S
H171 C180 0.950 . S
H172 C182 0.950 . S
H173 C184 0.950 . S
H174 C186 0.950 . S
H175 C187 0.950 . S
C176 H168 0.950 . S
C176 C177 1.386 . S
C176 C178 1.391 . S
C177 C176 1.386 . S
C177 C181 1.393 . S
C178 H170 0.950 . S
C178 C176 1.391 . S
C178 C179 1.400 . S
C179 C178 1.400 . S
C179 C180 1.398 . S
C179 C185 1.491 . S
C180 H171 0.950 . S
C180 C179 1.398 . S
C180 C181 1.391 . S
C181 H169 0.950 . S
C181 C177 1.393 . S
C181 C180 1.391 . S
C182 H172 0.950 . S
C182 C183 1.386 . S
C182 C184 1.391 . S
C183 C182 1.386 . S
C183 C187 1.393 . S
C184 H173 0.950 . S
C184 C182 1.391 . S
C184 C185 1.400 . S
C185 C179 1.491 . S
C185 C184 1.400 . S
C185 C186 1.398 . S
C186 H174 0.950 . S
C186 C185 1.398 . S
C186 C187 1.391 . S
C187 H175 0.950 . S
C187 C183 1.393 . S
C187 C186 1.391 . S
H188 C196 0.950 . S
H189 C201 0.950 . S
H190 C198 0.950 . S
H191 C200 0.950 . S
H192 C202 0.950 . S
H193 C204 0.950 . S
H194 C206 0.950 . S
H195 C207 0.950 . S
C196 H188 0.950 . S
C196 C197 1.386 . S
C196 C198 1.391 . S
C197 C196 1.386 . S
C197 C201 1.393 . S
C198 H190 0.950 . S
C198 C196 1.391 . S
C198 C199 1.400 . S
C199 C198 1.400 . S
C199 C200 1.398 . S
C199 C205 1.491 1_655 S
C200 H191 0.950 . S
C200 C199 1.398 . S
C200 C201 1.391 . S
C201 H189 0.950 . S
C201 C197 1.393 . S
C201 C200 1.391 . S
C202 H192 0.950 . S
C202 C203 1.386 . S
C202 C204 1.391 . S
C203 C202 1.386 . S
C203 C207 1.393 . S
C204 H193 0.950 . S
C204 C202 1.391 . S
C204 C205 1.400 . S
C205 C199 1.491 1_455 S
C205 C204 1.400 . S
C205 C206 1.398 . S
C206 H194 0.950 . S
C206 C205 1.398 . S
C206 C207 1.391 . S
C207 H195 0.950 . S
C207 C203 1.393 . S
C207 C206 1.391 . S
H208 C216 0.950 . S
H209 C221 0.950 . S
H210 C218 0.950 . S
H211 C220 0.950 . S
H212 C222 0.950 . S
H213 C224 0.950 . S
H214 C226 0.950 . S
H215 C227 0.950 . S
C216 H208 0.950 . S
C216 C217 1.386 1_554 S
C216 C218 1.391 . S
C217 C216 1.386 1_556 S
C217 C221 1.393 . S
C218 H210 0.950 . S
C218 C216 1.391 . S
C218 C219 1.400 1_554 S
C219 C218 1.400 1_556 S
C219 C220 1.398 . S
C219 C225 1.491 1_566 S
C220 H211 0.950 . S
C220 C219 1.398 . S
C220 C221 1.391 . S
C221 H209 0.950 . S
C221 C217 1.393 . S
C221 C220 1.391 . S
C222 H212 0.950 . S
C222 C223 1.386 1_556 S
C222 C224 1.391 . S
C223 C222 1.386 1_554 S
C223 C227 1.393 . S
C224 H213 0.950 . S
C224 C222 1.391 . S
C224 C225 1.400 1_556 S
C225 C219 1.491 1_544 S
C225 C224 1.400 1_554 S
C225 C226 1.398 . S
C226 H214 0.950 . S
C226 C225 1.398 . S
C226 C227 1.391 . S
C227 H215 0.950 . S
C227 C223 1.393 . S
C227 C226 1.391 . S
H228 C236 0.950 . S
H229 C241 0.950 . S
H230 C238 0.950 . S
H231 C240 0.950 . S
H232 C242 0.950 . S
H233 C244 0.950 . S
H234 C246 0.950 . S
H235 C247 0.950 . S
C236 H228 0.950 . S
C236 C237 1.386 . S
C236 C238 1.391 . S
C237 C236 1.386 . S
C237 C241 1.393 . S
C238 H230 0.950 . S
C238 C236 1.391 . S
C238 C239 1.400 . S
C239 C238 1.400 . S
C239 C240 1.398 . S
C239 C245 1.491 . S
C240 H231 0.950 . S
C240 C239 1.398 . S
C240 C241 1.391 . S
C241 H229 0.950 . S
C241 C237 1.393 . S
C241 C240 1.391 . S
C242 H232 0.950 . S
C242 C243 1.386 . S
C242 C244 1.391 . S
C243 C242 1.386 . S
C243 C247 1.393 . S
C244 H233 0.950 . S
C244 C242 1.391 . S
C244 C245 1.400 . S
C245 C239 1.491 . S
C245 C244 1.400 . S
C245 C246 1.398 . S
C246 H234 0.950 . S
C246 C245 1.398 . S
C246 C247 1.391 . S
C247 H235 0.950 . S
C247 C243 1.393 . S
C247 C246 1.391 . S
H248 C256 0.950 . S
H249 C261 0.950 . S
H250 C258 0.950 . S
H251 C260 0.950 . S
H252 C262 0.950 . S
H253 C264 0.950 . S
H254 C266 0.950 . S
H255 C267 0.950 . S
C256 H248 0.950 . S
C256 C257 1.386 . S
C256 C258 1.391 . S
C257 C256 1.386 . S
C257 C261 1.393 . S
C258 H250 0.950 . S
C258 C256 1.391 . S
C258 C259 1.400 . S
C259 C258 1.400 . S
C259 C260 1.398 . S
C259 C265 1.491 1_655 S
C260 H251 0.950 . S
C260 C259 1.398 . S
C260 C261 1.391 . S
C261 H249 0.950 . S
C261 C257 1.393 . S
C261 C260 1.391 . S
C262 H252 0.950 . S
C262 C263 1.386 . S
C262 C264 1.391 . S
C263 C262 1.386 . S
C263 C267 1.393 . S
C264 H253 0.950 . S
C264 C262 1.391 . S
C264 C265 1.400 . S
C265 C259 1.491 1_455 S
C265 C264 1.400 . S
C265 C266 1.398 . S
C266 H254 0.950 . S
C266 C265 1.398 . S
C266 C267 1.391 . S
C267 H255 0.950 . S
C267 C263 1.393 . S
C267 C266 1.391 . S
H268 C276 0.950 . S
H269 C281 0.950 . S
H270 C278 0.950 . S
H271 C280 0.950 . S
H272 C282 0.950 . S
H273 C284 0.950 . S
H274 C286 0.950 . S
H275 C287 0.950 . S
C276 H268 0.950 . S
C276 C277 1.386 1_556 S
C276 C278 1.391 . S
C277 C276 1.386 1_554 S
C277 C281 1.393 . S
C278 H270 0.950 . S
C278 C276 1.391 . S
C278 C279 1.400 1_556 S
C279 C278 1.400 1_554 S
C279 C280 1.398 . S
C279 C285 1.491 1_564 S
C280 H271 0.950 . S
C280 C279 1.398 . S
C280 C281 1.391 . S
C281 H269 0.950 . S
C281 C277 1.393 . S
C281 C280 1.391 . S
C282 H272 0.950 . S
C282 C283 1.386 1_554 S
C282 C284 1.391 . S
C283 C282 1.386 1_556 S
C283 C287 1.393 . S
C284 H273 0.950 . S
C284 C282 1.391 . S
C284 C285 1.400 1_554 S
C285 C279 1.491 1_546 S
C285 C284 1.400 1_556 S
C285 C286 1.398 . S
C286 H274 0.950 . S
C286 C285 1.398 . S
C286 C287 1.391 . S
C287 H275 0.950 . S
C287 C283 1.393 . S
C287 C286 1.391 . S
H288 C296 0.950 . S
H289 C301 0.950 . S
H290 C298 0.950 . S
H291 C300 0.950 1_554 S
H292 C302 0.950 . S
H293 C304 0.950 . S
H294 C306 0.950 1_556 S
H295 C307 0.950 . S
C296 H288 0.950 . S
C296 C297 1.386 . S
C296 C298 1.391 . S
C297 C296 1.386 . S
C297 C301 1.393 . S
C298 H290 0.950 . S
C298 C296 1.391 . S
C298 C299 1.400 . S
C299 C298 1.400 . S
C299 C300 1.398 . S
C299 C305 1.491 1_556 S
C300 H291 0.950 1_556 S
C300 C299 1.398 . S
C300 C301 1.391 . S
C301 H289 0.950 . S
C301 C297 1.393 . S
C301 C300 1.391 . S
C302 H292 0.950 . S
C302 C303 1.386 . S
C302 C304 1.391 . S
C303 C302 1.386 . S
C303 C307 1.393 . S
C304 H293 0.950 . S
C304 C302 1.391 . S
C304 C305 1.400 . S
C305 C299 1.491 1_554 S
C305 C304 1.400 . S
C305 C306 1.398 . S
C306 H294 0.950 1_554 S
C306 C305 1.398 . S
C306 C307 1.391 . S
C307 H295 0.950 . S
C307 C303 1.393 . S
C307 C306 1.391 . S
H308 C316 0.950 . S
H309 C321 0.950 . S
H310 C318 0.950 . S
H311 C320 0.950 . S
H312 C322 0.950 . S
H313 C324 0.950 . S
H314 C326 0.950 . S
H315 C327 0.950 . S
C316 H308 0.950 . S
C316 C317 1.386 . S
C316 C318 1.391 . S
C317 C316 1.386 . S
C317 C321 1.393 . S
C318 H310 0.950 . S
C318 C316 1.391 . S
C318 C319 1.400 . S
C319 C318 1.400 . S
C319 C320 1.398 . S
C319 C325 1.491 . S
C320 H311 0.950 . S
C320 C319 1.398 . S
C320 C321 1.391 . S
C321 H309 0.950 . S
C321 C317 1.393 . S
C321 C320 1.391 . S
C322 H312 0.950 . S
C322 C323 1.386 . S
C322 C324 1.391 . S
C323 C322 1.386 . S
C323 C327 1.393 . S
C324 H313 0.950 . S
C324 C322 1.391 . S
C324 C325 1.400 . S
C325 C319 1.491 . S
C325 C324 1.400 . S
C325 C326 1.398 . S
C326 H314 0.950 . S
C326 C325 1.398 . S
C326 C327 1.391 . S
C327 H315 0.950 . S
C327 C323 1.393 . S
C327 C326 1.391 . S
H328 C336 0.950 . S
H329 C341 0.950 . S
H330 C338 0.950 . S
H331 C340 0.950 . S
H332 C342 0.950 . S
H333 C344 0.950 . S
H334 C346 0.950 . S
H335 C347 0.950 . S
C336 H328 0.950 . S
C336 C337 1.386 . S
C336 C338 1.391 . S
C337 C336 1.386 . S
C337 C341 1.393 . S
C338 H330 0.950 . S
C338 C336 1.391 . S
C338 C339 1.400 . S
C339 C338 1.400 . S
C339 C340 1.398 . S
C339 C345 1.491 . S
C340 H331 0.950 . S
C340 C339 1.398 . S
C340 C341 1.391 . S
C341 H329 0.950 . S
C341 C337 1.393 . S
C341 C340 1.391 . S
C342 H332 0.950 . S
C342 C343 1.386 . S
C342 C344 1.391 . S
C343 C342 1.386 . S
C343 C347 1.393 . S
C344 H333 0.950 . S
C344 C342 1.391 . S
C344 C345 1.400 . S
C345 C339 1.491 . S
C345 C344 1.400 . S
C345 C346 1.398 . S
C346 H334 0.950 . S
C346 C345 1.398 . S
C346 C347 1.391 . S
C347 H335 0.950 . S
C347 C343 1.393 . S
C347 C346 1.391 . S
H348 C356 0.950 . S
H349 C361 0.950 . S
H350 C358 0.950 . S
H351 C360 0.950 1_556 S
H352 C362 0.950 . S
H353 C364 0.950 . S
H354 C366 0.950 1_554 S
H355 C367 0.950 . S
C356 H348 0.950 . S
C356 C357 1.386 . S
C356 C358 1.391 . S
C357 C356 1.386 . S
C357 C361 1.393 . S
C358 H350 0.950 . S
C358 C356 1.391 . S
C358 C359 1.400 . S
C359 C358 1.400 . S
C359 C360 1.398 . S
C359 C365 1.491 1_554 S
C360 H351 0.950 1_554 S
C360 C359 1.398 . S
C360 C361 1.391 . S
C361 H349 0.950 . S
C361 C357 1.393 . S
C361 C360 1.391 . S
C362 H352 0.950 . S
C362 C363 1.386 . S
C362 C364 1.391 . S
C363 C362 1.386 . S
C363 C367 1.393 . S
C364 H353 0.950 . S
C364 C362 1.391 . S
C364 C365 1.400 . S
C365 C359 1.491 1_556 S
C365 C364 1.400 . S
C365 C366 1.398 . S
C366 H354 0.950 1_556 S
C366 C365 1.398 . S
C366 C367 1.391 . S
C367 H355 0.950 . S
C367 C363 1.393 . S
C367 C366 1.391 . S
H368 C376 0.950 . S
H369 C381 0.950 . S
H370 C378 0.950 . S
H371 C380 0.950 . S
H372 C382 0.950 . S
H373 C384 0.950 . S
H374 C386 0.950 . S
H375 C387 0.950 . S
C376 H368 0.950 . S
C376 C377 1.386 . S
C376 C378 1.391 . S
C377 C376 1.386 . S
C377 C381 1.393 . S
C378 H370 0.950 . S
C378 C376 1.391 . S
C378 C379 1.400 . S
C379 C378 1.400 . S
C379 C380 1.398 . S
C379 C385 1.491 . S
C380 H371 0.950 . S
C380 C379 1.398 . S
C380 C381 1.391 . S
C381 H369 0.950 . S
C381 C377 1.393 . S
C381 C380 1.391 . S
C382 H372 0.950 . S
C382 C383 1.386 . S
C382 C384 1.391 . S
C383 C382 1.386 . S
C383 C387 1.393 . S
C384 H373 0.950 . S
C384 C382 1.391 . S
C384 C385 1.400 . S
C385 C379 1.491 . S
C385 C384 1.400 . S
C385 C386 1.398 . S
C386 H374 0.950 . S
C386 C385 1.398 . S
C386 C387 1.391 . S
C387 H375 0.950 . S
C387 C383 1.393 . S
C387 C386 1.391 . S
H388 C396 0.950 . S
H389 C401 0.950 . S
H390 C398 0.950 . S
H391 C400 0.950 . S
H392 C402 0.950 . S
H393 C404 0.950 . S
H394 C406 0.950 . S
H395 C407 0.950 . S
C396 H388 0.950 . S
C396 C397 1.386 . S
C396 C398 1.391 . S
C397 C396 1.386 . S
C397 C401 1.393 . S
C398 H390 0.950 . S
C398 C396 1.391 . S
C398 C399 1.400 . S
C399 C398 1.400 . S
C399 C400 1.398 . S
C399 C405 1.491 . S
C400 H391 0.950 . S
C400 C399 1.398 . S
C400 C401 1.391 . S
C401 H389 0.950 . S
C401 C397 1.393 . S
C401 C400 1.391 . S
C402 H392 0.950 . S
C402 C403 1.386 . S
C402 C404 1.391 . S
C403 C402 1.386 . S
C403 C407 1.393 . S
C404 H393 0.950 . S
C404 C402 1.391 . S
C404 C405 1.400 . S
C405 C399 1.491 . S
C405 C404 1.400 . S
C405 C406 1.398 . S
C406 H394 0.950 . S
C406 C405 1.398 . S
C406 C407 1.391 . S
C407 H395 0.950 . S
C407 C403 1.393 . S
C407 C406 1.391 . S
H408 C416 0.950 . S
H409 C421 0.950 . S
H410 C418 0.950 . S
H411 C420 0.950 . S
H412 C422 0.950 . S
H413 C424 0.950 . S
H414 C426 0.950 . S
H415 C427 0.950 . S
C416 H408 0.950 . S
C416 C417 1.386 . S
C416 C418 1.391 . S
C417 C416 1.386 . S
C417 C421 1.393 . S
C418 H410 0.950 . S
C418 C416 1.391 . S
C418 C419 1.400 . S
C419 C418 1.400 . S
C419 C420 1.398 . S
C419 C425 1.491 . S
C420 H411 0.950 . S
C420 C419 1.398 . S
C420 C421 1.391 . S
C421 H409 0.950 . S
C421 C417 1.393 . S
C421 C420 1.391 . S
C422 H412 0.950 . S
C422 C423 1.386 . S
C422 C424 1.391 . S
C423 C422 1.386 . S
C423 C427 1.393 . S
C424 H413 0.950 . S
C424 C422 1.391 . S
C424 C425 1.400 . S
C425 C419 1.491 . S
C425 C424 1.400 . S
C425 C426 1.398 . S
C426 H414 0.950 . S
C426 C425 1.398 . S
C426 C427 1.391 . S
C427 H415 0.950 . S
C427 C423 1.393 . S
C427 C426 1.391 . S
H428 C436 0.950 . S
H429 C441 0.950 . S
H430 C438 0.950 . S
H431 C440 0.950 . S
H432 C442 0.950 . S
H433 C444 0.950 . S
H434 C446 0.950 . S
H435 C447 0.950 . S
C436 H428 0.950 . S
C436 C437 1.386 . S
C436 C438 1.391 . S
C437 C436 1.386 . S
C437 C441 1.393 . S
C438 H430 0.950 . S
C438 C436 1.391 . S
C438 C439 1.400 . S
C439 C438 1.400 . S
C439 C440 1.398 . S
C439 C445 1.491 . S
C440 H431 0.950 . S
C440 C439 1.398 . S
C440 C441 1.391 . S
C441 H429 0.950 . S
C441 C437 1.393 . S
C441 C440 1.391 . S
C442 H432 0.950 . S
C442 C443 1.386 . S
C442 C444 1.391 . S
C443 C442 1.386 . S
C443 C447 1.393 . S
C444 H433 0.950 . S
C444 C442 1.391 . S
C444 C445 1.400 . S
C445 C439 1.491 . S
C445 C444 1.400 . S
C445 C446 1.398 . S
C446 H434 0.950 . S
C446 C445 1.398 . S
C446 C447 1.391 . S
C447 H435 0.950 . S
C447 C443 1.393 . S
C447 C446 1.391 . S
H448 C456 0.950 . S
H449 C461 0.950 . S
H450 C458 0.950 . S
H451 C460 0.950 . S
H452 C462 0.950 . S
H453 C464 0.950 . S
H454 C466 0.950 . S
H455 C467 0.950 . S
C456 H448 0.950 . S
C456 C457 1.386 . S
C456 C458 1.391 . S
C457 C456 1.386 . S
C457 C461 1.393 . S
C458 H450 0.950 . S
C458 C456 1.391 . S
C458 C459 1.400 . S
C459 C458 1.400 . S
C459 C460 1.398 . S
C459 C465 1.491 . S
C460 H451 0.950 . S
C460 C459 1.398 . S
C460 C461 1.391 . S
C461 H449 0.950 . S
C461 C457 1.393 . S
C461 C460 1.391 . S
C462 H452 0.950 . S
C462 C463 1.386 . S
C462 C464 1.391 . S
C463 C462 1.386 . S
C463 C467 1.393 . S
C464 H453 0.950 . S
C464 C462 1.391 . S
C464 C465 1.400 . S
C465 C459 1.491 . S
C465 C464 1.400 . S
C465 C466 1.398 . S
C466 H454 0.950 . S
C466 C465 1.398 . S
C466 C467 1.391 . S
C467 H455 0.950 . S
C467 C463 1.393 . S
C467 C466 1.391 . S
H468 C476 0.950 . S
H469 C481 0.950 . S
H470 C478 0.950 . S
H471 C480 0.950 . S
H472 C482 0.950 . S
H473 C484 0.950 . S
H474 C486 0.950 . S
H475 C487 0.950 . S
C476 H468 0.950 . S
C476 C477 1.386 . S
C476 C478 1.391 . S
C477 C476 1.386 . S
C477 C481 1.393 . S
C478 H470 0.950 . S
C478 C476 1.391 . S
C478 C479 1.400 . S
C479 C478 1.400 . S
C479 C480 1.398 . S
C479 C485 1.491 . S
C480 H471 0.950 . S
C480 C479 1.398 . S
C480 C481 1.391 . S
C481 H469 0.950 . S
C481 C477 1.393 . S
C481 C480 1.391 . S
C482 H472 0.950 . S
C482 C483 1.386 . S
C482 C484 1.391 . S
C483 C482 1.386 . S
C483 C487 1.393 . S
C484 H473 0.950 . S
C484 C482 1.391 . S
C484 C485 1.400 . S
C485 C479 1.491 . S
C485 C484 1.400 . S
C485 C486 1.398 . S
C486 H474 0.950 . S
C486 C485 1.398 . S
C486 C487 1.391 . S
C487 H475 0.950 . S
C487 C483 1.393 . S
C487 C486 1.391 . S
H488 C496 0.950 . S
H489 C501 0.950 . S
H490 C498 0.950 . S
H491 C500 0.950 . S
H492 C502 0.950 . S
H493 C504 0.950 . S
H494 C506 0.950 . S
H495 C507 0.950 . S
C496 H488 0.950 . S
C496 C497 1.386 . S
C496 C498 1.391 . S
C497 C496 1.386 . S
C497 C501 1.393 . S
C498 H490 0.950 . S
C498 C496 1.391 . S
C498 C499 1.400 . S
C499 C498 1.400 . S
C499 C500 1.398 . S
C499 C505 1.491 . S
C500 H491 0.950 . S
C500 C499 1.398 . S
C500 C501 1.391 . S
C501 H489 0.950 . S
C501 C497 1.393 . S
C501 C500 1.391 . S
C502 H492 0.950 . S
C502 C503 1.386 . S
C502 C504 1.391 . S
C503 C502 1.386 . S
C503 C507 1.393 . S
C504 H493 0.950 . S
C504 C502 1.391 . S
C504 C505 1.400 . S
C505 C499 1.491 . S
C505 C504 1.400 . S
C505 C506 1.398 . S
C506 H494 0.950 . S
C506 C505 1.398 . S
C506 C507 1.391 . S
C507 H495 0.950 . S
C507 C503 1.393 . S
C507 C506 1.391 . S
H508 C516 0.950 . S
H509 C521 0.950 . S
H510 C518 0.950 . S
H511 C520 0.950 . S
H512 C522 0.950 . S
H513 C524 0.950 . S
H514 C526 0.950 . S
H515 C527 0.950 . S
C516 H508 0.950 . S
C516 C517 1.386 . S
C516 C518 1.391 . S
C517 C516 1.386 . S
C517 C521 1.393 . S
C518 H510 0.950 . S
C518 C516 1.391 . S
C518 C519 1.400 . S
C519 C518 1.400 . S
C519 C520 1.398 . S
C519 C525 1.491 . S
C520 H511 0.950 . S
C520 C519 1.398 . S
C520 C521 1.391 . S
C521 H509 0.950 . S
C521 C517 1.393 . S
C521 C520 1.391 . S
C522 H512 0.950 . S
C522 C523 1.386 . S
C522 C524 1.391 . S
C523 C522 1.386 . S
C523 C527 1.393 . S
C524 H513 0.950 . S
C524 C522 1.391 . S
C524 C525 1.400 . S
C525 C519 1.491 . S
C525 C524 1.400 . S
C525 C526 1.398 . S
C526 H514 0.950 . S
C526 C525 1.398 . S
C526 C527 1.391 . S
C527 H515 0.950 . S
C527 C523 1.393 . S
C527 C526 1.391 . S
H528 C536 0.950 . S
H529 C541 0.950 . S
H530 C538 0.950 . S
H531 C540 0.950 . S
H532 C542 0.950 . S
H533 C544 0.950 . S
H534 C546 0.950 . S
H535 C547 0.950 . S
C536 H528 0.950 . S
C536 C537 1.386 . S
C536 C538 1.391 . S
C537 C536 1.386 . S
C537 C541 1.393 . S
C538 H530 0.950 . S
C538 C536 1.391 . S
C538 C539 1.400 . S
C539 C538 1.400 . S
C539 C540 1.398 . S
C539 C545 1.491 . S
C540 H531 0.950 . S
C540 C539 1.398 . S
C540 C541 1.391 . S
C541 H529 0.950 . S
C541 C537 1.393 . S
C541 C540 1.391 . S
C542 H532 0.950 . S
C542 C543 1.386 . S
C542 C544 1.391 . S
C543 C542 1.386 . S
C543 C547 1.393 . S
C544 H533 0.950 . S
C544 C542 1.391 . S
C544 C545 1.400 . S
C545 C539 1.491 . S
C545 C544 1.400 . S
C545 C546 1.398 . S
C546 H534 0.950 . S
C546 C545 1.398 . S
C546 C547 1.391 . S
C547 H535 0.950 . S
C547 C543 1.393 . S
C547 C546 1.391 . S
H548 C556 0.950 . S
H549 C561 0.950 . S
H550 C558 0.950 . S
H551 C560 0.950 . S
H552 C562 0.950 . S
H553 C564 0.950 . S
H554 C566 0.950 . S
H555 C567 0.950 . S
C556 H548 0.950 . S
C556 C557 1.386 . S
C556 C558 1.391 . S
C557 C556 1.386 . S
C557 C561 1.393 . S
C558 H550 0.950 . S
C558 C556 1.391 . S
C558 C559 1.400 . S
C559 C558 1.400 . S
C559 C560 1.398 . S
C559 C565 1.491 . S
C560 H551 0.950 . S
C560 C559 1.398 . S
C560 C561 1.391 . S
C561 H549 0.950 . S
C561 C557 1.393 . S
C561 C560 1.391 . S
C562 H552 0.950 . S
C562 C563 1.386 . S
C562 C564 1.391 . S
C563 C562 1.386 . S
C563 C567 1.393 . S
C564 H553 0.950 . S
C564 C562 1.391 . S
C564 C565 1.400 . S
C565 C559 1.491 . S
C565 C564 1.400 . S
C565 C566 1.398 . S
C566 H554 0.950 . S
C566 C565 1.398 . S
C566 C567 1.391 . S
C567 H555 0.950 . S
C567 C563 1.393 . S
C567 C566 1.391 . S
H568 C576 0.950 . S
H569 C581 0.950 . S
H570 C578 0.950 . S
H571 C580 0.950 . S
H572 C582 0.950 . S
H573 C584 0.950 . S
H574 C586 0.950 . S
H575 C587 0.950 . S
C576 H568 0.950 . S
C576 C577 1.386 . S
C576 C578 1.391 . S
C577 C576 1.386 . S
C577 C581 1.393 1_556 S
C578 H570 0.950 . S
C578 C576 1.391 . S
C578 C579 1.400 . S
C579 C578 1.400 . S
C579 C580 1.398 1_556 S
C579 C585 1.491 1_556 S
C580 H571 0.950 . S
C580 C579 1.398 1_554 S
C580 C581 1.391 . S
C581 H569 0.950 . S
C581 C577 1.393 1_554 S
C581 C580 1.391 . S
C582 H572 0.950 . S
C582 C583 1.386 . S
C582 C584 1.391 . S
C583 C582 1.386 . S
C583 C587 1.393 1_554 S
C584 H573 0.950 . S
C584 C582 1.391 . S
C584 C585 1.400 . S
C585 C579 1.491 1_554 S
C585 C584 1.400 . S
C585 C586 1.398 1_554 S
C586 H574 0.950 . S
C586 C585 1.398 1_556 S
C586 C587 1.391 . S
C587 H575 0.950 . S
C587 C583 1.393 1_556 S
C587 C586 1.391 . S
H588 C596 0.950 . S
H589 C601 0.950 . S
H590 C598 0.950 . S
H591 C600 0.950 . S
H592 C602 0.950 . S
H593 C604 0.950 . S
H594 C606 0.950 . S
H595 C607 0.950 . S
C596 H588 0.950 . S
C596 C597 1.386 . S
C596 C598 1.391 . S
C597 C596 1.386 . S
C597 C601 1.393 . S
C598 H590 0.950 . S
C598 C596 1.391 . S
C598 C599 1.400 . S
C599 C598 1.400 . S
C599 C600 1.398 . S
C599 C605 1.491 . S
C600 H591 0.950 . S
C600 C599 1.398 . S
C600 C601 1.391 . S
C601 H589 0.950 . S
C601 C597 1.393 . S
C601 C600 1.391 . S
C602 H592 0.950 . S
C602 C603 1.386 . S
C602 C604 1.391 . S
C603 C602 1.386 . S
C603 C607 1.393 . S
C604 H593 0.950 . S
C604 C602 1.391 . S
C604 C605 1.400 . S
C605 C599 1.491 . S
C605 C604 1.400 . S
C605 C606 1.398 . S
C606 H594 0.950 . S
C606 C605 1.398 . S
C606 C607 1.391 . S
C607 H595 0.950 . S
C607 C603 1.393 . S
C607 C606 1.391 . S
H608 C616 0.950 . S
H609 C621 0.950 . S
H610 C618 0.950 . S
H611 C620 0.950 . S
H612 C622 0.950 . S
H613 C624 0.950 . S
H614 C626 0.950 . S
H615 C627 0.950 . S
C616 H608 0.950 . S
C616 C617 1.386 . S
C616 C618 1.391 . S
C617 C616 1.386 . S
C617 C621 1.393 . S
C618 H610 0.950 . S
C618 C616 1.391 . S
C618 C619 1.400 . S
C619 C618 1.400 . S
C619 C620 1.398 . S
C619 C625 1.491 . S
C620 H611 0.950 . S
C620 C619 1.398 . S
C620 C621 1.391 . S
C621 H609 0.950 . S
C621 C617 1.393 . S
C621 C620 1.391 . S
C622 H612 0.950 . S
C622 C623 1.386 . S
C622 C624 1.391 . S
C623 C622 1.386 . S
C623 C627 1.393 . S
C624 H613 0.950 . S
C624 C622 1.391 . S
C624 C625 1.400 . S
C625 C619 1.491 . S
C625 C624 1.400 . S
C625 C626 1.398 . S
C626 H614 0.950 . S
C626 C625 1.398 . S
C626 C627 1.391 . S
C627 H615 0.950 . S
C627 C623 1.393 . S
C627 C626 1.391 . S
H628 C636 0.950 . S
H629 C641 0.950 . S
H630 C638 0.950 . S
H631 C640 0.950 . S
H632 C642 0.950 . S
H633 C644 0.950 . S
H634 C646 0.950 . S
H635 C647 0.950 . S
C636 H628 0.950 . S
C636 C637 1.386 1_556 S
C636 C638 1.391 . S
C637 C636 1.386 1_554 S
C637 C641 1.393 . S
C638 H630 0.950 . S
C638 C636 1.391 . S
C638 C639 1.400 1_556 S
C639 C638 1.400 1_554 S
C639 C640 1.398 . S
C639 C645 1.491 1_554 S
C640 H631 0.950 . S
C640 C639 1.398 . S
C640 C641 1.391 . S
C641 H629 0.950 . S
C641 C637 1.393 . S
C641 C640 1.391 . S
C642 H632 0.950 . S
C642 C643 1.386 1_554 S
C642 C644 1.391 . S
C643 C642 1.386 1_556 S
C643 C647 1.393 . S
C644 H633 0.950 . S
C644 C642 1.391 . S
C644 C645 1.400 1_554 S
C645 C639 1.491 1_556 S
C645 C644 1.400 1_556 S
C645 C646 1.398 . S
C646 H634 0.950 . S
C646 C645 1.398 . S
C646 C647 1.391 . S
C647 H635 0.950 . S
C647 C643 1.393 . S
C647 C646 1.391 . S
C177 C0 1.356 . S
C183 C126 1.346 . S
C197 C14 1.363 . S
C203 C140 1.352 . S
C217 C28 1.356 . S
C223 C154 1.346 . S
C237 C42 1.341 . S
C243 C84 1.346 . S
C257 C98 1.343 . S
C263 C56 1.351 . S
C277 C112 1.365 . S
C283 C70 1.355 . S
C297 C151 1.758 . S
C303 C11 1.767 . S
C317 C25 1.755 . S
C323 C165 1.768 . S
C337 C39 1.768 . S
C343 C95 1.753 . S
C357 C53 1.753 . S
C363 C109 1.765 . S
C377 C67 1.754 . S
C383 C123 1.762 . S
C397 C81 1.753 . S
C403 C137 1.766 . S
C417 C149 0.951 . S
C423 C9 0.950 . S
C437 C23 0.947 . S
C443 C163 0.946 . S
C457 C37 0.948 . S
C463 C93 0.950 . S
C477 C51 0.951 . S
C483 C107 0.949 . S
C497 C65 0.950 . S
C503 C121 0.948 . S
C517 C79 0.951 . S
C523 C135 0.950 . S
C537 C5 1.646 . S
C543 C89 1.646 . S
C557 C103 1.641 . S
C563 C19 1.641 . S
C577 C33 1.647 . S
C583 C117 1.646 . S
C597 C47 1.641 . S
C603 C131 1.641 . S
C617 C61 1.643 . S
C623 C145 1.643 . S
C637 C159 1.642 . S
C643 C75 1.643 . S
