# Generated by pormake.
# Topology qtz-x, (6)-cn, num edge types: 1
# Building blocks:
#     Node 0, Type 0, BuildingBlock: INOVEN_clean_sbu_0, # of connection points: 6
#     Node 1, Type 0, BuildingBlock: INOVEN_clean_sbu_0, # of connection points: 6
#     Node 2, Type 0, BuildingBlock: INOVEN_clean_sbu_0, # of connection points: 6
#     Edge 3, Type (0, 0), BuildingBlock: ZUJKAS_clean_linker_0, # of connection points: 2
#     Edge 4, Type (0, 0), BuildingBlock: ZUJKAS_clean_linker_0, # of connection points: 2
#     Edge 5, Type (0, 0), BuildingBlock: ZUJKAS_clean_linker_0, # of connection points: 2
#     Edge 6, Type (0, 0), BuildingBlock: ZUJKAS_clean_linker_0, # of connection points: 2
#     Edge 7, Type (0, 0), BuildingBlock: ZUJKAS_clean_linker_0, # of connection points: 2
#     Edge 8, Type (0, 0), BuildingBlock: ZUJKAS_clean_linker_0, # of connection points: 2
#     Edge 9, Type (0, 0), BuildingBlock: ZUJKAS_clean_linker_0, # of connection points: 2
#     Edge 10, Type (0, 0), BuildingBlock: ZUJKAS_clean_linker_0, # of connection points: 2
#     Edge 11, Type (0, 0), BuildingBlock: ZUJKAS_clean_linker_0, # of connection points: 2
# Relax obj value: 0.169
# Max RMSD: 0.239
# Mean RMSD: 0.218
data_MOF--net-qtz-x--node1-INOVEN_clean_sbu_0--edge1-ZUJKAS_clean_linker_0
_symmetry_space_group_name_H-M    P1
_symmetry_Int_Tables_number       1
_symmetry_cell_setting            triclinic
loop_
_symmetry_equiv_pos_as_xyz
'x, y, z'
_cell_length_a     18.964009
_cell_length_b     18.973142
_cell_length_c     65.531703
_cell_angle_alpha  73.98023
_cell_angle_beta   109.84693
_cell_angle_gamma 120.75117
loop_
_atom_site_label
_atom_site_type_symbol
_atom_site_fract_x
_atom_site_fract_y
_atom_site_fract_z
_atom_type_partial_charge
Gd0 Gd 0.98147 0.58083 0.19153 0.0
Gd1 Gd 0.14767 0.70484 0.18148 0.0
C2 C 0.14982 0.65756 0.23121 0.0
C3 C 0.86313 0.4555 0.20848 0.0
C4 C 0.84743 0.42495 0.23066 0.0
C5 C 0.7683 0.40219 0.23365 0.0
C6 C 0.91095 0.41983 0.24899 0.0
C7 C 0.81642 0.37033 0.27301 0.0
C8 C 0.89561 0.39282 0.26991 0.0
C9 C 0.7529 0.37522 0.25458 0.0
C10 C 1.00899 0.73893 0.18505 0.0
C11 C 0.97968 0.63731 0.14172 0.0
C12 C 0.26873 0.82303 0.16406 0.0
C13 C 0.2892 0.83611 0.14311 0.0
C14 C 0.37363 0.87911 0.14162 0.0
C15 C 0.2253 0.80037 0.12494 0.0
C16 C 0.33011 0.84787 0.10427 0.0
C17 C 0.24547 0.80635 0.10573 0.0
C18 C 0.39399 0.88502 0.12237 0.0
C19 C 0.11685 0.54535 0.18717 0.0
O20 O 0.07517 0.59431 0.22485 0.0
O21 O 0.18698 0.71866 0.21685 0.0
O22 O 0.85918 0.52423 0.19912 0.0
O23 O 0.92584 0.45212 0.20531 0.0
O24 O 0.93612 0.67728 0.17851 0.0
O25 O 0.06316 0.71395 0.19559 0.0
O26 O 0.05366 0.69911 0.14891 0.0
O27 O 0.94129 0.57321 0.15536 0.0
O28 O 0.276 0.7614 0.17792 0.0
O29 O 0.20018 0.82624 0.16293 0.0
O30 O 0.18992 0.60566 0.19403 0.0
O31 O 0.06465 0.57257 0.17681 0.0
H32 H 0.71848 0.40596 0.21978 0.0
H33 H 0.97265 0.43685 0.24721 0.0
H34 H 0.94569 0.38881 0.28364 0.0
H35 H 0.69158 0.35954 0.25634 0.0
H36 H 0.42392 0.90671 0.1555 0.0
H37 H 0.15981 0.76601 0.12569 0.0
H38 H 0.19484 0.77593 0.09228 0.0
H39 H 0.45977 0.91817 0.12171 0.0
Gd40 Gd 0.74351 0.12588 0.54067 0.0
Gd41 Gd 0.68372 0.95121 0.53561 0.0
C42 C 0.73207 -0.01311 0.58392 0.0
C43 C 0.76817 0.25883 0.5518 0.0
C44 C 0.79198 0.28979 0.57258 0.0
C45 C 0.83809 0.26204 0.59167 0.0
C46 C 0.76769 0.3471 0.57343 0.0
C47 C 0.83713 0.35047 0.6122 0.0
C48 C 0.78992 0.37714 0.59309 0.0
C49 C 0.8608 0.29242 0.61131 0.0
C50 C 0.86558 0.0954 0.5388 0.0
C51 C 0.6973 0.09184 0.49247 0.0
C52 C 0.65476 0.81868 0.52325 0.0
C53 C 0.62666 0.79182 0.5015 0.0
C54 C 0.55635 0.71495 0.49723 0.0
C55 C 0.66414 0.84523 0.48435 0.0
C56 C 0.55657 0.74838 0.45853 0.0
C57 C 0.62933 0.8239 0.46309 0.0
C58 C 0.52174 0.69328 0.47598 0.0
C59 C 0.56212 0.98246 0.53745 0.0
O60 O 0.73218 0.05839 0.57473 0.0
O61 O 0.72575 0.93645 0.57221 0.0
O62 O 0.82647 0.25248 0.54721 0.0
O63 O 0.69357 0.19526 0.54742 0.0
O64 O 0.85985 0.16292 0.52989 0.0
O65 O 0.80892 0.04844 0.54922 0.0
O66 O 0.69558 0.01955 0.50151 0.0
O67 O 0.7038 0.14206 0.50422 0.0
O68 O 0.59867 0.82444 0.52907 0.0
O69 O 0.73051 0.88057 0.52811 0.0
O70 O 0.56811 0.91523 0.54663 0.0
O71 O 0.61851 0.02868 0.52692 0.0
H72 H 0.85662 0.21702 0.59138 0.0
H73 H 0.7318 0.36887 0.55886 0.0
H74 H 0.77138 0.42229 0.59326 0.0
H75 H 0.89617 0.26993 0.62584 0.0
H76 H 0.52657 0.67264 0.51022 0.0
H77 H 0.71856 0.90493 0.48715 0.0
H78 H 0.65747 0.86837 0.45011 0.0
H79 H 0.46678 0.63392 0.47317 0.0
Gd80 Gd 0.72631 0.78898 0.85805 0.0
Gd81 Gd 0.86274 0.74081 0.86495 0.0
C82 C 0.82469 0.74336 0.90768 0.0
C83 C 0.59732 0.7961 0.86079 0.0
C84 C 0.56732 0.79337 0.87916 0.0
C85 C 0.53681 0.84845 0.87776 0.0
C86 C 0.57318 0.73966 0.89858 0.0
C87 C 0.52061 0.79801 0.9152 0.0
C88 C 0.54997 0.74188 0.9164 0.0
C89 C 0.51366 0.8508 0.89559 0.0
C90 C 0.88127 0.91683 0.85782 0.0
C91 C 0.76496 0.78623 0.81502 0.0
C92 C 0.99054 0.73118 0.86248 0.0
C93 C 1.00925 0.71349 0.84487 0.0
C94 C 1.01781 0.64187 0.84782 0.0
C95 C 1.01094 0.76288 0.82445 0.0
C96 C 1.02025 0.66446 0.8096 0.0
C97 C 1.0163 0.73854 0.80698 0.0
C98 C 1.02308 0.61746 0.83035 0.0
C99 C 0.70702 0.61291 0.86472 0.0
O100 O 0.75583 0.74753 0.89462 0.0
O101 O 0.88447 0.75196 0.89981 0.0
O102 O 0.66735 0.8618 0.8577 0.0
O103 O 0.59439 0.7278 0.85879 0.0
O104 O 0.81213 0.91757 0.8451 0.0
O105 O 0.86518 0.85048 0.87078 0.0
O106 O 0.83131 0.77751 0.82826 0.0
O107 O 0.70732 0.78335 0.8227 0.0
O108 O 0.92873 0.66927 0.87064 0.0
O109 O 0.98871 0.80145 0.85953 0.0
O110 O 0.7758 0.61123 0.8773 0.0
O111 O 0.72417 0.67977 0.85204 0.0
H112 H 0.53243 0.89083 0.863 0.0
H113 H 0.59669 0.69659 0.90012 0.0
H114 H 0.5551 0.69958 0.93112 0.0
H115 H 0.49246 0.89558 0.89418 0.0
H116 H 1.01728 0.60309 0.86345 0.0
H117 H 1.00485 0.81871 0.82166 0.0
H118 H 1.01333 0.77581 0.79117 0.0
H119 H 1.02748 0.56078 0.83295 0.0
H120 H 0.89365 0.79691 0.16575 0.0
H121 H 0.91209 0.93469 0.16543 0.0
H122 H 0.17027 0.00843 0.20235 0.0
H123 H 0.15249 0.87091 0.20246 0.0
H124 H 0.9536 0.01215 0.20104 0.0
H125 H 0.19408 0.19616 0.152 0.0
H126 H 0.133 0.08513 0.15333 0.0
H127 H 0.22238 0.13113 0.17531 0.0
C128 C 0.95456 0.84273 0.17365 0.0
C129 C 1.02169 0.82328 0.18412 0.0
C130 C 0.96495 0.92135 0.17348 0.0
C131 C 0.04279 0.98221 0.18365 0.0
C132 C 0.11012 0.96301 0.19404 0.0
H133 H 0.22933 0.48396 0.20618 0.0
H134 H 0.20831 0.34596 0.20562 0.0
C135 C 0.09979 0.88432 0.19419 0.0
C136 C 0.05234 0.06466 0.18404 0.0
H137 H 0.16605 0.2715 0.16907 0.0
C138 C 0.99972 0.06887 0.19395 0.0
C139 C 0.11256 0.13858 0.17479 0.0
C140 C 0.16825 0.13784 0.16307 0.0
C141 C 1.00689 0.14507 0.19526 0.0
C142 C 0.06741 0.219 0.18611 0.0
C143 C 0.11979 0.21477 0.17612 0.0
C144 C 0.07834 0.30159 0.18693 0.0
C145 C 0.9511 0.1459 0.20693 0.0
C146 C 1.01224 0.32262 0.17658 0.0
C147 C 1.02408 0.40151 0.17692 0.0
C148 C 0.10242 0.4608 0.18749 0.0
C149 C 0.16827 0.43949 0.19791 0.0
C150 C 0.15641 0.36075 0.19757 0.0
H151 H 0.92368 0.08694 0.21765 0.0
H152 H 0.98689 0.19761 0.21702 0.0
H153 H 0.89813 0.15457 0.19465 0.0
H154 H 0.95193 0.27849 0.16794 0.0
H155 H 0.97237 0.41644 0.16866 0.0
H156 H 0.437 0.88418 0.55891 0.0
H157 H 0.31933 0.9044 0.55868 0.0
H158 H 0.41221 0.13431 0.51638 0.0
H159 H 0.52978 0.1135 0.51625 0.0
H160 H 0.31937 0.02938 0.57215 0.0
H161 H 0.16599 0.01422 0.48362 0.0
H162 H 0.24758 -0.01715 0.4973 0.0
H163 H 0.27493 0.09066 0.48952 0.0
C164 C 0.43229 0.93897 0.54948 0.0
C165 C 0.49236 -0.003 0.53747 0.0
C166 C 0.365 0.95052 0.54941 0.0
C167 C 0.35589 0.02018 0.53725 0.0
C168 C 0.41671 0.07912 0.52551 0.0
H169 H 0.99105 0.19468 0.51747 0.0
H170 H 0.10892 0.17496 0.5176 0.0
C171 C 0.48422 0.06752 0.52556 0.0
C172 C 0.28321 0.03098 0.5372 0.0
H173 H 0.10888 0.04982 0.50388 0.0
C174 C 0.2732 0.0336 0.55722 0.0
C175 C 0.22274 0.03632 0.51774 0.0
C176 C 0.22759 0.03014 0.49583 0.0
C177 C 0.2055 0.04284 0.55829 0.0
C178 C 0.14502 0.04814 0.53884 0.0
C179 C 0.15506 0.0456 0.5188 0.0
C180 C 0.07219 0.05864 0.5388 0.0
C181 C 0.20055 0.04889 0.5802 0.0
C182 C 1.01119 -0.00079 0.55044 0.0
C183 C 0.94352 0.01047 0.55043 0.0
C184 C 0.93546 0.0812 0.53869 0.0
C185 C 0.99571 0.13973 0.52678 0.0
C186 C 0.06312 0.12848 0.52679 0.0
H187 H 0.2621 0.06467 0.59243 0.0
H188 H 0.18065 0.09624 0.57874 0.0
H189 H 0.1531 -0.01162 0.58647 0.0
H190 H 1.0157 0.94391 0.55946 0.0
H191 H 0.8978 0.96408 0.55964 0.0
H192 H 0.03123 0.9309 0.88582 0.0
H193 H 0.17154 0.05068 0.88696 0.0
H194 H 0.06312 0.18118 0.83193 0.0
H195 H 0.92298 0.06233 0.83088 0.0
H196 H 0.26253 0.12859 0.85447 0.0
H197 H 0.19408 0.34524 0.87686 0.0
H198 H 0.12635 0.23497 0.87907 0.0
H199 H 0.1212 0.29744 0.85293 0.0
C200 C 0.03746 -0.01474 0.87402 0.0
C201 C 0.96628 -0.0123 0.85837 0.0
C202 C 0.1175 0.05354 0.87467 0.0
C203 C 0.12748 0.12538 0.85978 0.0
C204 C 0.05659 0.12716 0.84389 0.0
H205 H 0.5583 0.5996 0.83607 0.0
H206 H 0.41731 0.48064 0.83463 0.0
C207 C 0.97667 0.05905 0.84324 0.0
C208 C 0.21223 0.19793 0.86057 0.0
H209 H 0.32451 0.40288 0.86716 0.0
C210 C 0.27627 0.18847 0.85736 0.0
C211 C 0.22983 0.27607 0.86425 0.0
C212 C 0.16454 0.28918 0.86868 0.0
C213 C 0.35714 0.25538 0.85738 0.0
C214 C 0.37478 0.33346 0.86109 0.0
C215 C 0.31071 0.34299 0.86426 0.0
C216 C 0.45978 0.40569 0.8621 0.0
C217 C 0.42251 0.24231 0.85298 0.0
C218 C 0.52995 0.40346 0.87824 0.0
C219 C 0.61021 0.47115 0.8791 0.0
C220 C 0.62165 0.5425 0.86391 0.0
C221 C 0.55119 0.54533 0.84797 0.0
C222 C 0.47078 0.4775 0.84713 0.0
H223 H 0.39306 0.18619 0.84483 0.0
H224 H 0.46064 0.2965 0.84257 0.0
H225 H 0.46592 0.23424 0.86873 0.0
H226 H 0.52258 0.34939 0.89024 0.0
H227 H 0.66333 0.46757 0.89167 0.0
H228 H 0.38909 0.82001 0.91579 0.0
H229 H 0.35778 0.83321 0.94742 0.0
H230 H 0.56998 0.79691 0.98994 0.0
H231 H 0.60385 0.78697 0.95839 0.0
H232 H 0.31916 0.72176 0.98432 0.0
H233 H 0.61344 0.00871 1.00707 0.0
H234 H 0.58052 0.97223 0.98107 0.0
H235 H 0.6317 0.92702 1.00517 0.0
C236 C 0.42978 0.81585 0.93184 0.0
C237 C 0.49937 0.80299 0.93449 0.0
C238 C 0.41141 0.82284 0.94991 0.0
C239 C 0.46239 0.81749 0.97099 0.0
C240 C 0.53082 0.80297 0.97378 0.0
H241 H 0.45925 0.82659 0.10184 0.0
H242 H 0.48945 0.82075 0.06908 0.0
C243 C 0.5494 0.79619 0.95572 0.0
C244 C 0.44323 0.82581 0.99011 0.0
H245 H 0.52707 0.93873 0.03259 0.0
C246 C 0.36433 0.76951 0.9948 0.0
C247 C 0.50227 0.88826 1.00373 0.0
C248 C 0.58642 0.95302 0.99893 0.0
C249 C 0.34368 0.77262 1.01309 0.0
C250 C 0.40312 0.83453 1.02684 0.0
C251 C 0.48173 0.89122 1.02204 0.0
C252 C 0.38563 0.84065 0.04653 0.0
C253 C 0.25935 0.70822 1.01786 0.0
C254 C 0.31831 0.85557 0.04467 0.0
C255 C 0.30114 0.8594 0.06336 0.0
C256 C 0.35133 0.8489 0.08428 0.0
C257 C 0.41997 0.83595 0.086 0.0
C258 C 0.43702 0.83207 0.0673 0.0
H259 H 0.2303 0.65381 1.00904 0.0
H260 H 0.26593 0.68671 0.03566 0.0
H261 H 0.21544 0.73566 1.01248 0.0
H262 H 0.27903 0.8643 0.02876 0.0
H263 H 0.24868 0.87084 0.06143 0.0
H264 H 0.66188 -0.00165 0.46176 0.0
H265 H 0.67686 0.04542 0.42411 0.0
H266 H 0.7477 0.29324 0.43197 0.0
H267 H 0.73303 0.24655 0.46976 0.0
H268 H 0.63237 0.24077 0.39144 0.0
H269 H 0.90939 0.18582 0.40888 0.0
H270 H 0.81748 0.09794 0.41652 0.0
H271 H 0.87092 0.18825 0.43025 0.0
C272 C 0.6807 0.06282 0.45554 0.0
C273 C 0.6975 0.11878 0.46894 0.0
C274 C 0.68929 0.08969 0.43398 0.0
C275 C 0.71507 0.17318 0.42538 0.0
C276 C 0.7283 0.22861 0.43835 0.0
H277 H 0.92441 0.43045 0.31148 0.0
H278 H 0.89823 0.38329 0.34812 0.0
C279 C 0.71972 0.20174 0.45995 0.0
C280 C 0.73015 0.20299 0.40304 0.0
H281 H 0.85344 0.22368 0.3718 0.0
C282 C 0.68068 0.23711 0.38712 0.0
C283 C 0.79401 0.19913 0.39753 0.0
C284 C 0.85162 0.16652 0.4142 0.0
C285 C 0.69249 0.26627 0.36574 0.0
C286 C 0.75491 0.26045 0.3601 0.0
C287 C 0.80518 0.22748 0.37611 0.0
C288 C 0.76988 0.28914 0.33774 0.0
C289 C 0.63905 0.30432 0.34945 0.0
C290 C 0.70674 0.25121 0.31975 0.0
C291 C 0.7217 0.27753 0.29878 0.0
C292 C 0.80031 0.34226 0.29536 0.0
C293 C 0.86353 0.37979 0.31349 0.0
C294 C 0.84854 0.35326 0.33445 0.0
H295 H 0.60878 0.32205 0.35762 0.0
H296 H 0.67758 0.35996 0.33944 0.0
H297 H 0.58827 0.25879 0.33826 0.0
H298 H 0.64617 0.20044 0.32198 0.0
H299 H 0.67208 0.24614 0.28531 0.0
H300 H 0.8684 0.78969 0.79374 0.0
H301 H 0.86032 0.81939 0.75462 0.0
H302 H 0.63524 0.84391 0.74236 0.0
H303 H 0.64276 0.8141 0.78174 0.0
H304 H 0.62889 0.74791 0.71332 0.0
H305 H 0.91564 0.05301 0.71959 0.0
H306 H 0.92929 0.9682 0.73773 0.0
H307 H 0.85971 -0.00018 0.74107 0.0
C308 C 0.81707 0.80138 0.78283 0.0
C309 C 0.75672 0.80026 0.79101 0.0
C310 C 0.81269 0.81854 0.76041 0.0
C311 C 0.74794 0.83509 0.74559 0.0
C312 C 0.68603 0.83172 0.75354 0.0
H313 H 0.73882 0.07352 0.61224 0.0
H314 H 0.74105 0.03341 0.65103 0.0
C315 C 0.6905 0.81474 0.77606 0.0
C316 C 0.74596 0.85711 0.72188 0.0
H317 H 0.85695 0.00317 0.68523 0.0
C318 C 0.67857 0.80375 0.70713 0.0
C319 C 0.81053 0.93034 0.71384 0.0
C320 C 0.88263 -0.00833 0.7288 0.0
C321 C 0.67452 0.82125 0.68456 0.0
C322 C 0.74021 0.89361 0.67657 0.0
C323 C 0.80706 0.94732 0.69135 0.0
C324 C 0.73918 0.91688 0.65287 0.0
C325 C 0.59907 0.76302 0.66943 0.0
C326 C 0.73871 0.86532 0.64094 0.0
C327 C 0.73721 0.88804 0.61858 0.0
C328 C 0.73686 0.96313 0.60778 0.0
C329 C 0.73898 0.01519 0.61993 0.0
C330 C 0.74024 -0.00764 0.64218 0.0
H331 H 0.54514 0.72253 0.67726 0.0
H332 H 0.57788 0.7977 0.65412 0.0
H333 H 0.61684 0.72278 0.66502 0.0
H334 H 0.73987 0.80765 0.64892 0.0
H335 H 0.73609 0.84668 0.60979 0.0
H336 H 0.92413 0.68061 0.93853 0.0
H337 H 0.93715 0.65026 0.97797 0.0
H338 H 0.76272 0.74266 0.97064 0.0
H339 H 0.74652 0.76949 0.93104 0.0
H340 H 0.9969 0.74511 1.00712 0.0
H341 H 0.66243 0.53336 1.00892 0.0
H342 H 0.69866 0.56566 0.98419 0.0
H343 H 0.6753 0.63118 0.99329 0.0
C344 C 0.88821 0.69409 0.94531 0.0
C345 C 0.83406 0.72716 0.93165 0.0
C346 C 0.89554 0.67653 0.96788 0.0
C347 C 0.84966 0.69248 0.97738 0.0
C348 C 0.79665 0.72701 0.96376 0.0
H349 H 1.00703 0.77424 0.11201 0.0
H350 H 0.96969 0.78255 0.0723 0.0
C351 C 0.78806 0.74315 0.9411 0.0
C352 C 0.86123 0.6771 1.00158 0.0
H353 H 0.75562 0.58781 0.04243 0.0
C354 C 0.94395 0.71006 1.01477 0.0
C355 C 0.79248 0.63008 1.01176 0.0
C356 C 0.70235 0.58731 0.9988 0.0
C357 C 0.95981 0.69914 0.03765 0.0
C358 C 0.89097 0.65663 0.04774 0.0
C359 C 0.80828 0.62154 0.03468 0.0
C360 C 0.90429 0.65016 0.07176 0.0
C361 C 0.05047 0.73227 0.0508 0.0
C362 C 0.87524 0.57279 0.08469 0.0
C363 C 0.89531 0.56779 0.10757 0.0
C364 C 0.94497 0.64017 0.11776 0.0
C365 C 0.96964 0.7173 0.10465 0.0
C366 C 0.94887 0.72221 0.08193 0.0
H367 H 0.09329 0.73949 0.04141 0.0
H368 H 0.07178 0.79411 0.05496 0.0
H369 H 0.05709 0.69088 0.06624 0.0
H370 H 0.83996 0.51634 0.07715 0.0
H371 H 0.87568 0.50757 0.11727 0.0
H372 H 0.31426 0.7568 0.24992 0.0
H373 H 0.38244 0.76381 0.28884 0.0
H374 H 0.14633 0.57684 0.3048 0.0
H375 H 0.07831 0.56785 0.2659 0.0
H376 H 0.35108 0.80742 0.31878 0.0
H377 H 0.30281 0.48483 0.34412 0.0
H378 H 0.28438 0.528 0.31577 0.0
H379 H 0.20608 0.49115 0.33095 0.0
C380 C 0.27692 0.71675 0.26171 0.0
C381 C 0.19098 0.66131 0.25481 0.0
C382 C 0.31601 0.72081 0.28397 0.0
C383 C 0.27001 0.66983 0.2998 0.0
C384 C 0.18385 0.61509 0.29295 0.0
H385 H 0.38664 0.67239 0.43957 0.0
H386 H 0.31796 0.64991 0.40128 0.0
C387 C 0.14488 0.61033 0.27067 0.0
C388 C 0.31173 0.67672 0.32339 0.0
H389 H 0.35345 0.56622 0.37275 0.0
C390 C 0.352 0.75471 0.33052 0.0
C391 C 0.31302 0.60791 0.33875 0.0
C392 C 0.27499 0.52343 0.33201 0.0
C393 C 0.39257 0.76555 0.35257 0.0
C394 C 0.39291 0.69672 0.36787 0.0
C395 C 0.35269 0.61871 0.36088 0.0
C396 C 0.43476 0.7051 0.39127 0.0
C397 C 0.43412 0.85029 0.3595 0.0
C398 C 0.52312 0.74212 0.3983 0.0
C399 C 0.56276 0.7541 0.42024 0.0
C400 C 0.51464 0.72964 0.43554 0.0
C401 C 0.42581 0.69084 0.4284 0.0
C402 C 0.38631 0.6784 0.40648 0.0
H403 H 0.41951 0.89521 0.34614 0.0
H404 H 0.41332 0.84681 0.37384 0.0
H405 H 0.5037 0.87392 0.36452 0.0
H406 H 0.5614 0.76255 0.38675 0.0
H407 H 0.63112 0.78294 0.42518 0.0
H408 H 0.92458 0.5072 0.79896 0.0
H409 H 0.90704 0.4576 0.76608 0.0
H410 H 0.0846 0.70166 0.74362 0.0
H411 H 0.10216 0.75203 0.77655 0.0
H412 H 0.94117 0.63747 0.71223 0.0
H413 H 0.06017 0.40679 0.74882 0.0
H414 H 0.97935 0.39008 0.76061 0.0
H415 H 0.07845 0.48322 0.76399 0.0
C416 C 0.96136 0.54997 0.78727 0.0
C417 C 1.01521 0.63345 0.79042 0.0
C418 C 0.95131 0.52146 0.76848 0.0
C419 C 0.99558 0.57556 0.75257 0.0
C420 C 0.05016 0.65877 0.75576 0.0
H421 H 0.99185 0.405 0.64109 0.0
H422 H 0.03413 0.46334 0.67484 0.0
C423 C 0.05996 0.68748 0.77453 0.0
C424 C 0.98036 0.54636 0.73196 0.0
H425 H 0.97752 0.39692 0.7118 0.0
C426 C 0.94997 0.58542 0.71211 0.0
C427 C 0.99285 0.47912 0.7318 0.0
C428 C 0.03033 0.43792 0.75243 0.0
C429 C 0.92926 0.5575 0.69214 0.0
C430 C 0.93728 0.48737 0.6921 0.0
C431 C 0.97027 0.44996 0.71188 0.0
C432 C 0.91133 0.45154 0.67173 0.0
C433 C 0.89961 0.60389 0.67129 0.0
C434 C 0.8279 0.42419 0.659 0.0
C435 C 0.80376 0.39126 0.63969 0.0
C436 C 0.86229 0.38387 0.63293 0.0
C437 C 0.94527 0.40947 0.64597 0.0
C438 C 0.96955 0.44304 0.66519 0.0
H439 H 0.92131 0.6686 0.67341 0.0
H440 H 0.92273 0.60504 0.65768 0.0
H441 H 0.82949 0.57286 0.66659 0.0
H442 H 0.78127 0.42792 0.66405 0.0
H443 H 0.73902 0.37069 0.63017 0.0
loop_
_geom_bond_atom_site_label_1
_geom_bond_atom_site_label_2
_geom_bond_distance
_geom_bond_site_symmetry_2
_ccdc_geom_bond_type
Gd0 C3 2.818 . S
Gd0 O20 2.377 1_655 S
Gd0 O22 2.448 . S
Gd0 O23 2.506 . S
Gd0 O24 2.435 . S
Gd0 O25 2.717 1_655 S
Gd0 O27 2.395 . S
Gd0 O31 2.327 . S
Gd1 C12 2.818 . S
Gd1 O21 2.395 . S
Gd1 O25 2.327 . S
Gd1 O26 2.377 1_455 S
Gd1 O28 2.448 . S
Gd1 O29 2.506 . S
Gd1 O30 2.435 . S
Gd1 O31 2.717 1_455 S
C2 O20 1.240 . S
C2 O21 1.240 . S
C3 Gd0 2.818 . S
C3 C4 1.510 . S
C3 O22 1.249 . S
C3 O23 1.252 . S
C4 C3 1.510 . S
C4 C5 1.404 . S
C4 C6 1.352 . S
C5 C4 1.404 . S
C5 C9 1.389 . S
C5 H32 0.930 . S
C6 C4 1.352 . S
C6 C8 1.374 . S
C6 H33 0.931 . S
C7 C8 1.359 . S
C7 C9 1.364 . S
C8 C6 1.374 . S
C8 C7 1.359 . S
C8 H34 0.931 . S
C9 C5 1.389 . S
C9 C7 1.364 . S
C9 H35 0.931 . S
C10 O24 1.256 . S
C10 O25 1.257 1_655 S
C11 O26 1.240 . S
C11 O27 1.240 . S
C12 Gd1 2.818 . S
C12 C13 1.510 . S
C12 O28 1.249 . S
C12 O29 1.252 . S
C13 C12 1.510 . S
C13 C14 1.404 . S
C13 C15 1.352 . S
C14 C13 1.404 . S
C14 C18 1.389 . S
C14 H36 0.930 . S
C15 C13 1.352 . S
C15 C17 1.374 . S
C15 H37 0.931 . S
C16 C17 1.359 . S
C16 C18 1.364 . S
C17 C15 1.374 . S
C17 C16 1.359 . S
C17 H38 0.931 . S
C18 C14 1.389 . S
C18 C16 1.364 . S
C18 H39 0.931 . S
C19 O30 1.256 . S
C19 O31 1.257 1_455 S
O20 Gd0 2.377 1_455 S
O20 C2 1.240 . S
O21 Gd1 2.395 . S
O21 C2 1.240 . S
O22 Gd0 2.448 . S
O22 C3 1.249 . S
O23 Gd0 2.506 . S
O23 C3 1.252 . S
O24 Gd0 2.435 . S
O24 C10 1.256 . S
O25 Gd0 2.717 1_455 S
O25 Gd1 2.327 . S
O25 C10 1.257 1_455 S
O26 Gd1 2.377 1_655 S
O26 C11 1.240 . S
O27 Gd0 2.395 . S
O27 C11 1.240 . S
O28 Gd1 2.448 . S
O28 C12 1.249 . S
O29 Gd1 2.506 . S
O29 C12 1.252 . S
O30 Gd1 2.435 . S
O30 C19 1.256 . S
O31 Gd0 2.327 . S
O31 Gd1 2.717 1_655 S
O31 C19 1.257 1_655 S
H32 C5 0.930 . S
H33 C6 0.931 . S
H34 C8 0.931 . S
H35 C9 0.931 . S
H36 C14 0.930 . S
H37 C15 0.931 . S
H38 C17 0.931 . S
H39 C18 0.931 . S
Gd40 C43 2.818 . S
Gd40 O60 2.377 . S
Gd40 O62 2.448 . S
Gd40 O63 2.506 . S
Gd40 O64 2.435 . S
Gd40 O65 2.717 1_545 S
Gd40 O67 2.395 . S
Gd40 O71 2.327 . S
Gd41 C52 2.818 . S
Gd41 O61 2.395 . S
Gd41 O65 2.327 . S
Gd41 O66 2.377 1_565 S
Gd41 O68 2.448 . S
Gd41 O69 2.506 . S
Gd41 O70 2.435 . S
Gd41 O71 2.717 1_565 S
C42 O60 1.240 1_565 S
C42 O61 1.240 . S
C43 Gd40 2.818 . S
C43 C44 1.510 . S
C43 O62 1.249 . S
C43 O63 1.252 . S
C44 C43 1.510 . S
C44 C45 1.404 . S
C44 C46 1.352 . S
C45 C44 1.404 . S
C45 C49 1.389 . S
C45 H72 0.930 . S
C46 C44 1.352 . S
C46 C48 1.374 . S
C46 H73 0.931 . S
C47 C48 1.359 . S
C47 C49 1.364 . S
C48 C46 1.374 . S
C48 C47 1.359 . S
C48 H74 0.931 . S
C49 C45 1.389 . S
C49 C47 1.364 . S
C49 H75 0.931 . S
C50 O64 1.256 . S
C50 O65 1.257 1_545 S
C51 O66 1.240 . S
C51 O67 1.240 . S
C52 Gd41 2.818 . S
C52 C53 1.510 . S
C52 O68 1.249 . S
C52 O69 1.252 . S
C53 C52 1.510 . S
C53 C54 1.404 . S
C53 C55 1.352 . S
C54 C53 1.404 . S
C54 C58 1.389 . S
C54 H76 0.930 . S
C55 C53 1.352 . S
C55 C57 1.374 . S
C55 H77 0.931 . S
C56 C57 1.359 . S
C56 C58 1.364 . S
C57 C55 1.374 . S
C57 C56 1.359 . S
C57 H78 0.931 . S
C58 C54 1.389 . S
C58 C56 1.364 . S
C58 H79 0.931 . S
C59 O70 1.256 . S
C59 O71 1.257 1_565 S
O60 Gd40 2.377 . S
O60 C42 1.240 1_545 S
O61 Gd41 2.395 . S
O61 C42 1.240 . S
O62 Gd40 2.448 . S
O62 C43 1.249 . S
O63 Gd40 2.506 . S
O63 C43 1.252 . S
O64 Gd40 2.435 . S
O64 C50 1.256 . S
O65 Gd40 2.717 1_565 S
O65 Gd41 2.327 . S
O65 C50 1.257 1_565 S
O66 Gd41 2.377 1_545 S
O66 C51 1.240 . S
O67 Gd40 2.395 . S
O67 C51 1.240 . S
O68 Gd41 2.448 . S
O68 C52 1.249 . S
O69 Gd41 2.506 . S
O69 C52 1.252 . S
O70 Gd41 2.435 . S
O70 C59 1.256 . S
O71 Gd40 2.327 . S
O71 Gd41 2.717 1_545 S
O71 C59 1.257 1_545 S
H72 C45 0.930 . S
H73 C46 0.931 . S
H74 C48 0.931 . S
H75 C49 0.931 . S
H76 C54 0.930 . S
H77 C55 0.931 . S
H78 C57 0.931 . S
H79 C58 0.931 . S
Gd80 C83 2.818 . S
Gd80 O100 2.377 . S
Gd80 O102 2.448 . S
Gd80 O103 2.506 . S
Gd80 O104 2.435 1_565 S
Gd80 O105 2.717 . S
Gd80 O107 2.395 . S
Gd80 O111 2.327 . S
Gd81 C92 2.818 . S
Gd81 O101 2.395 . S
Gd81 O105 2.327 . S
Gd81 O106 2.377 . S
Gd81 O108 2.448 . S
Gd81 O109 2.506 . S
Gd81 O110 2.435 . S
Gd81 O111 2.717 . S
C82 O100 1.240 . S
C82 O101 1.240 . S
C83 Gd80 2.818 . S
C83 C84 1.510 . S
C83 O102 1.249 . S
C83 O103 1.252 . S
C84 C83 1.510 . S
C84 C85 1.404 1_565 S
C84 C86 1.352 . S
C85 C84 1.404 1_545 S
C85 C89 1.389 . S
C85 H112 0.930 . S
C86 C84 1.352 . S
C86 C88 1.374 . S
C86 H113 0.931 . S
C87 C88 1.359 . S
C87 C89 1.364 1_565 S
C88 C86 1.374 . S
C88 C87 1.359 . S
C88 H114 0.931 . S
C89 C85 1.389 . S
C89 C87 1.364 1_545 S
C89 H115 0.931 . S
C90 O104 1.256 1_565 S
C90 O105 1.257 . S
C91 O106 1.240 . S
C91 O107 1.240 . S
C92 Gd81 2.818 . S
C92 C93 1.510 . S
C92 O108 1.249 . S
C92 O109 1.252 . S
C93 C92 1.510 . S
C93 C94 1.404 . S
C93 C95 1.352 . S
C94 C93 1.404 . S
C94 C98 1.389 . S
C94 H116 0.930 . S
C95 C93 1.352 . S
C95 C97 1.374 . S
C95 H117 0.931 . S
C96 C97 1.359 . S
C96 C98 1.364 . S
C97 C95 1.374 . S
C97 C96 1.359 . S
C97 H118 0.931 1_655 S
C98 C94 1.389 . S
C98 C96 1.364 . S
C98 H119 0.931 . S
C99 O110 1.256 . S
C99 O111 1.257 . S
O100 Gd80 2.377 . S
O100 C82 1.240 . S
O101 Gd81 2.395 . S
O101 C82 1.240 . S
O102 Gd80 2.448 . S
O102 C83 1.249 . S
O103 Gd80 2.506 . S
O103 C83 1.252 . S
O104 Gd80 2.435 1_545 S
O104 C90 1.256 1_545 S
O105 Gd80 2.717 . S
O105 Gd81 2.327 . S
O105 C90 1.257 . S
O106 Gd81 2.377 . S
O106 C91 1.240 . S
O107 Gd80 2.395 . S
O107 C91 1.240 . S
O108 Gd81 2.448 . S
O108 C92 1.249 . S
O109 Gd81 2.506 . S
O109 C92 1.252 . S
O110 Gd81 2.435 . S
O110 C99 1.256 . S
O111 Gd80 2.327 . S
O111 Gd81 2.717 . S
O111 C99 1.257 . S
H112 C85 0.930 . S
H113 C86 0.931 . S
H114 C88 0.931 . S
H115 C89 0.931 . S
H116 C94 0.930 . S
H117 C95 0.931 . S
H118 C97 0.931 1_455 S
H119 C98 0.931 . S
H120 C128 0.929 . S
H121 C130 0.930 . S
H122 C132 0.930 1_545 S
H123 C135 0.929 . S
H124 C138 0.930 1_565 S
H125 C140 0.960 . S
H126 C140 0.960 . S
H127 C140 0.960 . S
C128 H120 0.929 . S
C128 C129 1.377 1_655 S
C128 C130 1.384 . S
C129 C128 1.377 1_455 S
C129 C135 1.390 . S
C130 H121 0.930 . S
C130 C128 1.384 . S
C130 C131 1.372 . S
C131 C130 1.372 . S
C131 C132 1.400 1_655 S
C131 C136 1.490 1_565 S
C132 H122 0.930 1_565 S
C132 C131 1.400 1_455 S
C132 C135 1.386 . S
H133 C149 0.930 . S
H134 C150 0.931 . S
C135 H123 0.929 . S
C135 C129 1.390 . S
C135 C132 1.386 . S
C136 C131 1.490 1_545 S
C136 C138 1.395 . S
C136 C139 1.403 1_655 S
H137 C143 0.930 . S
C138 H124 0.930 1_545 S
C138 C136 1.395 . S
C138 C141 1.403 . S
C139 C136 1.403 1_455 S
C139 C140 1.524 . S
C139 C143 1.400 . S
C140 H125 0.960 . S
C140 H126 0.960 . S
C140 H127 0.960 . S
C140 C139 1.524 . S
C141 C138 1.403 . S
C141 C142 1.392 . S
C141 C145 1.495 . S
C142 C141 1.392 . S
C142 C143 1.385 1_655 S
C142 C144 1.478 . S
C143 H137 0.930 . S
C143 C139 1.400 . S
C143 C142 1.385 1_455 S
C144 C142 1.478 . S
C144 C146 1.381 . S
C144 C150 1.383 1_655 S
C145 C141 1.495 . S
C145 H151 0.959 . S
C145 H152 0.961 . S
C145 H153 0.960 . S
C146 C144 1.381 . S
C146 C147 1.394 . S
C146 H154 0.930 . S
C147 C146 1.394 . S
C147 C148 1.383 . S
C147 H155 0.929 . S
C148 C147 1.383 . S
C148 C149 1.377 1_655 S
C149 H133 0.930 . S
C149 C148 1.377 1_455 S
C149 C150 1.379 . S
C150 H134 0.931 . S
C150 C144 1.383 1_455 S
C150 C149 1.379 . S
H151 C145 0.959 . S
H152 C145 0.961 . S
H153 C145 0.960 . S
H154 C146 0.930 . S
H155 C147 0.929 . S
H156 C164 0.929 . S
H157 C166 0.930 . S
H158 C168 0.930 . S
H159 C171 0.929 . S
H160 C174 0.930 . S
H161 C176 0.960 . S
H162 C176 0.960 1_565 S
H163 C176 0.960 . S
C164 H156 0.929 . S
C164 C165 1.377 1_565 S
C164 C166 1.384 . S
C165 C164 1.377 1_545 S
C165 C171 1.390 . S
C166 H157 0.930 . S
C166 C164 1.384 . S
C166 C167 1.366 1_565 S
C167 C166 1.366 1_545 S
C167 C168 1.402 . S
C167 C172 1.499 1_545 S
C168 H158 0.930 . S
C168 C167 1.402 . S
C168 C171 1.386 . S
H169 C185 0.930 . S
H170 C186 0.931 . S
C171 H159 0.929 . S
C171 C165 1.390 . S
C171 C168 1.386 . S
C172 C167 1.499 1_565 S
C172 C174 1.394 . S
C172 C175 1.398 1_565 S
H173 C179 0.930 . S
C174 H160 0.930 . S
C174 C172 1.394 . S
C174 C177 1.403 . S
C175 C172 1.398 1_545 S
C175 C176 1.524 . S
C175 C179 1.400 . S
C176 H161 0.960 . S
C176 H162 0.960 1_545 S
C176 H163 0.960 . S
C176 C175 1.524 . S
C177 C174 1.403 . S
C177 C178 1.392 . S
C177 C181 1.495 . S
C178 C177 1.392 . S
C178 C179 1.385 1_565 S
C178 C180 1.478 . S
C179 H173 0.930 . S
C179 C175 1.400 . S
C179 C178 1.385 1_545 S
C180 C178 1.478 . S
C180 C182 1.381 1_455 S
C180 C186 1.383 1_565 S
C181 C177 1.495 . S
C181 H187 0.959 . S
C181 H188 0.961 . S
C181 H189 0.960 . S
C182 C180 1.381 1_655 S
C182 C183 1.394 . S
C182 H190 0.930 . S
C183 C182 1.394 . S
C183 C184 1.383 1_565 S
C183 H191 0.929 . S
C184 C183 1.383 1_545 S
C184 C185 1.377 . S
C185 H169 0.930 . S
C185 C184 1.377 . S
C185 C186 1.379 1_655 S
C186 H170 0.931 . S
C186 C180 1.383 1_545 S
C186 C185 1.379 1_455 S
H187 C181 0.959 . S
H188 C181 0.961 . S
H189 C181 0.960 . S
H190 C182 0.930 . S
H191 C183 0.929 . S
H192 C200 0.929 1_655 S
H193 C202 0.930 . S
H194 C204 0.930 . S
H195 C207 0.929 1_655 S
H196 C210 0.930 . S
H197 C212 0.960 . S
H198 C212 0.960 . S
H199 C212 0.960 . S
C200 H192 0.929 1_455 S
C200 C201 1.377 1_455 S
C200 C202 1.384 . S
C201 C200 1.377 1_655 S
C201 C207 1.390 1_655 S
C202 H193 0.930 . S
C202 C200 1.384 . S
C202 C203 1.372 . S
C203 C202 1.372 . S
C203 C204 1.400 . S
C203 C208 1.490 . S
C204 H194 0.930 . S
C204 C203 1.400 . S
C204 C207 1.386 . S
H205 C221 0.930 . S
H206 C222 0.931 . S
C207 H195 0.929 1_455 S
C207 C201 1.390 1_455 S
C207 C204 1.386 . S
C208 C203 1.490 . S
C208 C210 1.395 . S
C208 C211 1.403 . S
H209 C215 0.930 . S
C210 H196 0.930 . S
C210 C208 1.395 . S
C210 C213 1.403 . S
C211 C208 1.403 . S
C211 C212 1.524 . S
C211 C215 1.400 . S
C212 H197 0.960 . S
C212 H198 0.960 . S
C212 H199 0.960 . S
C212 C211 1.524 . S
C213 C210 1.403 . S
C213 C214 1.392 . S
C213 C217 1.495 . S
C214 C213 1.392 . S
C214 C215 1.385 . S
C214 C216 1.478 . S
C215 H209 0.930 . S
C215 C211 1.400 . S
C215 C214 1.385 . S
C216 C214 1.478 . S
C216 C218 1.381 . S
C216 C222 1.383 . S
C217 C213 1.495 . S
C217 H223 0.959 . S
C217 H224 0.961 . S
C217 H225 0.960 . S
C218 C216 1.381 . S
C218 C219 1.394 . S
C218 H226 0.930 . S
C219 C218 1.394 . S
C219 C220 1.383 . S
C219 H227 0.929 . S
C220 C219 1.383 . S
C220 C221 1.377 . S
C221 H205 0.930 . S
C221 C220 1.377 . S
C221 C222 1.379 . S
C222 H206 0.931 . S
C222 C216 1.383 . S
C222 C221 1.379 . S
H223 C217 0.959 . S
H224 C217 0.961 . S
H225 C217 0.960 . S
H226 C218 0.930 . S
H227 C219 0.929 . S
H228 C236 0.929 . S
H229 C238 0.930 . S
H230 C240 0.930 . S
H231 C243 0.929 . S
H232 C246 0.930 . S
H233 C248 0.945 1_554 S
H234 C248 0.966 1_545 S
H235 C248 0.968 . S
C236 H228 0.929 . S
C236 C237 1.377 1_545 S
C236 C238 1.384 . S
C237 C236 1.377 1_565 S
C237 C243 1.390 . S
C238 H229 0.930 . S
C238 C236 1.384 . S
C238 C239 1.372 1_545 S
C239 C238 1.372 1_565 S
C239 C240 1.400 . S
C239 C244 1.490 . S
C240 H230 0.930 . S
C240 C239 1.400 . S
C240 C243 1.386 . S
H241 C257 0.930 . S
H242 C258 0.931 . S
C243 H231 0.929 . S
C243 C237 1.390 . S
C243 C240 1.386 . S
C244 C239 1.490 . S
C244 C246 1.395 . S
C244 C247 1.403 . S
H245 C251 0.930 . S
C246 H232 0.930 . S
C246 C244 1.395 . S
C246 C249 1.403 . S
C247 C244 1.403 . S
C247 C248 1.525 . S
C247 C251 1.400 1_556 S
C248 H233 0.945 1_556 S
C248 H234 0.966 1_565 S
C248 H235 0.968 . S
C248 C247 1.525 . S
C249 C246 1.403 . S
C249 C250 1.392 . S
C249 C253 1.495 . S
C250 C249 1.392 . S
C250 C251 1.385 1_556 S
C250 C252 1.478 1_556 S
C251 H245 0.930 . S
C251 C247 1.400 1_554 S
C251 C250 1.385 1_554 S
C252 C250 1.478 1_554 S
C252 C254 1.381 . S
C252 C258 1.383 . S
C253 C249 1.495 . S
C253 H259 0.959 . S
C253 H260 0.961 . S
C253 H261 0.960 . S
C254 C252 1.381 . S
C254 C255 1.394 . S
C254 H262 0.930 . S
C255 C254 1.394 . S
C255 C256 1.383 . S
C255 H263 0.929 . S
C256 C255 1.383 . S
C256 C257 1.377 . S
C257 H241 0.930 . S
C257 C256 1.377 . S
C257 C258 1.379 . S
C258 H242 0.931 . S
C258 C252 1.383 . S
C258 C257 1.379 . S
H259 C253 0.959 . S
H260 C253 0.961 . S
H261 C253 0.960 . S
H262 C254 0.930 . S
H263 C255 0.929 . S
H264 C272 0.929 . S
H265 C274 0.930 . S
H266 C276 0.930 . S
H267 C279 0.929 . S
H268 C282 0.930 . S
H269 C284 0.960 . S
H270 C284 0.960 . S
H271 C284 0.960 . S
C272 H264 0.929 . S
C272 C273 1.377 . S
C272 C274 1.384 . S
C273 C272 1.377 . S
C273 C279 1.390 . S
C274 H265 0.930 . S
C274 C272 1.384 . S
C274 C275 1.372 . S
C275 C274 1.372 . S
C275 C276 1.400 . S
C275 C280 1.490 . S
C276 H266 0.930 . S
C276 C275 1.400 . S
C276 C279 1.386 . S
H277 C293 0.930 . S
H278 C294 0.931 . S
C279 H267 0.929 . S
C279 C273 1.390 . S
C279 C276 1.386 . S
C280 C275 1.490 . S
C280 C282 1.395 . S
C280 C283 1.403 . S
H281 C287 0.930 . S
C282 H268 0.930 . S
C282 C280 1.395 . S
C282 C285 1.403 . S
C283 C280 1.403 . S
C283 C284 1.524 . S
C283 C287 1.400 . S
C284 H269 0.960 . S
C284 H270 0.960 . S
C284 H271 0.960 . S
C284 C283 1.524 . S
C285 C282 1.403 . S
C285 C286 1.392 . S
C285 C289 1.495 . S
C286 C285 1.392 . S
C286 C287 1.385 . S
C286 C288 1.478 . S
C287 H281 0.930 . S
C287 C283 1.400 . S
C287 C286 1.385 . S
C288 C286 1.478 . S
C288 C290 1.381 . S
C288 C294 1.383 . S
C289 C285 1.495 . S
C289 H295 0.959 . S
C289 H296 0.961 . S
C289 H297 0.960 . S
C290 C288 1.381 . S
C290 C291 1.394 . S
C290 H298 0.930 . S
C291 C290 1.394 . S
C291 C292 1.383 . S
C291 H299 0.929 . S
C292 C291 1.383 . S
C292 C293 1.377 . S
C293 H277 0.930 . S
C293 C292 1.377 . S
C293 C294 1.379 . S
C294 H278 0.931 . S
C294 C288 1.383 . S
C294 C293 1.379 . S
H295 C289 0.959 . S
H296 C289 0.961 . S
H297 C289 0.960 . S
H298 C290 0.930 . S
H299 C291 0.929 . S
H300 C308 0.929 . S
H301 C310 0.930 . S
H302 C312 0.930 . S
H303 C315 0.929 . S
H304 C318 0.930 . S
H305 C320 0.960 . S
H306 C320 0.960 . S
H307 C320 0.960 . S
C308 H300 0.929 . S
C308 C309 1.377 . S
C308 C310 1.384 . S
C309 C308 1.377 . S
C309 C315 1.390 . S
C310 H301 0.930 . S
C310 C308 1.384 . S
C310 C311 1.372 . S
C311 C310 1.372 . S
C311 C312 1.400 . S
C311 C316 1.490 . S
C312 H302 0.930 . S
C312 C311 1.400 . S
C312 C315 1.386 . S
H313 C329 0.930 . S
H314 C330 0.931 . S
C315 H303 0.929 . S
C315 C309 1.390 . S
C315 C312 1.386 . S
C316 C311 1.490 . S
C316 C318 1.395 . S
C316 C319 1.403 . S
H317 C323 0.930 . S
C318 H304 0.930 . S
C318 C316 1.395 . S
C318 C321 1.403 . S
C319 C316 1.403 . S
C319 C320 1.524 1_565 S
C319 C323 1.400 . S
C320 H305 0.960 . S
C320 H306 0.960 . S
C320 H307 0.960 . S
C320 C319 1.524 1_545 S
C321 C318 1.403 . S
C321 C322 1.392 . S
C321 C325 1.495 . S
C322 C321 1.392 . S
C322 C323 1.385 . S
C322 C324 1.478 . S
C323 H317 0.930 . S
C323 C319 1.400 . S
C323 C322 1.385 . S
C324 C322 1.478 . S
C324 C326 1.381 . S
C324 C330 1.383 . S
C325 C321 1.495 . S
C325 H331 0.959 . S
C325 H332 0.961 . S
C325 H333 0.960 . S
C326 C324 1.381 . S
C326 C327 1.394 . S
C326 H334 0.930 . S
C327 C326 1.394 . S
C327 C328 1.383 . S
C327 H335 0.929 . S
C328 C327 1.383 . S
C328 C329 1.377 . S
C329 H313 0.930 . S
C329 C328 1.377 . S
C329 C330 1.379 . S
C330 H314 0.931 . S
C330 C324 1.383 . S
C330 C329 1.379 . S
H331 C325 0.959 . S
H332 C325 0.961 . S
H333 C325 0.960 . S
H334 C326 0.930 . S
H335 C327 0.929 . S
H336 C344 0.929 . S
H337 C346 0.930 . S
H338 C348 0.930 . S
H339 C351 0.929 . S
H340 C354 0.930 . S
H341 C356 0.960 . S
H342 C356 0.960 . S
H343 C356 0.960 . S
C344 H336 0.929 . S
C344 C345 1.377 . S
C344 C346 1.384 . S
C345 C344 1.377 . S
C345 C351 1.390 . S
C346 H337 0.930 . S
C346 C344 1.384 . S
C346 C347 1.372 . S
C347 C346 1.372 . S
C347 C348 1.400 . S
C347 C352 1.490 . S
C348 H338 0.930 . S
C348 C347 1.400 . S
C348 C351 1.386 . S
H349 C365 0.930 . S
H350 C366 0.931 . S
C351 H339 0.929 . S
C351 C345 1.390 . S
C351 C348 1.386 . S
C352 C347 1.490 . S
C352 C354 1.395 . S
C352 C355 1.403 . S
H353 C359 0.930 . S
C354 H340 0.930 . S
C354 C352 1.395 . S
C354 C357 1.403 1_556 S
C355 C352 1.403 . S
C355 C356 1.524 . S
C355 C359 1.400 1_556 S
C356 H341 0.960 . S
C356 H342 0.960 . S
C356 H343 0.960 . S
C356 C355 1.524 . S
C357 C354 1.403 1_554 S
C357 C358 1.392 . S
C357 C361 1.495 1_655 S
C358 C357 1.392 . S
C358 C359 1.385 . S
C358 C360 1.478 . S
C359 H353 0.930 . S
C359 C355 1.400 1_554 S
C359 C358 1.385 . S
C360 C358 1.478 . S
C360 C362 1.381 . S
C360 C366 1.383 . S
C361 C357 1.495 1_455 S
C361 H367 0.959 . S
C361 H368 0.961 . S
C361 H369 0.960 . S
C362 C360 1.381 . S
C362 C363 1.394 . S
C362 H370 0.930 . S
C363 C362 1.394 . S
C363 C364 1.383 . S
C363 H371 0.929 . S
C364 C363 1.383 . S
C364 C365 1.377 . S
C365 H349 0.930 . S
C365 C364 1.377 . S
C365 C366 1.379 . S
C366 H350 0.931 . S
C366 C360 1.383 . S
C366 C365 1.379 . S
H367 C361 0.959 . S
H368 C361 0.961 . S
H369 C361 0.960 . S
H370 C362 0.930 . S
H371 C363 0.929 . S
H372 C380 0.929 . S
H373 C382 0.930 . S
H374 C384 0.930 . S
H375 C387 0.929 . S
H376 C390 0.930 . S
H377 C392 0.960 . S
H378 C392 0.960 . S
H379 C392 0.960 . S
C380 H372 0.929 . S
C380 C381 1.377 . S
C380 C382 1.384 . S
C381 C380 1.377 . S
C381 C387 1.390 . S
C382 H373 0.930 . S
C382 C380 1.384 . S
C382 C383 1.372 . S
C383 C382 1.372 . S
C383 C384 1.400 . S
C383 C388 1.490 . S
C384 H374 0.930 . S
C384 C383 1.400 . S
C384 C387 1.386 . S
H385 C401 0.930 . S
H386 C402 0.931 . S
C387 H375 0.929 . S
C387 C381 1.390 . S
C387 C384 1.386 . S
C388 C383 1.490 . S
C388 C390 1.395 . S
C388 C391 1.403 . S
H389 C395 0.930 . S
C390 H376 0.930 . S
C390 C388 1.395 . S
C390 C393 1.403 . S
C391 C388 1.403 . S
C391 C392 1.524 . S
C391 C395 1.400 . S
C392 H377 0.960 . S
C392 H378 0.960 . S
C392 H379 0.960 . S
C392 C391 1.524 . S
C393 C390 1.403 . S
C393 C394 1.392 . S
C393 C397 1.495 . S
C394 C393 1.392 . S
C394 C395 1.385 . S
C394 C396 1.478 . S
C395 H389 0.930 . S
C395 C391 1.400 . S
C395 C394 1.385 . S
C396 C394 1.478 . S
C396 C398 1.381 . S
C396 C402 1.383 . S
C397 C393 1.495 . S
C397 H403 0.959 . S
C397 H404 0.961 . S
C397 H405 0.960 . S
C398 C396 1.381 . S
C398 C399 1.394 . S
C398 H406 0.930 . S
C399 C398 1.394 . S
C399 C400 1.383 . S
C399 H407 0.929 . S
C400 C399 1.383 . S
C400 C401 1.377 . S
C401 H385 0.930 . S
C401 C400 1.377 . S
C401 C402 1.379 . S
C402 H386 0.931 . S
C402 C396 1.383 . S
C402 C401 1.379 . S
H403 C397 0.959 . S
H404 C397 0.961 . S
H405 C397 0.960 . S
H406 C398 0.930 . S
H407 C399 0.929 . S
H408 C416 0.929 . S
H409 C418 0.930 . S
H410 C420 0.930 . S
H411 C423 0.929 . S
H412 C426 0.930 . S
H413 C428 0.960 . S
H414 C428 0.960 1_655 S
H415 C428 0.960 . S
C416 H408 0.929 . S
C416 C417 1.377 . S
C416 C418 1.384 . S
C417 C416 1.377 . S
C417 C423 1.390 1_655 S
C418 H409 0.930 . S
C418 C416 1.384 . S
C418 C419 1.372 . S
C419 C418 1.372 . S
C419 C420 1.400 1_655 S
C419 C424 1.490 . S
C420 H410 0.930 . S
C420 C419 1.400 1_455 S
C420 C423 1.386 . S
H421 C437 0.924 1_455 S
H422 C438 0.931 1_455 S
C423 H411 0.929 . S
C423 C417 1.390 1_455 S
C423 C420 1.386 . S
C424 C419 1.490 . S
C424 C426 1.395 . S
C424 C427 1.403 . S
H425 C431 0.930 . S
C426 H412 0.930 . S
C426 C424 1.395 . S
C426 C429 1.403 . S
C427 C424 1.403 . S
C427 C428 1.524 1_655 S
C427 C431 1.400 . S
C428 H413 0.960 . S
C428 H414 0.960 1_455 S
C428 H415 0.960 . S
C428 C427 1.524 1_455 S
C429 C426 1.403 . S
C429 C430 1.392 . S
C429 C433 1.495 . S
C430 C429 1.392 . S
C430 C431 1.385 . S
C430 C432 1.478 . S
C431 H425 0.930 . S
C431 C427 1.400 . S
C431 C430 1.385 . S
C432 C430 1.478 . S
C432 C434 1.381 . S
C432 C438 1.383 . S
C433 C429 1.495 . S
C433 H439 0.959 . S
C433 H440 0.961 . S
C433 H441 0.960 . S
C434 C432 1.381 . S
C434 C435 1.394 . S
C434 H442 0.930 . S
C435 C434 1.394 . S
C435 C436 1.383 . S
C435 H443 0.929 . S
C436 C435 1.383 . S
C436 C437 1.377 . S
C437 H421 0.924 1_655 S
C437 C436 1.377 . S
C437 C438 1.379 . S
C438 H422 0.931 1_655 S
C438 C432 1.383 . S
C438 C437 1.379 . S
H439 C433 0.959 . S
H440 C433 0.961 . S
H441 C433 0.960 . S
H442 C434 0.930 . S
H443 C435 0.929 . S
C129 C10 1.307 1_455 S
C148 C19 1.336 1_655 S
C165 C59 1.399 1_545 S
C184 C50 1.399 . S
C201 C90 1.166 1_545 S
C220 C99 1.154 . S
C237 C87 0.919 . S
C256 C16 0.924 . S
C273 C51 1.882 . S
C292 C7 1.857 . S
C309 C91 2.299 . S
C328 C42 2.296 . S
C345 C82 2.192 . S
C364 C11 2.154 . S
C381 C2 1.439 . S
C400 C56 1.378 . S
C417 C96 0.901 . S
C436 C47 0.877 . S
