# Generated by pormake.
# Topology upb, (4)-cn, num edge types: 1
# Building blocks:
#     Node 0, Type 0, BuildingBlock: CEKHIL_clean_sbu_0, # of connection points: 4
#     Node 1, Type 0, BuildingBlock: CEKHIL_clean_sbu_0, # of connection points: 4
#     Node 2, Type 0, BuildingBlock: CEKHIL_clean_sbu_0, # of connection points: 4
#     Node 3, Type 0, BuildingBlock: CEKHIL_clean_sbu_0, # of connection points: 4
#     Node 4, Type 0, BuildingBlock: CEKHIL_clean_sbu_0, # of connection points: 4
#     Node 5, Type 0, BuildingBlock: CEKHIL_clean_sbu_0, # of connection points: 4
#     Node 6, Type 0, BuildingBlock: CEKHIL_clean_sbu_0, # of connection points: 4
#     Node 7, Type 0, BuildingBlock: CEKHIL_clean_sbu_0, # of connection points: 4
#     Node 8, Type 0, BuildingBlock: CEKHIL_clean_sbu_0, # of connection points: 4
#     Node 9, Type 0, BuildingBlock: CEKHIL_clean_sbu_0, # of connection points: 4
#     Node 10, Type 0, BuildingBlock: CEKHIL_clean_sbu_0, # of connection points: 4
#     Node 11, Type 0, BuildingBlock: CEKHIL_clean_sbu_0, # of connection points: 4
#     Node 12, Type 0, BuildingBlock: CEKHIL_clean_sbu_0, # of connection points: 4
#     Node 13, Type 0, BuildingBlock: CEKHIL_clean_sbu_0, # of connection points: 4
#     Node 14, Type 0, BuildingBlock: CEKHIL_clean_sbu_0, # of connection points: 4
#     Node 15, Type 0, BuildingBlock: CEKHIL_clean_sbu_0, # of connection points: 4
#     Edge 16, Type (0, 0), BuildingBlock: MIFKUJ_clean_linker_0, # of connection points: 2
#     Edge 17, Type (0, 0), BuildingBlock: MIFKUJ_clean_linker_0, # of connection points: 2
#     Edge 18, Type (0, 0), BuildingBlock: MIFKUJ_clean_linker_0, # of connection points: 2
#     Edge 19, Type (0, 0), BuildingBlock: MIFKUJ_clean_linker_0, # of connection points: 2
#     Edge 20, Type (0, 0), BuildingBlock: MIFKUJ_clean_linker_0, # of connection points: 2
#     Edge 21, Type (0, 0), BuildingBlock: MIFKUJ_clean_linker_0, # of connection points: 2
#     Edge 22, Type (0, 0), BuildingBlock: MIFKUJ_clean_linker_0, # of connection points: 2
#     Edge 23, Type (0, 0), BuildingBlock: MIFKUJ_clean_linker_0, # of connection points: 2
#     Edge 24, Type (0, 0), BuildingBlock: MIFKUJ_clean_linker_0, # of connection points: 2
#     Edge 25, Type (0, 0), BuildingBlock: MIFKUJ_clean_linker_0, # of connection points: 2
#     Edge 26, Type (0, 0), BuildingBlock: MIFKUJ_clean_linker_0, # of connection points: 2
#     Edge 27, Type (0, 0), BuildingBlock: MIFKUJ_clean_linker_0, # of connection points: 2
#     Edge 28, Type (0, 0), BuildingBlock: MIFKUJ_clean_linker_0, # of connection points: 2
#     Edge 29, Type (0, 0), BuildingBlock: MIFKUJ_clean_linker_0, # of connection points: 2
#     Edge 30, Type (0, 0), BuildingBlock: MIFKUJ_clean_linker_0, # of connection points: 2
#     Edge 31, Type (0, 0), BuildingBlock: MIFKUJ_clean_linker_0, # of connection points: 2
#     Edge 32, Type (0, 0), BuildingBlock: MIFKUJ_clean_linker_0, # of connection points: 2
#     Edge 33, Type (0, 0), BuildingBlock: MIFKUJ_clean_linker_0, # of connection points: 2
#     Edge 34, Type (0, 0), BuildingBlock: MIFKUJ_clean_linker_0, # of connection points: 2
#     Edge 35, Type (0, 0), BuildingBlock: MIFKUJ_clean_linker_0, # of connection points: 2
#     Edge 36, Type (0, 0), BuildingBlock: MIFKUJ_clean_linker_0, # of connection points: 2
#     Edge 37, Type (0, 0), BuildingBlock: MIFKUJ_clean_linker_0, # of connection points: 2
#     Edge 38, Type (0, 0), BuildingBlock: MIFKUJ_clean_linker_0, # of connection points: 2
#     Edge 39, Type (0, 0), BuildingBlock: MIFKUJ_clean_linker_0, # of connection points: 2
#     Edge 40, Type (0, 0), BuildingBlock: MIFKUJ_clean_linker_0, # of connection points: 2
#     Edge 41, Type (0, 0), BuildingBlock: MIFKUJ_clean_linker_0, # of connection points: 2
#     Edge 42, Type (0, 0), BuildingBlock: MIFKUJ_clean_linker_0, # of connection points: 2
#     Edge 43, Type (0, 0), BuildingBlock: MIFKUJ_clean_linker_0, # of connection points: 2
#     Edge 44, Type (0, 0), BuildingBlock: MIFKUJ_clean_linker_0, # of connection points: 2
#     Edge 45, Type (0, 0), BuildingBlock: MIFKUJ_clean_linker_0, # of connection points: 2
#     Edge 46, Type (0, 0), BuildingBlock: MIFKUJ_clean_linker_0, # of connection points: 2
#     Edge 47, Type (0, 0), BuildingBlock: MIFKUJ_clean_linker_0, # of connection points: 2
# Relax obj value: 0.218
# Max RMSD: 0.060
# Mean RMSD: 0.060
data_MOF--net-upb--node1-CEKHIL_clean_sbu_0--edge1-MIFKUJ_clean_linker_0
_symmetry_space_group_name_H-M    P1
_symmetry_Int_Tables_number       1
_symmetry_cell_setting            triclinic
loop_
_symmetry_equiv_pos_as_xyz
'x, y, z'
_cell_length_a     57.303616
_cell_length_b     57.303513
_cell_length_c     41.887243
_cell_angle_alpha  90.008067
_cell_angle_beta   89.994912
_cell_angle_gamma 90.012656
loop_
_atom_site_label
_atom_site_type_symbol
_atom_site_fract_x
_atom_site_fract_y
_atom_site_fract_z
_atom_type_partial_charge
Co0 Co 0.04083 0.22656 0.28532 0.0
O1 O 0.06966 0.24103 0.29722 0.0
O2 O 0.04952 0.24946 0.25349 0.0
C3 C 0.02435 0.23001 0.33393 0.0
O4 O 0.00991 0.21571 0.26601 0.0
Co5 Co 0.02574 0.18031 0.31816 0.0
O6 O 0.99644 0.18512 0.29441 0.0
C7 C 0.06182 0.17945 0.2679 0.0
C8 C 0.06757 0.25348 0.27156 0.0
C9 C 0.99427 0.20023 0.27234 0.0
O10 O 0.0588 0.20131 0.26229 0.0
O11 O 0.05134 0.16829 0.29012 0.0
O12 O 0.02381 0.24731 0.31393 0.0
O13 O 0.03618 0.212 0.32491 0.0
Co14 Co 0.77377 0.04743 0.2844 0.0
O15 O 0.75187 0.0714 0.29444 0.0
O16 O 0.75204 0.05102 0.24934 0.0
C17 C 0.77094 0.03019 0.33254 0.0
O18 O 0.79301 0.02034 0.26688 0.0
Co19 Co 0.81974 0.04344 0.32304 0.0
O20 O 0.82347 0.01379 0.29965 0.0
C21 C 0.81534 0.07945 0.27306 0.0
C22 C 0.74232 0.06694 0.26709 0.0
C23 C 0.81098 0.00845 0.27559 0.0
O24 O 0.79535 0.07131 0.26467 0.0
O25 O 0.82712 0.07161 0.29668 0.0
O26 O 0.75593 0.02547 0.31022 0.0
O27 O 0.78615 0.04605 0.3257 0.0
Co28 Co 0.9542 0.77094 0.28835 0.0
O29 O 0.92441 0.75634 0.29396 0.0
O30 O 0.94835 0.74984 0.25325 0.0
C31 C 0.96577 0.76498 0.33907 0.0
O32 O 0.98652 0.78235 0.27489 0.0
Co33 Co 0.96877 0.81462 0.32722 0.0
O34 O 0.00056 0.80548 0.31366 0.0
C35 C 0.93598 0.81921 0.27267 0.0
C36 C 0.92881 0.74517 0.26772 0.0
C37 C 0.00333 0.79357 0.28829 0.0
O38 O 0.93866 0.79759 0.26524 0.0
O39 O 0.94554 0.82877 0.29704 0.0
O40 O 0.96823 0.7486 0.31791 0.0
O41 O 0.95547 0.78372 0.32942 0.0
Co42 Co 0.23072 0.95751 0.29032 0.0
O43 O 0.24448 0.92785 0.29944 0.0
O44 O 0.24952 0.94763 0.25439 0.0
C45 C 0.24012 0.9734 0.33772 0.0
O46 O 0.21974 0.989 0.2731 0.0
Co47 Co 0.18993 0.97658 0.33187 0.0
O48 O 0.19898 0.00654 0.31184 0.0
C49 C 0.18188 0.93793 0.28597 0.0
C50 C 0.25437 0.92941 0.2717 0.0
C51 C 0.20976 0.00707 0.28525 0.0
O52 O 0.20208 0.9412 0.2732 0.0
O53 O 0.17485 0.94908 0.31069 0.0
O54 O 0.2554 0.97304 0.31482 0.0
O55 O 0.22065 0.96299 0.33191 0.0
Co56 Co 0.04547 0.76959 0.71414 0.0
O57 O 0.07378 0.7544 0.70172 0.0
O58 O 0.05513 0.7484 0.74745 0.0
C59 C 0.02703 0.76416 0.66729 0.0
O60 O 0.01534 0.78136 0.73443 0.0
Co61 Co 0.02925 0.8144 0.67854 0.0
O62 O -8e-05 0.80874 0.70204 0.0
C63 C 0.06831 0.8169 0.72441 0.0
C64 C 0.07254 0.74338 0.72871 0.0
C65 C 0.99876 0.79518 0.72605 0.0
O66 O 0.06436 0.7958 0.73348 0.0
O67 O 0.05727 0.82677 0.70152 0.0
O68 O 0.02734 0.74764 0.6885 0.0
O69 O 0.03932 0.7824 0.67397 0.0
Co70 Co 0.23476 0.04179 0.71757 0.0
O71 O 0.24944 0.0717 0.71696 0.0
O72 O 0.25462 0.04494 0.75471 0.0
C73 C 0.24265 0.03352 0.66622 0.0
O74 O 0.22284 0.00862 0.72524 0.0
Co75 Co 0.19227 0.0315 0.67372 0.0
O76 O 0.20021 0.99871 0.68358 0.0
C77 C 0.18619 0.05982 0.73224 0.0
C78 C 0.25964 0.06543 0.74318 0.0
C79 C 0.21155 0.99338 0.70868 0.0
O80 O 0.20736 0.05589 0.74083 0.0
O81 O 0.17736 0.05267 0.70592 0.0
O82 O 0.25819 0.02965 0.68814 0.0
O83 O 0.22371 0.04359 0.67568 0.0
Co84 Co 0.95492 0.22503 0.71536 0.0
O85 O 0.92604 0.24089 0.70857 0.0
O86 O 0.94918 0.24624 0.7505 0.0
C87 C 0.96833 0.23062 0.66542 0.0
O88 O 0.98635 0.21192 0.72951 0.0
Co89 Co 0.96625 0.18045 0.6757 0.0
O90 O 0.99821 0.18656 0.69175 0.0
C91 C 0.92958 0.17984 0.72532 0.0
C92 C 0.93019 0.25165 0.73516 0.0
C93 C 0.00204 0.19897 0.71647 0.0
O94 O 0.93743 0.19898 0.73725 0.0
O95 O 0.93721 0.17098 0.69925 0.0
O96 O 0.97083 0.2469 0.68673 0.0
O97 O 0.95653 0.21262 0.67433 0.0
Co98 Co 0.76952 0.95822 0.70672 0.0
O99 O 0.7548 0.92951 0.6951 0.0
O100 O 0.75047 0.94722 0.74181 0.0
C101 C 0.76097 0.97607 0.66046 0.0
O102 O 0.78125 0.98879 0.72623 0.0
Co103 Co 0.81145 0.97713 0.66738 0.0
O104 O 0.80272 0.00672 0.68855 0.0
C105 C 0.81807 0.93759 0.71197 0.0
C106 C 0.74499 0.93 0.72295 0.0
C107 C 0.7917 0.00692 0.71496 0.0
O108 O 0.79737 0.94043 0.72323 0.0
O109 O 0.82619 0.94945 0.68854 0.0
O110 O 0.74553 0.97533 0.68313 0.0
O111 O 0.78012 0.9649 0.66569 0.0
Co112 Co 0.54691 0.72738 0.80288 0.0
O113 O 0.57317 0.74473 0.81798 0.0
O114 O 0.55972 0.74588 0.7684 0.0
C115 C 0.52376 0.73606 0.84455 0.0
O116 O 0.51942 0.71239 0.77954 0.0
Co117 Co 0.52938 0.68523 0.84334 0.0
O118 O 0.50415 0.68441 0.81123 0.0
C119 C 0.57276 0.68114 0.80604 0.0
C120 C 0.57475 0.75327 0.78943 0.0
C121 C 0.50411 0.69656 0.78575 0.0
O122 O 0.56815 0.70047 0.79167 0.0
O123 O 0.56061 0.67335 0.82934 0.0
O124 O 0.52581 0.7507 0.82105 0.0
O125 O 0.53713 0.71799 0.84332 0.0
Co126 Co 0.27658 0.54808 0.79072 0.0
O127 O 0.26119 0.57736 0.79691 0.0
O128 O 0.25486 0.55331 0.75617 0.0
C129 C 0.2717 0.53568 0.84128 0.0
O130 O 0.28871 0.51611 0.77703 0.0
Co131 Co 0.32154 0.53584 0.82827 0.0
O132 O 0.31405 0.50374 0.81426 0.0
C133 C 0.3238 0.56877 0.77391 0.0
C134 C 0.24994 0.57271 0.77083 0.0
C135 C 0.3013 0.50004 0.78987 0.0
O136 O 0.30231 0.56471 0.76697 0.0
O137 O 0.3342 0.5599 0.7981 0.0
O138 O 0.25513 0.53302 0.82046 0.0
O139 O 0.28982 0.54704 0.83155 0.0
Co140 Co 0.44856 0.27101 0.77528 0.0
O141 O 0.41797 0.25796 0.77861 0.0
O142 O 0.44332 0.24965 0.7402 0.0
C143 C 0.4574 0.26478 0.82689 0.0
O144 O 0.48205 0.28051 0.76488 0.0
Co145 Co 0.46334 0.31408 0.81519 0.0
O146 O 0.49513 0.30277 0.80522 0.0
C147 C 0.43279 0.31981 0.75837 0.0
C148 C 0.42307 0.24596 0.75333 0.0
C149 C 0.49871 0.29045 0.7804 0.0
O150 O 0.43534 0.29821 0.75067 0.0
O151 O 0.4415 0.32882 0.78372 0.0
O152 O 0.46025 0.24826 0.80605 0.0
O153 O 0.44839 0.2839 0.8163 0.0
Co154 Co 0.72627 0.44752 0.78163 0.0
O155 O 0.74499 0.42129 0.79336 0.0
O156 O 0.74774 0.44036 0.74734 0.0
C157 C 0.73023 0.46692 0.82801 0.0
O158 O 0.7102 0.47586 0.76228 0.0
Co159 Co 0.68037 0.4564 0.81956 0.0
O160 O 0.67827 0.48419 0.79168 0.0
C161 C 0.68473 0.41575 0.77761 0.0
C162 C 0.75501 0.4236 0.76581 0.0
C163 C 0.69221 0.48846 0.76868 0.0
O164 O 0.70215 0.42545 0.76349 0.0
O165 O 0.67545 0.42397 0.80301 0.0
O166 O 0.74636 0.46841 0.80632 0.0
O167 O 0.71377 0.45217 0.82223 0.0
Co168 Co 0.54907 0.27299 0.19952 0.0
O169 O 0.57703 0.25782 0.18588 0.0
O170 O 0.55862 0.25038 0.23129 0.0
C171 C 0.53122 0.2692 0.15197 0.0
O172 O 0.51903 0.28462 0.22055 0.0
Co173 Co 0.53259 0.31871 0.16738 0.0
O174 O 0.50219 0.30914 0.1856 0.0
C175 C 0.571 0.31996 0.21462 0.0
C176 C 0.5757 0.24562 0.21184 0.0
C177 C 0.50134 0.29628 0.21034 0.0
O178 O 0.56818 0.29814 0.22066 0.0
O179 O 0.5593 0.33101 0.19339 0.0
O180 O 0.53076 0.25221 0.17249 0.0
O181 O 0.54341 0.28722 0.16007 0.0
Co182 Co 0.7254 0.55031 0.20426 0.0
O183 O 0.74202 0.57863 0.19625 0.0
O184 O 0.74808 0.55536 0.23784 0.0
C185 C 0.72865 0.53655 0.15406 0.0
O186 O 0.71181 0.51933 0.21963 0.0
Co187 Co 0.67898 0.54062 0.16768 0.0
O188 O 0.68088 0.50997 0.18889 0.0
C189 C 0.67972 0.57404 0.22148 0.0
C190 C 0.75355 0.57419 0.22215 0.0
C191 C 0.69522 0.50544 0.21127 0.0
O192 O 0.70095 0.56866 0.22825 0.0
O193 O 0.66865 0.56593 0.19736 0.0
O194 O 0.74551 0.53354 0.17437 0.0
O195 O 0.71143 0.54911 0.16395 0.0
Co196 Co 0.44802 0.72808 0.21858 0.0
O197 O 0.42015 0.74625 0.21529 0.0
O198 O 0.44541 0.74817 0.25551 0.0
C199 C 0.4597 0.7346 0.168 0.0
O200 O 0.47896 0.71247 0.22939 0.0
Co201 Co 0.45424 0.68425 0.17571 0.0
O202 O 0.48535 0.68228 0.19605 0.0
C203 C 0.41928 0.68496 0.22716 0.0
C204 C 0.42626 0.75553 0.24222 0.0
C205 C 0.49159 0.69556 0.21893 0.0
O206 O 0.42956 0.70251 0.24015 0.0
O207 O 0.42482 0.67697 0.19965 0.0
O208 O 0.46438 0.74971 0.19023 0.0
O209 O 0.44697 0.71716 0.17664 0.0
Co210 Co 0.27279 0.45048 0.21734 0.0
O211 O 0.25684 0.42219 0.20669 0.0
O212 O 0.25159 0.44213 0.25148 0.0
C213 C 0.26733 0.46746 0.16948 0.0
O214 O 0.28568 0.48088 0.23562 0.0
Co215 Co 0.31756 0.46461 0.17968 0.0
O216 O 0.31155 0.49524 0.20015 0.0
C217 C 0.31822 0.42491 0.22454 0.0
C218 C 0.24594 0.4244 0.23364 0.0
C219 C 0.29885 0.49734 0.22496 0.0
O220 O 0.29888 0.4317 0.23704 0.0
O221 O 0.32719 0.43422 0.1996 0.0
O222 O 0.2509 0.46822 0.19081 0.0
O223 O 0.28535 0.45512 0.1768 0.0
H224 H 0.10779 0.18939 0.25992 0.0
H225 H 0.13783 0.16216 0.24162 0.0
H226 H 0.08427 0.11285 0.21478 0.0
H227 H 0.05447 0.13949 0.23514 0.0
H228 H 0.11105 0.09288 0.25238 0.0
H229 H 0.12579 0.1376 0.15958 0.0
H230 H 0.13319 0.17267 0.12707 0.0
H231 H 0.19744 0.18451 0.17725 0.0
H232 H 0.19028 0.1497 0.21042 0.0
H233 H 0.20088 0.01074 0.22142 0.0
H234 H 0.18224 0.04446 0.1959 0.0
H235 H 0.19334 0.08507 0.28114 0.0
H236 H 0.21155 0.05152 0.30683 0.0
H237 H 0.18757 0.10594 0.19978 0.0
H238 H 0.14036 0.07567 0.3068 0.0
H239 H 0.13463 0.03993 0.33887 0.0
H240 H 0.13344 0.99869 0.25326 0.0
H241 H 0.13897 0.03424 0.22079 0.0
C242 C 0.10252 0.17304 0.24912 0.0
C243 C 0.07898 0.16634 0.24903 0.0
C244 C 0.11967 0.1575 0.23846 0.0
C245 C 0.11341 0.13532 0.22677 0.0
C246 C 0.08961 0.12972 0.22389 0.0
C247 C 0.07258 0.14494 0.2354 0.0
C248 C 0.1313 0.11665 0.22335 0.0
C249 C 0.1274 0.09568 0.23989 0.0
C250 C 0.15295 0.12008 0.20753 0.0
C251 C 0.15742 0.14105 0.18763 0.0
C252 C 0.14142 0.14776 0.16386 0.0
C253 C 0.14559 0.16759 0.14527 0.0
C254 C 0.16576 0.18082 0.15012 0.0
C255 C 0.18182 0.17423 0.17352 0.0
C256 C 0.17774 0.15442 0.19219 0.0
C257 C 0.20049 0.02725 0.23402 0.0
C258 C 0.20723 0.02852 0.26623 0.0
C259 C 0.18995 0.04653 0.21935 0.0
C260 C 0.18635 0.06714 0.23676 0.0
C261 C 0.19613 0.06935 0.26728 0.0
C262 C 0.20634 0.0501 0.28204 0.0
C263 C 0.16683 0.08279 0.22849 0.0
C264 C 0.17065 0.10314 0.21069 0.0
C265 C 0.14475 0.07872 0.24231 0.0
C266 C 0.14009 0.05752 0.26148 0.0
C267 C 0.13865 0.05898 0.29489 0.0
C268 C 0.13552 0.03877 0.31311 0.0
C269 C 0.1337 0.01705 0.29811 0.0
C270 C 0.13486 0.01551 0.26485 0.0
C271 C 0.13798 0.03568 0.24654 0.0
H272 H 0.13138 0.00142 0.31226 0.0
H273 H 0.16895 0.19617 0.13571 0.0
H274 H 0.96305 0.2346 0.25569 0.0
H275 H 0.92396 0.22819 0.23253 0.0
H276 H 0.93968 0.15489 0.22211 0.0
H277 H 0.9781 0.16124 0.24497 0.0
H278 H 0.9115 0.16973 0.17397 0.0
H279 H 0.91624 0.17716 0.29338 0.0
H280 H 0.92384 0.20098 0.34141 0.0
H281 H 0.87528 0.25268 0.30833 0.0
H282 H 0.86759 0.22919 0.25997 0.0
H283 H 0.85945 0.081 0.25148 0.0
H284 H 0.87968 0.11413 0.22786 0.0
H285 H 0.81604 0.15436 0.23034 0.0
H286 H 0.79536 0.12053 0.25343 0.0
H287 H 0.85491 0.17442 0.26332 0.0
H288 H 0.8384 0.14929 0.15935 0.0
H289 H 0.83206 0.12129 0.11554 0.0
H290 H 0.90373 0.09985 0.12096 0.0
H291 H 0.91047 0.12741 0.16512 0.0
C292 C 0.95827 0.21734 0.24739 0.0
C293 C 0.9733 0.19832 0.25231 0.0
C294 C 0.93601 0.21368 0.23425 0.0
C295 C 0.92883 0.19102 0.2258 0.0
C296 C 0.94479 0.17254 0.22823 0.0
C297 C 0.9667 0.17613 0.24155 0.0
C298 C 0.90403 0.185 0.21976 0.0
C299 C 0.89878 0.17115 0.19305 0.0
C300 C 0.88705 0.18764 0.24404 0.0
C301 C 0.89154 0.20162 0.27306 0.0
C302 C 0.90727 0.19365 0.29638 0.0
C303 C 0.91159 0.20708 0.32361 0.0
C304 C 0.9001 0.22836 0.32788 0.0
C305 C 0.88421 0.23623 0.30495 0.0
C306 C 0.87987 0.22288 0.27763 0.0
C307 C 0.84963 0.0967 0.24621 0.0
C308 C 0.82597 0.09835 0.25431 0.0
C309 C 0.86112 0.11556 0.23249 0.0
C310 C 0.84931 0.13664 0.22703 0.0
C311 C 0.82537 0.13814 0.23402 0.0
C312 C 0.81363 0.1189 0.24715 0.0
C313 C 0.8634 0.15746 0.21892 0.0
C314 C 0.86666 0.17415 0.243 0.0
C315 C 0.87869 0.15711 0.19243 0.0
C316 C 0.87496 0.14061 0.16551 0.0
C317 C 0.85282 0.13858 0.15127 0.0
C318 C 0.84914 0.12276 0.12636 0.0
C319 C 0.86749 0.10884 0.11543 0.0
C320 C 0.88955 0.11072 0.12937 0.0
C321 C 0.89333 0.12651 0.15429 0.0
H322 H 0.8646 0.09658 0.09617 0.0
H323 H 0.90346 0.23874 0.34898 0.0
H324 H 0.78309 0.97603 0.24588 0.0
H325 H 0.79591 0.93868 0.22252 0.0
H326 H 0.86762 0.95752 0.24059 0.0
H327 H 0.85502 0.99426 0.26399 0.0
H328 H 0.86201 0.93399 0.18274 0.0
H329 H 0.83769 0.92798 0.29622 0.0
H330 H 0.80793 0.93039 0.33872 0.0
H331 H 0.76461 0.88192 0.28766 0.0
H332 H 0.79406 0.87945 0.24471 0.0
H333 H 0.9409 0.8652 0.25979 0.0
H334 H 0.91199 0.89124 0.23655 0.0
H335 H 0.86603 0.83284 0.21985 0.0
H336 H 0.89536 0.8064 0.24296 0.0
H337 H 0.84598 0.86791 0.25602 0.0
H338 H 0.88229 0.86319 0.15579 0.0
H339 H 0.91459 0.86101 0.11705 0.0
H340 H 0.93714 0.92967 0.14411 0.0
H341 H 0.90523 0.93217 0.18336 0.0
C342 C 0.80158 0.97231 0.24411 0.0
C343 C 0.81809 0.9878 0.25704 0.0
C344 C 0.80886 0.95105 0.23081 0.0
C345 C 0.83271 0.94536 0.2299 0.0
C346 C 0.84915 0.96161 0.24086 0.0
C347 C 0.84193 0.98251 0.2545 0.0
C348 C 0.84102 0.92164 0.22182 0.0
C349 C 0.85829 0.91931 0.19828 0.0
C350 C 0.83551 0.90229 0.24139 0.0
C351 C 0.81787 0.90378 0.26714 0.0
C352 C 0.82173 0.91798 0.29399 0.0
C353 C 0.80495 0.91933 0.31816 0.0
C354 C 0.78435 0.90638 0.31584 0.0
C355 C 0.78053 0.892 0.28938 0.0
C356 C 0.79726 0.89062 0.26512 0.0
C357 C 0.9249 0.8578 0.25042 0.0
C358 C 0.92028 0.83386 0.25331 0.0
C359 C 0.90844 0.87267 0.23689 0.0
C360 C 0.88692 0.86396 0.2262 0.0
C361 C 0.88263 0.83985 0.22768 0.0
C362 C 0.89937 0.82481 0.24079 0.0
C363 C 0.86816 0.8808 0.21838 0.0
C364 C 0.84891 0.88191 0.23904 0.0
C365 C 0.87203 0.89908 0.19632 0.0
C366 C 0.89125 0.89787 0.17253 0.0
C367 C 0.89418 0.8778 0.15359 0.0
C368 C 0.91244 0.87651 0.13153 0.0
C369 C 0.92789 0.8952 0.1281 0.0
C370 C 0.92511 0.91523 0.14672 0.0
C371 C 0.90689 0.91662 0.16884 0.0
H372 H 0.94202 0.89416 0.11102 0.0
H373 H 0.77139 0.90743 0.33458 0.0
H374 H 0.00978 0.80249 0.2251 0.0
H375 H 0.04487 0.81989 0.20139 0.0
H376 H 0.08183 0.80963 0.28999 0.0
H377 H 0.04675 0.79294 0.31389 0.0
H378 H 0.05949 0.86069 0.2297 0.0
H379 H 0.13988 0.80596 0.27491 0.0
H380 H 0.15235 0.76481 0.27488 0.0
H381 H 0.10638 0.7504 0.1964 0.0
H382 H 0.09389 0.79153 0.19555 0.0
H383 H 0.14026 0.92379 0.31041 0.0
H384 H 0.11414 0.89412 0.2902 0.0
H385 H 0.16042 0.88129 0.21093 0.0
H386 H 0.18743 0.91112 0.23157 0.0
H387 H 0.14336 0.84024 0.23892 0.0
H388 H 0.11109 0.90959 0.19536 0.0
H389 H 0.09914 0.95092 0.19659 0.0
H390 H 0.04854 0.93556 0.26921 0.0
H391 H 0.06041 0.89423 0.2688 0.0
C392 C 0.02573 0.80303 0.23899 0.0
C393 C 0.02564 0.79655 0.27134 0.0
C394 C 0.04571 0.81301 0.22545 0.0
C395 C 0.06596 0.81603 0.2439 0.0
C396 C 0.06652 0.80722 0.27516 0.0
C397 C 0.04645 0.79777 0.28888 0.0
C398 C 0.08435 0.83268 0.23397 0.0
C399 C 0.07786 0.85617 0.23086 0.0
C400 C 0.10829 0.8267 0.23481 0.0
C401 C 0.11589 0.80191 0.23523 0.0
C402 C 0.13254 0.79409 0.25747 0.0
C403 C 0.13959 0.77073 0.25765 0.0
C404 C 0.13015 0.755 0.23568 0.0
C405 C 0.11364 0.76259 0.21346 0.0
C406 C 0.10654 0.78592 0.21317 0.0
C407 C 0.14502 0.91489 0.28854 0.0
C408 C 0.16593 0.92009 0.27246 0.0
C409 C 0.12994 0.89789 0.27696 0.0
C410 C 0.13509 0.88583 0.24872 0.0
C411 C 0.15606 0.89059 0.23265 0.0
C412 C 0.17139 0.90766 0.2444 0.0
C413 C 0.11826 0.86815 0.23705 0.0
C414 C 0.12505 0.84462 0.2363 0.0
C415 C 0.09451 0.87403 0.23248 0.0
C416 C 0.0866 0.89874 0.23192 0.0
C417 C 0.0974 0.91502 0.21158 0.0
C418 C 0.09066 0.93846 0.21217 0.0
C419 C 0.07307 0.94585 0.23293 0.0
C420 C 0.06211 0.9298 0.25306 0.0
C421 C 0.06879 0.90634 0.25259 0.0
H422 H 0.06793 0.96402 0.23343 0.0
H423 H 0.13563 0.73692 0.23587 0.0
H424 H 0.1074 0.80034 0.75492 0.0
H425 H 0.14124 0.82333 0.77262 0.0
H426 H 0.1056 0.88661 0.74541 0.0
H427 H 0.07208 0.86401 0.72806 0.0
H428 H 0.16784 0.84931 0.73448 0.0
H429 H 0.12013 0.93135 0.78781 0.0
H430 H 0.08781 0.93924 0.82506 0.0
H431 H 0.09657 0.8715 0.86713 0.0
H432 H 0.1292 0.86329 0.83049 0.0
H433 H 0.19896 0.95511 0.67456 0.0
H434 H 0.18605 0.91784 0.69527 0.0
H435 H 0.2053 0.93904 0.7906 0.0
H436 H 0.21776 0.9771 0.76987 0.0
H437 H 0.16275 0.92519 0.79101 0.0
H438 H 0.23094 0.88944 0.75493 0.0
H439 H 0.26419 0.88082 0.71952 0.0
H440 H 0.21734 0.85415 0.64834 0.0
H441 H 0.18377 0.86292 0.68304 0.0
C442 C 0.10662 0.8192 0.75354 0.0
C443 C 0.08717 0.83039 0.73989 0.0
C444 C 0.12596 0.83228 0.76356 0.0
C445 C 0.12588 0.85671 0.76064 0.0
C446 C 0.10595 0.86785 0.74853 0.0
C447 C 0.08683 0.85486 0.73829 0.0
C448 C 0.14729 0.87075 0.76595 0.0
C449 C 0.16702 0.86572 0.74733 0.0
C450 C 0.14665 0.89166 0.78388 0.0
C451 C 0.1272 0.89671 0.80634 0.0
C452 C 0.11535 0.9182 0.8052 0.0
C453 C 0.09691 0.92271 0.82616 0.0
C454 C 0.09014 0.90588 0.84844 0.0
C455 C 0.10181 0.88451 0.84983 0.0
C456 C 0.12027 0.87991 0.82893 0.0
C457 C 0.20098 0.95173 0.69986 0.0
C458 C 0.20904 0.96922 0.72064 0.0
C459 C 0.19383 0.93019 0.71169 0.0
C460 C 0.19483 0.92543 0.74455 0.0
C461 C 0.20443 0.94226 0.76515 0.0
C462 C 0.21162 0.96397 0.75326 0.0
C463 C 0.18226 0.90468 0.75712 0.0
C464 C 0.16417 0.90843 0.77916 0.0
C465 C 0.18465 0.88243 0.74277 0.0
C466 C 0.20479 0.8768 0.72174 0.0
C467 C 0.2277 0.88181 0.73169 0.0
C468 C 0.24662 0.8769 0.71172 0.0
C469 C 0.24288 0.86692 0.68172 0.0
C470 C 0.22022 0.86182 0.67163 0.0
C471 C 0.20123 0.86669 0.6915 0.0
H472 H 0.25756 0.86316 0.66628 0.0
H473 H 0.07584 0.9094 0.86463 0.0
H474 H 0.19328 0.10544 0.74536 0.0
H475 H 0.16343 0.13314 0.76263 0.0
H476 H 0.11612 0.07593 0.78076 0.0
H477 H 0.14554 0.04848 0.76124 0.0
H478 H 0.09731 0.10233 0.74168 0.0
H479 H 0.13433 0.11769 0.84056 0.0
H480 H 0.16654 0.12658 0.87761 0.0
H481 H 0.1773 0.19258 0.8314 0.0
H482 H 0.14538 0.18397 0.79375 0.0
H483 H 0.01084 0.19254 0.77993 0.0
H484 H 0.04613 0.1742 0.80186 0.0
H485 H 0.07941 0.17968 0.70986 0.0
H486 H 0.0442 0.19732 0.68778 0.0
H487 H 0.10129 0.1781 0.79885 0.0
H488 H 0.08246 0.12466 0.68727 0.0
H489 H 0.04949 0.11656 0.65098 0.0
H490 H 0.00134 0.12423 0.72885 0.0
H491 H 0.03407 0.13194 0.76565 0.0
C492 C 0.17679 0.09883 0.75421 0.0
C493 C 0.17151 0.07499 0.75199 0.0
C494 C 0.15973 0.11465 0.76428 0.0
C495 C 0.13738 0.10671 0.773 0.0
C496 C 0.13313 0.08254 0.77395 0.0
C497 C 0.14992 0.06683 0.76297 0.0
C498 C 0.11746 0.12333 0.77452 0.0
C499 C 0.09815 0.11857 0.75493 0.0
C500 C 0.11831 0.14475 0.79152 0.0
C501 C 0.13749 0.15011 0.8142 0.0
C502 C 0.14365 0.13404 0.83814 0.0
C503 C 0.16186 0.13904 0.85928 0.0
C504 C 0.17398 0.16012 0.85684 0.0
C505 C 0.16789 0.17626 0.83328 0.0
C506 C 0.1497 0.17135 0.81207 0.0
C507 C 0.02611 0.19081 0.76487 0.0
C508 C 0.02481 0.19591 0.7321 0.0
C509 C 0.04627 0.18045 0.77745 0.0
C510 C 0.06519 0.17539 0.75733 0.0
C511 C 0.06494 0.18344 0.7257 0.0
C512 C 0.04479 0.19337 0.71307 0.0
C513 C 0.08195 0.15684 0.76587 0.0
C514 C 0.1005 0.16138 0.78676 0.0
C515 C 0.08035 0.13488 0.75072 0.0
C516 C 0.06067 0.12902 0.72911 0.0
C517 C 0.06485 0.1244 0.69667 0.0
C518 C 0.04621 0.11992 0.67601 0.0
C519 C 0.02333 0.11994 0.68759 0.0
C520 C 0.01906 0.12427 0.71989 0.0
C521 C 0.03764 0.12869 0.74065 0.0
H522 H 0.00892 0.11656 0.67154 0.0
H523 H 0.18807 0.16395 0.87322 0.0
H524 H 0.89228 0.161 0.69618 0.0
H525 H 0.86079 0.13841 0.72005 0.0
H526 H 0.89108 0.14816 0.81338 0.0
H527 H 0.92264 0.17175 0.78938 0.0
H528 H 0.88206 0.09933 0.79108 0.0
H529 H 0.84161 0.16929 0.81035 0.0
H530 H 0.82784 0.20921 0.79922 0.0
H531 H 0.78877 0.18418 0.71875 0.0
H532 H 0.8026 0.14417 0.729 0.0
H533 H 0.79721 0.01123 0.77981 0.0
H534 H 0.81117 0.04632 0.80774 0.0
H535 H 0.80499 0.08566 0.72027 0.0
H536 H 0.79099 0.05106 0.69276 0.0
H537 H 0.79801 0.11377 0.77075 0.0
H538 H 0.85504 0.05302 0.73746 0.0
H539 H 0.87128 0.0132 0.74105 0.0
H540 H 0.88051 0.02151 0.84218 0.0
H541 H 0.86407 0.06132 0.83914 0.0
C542 C 0.89208 0.15863 0.72185 0.0
C543 C 0.90991 0.1679 0.74097 0.0
C544 C 0.87399 0.1459 0.73549 0.0
C545 C 0.87352 0.14182 0.76848 0.0
C546 C 0.89107 0.15138 0.78791 0.0
C547 C 0.90901 0.16475 0.77423 0.0
C548 C 0.85595 0.12527 0.78097 0.0
C549 C 0.86353 0.10263 0.78813 0.0
C550 C 0.83187 0.12964 0.77675 0.0
C551 C 0.82312 0.15364 0.77057 0.0
C552 C 0.83015 0.17229 0.7902 0.0
C553 C 0.82233 0.19495 0.78404 0.0
C554 C 0.80741 0.19922 0.75832 0.0
C555 C 0.80027 0.18083 0.73872 0.0
C556 C 0.80805 0.15813 0.74476 0.0
C557 C 0.79796 0.02764 0.76702 0.0
C558 C 0.79344 0.02845 0.73406 0.0
C559 C 0.80601 0.04763 0.78293 0.0
C560 C 0.80953 0.06853 0.76596 0.0
C561 C 0.80247 0.0698 0.73393 0.0
C562 C 0.79462 0.04995 0.71811 0.0
C563 C 0.82438 0.08765 0.77857 0.0
C564 C 0.8163 0.11071 0.77593 0.0
C565 C 0.84812 0.08369 0.78634 0.0
C566 C 0.8581 0.05992 0.78815 0.0
C567 C 0.86046 0.04627 0.76046 0.0
C568 C 0.86968 0.02373 0.76239 0.0
C569 C 0.87685 0.0148 0.79185 0.0
C570 C 0.87488 0.02843 0.81941 0.0
C571 C 0.8656 0.05096 0.8176 0.0
H572 H 0.884 0.99735 0.79331 0.0
H573 H 0.8014 0.21679 0.75357 0.0
H574 H 0.80534 0.9005 0.75005 0.0
H575 H 0.82995 0.86723 0.76558 0.0
H576 H 0.88895 0.89948 0.71929 0.0
H577 H 0.86483 0.93242 0.70378 0.0
H578 H 0.88054 0.85453 0.69858 0.0
H579 H 0.88571 0.8986 0.79824 0.0
H580 H 0.86894 0.91667 0.84651 0.0
H581 H 0.84145 0.85031 0.87576 0.0
H582 H 0.85784 0.8319 0.82741 0.0
H583 H 0.98956 0.8274 0.77088 0.0
H584 H 0.95047 0.84097 0.78455 0.0
H585 H 0.92075 0.78152 0.73612 0.0
H586 H 0.96005 0.76819 0.72191 0.0
H587 H 0.90579 0.83095 0.80722 0.0
H588 H 0.88566 0.80291 0.68094 0.0
H589 H 0.9055 0.78827 0.63253 0.0
H590 H 0.96652 0.82819 0.65615 0.0
H591 H 0.94695 0.84317 0.70452 0.0
C592 C 0.82366 0.90063 0.74366 0.0
C593 C 0.83307 0.91897 0.72532 0.0
C594 C 0.83764 0.88162 0.7525 0.0
C595 C 0.86115 0.88083 0.7432 0.0
C596 C 0.87075 0.89964 0.72632 0.0
C597 C 0.85691 0.91849 0.71749 0.0
C598 C 0.87591 0.86011 0.74905 0.0
C599 C 0.88564 0.84901 0.72237 0.0
C600 C 0.88249 0.85288 0.78004 0.0
C601 C 0.87272 0.86395 0.80905 0.0
C602 C 0.8759 0.88791 0.81482 0.0
C603 C 0.86651 0.8982 0.84222 0.0
C604 C 0.85406 0.88467 0.86413 0.0
C605 C 0.85105 0.86079 0.85873 0.0
C606 C 0.86039 0.85042 0.83135 0.0
C607 C 0.97471 0.81656 0.76481 0.0
C608 C 0.97759 0.79686 0.7454 0.0
C609 C 0.95235 0.82427 0.77267 0.0
C610 C 0.93271 0.8125 0.76077 0.0
C611 C 0.93571 0.79091 0.74535 0.0
C612 C 0.95813 0.78325 0.73732 0.0
C613 C 0.91083 0.82592 0.7567 0.0
C614 C 0.89982 0.83569 0.78352 0.0
C615 C 0.90325 0.83237 0.72575 0.0
C616 C 0.91496 0.8239 0.69642 0.0
C617 C 0.90328 0.80858 0.6757 0.0
C618 C 0.91449 0.80022 0.64832 0.0
C619 C 0.9373 0.80721 0.64135 0.0
C620 C 0.9489 0.82272 0.66164 0.0
C621 C 0.93777 0.83114 0.68902 0.0
H622 H 0.94597 0.80066 0.6202 0.0
H623 H 0.84681 0.89266 0.88534 0.0
H624 H 0.60566 0.69158 0.76004 0.0
H625 H 0.6373 0.66631 0.74087 0.0
H626 H 0.61563 0.61272 0.8069 0.0
H627 H 0.58471 0.63767 0.82647 0.0
H628 H 0.66126 0.61531 0.80652 0.0
H629 H 0.59853 0.61388 0.72594 0.0
H630 H 0.57343 0.63238 0.68529 0.0
H631 H 0.63414 0.65501 0.63374 0.0
H632 H 0.65957 0.63681 0.67431 0.0
H633 H 0.65057 0.50512 0.74887 0.0
H634 H 0.64198 0.5456 0.73564 0.0
H635 H 0.71552 0.56153 0.73605 0.0
H636 H 0.72427 0.5207 0.74917 0.0
H637 H 0.65759 0.58675 0.69475 0.0
H638 H 0.71949 0.59036 0.7896 0.0
H639 H 0.73939 0.56401 0.82757 0.0
H640 H 0.67396 0.5315 0.85033 0.0
H641 H 0.65377 0.55756 0.81226 0.0
C642 C 0.60779 0.67447 0.77059 0.0
C643 C 0.59255 0.66665 0.79473 0.0
C644 C 0.62587 0.66006 0.75962 0.0
C645 C 0.62883 0.6376 0.77242 0.0
C646 C 0.61388 0.63005 0.79685 0.0
C647 C 0.59604 0.64437 0.80791 0.0
C648 C 0.64639 0.62097 0.7598 0.0
C649 C 0.66104 0.60966 0.7818 0.0
C650 C 0.64619 0.61343 0.72758 0.0
C651 C 0.6309 0.62429 0.70329 0.0
C652 C 0.60649 0.62294 0.70604 0.0
C653 C 0.59222 0.63334 0.683 0.0
C654 C 0.60219 0.64494 0.65701 0.0
C655 C 0.62645 0.64609 0.65393 0.0
C656 C 0.64079 0.63574 0.67692 0.0
C657 C 0.66496 0.51701 0.7447 0.0
C658 C 0.68802 0.51002 0.75055 0.0
C659 C 0.66005 0.54009 0.73679 0.0
C660 C 0.67811 0.55655 0.73522 0.0
C661 C 0.70139 0.549 0.73709 0.0
C662 C 0.70635 0.52572 0.74466 0.0
C663 C 0.67193 0.58113 0.74158 0.0
C664 C 0.65914 0.59364 0.71877 0.0
C665 C 0.67355 0.58972 0.77311 0.0
C666 C 0.68519 0.57594 0.7984 0.0
C667 C 0.70937 0.5778 0.80307 0.0
C668 C 0.7207 0.56279 0.82435 0.0
C669 C 0.70795 0.54603 0.84122 0.0
C670 C 0.6838 0.54446 0.83719 0.0
C671 C 0.67241 0.55935 0.81583 0.0
H672 H 0.71678 0.53436 0.85754 0.0
H673 H 0.59111 0.65297 0.6392 0.0
H674 H 0.47259 0.72638 0.75813 0.0
H675 H 0.43631 0.71466 0.73086 0.0
H676 H 0.45815 0.64263 0.73531 0.0
H677 H 0.49388 0.65425 0.76232 0.0
H678 H 0.43225 0.65076 0.68175 0.0
H679 H 0.42873 0.66824 0.79819 0.0
H680 H 0.43188 0.69583 0.84329 0.0
H681 H 0.3816 0.7409 0.79883 0.0
H682 H 0.37838 0.71365 0.75331 0.0
H683 H 0.36946 0.56605 0.75782 0.0
H684 H 0.39352 0.59672 0.73458 0.0
H685 H 0.33279 0.64056 0.72415 0.0
H686 H 0.30836 0.60941 0.74698 0.0
H687 H 0.36839 0.66039 0.7606 0.0
H688 H 0.36125 0.62895 0.6578 0.0
H689 H 0.35873 0.59855 0.61633 0.0
H690 H 0.42915 0.57758 0.63628 0.0
H691 H 0.43203 0.60759 0.67822 0.0
C692 C 0.4699 0.7082 0.75209 0.0
C693 C 0.48576 0.69112 0.76241 0.0
C694 C 0.44921 0.70151 0.73664 0.0
C695 C 0.44441 0.67773 0.73135 0.0
C696 C 0.46145 0.66106 0.73898 0.0
C697 C 0.48182 0.66767 0.7546 0.0
C698 C 0.42064 0.66923 0.72357 0.0
C699 C 0.41804 0.65312 0.69854 0.0
C700 C 0.40179 0.67294 0.74483 0.0
C701 C 0.40354 0.68913 0.77226 0.0
C702 C 0.41844 0.6841 0.79802 0.0
C703 C 0.42024 0.69965 0.82363 0.0
C704 C 0.40701 0.72014 0.82386 0.0
C705 C 0.39189 0.72506 0.79856 0.0
C706 C 0.39008 0.70959 0.77285 0.0
C707 C 0.36113 0.58196 0.74973 0.0
C708 C 0.33713 0.58545 0.75429 0.0
C709 C 0.37485 0.59943 0.73623 0.0
C710 C 0.36492 0.62088 0.72742 0.0
C711 C 0.34072 0.62404 0.73051 0.0
C712 C 0.32683 0.60627 0.74347 0.0
C713 C 0.3807 0.64067 0.72016 0.0
C714 C 0.38185 0.65889 0.74248 0.0
C715 C 0.39827 0.63867 0.69661 0.0
C716 C 0.39685 0.62063 0.67118 0.0
C717 C 0.37618 0.61781 0.65346 0.0
C718 C 0.37469 0.60063 0.62985 0.0
C719 C 0.39378 0.58616 0.62365 0.0
C720 C 0.4144 0.58885 0.64105 0.0
C721 C 0.41599 0.606 0.66469 0.0
H722 H 0.39258 0.57285 0.60538 0.0
H723 H 0.40847 0.73219 0.84365 0.0
H724 H 0.31507 0.4595 0.81738 0.0
H725 H 0.32657 0.42377 0.79062 0.0
H726 H 0.30357 0.45199 0.70042 0.0
H727 H 0.29232 0.48839 0.72731 0.0
H728 H 0.30982 0.38974 0.75464 0.0
H729 H 0.34503 0.43545 0.64556 0.0
H730 H 0.35478 0.47492 0.62592 0.0
H731 H 0.37314 0.49606 0.72104 0.0
H732 H 0.36372 0.45665 0.74109 0.0
H733 H 0.39621 0.30683 0.71976 0.0
H734 H 0.36518 0.33264 0.70012 0.0
H735 H 0.40325 0.39235 0.73534 0.0
H736 H 0.43423 0.36697 0.75398 0.0
H737 H 0.37846 0.40507 0.68558 0.0
H738 H 0.36472 0.35932 0.78486 0.0
H739 H 0.35952 0.32178 0.81293 0.0
H740 H 0.30372 0.30364 0.74911 0.0
H741 H 0.30879 0.34103 0.72053 0.0
C742 C 0.312 0.45801 0.79194 0.0
C743 C 0.30325 0.47694 0.77435 0.0
C744 C 0.31839 0.43743 0.77666 0.0
C745 C 0.31624 0.43527 0.74342 0.0
C746 C 0.30559 0.45337 0.72606 0.0
C747 C 0.29912 0.47411 0.74146 0.0
C748 C 0.32848 0.41564 0.72748 0.0
C749 C 0.3244 0.39292 0.73868 0.0
C750 C 0.34749 0.41968 0.70659 0.0
C751 C 0.35338 0.44329 0.6948 0.0
C752 C 0.35116 0.44855 0.66221 0.0
C753 C 0.35664 0.47089 0.65103 0.0
C754 C 0.36449 0.48802 0.67224 0.0
C755 C 0.36699 0.48281 0.70466 0.0
C756 C 0.36159 0.46049 0.71593 0.0
C757 C 0.39831 0.32554 0.72216 0.0
C758 C 0.41736 0.33489 0.73905 0.0
C759 C 0.38053 0.34025 0.71105 0.0
C760 C 0.38162 0.3644 0.71689 0.0
C761 C 0.40189 0.3738 0.73059 0.0
C762 C 0.41956 0.35922 0.74156 0.0
C763 C 0.36071 0.37961 0.7146 0.0
C764 C 0.36304 0.40146 0.6998 0.0
C765 C 0.34053 0.375 0.7331 0.0
C766 C 0.33728 0.35274 0.75043 0.0
C767 C 0.35139 0.34726 0.77682 0.0
C768 C 0.34849 0.32603 0.79278 0.0
C769 C 0.33135 0.3103 0.78274 0.0
C770 C 0.31703 0.31581 0.75679 0.0
C771 C 0.31991 0.337 0.7407 0.0
H772 H 0.32913 0.29386 0.79511 0.0
H773 H 0.36868 0.5053 0.66354 0.0
H774 H 0.6684 0.37883 0.81056 0.0
H775 H 0.64535 0.3464 0.79034 0.0
H776 H 0.6534 0.3723 0.69423 0.0
H777 H 0.67709 0.40496 0.71463 0.0
H778 H 0.60754 0.36721 0.71253 0.0
H779 H 0.6729 0.31851 0.70825 0.0
H780 H 0.71036 0.30123 0.72478 0.0
H781 H 0.6778 0.27217 0.80809 0.0
H782 H 0.64021 0.28957 0.7924 0.0
H783 H 0.51215 0.28947 0.71769 0.0
H784 H 0.55115 0.29891 0.69705 0.0
H785 H 0.57779 0.30089 0.79336 0.0
H786 H 0.5391 0.29167 0.81395 0.0
H787 H 0.61111 0.28495 0.7492 0.0
H788 H 0.55408 0.34905 0.76292 0.0
H789 H 0.51667 0.36827 0.75026 0.0
H790 H 0.53475 0.36916 0.65076 0.0
H791 H 0.57216 0.34964 0.66288 0.0
C792 C 0.66575 0.37731 0.78503 0.0
C793 C 0.6743 0.39443 0.76414 0.0
C794 C 0.65277 0.35864 0.77343 0.0
C795 C 0.64783 0.35678 0.74072 0.0
C796 C 0.65724 0.3733 0.71951 0.0
C797 C 0.67072 0.39188 0.73114 0.0
C798 C 0.62978 0.33987 0.73045 0.0
C799 C 0.6086 0.34894 0.7192 0.0
C800 C 0.63111 0.31609 0.73939 0.0
C801 C 0.65364 0.30535 0.74904 0.0
C802 C 0.67372 0.30853 0.73018 0.0
C803 C 0.695 0.2987 0.73941 0.0
C804 C 0.69646 0.28559 0.76745 0.0
C805 C 0.67663 0.28228 0.78632 0.0
C806 C 0.6553 0.29207 0.77722 0.0
C807 C 0.52654 0.29113 0.7343 0.0
C808 C 0.52262 0.29025 0.76741 0.0
C809 C 0.54877 0.29652 0.7225 0.0
C810 C 0.56727 0.30083 0.74371 0.0
C811 C 0.56378 0.29759 0.77656 0.0
C812 C 0.54162 0.29252 0.78833 0.0
C813 C 0.58884 0.31278 0.73315 0.0
C814 C 0.61051 0.30281 0.74067 0.0
C815 C 0.58803 0.3358 0.72096 0.0
C816 C 0.56569 0.34765 0.71371 0.0
C817 C 0.54998 0.35322 0.73833 0.0
C818 C 0.5288 0.36417 0.73127 0.0
C819 C 0.5233 0.36986 0.69971 0.0
C820 C 0.53901 0.36467 0.67517 0.0
C821 C 0.56018 0.35366 0.68212 0.0
H822 H 0.5069 0.37834 0.69428 0.0
H823 H 0.71296 0.27801 0.77456 0.0
H824 H 0.72712 0.47298 0.23257 0.0
H825 H 0.7179 0.4343 0.25531 0.0
H826 H 0.64456 0.45145 0.25316 0.0
H827 H 0.6536 0.48939 0.23053 0.0
H828 H 0.65599 0.42557 0.30648 0.0
H829 H 0.67088 0.42543 0.18861 0.0
H830 H 0.69765 0.43036 0.1429 0.0
H831 H 0.7451 0.3809 0.18437 0.0
H832 H 0.71865 0.3759 0.23047 0.0
H833 H 0.57004 0.36566 0.23101 0.0
H834 H 0.60182 0.38892 0.25285 0.0
H835 H 0.64521 0.32753 0.25839 0.0
H836 H 0.61299 0.30387 0.23685 0.0
H837 H 0.66484 0.36455 0.22338 0.0
H838 H 0.63544 0.35351 0.32674 0.0
H839 H 0.60579 0.34927 0.36897 0.0
H840 H 0.58384 0.42008 0.35426 0.0
H841 H 0.61307 0.42468 0.31161 0.0
C842 C 0.70914 0.46853 0.23775 0.0
C843 C 0.691 0.48388 0.22946 0.0
C844 C 0.7039 0.44654 0.25071 0.0
C845 C 0.68053 0.44001 0.25586 0.0
C846 C 0.66271 0.45613 0.24963 0.0
C847 C 0.66787 0.47773 0.23638 0.0
C848 C 0.67356 0.4157 0.26314 0.0
C849 C 0.65825 0.41193 0.28879 0.0
C850 C 0.67726 0.3976 0.24075 0.0
C851 C 0.693 0.40051 0.21305 0.0
C852 C 0.68709 0.41571 0.18799 0.0
C853 C 0.70218 0.41851 0.16204 0.0
C854 C 0.7231 0.406 0.16078 0.0
C855 C 0.72892 0.39062 0.18543 0.0
C856 C 0.71391 0.38781 0.21147 0.0
C857 C 0.58616 0.357 0.2375 0.0
C858 C 0.58913 0.33303 0.23209 0.0
C859 C 0.60426 0.37026 0.25024 0.0
C860 C 0.62581 0.35989 0.25754 0.0
C861 C 0.62863 0.33577 0.25322 0.0
C862 C 0.61025 0.32233 0.24097 0.0
C863 C 0.64579 0.37528 0.26524 0.0
C864 C 0.66355 0.37737 0.24238 0.0
C865 C 0.64415 0.39192 0.29007 0.0
C866 C 0.62659 0.38945 0.31598 0.0
C867 C 0.62425 0.36817 0.33242 0.0
C868 C 0.6075 0.3657 0.35645 0.0
C869 C 0.59296 0.3844 0.36433 0.0
C870 C 0.59516 0.40562 0.3482 0.0
C871 C 0.61188 0.4082 0.32414 0.0
H872 H 0.57999 0.38244 0.38292 0.0
H873 H 0.73477 0.40817 0.14068 0.0
H874 H 0.51 0.65302 0.23026 0.0
H875 H 0.54816 0.64381 0.25261 0.0
H876 H 0.56265 0.71718 0.26438 0.0
H877 H 0.52374 0.72658 0.24266 0.0
H878 H 0.59684 0.68889 0.22763 0.0
H879 H 0.56288 0.6917 0.32952 0.0
H880 H 0.53265 0.68605 0.37066 0.0
H881 H 0.53837 0.61173 0.36022 0.0
H882 H 0.56836 0.6169 0.31867 0.0
H883 H 0.69556 0.61551 0.2457 0.0
H884 H 0.67108 0.64696 0.26773 0.0
H885 H 0.61113 0.60144 0.26373 0.0
H886 H 0.63526 0.57045 0.24161 0.0
H887 H 0.60894 0.63189 0.31523 0.0
H888 H 0.6258 0.6332 0.19845 0.0
H889 H 0.65361 0.63656 0.15366 0.0
H890 H 0.67836 0.70183 0.19101 0.0
H891 H 0.65082 0.69868 0.23621 0.0
C892 C 0.52116 0.66721 0.23798 0.0
C893 C 0.51404 0.69049 0.23461 0.0
C894 C 0.54286 0.66193 0.25098 0.0
C895 C 0.55807 0.67982 0.26042 0.0
C896 C 0.55099 0.70317 0.25753 0.0
C897 C 0.52887 0.70848 0.24515 0.0
C898 C 0.58208 0.67339 0.26987 0.0
C899 C 0.59992 0.67724 0.24761 0.0
C900 C 0.58595 0.65811 0.29583 0.0
C901 C 0.56796 0.65473 0.32096 0.0
C902 C 0.55762 0.67415 0.33587 0.0
C903 C 0.54053 0.67102 0.35929 0.0
C904 C 0.53361 0.64855 0.36807 0.0
C905 C 0.54379 0.62914 0.35345 0.0
C906 C 0.56089 0.63216 0.33001 0.0
C907 C 0.67732 0.6121 0.25064 0.0
C908 C 0.66711 0.59078 0.2417 0.0
C909 C 0.66339 0.63002 0.26316 0.0
C910 C 0.63927 0.62656 0.26712 0.0
C911 C 0.6297 0.60448 0.26101 0.0
C912 C 0.64344 0.58683 0.24816 0.0
C913 C 0.62294 0.64628 0.27183 0.0
C914 C 0.60649 0.64477 0.29656 0.0
C915 C 0.62019 0.66357 0.24799 0.0
C916 C 0.63651 0.66559 0.22077 0.0
C917 C 0.63726 0.64821 0.19712 0.0
C918 C 0.65295 0.65007 0.1717 0.0
C919 C 0.66779 0.66937 0.16954 0.0
C920 C 0.6669 0.68687 0.19276 0.0
C921 C 0.65127 0.68506 0.21828 0.0
H922 H 0.67993 0.67078 0.14984 0.0
H923 H 0.52036 0.64617 0.3862 0.0
H924 H 0.41647 0.67369 0.2908 0.0
H925 H 0.38774 0.64719 0.3154 0.0
H926 H 0.3509 0.64301 0.22572 0.0
H927 H 0.37942 0.66892 0.2013 0.0
H928 H 0.32071 0.64208 0.27786 0.0
H929 H 0.39425 0.60519 0.24074 0.0
H930 H 0.43698 0.60009 0.24342 0.0
H931 H 0.43203 0.58408 0.34335 0.0
H932 H 0.38926 0.58936 0.34126 0.0
H933 H 0.29619 0.54052 0.19992 0.0
H934 H 0.30706 0.5771 0.22562 0.0
H935 H 0.3179 0.54075 0.31462 0.0
H936 H 0.30635 0.50387 0.28881 0.0
H937 H 0.35706 0.56427 0.29249 0.0
H938 H 0.27981 0.58417 0.31667 0.0
H939 H 0.23732 0.58799 0.30926 0.0
H940 H 0.24842 0.63524 0.23119 0.0
H941 H 0.29097 0.63145 0.23772 0.0
C942 C 0.40184 0.66755 0.27676 0.0
C943 C 0.40023 0.673 0.24412 0.0
C944 C 0.38548 0.65248 0.29077 0.0
C945 C 0.36726 0.64308 0.27232 0.0
C946 C 0.36472 0.65014 0.24046 0.0
C947 C 0.38114 0.66477 0.22644 0.0
C948 C 0.35289 0.62323 0.28359 0.0
C949 C 0.32851 0.62507 0.28168 0.0
C950 C 0.3631 0.60121 0.28971 0.0
C951 C 0.3887 0.59796 0.29095 0.0
C952 C 0.40233 0.60073 0.2633 0.0
C953 C 0.42653 0.59779 0.26471 0.0
C954 C 0.43722 0.59184 0.29357 0.0
C955 C 0.42373 0.58875 0.32105 0.0
C956 C 0.39952 0.59173 0.31978 0.0
C957 C 0.30012 0.54049 0.22523 0.0
C958 C 0.30049 0.51952 0.24245 0.0
C959 C 0.30619 0.5614 0.23999 0.0
C960 C 0.31312 0.5617 0.27213 0.0
C961 C 0.31235 0.54091 0.2899 0.0
C962 C 0.30573 0.51994 0.27521 0.0
C963 C 0.3249 0.58287 0.28451 0.0
C964 C 0.34891 0.58132 0.29071 0.0
C965 C 0.31431 0.60508 0.28199 0.0
C966 C 0.28867 0.60754 0.27778 0.0
C967 C 0.27322 0.59529 0.2978 0.0
C968 C 0.2491 0.59746 0.29376 0.0
C969 C 0.24018 0.61187 0.26979 0.0
C970 C 0.25536 0.62413 0.2498 0.0
C971 C 0.27949 0.62202 0.25373 0.0
H972 H 0.2215 0.61352 0.2667 0.0
H973 H 0.45596 0.58957 0.29461 0.0
H974 H 0.32967 0.41761 0.2873 0.0
H975 H 0.35593 0.38704 0.30804 0.0
H976 H 0.36052 0.35707 0.21376 0.0
H977 H 0.33517 0.38773 0.19301 0.0
H978 H 0.35831 0.32315 0.26587 0.0
H979 H 0.39914 0.39517 0.23077 0.0
H980 H 0.40657 0.43747 0.23506 0.0
H981 H 0.423 0.42953 0.33451 0.0
H982 H 0.41535 0.38718 0.33081 0.0
H983 H 0.4576 0.29191 0.18762 0.0
H984 H 0.42175 0.30361 0.21433 0.0
H985 H 0.46017 0.31601 0.30133 0.0
H986 H 0.49635 0.30384 0.2744 0.0
H987 H 0.43823 0.35461 0.28072 0.0
H988 H 0.41385 0.27894 0.30468 0.0
H989 H 0.40724 0.23673 0.29803 0.0
H990 H 0.36017 0.25017 0.22046 0.0
H991 H 0.36674 0.29245 0.22625 0.0
C992 C 0.33595 0.40414 0.27132 0.0
C993 C 0.3307 0.40499 0.23859 0.0
C994 C 0.35083 0.38673 0.28315 0.0
C995 C 0.36004 0.36979 0.26241 0.0
C996 C 0.35342 0.36984 0.23019 0.0
C997 C 0.33913 0.38745 0.21831 0.0
C998 C 0.37914 0.35401 0.27226 0.0
C999 C 0.3758 0.32984 0.26967 0.0
C1000 C 0.40172 0.36281 0.27843 0.0
C1001 C 0.40638 0.38816 0.28063 0.0
C1002 C 0.40416 0.40251 0.25359 0.0
C1003 C 0.40843 0.42647 0.2559 0.0
C1004 C 0.41517 0.4362 0.28508 0.0
C1005 C 0.41771 0.42198 0.31196 0.0
C1006 C 0.4134 0.39801 0.30978 0.0
C1007 C 0.45823 0.29623 0.2128 0.0
C1008 C 0.47961 0.29704 0.229 0.0
C1009 C 0.4377 0.3028 0.22817 0.0
C1010 C 0.4382 0.3106 0.25995 0.0
C1011 C 0.45936 0.30985 0.27691 0.0
C1012 C 0.47996 0.30284 0.26158 0.0
C1013 C 0.41773 0.32362 0.27235 0.0
C1014 C 0.42074 0.34746 0.27888 0.0
C1015 C 0.39488 0.31442 0.26984 0.0
C1016 C 0.39079 0.28896 0.26597 0.0
C1017 C 0.40219 0.27292 0.28607 0.0
C1018 C 0.39843 0.24896 0.28246 0.0
C1019 C 0.38328 0.24078 0.25885 0.0
C1020 C 0.37186 0.25654 0.23879 0.0
C1021 C 0.37555 0.28053 0.24229 0.0
H1022 H 0.3804 0.22222 0.25611 0.0
H1023 H 0.41849 0.45475 0.28682 0.0
H1024 H 0.11263 0.25538 0.2905 0.0
H1025 H 0.13962 0.28802 0.2852 0.0
H1026 H 0.08712 0.32717 0.23424 0.0
H1027 H 0.06032 0.29387 0.23824 0.0
H1028 H 0.1267 0.3353 0.2086 0.0
H1029 H 0.09972 0.33772 0.31504 0.0
H1030 H 0.08973 0.32268 0.36849 0.0
H1031 H 0.16175 0.30626 0.38561 0.0
H1032 H 0.17214 0.32085 0.33209 0.0
H1033 H 0.21143 0.43008 0.27841 0.0
H1034 H 0.17723 0.40485 0.28642 0.0
H1035 H 0.20384 0.35696 0.21573 0.0
H1036 H 0.23746 0.38213 0.20718 0.0
H1037 H 0.17023 0.36108 0.30483 0.0
H1038 H 0.16151 0.3365 0.16972 0.0
H1039 H 0.16818 0.35502 0.11737 0.0
H1040 H 0.16086 0.42281 0.15987 0.0
H1041 H 0.15378 0.40472 0.21237 0.0
C1042 C 0.10694 0.27087 0.27787 0.0
C1043 C 0.08441 0.27222 0.2649 0.0
C1044 C 0.12228 0.28961 0.27514 0.0
C1045 C 0.11516 0.31036 0.26024 0.0
C1046 C 0.09292 0.31142 0.24613 0.0
C1047 C 0.07767 0.2924 0.2483 0.0
C1048 C 0.13118 0.33069 0.25927 0.0
C1049 C 0.13608 0.34103 0.22968 0.0
C1050 C 0.1428 0.33886 0.287 0.0
C1051 C 0.13669 0.33029 0.31943 0.0
C1052 C 0.11342 0.33079 0.33013 0.0
C1053 C 0.10768 0.32234 0.36045 0.0
C1054 C 0.12509 0.31349 0.38041 0.0
C1055 C 0.14828 0.31312 0.37012 0.0
C1056 C 0.15411 0.32151 0.33981 0.0
C1057 C 0.21003 0.41403 0.26489 0.0
C1058 C 0.22694 0.40816 0.24196 0.0
C1059 C 0.1905 0.3997 0.2694 0.0
C1060 C 0.18773 0.37935 0.25107 0.0
C1061 C 0.20529 0.37291 0.22948 0.0
C1062 C 0.22459 0.38725 0.22477 0.0
C1063 C 0.16652 0.3647 0.25394 0.0
C1064 C 0.16058 0.35555 0.28388 0.0
C1065 C 0.15336 0.35822 0.22673 0.0
C1066 C 0.15727 0.36922 0.19506 0.0
C1067 C 0.16118 0.35535 0.16788 0.0
C1068 C 0.16507 0.36578 0.13817 0.0
C1069 C 0.165 0.39007 0.13531 0.0
C1070 C 0.16098 0.404 0.16213 0.0
C1071 C 0.15705 0.39366 0.19188 0.0
H1072 H 0.16804 0.39811 0.1123 0.0
H1073 H 0.12063 0.30695 0.40386 0.0
H1074 H 0.72904 0.07978 0.20685 0.0
H1075 H 0.69718 0.10683 0.19324 0.0
H1076 H 0.67675 0.10946 0.29232 0.0
H1077 H 0.70858 0.08302 0.30601 0.0
H1078 H 0.63839 0.10915 0.24746 0.0
H1079 H 0.71205 0.1482 0.27037 0.0
H1080 H 0.75416 0.15452 0.26171 0.0
H1081 H 0.74106 0.1725 0.16382 0.0
H1082 H 0.69888 0.16585 0.17179 0.0
H1083 H 0.57975 0.21761 0.26475 0.0
H1084 H 0.60611 0.18424 0.27148 0.0
H1085 H 0.63407 0.19612 0.17717 0.0
H1086 H 0.60857 0.22966 0.17078 0.0
H1087 H 0.66792 0.18724 0.21584 0.0
H1088 H 0.59392 0.15196 0.19317 0.0
H1089 H 0.55192 0.14416 0.20035 0.0
H1090 H 0.56496 0.1182 0.29484 0.0
H1091 H 0.60702 0.12614 0.28838 0.0
C1092 C 0.71736 0.08576 0.22547 0.0
C1093 C 0.7213 0.07968 0.25745 0.0
C1094 C 0.69926 0.10113 0.21774 0.0
C1095 C 0.68481 0.11013 0.24189 0.0
C1096 C 0.68771 0.10262 0.27342 0.0
C1097 C 0.70598 0.0877 0.2812 0.0
C1098 C 0.66866 0.12955 0.23542 0.0
C1099 C 0.64473 0.12627 0.24057 0.0
C1100 C 0.67711 0.1517 0.22616 0.0
C1101 C 0.70237 0.15627 0.22157 0.0
C1102 C 0.71818 0.15334 0.24694 0.0
C1103 C 0.74205 0.15699 0.24217 0.0
C1104 C 0.75029 0.16383 0.21221 0.0
C1105 C 0.73466 0.16714 0.187 0.0
C1106 C 0.71077 0.16344 0.19163 0.0
C1107 C 0.59165 0.21315 0.24562 0.0
C1108 C 0.5921 0.22622 0.21728 0.0
C1109 C 0.60656 0.194 0.24935 0.0
C1110 C 0.62181 0.18749 0.22459 0.0
C1111 C 0.62246 0.2008 0.19656 0.0
C1112 C 0.60783 0.21999 0.19297 0.0
C1113 C 0.63737 0.167 0.22776 0.0
C1114 C 0.66134 0.17011 0.22225 0.0
C1115 C 0.62887 0.14467 0.23644 0.0
C1116 C 0.60359 0.13986 0.2404 0.0
C1117 C 0.58781 0.14475 0.21557 0.0
C1118 C 0.564 0.14028 0.2195 0.0
C1119 C 0.55577 0.13075 0.24806 0.0
C1120 C 0.57135 0.12561 0.27274 0.0
C1121 C 0.59518 0.13008 0.26895 0.0
H1122 H 0.53733 0.12729 0.25105 0.0
H1123 H 0.76878 0.16662 0.20855 0.0
H1124 H 0.7534 0.62111 0.22046 0.0
H1125 H 0.78676 0.64711 0.22709 0.0
H1126 H 0.8306 0.58803 0.24936 0.0
H1127 H 0.79663 0.56201 0.24448 0.0
H1128 H 0.84443 0.62372 0.28278 0.0
H1129 H 0.8296 0.61192 0.17311 0.0
H1130 H 0.80638 0.60903 0.12372 0.0
H1131 H 0.78901 0.68175 0.13042 0.0
H1132 H 0.81184 0.68501 0.18013 0.0
H1133 H 0.93966 0.70496 0.23603 0.0
H1134 H 0.91319 0.672 0.22538 0.0
H1135 H 0.85566 0.7116 0.26364 0.0
H1136 H 0.88199 0.74412 0.27529 0.0
H1137 H 0.85557 0.68012 0.19401 0.0
H1138 H 0.86397 0.68395 0.31453 0.0
H1139 H 0.89029 0.68474 0.36118 0.0
H1140 H 0.92486 0.62307 0.32716 0.0
H1141 H 0.89892 0.62217 0.28006 0.0
C1142 C 0.77007 0.61378 0.22744 0.0
C1143 C 0.77263 0.58968 0.23182 0.0
C1144 C 0.78916 0.62857 0.23089 0.0
C1145 C 0.81136 0.61941 0.23753 0.0
C1146 C 0.81368 0.59543 0.24385 0.0
C1147 C 0.79432 0.58062 0.2412 0.0
C1148 C 0.83202 0.63499 0.23663 0.0
C1149 C 0.84702 0.63574 0.26309 0.0
C1150 C 0.83587 0.65041 0.21064 0.0
C1151 C 0.82236 0.64867 0.18046 0.0
C1152 C 0.82074 0.62728 0.16414 0.0
C1153 C 0.80765 0.62557 0.13608 0.0
C1154 C 0.79621 0.64519 0.12396 0.0
C1155 C 0.79789 0.66657 0.13983 0.0
C1156 C 0.81094 0.66837 0.16793 0.0
C1157 C 0.92128 0.7067 0.24159 0.0
C1158 C 0.91277 0.72695 0.25651 0.0
C1159 C 0.90629 0.68791 0.23566 0.0
C1160 C 0.88265 0.68949 0.24401 0.0
C1161 C 0.87393 0.71016 0.25723 0.0
C1162 C 0.88894 0.72866 0.26383 0.0
C1163 C 0.86694 0.66935 0.24061 0.0
C1164 C 0.85305 0.66772 0.21328 0.0
C1165 C 0.8645 0.65276 0.26527 0.0
C1166 C 0.87974 0.65315 0.29373 0.0
C1167 C 0.87732 0.67069 0.31691 0.0
C1168 C 0.89213 0.67114 0.34343 0.0
C1169 C 0.90928 0.654 0.34709 0.0
C1170 C 0.91161 0.63635 0.32427 0.0
C1171 C 0.89686 0.63587 0.29767 0.0
H1172 H 0.92074 0.65437 0.36763 0.0
H1173 H 0.78606 0.64383 0.10224 0.0
H1174 H 0.25417 0.88325 0.28446 0.0
H1175 H 0.28714 0.85648 0.28045 0.0
H1176 H 0.32868 0.91086 0.23732 0.0
H1177 H 0.29511 0.93744 0.23988 0.0
H1178 H 0.34068 0.87059 0.21291 0.0
H1179 H 0.33263 0.89943 0.31782 0.0
H1180 H 0.31271 0.91004 0.36792 0.0
H1181 H 0.29662 0.83794 0.38514 0.0
H1182 H 0.31612 0.82692 0.33486 0.0
H1183 H 0.44042 0.79981 0.25431 0.0
H1184 H 0.41466 0.83364 0.26279 0.0
H1185 H 0.35516 0.78764 0.26712 0.0
H1186 H 0.38065 0.75407 0.25732 0.0
H1187 H 0.35871 0.8297 0.31453 0.0
H1188 H 0.36235 0.80494 0.20099 0.0
H1189 H 0.3852 0.79658 0.1524 0.0
H1190 H 0.41422 0.86565 0.15513 0.0
H1191 H 0.3918 0.87425 0.20409 0.0
C1192 C 0.27016 0.88927 0.27335 0.0
C1193 C 0.27226 0.91234 0.26262 0.0
C1194 C 0.28905 0.87408 0.27138 0.0
C1195 C 0.31063 0.88195 0.25969 0.0
C1196 C 0.31227 0.90452 0.24679 0.0
C1197 C 0.2931 0.91963 0.24809 0.0
C1198 C 0.33152 0.86684 0.26261 0.0
C1199 C 0.34484 0.86203 0.23529 0.0
C1200 C 0.33731 0.85591 0.29195 0.0
C1201 C 0.32573 0.86237 0.32243 0.0
C1202 C 0.32473 0.88584 0.33218 0.0
C1203 C 0.31352 0.89193 0.36063 0.0
C1204 C 0.30338 0.87468 0.37968 0.0
C1205 C 0.30448 0.85129 0.37035 0.0
C1206 C 0.31564 0.84511 0.34189 0.0
C1207 C 0.42194 0.79699 0.25817 0.0
C1208 C 0.41234 0.77455 0.25551 0.0
C1209 C 0.4073 0.81622 0.26281 0.0
C1210 C 0.38312 0.81298 0.2655 0.0
C1211 C 0.37382 0.79036 0.26527 0.0
C1212 C 0.38832 0.77127 0.25976 0.0
C1213 C 0.36701 0.83298 0.26471 0.0
C1214 C 0.35469 0.83871 0.29243 0.0
C1215 C 0.36257 0.84519 0.23605 0.0
C1216 C 0.37565 0.84013 0.20635 0.0
C1217 C 0.37376 0.81826 0.19137 0.0
C1218 C 0.3866 0.81349 0.16375 0.0
C1219 C 0.40121 0.83054 0.15074 0.0
C1220 C 0.40294 0.85244 0.16527 0.0
C1221 C 0.39018 0.85727 0.19294 0.0
H1222 H 0.41115 0.82682 0.12936 0.0
H1223 H 0.2947 0.87942 0.40169 0.0
H1224 H 0.20579 0.56116 0.75338 0.0
H1225 H 0.173 0.58816 0.74658 0.0
H1226 H 0.2202 0.64653 0.75678 0.0
H1227 H 0.25247 0.6195 0.76588 0.0
H1228 H 0.18621 0.65387 0.79268 0.0
H1229 H 0.19176 0.62882 0.68296 0.0
H1230 H 0.19266 0.60053 0.63859 0.0
H1231 H 0.12424 0.57632 0.66414 0.0
H1232 H 0.12305 0.6043 0.70891 0.0
H1233 H 0.11619 0.73908 0.70471 0.0
H1234 H 0.14383 0.70729 0.71379 0.0
H1235 H 0.09506 0.67431 0.7779 0.0
H1236 H 0.0674 0.70657 0.76965 0.0
H1237 H 0.12561 0.65184 0.70821 0.0
H1238 H 0.12417 0.67765 0.82246 0.0
H1239 H 0.12507 0.70939 0.86229 0.0
H1240 H 0.18867 0.73545 0.82138 0.0
H1241 H 0.1879 0.70403 0.78103 0.0
C1242 C 0.20909 0.57978 0.75341 0.0
C1243 C 0.23146 0.58843 0.75999 0.0
C1244 C 0.1904 0.59521 0.74951 0.0
C1245 C 0.19408 0.61945 0.75108 0.0
C1246 C 0.21683 0.62794 0.75581 0.0
C1247 C 0.23529 0.61256 0.76071 0.0
C1248 C 0.17425 0.6361 0.75018 0.0
C1249 C 0.17305 0.65331 0.77408 0.0
C1250 C 0.1567 0.6353 0.72636 0.0
C1251 C 0.15743 0.61847 0.69949 0.0
C1252 C 0.17698 0.61734 0.67926 0.0
C1253 C 0.17753 0.60139 0.65401 0.0
C1254 C 0.15855 0.58659 0.64861 0.0
C1255 C 0.13895 0.58776 0.66839 0.0
C1256 C 0.13832 0.60368 0.69368 0.0
C1257 C 0.11144 0.7252 0.72103 0.0
C1258 C 0.08973 0.72524 0.73657 0.0
C1259 C 0.12719 0.70708 0.7261 0.0
C1260 C 0.12137 0.68862 0.74646 0.0
C1261 C 0.09981 0.68861 0.76228 0.0
C1262 C 0.08414 0.70701 0.75765 0.0
C1263 C 0.138 0.6693 0.75039 0.0
C1264 C 0.13863 0.65182 0.72702 0.0
C1265 C 0.15526 0.67 0.77427 0.0
C1266 C 0.15581 0.68872 0.79858 0.0
C1267 C 0.13819 0.69031 0.82179 0.0
C1268 C 0.13872 0.70819 0.84449 0.0
C1269 C 0.15688 0.72448 0.8443 0.0
C1270 C 0.17459 0.72286 0.82146 0.0
C1271 C 0.17412 0.70502 0.79869 0.0
H1272 H 0.15726 0.73831 0.86189 0.0
H1273 H 0.15901 0.57425 0.62905 0.0
H1274 H 0.37603 0.24505 0.75648 0.0
H1275 H 0.3515 0.21024 0.75598 0.0
H1276 H 0.41123 0.16812 0.73115 0.0
H1277 H 0.43577 0.20326 0.7305 0.0
H1278 H 0.37149 0.15081 0.70472 0.0
H1279 H 0.39681 0.17334 0.80787 0.0
H1280 H 0.40444 0.20032 0.85252 0.0
H1281 H 0.33098 0.21343 0.86186 0.0
H1282 H 0.32293 0.18683 0.81688 0.0
H1283 H 0.30412 0.05339 0.75804 0.0
H1284 H 0.33685 0.08079 0.76429 0.0
H1285 H 0.28853 0.1385 0.76337 0.0
H1286 H 0.25605 0.11131 0.756 0.0
H1287 H 0.32924 0.14231 0.80766 0.0
H1288 H 0.30693 0.12427 0.69665 0.0
H1289 H 0.30046 0.09624 0.65283 0.0
H1290 H 0.37126 0.07244 0.66116 0.0
H1291 H 0.37798 0.10008 0.70546 0.0
C1292 C 0.38374 0.22848 0.74983 0.0
C1293 C 0.40773 0.2267 0.74375 0.0
C1294 C 0.3698 0.20859 0.74984 0.0
C1295 C 0.37976 0.18655 0.74464 0.0
C1296 C 0.4033 0.18497 0.73558 0.0
C1297 C 0.41724 0.20503 0.73501 0.0
C1298 C 0.36594 0.16533 0.75157 0.0
C1299 C 0.36265 0.1487 0.72744 0.0
C1300 C 0.35461 0.16242 0.78141 0.0
C1301 C 0.35928 0.17817 0.80886 0.0
C1302 C 0.38229 0.18207 0.81933 0.0
C1303 C 0.38669 0.19729 0.8447 0.0
C1304 C 0.36821 0.2086 0.85999 0.0
C1305 C 0.34528 0.20465 0.84998 0.0
C1306 C 0.34078 0.18948 0.82457 0.0
C1307 C 0.30052 0.07186 0.7605 0.0
C1308 C 0.27775 0.08041 0.75675 0.0
C1309 C 0.31916 0.08744 0.76383 0.0
C1310 C 0.31499 0.11157 0.76407 0.0
C1311 C 0.292 0.11991 0.76334 0.0
C1312 C 0.27351 0.10443 0.75921 0.0
C1313 C 0.33426 0.1284 0.76049 0.0
C1314 C 0.33858 0.14418 0.78527 0.0
C1315 C 0.34682 0.13029 0.73151 0.0
C1316 C 0.34286 0.114 0.70459 0.0
C1317 C 0.32104 0.11291 0.68931 0.0
C1318 C 0.31734 0.09712 0.66437 0.0
C1319 C 0.33541 0.08251 0.65429 0.0
C1320 C 0.35725 0.08372 0.66905 0.0
C1321 C 0.36102 0.09944 0.69407 0.0
H1322 H 0.33252 0.0703 0.63498 0.0
H1323 H 0.37165 0.22039 0.87962 0.0
H1324 H 0.88332 0.2497 0.73761 0.0
H1325 H 0.85657 0.28266 0.74236 0.0
H1326 H 0.91499 0.32906 0.75703 0.0
H1327 H 0.94177 0.29561 0.75409 0.0
H1328 H 0.87925 0.3443 0.78982 0.0
H1329 H 0.8906 0.32218 0.68219 0.0
H1330 H 0.89347 0.29557 0.6361 0.0
H1331 H 0.82109 0.27766 0.64629 0.0
H1332 H 0.81786 0.30389 0.69277 0.0
H1333 H 0.79437 0.43378 0.73152 0.0
H1334 H 0.82835 0.40798 0.72366 0.0
H1335 H 0.79194 0.35231 0.77178 0.0
H1336 H 0.75853 0.37803 0.78065 0.0
H1337 H 0.82224 0.34856 0.70066 0.0
H1338 H 0.81961 0.36426 0.82043 0.0
H1339 H 0.81855 0.39359 0.86359 0.0
H1340 H 0.87808 0.42815 0.82298 0.0
H1341 H 0.8792 0.39916 0.77932 0.0
C1342 C 0.89033 0.26685 0.74281 0.0
C1343 C 0.91445 0.2703 0.74547 0.0
C1344 C 0.87512 0.2857 0.74513 0.0
C1345 C 0.88387 0.30844 0.74882 0.0
C1346 C 0.9079 0.31169 0.7538 0.0
C1347 C 0.92315 0.29263 0.75232 0.0
C1348 C 0.86789 0.32863 0.7456 0.0
C1349 C 0.86709 0.34537 0.77003 0.0
C1350 C 0.85231 0.3305 0.71938 0.0
C1351 C 0.85402 0.31494 0.69109 0.0
C1352 C 0.87531 0.31249 0.6747 0.0
C1353 C 0.87701 0.29747 0.64851 0.0
C1354 C 0.85749 0.28492 0.6383 0.0
C1355 C 0.8362 0.2874 0.65422 0.0
C1356 C 0.83442 0.30238 0.68047 0.0
C1357 C 0.7936 0.41592 0.73992 0.0
C1358 C 0.77403 0.4078 0.75677 0.0
C1359 C 0.81294 0.40133 0.73556 0.0
C1360 C 0.81252 0.37845 0.74744 0.0
C1361 C 0.7925 0.37001 0.7627 0.0
C1362 C 0.77351 0.38467 0.76772 0.0
C1363 C 0.83313 0.36324 0.74544 0.0
C1364 C 0.83481 0.34757 0.71997 0.0
C1365 C 0.84984 0.36269 0.77015 0.0
C1366 C 0.84934 0.37977 0.79656 0.0
C1367 C 0.83234 0.37823 0.82062 0.0
C1368 C 0.83174 0.39476 0.84517 0.0
C1369 C 0.8482 0.41276 0.84598 0.0
C1370 C 0.86531 0.41423 0.82229 0.0
C1371 C 0.86593 0.39777 0.79765 0.0
H1372 H 0.84771 0.42554 0.86501 0.0
H1373 H 0.85884 0.27328 0.61802 0.0
H1374 H 0.72918 0.91792 0.78257 0.0
H1375 H 0.69975 0.88803 0.79531 0.0
H1376 H 0.69145 0.87324 0.69499 0.0
H1377 H 0.72095 0.90245 0.68218 0.0
H1378 H 0.64836 0.87981 0.7314 0.0
H1379 H 0.72173 0.83754 0.73204 0.0
H1380 H 0.76212 0.83058 0.74994 0.0
H1381 H 0.73836 0.82337 0.84667 0.0
H1382 H 0.69784 0.83068 0.82938 0.0
H1383 H 0.58486 0.7734 0.73157 0.0
H1384 H 0.61381 0.80398 0.72103 0.0
H1385 H 0.63274 0.80452 0.82076 0.0
H1386 H 0.60453 0.77375 0.83122 0.0
H1387 H 0.67035 0.80632 0.78632 0.0
H1388 H 0.59759 0.84707 0.78795 0.0
H1389 H 0.55694 0.85571 0.77272 0.0
H1390 H 0.57846 0.86777 0.67593 0.0
H1391 H 0.61923 0.85888 0.69049 0.0
C1392 C 0.72105 0.90825 0.76334 0.0
C1393 C 0.72741 0.91234 0.73145 0.0
C1394 C 0.70431 0.89126 0.7706 0.0
C1395 C 0.69353 0.87856 0.746 0.0
C1396 C 0.69959 0.88295 0.71421 0.0
C1397 C 0.71654 0.89952 0.707 0.0
C1398 C 0.67622 0.86027 0.75312 0.0
C1399 C 0.65311 0.86364 0.74319 0.0
C1400 C 0.68249 0.83952 0.76911 0.0
C1401 C 0.7068 0.83494 0.77947 0.0
C1402 C 0.72515 0.8347 0.75717 0.0
C1403 C 0.74806 0.83065 0.76719 0.0
C1404 C 0.75282 0.82661 0.79944 0.0
C1405 C 0.73466 0.82655 0.82171 0.0
C1406 C 0.71171 0.83064 0.81181 0.0
C1407 C 0.59529 0.78001 0.75115 0.0
C1408 C 0.59242 0.77121 0.78218 0.0
C1409 C 0.61171 0.79754 0.74517 0.0
C1410 C 0.62523 0.80672 0.77022 0.0
C1411 C 0.62254 0.7977 0.80108 0.0
C1412 C 0.60634 0.78012 0.807 0.0
C1413 C 0.64228 0.82571 0.76451 0.0
C1414 C 0.66542 0.8225 0.77467 0.0
C1415 C 0.63593 0.84676 0.74912 0.0
C1416 C 0.61142 0.85206 0.74024 0.0
C1417 C 0.59363 0.85136 0.76335 0.0
C1418 C 0.57057 0.85634 0.75486 0.0
C1419 C 0.56511 0.86221 0.72336 0.0
C1420 C 0.58271 0.86317 0.7003 0.0
C1421 C 0.6058 0.85818 0.70867 0.0
H1422 H 0.54725 0.86608 0.71683 0.0
H1423 H 0.77057 0.82348 0.80715 0.0
H1424 H 0.00883 0.26925 0.36414 0.0
H1425 H 0.99729 0.27293 0.42026 0.0
H1426 H 0.0068 0.19885 0.43307 0.0
H1427 H 0.01851 0.19506 0.37716 0.0
H1428 H 0.96573 0.21728 0.46193 0.0
H1429 H 0.04915 0.23399 0.45383 0.0
H1430 H 0.08274 0.25607 0.43271 0.0
H1431 H 0.05389 0.31968 0.46984 0.0
H1432 H 0.01996 0.29801 0.49078 0.0
H1433 H 0.97671 0.19573 0.62331 0.0
H1434 H 0.9854 0.19935 0.56659 0.0
H1435 H 0.98613 0.2744 0.57546 0.0
H1436 H 0.97829 0.27077 0.63289 0.0
H1437 H 0.01857 0.26092 0.53451 0.0
H1438 H 0.93771 0.24618 0.54693 0.0
H1439 H 0.90247 0.22647 0.56726 0.0
H1440 H 0.92325 0.16292 0.52099 0.0
H1441 H 0.95882 0.18215 0.50075 0.0
C1442 C 0.00814 0.25371 0.37882 0.0
C1443 C 0.01469 0.23188 0.36642 0.0
C1444 C 0.00164 0.25587 0.41084 0.0
C1445 C 0.00145 0.23619 0.43075 0.0
C1446 C 0.00691 0.21423 0.41801 0.0
C1447 C 0.01363 0.2121 0.38614 0.0
C1448 C 0.99664 0.23844 0.46525 0.0
C1449 C 0.97731 0.22669 0.47789 0.0
C1450 C 0.01131 0.25151 0.48571 0.0
C1451 C 0.0319 0.26443 0.47356 0.0
C1452 C 0.04989 0.25271 0.45728 0.0
C1453 C 0.069 0.26515 0.44537 0.0
C1454 C 0.07041 0.28927 0.44984 0.0
C1455 C 0.05276 0.301 0.46634 0.0
C1456 C 0.03359 0.28865 0.47825 0.0
C1457 C 0.97903 0.213 0.61328 0.0
C1458 C 0.9766 0.23299 0.63233 0.0
C1459 C 0.98385 0.21506 0.58083 0.0
C1460 C 0.9857 0.23716 0.56661 0.0
C1461 C 0.98453 0.25718 0.58591 0.0
C1462 C 0.9801 0.25509 0.61865 0.0
C1463 C 0.98799 0.2391 0.53146 0.0
C1464 C 0.00677 0.25171 0.51863 0.0
C1465 C 0.97252 0.2272 0.51067 0.0
C1466 C 0.95102 0.21558 0.52249 0.0
C1467 C 0.93484 0.22796 0.54124 0.0
C1468 C 0.9148 0.21687 0.55274 0.0
C1469 C 0.91064 0.19344 0.54546 0.0
C1470 C 0.9265 0.18106 0.52661 0.0
C1471 C 0.94659 0.19206 0.51508 0.0
H1472 H 0.89512 0.18489 0.5544 0.0
H1473 H 0.0852 0.29887 0.44059 0.0
H1474 H 0.79217 0.99696 0.62147 0.0
H1475 H 0.78634 0.008 0.56567 0.0
H1476 H 0.71403 0.98761 0.57191 0.0
H1477 H 0.71961 0.97725 0.62844 0.0
H1478 H 0.7461 0.96545 0.52056 0.0
H1479 H 0.71656 0.03775 0.55995 0.0
H1480 H 0.71614 0.07281 0.59404 0.0
H1481 H 0.78136 0.09503 0.55374 0.0
H1482 H 0.78237 0.05989 0.51974 0.0
H1483 H 0.73568 0.0032 0.35644 0.0
H1484 H 0.72821 0.99429 0.41272 0.0
H1485 H 0.79211 0.02923 0.43896 0.0
H1486 H 0.79955 0.03838 0.383 0.0
H1487 H 0.75545 0.04449 0.47395 0.0
H1488 H 0.78803 0.97078 0.4406 0.0
H1489 H 0.7904 0.93546 0.40712 0.0
H1490 H 0.72152 0.91539 0.43674 0.0
H1491 H 0.71858 0.95083 0.46999 0.0
C1492 C 0.77491 0.99539 0.61116 0.0
C1493 C 0.75631 0.98636 0.62906 0.0
C1494 C 0.77161 0.00165 0.57938 0.0
C1495 C 0.74981 0.9985 0.56488 0.0
C1496 C 0.73095 0.99017 0.58291 0.0
C1497 C 0.73411 0.98445 0.61509 0.0
C1498 C 0.7477 0.00233 0.53025 0.0
C1499 C 0.74749 0.98274 0.51016 0.0
C1500 C 0.75012 0.02486 0.51711 0.0
C1501 C 0.74962 0.04607 0.53746 0.0
C1502 C 0.73093 0.04999 0.55856 0.0
C1503 C 0.73056 0.06991 0.57783 0.0
C1504 C 0.74873 0.08611 0.5761 0.0
C1505 C 0.7673 0.08245 0.55506 0.0
C1506 C 0.76776 0.06255 0.53575 0.0
C1507 C 0.74831 0.00863 0.37418 0.0
C1508 C 0.76813 0.02159 0.36542 0.0
C1509 C 0.74399 0.00358 0.40628 0.0
C1510 C 0.75953 0.01127 0.42994 0.0
C1511 C 0.77979 0.02336 0.42104 0.0
C1512 C 0.78409 0.02844 0.38906 0.0
C1513 C 0.75448 0.00756 0.46416 0.0
C1514 C 0.75346 0.0272 0.48415 0.0
C1515 C 0.75113 0.98504 0.4772 0.0
C1516 C 0.75296 0.96362 0.45745 0.0
C1517 C 0.7733 0.95895 0.43975 0.0
C1518 C 0.77476 0.93889 0.42085 0.0
C1519 C 0.75609 0.92323 0.41972 0.0
C1520 C 0.73595 0.92756 0.43758 0.0
C1521 C 0.73437 0.94764 0.45646 0.0
H1522 H 0.75725 0.90772 0.40506 0.0
H1523 H 0.74841 0.10153 0.59103 0.0
H1524 H 0.01166 0.724 0.63924 0.0
H1525 H 0.99691 0.71953 0.5846 0.0
H1526 H 0.00102 0.79405 0.57111 0.0
H1527 H 0.01591 0.79861 0.62541 0.0
H1528 H 0.96047 0.77344 0.54476 0.0
H1529 H 0.04492 0.76157 0.5475 0.0
H1530 H 0.08056 0.7416 0.56605 0.0
H1531 H 0.05411 0.67629 0.53111 0.0
H1532 H 0.01816 0.69586 0.51275 0.0
H1533 H 0.97065 0.79896 0.38365 0.0
H1534 H 0.97771 0.79415 0.44062 0.0
H1535 H 0.98188 0.71949 0.42816 0.0
H1536 H 0.97553 0.72432 0.3706 0.0
H1537 H 0.0138 0.73344 0.46905 0.0
H1538 H 0.93231 0.74515 0.45886 0.0
H1539 H 0.89596 0.76382 0.44053 0.0
H1540 H 0.91454 0.82682 0.48988 0.0
H1541 H 0.95119 0.80865 0.50813 0.0
C1542 C 0.00904 0.73944 0.62476 0.0
C1543 C 0.01515 0.76163 0.63633 0.0
C1544 C 0.00069 0.73684 0.59361 0.0
C1545 C 0.99816 0.75644 0.57383 0.0
C1546 C 0.00292 0.77872 0.58604 0.0
C1547 C 0.01152 0.78129 0.61698 0.0
C1548 C 0.99227 0.75385 0.53968 0.0
C1549 C 0.9721 0.76476 0.52812 0.0
C1550 C 0.00709 0.74179 0.51829 0.0
C1551 C 0.02876 0.73011 0.52912 0.0
C1552 C 0.04663 0.74292 0.54402 0.0
C1553 C 0.0669 0.73168 0.55445 0.0
C1554 C 0.06956 0.70767 0.54986 0.0
C1555 C 0.052 0.69487 0.53472 0.0
C1556 C 0.03168 0.70602 0.52429 0.0
C1557 C 0.97326 0.78152 0.39297 0.0
C1558 C 0.97239 0.76199 0.37279 0.0
C1559 C 0.97711 0.77878 0.42559 0.0
C1560 C 0.97965 0.75641 0.43879 0.0
C1561 C 0.97972 0.73689 0.4185 0.0
C1562 C 0.97616 0.73967 0.38567 0.0
C1563 C 0.98229 0.75369 0.4738 0.0
C1564 C 0.00185 0.74176 0.4856 0.0
C1565 C 0.9667 0.76455 0.49547 0.0
C1566 C 0.9446 0.77556 0.4847 0.0
C1567 C 0.92873 0.76304 0.46564 0.0
C1568 C 0.90805 0.77353 0.45528 0.0
C1569 C 0.90296 0.7965 0.46399 0.0
C1570 C 0.91851 0.80902 0.48314 0.0
C1571 C 0.93923 0.79862 0.49354 0.0
H1572 H 0.88694 0.80459 0.45594 0.0
H1573 H 0.08526 0.699 0.55795 0.0
H1574 H 0.21109 0.03635 0.61807 0.0
H1575 H 0.2166 0.02556 0.56229 0.0
H1576 H 0.28755 0.00509 0.58226 0.0
H1577 H 0.28218 0.01595 0.63853 0.0
H1578 H 0.28176 0.03229 0.52504 0.0
H1579 H 0.25109 0.96363 0.5742 0.0
H1580 H 0.22413 0.94157 0.60877 0.0
H1581 H 0.1664 0.9618 0.5496 0.0
H1582 H 0.19294 0.98436 0.51501 0.0
H1583 H 0.28216 0.97787 0.36798 0.0
H1584 H 0.28827 0.9881 0.42432 0.0
H1585 H 0.21457 0.00198 0.43431 0.0
H1586 H 0.20838 0.99098 0.37884 0.0
H1587 H 0.22837 0.97316 0.47868 0.0
H1588 H 0.25782 0.04571 0.43396 0.0
H1589 H 0.28408 0.06946 0.40046 0.0
H1590 H 0.34347 0.04265 0.45108 0.0
H1591 H 0.31756 0.01852 0.48463 0.0
C1592 C 0.22787 0.02954 0.61067 0.0
C1593 C 0.24615 0.02681 0.63265 0.0
C1594 C 0.23099 0.0234 0.57881 0.0
C1595 C 0.25241 0.01438 0.56835 0.0
C1596 C 0.2709 0.01201 0.59002 0.0
C1597 C 0.26775 0.01807 0.62209 0.0
C1598 C 0.25492 0.00696 0.53479 0.0
C1599 C 0.27045 0.01906 0.51487 0.0
C1600 C 0.24 0.98982 0.52174 0.0
C1601 C 0.22402 0.9758 0.54209 0.0
C1602 C 0.23263 0.96349 0.56865 0.0
C1603 C 0.21742 0.95089 0.58825 0.0
C1604 C 0.19357 0.9503 0.5814 0.0
C1605 C 0.18488 0.96227 0.55488 0.0
C1606 C 0.20001 0.97494 0.53524 0.0
C1607 C 0.26742 0.98359 0.38216 0.0
C1608 C 0.24479 0.98351 0.3693 0.0
C1609 C 0.27091 0.9894 0.41428 0.0
C1610 C 0.25184 0.99567 0.43357 0.0
C1611 C 0.22949 0.99693 0.42 0.0
C1612 C 0.22597 0.99073 0.38826 0.0
C1613 C 0.25442 0.99928 0.4684 0.0
C1614 C 0.23995 0.98622 0.48873 0.0
C1615 C 0.27025 0.01557 0.48167 0.0
C1616 C 0.28578 0.03011 0.46153 0.0
C1617 C 0.27649 0.04474 0.43776 0.0
C1618 C 0.29131 0.05829 0.41881 0.0
C1619 C 0.31544 0.0575 0.42357 0.0
C1620 C 0.32479 0.04321 0.44737 0.0
C1621 C 0.31005 0.0296 0.46637 0.0
H1622 H 0.32688 0.06801 0.40887 0.0
H1623 H 0.18182 0.94056 0.59663 0.0
H1624 H 0.50186 0.70511 0.88302 0.0
H1625 H 0.48585 0.71274 0.93621 0.0
H1626 H 0.5009 0.78605 0.92528 0.0
H1627 H 0.51619 0.7786 0.8714 0.0
H1628 H 0.52291 0.75837 0.98041 0.0
H1629 H 0.45035 0.77924 0.93247 0.0
H1630 H 0.41696 0.77449 0.89595 0.0
H1631 H 0.39816 0.71055 0.94278 0.0
H1632 H 0.4317 0.71469 0.97925 0.0
H1633 H 0.48201 0.77216 0.14151 0.0
H1634 H 0.48962 0.77902 0.08466 0.0
H1635 H 0.45926 0.71213 0.06192 0.0
H1636 H 0.45141 0.7053 0.11835 0.0
H1637 H 0.44307 0.74532 0.0226 0.0
H1638 H 0.51755 0.71956 0.06241 0.0
H1639 H 0.55226 0.72042 0.09718 0.0
H1640 H 0.56865 0.78947 0.06425 0.0
H1641 H 0.53381 0.78913 0.02959 0.0
C1642 C 0.50111 0.72292 0.89164 0.0
C1643 C 0.51021 0.74128 0.87336 0.0
C1644 C 0.49198 0.72725 0.9219 0.0
C1645 C 0.4923 0.74992 0.93447 0.0
C1646 C 0.50045 0.76848 0.91574 0.0
C1647 C 0.50904 0.76423 0.88505 0.0
C1648 C 0.48672 0.75335 0.96846 0.0
C1649 C 0.50537 0.75622 0.98975 0.0
C1650 C 0.46394 0.74977 0.98028 0.0
C1651 C 0.44367 0.74721 0.95848 0.0
C1652 C 0.43924 0.76405 0.93481 0.0
C1653 C 0.42025 0.76149 0.91414 0.0
C1654 C 0.40546 0.74222 0.91703 0.0
C1655 C 0.40963 0.72547 0.94058 0.0
C1656 C 0.42862 0.72794 0.96129 0.0
C1657 C 0.47714 0.75887 0.12436 0.0
C1658 C 0.46615 0.73819 0.13431 0.0
C1659 C 0.48145 0.76283 0.09195 0.0
C1660 C 0.47493 0.74609 0.06912 0.0
C1661 C 0.46423 0.72535 0.07913 0.0
C1662 C 0.45992 0.7214 0.11141 0.0
C1663 C 0.47937 0.74987 0.03471 0.0
C1664 C 0.46053 0.74818 0.01336 0.0
C1665 C 0.50207 0.75413 0.02277 0.0
C1666 C 0.52289 0.75446 0.04378 0.0
C1667 C 0.52841 0.73503 0.06285 0.0
C1668 C 0.54814 0.7354 0.08247 0.0
C1669 C 0.5626 0.75503 0.08303 0.0
C1670 C 0.55739 0.77431 0.06388 0.0
C1671 C 0.53766 0.77404 0.04424 0.0
H1672 H 0.57788 0.75527 0.09821 0.0
H1673 H 0.39075 0.74028 0.90104 0.0
H1674 H 0.23445 0.51393 0.86931 0.0
H1675 H 0.23085 0.50174 0.92521 0.0
H1676 H 0.30074 0.5263 0.94365 0.0
H1677 H 0.30454 0.53827 0.88799 0.0
H1678 H 0.29258 0.48349 0.96973 0.0
H1679 H 0.25309 0.55874 0.96428 0.0
H1680 H 0.22321 0.58574 0.94351 0.0
H1681 H 0.16906 0.53896 0.97395 0.0
H1682 H 0.19865 0.51154 0.99455 0.0
H1683 H 0.30167 0.48709 0.13417 0.0
H1684 H 0.2994 0.49971 0.07863 0.0
H1685 H 0.22605 0.48246 0.07681 0.0
H1686 H 0.22803 0.47131 0.13331 0.0
H1687 H 0.23265 0.51829 0.04081 0.0
H1688 H 0.26974 0.44396 0.04844 0.0
H1689 H 0.29812 0.41509 0.06839 0.0
H1690 H 0.35459 0.45662 0.03213 0.0
H1691 H 0.32657 0.48591 0.01235 0.0
C1692 C 0.24908 0.51659 0.88528 0.0
C1693 C 0.26976 0.52711 0.87436 0.0
C1694 C 0.24695 0.50973 0.91719 0.0
C1695 C 0.26544 0.51338 0.9386 0.0
C1696 C 0.28626 0.52338 0.92751 0.0
C1697 C 0.28839 0.53024 0.89571 0.0
C1698 C 0.26333 0.50693 0.97268 0.0
C1699 C 0.27961 0.49123 0.98536 0.0
C1700 C 0.24582 0.51636 0.99272 0.0
C1701 C 0.22808 0.533 0.98066 0.0
C1702 C 0.23482 0.55415 0.96635 0.0
C1703 C 0.21793 0.56954 0.95464 0.0
C1704 C 0.19425 0.56404 0.95734 0.0
C1705 C 0.1874 0.54318 0.97185 0.0
C1706 C 0.20422 0.52772 0.98356 0.0
C1707 C 0.28499 0.48644 0.12206 0.0
C1708 C 0.26506 0.4781 0.13775 0.0
C1709 C 0.28373 0.49344 0.09025 0.0
C1710 C 0.26275 0.49123 0.07316 0.0
C1711 C 0.24249 0.4841 0.08938 0.0
C1712 C 0.2436 0.47777 0.12161 0.0
C1713 C 0.26237 0.4953 0.03815 0.0
C1714 C 0.24555 0.5104 0.02522 0.0
C1715 C 0.27915 0.48497 0.01767 0.0
C1716 C 0.29605 0.4672 0.0291 0.0
C1717 C 0.28822 0.44698 0.04485 0.0
C1718 C 0.30424 0.43054 0.05612 0.0
C1719 C 0.32815 0.43403 0.05157 0.0
C1720 C 0.33607 0.45394 0.03565 0.0
C1721 C 0.32012 0.47045 0.02436 0.0
H1722 H 0.34053 0.4213 0.06035 0.0
H1723 H 0.18121 0.57597 0.94824 0.0
H1724 H 0.53113 0.30188 0.10497 0.0
H1725 H 0.51696 0.29747 0.05036 0.0
H1726 H 0.49385 0.22754 0.07177 0.0
H1727 H 0.50789 0.23188 0.12673 0.0
H1728 H 0.5316 0.26604 0.00569 0.0
H1729 H 0.445 0.21736 0.02392 0.0
H1730 H 0.41452 0.21231 0.06498 0.0
H1731 H 0.42975 0.28037 0.10252 0.0
H1732 H 0.46006 0.28594 0.06141 0.0
H1733 H 0.48497 0.23116 0.85386 0.0
H1734 H 0.4959 0.22774 0.91039 0.0
H1735 H 0.45449 0.28851 0.93235 0.0
H1736 H 0.44383 0.29225 0.87615 0.0
H1737 H 0.44909 0.25054 0.97652 0.0
H1738 H 0.5086 0.29669 0.92292 0.0
H1739 H 0.53829 0.30296 0.88116 0.0
H1740 H 0.5766 0.24343 0.91476 0.0
H1741 H 0.54686 0.23656 0.95637 0.0
C1742 C 0.52283 0.28563 0.09818 0.0
C1743 C 0.52064 0.2672 0.12005 0.0
C1744 C 0.51488 0.2831 0.06694 0.0
C1745 C 0.50447 0.26217 0.05706 0.0
C1746 C 0.50175 0.24388 0.07903 0.0
C1747 C 0.50974 0.24639 0.11036 0.0
C1748 C 0.49689 0.25956 0.02353 0.0
C1749 C 0.51359 0.26249 -0.00067 0.0
C1750 C 0.47341 0.25486 0.01531 0.0
C1751 C 0.45497 0.25193 0.03982 0.0
C1752 C 0.44177 0.23127 0.04088 0.0
C1753 C 0.42454 0.22831 0.06416 0.0
C1754 C 0.42026 0.24597 0.08641 0.0
C1755 C 0.43314 0.26666 0.08534 0.0
C1756 C 0.45037 0.26972 0.06208 0.0
C1757 C 0.47815 0.24369 0.87083 0.0
C1758 C 0.46373 0.26207 0.86071 0.0
C1759 C 0.48433 0.24168 0.903 0.0
C1760 C 0.4759 0.25785 0.92537 0.0
C1761 C 0.46101 0.2758 0.91539 0.0
C1762 C 0.45512 0.27802 0.88328 0.0
C1763 C 0.48375 0.25725 0.95887 0.0
C1764 C 0.46715 0.25368 0.98299 0.0
C1765 C 0.50727 0.26156 0.96707 0.0
C1766 C 0.52538 0.26595 0.94249 0.0
C1767 C 0.52326 0.28483 0.92123 0.0
C1768 C 0.5401 0.28851 0.89761 0.0
C1769 C 0.55929 0.27356 0.89524 0.0
C1770 C 0.56171 0.25496 0.91658 0.0
C1771 C 0.54486 0.25117 0.94018 0.0
H1772 H 0.5723 0.27642 0.87692 0.0
H1773 H 0.40693 0.24364 0.10444 0.0
H1774 H 0.69455 0.47786 0.86798 0.0
H1775 H 0.69755 0.49352 0.92223 0.0
H1776 H 0.77227 0.49836 0.9122 0.0
H1777 H 0.76935 0.48333 0.85741 0.0
H1778 H 0.74959 0.46877 0.96739 0.0
H1779 H 0.75629 0.54685 0.92329 0.0
H1780 H 0.74532 0.57997 0.88877 0.0
H1781 H 0.67579 0.57868 0.92697 0.0
H1782 H 0.68651 0.54578 0.96212 0.0
H1783 H 0.76611 0.51757 0.12321 0.0
H1784 H 0.76877 0.50728 0.0666 0.0
H1785 H 0.69636 0.52582 0.05388 0.0
H1786 H 0.69378 0.53666 0.11011 0.0
H1787 H 0.72185 0.54499 0.0088 0.0
H1788 H 0.71491 0.46853 0.05478 0.0
H1789 H 0.72529 0.43615 0.09081 0.0
H1790 H 0.79348 0.43242 0.0486 0.0
H1791 H 0.78359 0.46501 0.01255 0.0
C1792 C 0.71156 0.48266 0.87714 0.0
C1793 C 0.73174 0.47926 0.85873 0.0
C1794 C 0.71323 0.49164 0.90801 0.0
C1795 C 0.73513 0.49694 0.92103 0.0
C1796 C 0.75525 0.49437 0.90235 0.0
C1797 C 0.75353 0.48587 0.87116 0.0
C1798 C 0.73688 0.50297 0.95513 0.0
C1799 C 0.74402 0.48558 0.97657 0.0
C1800 C 0.72891 0.5246 0.96682 0.0
C1801 C 0.72214 0.5438 0.94509 0.0
C1802 C 0.73864 0.55357 0.92417 0.0
C1803 C 0.73252 0.57241 0.90471 0.0
C1804 C 0.70987 0.58143 0.90568 0.0
C1805 C 0.69333 0.5717 0.92627 0.0
C1806 C 0.69945 0.55305 0.94609 0.0
C1807 C 0.75071 0.51917 0.10838 0.0
C1808 C 0.72976 0.52796 0.12097 0.0
C1809 C 0.75224 0.51327 0.07608 0.0
C1810 C 0.73274 0.51575 0.05604 0.0
C1811 C 0.71165 0.52391 0.06887 0.0
C1812 C 0.71018 0.53 0.10102 0.0
C1813 C 0.7344 0.51071 0.02144 0.0
C1814 C 0.72775 0.52823 -0.00016 0.0
C1815 C 0.74263 0.48906 0.00967 0.0
C1816 C 0.74859 0.46939 0.03121 0.0
C1817 C 0.73218 0.46094 0.05335 0.0
C1818 C 0.73797 0.44252 0.07375 0.0
C1819 C 0.76006 0.43228 0.07208 0.0
C1820 C 0.77639 0.44039 0.04991 0.0
C1821 C 0.77069 0.45883 0.02947 0.0
H1822 H 0.7645 0.41802 0.0879 0.0
H1823 H 0.70513 0.5959 0.89039 0.0
loop_
_geom_bond_atom_site_label_1
_geom_bond_atom_site_label_2
_geom_bond_distance
_geom_bond_site_symmetry_2
_ccdc_geom_bond_type
Co0 O1 2.216 . S
Co0 O2 2.091 . S
Co0 O4 2.004 . S
Co0 O10 2.021 . S
Co0 O12 2.137 . S
Co0 O13 2.244 . S
O1 Co0 2.216 . S
O1 C8 1.247 . S
O2 Co0 2.091 . S
O2 C8 1.261 . S
C3 O12 1.247 . S
C3 O13 1.272 . S
O4 Co0 2.004 . S
O4 C9 1.259 1_455 S
Co5 O6 2.060 . S
Co5 O11 2.052 . S
Co5 O13 2.135 . S
O6 Co5 2.060 . S
O6 C9 1.235 1_455 S
C7 O10 1.238 . S
C7 O11 1.241 . S
C8 O1 1.247 . S
C8 O2 1.261 . S
C9 O4 1.259 1_655 S
C9 O6 1.235 1_655 S
O10 Co0 2.021 . S
O10 C7 1.238 . S
O11 Co5 2.052 . S
O11 C7 1.241 . S
O12 Co0 2.137 . S
O12 C3 1.247 . S
O13 Co0 2.244 . S
O13 C3 1.272 . S
O13 Co5 2.135 . S
Co14 O15 2.216 . S
Co14 O16 2.091 . S
Co14 O18 2.004 . S
Co14 O24 2.021 . S
Co14 O26 2.137 . S
Co14 O27 2.244 . S
O15 Co14 2.216 . S
O15 C22 1.247 . S
O16 Co14 2.091 . S
O16 C22 1.261 . S
C17 O26 1.247 . S
C17 O27 1.272 . S
O18 Co14 2.004 . S
O18 C23 1.259 1_545 S
Co19 O20 2.060 . S
Co19 O25 2.052 . S
Co19 O27 2.135 . S
O20 Co19 2.060 . S
O20 C23 1.235 1_545 S
C21 O24 1.238 . S
C21 O25 1.241 . S
C22 O15 1.247 . S
C22 O16 1.261 . S
C23 O18 1.259 1_565 S
C23 O20 1.235 1_565 S
O24 Co14 2.021 . S
O24 C21 1.238 . S
O25 Co19 2.052 . S
O25 C21 1.241 . S
O26 Co14 2.137 . S
O26 C17 1.247 . S
O27 Co14 2.244 . S
O27 C17 1.272 . S
O27 Co19 2.135 . S
Co28 O29 2.216 . S
Co28 O30 2.091 . S
Co28 O32 2.004 . S
Co28 O38 2.021 . S
Co28 O40 2.137 . S
Co28 O41 2.244 . S
O29 Co28 2.216 . S
O29 C36 1.247 . S
O30 Co28 2.091 . S
O30 C36 1.261 . S
C31 O40 1.247 . S
C31 O41 1.272 . S
O32 Co28 2.004 . S
O32 C37 1.259 1_655 S
Co33 O34 2.060 . S
Co33 O39 2.052 . S
Co33 O41 2.135 . S
O34 Co33 2.060 . S
O34 C37 1.235 1_655 S
C35 O38 1.238 . S
C35 O39 1.241 . S
C36 O29 1.247 . S
C36 O30 1.261 . S
C37 O32 1.259 1_455 S
C37 O34 1.235 1_455 S
O38 Co28 2.021 . S
O38 C35 1.238 . S
O39 Co33 2.052 . S
O39 C35 1.241 . S
O40 Co28 2.137 . S
O40 C31 1.247 . S
O41 Co28 2.244 . S
O41 C31 1.272 . S
O41 Co33 2.135 . S
Co42 O43 2.216 . S
Co42 O44 2.091 . S
Co42 O46 2.004 . S
Co42 O52 2.021 . S
Co42 O54 2.137 . S
Co42 O55 2.244 . S
O43 Co42 2.216 . S
O43 C50 1.247 . S
O44 Co42 2.091 . S
O44 C50 1.261 . S
C45 O54 1.247 . S
C45 O55 1.272 . S
O46 Co42 2.004 . S
O46 C51 1.259 1_565 S
Co47 O48 2.060 . S
Co47 O53 2.052 . S
Co47 O55 2.135 . S
O48 Co47 2.060 . S
O48 C51 1.235 1_565 S
C49 O52 1.238 . S
C49 O53 1.241 . S
C50 O43 1.247 . S
C50 O44 1.261 . S
C51 O46 1.259 1_545 S
C51 O48 1.235 1_545 S
O52 Co42 2.021 . S
O52 C49 1.238 . S
O53 Co47 2.052 . S
O53 C49 1.241 . S
O54 Co42 2.137 . S
O54 C45 1.247 . S
O55 Co42 2.244 . S
O55 C45 1.272 . S
O55 Co47 2.135 . S
Co56 O57 2.216 . S
Co56 O58 2.091 . S
Co56 O60 2.004 . S
Co56 O66 2.021 . S
Co56 O68 2.137 . S
Co56 O69 2.244 . S
O57 Co56 2.216 . S
O57 C64 1.247 . S
O58 Co56 2.091 . S
O58 C64 1.261 . S
C59 O68 1.247 . S
C59 O69 1.272 . S
O60 Co56 2.004 . S
O60 C65 1.259 1_455 S
Co61 O62 2.060 . S
Co61 O67 2.052 . S
Co61 O69 2.135 . S
O62 Co61 2.060 . S
O62 C65 1.235 1_455 S
C63 O66 1.238 . S
C63 O67 1.241 . S
C64 O57 1.247 . S
C64 O58 1.261 . S
C65 O60 1.259 1_655 S
C65 O62 1.235 1_655 S
O66 Co56 2.021 . S
O66 C63 1.238 . S
O67 Co61 2.052 . S
O67 C63 1.241 . S
O68 Co56 2.137 . S
O68 C59 1.247 . S
O69 Co56 2.244 . S
O69 C59 1.272 . S
O69 Co61 2.135 . S
Co70 O71 2.216 . S
Co70 O72 2.091 . S
Co70 O74 2.004 . S
Co70 O80 2.021 . S
Co70 O82 2.137 . S
Co70 O83 2.244 . S
O71 Co70 2.216 . S
O71 C78 1.247 . S
O72 Co70 2.091 . S
O72 C78 1.261 . S
C73 O82 1.247 . S
C73 O83 1.272 . S
O74 Co70 2.004 . S
O74 C79 1.259 1_545 S
Co75 O76 2.060 . S
Co75 O81 2.052 . S
Co75 O83 2.135 . S
O76 Co75 2.060 . S
O76 C79 1.235 1_545 S
C77 O80 1.238 . S
C77 O81 1.241 . S
C78 O71 1.247 . S
C78 O72 1.261 . S
C79 O74 1.259 1_565 S
C79 O76 1.235 1_565 S
O80 Co70 2.021 . S
O80 C77 1.238 . S
O81 Co75 2.052 . S
O81 C77 1.241 . S
O82 Co70 2.137 . S
O82 C73 1.247 . S
O83 Co70 2.244 . S
O83 C73 1.272 . S
O83 Co75 2.135 . S
Co84 O85 2.216 . S
Co84 O86 2.091 . S
Co84 O88 2.004 . S
Co84 O94 2.021 . S
Co84 O96 2.137 . S
Co84 O97 2.244 . S
O85 Co84 2.216 . S
O85 C92 1.247 . S
O86 Co84 2.091 . S
O86 C92 1.261 . S
C87 O96 1.247 . S
C87 O97 1.272 . S
O88 Co84 2.004 . S
O88 C93 1.259 1_655 S
Co89 O90 2.060 . S
Co89 O95 2.052 . S
Co89 O97 2.135 . S
O90 Co89 2.060 . S
O90 C93 1.235 1_655 S
C91 O94 1.238 . S
C91 O95 1.241 . S
C92 O85 1.247 . S
C92 O86 1.261 . S
C93 O88 1.259 1_455 S
C93 O90 1.235 1_455 S
O94 Co84 2.021 . S
O94 C91 1.238 . S
O95 Co89 2.052 . S
O95 C91 1.241 . S
O96 Co84 2.137 . S
O96 C87 1.247 . S
O97 Co84 2.244 . S
O97 C87 1.272 . S
O97 Co89 2.135 . S
Co98 O99 2.216 . S
Co98 O100 2.091 . S
Co98 O102 2.004 . S
Co98 O108 2.021 . S
Co98 O110 2.137 . S
Co98 O111 2.244 . S
O99 Co98 2.216 . S
O99 C106 1.247 . S
O100 Co98 2.091 . S
O100 C106 1.261 . S
C101 O110 1.247 . S
C101 O111 1.272 . S
O102 Co98 2.004 . S
O102 C107 1.259 1_565 S
Co103 O104 2.060 . S
Co103 O109 2.052 . S
Co103 O111 2.135 . S
O104 Co103 2.060 . S
O104 C107 1.235 1_565 S
C105 O108 1.238 . S
C105 O109 1.241 . S
C106 O99 1.247 . S
C106 O100 1.261 . S
C107 O102 1.259 1_545 S
C107 O104 1.235 1_545 S
O108 Co98 2.021 . S
O108 C105 1.238 . S
O109 Co103 2.052 . S
O109 C105 1.241 . S
O110 Co98 2.137 . S
O110 C101 1.247 . S
O111 Co98 2.244 . S
O111 C101 1.272 . S
O111 Co103 2.135 . S
Co112 O113 2.216 . S
Co112 O114 2.091 . S
Co112 O116 2.004 . S
Co112 O122 2.021 . S
Co112 O124 2.137 . S
Co112 O125 2.244 . S
O113 Co112 2.216 . S
O113 C120 1.247 . S
O114 Co112 2.091 . S
O114 C120 1.261 . S
C115 O124 1.247 . S
C115 O125 1.272 . S
O116 Co112 2.004 . S
O116 C121 1.259 . S
Co117 O118 2.061 . S
Co117 O123 2.052 . S
Co117 O125 2.135 . S
O118 Co117 2.061 . S
O118 C121 1.235 . S
C119 O122 1.238 . S
C119 O123 1.241 . S
C120 O113 1.247 . S
C120 O114 1.261 . S
C121 O116 1.259 . S
C121 O118 1.235 . S
O122 Co112 2.021 . S
O122 C119 1.238 . S
O123 Co117 2.052 . S
O123 C119 1.241 . S
O124 Co112 2.137 . S
O124 C115 1.247 . S
O125 Co112 2.244 . S
O125 C115 1.272 . S
O125 Co117 2.135 . S
Co126 O127 2.216 . S
Co126 O128 2.091 . S
Co126 O130 2.004 . S
Co126 O136 2.021 . S
Co126 O138 2.137 . S
Co126 O139 2.244 . S
O127 Co126 2.216 . S
O127 C134 1.247 . S
O128 Co126 2.091 . S
O128 C134 1.261 . S
C129 O138 1.247 . S
C129 O139 1.272 . S
O130 Co126 2.004 . S
O130 C135 1.259 . S
Co131 O132 2.061 . S
Co131 O137 2.052 . S
Co131 O139 2.135 . S
O132 Co131 2.061 . S
O132 C135 1.235 . S
C133 O136 1.238 . S
C133 O137 1.241 . S
C134 O127 1.247 . S
C134 O128 1.261 . S
C135 O130 1.259 . S
C135 O132 1.235 . S
O136 Co126 2.021 . S
O136 C133 1.238 . S
O137 Co131 2.052 . S
O137 C133 1.241 . S
O138 Co126 2.137 . S
O138 C129 1.247 . S
O139 Co126 2.244 . S
O139 C129 1.272 . S
O139 Co131 2.135 . S
Co140 O141 2.216 . S
Co140 O142 2.091 . S
Co140 O144 2.004 . S
Co140 O150 2.021 . S
Co140 O152 2.137 . S
Co140 O153 2.244 . S
O141 Co140 2.216 . S
O141 C148 1.247 . S
O142 Co140 2.091 . S
O142 C148 1.261 . S
C143 O152 1.247 . S
C143 O153 1.272 . S
O144 Co140 2.004 . S
O144 C149 1.259 . S
Co145 O146 2.061 . S
Co145 O151 2.052 . S
Co145 O153 2.135 . S
O146 Co145 2.061 . S
O146 C149 1.235 . S
C147 O150 1.238 . S
C147 O151 1.241 . S
C148 O141 1.247 . S
C148 O142 1.261 . S
C149 O144 1.259 . S
C149 O146 1.235 . S
O150 Co140 2.021 . S
O150 C147 1.238 . S
O151 Co145 2.052 . S
O151 C147 1.241 . S
O152 Co140 2.137 . S
O152 C143 1.247 . S
O153 Co140 2.244 . S
O153 C143 1.272 . S
O153 Co145 2.135 . S
Co154 O155 2.216 . S
Co154 O156 2.091 . S
Co154 O158 2.004 . S
Co154 O164 2.021 . S
Co154 O166 2.137 . S
Co154 O167 2.244 . S
O155 Co154 2.216 . S
O155 C162 1.247 . S
O156 Co154 2.091 . S
O156 C162 1.261 . S
C157 O166 1.247 . S
C157 O167 1.272 . S
O158 Co154 2.004 . S
O158 C163 1.259 . S
Co159 O160 2.061 . S
Co159 O165 2.052 . S
Co159 O167 2.135 . S
O160 Co159 2.061 . S
O160 C163 1.235 . S
C161 O164 1.238 . S
C161 O165 1.241 . S
C162 O155 1.247 . S
C162 O156 1.261 . S
C163 O158 1.259 . S
C163 O160 1.235 . S
O164 Co154 2.021 . S
O164 C161 1.238 . S
O165 Co159 2.052 . S
O165 C161 1.241 . S
O166 Co154 2.137 . S
O166 C157 1.247 . S
O167 Co154 2.244 . S
O167 C157 1.272 . S
O167 Co159 2.135 . S
Co168 O169 2.216 . S
Co168 O170 2.091 . S
Co168 O172 2.004 . S
Co168 O178 2.021 . S
Co168 O180 2.137 . S
Co168 O181 2.244 . S
O169 Co168 2.216 . S
O169 C176 1.247 . S
O170 Co168 2.091 . S
O170 C176 1.261 . S
C171 O180 1.247 . S
C171 O181 1.272 . S
O172 Co168 2.004 . S
O172 C177 1.259 . S
Co173 O174 2.061 . S
Co173 O179 2.052 . S
Co173 O181 2.135 . S
O174 Co173 2.061 . S
O174 C177 1.235 . S
C175 O178 1.238 . S
C175 O179 1.241 . S
C176 O169 1.247 . S
C176 O170 1.261 . S
C177 O172 1.259 . S
C177 O174 1.235 . S
O178 Co168 2.021 . S
O178 C175 1.238 . S
O179 Co173 2.052 . S
O179 C175 1.241 . S
O180 Co168 2.137 . S
O180 C171 1.247 . S
O181 Co168 2.244 . S
O181 C171 1.272 . S
O181 Co173 2.135 . S
Co182 O183 2.216 . S
Co182 O184 2.091 . S
Co182 O186 2.004 . S
Co182 O192 2.021 . S
Co182 O194 2.137 . S
Co182 O195 2.244 . S
O183 Co182 2.216 . S
O183 C190 1.247 . S
O184 Co182 2.091 . S
O184 C190 1.261 . S
C185 O194 1.247 . S
C185 O195 1.272 . S
O186 Co182 2.004 . S
O186 C191 1.259 . S
Co187 O188 2.061 . S
Co187 O193 2.052 . S
Co187 O195 2.135 . S
O188 Co187 2.061 . S
O188 C191 1.235 . S
C189 O192 1.238 . S
C189 O193 1.241 . S
C190 O183 1.247 . S
C190 O184 1.261 . S
C191 O186 1.259 . S
C191 O188 1.235 . S
O192 Co182 2.021 . S
O192 C189 1.238 . S
O193 Co187 2.052 . S
O193 C189 1.241 . S
O194 Co182 2.137 . S
O194 C185 1.247 . S
O195 Co182 2.244 . S
O195 C185 1.272 . S
O195 Co187 2.135 . S
Co196 O197 2.216 . S
Co196 O198 2.091 . S
Co196 O200 2.004 . S
Co196 O206 2.021 . S
Co196 O208 2.137 . S
Co196 O209 2.244 . S
O197 Co196 2.216 . S
O197 C204 1.247 . S
O198 Co196 2.091 . S
O198 C204 1.261 . S
C199 O208 1.247 . S
C199 O209 1.272 . S
O200 Co196 2.004 . S
O200 C205 1.259 . S
Co201 O202 2.061 . S
Co201 O207 2.052 . S
Co201 O209 2.135 . S
O202 Co201 2.061 . S
O202 C205 1.235 . S
C203 O206 1.238 . S
C203 O207 1.241 . S
C204 O197 1.247 . S
C204 O198 1.261 . S
C205 O200 1.259 . S
C205 O202 1.235 . S
O206 Co196 2.021 . S
O206 C203 1.238 . S
O207 Co201 2.052 . S
O207 C203 1.241 . S
O208 Co196 2.137 . S
O208 C199 1.247 . S
O209 Co196 2.244 . S
O209 C199 1.272 . S
O209 Co201 2.135 . S
Co210 O211 2.216 . S
Co210 O212 2.091 . S
Co210 O214 2.004 . S
Co210 O220 2.021 . S
Co210 O222 2.137 . S
Co210 O223 2.244 . S
O211 Co210 2.216 . S
O211 C218 1.247 . S
O212 Co210 2.091 . S
O212 C218 1.261 . S
C213 O222 1.247 . S
C213 O223 1.272 . S
O214 Co210 2.004 . S
O214 C219 1.259 . S
Co215 O216 2.061 . S
Co215 O221 2.052 . S
Co215 O223 2.135 . S
O216 Co215 2.061 . S
O216 C219 1.235 . S
C217 O220 1.238 . S
C217 O221 1.241 . S
C218 O211 1.247 . S
C218 O212 1.261 . S
C219 O214 1.259 . S
C219 O216 1.235 . S
O220 Co210 2.021 . S
O220 C217 1.238 . S
O221 Co215 2.052 . S
O221 C217 1.241 . S
O222 Co210 2.137 . S
O222 C213 1.247 . S
O223 Co210 2.244 . S
O223 C213 1.272 . S
O223 Co215 2.135 . S
H224 C242 0.951 . S
H225 C244 0.951 . S
H226 C246 0.950 . S
H227 C247 0.950 . S
H228 C249 0.950 . S
H229 C252 0.950 . S
H230 C253 0.950 . S
H231 C255 0.950 . S
H232 C256 0.950 . S
H233 C257 0.951 . S
H234 C259 0.951 . S
H235 C261 0.950 . S
H236 C262 0.950 . S
H237 C264 0.950 . S
H238 C267 0.950 . S
H239 C268 0.950 . S
H240 C270 0.950 . S
H241 C271 0.950 . S
C242 H224 0.951 . S
C242 C243 1.366 . S
C242 C244 1.388 . S
C243 C242 1.366 . S
C243 C247 1.385 . S
C244 H225 0.951 . S
C244 C242 1.388 . S
C244 C245 1.366 . S
C245 C244 1.366 . S
C245 C246 1.414 . S
C245 C248 1.499 . S
C246 H226 0.950 . S
C246 C245 1.414 . S
C246 C247 1.374 . S
C247 H227 0.950 . S
C247 C243 1.385 . S
C247 C246 1.374 . S
C248 C245 1.499 . S
C248 C249 1.373 . S
C248 C250 1.389 . S
C249 H228 0.950 . S
C249 C248 1.373 . S
C249 C265 1.377 . S
C250 C248 1.389 . S
C250 C251 1.524 . S
C250 C264 1.377 . S
C251 C250 1.524 . S
C251 C252 1.397 . S
C251 C256 1.363 . S
C252 H229 0.950 . S
C252 C251 1.397 . S
C252 C253 1.334 . S
C253 H230 0.950 . S
C253 C252 1.334 . S
C253 C254 1.287 . S
C254 C253 1.287 . S
C254 C255 1.524 . S
C254 H273 0.913 . S
C255 H231 0.950 . S
C255 C254 1.524 . S
C255 C256 1.415 . S
C256 H232 0.950 . S
C256 C251 1.363 . S
C256 C255 1.415 . S
C257 H233 0.951 . S
C257 C258 1.366 . S
C257 C259 1.388 . S
C258 C257 1.366 . S
C258 C262 1.385 . S
C259 H234 0.951 . S
C259 C257 1.388 . S
C259 C260 1.366 . S
C260 C259 1.366 . S
C260 C261 1.414 . S
C260 C263 1.499 . S
C261 H235 0.950 . S
C261 C260 1.414 . S
C261 C262 1.374 . S
C262 H236 0.950 . S
C262 C258 1.385 . S
C262 C261 1.374 . S
C263 C260 1.499 . S
C263 C264 1.373 . S
C263 C265 1.389 . S
C264 H237 0.950 . S
C264 C250 1.377 . S
C264 C263 1.373 . S
C265 C249 1.377 . S
C265 C263 1.389 . S
C265 C266 1.524 . S
C266 C265 1.524 . S
C266 C267 1.397 . S
C266 C271 1.363 . S
C267 H238 0.950 . S
C267 C266 1.397 . S
C267 C268 1.334 . S
C268 H239 0.950 . S
C268 C267 1.334 . S
C268 C269 1.287 . S
C269 C268 1.287 . S
C269 C270 1.524 . S
C269 H272 0.999 . S
C270 H240 0.950 . S
C270 C269 1.524 . S
C270 C271 1.415 . S
C271 H241 0.950 . S
C271 C266 1.363 . S
C271 C270 1.415 . S
H272 C269 0.999 . S
H273 C254 0.913 . S
H274 C292 0.951 . S
H275 C294 0.951 . S
H276 C296 0.950 . S
H277 C297 0.950 . S
H278 C299 0.950 . S
H279 C302 0.950 . S
H280 C303 0.950 . S
H281 C305 0.950 . S
H282 C306 0.950 . S
H283 C307 0.951 . S
H284 C309 0.951 . S
H285 C311 0.950 . S
H286 C312 0.950 . S
H287 C314 0.950 . S
H288 C317 0.950 . S
H289 C318 0.950 . S
H290 C320 0.950 . S
H291 C321 0.950 . S
C292 H274 0.951 . S
C292 C293 1.366 . S
C292 C294 1.388 . S
C293 C292 1.366 . S
C293 C297 1.385 . S
C294 H275 0.951 . S
C294 C292 1.388 . S
C294 C295 1.366 . S
C295 C294 1.366 . S
C295 C296 1.414 . S
C295 C298 1.499 . S
C296 H276 0.950 . S
C296 C295 1.414 . S
C296 C297 1.374 . S
C297 H277 0.950 . S
C297 C293 1.385 . S
C297 C296 1.374 . S
C298 C295 1.499 . S
C298 C299 1.373 . S
C298 C300 1.389 . S
C299 H278 0.950 . S
C299 C298 1.373 . S
C299 C315 1.377 . S
C300 C298 1.389 . S
C300 C301 1.524 . S
C300 C314 1.377 . S
C301 C300 1.524 . S
C301 C302 1.397 . S
C301 C306 1.363 . S
C302 H279 0.950 . S
C302 C301 1.397 . S
C302 C303 1.334 . S
C303 H280 0.950 . S
C303 C302 1.334 . S
C303 C304 1.287 . S
C304 C303 1.287 . S
C304 C305 1.524 . S
C304 H323 0.913 . S
C305 H281 0.950 . S
C305 C304 1.524 . S
C305 C306 1.415 . S
C306 H282 0.950 . S
C306 C301 1.363 . S
C306 C305 1.415 . S
C307 H283 0.951 . S
C307 C308 1.366 . S
C307 C309 1.388 . S
C308 C307 1.366 . S
C308 C312 1.385 . S
C309 H284 0.951 . S
C309 C307 1.388 . S
C309 C310 1.366 . S
C310 C309 1.366 . S
C310 C311 1.414 . S
C310 C313 1.499 . S
C311 H285 0.950 . S
C311 C310 1.414 . S
C311 C312 1.374 . S
C312 H286 0.950 . S
C312 C308 1.385 . S
C312 C311 1.374 . S
C313 C310 1.499 . S
C313 C314 1.373 . S
C313 C315 1.389 . S
C314 H287 0.950 . S
C314 C300 1.377 . S
C314 C313 1.373 . S
C315 C299 1.377 . S
C315 C313 1.389 . S
C315 C316 1.524 . S
C316 C315 1.524 . S
C316 C317 1.397 . S
C316 C321 1.363 . S
C317 H288 0.950 . S
C317 C316 1.397 . S
C317 C318 1.334 . S
C318 H289 0.950 . S
C318 C317 1.334 . S
C318 C319 1.287 . S
C319 C318 1.287 . S
C319 C320 1.524 . S
C319 H322 0.999 . S
C320 H290 0.950 . S
C320 C319 1.524 . S
C320 C321 1.415 . S
C321 H291 0.950 . S
C321 C316 1.363 . S
C321 C320 1.415 . S
H322 C319 0.999 . S
H323 C304 0.913 . S
H324 C342 0.951 . S
H325 C344 0.951 . S
H326 C346 0.950 . S
H327 C347 0.950 . S
H328 C349 0.950 . S
H329 C352 0.950 . S
H330 C353 0.950 . S
H331 C355 0.950 . S
H332 C356 0.950 . S
H333 C357 0.951 . S
H334 C359 0.951 . S
H335 C361 0.950 . S
H336 C362 0.950 . S
H337 C364 0.950 . S
H338 C367 0.950 . S
H339 C368 0.950 . S
H340 C370 0.950 . S
H341 C371 0.950 . S
C342 H324 0.951 . S
C342 C343 1.366 . S
C342 C344 1.388 . S
C343 C342 1.366 . S
C343 C347 1.385 . S
C344 H325 0.951 . S
C344 C342 1.388 . S
C344 C345 1.366 . S
C345 C344 1.366 . S
C345 C346 1.414 . S
C345 C348 1.499 . S
C346 H326 0.950 . S
C346 C345 1.414 . S
C346 C347 1.374 . S
C347 H327 0.950 . S
C347 C343 1.385 . S
C347 C346 1.374 . S
C348 C345 1.499 . S
C348 C349 1.373 . S
C348 C350 1.389 . S
C349 H328 0.950 . S
C349 C348 1.373 . S
C349 C365 1.377 . S
C350 C348 1.389 . S
C350 C351 1.524 . S
C350 C364 1.377 . S
C351 C350 1.524 . S
C351 C352 1.397 . S
C351 C356 1.363 . S
C352 H329 0.950 . S
C352 C351 1.397 . S
C352 C353 1.334 . S
C353 H330 0.950 . S
C353 C352 1.334 . S
C353 C354 1.287 . S
C354 C353 1.287 . S
C354 C355 1.524 . S
C354 H373 0.913 . S
C355 H331 0.950 . S
C355 C354 1.524 . S
C355 C356 1.415 . S
C356 H332 0.950 . S
C356 C351 1.363 . S
C356 C355 1.415 . S
C357 H333 0.951 . S
C357 C358 1.366 . S
C357 C359 1.388 . S
C358 C357 1.366 . S
C358 C362 1.385 . S
C359 H334 0.951 . S
C359 C357 1.388 . S
C359 C360 1.366 . S
C360 C359 1.366 . S
C360 C361 1.414 . S
C360 C363 1.499 . S
C361 H335 0.950 . S
C361 C360 1.414 . S
C361 C362 1.374 . S
C362 H336 0.950 . S
C362 C358 1.385 . S
C362 C361 1.374 . S
C363 C360 1.499 . S
C363 C364 1.373 . S
C363 C365 1.389 . S
C364 H337 0.950 . S
C364 C350 1.377 . S
C364 C363 1.373 . S
C365 C349 1.377 . S
C365 C363 1.389 . S
C365 C366 1.524 . S
C366 C365 1.524 . S
C366 C367 1.397 . S
C366 C371 1.363 . S
C367 H338 0.950 . S
C367 C366 1.397 . S
C367 C368 1.334 . S
C368 H339 0.950 . S
C368 C367 1.334 . S
C368 C369 1.287 . S
C369 C368 1.287 . S
C369 C370 1.524 . S
C369 H372 0.999 . S
C370 H340 0.950 . S
C370 C369 1.524 . S
C370 C371 1.415 . S
C371 H341 0.950 . S
C371 C366 1.363 . S
C371 C370 1.415 . S
H372 C369 0.999 . S
H373 C354 0.913 . S
H374 C392 0.951 . S
H375 C394 0.951 . S
H376 C396 0.950 . S
H377 C397 0.950 . S
H378 C399 0.950 . S
H379 C402 0.950 . S
H380 C403 0.950 . S
H381 C405 0.950 . S
H382 C406 0.950 . S
H383 C407 0.951 . S
H384 C409 0.951 . S
H385 C411 0.950 . S
H386 C412 0.950 . S
H387 C414 0.950 . S
H388 C417 0.950 . S
H389 C418 0.950 . S
H390 C420 0.950 . S
H391 C421 0.950 . S
C392 H374 0.951 . S
C392 C393 1.366 . S
C392 C394 1.388 . S
C393 C392 1.366 . S
C393 C397 1.385 . S
C394 H375 0.951 . S
C394 C392 1.388 . S
C394 C395 1.366 . S
C395 C394 1.366 . S
C395 C396 1.414 . S
C395 C398 1.499 . S
C396 H376 0.950 . S
C396 C395 1.414 . S
C396 C397 1.374 . S
C397 H377 0.950 . S
C397 C393 1.385 . S
C397 C396 1.374 . S
C398 C395 1.499 . S
C398 C399 1.373 . S
C398 C400 1.389 . S
C399 H378 0.950 . S
C399 C398 1.373 . S
C399 C415 1.377 . S
C400 C398 1.389 . S
C400 C401 1.524 . S
C400 C414 1.377 . S
C401 C400 1.524 . S
C401 C402 1.397 . S
C401 C406 1.363 . S
C402 H379 0.950 . S
C402 C401 1.397 . S
C402 C403 1.334 . S
C403 H380 0.950 . S
C403 C402 1.334 . S
C403 C404 1.287 . S
C404 C403 1.287 . S
C404 C405 1.524 . S
C404 H423 0.913 . S
C405 H381 0.950 . S
C405 C404 1.524 . S
C405 C406 1.415 . S
C406 H382 0.950 . S
C406 C401 1.363 . S
C406 C405 1.415 . S
C407 H383 0.951 . S
C407 C408 1.366 . S
C407 C409 1.388 . S
C408 C407 1.366 . S
C408 C412 1.385 . S
C409 H384 0.951 . S
C409 C407 1.388 . S
C409 C410 1.366 . S
C410 C409 1.366 . S
C410 C411 1.414 . S
C410 C413 1.499 . S
C411 H385 0.950 . S
C411 C410 1.414 . S
C411 C412 1.374 . S
C412 H386 0.950 . S
C412 C408 1.385 . S
C412 C411 1.374 . S
C413 C410 1.499 . S
C413 C414 1.373 . S
C413 C415 1.389 . S
C414 H387 0.950 . S
C414 C400 1.377 . S
C414 C413 1.373 . S
C415 C399 1.377 . S
C415 C413 1.389 . S
C415 C416 1.524 . S
C416 C415 1.524 . S
C416 C417 1.397 . S
C416 C421 1.363 . S
C417 H388 0.950 . S
C417 C416 1.397 . S
C417 C418 1.334 . S
C418 H389 0.950 . S
C418 C417 1.334 . S
C418 C419 1.287 . S
C419 C418 1.287 . S
C419 C420 1.524 . S
C419 H422 0.999 . S
C420 H390 0.950 . S
C420 C419 1.524 . S
C420 C421 1.415 . S
C421 H391 0.950 . S
C421 C416 1.363 . S
C421 C420 1.415 . S
H422 C419 0.999 . S
H423 C404 0.913 . S
H424 C442 0.951 . S
H425 C444 0.951 . S
H426 C446 0.950 . S
H427 C447 0.950 . S
H428 C449 0.950 . S
H429 C452 0.950 . S
H430 C453 0.950 . S
H431 C455 0.950 . S
H432 C456 0.950 . S
H433 C457 0.951 . S
H434 C459 0.951 . S
H435 C461 0.950 . S
H436 C462 0.950 . S
H437 C464 0.950 . S
H438 C467 0.950 . S
H439 C468 0.950 . S
H440 C470 0.950 . S
H441 C471 0.950 . S
C442 H424 0.951 . S
C442 C443 1.366 . S
C442 C444 1.388 . S
C443 C442 1.366 . S
C443 C447 1.385 . S
C444 H425 0.951 . S
C444 C442 1.388 . S
C444 C445 1.366 . S
C445 C444 1.366 . S
C445 C446 1.414 . S
C445 C448 1.499 . S
C446 H426 0.950 . S
C446 C445 1.414 . S
C446 C447 1.374 . S
C447 H427 0.950 . S
C447 C443 1.385 . S
C447 C446 1.374 . S
C448 C445 1.499 . S
C448 C449 1.373 . S
C448 C450 1.389 . S
C449 H428 0.950 . S
C449 C448 1.373 . S
C449 C465 1.377 . S
C450 C448 1.389 . S
C450 C451 1.524 . S
C450 C464 1.377 . S
C451 C450 1.524 . S
C451 C452 1.397 . S
C451 C456 1.363 . S
C452 H429 0.950 . S
C452 C451 1.397 . S
C452 C453 1.334 . S
C453 H430 0.950 . S
C453 C452 1.334 . S
C453 C454 1.287 . S
C454 C453 1.287 . S
C454 C455 1.524 . S
C454 H473 0.913 . S
C455 H431 0.950 . S
C455 C454 1.524 . S
C455 C456 1.415 . S
C456 H432 0.950 . S
C456 C451 1.363 . S
C456 C455 1.415 . S
C457 H433 0.951 . S
C457 C458 1.366 . S
C457 C459 1.388 . S
C458 C457 1.366 . S
C458 C462 1.385 . S
C459 H434 0.951 . S
C459 C457 1.388 . S
C459 C460 1.366 . S
C460 C459 1.366 . S
C460 C461 1.414 . S
C460 C463 1.499 . S
C461 H435 0.950 . S
C461 C460 1.414 . S
C461 C462 1.374 . S
C462 H436 0.950 . S
C462 C458 1.385 . S
C462 C461 1.374 . S
C463 C460 1.499 . S
C463 C464 1.373 . S
C463 C465 1.389 . S
C464 H437 0.950 . S
C464 C450 1.377 . S
C464 C463 1.373 . S
C465 C449 1.377 . S
C465 C463 1.389 . S
C465 C466 1.524 . S
C466 C465 1.524 . S
C466 C467 1.397 . S
C466 C471 1.363 . S
C467 H438 0.950 . S
C467 C466 1.397 . S
C467 C468 1.334 . S
C468 H439 0.950 . S
C468 C467 1.334 . S
C468 C469 1.287 . S
C469 C468 1.287 . S
C469 C470 1.524 . S
C469 H472 0.999 . S
C470 H440 0.950 . S
C470 C469 1.524 . S
C470 C471 1.415 . S
C471 H441 0.950 . S
C471 C466 1.363 . S
C471 C470 1.415 . S
H472 C469 0.999 . S
H473 C454 0.913 . S
H474 C492 0.951 . S
H475 C494 0.951 . S
H476 C496 0.950 . S
H477 C497 0.950 . S
H478 C499 0.950 . S
H479 C502 0.950 . S
H480 C503 0.950 . S
H481 C505 0.950 . S
H482 C506 0.950 . S
H483 C507 0.951 . S
H484 C509 0.951 . S
H485 C511 0.950 . S
H486 C512 0.950 . S
H487 C514 0.950 . S
H488 C517 0.950 . S
H489 C518 0.950 . S
H490 C520 0.950 . S
H491 C521 0.950 . S
C492 H474 0.951 . S
C492 C493 1.366 . S
C492 C494 1.388 . S
C493 C492 1.366 . S
C493 C497 1.385 . S
C494 H475 0.951 . S
C494 C492 1.388 . S
C494 C495 1.366 . S
C495 C494 1.366 . S
C495 C496 1.414 . S
C495 C498 1.499 . S
C496 H476 0.950 . S
C496 C495 1.414 . S
C496 C497 1.374 . S
C497 H477 0.950 . S
C497 C493 1.385 . S
C497 C496 1.374 . S
C498 C495 1.499 . S
C498 C499 1.373 . S
C498 C500 1.389 . S
C499 H478 0.950 . S
C499 C498 1.373 . S
C499 C515 1.377 . S
C500 C498 1.389 . S
C500 C501 1.524 . S
C500 C514 1.377 . S
C501 C500 1.524 . S
C501 C502 1.397 . S
C501 C506 1.363 . S
C502 H479 0.950 . S
C502 C501 1.397 . S
C502 C503 1.334 . S
C503 H480 0.950 . S
C503 C502 1.334 . S
C503 C504 1.287 . S
C504 C503 1.287 . S
C504 C505 1.524 . S
C504 H523 0.913 . S
C505 H481 0.950 . S
C505 C504 1.524 . S
C505 C506 1.415 . S
C506 H482 0.950 . S
C506 C501 1.363 . S
C506 C505 1.415 . S
C507 H483 0.951 . S
C507 C508 1.366 . S
C507 C509 1.388 . S
C508 C507 1.366 . S
C508 C512 1.385 . S
C509 H484 0.951 . S
C509 C507 1.388 . S
C509 C510 1.366 . S
C510 C509 1.366 . S
C510 C511 1.414 . S
C510 C513 1.499 . S
C511 H485 0.950 . S
C511 C510 1.414 . S
C511 C512 1.374 . S
C512 H486 0.950 . S
C512 C508 1.385 . S
C512 C511 1.374 . S
C513 C510 1.499 . S
C513 C514 1.373 . S
C513 C515 1.389 . S
C514 H487 0.950 . S
C514 C500 1.377 . S
C514 C513 1.373 . S
C515 C499 1.377 . S
C515 C513 1.389 . S
C515 C516 1.524 . S
C516 C515 1.524 . S
C516 C517 1.397 . S
C516 C521 1.363 . S
C517 H488 0.950 . S
C517 C516 1.397 . S
C517 C518 1.334 . S
C518 H489 0.950 . S
C518 C517 1.334 . S
C518 C519 1.287 . S
C519 C518 1.287 . S
C519 C520 1.524 . S
C519 H522 0.999 . S
C520 H490 0.950 . S
C520 C519 1.524 . S
C520 C521 1.415 . S
C521 H491 0.950 . S
C521 C516 1.363 . S
C521 C520 1.415 . S
H522 C519 0.999 . S
H523 C504 0.913 . S
H524 C542 0.951 . S
H525 C544 0.951 . S
H526 C546 0.950 . S
H527 C547 0.950 . S
H528 C549 0.950 . S
H529 C552 0.950 . S
H530 C553 0.950 . S
H531 C555 0.950 . S
H532 C556 0.950 . S
H533 C557 0.951 . S
H534 C559 0.951 . S
H535 C561 0.950 . S
H536 C562 0.950 . S
H537 C564 0.950 . S
H538 C567 0.950 . S
H539 C568 0.950 . S
H540 C570 0.950 . S
H541 C571 0.950 . S
C542 H524 0.951 . S
C542 C543 1.366 . S
C542 C544 1.388 . S
C543 C542 1.366 . S
C543 C547 1.385 . S
C544 H525 0.951 . S
C544 C542 1.388 . S
C544 C545 1.366 . S
C545 C544 1.366 . S
C545 C546 1.414 . S
C545 C548 1.499 . S
C546 H526 0.950 . S
C546 C545 1.414 . S
C546 C547 1.374 . S
C547 H527 0.950 . S
C547 C543 1.385 . S
C547 C546 1.374 . S
C548 C545 1.499 . S
C548 C549 1.373 . S
C548 C550 1.389 . S
C549 H528 0.950 . S
C549 C548 1.373 . S
C549 C565 1.377 . S
C550 C548 1.389 . S
C550 C551 1.524 . S
C550 C564 1.377 . S
C551 C550 1.524 . S
C551 C552 1.397 . S
C551 C556 1.363 . S
C552 H529 0.950 . S
C552 C551 1.397 . S
C552 C553 1.334 . S
C553 H530 0.950 . S
C553 C552 1.334 . S
C553 C554 1.287 . S
C554 C553 1.287 . S
C554 C555 1.524 . S
C554 H573 0.913 . S
C555 H531 0.950 . S
C555 C554 1.524 . S
C555 C556 1.415 . S
C556 H532 0.950 . S
C556 C551 1.363 . S
C556 C555 1.415 . S
C557 H533 0.951 . S
C557 C558 1.366 . S
C557 C559 1.388 . S
C558 C557 1.366 . S
C558 C562 1.385 . S
C559 H534 0.951 . S
C559 C557 1.388 . S
C559 C560 1.366 . S
C560 C559 1.366 . S
C560 C561 1.414 . S
C560 C563 1.499 . S
C561 H535 0.950 . S
C561 C560 1.414 . S
C561 C562 1.374 . S
C562 H536 0.950 . S
C562 C558 1.385 . S
C562 C561 1.374 . S
C563 C560 1.499 . S
C563 C564 1.373 . S
C563 C565 1.389 . S
C564 H537 0.950 . S
C564 C550 1.377 . S
C564 C563 1.373 . S
C565 C549 1.377 . S
C565 C563 1.389 . S
C565 C566 1.524 . S
C566 C565 1.524 . S
C566 C567 1.397 . S
C566 C571 1.363 . S
C567 H538 0.950 . S
C567 C566 1.397 . S
C567 C568 1.334 . S
C568 H539 0.950 . S
C568 C567 1.334 . S
C568 C569 1.287 . S
C569 C568 1.287 . S
C569 C570 1.524 . S
C569 H572 0.999 . S
C570 H540 0.950 . S
C570 C569 1.524 . S
C570 C571 1.415 . S
C571 H541 0.950 . S
C571 C566 1.363 . S
C571 C570 1.415 . S
H572 C569 0.999 . S
H573 C554 0.913 . S
H574 C592 0.951 . S
H575 C594 0.951 . S
H576 C596 0.950 . S
H577 C597 0.950 . S
H578 C599 0.950 . S
H579 C602 0.950 . S
H580 C603 0.950 . S
H581 C605 0.950 . S
H582 C606 0.950 . S
H583 C607 0.951 . S
H584 C609 0.951 . S
H585 C611 0.950 . S
H586 C612 0.950 . S
H587 C614 0.950 . S
H588 C617 0.950 . S
H589 C618 0.950 . S
H590 C620 0.950 . S
H591 C621 0.950 . S
C592 H574 0.951 . S
C592 C593 1.366 . S
C592 C594 1.388 . S
C593 C592 1.366 . S
C593 C597 1.385 . S
C594 H575 0.951 . S
C594 C592 1.388 . S
C594 C595 1.366 . S
C595 C594 1.366 . S
C595 C596 1.414 . S
C595 C598 1.499 . S
C596 H576 0.950 . S
C596 C595 1.414 . S
C596 C597 1.374 . S
C597 H577 0.950 . S
C597 C593 1.385 . S
C597 C596 1.374 . S
C598 C595 1.499 . S
C598 C599 1.373 . S
C598 C600 1.389 . S
C599 H578 0.950 . S
C599 C598 1.373 . S
C599 C615 1.377 . S
C600 C598 1.389 . S
C600 C601 1.524 . S
C600 C614 1.377 . S
C601 C600 1.524 . S
C601 C602 1.397 . S
C601 C606 1.363 . S
C602 H579 0.950 . S
C602 C601 1.397 . S
C602 C603 1.334 . S
C603 H580 0.950 . S
C603 C602 1.334 . S
C603 C604 1.287 . S
C604 C603 1.287 . S
C604 C605 1.524 . S
C604 H623 0.913 . S
C605 H581 0.950 . S
C605 C604 1.524 . S
C605 C606 1.415 . S
C606 H582 0.950 . S
C606 C601 1.363 . S
C606 C605 1.415 . S
C607 H583 0.951 . S
C607 C608 1.366 . S
C607 C609 1.388 . S
C608 C607 1.366 . S
C608 C612 1.385 . S
C609 H584 0.951 . S
C609 C607 1.388 . S
C609 C610 1.366 . S
C610 C609 1.366 . S
C610 C611 1.414 . S
C610 C613 1.499 . S
C611 H585 0.950 . S
C611 C610 1.414 . S
C611 C612 1.374 . S
C612 H586 0.950 . S
C612 C608 1.385 . S
C612 C611 1.374 . S
C613 C610 1.499 . S
C613 C614 1.373 . S
C613 C615 1.389 . S
C614 H587 0.950 . S
C614 C600 1.377 . S
C614 C613 1.373 . S
C615 C599 1.377 . S
C615 C613 1.389 . S
C615 C616 1.524 . S
C616 C615 1.524 . S
C616 C617 1.397 . S
C616 C621 1.363 . S
C617 H588 0.950 . S
C617 C616 1.397 . S
C617 C618 1.334 . S
C618 H589 0.950 . S
C618 C617 1.334 . S
C618 C619 1.287 . S
C619 C618 1.287 . S
C619 C620 1.524 . S
C619 H622 0.999 . S
C620 H590 0.950 . S
C620 C619 1.524 . S
C620 C621 1.415 . S
C621 H591 0.950 . S
C621 C616 1.363 . S
C621 C620 1.415 . S
H622 C619 0.999 . S
H623 C604 0.913 . S
H624 C642 0.951 . S
H625 C644 0.951 . S
H626 C646 0.950 . S
H627 C647 0.950 . S
H628 C649 0.950 . S
H629 C652 0.950 . S
H630 C653 0.950 . S
H631 C655 0.950 . S
H632 C656 0.950 . S
H633 C657 0.951 . S
H634 C659 0.951 . S
H635 C661 0.950 . S
H636 C662 0.950 . S
H637 C664 0.950 . S
H638 C667 0.950 . S
H639 C668 0.950 . S
H640 C670 0.950 . S
H641 C671 0.950 . S
C642 H624 0.951 . S
C642 C643 1.366 . S
C642 C644 1.388 . S
C643 C642 1.366 . S
C643 C647 1.385 . S
C644 H625 0.951 . S
C644 C642 1.388 . S
C644 C645 1.366 . S
C645 C644 1.366 . S
C645 C646 1.414 . S
C645 C648 1.499 . S
C646 H626 0.950 . S
C646 C645 1.414 . S
C646 C647 1.374 . S
C647 H627 0.950 . S
C647 C643 1.385 . S
C647 C646 1.374 . S
C648 C645 1.499 . S
C648 C649 1.373 . S
C648 C650 1.389 . S
C649 H628 0.950 . S
C649 C648 1.373 . S
C649 C665 1.377 . S
C650 C648 1.389 . S
C650 C651 1.524 . S
C650 C664 1.377 . S
C651 C650 1.524 . S
C651 C652 1.397 . S
C651 C656 1.363 . S
C652 H629 0.950 . S
C652 C651 1.397 . S
C652 C653 1.334 . S
C653 H630 0.950 . S
C653 C652 1.334 . S
C653 C654 1.287 . S
C654 C653 1.287 . S
C654 C655 1.524 . S
C654 H673 0.913 . S
C655 H631 0.950 . S
C655 C654 1.524 . S
C655 C656 1.415 . S
C656 H632 0.950 . S
C656 C651 1.363 . S
C656 C655 1.415 . S
C657 H633 0.951 . S
C657 C658 1.366 . S
C657 C659 1.388 . S
C658 C657 1.366 . S
C658 C662 1.385 . S
C659 H634 0.951 . S
C659 C657 1.388 . S
C659 C660 1.366 . S
C660 C659 1.366 . S
C660 C661 1.414 . S
C660 C663 1.499 . S
C661 H635 0.950 . S
C661 C660 1.414 . S
C661 C662 1.374 . S
C662 H636 0.950 . S
C662 C658 1.385 . S
C662 C661 1.374 . S
C663 C660 1.499 . S
C663 C664 1.373 . S
C663 C665 1.389 . S
C664 H637 0.950 . S
C664 C650 1.377 . S
C664 C663 1.373 . S
C665 C649 1.377 . S
C665 C663 1.389 . S
C665 C666 1.524 . S
C666 C665 1.524 . S
C666 C667 1.397 . S
C666 C671 1.363 . S
C667 H638 0.950 . S
C667 C666 1.397 . S
C667 C668 1.334 . S
C668 H639 0.950 . S
C668 C667 1.334 . S
C668 C669 1.287 . S
C669 C668 1.287 . S
C669 C670 1.524 . S
C669 H672 0.999 . S
C670 H640 0.950 . S
C670 C669 1.524 . S
C670 C671 1.415 . S
C671 H641 0.950 . S
C671 C666 1.363 . S
C671 C670 1.415 . S
H672 C669 0.999 . S
H673 C654 0.913 . S
H674 C692 0.951 . S
H675 C694 0.951 . S
H676 C696 0.950 . S
H677 C697 0.950 . S
H678 C699 0.950 . S
H679 C702 0.950 . S
H680 C703 0.950 . S
H681 C705 0.950 . S
H682 C706 0.950 . S
H683 C707 0.951 . S
H684 C709 0.951 . S
H685 C711 0.950 . S
H686 C712 0.950 . S
H687 C714 0.950 . S
H688 C717 0.950 . S
H689 C718 0.950 . S
H690 C720 0.950 . S
H691 C721 0.950 . S
C692 H674 0.951 . S
C692 C693 1.366 . S
C692 C694 1.388 . S
C693 C692 1.366 . S
C693 C697 1.385 . S
C694 H675 0.951 . S
C694 C692 1.388 . S
C694 C695 1.366 . S
C695 C694 1.366 . S
C695 C696 1.414 . S
C695 C698 1.499 . S
C696 H676 0.950 . S
C696 C695 1.414 . S
C696 C697 1.374 . S
C697 H677 0.950 . S
C697 C693 1.385 . S
C697 C696 1.374 . S
C698 C695 1.499 . S
C698 C699 1.373 . S
C698 C700 1.389 . S
C699 H678 0.950 . S
C699 C698 1.373 . S
C699 C715 1.377 . S
C700 C698 1.389 . S
C700 C701 1.524 . S
C700 C714 1.377 . S
C701 C700 1.524 . S
C701 C702 1.397 . S
C701 C706 1.363 . S
C702 H679 0.950 . S
C702 C701 1.397 . S
C702 C703 1.334 . S
C703 H680 0.950 . S
C703 C702 1.334 . S
C703 C704 1.287 . S
C704 C703 1.287 . S
C704 C705 1.524 . S
C704 H723 0.913 . S
C705 H681 0.950 . S
C705 C704 1.524 . S
C705 C706 1.415 . S
C706 H682 0.950 . S
C706 C701 1.363 . S
C706 C705 1.415 . S
C707 H683 0.951 . S
C707 C708 1.366 . S
C707 C709 1.388 . S
C708 C707 1.366 . S
C708 C712 1.385 . S
C709 H684 0.951 . S
C709 C707 1.388 . S
C709 C710 1.366 . S
C710 C709 1.366 . S
C710 C711 1.414 . S
C710 C713 1.499 . S
C711 H685 0.950 . S
C711 C710 1.414 . S
C711 C712 1.374 . S
C712 H686 0.950 . S
C712 C708 1.385 . S
C712 C711 1.374 . S
C713 C710 1.499 . S
C713 C714 1.373 . S
C713 C715 1.389 . S
C714 H687 0.950 . S
C714 C700 1.377 . S
C714 C713 1.373 . S
C715 C699 1.377 . S
C715 C713 1.389 . S
C715 C716 1.524 . S
C716 C715 1.524 . S
C716 C717 1.397 . S
C716 C721 1.363 . S
C717 H688 0.950 . S
C717 C716 1.397 . S
C717 C718 1.334 . S
C718 H689 0.950 . S
C718 C717 1.334 . S
C718 C719 1.287 . S
C719 C718 1.287 . S
C719 C720 1.524 . S
C719 H722 0.999 . S
C720 H690 0.950 . S
C720 C719 1.524 . S
C720 C721 1.415 . S
C721 H691 0.950 . S
C721 C716 1.363 . S
C721 C720 1.415 . S
H722 C719 0.999 . S
H723 C704 0.913 . S
H724 C742 0.951 . S
H725 C744 0.951 . S
H726 C746 0.950 . S
H727 C747 0.950 . S
H728 C749 0.950 . S
H729 C752 0.950 . S
H730 C753 0.950 . S
H731 C755 0.950 . S
H732 C756 0.950 . S
H733 C757 0.951 . S
H734 C759 0.951 . S
H735 C761 0.950 . S
H736 C762 0.950 . S
H737 C764 0.950 . S
H738 C767 0.950 . S
H739 C768 0.950 . S
H740 C770 0.950 . S
H741 C771 0.950 . S
C742 H724 0.951 . S
C742 C743 1.366 . S
C742 C744 1.388 . S
C743 C742 1.366 . S
C743 C747 1.385 . S
C744 H725 0.951 . S
C744 C742 1.388 . S
C744 C745 1.366 . S
C745 C744 1.366 . S
C745 C746 1.414 . S
C745 C748 1.499 . S
C746 H726 0.950 . S
C746 C745 1.414 . S
C746 C747 1.374 . S
C747 H727 0.950 . S
C747 C743 1.385 . S
C747 C746 1.374 . S
C748 C745 1.499 . S
C748 C749 1.373 . S
C748 C750 1.389 . S
C749 H728 0.950 . S
C749 C748 1.373 . S
C749 C765 1.377 . S
C750 C748 1.389 . S
C750 C751 1.524 . S
C750 C764 1.377 . S
C751 C750 1.524 . S
C751 C752 1.397 . S
C751 C756 1.363 . S
C752 H729 0.950 . S
C752 C751 1.397 . S
C752 C753 1.334 . S
C753 H730 0.950 . S
C753 C752 1.334 . S
C753 C754 1.287 . S
C754 C753 1.287 . S
C754 C755 1.524 . S
C754 H773 0.913 . S
C755 H731 0.950 . S
C755 C754 1.524 . S
C755 C756 1.415 . S
C756 H732 0.950 . S
C756 C751 1.363 . S
C756 C755 1.415 . S
C757 H733 0.951 . S
C757 C758 1.366 . S
C757 C759 1.388 . S
C758 C757 1.366 . S
C758 C762 1.385 . S
C759 H734 0.951 . S
C759 C757 1.388 . S
C759 C760 1.366 . S
C760 C759 1.366 . S
C760 C761 1.414 . S
C760 C763 1.499 . S
C761 H735 0.950 . S
C761 C760 1.414 . S
C761 C762 1.374 . S
C762 H736 0.950 . S
C762 C758 1.385 . S
C762 C761 1.374 . S
C763 C760 1.499 . S
C763 C764 1.373 . S
C763 C765 1.389 . S
C764 H737 0.950 . S
C764 C750 1.377 . S
C764 C763 1.373 . S
C765 C749 1.377 . S
C765 C763 1.389 . S
C765 C766 1.524 . S
C766 C765 1.524 . S
C766 C767 1.397 . S
C766 C771 1.363 . S
C767 H738 0.950 . S
C767 C766 1.397 . S
C767 C768 1.334 . S
C768 H739 0.950 . S
C768 C767 1.334 . S
C768 C769 1.287 . S
C769 C768 1.287 . S
C769 C770 1.524 . S
C769 H772 0.999 . S
C770 H740 0.950 . S
C770 C769 1.524 . S
C770 C771 1.415 . S
C771 H741 0.950 . S
C771 C766 1.363 . S
C771 C770 1.415 . S
H772 C769 0.999 . S
H773 C754 0.913 . S
H774 C792 0.951 . S
H775 C794 0.951 . S
H776 C796 0.950 . S
H777 C797 0.950 . S
H778 C799 0.950 . S
H779 C802 0.950 . S
H780 C803 0.950 . S
H781 C805 0.950 . S
H782 C806 0.950 . S
H783 C807 0.951 . S
H784 C809 0.951 . S
H785 C811 0.950 . S
H786 C812 0.950 . S
H787 C814 0.950 . S
H788 C817 0.950 . S
H789 C818 0.950 . S
H790 C820 0.950 . S
H791 C821 0.950 . S
C792 H774 0.951 . S
C792 C793 1.366 . S
C792 C794 1.388 . S
C793 C792 1.366 . S
C793 C797 1.385 . S
C794 H775 0.951 . S
C794 C792 1.388 . S
C794 C795 1.366 . S
C795 C794 1.366 . S
C795 C796 1.414 . S
C795 C798 1.499 . S
C796 H776 0.950 . S
C796 C795 1.414 . S
C796 C797 1.374 . S
C797 H777 0.950 . S
C797 C793 1.385 . S
C797 C796 1.374 . S
C798 C795 1.499 . S
C798 C799 1.373 . S
C798 C800 1.389 . S
C799 H778 0.950 . S
C799 C798 1.373 . S
C799 C815 1.377 . S
C800 C798 1.389 . S
C800 C801 1.524 . S
C800 C814 1.377 . S
C801 C800 1.524 . S
C801 C802 1.397 . S
C801 C806 1.363 . S
C802 H779 0.950 . S
C802 C801 1.397 . S
C802 C803 1.334 . S
C803 H780 0.950 . S
C803 C802 1.334 . S
C803 C804 1.287 . S
C804 C803 1.287 . S
C804 C805 1.524 . S
C804 H823 0.913 . S
C805 H781 0.950 . S
C805 C804 1.524 . S
C805 C806 1.415 . S
C806 H782 0.950 . S
C806 C801 1.363 . S
C806 C805 1.415 . S
C807 H783 0.951 . S
C807 C808 1.366 . S
C807 C809 1.388 . S
C808 C807 1.366 . S
C808 C812 1.385 . S
C809 H784 0.951 . S
C809 C807 1.388 . S
C809 C810 1.366 . S
C810 C809 1.366 . S
C810 C811 1.414 . S
C810 C813 1.499 . S
C811 H785 0.950 . S
C811 C810 1.414 . S
C811 C812 1.374 . S
C812 H786 0.950 . S
C812 C808 1.385 . S
C812 C811 1.374 . S
C813 C810 1.499 . S
C813 C814 1.373 . S
C813 C815 1.389 . S
C814 H787 0.950 . S
C814 C800 1.377 . S
C814 C813 1.373 . S
C815 C799 1.377 . S
C815 C813 1.389 . S
C815 C816 1.524 . S
C816 C815 1.524 . S
C816 C817 1.397 . S
C816 C821 1.363 . S
C817 H788 0.950 . S
C817 C816 1.397 . S
C817 C818 1.334 . S
C818 H789 0.950 . S
C818 C817 1.334 . S
C818 C819 1.287 . S
C819 C818 1.287 . S
C819 C820 1.524 . S
C819 H822 0.999 . S
C820 H790 0.950 . S
C820 C819 1.524 . S
C820 C821 1.415 . S
C821 H791 0.950 . S
C821 C816 1.363 . S
C821 C820 1.415 . S
H822 C819 0.999 . S
H823 C804 0.913 . S
H824 C842 0.951 . S
H825 C844 0.951 . S
H826 C846 0.950 . S
H827 C847 0.950 . S
H828 C849 0.950 . S
H829 C852 0.950 . S
H830 C853 0.950 . S
H831 C855 0.950 . S
H832 C856 0.950 . S
H833 C857 0.951 . S
H834 C859 0.951 . S
H835 C861 0.950 . S
H836 C862 0.950 . S
H837 C864 0.950 . S
H838 C867 0.950 . S
H839 C868 0.950 . S
H840 C870 0.950 . S
H841 C871 0.950 . S
C842 H824 0.951 . S
C842 C843 1.366 . S
C842 C844 1.388 . S
C843 C842 1.366 . S
C843 C847 1.385 . S
C844 H825 0.951 . S
C844 C842 1.388 . S
C844 C845 1.366 . S
C845 C844 1.366 . S
C845 C846 1.414 . S
C845 C848 1.499 . S
C846 H826 0.950 . S
C846 C845 1.414 . S
C846 C847 1.374 . S
C847 H827 0.950 . S
C847 C843 1.385 . S
C847 C846 1.374 . S
C848 C845 1.499 . S
C848 C849 1.373 . S
C848 C850 1.389 . S
C849 H828 0.950 . S
C849 C848 1.373 . S
C849 C865 1.377 . S
C850 C848 1.389 . S
C850 C851 1.524 . S
C850 C864 1.377 . S
C851 C850 1.524 . S
C851 C852 1.397 . S
C851 C856 1.363 . S
C852 H829 0.950 . S
C852 C851 1.397 . S
C852 C853 1.334 . S
C853 H830 0.950 . S
C853 C852 1.334 . S
C853 C854 1.287 . S
C854 C853 1.287 . S
C854 C855 1.524 . S
C854 H873 0.913 . S
C855 H831 0.950 . S
C855 C854 1.524 . S
C855 C856 1.415 . S
C856 H832 0.950 . S
C856 C851 1.363 . S
C856 C855 1.415 . S
C857 H833 0.951 . S
C857 C858 1.366 . S
C857 C859 1.388 . S
C858 C857 1.366 . S
C858 C862 1.385 . S
C859 H834 0.951 . S
C859 C857 1.388 . S
C859 C860 1.366 . S
C860 C859 1.366 . S
C860 C861 1.414 . S
C860 C863 1.499 . S
C861 H835 0.950 . S
C861 C860 1.414 . S
C861 C862 1.374 . S
C862 H836 0.950 . S
C862 C858 1.385 . S
C862 C861 1.374 . S
C863 C860 1.499 . S
C863 C864 1.373 . S
C863 C865 1.389 . S
C864 H837 0.950 . S
C864 C850 1.377 . S
C864 C863 1.373 . S
C865 C849 1.377 . S
C865 C863 1.389 . S
C865 C866 1.524 . S
C866 C865 1.524 . S
C866 C867 1.397 . S
C866 C871 1.363 . S
C867 H838 0.950 . S
C867 C866 1.397 . S
C867 C868 1.334 . S
C868 H839 0.950 . S
C868 C867 1.334 . S
C868 C869 1.287 . S
C869 C868 1.287 . S
C869 C870 1.524 . S
C869 H872 0.999 . S
C870 H840 0.950 . S
C870 C869 1.524 . S
C870 C871 1.415 . S
C871 H841 0.950 . S
C871 C866 1.363 . S
C871 C870 1.415 . S
H872 C869 0.999 . S
H873 C854 0.913 . S
H874 C892 0.951 . S
H875 C894 0.951 . S
H876 C896 0.950 . S
H877 C897 0.950 . S
H878 C899 0.950 . S
H879 C902 0.950 . S
H880 C903 0.950 . S
H881 C905 0.950 . S
H882 C906 0.950 . S
H883 C907 0.951 . S
H884 C909 0.951 . S
H885 C911 0.950 . S
H886 C912 0.950 . S
H887 C914 0.950 . S
H888 C917 0.950 . S
H889 C918 0.950 . S
H890 C920 0.950 . S
H891 C921 0.950 . S
C892 H874 0.951 . S
C892 C893 1.366 . S
C892 C894 1.388 . S
C893 C892 1.366 . S
C893 C897 1.385 . S
C894 H875 0.951 . S
C894 C892 1.388 . S
C894 C895 1.366 . S
C895 C894 1.366 . S
C895 C896 1.414 . S
C895 C898 1.499 . S
C896 H876 0.950 . S
C896 C895 1.414 . S
C896 C897 1.374 . S
C897 H877 0.950 . S
C897 C893 1.385 . S
C897 C896 1.374 . S
C898 C895 1.499 . S
C898 C899 1.373 . S
C898 C900 1.389 . S
C899 H878 0.950 . S
C899 C898 1.373 . S
C899 C915 1.377 . S
C900 C898 1.389 . S
C900 C901 1.524 . S
C900 C914 1.377 . S
C901 C900 1.524 . S
C901 C902 1.397 . S
C901 C906 1.363 . S
C902 H879 0.950 . S
C902 C901 1.397 . S
C902 C903 1.334 . S
C903 H880 0.950 . S
C903 C902 1.334 . S
C903 C904 1.287 . S
C904 C903 1.287 . S
C904 C905 1.524 . S
C904 H923 0.913 . S
C905 H881 0.950 . S
C905 C904 1.524 . S
C905 C906 1.415 . S
C906 H882 0.950 . S
C906 C901 1.363 . S
C906 C905 1.415 . S
C907 H883 0.951 . S
C907 C908 1.366 . S
C907 C909 1.388 . S
C908 C907 1.366 . S
C908 C912 1.385 . S
C909 H884 0.951 . S
C909 C907 1.388 . S
C909 C910 1.366 . S
C910 C909 1.366 . S
C910 C911 1.414 . S
C910 C913 1.499 . S
C911 H885 0.950 . S
C911 C910 1.414 . S
C911 C912 1.374 . S
C912 H886 0.950 . S
C912 C908 1.385 . S
C912 C911 1.374 . S
C913 C910 1.499 . S
C913 C914 1.373 . S
C913 C915 1.389 . S
C914 H887 0.950 . S
C914 C900 1.377 . S
C914 C913 1.373 . S
C915 C899 1.377 . S
C915 C913 1.389 . S
C915 C916 1.524 . S
C916 C915 1.524 . S
C916 C917 1.397 . S
C916 C921 1.363 . S
C917 H888 0.950 . S
C917 C916 1.397 . S
C917 C918 1.334 . S
C918 H889 0.950 . S
C918 C917 1.334 . S
C918 C919 1.287 . S
C919 C918 1.287 . S
C919 C920 1.524 . S
C919 H922 0.999 . S
C920 H890 0.950 . S
C920 C919 1.524 . S
C920 C921 1.415 . S
C921 H891 0.950 . S
C921 C916 1.363 . S
C921 C920 1.415 . S
H922 C919 0.999 . S
H923 C904 0.913 . S
H924 C942 0.951 . S
H925 C944 0.951 . S
H926 C946 0.950 . S
H927 C947 0.950 . S
H928 C949 0.950 . S
H929 C952 0.950 . S
H930 C953 0.950 . S
H931 C955 0.950 . S
H932 C956 0.950 . S
H933 C957 0.951 . S
H934 C959 0.951 . S
H935 C961 0.950 . S
H936 C962 0.950 . S
H937 C964 0.950 . S
H938 C967 0.950 . S
H939 C968 0.950 . S
H940 C970 0.950 . S
H941 C971 0.950 . S
C942 H924 0.951 . S
C942 C943 1.366 . S
C942 C944 1.388 . S
C943 C942 1.366 . S
C943 C947 1.385 . S
C944 H925 0.951 . S
C944 C942 1.388 . S
C944 C945 1.366 . S
C945 C944 1.366 . S
C945 C946 1.414 . S
C945 C948 1.499 . S
C946 H926 0.950 . S
C946 C945 1.414 . S
C946 C947 1.374 . S
C947 H927 0.950 . S
C947 C943 1.385 . S
C947 C946 1.374 . S
C948 C945 1.499 . S
C948 C949 1.373 . S
C948 C950 1.389 . S
C949 H928 0.950 . S
C949 C948 1.373 . S
C949 C965 1.377 . S
C950 C948 1.389 . S
C950 C951 1.524 . S
C950 C964 1.377 . S
C951 C950 1.524 . S
C951 C952 1.397 . S
C951 C956 1.363 . S
C952 H929 0.950 . S
C952 C951 1.397 . S
C952 C953 1.334 . S
C953 H930 0.950 . S
C953 C952 1.334 . S
C953 C954 1.287 . S
C954 C953 1.287 . S
C954 C955 1.524 . S
C954 H973 0.913 . S
C955 H931 0.950 . S
C955 C954 1.524 . S
C955 C956 1.415 . S
C956 H932 0.950 . S
C956 C951 1.363 . S
C956 C955 1.415 . S
C957 H933 0.951 . S
C957 C958 1.366 . S
C957 C959 1.388 . S
C958 C957 1.366 . S
C958 C962 1.385 . S
C959 H934 0.951 . S
C959 C957 1.388 . S
C959 C960 1.366 . S
C960 C959 1.366 . S
C960 C961 1.414 . S
C960 C963 1.499 . S
C961 H935 0.950 . S
C961 C960 1.414 . S
C961 C962 1.374 . S
C962 H936 0.950 . S
C962 C958 1.385 . S
C962 C961 1.374 . S
C963 C960 1.499 . S
C963 C964 1.373 . S
C963 C965 1.389 . S
C964 H937 0.950 . S
C964 C950 1.377 . S
C964 C963 1.373 . S
C965 C949 1.377 . S
C965 C963 1.389 . S
C965 C966 1.524 . S
C966 C965 1.524 . S
C966 C967 1.397 . S
C966 C971 1.363 . S
C967 H938 0.950 . S
C967 C966 1.397 . S
C967 C968 1.334 . S
C968 H939 0.950 . S
C968 C967 1.334 . S
C968 C969 1.287 . S
C969 C968 1.287 . S
C969 C970 1.524 . S
C969 H972 0.999 . S
C970 H940 0.950 . S
C970 C969 1.524 . S
C970 C971 1.415 . S
C971 H941 0.950 . S
C971 C966 1.363 . S
C971 C970 1.415 . S
H972 C969 0.999 . S
H973 C954 0.913 . S
H974 C992 0.951 . S
H975 C994 0.951 . S
H976 C996 0.950 . S
H977 C997 0.950 . S
H978 C999 0.950 . S
H979 C1002 0.950 . S
H980 C1003 0.950 . S
H981 C1005 0.950 . S
H982 C1006 0.950 . S
H983 C1007 0.951 . S
H984 C1009 0.951 . S
H985 C1011 0.950 . S
H986 C1012 0.950 . S
H987 C1014 0.950 . S
H988 C1017 0.950 . S
H989 C1018 0.950 . S
H990 C1020 0.950 . S
H991 C1021 0.950 . S
C992 H974 0.951 . S
C992 C993 1.366 . S
C992 C994 1.388 . S
C993 C992 1.366 . S
C993 C997 1.385 . S
C994 H975 0.951 . S
C994 C992 1.388 . S
C994 C995 1.366 . S
C995 C994 1.366 . S
C995 C996 1.414 . S
C995 C998 1.499 . S
C996 H976 0.950 . S
C996 C995 1.414 . S
C996 C997 1.374 . S
C997 H977 0.950 . S
C997 C993 1.385 . S
C997 C996 1.374 . S
C998 C995 1.499 . S
C998 C999 1.373 . S
C998 C1000 1.389 . S
C999 H978 0.950 . S
C999 C998 1.373 . S
C999 C1015 1.377 . S
C1000 C998 1.389 . S
C1000 C1001 1.524 . S
C1000 C1014 1.377 . S
C1001 C1000 1.524 . S
C1001 C1002 1.397 . S
C1001 C1006 1.363 . S
C1002 H979 0.950 . S
C1002 C1001 1.397 . S
C1002 C1003 1.334 . S
C1003 H980 0.950 . S
C1003 C1002 1.334 . S
C1003 C1004 1.287 . S
C1004 C1003 1.287 . S
C1004 C1005 1.524 . S
C1004 H1023 0.913 . S
C1005 H981 0.950 . S
C1005 C1004 1.524 . S
C1005 C1006 1.415 . S
C1006 H982 0.950 . S
C1006 C1001 1.363 . S
C1006 C1005 1.415 . S
C1007 H983 0.951 . S
C1007 C1008 1.366 . S
C1007 C1009 1.388 . S
C1008 C1007 1.366 . S
C1008 C1012 1.385 . S
C1009 H984 0.951 . S
C1009 C1007 1.388 . S
C1009 C1010 1.366 . S
C1010 C1009 1.366 . S
C1010 C1011 1.414 . S
C1010 C1013 1.499 . S
C1011 H985 0.950 . S
C1011 C1010 1.414 . S
C1011 C1012 1.374 . S
C1012 H986 0.950 . S
C1012 C1008 1.385 . S
C1012 C1011 1.374 . S
C1013 C1010 1.499 . S
C1013 C1014 1.373 . S
C1013 C1015 1.389 . S
C1014 H987 0.950 . S
C1014 C1000 1.377 . S
C1014 C1013 1.373 . S
C1015 C999 1.377 . S
C1015 C1013 1.389 . S
C1015 C1016 1.524 . S
C1016 C1015 1.524 . S
C1016 C1017 1.397 . S
C1016 C1021 1.363 . S
C1017 H988 0.950 . S
C1017 C1016 1.397 . S
C1017 C1018 1.334 . S
C1018 H989 0.950 . S
C1018 C1017 1.334 . S
C1018 C1019 1.287 . S
C1019 C1018 1.287 . S
C1019 C1020 1.524 . S
C1019 H1022 0.999 . S
C1020 H990 0.950 . S
C1020 C1019 1.524 . S
C1020 C1021 1.415 . S
C1021 H991 0.950 . S
C1021 C1016 1.363 . S
C1021 C1020 1.415 . S
H1022 C1019 0.999 . S
H1023 C1004 0.913 . S
H1024 C1042 0.951 . S
H1025 C1044 0.951 . S
H1026 C1046 0.950 . S
H1027 C1047 0.950 . S
H1028 C1049 0.950 . S
H1029 C1052 0.950 . S
H1030 C1053 0.950 . S
H1031 C1055 0.950 . S
H1032 C1056 0.950 . S
H1033 C1057 0.951 . S
H1034 C1059 0.951 . S
H1035 C1061 0.950 . S
H1036 C1062 0.950 . S
H1037 C1064 0.950 . S
H1038 C1067 0.950 . S
H1039 C1068 0.950 . S
H1040 C1070 0.950 . S
H1041 C1071 0.950 . S
C1042 H1024 0.951 . S
C1042 C1043 1.366 . S
C1042 C1044 1.388 . S
C1043 C1042 1.366 . S
C1043 C1047 1.385 . S
C1044 H1025 0.951 . S
C1044 C1042 1.388 . S
C1044 C1045 1.366 . S
C1045 C1044 1.366 . S
C1045 C1046 1.414 . S
C1045 C1048 1.499 . S
C1046 H1026 0.950 . S
C1046 C1045 1.414 . S
C1046 C1047 1.374 . S
C1047 H1027 0.950 . S
C1047 C1043 1.385 . S
C1047 C1046 1.374 . S
C1048 C1045 1.499 . S
C1048 C1049 1.373 . S
C1048 C1050 1.389 . S
C1049 H1028 0.950 . S
C1049 C1048 1.373 . S
C1049 C1065 1.377 . S
C1050 C1048 1.389 . S
C1050 C1051 1.524 . S
C1050 C1064 1.377 . S
C1051 C1050 1.524 . S
C1051 C1052 1.397 . S
C1051 C1056 1.363 . S
C1052 H1029 0.950 . S
C1052 C1051 1.397 . S
C1052 C1053 1.334 . S
C1053 H1030 0.950 . S
C1053 C1052 1.334 . S
C1053 C1054 1.287 . S
C1054 C1053 1.287 . S
C1054 C1055 1.524 . S
C1054 H1073 0.913 . S
C1055 H1031 0.950 . S
C1055 C1054 1.524 . S
C1055 C1056 1.415 . S
C1056 H1032 0.950 . S
C1056 C1051 1.363 . S
C1056 C1055 1.415 . S
C1057 H1033 0.951 . S
C1057 C1058 1.366 . S
C1057 C1059 1.388 . S
C1058 C1057 1.366 . S
C1058 C1062 1.385 . S
C1059 H1034 0.951 . S
C1059 C1057 1.388 . S
C1059 C1060 1.366 . S
C1060 C1059 1.366 . S
C1060 C1061 1.414 . S
C1060 C1063 1.499 . S
C1061 H1035 0.950 . S
C1061 C1060 1.414 . S
C1061 C1062 1.374 . S
C1062 H1036 0.950 . S
C1062 C1058 1.385 . S
C1062 C1061 1.374 . S
C1063 C1060 1.499 . S
C1063 C1064 1.373 . S
C1063 C1065 1.389 . S
C1064 H1037 0.950 . S
C1064 C1050 1.377 . S
C1064 C1063 1.373 . S
C1065 C1049 1.377 . S
C1065 C1063 1.389 . S
C1065 C1066 1.524 . S
C1066 C1065 1.524 . S
C1066 C1067 1.397 . S
C1066 C1071 1.363 . S
C1067 H1038 0.950 . S
C1067 C1066 1.397 . S
C1067 C1068 1.334 . S
C1068 H1039 0.950 . S
C1068 C1067 1.334 . S
C1068 C1069 1.287 . S
C1069 C1068 1.287 . S
C1069 C1070 1.524 . S
C1069 H1072 0.999 . S
C1070 H1040 0.950 . S
C1070 C1069 1.524 . S
C1070 C1071 1.415 . S
C1071 H1041 0.950 . S
C1071 C1066 1.363 . S
C1071 C1070 1.415 . S
H1072 C1069 0.999 . S
H1073 C1054 0.913 . S
H1074 C1092 0.951 . S
H1075 C1094 0.951 . S
H1076 C1096 0.950 . S
H1077 C1097 0.950 . S
H1078 C1099 0.950 . S
H1079 C1102 0.950 . S
H1080 C1103 0.950 . S
H1081 C1105 0.950 . S
H1082 C1106 0.950 . S
H1083 C1107 0.951 . S
H1084 C1109 0.951 . S
H1085 C1111 0.950 . S
H1086 C1112 0.950 . S
H1087 C1114 0.950 . S
H1088 C1117 0.950 . S
H1089 C1118 0.950 . S
H1090 C1120 0.950 . S
H1091 C1121 0.950 . S
C1092 H1074 0.951 . S
C1092 C1093 1.366 . S
C1092 C1094 1.388 . S
C1093 C1092 1.366 . S
C1093 C1097 1.385 . S
C1094 H1075 0.951 . S
C1094 C1092 1.388 . S
C1094 C1095 1.366 . S
C1095 C1094 1.366 . S
C1095 C1096 1.414 . S
C1095 C1098 1.499 . S
C1096 H1076 0.950 . S
C1096 C1095 1.414 . S
C1096 C1097 1.374 . S
C1097 H1077 0.950 . S
C1097 C1093 1.385 . S
C1097 C1096 1.374 . S
C1098 C1095 1.499 . S
C1098 C1099 1.373 . S
C1098 C1100 1.389 . S
C1099 H1078 0.950 . S
C1099 C1098 1.373 . S
C1099 C1115 1.377 . S
C1100 C1098 1.389 . S
C1100 C1101 1.524 . S
C1100 C1114 1.377 . S
C1101 C1100 1.524 . S
C1101 C1102 1.397 . S
C1101 C1106 1.363 . S
C1102 H1079 0.950 . S
C1102 C1101 1.397 . S
C1102 C1103 1.334 . S
C1103 H1080 0.950 . S
C1103 C1102 1.334 . S
C1103 C1104 1.287 . S
C1104 C1103 1.287 . S
C1104 C1105 1.524 . S
C1104 H1123 0.913 . S
C1105 H1081 0.950 . S
C1105 C1104 1.524 . S
C1105 C1106 1.415 . S
C1106 H1082 0.950 . S
C1106 C1101 1.363 . S
C1106 C1105 1.415 . S
C1107 H1083 0.951 . S
C1107 C1108 1.366 . S
C1107 C1109 1.388 . S
C1108 C1107 1.366 . S
C1108 C1112 1.385 . S
C1109 H1084 0.951 . S
C1109 C1107 1.388 . S
C1109 C1110 1.366 . S
C1110 C1109 1.366 . S
C1110 C1111 1.414 . S
C1110 C1113 1.499 . S
C1111 H1085 0.950 . S
C1111 C1110 1.414 . S
C1111 C1112 1.374 . S
C1112 H1086 0.950 . S
C1112 C1108 1.385 . S
C1112 C1111 1.374 . S
C1113 C1110 1.499 . S
C1113 C1114 1.373 . S
C1113 C1115 1.389 . S
C1114 H1087 0.950 . S
C1114 C1100 1.377 . S
C1114 C1113 1.373 . S
C1115 C1099 1.377 . S
C1115 C1113 1.389 . S
C1115 C1116 1.524 . S
C1116 C1115 1.524 . S
C1116 C1117 1.397 . S
C1116 C1121 1.363 . S
C1117 H1088 0.950 . S
C1117 C1116 1.397 . S
C1117 C1118 1.334 . S
C1118 H1089 0.950 . S
C1118 C1117 1.334 . S
C1118 C1119 1.287 . S
C1119 C1118 1.287 . S
C1119 C1120 1.524 . S
C1119 H1122 0.999 . S
C1120 H1090 0.950 . S
C1120 C1119 1.524 . S
C1120 C1121 1.415 . S
C1121 H1091 0.950 . S
C1121 C1116 1.363 . S
C1121 C1120 1.415 . S
H1122 C1119 0.999 . S
H1123 C1104 0.913 . S
H1124 C1142 0.951 . S
H1125 C1144 0.951 . S
H1126 C1146 0.950 . S
H1127 C1147 0.950 . S
H1128 C1149 0.950 . S
H1129 C1152 0.950 . S
H1130 C1153 0.950 . S
H1131 C1155 0.950 . S
H1132 C1156 0.950 . S
H1133 C1157 0.951 . S
H1134 C1159 0.951 . S
H1135 C1161 0.950 . S
H1136 C1162 0.950 . S
H1137 C1164 0.950 . S
H1138 C1167 0.950 . S
H1139 C1168 0.950 . S
H1140 C1170 0.950 . S
H1141 C1171 0.950 . S
C1142 H1124 0.951 . S
C1142 C1143 1.366 . S
C1142 C1144 1.388 . S
C1143 C1142 1.366 . S
C1143 C1147 1.385 . S
C1144 H1125 0.951 . S
C1144 C1142 1.388 . S
C1144 C1145 1.366 . S
C1145 C1144 1.366 . S
C1145 C1146 1.414 . S
C1145 C1148 1.499 . S
C1146 H1126 0.950 . S
C1146 C1145 1.414 . S
C1146 C1147 1.374 . S
C1147 H1127 0.950 . S
C1147 C1143 1.385 . S
C1147 C1146 1.374 . S
C1148 C1145 1.499 . S
C1148 C1149 1.373 . S
C1148 C1150 1.389 . S
C1149 H1128 0.950 . S
C1149 C1148 1.373 . S
C1149 C1165 1.377 . S
C1150 C1148 1.389 . S
C1150 C1151 1.524 . S
C1150 C1164 1.377 . S
C1151 C1150 1.524 . S
C1151 C1152 1.397 . S
C1151 C1156 1.363 . S
C1152 H1129 0.950 . S
C1152 C1151 1.397 . S
C1152 C1153 1.334 . S
C1153 H1130 0.950 . S
C1153 C1152 1.334 . S
C1153 C1154 1.287 . S
C1154 C1153 1.287 . S
C1154 C1155 1.524 . S
C1154 H1173 0.913 . S
C1155 H1131 0.950 . S
C1155 C1154 1.524 . S
C1155 C1156 1.415 . S
C1156 H1132 0.950 . S
C1156 C1151 1.363 . S
C1156 C1155 1.415 . S
C1157 H1133 0.951 . S
C1157 C1158 1.366 . S
C1157 C1159 1.388 . S
C1158 C1157 1.366 . S
C1158 C1162 1.385 . S
C1159 H1134 0.951 . S
C1159 C1157 1.388 . S
C1159 C1160 1.366 . S
C1160 C1159 1.366 . S
C1160 C1161 1.414 . S
C1160 C1163 1.499 . S
C1161 H1135 0.950 . S
C1161 C1160 1.414 . S
C1161 C1162 1.374 . S
C1162 H1136 0.950 . S
C1162 C1158 1.385 . S
C1162 C1161 1.374 . S
C1163 C1160 1.499 . S
C1163 C1164 1.373 . S
C1163 C1165 1.389 . S
C1164 H1137 0.950 . S
C1164 C1150 1.377 . S
C1164 C1163 1.373 . S
C1165 C1149 1.377 . S
C1165 C1163 1.389 . S
C1165 C1166 1.524 . S
C1166 C1165 1.524 . S
C1166 C1167 1.397 . S
C1166 C1171 1.363 . S
C1167 H1138 0.950 . S
C1167 C1166 1.397 . S
C1167 C1168 1.334 . S
C1168 H1139 0.950 . S
C1168 C1167 1.334 . S
C1168 C1169 1.287 . S
C1169 C1168 1.287 . S
C1169 C1170 1.524 . S
C1169 H1172 0.999 . S
C1170 H1140 0.950 . S
C1170 C1169 1.524 . S
C1170 C1171 1.415 . S
C1171 H1141 0.950 . S
C1171 C1166 1.363 . S
C1171 C1170 1.415 . S
H1172 C1169 0.999 . S
H1173 C1154 0.913 . S
H1174 C1192 0.951 . S
H1175 C1194 0.951 . S
H1176 C1196 0.950 . S
H1177 C1197 0.950 . S
H1178 C1199 0.950 . S
H1179 C1202 0.950 . S
H1180 C1203 0.950 . S
H1181 C1205 0.950 . S
H1182 C1206 0.950 . S
H1183 C1207 0.951 . S
H1184 C1209 0.951 . S
H1185 C1211 0.950 . S
H1186 C1212 0.950 . S
H1187 C1214 0.950 . S
H1188 C1217 0.950 . S
H1189 C1218 0.950 . S
H1190 C1220 0.950 . S
H1191 C1221 0.950 . S
C1192 H1174 0.951 . S
C1192 C1193 1.366 . S
C1192 C1194 1.388 . S
C1193 C1192 1.366 . S
C1193 C1197 1.385 . S
C1194 H1175 0.951 . S
C1194 C1192 1.388 . S
C1194 C1195 1.366 . S
C1195 C1194 1.366 . S
C1195 C1196 1.414 . S
C1195 C1198 1.499 . S
C1196 H1176 0.950 . S
C1196 C1195 1.414 . S
C1196 C1197 1.374 . S
C1197 H1177 0.950 . S
C1197 C1193 1.385 . S
C1197 C1196 1.374 . S
C1198 C1195 1.499 . S
C1198 C1199 1.373 . S
C1198 C1200 1.389 . S
C1199 H1178 0.950 . S
C1199 C1198 1.373 . S
C1199 C1215 1.377 . S
C1200 C1198 1.389 . S
C1200 C1201 1.524 . S
C1200 C1214 1.377 . S
C1201 C1200 1.524 . S
C1201 C1202 1.397 . S
C1201 C1206 1.363 . S
C1202 H1179 0.950 . S
C1202 C1201 1.397 . S
C1202 C1203 1.334 . S
C1203 H1180 0.950 . S
C1203 C1202 1.334 . S
C1203 C1204 1.287 . S
C1204 C1203 1.287 . S
C1204 C1205 1.524 . S
C1204 H1223 0.913 . S
C1205 H1181 0.950 . S
C1205 C1204 1.524 . S
C1205 C1206 1.415 . S
C1206 H1182 0.950 . S
C1206 C1201 1.363 . S
C1206 C1205 1.415 . S
C1207 H1183 0.951 . S
C1207 C1208 1.366 . S
C1207 C1209 1.388 . S
C1208 C1207 1.366 . S
C1208 C1212 1.385 . S
C1209 H1184 0.951 . S
C1209 C1207 1.388 . S
C1209 C1210 1.366 . S
C1210 C1209 1.366 . S
C1210 C1211 1.414 . S
C1210 C1213 1.499 . S
C1211 H1185 0.950 . S
C1211 C1210 1.414 . S
C1211 C1212 1.374 . S
C1212 H1186 0.950 . S
C1212 C1208 1.385 . S
C1212 C1211 1.374 . S
C1213 C1210 1.499 . S
C1213 C1214 1.373 . S
C1213 C1215 1.389 . S
C1214 H1187 0.950 . S
C1214 C1200 1.377 . S
C1214 C1213 1.373 . S
C1215 C1199 1.377 . S
C1215 C1213 1.389 . S
C1215 C1216 1.524 . S
C1216 C1215 1.524 . S
C1216 C1217 1.397 . S
C1216 C1221 1.363 . S
C1217 H1188 0.950 . S
C1217 C1216 1.397 . S
C1217 C1218 1.334 . S
C1218 H1189 0.950 . S
C1218 C1217 1.334 . S
C1218 C1219 1.287 . S
C1219 C1218 1.287 . S
C1219 C1220 1.524 . S
C1219 H1222 0.999 . S
C1220 H1190 0.950 . S
C1220 C1219 1.524 . S
C1220 C1221 1.415 . S
C1221 H1191 0.950 . S
C1221 C1216 1.363 . S
C1221 C1220 1.415 . S
H1222 C1219 0.999 . S
H1223 C1204 0.913 . S
H1224 C1242 0.951 . S
H1225 C1244 0.951 . S
H1226 C1246 0.950 . S
H1227 C1247 0.950 . S
H1228 C1249 0.950 . S
H1229 C1252 0.950 . S
H1230 C1253 0.950 . S
H1231 C1255 0.950 . S
H1232 C1256 0.950 . S
H1233 C1257 0.951 . S
H1234 C1259 0.951 . S
H1235 C1261 0.950 . S
H1236 C1262 0.950 . S
H1237 C1264 0.950 . S
H1238 C1267 0.950 . S
H1239 C1268 0.950 . S
H1240 C1270 0.950 . S
H1241 C1271 0.950 . S
C1242 H1224 0.951 . S
C1242 C1243 1.366 . S
C1242 C1244 1.388 . S
C1243 C1242 1.366 . S
C1243 C1247 1.385 . S
C1244 H1225 0.951 . S
C1244 C1242 1.388 . S
C1244 C1245 1.366 . S
C1245 C1244 1.366 . S
C1245 C1246 1.414 . S
C1245 C1248 1.499 . S
C1246 H1226 0.950 . S
C1246 C1245 1.414 . S
C1246 C1247 1.374 . S
C1247 H1227 0.950 . S
C1247 C1243 1.385 . S
C1247 C1246 1.374 . S
C1248 C1245 1.499 . S
C1248 C1249 1.373 . S
C1248 C1250 1.389 . S
C1249 H1228 0.950 . S
C1249 C1248 1.373 . S
C1249 C1265 1.377 . S
C1250 C1248 1.389 . S
C1250 C1251 1.524 . S
C1250 C1264 1.377 . S
C1251 C1250 1.524 . S
C1251 C1252 1.397 . S
C1251 C1256 1.363 . S
C1252 H1229 0.950 . S
C1252 C1251 1.397 . S
C1252 C1253 1.334 . S
C1253 H1230 0.950 . S
C1253 C1252 1.334 . S
C1253 C1254 1.287 . S
C1254 C1253 1.287 . S
C1254 C1255 1.524 . S
C1254 H1273 0.913 . S
C1255 H1231 0.950 . S
C1255 C1254 1.524 . S
C1255 C1256 1.415 . S
C1256 H1232 0.950 . S
C1256 C1251 1.363 . S
C1256 C1255 1.415 . S
C1257 H1233 0.951 . S
C1257 C1258 1.366 . S
C1257 C1259 1.388 . S
C1258 C1257 1.366 . S
C1258 C1262 1.385 . S
C1259 H1234 0.951 . S
C1259 C1257 1.388 . S
C1259 C1260 1.366 . S
C1260 C1259 1.366 . S
C1260 C1261 1.414 . S
C1260 C1263 1.499 . S
C1261 H1235 0.950 . S
C1261 C1260 1.414 . S
C1261 C1262 1.374 . S
C1262 H1236 0.950 . S
C1262 C1258 1.385 . S
C1262 C1261 1.374 . S
C1263 C1260 1.499 . S
C1263 C1264 1.373 . S
C1263 C1265 1.389 . S
C1264 H1237 0.950 . S
C1264 C1250 1.377 . S
C1264 C1263 1.373 . S
C1265 C1249 1.377 . S
C1265 C1263 1.389 . S
C1265 C1266 1.524 . S
C1266 C1265 1.524 . S
C1266 C1267 1.397 . S
C1266 C1271 1.363 . S
C1267 H1238 0.950 . S
C1267 C1266 1.397 . S
C1267 C1268 1.334 . S
C1268 H1239 0.950 . S
C1268 C1267 1.334 . S
C1268 C1269 1.287 . S
C1269 C1268 1.287 . S
C1269 C1270 1.524 . S
C1269 H1272 0.999 . S
C1270 H1240 0.950 . S
C1270 C1269 1.524 . S
C1270 C1271 1.415 . S
C1271 H1241 0.950 . S
C1271 C1266 1.363 . S
C1271 C1270 1.415 . S
H1272 C1269 0.999 . S
H1273 C1254 0.913 . S
H1274 C1292 0.951 . S
H1275 C1294 0.951 . S
H1276 C1296 0.950 . S
H1277 C1297 0.950 . S
H1278 C1299 0.950 . S
H1279 C1302 0.950 . S
H1280 C1303 0.950 . S
H1281 C1305 0.950 . S
H1282 C1306 0.950 . S
H1283 C1307 0.951 . S
H1284 C1309 0.951 . S
H1285 C1311 0.950 . S
H1286 C1312 0.950 . S
H1287 C1314 0.950 . S
H1288 C1317 0.950 . S
H1289 C1318 0.950 . S
H1290 C1320 0.950 . S
H1291 C1321 0.950 . S
C1292 H1274 0.951 . S
C1292 C1293 1.366 . S
C1292 C1294 1.388 . S
C1293 C1292 1.366 . S
C1293 C1297 1.385 . S
C1294 H1275 0.951 . S
C1294 C1292 1.388 . S
C1294 C1295 1.366 . S
C1295 C1294 1.366 . S
C1295 C1296 1.414 . S
C1295 C1298 1.499 . S
C1296 H1276 0.950 . S
C1296 C1295 1.414 . S
C1296 C1297 1.374 . S
C1297 H1277 0.950 . S
C1297 C1293 1.385 . S
C1297 C1296 1.374 . S
C1298 C1295 1.499 . S
C1298 C1299 1.373 . S
C1298 C1300 1.389 . S
C1299 H1278 0.950 . S
C1299 C1298 1.373 . S
C1299 C1315 1.377 . S
C1300 C1298 1.389 . S
C1300 C1301 1.524 . S
C1300 C1314 1.377 . S
C1301 C1300 1.524 . S
C1301 C1302 1.397 . S
C1301 C1306 1.363 . S
C1302 H1279 0.950 . S
C1302 C1301 1.397 . S
C1302 C1303 1.334 . S
C1303 H1280 0.950 . S
C1303 C1302 1.334 . S
C1303 C1304 1.287 . S
C1304 C1303 1.287 . S
C1304 C1305 1.524 . S
C1304 H1323 0.913 . S
C1305 H1281 0.950 . S
C1305 C1304 1.524 . S
C1305 C1306 1.415 . S
C1306 H1282 0.950 . S
C1306 C1301 1.363 . S
C1306 C1305 1.415 . S
C1307 H1283 0.951 . S
C1307 C1308 1.366 . S
C1307 C1309 1.388 . S
C1308 C1307 1.366 . S
C1308 C1312 1.385 . S
C1309 H1284 0.951 . S
C1309 C1307 1.388 . S
C1309 C1310 1.366 . S
C1310 C1309 1.366 . S
C1310 C1311 1.414 . S
C1310 C1313 1.499 . S
C1311 H1285 0.950 . S
C1311 C1310 1.414 . S
C1311 C1312 1.374 . S
C1312 H1286 0.950 . S
C1312 C1308 1.385 . S
C1312 C1311 1.374 . S
C1313 C1310 1.499 . S
C1313 C1314 1.373 . S
C1313 C1315 1.389 . S
C1314 H1287 0.950 . S
C1314 C1300 1.377 . S
C1314 C1313 1.373 . S
C1315 C1299 1.377 . S
C1315 C1313 1.389 . S
C1315 C1316 1.524 . S
C1316 C1315 1.524 . S
C1316 C1317 1.397 . S
C1316 C1321 1.363 . S
C1317 H1288 0.950 . S
C1317 C1316 1.397 . S
C1317 C1318 1.334 . S
C1318 H1289 0.950 . S
C1318 C1317 1.334 . S
C1318 C1319 1.287 . S
C1319 C1318 1.287 . S
C1319 C1320 1.524 . S
C1319 H1322 0.999 . S
C1320 H1290 0.950 . S
C1320 C1319 1.524 . S
C1320 C1321 1.415 . S
C1321 H1291 0.950 . S
C1321 C1316 1.363 . S
C1321 C1320 1.415 . S
H1322 C1319 0.999 . S
H1323 C1304 0.913 . S
H1324 C1342 0.951 . S
H1325 C1344 0.951 . S
H1326 C1346 0.950 . S
H1327 C1347 0.950 . S
H1328 C1349 0.950 . S
H1329 C1352 0.950 . S
H1330 C1353 0.950 . S
H1331 C1355 0.950 . S
H1332 C1356 0.950 . S
H1333 C1357 0.951 . S
H1334 C1359 0.951 . S
H1335 C1361 0.950 . S
H1336 C1362 0.950 . S
H1337 C1364 0.950 . S
H1338 C1367 0.950 . S
H1339 C1368 0.950 . S
H1340 C1370 0.950 . S
H1341 C1371 0.950 . S
C1342 H1324 0.951 . S
C1342 C1343 1.366 . S
C1342 C1344 1.388 . S
C1343 C1342 1.366 . S
C1343 C1347 1.385 . S
C1344 H1325 0.951 . S
C1344 C1342 1.388 . S
C1344 C1345 1.366 . S
C1345 C1344 1.366 . S
C1345 C1346 1.414 . S
C1345 C1348 1.499 . S
C1346 H1326 0.950 . S
C1346 C1345 1.414 . S
C1346 C1347 1.374 . S
C1347 H1327 0.950 . S
C1347 C1343 1.385 . S
C1347 C1346 1.374 . S
C1348 C1345 1.499 . S
C1348 C1349 1.373 . S
C1348 C1350 1.389 . S
C1349 H1328 0.950 . S
C1349 C1348 1.373 . S
C1349 C1365 1.377 . S
C1350 C1348 1.389 . S
C1350 C1351 1.524 . S
C1350 C1364 1.377 . S
C1351 C1350 1.524 . S
C1351 C1352 1.397 . S
C1351 C1356 1.363 . S
C1352 H1329 0.950 . S
C1352 C1351 1.397 . S
C1352 C1353 1.334 . S
C1353 H1330 0.950 . S
C1353 C1352 1.334 . S
C1353 C1354 1.287 . S
C1354 C1353 1.287 . S
C1354 C1355 1.524 . S
C1354 H1373 0.913 . S
C1355 H1331 0.950 . S
C1355 C1354 1.524 . S
C1355 C1356 1.415 . S
C1356 H1332 0.950 . S
C1356 C1351 1.363 . S
C1356 C1355 1.415 . S
C1357 H1333 0.951 . S
C1357 C1358 1.366 . S
C1357 C1359 1.388 . S
C1358 C1357 1.366 . S
C1358 C1362 1.385 . S
C1359 H1334 0.951 . S
C1359 C1357 1.388 . S
C1359 C1360 1.366 . S
C1360 C1359 1.366 . S
C1360 C1361 1.414 . S
C1360 C1363 1.499 . S
C1361 H1335 0.950 . S
C1361 C1360 1.414 . S
C1361 C1362 1.374 . S
C1362 H1336 0.950 . S
C1362 C1358 1.385 . S
C1362 C1361 1.374 . S
C1363 C1360 1.499 . S
C1363 C1364 1.373 . S
C1363 C1365 1.389 . S
C1364 H1337 0.950 . S
C1364 C1350 1.377 . S
C1364 C1363 1.373 . S
C1365 C1349 1.377 . S
C1365 C1363 1.389 . S
C1365 C1366 1.524 . S
C1366 C1365 1.524 . S
C1366 C1367 1.397 . S
C1366 C1371 1.363 . S
C1367 H1338 0.950 . S
C1367 C1366 1.397 . S
C1367 C1368 1.334 . S
C1368 H1339 0.950 . S
C1368 C1367 1.334 . S
C1368 C1369 1.287 . S
C1369 C1368 1.287 . S
C1369 C1370 1.524 . S
C1369 H1372 0.999 . S
C1370 H1340 0.950 . S
C1370 C1369 1.524 . S
C1370 C1371 1.415 . S
C1371 H1341 0.950 . S
C1371 C1366 1.363 . S
C1371 C1370 1.415 . S
H1372 C1369 0.999 . S
H1373 C1354 0.913 . S
H1374 C1392 0.951 . S
H1375 C1394 0.951 . S
H1376 C1396 0.950 . S
H1377 C1397 0.950 . S
H1378 C1399 0.950 . S
H1379 C1402 0.950 . S
H1380 C1403 0.950 . S
H1381 C1405 0.950 . S
H1382 C1406 0.950 . S
H1383 C1407 0.951 . S
H1384 C1409 0.951 . S
H1385 C1411 0.950 . S
H1386 C1412 0.950 . S
H1387 C1414 0.950 . S
H1388 C1417 0.950 . S
H1389 C1418 0.950 . S
H1390 C1420 0.950 . S
H1391 C1421 0.950 . S
C1392 H1374 0.951 . S
C1392 C1393 1.366 . S
C1392 C1394 1.388 . S
C1393 C1392 1.366 . S
C1393 C1397 1.385 . S
C1394 H1375 0.951 . S
C1394 C1392 1.388 . S
C1394 C1395 1.366 . S
C1395 C1394 1.366 . S
C1395 C1396 1.414 . S
C1395 C1398 1.499 . S
C1396 H1376 0.950 . S
C1396 C1395 1.414 . S
C1396 C1397 1.374 . S
C1397 H1377 0.950 . S
C1397 C1393 1.385 . S
C1397 C1396 1.374 . S
C1398 C1395 1.499 . S
C1398 C1399 1.373 . S
C1398 C1400 1.389 . S
C1399 H1378 0.950 . S
C1399 C1398 1.373 . S
C1399 C1415 1.377 . S
C1400 C1398 1.389 . S
C1400 C1401 1.524 . S
C1400 C1414 1.377 . S
C1401 C1400 1.524 . S
C1401 C1402 1.397 . S
C1401 C1406 1.363 . S
C1402 H1379 0.950 . S
C1402 C1401 1.397 . S
C1402 C1403 1.334 . S
C1403 H1380 0.950 . S
C1403 C1402 1.334 . S
C1403 C1404 1.287 . S
C1404 C1403 1.287 . S
C1404 C1405 1.524 . S
C1404 H1423 0.913 . S
C1405 H1381 0.950 . S
C1405 C1404 1.524 . S
C1405 C1406 1.415 . S
C1406 H1382 0.950 . S
C1406 C1401 1.363 . S
C1406 C1405 1.415 . S
C1407 H1383 0.951 . S
C1407 C1408 1.366 . S
C1407 C1409 1.388 . S
C1408 C1407 1.366 . S
C1408 C1412 1.385 . S
C1409 H1384 0.951 . S
C1409 C1407 1.388 . S
C1409 C1410 1.366 . S
C1410 C1409 1.366 . S
C1410 C1411 1.414 . S
C1410 C1413 1.499 . S
C1411 H1385 0.950 . S
C1411 C1410 1.414 . S
C1411 C1412 1.374 . S
C1412 H1386 0.950 . S
C1412 C1408 1.385 . S
C1412 C1411 1.374 . S
C1413 C1410 1.499 . S
C1413 C1414 1.373 . S
C1413 C1415 1.389 . S
C1414 H1387 0.950 . S
C1414 C1400 1.377 . S
C1414 C1413 1.373 . S
C1415 C1399 1.377 . S
C1415 C1413 1.389 . S
C1415 C1416 1.524 . S
C1416 C1415 1.524 . S
C1416 C1417 1.397 . S
C1416 C1421 1.363 . S
C1417 H1388 0.950 . S
C1417 C1416 1.397 . S
C1417 C1418 1.334 . S
C1418 H1389 0.950 . S
C1418 C1417 1.334 . S
C1418 C1419 1.287 . S
C1419 C1418 1.287 . S
C1419 C1420 1.524 . S
C1419 H1422 0.999 . S
C1420 H1390 0.950 . S
C1420 C1419 1.524 . S
C1420 C1421 1.415 . S
C1421 H1391 0.950 . S
C1421 C1416 1.363 . S
C1421 C1420 1.415 . S
H1422 C1419 0.999 . S
H1423 C1404 0.913 . S
H1424 C1442 0.951 . S
H1425 C1444 0.951 . S
H1426 C1446 0.950 . S
H1427 C1447 0.950 . S
H1428 C1449 0.950 . S
H1429 C1452 0.950 . S
H1430 C1453 0.950 . S
H1431 C1455 0.950 . S
H1432 C1456 0.950 . S
H1433 C1457 0.951 . S
H1434 C1459 0.951 . S
H1435 C1461 0.950 . S
H1436 C1462 0.950 . S
H1437 C1464 0.950 . S
H1438 C1467 0.950 . S
H1439 C1468 0.950 . S
H1440 C1470 0.950 . S
H1441 C1471 0.950 . S
C1442 H1424 0.951 . S
C1442 C1443 1.366 . S
C1442 C1444 1.388 . S
C1443 C1442 1.366 . S
C1443 C1447 1.385 . S
C1444 H1425 0.951 . S
C1444 C1442 1.388 . S
C1444 C1445 1.366 . S
C1445 C1444 1.366 . S
C1445 C1446 1.414 . S
C1445 C1448 1.499 . S
C1446 H1426 0.950 . S
C1446 C1445 1.414 . S
C1446 C1447 1.374 . S
C1447 H1427 0.950 . S
C1447 C1443 1.385 . S
C1447 C1446 1.374 . S
C1448 C1445 1.499 . S
C1448 C1449 1.373 1_455 S
C1448 C1450 1.389 . S
C1449 H1428 0.950 . S
C1449 C1448 1.373 1_655 S
C1449 C1465 1.377 . S
C1450 C1448 1.389 . S
C1450 C1451 1.524 . S
C1450 C1464 1.377 . S
C1451 C1450 1.524 . S
C1451 C1452 1.397 . S
C1451 C1456 1.363 . S
C1452 H1429 0.950 . S
C1452 C1451 1.397 . S
C1452 C1453 1.334 . S
C1453 H1430 0.950 . S
C1453 C1452 1.334 . S
C1453 C1454 1.287 . S
C1454 C1453 1.287 . S
C1454 C1455 1.524 . S
C1454 H1473 0.913 . S
C1455 H1431 0.950 . S
C1455 C1454 1.524 . S
C1455 C1456 1.415 . S
C1456 H1432 0.950 . S
C1456 C1451 1.363 . S
C1456 C1455 1.415 . S
C1457 H1433 0.951 . S
C1457 C1458 1.366 . S
C1457 C1459 1.388 . S
C1458 C1457 1.366 . S
C1458 C1462 1.385 . S
C1459 H1434 0.951 . S
C1459 C1457 1.388 . S
C1459 C1460 1.366 . S
C1460 C1459 1.366 . S
C1460 C1461 1.414 . S
C1460 C1463 1.499 . S
C1461 H1435 0.950 . S
C1461 C1460 1.414 . S
C1461 C1462 1.374 . S
C1462 H1436 0.950 . S
C1462 C1458 1.385 . S
C1462 C1461 1.374 . S
C1463 C1460 1.499 . S
C1463 C1464 1.373 1_655 S
C1463 C1465 1.389 . S
C1464 H1437 0.950 . S
C1464 C1450 1.377 . S
C1464 C1463 1.373 1_455 S
C1465 C1449 1.377 . S
C1465 C1463 1.389 . S
C1465 C1466 1.524 . S
C1466 C1465 1.524 . S
C1466 C1467 1.397 . S
C1466 C1471 1.363 . S
C1467 H1438 0.950 . S
C1467 C1466 1.397 . S
C1467 C1468 1.334 . S
C1468 H1439 0.950 . S
C1468 C1467 1.334 . S
C1468 C1469 1.287 . S
C1469 C1468 1.287 . S
C1469 C1470 1.524 . S
C1469 H1472 0.999 . S
C1470 H1440 0.950 . S
C1470 C1469 1.524 . S
C1470 C1471 1.415 . S
C1471 H1441 0.950 . S
C1471 C1466 1.363 . S
C1471 C1470 1.415 . S
H1472 C1469 0.999 . S
H1473 C1454 0.913 . S
H1474 C1492 0.951 . S
H1475 C1494 0.951 . S
H1476 C1496 0.950 . S
H1477 C1497 0.950 . S
H1478 C1499 0.950 . S
H1479 C1502 0.950 . S
H1480 C1503 0.950 . S
H1481 C1505 0.950 . S
H1482 C1506 0.950 . S
H1483 C1507 0.951 . S
H1484 C1509 0.951 . S
H1485 C1511 0.950 . S
H1486 C1512 0.950 . S
H1487 C1514 0.950 . S
H1488 C1517 0.950 . S
H1489 C1518 0.950 . S
H1490 C1520 0.950 . S
H1491 C1521 0.950 . S
C1492 H1474 0.951 . S
C1492 C1493 1.366 1_545 S
C1492 C1494 1.388 . S
C1493 C1492 1.366 1_565 S
C1493 C1497 1.385 . S
C1494 H1475 0.951 . S
C1494 C1492 1.388 . S
C1494 C1495 1.366 1_545 S
C1495 C1494 1.366 1_565 S
C1495 C1496 1.414 . S
C1495 C1498 1.499 . S
C1496 H1476 0.950 . S
C1496 C1495 1.414 . S
C1496 C1497 1.374 . S
C1497 H1477 0.950 . S
C1497 C1493 1.385 . S
C1497 C1496 1.374 . S
C1498 C1495 1.499 . S
C1498 C1499 1.373 . S
C1498 C1500 1.389 1_565 S
C1499 H1478 0.950 . S
C1499 C1498 1.373 . S
C1499 C1515 1.377 . S
C1500 C1498 1.389 1_545 S
C1500 C1501 1.524 . S
C1500 C1514 1.377 . S
C1501 C1500 1.524 . S
C1501 C1502 1.397 . S
C1501 C1506 1.363 . S
C1502 H1479 0.950 . S
C1502 C1501 1.397 . S
C1502 C1503 1.334 . S
C1503 H1480 0.950 . S
C1503 C1502 1.334 . S
C1503 C1504 1.287 . S
C1504 C1503 1.287 . S
C1504 C1505 1.524 . S
C1504 H1523 0.913 . S
C1505 H1481 0.950 . S
C1505 C1504 1.524 . S
C1505 C1506 1.415 . S
C1506 H1482 0.950 . S
C1506 C1501 1.363 . S
C1506 C1505 1.415 . S
C1507 H1483 0.951 . S
C1507 C1508 1.366 1_565 S
C1507 C1509 1.388 . S
C1508 C1507 1.366 1_545 S
C1508 C1512 1.385 . S
C1509 H1484 0.951 . S
C1509 C1507 1.388 . S
C1509 C1510 1.366 1_565 S
C1510 C1509 1.366 1_545 S
C1510 C1511 1.414 . S
C1510 C1513 1.499 . S
C1511 H1485 0.950 . S
C1511 C1510 1.414 . S
C1511 C1512 1.374 . S
C1512 H1486 0.950 . S
C1512 C1508 1.385 . S
C1512 C1511 1.374 . S
C1513 C1510 1.499 . S
C1513 C1514 1.373 . S
C1513 C1515 1.389 1_545 S
C1514 H1487 0.950 . S
C1514 C1500 1.377 . S
C1514 C1513 1.373 . S
C1515 C1499 1.377 . S
C1515 C1513 1.389 1_565 S
C1515 C1516 1.524 . S
C1516 C1515 1.524 . S
C1516 C1517 1.397 . S
C1516 C1521 1.363 . S
C1517 H1488 0.950 . S
C1517 C1516 1.397 . S
C1517 C1518 1.334 . S
C1518 H1489 0.950 . S
C1518 C1517 1.334 . S
C1518 C1519 1.287 . S
C1519 C1518 1.287 . S
C1519 C1520 1.524 . S
C1519 H1522 0.999 . S
C1520 H1490 0.950 . S
C1520 C1519 1.524 . S
C1520 C1521 1.415 . S
C1521 H1491 0.950 . S
C1521 C1516 1.363 . S
C1521 C1520 1.415 . S
H1522 C1519 0.999 . S
H1523 C1504 0.913 . S
H1524 C1542 0.951 . S
H1525 C1544 0.957 . S
H1526 C1546 0.950 . S
H1527 C1547 0.950 . S
H1528 C1549 0.950 . S
H1529 C1552 0.950 . S
H1530 C1553 0.950 . S
H1531 C1555 0.950 . S
H1532 C1556 0.950 . S
H1533 C1557 0.951 . S
H1534 C1559 0.956 . S
H1535 C1561 0.950 . S
H1536 C1562 0.950 . S
H1537 C1564 0.950 . S
H1538 C1567 0.950 . S
H1539 C1568 0.950 . S
H1540 C1570 0.950 . S
H1541 C1571 0.950 . S
C1542 H1524 0.951 . S
C1542 C1543 1.366 . S
C1542 C1544 1.388 . S
C1543 C1542 1.366 . S
C1543 C1547 1.385 . S
C1544 H1525 0.957 . S
C1544 C1542 1.388 . S
C1544 C1545 1.366 . S
C1545 C1544 1.366 . S
C1545 C1546 1.414 . S
C1545 C1548 1.499 . S
C1546 H1526 0.950 . S
C1546 C1545 1.414 . S
C1546 C1547 1.374 . S
C1547 H1527 0.950 . S
C1547 C1543 1.385 . S
C1547 C1546 1.374 . S
C1548 C1545 1.499 . S
C1548 C1549 1.373 1_455 S
C1548 C1550 1.389 . S
C1549 H1528 0.950 . S
C1549 C1548 1.373 1_655 S
C1549 C1565 1.377 . S
C1550 C1548 1.389 . S
C1550 C1551 1.524 . S
C1550 C1564 1.377 . S
C1551 C1550 1.524 . S
C1551 C1552 1.397 . S
C1551 C1556 1.363 . S
C1552 H1529 0.950 . S
C1552 C1551 1.397 . S
C1552 C1553 1.334 . S
C1553 H1530 0.950 . S
C1553 C1552 1.334 . S
C1553 C1554 1.287 . S
C1554 C1553 1.287 . S
C1554 C1555 1.524 . S
C1554 H1573 0.913 . S
C1555 H1531 0.950 . S
C1555 C1554 1.524 . S
C1555 C1556 1.415 . S
C1556 H1532 0.950 . S
C1556 C1551 1.363 . S
C1556 C1555 1.415 . S
C1557 H1533 0.951 . S
C1557 C1558 1.366 . S
C1557 C1559 1.388 . S
C1558 C1557 1.366 . S
C1558 C1562 1.385 . S
C1559 H1534 0.956 . S
C1559 C1557 1.388 . S
C1559 C1560 1.366 . S
C1560 C1559 1.366 . S
C1560 C1561 1.414 . S
C1560 C1563 1.499 . S
C1561 H1535 0.950 . S
C1561 C1560 1.414 . S
C1561 C1562 1.374 . S
C1562 H1536 0.950 . S
C1562 C1558 1.385 . S
C1562 C1561 1.374 . S
C1563 C1560 1.499 . S
C1563 C1564 1.373 1_655 S
C1563 C1565 1.389 . S
C1564 H1537 0.950 . S
C1564 C1550 1.377 . S
C1564 C1563 1.373 1_455 S
C1565 C1549 1.377 . S
C1565 C1563 1.389 . S
C1565 C1566 1.524 . S
C1566 C1565 1.524 . S
C1566 C1567 1.397 . S
C1566 C1571 1.363 . S
C1567 H1538 0.950 . S
C1567 C1566 1.397 . S
C1567 C1568 1.334 . S
C1568 H1539 0.950 . S
C1568 C1567 1.334 . S
C1568 C1569 1.287 . S
C1569 C1568 1.287 . S
C1569 C1570 1.524 . S
C1569 H1572 0.999 . S
C1570 H1540 0.950 . S
C1570 C1569 1.524 . S
C1570 C1571 1.415 . S
C1571 H1541 0.950 . S
C1571 C1566 1.363 . S
C1571 C1570 1.415 . S
H1572 C1569 0.999 . S
H1573 C1554 0.913 . S
H1574 C1592 0.951 . S
H1575 C1594 0.951 . S
H1576 C1596 0.950 . S
H1577 C1597 0.954 . S
H1578 C1599 0.950 . S
H1579 C1602 0.950 . S
H1580 C1603 0.950 . S
H1581 C1605 0.950 . S
H1582 C1606 0.950 . S
H1583 C1607 0.951 . S
H1584 C1609 0.951 . S
H1585 C1611 0.950 . S
H1586 C1612 0.954 . S
H1587 C1614 0.950 . S
H1588 C1617 0.950 . S
H1589 C1618 0.950 . S
H1590 C1620 0.950 . S
H1591 C1621 0.950 . S
C1592 H1574 0.951 . S
C1592 C1593 1.366 . S
C1592 C1594 1.388 . S
C1593 C1592 1.366 . S
C1593 C1597 1.379 1_545 S
C1594 H1575 0.951 . S
C1594 C1592 1.388 . S
C1594 C1595 1.366 . S
C1595 C1594 1.366 . S
C1595 C1596 1.414 1_545 S
C1595 C1598 1.499 . S
C1596 H1576 0.950 . S
C1596 C1595 1.414 1_565 S
C1596 C1597 1.375 . S
C1597 H1577 0.954 . S
C1597 C1593 1.379 1_565 S
C1597 C1596 1.375 . S
C1598 C1595 1.499 . S
C1598 C1599 1.373 . S
C1598 C1600 1.386 1_545 S
C1599 H1578 0.950 . S
C1599 C1598 1.373 . S
C1599 C1615 1.380 . S
C1600 C1598 1.386 1_565 S
C1600 C1601 1.528 . S
C1600 C1614 1.380 . S
C1601 C1600 1.528 . S
C1601 C1602 1.397 . S
C1601 C1606 1.363 1_565 S
C1602 H1579 0.950 . S
C1602 C1601 1.397 . S
C1602 C1603 1.334 . S
C1603 H1580 0.950 . S
C1603 C1602 1.334 . S
C1603 C1604 1.287 . S
C1604 C1603 1.287 . S
C1604 C1605 1.524 1_565 S
C1604 H1623 0.913 . S
C1605 H1581 0.950 . S
C1605 C1604 1.524 1_545 S
C1605 C1606 1.415 . S
C1606 H1582 0.950 . S
C1606 C1601 1.363 1_545 S
C1606 C1605 1.415 . S
C1607 H1583 0.951 . S
C1607 C1608 1.366 . S
C1607 C1609 1.388 . S
C1608 C1607 1.366 . S
C1608 C1612 1.379 1_565 S
C1609 H1584 0.951 . S
C1609 C1607 1.388 . S
C1609 C1610 1.366 . S
C1610 C1609 1.366 . S
C1610 C1611 1.414 1_565 S
C1610 C1613 1.499 . S
C1611 H1585 0.950 . S
C1611 C1610 1.414 1_545 S
C1611 C1612 1.375 . S
C1612 H1586 0.954 . S
C1612 C1608 1.379 1_545 S
C1612 C1611 1.375 . S
C1613 C1610 1.499 . S
C1613 C1614 1.373 . S
C1613 C1615 1.386 1_565 S
C1614 H1587 0.950 . S
C1614 C1600 1.380 . S
C1614 C1613 1.373 . S
C1615 C1599 1.380 . S
C1615 C1613 1.386 1_545 S
C1615 C1616 1.528 . S
C1616 C1615 1.528 . S
C1616 C1617 1.397 . S
C1616 C1621 1.363 1_545 S
C1617 H1588 0.950 . S
C1617 C1616 1.397 . S
C1617 C1618 1.334 . S
C1618 H1589 0.950 . S
C1618 C1617 1.334 . S
C1618 C1619 1.287 . S
C1619 C1618 1.287 . S
C1619 C1620 1.524 1_545 S
C1619 H1622 0.999 . S
C1620 H1590 0.950 . S
C1620 C1619 1.524 1_565 S
C1620 C1621 1.415 . S
C1621 H1591 0.950 . S
C1621 C1616 1.363 1_565 S
C1621 C1620 1.415 . S
H1622 C1619 0.999 . S
H1623 C1604 0.913 . S
H1624 C1642 0.951 . S
H1625 C1644 0.951 . S
H1626 C1646 0.950 . S
H1627 C1647 0.950 . S
H1628 C1649 0.950 . S
H1629 C1652 0.950 . S
H1630 C1653 0.950 . S
H1631 C1655 0.950 . S
H1632 C1656 0.950 . S
H1633 C1657 0.951 . S
H1634 C1659 0.951 . S
H1635 C1661 0.950 . S
H1636 C1662 0.950 . S
H1637 C1664 0.950 . S
H1638 C1667 0.950 . S
H1639 C1668 0.950 . S
H1640 C1670 0.950 . S
H1641 C1671 0.950 . S
C1642 H1624 0.951 . S
C1642 C1643 1.366 . S
C1642 C1644 1.388 . S
C1643 C1642 1.366 . S
C1643 C1647 1.385 . S
C1644 H1625 0.951 . S
C1644 C1642 1.388 . S
C1644 C1645 1.366 . S
C1645 C1644 1.366 . S
C1645 C1646 1.414 . S
C1645 C1648 1.499 . S
C1646 H1626 0.950 . S
C1646 C1645 1.414 . S
C1646 C1647 1.374 . S
C1647 H1627 0.950 . S
C1647 C1643 1.385 . S
C1647 C1646 1.374 . S
C1648 C1645 1.499 . S
C1648 C1649 1.373 . S
C1648 C1650 1.389 . S
C1649 H1628 0.950 . S
C1649 C1648 1.373 . S
C1649 C1665 1.377 1_556 S
C1650 C1648 1.389 . S
C1650 C1651 1.524 . S
C1650 C1664 1.377 1_556 S
C1651 C1650 1.524 . S
C1651 C1652 1.397 . S
C1651 C1656 1.363 . S
C1652 H1629 0.950 . S
C1652 C1651 1.397 . S
C1652 C1653 1.334 . S
C1653 H1630 0.950 . S
C1653 C1652 1.334 . S
C1653 C1654 1.287 . S
C1654 C1653 1.287 . S
C1654 C1655 1.524 . S
C1654 H1673 0.913 . S
C1655 H1631 0.950 . S
C1655 C1654 1.524 . S
C1655 C1656 1.415 . S
C1656 H1632 0.950 . S
C1656 C1651 1.363 . S
C1656 C1655 1.415 . S
C1657 H1633 0.951 . S
C1657 C1658 1.366 . S
C1657 C1659 1.388 . S
C1658 C1657 1.366 . S
C1658 C1662 1.385 . S
C1659 H1634 0.951 . S
C1659 C1657 1.388 . S
C1659 C1660 1.366 . S
C1660 C1659 1.366 . S
C1660 C1661 1.414 . S
C1660 C1663 1.499 . S
C1661 H1635 0.950 . S
C1661 C1660 1.414 . S
C1661 C1662 1.374 . S
C1662 H1636 0.950 . S
C1662 C1658 1.385 . S
C1662 C1661 1.374 . S
C1663 C1660 1.499 . S
C1663 C1664 1.373 . S
C1663 C1665 1.389 . S
C1664 H1637 0.950 . S
C1664 C1650 1.377 1_554 S
C1664 C1663 1.373 . S
C1665 C1649 1.377 1_554 S
C1665 C1663 1.389 . S
C1665 C1666 1.524 . S
C1666 C1665 1.524 . S
C1666 C1667 1.397 . S
C1666 C1671 1.363 . S
C1667 H1638 0.950 . S
C1667 C1666 1.397 . S
C1667 C1668 1.334 . S
C1668 H1639 0.950 . S
C1668 C1667 1.334 . S
C1668 C1669 1.287 . S
C1669 C1668 1.287 . S
C1669 C1670 1.524 . S
C1669 H1672 0.999 . S
C1670 H1640 0.950 . S
C1670 C1669 1.524 . S
C1670 C1671 1.415 . S
C1671 H1641 0.950 . S
C1671 C1666 1.363 . S
C1671 C1670 1.415 . S
H1672 C1669 0.999 . S
H1673 C1654 0.913 . S
H1674 C1692 0.951 . S
H1675 C1694 0.951 . S
H1676 C1696 0.950 . S
H1677 C1697 0.950 . S
H1678 C1699 0.950 . S
H1679 C1702 0.950 . S
H1680 C1703 0.950 . S
H1681 C1705 0.950 . S
H1682 C1706 0.950 . S
H1683 C1707 0.951 . S
H1684 C1709 0.951 . S
H1685 C1711 0.950 . S
H1686 C1712 0.950 . S
H1687 C1714 0.950 . S
H1688 C1717 0.950 . S
H1689 C1718 0.950 . S
H1690 C1720 0.950 . S
H1691 C1721 0.950 . S
C1692 H1674 0.951 . S
C1692 C1693 1.366 . S
C1692 C1694 1.388 . S
C1693 C1692 1.366 . S
C1693 C1697 1.385 . S
C1694 H1675 0.951 . S
C1694 C1692 1.388 . S
C1694 C1695 1.366 . S
C1695 C1694 1.366 . S
C1695 C1696 1.414 . S
C1695 C1698 1.499 . S
C1696 H1676 0.950 . S
C1696 C1695 1.414 . S
C1696 C1697 1.374 . S
C1697 H1677 0.950 . S
C1697 C1693 1.385 . S
C1697 C1696 1.374 . S
C1698 C1695 1.499 . S
C1698 C1699 1.373 . S
C1698 C1700 1.389 . S
C1699 H1678 0.950 . S
C1699 C1698 1.373 . S
C1699 C1715 1.377 1_556 S
C1700 C1698 1.389 . S
C1700 C1701 1.524 . S
C1700 C1714 1.377 1_556 S
C1701 C1700 1.524 . S
C1701 C1702 1.397 . S
C1701 C1706 1.363 . S
C1702 H1679 0.950 . S
C1702 C1701 1.397 . S
C1702 C1703 1.334 . S
C1703 H1680 0.950 . S
C1703 C1702 1.334 . S
C1703 C1704 1.287 . S
C1704 C1703 1.287 . S
C1704 C1705 1.524 . S
C1704 H1723 0.913 . S
C1705 H1681 0.950 . S
C1705 C1704 1.524 . S
C1705 C1706 1.415 . S
C1706 H1682 0.950 . S
C1706 C1701 1.363 . S
C1706 C1705 1.415 . S
C1707 H1683 0.951 . S
C1707 C1708 1.366 . S
C1707 C1709 1.388 . S
C1708 C1707 1.366 . S
C1708 C1712 1.385 . S
C1709 H1684 0.951 . S
C1709 C1707 1.388 . S
C1709 C1710 1.366 . S
C1710 C1709 1.366 . S
C1710 C1711 1.414 . S
C1710 C1713 1.499 . S
C1711 H1685 0.950 . S
C1711 C1710 1.414 . S
C1711 C1712 1.374 . S
C1712 H1686 0.950 . S
C1712 C1708 1.385 . S
C1712 C1711 1.374 . S
C1713 C1710 1.499 . S
C1713 C1714 1.373 . S
C1713 C1715 1.389 . S
C1714 H1687 0.950 . S
C1714 C1700 1.377 1_554 S
C1714 C1713 1.373 . S
C1715 C1699 1.377 1_554 S
C1715 C1713 1.389 . S
C1715 C1716 1.524 . S
C1716 C1715 1.524 . S
C1716 C1717 1.397 . S
C1716 C1721 1.363 . S
C1717 H1688 0.950 . S
C1717 C1716 1.397 . S
C1717 C1718 1.334 . S
C1718 H1689 0.950 . S
C1718 C1717 1.334 . S
C1718 C1719 1.287 . S
C1719 C1718 1.287 . S
C1719 C1720 1.524 . S
C1719 H1722 0.999 . S
C1720 H1690 0.950 . S
C1720 C1719 1.524 . S
C1720 C1721 1.415 . S
C1721 H1691 0.950 . S
C1721 C1716 1.363 . S
C1721 C1720 1.415 . S
H1722 C1719 0.999 . S
H1723 C1704 0.913 . S
H1724 C1742 0.951 . S
H1725 C1744 0.951 . S
H1726 C1746 0.950 . S
H1727 C1747 0.950 . S
H1728 C1749 0.950 . S
H1729 C1752 0.950 . S
H1730 C1753 0.950 . S
H1731 C1755 0.950 . S
H1732 C1756 0.950 . S
H1733 C1757 0.951 . S
H1734 C1759 0.951 . S
H1735 C1761 0.950 . S
H1736 C1762 0.950 . S
H1737 C1764 0.950 . S
H1738 C1767 0.950 . S
H1739 C1768 0.950 . S
H1740 C1770 0.950 . S
H1741 C1771 0.950 . S
C1742 H1724 0.951 . S
C1742 C1743 1.366 . S
C1742 C1744 1.388 . S
C1743 C1742 1.366 . S
C1743 C1747 1.385 . S
C1744 H1725 0.951 . S
C1744 C1742 1.388 . S
C1744 C1745 1.366 . S
C1745 C1744 1.366 . S
C1745 C1746 1.414 . S
C1745 C1748 1.499 . S
C1746 H1726 0.950 . S
C1746 C1745 1.414 . S
C1746 C1747 1.374 . S
C1747 H1727 0.950 . S
C1747 C1743 1.385 . S
C1747 C1746 1.374 . S
C1748 C1745 1.499 . S
C1748 C1749 1.373 . S
C1748 C1750 1.389 . S
C1749 H1728 0.950 . S
C1749 C1748 1.373 . S
C1749 C1765 1.377 1_554 S
C1750 C1748 1.389 . S
C1750 C1751 1.524 . S
C1750 C1764 1.377 1_554 S
C1751 C1750 1.524 . S
C1751 C1752 1.397 . S
C1751 C1756 1.363 . S
C1752 H1729 0.950 . S
C1752 C1751 1.397 . S
C1752 C1753 1.334 . S
C1753 H1730 0.950 . S
C1753 C1752 1.334 . S
C1753 C1754 1.287 . S
C1754 C1753 1.287 . S
C1754 C1755 1.524 . S
C1754 H1773 0.913 . S
C1755 H1731 0.950 . S
C1755 C1754 1.524 . S
C1755 C1756 1.415 . S
C1756 H1732 0.950 . S
C1756 C1751 1.363 . S
C1756 C1755 1.415 . S
C1757 H1733 0.951 . S
C1757 C1758 1.366 . S
C1757 C1759 1.388 . S
C1758 C1757 1.366 . S
C1758 C1762 1.385 . S
C1759 H1734 0.951 . S
C1759 C1757 1.388 . S
C1759 C1760 1.366 . S
C1760 C1759 1.366 . S
C1760 C1761 1.414 . S
C1760 C1763 1.499 . S
C1761 H1735 0.950 . S
C1761 C1760 1.414 . S
C1761 C1762 1.374 . S
C1762 H1736 0.950 . S
C1762 C1758 1.385 . S
C1762 C1761 1.374 . S
C1763 C1760 1.499 . S
C1763 C1764 1.373 . S
C1763 C1765 1.389 . S
C1764 H1737 0.950 . S
C1764 C1750 1.377 1_556 S
C1764 C1763 1.373 . S
C1765 C1749 1.377 1_556 S
C1765 C1763 1.389 . S
C1765 C1766 1.524 . S
C1766 C1765 1.524 . S
C1766 C1767 1.397 . S
C1766 C1771 1.363 . S
C1767 H1738 0.950 . S
C1767 C1766 1.397 . S
C1767 C1768 1.334 . S
C1768 H1739 0.950 . S
C1768 C1767 1.334 . S
C1768 C1769 1.287 . S
C1769 C1768 1.287 . S
C1769 C1770 1.524 . S
C1769 H1772 0.999 . S
C1770 H1740 0.950 . S
C1770 C1769 1.524 . S
C1770 C1771 1.415 . S
C1771 H1741 0.950 . S
C1771 C1766 1.363 . S
C1771 C1770 1.415 . S
H1772 C1769 0.999 . S
H1773 C1754 0.913 . S
H1774 C1792 0.951 . S
H1775 C1794 0.951 . S
H1776 C1796 0.950 . S
H1777 C1797 0.950 . S
H1778 C1799 0.950 . S
H1779 C1802 0.950 . S
H1780 C1803 0.950 . S
H1781 C1805 0.950 . S
H1782 C1806 0.950 . S
H1783 C1807 0.951 . S
H1784 C1809 0.951 . S
H1785 C1811 0.950 . S
H1786 C1812 0.950 . S
H1787 C1814 0.950 . S
H1788 C1817 0.950 . S
H1789 C1818 0.950 . S
H1790 C1820 0.950 . S
H1791 C1821 0.950 . S
C1792 H1774 0.951 . S
C1792 C1793 1.366 . S
C1792 C1794 1.388 . S
C1793 C1792 1.366 . S
C1793 C1797 1.385 . S
C1794 H1775 0.951 . S
C1794 C1792 1.388 . S
C1794 C1795 1.366 . S
C1795 C1794 1.366 . S
C1795 C1796 1.414 . S
C1795 C1798 1.499 . S
C1796 H1776 0.950 . S
C1796 C1795 1.414 . S
C1796 C1797 1.374 . S
C1797 H1777 0.950 . S
C1797 C1793 1.385 . S
C1797 C1796 1.374 . S
C1798 C1795 1.499 . S
C1798 C1799 1.373 . S
C1798 C1800 1.389 . S
C1799 H1778 0.950 . S
C1799 C1798 1.373 . S
C1799 C1815 1.377 1_556 S
C1800 C1798 1.389 . S
C1800 C1801 1.524 . S
C1800 C1814 1.377 1_556 S
C1801 C1800 1.524 . S
C1801 C1802 1.397 . S
C1801 C1806 1.363 . S
C1802 H1779 0.950 . S
C1802 C1801 1.397 . S
C1802 C1803 1.334 . S
C1803 H1780 0.950 . S
C1803 C1802 1.334 . S
C1803 C1804 1.287 . S
C1804 C1803 1.287 . S
C1804 C1805 1.524 . S
C1804 H1823 0.913 . S
C1805 H1781 0.950 . S
C1805 C1804 1.524 . S
C1805 C1806 1.415 . S
C1806 H1782 0.950 . S
C1806 C1801 1.363 . S
C1806 C1805 1.415 . S
C1807 H1783 0.951 . S
C1807 C1808 1.366 . S
C1807 C1809 1.388 . S
C1808 C1807 1.366 . S
C1808 C1812 1.385 . S
C1809 H1784 0.951 . S
C1809 C1807 1.388 . S
C1809 C1810 1.366 . S
C1810 C1809 1.366 . S
C1810 C1811 1.414 . S
C1810 C1813 1.499 . S
C1811 H1785 0.950 . S
C1811 C1810 1.414 . S
C1811 C1812 1.374 . S
C1812 H1786 0.950 . S
C1812 C1808 1.385 . S
C1812 C1811 1.374 . S
C1813 C1810 1.499 . S
C1813 C1814 1.373 . S
C1813 C1815 1.389 . S
C1814 H1787 0.950 . S
C1814 C1800 1.377 1_554 S
C1814 C1813 1.373 . S
C1815 C1799 1.377 1_554 S
C1815 C1813 1.389 . S
C1815 C1816 1.524 . S
C1816 C1815 1.524 . S
C1816 C1817 1.397 . S
C1816 C1821 1.363 . S
C1817 H1788 0.950 . S
C1817 C1816 1.397 . S
C1817 C1818 1.334 . S
C1818 H1789 0.950 . S
C1818 C1817 1.334 . S
C1818 C1819 1.287 . S
C1819 C1818 1.287 . S
C1819 C1820 1.524 . S
C1819 H1822 0.999 . S
C1820 H1790 0.950 . S
C1820 C1819 1.524 . S
C1820 C1821 1.415 . S
C1821 H1791 0.950 . S
C1821 C1816 1.363 . S
C1821 C1820 1.415 . S
H1822 C1819 0.999 . S
H1823 C1804 0.913 . S
C243 C7 1.381 . S
C258 C51 1.366 . S
C293 C9 1.365 . S
C308 C21 1.381 . S
C343 C23 1.365 . S
C358 C35 1.382 . S
C393 C37 1.364 . S
C408 C49 1.382 . S
C443 C63 1.382 . S
C458 C79 1.365 . S
C493 C77 1.381 . S
C508 C93 1.366 . S
C543 C91 1.381 . S
C558 C107 1.366 . S
C593 C105 1.381 . S
C608 C65 1.365 . S
C643 C119 1.381 . S
C658 C163 1.366 . S
C693 C121 1.365 . S
C708 C133 1.382 . S
C743 C135 1.365 . S
C758 C147 1.382 . S
C793 C161 1.381 . S
C808 C149 1.365 . S
C843 C191 1.365 . S
C858 C175 1.381 . S
C893 C205 1.364 . S
C908 C189 1.382 . S
C943 C203 1.383 . S
C958 C219 1.364 . S
C993 C217 1.382 . S
C1008 C177 1.364 . S
C1043 C8 1.106 . S
C1058 C218 1.106 . S
C1093 C22 1.106 . S
C1108 C176 1.106 . S
C1143 C190 1.107 . S
C1158 C36 1.106 . S
C1193 C50 1.106 . S
C1208 C204 1.106 . S
C1243 C134 1.105 . S
C1258 C64 1.106 . S
C1293 C148 1.107 . S
C1308 C78 1.106 . S
C1343 C92 1.106 . S
C1358 C162 1.106 . S
C1393 C106 1.106 . S
C1408 C120 1.106 . S
C1443 C3 1.623 . S
C1458 C87 1.623 . S
C1493 C101 1.623 . S
C1508 C17 1.623 . S
C1543 C59 1.623 . S
C1558 C31 1.623 . S
C1593 C73 1.623 . S
C1608 C45 1.623 . S
C1643 C115 1.623 . S
C1658 C199 1.623 . S
C1693 C129 1.623 . S
C1708 C213 1.623 . S
C1743 C171 1.623 . S
C1758 C143 1.623 . S
C1793 C157 1.623 . S
C1808 C185 1.623 . S
