# Generated by pormake.
# Topology wme, (6)-cn, num edge types: 1
# Building blocks:
#     Node 0, Type 0, BuildingBlock: KUMBOL_clean_sbu_0, # of connection points: 6
#     Node 1, Type 0, BuildingBlock: KUMBOL_clean_sbu_0, # of connection points: 6
#     Node 2, Type 0, BuildingBlock: KUMBOL_clean_sbu_0, # of connection points: 6
#     Node 3, Type 0, BuildingBlock: KUMBOL_clean_sbu_0, # of connection points: 6
#     Node 4, Type 0, BuildingBlock: KUMBOL_clean_sbu_0, # of connection points: 6
#     Node 5, Type 0, BuildingBlock: KUMBOL_clean_sbu_0, # of connection points: 6
#     Node 6, Type 0, BuildingBlock: KUMBOL_clean_sbu_0, # of connection points: 6
#     Node 7, Type 0, BuildingBlock: KUMBOL_clean_sbu_0, # of connection points: 6
#     Node 8, Type 0, BuildingBlock: KUMBOL_clean_sbu_0, # of connection points: 6
#     Node 9, Type 0, BuildingBlock: KUMBOL_clean_sbu_0, # of connection points: 6
#     Node 10, Type 0, BuildingBlock: KUMBOL_clean_sbu_0, # of connection points: 6
#     Node 11, Type 0, BuildingBlock: KUMBOL_clean_sbu_0, # of connection points: 6
#     Edge 12, Type (0, 0), BuildingBlock: CIFDUS_clean_linker_0, # of connection points: 2
#     Edge 13, Type (0, 0), BuildingBlock: CIFDUS_clean_linker_0, # of connection points: 2
#     Edge 14, Type (0, 0), BuildingBlock: CIFDUS_clean_linker_0, # of connection points: 2
#     Edge 15, Type (0, 0), BuildingBlock: CIFDUS_clean_linker_0, # of connection points: 2
#     Edge 16, Type (0, 0), BuildingBlock: CIFDUS_clean_linker_0, # of connection points: 2
#     Edge 17, Type (0, 0), BuildingBlock: CIFDUS_clean_linker_0, # of connection points: 2
#     Edge 18, Type (0, 0), BuildingBlock: CIFDUS_clean_linker_0, # of connection points: 2
#     Edge 19, Type (0, 0), BuildingBlock: CIFDUS_clean_linker_0, # of connection points: 2
#     Edge 20, Type (0, 0), BuildingBlock: CIFDUS_clean_linker_0, # of connection points: 2
#     Edge 21, Type (0, 0), BuildingBlock: CIFDUS_clean_linker_0, # of connection points: 2
#     Edge 22, Type (0, 0), BuildingBlock: CIFDUS_clean_linker_0, # of connection points: 2
#     Edge 23, Type (0, 0), BuildingBlock: CIFDUS_clean_linker_0, # of connection points: 2
#     Edge 24, Type (0, 0), BuildingBlock: CIFDUS_clean_linker_0, # of connection points: 2
#     Edge 25, Type (0, 0), BuildingBlock: CIFDUS_clean_linker_0, # of connection points: 2
#     Edge 26, Type (0, 0), BuildingBlock: CIFDUS_clean_linker_0, # of connection points: 2
#     Edge 27, Type (0, 0), BuildingBlock: CIFDUS_clean_linker_0, # of connection points: 2
#     Edge 28, Type (0, 0), BuildingBlock: CIFDUS_clean_linker_0, # of connection points: 2
#     Edge 29, Type (0, 0), BuildingBlock: CIFDUS_clean_linker_0, # of connection points: 2
#     Edge 30, Type (0, 0), BuildingBlock: CIFDUS_clean_linker_0, # of connection points: 2
#     Edge 31, Type (0, 0), BuildingBlock: CIFDUS_clean_linker_0, # of connection points: 2
#     Edge 32, Type (0, 0), BuildingBlock: CIFDUS_clean_linker_0, # of connection points: 2
#     Edge 33, Type (0, 0), BuildingBlock: CIFDUS_clean_linker_0, # of connection points: 2
#     Edge 34, Type (0, 0), BuildingBlock: CIFDUS_clean_linker_0, # of connection points: 2
#     Edge 35, Type (0, 0), BuildingBlock: CIFDUS_clean_linker_0, # of connection points: 2
#     Edge 36, Type (0, 0), BuildingBlock: CIFDUS_clean_linker_0, # of connection points: 2
#     Edge 37, Type (0, 0), BuildingBlock: CIFDUS_clean_linker_0, # of connection points: 2
#     Edge 38, Type (0, 0), BuildingBlock: CIFDUS_clean_linker_0, # of connection points: 2
#     Edge 39, Type (0, 0), BuildingBlock: CIFDUS_clean_linker_0, # of connection points: 2
#     Edge 40, Type (0, 0), BuildingBlock: CIFDUS_clean_linker_0, # of connection points: 2
#     Edge 41, Type (0, 0), BuildingBlock: CIFDUS_clean_linker_0, # of connection points: 2
#     Edge 42, Type (0, 0), BuildingBlock: CIFDUS_clean_linker_0, # of connection points: 2
#     Edge 43, Type (0, 0), BuildingBlock: CIFDUS_clean_linker_0, # of connection points: 2
#     Edge 44, Type (0, 0), BuildingBlock: CIFDUS_clean_linker_0, # of connection points: 2
#     Edge 45, Type (0, 0), BuildingBlock: CIFDUS_clean_linker_0, # of connection points: 2
#     Edge 46, Type (0, 0), BuildingBlock: CIFDUS_clean_linker_0, # of connection points: 2
#     Edge 47, Type (0, 0), BuildingBlock: CIFDUS_clean_linker_0, # of connection points: 2
# Relax obj value: 0.093
# Max RMSD: 0.212
# Mean RMSD: 0.212
data_MOF--net-wme--node1-KUMBOL_clean_sbu_0--edge1-CIFDUS_clean_linker_0
_symmetry_space_group_name_H-M    P1
_symmetry_Int_Tables_number       1
_symmetry_cell_setting            triclinic
loop_
_symmetry_equiv_pos_as_xyz
'x, y, z'
_cell_length_a     34.592339
_cell_length_b     34.565425
_cell_length_c     47.77634
_cell_angle_alpha  90.016733
_cell_angle_beta   90.114572
_cell_angle_gamma 119.79128
loop_
_atom_site_label
_atom_site_type_symbol
_atom_site_fract_x
_atom_site_fract_y
_atom_site_fract_z
_atom_type_partial_charge
Gd0 Gd 0.25363 0.30489 0.1241 0.0
Gd1 Gd 0.20423 0.37307 0.10859 0.0
C2 C 0.06899 0.34187 0.1441 0.0
C3 C 1.01724 0.28366 0.11284 0.0
C4 C 0.09729 0.31579 0.10655 0.0
C5 C 0.10505 0.34303 0.12952 0.0
C6 C 0.05318 0.28599 0.09784 0.0
C7 C 1.02513 0.31162 0.13589 0.0
C8 C 0.07806 0.37206 0.16601 0.0
C9 C 0.12208 0.40382 0.17198 0.0
N10 N 0.14779 0.37198 0.13692 0.0
C11 C 0.15655 0.4041 0.15662 0.0
H12 H 0.19048 0.42995 0.1607 0.0
C13 C 0.12613 0.29475 0.06846 0.0
N14 N 0.13279 0.31893 0.09241 0.0
C15 C 0.08311 0.26452 0.05919 0.0
C16 C 0.04643 0.25982 0.07406 0.0
H17 H 0.15352 0.29891 0.05594 0.0
H18 H 0.99709 0.31 0.147 0.0
H19 H 0.32175 0.35148 0.06952 0.0
H20 H 0.05133 0.37213 0.17774 0.0
H21 H 0.12949 0.4285 0.18815 0.0
H22 H 0.98322 0.26074 0.10658 0.0
H23 H 0.2446 0.25757 0.18635 0.0
H24 H 0.45608 0.41841 0.09968 0.0
H25 H 0.40242 0.39755 0.0605 0.0
H26 H 0.44004 0.37246 0.19555 0.0
H27 H 0.07829 0.24525 0.04033 0.0
H28 H 1.01313 0.23655 0.06673 0.0
H29 H 0.46975 0.40967 0.15041 0.0
H30 H 0.29353 0.26293 0.22583 0.0
N31 N 0.32959 0.34793 0.1133 0.0
C32 C 0.4207 0.39842 0.10374 0.0
C33 C 0.39054 0.38656 0.08155 0.0
C34 C 0.40492 0.3824 0.13064 0.0
C35 C 0.35854 0.35652 0.13476 0.0
C36 C 0.34483 0.3606 0.0867 0.0
N37 N 0.29728 0.30845 0.16266 0.0
C38 C 0.34187 0.33591 0.16024 0.0
C39 C 0.3075 0.28392 0.20761 0.0
C40 C 0.35315 0.31434 0.20631 0.0
C41 C 0.27991 0.28096 0.18529 0.0
C42 C 0.37103 0.34016 0.18218 0.0
H43 H 0.37447 0.31649 0.22359 0.0
O44 O 0.22525 0.23355 0.13069 0.0
O45 O 0.18927 0.30371 0.11638 0.0
O46 O 0.21197 0.37095 0.15651 0.0
O47 O 0.26106 0.34352 0.16335 0.0
O48 O 0.19286 0.2697 0.15137 0.0
O49 O 0.2741 0.26633 0.09827 0.0
O50 O 0.19266 0.40085 0.07067 0.0
O51 O 0.26885 0.37263 0.10764 0.0
O52 O 0.22547 0.29295 0.08097 0.0
O53 O 0.23306 0.36016 0.06818 0.0
O54 O 0.26797 0.42554 0.12773 0.0
O55 O 0.21612 0.44137 0.10775 0.0
C56 C 0.16743 0.27988 0.13711 0.0
C57 C 0.41711 0.36825 0.17879 0.0
C58 C 0.43403 0.38944 0.15308 0.0
C59 C 0.24947 0.22914 0.11158 0.0
C60 C 0.2703 0.20233 0.11936 0.0
C61 C 0.3127 0.22242 0.13175 0.0
C62 C 0.24689 0.15578 0.11517 0.0
C63 C 0.26528 0.12941 0.12398 0.0
C64 C 0.33112 0.19645 0.14038 0.0
C65 C 0.30751 0.15024 0.13673 0.0
C66 C 0.2387 0.36274 0.1726 0.0
C67 C 0.2933 0.41008 0.11977 0.0
C68 C 0.19863 0.43706 0.08308 0.0
C69 C 0.16226 0.44829 0.08064 0.0
C70 C 0.12038 0.41655 0.07001 0.0
C71 C 0.16857 0.49027 0.08947 0.0
C72 C 0.13358 0.50039 0.08727 0.0
C73 C 0.08577 0.4261 0.06817 0.0
C74 C 0.09223 0.46752 0.07662 0.0
C75 C 0.2341 0.32318 0.06186 0.0
H76 H 0.3315 0.25809 0.13486 0.0
H77 H 0.21405 0.14002 0.10568 0.0
H78 H 0.36376 0.21219 0.15005 0.0
H79 H 0.3224 0.13073 0.14365 0.0
H80 H 0.11408 0.38406 0.06318 0.0
H81 H 0.20069 0.51507 0.09765 0.0
H82 H 0.05364 0.40116 0.06013 0.0
H83 H 0.06448 0.47365 0.0751 0.0
Gd84 Gd 0.96515 0.25511 0.63394 0.0
Gd85 Gd 0.84904 0.19202 0.60703 0.0
C86 C 0.78797 0.04283 0.58937 0.0
C87 C 0.77974 0.03991 0.53879 0.0
C88 C 0.81118 0.11085 0.56325 0.0
C89 C 0.80716 0.08962 0.58843 0.0
C90 C 0.7966 0.08614 0.53818 0.0
C91 C 0.77553 1.01825 0.56433 0.0
C92 C 0.78016 0.02203 0.61548 0.0
C93 C 0.78974 0.04761 0.6398 0.0
N94 N 0.81845 0.11434 0.61224 0.0
C95 C 0.80843 0.09388 0.63779 0.0
H96 H 0.81557 0.11304 0.6568 0.0
C97 C 0.82441 0.17656 0.53989 0.0
N98 N 0.82597 0.15522 0.56361 0.0
C99 C 0.81098 0.15367 0.51441 0.0
C100 C 0.79755 0.10833 0.51347 0.0
H101 H 0.83482 0.21166 0.54056 0.0
H102 H 0.76116 0.98235 0.56458 0.0
H103 H 0.99829 0.34223 0.58985 0.0
H104 H 0.76564 0.9862 0.61711 0.0
H105 H 0.78292 0.03175 0.66011 0.0
H106 H 0.76822 0.02047 0.51977 0.0
H107 H 0.97931 0.22227 0.69695 0.0
H108 H 0.06065 0.46237 0.63781 0.0
H109 H 0.03522 0.42381 0.59225 0.0
H110 H 0.06415 0.41162 0.7306 0.0
H111 H 0.81088 0.17096 0.49555 0.0
H112 H 0.78671 0.09052 0.49376 0.0
H113 H 0.07085 0.45746 0.6895 0.0
H114 H 1.00991 0.25515 0.74323 0.0
N115 N 1.00098 0.33362 0.63387 0.0
C116 C 0.0442 0.42631 0.63694 0.0
C117 C 1.03001 0.40468 0.61119 0.0
C118 C 0.03819 0.40121 0.66115 0.0
C119 C 1.01644 0.35434 0.65887 0.0
C120 C 1.00893 0.35815 0.60997 0.0
N121 N 0.99309 0.28393 0.67865 0.0
C122 C 1.01253 0.32868 0.68198 0.0
C123 C 1.01069 0.27621 0.72622 0.0
C124 C 1.02873 0.32197 0.7304 0.0
C125 C 0.99338 0.25769 0.69997 0.0
C126 C 1.03043 0.34894 0.70804 0.0
H127 H 0.04211 0.33625 0.75075 0.0
O128 O 1.00775 0.2258 0.63984 0.0
O129 O 0.91008 0.19082 0.61828 0.0
O130 O 0.85364 0.19318 0.65513 0.0
O131 O 0.92203 0.25308 0.6695 0.0
O132 O 0.94482 0.18639 0.65162 0.0
O133 O 1.02657 0.27914 0.61018 0.0
O134 O 0.79455 0.20262 0.59347 0.0
O135 O 0.90371 0.25874 0.6214 0.0
O136 O 0.96187 0.26324 0.58745 0.0
O137 O 0.89757 0.20052 0.57166 0.0
O138 O 0.8656 0.257 0.58736 0.0
O139 O 0.79194 0.17428 0.63398 0.0
C140 C 0.91374 0.16348 0.63383 0.0
C141 C 0.05054 0.39544 0.71071 0.0
C142 C 0.05436 0.42153 0.68731 0.0
C143 C 0.03799 0.25249 0.62238 0.0
C144 C 0.0849 0.27145 0.63168 0.0
C145 C 0.1092 0.31591 0.64069 0.0
C146 C 0.10533 0.24459 0.63235 0.0
C147 C 0.1494 0.26208 0.64241 0.0
C148 C 0.15294 0.33347 0.65015 0.0
C149 C 0.17281 0.30684 0.65114 0.0
C150 C 0.88058 0.22159 0.67456 0.0
C151 C 0.8976 0.28299 0.60382 0.0
C152 C 0.77032 0.18419 0.61561 0.0
C153 C 0.72297 0.14957 0.61083 0.0
C154 C 0.71323 0.10754 0.60091 0.0
C155 C 0.68723 0.15745 0.61653 0.0
C156 C 0.64243 0.12334 0.61201 0.0
C157 C 0.66947 0.07375 0.59698 0.0
C158 C 0.63439 0.08141 0.60254 0.0
C159 C 0.93893 0.23394 0.5677 0.0
H160 H 0.0943 0.33705 0.64059 0.0
H161 H 0.08661 0.20999 0.62587 0.0
H162 H 0.17141 0.36781 0.65707 0.0
H163 H 0.20661 0.32119 0.65896 0.0
H164 H 0.73944 0.10058 0.59632 0.0
H165 H 0.69424 0.18994 0.62393 0.0
H166 H 0.66271 0.04137 0.58955 0.0
H167 H 0.60071 0.05424 0.59946 0.0
Gd168 Gd 0.73165 0.94634 0.13626 0.0
Gd169 Gd 0.67407 0.83663 0.09878 0.0
C170 C 0.73744 0.75961 0.06172 0.0
C171 C 0.72932 0.76676 0.0118 0.0
C172 C 0.70579 0.80413 0.04509 0.0
C173 C 0.71949 0.78771 0.06707 0.0
C174 C 0.7098 0.79312 0.01722 0.0
C175 C 0.7434 0.75027 0.03399 0.0
C176 C 0.74554 0.73887 0.08432 0.0
C177 C 0.7331 0.74408 0.11119 0.0
N178 N 0.71016 0.79463 0.09357 0.0
C179 C 0.71446 0.77142 0.11534 0.0
H180 H 0.70397 0.77436 0.13612 0.0
C181 C 0.66311 0.83676 0.03036 0.0
N182 N 0.68354 0.82618 0.05114 0.0
C183 C 0.66744 0.8278 0.00237 0.0
C184 C 0.6913 0.80628 0.99572 0.0
H185 H 0.64417 0.85297 0.0353 0.0
H186 H 0.75662 0.72837 0.02951 0.0
H187 H 0.68399 0.99163 0.09713 0.0
H188 H 0.75937 0.71714 0.08109 0.0
H189 H 0.73757 0.72681 0.1287 0.0
H190 H 0.73164 0.75715 0.99058 0.0
H191 H 0.7682 0.93971 0.20045 0.0
H192 H 0.61592 0.03626 0.15152 0.0
H193 H 0.63691 0.02596 0.10377 0.0
H194 H 0.65539 1.01059 0.24313 0.0
H195 H 0.65203 0.83714 0.98597 0.0
H196 H 0.69383 0.79854 0.97406 0.0
H197 H 0.62265 0.03 0.20352 0.0
H198 H 0.75669 0.95376 0.24938 0.0
N199 N 0.68854 0.9813 0.14063 0.0
C200 C 0.63652 0.02107 0.14873 0.0
C201 C 0.64838 1.01539 0.12175 0.0
C202 C 0.6523 1.00806 0.17182 0.0
C203 C 0.67876 0.98817 0.16702 0.0
C204 C 0.67507 0.9959 0.11807 0.0
N205 N 0.72311 0.95897 0.18376 0.0
C206 C 0.69659 0.97667 0.1893 0.0
C207 C 0.73956 0.96035 0.23271 0.0
C208 C 0.71084 0.97667 0.23885 0.0
C209 C 0.74591 0.95229 0.20489 0.0
C210 C 0.68931 0.98554 0.21702 0.0
H211 H 0.70609 0.98297 0.26044 0.0
O212 O 0.80373 0.98504 0.14142 0.0
O213 O 0.73685 0.88958 0.11793 0.0
O214 O 0.67634 0.82915 0.14657 0.0
O215 O 0.68527 0.89504 0.16657 0.0
O216 O 0.77634 0.92099 0.15245 0.0
O217 O 0.76908 1.01649 0.12389 0.0
O218 O 0.60559 0.79242 0.08518 0.0
O219 O 0.66787 0.89136 0.11867 0.0
O220 O 0.72757 0.9536 0.08949 0.0
O221 O 0.7245 0.89071 0.06943 0.0
O222 O 0.62865 0.86244 0.08439 0.0
O223 O 0.63225 0.77296 0.11969 0.0
C224 C 0.76597 0.88984 0.13425 0.0
C225 C 0.66179 1.00397 0.22197 0.0
C226 C 0.6432 1.01508 0.19942 0.0
C227 C 0.80716 0.02244 0.13315 0.0
C228 C 0.83324 0.06107 0.15204 0.0
C229 C 0.81332 0.06488 0.17653 0.0
C230 C 0.87881 0.09212 0.1471 0.0
C231 C 0.90474 0.12552 0.1673 0.0
C232 C 0.83838 0.09612 0.19684 0.0
C233 C 0.88359 0.12521 0.1927 0.0
C234 C 0.67309 0.85226 0.16795 0.0
C235 C 0.63764 0.89151 0.10382 0.0
C236 C 0.59878 0.76049 0.10254 0.0
C237 C 0.57973 0.71478 0.09051 0.0
C238 C 0.60016 0.7081 0.06717 0.0
C239 C 0.54147 0.67761 0.102 0.0
C240 C 0.52423 0.63433 0.09008 0.0
C241 C 0.58433 0.66577 0.05587 0.0
C242 C 0.54703 0.62925 0.06723 0.0
C243 C 0.73584 0.93366 0.06861 0.0
H244 H 0.77847 0.04302 0.18034 0.0
H245 H 0.89346 0.0898 0.12765 0.0
H246 H 0.82277 0.09734 0.21619 0.0
H247 H 0.90159 0.14706 0.20993 0.0
H248 H 0.62839 0.73568 0.05753 0.0
H249 H 0.5249 0.68256 0.1197 0.0
H250 H 0.60105 0.66126 0.03809 0.0
H251 H 0.53617 0.59679 0.05807 0.0
Gd252 Gd 0.79851 0.7139 0.63214 0.0
Gd253 Gd 0.85313 0.65569 0.60231 0.0
C254 C 0.99999 0.70951 0.62434 0.0
C255 C 0.03784 0.76726 0.58948 0.0
C256 C 0.95677 0.72312 0.5898 0.0
C257 C 0.95844 0.70083 0.61341 0.0
C258 C 0.99666 0.75569 0.57711 0.0
C259 C 0.03951 0.74415 0.61306 0.0
C260 C 1.00072 0.68102 0.64484 0.0
C261 C 0.96105 0.64317 0.65241 0.0
N262 N 0.91975 0.66696 0.62351 0.0
C263 C 0.92086 0.63589 0.64078 0.0
H264 H 0.89026 0.60611 0.64641 0.0
C265 C 0.91412 0.7281 0.55278 0.0
N266 N 0.91638 0.7109 0.57816 0.0
C267 C 0.95271 0.76041 0.53949 0.0
C268 C 0.9941 0.77482 0.55192 0.0
H269 H 0.883 0.71732 0.54225 0.0
H270 H 0.07163 0.75184 0.62155 0.0
H271 H 0.71397 0.66804 0.58613 0.0
H272 H 0.03191 0.68641 0.65365 0.0
H273 H 0.96139 0.61945 0.66705 0.0
H274 H 0.06867 0.79277 0.58031 0.0
H275 H 0.82561 0.75279 0.69735 0.0
H276 H 0.59264 0.59077 0.63117 0.0
H277 H 0.63273 0.61793 0.5863 0.0
H278 H 0.63783 0.62804 0.7269 0.0
H279 H 0.95044 0.77425 0.51964 0.0
H280 H 1.02387 0.80022 0.5417 0.0
H281 H 0.59499 0.59412 0.68382 0.0
H282 H 0.78998 0.7403 0.74386 0.0
N283 N 0.72044 0.66832 0.63044 0.0
C284 C 0.62841 0.61271 0.63123 0.0
C285 C 0.6509 0.62813 0.60587 0.0
C286 C 0.65213 0.62743 0.65638 0.0
C287 C 0.69868 0.65582 0.65524 0.0
C288 C 0.69709 0.65659 0.60588 0.0
N289 N 0.76687 0.70344 0.67705 0.0
C290 C 0.72267 0.67438 0.67939 0.0
C291 C 0.7707 0.72134 0.72592 0.0
C292 C 0.72581 0.68925 0.729 0.0
C293 C 0.79072 0.7284 0.69959 0.0
C294 C 0.70099 0.6658 0.70548 0.0
H295 H 0.71038 0.68373 0.74942 0.0
O296 O 0.77384 0.75532 0.61379 0.0
O297 O 0.8606 0.72176 0.6124 0.0
O298 O 0.86286 0.66249 0.64994 0.0
O299 O 0.80501 0.67265 0.6664 0.0
O300 O 0.86769 0.75486 0.64983 0.0
O301 O 0.82411 0.78241 0.64585 0.0
O302 O 0.86418 0.62675 0.56456 0.0
O303 O 0.78772 0.6518 0.6105 0.0
O304 O 0.79487 0.71679 0.58548 0.0
O305 O 0.81776 0.66966 0.5657 0.0
O306 O 0.7946 0.5987 0.6236 0.0
O307 O 0.83727 0.58623 0.60124 0.0
C308 C 0.88877 0.74861 0.62981 0.0
C309 C 0.65504 0.63558 0.70701 0.0
C310 C 0.63065 0.61628 0.68248 0.0
C311 C 0.80178 0.79101 0.62747 0.0
C312 C 0.82823 0.83209 0.61104 0.0
C313 C 0.85023 0.83097 0.58673 0.0
C314 C 0.83411 0.87325 0.62064 0.0
C315 C 0.86226 0.91325 0.60615 0.0
C316 C 0.87801 0.87009 0.57231 0.0
C317 C 0.8843 0.9109 0.58197 0.0
C318 C 0.83683 0.66259 0.67038 0.0
C319 C 0.76694 0.61321 0.6212 0.0
C320 C 0.85571 0.58975 0.57704 0.0
C321 C 0.8909 0.5767 0.57655 0.0
C322 C 0.93581 0.60954 0.57326 0.0
C323 C 0.88062 0.53219 0.58178 0.0
C324 C 0.91505 0.52149 0.58477 0.0
C325 C 0.96972 0.59925 0.57683 0.0
C326 C 0.95952 0.5557 0.58279 0.0
C327 C 0.80145 0.69748 0.56361 0.0
H328 H 0.8466 0.79995 0.57911 0.0
H329 H 0.81681 0.87394 0.63934 0.0
H330 H 0.89531 0.86886 0.55377 0.0
H331 H 0.90721 0.94071 0.57068 0.0
H332 H 0.94493 0.64351 0.56834 0.0
H333 H 0.84615 0.50612 0.58362 0.0
H334 H 1.00416 0.62518 0.57472 0.0
H335 H 0.98641 0.54832 0.58471 0.0
Gd336 Gd 0.09161 0.77185 0.13362 0.0
Gd337 Gd 0.21001 0.83272 0.10725 0.0
C338 C 0.28689 0.97847 0.08024 0.0
C339 C 0.28829 0.97203 0.02968 0.0
C340 C 0.2511 0.90543 0.05853 0.0
C341 C 0.26134 0.93158 0.08236 0.0
C342 C 0.2653 0.92538 0.03198 0.0
C343 C 0.29906 0.99854 0.05376 0.0
C344 C 0.30143 1.00371 0.10483 0.0
C345 C 0.2917 0.98208 0.13062 0.0
N346 N 0.24958 0.91119 0.10771 0.0
C347 C 0.26594 0.9356 0.13166 0.0
H348 H 0.25851 0.91967 0.15176 0.0
C349 C 0.22568 0.83375 0.03916 0.0
N350 N 0.23038 0.86052 0.06152 0.0
C351 C 0.23845 0.85192 0.01237 0.0
C352 C 0.25779 0.89791 0.0087 0.0
H353 H 0.21075 0.79814 0.04192 0.0
H354 H 0.31832 0.03447 0.05176 0.0
H355 H 0.05003 0.67658 0.09839 0.0
H356 H 0.32119 0.03975 0.1041 0.0
H357 H 0.30367 1.00119 0.14977 0.0
H358 H 0.29958 0.98791 0.0095 0.0
H359 H 0.08188 0.81805 0.19329 0.0
H360 H 1.00219 0.5683 0.15651 0.0
H361 H 1.01779 0.59601 0.10774 0.0
H362 H 1.00774 0.63927 0.24389 0.0
H363 H 0.23351 0.83048 0.99462 0.0
H364 H 0.26811 0.91198 0.98796 0.0
H365 H 0.9986 0.58487 0.20748 0.0
H366 H 0.05658 0.79581 0.24168 0.0
N367 N 0.05764 0.69457 0.14128 0.0
C368 C 1.0175 0.60374 0.15248 0.0
C369 C 1.02625 0.61923 0.12495 0.0
C370 C 1.02623 0.634 0.17433 0.0
C371 C 0.04631 0.67977 0.16788 0.0
C372 C 0.0453 0.66492 0.11972 0.0
N373 N 0.06842 0.75338 0.1806 0.0
C374 C 0.05132 0.71015 0.18822 0.0
C375 C 0.05501 0.77137 0.22687 0.0
C376 C 0.03901 0.72732 0.23525 0.0
C377 C 0.06932 0.78383 0.19929 0.0
C378 C 0.03661 0.69595 0.21579 0.0
H379 H 1.02797 0.71777 0.25662 0.0
O380 O 0.04862 0.80132 0.1315 0.0
O381 O 0.15115 0.83598 0.12141 0.0
O382 O 0.20432 0.8421 0.15441 0.0
O383 O 0.13791 0.77959 0.16917 0.0
O384 O 0.10583 0.8412 0.1463 0.0
O385 O 1.02881 0.73897 0.11074 0.0
O386 O 0.27491 0.84137 0.09531 0.0
O387 O 0.15001 0.76738 0.11639 0.0
O388 O 0.09721 0.76071 0.08786 0.0
O389 O 0.15985 0.82522 0.07283 0.0
O390 O 0.198 0.76606 0.09152 0.0
O391 O 0.25051 0.8213 0.1373 0.0
C392 C 0.1426 0.86369 0.13294 0.0
C393 C 1.01879 0.65078 0.22276 0.0
C394 C 1.01368 0.61983 0.20205 0.0
C395 C 1.01741 0.76845 0.11747 0.0
C396 C 0.97127 0.75183 0.12737 0.0
C397 C 0.94944 0.71243 0.14305 0.0
C398 C 0.94906 0.776 0.12156 0.0
C399 C 0.90533 0.76097 0.13147 0.0
C400 C 0.90609 0.69702 0.1525 0.0
C401 C 0.88418 0.7209 0.14677 0.0
C402 C 0.17807 0.81405 0.17424 0.0
C403 C 0.16093 0.74151 0.10412 0.0
C404 C 0.28413 0.83356 0.12038 0.0
C405 C 0.32925 0.86476 0.13173 0.0
C406 C 0.33425 0.89329 0.15405 0.0
C407 C 0.36754 0.86493 0.12117 0.0
C408 C 0.41015 0.89312 0.13304 0.0
C409 C 0.37611 0.92172 0.16543 0.0
C410 C 0.41373 0.9217 0.15509 0.0
C411 C 0.11862 0.79149 0.06866 0.0
H412 H 0.96588 0.69355 0.14799 0.0
H413 H 0.96618 0.80687 0.10988 0.0
H414 H 0.88937 0.66641 0.16442 0.0
H415 H 0.85043 0.70776 0.15428 0.0
H416 H 0.30573 0.89331 0.16299 0.0
H417 H 0.36397 0.84243 0.10429 0.0
H418 H 0.37936 0.94369 0.18254 0.0
H419 H 0.44581 0.94435 0.16432 0.0
Gd420 Gd 0.33451 0.0872 0.64134 0.0
Gd421 Gd 0.38281 0.19524 0.60349 0.0
C422 C 0.31018 0.2676 0.57315 0.0
C423 C 0.31485 0.26331 0.52266 0.0
C424 C 0.34396 0.22724 0.55298 0.0
C425 C 0.33096 0.24154 0.57627 0.0
C426 C 0.33652 0.23841 0.52588 0.0
C427 C 0.30134 0.27756 0.54624 0.0
C428 C 0.30137 0.28514 0.59711 0.0
C429 C 0.31494 0.27815 0.62322 0.0
N430 N 0.34252 0.23365 0.60191 0.0
C431 C 0.33624 0.25286 0.62517 0.0
H432 H 0.347 0.24828 0.64545 0.0
C433 C 0.3866 0.19691 0.53461 0.0
N434 N 0.36801 0.20646 0.55693 0.0
C435 C 0.37872 0.20581 0.50729 0.0
C436 C 0.35336 0.22648 0.50288 0.0
H437 H 0.40682 0.18153 0.53782 0.0
H438 H 0.28593 0.29796 0.54346 0.0
H439 H 0.37449 0.035 0.60139 0.0
H440 H 0.28534 0.30519 0.59561 0.0
H441 H 0.30917 0.29236 0.64185 0.0
H442 H 0.31032 0.2735 0.50209 0.0
H443 H 0.30089 0.0932 0.70602 0.0
H444 H 0.44979 0.99573 0.65328 0.0
H445 H 0.42199 1.00106 0.60651 0.0
H446 H 0.41784 0.02521 0.74588 0.0
H447 H 0.39271 0.19726 0.4897 0.0
H448 H 0.34813 0.23427 0.48173 0.0
H449 H 0.44835 1.00525 0.70539 0.0
H450 H 0.31408 0.07869 0.75467 0.0
N451 N 0.37747 0.05162 0.64453 0.0
C452 C 0.42929 1.01116 0.65112 0.0
C453 C 0.41356 1.014 0.62471 0.0
C454 C 0.41643 0.02622 0.67457 0.0
C455 C 0.38984 0.0462 0.67053 0.0
C456 C 0.38674 0.03355 0.62189 0.0
N457 N 0.34544 0.07418 0.68834 0.0
C458 C 0.37286 0.05742 0.69323 0.0
C459 C 0.33094 0.07266 0.73759 0.0
C460 C 0.36066 0.05727 0.74303 0.0
C461 C 0.32349 0.08077 0.70996 0.0
C462 C 0.38175 0.04905 0.72071 0.0
H463 H 0.36647 0.05112 0.76444 0.0
O464 O 0.29337 0.02429 0.61976 0.0
O465 O 0.32256 0.13921 0.62217 0.0
O466 O 0.3812 0.20183 0.65125 0.0
O467 O 0.3833 0.14069 0.67003 0.0
O468 O 0.28725 0.11012 0.65787 0.0
O469 O 0.2689 0.04009 0.65716 0.0
O470 O 0.44881 0.24275 0.5879 0.0
O471 O 0.39552 0.14357 0.6222 0.0
O472 O 0.33784 0.07837 0.59468 0.0
O473 O 0.33469 0.13824 0.5747 0.0
O474 O 0.42967 0.17402 0.58592 0.0
O475 O 0.42455 0.25737 0.62577 0.0
C476 C 0.29372 0.13856 0.63856 0.0
C477 C 0.41017 0.03142 0.72493 0.0
C478 C 0.42759 0.02011 0.70188 0.0
C479 C 0.25897 1.01342 0.63578 0.0
C480 C 0.21709 1.00283 0.62151 0.0
C481 C 0.21562 0.03484 0.60425 0.0
C482 C 0.17774 0.96247 0.62683 0.0
C483 C 0.13654 0.95447 0.61557 0.0
C484 C 0.17538 0.02733 0.59294 0.0
C485 C 0.13612 0.98788 0.59878 0.0
C486 C 0.38913 0.18137 0.67226 0.0
C487 C 0.42372 0.145 0.6047 0.0
C488 C 0.45618 0.27244 0.60715 0.0
C489 C 0.47226 0.31862 0.59744 0.0
C490 C 0.44748 0.32721 0.57771 0.0
C491 C 0.5122 0.35449 0.60796 0.0
C492 C 0.527 0.39861 0.59875 0.0
C493 C 0.46114 0.37058 0.5691 0.0
C494 C 0.50039 0.40604 0.57959 0.0
C495 C 0.32771 0.09666 0.57366 0.0
H496 H 0.24543 0.06612 0.60003 0.0
H497 H 0.17946 0.93776 0.63988 0.0
H498 H 0.17447 0.05262 0.58005 0.0
H499 H 0.10534 0.98427 0.59054 0.0
H500 H 0.4176 0.30042 0.56885 0.0
H501 H 0.53199 0.34789 0.62276 0.0
H502 H 0.4413 0.37671 0.55411 0.0
H503 H 0.50989 0.4394 0.57262 0.0
Gd504 Gd 0.72059 0.77735 0.36488 0.0
Gd505 Gd 0.67078 0.83692 0.39927 0.0
C506 C 0.76513 0.98732 0.40843 0.0
C507 C 0.78394 0.99446 0.45785 0.0
C508 C 0.73169 0.92211 0.43801 0.0
C509 C 0.73822 0.94078 0.4118 0.0
C510 C 0.75295 0.94905 0.46158 0.0
C511 C 0.78978 1.01369 0.43128 0.0
C512 C 0.76392 1.00628 0.38283 0.0
C513 C 0.73466 0.97924 0.36198 0.0
N514 N 0.71347 0.9143 0.39034 0.0
C515 C 0.70943 0.93314 0.36614 0.0
H516 H 0.68699 0.913 0.34984 0.0
C517 C 0.68402 0.86183 0.46685 0.0
N518 N 0.70011 0.87875 0.44085 0.0
C519 C 0.70442 0.88689 0.49089 0.0
C520 C 0.74013 0.93021 0.48824 0.0
H521 H 0.6568 0.82799 0.46898 0.0
H522 H 0.81153 0.04931 0.42894 0.0
H523 H 0.66692 0.68952 0.41261 0.0
H524 H 0.78374 0.04191 0.37945 0.0
H525 H 0.73195 0.99375 0.34252 0.0
H526 H 0.80148 1.01553 0.47556 0.0
H527 H 0.758 0.80399 0.29868 0.0
H528 H 0.5975 0.56993 0.36585 0.0
H529 H 0.61868 0.60974 0.41099 0.0
H530 H 0.63906 0.6146 0.27119 0.0
H531 H 0.69288 0.8726 0.51142 0.0
H532 H 0.75598 0.94939 0.50689 0.0
H533 H 0.60484 0.57215 0.314 0.0
H534 H 0.74519 0.76742 0.25294 0.0
N535 N 0.6753 0.69825 0.36799 0.0
C536 C 0.61949 0.60573 0.36618 0.0
C537 C 0.63151 0.62805 0.39168 0.0
C538 C 0.63667 0.62963 0.34144 0.0
C539 C 0.66505 0.67637 0.34293 0.0
C540 C 0.65979 0.67418 0.3923 0.0
N541 N 0.71198 0.74497 0.32038 0.0
C542 C 0.68397 0.70031 0.31858 0.0
C543 C 0.72763 0.74817 0.27118 0.0
C544 C 0.6974 0.70275 0.26869 0.0
C545 C 0.73478 0.76882 0.2973 0.0
C546 C 0.67549 0.67813 0.29252 0.0
H547 H 0.69176 0.68687 0.24837 0.0
O548 O 0.78631 0.80948 0.38461 0.0
O549 O 0.73312 0.84446 0.38011 0.0
O550 O 0.66107 0.83521 0.35132 0.0
O551 O 0.67647 0.78183 0.33245 0.0
O552 O 0.75236 0.84055 0.33966 0.0
O553 O 0.77091 0.75983 0.35301 0.0
O554 O 0.61731 0.83808 0.42302 0.0
O555 O 0.65788 0.77225 0.38169 0.0
O556 O 0.71788 0.76259 0.4104 0.0
O557 O 0.70738 0.81716 0.43202 0.0
O558 O 0.62489 0.76902 0.41793 0.0
O559 O 0.61676 0.84059 0.3782 0.0
C560 C 0.75291 0.86719 0.35859 0.0
C561 C 0.64625 0.63204 0.29105 0.0
C562 C 0.6268 0.60788 0.31542 0.0
C563 C 0.80191 0.78978 0.36888 0.0
C564 C 0.84571 0.81887 0.35555 0.0
C565 C 0.84913 0.84732 0.33354 0.0
C566 C 0.88444 0.81828 0.36444 0.0
C567 C 0.92561 0.84546 0.35096 0.0
C568 C 0.88984 0.87496 0.32079 0.0
C569 C 0.92778 0.87403 0.32934 0.0
C570 C 0.6605 0.80937 0.33034 0.0
C571 C 0.62882 0.74518 0.39855 0.0
C572 C 0.59775 0.84286 0.4011 0.0
C573 C 0.58526 0.87826 0.40209 0.0
C574 C 0.61841 0.9233 0.40311 0.0
C575 C 0.5401 0.86745 0.40123 0.0
C576 C 0.52865 0.90153 0.40029 0.0
C577 C 0.60733 0.95693 0.40151 0.0
C578 C 0.56283 0.9462 0.39983 0.0
C579 C 0.71888 0.78553 0.43262 0.0
H580 H 0.82054 0.84828 0.32582 0.0
H581 H 0.88236 0.79614 0.38116 0.0
H582 H 0.89187 0.89687 0.30397 0.0
H583 H 0.95903 0.89562 0.31891 0.0
H584 H 0.65291 0.93267 0.4053 0.0
H585 H 0.51401 0.83281 0.40139 0.0
H586 H 0.63338 0.99153 0.40202 0.0
H587 H 0.55501 0.97291 0.39943 0.0
Gd588 Gd 0.96624 0.72815 0.86807 0.0
Gd589 Gd 0.856 0.67404 0.90278 0.0
C590 C 0.80485 0.76956 0.92338 0.0
C591 C 0.8183 0.77936 0.9735 0.0
C592 C 0.83187 0.72652 0.94799 0.0
C593 C 0.82088 0.73916 0.92312 0.0
C594 C 0.82864 0.74491 0.97361 0.0
C595 C 0.80558 0.79112 0.94847 0.0
C596 C 0.78749 0.77641 0.89862 0.0
C597 C 0.78574 0.75261 0.87461 0.0
N598 N 0.82262 0.7192 0.89901 0.0
C599 C 0.80381 0.72426 0.87509 0.0
H600 H 0.80443 0.7085 0.85586 0.0
C601 C 0.84136 0.67173 0.97148 0.0
N602 N 0.84172 0.69323 0.94733 0.0
C603 C 0.83872 0.68892 0.99747 0.0
C604 C 0.83387 0.72669 0.99854 0.0
H605 H 0.84577 0.6429 0.97059 0.0
H606 H 0.79496 0.81579 0.94891 0.0
H607 H 1.02037 0.6921 0.90932 0.0
H608 H 0.77457 0.79924 0.89797 0.0
H609 H 0.77192 0.75727 0.8554 0.0
H610 H 0.81781 0.79546 0.99283 0.0
H611 H 0.9636 0.76383 0.80306 0.0
H612 H 0.07078 0.62509 0.85883 0.0
H613 H 0.05945 0.64925 0.90535 0.0
H614 H 0.04535 0.65808 0.76548 0.0
H615 H 0.84078 0.67329 0.0166 0.0
H616 H 0.83202 0.7401 0.01867 0.0
H617 H 0.06496 0.62821 0.80651 0.0
H618 H 0.98328 0.75439 0.75513 0.0
N619 N 1.00616 0.68932 0.8658 0.0
C620 C 0.05286 0.64329 0.86051 0.0
C621 C 0.0466 0.65693 0.88677 0.0
C622 C 0.03807 0.65551 0.83662 0.0
C623 C 1.01489 0.67919 0.84003 0.0
C624 C 1.02393 0.68089 0.88895 0.0
N625 N 0.9846 0.72112 0.8215 0.0
C626 C 1.00408 0.696 0.81707 0.0
C627 C 0.98922 0.73766 0.77236 0.0
C628 C 1.00774 0.71048 0.76739 0.0
C629 C 0.97807 0.74288 0.79968 0.0
C630 C 1.0158 0.68957 0.7899 0.0
H631 H 1.01636 0.7065 0.7462 0.0
O632 O 1.00528 0.79797 0.85617 0.0
O633 O 0.91204 0.73758 0.88668 0.0
O634 O 0.85097 0.67591 0.85493 0.0
O635 O 0.91553 0.67793 0.83852 0.0
O636 O 0.93799 0.76833 0.8489 0.0
O637 O 1.02936 0.77155 0.88864 0.0
O638 O 0.78913 0.62838 0.91842 0.0
O639 O 0.91135 0.66526 0.88686 0.0
O640 O 0.97714 0.72877 0.91456 0.0
O641 O 0.90933 0.7078 0.93684 0.0
O642 O 0.88004 0.63128 0.92327 0.0
O643 O 0.81422 0.60896 0.88345 0.0
C644 C 0.91046 0.76326 0.86845 0.0
C645 C 0.03653 0.66381 0.7862 0.0
C646 C 0.04761 0.64674 0.80955 0.0
C647 C 0.03721 0.8064 0.87383 0.0
C648 C 0.08299 0.83491 0.86378 0.0
C649 C 0.10537 0.81685 0.84912 0.0
C650 C 0.10456 0.88108 0.86905 0.0
C651 C 0.14861 0.90944 0.85992 0.0
C652 C 0.149 0.84457 0.84005 0.0
C653 C 0.17055 0.8904 0.84543 0.0
C654 C 0.8742 0.66987 0.83484 0.0
C655 C 0.91098 0.63874 0.9054 0.0
C656 C 0.77984 0.59836 0.89926 0.0
C657 C 0.73622 0.58106 0.88486 0.0
C658 C 0.73228 0.60489 0.86246 0.0
C659 C 0.69831 0.54095 0.89331 0.0
C660 C 0.65682 0.52508 0.87935 0.0
C661 C 0.69174 0.58987 0.84874 0.0
C662 C 0.65429 0.55051 0.85713 0.0
C663 C 0.95325 0.72444 0.93706 0.0
H664 H 0.08918 0.78141 0.84481 0.0
H665 H 0.0867 0.89485 0.87999 0.0
H666 H 0.1663 0.83045 0.8289 0.0
H667 H 0.20465 0.91081 0.83854 0.0
H668 H 0.7607 0.63519 0.8556 0.0
H669 H 0.70135 0.52206 0.91042 0.0
H670 H 0.6893 0.60899 0.83157 0.0
H671 H 0.62311 0.54039 0.84638 0.0
Gd672 Gd 0.25083 0.94184 0.37864 0.0
Gd673 Gd 0.19715 0.82823 0.40611 0.0
C674 C 0.05776 0.77446 0.44247 0.0
C675 C 0.07139 0.77433 0.49235 0.0
C676 C 0.13232 0.79788 0.45922 0.0
C677 C 0.10356 0.79145 0.43728 0.0
C678 C 0.11617 0.78778 0.48689 0.0
C679 C 0.04221 0.76781 0.47017 0.0
C680 C 1.02854 0.76191 0.41967 0.0
C681 C 0.04481 0.76369 0.39272 0.0
N682 N 0.11942 0.79697 0.41074 0.0
C683 C 0.09047 0.78058 0.38867 0.0
H684 H 0.10217 0.78109 0.36773 0.0
C685 C 0.20173 0.80646 0.47323 0.0
N686 N 0.17502 0.80945 0.45314 0.0
C687 C 0.18747 0.79736 0.50103 0.0
C688 C 0.14483 0.78898 0.50802 0.0
H689 H 0.23468 0.81267 0.46803 0.0
H690 H 1.00728 0.7554 0.47458 0.0
H691 H 0.32206 0.96209 0.43698 0.0
H692 H 0.99315 0.7487 0.42274 0.0
H693 H 1.02224 0.75221 0.37503 0.0
H694 H 0.05853 0.76666 0.51348 0.0
H695 H 0.24887 0.94807 0.3092 0.0
H696 H 0.45307 0.05594 0.41254 0.0
H697 H 0.39912 1.00985 0.44868 0.0
H698 H 0.44259 0.0704 0.3141 0.0
H699 H 0.20932 0.79668 0.51703 0.0
H700 H 0.13368 0.78146 0.52953 0.0
H701 H 0.4689 0.07785 0.36258 0.0
H702 H 0.29988 0.98711 0.2703 0.0
N703 N 0.32734 0.98314 0.39405 0.0
C704 C 0.41814 0.03575 0.40712 0.0
C705 C 0.38779 1.01001 0.42756 0.0
C706 C 0.40344 0.03363 0.37968 0.0
C707 C 0.35748 1.00652 0.37359 0.0
C708 C 0.34284 0.98348 0.42066 0.0
N709 N 0.29938 0.9736 0.34042 0.0
C710 C 0.34304 1.00153 0.34609 0.0
C711 C 0.31263 0.99139 0.29146 0.0
C712 C 0.35782 1.01912 0.2968 0.0
C713 C 0.28381 0.96927 0.31364 0.0
C714 C 0.37358 0.02462 0.32431 0.0
H715 H 0.3802 0.03628 0.27958 0.0
O716 O 0.2073 0.95301 0.35148 0.0
O717 O 0.18541 0.87962 0.38706 0.0
O718 O 0.17889 0.82985 0.36036 0.0
O719 O 0.24214 0.89225 0.34467 0.0
O720 O 0.19414 0.93834 0.40412 0.0
O721 O 0.25941 1.00926 0.37462 0.0
O722 O 0.21735 0.78971 0.38013 0.0
O723 O 0.26029 0.88357 0.38848 0.0
O724 O 0.25339 0.95102 0.42474 0.0
O725 O 0.21777 0.87838 0.44342 0.0
O726 O 0.26501 0.85023 0.42322 0.0
O727 O 0.16951 0.75616 0.41241 0.0
C728 C 0.16601 0.89667 0.40038 0.0
C729 C 0.41879 0.05246 0.33054 0.0
C730 C 0.43371 0.05685 0.35814 0.0
C731 C 0.22482 0.99514 0.35804 0.0
C732 C 0.21979 0.02529 0.33797 0.0
C733 C 0.21223 1.01391 0.30949 0.0
C734 C 0.21642 0.06235 0.34768 0.0
C735 C 0.20563 0.08758 0.32899 0.0
C736 C 0.20217 0.03872 0.291 0.0
C737 C 0.19848 0.07476 0.30058 0.0
C738 C 0.2069 0.85275 0.33993 0.0
C739 C 0.2876 0.88107 0.40521 0.0
C740 C 0.19266 0.75197 0.39257 0.0
C741 C 0.21222 0.72266 0.39721 0.0
C742 C 0.2585 0.74138 0.40029 0.0
C743 C 0.18514 0.67557 0.39594 0.0
C744 C 0.20453 0.64785 0.39681 0.0
C745 C 0.27761 0.7141 0.40133 0.0
C746 C 0.251 0.66783 0.39936 0.0
C747 C 0.23851 0.92286 0.44603 0.0
H748 H 0.21235 0.98482 0.30145 0.0
H749 H 0.22137 0.07087 0.36972 0.0
H750 H 0.19592 0.02915 0.26916 0.0
H751 H 0.18865 0.09177 0.2856 0.0
H752 H 0.28005 0.7772 0.40133 0.0
H753 H 0.14937 0.66064 0.39365 0.0
H754 H 0.31336 0.72894 0.4035 0.0
H755 H 0.26669 0.64743 0.40033 0.0
Gd756 Gd 0.33591 0.26701 0.87039 0.0
Gd757 Gd 0.38318 0.20142 0.90429 0.0
C758 C 0.29853 0.06506 0.94507 0.0
C759 C 0.30256 0.08448 0.99428 0.0
C760 C 0.34268 0.14215 0.95953 0.0
C761 C 0.32532 0.11063 0.93838 0.0
C762 C 0.33208 0.12934 0.98776 0.0
C763 C 0.28593 0.05237 0.97297 0.0
C764 C 0.28704 0.03346 0.92374 0.0
C765 C 0.30336 0.04754 0.89678 0.0
N766 N 0.33739 0.12406 0.91152 0.0
C767 C 0.32852 0.09315 0.891 0.0
H768 H 0.34051 0.10361 0.86995 0.0
C769 C 0.39285 0.21663 0.9729 0.0
N770 N 0.37126 0.18523 0.95253 0.0
C771 C 0.3831 0.20556 1.00115 0.0
C772 C 0.35217 0.16185 0.00861 0.0
H773 H 0.41634 0.25064 0.96734 0.0
H774 H 0.26435 1.01766 0.97834 0.0
H775 H 0.39425 0.35702 0.91115 0.0
H776 H 0.26695 0.99813 0.92806 0.0
H777 H 0.29593 0.02332 0.88031 0.0
H778 H 0.29342 0.0741 0.0158 0.0
H779 H 0.28752 0.23103 0.80715 0.0
H780 H 0.46147 0.47178 0.85884 0.0
H781 H 0.44511 0.43753 0.90591 0.0
H782 H 0.40519 0.41463 0.76726 0.0
H783 H 0.39935 0.23079 0.01715 0.0
H784 H 0.34476 0.15336 0.03053 0.0
H785 H 0.44663 0.46285 0.80705 0.0
H786 H 0.29384 0.2602 0.75957 0.0
N787 N 0.38257 0.34489 0.86738 0.0
C788 C 0.43905 0.43626 0.86101 0.0
C789 C 0.42982 0.41708 0.88759 0.0
C790 C 0.41825 0.40954 0.83761 0.0
C791 C 0.38955 0.36343 0.84159 0.0
C792 C 0.40085 0.37123 0.89045 0.0
N793 N 0.33789 0.29266 0.82433 0.0
C794 C 0.36638 0.33643 0.81931 0.0
C795 C 0.31456 0.28202 0.77617 0.0
C796 C 0.34505 0.3266 0.77051 0.0
C797 C 0.31112 0.2656 0.80335 0.0
C798 C 0.37108 0.35458 0.79226 0.0
H799 H 0.34768 0.33922 0.74943 0.0
O800 O 0.26359 0.236 0.87133 0.0
O801 O 0.32596 0.20094 0.88359 0.0
O802 O 0.38304 0.19771 0.85596 0.0
O803 O 0.37643 0.25753 0.83746 0.0
O804 O 0.2856 0.2004 0.8516 0.0
O805 O 0.30383 0.29947 0.89152 0.0
O806 O 0.41274 0.16566 0.88485 0.0
O807 O 0.39641 0.26599 0.88641 0.0
O808 O 0.34912 0.27757 0.91656 0.0
O809 O 0.33354 0.2086 0.93245 0.0
O810 O 0.43839 0.26952 0.91793 0.0
O811 O 0.44896 0.21409 0.91732 0.0
C812 C 0.2948 0.17564 0.86717 0.0
C813 C 0.40084 0.40014 0.78792 0.0
C814 C 0.42443 0.42759 0.81057 0.0
C815 C 0.26362 0.26835 0.88506 0.0
C816 C 0.23166 0.28199 0.87538 0.0
C817 C 0.24545 0.31981 0.85858 0.0
C818 C 0.18634 0.25602 0.88271 0.0
C819 C 0.15471 0.26772 0.87345 0.0
C820 C 0.21453 0.33192 0.84954 0.0
C821 C 0.16965 0.3063 0.85692 0.0
C822 C 0.38625 0.22507 0.83504 0.0
C823 C 0.43052 0.29288 0.90026 0.0
C824 C 0.44934 0.18563 0.89947 0.0
C825 C 0.49099 0.19916 0.884 0.0
C826 C 0.50347 0.22929 0.86171 0.0
C827 C 0.51772 0.1803 0.89098 0.0
C828 C 0.5572 0.19169 0.87599 0.0
C829 C 0.54216 0.24052 0.8466 0.0
C830 C 0.56886 0.22205 0.85365 0.0
C831 C 0.3312 0.24563 0.93525 0.0
H832 H 0.28003 0.33994 0.85248 0.0
H833 H 0.17574 0.2263 0.89524 0.0
H834 H 0.2254 0.36136 0.83674 0.0
H835 H 0.14674 0.31707 0.84988 0.0
H836 H 0.48322 0.24394 0.85595 0.0
H837 H 0.50742 0.15648 0.90798 0.0
H838 H 0.55171 0.26394 0.82945 0.0
H839 H 0.59924 0.23251 0.84196 0.0
Gd840 Gd 0.0896 0.30138 0.3662 0.0
Gd841 Gd 0.19909 0.36197 0.40091 0.0
C842 C 0.24982 0.26476 0.417 0.0
C843 C 0.2362 0.25061 0.46683 0.0
C844 C 0.22128 0.30447 0.4438 0.0
C845 C 0.23292 0.29436 0.41839 0.0
C846 C 0.22511 0.2845 0.46856 0.0
C847 C 0.24941 0.24132 0.44113 0.0
C848 C 0.26794 0.26089 0.39169 0.0
C849 C 0.26952 0.28683 0.3688 0.0
N850 N 0.23126 0.31638 0.39537 0.0
C851 C 0.2505 0.31425 0.37093 0.0
H852 H 0.25074 0.33332 0.35299 0.0
C853 C 0.21304 0.35813 0.46949 0.0
N854 N 0.21109 0.33755 0.4446 0.0
C855 C 0.21593 0.33919 0.49475 0.0
C856 C 0.22033 0.3011 0.49427 0.0
H857 H 0.20941 0.38746 0.46974 0.0
H858 H 0.26067 0.21716 0.44033 0.0
H859 H 1.02673 0.31662 0.4185 0.0
H860 H 0.28166 0.23885 0.38979 0.0
H861 H 0.28424 0.28478 0.34928 0.0
H862 H 0.23691 0.23309 0.48542 0.0
H863 H 0.09055 0.2957 0.29524 0.0
H864 H 1.00388 0.4203 0.39146 0.0
H865 H 1.00034 0.36816 0.4279 0.0
H866 H 0.03964 0.43505 0.2944 0.0
H867 H 0.21469 0.35388 0.51449 0.0
H868 H 0.22264 0.28648 0.5138 0.0
H869 H 1.01937 0.44554 0.34187 0.0
H870 H 0.07836 0.33185 0.25463 0.0
N871 N 0.05151 0.34146 0.37722 0.0
C872 C 1.01697 0.39821 0.38717 0.0
C873 C 1.01502 0.36893 0.40778 0.0
C874 C 0.03335 0.39678 0.36076 0.0
C875 C 0.05029 0.36751 0.35623 0.0
C876 C 0.03143 0.34004 0.40229 0.0
N877 N 0.07718 0.33296 0.32549 0.0
C878 C 0.06299 0.36271 0.32957 0.0
C879 C 0.07427 0.3412 0.27558 0.0
C880 C 0.06385 0.37486 0.27959 0.0
C881 C 0.08077 0.32051 0.2988 0.0
C882 C 0.05732 0.38551 0.30676 0.0
H883 H 0.05942 0.39132 0.26157 0.0
O884 O 0.06758 0.24272 0.34012 0.0
O885 O 0.15252 0.30019 0.3769 0.0
O886 O 0.2099 0.37856 0.3546 0.0
O887 O 0.1432 0.32681 0.33318 0.0
O888 O 0.09273 0.24728 0.39046 0.0
O889 O 1.01855 0.25026 0.3639 0.0
O890 O 0.27048 0.39932 0.39269 0.0
O891 O 0.14541 0.36884 0.37924 0.0
O892 O 0.07699 0.29454 0.4124 0.0
O893 O 0.14638 0.32767 0.43486 0.0
O894 O 0.16789 0.40083 0.4174 0.0
O895 O 0.2404 0.43092 0.41516 0.0
C896 C 0.13471 0.26166 0.38792 0.0
C897 C 0.04324 0.41661 0.31158 0.0
C898 C 0.0316 0.42248 0.33858 0.0
C899 C 1.0259 0.22436 0.34754 0.0
C900 C 0.99153 0.19426 0.32703 0.0
C901 C 0.99675 0.20519 0.29854 0.0
C902 C 0.95624 0.15177 0.33534 0.0
C903 C 0.92733 0.12039 0.31511 0.0
C904 C 0.96919 0.1747 0.27858 0.0
C905 C 0.93561 0.13267 0.28661 0.0
C906 C 0.18499 0.3595 0.33227 0.0
C907 C 0.14257 0.39578 0.39616 0.0
C908 C 0.27698 0.43593 0.40428 0.0
C909 C 0.30547 0.47756 0.38858 0.0
C910 C 0.28802 0.4895 0.36582 0.0
C911 C 0.35092 0.50493 0.39581 0.0
C912 C 0.3789 0.54401 0.38031 0.0
C913 C 0.31523 0.52787 0.35044 0.0
C914 C 0.36013 0.55486 0.35754 0.0
C915 C 0.10212 0.30587 0.43509 0.0
H916 H 1.02307 0.23666 0.29135 0.0
H917 H 0.95189 0.14325 0.35735 0.0
H918 H 0.97455 0.18332 0.25659 0.0
H919 H 0.91671 0.10962 0.27003 0.0
H920 H 0.25339 0.46908 0.35989 0.0
H921 H 0.36448 0.49548 0.41327 0.0
H922 H 0.30138 0.53691 0.33296 0.0
H923 H 0.37991 0.58486 0.34548 0.0
Gd924 Gd 0.80141 0.09686 0.87456 0.0
Gd925 Gd 0.85196 0.20727 0.90832 0.0
C926 C 0.98702 0.26771 0.95285 0.0
C927 C 0.96609 0.26123 1.00185 0.0
C928 C 0.90929 0.23491 0.96545 0.0
C929 C 0.9416 0.24684 0.94521 0.0
C930 C 0.92128 0.24347 0.99396 0.0
C931 C 0.99894 0.27325 0.9813 0.0
C932 C 1.01914 0.28473 0.9317 0.0
C933 C 1.00568 0.28289 0.90395 0.0
N934 N 0.92896 0.24207 0.91797 0.0
C935 C 0.96024 0.26185 0.89749 0.0
H936 H 0.95014 0.26107 0.876 0.0
C937 C 0.83447 0.21317 0.97591 0.0
N938 N 0.86637 0.21811 0.95701 0.0
C939 C 0.84491 0.2219 0.00436 0.0
C940 C 0.88827 0.23605 0.01353 0.0
H941 H 0.80083 0.20228 0.96922 0.0
H942 H 0.03358 0.28863 0.98759 0.0
H943 H 0.74143 0.07518 0.93801 0.0
H944 H 0.05435 0.30107 0.93667 0.0
H945 H 1.03025 0.29756 0.88751 0.0
H946 H 0.9759 0.26745 0.02368 0.0
H947 H 0.79097 0.09183 0.80428 0.0
H948 H 0.60467 0.99379 0.92014 0.0
H949 H 0.66609 0.03189 0.95391 0.0
H950 H 0.59699 0.98837 0.8207 0.0
H951 H 0.8194 0.21729 0.01923 0.0
H952 H 0.89621 0.24259 0.03558 0.0
H953 H 0.5794 0.97862 0.87077 0.0
H954 H 0.73244 0.06115 0.76873 0.0
N955 N 0.7275 0.05819 0.89439 0.0
C956 C 0.63874 1.01167 0.91271 0.0
C957 C 0.67327 0.03283 0.93179 0.0
C958 C 0.64835 1.01547 0.8842 0.0
C959 C 0.69343 0.03935 0.87547 0.0
C960 C 0.71716 0.05655 0.92234 0.0
N961 N 0.74627 0.06991 0.83908 0.0
C962 C 0.70313 0.04555 0.84716 0.0
C963 C 0.7236 0.05669 0.79068 0.0
C964 C 0.67913 0.03317 0.79865 0.0
C965 C 0.75678 0.07428 0.81117 0.0
C966 C 0.66836 0.027 0.82708 0.0
H967 H 0.6534 1.01949 0.78271 0.0
O968 O 0.83363 0.08266 0.84054 0.0
O969 O 0.86423 0.1606 0.88372 0.0
O970 O 0.86838 0.21456 0.86121 0.0
O971 O 0.81197 0.14882 0.84197 0.0
O972 O 0.8656 0.10355 0.89242 0.0
O973 O 0.79147 0.02967 0.86901 0.0
O974 O 0.82187 0.24961 0.91181 0.0
O975 O 0.79247 0.15416 0.88589 0.0
O976 O 0.80633 0.08358 0.91979 0.0
O977 O 0.84315 0.15414 0.9416 0.0
O978 O 0.78066 0.18051 0.92122 0.0
O979 O 0.88638 0.27604 0.89334 0.0
C980 C 0.88946 0.14627 0.89171 0.0
C981 C 0.62393 1.00271 0.83583 0.0
C982 C 0.61395 0.99701 0.86431 0.0
C983 C 0.82074 0.04207 0.84883 0.0
C984 C 0.85635 0.03 0.85162 0.0
C985 C 0.90145 0.06349 0.85063 0.0
C986 C 0.84598 0.98532 0.85527 0.0
C987 C 0.88041 0.97507 0.85916 0.0
C988 C 0.93529 0.05354 0.85526 0.0
C989 C 0.92489 1.00966 0.85974 0.0
C990 C 0.84371 0.19093 0.83946 0.0
C991 C 0.76192 0.15305 0.90087 0.0
C992 C 0.85621 0.28501 0.90195 0.0
C993 C 0.87228 0.32671 0.91826 0.0
C994 C 0.87883 0.32644 0.94717 0.0
C995 C 0.88099 0.36695 0.90517 0.0
C996 C 0.89519 0.4064 0.92115 0.0
C997 C 0.89228 0.3647 0.96308 0.0
C998 C 0.89982 0.40406 0.95037 0.0
C999 C 0.82424 0.10953 0.94199 0.0
H1000 H 0.91076 0.0976 0.84629 0.0
H1001 H 0.81156 0.95877 0.85494 0.0
H1002 H 0.96975 0.07989 0.8549 0.0
H1003 H 0.95179 1.00246 0.86248 0.0
H1004 H 0.87309 0.29654 0.95762 0.0
H1005 H 0.87683 0.36736 0.88272 0.0
H1006 H 0.89637 0.36371 0.98549 0.0
H1007 H 0.90849 0.43244 0.9638 0.0
H1008 H 0.16564 0.92432 0.09077 0.0
H1009 H 0.17476 0.91177 0.17991 0.0
H1010 H 0.21252 0.99286 0.18523 0.0
H1011 H 0.24378 0.06748 0.16453 0.0
H1012 H 0.23174 0.08116 0.07582 0.0
H1013 H 0.19456 0.99984 0.07013 0.0
C1014 C 0.1766 0.93964 0.11121 0.0
C1015 C 0.16936 0.91256 0.13481 0.0
C1016 C 0.19727 0.98638 0.11417 0.0
C1017 C 0.18148 0.9323 0.16142 0.0
C1018 C 0.20272 0.97855 0.16447 0.0
C1019 C 0.2328 0.05254 0.14399 0.0
C1020 C 0.24047 0.08012 0.12062 0.0
C1021 C 0.21093 1.00594 0.14102 0.0
C1022 C 0.22585 0.06048 0.09412 0.0
C1023 C 0.20473 1.01405 0.09088 0.0
H1024 H 0.26235 0.17159 0.67799 0.0
H1025 H 0.25589 0.14535 0.58953 0.0
H1026 H 0.20659 0.17686 0.58293 0.0
H1027 H 0.16933 0.21725 0.60224 0.0
H1028 H 0.17946 0.24562 0.69065 0.0
H1029 H 0.22301 0.20832 0.69738 0.0
C1030 C 0.25005 0.17277 0.65728 0.0
C1031 C 0.26387 0.15752 0.63416 0.0
C1032 C 0.22227 0.19149 0.65367 0.0
C1033 C 0.24682 0.15816 0.60754 0.0
C1034 C 0.21837 0.17592 0.60381 0.0
C1035 C 0.18042 0.21444 0.623 0.0
C1036 C 0.17094 0.23407 0.64597 0.0
C1037 C 0.20645 0.19352 0.62667 0.0
C1038 C 0.18623 0.2308 0.67268 0.0
C1039 C 0.21124 0.20953 0.67654 0.0
H1040 H 0.96719 0.12508 0.1302 0.0
H1041 H 0.95412 0.20802 0.19323 0.0
H1042 H 0.03293 0.25901 0.19152 0.0
H1043 H 0.10735 0.2815 0.17269 0.0
H1044 H 0.11919 0.20883 0.10326 0.0
H1045 H 0.03956 0.15367 0.10642 0.0
C1046 C 0.98082 0.15441 0.14336 0.0
C1047 C 0.95341 0.16012 0.163 0.0
C1048 C 1.02665 0.18629 0.14097 0.0
C1049 C 0.97338 0.19966 0.17927 0.0
C1050 C 1.01901 0.2299 0.17804 0.0
C1051 C 0.0922 0.25387 0.15804 0.0
C1052 C 0.11868 0.24955 0.13746 0.0
C1053 C 0.0461 0.22341 0.15921 0.0
C1054 C 0.09906 0.21324 0.1189 0.0
C1055 C 0.0536 0.18165 0.12079 0.0
H1056 H 0.87451 0.98452 0.57468 0.0
H1057 H 0.8672 0.94235 0.66052 0.0
H1058 H 0.88236 1.01566 0.67664 0.0
H1059 H 0.89942 0.09293 0.66632 0.0
H1060 H 0.91146 0.13512 0.58037 0.0
H1061 H 0.89477 0.06148 0.56444 0.0
C1062 C 0.87689 0.99131 0.59695 0.0
C1063 C 0.8698 0.95754 0.61624 0.0
C1064 C 0.88702 0.03396 0.60612 0.0
C1065 C 0.87178 0.96713 0.64505 0.0
C1066 C 0.881 1.00935 0.65434 0.0
C1067 C 0.89838 0.08581 0.64414 0.0
C1068 C 0.90495 0.1189 0.62454 0.0
C1069 C 0.88893 0.04314 0.63507 0.0
C1070 C 0.90485 0.10981 0.59587 0.0
C1071 C 0.89555 0.06769 0.58672 0.0
H1072 H 0.85487 0.77636 0.16859 0.0
H1073 H 0.90226 0.80402 0.08353 0.0
H1074 H 0.86145 0.84433 0.07588 0.0
H1075 H 0.81222 0.87267 0.09389 0.0
H1076 H 0.76636 0.84415 0.17921 0.0
H1077 H 0.8059 0.80285 0.18608 0.0
C1078 C 0.85608 0.79082 0.14825 0.0
C1079 C 0.88166 0.78688 0.12668 0.0
C1080 C 0.83247 0.81376 0.144 0.0
C1081 C 0.88334 0.80682 0.10066 0.0
C1082 C 0.85977 0.82972 0.09622 0.0
C1083 C 0.81036 0.85662 0.11373 0.0
C1084 C 0.78505 0.85997 0.13575 0.0
C1085 C 0.83413 0.83345 0.11775 0.0
C1086 C 0.78451 0.84083 0.16177 0.0
C1087 C 0.80738 0.81749 0.16577 0.0
H1088 H 0.96397 0.78261 0.66128 0.0
H1089 H 0.91243 0.79784 0.58251 0.0
H1090 H 0.9847 0.86139 0.57072 0.0
H1091 H 0.06267 0.91109 0.58215 0.0
H1092 H 0.1133 0.90227 0.66328 0.0
H1093 H 0.04251 0.83594 0.67387 0.0
C1094 C 0.969 0.79969 0.64143 0.0
C1095 C 0.9335 0.78485 0.62231 0.0
C1096 C 1.01079 0.8366 0.63492 0.0
C1097 C 0.93963 0.80804 0.59716 0.0
C1098 C 0.98093 0.84445 0.59047 0.0
C1099 C 0.05836 0.89554 0.60245 0.0
C1100 C 0.09386 0.91248 0.62183 0.0
C1101 C 1.01683 0.8588 0.60909 0.0
C1102 C 0.08732 0.89008 0.64756 0.0
C1103 C 0.04647 0.85228 0.65387 0.0
H1104 H 0.11647 0.86607 0.35353 0.0
H1105 H 0.11007 0.89795 0.43988 0.0
H1106 H 0.03254 0.88054 0.43335 0.0
H1107 H 0.96806 0.86085 0.40169 0.0
H1108 H 0.9762 0.82878 0.31547 0.0
H1109 H 0.05089 0.84031 0.32341 0.0
C1110 C 0.09774 0.86843 0.37101 0.0
C1111 C 0.11829 0.88222 0.3973 0.0
C1112 C 0.05345 0.85826 0.36706 0.0
C1113 C 0.09439 0.88657 0.4196 0.0
C1114 C 0.05017 0.87665 0.41584 0.0
C1115 C 0.98591 0.85543 0.38491 0.0
C1116 C 0.9668 0.84417 0.358 0.0
C1117 C 1.02942 0.86287 0.38954 0.0
C1118 C 0.99039 0.83766 0.33631 0.0
C1119 C 0.03318 0.84451 0.34078 0.0
H1120 H 0.20492 0.97705 0.82538 0.0
H1121 H 0.14465 0.95282 0.9072 0.0
H1122 H 0.18388 0.03287 0.91671 0.0
H1123 H 0.23789 0.11038 0.90237 0.0
H1124 H 0.29931 0.13341 0.82117 0.0
H1125 H 0.25786 0.05347 0.81102 0.0
C1126 C 0.20054 0.98909 0.84542 0.0
C1127 C 0.17179 0.95857 0.86552 0.0
C1128 C 0.22379 0.03516 0.85095 0.0
C1129 C 0.16599 0.97529 0.89111 0.0
C1130 C 0.18862 0.02117 0.89665 0.0
C1131 C 0.24245 0.09756 0.88267 0.0
C1132 C 0.27315 0.12717 0.86304 0.0
C1133 C 0.21795 0.05145 0.87685 0.0
C1134 C 0.27727 0.1108 0.83699 0.0
C1135 C 0.25328 0.0652 0.83111 0.0
H1136 H 0.17249 0.25163 0.34067 0.0
H1137 H 0.12496 0.19424 0.42196 0.0
H1138 H 0.14326 0.13547 0.41182 0.0
H1139 H 0.17143 0.09935 0.37888 0.0
H1140 H 0.22787 0.16435 0.30017 0.0
H1141 H 0.20831 0.22117 0.31047 0.0
C1142 C 0.16706 0.22679 0.3564 0.0
C1143 C 0.14894 0.22822 0.38242 0.0
C1144 C 0.17894 0.19404 0.35073 0.0
C1145 C 0.14005 0.19454 0.40205 0.0
C1146 C 0.15051 0.16094 0.39623 0.0
C1147 C 0.18025 0.1263 0.36417 0.0
C1148 C 0.19991 0.12615 0.33826 0.0
C1149 C 0.1701 0.16031 0.37059 0.0
C1150 C 0.21111 0.16198 0.31973 0.0
C1151 C 0.20011 0.1949 0.32563 0.0
H1152 H 0.08259 0.24775 0.84045 0.0
H1153 H 0.11753 0.22532 0.92323 0.0
H1154 H 0.03865 0.18315 0.93573 0.0
H1155 H 0.95908 0.15575 0.92387 0.0
H1156 H 0.92615 0.18332 0.842 0.0
H1157 H 1.00446 0.2203 0.82851 0.0
C1158 C 0.07315 0.23396 0.86132 0.0
C1159 C 0.10636 0.24014 0.88085 0.0
C1160 C 1.02778 0.2105 0.86857 0.0
C1161 C 0.09298 0.2209 0.90759 0.0
C1162 C 0.04775 0.19689 0.91484 0.0
C1163 C 0.96929 0.1698 0.90311 0.0
C1164 C 0.93715 0.1678 0.88416 0.0
C1165 C 1.01479 0.19185 0.89561 0.0
C1166 C 0.95049 0.18556 0.85716 0.0
C1167 C 0.99524 0.20646 0.84938 0.0
H1168 H 0.91658 0.06549 0.36124 0.0
H1169 H 0.84851 0.07134 0.28661 0.0
H1170 H 0.79294 0.99409 0.29224 0.0
H1171 H 0.76395 0.9229 0.3166 0.0
H1172 H 0.81895 0.91857 0.39659 0.0
H1173 H 0.8788 0.99645 0.39065 0.0
C1174 C 0.88942 0.0503 0.34633 0.0
C1175 C 0.88918 0.0746 0.32246 0.0
C1176 C 0.85505 1.00554 0.3505 0.0
C1177 C 0.85232 0.05362 0.3041 0.0
C1178 C 0.81977 1.0091 0.30738 0.0
C1179 C 0.78884 0.93922 0.33288 0.0
C1180 C 0.78663 0.91538 0.35718 0.0
C1181 C 0.82131 0.98444 0.33007 0.0
C1182 C 0.8193 0.93666 0.378 0.0
C1183 C 0.85361 0.98112 0.3745 0.0
H1184 H 0.87579 0.79596 0.83144 0.0
H1185 H 0.92381 0.8118 0.91626 0.0
H1186 H 0.91471 0.87742 0.92208 0.0
H1187 H 0.8987 0.93372 0.90129 0.0
H1188 H 0.84559 0.91407 0.81757 0.0
H1189 H 0.8494 0.84545 0.81325 0.0
C1190 C 0.88355 0.81351 0.85131 0.0
C1191 C 0.89974 0.79894 0.87354 0.0
C1192 C 0.87697 0.85017 0.85469 0.0
C1193 C 0.91041 0.82203 0.8991 0.0
C1194 C 0.90535 0.85955 0.90236 0.0
C1195 C 0.88682 0.9136 0.88245 0.0
C1196 C 0.87181 0.92865 0.85976 0.0
C1197 C 0.88917 0.87424 0.88015 0.0
C1198 C 0.85674 0.90271 0.83536 0.0
C1199 C 0.8595 0.86388 0.83277 0.0
H1200 H 0.17056 0.68561 0.1392 0.0
H1201 H 0.11046 0.69038 0.06132 0.0
H1202 H 0.09522 0.61516 0.04965 0.0
H1203 H 0.10592 0.55124 0.05928 0.0
H1204 H 0.17339 0.54922 0.13477 0.0
H1205 H 0.17994 0.62027 0.14938 0.0
C1206 C 0.15236 0.66923 0.12028 0.0
C1207 C 0.13896 0.69244 0.10199 0.0
C1208 C 0.14659 0.62705 0.11283 0.0
C1209 C 0.11871 0.67226 0.07647 0.0
C1210 C 0.1108 0.62956 0.06957 0.0
C1211 C 0.1217 0.56606 0.07909 0.0
C1212 C 0.13917 0.54468 0.09587 0.0
C1213 C 0.12567 0.60713 0.08722 0.0
C1214 C 0.16017 0.56502 0.12123 0.0
C1215 C 0.16352 0.60551 0.12973 0.0
H1216 H 0.57136 0.09718 0.57758 0.0
H1217 H 0.62515 0.16467 0.65593 0.0
H1218 H 0.55818 0.17105 0.66327 0.0
H1219 H 0.48495 0.15995 0.64597 0.0
H1220 H 0.43618 0.09703 0.56584 0.0
H1221 H 0.49931 0.08449 0.56122 0.0
C1222 C 0.56839 0.11293 0.59646 0.0
C1223 C 0.60335 0.13027 0.6162 0.0
C1224 C 0.52997 0.11635 0.60049 0.0
C1225 C 0.59909 0.15144 0.64021 0.0
C1226 C 0.56053 0.15465 0.64455 0.0
C1227 C 0.48755 0.14211 0.62806 0.0
C1228 C 0.45496 0.12766 0.60677 0.0
C1229 C 0.52564 0.13725 0.62478 0.0
C1230 C 0.46003 0.10699 0.58286 0.0
C1231 C 0.49644 0.10038 0.58005 0.0
H1232 H 0.45911 0.56584 0.0595 0.0
H1233 H 0.49551 0.61131 0.14467 0.0
H1234 H 0.42988 0.54361 0.16153 0.0
H1235 H 0.36072 0.47165 0.1519 0.0
H1236 H 0.32463 0.4287 0.06649 0.0
H1237 H 0.39248 0.49399 0.05003 0.0
C1238 C 0.45331 0.56089 0.08184 0.0
C1239 C 0.48286 0.59402 0.10072 0.0
C1240 C 0.41586 0.52159 0.09139 0.0
C1241 C 0.47346 0.58701 0.12952 0.0
C1242 C 0.43606 0.54794 0.13921 0.0
C1243 C 0.36854 0.47607 0.12975 0.0
C1244 C 0.33868 0.44407 0.11053 0.0
C1245 C 0.40701 0.5149 0.12035 0.0
C1246 C 0.34801 0.45146 0.0818 0.0
C1247 C 0.38649 0.48929 0.07236 0.0
H1248 H 0.93105 0.47885 0.62835 0.0
H1249 H 0.88109 0.46014 0.5438 0.0
H1250 H 0.8771 0.38762 0.54168 0.0
H1251 H 0.8889 0.33049 0.56304 0.0
H1252 H 0.92652 0.34065 0.64989 0.0
H1253 H 0.93588 0.41612 0.65187 0.0
C1254 C 0.91852 0.45835 0.60972 0.0
C1255 C 0.90584 0.4746 0.58628 0.0
C1256 C 0.91537 0.41587 0.60888 0.0
C1257 C 0.89018 0.44804 0.56217 0.0
C1258 C 0.8884 0.40682 0.56088 0.0
C1259 C 0.89949 0.34923 0.58247 0.0
C1260 C 0.90887 0.33055 0.60597 0.0
C1261 C 0.9013 0.39067 0.58394 0.0
C1262 C 0.92112 0.3549 0.63113 0.0
C1263 C 0.92563 0.39775 0.63235 0.0
H1264 H 0.576 0.89803 0.07259 0.0
H1265 H 0.61404 0.89602 0.15826 0.0
H1266 H 0.5483 0.8979 0.17455 0.0
H1267 H 0.47716 0.89516 0.16453 0.0
H1268 H 0.43577 0.89162 0.07888 0.0
H1269 H 0.50451 0.89515 0.06253 0.0
C1270 C 0.57021 0.89875 0.09484 0.0
C1271 C 0.60109 0.89869 0.11415 0.0
C1272 C 0.53094 0.89758 0.10405 0.0
C1273 C 0.59224 0.89806 0.14289 0.0
C1274 C 0.55405 0.89835 0.15223 0.0
C1275 C 0.48326 0.89552 0.14225 0.0
C1276 C 0.45116 0.89321 0.12297 0.0
C1277 C 0.52285 0.89748 0.13301 0.0
C1278 C 0.45947 0.89285 0.09421 0.0
C1279 C 0.49902 0.89527 0.08484 0.0
H1280 H 0.70518 0.54988 0.65524 0.0
H1281 H 0.72672 0.59995 0.57079 0.0
H1282 H 0.65434 0.53832 0.55662 0.0
H1283 H 0.58725 0.46809 0.56739 0.0
H1284 H 0.56463 0.41586 0.65145 0.0
H1285 H 0.6354 0.47973 0.66651 0.0
C1286 C 0.69336 0.5476 0.63392 0.0
C1287 C 0.72038 0.5802 0.6143 0.0
C1288 C 0.65198 0.51127 0.62575 0.0
C1289 C 0.70576 0.57613 0.58646 0.0
C1290 C 0.66461 0.54061 0.57829 0.0
C1291 C 0.5973 0.47085 0.58914 0.0
C1292 C 0.57034 0.43707 0.60824 0.0
C1293 C 0.63772 0.50773 0.59765 0.0
C1294 C 0.5848 0.44095 0.63618 0.0
C1295 C 0.62514 0.4777 0.64486 0.0
H1296 H 0.33947 0.8643 0.43878 0.0
H1297 H 0.33952 0.91898 0.35775 0.0
H1298 H 0.41508 0.93163 0.34913 0.0
H1299 H 0.48061 0.92455 0.36477 0.0
H1300 H 0.47239 0.85821 0.4428 0.0
H1301 H 0.39954 0.85071 0.452 0.0
C1302 C 0.35589 0.87918 0.41917 0.0
C1303 C 0.33441 0.89238 0.39937 0.0
C1304 C 0.39744 0.88297 0.41361 0.0
C1305 C 0.35601 0.91053 0.37389 0.0
C1306 C 0.39888 0.9169 0.36879 0.0
C1307 C 0.46242 0.90792 0.38356 0.0
C1308 C 0.48174 0.89166 0.40307 0.0
C1309 C 0.41983 0.90287 0.38846 0.0
C1310 C 0.45799 0.87033 0.42735 0.0
C1311 C 0.41656 0.86648 0.43273 0.0
H1312 H 0.59089 0.46296 0.84551 0.0
H1313 H 0.62965 0.49173 0.93236 0.0
H1314 H 0.56165 0.42429 0.94624 0.0
H1315 H 0.49145 0.3565 0.93381 0.0
H1316 H 0.45325 0.32744 0.84714 0.0
H1317 H 0.51962 0.39659 0.83319 0.0
C1318 C 0.58438 0.45497 0.86754 0.0
C1319 C 0.61582 0.48282 0.88782 0.0
C1320 C 0.54476 0.41638 0.87545 0.0
C1321 C 0.60679 0.47089 0.91619 0.0
C1322 C 0.56756 0.43247 0.92419 0.0
C1323 C 0.49737 0.36577 0.91189 0.0
C1324 C 0.46671 0.33748 0.8916 0.0
C1325 C 0.53634 0.40498 0.90402 0.0
C1326 C 0.47537 0.34921 0.86324 0.0
C1327 C 0.51374 0.38853 0.85525 0.0
H1328 H 0.20183 0.59008 0.35667 0.0
H1329 H 0.1485 0.59413 0.43729 0.0
H1330 H 0.11805 0.51359 0.44257 0.0
H1331 H 0.11685 0.44453 0.42732 0.0
H1332 H 0.16776 0.43961 0.34603 0.0
H1333 H 0.18784 0.51721 0.33755 0.0
C1334 C 0.1824 0.57299 0.375 0.0
C1335 C 0.17744 0.59809 0.39661 0.0
C1336 C 0.16478 0.52646 0.37781 0.0
C1337 C 0.15245 0.57559 0.42032 0.0
C1338 C 0.13532 0.52954 0.42341 0.0
C1339 C 0.13087 0.46002 0.40734 0.0
C1340 C 0.14074 0.43619 0.38733 0.0
C1341 C 0.1426 0.50491 0.40273 0.0
C1342 C 0.15927 0.45684 0.36164 0.0
C1343 C 0.1713 0.50153 0.35695 0.0
H1344 H 0.69469 0.14563 0.93259 0.0
H1345 H 0.73132 0.14486 0.84655 0.0
H1346 H 0.66734 0.15156 0.83106 0.0
H1347 H 0.60733 0.16841 0.84237 0.0
H1348 H 0.5762 0.17587 0.92906 0.0
H1349 H 0.63109 0.15554 0.94374 0.0
C1350 C 0.68803 0.14587 0.9104 0.0
C1351 C 0.71774 0.14468 0.89078 0.0
C1352 C 0.65247 0.15184 0.90176 0.0
C1353 C 0.70878 0.14511 0.86212 0.0
C1354 C 0.67247 0.14962 0.85328 0.0
C1355 C 0.61241 0.16554 0.8645 0.0
C1356 C 0.58754 0.17424 0.8845 0.0
C1357 C 0.64517 0.15489 0.87296 0.0
C1358 C 0.59417 0.16913 0.91305 0.0
C1359 C 0.62595 0.15778 0.92154 0.0
H1360 H 0.45143 0.58986 0.34574 0.0
H1361 H 0.41481 0.56836 0.43302 0.0
H1362 H 0.49046 0.62457 0.44619 0.0
H1363 H 0.56502 0.68535 0.43296 0.0
H1364 H 0.60057 0.70972 0.34576 0.0
H1365 H 0.52806 0.64696 0.33265 0.0
C1366 C 0.4599 0.59731 0.36768 0.0
C1367 C 0.4268 0.57481 0.3883 0.0
C1368 C 0.50357 0.63042 0.37517 0.0
C1369 C 0.43918 0.58456 0.41661 0.0
C1370 C 0.48254 0.61708 0.4242 0.0
C1371 C 0.55717 0.67641 0.41109 0.0
C1372 C 0.58857 0.70225 0.39042 0.0
C1373 C 0.51474 0.64093 0.40366 0.0
C1374 C 0.57762 0.69031 0.36218 0.0
C1375 C 0.5358 0.65455 0.35465 0.0
H1376 H 0.88326 0.56911 0.86964 0.0
H1377 H 0.96867 0.63322 0.94039 0.0
H1378 H 0.97914 0.56913 0.94724 0.0
H1379 H 0.95514 0.49137 0.93788 0.0
H1380 H 0.85415 0.4199 0.87519 0.0
H1381 H 0.85969 0.48982 0.85973 0.0
C1382 C 0.9057 0.56956 0.8857 0.0
C1383 C 0.92759 0.60702 0.90337 0.0
C1384 C 0.90781 0.53051 0.89133 0.0
C1385 C 0.95371 0.60592 0.92553 0.0
C1386 C 0.95899 0.56889 0.92976 0.0
C1387 C 0.93381 0.49059 0.92098 0.0
C1388 C 0.90335 0.4496 0.90837 0.0
C1389 C 0.9347 0.53033 0.91356 0.0
C1390 C 0.87794 0.45045 0.88552 0.0
C1391 C 0.88077 0.49059 0.87678 0.0
H1392 H 0.2508 0.35543 0.30341 0.0
H1393 H 0.15869 0.40471 0.29884 0.0
H1394 H 0.16748 0.41219 0.24798 0.0
H1395 H 0.1928 0.39305 0.20459 0.0
H1396 H 0.29657 0.35888 0.20996 0.0
H1397 H 0.29197 0.35701 0.26063 0.0
C1398 C 0.23381 0.3691 0.29134 0.0
C1399 C 0.2024 0.37738 0.30434 0.0
C1400 C 0.24023 0.37475 0.26223 0.0
C1401 C 0.18139 0.39611 0.28875 0.0
C1402 C 0.18655 0.40057 0.25976 0.0
C1403 C 0.21504 0.38607 0.21667 0.0
C1404 C 0.24257 0.37274 0.20316 0.0
C1405 C 0.21429 0.38787 0.24609 0.0
C1406 C 0.2724 0.36566 0.21957 0.0
C1407 C 0.27047 0.36544 0.24873 0.0
H1408 H 0.92543 0.27021 0.72098 0.0
H1409 H 0.79861 0.16031 0.69486 0.0
H1410 H 0.77444 0.14591 0.74349 0.0
H1411 H 0.79098 0.16069 0.79338 0.0
H1412 H 0.92136 0.26262 0.82029 0.0
H1413 H 0.94237 0.28454 0.7714 0.0
C1414 C 0.8928 0.24262 0.72583 0.0
C1415 C 0.86453 0.21563 0.70406 0.0
C1416 C 0.87972 0.23323 0.75405 0.0
C1417 C 0.82148 0.18136 0.71096 0.0
C1418 C 0.80758 0.17302 0.73885 0.0
C1419 C 0.82428 0.18723 0.78865 0.0
C1420 C 0.8549 0.20908 0.81054 0.0
C1421 C 0.83678 0.19802 0.76055 0.0
C1422 C 0.89712 0.24504 0.80394 0.0
C1423 C 0.90924 0.25734 0.77594 0.0
H1424 H 0.64801 0.88298 0.21276 0.0
H1425 H 0.66643 0.77383 0.18619 0.0
H1426 H 0.65496 0.74615 0.23428 0.0
H1427 H 0.64992 0.75877 0.28426 0.0
H1428 H 0.64172 0.87362 0.31135 0.0
H1429 H 0.63793 0.89273 0.26258 0.0
C1430 C 0.64983 0.85326 0.21743 0.0
C1431 C 0.65946 0.8313 0.19595 0.0
C1432 C 0.64538 0.83883 0.24527 0.0
C1433 C 0.65965 0.79173 0.20228 0.0
C1434 C 0.65339 0.77607 0.22983 0.0
C1435 C 0.64771 0.78827 0.27963 0.0
C1436 C 0.64816 0.81583 0.3016 0.0
C1437 C 0.64796 0.80034 0.25159 0.0
C1438 C 0.64265 0.85241 0.29503 0.0
C1439 C 0.64073 0.8635 0.26708 0.0
H1440 H 0.78451 0.6482 0.7163 0.0
H1441 H 0.90885 0.6585 0.69115 0.0
H1442 H 0.92574 0.65116 0.73947 0.0
H1443 H 0.9104 0.65222 0.78938 0.0
H1444 H 0.79604 0.66225 0.81468 0.0
H1445 H 0.77028 0.65187 0.76641 0.0
C1446 C 0.81585 0.64998 0.72133 0.0
C1447 C 0.8455 0.6544 0.69973 0.0
C1448 C 0.82746 0.65011 0.74955 0.0
C1449 C 0.88487 0.65432 0.70687 0.0
C1450 C 0.89502 0.65098 0.73476 0.0
C1451 C 0.88011 0.65275 0.78445 0.0
C1452 C 0.85563 0.65864 0.80594 0.0
C1453 C 0.86735 0.65048 0.75632 0.0
C1454 C 0.81556 0.65746 0.79893 0.0
C1455 C 0.80104 0.6521 0.77112 0.0
H1456 H 0.13573 0.76497 0.22088 0.0
H1457 H 0.25357 0.88557 0.19542 0.0
H1458 H 0.27537 0.90429 0.24411 0.0
H1459 H 0.25927 0.88843 0.29389 0.0
H1460 H 0.13426 0.77662 0.31982 0.0
H1461 H 0.11723 0.75178 0.27113 0.0
C1462 C 0.16573 0.7958 0.22584 0.0
C1463 C 0.19257 0.82399 0.2041 0.0
C1464 C 0.17671 0.80789 0.25412 0.0
C1465 C 0.23227 0.86291 0.21132 0.0
C1466 C 0.24464 0.87389 0.23933 0.0
C1467 C 0.22753 0.85956 0.28901 0.0
C1468 C 0.19741 0.83563 0.31063 0.0
C1469 C 0.21669 0.84708 0.26087 0.0
C1470 C 0.15786 0.7963 0.30372 0.0
C1471 C 0.14798 0.78215 0.2758 0.0
H1472 H 0.39225 0.27083 0.78733 0.0
H1473 H 0.40694 0.16138 0.8181 0.0
H1474 H 0.4171 0.14335 0.77015 0.0
H1475 H 0.41299 0.1533 0.71935 0.0
H1476 H 0.38766 0.2564 0.68924 0.0
H1477 H 0.39066 0.28237 0.73705 0.0
C1478 C 0.39701 0.24258 0.78372 0.0
C1479 C 0.39736 0.21668 0.80643 0.0
C1480 C 0.40051 0.231 0.75608 0.0
C1481 C 0.40569 0.18149 0.80111 0.0
C1482 C 0.41131 0.17102 0.77364 0.0
C1483 C 0.4077 0.18121 0.7232 0.0
C1484 C 0.3985 0.20177 0.70064 0.0
C1485 C 0.40725 0.19461 0.75092 0.0
C1486 C 0.39399 0.23931 0.70606 0.0
C1487 C 0.39548 0.25409 0.73348 0.0
H1488 H 0.32758 0.3207 0.94875 0.0
H1489 H 0.28433 0.18662 0.97708 0.0
H1490 H 0.24682 0.19807 0.01685 0.0
H1491 H 0.22785 0.24601 0.04389 0.0
H1492 H 0.27352 0.38144 0.01763 0.0
H1493 H 0.30718 0.36884 0.97585 0.0
C1494 C 0.3099 0.29381 0.96354 0.0
C1495 C 0.30909 0.25274 0.95988 0.0
C1496 C 0.28828 0.30066 0.9864 0.0
C1497 C 0.28593 0.21855 0.97939 0.0
C1498 C 0.26423 0.22504 1.00206 0.0
C1499 C 0.24484 0.27297 0.02902 0.0
C1500 C 0.24807 0.31483 0.03403 0.0
C1501 C 0.26532 0.26593 0.00577 0.0
C1502 C 0.27004 0.34887 0.01425 0.0
C1503 C 0.28972 0.34175 0.99054 0.0
H1504 H 1.01767 0.23861 0.44669 0.0
H1505 H 0.13202 0.35035 0.48455 0.0
H1506 H 0.09152 0.33747 0.52826 0.0
H1507 H 1.02349 0.29726 0.55503 0.0
H1508 H 0.90813 0.18415 0.51893 0.0
H1509 H 0.94889 0.19559 0.47491 0.0
C1510 C 0.03385 0.25989 0.46461 0.0
C1511 C 0.07839 0.29504 0.46238 0.0
C1512 C 1.0099 0.2526 0.48978 0.0
C1513 C 0.09859 0.32232 0.48578 0.0
C1514 C 0.0751 0.31535 0.51073 0.0
C1515 C 1.00682 0.27477 0.5377 0.0
C1516 C 0.96224 0.24009 0.54041 0.0
C1517 C 0.0307 0.28094 0.51285 0.0
C1518 C 0.94198 0.21152 0.51747 0.0
C1519 C 0.96546 0.21791 0.49233 0.0
H1520 H 0.7734 0.02393 0.06284 0.0
H1521 H 0.74782 0.90631 0.01655 0.0
H1522 H 0.77467 0.95059 0.9738 0.0
H1523 H 0.80128 0.022 0.94905 0.0
H1524 H 0.83353 0.14046 0.99626 0.0
H1525 H 0.80932 0.09687 0.03923 0.0
C1526 C 0.77363 1.00772 0.04346 0.0
C1527 C 0.75647 0.96103 0.04288 0.0
C1528 C 0.79063 0.03379 0.01909 0.0
C1529 C 0.75881 0.94148 0.01761 0.0
C1530 C 0.77468 0.96703 0.99312 0.0
C1531 C 0.80348 0.03863 0.96872 0.0
C1532 C 0.8181 0.08492 0.96902 0.0
C1533 C 0.78991 1.0131 0.99351 0.0
C1534 C 0.82158 0.10532 0.99501 0.0
C1535 C 0.80764 0.08013 0.0197 0.0
H1536 H 0.77605 0.75908 0.55378 0.0
H1537 H 0.79552 0.65993 0.51112 0.0
H1538 H 0.77105 0.67803 0.46707 0.0
H1539 H 0.74383 0.72208 0.44106 0.0
H1540 H 0.72946 0.8235 0.48472 0.0
H1541 H 0.75254 0.80433 0.52813 0.0
C1542 C 0.77544 0.74127 0.53498 0.0
C1543 C 0.78786 0.70794 0.53607 0.0
C1544 C 0.76195 0.75222 0.50989 0.0
C1545 C 0.78631 0.68564 0.51113 0.0
C1546 C 0.77224 0.69603 0.48592 0.0
C1547 C 0.7455 0.74006 0.46003 0.0
C1548 C 0.73362 0.77396 0.4594 0.0
C1549 C 0.75986 0.72925 0.48509 0.0
C1550 C 0.73699 0.79686 0.48434 0.0
C1551 C 0.75061 0.78599 0.50928 0.0
H1552 H 0.03842 0.78952 0.94837 0.0
H1553 H 0.92291 0.68003 0.98639 0.0
H1554 H 0.96411 0.69138 0.0299 0.0
H1555 H 0.03319 0.72969 0.0563 0.0
H1556 H 0.14898 0.84184 0.02025 0.0
H1557 H 0.10776 0.8314 0.97646 0.0
C1558 C 1.0222 0.76843 0.9663 0.0
C1559 C 0.97721 0.73434 0.96424 0.0
C1560 C 0.0464 0.7751 0.99135 0.0
C1561 C 0.95679 0.70728 0.9876 0.0
C1562 C 0.98064 0.71338 0.01239 0.0
C1563 C 0.04976 0.75222 0.03906 0.0
C1564 C 0.09467 0.78624 0.04167 0.0
C1565 C 1.0255 0.74686 0.01439 0.0
C1566 C 0.11489 0.81492 0.01884 0.0
C1567 C 0.09115 0.80912 0.99382 0.0
H1568 H 0.24423 1.002 0.45793 0.0
H1569 H 0.25505 0.8951 0.4967 0.0
H1570 H 0.2826 0.93933 0.5398 0.0
H1571 H 0.30915 1.01065 0.56485 0.0
H1572 H 0.29845 0.11745 0.52544 0.0
H1573 H 0.26632 0.07118 0.48383 0.0
C1574 C 0.25217 0.98801 0.47589 0.0
C1575 C 0.24745 0.94501 0.47399 0.0
C1576 C 0.26896 1.01407 0.50024 0.0
C1577 C 0.25756 0.92754 0.49761 0.0
C1578 C 0.27393 0.9532 0.52214 0.0
C1579 C 0.29976 0.02402 0.54727 0.0
C1580 C 0.30721 0.06822 0.54831 0.0
C1581 C 0.28069 0.99689 0.52345 0.0
C1582 C 0.29415 0.08423 0.52522 0.0
C1583 C 0.27541 0.05756 0.50144 0.0
loop_
_geom_bond_atom_site_label_1
_geom_bond_atom_site_label_2
_geom_bond_distance
_geom_bond_site_symmetry_2
_ccdc_geom_bond_type
Gd0 N31 2.661 . S
Gd0 N37 2.601 . S
Gd0 O44 2.545 . S
Gd0 O45 2.606 . S
Gd0 O47 2.429 . S
Gd0 O48 2.545 . S
Gd0 O49 2.412 . S
Gd0 O51 2.362 . S
Gd0 O52 2.324 . S
Gd0 C59 2.828 . S
Gd1 N10 2.661 . S
Gd1 N14 2.601 . S
Gd1 O45 2.362 . S
Gd1 O46 2.324 . S
Gd1 O50 2.545 . S
Gd1 O51 2.606 . S
Gd1 O53 2.429 . S
Gd1 O54 2.545 . S
Gd1 O55 2.412 . S
Gd1 C68 2.828 . S
C2 C5 1.400 1_655 S
C2 C7 1.443 . S
C2 C8 1.416 . S
C3 C6 1.437 1_655 S
C3 C7 1.317 . S
C3 H22 0.929 . S
C4 C5 1.426 . S
C4 C6 1.413 . S
C4 N14 1.359 . S
C5 C2 1.400 1_455 S
C5 C4 1.426 . S
C5 N10 1.350 . S
C6 C3 1.437 1_455 S
C6 C4 1.413 . S
C6 C16 1.391 . S
C7 C2 1.443 . S
C7 C3 1.317 . S
C7 H18 0.930 . S
C8 C2 1.416 . S
C8 C9 1.355 1_655 S
C8 H20 0.930 . S
C9 C8 1.355 1_455 S
C9 C11 1.402 . S
C9 H21 0.930 . S
N10 Gd1 2.661 . S
N10 C5 1.350 . S
N10 C11 1.307 . S
C11 C9 1.402 . S
C11 N10 1.307 . S
C11 H12 0.930 . S
H12 C11 0.930 . S
C13 N14 1.334 . S
C13 C15 1.394 . S
C13 H17 0.930 . S
N14 Gd1 2.601 . S
N14 C4 1.359 . S
N14 C13 1.334 . S
C15 C13 1.394 . S
C15 C16 1.359 . S
C15 H27 0.930 1_554 S
C16 C6 1.391 . S
C16 C15 1.359 . S
C16 H28 0.929 1_554 S
H17 C13 0.930 . S
H18 C7 0.930 . S
H19 C36 0.930 . S
H20 C8 0.930 . S
H21 C9 0.930 . S
H22 C3 0.929 . S
H23 C41 0.930 . S
H24 C32 0.930 . S
H25 C33 0.930 . S
H26 C57 0.929 . S
H27 C15 0.930 1_556 S
H28 C16 0.929 1_556 S
H29 C58 0.930 . S
H30 C39 0.930 . S
N31 Gd0 2.661 . S
N31 C35 1.350 . S
N31 C36 1.307 . S
C32 H24 0.930 . S
C32 C33 1.355 . S
C32 C34 1.412 . S
C33 H25 0.930 . S
C33 C32 1.355 . S
C33 C36 1.402 . S
C34 C32 1.412 . S
C34 C35 1.417 . S
C34 C58 1.431 . S
C35 N31 1.350 . S
C35 C34 1.417 . S
C35 C38 1.426 . S
C36 H19 0.930 . S
C36 N31 1.307 . S
C36 C33 1.402 . S
N37 Gd0 2.601 . S
N37 C38 1.359 . S
N37 C41 1.334 . S
C38 C35 1.426 . S
C38 N37 1.359 . S
C38 C42 1.413 . S
C39 H30 0.930 . S
C39 C40 1.359 . S
C39 C41 1.394 . S
C40 C39 1.359 . S
C40 C42 1.391 . S
C40 H43 0.929 . S
C41 H23 0.930 . S
C41 N37 1.334 . S
C41 C39 1.394 . S
C42 C38 1.413 . S
C42 C40 1.391 . S
C42 C57 1.437 . S
H43 C40 0.929 . S
O44 Gd0 2.545 . S
O44 C59 1.258 . S
O45 Gd0 2.606 . S
O45 Gd1 2.362 . S
O45 C56 1.284 . S
O46 Gd1 2.324 . S
O46 C66 1.254 . S
O47 Gd0 2.429 . S
O47 C66 1.268 . S
O48 Gd0 2.545 . S
O48 C56 1.250 . S
O49 Gd0 2.412 . S
O49 C59 1.252 . S
O50 Gd1 2.545 . S
O50 C68 1.258 . S
O51 Gd0 2.362 . S
O51 Gd1 2.606 . S
O51 C67 1.284 . S
O52 Gd0 2.324 . S
O52 C75 1.254 . S
O53 Gd1 2.429 . S
O53 C75 1.268 . S
O54 Gd1 2.545 . S
O54 C67 1.250 . S
O55 Gd1 2.412 . S
O55 C68 1.252 . S
C56 O45 1.284 . S
C56 O48 1.250 . S
C57 H26 0.929 . S
C57 C42 1.437 . S
C57 C58 1.317 . S
C58 H29 0.930 . S
C58 C34 1.431 . S
C58 C57 1.317 . S
C59 Gd0 2.828 . S
C59 O44 1.258 . S
C59 O49 1.252 . S
C59 C60 1.497 . S
C60 C59 1.497 . S
C60 C61 1.395 . S
C60 C62 1.380 . S
C61 C60 1.395 . S
C61 C64 1.398 . S
C61 H76 0.930 . S
C62 C60 1.380 . S
C62 C63 1.391 . S
C62 H77 0.930 . S
C63 C62 1.391 . S
C63 C65 1.387 . S
C64 C61 1.398 . S
C64 C65 1.380 . S
C64 H78 0.930 . S
C65 C63 1.387 . S
C65 C64 1.380 . S
C65 H79 0.930 . S
C66 O46 1.254 . S
C66 O47 1.268 . S
C67 O51 1.284 . S
C67 O54 1.250 . S
C68 Gd1 2.828 . S
C68 O50 1.258 . S
C68 O55 1.252 . S
C68 C69 1.497 . S
C69 C68 1.497 . S
C69 C70 1.395 . S
C69 C71 1.380 . S
C70 C69 1.395 . S
C70 C73 1.398 . S
C70 H80 0.930 . S
C71 C69 1.380 . S
C71 C72 1.391 . S
C71 H81 0.930 . S
C72 C71 1.391 . S
C72 C74 1.387 . S
C73 C70 1.398 . S
C73 C74 1.380 . S
C73 H82 0.930 . S
C74 C72 1.387 . S
C74 C73 1.380 . S
C74 H83 0.930 . S
C75 O52 1.254 . S
C75 O53 1.268 . S
H76 C61 0.930 . S
H77 C62 0.930 . S
H78 C64 0.930 . S
H79 C65 0.930 . S
H80 C70 0.930 . S
H81 C71 0.930 . S
H82 C73 0.930 . S
H83 C74 0.930 . S
Gd84 N115 2.661 . S
Gd84 N121 2.601 . S
Gd84 O128 2.545 . S
Gd84 O129 2.606 . S
Gd84 O131 2.429 . S
Gd84 O132 2.545 . S
Gd84 O133 2.412 . S
Gd84 O135 2.362 . S
Gd84 O136 2.324 . S
Gd84 C143 2.828 . S
Gd85 N94 2.661 . S
Gd85 N98 2.601 . S
Gd85 O129 2.362 . S
Gd85 O130 2.324 . S
Gd85 O134 2.545 . S
Gd85 O135 2.606 . S
Gd85 O137 2.429 . S
Gd85 O138 2.545 . S
Gd85 O139 2.412 . S
Gd85 C152 2.828 . S
C86 C89 1.400 1_565 S
C86 C91 1.441 . S
C86 C92 1.418 . S
C87 C90 1.437 1_565 S
C87 C91 1.317 . S
C87 H106 0.929 . S
C88 C89 1.426 . S
C88 C90 1.413 . S
C88 N98 1.359 . S
C89 C86 1.400 1_545 S
C89 C88 1.426 . S
C89 N94 1.350 . S
C90 C87 1.437 1_545 S
C90 C88 1.413 . S
C90 C100 1.391 . S
C91 C86 1.441 . S
C91 C87 1.317 . S
C91 H102 0.930 . S
C92 C86 1.418 . S
C92 C93 1.355 1_565 S
C92 H104 0.930 . S
C93 C92 1.355 1_545 S
C93 C95 1.402 . S
C93 H105 0.930 . S
N94 Gd85 2.661 . S
N94 C89 1.350 . S
N94 C95 1.307 . S
C95 C93 1.402 . S
C95 N94 1.307 . S
C95 H96 0.930 . S
H96 C95 0.930 . S
C97 N98 1.334 . S
C97 C99 1.394 . S
C97 H101 0.930 . S
N98 Gd85 2.601 . S
N98 C88 1.359 . S
N98 C97 1.334 . S
C99 C97 1.394 . S
C99 C100 1.359 . S
C99 H111 0.930 . S
C100 C90 1.391 . S
C100 C99 1.359 . S
C100 H112 0.929 . S
H101 C97 0.930 . S
H102 C91 0.930 . S
H103 C120 0.930 . S
H104 C92 0.930 . S
H105 C93 0.930 . S
H106 C87 0.929 . S
H107 C125 0.930 . S
H108 C116 0.930 1_455 S
H109 C117 0.930 . S
H110 C141 0.929 . S
H111 C99 0.930 . S
H112 C100 0.929 . S
H113 C142 0.930 . S
H114 C123 0.930 . S
N115 Gd84 2.661 . S
N115 C119 1.350 . S
N115 C120 1.307 . S
C116 H108 0.930 1_655 S
C116 C117 1.355 . S
C116 C118 1.412 . S
C117 H109 0.930 . S
C117 C116 1.355 . S
C117 C120 1.402 . S
C118 C116 1.412 . S
C118 C119 1.417 . S
C118 C142 1.431 1_655 S
C119 N115 1.350 . S
C119 C118 1.417 . S
C119 C122 1.426 . S
C120 H103 0.930 . S
C120 N115 1.307 . S
C120 C117 1.402 . S
N121 Gd84 2.601 . S
N121 C122 1.359 . S
N121 C125 1.334 . S
C122 C119 1.426 . S
C122 N121 1.359 . S
C122 C126 1.413 . S
C123 H114 0.930 . S
C123 C124 1.359 . S
C123 C125 1.394 . S
C124 C123 1.359 . S
C124 C126 1.391 . S
C124 H127 0.929 . S
C125 H107 0.930 . S
C125 N121 1.334 . S
C125 C123 1.394 . S
C126 C122 1.413 . S
C126 C124 1.391 . S
C126 C141 1.437 1_655 S
H127 C124 0.929 . S
O128 Gd84 2.545 . S
O128 C143 1.258 . S
O129 Gd84 2.606 . S
O129 Gd85 2.362 . S
O129 C140 1.284 . S
O130 Gd85 2.324 . S
O130 C150 1.254 . S
O131 Gd84 2.429 . S
O131 C150 1.268 . S
O132 Gd84 2.545 . S
O132 C140 1.250 . S
O133 Gd84 2.412 . S
O133 C143 1.252 . S
O134 Gd85 2.545 . S
O134 C152 1.258 . S
O135 Gd84 2.362 . S
O135 Gd85 2.606 . S
O135 C151 1.284 . S
O136 Gd84 2.324 . S
O136 C159 1.254 . S
O137 Gd85 2.429 . S
O137 C159 1.268 . S
O138 Gd85 2.545 . S
O138 C151 1.250 . S
O139 Gd85 2.412 . S
O139 C152 1.252 . S
C140 O129 1.284 . S
C140 O132 1.250 . S
C141 H110 0.929 . S
C141 C126 1.437 1_455 S
C141 C142 1.317 . S
C142 H113 0.930 . S
C142 C118 1.431 1_455 S
C142 C141 1.317 . S
C143 Gd84 2.828 . S
C143 O128 1.258 . S
C143 O133 1.252 . S
C143 C144 1.497 1_655 S
C144 C143 1.497 1_455 S
C144 C145 1.395 . S
C144 C146 1.380 . S
C145 C144 1.395 . S
C145 C148 1.398 . S
C145 H160 0.930 . S
C146 C144 1.380 . S
C146 C147 1.391 . S
C146 H161 0.930 . S
C147 C146 1.391 . S
C147 C149 1.387 . S
C148 C145 1.398 . S
C148 C149 1.380 . S
C148 H162 0.930 . S
C149 C147 1.387 . S
C149 C148 1.380 . S
C149 H163 0.930 . S
C150 O130 1.254 . S
C150 O131 1.268 . S
C151 O135 1.284 . S
C151 O138 1.250 . S
C152 Gd85 2.828 . S
C152 O134 1.258 . S
C152 O139 1.252 . S
C152 C153 1.497 . S
C153 C152 1.497 . S
C153 C154 1.395 . S
C153 C155 1.380 . S
C154 C153 1.395 . S
C154 C157 1.398 . S
C154 H164 0.930 . S
C155 C153 1.380 . S
C155 C156 1.391 . S
C155 H165 0.930 . S
C156 C155 1.391 . S
C156 C158 1.387 . S
C157 C154 1.398 . S
C157 C158 1.380 . S
C157 H166 0.930 . S
C158 C156 1.387 . S
C158 C157 1.380 . S
C158 H167 0.930 . S
C159 O136 1.254 . S
C159 O137 1.268 . S
H160 C145 0.930 . S
H161 C146 0.930 . S
H162 C148 0.930 . S
H163 C149 0.930 . S
H164 C154 0.930 . S
H165 C155 0.930 . S
H166 C157 0.930 . S
H167 C158 0.930 . S
Gd168 N199 2.661 . S
Gd168 N205 2.601 . S
Gd168 O212 2.545 . S
Gd168 O213 2.606 . S
Gd168 O215 2.429 . S
Gd168 O216 2.545 . S
Gd168 O217 2.412 . S
Gd168 O219 2.362 . S
Gd168 O220 2.324 . S
Gd168 C227 2.828 . S
Gd169 N178 2.661 . S
Gd169 N182 2.601 . S
Gd169 O213 2.362 . S
Gd169 O214 2.324 . S
Gd169 O218 2.545 . S
Gd169 O219 2.606 . S
Gd169 O221 2.429 . S
Gd169 O222 2.545 . S
Gd169 O223 2.412 . S
Gd169 C236 2.828 . S
C170 C173 1.417 . S
C170 C175 1.431 . S
C170 C176 1.412 . S
C171 C174 1.437 . S
C171 C175 1.317 . S
C171 H190 0.929 . S
C172 C173 1.426 . S
C172 C174 1.413 . S
C172 N182 1.359 . S
C173 C170 1.417 . S
C173 C172 1.426 . S
C173 N178 1.350 . S
C174 C171 1.437 . S
C174 C172 1.413 . S
C174 C184 1.391 . S
C175 C170 1.431 . S
C175 C171 1.317 . S
C175 H186 0.930 . S
C176 C170 1.412 . S
C176 C177 1.355 . S
C176 H188 0.930 . S
C177 C176 1.355 . S
C177 C179 1.402 . S
C177 H189 0.930 . S
N178 Gd169 2.661 . S
N178 C173 1.350 . S
N178 C179 1.307 . S
C179 C177 1.402 . S
C179 N178 1.307 . S
C179 H180 0.930 . S
H180 C179 0.930 . S
C181 N182 1.334 . S
C181 C183 1.394 . S
C181 H185 0.930 . S
N182 Gd169 2.601 . S
N182 C172 1.359 . S
N182 C181 1.334 . S
C183 C181 1.394 . S
C183 C184 1.359 . S
C183 H195 0.930 1_554 S
C184 C174 1.391 . S
C184 C183 1.359 . S
C184 H196 0.929 1_554 S
H185 C181 0.930 . S
H186 C175 0.930 . S
H187 C204 0.930 . S
H188 C176 0.930 . S
H189 C177 0.930 . S
H190 C171 0.929 . S
H191 C209 0.930 . S
H192 C200 0.930 1_545 S
H193 C201 0.930 . S
H194 C225 0.929 . S
H195 C183 0.930 1_556 S
H196 C184 0.929 1_556 S
H197 C226 0.930 . S
H198 C207 0.930 . S
N199 Gd168 2.661 . S
N199 C203 1.350 . S
N199 C204 1.307 . S
C200 H192 0.930 1_565 S
C200 C201 1.355 . S
C200 C202 1.412 . S
C201 H193 0.930 . S
C201 C200 1.355 . S
C201 C204 1.402 . S
C202 C200 1.412 . S
C202 C203 1.417 . S
C202 C226 1.431 1_565 S
C203 N199 1.350 . S
C203 C202 1.417 . S
C203 C206 1.426 . S
C204 H187 0.930 . S
C204 N199 1.307 . S
C204 C201 1.402 . S
N205 Gd168 2.601 . S
N205 C206 1.359 . S
N205 C209 1.334 . S
C206 C203 1.426 . S
C206 N205 1.359 . S
C206 C210 1.413 . S
C207 H198 0.930 . S
C207 C208 1.359 . S
C207 C209 1.394 . S
C208 C207 1.359 . S
C208 C210 1.391 . S
C208 H211 0.929 . S
C209 H191 0.930 . S
C209 N205 1.334 . S
C209 C207 1.394 . S
C210 C206 1.413 . S
C210 C208 1.391 . S
C210 C225 1.437 1_565 S
H211 C208 0.929 . S
O212 Gd168 2.545 . S
O212 C227 1.258 . S
O213 Gd168 2.606 . S
O213 Gd169 2.362 . S
O213 C224 1.284 . S
O214 Gd169 2.324 . S
O214 C234 1.254 . S
O215 Gd168 2.429 . S
O215 C234 1.268 . S
O216 Gd168 2.545 . S
O216 C224 1.250 . S
O217 Gd168 2.412 . S
O217 C227 1.252 . S
O218 Gd169 2.545 . S
O218 C236 1.258 . S
O219 Gd168 2.362 . S
O219 Gd169 2.606 . S
O219 C235 1.284 . S
O220 Gd168 2.324 . S
O220 C243 1.254 . S
O221 Gd169 2.429 . S
O221 C243 1.268 . S
O222 Gd169 2.545 . S
O222 C235 1.250 . S
O223 Gd169 2.412 . S
O223 C236 1.252 . S
C224 O213 1.284 . S
C224 O216 1.250 . S
C225 H194 0.929 . S
C225 C210 1.437 1_545 S
C225 C226 1.317 . S
C226 H197 0.930 . S
C226 C202 1.431 1_545 S
C226 C225 1.317 . S
C227 Gd168 2.828 . S
C227 O212 1.258 . S
C227 O217 1.252 . S
C227 C228 1.497 1_565 S
C228 C227 1.497 1_545 S
C228 C229 1.395 . S
C228 C230 1.380 . S
C229 C228 1.395 . S
C229 C232 1.398 . S
C229 H244 0.930 . S
C230 C228 1.380 . S
C230 C231 1.391 . S
C230 H245 0.930 . S
C231 C230 1.391 . S
C231 C233 1.387 . S
C232 C229 1.398 . S
C232 C233 1.380 . S
C232 H246 0.930 . S
C233 C231 1.387 . S
C233 C232 1.380 . S
C233 H247 0.930 . S
C234 O214 1.254 . S
C234 O215 1.268 . S
C235 O219 1.284 . S
C235 O222 1.250 . S
C236 Gd169 2.828 . S
C236 O218 1.258 . S
C236 O223 1.252 . S
C236 C237 1.497 . S
C237 C236 1.497 . S
C237 C238 1.395 . S
C237 C239 1.380 . S
C238 C237 1.395 . S
C238 C241 1.398 . S
C238 H248 0.930 . S
C239 C237 1.380 . S
C239 C240 1.391 . S
C239 H249 0.930 . S
C240 C239 1.391 . S
C240 C242 1.387 . S
C241 C238 1.398 . S
C241 C242 1.380 . S
C241 H250 0.930 . S
C242 C240 1.387 . S
C242 C241 1.380 . S
C242 H251 0.930 . S
C243 O220 1.254 . S
C243 O221 1.268 . S
H244 C229 0.930 . S
H245 C230 0.930 . S
H246 C232 0.930 . S
H247 C233 0.930 . S
H248 C238 0.930 . S
H249 C239 0.930 . S
H250 C241 0.930 . S
H251 C242 0.930 . S
Gd252 N283 2.661 . S
Gd252 N289 2.601 . S
Gd252 O296 2.545 . S
Gd252 O297 2.606 . S
Gd252 O299 2.429 . S
Gd252 O300 2.545 . S
Gd252 O301 2.412 . S
Gd252 O303 2.362 . S
Gd252 O304 2.324 . S
Gd252 C311 2.828 . S
Gd253 N262 2.661 . S
Gd253 N266 2.601 . S
Gd253 O297 2.362 . S
Gd253 O298 2.324 . S
Gd253 O302 2.545 . S
Gd253 O303 2.606 . S
Gd253 O305 2.429 . S
Gd253 O306 2.545 . S
Gd253 O307 2.412 . S
Gd253 C320 2.828 . S
C254 C257 1.400 1_455 S
C254 C259 1.443 . S
C254 C260 1.416 . S
C255 C258 1.437 1_455 S
C255 C259 1.317 . S
C255 H274 0.929 . S
C256 C257 1.426 . S
C256 C258 1.413 . S
C256 N266 1.359 . S
C257 C254 1.400 1_655 S
C257 C256 1.426 . S
C257 N262 1.350 . S
C258 C255 1.437 1_655 S
C258 C256 1.413 . S
C258 C268 1.391 . S
C259 C254 1.443 . S
C259 C255 1.317 . S
C259 H270 0.930 . S
C260 C254 1.416 . S
C260 C261 1.355 1_455 S
C260 H272 0.930 . S
C261 C260 1.355 1_655 S
C261 C263 1.402 . S
C261 H273 0.930 . S
N262 Gd253 2.661 . S
N262 C257 1.350 . S
N262 C263 1.307 . S
C263 C261 1.402 . S
C263 N262 1.307 . S
C263 H264 0.930 . S
H264 C263 0.930 . S
C265 N266 1.334 . S
C265 C267 1.394 . S
C265 H269 0.930 . S
N266 Gd253 2.601 . S
N266 C256 1.359 . S
N266 C265 1.334 . S
C267 C265 1.394 . S
C267 C268 1.359 . S
C267 H279 0.930 . S
C268 C258 1.391 . S
C268 C267 1.359 . S
C268 H280 0.929 . S
H269 C265 0.930 . S
H270 C259 0.930 . S
H271 C288 0.930 . S
H272 C260 0.930 . S
H273 C261 0.930 . S
H274 C255 0.929 . S
H275 C293 0.930 . S
H276 C284 0.930 . S
H277 C285 0.930 . S
H278 C309 0.929 . S
H279 C267 0.930 . S
H280 C268 0.929 . S
H281 C310 0.930 . S
H282 C291 0.930 . S
N283 Gd252 2.661 . S
N283 C287 1.350 . S
N283 C288 1.307 . S
C284 H276 0.930 . S
C284 C285 1.355 . S
C284 C286 1.412 . S
C285 H277 0.930 . S
C285 C284 1.355 . S
C285 C288 1.402 . S
C286 C284 1.412 . S
C286 C287 1.417 . S
C286 C310 1.431 . S
C287 N283 1.350 . S
C287 C286 1.417 . S
C287 C290 1.426 . S
C288 H271 0.930 . S
C288 N283 1.307 . S
C288 C285 1.402 . S
N289 Gd252 2.601 . S
N289 C290 1.359 . S
N289 C293 1.334 . S
C290 C287 1.426 . S
C290 N289 1.359 . S
C290 C294 1.413 . S
C291 H282 0.930 . S
C291 C292 1.359 . S
C291 C293 1.394 . S
C292 C291 1.359 . S
C292 C294 1.391 . S
C292 H295 0.929 . S
C293 H275 0.930 . S
C293 N289 1.334 . S
C293 C291 1.394 . S
C294 C290 1.413 . S
C294 C292 1.391 . S
C294 C309 1.437 . S
H295 C292 0.929 . S
O296 Gd252 2.545 . S
O296 C311 1.258 . S
O297 Gd252 2.606 . S
O297 Gd253 2.362 . S
O297 C308 1.284 . S
O298 Gd253 2.324 . S
O298 C318 1.254 . S
O299 Gd252 2.429 . S
O299 C318 1.268 . S
O300 Gd252 2.545 . S
O300 C308 1.250 . S
O301 Gd252 2.412 . S
O301 C311 1.252 . S
O302 Gd253 2.545 . S
O302 C320 1.258 . S
O303 Gd252 2.362 . S
O303 Gd253 2.606 . S
O303 C319 1.284 . S
O304 Gd252 2.324 . S
O304 C327 1.254 . S
O305 Gd253 2.429 . S
O305 C327 1.268 . S
O306 Gd253 2.545 . S
O306 C319 1.250 . S
O307 Gd253 2.412 . S
O307 C320 1.252 . S
C308 O297 1.284 . S
C308 O300 1.250 . S
C309 H278 0.929 . S
C309 C294 1.437 . S
C309 C310 1.317 . S
C310 H281 0.930 . S
C310 C286 1.431 . S
C310 C309 1.317 . S
C311 Gd252 2.828 . S
C311 O296 1.258 . S
C311 O301 1.252 . S
C311 C312 1.497 . S
C312 C311 1.497 . S
C312 C313 1.395 . S
C312 C314 1.380 . S
C313 C312 1.395 . S
C313 C316 1.398 . S
C313 H328 0.930 . S
C314 C312 1.380 . S
C314 C315 1.391 . S
C314 H329 0.930 . S
C315 C314 1.391 . S
C315 C317 1.387 . S
C316 C313 1.398 . S
C316 C317 1.380 . S
C316 H330 0.930 . S
C317 C315 1.387 . S
C317 C316 1.380 . S
C317 H331 0.930 . S
C318 O298 1.254 . S
C318 O299 1.268 . S
C319 O303 1.284 . S
C319 O306 1.250 . S
C320 Gd253 2.828 . S
C320 O302 1.258 . S
C320 O307 1.252 . S
C320 C321 1.497 . S
C321 C320 1.497 . S
C321 C322 1.395 . S
C321 C323 1.380 . S
C322 C321 1.395 . S
C322 C325 1.398 . S
C322 H332 0.930 . S
C323 C321 1.380 . S
C323 C324 1.391 . S
C323 H333 0.930 . S
C324 C323 1.391 . S
C324 C326 1.387 . S
C325 C322 1.398 . S
C325 C326 1.380 . S
C325 H334 0.930 . S
C326 C324 1.387 . S
C326 C325 1.380 . S
C326 H335 0.930 . S
C327 O304 1.254 . S
C327 O305 1.268 . S
H328 C313 0.930 . S
H329 C314 0.930 . S
H330 C316 0.930 . S
H331 C317 0.930 . S
H332 C322 0.930 . S
H333 C323 0.930 . S
H334 C325 0.930 . S
H335 C326 0.930 . S
Gd336 N367 2.661 . S
Gd336 N373 2.601 . S
Gd336 O380 2.545 . S
Gd336 O381 2.606 . S
Gd336 O383 2.429 . S
Gd336 O384 2.545 . S
Gd336 O385 2.412 . S
Gd336 O387 2.362 . S
Gd336 O388 2.324 . S
Gd336 C395 2.828 . S
Gd337 N346 2.661 . S
Gd337 N350 2.601 . S
Gd337 O381 2.362 . S
Gd337 O382 2.324 . S
Gd337 O386 2.545 . S
Gd337 O387 2.606 . S
Gd337 O389 2.429 . S
Gd337 O390 2.545 . S
Gd337 O391 2.412 . S
Gd337 C404 2.828 . S
C338 C341 1.400 1_545 S
C338 C343 1.441 . S
C338 C344 1.418 . S
C339 C342 1.437 1_545 S
C339 C343 1.317 . S
C339 H358 0.929 . S
C340 C341 1.426 . S
C340 C342 1.413 . S
C340 N350 1.359 . S
C341 C338 1.400 1_565 S
C341 C340 1.426 . S
C341 N346 1.350 . S
C342 C339 1.437 1_565 S
C342 C340 1.413 . S
C342 C352 1.391 . S
C343 C338 1.441 . S
C343 C339 1.317 . S
C343 H354 0.930 . S
C344 C338 1.418 . S
C344 C345 1.355 1_545 S
C344 H356 0.930 . S
C345 C344 1.355 1_565 S
C345 C347 1.402 . S
C345 H357 0.930 . S
N346 Gd337 2.661 . S
N346 C341 1.350 . S
N346 C347 1.307 . S
C347 C345 1.402 . S
C347 N346 1.307 . S
C347 H348 0.930 . S
H348 C347 0.930 . S
C349 N350 1.334 . S
C349 C351 1.394 . S
C349 H353 0.930 . S
N350 Gd337 2.601 . S
N350 C340 1.359 . S
N350 C349 1.334 . S
C351 C349 1.394 . S
C351 C352 1.359 . S
C351 H363 0.930 1_554 S
C352 C342 1.391 . S
C352 C351 1.359 . S
C352 H364 0.929 1_554 S
H353 C349 0.930 . S
H354 C343 0.930 . S
H355 C372 0.930 . S
H356 C344 0.930 . S
H357 C345 0.930 . S
H358 C339 0.929 . S
H359 C377 0.930 . S
H360 C368 0.930 1_655 S
H361 C369 0.930 . S
H362 C393 0.929 . S
H363 C351 0.930 1_556 S
H364 C352 0.929 1_556 S
H365 C394 0.930 . S
H366 C375 0.930 . S
N367 Gd336 2.661 . S
N367 C371 1.350 . S
N367 C372 1.307 . S
C368 H360 0.930 1_455 S
C368 C369 1.355 . S
C368 C370 1.412 . S
C369 H361 0.930 . S
C369 C368 1.355 . S
C369 C372 1.402 . S
C370 C368 1.412 . S
C370 C371 1.417 . S
C370 C394 1.431 1_455 S
C371 N367 1.350 . S
C371 C370 1.417 . S
C371 C374 1.426 . S
C372 H355 0.930 . S
C372 N367 1.307 . S
C372 C369 1.402 . S
N373 Gd336 2.601 . S
N373 C374 1.359 . S
N373 C377 1.334 . S
C374 C371 1.426 . S
C374 N373 1.359 . S
C374 C378 1.413 . S
C375 H366 0.930 . S
C375 C376 1.359 . S
C375 C377 1.394 . S
C376 C375 1.359 . S
C376 C378 1.391 . S
C376 H379 0.929 . S
C377 H359 0.930 . S
C377 N373 1.334 . S
C377 C375 1.394 . S
C378 C374 1.413 . S
C378 C376 1.391 . S
C378 C393 1.437 1_455 S
H379 C376 0.929 . S
O380 Gd336 2.545 . S
O380 C395 1.258 . S
O381 Gd336 2.606 . S
O381 Gd337 2.362 . S
O381 C392 1.284 . S
O382 Gd337 2.324 . S
O382 C402 1.254 . S
O383 Gd336 2.429 . S
O383 C402 1.268 . S
O384 Gd336 2.545 . S
O384 C392 1.250 . S
O385 Gd336 2.412 . S
O385 C395 1.252 . S
O386 Gd337 2.545 . S
O386 C404 1.258 . S
O387 Gd336 2.362 . S
O387 Gd337 2.606 . S
O387 C403 1.284 . S
O388 Gd336 2.324 . S
O388 C411 1.254 . S
O389 Gd337 2.429 . S
O389 C411 1.268 . S
O390 Gd337 2.545 . S
O390 C403 1.250 . S
O391 Gd337 2.412 . S
O391 C404 1.252 . S
C392 O381 1.284 . S
C392 O384 1.250 . S
C393 H362 0.929 . S
C393 C378 1.437 1_655 S
C393 C394 1.317 . S
C394 H365 0.930 . S
C394 C370 1.431 1_655 S
C394 C393 1.317 . S
C395 Gd336 2.828 . S
C395 O380 1.258 . S
C395 O385 1.252 . S
C395 C396 1.497 1_455 S
C396 C395 1.497 1_655 S
C396 C397 1.395 . S
C396 C398 1.380 . S
C397 C396 1.395 . S
C397 C400 1.398 . S
C397 H412 0.930 . S
C398 C396 1.380 . S
C398 C399 1.391 . S
C398 H413 0.930 . S
C399 C398 1.391 . S
C399 C401 1.387 . S
C400 C397 1.398 . S
C400 C401 1.380 . S
C400 H414 0.930 . S
C401 C399 1.387 . S
C401 C400 1.380 . S
C401 H415 0.930 . S
C402 O382 1.254 . S
C402 O383 1.268 . S
C403 O387 1.284 . S
C403 O390 1.250 . S
C404 Gd337 2.828 . S
C404 O386 1.258 . S
C404 O391 1.252 . S
C404 C405 1.497 . S
C405 C404 1.497 . S
C405 C406 1.395 . S
C405 C407 1.380 . S
C406 C405 1.395 . S
C406 C409 1.398 . S
C406 H416 0.930 . S
C407 C405 1.380 . S
C407 C408 1.391 . S
C407 H417 0.930 . S
C408 C407 1.391 . S
C408 C410 1.387 . S
C409 C406 1.398 . S
C409 C410 1.380 . S
C409 H418 0.930 . S
C410 C408 1.387 . S
C410 C409 1.380 . S
C410 H419 0.930 . S
C411 O388 1.254 . S
C411 O389 1.268 . S
H412 C397 0.930 . S
H413 C398 0.930 . S
H414 C400 0.930 . S
H415 C401 0.930 . S
H416 C406 0.930 . S
H417 C407 0.930 . S
H418 C409 0.930 . S
H419 C410 0.930 . S
Gd420 N451 2.661 . S
Gd420 N457 2.601 . S
Gd420 O464 2.545 . S
Gd420 O465 2.606 . S
Gd420 O467 2.429 . S
Gd420 O468 2.545 . S
Gd420 O469 2.412 . S
Gd420 O471 2.362 . S
Gd420 O472 2.324 . S
Gd420 C479 2.828 . S
Gd421 N430 2.661 . S
Gd421 N434 2.601 . S
Gd421 O465 2.362 . S
Gd421 O466 2.324 . S
Gd421 O470 2.545 . S
Gd421 O471 2.606 . S
Gd421 O473 2.429 . S
Gd421 O474 2.545 . S
Gd421 O475 2.412 . S
Gd421 C488 2.828 . S
C422 C425 1.417 . S
C422 C427 1.431 . S
C422 C428 1.412 . S
C423 C426 1.437 . S
C423 C427 1.317 . S
C423 H442 0.929 . S
C424 C425 1.426 . S
C424 C426 1.413 . S
C424 N434 1.359 . S
C425 C422 1.417 . S
C425 C424 1.426 . S
C425 N430 1.350 . S
C426 C423 1.437 . S
C426 C424 1.413 . S
C426 C436 1.391 . S
C427 C422 1.431 . S
C427 C423 1.317 . S
C427 H438 0.930 . S
C428 C422 1.412 . S
C428 C429 1.355 . S
C428 H440 0.930 . S
C429 C428 1.355 . S
C429 C431 1.402 . S
C429 H441 0.930 . S
N430 Gd421 2.661 . S
N430 C425 1.350 . S
N430 C431 1.307 . S
C431 C429 1.402 . S
C431 N430 1.307 . S
C431 H432 0.930 . S
H432 C431 0.930 . S
C433 N434 1.334 . S
C433 C435 1.394 . S
C433 H437 0.930 . S
N434 Gd421 2.601 . S
N434 C424 1.359 . S
N434 C433 1.334 . S
C435 C433 1.394 . S
C435 C436 1.359 . S
C435 H447 0.930 . S
C436 C426 1.391 . S
C436 C435 1.359 . S
C436 H448 0.929 . S
H437 C433 0.930 . S
H438 C427 0.930 . S
H439 C456 0.930 . S
H440 C428 0.930 . S
H441 C429 0.930 . S
H442 C423 0.929 . S
H443 C461 0.930 . S
H444 C452 0.930 1_565 S
H445 C453 0.930 . S
H446 C477 0.929 . S
H447 C435 0.930 . S
H448 C436 0.929 . S
H449 C478 0.930 . S
H450 C459 0.930 . S
N451 Gd420 2.661 . S
N451 C455 1.350 . S
N451 C456 1.307 . S
C452 H444 0.930 1_545 S
C452 C453 1.355 . S
C452 C454 1.412 . S
C453 H445 0.930 . S
C453 C452 1.355 . S
C453 C456 1.402 . S
C454 C452 1.412 . S
C454 C455 1.417 . S
C454 C478 1.431 1_545 S
C455 N451 1.350 . S
C455 C454 1.417 . S
C455 C458 1.426 . S
C456 H439 0.930 . S
C456 N451 1.307 . S
C456 C453 1.402 . S
N457 Gd420 2.601 . S
N457 C458 1.359 . S
N457 C461 1.334 . S
C458 C455 1.426 . S
C458 N457 1.359 . S
C458 C462 1.413 . S
C459 H450 0.930 . S
C459 C460 1.359 . S
C459 C461 1.394 . S
C460 C459 1.359 . S
C460 C462 1.391 . S
C460 H463 0.929 . S
C461 H443 0.930 . S
C461 N457 1.334 . S
C461 C459 1.394 . S
C462 C458 1.413 . S
C462 C460 1.391 . S
C462 C477 1.437 1_545 S
H463 C460 0.929 . S
O464 Gd420 2.545 . S
O464 C479 1.258 . S
O465 Gd420 2.606 . S
O465 Gd421 2.362 . S
O465 C476 1.284 . S
O466 Gd421 2.324 . S
O466 C486 1.254 . S
O467 Gd420 2.429 . S
O467 C486 1.268 . S
O468 Gd420 2.545 . S
O468 C476 1.250 . S
O469 Gd420 2.412 . S
O469 C479 1.252 . S
O470 Gd421 2.545 . S
O470 C488 1.258 . S
O471 Gd420 2.362 . S
O471 Gd421 2.606 . S
O471 C487 1.284 . S
O472 Gd420 2.324 . S
O472 C495 1.254 . S
O473 Gd421 2.429 . S
O473 C495 1.268 . S
O474 Gd421 2.545 . S
O474 C487 1.250 . S
O475 Gd421 2.412 . S
O475 C488 1.252 . S
C476 O465 1.284 . S
C476 O468 1.250 . S
C477 H446 0.929 . S
C477 C462 1.437 1_565 S
C477 C478 1.317 . S
C478 H449 0.930 . S
C478 C454 1.431 1_565 S
C478 C477 1.317 . S
C479 Gd420 2.828 . S
C479 O464 1.258 . S
C479 O469 1.252 . S
C479 C480 1.497 1_545 S
C480 C479 1.497 1_565 S
C480 C481 1.395 . S
C480 C482 1.380 . S
C481 C480 1.395 . S
C481 C484 1.398 . S
C481 H496 0.930 . S
C482 C480 1.380 . S
C482 C483 1.391 . S
C482 H497 0.930 . S
C483 C482 1.391 . S
C483 C485 1.387 . S
C484 C481 1.398 . S
C484 C485 1.380 . S
C484 H498 0.930 . S
C485 C483 1.387 . S
C485 C484 1.380 . S
C485 H499 0.930 . S
C486 O466 1.254 . S
C486 O467 1.268 . S
C487 O471 1.284 . S
C487 O474 1.250 . S
C488 Gd421 2.828 . S
C488 O470 1.258 . S
C488 O475 1.252 . S
C488 C489 1.497 . S
C489 C488 1.497 . S
C489 C490 1.395 . S
C489 C491 1.380 . S
C490 C489 1.395 . S
C490 C493 1.398 . S
C490 H500 0.930 . S
C491 C489 1.380 . S
C491 C492 1.391 . S
C491 H501 0.930 . S
C492 C491 1.391 . S
C492 C494 1.387 . S
C493 C490 1.398 . S
C493 C494 1.380 . S
C493 H502 0.930 . S
C494 C492 1.387 . S
C494 C493 1.380 . S
C494 H503 0.930 . S
C495 O472 1.254 . S
C495 O473 1.268 . S
H496 C481 0.930 . S
H497 C482 0.930 . S
H498 C484 0.930 . S
H499 C485 0.930 . S
H500 C490 0.930 . S
H501 C491 0.930 . S
H502 C493 0.930 . S
H503 C494 0.930 . S
Gd504 N535 2.661 . S
Gd504 N541 2.601 . S
Gd504 O548 2.545 . S
Gd504 O549 2.606 . S
Gd504 O551 2.429 . S
Gd504 O552 2.545 . S
Gd504 O553 2.412 . S
Gd504 O555 2.362 . S
Gd504 O556 2.324 . S
Gd504 C563 2.828 . S
Gd505 N514 2.661 . S
Gd505 N518 2.601 . S
Gd505 O549 2.362 . S
Gd505 O550 2.324 . S
Gd505 O554 2.545 . S
Gd505 O555 2.606 . S
Gd505 O557 2.429 . S
Gd505 O558 2.545 . S
Gd505 O559 2.412 . S
Gd505 C572 2.828 . S
C506 C509 1.400 1_545 S
C506 C511 1.443 . S
C506 C512 1.416 . S
C507 C510 1.437 1_545 S
C507 C511 1.317 . S
C507 H526 0.929 . S
C508 C509 1.426 . S
C508 C510 1.413 . S
C508 N518 1.359 . S
C509 C506 1.400 1_565 S
C509 C508 1.426 . S
C509 N514 1.350 . S
C510 C507 1.437 1_565 S
C510 C508 1.413 . S
C510 C520 1.391 . S
C511 C506 1.443 . S
C511 C507 1.317 . S
C511 H522 0.930 . S
C512 C506 1.416 . S
C512 C513 1.355 1_545 S
C512 H524 0.930 . S
C513 C512 1.355 1_565 S
C513 C515 1.402 . S
C513 H525 0.930 . S
N514 Gd505 2.661 . S
N514 C509 1.350 . S
N514 C515 1.307 . S
C515 C513 1.402 . S
C515 N514 1.307 . S
C515 H516 0.930 . S
H516 C515 0.930 . S
C517 N518 1.334 . S
C517 C519 1.394 . S
C517 H521 0.930 . S
N518 Gd505 2.601 . S
N518 C508 1.359 . S
N518 C517 1.334 . S
C519 C517 1.394 . S
C519 C520 1.359 . S
C519 H531 0.930 . S
C520 C510 1.391 . S
C520 C519 1.359 . S
C520 H532 0.929 . S
H521 C517 0.930 . S
H522 C511 0.930 . S
H523 C540 0.930 . S
H524 C512 0.930 . S
H525 C513 0.930 . S
H526 C507 0.929 . S
H527 C545 0.930 . S
H528 C536 0.930 . S
H529 C537 0.930 . S
H530 C561 0.929 . S
H531 C519 0.930 . S
H532 C520 0.929 . S
H533 C562 0.930 . S
H534 C543 0.930 . S
N535 Gd504 2.661 . S
N535 C539 1.350 . S
N535 C540 1.307 . S
C536 H528 0.930 . S
C536 C537 1.355 . S
C536 C538 1.412 . S
C537 H529 0.930 . S
C537 C536 1.355 . S
C537 C540 1.402 . S
C538 C536 1.412 . S
C538 C539 1.417 . S
C538 C562 1.431 . S
C539 N535 1.350 . S
C539 C538 1.417 . S
C539 C542 1.426 . S
C540 H523 0.930 . S
C540 N535 1.307 . S
C540 C537 1.402 . S
N541 Gd504 2.601 . S
N541 C542 1.359 . S
N541 C545 1.334 . S
C542 C539 1.426 . S
C542 N541 1.359 . S
C542 C546 1.413 . S
C543 H534 0.930 . S
C543 C544 1.359 . S
C543 C545 1.394 . S
C544 C543 1.359 . S
C544 C546 1.391 . S
C544 H547 0.929 . S
C545 H527 0.930 . S
C545 N541 1.334 . S
C545 C543 1.394 . S
C546 C542 1.413 . S
C546 C544 1.391 . S
C546 C561 1.437 . S
H547 C544 0.929 . S
O548 Gd504 2.545 . S
O548 C563 1.258 . S
O549 Gd504 2.606 . S
O549 Gd505 2.362 . S
O549 C560 1.284 . S
O550 Gd505 2.324 . S
O550 C570 1.254 . S
O551 Gd504 2.429 . S
O551 C570 1.268 . S
O552 Gd504 2.545 . S
O552 C560 1.250 . S
O553 Gd504 2.412 . S
O553 C563 1.252 . S
O554 Gd505 2.545 . S
O554 C572 1.258 . S
O555 Gd504 2.362 . S
O555 Gd505 2.606 . S
O555 C571 1.284 . S
O556 Gd504 2.324 . S
O556 C579 1.254 . S
O557 Gd505 2.429 . S
O557 C579 1.268 . S
O558 Gd505 2.545 . S
O558 C571 1.250 . S
O559 Gd505 2.412 . S
O559 C572 1.252 . S
C560 O549 1.284 . S
C560 O552 1.250 . S
C561 H530 0.929 . S
C561 C546 1.437 . S
C561 C562 1.317 . S
C562 H533 0.930 . S
C562 C538 1.431 . S
C562 C561 1.317 . S
C563 Gd504 2.828 . S
C563 O548 1.258 . S
C563 O553 1.252 . S
C563 C564 1.497 . S
C564 C563 1.497 . S
C564 C565 1.395 . S
C564 C566 1.380 . S
C565 C564 1.395 . S
C565 C568 1.398 . S
C565 H580 0.930 . S
C566 C564 1.380 . S
C566 C567 1.391 . S
C566 H581 0.930 . S
C567 C566 1.391 . S
C567 C569 1.387 . S
C568 C565 1.398 . S
C568 C569 1.380 . S
C568 H582 0.930 . S
C569 C567 1.387 . S
C569 C568 1.380 . S
C569 H583 0.930 . S
C570 O550 1.254 . S
C570 O551 1.268 . S
C571 O555 1.284 . S
C571 O558 1.250 . S
C572 Gd505 2.828 . S
C572 O554 1.258 . S
C572 O559 1.252 . S
C572 C573 1.497 . S
C573 C572 1.497 . S
C573 C574 1.395 . S
C573 C575 1.380 . S
C574 C573 1.395 . S
C574 C577 1.398 . S
C574 H584 0.930 . S
C575 C573 1.380 . S
C575 C576 1.391 . S
C575 H585 0.930 . S
C576 C575 1.391 . S
C576 C578 1.387 . S
C577 C574 1.398 . S
C577 C578 1.380 . S
C577 H586 0.930 . S
C578 C576 1.387 . S
C578 C577 1.380 . S
C578 H587 0.930 . S
C579 O556 1.254 . S
C579 O557 1.268 . S
H580 C565 0.930 . S
H581 C566 0.930 . S
H582 C568 0.930 . S
H583 C569 0.930 . S
H584 C574 0.930 . S
H585 C575 0.930 . S
H586 C577 0.930 . S
H587 C578 0.930 . S
Gd588 N619 2.661 . S
Gd588 N625 2.601 . S
Gd588 O632 2.545 . S
Gd588 O633 2.606 . S
Gd588 O635 2.429 . S
Gd588 O636 2.545 . S
Gd588 O637 2.412 . S
Gd588 O639 2.362 . S
Gd588 O640 2.324 . S
Gd588 C647 2.828 . S
Gd589 N598 2.661 . S
Gd589 N602 2.601 . S
Gd589 O633 2.362 . S
Gd589 O634 2.324 . S
Gd589 O638 2.545 . S
Gd589 O639 2.606 . S
Gd589 O641 2.429 . S
Gd589 O642 2.545 . S
Gd589 O643 2.412 . S
Gd589 C656 2.828 . S
C590 C593 1.417 . S
C590 C595 1.431 . S
C590 C596 1.412 . S
C591 C594 1.437 . S
C591 C595 1.317 . S
C591 H610 0.929 . S
C592 C593 1.426 . S
C592 C594 1.413 . S
C592 N602 1.359 . S
C593 C590 1.417 . S
C593 C592 1.426 . S
C593 N598 1.350 . S
C594 C591 1.437 . S
C594 C592 1.413 . S
C594 C604 1.391 . S
C595 C590 1.431 . S
C595 C591 1.317 . S
C595 H606 0.930 . S
C596 C590 1.412 . S
C596 C597 1.355 . S
C596 H608 0.930 . S
C597 C596 1.355 . S
C597 C599 1.402 . S
C597 H609 0.930 . S
N598 Gd589 2.661 . S
N598 C593 1.350 . S
N598 C599 1.307 . S
C599 C597 1.402 . S
C599 N598 1.307 . S
C599 H600 0.930 . S
H600 C599 0.930 . S
C601 N602 1.334 . S
C601 C603 1.394 . S
C601 H605 0.930 . S
N602 Gd589 2.601 . S
N602 C592 1.359 . S
N602 C601 1.334 . S
C603 C601 1.394 . S
C603 C604 1.359 . S
C603 H615 0.930 1_556 S
C604 C594 1.391 . S
C604 C603 1.359 . S
C604 H616 0.929 1_556 S
H605 C601 0.930 . S
H606 C595 0.930 . S
H607 C624 0.930 . S
H608 C596 0.930 . S
H609 C597 0.930 . S
H610 C591 0.929 . S
H611 C629 0.930 . S
H612 C620 0.930 1_455 S
H613 C621 0.930 . S
H614 C645 0.929 . S
H615 C603 0.930 1_554 S
H616 C604 0.929 1_554 S
H617 C646 0.930 . S
H618 C627 0.930 . S
N619 Gd588 2.661 . S
N619 C623 1.350 . S
N619 C624 1.307 . S
C620 H612 0.930 1_655 S
C620 C621 1.355 . S
C620 C622 1.412 . S
C621 H613 0.930 . S
C621 C620 1.355 . S
C621 C624 1.402 . S
C622 C620 1.412 . S
C622 C623 1.417 . S
C622 C646 1.431 1_655 S
C623 N619 1.350 . S
C623 C622 1.417 . S
C623 C626 1.426 . S
C624 H607 0.930 . S
C624 N619 1.307 . S
C624 C621 1.402 . S
N625 Gd588 2.601 . S
N625 C626 1.359 . S
N625 C629 1.334 . S
C626 C623 1.426 . S
C626 N625 1.359 . S
C626 C630 1.413 . S
C627 H618 0.930 . S
C627 C628 1.359 . S
C627 C629 1.394 . S
C628 C627 1.359 . S
C628 C630 1.391 . S
C628 H631 0.929 . S
C629 H611 0.930 . S
C629 N625 1.334 . S
C629 C627 1.394 . S
C630 C626 1.413 . S
C630 C628 1.391 . S
C630 C645 1.437 1_655 S
H631 C628 0.929 . S
O632 Gd588 2.545 . S
O632 C647 1.258 . S
O633 Gd588 2.606 . S
O633 Gd589 2.362 . S
O633 C644 1.284 . S
O634 Gd589 2.324 . S
O634 C654 1.254 . S
O635 Gd588 2.429 . S
O635 C654 1.268 . S
O636 Gd588 2.545 . S
O636 C644 1.250 . S
O637 Gd588 2.412 . S
O637 C647 1.252 . S
O638 Gd589 2.545 . S
O638 C656 1.258 . S
O639 Gd588 2.362 . S
O639 Gd589 2.606 . S
O639 C655 1.284 . S
O640 Gd588 2.324 . S
O640 C663 1.254 . S
O641 Gd589 2.429 . S
O641 C663 1.268 . S
O642 Gd589 2.545 . S
O642 C655 1.250 . S
O643 Gd589 2.412 . S
O643 C656 1.252 . S
C644 O633 1.284 . S
C644 O636 1.250 . S
C645 H614 0.929 . S
C645 C630 1.437 1_455 S
C645 C646 1.317 . S
C646 H617 0.930 . S
C646 C622 1.431 1_455 S
C646 C645 1.317 . S
C647 Gd588 2.828 . S
C647 O632 1.258 . S
C647 O637 1.252 . S
C647 C648 1.497 1_655 S
C648 C647 1.497 1_455 S
C648 C649 1.395 . S
C648 C650 1.380 . S
C649 C648 1.395 . S
C649 C652 1.398 . S
C649 H664 0.930 . S
C650 C648 1.380 . S
C650 C651 1.391 . S
C650 H665 0.930 . S
C651 C650 1.391 . S
C651 C653 1.387 . S
C652 C649 1.398 . S
C652 C653 1.380 . S
C652 H666 0.930 . S
C653 C651 1.387 . S
C653 C652 1.380 . S
C653 H667 0.930 . S
C654 O634 1.254 . S
C654 O635 1.268 . S
C655 O639 1.284 . S
C655 O642 1.250 . S
C656 Gd589 2.828 . S
C656 O638 1.258 . S
C656 O643 1.252 . S
C656 C657 1.497 . S
C657 C656 1.497 . S
C657 C658 1.395 . S
C657 C659 1.380 . S
C658 C657 1.395 . S
C658 C661 1.398 . S
C658 H668 0.930 . S
C659 C657 1.380 . S
C659 C660 1.391 . S
C659 H669 0.930 . S
C660 C659 1.391 . S
C660 C662 1.387 . S
C661 C658 1.398 . S
C661 C662 1.380 . S
C661 H670 0.930 . S
C662 C660 1.387 . S
C662 C661 1.380 . S
C662 H671 0.930 . S
C663 O640 1.254 . S
C663 O641 1.268 . S
H664 C649 0.930 . S
H665 C650 0.930 . S
H666 C652 0.930 . S
H667 C653 0.930 . S
H668 C658 0.930 . S
H669 C659 0.930 . S
H670 C661 0.930 . S
H671 C662 0.930 . S
Gd672 N703 2.661 . S
Gd672 N709 2.601 . S
Gd672 O716 2.545 . S
Gd672 O717 2.606 . S
Gd672 O719 2.429 . S
Gd672 O720 2.545 . S
Gd672 O721 2.412 . S
Gd672 O723 2.362 . S
Gd672 O724 2.324 . S
Gd672 C731 2.828 . S
Gd673 N682 2.661 . S
Gd673 N686 2.601 . S
Gd673 O717 2.362 . S
Gd673 O718 2.324 . S
Gd673 O722 2.545 . S
Gd673 O723 2.606 . S
Gd673 O725 2.429 . S
Gd673 O726 2.545 . S
Gd673 O727 2.412 . S
Gd673 C740 2.828 . S
C674 C677 1.400 1_655 S
C674 C679 1.441 . S
C674 C680 1.418 . S
C675 C678 1.437 1_655 S
C675 C679 1.317 . S
C675 H694 0.929 . S
C676 C677 1.426 . S
C676 C678 1.413 . S
C676 N686 1.359 . S
C677 C674 1.400 1_455 S
C677 C676 1.426 . S
C677 N682 1.350 . S
C678 C675 1.437 1_455 S
C678 C676 1.413 . S
C678 C688 1.391 . S
C679 C674 1.441 . S
C679 C675 1.317 . S
C679 H690 0.930 . S
C680 C674 1.418 . S
C680 C681 1.355 1_655 S
C680 H692 0.930 . S
C681 C680 1.355 1_455 S
C681 C683 1.402 . S
C681 H693 0.930 . S
N682 Gd673 2.661 . S
N682 C677 1.350 . S
N682 C683 1.307 . S
C683 C681 1.402 . S
C683 N682 1.307 . S
C683 H684 0.930 . S
H684 C683 0.930 . S
C685 N686 1.334 . S
C685 C687 1.394 . S
C685 H689 0.930 . S
N686 Gd673 2.601 . S
N686 C676 1.359 . S
N686 C685 1.334 . S
C687 C685 1.394 . S
C687 C688 1.359 . S
C687 H699 0.930 . S
C688 C678 1.391 . S
C688 C687 1.359 . S
C688 H700 0.929 . S
H689 C685 0.930 . S
H690 C679 0.930 . S
H691 C708 0.930 . S
H692 C680 0.930 . S
H693 C681 0.930 . S
H694 C675 0.929 . S
H695 C713 0.930 . S
H696 C704 0.930 1_545 S
H697 C705 0.930 . S
H698 C729 0.929 . S
H699 C687 0.930 . S
H700 C688 0.929 . S
H701 C730 0.930 . S
H702 C711 0.930 . S
N703 Gd672 2.661 . S
N703 C707 1.350 . S
N703 C708 1.307 . S
C704 H696 0.930 1_565 S
C704 C705 1.355 . S
C704 C706 1.412 . S
C705 H697 0.930 . S
C705 C704 1.355 . S
C705 C708 1.402 . S
C706 C704 1.412 . S
C706 C707 1.417 . S
C706 C730 1.431 1_565 S
C707 N703 1.350 . S
C707 C706 1.417 . S
C707 C710 1.426 . S
C708 H691 0.930 . S
C708 N703 1.307 . S
C708 C705 1.402 . S
N709 Gd672 2.601 . S
N709 C710 1.359 . S
N709 C713 1.334 . S
C710 C707 1.426 . S
C710 N709 1.359 . S
C710 C714 1.413 . S
C711 H702 0.930 . S
C711 C712 1.359 . S
C711 C713 1.394 . S
C712 C711 1.359 . S
C712 C714 1.391 . S
C712 H715 0.929 . S
C713 H695 0.930 . S
C713 N709 1.334 . S
C713 C711 1.394 . S
C714 C710 1.413 . S
C714 C712 1.391 . S
C714 C729 1.437 1_565 S
H715 C712 0.929 . S
O716 Gd672 2.545 . S
O716 C731 1.258 . S
O717 Gd672 2.606 . S
O717 Gd673 2.362 . S
O717 C728 1.284 . S
O718 Gd673 2.324 . S
O718 C738 1.254 . S
O719 Gd672 2.429 . S
O719 C738 1.268 . S
O720 Gd672 2.545 . S
O720 C728 1.250 . S
O721 Gd672 2.412 . S
O721 C731 1.252 . S
O722 Gd673 2.545 . S
O722 C740 1.258 . S
O723 Gd672 2.362 . S
O723 Gd673 2.606 . S
O723 C739 1.284 . S
O724 Gd672 2.324 . S
O724 C747 1.254 . S
O725 Gd673 2.429 . S
O725 C747 1.268 . S
O726 Gd673 2.545 . S
O726 C739 1.250 . S
O727 Gd673 2.412 . S
O727 C740 1.252 . S
C728 O717 1.284 . S
C728 O720 1.250 . S
C729 H698 0.929 . S
C729 C714 1.437 1_545 S
C729 C730 1.317 . S
C730 H701 0.930 . S
C730 C706 1.431 1_545 S
C730 C729 1.317 . S
C731 Gd672 2.828 . S
C731 O716 1.258 . S
C731 O721 1.252 . S
C731 C732 1.497 1_565 S
C732 C731 1.497 1_545 S
C732 C733 1.395 . S
C732 C734 1.380 . S
C733 C732 1.395 . S
C733 C736 1.398 . S
C733 H748 0.930 . S
C734 C732 1.380 . S
C734 C735 1.391 . S
C734 H749 0.930 . S
C735 C734 1.391 . S
C735 C737 1.387 . S
C736 C733 1.398 . S
C736 C737 1.380 . S
C736 H750 0.930 . S
C737 C735 1.387 . S
C737 C736 1.380 . S
C737 H751 0.930 . S
C738 O718 1.254 . S
C738 O719 1.268 . S
C739 O723 1.284 . S
C739 O726 1.250 . S
C740 Gd673 2.828 . S
C740 O722 1.258 . S
C740 O727 1.252 . S
C740 C741 1.497 . S
C741 C740 1.497 . S
C741 C742 1.395 . S
C741 C743 1.380 . S
C742 C741 1.395 . S
C742 C745 1.398 . S
C742 H752 0.930 . S
C743 C741 1.380 . S
C743 C744 1.391 . S
C743 H753 0.930 . S
C744 C743 1.391 . S
C744 C746 1.387 . S
C745 C742 1.398 . S
C745 C746 1.380 . S
C745 H754 0.930 . S
C746 C744 1.387 . S
C746 C745 1.380 . S
C746 H755 0.930 . S
C747 O724 1.254 . S
C747 O725 1.268 . S
H748 C733 0.930 . S
H749 C734 0.930 . S
H750 C736 0.930 . S
H751 C737 0.930 . S
H752 C742 0.930 . S
H753 C743 0.930 . S
H754 C745 0.930 . S
H755 C746 0.930 . S
Gd756 N787 2.661 . S
Gd756 N793 2.601 . S
Gd756 O800 2.545 . S
Gd756 O801 2.606 . S
Gd756 O803 2.429 . S
Gd756 O804 2.545 . S
Gd756 O805 2.412 . S
Gd756 O807 2.362 . S
Gd756 O808 2.324 . S
Gd756 C815 2.828 . S
Gd757 N766 2.661 . S
Gd757 N770 2.601 . S
Gd757 O801 2.362 . S
Gd757 O802 2.324 . S
Gd757 O806 2.545 . S
Gd757 O807 2.606 . S
Gd757 O809 2.429 . S
Gd757 O810 2.545 . S
Gd757 O811 2.412 . S
Gd757 C824 2.828 . S
C758 C761 1.400 1_565 S
C758 C763 1.443 . S
C758 C764 1.416 . S
C759 C762 1.437 1_565 S
C759 C763 1.317 . S
C759 H778 0.929 . S
C760 C761 1.426 . S
C760 C762 1.413 . S
C760 N770 1.359 . S
C761 C758 1.400 1_545 S
C761 C760 1.426 . S
C761 N766 1.350 . S
C762 C759 1.437 1_545 S
C762 C760 1.413 . S
C762 C772 1.391 . S
C763 C758 1.443 . S
C763 C759 1.317 . S
C763 H774 0.930 . S
C764 C758 1.416 . S
C764 C765 1.355 1_565 S
C764 H776 0.930 . S
C765 C764 1.355 1_545 S
C765 C767 1.402 . S
C765 H777 0.930 . S
N766 Gd757 2.661 . S
N766 C761 1.350 . S
N766 C767 1.307 . S
C767 C765 1.402 . S
C767 N766 1.307 . S
C767 H768 0.930 . S
H768 C767 0.930 . S
C769 N770 1.334 . S
C769 C771 1.394 . S
C769 H773 0.930 . S
N770 Gd757 2.601 . S
N770 C760 1.359 . S
N770 C769 1.334 . S
C771 C769 1.394 . S
C771 C772 1.359 . S
C771 H783 0.930 1_556 S
C772 C762 1.391 . S
C772 C771 1.359 . S
C772 H784 0.929 1_556 S
H773 C769 0.930 . S
H774 C763 0.930 . S
H775 C792 0.930 . S
H776 C764 0.930 . S
H777 C765 0.930 . S
H778 C759 0.929 . S
H779 C797 0.930 . S
H780 C788 0.930 . S
H781 C789 0.930 . S
H782 C813 0.929 . S
H783 C771 0.930 1_554 S
H784 C772 0.929 1_554 S
H785 C814 0.930 . S
H786 C795 0.930 . S
N787 Gd756 2.661 . S
N787 C791 1.350 . S
N787 C792 1.307 . S
C788 H780 0.930 . S
C788 C789 1.355 . S
C788 C790 1.412 . S
C789 H781 0.930 . S
C789 C788 1.355 . S
C789 C792 1.402 . S
C790 C788 1.412 . S
C790 C791 1.417 . S
C790 C814 1.431 . S
C791 N787 1.350 . S
C791 C790 1.417 . S
C791 C794 1.426 . S
C792 H775 0.930 . S
C792 N787 1.307 . S
C792 C789 1.402 . S
N793 Gd756 2.601 . S
N793 C794 1.359 . S
N793 C797 1.334 . S
C794 C791 1.426 . S
C794 N793 1.359 . S
C794 C798 1.413 . S
C795 H786 0.930 . S
C795 C796 1.359 . S
C795 C797 1.394 . S
C796 C795 1.359 . S
C796 C798 1.391 . S
C796 H799 0.929 . S
C797 H779 0.930 . S
C797 N793 1.334 . S
C797 C795 1.394 . S
C798 C794 1.413 . S
C798 C796 1.391 . S
C798 C813 1.437 . S
H799 C796 0.929 . S
O800 Gd756 2.545 . S
O800 C815 1.258 . S
O801 Gd756 2.606 . S
O801 Gd757 2.362 . S
O801 C812 1.284 . S
O802 Gd757 2.324 . S
O802 C822 1.254 . S
O803 Gd756 2.429 . S
O803 C822 1.268 . S
O804 Gd756 2.545 . S
O804 C812 1.250 . S
O805 Gd756 2.412 . S
O805 C815 1.252 . S
O806 Gd757 2.545 . S
O806 C824 1.258 . S
O807 Gd756 2.362 . S
O807 Gd757 2.606 . S
O807 C823 1.284 . S
O808 Gd756 2.324 . S
O808 C831 1.254 . S
O809 Gd757 2.429 . S
O809 C831 1.268 . S
O810 Gd757 2.545 . S
O810 C823 1.250 . S
O811 Gd757 2.412 . S
O811 C824 1.252 . S
C812 O801 1.284 . S
C812 O804 1.250 . S
C813 H782 0.929 . S
C813 C798 1.437 . S
C813 C814 1.317 . S
C814 H785 0.930 . S
C814 C790 1.431 . S
C814 C813 1.317 . S
C815 Gd756 2.828 . S
C815 O800 1.258 . S
C815 O805 1.252 . S
C815 C816 1.497 . S
C816 C815 1.497 . S
C816 C817 1.395 . S
C816 C818 1.380 . S
C817 C816 1.395 . S
C817 C820 1.398 . S
C817 H832 0.930 . S
C818 C816 1.380 . S
C818 C819 1.391 . S
C818 H833 0.930 . S
C819 C818 1.391 . S
C819 C821 1.387 . S
C820 C817 1.398 . S
C820 C821 1.380 . S
C820 H834 0.930 . S
C821 C819 1.387 . S
C821 C820 1.380 . S
C821 H835 0.930 . S
C822 O802 1.254 . S
C822 O803 1.268 . S
C823 O807 1.284 . S
C823 O810 1.250 . S
C824 Gd757 2.828 . S
C824 O806 1.258 . S
C824 O811 1.252 . S
C824 C825 1.497 . S
C825 C824 1.497 . S
C825 C826 1.395 . S
C825 C827 1.380 . S
C826 C825 1.395 . S
C826 C829 1.398 . S
C826 H836 0.930 . S
C827 C825 1.380 . S
C827 C828 1.391 . S
C827 H837 0.930 . S
C828 C827 1.391 . S
C828 C830 1.387 . S
C829 C826 1.398 . S
C829 C830 1.380 . S
C829 H838 0.930 . S
C830 C828 1.387 . S
C830 C829 1.380 . S
C830 H839 0.930 . S
C831 O808 1.254 . S
C831 O809 1.268 . S
H832 C817 0.930 . S
H833 C818 0.930 . S
H834 C820 0.930 . S
H835 C821 0.930 . S
H836 C826 0.930 . S
H837 C827 0.930 . S
H838 C829 0.930 . S
H839 C830 0.930 . S
Gd840 N871 2.661 . S
Gd840 N877 2.601 . S
Gd840 O884 2.545 . S
Gd840 O885 2.606 . S
Gd840 O887 2.429 . S
Gd840 O888 2.545 . S
Gd840 O889 2.412 . S
Gd840 O891 2.362 . S
Gd840 O892 2.324 . S
Gd840 C899 2.828 . S
Gd841 N850 2.661 . S
Gd841 N854 2.601 . S
Gd841 O885 2.362 . S
Gd841 O886 2.324 . S
Gd841 O890 2.545 . S
Gd841 O891 2.606 . S
Gd841 O893 2.429 . S
Gd841 O894 2.545 . S
Gd841 O895 2.412 . S
Gd841 C908 2.828 . S
C842 C845 1.417 . S
C842 C847 1.431 . S
C842 C848 1.412 . S
C843 C846 1.437 . S
C843 C847 1.317 . S
C843 H862 0.929 . S
C844 C845 1.426 . S
C844 C846 1.413 . S
C844 N854 1.359 . S
C845 C842 1.417 . S
C845 C844 1.426 . S
C845 N850 1.350 . S
C846 C843 1.437 . S
C846 C844 1.413 . S
C846 C856 1.391 . S
C847 C842 1.431 . S
C847 C843 1.317 . S
C847 H858 0.930 . S
C848 C842 1.412 . S
C848 C849 1.355 . S
C848 H860 0.930 . S
C849 C848 1.355 . S
C849 C851 1.402 . S
C849 H861 0.930 . S
N850 Gd841 2.661 . S
N850 C845 1.350 . S
N850 C851 1.307 . S
C851 C849 1.402 . S
C851 N850 1.307 . S
C851 H852 0.930 . S
H852 C851 0.930 . S
C853 N854 1.334 . S
C853 C855 1.394 . S
C853 H857 0.930 . S
N854 Gd841 2.601 . S
N854 C844 1.359 . S
N854 C853 1.334 . S
C855 C853 1.394 . S
C855 C856 1.359 . S
C855 H867 0.930 . S
C856 C846 1.391 . S
C856 C855 1.359 . S
C856 H868 0.929 . S
H857 C853 0.930 . S
H858 C847 0.930 . S
H859 C876 0.930 . S
H860 C848 0.930 . S
H861 C849 0.930 . S
H862 C843 0.929 . S
H863 C881 0.930 . S
H864 C872 0.930 1_655 S
H865 C873 0.930 . S
H866 C897 0.929 . S
H867 C855 0.930 . S
H868 C856 0.929 . S
H869 C898 0.930 . S
H870 C879 0.930 . S
N871 Gd840 2.661 . S
N871 C875 1.350 . S
N871 C876 1.307 . S
C872 H864 0.930 1_455 S
C872 C873 1.355 . S
C872 C874 1.412 . S
C873 H865 0.930 . S
C873 C872 1.355 . S
C873 C876 1.402 . S
C874 C872 1.412 . S
C874 C875 1.417 . S
C874 C898 1.431 1_455 S
C875 N871 1.350 . S
C875 C874 1.417 . S
C875 C878 1.426 . S
C876 H859 0.930 . S
C876 N871 1.307 . S
C876 C873 1.402 . S
N877 Gd840 2.601 . S
N877 C878 1.359 . S
N877 C881 1.334 . S
C878 C875 1.426 . S
C878 N877 1.359 . S
C878 C882 1.413 . S
C879 H870 0.930 . S
C879 C880 1.359 . S
C879 C881 1.394 . S
C880 C879 1.359 . S
C880 C882 1.391 . S
C880 H883 0.929 . S
C881 H863 0.930 . S
C881 N877 1.334 . S
C881 C879 1.394 . S
C882 C878 1.413 . S
C882 C880 1.391 . S
C882 C897 1.437 1_455 S
H883 C880 0.929 . S
O884 Gd840 2.545 . S
O884 C899 1.258 . S
O885 Gd840 2.606 . S
O885 Gd841 2.362 . S
O885 C896 1.284 . S
O886 Gd841 2.324 . S
O886 C906 1.254 . S
O887 Gd840 2.429 . S
O887 C906 1.268 . S
O888 Gd840 2.545 . S
O888 C896 1.250 . S
O889 Gd840 2.412 . S
O889 C899 1.252 . S
O890 Gd841 2.545 . S
O890 C908 1.258 . S
O891 Gd840 2.362 . S
O891 Gd841 2.606 . S
O891 C907 1.284 . S
O892 Gd840 2.324 . S
O892 C915 1.254 . S
O893 Gd841 2.429 . S
O893 C915 1.268 . S
O894 Gd841 2.545 . S
O894 C907 1.250 . S
O895 Gd841 2.412 . S
O895 C908 1.252 . S
C896 O885 1.284 . S
C896 O888 1.250 . S
C897 H866 0.929 . S
C897 C882 1.437 1_655 S
C897 C898 1.317 . S
C898 H869 0.930 . S
C898 C874 1.431 1_655 S
C898 C897 1.317 . S
C899 Gd840 2.828 . S
C899 O884 1.258 . S
C899 O889 1.252 . S
C899 C900 1.497 1_455 S
C900 C899 1.497 1_655 S
C900 C901 1.395 . S
C900 C902 1.380 . S
C901 C900 1.395 . S
C901 C904 1.398 . S
C901 H916 0.930 . S
C902 C900 1.380 . S
C902 C903 1.391 . S
C902 H917 0.930 . S
C903 C902 1.391 . S
C903 C905 1.387 . S
C904 C901 1.398 . S
C904 C905 1.380 . S
C904 H918 0.930 . S
C905 C903 1.387 . S
C905 C904 1.380 . S
C905 H919 0.930 . S
C906 O886 1.254 . S
C906 O887 1.268 . S
C907 O891 1.284 . S
C907 O894 1.250 . S
C908 Gd841 2.828 . S
C908 O890 1.258 . S
C908 O895 1.252 . S
C908 C909 1.497 . S
C909 C908 1.497 . S
C909 C910 1.395 . S
C909 C911 1.380 . S
C910 C909 1.395 . S
C910 C913 1.398 . S
C910 H920 0.930 . S
C911 C909 1.380 . S
C911 C912 1.391 . S
C911 H921 0.930 . S
C912 C911 1.391 . S
C912 C914 1.387 . S
C913 C910 1.398 . S
C913 C914 1.380 . S
C913 H922 0.930 . S
C914 C912 1.387 . S
C914 C913 1.380 . S
C914 H923 0.930 . S
C915 O892 1.254 . S
C915 O893 1.268 . S
H916 C901 0.930 . S
H917 C902 0.930 . S
H918 C904 0.930 . S
H919 C905 0.930 . S
H920 C910 0.930 . S
H921 C911 0.930 . S
H922 C913 0.930 . S
H923 C914 0.930 . S
Gd924 N955 2.661 . S
Gd924 N961 2.601 . S
Gd924 O968 2.545 . S
Gd924 O969 2.606 . S
Gd924 O971 2.429 . S
Gd924 O972 2.545 . S
Gd924 O973 2.412 . S
Gd924 O975 2.362 . S
Gd924 O976 2.324 . S
Gd924 C983 2.828 . S
Gd925 N934 2.661 . S
Gd925 N938 2.601 . S
Gd925 O969 2.362 . S
Gd925 O970 2.324 . S
Gd925 O974 2.545 . S
Gd925 O975 2.606 . S
Gd925 O977 2.429 . S
Gd925 O978 2.545 . S
Gd925 O979 2.412 . S
Gd925 C992 2.828 . S
C926 C929 1.400 1_455 S
C926 C931 1.441 . S
C926 C932 1.418 . S
C927 C930 1.437 1_455 S
C927 C931 1.317 . S
C927 H946 0.929 . S
C928 C929 1.426 . S
C928 C930 1.413 . S
C928 N938 1.359 . S
C929 C926 1.400 1_655 S
C929 C928 1.426 . S
C929 N934 1.350 . S
C930 C927 1.437 1_655 S
C930 C928 1.413 . S
C930 C940 1.391 . S
C931 C926 1.441 . S
C931 C927 1.317 . S
C931 H942 0.930 . S
C932 C926 1.418 . S
C932 C933 1.355 1_455 S
C932 H944 0.930 . S
C933 C932 1.355 1_655 S
C933 C935 1.402 . S
C933 H945 0.930 . S
N934 Gd925 2.661 . S
N934 C929 1.350 . S
N934 C935 1.307 . S
C935 C933 1.402 . S
C935 N934 1.307 . S
C935 H936 0.930 . S
H936 C935 0.930 . S
C937 N938 1.334 . S
C937 C939 1.394 . S
C937 H941 0.930 . S
N938 Gd925 2.601 . S
N938 C928 1.359 . S
N938 C937 1.334 . S
C939 C937 1.394 . S
C939 C940 1.359 . S
C939 H951 0.930 1_556 S
C940 C930 1.391 . S
C940 C939 1.359 . S
C940 H952 0.929 1_556 S
H941 C937 0.930 . S
H942 C931 0.930 . S
H943 C960 0.930 . S
H944 C932 0.930 . S
H945 C933 0.930 . S
H946 C927 0.929 . S
H947 C965 0.930 . S
H948 C956 0.930 1_565 S
H949 C957 0.930 . S
H950 C981 0.929 . S
H951 C939 0.930 1_554 S
H952 C940 0.929 1_554 S
H953 C982 0.930 . S
H954 C963 0.930 . S
N955 Gd924 2.661 . S
N955 C959 1.350 . S
N955 C960 1.307 . S
C956 H948 0.930 1_545 S
C956 C957 1.355 . S
C956 C958 1.412 . S
C957 H949 0.930 . S
C957 C956 1.355 . S
C957 C960 1.402 . S
C958 C956 1.412 . S
C958 C959 1.417 . S
C958 C982 1.431 1_545 S
C959 N955 1.350 . S
C959 C958 1.417 . S
C959 C962 1.426 . S
C960 H943 0.930 . S
C960 N955 1.307 . S
C960 C957 1.402 . S
N961 Gd924 2.601 . S
N961 C962 1.359 . S
N961 C965 1.334 . S
C962 C959 1.426 . S
C962 N961 1.359 . S
C962 C966 1.413 . S
C963 H954 0.930 . S
C963 C964 1.359 . S
C963 C965 1.394 . S
C964 C963 1.359 . S
C964 C966 1.391 . S
C964 H967 0.929 . S
C965 H947 0.930 . S
C965 N961 1.334 . S
C965 C963 1.394 . S
C966 C962 1.413 . S
C966 C964 1.391 . S
C966 C981 1.437 1_545 S
H967 C964 0.929 . S
O968 Gd924 2.545 . S
O968 C983 1.258 . S
O969 Gd924 2.606 . S
O969 Gd925 2.362 . S
O969 C980 1.284 . S
O970 Gd925 2.324 . S
O970 C990 1.254 . S
O971 Gd924 2.429 . S
O971 C990 1.268 . S
O972 Gd924 2.545 . S
O972 C980 1.250 . S
O973 Gd924 2.412 . S
O973 C983 1.252 . S
O974 Gd925 2.545 . S
O974 C992 1.258 . S
O975 Gd924 2.362 . S
O975 Gd925 2.606 . S
O975 C991 1.284 . S
O976 Gd924 2.324 . S
O976 C999 1.254 . S
O977 Gd925 2.429 . S
O977 C999 1.268 . S
O978 Gd925 2.545 . S
O978 C991 1.250 . S
O979 Gd925 2.412 . S
O979 C992 1.252 . S
C980 O969 1.284 . S
C980 O972 1.250 . S
C981 H950 0.929 . S
C981 C966 1.437 1_565 S
C981 C982 1.317 . S
C982 H953 0.930 . S
C982 C958 1.431 1_565 S
C982 C981 1.317 . S
C983 Gd924 2.828 . S
C983 O968 1.258 . S
C983 O973 1.252 . S
C983 C984 1.497 1_545 S
C984 C983 1.497 1_565 S
C984 C985 1.395 . S
C984 C986 1.380 . S
C985 C984 1.395 . S
C985 C988 1.398 . S
C985 H1000 0.930 . S
C986 C984 1.380 . S
C986 C987 1.391 . S
C986 H1001 0.930 . S
C987 C986 1.391 . S
C987 C989 1.387 . S
C988 C985 1.398 . S
C988 C989 1.380 . S
C988 H1002 0.930 . S
C989 C987 1.387 . S
C989 C988 1.380 . S
C989 H1003 0.930 . S
C990 O970 1.254 . S
C990 O971 1.268 . S
C991 O975 1.284 . S
C991 O978 1.250 . S
C992 Gd925 2.828 . S
C992 O974 1.258 . S
C992 O979 1.252 . S
C992 C993 1.497 . S
C993 C992 1.497 . S
C993 C994 1.395 . S
C993 C995 1.380 . S
C994 C993 1.395 . S
C994 C997 1.398 . S
C994 H1004 0.930 . S
C995 C993 1.380 . S
C995 C996 1.391 . S
C995 H1005 0.930 . S
C996 C995 1.391 . S
C996 C998 1.387 . S
C997 C994 1.398 . S
C997 C998 1.380 . S
C997 H1006 0.930 . S
C998 C996 1.387 . S
C998 C997 1.380 . S
C998 H1007 0.930 . S
C999 O976 1.254 . S
C999 O977 1.268 . S
H1000 C985 0.930 . S
H1001 C986 0.930 . S
H1002 C988 0.930 . S
H1003 C989 0.930 . S
H1004 C994 0.930 . S
H1005 C995 0.930 . S
H1006 C997 0.930 . S
H1007 C998 0.930 . S
H1008 C1014 0.930 . S
H1009 C1017 0.930 . S
H1010 C1018 0.930 . S
H1011 C1019 0.930 . S
H1012 C1022 0.930 . S
H1013 C1023 0.930 . S
C1014 H1008 0.930 . S
C1014 C1015 1.355 . S
C1014 C1016 1.411 . S
C1015 C1014 1.355 . S
C1015 C1017 1.419 . S
C1016 C1014 1.411 . S
C1016 C1021 1.427 1_565 S
C1016 C1023 1.411 1_565 S
C1017 H1009 0.930 . S
C1017 C1015 1.419 . S
C1017 C1018 1.362 . S
C1018 H1010 0.930 . S
C1018 C1017 1.362 . S
C1018 C1021 1.409 1_565 S
C1019 H1011 0.930 . S
C1019 C1020 1.355 . S
C1019 C1021 1.415 . S
C1020 C1019 1.355 . S
C1020 C1022 1.419 . S
C1021 C1016 1.427 1_545 S
C1021 C1018 1.409 1_545 S
C1021 C1019 1.415 . S
C1022 H1012 0.930 . S
C1022 C1020 1.419 . S
C1022 C1023 1.362 . S
C1023 H1013 0.930 . S
C1023 C1016 1.411 1_545 S
C1023 C1022 1.362 . S
H1024 C1030 0.930 . S
H1025 C1033 0.930 . S
H1026 C1034 0.930 . S
H1027 C1035 0.930 . S
H1028 C1038 0.930 . S
H1029 C1039 0.930 . S
C1030 H1024 0.930 . S
C1030 C1031 1.355 . S
C1030 C1032 1.415 . S
C1031 C1030 1.355 . S
C1031 C1033 1.419 . S
C1032 C1030 1.415 . S
C1032 C1037 1.425 . S
C1032 C1039 1.409 . S
C1033 H1025 0.930 . S
C1033 C1031 1.419 . S
C1033 C1034 1.362 . S
C1034 H1026 0.930 . S
C1034 C1033 1.362 . S
C1034 C1037 1.409 . S
C1035 H1027 0.930 . S
C1035 C1036 1.355 . S
C1035 C1037 1.415 . S
C1036 C1035 1.355 . S
C1036 C1038 1.419 . S
C1037 C1032 1.425 . S
C1037 C1034 1.409 . S
C1037 C1035 1.415 . S
C1038 H1028 0.930 . S
C1038 C1036 1.419 . S
C1038 C1039 1.362 . S
C1039 H1029 0.930 . S
C1039 C1032 1.409 . S
C1039 C1038 1.362 . S
H1040 C1046 0.930 . S
H1041 C1049 0.930 . S
H1042 C1050 0.930 . S
H1043 C1051 0.930 . S
H1044 C1054 0.930 . S
H1045 C1055 0.930 . S
C1046 H1040 0.930 . S
C1046 C1047 1.355 . S
C1046 C1048 1.415 . S
C1047 C1046 1.355 . S
C1047 C1049 1.419 . S
C1048 C1046 1.415 . S
C1048 C1053 1.421 . S
C1048 C1055 1.409 1_655 S
C1049 H1041 0.930 . S
C1049 C1047 1.419 . S
C1049 C1050 1.362 . S
C1050 H1042 0.930 . S
C1050 C1049 1.362 . S
C1050 C1053 1.419 . S
C1051 H1043 0.930 . S
C1051 C1052 1.355 . S
C1051 C1053 1.409 1_455 S
C1052 C1051 1.355 . S
C1052 C1054 1.419 . S
C1053 C1048 1.421 . S
C1053 C1050 1.419 . S
C1053 C1051 1.409 1_655 S
C1054 H1044 0.930 . S
C1054 C1052 1.419 . S
C1054 C1055 1.362 . S
C1055 H1045 0.930 . S
C1055 C1048 1.409 1_455 S
C1055 C1054 1.362 . S
H1056 C1062 0.930 . S
H1057 C1065 0.930 . S
H1058 C1066 0.930 . S
H1059 C1067 0.930 . S
H1060 C1070 0.930 . S
H1061 C1071 0.930 . S
C1062 H1056 0.930 . S
C1062 C1063 1.355 . S
C1062 C1064 1.415 . S
C1063 C1062 1.355 . S
C1063 C1065 1.419 . S
C1064 C1062 1.415 . S
C1064 C1069 1.425 1_565 S
C1064 C1071 1.409 1_565 S
C1065 H1057 0.930 . S
C1065 C1063 1.419 . S
C1065 C1066 1.362 . S
C1066 H1058 0.930 . S
C1066 C1065 1.362 . S
C1066 C1069 1.409 1_565 S
C1067 H1059 0.930 . S
C1067 C1068 1.355 . S
C1067 C1069 1.415 . S
C1068 C1067 1.355 . S
C1068 C1070 1.419 . S
C1069 C1064 1.425 1_545 S
C1069 C1066 1.409 1_545 S
C1069 C1067 1.415 . S
C1070 H1060 0.930 . S
C1070 C1068 1.419 . S
C1070 C1071 1.362 . S
C1071 H1061 0.930 . S
C1071 C1064 1.409 1_545 S
C1071 C1070 1.362 . S
H1072 C1078 0.930 . S
H1073 C1081 0.930 . S
H1074 C1082 0.930 . S
H1075 C1083 0.930 . S
H1076 C1086 0.930 . S
H1077 C1087 0.930 . S
C1078 H1072 0.930 . S
C1078 C1079 1.355 . S
C1078 C1080 1.415 . S
C1079 C1078 1.355 . S
C1079 C1081 1.419 . S
C1080 C1078 1.415 . S
C1080 C1085 1.425 . S
C1080 C1087 1.409 . S
C1081 H1073 0.930 . S
C1081 C1079 1.419 . S
C1081 C1082 1.362 . S
C1082 H1074 0.930 . S
C1082 C1081 1.362 . S
C1082 C1085 1.409 . S
C1083 H1075 0.930 . S
C1083 C1084 1.355 . S
C1083 C1085 1.415 . S
C1084 C1083 1.355 . S
C1084 C1086 1.419 . S
C1085 C1080 1.425 . S
C1085 C1082 1.409 . S
C1085 C1083 1.415 . S
C1086 H1076 0.930 . S
C1086 C1084 1.419 . S
C1086 C1087 1.362 . S
C1087 H1077 0.930 . S
C1087 C1080 1.409 . S
C1087 C1086 1.362 . S
H1088 C1094 0.930 . S
H1089 C1097 0.930 . S
H1090 C1098 0.930 . S
H1091 C1099 0.930 . S
H1092 C1102 0.930 . S
H1093 C1103 0.930 . S
C1094 H1088 0.930 . S
C1094 C1095 1.355 . S
C1094 C1096 1.398 1_655 S
C1095 C1094 1.355 . S
C1095 C1097 1.419 . S
C1096 C1094 1.398 1_455 S
C1096 C1101 1.412 . S
C1096 C1103 1.439 . S
C1097 H1089 0.930 . S
C1097 C1095 1.419 . S
C1097 C1098 1.362 . S
C1098 H1090 0.930 . S
C1098 C1097 1.362 . S
C1098 C1101 1.409 1_655 S
C1099 H1091 0.930 . S
C1099 C1100 1.355 . S
C1099 C1101 1.415 . S
C1100 C1099 1.355 . S
C1100 C1102 1.419 . S
C1101 C1096 1.412 . S
C1101 C1098 1.409 1_455 S
C1101 C1099 1.415 . S
C1102 H1092 0.930 . S
C1102 C1100 1.419 . S
C1102 C1103 1.362 . S
C1103 H1093 0.930 . S
C1103 C1096 1.439 . S
C1103 C1102 1.362 . S
H1104 C1110 0.930 . S
H1105 C1113 0.930 . S
H1106 C1114 0.930 . S
H1107 C1115 0.930 . S
H1108 C1118 0.930 . S
H1109 C1119 0.930 . S
C1110 H1104 0.930 . S
C1110 C1111 1.355 . S
C1110 C1112 1.415 . S
C1111 C1110 1.355 . S
C1111 C1113 1.419 . S
C1112 C1110 1.415 . S
C1112 C1117 1.425 1_455 S
C1112 C1119 1.409 1_455 S
C1113 H1105 0.930 . S
C1113 C1111 1.419 . S
C1113 C1114 1.362 . S
C1114 H1106 0.930 . S
C1114 C1113 1.362 . S
C1114 C1117 1.409 1_455 S
C1115 H1107 0.930 . S
C1115 C1116 1.355 . S
C1115 C1117 1.415 . S
C1116 C1115 1.355 . S
C1116 C1118 1.419 . S
C1117 C1112 1.425 1_655 S
C1117 C1114 1.409 1_655 S
C1117 C1115 1.415 . S
C1118 H1108 0.930 . S
C1118 C1116 1.419 . S
C1118 C1119 1.362 . S
C1119 H1109 0.930 . S
C1119 C1112 1.409 1_655 S
C1119 C1118 1.362 . S
H1120 C1126 0.930 . S
H1121 C1129 0.930 . S
H1122 C1130 0.930 . S
H1123 C1131 0.930 . S
H1124 C1134 0.930 . S
H1125 C1135 0.930 . S
C1126 H1120 0.930 . S
C1126 C1127 1.355 . S
C1126 C1128 1.415 . S
C1127 C1126 1.355 . S
C1127 C1129 1.419 . S
C1128 C1126 1.415 . S
C1128 C1133 1.418 . S
C1128 C1135 1.409 1_565 S
C1129 H1121 0.930 . S
C1129 C1127 1.419 . S
C1129 C1130 1.362 . S
C1130 H1122 0.930 . S
C1130 C1129 1.362 . S
C1130 C1133 1.427 . S
C1131 H1123 0.930 . S
C1131 C1132 1.355 . S
C1131 C1133 1.404 1_545 S
C1132 C1131 1.355 . S
C1132 C1134 1.419 . S
C1133 C1128 1.418 . S
C1133 C1130 1.427 . S
C1133 C1131 1.404 1_565 S
C1134 H1124 0.930 . S
C1134 C1132 1.419 . S
C1134 C1135 1.362 . S
C1135 H1125 0.930 . S
C1135 C1128 1.409 1_545 S
C1135 C1134 1.362 . S
H1136 C1142 0.930 . S
H1137 C1145 0.930 . S
H1138 C1146 0.930 . S
H1139 C1147 0.930 . S
H1140 C1150 0.930 . S
H1141 C1151 0.930 . S
C1142 H1136 0.930 . S
C1142 C1143 1.355 . S
C1142 C1144 1.415 . S
C1143 C1142 1.355 . S
C1143 C1145 1.419 . S
C1144 C1142 1.415 . S
C1144 C1149 1.425 . S
C1144 C1151 1.409 . S
C1145 H1137 0.930 . S
C1145 C1143 1.419 . S
C1145 C1146 1.362 . S
C1146 H1138 0.930 . S
C1146 C1145 1.362 . S
C1146 C1149 1.409 . S
C1147 H1139 0.930 . S
C1147 C1148 1.355 . S
C1147 C1149 1.415 . S
C1148 C1147 1.355 . S
C1148 C1150 1.419 . S
C1149 C1144 1.425 . S
C1149 C1146 1.409 . S
C1149 C1147 1.415 . S
C1150 H1140 0.930 . S
C1150 C1148 1.419 . S
C1150 C1151 1.362 . S
C1151 H1141 0.930 . S
C1151 C1144 1.409 . S
C1151 C1150 1.362 . S
H1152 C1158 0.930 . S
H1153 C1161 0.930 . S
H1154 C1162 0.930 . S
H1155 C1163 0.930 . S
H1156 C1166 0.930 . S
H1157 C1167 0.930 1_455 S
C1158 H1152 0.930 . S
C1158 C1159 1.355 . S
C1158 C1160 1.415 . S
C1159 C1158 1.355 . S
C1159 C1161 1.419 . S
C1160 C1158 1.415 . S
C1160 C1165 1.425 1_455 S
C1160 C1167 1.409 1_455 S
C1161 H1153 0.930 . S
C1161 C1159 1.419 . S
C1161 C1162 1.362 . S
C1162 H1154 0.930 . S
C1162 C1161 1.362 . S
C1162 C1165 1.409 1_455 S
C1163 H1155 0.930 . S
C1163 C1164 1.355 . S
C1163 C1165 1.415 . S
C1164 C1163 1.355 . S
C1164 C1166 1.419 . S
C1165 C1160 1.425 1_655 S
C1165 C1162 1.409 1_655 S
C1165 C1163 1.415 . S
C1166 H1156 0.930 . S
C1166 C1164 1.419 . S
C1166 C1167 1.362 . S
C1167 H1157 0.930 1_655 S
C1167 C1160 1.409 1_655 S
C1167 C1166 1.362 . S
H1168 C1174 0.930 . S
H1169 C1177 0.930 . S
H1170 C1178 0.930 . S
H1171 C1179 0.930 . S
H1172 C1182 0.930 . S
H1173 C1183 0.930 . S
C1174 H1168 0.930 . S
C1174 C1175 1.355 . S
C1174 C1176 1.415 . S
C1175 C1174 1.355 . S
C1175 C1177 1.419 . S
C1176 C1174 1.415 . S
C1176 C1181 1.425 . S
C1176 C1183 1.409 1_545 S
C1177 H1169 0.930 . S
C1177 C1175 1.419 . S
C1177 C1178 1.362 . S
C1178 H1170 0.930 . S
C1178 C1177 1.362 . S
C1178 C1181 1.409 . S
C1179 H1171 0.930 . S
C1179 C1180 1.355 . S
C1179 C1181 1.415 1_565 S
C1180 C1179 1.355 . S
C1180 C1182 1.419 . S
C1181 C1176 1.425 . S
C1181 C1178 1.409 . S
C1181 C1179 1.415 1_545 S
C1182 H1172 0.930 . S
C1182 C1180 1.419 . S
C1182 C1183 1.362 . S
C1183 H1173 0.930 . S
C1183 C1176 1.409 1_565 S
C1183 C1182 1.362 . S
H1184 C1190 0.930 . S
H1185 C1193 0.930 . S
H1186 C1194 0.930 . S
H1187 C1195 0.930 . S
H1188 C1198 0.930 . S
H1189 C1199 0.930 . S
C1190 H1184 0.930 . S
C1190 C1191 1.355 . S
C1190 C1192 1.415 . S
C1191 C1190 1.355 . S
C1191 C1193 1.419 . S
C1192 C1190 1.415 . S
C1192 C1197 1.425 . S
C1192 C1199 1.409 . S
C1193 H1185 0.930 . S
C1193 C1191 1.419 . S
C1193 C1194 1.362 . S
C1194 H1186 0.930 . S
C1194 C1193 1.362 . S
C1194 C1197 1.409 . S
C1195 H1187 0.930 . S
C1195 C1196 1.355 . S
C1195 C1197 1.415 . S
C1196 C1195 1.355 . S
C1196 C1198 1.419 . S
C1197 C1192 1.425 . S
C1197 C1194 1.409 . S
C1197 C1195 1.415 . S
C1198 H1188 0.930 . S
C1198 C1196 1.419 . S
C1198 C1199 1.362 . S
C1199 H1189 0.930 . S
C1199 C1192 1.409 . S
C1199 C1198 1.362 . S
H1200 C1206 0.930 . S
H1201 C1209 0.930 . S
H1202 C1210 0.930 . S
H1203 C1211 0.930 . S
H1204 C1214 0.930 . S
H1205 C1215 0.930 . S
C1206 H1200 0.930 . S
C1206 C1207 1.355 . S
C1206 C1208 1.415 . S
C1207 C1206 1.355 . S
C1207 C1209 1.419 . S
C1208 C1206 1.415 . S
C1208 C1213 1.425 . S
C1208 C1215 1.409 . S
C1209 H1201 0.930 . S
C1209 C1207 1.419 . S
C1209 C1210 1.362 . S
C1210 H1202 0.930 . S
C1210 C1209 1.362 . S
C1210 C1213 1.409 . S
C1211 H1203 0.930 . S
C1211 C1212 1.355 . S
C1211 C1213 1.415 . S
C1212 C1211 1.355 . S
C1212 C1214 1.419 . S
C1213 C1208 1.425 . S
C1213 C1210 1.409 . S
C1213 C1211 1.415 . S
C1214 H1204 0.930 . S
C1214 C1212 1.419 . S
C1214 C1215 1.362 . S
C1215 H1205 0.930 . S
C1215 C1208 1.409 . S
C1215 C1214 1.362 . S
H1216 C1222 0.930 . S
H1217 C1225 0.930 . S
H1218 C1226 0.930 . S
H1219 C1227 0.930 . S
H1220 C1230 0.930 . S
H1221 C1231 0.930 . S
C1222 H1216 0.930 . S
C1222 C1223 1.355 . S
C1222 C1224 1.415 . S
C1223 C1222 1.355 . S
C1223 C1225 1.419 . S
C1224 C1222 1.415 . S
C1224 C1229 1.425 . S
C1224 C1231 1.409 . S
C1225 H1217 0.930 . S
C1225 C1223 1.419 . S
C1225 C1226 1.362 . S
C1226 H1218 0.930 . S
C1226 C1225 1.362 . S
C1226 C1229 1.409 . S
C1227 H1219 0.930 . S
C1227 C1228 1.355 . S
C1227 C1229 1.415 . S
C1228 C1227 1.355 . S
C1228 C1230 1.419 . S
C1229 C1224 1.425 . S
C1229 C1226 1.409 . S
C1229 C1227 1.415 . S
C1230 H1220 0.930 . S
C1230 C1228 1.419 . S
C1230 C1231 1.362 . S
C1231 H1221 0.930 . S
C1231 C1224 1.409 . S
C1231 C1230 1.362 . S
H1232 C1238 0.930 . S
H1233 C1241 0.930 . S
H1234 C1242 0.930 . S
H1235 C1243 0.930 . S
H1236 C1246 0.930 . S
H1237 C1247 0.930 . S
C1238 H1232 0.930 . S
C1238 C1239 1.355 . S
C1238 C1240 1.415 . S
C1239 C1238 1.355 . S
C1239 C1241 1.419 . S
C1240 C1238 1.415 . S
C1240 C1245 1.425 . S
C1240 C1247 1.409 . S
C1241 H1233 0.930 . S
C1241 C1239 1.419 . S
C1241 C1242 1.362 . S
C1242 H1234 0.930 . S
C1242 C1241 1.362 . S
C1242 C1245 1.409 . S
C1243 H1235 0.930 . S
C1243 C1244 1.355 . S
C1243 C1245 1.415 . S
C1244 C1243 1.355 . S
C1244 C1246 1.419 . S
C1245 C1240 1.425 . S
C1245 C1242 1.409 . S
C1245 C1243 1.415 . S
C1246 H1236 0.930 . S
C1246 C1244 1.419 . S
C1246 C1247 1.362 . S
C1247 H1237 0.930 . S
C1247 C1240 1.409 . S
C1247 C1246 1.362 . S
H1248 C1254 0.930 . S
H1249 C1257 0.930 . S
H1250 C1258 0.930 . S
H1251 C1259 0.930 . S
H1252 C1262 0.930 . S
H1253 C1263 0.930 . S
C1254 H1248 0.930 . S
C1254 C1255 1.355 . S
C1254 C1256 1.415 . S
C1255 C1254 1.355 . S
C1255 C1257 1.419 . S
C1256 C1254 1.415 . S
C1256 C1261 1.425 . S
C1256 C1263 1.409 . S
C1257 H1249 0.930 . S
C1257 C1255 1.419 . S
C1257 C1258 1.362 . S
C1258 H1250 0.930 . S
C1258 C1257 1.362 . S
C1258 C1261 1.409 . S
C1259 H1251 0.930 . S
C1259 C1260 1.355 . S
C1259 C1261 1.415 . S
C1260 C1259 1.355 . S
C1260 C1262 1.419 . S
C1261 C1256 1.425 . S
C1261 C1258 1.409 . S
C1261 C1259 1.415 . S
C1262 H1252 0.930 . S
C1262 C1260 1.419 . S
C1262 C1263 1.362 . S
C1263 H1253 0.930 . S
C1263 C1256 1.409 . S
C1263 C1262 1.362 . S
H1264 C1270 0.930 . S
H1265 C1273 0.930 . S
H1266 C1274 0.930 . S
H1267 C1275 0.930 . S
H1268 C1278 0.930 . S
H1269 C1279 0.930 . S
C1270 H1264 0.930 . S
C1270 C1271 1.355 . S
C1270 C1272 1.415 . S
C1271 C1270 1.355 . S
C1271 C1273 1.419 . S
C1272 C1270 1.415 . S
C1272 C1277 1.425 . S
C1272 C1279 1.409 . S
C1273 H1265 0.930 . S
C1273 C1271 1.419 . S
C1273 C1274 1.362 . S
C1274 H1266 0.930 . S
C1274 C1273 1.362 . S
C1274 C1277 1.409 . S
C1275 H1267 0.930 . S
C1275 C1276 1.355 . S
C1275 C1277 1.415 . S
C1276 C1275 1.355 . S
C1276 C1278 1.419 . S
C1277 C1272 1.425 . S
C1277 C1274 1.409 . S
C1277 C1275 1.415 . S
C1278 H1268 0.930 . S
C1278 C1276 1.419 . S
C1278 C1279 1.362 . S
C1279 H1269 0.930 . S
C1279 C1272 1.409 . S
C1279 C1278 1.362 . S
H1280 C1286 0.930 . S
H1281 C1289 0.930 . S
H1282 C1290 0.930 . S
H1283 C1291 0.930 . S
H1284 C1294 0.930 . S
H1285 C1295 0.930 . S
C1286 H1280 0.930 . S
C1286 C1287 1.355 . S
C1286 C1288 1.415 . S
C1287 C1286 1.355 . S
C1287 C1289 1.419 . S
C1288 C1286 1.415 . S
C1288 C1293 1.425 . S
C1288 C1295 1.409 . S
C1289 H1281 0.930 . S
C1289 C1287 1.419 . S
C1289 C1290 1.362 . S
C1290 H1282 0.930 . S
C1290 C1289 1.362 . S
C1290 C1293 1.409 . S
C1291 H1283 0.930 . S
C1291 C1292 1.355 . S
C1291 C1293 1.415 . S
C1292 C1291 1.355 . S
C1292 C1294 1.419 . S
C1293 C1288 1.425 . S
C1293 C1290 1.409 . S
C1293 C1291 1.415 . S
C1294 H1284 0.930 . S
C1294 C1292 1.419 . S
C1294 C1295 1.362 . S
C1295 H1285 0.930 . S
C1295 C1288 1.409 . S
C1295 C1294 1.362 . S
H1296 C1302 0.930 . S
H1297 C1305 0.930 . S
H1298 C1306 0.930 . S
H1299 C1307 0.930 . S
H1300 C1310 0.930 . S
H1301 C1311 0.930 . S
C1302 H1296 0.930 . S
C1302 C1303 1.355 . S
C1302 C1304 1.415 . S
C1303 C1302 1.355 . S
C1303 C1305 1.419 . S
C1304 C1302 1.415 . S
C1304 C1309 1.425 . S
C1304 C1311 1.409 . S
C1305 H1297 0.930 . S
C1305 C1303 1.419 . S
C1305 C1306 1.362 . S
C1306 H1298 0.930 . S
C1306 C1305 1.362 . S
C1306 C1309 1.409 . S
C1307 H1299 0.930 . S
C1307 C1308 1.355 . S
C1307 C1309 1.415 . S
C1308 C1307 1.355 . S
C1308 C1310 1.419 . S
C1309 C1304 1.425 . S
C1309 C1306 1.409 . S
C1309 C1307 1.415 . S
C1310 H1300 0.930 . S
C1310 C1308 1.419 . S
C1310 C1311 1.362 . S
C1311 H1301 0.930 . S
C1311 C1304 1.409 . S
C1311 C1310 1.362 . S
H1312 C1318 0.930 . S
H1313 C1321 0.930 . S
H1314 C1322 0.930 . S
H1315 C1323 0.930 . S
H1316 C1326 0.930 . S
H1317 C1327 0.930 . S
C1318 H1312 0.930 . S
C1318 C1319 1.355 . S
C1318 C1320 1.415 . S
C1319 C1318 1.355 . S
C1319 C1321 1.419 . S
C1320 C1318 1.415 . S
C1320 C1325 1.425 . S
C1320 C1327 1.409 . S
C1321 H1313 0.930 . S
C1321 C1319 1.419 . S
C1321 C1322 1.362 . S
C1322 H1314 0.930 . S
C1322 C1321 1.362 . S
C1322 C1325 1.409 . S
C1323 H1315 0.930 . S
C1323 C1324 1.355 . S
C1323 C1325 1.415 . S
C1324 C1323 1.355 . S
C1324 C1326 1.419 . S
C1325 C1320 1.425 . S
C1325 C1322 1.409 . S
C1325 C1323 1.415 . S
C1326 H1316 0.930 . S
C1326 C1324 1.419 . S
C1326 C1327 1.362 . S
C1327 H1317 0.930 . S
C1327 C1320 1.409 . S
C1327 C1326 1.362 . S
H1328 C1334 0.930 . S
H1329 C1337 0.930 . S
H1330 C1338 0.930 . S
H1331 C1339 0.930 . S
H1332 C1342 0.930 . S
H1333 C1343 0.930 . S
C1334 H1328 0.930 . S
C1334 C1335 1.355 . S
C1334 C1336 1.415 . S
C1335 C1334 1.355 . S
C1335 C1337 1.419 . S
C1336 C1334 1.415 . S
C1336 C1341 1.425 . S
C1336 C1343 1.409 . S
C1337 H1329 0.930 . S
C1337 C1335 1.419 . S
C1337 C1338 1.362 . S
C1338 H1330 0.930 . S
C1338 C1337 1.362 . S
C1338 C1341 1.409 . S
C1339 H1331 0.930 . S
C1339 C1340 1.355 . S
C1339 C1341 1.415 . S
C1340 C1339 1.355 . S
C1340 C1342 1.419 . S
C1341 C1336 1.425 . S
C1341 C1338 1.409 . S
C1341 C1339 1.415 . S
C1342 H1332 0.930 . S
C1342 C1340 1.419 . S
C1342 C1343 1.362 . S
C1343 H1333 0.930 . S
C1343 C1336 1.409 . S
C1343 C1342 1.362 . S
H1344 C1350 0.930 . S
H1345 C1353 0.930 . S
H1346 C1354 0.930 . S
H1347 C1355 0.930 . S
H1348 C1358 0.930 . S
H1349 C1359 0.930 . S
C1350 H1344 0.930 . S
C1350 C1351 1.355 . S
C1350 C1352 1.415 . S
C1351 C1350 1.355 . S
C1351 C1353 1.419 . S
C1352 C1350 1.415 . S
C1352 C1357 1.425 . S
C1352 C1359 1.409 . S
C1353 H1345 0.930 . S
C1353 C1351 1.419 . S
C1353 C1354 1.362 . S
C1354 H1346 0.930 . S
C1354 C1353 1.362 . S
C1354 C1357 1.409 . S
C1355 H1347 0.930 . S
C1355 C1356 1.355 . S
C1355 C1357 1.415 . S
C1356 C1355 1.355 . S
C1356 C1358 1.419 . S
C1357 C1352 1.425 . S
C1357 C1354 1.409 . S
C1357 C1355 1.415 . S
C1358 H1348 0.930 . S
C1358 C1356 1.419 . S
C1358 C1359 1.362 . S
C1359 H1349 0.930 . S
C1359 C1352 1.409 . S
C1359 C1358 1.362 . S
H1360 C1366 0.930 . S
H1361 C1369 0.930 . S
H1362 C1370 0.930 . S
H1363 C1371 0.930 . S
H1364 C1374 0.930 . S
H1365 C1375 0.930 . S
C1366 H1360 0.930 . S
C1366 C1367 1.355 . S
C1366 C1368 1.415 . S
C1367 C1366 1.355 . S
C1367 C1369 1.419 . S
C1368 C1366 1.415 . S
C1368 C1373 1.425 . S
C1368 C1375 1.409 . S
C1369 H1361 0.930 . S
C1369 C1367 1.419 . S
C1369 C1370 1.362 . S
C1370 H1362 0.930 . S
C1370 C1369 1.362 . S
C1370 C1373 1.409 . S
C1371 H1363 0.930 . S
C1371 C1372 1.355 . S
C1371 C1373 1.415 . S
C1372 C1371 1.355 . S
C1372 C1374 1.419 . S
C1373 C1368 1.425 . S
C1373 C1370 1.409 . S
C1373 C1371 1.415 . S
C1374 H1364 0.930 . S
C1374 C1372 1.419 . S
C1374 C1375 1.362 . S
C1375 H1365 0.930 . S
C1375 C1368 1.409 . S
C1375 C1374 1.362 . S
H1376 C1382 0.930 . S
H1377 C1385 0.930 . S
H1378 C1386 0.930 . S
H1379 C1387 0.930 . S
H1380 C1390 0.930 . S
H1381 C1391 0.930 . S
C1382 H1376 0.930 . S
C1382 C1383 1.355 . S
C1382 C1384 1.415 . S
C1383 C1382 1.355 . S
C1383 C1385 1.419 . S
C1384 C1382 1.415 . S
C1384 C1389 1.425 . S
C1384 C1391 1.409 . S
C1385 H1377 0.930 . S
C1385 C1383 1.419 . S
C1385 C1386 1.362 . S
C1386 H1378 0.930 . S
C1386 C1385 1.362 . S
C1386 C1389 1.409 . S
C1387 H1379 0.930 . S
C1387 C1388 1.355 . S
C1387 C1389 1.415 . S
C1388 C1387 1.355 . S
C1388 C1390 1.419 . S
C1389 C1384 1.425 . S
C1389 C1386 1.409 . S
C1389 C1387 1.415 . S
C1390 H1380 0.930 . S
C1390 C1388 1.419 . S
C1390 C1391 1.362 . S
C1391 H1381 0.930 . S
C1391 C1384 1.409 . S
C1391 C1390 1.362 . S
H1392 C1398 0.930 . S
H1393 C1401 0.930 . S
H1394 C1402 0.930 . S
H1395 C1403 0.930 . S
H1396 C1406 0.930 . S
H1397 C1407 0.930 . S
C1398 H1392 0.930 . S
C1398 C1399 1.355 . S
C1398 C1400 1.415 . S
C1399 C1398 1.355 . S
C1399 C1401 1.419 . S
C1400 C1398 1.415 . S
C1400 C1405 1.425 . S
C1400 C1407 1.409 . S
C1401 H1393 0.930 . S
C1401 C1399 1.419 . S
C1401 C1402 1.362 . S
C1402 H1394 0.930 . S
C1402 C1401 1.362 . S
C1402 C1405 1.409 . S
C1403 H1395 0.930 . S
C1403 C1404 1.355 . S
C1403 C1405 1.415 . S
C1404 C1403 1.355 . S
C1404 C1406 1.419 . S
C1405 C1400 1.425 . S
C1405 C1402 1.409 . S
C1405 C1403 1.415 . S
C1406 H1396 0.930 . S
C1406 C1404 1.419 . S
C1406 C1407 1.362 . S
C1407 H1397 0.930 . S
C1407 C1400 1.409 . S
C1407 C1406 1.362 . S
H1408 C1414 0.930 . S
H1409 C1417 0.930 . S
H1410 C1418 0.930 . S
H1411 C1419 0.930 . S
H1412 C1422 0.930 . S
H1413 C1423 0.930 . S
C1414 H1408 0.930 . S
C1414 C1415 1.355 . S
C1414 C1416 1.415 . S
C1415 C1414 1.355 . S
C1415 C1417 1.419 . S
C1416 C1414 1.415 . S
C1416 C1421 1.425 . S
C1416 C1423 1.409 . S
C1417 H1409 0.930 . S
C1417 C1415 1.419 . S
C1417 C1418 1.362 . S
C1418 H1410 0.930 . S
C1418 C1417 1.362 . S
C1418 C1421 1.409 . S
C1419 H1411 0.930 . S
C1419 C1420 1.355 . S
C1419 C1421 1.415 . S
C1420 C1419 1.355 . S
C1420 C1422 1.419 . S
C1421 C1416 1.425 . S
C1421 C1418 1.409 . S
C1421 C1419 1.415 . S
C1422 H1412 0.930 . S
C1422 C1420 1.419 . S
C1422 C1423 1.362 . S
C1423 H1413 0.930 . S
C1423 C1416 1.409 . S
C1423 C1422 1.362 . S
H1424 C1430 0.930 . S
H1425 C1433 0.930 . S
H1426 C1434 0.930 . S
H1427 C1435 0.930 . S
H1428 C1438 0.930 . S
H1429 C1439 0.930 . S
C1430 H1424 0.930 . S
C1430 C1431 1.355 . S
C1430 C1432 1.415 . S
C1431 C1430 1.355 . S
C1431 C1433 1.419 . S
C1432 C1430 1.415 . S
C1432 C1437 1.425 . S
C1432 C1439 1.409 . S
C1433 H1425 0.930 . S
C1433 C1431 1.419 . S
C1433 C1434 1.362 . S
C1434 H1426 0.930 . S
C1434 C1433 1.362 . S
C1434 C1437 1.409 . S
C1435 H1427 0.930 . S
C1435 C1436 1.355 . S
C1435 C1437 1.415 . S
C1436 C1435 1.355 . S
C1436 C1438 1.419 . S
C1437 C1432 1.425 . S
C1437 C1434 1.409 . S
C1437 C1435 1.415 . S
C1438 H1428 0.930 . S
C1438 C1436 1.419 . S
C1438 C1439 1.362 . S
C1439 H1429 0.930 . S
C1439 C1432 1.409 . S
C1439 C1438 1.362 . S
H1440 C1446 0.930 . S
H1441 C1449 0.930 . S
H1442 C1450 0.930 . S
H1443 C1451 0.930 . S
H1444 C1454 0.930 . S
H1445 C1455 0.930 . S
C1446 H1440 0.930 . S
C1446 C1447 1.355 . S
C1446 C1448 1.415 . S
C1447 C1446 1.355 . S
C1447 C1449 1.419 . S
C1448 C1446 1.415 . S
C1448 C1453 1.425 . S
C1448 C1455 1.409 . S
C1449 H1441 0.930 . S
C1449 C1447 1.419 . S
C1449 C1450 1.362 . S
C1450 H1442 0.930 . S
C1450 C1449 1.362 . S
C1450 C1453 1.409 . S
C1451 H1443 0.930 . S
C1451 C1452 1.355 . S
C1451 C1453 1.415 . S
C1452 C1451 1.355 . S
C1452 C1454 1.419 . S
C1453 C1448 1.425 . S
C1453 C1450 1.409 . S
C1453 C1451 1.415 . S
C1454 H1444 0.930 . S
C1454 C1452 1.419 . S
C1454 C1455 1.362 . S
C1455 H1445 0.930 . S
C1455 C1448 1.409 . S
C1455 C1454 1.362 . S
H1456 C1462 0.930 . S
H1457 C1465 0.930 . S
H1458 C1466 0.930 . S
H1459 C1467 0.930 . S
H1460 C1470 0.930 . S
H1461 C1471 0.930 . S
C1462 H1456 0.930 . S
C1462 C1463 1.355 . S
C1462 C1464 1.415 . S
C1463 C1462 1.355 . S
C1463 C1465 1.419 . S
C1464 C1462 1.415 . S
C1464 C1469 1.425 . S
C1464 C1471 1.409 . S
C1465 H1457 0.930 . S
C1465 C1463 1.419 . S
C1465 C1466 1.362 . S
C1466 H1458 0.930 . S
C1466 C1465 1.362 . S
C1466 C1469 1.409 . S
C1467 H1459 0.930 . S
C1467 C1468 1.355 . S
C1467 C1469 1.415 . S
C1468 C1467 1.355 . S
C1468 C1470 1.419 . S
C1469 C1464 1.425 . S
C1469 C1466 1.409 . S
C1469 C1467 1.415 . S
C1470 H1460 0.930 . S
C1470 C1468 1.419 . S
C1470 C1471 1.362 . S
C1471 H1461 0.930 . S
C1471 C1464 1.409 . S
C1471 C1470 1.362 . S
H1472 C1478 0.930 . S
H1473 C1481 0.930 . S
H1474 C1482 0.930 . S
H1475 C1483 0.930 . S
H1476 C1486 0.930 . S
H1477 C1487 0.930 . S
C1478 H1472 0.930 . S
C1478 C1479 1.355 . S
C1478 C1480 1.415 . S
C1479 C1478 1.355 . S
C1479 C1481 1.419 . S
C1480 C1478 1.415 . S
C1480 C1485 1.425 . S
C1480 C1487 1.409 . S
C1481 H1473 0.930 . S
C1481 C1479 1.419 . S
C1481 C1482 1.362 . S
C1482 H1474 0.930 . S
C1482 C1481 1.362 . S
C1482 C1485 1.409 . S
C1483 H1475 0.930 . S
C1483 C1484 1.355 . S
C1483 C1485 1.415 . S
C1484 C1483 1.355 . S
C1484 C1486 1.419 . S
C1485 C1480 1.425 . S
C1485 C1482 1.409 . S
C1485 C1483 1.415 . S
C1486 H1476 0.930 . S
C1486 C1484 1.419 . S
C1486 C1487 1.362 . S
C1487 H1477 0.930 . S
C1487 C1480 1.409 . S
C1487 C1486 1.362 . S
H1488 C1494 0.930 . S
H1489 C1497 0.933 . S
H1490 C1498 0.930 . S
H1491 C1499 0.930 . S
H1492 C1502 0.933 . S
H1493 C1503 0.930 . S
C1494 H1488 0.930 . S
C1494 C1495 1.355 . S
C1494 C1496 1.415 . S
C1495 C1494 1.355 . S
C1495 C1497 1.408 1_556 S
C1496 C1494 1.415 . S
C1496 C1501 1.425 1_556 S
C1496 C1503 1.409 . S
C1497 H1489 0.933 . S
C1497 C1495 1.408 1_554 S
C1497 C1498 1.371 . S
C1498 H1490 0.930 . S
C1498 C1497 1.371 . S
C1498 C1501 1.409 . S
C1499 H1491 0.930 . S
C1499 C1500 1.355 . S
C1499 C1501 1.415 . S
C1500 C1499 1.355 . S
C1500 C1502 1.408 1_554 S
C1501 C1496 1.425 1_554 S
C1501 C1498 1.409 . S
C1501 C1499 1.415 . S
C1502 H1492 0.933 . S
C1502 C1500 1.408 1_556 S
C1502 C1503 1.371 . S
C1503 H1493 0.930 . S
C1503 C1496 1.409 . S
C1503 C1502 1.371 . S
H1504 C1510 0.930 . S
H1505 C1513 0.930 . S
H1506 C1514 0.930 . S
H1507 C1515 0.930 . S
H1508 C1518 0.930 . S
H1509 C1519 0.930 . S
C1510 H1504 0.930 . S
C1510 C1511 1.355 . S
C1510 C1512 1.415 1_455 S
C1511 C1510 1.355 . S
C1511 C1513 1.419 . S
C1512 C1510 1.415 1_655 S
C1512 C1517 1.425 1_655 S
C1512 C1519 1.409 . S
C1513 H1505 0.930 . S
C1513 C1511 1.419 . S
C1513 C1514 1.362 . S
C1514 H1506 0.930 . S
C1514 C1513 1.362 . S
C1514 C1517 1.409 . S
C1515 H1507 0.930 . S
C1515 C1516 1.355 . S
C1515 C1517 1.415 1_655 S
C1516 C1515 1.355 . S
C1516 C1518 1.419 . S
C1517 C1512 1.425 1_455 S
C1517 C1514 1.409 . S
C1517 C1515 1.415 1_455 S
C1518 H1508 0.930 . S
C1518 C1516 1.419 . S
C1518 C1519 1.362 . S
C1519 H1509 0.930 . S
C1519 C1512 1.409 . S
C1519 C1518 1.362 . S
H1520 C1526 0.930 1_556 S
H1521 C1529 0.930 . S
H1522 C1530 0.930 . S
H1523 C1531 0.930 1_554 S
H1524 C1534 0.930 . S
H1525 C1535 0.930 . S
C1526 H1520 0.930 1_554 S
C1526 C1527 1.355 . S
C1526 C1528 1.415 1_554 S
C1527 C1526 1.355 . S
C1527 C1529 1.419 . S
C1528 C1526 1.415 1_556 S
C1528 C1533 1.425 1_566 S
C1528 C1535 1.409 . S
C1529 H1521 0.930 . S
C1529 C1527 1.419 . S
C1529 C1530 1.362 1_565 S
C1530 H1522 0.930 . S
C1530 C1529 1.362 1_545 S
C1530 C1533 1.409 . S
C1531 H1523 0.930 1_556 S
C1531 C1532 1.355 . S
C1531 C1533 1.415 1_556 S
C1532 C1531 1.355 . S
C1532 C1534 1.419 . S
C1533 C1528 1.425 1_544 S
C1533 C1530 1.409 . S
C1533 C1531 1.415 1_554 S
C1534 H1524 0.930 . S
C1534 C1532 1.419 . S
C1534 C1535 1.362 1_545 S
C1535 H1525 0.930 . S
C1535 C1528 1.409 . S
C1535 C1534 1.362 1_565 S
H1536 C1542 0.930 . S
H1537 C1545 0.930 . S
H1538 C1546 0.930 . S
H1539 C1547 0.930 . S
H1540 C1550 0.930 . S
H1541 C1551 0.930 . S
C1542 H1536 0.930 . S
C1542 C1543 1.355 . S
C1542 C1544 1.415 . S
C1543 C1542 1.355 . S
C1543 C1545 1.419 . S
C1544 C1542 1.415 . S
C1544 C1549 1.425 . S
C1544 C1551 1.409 . S
C1545 H1537 0.930 . S
C1545 C1543 1.419 . S
C1545 C1546 1.362 . S
C1546 H1538 0.930 . S
C1546 C1545 1.362 . S
C1546 C1549 1.409 . S
C1547 H1539 0.930 . S
C1547 C1548 1.355 . S
C1547 C1549 1.415 . S
C1548 C1547 1.355 . S
C1548 C1550 1.419 . S
C1549 C1544 1.425 . S
C1549 C1546 1.409 . S
C1549 C1547 1.415 . S
C1550 H1540 0.930 . S
C1550 C1548 1.419 . S
C1550 C1551 1.362 . S
C1551 H1541 0.930 . S
C1551 C1544 1.409 . S
C1551 C1550 1.362 . S
H1552 C1558 0.930 . S
H1553 C1561 0.930 . S
H1554 C1562 0.930 . S
H1555 C1563 0.930 . S
H1556 C1566 0.930 . S
H1557 C1567 0.930 . S
C1558 H1552 0.930 . S
C1558 C1559 1.355 . S
C1558 C1560 1.415 . S
C1559 C1558 1.355 . S
C1559 C1561 1.419 . S
C1560 C1558 1.415 . S
C1560 C1565 1.425 1_656 S
C1560 C1567 1.409 1_656 S
C1561 H1553 0.930 . S
C1561 C1559 1.419 . S
C1561 C1562 1.362 . S
C1562 H1554 0.930 . S
C1562 C1561 1.362 . S
C1562 C1565 1.409 1_656 S
C1563 H1555 0.930 . S
C1563 C1564 1.355 . S
C1563 C1565 1.415 . S
C1564 C1563 1.355 . S
C1564 C1566 1.419 . S
C1565 C1560 1.425 1_454 S
C1565 C1562 1.409 1_454 S
C1565 C1563 1.415 . S
C1566 H1556 0.930 . S
C1566 C1564 1.419 . S
C1566 C1567 1.362 . S
C1567 H1557 0.930 . S
C1567 C1560 1.409 1_454 S
C1567 C1566 1.362 . S
H1568 C1574 0.930 . S
H1569 C1577 0.930 . S
H1570 C1578 0.930 . S
H1571 C1579 0.930 . S
H1572 C1582 0.930 . S
H1573 C1583 0.930 . S
C1574 H1568 0.930 . S
C1574 C1575 1.355 . S
C1574 C1576 1.415 1_565 S
C1575 C1574 1.355 . S
C1575 C1577 1.419 . S
C1576 C1574 1.415 1_545 S
C1576 C1581 1.425 1_545 S
C1576 C1583 1.409 . S
C1577 H1569 0.930 . S
C1577 C1575 1.419 . S
C1577 C1578 1.362 . S
C1578 H1570 0.930 . S
C1578 C1577 1.362 . S
C1578 C1581 1.409 . S
C1579 H1571 0.930 . S
C1579 C1580 1.355 . S
C1579 C1581 1.415 1_545 S
C1580 C1579 1.355 . S
C1580 C1582 1.419 . S
C1581 C1576 1.425 1_565 S
C1581 C1578 1.409 . S
C1581 C1579 1.415 1_565 S
C1582 H1572 0.930 . S
C1582 C1580 1.419 . S
C1582 C1583 1.362 . S
C1583 H1573 0.930 . S
C1583 C1576 1.409 . S
C1583 C1582 1.362 . S
C1015 C392 1.318 . S
C1020 C63 1.333 . S
C1031 C476 1.399 . S
C1036 C147 1.241 . S
C1047 C231 1.233 . S
C1052 C56 1.369 . S
C1063 C315 1.222 . S
C1068 C140 1.384 . S
C1079 C399 1.327 . S
C1084 C224 1.353 . S
C1095 C308 1.335 . S
C1100 C483 1.279 . S
C1111 C728 1.357 . S
C1116 C567 1.245 . S
C1127 C651 1.290 . S
C1132 C812 1.329 . S
C1143 C896 1.361 . S
C1148 C735 1.241 . S
C1159 C819 1.343 . S
C1164 C980 1.329 . S
C1175 C903 1.251 . S
C1180 C560 1.353 . S
C1191 C644 1.353 . S
C1196 C987 1.251 . S
C1207 C403 1.349 . S
C1212 C72 1.322 . S
C1223 C156 1.386 . S
C1228 C487 1.358 . S
C1239 C240 1.384 . S
C1244 C67 1.355 . S
C1255 C324 1.328 . S
C1260 C151 1.442 . S
C1271 C235 1.442 . S
C1276 C408 1.291 . S
C1287 C319 1.352 . S
C1292 C492 1.381 . S
C1303 C739 1.441 . S
C1308 C576 1.334 . S
C1319 C660 1.266 . S
C1324 C823 1.414 . S
C1335 C744 1.310 . S
C1340 C907 1.355 . S
C1351 C991 1.404 . S
C1356 C828 1.267 . S
C1367 C912 1.285 . S
C1372 C571 1.373 . S
C1383 C655 1.393 . S
C1388 C996 1.389 . S
C1399 C906 1.880 . S
C1404 C66 1.853 . S
C1415 C150 1.868 . S
C1420 C990 1.897 . S
C1431 C234 1.854 . S
C1436 C570 1.879 . S
C1447 C318 1.844 . S
C1452 C654 1.894 . S
C1463 C402 1.844 . S
C1468 C738 1.910 . S
C1479 C822 1.904 . S
C1484 C486 1.839 . S
C1495 C831 2.064 . S
C1500 C75 2.056 . S
C1511 C915 2.055 . S
C1516 C159 2.065 . S
C1527 C243 2.016 . S
C1532 C999 2.018 . S
C1543 C327 2.045 . S
C1548 C579 2.070 . S
C1559 C663 2.008 . S
C1564 C411 2.057 . S
C1575 C747 2.033 . S
C1580 C495 2.072 . S
