# Generated by pormake.
# Topology uki, (4)-cn, num edge types: 1
# Building blocks:
#     Node 0, Type 0, BuildingBlock: ESEHIV_clean_sbu_0, # of connection points: 4
#     Node 1, Type 0, BuildingBlock: ESEHIV_clean_sbu_0, # of connection points: 4
#     Node 2, Type 0, BuildingBlock: ESEHIV_clean_sbu_0, # of connection points: 4
#     Node 3, Type 0, BuildingBlock: ESEHIV_clean_sbu_0, # of connection points: 4
#     Node 4, Type 0, BuildingBlock: ESEHIV_clean_sbu_0, # of connection points: 4
#     Node 5, Type 0, BuildingBlock: ESEHIV_clean_sbu_0, # of connection points: 4
#     Node 6, Type 0, BuildingBlock: ESEHIV_clean_sbu_0, # of connection points: 4
#     Node 7, Type 0, BuildingBlock: ESEHIV_clean_sbu_0, # of connection points: 4
#     Node 8, Type 0, BuildingBlock: ESEHIV_clean_sbu_0, # of connection points: 4
#     Node 9, Type 0, BuildingBlock: ESEHIV_clean_sbu_0, # of connection points: 4
#     Node 10, Type 0, BuildingBlock: ESEHIV_clean_sbu_0, # of connection points: 4
#     Node 11, Type 0, BuildingBlock: ESEHIV_clean_sbu_0, # of connection points: 4
#     Node 12, Type 0, BuildingBlock: ESEHIV_clean_sbu_0, # of connection points: 4
#     Node 13, Type 0, BuildingBlock: ESEHIV_clean_sbu_0, # of connection points: 4
#     Node 14, Type 0, BuildingBlock: ESEHIV_clean_sbu_0, # of connection points: 4
#     Node 15, Type 0, BuildingBlock: ESEHIV_clean_sbu_0, # of connection points: 4
#     Edge 16, Type (0, 0), BuildingBlock: EZIPEK_clean_linker_0, # of connection points: 2
#     Edge 17, Type (0, 0), BuildingBlock: EZIPEK_clean_linker_0, # of connection points: 2
#     Edge 18, Type (0, 0), BuildingBlock: EZIPEK_clean_linker_0, # of connection points: 2
#     Edge 19, Type (0, 0), BuildingBlock: EZIPEK_clean_linker_0, # of connection points: 2
#     Edge 20, Type (0, 0), BuildingBlock: EZIPEK_clean_linker_0, # of connection points: 2
#     Edge 21, Type (0, 0), BuildingBlock: EZIPEK_clean_linker_0, # of connection points: 2
#     Edge 22, Type (0, 0), BuildingBlock: EZIPEK_clean_linker_0, # of connection points: 2
#     Edge 23, Type (0, 0), BuildingBlock: EZIPEK_clean_linker_0, # of connection points: 2
#     Edge 24, Type (0, 0), BuildingBlock: EZIPEK_clean_linker_0, # of connection points: 2
#     Edge 25, Type (0, 0), BuildingBlock: EZIPEK_clean_linker_0, # of connection points: 2
#     Edge 26, Type (0, 0), BuildingBlock: EZIPEK_clean_linker_0, # of connection points: 2
#     Edge 27, Type (0, 0), BuildingBlock: EZIPEK_clean_linker_0, # of connection points: 2
#     Edge 28, Type (0, 0), BuildingBlock: EZIPEK_clean_linker_0, # of connection points: 2
#     Edge 29, Type (0, 0), BuildingBlock: EZIPEK_clean_linker_0, # of connection points: 2
#     Edge 30, Type (0, 0), BuildingBlock: EZIPEK_clean_linker_0, # of connection points: 2
#     Edge 31, Type (0, 0), BuildingBlock: EZIPEK_clean_linker_0, # of connection points: 2
#     Edge 32, Type (0, 0), BuildingBlock: EZIPEK_clean_linker_0, # of connection points: 2
#     Edge 33, Type (0, 0), BuildingBlock: EZIPEK_clean_linker_0, # of connection points: 2
#     Edge 34, Type (0, 0), BuildingBlock: EZIPEK_clean_linker_0, # of connection points: 2
#     Edge 35, Type (0, 0), BuildingBlock: EZIPEK_clean_linker_0, # of connection points: 2
#     Edge 36, Type (0, 0), BuildingBlock: EZIPEK_clean_linker_0, # of connection points: 2
#     Edge 37, Type (0, 0), BuildingBlock: EZIPEK_clean_linker_0, # of connection points: 2
#     Edge 38, Type (0, 0), BuildingBlock: EZIPEK_clean_linker_0, # of connection points: 2
#     Edge 39, Type (0, 0), BuildingBlock: EZIPEK_clean_linker_0, # of connection points: 2
#     Edge 40, Type (0, 0), BuildingBlock: EZIPEK_clean_linker_0, # of connection points: 2
#     Edge 41, Type (0, 0), BuildingBlock: EZIPEK_clean_linker_0, # of connection points: 2
#     Edge 42, Type (0, 0), BuildingBlock: EZIPEK_clean_linker_0, # of connection points: 2
#     Edge 43, Type (0, 0), BuildingBlock: EZIPEK_clean_linker_0, # of connection points: 2
#     Edge 44, Type (0, 0), BuildingBlock: EZIPEK_clean_linker_0, # of connection points: 2
#     Edge 45, Type (0, 0), BuildingBlock: EZIPEK_clean_linker_0, # of connection points: 2
#     Edge 46, Type (0, 0), BuildingBlock: EZIPEK_clean_linker_0, # of connection points: 2
#     Edge 47, Type (0, 0), BuildingBlock: EZIPEK_clean_linker_0, # of connection points: 2
# Relax obj value: 0.113
# Max RMSD: 0.200
# Mean RMSD: 0.174
data_MOF--net-uki--node1-ESEHIV_clean_sbu_0--edge1-EZIPEK_clean_linker_0
_symmetry_space_group_name_H-M    P1
_symmetry_Int_Tables_number       1
_symmetry_cell_setting            triclinic
loop_
_symmetry_equiv_pos_as_xyz
'x, y, z'
_cell_length_a     27.390462
_cell_length_b     21.293192
_cell_length_c     64.009617
_cell_angle_alpha  90.240156
_cell_angle_beta   89.487203
_cell_angle_gamma 90.572856
loop_
_atom_site_label
_atom_site_type_symbol
_atom_site_fract_x
_atom_site_fract_y
_atom_site_fract_z
_atom_type_partial_charge
Cu0 Cu 0.15307 0.26867 0.3168 0.0
N1 N 0.09735 0.31791 0.31125 0.0
N2 N 0.0429 0.37051 0.29227 0.0
C3 C 0.09012 0.35477 0.2944 0.0
C4 C 1.01929 0.3444 0.30863 0.0
C5 C 0.05287 0.31223 0.32032 0.0
O6 O 0.20485 0.29882 0.29784 0.0
C7 C 0.1033 0.15335 0.32373 0.0
O8 O 0.08927 0.18204 0.34089 0.0
H9 H 0.11777 0.3667 0.28298 0.0
H10 H 0.04452 0.2832 0.33369 0.0
N11 N 0.17373 0.27947 0.3449 0.0
N12 N 0.21856 0.28281 0.37421 0.0
C13 C 0.21767 0.26742 0.35361 0.0
C14 C 0.14648 0.30332 0.36062 0.0
C15 C 0.17387 0.3054 0.3786 0.0
C16 C 0.19839 0.30197 0.27817 0.0
O17 O 0.16159 0.27065 0.26998 0.0
H18 H 0.24847 0.24855 0.34504 0.0
H19 H 0.10925 0.31884 0.35909 0.0
O20 O 0.13344 0.18081 0.31137 0.0
H21 H 0.98015 0.34496 0.31111 0.0
H22 H 0.16214 0.32287 0.39372 0.0
Cu23 Cu 0.23755 0.92925 0.71973 0.0
N24 N 0.16992 0.92688 0.72535 0.0
N25 N 0.08865 0.929 0.72171 0.0
C26 C 0.13254 0.9412 0.71262 0.0
C27 C 0.09887 0.90702 0.74088 0.0
C28 C 0.14871 0.9067 0.74319 0.0
O29 O 0.24911 0.90103 0.69083 0.0
C30 C 0.24202 0.0575 0.73484 0.0
O31 O 0.19417 0.05423 0.73567 0.0
H32 H 0.13729 0.96008 0.69706 0.0
H33 H 0.16805 0.89299 0.75705 0.0
N34 N 0.26892 0.87349 0.73769 0.0
N35 N 0.32261 0.83972 0.76119 0.0
C36 C 0.31369 0.88174 0.74594 0.0
C37 C 0.24961 0.82324 0.74756 0.0
C38 C 0.28227 0.80294 0.76224 0.0
C39 C 0.23584 0.84528 0.68583 0.0
O40 O 0.2148 0.80937 0.69995 0.0
H41 H 0.33829 0.9197 0.7416 0.0
H42 H 0.21354 0.80399 0.74487 0.0
O43 O 0.26595 1.01184 0.72698 0.0
H44 H 0.07199 0.89338 0.75256 0.0
H45 H 0.27656 0.7648 0.77315 0.0
Cu46 Cu 0.95053 0.80266 0.3224 0.0
N47 N 1.00483 0.75542 0.32978 0.0
N48 N 0.07907 0.72549 0.31879 0.0
C49 C 0.03128 0.72951 0.31415 0.0
C50 C 0.08261 0.74685 0.33861 0.0
C51 C 0.03674 0.76541 0.34536 0.0
O52 O 0.91803 0.75075 0.30125 0.0
C53 C 0.99861 0.91867 0.32568 0.0
O54 O 0.99568 0.90306 0.34548 0.0
H55 H 1.01738 0.72377 0.29846 0.0
H56 H 0.02894 0.79232 0.35933 0.0
N57 N 0.90226 0.82234 0.34257 0.0
N58 N 0.84917 0.82993 0.36934 0.0
C59 C 0.89316 0.80765 0.36285 0.0
C60 C 0.86299 0.85474 0.33643 0.0
C61 C 0.83042 0.8594 0.35273 0.0
C62 C 0.88921 0.70678 0.30739 0.0
O63 O 0.88018 0.70093 0.32748 0.0
H64 H 0.91751 0.78073 0.37248 0.0
H65 H 0.8581 0.87278 0.32082 0.0
O66 O 0.97902 0.88234 0.31208 0.0
H67 H 0.11663 0.75539 0.34667 0.0
H68 H 0.79551 0.8828 0.3525 0.0
Cu69 Cu 0.77422 0.05646 0.70974 0.0
N70 N 0.81668 1.00105 0.69601 0.0
N71 N 0.89125 0.9587 0.69487 0.0
C72 C 0.86513 1.01169 0.69722 0.0
C73 C 0.85793 0.913 0.69113 0.0
C74 C 0.8119 0.93931 0.6917 0.0
O75 O 0.79229 0.14139 0.70037 0.0
C76 C 0.75612 0.9794 0.74282 0.0
O77 O 0.74053 0.9473 0.72663 0.0
H78 H 0.88051 0.0557 0.70275 0.0
H79 H 0.7776 0.91378 0.69139 0.0
N80 N 0.70711 0.05207 0.70529 0.0
N81 N 0.63262 0.06739 0.71866 0.0
C82 C 0.67946 0.08624 0.71841 0.0
C83 C 0.6763 1.01029 0.69638 0.0
C84 C 0.62981 1.01995 0.70463 0.0
C85 C 0.79042 0.14846 0.68053 0.0
O86 O 0.77937 0.09972 0.6688 0.0
H87 H 0.69456 0.12031 0.72925 0.0
H88 H 0.68744 0.97188 0.68637 0.0
O89 O 0.7767 0.03293 0.73956 0.0
H90 H 0.86593 0.86339 0.69009 0.0
H91 H 0.59761 0.99135 0.70186 0.0
Cu92 Cu 0.12795 0.28212 0.98656 0.0
N93 N 0.07035 0.23693 0.98154 0.0
N94 N 0.99748 0.19664 0.99051 0.0
C95 C 0.03346 0.23713 0.9956 0.0
C96 C 1.01205 0.16922 0.97249 0.0
C97 C 0.05736 0.19427 0.96696 0.0
O98 O 0.16771 0.22769 1.00438 0.0
C99 C 0.07863 0.39629 0.99147 0.0
O100 O 0.07624 0.38914 0.97109 0.0
H101 H 0.03383 0.26481 1.00982 0.0
H102 H 0.07989 0.18063 0.95377 0.0
N103 N 0.16372 0.30889 0.96244 0.0
N104 N 0.2118 0.31358 0.93377 0.0
C105 C 0.18108 0.2774 0.94547 0.0
C106 C 0.18404 0.36665 0.96102 0.0
C107 C 0.21332 0.36974 0.94347 0.0
C108 C 0.19691 0.18655 0.99696 0.0
O109 O 0.20394 0.18326 0.97671 0.0
H110 H 0.17354 0.22833 0.9423 0.0
H111 H 0.17985 0.40325 0.97264 0.0
O112 O 0.10326 0.35644 1.00178 0.0
H113 H 0.99219 0.1325 0.96436 0.0
H114 H 0.2363 0.40901 0.93881 0.0
Cu115 Cu 0.28731 0.94452 0.08578 0.0
N116 N 0.33117 1.0007 0.09887 0.0
N117 N 0.40175 0.05028 0.10569 0.0
C118 C 0.3797 1.00352 0.09502 0.0
C119 C 0.36605 0.07804 0.11693 0.0
C120 C 0.32245 0.04708 0.11275 0.0
O121 O 0.29758 0.85798 0.09616 0.0
C122 C 0.30598 1.00941 0.04729 0.0
O123 O 0.34739 0.03106 0.05458 0.0
H124 H 0.39837 0.97286 0.0841 0.0
H125 H 0.28677 0.05863 0.11895 0.0
N126 N 0.2212 0.95647 0.09246 0.0
N127 N 0.14909 0.92851 0.07826 0.0
C128 C 0.18873 0.96701 0.07703 0.0
C129 C 0.19864 0.91459 0.10503 0.0
C130 C 0.15508 0.89663 0.09622 0.0
C131 C 0.32755 0.84477 0.11068 0.0
O132 O 0.36366 0.88382 0.11462 0.0
H133 H 0.19749 0.99502 0.06342 0.0
H134 H 0.21643 0.88957 0.11743 0.0
O135 O 0.28651 0.96058 0.05552 0.0
H136 H 0.37099 0.11871 0.12691 0.0
H137 H 0.1325 0.85751 0.10135 0.0
Cu138 Cu 0.90244 0.71436 1.0077 0.0
N139 N 0.95579 0.7702 1.0037 0.0
N140 N 1.01894 0.82664 1.01637 0.0
C141 C 0.9703 0.81484 1.01748 0.0
C142 C 0.03496 0.79059 1.00035 0.0
C143 C 0.99603 0.75679 0.99239 0.0
O144 O 0.85705 0.75315 0.02784 0.0
C145 C 0.97409 0.61987 1.01929 0.0
O146 O 1.00253 0.6667 1.02499 0.0
H147 H 0.94696 0.83338 0.02964 0.0
H148 H 0.99843 0.71854 0.98127 0.0
N149 N 0.86666 0.69963 0.98299 0.0
N150 N 0.81779 0.70619 0.95513 0.0
C151 C 0.84458 0.73866 0.96938 0.0
C152 C 0.85242 0.64144 0.97714 0.0
C153 C 0.82277 0.64527 0.96001 0.0
C154 C 0.86849 0.77055 0.04624 0.0
O155 O 0.90844 0.74851 0.0545 0.0
H156 H 0.84635 0.78938 0.97039 0.0
H157 H 0.8611 0.59896 0.98544 0.0
O158 O 0.92937 0.6308 1.01494 0.0
H159 H 0.0729 0.78438 0.996 0.0
H160 H 0.80451 0.60653 0.95221 0.0
Cu161 Cu 0.74919 0.11021 0.09423 0.0
N162 N 0.68275 0.13032 0.09218 0.0
N163 N 0.60122 0.12612 0.0949 0.0
C164 C 0.64298 0.09263 0.09425 0.0
C165 C 0.61515 0.18674 0.09317 0.0
C166 C 0.66529 0.18916 0.09154 0.0
O167 O 0.77001 0.14466 0.12123 0.0
C168 C 0.79957 0.99436 0.0884 0.0
O169 O 0.83847 1.02776 0.0932 0.0
H170 H 0.64461 0.04215 0.096 0.0
H171 H 0.68762 0.23122 0.09079 0.0
N172 N 0.78544 0.15446 0.07374 0.0
N173 N 0.83981 0.17935 0.04864 0.0
C174 C 0.81516 0.13245 0.05843 0.0
C175 C 0.79165 0.21728 0.07342 0.0
C176 C 0.82496 0.23274 0.05796 0.0
C177 C 0.74589 0.13834 0.13824 0.0
O178 O 0.71047 0.09639 0.13932 0.0
H179 H 0.82069 0.08326 0.05513 0.0
H180 H 0.77468 0.24951 0.0843 0.0
O181 O 0.75766 1.01968 0.0896 0.0
H182 H 0.59073 0.2264 0.09352 0.0
H183 H 0.83857 0.27936 0.0543 0.0
Cu184 Cu 0.61432 0.75319 0.83477 0.0
N185 N 0.5531 0.79129 0.83178 0.0
N186 N 0.48246 0.81962 0.81758 0.0
C187 C 0.52648 0.79336 0.81417 0.0
C188 C 0.48098 0.83427 0.83806 0.0
C189 C 0.52459 0.81669 0.8468 0.0
O190 O 0.66111 0.79294 0.81502 0.0
C191 C 0.56279 0.63589 0.83535 0.0
O192 O 0.5307 0.66932 0.84576 0.0
H193 H 0.53854 0.77444 0.7993 0.0
H194 H 0.53398 0.81999 0.86313 0.0
N195 N 0.63952 0.77097 0.86155 0.0
N196 N 0.68519 0.7716 0.89048 0.0
C197 C 0.66976 0.73752 0.8738 0.0
C198 C 0.63664 0.82783 0.87079 0.0
C199 C 0.66432 0.82821 0.88863 0.0
C200 C 0.65523 0.84864 0.80806 0.0
O201 O 0.61539 0.87883 0.81334 0.0
H202 H 0.68165 0.69034 0.87021 0.0
H203 H 0.61739 0.86743 0.86444 0.0
O204 O 0.60321 0.66179 0.82963 0.0
H205 H 0.45 0.85446 0.84618 0.0
H206 H 0.67002 0.86756 0.89913 0.0
Cu207 Cu 0.79051 0.45314 0.21791 0.0
N208 N 0.74457 0.50263 0.20404 0.0
N209 N 0.67005 0.5444 0.20127 0.0
C210 C 0.69603 0.49331 0.20652 0.0
C211 C 0.70351 0.58656 0.19431 0.0
C212 C 0.74939 0.56059 0.1959 0.0
O213 O 0.77421 0.36517 0.21138 0.0
C214 C 0.78264 0.53647 0.25246 0.0
O215 O 0.74925 0.56517 0.24166 0.0
H216 H 0.68045 0.45237 0.21414 0.0
H217 H 0.78374 0.58469 0.19324 0.0
N218 N 0.85634 0.46361 0.21117 0.0
N219 N 0.93176 0.45899 0.22413 0.0
C220 C 0.88756 0.43134 0.22303 0.0
C221 C 0.8822 0.51336 0.204 0.0
C222 C 0.92927 0.51007 0.21178 0.0
C223 C 0.78461 0.34854 0.19264 0.0
O224 O 0.80528 0.38965 0.18006 0.0
H225 H 0.87595 0.3931 0.23308 0.0
H226 H 0.86682 0.55293 0.19597 0.0
O227 O 0.79477 0.4807 0.24723 0.0
H228 H 0.69557 0.63424 0.18973 0.0
H229 H 0.95747 0.54582 0.2104 0.0
Cu230 Cu 0.42064 0.28075 0.81172 0.0
N231 N 0.47313 0.22756 0.806 0.0
N232 N 0.52484 0.17066 0.78663 0.0
C233 C 0.48047 0.19743 0.78767 0.0
C234 C 0.54619 0.18375 0.80508 0.0
C235 C 0.51414 0.21896 0.81702 0.0
O236 O 0.37624 0.25897 0.7887 0.0
C237 C 0.46855 0.39226 0.82725 0.0
O238 O 0.46515 0.3627 0.84519 0.0
H239 H 0.45513 0.19835 0.7748 0.0
H240 H 0.52117 0.23949 0.8322 0.0
N241 N 0.39149 0.25902 0.83774 0.0
N242 N 0.34406 0.25572 0.86656 0.0
C243 C 0.35928 0.29059 0.85 0.0
C244 C 0.39653 0.20281 0.847 0.0
C245 C 0.36753 0.20067 0.86471 0.0
C246 C 0.33242 0.23945 0.79117 0.0
O247 O 0.31041 0.24813 0.80924 0.0
H248 H 0.34659 0.33745 0.84668 0.0
H249 H 0.41909 0.1653 0.84101 0.0
O250 O 0.44891 0.36692 0.81116 0.0
H251 H 0.58308 0.17121 0.80917 0.0
H252 H 0.36362 0.16156 0.87536 0.0
Cu253 Cu 0.32568 0.61681 0.217 0.0
N254 N 0.39253 0.62686 0.22219 0.0
N255 N 0.47334 0.61515 0.21934 0.0
C256 C 0.42919 0.59702 0.21214 0.0
C257 C 0.46425 0.65744 0.23457 0.0
C258 C 0.41442 0.66444 0.23635 0.0
O259 O 0.31864 0.64391 0.18774 0.0
C260 C 0.26924 0.50321 0.22465 0.0
O261 O 0.23187 0.53256 0.21668 0.0
H262 H 0.42364 0.56223 0.19999 0.0
H263 H 0.39569 0.69407 0.24748 0.0
N264 N 0.28978 0.66923 0.23539 0.0
N265 N 0.23644 0.70381 0.25954 0.0
C266 C 0.25032 0.65489 0.24741 0.0
C267 C 0.30039 0.72963 0.23998 0.0
C268 C 0.26784 0.75092 0.25489 0.0
C269 C 0.28479 0.67933 0.18119 0.0
O270 O 0.2468 0.69004 0.19331 0.0
H271 H 0.23219 0.60964 0.24755 0.0
H272 H 0.33014 0.75631 0.23307 0.0
O273 O 0.31137 0.52887 0.22398 0.0
H274 H 0.49174 0.68033 0.24406 0.0
H275 H 0.26703 0.79745 0.26176 0.0
Cu276 Cu 0.6374 0.80912 0.49235 0.0
N277 N 0.58167 0.76566 0.48314 0.0
N278 N 0.50519 0.7286 0.48597 0.0
C279 C 0.54211 0.75881 0.4956 0.0
C280 C 0.52189 0.71563 0.46655 0.0
C281 C 0.56943 0.73841 0.46485 0.0
O282 O 0.66689 0.75442 0.51325 0.0
C283 C 0.58209 0.92043 0.49268 0.0
O284 O 0.56641 0.89562 0.47515 0.0
H285 H 0.53996 0.77727 0.51137 0.0
H286 H 0.59281 0.73636 0.45118 0.0
N287 N 0.68849 0.82457 0.47301 0.0
N288 N 0.74308 0.82912 0.44669 0.0
C289 C 0.69662 0.81338 0.45239 0.0
C290 C 0.73097 0.84813 0.48017 0.0
C291 C 0.76449 0.85078 0.46416 0.0
C292 C 0.68269 0.7013 0.50682 0.0
O293 O 0.67824 0.68637 0.48699 0.0
H294 H 0.66969 0.79381 0.44189 0.0
H295 H 0.73724 0.86168 0.49623 0.0
O296 O 0.61404 0.89096 0.50325 0.0
H297 H 0.50087 0.69287 0.45439 0.0
H298 H 0.80179 0.86777 0.46516 0.0
Cu299 Cu 0.77931 0.46939 0.60309 0.0
N300 N 0.82284 0.52657 0.61564 0.0
N301 N 0.89719 0.5713 0.61288 0.0
C302 C 0.87112 0.51712 0.61296 0.0
C303 C 0.8642 0.61663 0.61678 0.0
C304 C 0.81844 0.58894 0.61863 0.0
O305 O 0.79634 0.38538 0.61309 0.0
C306 C 0.76096 0.54482 0.57001 0.0
O307 O 0.74407 0.57652 0.58606 0.0
H308 H 0.88583 0.47248 0.60792 0.0
H309 H 0.78416 0.61357 0.6195 0.0
N310 N 0.71203 0.47278 0.60772 0.0
N311 N 0.63753 0.45661 0.59465 0.0
C312 C 0.68481 0.44099 0.59382 0.0
C313 C 0.68051 0.50924 0.61842 0.0
C314 C 0.63399 0.49878 0.61044 0.0
C315 C 0.79154 0.38001 0.63293 0.0
O316 O 0.77911 0.42976 0.64388 0.0
H317 H 0.70035 0.41039 0.58202 0.0
H318 H 0.69092 0.54425 0.62988 0.0
O319 O 0.78164 0.49187 0.57319 0.0
H320 H 0.8719 0.66657 0.61627 0.0
H321 H 0.60105 0.5234 0.61481 0.0
Cu322 Cu 0.429 0.26743 0.49415 0.0
N323 N 0.48054 0.32117 0.50186 0.0
N324 N 0.53061 0.3725 0.52369 0.0
C325 C 0.49328 0.33113 0.52191 0.0
C326 C 0.54203 0.38946 0.50393 0.0
C327 C 0.51087 0.35792 0.49048 0.0
O328 O 0.37401 0.30195 0.51006 0.0
C329 C 0.48856 0.16043 0.49257 0.0
O330 O 0.50915 0.19446 0.47781 0.0
H331 H 0.47596 0.30777 0.535 0.0
H332 H 0.51025 0.3621 0.47367 0.0
N333 N 0.41341 0.2719 0.46523 0.0
N334 N 0.37104 0.27459 0.43524 0.0
C335 C 0.36853 0.27063 0.45638 0.0
C336 C 0.44491 0.27689 0.44899 0.0
C337 C 0.41901 0.27858 0.4306 0.0
C338 C 0.36469 0.2944 0.52944 0.0
O339 O 0.38713 0.25019 0.53978 0.0
H340 H 0.33473 0.2672 0.46521 0.0
H341 H 0.48417 0.2793 0.45034 0.0
O342 O 0.45064 0.18217 0.50183 0.0
H343 H 0.57055 0.42262 0.49961 0.0
H344 H 0.43416 0.2828 0.41498 0.0
Cu345 Cu 0.23754 0.62585 0.57476 0.0
N346 N 0.1693 0.6196 0.57119 0.0
N347 N 0.08902 0.60961 0.57798 0.0
C348 C 0.13469 0.60762 0.58591 0.0
C349 C 0.09533 0.62285 0.55754 0.0
C350 C 0.14456 0.62795 0.55336 0.0
O351 O 0.24874 0.66651 0.602 0.0
C352 C 0.24591 0.49297 0.56622 0.0
O353 O 0.19799 0.49179 0.56578 0.0
H354 H 0.14276 0.59758 0.60208 0.0
H355 H 0.16103 0.63608 0.53821 0.0
N356 N 0.26686 0.67347 0.55321 0.0
N357 N 0.3221 0.70163 0.5288 0.0
C358 C 0.3136 0.66859 0.5465 0.0
C359 C 0.24547 0.71203 0.53948 0.0
C360 C 0.27913 0.72862 0.52429 0.0
C361 C 0.24466 0.726 0.60391 0.0
O362 O 0.2366 0.75982 0.5872 0.0
H363 H 0.34052 0.6398 0.55408 0.0
H364 H 0.20784 0.72663 0.54023 0.0
O365 O 0.26817 0.54323 0.57175 0.0
H366 H 0.06623 0.62689 0.54629 0.0
H367 H 0.27268 0.75844 0.51096 0.0
C368 C 0.23583 0.33784 0.24387 0.0
C369 C 0.22437 0.35084 0.26521 0.0
C370 C 0.25829 0.45722 0.26048 0.0
C371 C 0.26016 0.44808 0.23854 0.0
N372 N 0.24817 0.37977 0.20894 0.0
N373 N 0.21457 0.43146 0.29204 0.0
C374 C 0.24814 0.38832 0.23009 0.0
C375 C 0.23334 0.41256 0.27318 0.0
N376 N 0.23655 0.27714 0.2369 0.0
N377 N 0.27975 0.50878 0.26939 0.0
H378 H 0.1921 0.40392 0.3015 0.0
H379 H 0.21618 0.478 0.29714 0.0
H380 H 0.29856 0.54291 0.26085 0.0
H381 H 0.28357 0.51364 0.28551 0.0
H382 H 0.24856 0.26444 0.222 0.0
H383 H 0.23034 0.23893 0.24676 0.0
H384 H 0.23445 0.33936 0.20177 0.0
H385 H 0.25931 0.41481 0.19854 0.0
C386 C 0.42142 0.77106 0.79417 0.0
C387 C 0.44318 0.82548 0.80289 0.0
C388 C 0.38227 0.88997 0.78555 0.0
C389 C 0.36483 0.83611 0.77457 0.0
N390 N 0.37755 0.72792 0.7648 0.0
N391 N 0.45026 0.93804 0.80391 0.0
C392 C 0.38735 0.77731 0.7778 0.0
C393 C 0.4255 0.88548 0.7976 0.0
N394 N 0.43115 0.71357 0.80232 0.0
N395 N 0.35603 0.94406 0.7857 0.0
H396 H 0.48231 0.93583 0.81255 0.0
H397 H 0.44156 0.98303 0.79889 0.0
H398 H 0.32199 0.94747 0.77874 0.0
H399 H 0.36534 0.98298 0.79479 0.0
H400 H 0.41225 0.673 0.79787 0.0
H401 H 0.45386 0.70797 0.81515 0.0
H402 H 0.39601 0.68542 0.76563 0.0
H403 H 0.35529 0.73205 0.75176 0.0
C404 C 0.82993 0.63642 0.25864 0.0
C405 C 0.81514 0.57605 0.26592 0.0
C406 C 0.86115 0.59657 0.29794 0.0
C407 C 0.86618 0.66127 0.29245 0.0
N408 N 0.84459 0.74416 0.26851 0.0
N409 N 0.81344 0.5008 0.29399 0.0
C410 C 0.84777 0.68169 0.27302 0.0
C411 C 0.82996 0.55648 0.28599 0.0
N412 N 0.82909 0.64997 0.23781 0.0
N413 N 0.88819 0.57231 0.31376 0.0
H414 H 0.7903 0.47049 0.28582 0.0
H415 H 0.81938 0.48754 0.30941 0.0
H416 H 0.91457 0.59847 0.3217 0.0
H417 H 0.88898 0.52446 0.31708 0.0
H418 H 0.84319 0.69178 0.23172 0.0
H419 H 0.82063 0.61635 0.2265 0.0
H420 H 0.82735 0.76046 0.25515 0.0
H421 H 0.85357 0.77968 0.27907 0.0
C422 C 0.55884 0.17912 0.7507 0.0
C423 C 0.54754 0.14213 0.76852 0.0
C424 C 0.58835 0.05186 0.75228 0.0
C425 C 0.5974 0.08806 0.73404 0.0
N426 N 0.58431 0.18142 0.71423 0.0
N427 N 0.54321 0.04109 0.78496 0.0
C428 C 0.57995 0.15017 0.73274 0.0
C429 C 0.55968 0.07763 0.76885 0.0
N430 N 0.55233 0.2426 0.75146 0.0
N431 N 0.60949 0.9944 0.75423 0.0
H432 H 0.52211 0.05909 0.7972 0.0
H433 H 0.54689 0.99248 0.78532 0.0
H434 H 0.631 0.97444 0.7425 0.0
H435 H 0.60866 0.96846 0.76798 0.0
H436 H 0.56419 0.27311 0.73977 0.0
H437 H 0.53904 0.2657 0.7647 0.0
H438 H 0.5687 0.22496 0.71148 0.0
H439 H 0.60007 0.16084 0.70099 0.0
C440 C 0.26656 0.11478 0.04255 0.0
C441 C 0.27505 0.05291 0.03493 0.0
C442 C 0.22311 0.07557 1.0049 0.0
C443 C 0.22179 0.14028 1.01074 0.0
N444 N 0.2516 0.22286 0.03348 0.0
N445 N 0.26611 0.97674 1.0073 0.0
C446 C 0.24592 0.16032 0.02916 0.0
C447 C 0.25456 0.03386 1.01566 0.0
N448 N 0.27627 0.12968 0.06289 0.0
N449 N 0.19274 0.05319 0.98971 0.0
H450 H 0.28859 0.94488 1.01484 0.0
H451 H 0.25657 0.96312 0.99221 0.0
H452 H 0.16648 0.08081 0.9826 0.0
H453 H 0.18984 1.0058 0.98581 0.0
H454 H 0.26644 0.17234 0.06968 0.0
H455 H 0.28865 0.09694 0.07361 0.0
H456 H 0.27328 0.23957 0.04564 0.0
H457 H 0.23929 0.25821 1.0237 0.0
C458 C 0.12842 0.90598 0.04047 0.0
C459 C 0.11443 0.91141 0.06195 0.0
C460 C 0.03938 0.85425 0.05354 0.0
C461 C 0.04935 0.85881 0.03174 0.0
N462 N 0.09849 0.90922 1.00509 0.0
N463 N 0.04717 0.90802 0.08659 0.0
C464 C 0.09207 0.89187 0.02539 0.0
C465 C 0.0665 0.892 0.06765 0.0
N466 N 0.17623 0.90664 0.03442 0.0
N467 N 1.00882 0.80897 0.0612 0.0
H468 H 0.06515 0.93857 0.09681 0.0
H469 H 1.01126 0.89662 0.09079 0.0
H470 H 0.99717 0.7715 0.05197 0.0
H471 H 1.00267 0.80284 0.07718 0.0
H472 H 0.18694 0.89889 1.01896 0.0
H473 H 0.20472 0.90382 0.04498 0.0
H474 H 0.12835 0.93628 1.00019 0.0
H475 H 0.07128 0.90294 0.99395 0.0
C476 C 0.83604 0.82333 0.07901 0.0
C477 C 0.84236 0.82374 0.0569 0.0
C478 C 0.80283 0.92701 0.05612 0.0
C479 C 0.80615 0.93182 0.07815 0.0
N480 N 0.82801 0.88497 0.11086 0.0
N481 N 0.84089 0.88575 1.02503 0.0
C482 C 0.82335 0.87998 0.0897 0.0
C483 C 0.82765 0.87779 0.04551 0.0
N484 N 0.84062 0.76845 0.08976 0.0
N485 N 0.77672 0.96983 0.04513 0.0
H486 H 0.86284 0.85494 1.01664 0.0
H487 H 0.83517 0.92749 1.017 0.0
H488 H 0.75746 1.00616 0.05223 0.0
H489 H 0.76968 0.96482 0.02923 0.0
H490 H 0.83246 0.76419 0.10562 0.0
H491 H 0.84728 0.7256 0.08236 0.0
H492 H 0.84569 0.85161 0.11986 0.0
H493 H 0.81646 0.92434 0.11925 0.0
C494 C 0.86954 0.20132 1.01279 0.0
C495 C 0.87748 0.17471 0.03273 0.0
C496 C 0.96117 0.14825 1.02205 0.0
C497 C 0.95519 0.18248 1.00334 0.0
N498 N 0.90554 0.24569 0.98121 0.0
N499 N 0.93237 0.12871 0.0574 0.0
C500 C 0.90963 0.2096 0.99867 0.0
C501 C 0.92357 0.14887 0.03757 0.0
N502 N 0.82334 0.21784 1.00737 0.0
N503 N 1.00308 0.11528 1.02484 0.0
H504 H 0.90621 0.13024 0.0693 0.0
H505 H 0.96666 0.11527 0.06254 0.0
H506 H 0.03101 0.11456 1.01364 0.0
H507 H 1.00831 0.08452 0.03721 0.0
H508 H 0.81394 0.23267 0.99248 0.0
H509 H 0.79349 0.21135 1.01741 0.0
H510 H 0.87503 0.27259 0.97795 0.0
H511 H 0.93425 0.25172 0.97057 0.0
C512 C 0.69883 0.94798 0.79649 0.0
C513 C 0.69261 0.88159 0.79447 0.0
C514 C 0.75151 0.88504 0.76537 0.0
C515 C 0.74618 0.95107 0.76381 0.0
N516 N 0.71152 0.04605 0.77819 0.0
N517 N 0.71118 0.7876 0.77438 0.0
C518 C 0.71965 0.98311 0.77964 0.0
C519 C 0.71921 0.84985 0.77847 0.0
N520 N 0.68603 0.97748 0.81468 0.0
N521 N 0.78671 0.85584 0.75375 0.0
H522 H 0.68557 0.76003 0.78227 0.0
H523 H 0.72643 0.76478 0.76149 0.0
H524 H 0.81111 0.88098 0.74425 0.0
H525 H 0.79489 0.80841 0.75541 0.0
H526 H 0.69309 1.02499 0.81742 0.0
H527 H 0.67427 0.95291 0.8279 0.0
H528 H 0.68696 0.06948 0.78793 0.0
H529 H 0.72677 0.07412 0.76652 0.0
C530 C 1.01465 0.35926 0.25576 0.0
C531 C 1.0205 0.3967 0.27396 0.0
C532 C 0.97229 0.4803 0.25816 0.0
C533 C 0.96762 0.44348 0.23967 0.0
N534 N 0.99182 0.35459 0.21917 0.0
N535 N 1.01379 0.49622 0.29129 0.0
C536 C 0.99158 0.38513 0.23796 0.0
C537 C 1.00229 0.45859 0.27468 0.0
N538 N 0.02868 0.29789 0.25594 0.0
N539 N 0.94574 0.53384 0.26047 0.0
H540 H 0.03516 0.48055 0.3036 0.0
H541 H 1.00571 0.54385 0.29209 0.0
H542 H 0.92205 0.55011 0.24913 0.0
H543 H 0.9446 0.56016 0.27418 0.0
H544 H 1.02098 0.26615 0.24398 0.0
H545 H 0.04478 0.27713 0.26885 0.0
H546 H 1.01207 0.3144 0.21613 0.0
H547 H 0.97496 0.37305 0.20601 0.0
C548 C 0.28503 0.16198 0.74069 0.0
C549 C 0.26752 0.10372 0.74863 0.0
C550 C 0.29918 0.13146 0.78329 0.0
C551 C 0.31148 0.19275 0.77607 0.0
N552 N 0.31237 0.26872 0.74829 0.0
N553 N 0.25143 0.0364 0.7782 0.0
C554 C 0.30373 0.20857 0.7548 0.0
C555 C 0.27263 0.08958 0.77015 0.0
N556 N 0.2841 0.17246 0.71966 0.0
N557 N 0.31525 0.11178 0.80233 0.0
H558 H 0.23372 1.00266 0.76906 0.0
H559 H 0.24851 1.02771 0.79416 0.0
H560 H 0.33755 0.13914 0.81193 0.0
H561 H 0.311 0.06596 0.8077 0.0
H562 H 0.30068 0.21108 0.71252 0.0
H563 H 0.26969 0.13985 0.70911 0.0
H564 H 0.30283 0.28525 0.73362 0.0
H565 H 0.32592 0.30372 0.75817 0.0
C566 C 0.15339 0.67084 0.306 0.0
C567 C 0.1188 0.71938 0.30381 0.0
C568 C 0.15807 0.75035 0.27071 0.0
C569 C 0.19575 0.70669 0.2741 0.0
N570 N 0.23413 0.63284 0.29688 0.0
N571 N 0.09557 0.81489 0.28642 0.0
C572 C 0.19468 0.66865 0.29226 0.0
C573 C 0.12311 0.76182 0.28678 0.0
N574 N 0.14611 0.6261 0.32094 0.0
N575 N 0.15488 0.77956 0.25184 0.0
H576 H 0.07126 0.82682 0.29833 0.0
H577 H 0.10073 0.85041 0.27545 0.0
H578 H 0.17905 0.77048 0.23953 0.0
H579 H 0.12546 0.80745 0.24772 0.0
H580 H 0.16734 0.58596 0.32205 0.0
H581 H 0.1161 0.62669 0.3311 0.0
H582 H 0.23747 0.60825 0.31082 0.0
H583 H 0.26557 0.63252 0.28758 0.0
C584 C 0.77399 0.63327 0.54527 0.0
C585 C 0.75298 0.57318 0.54914 0.0
C586 C 0.68745 0.59542 0.52434 0.0
C587 C 0.7075 0.65663 0.52108 0.0
N588 N 0.77659 0.7271 0.52387 0.0
N589 N 0.69799 0.49069 0.53875 0.0
C590 C 0.75292 0.67351 0.53015 0.0
C591 C 0.7126 0.55203 0.53727 0.0
N592 N 0.81311 0.65272 0.55682 0.0
N593 N 0.64314 0.57998 0.51594 0.0
H594 H 0.71658 0.45847 0.54788 0.0
H595 H 0.67087 0.47025 0.52962 0.0
H596 H 0.62297 0.61098 0.50696 0.0
H597 H 0.62442 0.53824 0.51899 0.0
H598 H 0.82643 0.69867 0.55699 0.0
H599 H 0.83112 0.62278 0.567 0.0
H600 H 0.81202 0.73892 0.52827 0.0
H601 H 0.76242 0.75742 0.51277 0.0
C602 C 0.59436 0.37222 0.57583 0.0
C603 C 0.60239 0.43733 0.57908 0.0
C604 C 0.55404 0.45908 0.54784 0.0
C605 C 0.55324 0.39415 0.54281 0.0
N606 N 0.57966 0.28931 0.55059 0.0
N607 N 0.59635 0.54314 0.56598 0.0
C608 C 0.57489 0.3506 0.55654 0.0
C609 C 0.58357 0.48115 0.56461 0.0
N610 N 0.60586 0.33114 0.5913 0.0
N611 N 0.52575 0.4994 0.53685 0.0
H612 H 0.61974 0.56089 0.57733 0.0
H613 H 0.58727 0.57604 0.5547 0.0
H614 H 0.50252 0.48399 0.52503 0.0
H615 H 0.52154 0.5465 0.54089 0.0
H616 H 0.59723 0.28341 0.59069 0.0
H617 H 0.61967 0.34629 0.60563 0.0
H618 H 0.59926 0.25664 0.55911 0.0
H619 H 0.56833 0.27257 0.53609 0.0
C620 C 0.3141 0.41432 0.5691 0.0
C621 C 0.27421 0.43852 0.5578 0.0
C622 C 0.28732 0.35748 0.53088 0.0
C623 C 0.3317 0.33994 0.54043 0.0
N624 N 0.39195 0.36246 0.5671 0.0
N625 N 0.23024 0.44124 0.52516 0.0
C626 C 0.34629 0.3709 0.55923 0.0
C627 C 0.26258 0.41214 0.53796 0.0
N628 N 0.3208 0.43157 0.58946 0.0
N629 N 0.26806 0.32124 0.51527 0.0
H630 H 0.21354 0.48361 0.52892 0.0
H631 H 0.22436 0.42711 0.50977 0.0
H632 H 0.28405 0.27955 0.51019 0.0
H633 H 0.23354 0.32882 0.50909 0.0
H634 H 0.34638 0.41048 0.59907 0.0
H635 H 0.29743 0.46208 0.59738 0.0
H636 H 0.40594 0.3895 0.57931 0.0
H637 H 0.41785 0.33338 0.56027 0.0
C638 C 0.44003 0.65954 0.50081 0.0
C639 C 0.45653 0.71973 0.49442 0.0
C640 C 0.38606 0.76765 0.51171 0.0
C641 C 0.36741 0.70729 0.51701 0.0
N642 N 0.37076 0.59521 0.51166 0.0
N643 N 0.43796 0.82776 0.4882 0.0
C644 C 0.39274 0.65284 0.51014 0.0
C645 C 0.42709 0.77275 0.4981 0.0
N646 N 0.47 0.6092 0.4984 0.0
N647 N 0.36659 0.82012 0.52067 0.0
H648 H 0.46779 0.83238 0.47804 0.0
H649 H 0.41469 0.8662 0.48847 0.0
H650 H 0.33939 0.81813 0.53215 0.0
H651 H 0.38116 0.86498 0.51845 0.0
H652 H 0.46188 0.56498 0.50446 0.0
H653 H 0.50459 0.61299 0.49154 0.0
H654 H 0.38574 0.55446 0.50537 0.0
H655 H 0.33513 0.5892 0.51721 0.0
C656 C 0.31896 0.33432 0.41095 0.0
C657 C 0.33143 0.27646 0.42031 0.0
C658 C 0.26926 0.22228 0.39897 0.0
C659 C 0.25883 0.27956 0.38877 0.0
N660 N 0.27713 0.38845 0.38295 0.0
N661 N 0.32344 0.16426 0.42171 0.0
C662 C 0.28474 0.33517 0.39421 0.0
C663 C 0.30782 0.22006 0.4139 0.0
N664 N 0.3391 0.3886 0.41856 0.0
N665 N 0.24115 0.17054 0.39476 0.0
H666 H 0.35107 0.16171 0.43278 0.0
H667 H 0.31146 0.12061 0.41634 0.0
H668 H 0.21345 0.17094 0.38367 0.0
H669 H 0.24312 0.12866 0.40301 0.0
H670 H 0.32875 0.43325 0.4139 0.0
H671 H 0.36394 0.38896 0.43082 0.0
H672 H 0.29758 0.42956 0.38463 0.0
H673 H 0.25237 0.38992 0.37066 0.0
C674 C 0.20205 0.79281 0.63095 0.0
C675 C 0.24356 0.75708 0.62493 0.0
C676 C 0.28137 0.78127 0.65886 0.0
C677 C 0.24141 0.82052 0.66412 0.0
N678 N 0.16775 0.8723 0.6539 0.0
N679 N 0.32627 0.72581 0.63168 0.0
C680 C 0.20311 0.82908 0.6497 0.0
C681 C 0.28422 0.7535 0.63851 0.0
N682 N 0.16042 0.78937 0.61934 0.0
N683 N 0.31616 0.76956 0.67347 0.0
H684 H 0.32982 0.70543 0.6169 0.0
H685 H 0.35887 0.72749 0.6399 0.0
H686 H 0.31646 0.79135 0.68811 0.0
H687 H 0.34297 0.73562 0.67161 0.0
H688 H 0.12727 0.80838 0.62414 0.0
H689 H 0.15746 0.76222 0.60583 0.0
H690 H 0.1416 0.88564 0.64312 0.0
H691 H 0.16721 0.89913 0.66755 0.0
C692 C 0.7832 0.88515 0.4175 0.0
C693 C 0.76651 0.82784 0.42632 0.0
C694 C 0.80531 0.77024 0.39728 0.0
C695 C 0.82582 0.8273 0.38969 0.0
N696 N 0.84182 0.93734 0.39469 0.0
N697 N 0.76777 0.71496 0.42655 0.0
C698 C 0.81691 0.88427 0.4005 0.0
C699 C 0.77915 0.76998 0.41671 0.0
N700 N 0.76551 0.9405 0.42513 0.0
N701 N 0.80926 0.71691 0.38552 0.0
H702 H 0.74881 0.71348 0.44074 0.0
H703 H 0.78023 0.6714 0.42147 0.0
H704 H 0.82815 0.71585 0.37131 0.0
H705 H 0.7909 0.67519 0.38907 0.0
H706 H 0.77275 0.98389 0.41826 0.0
H707 H 0.73951 0.9422 0.43713 0.0
H708 H 0.84042 0.97937 0.40304 0.0
H709 H 0.86773 0.93737 0.38263 0.0
C710 C 0.83607 0.22901 0.65888 0.0
C711 C 0.79338 0.21119 0.67029 0.0
C712 C 0.74838 0.29694 0.65387 0.0
C713 C 0.79198 0.31811 0.64381 0.0
N714 N 0.87879 0.30927 0.63861 0.0
N715 N 0.71074 0.23298 0.68101 0.0
C716 C 0.83627 0.28534 0.64676 0.0
C717 C 0.75016 0.24687 0.66854 0.0
N718 N 0.87617 0.19138 0.65936 0.0
N719 N 0.70474 0.32307 0.64864 0.0
H720 H 0.71047 0.19612 0.69168 0.0
H721 H 0.67993 0.26107 0.68213 0.0
H722 H 0.7018 0.35845 0.63751 0.0
H723 H 0.67102 0.30574 0.65371 0.0
H724 H 0.9064 0.19731 0.64956 0.0
H725 H 0.87812 0.15185 0.66889 0.0
H726 H 0.91313 0.29186 0.64209 0.0
H727 H 0.87998 0.34938 0.6293 0.0
C728 C 0.22637 0.28879 0.89623 0.0
C729 C 0.24415 0.29462 0.91688 0.0
C730 C 0.32818 0.28213 0.90368 0.0
C731 C 0.31027 0.27228 0.88322 0.0
N732 N 0.24225 0.25641 0.86031 0.0
N733 N 0.31047 0.28604 0.94093 0.0
C734 C 0.25923 0.27302 0.87956 0.0
C735 C 0.29475 0.28814 0.92077 0.0
N736 N 0.17827 0.30015 0.89256 0.0
N737 N 0.37737 0.28756 0.90659 0.0
H738 H 0.28656 0.28908 0.95367 0.0
H739 H 0.34616 0.27569 0.94507 0.0
H740 H 0.40244 0.2842 0.89428 0.0
H741 H 0.39307 0.30066 0.92073 0.0
H742 H 0.16353 0.30309 0.87766 0.0
H743 H 0.15361 0.31065 0.90456 0.0
H744 H 0.2054 0.24996 0.857 0.0
H745 H 0.26553 0.24452 0.84798 0.0
C746 C 0.30077 0.69419 0.1422 0.0
C747 C 0.29387 0.72034 0.16251 0.0
C748 C 0.29972 0.82641 0.14756 0.0
C749 C 0.3122 0.80068 0.12774 0.0
N750 N 0.32817 0.71019 0.10625 0.0
N751 N 0.29759 0.81187 0.18494 0.0
C752 C 0.31346 0.73447 0.12503 0.0
C753 C 0.29605 0.7866 0.16528 0.0
N754 N 0.29391 0.63116 0.13925 0.0
N755 N 0.29013 0.88913 0.14945 0.0
H756 H 0.29689 0.78488 0.19846 0.0
H757 H 0.30486 0.8592 0.18786 0.0
H758 H 0.29179 0.92016 0.13689 0.0
H759 H 0.27552 0.90918 0.16297 0.0
H760 H 0.29356 0.60972 0.12461 0.0
H761 H 0.28485 0.60072 0.15145 0.0
H762 H 0.33508 0.66275 0.10376 0.0
H763 H 0.33637 0.73842 0.09337 0.0
C764 C 0.73448 0.7317 0.94363 0.0
C765 C 0.78527 0.72932 0.93931 0.0
C766 C 0.77006 0.75672 0.90266 0.0
C767 C 0.71905 0.75422 0.90663 0.0
N768 N 0.65182 0.73436 0.92999 0.0
N769 N 0.85188 0.73343 0.91479 0.0
C770 C 0.70105 0.74053 0.92694 0.0
C771 C 0.8032 0.74043 0.91881 0.0
N772 N 0.71863 0.72604 0.96383 0.0
N773 N 0.7866 0.77654 0.88359 0.0
H774 H 0.8768 0.72333 0.92652 0.0
H775 H 0.86717 0.73421 0.89985 0.0
H776 H 0.76303 0.78809 0.87151 0.0
H777 H 0.8232 0.78547 0.88013 0.0
H778 H 0.68261 0.73237 0.96861 0.0
H779 H 0.74259 0.71935 0.97618 0.0
H780 H 0.63573 0.71922 0.94389 0.0
H781 H 0.6269 0.74036 0.91795 0.0
C782 C 0.79778 0.19016 0.16606 0.0
C783 C 0.75254 0.18568 0.15539 0.0
C784 C 0.72389 0.28096 0.17366 0.0
C785 C 0.76974 0.28659 0.18365 0.0
N786 N 0.84661 0.24204 0.1929 0.0
N787 N 0.66968 0.22149 0.15103 0.0
C788 C 0.80546 0.23943 0.18098 0.0
C789 C 0.71451 0.229 0.16003 0.0
N790 N 0.83368 0.14788 0.16157 0.0
N791 N 0.69041 0.32767 0.17627 0.0
H792 H 0.66224 0.18856 0.13941 0.0
H793 H 0.63874 0.24601 0.15566 0.0
H794 H 0.69516 0.36435 0.18693 0.0
H795 H 0.65889 0.33195 0.16747 0.0
H796 H 0.86932 0.15168 0.16693 0.0
H797 H 0.82823 0.10932 0.15173 0.0
H798 H 0.87304 0.20735 0.19312 0.0
H799 H 0.85254 0.27743 0.20396 0.0
C800 C 0.07877 0.97704 0.32605 0.0
C801 C 0.02898 0.97494 0.31988 0.0
C802 C 0.0352 0.0861 0.30958 0.0
C803 C 0.08194 0.09026 0.31894 0.0
N804 N 0.14891 0.04071 0.33615 0.0
N805 N 0.95902 1.02747 0.30595 0.0
C806 C 0.10423 0.03574 0.32691 0.0
C807 C 1.00722 0.0292 0.31127 0.0
N808 N 0.10184 0.92247 0.33089 0.0
N809 N 1.01763 0.13689 0.29915 0.0
H810 H 0.9378 0.98659 0.30666 0.0
H811 H 0.93921 0.06701 0.30192 0.0
H812 H 0.03731 0.17894 0.29782 0.0
H813 H 0.98586 0.13587 0.29036 0.0
H814 H 0.1392 0.91937 0.33347 0.0
H815 H 0.08421 0.87896 0.33048 0.0
H816 H 0.16468 1.00483 0.34469 0.0
H817 H 0.16941 0.08229 0.33614 0.0
C818 C 0.9761 0.92305 0.68752 0.0
C819 C 0.94135 0.95036 0.70129 0.0
C820 C 1.00664 0.97455 0.72598 0.0
C821 C 0.04019 0.93986 0.71369 0.0
N822 N 0.05404 0.8705 0.68438 0.0
N823 N 0.92226 0.98432 0.73643 0.0
C824 C 0.02429 0.91129 0.69479 0.0
C825 C 0.95624 0.97119 0.72134 0.0
N826 N 0.96339 0.90965 0.66742 0.0
N827 N 0.02308 1.0121 0.7418 0.0
H828 H 0.88498 0.97664 0.73429 0.0
H829 H 0.93157 0.99497 0.75181 0.0
H830 H 0.06019 1.01854 0.74478 0.0
H831 H 1.00032 0.0422 0.75018 0.0
H832 H 0.98843 0.89506 0.6561 0.0
H833 H 0.92864 0.91859 0.66167 0.0
H834 H 0.04267 0.84406 0.67155 0.0
H835 H 0.08846 0.85847 0.68977 0.0
C836 C 1.00342 0.46288 0.99251 0.0
C837 C 0.0487 0.44713 1.00167 0.0
C838 C 0.03566 0.53385 0.0267 0.0
C839 C 0.99694 0.55734 1.01431 0.0
N840 N 0.95666 0.55034 0.98077 0.0
N841 N 0.11124 0.47563 0.02661 0.0
C842 C 0.98381 0.52335 0.99601 0.0
C843 C 0.06571 0.48441 1.01871 0.0
N844 N 0.97861 0.4202 0.98056 0.0
N845 N 0.04337 0.55774 0.04623 0.0
H846 H 0.13533 0.44215 1.02085 0.0
H847 H 0.1268 0.50591 0.03758 0.0
H848 H 1.02077 0.59151 0.05297 0.0
H849 H 0.06851 0.53878 0.05652 0.0
H850 H 0.94398 0.42918 0.97468 0.0
H851 H 0.9897 0.37366 0.97894 0.0
H852 H 0.94913 0.52768 0.96666 0.0
H853 H 0.94851 0.59796 0.98074 0.0
C854 C 0.4865 0.05532 0.1189 0.0
C855 C 0.45202 0.07037 0.1034 0.0
C856 C 0.51759 0.11358 0.08128 0.0
C857 C 0.55154 0.10367 0.09748 0.0
N858 N 0.56724 0.07481 0.13308 0.0
N859 N 0.43256 0.12437 0.07176 0.0
C860 C 0.53576 0.07689 0.11669 0.0
C861 C 0.46702 0.10249 0.08509 0.0
N862 N 0.47216 1.01933 0.13549 0.0
N863 N 0.53412 0.13199 0.06205 0.0
H864 H 0.39525 0.11895 0.07473 0.0
H865 H 0.44065 0.15301 0.05902 0.0
H866 H 0.57115 0.1389 0.05874 0.0
H867 H 0.51186 0.1346 0.04898 0.0
H868 H 0.49636 1.00124 0.14633 0.0
H869 H 0.43617 1.00382 0.13751 0.0
H870 H 0.55676 0.06153 0.14811 0.0
H871 H 0.6031 0.09141 0.13204 0.0
C872 C 0.48213 0.50542 0.81457 0.0
C873 C 0.4983 0.45236 0.82598 0.0
C874 C 0.56457 0.51801 0.84086 0.0
C875 C 0.54853 0.57022 0.82925 0.0
N876 N 0.50422 0.60636 0.79955 0.0
N877 N 0.56595 0.40461 0.8438 0.0
C878 C 0.51127 0.56139 0.81429 0.0
C879 C 0.54294 0.45758 0.83728 0.0
N880 N 0.43756 0.50464 0.80517 0.0
N881 N 0.59951 0.52627 0.85572 0.0
H882 H 0.55342 0.35952 0.84012 0.0
H883 H 0.60041 0.40533 0.85056 0.0
H884 H 0.61736 0.56921 0.8581 0.0
H885 H 0.60859 0.49156 0.8664 0.0
H886 H 0.42237 0.54443 0.7985 0.0
H887 H 0.41354 0.4665 0.80582 0.0
H888 H 0.4811 0.59981 0.78686 0.0
H889 H 0.52561 0.64719 0.79887 0.0
C890 C 0.5981 0.54797 0.22569 0.0
C891 C 0.61866 0.55608 0.20532 0.0
C892 C 0.54144 0.6021 0.1938 0.0
C893 C 0.52057 0.59038 0.21374 0.0
N894 N 0.52422 0.53625 0.24647 0.0
N895 N 0.60545 0.5762 0.16886 0.0
C896 C 0.54747 0.55806 0.22895 0.0
C897 C 0.58886 0.57875 0.189 0.0
N898 N 0.62705 0.53488 0.2423 0.0
N899 N 0.51683 0.63773 0.17978 0.0
H900 H 0.63917 0.557 0.16485 0.0
H901 H 0.5839 0.58697 0.15606 0.0
H902 H 0.48234 0.65592 0.18296 0.0
H903 H 0.53221 0.65332 0.16576 0.0
H904 H 0.61446 0.53538 0.25771 0.0
H905 H 0.66454 0.52999 0.24111 0.0
H906 H 0.54081 0.50694 0.25724 0.0
H907 H 0.48682 0.5419 0.24899 0.0
C908 C 0.5644 0.09739 0.49914 0.0
C909 C 0.51238 0.09958 0.49849 0.0
C910 C 0.51076 0.98535 0.5041 0.0
C911 C 0.5613 0.98213 0.49942 0.0
N912 N 0.6372 0.03614 0.49234 0.0
N913 N 0.43564 0.04203 0.49938 0.0
C914 C 0.58861 0.03854 0.4972 0.0
C915 C 0.48528 0.04274 0.50114 0.0
N916 N 0.59065 0.1515 0.50217 0.0
N917 N 0.48727 0.93347 0.51171 0.0
H918 H 0.41517 0.082 0.49664 0.0
H919 H 0.4151 1.00057 0.49892 0.0
H920 H 0.50547 0.89138 0.51428 0.0
H921 H 0.45176 0.93474 0.51766 0.0
H922 H 0.62825 0.15226 0.50449 0.0
H923 H 0.57404 0.19474 0.50482 0.0
H924 H 0.65772 0.07555 0.48804 0.0
H925 H 0.65629 0.99405 0.49145 0.0
C926 C 0.95986 0.55307 0.58511 0.0
C927 C 0.94633 0.58014 0.60462 0.0
C928 C 0.02751 0.63027 0.60636 0.0
C929 C 0.04258 0.59644 0.58825 0.0
N930 N 0.0262 0.51102 0.56447 0.0
N931 N 0.97121 0.63471 0.63582 0.0
C932 C 1.00967 0.55316 0.57894 0.0
C933 C 0.98143 0.61582 0.61589 0.0
N934 N 0.92507 0.53094 0.57176 0.0
N935 N 0.05572 0.67835 0.61381 0.0
H936 H 0.93838 0.62337 0.64335 0.0
H937 H 0.99702 0.65609 0.64545 0.0
H938 H 0.08823 0.69226 0.6066 0.0
H939 H 0.04437 0.70827 0.62578 0.0
H940 H 0.93329 0.51539 0.55668 0.0
H941 H 0.88781 0.53579 0.57463 0.0
H942 H 1.00418 0.47527 0.55839 0.0
H943 H 0.06312 0.50724 0.56057 0.0
loop_
_geom_bond_atom_site_label_1
_geom_bond_atom_site_label_2
_geom_bond_distance
_geom_bond_site_symmetry_2
_ccdc_geom_bond_type
Cu0 N1 1.999 . S
Cu0 O6 1.974 . S
Cu0 N11 1.985 . S
Cu0 O20 1.959 . S
N1 Cu0 1.999 . S
N1 C3 1.263 . S
N1 C5 1.389 1_455 S
N2 C3 1.358 1_655 S
N2 C4 1.400 . S
C3 N1 1.263 . S
C3 N2 1.358 1_455 S
C3 H9 0.930 . S
C4 N2 1.400 . S
C4 C5 1.351 . S
C4 H21 0.930 . S
C5 N1 1.389 1_655 S
C5 C4 1.351 . S
C5 H10 0.930 . S
O6 Cu0 1.974 . S
O6 C16 1.282 . S
C7 O8 1.261 . S
C7 O20 1.251 . S
O8 C7 1.261 . S
H9 C3 0.930 . S
H10 C5 0.930 . S
N11 Cu0 1.985 . S
N11 C13 1.335 . S
N11 C14 1.390 . S
N12 C13 1.345 . S
N12 C15 1.336 . S
C13 N11 1.335 . S
C13 N12 1.345 . S
C13 H18 0.930 . S
C14 N11 1.390 . S
C14 C15 1.346 . S
C14 H19 0.930 . S
C15 N12 1.336 . S
C15 C14 1.346 . S
C15 H22 0.929 . S
C16 O6 1.282 . S
C16 O17 1.216 . S
O17 C16 1.216 . S
H18 C13 0.930 . S
H19 C14 0.930 . S
O20 Cu0 1.959 . S
O20 C7 1.251 . S
H21 C4 0.930 . S
H22 C15 0.929 . S
Cu23 N24 1.999 . S
Cu23 O29 1.974 . S
Cu23 N34 1.985 . S
Cu23 O43 1.959 . S
N24 Cu23 1.999 . S
N24 C26 1.263 . S
N24 C28 1.389 . S
N25 C26 1.358 . S
N25 C27 1.400 1_565 S
C26 N24 1.263 . S
C26 N25 1.358 . S
C26 H32 0.930 . S
C27 N25 1.400 1_545 S
C27 C28 1.351 1_545 S
C27 H44 0.930 . S
C28 N24 1.389 . S
C28 C27 1.351 1_565 S
C28 H33 0.927 1_565 S
O29 Cu23 1.974 . S
O29 C39 1.282 . S
C30 O31 1.261 . S
C30 O43 1.251 1_545 S
O31 C30 1.261 . S
H32 C26 0.930 . S
H33 C28 0.927 1_545 S
N34 Cu23 1.985 . S
N34 C36 1.335 . S
N34 C37 1.390 . S
N35 C36 1.345 . S
N35 C38 1.336 . S
C36 N34 1.335 . S
C36 N35 1.345 . S
C36 H41 0.930 . S
C37 N34 1.390 . S
C37 C38 1.346 . S
C37 H42 0.930 . S
C38 N35 1.336 . S
C38 C37 1.346 . S
C38 H45 0.929 . S
C39 O29 1.282 . S
C39 O40 1.216 . S
O40 C39 1.216 . S
H41 C36 0.930 . S
H42 C37 0.930 . S
O43 Cu23 1.959 . S
O43 C30 1.251 1_565 S
H44 C27 0.930 . S
H45 C38 0.929 . S
Cu46 N47 1.999 . S
Cu46 O52 1.974 . S
Cu46 N57 1.985 . S
Cu46 O66 1.959 . S
N47 Cu46 1.999 . S
N47 C49 1.263 . S
N47 C51 1.389 1_655 S
N48 C49 1.358 1_455 S
N48 C50 1.400 . S
C49 N47 1.263 . S
C49 N48 1.358 1_655 S
C49 H55 0.930 . S
C50 N48 1.400 . S
C50 C51 1.351 . S
C50 H67 0.930 . S
C51 N47 1.389 1_455 S
C51 C50 1.351 . S
C51 H56 0.930 . S
O52 Cu46 1.974 . S
O52 C62 1.282 . S
C53 O54 1.261 . S
C53 O66 1.251 . S
O54 C53 1.261 . S
H55 C49 0.930 . S
H56 C51 0.930 . S
N57 Cu46 1.985 . S
N57 C59 1.335 . S
N57 C60 1.390 . S
N58 C59 1.345 . S
N58 C61 1.336 . S
C59 N57 1.335 . S
C59 N58 1.345 . S
C59 H64 0.930 . S
C60 N57 1.390 . S
C60 C61 1.346 . S
C60 H65 0.930 . S
C61 N58 1.336 . S
C61 C60 1.346 . S
C61 H68 0.929 . S
C62 O52 1.282 . S
C62 O63 1.216 . S
O63 C62 1.216 . S
H64 C59 0.930 . S
H65 C60 0.930 . S
O66 Cu46 1.959 . S
O66 C53 1.251 . S
H67 C50 0.930 . S
H68 C61 0.929 . S
Cu69 N70 1.999 . S
Cu69 O75 1.974 . S
Cu69 N80 1.985 . S
Cu69 O89 1.959 . S
N70 Cu69 1.999 . S
N70 C72 1.263 . S
N70 C74 1.389 . S
N71 C72 1.358 . S
N71 C73 1.400 1_545 S
C72 N70 1.263 . S
C72 N71 1.358 . S
C72 H78 0.930 . S
C73 N71 1.400 1_565 S
C73 C74 1.351 1_565 S
C73 H90 0.930 . S
C74 N70 1.389 . S
C74 C73 1.351 1_545 S
C74 H79 0.927 1_545 S
O75 Cu69 1.974 . S
O75 C85 1.282 . S
C76 O77 1.261 . S
C76 O89 1.251 1_565 S
O77 C76 1.261 . S
H78 C72 0.930 . S
H79 C74 0.927 1_565 S
N80 Cu69 1.985 . S
N80 C82 1.335 . S
N80 C83 1.390 . S
N81 C82 1.345 . S
N81 C84 1.336 . S
C82 N80 1.335 . S
C82 N81 1.345 . S
C82 H87 0.930 . S
C83 N80 1.390 . S
C83 C84 1.346 . S
C83 H88 0.930 . S
C84 N81 1.336 . S
C84 C83 1.346 . S
C84 H91 0.929 . S
C85 O75 1.282 . S
C85 O86 1.216 . S
O86 C85 1.216 . S
H87 C82 0.930 . S
H88 C83 0.930 . S
O89 Cu69 1.959 . S
O89 C76 1.251 1_545 S
H90 C73 0.930 . S
H91 C84 0.929 . S
Cu92 N93 1.999 . S
Cu92 O98 1.974 . S
Cu92 N103 1.985 . S
Cu92 O112 1.959 . S
N93 Cu92 1.999 . S
N93 C95 1.263 . S
N93 C97 1.389 1_455 S
N94 C95 1.358 1_655 S
N94 C96 1.400 . S
C95 N93 1.263 . S
C95 N94 1.358 1_455 S
C95 H101 0.930 . S
C96 N94 1.400 . S
C96 C97 1.351 . S
C96 H113 0.930 . S
C97 N93 1.389 1_655 S
C97 C96 1.351 . S
C97 H102 0.930 . S
O98 Cu92 1.974 . S
O98 C108 1.282 . S
C99 O100 1.261 . S
C99 O112 1.251 . S
O100 C99 1.261 . S
H101 C95 0.930 . S
H102 C97 0.930 . S
N103 Cu92 1.985 . S
N103 C105 1.335 . S
N103 C106 1.390 . S
N104 C105 1.345 . S
N104 C107 1.336 . S
C105 N103 1.335 . S
C105 N104 1.345 . S
C105 H110 0.930 . S
C106 N103 1.390 . S
C106 C107 1.346 . S
C106 H111 0.930 . S
C107 N104 1.336 . S
C107 C106 1.346 . S
C107 H114 0.929 . S
C108 O98 1.282 . S
C108 O109 1.216 . S
O109 C108 1.216 . S
H110 C105 0.930 . S
H111 C106 0.930 . S
O112 Cu92 1.959 . S
O112 C99 1.251 . S
H113 C96 0.930 . S
H114 C107 0.929 . S
Cu115 N116 1.999 . S
Cu115 O121 1.974 . S
Cu115 N126 1.985 . S
Cu115 O135 1.959 . S
N116 Cu115 1.999 . S
N116 C118 1.263 . S
N116 C120 1.389 . S
N117 C118 1.358 . S
N117 C119 1.400 1_565 S
C118 N116 1.263 . S
C118 N117 1.358 . S
C118 H124 0.930 . S
C119 N117 1.400 1_545 S
C119 C120 1.351 1_545 S
C119 H136 0.930 . S
C120 N116 1.389 . S
C120 C119 1.351 1_565 S
C120 H125 0.927 1_565 S
O121 Cu115 1.974 . S
O121 C131 1.282 . S
C122 O123 1.261 . S
C122 O135 1.251 1_545 S
O123 C122 1.261 . S
H124 C118 0.930 . S
H125 C120 0.927 1_545 S
N126 Cu115 1.985 . S
N126 C128 1.335 . S
N126 C129 1.390 . S
N127 C128 1.345 . S
N127 C130 1.336 . S
C128 N126 1.335 . S
C128 N127 1.345 . S
C128 H133 0.930 . S
C129 N126 1.390 . S
C129 C130 1.346 . S
C129 H134 0.930 . S
C130 N127 1.336 . S
C130 C129 1.346 . S
C130 H137 0.929 . S
C131 O121 1.282 . S
C131 O132 1.216 . S
O132 C131 1.216 . S
H133 C128 0.930 . S
H134 C129 0.930 . S
O135 Cu115 1.959 . S
O135 C122 1.251 1_565 S
H136 C119 0.930 . S
H137 C130 0.929 . S
Cu138 N139 1.999 . S
Cu138 O144 1.974 . S
Cu138 N149 1.985 . S
Cu138 O158 1.959 . S
N139 Cu138 1.999 . S
N139 C141 1.263 . S
N139 C143 1.389 1_655 S
N140 C141 1.358 1_455 S
N140 C142 1.400 . S
C141 N139 1.263 . S
C141 N140 1.358 1_655 S
C141 H147 0.930 . S
C142 N140 1.400 . S
C142 C143 1.351 . S
C142 H159 0.930 . S
C143 N139 1.389 1_455 S
C143 C142 1.351 . S
C143 H148 0.930 . S
O144 Cu138 1.974 . S
O144 C154 1.282 . S
C145 O146 1.261 . S
C145 O158 1.251 . S
O146 C145 1.261 . S
H147 C141 0.930 . S
H148 C143 0.930 . S
N149 Cu138 1.985 . S
N149 C151 1.335 . S
N149 C152 1.390 . S
N150 C151 1.345 . S
N150 C153 1.336 . S
C151 N149 1.335 . S
C151 N150 1.345 . S
C151 H156 0.930 . S
C152 N149 1.390 . S
C152 C153 1.346 . S
C152 H157 0.930 . S
C153 N150 1.336 . S
C153 C152 1.346 . S
C153 H160 0.929 . S
C154 O144 1.282 . S
C154 O155 1.216 . S
O155 C154 1.216 . S
H156 C151 0.930 . S
H157 C152 0.930 . S
O158 Cu138 1.959 . S
O158 C145 1.251 . S
H159 C142 0.930 . S
H160 C153 0.929 . S
Cu161 N162 1.999 . S
Cu161 O167 1.974 . S
Cu161 N172 1.985 . S
Cu161 O181 1.959 . S
N162 Cu161 1.999 . S
N162 C164 1.263 . S
N162 C166 1.389 . S
N163 C164 1.358 . S
N163 C165 1.400 1_545 S
C164 N162 1.263 . S
C164 N163 1.358 . S
C164 H170 0.930 . S
C165 N163 1.400 1_565 S
C165 C166 1.351 1_565 S
C165 H182 0.930 . S
C166 N162 1.389 . S
C166 C165 1.351 1_545 S
C166 H171 0.927 1_545 S
O167 Cu161 1.974 . S
O167 C177 1.282 . S
C168 O169 1.261 . S
C168 O181 1.251 1_565 S
O169 C168 1.261 . S
H170 C164 0.930 . S
H171 C166 0.927 1_565 S
N172 Cu161 1.985 . S
N172 C174 1.335 . S
N172 C175 1.390 . S
N173 C174 1.345 . S
N173 C176 1.336 . S
C174 N172 1.335 . S
C174 N173 1.345 . S
C174 H179 0.930 . S
C175 N172 1.390 . S
C175 C176 1.346 . S
C175 H180 0.930 . S
C176 N173 1.336 . S
C176 C175 1.346 . S
C176 H183 0.929 . S
C177 O167 1.282 . S
C177 O178 1.216 . S
O178 C177 1.216 . S
H179 C174 0.930 . S
H180 C175 0.930 . S
O181 Cu161 1.959 . S
O181 C168 1.251 1_545 S
H182 C165 0.930 . S
H183 C176 0.929 . S
Cu184 N185 1.999 . S
Cu184 O190 1.974 . S
Cu184 N195 1.985 . S
Cu184 O204 1.959 . S
N185 Cu184 1.999 . S
N185 C187 1.263 . S
N185 C189 1.389 . S
N186 C187 1.358 . S
N186 C188 1.400 . S
C187 N185 1.263 . S
C187 N186 1.358 . S
C187 H193 0.930 . S
C188 N186 1.400 . S
C188 C189 1.351 . S
C188 H205 0.930 . S
C189 N185 1.389 . S
C189 C188 1.351 . S
C189 H194 0.930 . S
O190 Cu184 1.974 . S
O190 C200 1.282 . S
C191 O192 1.261 . S
C191 O204 1.251 . S
O192 C191 1.261 . S
H193 C187 0.930 . S
H194 C189 0.930 . S
N195 Cu184 1.985 . S
N195 C197 1.335 . S
N195 C198 1.390 . S
N196 C197 1.345 . S
N196 C199 1.336 . S
C197 N195 1.335 . S
C197 N196 1.345 . S
C197 H202 0.930 . S
C198 N195 1.390 . S
C198 C199 1.346 . S
C198 H203 0.930 . S
C199 N196 1.336 . S
C199 C198 1.346 . S
C199 H206 0.929 . S
C200 O190 1.282 . S
C200 O201 1.216 . S
O201 C200 1.216 . S
H202 C197 0.930 . S
H203 C198 0.930 . S
O204 Cu184 1.959 . S
O204 C191 1.251 . S
H205 C188 0.930 . S
H206 C199 0.929 . S
Cu207 N208 1.999 . S
Cu207 O213 1.974 . S
Cu207 N218 1.985 . S
Cu207 O227 1.959 . S
N208 Cu207 1.999 . S
N208 C210 1.263 . S
N208 C212 1.389 . S
N209 C210 1.358 . S
N209 C211 1.400 . S
C210 N208 1.263 . S
C210 N209 1.358 . S
C210 H216 0.930 . S
C211 N209 1.400 . S
C211 C212 1.351 . S
C211 H228 0.930 . S
C212 N208 1.389 . S
C212 C211 1.351 . S
C212 H217 0.930 . S
O213 Cu207 1.974 . S
O213 C223 1.282 . S
C214 O215 1.261 . S
C214 O227 1.251 . S
O215 C214 1.261 . S
H216 C210 0.930 . S
H217 C212 0.930 . S
N218 Cu207 1.985 . S
N218 C220 1.335 . S
N218 C221 1.390 . S
N219 C220 1.345 . S
N219 C222 1.336 . S
C220 N218 1.335 . S
C220 N219 1.345 . S
C220 H225 0.930 . S
C221 N218 1.390 . S
C221 C222 1.346 . S
C221 H226 0.930 . S
C222 N219 1.336 . S
C222 C221 1.346 . S
C222 H229 0.929 . S
C223 O213 1.282 . S
C223 O224 1.216 . S
O224 C223 1.216 . S
H225 C220 0.930 . S
H226 C221 0.930 . S
O227 Cu207 1.959 . S
O227 C214 1.251 . S
H228 C211 0.930 . S
H229 C222 0.929 . S
Cu230 N231 1.999 . S
Cu230 O236 1.974 . S
Cu230 N241 1.985 . S
Cu230 O250 1.959 . S
N231 Cu230 1.999 . S
N231 C233 1.263 . S
N231 C235 1.389 . S
N232 C233 1.358 . S
N232 C234 1.400 . S
C233 N231 1.263 . S
C233 N232 1.358 . S
C233 H239 0.930 . S
C234 N232 1.400 . S
C234 C235 1.351 . S
C234 H251 0.930 . S
C235 N231 1.389 . S
C235 C234 1.351 . S
C235 H240 0.930 . S
O236 Cu230 1.974 . S
O236 C246 1.282 . S
C237 O238 1.261 . S
C237 O250 1.251 . S
O238 C237 1.261 . S
H239 C233 0.930 . S
H240 C235 0.930 . S
N241 Cu230 1.985 . S
N241 C243 1.335 . S
N241 C244 1.390 . S
N242 C243 1.345 . S
N242 C245 1.336 . S
C243 N241 1.335 . S
C243 N242 1.345 . S
C243 H248 0.930 . S
C244 N241 1.390 . S
C244 C245 1.346 . S
C244 H249 0.930 . S
C245 N242 1.336 . S
C245 C244 1.346 . S
C245 H252 0.929 . S
C246 O236 1.282 . S
C246 O247 1.216 . S
O247 C246 1.216 . S
H248 C243 0.930 . S
H249 C244 0.930 . S
O250 Cu230 1.959 . S
O250 C237 1.251 . S
H251 C234 0.930 . S
H252 C245 0.929 . S
Cu253 N254 1.999 . S
Cu253 O259 1.974 . S
Cu253 N264 1.985 . S
Cu253 O273 1.959 . S
N254 Cu253 1.999 . S
N254 C256 1.263 . S
N254 C258 1.389 . S
N255 C256 1.358 . S
N255 C257 1.400 . S
C256 N254 1.263 . S
C256 N255 1.358 . S
C256 H262 0.930 . S
C257 N255 1.400 . S
C257 C258 1.351 . S
C257 H274 0.930 . S
C258 N254 1.389 . S
C258 C257 1.351 . S
C258 H263 0.930 . S
O259 Cu253 1.974 . S
O259 C269 1.282 . S
C260 O261 1.261 . S
C260 O273 1.251 . S
O261 C260 1.261 . S
H262 C256 0.930 . S
H263 C258 0.930 . S
N264 Cu253 1.985 . S
N264 C266 1.335 . S
N264 C267 1.390 . S
N265 C266 1.345 . S
N265 C268 1.336 . S
C266 N264 1.335 . S
C266 N265 1.345 . S
C266 H271 0.930 . S
C267 N264 1.390 . S
C267 C268 1.346 . S
C267 H272 0.930 . S
C268 N265 1.336 . S
C268 C267 1.346 . S
C268 H275 0.929 . S
C269 O259 1.282 . S
C269 O270 1.216 . S
O270 C269 1.216 . S
H271 C266 0.930 . S
H272 C267 0.930 . S
O273 Cu253 1.959 . S
O273 C260 1.251 . S
H274 C257 0.930 . S
H275 C268 0.929 . S
Cu276 N277 1.999 . S
Cu276 O282 1.974 . S
Cu276 N287 1.985 . S
Cu276 O296 1.959 . S
N277 Cu276 1.999 . S
N277 C279 1.263 . S
N277 C281 1.389 . S
N278 C279 1.358 . S
N278 C280 1.400 . S
C279 N277 1.263 . S
C279 N278 1.358 . S
C279 H285 0.930 . S
C280 N278 1.400 . S
C280 C281 1.351 . S
C280 H297 0.930 . S
C281 N277 1.389 . S
C281 C280 1.351 . S
C281 H286 0.930 . S
O282 Cu276 1.974 . S
O282 C292 1.282 . S
C283 O284 1.261 . S
C283 O296 1.251 . S
O284 C283 1.261 . S
H285 C279 0.930 . S
H286 C281 0.930 . S
N287 Cu276 1.985 . S
N287 C289 1.335 . S
N287 C290 1.390 . S
N288 C289 1.345 . S
N288 C291 1.336 . S
C289 N287 1.335 . S
C289 N288 1.345 . S
C289 H294 0.930 . S
C290 N287 1.390 . S
C290 C291 1.346 . S
C290 H295 0.930 . S
C291 N288 1.336 . S
C291 C290 1.346 . S
C291 H298 0.929 . S
C292 O282 1.282 . S
C292 O293 1.216 . S
O293 C292 1.216 . S
H294 C289 0.930 . S
H295 C290 0.930 . S
O296 Cu276 1.959 . S
O296 C283 1.251 . S
H297 C280 0.930 . S
H298 C291 0.929 . S
Cu299 N300 1.999 . S
Cu299 O305 1.974 . S
Cu299 N310 1.985 . S
Cu299 O319 1.959 . S
N300 Cu299 1.999 . S
N300 C302 1.263 . S
N300 C304 1.389 . S
N301 C302 1.358 . S
N301 C303 1.400 . S
C302 N300 1.263 . S
C302 N301 1.358 . S
C302 H308 0.930 . S
C303 N301 1.400 . S
C303 C304 1.351 . S
C303 H320 0.930 . S
C304 N300 1.389 . S
C304 C303 1.351 . S
C304 H309 0.930 . S
O305 Cu299 1.974 . S
O305 C315 1.282 . S
C306 O307 1.261 . S
C306 O319 1.251 . S
O307 C306 1.261 . S
H308 C302 0.930 . S
H309 C304 0.930 . S
N310 Cu299 1.985 . S
N310 C312 1.335 . S
N310 C313 1.390 . S
N311 C312 1.345 . S
N311 C314 1.336 . S
C312 N310 1.335 . S
C312 N311 1.345 . S
C312 H317 0.930 . S
C313 N310 1.390 . S
C313 C314 1.346 . S
C313 H318 0.930 . S
C314 N311 1.336 . S
C314 C313 1.346 . S
C314 H321 0.929 . S
C315 O305 1.282 . S
C315 O316 1.216 . S
O316 C315 1.216 . S
H317 C312 0.930 . S
H318 C313 0.930 . S
O319 Cu299 1.959 . S
O319 C306 1.251 . S
H320 C303 0.930 . S
H321 C314 0.929 . S
Cu322 N323 1.999 . S
Cu322 O328 1.974 . S
Cu322 N333 1.985 . S
Cu322 O342 1.959 . S
N323 Cu322 1.999 . S
N323 C325 1.263 . S
N323 C327 1.389 . S
N324 C325 1.358 . S
N324 C326 1.400 . S
C325 N323 1.263 . S
C325 N324 1.358 . S
C325 H331 0.930 . S
C326 N324 1.400 . S
C326 C327 1.351 . S
C326 H343 0.930 . S
C327 N323 1.389 . S
C327 C326 1.351 . S
C327 H332 0.930 . S
O328 Cu322 1.974 . S
O328 C338 1.282 . S
C329 O330 1.261 . S
C329 O342 1.251 . S
O330 C329 1.261 . S
H331 C325 0.930 . S
H332 C327 0.930 . S
N333 Cu322 1.985 . S
N333 C335 1.335 . S
N333 C336 1.390 . S
N334 C335 1.345 . S
N334 C337 1.336 . S
C335 N333 1.335 . S
C335 N334 1.345 . S
C335 H340 0.930 . S
C336 N333 1.390 . S
C336 C337 1.346 . S
C336 H341 0.930 . S
C337 N334 1.336 . S
C337 C336 1.346 . S
C337 H344 0.929 . S
C338 O328 1.282 . S
C338 O339 1.216 . S
O339 C338 1.216 . S
H340 C335 0.930 . S
H341 C336 0.930 . S
O342 Cu322 1.959 . S
O342 C329 1.251 . S
H343 C326 0.930 . S
H344 C337 0.929 . S
Cu345 N346 1.999 . S
Cu345 O351 1.974 . S
Cu345 N356 1.985 . S
Cu345 O365 1.959 . S
N346 Cu345 1.999 . S
N346 C348 1.263 . S
N346 C350 1.389 . S
N347 C348 1.358 . S
N347 C349 1.400 . S
C348 N346 1.263 . S
C348 N347 1.358 . S
C348 H354 0.930 . S
C349 N347 1.400 . S
C349 C350 1.351 . S
C349 H366 0.930 . S
C350 N346 1.389 . S
C350 C349 1.351 . S
C350 H355 0.930 . S
O351 Cu345 1.974 . S
O351 C361 1.282 . S
C352 O353 1.261 . S
C352 O365 1.251 . S
O353 C352 1.261 . S
H354 C348 0.930 . S
H355 C350 0.930 . S
N356 Cu345 1.985 . S
N356 C358 1.335 . S
N356 C359 1.390 . S
N357 C358 1.345 . S
N357 C360 1.336 . S
C358 N356 1.335 . S
C358 N357 1.345 . S
C358 H363 0.930 . S
C359 N356 1.390 . S
C359 C360 1.346 . S
C359 H364 0.930 . S
C360 N357 1.336 . S
C360 C359 1.346 . S
C360 H367 0.929 . S
C361 O351 1.282 . S
C361 O362 1.216 . S
O362 C361 1.216 . S
H363 C358 0.930 . S
H364 C359 0.930 . S
O365 Cu345 1.959 . S
O365 C352 1.251 . S
H366 C349 0.930 . S
H367 C360 0.929 . S
C368 C369 1.363 . S
C368 C374 1.379 . S
C368 N376 1.356 . S
C369 C368 1.363 . S
C369 C375 1.363 . S
C370 C371 1.363 . S
C370 C375 1.379 . S
C370 N377 1.356 . S
C371 C370 1.363 . S
C371 C374 1.363 . S
N372 C374 1.356 . S
N372 H384 0.984 . S
N372 H385 0.985 . S
N373 C375 1.356 . S
N373 H378 0.984 . S
N373 H379 0.985 . S
C374 C368 1.379 . S
C374 C371 1.363 . S
C374 N372 1.356 . S
C375 C369 1.363 . S
C375 C370 1.379 . S
C375 N373 1.356 . S
N376 C368 1.356 . S
N376 H382 0.984 . S
N376 H383 0.984 . S
N377 C370 1.356 . S
N377 H380 0.984 . S
N377 H381 0.985 . S
H378 N373 0.984 . S
H379 N373 0.985 . S
H380 N377 0.984 . S
H381 N377 0.985 . S
H382 N376 0.984 . S
H383 N376 0.984 . S
H384 N372 0.984 . S
H385 N372 0.985 . S
C386 C387 1.363 . S
C386 C392 1.379 . S
C386 N394 1.356 . S
C387 C386 1.363 . S
C387 C393 1.363 . S
C388 C389 1.363 . S
C388 C393 1.379 . S
C388 N395 1.356 . S
C389 C388 1.363 . S
C389 C392 1.363 . S
N390 C392 1.356 . S
N390 H402 0.984 . S
N390 H403 0.985 . S
N391 C393 1.356 . S
N391 H396 0.984 . S
N391 H397 0.985 . S
C392 C386 1.379 . S
C392 C389 1.363 . S
C392 N390 1.356 . S
C393 C387 1.363 . S
C393 C388 1.379 . S
C393 N391 1.356 . S
N394 C386 1.356 . S
N394 H400 0.984 . S
N394 H401 0.984 . S
N395 C388 1.356 . S
N395 H398 0.984 . S
N395 H399 0.985 . S
H396 N391 0.984 . S
H397 N391 0.985 . S
H398 N395 0.984 . S
H399 N395 0.985 . S
H400 N394 0.984 . S
H401 N394 0.984 . S
H402 N390 0.984 . S
H403 N390 0.985 . S
C404 C405 1.363 . S
C404 C410 1.379 . S
C404 N412 1.356 . S
C405 C404 1.363 . S
C405 C411 1.363 . S
C406 C407 1.363 . S
C406 C411 1.379 . S
C406 N413 1.356 . S
C407 C406 1.363 . S
C407 C410 1.363 . S
N408 C410 1.356 . S
N408 H420 0.984 . S
N408 H421 0.985 . S
N409 C411 1.356 . S
N409 H414 0.984 . S
N409 H415 0.985 . S
C410 C404 1.379 . S
C410 C407 1.363 . S
C410 N408 1.356 . S
C411 C405 1.363 . S
C411 C406 1.379 . S
C411 N409 1.356 . S
N412 C404 1.356 . S
N412 H418 0.984 . S
N412 H419 0.984 . S
N413 C406 1.356 . S
N413 H416 0.984 . S
N413 H417 0.985 . S
H414 N409 0.984 . S
H415 N409 0.985 . S
H416 N413 0.984 . S
H417 N413 0.985 . S
H418 N412 0.984 . S
H419 N412 0.984 . S
H420 N408 0.984 . S
H421 N408 0.985 . S
C422 C423 1.363 . S
C422 C428 1.379 . S
C422 N430 1.356 . S
C423 C422 1.363 . S
C423 C429 1.363 . S
C424 C425 1.363 . S
C424 C429 1.379 . S
C424 N431 1.356 . S
C425 C424 1.363 . S
C425 C428 1.363 . S
N426 C428 1.356 . S
N426 H438 0.984 . S
N426 H439 0.985 . S
N427 C429 1.356 . S
N427 H432 0.984 . S
N427 H433 0.985 . S
C428 C422 1.379 . S
C428 C425 1.363 . S
C428 N426 1.356 . S
C429 C423 1.363 . S
C429 C424 1.379 . S
C429 N427 1.356 . S
N430 C422 1.356 . S
N430 H436 0.984 . S
N430 H437 0.984 . S
N431 C424 1.356 . S
N431 H434 0.984 . S
N431 H435 0.985 . S
H432 N427 0.984 . S
H433 N427 0.985 . S
H434 N431 0.984 . S
H435 N431 0.985 . S
H436 N430 0.984 . S
H437 N430 0.984 . S
H438 N426 0.984 . S
H439 N426 0.985 . S
C440 C441 1.363 . S
C440 C446 1.379 . S
C440 N448 1.356 . S
C441 C440 1.363 . S
C441 C447 1.363 . S
C442 C443 1.368 . S
C442 C447 1.379 . S
C442 N449 1.356 1_554 S
C443 C442 1.368 . S
C443 C446 1.378 . S
N444 C446 1.356 . S
N444 H456 0.984 . S
N444 H457 0.985 1_554 S
N445 C447 1.356 . S
N445 H450 0.984 . S
N445 H451 0.985 . S
C446 C440 1.379 . S
C446 C443 1.378 . S
C446 N444 1.356 . S
C447 C441 1.363 . S
C447 C442 1.379 . S
C447 N445 1.356 . S
N448 C440 1.356 . S
N448 H454 0.984 . S
N448 H455 0.984 . S
N449 C442 1.356 1_556 S
N449 H452 0.984 . S
N449 H453 0.985 . S
H450 N445 0.984 . S
H451 N445 0.985 . S
H452 N449 0.984 . S
H453 N449 0.985 . S
H454 N448 0.984 . S
H455 N448 0.984 . S
H456 N444 0.984 . S
H457 N444 0.985 1_556 S
C458 C459 1.363 . S
C458 C464 1.379 . S
C458 N466 1.356 . S
C459 C458 1.363 . S
C459 C465 1.363 . S
C460 C461 1.363 . S
C460 C465 1.379 . S
C460 N467 1.356 1_455 S
C461 C460 1.363 . S
C461 C464 1.363 . S
N462 C464 1.356 1_556 S
N462 H474 0.984 . S
N462 H475 0.985 . S
N463 C465 1.356 . S
N463 H468 0.984 . S
N463 H469 0.985 . S
C464 C458 1.379 . S
C464 C461 1.363 . S
C464 N462 1.356 1_554 S
C465 C459 1.363 . S
C465 C460 1.379 . S
C465 N463 1.356 . S
N466 C458 1.356 . S
N466 H472 0.984 . S
N466 H473 0.984 . S
N467 C460 1.356 1_655 S
N467 H470 0.984 . S
N467 H471 0.985 . S
H468 N463 0.984 . S
H469 N463 0.985 . S
H470 N467 0.984 . S
H471 N467 0.985 . S
H472 N466 0.984 . S
H473 N466 0.984 . S
H474 N462 0.984 . S
H475 N462 0.985 . S
C476 C477 1.378 . S
C476 C482 1.379 . S
C476 N484 1.356 . S
C477 C476 1.378 . S
C477 C483 1.368 . S
C478 C479 1.363 . S
C478 C483 1.379 . S
C478 N485 1.359 . S
C479 C478 1.363 . S
C479 C482 1.363 . S
N480 C482 1.356 . S
N480 H492 0.984 . S
N480 H493 0.985 . S
N481 C483 1.356 1_556 S
N481 H486 0.984 . S
N481 H487 0.985 . S
C482 C476 1.379 . S
C482 C479 1.363 . S
C482 N480 1.356 . S
C483 C477 1.368 . S
C483 C478 1.379 . S
C483 N481 1.356 1_554 S
N484 C476 1.356 . S
N484 H490 0.984 . S
N484 H491 0.984 1_554 S
N485 C478 1.359 . S
N485 H488 0.984 1_565 S
N485 H489 0.982 1_565 S
H486 N481 0.984 . S
H487 N481 0.985 . S
H488 N485 0.984 1_545 S
H489 N485 0.982 1_545 S
H490 N484 0.984 . S
H491 N484 0.984 1_556 S
H492 N480 0.984 . S
H493 N480 0.985 . S
C494 C495 1.363 . S
C494 C500 1.379 . S
C494 N502 1.356 . S
C495 C494 1.363 . S
C495 C501 1.363 . S
C496 C497 1.363 . S
C496 C501 1.379 . S
C496 N503 1.355 1_554 S
C497 C496 1.363 . S
C497 C500 1.363 . S
N498 C500 1.356 . S
N498 H510 0.984 . S
N498 H511 0.985 . S
N499 C501 1.356 . S
N499 H504 0.984 . S
N499 H505 0.985 . S
C500 C494 1.379 . S
C500 C497 1.363 . S
C500 N498 1.356 . S
C501 C495 1.363 . S
C501 C496 1.379 . S
C501 N499 1.356 . S
N502 C494 1.356 . S
N502 H508 0.984 . S
N502 H509 0.984 . S
N503 C496 1.355 1_556 S
N503 H506 0.985 1_655 S
N503 H507 0.985 1_655 S
H504 N499 0.984 . S
H505 N499 0.985 . S
H506 N503 0.985 1_455 S
H507 N503 0.985 1_455 S
H508 N502 0.984 . S
H509 N502 0.984 . S
H510 N498 0.984 . S
H511 N498 0.985 . S
C512 C513 1.363 . S
C512 C518 1.379 . S
C512 N520 1.356 . S
C513 C512 1.363 . S
C513 C519 1.363 . S
C514 C515 1.363 . S
C514 C519 1.379 . S
C514 N521 1.356 . S
C515 C514 1.363 . S
C515 C518 1.363 . S
N516 C518 1.356 1_545 S
N516 H528 0.984 . S
N516 H529 0.985 . S
N517 C519 1.356 . S
N517 H522 0.984 . S
N517 H523 0.985 . S
C518 C512 1.379 . S
C518 C515 1.363 . S
C518 N516 1.356 1_565 S
C519 C513 1.363 . S
C519 C514 1.379 . S
C519 N517 1.356 . S
N520 C512 1.356 . S
N520 H526 0.984 . S
N520 H527 0.984 . S
N521 C514 1.356 . S
N521 H524 0.984 . S
N521 H525 0.985 . S
H522 N517 0.984 . S
H523 N517 0.985 . S
H524 N521 0.984 . S
H525 N521 0.985 . S
H526 N520 0.984 . S
H527 N520 0.984 . S
H528 N516 0.984 . S
H529 N516 0.985 . S
C530 C531 1.363 . S
C530 C536 1.379 . S
C530 N538 1.356 . S
C531 C530 1.363 . S
C531 C537 1.363 . S
C532 C533 1.363 . S
C532 C537 1.379 . S
C532 N539 1.356 . S
C533 C532 1.363 . S
C533 C536 1.363 . S
N534 C536 1.356 . S
N534 H546 0.984 . S
N534 H547 0.985 . S
N535 C537 1.356 . S
N535 H540 0.984 . S
N535 H541 0.985 . S
C536 C530 1.379 . S
C536 C533 1.363 . S
C536 N534 1.356 . S
C537 C531 1.363 . S
C537 C532 1.379 . S
C537 N535 1.356 . S
N538 C530 1.356 . S
N538 H544 0.984 . S
N538 H545 0.984 . S
N539 C532 1.356 . S
N539 H542 0.984 . S
N539 H543 0.985 . S
H540 N535 0.984 . S
H541 N535 0.985 . S
H542 N539 0.984 . S
H543 N539 0.985 . S
H544 N538 0.984 . S
H545 N538 0.984 . S
H546 N534 0.984 . S
H547 N534 0.985 . S
C548 C549 1.363 . S
C548 C554 1.379 . S
C548 N556 1.356 . S
C549 C548 1.363 . S
C549 C555 1.363 . S
C550 C551 1.363 . S
C550 C555 1.379 . S
C550 N557 1.356 . S
C551 C550 1.363 . S
C551 C554 1.363 . S
N552 C554 1.356 . S
N552 H564 0.984 . S
N552 H565 0.985 . S
N553 C555 1.356 . S
N553 H558 0.984 . S
N553 H559 0.985 . S
C554 C548 1.379 . S
C554 C551 1.363 . S
C554 N552 1.356 . S
C555 C549 1.363 . S
C555 C550 1.379 . S
C555 N553 1.356 . S
N556 C548 1.356 . S
N556 H562 0.984 . S
N556 H563 0.984 . S
N557 C550 1.356 . S
N557 H560 0.984 . S
N557 H561 0.985 . S
H558 N553 0.984 . S
H559 N553 0.985 . S
H560 N557 0.984 . S
H561 N557 0.985 . S
H562 N556 0.984 . S
H563 N556 0.984 . S
H564 N552 0.984 . S
H565 N552 0.985 . S
C566 C567 1.363 . S
C566 C572 1.379 . S
C566 N574 1.356 . S
C567 C566 1.363 . S
C567 C573 1.363 . S
C568 C569 1.363 . S
C568 C573 1.379 . S
C568 N575 1.356 . S
C569 C568 1.363 . S
C569 C572 1.363 . S
N570 C572 1.356 . S
N570 H582 0.984 . S
N570 H583 0.985 . S
N571 C573 1.356 . S
N571 H576 0.984 1_455 S
N571 H577 0.985 . S
C572 C566 1.379 . S
C572 C569 1.363 . S
C572 N570 1.356 . S
C573 C567 1.363 . S
C573 C568 1.379 . S
C573 N571 1.356 . S
N574 C566 1.356 . S
N574 H580 0.984 . S
N574 H581 0.984 . S
N575 C568 1.356 . S
N575 H578 0.984 . S
N575 H579 0.985 . S
H576 N571 0.984 1_655 S
H577 N571 0.985 . S
H578 N575 0.984 . S
H579 N575 0.985 . S
H580 N574 0.984 . S
H581 N574 0.984 . S
H582 N570 0.984 . S
H583 N570 0.985 . S
C584 C585 1.363 . S
C584 C590 1.379 . S
C584 N592 1.356 . S
C585 C584 1.363 . S
C585 C591 1.363 . S
C586 C587 1.363 . S
C586 C591 1.379 . S
C586 N593 1.356 . S
C587 C586 1.363 . S
C587 C590 1.363 . S
N588 C590 1.356 . S
N588 H600 0.984 . S
N588 H601 0.985 . S
N589 C591 1.356 . S
N589 H594 0.984 . S
N589 H595 0.985 . S
C590 C584 1.379 . S
C590 C587 1.363 . S
C590 N588 1.356 . S
C591 C585 1.363 . S
C591 C586 1.379 . S
C591 N589 1.356 . S
N592 C584 1.356 . S
N592 H598 0.984 . S
N592 H599 0.984 . S
N593 C586 1.356 . S
N593 H596 0.984 . S
N593 H597 0.985 . S
H594 N589 0.984 . S
H595 N589 0.985 . S
H596 N593 0.984 . S
H597 N593 0.985 . S
H598 N592 0.984 . S
H599 N592 0.984 . S
H600 N588 0.984 . S
H601 N588 0.985 . S
C602 C603 1.363 . S
C602 C608 1.379 . S
C602 N610 1.356 . S
C603 C602 1.363 . S
C603 C609 1.363 . S
C604 C605 1.363 . S
C604 C609 1.379 . S
C604 N611 1.356 . S
C605 C604 1.363 . S
C605 C608 1.363 . S
N606 C608 1.356 . S
N606 H618 0.984 . S
N606 H619 0.985 . S
N607 C609 1.356 . S
N607 H612 0.984 . S
N607 H613 0.985 . S
C608 C602 1.379 . S
C608 C605 1.363 . S
C608 N606 1.356 . S
C609 C603 1.363 . S
C609 C604 1.379 . S
C609 N607 1.356 . S
N610 C602 1.356 . S
N610 H616 0.984 . S
N610 H617 0.984 . S
N611 C604 1.356 . S
N611 H614 0.984 . S
N611 H615 0.985 . S
H612 N607 0.984 . S
H613 N607 0.985 . S
H614 N611 0.984 . S
H615 N611 0.985 . S
H616 N610 0.984 . S
H617 N610 0.984 . S
H618 N606 0.984 . S
H619 N606 0.985 . S
C620 C621 1.363 . S
C620 C626 1.379 . S
C620 N628 1.356 . S
C621 C620 1.363 . S
C621 C627 1.363 . S
C622 C623 1.363 . S
C622 C627 1.379 . S
C622 N629 1.356 . S
C623 C622 1.363 . S
C623 C626 1.363 . S
N624 C626 1.356 . S
N624 H636 0.984 . S
N624 H637 0.985 . S
N625 C627 1.356 . S
N625 H630 0.984 . S
N625 H631 0.985 . S
C626 C620 1.379 . S
C626 C623 1.363 . S
C626 N624 1.356 . S
C627 C621 1.363 . S
C627 C622 1.379 . S
C627 N625 1.356 . S
N628 C620 1.356 . S
N628 H634 0.984 . S
N628 H635 0.984 . S
N629 C622 1.356 . S
N629 H632 0.984 . S
N629 H633 0.985 . S
H630 N625 0.984 . S
H631 N625 0.985 . S
H632 N629 0.984 . S
H633 N629 0.985 . S
H634 N628 0.984 . S
H635 N628 0.984 . S
H636 N624 0.984 . S
H637 N624 0.985 . S
C638 C639 1.363 . S
C638 C644 1.379 . S
C638 N646 1.356 . S
C639 C638 1.363 . S
C639 C645 1.363 . S
C640 C641 1.363 . S
C640 C645 1.379 . S
C640 N647 1.356 . S
C641 C640 1.363 . S
C641 C644 1.363 . S
N642 C644 1.356 . S
N642 H654 0.984 . S
N642 H655 0.985 . S
N643 C645 1.356 . S
N643 H648 0.984 . S
N643 H649 0.985 . S
C644 C638 1.379 . S
C644 C641 1.363 . S
C644 N642 1.356 . S
C645 C639 1.363 . S
C645 C640 1.379 . S
C645 N643 1.356 . S
N646 C638 1.356 . S
N646 H652 0.984 . S
N646 H653 0.984 . S
N647 C640 1.356 . S
N647 H650 0.984 . S
N647 H651 0.985 . S
H648 N643 0.984 . S
H649 N643 0.985 . S
H650 N647 0.984 . S
H651 N647 0.985 . S
H652 N646 0.984 . S
H653 N646 0.984 . S
H654 N642 0.984 . S
H655 N642 0.985 . S
C656 C657 1.363 . S
C656 C662 1.379 . S
C656 N664 1.356 . S
C657 C656 1.363 . S
C657 C663 1.363 . S
C658 C659 1.363 . S
C658 C663 1.379 . S
C658 N665 1.356 . S
C659 C658 1.363 . S
C659 C662 1.363 . S
N660 C662 1.356 . S
N660 H672 0.984 . S
N660 H673 0.985 . S
N661 C663 1.356 . S
N661 H666 0.984 . S
N661 H667 0.985 . S
C662 C656 1.379 . S
C662 C659 1.363 . S
C662 N660 1.356 . S
C663 C657 1.363 . S
C663 C658 1.379 . S
C663 N661 1.356 . S
N664 C656 1.356 . S
N664 H670 0.984 . S
N664 H671 0.984 . S
N665 C658 1.356 . S
N665 H668 0.984 . S
N665 H669 0.985 . S
H666 N661 0.984 . S
H667 N661 0.985 . S
H668 N665 0.984 . S
H669 N665 0.985 . S
H670 N664 0.984 . S
H671 N664 0.984 . S
H672 N660 0.984 . S
H673 N660 0.985 . S
C674 C675 1.363 . S
C674 C680 1.379 . S
C674 N682 1.356 . S
C675 C674 1.363 . S
C675 C681 1.363 . S
C676 C677 1.363 . S
C676 C681 1.379 . S
C676 N683 1.356 . S
C677 C676 1.363 . S
C677 C680 1.363 . S
N678 C680 1.356 . S
N678 H690 0.984 . S
N678 H691 0.985 . S
N679 C681 1.356 . S
N679 H684 0.984 . S
N679 H685 0.985 . S
C680 C674 1.379 . S
C680 C677 1.363 . S
C680 N678 1.356 . S
C681 C675 1.363 . S
C681 C676 1.379 . S
C681 N679 1.356 . S
N682 C674 1.356 . S
N682 H688 0.984 . S
N682 H689 0.984 . S
N683 C676 1.356 . S
N683 H686 0.984 . S
N683 H687 0.985 . S
H684 N679 0.984 . S
H685 N679 0.985 . S
H686 N683 0.984 . S
H687 N683 0.985 . S
H688 N682 0.984 . S
H689 N682 0.984 . S
H690 N678 0.984 . S
H691 N678 0.985 . S
C692 C693 1.363 . S
C692 C698 1.379 . S
C692 N700 1.356 . S
C693 C692 1.363 . S
C693 C699 1.363 . S
C694 C695 1.363 . S
C694 C699 1.379 . S
C694 N701 1.356 . S
C695 C694 1.363 . S
C695 C698 1.363 . S
N696 C698 1.356 . S
N696 H708 0.984 . S
N696 H709 0.985 . S
N697 C699 1.356 . S
N697 H702 0.984 . S
N697 H703 0.985 . S
C698 C692 1.379 . S
C698 C695 1.363 . S
C698 N696 1.356 . S
C699 C693 1.363 . S
C699 C694 1.379 . S
C699 N697 1.356 . S
N700 C692 1.356 . S
N700 H706 0.984 . S
N700 H707 0.984 . S
N701 C694 1.356 . S
N701 H704 0.984 . S
N701 H705 0.985 . S
H702 N697 0.984 . S
H703 N697 0.985 . S
H704 N701 0.984 . S
H705 N701 0.985 . S
H706 N700 0.984 . S
H707 N700 0.984 . S
H708 N696 0.984 . S
H709 N696 0.985 . S
C710 C711 1.363 . S
C710 C716 1.379 . S
C710 N718 1.356 . S
C711 C710 1.363 . S
C711 C717 1.363 . S
C712 C713 1.363 . S
C712 C717 1.379 . S
C712 N719 1.356 . S
C713 C712 1.363 . S
C713 C716 1.363 . S
N714 C716 1.356 . S
N714 H726 0.984 . S
N714 H727 0.985 . S
N715 C717 1.356 . S
N715 H720 0.984 . S
N715 H721 0.985 . S
C716 C710 1.379 . S
C716 C713 1.363 . S
C716 N714 1.356 . S
C717 C711 1.363 . S
C717 C712 1.379 . S
C717 N715 1.356 . S
N718 C710 1.356 . S
N718 H724 0.984 . S
N718 H725 0.984 . S
N719 C712 1.356 . S
N719 H722 0.984 . S
N719 H723 0.985 . S
H720 N715 0.984 . S
H721 N715 0.985 . S
H722 N719 0.984 . S
H723 N719 0.985 . S
H724 N718 0.984 . S
H725 N718 0.984 . S
H726 N714 0.984 . S
H727 N714 0.985 . S
C728 C729 1.363 . S
C728 C734 1.379 . S
C728 N736 1.356 . S
C729 C728 1.363 . S
C729 C735 1.363 . S
C730 C731 1.363 . S
C730 C735 1.379 . S
C730 N737 1.356 . S
C731 C730 1.363 . S
C731 C734 1.363 . S
N732 C734 1.356 . S
N732 H744 0.984 . S
N732 H745 0.985 . S
N733 C735 1.356 . S
N733 H738 0.984 . S
N733 H739 0.985 . S
C734 C728 1.379 . S
C734 C731 1.363 . S
C734 N732 1.356 . S
C735 C729 1.363 . S
C735 C730 1.379 . S
C735 N733 1.356 . S
N736 C728 1.356 . S
N736 H742 0.984 . S
N736 H743 0.984 . S
N737 C730 1.356 . S
N737 H740 0.984 . S
N737 H741 0.985 . S
H738 N733 0.984 . S
H739 N733 0.985 . S
H740 N737 0.984 . S
H741 N737 0.985 . S
H742 N736 0.984 . S
H743 N736 0.984 . S
H744 N732 0.984 . S
H745 N732 0.985 . S
C746 C747 1.363 . S
C746 C752 1.379 . S
C746 N754 1.356 . S
C747 C746 1.363 . S
C747 C753 1.363 . S
C748 C749 1.363 . S
C748 C753 1.379 . S
C748 N755 1.356 . S
C749 C748 1.363 . S
C749 C752 1.363 . S
N750 C752 1.356 . S
N750 H762 0.984 . S
N750 H763 0.985 . S
N751 C753 1.356 . S
N751 H756 0.984 . S
N751 H757 0.985 . S
C752 C746 1.379 . S
C752 C749 1.363 . S
C752 N750 1.356 . S
C753 C747 1.363 . S
C753 C748 1.379 . S
C753 N751 1.356 . S
N754 C746 1.356 . S
N754 H760 0.984 . S
N754 H761 0.984 . S
N755 C748 1.356 . S
N755 H758 0.984 . S
N755 H759 0.985 . S
H756 N751 0.984 . S
H757 N751 0.985 . S
H758 N755 0.984 . S
H759 N755 0.985 . S
H760 N754 0.984 . S
H761 N754 0.984 . S
H762 N750 0.984 . S
H763 N750 0.985 . S
C764 C765 1.363 . S
C764 C770 1.379 . S
C764 N772 1.356 . S
C765 C764 1.363 . S
C765 C771 1.363 . S
C766 C767 1.363 . S
C766 C771 1.379 . S
C766 N773 1.356 . S
C767 C766 1.363 . S
C767 C770 1.363 . S
N768 C770 1.356 . S
N768 H780 0.984 . S
N768 H781 0.985 . S
N769 C771 1.356 . S
N769 H774 0.984 . S
N769 H775 0.985 . S
C770 C764 1.379 . S
C770 C767 1.363 . S
C770 N768 1.356 . S
C771 C765 1.363 . S
C771 C766 1.379 . S
C771 N769 1.356 . S
N772 C764 1.356 . S
N772 H778 0.984 . S
N772 H779 0.984 . S
N773 C766 1.356 . S
N773 H776 0.984 . S
N773 H777 0.985 . S
H774 N769 0.984 . S
H775 N769 0.985 . S
H776 N773 0.984 . S
H777 N773 0.985 . S
H778 N772 0.984 . S
H779 N772 0.984 . S
H780 N768 0.984 . S
H781 N768 0.985 . S
C782 C783 1.363 . S
C782 C788 1.379 . S
C782 N790 1.356 . S
C783 C782 1.363 . S
C783 C789 1.363 . S
C784 C785 1.363 . S
C784 C789 1.379 . S
C784 N791 1.356 . S
C785 C784 1.363 . S
C785 C788 1.363 . S
N786 C788 1.356 . S
N786 H798 0.984 . S
N786 H799 0.985 . S
N787 C789 1.356 . S
N787 H792 0.984 . S
N787 H793 0.985 . S
C788 C782 1.379 . S
C788 C785 1.363 . S
C788 N786 1.356 . S
C789 C783 1.363 . S
C789 C784 1.379 . S
C789 N787 1.356 . S
N790 C782 1.356 . S
N790 H796 0.984 . S
N790 H797 0.984 . S
N791 C784 1.356 . S
N791 H794 0.984 . S
N791 H795 0.985 . S
H792 N787 0.984 . S
H793 N787 0.985 . S
H794 N791 0.984 . S
H795 N791 0.985 . S
H796 N790 0.984 . S
H797 N790 0.984 . S
H798 N786 0.984 . S
H799 N786 0.985 . S
C800 C801 1.363 . S
C800 C806 1.379 1_565 S
C800 N808 1.356 . S
C801 C800 1.363 . S
C801 C807 1.363 1_655 S
C802 C803 1.363 . S
C802 C807 1.379 1_545 S
C802 N809 1.356 . S
C803 C802 1.363 . S
C803 C806 1.363 1_455 S
N804 C806 1.356 1_455 S
N804 H816 0.982 1_455 S
N804 H817 0.987 . S
N805 C807 1.356 1_655 S
N805 H810 0.987 . S
N805 H811 0.982 1_655 S
C806 C800 1.379 1_545 S
C806 C803 1.363 1_655 S
C806 N804 1.356 1_655 S
C807 C801 1.363 1_455 S
C807 C802 1.379 1_565 S
C807 N805 1.356 1_455 S
N808 C800 1.356 . S
N808 H814 0.984 . S
N808 H815 0.984 . S
N809 C802 1.356 . S
N809 H812 0.984 . S
N809 H813 0.985 . S
H810 N805 0.987 . S
H811 N805 0.982 1_455 S
H812 N809 0.984 . S
H813 N809 0.985 . S
H814 N808 0.984 . S
H815 N808 0.984 . S
H816 N804 0.982 1_655 S
H817 N804 0.987 . S
C818 C819 1.355 1_565 S
C818 C824 1.379 1_655 S
C818 N826 1.356 . S
C819 C818 1.355 1_545 S
C819 C825 1.371 . S
C820 C821 1.355 1_545 S
C820 C825 1.379 1_455 S
C820 N827 1.356 . S
C821 C820 1.355 1_565 S
C821 C824 1.371 . S
N822 C824 1.356 . S
N822 H834 0.984 . S
N822 H835 0.985 . S
N823 C825 1.356 . S
N823 H828 0.984 . S
N823 H829 0.985 . S
C824 C818 1.379 1_455 S
C824 C821 1.371 . S
C824 N822 1.356 . S
C825 C819 1.371 . S
C825 C820 1.379 1_655 S
C825 N823 1.356 . S
N826 C818 1.356 . S
N826 H832 0.984 . S
N826 H833 0.984 . S
N827 C820 1.356 . S
N827 H830 0.984 . S
N827 H831 0.985 . S
H828 N823 0.984 . S
H829 N823 0.985 . S
H830 N827 0.984 . S
H831 N827 0.985 . S
H832 N826 0.984 . S
H833 N826 0.984 . S
H834 N822 0.984 . S
H835 N822 0.985 . S
C836 C837 1.363 . S
C836 C842 1.379 . S
C836 N844 1.356 . S
C837 C836 1.363 . S
C837 C843 1.363 1_455 S
C838 C839 1.363 . S
C838 C843 1.379 . S
C838 N845 1.356 . S
C839 C838 1.363 . S
C839 C842 1.363 1_655 S
N840 C842 1.356 1_655 S
N840 H852 0.982 1_655 S
N840 H853 0.987 . S
N841 C843 1.356 1_455 S
N841 H846 0.987 . S
N841 H847 0.982 1_455 S
C842 C836 1.379 . S
C842 C839 1.363 1_455 S
C842 N840 1.356 1_455 S
C843 C837 1.363 1_655 S
C843 C838 1.379 . S
C843 N841 1.356 1_655 S
N844 C836 1.356 . S
N844 H850 0.984 . S
N844 H851 0.984 . S
N845 C838 1.356 . S
N845 H848 0.984 . S
N845 H849 0.985 . S
H846 N841 0.987 . S
H847 N841 0.982 1_655 S
H848 N845 0.984 . S
H849 N845 0.985 . S
H850 N844 0.984 . S
H851 N844 0.984 . S
H852 N840 0.982 1_455 S
H853 N840 0.987 . S
C854 C855 1.354 1_545 S
C854 C860 1.379 . S
C854 N862 1.356 . S
C855 C854 1.354 1_565 S
C855 C861 1.371 . S
C856 C857 1.354 1_565 S
C856 C861 1.379 . S
C856 N863 1.356 . S
C857 C856 1.354 1_545 S
C857 C860 1.371 . S
N858 C860 1.356 . S
N858 H870 0.984 . S
N858 H871 0.985 . S
N859 C861 1.356 . S
N859 H864 0.984 . S
N859 H865 0.985 . S
C860 C854 1.379 . S
C860 C857 1.371 . S
C860 N858 1.356 . S
C861 C855 1.371 . S
C861 C856 1.379 . S
C861 N859 1.356 . S
N862 C854 1.356 . S
N862 H868 0.984 . S
N862 H869 0.984 . S
N863 C856 1.356 . S
N863 H866 0.984 . S
N863 H867 0.985 . S
H864 N859 0.984 . S
H865 N859 0.985 . S
H866 N863 0.984 . S
H867 N863 0.985 . S
H868 N862 0.984 . S
H869 N862 0.984 . S
H870 N858 0.984 . S
H871 N858 0.985 . S
C872 C873 1.363 . S
C872 C878 1.379 . S
C872 N880 1.356 . S
C873 C872 1.363 . S
C873 C879 1.363 . S
C874 C875 1.363 . S
C874 C879 1.379 . S
C874 N881 1.356 . S
C875 C874 1.363 . S
C875 C878 1.363 . S
N876 C878 1.356 . S
N876 H888 0.984 . S
N876 H889 0.985 . S
N877 C879 1.356 . S
N877 H882 0.984 . S
N877 H883 0.985 . S
C878 C872 1.379 . S
C878 C875 1.363 . S
C878 N876 1.356 . S
C879 C873 1.363 . S
C879 C874 1.379 . S
C879 N877 1.356 . S
N880 C872 1.356 . S
N880 H886 0.984 . S
N880 H887 0.984 . S
N881 C874 1.356 . S
N881 H884 0.984 . S
N881 H885 0.985 . S
H882 N877 0.984 . S
H883 N877 0.985 . S
H884 N881 0.984 . S
H885 N881 0.985 . S
H886 N880 0.984 . S
H887 N880 0.984 . S
H888 N876 0.984 . S
H889 N876 0.985 . S
C890 C891 1.363 . S
C890 C896 1.379 . S
C890 N898 1.356 . S
C891 C890 1.363 . S
C891 C897 1.363 . S
C892 C893 1.363 . S
C892 C897 1.379 . S
C892 N899 1.356 . S
C893 C892 1.363 . S
C893 C896 1.363 . S
N894 C896 1.356 . S
N894 H906 0.984 . S
N894 H907 0.985 . S
N895 C897 1.356 . S
N895 H900 0.984 . S
N895 H901 0.985 . S
C896 C890 1.379 . S
C896 C893 1.363 . S
C896 N894 1.356 . S
C897 C891 1.363 . S
C897 C892 1.379 . S
C897 N895 1.356 . S
N898 C890 1.356 . S
N898 H904 0.984 . S
N898 H905 0.984 . S
N899 C892 1.356 . S
N899 H902 0.984 . S
N899 H903 0.985 . S
H900 N895 0.984 . S
H901 N895 0.985 . S
H902 N899 0.984 . S
H903 N899 0.985 . S
H904 N898 0.984 . S
H905 N898 0.984 . S
H906 N894 0.984 . S
H907 N894 0.985 . S
C908 C909 1.363 . S
C908 C914 1.379 1_545 S
C908 N916 1.356 . S
C909 C908 1.363 . S
C909 C915 1.363 . S
C910 C911 1.363 . S
C910 C915 1.379 1_565 S
C910 N917 1.356 . S
C911 C910 1.363 . S
C911 C914 1.363 . S
N912 C914 1.356 . S
N912 H924 0.984 . S
N912 H925 0.985 . S
N913 C915 1.356 . S
N913 H918 0.984 . S
N913 H919 0.985 . S
C914 C908 1.379 1_565 S
C914 C911 1.363 . S
C914 N912 1.356 . S
C915 C909 1.363 . S
C915 C910 1.379 1_545 S
C915 N913 1.356 . S
N916 C908 1.356 . S
N916 H922 0.984 . S
N916 H923 0.984 . S
N917 C910 1.356 . S
N917 H920 0.984 . S
N917 H921 0.985 . S
H918 N913 0.984 . S
H919 N913 0.985 . S
H920 N917 0.984 . S
H921 N917 0.985 . S
H922 N916 0.984 . S
H923 N916 0.984 . S
H924 N912 0.984 . S
H925 N912 0.985 . S
C926 C927 1.363 . S
C926 C932 1.379 1_655 S
C926 N934 1.356 . S
C927 C926 1.363 . S
C927 C933 1.363 . S
C928 C929 1.363 . S
C928 C933 1.379 1_455 S
C928 N935 1.356 . S
C929 C928 1.363 . S
C929 C932 1.363 . S
N930 C932 1.356 . S
N930 H942 0.984 . S
N930 H943 0.985 . S
N931 C933 1.356 . S
N931 H936 0.984 . S
N931 H937 0.985 . S
C932 C926 1.379 1_455 S
C932 C929 1.363 . S
C932 N930 1.356 . S
C933 C927 1.363 . S
C933 C928 1.379 1_655 S
C933 N931 1.356 . S
N934 C926 1.356 . S
N934 H940 0.984 . S
N934 H941 0.984 . S
N935 C928 1.356 . S
N935 H938 0.984 . S
N935 H939 0.985 . S
H936 N931 0.984 . S
H937 N931 0.985 . S
H938 N935 0.984 . S
H939 N935 0.985 . S
H940 N934 0.984 . S
H941 N934 0.984 . S
H942 N930 0.984 . S
H943 N930 0.985 . S
C369 C16 1.758 . S
C371 C260 1.834 . S
C387 N186 1.357 . S
C389 N35 1.345 . S
C405 C214 1.834 . S
C407 C62 1.758 . S
C423 N232 1.357 . S
C425 N81 1.345 . S
C441 C122 1.834 . S
C443 C108 1.743 1_554 S
C459 N127 1.345 . S
C461 N140 1.357 1_554 S
C477 C154 1.743 1_554 S
C479 C168 1.834 . S
C495 N173 1.345 . S
C497 N94 1.357 1_554 S
C513 C200 1.758 . S
C515 C76 1.834 . S
C531 N2 1.357 . S
C533 N219 1.345 . S
C549 C30 1.834 . S
C551 C246 1.758 . S
C567 N48 1.357 . S
C569 N265 1.345 . S
C585 C306 1.834 . S
C587 C292 1.758 . S
C603 N311 1.345 . S
C605 N324 1.357 . S
C621 C352 1.834 . S
C623 C338 1.758 . S
C639 N278 1.357 . S
C641 N357 1.345 . S
C657 N334 1.722 . S
C659 N12 1.722 . S
C675 C361 1.900 . S
C677 C39 1.900 . S
C693 N288 1.722 . S
C695 N58 1.722 . S
C711 C85 1.900 . S
C713 C315 1.900 . S
C729 N104 1.722 . S
C731 N242 1.722 . S
C747 C269 1.900 . S
C749 C131 1.900 . S
C765 N150 1.722 . S
C767 N196 1.722 . S
C783 C177 1.900 . S
C785 C223 1.900 . S
C801 C53 1.760 . S
C803 C7 1.760 . S
C819 N71 1.670 . S
C821 N25 1.670 . S
C837 C99 1.760 . S
C839 C145 1.760 . S
C855 N117 1.670 . S
C857 N163 1.670 . S
C873 C237 1.760 . S
C875 C191 1.760 . S
C891 N209 1.668 . S
C893 N255 1.668 . S
C909 C329 1.760 . S
C911 C283 1.760 . S
C927 N301 1.668 . S
C929 N347 1.668 . S
