# Generated by pormake.
# Topology vcr, (7)-cn, num edge types: 1
# Building blocks:
#     Node 0, Type 0, BuildingBlock: HICVOG_clean_sbu_0, # of connection points: 7
#     Node 1, Type 0, BuildingBlock: HICVOG_clean_sbu_0, # of connection points: 7
#     Node 2, Type 0, BuildingBlock: HICVOG_clean_sbu_0, # of connection points: 7
#     Node 3, Type 0, BuildingBlock: HICVOG_clean_sbu_0, # of connection points: 7
#     Node 4, Type 0, BuildingBlock: HICVOG_clean_sbu_0, # of connection points: 7
#     Node 5, Type 0, BuildingBlock: HICVOG_clean_sbu_0, # of connection points: 7
#     Node 6, Type 0, BuildingBlock: HICVOG_clean_sbu_0, # of connection points: 7
#     Node 7, Type 0, BuildingBlock: HICVOG_clean_sbu_0, # of connection points: 7
#     Edge 8, Type (0, 0), BuildingBlock: TEMPAE_clean_linker_10, # of connection points: 2
#     Edge 9, Type (0, 0), BuildingBlock: TEMPAE_clean_linker_10, # of connection points: 2
#     Edge 10, Type (0, 0), BuildingBlock: TEMPAE_clean_linker_10, # of connection points: 2
#     Edge 11, Type (0, 0), BuildingBlock: TEMPAE_clean_linker_10, # of connection points: 2
#     Edge 12, Type (0, 0), BuildingBlock: TEMPAE_clean_linker_10, # of connection points: 2
#     Edge 13, Type (0, 0), BuildingBlock: TEMPAE_clean_linker_10, # of connection points: 2
#     Edge 14, Type (0, 0), BuildingBlock: TEMPAE_clean_linker_10, # of connection points: 2
#     Edge 15, Type (0, 0), BuildingBlock: TEMPAE_clean_linker_10, # of connection points: 2
#     Edge 16, Type (0, 0), BuildingBlock: TEMPAE_clean_linker_10, # of connection points: 2
#     Edge 17, Type (0, 0), BuildingBlock: TEMPAE_clean_linker_10, # of connection points: 2
#     Edge 18, Type (0, 0), BuildingBlock: TEMPAE_clean_linker_10, # of connection points: 2
#     Edge 19, Type (0, 0), BuildingBlock: TEMPAE_clean_linker_10, # of connection points: 2
#     Edge 20, Type (0, 0), BuildingBlock: TEMPAE_clean_linker_10, # of connection points: 2
#     Edge 21, Type (0, 0), BuildingBlock: TEMPAE_clean_linker_10, # of connection points: 2
#     Edge 22, Type (0, 0), BuildingBlock: TEMPAE_clean_linker_10, # of connection points: 2
#     Edge 23, Type (0, 0), BuildingBlock: TEMPAE_clean_linker_10, # of connection points: 2
#     Edge 24, Type (0, 0), BuildingBlock: TEMPAE_clean_linker_10, # of connection points: 2
#     Edge 25, Type (0, 0), BuildingBlock: TEMPAE_clean_linker_10, # of connection points: 2
#     Edge 26, Type (0, 0), BuildingBlock: TEMPAE_clean_linker_10, # of connection points: 2
#     Edge 27, Type (0, 0), BuildingBlock: TEMPAE_clean_linker_10, # of connection points: 2
#     Edge 28, Type (0, 0), BuildingBlock: TEMPAE_clean_linker_10, # of connection points: 2
#     Edge 29, Type (0, 0), BuildingBlock: TEMPAE_clean_linker_10, # of connection points: 2
#     Edge 30, Type (0, 0), BuildingBlock: TEMPAE_clean_linker_10, # of connection points: 2
#     Edge 31, Type (0, 0), BuildingBlock: TEMPAE_clean_linker_10, # of connection points: 2
#     Edge 32, Type (0, 0), BuildingBlock: TEMPAE_clean_linker_10, # of connection points: 2
#     Edge 33, Type (0, 0), BuildingBlock: TEMPAE_clean_linker_10, # of connection points: 2
#     Edge 34, Type (0, 0), BuildingBlock: TEMPAE_clean_linker_10, # of connection points: 2
#     Edge 35, Type (0, 0), BuildingBlock: TEMPAE_clean_linker_10, # of connection points: 2
# Relax obj value: 0.300
# Max RMSD: 0.264
# Mean RMSD: 0.264
data_MOF--net-vcr--node1-HICVOG_clean_sbu_0--edge1-TEMPAE_clean_linker_10
_symmetry_space_group_name_H-M    P1
_symmetry_Int_Tables_number       1
_symmetry_cell_setting            triclinic
loop_
_symmetry_equiv_pos_as_xyz
'x, y, z'
_cell_length_a     35.229551
_cell_length_b     50.834432
_cell_length_c     19.786454
_cell_angle_alpha  90.024134
_cell_angle_beta   90.11104
_cell_angle_gamma 89.984808
loop_
_atom_site_label
_atom_site_type_symbol
_atom_site_fract_x
_atom_site_fract_y
_atom_site_fract_z
_atom_type_partial_charge
Zn0 Zn 0.15769 0.12588 0.17526 0.0
C1 C 0.1166 0.08385 0.0209 0.0
N2 N 0.14921 0.07062 0.03017 0.0
C3 C 0.16701 0.08488 0.07713 0.0
N4 N 0.14633 0.10573 0.09669 0.0
N5 N 0.11468 0.10553 0.06066 0.0
C6 C 0.01045 0.14535 0.98104 0.0
O7 O 0.02231 0.16985 0.98073 0.0
O8 O 0.21531 0.1289 0.17785 0.0
Zn9 Zn 0.08513 0.13695 0.04125 0.0
N10 N 0.13814 0.10627 0.25139 0.0
C11 C 0.09904 0.07173 0.29318 0.0
C12 C 0.11382 0.08599 0.2393 0.0
C13 C 0.14661 0.11378 0.31559 0.0
N14 N 0.10772 0.07906 0.35725 0.0
C15 C 0.13073 0.09997 0.37021 0.0
O16 O 0.08133 0.16478 0.11627 0.0
C17 C 0.10355 0.17398 0.16164 0.0
O18 O 0.13331 0.16171 0.1804 0.0
H19 H 0.10626 0.08064 0.18819 0.0
H20 H 0.16523 0.13042 0.32372 0.0
C21 C 0.11214 0.14519 0.9061 0.0
C22 C 0.13558 0.1567 0.85686 0.0
C23 C 0.15966 0.18617 0.93939 0.0
C24 C 0.13651 0.17466 0.98802 0.0
N25 N 0.11328 0.15439 0.97057 0.0
N26 N 0.15883 0.17687 0.87519 0.0
H27 H 0.09413 0.12857 0.89415 0.0
C28 C 0.23041 0.13894 0.12543 0.0
O29 O 0.20805 0.14829 0.07792 0.0
O30 O 0.03228 0.12767 0.00497 0.0
H31 H 0.13778 0.18153 0.03953 0.0
H32 H 0.08034 0.05521 0.28423 0.0
H33 H 0.17849 0.20217 0.95269 0.0
Zn34 Zn 0.42446 0.89383 0.02941 0.0
C35 C 0.35554 0.95484 0.06542 0.0
N36 N 0.37642 0.96672 0.01806 0.0
C37 C 0.40413 0.94919 0.00632 0.0
N38 N 0.40026 0.92746 0.04519 0.0
N39 N 0.36987 0.93128 0.08296 0.0
C40 C 0.28184 0.9016 0.11458 0.0
O41 O 0.30398 0.8881 0.07393 0.0
O42 O 0.47855 0.89831 0.99543 0.0
Zn43 Zn 0.35475 0.91268 0.16274 0.0
N44 N 0.39579 0.87735 0.95738 0.0
C45 C 0.35435 0.84327 0.92039 0.0
C46 C 0.37473 0.85564 0.97169 0.0
C47 C 0.39682 0.88746 0.89377 0.0
N48 N 0.35574 0.85312 0.85676 0.0
C49 C 0.37627 0.87503 0.84174 0.0
O50 O 0.37238 0.87483 0.17004 0.0
C51 C 0.39997 0.86017 0.15211 0.0
O52 O 0.42345 0.86725 0.10655 0.0
H53 H 0.37381 0.84787 0.02239 0.0
H54 H 0.41409 0.90464 0.88387 0.0
C55 C 0.37003 0.92397 0.30384 0.0
C56 C 0.39142 0.93508 0.35688 0.0
C57 C 0.42647 0.95991 0.27697 0.0
C58 C 0.40616 0.94823 0.22465 0.0
N59 N 0.37796 0.9308 0.23883 0.0
N60 N 0.41897 0.95287 0.34159 0.0
H61 H 0.34883 0.90905 0.31361 0.0
C62 C 0.50697 0.90201 0.03405 0.0
O63 O 0.50162 0.90342 0.09966 0.0
O64 O 0.29705 0.91411 0.16337 0.0
H65 H 0.41347 0.95277 0.17302 0.0
H66 H 0.33766 0.8259 0.93096 0.0
H67 H 0.44878 0.97391 0.26626 0.0
Zn68 Zn 0.1547 0.4113 0.32126 0.0
C69 C 0.10784 0.45011 0.47584 0.0
N70 N 0.1434 0.45917 0.48442 0.0
C71 C 0.16378 0.4458 0.43888 0.0
N72 N 0.14202 0.42845 0.40513 0.0
N73 N 0.10744 0.43025 0.4303 0.0
C74 C 1.00404 0.38997 0.50082 0.0
O75 O 0.01992 0.36714 0.51392 0.0
O76 O 0.21272 0.41014 0.31859 0.0
Zn77 Zn 0.07841 0.39865 0.44639 0.0
N78 N 0.1322 0.43147 0.24704 0.0
C79 C 0.08976 0.46545 0.21253 0.0
C80 C 0.10906 0.45198 0.2632 0.0
C81 C 0.13619 0.4236 0.18155 0.0
N82 N 0.09335 0.45743 0.14754 0.0
C83 C 0.11596 0.4368 0.13016 0.0
O84 O 0.07971 0.37085 0.37119 0.0
C85 C 0.10344 0.36188 0.32815 0.0
O86 O 0.13342 0.3745 0.31223 0.0
H87 H 0.10537 0.45785 0.31513 0.0
H88 H 0.15351 0.40658 0.17022 0.0
C89 C 0.09979 0.39189 0.58756 0.0
C90 C 0.11619 0.37812 0.64212 0.0
C91 C 0.13627 0.34472 0.56637 0.0
C92 C 0.12003 0.35835 0.51267 0.0
N93 N 0.10178 0.38151 0.52411 0.0
N94 N 0.13382 0.3548 0.62961 0.0
H95 H 0.0849 0.41026 0.59541 0.0
C96 C 0.22761 0.39875 0.36953 0.0
O97 O 0.20497 0.38707 0.4129 0.0
O98 O 0.0235 0.40737 0.47021 0.0
H99 H 0.12182 0.35033 0.46231 0.0
H100 H 0.07147 0.48185 0.22487 0.0
H101 H 0.15062 0.32619 0.55794 0.0
Zn102 Zn 0.41887 0.6415 0.46533 0.0
C103 C 0.35021 0.58058 0.42855 0.0
N104 N 0.3717 0.56858 0.4749 0.0
C105 C 0.39962 0.58596 0.48605 0.0
N106 N 0.39538 0.60781 0.44764 0.0
N107 N 0.36434 0.6042 0.41092 0.0
C108 C 0.27302 0.64008 0.37316 0.0
O109 O 0.29379 0.65688 0.40759 0.0
O110 O 0.47297 0.63704 0.50062 0.0
Zn111 Zn 0.34757 0.62339 0.33235 0.0
N112 N 0.3885 0.65741 0.53569 0.0
C113 C 0.33969 0.68747 0.56645 0.0
C114 C 0.36396 0.6769 0.51809 0.0
C115 C 0.38988 0.64808 0.60009 0.0
N116 N 0.34081 0.67807 0.63055 0.0
C117 C 0.36536 0.65868 0.64915 0.0
O118 O 0.36806 0.66047 0.32167 0.0
C119 C 0.39581 0.67485 0.34029 0.0
O120 O 0.41806 0.66795 0.38803 0.0
H121 H 0.36271 0.68392 0.46668 0.0
H122 H 0.40903 0.6321 0.6121 0.0
C123 C 0.35655 0.61239 0.19053 0.0
C124 C 0.37155 0.59898 0.13434 0.0
C125 C 0.40372 0.5698 0.20841 0.0
C126 C 0.38995 0.58373 0.26373 0.0
N127 N 0.36576 0.60424 0.25398 0.0
N128 N 0.39434 0.57776 0.14517 0.0
H129 H 0.33812 0.62925 0.18418 0.0
C130 C 0.49805 0.65458 0.49004 0.0
O131 O 0.48856 0.67571 0.45578 0.0
O132 O 0.28967 0.62382 0.33427 0.0
H133 H 0.39889 0.5783 0.31399 0.0
H134 H 0.31984 0.70285 0.55304 0.0
H135 H 0.42242 0.55315 0.21557 0.0
Zn136 Zn 0.85314 0.91416 0.83243 0.0
C137 C 0.91718 0.94996 0.97434 0.0
N138 N 0.88736 0.96625 0.97911 0.0
C139 C 0.86111 0.95535 0.93888 0.0
N140 N 0.87382 0.93281 0.9107 0.0
N141 N 0.90848 0.92915 0.93475 0.0
C142 C 0.00947 0.90894 0.95675 0.0
O143 O 1.00244 0.91925 0.89714 0.0
O144 O 0.79568 0.915 0.84069 0.0
Zn145 Zn 0.92838 0.89477 0.95438 0.0
N146 N 0.8693 0.93253 0.75049 0.0
C147 C 0.9034 0.96878 0.7044 0.0
C148 C 0.88761 0.95576 0.75937 0.0
C149 C 0.86607 0.92166 0.68763 0.0
N150 N 0.90088 0.95778 0.6422 0.0
C151 C 0.88263 0.93454 0.63189 0.0
O152 O 0.92522 0.86829 0.87776 0.0
C153 C 0.90008 0.8614 0.8347 0.0
O154 O 0.87173 0.87613 0.82057 0.0
H155 H 0.89089 0.96373 0.80903 0.0
H156 H 0.85228 0.90277 0.68164 0.0
C157 C 0.90105 0.88913 0.09225 0.0
C158 C 0.8804 0.87666 0.14409 0.0
C159 C 0.85431 0.84721 0.06344 0.0
C160 C 0.87492 0.85947 0.01243 0.0
N161 N 0.89818 0.88 0.02762 0.0
N162 N 0.85773 0.85592 0.12791 0.0
H163 H 0.91993 0.90539 0.10328 0.0
C164 C 0.78012 0.89931 0.88235 0.0
O165 O 0.80169 0.88258 0.91541 0.0
O166 O 0.98271 0.89762 0.98856 0.0
H167 H 0.87257 0.85238 0.96125 0.0
H168 H 0.91824 0.98722 0.71132 0.0
H169 H 0.83594 0.83075 0.05198 0.0
Zn170 Zn 0.58267 0.1373 0.95478 0.0
C171 C 0.66052 0.08713 0.94758 0.0
N172 N 0.63714 0.07351 0.98767 0.0
C173 C 0.60267 0.08371 0.97432 0.0
N174 N 0.60564 0.10419 0.93093 0.0
N175 N 0.64147 0.10535 0.91178 0.0
C176 C 0.74347 0.11531 0.80648 0.0
O177 O 0.73538 0.10366 0.74898 0.0
O178 O 0.52785 0.13163 0.9844 0.0
Zn179 Zn 0.65896 0.12312 0.83172 0.0
N180 N 0.61307 0.15117 0.02912 0.0
C181 C 0.66298 0.18007 0.06201 0.0
C182 C 0.63851 0.17026 0.0129 0.0
C183 C 0.6112 0.1414 0.09321 0.0
N184 N 0.66128 0.17033 0.12563 0.0
C185 C 0.63604 0.15126 0.14317 0.0
O186 O 0.63718 0.15998 0.81998 0.0
C187 C 0.60809 0.17354 0.83653 0.0
O188 O 0.58456 0.16552 0.88111 0.0
H189 H 0.64032 0.1776 0.96191 0.0
H190 H 0.59136 0.12576 0.1044 0.0
C191 C 0.64893 0.11105 0.68867 0.0
C192 C 0.63372 0.09679 0.63373 0.0
C193 C 0.60444 0.0674 0.71073 0.0
C194 C 0.61851 0.08199 0.76466 0.0
N195 N 0.64149 0.10303 0.75307 0.0
N196 N 0.61227 0.07513 0.64678 0.0
H197 H 0.66621 0.12836 0.68059 0.0
C198 C 0.51157 0.14695 0.02621 0.0
O199 O 0.53066 0.16706 0.05048 0.0
O200 O 0.71678 0.12472 0.84249 0.0
H201 H 0.61134 0.07631 0.8155 0.0
H202 H 0.68343 0.19518 0.04958 0.0
H203 H 0.58687 0.0503 0.71959 0.0
Zn204 Zn 0.84783 0.62323 0.65939 0.0
C205 C 0.90997 0.58328 0.5219 0.0
N206 N 0.88474 0.56421 0.53412 0.0
C207 C 0.86021 0.5758 0.57603 0.0
N208 N 0.8703 0.60086 0.59051 0.0
N209 N 0.90164 0.60567 0.55571 0.0
C210 C 0.99888 0.63654 0.5185 0.0
O211 O 0.99482 0.63592 0.58448 0.0
O212 O 0.79176 0.6266 0.63671 0.0
Zn213 Zn 0.91749 0.64038 0.52753 0.0
N214 N 0.85531 0.60584 0.74627 0.0
C215 C 0.87888 0.56917 0.80857 0.0
C216 C 0.87352 0.58222 0.74758 0.0
C217 C 0.84495 0.61792 0.8049 0.0
N218 N 0.86794 0.58095 0.86672 0.0
C219 C 0.85166 0.60521 0.86693 0.0
O220 O 0.91862 0.66851 0.60025 0.0
C221 C 0.89734 0.675 0.64958 0.0
O222 O 0.87087 0.6599 0.67028 0.0
H223 H 0.88471 0.57369 0.70212 0.0
H224 H 0.83216 0.63726 0.80324 0.0
C225 C 0.88304 0.65051 0.39656 0.0
C226 C 0.85232 0.65741 0.35392 0.0
C227 C 0.81549 0.66722 0.45157 0.0
C228 C 0.84557 0.65989 0.49291 0.0
N229 N 0.87873 0.65183 0.46479 0.0
N230 N 0.81952 0.66568 0.3836 0.0
H231 H 0.90996 0.64388 0.37709 0.0
C232 C 0.76794 0.6418 0.66508 0.0
O233 O 0.77924 0.65694 0.71502 0.0
O234 O 0.96939 0.63873 0.48162 0.0
H235 H 0.84236 0.66028 0.54712 0.0
H236 H 0.89263 0.55014 0.80992 0.0
H237 H 0.78889 0.67367 0.47322 0.0
Zn238 Zn 0.65268 0.4122 0.66931 0.0
C239 C 0.59846 0.4513 0.52164 0.0
N240 N 0.63284 0.4623 0.51244 0.0
C241 C 0.65531 0.44932 0.55564 0.0
N242 N 0.63599 0.43065 0.58912 0.0
N243 N 0.60087 0.43086 0.56554 0.0
C244 C 0.50002 0.41293 0.52665 0.0
O245 O 0.5063 0.42693 0.58137 0.0
O246 O 0.71072 0.41162 0.66674 0.0
Zn247 Zn 0.58036 0.39674 0.54075 0.0
N248 N 0.63355 0.43131 0.74764 0.0
C249 C 0.59442 0.46563 0.79076 0.0
C250 C 0.60897 0.4515 0.73648 0.0
C251 C 0.64263 0.4238 0.81173 0.0
N252 N 0.60371 0.45834 0.85453 0.0
C253 C 0.62709 0.43757 0.86699 0.0
O254 O 0.58127 0.36849 0.61442 0.0
C255 C 0.60441 0.36083 0.66017 0.0
O256 O 0.63252 0.37495 0.67861 0.0
H257 H 0.60096 0.45681 0.68576 0.0
H258 H 0.66157 0.40729 0.81932 0.0
C259 C 0.61158 0.39302 0.40597 0.0
C260 C 0.63729 0.38374 0.35697 0.0
C261 C 0.66492 0.35562 0.43918 0.0
C262 C 0.6393 0.36473 0.48727 0.0
N263 N 0.61332 0.38335 0.47007 0.0
N264 N 0.66339 0.36534 0.37546 0.0
H265 H 0.59099 0.40813 0.39401 0.0
C266 C 0.72501 0.40328 0.61165 0.0
O267 O 0.70194 0.39448 0.56463 0.0
O268 O 0.52691 0.39931 0.50183 0.0
H269 H 0.64072 0.3573 0.53824 0.0
H270 H 0.57544 0.48205 0.78234 0.0
H271 H 0.686 0.34102 0.45245 0.0
C272 C 0.45381 0.16001 0.09195 0.0
C273 C 0.47123 0.14286 0.04582 0.0
C274 C 0.41523 0.15747 0.10855 0.0
C275 C 0.39328 0.13729 0.07836 0.0
C276 C 0.41093 0.11936 0.03338 0.0
C277 C 0.44968 0.12234 0.0177 0.0
C278 C 0.39766 0.17698 0.15684 0.0
C279 C 0.38875 0.09731 0.00086 0.0
C280 C 0.29613 0.1233 0.1561 0.0
C281 C 0.27215 0.13834 0.11456 0.0
C282 C 0.33552 0.12218 0.14412 0.0
C283 C 0.35132 0.13653 0.08958 0.0
C284 C 0.32711 0.15143 0.04708 0.0
C285 C 0.28796 0.15211 0.05999 0.0
C286 C 0.36026 0.10584 0.19014 0.0
C287 C 0.34262 0.16691 0.98812 0.0
H288 H 0.47019 0.17581 0.11443 0.0
H289 H 0.4629 0.10885 0.98246 0.0
H290 H 0.37623 0.18904 0.12973 0.0
H291 H 0.38272 0.1665 0.19812 0.0
H292 H 0.41907 0.1904 0.17955 0.0
H293 H 0.40613 0.08584 0.96448 0.0
H294 H 0.37819 0.08374 0.04043 0.0
H295 H 0.36359 0.10527 0.97392 0.0
H296 H 0.28409 0.11222 0.19764 0.0
H297 H 0.2697 0.16363 0.02725 0.0
H298 H 0.38132 0.11863 0.21586 0.0
H299 H 0.37639 0.0912 0.16011 0.0
H300 H 0.34353 0.09526 0.22914 0.0
H301 H 0.36276 0.18207 0.00665 0.0
H302 H 0.3199 0.17683 0.95862 0.0
H303 H 0.35859 0.15368 0.95377 0.0
C304 C 0.21778 0.92307 0.12902 0.0
C305 C 0.24058 0.90354 0.09953 0.0
C306 C 0.17933 0.92593 0.11045 0.0
C307 C 0.16331 0.90872 0.06173 0.0
C308 C 0.1861 0.88873 0.03285 0.0
C309 C 0.22433 0.88646 0.05189 0.0
C310 C 0.15605 0.94759 0.14201 0.0
C311 C 0.17024 0.86992 0.98084 0.0
C312 C 0.05705 0.89667 0.04597 0.0
C313 C 0.04809 0.91064 0.98688 0.0
C314 C 0.09407 0.89682 0.07267 0.0
C315 C 0.12287 0.91144 0.03984 0.0
C316 C 0.11358 0.92655 0.98195 0.0
C317 C 0.07637 0.92591 0.95611 0.0
C318 C 0.10271 0.88043 0.13442 0.0
C319 C 0.14318 0.94291 0.94631 0.0
H320 H 0.23019 0.93653 0.16537 0.0
H321 H 0.24164 0.87129 0.02885 0.0
H322 H 0.14702 0.96175 0.10248 0.0
H323 H 0.12988 0.93936 0.16484 0.0
H324 H 0.17206 0.95844 0.18158 0.0
H325 H 0.19145 0.85508 0.96434 0.0
H326 H 0.14525 0.85944 0.00174 0.0
H327 H 0.16046 0.88103 0.9358 0.0
H328 H 0.03535 0.88499 0.07052 0.0
H329 H 0.06959 0.9371 0.91108 0.0
H330 H 0.11771 0.89243 0.17296 0.0
H331 H 0.12184 0.86398 0.12034 0.0
H332 H 0.07664 0.87207 0.15749 0.0
H333 H 0.15386 0.95838 0.98101 0.0
H334 H 0.13186 0.95254 0.90009 0.0
H335 H 0.16776 0.93048 0.93188 0.0
C336 C 0.45128 0.39217 0.45085 0.0
C337 C 0.46175 0.41257 0.49494 0.0
C338 C 0.41426 0.39054 0.42438 0.0
C339 C 0.38714 0.41002 0.4414 0.0
C340 C 0.39815 0.43136 0.48324 0.0
C341 C 0.43514 0.43222 0.51005 0.0
C342 C 0.40374 0.36732 0.38061 0.0
C343 C 0.37054 0.45294 0.50112 0.0
C344 C 0.29395 0.41445 0.34221 0.0
C345 C 0.26888 0.40096 0.38508 0.0
C346 C 0.33264 0.41737 0.35927 0.0
C347 C 0.34648 0.40681 0.42092 0.0
C348 C 0.32129 0.39313 0.46405 0.0
C349 C 0.28303 0.39033 0.44559 0.0
C350 C 0.35878 0.43148 0.31105 0.0
C351 C 0.3347 0.38153 0.53022 0.0
H352 H 0.47168 0.37691 0.43881 0.0
H353 H 0.44315 0.44827 0.54322 0.0
H354 H 0.38289 0.35481 0.40762 0.0
H355 H 0.39002 0.37408 0.33323 0.0
H356 H 0.42877 0.35506 0.36747 0.0
H357 H 0.38426 0.46924 0.5295 0.0
H358 H 0.35762 0.46105 0.45445 0.0
H359 H 0.34721 0.44478 0.53231 0.0
H360 H 0.28334 0.42282 0.29547 0.0
H361 H 0.26402 0.37998 0.47938 0.0
H362 H 0.37902 0.4172 0.2888 0.0
H363 H 0.37581 0.44651 0.33821 0.0
H364 H 0.34301 0.44114 0.2692 0.0
H365 H 0.35836 0.36757 0.5211 0.0
H366 H 0.31173 0.37099 0.55743 0.0
H367 H 0.34572 0.39737 0.56348 0.0
C368 C 0.04521 0.64406 0.42381 0.0
C369 C 0.03735 0.63417 0.48845 0.0
C370 C 0.08247 0.64384 0.39795 0.0
C371 C 0.11237 0.63295 0.43706 0.0
C372 C 0.10404 0.62156 0.50065 0.0
C373 C 0.06683 0.62264 0.52588 0.0
C374 C 0.0901 0.65628 0.3301 0.0
C375 C 0.13471 0.60903 0.54324 0.0
C376 C 0.20945 0.61778 0.36032 0.0
C377 C 0.23123 0.63904 0.38391 0.0
C378 C 0.17049 0.61577 0.37564 0.0
C379 C 0.15279 0.6356 0.41492 0.0
C380 C 0.17439 0.65754 0.43665 0.0
C381 C 0.21324 0.65892 0.42123 0.0
C382 C 0.14868 0.59189 0.35219 0.0
C383 C 0.15668 0.67931 0.47794 0.0
H384 H 0.02254 0.65291 0.39451 0.0
H385 H 0.06089 0.61463 0.57549 0.0
H386 H 0.10766 0.67419 0.33711 0.0
H387 H 0.10641 0.6426 0.2975 0.0
H388 H 0.0635 0.66188 0.30348 0.0
H389 H 0.12298 0.59877 0.58817 0.0
H390 H 0.15107 0.59464 0.51281 0.0
H391 H 0.15487 0.62435 0.5608 0.0
H392 H 0.22307 0.60227 0.33164 0.0
H393 H 0.22967 0.67552 0.43935 0.0
H394 H 0.16529 0.57967 0.31626 0.0
H395 H 0.12167 0.5978 0.32763 0.0
H396 H 0.14128 0.57961 0.39656 0.0
H397 H 0.1311 0.68706 0.45191 0.0
H398 H 0.17664 0.69586 0.48705 0.0
H399 H 0.14742 0.67145 0.52755 0.0
C400 C 0.71668 0.92203 0.87465 0.0
C401 C 0.7388 0.90072 0.89694 0.0
C402 C 0.67808 0.92415 0.89245 0.0
C403 C 0.66115 0.90434 0.93275 0.0
C404 C 0.68313 0.88248 0.95375 0.0
C405 C 0.72162 0.88103 0.93598 0.0
C406 C 0.65571 0.9479 0.86968 0.0
C407 C 0.66611 0.86073 0.99594 0.0
C408 C 0.57479 0.91634 0.04352 0.0
C409 C 0.5457 0.90465 0.00548 0.0
C410 C 0.61207 0.91775 0.01865 0.0
C411 C 0.62077 0.90655 0.95496 0.0
C412 C 0.59128 0.8954 0.91548 0.0
C413 C 0.55403 0.89485 0.94089 0.0
C414 C 0.64241 0.93053 0.06151 0.0
C415 C 0.59935 0.88297 0.84771 0.0
H416 H 0.72975 0.93742 0.8448 0.0
H417 H 0.73836 0.86443 0.95315 0.0
H418 H 0.62963 0.94167 0.84258 0.0
H419 H 0.64653 0.95942 0.91441 0.0
H420 H 0.67246 0.96094 0.836 0.0
H421 H 0.68651 0.84446 0.00535 0.0
H422 H 0.65677 0.86871 0.04539 0.0
H423 H 0.64066 0.85255 0.97036 0.0
H424 H 0.56849 0.92424 0.09312 0.0
H425 H 0.53167 0.88583 0.91114 0.0
H426 H 0.65822 0.9453 0.0314 0.0
H427 H 0.66313 0.91546 0.07839 0.0
H428 H 0.63045 0.94038 0.10685 0.0
H429 H 0.6153 0.89681 0.81505 0.0
H430 H 0.57298 0.87698 0.82098 0.0
H431 H 0.61743 0.86531 0.85489 0.0
C432 C 0.81399 0.11475 0.78662 0.0
C433 C 0.78331 0.11645 0.83148 0.0
C434 C 0.85169 0.1172 0.80975 0.0
C435 C 0.85899 0.12082 0.87966 0.0
C436 C 0.82812 0.12111 0.92548 0.0
C437 C 0.79075 0.11931 0.90081 0.0
C438 C 0.88363 0.11692 0.75903 0.0
C439 C 0.83448 0.12407 0.00056 0.0
C440 C 0.95982 0.11246 0.94898 0.0
C441 C 0.97204 0.13868 0.95421 0.0
C442 C 0.92331 0.10622 0.92435 0.0
C443 C 0.89836 0.12669 0.90426 0.0
C444 C 0.91076 0.15315 0.90875 0.0
C445 C 0.94728 0.15879 0.93359 0.0
C446 C 0.91139 0.07776 0.92032 0.0
C447 C 0.88531 0.17562 0.88766 0.0
H448 H 0.80851 0.11236 0.73305 0.0
H449 H 0.76726 0.12017 0.93603 0.0
H450 H 0.8976 0.13648 0.75809 0.0
H451 H 0.90548 0.10231 0.77391 0.0
H452 H 0.87356 0.1122 0.70718 0.0
H453 H 0.80793 0.12125 0.02989 0.0
H454 H 0.85584 0.10959 0.01837 0.0
H455 H 0.84582 0.14398 0.01152 0.0
H456 H 0.9788 0.09675 0.96406 0.0
H457 H 0.95633 0.17912 0.93719 0.0
H458 H 0.90247 0.07288 0.86807 0.0
H459 H 0.88664 0.07434 0.95378 0.0
H460 H 0.93454 0.06415 0.9353 0.0
H461 H 0.8761 0.17295 0.83443 0.0
H462 H 0.89954 0.19504 0.89237 0.0
H463 H 0.85936 0.1758 0.91936 0.0
C464 C 0.70015 0.6563 0.67784 0.0
C465 C 0.72793 0.64266 0.64106 0.0
C466 C 0.66232 0.65748 0.65515 0.0
C467 C 0.65191 0.64474 0.59416 0.0
C468 C 0.67974 0.63074 0.55717 0.0
C469 C 0.71737 0.63 0.58083 0.0
C470 C 0.63347 0.67248 0.69629 0.0
C471 C 0.66982 0.61672 0.49222 0.0
C472 C 0.54728 0.63058 0.55896 0.0
C473 C 0.53738 0.65161 0.51642 0.0
C474 C 0.58429 0.62822 0.58533 0.0
C475 C 0.6123 0.64699 0.56761 0.0
C476 C 0.60253 0.66807 0.5242 0.0
C477 C 0.56526 0.67018 0.49945 0.0
C478 C 0.59337 0.60552 0.63174 0.0
C479 C 0.63149 0.68849 0.5039 0.0
H480 H 0.70795 0.66611 0.72448 0.0
H481 H 0.73866 0.61973 0.55152 0.0
H482 H 0.62161 0.68887 0.66582 0.0
H483 H 0.60949 0.65937 0.70988 0.0
H484 H 0.64583 0.68074 0.74343 0.0
H485 H 0.69478 0.60685 0.46915 0.0
H486 H 0.64765 0.6017 0.50201 0.0
H487 H 0.65794 0.6309 0.45517 0.0
H488 H 0.52603 0.61606 0.57223 0.0
H489 H 0.55804 0.68645 0.46648 0.0
H490 H 0.61078 0.61208 0.67537 0.0
H491 H 0.61012 0.59062 0.60365 0.0
H492 H 0.56725 0.59599 0.65136 0.0
H493 H 0.64289 0.69845 0.54953 0.0
H494 H 0.61941 0.70364 0.46959 0.0
H495 H 0.65575 0.67887 0.47811 0.0
C496 C 0.79228 0.41392 0.64648 0.0
C497 C 0.76645 0.40467 0.59787 0.0
C498 C 0.83159 0.4144 0.63324 0.0
C499 C 0.84532 0.40551 0.5699 0.0
C500 C 0.8192 0.39713 0.51992 0.0
C501 C 0.78026 0.39677 0.5345 0.0
C502 C 0.8585 0.42369 0.6876 0.0
C503 C 0.83248 0.3879 0.45134 0.0
C504 C 0.94604 0.419 0.5076 0.0
C505 C 0.96402 0.39491 0.5212 0.0
C506 C 0.90773 0.42318 0.52507 0.0
C507 C 0.88695 0.40281 0.55708 0.0
C508 C 0.90528 0.37873 0.57226 0.0
C509 C 0.94344 0.3751 0.55426 0.0
C510 C 0.88962 0.44939 0.50915 0.0
C511 C 0.88423 0.35639 0.6058 0.0
H512 H 0.78186 0.42044 0.6952 0.0
H513 H 0.76061 0.38997 0.49608 0.0
H514 H 0.87561 0.40684 0.70615 0.0
H515 H 0.87857 0.43841 0.66678 0.0
H516 H 0.84331 0.43255 0.73118 0.0
H517 H 0.80847 0.38322 0.41689 0.0
H518 H 0.85032 0.40326 0.42735 0.0
H519 H 0.8503 0.37003 0.45711 0.0
H520 H 0.96176 0.43451 0.48259 0.0
H521 H 0.957 0.35646 0.5654 0.0
H522 H 0.88643 0.4608 0.55661 0.0
H523 H 0.86088 0.44678 0.48712 0.0
H524 H 0.90703 0.46115 0.47348 0.0
H525 H 0.87093 0.36325 0.65342 0.0
H526 H 0.90306 0.33946 0.61753 0.0
H527 H 0.86107 0.34945 0.57214 0.0
C528 C 0.06975 0.31813 0.32589 0.0
C529 C 0.09772 0.33498 0.29971 0.0
C530 C 0.06651 0.2919 0.30361 0.0
C531 C 0.09175 0.28221 0.25378 0.0
C532 C 0.11912 0.29937 0.22548 0.0
C533 C 0.1218 0.32544 0.24877 0.0
C534 C 0.03692 0.2743 0.33508 0.0
C535 C 0.14649 0.28995 0.17202 0.0
C536 C 0.11739 0.20952 0.24613 0.0
C537 C 0.09685 0.20084 0.18943 0.0
C538 C 0.11487 0.23565 0.26892 0.0
C539 C 0.09137 0.25377 0.23412 0.0
C540 C 0.06944 0.24495 0.17839 0.0
C541 C 0.07235 0.2186 0.15682 0.0
C542 C 0.1385 0.24407 0.32892 0.0
C543 C 0.044 0.26359 0.13993 0.0
H544 H 0.05099 0.32518 0.3653 0.0
H545 H 0.14337 0.33823 0.22776 0.0
H546 H 0.01973 0.26459 0.29522 0.0
H547 H 0.05109 0.25853 0.36456 0.0
H548 H 0.01759 0.28527 0.36929 0.0
H549 H 0.16451 0.30612 0.15213 0.0
H550 H 0.16526 0.27453 0.19348 0.0
H551 H 0.13073 0.28097 0.12925 0.0
H552 H 0.13618 0.19599 0.27213 0.0
H553 H 0.05644 0.21218 0.11287 0.0
H554 H 0.12039 0.2539 0.36715 0.0
H555 H 0.16016 0.25855 0.31248 0.0
H556 H 0.15325 0.22723 0.35331 0.0
H557 H 0.02486 0.27414 0.17518 0.0
H558 H 0.02649 0.25327 0.10141 0.0
H559 H 0.06156 0.27863 0.11405 0.0
C560 C 0.42567 0.71981 0.33734 0.0
C561 C 0.40055 0.70134 0.30909 0.0
C562 C 0.42811 0.74559 0.31186 0.0
C563 C 0.40501 0.75318 0.25654 0.0
C564 C 0.38046 0.73443 0.22646 0.0
C565 C 0.37846 0.70882 0.25313 0.0
C566 C 0.45467 0.76492 0.34542 0.0
C567 C 0.35556 0.7416 0.16706 0.0
C568 C 0.37887 0.82541 0.23422 0.0
C569 C 0.40315 0.83329 0.18175 0.0
C570 C 0.37964 0.79959 0.25962 0.0
C571 C 0.40524 0.781 0.23193 0.0
C572 C 0.43034 0.7889 0.1799 0.0
C573 C 0.42904 0.8149 0.15554 0.0
C574 C 0.35253 0.79207 0.31538 0.0
C575 C 0.45806 0.76973 0.149 0.0
H576 H 0.44283 0.71436 0.38063 0.0
H577 H 0.3591 0.69475 0.23058 0.0
H578 H 0.47382 0.77385 0.30737 0.0
H579 H 0.43804 0.78114 0.36843 0.0
H580 H 0.47224 0.75559 0.38547 0.0
H581 H 0.33971 0.7244 0.14693 0.0
H582 H 0.33481 0.75688 0.18253 0.0
H583 H 0.37298 0.75006 0.12579 0.0
H584 H 0.35881 0.83938 0.25512 0.0
H585 H 0.44788 0.82065 0.11489 0.0
H586 H 0.36849 0.784 0.3591 0.0
H587 H 0.33307 0.7764 0.29733 0.0
H588 H 0.33524 0.80901 0.33299 0.0
H589 H 0.47623 0.76096 0.18892 0.0
H590 H 0.47661 0.77915 0.11066 0.0
H591 H 0.44235 0.75337 0.12453 0.0
C592 C 0.92952 0.81633 0.82799 0.0
C593 C 0.9023 0.83446 0.80476 0.0
C594 C 0.93039 0.79028 0.8039 0.0
C595 C 0.90355 0.78199 0.75497 0.0
C596 C 0.87646 0.80027 0.73031 0.0
C597 C 0.87609 0.82619 0.75554 0.0
C598 C 0.9597 0.77148 0.83174 0.0
C599 C 0.8475 0.79235 0.67779 0.0
C600 C 0.92414 0.72091 0.64877 0.0
C601 C 0.90124 0.70178 0.6798 0.0
C602 C 0.92542 0.74694 0.673 0.0
C603 C 0.90353 0.75414 0.73009 0.0
C604 C 0.88119 0.73478 0.76281 0.0
C605 C 0.88019 0.70894 0.73719 0.0
C606 C 0.94959 0.76691 0.63651 0.0
C607 C 0.85777 0.74146 0.8243 0.0
H608 H 0.94986 0.82232 0.86617 0.0
H609 H 0.85495 0.83993 0.73706 0.0
H610 H 0.94537 0.75476 0.8571 0.0
H611 H 0.97693 0.76319 0.78997 0.0
H612 H 0.97907 0.78108 0.86862 0.0
H613 H 0.829 0.80902 0.66244 0.0
H614 H 0.862 0.78458 0.63225 0.0
H615 H 0.82933 0.77635 0.69788 0.0
H616 H 0.94042 0.71575 0.60429 0.0
H617 H 0.86248 0.69439 0.7618 0.0
H618 H 0.96997 0.7761 0.6722 0.0
H619 H 0.93135 0.78286 0.6162 0.0
H620 H 0.96575 0.75806 0.59404 0.0
H621 H 0.87605 0.75029 0.864 0.0
H622 H 0.8433 0.72394 0.84577 0.0
H623 H 0.83595 0.7563 0.81075 0.0
C624 C 0.57678 0.21812 0.83444 0.0
C625 C 0.60332 0.20041 0.80722 0.0
C626 C 0.57425 0.24423 0.81103 0.0
C627 C 0.59866 0.25293 0.75879 0.0
C628 C 0.6247 0.23495 0.72974 0.0
C629 C 0.62678 0.20901 0.75433 0.0
C630 C 0.54611 0.26271 0.8435 0.0
C631 C 0.65106 0.24328 0.67359 0.0
C632 C 0.57574 0.31538 0.65936 0.0
C633 C 0.60054 0.33379 0.68878 0.0
C634 C 0.57433 0.28917 0.68227 0.0
C635 C 0.59811 0.28106 0.73624 0.0
C636 C 0.62237 0.29972 0.76742 0.0
C637 C 0.62337 0.32574 0.74329 0.0
C638 C 0.54808 0.26995 0.64753 0.0
C639 C 0.64797 0.29205 0.82546 0.0
H640 H 0.55854 0.21182 0.8754 0.0
H641 H 0.64727 0.19556 0.73257 0.0
H642 H 0.56149 0.27894 0.86917 0.0
H643 H 0.52766 0.27174 0.8044 0.0
H644 H 0.52787 0.25262 0.88119 0.0
H645 H 0.66827 0.22664 0.65398 0.0
H646 H 0.63453 0.25183 0.63115 0.0
H647 H 0.67059 0.2588 0.69223 0.0
H648 H 0.55804 0.32126 0.61711 0.0
H649 H 0.64252 0.33973 0.76675 0.0
H650 H 0.52929 0.26038 0.6851 0.0
H651 H 0.56498 0.25419 0.6231 0.0
H652 H 0.53016 0.27956 0.60842 0.0
H653 H 0.63105 0.28304 0.86663 0.0
H654 H 0.66381 0.30912 0.84636 0.0
H655 H 0.66874 0.27707 0.80827 0.0
C656 C 0.33779 0.98853 0.14911 0.0
C657 C 0.32641 0.96946 0.10216 0.0
C658 C 0.31351 1.00916 0.16728 0.0
C659 C 0.27776 1.01124 0.13523 0.0
C660 C 0.26505 0.99081 0.09176 0.0
C661 C 0.28969 0.97009 0.07579 0.0
C662 C 0.32791 0.02992 0.21545 0.0
C663 C 0.22706 0.99217 0.05639 0.0
C664 C 0.19659 0.05755 0.16554 0.0
C665 C 0.20095 0.07459 0.11055 0.0
C666 C 0.22424 0.03858 0.18034 0.0
C667 C 0.2561 0.03625 0.13754 0.0
C668 C 0.2628 0.05556 0.08729 0.0
C669 C 0.23484 0.07446 0.07409 0.0
C670 C 0.21724 0.01925 0.23677 0.0
C671 C 0.29721 0.05442 0.04207 0.0
H672 H 0.36678 0.98872 0.16728 0.0
H673 H 0.28146 0.95568 0.03806 0.0
H674 H 0.34458 0.04467 0.18683 0.0
H675 H 0.30443 0.04024 0.24172 0.0
H676 H 0.3471 0.02108 0.25387 0.0
H677 H 0.20412 0.99639 0.09309 0.0
H678 H 0.22738 1.00844 0.01899 0.0
H679 H 0.22011 0.97359 0.02948 0.0
H680 H 0.16998 0.05698 0.19238 0.0
H681 H 0.23786 0.08748 0.03101 0.0
H682 H 0.24407 1.01464 0.26378 0.0
H683 H 0.20609 1.00062 0.21539 0.0
H684 H 0.1962 0.02692 0.27363 0.0
H685 H 0.32333 0.05149 0.07245 0.0
H686 H 0.30051 0.07264 0.01164 0.0
H687 H 0.29453 0.03745 0.00705 0.0
C688 C 0.22739 0.46418 0.4587 0.0
C689 C 0.19868 0.45775 0.41284 0.0
C690 C 0.25336 0.48423 0.4441 0.0
C691 C 0.24972 0.49846 0.38277 0.0
C692 C 0.22295 0.49039 0.3338 0.0
C693 C 0.19787 0.46992 0.34942 0.0
C694 C 0.28204 0.49186 0.49743 0.0
C695 C 0.21796 0.50501 0.268 0.0
C696 C 0.28337 0.56787 0.41236 0.0
C697 C 0.3212 0.56563 0.39221 0.0
C698 C 0.25818 0.54677 0.40323 0.0
C699 C 0.27159 0.5231 0.37373 0.0
C700 C 0.30859 0.52196 0.34673 0.0
C701 C 0.33311 0.54321 0.3569 0.0
C702 C 0.2186 0.54874 0.43185 0.0
C703 C 0.32382 0.49708 0.3153 0.0
H704 H 0.22764 0.45497 0.50814 0.0
H705 H 0.17536 0.46537 0.31455 0.0
H706 H 0.27199 0.50975 0.52412 0.0
H707 H 0.28608 0.47601 0.53541 0.0
H708 H 0.30989 0.49656 0.47444 0.0
H709 H 0.20229 0.49304 0.23014 0.0
H710 H 0.2015 0.52326 0.27745 0.0
H711 H 0.24572 0.51085 0.24635 0.0
H712 H 0.27459 0.5849 0.44141 0.0
H713 H 0.3628 0.541 0.34389 0.0
H714 H 0.21608 0.53575 0.47668 0.0
H715 H 0.19747 0.54195 0.39403 0.0
H716 H 0.21145 0.56912 0.44756 0.0
H717 H 0.32677 0.48187 0.35507 0.0
H718 H 0.35193 0.50011 0.29118 0.0
H719 H 0.30371 0.48935 0.27695 0.0
C720 C 0.72473 0.07142 0.97666 0.0
C721 C 0.6967 0.07529 0.92764 0.0
C722 C 0.75325 0.05255 0.96712 0.0
C723 C 0.75262 0.03667 0.90819 0.0
C724 C 0.72592 0.04181 0.8566 0.0
C725 C 0.69832 0.06116 0.86706 0.0
C726 C 0.78234 0.04833 0.02218 0.0
C727 C 0.72432 0.02542 0.793 0.0
C728 C 0.84054 0.9958 0.8819 0.0
C729 C 0.83037 0.97198 0.91289 0.0
C730 C 0.81461 1.01645 0.87559 0.0
C731 C 0.778 1.01352 0.90321 0.0
C732 C 0.76684 0.98907 0.93164 0.0
C733 C 0.79332 0.96845 0.93604 0.0
C734 C 0.82737 0.0421 0.84442 0.0
C735 C 0.72799 0.98545 0.96226 0.0
H736 H 0.72298 0.08205 0.0241 0.0
H737 H 0.67612 0.06346 0.83021 0.0
H738 H 0.7775 0.02897 0.04655 0.0
H739 H 0.81136 0.04808 0.00053 0.0
H740 H 0.78103 0.06388 0.0616 0.0
H741 H 0.70563 0.03438 0.75397 0.0
H742 H 0.75308 0.02277 0.77136 0.0
H743 H 0.71315 1.00559 0.80536 0.0
H744 H 0.86976 0.99914 0.86725 0.0
H745 H 0.786 0.95048 0.96244 0.0
H746 H 0.82956 0.05741 0.8842 0.0
H747 H 0.80625 0.04916 0.80694 0.0
H748 H 0.85534 0.04024 0.81903 0.0
H749 H 0.72268 0.96476 0.9775 0.0
H750 H 0.70572 0.99167 0.92595 0.0
H751 H 0.72527 0.99812 0.00769 0.0
C752 C 0.6938 0.47237 0.64221 0.0
C753 C 0.69122 0.46114 0.57779 0.0
C754 C 0.72228 0.49066 0.65767 0.0
C755 C 0.74871 0.49773 0.60722 0.0
C756 C 0.74815 0.48467 0.54387 0.0
C757 C 0.71897 0.46677 0.5296 0.0
C758 C 0.72201 0.50394 0.7259 0.0
C759 C 0.77671 0.49097 0.48942 0.0
C760 C 0.79179 0.56545 0.58875 0.0
C761 C 0.82947 0.56032 0.60633 0.0
C762 C 0.76408 0.54571 0.59469 0.0
C763 C 0.77479 0.52031 0.61755 0.0
C764 C 0.81212 0.51583 0.64084 0.0
C765 C 0.83906 0.53589 0.63461 0.0
C766 C 0.7243 0.55122 0.56998 0.0
C767 C 0.82462 0.4891 0.66559 0.0
H768 H 0.6719 0.46856 0.67879 0.0
H769 H 0.71664 0.45821 0.47955 0.0
H770 H 0.75121 0.50578 0.74642 0.0
H771 H 0.71034 0.52411 0.72047 0.0
H772 H 0.70426 0.49308 0.76294 0.0
H773 H 0.77446 0.47735 0.44565 0.0
H774 H 0.77216 0.51137 0.47117 0.0
H775 H 0.806 0.48984 0.50992 0.0
H776 H 0.78477 0.58383 0.56409 0.0
H777 H 0.86852 0.5317 0.64658 0.0
H778 H 0.70303 0.54321 0.60574 0.0
H779 H 0.71985 0.54139 0.5205 0.0
H780 H 0.71904 0.57258 0.56351 0.0
H781 H 0.80372 0.48088 0.70172 0.0
H782 H 0.85291 0.4898 0.69042 0.0
H783 H 0.82624 0.47535 0.62215 0.0
C784 C 0.04967 0.06883 0.02781 0.0
C785 C 0.08405 0.06946 0.99257 0.0
C786 C 0.02405 0.04798 0.01853 0.0
C787 C 0.03421 0.02666 0.97593 0.0
C788 C 0.06803 0.02791 0.93779 0.0
C789 C 0.09184 0.04977 0.94486 0.0
C790 C 0.9873 0.04819 0.05767 0.0
C791 C 0.08034 1.00549 0.89277 0.0
C792 C 0.97964 0.96473 0.02183 0.0
C793 C 0.95393 0.96336 0.96816 0.0
C794 C 0.00854 0.98387 0.02176 0.0
C795 C 0.00905 1.00335 0.97021 0.0
C796 C 0.98382 1.00129 0.91491 0.0
C797 C 0.95785 0.98062 0.91341 0.0
C798 C 0.03759 0.98373 0.07785 0.0
C799 C 0.98217 0.02135 0.8585 0.0
H800 H 0.04407 0.08338 0.06658 0.0
H801 H 0.11866 0.05012 0.91802 0.0
H802 H 0.96389 0.039 0.02846 0.0
H803 H 0.99103 0.03688 0.10511 0.0
H804 H 0.97883 0.06854 0.0716 0.0
H805 H 0.11051 1.00728 0.8772 0.0
H806 H 0.07651 0.9864 0.91901 0.0
H807 H 0.06256 1.00519 0.84652 0.0
H808 H 0.97655 0.95144 0.06431 0.0
H809 H 0.93783 0.97968 0.87209 0.0
H810 H 0.03 0.99877 0.11611 0.0
H811 H 0.0662 0.9886 0.05798 0.0
H812 H 0.03895 0.96428 0.10338 0.0
H813 H 0.99438 0.04068 0.87274 0.0
H814 H 0.95236 0.02457 0.8419 0.0
H815 H 0.99791 1.01363 0.81422 0.0
C816 C 0.53768 0.06583 -5e-05 0.0
C817 C 0.57217 0.06413 0.96563 0.0
C818 C 0.51151 0.04491 0.99694 0.0
C819 C 0.52074 0.02178 0.95995 0.0
C820 C 0.55518 0.02041 0.9239 0.0
C821 C 0.5802 0.04169 0.9266 0.0
C822 C 0.47459 0.04713 0.03511 0.0
C823 C 0.56651 0.99601 0.88511 0.0
C824 C 0.47079 0.96101 0.02477 0.0
C825 C 0.4402 0.95911 0.97988 0.0
C826 C 0.49885 0.98024 0.01609 0.0
C827 C 0.49542 0.99845 0.96229 0.0
C828 C 0.46629 0.99525 0.91365 0.0
C829 C 0.43912 0.9754 0.92282 0.0
C830 C 0.53027 0.98248 0.0678 0.0
C831 C 0.46163 1.01425 0.85563 0.0
H832 H 0.53179 0.08294 0.03085 0.0
H833 H 0.60705 0.04034 0.90009 0.0
H834 H 0.45036 0.04414 4e-05 0.0
H835 H 0.47299 0.03153 0.07419 0.0
H836 H 0.47134 0.06654 0.06025 0.0
H837 H 0.59313 0.99886 0.856 0.0
H838 H 0.57078 0.97942 0.92077 0.0
H839 H 0.54363 0.99015 0.8496 0.0
H840 H 0.47054 0.9495 0.07081 0.0
H841 H 0.4148 0.97439 0.88918 0.0
H842 H 0.5278 1.00142 0.09533 0.0
H843 H 0.55829 0.98233 0.04228 0.0
H844 H 0.52954 0.96622 0.10526 0.0
H845 H 0.45159 0.03346 0.8754 0.0
H846 H 0.44078 1.00707 0.81767 0.0
H847 H 0.48916 1.01774 0.83007 0.0
C848 C 0.04482 0.46938 0.50994 0.0
C849 C 0.07843 0.47073 0.47291 0.0
C850 C 0.01951 0.49085 0.51031 0.0
C851 C 0.02874 0.51411 0.47387 0.0
C852 C 0.06245 0.51525 0.43577 0.0
C853 C 0.08653 0.49345 0.43502 0.0
C854 C 0.98331 0.48892 0.55066 0.0
C855 C 0.07371 0.53974 0.39737 0.0
C856 C 0.9466 0.55982 0.43652 0.0
C857 C 0.94689 0.57582 0.49416 0.0
C858 C 0.97417 0.54028 0.42739 0.0
C859 C 1.00329 0.53738 0.47614 0.0
C860 C 0.00641 0.55572 0.52974 0.0
C861 C 0.9777 0.57452 0.53875 0.0
C862 C 0.96965 0.52102 0.36979 0.0
C863 C 0.03813 0.55397 0.58094 0.0
H864 H 0.03883 0.45197 0.53965 0.0
H865 H 0.11257 0.49445 0.40593 0.0
H866 H 0.9832 0.50407 0.59104 0.0
H867 H 0.95853 0.49287 0.51748 0.0
H868 H 0.97972 0.46929 0.57443 0.0
H869 H 0.10063 0.53711 0.36901 0.0
H870 H 0.05107 0.54535 0.36114 0.0
H871 H 0.07723 0.55641 0.43306 0.0
H872 H 0.9222 0.56041 0.40301 0.0
H873 H 0.97711 0.58601 0.58487 0.0
H874 H 0.96006 0.50179 0.39011 0.0
H875 H 0.99712 0.51767 0.34389 0.0
H876 H 0.94852 0.52787 0.33194 0.0
H877 H 0.0361 0.53516 0.6091 0.0
H878 H 0.03736 0.57043 0.61786 0.0
H879 H 0.06599 0.55416 0.5549 0.0
C880 C 0.43221 0.55731 0.56686 0.0
C881 C 0.43529 0.57612 0.51532 0.0
C882 C 0.45909 0.53718 0.57369 0.0
C883 C 0.49071 0.53661 0.52983 0.0
C884 C 0.49661 0.55765 0.48397 0.0
C885 C 0.46841 0.577 0.47642 0.0
C886 C 0.4515 0.51512 0.62298 0.0
C887 C 0.53104 0.55852 0.43881 0.0
C888 C 0.5722 0.49127 0.57389 0.0
C889 C 0.56731 0.47055 0.52768 0.0
C890 C 0.54758 0.5128 0.57501 0.0
C891 C 0.51655 0.51345 0.52991 0.0
C892 C 0.51049 0.49211 0.48465 0.0
C893 C 0.53658 0.47108 0.48299 0.0
C894 C 0.55578 0.53538 0.62245 0.0
C895 C 0.47692 0.49179 0.43717 0.0
H896 H 0.40634 0.55647 0.59647 0.0
H897 H 0.47054 0.59104 0.43536 0.0
H898 H 0.44386 0.49706 0.5945 0.0
H899 H 0.47724 0.51057 0.65311 0.0
H900 H 0.42792 0.51987 0.65813 0.0
H901 H 0.53432 0.578 0.41405 0.0
H902 H 0.5572 0.55417 0.46808 0.0
H903 H 0.52833 0.54329 0.39893 0.0
H904 H 0.59669 0.49128 0.60714 0.0
H905 H 0.53339 0.45543 0.44619 0.0
H906 H 0.53142 0.5386 0.65689 0.0
H907 H 0.55957 0.55368 0.59276 0.0
H908 H 0.58169 0.53206 0.65341 0.0
H909 H 0.45024 0.49472 0.46594 0.0
H910 H 0.47482 0.47303 0.40856 0.0
H911 H 0.47931 0.50825 0.40064 0.0
C912 C 0.10279 0.14001 0.75298 0.0
C913 C 0.13636 0.14713 0.78639 0.0
C914 C 0.10338 0.13224 0.68496 0.0
C915 C 0.13843 0.13122 0.65008 0.0
C916 C 0.17246 0.13796 0.68397 0.0
C917 C 0.17094 0.14611 0.75158 0.0
C918 C 0.06644 0.12557 0.65009 0.0
C919 C 0.21041 0.13664 0.64876 0.0
C920 C 0.14013 0.08923 0.49177 0.0
C921 C 0.13659 0.10827 0.44097 0.0
C922 C 0.14198 0.09649 0.56006 0.0
C923 C 0.13936 0.12339 0.57784 0.0
C924 C 0.13638 0.14275 0.52667 0.0
C925 C 0.13528 0.13496 0.45869 0.0
C926 C 0.14593 0.07534 0.6132 0.0
C927 C 0.13296 0.17161 0.54379 0.0
H928 H 0.07593 0.14123 0.77942 0.0
H929 H 0.19694 0.15151 0.77752 0.0
H930 H 0.06209 0.13883 0.6062 0.0
H931 H 0.06745 0.10516 0.63034 0.0
H932 H 0.04164 0.1274 0.68438 0.0
H933 H 0.23434 0.14167 0.68303 0.0
H934 H 0.21511 0.11657 0.62833 0.0
H935 H 0.21074 0.15041 0.6053 0.0
H936 H 0.14115 0.06859 0.47803 0.0
H937 H 0.13172 0.1497 0.41962 0.0
H938 H 0.12011 0.07487 0.64519 0.0
H939 H 0.17033 0.07975 0.64688 0.0
H940 H 0.1501 0.05552 0.59073 0.0
H941 H 0.10671 0.17501 0.57346 0.0
H942 H 0.13204 0.18423 0.49797 0.0
H943 H 0.15724 0.17789 0.5757 0.0
C944 C 0.41971 0.92354 0.46811 0.0
C945 C 0.38716 0.92654 0.42795 0.0
C946 C 0.4171 0.91554 0.53567 0.0
C947 C 0.38095 0.91094 0.56432 0.0
C948 C 0.34786 0.91429 0.52438 0.0
C949 C 0.35137 0.92183 0.4563 0.0
C950 C 0.4531 0.91167 0.5761 0.0
C951 C 0.30882 0.91001 0.55365 0.0
C952 C 0.37716 0.86638 0.71789 0.0
C953 C 0.37713 0.8846 0.77109 0.0
C954 C 0.37804 0.8747 0.65037 0.0
C955 C 0.3781 0.90194 0.63564 0.0
C956 C 0.37726 0.92048 0.68912 0.0
C957 C 0.37706 0.91158 0.75632 0.0
C958 C 0.37972 0.85433 0.59485 0.0
C959 C 0.37671 0.94968 0.67533 0.0
H960 H 0.44745 0.92701 0.4462 0.0
H961 H 0.32612 0.92452 0.42569 0.0
H962 H 0.45294 0.92464 0.62119 0.0
H963 H 0.45473 0.89108 0.5945 0.0
H964 H 0.47899 0.91596 0.5461 0.0
H965 H 0.28592 0.91429 0.51658 0.0
H966 H 0.30585 0.88934 0.57081 0.0
H967 H 0.30481 0.92277 0.59859 0.0
H968 H 0.37728 0.84551 0.72915 0.0
H969 H 0.37623 0.92575 0.79724 0.0
H970 H 0.4062 0.85686 0.56527 0.0
H971 H 0.3556 0.857 0.55942 0.0
H972 H 0.37891 0.83391 0.61482 0.0
H973 H 0.40304 0.95554 0.64862 0.0
H974 H 0.37438 0.96148 0.72243 0.0
H975 H 0.35248 0.95464 0.64176 0.0
C976 C 0.08318 0.42935 0.02015 0.0
C977 C 0.11666 0.42816 0.05855 0.0
C978 C 0.08265 0.42179 0.95198 0.0
C979 C 0.11664 0.41331 0.92083 0.0
C980 C 0.15071 0.41237 0.95904 0.0
C981 C 0.15026 0.41959 0.02769 0.0
C982 C 0.04557 0.42255 0.91354 0.0
C983 C 0.18764 0.40384 0.92728 0.0
C984 C 0.10957 0.36969 0.76547 0.0
C985 C 0.1145 0.38779 0.71275 0.0
C986 C 0.1099 0.37778 0.83324 0.0
C987 C 0.11613 0.4046 0.8489 0.0
C988 C 0.12119 0.42302 0.79589 0.0
C989 C 0.12 0.41443 0.72831 0.0
C990 C 0.10353 0.3576 0.88808 0.0
C991 C 0.12848 0.45172 0.81063 0.0
H992 H 0.05708 0.43586 0.04386 0.0
H993 H 0.17634 0.41907 0.05678 0.0
H994 H 0.04818 0.4356 0.8689 0.0
H995 H 0.03856 0.40259 0.89455 0.0
H996 H 0.02165 0.42965 0.94519 0.0
H997 H 0.21188 0.40514 0.96311 0.0
H998 H 0.18527 0.38325 0.90922 0.0
H999 H 0.19389 0.41628 0.88259 0.0
H1000 H 0.1052 0.34908 0.75361 0.0
H1001 H 0.12452 0.42842 0.6878 0.0
H1002 H 0.07884 0.36337 0.91952 0.0
H1003 H 0.12863 0.35673 0.92194 0.0
H1004 H 0.0983 0.33761 0.86733 0.0
H1005 H 0.10445 0.46012 0.83965 0.0
H1006 H 0.13233 0.46347 0.76381 0.0
H1007 H 0.1543 0.45376 0.84241 0.0
C1008 C 0.39855 0.64216 0.75318 0.0
C1009 C 0.36486 0.64904 0.71976 0.0
C1010 C 0.39811 0.6342 0.82111 0.0
C1011 C 0.36311 0.63279 0.85607 0.0
C1012 C 0.32899 0.63941 0.82231 0.0
C1013 C 0.33033 0.64769 0.75475 0.0
C1014 C 0.43515 0.62763 0.85574 0.0
C1015 C 0.29107 0.63772 0.85753 0.0
C1016 C 0.3618 0.58943 0.01206 0.0
C1017 C 0.36521 0.60799 0.06412 0.0
C1018 C 0.3599 0.59728 0.94421 0.0
C1019 C 0.36226 0.62434 0.92799 0.0
C1020 C 0.365 0.64324 0.98041 0.0
C1021 C 0.36622 0.63484 0.04797 0.0
C1022 C 0.35626 0.57658 0.8898 0.0
C1023 C 0.36808 0.67226 0.96506 0.0
H1024 H 0.4254 0.64366 0.72683 0.0
H1025 H 0.3042 0.6529 0.72898 0.0
H1026 H 0.4392 0.64058 0.90034 0.0
H1027 H 0.43454 0.60706 0.8744 0.0
H1028 H 0.45994 0.62995 0.82163 0.0
H1029 H 0.26709 0.64303 0.82366 0.0
H1030 H 0.28646 0.61745 0.87665 0.0
H1031 H 0.29072 0.65107 0.90188 0.0
H1032 H 0.36101 0.56866 0.02447 0.0
H1033 H 0.36969 0.64925 0.08789 0.0
H1034 H 0.3821 0.57655 0.85785 0.0
H1035 H 0.33182 0.58113 0.85636 0.0
H1036 H 0.35235 0.55654 0.91107 0.0
H1037 H 0.39443 0.67608 0.93603 0.0
H1038 H 0.36859 0.68448 0.01163 0.0
H1039 H 0.34388 0.67866 0.93312 0.0
C1040 C 0.88577 0.86577 0.26641 0.0
C1041 C 0.88297 0.88493 0.21571 0.0
C1042 C 0.88612 0.87276 0.33504 0.0
C1043 C 0.88242 0.89953 0.35353 0.0
C1044 C 0.87938 0.919 0.30246 0.0
C1045 C 0.88018 0.91149 0.23403 0.0
C1046 C 0.89059 0.85148 0.38773 0.0
C1047 C 0.8746 0.9477 0.32012 0.0
C1048 C 0.84861 0.9152 0.53208 0.0
C1049 C 0.88245 0.9233 0.56295 0.0
C1050 C 0.8481 0.90746 0.46376 0.0
C1051 C 0.8824 0.9072 0.4263 0.0
C1052 C 0.9168 0.91449 0.45827 0.0
C1053 C 0.91628 0.92283 0.52584 0.0
C1054 C 0.81073 0.90035 0.4311 0.0
C1055 C 0.95413 0.91374 0.42092 0.0
H1056 H 0.88799 0.84522 0.25223 0.0
H1057 H 0.87736 0.92629 0.19491 0.0
H1058 H 0.91555 0.85577 0.42022 0.0
H1059 H 0.86531 0.85105 0.42102 0.0
H1060 H 0.8943 0.83169 0.36488 0.0
H1061 H 0.87154 0.96029 0.27454 0.0
H1062 H 0.84914 0.95031 0.35238 0.0
H1063 H 0.89943 0.95466 0.34964 0.0
H1064 H 0.82237 0.91595 0.56053 0.0
H1065 H 0.94247 0.92908 0.54987 0.0
H1066 H 0.81204 0.88012 0.41026 0.0
H1067 H 0.805 0.91384 0.38818 0.0
H1068 H 0.78664 0.90151 0.46712 0.0
H1069 H 0.95874 0.89392 0.39886 0.0
H1070 H 0.97859 0.91857 0.4542 0.0
H1071 H 0.95357 0.92797 0.37846 0.0
C1072 C 0.6413 0.08574 0.51181 0.0
C1073 C 0.63864 0.105 0.56237 0.0
C1074 C 0.64176 0.0926 0.44314 0.0
C1075 C 0.63884 0.11938 0.42439 0.0
C1076 C 0.63673 0.13899 0.47519 0.0
C1077 C 0.63685 0.13159 0.54366 0.0
C1078 C 0.64475 0.07112 0.39064 0.0
C1079 C 0.63325 0.16775 0.45718 0.0
C1080 C 0.67079 0.14018 0.24919 0.0
C1081 C 0.63628 0.14146 0.21379 0.0
C1082 C 0.67206 0.13274 0.3174 0.0
C1083 C 0.63789 0.1268 0.35157 0.0
C1084 C 0.60292 0.12787 0.31608 0.0
C1085 C 0.60253 0.13505 0.24743 0.0
C1086 C 0.70997 0.13141 0.35301 0.0
C1087 C 0.56584 0.1219 0.35098 0.0
H1088 H 0.6427 0.06517 0.52604 0.0
H1089 H 0.63395 0.14654 0.58236 0.0
H1090 H 0.61884 0.07094 0.35869 0.0
H1091 H 0.66921 0.07496 0.3568 0.0
H1092 H 0.6483 0.05134 0.41365 0.0
H1093 H 0.63252 0.1806 0.5026 0.0
H1094 H 0.65743 0.17383 0.42496 0.0
H1095 H 0.60691 0.17102 0.42749 0.0
H1096 H 0.697 0.14501 0.22336 0.0
H1097 H 0.5757 0.13646 0.22079 0.0
H1098 H 0.71437 0.11146 0.37443 0.0
H1099 H 0.7105 0.14551 0.3958 0.0
H1100 H 0.73402 0.13599 0.31874 0.0
H1101 H 0.56648 0.1017 0.37217 0.0
H1102 H 0.54112 0.12357 0.31631 0.0
H1103 H 0.5617 0.13566 0.3939 0.0
C1104 C 0.82917 0.60286 0.98534 0.0
C1105 C 0.84434 0.61789 0.93269 0.0
C1106 C 0.82851 0.61246 0.05166 0.0
C1107 C 0.84428 0.63748 0.06584 0.0
C1108 C 0.858 0.65332 0.01227 0.0
C1109 C 0.85762 0.64336 0.94599 0.0
C1110 C 0.81273 0.59522 0.10706 0.0
C1111 C 0.87537 0.67997 0.02539 0.0
C1112 C 0.82245 0.66441 0.24015 0.0
C1113 C 0.85326 0.65489 0.27852 0.0
C1114 C 0.81986 0.65992 0.17034 0.0
C1115 C 0.849 0.64585 0.13737 0.0
C1116 C 0.88118 0.63745 0.17447 0.0
C1117 C 0.88282 0.64184 0.24447 0.0
C1118 C 0.78496 0.66905 0.13261 0.0
C1119 C 0.91319 0.62269 0.14071 0.0
H1120 H 0.81889 0.58316 0.97489 0.0
H1121 H 0.86996 0.65484 0.9054 0.0
H1122 H 0.83613 0.58865 0.14066 0.0
H1123 H 0.79234 0.60645 0.13852 0.0
H1124 H 0.79813 0.57752 0.08672 0.0
H1125 H 0.87972 0.69126 0.97794 0.0
H1126 H 0.85727 0.69172 0.05988 0.0
H1127 H 0.90331 0.67739 0.05053 0.0
H1128 H 0.79948 0.67479 0.26486 0.0
H1129 H 0.90687 0.63411 0.27188 0.0
H1130 H 0.76793 0.65171 0.11699 0.0
H1131 H 0.79306 0.67973 0.08594 0.0
H1132 H 0.76675 0.6821 0.16385 0.0
H1133 H 0.9031 0.60296 0.12481 0.0
H1134 H 0.93804 0.62009 0.17473 0.0
H1135 H 0.92259 0.63323 0.09459 0.0
C1136 C 0.67141 0.39559 0.25099 0.0
C1137 C 0.63704 0.39331 0.28622 0.0
C1138 C 0.6721 0.40311 0.18279 0.0
C1139 C 0.63753 0.40805 0.14861 0.0
C1140 C 0.60271 0.4059 0.18392 0.0
C1141 C 0.60288 0.39868 0.25245 0.0
C1142 C 0.70982 0.40562 0.14723 0.0
C1143 C 0.56521 0.41075 0.14897 0.0
C1144 C 0.63607 0.44907 0.98837 0.0
C1145 C 0.63388 0.42969 0.93806 0.0
C1146 C 0.63834 0.44229 0.05696 0.0
C1147 C 0.63772 0.41545 0.07583 0.0
C1148 C 0.63626 0.39574 0.02523 0.0
C1149 C 0.63455 0.40309 0.95684 0.0
C1150 C 0.64053 0.46388 0.1093 0.0
C1151 C 0.63516 0.3669 0.04342 0.0
H1152 H 0.6979 0.39153 0.27694 0.0
H1153 H 0.57618 0.39646 0.27893 0.0
H1154 H 0.71119 0.39153 0.10446 0.0
H1155 H 0.71285 0.42567 0.12577 0.0
H1156 H 0.73419 0.40179 0.18156 0.0
H1157 H 0.54067 0.40828 0.18356 0.0
H1158 H 0.56449 0.43097 0.12793 0.0
H1159 H 0.56189 0.39692 0.10595 0.0
H1160 H 0.6356 0.46965 0.97402 0.0
H1161 H 0.63208 0.38801 0.91835 0.0
H1162 H 0.66532 0.46067 0.14299 0.0
H1163 H 0.61477 0.46347 0.14142 0.0
H1164 H 0.64297 0.4837 0.0861 0.0
H1165 H 0.65986 0.36177 0.07565 0.0
H1166 H 0.63533 0.35401 0.99807 0.0
H1167 H 0.60919 0.36268 0.07313 0.0
loop_
_geom_bond_atom_site_label_1
_geom_bond_atom_site_label_2
_geom_bond_distance
_geom_bond_site_symmetry_2
_ccdc_geom_bond_type
Zn0 N4 2.020 . S
Zn0 O8 2.019 . S
Zn0 N10 2.119 . S
Zn0 O18 1.975 . S
C1 N2 1.334 . S
C1 N5 1.336 . S
N2 C1 1.334 . S
N2 C3 1.334 . S
C3 N2 1.334 . S
C3 N4 1.336 . S
N4 Zn0 2.020 . S
N4 C3 1.336 . S
N4 N5 1.354 . S
N5 C1 1.336 . S
N5 N4 1.354 . S
N5 Zn9 2.020 . S
C6 O7 1.244 . S
C6 O30 1.257 . S
O7 C6 1.244 . S
O8 Zn0 2.019 . S
O8 C28 1.257 . S
Zn9 N5 2.020 . S
Zn9 O16 1.975 . S
Zn9 N25 2.119 1_554 S
Zn9 O30 2.019 . S
N10 Zn0 2.119 . S
N10 C12 1.334 . S
N10 C13 1.328 . S
C11 C12 1.391 . S
C11 N14 1.329 . S
C11 H32 0.930 . S
C12 N10 1.334 . S
C12 C11 1.391 . S
C12 H19 0.930 . S
C13 N10 1.328 . S
C13 C15 1.392 . S
C13 H20 0.930 . S
N14 C11 1.329 . S
N14 C15 1.331 . S
C15 C13 1.392 . S
C15 N14 1.331 . S
O16 Zn9 1.975 . S
O16 C17 1.252 . S
C17 O16 1.252 . S
C17 O18 1.252 . S
O18 Zn0 1.975 . S
O18 C17 1.252 . S
H19 C12 0.930 . S
H20 C13 0.930 . S
C21 C22 1.392 . S
C21 N25 1.328 . S
C21 H27 0.930 . S
C22 C21 1.392 . S
C22 N26 1.331 . S
C23 C24 1.391 . S
C23 N26 1.329 . S
C23 H33 0.930 . S
C24 C23 1.391 . S
C24 N25 1.334 . S
C24 H31 0.930 . S
N25 Zn9 2.119 1_556 S
N25 C21 1.328 . S
N25 C24 1.334 . S
N26 C22 1.331 . S
N26 C23 1.329 . S
H27 C21 0.930 . S
C28 O8 1.257 . S
C28 O29 1.244 . S
O29 C28 1.244 . S
O30 C6 1.257 . S
O30 Zn9 2.019 . S
H31 C24 0.930 . S
H32 C11 0.930 . S
H33 C23 0.930 . S
Zn34 N38 2.020 . S
Zn34 O42 2.019 . S
Zn34 N44 2.119 1_554 S
Zn34 O52 1.975 . S
C35 N36 1.334 . S
C35 N39 1.336 . S
N36 C35 1.334 . S
N36 C37 1.334 . S
C37 N36 1.334 . S
C37 N38 1.336 . S
N38 Zn34 2.020 . S
N38 C37 1.336 . S
N38 N39 1.354 . S
N39 C35 1.336 . S
N39 N38 1.354 . S
N39 Zn43 2.020 . S
C40 O41 1.244 . S
C40 O64 1.257 . S
O41 C40 1.244 . S
O42 Zn34 2.019 . S
O42 C62 1.257 . S
Zn43 N39 2.020 . S
Zn43 O50 1.975 . S
Zn43 N59 2.119 . S
Zn43 O64 2.019 . S
N44 Zn34 2.119 1_556 S
N44 C46 1.334 . S
N44 C47 1.328 . S
C45 C46 1.391 . S
C45 N48 1.329 . S
C45 H66 0.930 . S
C46 N44 1.334 . S
C46 C45 1.391 . S
C46 H53 0.930 . S
C47 N44 1.328 . S
C47 C49 1.392 . S
C47 H54 0.930 . S
N48 C45 1.329 . S
N48 C49 1.331 . S
C49 C47 1.392 . S
C49 N48 1.331 . S
O50 Zn43 1.975 . S
O50 C51 1.252 . S
C51 O50 1.252 . S
C51 O52 1.252 . S
O52 Zn34 1.975 . S
O52 C51 1.252 . S
H53 C46 0.930 . S
H54 C47 0.930 . S
C55 C56 1.392 . S
C55 N59 1.328 . S
C55 H61 0.930 . S
C56 C55 1.392 . S
C56 N60 1.331 . S
C57 C58 1.391 . S
C57 N60 1.329 . S
C57 H67 0.930 . S
C58 C57 1.391 . S
C58 N59 1.334 . S
C58 H65 0.930 . S
N59 Zn43 2.119 . S
N59 C55 1.328 . S
N59 C58 1.334 . S
N60 C56 1.331 . S
N60 C57 1.329 . S
H61 C55 0.930 . S
C62 O42 1.257 . S
C62 O63 1.244 . S
O63 C62 1.244 . S
O64 C40 1.257 . S
O64 Zn43 2.019 . S
H65 C58 0.930 . S
H66 C45 0.930 . S
H67 C57 0.930 . S
Zn68 N72 2.020 . S
Zn68 O76 2.019 . S
Zn68 N78 2.119 . S
Zn68 O86 1.975 . S
C69 N70 1.334 . S
C69 N73 1.336 . S
N70 C69 1.334 . S
N70 C71 1.334 . S
C71 N70 1.334 . S
C71 N72 1.336 . S
N72 Zn68 2.020 . S
N72 C71 1.336 . S
N72 N73 1.354 . S
N73 C69 1.336 . S
N73 N72 1.354 . S
N73 Zn77 2.020 . S
C74 O75 1.244 . S
C74 O98 1.257 . S
O75 C74 1.244 . S
O76 Zn68 2.019 . S
O76 C96 1.257 . S
Zn77 N73 2.020 . S
Zn77 O84 1.975 . S
Zn77 N93 2.119 . S
Zn77 O98 2.019 . S
N78 Zn68 2.119 . S
N78 C80 1.334 . S
N78 C81 1.328 . S
C79 C80 1.391 . S
C79 N82 1.329 . S
C79 H100 0.930 . S
C80 N78 1.334 . S
C80 C79 1.391 . S
C80 H87 0.930 . S
C81 N78 1.328 . S
C81 C83 1.392 . S
C81 H88 0.930 . S
N82 C79 1.329 . S
N82 C83 1.331 . S
C83 C81 1.392 . S
C83 N82 1.331 . S
O84 Zn77 1.975 . S
O84 C85 1.252 . S
C85 O84 1.252 . S
C85 O86 1.252 . S
O86 Zn68 1.975 . S
O86 C85 1.252 . S
H87 C80 0.930 . S
H88 C81 0.930 . S
C89 C90 1.392 . S
C89 N93 1.328 . S
C89 H95 0.930 . S
C90 C89 1.392 . S
C90 N94 1.331 . S
C91 C92 1.391 . S
C91 N94 1.329 . S
C91 H101 0.930 . S
C92 C91 1.391 . S
C92 N93 1.334 . S
C92 H99 0.930 . S
N93 Zn77 2.119 . S
N93 C89 1.328 . S
N93 C92 1.334 . S
N94 C90 1.331 . S
N94 C91 1.329 . S
H95 C89 0.930 . S
C96 O76 1.257 . S
C96 O97 1.244 . S
O97 C96 1.244 . S
O98 C74 1.257 . S
O98 Zn77 2.019 . S
H99 C92 0.930 . S
H100 C79 0.930 . S
H101 C91 0.930 . S
Zn102 N106 2.020 . S
Zn102 O110 2.019 . S
Zn102 N112 2.119 . S
Zn102 O120 1.975 . S
C103 N104 1.334 . S
C103 N107 1.336 . S
N104 C103 1.334 . S
N104 C105 1.334 . S
C105 N104 1.334 . S
C105 N106 1.336 . S
N106 Zn102 2.020 . S
N106 C105 1.336 . S
N106 N107 1.354 . S
N107 C103 1.336 . S
N107 N106 1.354 . S
N107 Zn111 2.020 . S
C108 O109 1.244 . S
C108 O132 1.257 . S
O109 C108 1.244 . S
O110 Zn102 2.019 . S
O110 C130 1.257 . S
Zn111 N107 2.020 . S
Zn111 O118 1.975 . S
Zn111 N127 2.119 . S
Zn111 O132 2.019 . S
N112 Zn102 2.119 . S
N112 C114 1.334 . S
N112 C115 1.328 . S
C113 C114 1.391 . S
C113 N116 1.329 . S
C113 H134 0.930 . S
C114 N112 1.334 . S
C114 C113 1.391 . S
C114 H121 0.930 . S
C115 N112 1.328 . S
C115 C117 1.392 . S
C115 H122 0.930 . S
N116 C113 1.329 . S
N116 C117 1.331 . S
C117 C115 1.392 . S
C117 N116 1.331 . S
O118 Zn111 1.975 . S
O118 C119 1.252 . S
C119 O118 1.252 . S
C119 O120 1.252 . S
O120 Zn102 1.975 . S
O120 C119 1.252 . S
H121 C114 0.930 . S
H122 C115 0.930 . S
C123 C124 1.392 . S
C123 N127 1.328 . S
C123 H129 0.930 . S
C124 C123 1.392 . S
C124 N128 1.331 . S
C125 C126 1.391 . S
C125 N128 1.329 . S
C125 H135 0.930 . S
C126 C125 1.391 . S
C126 N127 1.334 . S
C126 H133 0.930 . S
N127 Zn111 2.119 . S
N127 C123 1.328 . S
N127 C126 1.334 . S
N128 C124 1.331 . S
N128 C125 1.329 . S
H129 C123 0.930 . S
C130 O110 1.257 . S
C130 O131 1.244 . S
O131 C130 1.244 . S
O132 C108 1.257 . S
O132 Zn111 2.019 . S
H133 C126 0.930 . S
H134 C113 0.930 . S
H135 C125 0.930 . S
Zn136 N140 2.020 . S
Zn136 O144 2.019 . S
Zn136 N146 2.119 . S
Zn136 O154 1.975 . S
C137 N138 1.334 . S
C137 N141 1.336 . S
N138 C137 1.334 . S
N138 C139 1.334 . S
C139 N138 1.334 . S
C139 N140 1.336 . S
N140 Zn136 2.020 . S
N140 C139 1.336 . S
N140 N141 1.354 . S
N141 C137 1.336 . S
N141 N140 1.354 . S
N141 Zn145 2.020 . S
C142 O143 1.244 . S
C142 O166 1.257 . S
O143 C142 1.244 . S
O144 Zn136 2.019 . S
O144 C164 1.257 . S
Zn145 N141 2.020 . S
Zn145 O152 1.975 . S
Zn145 N161 2.119 1_556 S
Zn145 O166 2.019 . S
N146 Zn136 2.119 . S
N146 C148 1.334 . S
N146 C149 1.328 . S
C147 C148 1.391 . S
C147 N150 1.329 . S
C147 H168 0.930 . S
C148 N146 1.334 . S
C148 C147 1.391 . S
C148 H155 0.930 . S
C149 N146 1.328 . S
C149 C151 1.392 . S
C149 H156 0.930 . S
N150 C147 1.329 . S
N150 C151 1.331 . S
C151 C149 1.392 . S
C151 N150 1.331 . S
O152 Zn145 1.975 . S
O152 C153 1.252 . S
C153 O152 1.252 . S
C153 O154 1.252 . S
O154 Zn136 1.975 . S
O154 C153 1.252 . S
H155 C148 0.930 . S
H156 C149 0.930 . S
C157 C158 1.392 . S
C157 N161 1.328 . S
C157 H163 0.930 . S
C158 C157 1.392 . S
C158 N162 1.331 . S
C159 C160 1.391 . S
C159 N162 1.329 . S
C159 H169 0.930 . S
C160 C159 1.391 . S
C160 N161 1.334 . S
C160 H167 0.930 . S
N161 Zn145 2.119 1_554 S
N161 C157 1.328 . S
N161 C160 1.334 . S
N162 C158 1.331 . S
N162 C159 1.329 . S
H163 C157 0.930 . S
C164 O144 1.257 . S
C164 O165 1.244 . S
O165 C164 1.244 . S
O166 C142 1.257 . S
O166 Zn145 2.019 . S
H167 C160 0.930 . S
H168 C147 0.930 . S
H169 C159 0.930 . S
Zn170 N174 2.020 . S
Zn170 O178 2.019 . S
Zn170 N180 2.119 1_556 S
Zn170 O188 1.975 . S
C171 N172 1.334 . S
C171 N175 1.336 . S
N172 C171 1.334 . S
N172 C173 1.334 . S
C173 N172 1.334 . S
C173 N174 1.336 . S
N174 Zn170 2.020 . S
N174 C173 1.336 . S
N174 N175 1.354 . S
N175 C171 1.336 . S
N175 N174 1.354 . S
N175 Zn179 2.020 . S
C176 O177 1.244 . S
C176 O200 1.257 . S
O177 C176 1.244 . S
O178 Zn170 2.019 . S
O178 C198 1.257 . S
Zn179 N175 2.020 . S
Zn179 O186 1.975 . S
Zn179 N195 2.119 . S
Zn179 O200 2.019 . S
N180 Zn170 2.119 1_554 S
N180 C182 1.334 . S
N180 C183 1.328 . S
C181 C182 1.391 . S
C181 N184 1.329 . S
C181 H202 0.930 . S
C182 N180 1.334 . S
C182 C181 1.391 . S
C182 H189 0.930 . S
C183 N180 1.328 . S
C183 C185 1.392 . S
C183 H190 0.930 . S
N184 C181 1.329 . S
N184 C185 1.331 . S
C185 C183 1.392 . S
C185 N184 1.331 . S
O186 Zn179 1.975 . S
O186 C187 1.252 . S
C187 O186 1.252 . S
C187 O188 1.252 . S
O188 Zn170 1.975 . S
O188 C187 1.252 . S
H189 C182 0.930 . S
H190 C183 0.930 . S
C191 C192 1.392 . S
C191 N195 1.328 . S
C191 H197 0.930 . S
C192 C191 1.392 . S
C192 N196 1.331 . S
C193 C194 1.391 . S
C193 N196 1.329 . S
C193 H203 0.930 . S
C194 C193 1.391 . S
C194 N195 1.334 . S
C194 H201 0.930 . S
N195 Zn179 2.119 . S
N195 C191 1.328 . S
N195 C194 1.334 . S
N196 C192 1.331 . S
N196 C193 1.329 . S
H197 C191 0.930 . S
C198 O178 1.257 . S
C198 O199 1.244 . S
O199 C198 1.244 . S
O200 C176 1.257 . S
O200 Zn179 2.019 . S
H201 C194 0.930 . S
H202 C181 0.930 . S
H203 C193 0.930 . S
Zn204 N208 2.020 . S
Zn204 O212 2.019 . S
Zn204 N214 2.119 . S
Zn204 O222 1.975 . S
C205 N206 1.334 . S
C205 N209 1.336 . S
N206 C205 1.334 . S
N206 C207 1.334 . S
C207 N206 1.334 . S
C207 N208 1.336 . S
N208 Zn204 2.020 . S
N208 C207 1.336 . S
N208 N209 1.354 . S
N209 C205 1.336 . S
N209 N208 1.354 . S
N209 Zn213 2.020 . S
C210 O211 1.244 . S
C210 O234 1.257 . S
O211 C210 1.244 . S
O212 Zn204 2.019 . S
O212 C232 1.257 . S
Zn213 N209 2.020 . S
Zn213 O220 1.975 . S
Zn213 N229 2.119 . S
Zn213 O234 2.019 . S
N214 Zn204 2.119 . S
N214 C216 1.334 . S
N214 C217 1.328 . S
C215 C216 1.391 . S
C215 N218 1.329 . S
C215 H236 0.930 . S
C216 N214 1.334 . S
C216 C215 1.391 . S
C216 H223 0.930 . S
C217 N214 1.328 . S
C217 C219 1.392 . S
C217 H224 0.930 . S
N218 C215 1.329 . S
N218 C219 1.331 . S
C219 C217 1.392 . S
C219 N218 1.331 . S
O220 Zn213 1.975 . S
O220 C221 1.252 . S
C221 O220 1.252 . S
C221 O222 1.252 . S
O222 Zn204 1.975 . S
O222 C221 1.252 . S
H223 C216 0.930 . S
H224 C217 0.930 . S
C225 C226 1.392 . S
C225 N229 1.328 . S
C225 H231 0.930 . S
C226 C225 1.392 . S
C226 N230 1.331 . S
C227 C228 1.391 . S
C227 N230 1.329 . S
C227 H237 0.930 . S
C228 C227 1.391 . S
C228 N229 1.334 . S
C228 H235 0.930 . S
N229 Zn213 2.119 . S
N229 C225 1.328 . S
N229 C228 1.334 . S
N230 C226 1.331 . S
N230 C227 1.329 . S
H231 C225 0.930 . S
C232 O212 1.257 . S
C232 O233 1.244 . S
O233 C232 1.244 . S
O234 C210 1.257 . S
O234 Zn213 2.019 . S
H235 C228 0.930 . S
H236 C215 0.930 . S
H237 C227 0.930 . S
Zn238 N242 2.020 . S
Zn238 O246 2.019 . S
Zn238 N248 2.119 . S
Zn238 O256 1.975 . S
C239 N240 1.334 . S
C239 N243 1.336 . S
N240 C239 1.334 . S
N240 C241 1.334 . S
C241 N240 1.334 . S
C241 N242 1.336 . S
N242 Zn238 2.020 . S
N242 C241 1.336 . S
N242 N243 1.354 . S
N243 C239 1.336 . S
N243 N242 1.354 . S
N243 Zn247 2.020 . S
C244 O245 1.244 . S
C244 O268 1.257 . S
O245 C244 1.244 . S
O246 Zn238 2.019 . S
O246 C266 1.257 . S
Zn247 N243 2.020 . S
Zn247 O254 1.975 . S
Zn247 N263 2.119 . S
Zn247 O268 2.019 . S
N248 Zn238 2.119 . S
N248 C250 1.334 . S
N248 C251 1.328 . S
C249 C250 1.391 . S
C249 N252 1.329 . S
C249 H270 0.930 . S
C250 N248 1.334 . S
C250 C249 1.391 . S
C250 H257 0.930 . S
C251 N248 1.328 . S
C251 C253 1.392 . S
C251 H258 0.930 . S
N252 C249 1.329 . S
N252 C253 1.331 . S
C253 C251 1.392 . S
C253 N252 1.331 . S
O254 Zn247 1.975 . S
O254 C255 1.252 . S
C255 O254 1.252 . S
C255 O256 1.252 . S
O256 Zn238 1.975 . S
O256 C255 1.252 . S
H257 C250 0.930 . S
H258 C251 0.930 . S
C259 C260 1.392 . S
C259 N263 1.328 . S
C259 H265 0.930 . S
C260 C259 1.392 . S
C260 N264 1.331 . S
C261 C262 1.391 . S
C261 N264 1.329 . S
C261 H271 0.930 . S
C262 C261 1.391 . S
C262 N263 1.334 . S
C262 H269 0.930 . S
N263 Zn247 2.119 . S
N263 C259 1.328 . S
N263 C262 1.334 . S
N264 C260 1.331 . S
N264 C261 1.329 . S
H265 C259 0.930 . S
C266 O246 1.257 . S
C266 O267 1.244 . S
O267 C266 1.244 . S
O268 C244 1.257 . S
O268 Zn247 2.019 . S
H269 C262 0.930 . S
H270 C249 0.930 . S
H271 C261 0.930 . S
C272 C273 1.391 . S
C272 C274 1.394 . S
C272 H288 0.931 . S
C273 C272 1.391 . S
C273 C277 1.376 . S
C274 C272 1.394 . S
C274 C275 1.369 1_556 S
C274 C278 1.531 . S
C275 C274 1.369 1_554 S
C275 C276 1.410 . S
C275 C283 1.503 . S
C276 C275 1.410 . S
C276 C277 1.392 1_554 S
C276 C279 1.511 . S
C277 C273 1.376 . S
C277 C276 1.392 1_556 S
C277 H289 0.929 . S
C278 C274 1.531 . S
C278 H290 0.960 . S
C278 H291 0.962 1_556 S
C278 H292 0.960 . S
C279 C276 1.511 . S
C279 H293 0.961 . S
C279 H294 0.961 . S
C279 H295 0.961 . S
C280 C281 1.370 . S
C280 C282 1.363 . S
C280 H296 0.931 . S
C281 C280 1.370 . S
C281 C285 1.408 . S
C282 C280 1.363 . S
C282 C283 1.370 . S
C282 C286 1.524 . S
C283 C275 1.503 . S
C283 C282 1.370 . S
C283 C284 1.403 . S
C284 C283 1.403 . S
C284 C285 1.404 . S
C284 C287 1.539 1_554 S
C285 C281 1.408 . S
C285 C284 1.404 . S
C285 H297 0.930 . S
C286 C282 1.524 . S
C286 H298 0.956 . S
C286 H299 0.961 . S
C286 H300 0.961 . S
C287 C284 1.539 1_556 S
C287 H301 0.958 . S
C287 H302 0.961 . S
C287 H303 0.960 . S
H288 C272 0.931 . S
H289 C277 0.929 . S
H290 C278 0.960 . S
H291 C278 0.962 1_554 S
H292 C278 0.960 . S
H293 C279 0.961 . S
H294 C279 0.961 . S
H295 C279 0.961 . S
H296 C280 0.931 . S
H297 C285 0.930 . S
H298 C286 0.956 . S
H299 C286 0.961 . S
H300 C286 0.961 . S
H301 C287 0.958 . S
H302 C287 0.961 . S
H303 C287 0.960 . S
C304 C305 1.391 . S
C304 C306 1.394 . S
C304 H320 0.931 . S
C305 C304 1.391 . S
C305 C309 1.376 . S
C306 C304 1.394 . S
C306 C307 1.369 . S
C306 C310 1.531 1_554 S
C307 C306 1.369 . S
C307 C308 1.410 . S
C307 C315 1.503 . S
C308 C307 1.410 . S
C308 C309 1.392 . S
C308 C311 1.511 . S
C309 C305 1.376 . S
C309 C308 1.392 . S
C309 H321 0.929 . S
C310 C306 1.531 1_556 S
C310 H322 0.960 . S
C310 H323 0.962 1_556 S
C310 H324 0.960 . S
C311 C308 1.511 . S
C311 H325 0.961 . S
C311 H326 0.961 . S
C311 H327 0.961 . S
C312 C313 1.370 1_554 S
C312 C314 1.363 . S
C312 H328 0.931 . S
C313 C312 1.370 1_556 S
C313 C317 1.408 . S
C314 C312 1.363 . S
C314 C315 1.370 . S
C314 C318 1.524 . S
C315 C307 1.503 . S
C315 C314 1.370 . S
C315 C316 1.403 1_554 S
C316 C315 1.403 1_556 S
C316 C317 1.404 . S
C316 C319 1.539 . S
C317 C313 1.408 . S
C317 C316 1.404 . S
C317 H329 0.930 . S
C318 C314 1.524 . S
C318 H330 0.956 . S
C318 H331 0.961 . S
C318 H332 0.961 . S
C319 C316 1.539 . S
C319 H333 0.958 . S
C319 H334 0.961 . S
C319 H335 0.960 . S
H320 C304 0.931 . S
H321 C309 0.929 . S
H322 C310 0.960 . S
H323 C310 0.962 1_554 S
H324 C310 0.960 . S
H325 C311 0.961 . S
H326 C311 0.961 . S
H327 C311 0.961 . S
H328 C312 0.931 . S
H329 C317 0.930 . S
H330 C318 0.956 . S
H331 C318 0.961 . S
H332 C318 0.961 . S
H333 C319 0.958 . S
H334 C319 0.961 . S
H335 C319 0.960 . S
C336 C337 1.391 . S
C336 C338 1.394 . S
C336 H352 0.931 . S
C337 C336 1.391 . S
C337 C341 1.376 . S
C338 C336 1.394 . S
C338 C339 1.369 . S
C338 C342 1.531 . S
C339 C338 1.369 . S
C339 C340 1.410 . S
C339 C347 1.503 . S
C340 C339 1.410 . S
C340 C341 1.392 . S
C340 C343 1.511 . S
C341 C337 1.376 . S
C341 C340 1.392 . S
C341 H353 0.929 . S
C342 C338 1.531 . S
C342 H354 0.960 . S
C342 H355 0.962 . S
C342 H356 0.960 . S
C343 C340 1.511 . S
C343 H357 0.961 . S
C343 H358 0.961 . S
C343 H359 0.961 . S
C344 C345 1.370 . S
C344 C346 1.363 . S
C344 H360 0.931 . S
C345 C344 1.370 . S
C345 C349 1.408 . S
C346 C344 1.363 . S
C346 C347 1.370 . S
C346 C350 1.524 . S
C347 C339 1.503 . S
C347 C346 1.370 . S
C347 C348 1.403 . S
C348 C347 1.403 . S
C348 C349 1.404 . S
C348 C351 1.539 . S
C349 C345 1.408 . S
C349 C348 1.404 . S
C349 H361 0.930 . S
C350 C346 1.524 . S
C350 H362 0.956 . S
C350 H363 0.961 . S
C350 H364 0.961 . S
C351 C348 1.539 . S
C351 H365 0.958 . S
C351 H366 0.961 . S
C351 H367 0.960 . S
H352 C336 0.931 . S
H353 C341 0.929 . S
H354 C342 0.960 . S
H355 C342 0.962 . S
H356 C342 0.960 . S
H357 C343 0.961 . S
H358 C343 0.961 . S
H359 C343 0.961 . S
H360 C344 0.931 . S
H361 C349 0.930 . S
H362 C350 0.956 . S
H363 C350 0.961 . S
H364 C350 0.961 . S
H365 C351 0.958 . S
H366 C351 0.961 . S
H367 C351 0.960 . S
C368 C369 1.391 . S
C368 C370 1.394 . S
C368 H384 0.931 . S
C369 C368 1.391 . S
C369 C373 1.376 . S
C370 C368 1.394 . S
C370 C371 1.369 . S
C370 C374 1.531 . S
C371 C370 1.369 . S
C371 C372 1.410 . S
C371 C379 1.503 . S
C372 C371 1.410 . S
C372 C373 1.392 . S
C372 C375 1.511 . S
C373 C369 1.376 . S
C373 C372 1.392 . S
C373 H385 0.929 . S
C374 C370 1.531 . S
C374 H386 0.960 . S
C374 H387 0.962 . S
C374 H388 0.960 . S
C375 C372 1.511 . S
C375 H389 0.961 . S
C375 H390 0.961 . S
C375 H391 0.961 . S
C376 C377 1.370 . S
C376 C378 1.363 . S
C376 H392 0.931 . S
C377 C376 1.370 . S
C377 C381 1.408 . S
C378 C376 1.363 . S
C378 C379 1.370 . S
C378 C382 1.524 . S
C379 C371 1.503 . S
C379 C378 1.370 . S
C379 C380 1.403 . S
C380 C379 1.403 . S
C380 C381 1.404 . S
C380 C383 1.539 . S
C381 C377 1.408 . S
C381 C380 1.404 . S
C381 H393 0.930 . S
C382 C378 1.524 . S
C382 H394 0.956 . S
C382 H395 0.961 . S
C382 H396 0.961 . S
C383 C380 1.539 . S
C383 H397 0.958 . S
C383 H398 0.961 . S
C383 H399 0.960 . S
H384 C368 0.931 . S
H385 C373 0.929 . S
H386 C374 0.960 . S
H387 C374 0.962 . S
H388 C374 0.960 . S
H389 C375 0.961 . S
H390 C375 0.961 . S
H391 C375 0.961 . S
H392 C376 0.931 . S
H393 C381 0.930 . S
H394 C382 0.956 . S
H395 C382 0.961 . S
H396 C382 0.961 . S
H397 C383 0.958 . S
H398 C383 0.961 . S
H399 C383 0.960 . S
C400 C401 1.391 . S
C400 C402 1.394 . S
C400 H416 0.931 . S
C401 C400 1.391 . S
C401 C405 1.376 . S
C402 C400 1.394 . S
C402 C403 1.369 . S
C402 C406 1.531 . S
C403 C402 1.369 . S
C403 C404 1.410 . S
C403 C411 1.503 . S
C404 C403 1.410 . S
C404 C405 1.392 . S
C404 C407 1.511 . S
C405 C401 1.376 . S
C405 C404 1.392 . S
C405 H417 0.929 . S
C406 C402 1.531 . S
C406 H418 0.960 . S
C406 H419 0.962 . S
C406 H420 0.960 . S
C407 C404 1.511 . S
C407 H421 0.961 . S
C407 H422 0.961 1_556 S
C407 H423 0.961 . S
C408 C409 1.370 . S
C408 C410 1.363 . S
C408 H424 0.931 . S
C409 C408 1.370 . S
C409 C413 1.408 1_554 S
C410 C408 1.363 . S
C410 C411 1.370 1_554 S
C410 C414 1.524 . S
C411 C403 1.503 . S
C411 C410 1.370 1_556 S
C411 C412 1.403 . S
C412 C411 1.403 . S
C412 C413 1.404 . S
C412 C415 1.539 . S
C413 C409 1.408 1_556 S
C413 C412 1.404 . S
C413 H425 0.930 . S
C414 C410 1.524 . S
C414 H426 0.956 . S
C414 H427 0.961 . S
C414 H428 0.961 . S
C415 C412 1.539 . S
C415 H429 0.958 . S
C415 H430 0.961 . S
C415 H431 0.960 . S
H416 C400 0.931 . S
H417 C405 0.929 . S
H418 C406 0.960 . S
H419 C406 0.962 . S
H420 C406 0.960 . S
H421 C407 0.961 . S
H422 C407 0.961 1_554 S
H423 C407 0.961 . S
H424 C408 0.931 . S
H425 C413 0.930 . S
H426 C414 0.956 . S
H427 C414 0.961 . S
H428 C414 0.961 . S
H429 C415 0.958 . S
H430 C415 0.961 . S
H431 C415 0.960 . S
C432 C433 1.391 . S
C432 C434 1.394 . S
C432 H448 0.931 . S
C433 C432 1.391 . S
C433 C437 1.376 . S
C434 C432 1.394 . S
C434 C435 1.369 . S
C434 C438 1.531 . S
C435 C434 1.369 . S
C435 C436 1.410 . S
C435 C443 1.503 . S
C436 C435 1.410 . S
C436 C437 1.392 . S
C436 C439 1.511 1_556 S
C437 C433 1.376 . S
C437 C436 1.392 . S
C437 H449 0.929 . S
C438 C434 1.531 . S
C438 H450 0.960 . S
C438 H451 0.962 . S
C438 H452 0.960 . S
C439 C436 1.511 1_554 S
C439 H453 0.961 1_554 S
C439 H454 0.961 . S
C439 H455 0.961 . S
C440 C441 1.370 1_556 S
C440 C442 1.363 . S
C440 H456 0.931 . S
C441 C440 1.370 1_554 S
C441 C445 1.408 . S
C442 C440 1.363 . S
C442 C443 1.370 . S
C442 C446 1.524 . S
C443 C435 1.503 . S
C443 C442 1.370 . S
C443 C444 1.403 1_556 S
C444 C443 1.403 1_554 S
C444 C445 1.404 . S
C444 C447 1.539 . S
C445 C441 1.408 . S
C445 C444 1.404 . S
C445 H457 0.930 . S
C446 C442 1.524 . S
C446 H458 0.956 . S
C446 H459 0.961 . S
C446 H460 0.961 . S
C447 C444 1.539 . S
C447 H461 0.958 . S
C447 H462 0.961 . S
C447 H463 0.960 . S
H448 C432 0.931 . S
H449 C437 0.929 . S
H450 C438 0.960 . S
H451 C438 0.962 . S
H452 C438 0.960 . S
H453 C439 0.961 1_556 S
H454 C439 0.961 . S
H455 C439 0.961 . S
H456 C440 0.931 . S
H457 C445 0.930 . S
H458 C446 0.956 . S
H459 C446 0.961 . S
H460 C446 0.961 . S
H461 C447 0.958 . S
H462 C447 0.961 . S
H463 C447 0.960 . S
C464 C465 1.391 . S
C464 C466 1.394 . S
C464 H480 0.931 . S
C465 C464 1.391 . S
C465 C469 1.376 . S
C466 C464 1.394 . S
C466 C467 1.369 . S
C466 C470 1.531 . S
C467 C466 1.369 . S
C467 C468 1.410 . S
C467 C475 1.503 . S
C468 C467 1.410 . S
C468 C469 1.392 . S
C468 C471 1.511 . S
C469 C465 1.376 . S
C469 C468 1.392 . S
C469 H481 0.929 . S
C470 C466 1.531 . S
C470 H482 0.960 . S
C470 H483 0.962 . S
C470 H484 0.960 . S
C471 C468 1.511 . S
C471 H485 0.961 . S
C471 H486 0.961 . S
C471 H487 0.961 . S
C472 C473 1.370 . S
C472 C474 1.363 . S
C472 H488 0.931 . S
C473 C472 1.370 . S
C473 C477 1.408 . S
C474 C472 1.363 . S
C474 C475 1.370 . S
C474 C478 1.524 . S
C475 C467 1.503 . S
C475 C474 1.370 . S
C475 C476 1.403 . S
C476 C475 1.403 . S
C476 C477 1.404 . S
C476 C479 1.539 . S
C477 C473 1.408 . S
C477 C476 1.404 . S
C477 H489 0.930 . S
C478 C474 1.524 . S
C478 H490 0.956 . S
C478 H491 0.961 . S
C478 H492 0.961 . S
C479 C476 1.539 . S
C479 H493 0.958 . S
C479 H494 0.961 . S
C479 H495 0.960 . S
H480 C464 0.931 . S
H481 C469 0.929 . S
H482 C470 0.960 . S
H483 C470 0.962 . S
H484 C470 0.960 . S
H485 C471 0.961 . S
H486 C471 0.961 . S
H487 C471 0.961 . S
H488 C472 0.931 . S
H489 C477 0.930 . S
H490 C478 0.956 . S
H491 C478 0.961 . S
H492 C478 0.961 . S
H493 C479 0.958 . S
H494 C479 0.961 . S
H495 C479 0.960 . S
C496 C497 1.391 . S
C496 C498 1.394 . S
C496 H512 0.931 . S
C497 C496 1.391 . S
C497 C501 1.376 . S
C498 C496 1.394 . S
C498 C499 1.369 . S
C498 C502 1.531 . S
C499 C498 1.369 . S
C499 C500 1.410 . S
C499 C507 1.503 . S
C500 C499 1.410 . S
C500 C501 1.392 . S
C500 C503 1.511 . S
C501 C497 1.376 . S
C501 C500 1.392 . S
C501 H513 0.929 . S
C502 C498 1.531 . S
C502 H514 0.960 . S
C502 H515 0.962 . S
C502 H516 0.960 . S
C503 C500 1.511 . S
C503 H517 0.961 . S
C503 H518 0.961 . S
C503 H519 0.961 . S
C504 C505 1.370 . S
C504 C506 1.363 . S
C504 H520 0.931 . S
C505 C504 1.370 . S
C505 C509 1.408 . S
C506 C504 1.363 . S
C506 C507 1.370 . S
C506 C510 1.524 . S
C507 C499 1.503 . S
C507 C506 1.370 . S
C507 C508 1.403 . S
C508 C507 1.403 . S
C508 C509 1.404 . S
C508 C511 1.539 . S
C509 C505 1.408 . S
C509 C508 1.404 . S
C509 H521 0.930 . S
C510 C506 1.524 . S
C510 H522 0.956 . S
C510 H523 0.961 . S
C510 H524 0.961 . S
C511 C508 1.539 . S
C511 H525 0.958 . S
C511 H526 0.961 . S
C511 H527 0.960 . S
H512 C496 0.931 . S
H513 C501 0.929 . S
H514 C502 0.960 . S
H515 C502 0.962 . S
H516 C502 0.960 . S
H517 C503 0.961 . S
H518 C503 0.961 . S
H519 C503 0.961 . S
H520 C504 0.931 . S
H521 C509 0.930 . S
H522 C510 0.956 . S
H523 C510 0.961 . S
H524 C510 0.961 . S
H525 C511 0.958 . S
H526 C511 0.961 . S
H527 C511 0.960 . S
C528 C529 1.391 . S
C528 C530 1.394 . S
C528 H544 0.931 . S
C529 C528 1.391 . S
C529 C533 1.376 . S
C530 C528 1.394 . S
C530 C531 1.369 . S
C530 C534 1.531 . S
C531 C530 1.369 . S
C531 C532 1.410 . S
C531 C539 1.503 . S
C532 C531 1.410 . S
C532 C533 1.392 . S
C532 C535 1.511 . S
C533 C529 1.376 . S
C533 C532 1.392 . S
C533 H545 0.929 . S
C534 C530 1.531 . S
C534 H546 0.960 . S
C534 H547 0.962 . S
C534 H548 0.960 . S
C535 C532 1.511 . S
C535 H549 0.961 . S
C535 H550 0.961 . S
C535 H551 0.961 . S
C536 C537 1.370 . S
C536 C538 1.363 . S
C536 H552 0.931 . S
C537 C536 1.370 . S
C537 C541 1.408 . S
C538 C536 1.363 . S
C538 C539 1.370 . S
C538 C542 1.524 . S
C539 C531 1.503 . S
C539 C538 1.370 . S
C539 C540 1.403 . S
C540 C539 1.403 . S
C540 C541 1.404 . S
C540 C543 1.539 . S
C541 C537 1.408 . S
C541 C540 1.404 . S
C541 H553 0.930 . S
C542 C538 1.524 . S
C542 H554 0.956 . S
C542 H555 0.961 . S
C542 H556 0.961 . S
C543 C540 1.539 . S
C543 H557 0.958 . S
C543 H558 0.961 . S
C543 H559 0.960 . S
H544 C528 0.931 . S
H545 C533 0.929 . S
H546 C534 0.960 . S
H547 C534 0.962 . S
H548 C534 0.960 . S
H549 C535 0.961 . S
H550 C535 0.961 . S
H551 C535 0.961 . S
H552 C536 0.931 . S
H553 C541 0.930 . S
H554 C542 0.956 . S
H555 C542 0.961 . S
H556 C542 0.961 . S
H557 C543 0.958 . S
H558 C543 0.961 . S
H559 C543 0.960 . S
C560 C561 1.391 . S
C560 C562 1.394 . S
C560 H576 0.931 . S
C561 C560 1.391 . S
C561 C565 1.376 . S
C562 C560 1.394 . S
C562 C563 1.369 . S
C562 C566 1.531 . S
C563 C562 1.369 . S
C563 C564 1.410 . S
C563 C571 1.503 . S
C564 C563 1.410 . S
C564 C565 1.392 . S
C564 C567 1.511 . S
C565 C561 1.376 . S
C565 C564 1.392 . S
C565 H577 0.929 . S
C566 C562 1.531 . S
C566 H578 0.960 . S
C566 H579 0.962 . S
C566 H580 0.960 . S
C567 C564 1.511 . S
C567 H581 0.961 . S
C567 H582 0.961 . S
C567 H583 0.961 . S
C568 C569 1.370 . S
C568 C570 1.363 . S
C568 H584 0.931 . S
C569 C568 1.370 . S
C569 C573 1.408 . S
C570 C568 1.363 . S
C570 C571 1.370 . S
C570 C574 1.524 . S
C571 C563 1.503 . S
C571 C570 1.370 . S
C571 C572 1.403 . S
C572 C571 1.403 . S
C572 C573 1.404 . S
C572 C575 1.539 . S
C573 C569 1.408 . S
C573 C572 1.404 . S
C573 H585 0.930 . S
C574 C570 1.524 . S
C574 H586 0.956 . S
C574 H587 0.961 . S
C574 H588 0.961 . S
C575 C572 1.539 . S
C575 H589 0.958 . S
C575 H590 0.961 . S
C575 H591 0.960 . S
H576 C560 0.931 . S
H577 C565 0.929 . S
H578 C566 0.960 . S
H579 C566 0.962 . S
H580 C566 0.960 . S
H581 C567 0.961 . S
H582 C567 0.961 . S
H583 C567 0.961 . S
H584 C568 0.931 . S
H585 C573 0.930 . S
H586 C574 0.956 . S
H587 C574 0.961 . S
H588 C574 0.961 . S
H589 C575 0.958 . S
H590 C575 0.961 . S
H591 C575 0.960 . S
C592 C593 1.391 . S
C592 C594 1.394 . S
C592 H608 0.931 . S
C593 C592 1.391 . S
C593 C597 1.376 . S
C594 C592 1.394 . S
C594 C595 1.369 . S
C594 C598 1.531 . S
C595 C594 1.369 . S
C595 C596 1.410 . S
C595 C603 1.503 . S
C596 C595 1.410 . S
C596 C597 1.392 . S
C596 C599 1.511 . S
C597 C593 1.376 . S
C597 C596 1.392 . S
C597 H609 0.929 . S
C598 C594 1.531 . S
C598 H610 0.960 . S
C598 H611 0.962 . S
C598 H612 0.960 . S
C599 C596 1.511 . S
C599 H613 0.961 . S
C599 H614 0.961 . S
C599 H615 0.961 . S
C600 C601 1.370 . S
C600 C602 1.363 . S
C600 H616 0.931 . S
C601 C600 1.370 . S
C601 C605 1.408 . S
C602 C600 1.363 . S
C602 C603 1.370 . S
C602 C606 1.524 . S
C603 C595 1.503 . S
C603 C602 1.370 . S
C603 C604 1.403 . S
C604 C603 1.403 . S
C604 C605 1.404 . S
C604 C607 1.539 . S
C605 C601 1.408 . S
C605 C604 1.404 . S
C605 H617 0.930 . S
C606 C602 1.524 . S
C606 H618 0.956 . S
C606 H619 0.961 . S
C606 H620 0.961 . S
C607 C604 1.539 . S
C607 H621 0.958 . S
C607 H622 0.961 . S
C607 H623 0.960 . S
H608 C592 0.931 . S
H609 C597 0.929 . S
H610 C598 0.960 . S
H611 C598 0.962 . S
H612 C598 0.960 . S
H613 C599 0.961 . S
H614 C599 0.961 . S
H615 C599 0.961 . S
H616 C600 0.931 . S
H617 C605 0.930 . S
H618 C606 0.956 . S
H619 C606 0.961 . S
H620 C606 0.961 . S
H621 C607 0.958 . S
H622 C607 0.961 . S
H623 C607 0.960 . S
C624 C625 1.391 . S
C624 C626 1.394 . S
C624 H640 0.931 . S
C625 C624 1.391 . S
C625 C629 1.376 . S
C626 C624 1.394 . S
C626 C627 1.369 . S
C626 C630 1.531 . S
C627 C626 1.369 . S
C627 C628 1.410 . S
C627 C635 1.503 . S
C628 C627 1.410 . S
C628 C629 1.392 . S
C628 C631 1.511 . S
C629 C625 1.376 . S
C629 C628 1.392 . S
C629 H641 0.929 . S
C630 C626 1.531 . S
C630 H642 0.960 . S
C630 H643 0.962 . S
C630 H644 0.960 . S
C631 C628 1.511 . S
C631 H645 0.961 . S
C631 H646 0.961 . S
C631 H647 0.961 . S
C632 C633 1.370 . S
C632 C634 1.363 . S
C632 H648 0.931 . S
C633 C632 1.370 . S
C633 C637 1.408 . S
C634 C632 1.363 . S
C634 C635 1.370 . S
C634 C638 1.524 . S
C635 C627 1.503 . S
C635 C634 1.370 . S
C635 C636 1.403 . S
C636 C635 1.403 . S
C636 C637 1.404 . S
C636 C639 1.539 . S
C637 C633 1.408 . S
C637 C636 1.404 . S
C637 H649 0.930 . S
C638 C634 1.524 . S
C638 H650 0.956 . S
C638 H651 0.961 . S
C638 H652 0.961 . S
C639 C636 1.539 . S
C639 H653 0.958 . S
C639 H654 0.961 . S
C639 H655 0.960 . S
H640 C624 0.931 . S
H641 C629 0.929 . S
H642 C630 0.960 . S
H643 C630 0.962 . S
H644 C630 0.960 . S
H645 C631 0.961 . S
H646 C631 0.961 . S
H647 C631 0.961 . S
H648 C632 0.931 . S
H649 C637 0.930 . S
H650 C638 0.956 . S
H651 C638 0.961 . S
H652 C638 0.961 . S
H653 C639 0.958 . S
H654 C639 0.961 . S
H655 C639 0.960 . S
C656 C657 1.391 . S
C656 C658 1.394 . S
C656 H672 0.931 . S
C657 C656 1.391 . S
C657 C661 1.376 . S
C658 C656 1.394 . S
C658 C659 1.369 . S
C658 C662 1.531 1_565 S
C659 C658 1.369 . S
C659 C660 1.410 . S
C659 C667 1.503 1_565 S
C660 C659 1.410 . S
C660 C661 1.392 . S
C660 C663 1.511 . S
C661 C657 1.376 . S
C661 C660 1.392 . S
C661 H673 0.929 . S
C662 C658 1.531 1_545 S
C662 H674 0.960 . S
C662 H675 0.962 . S
C662 H676 0.960 . S
C663 C660 1.511 . S
C663 H677 0.961 . S
C663 H678 0.961 . S
C663 H679 0.961 1_554 S
C664 C665 1.370 . S
C664 C666 1.363 . S
C664 H680 0.931 . S
C665 C664 1.370 . S
C665 C669 1.408 . S
C666 C664 1.363 . S
C666 C667 1.370 . S
C666 C670 1.524 1_545 S
C667 C659 1.503 1_545 S
C667 C666 1.370 . S
C667 C668 1.403 . S
C668 C667 1.403 . S
C668 C669 1.404 . S
C668 C671 1.539 1_554 S
C669 C665 1.408 . S
C669 C668 1.404 . S
C669 H681 0.930 . S
C670 C666 1.524 1_565 S
C670 H682 0.956 . S
C670 H683 0.961 . S
C670 H684 0.961 . S
C671 C668 1.539 1_556 S
C671 H685 0.958 1_556 S
C671 H686 0.961 . S
C671 H687 0.960 . S
H672 C656 0.931 . S
H673 C661 0.929 . S
H674 C662 0.960 . S
H675 C662 0.962 . S
H676 C662 0.960 . S
H677 C663 0.961 . S
H678 C663 0.961 . S
H679 C663 0.961 1_556 S
H680 C664 0.931 . S
H681 C669 0.930 . S
H682 C670 0.956 . S
H683 C670 0.961 . S
H684 C670 0.961 . S
H685 C671 0.958 1_554 S
H686 C671 0.961 . S
H687 C671 0.960 . S
C688 C689 1.391 . S
C688 C690 1.394 . S
C688 H704 0.931 . S
C689 C688 1.391 . S
C689 C693 1.376 . S
C690 C688 1.394 . S
C690 C691 1.369 . S
C690 C694 1.531 . S
C691 C690 1.369 . S
C691 C692 1.410 . S
C691 C699 1.503 . S
C692 C691 1.410 . S
C692 C693 1.392 . S
C692 C695 1.511 . S
C693 C689 1.376 . S
C693 C692 1.392 . S
C693 H705 0.929 . S
C694 C690 1.531 . S
C694 H706 0.960 . S
C694 H707 0.962 . S
C694 H708 0.960 . S
C695 C692 1.511 . S
C695 H709 0.961 . S
C695 H710 0.961 . S
C695 H711 0.961 . S
C696 C697 1.370 . S
C696 C698 1.363 . S
C696 H712 0.931 . S
C697 C696 1.370 . S
C697 C701 1.408 . S
C698 C696 1.363 . S
C698 C699 1.370 . S
C698 C702 1.524 . S
C699 C691 1.503 . S
C699 C698 1.370 . S
C699 C700 1.403 . S
C700 C699 1.403 . S
C700 C701 1.404 . S
C700 C703 1.539 . S
C701 C697 1.408 . S
C701 C700 1.404 . S
C701 H713 0.930 . S
C702 C698 1.524 . S
C702 H714 0.956 . S
C702 H715 0.961 . S
C702 H716 0.961 . S
C703 C700 1.539 . S
C703 H717 0.958 . S
C703 H718 0.961 . S
C703 H719 0.960 . S
H704 C688 0.931 . S
H705 C693 0.929 . S
H706 C694 0.960 . S
H707 C694 0.962 . S
H708 C694 0.960 . S
H709 C695 0.961 . S
H710 C695 0.961 . S
H711 C695 0.961 . S
H712 C696 0.931 . S
H713 C701 0.930 . S
H714 C702 0.956 . S
H715 C702 0.961 . S
H716 C702 0.961 . S
H717 C703 0.958 . S
H718 C703 0.961 . S
H719 C703 0.960 . S
C720 C721 1.391 . S
C720 C722 1.394 . S
C720 H736 0.931 . S
C721 C720 1.391 . S
C721 C725 1.376 . S
C722 C720 1.394 . S
C722 C723 1.369 . S
C722 C726 1.531 1_545 S
C723 C722 1.369 . S
C723 C724 1.410 . S
C723 C731 1.503 1_545 S
C724 C723 1.410 . S
C724 C725 1.392 . S
C724 C727 1.511 . S
C725 C721 1.376 . S
C725 C724 1.392 . S
C725 H737 0.929 . S
C726 C722 1.531 1_565 S
C726 H738 0.960 . S
C726 H739 0.962 1_556 S
C726 H740 0.965 . S
C727 C724 1.511 . S
C727 H741 0.961 . S
C727 H742 0.961 . S
C727 H743 0.961 . S
C728 C729 1.370 . S
C728 C730 1.363 . S
C728 H744 0.931 . S
C729 C728 1.370 . S
C729 C733 1.408 . S
C730 C728 1.363 . S
C730 C731 1.370 . S
C730 C734 1.524 1_565 S
C731 C723 1.503 1_565 S
C731 C730 1.370 . S
C731 C732 1.403 . S
C732 C731 1.403 . S
C732 C733 1.404 . S
C732 C735 1.539 . S
C733 C729 1.408 . S
C733 C732 1.404 . S
C733 H745 0.930 . S
C734 C730 1.524 1_545 S
C734 H746 0.956 . S
C734 H747 0.961 . S
C734 H748 0.961 . S
C735 C732 1.539 . S
C735 H749 0.958 . S
C735 H750 0.961 . S
C735 H751 0.960 . S
H736 C720 0.931 . S
H737 C725 0.929 . S
H738 C726 0.960 . S
H739 C726 0.962 1_554 S
H740 C726 0.965 . S
H741 C727 0.961 . S
H742 C727 0.961 . S
H743 C727 0.961 . S
H744 C728 0.931 . S
H745 C733 0.930 . S
H746 C734 0.956 . S
H747 C734 0.961 . S
H748 C734 0.961 . S
H749 C735 0.958 . S
H750 C735 0.961 . S
H751 C735 0.960 . S
C752 C753 1.391 . S
C752 C754 1.394 . S
C752 H768 0.931 . S
C753 C752 1.391 . S
C753 C757 1.376 . S
C754 C752 1.394 . S
C754 C755 1.369 . S
C754 C758 1.531 . S
C755 C754 1.369 . S
C755 C756 1.410 . S
C755 C763 1.503 . S
C756 C755 1.410 . S
C756 C757 1.392 . S
C756 C759 1.511 . S
C757 C753 1.376 . S
C757 C756 1.392 . S
C757 H769 0.929 . S
C758 C754 1.531 . S
C758 H770 0.960 . S
C758 H771 0.962 . S
C758 H772 0.960 . S
C759 C756 1.511 . S
C759 H773 0.961 . S
C759 H774 0.961 . S
C759 H775 0.961 . S
C760 C761 1.370 . S
C760 C762 1.363 . S
C760 H776 0.931 . S
C761 C760 1.370 . S
C761 C765 1.408 . S
C762 C760 1.363 . S
C762 C763 1.370 . S
C762 C766 1.524 . S
C763 C755 1.503 . S
C763 C762 1.370 . S
C763 C764 1.403 . S
C764 C763 1.403 . S
C764 C765 1.404 . S
C764 C767 1.539 . S
C765 C761 1.408 . S
C765 C764 1.404 . S
C765 H777 0.930 . S
C766 C762 1.524 . S
C766 H778 0.956 . S
C766 H779 0.961 . S
C766 H780 0.961 . S
C767 C764 1.539 . S
C767 H781 0.958 . S
C767 H782 0.961 . S
C767 H783 0.960 . S
H768 C752 0.931 . S
H769 C757 0.929 . S
H770 C758 0.960 . S
H771 C758 0.962 . S
H772 C758 0.960 . S
H773 C759 0.961 . S
H774 C759 0.961 . S
H775 C759 0.961 . S
H776 C760 0.931 . S
H777 C765 0.930 . S
H778 C766 0.956 . S
H779 C766 0.961 . S
H780 C766 0.961 . S
H781 C767 0.958 . S
H782 C767 0.961 . S
H783 C767 0.960 . S
C784 C785 1.391 1_556 S
C784 C786 1.394 . S
C784 H800 0.931 . S
C785 C784 1.391 1_554 S
C785 C789 1.376 . S
C786 C784 1.394 . S
C786 C787 1.369 . S
C786 C790 1.531 1_455 S
C787 C786 1.369 . S
C787 C788 1.410 1_556 S
C787 C795 1.503 1_445 S
C788 C787 1.410 1_554 S
C788 C789 1.392 . S
C788 C791 1.511 1_545 S
C789 C785 1.376 . S
C789 C788 1.392 . S
C789 H801 0.929 . S
C790 C786 1.531 1_655 S
C790 H802 0.960 . S
C790 H803 0.962 1_556 S
C790 H804 0.960 . S
C791 C788 1.511 1_565 S
C791 H805 0.961 . S
C791 H806 0.961 . S
C791 H807 0.961 1_554 S
C792 C793 1.370 1_554 S
C792 C794 1.363 . S
C792 H808 0.931 . S
C793 C792 1.370 1_556 S
C793 C797 1.408 . S
C794 C792 1.363 . S
C794 C795 1.370 1_554 S
C794 C798 1.524 . S
C795 C787 1.503 1_665 S
C795 C794 1.370 1_556 S
C795 C796 1.403 . S
C796 C795 1.403 . S
C796 C797 1.404 . S
C796 C799 1.539 1_655 S
C797 C793 1.408 . S
C797 C796 1.404 . S
C797 H809 0.930 . S
C798 C794 1.524 . S
C798 H810 0.956 1_565 S
C798 H811 0.961 1_655 S
C798 H812 0.961 . S
C799 C796 1.539 1_455 S
C799 H813 0.958 1_455 S
C799 H814 0.961 . S
C799 H815 0.960 . S
H800 C784 0.931 . S
H801 C789 0.929 . S
H802 C790 0.960 . S
H803 C790 0.962 1_554 S
H804 C790 0.960 . S
H805 C791 0.961 . S
H806 C791 0.961 . S
H807 C791 0.961 1_556 S
H808 C792 0.931 . S
H809 C797 0.930 . S
H810 C798 0.956 1_545 S
H811 C798 0.961 1_455 S
H812 C798 0.961 . S
H813 C799 0.958 1_655 S
H814 C799 0.961 . S
H815 C799 0.960 . S
C816 C817 1.391 1_554 S
C816 C818 1.394 . S
C816 H832 0.931 . S
C817 C816 1.391 1_556 S
C817 C821 1.376 . S
C818 C816 1.394 . S
C818 C819 1.369 1_554 S
C818 C822 1.531 . S
C819 C818 1.369 1_556 S
C819 C820 1.410 . S
C819 C827 1.506 1_545 S
C820 C819 1.410 . S
C820 C821 1.392 . S
C820 C823 1.511 1_545 S
C821 C817 1.376 . S
C821 C820 1.392 . S
C821 H833 0.929 . S
C822 C818 1.531 . S
C822 H834 0.960 . S
C822 H835 0.962 . S
C822 H836 0.960 . S
C823 C820 1.511 1_565 S
C823 H837 0.961 . S
C823 H838 0.961 . S
C823 H839 0.961 . S
C824 C825 1.370 . S
C824 C826 1.363 . S
C824 H840 0.931 . S
C825 C824 1.370 . S
C825 C829 1.408 1_554 S
C826 C824 1.363 . S
C826 C827 1.361 1_554 S
C826 C830 1.524 . S
C827 C819 1.506 1_565 S
C827 C826 1.361 1_556 S
C827 C828 1.409 . S
C828 C827 1.409 . S
C828 C829 1.404 . S
C828 C831 1.539 1_565 S
C829 C825 1.408 1_556 S
C829 C828 1.404 . S
C829 H841 0.930 . S
C830 C826 1.524 . S
C830 H842 0.956 . S
C830 H843 0.961 . S
C830 H844 0.961 . S
C831 C828 1.539 1_545 S
C831 H845 0.958 . S
C831 H846 0.961 . S
C831 H847 0.960 . S
H832 C816 0.931 . S
H833 C821 0.929 . S
H834 C822 0.960 . S
H835 C822 0.962 . S
H836 C822 0.960 . S
H837 C823 0.961 . S
H838 C823 0.961 . S
H839 C823 0.961 . S
H840 C824 0.931 . S
H841 C829 0.930 . S
H842 C830 0.956 . S
H843 C830 0.961 . S
H844 C830 0.961 . S
H845 C831 0.958 . S
H846 C831 0.961 . S
H847 C831 0.960 . S
C848 C849 1.391 . S
C848 C850 1.394 . S
C848 H864 0.931 . S
C849 C848 1.391 . S
C849 C853 1.376 . S
C850 C848 1.394 . S
C850 C851 1.369 . S
C850 C854 1.531 1_455 S
C851 C850 1.369 . S
C851 C852 1.410 . S
C851 C859 1.503 1_455 S
C852 C851 1.410 . S
C852 C853 1.392 . S
C852 C855 1.511 . S
C853 C849 1.376 . S
C853 C852 1.392 . S
C853 H865 0.929 . S
C854 C850 1.531 1_655 S
C854 H866 0.960 . S
C854 H867 0.962 . S
C854 H868 0.960 . S
C855 C852 1.511 . S
C855 H869 0.961 . S
C855 H870 0.961 . S
C855 H871 0.961 . S
C856 C857 1.370 . S
C856 C858 1.363 . S
C856 H872 0.931 . S
C857 C856 1.370 . S
C857 C861 1.408 . S
C858 C856 1.363 . S
C858 C859 1.370 . S
C858 C862 1.524 . S
C859 C851 1.503 1_655 S
C859 C858 1.370 . S
C859 C860 1.403 . S
C860 C859 1.403 . S
C860 C861 1.404 . S
C860 C863 1.539 1_655 S
C861 C857 1.408 . S
C861 C860 1.404 . S
C861 H873 0.930 . S
C862 C858 1.524 . S
C862 H874 0.956 . S
C862 H875 0.961 . S
C862 H876 0.961 . S
C863 C860 1.539 1_455 S
C863 H877 0.958 . S
C863 H878 0.961 . S
C863 H879 0.960 . S
H864 C848 0.931 . S
H865 C853 0.929 . S
H866 C854 0.960 . S
H867 C854 0.962 . S
H868 C854 0.960 . S
H869 C855 0.961 . S
H870 C855 0.961 . S
H871 C855 0.961 . S
H872 C856 0.931 . S
H873 C861 0.930 . S
H874 C862 0.956 . S
H875 C862 0.961 . S
H876 C862 0.961 . S
H877 C863 0.958 . S
H878 C863 0.961 . S
H879 C863 0.960 . S
C880 C881 1.391 . S
C880 C882 1.394 . S
C880 H896 0.931 . S
C881 C880 1.391 . S
C881 C885 1.376 . S
C882 C880 1.394 . S
C882 C883 1.369 . S
C882 C886 1.531 . S
C883 C882 1.369 . S
C883 C884 1.410 . S
C883 C891 1.503 . S
C884 C883 1.410 . S
C884 C885 1.392 . S
C884 C887 1.511 . S
C885 C881 1.376 . S
C885 C884 1.392 . S
C885 H897 0.929 . S
C886 C882 1.531 . S
C886 H898 0.960 . S
C886 H899 0.962 . S
C886 H900 0.960 . S
C887 C884 1.511 . S
C887 H901 0.961 . S
C887 H902 0.961 . S
C887 H903 0.961 . S
C888 C889 1.370 . S
C888 C890 1.363 . S
C888 H904 0.931 . S
C889 C888 1.370 . S
C889 C893 1.408 . S
C890 C888 1.363 . S
C890 C891 1.370 . S
C890 C894 1.524 . S
C891 C883 1.503 . S
C891 C890 1.370 . S
C891 C892 1.403 . S
C892 C891 1.403 . S
C892 C893 1.404 . S
C892 C895 1.539 . S
C893 C889 1.408 . S
C893 C892 1.404 . S
C893 H905 0.930 . S
C894 C890 1.524 . S
C894 H906 0.956 . S
C894 H907 0.961 . S
C894 H908 0.961 . S
C895 C892 1.539 . S
C895 H909 0.958 . S
C895 H910 0.961 . S
C895 H911 0.960 . S
H896 C880 0.931 . S
H897 C885 0.929 . S
H898 C886 0.960 . S
H899 C886 0.962 . S
H900 C886 0.960 . S
H901 C887 0.961 . S
H902 C887 0.961 . S
H903 C887 0.961 . S
H904 C888 0.931 . S
H905 C893 0.930 . S
H906 C894 0.956 . S
H907 C894 0.961 . S
H908 C894 0.961 . S
H909 C895 0.958 . S
H910 C895 0.961 . S
H911 C895 0.960 . S
C912 C913 1.391 . S
C912 C914 1.394 . S
C912 H928 0.931 . S
C913 C912 1.391 . S
C913 C917 1.376 . S
C914 C912 1.394 . S
C914 C915 1.369 . S
C914 C918 1.531 . S
C915 C914 1.369 . S
C915 C916 1.410 . S
C915 C923 1.503 . S
C916 C915 1.410 . S
C916 C917 1.392 . S
C916 C919 1.511 . S
C917 C913 1.376 . S
C917 C916 1.392 . S
C917 H929 0.929 . S
C918 C914 1.531 . S
C918 H930 0.960 . S
C918 H931 0.962 . S
C918 H932 0.960 . S
C919 C916 1.511 . S
C919 H933 0.961 . S
C919 H934 0.961 . S
C919 H935 0.961 . S
C920 C921 1.370 . S
C920 C922 1.363 . S
C920 H936 0.931 . S
C921 C920 1.370 . S
C921 C925 1.408 . S
C922 C920 1.363 . S
C922 C923 1.370 . S
C922 C926 1.524 . S
C923 C915 1.503 . S
C923 C922 1.370 . S
C923 C924 1.403 . S
C924 C923 1.403 . S
C924 C925 1.404 . S
C924 C927 1.539 . S
C925 C921 1.408 . S
C925 C924 1.404 . S
C925 H937 0.930 . S
C926 C922 1.524 . S
C926 H938 0.956 . S
C926 H939 0.961 . S
C926 H940 0.961 . S
C927 C924 1.539 . S
C927 H941 0.958 . S
C927 H942 0.961 . S
C927 H943 0.960 . S
H928 C912 0.931 . S
H929 C917 0.929 . S
H930 C918 0.960 . S
H931 C918 0.962 . S
H932 C918 0.960 . S
H933 C919 0.961 . S
H934 C919 0.961 . S
H935 C919 0.961 . S
H936 C920 0.931 . S
H937 C925 0.930 . S
H938 C926 0.956 . S
H939 C926 0.961 . S
H940 C926 0.961 . S
H941 C927 0.958 . S
H942 C927 0.961 . S
H943 C927 0.960 . S
C944 C945 1.391 . S
C944 C946 1.394 . S
C944 H960 0.931 . S
C945 C944 1.391 . S
C945 C949 1.376 . S
C946 C944 1.394 . S
C946 C947 1.369 . S
C946 C950 1.531 . S
C947 C946 1.369 . S
C947 C948 1.410 . S
C947 C955 1.503 . S
C948 C947 1.410 . S
C948 C949 1.392 . S
C948 C951 1.511 . S
C949 C945 1.376 . S
C949 C948 1.392 . S
C949 H961 0.929 . S
C950 C946 1.531 . S
C950 H962 0.960 . S
C950 H963 0.962 . S
C950 H964 0.960 . S
C951 C948 1.511 . S
C951 H965 0.961 . S
C951 H966 0.961 . S
C951 H967 0.961 . S
C952 C953 1.370 . S
C952 C954 1.363 . S
C952 H968 0.931 . S
C953 C952 1.370 . S
C953 C957 1.408 . S
C954 C952 1.363 . S
C954 C955 1.370 . S
C954 C958 1.524 . S
C955 C947 1.503 . S
C955 C954 1.370 . S
C955 C956 1.403 . S
C956 C955 1.403 . S
C956 C957 1.404 . S
C956 C959 1.539 . S
C957 C953 1.408 . S
C957 C956 1.404 . S
C957 H969 0.930 . S
C958 C954 1.524 . S
C958 H970 0.956 . S
C958 H971 0.961 . S
C958 H972 0.961 . S
C959 C956 1.539 . S
C959 H973 0.958 . S
C959 H974 0.961 . S
C959 H975 0.960 . S
H960 C944 0.931 . S
H961 C949 0.929 . S
H962 C950 0.960 . S
H963 C950 0.962 . S
H964 C950 0.960 . S
H965 C951 0.961 . S
H966 C951 0.961 . S
H967 C951 0.961 . S
H968 C952 0.931 . S
H969 C957 0.930 . S
H970 C958 0.956 . S
H971 C958 0.961 . S
H972 C958 0.961 . S
H973 C959 0.958 . S
H974 C959 0.961 . S
H975 C959 0.960 . S
C976 C977 1.391 . S
C976 C978 1.394 1_554 S
C976 H992 0.931 . S
C977 C976 1.391 . S
C977 C981 1.376 . S
C978 C976 1.394 1_556 S
C978 C979 1.369 . S
C978 C982 1.531 . S
C979 C978 1.369 . S
C979 C980 1.410 . S
C979 C987 1.503 . S
C980 C979 1.410 . S
C980 C981 1.392 1_556 S
C980 C983 1.511 . S
C981 C977 1.376 . S
C981 C980 1.392 1_554 S
C981 H993 0.929 . S
C982 C978 1.531 . S
C982 H994 0.960 . S
C982 H995 0.962 . S
C982 H996 0.956 1_556 S
C983 C980 1.511 . S
C983 H997 0.961 . S
C983 H998 0.961 . S
C983 H999 0.961 . S
C984 C985 1.370 . S
C984 C986 1.363 . S
C984 H1000 0.931 . S
C985 C984 1.370 . S
C985 C989 1.408 . S
C986 C984 1.363 . S
C986 C987 1.370 . S
C986 C990 1.524 . S
C987 C979 1.503 . S
C987 C986 1.370 . S
C987 C988 1.403 . S
C988 C987 1.403 . S
C988 C989 1.404 . S
C988 C991 1.539 . S
C989 C985 1.408 . S
C989 C988 1.404 . S
C989 H1001 0.930 . S
C990 C986 1.524 . S
C990 H1002 0.956 . S
C990 H1003 0.961 . S
C990 H1004 0.961 . S
C991 C988 1.539 . S
C991 H1005 0.958 . S
C991 H1006 0.961 . S
C991 H1007 0.960 . S
H992 C976 0.931 . S
H993 C981 0.929 . S
H994 C982 0.960 . S
H995 C982 0.962 . S
H996 C982 0.956 1_554 S
H997 C983 0.961 . S
H998 C983 0.961 . S
H999 C983 0.961 . S
H1000 C984 0.931 . S
H1001 C989 0.930 . S
H1002 C990 0.956 . S
H1003 C990 0.961 . S
H1004 C990 0.961 . S
H1005 C991 0.958 . S
H1006 C991 0.961 . S
H1007 C991 0.960 . S
C1008 C1009 1.391 . S
C1008 C1010 1.394 . S
C1008 H1024 0.931 . S
C1009 C1008 1.391 . S
C1009 C1013 1.376 . S
C1010 C1008 1.394 . S
C1010 C1011 1.369 . S
C1010 C1014 1.531 . S
C1011 C1010 1.369 . S
C1011 C1012 1.410 . S
C1011 C1019 1.503 . S
C1012 C1011 1.410 . S
C1012 C1013 1.392 . S
C1012 C1015 1.511 . S
C1013 C1009 1.376 . S
C1013 C1012 1.392 . S
C1013 H1025 0.929 . S
C1014 C1010 1.531 . S
C1014 H1026 0.960 . S
C1014 H1027 0.962 . S
C1014 H1028 0.960 . S
C1015 C1012 1.511 . S
C1015 H1029 0.961 . S
C1015 H1030 0.961 . S
C1015 H1031 0.961 . S
C1016 C1017 1.370 . S
C1016 C1018 1.363 1_554 S
C1016 H1032 0.931 . S
C1017 C1016 1.370 . S
C1017 C1021 1.408 . S
C1018 C1016 1.363 1_556 S
C1018 C1019 1.370 . S
C1018 C1022 1.524 . S
C1019 C1011 1.503 . S
C1019 C1018 1.370 . S
C1019 C1020 1.403 . S
C1020 C1019 1.403 . S
C1020 C1021 1.404 1_556 S
C1020 C1023 1.539 . S
C1021 C1017 1.408 . S
C1021 C1020 1.404 1_554 S
C1021 H1033 0.930 . S
C1022 C1018 1.524 . S
C1022 H1034 0.956 . S
C1022 H1035 0.961 . S
C1022 H1036 0.961 . S
C1023 C1020 1.539 . S
C1023 H1037 0.958 . S
C1023 H1038 0.961 . S
C1023 H1039 0.960 . S
H1024 C1008 0.931 . S
H1025 C1013 0.929 . S
H1026 C1014 0.960 . S
H1027 C1014 0.962 . S
H1028 C1014 0.960 . S
H1029 C1015 0.961 . S
H1030 C1015 0.961 . S
H1031 C1015 0.961 . S
H1032 C1016 0.931 . S
H1033 C1021 0.930 . S
H1034 C1022 0.956 . S
H1035 C1022 0.961 . S
H1036 C1022 0.961 . S
H1037 C1023 0.958 . S
H1038 C1023 0.961 . S
H1039 C1023 0.960 . S
C1040 C1041 1.391 . S
C1040 C1042 1.394 . S
C1040 H1056 0.931 . S
C1041 C1040 1.391 . S
C1041 C1045 1.376 . S
C1042 C1040 1.394 . S
C1042 C1043 1.369 . S
C1042 C1046 1.531 . S
C1043 C1042 1.369 . S
C1043 C1044 1.410 . S
C1043 C1051 1.503 . S
C1044 C1043 1.410 . S
C1044 C1045 1.392 . S
C1044 C1047 1.511 . S
C1045 C1041 1.376 . S
C1045 C1044 1.392 . S
C1045 H1057 0.929 . S
C1046 C1042 1.531 . S
C1046 H1058 0.960 . S
C1046 H1059 0.962 . S
C1046 H1060 0.960 . S
C1047 C1044 1.511 . S
C1047 H1061 0.961 . S
C1047 H1062 0.961 . S
C1047 H1063 0.961 . S
C1048 C1049 1.370 . S
C1048 C1050 1.363 . S
C1048 H1064 0.931 . S
C1049 C1048 1.370 . S
C1049 C1053 1.408 . S
C1050 C1048 1.363 . S
C1050 C1051 1.370 . S
C1050 C1054 1.524 . S
C1051 C1043 1.503 . S
C1051 C1050 1.370 . S
C1051 C1052 1.403 . S
C1052 C1051 1.403 . S
C1052 C1053 1.404 . S
C1052 C1055 1.539 . S
C1053 C1049 1.408 . S
C1053 C1052 1.404 . S
C1053 H1065 0.930 . S
C1054 C1050 1.524 . S
C1054 H1066 0.956 . S
C1054 H1067 0.961 . S
C1054 H1068 0.961 . S
C1055 C1052 1.539 . S
C1055 H1069 0.958 . S
C1055 H1070 0.961 . S
C1055 H1071 0.960 . S
H1056 C1040 0.931 . S
H1057 C1045 0.929 . S
H1058 C1046 0.960 . S
H1059 C1046 0.962 . S
H1060 C1046 0.960 . S
H1061 C1047 0.961 . S
H1062 C1047 0.961 . S
H1063 C1047 0.961 . S
H1064 C1048 0.931 . S
H1065 C1053 0.930 . S
H1066 C1054 0.956 . S
H1067 C1054 0.961 . S
H1068 C1054 0.961 . S
H1069 C1055 0.958 . S
H1070 C1055 0.961 . S
H1071 C1055 0.960 . S
C1072 C1073 1.391 . S
C1072 C1074 1.394 . S
C1072 H1088 0.931 . S
C1073 C1072 1.391 . S
C1073 C1077 1.376 . S
C1074 C1072 1.394 . S
C1074 C1075 1.369 . S
C1074 C1078 1.531 . S
C1075 C1074 1.369 . S
C1075 C1076 1.410 . S
C1075 C1083 1.503 . S
C1076 C1075 1.410 . S
C1076 C1077 1.392 . S
C1076 C1079 1.511 . S
C1077 C1073 1.376 . S
C1077 C1076 1.392 . S
C1077 H1089 0.929 . S
C1078 C1074 1.531 . S
C1078 H1090 0.960 . S
C1078 H1091 0.962 . S
C1078 H1092 0.960 . S
C1079 C1076 1.511 . S
C1079 H1093 0.961 . S
C1079 H1094 0.961 . S
C1079 H1095 0.961 . S
C1080 C1081 1.370 . S
C1080 C1082 1.363 . S
C1080 H1096 0.931 . S
C1081 C1080 1.370 . S
C1081 C1085 1.408 . S
C1082 C1080 1.363 . S
C1082 C1083 1.370 . S
C1082 C1086 1.524 . S
C1083 C1075 1.503 . S
C1083 C1082 1.370 . S
C1083 C1084 1.403 . S
C1084 C1083 1.403 . S
C1084 C1085 1.404 . S
C1084 C1087 1.539 . S
C1085 C1081 1.408 . S
C1085 C1084 1.404 . S
C1085 H1097 0.930 . S
C1086 C1082 1.524 . S
C1086 H1098 0.956 . S
C1086 H1099 0.961 . S
C1086 H1100 0.961 . S
C1087 C1084 1.539 . S
C1087 H1101 0.958 . S
C1087 H1102 0.961 . S
C1087 H1103 0.960 . S
H1088 C1072 0.931 . S
H1089 C1077 0.929 . S
H1090 C1078 0.960 . S
H1091 C1078 0.962 . S
H1092 C1078 0.960 . S
H1093 C1079 0.961 . S
H1094 C1079 0.961 . S
H1095 C1079 0.961 . S
H1096 C1080 0.931 . S
H1097 C1085 0.930 . S
H1098 C1086 0.956 . S
H1099 C1086 0.961 . S
H1100 C1086 0.961 . S
H1101 C1087 0.958 . S
H1102 C1087 0.961 . S
H1103 C1087 0.960 . S
C1104 C1105 1.391 . S
C1104 C1106 1.394 1_556 S
C1104 H1120 0.931 . S
C1105 C1104 1.391 . S
C1105 C1109 1.376 . S
C1106 C1104 1.394 1_554 S
C1106 C1107 1.369 . S
C1106 C1110 1.531 . S
C1107 C1106 1.369 . S
C1107 C1108 1.410 . S
C1107 C1115 1.503 . S
C1108 C1107 1.410 . S
C1108 C1109 1.392 1_554 S
C1108 C1111 1.511 . S
C1109 C1105 1.376 . S
C1109 C1108 1.392 1_556 S
C1109 H1121 0.929 . S
C1110 C1106 1.531 . S
C1110 H1122 0.960 . S
C1110 H1123 0.962 . S
C1110 H1124 0.960 . S
C1111 C1108 1.511 . S
C1111 H1125 0.961 1_554 S
C1111 H1126 0.961 . S
C1111 H1127 0.961 . S
C1112 C1113 1.370 . S
C1112 C1114 1.363 . S
C1112 H1128 0.931 . S
C1113 C1112 1.370 . S
C1113 C1117 1.408 . S
C1114 C1112 1.363 . S
C1114 C1115 1.370 . S
C1114 C1118 1.524 . S
C1115 C1107 1.503 . S
C1115 C1114 1.370 . S
C1115 C1116 1.403 . S
C1116 C1115 1.403 . S
C1116 C1117 1.404 . S
C1116 C1119 1.539 . S
C1117 C1113 1.408 . S
C1117 C1116 1.404 . S
C1117 H1129 0.930 . S
C1118 C1114 1.524 . S
C1118 H1130 0.956 . S
C1118 H1131 0.961 . S
C1118 H1132 0.961 . S
C1119 C1116 1.539 . S
C1119 H1133 0.958 . S
C1119 H1134 0.961 . S
C1119 H1135 0.960 . S
H1120 C1104 0.931 . S
H1121 C1109 0.929 . S
H1122 C1110 0.960 . S
H1123 C1110 0.962 . S
H1124 C1110 0.960 . S
H1125 C1111 0.961 1_556 S
H1126 C1111 0.961 . S
H1127 C1111 0.961 . S
H1128 C1112 0.931 . S
H1129 C1117 0.930 . S
H1130 C1118 0.956 . S
H1131 C1118 0.961 . S
H1132 C1118 0.961 . S
H1133 C1119 0.958 . S
H1134 C1119 0.961 . S
H1135 C1119 0.960 . S
C1136 C1137 1.391 . S
C1136 C1138 1.394 . S
C1136 H1152 0.931 . S
C1137 C1136 1.391 . S
C1137 C1141 1.376 . S
C1138 C1136 1.394 . S
C1138 C1139 1.369 . S
C1138 C1142 1.531 . S
C1139 C1138 1.369 . S
C1139 C1140 1.410 . S
C1139 C1147 1.503 . S
C1140 C1139 1.410 . S
C1140 C1141 1.392 . S
C1140 C1143 1.511 . S
C1141 C1137 1.376 . S
C1141 C1140 1.392 . S
C1141 H1153 0.929 . S
C1142 C1138 1.531 . S
C1142 H1154 0.960 . S
C1142 H1155 0.962 . S
C1142 H1156 0.960 . S
C1143 C1140 1.511 . S
C1143 H1157 0.961 . S
C1143 H1158 0.961 . S
C1143 H1159 0.961 . S
C1144 C1145 1.370 . S
C1144 C1146 1.363 1_556 S
C1144 H1160 0.931 . S
C1145 C1144 1.370 . S
C1145 C1149 1.408 . S
C1146 C1144 1.363 1_554 S
C1146 C1147 1.370 . S
C1146 C1150 1.524 . S
C1147 C1139 1.503 . S
C1147 C1146 1.370 . S
C1147 C1148 1.396 1_554 S
C1148 C1147 1.396 1_556 S
C1148 C1149 1.411 . S
C1148 C1151 1.539 1_556 S
C1149 C1145 1.408 . S
C1149 C1148 1.411 . S
C1149 H1161 0.930 . S
C1150 C1146 1.524 . S
C1150 H1162 0.956 . S
C1150 H1163 0.961 . S
C1150 H1164 0.961 . S
C1151 C1148 1.539 1_554 S
C1151 H1165 0.959 . S
C1151 H1166 0.949 1_554 S
C1151 H1167 0.972 . S
H1152 C1136 0.931 . S
H1153 C1141 0.929 . S
H1154 C1142 0.960 . S
H1155 C1142 0.962 . S
H1156 C1142 0.960 . S
H1157 C1143 0.961 . S
H1158 C1143 0.961 . S
H1159 C1143 0.961 . S
H1160 C1144 0.931 . S
H1161 C1149 0.930 . S
H1162 C1150 0.956 . S
H1163 C1150 0.961 . S
H1164 C1150 0.961 . S
H1165 C1151 0.959 . S
H1166 C1151 0.949 1_556 S
H1167 C1151 0.972 . S
C273 C198 1.629 . S
C281 C28 1.580 . S
C305 C40 1.566 . S
C313 C142 1.623 1_455 S
C337 C244 1.632 . S
C345 C96 1.582 . S
C369 C210 1.600 1_455 S
C377 C108 1.600 . S
C401 C164 1.616 . S
C409 C62 1.608 . S
C433 C176 1.564 . S
C441 C6 1.624 1_655 S
C465 C232 1.572 . S
C473 C130 1.623 . S
C497 C266 1.588 . S
C505 C74 1.620 1_655 S
C529 C85 1.799 . S
C537 C17 1.785 . S
C561 C119 1.760 . S
C569 C51 1.799 . S
C593 C153 1.804 . S
C601 C221 1.781 . S
C625 C187 1.795 . S
C633 C255 1.785 . S
C657 C35 1.638 . S
C665 C3 1.668 . S
C689 C71 1.678 . S
C697 C103 1.688 . S
C721 C171 1.665 . S
C729 C139 1.688 . S
C753 C241 1.691 . S
C761 C207 1.685 . S
C785 C1 1.823 . S
C793 C137 1.805 . S
C817 C173 1.814 . S
C825 C37 1.809 . S
C849 C69 1.801 . S
C857 C205 1.814 . S
C881 C105 1.774 . S
C889 C239 1.823 . S
C913 C22 1.395 . S
C921 C15 1.393 . S
C945 C56 1.409 . S
C953 C49 1.371 . S
C977 C83 1.416 . S
C985 C90 1.369 . S
C1009 C117 1.347 . S
C1017 C124 1.411 . S
C1041 C158 1.416 . S
C1049 C151 1.381 . S
C1073 C192 1.381 . S
C1081 C185 1.391 . S
C1105 C219 1.367 . S
C1113 C226 1.396 . S
C1137 C260 1.435 . S
C1145 C253 1.370 . S
