# Generated by pormake.
# Topology qtz-f, (3)-cn, num edge types: 1
# Building blocks:
#     Node 0, Type 0, BuildingBlock: OLANEW_clean_sbu_2, # of connection points: 3
#     Node 1, Type 0, BuildingBlock: OLANEW_clean_sbu_2, # of connection points: 3
#     Node 2, Type 0, BuildingBlock: OLANEW_clean_sbu_2, # of connection points: 3
#     Node 3, Type 0, BuildingBlock: OLANEW_clean_sbu_2, # of connection points: 3
#     Node 4, Type 0, BuildingBlock: OLANEW_clean_sbu_2, # of connection points: 3
#     Node 5, Type 0, BuildingBlock: OLANEW_clean_sbu_2, # of connection points: 3
#     Node 6, Type 0, BuildingBlock: OLANEW_clean_sbu_2, # of connection points: 3
#     Node 7, Type 0, BuildingBlock: OLANEW_clean_sbu_2, # of connection points: 3
#     Node 8, Type 0, BuildingBlock: OLANEW_clean_sbu_2, # of connection points: 3
#     Node 9, Type 0, BuildingBlock: OLANEW_clean_sbu_2, # of connection points: 3
#     Node 10, Type 0, BuildingBlock: OLANEW_clean_sbu_2, # of connection points: 3
#     Node 11, Type 0, BuildingBlock: OLANEW_clean_sbu_2, # of connection points: 3
#     Edge 12, Type (0, 0), BuildingBlock: EZIPEK_clean_linker_0, # of connection points: 2
#     Edge 13, Type (0, 0), BuildingBlock: EZIPEK_clean_linker_0, # of connection points: 2
#     Edge 14, Type (0, 0), BuildingBlock: EZIPEK_clean_linker_0, # of connection points: 2
#     Edge 15, Type (0, 0), BuildingBlock: EZIPEK_clean_linker_0, # of connection points: 2
#     Edge 16, Type (0, 0), BuildingBlock: EZIPEK_clean_linker_0, # of connection points: 2
#     Edge 17, Type (0, 0), BuildingBlock: EZIPEK_clean_linker_0, # of connection points: 2
#     Edge 18, Type (0, 0), BuildingBlock: EZIPEK_clean_linker_0, # of connection points: 2
#     Edge 19, Type (0, 0), BuildingBlock: EZIPEK_clean_linker_0, # of connection points: 2
#     Edge 20, Type (0, 0), BuildingBlock: EZIPEK_clean_linker_0, # of connection points: 2
#     Edge 21, Type (0, 0), BuildingBlock: EZIPEK_clean_linker_0, # of connection points: 2
#     Edge 22, Type (0, 0), BuildingBlock: EZIPEK_clean_linker_0, # of connection points: 2
#     Edge 23, Type (0, 0), BuildingBlock: EZIPEK_clean_linker_0, # of connection points: 2
#     Edge 24, Type (0, 0), BuildingBlock: EZIPEK_clean_linker_0, # of connection points: 2
#     Edge 25, Type (0, 0), BuildingBlock: EZIPEK_clean_linker_0, # of connection points: 2
#     Edge 26, Type (0, 0), BuildingBlock: EZIPEK_clean_linker_0, # of connection points: 2
#     Edge 27, Type (0, 0), BuildingBlock: EZIPEK_clean_linker_0, # of connection points: 2
#     Edge 28, Type (0, 0), BuildingBlock: EZIPEK_clean_linker_0, # of connection points: 2
#     Edge 29, Type (0, 0), BuildingBlock: EZIPEK_clean_linker_0, # of connection points: 2
# Relax obj value: 0.007
# Max RMSD: 0.011
# Mean RMSD: 0.011
data_MOF--net-qtz-f--node1-OLANEW_clean_sbu_2--edge1-EZIPEK_clean_linker_0
_symmetry_space_group_name_H-M    P1
_symmetry_Int_Tables_number       1
_symmetry_cell_setting            triclinic
loop_
_symmetry_equiv_pos_as_xyz
'x, y, z'
_cell_length_a     55.469302
_cell_length_b     55.567424
_cell_length_c     19.68703
_cell_angle_alpha  90.135594
_cell_angle_beta   89.802245
_cell_angle_gamma 119.95917
loop_
_atom_site_label
_atom_site_type_symbol
_atom_site_fract_x
_atom_site_fract_y
_atom_site_fract_z
_atom_type_partial_charge
O0 O 0.16291 0.51124 0.18117 0.0
Cd1 Cd 0.15462 0.46379 0.17412 0.0
O2 O 0.12173 0.49739 0.22705 0.0
Cd3 Cd 0.10597 0.45277 0.21887 0.0
O4 O 0.06889 0.41266 0.19901 0.0
C5 C 0.04913 0.41531 0.17491 0.0
O6 O 0.05346 0.44036 0.1621 0.0
C7 C 0.14506 0.51678 0.20595 0.0
C8 C 0.19503 0.46188 0.09431 0.0
O9 O 0.17241 0.45834 0.06782 0.0
O10 O 0.19847 0.46601 0.15849 0.0
O11 O 0.64099 0.14872 0.48539 0.0
Cd12 Cd 0.68743 0.15484 0.50094 0.0
O13 O 0.62859 0.13476 0.5909 0.0
Cd14 Cd 0.66136 0.1242 0.60064 0.0
O15 O 0.65958 0.08521 0.57423 0.0
C16 C 0.63645 0.06417 0.5904 0.0
O17 O 0.61833 0.06783 0.62538 0.0
C18 C 0.62367 0.14216 0.53396 0.0
C19 C 0.72408 0.19153 0.40422 0.0
O20 O 0.71759 0.20042 0.45738 0.0
O21 O 0.71354 0.16522 0.39718 0.0
O22 O 0.50058 0.62772 0.75333 0.0
Cd23 Cd 0.54718 0.66702 0.73321 0.0
O24 O 0.49578 0.64252 0.85377 0.0
Cd25 Cd 0.54041 0.67178 0.85724 0.0
O26 O 0.57837 0.66911 0.85683 0.0
C27 C 0.57294 0.64432 0.84658 0.0
O28 O 0.54703 0.62481 0.83666 0.0
C29 C 0.48574 0.62512 0.80524 0.0
C30 C 0.54458 0.71336 0.69119 0.0
O31 O 0.54555 0.7086 0.75445 0.0
O32 O 0.54501 0.69641 0.64762 0.0
O33 O 0.85268 0.49438 0.11519 0.0
Cd34 Cd 0.85827 0.54086 0.11863 0.0
O35 O 0.85294 0.48995 0.22635 0.0
Cd36 Cd 0.86861 0.53433 0.23941 0.0
O37 O 0.90958 0.57134 0.22876 0.0
C38 C 0.92772 0.5649 0.21131 0.0
O39 O 0.91996 0.53866 0.20111 0.0
C40 C 0.85029 0.47978 0.16712 0.0
C41 C 0.81578 0.54151 0.04576 0.0
O42 O 0.83872 0.54717 0.01671 0.0
O43 O 0.81299 0.53596 0.10941 0.0
O44 O 0.37859 0.87147 0.42361 0.0
Cd45 Cd 0.34236 0.88114 0.38544 0.0
O46 O 0.36089 0.85825 0.52624 0.0
Cd47 Cd 0.33606 0.87821 0.51051 0.0
O48 O 0.34824 0.92141 0.49033 0.0
C49 C 0.34195 0.93611 0.52777 0.0
O50 O 0.32467 0.92464 0.57894 0.0
C51 C 0.37886 0.86148 0.4815 0.0
C52 C 0.2945 0.83232 0.34898 0.0
O53 O 0.31298 0.84682 0.3044 0.0
O54 O 0.29845 0.8409 0.41057 0.0
O55 O 0.50791 0.36059 0.80874 0.0
Cd56 Cd 0.46462 0.31653 0.82463 0.0
O57 O 0.51358 0.3685 0.91893 0.0
Cd58 Cd 0.46998 0.33792 0.93689 0.0
O59 O 0.43308 0.3403 0.91005 0.0
C60 C 0.43951 0.36521 0.8974 0.0
O61 O 0.4656 0.38497 0.90273 0.0
C62 C 0.52262 0.37512 0.85846 0.0
C63 C 0.4623 0.27503 0.74055 0.0
O64 O 0.47654 0.282 0.79549 0.0
O65 O 0.44897 0.28761 0.72541 0.0
O66 O 0.48714 0.84669 0.55949 0.0
Cd67 Cd 0.53485 0.85533 0.56361 0.0
O68 O 0.49748 0.87587 0.47406 0.0
Cd69 Cd 0.54234 0.89261 0.48015 0.0
O70 O 0.5799 0.93101 0.50829 0.0
C71 C 0.57752 0.95231 0.49822 0.0
O72 O 0.5549 0.94924 0.46904 0.0
C73 C 0.47974 0.8583 0.51517 0.0
C74 C 0.53762 0.80909 0.60533 0.0
O75 O 0.5398 0.82736 0.6485 0.0
O76 O 0.53404 0.81252 0.5426 0.0
O77 O 0.64503 0.48727 0.80442 0.0
Cd78 Cd 0.68478 0.53444 0.8033 0.0
O79 O 0.61996 0.50049 0.86423 0.0
Cd80 Cd 0.64965 0.54501 0.86564 0.0
O81 O 0.64991 0.5844 0.86758 0.0
C82 C 0.62846 0.58259 0.83963 0.0
O83 O 0.61071 0.55927 0.80958 0.0
C84 C 0.62262 0.4815 0.83523 0.0
C85 C 0.72735 0.5381 0.88424 0.0
O86 O 0.70864 0.54261 0.90939 0.0
O87 O 0.72618 0.5321 0.82104 0.0
O88 O 0.15774 0.64099 0.24628 0.0
Cd89 Cd 0.14858 0.67967 0.24312 0.0
O90 O 0.12264 0.61588 0.17756 0.0
Cd91 Cd 0.10462 0.64298 0.17905 0.0
O92 O 0.06493 0.64194 0.19093 0.0
C93 C 0.04434 0.61927 0.17066 0.0
O94 O 0.04893 0.60063 0.14154 0.0
C95 C 0.14336 0.61898 0.2119 0.0
C96 C 0.19574 0.72951 0.27678 0.0
O97 O 0.17771 0.71508 0.32226 0.0
O98 O 0.19156 0.72058 0.21548 0.0
O99 O 0.51081 0.15153 0.51355 0.0
Cd100 Cd 0.46837 0.15243 0.48595 0.0
O101 O 0.50202 0.11821 0.43992 0.0
Cd102 Cd 0.45836 0.10618 0.4271 0.0
O103 O 0.41768 0.06964 0.44562 0.0
C104 C 0.42 0.04988 0.47096 0.0
O105 O 0.44497 0.0539 0.48384 0.0
C106 C 0.51829 0.13629 0.48229 0.0
C107 C 0.46373 0.19094 0.56769 0.0
O108 O 0.47972 0.19865 0.51554 0.0
O109 O 0.44953 0.16489 0.58073 0.0
O110 O 0.36109 0.5134 0.83763 0.0
Cd111 Cd 0.32216 0.46577 0.83973 0.0
O112 O 0.38813 0.50187 0.78065 0.0
Cd113 Cd 0.36017 0.45701 0.78489 0.0
O114 O 0.36142 0.41942 0.81038 0.0
C115 C 0.38586 0.42303 0.80602 0.0
O116 O 0.40607 0.44692 0.78369 0.0
C117 C 0.38402 0.5202 0.80817 0.0
C118 C 0.28021 0.46247 0.92328 0.0
O119 O 0.29932 0.45842 0.94734 0.0
O120 O 0.28061 0.46768 0.85981 0.0
O121 O 0.82724 0.3527 0.11457 0.0
Cd122 Cd 0.82798 0.30934 0.10177 0.0
O123 O 0.86664 0.37402 0.17178 0.0
Cd124 Cd 0.87871 0.34221 0.16895 0.0
O125 O 0.92135 0.35032 0.17668 0.0
C126 C 0.93331 0.34178 0.13609 0.0
O127 O 0.91897 0.32405 0.08778 0.0
C128 C 0.84564 0.37391 0.14593 0.0
C129 C 0.79564 0.27068 0.20055 0.0
O130 O 0.78453 0.27461 0.14791 0.0
O131 O 0.82216 0.28498 0.20649 0.0
C132 C 0.23122 0.43869 0.9671 0.0
C133 C 0.25855 0.46194 0.96817 0.0
C134 C 0.24374 0.48584 0.04843 0.0
C135 C 0.21695 0.46175 0.05143 0.0
N136 N 0.18636 0.41356 0.02323 0.0
N137 N 0.29223 0.50609 0.01603 0.0
C138 C 0.21094 0.43771 0.01316 0.0
C139 C 0.26526 0.48499 0.01102 0.0
N140 N 0.22462 0.41762 0.92176 0.0
N141 N 0.24821 0.50999 0.07821 0.0
H142 H 0.3084 0.50696 0.98696 0.0
H143 H 0.29898 0.52177 0.05237 0.0
H144 H 0.23286 0.5117 0.10487 0.0
H145 H 0.26633 0.52902 0.07145 0.0
H146 H 0.20434 0.40174 0.91284 0.0
H147 H 0.23924 0.41695 0.88955 0.0
H148 H 0.18195 0.39456 0.0024 0.0
H149 H 0.17119 0.41189 0.0574 0.0
C150 C 0.76759 0.2358 0.37205 0.0
C151 C 0.74305 0.21124 0.35197 0.0
C152 C 0.75624 0.22348 0.23285 0.0
C153 C 0.77812 0.25001 0.25296 0.0
N154 N 0.80022 0.2835 0.34352 0.0
N155 N 0.71082 0.1854 0.2616 0.0
C156 C 0.78266 0.25681 0.32311 0.0
C157 C 0.73644 0.20602 0.28187 0.0
N158 N 0.77722 0.23876 0.43706 0.0
N159 N 0.75483 0.21437 0.16767 0.0
H160 H 0.69488 0.17317 0.29546 0.0
H161 H 0.70436 0.18266 0.21111 0.0
H162 H 0.76982 0.22576 0.13093 0.0
H163 H 0.74063 0.19417 0.15251 0.0
H164 H 0.79639 0.25526 0.45217 0.0
H165 H 0.76777 0.22324 0.47367 0.0
H166 H 0.80206 0.28974 0.39413 0.0
H167 H 0.81045 0.30001 0.30976 0.0
C168 C 0.51558 0.75772 0.62248 0.0
C169 C 0.53938 0.78459 0.62739 0.0
C170 C 0.56602 0.76489 0.67828 0.0
C171 C 0.54283 0.73785 0.66901 0.0
N172 N 0.49636 0.7078 0.62697 0.0
N173 N 0.58832 0.81388 0.65011 0.0
C174 C 0.51788 0.73405 0.63919 0.0
C175 C 0.56487 0.78825 0.653 0.0
N176 N 0.49047 0.75496 0.60494 0.0
N177 N 0.58916 0.76825 0.71131 0.0
H178 H 0.58835 0.83147 0.63167 0.0
H179 H 0.60821 0.81744 0.66074 0.0
H180 H 0.59165 0.75165 0.7265 0.0
H181 H 0.60529 0.78742 0.72733 0.0
H182 H 0.47168 0.73634 0.60764 0.0
H183 H 0.48795 0.77182 0.59267 0.0
H184 H 0.47905 0.70357 0.59786 0.0
H185 H 0.4964 0.68991 0.64269 0.0
C186 C 0.77629 0.56364 0.92734 0.0
C187 C 0.74967 0.53938 0.92743 0.0
C188 C 0.76672 0.51601 0.00236 0.0
C189 C 0.79282 0.54095 0.00625 0.0
N190 N 0.82098 0.58997 0.98307 0.0
N191 N 0.71788 0.49397 0.97232 0.0
C192 C 0.79726 0.56519 0.97149 0.0
C193 C 0.74435 0.51605 0.96746 0.0
N194 N 0.78162 0.58509 0.88449 0.0
N195 N 0.76374 0.49191 0.02873 0.0
H196 H 0.70114 0.49278 0.94547 0.0
H197 H 0.71207 0.47778 0.00675 0.0
H198 H 0.77976 0.4908 0.05341 0.0
H199 H 0.74624 0.4725 0.02095 0.0
H200 H 0.80146 0.60192 0.87617 0.0
H201 H 0.76645 0.58518 0.8535 0.0
H202 H 0.82416 0.60892 0.96491 0.0
H203 H 0.83657 0.59206 0.0161 0.0
C204 C 0.2472 0.75713 0.2954 0.0
C205 C 0.22102 0.75587 0.29481 0.0
C206 C 0.24279 0.80429 0.33318 0.0
C207 C 0.26923 0.80608 0.32991 0.0
N208 N 0.29745 0.78548 0.30268 0.0
N209 N 0.19378 0.77856 0.30367 0.0
C210 C 0.27169 0.78289 0.30912 0.0
C211 C 0.21874 0.77951 0.31148 0.0
N212 N 0.24844 0.73337 0.28588 0.0
N213 N 0.24069 0.82631 0.3571 0.0
H214 H 0.17571 0.76073 0.28815 0.0
H215 H 0.19123 0.79584 0.30751 0.0
H216 H 0.25792 0.84551 0.36883 0.0
H217 H 0.22187 0.82523 0.3689 0.0
H218 H 0.26632 0.73205 0.29315 0.0
H219 H 0.23097 0.71416 0.27545 0.0
H220 H 0.30097 0.77063 0.27971 0.0
H221 H 0.31578 0.80326 0.3171 0.0
C222 C 0.46432 0.25673 0.62438 0.0
C223 C 0.46137 0.25296 0.6959 0.0
C224 C 0.4627 0.20976 0.68386 0.0
C225 C 0.46202 0.21175 0.61202 0.0
N226 N 0.45428 0.23381 0.51531 0.0
N227 N 0.44975 0.22146 0.79087 0.0
C228 C 0.46046 0.23424 0.58258 0.0
C229 C 0.45815 0.22814 0.72491 0.0
N230 N 0.47222 0.28205 0.59614 0.0
N231 N 0.46912 0.19144 0.71338 0.0
H232 H 0.44452 0.23344 0.82175 0.0
H233 H 0.44478 0.20235 0.81212 0.0
H234 H 0.47448 0.17879 0.6857 0.0
H235 H 0.47233 0.19122 0.76547 0.0
H236 H 0.4771 0.28624 0.54475 0.0
H237 H 0.47708 0.2997 0.62475 0.0
H238 H 0.45052 0.24865 0.49324 0.0
H239 H 0.44964 0.21701 0.48355 0.0
C240 C 0.15569 0.58712 0.15097 0.0
C241 C 0.14972 0.59607 0.21303 0.0
C242 C 0.1496 0.55724 0.27213 0.0
C243 C 0.15059 0.54575 0.20852 0.0
N244 N 0.15249 0.54861 0.08595 0.0
N245 N 0.13885 0.58867 0.33281 0.0
C246 C 0.15353 0.56056 0.14747 0.0
C247 C 0.14653 0.58114 0.27399 0.0
N248 N 0.16371 0.60421 0.09558 0.0
N249 N 0.15191 0.5454 0.33072 0.0
H250 H 0.1363 0.60597 0.33668 0.0
H251 H 0.13294 0.57658 0.37665 0.0
H252 H 0.15448 0.52803 0.33081 0.0
H253 H 0.15407 0.55433 0.3785 0.0
H254 H 0.17097 0.60007 0.0507 0.0
H255 H 0.16574 0.62392 0.09693 0.0
H256 H 0.15114 0.55703 0.03987 0.0
H257 H 0.15083 0.52918 0.08075 0.0
C258 C 0.54584 0.11478 0.52342 0.0
C259 C 0.54538 0.13839 0.49779 0.0
C260 C 0.59631 0.16554 0.5043 0.0
C261 C 0.5968 0.14111 0.52262 0.0
N262 N 0.57228 0.09125 0.53672 0.0
N263 N 0.57013 0.18519 0.45408 0.0
C264 C 0.57163 0.11537 0.52882 0.0
C265 C 0.57061 0.16357 0.48576 0.0
N266 N 0.52174 0.09211 0.54498 0.0
N267 N 0.62025 0.19074 0.50667 0.0
H268 H 0.55175 0.18447 0.43923 0.0
H269 H 0.58797 0.20291 0.43727 0.0
H270 H 0.63941 0.19299 0.52046 0.0
H271 H 0.6207 0.20959 0.5009 0.0
H272 H 0.52128 0.07553 0.57074 0.0
H273 H 0.50244 0.09104 0.54334 0.0
H274 H 0.55459 0.07164 0.534 0.0
H275 H 0.5907 0.09057 0.53934 0.0
C276 C 0.43752 0.59446 0.7605 0.0
C277 C 0.45776 0.6002 0.81144 0.0
C278 C 0.42578 0.55649 0.86857 0.0
C279 C 0.40746 0.549 0.81255 0.0
N280 N 0.39572 0.55972 0.70347 0.0
N281 N 0.47284 0.58488 0.9092 0.0
C282 C 0.41318 0.56775 0.75812 0.0
C283 C 0.45223 0.58094 0.86487 0.0
N284 N 0.44135 0.6148 0.71554 0.0
N285 N 0.41795 0.54007 0.92523 0.0
H286 H 0.49286 0.60203 0.90772 0.0
H287 H 0.47094 0.56988 0.94382 0.0
H288 H 0.39895 0.52163 0.92918 0.0
H289 H 0.42912 0.54599 0.97049 0.0
H290 H 0.42627 0.61284 0.6811 0.0
H291 H 0.45876 0.63469 0.71678 0.0
H292 H 0.40032 0.57108 0.65861 0.0
H293 H 0.37713 0.54076 0.70165 0.0
C294 C 0.86552 0.42324 0.1108 0.0
C295 C 0.84462 0.4 0.14643 0.0
C296 C 0.82465 0.42811 0.18686 0.0
C297 C 0.84764 0.45207 0.15831 0.0
N298 N 0.89269 0.47323 0.10328 0.0
N299 N 0.80565 0.38032 0.2237 0.0
C300 C 0.86875 0.44986 0.12262 0.0
C301 C 0.82439 0.40234 0.18566 0.0
N302 N 0.88192 0.41976 0.06433 0.0
N303 N 0.80275 0.42985 0.21331 0.0
H304 H 0.80463 0.36106 0.22318 0.0
H305 H 0.79243 0.38165 0.25929 0.0
H306 H 0.8022 0.44834 0.21443 0.0
H307 H 0.78417 0.41263 0.22871 0.0
H308 H 0.89547 0.43543 0.03154 0.0
H309 H 0.88 0.40048 0.05368 0.0
H310 H 0.91003 0.47283 0.0842 0.0
H311 H 0.89647 0.49331 0.11224 0.0
C312 C 0.43249 0.83856 0.46241 0.0
C313 C 0.45119 0.85399 0.51527 0.0
C314 C 0.42099 0.87217 0.55076 0.0
C315 C 0.40199 0.85645 0.49838 0.0
N316 N 0.38621 0.82002 0.41473 0.0
N317 N 0.46038 0.87999 0.61957 0.0
C318 C 0.40669 0.83814 0.45739 0.0
C319 C 0.44432 0.86875 0.56305 0.0
N320 N 0.43974 0.82488 0.41618 0.0
N321 N 0.41813 0.89202 0.58521 0.0
H322 H 0.47827 0.87889 0.62919 0.0
H323 H 0.45465 0.88826 0.65989 0.0
H324 H 0.40189 0.89599 0.57706 0.0
H325 H 0.43322 0.9064 0.6178 0.0
H326 H 0.42866 0.81599 0.3718 0.0
H327 H 0.4578 0.82357 0.42073 0.0
H328 H 0.38725 0.80441 0.38787 0.0
H329 H 0.36696 0.819 0.41086 0.0
C330 C 0.57431 0.44812 0.79805 0.0
C331 C 0.59847 0.45298 0.83377 0.0
C332 C 0.57428 0.40477 0.8738 0.0
C333 C 0.54912 0.4012 0.84597 0.0
N334 N 0.52423 0.42076 0.78914 0.0
N335 N 0.62149 0.43704 0.90985 0.0
C336 C 0.54888 0.42311 0.80947 0.0
C337 C 0.59859 0.43153 0.87235 0.0
N338 N 0.57582 0.46729 0.75219 0.0
N339 N 0.57504 0.38241 0.90009 0.0
H340 H 0.63981 0.45624 0.90902 0.0
H341 H 0.62176 0.42327 0.94518 0.0
H342 H 0.55765 0.36251 0.90129 0.0
H343 H 0.59331 0.383 0.91508 0.0
H344 H 0.55967 0.46364 0.71931 0.0
H345 H 0.59419 0.48582 0.74225 0.0
H346 H 0.52258 0.43729 0.76968 0.0
H347 H 0.50495 0.40302 0.797 0.0
C348 C 0.01012 0.38811 0.09493 0.0
C349 C 0.02135 0.39103 0.16092 0.0
C350 C 0.97631 0.35358 0.20133 0.0
C351 C 0.964 0.35487 0.13947 0.0
N352 N 0.96898 0.37503 0.02786 0.0
N353 N 0.01499 0.37726 0.27894 0.0
C354 C 0.98088 0.37215 0.08572 0.0
C355 C 0.00459 0.37357 0.21454 0.0
N356 N 0.02754 0.40063 0.04105 0.0
N357 N 0.96085 0.33321 0.24732 0.0
H358 H 0.03554 0.39159 0.29105 0.0
H359 H 0.00274 0.36746 0.32136 0.0
H360 H 0.94013 0.3182 0.23843 0.0
H361 H 0.96923 0.32951 0.29065 0.0
H362 H 0.02089 0.39719 0.99073 0.0
H363 H 0.04913 0.41217 0.04636 0.0
H364 H 0.9801 0.38996 0.99097 0.0
H365 H 0.94766 0.36406 0.0187 0.0
C366 C 0.62093 0.01439 0.61259 0.0
C367 C 0.62824 0.03603 0.56494 0.0
C368 C 0.61103 0.00193 0.47254 0.0
C369 C 0.59897 0.98031 0.52116 0.0
N370 N 0.59127 0.9656 0.63849 0.0
N371 N 0.62898 0.05069 0.44905 0.0
C372 C 0.60404 0.98633 0.59153 0.0
C373 C 0.62347 0.02999 0.49451 0.0
N374 N 0.63022 0.02079 0.67795 0.0
N375 N 0.61057 0.99553 0.40531 0.0
H376 H 0.6381 0.07156 0.46259 0.0
H377 H 0.62269 0.04698 0.39849 0.0
H378 H 0.60177 0.97509 0.38805 0.0
H379 H 0.62126 0.01034 0.36786 0.0
H380 H 0.62784 0.00598 0.71374 0.0
H381 H 0.64276 0.04123 0.69441 0.0
H382 H 0.59145 0.96924 0.69045 0.0
H383 H 0.57883 0.94474 0.62552 0.0
C384 C 0.60283 0.63038 0.78213 0.0
C385 C 0.59494 0.63675 0.84517 0.0
C386 C 0.61549 0.61315 0.90648 0.0
C387 C 0.6221 0.60547 0.84317 0.0
N388 N 0.62959 0.61306 0.72285 0.0
N389 N 0.6003 0.64155 0.96642 0.0
C390 C 0.61826 0.61626 0.78157 0.0
C391 C 0.60374 0.63079 0.9071 0.0
N392 N 0.5946 0.63694 0.72299 0.0
N393 N 0.61836 0.60192 0.96552 0.0
H394 H 0.59132 0.65416 0.96816 0.0
H395 H 0.60857 0.64017 0.01268 0.0
H396 H 0.62697 0.58903 0.96764 0.0
H397 H 0.61064 0.60392 0.01217 0.0
H398 H 0.59662 0.62994 0.67538 0.0
H399 H 0.58467 0.64869 0.72196 0.0
H400 H 0.62958 0.62232 0.67696 0.0
H401 H 0.64134 0.60312 0.72162 0.0
C402 C 0.97499 0.59725 0.25758 0.0
C403 C 0.95723 0.58612 0.20065 0.0
C404 C 0.99764 0.60637 0.12455 0.0
C405 C 0.01526 0.61273 0.18175 0.0
N406 N 0.02115 0.61388 0.30347 0.0
N407 N 0.95072 0.5807 0.07961 0.0
C408 C 0.00418 0.60874 0.24863 0.0
C409 C 0.96831 0.59121 0.13387 0.0
N410 N 0.96387 0.59628 0.32026 0.0
N411 N 0.00912 0.61515 0.06156 0.0
H412 H 0.92912 0.57099 0.08466 0.0
H413 H 0.95734 0.58057 0.03014 0.0
H414 H 0.03059 0.62668 0.05377 0.0
H415 H 0.99761 0.61331 0.01825 0.0
H416 H 0.97579 0.60639 0.36278 0.0
H417 H 0.94253 0.58742 0.32846 0.0
H418 H 0.01384 0.60811 0.35291 0.0
H419 H 0.04261 0.62238 0.29944 0.0
C420 C 0.39291 0.01296 0.55599 0.0
C421 C 0.39539 0.02281 0.48859 0.0
C422 C 0.35613 0.9778 0.45457 0.0
C423 C 0.35734 0.96664 0.51834 0.0
N424 N 0.3791 0.97312 0.62837 0.0
N425 N 0.38031 0.01436 0.37167 0.0
C426 C 0.37598 0.98414 0.56926 0.0
C427 C 0.37693 0.00535 0.4374 0.0
N428 N 0.40668 0.03129 0.60741 0.0
N429 N 0.33496 0.96202 0.41072 0.0
H430 H 0.39519 0.03437 0.35685 0.0
H431 H 0.36964 0.00143 0.33097 0.0
H432 H 0.31936 0.94184 0.42235 0.0
H433 H 0.33136 0.96978 0.36616 0.0
H434 H 0.40363 0.02574 0.65855 0.0
H435 H 0.41891 0.05264 0.59928 0.0
H436 H 0.39482 0.98452 0.66332 0.0
H437 H 0.36762 0.95207 0.64026 0.0
C438 C 0.40212 0.377 0.91707 0.0
C439 C 0.41894 0.37228 0.8709 0.0
C440 C 0.40469 0.3918 0.77842 0.0
C441 C 0.39238 0.40132 0.82686 0.0
N442 N 0.37936 0.40353 0.94295 0.0
N443 N 0.43593 0.37385 0.75735 0.0
C444 C 0.39045 0.39351 0.89624 0.0
C445 C 0.4198 0.37893 0.80117 0.0
N446 N 0.39779 0.36609 0.98103 0.0
N447 N 0.4016 0.39492 0.7107 0.0
H448 H 0.44596 0.363 0.77172 0.0
H449 H 0.44033 0.38131 0.70777 0.0
H450 H 0.39019 0.4039 0.69292 0.0
H451 H 0.408 0.38641 0.67237 0.0
H452 H 0.3837 0.36654 0.01534 0.0
H453 H 0.40651 0.3543 0.99763 0.0
H454 H 0.38047 0.40144 0.9952 0.0
H455 H 0.37044 0.41551 0.92994 0.0
loop_
_geom_bond_atom_site_label_1
_geom_bond_atom_site_label_2
_geom_bond_distance
_geom_bond_site_symmetry_2
_ccdc_geom_bond_type
O0 Cd1 2.300 . S
O0 C7 1.275 . S
Cd1 O0 2.300 . S
Cd1 O9 2.381 . S
Cd1 O10 2.378 . S
O2 Cd3 2.385 . S
O2 C7 1.255 . S
Cd3 O2 2.385 . S
Cd3 O4 2.317 . S
O4 Cd3 2.317 . S
O4 C5 1.232 . S
C5 O4 1.232 . S
C5 O6 1.218 . S
O6 C5 1.218 . S
C7 O0 1.275 . S
C7 O2 1.255 . S
C8 O9 1.258 . S
C8 O10 1.256 . S
O9 Cd1 2.381 . S
O9 C8 1.258 . S
O10 Cd1 2.378 . S
O10 C8 1.256 . S
O11 Cd12 2.300 . S
O11 C18 1.275 . S
Cd12 O11 2.300 . S
Cd12 O20 2.381 . S
Cd12 O21 2.378 . S
O13 Cd14 2.385 . S
O13 C18 1.255 . S
Cd14 O13 2.385 . S
Cd14 O15 2.317 . S
O15 Cd14 2.317 . S
O15 C16 1.232 . S
C16 O15 1.232 . S
C16 O17 1.218 . S
O17 C16 1.218 . S
C18 O11 1.275 . S
C18 O13 1.255 . S
C19 O20 1.258 . S
C19 O21 1.256 . S
O20 Cd12 2.381 . S
O20 C19 1.258 . S
O21 Cd12 2.378 . S
O21 C19 1.256 . S
O22 Cd23 2.300 . S
O22 C29 1.275 . S
Cd23 O22 2.300 . S
Cd23 O31 2.381 . S
Cd23 O32 2.378 . S
O24 Cd25 2.385 . S
O24 C29 1.255 . S
Cd25 O24 2.385 . S
Cd25 O26 2.317 . S
O26 Cd25 2.317 . S
O26 C27 1.232 . S
C27 O26 1.232 . S
C27 O28 1.218 . S
O28 C27 1.218 . S
C29 O22 1.275 . S
C29 O24 1.255 . S
C30 O31 1.258 . S
C30 O32 1.256 . S
O31 Cd23 2.381 . S
O31 C30 1.258 . S
O32 Cd23 2.378 . S
O32 C30 1.256 . S
O33 Cd34 2.300 . S
O33 C40 1.275 . S
Cd34 O33 2.300 . S
Cd34 O42 2.381 . S
Cd34 O43 2.378 . S
O35 Cd36 2.385 . S
O35 C40 1.255 . S
Cd36 O35 2.385 . S
Cd36 O37 2.317 . S
O37 Cd36 2.317 . S
O37 C38 1.232 . S
C38 O37 1.232 . S
C38 O39 1.218 . S
O39 C38 1.218 . S
C40 O33 1.275 . S
C40 O35 1.255 . S
C41 O42 1.258 . S
C41 O43 1.256 . S
O42 Cd34 2.381 . S
O42 C41 1.258 . S
O43 Cd34 2.378 . S
O43 C41 1.256 . S
O44 Cd45 2.300 . S
O44 C51 1.275 . S
Cd45 O44 2.300 . S
Cd45 O53 2.381 . S
Cd45 O54 2.378 . S
O46 Cd47 2.385 . S
O46 C51 1.255 . S
Cd47 O46 2.385 . S
Cd47 O48 2.317 . S
O48 Cd47 2.317 . S
O48 C49 1.232 . S
C49 O48 1.232 . S
C49 O50 1.218 . S
O50 C49 1.218 . S
C51 O44 1.275 . S
C51 O46 1.255 . S
C52 O53 1.258 . S
C52 O54 1.256 . S
O53 Cd45 2.381 . S
O53 C52 1.258 . S
O54 Cd45 2.378 . S
O54 C52 1.256 . S
O55 Cd56 2.300 . S
O55 C62 1.275 . S
Cd56 O55 2.300 . S
Cd56 O64 2.381 . S
Cd56 O65 2.378 . S
O57 Cd58 2.385 . S
O57 C62 1.255 . S
Cd58 O57 2.385 . S
Cd58 O59 2.317 . S
O59 Cd58 2.317 . S
O59 C60 1.232 . S
C60 O59 1.232 . S
C60 O61 1.218 . S
O61 C60 1.218 . S
C62 O55 1.275 . S
C62 O57 1.255 . S
C63 O64 1.258 . S
C63 O65 1.256 . S
O64 Cd56 2.381 . S
O64 C63 1.258 . S
O65 Cd56 2.378 . S
O65 C63 1.256 . S
O66 Cd67 2.300 . S
O66 C73 1.275 . S
Cd67 O66 2.300 . S
Cd67 O75 2.381 . S
Cd67 O76 2.378 . S
O68 Cd69 2.385 . S
O68 C73 1.255 . S
Cd69 O68 2.385 . S
Cd69 O70 2.317 . S
O70 Cd69 2.317 . S
O70 C71 1.232 . S
C71 O70 1.232 . S
C71 O72 1.218 . S
O72 C71 1.218 . S
C73 O66 1.275 . S
C73 O68 1.255 . S
C74 O75 1.258 . S
C74 O76 1.256 . S
O75 Cd67 2.381 . S
O75 C74 1.258 . S
O76 Cd67 2.378 . S
O76 C74 1.256 . S
O77 Cd78 2.300 . S
O77 C84 1.275 . S
Cd78 O77 2.300 . S
Cd78 O86 2.381 . S
Cd78 O87 2.378 . S
O79 Cd80 2.385 . S
O79 C84 1.255 . S
Cd80 O79 2.385 . S
Cd80 O81 2.317 . S
O81 Cd80 2.317 . S
O81 C82 1.232 . S
C82 O81 1.232 . S
C82 O83 1.218 . S
O83 C82 1.218 . S
C84 O77 1.275 . S
C84 O79 1.255 . S
C85 O86 1.258 . S
C85 O87 1.256 . S
O86 Cd78 2.381 . S
O86 C85 1.258 . S
O87 Cd78 2.378 . S
O87 C85 1.256 . S
O88 Cd89 2.300 . S
O88 C95 1.275 . S
Cd89 O88 2.300 . S
Cd89 O97 2.381 . S
Cd89 O98 2.378 . S
O90 Cd91 2.385 . S
O90 C95 1.255 . S
Cd91 O90 2.385 . S
Cd91 O92 2.317 . S
O92 Cd91 2.317 . S
O92 C93 1.232 . S
C93 O92 1.232 . S
C93 O94 1.218 . S
O94 C93 1.218 . S
C95 O88 1.275 . S
C95 O90 1.255 . S
C96 O97 1.258 . S
C96 O98 1.256 . S
O97 Cd89 2.381 . S
O97 C96 1.258 . S
O98 Cd89 2.378 . S
O98 C96 1.256 . S
O99 Cd100 2.300 . S
O99 C106 1.275 . S
Cd100 O99 2.300 . S
Cd100 O108 2.381 . S
Cd100 O109 2.378 . S
O101 Cd102 2.385 . S
O101 C106 1.255 . S
Cd102 O101 2.385 . S
Cd102 O103 2.317 . S
O103 Cd102 2.317 . S
O103 C104 1.232 . S
C104 O103 1.232 . S
C104 O105 1.218 . S
O105 C104 1.218 . S
C106 O99 1.275 . S
C106 O101 1.255 . S
C107 O108 1.258 . S
C107 O109 1.256 . S
O108 Cd100 2.381 . S
O108 C107 1.258 . S
O109 Cd100 2.378 . S
O109 C107 1.256 . S
O110 Cd111 2.300 . S
O110 C117 1.275 . S
Cd111 O110 2.300 . S
Cd111 O119 2.381 . S
Cd111 O120 2.378 . S
O112 Cd113 2.385 . S
O112 C117 1.255 . S
Cd113 O112 2.385 . S
Cd113 O114 2.317 . S
O114 Cd113 2.317 . S
O114 C115 1.232 . S
C115 O114 1.232 . S
C115 O116 1.218 . S
O116 C115 1.218 . S
C117 O110 1.275 . S
C117 O112 1.255 . S
C118 O119 1.258 . S
C118 O120 1.256 . S
O119 Cd111 2.381 . S
O119 C118 1.258 . S
O120 Cd111 2.378 . S
O120 C118 1.256 . S
O121 Cd122 2.300 . S
O121 C128 1.275 . S
Cd122 O121 2.300 . S
Cd122 O130 2.381 . S
Cd122 O131 2.378 . S
O123 Cd124 2.385 . S
O123 C128 1.255 . S
Cd124 O123 2.385 . S
Cd124 O125 2.317 . S
O125 Cd124 2.317 . S
O125 C126 1.232 . S
C126 O125 1.232 . S
C126 O127 1.218 . S
O127 C126 1.218 . S
C128 O121 1.275 . S
C128 O123 1.255 . S
C129 O130 1.258 . S
C129 O131 1.256 . S
O130 Cd122 2.381 . S
O130 C129 1.258 . S
O131 Cd122 2.378 . S
O131 C129 1.256 . S
C132 C133 1.363 . S
C132 C138 1.379 . S
C132 N140 1.356 . S
C133 C132 1.363 . S
C133 C139 1.363 1_556 S
C134 C135 1.363 . S
C134 C139 1.379 . S
C134 N141 1.356 . S
C135 C134 1.363 . S
C135 C138 1.363 1_554 S
N136 C138 1.356 1_554 S
N136 H148 0.984 1_554 S
N136 H149 0.985 . S
N137 C139 1.356 1_556 S
N137 H142 0.984 . S
N137 H143 0.985 1_556 S
C138 C132 1.379 . S
C138 C135 1.363 1_556 S
C138 N136 1.356 1_556 S
C139 C133 1.363 1_554 S
C139 C134 1.379 . S
C139 N137 1.356 1_554 S
N140 C132 1.356 . S
N140 H146 0.984 . S
N140 H147 0.984 . S
N141 C134 1.356 . S
N141 H144 0.984 . S
N141 H145 0.985 . S
H142 N137 0.984 . S
H143 N137 0.985 1_554 S
H144 N141 0.984 . S
H145 N141 0.985 . S
H146 N140 0.984 . S
H147 N140 0.984 . S
H148 N136 0.984 1_556 S
H149 N136 0.985 . S
C150 C151 1.363 . S
C150 C156 1.379 . S
C150 N158 1.356 . S
C151 C150 1.363 . S
C151 C157 1.363 . S
C152 C153 1.363 . S
C152 C157 1.379 . S
C152 N159 1.356 . S
C153 C152 1.363 . S
C153 C156 1.363 . S
N154 C156 1.356 . S
N154 H166 0.984 . S
N154 H167 0.985 . S
N155 C157 1.356 . S
N155 H160 0.984 . S
N155 H161 0.985 . S
C156 C150 1.379 . S
C156 C153 1.363 . S
C156 N154 1.356 . S
C157 C151 1.363 . S
C157 C152 1.379 . S
C157 N155 1.356 . S
N158 C150 1.356 . S
N158 H164 0.984 . S
N158 H165 0.984 . S
N159 C152 1.356 . S
N159 H162 0.984 . S
N159 H163 0.985 . S
H160 N155 0.984 . S
H161 N155 0.985 . S
H162 N159 0.984 . S
H163 N159 0.985 . S
H164 N158 0.984 . S
H165 N158 0.984 . S
H166 N154 0.984 . S
H167 N154 0.985 . S
C168 C169 1.363 . S
C168 C174 1.379 . S
C168 N176 1.356 . S
C169 C168 1.363 . S
C169 C175 1.363 . S
C170 C171 1.363 . S
C170 C175 1.379 . S
C170 N177 1.356 . S
C171 C170 1.363 . S
C171 C174 1.363 . S
N172 C174 1.356 . S
N172 H184 0.984 . S
N172 H185 0.985 . S
N173 C175 1.356 . S
N173 H178 0.984 . S
N173 H179 0.985 . S
C174 C168 1.379 . S
C174 C171 1.363 . S
C174 N172 1.356 . S
C175 C169 1.363 . S
C175 C170 1.379 . S
C175 N173 1.356 . S
N176 C168 1.356 . S
N176 H182 0.984 . S
N176 H183 0.984 . S
N177 C170 1.356 . S
N177 H180 0.984 . S
N177 H181 0.985 . S
H178 N173 0.984 . S
H179 N173 0.985 . S
H180 N177 0.984 . S
H181 N177 0.985 . S
H182 N176 0.984 . S
H183 N176 0.984 . S
H184 N172 0.984 . S
H185 N172 0.985 . S
C186 C187 1.363 . S
C186 C192 1.379 . S
C186 N194 1.356 . S
C187 C186 1.363 . S
C187 C193 1.363 1_556 S
C188 C189 1.363 . S
C188 C193 1.379 . S
C188 N195 1.356 . S
C189 C188 1.363 . S
C189 C192 1.363 1_554 S
N190 C192 1.356 1_554 S
N190 H202 0.984 1_554 S
N190 H203 0.985 . S
N191 C193 1.356 1_556 S
N191 H196 0.984 . S
N191 H197 0.985 1_556 S
C192 C186 1.379 . S
C192 C189 1.363 1_556 S
C192 N190 1.356 1_556 S
C193 C187 1.363 1_554 S
C193 C188 1.379 . S
C193 N191 1.356 1_554 S
N194 C186 1.356 . S
N194 H200 0.984 . S
N194 H201 0.984 . S
N195 C188 1.356 . S
N195 H198 0.984 . S
N195 H199 0.985 . S
H196 N191 0.984 . S
H197 N191 0.985 1_554 S
H198 N195 0.984 . S
H199 N195 0.985 . S
H200 N194 0.984 . S
H201 N194 0.984 . S
H202 N190 0.984 1_556 S
H203 N190 0.985 . S
C204 C205 1.363 . S
C204 C210 1.379 . S
C204 N212 1.356 . S
C205 C204 1.363 . S
C205 C211 1.363 . S
C206 C207 1.363 . S
C206 C211 1.379 . S
C206 N213 1.356 . S
C207 C206 1.363 . S
C207 C210 1.363 . S
N208 C210 1.356 . S
N208 H220 0.984 . S
N208 H221 0.985 . S
N209 C211 1.356 . S
N209 H214 0.984 . S
N209 H215 0.985 . S
C210 C204 1.379 . S
C210 C207 1.363 . S
C210 N208 1.356 . S
C211 C205 1.363 . S
C211 C206 1.379 . S
C211 N209 1.356 . S
N212 C204 1.356 . S
N212 H218 0.984 . S
N212 H219 0.984 . S
N213 C206 1.356 . S
N213 H216 0.984 . S
N213 H217 0.985 . S
H214 N209 0.984 . S
H215 N209 0.985 . S
H216 N213 0.984 . S
H217 N213 0.985 . S
H218 N212 0.984 . S
H219 N212 0.984 . S
H220 N208 0.984 . S
H221 N208 0.985 . S
C222 C223 1.363 . S
C222 C228 1.379 . S
C222 N230 1.356 . S
C223 C222 1.363 . S
C223 C229 1.363 . S
C224 C225 1.363 . S
C224 C229 1.379 . S
C224 N231 1.356 . S
C225 C224 1.363 . S
C225 C228 1.363 . S
N226 C228 1.356 . S
N226 H238 0.984 . S
N226 H239 0.985 . S
N227 C229 1.356 . S
N227 H232 0.984 . S
N227 H233 0.985 . S
C228 C222 1.379 . S
C228 C225 1.363 . S
C228 N226 1.356 . S
C229 C223 1.363 . S
C229 C224 1.379 . S
C229 N227 1.356 . S
N230 C222 1.356 . S
N230 H236 0.984 . S
N230 H237 0.984 . S
N231 C224 1.356 . S
N231 H234 0.984 . S
N231 H235 0.985 . S
H232 N227 0.984 . S
H233 N227 0.985 . S
H234 N231 0.984 . S
H235 N231 0.985 . S
H236 N230 0.984 . S
H237 N230 0.984 . S
H238 N226 0.984 . S
H239 N226 0.985 . S
C240 C241 1.363 . S
C240 C246 1.379 . S
C240 N248 1.356 . S
C241 C240 1.363 . S
C241 C247 1.363 . S
C242 C243 1.363 . S
C242 C247 1.379 . S
C242 N249 1.356 . S
C243 C242 1.363 . S
C243 C246 1.363 . S
N244 C246 1.356 . S
N244 H256 0.984 . S
N244 H257 0.985 . S
N245 C247 1.356 . S
N245 H250 0.984 . S
N245 H251 0.985 . S
C246 C240 1.379 . S
C246 C243 1.363 . S
C246 N244 1.356 . S
C247 C241 1.363 . S
C247 C242 1.379 . S
C247 N245 1.356 . S
N248 C240 1.356 . S
N248 H254 0.984 . S
N248 H255 0.984 . S
N249 C242 1.356 . S
N249 H252 0.984 . S
N249 H253 0.985 . S
H250 N245 0.984 . S
H251 N245 0.985 . S
H252 N249 0.984 . S
H253 N249 0.985 . S
H254 N248 0.984 . S
H255 N248 0.984 . S
H256 N244 0.984 . S
H257 N244 0.985 . S
C258 C259 1.363 . S
C258 C264 1.379 . S
C258 N266 1.356 . S
C259 C258 1.363 . S
C259 C265 1.363 . S
C260 C261 1.363 . S
C260 C265 1.379 . S
C260 N267 1.356 . S
C261 C260 1.363 . S
C261 C264 1.363 . S
N262 C264 1.356 . S
N262 H274 0.984 . S
N262 H275 0.985 . S
N263 C265 1.356 . S
N263 H268 0.984 . S
N263 H269 0.985 . S
C264 C258 1.379 . S
C264 C261 1.363 . S
C264 N262 1.356 . S
C265 C259 1.363 . S
C265 C260 1.379 . S
C265 N263 1.356 . S
N266 C258 1.356 . S
N266 H272 0.984 . S
N266 H273 0.984 . S
N267 C260 1.356 . S
N267 H270 0.984 . S
N267 H271 0.985 . S
H268 N263 0.984 . S
H269 N263 0.985 . S
H270 N267 0.984 . S
H271 N267 0.985 . S
H272 N266 0.984 . S
H273 N266 0.984 . S
H274 N262 0.984 . S
H275 N262 0.985 . S
C276 C277 1.363 . S
C276 C282 1.379 . S
C276 N284 1.356 . S
C277 C276 1.363 . S
C277 C283 1.363 . S
C278 C279 1.363 . S
C278 C283 1.379 . S
C278 N285 1.356 . S
C279 C278 1.363 . S
C279 C282 1.363 . S
N280 C282 1.356 . S
N280 H292 0.984 . S
N280 H293 0.985 . S
N281 C283 1.356 . S
N281 H286 0.984 . S
N281 H287 0.985 . S
C282 C276 1.379 . S
C282 C279 1.363 . S
C282 N280 1.356 . S
C283 C277 1.363 . S
C283 C278 1.379 . S
C283 N281 1.356 . S
N284 C276 1.356 . S
N284 H290 0.984 . S
N284 H291 0.984 . S
N285 C278 1.356 . S
N285 H288 0.984 . S
N285 H289 0.985 . S
H286 N281 0.984 . S
H287 N281 0.985 . S
H288 N285 0.984 . S
H289 N285 0.985 . S
H290 N284 0.984 . S
H291 N284 0.984 . S
H292 N280 0.984 . S
H293 N280 0.985 . S
C294 C295 1.363 . S
C294 C300 1.379 . S
C294 N302 1.356 . S
C295 C294 1.363 . S
C295 C301 1.363 . S
C296 C297 1.363 . S
C296 C301 1.379 . S
C296 N303 1.356 . S
C297 C296 1.363 . S
C297 C300 1.363 . S
N298 C300 1.356 . S
N298 H310 0.984 . S
N298 H311 0.985 . S
N299 C301 1.356 . S
N299 H304 0.984 . S
N299 H305 0.985 . S
C300 C294 1.379 . S
C300 C297 1.363 . S
C300 N298 1.356 . S
C301 C295 1.363 . S
C301 C296 1.379 . S
C301 N299 1.356 . S
N302 C294 1.356 . S
N302 H308 0.984 . S
N302 H309 0.984 . S
N303 C296 1.356 . S
N303 H306 0.984 . S
N303 H307 0.985 . S
H304 N299 0.984 . S
H305 N299 0.985 . S
H306 N303 0.984 . S
H307 N303 0.985 . S
H308 N302 0.984 . S
H309 N302 0.984 . S
H310 N298 0.984 . S
H311 N298 0.985 . S
C312 C313 1.363 . S
C312 C318 1.379 . S
C312 N320 1.356 . S
C313 C312 1.363 . S
C313 C319 1.363 . S
C314 C315 1.363 . S
C314 C319 1.379 . S
C314 N321 1.356 . S
C315 C314 1.363 . S
C315 C318 1.363 . S
N316 C318 1.356 . S
N316 H328 0.984 . S
N316 H329 0.985 . S
N317 C319 1.356 . S
N317 H322 0.984 . S
N317 H323 0.985 . S
C318 C312 1.379 . S
C318 C315 1.363 . S
C318 N316 1.356 . S
C319 C313 1.363 . S
C319 C314 1.379 . S
C319 N317 1.356 . S
N320 C312 1.356 . S
N320 H326 0.984 . S
N320 H327 0.984 . S
N321 C314 1.356 . S
N321 H324 0.984 . S
N321 H325 0.985 . S
H322 N317 0.984 . S
H323 N317 0.985 . S
H324 N321 0.984 . S
H325 N321 0.985 . S
H326 N320 0.984 . S
H327 N320 0.984 . S
H328 N316 0.984 . S
H329 N316 0.985 . S
C330 C331 1.363 . S
C330 C336 1.379 . S
C330 N338 1.356 . S
C331 C330 1.363 . S
C331 C337 1.363 . S
C332 C333 1.363 . S
C332 C337 1.379 . S
C332 N339 1.356 . S
C333 C332 1.363 . S
C333 C336 1.363 . S
N334 C336 1.356 . S
N334 H346 0.984 . S
N334 H347 0.985 . S
N335 C337 1.356 . S
N335 H340 0.984 . S
N335 H341 0.985 . S
C336 C330 1.379 . S
C336 C333 1.363 . S
C336 N334 1.356 . S
C337 C331 1.363 . S
C337 C332 1.379 . S
C337 N335 1.356 . S
N338 C330 1.356 . S
N338 H344 0.984 . S
N338 H345 0.984 . S
N339 C332 1.356 . S
N339 H342 0.984 . S
N339 H343 0.985 . S
H340 N335 0.984 . S
H341 N335 0.985 . S
H342 N339 0.984 . S
H343 N339 0.985 . S
H344 N338 0.984 . S
H345 N338 0.984 . S
H346 N334 0.984 . S
H347 N334 0.985 . S
C348 C349 1.363 . S
C348 C354 1.379 1_455 S
C348 N356 1.356 . S
C349 C348 1.363 . S
C349 C355 1.363 . S
C350 C351 1.363 . S
C350 C355 1.379 1_655 S
C350 N357 1.356 . S
C351 C350 1.363 . S
C351 C354 1.363 . S
N352 C354 1.356 . S
N352 H364 0.984 . S
N352 H365 0.985 . S
N353 C355 1.356 . S
N353 H358 0.984 . S
N353 H359 0.985 . S
C354 C348 1.379 1_655 S
C354 C351 1.363 . S
C354 N352 1.356 . S
C355 C349 1.363 . S
C355 C350 1.379 1_455 S
C355 N353 1.356 . S
N356 C348 1.356 . S
N356 H362 0.984 . S
N356 H363 0.984 . S
N357 C350 1.356 . S
N357 H360 0.984 . S
N357 H361 0.985 . S
H358 N353 0.984 . S
H359 N353 0.985 . S
H360 N357 0.984 . S
H361 N357 0.985 . S
H362 N356 0.984 . S
H363 N356 0.984 . S
H364 N352 0.984 . S
H365 N352 0.985 . S
C366 C367 1.363 . S
C366 C372 1.379 1_545 S
C366 N374 1.356 . S
C367 C366 1.363 . S
C367 C373 1.363 . S
C368 C369 1.363 . S
C368 C373 1.379 1_565 S
C368 N375 1.356 . S
C369 C368 1.363 . S
C369 C372 1.363 . S
N370 C372 1.356 . S
N370 H382 0.984 . S
N370 H383 0.985 . S
N371 C373 1.356 . S
N371 H376 0.984 . S
N371 H377 0.985 . S
C372 C366 1.379 1_565 S
C372 C369 1.363 . S
C372 N370 1.356 . S
C373 C367 1.363 . S
C373 C368 1.379 1_545 S
C373 N371 1.356 . S
N374 C366 1.356 . S
N374 H380 0.984 . S
N374 H381 0.984 . S
N375 C368 1.356 . S
N375 H378 0.984 . S
N375 H379 0.985 . S
H376 N371 0.984 . S
H377 N371 0.985 . S
H378 N375 0.984 . S
H379 N375 0.985 . S
H380 N374 0.984 . S
H381 N374 0.984 . S
H382 N370 0.984 . S
H383 N370 0.985 . S
C384 C385 1.363 . S
C384 C390 1.379 . S
C384 N392 1.356 . S
C385 C384 1.363 . S
C385 C391 1.363 . S
C386 C387 1.363 . S
C386 C391 1.379 . S
C386 N393 1.356 . S
C387 C386 1.363 . S
C387 C390 1.363 . S
N388 C390 1.356 . S
N388 H400 0.984 . S
N388 H401 0.985 . S
N389 C391 1.356 . S
N389 H394 0.984 . S
N389 H395 0.985 . S
C390 C384 1.379 . S
C390 C387 1.363 . S
C390 N388 1.356 . S
C391 C385 1.363 . S
C391 C386 1.379 . S
C391 N389 1.356 . S
N392 C384 1.356 . S
N392 H398 0.984 . S
N392 H399 0.984 . S
N393 C386 1.356 . S
N393 H396 0.984 . S
N393 H397 0.985 . S
H394 N389 0.984 . S
H395 N389 0.985 . S
H396 N393 0.984 . S
H397 N393 0.985 . S
H398 N392 0.984 . S
H399 N392 0.984 . S
H400 N388 0.984 . S
H401 N388 0.985 . S
C402 C403 1.363 . S
C402 C408 1.379 1_655 S
C402 N410 1.356 . S
C403 C402 1.363 . S
C403 C409 1.363 . S
C404 C405 1.363 . S
C404 C409 1.379 1_455 S
C404 N411 1.356 . S
C405 C404 1.363 . S
C405 C408 1.363 . S
N406 C408 1.356 . S
N406 H418 0.984 . S
N406 H419 0.985 . S
N407 C409 1.356 . S
N407 H412 0.984 . S
N407 H413 0.985 . S
C408 C402 1.379 1_455 S
C408 C405 1.363 . S
C408 N406 1.356 . S
C409 C403 1.363 . S
C409 C404 1.379 1_655 S
C409 N407 1.356 . S
N410 C402 1.356 . S
N410 H416 0.984 . S
N410 H417 0.984 . S
N411 C404 1.356 . S
N411 H414 0.984 . S
N411 H415 0.985 . S
H412 N407 0.984 . S
H413 N407 0.985 . S
H414 N411 0.984 . S
H415 N411 0.985 . S
H416 N410 0.984 . S
H417 N410 0.984 . S
H418 N406 0.984 . S
H419 N406 0.985 . S
C420 C421 1.363 . S
C420 C426 1.379 1_545 S
C420 N428 1.356 . S
C421 C420 1.363 . S
C421 C427 1.363 . S
C422 C423 1.363 . S
C422 C427 1.379 1_565 S
C422 N429 1.356 . S
C423 C422 1.363 . S
C423 C426 1.363 . S
N424 C426 1.356 . S
N424 H436 0.984 . S
N424 H437 0.985 . S
N425 C427 1.356 . S
N425 H430 0.984 . S
N425 H431 0.985 . S
C426 C420 1.379 1_565 S
C426 C423 1.363 . S
C426 N424 1.356 . S
C427 C421 1.363 . S
C427 C422 1.379 1_545 S
C427 N425 1.356 . S
N428 C420 1.356 . S
N428 H434 0.984 . S
N428 H435 0.984 . S
N429 C422 1.356 . S
N429 H432 0.984 . S
N429 H433 0.985 . S
H430 N425 0.984 . S
H431 N425 0.985 . S
H432 N429 0.984 . S
H433 N429 0.985 . S
H434 N428 0.984 . S
H435 N428 0.984 . S
H436 N424 0.984 . S
H437 N424 0.985 . S
C438 C439 1.363 . S
C438 C444 1.379 . S
C438 N446 1.356 . S
C439 C438 1.363 . S
C439 C445 1.363 . S
C440 C441 1.363 . S
C440 C445 1.379 . S
C440 N447 1.356 . S
C441 C440 1.363 . S
C441 C444 1.363 . S
N442 C444 1.356 . S
N442 H454 0.984 . S
N442 H455 0.985 . S
N443 C445 1.356 . S
N443 H448 0.984 . S
N443 H449 0.985 . S
C444 C438 1.379 . S
C444 C441 1.363 . S
C444 N442 1.356 . S
C445 C439 1.363 . S
C445 C440 1.379 . S
C445 N443 1.356 . S
N446 C438 1.356 . S
N446 H452 0.984 . S
N446 H453 0.984 . S
N447 C440 1.356 . S
N447 H450 0.984 . S
N447 H451 0.985 . S
H448 N443 0.984 . S
H449 N443 0.985 . S
H450 N447 0.984 . S
H451 N447 0.985 . S
H452 N446 0.984 . S
H453 N446 0.984 . S
H454 N442 0.984 . S
H455 N442 0.985 . S
C133 C118 1.636 . S
C135 C8 1.636 . S
C151 C19 1.637 . S
C153 C129 1.637 . S
C169 C74 1.637 . S
C171 C30 1.637 . S
C187 C85 1.636 . S
C189 C41 1.636 . S
C205 C96 1.637 . S
C207 C52 1.637 . S
C223 C63 1.637 . S
C225 C107 1.637 . S
C241 C95 1.633 . S
C243 C7 1.633 . S
C259 C106 1.633 . S
C261 C18 1.633 . S
C277 C29 1.633 . S
C279 C117 1.633 . S
C295 C128 1.633 . S
C297 C40 1.633 . S
C313 C73 1.633 . S
C315 C51 1.633 . S
C331 C84 1.633 . S
C333 C62 1.633 . S
C349 C5 1.513 . S
C351 C126 1.514 . S
C367 C16 1.515 . S
C369 C71 1.515 . S
C385 C27 1.514 . S
C387 C82 1.514 . S
C403 C38 1.514 . S
C405 C93 1.514 . S
C421 C104 1.513 . S
C423 C49 1.514 . S
C439 C60 1.514 . S
C441 C115 1.514 . S
