# Generated by pormake.
# Topology vbc, (5)-cn, num edge types: 1
# Building blocks:
#     Node 0, Type 0, BuildingBlock: BEQFEK_clean_sbu_0, # of connection points: 5
#     Node 1, Type 0, BuildingBlock: BEQFEK_clean_sbu_0, # of connection points: 5
#     Node 2, Type 0, BuildingBlock: BEQFEK_clean_sbu_0, # of connection points: 5
#     Node 3, Type 0, BuildingBlock: BEQFEK_clean_sbu_0, # of connection points: 5
#     Node 4, Type 0, BuildingBlock: BEQFEK_clean_sbu_0, # of connection points: 5
#     Node 5, Type 0, BuildingBlock: BEQFEK_clean_sbu_0, # of connection points: 5
#     Node 6, Type 0, BuildingBlock: BEQFEK_clean_sbu_0, # of connection points: 5
#     Node 7, Type 0, BuildingBlock: BEQFEK_clean_sbu_0, # of connection points: 5
#     Node 8, Type 0, BuildingBlock: BEQFEK_clean_sbu_0, # of connection points: 5
#     Node 9, Type 0, BuildingBlock: BEQFEK_clean_sbu_0, # of connection points: 5
#     Node 10, Type 0, BuildingBlock: BEQFEK_clean_sbu_0, # of connection points: 5
#     Node 11, Type 0, BuildingBlock: BEQFEK_clean_sbu_0, # of connection points: 5
#     Node 12, Type 0, BuildingBlock: BEQFEK_clean_sbu_0, # of connection points: 5
#     Node 13, Type 0, BuildingBlock: BEQFEK_clean_sbu_0, # of connection points: 5
#     Node 14, Type 0, BuildingBlock: BEQFEK_clean_sbu_0, # of connection points: 5
#     Node 15, Type 0, BuildingBlock: BEQFEK_clean_sbu_0, # of connection points: 5
#     Node 16, Type 0, BuildingBlock: BEQFEK_clean_sbu_0, # of connection points: 5
#     Node 17, Type 0, BuildingBlock: BEQFEK_clean_sbu_0, # of connection points: 5
#     Node 18, Type 0, BuildingBlock: BEQFEK_clean_sbu_0, # of connection points: 5
#     Node 19, Type 0, BuildingBlock: BEQFEK_clean_sbu_0, # of connection points: 5
#     Node 20, Type 0, BuildingBlock: BEQFEK_clean_sbu_0, # of connection points: 5
#     Node 21, Type 0, BuildingBlock: BEQFEK_clean_sbu_0, # of connection points: 5
#     Node 22, Type 0, BuildingBlock: BEQFEK_clean_sbu_0, # of connection points: 5
#     Node 23, Type 0, BuildingBlock: BEQFEK_clean_sbu_0, # of connection points: 5
#     Node 24, Type 0, BuildingBlock: BEQFEK_clean_sbu_0, # of connection points: 5
#     Node 25, Type 0, BuildingBlock: BEQFEK_clean_sbu_0, # of connection points: 5
#     Node 26, Type 0, BuildingBlock: BEQFEK_clean_sbu_0, # of connection points: 5
#     Node 27, Type 0, BuildingBlock: BEQFEK_clean_sbu_0, # of connection points: 5
#     Node 28, Type 0, BuildingBlock: BEQFEK_clean_sbu_0, # of connection points: 5
#     Node 29, Type 0, BuildingBlock: BEQFEK_clean_sbu_0, # of connection points: 5
#     Node 30, Type 0, BuildingBlock: BEQFEK_clean_sbu_0, # of connection points: 5
#     Node 31, Type 0, BuildingBlock: BEQFEK_clean_sbu_0, # of connection points: 5
#     Edge 32, Type (0, 0), BuildingBlock: CIFDUS_clean_linker_0, # of connection points: 2
#     Edge 33, Type (0, 0), BuildingBlock: CIFDUS_clean_linker_0, # of connection points: 2
#     Edge 34, Type (0, 0), BuildingBlock: CIFDUS_clean_linker_0, # of connection points: 2
#     Edge 35, Type (0, 0), BuildingBlock: CIFDUS_clean_linker_0, # of connection points: 2
#     Edge 36, Type (0, 0), BuildingBlock: CIFDUS_clean_linker_0, # of connection points: 2
#     Edge 37, Type (0, 0), BuildingBlock: CIFDUS_clean_linker_0, # of connection points: 2
#     Edge 38, Type (0, 0), BuildingBlock: CIFDUS_clean_linker_0, # of connection points: 2
#     Edge 39, Type (0, 0), BuildingBlock: CIFDUS_clean_linker_0, # of connection points: 2
#     Edge 40, Type (0, 0), BuildingBlock: CIFDUS_clean_linker_0, # of connection points: 2
#     Edge 41, Type (0, 0), BuildingBlock: CIFDUS_clean_linker_0, # of connection points: 2
#     Edge 42, Type (0, 0), BuildingBlock: CIFDUS_clean_linker_0, # of connection points: 2
#     Edge 43, Type (0, 0), BuildingBlock: CIFDUS_clean_linker_0, # of connection points: 2
#     Edge 44, Type (0, 0), BuildingBlock: CIFDUS_clean_linker_0, # of connection points: 2
#     Edge 45, Type (0, 0), BuildingBlock: CIFDUS_clean_linker_0, # of connection points: 2
#     Edge 46, Type (0, 0), BuildingBlock: CIFDUS_clean_linker_0, # of connection points: 2
#     Edge 47, Type (0, 0), BuildingBlock: CIFDUS_clean_linker_0, # of connection points: 2
#     Edge 48, Type (0, 0), BuildingBlock: CIFDUS_clean_linker_0, # of connection points: 2
#     Edge 49, Type (0, 0), BuildingBlock: CIFDUS_clean_linker_0, # of connection points: 2
#     Edge 50, Type (0, 0), BuildingBlock: CIFDUS_clean_linker_0, # of connection points: 2
#     Edge 51, Type (0, 0), BuildingBlock: CIFDUS_clean_linker_0, # of connection points: 2
#     Edge 52, Type (0, 0), BuildingBlock: CIFDUS_clean_linker_0, # of connection points: 2
#     Edge 53, Type (0, 0), BuildingBlock: CIFDUS_clean_linker_0, # of connection points: 2
#     Edge 54, Type (0, 0), BuildingBlock: CIFDUS_clean_linker_0, # of connection points: 2
#     Edge 55, Type (0, 0), BuildingBlock: CIFDUS_clean_linker_0, # of connection points: 2
#     Edge 56, Type (0, 0), BuildingBlock: CIFDUS_clean_linker_0, # of connection points: 2
#     Edge 57, Type (0, 0), BuildingBlock: CIFDUS_clean_linker_0, # of connection points: 2
#     Edge 58, Type (0, 0), BuildingBlock: CIFDUS_clean_linker_0, # of connection points: 2
#     Edge 59, Type (0, 0), BuildingBlock: CIFDUS_clean_linker_0, # of connection points: 2
#     Edge 60, Type (0, 0), BuildingBlock: CIFDUS_clean_linker_0, # of connection points: 2
#     Edge 61, Type (0, 0), BuildingBlock: CIFDUS_clean_linker_0, # of connection points: 2
#     Edge 62, Type (0, 0), BuildingBlock: CIFDUS_clean_linker_0, # of connection points: 2
#     Edge 63, Type (0, 0), BuildingBlock: CIFDUS_clean_linker_0, # of connection points: 2
#     Edge 64, Type (0, 0), BuildingBlock: CIFDUS_clean_linker_0, # of connection points: 2
#     Edge 65, Type (0, 0), BuildingBlock: CIFDUS_clean_linker_0, # of connection points: 2
#     Edge 66, Type (0, 0), BuildingBlock: CIFDUS_clean_linker_0, # of connection points: 2
#     Edge 67, Type (0, 0), BuildingBlock: CIFDUS_clean_linker_0, # of connection points: 2
#     Edge 68, Type (0, 0), BuildingBlock: CIFDUS_clean_linker_0, # of connection points: 2
#     Edge 69, Type (0, 0), BuildingBlock: CIFDUS_clean_linker_0, # of connection points: 2
#     Edge 70, Type (0, 0), BuildingBlock: CIFDUS_clean_linker_0, # of connection points: 2
#     Edge 71, Type (0, 0), BuildingBlock: CIFDUS_clean_linker_0, # of connection points: 2
#     Edge 72, Type (0, 0), BuildingBlock: CIFDUS_clean_linker_0, # of connection points: 2
#     Edge 73, Type (0, 0), BuildingBlock: CIFDUS_clean_linker_0, # of connection points: 2
#     Edge 74, Type (0, 0), BuildingBlock: CIFDUS_clean_linker_0, # of connection points: 2
#     Edge 75, Type (0, 0), BuildingBlock: CIFDUS_clean_linker_0, # of connection points: 2
#     Edge 76, Type (0, 0), BuildingBlock: CIFDUS_clean_linker_0, # of connection points: 2
#     Edge 77, Type (0, 0), BuildingBlock: CIFDUS_clean_linker_0, # of connection points: 2
#     Edge 78, Type (0, 0), BuildingBlock: CIFDUS_clean_linker_0, # of connection points: 2
#     Edge 79, Type (0, 0), BuildingBlock: CIFDUS_clean_linker_0, # of connection points: 2
#     Edge 80, Type (0, 0), BuildingBlock: CIFDUS_clean_linker_0, # of connection points: 2
#     Edge 81, Type (0, 0), BuildingBlock: CIFDUS_clean_linker_0, # of connection points: 2
#     Edge 82, Type (0, 0), BuildingBlock: CIFDUS_clean_linker_0, # of connection points: 2
#     Edge 83, Type (0, 0), BuildingBlock: CIFDUS_clean_linker_0, # of connection points: 2
#     Edge 84, Type (0, 0), BuildingBlock: CIFDUS_clean_linker_0, # of connection points: 2
#     Edge 85, Type (0, 0), BuildingBlock: CIFDUS_clean_linker_0, # of connection points: 2
#     Edge 86, Type (0, 0), BuildingBlock: CIFDUS_clean_linker_0, # of connection points: 2
#     Edge 87, Type (0, 0), BuildingBlock: CIFDUS_clean_linker_0, # of connection points: 2
#     Edge 88, Type (0, 0), BuildingBlock: CIFDUS_clean_linker_0, # of connection points: 2
#     Edge 89, Type (0, 0), BuildingBlock: CIFDUS_clean_linker_0, # of connection points: 2
#     Edge 90, Type (0, 0), BuildingBlock: CIFDUS_clean_linker_0, # of connection points: 2
#     Edge 91, Type (0, 0), BuildingBlock: CIFDUS_clean_linker_0, # of connection points: 2
#     Edge 92, Type (0, 0), BuildingBlock: CIFDUS_clean_linker_0, # of connection points: 2
#     Edge 93, Type (0, 0), BuildingBlock: CIFDUS_clean_linker_0, # of connection points: 2
#     Edge 94, Type (0, 0), BuildingBlock: CIFDUS_clean_linker_0, # of connection points: 2
#     Edge 95, Type (0, 0), BuildingBlock: CIFDUS_clean_linker_0, # of connection points: 2
#     Edge 96, Type (0, 0), BuildingBlock: CIFDUS_clean_linker_0, # of connection points: 2
#     Edge 97, Type (0, 0), BuildingBlock: CIFDUS_clean_linker_0, # of connection points: 2
#     Edge 98, Type (0, 0), BuildingBlock: CIFDUS_clean_linker_0, # of connection points: 2
#     Edge 99, Type (0, 0), BuildingBlock: CIFDUS_clean_linker_0, # of connection points: 2
#     Edge 100, Type (0, 0), BuildingBlock: CIFDUS_clean_linker_0, # of connection points: 2
#     Edge 101, Type (0, 0), BuildingBlock: CIFDUS_clean_linker_0, # of connection points: 2
#     Edge 102, Type (0, 0), BuildingBlock: CIFDUS_clean_linker_0, # of connection points: 2
#     Edge 103, Type (0, 0), BuildingBlock: CIFDUS_clean_linker_0, # of connection points: 2
#     Edge 104, Type (0, 0), BuildingBlock: CIFDUS_clean_linker_0, # of connection points: 2
#     Edge 105, Type (0, 0), BuildingBlock: CIFDUS_clean_linker_0, # of connection points: 2
#     Edge 106, Type (0, 0), BuildingBlock: CIFDUS_clean_linker_0, # of connection points: 2
#     Edge 107, Type (0, 0), BuildingBlock: CIFDUS_clean_linker_0, # of connection points: 2
#     Edge 108, Type (0, 0), BuildingBlock: CIFDUS_clean_linker_0, # of connection points: 2
#     Edge 109, Type (0, 0), BuildingBlock: CIFDUS_clean_linker_0, # of connection points: 2
#     Edge 110, Type (0, 0), BuildingBlock: CIFDUS_clean_linker_0, # of connection points: 2
#     Edge 111, Type (0, 0), BuildingBlock: CIFDUS_clean_linker_0, # of connection points: 2
# Relax obj value: 0.260
# Max RMSD: 0.113
# Mean RMSD: 0.113
data_MOF--net-vbc--node1-BEQFEK_clean_sbu_0--edge1-CIFDUS_clean_linker_0
_symmetry_space_group_name_H-M    P1
_symmetry_Int_Tables_number       1
_symmetry_cell_setting            triclinic
loop_
_symmetry_equiv_pos_as_xyz
'x, y, z'
_cell_length_a     36.491026
_cell_length_b     66.779726
_cell_length_c     43.488109
_cell_angle_alpha  89.896256
_cell_angle_beta   89.988533
_cell_angle_gamma 90.014998
loop_
_atom_site_label
_atom_site_type_symbol
_atom_site_fract_x
_atom_site_fract_y
_atom_site_fract_z
_atom_type_partial_charge
Co0 Co 0.16216 0.0472 0.59128 0.0
Co1 Co 0.22568 0.05449 0.54621 0.0
C2 C 0.15568 0.03548 0.52194 0.0
O3 O 0.14426 0.03692 0.54962 0.0
O4 O 0.18855 0.041 0.51571 0.0
C5 C 0.11243 0.02057 0.61442 0.0
O6 O 0.13769 1.0068 0.61047 0.0
C7 C 0.28997 0.05077 0.50343 0.0
C8 C 0.32555 0.07441 0.5227 0.0
C9 C 0.3244 0.05961 0.5005 0.0
N10 N 0.27187 0.05993 0.52651 0.0
N11 N 0.29328 0.07415 0.53761 0.0
C12 C 0.2757 0.03297 0.48645 0.0
H13 H 0.25631 0.02444 0.50114 0.0
H14 H 0.29853 0.02313 0.47898 0.0
H15 H 0.26073 0.03818 0.46572 0.0
C16 C 0.22219 0.03168 0.63239 0.0
N17 N 0.2094 0.03794 0.6047 0.0
N18 N 0.23694 0.04026 0.58556 0.0
C19 C 0.26834 0.03491 0.60066 0.0
C20 C 0.26043 0.02929 0.63126 0.0
C21 C 0.19857 0.03051 0.66053 0.0
H22 H 0.1757 0.04139 0.65886 0.0
H23 H 0.18672 1.01526 0.66238 0.0
H24 H 0.21464 0.03367 0.68164 0.0
O25 O 0.16192 0.07688 0.59091 0.0
O26 O 0.20487 0.0823 0.55567 0.0
H27 H 0.31736 0.05031 0.58807 0.0
H28 H 0.32404 0.0243 0.5977 0.0
C29 C 0.30546 0.03508 0.58612 0.0
H30 H 0.30331 0.03113 0.56145 0.0
H31 H 0.2862 0.08335 0.55605 0.0
O32 O 0.12288 0.03843 0.61906 0.0
C33 C 0.18043 0.08884 0.57421 0.0
Co34 Co 0.12896 0.24593 0.58307 0.0
Co35 Co 0.06937 0.23731 0.53526 0.0
C36 C 0.13771 0.25871 0.5141 0.0
O37 O 0.14844 0.25723 0.54202 0.0
O38 O 0.10549 0.25269 0.50711 0.0
C39 C 0.17899 0.27242 0.60692 0.0
O40 O 0.15633 0.28738 0.60199 0.0
C41 C 1.0041 0.2406 0.49427 0.0
C42 C 0.98895 0.20863 0.49087 0.0
C43 C 0.97921 0.22755 0.48077 0.0
N44 N 0.02748 0.22977 0.51158 0.0
N45 N 0.01803 0.21071 0.50949 0.0
C46 C 1.00708 0.26269 0.48933 0.0
H47 H 0.03281 0.26856 0.49953 0.0
H48 H 0.9834 0.27028 0.50024 0.0
H49 H 1.00618 0.26609 0.46434 0.0
C50 C 0.06321 0.25931 0.62171 0.0
N51 N 0.07918 0.25337 0.5949 0.0
N52 N 0.05344 0.24984 0.57443 0.0
C53 C 0.02027 0.2534 0.58784 0.0
C54 C 0.02489 0.25969 0.61855 0.0
C55 C 0.08422 0.26393 0.65038 0.0
H56 H 0.11128 0.27041 0.64464 0.0
H57 H 0.0689 0.27453 0.66521 0.0
H58 H 0.08878 0.24984 0.66339 0.0
O59 O 0.13411 0.21596 0.58124 0.0
O60 O 0.09423 0.2109 0.54372 0.0
H61 H 0.96179 0.24775 0.58971 0.0
H62 H 0.97811 0.26025 0.55548 0.0
C63 C 0.98448 0.24856 0.57279 0.0
H64 H 0.98645 0.23396 0.56085 0.0
H65 H 0.03166 0.19902 0.52057 0.0
O66 O 0.1653 0.25541 0.61317 0.0
C67 C 0.11843 0.20424 0.56225 0.0
Co68 Co 0.15437 0.24223 0.7772 0.0
Co69 Co 0.21413 0.22963 0.82261 0.0
C70 C 0.14621 0.2518 0.84617 0.0
O71 O 0.13588 0.25299 0.81821 0.0
O72 O 0.17699 0.2435 0.85218 0.0
C73 C 0.10677 0.27032 0.75513 0.0
O74 O 0.13142 0.28389 0.76224 0.0
C75 C 0.27887 0.23499 0.86245 0.0
C76 C 0.29477 0.20352 0.87081 0.0
C77 C 0.30403 0.22309 0.87784 0.0
N78 N 0.25586 0.22295 0.84688 0.0
N79 N 0.26566 0.20417 0.8519 0.0
C80 C 0.275 0.25723 0.86427 0.0
H81 H 0.25055 0.26234 0.85125 0.0
H82 H 0.29984 0.26451 0.85471 0.0
H83 H 0.27265 0.26182 0.88871 0.0
C84 C 0.22031 0.25548 0.73885 0.0
N85 N 0.20434 0.24904 0.7654 0.0
N86 N 0.23012 0.24387 0.78501 0.0
C87 C 0.26329 0.24676 0.77127 0.0
C88 C 0.25861 0.25442 0.74136 0.0
C89 C 0.19928 0.26158 0.71082 0.0
H90 H 0.17296 0.26859 0.71734 0.0
H91 H 0.21535 0.27221 0.69653 0.0
H92 H 0.19321 0.24807 0.69691 0.0
O93 O 0.14765 0.21241 0.77823 0.0
O94 O 0.19206 0.20315 0.81006 0.0
H95 H 0.32009 0.2378 0.76677 0.0
H96 H 0.30852 0.2507 0.80182 0.0
C97 C 0.29875 0.23964 0.78471 0.0
H98 H 0.29469 0.22508 0.79645 0.0
H99 H 0.25217 0.19176 0.84274 0.0
O100 O 0.11803 0.25292 0.74812 0.0
C101 C 0.16522 0.19875 0.79252 0.0
Co102 Co 0.13973 0.03683 0.77297 0.0
Co103 Co 0.07644 0.04901 0.81596 0.0
C104 C 0.14351 0.02702 0.84251 0.0
O105 O 0.15553 0.02627 0.81495 0.0
O106 O 0.11189 0.03483 0.84746 0.0
C107 C 0.1917 1.01011 0.75199 0.0
O108 O 0.16953 0.9966 0.76379 0.0
C109 C 1.00707 0.04773 0.8532 0.0
C110 C 0.98933 0.07911 0.84718 0.0
C111 C 0.979 0.06111 0.8604 0.0
N112 N 0.03243 0.05752 0.8363 0.0
N113 N 0.02161 0.07629 0.83311 0.0
C114 C 1.00869 0.02583 0.86015 0.0
H115 H 0.02767 0.01819 0.84403 0.0
H116 H 0.98093 0.01909 0.85866 0.0
H117 H 0.01906 0.02369 0.88391 0.0
C118 C 0.07724 0.02397 0.73154 0.0
N119 N 0.09067 0.02995 0.75918 0.0
N120 N 0.06324 0.03498 0.77721 0.0
C121 C 0.03135 0.03243 0.76118 0.0
C122 C 0.03876 0.02528 0.7313 0.0
C123 C 0.10124 0.01814 0.7051 0.0
H124 H 0.11229 0.03187 0.69407 0.0
H125 H 0.12473 1.00916 0.71348 0.0
H126 H 0.08586 1.00933 0.68775 0.0
O127 O 0.1464 0.06658 0.7742 0.0
O128 O 0.10065 0.07525 0.80485 0.0
H129 H 0.99726 0.0552 0.7805 0.0
H130 H 0.97345 0.03856 0.75472 0.0
C131 C 0.99493 0.03946 0.77268 0.0
H132 H 0.98667 0.0302 0.79269 0.0
H133 H 0.03585 0.08716 0.82067 0.0
O134 O 0.17816 0.02701 0.7449 0.0
C135 C 0.12822 0.07998 0.78837 0.0
Co136 Co 0.88937 0.99136 0.5255 0.0
Co137 Co 0.82406 0.97814 0.56446 0.0
C138 C 0.89018 0.99923 0.59487 0.0
O139 O 0.9043 1.0017 0.5683 0.0
O140 O 0.85882 0.99071 0.59693 0.0
C141 C 0.93735 0.02003 0.50556 0.0
O142 O 0.91094 0.03303 0.51026 0.0
C143 C 0.76443 0.97951 0.60991 0.0
C144 C 0.72606 0.95686 0.59162 0.0
C145 C 0.73081 0.97048 0.61524 0.0
N146 N 0.77897 0.97158 0.58428 0.0
N147 N 0.75595 0.95799 0.57352 0.0
C148 C 0.78149 0.99624 0.6277 0.0
H149 H 0.79507 1.00688 0.61172 0.0
H150 H 0.76075 1.00432 0.64162 0.0
H151 H 0.80266 0.98999 0.64332 0.0
C152 C 0.82827 1.00524 0.48214 0.0
N153 N 0.84086 0.99838 0.50967 0.0
N154 N 0.81273 0.99373 0.52711 0.0
C155 C 0.78131 0.99816 0.51146 0.0
C156 C 0.78958 1.00552 0.48187 0.0
C157 C 0.85293 1.0091 0.45526 0.0
H158 H 0.87802 0.99981 0.45697 0.0
H159 H 0.86124 0.02509 0.45524 0.0
H160 H 0.83876 1.00573 0.4333 0.0
O161 O 0.89598 0.96162 0.52642 0.0
O162 O 0.84709 0.95161 0.55261 0.0
H163 H 0.734 0.98029 0.52058 0.0
H164 H 0.72426 1.00644 0.51416 0.0
C165 C 0.7438 0.99577 0.52482 0.0
H166 H 0.74448 0.99844 0.54995 0.0
H167 H 0.76053 0.94961 0.55366 0.0
O168 O 0.92847 1.00213 0.49926 0.0
C169 C 0.87666 0.94762 0.53811 0.0
Co170 Co 0.90463 0.78604 0.52305 0.0
Co171 Co 0.97074 0.79718 0.5628 0.0
C172 C 0.90203 0.777 0.59209 0.0
O173 O 0.88788 0.77491 0.56538 0.0
O174 O 0.93394 0.78494 0.59429 0.0
C175 C 0.85061 0.76147 0.49885 0.0
O176 O 0.87098 0.7468 0.50954 0.0
C177 C 0.02882 0.79546 0.61038 0.0
C178 C 0.0691 0.817 0.59174 0.0
C179 C 0.0625 0.80438 0.61644 0.0
N180 N 1.0161 0.80261 0.58345 0.0
N181 N 0.04036 0.81547 0.57248 0.0
C182 C 1.0098 0.77971 0.62895 0.0
H183 H 0.99582 0.76896 0.61347 0.0
H184 H 0.02945 0.77153 0.64385 0.0
H185 H 0.98875 0.78691 0.64364 0.0
C186 C 0.96429 0.7723 0.47906 0.0
N187 N 0.95254 0.77852 0.50712 0.0
N188 N 0.98105 0.78195 0.52473 0.0
C189 C 1.01195 0.77699 0.50871 0.0
C190 C 1.00287 0.7707 0.47862 0.0
C191 C 0.93913 0.77079 0.45193 0.0
H192 H 0.9163 0.78162 0.45425 0.0
H193 H 0.92731 0.75549 0.45098 0.0
H194 H 0.95376 0.77398 0.4301 0.0
O195 O 0.90041 0.8157 0.52582 0.0
O196 O 0.95 0.82459 0.55184 0.0
H197 H 0.06164 0.79289 0.51739 0.0
H198 H 0.06752 0.76631 0.51196 0.0
C199 C 0.0496 0.77795 0.52217 0.0
H200 H 0.04843 0.77568 0.54741 0.0
H201 H 0.03717 0.82331 0.55187 0.0
O202 O 0.86589 0.77824 0.49413 0.0
C203 C 0.92048 0.82923 0.53772 0.0
Co204 Co 0.87653 0.79879 0.33926 0.0
Co205 Co 0.81037 0.80478 0.2974 0.0
C206 C 0.87776 0.78662 0.26951 0.0
O207 O 0.89259 0.79002 0.29559 0.0
O208 O 0.84328 0.78965 0.2664 0.0
C209 C 0.92695 0.7714 0.35477 0.0
O210 O 0.90089 0.75974 0.34407 0.0
C211 C 0.74172 0.80186 0.25971 0.0
C212 C 0.71551 0.83027 0.27354 0.0
C213 C 0.71019 0.81341 0.25555 0.0
N214 N 0.76413 0.81156 0.27936 0.0
N215 N 0.74825 0.82854 0.2873 0.0
C216 C 0.74943 0.7814 0.24744 0.0
H217 H 0.77 0.77367 0.26204 0.0
H218 H 0.72385 0.77242 0.2464 0.0
H219 H 0.76074 0.78276 0.22384 0.0
C220 C 0.81809 0.78296 0.38329 0.0
N221 N 0.82964 0.78922 0.35513 0.0
N222 N 0.80098 0.79162 0.33723 0.0
C223 C 0.77027 0.78671 0.3535 0.0
C224 C 0.77963 0.78106 0.38373 0.0
C225 C 0.84325 0.78093 0.4103 0.0
H226 H 0.86705 0.79113 0.40774 0.0
H227 H 0.85368 0.76534 0.41137 0.0
H228 H 0.8287 0.78429 0.43211 0.0
O229 O 0.87727 0.82859 0.33979 0.0
O230 O 0.83424 0.83206 0.30419 0.0
H231 H 0.72272 0.80313 0.33999 0.0
H232 H 0.71312 0.77814 0.35391 0.0
C233 C 0.73248 0.78739 0.34028 0.0
H234 H 0.73295 0.78182 0.31632 0.0
H235 H 0.75955 0.83885 0.30262 0.0
O236 O 0.91801 0.78882 0.36369 0.0
C237 C 0.85863 0.83966 0.32176 0.0
Co238 Co 0.9089 0.9991 0.34615 0.0
Co239 Co 0.96651 0.9854 0.2995 0.0
C240 C 0.90006 1.00759 0.27546 0.0
O241 O 0.88946 1.00834 0.30354 0.0
O242 O 0.93152 1.00006 0.2694 0.0
C243 C 0.85903 0.02688 0.3681 0.0
O244 O 0.88 0.04074 0.35579 0.0
C245 C 0.03322 0.98408 0.25997 0.0
C246 C 0.04741 0.95207 0.26511 0.0
C247 C 0.05937 0.96981 0.25198 0.0
N248 N 1.00747 0.97507 0.27737 0.0
N249 N 1.01602 0.95592 0.27997 0.0
C250 C 0.03391 1.00606 0.25347 0.0
H251 H 1.01594 1.01417 0.26988 0.0
H252 H 0.06235 1.01189 0.25489 0.0
H253 H 0.02354 1.00875 0.22984 0.0
C254 C 0.97607 1.01266 0.38224 0.0
N255 N 0.95932 1.00576 0.35635 0.0
N256 N 0.98441 0.99989 0.3366 0.0
C257 C 0.01802 1.00293 0.3496 0.0
C258 C 1.01431 1.01127 0.3792 0.0
C259 C 0.95565 0.01976 0.40999 0.0
H260 H 0.94678 1.00659 0.42371 0.0
H261 H 0.93082 0.02812 0.40291 0.0
H262 H 0.97307 0.0295 0.42459 0.0
O263 O 0.90198 0.96932 0.34927 0.0
O264 O 0.93986 0.96025 0.31208 0.0
H265 H 0.07562 0.99524 0.3528 0.0
H266 H 0.06103 1.00577 0.31658 0.0
C267 C 0.05309 0.99566 0.3357 0.0
H268 H 0.04924 0.98039 0.32637 0.0
H269 H 1.001 0.94551 0.29269 0.0
O270 O 0.87411 1.01055 0.37609 0.0
C271 C 0.91598 0.95579 0.33232 0.0
Co272 Co 0.15476 0.54286 0.0868 0.0
Co273 Co 0.21248 0.55701 1.04044 0.0
C274 C 0.14653 0.53409 1.01679 0.0
O275 O 0.13643 0.53339 1.04485 0.0
O276 O 0.17745 0.54209 1.0103 0.0
C277 C 0.11057 0.51238 0.10639 0.0
O278 O 0.13728 0.50049 0.09762 0.0
C279 C 0.27581 0.55748 0.99732 0.0
C280 C 0.28833 0.58985 0.99683 0.0
C281 C 0.29848 0.57176 0.98392 0.0
N282 N 0.25321 0.56681 1.01716 0.0
N283 N 0.26122 0.58612 1.01694 0.0
C284 C 0.27384 0.53567 0.98985 0.0
H285 H 0.24885 0.52884 0.99994 0.0
H286 H 0.29828 0.52802 0.99945 0.0
H287 H 0.27413 0.53354 0.96453 0.0
C288 C 0.22176 0.53031 0.12369 0.0
N289 N 0.20521 0.53669 0.09743 0.0
N290 N 0.23041 0.54288 0.07798 0.0
C291 C 0.26387 0.54067 0.09169 0.0
C292 C 0.25992 0.53254 0.12156 0.0
C293 C 0.20141 0.5224 0.15086 0.0
H294 H 0.19723 0.53463 0.16773 0.0
H295 H 0.17432 0.5165 0.14411 0.0
H296 H 0.21764 0.5103 0.16176 0.0
O297 O 0.14717 0.57249 0.08969 0.0
O298 O 0.18565 0.58219 1.05308 0.0
H299 H 0.32093 0.54947 0.09509 0.0
H300 H 0.30719 0.53846 0.05888 0.0
C301 C 0.29861 0.54849 0.07787 0.0
H302 H 0.29381 0.56359 0.06806 0.0
H303 H 0.24754 0.59688 1.02997 0.0
O304 O 0.11877 0.53013 0.11427 0.0
C305 C 0.16127 0.58625 0.07315 0.0
Co306 Co 0.12517 0.74177 0.08962 0.0
Co307 Co 0.05916 0.73949 1.04685 0.0
C308 C 0.12934 0.75631 1.02117 0.0
O309 O 0.14362 0.75185 1.04711 0.0
O310 O 0.09474 0.75419 1.01766 0.0
C311 C 0.18299 0.76403 0.10688 0.0
O312 O 0.16297 0.77981 0.10024 0.0
C313 C 1.00058 0.74133 0.99937 0.0
C314 C 0.95766 0.72307 1.0218 0.0
C315 C 0.96556 0.73361 0.99519 0.0
N316 N 1.01274 0.73559 1.02726 0.0
N317 N 0.98694 0.72463 1.04042 0.0
C318 C 0.02186 0.75432 0.97773 0.0
H319 H 0.03479 0.76676 0.99066 0.0
H320 H 1.00407 0.76061 0.95943 0.0
H321 H 0.04403 0.74533 0.96706 0.0
C322 C 0.06767 0.75724 0.13461 0.0
N323 N 0.07902 0.75205 0.10593 0.0
N324 N 0.05068 0.75202 0.08735 0.0
C325 C 0.02059 0.7581 0.10351 0.0
C326 C 0.02973 0.76148 0.13462 0.0
C327 C 0.09215 0.75572 0.16216 0.0
H328 H 0.11424 0.74465 0.15801 0.0
H329 H 0.1051 0.77049 0.16643 0.0
H330 H 0.07643 0.75121 0.18288 0.0
O331 O 0.12266 0.71223 0.08723 0.0
O332 O 0.07896 0.71101 1.05187 0.0
H333 H 0.96694 0.74767 0.09211 0.0
H334 H 0.96943 0.77401 0.10047 0.0
C335 C 0.98381 0.76136 0.08918 0.0
H336 H 0.98671 0.7646 0.06429 0.0
H337 H 0.98958 0.71793 0.062 0.0
O338 O 0.16644 0.74854 0.1166 0.0
C339 C 0.10278 0.70223 0.06877 0.0
Co340 Co 0.15958 0.73349 0.27415 0.0
Co341 Co 0.22406 0.72773 0.31763 0.0
C342 C 0.15386 0.74524 0.34332 0.0
O343 O 0.1401 0.74271 0.31664 0.0
O344 O 0.18776 0.7413 0.34745 0.0
C345 C 0.10885 0.75962 0.25606 0.0
O346 O 0.13408 0.77207 0.26605 0.0
C347 C 0.28257 0.73405 0.36291 0.0
C348 C 0.32051 0.70931 0.35175 0.0
C349 C 0.31548 0.72531 0.37151 0.0
N350 N 0.26877 0.72366 0.33916 0.0
N351 N 0.29152 0.70886 0.33266 0.0
C352 C 0.26527 0.75249 0.3759 0.0
H353 H 0.25104 0.76093 0.35742 0.0
H354 H 0.28606 0.76223 0.38698 0.0
H355 H 0.24461 0.74807 0.39337 0.0
C356 C 0.22095 0.75034 0.23237 0.0
N357 N 0.20723 0.7438 0.25981 0.0
N358 N 0.2345 0.74203 0.27937 0.0
C359 C 0.2661 0.74777 0.26525 0.0
C360 C 0.25908 0.7532 0.23459 0.0
C361 C 0.19828 0.75287 0.20398 0.0
H362 H 0.171 0.75904 0.20996 0.0
H363 H 0.21209 0.76284 0.18712 0.0
H364 H 0.19404 0.738 0.19322 0.0
O365 O 0.16032 0.70357 0.27485 0.0
O366 O 0.20638 0.69965 0.30756 0.0
H367 H 0.32484 0.75321 0.26617 0.0
H368 H 0.30243 0.75236 0.30327 0.0
C369 C 0.30307 0.74583 0.27985 0.0
H370 H 0.31003 0.72973 0.28189 0.0
H371 H 0.2872 0.69844 0.31518 0.0
O372 O 0.11918 0.74235 0.24756 0.0
C373 C 0.18144 0.6922 0.2904 0.0
Co374 Co 0.12949 0.5331 0.27561 0.0
Co375 Co 0.07102 0.54633 0.32229 0.0
C376 C 0.13967 0.52369 0.3443 0.0
O377 O 0.14953 0.52183 0.31623 0.0
O378 O 0.10941 0.53251 0.35043 0.0
C379 C 0.18857 0.51217 0.24099 0.0
O380 O 0.19847 0.50294 0.21574 0.0
C381 C 1.00734 0.54288 0.36408 0.0
C382 C 0.99555 0.57486 0.37258 0.0
C383 C 0.98436 0.55568 0.38012 0.0
N384 N 0.03104 0.55409 0.34771 0.0
N385 N 0.02367 0.57317 0.35283 0.0
C386 C 1.00858 0.52055 0.36595 0.0
H387 H 0.03227 0.51461 0.35278 0.0
H388 H 0.98285 0.5142 0.35651 0.0
H389 H 1.01053 0.51583 0.39038 0.0
C390 C 0.06161 0.51983 0.24003 0.0
N391 N 0.07832 0.52659 0.26604 0.0
N392 N 0.05309 0.53225 0.28575 0.0
C393 C 0.01956 0.52973 0.27244 0.0
C394 C 0.02336 0.5216 0.24273 0.0
C395 C 0.08211 0.51179 0.21291 0.0
H396 H 0.09532 0.52438 0.20043 0.0
H397 H 0.10392 0.50147 0.22091 0.0
H398 H 0.06384 0.50355 0.19698 0.0
O399 O 0.13685 0.56336 0.27547 0.0
O400 O 0.09262 0.57207 0.30786 0.0
H401 H 0.9637 0.54026 0.2681 0.0
H402 H 0.97391 0.5265 0.30274 0.0
C403 C 0.98474 0.53758 0.28605 0.0
H404 H 0.99001 0.55181 0.29832 0.0
H405 H 0.03816 0.58509 0.34316 0.0
O406 O 0.15825 0.52152 0.24126 0.0
C407 C 0.11873 0.5768 0.28983 0.0
Co408 Co 0.87776 0.48548 1.02948 0.0
Co409 Co 0.81335 0.48166 0.07445 0.0
C410 C 0.88447 0.49939 0.0978 0.0
O411 O 0.89622 0.49664 0.07047 0.0
O412 O 0.85099 0.49521 0.1039 0.0
C413 C 0.92878 0.5108 1.00577 0.0
O414 O 0.9035 0.52456 1.00979 0.0
C415 C 0.75357 0.48707 0.12026 0.0
C416 C 0.71264 0.46555 0.10266 0.0
C417 C 0.71871 0.47939 0.12578 0.0
N418 N 0.76734 0.47811 0.09506 0.0
N419 N 0.74272 0.46524 0.08478 0.0
C420 C 0.77274 0.50337 0.13745 0.0
H421 H 0.7886 0.51284 0.12122 0.0
H422 H 0.75293 0.51281 0.15026 0.0
H423 H 0.79226 0.49655 0.15399 0.0
C424 C 0.81896 0.50083 0.98649 0.0
N425 N 0.83115 0.49528 1.01475 0.0
N426 N 0.80335 0.49446 1.03391 0.0
C427 C 0.77249 0.50002 1.01825 0.0
C428 C 0.78091 0.50422 0.98722 0.0
C429 C 0.84285 0.50056 0.95848 0.0
H430 H 0.86527 0.48951 0.96135 0.0
H431 H 0.85535 0.51557 0.95529 0.0
H432 H 0.82679 0.49678 0.9376 0.0
O433 O 0.87646 0.45578 1.03292 0.0
O434 O 0.83262 0.45335 0.06813 0.0
H435 H 0.72146 0.48678 1.03099 0.0
H436 H 0.7184 0.51286 1.02074 0.0
C437 C 0.73542 0.50149 1.0327 0.0
H438 H 0.73795 0.50558 0.0573 0.0
H439 H 0.74642 0.45629 0.06538 0.0
O440 O 0.91829 0.49284 1.00201 0.0
C441 C 0.8569 0.44522 1.05099 0.0
Co442 Co 0.90699 0.28657 1.02735 0.0
Co443 Co 0.96524 0.29851 0.07486 0.0
C444 C 0.89739 0.27668 0.09702 0.0
O445 O 0.8873 0.27673 0.06888 0.0
O446 O 0.92893 0.28376 0.10392 0.0
C447 C 0.85878 0.25863 1.00516 0.0
O448 O 0.88216 0.24451 1.01276 0.0
C449 C 0.03031 0.29631 0.11618 0.0
C450 C 0.04897 0.32775 0.11409 0.0
C451 C 0.05764 0.30924 0.1266 0.0
N452 N 1.00702 0.30681 0.09829 0.0
N453 N 0.0183 0.32559 0.09739 0.0
C454 C 0.02751 0.27421 0.12111 0.0
H455 H 1.01029 0.26731 0.10294 0.0
H456 H 0.05517 0.26729 0.12119 0.0
H457 H 1.0144 0.27131 0.1437 0.0
C458 C 0.97316 0.2731 0.99063 0.0
N459 N 0.95685 0.27945 1.01701 0.0
N460 N 0.98222 0.28455 1.037 0.0
C461 C 1.01563 0.28155 1.02366 0.0
C462 C 1.01139 0.2741 0.99353 0.0
C463 C 0.95239 0.26704 0.96248 0.0
H464 H 0.92675 0.25926 0.96894 0.0
H465 H 0.96902 0.25703 0.94768 0.0
H466 H 0.94503 0.28065 0.94917 0.0
O467 O 0.90179 0.31632 1.02579 0.0
O468 O 0.94036 0.32456 0.06313 0.0
H469 H 0.07367 0.2884 1.02105 0.0
H470 H 0.05807 0.27773 1.05696 0.0
C471 C 0.05093 0.28812 1.03796 0.0
H472 H 0.04771 0.30333 1.04771 0.0
H473 H 1.00542 0.33692 0.08487 0.0
O474 O 0.87158 0.27564 0.99769 0.0
C475 C 0.91655 0.32947 1.04299 0.0
Co476 Co 0.87851 0.29136 0.83385 0.0
Co477 Co 0.81971 0.30529 0.78831 0.0
C478 C 0.8871 0.28273 0.76431 0.0
O479 O 0.89693 0.28114 0.79238 0.0
O480 O 0.85661 0.29137 0.75818 0.0
C481 C 0.92473 0.2622 0.85511 0.0
O482 O 0.89972 0.2489 0.84767 0.0
C483 C 0.75672 0.30428 0.74489 0.0
C484 C 0.7417 0.33633 0.74427 0.0
C485 C 0.733 0.318 0.73146 0.0
N486 N 0.77852 0.31416 0.76474 0.0
N487 N 0.76902 0.33326 0.76443 0.0
C488 C 0.7604 0.28256 0.73737 0.0
H489 H 0.78396 0.27586 0.74982 0.0
H490 H 0.73488 0.27462 0.74402 0.0
H491 H 0.76402 0.2807 0.71219 0.0
C492 C 0.81144 0.27823 0.87112 0.0
N493 N 0.82801 0.28497 0.84499 0.0
N494 N 0.80267 0.29047 0.82519 0.0
C495 C 0.76918 0.28736 0.83829 0.0
C496 C 0.77315 0.27937 0.86817 0.0
C497 C 0.83193 0.27157 0.89913 0.0
H498 H 0.8583 0.26462 0.89264 0.0
H499 H 0.81555 0.26072 0.91275 0.0
H500 H 0.83785 0.28481 0.9137 0.0
O501 O 0.88693 0.32108 0.83435 0.0
O502 O 0.84349 0.33109 0.80222 0.0
H503 H 0.71109 0.29417 0.84057 0.0
H504 H 0.72735 0.28438 0.80427 0.0
C505 C 0.73411 0.29427 0.82394 0.0
H506 H 0.73756 0.3097 0.81498 0.0
H507 H 0.7818 0.34435 0.77746 0.0
O508 O 0.91393 0.27957 0.86276 0.0
C509 C 0.87012 0.33506 0.82018 0.0
Co510 Co 0.90077 0.49694 0.84073 0.0
Co511 Co 0.95975 0.48447 0.79412 0.0
C512 C 0.8914 0.50701 0.77166 0.0
O513 O 0.88135 0.50813 0.7998 0.0
O514 O 0.9221 0.49868 0.76526 0.0
C515 C 0.84961 0.5228 0.86555 0.0
O516 O 0.8695 0.53764 0.85474 0.0
C517 C 0.02085 0.48662 0.74903 0.0
C518 C 0.04114 0.45547 0.75135 0.0
C519 C 0.04641 0.47359 0.7366 0.0
N520 N 1.0013 0.4766 0.77034 0.0
N521 N 1.01391 0.45806 0.77176 0.0
C522 C 1.01358 0.50773 0.73945 0.0
H523 H 0.03983 0.51603 0.73735 0.0
H524 H 1.00024 0.50773 0.71652 0.0
H525 H 0.99534 0.51526 0.75628 0.0
C526 C 0.96773 0.51029 0.87755 0.0
N527 N 0.95111 0.50359 0.8515 0.0
N528 N 0.97638 0.49882 0.83123 0.0
C529 C 1.0099 0.50247 0.84385 0.0
C530 C 1.00598 0.50992 0.87398 0.0
C531 C 0.94721 0.51645 0.90578 0.0
H532 H 0.92238 0.52501 0.89925 0.0
H533 H 0.9645 0.52572 0.92118 0.0
H534 H 0.93826 0.50285 0.91841 0.0
O535 O 0.89348 0.46713 0.83922 0.0
O536 O 0.93713 0.45811 0.80669 0.0
H537 H 0.06904 0.4988 0.84392 0.0
H538 H 0.04878 0.50604 0.80753 0.0
C539 C 0.04511 0.4968 0.82853 0.0
H540 H 0.04379 0.48089 0.82136 0.0
H541 H 1.00336 0.44699 0.78623 0.0
O542 O 0.86603 0.50661 0.87221 0.0
C543 C 0.91054 0.45357 0.82439 0.0
Co544 Co 0.6677 0.04544 0.08565 0.0
Co545 Co 0.73058 0.05402 1.0405 0.0
C546 C 0.66008 0.03426 1.01686 0.0
O547 O 0.64889 0.03445 1.04465 0.0
O548 O 0.69218 0.04097 1.01089 0.0
C549 C 0.61598 0.01969 0.10839 0.0
O550 O 0.6387 1.00655 0.09645 0.0
C551 C 0.79538 0.04681 1.0003 0.0
C552 C 0.81389 0.07793 0.99266 0.0
C553 C 0.82119 0.05828 0.98474 0.0
N554 N 0.77378 0.05921 1.01669 0.0
N555 N 0.78532 0.07775 1.01216 0.0
C556 C 0.78965 0.02473 0.99786 0.0
H557 H 0.7652 0.02002 1.01126 0.0
H558 H 0.81422 1.01681 1.00668 0.0
H559 H 0.78623 0.02053 0.97334 0.0
C560 C 0.73083 0.03048 0.12613 0.0
N561 N 0.71648 0.03673 0.09883 0.0
N562 N 0.74346 0.04024 0.07946 0.0
C563 C 0.77578 0.03655 0.09418 0.0
C564 C 0.76933 0.03006 0.12461 0.0
C565 C 0.70812 0.02541 0.15365 0.0
H566 H 0.68021 0.0208 0.14672 0.0
H567 H 0.72119 1.01313 0.1669 0.0
H568 H 0.70589 0.03879 0.16863 0.0
O569 O 0.66557 0.07556 0.08339 0.0
O570 O 0.71177 0.08143 1.05151 0.0
H571 H 0.83379 0.04297 0.09867 0.0
H572 H 0.82033 0.03008 0.06395 0.0
C573 C 0.81232 0.04178 0.08073 0.0
H574 H 0.81055 0.05628 0.06841 0.0
H575 H 0.77315 0.0904 1.02182 0.0
O576 O 0.62826 0.0371 0.114 0.0
C577 C 0.68574 0.08779 0.06847 0.0
Co578 Co 0.62828 0.24476 0.08348 0.0
Co579 Co 0.56743 0.23366 1.03783 0.0
C580 C 0.63567 0.25473 1.01364 0.0
O581 O 0.6464 0.25479 1.04161 0.0
O582 O 0.6039 0.24761 1.00738 0.0
C583 C 0.67731 0.27263 0.1042 0.0
O584 O 0.65358 0.2866 0.09667 0.0
C585 C 0.4987 0.23405 0.99987 0.0
C586 C 0.48288 0.20229 1.00518 0.0
C587 C 0.47127 0.22028 0.99279 0.0
N588 N 0.52485 0.22451 1.01621 0.0
N589 N 0.51527 0.20549 1.0188 0.0
C590 C 0.49882 0.25606 0.99355 0.0
H591 H 0.51846 0.2638 1.00898 0.0
H592 H 0.47088 0.26233 0.99649 0.0
H593 H 0.50744 0.25863 0.96939 0.0
C594 C 0.56318 0.25917 0.12189 0.0
N595 N 0.57854 0.2524 0.09531 0.0
N596 N 0.55232 0.24807 0.07562 0.0
C597 C 0.51944 0.25186 0.08942 0.0
C598 C 0.5248 0.25922 0.11942 0.0
C599 C 0.58483 0.26476 0.1498 0.0
H600 H 0.59103 0.25101 0.16319 0.0
H601 H 0.61112 0.27176 0.14306 0.0
H602 H 0.56929 0.27525 0.16465 0.0
O603 O 0.63441 0.21482 0.08415 0.0
O604 O 0.59049 0.20765 1.05088 0.0
H605 H 0.48534 0.23076 0.06585 0.0
H606 H 0.46122 0.24582 0.09339 0.0
C607 C 0.48332 0.24594 0.0759 0.0
H608 H 0.47593 0.25664 0.05741 0.0
H609 H 0.53019 0.19472 1.03082 0.0
O610 O 0.66491 0.25561 0.11207 0.0
C611 C 0.61608 0.20203 0.06882 0.0
Co612 Co 0.65464 0.24194 0.27781 0.0
Co613 Co 0.71386 0.22798 0.32311 0.0
C614 C 0.64794 0.25116 0.34734 0.0
O615 O 0.63745 0.25233 0.3194 0.0
O616 O 0.67858 0.24267 0.35336 0.0
C617 C 0.60903 0.27144 0.25714 0.0
O618 O 0.63461 0.2843 0.26505 0.0
C619 C 0.78193 0.22873 0.36087 0.0
C620 C 0.79598 0.19656 0.36024 0.0
C621 C 0.80853 0.21503 0.37015 0.0
N622 N 0.75544 0.2187 0.34575 0.0
N623 N 0.76386 0.19946 0.34592 0.0
C624 C 0.7828 0.25102 0.36395 0.0
H625 H 0.76374 0.25808 0.34723 0.0
H626 H 0.81106 0.25674 0.36038 0.0
H627 H 0.77394 0.25516 0.3875 0.0
C628 C 0.72109 0.2545 0.23964 0.0
N629 N 0.70499 0.24788 0.26604 0.0
N630 N 0.73062 0.24209 0.2854 0.0
C631 C 0.76384 0.24474 0.27154 0.0
C632 C 0.75933 0.25292 0.24193 0.0
C633 C 0.70017 0.26143 0.21201 0.0
H634 H 0.67451 0.26895 0.21902 0.0
H635 H 0.7168 0.27187 0.19787 0.0
H636 H 0.69286 0.24824 0.19778 0.0
O637 O 0.64525 0.21234 0.27785 0.0
O638 O 0.68823 0.20254 0.31055 0.0
H639 H 0.82017 0.23515 0.26622 0.0
H640 H 0.80964 0.24766 0.30178 0.0
C641 C 0.79914 0.23698 0.28441 0.0
H642 H 0.79464 0.22228 0.29559 0.0
H643 H 0.74827 0.18833 0.33537 0.0
O644 O 0.61902 0.25395 0.24937 0.0
C645 C 0.66143 0.19849 0.29281 0.0
Co646 Co 0.63398 0.03798 0.27729 0.0
Co647 Co 0.56852 0.04752 0.31989 0.0
C648 C 0.63699 0.02732 0.3466 0.0
O649 O 0.65108 0.02799 0.3197 0.0
O650 O 0.60377 0.03313 0.35059 0.0
C651 C 0.70231 0.02467 0.24951 0.0
O652 O 0.72107 1.01608 0.22745 0.0
C653 C 0.50407 0.04629 0.36287 0.0
C654 C 0.46912 0.06924 0.34089 0.0
C655 C 0.46989 0.0555 0.36473 0.0
N656 N 0.52244 0.05422 0.33883 0.0
N657 N 0.5014 0.06805 0.32609 0.0
C658 C 0.51791 0.02926 0.38194 0.0
H659 H 0.53574 0.0194 0.36788 0.0
H660 H 0.49485 0.02047 0.39172 0.0
H661 H 0.53454 0.03532 0.40115 0.0
C662 C 0.5725 0.02564 0.23464 0.0
N663 N 0.58514 0.03097 0.26286 0.0
N664 N 0.55725 0.03328 0.28152 0.0
C665 C 0.52596 0.02837 0.26602 0.0
C666 C 0.53409 0.02336 0.23522 0.0
C667 C 0.59641 0.02576 0.20661 0.0
H668 H 0.61814 0.03726 0.20897 0.0
H669 H 0.60975 1.01092 0.20414 0.0
H670 H 0.58045 0.02912 0.18552 0.0
O671 O 0.63909 0.06735 0.27888 0.0
O672 O 0.59212 0.07465 0.30948 0.0
H673 H 0.4757 0.04296 0.2774 0.0
H674 H 0.47123 1.01653 0.26992 0.0
C675 C 0.48885 0.02813 0.28061 0.0
H676 H 0.49121 0.025 0.30556 0.0
H677 H 0.50875 0.07632 0.30666 0.0
O678 O 0.66814 0.02722 0.24624 0.0
C679 C 0.61981 0.08012 0.29341 0.0
Co680 Co 0.37471 0.98725 1.03311 0.0
Co681 Co 0.31205 0.98 0.07752 0.0
C682 C 0.37975 0.99936 0.10238 0.0
O683 O 0.3935 0.99613 0.07589 0.0
O684 O 0.34569 0.99588 0.10662 0.0
C685 C 0.42797 1.01288 1.01823 0.0
O686 O 0.40502 0.02641 1.02874 0.0
C687 C 0.24609 0.98535 0.11612 0.0
C688 C 0.22825 0.9539 0.12135 0.0
C689 C 0.22005 0.97329 0.13015 0.0
N690 N 0.26869 0.97355 0.09974 0.0
N691 N 0.25761 0.95481 0.10277 0.0
C692 C 0.25109 1.00741 0.12002 0.0
H693 H 0.2756 1.0127 0.10726 0.0
H694 H 0.22648 1.01537 0.11136 0.0
H695 H 0.25394 1.01097 0.14483 0.0
C696 C 0.3123 1.00293 0.99201 0.0
N697 N 0.32627 0.99636 1.01928 0.0
N698 N 0.29899 0.99276 1.03823 0.0
C699 C 0.26688 0.99674 1.02342 0.0
C700 C 0.27375 1.00351 0.99324 0.0
C701 C 0.33545 1.00828 0.96492 0.0
H702 H 0.36321 1.0129 0.97239 0.0
H703 H 0.32248 0.02061 0.95169 0.0
H704 H 0.33809 0.995 0.94977 0.0
O705 O 0.37672 0.95736 1.0327 0.0
O706 O 0.33633 0.95306 0.07017 0.0
H707 H 0.20865 0.99101 1.01862 0.0
H708 H 0.22243 1.00343 1.05365 0.0
C709 C 0.23008 0.99181 1.03664 0.0
H710 H 0.23123 0.97717 1.04862 0.0
H711 H 0.27058 0.94254 0.09268 0.0
O712 O 0.41446 0.99704 1.00676 0.0
C713 C 0.36004 0.94593 1.05154 0.0
Co714 Co 0.40992 0.78735 1.02204 0.0
Co715 Co 0.46804 0.79883 0.07006 0.0
C716 C 0.39893 0.77684 0.09099 0.0
O717 O 0.38899 0.77636 0.0628 0.0
O718 O 0.43001 0.78449 0.09789 0.0
C719 C 0.35855 0.76188 0.99791 0.0
O720 O 0.37849 0.74634 1.00594 0.0
C721 C 0.53218 0.79446 0.11185 0.0
C722 C 0.54522 0.82626 0.12057 0.0
C723 C 0.55564 0.80695 0.12805 0.0
N724 N 0.50895 0.80595 0.09542 0.0
N725 N 0.51716 0.82492 0.10066 0.0
C726 C 0.53013 0.77215 0.1137 0.0
H727 H 0.50885 0.7663 0.09783 0.0
H728 H 0.55717 0.76559 0.10784 0.0
H729 H 0.52355 0.76763 0.13765 0.0
C730 C 0.47646 0.77351 0.98585 0.0
N731 N 0.46 0.78006 1.01205 0.0
N732 N 0.4853 0.78497 1.03224 0.0
C733 C 0.51878 0.78166 1.01919 0.0
C734 C 0.51471 0.77417 0.98908 0.0
C735 C 0.45576 0.76738 0.95769 0.0
H736 H 0.44742 0.78099 0.94479 0.0
H737 H 0.43062 0.75913 0.96427 0.0
H738 H 0.47271 0.75778 0.94252 0.0
O739 O 0.40526 0.8173 1.02199 0.0
O740 O 0.44492 0.82529 0.0586 0.0
H741 H 0.57628 0.78943 1.0164 0.0
H742 H 0.56244 0.77632 1.05078 0.0
C743 C 0.55416 0.78783 1.03374 0.0
H744 H 0.55066 0.80228 1.04588 0.0
H745 H 0.50316 0.83703 0.09106 0.0
O746 O 0.37538 0.77779 0.99041 0.0
C747 C 0.42076 0.83038 1.0389 0.0
Co748 Co 0.37708 0.79858 0.84004 0.0
Co749 Co 0.30958 0.8045 0.79911 0.0
C750 C 0.37929 0.78692 0.77128 0.0
O751 O 0.39413 0.78903 0.79759 0.0
O752 O 0.34527 0.79109 0.76816 0.0
C753 C 0.42731 0.77173 0.85986 0.0
O754 O 0.40067 0.75873 0.85601 0.0
C755 C 0.25058 0.79991 0.75293 0.0
C756 C 0.20947 0.82152 0.76983 0.0
C757 C 0.21638 0.80804 0.74637 0.0
N758 N 0.26335 0.80834 0.7789 0.0
N759 N 0.23856 0.82122 0.78888 0.0
C760 C 0.27007 0.78369 0.73578 0.0
H761 H 0.28404 0.77353 0.75224 0.0
H762 H 0.25076 0.7749 0.72144 0.0
H763 H 0.29119 0.79052 0.72068 0.0
C764 C 0.31898 0.78301 0.8848 0.0
N765 N 0.33019 0.78892 0.85635 0.0
N766 N 0.30138 0.79053 0.83841 0.0
C767 C 0.27105 0.78504 0.85474 0.0
C768 C 0.28063 0.78016 0.88528 0.0
C769 C 0.34417 0.78255 0.91197 0.0
H770 H 0.36759 0.79288 0.90832 0.0
H771 H 0.35518 0.76718 0.91484 0.0
H772 H 0.32947 0.78686 0.9333 0.0
O773 O 0.3772 0.82823 0.8381 0.0
O774 O 0.3287 0.83274 0.808 0.0
H775 H 0.22001 0.79904 0.84404 0.0
H776 H 0.21651 0.77269 0.8528 0.0
C777 C 0.23343 0.78425 0.84117 0.0
H778 H 0.23498 0.78076 0.8163 0.0
H779 H 0.24167 0.82994 0.80859 0.0
O780 O 0.4186 0.78978 0.86534 0.0
C781 C 0.35558 0.83982 0.8235 0.0
Co782 Co 0.41754 0.99594 0.83639 0.0
Co783 Co 0.47936 0.98505 0.79149 0.0
C784 C 0.41081 1.00607 0.76717 0.0
O785 O 0.39773 1.0059 0.79449 0.0
O786 O 0.44334 0.99958 0.76242 0.0
C787 C 0.35118 1.00836 0.86834 0.0
O788 O 0.3339 1.01612 0.89192 0.0
C789 C 0.53736 0.98556 0.74391 0.0
C790 C 0.5714 0.96001 0.75915 0.0
C791 C 0.56878 0.97477 0.73688 0.0
N792 N 0.5222 0.97753 0.76928 0.0
N793 N 0.54256 0.96219 0.77809 0.0
C794 C 0.52287 1.00372 0.72785 0.0
H795 H 0.51001 1.01399 0.74474 0.0
H796 H 0.54501 1.01164 0.71524 0.0
H797 H 0.50153 0.99905 0.71116 0.0
C798 C 0.48324 1.01039 0.87458 0.0
N799 N 0.46786 1.00347 0.84806 0.0
N800 N 0.49417 0.99945 0.82844 0.0
C801 C 0.527 1.00387 0.84173 0.0
C802 C 0.52166 1.01095 0.87188 0.0
C803 C 0.46136 1.01619 0.90226 0.0
H804 H 0.43942 0.02677 0.89534 0.0
H805 H 0.47866 0.02331 0.92013 0.0
H806 H 0.448 1.00265 0.91197 0.0
O807 O 0.41166 0.96602 0.83607 0.0
O808 O 0.45677 0.95868 0.8038 0.0
H809 H 0.58638 1.0061 0.83941 0.0
H810 H 0.563 1.00443 0.80281 0.0
C811 C 0.56309 0.99921 0.82703 0.0
H812 H 0.56716 0.98277 0.82715 0.0
H813 H 0.53686 0.95327 0.79724 0.0
O814 O 0.38571 1.00641 0.86937 0.0
C815 C 0.4303 0.95319 0.82105 0.0
Co816 Co 0.65868 0.54926 0.58337 0.0
Co817 Co 0.72217 0.55826 0.54015 0.0
C818 C 0.65356 0.53924 0.5136 0.0
O819 O 0.64003 0.54085 0.54052 0.0
O820 O 0.68725 0.54392 0.50939 0.0
C821 C 0.60744 0.52287 0.59827 0.0
O822 O 0.63095 0.50911 0.58946 0.0
C823 C 0.79103 0.55488 0.50372 0.0
C824 C 0.81118 0.58597 0.5079 0.0
C825 C 0.82035 0.56734 0.49635 0.0
N826 N 0.76612 0.56574 0.51932 0.0
N827 N 0.77823 0.58434 0.52131 0.0
C828 C 0.78787 0.53283 0.49845 0.0
H829 H 0.76753 0.52617 0.51447 0.0
H830 H 0.81494 0.52549 0.5014 0.0
H831 H 0.77844 0.53019 0.47454 0.0
C832 C 0.721 0.53303 0.62404 0.0
N833 N 0.70728 0.54008 0.59693 0.0
N834 N 0.73475 0.54398 0.57829 0.0
C835 C 0.76671 0.53975 0.59319 0.0
C836 C 0.75951 0.53244 0.62297 0.0
C837 C 0.69774 0.52749 0.65103 0.0
H838 H 0.67074 0.52185 0.64331 0.0
H839 H 0.71148 0.51589 0.66519 0.0
H840 H 0.69323 0.54097 0.66543 0.0
O841 O 0.65554 0.5791 0.58486 0.0
O842 O 0.70035 0.58505 0.55174 0.0
H843 H 0.8249 0.54524 0.59914 0.0
H844 H 0.81167 0.53439 0.56282 0.0
C845 C 0.8037 0.54524 0.58089 0.0
H846 H 0.80273 0.56039 0.57056 0.0
H847 H 0.76458 0.59586 0.53273 0.0
O848 O 0.62028 0.53872 0.61016 0.0
C849 C 0.67502 0.59136 0.56946 0.0
Co850 Co 0.62906 0.7477 0.59236 0.0
Co851 Co 0.56318 0.74097 0.5501 0.0
C852 C 0.63252 0.75925 0.52311 0.0
O853 O 0.64709 0.75745 0.54969 0.0
O854 O 0.59869 0.75478 0.51963 0.0
C855 C 0.69671 0.76303 0.61767 0.0
O856 O 0.71529 0.77351 0.63779 0.0
C857 C 0.50504 0.74221 0.50299 0.0
C858 C 0.46428 0.72158 0.52335 0.0
C859 C 0.47099 0.73357 0.49797 0.0
N860 N 0.51788 0.73557 0.53011 0.0
N861 N 0.49341 0.72323 0.54211 0.0
C862 C 0.52441 0.75716 0.48313 0.0
H863 H 0.5369 0.76895 0.4977 0.0
H864 H 0.50539 0.7642 0.4664 0.0
H865 H 0.54674 0.74951 0.47042 0.0
C866 C 0.56852 0.76123 0.63563 0.0
N867 N 0.58076 0.75604 0.60719 0.0
N868 N 0.55267 0.75485 0.58851 0.0
C869 C 0.52176 0.7601 0.60424 0.0
C870 C 0.53029 0.76433 0.63519 0.0
C871 C 0.59244 0.76038 0.66361 0.0
H872 H 0.61352 0.74856 0.66092 0.0
H873 H 0.60662 0.77497 0.66645 0.0
H874 H 0.57626 0.75712 0.68463 0.0
O875 O 0.63159 0.7179 0.59118 0.0
O876 O 0.5837 0.71345 0.56032 0.0
H877 H 0.4703 0.7467 0.59319 0.0
H878 H 0.46801 0.77317 0.60075 0.0
C879 C 0.48461 0.7612 0.58986 0.0
H880 H 0.48698 0.76426 0.56487 0.0
H881 H 0.49673 0.71585 0.5631 0.0
O882 O 0.66348 0.75878 0.62294 0.0
C883 C 0.61021 0.70635 0.57623 0.0
Co884 Co 0.65363 0.74027 0.77371 0.0
Co885 Co 0.71686 0.72801 0.81588 0.0
C886 C 0.65001 0.75038 0.84239 0.0
O887 O 0.63845 0.75146 0.81485 0.0
O888 O 0.68094 0.74191 0.8474 0.0
C889 C 0.60568 0.76887 0.75468 0.0
O890 O 0.63265 0.78121 0.76115 0.0
C891 C 0.7764 0.73301 0.86048 0.0
C892 C 0.81112 0.70659 0.85133 0.0
C893 C 0.80825 0.72341 0.8698 0.0
N894 N 0.76112 0.72234 0.83766 0.0
N895 N 0.78197 0.70654 0.83233 0.0
C896 C 0.76149 0.75249 0.87189 0.0
H897 H 0.74727 0.76051 0.85297 0.0
H898 H 0.7837 0.76203 0.88133 0.0
H899 H 0.74125 0.74948 0.89038 0.0
C900 C 0.71589 0.75302 0.73126 0.0
N901 N 0.70248 0.74707 0.75897 0.0
N902 N 0.72998 0.74196 0.77684 0.0
C903 C 0.76183 0.74448 0.76067 0.0
C904 C 0.75438 0.75161 0.73072 0.0
C905 C 0.69214 0.75969 0.70523 0.0
H906 H 0.66448 0.76376 0.71331 0.0
H907 H 0.70478 0.7729 0.69404 0.0
H908 H 0.68935 0.74747 0.68819 0.0
O909 O 0.64727 0.71049 0.77626 0.0
O910 O 0.69425 0.70113 0.80542 0.0
H911 H 0.82091 0.74194 0.75662 0.0
H912 H 0.80328 0.74384 0.79544 0.0
C913 C 0.79829 0.73755 0.77222 0.0
H914 H 0.79797 0.721 0.7742 0.0
H915 H 0.77628 0.69571 0.81573 0.0
O916 O 0.61383 0.7509 0.7479 0.0
C917 C 0.66573 0.6968 0.78972 0.0
Co918 Co 0.6247 0.535 0.78067 0.0
Co919 Co 0.56538 0.55043 0.82494 0.0
C920 C 0.63156 0.52689 0.85005 0.0
O921 O 0.64421 0.5254 0.82271 0.0
O922 O 0.60019 0.53504 0.85437 0.0
C923 C 0.68839 0.51888 0.74922 0.0
O924 O 0.70431 0.50938 0.72646 0.0
C925 C 0.50045 0.54901 0.8657 0.0
C926 C 0.48431 0.58088 0.86598 0.0
C927 C 0.47432 0.56223 0.87727 0.0
N928 N 0.52439 0.55947 0.84843 0.0
N929 N 0.51465 0.57852 0.84888 0.0
C930 C 0.5016 0.52673 0.86899 0.0
H931 H 0.51791 0.52001 0.85008 0.0
H932 H 0.47344 0.52043 0.86898 0.0
H933 H 0.51496 0.52283 0.89112 0.0
C934 C 0.5572 0.52169 0.74437 0.0
N935 N 0.57345 0.52919 0.77012 0.0
N936 N 0.54793 0.53621 0.78844 0.0
C937 C 0.51474 0.53381 0.77452 0.0
C938 C 0.51898 0.52437 0.74577 0.0
C939 C 0.57809 0.512 0.7188 0.0
H940 H 0.59993 0.50232 0.72845 0.0
H941 H 0.56 0.50273 0.70409 0.0
H942 H 0.59125 0.52378 0.70453 0.0
O943 O 0.63434 0.56465 0.77945 0.0
O944 O 0.59143 0.57561 0.81144 0.0
H945 H 0.45927 0.54467 0.76838 0.0
H946 H 0.46865 0.53263 0.80476 0.0
C947 C 0.48001 0.54267 0.78677 0.0
H948 H 0.48567 0.55744 0.79729 0.0
H949 H 0.52842 0.58989 0.83712 0.0
O950 O 0.65438 0.52258 0.74783 0.0
C951 C 0.61848 0.57899 0.79355 0.0
Co952 Co 0.37506 0.48632 0.53003 0.0
Co953 Co 0.31379 0.48029 0.57724 0.0
C954 C 0.38362 0.49941 0.59918 0.0
O955 O 0.39469 0.49705 0.57148 0.0
O956 O 0.35052 0.49481 0.60583 0.0
C957 C 0.42413 0.51253 0.50483 0.0
O958 O 0.40057 0.52535 0.51644 0.0
C959 C 0.24954 0.48661 0.61797 0.0
C960 C 0.22292 0.45698 0.61451 0.0
C961 C 0.21912 0.47572 0.62776 0.0
N962 N 0.26999 0.47478 0.59971 0.0
N963 N 0.25398 0.45708 0.59795 0.0
C964 C 0.25802 0.50816 0.62388 0.0
H965 H 0.27603 0.51419 0.60548 0.0
H966 H 0.23239 0.51707 0.62524 0.0
H967 H 0.27272 0.50946 0.64612 0.0
C968 C 0.31205 0.50093 0.4898 0.0
N969 N 0.32684 0.49524 0.5172 0.0
N970 N 0.30043 0.49297 0.53749 0.0
C971 C 0.26795 0.49729 0.52346 0.0
C972 C 0.27384 0.50254 0.49243 0.0
C973 C 0.33399 0.50393 0.46107 0.0
H974 H 0.36097 0.51059 0.46656 0.0
H975 H 0.31938 0.51377 0.44453 0.0
H976 H 0.33879 0.48918 0.45008 0.0
O977 O 0.37623 0.45642 0.53225 0.0
O978 O 0.33568 0.45291 0.56984 0.0
H979 H 0.20844 0.49611 0.52217 0.0
H980 H 0.22844 0.50459 0.55793 0.0
C981 C 0.2315 0.49404 0.53844 0.0
H982 H 0.23015 0.47859 0.5477 0.0
H983 H 0.26397 0.44513 0.585 0.0
O984 O 0.4135 0.49461 0.50096 0.0
C985 C 0.35907 0.44538 0.55135 0.0
Co986 Co 0.40644 0.28645 0.52639 0.0
Co987 Co 0.46468 0.29832 0.57392 0.0
C988 C 0.39668 0.27681 0.59614 0.0
O989 O 0.3866 0.27675 0.568 0.0
O990 O 0.42823 0.28387 0.60299 0.0
C991 C 0.35782 0.25856 0.50413 0.0
O992 O 0.38101 0.24415 0.51085 0.0
C993 C 0.52918 0.2959 0.61552 0.0
C994 C 0.54863 0.3272 0.61332 0.0
C995 C 0.55671 0.30866 0.62601 0.0
N996 N 0.50635 0.3065 0.59741 0.0
N997 N 0.51806 0.32521 0.59643 0.0
C998 C 0.52576 0.27383 0.62059 0.0
H999 H 0.50852 0.26701 0.60236 0.0
H1000 H 0.55322 0.26669 0.62089 0.0
H1001 H 0.51236 0.2711 0.64311 0.0
C1002 C 0.47285 0.27275 0.48995 0.0
N1003 N 0.45635 0.27916 0.51621 0.0
N1004 N 0.48163 0.28414 0.53637 0.0
C1005 C 0.51512 0.28095 0.52331 0.0
C1006 C 0.51107 0.27353 0.49318 0.0
C1007 C 0.45233 0.26694 0.46154 0.0
H1008 H 0.44554 0.28066 0.44827 0.0
H1009 H 0.42638 0.25937 0.46769 0.0
H1010 H 0.46895 0.25687 0.44683 0.0
O1011 O 0.4016 0.31623 0.5246 0.0
O1012 O 0.44035 0.32438 0.56183 0.0
H1013 H 0.57341 0.28724 0.52119 0.0
H1014 H 0.55694 0.27708 0.55716 0.0
C1015 C 0.55041 0.28733 0.53784 0.0
H1016 H 0.5475 0.30267 0.54718 0.0
H1017 H 0.50556 0.33658 0.58374 0.0
O1018 O 0.37088 0.27553 0.49678 0.0
C1019 C 0.41667 0.32937 0.54164 0.0
Co1020 Co 0.38055 0.29455 0.33422 0.0
Co1021 Co 0.32174 0.30798 0.28818 0.0
C1022 C 0.38874 0.28482 0.26504 0.0
O1023 O 0.39873 0.28371 0.29311 0.0
O1024 O 0.35826 0.29339 0.25864 0.0
C1025 C 0.42628 0.26551 0.35634 0.0
O1026 O 0.40102 0.25234 0.34896 0.0
C1027 C 0.25838 0.30645 0.24495 0.0
C1028 C 0.24386 0.33855 0.24306 0.0
C1029 C 0.23475 0.32003 0.23104 0.0
N1030 N 0.28049 0.31658 0.26429 0.0
N1031 N 0.27128 0.33571 0.26321 0.0
C1032 C 0.26166 0.28458 0.23837 0.0
H1033 H 0.28572 0.2781 0.2504 0.0
H1034 H 0.23645 0.27682 0.24623 0.0
H1035 H 0.26412 0.28219 0.2132 0.0
C1036 C 0.31355 0.28199 0.37186 0.0
N1037 N 0.33008 0.28844 0.34556 0.0
N1038 N 0.30474 0.29382 0.32567 0.0
C1039 C 0.27127 0.29097 0.33894 0.0
C1040 C 0.27527 0.28324 0.36898 0.0
C1041 C 0.33405 0.27543 0.39992 0.0
H1042 H 0.36047 0.2685 0.39353 0.0
H1043 H 0.31772 0.26457 0.41358 0.0
H1044 H 0.33986 0.2887 0.41444 0.0
O1045 O 0.38928 0.32423 0.33372 0.0
O1046 O 0.34616 0.33387 0.301 0.0
H1047 H 0.21351 0.29852 0.34144 0.0
H1048 H 0.22876 0.28759 0.30562 0.0
C1049 C 0.23624 0.29792 0.32455 0.0
H1050 H 0.24009 0.31306 0.31462 0.0
H1051 H 0.28431 0.34697 0.27571 0.0
O1052 O 0.41585 0.28304 0.36346 0.0
C1053 C 0.37283 0.33805 0.31885 0.0
Co1054 Co 0.39659 0.49905 0.34129 0.0
Co1055 Co 0.4608 0.49024 0.29754 0.0
C1056 C 0.39127 0.51048 0.27227 0.0
O1057 O 0.37942 0.51051 0.29996 0.0
O1058 O 0.42343 0.50356 0.26691 0.0
C1059 C 0.34336 0.52426 0.36597 0.0
O1060 O 0.36503 0.53977 0.36202 0.0
C1061 C 0.52036 0.49234 0.25074 0.0
C1062 C 0.55987 0.4708 0.2705 0.0
C1063 C 0.55459 0.4837 0.24594 0.0
N1064 N 0.50619 0.48483 0.27693 0.0
N1065 N 0.52996 0.47192 0.28849 0.0
C1066 C 0.50222 0.50824 0.23187 0.0
H1067 H 0.48708 0.5187 0.24707 0.0
H1068 H 0.5226 0.51671 0.21806 0.0
H1069 H 0.48218 0.50113 0.21611 0.0
C1070 C 0.45811 0.51222 0.38366 0.0
N1071 N 0.44498 0.50664 0.35572 0.0
N1072 N 0.47246 0.50446 0.33654 0.0
C1073 C 0.50401 0.50957 0.35157 0.0
C1074 C 0.49655 0.51464 0.38253 0.0
C1075 C 0.4345 0.51254 0.41185 0.0
H1076 H 0.41127 0.50197 0.40927 0.0
H1077 H 0.4231 0.52781 0.41497 0.0
H1078 H 0.45038 0.50833 0.43263 0.0
O1079 O 0.39271 0.46946 0.33749 0.0
O1080 O 0.44007 0.46251 0.30735 0.0
H1081 H 0.55451 0.49542 0.33968 0.0
H1082 H 0.55818 0.52196 0.34649 0.0
C1083 C 0.54074 0.51007 0.33635 0.0
H1084 H 0.53771 0.51294 0.31137 0.0
H1085 H 0.52581 0.46395 0.30886 0.0
O1086 O 0.35813 0.50731 0.3707 0.0
C1087 C 0.4123 0.45681 0.32302 0.0
H1088 H 0.16125 0.11466 0.52831 0.0
H1089 H 0.18115 0.11173 0.62579 0.0
H1090 H 0.16557 0.1473 0.63093 0.0
H1091 H 0.14448 0.17929 0.60776 0.0
H1092 H 0.11814 0.1809 0.51112 0.0
H1093 H 0.13768 0.14612 0.50562 0.0
C1094 C 0.16252 0.12192 0.55058 0.0
C1095 C 0.17293 0.11069 0.57656 0.0
C1096 C 0.15199 0.1422 0.55355 0.0
C1097 C 0.17355 0.12013 0.60542 0.0
C1098 C 0.16453 0.14046 0.60837 0.0
C1099 C 0.14309 0.17201 0.58551 0.0
C1100 C 0.1299 0.18281 0.55989 0.0
C1101 C 0.15342 0.15167 0.58263 0.0
C1102 C 0.12794 0.17301 0.5313 0.0
C1103 C 0.13927 0.15308 0.52807 0.0
H1104 H 0.08636 0.114 0.78874 0.0
H1105 H 0.19844 0.09372 0.78575 0.0
H1106 H 0.22003 0.1284 0.78746 0.0
H1107 H 0.20714 0.16476 0.79108 0.0
H1108 H 0.0951 0.18511 0.78865 0.0
H1109 H 0.0735 0.15041 0.7877 0.0
C1110 C 0.1155 0.1172 0.78833 0.0
C1111 C 0.14073 0.10123 0.78732 0.0
C1112 C 0.12776 0.13729 0.7884 0.0
C1113 C 0.1784 0.10568 0.78641 0.0
C1114 C 0.19079 0.12554 0.78752 0.0
C1115 C 0.17802 0.16156 0.79022 0.0
C1116 C 0.15277 0.17754 0.79015 0.0
C1117 C 0.16576 0.1415 0.78871 0.0
C1118 C 0.11512 0.17313 0.78864 0.0
C1119 C 0.10273 0.15326 0.7882 0.0
H1120 H 0.96084 0.86415 0.53681 0.0
H1121 H 0.84983 0.84198 0.53708 0.0
H1122 H 0.82634 0.87618 0.53773 0.0
H1123 H 0.83693 0.91271 0.53889 0.0
H1124 H 0.94763 0.93508 0.53414 0.0
H1125 H 0.97134 0.90085 0.53442 0.0
C1126 C 0.93154 0.86683 0.53697 0.0
C1127 C 0.90723 0.85041 0.53704 0.0
C1128 C 0.918 0.88671 0.53649 0.0
C1129 C 0.86927 0.85424 0.53689 0.0
C1130 C 0.85573 0.87386 0.53735 0.0
C1131 C 0.86623 0.91009 0.53782 0.0
C1132 C 0.89038 0.92654 0.53662 0.0
C1133 C 0.87977 0.89025 0.53724 0.0
C1134 C 0.9283 0.92277 0.53493 0.0
C1135 C 0.94196 0.90314 0.53521 0.0
H1136 H 0.89969 0.92921 0.28705 0.0
H1137 H 0.90596 0.93467 0.38558 0.0
H1138 H 0.88982 0.89918 0.39136 0.0
H1139 H 0.87485 0.86615 0.36806 0.0
H1140 H 0.86179 0.86209 0.26976 0.0
H1141 H 0.87937 0.89725 0.26417 0.0
C1142 C 0.89743 0.92261 0.30978 0.0
C1143 C 0.9044 0.93451 0.33585 0.0
C1144 C 0.88686 0.90236 0.31293 0.0
C1145 C 0.90077 0.92584 0.36517 0.0
C1146 C 0.89162 0.90552 0.36846 0.0
C1147 C 0.87574 0.87303 0.34547 0.0
C1148 C 0.86726 0.86143 0.31932 0.0
C1149 C 0.88475 0.89356 0.34249 0.0
C1150 C 0.86807 0.87065 0.29024 0.0
C1151 C 0.87826 0.89077 0.28701 0.0
H1152 H 0.12243 0.67511 0.11303 0.0
H1153 H 0.09904 0.68021 1.01618 0.0
H1154 H 0.11601 0.6451 1.00867 0.0
H1155 H 0.13958 0.61299 1.02939 0.0
H1156 H 0.15651 0.60682 0.12696 0.0
H1157 H 0.14013 0.64209 0.13452 0.0
C1158 C 0.12078 0.66846 0.09034 0.0
C1159 C 0.10965 0.68035 0.06516 0.0
C1160 C 0.12968 0.64804 0.08631 0.0
C1161 C 0.10732 0.67143 1.03596 0.0
C1162 C 0.11723 0.65135 1.03162 0.0
C1163 C 0.13956 0.61941 1.05228 0.0
C1164 C 0.14965 0.6074 0.07757 0.0
C1165 C 0.12881 0.63954 1.05656 0.0
C1166 C 0.14892 0.61578 0.10717 0.0
C1167 C 0.1396 0.63595 0.11147 0.0
H1168 H 0.18425 0.59681 0.29523 0.0
H1169 H 0.06975 0.60556 0.27521 0.0
H1170 H 0.07923 0.64173 0.2716 0.0
H1171 H 0.11928 0.67121 0.27664 0.0
H1172 H 0.23261 0.66308 0.30169 0.0
H1173 H 0.22453 0.62668 0.30091 0.0
C1174 C 0.1616 0.60667 0.28964 0.0
C1175 C 0.12641 0.59848 0.28505 0.0
C1176 C 0.16699 0.62768 0.28881 0.0
C1177 C 0.0971 0.61148 0.27859 0.0
C1178 C 0.10249 0.63219 0.27662 0.0
C1179 C 0.14231 0.66149 0.2817 0.0
C1180 C 0.17657 0.66998 0.28908 0.0
C1181 C 0.13719 0.64052 0.28206 0.0
C1182 C 0.20591 0.65704 0.29601 0.0
C1183 C 0.20131 0.63617 0.29551 0.0
H1184 H 0.87919 0.41917 1.00617 0.0
H1185 H 0.85231 0.42215 0.10258 0.0
H1186 H 0.86976 0.38702 0.10905 0.0
H1187 H 0.89411 0.35538 0.0875 0.0
H1188 H 0.91456 0.35131 0.99017 0.0
H1189 H 0.89841 0.38672 0.98379 0.0
C1190 C 0.87696 0.41207 1.02854 0.0
C1191 C 0.86459 0.42336 1.05389 0.0
C1192 C 0.88615 0.39163 1.03194 0.0
C1193 C 0.86151 0.41384 0.08266 0.0
C1194 C 0.8717 0.39375 0.08641 0.0
C1195 C 0.89502 0.36231 0.06494 0.0
C1196 C 0.90598 0.35084 1.03938 0.0
C1197 C 0.88433 0.38251 0.06128 0.0
C1198 C 0.90636 0.35986 1.01017 0.0
C1199 C 0.89713 0.38011 1.00654 0.0
H1200 H 0.95151 0.41917 0.82378 0.0
H1201 H 0.84009 0.44038 0.82821 0.0
H1202 H 0.8175 0.40588 0.82676 0.0
H1203 H 0.82928 0.36942 0.82267 0.0
H1204 H 0.94071 0.34808 0.8239 0.0
H1205 H 0.96333 0.38259 0.82483 0.0
C1206 C 0.9223 0.4162 0.82462 0.0
C1207 C 0.89754 0.43239 0.8259 0.0
C1208 C 0.90947 0.39621 0.82473 0.0
C1209 C 0.85978 0.42825 0.82733 0.0
C1210 C 0.84681 0.40849 0.82637 0.0
C1211 C 0.8585 0.37236 0.82332 0.0
C1212 C 0.88326 0.35615 0.823 0.0
C1213 C 0.87135 0.39232 0.82484 0.0
C1214 C 0.92104 0.36023 0.82422 0.0
C1215 C 0.93402 0.38 0.82464 0.0
H1216 H 0.62013 0.10711 0.07508 0.0
H1217 H 0.73601 0.11799 0.06558 0.0
H1218 H 0.72536 0.15416 0.06737 0.0
H1219 H 0.68267 0.18304 0.06984 0.0
H1220 H 0.56643 0.17195 0.07353 0.0
H1221 H 0.57747 0.13584 0.07596 0.0
C1222 C 0.64305 0.11741 0.07364 0.0
C1223 C 0.67887 0.10979 0.07045 0.0
C1224 C 0.63659 0.13828 0.07359 0.0
C1225 C 0.70818 0.1234 0.06806 0.0
C1226 C 0.7021 0.14413 0.06911 0.0
C1227 C 0.65985 0.17269 0.07148 0.0
C1228 C 0.62376 0.1802 0.07182 0.0
C1229 C 0.66639 0.1518 0.07165 0.0
C1230 C 0.59444 0.16657 0.0733 0.0
C1231 C 0.60075 0.1459 0.07468 0.0
H1232 H 0.70087 0.16399 0.29866 0.0
H1233 H 0.59123 0.18567 0.28286 0.0
H1234 H 0.56797 0.15124 0.28297 0.0
H1235 H 0.57877 0.11457 0.28825 0.0
H1236 H 0.68953 0.09324 0.29898 0.0
H1237 H 0.71221 0.12764 0.30028 0.0
C1238 C 0.6719 0.16117 0.29513 0.0
C1239 C 0.64785 0.17744 0.29089 0.0
C1240 C 0.65883 0.14128 0.29445 0.0
C1241 C 0.61042 0.17346 0.28602 0.0
C1242 C 0.59705 0.15375 0.28623 0.0
C1243 C 0.60782 0.11753 0.2909 0.0
C1244 C 0.63238 0.10134 0.29374 0.0
C1245 C 0.62095 0.13748 0.29057 0.0
C1246 C 0.67004 0.1054 0.2967 0.0
C1247 C 0.68306 0.12509 0.29749 0.0
H1248 H 0.40514 0.85667 0.08482 0.0
H1249 H 0.4117 0.85207 0.98621 0.0
H1250 H 0.39485 0.88749 0.98106 0.0
H1251 H 0.37814 0.92006 1.00486 0.0
H1252 H 0.3647 0.92322 0.10322 0.0
H1253 H 0.38401 0.88832 0.10826 0.0
C1254 C 0.40295 0.86347 0.06223 0.0
C1255 C 0.41011 0.85183 1.03594 0.0
C1256 C 0.39182 0.88366 0.05943 0.0
C1257 C 0.40644 0.86073 1.00679 0.0
C1258 C 0.39682 0.881 1.00386 0.0
C1259 C 0.37939 0.91306 1.02736 0.0
C1260 C 0.37016 0.92433 1.05366 0.0
C1261 C 0.38942 0.89266 1.03002 0.0
C1262 C 0.37149 0.91493 0.0826 0.0
C1263 C 0.38268 0.89495 0.08552 0.0
H1264 H 0.42165 0.85849 0.82743 0.0
H1265 H 0.30606 0.87067 0.81948 0.0
H1266 H 0.31847 0.90679 0.82015 0.0
H1267 H 0.36271 0.93515 0.82214 0.0
H1268 H 0.47847 0.92234 0.82456 0.0
H1269 H 0.46559 0.88644 0.82707 0.0
C1270 C 0.39912 0.86904 0.826 0.0
C1271 C 0.3629 0.86182 0.82371 0.0
C1272 C 0.40659 0.88977 0.82542 0.0
C1273 C 0.33416 0.87577 0.82128 0.0
C1274 C 0.34127 0.89645 0.82172 0.0
C1275 C 0.38504 0.92446 0.82345 0.0
C1276 C 0.42155 0.93144 0.82351 0.0
C1277 C 0.37741 0.90367 0.82372 0.0
C1278 C 0.45018 0.91739 0.82457 0.0
C1279 C 0.44282 0.89683 0.826 0.0
H1280 H 0.6097 0.6112 0.57478 0.0
H1281 H 0.72631 0.62093 0.56967 0.0
H1282 H 0.71695 0.65714 0.57334 0.0
H1283 H 0.67545 0.68633 0.57678 0.0
H1284 H 0.55864 0.67681 0.57613 0.0
H1285 H 0.56806 0.6405 0.57598 0.0
C1286 C 0.63302 0.62127 0.57466 0.0
C1287 C 0.6687 0.61334 0.57221 0.0
C1288 C 0.62734 0.6422 0.57568 0.0
C1289 C 0.6986 0.62662 0.57153 0.0
C1290 C 0.69325 0.64735 0.57366 0.0
C1291 C 0.65209 0.67628 0.57682 0.0
C1292 C 0.61636 0.68429 0.57678 0.0
C1293 C 0.65775 0.65536 0.5756 0.0
C1294 C 0.58639 0.67105 0.57621 0.0
C1295 C 0.59178 0.65027 0.57615 0.0
H1296 H 0.70502 0.66163 0.78808 0.0
H1297 H 0.59471 0.68472 0.79003 0.0
H1298 H 0.5703 0.65067 0.79176 0.0
H1299 H 0.58003 0.61409 0.79391 0.0
H1300 H 0.68975 0.59069 0.78686 0.0
H1301 H 0.71449 0.62479 0.78575 0.0
C1302 C 0.67566 0.65917 0.78878 0.0
C1303 C 0.65177 0.67578 0.78911 0.0
C1304 C 0.66162 0.63939 0.78883 0.0
C1305 C 0.61375 0.67228 0.78964 0.0
C1306 C 0.59972 0.65276 0.79073 0.0
C1307 C 0.60934 0.61647 0.79197 0.0
C1308 C 0.63298 0.59981 0.79062 0.0
C1309 C 0.62335 0.63618 0.7905 0.0
C1310 C 0.67089 0.6032 0.78777 0.0
C1311 C 0.68509 0.62273 0.78728 0.0
H1312 H 0.37604 0.41886 0.50531 0.0
H1313 H 0.36313 0.42325 0.60361 0.0
H1314 H 0.38138 0.38824 0.60952 0.0
H1315 H 0.4016 0.3562 0.58689 0.0
H1316 H 0.40777 0.35046 0.48839 0.0
H1317 H 0.39171 0.38591 0.48233 0.0
C1318 C 0.37716 0.4121 0.52798 0.0
C1319 C 0.36842 0.42372 0.554 0.0
C1320 C 0.3866 0.39166 0.53116 0.0
C1321 C 0.36955 0.41465 0.5832 0.0
C1322 C 0.38014 0.39463 0.58662 0.0
C1323 C 0.39947 0.36276 0.56412 0.0
C1324 C 0.40629 0.35079 0.53813 0.0
C1325 C 0.38885 0.38297 0.56081 0.0
C1326 C 0.40274 0.35938 0.50875 0.0
C1327 C 0.39359 0.37966 0.50529 0.0
H1328 H 0.33254 0.37248 0.31503 0.0
H1329 H 0.44295 0.35117 0.32789 0.0
H1330 H 0.46554 0.3857 0.3291 0.0
H1331 H 0.45398 0.4224 0.32594 0.0
H1332 H 0.34258 0.44332 0.31841 0.0
H1333 H 0.32051 0.40884 0.31565 0.0
C1334 C 0.36153 0.3754 0.31818 0.0
C1335 C 0.38599 0.35918 0.32119 0.0
C1336 C 0.37425 0.39537 0.31974 0.0
C1337 C 0.42344 0.36331 0.32562 0.0
C1338 C 0.43643 0.3831 0.3262 0.0
C1339 C 0.42491 0.41936 0.32371 0.0
C1340 C 0.40002 0.43549 0.3222 0.0
C1341 C 0.41214 0.39931 0.32318 0.0
C1342 C 0.36236 0.43125 0.31972 0.0
C1343 C 0.34967 0.41149 0.31807 0.0
H1344 H 0.32133 0.05292 0.43869 0.0
H1345 H 0.39634 0.05658 0.51498 0.0
H1346 H 0.44843 0.0532 0.48002 0.0
H1347 H 0.47291 0.05248 0.42718 0.0
H1348 H 0.39795 0.05166 0.35068 0.0
H1349 H 0.34582 0.05041 0.38598 0.0
C1350 C 0.34906 0.05249 0.44764 0.0
C1351 C 0.35501 0.05482 0.47935 0.0
C1352 C 0.37898 0.05121 0.42725 0.0
C1353 C 0.39112 0.05478 0.49062 0.0
C1354 C 0.42092 0.05288 0.47064 0.0
C1355 C 0.44518 0.05156 0.41834 0.0
C1356 C 0.43923 0.05199 0.38643 0.0
C1357 C 0.41525 0.05154 0.43882 0.0
C1358 C 0.40314 0.05131 0.3752 0.0
C1359 C 0.37332 0.05064 0.39537 0.0
H1360 H 0.82832 0.24248 0.41462 0.0
H1361 H 0.87024 0.1942 0.35882 0.0
H1362 H 0.92823 0.19538 0.38616 0.0
H1363 H 0.96492 0.20769 0.42888 0.0
H1364 H 0.92458 0.25569 0.48553 0.0
H1365 H 0.8686 0.25755 0.45435 0.0
C1366 C 0.85044 0.23261 0.40789 0.0
C1367 C 0.84478 0.21821 0.38473 0.0
C1368 C 0.88402 0.2333 0.4239 0.0
C1369 C 0.87364 0.20526 0.37679 0.0
C1370 C 0.90691 0.20594 0.39235 0.0
C1371 C 0.9441 0.2188 0.43403 0.0
C1372 C 0.94875 0.23155 0.4593 0.0
C1373 C 0.91204 0.21951 0.41641 0.0
C1374 C 0.92179 0.24593 0.46583 0.0
C1375 C 0.88962 0.24681 0.44822 0.0
H1376 H 0.45342 0.24364 0.94267 0.0
H1377 H 0.40813 0.20242 1.00918 0.0
H1378 H 0.35077 0.20131 0.98086 0.0
H1379 H 0.31603 0.20882 0.93439 0.0
H1380 H 0.35969 0.24976 0.86715 0.0
H1381 H 0.41474 0.25461 0.89874 0.0
C1382 C 0.43065 0.2349 0.95139 0.0
C1383 C 0.43517 0.22301 0.97787 0.0
C1384 C 0.39753 0.23415 0.93472 0.0
C1385 C 0.40552 0.21151 0.98862 0.0
C1386 C 0.37266 0.21085 0.97247 0.0
C1387 C 0.33737 0.21908 0.92699 0.0
C1388 C 0.33403 0.22893 0.89867 0.0
C1389 C 0.3688 0.22158 0.94503 0.0
C1390 C 0.3616 0.24224 0.88917 0.0
C1391 C 0.39318 0.24484 0.90708 0.0
H1392 H 0.96489 0.03756 0.91143 0.0
H1393 H 0.91453 0.07887 0.84769 0.0
H1394 H 0.85956 0.07993 0.87917 0.0
H1395 H 0.82859 0.07243 0.92753 0.0
H1396 H 0.87693 0.03113 0.99186 0.0
H1397 H 0.92947 0.02635 0.95724 0.0
C1398 C 0.94151 0.04629 0.90397 0.0
C1399 C 0.94402 0.05823 0.87729 0.0
C1400 C 0.9097 0.04698 0.92244 0.0
C1401 C 0.91356 0.06973 0.8683 0.0
C1402 C 0.88203 0.07037 0.88628 0.0
C1403 C 0.85034 0.06208 0.93363 0.0
C1404 C 0.84914 0.05218 0.96206 0.0
C1405 C 0.88027 0.05958 0.91383 0.0
C1406 C 0.87725 0.03876 0.96986 0.0
C1407 C 0.90738 0.03618 0.95019 0.0
H1408 H 0.64245 0.97418 0.73938 0.0
H1409 H 0.55205 0.98016 0.67628 0.0
H1410 H 0.59462 0.98007 0.63272 0.0
H1411 H 0.65749 0.97597 0.61262 0.0
H1412 H 0.74783 0.97115 0.67603 0.0
H1413 H 0.70551 0.97316 0.71954 0.0
C1414 C 0.63222 0.9757 0.71606 0.0
C1415 C 0.59435 0.97723 0.7109 0.0
C1416 C 0.65682 0.97573 0.69129 0.0
C1417 C 0.58121 0.97926 0.68073 0.0
C1418 C 0.60549 0.97903 0.65586 0.0
C1419 C 0.66777 0.97556 0.63602 0.0
C1420 C 0.70555 0.97346 0.64128 0.0
C1421 C 0.64331 0.97693 0.66086 0.0
C1422 C 0.71883 0.973 0.67155 0.0
C1423 C 0.69465 0.97404 0.69638 0.0
H1424 H 0.14242 0.80502 0.74523 0.0
H1425 H 0.23743 0.80504 0.68628 0.0
H1426 H 0.19812 0.80278 0.64096 0.0
H1427 H 0.1365 0.80276 0.6179 0.0
H1428 H 0.04142 0.80294 0.67676 0.0
H1429 H 0.08078 0.80301 0.72221 0.0
C1430 C 0.15444 0.80431 0.72244 0.0
C1431 C 0.19275 0.8049 0.71912 0.0
C1432 C 0.13162 0.80309 0.69646 0.0
C1433 C 0.20806 0.80409 0.68951 0.0
C1434 C 0.18557 0.803 0.66355 0.0
C1435 C 0.12448 0.8026 0.64072 0.0
C1436 C 0.08614 0.80257 0.64398 0.0
C1437 C 0.14731 0.80273 0.66674 0.0
C1438 C 0.07083 0.80246 0.67362 0.0
C1439 C 0.09335 0.80271 0.69963 0.0
H1440 H 0.55926 0.81888 0.18667 0.0
H1441 H 0.6173 0.78449 0.11871 0.0
H1442 H 0.67032 0.78175 0.15333 0.0
H1443 H 0.70227 0.79281 0.20068 0.0
H1444 H 0.64205 0.82652 0.26867 0.0
H1445 H 0.58786 0.82589 0.23629 0.0
C1446 C 0.5833 0.81044 0.17977 0.0
C1447 C 0.5846 0.80188 0.15039 0.0
C1448 C 0.61342 0.80903 0.19966 0.0
C1449 C 0.6157 0.79099 0.14148 0.0
C1450 C 0.64607 0.78959 0.16115 0.0
C1451 C 0.67707 0.79946 0.2089 0.0
C1452 C 0.6765 0.80977 0.23716 0.0
C1453 C 0.64559 0.79902 0.19005 0.0
C1454 C 0.64356 0.81869 0.24691 0.0
C1455 C 0.61242 0.81833 0.22843 0.0
H1456 H 0.20984 0.95695 0.18554 0.0
H1457 H 0.16543 1.00113 0.12372 0.0
H1458 H 0.11235 1.00568 0.15776 0.0
H1459 H 0.0756 0.9939 0.20225 0.0
H1460 H 0.1218 0.94967 0.26355 0.0
H1461 H 0.17713 0.94829 0.23256 0.0
C1462 C 0.18876 0.96781 0.17984 0.0
C1463 C 0.19126 0.97868 0.15235 0.0
C1464 C 0.15852 0.97016 0.19926 0.0
C1465 C 0.1641 0.99278 0.14506 0.0
C1466 C 0.13366 0.99523 0.16436 0.0
C1467 C 0.09815 0.98443 0.20931 0.0
C1468 C 0.09443 0.97185 0.23514 0.0
C1469 C 0.13013 0.98361 0.1912 0.0
C1470 C 0.12375 0.95933 0.24357 0.0
C1471 C 0.15548 0.95852 0.2259 0.0
H1472 H 0.35454 0.54467 0.97921 0.0
H1473 H 0.30366 0.59471 0.93319 0.0
H1474 H 0.352 0.59479 0.89449 0.0
H1475 H 0.4109 0.58262 0.87616 0.0
H1476 H 0.46501 0.53417 0.92358 0.0
H1477 H 0.41304 0.53115 0.95874 0.0
C1478 C 0.35372 0.55525 0.96029 0.0
C1479 C 0.32557 0.56962 0.9589 0.0
C1480 C 0.38226 0.55555 0.93843 0.0
C1481 C 0.32516 0.58356 0.93471 0.0
C1482 C 0.35278 0.58363 0.9126 0.0
C1483 C 0.41127 0.57126 0.89403 0.0
C1484 C 0.44174 0.55853 0.89694 0.0
C1485 C 0.38186 0.57002 0.91465 0.0
C1486 C 0.44165 0.54386 0.92019 0.0
C1487 C 0.41204 0.54229 0.94061 0.0
H1488 H 0.88234 0.72224 0.86944 0.0
H1489 H 0.7898 0.73546 0.92761 0.0
H1490 H 0.83077 0.74114 0.97116 0.0
H1491 H 0.89267 0.7401 0.99354 0.0
H1492 H 0.98538 0.72716 0.93548 0.0
H1493 H 0.94482 0.72382 0.89099 0.0
C1494 C 0.8713 0.72657 0.89162 0.0
C1495 C 0.83322 0.7286 0.89531 0.0
C1496 C 0.89505 0.72985 0.91653 0.0
C1497 C 0.81908 0.7342 0.92407 0.0
C1498 C 0.84247 0.73728 0.94904 0.0
C1499 C 0.90393 0.73683 0.97101 0.0
C1500 C 0.94189 0.7341 0.96764 0.0
C1501 C 0.88044 0.73488 0.94564 0.0
C1502 C 0.95631 0.72977 0.93846 0.0
C1503 C 0.93309 0.72765 0.91311 0.0
H1504 H 0.38929 0.72672 0.37114 0.0
H1505 H 0.2955 0.7344 0.43025 0.0
H1506 H 0.3358 0.73905 0.47455 0.0
H1507 H 0.39768 0.73828 0.49703 0.0
H1508 H 0.49148 0.73079 0.43791 0.0
H1509 H 0.45138 0.72887 0.39296 0.0
C1510 C 0.37781 0.72966 0.39371 0.0
C1511 C 0.33964 0.73037 0.39751 0.0
C1512 C 0.40114 0.73228 0.41901 0.0
C1513 C 0.32487 0.73418 0.42673 0.0
C1514 C 0.34788 0.73665 0.45209 0.0
C1515 C 0.40923 0.7365 0.4742 0.0
C1516 C 0.44733 0.73483 0.47061 0.0
C1517 C 0.38602 0.73538 0.44857 0.0
C1518 C 0.46221 0.73249 0.44107 0.0
C1519 C 0.43929 0.73121 0.41544 0.0
H1520 H 0.83418 0.54236 0.44746 0.0
H1521 H 0.88604 0.58279 0.51143 0.0
H1522 H 0.94314 0.58073 0.48279 0.0
H1523 H 0.97598 0.57088 0.43643 0.0
H1524 H 0.92545 0.53087 0.3715 0.0
H1525 H 0.87052 0.52884 0.40396 0.0
C1526 C 0.85826 0.55022 0.4556 0.0
C1527 C 0.8558 0.56282 0.48142 0.0
C1528 C 0.89117 0.54914 0.43873 0.0
C1529 C 0.88712 0.57319 0.49138 0.0
C1530 C 0.91982 0.57202 0.47506 0.0
C1531 C 0.95316 0.5614 0.42976 0.0
C1532 C 0.95453 0.55105 0.40181 0.0
C1533 C 0.92178 0.56059 0.4482 0.0
C1534 C 0.92506 0.53875 0.39324 0.0
C1535 C 0.89355 0.53777 0.41162 0.0
H1536 H 0.6451 0.48332 0.1224 0.0
H1537 H 0.73494 0.48369 0.18676 0.0
H1538 H 0.69186 0.4865 0.2296 0.0
H1539 H 0.6284 0.48621 0.24893 0.0
H1540 H 0.53853 0.48579 0.1846 0.0
H1541 H 0.5817 0.48582 0.14159 0.0
C1542 C 0.65518 0.48428 0.14582 0.0
C1543 C 0.69312 0.48348 0.15142 0.0
C1544 C 0.63022 0.48581 0.17031 0.0
C1545 C 0.70592 0.4847 0.18181 0.0
C1546 C 0.68127 0.4861 0.20633 0.0
C1547 C 0.61835 0.48639 0.22545 0.0
C1548 C 0.58037 0.48617 0.21992 0.0
C1549 C 0.64335 0.48632 0.20088 0.0
C1550 C 0.5676 0.48637 0.18946 0.0
C1551 C 0.5923 0.48619 0.16486 0.0
H1552 H 0.12261 0.32796 0.12273 0.0
H1553 H 0.06589 0.28265 0.17509 0.0
H1554 H 0.11813 0.28003 0.21011 0.0
H1555 H 0.17765 0.29343 0.22904 0.0
H1556 H 0.23102 0.34048 0.17787 0.0
H1557 H 0.18252 0.33967 0.13932 0.0
C1558 C 0.12173 0.31735 0.14164 0.0
C1559 C 0.09038 0.30545 0.14607 0.0
C1560 C 0.15132 0.31637 0.16211 0.0
C1561 C 0.08986 0.29171 0.17062 0.0
C1562 C 0.11965 0.29038 0.19093 0.0
C1563 C 0.17894 0.30312 0.20904 0.0
C1564 C 0.20785 0.31694 0.20612 0.0
C1565 C 0.15025 0.30295 0.18729 0.0
C1566 C 0.20895 0.32975 0.18052 0.0
C1567 C 0.18122 0.32932 0.15853 0.0
H1568 H 0.6221 0.32696 0.62256 0.0
H1569 H 0.56387 0.28201 0.67453 0.0
H1570 H 0.6158 0.27894 0.70975 0.0
H1571 H 0.67548 0.29182 0.72897 0.0
H1572 H 0.73031 0.33865 0.67843 0.0
H1573 H 0.68211 0.33825 0.63956 0.0
C1574 C 0.62081 0.31633 0.64143 0.0
C1575 C 0.58916 0.30465 0.64568 0.0
C1576 C 0.65022 0.31511 0.66205 0.0
C1577 C 0.5881 0.2909 0.67019 0.0
C1578 C 0.6177 0.2893 0.69061 0.0
C1579 C 0.67714 0.30155 0.70903 0.0
C1580 C 0.70636 0.31518 0.70634 0.0
C1581 C 0.64863 0.30165 0.68715 0.0
C1582 C 0.70799 0.32806 0.68085 0.0
C1583 C 0.68044 0.32786 0.6587 0.0
H1584 H 0.10834 0.49615 0.73478 0.0
H1585 H 0.04078 0.45668 0.68081 0.0
H1586 H 0.08717 0.45592 0.64027 0.0
H1587 H 0.14938 0.46323 0.62315 0.0
H1588 H 0.21966 0.50057 0.67844 0.0
H1589 H 0.16982 0.5058 0.71514 0.0
C1590 C 0.10362 0.48785 0.71373 0.0
C1591 C 0.07134 0.47659 0.71043 0.0
C1592 C 0.13101 0.48698 0.69095 0.0
C1593 C 0.06547 0.46553 0.68352 0.0
C1594 C 0.09201 0.46502 0.66049 0.0
C1595 C 0.15368 0.47273 0.64304 0.0
C1596 C 0.18816 0.48155 0.64793 0.0
C1597 C 0.12531 0.47517 0.66441 0.0
C1598 C 0.19325 0.4939 0.67371 0.0
C1599 C 0.16482 0.49671 0.69494 0.0
H1600 H 0.97615 0.99233 0.53762 0.0
H1601 H 0.97466 0.05496 0.513 0.0
H1602 H 0.02735 0.06102 0.54664 0.0
H1603 H 0.07309 0.0485 0.5831 0.0
H1604 H 0.07404 0.98592 0.60811 0.0
H1605 H 0.02111 0.97995 0.57477 0.0
C1606 C 0.98765 1.00728 0.53921 0.0
C1607 C 0.9719 0.02318 0.52251 0.0
C1608 C 1.01708 1.01071 0.5592 0.0
C1609 C 0.98662 0.04249 0.52541 0.0
C1610 C 1.01646 0.04596 0.54481 0.0
C1611 C 0.0614 0.0336 0.5817 0.0
C1612 C 0.07728 0.01765 0.59825 0.0
C1613 C 0.03161 0.03022 0.56204 0.0
C1614 C 0.06211 0.99841 0.59574 0.0
C1615 C 0.0321 0.99498 0.57652 0.0
H1616 H 0.32028 0.29002 0.52838 0.0
H1617 H 0.31571 0.22591 0.51646 0.0
H1618 H 0.261 0.22434 0.54891 0.0
H1619 H 0.21585 0.24103 0.58166 0.0
H1620 H 0.22103 0.30508 0.59426 0.0
H1621 H 0.27526 0.3067 0.56126 0.0
C1622 C 0.30704 0.27571 0.53245 0.0
C1623 C 0.32192 0.25807 0.51987 0.0
C1624 C 0.2764 0.27485 0.55187 0.0
C1625 C 0.30466 0.23967 0.52579 0.0
C1626 C 0.2736 0.23876 0.54452 0.0
C1627 C 0.22905 0.25534 0.57756 0.0
C1628 C 0.21448 0.27294 0.59051 0.0
C1629 C 0.25962 0.25621 0.55806 0.0
C1630 C 0.2318 0.29134 0.58463 0.0
C1631 C 0.26259 0.29229 0.5656 0.0
H1632 H 0.96677 0.29238 0.83217 0.0
H1633 H 0.96234 0.2281 0.84206 0.0
H1634 H 1.01686 0.22478 0.8097 0.0
H1635 H 0.06465 0.2401 0.77793 0.0
H1636 H 0.06887 0.30438 0.76785 0.0
H1637 H 1.01438 0.30769 0.80022 0.0
C1638 C 0.97802 0.27764 0.8277 0.0
C1639 C 0.96069 0.26048 0.8397 0.0
C1640 C 1.00859 0.27583 0.80839 0.0
C1641 C 0.97535 0.24151 0.83322 0.0
C1642 C 1.00627 0.23961 0.81452 0.0
C1643 C 0.05336 0.25484 0.78235 0.0
C1644 C 0.07067 0.27201 0.77032 0.0
C1645 C 0.02274 0.25665 0.80162 0.0
C1646 C 0.05591 0.29097 0.77671 0.0
C1647 C 0.025 0.29286 0.79543 0.0
H1648 H 0.22844 0.97968 0.78016 0.0
H1649 H 0.2429 0.03982 0.7455 0.0
H1650 H 0.29829 0.04354 0.77618 0.0
H1651 H 0.33466 0.03227 0.82068 0.0
H1652 H 0.31982 0.97259 0.85607 0.0
H1653 H 0.27258 0.96604 0.81728 0.0
C1654 C 0.24421 0.99341 0.77865 0.0
C1655 C 0.23069 1.0097 0.76147 0.0
C1656 C 0.27557 0.99567 0.79699 0.0
C1657 C 0.25205 0.0272 0.75918 0.0
C1658 C 0.28363 0.02943 0.77692 0.0
C1659 C 0.32172 0.01768 0.81917 0.0
C1660 C 0.33024 1.00291 0.84093 0.0
C1661 C 0.29436 1.0142 0.79719 0.0
C1662 C 0.31353 0.98406 0.83922 0.0
C1663 C 0.28649 0.98038 0.8172 0.0
H1664 H 0.80966 0.73147 0.52412 0.0
H1665 H 0.80315 0.79296 0.49351 0.0
H1666 H 0.74972 0.79833 0.52586 0.0
H1667 H 0.71483 0.7877 0.57149 0.0
H1668 H 0.71821 0.72604 0.60028 0.0
H1669 H 0.76292 0.71848 0.55982 0.0
C1670 C 0.79594 0.74588 0.52379 0.0
C1671 C 0.81152 0.76206 0.50769 0.0
C1672 C 0.7653 0.74896 0.54265 0.0
C1673 C 0.79254 0.78041 0.50658 0.0
C1674 C 0.76209 0.78358 0.52524 0.0
C1675 C 0.72463 0.77252 0.56815 0.0
C1676 C 0.71428 0.75748 0.58881 0.0
C1677 C 0.74988 0.76834 0.54484 0.0
C1678 C 0.72628 0.73777 0.58441 0.0
C1679 C 0.75191 0.73351 0.56149 0.0
H1680 H 0.94741 0.75019 0.30457 0.0
H1681 H 0.99016 0.78781 0.3768 0.0
H1682 H 0.0498 0.78873 0.35105 0.0
H1683 H 0.08867 0.77984 0.30729 0.0
H1684 H 0.04617 0.74196 0.23531 0.0
H1685 H 0.98671 0.7407 0.26135 0.0
C1686 C 0.96994 0.75826 0.31509 0.0
C1687 C 0.96448 0.76881 0.34273 0.0
C1688 C 1.00369 0.75917 0.29974 0.0
C1689 C 0.99379 0.77951 0.35563 0.0
C1690 C 0.0277 0.78021 0.34075 0.0
C1691 C 0.06625 0.77159 0.29694 0.0
C1692 C 0.0716 0.76126 0.26908 0.0
C1693 C 0.03269 0.77042 0.31251 0.0
C1694 C 0.04254 0.75019 0.25653 0.0
C1695 C 1.00874 0.7493 0.27158 0.0
H1696 H 0.72124 1.00031 0.29592 0.0
H1697 H 0.72628 0.06157 0.26533 0.0
H1698 H 0.77197 0.06913 0.305 0.0
H1699 H 0.81848 0.05632 0.34101 0.0
H1700 H 0.81224 0.9949 0.37194 0.0
H1701 H 0.75807 0.98959 0.34041 0.0
C1702 C 0.73163 1.01542 0.2987 0.0
C1703 C 0.72113 0.03036 0.27786 0.0
C1704 C 0.7579 0.01954 0.32131 0.0
C1705 C 0.73426 0.04993 0.28138 0.0
C1706 C 0.76047 0.05419 0.30387 0.0
C1707 C 0.80474 0.04192 0.34149 0.0
C1708 C 0.82038 0.02582 0.35778 0.0
C1709 C 0.77378 0.03884 0.32293 0.0
C1710 C 0.80153 1.00743 0.35889 0.0
C1711 C 0.77059 1.0043 0.34071 0.0
H1712 H 0.06585 0.54024 0.08069 0.0
H1713 H 0.07569 0.47684 0.09813 0.0
H1714 H 0.02155 0.47051 0.06634 0.0
H1715 H 0.97295 0.48293 1.03255 0.0
H1716 H 0.96421 0.54628 1.01393 0.0
H1717 H 1.01765 0.55262 1.04643 0.0
C1718 C 0.05573 0.52506 0.0781 0.0
C1719 C 0.07443 0.509 0.09208 0.0
C1720 C 0.0256 0.5215 0.05886 0.0
C1721 C 0.06147 0.48942 0.08784 0.0
C1722 C 0.03083 0.4858 0.06942 0.0
C1723 C 0.98301 0.49812 1.03514 0.0
C1724 C 0.96468 0.51414 1.02068 0.0
C1725 C 1.01312 0.50169 1.05439 0.0
C1726 C 0.97794 0.53371 1.02467 0.0
C1727 C 1.00822 0.53735 1.0435 0.0
H1728 H 0.32245 0.73499 1.03401 0.0
H1729 H 0.31246 0.79413 0.99459 0.0
H1730 H 0.25791 0.80029 1.02566 0.0
H1731 H 0.21556 0.78973 0.0664 0.0
H1732 H 0.22648 0.73075 0.10632 0.0
H1733 H 0.27839 0.72384 0.07272 0.0
C1734 C 0.30823 0.74918 1.03194 0.0
C1735 C 0.32204 0.7642 1.0124 0.0
C1736 C 0.27742 0.75283 1.05038 0.0
C1737 C 0.3028 0.78238 1.00978 0.0
C1738 C 0.27173 0.78599 1.02769 0.0
C1739 C 0.22955 0.77545 0.06811 0.0
C1740 C 0.21721 0.76087 0.08915 0.0
C1741 C 0.25943 0.77152 1.04871 0.0
C1742 C 0.23544 0.74233 0.09056 0.0
C1743 C 0.26499 0.73829 0.07117 0.0
H1744 H 0.30898 0.49296 0.33878 0.0
H1745 H 0.29829 0.55632 0.3559 0.0
H1746 H 0.24576 0.55784 0.32086 0.0
H1747 H 0.208 0.54179 0.2805 0.0
H1748 H 0.22318 0.47905 0.26118 0.0
H1749 H 0.26934 0.47669 0.30164 0.0
C1750 C 0.29482 0.50708 0.3354 0.0
C1751 C 0.30765 0.52455 0.34985 0.0
C1752 C 0.26591 0.50799 0.31431 0.0
C1753 C 0.28897 0.54268 0.34496 0.0
C1754 C 0.25912 0.54357 0.3248 0.0
C1755 C 0.22088 0.52756 0.28578 0.0
C1756 C 0.21204 0.51054 0.26833 0.0
C1757 C 0.24808 0.52644 0.30861 0.0
C1758 C 0.22948 0.49227 0.2746 0.0
C1759 C 0.25589 0.49093 0.29762 0.0
H1760 H 0.81936 0.29018 1.02689 0.0
H1761 H 0.81769 0.22577 1.01858 0.0
H1762 H 0.76258 0.22428 1.05056 0.0
H1763 H 0.71632 0.24116 0.08185 0.0
H1764 H 0.71808 0.30555 0.09037 0.0
H1765 H 0.77292 0.30708 0.05804 0.0
C1766 C 0.80667 0.27581 1.03162 0.0
C1767 C 0.8225 0.25807 1.02024 0.0
C1768 C 0.77576 0.27503 1.05072 0.0
C1769 C 0.80591 0.23961 1.02698 0.0
C1770 C 0.77464 0.23874 1.04545 0.0
C1771 C 0.72896 0.25554 0.07708 0.0
C1772 C 0.71332 0.27325 0.08871 0.0
C1773 C 0.75974 0.25633 0.05785 0.0
C1774 C 0.72979 0.29173 0.08184 0.0
C1775 C 0.76089 0.29261 0.06316 0.0
H1776 H 0.71154 0.49448 0.79426 0.0
H1777 H 0.71385 0.55575 0.76346 0.0
H1778 H 0.76081 0.56371 0.80189 0.0
H1779 H 0.80807 0.55152 0.83766 0.0
H1780 H 0.80447 0.49014 0.86907 0.0
H1781 H 0.75022 0.48411 0.83787 0.0
C1782 C 0.72183 0.50965 0.79661 0.0
C1783 C 0.71002 0.52451 0.77615 0.0
C1784 C 0.74869 0.51402 0.81862 0.0
C1785 C 0.72288 0.54417 0.77921 0.0
C1786 C 0.74976 0.54866 0.80102 0.0
C1787 C 0.79497 0.53695 0.83825 0.0
C1788 C 0.81125 0.52111 0.8547 0.0
C1789 C 0.76398 0.53347 0.81992 0.0
C1790 C 0.7932 0.50249 0.85593 0.0
C1791 C 0.76223 0.49896 0.83796 0.0
H1792 H 0.45585 0.03614 0.06414 0.0
H1793 H 0.48132 0.98525 1.00679 0.0
H1794 H 0.53853 0.98025 1.03477 0.0
H1795 H 0.58323 0.99177 0.07245 0.0
H1796 H 0.5598 0.04374 0.12793 0.0
H1797 H 0.49901 0.04629 0.10457 0.0
C1798 C 0.47408 0.0241 0.05741 0.0
C1799 C 0.46447 1.01129 1.03298 0.0
C1800 C 0.50701 0.02131 0.07355 0.0
C1801 C 0.48818 0.9955 1.02519 0.0
C1802 C 0.52077 0.99252 1.04135 0.0
C1803 C 0.56469 1.00348 0.07988 0.0
C1804 C 0.57641 0.01781 0.10143 0.0
C1805 C 0.53066 1.00548 0.06526 0.0
C1806 C 0.55167 0.03267 0.11107 0.0
C1807 C 0.5171 0.03429 0.09744 0.0
H1808 H 0.46973 0.2952 0.33376 0.0
H1809 H 0.46279 0.23098 0.34372 0.0
H1810 H 0.5173 0.22703 0.31152 0.0
H1811 H 0.56564 0.24177 0.27977 0.0
H1812 H 0.57272 0.30599 0.26993 0.0
H1813 H 0.5182 0.30995 0.30214 0.0
C1814 C 0.48042 0.28033 0.32936 0.0
C1815 C 0.46236 0.26337 0.34129 0.0
C1816 C 0.51102 0.27816 0.31017 0.0
C1817 C 0.47636 0.24424 0.33493 0.0
C1818 C 0.50726 0.24197 0.31631 0.0
C1819 C 0.55495 0.25665 0.28419 0.0
C1820 C 0.57301 0.2736 0.27224 0.0
C1821 C 0.5244 0.25882 0.30342 0.0
C1822 C 0.55911 0.29274 0.2787 0.0
C1823 C 0.52821 0.29501 0.29732 0.0
H1824 H 0.4731 0.79927 0.83405 0.0
H1825 H 0.45846 0.73565 0.84699 0.0
H1826 H 0.50998 0.72906 0.81251 0.0
H1827 H 0.55854 0.74134 0.7785 0.0
H1828 H 0.57442 0.80495 0.76688 0.0
H1829 H 0.52191 0.81155 0.8003 0.0
C1830 C 0.48145 0.78394 0.82976 0.0
C1831 C 0.46205 0.76795 0.84328 0.0
C1832 C 0.51055 0.78026 0.80946 0.0
C1833 C 0.47307 0.74822 0.83704 0.0
C1834 C 0.50226 0.74444 0.81709 0.0
C1835 C 0.55011 0.75666 0.78272 0.0
C1836 C 0.57013 0.77266 0.7699 0.0
C1837 C 0.52085 0.76034 0.80286 0.0
C1838 C 0.55927 0.7924 0.77627 0.0
C1839 C 0.52951 0.79617 0.79561 0.0
H1840 H 0.45541 0.54262 0.53739 0.0
H1841 H 0.48162 0.48923 0.48608 0.0
H1842 H 0.54194 0.48797 0.51038 0.0
H1843 H 0.58272 0.49899 0.55188 0.0
H1844 H 0.55503 0.55168 0.6045 0.0
H1845 H 0.49919 0.55588 0.57444 0.0
C1846 C 0.47458 0.53096 0.53086 0.0
C1847 C 0.46362 0.51571 0.51061 0.0
C1848 C 0.50838 0.52977 0.546 0.0
C1849 C 0.48913 0.50094 0.50208 0.0
C1850 C 0.52342 0.50006 0.51626 0.0
C1851 C 0.56442 0.51134 0.55696 0.0
C1852 C 0.57266 0.52471 0.58099 0.0
C1853 C 0.53245 0.51377 0.53946 0.0
C1854 C 0.54909 0.54096 0.58651 0.0
C1855 C 0.51731 0.5435 0.56914 0.0
H1856 H 0.34158 0.99327 0.7507 0.0
H1857 H 0.4271 0.03349 0.72179 0.0
H1858 H 0.38938 0.04439 0.67803 0.0
H1859 H 0.33092 0.04292 0.64771 0.0
H1860 H 0.24848 1.0 0.67445 0.0
H1861 H 0.28572 0.98988 0.7183 0.0
C1862 C 0.3519 1.00456 0.73499 0.0
C1863 C 0.38717 1.01282 0.74028 0.0
C1864 C 0.33032 1.01034 0.70905 0.0
C1865 C 0.40015 0.02698 0.71882 0.0
C1866 C 0.37843 0.03322 0.69362 0.0
C1867 C 0.32108 0.03121 0.66287 0.0
C1868 C 0.28595 0.02261 0.6574 0.0
C1869 C 0.34331 0.02505 0.68836 0.0
C1870 C 0.27446 1.00747 0.67795 0.0
C1871 C 0.29602 1.00152 0.70322 0.0
H1872 H 0.88967 0.29183 0.70096 0.0
H1873 H 0.94558 0.2574 0.77053 0.0
H1874 H 0.99228 0.2477 0.73336 0.0
H1875 H 0.01886 0.24889 0.68065 0.0
H1876 H 0.96376 0.28331 0.61072 0.0
H1877 H 0.91604 0.29259 0.64764 0.0
C1878 C 0.91178 0.28202 0.70801 0.0
C1879 C 0.91345 0.27552 0.73919 0.0
C1880 C 0.9393 0.27636 0.68608 0.0
C1881 C 0.94306 0.26292 0.74723 0.0
C1882 C 0.97009 0.25728 0.72576 0.0
C1883 C 0.99662 0.25855 0.67338 0.0
C1884 C 0.9955 0.26525 0.64233 0.0
C1885 C 0.96885 0.26398 0.69509 0.0
C1886 C 0.96568 0.27757 0.63397 0.0
C1887 C 0.93821 0.28302 0.65531 0.0
H1888 H 0.39593 0.28404 0.6597 0.0
H1889 H 0.33531 0.25375 0.58861 0.0
H1890 H 0.28784 0.24466 0.62562 0.0
H1891 H 0.26211 0.24534 0.67863 0.0
H1892 H 0.32241 0.27544 0.75007 0.0
H1893 H 0.3706 0.28413 0.71321 0.0
C1894 C 0.37258 0.27527 0.65227 0.0
C1895 C 0.36969 0.26979 0.62077 0.0
C1896 C 0.34476 0.26998 0.67407 0.0
C1897 C 0.33861 0.25851 0.61219 0.0
C1898 C 0.31121 0.25322 0.63355 0.0
C1899 C 0.28559 0.25394 0.68621 0.0
C1900 C 0.28806 0.25966 0.7176 0.0
C1901 C 0.31365 0.25898 0.66459 0.0
C1902 C 0.31943 0.27057 0.72646 0.0
C1903 C 0.34718 0.27564 0.7052 0.0
H1904 H 0.97103 1.00554 0.72647 0.0
H1905 H 0.04722 0.0405 0.67294 0.0
H1906 H 1.00857 0.03652 0.62757 0.0
H1907 H 0.95456 0.02159 0.60114 0.0
H1908 H 0.87657 0.98792 0.65482 0.0
H1909 H 0.91405 0.99279 0.70083 0.0
C1910 C 0.97927 1.01235 0.70491 0.0
C1911 C 1.01296 0.02307 0.70363 0.0
C1912 C 0.95657 1.00998 0.67825 0.0
C1913 C 0.02242 0.03171 0.67506 0.0
C1914 C 1.00014 0.02944 0.6488 0.0
C1915 C 0.94549 1.01538 0.62287 0.0
C1916 C 0.91223 1.00426 0.62381 0.0
C1917 C 0.96739 0.01834 0.64979 0.0
C1918 C 0.90154 0.99658 0.65275 0.0
C1919 C 0.92327 0.99929 0.67933 0.0
H1920 H 0.7211 0.98977 0.4636 0.0
H1921 H 0.79828 0.03631 0.44025 0.0
H1922 H 0.75979 0.04643 0.3972 0.0
H1923 H 0.70435 0.04205 0.36444 0.0
H1924 H 0.62331 0.99845 0.39077 0.0
H1925 H 0.66251 0.98747 0.43362 0.0
C1926 C 0.72955 1.00228 0.44944 0.0
C1927 C 0.7637 1.01189 0.45564 0.0
C1928 C 0.7064 1.00853 0.42455 0.0
C1929 C 0.77332 0.028 0.43618 0.0
C1930 C 0.75094 0.03399 0.41137 0.0
C1931 C 0.6952 0.0301 0.37951 0.0
C1932 C 0.66074 0.02095 0.37373 0.0
C1933 C 0.71759 0.02427 0.40496 0.0
C1934 C 0.64946 1.00578 0.3942 0.0
C1935 C 0.67209 0.99946 0.41884 0.0
H1936 H 0.08163 0.73553 0.35704 0.0
H1937 H 0.17195 0.77076 0.39064 0.0
H1938 H 0.13424 0.78232 0.43385 0.0
H1939 H 0.07486 0.78274 0.46256 0.0
H1940 H 0.98846 0.74305 0.43304 0.0
H1941 H 0.02446 0.7336 0.38831 0.0
C1942 C 0.09316 0.74577 0.37376 0.0
C1943 C 0.12994 0.75234 0.36995 0.0
C1944 C 0.07158 0.75178 0.39961 0.0
C1945 C 0.14402 0.7654 0.3925 0.0
C1946 C 0.12228 0.77205 0.41741 0.0
C1947 C 0.06386 0.77172 0.44688 0.0
C1948 C 0.02773 0.76416 0.45173 0.0
C1949 C 0.08593 0.76532 0.42143 0.0
C1950 C 1.01498 0.75001 0.43009 0.0
C1951 C 0.03602 0.74426 0.40437 0.0
H1952 H 0.71191 0.79662 0.40356 0.0
H1953 H 0.79066 0.7506 0.42519 0.0
H1954 H 0.75341 0.74004 0.46893 0.0
H1955 H 0.69911 0.74426 0.50319 0.0
H1956 H 0.61781 0.7884 0.47988 0.0
H1957 H 0.65504 0.79924 0.43579 0.0
C1958 C 0.721 0.78421 0.41769 0.0
C1959 C 0.75491 0.77467 0.41061 0.0
C1960 C 0.69904 0.77803 0.44336 0.0
C1961 C 0.76556 0.75867 0.42986 0.0
C1962 C 0.74404 0.75253 0.45512 0.0
C1963 C 0.68962 0.75638 0.48863 0.0
C1964 C 0.65569 0.76574 0.49567 0.0
C1965 C 0.71097 0.76225 0.46254 0.0
C1966 C 0.64371 0.78099 0.47562 0.0
C1967 C 0.66517 0.78722 0.45022 0.0
H1968 H 0.02011 1.00252 0.44198 0.0
H1969 H 0.0775 0.03273 0.36885 0.0
H1970 H 0.12653 0.04202 0.4046 0.0
H1971 H 0.1535 0.04245 0.45782 0.0
H1972 H 0.09588 1.01155 0.53024 0.0
H1973 H 0.04785 1.00188 0.49423 0.0
C1974 C 0.04319 1.01123 0.43376 0.0
C1975 C 0.04448 1.01685 0.40224 0.0
C1976 C 0.07186 1.01653 0.45471 0.0
C1977 C 0.07534 0.02795 0.39259 0.0
C1978 C 0.10361 0.03336 0.41323 0.0
C1979 C 0.13068 0.03343 0.46576 0.0
C1980 C 0.12881 0.02802 0.49741 0.0
C1981 C 0.10237 0.02779 0.4445 0.0
C1982 C 0.09838 1.01637 0.50658 0.0
C1983 C 0.0706 1.01075 0.4858 0.0
H1984 H 0.25932 0.53998 0.18495 0.0
H1985 H 0.32757 0.51447 0.11433 0.0
H1986 H 0.37435 0.50642 0.15286 0.0
H1987 H 0.39609 0.50551 0.2078 0.0
H1988 H 0.32617 0.53056 0.27786 0.0
H1989 H 0.28078 0.53935 0.23909 0.0
C1990 C 0.28418 0.53249 0.17778 0.0
C1991 C 0.28922 0.52797 0.14607 0.0
C1992 C 0.31125 0.52765 0.20042 0.0
C1993 C 0.32249 0.51854 0.13804 0.0
C1994 C 0.34943 0.51376 0.16033 0.0
C1995 C 0.37116 0.51309 0.21466 0.0
C1996 C 0.36535 0.51728 0.24645 0.0
C1997 C 0.34429 0.51817 0.19176 0.0
C1998 C 0.33215 0.52697 0.25412 0.0
C1999 C 0.3058 0.53205 0.23173 0.0
H2000 H 0.95193 0.79321 0.25884 0.0
H2001 H 0.85755 0.76502 0.21803 0.0
H2002 H 0.89505 0.75439 0.17415 0.0
H2003 H 0.95526 0.75279 0.14682 0.0
H2004 H 0.0473 0.78479 0.18502 0.0
H2005 H 1.01077 0.79366 0.22978 0.0
C2006 C 0.93939 0.7847 0.24042 0.0
C2007 C 0.90146 0.77988 0.2424 0.0
C2008 C 0.96109 0.77913 0.2144 0.0
C2009 C 0.88631 0.76902 0.21768 0.0
C2010 C 0.90794 0.7629 0.19237 0.0
C2011 C 0.96749 0.76199 0.1645 0.0
C2012 C 1.00509 0.76764 0.16186 0.0
C2013 C 0.94546 0.7679 0.19026 0.0
C2014 C 0.01939 0.77941 0.18603 0.0
C2015 C 0.99811 0.78481 0.21181 0.0
H2016 H 0.27305 0.73772 0.17597 0.0
H2017 H 0.30798 0.78423 0.23785 0.0
H2018 H 0.35471 0.79495 0.2009 0.0
H2019 H 0.38648 0.79146 0.1502 0.0
H2020 H 0.35111 0.74519 0.08808 0.0
H2021 H 0.30571 0.73382 0.12585 0.0
C2022 C 0.29074 0.75027 0.18137 0.0
C2023 C 0.28666 0.76 0.2102 0.0
C2024 C 0.31816 0.75641 0.15974 0.0
C2025 C 0.31031 0.77622 0.2163 0.0
C2026 C 0.33724 0.78242 0.195 0.0
C2027 C 0.36895 0.77884 0.14485 0.0
C2028 C 0.37268 0.7693 0.1158 0.0
C2029 C 0.34169 0.77263 0.16657 0.0
C2030 C 0.34903 0.75308 0.10973 0.0
C2031 C 0.32271 0.7466 0.13138 0.0
H2032 H 0.02074 0.52937 0.17946 0.0
H2033 H 0.95714 0.50284 0.25239 0.0
H2034 H 0.90824 0.49487 0.21585 0.0
H2035 H 0.88325 0.49433 0.16208 0.0
H2036 H 0.94825 0.52011 0.08934 0.0
H2037 H 0.99589 0.52906 0.12621 0.0
C2038 C 0.99642 0.52165 0.18747 0.0
C2039 C 0.99332 0.51675 0.21919 0.0
C2040 C 0.96808 0.51686 0.16597 0.0
C2041 C 0.96075 0.50707 0.22853 0.0
C2042 C 0.93257 0.50239 0.20743 0.0
C2043 C 0.9076 0.50212 0.15426 0.0
C2044 C 0.91153 0.50644 0.12237 0.0
C2045 C 0.93575 0.50714 0.17594 0.0
C2046 C 0.94397 0.51635 0.11328 0.0
C2047 C 0.97152 0.52153 0.13454 0.0
H2048 H 0.70898 0.49209 0.97221 0.0
H2049 H 0.79531 0.53138 0.94128 0.0
H2050 H 0.75858 0.54099 0.89691 0.0
H2051 H 0.70226 0.53796 0.86495 0.0
H2052 H 0.613 0.5017 0.89793 0.0
H2053 H 0.6501 0.49126 0.94234 0.0
C2054 C 0.71987 0.50285 0.95596 0.0
C2055 C 0.7559 0.51056 0.96049 0.0
C2056 C 0.698 0.50869 0.93004 0.0
C2057 C 0.76865 0.52452 0.93855 0.0
C2058 C 0.74742 0.53015 0.91289 0.0
C2059 C 0.69097 0.52761 0.88169 0.0
C2060 C 0.65478 0.52035 0.87737 0.0
C2061 C 0.71225 0.52216 0.90799 0.0
C2062 C 0.64063 0.50744 0.90013 0.0
C2063 C 0.662 0.50146 0.92571 0.0
H2064 H 0.14674 0.24411 0.90982 0.0
H2065 H 0.08537 0.27541 0.83999 0.0
H2066 H 0.03926 0.28479 0.87786 0.0
H2067 H 1.0148 0.28407 0.9312 0.0
H2068 H 0.07512 0.25264 1.0014 0.0
H2069 H 0.12247 0.24389 0.9638 0.0
C2070 C 0.12356 0.25318 0.90286 0.0
C2071 C 0.12015 0.25891 0.87145 0.0
C2072 C 0.09643 0.25862 0.92518 0.0
C2073 C 0.08924 0.27054 0.8635 0.0
C2074 C 0.06256 0.27598 0.88536 0.0
C2075 C 0.03812 0.27518 0.93838 0.0
C2076 C 0.04082 0.26911 0.96963 0.0
C2077 C 0.06554 0.27002 0.9163 0.0
C2078 C 0.07198 0.25782 0.97794 0.0
C2079 C 0.09922 0.25269 0.95623 0.0
H2080 H 0.6358 0.24836 0.94942 0.0
H2081 H 0.69713 0.27759 1.02118 0.0
H2082 H 0.74405 0.28736 0.98424 0.0
H2083 H 0.76928 0.28767 0.93114 0.0
H2084 H 0.70904 0.2584 0.85889 0.0
H2085 H 0.66098 0.24913 0.89561 0.0
C2086 C 0.65916 0.25706 0.95702 0.0
C2087 C 0.66227 0.26206 0.98874 0.0
C2088 C 0.68683 0.26276 0.93519 0.0
C2089 C 0.69346 0.27323 0.99745 0.0
C2090 C 0.72062 0.27892 0.97611 0.0
C2091 C 0.74584 0.27914 0.9233 0.0
C2092 C 0.74339 0.27388 0.8917 0.0
C2093 C 0.71794 0.27368 0.94488 0.0
C2094 C 0.71203 0.26301 0.88261 0.0
C2095 C 0.68436 0.25757 0.90384 0.0
H2096 H 1.01423 0.49885 0.9355 0.0
H2097 H 0.06576 0.53429 0.86487 0.0
H2098 H 0.11412 0.54412 0.90094 0.0
H2099 H 0.14191 0.54351 0.95374 0.0
H2100 H 0.09049 0.5073 1.02361 0.0
H2101 H 0.04305 0.49721 0.98731 0.0
C2102 C 0.03593 0.50879 0.92792 0.0
C2103 C 0.03585 0.51572 0.89703 0.0
C2104 C 0.06417 0.51438 0.94903 0.0
C2105 C 0.06482 0.52846 0.88811 0.0
C2106 C 0.09265 0.53418 0.90893 0.0
C2107 C 0.12061 0.53323 0.96103 0.0
C2108 C 0.12018 0.52646 0.99208 0.0
C2109 C 0.09279 0.5273 0.9396 0.0
C2110 C 0.09174 0.51319 1.00046 0.0
C2111 C 0.06436 0.5073 0.9795 0.0
H2112 H 0.90148 0.99958 0.21202 0.0
H2113 H 0.83813 0.03076 0.28054 0.0
H2114 H 0.79341 0.0404 0.24141 0.0
H2115 H 0.77051 0.03982 0.18746 0.0
H2116 H 0.83232 1.00765 0.1191 0.0
H2117 H 0.87831 0.99889 0.15778 0.0
C2118 C 0.87807 1.00862 0.21851 0.0
C2119 C 0.87397 1.01442 0.24984 0.0
C2120 C 0.85147 1.01395 0.19561 0.0
C2121 C 0.8427 0.02595 0.2571 0.0
C2122 C 0.81674 0.03147 0.23456 0.0
C2123 C 0.79376 0.03072 0.18089 0.0
C2124 C 0.79735 0.02459 0.14969 0.0
C2125 C 0.82046 0.02546 0.20369 0.0
C2126 C 0.8285 1.013 0.14237 0.0
C2127 C 0.85499 1.00783 0.16474 0.0
H2128 H 0.39043 0.29259 0.20135 0.0
H2129 H 0.44768 0.25991 0.27212 0.0
H2130 H 0.49411 0.24963 0.23507 0.0
H2131 H 0.52003 0.24984 0.18209 0.0
H2132 H 0.46345 0.28245 0.11098 0.0
H2133 H 0.4161 0.29235 0.14785 0.0
C2134 C 0.41278 0.28303 0.2087 0.0
C2135 C 0.41492 0.2772 0.24014 0.0
C2136 C 0.44011 0.27705 0.18685 0.0
C2137 C 0.44481 0.26491 0.24858 0.0
C2138 C 0.47168 0.25894 0.22719 0.0
C2139 C 0.49754 0.25923 0.17457 0.0
C2140 C 0.49587 0.26526 0.14324 0.0
C2141 C 0.46997 0.265 0.19622 0.0
C2142 C 0.46578 0.27727 0.13451 0.0
C2143 C 0.43851 0.28305 0.1558 0.0
H2144 H 0.89723 0.28277 0.16099 0.0
H2145 H 0.8352 0.2544 0.08888 0.0
H2146 H 0.78773 0.24505 0.12568 0.0
H2147 H 0.76231 0.24495 0.1788 0.0
H2148 H 0.8239 0.27314 0.25129 0.0
H2149 H 0.87217 0.28207 0.21463 0.0
C2150 C 0.87357 0.27436 0.15328 0.0
C2151 C 0.87035 0.26949 0.12156 0.0
C2152 C 0.84571 0.26891 0.17498 0.0
C2153 C 0.83885 0.25867 0.11265 0.0
C2154 C 0.81141 0.25323 0.13389 0.0
C2155 C 0.7861 0.25319 0.18667 0.0
C2156 C 0.78888 0.25829 0.21829 0.0
C2157 C 0.81421 0.25837 0.16516 0.0
C2158 C 0.82065 0.26874 0.2275 0.0
C2159 C 0.84845 0.27396 0.20634 0.0
H2160 H 0.46101 0.03471 0.22205 0.0
H2161 H 0.54824 0.99741 0.18739 0.0
H2162 H 0.51114 0.9888 0.14292 0.0
H2163 H 0.45279 0.99063 0.11351 0.0
H2164 H 0.36201 0.02345 0.15171 0.0
H2165 H 0.40069 0.03432 0.19474 0.0
C2166 C 0.47197 0.02439 0.20526 0.0
C2167 C 0.50859 1.01726 0.20859 0.0
C2168 C 0.44934 0.01846 0.17992 0.0
C2169 C 0.52128 1.00401 0.18563 0.0
C2170 C 0.49964 0.99875 0.16005 0.0
C2171 C 0.44136 1.00023 0.13116 0.0
C2172 C 0.40415 1.0063 0.12876 0.0
C2173 C 0.46357 1.00584 0.15679 0.0
C2174 C 0.39025 0.0185 0.15249 0.0
C2175 C 0.41254 0.02474 0.17729 0.0
H2176 H 0.27238 0.99411 0.93039 0.0
H2177 H 0.21148 0.02651 0.99902 0.0
H2178 H 0.1654 0.03558 0.96055 0.0
H2179 H 0.14184 0.03504 0.90628 0.0
H2180 H 0.20428 1.00319 0.83782 0.0
H2181 H 0.24907 0.99353 0.87665 0.0
C2182 C 0.24927 1.0033 0.93706 0.0
C2183 C 0.24594 1.00939 0.96825 0.0
C2184 C 0.22244 1.00864 0.91443 0.0
C2185 C 0.21507 0.02118 0.97572 0.0
C2186 C 0.18851 0.0265 0.95348 0.0
C2187 C 0.16495 0.02578 0.8998 0.0
C2188 C 0.16879 0.01987 0.86851 0.0
C2189 C 0.19164 0.02032 0.92262 0.0
C2190 C 0.1998 1.00809 0.86124 0.0
C2191 C 0.22586 1.00254 0.88363 0.0
H2192 H 0.64991 0.74231 0.90636 0.0
H2193 H 0.59165 0.77559 0.83676 0.0
H2194 H 0.54573 0.78549 0.87431 0.0
H2195 H 0.51987 0.78442 0.92702 0.0
H2196 H 0.57741 0.75183 0.99756 0.0
H2197 H 0.62488 0.74241 0.96035 0.0
C2198 C 0.62748 0.75194 0.8994 0.0
C2199 C 0.62485 0.75797 0.86805 0.0
C2200 C 0.60034 0.75775 0.9216 0.0
C2201 C 0.59489 0.77038 0.86017 0.0
C2202 C 0.56826 0.77613 0.88183 0.0
C2203 C 0.54263 0.77515 0.93436 0.0
C2204 C 0.54439 0.76885 0.96553 0.0
C2205 C 0.57027 0.76977 0.9126 0.0
C2206 C 0.57491 0.75711 0.9741 0.0
C2207 C 0.60224 0.75162 0.95261 0.0
H2208 H 0.20869 0.79209 0.90057 0.0
H2209 H 0.29586 0.7537 0.93249 0.0
H2210 H 0.25913 0.74426 0.97699 0.0
H2211 H 0.20174 0.74646 1.00797 0.0
H2212 H 0.11162 0.78138 0.97296 0.0
H2213 H 0.14943 0.79224 0.92937 0.0
C2214 C 0.21977 0.78144 0.91688 0.0
C2215 C 0.25605 0.77401 0.91254 0.0
C2216 C 0.1977 0.77544 0.94257 0.0
C2217 C 0.26903 0.76038 0.93491 0.0
C2218 C 0.24769 0.75476 0.96059 0.0
C2219 C 0.19029 0.75654 0.99093 0.0
C2220 C 0.1535 0.76321 0.99446 0.0
C2221 C 0.21202 0.76225 0.96494 0.0
C2222 C 0.13955 0.77598 0.97141 0.0
C2223 C 0.16134 0.78222 0.94625 0.0
H2224 H 0.5306 0.99836 0.93272 0.0
H2225 H 0.57846 0.03775 0.86531 0.0
H2226 H 0.62619 0.04741 0.90203 0.0
H2227 H 0.6547 0.04537 0.95454 0.0
H2228 H 0.60498 1.00675 1.02215 0.0
H2229 H 0.55904 0.9962 0.98458 0.0
C2230 C 0.55134 1.00913 0.926 0.0
C2231 C 0.55058 1.01707 0.89567 0.0
C2232 C 0.579 1.01484 0.94763 0.0
C2233 C 0.57821 0.031 0.88797 0.0
C2234 C 0.60566 0.03665 0.9092 0.0
C2235 C 0.63406 0.0345 0.96109 0.0
C2236 C 0.634 0.02691 0.99171 0.0
C2237 C 0.60657 0.02869 0.93924 0.0
C2238 C 0.60619 1.01304 0.99924 0.0
C2239 C 0.57956 1.00699 0.97766 0.0
H2240 H 0.89115 0.49918 0.70817 0.0
H2241 H 0.83102 0.53119 0.77783 0.0
H2242 H 0.7858 0.54151 0.73957 0.0
H2243 H 0.76152 0.54135 0.68602 0.0
H2244 H 0.8207 0.50889 0.61637 0.0
H2245 H 0.86686 0.49909 0.65432 0.0
C2246 C 0.86835 0.50855 0.71508 0.0
C2247 C 0.86525 0.51433 0.74647 0.0
C2248 C 0.84151 0.51435 0.69268 0.0
C2249 C 0.83477 0.52633 0.75432 0.0
C2250 C 0.80851 0.53225 0.73229 0.0
C2251 C 0.7843 0.532 0.67905 0.0
C2252 C 0.78715 0.52608 0.64774 0.0
C2253 C 0.81122 0.52626 0.70136 0.0
C2254 C 0.81751 0.51405 0.63981 0.0
C2255 C 0.84412 0.50833 0.66172 0.0
H2256 H 0.45717 0.75324 0.64875 0.0
H2257 H 0.54542 0.78998 0.68298 0.0
H2258 H 0.50868 0.79885 0.72759 0.0
H2259 H 0.45155 0.79623 0.75844 0.0
H2260 H 0.35981 0.7637 0.72129 0.0
H2261 H 0.39734 0.7534 0.67714 0.0
C2262 C 0.4685 0.76337 0.66565 0.0
C2263 C 0.50519 0.77038 0.66206 0.0
C2264 C 0.44639 0.76911 0.69145 0.0
C2265 C 0.51836 0.78349 0.68498 0.0
C2266 C 0.49708 0.78876 0.71076 0.0
C2267 C 0.43966 0.78682 0.74077 0.0
C2268 C 0.40259 0.78059 0.74385 0.0
C2269 C 0.46116 0.78154 0.71456 0.0
C2270 C 0.388 0.76872 0.72003 0.0
C2271 C 0.40964 0.7628 0.6946 0.0
H2272 H 0.82186 0.77184 0.72447 0.0
H2273 H 0.74605 0.73566 0.67279 0.0
H2274 H 0.78346 0.73989 0.62675 0.0
H2275 H 0.83683 0.75497 0.5992 0.0
H2276 H 0.91567 0.78875 0.65168 0.0
H2277 H 0.8786 0.78433 0.69801 0.0
C2278 C 0.81347 0.76473 0.70324 0.0
C2279 C 0.77997 0.75375 0.7027 0.0
C2280 C 0.83585 0.76694 0.67625 0.0
C2281 C 0.77044 0.74479 0.67441 0.0
C2282 C 0.79217 0.7471 0.64775 0.0
C2283 C 0.84628 0.76123 0.62077 0.0
C2284 C 0.87971 0.77226 0.6212 0.0
C2285 C 0.82476 0.75837 0.64806 0.0
C2286 C 0.89064 0.78011 0.64994 0.0
C2287 C 0.86913 0.77766 0.67675 0.0
H2288 H 0.37935 0.49764 0.66385 0.0
H2289 H 0.45123 0.51626 0.59051 0.0
H2290 H 0.49805 0.52545 0.628 0.0
H2291 H 0.52004 0.52848 0.68167 0.0
H2292 H 0.45031 0.50818 0.75535 0.0
H2293 H 0.40214 0.50002 0.71825 0.0
C2294 C 0.40506 0.50393 0.65593 0.0
C2295 C 0.41093 0.50634 0.62373 0.0
C2296 C 0.43281 0.50906 0.67795 0.0
C2297 C 0.44514 0.51427 0.61466 0.0
C2298 C 0.47227 0.51956 0.63624 0.0
C2299 C 0.49455 0.52204 0.68979 0.0
C2300 C 0.48948 0.5191 0.7219 0.0
C2301 C 0.46671 0.51698 0.66798 0.0
C2302 C 0.45546 0.51102 0.73122 0.0
C2303 C 0.42769 0.50619 0.70979 0.0
H2304 H 0.26655 0.48872 0.43204 0.0
H2305 H 0.21698 0.5293 0.49673 0.0
H2306 H 0.17081 0.53863 0.45847 0.0
H2307 H 0.14428 0.53597 0.40564 0.0
H2308 H 0.19411 0.49548 0.34098 0.0
H2309 H 0.23961 0.48574 0.37949 0.0
C2310 C 0.24581 0.4997 0.43783 0.0
C2311 C 0.24562 0.50812 0.46783 0.0
C2312 C 0.21895 0.50513 0.41535 0.0
C2313 C 0.21795 0.52223 0.47435 0.0
C2314 C 0.19141 0.52768 0.45226 0.0
C2315 C 0.16481 0.52485 0.39997 0.0
C2316 C 0.16536 0.51663 0.36983 0.0
C2317 C 0.19144 0.51926 0.42257 0.0
C2318 C 0.1928 0.50234 0.36347 0.0
C2319 C 0.21901 0.4967 0.3857 0.0
H2320 H 0.51617 0.28412 0.43123 0.0
H2321 H 0.5736 0.25118 0.50148 0.0
H2322 H 0.62145 0.24225 0.4644 0.0
H2323 H 0.64694 0.24278 0.41081 0.0
H2324 H 0.58878 0.27595 0.34107 0.0
H2325 H 0.54218 0.2854 0.37844 0.0
C2326 C 0.53899 0.27488 0.43851 0.0
C2327 C 0.54073 0.2684 0.4696 0.0
C2328 C 0.56678 0.26971 0.41678 0.0
C2329 C 0.57123 0.25665 0.47811 0.0
C2330 C 0.59875 0.25143 0.4567 0.0
C2331 C 0.62438 0.25229 0.40378 0.0
C2332 C 0.62197 0.25848 0.37252 0.0
C2333 C 0.59696 0.2578 0.42582 0.0
C2334 C 0.59183 0.27068 0.36447 0.0
C2335 C 0.56487 0.27617 0.38603 0.0
H2336 H 0.1374 0.25328 0.45009 0.0
H2337 H 0.20023 0.28074 0.5225 0.0
H2338 H 0.24738 0.29049 0.48554 0.0
H2339 H 0.27214 0.29119 0.43218 0.0
H2340 H 0.2105 0.263 0.35969 0.0
H2341 H 0.16228 0.25411 0.3964 0.0
C2342 C 0.16115 0.26161 0.45783 0.0
C2343 C 0.16465 0.26616 0.48966 0.0
C2344 C 0.18889 0.26716 0.43608 0.0
C2345 C 0.19633 0.27679 0.49863 0.0
C2346 C 0.22356 0.28244 0.47729 0.0
C2347 C 0.24838 0.28296 0.42428 0.0
C2348 C 0.24553 0.27795 0.39259 0.0
C2349 C 0.22046 0.27761 0.4459 0.0
C2350 C 0.21377 0.26747 0.38346 0.0
C2351 C 0.18602 0.26222 0.40467 0.0
H2352 H 0.58022 0.54764 0.50323 0.0
H2353 H 0.67122 0.5161 0.46298 0.0
H2354 H 0.63185 0.50515 0.42036 0.0
H2355 H 0.57067 0.50412 0.39421 0.0
H2356 H 0.48308 0.54028 0.43105 0.0
H2357 H 0.52116 0.54915 0.47474 0.0
C2358 C 0.5916 0.53834 0.48518 0.0
C2359 C 0.62909 0.53263 0.48695 0.0
C2360 C 0.56893 0.53267 0.45982 0.0
C2361 C 0.64283 0.52081 0.46271 0.0
C2362 C 0.6201 0.51449 0.43816 0.0
C2363 C 0.55978 0.51424 0.41131 0.0
C2364 C 0.52271 0.52091 0.40876 0.0
C2365 C 0.58297 0.52034 0.43627 0.0
C2366 C 0.51028 0.53393 0.43215 0.0
C2367 C 0.53251 0.53937 0.45731 0.0
loop_
_geom_bond_atom_site_label_1
_geom_bond_atom_site_label_2
_geom_bond_distance
_geom_bond_site_symmetry_2
_ccdc_geom_bond_type
Co0 O3 1.970 . S
Co0 N17 1.989 . S
Co0 O25 1.967 . S
Co0 O32 1.920 . S
Co1 O4 1.966 . S
Co1 N10 2.022 . S
Co1 N18 1.993 . S
Co1 O26 1.941 . S
C2 O3 1.258 . S
C2 O4 1.263 . S
O3 Co0 1.970 . S
O3 C2 1.258 . S
O4 Co1 1.966 . S
O4 C2 1.263 . S
C5 O6 1.235 1_545 S
C5 O32 1.289 . S
O6 C5 1.235 1_565 S
C7 C9 1.400 . S
C7 N10 1.351 . S
C7 C12 1.501 . S
C8 C9 1.387 . S
C8 N11 1.341 . S
C9 C7 1.400 . S
C9 C8 1.387 . S
N10 Co1 2.022 . S
N10 C7 1.351 . S
N10 N11 1.365 . S
N11 C8 1.341 . S
N11 N10 1.365 . S
N11 H31 0.862 . S
C12 C7 1.501 . S
C12 H13 0.961 . S
C12 H14 0.961 . S
C12 H15 0.960 . S
H13 C12 0.961 . S
H14 C12 0.961 . S
H15 C12 0.960 . S
C16 N17 1.342 . S
C16 C20 1.401 . S
C16 C21 1.499 . S
N17 Co0 1.989 . S
N17 C16 1.342 . S
N17 N18 1.388 . S
N18 Co1 1.993 . S
N18 N17 1.388 . S
N18 C19 1.346 . S
C19 N18 1.346 . S
C19 C20 1.396 . S
C19 C29 1.510 . S
C20 C16 1.401 . S
C20 C19 1.396 . S
C21 C16 1.499 . S
C21 H22 0.959 . S
C21 H23 0.960 1_545 S
C21 H24 0.961 . S
H22 C21 0.959 . S
H23 C21 0.960 1_565 S
H24 C21 0.961 . S
O25 Co0 1.967 . S
O25 C33 1.258 . S
O26 Co1 1.941 . S
O26 C33 1.266 . S
H27 C29 0.959 . S
H28 C29 0.961 . S
C29 C19 1.510 . S
C29 H27 0.959 . S
C29 H28 0.961 . S
C29 H30 0.960 . S
H30 C29 0.960 . S
H31 N11 0.862 . S
O32 Co0 1.920 . S
O32 C5 1.289 . S
C33 O25 1.258 . S
C33 O26 1.266 . S
Co34 O37 1.970 . S
Co34 N51 1.989 . S
Co34 O59 1.967 . S
Co34 O66 1.920 . S
Co35 O38 1.966 . S
Co35 N44 2.034 . S
Co35 N52 1.993 . S
Co35 O60 1.941 . S
C36 O37 1.258 . S
C36 O38 1.263 . S
O37 Co34 1.970 . S
O37 C36 1.258 . S
O38 Co35 1.966 . S
O38 C36 1.263 . S
C39 O40 1.235 . S
C39 O66 1.289 . S
O40 C39 1.235 . S
C41 C43 1.400 . S
C41 N44 1.345 1_655 S
C41 C46 1.501 1_655 S
C42 C43 1.387 . S
C42 N45 1.341 . S
C43 C41 1.400 . S
C43 C42 1.387 . S
N44 Co35 2.034 . S
N44 C41 1.345 1_455 S
N44 N45 1.355 1_455 S
N45 C42 1.341 . S
N45 N44 1.355 1_655 S
N45 H65 0.862 . S
C46 C41 1.501 1_455 S
C46 H47 0.961 . S
C46 H48 0.961 1_455 S
C46 H49 0.960 . S
H47 C46 0.961 . S
H48 C46 0.961 1_655 S
H49 C46 0.960 . S
C50 N51 1.342 . S
C50 C54 1.401 . S
C50 C55 1.499 . S
N51 Co34 1.989 . S
N51 C50 1.342 . S
N51 N52 1.388 . S
N52 Co35 1.993 . S
N52 N51 1.388 . S
N52 C53 1.346 . S
C53 N52 1.346 . S
C53 C54 1.396 . S
C53 C63 1.510 1_455 S
C54 C50 1.401 . S
C54 C53 1.396 . S
C55 C50 1.499 . S
C55 H56 0.959 . S
C55 H57 0.960 . S
C55 H58 0.961 . S
H56 C55 0.959 . S
H57 C55 0.960 . S
H58 C55 0.961 . S
O59 Co34 1.967 . S
O59 C67 1.258 . S
O60 Co35 1.941 . S
O60 C67 1.266 . S
H61 C63 0.959 . S
H62 C63 0.961 . S
C63 C53 1.510 1_655 S
C63 H61 0.959 . S
C63 H62 0.961 . S
C63 H64 0.960 . S
H64 C63 0.960 . S
H65 N45 0.862 . S
O66 Co34 1.920 . S
O66 C39 1.289 . S
C67 O59 1.258 . S
C67 O60 1.266 . S
Co68 O71 1.970 . S
Co68 N85 1.989 . S
Co68 O93 1.967 . S
Co68 O100 1.920 . S
Co69 O72 1.966 . S
Co69 N78 2.022 . S
Co69 N86 1.993 . S
Co69 O94 1.941 . S
C70 O71 1.258 . S
C70 O72 1.263 . S
O71 Co68 1.970 . S
O71 C70 1.258 . S
O72 Co69 1.966 . S
O72 C70 1.263 . S
C73 O74 1.235 . S
C73 O100 1.289 . S
O74 C73 1.235 . S
C75 C77 1.400 . S
C75 N78 1.351 . S
C75 C80 1.501 . S
C76 C77 1.387 . S
C76 N79 1.341 . S
C77 C75 1.400 . S
C77 C76 1.387 . S
N78 Co69 2.022 . S
N78 C75 1.351 . S
N78 N79 1.365 . S
N79 C76 1.341 . S
N79 N78 1.365 . S
N79 H99 0.862 . S
C80 C75 1.501 . S
C80 H81 0.961 . S
C80 H82 0.961 . S
C80 H83 0.960 . S
H81 C80 0.961 . S
H82 C80 0.961 . S
H83 C80 0.960 . S
C84 N85 1.342 . S
C84 C88 1.401 . S
C84 C89 1.499 . S
N85 Co68 1.989 . S
N85 C84 1.342 . S
N85 N86 1.388 . S
N86 Co69 1.993 . S
N86 N85 1.388 . S
N86 C87 1.346 . S
C87 N86 1.346 . S
C87 C88 1.396 . S
C87 C97 1.510 . S
C88 C84 1.401 . S
C88 C87 1.396 . S
C89 C84 1.499 . S
C89 H90 0.959 . S
C89 H91 0.960 . S
C89 H92 0.961 . S
H90 C89 0.959 . S
H91 C89 0.960 . S
H92 C89 0.961 . S
O93 Co68 1.967 . S
O93 C101 1.258 . S
O94 Co69 1.941 . S
O94 C101 1.266 . S
H95 C97 0.959 . S
H96 C97 0.961 . S
C97 C87 1.510 . S
C97 H95 0.959 . S
C97 H96 0.961 . S
C97 H98 0.960 . S
H98 C97 0.960 . S
H99 N79 0.862 . S
O100 Co68 1.920 . S
O100 C73 1.289 . S
C101 O93 1.258 . S
C101 O94 1.266 . S
Co102 O105 1.970 . S
Co102 N119 1.989 . S
Co102 O127 1.967 . S
Co102 O134 1.920 . S
Co103 O106 1.966 . S
Co103 N112 2.034 . S
Co103 N120 1.993 . S
Co103 O128 1.941 . S
C104 O105 1.258 . S
C104 O106 1.263 . S
O105 Co102 1.970 . S
O105 C104 1.258 . S
O106 Co103 1.966 . S
O106 C104 1.263 . S
C107 O108 1.235 1_545 S
C107 O134 1.289 . S
O108 C107 1.235 1_565 S
C109 C111 1.400 . S
C109 N112 1.345 1_655 S
C109 C114 1.501 1_655 S
C110 C111 1.387 . S
C110 N113 1.341 . S
C111 C109 1.400 . S
C111 C110 1.387 . S
N112 Co103 2.034 . S
N112 C109 1.345 1_455 S
N112 N113 1.355 1_455 S
N113 C110 1.341 . S
N113 N112 1.355 1_655 S
N113 H133 0.862 . S
C114 C109 1.501 1_455 S
C114 H115 0.961 . S
C114 H116 0.961 1_455 S
C114 H117 0.960 . S
H115 C114 0.961 . S
H116 C114 0.961 1_655 S
H117 C114 0.960 . S
C118 N119 1.342 . S
C118 C122 1.401 . S
C118 C123 1.499 . S
N119 Co102 1.989 . S
N119 C118 1.342 . S
N119 N120 1.388 . S
N120 Co103 1.993 . S
N120 N119 1.388 . S
N120 C121 1.346 . S
C121 N120 1.346 . S
C121 C122 1.396 . S
C121 C131 1.510 1_455 S
C122 C118 1.401 . S
C122 C121 1.396 . S
C123 C118 1.499 . S
C123 H124 0.959 . S
C123 H125 0.960 1_545 S
C123 H126 0.961 . S
H124 C123 0.959 . S
H125 C123 0.960 1_565 S
H126 C123 0.961 . S
O127 Co102 1.967 . S
O127 C135 1.258 . S
O128 Co103 1.941 . S
O128 C135 1.266 . S
H129 C131 0.959 . S
H130 C131 0.961 . S
C131 C121 1.510 1_655 S
C131 H129 0.959 . S
C131 H130 0.961 . S
C131 H132 0.960 . S
H132 C131 0.960 . S
H133 N113 0.862 . S
O134 Co102 1.920 . S
O134 C107 1.289 . S
C135 O127 1.258 . S
C135 O128 1.266 . S
Co136 O139 1.970 . S
Co136 N153 1.989 . S
Co136 O161 1.967 . S
Co136 O168 1.920 . S
Co137 O140 1.966 . S
Co137 N146 2.022 . S
Co137 N154 1.993 . S
Co137 O162 1.941 . S
C138 O139 1.258 . S
C138 O140 1.263 . S
O139 Co136 1.970 . S
O139 C138 1.258 . S
O140 Co137 1.966 . S
O140 C138 1.263 . S
C141 O142 1.235 1_565 S
C141 O168 1.289 . S
O142 C141 1.235 1_545 S
C143 C145 1.400 . S
C143 N146 1.351 . S
C143 C148 1.501 . S
C144 C145 1.387 . S
C144 N147 1.341 . S
C145 C143 1.400 . S
C145 C144 1.387 . S
N146 Co137 2.022 . S
N146 C143 1.351 . S
N146 N147 1.365 . S
N147 C144 1.341 . S
N147 N146 1.365 . S
N147 H167 0.862 . S
C148 C143 1.501 . S
C148 H149 0.961 . S
C148 H150 0.961 . S
C148 H151 0.960 . S
H149 C148 0.961 . S
H150 C148 0.961 . S
H151 C148 0.960 . S
C152 N153 1.342 . S
C152 C156 1.401 . S
C152 C157 1.499 . S
N153 Co136 1.989 . S
N153 C152 1.342 . S
N153 N154 1.388 . S
N154 Co137 1.993 . S
N154 N153 1.388 . S
N154 C155 1.346 . S
C155 N154 1.346 . S
C155 C156 1.396 . S
C155 C165 1.510 . S
C156 C152 1.401 . S
C156 C155 1.396 . S
C157 C152 1.499 . S
C157 H158 0.959 . S
C157 H159 0.960 1_565 S
C157 H160 0.961 . S
H158 C157 0.959 . S
H159 C157 0.960 1_545 S
H160 C157 0.961 . S
O161 Co136 1.967 . S
O161 C169 1.258 . S
O162 Co137 1.941 . S
O162 C169 1.266 . S
H163 C165 0.959 . S
H164 C165 0.961 . S
C165 C155 1.510 . S
C165 H163 0.959 . S
C165 H164 0.961 . S
C165 H166 0.960 . S
H166 C165 0.960 . S
H167 N147 0.862 . S
O168 Co136 1.920 . S
O168 C141 1.289 . S
C169 O161 1.258 . S
C169 O162 1.266 . S
Co170 O173 1.970 . S
Co170 N187 1.989 . S
Co170 O195 1.967 . S
Co170 O202 1.920 . S
Co171 O174 1.966 . S
Co171 N180 2.034 . S
Co171 N188 1.993 . S
Co171 O196 1.941 . S
C172 O173 1.258 . S
C172 O174 1.263 . S
O173 Co170 1.970 . S
O173 C172 1.258 . S
O174 Co171 1.966 . S
O174 C172 1.263 . S
C175 O176 1.235 . S
C175 O202 1.289 . S
O176 C175 1.235 . S
C177 C179 1.400 . S
C177 N180 1.345 1_455 S
C177 C182 1.501 1_455 S
C178 C179 1.387 . S
C178 N181 1.341 . S
C179 C177 1.400 . S
C179 C178 1.387 . S
N180 Co171 2.034 . S
N180 C177 1.345 1_655 S
N180 N181 1.355 1_655 S
N181 C178 1.341 . S
N181 N180 1.355 1_455 S
N181 H201 0.862 . S
C182 C177 1.501 1_655 S
C182 H183 0.961 . S
C182 H184 0.961 1_655 S
C182 H185 0.960 . S
H183 C182 0.961 . S
H184 C182 0.961 1_455 S
H185 C182 0.960 . S
C186 N187 1.342 . S
C186 C190 1.401 . S
C186 C191 1.499 . S
N187 Co170 1.989 . S
N187 C186 1.342 . S
N187 N188 1.388 . S
N188 Co171 1.993 . S
N188 N187 1.388 . S
N188 C189 1.346 . S
C189 N188 1.346 . S
C189 C190 1.396 . S
C189 C199 1.510 1_655 S
C190 C186 1.401 . S
C190 C189 1.396 . S
C191 C186 1.499 . S
C191 H192 0.959 . S
C191 H193 0.960 . S
C191 H194 0.961 . S
H192 C191 0.959 . S
H193 C191 0.960 . S
H194 C191 0.961 . S
O195 Co170 1.967 . S
O195 C203 1.258 . S
O196 Co171 1.941 . S
O196 C203 1.266 . S
H197 C199 0.959 . S
H198 C199 0.961 . S
C199 C189 1.510 1_455 S
C199 H197 0.959 . S
C199 H198 0.961 . S
C199 H200 0.960 . S
H200 C199 0.960 . S
H201 N181 0.862 . S
O202 Co170 1.920 . S
O202 C175 1.289 . S
C203 O195 1.258 . S
C203 O196 1.266 . S
Co204 O207 1.970 . S
Co204 N221 1.989 . S
Co204 O229 1.967 . S
Co204 O236 1.920 . S
Co205 O208 1.966 . S
Co205 N214 2.022 . S
Co205 N222 1.993 . S
Co205 O230 1.941 . S
C206 O207 1.258 . S
C206 O208 1.263 . S
O207 Co204 1.970 . S
O207 C206 1.258 . S
O208 Co205 1.966 . S
O208 C206 1.263 . S
C209 O210 1.235 . S
C209 O236 1.289 . S
O210 C209 1.235 . S
C211 C213 1.400 . S
C211 N214 1.351 . S
C211 C216 1.501 . S
C212 C213 1.387 . S
C212 N215 1.341 . S
C213 C211 1.400 . S
C213 C212 1.387 . S
N214 Co205 2.022 . S
N214 C211 1.351 . S
N214 N215 1.365 . S
N215 C212 1.341 . S
N215 N214 1.365 . S
N215 H235 0.862 . S
C216 C211 1.501 . S
C216 H217 0.961 . S
C216 H218 0.961 . S
C216 H219 0.960 . S
H217 C216 0.961 . S
H218 C216 0.961 . S
H219 C216 0.960 . S
C220 N221 1.342 . S
C220 C224 1.401 . S
C220 C225 1.499 . S
N221 Co204 1.989 . S
N221 C220 1.342 . S
N221 N222 1.388 . S
N222 Co205 1.993 . S
N222 N221 1.388 . S
N222 C223 1.346 . S
C223 N222 1.346 . S
C223 C224 1.396 . S
C223 C233 1.510 . S
C224 C220 1.401 . S
C224 C223 1.396 . S
C225 C220 1.499 . S
C225 H226 0.959 . S
C225 H227 0.960 . S
C225 H228 0.961 . S
H226 C225 0.959 . S
H227 C225 0.960 . S
H228 C225 0.961 . S
O229 Co204 1.967 . S
O229 C237 1.258 . S
O230 Co205 1.941 . S
O230 C237 1.266 . S
H231 C233 0.959 . S
H232 C233 0.961 . S
C233 C223 1.510 . S
C233 H231 0.959 . S
C233 H232 0.961 . S
C233 H234 0.960 . S
H234 C233 0.960 . S
H235 N215 0.862 . S
O236 Co204 1.920 . S
O236 C209 1.289 . S
C237 O229 1.258 . S
C237 O230 1.266 . S
Co238 O241 1.970 . S
Co238 N255 1.989 . S
Co238 O263 1.967 . S
Co238 O270 1.920 . S
Co239 O242 1.966 . S
Co239 N248 2.034 . S
Co239 N256 1.993 . S
Co239 O264 1.941 . S
C240 O241 1.258 . S
C240 O242 1.263 . S
O241 Co238 1.970 . S
O241 C240 1.258 . S
O242 Co239 1.966 . S
O242 C240 1.263 . S
C243 O244 1.235 1_565 S
C243 O270 1.289 . S
O244 C243 1.235 1_545 S
C245 C247 1.400 . S
C245 N248 1.345 1_455 S
C245 C250 1.501 1_455 S
C246 C247 1.387 . S
C246 N249 1.341 . S
C247 C245 1.400 . S
C247 C246 1.387 . S
N248 Co239 2.034 . S
N248 C245 1.345 1_655 S
N248 N249 1.355 1_655 S
N249 C246 1.341 . S
N249 N248 1.355 1_455 S
N249 H269 0.862 . S
C250 C245 1.501 1_655 S
C250 H251 0.961 . S
C250 H252 0.961 1_655 S
C250 H253 0.960 . S
H251 C250 0.961 . S
H252 C250 0.961 1_455 S
H253 C250 0.960 . S
C254 N255 1.342 . S
C254 C258 1.401 . S
C254 C259 1.499 . S
N255 Co238 1.989 . S
N255 C254 1.342 . S
N255 N256 1.388 . S
N256 Co239 1.993 . S
N256 N255 1.388 . S
N256 C257 1.346 . S
C257 N256 1.346 . S
C257 C258 1.396 . S
C257 C267 1.510 1_655 S
C258 C254 1.401 . S
C258 C257 1.396 . S
C259 C254 1.499 . S
C259 H260 0.959 . S
C259 H261 0.960 1_565 S
C259 H262 0.961 . S
H260 C259 0.959 . S
H261 C259 0.960 1_545 S
H262 C259 0.961 . S
O263 Co238 1.967 . S
O263 C271 1.258 . S
O264 Co239 1.941 . S
O264 C271 1.266 . S
H265 C267 0.959 . S
H266 C267 0.961 . S
C267 C257 1.510 1_455 S
C267 H265 0.959 . S
C267 H266 0.961 . S
C267 H268 0.960 . S
H268 C267 0.960 . S
H269 N249 0.862 . S
O270 Co238 1.920 . S
O270 C243 1.289 . S
C271 O263 1.258 . S
C271 O264 1.266 . S
Co272 O275 1.970 . S
Co272 N289 1.989 . S
Co272 O297 1.967 . S
Co272 O304 1.920 . S
Co273 O276 1.966 . S
Co273 N282 2.022 . S
Co273 N290 1.993 . S
Co273 O298 1.941 . S
C274 O275 1.258 . S
C274 O276 1.263 . S
O275 Co272 1.970 . S
O275 C274 1.258 . S
O276 Co273 1.966 . S
O276 C274 1.263 . S
C277 O278 1.235 . S
C277 O304 1.289 . S
O278 C277 1.235 . S
C279 C281 1.400 . S
C279 N282 1.351 . S
C279 C284 1.501 . S
C280 C281 1.387 . S
C280 N283 1.341 . S
C281 C279 1.400 . S
C281 C280 1.387 . S
N282 Co273 2.022 . S
N282 C279 1.351 . S
N282 N283 1.365 . S
N283 C280 1.341 . S
N283 N282 1.365 . S
N283 H303 0.862 . S
C284 C279 1.501 . S
C284 H285 0.961 . S
C284 H286 0.961 . S
C284 H287 0.960 . S
H285 C284 0.961 . S
H286 C284 0.961 . S
H287 C284 0.960 . S
C288 N289 1.342 1_554 S
C288 C292 1.401 . S
C288 C293 1.499 . S
N289 Co272 1.989 . S
N289 C288 1.342 1_556 S
N289 N290 1.388 . S
N290 Co273 1.993 . S
N290 N289 1.388 . S
N290 C291 1.346 . S
C291 N290 1.346 . S
C291 C292 1.396 1_556 S
C291 C301 1.510 . S
C292 C288 1.401 . S
C292 C291 1.396 1_554 S
C293 C288 1.499 . S
C293 H294 0.959 . S
C293 H295 0.960 . S
C293 H296 0.961 . S
H294 C293 0.959 . S
H295 C293 0.960 . S
H296 C293 0.961 . S
O297 Co272 1.967 . S
O297 C305 1.258 . S
O298 Co273 1.941 . S
O298 C305 1.266 . S
H299 C301 0.959 . S
H300 C301 0.961 . S
C301 C291 1.510 . S
C301 H299 0.959 . S
C301 H300 0.961 . S
C301 H302 0.960 . S
H302 C301 0.960 . S
H303 N283 0.862 . S
O304 Co272 1.920 . S
O304 C277 1.289 . S
C305 O297 1.258 . S
C305 O298 1.266 . S
Co306 O309 1.970 . S
Co306 N323 1.989 . S
Co306 O331 1.967 . S
Co306 O338 1.920 . S
Co307 O310 1.966 . S
Co307 N316 2.034 . S
Co307 N324 1.993 . S
Co307 O332 1.941 . S
C308 O309 1.258 . S
C308 O310 1.263 . S
O309 Co306 1.970 . S
O309 C308 1.258 . S
O310 Co307 1.966 . S
O310 C308 1.263 . S
C311 O312 1.235 . S
C311 O338 1.289 . S
O312 C311 1.235 . S
C313 C315 1.400 . S
C313 N316 1.345 1_655 S
C313 C318 1.501 1_655 S
C314 C315 1.387 . S
C314 N317 1.341 . S
C315 C313 1.400 . S
C315 C314 1.387 . S
N316 Co307 2.034 . S
N316 C313 1.345 1_455 S
N316 N317 1.355 1_455 S
N317 C314 1.341 . S
N317 N316 1.355 1_655 S
N317 H337 0.862 . S
C318 C313 1.501 1_455 S
C318 H319 0.961 . S
C318 H320 0.961 1_455 S
C318 H321 0.960 . S
H319 C318 0.961 . S
H320 C318 0.961 1_655 S
H321 C318 0.960 . S
C322 N323 1.342 1_554 S
C322 C326 1.401 . S
C322 C327 1.499 . S
N323 Co306 1.989 . S
N323 C322 1.342 1_556 S
N323 N324 1.388 . S
N324 Co307 1.993 . S
N324 N323 1.388 . S
N324 C325 1.346 . S
C325 N324 1.346 . S
C325 C326 1.396 1_556 S
C325 C335 1.510 1_455 S
C326 C322 1.401 . S
C326 C325 1.396 1_554 S
C327 C322 1.499 . S
C327 H328 0.959 . S
C327 H329 0.960 . S
C327 H330 0.961 . S
H328 C327 0.959 . S
H329 C327 0.960 . S
H330 C327 0.961 . S
O331 Co306 1.967 . S
O331 C339 1.258 . S
O332 Co307 1.941 . S
O332 C339 1.266 . S
H333 C335 0.959 . S
H334 C335 0.961 . S
C335 C325 1.510 1_655 S
C335 H333 0.959 . S
C335 H334 0.961 . S
C335 H336 0.960 . S
H336 C335 0.960 . S
H337 N317 0.862 . S
O338 Co306 1.920 . S
O338 C311 1.289 . S
C339 O331 1.258 . S
C339 O332 1.266 . S
Co340 O343 1.970 . S
Co340 N357 1.989 . S
Co340 O365 1.967 . S
Co340 O372 1.920 . S
Co341 O344 1.966 . S
Co341 N350 2.022 . S
Co341 N358 1.993 . S
Co341 O366 1.941 . S
C342 O343 1.258 . S
C342 O344 1.263 . S
O343 Co340 1.970 . S
O343 C342 1.258 . S
O344 Co341 1.966 . S
O344 C342 1.263 . S
C345 O346 1.235 . S
C345 O372 1.289 . S
O346 C345 1.235 . S
C347 C349 1.400 . S
C347 N350 1.351 . S
C347 C352 1.501 . S
C348 C349 1.387 . S
C348 N351 1.341 . S
C349 C347 1.400 . S
C349 C348 1.387 . S
N350 Co341 2.022 . S
N350 C347 1.351 . S
N350 N351 1.365 . S
N351 C348 1.341 . S
N351 N350 1.365 . S
N351 H371 0.862 . S
C352 C347 1.501 . S
C352 H353 0.961 . S
C352 H354 0.961 . S
C352 H355 0.960 . S
H353 C352 0.961 . S
H354 C352 0.961 . S
H355 C352 0.960 . S
C356 N357 1.342 . S
C356 C360 1.401 . S
C356 C361 1.499 . S
N357 Co340 1.989 . S
N357 C356 1.342 . S
N357 N358 1.388 . S
N358 Co341 1.993 . S
N358 N357 1.388 . S
N358 C359 1.346 . S
C359 N358 1.346 . S
C359 C360 1.396 . S
C359 C369 1.510 . S
C360 C356 1.401 . S
C360 C359 1.396 . S
C361 C356 1.499 . S
C361 H362 0.959 . S
C361 H363 0.960 . S
C361 H364 0.961 . S
H362 C361 0.959 . S
H363 C361 0.960 . S
H364 C361 0.961 . S
O365 Co340 1.967 . S
O365 C373 1.258 . S
O366 Co341 1.941 . S
O366 C373 1.266 . S
H367 C369 0.959 . S
H368 C369 0.961 . S
C369 C359 1.510 . S
C369 H367 0.959 . S
C369 H368 0.961 . S
C369 H370 0.960 . S
H370 C369 0.960 . S
H371 N351 0.862 . S
O372 Co340 1.920 . S
O372 C345 1.289 . S
C373 O365 1.258 . S
C373 O366 1.266 . S
Co374 O377 1.970 . S
Co374 N391 1.989 . S
Co374 O399 1.967 . S
Co374 O406 1.920 . S
Co375 O378 1.966 . S
Co375 N384 2.034 . S
Co375 N392 1.993 . S
Co375 O400 1.941 . S
C376 O377 1.258 . S
C376 O378 1.263 . S
O377 Co374 1.970 . S
O377 C376 1.258 . S
O378 Co375 1.966 . S
O378 C376 1.263 . S
C379 O380 1.235 . S
C379 O406 1.289 . S
O380 C379 1.235 . S
C381 C383 1.400 . S
C381 N384 1.345 1_655 S
C381 C386 1.501 1_655 S
C382 C383 1.387 . S
C382 N385 1.341 . S
C383 C381 1.400 . S
C383 C382 1.387 . S
N384 Co375 2.034 . S
N384 C381 1.345 1_455 S
N384 N385 1.355 1_455 S
N385 C382 1.341 . S
N385 N384 1.355 1_655 S
N385 H405 0.862 . S
C386 C381 1.501 1_455 S
C386 H387 0.961 . S
C386 H388 0.961 1_455 S
C386 H389 0.960 . S
H387 C386 0.961 . S
H388 C386 0.961 1_655 S
H389 C386 0.960 . S
C390 N391 1.342 . S
C390 C394 1.401 . S
C390 C395 1.499 . S
N391 Co374 1.989 . S
N391 C390 1.342 . S
N391 N392 1.388 . S
N392 Co375 1.993 . S
N392 N391 1.388 . S
N392 C393 1.346 . S
C393 N392 1.346 . S
C393 C394 1.396 . S
C393 C403 1.510 1_455 S
C394 C390 1.401 . S
C394 C393 1.396 . S
C395 C390 1.499 . S
C395 H396 0.959 . S
C395 H397 0.960 . S
C395 H398 0.961 . S
H396 C395 0.959 . S
H397 C395 0.960 . S
H398 C395 0.961 . S
O399 Co374 1.967 . S
O399 C407 1.258 . S
O400 Co375 1.941 . S
O400 C407 1.266 . S
H401 C403 0.959 . S
H402 C403 0.961 . S
C403 C393 1.510 1_655 S
C403 H401 0.959 . S
C403 H402 0.961 . S
C403 H404 0.960 . S
H404 C403 0.960 . S
H405 N385 0.862 . S
O406 Co374 1.920 . S
O406 C379 1.289 . S
C407 O399 1.258 . S
C407 O400 1.266 . S
Co408 O411 1.970 . S
Co408 N425 1.989 . S
Co408 O433 1.967 . S
Co408 O440 1.920 . S
Co409 O412 1.966 . S
Co409 N418 2.022 . S
Co409 N426 1.993 . S
Co409 O434 1.941 . S
C410 O411 1.258 . S
C410 O412 1.263 . S
O411 Co408 1.970 . S
O411 C410 1.258 . S
O412 Co409 1.966 . S
O412 C410 1.263 . S
C413 O414 1.235 . S
C413 O440 1.289 . S
O414 C413 1.235 . S
C415 C417 1.400 . S
C415 N418 1.351 . S
C415 C420 1.501 . S
C416 C417 1.387 . S
C416 N419 1.341 . S
C417 C415 1.400 . S
C417 C416 1.387 . S
N418 Co409 2.022 . S
N418 C415 1.351 . S
N418 N419 1.365 . S
N419 C416 1.341 . S
N419 N418 1.365 . S
N419 H439 0.862 . S
C420 C415 1.501 . S
C420 H421 0.961 . S
C420 H422 0.961 . S
C420 H423 0.960 . S
H421 C420 0.961 . S
H422 C420 0.961 . S
H423 C420 0.960 . S
C424 N425 1.342 1_556 S
C424 C428 1.401 . S
C424 C429 1.499 . S
N425 Co408 1.989 . S
N425 C424 1.342 1_554 S
N425 N426 1.388 . S
N426 Co409 1.993 . S
N426 N425 1.388 . S
N426 C427 1.346 . S
C427 N426 1.346 . S
C427 C428 1.396 1_554 S
C427 C437 1.510 . S
C428 C424 1.401 . S
C428 C427 1.396 1_556 S
C429 C424 1.499 . S
C429 H430 0.959 . S
C429 H431 0.960 . S
C429 H432 0.961 . S
H430 C429 0.959 . S
H431 C429 0.960 . S
H432 C429 0.961 . S
O433 Co408 1.967 . S
O433 C441 1.258 . S
O434 Co409 1.941 . S
O434 C441 1.266 . S
H435 C437 0.959 . S
H436 C437 0.961 . S
C437 C427 1.510 . S
C437 H435 0.959 . S
C437 H436 0.961 . S
C437 H438 0.960 . S
H438 C437 0.960 . S
H439 N419 0.862 . S
O440 Co408 1.920 . S
O440 C413 1.289 . S
C441 O433 1.258 . S
C441 O434 1.266 . S
Co442 O445 1.970 . S
Co442 N459 1.989 . S
Co442 O467 1.967 . S
Co442 O474 1.920 . S
Co443 O446 1.966 . S
Co443 N452 2.034 . S
Co443 N460 1.993 . S
Co443 O468 1.941 . S
C444 O445 1.258 . S
C444 O446 1.263 . S
O445 Co442 1.970 . S
O445 C444 1.258 . S
O446 Co443 1.966 . S
O446 C444 1.263 . S
C447 O448 1.235 . S
C447 O474 1.289 . S
O448 C447 1.235 . S
C449 C451 1.400 . S
C449 N452 1.345 1_455 S
C449 C454 1.501 1_455 S
C450 C451 1.387 . S
C450 N453 1.341 . S
C451 C449 1.400 . S
C451 C450 1.387 . S
N452 Co443 2.034 . S
N452 C449 1.345 1_655 S
N452 N453 1.355 1_655 S
N453 C450 1.341 . S
N453 N452 1.355 1_455 S
N453 H473 0.862 . S
C454 C449 1.501 1_655 S
C454 H455 0.961 . S
C454 H456 0.961 1_655 S
C454 H457 0.960 . S
H455 C454 0.961 . S
H456 C454 0.961 1_455 S
H457 C454 0.960 . S
C458 N459 1.342 1_556 S
C458 C462 1.401 . S
C458 C463 1.499 . S
N459 Co442 1.989 . S
N459 C458 1.342 1_554 S
N459 N460 1.388 . S
N460 Co443 1.993 . S
N460 N459 1.388 . S
N460 C461 1.346 . S
C461 N460 1.346 . S
C461 C462 1.396 1_554 S
C461 C471 1.510 1_655 S
C462 C458 1.401 . S
C462 C461 1.396 1_556 S
C463 C458 1.499 . S
C463 H464 0.959 . S
C463 H465 0.960 . S
C463 H466 0.961 . S
H464 C463 0.959 . S
H465 C463 0.960 . S
H466 C463 0.961 . S
O467 Co442 1.967 . S
O467 C475 1.258 . S
O468 Co443 1.941 . S
O468 C475 1.266 . S
H469 C471 0.959 . S
H470 C471 0.961 . S
C471 C461 1.510 1_455 S
C471 H469 0.959 . S
C471 H470 0.961 . S
C471 H472 0.960 . S
H472 C471 0.960 . S
H473 N453 0.862 . S
O474 Co442 1.920 . S
O474 C447 1.289 . S
C475 O467 1.258 . S
C475 O468 1.266 . S
Co476 O479 1.970 . S
Co476 N493 1.989 . S
Co476 O501 1.967 . S
Co476 O508 1.920 . S
Co477 O480 1.966 . S
Co477 N486 2.022 . S
Co477 N494 1.993 . S
Co477 O502 1.941 . S
C478 O479 1.258 . S
C478 O480 1.263 . S
O479 Co476 1.970 . S
O479 C478 1.258 . S
O480 Co477 1.966 . S
O480 C478 1.263 . S
C481 O482 1.235 . S
C481 O508 1.289 . S
O482 C481 1.235 . S
C483 C485 1.400 . S
C483 N486 1.351 . S
C483 C488 1.501 . S
C484 C485 1.387 . S
C484 N487 1.341 . S
C485 C483 1.400 . S
C485 C484 1.387 . S
N486 Co477 2.022 . S
N486 C483 1.351 . S
N486 N487 1.365 . S
N487 C484 1.341 . S
N487 N486 1.365 . S
N487 H507 0.862 . S
C488 C483 1.501 . S
C488 H489 0.961 . S
C488 H490 0.961 . S
C488 H491 0.960 . S
H489 C488 0.961 . S
H490 C488 0.961 . S
H491 C488 0.960 . S
C492 N493 1.342 . S
C492 C496 1.401 . S
C492 C497 1.499 . S
N493 Co476 1.989 . S
N493 C492 1.342 . S
N493 N494 1.388 . S
N494 Co477 1.993 . S
N494 N493 1.388 . S
N494 C495 1.346 . S
C495 N494 1.346 . S
C495 C496 1.396 . S
C495 C505 1.510 . S
C496 C492 1.401 . S
C496 C495 1.396 . S
C497 C492 1.499 . S
C497 H498 0.959 . S
C497 H499 0.960 . S
C497 H500 0.961 . S
H498 C497 0.959 . S
H499 C497 0.960 . S
H500 C497 0.961 . S
O501 Co476 1.967 . S
O501 C509 1.258 . S
O502 Co477 1.941 . S
O502 C509 1.266 . S
H503 C505 0.959 . S
H504 C505 0.961 . S
C505 C495 1.510 . S
C505 H503 0.959 . S
C505 H504 0.961 . S
C505 H506 0.960 . S
H506 C505 0.960 . S
H507 N487 0.862 . S
O508 Co476 1.920 . S
O508 C481 1.289 . S
C509 O501 1.258 . S
C509 O502 1.266 . S
Co510 O513 1.970 . S
Co510 N527 1.989 . S
Co510 O535 1.967 . S
Co510 O542 1.920 . S
Co511 O514 1.966 . S
Co511 N520 2.034 . S
Co511 N528 1.993 . S
Co511 O536 1.941 . S
C512 O513 1.258 . S
C512 O514 1.263 . S
O513 Co510 1.970 . S
O513 C512 1.258 . S
O514 Co511 1.966 . S
O514 C512 1.263 . S
C515 O516 1.235 . S
C515 O542 1.289 . S
O516 C515 1.235 . S
C517 C519 1.400 . S
C517 N520 1.345 1_455 S
C517 C522 1.501 1_455 S
C518 C519 1.387 . S
C518 N521 1.341 . S
C519 C517 1.400 . S
C519 C518 1.387 . S
N520 Co511 2.034 . S
N520 C517 1.345 1_655 S
N520 N521 1.355 1_655 S
N521 C518 1.341 . S
N521 N520 1.355 1_455 S
N521 H541 0.862 . S
C522 C517 1.501 1_655 S
C522 H523 0.961 . S
C522 H524 0.961 1_655 S
C522 H525 0.960 . S
H523 C522 0.961 . S
H524 C522 0.961 1_455 S
H525 C522 0.960 . S
C526 N527 1.342 . S
C526 C530 1.401 . S
C526 C531 1.499 . S
N527 Co510 1.989 . S
N527 C526 1.342 . S
N527 N528 1.388 . S
N528 Co511 1.993 . S
N528 N527 1.388 . S
N528 C529 1.346 . S
C529 N528 1.346 . S
C529 C530 1.396 . S
C529 C539 1.510 1_655 S
C530 C526 1.401 . S
C530 C529 1.396 . S
C531 C526 1.499 . S
C531 H532 0.959 . S
C531 H533 0.960 . S
C531 H534 0.961 . S
H532 C531 0.959 . S
H533 C531 0.960 . S
H534 C531 0.961 . S
O535 Co510 1.967 . S
O535 C543 1.258 . S
O536 Co511 1.941 . S
O536 C543 1.266 . S
H537 C539 0.959 . S
H538 C539 0.961 . S
C539 C529 1.510 1_455 S
C539 H537 0.959 . S
C539 H538 0.961 . S
C539 H540 0.960 . S
H540 C539 0.960 . S
H541 N521 0.862 . S
O542 Co510 1.920 . S
O542 C515 1.289 . S
C543 O535 1.258 . S
C543 O536 1.266 . S
Co544 O547 1.970 . S
Co544 N561 1.989 . S
Co544 O569 1.967 . S
Co544 O576 1.920 . S
Co545 O548 1.966 . S
Co545 N554 2.022 . S
Co545 N562 1.993 . S
Co545 O570 1.941 . S
C546 O547 1.258 . S
C546 O548 1.263 . S
O547 Co544 1.970 . S
O547 C546 1.258 . S
O548 Co545 1.966 . S
O548 C546 1.263 . S
C549 O550 1.235 1_545 S
C549 O576 1.289 . S
O550 C549 1.235 1_565 S
C551 C553 1.400 . S
C551 N554 1.351 . S
C551 C556 1.501 . S
C552 C553 1.387 . S
C552 N555 1.341 . S
C553 C551 1.400 . S
C553 C552 1.387 . S
N554 Co545 2.022 . S
N554 C551 1.351 . S
N554 N555 1.365 . S
N555 C552 1.341 . S
N555 N554 1.365 . S
N555 H575 0.862 . S
C556 C551 1.501 . S
C556 H557 0.961 . S
C556 H558 0.961 . S
C556 H559 0.960 . S
H557 C556 0.961 . S
H558 C556 0.961 . S
H559 C556 0.960 . S
C560 N561 1.342 1_554 S
C560 C564 1.401 . S
C560 C565 1.499 . S
N561 Co544 1.989 . S
N561 C560 1.342 1_556 S
N561 N562 1.388 . S
N562 Co545 1.993 . S
N562 N561 1.388 . S
N562 C563 1.346 . S
C563 N562 1.346 . S
C563 C564 1.396 1_556 S
C563 C573 1.510 . S
C564 C560 1.401 . S
C564 C563 1.396 1_554 S
C565 C560 1.499 . S
C565 H566 0.959 . S
C565 H567 0.960 1_545 S
C565 H568 0.961 . S
H566 C565 0.959 . S
H567 C565 0.960 1_565 S
H568 C565 0.961 . S
O569 Co544 1.967 . S
O569 C577 1.258 . S
O570 Co545 1.941 . S
O570 C577 1.266 . S
H571 C573 0.959 . S
H572 C573 0.961 . S
C573 C563 1.510 . S
C573 H571 0.959 . S
C573 H572 0.961 . S
C573 H574 0.960 . S
H574 C573 0.960 . S
H575 N555 0.862 . S
O576 Co544 1.920 . S
O576 C549 1.289 . S
C577 O569 1.258 . S
C577 O570 1.266 . S
Co578 O581 1.970 . S
Co578 N595 1.989 . S
Co578 O603 1.967 . S
Co578 O610 1.920 . S
Co579 O582 1.966 . S
Co579 N588 2.022 . S
Co579 N596 1.993 . S
Co579 O604 1.941 . S
C580 O581 1.258 . S
C580 O582 1.263 . S
O581 Co578 1.970 . S
O581 C580 1.258 . S
O582 Co579 1.966 . S
O582 C580 1.263 . S
C583 O584 1.235 . S
C583 O610 1.289 . S
O584 C583 1.235 . S
C585 C587 1.400 . S
C585 N588 1.351 . S
C585 C590 1.501 . S
C586 C587 1.387 . S
C586 N589 1.341 . S
C587 C585 1.400 . S
C587 C586 1.387 . S
N588 Co579 2.022 . S
N588 C585 1.351 . S
N588 N589 1.365 . S
N589 C586 1.341 . S
N589 N588 1.365 . S
N589 H609 0.862 . S
C590 C585 1.501 . S
C590 H591 0.961 . S
C590 H592 0.961 . S
C590 H593 0.960 . S
H591 C590 0.961 . S
H592 C590 0.961 . S
H593 C590 0.960 . S
C594 N595 1.342 1_554 S
C594 C598 1.401 . S
C594 C599 1.499 . S
N595 Co578 1.989 . S
N595 C594 1.342 1_556 S
N595 N596 1.388 . S
N596 Co579 1.993 . S
N596 N595 1.388 . S
N596 C597 1.346 . S
C597 N596 1.346 . S
C597 C598 1.396 1_556 S
C597 C607 1.510 . S
C598 C594 1.401 . S
C598 C597 1.396 1_554 S
C599 C594 1.499 . S
C599 H600 0.959 . S
C599 H601 0.960 . S
C599 H602 0.961 . S
H600 C599 0.959 . S
H601 C599 0.960 . S
H602 C599 0.961 . S
O603 Co578 1.967 . S
O603 C611 1.258 . S
O604 Co579 1.941 . S
O604 C611 1.266 . S
H605 C607 0.959 . S
H606 C607 0.961 . S
C607 C597 1.510 . S
C607 H605 0.959 . S
C607 H606 0.961 . S
C607 H608 0.960 . S
H608 C607 0.960 . S
H609 N589 0.862 . S
O610 Co578 1.920 . S
O610 C583 1.289 . S
C611 O603 1.258 . S
C611 O604 1.266 . S
Co612 O615 1.970 . S
Co612 N629 1.989 . S
Co612 O637 1.967 . S
Co612 O644 1.920 . S
Co613 O616 1.966 . S
Co613 N622 2.022 . S
Co613 N630 1.993 . S
Co613 O638 1.941 . S
C614 O615 1.258 . S
C614 O616 1.263 . S
O615 Co612 1.970 . S
O615 C614 1.258 . S
O616 Co613 1.966 . S
O616 C614 1.263 . S
C617 O618 1.235 . S
C617 O644 1.289 . S
O618 C617 1.235 . S
C619 C621 1.400 . S
C619 N622 1.351 . S
C619 C624 1.501 . S
C620 C621 1.387 . S
C620 N623 1.341 . S
C621 C619 1.400 . S
C621 C620 1.387 . S
N622 Co613 2.022 . S
N622 C619 1.351 . S
N622 N623 1.365 . S
N623 C620 1.341 . S
N623 N622 1.365 . S
N623 H643 0.862 . S
C624 C619 1.501 . S
C624 H625 0.961 . S
C624 H626 0.961 . S
C624 H627 0.960 . S
H625 C624 0.961 . S
H626 C624 0.961 . S
H627 C624 0.960 . S
C628 N629 1.342 . S
C628 C632 1.401 . S
C628 C633 1.499 . S
N629 Co612 1.989 . S
N629 C628 1.342 . S
N629 N630 1.388 . S
N630 Co613 1.993 . S
N630 N629 1.388 . S
N630 C631 1.346 . S
C631 N630 1.346 . S
C631 C632 1.396 . S
C631 C641 1.510 . S
C632 C628 1.401 . S
C632 C631 1.396 . S
C633 C628 1.499 . S
C633 H634 0.959 . S
C633 H635 0.960 . S
C633 H636 0.961 . S
H634 C633 0.959 . S
H635 C633 0.960 . S
H636 C633 0.961 . S
O637 Co612 1.967 . S
O637 C645 1.258 . S
O638 Co613 1.941 . S
O638 C645 1.266 . S
H639 C641 0.959 . S
H640 C641 0.961 . S
C641 C631 1.510 . S
C641 H639 0.959 . S
C641 H640 0.961 . S
C641 H642 0.960 . S
H642 C641 0.960 . S
H643 N623 0.862 . S
O644 Co612 1.920 . S
O644 C617 1.289 . S
C645 O637 1.258 . S
C645 O638 1.266 . S
Co646 O649 1.970 . S
Co646 N663 1.989 . S
Co646 O671 1.967 . S
Co646 O678 1.920 . S
Co647 O650 1.966 . S
Co647 N656 2.022 . S
Co647 N664 1.993 . S
Co647 O672 1.941 . S
C648 O649 1.258 . S
C648 O650 1.263 . S
O649 Co646 1.970 . S
O649 C648 1.258 . S
O650 Co647 1.966 . S
O650 C648 1.263 . S
C651 O652 1.235 1_545 S
C651 O678 1.289 . S
O652 C651 1.235 1_565 S
C653 C655 1.400 . S
C653 N656 1.351 . S
C653 C658 1.501 . S
C654 C655 1.387 . S
C654 N657 1.341 . S
C655 C653 1.400 . S
C655 C654 1.387 . S
N656 Co647 2.022 . S
N656 C653 1.351 . S
N656 N657 1.365 . S
N657 C654 1.341 . S
N657 N656 1.365 . S
N657 H677 0.862 . S
C658 C653 1.501 . S
C658 H659 0.961 . S
C658 H660 0.961 . S
C658 H661 0.960 . S
H659 C658 0.961 . S
H660 C658 0.961 . S
H661 C658 0.960 . S
C662 N663 1.342 . S
C662 C666 1.401 . S
C662 C667 1.499 . S
N663 Co646 1.989 . S
N663 C662 1.342 . S
N663 N664 1.388 . S
N664 Co647 1.993 . S
N664 N663 1.388 . S
N664 C665 1.346 . S
C665 N664 1.346 . S
C665 C666 1.396 . S
C665 C675 1.510 . S
C666 C662 1.401 . S
C666 C665 1.396 . S
C667 C662 1.499 . S
C667 H668 0.959 . S
C667 H669 0.960 1_545 S
C667 H670 0.961 . S
H668 C667 0.959 . S
H669 C667 0.960 1_565 S
H670 C667 0.961 . S
O671 Co646 1.967 . S
O671 C679 1.258 . S
O672 Co647 1.941 . S
O672 C679 1.266 . S
H673 C675 0.959 . S
H674 C675 0.961 . S
C675 C665 1.510 . S
C675 H673 0.959 . S
C675 H674 0.961 . S
C675 H676 0.960 . S
H676 C675 0.960 . S
H677 N657 0.862 . S
O678 Co646 1.920 . S
O678 C651 1.289 . S
C679 O671 1.258 . S
C679 O672 1.266 . S
Co680 O683 1.970 . S
Co680 N697 1.989 . S
Co680 O705 1.967 . S
Co680 O712 1.920 . S
Co681 O684 1.966 . S
Co681 N690 2.022 . S
Co681 N698 1.993 . S
Co681 O706 1.941 . S
C682 O683 1.258 . S
C682 O684 1.263 . S
O683 Co680 1.970 . S
O683 C682 1.258 . S
O684 Co681 1.966 . S
O684 C682 1.263 . S
C685 O686 1.235 1_565 S
C685 O712 1.289 . S
O686 C685 1.235 1_545 S
C687 C689 1.400 . S
C687 N690 1.351 . S
C687 C692 1.501 . S
C688 C689 1.387 . S
C688 N691 1.341 . S
C689 C687 1.400 . S
C689 C688 1.387 . S
N690 Co681 2.022 . S
N690 C687 1.351 . S
N690 N691 1.365 . S
N691 C688 1.341 . S
N691 N690 1.365 . S
N691 H711 0.862 . S
C692 C687 1.501 . S
C692 H693 0.961 . S
C692 H694 0.961 . S
C692 H695 0.960 . S
H693 C692 0.961 . S
H694 C692 0.961 . S
H695 C692 0.960 . S
C696 N697 1.342 1_556 S
C696 C700 1.401 . S
C696 C701 1.499 . S
N697 Co680 1.989 . S
N697 C696 1.342 1_554 S
N697 N698 1.388 . S
N698 Co681 1.993 . S
N698 N697 1.388 . S
N698 C699 1.346 . S
C699 N698 1.346 . S
C699 C700 1.396 1_554 S
C699 C709 1.510 . S
C700 C696 1.401 . S
C700 C699 1.396 1_556 S
C701 C696 1.499 . S
C701 H702 0.959 . S
C701 H703 0.960 1_565 S
C701 H704 0.961 . S
H702 C701 0.959 . S
H703 C701 0.960 1_545 S
H704 C701 0.961 . S
O705 Co680 1.967 . S
O705 C713 1.258 . S
O706 Co681 1.941 . S
O706 C713 1.266 . S
H707 C709 0.959 . S
H708 C709 0.961 . S
C709 C699 1.510 . S
C709 H707 0.959 . S
C709 H708 0.961 . S
C709 H710 0.960 . S
H710 C709 0.960 . S
H711 N691 0.862 . S
O712 Co680 1.920 . S
O712 C685 1.289 . S
C713 O705 1.258 . S
C713 O706 1.266 . S
Co714 O717 1.970 . S
Co714 N731 1.989 . S
Co714 O739 1.967 . S
Co714 O746 1.920 . S
Co715 O718 1.966 . S
Co715 N724 2.022 . S
Co715 N732 1.993 . S
Co715 O740 1.941 . S
C716 O717 1.258 . S
C716 O718 1.263 . S
O717 Co714 1.970 . S
O717 C716 1.258 . S
O718 Co715 1.966 . S
O718 C716 1.263 . S
C719 O720 1.235 . S
C719 O746 1.289 . S
O720 C719 1.235 . S
C721 C723 1.400 . S
C721 N724 1.351 . S
C721 C726 1.501 . S
C722 C723 1.387 . S
C722 N725 1.341 . S
C723 C721 1.400 . S
C723 C722 1.387 . S
N724 Co715 2.022 . S
N724 C721 1.351 . S
N724 N725 1.365 . S
N725 C722 1.341 . S
N725 N724 1.365 . S
N725 H745 0.862 . S
C726 C721 1.501 . S
C726 H727 0.961 . S
C726 H728 0.961 . S
C726 H729 0.960 . S
H727 C726 0.961 . S
H728 C726 0.961 . S
H729 C726 0.960 . S
C730 N731 1.342 1_556 S
C730 C734 1.401 . S
C730 C735 1.499 . S
N731 Co714 1.989 . S
N731 C730 1.342 1_554 S
N731 N732 1.388 . S
N732 Co715 1.993 . S
N732 N731 1.388 . S
N732 C733 1.346 . S
C733 N732 1.346 . S
C733 C734 1.396 1_554 S
C733 C743 1.510 . S
C734 C730 1.401 . S
C734 C733 1.396 1_556 S
C735 C730 1.499 . S
C735 H736 0.959 . S
C735 H737 0.960 . S
C735 H738 0.961 . S
H736 C735 0.959 . S
H737 C735 0.960 . S
H738 C735 0.961 . S
O739 Co714 1.967 . S
O739 C747 1.258 . S
O740 Co715 1.941 . S
O740 C747 1.266 . S
H741 C743 0.959 . S
H742 C743 0.961 . S
C743 C733 1.510 . S
C743 H741 0.959 . S
C743 H742 0.961 . S
C743 H744 0.960 . S
H744 C743 0.960 . S
H745 N725 0.862 . S
O746 Co714 1.920 . S
O746 C719 1.289 . S
C747 O739 1.258 . S
C747 O740 1.266 . S
Co748 O751 1.970 . S
Co748 N765 1.989 . S
Co748 O773 1.967 . S
Co748 O780 1.920 . S
Co749 O752 1.966 . S
Co749 N758 2.022 . S
Co749 N766 1.993 . S
Co749 O774 1.941 . S
C750 O751 1.258 . S
C750 O752 1.263 . S
O751 Co748 1.970 . S
O751 C750 1.258 . S
O752 Co749 1.966 . S
O752 C750 1.263 . S
C753 O754 1.235 . S
C753 O780 1.289 . S
O754 C753 1.235 . S
C755 C757 1.400 . S
C755 N758 1.351 . S
C755 C760 1.501 . S
C756 C757 1.387 . S
C756 N759 1.341 . S
C757 C755 1.400 . S
C757 C756 1.387 . S
N758 Co749 2.022 . S
N758 C755 1.351 . S
N758 N759 1.365 . S
N759 C756 1.341 . S
N759 N758 1.365 . S
N759 H779 0.862 . S
C760 C755 1.501 . S
C760 H761 0.961 . S
C760 H762 0.961 . S
C760 H763 0.960 . S
H761 C760 0.961 . S
H762 C760 0.961 . S
H763 C760 0.960 . S
C764 N765 1.342 . S
C764 C768 1.401 . S
C764 C769 1.499 . S
N765 Co748 1.989 . S
N765 C764 1.342 . S
N765 N766 1.388 . S
N766 Co749 1.993 . S
N766 N765 1.388 . S
N766 C767 1.346 . S
C767 N766 1.346 . S
C767 C768 1.396 . S
C767 C777 1.510 . S
C768 C764 1.401 . S
C768 C767 1.396 . S
C769 C764 1.499 . S
C769 H770 0.959 . S
C769 H771 0.960 . S
C769 H772 0.961 . S
H770 C769 0.959 . S
H771 C769 0.960 . S
H772 C769 0.961 . S
O773 Co748 1.967 . S
O773 C781 1.258 . S
O774 Co749 1.941 . S
O774 C781 1.266 . S
H775 C777 0.959 . S
H776 C777 0.961 . S
C777 C767 1.510 . S
C777 H775 0.959 . S
C777 H776 0.961 . S
C777 H778 0.960 . S
H778 C777 0.960 . S
H779 N759 0.862 . S
O780 Co748 1.920 . S
O780 C753 1.289 . S
C781 O773 1.258 . S
C781 O774 1.266 . S
Co782 O785 1.970 . S
Co782 N799 1.989 . S
Co782 O807 1.967 . S
Co782 O814 1.920 . S
Co783 O786 1.966 . S
Co783 N792 2.022 . S
Co783 N800 1.993 . S
Co783 O808 1.941 . S
C784 O785 1.258 . S
C784 O786 1.263 . S
O785 Co782 1.970 . S
O785 C784 1.258 . S
O786 Co783 1.966 . S
O786 C784 1.263 . S
C787 O788 1.235 1_565 S
C787 O814 1.289 . S
O788 C787 1.235 1_545 S
C789 C791 1.400 . S
C789 N792 1.351 . S
C789 C794 1.501 . S
C790 C791 1.387 . S
C790 N793 1.341 . S
C791 C789 1.400 . S
C791 C790 1.387 . S
N792 Co783 2.022 . S
N792 C789 1.351 . S
N792 N793 1.365 . S
N793 C790 1.341 . S
N793 N792 1.365 . S
N793 H813 0.862 . S
C794 C789 1.501 . S
C794 H795 0.961 . S
C794 H796 0.961 . S
C794 H797 0.960 . S
H795 C794 0.961 . S
H796 C794 0.961 . S
H797 C794 0.960 . S
C798 N799 1.342 . S
C798 C802 1.401 . S
C798 C803 1.499 . S
N799 Co782 1.989 . S
N799 C798 1.342 . S
N799 N800 1.388 . S
N800 Co783 1.993 . S
N800 N799 1.388 . S
N800 C801 1.346 . S
C801 N800 1.346 . S
C801 C802 1.396 . S
C801 C811 1.510 . S
C802 C798 1.401 . S
C802 C801 1.396 . S
C803 C798 1.499 . S
C803 H804 0.959 . S
C803 H805 0.960 1_565 S
C803 H806 0.961 . S
H804 C803 0.959 . S
H805 C803 0.960 1_545 S
H806 C803 0.961 . S
O807 Co782 1.967 . S
O807 C815 1.258 . S
O808 Co783 1.941 . S
O808 C815 1.266 . S
H809 C811 0.959 . S
H810 C811 0.961 . S
C811 C801 1.510 . S
C811 H809 0.959 . S
C811 H810 0.961 . S
C811 H812 0.960 . S
H812 C811 0.960 . S
H813 N793 0.862 . S
O814 Co782 1.920 . S
O814 C787 1.289 . S
C815 O807 1.258 . S
C815 O808 1.266 . S
Co816 O819 1.970 . S
Co816 N833 1.989 . S
Co816 O841 1.967 . S
Co816 O848 1.920 . S
Co817 O820 1.966 . S
Co817 N826 2.022 . S
Co817 N834 1.993 . S
Co817 O842 1.941 . S
C818 O819 1.258 . S
C818 O820 1.263 . S
O819 Co816 1.970 . S
O819 C818 1.258 . S
O820 Co817 1.966 . S
O820 C818 1.263 . S
C821 O822 1.235 . S
C821 O848 1.289 . S
O822 C821 1.235 . S
C823 C825 1.400 . S
C823 N826 1.351 . S
C823 C828 1.501 . S
C824 C825 1.387 . S
C824 N827 1.341 . S
C825 C823 1.400 . S
C825 C824 1.387 . S
N826 Co817 2.022 . S
N826 C823 1.351 . S
N826 N827 1.365 . S
N827 C824 1.341 . S
N827 N826 1.365 . S
N827 H847 0.862 . S
C828 C823 1.501 . S
C828 H829 0.961 . S
C828 H830 0.961 . S
C828 H831 0.960 . S
H829 C828 0.961 . S
H830 C828 0.961 . S
H831 C828 0.960 . S
C832 N833 1.342 . S
C832 C836 1.401 . S
C832 C837 1.499 . S
N833 Co816 1.989 . S
N833 C832 1.342 . S
N833 N834 1.388 . S
N834 Co817 1.993 . S
N834 N833 1.388 . S
N834 C835 1.346 . S
C835 N834 1.346 . S
C835 C836 1.396 . S
C835 C845 1.510 . S
C836 C832 1.401 . S
C836 C835 1.396 . S
C837 C832 1.499 . S
C837 H838 0.959 . S
C837 H839 0.960 . S
C837 H840 0.961 . S
H838 C837 0.959 . S
H839 C837 0.960 . S
H840 C837 0.961 . S
O841 Co816 1.967 . S
O841 C849 1.258 . S
O842 Co817 1.941 . S
O842 C849 1.266 . S
H843 C845 0.959 . S
H844 C845 0.961 . S
C845 C835 1.510 . S
C845 H843 0.959 . S
C845 H844 0.961 . S
C845 H846 0.960 . S
H846 C845 0.960 . S
H847 N827 0.862 . S
O848 Co816 1.920 . S
O848 C821 1.289 . S
C849 O841 1.258 . S
C849 O842 1.266 . S
Co850 O853 1.970 . S
Co850 N867 1.989 . S
Co850 O875 1.967 . S
Co850 O882 1.920 . S
Co851 O854 1.966 . S
Co851 N860 2.022 . S
Co851 N868 1.993 . S
Co851 O876 1.941 . S
C852 O853 1.258 . S
C852 O854 1.263 . S
O853 Co850 1.970 . S
O853 C852 1.258 . S
O854 Co851 1.966 . S
O854 C852 1.263 . S
C855 O856 1.235 . S
C855 O882 1.289 . S
O856 C855 1.235 . S
C857 C859 1.400 . S
C857 N860 1.351 . S
C857 C862 1.501 . S
C858 C859 1.387 . S
C858 N861 1.341 . S
C859 C857 1.400 . S
C859 C858 1.387 . S
N860 Co851 2.022 . S
N860 C857 1.351 . S
N860 N861 1.365 . S
N861 C858 1.341 . S
N861 N860 1.365 . S
N861 H881 0.862 . S
C862 C857 1.501 . S
C862 H863 0.961 . S
C862 H864 0.961 . S
C862 H865 0.960 . S
H863 C862 0.961 . S
H864 C862 0.961 . S
H865 C862 0.960 . S
C866 N867 1.342 . S
C866 C870 1.401 . S
C866 C871 1.499 . S
N867 Co850 1.989 . S
N867 C866 1.342 . S
N867 N868 1.388 . S
N868 Co851 1.993 . S
N868 N867 1.388 . S
N868 C869 1.346 . S
C869 N868 1.346 . S
C869 C870 1.396 . S
C869 C879 1.510 . S
C870 C866 1.401 . S
C870 C869 1.396 . S
C871 C866 1.499 . S
C871 H872 0.959 . S
C871 H873 0.960 . S
C871 H874 0.961 . S
H872 C871 0.959 . S
H873 C871 0.960 . S
H874 C871 0.961 . S
O875 Co850 1.967 . S
O875 C883 1.258 . S
O876 Co851 1.941 . S
O876 C883 1.266 . S
H877 C879 0.959 . S
H878 C879 0.961 . S
C879 C869 1.510 . S
C879 H877 0.959 . S
C879 H878 0.961 . S
C879 H880 0.960 . S
H880 C879 0.960 . S
H881 N861 0.862 . S
O882 Co850 1.920 . S
O882 C855 1.289 . S
C883 O875 1.258 . S
C883 O876 1.266 . S
Co884 O887 1.970 . S
Co884 N901 1.989 . S
Co884 O909 1.967 . S
Co884 O916 1.920 . S
Co885 O888 1.966 . S
Co885 N894 2.022 . S
Co885 N902 1.993 . S
Co885 O910 1.941 . S
C886 O887 1.258 . S
C886 O888 1.263 . S
O887 Co884 1.970 . S
O887 C886 1.258 . S
O888 Co885 1.966 . S
O888 C886 1.263 . S
C889 O890 1.235 . S
C889 O916 1.289 . S
O890 C889 1.235 . S
C891 C893 1.400 . S
C891 N894 1.351 . S
C891 C896 1.501 . S
C892 C893 1.387 . S
C892 N895 1.341 . S
C893 C891 1.400 . S
C893 C892 1.387 . S
N894 Co885 2.022 . S
N894 C891 1.351 . S
N894 N895 1.365 . S
N895 C892 1.341 . S
N895 N894 1.365 . S
N895 H915 0.862 . S
C896 C891 1.501 . S
C896 H897 0.961 . S
C896 H898 0.961 . S
C896 H899 0.960 . S
H897 C896 0.961 . S
H898 C896 0.961 . S
H899 C896 0.960 . S
C900 N901 1.342 . S
C900 C904 1.401 . S
C900 C905 1.499 . S
N901 Co884 1.989 . S
N901 C900 1.342 . S
N901 N902 1.388 . S
N902 Co885 1.993 . S
N902 N901 1.388 . S
N902 C903 1.346 . S
C903 N902 1.346 . S
C903 C904 1.396 . S
C903 C913 1.510 . S
C904 C900 1.401 . S
C904 C903 1.396 . S
C905 C900 1.499 . S
C905 H906 0.959 . S
C905 H907 0.960 . S
C905 H908 0.961 . S
H906 C905 0.959 . S
H907 C905 0.960 . S
H908 C905 0.961 . S
O909 Co884 1.967 . S
O909 C917 1.258 . S
O910 Co885 1.941 . S
O910 C917 1.266 . S
H911 C913 0.959 . S
H912 C913 0.961 . S
C913 C903 1.510 . S
C913 H911 0.959 . S
C913 H912 0.961 . S
C913 H914 0.960 . S
H914 C913 0.960 . S
H915 N895 0.862 . S
O916 Co884 1.920 . S
O916 C889 1.289 . S
C917 O909 1.258 . S
C917 O910 1.266 . S
Co918 O921 1.970 . S
Co918 N935 1.989 . S
Co918 O943 1.967 . S
Co918 O950 1.920 . S
Co919 O922 1.966 . S
Co919 N928 2.022 . S
Co919 N936 1.993 . S
Co919 O944 1.941 . S
C920 O921 1.258 . S
C920 O922 1.263 . S
O921 Co918 1.970 . S
O921 C920 1.258 . S
O922 Co919 1.966 . S
O922 C920 1.263 . S
C923 O924 1.235 . S
C923 O950 1.289 . S
O924 C923 1.235 . S
C925 C927 1.400 . S
C925 N928 1.351 . S
C925 C930 1.501 . S
C926 C927 1.387 . S
C926 N929 1.341 . S
C927 C925 1.400 . S
C927 C926 1.387 . S
N928 Co919 2.022 . S
N928 C925 1.351 . S
N928 N929 1.365 . S
N929 C926 1.341 . S
N929 N928 1.365 . S
N929 H949 0.862 . S
C930 C925 1.501 . S
C930 H931 0.961 . S
C930 H932 0.961 . S
C930 H933 0.960 . S
H931 C930 0.961 . S
H932 C930 0.961 . S
H933 C930 0.960 . S
C934 N935 1.342 . S
C934 C938 1.401 . S
C934 C939 1.499 . S
N935 Co918 1.989 . S
N935 C934 1.342 . S
N935 N936 1.388 . S
N936 Co919 1.993 . S
N936 N935 1.388 . S
N936 C937 1.346 . S
C937 N936 1.346 . S
C937 C938 1.396 . S
C937 C947 1.510 . S
C938 C934 1.401 . S
C938 C937 1.396 . S
C939 C934 1.499 . S
C939 H940 0.959 . S
C939 H941 0.960 . S
C939 H942 0.961 . S
H940 C939 0.959 . S
H941 C939 0.960 . S
H942 C939 0.961 . S
O943 Co918 1.967 . S
O943 C951 1.258 . S
O944 Co919 1.941 . S
O944 C951 1.266 . S
H945 C947 0.959 . S
H946 C947 0.961 . S
C947 C937 1.510 . S
C947 H945 0.959 . S
C947 H946 0.961 . S
C947 H948 0.960 . S
H948 C947 0.960 . S
H949 N929 0.862 . S
O950 Co918 1.920 . S
O950 C923 1.289 . S
C951 O943 1.258 . S
C951 O944 1.266 . S
Co952 O955 1.970 . S
Co952 N969 1.989 . S
Co952 O977 1.967 . S
Co952 O984 1.920 . S
Co953 O956 1.966 . S
Co953 N962 2.022 . S
Co953 N970 1.993 . S
Co953 O978 1.941 . S
C954 O955 1.258 . S
C954 O956 1.263 . S
O955 Co952 1.970 . S
O955 C954 1.258 . S
O956 Co953 1.966 . S
O956 C954 1.263 . S
C957 O958 1.235 . S
C957 O984 1.289 . S
O958 C957 1.235 . S
C959 C961 1.400 . S
C959 N962 1.351 . S
C959 C964 1.501 . S
C960 C961 1.387 . S
C960 N963 1.341 . S
C961 C959 1.400 . S
C961 C960 1.387 . S
N962 Co953 2.022 . S
N962 C959 1.351 . S
N962 N963 1.365 . S
N963 C960 1.341 . S
N963 N962 1.365 . S
N963 H983 0.862 . S
C964 C959 1.501 . S
C964 H965 0.961 . S
C964 H966 0.961 . S
C964 H967 0.960 . S
H965 C964 0.961 . S
H966 C964 0.961 . S
H967 C964 0.960 . S
C968 N969 1.342 . S
C968 C972 1.401 . S
C968 C973 1.499 . S
N969 Co952 1.989 . S
N969 C968 1.342 . S
N969 N970 1.388 . S
N970 Co953 1.993 . S
N970 N969 1.388 . S
N970 C971 1.346 . S
C971 N970 1.346 . S
C971 C972 1.396 . S
C971 C981 1.510 . S
C972 C968 1.401 . S
C972 C971 1.396 . S
C973 C968 1.499 . S
C973 H974 0.959 . S
C973 H975 0.960 . S
C973 H976 0.961 . S
H974 C973 0.959 . S
H975 C973 0.960 . S
H976 C973 0.961 . S
O977 Co952 1.967 . S
O977 C985 1.258 . S
O978 Co953 1.941 . S
O978 C985 1.266 . S
H979 C981 0.959 . S
H980 C981 0.961 . S
C981 C971 1.510 . S
C981 H979 0.959 . S
C981 H980 0.961 . S
C981 H982 0.960 . S
H982 C981 0.960 . S
H983 N963 0.862 . S
O984 Co952 1.920 . S
O984 C957 1.289 . S
C985 O977 1.258 . S
C985 O978 1.266 . S
Co986 O989 1.970 . S
Co986 N1003 1.989 . S
Co986 O1011 1.967 . S
Co986 O1018 1.920 . S
Co987 O990 1.966 . S
Co987 N996 2.022 . S
Co987 N1004 1.993 . S
Co987 O1012 1.941 . S
C988 O989 1.258 . S
C988 O990 1.263 . S
O989 Co986 1.970 . S
O989 C988 1.258 . S
O990 Co987 1.966 . S
O990 C988 1.263 . S
C991 O992 1.235 . S
C991 O1018 1.289 . S
O992 C991 1.235 . S
C993 C995 1.400 . S
C993 N996 1.351 . S
C993 C998 1.501 . S
C994 C995 1.387 . S
C994 N997 1.341 . S
C995 C993 1.400 . S
C995 C994 1.387 . S
N996 Co987 2.022 . S
N996 C993 1.351 . S
N996 N997 1.365 . S
N997 C994 1.341 . S
N997 N996 1.365 . S
N997 H1017 0.862 . S
C998 C993 1.501 . S
C998 H999 0.961 . S
C998 H1000 0.961 . S
C998 H1001 0.960 . S
H999 C998 0.961 . S
H1000 C998 0.961 . S
H1001 C998 0.960 . S
C1002 N1003 1.342 . S
C1002 C1006 1.401 . S
C1002 C1007 1.499 . S
N1003 Co986 1.989 . S
N1003 C1002 1.342 . S
N1003 N1004 1.388 . S
N1004 Co987 1.993 . S
N1004 N1003 1.388 . S
N1004 C1005 1.346 . S
C1005 N1004 1.346 . S
C1005 C1006 1.396 . S
C1005 C1015 1.510 . S
C1006 C1002 1.401 . S
C1006 C1005 1.396 . S
C1007 C1002 1.499 . S
C1007 H1008 0.959 . S
C1007 H1009 0.960 . S
C1007 H1010 0.961 . S
H1008 C1007 0.959 . S
H1009 C1007 0.960 . S
H1010 C1007 0.961 . S
O1011 Co986 1.967 . S
O1011 C1019 1.258 . S
O1012 Co987 1.941 . S
O1012 C1019 1.266 . S
H1013 C1015 0.959 . S
H1014 C1015 0.961 . S
C1015 C1005 1.510 . S
C1015 H1013 0.959 . S
C1015 H1014 0.961 . S
C1015 H1016 0.960 . S
H1016 C1015 0.960 . S
H1017 N997 0.862 . S
O1018 Co986 1.920 . S
O1018 C991 1.289 . S
C1019 O1011 1.258 . S
C1019 O1012 1.266 . S
Co1020 O1023 1.970 . S
Co1020 N1037 1.989 . S
Co1020 O1045 1.967 . S
Co1020 O1052 1.920 . S
Co1021 O1024 1.966 . S
Co1021 N1030 2.022 . S
Co1021 N1038 1.993 . S
Co1021 O1046 1.941 . S
C1022 O1023 1.258 . S
C1022 O1024 1.263 . S
O1023 Co1020 1.970 . S
O1023 C1022 1.258 . S
O1024 Co1021 1.966 . S
O1024 C1022 1.263 . S
C1025 O1026 1.235 . S
C1025 O1052 1.289 . S
O1026 C1025 1.235 . S
C1027 C1029 1.400 . S
C1027 N1030 1.351 . S
C1027 C1032 1.501 . S
C1028 C1029 1.387 . S
C1028 N1031 1.341 . S
C1029 C1027 1.400 . S
C1029 C1028 1.387 . S
N1030 Co1021 2.022 . S
N1030 C1027 1.351 . S
N1030 N1031 1.365 . S
N1031 C1028 1.341 . S
N1031 N1030 1.365 . S
N1031 H1051 0.862 . S
C1032 C1027 1.501 . S
C1032 H1033 0.961 . S
C1032 H1034 0.961 . S
C1032 H1035 0.960 . S
H1033 C1032 0.961 . S
H1034 C1032 0.961 . S
H1035 C1032 0.960 . S
C1036 N1037 1.342 . S
C1036 C1040 1.401 . S
C1036 C1041 1.499 . S
N1037 Co1020 1.989 . S
N1037 C1036 1.342 . S
N1037 N1038 1.388 . S
N1038 Co1021 1.993 . S
N1038 N1037 1.388 . S
N1038 C1039 1.346 . S
C1039 N1038 1.346 . S
C1039 C1040 1.396 . S
C1039 C1049 1.510 . S
C1040 C1036 1.401 . S
C1040 C1039 1.396 . S
C1041 C1036 1.499 . S
C1041 H1042 0.959 . S
C1041 H1043 0.960 . S
C1041 H1044 0.961 . S
H1042 C1041 0.959 . S
H1043 C1041 0.960 . S
H1044 C1041 0.961 . S
O1045 Co1020 1.967 . S
O1045 C1053 1.258 . S
O1046 Co1021 1.941 . S
O1046 C1053 1.266 . S
H1047 C1049 0.959 . S
H1048 C1049 0.961 . S
C1049 C1039 1.510 . S
C1049 H1047 0.959 . S
C1049 H1048 0.961 . S
C1049 H1050 0.960 . S
H1050 C1049 0.960 . S
H1051 N1031 0.862 . S
O1052 Co1020 1.920 . S
O1052 C1025 1.289 . S
C1053 O1045 1.258 . S
C1053 O1046 1.266 . S
Co1054 O1057 1.970 . S
Co1054 N1071 1.989 . S
Co1054 O1079 1.967 . S
Co1054 O1086 1.920 . S
Co1055 O1058 1.966 . S
Co1055 N1064 2.022 . S
Co1055 N1072 1.993 . S
Co1055 O1080 1.941 . S
C1056 O1057 1.258 . S
C1056 O1058 1.263 . S
O1057 Co1054 1.970 . S
O1057 C1056 1.258 . S
O1058 Co1055 1.966 . S
O1058 C1056 1.263 . S
C1059 O1060 1.235 . S
C1059 O1086 1.289 . S
O1060 C1059 1.235 . S
C1061 C1063 1.400 . S
C1061 N1064 1.351 . S
C1061 C1066 1.501 . S
C1062 C1063 1.387 . S
C1062 N1065 1.341 . S
C1063 C1061 1.400 . S
C1063 C1062 1.387 . S
N1064 Co1055 2.022 . S
N1064 C1061 1.351 . S
N1064 N1065 1.365 . S
N1065 C1062 1.341 . S
N1065 N1064 1.365 . S
N1065 H1085 0.862 . S
C1066 C1061 1.501 . S
C1066 H1067 0.961 . S
C1066 H1068 0.961 . S
C1066 H1069 0.960 . S
H1067 C1066 0.961 . S
H1068 C1066 0.961 . S
H1069 C1066 0.960 . S
C1070 N1071 1.342 . S
C1070 C1074 1.401 . S
C1070 C1075 1.499 . S
N1071 Co1054 1.989 . S
N1071 C1070 1.342 . S
N1071 N1072 1.388 . S
N1072 Co1055 1.993 . S
N1072 N1071 1.388 . S
N1072 C1073 1.346 . S
C1073 N1072 1.346 . S
C1073 C1074 1.396 . S
C1073 C1083 1.510 . S
C1074 C1070 1.401 . S
C1074 C1073 1.396 . S
C1075 C1070 1.499 . S
C1075 H1076 0.959 . S
C1075 H1077 0.960 . S
C1075 H1078 0.961 . S
H1076 C1075 0.959 . S
H1077 C1075 0.960 . S
H1078 C1075 0.961 . S
O1079 Co1054 1.967 . S
O1079 C1087 1.258 . S
O1080 Co1055 1.941 . S
O1080 C1087 1.266 . S
H1081 C1083 0.959 . S
H1082 C1083 0.961 . S
C1083 C1073 1.510 . S
C1083 H1081 0.959 . S
C1083 H1082 0.961 . S
C1083 H1084 0.960 . S
H1084 C1083 0.960 . S
H1085 N1065 0.862 . S
O1086 Co1054 1.920 . S
O1086 C1059 1.289 . S
C1087 O1079 1.258 . S
C1087 O1080 1.266 . S
H1088 C1094 0.930 . S
H1089 C1097 0.930 . S
H1090 C1098 0.930 . S
H1091 C1099 0.930 . S
H1092 C1102 0.930 . S
H1093 C1103 0.930 . S
C1094 H1088 0.930 . S
C1094 C1095 1.355 . S
C1094 C1096 1.415 . S
C1095 C1094 1.355 . S
C1095 C1097 1.419 . S
C1096 C1094 1.415 . S
C1096 C1101 1.425 . S
C1096 C1103 1.409 . S
C1097 H1089 0.930 . S
C1097 C1095 1.419 . S
C1097 C1098 1.362 . S
C1098 H1090 0.930 . S
C1098 C1097 1.362 . S
C1098 C1101 1.409 . S
C1099 H1091 0.930 . S
C1099 C1100 1.355 . S
C1099 C1101 1.415 . S
C1100 C1099 1.355 . S
C1100 C1102 1.419 . S
C1101 C1096 1.425 . S
C1101 C1098 1.409 . S
C1101 C1099 1.415 . S
C1102 H1092 0.930 . S
C1102 C1100 1.419 . S
C1102 C1103 1.362 . S
C1103 H1093 0.930 . S
C1103 C1096 1.409 . S
C1103 C1102 1.362 . S
H1104 C1110 0.930 . S
H1105 C1113 0.930 . S
H1106 C1114 0.930 . S
H1107 C1115 0.930 . S
H1108 C1118 0.930 . S
H1109 C1119 0.930 . S
C1110 H1104 0.930 . S
C1110 C1111 1.355 . S
C1110 C1112 1.415 . S
C1111 C1110 1.355 . S
C1111 C1113 1.419 . S
C1112 C1110 1.415 . S
C1112 C1117 1.425 . S
C1112 C1119 1.409 . S
C1113 H1105 0.930 . S
C1113 C1111 1.419 . S
C1113 C1114 1.362 . S
C1114 H1106 0.930 . S
C1114 C1113 1.362 . S
C1114 C1117 1.409 . S
C1115 H1107 0.930 . S
C1115 C1116 1.355 . S
C1115 C1117 1.415 . S
C1116 C1115 1.355 . S
C1116 C1118 1.419 . S
C1117 C1112 1.425 . S
C1117 C1114 1.409 . S
C1117 C1115 1.415 . S
C1118 H1108 0.930 . S
C1118 C1116 1.419 . S
C1118 C1119 1.362 . S
C1119 H1109 0.930 . S
C1119 C1112 1.409 . S
C1119 C1118 1.362 . S
H1120 C1126 0.930 . S
H1121 C1129 0.930 . S
H1122 C1130 0.930 . S
H1123 C1131 0.930 . S
H1124 C1134 0.930 . S
H1125 C1135 0.930 . S
C1126 H1120 0.930 . S
C1126 C1127 1.355 . S
C1126 C1128 1.415 . S
C1127 C1126 1.355 . S
C1127 C1129 1.419 . S
C1128 C1126 1.415 . S
C1128 C1133 1.425 . S
C1128 C1135 1.409 . S
C1129 H1121 0.930 . S
C1129 C1127 1.419 . S
C1129 C1130 1.362 . S
C1130 H1122 0.930 . S
C1130 C1129 1.362 . S
C1130 C1133 1.409 . S
C1131 H1123 0.930 . S
C1131 C1132 1.355 . S
C1131 C1133 1.415 . S
C1132 C1131 1.355 . S
C1132 C1134 1.419 . S
C1133 C1128 1.425 . S
C1133 C1130 1.409 . S
C1133 C1131 1.415 . S
C1134 H1124 0.930 . S
C1134 C1132 1.419 . S
C1134 C1135 1.362 . S
C1135 H1125 0.930 . S
C1135 C1128 1.409 . S
C1135 C1134 1.362 . S
H1136 C1142 0.930 . S
H1137 C1145 0.930 . S
H1138 C1146 0.930 . S
H1139 C1147 0.930 . S
H1140 C1150 0.930 . S
H1141 C1151 0.930 . S
C1142 H1136 0.930 . S
C1142 C1143 1.355 . S
C1142 C1144 1.415 . S
C1143 C1142 1.355 . S
C1143 C1145 1.419 . S
C1144 C1142 1.415 . S
C1144 C1149 1.425 . S
C1144 C1151 1.409 . S
C1145 H1137 0.930 . S
C1145 C1143 1.419 . S
C1145 C1146 1.362 . S
C1146 H1138 0.930 . S
C1146 C1145 1.362 . S
C1146 C1149 1.409 . S
C1147 H1139 0.930 . S
C1147 C1148 1.355 . S
C1147 C1149 1.415 . S
C1148 C1147 1.355 . S
C1148 C1150 1.419 . S
C1149 C1144 1.425 . S
C1149 C1146 1.409 . S
C1149 C1147 1.415 . S
C1150 H1140 0.930 . S
C1150 C1148 1.419 . S
C1150 C1151 1.362 . S
C1151 H1141 0.930 . S
C1151 C1144 1.409 . S
C1151 C1150 1.362 . S
H1152 C1158 0.930 . S
H1153 C1161 0.930 . S
H1154 C1162 0.930 . S
H1155 C1163 0.930 . S
H1156 C1166 0.930 . S
H1157 C1167 0.930 . S
C1158 H1152 0.930 . S
C1158 C1159 1.355 . S
C1158 C1160 1.415 . S
C1159 C1158 1.355 . S
C1159 C1161 1.419 . S
C1160 C1158 1.415 . S
C1160 C1165 1.425 . S
C1160 C1167 1.409 . S
C1161 H1153 0.930 . S
C1161 C1159 1.419 . S
C1161 C1162 1.362 . S
C1162 H1154 0.930 . S
C1162 C1161 1.362 . S
C1162 C1165 1.409 . S
C1163 H1155 0.930 . S
C1163 C1164 1.355 . S
C1163 C1165 1.415 . S
C1164 C1163 1.355 . S
C1164 C1166 1.419 . S
C1165 C1160 1.425 . S
C1165 C1162 1.409 . S
C1165 C1163 1.415 . S
C1166 H1156 0.930 . S
C1166 C1164 1.419 . S
C1166 C1167 1.362 . S
C1167 H1157 0.930 . S
C1167 C1160 1.409 . S
C1167 C1166 1.362 . S
H1168 C1174 0.930 . S
H1169 C1177 0.930 . S
H1170 C1178 0.930 . S
H1171 C1179 0.930 . S
H1172 C1182 0.930 . S
H1173 C1183 0.930 . S
C1174 H1168 0.930 . S
C1174 C1175 1.355 . S
C1174 C1176 1.415 . S
C1175 C1174 1.355 . S
C1175 C1177 1.419 . S
C1176 C1174 1.415 . S
C1176 C1181 1.425 . S
C1176 C1183 1.409 . S
C1177 H1169 0.930 . S
C1177 C1175 1.419 . S
C1177 C1178 1.362 . S
C1178 H1170 0.930 . S
C1178 C1177 1.362 . S
C1178 C1181 1.409 . S
C1179 H1171 0.930 . S
C1179 C1180 1.355 . S
C1179 C1181 1.415 . S
C1180 C1179 1.355 . S
C1180 C1182 1.419 . S
C1181 C1176 1.425 . S
C1181 C1178 1.409 . S
C1181 C1179 1.415 . S
C1182 H1172 0.930 . S
C1182 C1180 1.419 . S
C1182 C1183 1.362 . S
C1183 H1173 0.930 . S
C1183 C1176 1.409 . S
C1183 C1182 1.362 . S
H1184 C1190 0.930 . S
H1185 C1193 0.930 . S
H1186 C1194 0.930 . S
H1187 C1195 0.930 . S
H1188 C1198 0.930 . S
H1189 C1199 0.930 . S
C1190 H1184 0.930 . S
C1190 C1191 1.355 . S
C1190 C1192 1.415 . S
C1191 C1190 1.355 . S
C1191 C1193 1.419 . S
C1192 C1190 1.415 . S
C1192 C1197 1.425 . S
C1192 C1199 1.409 . S
C1193 H1185 0.930 . S
C1193 C1191 1.419 . S
C1193 C1194 1.362 . S
C1194 H1186 0.930 . S
C1194 C1193 1.362 . S
C1194 C1197 1.409 . S
C1195 H1187 0.930 . S
C1195 C1196 1.355 . S
C1195 C1197 1.415 . S
C1196 C1195 1.355 . S
C1196 C1198 1.419 . S
C1197 C1192 1.425 . S
C1197 C1194 1.409 . S
C1197 C1195 1.415 . S
C1198 H1188 0.930 . S
C1198 C1196 1.419 . S
C1198 C1199 1.362 . S
C1199 H1189 0.930 . S
C1199 C1192 1.409 . S
C1199 C1198 1.362 . S
H1200 C1206 0.930 . S
H1201 C1209 0.930 . S
H1202 C1210 0.930 . S
H1203 C1211 0.930 . S
H1204 C1214 0.930 . S
H1205 C1215 0.930 . S
C1206 H1200 0.930 . S
C1206 C1207 1.355 . S
C1206 C1208 1.415 . S
C1207 C1206 1.355 . S
C1207 C1209 1.419 . S
C1208 C1206 1.415 . S
C1208 C1213 1.425 . S
C1208 C1215 1.409 . S
C1209 H1201 0.930 . S
C1209 C1207 1.419 . S
C1209 C1210 1.362 . S
C1210 H1202 0.930 . S
C1210 C1209 1.362 . S
C1210 C1213 1.409 . S
C1211 H1203 0.930 . S
C1211 C1212 1.355 . S
C1211 C1213 1.415 . S
C1212 C1211 1.355 . S
C1212 C1214 1.419 . S
C1213 C1208 1.425 . S
C1213 C1210 1.409 . S
C1213 C1211 1.415 . S
C1214 H1204 0.930 . S
C1214 C1212 1.419 . S
C1214 C1215 1.362 . S
C1215 H1205 0.930 . S
C1215 C1208 1.409 . S
C1215 C1214 1.362 . S
H1216 C1222 0.930 . S
H1217 C1225 0.930 . S
H1218 C1226 0.930 . S
H1219 C1227 0.930 . S
H1220 C1230 0.930 . S
H1221 C1231 0.930 . S
C1222 H1216 0.930 . S
C1222 C1223 1.355 . S
C1222 C1224 1.415 . S
C1223 C1222 1.355 . S
C1223 C1225 1.419 . S
C1224 C1222 1.415 . S
C1224 C1229 1.425 . S
C1224 C1231 1.409 . S
C1225 H1217 0.930 . S
C1225 C1223 1.419 . S
C1225 C1226 1.362 . S
C1226 H1218 0.930 . S
C1226 C1225 1.362 . S
C1226 C1229 1.409 . S
C1227 H1219 0.930 . S
C1227 C1228 1.355 . S
C1227 C1229 1.415 . S
C1228 C1227 1.355 . S
C1228 C1230 1.419 . S
C1229 C1224 1.425 . S
C1229 C1226 1.409 . S
C1229 C1227 1.415 . S
C1230 H1220 0.930 . S
C1230 C1228 1.419 . S
C1230 C1231 1.362 . S
C1231 H1221 0.930 . S
C1231 C1224 1.409 . S
C1231 C1230 1.362 . S
H1232 C1238 0.930 . S
H1233 C1241 0.930 . S
H1234 C1242 0.930 . S
H1235 C1243 0.930 . S
H1236 C1246 0.930 . S
H1237 C1247 0.930 . S
C1238 H1232 0.930 . S
C1238 C1239 1.355 . S
C1238 C1240 1.415 . S
C1239 C1238 1.355 . S
C1239 C1241 1.419 . S
C1240 C1238 1.415 . S
C1240 C1245 1.425 . S
C1240 C1247 1.409 . S
C1241 H1233 0.930 . S
C1241 C1239 1.419 . S
C1241 C1242 1.362 . S
C1242 H1234 0.930 . S
C1242 C1241 1.362 . S
C1242 C1245 1.409 . S
C1243 H1235 0.930 . S
C1243 C1244 1.355 . S
C1243 C1245 1.415 . S
C1244 C1243 1.355 . S
C1244 C1246 1.419 . S
C1245 C1240 1.425 . S
C1245 C1242 1.409 . S
C1245 C1243 1.415 . S
C1246 H1236 0.930 . S
C1246 C1244 1.419 . S
C1246 C1247 1.362 . S
C1247 H1237 0.930 . S
C1247 C1240 1.409 . S
C1247 C1246 1.362 . S
H1248 C1254 0.930 . S
H1249 C1257 0.930 . S
H1250 C1258 0.930 . S
H1251 C1259 0.930 . S
H1252 C1262 0.930 . S
H1253 C1263 0.930 . S
C1254 H1248 0.930 . S
C1254 C1255 1.355 . S
C1254 C1256 1.415 . S
C1255 C1254 1.355 . S
C1255 C1257 1.419 . S
C1256 C1254 1.415 . S
C1256 C1261 1.425 . S
C1256 C1263 1.409 . S
C1257 H1249 0.930 . S
C1257 C1255 1.419 . S
C1257 C1258 1.362 . S
C1258 H1250 0.930 . S
C1258 C1257 1.362 . S
C1258 C1261 1.409 . S
C1259 H1251 0.930 . S
C1259 C1260 1.355 . S
C1259 C1261 1.415 . S
C1260 C1259 1.355 . S
C1260 C1262 1.419 . S
C1261 C1256 1.425 . S
C1261 C1258 1.409 . S
C1261 C1259 1.415 . S
C1262 H1252 0.930 . S
C1262 C1260 1.419 . S
C1262 C1263 1.362 . S
C1263 H1253 0.930 . S
C1263 C1256 1.409 . S
C1263 C1262 1.362 . S
H1264 C1270 0.930 . S
H1265 C1273 0.930 . S
H1266 C1274 0.930 . S
H1267 C1275 0.930 . S
H1268 C1278 0.930 . S
H1269 C1279 0.930 . S
C1270 H1264 0.930 . S
C1270 C1271 1.355 . S
C1270 C1272 1.415 . S
C1271 C1270 1.355 . S
C1271 C1273 1.419 . S
C1272 C1270 1.415 . S
C1272 C1277 1.425 . S
C1272 C1279 1.409 . S
C1273 H1265 0.930 . S
C1273 C1271 1.419 . S
C1273 C1274 1.362 . S
C1274 H1266 0.930 . S
C1274 C1273 1.362 . S
C1274 C1277 1.409 . S
C1275 H1267 0.930 . S
C1275 C1276 1.355 . S
C1275 C1277 1.415 . S
C1276 C1275 1.355 . S
C1276 C1278 1.419 . S
C1277 C1272 1.425 . S
C1277 C1274 1.409 . S
C1277 C1275 1.415 . S
C1278 H1268 0.930 . S
C1278 C1276 1.419 . S
C1278 C1279 1.362 . S
C1279 H1269 0.930 . S
C1279 C1272 1.409 . S
C1279 C1278 1.362 . S
H1280 C1286 0.930 . S
H1281 C1289 0.930 . S
H1282 C1290 0.930 . S
H1283 C1291 0.930 . S
H1284 C1294 0.930 . S
H1285 C1295 0.930 . S
C1286 H1280 0.930 . S
C1286 C1287 1.355 . S
C1286 C1288 1.415 . S
C1287 C1286 1.355 . S
C1287 C1289 1.419 . S
C1288 C1286 1.415 . S
C1288 C1293 1.425 . S
C1288 C1295 1.409 . S
C1289 H1281 0.930 . S
C1289 C1287 1.419 . S
C1289 C1290 1.362 . S
C1290 H1282 0.930 . S
C1290 C1289 1.362 . S
C1290 C1293 1.409 . S
C1291 H1283 0.930 . S
C1291 C1292 1.355 . S
C1291 C1293 1.415 . S
C1292 C1291 1.355 . S
C1292 C1294 1.419 . S
C1293 C1288 1.425 . S
C1293 C1290 1.409 . S
C1293 C1291 1.415 . S
C1294 H1284 0.930 . S
C1294 C1292 1.419 . S
C1294 C1295 1.362 . S
C1295 H1285 0.930 . S
C1295 C1288 1.409 . S
C1295 C1294 1.362 . S
H1296 C1302 0.930 . S
H1297 C1305 0.930 . S
H1298 C1306 0.930 . S
H1299 C1307 0.930 . S
H1300 C1310 0.930 . S
H1301 C1311 0.930 . S
C1302 H1296 0.930 . S
C1302 C1303 1.355 . S
C1302 C1304 1.415 . S
C1303 C1302 1.355 . S
C1303 C1305 1.419 . S
C1304 C1302 1.415 . S
C1304 C1309 1.425 . S
C1304 C1311 1.409 . S
C1305 H1297 0.930 . S
C1305 C1303 1.419 . S
C1305 C1306 1.362 . S
C1306 H1298 0.930 . S
C1306 C1305 1.362 . S
C1306 C1309 1.409 . S
C1307 H1299 0.930 . S
C1307 C1308 1.355 . S
C1307 C1309 1.415 . S
C1308 C1307 1.355 . S
C1308 C1310 1.419 . S
C1309 C1304 1.425 . S
C1309 C1306 1.409 . S
C1309 C1307 1.415 . S
C1310 H1300 0.930 . S
C1310 C1308 1.419 . S
C1310 C1311 1.362 . S
C1311 H1301 0.930 . S
C1311 C1304 1.409 . S
C1311 C1310 1.362 . S
H1312 C1318 0.930 . S
H1313 C1321 0.930 . S
H1314 C1322 0.930 . S
H1315 C1323 0.930 . S
H1316 C1326 0.930 . S
H1317 C1327 0.930 . S
C1318 H1312 0.930 . S
C1318 C1319 1.355 . S
C1318 C1320 1.415 . S
C1319 C1318 1.355 . S
C1319 C1321 1.419 . S
C1320 C1318 1.415 . S
C1320 C1325 1.425 . S
C1320 C1327 1.409 . S
C1321 H1313 0.930 . S
C1321 C1319 1.419 . S
C1321 C1322 1.362 . S
C1322 H1314 0.930 . S
C1322 C1321 1.362 . S
C1322 C1325 1.409 . S
C1323 H1315 0.930 . S
C1323 C1324 1.355 . S
C1323 C1325 1.415 . S
C1324 C1323 1.355 . S
C1324 C1326 1.419 . S
C1325 C1320 1.425 . S
C1325 C1322 1.409 . S
C1325 C1323 1.415 . S
C1326 H1316 0.930 . S
C1326 C1324 1.419 . S
C1326 C1327 1.362 . S
C1327 H1317 0.930 . S
C1327 C1320 1.409 . S
C1327 C1326 1.362 . S
H1328 C1334 0.930 . S
H1329 C1337 0.930 . S
H1330 C1338 0.930 . S
H1331 C1339 0.930 . S
H1332 C1342 0.930 . S
H1333 C1343 0.930 . S
C1334 H1328 0.930 . S
C1334 C1335 1.355 . S
C1334 C1336 1.415 . S
C1335 C1334 1.355 . S
C1335 C1337 1.419 . S
C1336 C1334 1.415 . S
C1336 C1341 1.425 . S
C1336 C1343 1.409 . S
C1337 H1329 0.930 . S
C1337 C1335 1.419 . S
C1337 C1338 1.362 . S
C1338 H1330 0.930 . S
C1338 C1337 1.362 . S
C1338 C1341 1.409 . S
C1339 H1331 0.930 . S
C1339 C1340 1.355 . S
C1339 C1341 1.415 . S
C1340 C1339 1.355 . S
C1340 C1342 1.419 . S
C1341 C1336 1.425 . S
C1341 C1338 1.409 . S
C1341 C1339 1.415 . S
C1342 H1332 0.930 . S
C1342 C1340 1.419 . S
C1342 C1343 1.362 . S
C1343 H1333 0.930 . S
C1343 C1336 1.409 . S
C1343 C1342 1.362 . S
H1344 C1350 0.930 . S
H1345 C1353 0.930 . S
H1346 C1354 0.930 . S
H1347 C1355 0.930 . S
H1348 C1358 0.930 . S
H1349 C1359 0.930 . S
C1350 H1344 0.930 . S
C1350 C1351 1.355 . S
C1350 C1352 1.415 . S
C1351 C1350 1.355 . S
C1351 C1353 1.419 . S
C1352 C1350 1.415 . S
C1352 C1357 1.425 . S
C1352 C1359 1.409 . S
C1353 H1345 0.930 . S
C1353 C1351 1.419 . S
C1353 C1354 1.362 . S
C1354 H1346 0.930 . S
C1354 C1353 1.362 . S
C1354 C1357 1.409 . S
C1355 H1347 0.930 . S
C1355 C1356 1.355 . S
C1355 C1357 1.415 . S
C1356 C1355 1.355 . S
C1356 C1358 1.419 . S
C1357 C1352 1.425 . S
C1357 C1354 1.409 . S
C1357 C1355 1.415 . S
C1358 H1348 0.930 . S
C1358 C1356 1.419 . S
C1358 C1359 1.362 . S
C1359 H1349 0.930 . S
C1359 C1352 1.409 . S
C1359 C1358 1.362 . S
H1360 C1366 0.930 . S
H1361 C1369 0.930 . S
H1362 C1370 0.930 . S
H1363 C1371 0.930 . S
H1364 C1374 0.930 . S
H1365 C1375 0.930 . S
C1366 H1360 0.930 . S
C1366 C1367 1.355 . S
C1366 C1368 1.415 . S
C1367 C1366 1.355 . S
C1367 C1369 1.419 . S
C1368 C1366 1.415 . S
C1368 C1373 1.425 . S
C1368 C1375 1.409 . S
C1369 H1361 0.930 . S
C1369 C1367 1.419 . S
C1369 C1370 1.362 . S
C1370 H1362 0.930 . S
C1370 C1369 1.362 . S
C1370 C1373 1.409 . S
C1371 H1363 0.930 . S
C1371 C1372 1.355 . S
C1371 C1373 1.415 . S
C1372 C1371 1.355 . S
C1372 C1374 1.419 . S
C1373 C1368 1.425 . S
C1373 C1370 1.409 . S
C1373 C1371 1.415 . S
C1374 H1364 0.930 . S
C1374 C1372 1.419 . S
C1374 C1375 1.362 . S
C1375 H1365 0.930 . S
C1375 C1368 1.409 . S
C1375 C1374 1.362 . S
H1376 C1382 0.930 . S
H1377 C1385 0.930 . S
H1378 C1386 0.930 . S
H1379 C1387 0.930 . S
H1380 C1390 0.930 . S
H1381 C1391 0.930 . S
C1382 H1376 0.930 . S
C1382 C1383 1.355 . S
C1382 C1384 1.415 . S
C1383 C1382 1.355 . S
C1383 C1385 1.419 . S
C1384 C1382 1.415 . S
C1384 C1389 1.425 . S
C1384 C1391 1.409 . S
C1385 H1377 0.930 . S
C1385 C1383 1.419 . S
C1385 C1386 1.362 . S
C1386 H1378 0.930 . S
C1386 C1385 1.362 . S
C1386 C1389 1.409 . S
C1387 H1379 0.930 . S
C1387 C1388 1.355 . S
C1387 C1389 1.415 . S
C1388 C1387 1.355 . S
C1388 C1390 1.419 . S
C1389 C1384 1.425 . S
C1389 C1386 1.409 . S
C1389 C1387 1.415 . S
C1390 H1380 0.930 . S
C1390 C1388 1.419 . S
C1390 C1391 1.362 . S
C1391 H1381 0.930 . S
C1391 C1384 1.409 . S
C1391 C1390 1.362 . S
H1392 C1398 0.930 . S
H1393 C1401 0.930 . S
H1394 C1402 0.930 . S
H1395 C1403 0.930 . S
H1396 C1406 0.930 . S
H1397 C1407 0.930 . S
C1398 H1392 0.930 . S
C1398 C1399 1.355 . S
C1398 C1400 1.415 . S
C1399 C1398 1.355 . S
C1399 C1401 1.419 . S
C1400 C1398 1.415 . S
C1400 C1405 1.425 . S
C1400 C1407 1.409 . S
C1401 H1393 0.930 . S
C1401 C1399 1.419 . S
C1401 C1402 1.362 . S
C1402 H1394 0.930 . S
C1402 C1401 1.362 . S
C1402 C1405 1.409 . S
C1403 H1395 0.930 . S
C1403 C1404 1.355 . S
C1403 C1405 1.415 . S
C1404 C1403 1.355 . S
C1404 C1406 1.419 . S
C1405 C1400 1.425 . S
C1405 C1402 1.409 . S
C1405 C1403 1.415 . S
C1406 H1396 0.930 . S
C1406 C1404 1.419 . S
C1406 C1407 1.362 . S
C1407 H1397 0.930 . S
C1407 C1400 1.409 . S
C1407 C1406 1.362 . S
H1408 C1414 0.930 . S
H1409 C1417 0.930 . S
H1410 C1418 0.930 . S
H1411 C1419 0.930 . S
H1412 C1422 0.930 . S
H1413 C1423 0.930 . S
C1414 H1408 0.930 . S
C1414 C1415 1.355 . S
C1414 C1416 1.415 . S
C1415 C1414 1.355 . S
C1415 C1417 1.419 . S
C1416 C1414 1.415 . S
C1416 C1421 1.425 . S
C1416 C1423 1.409 . S
C1417 H1409 0.930 . S
C1417 C1415 1.419 . S
C1417 C1418 1.362 . S
C1418 H1410 0.930 . S
C1418 C1417 1.362 . S
C1418 C1421 1.409 . S
C1419 H1411 0.930 . S
C1419 C1420 1.355 . S
C1419 C1421 1.415 . S
C1420 C1419 1.355 . S
C1420 C1422 1.419 . S
C1421 C1416 1.425 . S
C1421 C1418 1.409 . S
C1421 C1419 1.415 . S
C1422 H1412 0.930 . S
C1422 C1420 1.419 . S
C1422 C1423 1.362 . S
C1423 H1413 0.930 . S
C1423 C1416 1.409 . S
C1423 C1422 1.362 . S
H1424 C1430 0.930 . S
H1425 C1433 0.930 . S
H1426 C1434 0.930 . S
H1427 C1435 0.930 . S
H1428 C1438 0.930 . S
H1429 C1439 0.930 . S
C1430 H1424 0.930 . S
C1430 C1431 1.355 . S
C1430 C1432 1.415 . S
C1431 C1430 1.355 . S
C1431 C1433 1.419 . S
C1432 C1430 1.415 . S
C1432 C1437 1.425 . S
C1432 C1439 1.409 . S
C1433 H1425 0.930 . S
C1433 C1431 1.419 . S
C1433 C1434 1.362 . S
C1434 H1426 0.930 . S
C1434 C1433 1.362 . S
C1434 C1437 1.409 . S
C1435 H1427 0.930 . S
C1435 C1436 1.355 . S
C1435 C1437 1.415 . S
C1436 C1435 1.355 . S
C1436 C1438 1.419 . S
C1437 C1432 1.425 . S
C1437 C1434 1.409 . S
C1437 C1435 1.415 . S
C1438 H1428 0.930 . S
C1438 C1436 1.419 . S
C1438 C1439 1.362 . S
C1439 H1429 0.930 . S
C1439 C1432 1.409 . S
C1439 C1438 1.362 . S
H1440 C1446 0.930 . S
H1441 C1449 0.930 . S
H1442 C1450 0.930 . S
H1443 C1451 0.930 . S
H1444 C1454 0.930 . S
H1445 C1455 0.930 . S
C1446 H1440 0.930 . S
C1446 C1447 1.355 . S
C1446 C1448 1.415 . S
C1447 C1446 1.355 . S
C1447 C1449 1.419 . S
C1448 C1446 1.415 . S
C1448 C1453 1.425 . S
C1448 C1455 1.409 . S
C1449 H1441 0.930 . S
C1449 C1447 1.419 . S
C1449 C1450 1.362 . S
C1450 H1442 0.930 . S
C1450 C1449 1.362 . S
C1450 C1453 1.409 . S
C1451 H1443 0.930 . S
C1451 C1452 1.355 . S
C1451 C1453 1.415 . S
C1452 C1451 1.355 . S
C1452 C1454 1.419 . S
C1453 C1448 1.425 . S
C1453 C1450 1.409 . S
C1453 C1451 1.415 . S
C1454 H1444 0.930 . S
C1454 C1452 1.419 . S
C1454 C1455 1.362 . S
C1455 H1445 0.930 . S
C1455 C1448 1.409 . S
C1455 C1454 1.362 . S
H1456 C1462 0.930 . S
H1457 C1465 0.930 . S
H1458 C1466 0.930 . S
H1459 C1467 0.930 . S
H1460 C1470 0.930 . S
H1461 C1471 0.930 . S
C1462 H1456 0.930 . S
C1462 C1463 1.355 . S
C1462 C1464 1.415 . S
C1463 C1462 1.355 . S
C1463 C1465 1.419 . S
C1464 C1462 1.415 . S
C1464 C1469 1.425 . S
C1464 C1471 1.409 . S
C1465 H1457 0.930 . S
C1465 C1463 1.419 . S
C1465 C1466 1.362 . S
C1466 H1458 0.930 . S
C1466 C1465 1.362 . S
C1466 C1469 1.409 . S
C1467 H1459 0.930 . S
C1467 C1468 1.355 . S
C1467 C1469 1.415 . S
C1468 C1467 1.355 . S
C1468 C1470 1.419 . S
C1469 C1464 1.425 . S
C1469 C1466 1.409 . S
C1469 C1467 1.415 . S
C1470 H1460 0.930 . S
C1470 C1468 1.419 . S
C1470 C1471 1.362 . S
C1471 H1461 0.930 . S
C1471 C1464 1.409 . S
C1471 C1470 1.362 . S
H1472 C1478 0.930 . S
H1473 C1481 0.930 . S
H1474 C1482 0.930 . S
H1475 C1483 0.930 . S
H1476 C1486 0.930 . S
H1477 C1487 0.930 . S
C1478 H1472 0.930 . S
C1478 C1479 1.355 . S
C1478 C1480 1.415 . S
C1479 C1478 1.355 . S
C1479 C1481 1.419 . S
C1480 C1478 1.415 . S
C1480 C1485 1.425 . S
C1480 C1487 1.409 . S
C1481 H1473 0.930 . S
C1481 C1479 1.419 . S
C1481 C1482 1.362 . S
C1482 H1474 0.930 . S
C1482 C1481 1.362 . S
C1482 C1485 1.409 . S
C1483 H1475 0.930 . S
C1483 C1484 1.355 . S
C1483 C1485 1.415 . S
C1484 C1483 1.355 . S
C1484 C1486 1.419 . S
C1485 C1480 1.425 . S
C1485 C1482 1.409 . S
C1485 C1483 1.415 . S
C1486 H1476 0.930 . S
C1486 C1484 1.419 . S
C1486 C1487 1.362 . S
C1487 H1477 0.930 . S
C1487 C1480 1.409 . S
C1487 C1486 1.362 . S
H1488 C1494 0.930 . S
H1489 C1497 0.930 . S
H1490 C1498 0.930 . S
H1491 C1499 0.930 . S
H1492 C1502 0.930 . S
H1493 C1503 0.930 . S
C1494 H1488 0.930 . S
C1494 C1495 1.355 . S
C1494 C1496 1.415 . S
C1495 C1494 1.355 . S
C1495 C1497 1.419 . S
C1496 C1494 1.415 . S
C1496 C1501 1.425 . S
C1496 C1503 1.409 . S
C1497 H1489 0.930 . S
C1497 C1495 1.419 . S
C1497 C1498 1.362 . S
C1498 H1490 0.930 . S
C1498 C1497 1.362 . S
C1498 C1501 1.409 . S
C1499 H1491 0.930 . S
C1499 C1500 1.355 . S
C1499 C1501 1.415 . S
C1500 C1499 1.355 . S
C1500 C1502 1.419 . S
C1501 C1496 1.425 . S
C1501 C1498 1.409 . S
C1501 C1499 1.415 . S
C1502 H1492 0.930 . S
C1502 C1500 1.419 . S
C1502 C1503 1.362 . S
C1503 H1493 0.930 . S
C1503 C1496 1.409 . S
C1503 C1502 1.362 . S
H1504 C1510 0.930 . S
H1505 C1513 0.930 . S
H1506 C1514 0.930 . S
H1507 C1515 0.930 . S
H1508 C1518 0.930 . S
H1509 C1519 0.930 . S
C1510 H1504 0.930 . S
C1510 C1511 1.355 . S
C1510 C1512 1.415 . S
C1511 C1510 1.355 . S
C1511 C1513 1.419 . S
C1512 C1510 1.415 . S
C1512 C1517 1.425 . S
C1512 C1519 1.409 . S
C1513 H1505 0.930 . S
C1513 C1511 1.419 . S
C1513 C1514 1.362 . S
C1514 H1506 0.930 . S
C1514 C1513 1.362 . S
C1514 C1517 1.409 . S
C1515 H1507 0.930 . S
C1515 C1516 1.355 . S
C1515 C1517 1.415 . S
C1516 C1515 1.355 . S
C1516 C1518 1.419 . S
C1517 C1512 1.425 . S
C1517 C1514 1.409 . S
C1517 C1515 1.415 . S
C1518 H1508 0.930 . S
C1518 C1516 1.419 . S
C1518 C1519 1.362 . S
C1519 H1509 0.930 . S
C1519 C1512 1.409 . S
C1519 C1518 1.362 . S
H1520 C1526 0.930 . S
H1521 C1529 0.930 . S
H1522 C1530 0.930 . S
H1523 C1531 0.930 . S
H1524 C1534 0.930 . S
H1525 C1535 0.930 . S
C1526 H1520 0.930 . S
C1526 C1527 1.355 . S
C1526 C1528 1.415 . S
C1527 C1526 1.355 . S
C1527 C1529 1.419 . S
C1528 C1526 1.415 . S
C1528 C1533 1.425 . S
C1528 C1535 1.409 . S
C1529 H1521 0.930 . S
C1529 C1527 1.419 . S
C1529 C1530 1.362 . S
C1530 H1522 0.930 . S
C1530 C1529 1.362 . S
C1530 C1533 1.409 . S
C1531 H1523 0.930 . S
C1531 C1532 1.355 . S
C1531 C1533 1.415 . S
C1532 C1531 1.355 . S
C1532 C1534 1.419 . S
C1533 C1528 1.425 . S
C1533 C1530 1.409 . S
C1533 C1531 1.415 . S
C1534 H1524 0.930 . S
C1534 C1532 1.419 . S
C1534 C1535 1.362 . S
C1535 H1525 0.930 . S
C1535 C1528 1.409 . S
C1535 C1534 1.362 . S
H1536 C1542 0.930 . S
H1537 C1545 0.930 . S
H1538 C1546 0.930 . S
H1539 C1547 0.930 . S
H1540 C1550 0.930 . S
H1541 C1551 0.930 . S
C1542 H1536 0.930 . S
C1542 C1543 1.355 . S
C1542 C1544 1.415 . S
C1543 C1542 1.355 . S
C1543 C1545 1.419 . S
C1544 C1542 1.415 . S
C1544 C1549 1.425 . S
C1544 C1551 1.409 . S
C1545 H1537 0.930 . S
C1545 C1543 1.419 . S
C1545 C1546 1.362 . S
C1546 H1538 0.930 . S
C1546 C1545 1.362 . S
C1546 C1549 1.409 . S
C1547 H1539 0.930 . S
C1547 C1548 1.355 . S
C1547 C1549 1.415 . S
C1548 C1547 1.355 . S
C1548 C1550 1.419 . S
C1549 C1544 1.425 . S
C1549 C1546 1.409 . S
C1549 C1547 1.415 . S
C1550 H1540 0.930 . S
C1550 C1548 1.419 . S
C1550 C1551 1.362 . S
C1551 H1541 0.930 . S
C1551 C1544 1.409 . S
C1551 C1550 1.362 . S
H1552 C1558 0.930 . S
H1553 C1561 0.930 . S
H1554 C1562 0.930 . S
H1555 C1563 0.930 . S
H1556 C1566 0.930 . S
H1557 C1567 0.930 . S
C1558 H1552 0.930 . S
C1558 C1559 1.355 . S
C1558 C1560 1.415 . S
C1559 C1558 1.355 . S
C1559 C1561 1.419 . S
C1560 C1558 1.415 . S
C1560 C1565 1.425 . S
C1560 C1567 1.409 . S
C1561 H1553 0.930 . S
C1561 C1559 1.419 . S
C1561 C1562 1.362 . S
C1562 H1554 0.930 . S
C1562 C1561 1.362 . S
C1562 C1565 1.409 . S
C1563 H1555 0.930 . S
C1563 C1564 1.355 . S
C1563 C1565 1.415 . S
C1564 C1563 1.355 . S
C1564 C1566 1.419 . S
C1565 C1560 1.425 . S
C1565 C1562 1.409 . S
C1565 C1563 1.415 . S
C1566 H1556 0.930 . S
C1566 C1564 1.419 . S
C1566 C1567 1.362 . S
C1567 H1557 0.930 . S
C1567 C1560 1.409 . S
C1567 C1566 1.362 . S
H1568 C1574 0.930 . S
H1569 C1577 0.930 . S
H1570 C1578 0.930 . S
H1571 C1579 0.930 . S
H1572 C1582 0.930 . S
H1573 C1583 0.930 . S
C1574 H1568 0.930 . S
C1574 C1575 1.355 . S
C1574 C1576 1.415 . S
C1575 C1574 1.355 . S
C1575 C1577 1.419 . S
C1576 C1574 1.415 . S
C1576 C1581 1.425 . S
C1576 C1583 1.409 . S
C1577 H1569 0.930 . S
C1577 C1575 1.419 . S
C1577 C1578 1.362 . S
C1578 H1570 0.930 . S
C1578 C1577 1.362 . S
C1578 C1581 1.409 . S
C1579 H1571 0.930 . S
C1579 C1580 1.355 . S
C1579 C1581 1.415 . S
C1580 C1579 1.355 . S
C1580 C1582 1.419 . S
C1581 C1576 1.425 . S
C1581 C1578 1.409 . S
C1581 C1579 1.415 . S
C1582 H1572 0.930 . S
C1582 C1580 1.419 . S
C1582 C1583 1.362 . S
C1583 H1573 0.930 . S
C1583 C1576 1.409 . S
C1583 C1582 1.362 . S
H1584 C1590 0.930 . S
H1585 C1593 0.930 . S
H1586 C1594 0.930 . S
H1587 C1595 0.930 . S
H1588 C1598 0.930 . S
H1589 C1599 0.930 . S
C1590 H1584 0.930 . S
C1590 C1591 1.355 . S
C1590 C1592 1.415 . S
C1591 C1590 1.355 . S
C1591 C1593 1.419 . S
C1592 C1590 1.415 . S
C1592 C1597 1.425 . S
C1592 C1599 1.409 . S
C1593 H1585 0.930 . S
C1593 C1591 1.419 . S
C1593 C1594 1.362 . S
C1594 H1586 0.930 . S
C1594 C1593 1.362 . S
C1594 C1597 1.409 . S
C1595 H1587 0.930 . S
C1595 C1596 1.355 . S
C1595 C1597 1.415 . S
C1596 C1595 1.355 . S
C1596 C1598 1.419 . S
C1597 C1592 1.425 . S
C1597 C1594 1.409 . S
C1597 C1595 1.415 . S
C1598 H1588 0.930 . S
C1598 C1596 1.419 . S
C1598 C1599 1.362 . S
C1599 H1589 0.930 . S
C1599 C1592 1.409 . S
C1599 C1598 1.362 . S
H1600 C1606 0.930 . S
H1601 C1609 0.930 . S
H1602 C1610 0.930 . S
H1603 C1611 0.930 . S
H1604 C1614 0.930 . S
H1605 C1615 0.930 . S
C1606 H1600 0.930 . S
C1606 C1607 1.355 . S
C1606 C1608 1.415 . S
C1607 C1606 1.355 . S
C1607 C1609 1.419 1_565 S
C1608 C1606 1.415 . S
C1608 C1613 1.425 1_665 S
C1608 C1615 1.409 1_655 S
C1609 H1601 0.930 . S
C1609 C1607 1.419 1_545 S
C1609 C1610 1.362 . S
C1610 H1602 0.930 . S
C1610 C1609 1.362 . S
C1610 C1613 1.409 1_655 S
C1611 H1603 0.930 . S
C1611 C1612 1.355 . S
C1611 C1613 1.415 . S
C1612 C1611 1.355 . S
C1612 C1614 1.419 1_545 S
C1613 C1608 1.425 1_445 S
C1613 C1610 1.409 1_455 S
C1613 C1611 1.415 . S
C1614 H1604 0.930 . S
C1614 C1612 1.419 1_565 S
C1614 C1615 1.362 . S
C1615 H1605 0.930 . S
C1615 C1608 1.409 1_455 S
C1615 C1614 1.362 . S
H1616 C1622 0.930 . S
H1617 C1625 0.930 . S
H1618 C1626 0.930 . S
H1619 C1627 0.930 . S
H1620 C1630 0.930 . S
H1621 C1631 0.930 . S
C1622 H1616 0.930 . S
C1622 C1623 1.355 . S
C1622 C1624 1.415 . S
C1623 C1622 1.355 . S
C1623 C1625 1.419 . S
C1624 C1622 1.415 . S
C1624 C1629 1.425 . S
C1624 C1631 1.409 . S
C1625 H1617 0.930 . S
C1625 C1623 1.419 . S
C1625 C1626 1.362 . S
C1626 H1618 0.930 . S
C1626 C1625 1.362 . S
C1626 C1629 1.409 . S
C1627 H1619 0.930 . S
C1627 C1628 1.355 . S
C1627 C1629 1.415 . S
C1628 C1627 1.355 . S
C1628 C1630 1.419 . S
C1629 C1624 1.425 . S
C1629 C1626 1.409 . S
C1629 C1627 1.415 . S
C1630 H1620 0.930 . S
C1630 C1628 1.419 . S
C1630 C1631 1.362 . S
C1631 H1621 0.930 . S
C1631 C1624 1.409 . S
C1631 C1630 1.362 . S
H1632 C1638 0.930 . S
H1633 C1641 0.930 . S
H1634 C1642 0.930 . S
H1635 C1643 0.930 . S
H1636 C1646 0.930 . S
H1637 C1647 0.930 . S
C1638 H1632 0.930 . S
C1638 C1639 1.355 . S
C1638 C1640 1.415 . S
C1639 C1638 1.355 . S
C1639 C1641 1.419 . S
C1640 C1638 1.415 . S
C1640 C1645 1.425 1_655 S
C1640 C1647 1.409 1_655 S
C1641 H1633 0.930 . S
C1641 C1639 1.419 . S
C1641 C1642 1.362 . S
C1642 H1634 0.930 . S
C1642 C1641 1.362 . S
C1642 C1645 1.409 1_655 S
C1643 H1635 0.930 . S
C1643 C1644 1.355 . S
C1643 C1645 1.415 . S
C1644 C1643 1.355 . S
C1644 C1646 1.419 . S
C1645 C1640 1.425 1_455 S
C1645 C1642 1.409 1_455 S
C1645 C1643 1.415 . S
C1646 H1636 0.930 . S
C1646 C1644 1.419 . S
C1646 C1647 1.362 . S
C1647 H1637 0.930 . S
C1647 C1640 1.409 1_455 S
C1647 C1646 1.362 . S
H1648 C1654 0.930 . S
H1649 C1657 0.930 . S
H1650 C1658 0.930 . S
H1651 C1659 0.930 . S
H1652 C1662 0.930 . S
H1653 C1663 0.930 . S
C1654 H1648 0.930 . S
C1654 C1655 1.355 1_565 S
C1654 C1656 1.415 . S
C1655 C1654 1.355 1_545 S
C1655 C1657 1.419 . S
C1656 C1654 1.415 . S
C1656 C1661 1.425 1_565 S
C1656 C1663 1.409 . S
C1657 H1649 0.930 . S
C1657 C1655 1.419 . S
C1657 C1658 1.362 . S
C1658 H1650 0.930 . S
C1658 C1657 1.362 . S
C1658 C1661 1.409 . S
C1659 H1651 0.930 . S
C1659 C1660 1.355 1_545 S
C1659 C1661 1.415 . S
C1660 C1659 1.355 1_565 S
C1660 C1662 1.419 . S
C1661 C1656 1.425 1_545 S
C1661 C1658 1.409 . S
C1661 C1659 1.415 . S
C1662 H1652 0.930 . S
C1662 C1660 1.419 . S
C1662 C1663 1.362 . S
C1663 H1653 0.930 . S
C1663 C1656 1.409 . S
C1663 C1662 1.362 . S
H1664 C1670 0.930 . S
H1665 C1673 0.930 . S
H1666 C1674 0.930 . S
H1667 C1675 0.930 . S
H1668 C1678 0.930 . S
H1669 C1679 0.930 . S
C1670 H1664 0.930 . S
C1670 C1671 1.355 . S
C1670 C1672 1.415 . S
C1671 C1670 1.355 . S
C1671 C1673 1.419 . S
C1672 C1670 1.415 . S
C1672 C1677 1.425 . S
C1672 C1679 1.409 . S
C1673 H1665 0.930 . S
C1673 C1671 1.419 . S
C1673 C1674 1.362 . S
C1674 H1666 0.930 . S
C1674 C1673 1.362 . S
C1674 C1677 1.409 . S
C1675 H1667 0.930 . S
C1675 C1676 1.355 . S
C1675 C1677 1.415 . S
C1676 C1675 1.355 . S
C1676 C1678 1.419 . S
C1677 C1672 1.425 . S
C1677 C1674 1.409 . S
C1677 C1675 1.415 . S
C1678 H1668 0.930 . S
C1678 C1676 1.419 . S
C1678 C1679 1.362 . S
C1679 H1669 0.930 . S
C1679 C1672 1.409 . S
C1679 C1678 1.362 . S
H1680 C1686 0.930 . S
H1681 C1689 0.930 . S
H1682 C1690 0.930 . S
H1683 C1691 0.930 . S
H1684 C1694 0.930 . S
H1685 C1695 0.930 . S
C1686 H1680 0.930 . S
C1686 C1687 1.355 . S
C1686 C1688 1.415 . S
C1687 C1686 1.355 . S
C1687 C1689 1.419 . S
C1688 C1686 1.415 . S
C1688 C1693 1.425 1_655 S
C1688 C1695 1.409 1_655 S
C1689 H1681 0.930 . S
C1689 C1687 1.419 . S
C1689 C1690 1.362 . S
C1690 H1682 0.930 . S
C1690 C1689 1.362 . S
C1690 C1693 1.409 1_655 S
C1691 H1683 0.930 . S
C1691 C1692 1.355 . S
C1691 C1693 1.415 . S
C1692 C1691 1.355 . S
C1692 C1694 1.419 . S
C1693 C1688 1.425 1_455 S
C1693 C1690 1.409 1_455 S
C1693 C1691 1.415 . S
C1694 H1684 0.930 . S
C1694 C1692 1.419 . S
C1694 C1695 1.362 . S
C1695 H1685 0.930 . S
C1695 C1688 1.409 1_455 S
C1695 C1694 1.362 . S
H1696 C1702 0.930 . S
H1697 C1705 0.930 . S
H1698 C1706 0.930 . S
H1699 C1707 0.930 . S
H1700 C1710 0.930 . S
H1701 C1711 0.930 . S
C1702 H1696 0.930 . S
C1702 C1703 1.355 . S
C1702 C1704 1.415 1_545 S
C1703 C1702 1.355 . S
C1703 C1705 1.419 . S
C1704 C1702 1.415 1_565 S
C1704 C1709 1.425 1_565 S
C1704 C1711 1.409 . S
C1705 H1697 0.930 . S
C1705 C1703 1.419 . S
C1705 C1706 1.362 . S
C1706 H1698 0.930 . S
C1706 C1705 1.362 . S
C1706 C1709 1.409 . S
C1707 H1699 0.930 . S
C1707 C1708 1.355 . S
C1707 C1709 1.415 1_565 S
C1708 C1707 1.355 . S
C1708 C1710 1.419 . S
C1709 C1704 1.425 1_545 S
C1709 C1706 1.409 . S
C1709 C1707 1.415 1_545 S
C1710 H1700 0.930 . S
C1710 C1708 1.419 . S
C1710 C1711 1.362 . S
C1711 H1701 0.930 . S
C1711 C1704 1.409 . S
C1711 C1710 1.362 . S
H1712 C1718 0.930 . S
H1713 C1721 0.930 . S
H1714 C1722 0.930 1_655 S
H1715 C1723 0.930 . S
H1716 C1726 0.930 . S
H1717 C1727 0.930 1_455 S
C1718 H1712 0.930 . S
C1718 C1719 1.355 1_554 S
C1718 C1720 1.415 . S
C1719 C1718 1.355 1_556 S
C1719 C1721 1.419 . S
C1720 C1718 1.415 . S
C1720 C1725 1.425 1_454 S
C1720 C1727 1.409 1_455 S
C1721 H1713 0.930 . S
C1721 C1719 1.419 . S
C1721 C1722 1.362 . S
C1722 H1714 0.930 1_455 S
C1722 C1721 1.362 . S
C1722 C1725 1.409 1_455 S
C1723 H1715 0.930 . S
C1723 C1724 1.355 1_556 S
C1723 C1725 1.415 . S
C1724 C1723 1.355 1_554 S
C1724 C1726 1.419 . S
C1725 C1720 1.425 1_656 S
C1725 C1722 1.409 1_655 S
C1725 C1723 1.415 . S
C1726 H1716 0.930 . S
C1726 C1724 1.419 . S
C1726 C1727 1.362 . S
C1727 H1717 0.930 1_655 S
C1727 C1720 1.409 1_655 S
C1727 C1726 1.362 . S
H1728 C1734 0.930 . S
H1729 C1737 0.930 . S
H1730 C1738 0.930 . S
H1731 C1739 0.930 . S
H1732 C1742 0.930 . S
H1733 C1743 0.930 . S
C1734 H1728 0.930 . S
C1734 C1735 1.353 . S
C1734 C1736 1.415 . S
C1735 C1734 1.353 . S
C1735 C1737 1.421 1_554 S
C1736 C1734 1.415 . S
C1736 C1741 1.425 1_554 S
C1736 C1743 1.409 . S
C1737 H1729 0.930 . S
C1737 C1735 1.421 1_556 S
C1737 C1738 1.362 . S
C1738 H1730 0.930 . S
C1738 C1737 1.362 . S
C1738 C1741 1.409 . S
C1739 H1731 0.930 . S
C1739 C1740 1.353 . S
C1739 C1741 1.415 . S
C1740 C1739 1.353 . S
C1740 C1742 1.421 1_556 S
C1741 C1736 1.425 1_556 S
C1741 C1738 1.409 . S
C1741 C1739 1.415 . S
C1742 H1732 0.930 . S
C1742 C1740 1.421 1_554 S
C1742 C1743 1.362 . S
C1743 H1733 0.930 . S
C1743 C1736 1.409 . S
C1743 C1742 1.362 . S
H1744 C1750 0.930 . S
H1745 C1753 0.930 . S
H1746 C1754 0.930 . S
H1747 C1755 0.930 . S
H1748 C1758 0.930 . S
H1749 C1759 0.930 . S
C1750 H1744 0.930 . S
C1750 C1751 1.355 . S
C1750 C1752 1.415 . S
C1751 C1750 1.355 . S
C1751 C1753 1.419 . S
C1752 C1750 1.415 . S
C1752 C1757 1.425 . S
C1752 C1759 1.409 . S
C1753 H1745 0.930 . S
C1753 C1751 1.419 . S
C1753 C1754 1.362 . S
C1754 H1746 0.930 . S
C1754 C1753 1.362 . S
C1754 C1757 1.409 . S
C1755 H1747 0.930 . S
C1755 C1756 1.355 . S
C1755 C1757 1.415 . S
C1756 C1755 1.355 . S
C1756 C1758 1.419 . S
C1757 C1752 1.425 . S
C1757 C1754 1.409 . S
C1757 C1755 1.415 . S
C1758 H1748 0.930 . S
C1758 C1756 1.419 . S
C1758 C1759 1.362 . S
C1759 H1749 0.930 . S
C1759 C1752 1.409 . S
C1759 C1758 1.362 . S
H1760 C1766 0.933 . S
H1761 C1769 0.930 . S
H1762 C1770 0.930 . S
H1763 C1771 0.933 . S
H1764 C1774 0.930 . S
H1765 C1775 0.930 . S
C1766 H1760 0.933 . S
C1766 C1767 1.351 1_556 S
C1766 C1768 1.416 . S
C1767 C1766 1.351 1_554 S
C1767 C1769 1.419 . S
C1768 C1766 1.416 . S
C1768 C1773 1.425 1_556 S
C1768 C1775 1.409 . S
C1769 H1761 0.930 . S
C1769 C1767 1.419 . S
C1769 C1770 1.362 . S
C1770 H1762 0.930 . S
C1770 C1769 1.362 . S
C1770 C1773 1.409 . S
C1771 H1763 0.933 . S
C1771 C1772 1.351 1_554 S
C1771 C1773 1.416 . S
C1772 C1771 1.351 1_556 S
C1772 C1774 1.419 . S
C1773 C1768 1.425 1_554 S
C1773 C1770 1.409 . S
C1773 C1771 1.416 . S
C1774 H1764 0.930 . S
C1774 C1772 1.419 . S
C1774 C1775 1.362 . S
C1775 H1765 0.930 . S
C1775 C1768 1.409 . S
C1775 C1774 1.362 . S
H1776 C1782 0.930 . S
H1777 C1785 0.930 . S
H1778 C1786 0.930 . S
H1779 C1787 0.930 . S
H1780 C1790 0.930 . S
H1781 C1791 0.930 . S
C1782 H1776 0.930 . S
C1782 C1783 1.355 . S
C1782 C1784 1.415 . S
C1783 C1782 1.355 . S
C1783 C1785 1.419 . S
C1784 C1782 1.415 . S
C1784 C1789 1.425 . S
C1784 C1791 1.409 . S
C1785 H1777 0.930 . S
C1785 C1783 1.419 . S
C1785 C1786 1.362 . S
C1786 H1778 0.930 . S
C1786 C1785 1.362 . S
C1786 C1789 1.409 . S
C1787 H1779 0.930 . S
C1787 C1788 1.355 . S
C1787 C1789 1.415 . S
C1788 C1787 1.355 . S
C1788 C1790 1.419 . S
C1789 C1784 1.425 . S
C1789 C1786 1.409 . S
C1789 C1787 1.415 . S
C1790 H1780 0.930 . S
C1790 C1788 1.419 . S
C1790 C1791 1.362 . S
C1791 H1781 0.930 . S
C1791 C1784 1.409 . S
C1791 C1790 1.362 . S
H1792 C1798 0.930 . S
H1793 C1801 0.930 . S
H1794 C1802 0.930 . S
H1795 C1803 0.930 . S
H1796 C1806 0.930 . S
H1797 C1807 0.930 . S
C1798 H1792 0.930 . S
C1798 C1799 1.355 1_545 S
C1798 C1800 1.415 . S
C1799 C1798 1.355 1_565 S
C1799 C1801 1.418 1_554 S
C1800 C1798 1.415 . S
C1800 C1805 1.424 1_544 S
C1800 C1807 1.410 . S
C1801 H1793 0.930 . S
C1801 C1799 1.418 1_556 S
C1801 C1802 1.363 . S
C1802 H1794 0.930 . S
C1802 C1801 1.363 . S
C1802 C1805 1.410 . S
C1803 H1795 0.930 . S
C1803 C1804 1.355 1_565 S
C1803 C1805 1.415 . S
C1804 C1803 1.355 1_545 S
C1804 C1806 1.418 1_556 S
C1805 C1800 1.424 1_566 S
C1805 C1802 1.410 . S
C1805 C1803 1.415 . S
C1806 H1796 0.930 . S
C1806 C1804 1.418 1_554 S
C1806 C1807 1.363 . S
C1807 H1797 0.930 . S
C1807 C1800 1.410 . S
C1807 C1806 1.363 . S
H1808 C1814 0.930 . S
H1809 C1817 0.930 . S
H1810 C1818 0.930 . S
H1811 C1819 0.930 . S
H1812 C1822 0.930 . S
H1813 C1823 0.930 . S
C1814 H1808 0.930 . S
C1814 C1815 1.355 . S
C1814 C1816 1.415 . S
C1815 C1814 1.355 . S
C1815 C1817 1.419 . S
C1816 C1814 1.415 . S
C1816 C1821 1.425 . S
C1816 C1823 1.409 . S
C1817 H1809 0.930 . S
C1817 C1815 1.419 . S
C1817 C1818 1.362 . S
C1818 H1810 0.930 . S
C1818 C1817 1.362 . S
C1818 C1821 1.409 . S
C1819 H1811 0.930 . S
C1819 C1820 1.355 . S
C1819 C1821 1.415 . S
C1820 C1819 1.355 . S
C1820 C1822 1.419 . S
C1821 C1816 1.425 . S
C1821 C1818 1.409 . S
C1821 C1819 1.415 . S
C1822 H1812 0.930 . S
C1822 C1820 1.419 . S
C1822 C1823 1.362 . S
C1823 H1813 0.930 . S
C1823 C1816 1.409 . S
C1823 C1822 1.362 . S
H1824 C1830 0.930 . S
H1825 C1833 0.930 . S
H1826 C1834 0.930 . S
H1827 C1835 0.930 . S
H1828 C1838 0.930 . S
H1829 C1839 0.930 . S
C1830 H1824 0.930 . S
C1830 C1831 1.355 . S
C1830 C1832 1.415 . S
C1831 C1830 1.355 . S
C1831 C1833 1.419 . S
C1832 C1830 1.415 . S
C1832 C1837 1.425 . S
C1832 C1839 1.409 . S
C1833 H1825 0.930 . S
C1833 C1831 1.419 . S
C1833 C1834 1.362 . S
C1834 H1826 0.930 . S
C1834 C1833 1.362 . S
C1834 C1837 1.409 . S
C1835 H1827 0.930 . S
C1835 C1836 1.355 . S
C1835 C1837 1.415 . S
C1836 C1835 1.355 . S
C1836 C1838 1.419 . S
C1837 C1832 1.425 . S
C1837 C1834 1.409 . S
C1837 C1835 1.415 . S
C1838 H1828 0.930 . S
C1838 C1836 1.419 . S
C1838 C1839 1.362 . S
C1839 H1829 0.930 . S
C1839 C1832 1.409 . S
C1839 C1838 1.362 . S
H1840 C1846 0.930 . S
H1841 C1849 0.930 . S
H1842 C1850 0.930 . S
H1843 C1851 0.930 . S
H1844 C1854 0.930 . S
H1845 C1855 0.930 . S
C1846 H1840 0.930 . S
C1846 C1847 1.355 . S
C1846 C1848 1.415 . S
C1847 C1846 1.355 . S
C1847 C1849 1.419 . S
C1848 C1846 1.415 . S
C1848 C1853 1.425 . S
C1848 C1855 1.409 . S
C1849 H1841 0.930 . S
C1849 C1847 1.419 . S
C1849 C1850 1.362 . S
C1850 H1842 0.930 . S
C1850 C1849 1.362 . S
C1850 C1853 1.409 . S
C1851 H1843 0.930 . S
C1851 C1852 1.355 . S
C1851 C1853 1.415 . S
C1852 C1851 1.355 . S
C1852 C1854 1.419 . S
C1853 C1848 1.425 . S
C1853 C1850 1.409 . S
C1853 C1851 1.415 . S
C1854 H1844 0.930 . S
C1854 C1852 1.419 . S
C1854 C1855 1.362 . S
C1855 H1845 0.930 . S
C1855 C1848 1.409 . S
C1855 C1854 1.362 . S
H1856 C1862 0.930 . S
H1857 C1865 0.930 . S
H1858 C1866 0.938 . S
H1859 C1867 0.930 . S
H1860 C1870 0.930 1_545 S
H1861 C1871 0.930 . S
C1862 H1856 0.930 . S
C1862 C1863 1.355 . S
C1862 C1864 1.415 . S
C1863 C1862 1.355 . S
C1863 C1865 1.419 . S
C1864 C1862 1.415 . S
C1864 C1869 1.425 . S
C1864 C1871 1.409 . S
C1865 H1857 0.930 . S
C1865 C1863 1.419 . S
C1865 C1866 1.362 . S
C1866 H1858 0.938 . S
C1866 C1865 1.362 . S
C1866 C1869 1.409 . S
C1867 H1859 0.930 . S
C1867 C1868 1.355 . S
C1867 C1869 1.415 1_545 S
C1868 C1867 1.355 . S
C1868 C1870 1.418 1_545 S
C1869 C1864 1.425 . S
C1869 C1866 1.409 . S
C1869 C1867 1.415 1_565 S
C1870 H1860 0.930 1_565 S
C1870 C1868 1.418 1_565 S
C1870 C1871 1.363 . S
C1871 H1861 0.930 . S
C1871 C1864 1.409 . S
C1871 C1870 1.363 . S
H1872 C1878 0.930 . S
H1873 C1881 0.930 . S
H1874 C1882 0.930 . S
H1875 C1883 0.938 . S
H1876 C1886 0.930 . S
H1877 C1887 0.930 . S
C1878 H1872 0.930 . S
C1878 C1879 1.355 . S
C1878 C1880 1.415 . S
C1879 C1878 1.355 . S
C1879 C1881 1.419 . S
C1880 C1878 1.415 . S
C1880 C1885 1.425 . S
C1880 C1887 1.409 . S
C1881 H1873 0.930 . S
C1881 C1879 1.419 . S
C1881 C1882 1.362 . S
C1882 H1874 0.930 . S
C1882 C1881 1.362 . S
C1882 C1885 1.409 . S
C1883 H1875 0.938 . S
C1883 C1884 1.355 . S
C1883 C1885 1.415 . S
C1884 C1883 1.355 . S
C1884 C1886 1.419 . S
C1885 C1880 1.425 . S
C1885 C1882 1.409 . S
C1885 C1883 1.415 . S
C1886 H1876 0.930 . S
C1886 C1884 1.419 . S
C1886 C1887 1.362 . S
C1887 H1877 0.930 . S
C1887 C1880 1.409 . S
C1887 C1886 1.362 . S
H1888 C1894 0.930 . S
H1889 C1897 0.930 . S
H1890 C1898 0.930 . S
H1891 C1899 0.930 . S
H1892 C1902 0.930 . S
H1893 C1903 0.930 . S
C1894 H1888 0.930 . S
C1894 C1895 1.355 . S
C1894 C1896 1.415 . S
C1895 C1894 1.355 . S
C1895 C1897 1.419 . S
C1896 C1894 1.415 . S
C1896 C1901 1.425 . S
C1896 C1903 1.409 . S
C1897 H1889 0.930 . S
C1897 C1895 1.419 . S
C1897 C1898 1.362 . S
C1898 H1890 0.930 . S
C1898 C1897 1.362 . S
C1898 C1901 1.409 . S
C1899 H1891 0.930 . S
C1899 C1900 1.355 . S
C1899 C1901 1.415 . S
C1900 C1899 1.355 . S
C1900 C1902 1.419 . S
C1901 C1896 1.425 . S
C1901 C1898 1.409 . S
C1901 C1899 1.415 . S
C1902 H1892 0.930 . S
C1902 C1900 1.419 . S
C1902 C1903 1.362 . S
C1903 H1893 0.930 . S
C1903 C1896 1.409 . S
C1903 C1902 1.362 . S
H1904 C1910 0.930 . S
H1905 C1913 0.930 . S
H1906 C1914 0.930 . S
H1907 C1915 0.930 . S
H1908 C1918 0.930 . S
H1909 C1919 0.930 . S
C1910 H1904 0.930 . S
C1910 C1911 1.355 1_565 S
C1910 C1912 1.415 . S
C1911 C1910 1.355 1_545 S
C1911 C1913 1.419 . S
C1912 C1910 1.415 . S
C1912 C1917 1.425 1_565 S
C1912 C1919 1.409 . S
C1913 H1905 0.930 . S
C1913 C1911 1.419 . S
C1913 C1914 1.362 . S
C1914 H1906 0.930 . S
C1914 C1913 1.362 . S
C1914 C1917 1.409 . S
C1915 H1907 0.930 . S
C1915 C1916 1.355 1_545 S
C1915 C1917 1.415 . S
C1916 C1915 1.355 1_565 S
C1916 C1918 1.419 . S
C1917 C1912 1.425 1_545 S
C1917 C1914 1.409 . S
C1917 C1915 1.415 . S
C1918 H1908 0.930 . S
C1918 C1916 1.419 . S
C1918 C1919 1.362 . S
C1919 H1909 0.930 . S
C1919 C1912 1.409 . S
C1919 C1918 1.362 . S
H1920 C1926 0.930 . S
H1921 C1929 0.930 . S
H1922 C1930 0.930 . S
H1923 C1931 0.930 . S
H1924 C1934 0.930 . S
H1925 C1935 0.930 . S
C1926 H1920 0.930 . S
C1926 C1927 1.355 . S
C1926 C1928 1.415 . S
C1927 C1926 1.355 . S
C1927 C1929 1.419 1_565 S
C1928 C1926 1.415 . S
C1928 C1933 1.425 1_565 S
C1928 C1935 1.409 . S
C1929 H1921 0.930 . S
C1929 C1927 1.419 1_545 S
C1929 C1930 1.362 . S
C1930 H1922 0.930 . S
C1930 C1929 1.362 . S
C1930 C1933 1.409 . S
C1931 H1923 0.930 . S
C1931 C1932 1.355 . S
C1931 C1933 1.415 . S
C1932 C1931 1.355 . S
C1932 C1934 1.419 1_545 S
C1933 C1928 1.425 1_545 S
C1933 C1930 1.409 . S
C1933 C1931 1.415 . S
C1934 H1924 0.930 . S
C1934 C1932 1.419 1_565 S
C1934 C1935 1.362 . S
C1935 H1925 0.930 . S
C1935 C1928 1.409 . S
C1935 C1934 1.362 . S
H1936 C1942 0.930 . S
H1937 C1945 0.930 . S
H1938 C1946 0.930 . S
H1939 C1947 0.930 . S
H1940 C1950 0.930 1_655 S
H1941 C1951 0.930 . S
C1942 H1936 0.930 . S
C1942 C1943 1.355 . S
C1942 C1944 1.415 . S
C1943 C1942 1.355 . S
C1943 C1945 1.419 . S
C1944 C1942 1.415 . S
C1944 C1949 1.425 . S
C1944 C1951 1.409 . S
C1945 H1937 0.930 . S
C1945 C1943 1.419 . S
C1945 C1946 1.362 . S
C1946 H1938 0.930 . S
C1946 C1945 1.362 . S
C1946 C1949 1.409 . S
C1947 H1939 0.930 . S
C1947 C1948 1.355 . S
C1947 C1949 1.415 . S
C1948 C1947 1.355 . S
C1948 C1950 1.419 . S
C1949 C1944 1.425 . S
C1949 C1946 1.409 . S
C1949 C1947 1.415 . S
C1950 H1940 0.930 1_455 S
C1950 C1948 1.419 . S
C1950 C1951 1.362 . S
C1951 H1941 0.930 . S
C1951 C1944 1.409 . S
C1951 C1950 1.362 . S
H1952 C1958 0.930 . S
H1953 C1961 0.930 . S
H1954 C1962 0.930 . S
H1955 C1963 0.930 . S
H1956 C1966 0.930 . S
H1957 C1967 0.930 . S
C1958 H1952 0.930 . S
C1958 C1959 1.355 . S
C1958 C1960 1.415 . S
C1959 C1958 1.355 . S
C1959 C1961 1.419 . S
C1960 C1958 1.415 . S
C1960 C1965 1.425 . S
C1960 C1967 1.409 . S
C1961 H1953 0.930 . S
C1961 C1959 1.419 . S
C1961 C1962 1.362 . S
C1962 H1954 0.930 . S
C1962 C1961 1.362 . S
C1962 C1965 1.409 . S
C1963 H1955 0.930 . S
C1963 C1964 1.355 . S
C1963 C1965 1.415 . S
C1964 C1963 1.355 . S
C1964 C1966 1.419 . S
C1965 C1960 1.425 . S
C1965 C1962 1.409 . S
C1965 C1963 1.415 . S
C1966 H1956 0.930 . S
C1966 C1964 1.419 . S
C1966 C1967 1.362 . S
C1967 H1957 0.930 . S
C1967 C1960 1.409 . S
C1967 C1966 1.362 . S
H1968 C1974 0.924 1_655 S
H1969 C1977 0.930 . S
H1970 C1978 0.930 . S
H1971 C1979 0.930 . S
H1972 C1982 0.930 . S
H1973 C1983 0.930 . S
C1974 H1968 0.924 1_455 S
C1974 C1975 1.355 . S
C1974 C1976 1.415 . S
C1975 C1974 1.355 . S
C1975 C1977 1.419 1_565 S
C1976 C1974 1.415 . S
C1976 C1981 1.425 1_565 S
C1976 C1983 1.409 . S
C1977 H1969 0.930 . S
C1977 C1975 1.419 1_545 S
C1977 C1978 1.362 . S
C1978 H1970 0.930 . S
C1978 C1977 1.362 . S
C1978 C1981 1.409 . S
C1979 H1971 0.930 . S
C1979 C1980 1.355 . S
C1979 C1981 1.415 . S
C1980 C1979 1.355 . S
C1980 C1982 1.419 1_545 S
C1981 C1976 1.425 1_545 S
C1981 C1978 1.409 . S
C1981 C1979 1.415 . S
C1982 H1972 0.930 . S
C1982 C1980 1.419 1_565 S
C1982 C1983 1.362 . S
C1983 H1973 0.930 . S
C1983 C1976 1.409 . S
C1983 C1982 1.362 . S
H1984 C1990 0.930 . S
H1985 C1993 0.930 . S
H1986 C1994 0.930 . S
H1987 C1995 0.930 . S
H1988 C1998 0.930 . S
H1989 C1999 0.930 . S
C1990 H1984 0.930 . S
C1990 C1991 1.355 . S
C1990 C1992 1.415 . S
C1991 C1990 1.355 . S
C1991 C1993 1.419 . S
C1992 C1990 1.415 . S
C1992 C1997 1.425 . S
C1992 C1999 1.409 . S
C1993 H1985 0.930 . S
C1993 C1991 1.419 . S
C1993 C1994 1.362 . S
C1994 H1986 0.930 . S
C1994 C1993 1.362 . S
C1994 C1997 1.409 . S
C1995 H1987 0.930 . S
C1995 C1996 1.355 . S
C1995 C1997 1.415 . S
C1996 C1995 1.355 . S
C1996 C1998 1.419 . S
C1997 C1992 1.425 . S
C1997 C1994 1.409 . S
C1997 C1995 1.415 . S
C1998 H1988 0.930 . S
C1998 C1996 1.419 . S
C1998 C1999 1.362 . S
C1999 H1989 0.930 . S
C1999 C1992 1.409 . S
C1999 C1998 1.362 . S
H2000 C2006 0.930 . S
H2001 C2009 0.930 . S
H2002 C2010 0.930 . S
H2003 C2011 0.930 . S
H2004 C2014 0.930 . S
H2005 C2015 0.930 . S
C2006 H2000 0.930 . S
C2006 C2007 1.355 . S
C2006 C2008 1.415 . S
C2007 C2006 1.355 . S
C2007 C2009 1.419 . S
C2008 C2006 1.415 . S
C2008 C2013 1.425 . S
C2008 C2015 1.409 . S
C2009 H2001 0.930 . S
C2009 C2007 1.419 . S
C2009 C2010 1.362 . S
C2010 H2002 0.930 . S
C2010 C2009 1.362 . S
C2010 C2013 1.409 . S
C2011 H2003 0.930 . S
C2011 C2012 1.355 . S
C2011 C2013 1.415 . S
C2012 C2011 1.355 . S
C2012 C2014 1.419 1_655 S
C2013 C2008 1.425 . S
C2013 C2010 1.409 . S
C2013 C2011 1.415 . S
C2014 H2004 0.930 . S
C2014 C2012 1.419 1_455 S
C2014 C2015 1.362 1_455 S
C2015 H2005 0.930 . S
C2015 C2008 1.409 . S
C2015 C2014 1.362 1_655 S
H2016 C2022 0.930 . S
H2017 C2025 0.930 . S
H2018 C2026 0.930 . S
H2019 C2027 0.930 . S
H2020 C2030 0.930 . S
H2021 C2031 0.930 . S
C2022 H2016 0.930 . S
C2022 C2023 1.355 . S
C2022 C2024 1.415 . S
C2023 C2022 1.355 . S
C2023 C2025 1.419 . S
C2024 C2022 1.415 . S
C2024 C2029 1.425 . S
C2024 C2031 1.409 . S
C2025 H2017 0.930 . S
C2025 C2023 1.419 . S
C2025 C2026 1.362 . S
C2026 H2018 0.930 . S
C2026 C2025 1.362 . S
C2026 C2029 1.409 . S
C2027 H2019 0.930 . S
C2027 C2028 1.355 . S
C2027 C2029 1.415 . S
C2028 C2027 1.355 . S
C2028 C2030 1.419 . S
C2029 C2024 1.425 . S
C2029 C2026 1.409 . S
C2029 C2027 1.415 . S
C2030 H2020 0.930 . S
C2030 C2028 1.419 . S
C2030 C2031 1.362 . S
C2031 H2021 0.930 . S
C2031 C2024 1.409 . S
C2031 C2030 1.362 . S
H2032 C2038 0.930 . S
H2033 C2041 0.930 . S
H2034 C2042 0.930 . S
H2035 C2043 0.930 . S
H2036 C2046 0.930 . S
H2037 C2047 0.930 . S
C2038 H2032 0.930 . S
C2038 C2039 1.355 . S
C2038 C2040 1.415 . S
C2039 C2038 1.355 . S
C2039 C2041 1.419 . S
C2040 C2038 1.415 . S
C2040 C2045 1.425 . S
C2040 C2047 1.409 . S
C2041 H2033 0.930 . S
C2041 C2039 1.419 . S
C2041 C2042 1.362 . S
C2042 H2034 0.930 . S
C2042 C2041 1.362 . S
C2042 C2045 1.409 . S
C2043 H2035 0.930 . S
C2043 C2044 1.355 . S
C2043 C2045 1.415 . S
C2044 C2043 1.355 . S
C2044 C2046 1.419 . S
C2045 C2040 1.425 . S
C2045 C2042 1.409 . S
C2045 C2043 1.415 . S
C2046 H2036 0.930 . S
C2046 C2044 1.419 . S
C2046 C2047 1.362 . S
C2047 H2037 0.930 . S
C2047 C2040 1.409 . S
C2047 C2046 1.362 . S
H2048 C2054 0.930 . S
H2049 C2057 0.930 . S
H2050 C2058 0.930 . S
H2051 C2059 0.930 . S
H2052 C2062 0.930 . S
H2053 C2063 0.930 . S
C2054 H2048 0.930 . S
C2054 C2055 1.355 . S
C2054 C2056 1.415 . S
C2055 C2054 1.355 . S
C2055 C2057 1.419 . S
C2056 C2054 1.415 . S
C2056 C2061 1.425 . S
C2056 C2063 1.409 . S
C2057 H2049 0.930 . S
C2057 C2055 1.419 . S
C2057 C2058 1.362 . S
C2058 H2050 0.930 . S
C2058 C2057 1.362 . S
C2058 C2061 1.409 . S
C2059 H2051 0.930 . S
C2059 C2060 1.355 . S
C2059 C2061 1.415 . S
C2060 C2059 1.355 . S
C2060 C2062 1.419 . S
C2061 C2056 1.425 . S
C2061 C2058 1.409 . S
C2061 C2059 1.415 . S
C2062 H2052 0.930 . S
C2062 C2060 1.419 . S
C2062 C2063 1.362 . S
C2063 H2053 0.930 . S
C2063 C2056 1.409 . S
C2063 C2062 1.362 . S
H2064 C2070 0.930 . S
H2065 C2073 0.930 . S
H2066 C2074 0.930 . S
H2067 C2075 0.930 1_655 S
H2068 C2078 0.930 . S
H2069 C2079 0.930 . S
C2070 H2064 0.930 . S
C2070 C2071 1.355 . S
C2070 C2072 1.415 . S
C2071 C2070 1.355 . S
C2071 C2073 1.419 . S
C2072 C2070 1.415 . S
C2072 C2077 1.425 . S
C2072 C2079 1.409 . S
C2073 H2065 0.930 . S
C2073 C2071 1.419 . S
C2073 C2074 1.362 . S
C2074 H2066 0.930 . S
C2074 C2073 1.362 . S
C2074 C2077 1.409 . S
C2075 H2067 0.930 1_455 S
C2075 C2076 1.355 . S
C2075 C2077 1.415 . S
C2076 C2075 1.355 . S
C2076 C2078 1.419 . S
C2077 C2072 1.425 . S
C2077 C2074 1.409 . S
C2077 C2075 1.415 . S
C2078 H2068 0.930 . S
C2078 C2076 1.419 . S
C2078 C2079 1.362 . S
C2079 H2069 0.930 . S
C2079 C2072 1.409 . S
C2079 C2078 1.362 . S
H2080 C2086 0.930 . S
H2081 C2089 0.930 . S
H2082 C2090 0.930 . S
H2083 C2091 0.930 . S
H2084 C2094 0.930 . S
H2085 C2095 0.930 . S
C2086 H2080 0.930 . S
C2086 C2087 1.355 . S
C2086 C2088 1.415 . S
C2087 C2086 1.355 . S
C2087 C2089 1.419 . S
C2088 C2086 1.415 . S
C2088 C2093 1.425 . S
C2088 C2095 1.409 . S
C2089 H2081 0.930 . S
C2089 C2087 1.419 . S
C2089 C2090 1.362 . S
C2090 H2082 0.930 . S
C2090 C2089 1.362 . S
C2090 C2093 1.409 . S
C2091 H2083 0.930 . S
C2091 C2092 1.355 . S
C2091 C2093 1.415 . S
C2092 C2091 1.355 . S
C2092 C2094 1.419 . S
C2093 C2088 1.425 . S
C2093 C2090 1.409 . S
C2093 C2091 1.415 . S
C2094 H2084 0.930 . S
C2094 C2092 1.419 . S
C2094 C2095 1.362 . S
C2095 H2085 0.930 . S
C2095 C2088 1.409 . S
C2095 C2094 1.362 . S
H2096 C2102 0.930 . S
H2097 C2105 0.930 . S
H2098 C2106 0.930 . S
H2099 C2107 0.930 . S
H2100 C2110 0.930 . S
H2101 C2111 0.930 . S
C2102 H2096 0.930 . S
C2102 C2103 1.355 . S
C2102 C2104 1.415 . S
C2103 C2102 1.355 . S
C2103 C2105 1.419 . S
C2104 C2102 1.415 . S
C2104 C2109 1.425 . S
C2104 C2111 1.409 . S
C2105 H2097 0.930 . S
C2105 C2103 1.419 . S
C2105 C2106 1.362 . S
C2106 H2098 0.930 . S
C2106 C2105 1.362 . S
C2106 C2109 1.409 . S
C2107 H2099 0.930 . S
C2107 C2108 1.355 . S
C2107 C2109 1.415 . S
C2108 C2107 1.355 . S
C2108 C2110 1.419 . S
C2109 C2104 1.425 . S
C2109 C2106 1.409 . S
C2109 C2107 1.415 . S
C2110 H2100 0.930 . S
C2110 C2108 1.419 . S
C2110 C2111 1.362 . S
C2111 H2101 0.930 . S
C2111 C2104 1.409 . S
C2111 C2110 1.362 . S
H2112 C2118 0.930 . S
H2113 C2121 0.930 . S
H2114 C2122 0.930 . S
H2115 C2123 0.930 . S
H2116 C2126 0.937 . S
H2117 C2127 0.930 . S
C2118 H2112 0.930 . S
C2118 C2119 1.355 . S
C2118 C2120 1.415 . S
C2119 C2118 1.355 . S
C2119 C2121 1.419 . S
C2120 C2118 1.415 . S
C2120 C2125 1.425 . S
C2120 C2127 1.409 . S
C2121 H2113 0.930 . S
C2121 C2119 1.419 . S
C2121 C2122 1.362 . S
C2122 H2114 0.930 . S
C2122 C2121 1.362 . S
C2122 C2125 1.409 . S
C2123 H2115 0.930 . S
C2123 C2124 1.355 . S
C2123 C2125 1.415 1_545 S
C2124 C2123 1.355 . S
C2124 C2126 1.426 . S
C2125 C2120 1.425 . S
C2125 C2122 1.409 . S
C2125 C2123 1.415 1_565 S
C2126 H2116 0.937 . S
C2126 C2124 1.426 . S
C2126 C2127 1.352 1_545 S
C2127 H2117 0.930 . S
C2127 C2120 1.409 . S
C2127 C2126 1.352 1_565 S
H2128 C2134 0.930 . S
H2129 C2137 0.930 . S
H2130 C2138 0.930 . S
H2131 C2139 0.930 . S
H2132 C2142 0.930 . S
H2133 C2143 0.930 . S
C2134 H2128 0.930 . S
C2134 C2135 1.355 . S
C2134 C2136 1.415 . S
C2135 C2134 1.355 . S
C2135 C2137 1.419 . S
C2136 C2134 1.415 . S
C2136 C2141 1.425 . S
C2136 C2143 1.409 . S
C2137 H2129 0.930 . S
C2137 C2135 1.419 . S
C2137 C2138 1.362 . S
C2138 H2130 0.930 . S
C2138 C2137 1.362 . S
C2138 C2141 1.409 . S
C2139 H2131 0.930 . S
C2139 C2140 1.355 . S
C2139 C2141 1.415 . S
C2140 C2139 1.355 . S
C2140 C2142 1.419 . S
C2141 C2136 1.425 . S
C2141 C2138 1.409 . S
C2141 C2139 1.415 . S
C2142 H2132 0.930 . S
C2142 C2140 1.419 . S
C2142 C2143 1.362 . S
C2143 H2133 0.930 . S
C2143 C2136 1.409 . S
C2143 C2142 1.362 . S
H2144 C2150 0.930 . S
H2145 C2153 0.930 . S
H2146 C2154 0.930 . S
H2147 C2155 0.930 . S
H2148 C2158 0.930 . S
H2149 C2159 0.930 . S
C2150 H2144 0.930 . S
C2150 C2151 1.355 . S
C2150 C2152 1.415 . S
C2151 C2150 1.355 . S
C2151 C2153 1.419 . S
C2152 C2150 1.415 . S
C2152 C2157 1.425 . S
C2152 C2159 1.409 . S
C2153 H2145 0.930 . S
C2153 C2151 1.419 . S
C2153 C2154 1.362 . S
C2154 H2146 0.930 . S
C2154 C2153 1.362 . S
C2154 C2157 1.409 . S
C2155 H2147 0.930 . S
C2155 C2156 1.355 . S
C2155 C2157 1.415 . S
C2156 C2155 1.355 . S
C2156 C2158 1.419 . S
C2157 C2152 1.425 . S
C2157 C2154 1.409 . S
C2157 C2155 1.415 . S
C2158 H2148 0.930 . S
C2158 C2156 1.419 . S
C2158 C2159 1.362 . S
C2159 H2149 0.930 . S
C2159 C2152 1.409 . S
C2159 C2158 1.362 . S
H2160 C2166 0.929 . S
H2161 C2169 0.930 . S
H2162 C2170 0.930 . S
H2163 C2171 0.930 . S
H2164 C2174 0.930 . S
H2165 C2175 0.930 . S
C2166 H2160 0.929 . S
C2166 C2167 1.349 1_565 S
C2166 C2168 1.420 . S
C2167 C2166 1.349 1_545 S
C2167 C2169 1.419 . S
C2168 C2166 1.420 . S
C2168 C2173 1.425 . S
C2168 C2175 1.409 . S
C2169 H2161 0.930 . S
C2169 C2167 1.419 . S
C2169 C2170 1.357 1_545 S
C2170 H2162 0.930 . S
C2170 C2169 1.357 1_565 S
C2170 C2173 1.414 . S
C2171 H2163 0.930 . S
C2171 C2172 1.355 . S
C2171 C2173 1.415 . S
C2172 C2171 1.355 . S
C2172 C2174 1.419 . S
C2173 C2168 1.425 . S
C2173 C2170 1.414 . S
C2173 C2171 1.415 . S
C2174 H2164 0.930 . S
C2174 C2172 1.419 . S
C2174 C2175 1.362 . S
C2175 H2165 0.930 . S
C2175 C2168 1.409 . S
C2175 C2174 1.362 . S
H2176 C2182 0.930 . S
H2177 C2185 0.930 . S
H2178 C2186 0.930 . S
H2179 C2187 0.930 . S
H2180 C2190 0.935 . S
H2181 C2191 0.930 . S
C2182 H2176 0.930 . S
C2182 C2183 1.355 . S
C2182 C2184 1.416 . S
C2183 C2182 1.355 . S
C2183 C2185 1.419 1_565 S
C2184 C2182 1.416 . S
C2184 C2189 1.423 1_565 S
C2184 C2191 1.410 . S
C2185 H2177 0.930 . S
C2185 C2183 1.419 1_545 S
C2185 C2186 1.362 . S
C2186 H2178 0.930 . S
C2186 C2185 1.362 . S
C2186 C2189 1.409 . S
C2187 H2179 0.930 . S
C2187 C2188 1.355 . S
C2187 C2189 1.415 . S
C2188 C2187 1.355 . S
C2188 C2190 1.419 . S
C2189 C2184 1.423 1_545 S
C2189 C2186 1.409 . S
C2189 C2187 1.415 . S
C2190 H2180 0.935 . S
C2190 C2188 1.419 . S
C2190 C2191 1.362 1_545 S
C2191 H2181 0.930 . S
C2191 C2184 1.410 . S
C2191 C2190 1.362 1_565 S
H2192 C2198 0.930 . S
H2193 C2201 0.930 . S
H2194 C2202 0.930 . S
H2195 C2203 0.930 . S
H2196 C2206 0.930 . S
H2197 C2207 0.930 . S
C2198 H2192 0.930 . S
C2198 C2199 1.355 . S
C2198 C2200 1.415 . S
C2199 C2198 1.355 . S
C2199 C2201 1.419 . S
C2200 C2198 1.415 . S
C2200 C2205 1.425 . S
C2200 C2207 1.409 . S
C2201 H2193 0.930 . S
C2201 C2199 1.419 . S
C2201 C2202 1.362 . S
C2202 H2194 0.930 . S
C2202 C2201 1.362 . S
C2202 C2205 1.409 . S
C2203 H2195 0.930 . S
C2203 C2204 1.355 . S
C2203 C2205 1.415 . S
C2204 C2203 1.355 . S
C2204 C2206 1.419 . S
C2205 C2200 1.425 . S
C2205 C2202 1.409 . S
C2205 C2203 1.415 . S
C2206 H2196 0.930 . S
C2206 C2204 1.419 . S
C2206 C2207 1.362 . S
C2207 H2197 0.930 . S
C2207 C2200 1.409 . S
C2207 C2206 1.362 . S
H2208 C2214 0.930 . S
H2209 C2217 0.930 . S
H2210 C2218 0.930 . S
H2211 C2219 0.930 . S
H2212 C2222 0.930 . S
H2213 C2223 0.930 . S
C2214 H2208 0.930 . S
C2214 C2215 1.355 . S
C2214 C2216 1.415 . S
C2215 C2214 1.355 . S
C2215 C2217 1.419 . S
C2216 C2214 1.415 . S
C2216 C2221 1.425 . S
C2216 C2223 1.409 . S
C2217 H2209 0.930 . S
C2217 C2215 1.419 . S
C2217 C2218 1.362 . S
C2218 H2210 0.930 . S
C2218 C2217 1.362 . S
C2218 C2221 1.409 . S
C2219 H2211 0.930 . S
C2219 C2220 1.355 . S
C2219 C2221 1.415 . S
C2220 C2219 1.355 . S
C2220 C2222 1.419 . S
C2221 C2216 1.425 . S
C2221 C2218 1.409 . S
C2221 C2219 1.415 . S
C2222 H2212 0.930 . S
C2222 C2220 1.419 . S
C2222 C2223 1.362 . S
C2223 H2213 0.930 . S
C2223 C2216 1.409 . S
C2223 C2222 1.362 . S
H2224 C2230 0.930 . S
H2225 C2233 0.930 . S
H2226 C2234 0.930 . S
H2227 C2235 0.928 . S
H2228 C2238 0.930 . S
H2229 C2239 0.930 . S
C2230 H2224 0.930 . S
C2230 C2231 1.355 1_545 S
C2230 C2232 1.415 . S
C2231 C2230 1.355 1_565 S
C2231 C2233 1.419 . S
C2232 C2230 1.415 . S
C2232 C2237 1.425 . S
C2232 C2239 1.409 . S
C2233 H2225 0.930 . S
C2233 C2231 1.419 . S
C2233 C2234 1.362 . S
C2234 H2226 0.930 . S
C2234 C2233 1.362 . S
C2234 C2237 1.409 1_565 S
C2235 H2227 0.928 . S
C2235 C2236 1.355 . S
C2235 C2237 1.415 . S
C2236 C2235 1.355 . S
C2236 C2238 1.419 . S
C2237 C2232 1.425 . S
C2237 C2234 1.409 1_545 S
C2237 C2235 1.415 . S
C2238 H2228 0.930 . S
C2238 C2236 1.419 . S
C2238 C2239 1.362 . S
C2239 H2229 0.930 . S
C2239 C2232 1.409 . S
C2239 C2238 1.362 . S
H2240 C2246 0.930 . S
H2241 C2249 0.930 . S
H2242 C2250 0.930 . S
H2243 C2251 0.930 . S
H2244 C2254 0.930 . S
H2245 C2255 0.930 . S
C2246 H2240 0.930 . S
C2246 C2247 1.355 . S
C2246 C2248 1.415 . S
C2247 C2246 1.355 . S
C2247 C2249 1.419 . S
C2248 C2246 1.415 . S
C2248 C2253 1.425 . S
C2248 C2255 1.409 . S
C2249 H2241 0.930 . S
C2249 C2247 1.419 . S
C2249 C2250 1.362 . S
C2250 H2242 0.930 . S
C2250 C2249 1.362 . S
C2250 C2253 1.409 . S
C2251 H2243 0.930 . S
C2251 C2252 1.355 . S
C2251 C2253 1.415 . S
C2252 C2251 1.355 . S
C2252 C2254 1.419 . S
C2253 C2248 1.425 . S
C2253 C2250 1.409 . S
C2253 C2251 1.415 . S
C2254 H2244 0.930 . S
C2254 C2252 1.419 . S
C2254 C2255 1.362 . S
C2255 H2245 0.930 . S
C2255 C2248 1.409 . S
C2255 C2254 1.362 . S
H2256 C2262 0.930 . S
H2257 C2265 0.930 . S
H2258 C2266 0.930 . S
H2259 C2267 0.930 . S
H2260 C2270 0.930 . S
H2261 C2271 0.930 . S
C2262 H2256 0.930 . S
C2262 C2263 1.355 . S
C2262 C2264 1.415 . S
C2263 C2262 1.355 . S
C2263 C2265 1.419 . S
C2264 C2262 1.415 . S
C2264 C2269 1.425 . S
C2264 C2271 1.409 . S
C2265 H2257 0.930 . S
C2265 C2263 1.419 . S
C2265 C2266 1.362 . S
C2266 H2258 0.930 . S
C2266 C2265 1.362 . S
C2266 C2269 1.409 . S
C2267 H2259 0.930 . S
C2267 C2268 1.355 . S
C2267 C2269 1.415 . S
C2268 C2267 1.355 . S
C2268 C2270 1.419 . S
C2269 C2264 1.425 . S
C2269 C2266 1.409 . S
C2269 C2267 1.415 . S
C2270 H2260 0.930 . S
C2270 C2268 1.419 . S
C2270 C2271 1.362 . S
C2271 H2261 0.930 . S
C2271 C2264 1.409 . S
C2271 C2270 1.362 . S
H2272 C2278 0.930 . S
H2273 C2281 0.930 . S
H2274 C2282 0.930 . S
H2275 C2283 0.930 . S
H2276 C2286 0.930 . S
H2277 C2287 0.930 . S
C2278 H2272 0.930 . S
C2278 C2279 1.355 . S
C2278 C2280 1.415 . S
C2279 C2278 1.355 . S
C2279 C2281 1.419 . S
C2280 C2278 1.415 . S
C2280 C2285 1.425 . S
C2280 C2287 1.409 . S
C2281 H2273 0.930 . S
C2281 C2279 1.419 . S
C2281 C2282 1.362 . S
C2282 H2274 0.930 . S
C2282 C2281 1.362 . S
C2282 C2285 1.409 . S
C2283 H2275 0.930 . S
C2283 C2284 1.355 . S
C2283 C2285 1.415 . S
C2284 C2283 1.355 . S
C2284 C2286 1.419 . S
C2285 C2280 1.425 . S
C2285 C2282 1.409 . S
C2285 C2283 1.415 . S
C2286 H2276 0.930 . S
C2286 C2284 1.419 . S
C2286 C2287 1.362 . S
C2287 H2277 0.930 . S
C2287 C2280 1.409 . S
C2287 C2286 1.362 . S
H2288 C2294 0.930 . S
H2289 C2297 0.930 . S
H2290 C2298 0.930 . S
H2291 C2299 0.930 . S
H2292 C2302 0.930 . S
H2293 C2303 0.930 . S
C2294 H2288 0.930 . S
C2294 C2295 1.355 . S
C2294 C2296 1.415 . S
C2295 C2294 1.355 . S
C2295 C2297 1.419 . S
C2296 C2294 1.415 . S
C2296 C2301 1.425 . S
C2296 C2303 1.409 . S
C2297 H2289 0.930 . S
C2297 C2295 1.419 . S
C2297 C2298 1.362 . S
C2298 H2290 0.930 . S
C2298 C2297 1.362 . S
C2298 C2301 1.409 . S
C2299 H2291 0.930 . S
C2299 C2300 1.355 . S
C2299 C2301 1.415 . S
C2300 C2299 1.355 . S
C2300 C2302 1.419 . S
C2301 C2296 1.425 . S
C2301 C2298 1.409 . S
C2301 C2299 1.415 . S
C2302 H2292 0.930 . S
C2302 C2300 1.419 . S
C2302 C2303 1.362 . S
C2303 H2293 0.930 . S
C2303 C2296 1.409 . S
C2303 C2302 1.362 . S
H2304 C2310 0.930 . S
H2305 C2313 0.930 . S
H2306 C2314 0.930 . S
H2307 C2315 0.930 . S
H2308 C2318 0.930 . S
H2309 C2319 0.930 . S
C2310 H2304 0.930 . S
C2310 C2311 1.355 . S
C2310 C2312 1.415 . S
C2311 C2310 1.355 . S
C2311 C2313 1.419 . S
C2312 C2310 1.415 . S
C2312 C2317 1.425 . S
C2312 C2319 1.409 . S
C2313 H2305 0.930 . S
C2313 C2311 1.419 . S
C2313 C2314 1.362 . S
C2314 H2306 0.930 . S
C2314 C2313 1.362 . S
C2314 C2317 1.409 . S
C2315 H2307 0.930 . S
C2315 C2316 1.355 . S
C2315 C2317 1.415 . S
C2316 C2315 1.355 . S
C2316 C2318 1.419 . S
C2317 C2312 1.425 . S
C2317 C2314 1.409 . S
C2317 C2315 1.415 . S
C2318 H2308 0.930 . S
C2318 C2316 1.419 . S
C2318 C2319 1.362 . S
C2319 H2309 0.930 . S
C2319 C2312 1.409 . S
C2319 C2318 1.362 . S
H2320 C2326 0.930 . S
H2321 C2329 0.930 . S
H2322 C2330 0.930 . S
H2323 C2331 0.930 . S
H2324 C2334 0.930 . S
H2325 C2335 0.930 . S
C2326 H2320 0.930 . S
C2326 C2327 1.355 . S
C2326 C2328 1.415 . S
C2327 C2326 1.355 . S
C2327 C2329 1.419 . S
C2328 C2326 1.415 . S
C2328 C2333 1.425 . S
C2328 C2335 1.409 . S
C2329 H2321 0.930 . S
C2329 C2327 1.419 . S
C2329 C2330 1.362 . S
C2330 H2322 0.930 . S
C2330 C2329 1.362 . S
C2330 C2333 1.409 . S
C2331 H2323 0.930 . S
C2331 C2332 1.355 . S
C2331 C2333 1.415 . S
C2332 C2331 1.355 . S
C2332 C2334 1.419 . S
C2333 C2328 1.425 . S
C2333 C2330 1.409 . S
C2333 C2331 1.415 . S
C2334 H2324 0.930 . S
C2334 C2332 1.419 . S
C2334 C2335 1.362 . S
C2335 H2325 0.930 . S
C2335 C2328 1.409 . S
C2335 C2334 1.362 . S
H2336 C2342 0.930 . S
H2337 C2345 0.930 . S
H2338 C2346 0.930 . S
H2339 C2347 0.930 . S
H2340 C2350 0.930 . S
H2341 C2351 0.930 . S
C2342 H2336 0.930 . S
C2342 C2343 1.355 . S
C2342 C2344 1.415 . S
C2343 C2342 1.355 . S
C2343 C2345 1.419 . S
C2344 C2342 1.415 . S
C2344 C2349 1.425 . S
C2344 C2351 1.409 . S
C2345 H2337 0.930 . S
C2345 C2343 1.419 . S
C2345 C2346 1.362 . S
C2346 H2338 0.930 . S
C2346 C2345 1.362 . S
C2346 C2349 1.409 . S
C2347 H2339 0.930 . S
C2347 C2348 1.355 . S
C2347 C2349 1.415 . S
C2348 C2347 1.355 . S
C2348 C2350 1.419 . S
C2349 C2344 1.425 . S
C2349 C2346 1.409 . S
C2349 C2347 1.415 . S
C2350 H2340 0.930 . S
C2350 C2348 1.419 . S
C2350 C2351 1.362 . S
C2351 H2341 0.930 . S
C2351 C2344 1.409 . S
C2351 C2350 1.362 . S
H2352 C2358 0.930 . S
H2353 C2361 0.930 . S
H2354 C2362 0.930 . S
H2355 C2363 0.930 . S
H2356 C2366 0.930 . S
H2357 C2367 0.930 . S
C2358 H2352 0.930 . S
C2358 C2359 1.355 . S
C2358 C2360 1.415 . S
C2359 C2358 1.355 . S
C2359 C2361 1.419 . S
C2360 C2358 1.415 . S
C2360 C2365 1.425 . S
C2360 C2367 1.409 . S
C2361 H2353 0.930 . S
C2361 C2359 1.419 . S
C2361 C2362 1.362 . S
C2362 H2354 0.930 . S
C2362 C2361 1.362 . S
C2362 C2365 1.409 . S
C2363 H2355 0.930 . S
C2363 C2364 1.355 . S
C2363 C2365 1.415 . S
C2364 C2363 1.355 . S
C2364 C2366 1.419 . S
C2365 C2360 1.425 . S
C2365 C2362 1.409 . S
C2365 C2363 1.415 . S
C2366 H2356 0.930 . S
C2366 C2364 1.419 . S
C2366 C2367 1.362 . S
C2367 H2357 0.930 . S
C2367 C2360 1.409 . S
C2367 C2366 1.362 . S
C1095 C33 1.481 . S
C1100 C67 1.474 . S
C1111 C135 1.482 . S
C1116 C101 1.477 . S
C1127 C203 1.477 . S
C1132 C169 1.482 . S
C1143 C271 1.478 . S
C1148 C237 1.472 . S
C1159 C339 1.476 . S
C1164 C305 1.482 . S
C1175 C407 1.474 . S
C1180 C373 1.470 . S
C1191 C441 1.471 . S
C1196 C475 1.477 . S
C1207 C543 1.479 . S
C1212 C509 1.483 . S
C1223 C577 1.472 . S
C1228 C611 1.470 . S
C1239 C645 1.482 . S
C1244 C679 1.482 . S
C1255 C747 1.481 . S
C1260 C713 1.474 . S
C1271 C781 1.472 . S
C1276 C815 1.479 . S
C1287 C849 1.470 . S
C1292 C883 1.473 . S
C1303 C917 1.482 . S
C1308 C951 1.476 . S
C1319 C985 1.471 . S
C1324 C1019 1.477 . S
C1335 C1053 1.482 . S
C1340 C1087 1.482 . S
C1351 C9 0.572 . S
C1356 C655 0.551 . S
C1367 C621 0.522 . S
C1372 C43 0.626 . S
C1383 C587 0.577 . S
C1388 C77 0.546 . S
C1399 C111 0.555 . S
C1404 C553 0.567 . S
C1415 C791 0.732 . S
C1420 C145 0.610 . S
C1431 C757 0.731 . S
C1436 C179 0.602 . S
C1447 C723 0.547 . S
C1452 C213 0.576 . S
C1463 C689 0.535 . S
C1468 C247 0.594 . S
C1479 C281 0.684 . S
C1484 C927 0.715 . S
C1495 C893 0.689 . S
C1500 C315 0.531 . S
C1511 C349 0.605 . S
C1516 C859 0.731 . S
C1527 C825 0.541 . S
C1532 C383 0.584 . S
C1543 C417 0.694 . S
C1548 C1063 0.535 . S
C1559 C451 0.728 . S
C1564 C1029 0.654 . S
C1575 C995 0.727 . S
C1580 C485 0.657 . S
C1591 C519 0.626 . S
C1596 C961 0.732 . S
C1607 C141 0.593 . S
C1612 C5 0.593 . S
C1623 C991 0.573 . S
C1628 C39 0.573 . S
C1639 C481 0.539 . S
C1644 C73 0.539 . S
C1655 C107 0.603 . S
C1660 C787 0.603 . S
C1671 C175 0.695 . S
C1676 C855 0.695 . S
C1687 C209 0.663 . S
C1692 C345 0.663 . S
C1703 C651 0.718 . S
C1708 C243 0.718 . S
C1719 C277 0.587 . S
C1724 C413 0.587 . S
C1735 C719 0.651 . S
C1740 C311 0.651 . S
C1751 C1059 0.558 . S
C1756 C379 0.558 . S
C1767 C447 0.557 . S
C1772 C583 0.557 . S
C1783 C923 0.712 . S
C1788 C515 0.712 . S
C1799 C685 0.716 . S
C1804 C549 0.716 . S
C1815 C1025 0.535 . S
C1820 C617 0.535 . S
C1831 C753 0.542 . S
C1836 C889 0.542 . S
C1847 C957 0.679 . S
C1852 C821 0.679 . S
C1863 C784 2.426 . S
C1868 C20 2.442 . S
C1879 C478 2.401 . S
C1884 C54 2.431 1_655 S
C1895 C988 2.402 . S
C1900 C88 2.433 . S
C1911 C122 2.438 1_655 S
C1916 C138 2.418 . S
C1927 C156 2.442 . S
C1932 C648 2.425 . S
C1943 C342 2.417 . S
C1948 C190 2.439 1_455 S
C1959 C224 2.442 . S
C1964 C852 2.424 . S
C1975 C258 2.435 1_455 S
C1980 C2 2.408 . S
C1991 C292 2.436 . S
C1996 C1056 2.410 . S
C2007 C206 2.424 . S
C2012 C326 2.441 1_655 S
C2023 C360 2.435 . S
C2028 C716 2.410 . S
C2039 C394 2.434 1_655 S
C2044 C410 2.405 . S
C2055 C428 2.442 . S
C2060 C920 2.426 . S
C2071 C70 2.402 . S
C2076 C462 2.432 1_455 S
C2087 C580 2.415 . S
C2092 C496 2.437 . S
C2103 C530 2.432 1_455 S
C2108 C274 2.403 . S
C2119 C240 2.401 . S
C2124 C564 2.432 . S
C2135 C1022 2.413 . S
C2140 C598 2.437 . S
C2151 C444 2.403 . S
C2156 C632 2.433 . S
C2167 C666 2.442 . S
C2172 C682 2.427 . S
C2183 C700 2.434 . S
C2188 C104 2.405 . S
C2199 C886 2.401 . S
C2204 C734 2.432 . S
C2215 C768 2.442 . S
C2220 C308 2.426 . S
C2231 C802 2.431 . S
C2236 C546 2.399 . S
C2247 C512 2.401 . S
C2252 C836 2.431 . S
C2263 C870 2.437 . S
C2268 C750 2.412 . S
C2279 C904 2.442 . S
C2284 C172 2.427 . S
C2295 C954 2.399 . S
C2300 C938 2.431 . S
C2311 C972 2.433 . S
C2316 C376 2.402 . S
C2327 C1006 2.435 . S
C2332 C614 2.409 . S
C2343 C36 2.411 . S
C2348 C1040 2.435 . S
C2359 C818 2.426 . S
C2364 C1074 2.442 . S
