# Generated by pormake.
# Topology umf, (4)-cn, num edge types: 1
# Building blocks:
#     Node 0, Type 0, BuildingBlock: MUDLON_clean_sbu_0, # of connection points: 4
#     Node 1, Type 0, BuildingBlock: MUDLON_clean_sbu_0, # of connection points: 4
#     Node 2, Type 0, BuildingBlock: MUDLON_clean_sbu_0, # of connection points: 4
#     Node 3, Type 0, BuildingBlock: MUDLON_clean_sbu_0, # of connection points: 4
#     Node 4, Type 0, BuildingBlock: MUDLON_clean_sbu_0, # of connection points: 4
#     Node 5, Type 0, BuildingBlock: MUDLON_clean_sbu_0, # of connection points: 4
#     Node 6, Type 0, BuildingBlock: MUDLON_clean_sbu_0, # of connection points: 4
#     Node 7, Type 0, BuildingBlock: MUDLON_clean_sbu_0, # of connection points: 4
#     Edge 8, Type (0, 0), BuildingBlock: XUDNAN_clean_linker_2, # of connection points: 2
#     Edge 9, Type (0, 0), BuildingBlock: XUDNAN_clean_linker_2, # of connection points: 2
#     Edge 10, Type (0, 0), BuildingBlock: XUDNAN_clean_linker_2, # of connection points: 2
#     Edge 11, Type (0, 0), BuildingBlock: XUDNAN_clean_linker_2, # of connection points: 2
#     Edge 12, Type (0, 0), BuildingBlock: XUDNAN_clean_linker_2, # of connection points: 2
#     Edge 13, Type (0, 0), BuildingBlock: XUDNAN_clean_linker_2, # of connection points: 2
#     Edge 14, Type (0, 0), BuildingBlock: XUDNAN_clean_linker_2, # of connection points: 2
#     Edge 15, Type (0, 0), BuildingBlock: XUDNAN_clean_linker_2, # of connection points: 2
#     Edge 16, Type (0, 0), BuildingBlock: XUDNAN_clean_linker_2, # of connection points: 2
#     Edge 17, Type (0, 0), BuildingBlock: XUDNAN_clean_linker_2, # of connection points: 2
#     Edge 18, Type (0, 0), BuildingBlock: XUDNAN_clean_linker_2, # of connection points: 2
#     Edge 19, Type (0, 0), BuildingBlock: XUDNAN_clean_linker_2, # of connection points: 2
#     Edge 20, Type (0, 0), BuildingBlock: XUDNAN_clean_linker_2, # of connection points: 2
#     Edge 21, Type (0, 0), BuildingBlock: XUDNAN_clean_linker_2, # of connection points: 2
#     Edge 22, Type (0, 0), BuildingBlock: XUDNAN_clean_linker_2, # of connection points: 2
#     Edge 23, Type (0, 0), BuildingBlock: XUDNAN_clean_linker_2, # of connection points: 2
# Relax obj value: 0.092
# Max RMSD: 0.171
# Mean RMSD: 0.171
data_MOF--net-umf--node1-MUDLON_clean_sbu_0--edge1-XUDNAN_clean_linker_2
_symmetry_space_group_name_H-M    P1
_symmetry_Int_Tables_number       1
_symmetry_cell_setting            triclinic
loop_
_symmetry_equiv_pos_as_xyz
'x, y, z'
_cell_length_a     29.882134
_cell_length_b     29.779314
_cell_length_c     55.435273
_cell_angle_alpha  89.946694
_cell_angle_beta   89.968117
_cell_angle_gamma 90.210432
loop_
_atom_site_label
_atom_site_type_symbol
_atom_site_fract_x
_atom_site_fract_y
_atom_site_fract_z
_atom_type_partial_charge
Mg0 Mg 0.06534 0.2531 0.17067 0.0
C1 C 0.07084 0.27523 0.11618 0.0
O2 O 0.07188 0.31703 0.12369 0.0
C3 C 0.12838 0.26446 0.21253 0.0
O4 O 0.1081 0.30349 0.21251 0.0
C5 C 0.01242 0.34236 0.16866 0.0
O6 O 0.98559 0.32101 0.15377 0.0
O7 O 0.04522 0.32167 0.17798 0.0
O8 O 0.07315 0.24357 0.13161 0.0
O9 O 0.01476 0.20268 0.17824 0.0
C10 C 0.01959 0.17368 0.1949 0.0
O11 O 0.05085 0.17987 0.21122 0.0
O12 O 0.12055 0.23716 0.19532 0.0
Mg13 Mg 0.74303 0.05972 0.67498 0.0
C14 C 0.7266 0.04143 0.62225 0.0
O15 O 0.69506 0.01693 0.63227 0.0
C16 C 0.73228 0.11485 0.71861 0.0
O17 O 0.70605 0.08001 0.72223 0.0
C18 C 0.64426 0.05739 0.67431 0.0
O19 O 0.6536 0.09352 0.66161 0.0
O20 O 0.6763 0.03382 0.68246 0.0
O21 O 0.75134 0.06589 0.63567 0.0
O22 O 0.79795 0.0179 0.68702 0.0
C23 C 0.82154 0.9961 0.672 0.0
O24 O 0.80759 0.99243 0.64963 0.0
O25 O 0.75198 0.11852 0.69828 0.0
Mg26 Mg 0.93316 0.76168 0.1669 0.0
C27 C 0.95434 0.75536 0.11553 0.0
O28 O 0.9928 0.75012 0.12664 0.0
C29 C 0.87449 0.7395 0.20983 0.0
O30 O 0.90087 0.70435 0.21008 0.0
C31 C 0.94962 0.66569 0.16495 0.0
O32 O 0.91278 0.67181 0.15246 0.0
O33 O 0.96888 0.69979 0.17415 0.0
O34 O 0.91914 0.76044 0.12827 0.0
O35 O 0.96938 0.82436 0.17047 0.0
C36 C 0.96672 0.84941 0.18898 0.0
O37 O 0.94872 0.83355 0.20887 0.0
O38 O 0.87764 0.76733 0.19243 0.0
Mg39 Mg 0.24118 0.93092 0.67085 0.0
C40 C 0.23479 0.95379 0.61801 0.0
O41 O 0.21366 0.98786 0.62777 0.0
C42 C 0.26642 0.86483 0.71014 0.0
O43 O 0.30251 0.89012 0.7102 0.0
C44 C 0.3234 0.99193 0.66979 0.0
O45 O 0.31062 -0.00149 0.64742 0.0
O46 O 0.29878 0.96866 0.68375 0.0
O47 O 0.24916 0.92258 0.63174 0.0
O48 O 0.17685 0.9618 0.67767 0.0
C49 C 0.14424 0.94249 0.66715 0.0
O50 O 0.15262 0.90915 0.65232 0.0
O51 O 0.23735 0.87084 0.69364 0.0
Mg52 Mg 0.05481 0.76362 0.89451 0.0
C53 C 0.01201 0.77555 0.94066 0.0
O54 O 0.98421 0.78894 0.92378 0.0
C55 C 0.11111 0.75187 0.85223 0.0
O56 O 0.07025 0.74153 0.84543 0.0
C57 C -0.00161 0.67923 0.8956 0.0
O58 O 0.00187 0.68683 0.91883 0.0
O59 O 0.01419 0.70794 0.88084 0.0
O60 O 0.05048 0.76151 0.93413 0.0
O61 O 0.0345 0.83229 0.88774 0.0
C62 C 0.03353 0.85461 0.8682 0.0
O63 O 0.03866 0.83421 0.84741 0.0
O64 O 0.11795 0.7603 0.87449 0.0
Mg65 Mg 0.26176 0.05373 0.39725 0.0
C66 C 0.28225 0.01571 0.44481 0.0
O67 O 0.30167 0.98946 0.42896 0.0
C68 C 0.2412 0.10507 0.35512 0.0
O69 O 0.25123 0.06403 0.34835 0.0
C70 C 0.34833 0.00543 0.379 0.0
O71 O 0.32471 0.96814 0.37864 0.0
O72 O 0.32994 0.04196 0.38531 0.0
O73 O 0.26168 0.05027 0.43702 0.0
O74 O 0.21014 0.00817 0.38422 0.0
C75 C 0.1831 0.99021 0.3991 0.0
O76 O 0.19239 0.99182 0.42223 0.0
O77 O 0.24319 0.11448 0.37756 0.0
Mg78 Mg 0.95219 0.25794 0.8938 0.0
C79 C 0.97783 0.27691 0.94559 0.0
O80 O 0.00289 0.30644 0.93422 0.0
C81 C 0.8903 0.25727 0.85219 0.0
O82 O 0.92524 0.27968 0.84416 0.0
C83 C 0.94799 0.35629 0.89297 0.0
O84 O 0.91591 0.3449 0.90804 0.0
O85 O 0.9718 0.32556 0.88365 0.0
O86 O 0.95059 0.25287 0.93339 0.0
O87 O -0.0009 0.20557 0.88363 0.0
C88 C 0.99166 0.17822 0.86645 0.0
O89 O 0.95794 0.18555 0.85184 0.0
O90 O 0.89018 0.24423 0.87412 0.0
Mg91 Mg 0.76422 0.93936 0.39909 0.0
C92 C 0.73529 0.94958 0.45198 0.0
O93 O 0.69659 0.95935 0.4421 0.0
C94 C 0.76776 0.88976 0.35493 0.0
O95 O 0.76417 0.93256 0.34948 0.0
C96 C 0.6696 0.94749 0.38635 0.0
O97 O 0.67506 0.90442 0.39055 0.0
O98 O 0.70328 0.97352 0.38833 0.0
O99 O 0.76725 0.93633 0.43858 0.0
O100 O 0.82729 0.97045 0.38909 0.0
C101 C 0.85925 0.94906 0.39893 0.0
O102 O 0.84946 0.91559 0.41349 0.0
O103 O 0.76724 0.87867 0.37715 0.0
H104 H 0.951 0.39985 0.1486 0.0
H105 H 0.06392 0.39567 0.19783 0.0
H106 H 0.06005 0.47786 0.20259 0.0
H107 H 0.98198 0.50057 0.11868 0.0
H108 H 0.92557 0.52107 0.11572 0.0
H109 H 0.93579 0.46157 0.11699 0.0
H110 H 0.88152 0.45414 0.1533 0.0
H111 H 0.87086 0.51359 0.15201 0.0
H112 H 0.89029 0.48845 0.17966 0.0
H113 H 0.04592 0.56128 0.20066 0.0
H114 H 0.02015 0.63903 0.19338 0.0
H115 H 0.91664 0.58804 0.14565 0.0
C116 C 0.97461 0.4161 0.16058 0.0
C117 C 0.00772 0.39122 0.17283 0.0
C118 C 0.03817 0.41394 0.18825 0.0
C119 C 0.03632 0.46067 0.19107 0.0
C120 C 0.00374 0.48426 0.17843 0.0
C121 C 0.97323 0.46273 0.16363 0.0
C122 C 0.94196 0.49595 0.1518 0.0
C123 C 0.94663 0.49471 0.12416 0.0
C124 C 0.89328 0.48753 0.15967 0.0
C125 C 0.95991 0.53949 0.16208 0.0
C126 C 0.99553 0.53213 0.17741 0.0
C127 C 0.01789 0.56746 0.18878 0.0
C128 C 0.00313 0.61148 0.18449 0.0
C129 C 0.96639 0.61963 0.16899 0.0
C130 C 0.94476 0.58301 0.15766 0.0
H131 H 0.3837 0.04481 0.6455 0.0
H132 H 0.36784 0.96492 0.71052 0.0
H133 H 0.44802 0.97512 0.71965 0.0
H134 H 0.48755 0.00302 0.62835 0.0
H135 H 0.50979 0.05567 0.61755 0.0
H136 H 0.45035 0.04578 0.61717 0.0
H137 H 0.43739 0.11761 0.64255 0.0
H138 H 0.49681 0.12812 0.64273 0.0
H139 H 0.46652 0.12448 0.67079 0.0
H140 H 0.53173 0.98635 0.71901 0.0
H141 H 0.61113 0.00549 0.71108 0.0
H142 H 0.57132 0.08077 0.64764 0.0
C143 C 0.39684 0.03023 0.66192 0.0
C144 C 0.36946 0.00401 0.67726 0.0
C145 C 0.38806 0.98532 0.69852 0.0
C146 C 0.43365 0.99078 0.70383 0.0
C147 C 0.46002 0.01558 0.6879 0.0
C148 C 0.44213 0.03574 0.66763 0.0
C149 C 0.47788 0.05966 0.65308 0.0
C150 C 0.4816 0.03983 0.62753 0.0
C151 C 0.46913 0.11049 0.65225 0.0
C152 C 0.51881 0.04893 0.66805 0.0
C153 C 0.50791 0.02331 0.688 0.0
C154 C 0.54059 0.00706 0.70367 0.0
C155 C 0.58555 0.0178 0.69895 0.0
C156 C 0.5972 0.04486 0.67889 0.0
C157 C 0.5633 0.06056 0.66332 0.0
H158 H 0.92409 0.42841 0.92008 0.0
H159 H 0.9901 0.39192 0.85325 0.0
H160 H 0.00209 0.47252 0.84399 0.0
H161 H 0.86985 0.53061 0.89903 0.0
H162 H 0.87999 0.56002 0.92692 0.0
H163 H 0.87294 0.4999 0.92703 0.0
H164 H 0.94961 0.49072 0.94834 0.0
H165 H 0.9566 0.55072 0.94854 0.0
H166 H -0.00118 0.51571 0.93504 0.0
H167 H 0.00887 0.55758 0.84297 0.0
H168 H 0.01833 0.63819 0.85257 0.0
H169 H 0.95017 0.61733 0.92081 0.0
C170 C 0.94056 0.43737 0.90333 0.0
C171 C 0.95584 0.40408 0.88726 0.0
C172 C 0.97813 0.41703 0.86579 0.0
C173 C 0.98475 0.46267 0.86031 0.0
C174 C 0.96912 0.49473 0.87658 0.0
C175 C 0.94796 0.48253 0.89779 0.0
C176 C 0.93785 0.52295 0.91332 0.0
C177 C 0.88714 0.52869 0.91676 0.0
C178 C 0.96219 0.51983 0.93774 0.0
C179 C 0.95713 0.5599 0.89771 0.0
C180 C 0.97428 0.54319 0.87637 0.0
C181 C 0.99531 0.57103 0.85955 0.0
C182 C 0.00027 0.61683 0.86508 0.0
C183 C 0.98489 0.63397 0.88742 0.0
C184 C 0.96204 0.60523 0.90354 0.0
H185 H 0.40423 0.93238 0.37816 0.0
H186 H 0.4032 0.07757 0.37122 0.0
H187 H 0.48561 0.07814 0.36889 0.0
H188 H 0.49586 0.92685 0.41667 0.0
H189 H 0.51905 0.87628 0.40402 0.0
H190 H 0.45989 0.8865 0.40203 0.0
H191 H 0.46331 0.87796 0.35554 0.0
H192 H 0.52256 0.8674 0.3574 0.0
H193 H 0.502 0.91198 0.33843 0.0
H194 H 0.56835 0.06374 0.37126 0.0
H195 H 0.64498 0.03494 0.37771 0.0
H196 H 0.59173 0.89947 0.38327 0.0
C197 C 0.42126 0.96417 0.37555 0.0
C198 C 0.39724 0.00489 0.37477 0.0
C199 C 0.42089 0.04591 0.37184 0.0
C200 C 0.46772 0.04661 0.37044 0.0
C201 C 0.49049 0.006 0.37191 0.0
C202 C 0.46806 0.9655 0.37425 0.0
C203 C 0.50053 0.92698 0.37716 0.0
C204 C 0.4934 0.90275 0.40141 0.0
C205 C 0.49688 0.89415 0.35586 0.0
C206 C 0.54457 0.95227 0.37669 0.0
C207 C 0.53816 0.99775 0.37341 0.0
C208 C 0.57385 0.02809 0.37354 0.0
C209 C 0.61723 0.01147 0.37727 0.0
C210 C 0.62441 0.96498 0.38093 0.0
C211 C 0.5875 0.93516 0.38035 0.0
H212 H 0.01575 0.33421 0.97846 0.0
H213 H 0.95814 0.20089 0.97171 0.0
H214 H 0.97853 0.18478 1.01412 0.0
H215 H 0.10833 0.30539 1.01558 0.0
H216 H 0.10549 0.35527 0.03391 0.0
H217 H 0.08593 0.35659 1.00319 0.0
H218 H 0.00839 0.38468 1.01752 0.0
H219 H 0.02791 0.38407 0.04825 0.0
H220 H 0.97819 0.3532 0.0401 0.0
H221 H 0.00955 0.18196 0.05678 0.0
H222 H 0.03918 0.19582 0.09769 0.0
H223 H 0.07315 0.33244 0.07714 0.0
C224 C 0.00709 0.30172 0.98595 0.0
C225 C 0.98542 0.26873 0.97172 0.0
C226 C 0.97447 0.22676 0.98227 0.0
C227 C 0.98622 0.21722 1.0063 0.0
C228 C 0.00839 0.25019 1.01967 0.0
C229 C 0.01794 0.29191 1.00998 0.0
C230 C 0.04087 0.32195 1.02833 0.0
C231 C 0.08795 0.33559 1.01973 0.0
C232 C 0.01212 0.36342 0.03388 0.0
C233 C 0.04317 0.29053 0.04982 0.0
C234 C 0.02473 0.24912 0.04438 0.0
C235 C 0.02376 0.21438 0.06125 0.0
C236 C 0.04101 0.2225 0.08443 0.0
C237 C 0.05857 0.26523 0.09072 0.0
C238 C 0.06001 0.29941 0.07297 0.0
H239 H 0.66821 0.01679 0.58677 0.0
H240 H 0.80777 0.04944 0.59942 0.0
H241 H 0.82578 0.0274 0.55743 0.0
H242 H 0.68452 0.92127 0.55032 0.0
H243 H 0.63901 0.93302 0.52997 0.0
H244 H 0.63681 0.95282 0.56063 0.0
H245 H 0.6257 0.03443 0.54561 0.0
H246 H 0.62709 0.0148 0.5149 0.0
H247 H 0.66515 0.0583 0.52454 0.0
H248 H 0.82903 0.99528 0.51495 0.0
H249 H 0.81594 0.967 0.47362 0.0
H250 H 0.6734 0.95982 0.48817 0.0
C251 C 0.70248 0.01992 0.58059 0.0
C252 C 0.73664 0.03486 0.59632 0.0
C253 C 0.78104 0.03853 0.58759 0.0
C254 C 0.7916 0.02571 0.56384 0.0
C255 C 0.75724 0.01002 0.54897 0.0
C256 C 0.71341 0.00808 0.55687 0.0
C257 C 0.68251 0.99079 0.53725 0.0
C258 C 0.65936 0.94687 0.54502 0.0
C259 C 0.64809 0.02673 0.53015 0.0
C260 C 0.71583 0.98265 0.51714 0.0
C261 C 0.75885 0.99341 0.52434 0.0
C262 C 0.79541 0.98724 0.50907 0.0
C263 C 0.78767 0.97079 0.48568 0.0
C264 C 0.74363 0.96126 0.47762 0.0
C265 C 0.70742 0.96695 0.49374 0.0
H266 H 0.02427 0.74254 0.08423 0.0
H267 H 0.88244 0.77363 0.08626 0.0
H268 H 0.88233 0.78102 0.04183 0.0
H269 H 0.0539 0.81933 0.03755 0.0
H270 H 0.09426 0.78269 1.02364 0.0
H271 H 0.08307 0.77824 0.05548 0.0
H272 H 0.06379 0.69391 0.0504 0.0
H273 H 0.07513 0.69802 1.01855 0.0
H274 H 0.0217 0.67726 1.02887 0.0
H275 H 0.8982 0.78813 0.99774 0.0
H276 H 0.92749 0.79173 0.95642 0.0
H277 H 0.05951 0.7548 0.98237 0.0
C278 C 0.99304 0.75062 0.07536 0.0
C279 C 0.95327 0.75754 0.08879 0.0
C280 C 0.91324 0.76809 0.07641 0.0
C281 C 0.9129 0.77242 0.05118 0.0
C282 C 0.9528 0.76588 0.03859 0.0
C283 C 0.99208 0.75492 0.05021 0.0
C284 C 0.03045 0.75011 0.0324 0.0
C285 C 0.06761 0.78466 0.03758 0.0
C286 C 0.04884 0.70195 0.03257 0.0
C287 C 0.00667 0.76045 1.0089 0.0
C288 C 0.96192 0.7695 1.01298 0.0
C289 C 0.93309 0.78088 0.99432 0.0
C290 C 0.95025 0.78294 0.97085 0.0
C291 C 0.99594 0.77351 0.96602 0.0
C292 C 0.02448 0.76204 0.98541 0.0
H293 H 0.23625 0.05383 0.48335 0.0
H294 H 0.32653 0.94523 0.46471 0.0
H295 H 0.32293 0.91716 0.50633 0.0
H296 H 0.28132 0.07283 0.54364 0.0
H297 H 0.22744 0.0844 0.55683 0.0
H298 H 0.23742 0.09674 0.52546 0.0
H299 H 0.1691 0.04764 0.51372 0.0
H300 H 0.15915 0.03486 0.54504 0.0
H301 H 0.16655 0.99 0.52361 0.0
H302 H 0.3084 0.89885 0.54963 0.0
H303 H 0.287 0.89466 0.59262 0.0
H304 H 0.20698 0.01507 0.58403 0.0
C305 C 0.25554 0.02441 0.4881 0.0
C306 C 0.28163 0.00182 0.47061 0.0
C307 C 0.30619 0.96324 0.47763 0.0
C308 C 0.30436 0.94686 0.50129 0.0
C309 C 0.27793 0.96937 0.51797 0.0
C310 C 0.25421 0.00751 0.51182 0.0
C311 C 0.2285 0.02519 0.53343 0.0
C312 C 0.24465 0.0726 0.54024 0.0
C313 C 0.17782 0.02436 0.52866 0.0
C314 C 0.24147 0.99097 0.55252 0.0
C315 C 0.26986 0.95897 0.54316 0.0
C316 C 0.28625 0.92381 0.55722 0.0
C317 C 0.27379 0.9216 0.58162 0.0
C318 C 0.24532 0.95445 0.5918 0.0
C319 C 0.22879 0.98936 0.57688 0.0
H320 H 0.15628 0.17929 0.22472 0.0
H321 H 0.15426 0.3168 0.25057 0.0
H322 H 0.18485 0.2919 0.28966 0.0
H323 H 0.12078 0.12924 0.27878 0.0
H324 H 0.15582 0.08035 0.27616 0.0
H325 H 0.13755 0.10935 0.24945 0.0
H326 H 0.21993 0.11952 0.23574 0.0
H327 H 0.23845 0.09006 0.2623 0.0
H328 H 0.25964 0.14555 0.25587 0.0
H329 H 0.20979 0.25074 0.32749 0.0
H330 H 0.23201 0.19702 0.35954 0.0
H331 H 0.2183 0.08738 0.30851 0.0
C332 C 0.16327 0.20434 0.23837 0.0
C333 C 0.15302 0.25006 0.23446 0.0
C334 C 0.16193 0.28159 0.25304 0.0
C335 C 0.17924 0.26777 0.27538 0.0
C336 C 0.18771 0.22229 0.27891 0.0
C337 C 0.18049 0.19112 0.2608 0.0
C338 C 0.1907 0.14404 0.26948 0.0
C339 C 0.14872 0.114 0.2684 0.0
C340 C 0.2295 0.1236 0.25499 0.0
C341 C 0.20436 0.15357 0.2953 0.0
C342 C 0.20237 0.19884 0.30049 0.0
C343 C 0.21196 0.21523 0.32354 0.0
C344 C 0.22437 0.18453 0.34166 0.0
C345 C 0.22725 0.13808 0.33654 0.0
C346 C 0.21696 0.12273 0.31302 0.0
H347 H 0.89717 0.25355 0.8031 0.0
H348 H 0.80637 0.22396 0.86216 0.0
H349 H 0.75162 0.1929 0.83303 0.0
H350 H 0.81244 0.28122 0.75702 0.0
H351 H 0.84339 0.25384 0.73335 0.0
H352 H 0.87267 0.27905 0.75835 0.0
H353 H 0.91182 0.2033 0.76719 0.0
H354 H 0.88281 0.17792 0.74224 0.0
H355 H 0.87827 0.15363 0.77194 0.0
H356 H 0.70968 0.15997 0.79801 0.0
H357 H 0.68567 0.12266 0.76054 0.0
H358 H 0.80502 0.17145 0.72422 0.0
C359 C 0.86532 0.24154 0.8099 0.0
C360 C 0.85573 0.24174 0.83491 0.0
C361 C 0.81424 0.22446 0.84309 0.0
C362 C 0.78291 0.20694 0.82666 0.0
C363 C 0.79372 0.20678 0.80214 0.0
C364 C 0.83404 0.22344 0.79381 0.0
C365 C 0.83943 0.21536 0.76694 0.0
C366 C 0.84213 0.26003 0.7531 0.0
C367 C 0.8805 0.18579 0.76179 0.0
C368 C 0.79618 0.19069 0.76147 0.0
C369 C 0.77001 0.18676 0.78198 0.0
C370 C 0.7297 0.16323 0.78182 0.0
C371 C 0.71636 0.14212 0.7604 0.0
C372 C 0.74335 0.14426 0.73937 0.0
C373 C 0.78327 0.16986 0.73983 0.0
H374 H 0.7771 0.90767 0.30698 0.0
H375 H 0.77791 0.79782 0.35848 0.0
H376 H 0.79696 0.7451 0.32547 0.0
H377 H 0.73193 0.84502 0.25532 0.0
H378 H 0.76727 0.87441 0.23415 0.0
H379 H 0.74887 0.90211 0.26127 0.0
H380 H 0.83133 0.91916 0.27266 0.0
H381 H 0.84995 0.89166 0.24561 0.0
H382 H 0.87076 0.87361 0.27453 0.0
H383 H 0.82265 0.70602 0.28725 0.0
H384 H 0.8549 0.68435 0.24794 0.0
H385 H 0.83711 0.82055 0.22187 0.0
C386 C 0.78045 0.8724 0.31136 0.0
C387 C 0.77574 0.85682 0.33535 0.0
C388 C 0.7811 0.81048 0.34024 0.0
C389 C 0.79181 0.78032 0.32158 0.0
C390 C 0.79684 0.79707 0.29818 0.0
C391 C 0.79125 0.84209 0.29307 0.0
C392 C 0.80174 0.85246 0.26691 0.0
C393 C 0.75996 0.8695 0.25363 0.0
C394 C 0.84076 0.88619 0.26482 0.0
C395 C 0.81513 0.80637 0.25809 0.0
C396 C 0.81164 0.77474 0.2763 0.0
C397 C 0.82493 0.73042 0.27282 0.0
C398 C 0.84322 0.71843 0.25039 0.0
C399 C 0.84824 0.75065 0.23172 0.0
C400 C 0.83295 0.7949 0.23556 0.0
H401 H 0.1881 0.81966 0.72028 0.0
H402 H 0.31937 0.8499 0.74965 0.0
H403 H 0.29673 0.81683 0.78862 0.0
H404 H 0.1277 0.84941 0.77042 0.0
H405 H 0.08608 0.8057 0.768 0.0
H406 H 0.11461 0.82531 0.74143 0.0
H407 H 0.14022 0.7442 0.73185 0.0
H408 H 0.11136 0.72419 0.75835 0.0
H409 H 0.17006 0.71254 0.75439 0.0
H410 H 0.25576 0.79086 0.82632 0.0
H411 H 0.20128 0.76991 0.85822 0.0
H412 H 0.09838 0.75459 0.8036 0.0
C413 C 0.2126 0.81808 0.73463 0.0
C414 C 0.25558 0.83733 0.73178 0.0
C415 C 0.28628 0.83524 0.75127 0.0
C416 C 0.27373 0.8165 0.77354 0.0
C417 C 0.23052 0.79941 0.77604 0.0
C418 C 0.20066 0.79937 0.75696 0.0
C419 C 0.15523 0.78199 0.76475 0.0
C420 C 0.11879 0.81774 0.76093 0.0
C421 C 0.14355 0.73811 0.75155 0.0
C422 C 0.16374 0.77369 0.79131 0.0
C423 C 0.20737 0.78365 0.79755 0.0
C424 C 0.22175 0.78202 0.82153 0.0
C425 C 0.1906 0.77019 0.83956 0.0
C426 C 0.14568 0.76007 0.83346 0.0
C427 C 0.13262 0.76126 0.80893 0.0
H428 H 0.01939 0.10335 0.22723 0.0
H429 H 0.97596 0.1413 0.15527 0.0
H430 H 0.95713 0.06253 0.14661 0.0
H431 H 0.07043 0.00312 0.21233 0.0
H432 H 0.05186 0.97147 0.23822 0.0
H433 H 0.05791 0.03152 0.24023 0.0
H434 H 0.9754 0.03897 0.25393 0.0
H435 H 0.9693 0.9788 0.25249 0.0
H436 H 0.93157 0.01434 0.23587 0.0
H437 H 0.95457 0.97968 0.14327 0.0
H438 H 0.95346 0.89751 0.14805 0.0
H439 H 0.99202 0.91181 0.22316 0.0
C440 C 0.00475 0.09525 0.2099 0.0
C441 C -0.00064 0.12857 0.19191 0.0
C442 C 0.9803 0.11655 0.1694 0.0
C443 C 0.96971 0.07178 0.16423 0.0
C444 C 0.97738 0.03954 0.18191 0.0
C445 C 0.99311 0.0507 0.20456 0.0
C446 C -0.00129 0.0091 0.22012 0.0
C447 C 0.04763 0.0035 0.22819 0.0
C448 C 0.96684 0.01039 0.24189 0.0
C449 C 0.98511 0.97282 0.20236 0.0
C450 C 0.97342 0.99129 0.18037 0.0
C451 C 0.96271 0.96479 0.16053 0.0
C452 C 0.96269 0.91812 0.16337 0.0
C453 C 0.97259 0.89835 0.18599 0.0
C454 C 0.98405 0.92612 0.20572 0.0
H455 H 0.07015 0.92296 0.64039 0.0
H456 H 0.11254 0.98836 0.7065 0.0
H457 H 0.03334 0.00325 0.71681 0.0
H458 H 0.98212 -0.00011 0.62675 0.0
H459 H 0.94585 0.9573 0.61434 0.0
H460 H 0.00561 0.95044 0.61301 0.0
H461 H -0.00206 0.87367 0.63475 0.0
H462 H 0.93815 0.88063 0.63647 0.0
H463 H 0.97001 0.8708 0.66355 0.0
H464 H 0.94924 0.01038 0.71984 0.0
H465 H 0.868 0.01789 0.71306 0.0
H466 H 0.88148 0.94964 0.64427 0.0
C467 C 0.0628 0.94037 0.65706 0.0
C468 C 0.0974 0.95436 0.67272 0.0
C469 C 0.08649 0.97751 0.69422 0.0
C470 C 0.04164 0.98577 0.7003 0.0
C471 C 0.00827 0.97094 0.68459 0.0
C472 C 0.0184 0.94931 0.66325 0.0
C473 C 0.97663 0.93891 0.64884 0.0
C474 C 0.97762 0.96309 0.62429 0.0
C475 C 0.97033 0.88797 0.64573 0.0
C476 C 0.94131 0.95835 0.66532 0.0
C477 C 0.96013 0.97606 0.68602 0.0
C478 C 0.93416 0.99661 0.7037 0.0
C479 C 0.88795 0.00048 0.69973 0.0
C480 C 0.8683 0.98437 0.67811 0.0
C481 C 0.89537 0.96212 0.66102 0.0
H482 H 0.97929 0.10892 0.83442 0.0
H483 H 0.05192 0.14619 0.89929 0.0
H484 H 0.0754 0.06769 0.90452 0.0
H485 H 0.93574 0.01034 0.85516 0.0
H486 H 0.94152 0.97835 0.82775 0.0
H487 H 0.93624 0.03844 0.82633 0.0
H488 H 0.01046 0.0444 0.8024 0.0
H489 H 0.01562 0.98412 0.8033 0.0
H490 H 0.06044 0.01909 0.81441 0.0
H491 H 0.07903 0.9851 0.90715 0.0
H492 H 0.0722 0.903 0.90391 0.0
H493 H 0.00098 0.91754 0.83614 0.0
C494 C 0.00135 0.10086 0.84929 0.0
C495 C 0.01364 0.13377 0.86649 0.0
C496 C 0.04214 0.12172 0.88584 0.0
C497 C 0.05562 0.07713 0.88899 0.0
C498 C 0.04105 0.04518 0.87241 0.0
C499 C 0.0155 0.0565 0.85258 0.0
C500 C 0.0021 0.01503 0.83835 0.0
C501 C 0.95086 0.01029 0.83683 0.0
C502 C 0.02344 0.0157 0.81312 0.0
C503 C 0.02231 0.97855 0.85396 0.0
C504 C 0.04467 0.99688 0.87347 0.0
C505 C 0.06261 0.97031 0.89166 0.0
C506 C 0.0581 0.92372 0.88977 0.0
C507 C 0.03618 0.90401 0.86973 0.0
C508 C 0.0184 0.9318 0.85147 0.0
H509 H 0.93117 0.92571 0.42593 0.0
H510 H 0.89438 0.99435 0.35984 0.0
H511 H 0.97483 0.00544 0.35026 0.0
H512 H 0.02214 0.99751 0.44092 0.0
H513 H 0.05539 0.9529 0.45353 0.0
H514 H 0.99532 0.94893 0.45401 0.0
H515 H -0.00014 0.8724 0.43186 0.0
H516 H 0.06 0.87655 0.43095 0.0
H517 H 0.02887 0.8689 0.4034 0.0
H518 H 0.06006 0.00875 0.34838 0.0
H519 H 0.14115 0.01338 0.35683 0.0
H520 H 0.12021 0.94388 0.42476 0.0
C521 C 0.93994 0.94297 0.40937 0.0
C522 C 0.90666 0.959 0.39353 0.0
C523 C 0.91947 0.98197 0.37224 0.0
C524 C 0.965 0.98802 0.36658 0.0
C525 C -0.00298 0.9711 0.38249 0.0
C526 C 0.98491 0.94961 0.40361 0.0
C527 C 0.0253 0.93689 0.41849 0.0
C528 C 0.02448 0.96048 0.44319 0.0
C529 C 0.02869 0.88564 0.42133 0.0
C530 C 0.06229 0.95498 0.4026 0.0
C531 C 0.0455 0.97393 0.38171 0.0
C532 C 0.07351 0.99389 0.36464 0.0
C533 C 0.1196 0.99605 0.36953 0.0
C534 C 0.13701 0.97891 0.39146 0.0
C535 C 0.10798 0.95705 0.40779 0.0
loop_
_geom_bond_atom_site_label_1
_geom_bond_atom_site_label_2
_geom_bond_distance
_geom_bond_site_symmetry_2
_ccdc_geom_bond_type
Mg0 O7 2.141 . S
Mg0 O8 2.048 . S
Mg0 O9 2.048 . S
Mg0 O12 2.141 . S
C1 O2 1.313 . S
C1 O8 1.195 . S
O2 C1 1.313 . S
C3 O4 1.245 . S
C3 O12 1.289 . S
O4 C3 1.245 . S
C5 O6 1.245 . S
C5 O7 1.289 . S
O6 C5 1.245 . S
O7 Mg0 2.141 . S
O7 C5 1.289 . S
O8 Mg0 2.048 . S
O8 C1 1.195 . S
O9 Mg0 2.048 . S
O9 C10 1.195 . S
C10 O9 1.195 . S
C10 O11 1.313 . S
O11 C10 1.313 . S
O12 Mg0 2.141 . S
O12 C3 1.289 . S
Mg13 O20 2.141 . S
Mg13 O21 2.048 . S
Mg13 O22 2.048 . S
Mg13 O25 2.141 . S
C14 O15 1.313 . S
C14 O21 1.195 . S
O15 C14 1.313 . S
C16 O17 1.245 . S
C16 O25 1.289 . S
O17 C16 1.245 . S
C18 O19 1.245 . S
C18 O20 1.289 . S
O19 C18 1.245 . S
O20 Mg13 2.141 . S
O20 C18 1.289 . S
O21 Mg13 2.048 . S
O21 C14 1.195 . S
O22 Mg13 2.048 . S
O22 C23 1.195 . S
C23 O22 1.195 . S
C23 O24 1.313 . S
O24 C23 1.313 . S
O25 Mg13 2.141 . S
O25 C16 1.289 . S
Mg26 O33 2.141 . S
Mg26 O34 2.048 . S
Mg26 O35 2.048 . S
Mg26 O38 2.141 . S
C27 O28 1.313 . S
C27 O34 1.195 . S
O28 C27 1.313 . S
C29 O30 1.245 . S
C29 O38 1.289 . S
O30 C29 1.245 . S
C31 O32 1.245 . S
C31 O33 1.289 . S
O32 C31 1.245 . S
O33 Mg26 2.141 . S
O33 C31 1.289 . S
O34 Mg26 2.048 . S
O34 C27 1.195 . S
O35 Mg26 2.048 . S
O35 C36 1.195 . S
C36 O35 1.195 . S
C36 O37 1.313 . S
O37 C36 1.313 . S
O38 Mg26 2.141 . S
O38 C29 1.289 . S
Mg39 O46 2.141 . S
Mg39 O47 2.048 . S
Mg39 O48 2.048 . S
Mg39 O51 2.141 . S
C40 O41 1.313 . S
C40 O47 1.195 . S
O41 C40 1.313 . S
C42 O43 1.245 . S
C42 O51 1.289 . S
O43 C42 1.245 . S
C44 O45 1.245 . S
C44 O46 1.289 . S
O45 C44 1.245 . S
O46 Mg39 2.141 . S
O46 C44 1.289 . S
O47 Mg39 2.048 . S
O47 C40 1.195 . S
O48 Mg39 2.048 . S
O48 C49 1.195 . S
C49 O48 1.195 . S
C49 O50 1.313 . S
O50 C49 1.313 . S
O51 Mg39 2.141 . S
O51 C42 1.289 . S
Mg52 O59 2.141 . S
Mg52 O60 2.048 . S
Mg52 O61 2.048 . S
Mg52 O64 2.141 . S
C53 O54 1.313 . S
C53 O60 1.195 . S
O54 C53 1.313 . S
C55 O56 1.245 . S
C55 O64 1.289 . S
O56 C55 1.245 . S
C57 O58 1.245 . S
C57 O59 1.289 . S
O58 C57 1.245 . S
O59 Mg52 2.141 . S
O59 C57 1.289 . S
O60 Mg52 2.048 . S
O60 C53 1.195 . S
O61 Mg52 2.048 . S
O61 C62 1.195 . S
C62 O61 1.195 . S
C62 O63 1.313 . S
O63 C62 1.313 . S
O64 Mg52 2.141 . S
O64 C55 1.289 . S
Mg65 O72 2.141 . S
Mg65 O73 2.048 . S
Mg65 O74 2.048 . S
Mg65 O77 2.141 . S
C66 O67 1.313 . S
C66 O73 1.195 . S
O67 C66 1.313 . S
C68 O69 1.245 . S
C68 O77 1.289 . S
O69 C68 1.245 . S
C70 O71 1.245 . S
C70 O72 1.289 . S
O71 C70 1.245 . S
O72 Mg65 2.141 . S
O72 C70 1.289 . S
O73 Mg65 2.048 . S
O73 C66 1.195 . S
O74 Mg65 2.048 . S
O74 C75 1.195 . S
C75 O74 1.195 . S
C75 O76 1.313 . S
O76 C75 1.313 . S
O77 Mg65 2.141 . S
O77 C68 1.289 . S
Mg78 O85 2.141 . S
Mg78 O86 2.048 . S
Mg78 O87 2.048 . S
Mg78 O90 2.141 . S
C79 O80 1.313 . S
C79 O86 1.195 . S
O80 C79 1.313 . S
C81 O82 1.245 . S
C81 O90 1.289 . S
O82 C81 1.245 . S
C83 O84 1.245 . S
C83 O85 1.289 . S
O84 C83 1.245 . S
O85 Mg78 2.141 . S
O85 C83 1.289 . S
O86 Mg78 2.048 . S
O86 C79 1.195 . S
O87 Mg78 2.048 . S
O87 C88 1.195 . S
C88 O87 1.195 . S
C88 O89 1.313 . S
O89 C88 1.313 . S
O90 Mg78 2.141 . S
O90 C81 1.289 . S
Mg91 O98 2.141 . S
Mg91 O99 2.048 . S
Mg91 O100 2.048 . S
Mg91 O103 2.141 . S
C92 O93 1.313 . S
C92 O99 1.195 . S
O93 C92 1.313 . S
C94 O95 1.245 . S
C94 O103 1.289 . S
O95 C94 1.245 . S
C96 O97 1.245 . S
C96 O98 1.289 . S
O97 C96 1.245 . S
O98 Mg91 2.141 . S
O98 C96 1.289 . S
O99 Mg91 2.048 . S
O99 C92 1.195 . S
O100 Mg91 2.048 . S
O100 C101 1.195 . S
C101 O100 1.195 . S
C101 O102 1.313 . S
O102 C101 1.313 . S
O103 Mg91 2.141 . S
O103 C94 1.289 . S
H104 C116 0.930 . S
H105 C118 0.930 . S
H106 C119 0.930 . S
H107 C123 0.959 . S
H108 C123 0.959 . S
H109 C123 0.961 . S
H110 C124 0.960 . S
H111 C124 0.961 1_655 S
H112 C124 0.959 . S
H113 C127 0.929 1_455 S
H114 C128 0.931 . S
H115 C130 0.930 . S
C116 H104 0.930 . S
C116 C117 1.399 . S
C116 C121 1.399 . S
C117 C116 1.399 . S
C117 C118 1.376 . S
C118 H105 0.930 . S
C118 C117 1.376 . S
C118 C119 1.388 . S
C119 H106 0.930 . S
C119 C118 1.388 . S
C119 C120 1.390 . S
C120 C119 1.390 . S
C120 C121 1.394 . S
C120 C126 1.456 1_455 S
C121 C116 1.399 . S
C121 C120 1.394 . S
C121 C122 1.516 1_455 S
C122 C121 1.516 1_655 S
C122 C123 1.502 . S
C122 C124 1.561 1_655 S
C122 C125 1.526 . S
C123 H107 0.959 . S
C123 H108 0.959 . S
C123 H109 0.961 . S
C123 C122 1.502 . S
C124 H110 0.960 . S
C124 H111 0.961 1_455 S
C124 H112 0.959 . S
C124 C122 1.561 1_455 S
C125 C122 1.526 . S
C125 C126 1.405 . S
C125 C130 1.390 . S
C126 C120 1.456 1_655 S
C126 C125 1.405 . S
C126 C127 1.400 . S
C127 H113 0.929 1_655 S
C127 C126 1.400 . S
C127 C128 1.385 . S
C128 H114 0.931 . S
C128 C127 1.385 . S
C128 C129 1.389 . S
C129 C128 1.389 . S
C129 C130 1.387 . S
C130 H115 0.930 . S
C130 C125 1.390 . S
C130 C129 1.387 . S
H131 C143 0.930 . S
H132 C145 0.930 . S
H133 C146 0.930 . S
H134 C150 0.959 . S
H135 C150 0.959 . S
H136 C150 0.961 . S
H137 C151 0.960 . S
H138 C151 0.961 . S
H139 C151 0.959 . S
H140 C154 0.929 . S
H141 C155 0.931 . S
H142 C157 0.930 . S
C143 H131 0.930 . S
C143 C144 1.399 . S
C143 C148 1.399 . S
C144 C143 1.399 . S
C144 C145 1.376 . S
C145 H132 0.930 . S
C145 C144 1.376 . S
C145 C146 1.388 . S
C146 H133 0.930 . S
C146 C145 1.388 . S
C146 C147 1.390 . S
C147 C146 1.390 . S
C147 C148 1.394 . S
C147 C153 1.465 1_565 S
C148 C143 1.399 . S
C148 C147 1.394 . S
C148 C149 1.516 . S
C149 C148 1.516 . S
C149 C150 1.502 . S
C149 C151 1.561 1_565 S
C149 C152 1.526 1_565 S
C150 H134 0.959 . S
C150 H135 0.959 . S
C150 H136 0.961 . S
C150 C149 1.502 . S
C151 H137 0.960 . S
C151 H138 0.961 . S
C151 H139 0.959 . S
C151 C149 1.561 1_545 S
C152 C149 1.526 1_545 S
C152 C153 1.396 . S
C152 C157 1.390 . S
C153 C147 1.465 1_545 S
C153 C152 1.396 . S
C153 C154 1.399 . S
C154 H140 0.929 . S
C154 C153 1.399 . S
C154 C155 1.385 . S
C155 H141 0.931 . S
C155 C154 1.385 . S
C155 C156 1.389 . S
C156 C155 1.389 . S
C156 C157 1.387 . S
C157 H142 0.930 . S
C157 C152 1.390 . S
C157 C156 1.387 . S
H158 C170 0.930 . S
H159 C172 0.930 . S
H160 C173 0.930 1_455 S
H161 C177 0.959 . S
H162 C177 0.959 . S
H163 C177 0.961 . S
H164 C178 0.960 1_655 S
H165 C178 0.961 . S
H166 C178 0.959 . S
H167 C181 0.929 . S
H168 C182 0.931 . S
H169 C184 0.930 . S
C170 H158 0.930 . S
C170 C171 1.399 . S
C170 C175 1.399 . S
C171 C170 1.399 . S
C171 C172 1.376 . S
C172 H159 0.930 . S
C172 C171 1.376 . S
C172 C173 1.388 . S
C173 H160 0.930 1_655 S
C173 C172 1.388 . S
C173 C174 1.390 . S
C174 C173 1.390 . S
C174 C175 1.394 . S
C174 C180 1.465 1_655 S
C175 C170 1.399 . S
C175 C174 1.394 . S
C175 C176 1.516 . S
C176 C175 1.516 . S
C176 C177 1.502 . S
C176 C178 1.561 1_655 S
C176 C179 1.526 1_655 S
C177 H161 0.959 . S
C177 H162 0.959 . S
C177 H163 0.961 . S
C177 C176 1.502 . S
C178 H164 0.960 1_455 S
C178 H165 0.961 . S
C178 H166 0.959 . S
C178 C176 1.561 1_455 S
C179 C176 1.526 1_455 S
C179 C180 1.396 . S
C179 C184 1.390 . S
C180 C174 1.465 1_455 S
C180 C179 1.396 . S
C180 C181 1.399 . S
C181 H167 0.929 . S
C181 C180 1.399 . S
C181 C182 1.385 . S
C182 H168 0.931 . S
C182 C181 1.385 . S
C182 C183 1.389 . S
C183 C182 1.389 . S
C183 C184 1.387 . S
C184 H169 0.930 . S
C184 C179 1.390 . S
C184 C183 1.387 . S
H185 C197 0.930 . S
H186 C199 0.930 . S
H187 C200 0.930 . S
H188 C204 0.959 . S
H189 C204 0.959 . S
H190 C204 0.961 . S
H191 C205 0.960 . S
H192 C205 0.961 1_565 S
H193 C205 0.959 . S
H194 C208 0.929 1_545 S
H195 C209 0.931 . S
H196 C211 0.930 . S
C197 H185 0.930 . S
C197 C198 1.399 . S
C197 C202 1.399 . S
C198 C197 1.399 . S
C198 C199 1.376 . S
C199 H186 0.930 . S
C199 C198 1.376 . S
C199 C200 1.388 . S
C200 H187 0.930 . S
C200 C199 1.388 . S
C200 C201 1.390 . S
C201 C200 1.390 . S
C201 C202 1.394 . S
C201 C207 1.465 1_545 S
C202 C197 1.399 . S
C202 C201 1.394 . S
C202 C203 1.516 1_545 S
C203 C202 1.516 1_565 S
C203 C204 1.502 . S
C203 C205 1.561 1_565 S
C203 C206 1.526 . S
C204 H188 0.959 . S
C204 H189 0.959 . S
C204 H190 0.961 . S
C204 C203 1.502 . S
C205 H191 0.960 . S
C205 H192 0.961 1_545 S
C205 H193 0.959 . S
C205 C203 1.561 1_545 S
C206 C203 1.526 . S
C206 C207 1.396 . S
C206 C211 1.390 . S
C207 C201 1.465 1_565 S
C207 C206 1.396 . S
C207 C208 1.399 . S
C208 H194 0.929 1_565 S
C208 C207 1.399 . S
C208 C209 1.385 . S
C209 H195 0.931 . S
C209 C208 1.385 . S
C209 C210 1.389 . S
C210 C209 1.389 . S
C210 C211 1.387 . S
C211 H196 0.930 . S
C211 C206 1.390 . S
C211 C210 1.387 . S
H212 C224 0.930 . S
H213 C226 0.930 . S
H214 C227 0.930 . S
H215 C231 0.959 . S
H216 C231 0.959 1_554 S
H217 C231 0.961 . S
H218 C232 0.960 1_556 S
H219 C232 0.961 . S
H220 C232 0.959 . S
H221 C235 0.929 . S
H222 C236 0.931 . S
H223 C238 0.930 . S
C224 H212 0.930 . S
C224 C225 1.399 . S
C224 C229 1.399 . S
C225 C224 1.399 . S
C225 C226 1.376 . S
C226 H213 0.930 . S
C226 C225 1.376 . S
C226 C227 1.388 . S
C227 H214 0.930 . S
C227 C226 1.388 . S
C227 C228 1.390 . S
C228 C227 1.390 . S
C228 C229 1.394 . S
C228 C234 1.465 1_556 S
C229 C224 1.399 . S
C229 C228 1.394 . S
C229 C230 1.516 1_655 S
C230 C229 1.516 1_455 S
C230 C231 1.502 . S
C230 C232 1.561 1_456 S
C230 C233 1.526 1_556 S
C231 H215 0.959 . S
C231 H216 0.959 1_556 S
C231 H217 0.961 . S
C231 C230 1.502 . S
C232 H218 0.960 1_554 S
C232 H219 0.961 . S
C232 H220 0.959 . S
C232 C230 1.561 1_654 S
C233 C230 1.526 1_554 S
C233 C234 1.396 1_455 S
C233 C238 1.390 . S
C234 C228 1.465 1_554 S
C234 C233 1.396 1_655 S
C234 C235 1.399 . S
C235 H221 0.929 . S
C235 C234 1.399 . S
C235 C236 1.385 1_655 S
C236 H222 0.931 . S
C236 C235 1.385 1_455 S
C236 C237 1.389 . S
C237 C236 1.389 . S
C237 C238 1.387 . S
C238 H223 0.930 . S
C238 C233 1.390 . S
C238 C237 1.387 . S
H239 C251 0.930 1_565 S
H240 C253 0.930 . S
H241 C254 0.930 . S
H242 C258 0.959 . S
H243 C258 0.959 . S
H244 C258 0.961 . S
H245 C259 0.960 . S
H246 C259 0.961 . S
H247 C259 0.959 1_545 S
H248 C262 0.929 . S
H249 C263 0.931 1_545 S
H250 C265 0.930 . S
C251 H239 0.930 1_545 S
C251 C252 1.399 . S
C251 C256 1.399 . S
C252 C251 1.399 . S
C252 C253 1.376 . S
C253 H240 0.930 . S
C253 C252 1.376 . S
C253 C254 1.388 . S
C254 H241 0.930 . S
C254 C253 1.388 . S
C254 C255 1.390 . S
C255 C254 1.390 . S
C255 C256 1.394 . S
C255 C261 1.465 . S
C256 C251 1.399 . S
C256 C255 1.394 . S
C256 C257 1.516 1_545 S
C257 C256 1.516 1_565 S
C257 C258 1.502 . S
C257 C259 1.561 . S
C257 C260 1.526 . S
C258 H242 0.959 . S
C258 H243 0.959 . S
C258 H244 0.961 . S
C258 C257 1.502 . S
C259 H245 0.960 . S
C259 H246 0.961 . S
C259 H247 0.959 1_565 S
C259 C257 1.561 . S
C260 C257 1.526 . S
C260 C261 1.396 1_565 S
C260 C265 1.390 . S
C261 C255 1.465 . S
C261 C260 1.396 1_545 S
C261 C262 1.399 . S
C262 H248 0.929 . S
C262 C261 1.399 . S
C262 C263 1.385 1_545 S
C263 H249 0.931 1_565 S
C263 C262 1.385 1_565 S
C263 C264 1.389 . S
C264 C263 1.389 . S
C264 C265 1.387 . S
C265 H250 0.930 . S
C265 C260 1.390 . S
C265 C264 1.387 . S
H266 C278 0.930 . S
H267 C280 0.930 . S
H268 C281 0.930 . S
H269 C285 0.959 . S
H270 C285 0.959 1_556 S
H271 C285 0.961 . S
H272 C286 0.960 1_554 S
H273 C286 0.961 . S
H274 C286 0.959 . S
H275 C289 0.929 . S
H276 C290 0.931 . S
H277 C292 0.930 . S
C278 H266 0.930 . S
C278 C279 1.399 . S
C278 C283 1.399 . S
C279 C278 1.399 . S
C279 C280 1.376 . S
C280 H267 0.930 . S
C280 C279 1.376 . S
C280 C281 1.388 . S
C281 H268 0.930 . S
C281 C280 1.388 . S
C281 C282 1.390 . S
C282 C281 1.390 . S
C282 C283 1.394 . S
C282 C288 1.465 1_554 S
C283 C278 1.399 . S
C283 C282 1.394 . S
C283 C284 1.516 1_655 S
C284 C283 1.516 1_455 S
C284 C285 1.502 . S
C284 C286 1.561 1_454 S
C284 C287 1.526 1_554 S
C285 H269 0.959 . S
C285 H270 0.959 1_554 S
C285 H271 0.961 . S
C285 C284 1.502 . S
C286 H272 0.960 1_556 S
C286 H273 0.961 . S
C286 H274 0.959 . S
C286 C284 1.561 1_656 S
C287 C284 1.526 1_556 S
C287 C288 1.396 1_455 S
C287 C292 1.390 . S
C288 C282 1.465 1_556 S
C288 C287 1.396 1_655 S
C288 C289 1.399 . S
C289 H275 0.929 . S
C289 C288 1.399 . S
C289 C290 1.385 1_655 S
C290 H276 0.931 . S
C290 C289 1.385 1_455 S
C290 C291 1.389 . S
C291 C290 1.389 . S
C291 C292 1.387 . S
C292 H277 0.930 . S
C292 C287 1.390 . S
C292 C291 1.387 . S
H293 C305 0.930 . S
H294 C307 0.930 . S
H295 C308 0.930 . S
H296 C312 0.959 . S
H297 C312 0.959 . S
H298 C312 0.961 . S
H299 C313 0.960 . S
H300 C313 0.961 . S
H301 C313 0.959 . S
H302 C316 0.929 . S
H303 C317 0.931 . S
H304 C319 0.930 1_545 S
C305 H293 0.930 . S
C305 C306 1.399 . S
C305 C310 1.399 . S
C306 C305 1.399 . S
C306 C307 1.376 1_545 S
C307 H294 0.930 . S
C307 C306 1.376 1_565 S
C307 C308 1.388 . S
C308 H295 0.930 . S
C308 C307 1.388 . S
C308 C309 1.390 . S
C309 C308 1.390 . S
C309 C310 1.394 1_565 S
C309 C315 1.465 . S
C310 C305 1.399 . S
C310 C309 1.394 1_545 S
C310 C311 1.516 . S
C311 C310 1.516 . S
C311 C312 1.502 . S
C311 C313 1.561 . S
C311 C314 1.526 . S
C312 H296 0.959 . S
C312 H297 0.959 . S
C312 H298 0.961 . S
C312 C311 1.502 . S
C313 H299 0.960 . S
C313 H300 0.961 . S
C313 H301 0.959 . S
C313 C311 1.561 . S
C314 C311 1.526 . S
C314 C315 1.396 1_545 S
C314 C319 1.390 1_545 S
C315 C309 1.465 . S
C315 C314 1.396 1_565 S
C315 C316 1.399 . S
C316 H302 0.929 . S
C316 C315 1.399 . S
C316 C317 1.385 . S
C317 H303 0.931 . S
C317 C316 1.385 . S
C317 C318 1.389 . S
C318 C317 1.389 . S
C318 C319 1.387 . S
C319 H304 0.930 1_565 S
C319 C314 1.390 1_565 S
C319 C318 1.387 . S
H320 C332 0.930 . S
H321 C334 0.930 . S
H322 C335 0.930 . S
H323 C339 0.959 . S
H324 C339 0.959 . S
H325 C339 0.961 . S
H326 C340 0.960 . S
H327 C340 0.961 . S
H328 C340 0.959 . S
H329 C343 0.929 . S
H330 C344 0.931 . S
H331 C346 0.930 . S
C332 H320 0.930 . S
C332 C333 1.399 . S
C332 C337 1.399 . S
C333 C332 1.399 . S
C333 C334 1.376 . S
C334 H321 0.930 . S
C334 C333 1.376 . S
C334 C335 1.388 . S
C335 H322 0.930 . S
C335 C334 1.388 . S
C335 C336 1.390 . S
C336 C335 1.390 . S
C336 C337 1.394 . S
C336 C342 1.465 . S
C337 C332 1.399 . S
C337 C336 1.394 . S
C337 C338 1.516 . S
C338 C337 1.516 . S
C338 C339 1.502 . S
C338 C340 1.561 . S
C338 C341 1.526 . S
C339 H323 0.959 . S
C339 H324 0.959 . S
C339 H325 0.961 . S
C339 C338 1.502 . S
C340 H326 0.960 . S
C340 H327 0.961 . S
C340 H328 0.959 . S
C340 C338 1.561 . S
C341 C338 1.526 . S
C341 C342 1.396 . S
C341 C346 1.390 . S
C342 C336 1.465 . S
C342 C341 1.396 . S
C342 C343 1.399 . S
C343 H329 0.929 . S
C343 C342 1.399 . S
C343 C344 1.385 . S
C344 H330 0.931 . S
C344 C343 1.385 . S
C344 C345 1.389 . S
C345 C344 1.389 . S
C345 C346 1.387 . S
C346 H331 0.930 . S
C346 C341 1.390 . S
C346 C345 1.387 . S
H347 C359 0.930 . S
H348 C361 0.930 . S
H349 C362 0.930 . S
H350 C366 0.959 . S
H351 C366 0.959 . S
H352 C366 0.961 . S
H353 C367 0.960 . S
H354 C367 0.961 . S
H355 C367 0.959 . S
H356 C370 0.929 . S
H357 C371 0.931 . S
H358 C373 0.930 . S
C359 H347 0.930 . S
C359 C360 1.399 . S
C359 C364 1.399 . S
C360 C359 1.399 . S
C360 C361 1.376 . S
C361 H348 0.930 . S
C361 C360 1.376 . S
C361 C362 1.388 . S
C362 H349 0.930 . S
C362 C361 1.388 . S
C362 C363 1.390 . S
C363 C362 1.390 . S
C363 C364 1.394 . S
C363 C369 1.465 . S
C364 C359 1.399 . S
C364 C363 1.394 . S
C364 C365 1.516 . S
C365 C364 1.516 . S
C365 C366 1.502 . S
C365 C367 1.561 . S
C365 C368 1.526 . S
C366 H350 0.959 . S
C366 H351 0.959 . S
C366 H352 0.961 . S
C366 C365 1.502 . S
C367 H353 0.960 . S
C367 H354 0.961 . S
C367 H355 0.959 . S
C367 C365 1.561 . S
C368 C365 1.526 . S
C368 C369 1.396 . S
C368 C373 1.390 . S
C369 C363 1.465 . S
C369 C368 1.396 . S
C369 C370 1.399 . S
C370 H356 0.929 . S
C370 C369 1.399 . S
C370 C371 1.385 . S
C371 H357 0.931 . S
C371 C370 1.385 . S
C371 C372 1.389 . S
C372 C371 1.389 . S
C372 C373 1.387 . S
C373 H358 0.930 . S
C373 C368 1.390 . S
C373 C372 1.387 . S
H374 C386 0.930 . S
H375 C388 0.930 . S
H376 C389 0.930 . S
H377 C393 0.959 . S
H378 C393 0.959 . S
H379 C393 0.961 . S
H380 C394 0.960 . S
H381 C394 0.961 . S
H382 C394 0.959 . S
H383 C397 0.929 . S
H384 C398 0.931 . S
H385 C400 0.930 . S
C386 H374 0.930 . S
C386 C387 1.399 . S
C386 C391 1.399 . S
C387 C386 1.399 . S
C387 C388 1.376 . S
C388 H375 0.930 . S
C388 C387 1.376 . S
C388 C389 1.388 . S
C389 H376 0.930 . S
C389 C388 1.388 . S
C389 C390 1.390 . S
C390 C389 1.390 . S
C390 C391 1.394 . S
C390 C396 1.465 . S
C391 C386 1.399 . S
C391 C390 1.394 . S
C391 C392 1.516 . S
C392 C391 1.516 . S
C392 C393 1.502 . S
C392 C394 1.561 . S
C392 C395 1.526 . S
C393 H377 0.959 . S
C393 H378 0.959 . S
C393 H379 0.961 . S
C393 C392 1.502 . S
C394 H380 0.960 . S
C394 H381 0.961 . S
C394 H382 0.959 . S
C394 C392 1.561 . S
C395 C392 1.526 . S
C395 C396 1.396 . S
C395 C400 1.390 . S
C396 C390 1.465 . S
C396 C395 1.396 . S
C396 C397 1.399 . S
C397 H383 0.929 . S
C397 C396 1.399 . S
C397 C398 1.385 . S
C398 H384 0.931 . S
C398 C397 1.385 . S
C398 C399 1.389 . S
C399 C398 1.389 . S
C399 C400 1.387 . S
C400 H385 0.930 . S
C400 C395 1.390 . S
C400 C399 1.387 . S
H401 C413 0.930 . S
H402 C415 0.930 . S
H403 C416 0.930 . S
H404 C420 0.959 . S
H405 C420 0.959 . S
H406 C420 0.961 . S
H407 C421 0.960 . S
H408 C421 0.961 . S
H409 C421 0.959 . S
H410 C424 0.929 . S
H411 C425 0.931 . S
H412 C427 0.930 . S
C413 H401 0.930 . S
C413 C414 1.399 . S
C413 C418 1.399 . S
C414 C413 1.399 . S
C414 C415 1.376 . S
C415 H402 0.930 . S
C415 C414 1.376 . S
C415 C416 1.388 . S
C416 H403 0.930 . S
C416 C415 1.388 . S
C416 C417 1.390 . S
C417 C416 1.390 . S
C417 C418 1.394 . S
C417 C423 1.465 . S
C418 C413 1.399 . S
C418 C417 1.394 . S
C418 C419 1.516 . S
C419 C418 1.516 . S
C419 C420 1.502 . S
C419 C421 1.561 . S
C419 C422 1.526 . S
C420 H404 0.959 . S
C420 H405 0.959 . S
C420 H406 0.961 . S
C420 C419 1.502 . S
C421 H407 0.960 . S
C421 H408 0.961 . S
C421 H409 0.959 . S
C421 C419 1.561 . S
C422 C419 1.526 . S
C422 C423 1.396 . S
C422 C427 1.390 . S
C423 C417 1.465 . S
C423 C422 1.396 . S
C423 C424 1.399 . S
C424 H410 0.929 . S
C424 C423 1.399 . S
C424 C425 1.385 . S
C425 H411 0.931 . S
C425 C424 1.385 . S
C425 C426 1.389 . S
C426 C425 1.389 . S
C426 C427 1.387 . S
C427 H412 0.930 . S
C427 C422 1.390 . S
C427 C426 1.387 . S
H428 C440 0.930 . S
H429 C442 0.930 . S
H430 C443 0.930 1_655 S
H431 C447 0.959 . S
H432 C447 0.959 . S
H433 C447 0.961 . S
H434 C448 0.960 1_455 S
H435 C448 0.961 1_565 S
H436 C448 0.959 . S
H437 C451 0.929 . S
H438 C452 0.931 . S
H439 C454 0.930 . S
C440 H428 0.930 . S
C440 C441 1.399 . S
C440 C445 1.399 . S
C441 C440 1.399 . S
C441 C442 1.376 . S
C442 H429 0.930 . S
C442 C441 1.376 . S
C442 C443 1.388 . S
C443 H430 0.930 1_455 S
C443 C442 1.388 . S
C443 C444 1.390 1_455 S
C444 C443 1.390 1_655 S
C444 C445 1.394 1_655 S
C444 C450 1.465 1_545 S
C445 C440 1.399 . S
C445 C444 1.394 1_455 S
C445 C446 1.516 1_545 S
C446 C445 1.516 1_565 S
C446 C447 1.502 . S
C446 C448 1.561 1_465 S
C446 C449 1.526 1_455 S
C447 H431 0.959 . S
C447 H432 0.959 . S
C447 H433 0.961 . S
C447 C446 1.502 . S
C448 H434 0.960 1_655 S
C448 H435 0.961 1_545 S
C448 H436 0.959 . S
C448 C446 1.561 1_645 S
C449 C446 1.526 1_655 S
C449 C450 1.396 . S
C449 C454 1.390 . S
C450 C444 1.465 1_565 S
C450 C449 1.396 . S
C450 C451 1.399 . S
C451 H437 0.929 . S
C451 C450 1.399 . S
C451 C452 1.385 . S
C452 H438 0.931 . S
C452 C451 1.385 . S
C452 C453 1.389 . S
C453 C452 1.389 . S
C453 C454 1.387 . S
C454 H439 0.930 . S
C454 C449 1.390 . S
C454 C453 1.387 . S
H455 C467 0.930 . S
H456 C469 0.930 . S
H457 C470 0.930 . S
H458 C474 0.959 . S
H459 C474 0.959 . S
H460 C474 0.961 . S
H461 C475 0.960 1_455 S
H462 C475 0.961 1_545 S
H463 C475 0.959 . S
H464 C478 0.929 1_565 S
H465 C479 0.931 . S
H466 C481 0.930 . S
C467 H455 0.930 . S
C467 C468 1.399 . S
C467 C472 1.399 . S
C468 C467 1.399 . S
C468 C469 1.376 . S
C469 H456 0.930 . S
C469 C468 1.376 . S
C469 C470 1.388 . S
C470 H457 0.930 . S
C470 C469 1.388 . S
C470 C471 1.390 . S
C471 C470 1.390 . S
C471 C472 1.394 . S
C471 C477 1.465 1_465 S
C472 C467 1.399 . S
C472 C471 1.394 . S
C472 C473 1.516 1_565 S
C473 C472 1.516 1_545 S
C473 C474 1.502 . S
C473 C475 1.561 1_445 S
C473 C476 1.526 1_455 S
C474 H458 0.959 . S
C474 H459 0.959 . S
C474 H460 0.961 . S
C474 C473 1.502 . S
C475 H461 0.960 1_655 S
C475 H462 0.961 1_565 S
C475 H463 0.959 . S
C475 C473 1.561 1_665 S
C476 C473 1.526 1_655 S
C476 C477 1.396 . S
C476 C481 1.390 . S
C477 C471 1.465 1_645 S
C477 C476 1.396 . S
C477 C478 1.399 . S
C478 H464 0.929 1_545 S
C478 C477 1.399 . S
C478 C479 1.385 . S
C479 H465 0.931 . S
C479 C478 1.385 . S
C479 C480 1.389 . S
C480 C479 1.389 . S
C480 C481 1.387 . S
C481 H466 0.930 . S
C481 C476 1.390 . S
C481 C480 1.387 . S
H482 C494 0.930 . S
H483 C496 0.930 . S
H484 C497 0.934 . S
H485 C501 0.959 . S
H486 C501 0.959 . S
H487 C501 0.961 . S
H488 C502 0.967 1_655 S
H489 C502 0.952 1_565 S
H490 C502 0.964 . S
H491 C505 0.929 . S
H492 C506 0.931 . S
H493 C508 0.930 . S
C494 H482 0.930 . S
C494 C495 1.399 . S
C494 C499 1.399 . S
C495 C494 1.399 . S
C495 C496 1.376 . S
C496 H483 0.930 . S
C496 C495 1.376 . S
C496 C497 1.384 1_655 S
C497 H484 0.934 . S
C497 C496 1.384 1_455 S
C497 C498 1.390 . S
C498 C497 1.390 . S
C498 C499 1.384 1_455 S
C498 C504 1.473 1_545 S
C499 C494 1.399 . S
C499 C498 1.384 1_655 S
C499 C500 1.516 1_545 S
C500 C499 1.516 1_565 S
C500 C501 1.502 . S
C500 C502 1.558 1_665 S
C500 C503 1.526 1_655 S
C501 H485 0.959 . S
C501 H486 0.959 . S
C501 H487 0.961 . S
C501 C500 1.502 . S
C502 H488 0.967 1_455 S
C502 H489 0.952 1_545 S
C502 H490 0.964 . S
C502 C500 1.558 1_445 S
C503 C500 1.526 1_455 S
C503 C504 1.396 . S
C503 C508 1.390 . S
C504 C498 1.473 1_565 S
C504 C503 1.396 . S
C504 C505 1.399 . S
C505 H491 0.929 . S
C505 C504 1.399 . S
C505 C506 1.385 . S
C506 H492 0.931 . S
C506 C505 1.385 . S
C506 C507 1.389 . S
C507 C506 1.389 . S
C507 C508 1.387 . S
C508 H493 0.930 . S
C508 C503 1.390 . S
C508 C507 1.387 . S
H509 C521 0.930 . S
H510 C523 0.930 . S
H511 C524 0.930 . S
H512 C528 0.959 . S
H513 C528 0.959 . S
H514 C528 0.961 . S
H515 C529 0.960 1_655 S
H516 C529 0.961 1_545 S
H517 C529 0.959 . S
H518 C532 0.929 1_565 S
H519 C533 0.931 . S
H520 C535 0.930 . S
C521 H509 0.930 . S
C521 C522 1.399 . S
C521 C526 1.399 . S
C522 C521 1.399 . S
C522 C523 1.376 . S
C523 H510 0.930 . S
C523 C522 1.376 . S
C523 C524 1.388 . S
C524 H511 0.930 . S
C524 C523 1.388 . S
C524 C525 1.390 . S
C525 C524 1.390 . S
C525 C526 1.394 . S
C525 C531 1.465 1_665 S
C526 C521 1.399 . S
C526 C525 1.394 . S
C526 C527 1.516 1_565 S
C527 C526 1.516 1_545 S
C527 C528 1.502 . S
C527 C529 1.561 1_645 S
C527 C530 1.526 1_655 S
C528 H512 0.959 . S
C528 H513 0.959 . S
C528 H514 0.961 . S
C528 C527 1.502 . S
C529 H515 0.960 1_455 S
C529 H516 0.961 1_565 S
C529 H517 0.959 . S
C529 C527 1.561 1_465 S
C530 C527 1.526 1_455 S
C530 C531 1.396 . S
C530 C535 1.390 . S
C531 C525 1.465 1_445 S
C531 C530 1.396 . S
C531 C532 1.399 . S
C532 H518 0.929 1_545 S
C532 C531 1.399 . S
C532 C533 1.385 . S
C533 H519 0.931 . S
C533 C532 1.385 . S
C533 C534 1.389 . S
C534 C533 1.389 . S
C534 C535 1.387 . S
C535 H520 0.930 . S
C535 C530 1.390 . S
C535 C534 1.387 . S
C117 C5 1.910 . S
C129 C31 1.853 . S
C144 C44 1.844 . S
C156 C18 1.887 . S
C171 C83 1.839 . S
C183 C57 1.894 . S
C198 C70 1.909 . S
C210 C96 1.855 . S
C225 C79 1.549 . S
C237 C1 1.533 . S
C252 C14 1.554 . S
C264 C92 1.531 . S
C279 C27 1.549 . S
C291 C53 1.533 . S
C306 C66 1.531 . S
C318 C40 1.551 . S
C333 C3 1.621 . S
C345 C68 1.617 . S
C360 C81 1.617 . S
C372 C16 1.618 . S
C387 C94 1.629 . S
C399 C29 1.641 . S
C414 C42 1.639 . S
C426 C55 1.628 . S
C441 C10 1.392 . S
C453 C36 1.467 . S
C468 C49 1.469 . S
C480 C23 1.402 . S
C495 C88 1.391 . S
C507 C62 1.469 . S
C522 C101 1.467 . S
C534 C75 1.405 . S
