# Generated by pormake.
# Topology vbn, (6)-cn, num edge types: 1
# Building blocks:
#     Node 0, Type 0, BuildingBlock: VOLQOD_clean_sbu_1, # of connection points: 6
#     Node 1, Type 0, BuildingBlock: VOLQOD_clean_sbu_1, # of connection points: 6
#     Node 2, Type 0, BuildingBlock: VOLQOD_clean_sbu_1, # of connection points: 6
#     Node 3, Type 0, BuildingBlock: VOLQOD_clean_sbu_1, # of connection points: 6
#     Node 4, Type 0, BuildingBlock: VOLQOD_clean_sbu_1, # of connection points: 6
#     Node 5, Type 0, BuildingBlock: VOLQOD_clean_sbu_1, # of connection points: 6
#     Node 6, Type 0, BuildingBlock: VOLQOD_clean_sbu_1, # of connection points: 6
#     Node 7, Type 0, BuildingBlock: VOLQOD_clean_sbu_1, # of connection points: 6
#     Edge 8, Type (0, 0), BuildingBlock: XIVTED_clean_linker_0, # of connection points: 2
#     Edge 9, Type (0, 0), BuildingBlock: XIVTED_clean_linker_0, # of connection points: 2
#     Edge 10, Type (0, 0), BuildingBlock: XIVTED_clean_linker_0, # of connection points: 2
#     Edge 11, Type (0, 0), BuildingBlock: XIVTED_clean_linker_0, # of connection points: 2
#     Edge 12, Type (0, 0), BuildingBlock: XIVTED_clean_linker_0, # of connection points: 2
#     Edge 13, Type (0, 0), BuildingBlock: XIVTED_clean_linker_0, # of connection points: 2
#     Edge 14, Type (0, 0), BuildingBlock: XIVTED_clean_linker_0, # of connection points: 2
#     Edge 15, Type (0, 0), BuildingBlock: XIVTED_clean_linker_0, # of connection points: 2
#     Edge 16, Type (0, 0), BuildingBlock: XIVTED_clean_linker_0, # of connection points: 2
#     Edge 17, Type (0, 0), BuildingBlock: XIVTED_clean_linker_0, # of connection points: 2
#     Edge 18, Type (0, 0), BuildingBlock: XIVTED_clean_linker_0, # of connection points: 2
#     Edge 19, Type (0, 0), BuildingBlock: XIVTED_clean_linker_0, # of connection points: 2
#     Edge 20, Type (0, 0), BuildingBlock: XIVTED_clean_linker_0, # of connection points: 2
#     Edge 21, Type (0, 0), BuildingBlock: XIVTED_clean_linker_0, # of connection points: 2
#     Edge 22, Type (0, 0), BuildingBlock: XIVTED_clean_linker_0, # of connection points: 2
#     Edge 23, Type (0, 0), BuildingBlock: XIVTED_clean_linker_0, # of connection points: 2
#     Edge 24, Type (0, 0), BuildingBlock: XIVTED_clean_linker_0, # of connection points: 2
#     Edge 25, Type (0, 0), BuildingBlock: XIVTED_clean_linker_0, # of connection points: 2
#     Edge 26, Type (0, 0), BuildingBlock: XIVTED_clean_linker_0, # of connection points: 2
#     Edge 27, Type (0, 0), BuildingBlock: XIVTED_clean_linker_0, # of connection points: 2
#     Edge 28, Type (0, 0), BuildingBlock: XIVTED_clean_linker_0, # of connection points: 2
#     Edge 29, Type (0, 0), BuildingBlock: XIVTED_clean_linker_0, # of connection points: 2
#     Edge 30, Type (0, 0), BuildingBlock: XIVTED_clean_linker_0, # of connection points: 2
#     Edge 31, Type (0, 0), BuildingBlock: XIVTED_clean_linker_0, # of connection points: 2
# Relax obj value: 0.302
# Max RMSD: 0.245
# Mean RMSD: 0.245
data_MOF--net-vbn--node1-VOLQOD_clean_sbu_1--edge1-XIVTED_clean_linker_0
_symmetry_space_group_name_H-M    P1
_symmetry_Int_Tables_number       1
_symmetry_cell_setting            triclinic
loop_
_symmetry_equiv_pos_as_xyz
'x, y, z'
_cell_length_a     27.456999
_cell_length_b     29.316721
_cell_length_c     49.598503
_cell_angle_alpha  90.025811
_cell_angle_beta   89.989757
_cell_angle_gamma 89.952505
loop_
_atom_site_label
_atom_site_type_symbol
_atom_site_fract_x
_atom_site_fract_y
_atom_site_fract_z
_atom_type_partial_charge
O0 O 0.38898 0.35283 0.44506 0.0
Zn1 Zn 0.36368 0.29211 0.43299 0.0
O2 O 0.36532 0.28843 0.39409 0.0
Zn3 Zn 0.30062 0.28112 0.37883 0.0
Zn4 Zn 0.39666 0.34205 0.38015 0.0
Zn5 Zn 0.40535 0.23794 0.3839 0.0
O6 O 0.29527 0.21866 0.36007 0.0
O7 O 0.36357 0.18525 0.37423 0.0
O8 O 0.29509 0.28526 0.44719 0.0
O9 O 0.25219 0.2805 0.40926 0.0
O10 O 0.28185 0.33744 0.35631 0.0
O11 O 0.34648 0.38142 0.36383 0.0
O12 O 0.44141 0.32773 0.3496 0.0
O13 O 0.41202 0.24843 0.4497 0.0
O14 O 0.44202 0.25224 0.35017 0.0
O15 O 0.45173 0.22254 0.41376 0.0
C16 C 0.41802 0.38118 0.43415 0.0
C17 C 0.32227 0.18324 0.3626 0.0
C18 C 0.30406 0.37563 0.35419 0.0
C19 C 0.2544 0.28226 0.4349 0.0
C20 C 0.45373 0.28982 0.33919 0.0
C21 C 0.44798 0.22727 0.43922 0.0
O22 O 0.429 0.37856 0.40925 0.0
O23 O 0.0974 0.15268 0.94561 0.0
Zn24 Zn 0.12298 0.21309 0.93329 0.0
O25 O 0.12184 0.21627 0.89439 0.0
Zn26 Zn 0.18687 0.22339 0.87942 0.0
Zn27 Zn 0.09063 0.16244 0.88055 0.0
Zn28 Zn 0.08188 0.26667 0.88391 0.0
O29 O 0.19263 0.28581 0.86068 0.0
O30 O 0.12378 0.31917 0.87407 0.0
O31 O 0.19124 0.21973 0.9477 0.0
O32 O 0.23503 0.22378 0.91005 0.0
O33 O 0.20566 0.16709 0.85686 0.0
O34 O 0.14087 0.12321 0.86414 0.0
O35 O 0.04552 0.17637 0.85013 0.0
O36 O 0.075 0.25727 0.94974 0.0
O37 O 0.04525 0.25187 0.85024 0.0
O38 O 0.03539 0.28266 0.91367 0.0
C39 C 0.06895 0.12384 0.93467 0.0
C40 C 0.16542 0.32117 0.86281 0.0
C41 C 0.18336 0.12897 0.85459 0.0
C42 C 0.23222 0.22227 0.93568 0.0
C43 C 0.03329 0.21412 0.83952 0.0
C44 C 0.03914 0.27837 0.93916 0.0
O45 O 0.05854 0.12589 0.90968 0.0
O46 O 0.89035 0.15059 0.5378 0.0
Zn47 Zn 0.8646 0.21137 0.54952 0.0
O48 O 0.8652 0.2154 0.58841 0.0
Zn49 Zn 0.80002 0.22282 0.60309 0.0
Zn50 Zn 0.89623 0.16183 0.60274 0.0
Zn51 Zn 0.90488 0.26603 0.59877 0.0
O52 O 0.79402 0.28537 0.62169 0.0
O53 O 0.86276 0.31868 0.60818 0.0
O54 O 0.79642 0.21807 0.53475 0.0
O55 O 0.75237 0.22316 0.57227 0.0
O56 O 0.78076 0.16671 0.62564 0.0
O57 O 0.84569 0.12268 0.61885 0.0
O58 O 0.94032 0.1764 0.63351 0.0
O59 O 0.91315 0.25498 0.53306 0.0
O60 O 0.94105 0.25189 0.63269 0.0
O61 O 0.95177 0.28157 0.56915 0.0
C62 C 0.91903 0.12222 0.54902 0.0
C63 C 0.82109 0.32075 0.61942 0.0
C64 C 0.80299 0.12856 0.62812 0.0
C65 C 0.75535 0.22116 0.54665 0.0
C66 C 0.95253 0.21437 0.64385 0.0
C67 C 0.94865 0.27652 0.54369 0.0
O68 O 0.92929 0.12495 0.57401 0.0
O69 O 0.59709 0.35381 0.03741 0.0
Zn70 Zn 0.62297 0.29322 0.04939 0.0
O71 O 0.62208 0.28944 0.08829 0.0
Zn72 Zn 0.68717 0.28152 0.1031 0.0
Zn73 Zn 0.59133 0.34329 0.10246 0.0
Zn74 Zn 0.58169 0.23932 0.09864 0.0
O75 O 0.69267 0.21852 0.12137 0.0
O76 O 0.62311 0.18634 0.10818 0.0
O77 O 0.6912 0.28679 0.03481 0.0
O78 O 0.7351 0.28149 0.07236 0.0
O79 O 0.70646 0.33745 0.12591 0.0
O80 O 0.642 0.38194 0.11879 0.0
O81 O 0.54658 0.3294 0.13302 0.0
O82 O 0.575 0.24922 0.03282 0.0
O83 O 0.54534 0.25392 0.13247 0.0
O84 O 0.53514 0.22396 0.06884 0.0
C85 C 0.56891 0.38264 0.04861 0.0
C86 C 0.66491 0.18357 0.11919 0.0
C87 C 0.68446 0.37576 0.12828 0.0
C88 C 0.73221 0.28371 0.04675 0.0
C89 C 0.53397 0.29163 0.14345 0.0
C90 C 0.539 0.22829 0.04336 0.0
O91 O 0.55896 0.38038 0.07365 0.0
O92 O 0.60212 0.65151 0.53699 0.0
Zn93 Zn 0.62692 0.71233 0.54922 0.0
O94 O 0.6254 0.71578 0.58815 0.0
Zn95 Zn 0.69018 0.72371 0.60327 0.0
Zn96 Zn 0.59482 0.6617 0.60201 0.0
Zn97 Zn 0.58467 0.76571 0.59855 0.0
O98 O 0.6951 0.78635 0.62187 0.0
O99 O 0.62577 0.81875 0.60842 0.0
O100 O 0.69536 0.71965 0.53492 0.0
O101 O 0.73848 0.72448 0.57276 0.0
O102 O 0.70963 0.66767 0.62588 0.0
O103 O 0.64558 0.623 0.6183 0.0
O104 O 0.54958 0.67516 0.63248 0.0
O105 O 0.57825 0.7558 0.53266 0.0
O106 O 0.54798 0.75064 0.63219 0.0
O107 O 0.5382 0.78096 0.56867 0.0
C108 C 0.57374 0.62262 0.54793 0.0
C109 C 0.66737 0.82135 0.61967 0.0
C110 C 0.6879 0.62923 0.62797 0.0
C111 C 0.73612 0.72276 0.54712 0.0
C112 C 0.53662 0.7128 0.64299 0.0
C113 C 0.54206 0.77653 0.54319 0.0
O114 O 0.56308 0.62484 0.57289 0.0
O115 O 0.88573 0.85306 0.0372 0.0
Zn116 Zn 0.86061 0.79231 0.04915 0.0
O117 O 0.86162 0.78866 0.08805 0.0
Zn118 Zn 0.79648 0.78096 0.10285 0.0
Zn119 Zn 0.89243 0.84251 0.10217 0.0
Zn120 Zn 0.90209 0.73848 0.09834 0.0
O121 O 0.7912 0.71821 0.1214 0.0
O122 O 0.86064 0.68572 0.10814 0.0
O123 O 0.79249 0.78536 0.03457 0.0
O124 O 0.7485 0.78044 0.0721 0.0
O125 O 0.77707 0.83719 0.12543 0.0
O126 O 0.84178 0.88133 0.11846 0.0
O127 O 0.93729 0.82856 0.13272 0.0
O128 O 0.90903 0.74874 0.03253 0.0
O129 O 0.93886 0.75309 0.13199 0.0
O130 O 0.9486 0.72292 0.0685 0.0
C131 C 0.91407 0.88186 0.04825 0.0
C132 C 0.81893 0.68318 0.11928 0.0
C133 C 0.79919 0.8754 0.12783 0.0
C134 C 0.75145 0.78231 0.04648 0.0
C135 C 0.95019 0.79075 0.14302 0.0
C136 C 0.94492 0.72757 0.04303 0.0
O137 O 0.92457 0.87952 0.07322 0.0
O138 O 0.10088 0.85359 0.44416 0.0
Zn139 Zn 0.12604 0.7927 0.43221 0.0
O140 O 0.12556 0.78901 0.39328 0.0
Zn141 Zn 0.19081 0.78088 0.37873 0.0
Zn142 Zn 0.09544 0.84315 0.37909 0.0
Zn143 Zn 0.08506 0.73906 0.38265 0.0
O144 O 0.19626 0.71813 0.3603 0.0
O145 O 0.1264 0.68597 0.373 0.0
O146 O 0.19406 0.78542 0.44708 0.0
O147 O 0.23832 0.78031 0.40964 0.0
O148 O 0.21087 0.83667 0.35611 0.0
O149 O 0.14663 0.88153 0.36301 0.0
O150 O 0.05078 0.82964 0.34841 0.0
O151 O 0.07708 0.74932 0.44847 0.0
O152 O 0.04893 0.75416 0.34882 0.0
O153 O 0.03805 0.72368 0.41227 0.0
C154 C 0.07299 0.88262 0.43293 0.0
C155 C 0.16838 0.68324 0.36219 0.0
C156 C 0.1892 0.87512 0.35369 0.0
C157 C 0.23518 0.78221 0.43525 0.0
C158 C 0.03787 0.792 0.33791 0.0
C159 C 0.04131 0.7283 0.43776 0.0
O160 O 0.06313 0.8804 0.40788 0.0
O161 O 0.3866 0.65072 0.94389 0.0
Zn162 Zn 0.36086 0.71147 0.93219 0.0
O163 O 0.36161 0.71557 0.8933 0.0
Zn164 Zn 0.29642 0.72359 0.87867 0.0
Zn165 Zn 0.39203 0.66172 0.87891 0.0
Zn166 Zn 0.40206 0.76575 0.88303 0.0
O167 O 0.291 0.7864 0.86033 0.0
O168 O 0.36054 0.81872 0.87344 0.0
O169 O 0.29274 0.71807 0.94694 0.0
O170 O 0.24867 0.72389 0.90949 0.0
O171 O 0.27665 0.66776 0.85596 0.0
O172 O 0.34101 0.62309 0.86289 0.0
O173 O 0.43628 0.67581 0.84813 0.0
O174 O 0.40907 0.75514 0.94882 0.0
O175 O 0.43856 0.75126 0.84921 0.0
O176 O 0.44867 0.781 0.91287 0.0
C177 C 0.41488 0.62206 0.9326 0.0
C178 C 0.31872 0.82137 0.86244 0.0
C179 C 0.29843 0.62936 0.85357 0.0
C180 C 0.25168 0.7215 0.9351 0.0
C181 C 0.44938 0.71363 0.83795 0.0
C182 C 0.44497 0.77629 0.93834 0.0
O183 O 0.42485 0.62456 0.90757 0.0
H184 H 0.28737 0.89372 0.35407 0.0
H185 H 0.23299 0.15966 0.34128 0.0
H186 H 0.14854 0.94975 0.33032 0.0
H187 H 0.37381 0.10351 0.36147 0.0
H188 H 0.20493 0.08282 0.32984 0.0
H189 H 0.32389 0.96941 0.34852 0.0
C190 C 0.26493 0.92159 0.3469 0.0
C191 C 0.21475 0.91569 0.34311 0.0
C192 C 0.24216 0.08744 0.33648 0.0
C193 C 0.25576 0.00239 0.33736 0.0
C194 C 0.25814 0.13135 0.34305 0.0
C195 C 0.30553 0.13807 0.35283 0.0
C196 C 0.27372 0.04998 0.33982 0.0
C197 C 0.33666 0.10001 0.35447 0.0
C198 C 0.28562 0.96493 0.34398 0.0
C199 C 0.18727 0.95305 0.33394 0.0
N200 N 0.32006 0.05766 0.34837 0.0
N201 N 0.20792 0.99492 0.33183 0.0
H202 H 0.25509 0.34468 0.84196 0.0
H203 H 0.20028 0.61064 0.85385 0.0
H204 H 0.11379 0.40083 0.86116 0.0
H205 H 0.33931 0.55458 0.83041 0.0
H206 H 0.16389 0.53487 0.84841 0.0
H207 H 0.28325 0.42144 0.83046 0.0
C208 C 0.22985 0.37297 0.84351 0.0
C209 C 0.18229 0.36627 0.85302 0.0
C210 C 0.20218 0.53935 0.84391 0.0
C211 C 0.21421 0.45428 0.83995 0.0
C212 C 0.2228 0.58274 0.84676 0.0
C213 C 0.27299 0.58868 0.84304 0.0
C214 C 0.23213 0.50188 0.83742 0.0
C215 C 0.30057 0.55127 0.83398 0.0
C216 C 0.24589 0.41684 0.83689 0.0
C217 C 0.15106 0.4043 0.85437 0.0
N218 N 0.27999 0.50937 0.83195 0.0
N219 N 0.16772 0.44662 0.84824 0.0
H220 H 0.78605 0.61039 0.62824 0.0
H221 H 0.73124 0.34442 0.64003 0.0
H222 H 0.6466 0.55447 0.65079 0.0
H223 H 0.87257 0.40043 0.62099 0.0
H224 H 0.70289 0.42127 0.65136 0.0
H225 H 0.82237 0.53457 0.63383 0.0
C226 C 0.76341 0.58251 0.63516 0.0
C227 C 0.71315 0.5885 0.6386 0.0
C228 C 0.74029 0.41662 0.64499 0.0
C229 C 0.75395 0.50165 0.64439 0.0
C230 C 0.75644 0.3727 0.63848 0.0
C231 C 0.80407 0.36594 0.62907 0.0
C232 C 0.77194 0.45403 0.64195 0.0
C233 C 0.83524 0.40396 0.62771 0.0
C234 C 0.784 0.5391 0.6381 0.0
C235 C 0.68542 0.55112 0.64745 0.0
N236 N 0.81849 0.44631 0.63375 0.0
N237 N 0.70597 0.50919 0.64958 0.0
H238 H 0.61085 0.10559 0.12243 0.0
H239 H 0.84078 0.94834 0.15247 0.0
H240 H 0.75547 0.15728 0.13777 0.0
H241 H 0.70163 0.89656 0.12626 0.0
H242 H 0.80482 0.02386 0.15783 0.0
H243 H 0.63892 0.0291 0.1334 0.0
C244 C 0.64853 0.10101 0.1283 0.0
C245 C 0.6811 0.13804 0.1287 0.0
C246 C 0.78185 0.99589 0.15139 0.0
C247 C 0.71338 0.04996 0.1414 0.0
C248 C 0.80225 0.95266 0.14848 0.0
C249 C 0.77426 0.91627 0.13851 0.0
C250 C 0.73311 0.003 0.14409 0.0
C251 C 0.72451 0.92368 0.13392 0.0
C252 C 0.66444 0.05717 0.13464 0.0
C253 C 0.7292 0.12981 0.13691 0.0
N254 N 0.70568 0.96649 0.13626 0.0
N255 N 0.74402 0.08656 0.14264 0.0
H256 H 0.84459 0.05525 0.65243 0.0
H257 H 0.61357 0.8996 0.62292 0.0
H258 H 0.70533 0.108 0.62694 0.0
H259 H 0.7578 0.84702 0.63857 0.0
H260 H 0.64202 0.97595 0.63395 0.0
H261 H 0.8082 0.98005 0.65805 0.0
C262 C 0.80597 0.05121 0.64863 0.0
C263 C 0.77805 0.08776 0.63879 0.0
C264 C 0.66736 0.9477 0.63526 0.0
C265 C 0.73639 1.00141 0.64468 0.0
C266 C 0.65123 0.90396 0.62889 0.0
C267 C 0.6836 0.86674 0.62933 0.0
C268 C 0.71632 0.95459 0.64209 0.0
C269 C 0.73168 0.87465 0.63766 0.0
C270 C 0.7853 0.00816 0.65171 0.0
C271 C 0.72817 0.08073 0.63448 0.0
N272 N 0.74672 0.9178 0.6434 0.0
N273 N 0.70908 0.03809 0.63696 0.0
H274 H 0.87305 0.60521 0.12289 0.0
H275 H 0.64291 0.4487 0.15301 0.0
H276 H 0.72839 0.65726 0.13801 0.0
H277 H 0.78207 0.39652 0.1269 0.0
H278 H 0.679 0.52409 0.15846 0.0
H279 H 0.84496 0.52887 0.13412 0.0
C280 C 0.83536 0.60074 0.12877 0.0
C281 C 0.80278 0.63781 0.12901 0.0
C282 C 0.70195 0.49606 0.15204 0.0
C283 C 0.77048 0.54993 0.14202 0.0
C284 C 0.68147 0.4529 0.14907 0.0
C285 C 0.70943 0.41646 0.13908 0.0
C286 C 0.75072 0.50302 0.14476 0.0
C287 C 0.75921 0.4237 0.13457 0.0
C288 C 0.81944 0.55699 0.13526 0.0
C289 C 0.75467 0.62975 0.13725 0.0
N290 N 0.77811 0.46644 0.13695 0.0
N291 N 0.73985 0.58657 0.14313 0.0
H292 H 0.3462 0.44901 0.3303 0.0
H293 H 0.11465 0.60505 0.35861 0.0
H294 H 0.20639 0.3964 0.35482 0.0
H295 H 0.25923 0.65739 0.34392 0.0
H296 H 0.14332 0.52867 0.34772 0.0
H297 H 0.30999 0.52433 0.32464 0.0
C298 C 0.30751 0.45312 0.33388 0.0
C299 C 0.27936 0.41656 0.34346 0.0
C300 C 0.16869 0.55687 0.3466 0.0
C301 C 0.23788 0.50305 0.33752 0.0
C302 C 0.15244 0.60064 0.35289 0.0
C303 C 0.18483 0.63779 0.35267 0.0
C304 C 0.2178 0.5499 0.34007 0.0
C305 C 0.23309 0.6298 0.34465 0.0
C306 C 0.28694 0.49623 0.33077 0.0
C307 C 0.2294 0.42367 0.34748 0.0
N308 N 0.24823 0.58663 0.33898 0.0
N309 N 0.21039 0.46638 0.34499 0.0
H310 H 0.14119 0.0557 0.83057 0.0
H311 H 0.37252 0.89949 0.85887 0.0
H312 H 0.28102 0.10814 0.8552 0.0
H313 H 0.22793 0.84724 0.84411 0.0
H314 H 0.34395 0.97587 0.84797 0.0
H315 H 0.17734 0.98036 0.82482 0.0
C316 C 0.17987 0.05155 0.83415 0.0
C317 C 0.20804 0.08806 0.8438 0.0
C318 C 0.31856 0.94769 0.84683 0.0
C319 C 0.24944 1.00155 0.83776 0.0
C320 C 0.33475 0.90393 0.85314 0.0
C321 C 0.30233 0.8668 0.8529 0.0
C322 C 0.26947 0.95469 0.84028 0.0
C323 C 0.2541 0.8748 0.84485 0.0
C324 C 0.20041 0.00842 0.831 0.0
C325 C 0.25799 0.0809 0.84782 0.0
N326 N 0.239 0.91798 0.83917 0.0
N327 N 0.27695 0.03818 0.84528 0.0
H328 H 0.40446 0.39615 0.48807 0.0
H329 H 0.5873 0.60783 0.49397 0.0
H330 H 0.48226 0.44785 0.41881 0.0
H331 H 0.51021 0.55541 0.56329 0.0
H332 H 0.54934 0.54931 0.46615 0.0
H333 H 0.44268 0.4545 0.51588 0.0
C334 C 0.42951 0.41982 0.47866 0.0
C335 C 0.44017 0.41707 0.45103 0.0
C336 C 0.54077 0.55057 0.48745 0.0
C337 C 0.48417 0.48393 0.48285 0.0
C338 C 0.56247 0.58397 0.50339 0.0
C339 C 0.5519 0.58658 0.53104 0.0
C340 C 0.50822 0.51954 0.49922 0.0
C341 C 0.51943 0.55471 0.54208 0.0
C342 C 0.45138 0.45311 0.4946 0.0
C343 C 0.47296 0.44867 0.44001 0.0
N344 N 0.49869 0.52253 0.5261 0.0
N345 N 0.49383 0.4808 0.45597 0.0
H346 H 0.90081 0.89662 -0.00569 0.0
H347 H 0.08185 0.10961 0.98871 0.0
H348 H 0.97732 0.94928 0.06378 0.0
H349 H 0.00563 0.05646 0.91927 0.0
H350 H 0.0439 0.05112 0.01652 0.0
H351 H 0.93856 0.9553 0.9666 0.0
C352 C 0.92548 0.92057 0.00379 0.0
C353 C 0.93593 0.91798 0.03145 0.0
C354 C 0.0355 0.05223 -0.0048 0.0
C355 C 0.97939 0.98524 -0.00026 0.0
C356 C 0.0572 0.08561 0.97927 0.0
C357 C 0.0469 0.08797 0.95158 0.0
C358 C 0.00325 0.02097 0.9834 0.0
C359 C 0.01465 0.05594 0.94051 0.0
C360 C 0.94707 0.95406 0.98791 0.0
C361 C 0.9682 0.94997 0.04255 0.0
N362 N -0.00607 0.02377 0.95648 0.0
N363 N 0.98883 0.98227 0.02663 0.0
H364 H 0.98243 0.0552 0.56507 0.0
H365 H 0.01059 0.9504 0.41687 0.0
H366 H 0.90731 0.10728 0.49498 0.0
H367 H 0.08464 0.89725 0.48703 0.0
H368 H 0.97293 0.00867 0.44518 0.0
H369 H 0.0205 0.9971 0.53676 0.0
C370 C 0.97385 0.0544 0.54376 0.0
C371 C 0.94162 0.08619 0.5324 0.0
C372 C -0.00253 0.98427 0.45436 0.0
C373 C 0.98514 0.01988 0.4999 0.0
C374 C 0.01903 0.95101 0.4382 0.0
C375 C 0.0508 0.91884 0.44958 0.0
C376 C 0.00773 0.98537 0.4821 0.0
C377 C 0.06037 0.92132 0.47736 0.0
C378 C -0.00436 0.02124 0.5276 0.0
C379 C 0.9319 0.08349 0.50464 0.0
N380 N 0.03887 0.95399 0.49266 0.0
N381 N 0.95361 0.05094 0.48935 0.0
H382 H 0.47778 0.55466 0.91646 0.0
H383 H 0.50624 0.45023 0.06466 0.0
H384 H 0.40333 0.60731 0.98666 0.0
H385 H 0.5804 0.39709 -0.0055 0.0
H386 H 0.46842 0.50835 0.03636 0.0
H387 H 0.51571 0.49648 0.94473 0.0
C388 C 0.46932 0.55396 0.93779 0.0
C389 C 0.43733 0.58594 0.94919 0.0
C390 C 0.49301 0.48398 0.02717 0.0
C391 C 0.48069 0.51955 0.98165 0.0
C392 C 0.51466 0.45081 0.04333 0.0
C393 C 0.54653 0.4187 0.03195 0.0
C394 C 0.50327 0.48506 -0.00057 0.0
C395 C 0.55606 0.42113 0.00417 0.0
C396 C 0.49103 0.52076 0.95392 0.0
C397 C 0.42775 0.58338 0.97696 0.0
N398 N 0.53448 0.45372 0.98886 0.0
N399 N 0.44938 0.55079 -0.00777 0.0
H400 H 0.50987 0.36526 0.17469 0.0
H401 H 0.47648 0.21566 0.30801 0.0
H402 H 0.51475 0.21793 0.17563 0.0
H403 H 0.47431 0.36304 0.30694 0.0
H404 H 0.49248 0.21574 0.25967 0.0
H405 H 0.49385 0.36484 0.22299 0.0
C406 C 0.50677 0.33277 0.18493 0.0
C407 C 0.51409 0.29156 0.17109 0.0
C408 C 0.48887 0.24805 0.27006 0.0
C409 C 0.49675 0.29094 0.22651 0.0
C410 C 0.48021 0.24807 0.29774 0.0
C411 C 0.47363 0.28942 0.31156 0.0
C412 C 0.4909 0.28966 0.25612 0.0
C413 C 0.47888 0.33032 0.29714 0.0
C414 C 0.49808 0.33259 0.21259 0.0
C415 C 0.50955 0.25054 0.18547 0.0
N416 N 0.48676 0.32938 0.27015 0.0
N417 N 0.5016 0.25129 0.21246 0.0
H418 H 0.00851 0.14031 0.80863 0.0
H419 H 0.97512 0.28876 0.67484 0.0
H420 H 0.01403 0.28759 0.80716 0.0
H421 H 0.97261 0.1414 0.6764 0.0
H422 H 0.991 0.28909 0.7232 0.0
H423 H 0.99204 0.14034 0.76038 0.0
C424 C 0.00545 0.17271 0.79828 0.0
C425 C 0.0131 0.21401 0.81196 0.0
C426 C 0.98733 0.25668 0.71291 0.0
C427 C -0.00474 0.21419 0.75658 0.0
C428 C 0.97873 0.25644 0.68523 0.0
C429 C 0.97214 0.21498 0.67154 0.0
C430 C 0.98928 0.2152 0.72699 0.0
C431 C 0.97722 0.1742 0.6861 0.0
C432 C -0.0035 0.17267 0.77065 0.0
C433 C 0.0086 0.25491 0.79745 0.0
N434 N 0.98506 0.17536 0.71309 0.0
N435 N 0.00041 0.25394 0.77048 0.0
H436 H 0.47319 0.78781 0.8071 0.0
H437 H 0.51215 0.63888 0.67383 0.0
H438 H 0.46979 0.64047 0.80557 0.0
H439 H 0.51589 0.78622 0.67516 0.0
H440 H 0.49402 0.63899 0.72192 0.0
H441 H 0.49092 0.78791 0.75893 0.0
C442 C 0.47696 0.75544 0.79676 0.0
C443 C 0.46963 0.71406 0.8104 0.0
C444 C 0.49846 0.67131 0.71165 0.0
C445 C 0.48893 0.71403 0.75515 0.0
C446 C 0.50838 0.67131 0.68411 0.0
C447 C 0.51595 0.71261 0.67044 0.0
C448 C 0.49616 0.71289 0.72563 0.0
C449 C 0.51053 0.75354 0.68486 0.0
C450 C 0.48663 0.75556 0.76919 0.0
C451 C 0.47494 0.67321 0.7959 0.0
N452 N 0.50139 0.75262 0.71174 0.0
N453 N 0.48388 0.67425 0.76901 0.0
H454 H 0.97461 0.7167 0.17384 0.0
H455 H 0.01378 0.86591 0.30694 0.0
H456 H 0.97079 0.86404 0.17525 0.0
H457 H 0.01744 0.71856 0.30573 0.0
H458 H -0.00417 0.86573 0.25884 0.0
H459 H 0.99276 0.71674 0.22195 0.0
C460 C 0.97838 0.7491 0.18414 0.0
C461 C 0.97079 0.79044 0.17049 0.0
C462 C 0.00022 0.83343 0.26914 0.0
C463 C 0.99058 0.79063 0.22568 0.0
C464 C 0.01004 0.83347 0.29668 0.0
C465 C 0.01749 0.79218 0.31039 0.0
C466 C -0.0021 0.79182 0.25519 0.0
C467 C 0.01215 0.75123 0.296 0.0
C468 C 0.9883 0.74906 0.21168 0.0
C469 C 0.97614 0.83133 0.18493 0.0
N470 N 0.00308 0.75212 0.26911 0.0
N471 N 0.9853 0.83037 0.2118 0.0
H472 H 0.45555 0.23416 0.49426 0.0
H473 H 0.74497 0.20624 0.49228 0.0
H474 H 0.53714 0.19451 0.42355 0.0
H475 H 0.66167 0.23141 0.56467 0.0
H476 H 0.66896 0.20009 0.46694 0.0
H477 H 0.53003 0.229 0.5209 0.0
C478 C 0.48889 0.22358 0.48439 0.0
C479 C 0.49005 0.2152 0.45652 0.0
C480 C 0.66733 0.20686 0.48838 0.0
C481 C 0.57577 0.21009 0.48688 0.0
C482 C 0.71077 0.2107 0.50284 0.0
C483 C 0.70982 0.21957 0.53066 0.0
C484 C 0.62257 0.21214 0.50177 0.0
C485 C 0.66429 0.22466 0.54326 0.0
C486 C 0.53153 0.2209 0.49962 0.0
C487 C 0.53444 0.20154 0.44492 0.0
N488 N 0.62257 0.22099 0.52872 0.0
N489 N 0.5756 0.19998 0.46008 0.0
H490 H 0.03198 0.27291 -0.00576 0.0
H491 H 0.74243 0.29865 -0.0076 0.0
H492 H 0.94981 0.31055 0.92339 0.0
H493 H 0.82601 0.27436 0.06477 0.0
H494 H 0.81832 0.3054 0.96703 0.0
H495 H 0.95761 0.27819 0.02097 0.0
C496 C -0.00148 0.28308 0.98436 0.0
C497 C -0.00284 0.29081 0.95642 0.0
C498 C 0.82004 0.29869 0.98847 0.0
C499 C 0.91158 0.29606 0.98689 0.0
C500 C 0.77668 0.29451 0.00296 0.0
C501 C 0.77773 0.28567 0.03077 0.0
C502 C 0.86485 0.29381 0.00184 0.0
C503 C 0.82331 0.28103 0.04336 0.0
C504 C 0.95595 0.28583 -0.00036 0.0
C505 C 0.95266 0.30401 0.94481 0.0
N506 N 0.86498 0.28502 0.02879 0.0
N507 N 0.91155 0.30563 0.96003 0.0
H508 H 0.03643 0.312 0.55967 0.0
H509 H 0.16146 0.27121 0.416 0.0
H510 H 0.9581 0.26753 0.48887 0.0
H511 H 0.24208 0.29772 0.48912 0.0
H512 H 0.08571 0.27752 0.44139 0.0
H513 H 0.11058 0.31714 0.53273 0.0
C514 C 0.03452 0.3041 0.53836 0.0
C515 C 0.99092 0.28881 0.52662 0.0
C516 C 0.11996 0.28196 0.45189 0.0
C517 C 0.07604 0.29403 0.49575 0.0
C518 C 0.16332 0.27821 0.43742 0.0
C519 C 0.20836 0.2837 0.45045 0.0
C520 C 0.12144 0.29146 0.47961 0.0
C521 C 0.2083 0.29291 0.47824 0.0
C522 C 0.07705 0.30671 0.52304 0.0
C523 C 0.99086 0.27915 0.49887 0.0
N524 N 0.16551 0.29651 0.49188 0.0
N525 N 0.03286 0.28151 0.48446 0.0
H526 H 0.53189 0.23417 0.98828 0.0
H527 H 0.24249 0.20817 0.99008 0.0
H528 H 0.44974 0.19597 0.05903 0.0
H529 H 0.326 0.23128 0.91755 0.0
H530 H 0.31837 0.20175 0.01546 0.0
H531 H 0.45759 0.22883 0.9615 0.0
C532 C 0.49846 0.22387 -0.00187 0.0
C533 C 0.49708 0.216 0.02605 0.0
C534 C 0.32008 0.20812 -0.00602 0.0
C535 C 0.4116 0.21065 -0.00447 0.0
C536 C 0.27672 0.21213 0.97949 0.0
C537 C 0.27777 0.22052 0.95163 0.0
C538 C 0.36489 0.21277 0.98058 0.0
C539 C 0.32333 0.22494 0.939 0.0
C540 C 0.45593 0.22107 0.98283 0.0
C541 C 0.45261 0.20264 0.03762 0.0
N542 N 0.36501 0.22115 0.95358 0.0
N543 N 0.41155 0.20097 0.02238 0.0
H544 H 0.53481 0.77025 0.48812 0.0
H545 H 0.24518 0.79666 0.48969 0.0
H546 H 0.45252 0.80837 0.55888 0.0
H547 H 0.32901 0.77218 0.41741 0.0
H548 H 0.321 0.80284 0.5152 0.0
H549 H 0.46042 0.77517 0.46138 0.0
C550 C 0.50132 0.78044 0.49799 0.0
C551 C 0.49996 0.78846 0.52589 0.0
C552 C 0.32278 0.7962 0.49374 0.0
C553 C 0.41435 0.7933 0.49541 0.0
C554 C 0.27946 0.79235 0.47918 0.0
C555 C 0.28061 0.78367 0.45135 0.0
C556 C 0.36764 0.79115 0.48043 0.0
C557 C 0.32623 0.77877 0.43883 0.0
C558 C 0.45874 0.78298 0.4827 0.0
C559 C 0.45539 0.80162 0.53748 0.0
N560 N 0.36785 0.78246 0.45346 0.0
N561 N 0.41429 0.80307 0.52226 0.0
H562 H 0.9521 0.73355 0.98797 0.0
H563 H 0.24161 0.70656 0.98946 0.0
H564 H 0.03432 0.69539 0.0587 0.0
H565 H 0.15786 0.73149 0.91723 0.0
H566 H 0.16578 0.70026 0.01494 0.0
H567 H 0.02643 0.72829 0.96119 0.0
C568 C 0.98557 0.72328 -0.00218 0.0
C569 C 0.98694 0.71537 0.02573 0.0
C570 C 0.16401 0.70701 -0.0065 0.0
C571 C 0.07247 0.71012 -0.0048 0.0
C572 C 0.20734 0.71093 0.97896 0.0
C573 C 0.20622 0.7198 0.95115 0.0
C574 C 0.11917 0.71219 0.98021 0.0
C575 C 0.16061 0.72477 0.93863 0.0
C576 C 0.02811 0.72054 0.98251 0.0
C577 C 0.03145 0.70206 0.0373 0.0
N578 N 0.11899 0.72102 0.95326 0.0
N579 N 0.07253 0.70043 0.02205 0.0
H580 H 0.95308 0.69387 0.42172 0.0
H581 H 0.82923 0.73351 0.56584 0.0
H582 H 0.03221 0.73654 0.49264 0.0
H583 H 0.748 0.70782 0.49283 0.0
H584 H 0.90478 0.72723 0.54026 0.0
H585 H 0.87903 0.68887 0.44878 0.0
C586 C 0.95518 0.70141 0.44307 0.0
C587 C -0.00102 0.71614 0.45483 0.0
C588 C 0.87044 0.72297 0.52982 0.0
C589 C 0.91399 0.71109 0.48582 0.0
C590 C 0.82719 0.72671 0.5444 0.0
C591 C 0.78204 0.72143 0.53146 0.0
C592 C 0.86872 0.7137 0.50207 0.0
C593 C 0.78187 0.71246 0.50364 0.0
C594 C 0.91271 0.69888 0.45846 0.0
C595 C -0.00071 0.72536 0.48262 0.0
N596 N 0.82455 0.70887 0.48989 0.0
N597 N 0.95736 0.7231 0.4971 0.0
H598 H 0.74147 0.7965 -0.00794 0.0
H599 H 0.45196 0.77039 -0.00658 0.0
H600 H 0.65756 0.77287 0.06439 0.0
H601 H 0.53445 0.80819 0.92272 0.0
H602 H 0.5262 0.77556 0.02026 0.0
H603 H 0.66572 0.80274 0.96653 0.0
C604 C 0.70718 0.79239 0.00258 0.0
C605 C 0.70599 0.78391 0.03043 0.0
C606 C 0.52796 0.78326 -0.00107 0.0
C607 C 0.61901 0.79146 0.00131 0.0
C608 C 0.48547 0.78056 0.98359 0.0
C609 C 0.48694 0.78841 0.95567 0.0
C610 C 0.57237 0.79356 0.98627 0.0
C611 C 0.5315 0.80158 0.94413 0.0
C612 C 0.66389 0.79628 0.988 0.0
C613 C 0.66036 0.77928 0.04296 0.0
N614 N 0.57252 0.80317 0.95941 0.0
N615 N 0.61876 0.78299 0.0283 0.0
loop_
_geom_bond_atom_site_label_1
_geom_bond_atom_site_label_2
_geom_bond_distance
_geom_bond_site_symmetry_2
_ccdc_geom_bond_type
O0 Zn1 1.953 . S
O0 C16 1.225 . S
Zn1 O0 1.953 . S
Zn1 O2 1.949 . S
Zn1 O8 1.919 . S
Zn1 O13 1.924 . S
O2 Zn1 1.949 . S
O2 Zn3 1.923 . S
O2 Zn4 1.950 . S
O2 Zn5 1.945 . S
Zn3 O2 1.923 . S
Zn3 O6 1.933 . S
Zn3 O9 1.941 . S
Zn3 O10 1.965 . S
Zn4 O2 1.950 . S
Zn4 O11 1.938 . S
Zn4 O12 1.906 . S
Zn4 O22 1.953 . S
Zn5 O2 1.945 . S
Zn5 O7 1.932 . S
Zn5 O14 1.977 . S
Zn5 O15 1.910 . S
O6 Zn3 1.933 . S
O6 C17 1.226 . S
O7 Zn5 1.932 . S
O7 C17 1.307 . S
O8 Zn1 1.919 . S
O8 C19 1.253 . S
O9 Zn3 1.941 . S
O9 C19 1.283 . S
O10 Zn3 1.965 . S
O10 C18 1.303 . S
O11 Zn4 1.938 . S
O11 C18 1.247 . S
O12 Zn4 1.906 . S
O12 C20 1.304 . S
O13 Zn1 1.924 . S
O13 C21 1.311 . S
O14 Zn5 1.977 . S
O14 C20 1.272 . S
O15 Zn5 1.910 . S
O15 C21 1.231 . S
C16 O0 1.225 . S
C16 O22 1.298 . S
C17 O6 1.226 . S
C17 O7 1.307 . S
C18 O10 1.303 . S
C18 O11 1.247 . S
C19 O8 1.253 . S
C19 O9 1.283 . S
C20 O12 1.304 . S
C20 O14 1.272 . S
C21 O13 1.311 . S
C21 O15 1.231 . S
O22 Zn4 1.953 . S
O22 C16 1.298 . S
O23 Zn24 1.953 . S
O23 C39 1.225 . S
Zn24 O23 1.953 . S
Zn24 O25 1.949 . S
Zn24 O31 1.919 . S
Zn24 O36 1.924 . S
O25 Zn24 1.949 . S
O25 Zn26 1.923 . S
O25 Zn27 1.950 . S
O25 Zn28 1.945 . S
Zn26 O25 1.923 . S
Zn26 O29 1.933 . S
Zn26 O32 1.941 . S
Zn26 O33 1.965 . S
Zn27 O25 1.950 . S
Zn27 O34 1.938 . S
Zn27 O35 1.906 . S
Zn27 O45 1.953 . S
Zn28 O25 1.945 . S
Zn28 O30 1.932 . S
Zn28 O37 1.977 . S
Zn28 O38 1.910 . S
O29 Zn26 1.933 . S
O29 C40 1.226 . S
O30 Zn28 1.932 . S
O30 C40 1.307 . S
O31 Zn24 1.919 . S
O31 C42 1.253 . S
O32 Zn26 1.941 . S
O32 C42 1.283 . S
O33 Zn26 1.965 . S
O33 C41 1.303 . S
O34 Zn27 1.938 . S
O34 C41 1.247 . S
O35 Zn27 1.906 . S
O35 C43 1.304 . S
O36 Zn24 1.924 . S
O36 C44 1.311 . S
O37 Zn28 1.977 . S
O37 C43 1.272 . S
O38 Zn28 1.910 . S
O38 C44 1.231 . S
C39 O23 1.225 . S
C39 O45 1.298 . S
C40 O29 1.226 . S
C40 O30 1.307 . S
C41 O33 1.303 . S
C41 O34 1.247 . S
C42 O31 1.253 . S
C42 O32 1.283 . S
C43 O35 1.304 . S
C43 O37 1.272 . S
C44 O36 1.311 . S
C44 O38 1.231 . S
O45 Zn27 1.953 . S
O45 C39 1.298 . S
O46 Zn47 1.953 . S
O46 C62 1.225 . S
Zn47 O46 1.953 . S
Zn47 O48 1.949 . S
Zn47 O54 1.919 . S
Zn47 O59 1.924 . S
O48 Zn47 1.949 . S
O48 Zn49 1.923 . S
O48 Zn50 1.950 . S
O48 Zn51 1.945 . S
Zn49 O48 1.923 . S
Zn49 O52 1.933 . S
Zn49 O55 1.941 . S
Zn49 O56 1.965 . S
Zn50 O48 1.950 . S
Zn50 O57 1.938 . S
Zn50 O58 1.906 . S
Zn50 O68 1.953 . S
Zn51 O48 1.945 . S
Zn51 O53 1.932 . S
Zn51 O60 1.977 . S
Zn51 O61 1.910 . S
O52 Zn49 1.933 . S
O52 C63 1.226 . S
O53 Zn51 1.932 . S
O53 C63 1.307 . S
O54 Zn47 1.919 . S
O54 C65 1.253 . S
O55 Zn49 1.941 . S
O55 C65 1.283 . S
O56 Zn49 1.965 . S
O56 C64 1.303 . S
O57 Zn50 1.938 . S
O57 C64 1.247 . S
O58 Zn50 1.906 . S
O58 C66 1.304 . S
O59 Zn47 1.924 . S
O59 C67 1.311 . S
O60 Zn51 1.977 . S
O60 C66 1.272 . S
O61 Zn51 1.910 . S
O61 C67 1.231 . S
C62 O46 1.225 . S
C62 O68 1.298 . S
C63 O52 1.226 . S
C63 O53 1.307 . S
C64 O56 1.303 . S
C64 O57 1.247 . S
C65 O54 1.253 . S
C65 O55 1.283 . S
C66 O58 1.304 . S
C66 O60 1.272 . S
C67 O59 1.311 . S
C67 O61 1.231 . S
O68 Zn50 1.953 . S
O68 C62 1.298 . S
O69 Zn70 1.953 . S
O69 C85 1.225 . S
Zn70 O69 1.953 . S
Zn70 O71 1.949 . S
Zn70 O77 1.919 . S
Zn70 O82 1.924 . S
O71 Zn70 1.949 . S
O71 Zn72 1.923 . S
O71 Zn73 1.950 . S
O71 Zn74 1.945 . S
Zn72 O71 1.923 . S
Zn72 O75 1.933 . S
Zn72 O78 1.941 . S
Zn72 O79 1.965 . S
Zn73 O71 1.950 . S
Zn73 O80 1.938 . S
Zn73 O81 1.906 . S
Zn73 O91 1.953 . S
Zn74 O71 1.945 . S
Zn74 O76 1.932 . S
Zn74 O83 1.977 . S
Zn74 O84 1.910 . S
O75 Zn72 1.933 . S
O75 C86 1.226 . S
O76 Zn74 1.932 . S
O76 C86 1.307 . S
O77 Zn70 1.919 . S
O77 C88 1.253 . S
O78 Zn72 1.941 . S
O78 C88 1.283 . S
O79 Zn72 1.965 . S
O79 C87 1.303 . S
O80 Zn73 1.938 . S
O80 C87 1.247 . S
O81 Zn73 1.906 . S
O81 C89 1.304 . S
O82 Zn70 1.924 . S
O82 C90 1.311 . S
O83 Zn74 1.977 . S
O83 C89 1.272 . S
O84 Zn74 1.910 . S
O84 C90 1.231 . S
C85 O69 1.225 . S
C85 O91 1.298 . S
C86 O75 1.226 . S
C86 O76 1.307 . S
C87 O79 1.303 . S
C87 O80 1.247 . S
C88 O77 1.253 . S
C88 O78 1.283 . S
C89 O81 1.304 . S
C89 O83 1.272 . S
C90 O82 1.311 . S
C90 O84 1.231 . S
O91 Zn73 1.953 . S
O91 C85 1.298 . S
O92 Zn93 1.953 . S
O92 C108 1.225 . S
Zn93 O92 1.953 . S
Zn93 O94 1.949 . S
Zn93 O100 1.919 . S
Zn93 O105 1.924 . S
O94 Zn93 1.949 . S
O94 Zn95 1.923 . S
O94 Zn96 1.950 . S
O94 Zn97 1.945 . S
Zn95 O94 1.923 . S
Zn95 O98 1.933 . S
Zn95 O101 1.941 . S
Zn95 O102 1.965 . S
Zn96 O94 1.950 . S
Zn96 O103 1.938 . S
Zn96 O104 1.906 . S
Zn96 O114 1.953 . S
Zn97 O94 1.945 . S
Zn97 O99 1.932 . S
Zn97 O106 1.977 . S
Zn97 O107 1.910 . S
O98 Zn95 1.933 . S
O98 C109 1.226 . S
O99 Zn97 1.932 . S
O99 C109 1.307 . S
O100 Zn93 1.919 . S
O100 C111 1.253 . S
O101 Zn95 1.941 . S
O101 C111 1.283 . S
O102 Zn95 1.965 . S
O102 C110 1.303 . S
O103 Zn96 1.938 . S
O103 C110 1.247 . S
O104 Zn96 1.906 . S
O104 C112 1.304 . S
O105 Zn93 1.924 . S
O105 C113 1.311 . S
O106 Zn97 1.977 . S
O106 C112 1.272 . S
O107 Zn97 1.910 . S
O107 C113 1.231 . S
C108 O92 1.225 . S
C108 O114 1.298 . S
C109 O98 1.226 . S
C109 O99 1.307 . S
C110 O102 1.303 . S
C110 O103 1.247 . S
C111 O100 1.253 . S
C111 O101 1.283 . S
C112 O104 1.304 . S
C112 O106 1.272 . S
C113 O105 1.311 . S
C113 O107 1.231 . S
O114 Zn96 1.953 . S
O114 C108 1.298 . S
O115 Zn116 1.953 . S
O115 C131 1.225 . S
Zn116 O115 1.953 . S
Zn116 O117 1.949 . S
Zn116 O123 1.919 . S
Zn116 O128 1.924 . S
O117 Zn116 1.949 . S
O117 Zn118 1.923 . S
O117 Zn119 1.950 . S
O117 Zn120 1.945 . S
Zn118 O117 1.923 . S
Zn118 O121 1.933 . S
Zn118 O124 1.941 . S
Zn118 O125 1.965 . S
Zn119 O117 1.950 . S
Zn119 O126 1.938 . S
Zn119 O127 1.906 . S
Zn119 O137 1.953 . S
Zn120 O117 1.945 . S
Zn120 O122 1.932 . S
Zn120 O129 1.977 . S
Zn120 O130 1.910 . S
O121 Zn118 1.933 . S
O121 C132 1.226 . S
O122 Zn120 1.932 . S
O122 C132 1.307 . S
O123 Zn116 1.919 . S
O123 C134 1.253 . S
O124 Zn118 1.941 . S
O124 C134 1.283 . S
O125 Zn118 1.965 . S
O125 C133 1.303 . S
O126 Zn119 1.938 . S
O126 C133 1.247 . S
O127 Zn119 1.906 . S
O127 C135 1.304 . S
O128 Zn116 1.924 . S
O128 C136 1.311 . S
O129 Zn120 1.977 . S
O129 C135 1.272 . S
O130 Zn120 1.910 . S
O130 C136 1.231 . S
C131 O115 1.225 . S
C131 O137 1.298 . S
C132 O121 1.226 . S
C132 O122 1.307 . S
C133 O125 1.303 . S
C133 O126 1.247 . S
C134 O123 1.253 . S
C134 O124 1.283 . S
C135 O127 1.304 . S
C135 O129 1.272 . S
C136 O128 1.311 . S
C136 O130 1.231 . S
O137 Zn119 1.953 . S
O137 C131 1.298 . S
O138 Zn139 1.953 . S
O138 C154 1.225 . S
Zn139 O138 1.953 . S
Zn139 O140 1.949 . S
Zn139 O146 1.919 . S
Zn139 O151 1.924 . S
O140 Zn139 1.949 . S
O140 Zn141 1.923 . S
O140 Zn142 1.950 . S
O140 Zn143 1.945 . S
Zn141 O140 1.923 . S
Zn141 O144 1.933 . S
Zn141 O147 1.941 . S
Zn141 O148 1.965 . S
Zn142 O140 1.950 . S
Zn142 O149 1.938 . S
Zn142 O150 1.906 . S
Zn142 O160 1.953 . S
Zn143 O140 1.945 . S
Zn143 O145 1.932 . S
Zn143 O152 1.977 . S
Zn143 O153 1.910 . S
O144 Zn141 1.933 . S
O144 C155 1.226 . S
O145 Zn143 1.932 . S
O145 C155 1.307 . S
O146 Zn139 1.919 . S
O146 C157 1.253 . S
O147 Zn141 1.941 . S
O147 C157 1.283 . S
O148 Zn141 1.965 . S
O148 C156 1.303 . S
O149 Zn142 1.938 . S
O149 C156 1.247 . S
O150 Zn142 1.906 . S
O150 C158 1.304 . S
O151 Zn139 1.924 . S
O151 C159 1.311 . S
O152 Zn143 1.977 . S
O152 C158 1.272 . S
O153 Zn143 1.910 . S
O153 C159 1.231 . S
C154 O138 1.225 . S
C154 O160 1.298 . S
C155 O144 1.226 . S
C155 O145 1.307 . S
C156 O148 1.303 . S
C156 O149 1.247 . S
C157 O146 1.253 . S
C157 O147 1.283 . S
C158 O150 1.304 . S
C158 O152 1.272 . S
C159 O151 1.311 . S
C159 O153 1.231 . S
O160 Zn142 1.953 . S
O160 C154 1.298 . S
O161 Zn162 1.953 . S
O161 C177 1.225 . S
Zn162 O161 1.953 . S
Zn162 O163 1.949 . S
Zn162 O169 1.919 . S
Zn162 O174 1.924 . S
O163 Zn162 1.949 . S
O163 Zn164 1.923 . S
O163 Zn165 1.950 . S
O163 Zn166 1.945 . S
Zn164 O163 1.923 . S
Zn164 O167 1.933 . S
Zn164 O170 1.941 . S
Zn164 O171 1.965 . S
Zn165 O163 1.950 . S
Zn165 O172 1.938 . S
Zn165 O173 1.906 . S
Zn165 O183 1.953 . S
Zn166 O163 1.945 . S
Zn166 O168 1.932 . S
Zn166 O175 1.977 . S
Zn166 O176 1.910 . S
O167 Zn164 1.933 . S
O167 C178 1.226 . S
O168 Zn166 1.932 . S
O168 C178 1.307 . S
O169 Zn162 1.919 . S
O169 C180 1.253 . S
O170 Zn164 1.941 . S
O170 C180 1.283 . S
O171 Zn164 1.965 . S
O171 C179 1.303 . S
O172 Zn165 1.938 . S
O172 C179 1.247 . S
O173 Zn165 1.906 . S
O173 C181 1.304 . S
O174 Zn162 1.924 . S
O174 C182 1.311 . S
O175 Zn166 1.977 . S
O175 C181 1.272 . S
O176 Zn166 1.910 . S
O176 C182 1.231 . S
C177 O161 1.225 . S
C177 O183 1.298 . S
C178 O167 1.226 . S
C178 O168 1.307 . S
C179 O171 1.303 . S
C179 O172 1.247 . S
C180 O169 1.253 . S
C180 O170 1.283 . S
C181 O173 1.304 . S
C181 O175 1.272 . S
C182 O174 1.311 . S
C182 O176 1.231 . S
O183 Zn165 1.953 . S
O183 C177 1.298 . S
H184 C190 0.930 . S
H185 C194 0.930 . S
H186 C199 0.929 . S
H187 C197 0.929 . S
H188 C192 0.929 . S
H189 C198 0.929 . S
C190 H184 0.930 . S
C190 C191 1.367 . S
C190 C198 1.378 1_565 S
C191 C190 1.367 . S
C191 C199 1.433 . S
C192 H188 0.929 . S
C192 C194 1.378 . S
C192 C196 1.350 . S
C193 C196 1.463 . S
C193 C198 1.350 . S
C193 N201 1.427 . S
C194 H185 0.930 . S
C194 C192 1.378 . S
C194 C195 1.367 . S
C195 C194 1.367 . S
C195 C197 1.433 . S
C196 C192 1.350 . S
C196 C193 1.463 . S
C196 N200 1.427 . S
C197 H187 0.929 . S
C197 C195 1.433 . S
C197 N200 1.384 . S
C198 H189 0.929 . S
C198 C190 1.378 1_545 S
C198 C193 1.350 . S
C199 H186 0.929 . S
C199 C191 1.433 . S
C199 N201 1.384 1_565 S
N200 C196 1.427 . S
N200 C197 1.384 . S
N201 C193 1.427 . S
N201 C199 1.384 1_545 S
H202 C208 0.930 . S
H203 C212 0.930 . S
H204 C217 0.929 . S
H205 C215 0.929 . S
H206 C210 0.929 . S
H207 C216 0.929 . S
C208 H202 0.930 . S
C208 C209 1.367 . S
C208 C216 1.378 . S
C209 C208 1.367 . S
C209 C217 1.433 . S
C210 H206 0.929 . S
C210 C212 1.378 . S
C210 C214 1.350 . S
C211 C214 1.463 . S
C211 C216 1.350 . S
C211 N219 1.427 . S
C212 H203 0.930 . S
C212 C210 1.378 . S
C212 C213 1.367 . S
C213 C212 1.367 . S
C213 C215 1.433 . S
C214 C210 1.350 . S
C214 C211 1.463 . S
C214 N218 1.427 . S
C215 H205 0.929 . S
C215 C213 1.433 . S
C215 N218 1.384 . S
C216 H207 0.929 . S
C216 C208 1.378 . S
C216 C211 1.350 . S
C217 H204 0.929 . S
C217 C209 1.433 . S
C217 N219 1.384 . S
N218 C214 1.427 . S
N218 C215 1.384 . S
N219 C211 1.427 . S
N219 C217 1.384 . S
H220 C226 0.930 . S
H221 C230 0.930 . S
H222 C235 0.929 . S
H223 C233 0.929 . S
H224 C228 0.929 . S
H225 C234 0.929 . S
C226 H220 0.930 . S
C226 C227 1.367 . S
C226 C234 1.378 . S
C227 C226 1.367 . S
C227 C235 1.433 . S
C228 H224 0.929 . S
C228 C230 1.378 . S
C228 C232 1.350 . S
C229 C232 1.463 . S
C229 C234 1.350 . S
C229 N237 1.427 . S
C230 H221 0.930 . S
C230 C228 1.378 . S
C230 C231 1.367 . S
C231 C230 1.367 . S
C231 C233 1.433 . S
C232 C228 1.350 . S
C232 C229 1.463 . S
C232 N236 1.427 . S
C233 H223 0.929 . S
C233 C231 1.433 . S
C233 N236 1.384 . S
C234 H225 0.929 . S
C234 C226 1.378 . S
C234 C229 1.350 . S
C235 H222 0.929 . S
C235 C227 1.433 . S
C235 N237 1.384 . S
N236 C232 1.427 . S
N236 C233 1.384 . S
N237 C229 1.427 . S
N237 C235 1.384 . S
H238 C244 0.930 . S
H239 C248 0.930 . S
H240 C253 0.929 . S
H241 C251 0.929 . S
H242 C246 0.929 . S
H243 C252 0.929 . S
C244 H238 0.930 . S
C244 C245 1.367 . S
C244 C252 1.378 . S
C245 C244 1.367 . S
C245 C253 1.433 . S
C246 H242 0.929 . S
C246 C248 1.378 1_545 S
C246 C250 1.350 . S
C247 C250 1.463 . S
C247 C252 1.350 . S
C247 N255 1.427 . S
C248 H239 0.930 . S
C248 C246 1.378 1_565 S
C248 C249 1.367 . S
C249 C248 1.367 . S
C249 C251 1.433 . S
C250 C246 1.350 . S
C250 C247 1.463 . S
C250 N254 1.427 . S
C251 H241 0.929 . S
C251 C249 1.433 . S
C251 N254 1.384 1_565 S
C252 H243 0.929 . S
C252 C244 1.378 . S
C252 C247 1.350 . S
C253 H240 0.929 . S
C253 C245 1.433 . S
C253 N255 1.384 . S
N254 C250 1.427 . S
N254 C251 1.384 1_545 S
N255 C247 1.427 . S
N255 C253 1.384 . S
H256 C262 0.930 . S
H257 C266 0.930 . S
H258 C271 0.929 . S
H259 C269 0.929 . S
H260 C264 0.929 . S
H261 C270 0.929 . S
C262 H256 0.930 . S
C262 C263 1.367 . S
C262 C270 1.378 1_545 S
C263 C262 1.367 . S
C263 C271 1.433 . S
C264 H260 0.929 . S
C264 C266 1.378 . S
C264 C268 1.350 . S
C265 C268 1.463 . S
C265 C270 1.350 . S
C265 N273 1.427 . S
C266 H257 0.930 . S
C266 C264 1.378 . S
C266 C267 1.367 . S
C267 C266 1.367 . S
C267 C269 1.433 . S
C268 C264 1.350 . S
C268 C265 1.463 . S
C268 N272 1.427 . S
C269 H259 0.929 . S
C269 C267 1.433 . S
C269 N272 1.384 . S
C270 H261 0.929 . S
C270 C262 1.378 1_565 S
C270 C265 1.350 . S
C271 H258 0.929 . S
C271 C263 1.433 . S
C271 N273 1.384 1_545 S
N272 C268 1.427 . S
N272 C269 1.384 . S
N273 C265 1.427 . S
N273 C271 1.384 1_565 S
H274 C280 0.930 . S
H275 C284 0.930 . S
H276 C289 0.929 . S
H277 C287 0.929 . S
H278 C282 0.929 . S
H279 C288 0.929 . S
C280 H274 0.930 . S
C280 C281 1.367 . S
C280 C288 1.378 . S
C281 C280 1.367 . S
C281 C289 1.433 . S
C282 H278 0.929 . S
C282 C284 1.378 . S
C282 C286 1.350 . S
C283 C286 1.463 . S
C283 C288 1.350 . S
C283 N291 1.427 . S
C284 H275 0.930 . S
C284 C282 1.378 . S
C284 C285 1.367 . S
C285 C284 1.367 . S
C285 C287 1.433 . S
C286 C282 1.350 . S
C286 C283 1.463 . S
C286 N290 1.427 . S
C287 H277 0.929 . S
C287 C285 1.433 . S
C287 N290 1.384 . S
C288 H279 0.929 . S
C288 C280 1.378 . S
C288 C283 1.350 . S
C289 H276 0.929 . S
C289 C281 1.433 . S
C289 N291 1.384 . S
N290 C286 1.427 . S
N290 C287 1.384 . S
N291 C283 1.427 . S
N291 C289 1.384 . S
H292 C298 0.930 . S
H293 C302 0.930 . S
H294 C307 0.929 . S
H295 C305 0.929 . S
H296 C300 0.929 . S
H297 C306 0.929 . S
C298 H292 0.930 . S
C298 C299 1.367 . S
C298 C306 1.378 . S
C299 C298 1.367 . S
C299 C307 1.433 . S
C300 H296 0.929 . S
C300 C302 1.378 . S
C300 C304 1.350 . S
C301 C304 1.463 . S
C301 C306 1.350 . S
C301 N309 1.427 . S
C302 H293 0.930 . S
C302 C300 1.378 . S
C302 C303 1.367 . S
C303 C302 1.367 . S
C303 C305 1.433 . S
C304 C300 1.350 . S
C304 C301 1.463 . S
C304 N308 1.427 . S
C305 H295 0.929 . S
C305 C303 1.433 . S
C305 N308 1.384 . S
C306 H297 0.929 . S
C306 C298 1.378 . S
C306 C301 1.350 . S
C307 H294 0.929 . S
C307 C299 1.433 . S
C307 N309 1.384 . S
N308 C304 1.427 . S
N308 C305 1.384 . S
N309 C301 1.427 . S
N309 C307 1.384 . S
H310 C316 0.930 . S
H311 C320 0.930 . S
H312 C325 0.929 . S
H313 C323 0.929 . S
H314 C318 0.929 . S
H315 C324 0.929 . S
C316 H310 0.930 . S
C316 C317 1.367 . S
C316 C324 1.378 1_545 S
C317 C316 1.367 . S
C317 C325 1.433 . S
C318 H314 0.929 . S
C318 C320 1.378 . S
C318 C322 1.350 . S
C319 C322 1.463 . S
C319 C324 1.350 . S
C319 N327 1.427 . S
C320 H311 0.930 . S
C320 C318 1.378 . S
C320 C321 1.367 . S
C321 C320 1.367 . S
C321 C323 1.433 . S
C322 C318 1.350 . S
C322 C319 1.463 . S
C322 N326 1.427 . S
C323 H313 0.929 . S
C323 C321 1.433 . S
C323 N326 1.384 . S
C324 H315 0.929 . S
C324 C316 1.378 1_565 S
C324 C319 1.350 . S
C325 H312 0.929 . S
C325 C317 1.433 . S
C325 N327 1.384 1_545 S
N326 C322 1.427 . S
N326 C323 1.384 . S
N327 C319 1.427 . S
N327 C325 1.384 1_565 S
H328 C334 0.930 . S
H329 C338 0.930 . S
H330 C343 0.929 . S
H331 C341 0.929 . S
H332 C336 0.929 . S
H333 C342 0.929 . S
C334 H328 0.930 . S
C334 C335 1.367 . S
C334 C342 1.378 . S
C335 C334 1.367 . S
C335 C343 1.433 . S
C336 H332 0.929 . S
C336 C338 1.378 . S
C336 C340 1.350 . S
C337 C340 1.463 . S
C337 C342 1.350 . S
C337 N345 1.427 . S
C338 H329 0.930 . S
C338 C336 1.378 . S
C338 C339 1.367 . S
C339 C338 1.367 . S
C339 C341 1.433 . S
C340 C336 1.350 . S
C340 C337 1.463 . S
C340 N344 1.427 . S
C341 H331 0.929 . S
C341 C339 1.433 . S
C341 N344 1.384 . S
C342 H333 0.929 . S
C342 C334 1.378 . S
C342 C337 1.350 . S
C343 H330 0.929 . S
C343 C335 1.433 . S
C343 N345 1.384 . S
N344 C340 1.427 . S
N344 C341 1.384 . S
N345 C337 1.427 . S
N345 C343 1.384 . S
H346 C352 0.930 . S
H347 C356 0.930 . S
H348 C361 0.929 . S
H349 C359 0.929 . S
H350 C354 0.929 1_554 S
H351 C360 0.929 1_556 S
C352 H346 0.930 . S
C352 C353 1.367 . S
C352 C360 1.378 . S
C353 C352 1.367 . S
C353 C361 1.433 . S
C354 H350 0.929 1_556 S
C354 C356 1.378 . S
C354 C358 1.350 . S
C355 C358 1.463 1_664 S
C355 C360 1.350 . S
C355 N363 1.427 1_655 S
C356 H347 0.930 . S
C356 C354 1.378 . S
C356 C357 1.367 . S
C357 C356 1.367 . S
C357 C359 1.433 . S
C358 C354 1.350 . S
C358 C355 1.463 1_446 S
C358 N362 1.427 1_455 S
C359 H349 0.929 . S
C359 C357 1.433 . S
C359 N362 1.384 1_455 S
C360 H351 0.929 1_554 S
C360 C352 1.378 . S
C360 C355 1.350 . S
C361 H348 0.929 . S
C361 C353 1.433 . S
C361 N363 1.384 1_655 S
N362 C358 1.427 1_655 S
N362 C359 1.384 1_655 S
N363 C355 1.427 1_455 S
N363 C361 1.384 1_455 S
H364 C370 0.930 . S
H365 C374 0.930 . S
H366 C379 0.929 . S
H367 C377 0.929 . S
H368 C372 0.929 . S
H369 C378 0.929 . S
C370 H364 0.930 . S
C370 C371 1.367 . S
C370 C378 1.378 1_545 S
C371 C370 1.367 . S
C371 C379 1.433 . S
C372 H368 0.929 . S
C372 C374 1.378 1_545 S
C372 C376 1.350 1_545 S
C373 C376 1.463 1_645 S
C373 C378 1.350 1_545 S
C373 N381 1.427 1_655 S
C374 H365 0.930 . S
C374 C372 1.378 1_565 S
C374 C375 1.367 . S
C375 C374 1.367 . S
C375 C377 1.433 . S
C376 C372 1.350 1_565 S
C376 C373 1.463 1_465 S
C376 N380 1.427 1_455 S
C377 H367 0.929 . S
C377 C375 1.433 . S
C377 N380 1.384 1_455 S
C378 H369 0.929 . S
C378 C370 1.378 1_565 S
C378 C373 1.350 1_565 S
C379 H366 0.929 . S
C379 C371 1.433 . S
C379 N381 1.384 1_655 S
N380 C376 1.427 1_655 S
N380 C377 1.384 1_655 S
N381 C373 1.427 1_455 S
N381 C379 1.384 1_455 S
H382 C388 0.930 . S
H383 C392 0.930 . S
H384 C397 0.929 . S
H385 C395 0.929 . S
H386 C390 0.929 . S
H387 C396 0.929 . S
C388 H382 0.930 . S
C388 C389 1.367 . S
C388 C396 1.378 . S
C389 C388 1.367 . S
C389 C397 1.433 . S
C390 H386 0.929 . S
C390 C392 1.378 . S
C390 C394 1.350 . S
C391 C394 1.463 1_556 S
C391 C396 1.350 . S
C391 N399 1.427 . S
C392 H383 0.930 . S
C392 C390 1.378 . S
C392 C393 1.367 . S
C393 C392 1.367 . S
C393 C395 1.433 . S
C394 C390 1.350 . S
C394 C391 1.463 1_554 S
C394 N398 1.427 . S
C395 H385 0.929 . S
C395 C393 1.433 . S
C395 N398 1.384 . S
C396 H387 0.929 . S
C396 C388 1.378 . S
C396 C391 1.350 . S
C397 H384 0.929 . S
C397 C389 1.433 . S
C397 N399 1.384 . S
N398 C394 1.427 . S
N398 C395 1.384 . S
N399 C391 1.427 . S
N399 C397 1.384 . S
H400 C406 0.930 . S
H401 C410 0.930 . S
H402 C415 0.929 . S
H403 C413 0.929 . S
H404 C408 0.929 . S
H405 C414 0.929 . S
C406 H400 0.930 . S
C406 C407 1.367 . S
C406 C414 1.378 . S
C407 C406 1.367 . S
C407 C415 1.433 . S
C408 H404 0.929 . S
C408 C410 1.378 . S
C408 C412 1.350 . S
C409 C412 1.463 . S
C409 C414 1.350 . S
C409 N417 1.427 . S
C410 H401 0.930 . S
C410 C408 1.378 . S
C410 C411 1.367 . S
C411 C410 1.367 . S
C411 C413 1.433 . S
C412 C408 1.350 . S
C412 C409 1.463 . S
C412 N416 1.427 . S
C413 H403 0.929 . S
C413 C411 1.433 . S
C413 N416 1.384 . S
C414 H405 0.929 . S
C414 C406 1.378 . S
C414 C409 1.350 . S
C415 H402 0.929 . S
C415 C407 1.433 . S
C415 N417 1.384 . S
N416 C412 1.427 . S
N416 C413 1.384 . S
N417 C409 1.427 . S
N417 C415 1.384 . S
H418 C424 0.930 . S
H419 C428 0.930 . S
H420 C433 0.929 . S
H421 C431 0.929 . S
H422 C426 0.929 . S
H423 C432 0.929 . S
C424 H418 0.930 . S
C424 C425 1.367 1_655 S
C424 C432 1.378 . S
C425 C424 1.367 1_455 S
C425 C433 1.433 . S
C426 H422 0.929 . S
C426 C428 1.378 . S
C426 C430 1.350 1_455 S
C427 C430 1.463 1_455 S
C427 C432 1.350 1_455 S
C427 N435 1.427 . S
C428 H419 0.930 . S
C428 C426 1.378 . S
C428 C429 1.367 1_455 S
C429 C428 1.367 1_655 S
C429 C431 1.433 . S
C430 C426 1.350 1_655 S
C430 C427 1.463 1_655 S
C430 N434 1.427 . S
C431 H421 0.929 . S
C431 C429 1.433 . S
C431 N434 1.384 . S
C432 H423 0.929 . S
C432 C424 1.378 . S
C432 C427 1.350 1_655 S
C433 H420 0.929 . S
C433 C425 1.433 . S
C433 N435 1.384 . S
N434 C430 1.427 . S
N434 C431 1.384 . S
N435 C427 1.427 . S
N435 C433 1.384 . S
H436 C442 0.930 . S
H437 C446 0.930 . S
H438 C451 0.929 . S
H439 C449 0.929 . S
H440 C444 0.929 . S
H441 C450 0.929 . S
C442 H436 0.930 . S
C442 C443 1.367 . S
C442 C450 1.378 . S
C443 C442 1.367 . S
C443 C451 1.433 . S
C444 H440 0.929 . S
C444 C446 1.378 . S
C444 C448 1.350 . S
C445 C448 1.463 . S
C445 C450 1.350 . S
C445 N453 1.427 . S
C446 H437 0.930 . S
C446 C444 1.378 . S
C446 C447 1.367 . S
C447 C446 1.367 . S
C447 C449 1.433 . S
C448 C444 1.350 . S
C448 C445 1.463 . S
C448 N452 1.427 . S
C449 H439 0.929 . S
C449 C447 1.433 . S
C449 N452 1.384 . S
C450 H441 0.929 . S
C450 C442 1.378 . S
C450 C445 1.350 . S
C451 H438 0.929 . S
C451 C443 1.433 . S
C451 N453 1.384 . S
N452 C448 1.427 . S
N452 C449 1.384 . S
N453 C445 1.427 . S
N453 C451 1.384 . S
H454 C460 0.930 . S
H455 C464 0.930 . S
H456 C469 0.929 . S
H457 C467 0.929 . S
H458 C462 0.929 . S
H459 C468 0.929 . S
C460 H454 0.930 . S
C460 C461 1.367 . S
C460 C468 1.378 . S
C461 C460 1.367 . S
C461 C469 1.433 1_655 S
C462 H458 0.929 . S
C462 C464 1.378 . S
C462 C466 1.350 . S
C463 C466 1.463 1_655 S
C463 C468 1.350 . S
C463 N471 1.427 1_655 S
C464 H455 0.930 . S
C464 C462 1.378 . S
C464 C465 1.367 . S
C465 C464 1.367 . S
C465 C467 1.433 1_455 S
C466 C462 1.350 . S
C466 C463 1.463 1_455 S
C466 N470 1.427 1_455 S
C467 H457 0.929 . S
C467 C465 1.433 1_655 S
C467 N470 1.384 . S
C468 H459 0.929 . S
C468 C460 1.378 . S
C468 C463 1.350 . S
C469 H456 0.929 . S
C469 C461 1.433 1_455 S
C469 N471 1.384 . S
N470 C466 1.427 1_655 S
N470 C467 1.384 . S
N471 C463 1.427 1_455 S
N471 C469 1.384 . S
H472 C478 0.930 . S
H473 C482 0.930 . S
H474 C487 0.929 . S
H475 C485 0.929 . S
H476 C480 0.929 . S
H477 C486 0.929 . S
C478 H472 0.930 . S
C478 C479 1.367 . S
C478 C486 1.378 . S
C479 C478 1.367 . S
C479 C487 1.433 . S
C480 H476 0.929 . S
C480 C482 1.378 . S
C480 C484 1.350 . S
C481 C484 1.463 . S
C481 C486 1.350 . S
C481 N489 1.427 . S
C482 H473 0.930 . S
C482 C480 1.378 . S
C482 C483 1.367 . S
C483 C482 1.367 . S
C483 C485 1.433 . S
C484 C480 1.350 . S
C484 C481 1.463 . S
C484 N488 1.427 . S
C485 H475 0.929 . S
C485 C483 1.433 . S
C485 N488 1.384 . S
C486 H477 0.929 . S
C486 C478 1.378 . S
C486 C481 1.350 . S
C487 H474 0.929 . S
C487 C479 1.433 . S
C487 N489 1.384 . S
N488 C484 1.427 . S
N488 C485 1.384 . S
N489 C481 1.427 . S
N489 C487 1.384 . S
H490 C496 0.930 . S
H491 C500 0.930 . S
H492 C505 0.929 . S
H493 C503 0.929 . S
H494 C498 0.929 . S
H495 C504 0.929 . S
C496 H490 0.930 . S
C496 C497 1.367 . S
C496 C504 1.378 . S
C497 C496 1.367 . S
C497 C505 1.433 . S
C498 H494 0.929 . S
C498 C500 1.378 1_556 S
C498 C502 1.350 . S
C499 C502 1.463 . S
C499 C504 1.350 . S
C499 N507 1.427 . S
C500 H491 0.930 . S
C500 C498 1.378 1_554 S
C500 C501 1.367 . S
C501 C500 1.367 . S
C501 C503 1.433 . S
C502 C498 1.350 . S
C502 C499 1.463 . S
C502 N506 1.427 1_556 S
C503 H493 0.929 . S
C503 C501 1.433 . S
C503 N506 1.384 . S
C504 H495 0.929 . S
C504 C496 1.378 . S
C504 C499 1.350 . S
C505 H492 0.929 . S
C505 C497 1.433 . S
C505 N507 1.384 . S
N506 C502 1.427 1_554 S
N506 C503 1.384 . S
N507 C499 1.427 . S
N507 C505 1.384 . S
H508 C514 0.930 . S
H509 C518 0.930 . S
H510 C523 0.929 . S
H511 C521 0.929 . S
H512 C516 0.929 . S
H513 C522 0.929 . S
C514 H508 0.930 . S
C514 C515 1.367 . S
C514 C522 1.378 . S
C515 C514 1.367 . S
C515 C523 1.433 . S
C516 H512 0.929 . S
C516 C518 1.378 . S
C516 C520 1.350 . S
C517 C520 1.463 . S
C517 C522 1.350 . S
C517 N525 1.427 . S
C518 H509 0.930 . S
C518 C516 1.378 . S
C518 C519 1.367 . S
C519 C518 1.367 . S
C519 C521 1.433 . S
C520 C516 1.350 . S
C520 C517 1.463 . S
C520 N524 1.427 . S
C521 H511 0.929 . S
C521 C519 1.433 . S
C521 N524 1.384 . S
C522 H513 0.929 . S
C522 C514 1.378 . S
C522 C517 1.350 . S
C523 H510 0.929 . S
C523 C515 1.433 . S
C523 N525 1.384 . S
N524 C520 1.427 . S
N524 C521 1.384 . S
N525 C517 1.427 . S
N525 C523 1.384 . S
H526 C532 0.930 . S
H527 C536 0.930 . S
H528 C541 0.929 . S
H529 C539 0.929 . S
H530 C534 0.929 . S
H531 C540 0.929 . S
C532 H526 0.930 . S
C532 C533 1.367 . S
C532 C540 1.378 . S
C533 C532 1.367 . S
C533 C541 1.433 . S
C534 H530 0.929 . S
C534 C536 1.378 1_554 S
C534 C538 1.350 . S
C535 C538 1.463 . S
C535 C540 1.350 . S
C535 N543 1.427 . S
C536 H527 0.930 . S
C536 C534 1.378 1_556 S
C536 C537 1.367 . S
C537 C536 1.367 . S
C537 C539 1.433 . S
C538 C534 1.350 . S
C538 C535 1.463 . S
C538 N542 1.427 1_554 S
C539 H529 0.929 . S
C539 C537 1.433 . S
C539 N542 1.384 . S
C540 H531 0.929 . S
C540 C532 1.378 . S
C540 C535 1.350 . S
C541 H528 0.929 . S
C541 C533 1.433 . S
C541 N543 1.384 . S
N542 C538 1.427 1_556 S
N542 C539 1.384 . S
N543 C535 1.427 . S
N543 C541 1.384 . S
H544 C550 0.930 . S
H545 C554 0.930 . S
H546 C559 0.929 . S
H547 C557 0.929 . S
H548 C552 0.929 . S
H549 C558 0.929 . S
C550 H544 0.930 . S
C550 C551 1.367 . S
C550 C558 1.378 . S
C551 C550 1.367 . S
C551 C559 1.433 . S
C552 H548 0.929 . S
C552 C554 1.378 . S
C552 C556 1.350 . S
C553 C556 1.463 . S
C553 C558 1.350 . S
C553 N561 1.427 . S
C554 H545 0.930 . S
C554 C552 1.378 . S
C554 C555 1.367 . S
C555 C554 1.367 . S
C555 C557 1.433 . S
C556 C552 1.350 . S
C556 C553 1.463 . S
C556 N560 1.427 . S
C557 H547 0.929 . S
C557 C555 1.433 . S
C557 N560 1.384 . S
C558 H549 0.929 . S
C558 C550 1.378 . S
C558 C553 1.350 . S
C559 H546 0.929 . S
C559 C551 1.433 . S
C559 N561 1.384 . S
N560 C556 1.427 . S
N560 C557 1.384 . S
N561 C553 1.427 . S
N561 C559 1.384 . S
H562 C568 0.930 . S
H563 C572 0.930 . S
H564 C577 0.929 . S
H565 C575 0.929 . S
H566 C570 0.929 1_554 S
H567 C576 0.929 . S
C568 H562 0.930 . S
C568 C569 1.367 . S
C568 C576 1.378 . S
C569 C568 1.367 . S
C569 C577 1.433 . S
C570 H566 0.929 1_556 S
C570 C572 1.378 . S
C570 C574 1.350 1_556 S
C571 C574 1.463 . S
C571 C576 1.350 . S
C571 N579 1.427 . S
C572 H563 0.930 . S
C572 C570 1.378 . S
C572 C573 1.367 . S
C573 C572 1.367 . S
C573 C575 1.433 . S
C574 C570 1.350 1_554 S
C574 C571 1.463 . S
C574 N578 1.427 1_554 S
C575 H565 0.929 . S
C575 C573 1.433 . S
C575 N578 1.384 . S
C576 H567 0.929 . S
C576 C568 1.378 . S
C576 C571 1.350 . S
C577 H564 0.929 . S
C577 C569 1.433 . S
C577 N579 1.384 . S
N578 C574 1.427 1_556 S
N578 C575 1.384 . S
N579 C571 1.427 . S
N579 C577 1.384 . S
H580 C586 0.930 . S
H581 C590 0.930 . S
H582 C595 0.929 . S
H583 C593 0.929 . S
H584 C588 0.929 . S
H585 C594 0.929 . S
C586 H580 0.930 . S
C586 C587 1.367 . S
C586 C594 1.378 . S
C587 C586 1.367 . S
C587 C595 1.433 . S
C588 H584 0.929 . S
C588 C590 1.378 . S
C588 C592 1.350 . S
C589 C592 1.463 . S
C589 C594 1.350 . S
C589 N597 1.427 . S
C590 H581 0.930 . S
C590 C588 1.378 . S
C590 C591 1.367 . S
C591 C590 1.367 . S
C591 C593 1.433 . S
C592 C588 1.350 . S
C592 C589 1.463 . S
C592 N596 1.427 . S
C593 H583 0.929 . S
C593 C591 1.433 . S
C593 N596 1.384 . S
C594 H585 0.929 . S
C594 C586 1.378 . S
C594 C589 1.350 . S
C595 H582 0.929 . S
C595 C587 1.433 . S
C595 N597 1.384 . S
N596 C592 1.427 . S
N596 C593 1.384 . S
N597 C589 1.427 . S
N597 C595 1.384 . S
H598 C604 0.930 . S
H599 C608 0.930 . S
H600 C613 0.929 . S
H601 C611 0.929 . S
H602 C606 0.929 . S
H603 C612 0.929 . S
C604 H598 0.930 . S
C604 C605 1.367 . S
C604 C612 1.378 1_554 S
C605 C604 1.367 . S
C605 C613 1.433 . S
C606 H602 0.929 . S
C606 C608 1.378 . S
C606 C610 1.350 . S
C607 C610 1.463 . S
C607 C612 1.350 . S
C607 N615 1.427 1_556 S
C608 H599 0.930 . S
C608 C606 1.378 . S
C608 C609 1.367 . S
C609 C608 1.367 . S
C609 C611 1.433 . S
C610 C606 1.350 . S
C610 C607 1.463 . S
C610 N614 1.427 . S
C611 H601 0.929 . S
C611 C609 1.433 . S
C611 N614 1.384 . S
C612 H603 0.929 . S
C612 C604 1.378 1_556 S
C612 C607 1.350 . S
C613 H600 0.929 . S
C613 C605 1.433 . S
C613 N615 1.384 . S
N614 C610 1.427 . S
N614 C611 1.384 . S
N615 C607 1.427 1_554 S
N615 C613 1.384 . S
C191 C156 1.601 . S
C195 C17 1.588 . S
C209 C40 1.588 . S
C213 C179 1.600 . S
C227 C110 1.602 . S
C231 C63 1.588 . S
C245 C86 1.577 . S
C249 C133 1.596 . S
C263 C64 1.594 . S
C267 C109 1.580 . S
C281 C132 1.576 . S
C285 C87 1.594 . S
C299 C18 1.595 . S
C303 C155 1.576 . S
C317 C41 1.596 . S
C321 C178 1.585 . S
C335 C16 0.844 . S
C339 C108 0.844 . S
C353 C131 0.843 . S
C357 C39 0.843 . S
C371 C62 0.861 . S
C375 C154 0.861 . S
C389 C177 0.865 . S
C393 C85 0.865 . S
C407 C89 1.324 . S
C411 C20 1.326 . S
C425 C43 1.325 . S
C429 C66 1.325 . S
C443 C181 1.326 . S
C447 C112 1.324 . S
C461 C135 1.327 . S
C465 C158 1.326 . S
C479 C21 1.662 . S
C483 C65 1.609 . S
C497 C44 1.661 1_655 S
C501 C88 1.611 . S
C515 C67 1.663 1_455 S
C519 C19 1.610 . S
C533 C90 1.662 . S
C537 C42 1.609 . S
C551 C113 1.662 . S
C555 C157 1.618 . S
C569 C136 1.662 1_455 S
C573 C180 1.609 . S
C587 C159 1.664 1_655 S
C591 C111 1.613 . S
C605 C134 1.621 . S
C609 C182 1.663 . S
