# Generated by pormake.
# Topology qtz-e, (6)-cn, num edge types: 1
# Building blocks:
#     Node 0, Type 0, BuildingBlock: KUMBUR_clean_sbu_0, # of connection points: 6
#     Node 1, Type 0, BuildingBlock: KUMBUR_clean_sbu_0, # of connection points: 6
#     Node 2, Type 0, BuildingBlock: KUMBUR_clean_sbu_0, # of connection points: 6
#     Node 3, Type 0, BuildingBlock: KUMBUR_clean_sbu_0, # of connection points: 6
#     Node 4, Type 0, BuildingBlock: KUMBUR_clean_sbu_0, # of connection points: 6
#     Node 5, Type 0, BuildingBlock: KUMBUR_clean_sbu_0, # of connection points: 6
#     Edge 6, Type (0, 0), BuildingBlock: XUDNAN_clean_linker_2, # of connection points: 2
#     Edge 7, Type (0, 0), BuildingBlock: XUDNAN_clean_linker_2, # of connection points: 2
#     Edge 8, Type (0, 0), BuildingBlock: XUDNAN_clean_linker_2, # of connection points: 2
#     Edge 9, Type (0, 0), BuildingBlock: XUDNAN_clean_linker_2, # of connection points: 2
#     Edge 10, Type (0, 0), BuildingBlock: XUDNAN_clean_linker_2, # of connection points: 2
#     Edge 11, Type (0, 0), BuildingBlock: XUDNAN_clean_linker_2, # of connection points: 2
#     Edge 12, Type (0, 0), BuildingBlock: XUDNAN_clean_linker_2, # of connection points: 2
#     Edge 13, Type (0, 0), BuildingBlock: XUDNAN_clean_linker_2, # of connection points: 2
#     Edge 14, Type (0, 0), BuildingBlock: XUDNAN_clean_linker_2, # of connection points: 2
#     Edge 15, Type (0, 0), BuildingBlock: XUDNAN_clean_linker_2, # of connection points: 2
#     Edge 16, Type (0, 0), BuildingBlock: XUDNAN_clean_linker_2, # of connection points: 2
#     Edge 17, Type (0, 0), BuildingBlock: XUDNAN_clean_linker_2, # of connection points: 2
#     Edge 18, Type (0, 0), BuildingBlock: XUDNAN_clean_linker_2, # of connection points: 2
#     Edge 19, Type (0, 0), BuildingBlock: XUDNAN_clean_linker_2, # of connection points: 2
#     Edge 20, Type (0, 0), BuildingBlock: XUDNAN_clean_linker_2, # of connection points: 2
#     Edge 21, Type (0, 0), BuildingBlock: XUDNAN_clean_linker_2, # of connection points: 2
#     Edge 22, Type (0, 0), BuildingBlock: XUDNAN_clean_linker_2, # of connection points: 2
#     Edge 23, Type (0, 0), BuildingBlock: XUDNAN_clean_linker_2, # of connection points: 2
# Relax obj value: 0.058
# Max RMSD: 0.144
# Mean RMSD: 0.144
data_MOF--net-qtz-e--node1-KUMBUR_clean_sbu_0--edge1-XUDNAN_clean_linker_2
_symmetry_space_group_name_H-M    P1
_symmetry_Int_Tables_number       1
_symmetry_cell_setting            triclinic
loop_
_symmetry_equiv_pos_as_xyz
'x, y, z'
_cell_length_a     29.568407
_cell_length_b     29.394614
_cell_length_c     46.659448
_cell_angle_alpha  89.882473
_cell_angle_beta   90.467805
_cell_angle_gamma 120.29879
loop_
_atom_site_label
_atom_site_type_symbol
_atom_site_fract_x
_atom_site_fract_y
_atom_site_fract_z
_atom_type_partial_charge
Tb0 Tb 0.26161 0.51196 0.0461 0.0
C1 C 0.09427 0.29881 1.00852 0.0
C2 C 0.11176 0.24755 0.04272 0.0
C3 C 0.02255 0.21624 0.0264 0.0
C4 C 0.12919 0.29253 0.02531 0.0
C5 C 0.0407 0.25998 1.00813 0.0
C6 C 0.05805 0.21009 0.04374 0.0
C7 C 0.02831 0.30761 0.96954 0.0
N8 N 0.11345 0.3414 0.99115 0.0
C9 C 0.08182 0.34488 0.97069 0.0
C10 C 1.00744 0.26539 0.98868 0.0
Tb11 Tb 0.20108 0.40194 0.99586 0.0
N12 N 0.18066 0.32947 0.02357 0.0
C13 C 0.21736 0.3222 0.0376 0.0
C14 C 0.14897 0.24099 0.05799 0.0
C15 C 0.20206 0.27816 0.0551 0.0
H16 H 0.09786 0.37749 0.95579 0.0
H17 H 0.23123 0.27317 0.06657 0.0
H18 H 0.04379 0.17558 0.05725 0.0
H19 H 1.00325 0.3114 0.95385 0.0
H20 H 0.25847 0.35077 0.03606 0.0
H21 H 0.28462 0.67334 0.97948 0.0
H22 H 0.13722 0.20701 0.07162 0.0
H23 H 0.33996 0.51479 0.09771 0.0
H24 H 0.23531 0.59017 1.00587 0.0
H25 H 0.43205 0.57164 0.113 0.0
H26 H 0.98143 0.18627 0.0267 0.0
H27 H 0.38143 0.72296 0.98139 0.0
H28 H 0.46402 0.73471 1.0042 0.0
H29 H 0.96604 0.23638 0.98766 0.0
H30 H 0.50466 0.70756 0.04164 0.0
N31 N 0.30344 0.59018 0.02136 0.0
C32 C 0.27752 0.61096 1.00692 0.0
C33 C 0.36001 0.68598 0.99278 0.0
C34 C 0.38614 0.66744 1.01004 0.0
C35 C 0.30537 0.65831 0.99185 0.0
C36 C 0.35635 0.61889 0.02427 0.0
H37 H 0.49215 0.64867 0.08369 0.0
N38 N 0.34789 0.55918 0.06003 0.0
C39 C 0.418 0.58045 0.09348 0.0
C40 C 0.3794 0.60339 0.04489 0.0
C41 C 0.36586 0.54849 0.08484 0.0
C42 C 0.45183 0.62382 0.07683 0.0
C43 C 0.43253 0.63621 0.05239 0.0
O44 O 0.2523 0.51562 0.09068 0.0
O45 O 0.20398 0.43027 0.03904 0.0
O46 O 0.14183 0.4253 1.00353 0.0
O47 O 0.18865 0.50508 0.02909 0.0
O48 O 0.24476 0.44839 0.07643 0.0
O49 O 0.23716 0.56324 0.06172 0.0
O50 O 0.20151 0.40031 0.95079 0.0
O51 O 0.25537 0.4844 1.00247 0.0
O52 O 0.32374 0.49543 0.03658 0.0
O53 O 0.28422 0.42418 1.00457 0.0
O54 O 0.20604 0.46239 0.96725 0.0
O55 O 0.22769 0.3556 0.97463 0.0
C56 C 0.20656 0.41057 0.06259 0.0
C57 C 0.28223 0.60269 0.10501 0.0
C58 C 0.32087 0.64429 0.15124 0.0
C59 C 0.27992 0.60306 0.1351 0.0
C60 C 0.36566 0.68211 0.13635 0.0
C61 C 0.32373 0.64553 0.09108 0.0
C62 C 0.36612 0.68371 0.10659 0.0
C63 C 0.14653 0.46893 0.01506 0.0
C64 C 0.24504 0.55557 0.08835 0.0
C65 C 0.46348 0.68226 0.03656 0.0
C66 C 0.44033 0.69771 0.01524 0.0
C67 C 0.24455 0.50176 0.98022 0.0
C68 C 0.20016 0.32939 0.92544 0.0
C69 C 0.23449 0.31949 0.90882 0.0
C70 C 0.21599 0.28738 0.88386 0.0
C71 C 0.16308 0.26509 0.87606 0.0
C72 C 0.14735 0.30557 0.91705 0.0
C73 C 0.12909 0.27382 0.89263 0.0
C74 C 0.32489 0.45967 0.02008 0.0
C75 C 0.22065 0.36917 0.94912 0.0
H76 H 0.24586 0.57164 0.14546 0.0
H77 H 0.40025 0.7118 0.14743 0.0
H78 H 0.32431 0.6489 0.06815 0.0
H79 H 0.3995 0.71471 0.09548 0.0
H80 H 0.27538 0.33734 0.91496 0.0
H81 H 0.14775 0.2399 0.85734 0.0
H82 H 0.12024 0.3124 0.92898 0.0
H83 H 0.0883 0.25606 0.88639 0.0
Tb84 Tb 0.78672 0.25121 0.38474 0.0
C85 C 0.85467 0.1123 0.35349 0.0
C86 C 0.93508 0.15325 0.38124 0.0
C87 C 0.88277 0.0579 0.37853 0.0
C88 C 0.89814 0.15723 0.3636 0.0
C89 C 0.84714 0.06208 0.36024 0.0
C90 C 0.92664 0.10343 0.38905 0.0
C91 C 0.77212 0.02384 0.3286 0.0
N92 N 0.82064 0.11778 0.33623 0.0
C93 C 0.78122 0.07435 0.32255 0.0
C94 C 0.80463 0.01755 0.34797 0.0
Tb95 Tb 0.83556 0.20219 0.33016 0.0
N96 N 0.90454 0.20479 0.35592 0.0
C97 C 0.94977 0.24992 0.36373 0.0
C98 C 0.97971 0.19939 0.39028 0.0
C99 C 0.98739 0.24784 0.38113 0.0
H100 H 0.75651 0.07826 0.30672 0.0
H101 H 0.02251 0.28384 0.38743 0.0
H102 H 0.95431 0.09971 0.4028 0.0
H103 H 0.7402 0.98981 0.31813 0.0
H104 H 0.95848 0.2883 0.3569 0.0
H105 H 0.61928 0.24342 0.33064 0.0
H106 H 1.00894 0.19801 0.40381 0.0
H107 H 0.87651 0.34136 0.42764 0.0
H108 H 0.67147 0.20676 0.34891 0.0
H109 H 0.89893 0.42864 0.44664 0.0
H110 H 0.87727 0.01968 0.38424 0.0
H111 H 0.64793 0.3372 0.33867 0.0
H112 H 0.71094 0.42307 0.36212 0.0
H113 H 0.79756 0.97836 0.35261 0.0
H114 H 0.78674 0.47356 0.39409 0.0
N115 N 0.73238 0.27945 0.36657 0.0
C116 C 0.68554 0.24775 0.35286 0.0
C117 C 0.67172 0.32143 0.3467 0.0
C118 C 0.71752 0.35287 0.36246 0.0
C119 C 0.65532 0.26847 0.34225 0.0
C120 C 0.74737 0.33054 0.37222 0.0
H121 H 0.85545 0.47512 0.42672 0.0
N122 N 0.81803 0.33652 0.39892 0.0
C123 C 0.86929 0.41028 0.43006 0.0
C124 C 0.79099 0.35966 0.38941 0.0
C125 C 0.85597 0.36057 0.41962 0.0
C126 C 0.84452 0.43622 0.41885 0.0
C127 C 0.80464 0.41086 0.39838 0.0
O128 O 0.7907 0.23708 0.42833 0.0
O129 O 0.81051 0.19449 0.37431 0.0
O130 O 0.74997 0.14408 0.33217 0.0
O131 O 0.72096 0.17462 0.3704 0.0
O132 O 0.84664 0.243 0.40814 0.0
O133 O 0.71938 0.22738 0.41022 0.0
O134 O 0.84252 0.1685 0.29148 0.0
O135 O 0.80208 0.25028 0.3397 0.0
O136 O 0.85832 0.32124 0.37029 0.0
O137 O 0.8905 0.2892 0.33483 0.0
O138 O 0.77685 0.20535 0.30304 0.0
O139 O 0.88868 0.25127 0.29887 0.0
C140 C 0.8383 0.19985 0.39619 0.0
C141 C 0.74155 0.25856 0.45827 0.0
C142 C 0.68997 0.27121 0.49392 0.0
C143 C 0.69277 0.24508 0.46956 0.0
C144 C 0.73569 0.31323 0.50588 0.0
C145 C 0.78733 0.29713 0.47238 0.0
C146 C 0.78433 0.32585 0.49519 0.0
C147 C 0.71281 0.14 0.34985 0.0
C148 C 0.74438 0.22885 0.43369 0.0
C149 C 0.7764 0.434 0.38776 0.0
C150 C 0.73318 0.4052 0.36961 0.0
C151 C 0.77301 0.24038 0.31784 0.0
C152 C 0.92676 0.21467 0.26984 0.0
C153 C 0.94232 0.2305 0.24122 0.0
C154 C 0.99135 0.23937 0.23086 0.0
C155 C 0.02355 0.23146 0.25045 0.0
C156 C 0.95908 0.20526 0.28792 0.0
C157 C 1.00708 0.21372 0.27828 0.0
C158 C 0.89393 0.32817 0.35116 0.0
C159 C 0.8795 0.21307 0.28151 0.0
H160 H 0.65734 0.21249 0.46047 0.0
H161 H 0.73399 0.33336 0.52493 0.0
H162 H 0.82555 0.30429 0.46653 0.0
H163 H 0.81976 0.35606 0.50549 0.0
H164 H 0.91598 0.23618 0.22751 0.0
H165 H 0.06236 0.23979 0.24499 0.0
H166 H 0.94788 0.1926 0.30973 0.0
H167 H 0.03237 0.20762 0.29273 0.0
Tb168 Tb 0.50947 0.74226 0.70466 0.0
C169 C 0.73517 0.82427 0.68583 0.0
C170 C 0.77094 0.89035 0.72317 0.0
C171 C 0.81522 0.8425 0.71065 0.0
C172 C 0.73201 0.86112 0.70243 0.0
C173 C 0.7777 0.81563 0.68903 0.0
C174 C 0.81181 0.87982 0.72775 0.0
C175 C 0.74599 0.75934 0.64727 0.0
N176 N 0.69836 0.79951 0.66518 0.0
C177 C 0.70469 0.76949 0.64495 0.0
C178 C 0.78216 0.78174 0.66974 0.0
Tb179 Tb 0.62957 0.81483 0.66468 0.0
N180 N 0.69195 0.87001 0.69726 0.0
C181 C 0.69035 0.9102 0.71107 0.0
C182 C 0.76829 0.93008 0.73815 0.0
C183 C 0.72825 0.94055 0.73174 0.0
H184 H 0.67642 0.75153 0.62771 0.0
H185 H 0.72619 0.97167 0.74294 0.0
H186 H 0.84171 0.90131 0.74386 0.0
H187 H 0.7498 0.73415 0.63177 0.0
H188 H 0.65943 0.91857 0.70689 0.0
H189 H 0.3615 0.60125 0.63189 0.0
H190 H 0.79742 0.95347 0.75427 0.0
H191 H 0.50003 0.81327 0.7576 0.0
H192 H 0.4474 0.64761 0.65521 0.0
H193 H 0.43387 0.83093 0.77706 0.0
H194 H 0.84778 0.83586 0.71377 0.0
H195 H 0.2933 0.62258 0.64455 0.0
H196 H 0.26509 0.67305 0.67566 0.0
H197 H 0.81423 0.774 0.67145 0.0
H198 H 0.28471 0.73553 0.7153 0.0
N199 N 0.43108 0.69868 0.6799 0.0
C200 C 0.41904 0.65863 0.66087 0.0
C201 C 0.33156 0.64385 0.6547 0.0
C202 C 0.34251 0.68202 0.67564 0.0
C203 C 0.36988 0.6317 0.64754 0.0
C204 C 0.39314 0.70891 0.68804 0.0
H205 H 0.34695 0.79328 0.75371 0.0
N206 N 0.45222 0.7662 0.72264 0.0
C207 C 0.42501 0.80657 0.75812 0.0
C208 C 0.40397 0.74366 0.7103 0.0
C209 C 0.46265 0.79637 0.74684 0.0
C210 C 0.37605 0.78534 0.74487 0.0
C211 C 0.3648 0.75307 0.72081 0.0
O212 O 0.50261 0.71752 0.74745 0.0
O213 O 0.59443 0.77933 0.70521 0.0
O214 O 0.61547 0.73357 0.67264 0.0
O215 O 0.52597 0.68752 0.68234 0.0
O216 O 0.56063 0.79197 0.73933 0.0
O217 O 0.47299 0.66118 0.71278 0.0
O218 O 0.65358 0.82693 0.62139 0.0
O219 O 0.54606 0.77453 0.66399 0.0
O220 O 0.50881 0.81313 0.69281 0.0
O221 O 0.5931 0.86482 0.67363 0.0
O222 O 0.58245 0.7642 0.62922 0.0
O223 O 0.66143 0.89102 0.64705 0.0
C224 C 0.60464 0.80056 0.72971 0.0
C225 C 0.42319 0.63919 0.75506 0.0
C226 C 0.37475 0.62065 0.79953 0.0
C227 C 0.42205 0.64618 0.78461 0.0
C228 C 0.32798 0.58794 0.78435 0.0
C229 C 0.37622 0.60641 0.74015 0.0
C230 C 0.32886 0.5811 0.75481 0.0
C231 C 0.56999 0.68874 0.67618 0.0
C232 C 0.4736 0.66812 0.74032 0.0
C233 C 0.31515 0.72844 0.70768 0.0
C234 C 0.30398 0.69288 0.68514 0.0
C235 C 0.53789 0.75318 0.63961 0.0
C236 C 0.71904 0.91335 0.60733 0.0
C237 C 0.71916 0.93635 0.58049 0.0
C238 C 0.76694 0.97224 0.56683 0.0
C239 C 0.81414 0.98378 0.58061 0.0
C240 C 0.76689 0.92605 0.62028 0.0
C241 C 0.81399 0.96093 0.60695 0.0
C242 C 0.54729 0.85815 0.68293 0.0
C243 C 0.66898 0.87697 0.62185 0.0
H244 H 0.45824 0.67217 0.79595 0.0
H245 H 0.29088 0.56674 0.79533 0.0
H246 H 0.37588 0.60043 0.71724 0.0
H247 H 0.29279 0.55582 0.74329 0.0
H248 H 0.68218 0.92691 0.57056 0.0
H249 H 0.85152 0.00998 0.5708 0.0
H250 H 0.76781 0.90907 0.64074 0.0
H251 H 0.85075 0.9703 0.6171 0.0
Tb252 Tb 0.7694 0.52641 0.04546 0.0
C253 C 0.92504 0.74906 0.02431 0.0
C254 C 0.89989 0.78943 0.06128 0.0
C255 C 0.99128 0.82924 0.04792 0.0
C256 C 0.88656 0.74887 0.04101 0.0
C257 C 0.97759 0.79023 0.02692 0.0
C258 C 0.95253 0.82869 0.06517 0.0
C259 C 0.998 0.75565 0.98525 0.0
N260 N 0.91032 0.71144 1.00385 0.0
C261 C 0.94539 0.71614 0.98328 0.0
C262 C 0.01441 0.7923 1.00753 0.0
Tb263 Tb 0.82365 0.64616 1.00375 0.0
N264 N 0.83587 0.71082 0.03624 0.0
C265 C 0.79646 0.71397 0.04975 0.0
C266 C 0.85983 0.79045 0.07637 0.0
C267 C 0.8079 0.7531 0.07021 0.0
H268 H 0.93276 0.68833 0.96567 0.0
H269 H 0.7765 0.7543 0.08128 0.0
H270 H 0.96347 0.85974 0.08085 0.0
H271 H 0.02573 0.75802 0.96947 0.0
H272 H 0.75581 0.68607 0.04584 0.0
H273 H 0.79453 0.39715 0.97277 0.0
H274 H 0.86848 0.82079 0.09217 0.0
H275 H 0.67134 0.49899 0.08901 0.0
H276 H 0.82416 0.47448 1.00366 0.0
H277 H 0.57907 0.42872 0.09478 0.0
H278 H 0.03152 0.86075 0.0505 0.0
H279 H 0.70015 0.33166 0.96823 0.0
H280 H 0.60812 0.29956 0.98456 0.0
H281 H 0.05512 0.82324 1.00886 0.0
H282 H 0.54872 0.30855 0.01769 0.0
N283 N 0.74714 0.45505 0.01626 0.0
C284 C 0.7828 0.44671 1.00217 0.0
C285 C 0.71286 0.36584 0.98188 0.0
C286 C 0.67681 0.37256 0.99782 0.0
C287 C 0.76616 0.4026 0.98448 0.0
C288 C 0.6954 0.41803 0.01506 0.0
H289 H 0.53785 0.35583 0.05962 0.0
N290 N 0.68238 0.4657 0.05108 0.0
C291 C 0.60143 0.4276 0.07686 0.0
C292 C 0.66178 0.42345 0.03321 0.0
C293 C 0.6538 0.46698 0.07371 0.0
C294 C 0.57842 0.38635 0.05705 0.0
C295 C 0.60896 0.38319 0.03525 0.0
O296 O 0.7689 0.51652 0.09024 0.0
O297 O 0.82152 0.61177 0.04567 0.0
O298 O 0.88458 0.62321 1.00487 0.0
O299 O 0.84959 0.54824 0.03418 0.0
O300 O 0.7671 0.57888 0.07749 0.0
O301 O 0.79784 0.47898 0.06242 0.0
O302 O 0.76867 0.64244 0.97282 0.0
O303 O 0.77811 0.56207 1.00385 0.0
O304 O 0.70279 0.5327 0.03081 0.0
O305 O 0.74104 0.6201 0.01501 0.0
O306 O 0.82905 0.59711 0.97051 0.0
O307 O 0.84664 0.70659 0.97282 0.0
C308 C 0.80735 0.62196 0.06918 0.0
C309 C 0.74969 0.43172 0.10335 0.0
C310 C 0.71302 0.3834 0.14817 0.0
C311 C 0.75116 0.42872 0.13343 0.0
C312 C 0.67177 0.34323 0.13179 0.0
C313 C 0.71215 0.38793 0.08788 0.0
C314 C 0.67244 0.34483 0.10199 0.0
C315 C 0.88742 0.58479 0.01833 0.0
C316 C 0.78384 0.48194 0.08847 0.0
C317 C 0.5894 0.33955 0.01676 0.0
C318 C 0.62327 0.33435 0.99797 0.0
C319 C 0.79261 0.55267 0.98037 0.0
C320 C 0.80286 0.68275 0.92745 0.0
C321 C 0.77648 0.70208 0.91001 0.0
C322 C 0.77908 0.70165 0.87946 0.0
C323 C 0.80822 0.68089 0.86715 0.0
C324 C 0.83177 0.66311 0.91401 0.0
C325 C 0.83392 0.66175 0.88422 0.0
C326 C 0.6998 0.57392 0.02228 0.0
C327 C 0.80191 0.6849 0.95949 0.0
H328 H 0.78247 0.46163 0.14486 0.0
H329 H 0.63896 0.30964 0.14163 0.0
H330 H 0.71266 0.38736 0.06487 0.0
H331 H 0.64189 0.3125 0.08976 0.0
H332 H 0.75424 0.71747 0.92028 0.0
H333 H 0.81277 0.68078 0.84417 0.0
H334 H 0.85367 0.64961 0.92643 0.0
H335 H 0.85659 0.6466 0.87423 0.0
Tb336 Tb 0.25448 0.78701 0.38557 0.0
C337 C 0.19926 0.93661 0.34261 0.0
C338 C 0.12264 0.90858 0.37196 0.0
C339 C 0.17827 1.00133 0.36058 0.0
C340 C 0.15595 0.89703 0.35602 0.0
C341 C 0.20999 0.98907 0.34384 0.0
C342 C 0.13475 0.96113 0.37474 0.0
C343 C 0.27875 0.01204 0.30946 0.0
N344 N 0.22894 0.92309 0.32684 0.0
C345 C 0.26641 0.95942 0.30899 0.0
C346 C 0.25109 0.02718 0.32742 0.0
Tb347 Tb 0.20794 0.83643 0.32926 0.0
N348 N 0.1456 0.84689 0.35266 0.0
C349 C 0.10055 0.80582 0.36349 0.0
C350 C 0.07781 0.86689 0.3842 0.0
C351 C 0.06641 0.81523 0.37963 0.0
H352 H 0.28769 0.94797 0.29478 0.0
H353 H 0.03142 0.78261 0.38865 0.0
H354 H 0.10998 0.9709 0.38715 0.0
H355 H 0.30943 0.0408 0.29591 0.0
H356 H 0.09121 0.76571 0.36048 0.0
H357 H 0.40399 0.76353 0.33148 0.0
H358 H 0.05134 0.87407 0.39673 0.0
H359 H 0.17526 0.71453 0.43795 0.0
H360 H 0.3664 0.81401 0.35073 0.0
H361 H 0.14092 0.62495 0.4573 0.0
H362 H 0.18628 0.04151 0.36214 0.0
H363 H 0.35965 0.66726 0.33859 0.0
H364 H 0.28924 0.5871 0.36306 0.0
H365 H 0.26054 0.06791 0.32769 0.0
H366 H 0.21816 0.54934 0.39826 0.0
N367 N 0.2976 0.74679 0.36729 0.0
C368 C 0.34542 0.77212 0.35411 0.0
C369 C 0.34216 0.68915 0.34695 0.0
C370 C 0.29653 0.66428 0.36326 0.0
C371 C 0.36743 0.74351 0.34304 0.0
C372 C 0.2751 0.69452 0.3735 0.0
H373 H 0.16554 0.5644 0.43493 0.0
N374 N 0.21725 0.70403 0.40417 0.0
C375 C 0.16651 0.63765 0.43893 0.0
C376 C 0.23417 0.67266 0.39291 0.0
C377 C 0.18596 0.68831 0.42789 0.0
C378 C 0.18037 0.60352 0.42617 0.0
C379 C 0.21494 0.62096 0.40307 0.0
O380 O 0.28857 0.84424 0.41844 0.0
O381 O 0.22772 0.84094 0.37456 0.0
O382 O 0.29115 0.89769 0.33725 0.0
O383 O 0.32297 0.85526 0.36691 0.0
O384 O 0.19495 0.79433 0.40944 0.0
O385 O 0.30291 0.78024 0.41675 0.0
O386 O 0.21258 0.84704 0.28458 0.0
O387 O 0.23839 0.78567 0.34008 0.0
O388 O 0.17557 0.72121 0.37635 0.0
O389 O 0.15306 0.74992 0.33478 0.0
O390 O 0.26585 0.83086 0.30363 0.0
O391 O 0.13784 0.79971 0.30434 0.0
C392 C 0.19914 0.83479 0.39607 0.0
C393 C 0.28723 0.80305 0.46222 0.0
C394 C 0.29121 0.76366 0.50736 0.0
C395 C 0.31036 0.7815 0.47971 0.0
C396 C 0.248 0.7663 0.51729 0.0
C397 C 0.24458 0.80649 0.47278 0.0
C398 C 0.22455 0.78719 0.49991 0.0
C399 C 0.32985 0.8956 0.35097 0.0
C400 C 0.30531 0.81763 0.43247 0.0
C401 C 0.2333 0.58955 0.39115 0.0
C402 C 0.2738 0.61108 0.37111 0.0
C403 C 0.26792 0.79516 0.31872 0.0
C404 C 0.1385 0.8371 0.25829 0.0
C405 C 0.0959 0.80062 0.24088 0.0
C406 C 0.07727 0.81839 0.21784 0.0
C407 C 0.10135 0.87267 0.21264 0.0
C408 C 0.16107 0.89116 0.25261 0.0
C409 C 0.14265 0.90866 0.22997 0.0
C410 C 0.14452 0.71279 0.35401 0.0
C411 C 0.16226 0.81841 0.28027 0.0
H412 H 0.34361 0.77919 0.47192 0.0
H413 H 0.23248 0.75223 0.53849 0.0
H414 H 0.22597 0.82308 0.46004 0.0
H415 H 0.19063 0.78812 0.50751 0.0
H416 H 0.0778 0.75875 0.24502 0.0
H417 H 0.08748 0.88732 0.19537 0.0
H418 H 0.19363 0.92001 0.26532 0.0
H419 H 0.16065 0.95045 0.22576 0.0
Tb420 Tb 0.49211 0.22726 0.71565 0.0
C421 C 0.27663 0.19592 0.69406 0.0
C422 C 0.22828 0.12493 0.7274 0.0
C423 C 0.1972 0.18509 0.71562 0.0
C424 C 0.27103 0.15301 0.70885 0.0
C425 C 0.23935 0.2121 0.69678 0.0
C426 C 0.19182 0.14169 0.73103 0.0
C427 C 0.28603 0.27774 0.66055 0.0
N428 N 0.31747 0.2204 0.67595 0.0
C429 C 0.3215 0.25966 0.65839 0.0
C430 C 0.245 0.25417 0.68006 0.0
Tb431 Tb 0.37467 0.1893 0.67394 0.0
N432 N 0.30685 0.13797 0.70446 0.0
C433 C 0.30064 0.09321 0.71724 0.0
C434 C 0.22298 0.08035 0.74129 0.0
C435 C 0.2591 0.06418 0.73597 0.0
H436 H 0.35282 0.27778 0.64297 0.0
H437 H 0.25515 0.02945 0.74641 0.0
H438 H 0.1589 0.12085 0.74531 0.0
H439 H 0.29023 0.30961 0.64705 0.0
H440 H 0.32823 0.08015 0.71396 0.0
H441 H 0.64303 0.33457 0.63703 0.0
H442 H 0.19083 0.05777 0.75579 0.0
H443 H 0.49024 0.15121 0.76847 0.0
H444 H 0.5689 0.31701 0.66769 0.0
H445 H 0.53892 0.1073 0.78315 0.0
H446 H 0.16835 0.19713 0.71821 0.0
H447 H 0.68187 0.27732 0.63981 0.0
H448 H 0.68768 0.20545 0.66583 0.0
H449 H 0.21733 0.26795 0.68158 0.0
H450 H 0.66091 0.14491 0.70693 0.0
N451 N 0.56233 0.24782 0.68645 0.0
C452 C 0.58484 0.29127 0.66913 0.0
C453 C 0.64862 0.26885 0.65307 0.0
C454 C 0.62928 0.228 0.6731 0.0
C455 C 0.62705 0.30143 0.65158 0.0
C456 C 0.58561 0.21843 0.68967 0.0
H457 H 0.60853 0.11189 0.75217 0.0
N458 N 0.53064 0.17931 0.72895 0.0
C459 C 0.54759 0.12811 0.76295 0.0
C460 C 0.57008 0.18374 0.71227 0.0
C461 C 0.51994 0.15294 0.75449 0.0
C462 C 0.5867 0.13059 0.74535 0.0
C463 C 0.59831 0.15849 0.71959 0.0
O464 O 0.50671 0.24944 0.7592 0.0
O465 O 0.41259 0.21403 0.71559 0.0
O466 O 0.41171 0.27643 0.68231 0.0
O467 O 0.49488 0.29776 0.69921 0.0
O468 O 0.43513 0.18545 0.74923 0.0
O469 O 0.55526 0.30214 0.7262 0.0
O470 O 0.35176 0.18953 0.63079 0.0
O471 O 0.45458 0.20866 0.67384 0.0
O472 O 0.46483 0.14567 0.70574 0.0
O473 O 0.39047 0.122 0.67729 0.0
O474 O 0.43013 0.24142 0.64257 0.0
O475 O 0.33614 0.11758 0.65089 0.0
C476 C 0.39749 0.191 0.73949 0.0
C477 C 0.59649 0.30119 0.76951 0.0
C478 C 0.64585 0.32234 0.81442 0.0
C479 C 0.60323 0.31743 0.79817 0.0
C480 C 0.68045 0.30872 0.80166 0.0
C481 C 0.63352 0.29131 0.75676 0.0
C482 C 0.67456 0.29393 0.77292 0.0
C483 C 0.46117 0.3115 0.68984 0.0
C484 C 0.54979 0.29298 0.75359 0.0
C485 C 0.6393 0.16472 0.70194 0.0
C486 C 0.6545 0.19914 0.67854 0.0
C487 C 0.46853 0.23575 0.65111 0.0
C488 C 0.28561 0.10934 0.60894 0.0
C489 C 0.28832 0.08758 0.58222 0.0
C490 C 0.24279 0.05762 0.56495 0.0
C491 C 0.19497 0.05071 0.57509 0.0
C492 C 0.23724 0.10133 0.61817 0.0
C493 C 0.19236 0.0723 0.60131 0.0
C494 C 0.42484 0.11146 0.69013 0.0
C495 C 0.33331 0.13932 0.62711 0.0
H496 H 0.57591 0.32751 0.80739 0.0
H497 H 0.71267 0.31033 0.81371 0.0
H498 H 0.63098 0.28169 0.73436 0.0
H499 H 0.70217 0.28496 0.76305 0.0
H500 H 0.32569 0.09333 0.5752 0.0
H501 H 0.15935 0.02917 0.56253 0.0
H502 H 0.2342 0.11747 0.63845 0.0
H503 H 0.15516 0.06653 0.6086 0.0
H504 H 0.34597 0.82157 0.28262 0.0
H505 H 0.21234 0.68608 0.31988 0.0
H506 H 0.22245 0.62763 0.28545 0.0
H507 H 0.30902 0.7872 0.21517 0.0
H508 H 0.3736 0.81294 0.20048 0.0
H509 H 0.36529 0.84039 0.23286 0.0
H510 H 0.43139 0.82101 0.25917 0.0
H511 H 0.44009 0.79337 0.22664 0.0
H512 H 0.4209 0.75504 0.25913 0.0
H513 H 0.23946 0.58696 0.24111 0.0
H514 H 0.25705 0.56933 0.19212 0.0
H515 H 0.37138 0.73612 0.18276 0.0
C516 C 0.32026 0.7793 0.28423 0.0
C517 C 0.27923 0.75797 0.30404 0.0
C518 C 0.2449 0.70283 0.30518 0.0
C519 C 0.25045 0.66948 0.28571 0.0
C520 C 0.29032 0.69223 0.26539 0.0
C521 C 0.32478 0.74608 0.26479 0.0
C522 C 0.35822 0.76271 0.23835 0.0
C523 C 0.35102 0.8031 0.22069 0.0
C524 C 0.41609 0.78429 0.2463 0.0
C525 C 0.33541 0.71039 0.22318 0.0
C526 C 0.29767 0.66976 0.23932 0.0
C527 C 0.26932 0.61859 0.22845 0.0
C528 C 0.27916 0.60917 0.20023 0.0
C529 C 0.31576 0.65115 0.18272 0.0
C530 C 0.34453 0.70206 0.19503 0.0
H531 H 0.51245 0.30133 0.60666 0.0
H532 H 0.49743 0.16122 0.64627 0.0
H533 H 0.53823 0.1461 0.60412 0.0
H534 H 0.49399 0.26029 0.53272 0.0
H535 H 0.54497 0.32319 0.51984 0.0
H536 H 0.50934 0.31983 0.55169 0.0
H537 H 0.59618 0.36928 0.58105 0.0
H538 H 0.63175 0.3745 0.54896 0.0
H539 H 0.64119 0.34487 0.58059 0.0
H540 H 0.57976 0.14668 0.558 0.0
H541 H 0.64072 0.17445 0.51728 0.0
H542 H 0.63611 0.31904 0.51011 0.0
C543 C 0.51771 0.26742 0.60627 0.0
C544 C 0.50043 0.23114 0.62895 0.0
C545 C 0.50888 0.18801 0.62844 0.0
C546 C 0.53187 0.17926 0.60464 0.0
C547 C 0.54671 0.21474 0.58199 0.0
C548 C 0.54169 0.25896 0.58307 0.0
C549 C 0.56702 0.2947 0.55778 0.0
C550 C 0.52638 0.29977 0.53942 0.0
C551 C 0.61169 0.34902 0.56769 0.0
C552 C 0.58752 0.26383 0.54234 0.0
C553 C 0.57391 0.21702 0.5562 0.0
C554 C 0.59047 0.18297 0.5468 0.0
C555 C 0.6245 0.19874 0.52356 0.0
C556 C 0.64207 0.24841 0.5107 0.0
C557 C 0.62199 0.28042 0.51941 0.0
H558 H 0.22327 0.55469 0.94108 0.0
H559 H 0.35048 0.54156 0.97845 0.0
H560 H 0.40848 0.59538 0.93938 0.0
H561 H 0.23573 0.52976 0.87668 0.0
H562 H 0.22251 0.57553 0.8579 0.0
H563 H 0.1974 0.5545 0.8932 0.0
H564 H 0.24358 0.65112 0.91097 0.0
H565 H 0.26823 0.67308 0.87531 0.0
H566 H 0.31285 0.69355 0.90544 0.0
H567 H 0.44047 0.62168 0.89069 0.0
H568 H 0.44686 0.62472 0.83827 0.0
H569 H 0.30168 0.62726 0.83195 0.0
C570 C 0.26419 0.56569 0.94159 0.0
C571 C 0.28294 0.54481 0.96255 0.0
C572 C 0.33592 0.55804 0.96264 0.0
C573 C 0.36913 0.58888 0.94063 0.0
C574 C 0.34864 0.60653 0.91912 0.0
C575 C 0.29765 0.59668 0.91988 0.0
C576 C 0.28203 0.61151 0.89203 0.0
C577 C 0.23151 0.56504 0.87922 0.0
C578 C 0.27637 0.66023 0.89618 0.0
C579 C 0.32949 0.62459 0.87425 0.0
C580 C 0.36828 0.62345 0.89052 0.0
C581 C 0.41162 0.62512 0.87793 0.0
C582 C 0.4148 0.62668 0.84804 0.0
C583 C 0.37477 0.62647 0.83102 0.0
C584 C 0.3328 0.62748 0.84444 0.0
H585 H 0.69527 0.20864 0.28022 0.0
H586 H 0.81878 0.34912 0.32094 0.0
H587 H 0.80447 0.40429 0.28587 0.0
H588 H 0.73635 0.24683 0.2142 0.0
H589 H 0.67287 0.21653 0.19702 0.0
H590 H 0.68111 0.19027 0.23003 0.0
H591 H 0.60774 0.20108 0.25334 0.0
H592 H 0.59882 0.22716 0.22012 0.0
H593 H 0.61198 0.26444 0.25284 0.0
H594 H 0.78569 0.44236 0.24057 0.0
H595 H 0.76908 0.4589 0.19102 0.0
H596 H 0.6685 0.2898 0.17848 0.0
C597 C 0.71767 0.25113 0.28248 0.0
C598 C 0.75726 0.27481 0.30343 0.0
C599 C 0.78726 0.33037 0.30541 0.0
C600 C 0.77938 0.36189 0.28551 0.0
C601 C 0.74165 0.33696 0.26388 0.0
C602 C 0.71111 0.2826 0.26254 0.0
C603 C 0.68026 0.26426 0.23489 0.0
C604 C 0.69351 0.22738 0.21806 0.0
C605 C 0.62119 0.23768 0.24065 0.0
C606 C 0.70019 0.31646 0.22 0.0
C607 C 0.73399 0.35819 0.23723 0.0
C608 C 0.75898 0.40978 0.22703 0.0
C609 C 0.74981 0.41863 0.19843 0.0
C610 C 0.71743 0.37587 0.17982 0.0
C611 C 0.69205 0.32433 0.19143 0.0
H612 H 0.47347 0.79454 0.63873 0.0
H613 H 0.50371 0.68095 0.59721 0.0
H614 H 0.43389 0.66195 0.56159 0.0
H615 H 0.32764 0.72825 0.62391 0.0
H616 H 0.33427 0.7918 0.61822 0.0
H617 H 0.37769 0.7852 0.64299 0.0
H618 H 0.45482 0.85877 0.61387 0.0
H619 H 0.41057 0.86143 0.58831 0.0
H620 H 0.46092 0.84855 0.57637 0.0
H621 H 0.37026 0.66425 0.52727 0.0
H622 H 0.31683 0.68814 0.49641 0.0
H623 H 0.32872 0.80028 0.56049 0.0
C624 C 0.46399 0.76433 0.6228 0.0
C625 C 0.49252 0.73797 0.62098 0.0
C626 C 0.48122 0.70065 0.59901 0.0
C627 C 0.44159 0.68945 0.57889 0.0
C628 C 0.41427 0.71641 0.58104 0.0
C629 C 0.42483 0.75301 0.60248 0.0
C630 C 0.39494 0.78164 0.59779 0.0
C631 C 0.35639 0.77105 0.62223 0.0
C632 C 0.43257 0.84111 0.5938 0.0
C633 C 0.36648 0.7559 0.57025 0.0
C634 C 0.37785 0.71817 0.56097 0.0
C635 C 0.36006 0.6928 0.5346 0.0
C636 C 0.3301 0.7067 0.51721 0.0
C637 C 0.31837 0.74533 0.52647 0.0
C638 C 0.33611 0.76955 0.55342 0.0
H639 H 0.82628 0.51919 0.93644 0.0
H640 H 0.68508 0.49454 0.97782 0.0
H641 H 0.6312 0.42524 0.94236 0.0
H642 H 0.77852 0.51017 0.86625 0.0
H643 H 0.81238 0.47874 0.85191 0.0
H644 H 0.83879 0.52144 0.88258 0.0
H645 H 0.83942 0.44603 0.91143 0.0
H646 H 0.81288 0.40307 0.88074 0.0
H647 H 0.77969 0.38348 0.91465 0.0
H648 H 0.59353 0.35933 0.90166 0.0
H649 H 0.5745 0.31097 0.85586 0.0
H650 H 0.74152 0.38708 0.83931 0.0
C651 C 0.78399 0.49845 0.93824 0.0
C652 C 0.75959 0.51005 0.96046 0.0
C653 C 0.70431 0.48429 0.96159 0.0
C654 C 0.6735 0.44508 0.94152 0.0
C655 C 0.6989 0.43335 0.92025 0.0
C656 C 0.7529 0.45994 0.91826 0.0
C657 C 0.77073 0.44393 0.89193 0.0
C658 C 0.80191 0.49137 0.87199 0.0
C659 C 0.80256 0.41756 0.90019 0.0
C660 C 0.71829 0.40466 0.87909 0.0
C661 C 0.67732 0.39817 0.89598 0.0
C662 C 0.62529 0.36431 0.88816 0.0
C663 C 0.61492 0.33735 0.86197 0.0
C664 C 0.65644 0.34535 0.84371 0.0
C665 C 0.70871 0.37896 0.85281 0.0
H666 H 0.40096 0.47663 0.05982 0.0
H667 H 0.36905 0.46347 0.96849 0.0
H668 H 0.46272 0.49562 0.95896 0.0
H669 H 0.52392 0.59033 0.06 0.0
H670 H 0.55552 0.56997 0.08599 0.0
H671 H 0.48596 0.54287 0.08742 0.0
H672 H 0.46505 0.44666 0.08267 0.0
H673 H 0.53463 0.47405 0.08571 0.0
H674 H 0.49907 0.43124 0.05595 0.0
H675 H 0.56265 0.53965 0.95977 0.0
H676 H 0.65657 0.57322 0.97059 0.0
H677 H 0.62166 0.54809 0.06113 0.0
C678 C 0.41356 0.47938 0.03785 0.0
C679 C 0.3777 0.46724 0.01486 0.0
C680 C 0.39566 0.47165 0.9864 0.0
C681 C 0.44893 0.49052 0.9808 0.0
C682 C 0.48361 0.50353 1.00393 0.0
C683 C 0.4663 0.49649 0.0319 0.0
C684 C 0.51115 0.51111 0.05287 0.0
C685 C 0.51957 0.55635 0.07271 0.0
C686 C 0.50192 0.46279 0.07027 0.0
C687 C 0.55663 0.52897 0.03246 0.0
C688 C 0.54016 0.52522 1.00431 0.0
C689 C 0.57573 0.54215 0.98174 0.0
C690 C 0.62909 0.56191 0.98808 0.0
C691 C 0.6463 0.56402 0.01668 0.0
C692 C 0.60953 0.54742 0.0391 0.0
H693 H 0.0899 0.63141 0.39211 0.0
H694 H 0.10841 0.66679 0.3013 0.0
H695 H 0.05001 0.57213 0.29025 0.0
H696 H 0.08775 0.51219 0.39051 0.0
H697 H 0.03485 0.47509 0.41509 0.0
H698 H 0.07406 0.54519 0.41891 0.0
H699 H 0.99927 0.56557 0.41277 0.0
H700 H 0.95994 0.49578 0.41669 0.0
H701 H 0.94865 0.5277 0.38667 0.0
H702 H 0.99284 0.47029 0.28948 0.0
H703 H 0.93294 0.37518 0.29913 0.0
H704 H 0.94816 0.40795 0.39024 0.0
C705 C 0.08144 0.61936 0.36989 0.0
C706 C 0.10384 0.65687 0.34762 0.0
C707 C 0.09127 0.63916 0.31882 0.0
C708 C 0.0585 0.58523 0.31231 0.0
C709 C 0.03767 0.54918 0.33481 0.0
C710 C 0.04795 0.56585 0.36302 0.0
C711 C 0.01849 0.51991 0.3833 0.0
C712 C 0.05618 0.51269 0.40305 0.0
C713 C 0.97912 0.52768 0.4008 0.0
C714 C 0.99112 0.47438 0.36228 0.0
C715 C 1.00298 0.49185 0.33434 0.0
C716 C 0.98313 0.45648 0.31132 0.0
C717 C 0.94954 0.40235 0.31699 0.0
C718 C 0.93547 0.3839 0.34544 0.0
C719 C 0.95727 0.42069 0.36825 0.0
H720 H 0.43001 0.04099 0.72661 0.0
H721 H 0.42758 0.07539 0.63653 0.0
H722 H 0.46383 0.01801 0.62464 0.0
H723 H 0.54096 0.02805 0.7311 0.0
H724 H 0.51153 0.9715 0.7541 0.0
H725 H 0.48728 0.01662 0.75426 0.0
H726 H 0.39289 0.93745 0.74135 0.0
H727 H 0.42125 0.89605 0.74303 0.0
H728 H 0.38626 0.89606 0.71121 0.0
H729 H 0.51787 0.97052 0.62469 0.0
H730 H 0.55587 0.91324 0.63388 0.0
H731 H 0.50712 0.89677 0.72234 0.0
C732 C 0.43523 0.03482 0.70429 0.0
C733 C 0.42669 0.06333 0.68252 0.0
C734 C 0.43413 0.0543 0.65359 0.0
C735 C 0.4552 0.02209 0.64666 0.0
C736 C 0.46593 0.99679 0.66882 0.0
C737 C 0.45341 1.00048 0.69687 0.0
C738 C 0.46449 0.96577 0.71637 0.0
C739 C 0.50335 0.99756 0.74042 0.0
C740 C 0.41311 0.92112 0.72865 0.0
C741 C 0.48881 0.94508 0.69539 0.0
C742 C 0.49022 0.96408 0.66811 0.0
C743 C 0.51565 0.95438 0.64584 0.0
C744 C 0.538 0.92261 0.65134 0.0
C745 C 0.53422 0.90036 0.67876 0.0
C746 C 0.50984 0.91248 0.70104 0.0
H747 H 0.47986 0.59279 0.67075 0.0
H748 H 0.64888 0.66423 0.67739 0.0
H749 H 0.63804 0.57494 0.67898 0.0
H750 H 0.44779 0.49051 0.71977 0.0
H751 H 0.39044 0.44205 0.70059 0.0
H752 H 0.41148 0.51096 0.69724 0.0
H753 H 0.41564 0.50444 0.64213 0.0
H754 H 0.39427 0.43535 0.64523 0.0
H755 H 0.45428 0.47897 0.62688 0.0
H756 H 0.60842 0.47957 0.68407 0.0
H757 H 0.56514 0.38492 0.69029 0.0
H758 H 0.41276 0.37211 0.67978 0.0
C759 C 0.51497 0.59015 0.67206 0.0
C760 C 0.56558 0.63609 0.6737 0.0
C761 C 0.60998 0.63004 0.67564 0.0
C762 C 0.60403 0.5794 0.67672 0.0
C763 C 0.55346 0.53528 0.67566 0.0
C764 C 0.5097 0.54013 0.67314 0.0
C765 C 0.45959 0.48648 0.6737 0.0
C766 C 0.42531 0.48227 0.69935 0.0
C767 C 0.42915 0.47568 0.64529 0.0
C768 C 0.4819 0.45022 0.67729 0.0
C769 C 0.53614 0.47963 0.67834 0.0
C770 C 0.56612 0.45624 0.68286 0.0
C771 C 0.54051 0.40169 0.68639 0.0
C772 C 0.48481 0.36969 0.68523 0.0
C773 C 0.45514 0.39472 0.68043 0.0
H774 H 0.09201 0.48991 0.05495 0.0
H775 H 0.10888 0.47882 0.96353 0.0
H776 H 0.04896 0.51338 0.95432 0.0
H777 H 0.95178 0.44622 0.05118 0.0
H778 H 0.95585 0.48858 0.08017 0.0
H779 H 1.00035 0.46366 0.07908 0.0
H780 H 0.07867 0.55933 0.08206 0.0
H781 H 0.03438 0.58458 0.08252 0.0
H782 H 0.08455 0.60683 0.05564 0.0
H783 H 0.99226 0.55612 0.95548 0.0
H784 H 0.92995 0.58665 0.96646 0.0
H785 H 0.94292 0.56131 0.05693 0.0
C786 C 0.08231 0.49407 0.03303 0.0
C787 C 0.10464 0.48152 1.00988 0.0
C788 C 0.09146 0.48755 0.98148 0.0
C789 C 0.05795 0.50767 0.9761 0.0
C790 C 0.03717 0.52061 0.99938 0.0
C791 C 0.0477 0.51263 0.0273 0.0
C792 C 0.01819 0.52706 0.04846 0.0
C793 C 0.97922 0.47849 0.06574 0.0
C794 C 0.05623 0.57213 0.06834 0.0
C795 C 0.98999 0.54509 0.02817 0.0
C796 C 1.00226 0.5421 0.99997 0.0
C797 C 0.9821 0.55817 0.97748 0.0
C798 C 0.94724 0.57606 0.9839 0.0
C799 C 0.93206 0.57674 0.01251 0.0
C800 C 0.95419 0.56149 0.03488 0.0
H801 H 0.41125 0.94285 0.38966 0.0
H802 H 0.37394 0.93934 0.29942 0.0
H803 H 0.46828 0.99755 0.28891 0.0
H804 H 0.51467 0.08243 0.3906 0.0
H805 H 0.55397 0.07187 0.41652 0.0
H806 H 0.48375 0.03017 0.41651 0.0
H807 H 0.49421 0.94813 0.41215 0.0
H808 H 0.56444 0.98964 0.41162 0.0
H809 H 0.53108 0.94361 0.38282 0.0
H810 H 0.5688 0.05081 0.2881 0.0
H811 H 0.66396 0.107 0.29777 0.0
H812 H 0.63514 0.08302 0.38898 0.0
C813 C 0.42297 0.95507 0.36774 0.0
C814 C 0.38518 0.93682 0.34534 0.0
C815 C 0.40203 0.95349 0.31695 0.0
C816 C 0.45566 0.98611 0.31077 0.0
C817 C 0.49207 1.00271 0.33329 0.0
C818 C 0.47621 0.98885 0.36132 0.0
C819 C 0.5229 0.01371 0.38176 0.0
C820 C 0.51856 0.05181 0.40257 0.0
C821 C 0.52847 0.97123 0.39804 0.0
C822 C 0.56764 0.04315 0.36089 0.0
C823 C 0.54917 0.03554 0.33297 0.0
C824 C 0.58345 0.05732 0.30992 0.0
C825 C 0.63759 0.08876 0.31559 0.0
C826 C 0.65712 0.09917 0.34409 0.0
C827 C 0.62144 0.07563 0.36695 0.0
H828 H 0.3611 0.26308 0.74285 0.0
H829 H 0.355 0.12845 0.78495 0.0
H830 H 0.31209 0.14138 0.82655 0.0
H831 H 0.38889 0.34247 0.80474 0.0
H832 H 0.34767 0.36939 0.7958 0.0
H833 H 0.37461 0.34839 0.76773 0.0
H834 H 0.28179 0.28558 0.74738 0.0
H835 H 0.25504 0.30805 0.7748 0.0
H836 H 0.23175 0.23872 0.77096 0.0
H837 H 0.2786 0.17335 0.86592 0.0
H838 H 0.24078 0.21301 0.89743 0.0
H839 H 0.26148 0.32427 0.83058 0.0
C840 C 0.34916 0.23544 0.76046 0.0
C841 C 0.36112 0.19426 0.76045 0.0
C842 C 0.34599 0.1599 0.7843 0.0
C843 C 0.32184 0.16713 0.80819 0.0
C844 C 0.31239 0.20896 0.80816 0.0
C845 C 0.32416 0.24182 0.78469 0.0
C846 C 0.3095 0.2838 0.79076 0.0
C847 C 0.35807 0.3393 0.78969 0.0
C848 C 0.26698 0.2787 0.7697 0.0
C849 C 0.2883 0.26949 0.82123 0.0
C850 C 0.29123 0.22661 0.83088 0.0
C851 C 0.27565 0.20667 0.8585 0.0
C852 C 0.25476 0.2298 0.87643 0.0
C853 C 0.24897 0.27221 0.86676 0.0
C854 C 0.26633 0.29248 0.83876 0.0
H855 H 0.07253 0.23852 0.20013 0.0
H856 H 0.95511 0.28583 0.19103 0.0
H857 H 0.98854 0.31961 0.14321 0.0
H858 H 0.17371 0.35772 0.17344 0.0
H859 H 0.20765 0.32839 0.15669 0.0
H860 H 0.16774 0.29782 0.18759 0.0
H861 H 0.11452 0.21063 0.15884 0.0
H862 H 0.15447 0.2416 0.12787 0.0
H863 H 0.08428 0.21127 0.12523 0.0
H864 H 0.03834 0.35323 0.09618 0.0
H865 H 0.10791 0.39715 0.06016 0.0
H866 H 0.20127 0.34307 0.10446 0.0
C867 C 0.05332 0.25617 0.1888 0.0
C868 C 1.01012 0.25842 0.20055 0.0
C869 C 0.98694 0.28137 0.18326 0.0
C870 C 1.00596 0.30124 0.15571 0.0
C871 C 0.04906 0.29917 0.14548 0.0
C872 C 0.07304 0.27811 0.16183 0.0
C873 C 0.12315 0.2871 0.14789 0.0
C874 C 0.17087 0.31971 0.16757 0.0
C875 C 0.11881 0.2345 0.13947 0.0
C876 C 0.12448 0.3179 0.12151 0.0
C877 C 0.08029 0.32258 0.11985 0.0
C878 C 0.07297 0.34962 0.09735 0.0
C879 C 0.11264 0.37419 0.07677 0.0
C880 C 0.1598 0.37295 0.07923 0.0
C881 C 0.16522 0.34374 0.10171 0.0
H882 H 0.83585 0.07429 0.54894 0.0
H883 H 0.70258 0.92755 0.5194 0.0
H884 H 0.70952 0.96725 0.47159 0.0
H885 H 0.80385 0.16069 0.51029 0.0
H886 H 0.87118 0.20856 0.50283 0.0
H887 H 0.85512 0.16823 0.53443 0.0
H888 H 0.91865 0.13668 0.51845 0.0
H889 H 0.9343 0.17648 0.48661 0.0
H890 H 0.91015 0.10681 0.48362 0.0
H891 H 0.73205 0.02452 0.42604 0.0
H892 H 0.76277 0.09486 0.38956 0.0
H893 H 0.88285 0.20312 0.44853 0.0
C894 C 0.80819 0.05015 0.53244 0.0
C895 C 0.7687 0.9973 0.53823 0.0
C896 C 0.73287 0.96805 0.51589 0.0
C897 C 0.73685 0.99022 0.48847 0.0
C898 C 0.77685 0.04199 0.48346 0.0
C899 C 0.81158 0.07168 0.505 0.0
C900 C 0.85025 0.12684 0.49447 0.0
C901 C 0.84475 0.16853 0.51152 0.0
C902 C 0.90668 0.1373 0.49588 0.0
C903 C 0.83209 0.12377 0.46362 0.0
C904 C 0.78982 0.07445 0.45756 0.0
C905 C 0.76537 0.06305 0.43064 0.0
C906 C 0.78349 0.10328 0.40985 0.0
C907 C 0.82602 0.15457 0.4158 0.0
C908 C 0.85096 0.16421 0.443 0.0
H909 H 0.64591 0.73393 0.73405 0.0
H910 H 0.64493 0.86522 0.77535 0.0
H911 H 0.69158 0.85647 0.81722 0.0
H912 H 0.61767 0.65656 0.79548 0.0
H913 H 0.65897 0.62953 0.78749 0.0
H914 H 0.63273 0.65059 0.75879 0.0
H915 H 0.72602 0.71313 0.73976 0.0
H916 H 0.75267 0.69143 0.76801 0.0
H917 H 0.77543 0.76062 0.76364 0.0
H918 H 0.73115 0.82829 0.85691 0.0
H919 H 0.76562 0.78681 0.88971 0.0
H920 H 0.73654 0.6698 0.82437 0.0
C921 C 0.6574 0.76206 0.75144 0.0
C922 C 0.64316 0.80148 0.75099 0.0
C923 C 0.65668 0.83577 0.77485 0.0
C924 C 0.68289 0.83083 0.79887 0.0
C925 C 0.69495 0.79069 0.79914 0.0
C926 C 0.68314 0.75715 0.77594 0.0
C927 C 0.69742 0.7152 0.78263 0.0
C928 C 0.6488 0.65969 0.781 0.0
C929 C 0.74045 0.7204 0.76231 0.0
C930 C 0.71793 0.72969 0.81334 0.0
C931 C 0.71651 0.77362 0.82235 0.0
C932 C 0.73266 0.79397 0.84998 0.0
C933 C 0.75168 0.76958 0.86872 0.0
C934 C 0.75435 0.72474 0.86008 0.0
C935 C 0.73635 0.7045 0.83189 0.0
H936 H 0.07323 0.77684 0.16391 0.0
H937 H 0.97594 0.78245 0.23111 0.0
H938 H 0.89834 0.73763 0.19917 0.0
H939 H 0.01235 0.80052 0.10556 0.0
H940 H 0.01408 0.75437 0.08074 0.0
H941 H 0.06275 0.7835 0.10877 0.0
H942 H 0.0396 0.69207 0.12792 0.0
H943 H 0.99236 0.66202 0.09927 0.0
H944 H 0.97241 0.64447 0.13595 0.0
H945 H 0.83257 0.69786 0.15938 0.0
H946 H 0.77916 0.65335 0.11651 0.0
H947 H 0.91637 0.66906 0.07423 0.0
C948 C 0.03523 0.76721 0.17205 0.0
C949 C 0.03029 0.78227 0.20024 0.0
C950 C 0.98029 0.77031 0.20989 0.0
C951 C 0.93614 0.74533 0.19177 0.0
C952 C 0.94234 0.73203 0.16395 0.0
C953 C 0.99029 0.74128 0.15427 0.0
C954 C 0.98553 0.72213 0.1234 0.0
C955 C 0.02076 0.76787 0.10342 0.0
C956 C 0.99822 0.67752 0.12153 0.0
C957 C 0.92772 0.70171 0.11712 0.0
C958 C 0.90388 0.70826 0.14088 0.0
C959 C 0.85081 0.69234 0.14073 0.0
C960 C 0.8208 0.66736 0.11618 0.0
C961 C 0.84346 0.65825 0.09184 0.0
C962 C 0.89802 0.67642 0.09222 0.0
H963 H 0.16929 0.961 0.5415 0.0
H964 H 0.31917 0.09971 0.5231 0.0
H965 H 0.3194 0.0621 0.4757 0.0
H966 H 0.19666 0.87057 0.5113 0.0
H967 H 0.1327 0.82691 0.49592 0.0
H968 H 0.13909 0.8656 0.52717 0.0
H969 H 0.09265 0.90892 0.50242 0.0
H970 H 0.08267 0.8691 0.47105 0.0
H971 H 0.11491 0.93977 0.46796 0.0
H972 H 0.30241 1.00807 0.42924 0.0
H973 H 0.27735 0.93862 0.3926 0.0
H974 H 0.14003 0.83372 0.44186 0.0
C975 C 0.20193 0.9841 0.52742 0.0
C976 C 0.24414 0.03393 0.53637 0.0
C977 C 0.2865 0.06152 0.51721 0.0
C978 C 0.28665 0.04063 0.48996 0.0
C979 C 0.24411 0.99184 0.4818 0.0
C980 C 0.20269 0.96383 0.50015 0.0
C981 C 0.1634 0.91066 0.4872 0.0
C982 C 0.15757 0.86567 0.50651 0.0
C983 C 0.11025 0.90691 0.48185 0.0
C984 C 0.18966 0.91227 0.45899 0.0
C985 C 0.23552 0.96005 0.45591 0.0
C986 C 0.26659 0.97062 0.4316 0.0
C987 C 0.25171 0.9309 0.41065 0.0
C988 C 0.20651 0.88044 0.41412 0.0
C989 C 0.17446 0.87191 0.43834 0.0
loop_
_geom_bond_atom_site_label_1
_geom_bond_atom_site_label_2
_geom_bond_distance
_geom_bond_site_symmetry_2
_ccdc_geom_bond_type
Tb0 N31 2.660 . S
Tb0 N38 2.600 . S
Tb0 O44 2.546 . S
Tb0 O45 2.610 . S
Tb0 O47 2.320 . S
Tb0 O48 2.552 . S
Tb0 O49 2.413 . S
Tb0 O51 2.362 1_554 S
Tb0 O52 2.421 . S
Tb0 C64 2.833 . S
C1 C4 1.432 . S
C1 C5 1.414 . S
C1 N8 1.359 1_554 S
C2 C4 1.417 . S
C2 C6 1.432 . S
C2 C14 1.410 . S
C3 C5 1.444 . S
C3 C6 1.317 . S
C3 H26 0.929 1_455 S
C4 C1 1.432 . S
C4 C2 1.417 . S
C4 N12 1.360 . S
C5 C1 1.414 . S
C5 C3 1.444 . S
C5 C10 1.385 1_454 S
C6 C2 1.432 . S
C6 C3 1.317 . S
C6 H18 0.930 . S
C7 C9 1.392 1_655 S
C7 C10 1.370 . S
C7 H19 0.931 . S
N8 C1 1.359 1_556 S
N8 C9 1.327 . S
N8 Tb11 2.600 . S
C9 C7 1.392 1_455 S
C9 N8 1.327 . S
C9 H16 0.930 . S
C10 C5 1.385 1_656 S
C10 C7 1.370 . S
C10 H29 0.930 . S
Tb11 N8 2.600 . S
Tb11 N12 2.660 1_556 S
Tb11 O45 2.362 1_556 S
Tb11 O46 2.421 . S
Tb11 O50 2.546 . S
Tb11 O51 2.610 . S
Tb11 O53 2.320 1_556 S
Tb11 O54 2.552 . S
Tb11 O55 2.413 . S
Tb11 C75 2.833 . S
N12 C4 1.360 . S
N12 Tb11 2.660 1_554 S
N12 C13 1.305 . S
C13 N12 1.305 . S
C13 C15 1.407 . S
C13 H20 0.930 . S
C14 C2 1.410 . S
C14 C15 1.345 . S
C14 H22 0.930 . S
C15 C13 1.407 . S
C15 C14 1.345 . S
C15 H17 0.930 . S
H16 C9 0.930 . S
H17 C15 0.930 . S
H18 C6 0.930 . S
H19 C7 0.931 . S
H20 C13 0.930 . S
H21 C35 0.930 . S
H22 C14 0.930 . S
H23 C41 0.930 . S
H24 C32 0.930 . S
H25 C39 0.931 . S
H26 C3 0.929 1_655 S
H27 C33 0.930 . S
H28 C66 0.930 . S
H29 C10 0.930 . S
H30 C65 0.929 . S
N31 Tb0 2.660 . S
N31 C32 1.305 1_554 S
N31 C36 1.360 . S
C32 H24 0.930 . S
C32 N31 1.305 1_556 S
C32 C35 1.407 . S
C33 H27 0.930 . S
C33 C34 1.410 . S
C33 C35 1.345 . S
C34 C33 1.410 . S
C34 C36 1.417 1_556 S
C34 C66 1.432 . S
C35 H21 0.930 . S
C35 C32 1.407 . S
C35 C33 1.345 . S
C36 N31 1.360 . S
C36 C34 1.417 1_554 S
C36 C40 1.432 . S
H37 C42 0.930 . S
N38 Tb0 2.600 . S
N38 C40 1.359 . S
N38 C41 1.327 . S
C39 H25 0.931 . S
C39 C41 1.392 . S
C39 C42 1.370 . S
C40 C36 1.432 . S
C40 N38 1.359 . S
C40 C43 1.414 . S
C41 H23 0.930 . S
C41 N38 1.327 . S
C41 C39 1.392 . S
C42 H37 0.930 . S
C42 C39 1.370 . S
C42 C43 1.385 . S
C43 C40 1.414 . S
C43 C42 1.385 . S
C43 C65 1.444 . S
O44 Tb0 2.546 . S
O44 C64 1.251 . S
O45 Tb0 2.610 . S
O45 Tb11 2.362 1_554 S
O45 C56 1.283 . S
O46 Tb11 2.421 . S
O46 C63 1.262 1_556 S
O47 Tb0 2.320 . S
O47 C63 1.260 . S
O48 Tb0 2.552 . S
O48 C56 1.243 . S
O49 Tb0 2.413 . S
O49 C64 1.256 . S
O50 Tb11 2.546 . S
O50 C75 1.251 . S
O51 Tb0 2.362 1_556 S
O51 Tb11 2.610 . S
O51 C67 1.283 . S
O52 Tb0 2.421 . S
O52 C74 1.262 . S
O53 Tb11 2.320 1_554 S
O53 C74 1.260 . S
O54 Tb11 2.552 . S
O54 C67 1.243 . S
O55 Tb11 2.413 . S
O55 C75 1.256 . S
C56 O45 1.283 . S
C56 O48 1.243 . S
C57 C59 1.382 . S
C57 C61 1.393 . S
C57 C64 1.500 . S
C58 C59 1.400 . S
C58 C60 1.384 . S
C59 C57 1.382 . S
C59 C58 1.400 . S
C59 H76 0.930 . S
C60 C58 1.384 . S
C60 C62 1.392 . S
C60 H77 0.931 . S
C61 C57 1.393 . S
C61 C62 1.401 . S
C61 H78 0.930 . S
C62 C60 1.392 . S
C62 C61 1.401 . S
C62 H79 0.930 . S
C63 O46 1.262 1_554 S
C63 O47 1.260 . S
C64 Tb0 2.833 . S
C64 O44 1.251 . S
C64 O49 1.256 . S
C64 C57 1.500 . S
C65 H30 0.929 . S
C65 C43 1.444 . S
C65 C66 1.317 1_554 S
C66 H28 0.930 . S
C66 C34 1.432 . S
C66 C65 1.317 1_556 S
C67 O51 1.283 . S
C67 O54 1.243 . S
C68 C69 1.382 . S
C68 C72 1.393 . S
C68 C75 1.500 . S
C69 C68 1.382 . S
C69 C70 1.400 . S
C69 H80 0.930 . S
C70 C69 1.400 . S
C70 C71 1.384 . S
C71 C70 1.384 . S
C71 C73 1.392 . S
C71 H81 0.931 . S
C72 C68 1.393 . S
C72 C73 1.401 . S
C72 H82 0.930 . S
C73 C71 1.392 . S
C73 C72 1.401 . S
C73 H83 0.930 . S
C74 O52 1.262 . S
C74 O53 1.260 . S
C75 Tb11 2.833 . S
C75 O50 1.251 . S
C75 O55 1.256 . S
C75 C68 1.500 . S
H76 C59 0.930 . S
H77 C60 0.931 . S
H78 C61 0.930 . S
H79 C62 0.930 . S
H80 C69 0.930 . S
H81 C71 0.931 . S
H82 C72 0.930 . S
H83 C73 0.930 . S
Tb84 N115 2.660 . S
Tb84 N122 2.600 . S
Tb84 O128 2.546 . S
Tb84 O129 2.610 . S
Tb84 O131 2.320 . S
Tb84 O132 2.552 . S
Tb84 O133 2.413 . S
Tb84 O135 2.362 . S
Tb84 O136 2.421 . S
Tb84 C148 2.833 . S
C85 C88 1.432 . S
C85 C89 1.414 . S
C85 N92 1.359 . S
C86 C88 1.417 . S
C86 C90 1.432 . S
C86 C98 1.410 . S
C87 C89 1.444 . S
C87 C90 1.317 . S
C87 H110 0.929 1_545 S
C88 C85 1.432 . S
C88 C86 1.417 . S
C88 N96 1.360 . S
C89 C85 1.414 . S
C89 C87 1.444 . S
C89 C94 1.385 1_545 S
C90 C86 1.432 . S
C90 C87 1.317 . S
C90 H102 0.930 . S
C91 C93 1.392 1_565 S
C91 C94 1.370 . S
C91 H103 0.931 . S
N92 C85 1.359 . S
N92 C93 1.327 . S
N92 Tb95 2.600 . S
C93 C91 1.392 1_545 S
C93 N92 1.327 . S
C93 H100 0.930 . S
C94 C89 1.385 1_565 S
C94 C91 1.370 . S
C94 H113 0.930 . S
Tb95 N92 2.600 . S
Tb95 N96 2.660 . S
Tb95 O129 2.362 . S
Tb95 O130 2.421 . S
Tb95 O134 2.546 . S
Tb95 O135 2.610 . S
Tb95 O137 2.320 . S
Tb95 O138 2.552 . S
Tb95 O139 2.413 . S
Tb95 C159 2.833 . S
N96 C88 1.360 . S
N96 Tb95 2.660 . S
N96 C97 1.305 . S
C97 N96 1.305 . S
C97 C99 1.407 . S
C97 H104 0.930 . S
C98 C86 1.410 . S
C98 C99 1.345 . S
C98 H106 0.930 . S
C99 C97 1.407 . S
C99 C98 1.345 . S
C99 H101 0.930 . S
H100 C93 0.930 . S
H101 C99 0.930 . S
H102 C90 0.930 . S
H103 C91 0.931 . S
H104 C97 0.930 . S
H105 C119 0.930 . S
H106 C98 0.930 . S
H107 C125 0.930 . S
H108 C116 0.930 . S
H109 C123 0.931 . S
H110 C87 0.929 1_565 S
H111 C117 0.930 . S
H112 C150 0.930 . S
H113 C94 0.930 . S
H114 C149 0.929 . S
N115 Tb84 2.660 . S
N115 C116 1.305 . S
N115 C120 1.360 . S
C116 H108 0.930 . S
C116 N115 1.305 . S
C116 C119 1.407 . S
C117 H111 0.930 . S
C117 C118 1.410 . S
C117 C119 1.345 . S
C118 C117 1.410 . S
C118 C120 1.417 . S
C118 C150 1.432 . S
C119 H105 0.930 . S
C119 C116 1.407 . S
C119 C117 1.345 . S
C120 N115 1.360 . S
C120 C118 1.417 . S
C120 C124 1.432 . S
H121 C126 0.930 . S
N122 Tb84 2.600 . S
N122 C124 1.359 . S
N122 C125 1.327 . S
C123 H109 0.931 . S
C123 C125 1.392 . S
C123 C126 1.370 . S
C124 C120 1.432 . S
C124 N122 1.359 . S
C124 C127 1.414 . S
C125 H107 0.930 . S
C125 N122 1.327 . S
C125 C123 1.392 . S
C126 H121 0.930 . S
C126 C123 1.370 . S
C126 C127 1.385 . S
C127 C124 1.414 . S
C127 C126 1.385 . S
C127 C149 1.444 . S
O128 Tb84 2.546 . S
O128 C148 1.251 . S
O129 Tb84 2.610 . S
O129 Tb95 2.362 . S
O129 C140 1.283 . S
O130 Tb95 2.421 . S
O130 C147 1.262 . S
O131 Tb84 2.320 . S
O131 C147 1.260 . S
O132 Tb84 2.552 . S
O132 C140 1.243 . S
O133 Tb84 2.413 . S
O133 C148 1.256 . S
O134 Tb95 2.546 . S
O134 C159 1.251 . S
O135 Tb84 2.362 . S
O135 Tb95 2.610 . S
O135 C151 1.283 . S
O136 Tb84 2.421 . S
O136 C158 1.262 . S
O137 Tb95 2.320 . S
O137 C158 1.260 . S
O138 Tb95 2.552 . S
O138 C151 1.243 . S
O139 Tb95 2.413 . S
O139 C159 1.256 . S
C140 O129 1.283 . S
C140 O132 1.243 . S
C141 C143 1.382 . S
C141 C145 1.393 . S
C141 C148 1.500 . S
C142 C143 1.400 . S
C142 C144 1.384 . S
C143 C141 1.382 . S
C143 C142 1.400 . S
C143 H160 0.930 . S
C144 C142 1.384 . S
C144 C146 1.392 . S
C144 H161 0.931 . S
C145 C141 1.393 . S
C145 C146 1.401 . S
C145 H162 0.930 . S
C146 C144 1.392 . S
C146 C145 1.401 . S
C146 H163 0.930 . S
C147 O130 1.262 . S
C147 O131 1.260 . S
C148 Tb84 2.833 . S
C148 O128 1.251 . S
C148 O133 1.256 . S
C148 C141 1.500 . S
C149 H114 0.929 . S
C149 C127 1.444 . S
C149 C150 1.317 . S
C150 H112 0.930 . S
C150 C118 1.432 . S
C150 C149 1.317 . S
C151 O135 1.283 . S
C151 O138 1.243 . S
C152 C153 1.382 . S
C152 C156 1.393 . S
C152 C159 1.500 . S
C153 C152 1.382 . S
C153 C154 1.400 . S
C153 H164 0.930 . S
C154 C153 1.400 . S
C154 C155 1.384 . S
C155 C154 1.384 . S
C155 C157 1.392 . S
C155 H165 0.931 . S
C156 C152 1.393 . S
C156 C157 1.401 . S
C156 H166 0.930 . S
C157 C155 1.392 . S
C157 C156 1.401 . S
C157 H167 0.930 . S
C158 O136 1.262 . S
C158 O137 1.260 . S
C159 Tb95 2.833 . S
C159 O134 1.251 . S
C159 O139 1.256 . S
C159 C152 1.500 . S
H160 C143 0.930 . S
H161 C144 0.931 . S
H162 C145 0.930 . S
H163 C146 0.930 . S
H164 C153 0.930 . S
H165 C155 0.931 . S
H166 C156 0.930 . S
H167 C157 0.930 . S
Tb168 N199 2.660 . S
Tb168 N206 2.600 . S
Tb168 O212 2.546 . S
Tb168 O213 2.610 . S
Tb168 O215 2.320 . S
Tb168 O216 2.552 . S
Tb168 O217 2.413 . S
Tb168 O219 2.362 . S
Tb168 O220 2.421 . S
Tb168 C232 2.833 . S
C169 C172 1.432 . S
C169 C173 1.414 . S
C169 N176 1.359 . S
C170 C172 1.417 . S
C170 C174 1.432 . S
C170 C182 1.410 . S
C171 C173 1.444 . S
C171 C174 1.317 . S
C171 H194 0.929 . S
C172 C169 1.432 . S
C172 C170 1.417 . S
C172 N180 1.360 . S
C173 C169 1.414 . S
C173 C171 1.444 . S
C173 C178 1.385 . S
C174 C170 1.432 . S
C174 C171 1.317 . S
C174 H186 0.930 . S
C175 C177 1.392 . S
C175 C178 1.370 . S
C175 H187 0.931 . S
N176 C169 1.359 . S
N176 C177 1.327 . S
N176 Tb179 2.600 . S
C177 C175 1.392 . S
C177 N176 1.327 . S
C177 H184 0.930 . S
C178 C173 1.385 . S
C178 C175 1.370 . S
C178 H197 0.930 . S
Tb179 N176 2.600 . S
Tb179 N180 2.660 . S
Tb179 O213 2.362 . S
Tb179 O214 2.421 . S
Tb179 O218 2.546 . S
Tb179 O219 2.610 . S
Tb179 O221 2.320 . S
Tb179 O222 2.552 . S
Tb179 O223 2.413 . S
Tb179 C243 2.833 . S
N180 C172 1.360 . S
N180 Tb179 2.660 . S
N180 C181 1.305 . S
C181 N180 1.305 . S
C181 C183 1.407 . S
C181 H188 0.930 . S
C182 C170 1.410 . S
C182 C183 1.345 . S
C182 H190 0.930 . S
C183 C181 1.407 . S
C183 C182 1.345 . S
C183 H185 0.930 . S
H184 C177 0.930 . S
H185 C183 0.930 . S
H186 C174 0.930 . S
H187 C175 0.931 . S
H188 C181 0.930 . S
H189 C203 0.930 . S
H190 C182 0.930 . S
H191 C209 0.930 . S
H192 C200 0.930 . S
H193 C207 0.931 . S
H194 C171 0.929 . S
H195 C201 0.930 . S
H196 C234 0.930 . S
H197 C178 0.930 . S
H198 C233 0.929 . S
N199 Tb168 2.660 . S
N199 C200 1.305 . S
N199 C204 1.360 . S
C200 H192 0.930 . S
C200 N199 1.305 . S
C200 C203 1.407 . S
C201 H195 0.930 . S
C201 C202 1.410 . S
C201 C203 1.345 . S
C202 C201 1.410 . S
C202 C204 1.417 . S
C202 C234 1.432 . S
C203 H189 0.930 . S
C203 C200 1.407 . S
C203 C201 1.345 . S
C204 N199 1.360 . S
C204 C202 1.417 . S
C204 C208 1.432 . S
H205 C210 0.930 . S
N206 Tb168 2.600 . S
N206 C208 1.359 . S
N206 C209 1.327 . S
C207 H193 0.931 . S
C207 C209 1.392 . S
C207 C210 1.370 . S
C208 C204 1.432 . S
C208 N206 1.359 . S
C208 C211 1.414 . S
C209 H191 0.930 . S
C209 N206 1.327 . S
C209 C207 1.392 . S
C210 H205 0.930 . S
C210 C207 1.370 . S
C210 C211 1.385 . S
C211 C208 1.414 . S
C211 C210 1.385 . S
C211 C233 1.444 . S
O212 Tb168 2.546 . S
O212 C232 1.251 . S
O213 Tb168 2.610 . S
O213 Tb179 2.362 . S
O213 C224 1.283 . S
O214 Tb179 2.421 . S
O214 C231 1.262 . S
O215 Tb168 2.320 . S
O215 C231 1.260 . S
O216 Tb168 2.552 . S
O216 C224 1.243 . S
O217 Tb168 2.413 . S
O217 C232 1.256 . S
O218 Tb179 2.546 . S
O218 C243 1.251 . S
O219 Tb168 2.362 . S
O219 Tb179 2.610 . S
O219 C235 1.283 . S
O220 Tb168 2.421 . S
O220 C242 1.262 . S
O221 Tb179 2.320 . S
O221 C242 1.260 . S
O222 Tb179 2.552 . S
O222 C235 1.243 . S
O223 Tb179 2.413 . S
O223 C243 1.256 . S
C224 O213 1.283 . S
C224 O216 1.243 . S
C225 C227 1.382 . S
C225 C229 1.393 . S
C225 C232 1.500 . S
C226 C227 1.400 . S
C226 C228 1.384 . S
C227 C225 1.382 . S
C227 C226 1.400 . S
C227 H244 0.930 . S
C228 C226 1.384 . S
C228 C230 1.392 . S
C228 H245 0.931 . S
C229 C225 1.393 . S
C229 C230 1.401 . S
C229 H246 0.930 . S
C230 C228 1.392 . S
C230 C229 1.401 . S
C230 H247 0.930 . S
C231 O214 1.262 . S
C231 O215 1.260 . S
C232 Tb168 2.833 . S
C232 O212 1.251 . S
C232 O217 1.256 . S
C232 C225 1.500 . S
C233 H198 0.929 . S
C233 C211 1.444 . S
C233 C234 1.317 . S
C234 H196 0.930 . S
C234 C202 1.432 . S
C234 C233 1.317 . S
C235 O219 1.283 . S
C235 O222 1.243 . S
C236 C237 1.382 . S
C236 C240 1.393 . S
C236 C243 1.500 . S
C237 C236 1.382 . S
C237 C238 1.400 . S
C237 H248 0.930 . S
C238 C237 1.400 . S
C238 C239 1.384 . S
C239 C238 1.384 . S
C239 C241 1.392 . S
C239 H249 0.931 . S
C240 C236 1.393 . S
C240 C241 1.401 . S
C240 H250 0.930 . S
C241 C239 1.392 . S
C241 C240 1.401 . S
C241 H251 0.930 . S
C242 O220 1.262 . S
C242 O221 1.260 . S
C243 Tb179 2.833 . S
C243 O218 1.251 . S
C243 O223 1.256 . S
C243 C236 1.500 . S
H244 C227 0.930 . S
H245 C228 0.931 . S
H246 C229 0.930 . S
H247 C230 0.930 . S
H248 C237 0.930 . S
H249 C239 0.931 . S
H250 C240 0.930 . S
H251 C241 0.930 . S
Tb252 N283 2.660 . S
Tb252 N290 2.600 . S
Tb252 O296 2.546 . S
Tb252 O297 2.610 . S
Tb252 O299 2.320 . S
Tb252 O300 2.552 . S
Tb252 O301 2.413 . S
Tb252 O303 2.362 1_554 S
Tb252 O304 2.421 . S
Tb252 C316 2.833 . S
C253 C256 1.432 . S
C253 C257 1.414 . S
C253 N260 1.359 1_554 S
C254 C256 1.417 . S
C254 C258 1.432 . S
C254 C266 1.410 . S
C255 C257 1.444 . S
C255 C258 1.317 . S
C255 H278 0.929 1_655 S
C256 C253 1.432 . S
C256 C254 1.417 . S
C256 N264 1.360 . S
C257 C253 1.414 . S
C257 C255 1.444 . S
C257 C262 1.385 1_654 S
C258 C254 1.432 . S
C258 C255 1.317 . S
C258 H270 0.930 . S
C259 C261 1.392 1_455 S
C259 C262 1.370 . S
C259 H271 0.931 . S
N260 C253 1.359 1_556 S
N260 C261 1.327 . S
N260 Tb263 2.600 . S
C261 C259 1.392 1_655 S
C261 N260 1.327 . S
C261 H268 0.930 . S
C262 C257 1.385 1_456 S
C262 C259 1.370 . S
C262 H281 0.930 . S
Tb263 N260 2.600 . S
Tb263 N264 2.660 1_556 S
Tb263 O297 2.362 1_556 S
Tb263 O298 2.421 . S
Tb263 O302 2.546 . S
Tb263 O303 2.610 . S
Tb263 O305 2.320 1_556 S
Tb263 O306 2.552 . S
Tb263 O307 2.413 . S
Tb263 C327 2.833 . S
N264 C256 1.360 . S
N264 Tb263 2.660 1_554 S
N264 C265 1.305 . S
C265 N264 1.305 . S
C265 C267 1.407 . S
C265 H272 0.930 . S
C266 C254 1.410 . S
C266 C267 1.345 . S
C266 H274 0.930 . S
C267 C265 1.407 . S
C267 C266 1.345 . S
C267 H269 0.930 . S
H268 C261 0.930 . S
H269 C267 0.930 . S
H270 C258 0.930 . S
H271 C259 0.931 . S
H272 C265 0.930 . S
H273 C287 0.930 . S
H274 C266 0.930 . S
H275 C293 0.930 . S
H276 C284 0.930 . S
H277 C291 0.931 . S
H278 C255 0.929 1_455 S
H279 C285 0.930 . S
H280 C318 0.930 . S
H281 C262 0.930 . S
H282 C317 0.929 . S
N283 Tb252 2.660 . S
N283 C284 1.305 1_554 S
N283 C288 1.360 . S
C284 H276 0.930 . S
C284 N283 1.305 1_556 S
C284 C287 1.407 . S
C285 H279 0.930 . S
C285 C286 1.410 . S
C285 C287 1.345 . S
C286 C285 1.410 . S
C286 C288 1.417 1_556 S
C286 C318 1.432 . S
C287 H273 0.930 . S
C287 C284 1.407 . S
C287 C285 1.345 . S
C288 N283 1.360 . S
C288 C286 1.417 1_554 S
C288 C292 1.432 . S
H289 C294 0.930 . S
N290 Tb252 2.600 . S
N290 C292 1.359 . S
N290 C293 1.327 . S
C291 H277 0.931 . S
C291 C293 1.392 . S
C291 C294 1.370 . S
C292 C288 1.432 . S
C292 N290 1.359 . S
C292 C295 1.414 . S
C293 H275 0.930 . S
C293 N290 1.327 . S
C293 C291 1.392 . S
C294 H289 0.930 . S
C294 C291 1.370 . S
C294 C295 1.385 . S
C295 C292 1.414 . S
C295 C294 1.385 . S
C295 C317 1.444 . S
O296 Tb252 2.546 . S
O296 C316 1.251 . S
O297 Tb252 2.610 . S
O297 Tb263 2.362 1_554 S
O297 C308 1.283 . S
O298 Tb263 2.421 . S
O298 C315 1.262 1_556 S
O299 Tb252 2.320 . S
O299 C315 1.260 . S
O300 Tb252 2.552 . S
O300 C308 1.243 . S
O301 Tb252 2.413 . S
O301 C316 1.256 . S
O302 Tb263 2.546 . S
O302 C327 1.251 . S
O303 Tb252 2.362 1_556 S
O303 Tb263 2.610 . S
O303 C319 1.283 . S
O304 Tb252 2.421 . S
O304 C326 1.262 . S
O305 Tb263 2.320 1_554 S
O305 C326 1.260 . S
O306 Tb263 2.552 . S
O306 C319 1.243 . S
O307 Tb263 2.413 . S
O307 C327 1.256 . S
C308 O297 1.283 . S
C308 O300 1.243 . S
C309 C311 1.382 . S
C309 C313 1.393 . S
C309 C316 1.500 . S
C310 C311 1.400 . S
C310 C312 1.384 . S
C311 C309 1.382 . S
C311 C310 1.400 . S
C311 H328 0.930 . S
C312 C310 1.384 . S
C312 C314 1.392 . S
C312 H329 0.931 . S
C313 C309 1.393 . S
C313 C314 1.401 . S
C313 H330 0.930 . S
C314 C312 1.392 . S
C314 C313 1.401 . S
C314 H331 0.930 . S
C315 O298 1.262 1_554 S
C315 O299 1.260 . S
C316 Tb252 2.833 . S
C316 O296 1.251 . S
C316 O301 1.256 . S
C316 C309 1.500 . S
C317 H282 0.929 . S
C317 C295 1.444 . S
C317 C318 1.317 1_554 S
C318 H280 0.930 . S
C318 C286 1.432 . S
C318 C317 1.317 1_556 S
C319 O303 1.283 . S
C319 O306 1.243 . S
C320 C321 1.382 . S
C320 C324 1.393 . S
C320 C327 1.500 . S
C321 C320 1.382 . S
C321 C322 1.400 . S
C321 H332 0.930 . S
C322 C321 1.400 . S
C322 C323 1.384 . S
C323 C322 1.384 . S
C323 C325 1.392 . S
C323 H333 0.931 . S
C324 C320 1.393 . S
C324 C325 1.401 . S
C324 H334 0.930 . S
C325 C323 1.392 . S
C325 C324 1.401 . S
C325 H335 0.930 . S
C326 O304 1.262 . S
C326 O305 1.260 . S
C327 Tb263 2.833 . S
C327 O302 1.251 . S
C327 O307 1.256 . S
C327 C320 1.500 . S
H328 C311 0.930 . S
H329 C312 0.931 . S
H330 C313 0.930 . S
H331 C314 0.930 . S
H332 C321 0.930 . S
H333 C323 0.931 . S
H334 C324 0.930 . S
H335 C325 0.930 . S
Tb336 N367 2.660 . S
Tb336 N374 2.600 . S
Tb336 O380 2.546 . S
Tb336 O381 2.610 . S
Tb336 O383 2.320 . S
Tb336 O384 2.552 . S
Tb336 O385 2.413 . S
Tb336 O387 2.362 . S
Tb336 O388 2.421 . S
Tb336 C400 2.833 . S
C337 C340 1.432 . S
C337 C341 1.414 . S
C337 N344 1.359 . S
C338 C340 1.417 . S
C338 C342 1.432 . S
C338 C350 1.410 . S
C339 C341 1.444 . S
C339 C342 1.317 . S
C339 H362 0.929 1_565 S
C340 C337 1.432 . S
C340 C338 1.417 . S
C340 N348 1.360 . S
C341 C337 1.414 . S
C341 C339 1.444 . S
C341 C346 1.385 1_565 S
C342 C338 1.432 . S
C342 C339 1.317 . S
C342 H354 0.930 . S
C343 C345 1.392 1_545 S
C343 C346 1.370 . S
C343 H355 0.931 . S
N344 C337 1.359 . S
N344 C345 1.327 . S
N344 Tb347 2.600 . S
C345 C343 1.392 1_565 S
C345 N344 1.327 . S
C345 H352 0.930 . S
C346 C341 1.385 1_545 S
C346 C343 1.370 . S
C346 H365 0.930 . S
Tb347 N344 2.600 . S
Tb347 N348 2.660 . S
Tb347 O381 2.362 . S
Tb347 O382 2.421 . S
Tb347 O386 2.546 . S
Tb347 O387 2.610 . S
Tb347 O389 2.320 . S
Tb347 O390 2.552 . S
Tb347 O391 2.413 . S
Tb347 C411 2.833 . S
N348 C340 1.360 . S
N348 Tb347 2.660 . S
N348 C349 1.305 . S
C349 N348 1.305 . S
C349 C351 1.407 . S
C349 H356 0.930 . S
C350 C338 1.410 . S
C350 C351 1.345 . S
C350 H358 0.930 . S
C351 C349 1.407 . S
C351 C350 1.345 . S
C351 H353 0.930 . S
H352 C345 0.930 . S
H353 C351 0.930 . S
H354 C342 0.930 . S
H355 C343 0.931 . S
H356 C349 0.930 . S
H357 C371 0.930 . S
H358 C350 0.930 . S
H359 C377 0.930 . S
H360 C368 0.930 . S
H361 C375 0.931 . S
H362 C339 0.929 1_545 S
H363 C369 0.930 . S
H364 C402 0.930 . S
H365 C346 0.930 . S
H366 C401 0.929 . S
N367 Tb336 2.660 . S
N367 C368 1.305 . S
N367 C372 1.360 . S
C368 H360 0.930 . S
C368 N367 1.305 . S
C368 C371 1.407 . S
C369 H363 0.930 . S
C369 C370 1.410 . S
C369 C371 1.345 . S
C370 C369 1.410 . S
C370 C372 1.417 . S
C370 C402 1.432 . S
C371 H357 0.930 . S
C371 C368 1.407 . S
C371 C369 1.345 . S
C372 N367 1.360 . S
C372 C370 1.417 . S
C372 C376 1.432 . S
H373 C378 0.930 . S
N374 Tb336 2.600 . S
N374 C376 1.359 . S
N374 C377 1.327 . S
C375 H361 0.931 . S
C375 C377 1.392 . S
C375 C378 1.370 . S
C376 C372 1.432 . S
C376 N374 1.359 . S
C376 C379 1.414 . S
C377 H359 0.930 . S
C377 N374 1.327 . S
C377 C375 1.392 . S
C378 H373 0.930 . S
C378 C375 1.370 . S
C378 C379 1.385 . S
C379 C376 1.414 . S
C379 C378 1.385 . S
C379 C401 1.444 . S
O380 Tb336 2.546 . S
O380 C400 1.251 . S
O381 Tb336 2.610 . S
O381 Tb347 2.362 . S
O381 C392 1.283 . S
O382 Tb347 2.421 . S
O382 C399 1.262 . S
O383 Tb336 2.320 . S
O383 C399 1.260 . S
O384 Tb336 2.552 . S
O384 C392 1.243 . S
O385 Tb336 2.413 . S
O385 C400 1.256 . S
O386 Tb347 2.546 . S
O386 C411 1.251 . S
O387 Tb336 2.362 . S
O387 Tb347 2.610 . S
O387 C403 1.283 . S
O388 Tb336 2.421 . S
O388 C410 1.262 . S
O389 Tb347 2.320 . S
O389 C410 1.260 . S
O390 Tb347 2.552 . S
O390 C403 1.243 . S
O391 Tb347 2.413 . S
O391 C411 1.256 . S
C392 O381 1.283 . S
C392 O384 1.243 . S
C393 C395 1.382 . S
C393 C397 1.393 . S
C393 C400 1.500 . S
C394 C395 1.400 . S
C394 C396 1.384 . S
C395 C393 1.382 . S
C395 C394 1.400 . S
C395 H412 0.930 . S
C396 C394 1.384 . S
C396 C398 1.392 . S
C396 H413 0.931 . S
C397 C393 1.393 . S
C397 C398 1.401 . S
C397 H414 0.930 . S
C398 C396 1.392 . S
C398 C397 1.401 . S
C398 H415 0.930 . S
C399 O382 1.262 . S
C399 O383 1.260 . S
C400 Tb336 2.833 . S
C400 O380 1.251 . S
C400 O385 1.256 . S
C400 C393 1.500 . S
C401 H366 0.929 . S
C401 C379 1.444 . S
C401 C402 1.317 . S
C402 H364 0.930 . S
C402 C370 1.432 . S
C402 C401 1.317 . S
C403 O387 1.283 . S
C403 O390 1.243 . S
C404 C405 1.382 . S
C404 C408 1.393 . S
C404 C411 1.500 . S
C405 C404 1.382 . S
C405 C406 1.400 . S
C405 H416 0.930 . S
C406 C405 1.400 . S
C406 C407 1.384 . S
C407 C406 1.384 . S
C407 C409 1.392 . S
C407 H417 0.931 . S
C408 C404 1.393 . S
C408 C409 1.401 . S
C408 H418 0.930 . S
C409 C407 1.392 . S
C409 C408 1.401 . S
C409 H419 0.930 . S
C410 O388 1.262 . S
C410 O389 1.260 . S
C411 Tb347 2.833 . S
C411 O386 1.251 . S
C411 O391 1.256 . S
C411 C404 1.500 . S
H412 C395 0.930 . S
H413 C396 0.931 . S
H414 C397 0.930 . S
H415 C398 0.930 . S
H416 C405 0.930 . S
H417 C407 0.931 . S
H418 C408 0.930 . S
H419 C409 0.930 . S
Tb420 N451 2.660 . S
Tb420 N458 2.600 . S
Tb420 O464 2.546 . S
Tb420 O465 2.610 . S
Tb420 O467 2.320 . S
Tb420 O468 2.552 . S
Tb420 O469 2.413 . S
Tb420 O471 2.362 . S
Tb420 O472 2.421 . S
Tb420 C484 2.833 . S
C421 C424 1.432 . S
C421 C425 1.414 . S
C421 N428 1.359 . S
C422 C424 1.417 . S
C422 C426 1.432 . S
C422 C434 1.410 . S
C423 C425 1.444 . S
C423 C426 1.317 . S
C423 H446 0.929 . S
C424 C421 1.432 . S
C424 C422 1.417 . S
C424 N432 1.360 . S
C425 C421 1.414 . S
C425 C423 1.444 . S
C425 C430 1.385 . S
C426 C422 1.432 . S
C426 C423 1.317 . S
C426 H438 0.930 . S
C427 C429 1.392 . S
C427 C430 1.370 . S
C427 H439 0.931 . S
N428 C421 1.359 . S
N428 C429 1.327 . S
N428 Tb431 2.600 . S
C429 C427 1.392 . S
C429 N428 1.327 . S
C429 H436 0.930 . S
C430 C425 1.385 . S
C430 C427 1.370 . S
C430 H449 0.930 . S
Tb431 N428 2.600 . S
Tb431 N432 2.660 . S
Tb431 O465 2.362 . S
Tb431 O466 2.421 . S
Tb431 O470 2.546 . S
Tb431 O471 2.610 . S
Tb431 O473 2.320 . S
Tb431 O474 2.552 . S
Tb431 O475 2.413 . S
Tb431 C495 2.833 . S
N432 C424 1.360 . S
N432 Tb431 2.660 . S
N432 C433 1.305 . S
C433 N432 1.305 . S
C433 C435 1.407 . S
C433 H440 0.930 . S
C434 C422 1.410 . S
C434 C435 1.345 . S
C434 H442 0.930 . S
C435 C433 1.407 . S
C435 C434 1.345 . S
C435 H437 0.930 . S
H436 C429 0.930 . S
H437 C435 0.930 . S
H438 C426 0.930 . S
H439 C427 0.931 . S
H440 C433 0.930 . S
H441 C455 0.930 . S
H442 C434 0.930 . S
H443 C461 0.930 . S
H444 C452 0.930 . S
H445 C459 0.931 . S
H446 C423 0.929 . S
H447 C453 0.930 . S
H448 C486 0.930 . S
H449 C430 0.930 . S
H450 C485 0.929 . S
N451 Tb420 2.660 . S
N451 C452 1.305 . S
N451 C456 1.360 . S
C452 H444 0.930 . S
C452 N451 1.305 . S
C452 C455 1.407 . S
C453 H447 0.930 . S
C453 C454 1.410 . S
C453 C455 1.345 . S
C454 C453 1.410 . S
C454 C456 1.417 . S
C454 C486 1.432 . S
C455 H441 0.930 . S
C455 C452 1.407 . S
C455 C453 1.345 . S
C456 N451 1.360 . S
C456 C454 1.417 . S
C456 C460 1.432 . S
H457 C462 0.930 . S
N458 Tb420 2.600 . S
N458 C460 1.359 . S
N458 C461 1.327 . S
C459 H445 0.931 . S
C459 C461 1.392 . S
C459 C462 1.370 . S
C460 C456 1.432 . S
C460 N458 1.359 . S
C460 C463 1.414 . S
C461 H443 0.930 . S
C461 N458 1.327 . S
C461 C459 1.392 . S
C462 H457 0.930 . S
C462 C459 1.370 . S
C462 C463 1.385 . S
C463 C460 1.414 . S
C463 C462 1.385 . S
C463 C485 1.444 . S
O464 Tb420 2.546 . S
O464 C484 1.251 . S
O465 Tb420 2.610 . S
O465 Tb431 2.362 . S
O465 C476 1.283 . S
O466 Tb431 2.421 . S
O466 C483 1.262 . S
O467 Tb420 2.320 . S
O467 C483 1.260 . S
O468 Tb420 2.552 . S
O468 C476 1.243 . S
O469 Tb420 2.413 . S
O469 C484 1.256 . S
O470 Tb431 2.546 . S
O470 C495 1.251 . S
O471 Tb420 2.362 . S
O471 Tb431 2.610 . S
O471 C487 1.283 . S
O472 Tb420 2.421 . S
O472 C494 1.262 . S
O473 Tb431 2.320 . S
O473 C494 1.260 . S
O474 Tb431 2.552 . S
O474 C487 1.243 . S
O475 Tb431 2.413 . S
O475 C495 1.256 . S
C476 O465 1.283 . S
C476 O468 1.243 . S
C477 C479 1.382 . S
C477 C481 1.393 . S
C477 C484 1.500 . S
C478 C479 1.400 . S
C478 C480 1.384 . S
C479 C477 1.382 . S
C479 C478 1.400 . S
C479 H496 0.930 . S
C480 C478 1.384 . S
C480 C482 1.392 . S
C480 H497 0.931 . S
C481 C477 1.393 . S
C481 C482 1.401 . S
C481 H498 0.930 . S
C482 C480 1.392 . S
C482 C481 1.401 . S
C482 H499 0.930 . S
C483 O466 1.262 . S
C483 O467 1.260 . S
C484 Tb420 2.833 . S
C484 O464 1.251 . S
C484 O469 1.256 . S
C484 C477 1.500 . S
C485 H450 0.929 . S
C485 C463 1.444 . S
C485 C486 1.317 . S
C486 H448 0.930 . S
C486 C454 1.432 . S
C486 C485 1.317 . S
C487 O471 1.283 . S
C487 O474 1.243 . S
C488 C489 1.382 . S
C488 C492 1.393 . S
C488 C495 1.500 . S
C489 C488 1.382 . S
C489 C490 1.400 . S
C489 H500 0.930 . S
C490 C489 1.400 . S
C490 C491 1.384 . S
C491 C490 1.384 . S
C491 C493 1.392 . S
C491 H501 0.931 . S
C492 C488 1.393 . S
C492 C493 1.401 . S
C492 H502 0.930 . S
C493 C491 1.392 . S
C493 C492 1.401 . S
C493 H503 0.930 . S
C494 O472 1.262 . S
C494 O473 1.260 . S
C495 Tb431 2.833 . S
C495 O470 1.251 . S
C495 O475 1.256 . S
C495 C488 1.500 . S
H496 C479 0.930 . S
H497 C480 0.931 . S
H498 C481 0.930 . S
H499 C482 0.930 . S
H500 C489 0.930 . S
H501 C491 0.931 . S
H502 C492 0.930 . S
H503 C493 0.930 . S
H504 C516 0.930 . S
H505 C518 0.930 . S
H506 C519 0.930 . S
H507 C523 0.959 . S
H508 C523 0.959 . S
H509 C523 0.961 . S
H510 C524 0.960 . S
H511 C524 0.961 . S
H512 C524 0.959 . S
H513 C527 0.929 . S
H514 C528 0.931 . S
H515 C530 0.930 . S
C516 H504 0.930 . S
C516 C517 1.399 . S
C516 C521 1.399 . S
C517 C516 1.399 . S
C517 C518 1.376 . S
C518 H505 0.930 . S
C518 C517 1.376 . S
C518 C519 1.388 . S
C519 H506 0.930 . S
C519 C518 1.388 . S
C519 C520 1.390 . S
C520 C519 1.390 . S
C520 C521 1.394 . S
C520 C526 1.465 . S
C521 C516 1.399 . S
C521 C520 1.394 . S
C521 C522 1.516 . S
C522 C521 1.516 . S
C522 C523 1.502 . S
C522 C524 1.561 . S
C522 C525 1.526 . S
C523 H507 0.959 . S
C523 H508 0.959 . S
C523 H509 0.961 . S
C523 C522 1.502 . S
C524 H510 0.960 . S
C524 H511 0.961 . S
C524 H512 0.959 . S
C524 C522 1.561 . S
C525 C522 1.526 . S
C525 C526 1.396 . S
C525 C530 1.390 . S
C526 C520 1.465 . S
C526 C525 1.396 . S
C526 C527 1.399 . S
C527 H513 0.929 . S
C527 C526 1.399 . S
C527 C528 1.385 . S
C528 H514 0.931 . S
C528 C527 1.385 . S
C528 C529 1.389 . S
C529 C528 1.389 . S
C529 C530 1.387 . S
C530 H515 0.930 . S
C530 C525 1.390 . S
C530 C529 1.387 . S
H531 C543 0.930 . S
H532 C545 0.930 . S
H533 C546 0.930 . S
H534 C550 0.959 . S
H535 C550 0.959 . S
H536 C550 0.961 . S
H537 C551 0.960 . S
H538 C551 0.961 . S
H539 C551 0.959 . S
H540 C554 0.929 . S
H541 C555 0.931 . S
H542 C557 0.930 . S
C543 H531 0.930 . S
C543 C544 1.399 . S
C543 C548 1.399 . S
C544 C543 1.399 . S
C544 C545 1.376 . S
C545 H532 0.930 . S
C545 C544 1.376 . S
C545 C546 1.388 . S
C546 H533 0.930 . S
C546 C545 1.388 . S
C546 C547 1.390 . S
C547 C546 1.390 . S
C547 C548 1.394 . S
C547 C553 1.465 . S
C548 C543 1.399 . S
C548 C547 1.394 . S
C548 C549 1.516 . S
C549 C548 1.516 . S
C549 C550 1.502 . S
C549 C551 1.561 . S
C549 C552 1.526 . S
C550 H534 0.959 . S
C550 H535 0.959 . S
C550 H536 0.961 . S
C550 C549 1.502 . S
C551 H537 0.960 . S
C551 H538 0.961 . S
C551 H539 0.959 . S
C551 C549 1.561 . S
C552 C549 1.526 . S
C552 C553 1.396 . S
C552 C557 1.390 . S
C553 C547 1.465 . S
C553 C552 1.396 . S
C553 C554 1.399 . S
C554 H540 0.929 . S
C554 C553 1.399 . S
C554 C555 1.385 . S
C555 H541 0.931 . S
C555 C554 1.385 . S
C555 C556 1.389 . S
C556 C555 1.389 . S
C556 C557 1.387 . S
C557 H542 0.930 . S
C557 C552 1.390 . S
C557 C556 1.387 . S
H558 C570 0.930 . S
H559 C572 0.930 . S
H560 C573 0.930 . S
H561 C577 0.959 . S
H562 C577 0.959 . S
H563 C577 0.961 . S
H564 C578 0.960 . S
H565 C578 0.961 . S
H566 C578 0.959 . S
H567 C581 0.929 . S
H568 C582 0.931 . S
H569 C584 0.930 . S
C570 H558 0.930 . S
C570 C571 1.399 . S
C570 C575 1.399 . S
C571 C570 1.399 . S
C571 C572 1.376 . S
C572 H559 0.930 . S
C572 C571 1.376 . S
C572 C573 1.388 . S
C573 H560 0.930 . S
C573 C572 1.388 . S
C573 C574 1.390 . S
C574 C573 1.390 . S
C574 C575 1.394 . S
C574 C580 1.465 . S
C575 C570 1.399 . S
C575 C574 1.394 . S
C575 C576 1.516 . S
C576 C575 1.516 . S
C576 C577 1.502 . S
C576 C578 1.561 . S
C576 C579 1.526 . S
C577 H561 0.959 . S
C577 H562 0.959 . S
C577 H563 0.961 . S
C577 C576 1.502 . S
C578 H564 0.960 . S
C578 H565 0.961 . S
C578 H566 0.959 . S
C578 C576 1.561 . S
C579 C576 1.526 . S
C579 C580 1.396 . S
C579 C584 1.390 . S
C580 C574 1.465 . S
C580 C579 1.396 . S
C580 C581 1.399 . S
C581 H567 0.929 . S
C581 C580 1.399 . S
C581 C582 1.385 . S
C582 H568 0.931 . S
C582 C581 1.385 . S
C582 C583 1.389 . S
C583 C582 1.389 . S
C583 C584 1.387 . S
C584 H569 0.930 . S
C584 C579 1.390 . S
C584 C583 1.387 . S
H585 C597 0.930 . S
H586 C599 0.930 . S
H587 C600 0.930 . S
H588 C604 0.959 . S
H589 C604 0.959 . S
H590 C604 0.961 . S
H591 C605 0.960 . S
H592 C605 0.961 . S
H593 C605 0.959 . S
H594 C608 0.929 . S
H595 C609 0.931 . S
H596 C611 0.930 . S
C597 H585 0.930 . S
C597 C598 1.399 . S
C597 C602 1.399 . S
C598 C597 1.399 . S
C598 C599 1.376 . S
C599 H586 0.930 . S
C599 C598 1.376 . S
C599 C600 1.388 . S
C600 H587 0.930 . S
C600 C599 1.388 . S
C600 C601 1.390 . S
C601 C600 1.390 . S
C601 C602 1.394 . S
C601 C607 1.465 . S
C602 C597 1.399 . S
C602 C601 1.394 . S
C602 C603 1.516 . S
C603 C602 1.516 . S
C603 C604 1.502 . S
C603 C605 1.561 . S
C603 C606 1.526 . S
C604 H588 0.959 . S
C604 H589 0.959 . S
C604 H590 0.961 . S
C604 C603 1.502 . S
C605 H591 0.960 . S
C605 H592 0.961 . S
C605 H593 0.959 . S
C605 C603 1.561 . S
C606 C603 1.526 . S
C606 C607 1.396 . S
C606 C611 1.390 . S
C607 C601 1.465 . S
C607 C606 1.396 . S
C607 C608 1.399 . S
C608 H594 0.929 . S
C608 C607 1.399 . S
C608 C609 1.385 . S
C609 H595 0.931 . S
C609 C608 1.385 . S
C609 C610 1.389 . S
C610 C609 1.389 . S
C610 C611 1.387 . S
C611 H596 0.930 . S
C611 C606 1.390 . S
C611 C610 1.387 . S
H612 C624 0.930 . S
H613 C626 0.930 . S
H614 C627 0.930 . S
H615 C631 0.959 . S
H616 C631 0.959 . S
H617 C631 0.961 . S
H618 C632 0.960 . S
H619 C632 0.961 . S
H620 C632 0.959 . S
H621 C635 0.929 . S
H622 C636 0.931 . S
H623 C638 0.930 . S
C624 H612 0.930 . S
C624 C625 1.399 . S
C624 C629 1.399 . S
C625 C624 1.399 . S
C625 C626 1.376 . S
C626 H613 0.930 . S
C626 C625 1.376 . S
C626 C627 1.388 . S
C627 H614 0.930 . S
C627 C626 1.388 . S
C627 C628 1.390 . S
C628 C627 1.390 . S
C628 C629 1.394 . S
C628 C634 1.465 . S
C629 C624 1.399 . S
C629 C628 1.394 . S
C629 C630 1.516 . S
C630 C629 1.516 . S
C630 C631 1.502 . S
C630 C632 1.561 . S
C630 C633 1.526 . S
C631 H615 0.959 . S
C631 H616 0.959 . S
C631 H617 0.961 . S
C631 C630 1.502 . S
C632 H618 0.960 . S
C632 H619 0.961 . S
C632 H620 0.959 . S
C632 C630 1.561 . S
C633 C630 1.526 . S
C633 C634 1.396 . S
C633 C638 1.390 . S
C634 C628 1.465 . S
C634 C633 1.396 . S
C634 C635 1.399 . S
C635 H621 0.929 . S
C635 C634 1.399 . S
C635 C636 1.385 . S
C636 H622 0.931 . S
C636 C635 1.385 . S
C636 C637 1.389 . S
C637 C636 1.389 . S
C637 C638 1.387 . S
C638 H623 0.930 . S
C638 C633 1.390 . S
C638 C637 1.387 . S
H639 C651 0.930 . S
H640 C653 0.930 . S
H641 C654 0.930 . S
H642 C658 0.959 . S
H643 C658 0.959 . S
H644 C658 0.961 . S
H645 C659 0.960 . S
H646 C659 0.961 . S
H647 C659 0.959 . S
H648 C662 0.929 . S
H649 C663 0.931 . S
H650 C665 0.930 . S
C651 H639 0.930 . S
C651 C652 1.399 . S
C651 C656 1.399 . S
C652 C651 1.399 . S
C652 C653 1.376 . S
C653 H640 0.930 . S
C653 C652 1.376 . S
C653 C654 1.388 . S
C654 H641 0.930 . S
C654 C653 1.388 . S
C654 C655 1.390 . S
C655 C654 1.390 . S
C655 C656 1.394 . S
C655 C661 1.465 . S
C656 C651 1.399 . S
C656 C655 1.394 . S
C656 C657 1.516 . S
C657 C656 1.516 . S
C657 C658 1.502 . S
C657 C659 1.561 . S
C657 C660 1.526 . S
C658 H642 0.959 . S
C658 H643 0.959 . S
C658 H644 0.961 . S
C658 C657 1.502 . S
C659 H645 0.960 . S
C659 H646 0.961 . S
C659 H647 0.959 . S
C659 C657 1.561 . S
C660 C657 1.526 . S
C660 C661 1.396 . S
C660 C665 1.390 . S
C661 C655 1.465 . S
C661 C660 1.396 . S
C661 C662 1.399 . S
C662 H648 0.929 . S
C662 C661 1.399 . S
C662 C663 1.385 . S
C663 H649 0.931 . S
C663 C662 1.385 . S
C663 C664 1.389 . S
C664 C663 1.389 . S
C664 C665 1.387 . S
C665 H650 0.930 . S
C665 C660 1.390 . S
C665 C664 1.387 . S
H666 C678 0.930 . S
H667 C680 0.930 . S
H668 C681 0.930 . S
H669 C685 0.959 . S
H670 C685 0.959 . S
H671 C685 0.961 . S
H672 C686 0.960 . S
H673 C686 0.961 . S
H674 C686 0.959 . S
H675 C689 0.929 . S
H676 C690 0.931 . S
H677 C692 0.930 . S
C678 H666 0.930 . S
C678 C679 1.399 . S
C678 C683 1.399 . S
C679 C678 1.399 . S
C679 C680 1.376 1_554 S
C680 H667 0.930 . S
C680 C679 1.376 1_556 S
C680 C681 1.388 . S
C681 H668 0.930 . S
C681 C680 1.388 . S
C681 C682 1.410 . S
C682 C681 1.410 . S
C682 C683 1.368 1_556 S
C682 C688 1.465 . S
C683 C678 1.399 . S
C683 C682 1.368 1_554 S
C683 C684 1.516 . S
C684 C683 1.516 . S
C684 C685 1.502 . S
C684 C686 1.561 . S
C684 C687 1.526 . S
C685 H669 0.959 . S
C685 H670 0.959 . S
C685 H671 0.961 . S
C685 C684 1.502 . S
C686 H672 0.960 . S
C686 H673 0.961 . S
C686 H674 0.959 . S
C686 C684 1.561 . S
C687 C684 1.526 . S
C687 C688 1.358 1_554 S
C687 C692 1.390 . S
C688 C682 1.465 . S
C688 C687 1.358 1_556 S
C688 C689 1.430 . S
C689 H675 0.929 . S
C689 C688 1.430 . S
C689 C690 1.385 . S
C690 H676 0.931 . S
C690 C689 1.385 . S
C690 C691 1.389 1_556 S
C691 C690 1.389 1_554 S
C691 C692 1.387 . S
C692 H677 0.930 . S
C692 C687 1.390 . S
C692 C691 1.387 . S
H693 C705 0.930 . S
H694 C707 0.930 . S
H695 C708 0.930 1_655 S
H696 C712 0.959 . S
H697 C712 0.959 . S
H698 C712 0.961 . S
H699 C713 0.960 1_455 S
H700 C713 0.961 . S
H701 C713 0.959 . S
H702 C716 0.929 . S
H703 C717 0.931 . S
H704 C719 0.930 . S
C705 H693 0.930 . S
C705 C706 1.399 . S
C705 C710 1.399 . S
C706 C705 1.399 . S
C706 C707 1.376 . S
C707 H694 0.930 . S
C707 C706 1.376 . S
C707 C708 1.388 . S
C708 H695 0.930 1_455 S
C708 C707 1.388 . S
C708 C709 1.389 . S
C709 C708 1.389 . S
C709 C710 1.396 . S
C709 C715 1.465 1_455 S
C710 C705 1.399 . S
C710 C709 1.396 . S
C710 C711 1.516 . S
C711 C710 1.516 . S
C711 C712 1.502 . S
C711 C713 1.561 1_455 S
C711 C714 1.526 1_455 S
C712 H696 0.959 . S
C712 H697 0.959 . S
C712 H698 0.961 . S
C712 C711 1.502 . S
C713 H699 0.960 1_655 S
C713 H700 0.961 . S
C713 H701 0.959 . S
C713 C711 1.561 1_655 S
C714 C711 1.526 1_655 S
C714 C715 1.396 . S
C714 C719 1.390 . S
C715 C709 1.465 1_655 S
C715 C714 1.396 . S
C715 C716 1.399 . S
C716 H702 0.929 . S
C716 C715 1.399 . S
C716 C717 1.385 . S
C717 H703 0.931 . S
C717 C716 1.385 . S
C717 C718 1.389 . S
C718 C717 1.389 . S
C718 C719 1.387 . S
C719 H704 0.930 . S
C719 C714 1.390 . S
C719 C718 1.387 . S
H720 C732 0.930 . S
H721 C734 0.930 . S
H722 C735 0.931 1_565 S
H723 C739 0.959 . S
H724 C739 0.959 . S
H725 C739 0.961 . S
H726 C740 0.960 . S
H727 C740 0.961 . S
H728 C740 0.959 . S
H729 C743 0.929 . S
H730 C744 0.931 . S
H731 C746 0.930 . S
C732 H720 0.930 . S
C732 C733 1.399 . S
C732 C737 1.399 . S
C733 C732 1.399 . S
C733 C734 1.376 . S
C734 H721 0.930 . S
C734 C733 1.376 . S
C734 C735 1.388 . S
C735 H722 0.931 1_545 S
C735 C734 1.388 . S
C735 C736 1.390 . S
C736 C735 1.390 . S
C736 C737 1.394 . S
C736 C742 1.465 1_545 S
C737 C732 1.399 . S
C737 C736 1.394 . S
C737 C738 1.516 . S
C738 C737 1.516 . S
C738 C739 1.502 . S
C738 C740 1.561 1_545 S
C738 C741 1.526 1_545 S
C739 H723 0.959 . S
C739 H724 0.959 . S
C739 H725 0.961 . S
C739 C738 1.502 . S
C740 H726 0.960 . S
C740 H727 0.961 . S
C740 H728 0.959 . S
C740 C738 1.561 1_565 S
C741 C738 1.526 1_565 S
C741 C742 1.396 . S
C741 C746 1.390 . S
C742 C736 1.465 1_565 S
C742 C741 1.396 . S
C742 C743 1.399 . S
C743 H729 0.929 . S
C743 C742 1.399 . S
C743 C744 1.385 . S
C744 H730 0.931 . S
C744 C743 1.385 . S
C744 C745 1.389 . S
C745 C744 1.389 . S
C745 C746 1.387 . S
C746 H731 0.930 . S
C746 C741 1.390 . S
C746 C745 1.387 . S
H747 C759 0.930 . S
H748 C761 0.930 . S
H749 C762 0.930 . S
H750 C766 0.959 . S
H751 C766 0.959 . S
H752 C766 0.961 . S
H753 C767 0.960 . S
H754 C767 0.961 . S
H755 C767 0.959 . S
H756 C770 0.929 . S
H757 C771 0.931 . S
H758 C773 0.930 . S
C759 H747 0.930 . S
C759 C760 1.399 . S
C759 C764 1.399 . S
C760 C759 1.399 . S
C760 C761 1.376 . S
C761 H748 0.930 . S
C761 C760 1.376 . S
C761 C762 1.388 . S
C762 H749 0.930 . S
C762 C761 1.388 . S
C762 C763 1.390 . S
C763 C762 1.390 . S
C763 C764 1.394 . S
C763 C769 1.465 . S
C764 C759 1.399 . S
C764 C763 1.394 . S
C764 C765 1.516 . S
C765 C764 1.516 . S
C765 C766 1.502 . S
C765 C767 1.561 . S
C765 C768 1.526 . S
C766 H750 0.959 . S
C766 H751 0.959 . S
C766 H752 0.961 . S
C766 C765 1.502 . S
C767 H753 0.960 . S
C767 H754 0.961 . S
C767 H755 0.959 . S
C767 C765 1.561 . S
C768 C765 1.526 . S
C768 C769 1.396 . S
C768 C773 1.390 . S
C769 C763 1.465 . S
C769 C768 1.396 . S
C769 C770 1.399 . S
C770 H756 0.929 . S
C770 C769 1.399 . S
C770 C771 1.385 . S
C771 H757 0.931 . S
C771 C770 1.385 . S
C771 C772 1.389 . S
C772 C771 1.389 . S
C772 C773 1.387 . S
C773 H758 0.930 . S
C773 C768 1.390 . S
C773 C772 1.387 . S
H774 C786 0.930 . S
H775 C788 0.930 . S
H776 C789 0.930 . S
H777 C793 0.959 . S
H778 C793 0.959 . S
H779 C793 0.961 . S
H780 C794 0.960 1_455 S
H781 C794 0.961 . S
H782 C794 0.959 1_455 S
H783 C797 0.929 1_455 S
H784 C798 0.931 . S
H785 C800 0.930 . S
C786 H774 0.930 . S
C786 C787 1.399 . S
C786 C791 1.399 . S
C787 C786 1.399 . S
C787 C788 1.376 1_554 S
C788 H775 0.930 . S
C788 C787 1.376 1_556 S
C788 C789 1.388 . S
C789 H776 0.930 . S
C789 C788 1.388 . S
C789 C790 1.390 1_556 S
C790 C789 1.390 1_554 S
C790 C791 1.394 . S
C790 C796 1.457 1_455 S
C791 C786 1.399 . S
C791 C790 1.394 . S
C791 C792 1.516 1_455 S
C792 C791 1.516 1_655 S
C792 C793 1.502 . S
C792 C794 1.561 . S
C792 C795 1.526 . S
C793 H777 0.959 . S
C793 H778 0.959 . S
C793 H779 0.961 . S
C793 C792 1.502 . S
C794 H780 0.960 1_655 S
C794 H781 0.961 . S
C794 H782 0.959 1_655 S
C794 C792 1.561 . S
C795 C792 1.526 . S
C795 C796 1.401 . S
C795 C800 1.390 . S
C796 C790 1.457 1_655 S
C796 C795 1.401 . S
C796 C797 1.403 1_554 S
C797 H783 0.929 1_655 S
C797 C796 1.403 1_556 S
C797 C798 1.385 . S
C798 H784 0.931 . S
C798 C797 1.385 . S
C798 C799 1.389 1_556 S
C799 C798 1.389 1_554 S
C799 C800 1.387 . S
C800 H785 0.930 . S
C800 C795 1.390 . S
C800 C799 1.387 . S
H801 C813 0.930 . S
H802 C815 0.930 . S
H803 C816 0.930 . S
H804 C820 0.959 . S
H805 C820 0.959 . S
H806 C820 0.961 . S
H807 C821 0.960 1_565 S
H808 C821 0.960 . S
H809 C821 0.961 1_565 S
H810 C824 0.929 1_565 S
H811 C825 0.931 . S
H812 C827 0.930 . S
C813 H801 0.930 . S
C813 C814 1.399 . S
C813 C818 1.399 . S
C814 C813 1.399 . S
C814 C815 1.376 . S
C815 H802 0.930 . S
C815 C814 1.376 . S
C815 C816 1.388 . S
C816 H803 0.930 . S
C816 C815 1.388 . S
C816 C817 1.390 . S
C817 C816 1.390 . S
C817 C818 1.394 . S
C817 C823 1.463 1_565 S
C818 C813 1.399 . S
C818 C817 1.394 . S
C818 C819 1.516 1_565 S
C819 C818 1.516 1_545 S
C819 C820 1.502 . S
C819 C821 1.560 . S
C819 C822 1.526 . S
C820 H804 0.959 . S
C820 H805 0.959 . S
C820 H806 0.961 . S
C820 C819 1.502 . S
C821 H807 0.960 1_545 S
C821 H808 0.960 . S
C821 H809 0.961 1_545 S
C821 C819 1.560 . S
C822 C819 1.526 . S
C822 C823 1.411 . S
C822 C827 1.390 . S
C823 C817 1.463 1_545 S
C823 C822 1.411 . S
C823 C824 1.390 . S
C824 H810 0.929 1_545 S
C824 C823 1.390 . S
C824 C825 1.385 . S
C825 H811 0.931 . S
C825 C824 1.385 . S
C825 C826 1.389 . S
C826 C825 1.389 . S
C826 C827 1.387 . S
C827 H812 0.930 . S
C827 C822 1.390 . S
C827 C826 1.387 . S
H828 C840 0.930 . S
H829 C842 0.930 . S
H830 C843 0.930 . S
H831 C847 0.959 . S
H832 C847 0.959 . S
H833 C847 0.961 . S
H834 C848 0.960 . S
H835 C848 0.961 . S
H836 C848 0.959 . S
H837 C851 0.929 . S
H838 C852 0.931 . S
H839 C854 0.930 . S
C840 H828 0.930 . S
C840 C841 1.399 . S
C840 C845 1.399 . S
C841 C840 1.399 . S
C841 C842 1.376 . S
C842 H829 0.930 . S
C842 C841 1.376 . S
C842 C843 1.388 . S
C843 H830 0.930 . S
C843 C842 1.388 . S
C843 C844 1.390 . S
C844 C843 1.390 . S
C844 C845 1.394 . S
C844 C850 1.465 . S
C845 C840 1.399 . S
C845 C844 1.394 . S
C845 C846 1.516 . S
C846 C845 1.516 . S
C846 C847 1.502 . S
C846 C848 1.561 . S
C846 C849 1.526 . S
C847 H831 0.959 . S
C847 H832 0.959 . S
C847 H833 0.961 . S
C847 C846 1.502 . S
C848 H834 0.960 . S
C848 H835 0.961 . S
C848 H836 0.959 . S
C848 C846 1.561 . S
C849 C846 1.526 . S
C849 C850 1.396 . S
C849 C854 1.390 . S
C850 C844 1.465 . S
C850 C849 1.396 . S
C850 C851 1.399 . S
C851 H837 0.929 . S
C851 C850 1.399 . S
C851 C852 1.385 . S
C852 H838 0.931 . S
C852 C851 1.385 . S
C852 C853 1.389 . S
C853 C852 1.389 . S
C853 C854 1.387 . S
C854 H839 0.930 . S
C854 C849 1.390 . S
C854 C853 1.387 . S
H855 C867 0.930 1_655 S
H856 C869 0.930 . S
H857 C870 0.930 . S
H858 C874 0.959 . S
H859 C874 0.959 . S
H860 C874 0.961 . S
H861 C875 0.960 . S
H862 C875 0.961 . S
H863 C875 0.959 . S
H864 C878 0.929 . S
H865 C879 0.931 . S
H866 C881 0.930 . S
C867 H855 0.930 1_455 S
C867 C868 1.399 . S
C867 C872 1.399 . S
C868 C867 1.399 . S
C868 C869 1.376 . S
C869 H856 0.930 . S
C869 C868 1.376 . S
C869 C870 1.388 . S
C870 H857 0.930 . S
C870 C869 1.388 . S
C870 C871 1.390 . S
C871 C870 1.390 . S
C871 C872 1.394 . S
C871 C877 1.465 . S
C872 C867 1.399 . S
C872 C871 1.394 . S
C872 C873 1.516 . S
C873 C872 1.516 . S
C873 C874 1.502 . S
C873 C875 1.561 1_455 S
C873 C876 1.526 . S
C874 H858 0.959 . S
C874 H859 0.959 . S
C874 H860 0.961 . S
C874 C873 1.502 . S
C875 H861 0.960 . S
C875 H862 0.961 . S
C875 H863 0.959 . S
C875 C873 1.561 1_655 S
C876 C873 1.526 . S
C876 C877 1.396 . S
C876 C881 1.390 . S
C877 C871 1.465 . S
C877 C876 1.396 . S
C877 C878 1.399 . S
C878 H864 0.929 . S
C878 C877 1.399 . S
C878 C879 1.385 . S
C879 H865 0.931 . S
C879 C878 1.385 . S
C879 C880 1.389 . S
C880 C879 1.389 . S
C880 C881 1.387 . S
C881 H866 0.930 . S
C881 C876 1.390 . S
C881 C880 1.387 . S
H882 C894 0.930 . S
H883 C896 0.930 . S
H884 C897 0.930 . S
H885 C901 0.959 . S
H886 C901 0.959 . S
H887 C901 0.961 . S
H888 C902 0.960 1_565 S
H889 C902 0.961 . S
H890 C902 0.959 1_565 S
H891 C905 0.929 . S
H892 C906 0.931 . S
H893 C908 0.930 . S
C894 H882 0.930 . S
C894 C895 1.397 . S
C894 C899 1.399 . S
C895 C894 1.397 . S
C895 C896 1.386 . S
C896 H883 0.930 . S
C896 C895 1.386 . S
C896 C897 1.388 . S
C897 H884 0.930 . S
C897 C896 1.388 . S
C897 C898 1.390 . S
C898 C897 1.390 . S
C898 C899 1.394 . S
C898 C904 1.465 . S
C899 C894 1.399 . S
C899 C898 1.394 . S
C899 C900 1.516 . S
C900 C899 1.516 . S
C900 C901 1.502 . S
C900 C902 1.561 . S
C900 C903 1.526 . S
C901 H885 0.959 . S
C901 H886 0.959 . S
C901 H887 0.961 . S
C901 C900 1.502 . S
C902 H888 0.960 1_545 S
C902 H889 0.961 . S
C902 H890 0.959 1_545 S
C902 C900 1.561 . S
C903 C900 1.526 . S
C903 C904 1.396 . S
C903 C908 1.390 . S
C904 C898 1.465 . S
C904 C903 1.396 . S
C904 C905 1.399 . S
C905 H891 0.929 . S
C905 C904 1.399 . S
C905 C906 1.385 . S
C906 H892 0.931 . S
C906 C905 1.385 . S
C906 C907 1.389 . S
C907 C906 1.389 . S
C907 C908 1.387 . S
C908 H893 0.930 . S
C908 C903 1.390 . S
C908 C907 1.387 . S
H909 C921 0.930 . S
H910 C923 0.930 . S
H911 C924 0.930 . S
H912 C928 0.959 . S
H913 C928 0.959 . S
H914 C928 0.961 . S
H915 C929 0.960 . S
H916 C929 0.961 . S
H917 C929 0.959 . S
H918 C932 0.929 . S
H919 C933 0.931 . S
H920 C935 0.930 . S
C921 H909 0.930 . S
C921 C922 1.399 . S
C921 C926 1.399 . S
C922 C921 1.399 . S
C922 C923 1.376 . S
C923 H910 0.930 . S
C923 C922 1.376 . S
C923 C924 1.388 . S
C924 H911 0.930 . S
C924 C923 1.388 . S
C924 C925 1.390 . S
C925 C924 1.390 . S
C925 C926 1.394 . S
C925 C931 1.465 . S
C926 C921 1.399 . S
C926 C925 1.394 . S
C926 C927 1.516 . S
C927 C926 1.516 . S
C927 C928 1.502 . S
C927 C929 1.561 . S
C927 C930 1.526 . S
C928 H912 0.959 . S
C928 H913 0.959 . S
C928 H914 0.961 . S
C928 C927 1.502 . S
C929 H915 0.960 . S
C929 H916 0.961 . S
C929 H917 0.959 . S
C929 C927 1.561 . S
C930 C927 1.526 . S
C930 C931 1.396 . S
C930 C935 1.390 . S
C931 C925 1.465 . S
C931 C930 1.396 . S
C931 C932 1.399 . S
C932 H918 0.929 . S
C932 C931 1.399 . S
C932 C933 1.385 . S
C933 H919 0.931 . S
C933 C932 1.385 . S
C933 C934 1.389 . S
C934 C933 1.389 . S
C934 C935 1.387 . S
C935 H920 0.930 . S
C935 C930 1.390 . S
C935 C934 1.387 . S
H936 C948 0.930 . S
H937 C950 0.930 . S
H938 C951 0.930 . S
H939 C955 0.959 . S
H940 C955 0.959 . S
H941 C955 0.961 . S
H942 C956 0.960 . S
H943 C956 0.961 . S
H944 C956 0.959 . S
H945 C959 0.929 . S
H946 C960 0.931 . S
H947 C962 0.930 . S
C948 H936 0.930 . S
C948 C949 1.399 . S
C948 C953 1.399 . S
C949 C948 1.399 . S
C949 C950 1.376 . S
C950 H937 0.930 . S
C950 C949 1.376 . S
C950 C951 1.388 . S
C951 H938 0.930 . S
C951 C950 1.388 . S
C951 C952 1.390 . S
C952 C951 1.390 . S
C952 C953 1.394 . S
C952 C958 1.465 . S
C953 C948 1.399 . S
C953 C952 1.394 . S
C953 C954 1.516 . S
C954 C953 1.516 . S
C954 C955 1.502 . S
C954 C956 1.561 . S
C954 C957 1.526 . S
C955 H939 0.959 . S
C955 H940 0.959 . S
C955 H941 0.961 . S
C955 C954 1.502 . S
C956 H942 0.960 . S
C956 H943 0.961 . S
C956 H944 0.959 . S
C956 C954 1.561 . S
C957 C954 1.526 . S
C957 C958 1.396 . S
C957 C962 1.390 . S
C958 C952 1.465 . S
C958 C957 1.396 . S
C958 C959 1.399 . S
C959 H945 0.929 . S
C959 C958 1.399 . S
C959 C960 1.385 . S
C960 H946 0.931 . S
C960 C959 1.385 . S
C960 C961 1.389 . S
C961 C960 1.389 . S
C961 C962 1.387 . S
C962 H947 0.930 . S
C962 C957 1.390 . S
C962 C961 1.387 . S
H963 C975 0.930 . S
H964 C977 0.930 . S
H965 C978 0.930 . S
H966 C982 0.959 . S
H967 C982 0.959 . S
H968 C982 0.961 . S
H969 C983 0.960 . S
H970 C983 0.961 . S
H971 C983 0.959 . S
H972 C986 0.929 . S
H973 C987 0.931 . S
H974 C989 0.930 . S
C975 H963 0.930 . S
C975 C976 1.399 1_565 S
C975 C980 1.399 . S
C976 C975 1.399 1_545 S
C976 C977 1.376 . S
C977 H964 0.930 . S
C977 C976 1.376 . S
C977 C978 1.388 . S
C978 H965 0.930 . S
C978 C977 1.388 . S
C978 C979 1.390 1_545 S
C979 C978 1.390 1_565 S
C979 C980 1.394 . S
C979 C985 1.465 . S
C980 C975 1.399 . S
C980 C979 1.394 . S
C980 C981 1.516 . S
C981 C980 1.516 . S
C981 C982 1.502 . S
C981 C983 1.561 . S
C981 C984 1.526 . S
C982 H966 0.959 . S
C982 H967 0.959 . S
C982 H968 0.961 . S
C982 C981 1.502 . S
C983 H969 0.960 . S
C983 H970 0.961 . S
C983 H971 0.959 . S
C983 C981 1.561 . S
C984 C981 1.526 . S
C984 C985 1.396 . S
C984 C989 1.390 . S
C985 C979 1.465 . S
C985 C984 1.396 . S
C985 C986 1.399 . S
C986 H972 0.929 . S
C986 C985 1.399 . S
C986 C987 1.385 . S
C987 H973 0.931 . S
C987 C986 1.385 . S
C987 C988 1.389 . S
C988 C987 1.389 . S
C988 C989 1.387 . S
C989 H974 0.930 . S
C989 C984 1.390 . S
C989 C988 1.387 . S
C517 C403 1.206 . S
C529 C58 1.017 . S
C544 C487 1.183 . S
C556 C142 1.088 . S
C571 C67 1.103 . S
C583 C226 1.099 . S
C598 C151 1.204 . S
C610 C310 1.037 . S
C625 C235 1.087 . S
C637 C394 0.973 . S
C652 C319 1.199 . S
C664 C478 0.962 . S
C679 C74 1.836 . S
C691 C326 1.817 . S
C706 C410 1.835 . S
C718 C158 1.811 . S
C733 C494 1.836 . S
C745 C242 1.818 . S
C760 C231 1.834 . S
C772 C483 1.800 . S
C787 C63 1.762 . S
C799 C315 1.804 . S
C814 C399 1.762 . S
C826 C147 1.802 . S
C841 C476 1.279 . S
C853 C70 1.147 . S
C868 C154 1.261 1_455 S
C880 C56 1.163 . S
C895 C238 1.237 1_545 S
C907 C140 1.173 . S
C922 C224 1.262 . S
C934 C322 1.177 . S
C949 C406 1.186 1_655 S
C961 C308 1.253 . S
C976 C490 1.145 . S
C988 C392 1.272 . S
