# Generated by pormake.
# Topology uoi, (4)-cn, num edge types: 1
# Building blocks:
#     Node 0, Type 0, BuildingBlock: GALJAG_clean_sbu_0, # of connection points: 4
#     Node 1, Type 0, BuildingBlock: GALJAG_clean_sbu_0, # of connection points: 4
#     Node 2, Type 0, BuildingBlock: GALJAG_clean_sbu_0, # of connection points: 4
#     Node 3, Type 0, BuildingBlock: GALJAG_clean_sbu_0, # of connection points: 4
#     Node 4, Type 0, BuildingBlock: GALJAG_clean_sbu_0, # of connection points: 4
#     Node 5, Type 0, BuildingBlock: GALJAG_clean_sbu_0, # of connection points: 4
#     Node 6, Type 0, BuildingBlock: GALJAG_clean_sbu_0, # of connection points: 4
#     Node 7, Type 0, BuildingBlock: GALJAG_clean_sbu_0, # of connection points: 4
#     Node 8, Type 0, BuildingBlock: GALJAG_clean_sbu_0, # of connection points: 4
#     Node 9, Type 0, BuildingBlock: GALJAG_clean_sbu_0, # of connection points: 4
#     Node 10, Type 0, BuildingBlock: GALJAG_clean_sbu_0, # of connection points: 4
#     Node 11, Type 0, BuildingBlock: GALJAG_clean_sbu_0, # of connection points: 4
#     Node 12, Type 0, BuildingBlock: GALJAG_clean_sbu_0, # of connection points: 4
#     Node 13, Type 0, BuildingBlock: GALJAG_clean_sbu_0, # of connection points: 4
#     Node 14, Type 0, BuildingBlock: GALJAG_clean_sbu_0, # of connection points: 4
#     Node 15, Type 0, BuildingBlock: GALJAG_clean_sbu_0, # of connection points: 4
#     Node 16, Type 0, BuildingBlock: GALJAG_clean_sbu_0, # of connection points: 4
#     Node 17, Type 0, BuildingBlock: GALJAG_clean_sbu_0, # of connection points: 4
#     Node 18, Type 0, BuildingBlock: GALJAG_clean_sbu_0, # of connection points: 4
#     Node 19, Type 0, BuildingBlock: GALJAG_clean_sbu_0, # of connection points: 4
#     Node 20, Type 0, BuildingBlock: GALJAG_clean_sbu_0, # of connection points: 4
#     Node 21, Type 0, BuildingBlock: GALJAG_clean_sbu_0, # of connection points: 4
#     Node 22, Type 0, BuildingBlock: GALJAG_clean_sbu_0, # of connection points: 4
#     Node 23, Type 0, BuildingBlock: GALJAG_clean_sbu_0, # of connection points: 4
#     Node 24, Type 0, BuildingBlock: GALJAG_clean_sbu_0, # of connection points: 4
#     Node 25, Type 0, BuildingBlock: GALJAG_clean_sbu_0, # of connection points: 4
#     Node 26, Type 0, BuildingBlock: GALJAG_clean_sbu_0, # of connection points: 4
#     Node 27, Type 0, BuildingBlock: GALJAG_clean_sbu_0, # of connection points: 4
#     Node 28, Type 0, BuildingBlock: GALJAG_clean_sbu_0, # of connection points: 4
#     Node 29, Type 0, BuildingBlock: GALJAG_clean_sbu_0, # of connection points: 4
#     Node 30, Type 0, BuildingBlock: GALJAG_clean_sbu_0, # of connection points: 4
#     Node 31, Type 0, BuildingBlock: GALJAG_clean_sbu_0, # of connection points: 4
#     Edge 32, Type (0, 0), BuildingBlock: KIFKEQ_clean_linker_1, # of connection points: 2
#     Edge 33, Type (0, 0), BuildingBlock: KIFKEQ_clean_linker_1, # of connection points: 2
#     Edge 34, Type (0, 0), BuildingBlock: KIFKEQ_clean_linker_1, # of connection points: 2
#     Edge 35, Type (0, 0), BuildingBlock: KIFKEQ_clean_linker_1, # of connection points: 2
#     Edge 36, Type (0, 0), BuildingBlock: KIFKEQ_clean_linker_1, # of connection points: 2
#     Edge 37, Type (0, 0), BuildingBlock: KIFKEQ_clean_linker_1, # of connection points: 2
#     Edge 38, Type (0, 0), BuildingBlock: KIFKEQ_clean_linker_1, # of connection points: 2
#     Edge 39, Type (0, 0), BuildingBlock: KIFKEQ_clean_linker_1, # of connection points: 2
#     Edge 40, Type (0, 0), BuildingBlock: KIFKEQ_clean_linker_1, # of connection points: 2
#     Edge 41, Type (0, 0), BuildingBlock: KIFKEQ_clean_linker_1, # of connection points: 2
#     Edge 42, Type (0, 0), BuildingBlock: KIFKEQ_clean_linker_1, # of connection points: 2
#     Edge 43, Type (0, 0), BuildingBlock: KIFKEQ_clean_linker_1, # of connection points: 2
#     Edge 44, Type (0, 0), BuildingBlock: KIFKEQ_clean_linker_1, # of connection points: 2
#     Edge 45, Type (0, 0), BuildingBlock: KIFKEQ_clean_linker_1, # of connection points: 2
#     Edge 46, Type (0, 0), BuildingBlock: KIFKEQ_clean_linker_1, # of connection points: 2
#     Edge 47, Type (0, 0), BuildingBlock: KIFKEQ_clean_linker_1, # of connection points: 2
#     Edge 48, Type (0, 0), BuildingBlock: KIFKEQ_clean_linker_1, # of connection points: 2
#     Edge 49, Type (0, 0), BuildingBlock: KIFKEQ_clean_linker_1, # of connection points: 2
#     Edge 50, Type (0, 0), BuildingBlock: KIFKEQ_clean_linker_1, # of connection points: 2
#     Edge 51, Type (0, 0), BuildingBlock: KIFKEQ_clean_linker_1, # of connection points: 2
#     Edge 52, Type (0, 0), BuildingBlock: KIFKEQ_clean_linker_1, # of connection points: 2
#     Edge 53, Type (0, 0), BuildingBlock: KIFKEQ_clean_linker_1, # of connection points: 2
#     Edge 54, Type (0, 0), BuildingBlock: KIFKEQ_clean_linker_1, # of connection points: 2
#     Edge 55, Type (0, 0), BuildingBlock: KIFKEQ_clean_linker_1, # of connection points: 2
#     Edge 56, Type (0, 0), BuildingBlock: KIFKEQ_clean_linker_1, # of connection points: 2
#     Edge 57, Type (0, 0), BuildingBlock: KIFKEQ_clean_linker_1, # of connection points: 2
#     Edge 58, Type (0, 0), BuildingBlock: KIFKEQ_clean_linker_1, # of connection points: 2
#     Edge 59, Type (0, 0), BuildingBlock: KIFKEQ_clean_linker_1, # of connection points: 2
#     Edge 60, Type (0, 0), BuildingBlock: KIFKEQ_clean_linker_1, # of connection points: 2
#     Edge 61, Type (0, 0), BuildingBlock: KIFKEQ_clean_linker_1, # of connection points: 2
#     Edge 62, Type (0, 0), BuildingBlock: KIFKEQ_clean_linker_1, # of connection points: 2
#     Edge 63, Type (0, 0), BuildingBlock: KIFKEQ_clean_linker_1, # of connection points: 2
#     Edge 64, Type (0, 0), BuildingBlock: KIFKEQ_clean_linker_1, # of connection points: 2
#     Edge 65, Type (0, 0), BuildingBlock: KIFKEQ_clean_linker_1, # of connection points: 2
#     Edge 66, Type (0, 0), BuildingBlock: KIFKEQ_clean_linker_1, # of connection points: 2
#     Edge 67, Type (0, 0), BuildingBlock: KIFKEQ_clean_linker_1, # of connection points: 2
#     Edge 68, Type (0, 0), BuildingBlock: KIFKEQ_clean_linker_1, # of connection points: 2
#     Edge 69, Type (0, 0), BuildingBlock: KIFKEQ_clean_linker_1, # of connection points: 2
#     Edge 70, Type (0, 0), BuildingBlock: KIFKEQ_clean_linker_1, # of connection points: 2
#     Edge 71, Type (0, 0), BuildingBlock: KIFKEQ_clean_linker_1, # of connection points: 2
#     Edge 72, Type (0, 0), BuildingBlock: KIFKEQ_clean_linker_1, # of connection points: 2
#     Edge 73, Type (0, 0), BuildingBlock: KIFKEQ_clean_linker_1, # of connection points: 2
#     Edge 74, Type (0, 0), BuildingBlock: KIFKEQ_clean_linker_1, # of connection points: 2
#     Edge 75, Type (0, 0), BuildingBlock: KIFKEQ_clean_linker_1, # of connection points: 2
#     Edge 76, Type (0, 0), BuildingBlock: KIFKEQ_clean_linker_1, # of connection points: 2
#     Edge 77, Type (0, 0), BuildingBlock: KIFKEQ_clean_linker_1, # of connection points: 2
#     Edge 78, Type (0, 0), BuildingBlock: KIFKEQ_clean_linker_1, # of connection points: 2
#     Edge 79, Type (0, 0), BuildingBlock: KIFKEQ_clean_linker_1, # of connection points: 2
#     Edge 80, Type (0, 0), BuildingBlock: KIFKEQ_clean_linker_1, # of connection points: 2
#     Edge 81, Type (0, 0), BuildingBlock: KIFKEQ_clean_linker_1, # of connection points: 2
#     Edge 82, Type (0, 0), BuildingBlock: KIFKEQ_clean_linker_1, # of connection points: 2
#     Edge 83, Type (0, 0), BuildingBlock: KIFKEQ_clean_linker_1, # of connection points: 2
#     Edge 84, Type (0, 0), BuildingBlock: KIFKEQ_clean_linker_1, # of connection points: 2
#     Edge 85, Type (0, 0), BuildingBlock: KIFKEQ_clean_linker_1, # of connection points: 2
#     Edge 86, Type (0, 0), BuildingBlock: KIFKEQ_clean_linker_1, # of connection points: 2
#     Edge 87, Type (0, 0), BuildingBlock: KIFKEQ_clean_linker_1, # of connection points: 2
#     Edge 88, Type (0, 0), BuildingBlock: KIFKEQ_clean_linker_1, # of connection points: 2
#     Edge 89, Type (0, 0), BuildingBlock: KIFKEQ_clean_linker_1, # of connection points: 2
#     Edge 90, Type (0, 0), BuildingBlock: KIFKEQ_clean_linker_1, # of connection points: 2
#     Edge 91, Type (0, 0), BuildingBlock: KIFKEQ_clean_linker_1, # of connection points: 2
#     Edge 92, Type (0, 0), BuildingBlock: KIFKEQ_clean_linker_1, # of connection points: 2
#     Edge 93, Type (0, 0), BuildingBlock: KIFKEQ_clean_linker_1, # of connection points: 2
#     Edge 94, Type (0, 0), BuildingBlock: KIFKEQ_clean_linker_1, # of connection points: 2
#     Edge 95, Type (0, 0), BuildingBlock: KIFKEQ_clean_linker_1, # of connection points: 2
# Relax obj value: 0.180
# Max RMSD: 0.417
# Mean RMSD: 0.267
data_MOF--net-uoi--node1-GALJAG_clean_sbu_0--edge1-KIFKEQ_clean_linker_1
_symmetry_space_group_name_H-M    P1
_symmetry_Int_Tables_number       1
_symmetry_cell_setting            triclinic
loop_
_symmetry_equiv_pos_as_xyz
'x, y, z'
_cell_length_a     45.277219
_cell_length_b     70.01281
_cell_length_c     24.092005
_cell_angle_alpha  89.943655
_cell_angle_beta   90.014285
_cell_angle_gamma 89.985864
loop_
_atom_site_label
_atom_site_type_symbol
_atom_site_fract_x
_atom_site_fract_y
_atom_site_fract_z
_atom_type_partial_charge
In0 In 0.32899 0.23928 0.20737 0.0
O1 O 0.29213 0.24868 0.14806 0.0
O2 O 0.28625 0.22333 0.19573 0.0
C3 C 0.35316 0.27216 0.2421 0.0
C4 C 0.35722 0.22466 0.1194 0.0
C5 C 0.3257 0.22776 0.31273 0.0
O6 O 0.32577 0.27048 0.23286 0.0
O7 O 0.36838 0.25762 0.22984 0.0
O8 O 0.3458 0.2213 0.28111 0.0
O9 O 0.30696 0.23842 0.28951 0.0
C10 C 0.27627 0.23424 0.15854 0.0
O11 O 0.34614 0.21398 0.15642 0.0
O12 O 0.3565 0.24229 0.13018 0.0
In13 In 0.11379 0.93554 0.6384 0.0
O14 O 0.13772 0.9071 0.64007 0.0
O15 O 0.15698 0.92927 0.59219 0.0
C16 C 0.07694 0.92923 0.72392 0.0
C17 C 0.0786 0.92929 0.5499 0.0
C18 C 0.13343 0.97023 0.67023 0.0
O19 O 0.10284 0.9225 0.72296 0.0
O20 O 0.07001 0.93921 0.68229 0.0
O21 O 0.11836 0.96768 0.62676 0.0
O22 O 0.13957 0.95516 0.69662 0.0
C23 C 0.1578 0.91198 0.60675 0.0
O24 O 0.09384 0.94432 0.55478 0.0
O25 O 0.081 0.9177 0.58965 0.0
In26 In 0.14792 0.77391 0.70672 0.0
O27 O 0.12333 0.79254 0.64439 0.0
O28 O 0.11541 0.76271 0.64287 0.0
C29 C 0.1356 0.79542 0.79649 0.0
C30 C 0.19697 0.78176 0.64825 0.0
C31 C 0.15654 0.74106 0.76338 0.0
O32 O 0.11736 0.78361 0.77687 0.0
O33 O 0.15874 0.79744 0.76806 0.0
O34 O 0.17749 0.75083 0.74384 0.0
O35 O 0.1312 0.7471 0.75065 0.0
C36 C 0.11133 0.77868 0.6198 0.0
O37 O 0.18057 0.76769 0.63676 0.0
O38 O 0.18937 0.79114 0.69069 0.0
In39 In 0.37238 0.07272 0.14789 0.0
O40 O 0.39065 0.06185 0.06546 0.0
O41 O 0.40792 0.08779 0.09742 0.0
C42 C 0.34894 0.03886 0.17746 0.0
C43 C 0.33044 0.09842 0.1185 0.0
C44 C 0.40995 0.07571 0.23401 0.0
O45 O 0.36121 0.04168 0.13112 0.0
O46 O 0.34713 0.05346 0.20813 0.0
O47 O 0.38657 0.08555 0.23121 0.0
O48 O 0.41409 0.06454 0.19375 0.0
C49 C 0.40845 0.07554 0.05919 0.0
O50 O 0.3536 0.10293 0.1443 0.0
O51 O 0.32749 0.08075 0.11029 0.0
In52 In 0.24799 0.79294 0.25273 0.0
O53 O 0.27598 0.77987 0.31897 0.0
O54 O 0.2327 0.7683 0.30753 0.0
C55 C 0.20616 0.79792 0.17494 0.0
C56 C 0.23652 0.82044 0.32648 0.0
C57 C 0.29369 0.78259 0.18857 0.0
O58 O 0.22444 0.81073 0.18819 0.0
O59 O 0.20869 0.78242 0.20154 0.0
O60 O 0.27333 0.77135 0.20316 0.0
O61 O 0.29108 0.7996 0.20596 0.0
C62 C 0.25666 0.76802 0.33469 0.0
O63 O 0.22046 0.80593 0.3196 0.0
O64 O 0.25844 0.8218 0.29391 0.0
In65 In 0.37698 0.86827 0.33245 0.0
O66 O 0.34638 0.84254 0.34452 0.0
O67 O 0.34007 0.86679 0.39605 0.0
C68 C 0.40275 0.85744 0.23636 0.0
C69 C 0.41992 0.86186 0.40742 0.0
C70 C 0.35906 0.90428 0.3098 0.0
O71 O 0.37504 0.85794 0.24175 0.0
O72 O 0.41699 0.86209 0.27906 0.0
O73 O 0.37714 0.90044 0.3481 0.0
O74 O 0.34976 0.88994 0.28342 0.0
C75 C 0.33241 0.84996 0.38439 0.0
O76 O 0.41487 0.87828 0.38765 0.0
O77 O 0.40331 0.84878 0.38934 0.0
In78 In 0.22408 0.21164 0.7636 0.0
O79 O 0.18572 0.22261 0.8149 0.0
O80 O 0.22196 0.24152 0.8 0.0
C81 C 0.27396 0.21508 0.70377 0.0
C82 C 0.23711 0.18811 0.84827 0.0
C83 C 0.19056 0.20776 0.67168 0.0
O84 O 0.26271 0.19919 0.71608 0.0
O85 O 0.26115 0.22933 0.72513 0.0
O86 O 0.19239 0.223 0.6991 0.0
O87 O 0.20347 0.19365 0.69363 0.0
C88 C 0.19699 0.23895 0.82255 0.0
O89 O 0.2497 0.20397 0.84075 0.0
O90 O 0.21757 0.18389 0.81271 0.0
In91 In 0.10829 0.13773 0.84704 0.0
O92 O 0.13539 0.16504 0.85854 0.0
O93 O 0.14436 0.14161 0.9119 0.0
C94 C 0.08221 0.1474 0.7502 0.0
C95 C 0.06361 0.14104 0.91986 0.0
C96 C 0.12911 0.10247 0.82314 0.0
O97 O 0.10992 0.14675 0.75524 0.0
O98 O 0.0681 0.14377 0.79387 0.0
O99 O 0.1118 0.10561 0.86317 0.0
O100 O 0.1367 0.11719 0.79653 0.0
C101 C 0.14975 0.15876 0.89958 0.0
O102 O 0.07091 0.12517 0.89895 0.0
O103 O 0.07885 0.15512 0.90396 0.0
In104 In 0.72417 0.79413 0.7663 0.0
O105 O 0.75636 0.80154 0.83317 0.0
O106 O 0.71915 0.82008 0.82341 0.0
C107 C 0.68335 0.79391 0.68614 0.0
C108 C 0.70425 0.76622 0.83219 0.0
C109 C 0.76709 0.7973 0.68967 0.0
O110 O 0.69404 0.77899 0.70755 0.0
O111 O 0.69143 0.80942 0.70868 0.0
O112 O 0.75212 0.81133 0.70661 0.0
O113 O 0.76175 0.78164 0.71421 0.0
C114 C 0.74247 0.81602 0.85021 0.0
O115 O 0.68985 0.78144 0.82339 0.0
O116 O 0.7287 0.76492 0.80663 0.0
In117 In 0.91236 0.12101 0.34464 0.0
O118 O 0.9518 0.11332 0.39927 0.0
O119 O 0.935 0.14175 0.40271 0.0
C120 C 0.8996 0.08489 0.31625 0.0
C121 C 0.86533 0.13327 0.40231 0.0
C122 C 0.93452 0.13525 0.24947 0.0
O123 O 0.91833 0.08888 0.35337 0.0
O124 O 0.88758 0.09913 0.29336 0.0
O125 O 0.90702 0.13412 0.25748 0.0
O126 O 0.95025 0.12945 0.28907 0.0
C127 C 0.95386 0.12987 0.41999 0.0
O128 O 0.87873 0.14382 0.368 0.0
O129 O 0.87484 0.1164 0.40553 0.0
In130 In 0.80528 0.20153 0.34586 0.0
O131 O 0.8404 0.2057 0.41392 0.0
O132 O 0.81154 0.22868 0.39357 0.0
C133 C 0.83373 0.18233 0.26546 0.0
C134 C 0.76894 0.18099 0.41048 0.0
C135 C 0.78265 0.22329 0.26487 0.0
O136 O 0.84617 0.1954 0.29305 0.0
O137 O 0.80904 0.17721 0.2846 0.0
O138 O 0.76701 0.21082 0.28893 0.0
O139 O 0.80805 0.22556 0.285 0.0
C140 C 0.83246 0.22273 0.42338 0.0
O141 O 0.76346 0.1981 0.39731 0.0
O142 O 0.79249 0.17421 0.39045 0.0
In143 In 0.57648 0.8656 0.83111 0.0
O144 O 0.53676 0.87569 0.8811 0.0
O145 O 0.55053 0.84671 0.89021 0.0
C146 C 0.59089 0.90215 0.80605 0.0
C147 C 0.62203 0.84939 0.88655 0.0
C148 C 0.55258 0.85302 0.73491 0.0
O149 O 0.57311 0.89789 0.84442 0.0
O150 O 0.60179 0.888 0.78105 0.0
O151 O 0.5797 0.85684 0.73921 0.0
O152 O 0.53814 0.85484 0.77913 0.0
C153 C 0.53266 0.8597 0.90434 0.0
O154 O 0.61077 0.8416 0.84429 0.0
O155 O 0.6112 0.86542 0.89866 0.0
In156 In 0.7352 0.20984 0.80281 0.0
O157 O 0.70961 0.21594 0.72648 0.0
O158 O 0.74392 0.2359 0.74793 0.0
C159 C 0.772 0.20308 0.88755 0.0
C160 C 0.75865 0.18606 0.7298 0.0
C161 C 0.68595 0.21945 0.85635 0.0
O162 O 0.75405 0.19083 0.86891 0.0
O163 O 0.77131 0.21927 0.86368 0.0
O164 O 0.70649 0.2311 0.84548 0.0
O165 O 0.6904 0.20233 0.84097 0.0
C166 C 0.72437 0.23059 0.71317 0.0
O167 O 0.77115 0.20131 0.74533 0.0
O168 O 0.73469 0.18179 0.7545 0.0
In169 In 0.58487 0.07411 0.64869 0.0
O170 O 0.60317 0.10441 0.63996 0.0
O171 O 0.63297 0.08143 0.62858 0.0
C172 C 0.54784 0.07935 0.73453 0.0
C173 C 0.55177 0.07766 0.55626 0.0
C174 C 0.60099 0.03812 0.6758 0.0
O175 O 0.57389 0.08588 0.73518 0.0
O176 O 0.54087 0.07049 0.69095 0.0
O177 O 0.58936 0.04229 0.62973 0.0
O178 O 0.6056 0.05222 0.70721 0.0
C179 C 0.62905 0.09925 0.62809 0.0
O180 O 0.57496 0.06762 0.55736 0.0
O181 O 0.54574 0.08598 0.60119 0.0
In182 In 0.8311 0.7844 0.18577 0.0
O183 O 0.86046 0.80496 0.13602 0.0
O184 O 0.85551 0.77603 0.10889 0.0
C185 C 0.82176 0.79533 0.29067 0.0
C186 C 0.78166 0.79468 0.13198 0.0
C187 C 0.85369 0.75197 0.22656 0.0
O188 O 0.84287 0.80247 0.26276 0.0
O189 O 0.80492 0.7843 0.26399 0.0
O190 O 0.82743 0.75283 0.20823 0.0
O191 O 0.86877 0.76702 0.22002 0.0
C192 C 0.86622 0.79238 0.09969 0.0
O193 O 0.78959 0.77738 0.13547 0.0
O194 O 0.79811 0.80638 0.15716 0.0
In195 In 0.90526 0.91715 0.14064 0.0
O196 O 0.87914 0.88902 0.13703 0.0
O197 O 0.86031 0.91374 0.10049 0.0
C198 C 0.94461 0.91022 0.22226 0.0
C199 C 0.93854 0.91673 0.04824 0.0
C200 C 0.88649 0.95129 0.1776 0.0
O201 O 0.91792 0.90508 0.22604 0.0
O202 O 0.95134 0.91805 0.17692 0.0
O203 O 0.89604 0.9487 0.12906 0.0
O204 O 0.88546 0.93646 0.20734 0.0
C205 C 0.85789 0.89615 0.11014 0.0
O206 O 0.92614 0.93157 0.06654 0.0
O207 O 0.93398 0.90178 0.07643 0.0
In208 In 0.83751 0.72723 0.68892 0.0
O209 O 0.86681 0.70774 0.63574 0.0
O210 O 0.8603 0.7368 0.61113 0.0
C211 C 0.83009 0.71352 0.79195 0.0
C212 C 0.78872 0.7161 0.63483 0.0
C213 C 0.8567 0.76042 0.73096 0.0
O214 O 0.85343 0.70983 0.76473 0.0
O215 O 0.81072 0.72275 0.76552 0.0
O216 O 0.83026 0.75824 0.71478 0.0
O217 O 0.87347 0.74628 0.72234 0.0
C218 C 0.87121 0.72067 0.59976 0.0
O219 O 0.79492 0.7336 0.64117 0.0
O220 O 0.80649 0.70459 0.6576 0.0
In221 In 0.57439 0.43162 0.19087 0.0
O222 O 0.60863 0.40791 0.18283 0.0
O223 O 0.60908 0.43023 0.12287 0.0
C224 C 0.55091 0.4247 0.2915 0.0
C225 C 0.52973 0.42046 0.12395 0.0
C226 C 0.59509 0.4672 0.20647 0.0
O227 O 0.57327 0.41569 0.27414 0.0
O228 O 0.54072 0.43695 0.25824 0.0
O229 O 0.57727 0.46304 0.16796 0.0
O230 O 0.60287 0.45331 0.23663 0.0
C231 C 0.61996 0.4146 0.13901 0.0
O232 O 0.53519 0.43783 0.13355 0.0
O233 O 0.54658 0.40886 0.14831 0.0
In234 In 0.65017 0.29672 0.25163 0.0
O235 O 0.61596 0.29396 0.18176 0.0
O236 O 0.63732 0.26892 0.21189 0.0
C237 C 0.61861 0.31338 0.33269 0.0
C238 C 0.68836 0.31276 0.18028 0.0
C239 C 0.68158 0.2789 0.33039 0.0
O240 O 0.61108 0.29783 0.31047 0.0
O241 O 0.63882 0.32209 0.30692 0.0
O242 O 0.68776 0.29561 0.31464 0.0
O243 O 0.66119 0.27085 0.30344 0.0
C244 C 0.61953 0.27609 0.1774 0.0
O245 O 0.69165 0.29617 0.19979 0.0
O246 O 0.66581 0.32163 0.19757 0.0
In247 In 0.89706 0.57829 0.65322 0.0
O248 O 0.87085 0.60638 0.65213 0.0
O249 O 0.85356 0.58277 0.60785 0.0
C250 C 0.93584 0.58455 0.73626 0.0
C251 C 0.93185 0.58127 0.56325 0.0
C252 C 0.87725 0.54373 0.68533 0.0
O253 O 0.90929 0.59008 0.73921 0.0
O254 O 0.94257 0.57631 0.69158 0.0
O255 O 0.88807 0.54686 0.63799 0.0
O256 O 0.8755 0.55822 0.71628 0.0
C257 C 0.85089 0.60013 0.62044 0.0
O258 O 0.9199 0.56579 0.57792 0.0
O259 O 0.92618 0.5954 0.594 0.0
In260 In 0.73494 0.30083 0.79718 0.0
O261 O 0.75971 0.29386 0.87388 0.0
O262 O 0.72208 0.27634 0.85551 0.0
C263 C 0.7008 0.3041 0.7068 0.0
C264 C 0.71432 0.33018 0.85619 0.0
C265 C 0.78301 0.2876 0.74616 0.0
O266 O 0.72262 0.31482 0.71665 0.0
O267 O 0.69593 0.29129 0.74302 0.0
O268 O 0.76193 0.27711 0.76206 0.0
O269 O 0.78009 0.3053 0.75637 0.0
C270 C 0.74327 0.28015 0.88838 0.0
O271 O 0.6994 0.31545 0.8448 0.0
O272 O 0.74012 0.33064 0.83552 0.0
In273 In 0.88133 0.37031 0.83512 0.0
O274 O 0.92527 0.37863 0.87332 0.0
O275 O 0.90592 0.35234 0.89924 0.0
C276 C 0.87352 0.4075 0.80984 0.0
C277 C 0.83379 0.36007 0.89618 0.0
C278 C 0.8971 0.35473 0.73631 0.0
O279 O 0.89267 0.40189 0.84422 0.0
O280 O 0.85832 0.39437 0.78827 0.0
O281 O 0.87318 0.3636 0.74313 0.0
O282 O 0.91211 0.35275 0.77988 0.0
C283 C 0.92707 0.36401 0.90399 0.0
O284 O 0.84366 0.34961 0.8577 0.0
O285 O 0.84756 0.37549 0.90277 0.0
In286 In 0.73628 0.71043 0.26741 0.0
O287 O 0.76653 0.7018 0.33728 0.0
O288 O 0.73025 0.68333 0.3198 0.0
C289 C 0.6955 0.70806 0.1867 0.0
C290 C 0.71376 0.73749 0.33364 0.0
C291 C 0.78043 0.71246 0.19257 0.0
O292 O 0.70218 0.72333 0.21129 0.0
O293 O 0.70804 0.69324 0.20557 0.0
O294 O 0.77078 0.69687 0.21141 0.0
O295 O 0.76931 0.72719 0.21467 0.0
C296 C 0.7525 0.68685 0.35002 0.0
O297 O 0.69953 0.72282 0.31895 0.0
O298 O 0.73972 0.73874 0.31413 0.0
In299 In 0.59951 0.64301 0.304 0.0
O300 O 0.55414 0.63172 0.3269 0.0
O301 O 0.56656 0.65891 0.35862 0.0
C302 C 0.61372 0.60572 0.2935 0.0
C303 C 0.64015 0.6601 0.3698 0.0
C304 C 0.58839 0.65445 0.19884 0.0
O305 O 0.59626 0.61182 0.33019 0.0
O306 O 0.6247 0.61849 0.26284 0.0
O307 O 0.6121 0.64627 0.21254 0.0
O308 O 0.57126 0.65797 0.23875 0.0
C309 C 0.54736 0.64583 0.35688 0.0
O310 O 0.63078 0.66794 0.32599 0.0
O311 O 0.62999 0.64367 0.3785 0.0
In312 In 0.23015 0.2933 0.25124 0.0
O313 O 0.2614 0.30036 0.32101 0.0
O314 O 0.22235 0.31728 0.31436 0.0
C315 C 0.18814 0.29564 0.17334 0.0
C316 C 0.21174 0.26289 0.30936 0.0
C317 C 0.27222 0.30045 0.17488 0.0
O318 O 0.20053 0.28017 0.18685 0.0
O319 O 0.19571 0.31007 0.20165 0.0
O320 O 0.25533 0.31306 0.19447 0.0
O321 O 0.2692 0.284 0.19627 0.0
C322 C 0.24589 0.31368 0.34087 0.0
O323 O 0.19617 0.27768 0.30213 0.0
O324 O 0.23679 0.26312 0.28565 0.0
In325 In 0.4225 0.61792 0.8058 0.0
O326 O 0.39363 0.64333 0.83046 0.0
O327 O 0.38866 0.6173 0.87501 0.0
C328 C 0.43626 0.62512 0.69934 0.0
C329 C 0.47077 0.62812 0.86497 0.0
C330 C 0.40184 0.58217 0.79404 0.0
O331 O 0.41488 0.63334 0.72303 0.0
O332 O 0.45053 0.61363 0.72944 0.0
O333 O 0.4236 0.58616 0.82487 0.0
O334 O 0.39033 0.5963 0.76944 0.0
C335 C 0.38117 0.63452 0.86972 0.0
O336 O 0.46305 0.61092 0.85917 0.0
O337 O 0.45465 0.63997 0.83988 0.0
In338 In 0.30867 0.6968 0.8031 0.0
O339 O 0.35036 0.70471 0.85313 0.0
O340 O 0.31486 0.72469 0.84593 0.0
C341 C 0.31877 0.6719 0.72085 0.0
C342 C 0.28027 0.67826 0.8838 0.0
C343 C 0.29041 0.71862 0.71978 0.0
O344 O 0.33955 0.6819 0.74112 0.0
O345 O 0.29489 0.67263 0.74781 0.0
O346 O 0.27172 0.71053 0.75127 0.0
O347 O 0.31704 0.71711 0.73463 0.0
C348 C 0.34012 0.72107 0.86537 0.0
O349 O 0.26995 0.69337 0.86229 0.0
O350 O 0.30456 0.67251 0.86408 0.0
In351 In 0.07492 0.37249 0.34622 0.0
O352 O 0.11131 0.3496 0.35451 0.0
O353 O 0.1018 0.36744 0.42364 0.0
C354 C 0.05097 0.36692 0.24522 0.0
C355 C 0.02723 0.36498 0.40979 0.0
C356 C 0.10068 0.40676 0.328 0.0
O357 O 0.06896 0.35504 0.26587 0.0
O358 O 0.04517 0.38103 0.2757 0.0
O359 O 0.0805 0.40431 0.36348 0.0
O360 O 0.10868 0.39175 0.30314 0.0
C361 C 0.11672 0.35374 0.40461 0.0
O362 O 0.03696 0.38168 0.40232 0.0
O363 O 0.0413 0.35207 0.38457 0.0
In364 In 0.22454 0.70418 0.24683 0.0
O365 O 0.19408 0.69314 0.1793 0.0
O366 O 0.21592 0.72051 0.16995 0.0
C367 C 0.25008 0.69194 0.33951 0.0
C368 C 0.26853 0.69182 0.18639 0.0
C369 C 0.18385 0.72503 0.29609 0.0
O370 O 0.23045 0.6821 0.31449 0.0
O371 O 0.2562 0.70805 0.31777 0.0
O372 O 0.20787 0.73235 0.27856 0.0
O373 O 0.18075 0.70714 0.28864 0.0
C374 C 0.19956 0.70766 0.14874 0.0
O375 O 0.26684 0.70937 0.20051 0.0
O376 O 0.24883 0.68064 0.20563 0.0
In377 In 0.10834 0.57515 0.15385 0.0
O378 O 0.12961 0.60464 0.14964 0.0
O379 O 0.15588 0.58101 0.12575 0.0
C380 C 0.0702 0.58114 0.23755 0.0
C381 C 0.07563 0.57937 0.0609 0.0
C382 C 0.12478 0.53971 0.18602 0.0
O383 O 0.09632 0.58749 0.23885 0.0
O384 O 0.06361 0.57197 0.19429 0.0
O385 O 0.1135 0.54314 0.1391 0.0
O386 O 0.12895 0.55429 0.21581 0.0
C387 C 0.15398 0.59888 0.13098 0.0
O388 O 0.09315 0.56551 0.06766 0.0
O389 O 0.07494 0.59106 0.10058 0.0
In390 In 0.32945 0.29158 0.69608 0.0
O391 O 0.35432 0.3128 0.64051 0.0
O392 O 0.35862 0.28317 0.62382 0.0
C393 C 0.34521 0.3089 0.79133 0.0
C394 C 0.27736 0.29882 0.64581 0.0
C395 C 0.3288 0.25737 0.74795 0.0
O396 O 0.36206 0.2976 0.7658 0.0
O397 O 0.32167 0.31294 0.76592 0.0
O398 O 0.30691 0.26858 0.74876 0.0
O399 O 0.3497 0.26272 0.71696 0.0
C400 C 0.36476 0.30001 0.60933 0.0
O401 O 0.29159 0.28361 0.63706 0.0
O402 O 0.28879 0.30975 0.68143 0.0
In403 In 0.38147 0.40705 0.7003 0.0
O404 O 0.42352 0.41974 0.6643 0.0
O405 O 0.40964 0.39283 0.63316 0.0
C406 C 0.36705 0.44407 0.71628 0.0
C407 C 0.33678 0.38756 0.65158 0.0
C408 C 0.40169 0.39529 0.80005 0.0
O409 O 0.37672 0.43783 0.67066 0.0
O410 O 0.36347 0.43148 0.75318 0.0
O411 O 0.37568 0.40131 0.79311 0.0
O412 O 0.41682 0.39423 0.75624 0.0
C413 C 0.42823 0.40624 0.63086 0.0
O414 O 0.3545 0.37982 0.68513 0.0
O415 O 0.34074 0.40521 0.64495 0.0
H416 H 0.29446 0.24775 0.65749 0.0
H417 H 0.29977 0.18646 0.64393 0.0
H418 H 0.31766 0.25114 0.56722 0.0
H419 H 0.32064 0.1897 0.55115 0.0
H420 H 0.35815 0.2029 0.37809 0.0
H421 H 0.35647 0.20039 0.48006 0.0
H422 H 0.29049 0.24504 0.48421 0.0
H423 H 0.29292 0.24791 0.3849 0.0
C424 C 0.30173 0.23504 0.63624 0.0
C425 C 0.29528 0.21694 0.6578 0.0
C426 C 0.31452 0.23691 0.58396 0.0
C427 C 0.32006 0.22066 0.55126 0.0
C428 C 0.31656 0.2025 0.57517 0.0
C429 C 0.30442 0.20065 0.62827 0.0
C430 C 0.34345 0.21215 0.40123 0.0
C431 C 0.32525 0.22531 0.37352 0.0
C432 C 0.34254 0.21077 0.45938 0.0
C433 C 0.32369 0.22272 0.49034 0.0
C434 C 0.30586 0.23595 0.46212 0.0
C435 C 0.30677 0.23729 0.40474 0.0
H436 H 0.12633 0.00428 0.61699 0.0
H437 H 0.15558 0.9797 0.77206 0.0
H438 H 0.13121 0.03619 0.6563 0.0
H439 H 0.16055 0.01173 0.81146 0.0
H440 H 0.11638 0.0687 0.87465 0.0
H441 H 0.12349 0.03654 0.83796 0.0
H442 H 0.16674 0.06004 0.69347 0.0
H443 H 0.15951 0.09223 0.73005 0.0
C444 C 0.13431 0.00572 0.65917 0.0
C445 C 0.14043 0.9895 0.69153 0.0
C446 C 0.13724 0.02401 0.68163 0.0
C447 C 0.14614 0.02647 0.73709 0.0
C448 C 0.15339 0.01026 0.76878 0.0
C449 C 0.15071 0.99195 0.74611 0.0
C450 C 0.12787 0.06698 0.83553 0.0
C451 C 0.13719 0.08298 0.80504 0.0
C452 C 0.13207 0.04855 0.81463 0.0
C453 C 0.1455 0.04577 0.76263 0.0
C454 C 0.15602 0.06175 0.73336 0.0
C455 C 0.15201 0.08017 0.75445 0.0
H456 H 0.19174 0.83116 0.12313 0.0
H457 H 0.17445 0.7705 0.12065 0.0
H458 H 0.16459 0.83492 0.03642 0.0
H459 H 0.14801 0.77414 0.03311 0.0
H460 H 0.09864 0.78324 0.87881 0.0
H461 H 0.10709 0.78693 0.97837 0.0
H462 H 0.17898 0.82577 0.94394 0.0
H463 H 0.17022 0.82231 0.84509 0.0
C464 C 0.18171 0.81867 0.10445 0.0
C465 C 0.18552 0.80049 0.12813 0.0
C466 C 0.16621 0.82083 0.05475 0.0
C467 C 0.15442 0.80483 0.02746 0.0
C468 C 0.1565 0.78682 0.05328 0.0
C469 C 0.17184 0.78468 0.10329 0.0
C470 C 0.11545 0.79315 0.89267 0.0
C471 C 0.13405 0.8023 0.85426 0.0
C472 C 0.1205 0.7951 0.94967 0.0
C473 C 0.14407 0.80633 0.96909 0.0
C474 C 0.16056 0.81705 0.9306 0.0
C475 C 0.15559 0.81504 0.87376 0.0
H476 H 0.33303 0.02778 0.28215 0.0
H477 H 0.34876 0.00602 0.1171 0.0
H478 H 0.32938 0.99509 0.31728 0.0
H479 H 0.34546 0.97347 0.15214 0.0
H480 H 0.32385 0.916 0.22428 0.0
H481 H 0.31428 0.94874 0.19413 0.0
H482 H 0.36677 0.96991 0.33061 0.0
H483 H 0.376 0.93723 0.36108 0.0
C484 C 0.33509 0.01603 0.2532 0.0
C485 C 0.34137 0.01944 0.19695 0.0
C486 C 0.33324 0.99732 0.27339 0.0
C487 C 0.33742 0.98168 0.23761 0.0
C488 C 0.34189 0.98516 0.18075 0.0
C489 C 0.34391 0.00384 0.16068 0.0
C490 C 0.333 0.92767 0.24824 0.0
C491 C 0.35087 0.92406 0.29478 0.0
C492 C 0.3276 0.94641 0.23086 0.0
C493 C 0.33987 0.96193 0.25981 0.0
C494 C 0.35671 0.9583 0.30774 0.0
C495 C 0.36219 0.93957 0.32499 0.0
H496 H 0.79259 0.77123 0.35776 0.0
H497 H 0.84476 0.82282 0.3611 0.0
H498 H 0.78648 0.77269 0.45736 0.0
H499 H 0.83892 0.82421 0.4628 0.0
H500 H 0.77816 0.82895 0.62622 0.0
H501 H 0.7972 0.82942 0.53134 0.0
H502 H 0.8153 0.76895 0.54236 0.0
H503 H 0.79525 0.76855 0.6361 0.0
C504 C 0.8026 0.78303 0.37992 0.0
C505 C 0.81865 0.79714 0.3515 0.0
C506 C 0.79954 0.78366 0.43728 0.0
C507 C 0.81248 0.79844 0.46815 0.0
C508 C 0.8287 0.81264 0.43999 0.0
C509 C 0.83203 0.81188 0.382 0.0
C510 C 0.78693 0.81586 0.60885 0.0
C511 C 0.78506 0.79857 0.63849 0.0
C512 C 0.79795 0.81616 0.55454 0.0
C513 C 0.8073 0.79917 0.52902 0.0
C514 C 0.80778 0.78224 0.56051 0.0
C515 C 0.79662 0.78197 0.61449 0.0
H516 H 0.92175 0.052 0.36042 0.0
H517 H 0.86148 0.07322 0.23566 0.0
H518 H 0.91246 0.01939 0.32944 0.0
H519 H 0.85189 0.04058 0.20517 0.0
H520 H 0.88392 0.98446 0.11923 0.0
H521 H 0.88227 0.01675 0.15632 0.0
H522 H 0.87431 0.99403 0.32246 0.0
H523 H 0.87629 0.96157 0.28522 0.0
C524 C 0.90628 0.04967 0.3268 0.0
C525 C 0.89257 0.06513 0.30006 0.0
C526 C 0.90075 0.031 0.30939 0.0
C527 C 0.88146 0.02746 0.26484 0.0
C528 C 0.86707 0.04291 0.23926 0.0
C529 C 0.87254 0.06157 0.25676 0.0
C530 C 0.88127 0.98635 0.16357 0.0
C531 C 0.88047 0.97054 0.19941 0.0
C532 C 0.88018 0.00485 0.18481 0.0
C533 C 0.87838 0.00789 0.24233 0.0
C534 C 0.87606 0.99207 0.27799 0.0
C535 C 0.87699 0.97352 0.25667 0.0
H536 H 0.79865 0.22779 0.96031 0.0
H537 H 0.78941 0.16793 0.92145 0.0
H538 H 0.82482 0.21941 0.04553 0.0
H539 H 0.81627 0.15952 0.00539 0.0
H540 H 0.81047 0.1553 0.19753 0.0
H541 H 0.80357 0.15898 0.09858 0.0
H542 H 0.86409 0.20675 0.09825 0.0
H543 H 0.87008 0.20339 0.19834 0.0
C544 C 0.80281 0.21287 0.96944 0.0
C545 C 0.79153 0.19851 0.93489 0.0
C546 C 0.81792 0.20802 0.01825 0.0
C547 C 0.82217 0.18873 0.03331 0.0
C548 C 0.81273 0.17449 0.99623 0.0
C549 C 0.79738 0.17931 0.94795 0.0
C550 C 0.82328 0.16609 0.17604 0.0
C551 C 0.84035 0.17925 0.206 0.0
C552 C 0.8193 0.16827 0.11892 0.0
C553 C 0.83261 0.18356 0.09024 0.0
C554 C 0.85277 0.19518 0.11916 0.0
C555 C 0.85666 0.19302 0.17652 0.0
H556 H 0.57311 0.93481 0.858 0.0
H557 H 0.62244 0.91452 0.71641 0.0
H558 H 0.5801 0.96768 0.82672 0.0
H559 H 0.62953 0.94743 0.68521 0.0
H560 H 0.59485 0.00565 0.61429 0.0
H561 H 0.59635 0.97269 0.64736 0.0
H562 H 0.61868 0.99255 0.81175 0.0
H563 H 0.61708 0.02554 0.77873 0.0
C564 C 0.58572 0.9374 0.82053 0.0
C565 C 0.59712 0.9221 0.78955 0.0
C566 C 0.58987 0.95622 0.80277 0.0
C567 C 0.60533 0.96014 0.75343 0.0
C568 C 0.6173 0.94484 0.72312 0.0
C569 C 0.61335 0.92602 0.74113 0.0
C570 C 0.60053 0.00296 0.65727 0.0
C571 C 0.60573 0.01817 0.69395 0.0
C572 C 0.60149 0.98408 0.67618 0.0
C573 C 0.60745 0.98004 0.73227 0.0
C574 C 0.61369 0.99524 0.76848 0.0
C575 C 0.61297 0.01411 0.74945 0.0
H576 H 0.87089 0.69967 0.86755 0.0
H577 H 0.78137 0.72041 0.85289 0.0
H578 H 0.86572 0.69953 0.96951 0.0
H579 H 0.77672 0.72078 0.95311 0.0
H580 H 0.81217 0.68364 0.14399 0.0
H581 H 0.82942 0.68277 0.04745 0.0
H582 H 0.80383 0.74174 0.02721 0.0
H583 H 0.78606 0.74238 0.12255 0.0
C584 C 0.85007 0.7039 0.88592 0.0
C585 C 0.82658 0.71015 0.85224 0.0
C586 C 0.84721 0.70394 0.94406 0.0
C587 C 0.82103 0.71055 0.96892 0.0
C588 C 0.79731 0.71598 0.93501 0.0
C589 C 0.79996 0.71565 0.87754 0.0
C590 C 0.81117 0.69658 0.11936 0.0
C591 C 0.79793 0.71319 0.14084 0.0
C592 C 0.8211 0.69607 0.06426 0.0
C593 C 0.81764 0.71212 0.0299 0.0
C594 C 0.80661 0.72913 0.05282 0.0
C595 C 0.79682 0.72962 0.10766 0.0
H596 H 0.63909 0.58878 0.20337 0.0
H597 H 0.59827 0.57624 0.36129 0.0
H598 H 0.64033 0.55464 0.1818 0.0
H599 H 0.59963 0.54219 0.33982 0.0
H600 H 0.62324 0.48086 0.29841 0.0
H601 H 0.63386 0.51424 0.32078 0.0
H602 H 0.5984 0.53156 0.1621 0.0
H603 H 0.58768 0.49827 0.13983 0.0
C604 C 0.63091 0.57871 0.23387 0.0
C605 C 0.6184 0.58514 0.28383 0.0
C606 C 0.63149 0.55922 0.22141 0.0
C607 C 0.61995 0.54581 0.25903 0.0
C608 C 0.6089 0.55219 0.31025 0.0
C609 C 0.60799 0.57168 0.3224 0.0
C610 C 0.61812 0.49178 0.26803 0.0
C611 C 0.60447 0.48702 0.21754 0.0
C612 C 0.6241 0.51086 0.28093 0.0
C613 C 0.61691 0.52546 0.24322 0.0
C614 C 0.60446 0.52058 0.19172 0.0
C615 C 0.59815 0.50155 0.17912 0.0
H616 H 0.6317 0.34511 0.39412 0.0
H617 H 0.59969 0.28723 0.40837 0.0
H618 H 0.64524 0.34471 0.49203 0.0
H619 H 0.61495 0.2863 0.50459 0.0
H620 H 0.64629 0.28887 0.68274 0.0
H621 H 0.61664 0.29436 0.59912 0.0
H622 H 0.68623 0.33002 0.5328 0.0
H623 H 0.71473 0.32525 0.61655 0.0
C624 C 0.62661 0.33254 0.4186 0.0
C625 C 0.61509 0.31613 0.39321 0.0
C626 C 0.63489 0.33214 0.47452 0.0
C627 C 0.63237 0.31519 0.50581 0.0
C628 C 0.61743 0.2996 0.48209 0.0
C629 C 0.60854 0.30016 0.42656 0.0
C630 C 0.65499 0.29797 0.65026 0.0
C631 C 0.68272 0.30671 0.65626 0.0
C632 C 0.63806 0.30113 0.60232 0.0
C633 C 0.64872 0.31291 0.55924 0.0
C634 C 0.67666 0.32142 0.56555 0.0
C635 C 0.69328 0.31848 0.61347 0.0
H636 H 0.83817 0.42238 0.72899 0.0
H637 H 0.90033 0.43836 0.85688 0.0
H638 H 0.83396 0.45582 0.70087 0.0
H639 H 0.8962 0.47174 0.8286 0.0
H640 H 0.86541 0.532 0.79116 0.0
H641 H 0.86034 0.49909 0.82406 0.0
H642 H 0.86881 0.47871 0.65565 0.0
H643 H 0.87377 0.51149 0.62283 0.0
C644 C 0.85075 0.43306 0.75133 0.0
C645 C 0.86971 0.42778 0.7949 0.0
C646 C 0.84839 0.45216 0.73515 0.0
C647 C 0.86475 0.46636 0.76255 0.0
C648 C 0.88305 0.46113 0.80717 0.0
C649 C 0.88559 0.44201 0.82307 0.0
C650 C 0.86566 0.52049 0.76115 0.0
C651 C 0.87012 0.52426 0.7045 0.0
C652 C 0.86296 0.50168 0.78 0.0
C653 C 0.86436 0.48636 0.74243 0.0
C654 C 0.8674 0.49023 0.6855 0.0
C655 C 0.87037 0.50899 0.66675 0.0
H656 H 0.33278 0.34068 0.85295 0.0
H657 H 0.3598 0.2818 0.86527 0.0
H658 H 0.3237 0.34142 0.95263 0.0
H659 H 0.3477 0.28153 0.96255 0.0
H660 H 0.26389 0.3284 0.09914 0.0
H661 H 0.2885 0.33274 0.01143 0.0
H662 H 0.34884 0.2868 0.05286 0.0
H663 H 0.32151 0.28121 0.13734 0.0
C664 C 0.33726 0.32802 0.87743 0.0
C665 C 0.34714 0.31127 0.8518 0.0
C666 C 0.33145 0.32822 0.93449 0.0
C667 C 0.33386 0.31135 0.96646 0.0
C668 C 0.34572 0.29497 0.94073 0.0
C669 C 0.35273 0.29505 0.88437 0.0
C670 C 0.28256 0.3193 0.08959 0.0
C671 C 0.29061 0.30436 0.1254 0.0
C672 C 0.29711 0.32194 0.03912 0.0
C673 C 0.32095 0.31012 0.0237 0.0
C674 C 0.33013 0.29592 0.06159 0.0
C675 C 0.31469 0.29281 0.11104 0.0
H676 H 0.37121 0.4735 0.64251 0.0
H677 H 0.35708 0.46118 0.81622 0.0
H678 H 0.37466 0.5075 0.66377 0.0
H679 H 0.36048 0.49523 0.83744 0.0
H680 H 0.41834 0.55045 0.85176 0.0
H681 H 0.40389 0.51745 0.83429 0.0
H682 H 0.3474 0.53613 0.70035 0.0
H683 H 0.36189 0.56925 0.71784 0.0
C684 C 0.36823 0.4781 0.68506 0.0
C685 C 0.36409 0.46469 0.72776 0.0
C686 C 0.3701 0.49757 0.69721 0.0
C687 C 0.3681 0.50399 0.75234 0.0
C688 C 0.36245 0.49065 0.79467 0.0
C689 C 0.36032 0.47119 0.78245 0.0
C690 C 0.40262 0.54754 0.81895 0.0
C691 C 0.39138 0.5624 0.78595 0.0
C692 C 0.39417 0.52866 0.80922 0.0
C693 C 0.3745 0.52422 0.76596 0.0
C694 C 0.36273 0.53914 0.73374 0.0
C695 C 0.37095 0.55807 0.74387 0.0
H696 H 0.24314 0.65764 0.39282 0.0
H697 H 0.29152 0.71067 0.4009 0.0
H698 H 0.26678 0.64702 0.47841 0.0
H699 H 0.31473 0.70032 0.48644 0.0
H700 H 0.35802 0.68083 0.63783 0.0
H701 H 0.34629 0.68173 0.53905 0.0
H702 H 0.26381 0.65273 0.57224 0.0
H703 H 0.2764 0.65094 0.66953 0.0
C704 C 0.25881 0.66704 0.41296 0.0
C705 C 0.26509 0.68512 0.39053 0.0
C706 C 0.27236 0.66099 0.46224 0.0
C707 C 0.29243 0.67291 0.49054 0.0
C708 C 0.29948 0.69068 0.46648 0.0
C709 C 0.28596 0.69672 0.41734 0.0
C710 C 0.33807 0.67385 0.62353 0.0
C711 C 0.31796 0.66605 0.66172 0.0
C712 C 0.33098 0.67471 0.56688 0.0
C713 C 0.30355 0.6679 0.54735 0.0
C714 C 0.28512 0.65817 0.58498 0.0
C715 C 0.29237 0.65713 0.64126 0.0
H716 H 0.08836 0.4407 0.3784 0.0
H717 H 0.13698 0.41624 0.24162 0.0
H718 H 0.10036 0.47268 0.3452 0.0
H719 H 0.14918 0.44831 0.20851 0.0
H720 H 0.11911 0.50637 0.12844 0.0
H721 H 0.11919 0.47399 0.16583 0.0
H722 H 0.14025 0.49613 0.32836 0.0
H723 H 0.13997 0.52859 0.29096 0.0
C724 C 0.10208 0.44216 0.34181 0.0
C725 C 0.11157 0.42596 0.31244 0.0
C726 C 0.1091 0.4605 0.32292 0.0
C727 C 0.1256 0.46304 0.27402 0.0
C728 C 0.13616 0.44681 0.24597 0.0
C729 C 0.12932 0.42846 0.26512 0.0
C730 C 0.12429 0.5043 0.17194 0.0
C731 C 0.12935 0.52003 0.20682 0.0
C732 C 0.12447 0.48573 0.19334 0.0
C733 C 0.12954 0.48249 0.25017 0.0
C734 C 0.13594 0.49818 0.28454 0.0
C735 C 0.13596 0.51675 0.26303 0.0
H736 H 0.17988 0.14857 0.9928 0.0
H737 H 0.16112 0.19683 0.88688 0.0
H738 H 0.20667 0.16927 0.05608 0.0
H739 H 0.18801 0.21767 0.95077 0.0
H740 H 0.26637 0.24346 0.05007 0.0
H741 H 0.2345 0.22619 0.98576 0.0
H742 H 0.1991 0.19343 0.12274 0.0
H743 H 0.23173 0.21026 0.1863 0.0
C744 C 0.18149 0.16364 0.98305 0.0
C745 C 0.16835 0.1711 0.93491 0.0
C746 C 0.19649 0.1756 0.01979 0.0
C747 C 0.19876 0.19533 0.00929 0.0
C748 C 0.18636 0.20265 0.96025 0.0
C749 C 0.17114 0.19069 0.92358 0.0
C750 C 0.25111 0.23296 0.06648 0.0
C751 C 0.25162 0.22806 0.12299 0.0
C752 C 0.23293 0.22295 0.02961 0.0
C753 C 0.21481 0.20797 0.0488 0.0
C754 C 0.21352 0.20437 0.10619 0.0
C755 C 0.23188 0.21421 0.14279 0.0
H756 H 0.21126 0.81163 0.42369 0.0
H757 H 0.24876 0.85885 0.33303 0.0
H758 H 0.20012 0.83232 0.50059 0.0
H759 H 0.23398 0.88057 0.40722 0.0
H760 H 0.21051 0.91725 0.55253 0.0
H761 H 0.23526 0.89444 0.49154 0.0
H762 H 0.167 0.8529 0.52858 0.0
H763 H 0.14489 0.87479 0.59271 0.0
C764 C 0.2167 0.82664 0.42009 0.0
C765 C 0.23066 0.8337 0.37245 0.0
C766 C 0.20981 0.8387 0.46399 0.0
C767 C 0.21505 0.85849 0.46027 0.0
C768 C 0.22969 0.86549 0.41256 0.0
C769 C 0.23791 0.85312 0.36949 0.0
C770 C 0.2016 0.90296 0.54861 0.0
C771 C 0.17594 0.89772 0.57749 0.0
C772 C 0.21545 0.88993 0.51292 0.0
C773 C 0.20322 0.87165 0.50388 0.0
C774 C 0.17799 0.86644 0.53471 0.0
C775 C 0.16495 0.87914 0.57167 0.0
H776 H 0.31697 0.81229 0.37589 0.0
H777 H 0.30114 0.86315 0.47273 0.0
H778 H 0.28745 0.79384 0.44137 0.0
H779 H 0.27107 0.84484 0.53697 0.0
H780 H 0.24065 0.80697 0.67254 0.0
H781 H 0.27474 0.82209 0.60806 0.0
H782 H 0.23984 0.78748 0.4747 0.0
H783 H 0.20617 0.77214 0.53973 0.0
C784 C 0.30692 0.81954 0.41081 0.0
C785 C 0.31157 0.83914 0.41946 0.0
C786 C 0.29003 0.80893 0.44836 0.0
C787 C 0.2774 0.81765 0.49523 0.0
C788 C 0.28131 0.83742 0.50259 0.0
C789 C 0.2982 0.84802 0.46521 0.0
C790 C 0.24062 0.80241 0.62958 0.0
C791 C 0.22069 0.78847 0.61109 0.0
C792 C 0.25994 0.81121 0.59242 0.0
C793 C 0.25954 0.80644 0.53571 0.0
C794 C 0.24078 0.79162 0.51793 0.0
C795 C 0.22149 0.78275 0.55525 0.0
H796 H 0.26371 0.19845 0.94422 0.0
H797 H 0.22912 0.14952 0.85726 0.0
H798 H 0.27977 0.17804 0.01985 0.0
H799 H 0.2477 0.12862 0.93026 0.0
H800 H 0.27502 0.09345 0.07535 0.0
H801 H 0.24729 0.11602 0.01824 0.0
H802 H 0.31712 0.15764 0.03949 0.0
H803 H 0.34326 0.13566 0.0993 0.0
C804 C 0.25979 0.18323 0.9412 0.0
C805 C 0.24539 0.17552 0.89482 0.0
C806 C 0.26929 0.17144 0.98435 0.0
C807 C 0.26579 0.15149 0.98114 0.0
C808 C 0.25061 0.14387 0.93502 0.0
C809 C 0.24019 0.1558 0.89267 0.0
C810 C 0.28391 0.10764 0.06877 0.0
C811 C 0.31129 0.1128 0.09165 0.0
C812 C 0.26824 0.12053 0.03543 0.0
C813 C 0.27998 0.13869 0.02312 0.0
C814 C 0.30684 0.14402 0.04834 0.0
C815 C 0.32207 0.13132 0.08263 0.0
H816 H 0.81763 0.9077 0.03381 0.0
H817 H 0.84456 0.85859 0.12983 0.0
H818 H 0.78458 0.8879 0.97993 0.0
H819 H 0.81002 0.83874 0.07806 0.0
H820 H 0.78687 0.80625 0.91961 0.0
H821 H 0.80896 0.82519 0.99194 0.0
H822 H 0.74327 0.86918 0.96563 0.0
H823 H 0.72195 0.85029 0.89032 0.0
C824 C 0.81581 0.89271 0.04448 0.0
C825 C 0.83402 0.88462 0.08541 0.0
C826 C 0.79657 0.88131 0.01378 0.0
C827 C 0.79471 0.86156 0.02385 0.0
C828 C 0.81132 0.85378 0.06796 0.0
C829 C 0.831 0.86516 0.09806 0.0
C830 C 0.77721 0.82003 0.92898 0.0
C831 C 0.75332 0.82709 0.89808 0.0
C832 C 0.78968 0.83085 0.97129 0.0
C833 C 0.77842 0.849 0.98438 0.0
C834 C 0.7532 0.85555 0.95565 0.0
C835 C 0.74083 0.84471 0.91271 0.0
H836 H 0.76898 0.148 0.70947 0.0
H837 H 0.76938 0.20387 0.63419 0.0
H838 H 0.79129 0.13462 0.6254 0.0
H839 H 0.78867 0.19066 0.54901 0.0
H840 H 0.86163 0.16948 0.43956 0.0
H841 H 0.83266 0.18114 0.51658 0.0
H842 H 0.79168 0.12556 0.53365 0.0
H843 H 0.82248 0.11368 0.45799 0.0
C844 C 0.77321 0.15725 0.67431 0.0
C845 C 0.76813 0.17691 0.67817 0.0
C846 C 0.78577 0.14965 0.62593 0.0
C847 C 0.79262 0.16161 0.58044 0.0
C848 C 0.7851 0.18107 0.58363 0.0
C849 C 0.77361 0.18865 0.63223 0.0
C850 C 0.84599 0.15989 0.45911 0.0
C851 C 0.84398 0.1408 0.44258 0.0
C852 C 0.82921 0.16656 0.50343 0.0
C853 C 0.80943 0.15439 0.53161 0.0
C854 C 0.80693 0.13531 0.51383 0.0
C855 C 0.82422 0.12855 0.46996 0.0
H856 H 0.62154 0.13648 0.59838 0.0
H857 H 0.68777 0.09236 0.61218 0.0
H858 H 0.65682 0.157 0.55097 0.0
H859 H 0.72365 0.11321 0.567 0.0
H860 H 0.76313 0.14244 0.41419 0.0
H861 H 0.73134 0.12374 0.47492 0.0
H862 H 0.7004 0.17573 0.5525 0.0
H863 H 0.7315 0.19436 0.4896 0.0
C864 C 0.6439 0.13136 0.59251 0.0
C865 C 0.65182 0.11274 0.60834 0.0
C866 C 0.66422 0.14317 0.56551 0.0
C867 C 0.69302 0.13668 0.55429 0.0
C868 C 0.70144 0.11848 0.57356 0.0
C869 C 0.68098 0.10658 0.59989 0.0
C870 C 0.74945 0.14981 0.4442 0.0
C871 C 0.74955 0.1698 0.44719 0.0
C872 C 0.73145 0.13912 0.4795 0.0
C873 C 0.71333 0.14818 0.51899 0.0
C874 C 0.71369 0.16826 0.52213 0.0
C875 C 0.73143 0.17895 0.48617 0.0
H876 H 0.63791 0.86002 0.99003 0.0
H877 H 0.65565 0.81744 0.86488 0.0
H878 H 0.67311 0.84506 0.05151 0.0
H879 H 0.69258 0.80279 0.92583 0.0
H880 H 0.74519 0.77349 0.0644 0.0
H881 H 0.70494 0.78537 0.00585 0.0
H882 H 0.72265 0.84278 0.06354 0.0
H883 H 0.76108 0.8308 0.12329 0.0
C884 C 0.64976 0.84757 0.9753 0.0
C885 C 0.64437 0.8401 0.92227 0.0
C886 C 0.67018 0.83899 0.01057 0.0
C887 C 0.68642 0.82291 0.99345 0.0
C888 C 0.6805 0.81511 0.94067 0.0
C889 C 0.65958 0.8236 0.90545 0.0
C890 C 0.74003 0.78859 0.06489 0.0
C891 C 0.75623 0.80121 0.09852 0.0
C892 C 0.71719 0.79546 0.03092 0.0
C893 C 0.71023 0.81509 0.02988 0.0
C894 C 0.72656 0.82753 0.06396 0.0
C895 C 0.749 0.82068 0.09799 0.0
H896 H 0.65435 0.64773 0.47292 0.0
H897 H 0.6698 0.69396 0.35817 0.0
H898 H 0.6863 0.66278 0.54041 0.0
H899 H 0.70379 0.70868 0.42484 0.0
H900 H 0.75005 0.73709 0.57113 0.0
H901 H 0.71173 0.72476 0.50902 0.0
H902 H 0.73539 0.6671 0.55653 0.0
H903 H 0.77205 0.67942 0.61957 0.0
C904 C 0.66496 0.66106 0.46185 0.0
C905 C 0.66003 0.66954 0.40988 0.0
C906 C 0.6835 0.66969 0.50053 0.0
C907 C 0.69821 0.68685 0.48791 0.0
C908 C 0.69267 0.6956 0.43627 0.0
C909 C 0.67357 0.68707 0.39779 0.0
C910 C 0.74661 0.72181 0.56863 0.0
C911 C 0.76404 0.70921 0.60016 0.0
C912 C 0.7249 0.7147 0.53262 0.0
C913 C 0.72034 0.69486 0.52742 0.0
C914 C 0.73767 0.68243 0.5598 0.0
C915 C 0.75903 0.68951 0.59579 0.0
H916 H 0.63125 0.3766 0.1447 0.0
H917 H 0.65401 0.42763 0.05331 0.0
H918 H 0.65632 0.35726 0.07542 0.0
H919 H 0.68017 0.40817 0.98461 0.0
H920 H 0.74098 0.36317 0.89376 0.0
H921 H 0.7224 0.38462 0.96659 0.0
H922 H 0.64304 0.35065 0.9788 0.0
H923 H 0.66143 0.32939 0.90773 0.0
C924 C 0.64243 0.38373 0.11074 0.0
C925 C 0.64055 0.40359 0.10415 0.0
C926 C 0.65672 0.37265 0.07095 0.0
C927 C 0.67014 0.38121 0.02456 0.0
C928 C 0.67015 0.40121 0.02008 0.0
C929 C 0.65518 0.41231 0.05931 0.0
C930 C 0.71949 0.36047 0.91182 0.0
C931 C 0.70276 0.34455 0.89532 0.0
C932 C 0.70887 0.37271 0.95335 0.0
C933 C 0.6815 0.36909 0.97894 0.0
C934 C 0.66452 0.35355 0.96087 0.0
C935 C 0.67499 0.34146 0.91965 0.0
H936 H 0.72984 0.2934 0.12154 0.0
H937 H 0.69359 0.3498 0.14585 0.0
H938 H 0.76314 0.30595 0.05135 0.0
H939 H 0.7261 0.36224 0.07311 0.0
H940 H 0.81327 0.37943 0.986 0.0
H941 H 0.77699 0.36882 0.05379 0.0
H942 H 0.76213 0.31767 0.95801 0.0
H943 H 0.79958 0.32786 0.89111 0.0
C944 C 0.72879 0.30847 0.11141 0.0
C945 C 0.7088 0.32063 0.13849 0.0
C946 C 0.74757 0.31558 0.07052 0.0
C947 C 0.74674 0.33494 0.05538 0.0
C948 C 0.72713 0.3472 0.08334 0.0
C949 C 0.70836 0.34009 0.12462 0.0
C950 C 0.80218 0.36593 0.97922 0.0
C951 C 0.80953 0.35435 0.93361 0.0
C952 C 0.78124 0.3599 0.01798 0.0
C953 C 0.76705 0.34221 0.01178 0.0
C954 C 0.77345 0.33105 0.96475 0.0
C955 C 0.79462 0.33698 0.92619 0.0
H956 H 0.72729 0.65353 0.38725 0.0
H957 H 0.79831 0.69304 0.42016 0.0
H958 H 0.74475 0.6331 0.46285 0.0
H959 H 0.81671 0.6724 0.49273 0.0
H960 H 0.84103 0.63818 0.63826 0.0
H961 H 0.81175 0.65968 0.58086 0.0
H962 H 0.78358 0.61178 0.48069 0.0
H963 H 0.81188 0.59036 0.53939 0.0
C964 C 0.74672 0.65778 0.41039 0.0
C965 C 0.76182 0.67467 0.39698 0.0
C966 C 0.75683 0.64605 0.45356 0.0
C967 C 0.78242 0.65092 0.4838 0.0
C968 C 0.79679 0.66818 0.47118 0.0
C969 C 0.78649 0.67994 0.42874 0.0
C970 C 0.82795 0.63224 0.60483 0.0
C971 C 0.829 0.61263 0.59298 0.0
C972 C 0.8113 0.64457 0.57154 0.0
C973 C 0.79555 0.63758 0.52533 0.0
C974 C 0.79511 0.61776 0.51599 0.0
C975 C 0.81154 0.60543 0.54957 0.0
H976 H 0.32712 0.34905 0.65261 0.0
H977 H 0.30123 0.40104 0.56925 0.0
H978 H 0.301 0.33045 0.58304 0.0
H979 H 0.27555 0.38255 0.49917 0.0
H980 H 0.22186 0.34618 0.38549 0.0
H981 H 0.23767 0.36291 0.46923 0.0
H982 H 0.30676 0.32095 0.49304 0.0
H983 H 0.28955 0.30374 0.41227 0.0
C984 C 0.31533 0.35651 0.61999 0.0
C985 C 0.31641 0.37649 0.61614 0.0
C986 C 0.30043 0.34583 0.5798 0.0
C987 C 0.28613 0.35488 0.53498 0.0
C988 C 0.28584 0.37497 0.53324 0.0
C989 C 0.30074 0.38564 0.57341 0.0
C990 C 0.24025 0.34052 0.40911 0.0
C991 C 0.25476 0.32384 0.39191 0.0
C992 C 0.24951 0.35016 0.45691 0.0
C993 C 0.27387 0.34353 0.48788 0.0
C994 C 0.28779 0.32652 0.47107 0.0
C995 C 0.27821 0.31675 0.424 0.0
H996 H 0.38114 0.67214 0.89774 0.0
H997 H 0.34009 0.61812 0.93626 0.0
H998 H 0.35609 0.68669 0.97665 0.0
H999 H 0.31385 0.6328 0.01311 0.0
H1000 H 0.29351 0.65686 0.17931 0.0
H1001 H 0.32087 0.64375 0.10146 0.0
H1002 H 0.31335 0.69796 0.01571 0.0
H1003 H 0.28786 0.71128 0.09588 0.0
C1004 C 0.36612 0.66354 0.92227 0.0
C1005 C 0.36246 0.64404 0.91111 0.0
C1006 C 0.35177 0.67188 0.96746 0.0
C1007 C 0.33317 0.66098 0.00182 0.0
C1008 C 0.32868 0.6416 0.98886 0.0
C1009 C 0.34334 0.6332 0.94426 0.0
C1010 C 0.29843 0.66603 0.14424 0.0
C1011 C 0.289 0.68507 0.14359 0.0
C1012 C 0.31364 0.65846 0.09909 0.0
C1013 C 0.31894 0.66963 0.05149 0.0
C1014 C 0.31013 0.68894 0.05174 0.0
C1015 C 0.29555 0.69664 0.09768 0.0
H1016 H 0.27709 0.63999 0.8951 0.0
H1017 H 0.24913 0.69272 0.97098 0.0
H1018 H 0.25019 0.62191 0.96485 0.0
H1019 H 0.22371 0.67469 0.04376 0.0
H1020 H 0.14699 0.6364 0.10539 0.0
H1021 H 0.18054 0.65641 0.05262 0.0
H1022 H 0.24628 0.61164 0.05675 0.0
H1023 H 0.21165 0.59108 0.10645 0.0
C1024 C 0.26541 0.64766 0.9274 0.0
C1025 C 0.26476 0.66765 0.92755 0.0
C1026 C 0.25028 0.63733 0.9679 0.0
C1027 C 0.23459 0.6468 0.01015 0.0
C1028 C 0.23487 0.66692 0.01115 0.0
C1029 C 0.24944 0.67726 0.96967 0.0
C1030 C 0.16881 0.63096 0.0959 0.0
C1031 C 0.1766 0.6121 0.10933 0.0
C1032 C 0.18821 0.64253 0.06595 0.0
C1033 C 0.21609 0.63565 0.04974 0.0
C1034 C 0.22469 0.61725 0.06715 0.0
C1035 C 0.205 0.60551 0.09606 0.0
H1036 H 0.24756 0.33223 0.65275 0.0
H1037 H 0.249 0.27884 0.56322 0.0
H1038 H 0.20859 0.34382 0.59325 0.0
H1039 H 0.20812 0.29001 0.50503 0.0
H1040 H 0.15768 0.32664 0.37344 0.0
H1041 H 0.19437 0.31109 0.43294 0.0
H1042 H 0.15905 0.34118 0.57489 0.0
H1043 H 0.12344 0.3569 0.51567 0.0
C1044 C 0.23897 0.32275 0.6211 0.0
C1045 C 0.25123 0.30458 0.61299 0.0
C1046 C 0.21635 0.32935 0.587 0.0
C1047 C 0.20463 0.31778 0.54462 0.0
C1048 C 0.21663 0.2994 0.53693 0.0
C1049 C 0.23981 0.29289 0.57068 0.0
C1050 C 0.1579 0.32987 0.4174 0.0
C1051 C 0.13816 0.34332 0.43968 0.0
C1052 C 0.17881 0.32089 0.45165 0.0
C1053 C 0.18042 0.32531 0.50865 0.0
C1054 C 0.15945 0.33798 0.53094 0.0
C1055 C 0.13883 0.34696 0.49692 0.0
H1056 H 0.39649 0.23899 0.04564 0.0
H1057 H 0.32643 0.19763 0.06258 0.0
H1058 H 0.39097 0.23813 0.94517 0.0
H1059 H 0.32062 0.19698 0.96146 0.0
H1060 H 0.37827 0.23624 0.7673 0.0
H1061 H 0.38987 0.21924 0.85301 0.0
H1062 H 0.30006 0.22689 0.90872 0.0
H1063 H 0.28852 0.24419 0.82352 0.0
C1064 C 0.38093 0.22899 0.02763 0.0
C1065 C 0.36196 0.21837 0.06177 0.0
C1066 C 0.37769 0.22851 0.97005 0.0
C1067 C 0.35506 0.21764 0.94561 0.0
C1068 C 0.33804 0.20554 0.97941 0.0
C1069 C 0.34167 0.20575 0.03716 0.0
C1070 C 0.36068 0.23369 0.79686 0.0
C1071 C 0.33263 0.24191 0.78922 0.0
C1072 C 0.36739 0.22396 0.84596 0.0
C1073 C 0.34603 0.222 0.88779 0.0
C1074 C 0.31698 0.22813 0.87712 0.0
C1075 C 0.31037 0.23811 0.82833 0.0
H1076 H 0.93369 0.89967 0.32976 0.0
H1077 H 0.00282 0.91957 0.22052 0.0
H1078 H 0.96689 0.90326 0.40915 0.0
H1079 H 0.03602 0.92287 0.29943 0.0
H1080 H 0.07048 0.95149 0.45792 0.0
H1081 H 0.03887 0.94484 0.37817 0.0
H1082 H 0.0125 0.89133 0.45265 0.0
H1083 H 0.04376 0.89813 0.53275 0.0
C1084 C 0.95613 0.90444 0.32261 0.0
C1085 C 0.96561 0.90947 0.26907 0.0
C1086 C 0.97514 0.90649 0.36801 0.0
C1087 C 0.00394 0.9136 0.3606 0.0
C1088 C 0.01377 0.91774 0.30663 0.0
C1089 C 0.99482 0.9157 0.26138 0.0
C1090 C 0.05794 0.93832 0.45721 0.0
C1091 C 0.05955 0.92535 0.50153 0.0
C1092 C 0.03999 0.93444 0.4114 0.0
C1093 C 0.02329 0.91751 0.40902 0.0
C1094 C 0.0249 0.90456 0.45348 0.0
C1095 C 0.04289 0.90843 0.49921 0.0
H1096 H 0.14374 0.71139 0.36903 0.0
H1097 H 0.1746 0.76372 0.29427 0.0
H1098 H 0.11415 0.72935 0.4336 0.0
H1099 H 0.14353 0.78212 0.35747 0.0
H1100 H 0.13839 0.80066 0.54317 0.0
H1101 H 0.14673 0.7907 0.44876 0.0
H1102 H 0.07725 0.74858 0.46484 0.0
H1103 H 0.07121 0.75748 0.56194 0.0
C1104 C 0.14345 0.72682 0.36541 0.0
C1105 C 0.16202 0.73619 0.32774 0.0
C1106 C 0.1261 0.73725 0.4022 0.0
C1107 C 0.12643 0.75739 0.40164 0.0
C1108 C 0.14318 0.76669 0.36036 0.0
C1109 C 0.16102 0.75618 0.32408 0.0
C1110 C 0.12394 0.78985 0.52583 0.0
C1111 C 0.1047 0.77946 0.56013 0.0
C1112 C 0.12876 0.78405 0.47119 0.0
C1113 C 0.11369 0.76811 0.44955 0.0
C1114 C 0.09041 0.76023 0.48099 0.0
C1115 C 0.08643 0.76555 0.53636 0.0
H1116 H 0.55922 0.09205 0.83997 0.0
H1117 H 0.48971 0.07024 0.7348 0.0
H1118 H 0.52526 0.09187 0.91904 0.0
H1119 H 0.45577 0.07051 0.81289 0.0
H1120 H 0.41551 0.05002 0.97505 0.0
H1121 H 0.44943 0.05216 0.89686 0.0
H1122 H 0.48064 0.10671 0.9568 0.0
H1123 H 0.44711 0.10433 0.03589 0.0
C1124 C 0.53662 0.08747 0.83366 0.0
C1125 C 0.52715 0.081 0.78148 0.0
C1126 C 0.51716 0.08742 0.87879 0.0
C1127 C 0.48792 0.08096 0.87231 0.0
C1128 C 0.47831 0.07516 0.81954 0.0
C1129 C 0.49772 0.07512 0.77471 0.0
C1130 C 0.42958 0.06247 0.97147 0.0
C1131 C 0.42865 0.07702 0.01142 0.0
C1132 C 0.44891 0.06376 0.92654 0.0
C1133 C 0.46762 0.07967 0.92048 0.0
C1134 C 0.46671 0.0942 0.9606 0.0
C1135 C 0.4474 0.09289 0.00566 0.0
H1136 H 0.2372 0.7314 0.67684 0.0
H1137 H 0.32813 0.71966 0.63467 0.0
H1138 H 0.22784 0.74096 0.58037 0.0
H1139 H 0.3189 0.72791 0.54021 0.0
H1140 H 0.30743 0.76382 0.39112 0.0
H1141 H 0.31345 0.75253 0.48422 0.0
H1142 H 0.2223 0.73369 0.48653 0.0
H1143 H 0.21556 0.74739 0.39389 0.0
C1144 C 0.25508 0.73092 0.64702 0.0
C1145 C 0.28353 0.72533 0.66346 0.0
C1146 C 0.24974 0.73615 0.59163 0.0
C1147 C 0.27269 0.73549 0.55196 0.0
C1148 C 0.30074 0.72925 0.56903 0.0
C1149 C 0.30613 0.7245 0.62381 0.0
C1150 C 0.28868 0.7571 0.41115 0.0
C1151 C 0.26095 0.75674 0.38556 0.0
C1152 C 0.29217 0.75036 0.46485 0.0
C1153 C 0.2684 0.74201 0.49364 0.0
C1154 C 0.24098 0.74037 0.46634 0.0
C1155 C 0.23722 0.74786 0.41283 0.0
H1156 H 0.42996 0.82884 0.46425 0.0
H1157 H 0.46212 0.88656 0.44483 0.0
H1158 H 0.46608 0.82332 0.53786 0.0
H1159 H 0.49824 0.881 0.5185 0.0
H1160 H 0.57254 0.86139 0.63063 0.0
H1161 H 0.5434 0.86123 0.54485 0.0
H1162 H 0.46966 0.83698 0.63411 0.0
H1163 H 0.49856 0.83724 0.71938 0.0
C1164 C 0.44494 0.84028 0.47534 0.0
C1165 C 0.44307 0.85819 0.44922 0.0
C1166 C 0.46558 0.83711 0.51744 0.0
C1167 C 0.48494 0.85172 0.53384 0.0
C1168 C 0.48382 0.86941 0.50624 0.0
C1169 C 0.46298 0.87264 0.46446 0.0
C1170 C 0.55037 0.85558 0.63145 0.0
C1171 C 0.53771 0.8494 0.68155 0.0
C1172 C 0.53366 0.85564 0.58257 0.0
C1173 C 0.50423 0.84922 0.58299 0.0
C1174 C 0.49233 0.84188 0.63243 0.0
C1175 C 0.50885 0.84208 0.68128 0.0
H1176 H 0.21158 0.27661 0.83463 0.0
H1177 H 0.15134 0.23365 0.89427 0.0
H1178 H 0.1964 0.29781 0.9083 0.0
H1179 H 0.13909 0.25318 0.97239 0.0
H1180 H 0.13763 0.2791 0.13466 0.0
H1181 H 0.12762 0.27216 0.03798 0.0
H1182 H 0.20429 0.306 0.99203 0.0
H1183 H 0.21102 0.31452 0.0873 0.0
C1184 C 0.19518 0.27167 0.86407 0.0
C1185 C 0.18371 0.25313 0.86039 0.0
C1186 C 0.18671 0.28373 0.90748 0.0
C1187 C 0.16783 0.27716 0.95021 0.0
C1188 C 0.1541 0.25922 0.94239 0.0
C1189 C 0.16144 0.24762 0.89736 0.0
C1190 C 0.15116 0.28576 0.10299 0.0
C1191 C 0.17506 0.29728 0.11798 0.0
C1192 C 0.14613 0.28134 0.04715 0.0
C1193 C 0.16625 0.28724 0.00554 0.0
C1194 C 0.18816 0.30062 0.02101 0.0
C1195 C 0.19217 0.30575 0.07643 0.0
H1196 H 0.05042 0.17232 0.98207 0.0
H1197 H 0.02286 0.11427 0.95028 0.0
H1198 H 0.01396 0.17472 0.05648 0.0
H1199 H 0.9862 0.11678 0.02451 0.0
H1200 H 0.91184 0.13166 0.14481 0.0
H1201 H 0.93908 0.1358 0.05735 0.0
H1202 H 0.01468 0.15618 0.14914 0.0
H1203 H 0.98789 0.15169 0.23583 0.0
C1204 C 0.03627 0.16018 0.99041 0.0
C1205 C 0.03968 0.14302 0.96093 0.0
C1206 C 0.0154 0.16159 0.03285 0.0
C1207 C 0.99732 0.14595 0.04604 0.0
C1208 C -0.00033 0.12911 0.01466 0.0
C1209 C 0.02081 0.12762 0.97264 0.0
C1210 C 0.93401 0.13747 0.14589 0.0
C1211 C 0.94794 0.14126 0.19676 0.0
C1212 C 0.94958 0.13972 0.0961 0.0
C1213 C 0.97895 0.14625 0.09672 0.0
C1214 C 0.992 0.15128 0.14747 0.0
C1215 C 0.97674 0.14864 0.19704 0.0
H1216 H 0.65061 0.76403 0.88332 0.0
H1217 H 0.7356 0.73633 0.87426 0.0
H1218 H 0.63702 0.74365 0.96135 0.0
H1219 H 0.72264 0.71644 0.95333 0.0
H1220 H 0.70219 0.68369 0.09893 0.0
H1221 H 0.6954 0.69278 0.0018 0.0
H1222 H 0.65207 0.74476 0.05436 0.0
H1223 H 0.65793 0.73531 0.15025 0.0
C1224 C 0.66623 0.75337 0.89751 0.0
C1225 C 0.69435 0.75191 0.87324 0.0
C1226 C 0.65848 0.74171 0.94234 0.0
C1227 C 0.67886 0.72855 0.9644 0.0
C1228 C 0.70621 0.72623 0.93736 0.0
C1229 C 0.71381 0.73776 0.8922 0.0
C1230 C 0.68984 0.69654 0.08943 0.0
C1231 C 0.68105 0.70899 0.13196 0.0
C1232 C 0.68635 0.70192 0.03379 0.0
C1233 C 0.67405 0.71981 0.0201 0.0
C1234 C 0.66169 0.73091 0.06284 0.0
C1235 C 0.66508 0.72551 0.11816 0.0
H1236 H 0.02545 0.15819 0.7341 0.0
H1237 H 0.10436 0.14132 0.64619 0.0
H1238 H 0.99728 0.15651 0.64813 0.0
H1239 H 0.07593 0.13948 0.55965 0.0
H1240 H 0.00012 0.10826 0.45701 0.0
H1241 H 0.03473 0.11611 0.53155 0.0
H1242 H 0.99229 0.17088 0.55234 0.0
H1243 H 0.95775 0.16309 0.47797 0.0
C1244 C 0.03687 0.15452 0.69606 0.0
C1245 C 0.067 0.14982 0.69667 0.0
C1246 C 0.02078 0.15362 0.64683 0.0
C1247 C 0.03442 0.14775 0.59738 0.0
C1248 C 0.0649 0.14391 0.59739 0.0
C1249 C 0.08116 0.14511 0.64667 0.0
C1250 C 0.99842 0.12204 0.47714 0.0
C1251 C 0.9761 0.13498 0.46214 0.0
C1252 C 0.01836 0.1266 0.51939 0.0
C1253 C 0.01613 0.1441 0.54762 0.0
C1254 C 0.99438 0.15726 0.53138 0.0
C1255 C 0.97464 0.15279 0.48887 0.0
H1256 H 0.79811 0.25037 0.73643 0.0
H1257 H 0.82173 0.30666 0.67824 0.0
H1258 H 0.82557 0.23609 0.66118 0.0
H1259 H 0.85075 0.2923 0.60346 0.0
H1260 H 0.8627 0.21073 0.51588 0.0
H1261 H 0.86662 0.22837 0.60325 0.0
H1262 H 0.82929 0.27815 0.52319 0.0
H1263 H 0.82609 0.26078 0.43686 0.0
C1264 C 0.81005 0.25969 0.70845 0.0
C1265 C 0.80695 0.2796 0.71186 0.0
C1266 C 0.82626 0.25148 0.66557 0.0
C1267 C 0.8399 0.26305 0.62534 0.0
C1268 C 0.83993 0.283 0.63308 0.0
C1269 C 0.82345 0.29124 0.67601 0.0
C1270 C 0.85639 0.22565 0.51676 0.0
C1271 C 0.8433 0.23426 0.47025 0.0
C1272 C 0.85853 0.23574 0.56676 0.0
C1273 C 0.84763 0.25456 0.57069 0.0
C1274 C 0.83801 0.26376 0.52206 0.0
C1275 C 0.83585 0.2537 0.47244 0.0
H1276 H 0.38086 0.86082 0.13092 0.0
H1277 H 0.45898 0.84522 0.22329 0.0
H1278 H 0.4091 0.85874 0.0441 0.0
H1279 H 0.48689 0.8429 0.13715 0.0
H1280 H 0.52516 0.82846 0.97028 0.0
H1281 H 0.48982 0.82448 0.04601 0.0
H1282 H 0.45247 0.87979 0.00903 0.0
H1283 H 0.48791 0.88385 0.93337 0.0
C1284 C 0.40383 0.85652 0.13248 0.0
C1285 C 0.41785 0.85328 0.18362 0.0
C1286 C 0.41997 0.85544 0.08301 0.0
C1287 C 0.45015 0.8507 0.08406 0.0
C1288 C 0.46361 0.84641 0.13507 0.0
C1289 C 0.44768 0.84783 0.18437 0.0
C1290 C 0.50916 0.83966 0.97785 0.0
C1291 C 0.50946 0.85656 0.94637 0.0
C1292 C 0.48897 0.83737 0.02114 0.0
C1293 C 0.46849 0.85183 0.03333 0.0
C1294 C 0.46784 0.86833 0.00012 0.0
C1295 C 0.48826 0.87072 0.95718 0.0
H1296 H 0.72785 0.29162 0.39398 0.0
H1297 H 0.6598 0.24849 0.38555 0.0
H1298 H 0.7419 0.2801 0.48638 0.0
H1299 H 0.67222 0.2379 0.47781 0.0
H1300 H 0.73269 0.26756 0.67606 0.0
H1301 H 0.72576 0.27919 0.5809 0.0
H1302 H 0.70677 0.22147 0.52787 0.0
H1303 H 0.71174 0.2104 0.62215 0.0
C1304 C 0.71616 0.27956 0.41165 0.0
C1305 C 0.69304 0.27075 0.38238 0.0
C1306 C 0.72391 0.27314 0.46477 0.0
C1307 C 0.70834 0.25799 0.48961 0.0
C1308 C 0.68537 0.24921 0.45969 0.0
C1309 C 0.67812 0.25533 0.40658 0.0
C1310 C 0.72703 0.25752 0.64382 0.0
C1311 C 0.72209 0.23824 0.65653 0.0
C1312 C 0.7233 0.26408 0.58925 0.0
C1313 C 0.71525 0.25129 0.54666 0.0
C1314 C 0.71204 0.23185 0.55958 0.0
C1315 C 0.71493 0.22548 0.61379 0.0
H1316 H 0.41383 0.10345 0.31349 0.0
H1317 H 0.45364 0.05064 0.25916 0.0
H1318 H 0.44962 0.10546 0.38911 0.0
H1319 H 0.48837 0.05204 0.33588 0.0
H1320 H 0.56361 0.06667 0.44979 0.0
H1321 H 0.53025 0.06771 0.3703 0.0
H1322 H 0.46182 0.09151 0.47472 0.0
H1323 H 0.49566 0.09134 0.55302 0.0
C1324 C 0.4301 0.0922 0.31807 0.0
C1325 C 0.43101 0.07691 0.28054 0.0
C1326 C 0.45054 0.09328 0.36151 0.0
C1327 C 0.47202 0.07892 0.36872 0.0
C1328 C 0.47266 0.06358 0.33108 0.0
C1329 C 0.45255 0.06268 0.28731 0.0
C1330 C 0.5415 0.07226 0.45543 0.0
C1331 C 0.53219 0.07889 0.50748 0.0
C1332 C 0.52227 0.07274 0.41004 0.0
C1333 C 0.49317 0.07957 0.41601 0.0
C1334 C 0.48413 0.08644 0.46815 0.0
C1335 C 0.50349 0.08622 0.51322 0.0
H1336 H 0.9017 0.76951 0.03944 0.0
H1337 H 0.85795 0.82418 0.03594 0.0
H1338 H 0.90735 0.77047 0.9394 0.0
H1339 H 0.86257 0.82496 0.93437 0.0
H1340 H 0.91239 0.76892 0.76547 0.0
H1341 H 0.92496 0.78533 0.85143 0.0
H1342 H 0.83404 0.80268 0.87018 0.0
H1343 H 0.82144 0.78641 0.78397 0.0
C1344 C 0.89444 0.78215 0.01728 0.0
C1345 C 0.87915 0.79667 0.04507 0.0
C1346 C 0.89766 0.78275 0.95981 0.0
C1347 C 0.88508 0.79771 0.92877 0.0
C1348 C 0.87236 0.81322 0.95719 0.0
C1349 C 0.86984 0.81282 0.01522 0.0
C1350 C 0.8953 0.77692 0.78671 0.0
C1351 C 0.86578 0.77592 0.76892 0.0
C1352 C 0.90253 0.7863 0.83598 0.0
C1353 C 0.88034 0.79482 0.86834 0.0
C1354 C 0.85161 0.79618 0.84634 0.0
C1355 C 0.84436 0.78679 0.7969 0.0
H1356 H 0.02012 0.94135 0.7312 0.0
H1357 H 0.08663 0.90932 0.82012 0.0
H1358 H 0.98576 0.93674 0.80763 0.0
H1359 H 0.05222 0.90498 0.89748 0.0
H1360 H 0.97165 0.88765 0.00429 0.0
H1361 H 0.00477 0.88935 0.924 0.0
H1362 H 0.98228 0.94887 0.90223 0.0
H1363 H 0.94912 0.94711 0.98131 0.0
C1364 C 0.0274 0.93333 0.76715 0.0
C1365 C 0.05613 0.92583 0.76995 0.0
C1366 C 0.00775 0.93074 0.811 0.0
C1367 C 0.01637 0.92064 0.85873 0.0
C1368 C 0.04489 0.91271 0.86103 0.0
C1369 C 0.06463 0.91531 0.81699 0.0
C1370 C 0.97371 0.90103 0.982 0.0
C1371 C 0.95778 0.91723 -0.00111 0.0
C1372 C 0.99277 0.90203 0.93635 0.0
C1373 C 0.99604 0.91922 0.90675 0.0
C1374 C 0.9799 0.93534 0.92363 0.0
C1375 C 0.96101 0.93436 0.96914 0.0
H1376 H 0.81981 0.72626 0.28317 0.0
H1377 H 0.90996 0.74469 0.26025 0.0
H1378 H 0.83353 0.71108 0.37017 0.0
H1379 H 0.9238 0.72921 0.34718 0.0
H1380 H 0.85973 0.68973 0.5349 0.0
H1381 H 0.86227 0.68929 0.43314 0.0
H1382 H 0.90805 0.74344 0.43615 0.0
H1383 H 0.90491 0.74391 0.53675 0.0
C1384 C 0.84286 0.7262 0.29516 0.0
C1385 C 0.8637 0.73697 0.26542 0.0
C1386 C 0.85076 0.71746 0.34525 0.0
C1387 C 0.87964 0.71929 0.36622 0.0
C1388 C 0.90126 0.72786 0.33258 0.0
C1389 C 0.89335 0.73666 0.28267 0.0
C1390 C 0.87152 0.70104 0.51365 0.0
C1391 C 0.88216 0.71687 0.54335 0.0
C1392 C 0.87273 0.70088 0.45548 0.0
C1393 C 0.88519 0.71637 0.42649 0.0
C1394 C 0.89861 0.73115 0.45697 0.0
C1395 C 0.89684 0.73147 0.51473 0.0
H1396 H 0.37975 0.40751 0.89928 0.0
H1397 H 0.45473 0.37916 0.82523 0.0
H1398 H 0.40726 0.41101 0.98602 0.0
H1399 H 0.48211 0.38258 0.91183 0.0
H1400 H 0.52026 0.38445 0.08489 0.0
H1401 H 0.48491 0.37451 0.01389 0.0
H1402 H 0.45168 0.43223 0.00403 0.0
H1403 H 0.48704 0.4422 0.07486 0.0
C1404 C 0.40176 0.40153 0.90205 0.0
C1405 C 0.41524 0.39322 0.85541 0.0
C1406 C 0.41756 0.40366 0.95153 0.0
C1407 C 0.44691 0.39728 0.95538 0.0
C1408 C 0.45947 0.38757 0.91015 0.0
C1409 C 0.44383 0.38565 0.86052 0.0
C1410 C 0.50513 0.39496 0.06806 0.0
C1411 C 0.50653 0.41415 0.08501 0.0
C1412 C 0.48496 0.38925 0.02742 0.0
C1413 C 0.46557 0.40258 0.0035 0.0
C1414 C 0.46612 0.42159 0.02224 0.0
C1415 C 0.48651 0.42734 0.06244 0.0
H1416 H 0.62494 0.23792 0.16196 0.0
H1417 H 0.59192 0.28906 0.08319 0.0
H1418 H 0.62623 0.22191 0.07349 0.0
H1419 H 0.59157 0.27261 0.99391 0.0
H1420 H 0.64756 0.19734 0.91678 0.0
H1421 H 0.61345 0.20884 0.98803 0.0
H1422 H 0.63364 0.26708 0.94098 0.0
H1423 H 0.66588 0.25553 0.8688 0.0
C1424 C 0.61669 0.24549 0.1259 0.0
C1425 C 0.60938 0.26495 0.12908 0.0
C1426 C 0.61715 0.2362 0.07481 0.0
C1427 C 0.61001 0.24615 0.02584 0.0
C1428 C 0.59825 0.26473 0.03051 0.0
C1429 C 0.59818 0.27413 0.08175 0.0
C1430 C 0.64373 0.21255 0.92062 0.0
C1431 C 0.66006 0.22559 0.88882 0.0
C1432 C 0.62436 0.21919 0.96162 0.0
C1433 C 0.62137 0.23893 0.9717 0.0
C1434 C 0.63512 0.2518 0.93497 0.0
C1435 C 0.65408 0.24517 0.89382 0.0
H1436 H 0.96358 0.61216 0.52741 0.0
H1437 H 0.94452 0.5531 0.48965 0.0
H1438 H 0.99665 0.61373 0.44711 0.0
H1439 H 0.97761 0.55462 0.41022 0.0
H1440 H 0.01342 0.56885 0.24106 0.0
H1441 H 0.97925 0.57038 0.31881 0.0
H1442 H 0.04509 0.59974 0.41651 0.0
H1443 H 0.07939 0.59843 0.33801 0.0
C1444 C 0.96643 0.59955 0.50192 0.0
C1445 C 0.95145 0.58252 0.51459 0.0
C1446 C 0.98544 0.60043 0.45624 0.0
C1447 C 0.98957 0.58433 0.42234 0.0
C1448 C 0.97451 0.56735 0.43512 0.0
C1449 C 0.95568 0.56644 0.48077 0.0
C1450 C 0.02058 0.57576 0.27897 0.0
C1451 C 0.04914 0.58339 0.2837 0.0
C1452 C 0.00104 0.57655 0.32355 0.0
C1453 C 0.00963 0.585 0.37386 0.0
C1454 C 0.03786 0.59323 0.37808 0.0
C1455 C 0.0575 0.59241 0.33333 0.0
H1456 H 0.70964 0.25222 0.93853 0.0
H1457 H 0.78842 0.28615 0.95904 0.0
H1458 H 0.71795 0.2377 0.02965 0.0
H1459 H 0.79537 0.27328 0.05038 0.0
H1460 H 0.82088 0.23557 0.18799 0.0
H1461 H 0.81078 0.24733 0.09637 0.0
H1462 H 0.71684 0.24237 0.12678 0.0
H1463 H 0.72748 0.22926 0.21927 0.0
C1464 C 0.72866 0.25653 0.9624 0.0
C1465 C 0.74833 0.27027 0.94158 0.0
C1466 C 0.73325 0.24846 0.01496 0.0
C1467 C 0.75742 0.25422 0.04775 0.0
C1468 C 0.77699 0.26795 0.02624 0.0
C1469 C 0.77276 0.2756 0.97373 0.0
C1470 C 0.798 0.23716 0.17555 0.0
C1471 C 0.77492 0.23184 0.21107 0.0
C1472 C 0.79213 0.24394 0.12264 0.0
C1473 C 0.76293 0.24605 0.10383 0.0
C1474 C 0.73963 0.24073 0.13949 0.0
C1475 C 0.74562 0.23346 0.19263 0.0
H1476 H 0.93349 0.33543 0.98058 0.0
H1477 H 0.97418 0.38739 0.92128 0.0
H1478 H 0.96844 0.33445 0.05799 0.0
H1479 H 0.00919 0.38628 -0.0019 0.0
H1480 H 0.02351 0.3946 0.18664 0.0
H1481 H 0.99846 0.39189 0.09801 0.0
H1482 H 0.02245 0.33226 0.08892 0.0
H1483 H 0.04793 0.33501 0.17878 0.0
C1484 C 0.95027 0.34641 0.98344 0.0
C1485 C 0.95082 0.36166 0.94546 0.0
C1486 C 0.97038 0.34578 0.02753 0.0
C1487 C 0.99128 0.36042 0.03438 0.0
C1488 C 0.99301 0.37496 0.99426 0.0
C1489 C 0.973 0.37557 0.95025 0.0
C1490 C 0.0237 0.38091 0.16567 0.0
C1491 C 0.03754 0.36498 0.18971 0.0
C1492 C 0.00955 0.37941 0.11459 0.0
C1493 C 0.00865 0.36189 0.08637 0.0
C1494 C 0.02281 0.34593 0.10991 0.0
C1495 C 0.03741 0.34751 0.16108 0.0
H1496 H 0.65762 0.7387 0.374 0.0
H1497 H 0.74211 0.76688 0.38527 0.0
H1498 H 0.63914 0.75806 0.45051 0.0
H1499 H 0.7242 0.78578 0.46307 0.0
H1500 H 0.69161 0.81887 0.60085 0.0
H1501 H 0.69153 0.80955 0.50315 0.0
H1502 H 0.65005 0.75605 0.5473 0.0
H1503 H 0.64972 0.76556 0.64398 0.0
C1504 C 0.67213 0.74926 0.39232 0.0
C1505 C 0.70148 0.75116 0.37418 0.0
C1506 C 0.66155 0.76033 0.43622 0.0
C1507 C 0.68018 0.77341 0.46329 0.0
C1508 C 0.70901 0.77609 0.44277 0.0
C1509 C 0.71948 0.76512 0.39851 0.0
C1510 C 0.68091 0.80563 0.58911 0.0
C1511 C 0.67091 0.79282 0.62985 0.0
C1512 C 0.68135 0.80013 0.53326 0.0
C1513 C 0.67155 0.78184 0.51756 0.0
C1514 C 0.65778 0.77024 0.55763 0.0
C1515 C 0.65747 0.7757 0.61325 0.0
H1516 H 0.53048 0.67301 0.43174 0.0
H1517 H 0.5059 0.61786 0.36594 0.0
H1518 H 0.49517 0.66884 0.50741 0.0
H1519 H 0.4706 0.61377 0.44146 0.0
H1520 H 0.46902 0.60211 0.63388 0.0
H1521 H 0.48733 0.60867 0.54104 0.0
H1522 H 0.4413 0.66272 0.54033 0.0
H1523 H 0.42242 0.65596 0.63402 0.0
C1524 C 0.51689 0.66028 0.43246 0.0
C1525 C 0.52133 0.64559 0.39366 0.0
C1526 C 0.49656 0.65795 0.47559 0.0
C1527 C 0.48052 0.64086 0.48059 0.0
C1528 C 0.48299 0.62698 0.43881 0.0
C1529 C 0.50317 0.62934 0.39561 0.0
C1530 C 0.46243 0.61528 0.61367 0.0
C1531 C 0.44457 0.62862 0.64117 0.0
C1532 C 0.47267 0.61895 0.56029 0.0
C1533 C 0.4656 0.63616 0.53346 0.0
C1534 C 0.447 0.64933 0.56022 0.0
C1535 C 0.43624 0.64547 0.61359 0.0
H1536 H 0.20791 0.18389 0.58793 0.0
H1537 H 0.15507 0.23381 0.62215 0.0
H1538 H 0.20731 0.19171 0.48897 0.0
H1539 H 0.15501 0.24192 0.52449 0.0
H1540 H 0.24578 0.23503 0.35693 0.0
H1541 H 0.23324 0.21615 0.4387 0.0
H1542 H 0.14348 0.23709 0.43029 0.0
H1543 H 0.15671 0.25682 0.35089 0.0
C1544 C 0.19517 0.19609 0.57407 0.0
C1545 C 0.1817 0.20833 0.61273 0.0
C1546 C 0.1952 0.20075 0.51746 0.0
C1547 C 0.1816 0.21765 0.49865 0.0
C1548 C 0.16556 0.22872 0.53697 0.0
C1549 C 0.1656 0.22409 0.59327 0.0
C1550 C 0.22331 0.23533 0.37215 0.0
C1551 C 0.20251 0.24782 0.34872 0.0
C1552 C 0.21594 0.22434 0.41873 0.0
C1553 C 0.18741 0.22537 0.44198 0.0
C1554 C 0.16586 0.23634 0.41454 0.0
C1555 C 0.17339 0.24758 0.36879 0.0
H1556 H 0.54058 0.67369 0.15917 0.0
H1557 H 0.61342 0.63805 0.10753 0.0
H1558 H 0.51752 0.66959 0.06859 0.0
H1559 H 0.59024 0.63391 0.01667 0.0
H1560 H 0.50946 0.60547 0.92198 0.0
H1561 H 0.54404 0.61539 0.9942 0.0
H1562 H 0.52049 0.67437 0.9658 0.0
H1563 H 0.48588 0.66447 0.89362 0.0
C1564 C 0.55208 0.66546 0.12787 0.0
C1565 C 0.57863 0.65605 0.14056 0.0
C1566 C 0.53891 0.66313 0.0759 0.0
C1567 C 0.55192 0.65122 0.0358 0.0
C1568 C 0.57958 0.64298 0.04706 0.0
C1569 C 0.59293 0.64548 0.0989 0.0
C1570 C 0.51211 0.62057 0.93041 0.0
C1571 C 0.49478 0.63417 0.90258 0.0
C1572 C 0.53205 0.62627 0.9715 0.0
C1573 C 0.53486 0.64566 0.98579 0.0
C1574 C 0.5186 0.65933 0.95594 0.0
C1575 C 0.49886 0.65365 0.91455 0.0
H1576 H 0.32852 0.80433 0.11996 0.0
H1577 H 0.31128 0.74622 0.17056 0.0
H1578 H 0.35776 0.79249 0.04153 0.0
H1579 H 0.34007 0.73447 0.09304 0.0
H1580 H 0.32936 0.75881 0.87615 0.0
H1581 H 0.33413 0.77694 0.9611 0.0
H1582 H 0.38492 0.73106 0.03397 0.0
H1583 H 0.38089 0.71308 0.94699 0.0
C1584 C 0.33182 0.78909 0.11541 0.0
C1585 C 0.31712 0.77617 0.15037 0.0
C1586 C 0.34856 0.78231 0.07064 0.0
C1587 C 0.35099 0.76254 0.06069 0.0
C1588 C 0.33895 0.74976 0.09957 0.0
C1589 C 0.32207 0.7565 0.14372 0.0
C1590 C 0.34266 0.75291 0.90943 0.0
C1591 C 0.35344 0.73414 0.9063 0.0
C1592 C 0.34559 0.76339 0.9582 0.0
C1593 C 0.3591 0.75518 0.00496 0.0
C1594 C 0.37379 0.73756 -0.00108 0.0
C1595 C 0.37131 0.7272 0.94939 0.0
H1596 H 0.0105 0.33023 0.45072 0.0
H1597 H 0.9888 0.39027 0.45618 0.0
H1598 H 0.97359 0.32387 0.52265 0.0
H1599 H 0.95191 0.38391 0.5276 0.0
H1600 H 0.87677 0.36708 0.63586 0.0
H1601 H 0.90385 0.36681 0.5481 0.0
H1602 H 0.97281 0.3332 0.62429 0.0
H1603 H 0.94587 0.33353 0.71196 0.0
C1604 C 0.99749 0.342 0.46659 0.0
C1605 C 0.00265 0.36077 0.44822 0.0
C1606 C 0.97645 0.33836 0.50778 0.0
C1607 C 0.95988 0.35339 0.53068 0.0
C1608 C 0.96407 0.37201 0.51026 0.0
C1609 C 0.98536 0.37568 0.46968 0.0
C1610 C 0.89728 0.35916 0.63341 0.0
C1611 C 0.90939 0.3505 0.68088 0.0
C1612 C 0.91285 0.35912 0.58329 0.0
C1613 C 0.94059 0.3502 0.5796 0.0
C1614 C 0.95143 0.34013 0.6258 0.0
C1615 C 0.93604 0.34036 0.67606 0.0
H1616 H 0.2234 0.73083 0.07138 0.0
H1617 H 0.15748 0.6868 0.0924 0.0
H1618 H 0.21285 0.73217 0.97307 0.0
H1619 H 0.14687 0.6881 0.99216 0.0
H1620 H 0.11527 0.72615 0.8337 0.0
H1621 H 0.12523 0.71308 0.92571 0.0
H1622 H 0.21847 0.71199 0.88868 0.0
H1623 H 0.20866 0.72536 0.79701 0.0
C1624 C 0.2065 0.72145 0.05496 0.0
C1625 C 0.19114 0.70876 0.08966 0.0
C1626 C 0.2008 0.722 -0.00169 0.0
C1627 C 0.17945 0.70997 0.97468 0.0
C1628 C 0.16362 0.69743 0.00932 0.0
C1629 C 0.16958 0.69674 0.06648 0.0
C1630 C 0.13779 0.72241 0.84434 0.0
C1631 C 0.16128 0.72719 0.80873 0.0
C1632 C 0.14346 0.71489 0.8971 0.0
C1633 C 0.17268 0.712 0.91475 0.0
C1634 C 0.19578 0.71448 0.87641 0.0
C1635 C 0.19015 0.72205 0.82386 0.0
H1636 H 0.92544 0.59655 0.84269 0.0
H1637 H 0.99441 0.57624 0.73386 0.0
H1638 H 0.96016 0.59627 0.92044 0.0
H1639 H 0.02917 0.57639 0.81087 0.0
H1640 H 0.07072 0.55507 0.97288 0.0
H1641 H 0.03736 0.55777 0.8938 0.0
H1642 H 0.00426 0.61125 0.95819 0.0
H1643 H 0.03718 0.60829 0.03793 0.0
C1644 C 0.9481 0.5923 0.83525 0.0
C1645 C 0.95717 0.5863 0.78236 0.0
C1646 C 0.96803 0.59219 0.87969 0.0
C1647 C 0.9974 0.58613 0.87196 0.0
C1648 C 0.00659 0.58076 0.81851 0.0
C1649 C 0.9867 0.58081 0.77429 0.0
C1650 C 0.05642 0.56743 0.96996 0.0
C1651 C 0.05653 0.58144 0.01157 0.0
C1652 C 0.0374 0.56905 0.92452 0.0
C1653 C 0.01813 0.58475 0.91964 0.0
C1654 C 0.01853 0.59887 0.96104 0.0
C1655 C 0.03753 0.59723 0.00652 0.0
H1656 H 0.35959 0.33261 0.54733 0.0
H1657 H 0.39802 0.2762 0.54681 0.0
H1658 H 0.36674 0.33479 0.44682 0.0
H1659 H 0.40554 0.27836 0.44752 0.0
H1660 H 0.41021 0.27694 0.27558 0.0
H1661 H 0.42506 0.29225 0.36189 0.0
H1662 H 0.33785 0.31653 0.37814 0.0
H1663 H 0.323 0.30129 0.2919 0.0
C1664 C 0.37067 0.32102 0.52612 0.0
C1665 C 0.37772 0.30407 0.55447 0.0
C1666 C 0.3747 0.32225 0.46858 0.0
C1667 C 0.38641 0.30669 0.43896 0.0
C1668 C 0.39669 0.29072 0.4688 0.0
C1669 C 0.39222 0.28939 0.52587 0.0
C1670 C 0.39457 0.28621 0.29632 0.0
C1671 C 0.36511 0.28732 0.27827 0.0
C1672 C 0.40309 0.29496 0.34588 0.0
C1673 C 0.38224 0.3049 0.37801 0.0
C1674 C 0.35429 0.30867 0.35494 0.0
C1675 C 0.34573 0.29989 0.3054 0.0
H1676 H 0.467 0.43525 0.61302 0.0
H1677 H 0.44273 0.37918 0.55363 0.0
H1678 H 0.50122 0.4388 0.53557 0.0
H1679 H 0.47715 0.3828 0.47593 0.0
H1680 H 0.55789 0.39381 0.36043 0.0
H1681 H 0.53243 0.38797 0.44896 0.0
H1682 H 0.48799 0.44229 0.43337 0.0
H1683 H 0.51292 0.448 0.3455 0.0
C1684 C 0.46935 0.42355 0.58397 0.0
C1685 C 0.45195 0.40703 0.58893 0.0
C1686 C 0.48888 0.42561 0.53962 0.0
C1687 C 0.49157 0.41115 0.49959 0.0
C1688 C 0.47558 0.39412 0.50642 0.0
C1689 C 0.45581 0.3921 0.55066 0.0
C1690 C 0.54284 0.40452 0.37635 0.0
C1691 C 0.53727 0.42133 0.34618 0.0
C1692 C 0.52826 0.40115 0.42672 0.0
C1693 C 0.50842 0.41474 0.44802 0.0
C1694 C 0.50347 0.4317 0.4183 0.0
C1695 C 0.51759 0.4349 0.36781 0.0
loop_
_geom_bond_atom_site_label_1
_geom_bond_atom_site_label_2
_geom_bond_distance
_geom_bond_site_symmetry_2
_ccdc_geom_bond_type
In0 O1 2.294 . S
In0 O2 2.326 . S
In0 O6 2.266 . S
In0 O7 2.326 . S
In0 O8 2.266 . S
In0 O9 2.326 . S
In0 O11 2.294 . S
In0 O12 2.326 . S
O1 In0 2.294 . S
O1 C10 1.240 . S
O2 In0 2.326 . S
O2 C10 1.252 . S
C3 O6 1.252 . S
C3 O7 1.260 . S
C4 O11 1.240 . S
C4 O12 1.252 . S
C5 O8 1.252 . S
C5 O9 1.260 . S
O6 In0 2.266 . S
O6 C3 1.252 . S
O7 In0 2.326 . S
O7 C3 1.260 . S
O8 In0 2.266 . S
O8 C5 1.252 . S
O9 In0 2.326 . S
O9 C5 1.260 . S
C10 O1 1.240 . S
C10 O2 1.252 . S
O11 In0 2.294 . S
O11 C4 1.240 . S
O12 In0 2.326 . S
O12 C4 1.252 . S
In13 O14 2.294 . S
In13 O15 2.326 . S
In13 O19 2.266 . S
In13 O20 2.326 . S
In13 O21 2.266 . S
In13 O22 2.326 . S
In13 O24 2.294 . S
In13 O25 2.326 . S
O14 In13 2.294 . S
O14 C23 1.240 . S
O15 In13 2.326 . S
O15 C23 1.252 . S
C16 O19 1.252 . S
C16 O20 1.260 . S
C17 O24 1.240 . S
C17 O25 1.252 . S
C18 O21 1.252 . S
C18 O22 1.260 . S
O19 In13 2.266 . S
O19 C16 1.252 . S
O20 In13 2.326 . S
O20 C16 1.260 . S
O21 In13 2.266 . S
O21 C18 1.252 . S
O22 In13 2.326 . S
O22 C18 1.260 . S
C23 O14 1.240 . S
C23 O15 1.252 . S
O24 In13 2.294 . S
O24 C17 1.240 . S
O25 In13 2.326 . S
O25 C17 1.252 . S
In26 O27 2.294 . S
In26 O28 2.326 . S
In26 O32 2.266 . S
In26 O33 2.326 . S
In26 O34 2.266 . S
In26 O35 2.326 . S
In26 O37 2.294 . S
In26 O38 2.326 . S
O27 In26 2.294 . S
O27 C36 1.240 . S
O28 In26 2.326 . S
O28 C36 1.252 . S
C29 O32 1.252 . S
C29 O33 1.260 . S
C30 O37 1.240 . S
C30 O38 1.252 . S
C31 O34 1.252 . S
C31 O35 1.260 . S
O32 In26 2.266 . S
O32 C29 1.252 . S
O33 In26 2.326 . S
O33 C29 1.260 . S
O34 In26 2.266 . S
O34 C31 1.252 . S
O35 In26 2.326 . S
O35 C31 1.260 . S
C36 O27 1.240 . S
C36 O28 1.252 . S
O37 In26 2.294 . S
O37 C30 1.240 . S
O38 In26 2.326 . S
O38 C30 1.252 . S
In39 O40 2.294 . S
In39 O41 2.326 . S
In39 O45 2.266 . S
In39 O46 2.326 . S
In39 O47 2.266 . S
In39 O48 2.326 . S
In39 O50 2.294 . S
In39 O51 2.326 . S
O40 In39 2.294 . S
O40 C49 1.240 . S
O41 In39 2.326 . S
O41 C49 1.252 . S
C42 O45 1.252 . S
C42 O46 1.260 . S
C43 O50 1.240 . S
C43 O51 1.252 . S
C44 O47 1.252 . S
C44 O48 1.260 . S
O45 In39 2.266 . S
O45 C42 1.252 . S
O46 In39 2.326 . S
O46 C42 1.260 . S
O47 In39 2.266 . S
O47 C44 1.252 . S
O48 In39 2.326 . S
O48 C44 1.260 . S
C49 O40 1.240 . S
C49 O41 1.252 . S
O50 In39 2.294 . S
O50 C43 1.240 . S
O51 In39 2.326 . S
O51 C43 1.252 . S
In52 O53 2.294 . S
In52 O54 2.326 . S
In52 O58 2.266 . S
In52 O59 2.326 . S
In52 O60 2.266 . S
In52 O61 2.326 . S
In52 O63 2.294 . S
In52 O64 2.326 . S
O53 In52 2.294 . S
O53 C62 1.240 . S
O54 In52 2.326 . S
O54 C62 1.252 . S
C55 O58 1.252 . S
C55 O59 1.260 . S
C56 O63 1.240 . S
C56 O64 1.252 . S
C57 O60 1.252 . S
C57 O61 1.260 . S
O58 In52 2.266 . S
O58 C55 1.252 . S
O59 In52 2.326 . S
O59 C55 1.260 . S
O60 In52 2.266 . S
O60 C57 1.252 . S
O61 In52 2.326 . S
O61 C57 1.260 . S
C62 O53 1.240 . S
C62 O54 1.252 . S
O63 In52 2.294 . S
O63 C56 1.240 . S
O64 In52 2.326 . S
O64 C56 1.252 . S
In65 O66 2.294 . S
In65 O67 2.326 . S
In65 O71 2.266 . S
In65 O72 2.326 . S
In65 O73 2.266 . S
In65 O74 2.326 . S
In65 O76 2.294 . S
In65 O77 2.326 . S
O66 In65 2.294 . S
O66 C75 1.240 . S
O67 In65 2.326 . S
O67 C75 1.252 . S
C68 O71 1.252 . S
C68 O72 1.260 . S
C69 O76 1.240 . S
C69 O77 1.252 . S
C70 O73 1.252 . S
C70 O74 1.260 . S
O71 In65 2.266 . S
O71 C68 1.252 . S
O72 In65 2.326 . S
O72 C68 1.260 . S
O73 In65 2.266 . S
O73 C70 1.252 . S
O74 In65 2.326 . S
O74 C70 1.260 . S
C75 O66 1.240 . S
C75 O67 1.252 . S
O76 In65 2.294 . S
O76 C69 1.240 . S
O77 In65 2.326 . S
O77 C69 1.252 . S
In78 O79 2.294 . S
In78 O80 2.326 . S
In78 O84 2.266 . S
In78 O85 2.326 . S
In78 O86 2.266 . S
In78 O87 2.326 . S
In78 O89 2.294 . S
In78 O90 2.326 . S
O79 In78 2.294 . S
O79 C88 1.240 . S
O80 In78 2.326 . S
O80 C88 1.252 . S
C81 O84 1.252 . S
C81 O85 1.260 . S
C82 O89 1.240 . S
C82 O90 1.252 . S
C83 O86 1.252 . S
C83 O87 1.260 . S
O84 In78 2.266 . S
O84 C81 1.252 . S
O85 In78 2.326 . S
O85 C81 1.260 . S
O86 In78 2.266 . S
O86 C83 1.252 . S
O87 In78 2.326 . S
O87 C83 1.260 . S
C88 O79 1.240 . S
C88 O80 1.252 . S
O89 In78 2.294 . S
O89 C82 1.240 . S
O90 In78 2.326 . S
O90 C82 1.252 . S
In91 O92 2.294 . S
In91 O93 2.326 . S
In91 O97 2.266 . S
In91 O98 2.326 . S
In91 O99 2.266 . S
In91 O100 2.326 . S
In91 O102 2.294 . S
In91 O103 2.326 . S
O92 In91 2.294 . S
O92 C101 1.240 . S
O93 In91 2.326 . S
O93 C101 1.252 . S
C94 O97 1.252 . S
C94 O98 1.260 . S
C95 O102 1.240 . S
C95 O103 1.252 . S
C96 O99 1.252 . S
C96 O100 1.260 . S
O97 In91 2.266 . S
O97 C94 1.252 . S
O98 In91 2.326 . S
O98 C94 1.260 . S
O99 In91 2.266 . S
O99 C96 1.252 . S
O100 In91 2.326 . S
O100 C96 1.260 . S
C101 O92 1.240 . S
C101 O93 1.252 . S
O102 In91 2.294 . S
O102 C95 1.240 . S
O103 In91 2.326 . S
O103 C95 1.252 . S
In104 O105 2.294 . S
In104 O106 2.326 . S
In104 O110 2.266 . S
In104 O111 2.326 . S
In104 O112 2.266 . S
In104 O113 2.326 . S
In104 O115 2.294 . S
In104 O116 2.326 . S
O105 In104 2.294 . S
O105 C114 1.240 . S
O106 In104 2.326 . S
O106 C114 1.252 . S
C107 O110 1.252 . S
C107 O111 1.260 . S
C108 O115 1.240 . S
C108 O116 1.252 . S
C109 O112 1.252 . S
C109 O113 1.260 . S
O110 In104 2.266 . S
O110 C107 1.252 . S
O111 In104 2.326 . S
O111 C107 1.260 . S
O112 In104 2.266 . S
O112 C109 1.252 . S
O113 In104 2.326 . S
O113 C109 1.260 . S
C114 O105 1.240 . S
C114 O106 1.252 . S
O115 In104 2.294 . S
O115 C108 1.240 . S
O116 In104 2.326 . S
O116 C108 1.252 . S
In117 O118 2.294 . S
In117 O119 2.326 . S
In117 O123 2.266 . S
In117 O124 2.326 . S
In117 O125 2.266 . S
In117 O126 2.326 . S
In117 O128 2.294 . S
In117 O129 2.326 . S
O118 In117 2.294 . S
O118 C127 1.240 . S
O119 In117 2.326 . S
O119 C127 1.252 . S
C120 O123 1.252 . S
C120 O124 1.260 . S
C121 O128 1.240 . S
C121 O129 1.252 . S
C122 O125 1.252 . S
C122 O126 1.260 . S
O123 In117 2.266 . S
O123 C120 1.252 . S
O124 In117 2.326 . S
O124 C120 1.260 . S
O125 In117 2.266 . S
O125 C122 1.252 . S
O126 In117 2.326 . S
O126 C122 1.260 . S
C127 O118 1.240 . S
C127 O119 1.252 . S
O128 In117 2.294 . S
O128 C121 1.240 . S
O129 In117 2.326 . S
O129 C121 1.252 . S
In130 O131 2.294 . S
In130 O132 2.326 . S
In130 O136 2.266 . S
In130 O137 2.326 . S
In130 O138 2.266 . S
In130 O139 2.326 . S
In130 O141 2.294 . S
In130 O142 2.326 . S
O131 In130 2.294 . S
O131 C140 1.240 . S
O132 In130 2.326 . S
O132 C140 1.252 . S
C133 O136 1.252 . S
C133 O137 1.260 . S
C134 O141 1.240 . S
C134 O142 1.252 . S
C135 O138 1.252 . S
C135 O139 1.260 . S
O136 In130 2.266 . S
O136 C133 1.252 . S
O137 In130 2.326 . S
O137 C133 1.260 . S
O138 In130 2.266 . S
O138 C135 1.252 . S
O139 In130 2.326 . S
O139 C135 1.260 . S
C140 O131 1.240 . S
C140 O132 1.252 . S
O141 In130 2.294 . S
O141 C134 1.240 . S
O142 In130 2.326 . S
O142 C134 1.252 . S
In143 O144 2.294 . S
In143 O145 2.326 . S
In143 O149 2.266 . S
In143 O150 2.326 . S
In143 O151 2.266 . S
In143 O152 2.326 . S
In143 O154 2.294 . S
In143 O155 2.326 . S
O144 In143 2.294 . S
O144 C153 1.240 . S
O145 In143 2.326 . S
O145 C153 1.252 . S
C146 O149 1.252 . S
C146 O150 1.260 . S
C147 O154 1.240 . S
C147 O155 1.252 . S
C148 O151 1.252 . S
C148 O152 1.260 . S
O149 In143 2.266 . S
O149 C146 1.252 . S
O150 In143 2.326 . S
O150 C146 1.260 . S
O151 In143 2.266 . S
O151 C148 1.252 . S
O152 In143 2.326 . S
O152 C148 1.260 . S
C153 O144 1.240 . S
C153 O145 1.252 . S
O154 In143 2.294 . S
O154 C147 1.240 . S
O155 In143 2.326 . S
O155 C147 1.252 . S
In156 O157 2.294 . S
In156 O158 2.326 . S
In156 O162 2.266 . S
In156 O163 2.326 . S
In156 O164 2.266 . S
In156 O165 2.326 . S
In156 O167 2.294 . S
In156 O168 2.326 . S
O157 In156 2.294 . S
O157 C166 1.240 . S
O158 In156 2.326 . S
O158 C166 1.252 . S
C159 O162 1.252 . S
C159 O163 1.260 . S
C160 O167 1.240 . S
C160 O168 1.252 . S
C161 O164 1.252 . S
C161 O165 1.260 . S
O162 In156 2.266 . S
O162 C159 1.252 . S
O163 In156 2.326 . S
O163 C159 1.260 . S
O164 In156 2.266 . S
O164 C161 1.252 . S
O165 In156 2.326 . S
O165 C161 1.260 . S
C166 O157 1.240 . S
C166 O158 1.252 . S
O167 In156 2.294 . S
O167 C160 1.240 . S
O168 In156 2.326 . S
O168 C160 1.252 . S
In169 O170 2.294 . S
In169 O171 2.326 . S
In169 O175 2.266 . S
In169 O176 2.326 . S
In169 O177 2.266 . S
In169 O178 2.326 . S
In169 O180 2.294 . S
In169 O181 2.326 . S
O170 In169 2.294 . S
O170 C179 1.240 . S
O171 In169 2.326 . S
O171 C179 1.252 . S
C172 O175 1.252 . S
C172 O176 1.260 . S
C173 O180 1.240 . S
C173 O181 1.252 . S
C174 O177 1.252 . S
C174 O178 1.260 . S
O175 In169 2.266 . S
O175 C172 1.252 . S
O176 In169 2.326 . S
O176 C172 1.260 . S
O177 In169 2.266 . S
O177 C174 1.252 . S
O178 In169 2.326 . S
O178 C174 1.260 . S
C179 O170 1.240 . S
C179 O171 1.252 . S
O180 In169 2.294 . S
O180 C173 1.240 . S
O181 In169 2.326 . S
O181 C173 1.252 . S
In182 O183 2.294 . S
In182 O184 2.326 . S
In182 O188 2.266 . S
In182 O189 2.326 . S
In182 O190 2.266 . S
In182 O191 2.326 . S
In182 O193 2.294 . S
In182 O194 2.326 . S
O183 In182 2.294 . S
O183 C192 1.240 . S
O184 In182 2.326 . S
O184 C192 1.252 . S
C185 O188 1.252 . S
C185 O189 1.260 . S
C186 O193 1.240 . S
C186 O194 1.252 . S
C187 O190 1.252 . S
C187 O191 1.260 . S
O188 In182 2.266 . S
O188 C185 1.252 . S
O189 In182 2.326 . S
O189 C185 1.260 . S
O190 In182 2.266 . S
O190 C187 1.252 . S
O191 In182 2.326 . S
O191 C187 1.260 . S
C192 O183 1.240 . S
C192 O184 1.252 . S
O193 In182 2.294 . S
O193 C186 1.240 . S
O194 In182 2.326 . S
O194 C186 1.252 . S
In195 O196 2.294 . S
In195 O197 2.326 . S
In195 O201 2.266 . S
In195 O202 2.326 . S
In195 O203 2.266 . S
In195 O204 2.326 . S
In195 O206 2.294 . S
In195 O207 2.326 . S
O196 In195 2.294 . S
O196 C205 1.240 . S
O197 In195 2.326 . S
O197 C205 1.252 . S
C198 O201 1.252 . S
C198 O202 1.260 . S
C199 O206 1.240 . S
C199 O207 1.252 . S
C200 O203 1.252 . S
C200 O204 1.260 . S
O201 In195 2.266 . S
O201 C198 1.252 . S
O202 In195 2.326 . S
O202 C198 1.260 . S
O203 In195 2.266 . S
O203 C200 1.252 . S
O204 In195 2.326 . S
O204 C200 1.260 . S
C205 O196 1.240 . S
C205 O197 1.252 . S
O206 In195 2.294 . S
O206 C199 1.240 . S
O207 In195 2.326 . S
O207 C199 1.252 . S
In208 O209 2.294 . S
In208 O210 2.326 . S
In208 O214 2.266 . S
In208 O215 2.326 . S
In208 O216 2.266 . S
In208 O217 2.326 . S
In208 O219 2.294 . S
In208 O220 2.326 . S
O209 In208 2.294 . S
O209 C218 1.240 . S
O210 In208 2.326 . S
O210 C218 1.252 . S
C211 O214 1.252 . S
C211 O215 1.260 . S
C212 O219 1.240 . S
C212 O220 1.252 . S
C213 O216 1.252 . S
C213 O217 1.260 . S
O214 In208 2.266 . S
O214 C211 1.252 . S
O215 In208 2.326 . S
O215 C211 1.260 . S
O216 In208 2.266 . S
O216 C213 1.252 . S
O217 In208 2.326 . S
O217 C213 1.260 . S
C218 O209 1.240 . S
C218 O210 1.252 . S
O219 In208 2.294 . S
O219 C212 1.240 . S
O220 In208 2.326 . S
O220 C212 1.252 . S
In221 O222 2.294 . S
In221 O223 2.326 . S
In221 O227 2.266 . S
In221 O228 2.326 . S
In221 O229 2.266 . S
In221 O230 2.326 . S
In221 O232 2.294 . S
In221 O233 2.326 . S
O222 In221 2.294 . S
O222 C231 1.240 . S
O223 In221 2.326 . S
O223 C231 1.252 . S
C224 O227 1.252 . S
C224 O228 1.260 . S
C225 O232 1.240 . S
C225 O233 1.252 . S
C226 O229 1.252 . S
C226 O230 1.260 . S
O227 In221 2.266 . S
O227 C224 1.252 . S
O228 In221 2.326 . S
O228 C224 1.260 . S
O229 In221 2.266 . S
O229 C226 1.252 . S
O230 In221 2.326 . S
O230 C226 1.260 . S
C231 O222 1.240 . S
C231 O223 1.252 . S
O232 In221 2.294 . S
O232 C225 1.240 . S
O233 In221 2.326 . S
O233 C225 1.252 . S
In234 O235 2.294 . S
In234 O236 2.326 . S
In234 O240 2.266 . S
In234 O241 2.326 . S
In234 O242 2.266 . S
In234 O243 2.326 . S
In234 O245 2.294 . S
In234 O246 2.326 . S
O235 In234 2.294 . S
O235 C244 1.240 . S
O236 In234 2.326 . S
O236 C244 1.252 . S
C237 O240 1.252 . S
C237 O241 1.260 . S
C238 O245 1.240 . S
C238 O246 1.252 . S
C239 O242 1.252 . S
C239 O243 1.260 . S
O240 In234 2.266 . S
O240 C237 1.252 . S
O241 In234 2.326 . S
O241 C237 1.260 . S
O242 In234 2.266 . S
O242 C239 1.252 . S
O243 In234 2.326 . S
O243 C239 1.260 . S
C244 O235 1.240 . S
C244 O236 1.252 . S
O245 In234 2.294 . S
O245 C238 1.240 . S
O246 In234 2.326 . S
O246 C238 1.252 . S
In247 O248 2.294 . S
In247 O249 2.326 . S
In247 O253 2.266 . S
In247 O254 2.326 . S
In247 O255 2.266 . S
In247 O256 2.326 . S
In247 O258 2.294 . S
In247 O259 2.326 . S
O248 In247 2.294 . S
O248 C257 1.240 . S
O249 In247 2.326 . S
O249 C257 1.252 . S
C250 O253 1.252 . S
C250 O254 1.260 . S
C251 O258 1.240 . S
C251 O259 1.252 . S
C252 O255 1.252 . S
C252 O256 1.260 . S
O253 In247 2.266 . S
O253 C250 1.252 . S
O254 In247 2.326 . S
O254 C250 1.260 . S
O255 In247 2.266 . S
O255 C252 1.252 . S
O256 In247 2.326 . S
O256 C252 1.260 . S
C257 O248 1.240 . S
C257 O249 1.252 . S
O258 In247 2.294 . S
O258 C251 1.240 . S
O259 In247 2.326 . S
O259 C251 1.252 . S
In260 O261 2.294 . S
In260 O262 2.326 . S
In260 O266 2.266 . S
In260 O267 2.326 . S
In260 O268 2.266 . S
In260 O269 2.326 . S
In260 O271 2.294 . S
In260 O272 2.326 . S
O261 In260 2.294 . S
O261 C270 1.240 . S
O262 In260 2.326 . S
O262 C270 1.252 . S
C263 O266 1.252 . S
C263 O267 1.260 . S
C264 O271 1.240 . S
C264 O272 1.252 . S
C265 O268 1.252 . S
C265 O269 1.260 . S
O266 In260 2.266 . S
O266 C263 1.252 . S
O267 In260 2.326 . S
O267 C263 1.260 . S
O268 In260 2.266 . S
O268 C265 1.252 . S
O269 In260 2.326 . S
O269 C265 1.260 . S
C270 O261 1.240 . S
C270 O262 1.252 . S
O271 In260 2.294 . S
O271 C264 1.240 . S
O272 In260 2.326 . S
O272 C264 1.252 . S
In273 O274 2.294 . S
In273 O275 2.326 . S
In273 O279 2.266 . S
In273 O280 2.326 . S
In273 O281 2.266 . S
In273 O282 2.326 . S
In273 O284 2.294 . S
In273 O285 2.326 . S
O274 In273 2.294 . S
O274 C283 1.240 . S
O275 In273 2.326 . S
O275 C283 1.252 . S
C276 O279 1.252 . S
C276 O280 1.260 . S
C277 O284 1.240 . S
C277 O285 1.252 . S
C278 O281 1.252 . S
C278 O282 1.260 . S
O279 In273 2.266 . S
O279 C276 1.252 . S
O280 In273 2.326 . S
O280 C276 1.260 . S
O281 In273 2.266 . S
O281 C278 1.252 . S
O282 In273 2.326 . S
O282 C278 1.260 . S
C283 O274 1.240 . S
C283 O275 1.252 . S
O284 In273 2.294 . S
O284 C277 1.240 . S
O285 In273 2.326 . S
O285 C277 1.252 . S
In286 O287 2.294 . S
In286 O288 2.326 . S
In286 O292 2.266 . S
In286 O293 2.326 . S
In286 O294 2.266 . S
In286 O295 2.326 . S
In286 O297 2.294 . S
In286 O298 2.326 . S
O287 In286 2.294 . S
O287 C296 1.240 . S
O288 In286 2.326 . S
O288 C296 1.252 . S
C289 O292 1.252 . S
C289 O293 1.260 . S
C290 O297 1.240 . S
C290 O298 1.252 . S
C291 O294 1.252 . S
C291 O295 1.260 . S
O292 In286 2.266 . S
O292 C289 1.252 . S
O293 In286 2.326 . S
O293 C289 1.260 . S
O294 In286 2.266 . S
O294 C291 1.252 . S
O295 In286 2.326 . S
O295 C291 1.260 . S
C296 O287 1.240 . S
C296 O288 1.252 . S
O297 In286 2.294 . S
O297 C290 1.240 . S
O298 In286 2.326 . S
O298 C290 1.252 . S
In299 O300 2.294 . S
In299 O301 2.326 . S
In299 O305 2.266 . S
In299 O306 2.326 . S
In299 O307 2.266 . S
In299 O308 2.326 . S
In299 O310 2.294 . S
In299 O311 2.326 . S
O300 In299 2.294 . S
O300 C309 1.240 . S
O301 In299 2.326 . S
O301 C309 1.252 . S
C302 O305 1.252 . S
C302 O306 1.260 . S
C303 O310 1.240 . S
C303 O311 1.252 . S
C304 O307 1.252 . S
C304 O308 1.260 . S
O305 In299 2.266 . S
O305 C302 1.252 . S
O306 In299 2.326 . S
O306 C302 1.260 . S
O307 In299 2.266 . S
O307 C304 1.252 . S
O308 In299 2.326 . S
O308 C304 1.260 . S
C309 O300 1.240 . S
C309 O301 1.252 . S
O310 In299 2.294 . S
O310 C303 1.240 . S
O311 In299 2.326 . S
O311 C303 1.252 . S
In312 O313 2.294 . S
In312 O314 2.326 . S
In312 O318 2.266 . S
In312 O319 2.326 . S
In312 O320 2.266 . S
In312 O321 2.326 . S
In312 O323 2.294 . S
In312 O324 2.326 . S
O313 In312 2.294 . S
O313 C322 1.240 . S
O314 In312 2.326 . S
O314 C322 1.252 . S
C315 O318 1.252 . S
C315 O319 1.260 . S
C316 O323 1.240 . S
C316 O324 1.252 . S
C317 O320 1.252 . S
C317 O321 1.260 . S
O318 In312 2.266 . S
O318 C315 1.252 . S
O319 In312 2.326 . S
O319 C315 1.260 . S
O320 In312 2.266 . S
O320 C317 1.252 . S
O321 In312 2.326 . S
O321 C317 1.260 . S
C322 O313 1.240 . S
C322 O314 1.252 . S
O323 In312 2.294 . S
O323 C316 1.240 . S
O324 In312 2.326 . S
O324 C316 1.252 . S
In325 O326 2.294 . S
In325 O327 2.326 . S
In325 O331 2.266 . S
In325 O332 2.326 . S
In325 O333 2.266 . S
In325 O334 2.326 . S
In325 O336 2.294 . S
In325 O337 2.326 . S
O326 In325 2.294 . S
O326 C335 1.240 . S
O327 In325 2.326 . S
O327 C335 1.252 . S
C328 O331 1.252 . S
C328 O332 1.260 . S
C329 O336 1.240 . S
C329 O337 1.252 . S
C330 O333 1.252 . S
C330 O334 1.260 . S
O331 In325 2.266 . S
O331 C328 1.252 . S
O332 In325 2.326 . S
O332 C328 1.260 . S
O333 In325 2.266 . S
O333 C330 1.252 . S
O334 In325 2.326 . S
O334 C330 1.260 . S
C335 O326 1.240 . S
C335 O327 1.252 . S
O336 In325 2.294 . S
O336 C329 1.240 . S
O337 In325 2.326 . S
O337 C329 1.252 . S
In338 O339 2.294 . S
In338 O340 2.326 . S
In338 O344 2.266 . S
In338 O345 2.326 . S
In338 O346 2.266 . S
In338 O347 2.326 . S
In338 O349 2.294 . S
In338 O350 2.326 . S
O339 In338 2.294 . S
O339 C348 1.240 . S
O340 In338 2.326 . S
O340 C348 1.252 . S
C341 O344 1.252 . S
C341 O345 1.260 . S
C342 O349 1.240 . S
C342 O350 1.252 . S
C343 O346 1.252 . S
C343 O347 1.260 . S
O344 In338 2.266 . S
O344 C341 1.252 . S
O345 In338 2.326 . S
O345 C341 1.260 . S
O346 In338 2.266 . S
O346 C343 1.252 . S
O347 In338 2.326 . S
O347 C343 1.260 . S
C348 O339 1.240 . S
C348 O340 1.252 . S
O349 In338 2.294 . S
O349 C342 1.240 . S
O350 In338 2.326 . S
O350 C342 1.252 . S
In351 O352 2.294 . S
In351 O353 2.326 . S
In351 O357 2.266 . S
In351 O358 2.326 . S
In351 O359 2.266 . S
In351 O360 2.326 . S
In351 O362 2.294 . S
In351 O363 2.326 . S
O352 In351 2.294 . S
O352 C361 1.240 . S
O353 In351 2.326 . S
O353 C361 1.252 . S
C354 O357 1.252 . S
C354 O358 1.260 . S
C355 O362 1.240 . S
C355 O363 1.252 . S
C356 O359 1.252 . S
C356 O360 1.260 . S
O357 In351 2.266 . S
O357 C354 1.252 . S
O358 In351 2.326 . S
O358 C354 1.260 . S
O359 In351 2.266 . S
O359 C356 1.252 . S
O360 In351 2.326 . S
O360 C356 1.260 . S
C361 O352 1.240 . S
C361 O353 1.252 . S
O362 In351 2.294 . S
O362 C355 1.240 . S
O363 In351 2.326 . S
O363 C355 1.252 . S
In364 O365 2.294 . S
In364 O366 2.326 . S
In364 O370 2.266 . S
In364 O371 2.326 . S
In364 O372 2.266 . S
In364 O373 2.326 . S
In364 O375 2.294 . S
In364 O376 2.326 . S
O365 In364 2.294 . S
O365 C374 1.240 . S
O366 In364 2.326 . S
O366 C374 1.252 . S
C367 O370 1.252 . S
C367 O371 1.260 . S
C368 O375 1.240 . S
C368 O376 1.252 . S
C369 O372 1.252 . S
C369 O373 1.260 . S
O370 In364 2.266 . S
O370 C367 1.252 . S
O371 In364 2.326 . S
O371 C367 1.260 . S
O372 In364 2.266 . S
O372 C369 1.252 . S
O373 In364 2.326 . S
O373 C369 1.260 . S
C374 O365 1.240 . S
C374 O366 1.252 . S
O375 In364 2.294 . S
O375 C368 1.240 . S
O376 In364 2.326 . S
O376 C368 1.252 . S
In377 O378 2.294 . S
In377 O379 2.326 . S
In377 O383 2.266 . S
In377 O384 2.326 . S
In377 O385 2.266 . S
In377 O386 2.326 . S
In377 O388 2.294 . S
In377 O389 2.326 . S
O378 In377 2.294 . S
O378 C387 1.240 . S
O379 In377 2.326 . S
O379 C387 1.252 . S
C380 O383 1.252 . S
C380 O384 1.260 . S
C381 O388 1.240 . S
C381 O389 1.252 . S
C382 O385 1.252 . S
C382 O386 1.260 . S
O383 In377 2.266 . S
O383 C380 1.252 . S
O384 In377 2.326 . S
O384 C380 1.260 . S
O385 In377 2.266 . S
O385 C382 1.252 . S
O386 In377 2.326 . S
O386 C382 1.260 . S
C387 O378 1.240 . S
C387 O379 1.252 . S
O388 In377 2.294 . S
O388 C381 1.240 . S
O389 In377 2.326 . S
O389 C381 1.252 . S
In390 O391 2.294 . S
In390 O392 2.326 . S
In390 O396 2.266 . S
In390 O397 2.326 . S
In390 O398 2.266 . S
In390 O399 2.326 . S
In390 O401 2.294 . S
In390 O402 2.326 . S
O391 In390 2.294 . S
O391 C400 1.240 . S
O392 In390 2.326 . S
O392 C400 1.252 . S
C393 O396 1.252 . S
C393 O397 1.260 . S
C394 O401 1.240 . S
C394 O402 1.252 . S
C395 O398 1.252 . S
C395 O399 1.260 . S
O396 In390 2.266 . S
O396 C393 1.252 . S
O397 In390 2.326 . S
O397 C393 1.260 . S
O398 In390 2.266 . S
O398 C395 1.252 . S
O399 In390 2.326 . S
O399 C395 1.260 . S
C400 O391 1.240 . S
C400 O392 1.252 . S
O401 In390 2.294 . S
O401 C394 1.240 . S
O402 In390 2.326 . S
O402 C394 1.252 . S
In403 O404 2.294 . S
In403 O405 2.326 . S
In403 O409 2.266 . S
In403 O410 2.326 . S
In403 O411 2.266 . S
In403 O412 2.326 . S
In403 O414 2.294 . S
In403 O415 2.326 . S
O404 In403 2.294 . S
O404 C413 1.240 . S
O405 In403 2.326 . S
O405 C413 1.252 . S
C406 O409 1.252 . S
C406 O410 1.260 . S
C407 O414 1.240 . S
C407 O415 1.252 . S
C408 O411 1.252 . S
C408 O412 1.260 . S
O409 In403 2.266 . S
O409 C406 1.252 . S
O410 In403 2.326 . S
O410 C406 1.260 . S
O411 In403 2.266 . S
O411 C408 1.252 . S
O412 In403 2.326 . S
O412 C408 1.260 . S
C413 O404 1.240 . S
C413 O405 1.252 . S
O414 In403 2.294 . S
O414 C407 1.240 . S
O415 In403 2.326 . S
O415 C407 1.252 . S
H416 C424 0.950 . S
H417 C429 0.950 . S
H418 C426 0.950 . S
H419 C428 0.950 . S
H420 C430 0.950 . S
H421 C432 0.950 . S
H422 C434 0.950 . S
H423 C435 0.950 . S
C424 H416 0.950 . S
C424 C425 1.386 . S
C424 C426 1.391 . S
C425 C424 1.386 . S
C425 C429 1.393 . S
C426 H418 0.950 . S
C426 C424 1.391 . S
C426 C427 1.400 . S
C427 C426 1.400 . S
C427 C428 1.398 . S
C427 C433 1.491 . S
C428 H419 0.950 . S
C428 C427 1.398 . S
C428 C429 1.391 . S
C429 H417 0.950 . S
C429 C425 1.393 . S
C429 C428 1.391 . S
C430 H420 0.950 . S
C430 C431 1.386 . S
C430 C432 1.391 . S
C431 C430 1.386 . S
C431 C435 1.393 . S
C432 H421 0.950 . S
C432 C430 1.391 . S
C432 C433 1.400 . S
C433 C427 1.491 . S
C433 C432 1.400 . S
C433 C434 1.398 . S
C434 H422 0.950 . S
C434 C433 1.398 . S
C434 C435 1.391 . S
C435 H423 0.950 . S
C435 C431 1.393 . S
C435 C434 1.391 . S
H436 C444 0.950 . S
H437 C449 0.950 . S
H438 C446 0.950 . S
H439 C448 0.950 . S
H440 C450 0.950 . S
H441 C452 0.950 . S
H442 C454 0.950 . S
H443 C455 0.950 . S
C444 H436 0.950 . S
C444 C445 1.386 . S
C444 C446 1.391 . S
C445 C444 1.386 . S
C445 C449 1.393 . S
C446 H438 0.950 . S
C446 C444 1.391 . S
C446 C447 1.400 . S
C447 C446 1.400 . S
C447 C448 1.398 . S
C447 C453 1.491 1_565 S
C448 H439 0.950 . S
C448 C447 1.398 . S
C448 C449 1.391 . S
C449 H437 0.950 . S
C449 C445 1.393 . S
C449 C448 1.391 . S
C450 H440 0.950 . S
C450 C451 1.386 . S
C450 C452 1.391 . S
C451 C450 1.386 . S
C451 C455 1.393 . S
C452 H441 0.950 . S
C452 C450 1.391 . S
C452 C453 1.400 . S
C453 C447 1.491 1_545 S
C453 C452 1.400 . S
C453 C454 1.398 . S
C454 H442 0.950 . S
C454 C453 1.398 . S
C454 C455 1.391 . S
C455 H443 0.950 . S
C455 C451 1.393 . S
C455 C454 1.391 . S
H456 C464 0.950 . S
H457 C469 0.950 . S
H458 C466 0.950 1_556 S
H459 C468 0.950 . S
H460 C470 0.950 . S
H461 C472 0.950 1_554 S
H462 C474 0.950 . S
H463 C475 0.950 . S
C464 H456 0.950 . S
C464 C465 1.386 . S
C464 C466 1.391 . S
C465 C464 1.386 . S
C465 C469 1.393 . S
C466 H458 0.950 1_554 S
C466 C464 1.391 . S
C466 C467 1.400 . S
C467 C466 1.400 . S
C467 C468 1.398 . S
C467 C473 1.491 1_554 S
C468 H459 0.950 . S
C468 C467 1.398 . S
C468 C469 1.391 . S
C469 H457 0.950 . S
C469 C465 1.393 . S
C469 C468 1.391 . S
C470 H460 0.950 . S
C470 C471 1.386 . S
C470 C472 1.391 . S
C471 C470 1.386 . S
C471 C475 1.393 . S
C472 H461 0.950 1_556 S
C472 C470 1.391 . S
C472 C473 1.400 . S
C473 C467 1.491 1_556 S
C473 C472 1.400 . S
C473 C474 1.398 . S
C474 H462 0.950 . S
C474 C473 1.398 . S
C474 C475 1.391 . S
C475 H463 0.950 . S
C475 C471 1.393 . S
C475 C474 1.391 . S
H476 C484 0.950 . S
H477 C489 0.950 . S
H478 C486 0.950 . S
H479 C488 0.950 . S
H480 C490 0.950 . S
H481 C492 0.950 . S
H482 C494 0.950 . S
H483 C495 0.950 . S
C484 H476 0.950 . S
C484 C485 1.386 . S
C484 C486 1.391 . S
C485 C484 1.386 . S
C485 C489 1.393 . S
C486 H478 0.950 . S
C486 C484 1.391 . S
C486 C487 1.400 . S
C487 C486 1.400 . S
C487 C488 1.398 . S
C487 C493 1.491 1_545 S
C488 H479 0.950 . S
C488 C487 1.398 . S
C488 C489 1.391 . S
C489 H477 0.950 . S
C489 C485 1.393 . S
C489 C488 1.391 . S
C490 H480 0.950 . S
C490 C491 1.386 . S
C490 C492 1.391 . S
C491 C490 1.386 . S
C491 C495 1.393 . S
C492 H481 0.950 . S
C492 C490 1.391 . S
C492 C493 1.400 . S
C493 C487 1.491 1_565 S
C493 C492 1.400 . S
C493 C494 1.398 . S
C494 H482 0.950 . S
C494 C493 1.398 . S
C494 C495 1.391 . S
C495 H483 0.950 . S
C495 C491 1.393 . S
C495 C494 1.391 . S
H496 C504 0.950 . S
H497 C509 0.950 . S
H498 C506 0.950 . S
H499 C508 0.950 . S
H500 C510 0.950 . S
H501 C512 0.950 . S
H502 C514 0.950 . S
H503 C515 0.950 . S
C504 H496 0.950 . S
C504 C505 1.386 . S
C504 C506 1.391 . S
C505 C504 1.386 . S
C505 C509 1.393 . S
C506 H498 0.950 . S
C506 C504 1.391 . S
C506 C507 1.400 . S
C507 C506 1.400 . S
C507 C508 1.398 . S
C507 C513 1.491 . S
C508 H499 0.950 . S
C508 C507 1.398 . S
C508 C509 1.391 . S
C509 H497 0.950 . S
C509 C505 1.393 . S
C509 C508 1.391 . S
C510 H500 0.950 . S
C510 C511 1.386 . S
C510 C512 1.391 . S
C511 C510 1.386 . S
C511 C515 1.393 . S
C512 H501 0.950 . S
C512 C510 1.391 . S
C512 C513 1.400 . S
C513 C507 1.491 . S
C513 C512 1.400 . S
C513 C514 1.398 . S
C514 H502 0.950 . S
C514 C513 1.398 . S
C514 C515 1.391 . S
C515 H503 0.950 . S
C515 C511 1.393 . S
C515 C514 1.391 . S
H516 C524 0.950 . S
H517 C529 0.950 . S
H518 C526 0.950 . S
H519 C528 0.950 . S
H520 C530 0.950 . S
H521 C532 0.950 . S
H522 C534 0.950 . S
H523 C535 0.950 . S
C524 H516 0.950 . S
C524 C525 1.386 . S
C524 C526 1.391 . S
C525 C524 1.386 . S
C525 C529 1.393 . S
C526 H518 0.950 . S
C526 C524 1.391 . S
C526 C527 1.400 . S
C527 C526 1.400 . S
C527 C528 1.398 . S
C527 C533 1.491 1_545 S
C528 H519 0.950 . S
C528 C527 1.398 . S
C528 C529 1.391 . S
C529 H517 0.950 . S
C529 C525 1.393 . S
C529 C528 1.391 . S
C530 H520 0.950 . S
C530 C531 1.386 . S
C530 C532 1.391 . S
C531 C530 1.386 . S
C531 C535 1.393 . S
C532 H521 0.950 . S
C532 C530 1.391 . S
C532 C533 1.400 . S
C533 C527 1.491 1_565 S
C533 C532 1.400 . S
C533 C534 1.398 . S
C534 H522 0.950 . S
C534 C533 1.398 . S
C534 C535 1.391 . S
C535 H523 0.950 . S
C535 C531 1.393 . S
C535 C534 1.391 . S
H536 C544 0.950 . S
H537 C549 0.950 . S
H538 C546 0.950 . S
H539 C548 0.950 1_554 S
H540 C550 0.950 . S
H541 C552 0.950 . S
H542 C554 0.950 1_556 S
H543 C555 0.950 . S
C544 H536 0.950 . S
C544 C545 1.386 . S
C544 C546 1.391 . S
C545 C544 1.386 . S
C545 C549 1.393 . S
C546 H538 0.950 . S
C546 C544 1.391 . S
C546 C547 1.400 . S
C547 C546 1.400 . S
C547 C548 1.398 . S
C547 C553 1.491 1_556 S
C548 H539 0.950 1_556 S
C548 C547 1.398 . S
C548 C549 1.391 . S
C549 H537 0.950 . S
C549 C545 1.393 . S
C549 C548 1.391 . S
C550 H540 0.950 . S
C550 C551 1.386 . S
C550 C552 1.391 . S
C551 C550 1.386 . S
C551 C555 1.393 . S
C552 H541 0.950 . S
C552 C550 1.391 . S
C552 C553 1.400 . S
C553 C547 1.491 1_554 S
C553 C552 1.400 . S
C553 C554 1.398 . S
C554 H542 0.950 1_554 S
C554 C553 1.398 . S
C554 C555 1.391 . S
C555 H543 0.950 . S
C555 C551 1.393 . S
C555 C554 1.391 . S
H556 C564 0.950 . S
H557 C569 0.950 . S
H558 C566 0.950 . S
H559 C568 0.950 . S
H560 C570 0.950 . S
H561 C572 0.950 . S
H562 C574 0.950 . S
H563 C575 0.950 . S
C564 H556 0.950 . S
C564 C565 1.386 . S
C564 C566 1.391 . S
C565 C564 1.386 . S
C565 C569 1.393 . S
C566 H558 0.950 . S
C566 C564 1.391 . S
C566 C567 1.400 . S
C567 C566 1.400 . S
C567 C568 1.398 . S
C567 C573 1.491 1_565 S
C568 H559 0.950 . S
C568 C567 1.398 . S
C568 C569 1.391 . S
C569 H557 0.950 . S
C569 C565 1.393 . S
C569 C568 1.391 . S
C570 H560 0.950 . S
C570 C571 1.386 . S
C570 C572 1.391 . S
C571 C570 1.386 . S
C571 C575 1.393 . S
C572 H561 0.950 . S
C572 C570 1.391 . S
C572 C573 1.400 . S
C573 C567 1.491 1_545 S
C573 C572 1.400 . S
C573 C574 1.398 . S
C574 H562 0.950 . S
C574 C573 1.398 . S
C574 C575 1.391 . S
C575 H563 0.950 . S
C575 C571 1.393 . S
C575 C574 1.391 . S
H576 C584 0.950 . S
H577 C589 0.950 . S
H578 C586 0.950 . S
H579 C588 0.950 . S
H580 C590 0.950 . S
H581 C592 0.950 . S
H582 C594 0.950 . S
H583 C595 0.950 . S
C584 H576 0.950 . S
C584 C585 1.386 . S
C584 C586 1.391 . S
C585 C584 1.386 . S
C585 C589 1.393 . S
C586 H578 0.950 . S
C586 C584 1.391 . S
C586 C587 1.400 . S
C587 C586 1.400 . S
C587 C588 1.398 . S
C587 C593 1.491 1_556 S
C588 H579 0.950 . S
C588 C587 1.398 . S
C588 C589 1.391 . S
C589 H577 0.950 . S
C589 C585 1.393 . S
C589 C588 1.391 . S
C590 H580 0.950 . S
C590 C591 1.386 . S
C590 C592 1.391 . S
C591 C590 1.386 . S
C591 C595 1.393 . S
C592 H581 0.950 . S
C592 C590 1.391 . S
C592 C593 1.400 . S
C593 C587 1.491 1_554 S
C593 C592 1.400 . S
C593 C594 1.398 . S
C594 H582 0.950 . S
C594 C593 1.398 . S
C594 C595 1.391 . S
C595 H583 0.950 . S
C595 C591 1.393 . S
C595 C594 1.391 . S
H596 C604 0.950 . S
H597 C609 0.950 . S
H598 C606 0.950 . S
H599 C608 0.950 . S
H600 C610 0.950 . S
H601 C612 0.950 . S
H602 C614 0.950 . S
H603 C615 0.950 . S
C604 H596 0.950 . S
C604 C605 1.386 . S
C604 C606 1.391 . S
C605 C604 1.386 . S
C605 C609 1.393 . S
C606 H598 0.950 . S
C606 C604 1.391 . S
C606 C607 1.400 . S
C607 C606 1.400 . S
C607 C608 1.398 . S
C607 C613 1.491 . S
C608 H599 0.950 . S
C608 C607 1.398 . S
C608 C609 1.391 . S
C609 H597 0.950 . S
C609 C605 1.393 . S
C609 C608 1.391 . S
C610 H600 0.950 . S
C610 C611 1.386 . S
C610 C612 1.391 . S
C611 C610 1.386 . S
C611 C615 1.393 . S
C612 H601 0.950 . S
C612 C610 1.391 . S
C612 C613 1.400 . S
C613 C607 1.491 . S
C613 C612 1.400 . S
C613 C614 1.398 . S
C614 H602 0.950 . S
C614 C613 1.398 . S
C614 C615 1.391 . S
C615 H603 0.950 . S
C615 C611 1.393 . S
C615 C614 1.391 . S
H616 C624 0.950 . S
H617 C629 0.950 . S
H618 C626 0.950 . S
H619 C628 0.950 . S
H620 C630 0.950 . S
H621 C632 0.950 . S
H622 C634 0.950 . S
H623 C635 0.950 . S
C624 H616 0.950 . S
C624 C625 1.386 . S
C624 C626 1.391 . S
C625 C624 1.386 . S
C625 C629 1.393 . S
C626 H618 0.950 . S
C626 C624 1.391 . S
C626 C627 1.400 . S
C627 C626 1.400 . S
C627 C628 1.398 . S
C627 C633 1.491 . S
C628 H619 0.950 . S
C628 C627 1.398 . S
C628 C629 1.391 . S
C629 H617 0.950 . S
C629 C625 1.393 . S
C629 C628 1.391 . S
C630 H620 0.950 . S
C630 C631 1.386 . S
C630 C632 1.391 . S
C631 C630 1.386 . S
C631 C635 1.393 . S
C632 H621 0.950 . S
C632 C630 1.391 . S
C632 C633 1.400 . S
C633 C627 1.491 . S
C633 C632 1.400 . S
C633 C634 1.398 . S
C634 H622 0.950 . S
C634 C633 1.398 . S
C634 C635 1.391 . S
C635 H623 0.950 . S
C635 C631 1.393 . S
C635 C634 1.391 . S
H636 C644 0.950 . S
H637 C649 0.950 . S
H638 C646 0.950 . S
H639 C648 0.950 . S
H640 C650 0.950 . S
H641 C652 0.950 . S
H642 C654 0.950 . S
H643 C655 0.950 . S
C644 H636 0.950 . S
C644 C645 1.386 . S
C644 C646 1.391 . S
C645 C644 1.386 . S
C645 C649 1.393 . S
C646 H638 0.950 . S
C646 C644 1.391 . S
C646 C647 1.400 . S
C647 C646 1.400 . S
C647 C648 1.398 . S
C647 C653 1.491 . S
C648 H639 0.950 . S
C648 C647 1.398 . S
C648 C649 1.391 . S
C649 H637 0.950 . S
C649 C645 1.393 . S
C649 C648 1.391 . S
C650 H640 0.950 . S
C650 C651 1.386 . S
C650 C652 1.391 . S
C651 C650 1.386 . S
C651 C655 1.393 . S
C652 H641 0.950 . S
C652 C650 1.391 . S
C652 C653 1.400 . S
C653 C647 1.491 . S
C653 C652 1.400 . S
C653 C654 1.398 . S
C654 H642 0.950 . S
C654 C653 1.398 . S
C654 C655 1.391 . S
C655 H643 0.950 . S
C655 C651 1.393 . S
C655 C654 1.391 . S
H656 C664 0.950 . S
H657 C669 0.950 . S
H658 C666 0.952 . S
H659 C668 0.950 . S
H660 C670 0.950 . S
H661 C672 0.951 . S
H662 C674 0.950 . S
H663 C675 0.950 . S
C664 H656 0.950 . S
C664 C665 1.386 . S
C664 C666 1.391 . S
C665 C664 1.386 . S
C665 C669 1.393 . S
C666 H658 0.952 . S
C666 C664 1.391 . S
C666 C667 1.400 . S
C667 C666 1.400 . S
C667 C668 1.398 . S
C667 C673 1.491 1_556 S
C668 H659 0.950 . S
C668 C667 1.398 . S
C668 C669 1.391 . S
C669 H657 0.950 . S
C669 C665 1.393 . S
C669 C668 1.391 . S
C670 H660 0.950 . S
C670 C671 1.386 . S
C670 C672 1.391 . S
C671 C670 1.386 . S
C671 C675 1.393 . S
C672 H661 0.951 . S
C672 C670 1.391 . S
C672 C673 1.400 . S
C673 C667 1.491 1_554 S
C673 C672 1.400 . S
C673 C674 1.398 . S
C674 H662 0.950 . S
C674 C673 1.398 . S
C674 C675 1.391 . S
C675 H663 0.950 . S
C675 C671 1.393 . S
C675 C674 1.391 . S
H676 C684 0.950 . S
H677 C689 0.950 . S
H678 C686 0.950 . S
H679 C688 0.950 . S
H680 C690 0.950 . S
H681 C692 0.950 . S
H682 C694 0.950 . S
H683 C695 0.950 . S
C684 H676 0.950 . S
C684 C685 1.386 . S
C684 C686 1.391 . S
C685 C684 1.386 . S
C685 C689 1.393 . S
C686 H678 0.950 . S
C686 C684 1.391 . S
C686 C687 1.400 . S
C687 C686 1.400 . S
C687 C688 1.398 . S
C687 C693 1.491 . S
C688 H679 0.950 . S
C688 C687 1.398 . S
C688 C689 1.391 . S
C689 H677 0.950 . S
C689 C685 1.393 . S
C689 C688 1.391 . S
C690 H680 0.950 . S
C690 C691 1.386 . S
C690 C692 1.391 . S
C691 C690 1.386 . S
C691 C695 1.393 . S
C692 H681 0.950 . S
C692 C690 1.391 . S
C692 C693 1.400 . S
C693 C687 1.491 . S
C693 C692 1.400 . S
C693 C694 1.398 . S
C694 H682 0.950 . S
C694 C693 1.398 . S
C694 C695 1.391 . S
C695 H683 0.950 . S
C695 C691 1.393 . S
C695 C694 1.391 . S
H696 C704 0.950 . S
H697 C709 0.950 . S
H698 C706 0.950 . S
H699 C708 0.950 . S
H700 C710 0.950 . S
H701 C712 0.950 . S
H702 C714 0.950 . S
H703 C715 0.950 . S
C704 H696 0.950 . S
C704 C705 1.386 . S
C704 C706 1.391 . S
C705 C704 1.386 . S
C705 C709 1.393 . S
C706 H698 0.950 . S
C706 C704 1.391 . S
C706 C707 1.400 . S
C707 C706 1.400 . S
C707 C708 1.398 . S
C707 C713 1.491 . S
C708 H699 0.950 . S
C708 C707 1.398 . S
C708 C709 1.391 . S
C709 H697 0.950 . S
C709 C705 1.393 . S
C709 C708 1.391 . S
C710 H700 0.950 . S
C710 C711 1.386 . S
C710 C712 1.391 . S
C711 C710 1.386 . S
C711 C715 1.393 . S
C712 H701 0.950 . S
C712 C710 1.391 . S
C712 C713 1.400 . S
C713 C707 1.491 . S
C713 C712 1.400 . S
C713 C714 1.398 . S
C714 H702 0.950 . S
C714 C713 1.398 . S
C714 C715 1.391 . S
C715 H703 0.950 . S
C715 C711 1.393 . S
C715 C714 1.391 . S
H716 C724 0.950 . S
H717 C729 0.950 . S
H718 C726 0.950 . S
H719 C728 0.950 . S
H720 C730 0.950 . S
H721 C732 0.950 . S
H722 C734 0.950 . S
H723 C735 0.950 . S
C724 H716 0.950 . S
C724 C725 1.386 . S
C724 C726 1.391 . S
C725 C724 1.386 . S
C725 C729 1.393 . S
C726 H718 0.950 . S
C726 C724 1.391 . S
C726 C727 1.400 . S
C727 C726 1.400 . S
C727 C728 1.398 . S
C727 C733 1.491 . S
C728 H719 0.950 . S
C728 C727 1.398 . S
C728 C729 1.391 . S
C729 H717 0.950 . S
C729 C725 1.393 . S
C729 C728 1.391 . S
C730 H720 0.950 . S
C730 C731 1.386 . S
C730 C732 1.391 . S
C731 C730 1.386 . S
C731 C735 1.393 . S
C732 H721 0.950 . S
C732 C730 1.391 . S
C732 C733 1.400 . S
C733 C727 1.491 . S
C733 C732 1.400 . S
C733 C734 1.398 . S
C734 H722 0.950 . S
C734 C733 1.398 . S
C734 C735 1.391 . S
C735 H723 0.950 . S
C735 C731 1.393 . S
C735 C734 1.391 . S
H736 C744 0.950 . S
H737 C749 0.950 . S
H738 C746 0.950 . S
H739 C748 0.950 . S
H740 C750 0.950 . S
H741 C752 0.950 . S
H742 C754 0.950 . S
H743 C755 0.950 . S
C744 H736 0.950 . S
C744 C745 1.386 1_554 S
C744 C746 1.391 . S
C745 C744 1.386 1_556 S
C745 C749 1.393 . S
C746 H738 0.950 . S
C746 C744 1.391 . S
C746 C747 1.400 . S
C747 C746 1.400 . S
C747 C748 1.398 1_554 S
C747 C753 1.491 . S
C748 H739 0.950 . S
C748 C747 1.398 1_556 S
C748 C749 1.391 . S
C749 H737 0.950 . S
C749 C745 1.393 . S
C749 C748 1.391 . S
C750 H740 0.950 . S
C750 C751 1.386 . S
C750 C752 1.391 . S
C751 C750 1.386 . S
C751 C755 1.393 . S
C752 H741 0.950 . S
C752 C750 1.391 . S
C752 C753 1.400 . S
C753 C747 1.491 . S
C753 C752 1.400 . S
C753 C754 1.398 . S
C754 H742 0.950 . S
C754 C753 1.398 . S
C754 C755 1.391 . S
C755 H743 0.950 . S
C755 C751 1.393 . S
C755 C754 1.391 . S
H756 C764 0.950 . S
H757 C769 0.950 . S
H758 C766 0.950 . S
H759 C768 0.950 . S
H760 C770 0.950 . S
H761 C772 0.950 . S
H762 C774 0.950 . S
H763 C775 0.950 . S
C764 H756 0.950 . S
C764 C765 1.386 . S
C764 C766 1.391 . S
C765 C764 1.386 . S
C765 C769 1.393 . S
C766 H758 0.950 . S
C766 C764 1.391 . S
C766 C767 1.400 . S
C767 C766 1.400 . S
C767 C768 1.398 . S
C767 C773 1.491 . S
C768 H759 0.950 . S
C768 C767 1.398 . S
C768 C769 1.391 . S
C769 H757 0.950 . S
C769 C765 1.393 . S
C769 C768 1.391 . S
C770 H760 0.950 . S
C770 C771 1.386 . S
C770 C772 1.391 . S
C771 C770 1.386 . S
C771 C775 1.393 . S
C772 H761 0.950 . S
C772 C770 1.391 . S
C772 C773 1.400 . S
C773 C767 1.491 . S
C773 C772 1.400 . S
C773 C774 1.398 . S
C774 H762 0.950 . S
C774 C773 1.398 . S
C774 C775 1.391 . S
C775 H763 0.950 . S
C775 C771 1.393 . S
C775 C774 1.391 . S
H776 C784 0.950 . S
H777 C789 0.950 . S
H778 C786 0.950 . S
H779 C788 0.950 . S
H780 C790 0.950 . S
H781 C792 0.950 . S
H782 C794 0.950 . S
H783 C795 0.950 . S
C784 H776 0.950 . S
C784 C785 1.386 . S
C784 C786 1.391 . S
C785 C784 1.386 . S
C785 C789 1.393 . S
C786 H778 0.950 . S
C786 C784 1.391 . S
C786 C787 1.400 . S
C787 C786 1.400 . S
C787 C788 1.398 . S
C787 C793 1.491 . S
C788 H779 0.950 . S
C788 C787 1.398 . S
C788 C789 1.391 . S
C789 H777 0.950 . S
C789 C785 1.393 . S
C789 C788 1.391 . S
C790 H780 0.950 . S
C790 C791 1.386 . S
C790 C792 1.391 . S
C791 C790 1.386 . S
C791 C795 1.393 . S
C792 H781 0.950 . S
C792 C790 1.391 . S
C792 C793 1.400 . S
C793 C787 1.491 . S
C793 C792 1.400 . S
C793 C794 1.398 . S
C794 H782 0.950 . S
C794 C793 1.398 . S
C794 C795 1.391 . S
C795 H783 0.950 . S
C795 C791 1.393 . S
C795 C794 1.391 . S
H796 C804 0.950 . S
H797 C809 0.950 . S
H798 C806 0.950 . S
H799 C808 0.950 . S
H800 C810 0.950 . S
H801 C812 0.950 . S
H802 C814 0.950 . S
H803 C815 0.950 . S
C804 H796 0.950 . S
C804 C805 1.386 . S
C804 C806 1.391 . S
C805 C804 1.386 . S
C805 C809 1.393 . S
C806 H798 0.950 . S
C806 C804 1.391 . S
C806 C807 1.400 . S
C807 C806 1.400 . S
C807 C808 1.398 . S
C807 C813 1.491 . S
C808 H799 0.950 . S
C808 C807 1.398 . S
C808 C809 1.391 . S
C809 H797 0.950 . S
C809 C805 1.393 . S
C809 C808 1.391 . S
C810 H800 0.950 . S
C810 C811 1.386 . S
C810 C812 1.391 . S
C811 C810 1.386 . S
C811 C815 1.393 1_554 S
C812 H801 0.950 . S
C812 C810 1.391 . S
C812 C813 1.400 1_554 S
C813 C807 1.491 . S
C813 C812 1.400 1_556 S
C813 C814 1.398 . S
C814 H802 0.950 . S
C814 C813 1.398 . S
C814 C815 1.391 . S
C815 H803 0.950 . S
C815 C811 1.393 1_556 S
C815 C814 1.391 . S
H816 C824 0.950 . S
H817 C829 0.950 . S
H818 C826 0.950 . S
H819 C828 0.950 . S
H820 C830 0.950 . S
H821 C832 0.950 . S
H822 C834 0.950 . S
H823 C835 0.950 . S
C824 H816 0.950 . S
C824 C825 1.386 . S
C824 C826 1.391 1_554 S
C825 C824 1.386 . S
C825 C829 1.393 . S
C826 H818 0.950 . S
C826 C824 1.391 1_556 S
C826 C827 1.400 . S
C827 C826 1.400 . S
C827 C828 1.398 . S
C827 C833 1.491 . S
C828 H819 0.950 . S
C828 C827 1.398 . S
C828 C829 1.391 1_556 S
C829 H817 0.950 . S
C829 C825 1.393 . S
C829 C828 1.391 1_554 S
C830 H820 0.950 . S
C830 C831 1.386 . S
C830 C832 1.391 . S
C831 C830 1.386 . S
C831 C835 1.393 . S
C832 H821 0.950 . S
C832 C830 1.391 . S
C832 C833 1.400 . S
C833 C827 1.491 . S
C833 C832 1.400 . S
C833 C834 1.398 . S
C834 H822 0.950 . S
C834 C833 1.398 . S
C834 C835 1.391 . S
C835 H823 0.950 . S
C835 C831 1.393 . S
C835 C834 1.391 . S
H836 C844 0.950 . S
H837 C849 0.950 . S
H838 C846 0.950 . S
H839 C848 0.950 . S
H840 C850 0.950 . S
H841 C852 0.950 . S
H842 C854 0.950 . S
H843 C855 0.950 . S
C844 H836 0.950 . S
C844 C845 1.386 . S
C844 C846 1.391 . S
C845 C844 1.386 . S
C845 C849 1.393 . S
C846 H838 0.950 . S
C846 C844 1.391 . S
C846 C847 1.400 . S
C847 C846 1.400 . S
C847 C848 1.398 . S
C847 C853 1.491 . S
C848 H839 0.950 . S
C848 C847 1.398 . S
C848 C849 1.391 . S
C849 H837 0.950 . S
C849 C845 1.393 . S
C849 C848 1.391 . S
C850 H840 0.950 . S
C850 C851 1.386 . S
C850 C852 1.391 . S
C851 C850 1.386 . S
C851 C855 1.393 . S
C852 H841 0.950 . S
C852 C850 1.391 . S
C852 C853 1.400 . S
C853 C847 1.491 . S
C853 C852 1.400 . S
C853 C854 1.398 . S
C854 H842 0.950 . S
C854 C853 1.398 . S
C854 C855 1.391 . S
C855 H843 0.950 . S
C855 C851 1.393 . S
C855 C854 1.391 . S
H856 C864 0.950 . S
H857 C869 0.950 . S
H858 C866 0.950 . S
H859 C868 0.950 . S
H860 C870 0.950 . S
H861 C872 0.950 . S
H862 C874 0.950 . S
H863 C875 0.950 . S
C864 H856 0.950 . S
C864 C865 1.386 . S
C864 C866 1.391 . S
C865 C864 1.386 . S
C865 C869 1.393 . S
C866 H858 0.950 . S
C866 C864 1.391 . S
C866 C867 1.400 . S
C867 C866 1.400 . S
C867 C868 1.398 . S
C867 C873 1.491 . S
C868 H859 0.950 . S
C868 C867 1.398 . S
C868 C869 1.391 . S
C869 H857 0.950 . S
C869 C865 1.393 . S
C869 C868 1.391 . S
C870 H860 0.950 . S
C870 C871 1.386 . S
C870 C872 1.391 . S
C871 C870 1.386 . S
C871 C875 1.393 . S
C872 H861 0.950 . S
C872 C870 1.391 . S
C872 C873 1.400 . S
C873 C867 1.491 . S
C873 C872 1.400 . S
C873 C874 1.398 . S
C874 H862 0.950 . S
C874 C873 1.398 . S
C874 C875 1.391 . S
C875 H863 0.950 . S
C875 C871 1.393 . S
C875 C874 1.391 . S
H876 C884 0.949 . S
H877 C889 0.950 . S
H878 C886 0.950 . S
H879 C888 0.950 1_554 S
H880 C890 0.950 . S
H881 C892 0.950 . S
H882 C894 0.950 . S
H883 C895 0.950 . S
C884 H876 0.949 . S
C884 C885 1.398 . S
C884 C886 1.379 1_556 S
C885 C884 1.398 . S
C885 C889 1.393 . S
C886 H878 0.950 . S
C886 C884 1.379 1_554 S
C886 C887 1.400 . S
C887 C886 1.400 . S
C887 C888 1.396 1_554 S
C887 C893 1.491 . S
C888 H879 0.950 1_556 S
C888 C887 1.396 1_556 S
C888 C889 1.393 . S
C889 H877 0.950 . S
C889 C885 1.393 . S
C889 C888 1.393 . S
C890 H880 0.950 . S
C890 C891 1.386 . S
C890 C892 1.391 . S
C891 C890 1.386 . S
C891 C895 1.393 . S
C892 H881 0.950 . S
C892 C890 1.391 . S
C892 C893 1.400 . S
C893 C887 1.491 . S
C893 C892 1.400 . S
C893 C894 1.398 . S
C894 H882 0.950 . S
C894 C893 1.398 . S
C894 C895 1.391 . S
C895 H883 0.950 . S
C895 C891 1.393 . S
C895 C894 1.391 . S
H896 C904 0.950 . S
H897 C909 0.950 . S
H898 C906 0.950 . S
H899 C908 0.950 . S
H900 C910 0.950 . S
H901 C912 0.950 . S
H902 C914 0.950 . S
H903 C915 0.950 . S
C904 H896 0.950 . S
C904 C905 1.386 . S
C904 C906 1.391 . S
C905 C904 1.386 . S
C905 C909 1.393 . S
C906 H898 0.950 . S
C906 C904 1.391 . S
C906 C907 1.400 . S
C907 C906 1.400 . S
C907 C908 1.398 . S
C907 C913 1.491 . S
C908 H899 0.950 . S
C908 C907 1.398 . S
C908 C909 1.391 . S
C909 H897 0.950 . S
C909 C905 1.393 . S
C909 C908 1.391 . S
C910 H900 0.950 . S
C910 C911 1.386 . S
C910 C912 1.391 . S
C911 C910 1.386 . S
C911 C915 1.393 . S
C912 H901 0.950 . S
C912 C910 1.391 . S
C912 C913 1.400 . S
C913 C907 1.491 . S
C913 C912 1.400 . S
C913 C914 1.398 . S
C914 H902 0.950 . S
C914 C913 1.398 . S
C914 C915 1.391 . S
C915 H903 0.950 . S
C915 C911 1.393 . S
C915 C914 1.391 . S
H916 C924 0.950 . S
H917 C929 0.950 . S
H918 C926 0.950 . S
H919 C928 0.950 . S
H920 C930 0.950 . S
H921 C932 0.950 . S
H922 C934 0.950 . S
H923 C935 0.950 . S
C924 H916 0.950 . S
C924 C925 1.386 . S
C924 C926 1.391 . S
C925 C924 1.386 . S
C925 C929 1.393 1_554 S
C926 H918 0.950 . S
C926 C924 1.391 . S
C926 C927 1.400 1_554 S
C927 C926 1.400 1_556 S
C927 C928 1.398 . S
C927 C933 1.491 . S
C928 H919 0.950 . S
C928 C927 1.398 . S
C928 C929 1.391 . S
C929 H917 0.950 . S
C929 C925 1.393 1_556 S
C929 C928 1.391 . S
C930 H920 0.950 . S
C930 C931 1.386 . S
C930 C932 1.391 . S
C931 C930 1.386 . S
C931 C935 1.393 . S
C932 H921 0.950 . S
C932 C930 1.391 . S
C932 C933 1.400 . S
C933 C927 1.491 . S
C933 C932 1.400 . S
C933 C934 1.398 . S
C934 H922 0.950 . S
C934 C933 1.398 . S
C934 C935 1.391 . S
C935 H923 0.950 . S
C935 C931 1.393 . S
C935 C934 1.391 . S
H936 C944 0.950 . S
H937 C949 0.950 . S
H938 C946 0.950 . S
H939 C948 0.950 . S
H940 C950 0.950 . S
H941 C952 0.950 . S
H942 C954 0.950 . S
H943 C955 0.950 . S
C944 H936 0.950 . S
C944 C945 1.386 . S
C944 C946 1.391 . S
C945 C944 1.386 . S
C945 C949 1.393 . S
C946 H938 0.950 . S
C946 C944 1.391 . S
C946 C947 1.400 . S
C947 C946 1.400 . S
C947 C948 1.398 . S
C947 C953 1.491 . S
C948 H939 0.950 . S
C948 C947 1.398 . S
C948 C949 1.391 . S
C949 H937 0.950 . S
C949 C945 1.393 . S
C949 C948 1.391 . S
C950 H940 0.950 . S
C950 C951 1.386 1_554 S
C950 C952 1.391 . S
C951 C950 1.386 1_556 S
C951 C955 1.393 . S
C952 H941 0.950 . S
C952 C950 1.391 . S
C952 C953 1.400 . S
C953 C947 1.491 . S
C953 C952 1.400 . S
C953 C954 1.398 1_554 S
C954 H942 0.950 . S
C954 C953 1.398 1_556 S
C954 C955 1.391 . S
C955 H943 0.950 . S
C955 C951 1.393 . S
C955 C954 1.391 . S
H956 C964 0.950 . S
H957 C969 0.950 . S
H958 C966 0.950 . S
H959 C968 0.950 . S
H960 C970 0.950 . S
H961 C972 0.950 . S
H962 C974 0.950 . S
H963 C975 0.950 . S
C964 H956 0.950 . S
C964 C965 1.386 . S
C964 C966 1.391 . S
C965 C964 1.386 . S
C965 C969 1.393 . S
C966 H958 0.950 . S
C966 C964 1.391 . S
C966 C967 1.400 . S
C967 C966 1.400 . S
C967 C968 1.398 . S
C967 C973 1.491 . S
C968 H959 0.950 . S
C968 C967 1.398 . S
C968 C969 1.391 . S
C969 H957 0.950 . S
C969 C965 1.393 . S
C969 C968 1.391 . S
C970 H960 0.950 . S
C970 C971 1.386 . S
C970 C972 1.391 . S
C971 C970 1.386 . S
C971 C975 1.393 . S
C972 H961 0.950 . S
C972 C970 1.391 . S
C972 C973 1.400 . S
C973 C967 1.491 . S
C973 C972 1.400 . S
C973 C974 1.398 . S
C974 H962 0.950 . S
C974 C973 1.398 . S
C974 C975 1.391 . S
C975 H963 0.950 . S
C975 C971 1.393 . S
C975 C974 1.391 . S
H976 C984 0.950 . S
H977 C989 0.950 . S
H978 C986 0.950 . S
H979 C988 0.950 . S
H980 C990 0.950 . S
H981 C992 0.950 . S
H982 C994 0.950 . S
H983 C995 0.950 . S
C984 H976 0.950 . S
C984 C985 1.386 . S
C984 C986 1.391 . S
C985 C984 1.386 . S
C985 C989 1.393 . S
C986 H978 0.950 . S
C986 C984 1.391 . S
C986 C987 1.400 . S
C987 C986 1.400 . S
C987 C988 1.398 . S
C987 C993 1.491 . S
C988 H979 0.950 . S
C988 C987 1.398 . S
C988 C989 1.391 . S
C989 H977 0.950 . S
C989 C985 1.393 . S
C989 C988 1.391 . S
C990 H980 0.950 . S
C990 C991 1.386 . S
C990 C992 1.391 . S
C991 C990 1.386 . S
C991 C995 1.393 . S
C992 H981 0.950 . S
C992 C990 1.391 . S
C992 C993 1.400 . S
C993 C987 1.491 . S
C993 C992 1.400 . S
C993 C994 1.398 . S
C994 H982 0.950 . S
C994 C993 1.398 . S
C994 C995 1.391 . S
C995 H983 0.950 . S
C995 C991 1.393 . S
C995 C994 1.391 . S
H996 C1004 0.950 . S
H997 C1009 0.950 . S
H998 C1006 0.950 . S
H999 C1008 0.950 . S
H1000 C1010 0.950 . S
H1001 C1012 0.950 . S
H1002 C1014 0.950 . S
H1003 C1015 0.950 . S
C1004 H996 0.950 . S
C1004 C1005 1.386 . S
C1004 C1006 1.391 . S
C1005 C1004 1.386 . S
C1005 C1009 1.393 1_556 S
C1006 H998 0.950 . S
C1006 C1004 1.391 . S
C1006 C1007 1.400 1_556 S
C1007 C1006 1.400 1_554 S
C1007 C1008 1.398 . S
C1007 C1013 1.491 . S
C1008 H999 0.950 . S
C1008 C1007 1.398 . S
C1008 C1009 1.391 . S
C1009 H997 0.950 . S
C1009 C1005 1.393 1_554 S
C1009 C1008 1.391 . S
C1010 H1000 0.950 . S
C1010 C1011 1.386 . S
C1010 C1012 1.391 . S
C1011 C1010 1.386 . S
C1011 C1015 1.393 . S
C1012 H1001 0.950 . S
C1012 C1010 1.391 . S
C1012 C1013 1.400 . S
C1013 C1007 1.491 . S
C1013 C1012 1.400 . S
C1013 C1014 1.398 . S
C1014 H1002 0.950 . S
C1014 C1013 1.398 . S
C1014 C1015 1.391 . S
C1015 H1003 0.950 . S
C1015 C1011 1.393 . S
C1015 C1014 1.391 . S
H1016 C1024 0.950 . S
H1017 C1029 0.950 . S
H1018 C1026 0.950 . S
H1019 C1028 0.950 . S
H1020 C1030 0.950 . S
H1021 C1032 0.950 . S
H1022 C1034 0.950 . S
H1023 C1035 0.950 . S
C1024 H1016 0.950 . S
C1024 C1025 1.386 . S
C1024 C1026 1.391 . S
C1025 C1024 1.386 . S
C1025 C1029 1.393 . S
C1026 H1018 0.950 . S
C1026 C1024 1.391 . S
C1026 C1027 1.400 . S
C1027 C1026 1.400 . S
C1027 C1028 1.398 . S
C1027 C1033 1.491 . S
C1028 H1019 0.950 . S
C1028 C1027 1.398 . S
C1028 C1029 1.391 . S
C1029 H1017 0.950 . S
C1029 C1025 1.393 . S
C1029 C1028 1.391 . S
C1030 H1020 0.950 . S
C1030 C1031 1.386 . S
C1030 C1032 1.391 1_554 S
C1031 C1030 1.386 . S
C1031 C1035 1.393 . S
C1032 H1021 0.950 . S
C1032 C1030 1.391 1_556 S
C1032 C1033 1.400 . S
C1033 C1027 1.491 . S
C1033 C1032 1.400 . S
C1033 C1034 1.398 . S
C1034 H1022 0.950 . S
C1034 C1033 1.398 . S
C1034 C1035 1.391 1_556 S
C1035 H1023 0.950 . S
C1035 C1031 1.393 . S
C1035 C1034 1.391 1_554 S
H1036 C1044 0.950 . S
H1037 C1049 0.950 . S
H1038 C1046 0.950 . S
H1039 C1048 0.950 . S
H1040 C1050 0.950 . S
H1041 C1052 0.950 . S
H1042 C1054 0.950 . S
H1043 C1055 0.950 . S
C1044 H1036 0.950 . S
C1044 C1045 1.386 . S
C1044 C1046 1.391 . S
C1045 C1044 1.386 . S
C1045 C1049 1.393 . S
C1046 H1038 0.950 . S
C1046 C1044 1.391 . S
C1046 C1047 1.400 . S
C1047 C1046 1.400 . S
C1047 C1048 1.398 . S
C1047 C1053 1.491 . S
C1048 H1039 0.950 . S
C1048 C1047 1.398 . S
C1048 C1049 1.391 . S
C1049 H1037 0.950 . S
C1049 C1045 1.393 . S
C1049 C1048 1.391 . S
C1050 H1040 0.950 . S
C1050 C1051 1.386 . S
C1050 C1052 1.391 . S
C1051 C1050 1.386 . S
C1051 C1055 1.393 . S
C1052 H1041 0.950 . S
C1052 C1050 1.391 . S
C1052 C1053 1.400 . S
C1053 C1047 1.491 . S
C1053 C1052 1.400 . S
C1053 C1054 1.398 . S
C1054 H1042 0.950 . S
C1054 C1053 1.398 . S
C1054 C1055 1.391 . S
C1055 H1043 0.950 . S
C1055 C1051 1.393 . S
C1055 C1054 1.391 . S
H1056 C1064 0.950 . S
H1057 C1069 0.950 . S
H1058 C1066 0.950 . S
H1059 C1068 0.950 1_556 S
H1060 C1070 0.950 . S
H1061 C1072 0.950 . S
H1062 C1074 0.948 . S
H1063 C1075 0.950 . S
C1064 H1056 0.950 . S
C1064 C1065 1.386 . S
C1064 C1066 1.391 . S
C1065 C1064 1.386 . S
C1065 C1069 1.393 . S
C1066 H1058 0.950 . S
C1066 C1064 1.391 . S
C1066 C1067 1.400 . S
C1067 C1066 1.400 . S
C1067 C1068 1.398 . S
C1067 C1073 1.491 1_554 S
C1068 H1059 0.950 1_554 S
C1068 C1067 1.398 . S
C1068 C1069 1.391 . S
C1069 H1057 0.950 . S
C1069 C1065 1.393 . S
C1069 C1068 1.391 . S
C1070 H1060 0.950 . S
C1070 C1071 1.386 . S
C1070 C1072 1.391 . S
C1071 C1070 1.386 . S
C1071 C1075 1.393 . S
C1072 H1061 0.950 . S
C1072 C1070 1.391 . S
C1072 C1073 1.400 . S
C1073 C1067 1.491 1_556 S
C1073 C1072 1.400 . S
C1073 C1074 1.398 . S
C1074 H1062 0.948 . S
C1074 C1073 1.398 . S
C1074 C1075 1.391 . S
C1075 H1063 0.950 . S
C1075 C1071 1.393 . S
C1075 C1074 1.391 . S
H1076 C1084 0.950 . S
H1077 C1089 0.950 . S
H1078 C1086 0.950 . S
H1079 C1088 0.931 1_455 S
H1080 C1090 0.950 . S
H1081 C1092 0.950 . S
H1082 C1094 0.929 1_655 S
H1083 C1095 0.950 . S
C1084 H1076 0.950 . S
C1084 C1085 1.386 . S
C1084 C1086 1.391 . S
C1085 C1084 1.386 . S
C1085 C1089 1.393 . S
C1086 H1078 0.950 . S
C1086 C1084 1.391 . S
C1086 C1087 1.400 . S
C1087 C1086 1.400 . S
C1087 C1088 1.398 . S
C1087 C1093 1.491 1_655 S
C1088 H1079 0.931 1_655 S
C1088 C1087 1.398 . S
C1088 C1089 1.391 . S
C1089 H1077 0.950 . S
C1089 C1085 1.393 . S
C1089 C1088 1.391 . S
C1090 H1080 0.950 . S
C1090 C1091 1.386 . S
C1090 C1092 1.391 . S
C1091 C1090 1.386 . S
C1091 C1095 1.393 . S
C1092 H1081 0.950 . S
C1092 C1090 1.391 . S
C1092 C1093 1.400 . S
C1093 C1087 1.491 1_455 S
C1093 C1092 1.400 . S
C1093 C1094 1.398 . S
C1094 H1082 0.929 1_455 S
C1094 C1093 1.398 . S
C1094 C1095 1.391 . S
C1095 H1083 0.950 . S
C1095 C1091 1.393 . S
C1095 C1094 1.391 . S
H1096 C1104 0.950 . S
H1097 C1109 0.950 . S
H1098 C1106 0.950 . S
H1099 C1108 0.950 . S
H1100 C1110 0.950 . S
H1101 C1112 0.950 . S
H1102 C1114 0.950 . S
H1103 C1115 0.950 . S
C1104 H1096 0.950 . S
C1104 C1105 1.386 . S
C1104 C1106 1.391 . S
C1105 C1104 1.386 . S
C1105 C1109 1.393 . S
C1106 H1098 0.950 . S
C1106 C1104 1.391 . S
C1106 C1107 1.400 . S
C1107 C1106 1.400 . S
C1107 C1108 1.398 . S
C1107 C1113 1.491 . S
C1108 H1099 0.950 . S
C1108 C1107 1.398 . S
C1108 C1109 1.391 . S
C1109 H1097 0.950 . S
C1109 C1105 1.393 . S
C1109 C1108 1.391 . S
C1110 H1100 0.950 . S
C1110 C1111 1.386 . S
C1110 C1112 1.391 . S
C1111 C1110 1.386 . S
C1111 C1115 1.393 . S
C1112 H1101 0.950 . S
C1112 C1110 1.391 . S
C1112 C1113 1.400 . S
C1113 C1107 1.491 . S
C1113 C1112 1.400 . S
C1113 C1114 1.398 . S
C1114 H1102 0.950 . S
C1114 C1113 1.398 . S
C1114 C1115 1.391 . S
C1115 H1103 0.950 . S
C1115 C1111 1.393 . S
C1115 C1114 1.391 . S
H1116 C1124 0.950 . S
H1117 C1129 0.950 . S
H1118 C1126 0.950 . S
H1119 C1128 0.950 . S
H1120 C1130 0.950 . S
H1121 C1132 0.950 . S
H1122 C1134 0.950 . S
H1123 C1135 0.950 1_554 S
C1124 H1116 0.950 . S
C1124 C1125 1.386 . S
C1124 C1126 1.391 . S
C1125 C1124 1.386 . S
C1125 C1129 1.393 . S
C1126 H1118 0.950 . S
C1126 C1124 1.391 . S
C1126 C1127 1.400 . S
C1127 C1126 1.400 . S
C1127 C1128 1.398 . S
C1127 C1133 1.491 . S
C1128 H1119 0.950 . S
C1128 C1127 1.398 . S
C1128 C1129 1.391 . S
C1129 H1117 0.950 . S
C1129 C1125 1.393 . S
C1129 C1128 1.391 . S
C1130 H1120 0.950 . S
C1130 C1131 1.386 . S
C1130 C1132 1.391 . S
C1131 C1130 1.386 . S
C1131 C1135 1.393 . S
C1132 H1121 0.950 . S
C1132 C1130 1.391 . S
C1132 C1133 1.400 . S
C1133 C1127 1.491 . S
C1133 C1132 1.400 . S
C1133 C1134 1.398 . S
C1134 H1122 0.950 . S
C1134 C1133 1.398 . S
C1134 C1135 1.391 . S
C1135 H1123 0.950 1_556 S
C1135 C1131 1.393 . S
C1135 C1134 1.391 . S
H1136 C1144 0.950 . S
H1137 C1149 0.950 . S
H1138 C1146 0.950 . S
H1139 C1148 0.950 . S
H1140 C1150 0.950 . S
H1141 C1152 0.950 . S
H1142 C1154 0.950 . S
H1143 C1155 0.950 . S
C1144 H1136 0.950 . S
C1144 C1145 1.386 . S
C1144 C1146 1.391 . S
C1145 C1144 1.386 . S
C1145 C1149 1.393 . S
C1146 H1138 0.950 . S
C1146 C1144 1.391 . S
C1146 C1147 1.400 . S
C1147 C1146 1.400 . S
C1147 C1148 1.398 . S
C1147 C1153 1.491 . S
C1148 H1139 0.950 . S
C1148 C1147 1.398 . S
C1148 C1149 1.391 . S
C1149 H1137 0.950 . S
C1149 C1145 1.393 . S
C1149 C1148 1.391 . S
C1150 H1140 0.950 . S
C1150 C1151 1.386 . S
C1150 C1152 1.391 . S
C1151 C1150 1.386 . S
C1151 C1155 1.393 . S
C1152 H1141 0.950 . S
C1152 C1150 1.391 . S
C1152 C1153 1.400 . S
C1153 C1147 1.491 . S
C1153 C1152 1.400 . S
C1153 C1154 1.398 . S
C1154 H1142 0.950 . S
C1154 C1153 1.398 . S
C1154 C1155 1.391 . S
C1155 H1143 0.950 . S
C1155 C1151 1.393 . S
C1155 C1154 1.391 . S
H1156 C1164 0.950 . S
H1157 C1169 0.950 . S
H1158 C1166 0.950 . S
H1159 C1168 0.950 . S
H1160 C1170 0.950 . S
H1161 C1172 0.950 . S
H1162 C1174 0.950 . S
H1163 C1175 0.950 . S
C1164 H1156 0.950 . S
C1164 C1165 1.386 . S
C1164 C1166 1.391 . S
C1165 C1164 1.386 . S
C1165 C1169 1.393 . S
C1166 H1158 0.950 . S
C1166 C1164 1.391 . S
C1166 C1167 1.400 . S
C1167 C1166 1.400 . S
C1167 C1168 1.398 . S
C1167 C1173 1.491 . S
C1168 H1159 0.950 . S
C1168 C1167 1.398 . S
C1168 C1169 1.391 . S
C1169 H1157 0.950 . S
C1169 C1165 1.393 . S
C1169 C1168 1.391 . S
C1170 H1160 0.950 . S
C1170 C1171 1.386 . S
C1170 C1172 1.391 . S
C1171 C1170 1.386 . S
C1171 C1175 1.393 . S
C1172 H1161 0.950 . S
C1172 C1170 1.391 . S
C1172 C1173 1.400 . S
C1173 C1167 1.491 . S
C1173 C1172 1.400 . S
C1173 C1174 1.398 . S
C1174 H1162 0.950 . S
C1174 C1173 1.398 . S
C1174 C1175 1.391 . S
C1175 H1163 0.950 . S
C1175 C1171 1.393 . S
C1175 C1174 1.391 . S
H1176 C1184 0.950 . S
H1177 C1189 0.950 . S
H1178 C1186 0.950 . S
H1179 C1188 0.950 1_554 S
H1180 C1190 0.950 . S
H1181 C1192 0.950 . S
H1182 C1194 0.950 1_556 S
H1183 C1195 0.950 . S
C1184 H1176 0.950 . S
C1184 C1185 1.386 . S
C1184 C1186 1.391 . S
C1185 C1184 1.386 . S
C1185 C1189 1.393 . S
C1186 H1178 0.950 . S
C1186 C1184 1.391 . S
C1186 C1187 1.400 . S
C1187 C1186 1.400 . S
C1187 C1188 1.398 . S
C1187 C1193 1.491 1_556 S
C1188 H1179 0.950 1_556 S
C1188 C1187 1.398 . S
C1188 C1189 1.391 . S
C1189 H1177 0.950 . S
C1189 C1185 1.393 . S
C1189 C1188 1.391 . S
C1190 H1180 0.950 . S
C1190 C1191 1.386 . S
C1190 C1192 1.391 . S
C1191 C1190 1.386 . S
C1191 C1195 1.393 . S
C1192 H1181 0.950 . S
C1192 C1190 1.391 . S
C1192 C1193 1.400 . S
C1193 C1187 1.491 1_554 S
C1193 C1192 1.400 . S
C1193 C1194 1.398 . S
C1194 H1182 0.950 1_554 S
C1194 C1193 1.398 . S
C1194 C1195 1.391 . S
C1195 H1183 0.950 . S
C1195 C1191 1.393 . S
C1195 C1194 1.391 . S
H1196 C1204 0.950 . S
H1197 C1209 0.950 1_556 S
H1198 C1206 0.950 . S
H1199 C1208 0.930 1_655 S
H1200 C1210 0.950 . S
H1201 C1212 0.950 . S
H1202 C1214 0.926 1_455 S
H1203 C1215 0.950 . S
C1204 H1196 0.950 . S
C1204 C1205 1.386 . S
C1204 C1206 1.391 . S
C1205 C1204 1.386 . S
C1205 C1209 1.393 . S
C1206 H1198 0.950 . S
C1206 C1204 1.391 . S
C1206 C1207 1.400 . S
C1207 C1206 1.400 . S
C1207 C1208 1.405 . S
C1207 C1213 1.491 1_455 S
C1208 H1199 0.930 1_455 S
C1208 C1207 1.405 . S
C1208 C1209 1.404 . S
C1209 H1197 0.950 1_554 S
C1209 C1205 1.393 . S
C1209 C1208 1.404 . S
C1210 H1200 0.950 . S
C1210 C1211 1.386 . S
C1210 C1212 1.391 . S
C1211 C1210 1.386 . S
C1211 C1215 1.393 . S
C1212 H1201 0.950 . S
C1212 C1210 1.391 . S
C1212 C1213 1.400 . S
C1213 C1207 1.491 1_655 S
C1213 C1212 1.400 . S
C1213 C1214 1.406 . S
C1214 H1202 0.926 1_655 S
C1214 C1213 1.406 . S
C1214 C1215 1.407 . S
C1215 H1203 0.950 . S
C1215 C1211 1.393 . S
C1215 C1214 1.407 . S
H1216 C1224 0.950 . S
H1217 C1229 0.950 . S
H1218 C1226 0.950 1_554 S
H1219 C1228 0.950 . S
H1220 C1230 0.950 . S
H1221 C1232 0.950 . S
H1222 C1234 0.950 . S
H1223 C1235 0.950 . S
C1224 H1216 0.950 . S
C1224 C1225 1.386 . S
C1224 C1226 1.391 . S
C1225 C1224 1.386 . S
C1225 C1229 1.393 . S
C1226 H1218 0.950 1_556 S
C1226 C1224 1.391 . S
C1226 C1227 1.400 . S
C1227 C1226 1.400 . S
C1227 C1228 1.398 . S
C1227 C1233 1.491 1_556 S
C1228 H1219 0.950 . S
C1228 C1227 1.398 . S
C1228 C1229 1.391 . S
C1229 H1217 0.950 . S
C1229 C1225 1.393 . S
C1229 C1228 1.391 . S
C1230 H1220 0.950 . S
C1230 C1231 1.386 . S
C1230 C1232 1.391 . S
C1231 C1230 1.386 . S
C1231 C1235 1.393 . S
C1232 H1221 0.950 . S
C1232 C1230 1.391 . S
C1232 C1233 1.400 . S
C1233 C1227 1.491 1_554 S
C1233 C1232 1.400 . S
C1233 C1234 1.398 . S
C1234 H1222 0.950 . S
C1234 C1233 1.398 . S
C1234 C1235 1.391 . S
C1235 H1223 0.950 . S
C1235 C1231 1.393 . S
C1235 C1234 1.391 . S
H1236 C1244 0.950 . S
H1237 C1249 0.950 . S
H1238 C1246 0.930 1_655 S
H1239 C1248 0.950 . S
H1240 C1250 0.950 . S
H1241 C1252 0.934 1_455 S
H1242 C1254 0.950 . S
H1243 C1255 0.950 . S
C1244 H1236 0.950 . S
C1244 C1245 1.386 . S
C1244 C1246 1.404 . S
C1245 C1244 1.386 . S
C1245 C1249 1.393 . S
C1246 H1238 0.930 1_455 S
C1246 C1244 1.404 . S
C1246 C1247 1.407 . S
C1247 C1246 1.407 . S
C1247 C1248 1.398 . S
C1247 C1253 1.491 1_455 S
C1248 H1239 0.950 . S
C1248 C1247 1.398 . S
C1248 C1249 1.391 . S
C1249 H1237 0.950 . S
C1249 C1245 1.393 . S
C1249 C1248 1.391 . S
C1250 H1240 0.950 . S
C1250 C1251 1.386 . S
C1250 C1252 1.402 . S
C1251 C1250 1.386 . S
C1251 C1255 1.393 . S
C1252 H1241 0.934 1_655 S
C1252 C1250 1.402 . S
C1252 C1253 1.406 . S
C1253 C1247 1.491 1_655 S
C1253 C1252 1.406 . S
C1253 C1254 1.398 . S
C1254 H1242 0.950 . S
C1254 C1253 1.398 . S
C1254 C1255 1.391 . S
C1255 H1243 0.950 . S
C1255 C1251 1.393 . S
C1255 C1254 1.391 . S
H1256 C1264 0.950 . S
H1257 C1269 0.950 . S
H1258 C1266 0.950 . S
H1259 C1268 0.950 . S
H1260 C1270 0.950 . S
H1261 C1272 0.950 . S
H1262 C1274 0.950 . S
H1263 C1275 0.950 . S
C1264 H1256 0.950 . S
C1264 C1265 1.386 . S
C1264 C1266 1.391 . S
C1265 C1264 1.386 . S
C1265 C1269 1.393 . S
C1266 H1258 0.950 . S
C1266 C1264 1.391 . S
C1266 C1267 1.400 . S
C1267 C1266 1.400 . S
C1267 C1268 1.398 . S
C1267 C1273 1.491 . S
C1268 H1259 0.950 . S
C1268 C1267 1.398 . S
C1268 C1269 1.391 . S
C1269 H1257 0.950 . S
C1269 C1265 1.393 . S
C1269 C1268 1.391 . S
C1270 H1260 0.950 . S
C1270 C1271 1.386 . S
C1270 C1272 1.391 . S
C1271 C1270 1.386 . S
C1271 C1275 1.393 . S
C1272 H1261 0.950 . S
C1272 C1270 1.391 . S
C1272 C1273 1.400 . S
C1273 C1267 1.491 . S
C1273 C1272 1.400 . S
C1273 C1274 1.398 . S
C1274 H1262 0.950 . S
C1274 C1273 1.398 . S
C1274 C1275 1.391 . S
C1275 H1263 0.950 . S
C1275 C1271 1.393 . S
C1275 C1274 1.391 . S
H1276 C1284 0.950 . S
H1277 C1289 0.950 . S
H1278 C1286 0.950 . S
H1279 C1288 0.950 . S
H1280 C1290 0.950 . S
H1281 C1292 0.950 . S
H1282 C1294 0.950 . S
H1283 C1295 0.950 1_556 S
C1284 H1276 0.950 . S
C1284 C1285 1.386 . S
C1284 C1286 1.391 . S
C1285 C1284 1.386 . S
C1285 C1289 1.393 . S
C1286 H1278 0.950 . S
C1286 C1284 1.391 . S
C1286 C1287 1.400 . S
C1287 C1286 1.400 . S
C1287 C1288 1.398 . S
C1287 C1293 1.491 . S
C1288 H1279 0.950 . S
C1288 C1287 1.398 . S
C1288 C1289 1.391 . S
C1289 H1277 0.950 . S
C1289 C1285 1.393 . S
C1289 C1288 1.391 . S
C1290 H1280 0.950 . S
C1290 C1291 1.386 . S
C1290 C1292 1.391 . S
C1291 C1290 1.386 . S
C1291 C1295 1.393 . S
C1292 H1281 0.950 . S
C1292 C1290 1.391 . S
C1292 C1293 1.400 . S
C1293 C1287 1.491 . S
C1293 C1292 1.400 . S
C1293 C1294 1.398 . S
C1294 H1282 0.950 . S
C1294 C1293 1.398 . S
C1294 C1295 1.391 . S
C1295 H1283 0.950 1_554 S
C1295 C1291 1.393 . S
C1295 C1294 1.391 . S
H1296 C1304 0.950 . S
H1297 C1309 0.950 . S
H1298 C1306 0.950 . S
H1299 C1308 0.950 . S
H1300 C1310 0.950 . S
H1301 C1312 0.950 . S
H1302 C1314 0.950 . S
H1303 C1315 0.950 . S
C1304 H1296 0.950 . S
C1304 C1305 1.386 . S
C1304 C1306 1.391 . S
C1305 C1304 1.386 . S
C1305 C1309 1.393 . S
C1306 H1298 0.950 . S
C1306 C1304 1.391 . S
C1306 C1307 1.400 . S
C1307 C1306 1.400 . S
C1307 C1308 1.398 . S
C1307 C1313 1.491 . S
C1308 H1299 0.950 . S
C1308 C1307 1.398 . S
C1308 C1309 1.391 . S
C1309 H1297 0.950 . S
C1309 C1305 1.393 . S
C1309 C1308 1.391 . S
C1310 H1300 0.950 . S
C1310 C1311 1.386 . S
C1310 C1312 1.391 . S
C1311 C1310 1.386 . S
C1311 C1315 1.393 . S
C1312 H1301 0.950 . S
C1312 C1310 1.391 . S
C1312 C1313 1.400 . S
C1313 C1307 1.491 . S
C1313 C1312 1.400 . S
C1313 C1314 1.398 . S
C1314 H1302 0.950 . S
C1314 C1313 1.398 . S
C1314 C1315 1.391 . S
C1315 H1303 0.950 . S
C1315 C1311 1.393 . S
C1315 C1314 1.391 . S
H1316 C1324 0.950 . S
H1317 C1329 0.950 . S
H1318 C1326 0.950 . S
H1319 C1328 0.950 . S
H1320 C1330 0.950 . S
H1321 C1332 0.950 . S
H1322 C1334 0.950 . S
H1323 C1335 0.950 . S
C1324 H1316 0.950 . S
C1324 C1325 1.386 . S
C1324 C1326 1.391 . S
C1325 C1324 1.386 . S
C1325 C1329 1.393 . S
C1326 H1318 0.950 . S
C1326 C1324 1.391 . S
C1326 C1327 1.400 . S
C1327 C1326 1.400 . S
C1327 C1328 1.398 . S
C1327 C1333 1.491 . S
C1328 H1319 0.950 . S
C1328 C1327 1.398 . S
C1328 C1329 1.391 . S
C1329 H1317 0.950 . S
C1329 C1325 1.393 . S
C1329 C1328 1.391 . S
C1330 H1320 0.950 . S
C1330 C1331 1.386 . S
C1330 C1332 1.391 . S
C1331 C1330 1.386 . S
C1331 C1335 1.393 . S
C1332 H1321 0.950 . S
C1332 C1330 1.391 . S
C1332 C1333 1.400 . S
C1333 C1327 1.491 . S
C1333 C1332 1.400 . S
C1333 C1334 1.398 . S
C1334 H1322 0.950 . S
C1334 C1333 1.398 . S
C1334 C1335 1.391 . S
C1335 H1323 0.950 . S
C1335 C1331 1.393 . S
C1335 C1334 1.391 . S
H1336 C1344 0.950 . S
H1337 C1349 0.950 . S
H1338 C1346 0.950 . S
H1339 C1348 0.954 . S
H1340 C1350 0.950 . S
H1341 C1352 0.950 . S
H1342 C1354 0.950 1_554 S
H1343 C1355 0.950 . S
C1344 H1336 0.950 . S
C1344 C1345 1.386 . S
C1344 C1346 1.391 . S
C1345 C1344 1.386 . S
C1345 C1349 1.393 . S
C1346 H1338 0.950 . S
C1346 C1344 1.391 . S
C1346 C1347 1.400 . S
C1347 C1346 1.400 . S
C1347 C1348 1.397 1_554 S
C1347 C1353 1.491 1_554 S
C1348 H1339 0.954 . S
C1348 C1347 1.397 1_556 S
C1348 C1349 1.387 1_556 S
C1349 H1337 0.950 . S
C1349 C1345 1.393 . S
C1349 C1348 1.387 1_554 S
C1350 H1340 0.950 . S
C1350 C1351 1.386 . S
C1350 C1352 1.391 . S
C1351 C1350 1.386 . S
C1351 C1355 1.393 . S
C1352 H1341 0.950 . S
C1352 C1350 1.391 . S
C1352 C1353 1.400 . S
C1353 C1347 1.491 1_556 S
C1353 C1352 1.400 . S
C1353 C1354 1.398 . S
C1354 H1342 0.950 1_556 S
C1354 C1353 1.398 . S
C1354 C1355 1.391 . S
C1355 H1343 0.950 . S
C1355 C1351 1.393 . S
C1355 C1354 1.391 . S
H1356 C1364 0.950 . S
H1357 C1369 0.950 . S
H1358 C1366 0.950 1_655 S
H1359 C1368 0.950 . S
H1360 C1370 0.950 1_554 S
H1361 C1372 0.950 1_455 S
H1362 C1374 0.950 . S
H1363 C1375 0.950 . S
C1364 H1356 0.950 . S
C1364 C1365 1.386 . S
C1364 C1366 1.391 . S
C1365 C1364 1.386 . S
C1365 C1369 1.393 . S
C1366 H1358 0.950 1_455 S
C1366 C1364 1.391 . S
C1366 C1367 1.400 . S
C1367 C1366 1.400 . S
C1367 C1368 1.398 . S
C1367 C1373 1.491 1_455 S
C1368 H1359 0.950 . S
C1368 C1367 1.398 . S
C1368 C1369 1.391 . S
C1369 H1357 0.950 . S
C1369 C1365 1.393 . S
C1369 C1368 1.391 . S
C1370 H1360 0.950 1_556 S
C1370 C1371 1.386 . S
C1370 C1372 1.391 . S
C1371 C1370 1.386 . S
C1371 C1375 1.393 . S
C1372 H1361 0.950 1_655 S
C1372 C1370 1.391 . S
C1372 C1373 1.400 . S
C1373 C1367 1.491 1_655 S
C1373 C1372 1.400 . S
C1373 C1374 1.398 . S
C1374 H1362 0.950 . S
C1374 C1373 1.398 . S
C1374 C1375 1.391 . S
C1375 H1363 0.950 . S
C1375 C1371 1.393 . S
C1375 C1374 1.391 . S
H1376 C1384 0.950 . S
H1377 C1389 0.950 . S
H1378 C1386 0.950 . S
H1379 C1388 0.950 . S
H1380 C1390 0.950 . S
H1381 C1392 0.950 . S
H1382 C1394 0.950 . S
H1383 C1395 0.950 . S
C1384 H1376 0.950 . S
C1384 C1385 1.386 . S
C1384 C1386 1.391 . S
C1385 C1384 1.386 . S
C1385 C1389 1.393 . S
C1386 H1378 0.950 . S
C1386 C1384 1.391 . S
C1386 C1387 1.400 . S
C1387 C1386 1.400 . S
C1387 C1388 1.398 . S
C1387 C1393 1.491 . S
C1388 H1379 0.950 . S
C1388 C1387 1.398 . S
C1388 C1389 1.391 . S
C1389 H1377 0.950 . S
C1389 C1385 1.393 . S
C1389 C1388 1.391 . S
C1390 H1380 0.950 . S
C1390 C1391 1.386 . S
C1390 C1392 1.391 . S
C1391 C1390 1.386 . S
C1391 C1395 1.393 . S
C1392 H1381 0.950 . S
C1392 C1390 1.391 . S
C1392 C1393 1.400 . S
C1393 C1387 1.491 . S
C1393 C1392 1.400 . S
C1393 C1394 1.398 . S
C1394 H1382 0.950 . S
C1394 C1393 1.398 . S
C1394 C1395 1.391 . S
C1395 H1383 0.950 . S
C1395 C1391 1.393 . S
C1395 C1394 1.391 . S
H1396 C1404 0.950 . S
H1397 C1409 0.950 . S
H1398 C1406 0.950 . S
H1399 C1408 0.950 . S
H1400 C1410 0.950 . S
H1401 C1412 0.950 . S
H1402 C1414 0.950 . S
H1403 C1415 0.950 1_554 S
C1404 H1396 0.950 . S
C1404 C1405 1.386 . S
C1404 C1406 1.391 . S
C1405 C1404 1.386 . S
C1405 C1409 1.393 . S
C1406 H1398 0.950 . S
C1406 C1404 1.391 . S
C1406 C1407 1.400 . S
C1407 C1406 1.400 . S
C1407 C1408 1.398 . S
C1407 C1413 1.491 . S
C1408 H1399 0.950 . S
C1408 C1407 1.398 . S
C1408 C1409 1.391 . S
C1409 H1397 0.950 . S
C1409 C1405 1.393 . S
C1409 C1408 1.391 . S
C1410 H1400 0.950 . S
C1410 C1411 1.386 . S
C1410 C1412 1.391 . S
C1411 C1410 1.386 . S
C1411 C1415 1.393 . S
C1412 H1401 0.950 . S
C1412 C1410 1.391 . S
C1412 C1413 1.400 . S
C1413 C1407 1.491 . S
C1413 C1412 1.400 . S
C1413 C1414 1.398 . S
C1414 H1402 0.950 . S
C1414 C1413 1.398 . S
C1414 C1415 1.391 . S
C1415 H1403 0.950 1_556 S
C1415 C1411 1.393 . S
C1415 C1414 1.391 . S
H1416 C1424 0.950 . S
H1417 C1429 0.950 . S
H1418 C1426 0.950 . S
H1419 C1428 0.950 1_556 S
H1420 C1430 0.950 . S
H1421 C1432 0.950 . S
H1422 C1434 0.950 . S
H1423 C1435 0.950 . S
C1424 H1416 0.950 . S
C1424 C1425 1.386 . S
C1424 C1426 1.391 . S
C1425 C1424 1.386 . S
C1425 C1429 1.393 . S
C1426 H1418 0.950 . S
C1426 C1424 1.391 . S
C1426 C1427 1.400 . S
C1427 C1426 1.400 . S
C1427 C1428 1.398 . S
C1427 C1433 1.491 1_554 S
C1428 H1419 0.950 1_554 S
C1428 C1427 1.398 . S
C1428 C1429 1.391 . S
C1429 H1417 0.950 . S
C1429 C1425 1.393 . S
C1429 C1428 1.391 . S
C1430 H1420 0.950 . S
C1430 C1431 1.386 . S
C1430 C1432 1.391 . S
C1431 C1430 1.386 . S
C1431 C1435 1.393 . S
C1432 H1421 0.950 . S
C1432 C1430 1.391 . S
C1432 C1433 1.400 . S
C1433 C1427 1.491 1_556 S
C1433 C1432 1.400 . S
C1433 C1434 1.398 . S
C1434 H1422 0.950 . S
C1434 C1433 1.398 . S
C1434 C1435 1.391 . S
C1435 H1423 0.950 . S
C1435 C1431 1.393 . S
C1435 C1434 1.391 . S
H1436 C1444 0.950 . S
H1437 C1449 0.950 . S
H1438 C1446 0.950 . S
H1439 C1448 0.950 1_455 S
H1440 C1450 0.950 . S
H1441 C1452 0.950 . S
H1442 C1454 0.950 1_655 S
H1443 C1455 0.950 . S
C1444 H1436 0.950 . S
C1444 C1445 1.386 . S
C1444 C1446 1.391 . S
C1445 C1444 1.386 . S
C1445 C1449 1.393 . S
C1446 H1438 0.950 . S
C1446 C1444 1.391 . S
C1446 C1447 1.400 . S
C1447 C1446 1.400 . S
C1447 C1448 1.398 . S
C1447 C1453 1.491 1_655 S
C1448 H1439 0.950 1_655 S
C1448 C1447 1.398 . S
C1448 C1449 1.391 . S
C1449 H1437 0.950 . S
C1449 C1445 1.393 . S
C1449 C1448 1.391 . S
C1450 H1440 0.950 . S
C1450 C1451 1.386 . S
C1450 C1452 1.391 . S
C1451 C1450 1.386 . S
C1451 C1455 1.393 . S
C1452 H1441 0.950 . S
C1452 C1450 1.391 . S
C1452 C1453 1.400 . S
C1453 C1447 1.491 1_455 S
C1453 C1452 1.400 . S
C1453 C1454 1.398 . S
C1454 H1442 0.950 1_455 S
C1454 C1453 1.398 . S
C1454 C1455 1.391 . S
C1455 H1443 0.950 . S
C1455 C1451 1.393 . S
C1455 C1454 1.391 . S
H1456 C1464 0.950 . S
H1457 C1469 0.950 . S
H1458 C1466 0.950 1_554 S
H1459 C1468 0.950 . S
H1460 C1470 0.950 . S
H1461 C1472 0.950 1_556 S
H1462 C1474 0.950 . S
H1463 C1475 0.950 . S
C1464 H1456 0.950 . S
C1464 C1465 1.386 . S
C1464 C1466 1.391 . S
C1465 C1464 1.386 . S
C1465 C1469 1.393 . S
C1466 H1458 0.950 1_556 S
C1466 C1464 1.391 . S
C1466 C1467 1.400 . S
C1467 C1466 1.400 . S
C1467 C1468 1.398 . S
C1467 C1473 1.491 1_556 S
C1468 H1459 0.950 . S
C1468 C1467 1.398 . S
C1468 C1469 1.391 . S
C1469 H1457 0.950 . S
C1469 C1465 1.393 . S
C1469 C1468 1.391 . S
C1470 H1460 0.950 . S
C1470 C1471 1.386 . S
C1470 C1472 1.391 . S
C1471 C1470 1.386 . S
C1471 C1475 1.393 . S
C1472 H1461 0.950 1_554 S
C1472 C1470 1.391 . S
C1472 C1473 1.400 . S
C1473 C1467 1.491 1_554 S
C1473 C1472 1.400 . S
C1473 C1474 1.398 . S
C1474 H1462 0.950 . S
C1474 C1473 1.398 . S
C1474 C1475 1.391 . S
C1475 H1463 0.950 . S
C1475 C1471 1.393 . S
C1475 C1474 1.391 . S
H1476 C1484 0.950 . S
H1477 C1489 0.950 . S
H1478 C1486 0.950 . S
H1479 C1488 0.950 . S
H1480 C1490 0.950 . S
H1481 C1492 0.950 . S
H1482 C1494 0.950 . S
H1483 C1495 0.950 . S
C1484 H1476 0.950 . S
C1484 C1485 1.386 . S
C1484 C1486 1.391 . S
C1485 C1484 1.386 . S
C1485 C1489 1.393 . S
C1486 H1478 0.950 . S
C1486 C1484 1.391 . S
C1486 C1487 1.400 . S
C1487 C1486 1.400 . S
C1487 C1488 1.398 . S
C1487 C1493 1.491 1_655 S
C1488 H1479 0.950 . S
C1488 C1487 1.398 . S
C1488 C1489 1.391 . S
C1489 H1477 0.950 . S
C1489 C1485 1.393 . S
C1489 C1488 1.391 . S
C1490 H1480 0.950 . S
C1490 C1491 1.386 . S
C1490 C1492 1.391 . S
C1491 C1490 1.386 . S
C1491 C1495 1.393 . S
C1492 H1481 0.950 . S
C1492 C1490 1.391 . S
C1492 C1493 1.400 . S
C1493 C1487 1.491 1_455 S
C1493 C1492 1.400 . S
C1493 C1494 1.398 . S
C1494 H1482 0.950 . S
C1494 C1493 1.398 . S
C1494 C1495 1.391 . S
C1495 H1483 0.950 . S
C1495 C1491 1.393 . S
C1495 C1494 1.391 . S
H1496 C1504 0.950 . S
H1497 C1509 0.950 . S
H1498 C1506 0.950 . S
H1499 C1508 0.950 . S
H1500 C1510 0.950 . S
H1501 C1512 0.950 . S
H1502 C1514 0.950 . S
H1503 C1515 0.950 . S
C1504 H1496 0.950 . S
C1504 C1505 1.386 . S
C1504 C1506 1.391 . S
C1505 C1504 1.386 . S
C1505 C1509 1.393 . S
C1506 H1498 0.950 . S
C1506 C1504 1.391 . S
C1506 C1507 1.400 . S
C1507 C1506 1.400 . S
C1507 C1508 1.398 . S
C1507 C1513 1.491 . S
C1508 H1499 0.950 . S
C1508 C1507 1.398 . S
C1508 C1509 1.391 . S
C1509 H1497 0.950 . S
C1509 C1505 1.393 . S
C1509 C1508 1.391 . S
C1510 H1500 0.950 . S
C1510 C1511 1.386 . S
C1510 C1512 1.391 . S
C1511 C1510 1.386 . S
C1511 C1515 1.393 . S
C1512 H1501 0.950 . S
C1512 C1510 1.391 . S
C1512 C1513 1.400 . S
C1513 C1507 1.491 . S
C1513 C1512 1.400 . S
C1513 C1514 1.398 . S
C1514 H1502 0.950 . S
C1514 C1513 1.398 . S
C1514 C1515 1.391 . S
C1515 H1503 0.950 . S
C1515 C1511 1.393 . S
C1515 C1514 1.391 . S
H1516 C1524 0.950 . S
H1517 C1529 0.950 . S
H1518 C1526 0.950 . S
H1519 C1528 0.950 . S
H1520 C1530 0.950 . S
H1521 C1532 0.950 . S
H1522 C1534 0.950 . S
H1523 C1535 0.950 . S
C1524 H1516 0.950 . S
C1524 C1525 1.386 . S
C1524 C1526 1.391 . S
C1525 C1524 1.386 . S
C1525 C1529 1.393 . S
C1526 H1518 0.950 . S
C1526 C1524 1.391 . S
C1526 C1527 1.400 . S
C1527 C1526 1.400 . S
C1527 C1528 1.398 . S
C1527 C1533 1.491 . S
C1528 H1519 0.950 . S
C1528 C1527 1.398 . S
C1528 C1529 1.391 . S
C1529 H1517 0.950 . S
C1529 C1525 1.393 . S
C1529 C1528 1.391 . S
C1530 H1520 0.950 . S
C1530 C1531 1.386 . S
C1530 C1532 1.391 . S
C1531 C1530 1.386 . S
C1531 C1535 1.393 . S
C1532 H1521 0.950 . S
C1532 C1530 1.391 . S
C1532 C1533 1.400 . S
C1533 C1527 1.491 . S
C1533 C1532 1.400 . S
C1533 C1534 1.398 . S
C1534 H1522 0.950 . S
C1534 C1533 1.398 . S
C1534 C1535 1.391 . S
C1535 H1523 0.950 . S
C1535 C1531 1.393 . S
C1535 C1534 1.391 . S
H1536 C1544 0.950 . S
H1537 C1549 0.950 . S
H1538 C1546 0.950 . S
H1539 C1548 0.950 . S
H1540 C1550 0.950 . S
H1541 C1552 0.950 . S
H1542 C1554 0.950 . S
H1543 C1555 0.950 . S
C1544 H1536 0.950 . S
C1544 C1545 1.386 . S
C1544 C1546 1.391 . S
C1545 C1544 1.386 . S
C1545 C1549 1.393 . S
C1546 H1538 0.950 . S
C1546 C1544 1.391 . S
C1546 C1547 1.400 . S
C1547 C1546 1.400 . S
C1547 C1548 1.398 . S
C1547 C1553 1.491 . S
C1548 H1539 0.950 . S
C1548 C1547 1.398 . S
C1548 C1549 1.391 . S
C1549 H1537 0.950 . S
C1549 C1545 1.393 . S
C1549 C1548 1.391 . S
C1550 H1540 0.950 . S
C1550 C1551 1.386 . S
C1550 C1552 1.391 . S
C1551 C1550 1.386 . S
C1551 C1555 1.393 . S
C1552 H1541 0.950 . S
C1552 C1550 1.391 . S
C1552 C1553 1.400 . S
C1553 C1547 1.491 . S
C1553 C1552 1.400 . S
C1553 C1554 1.398 . S
C1554 H1542 0.950 . S
C1554 C1553 1.398 . S
C1554 C1555 1.391 . S
C1555 H1543 0.950 . S
C1555 C1551 1.393 . S
C1555 C1554 1.391 . S
H1556 C1564 0.950 . S
H1557 C1569 0.950 . S
H1558 C1566 0.950 . S
H1559 C1568 0.950 . S
H1560 C1570 0.950 1_556 S
H1561 C1572 0.950 . S
H1562 C1574 0.950 . S
H1563 C1575 0.950 . S
C1564 H1556 0.950 . S
C1564 C1565 1.386 . S
C1564 C1566 1.391 . S
C1565 C1564 1.386 . S
C1565 C1569 1.393 . S
C1566 H1558 0.950 . S
C1566 C1564 1.391 . S
C1566 C1567 1.400 . S
C1567 C1566 1.400 . S
C1567 C1568 1.398 . S
C1567 C1573 1.491 . S
C1568 H1559 0.950 . S
C1568 C1567 1.398 . S
C1568 C1569 1.391 . S
C1569 H1557 0.950 . S
C1569 C1565 1.393 . S
C1569 C1568 1.391 . S
C1570 H1560 0.950 1_554 S
C1570 C1571 1.386 . S
C1570 C1572 1.391 . S
C1571 C1570 1.386 . S
C1571 C1575 1.393 . S
C1572 H1561 0.950 . S
C1572 C1570 1.391 . S
C1572 C1573 1.400 . S
C1573 C1567 1.491 . S
C1573 C1572 1.400 . S
C1573 C1574 1.398 . S
C1574 H1562 0.950 . S
C1574 C1573 1.398 . S
C1574 C1575 1.391 . S
C1575 H1563 0.950 . S
C1575 C1571 1.393 . S
C1575 C1574 1.391 . S
H1576 C1584 0.950 . S
H1577 C1589 0.950 . S
H1578 C1586 0.950 . S
H1579 C1588 0.950 1_556 S
H1580 C1590 0.950 . S
H1581 C1592 0.950 . S
H1582 C1594 0.950 1_554 S
H1583 C1595 0.950 . S
C1584 H1576 0.950 . S
C1584 C1585 1.386 . S
C1584 C1586 1.391 . S
C1585 C1584 1.386 . S
C1585 C1589 1.393 . S
C1586 H1578 0.950 . S
C1586 C1584 1.391 . S
C1586 C1587 1.400 . S
C1587 C1586 1.400 . S
C1587 C1588 1.398 . S
C1587 C1593 1.491 1_554 S
C1588 H1579 0.950 1_554 S
C1588 C1587 1.398 . S
C1588 C1589 1.391 . S
C1589 H1577 0.950 . S
C1589 C1585 1.393 . S
C1589 C1588 1.391 . S
C1590 H1580 0.950 . S
C1590 C1591 1.386 . S
C1590 C1592 1.391 . S
C1591 C1590 1.386 . S
C1591 C1595 1.393 . S
C1592 H1581 0.950 . S
C1592 C1590 1.391 . S
C1592 C1593 1.400 . S
C1593 C1587 1.491 1_556 S
C1593 C1592 1.400 . S
C1593 C1594 1.398 . S
C1594 H1582 0.950 1_556 S
C1594 C1593 1.398 . S
C1594 C1595 1.391 . S
C1595 H1583 0.950 . S
C1595 C1591 1.393 . S
C1595 C1594 1.391 . S
H1596 C1604 0.950 . S
H1597 C1609 0.950 . S
H1598 C1606 0.950 . S
H1599 C1608 0.950 1_655 S
H1600 C1610 0.950 . S
H1601 C1612 0.950 . S
H1602 C1614 0.950 1_455 S
H1603 C1615 0.950 . S
C1604 H1596 0.950 . S
C1604 C1605 1.386 . S
C1604 C1606 1.391 . S
C1605 C1604 1.386 . S
C1605 C1609 1.393 . S
C1606 H1598 0.950 . S
C1606 C1604 1.391 . S
C1606 C1607 1.400 . S
C1607 C1606 1.400 . S
C1607 C1608 1.398 . S
C1607 C1613 1.491 1_455 S
C1608 H1599 0.950 1_455 S
C1608 C1607 1.398 . S
C1608 C1609 1.391 . S
C1609 H1597 0.950 . S
C1609 C1605 1.393 . S
C1609 C1608 1.391 . S
C1610 H1600 0.950 . S
C1610 C1611 1.386 . S
C1610 C1612 1.391 . S
C1611 C1610 1.386 . S
C1611 C1615 1.393 . S
C1612 H1601 0.950 . S
C1612 C1610 1.391 . S
C1612 C1613 1.400 . S
C1613 C1607 1.491 1_655 S
C1613 C1612 1.400 . S
C1613 C1614 1.398 . S
C1614 H1602 0.950 1_655 S
C1614 C1613 1.398 . S
C1614 C1615 1.391 . S
C1615 H1603 0.950 . S
C1615 C1611 1.393 . S
C1615 C1614 1.391 . S
H1616 C1624 0.950 . S
H1617 C1629 0.950 . S
H1618 C1626 0.959 . S
H1619 C1628 0.950 . S
H1620 C1630 0.950 . S
H1621 C1632 0.950 1_554 S
H1622 C1634 0.950 . S
H1623 C1635 0.950 . S
C1624 H1616 0.950 . S
C1624 C1625 1.386 . S
C1624 C1626 1.384 1_554 S
C1625 C1624 1.386 . S
C1625 C1629 1.393 . S
C1626 H1618 0.959 . S
C1626 C1624 1.384 1_556 S
C1626 C1627 1.399 1_556 S
C1627 C1626 1.399 1_554 S
C1627 C1628 1.398 . S
C1627 C1633 1.491 1_554 S
C1628 H1619 0.950 . S
C1628 C1627 1.398 . S
C1628 C1629 1.391 . S
C1629 H1617 0.950 . S
C1629 C1625 1.393 . S
C1629 C1628 1.391 . S
C1630 H1620 0.950 . S
C1630 C1631 1.386 . S
C1630 C1632 1.391 . S
C1631 C1630 1.386 . S
C1631 C1635 1.393 . S
C1632 H1621 0.950 1_556 S
C1632 C1630 1.391 . S
C1632 C1633 1.400 . S
C1633 C1627 1.491 1_556 S
C1633 C1632 1.400 . S
C1633 C1634 1.398 . S
C1634 H1622 0.950 . S
C1634 C1633 1.398 . S
C1634 C1635 1.391 . S
C1635 H1623 0.950 . S
C1635 C1631 1.393 . S
C1635 C1634 1.391 . S
H1636 C1644 0.950 . S
H1637 C1649 0.950 . S
H1638 C1646 0.950 . S
H1639 C1648 0.944 1_455 S
H1640 C1650 0.950 . S
H1641 C1652 0.950 . S
H1642 C1654 0.948 1_655 S
H1643 C1655 0.950 1_554 S
C1644 H1636 0.950 . S
C1644 C1645 1.386 . S
C1644 C1646 1.391 . S
C1645 C1644 1.386 . S
C1645 C1649 1.393 . S
C1646 H1638 0.950 . S
C1646 C1644 1.391 . S
C1646 C1647 1.400 . S
C1647 C1646 1.400 . S
C1647 C1648 1.400 . S
C1647 C1653 1.491 1_655 S
C1648 H1639 0.944 1_655 S
C1648 C1647 1.400 . S
C1648 C1649 1.395 . S
C1649 H1637 0.950 . S
C1649 C1645 1.393 . S
C1649 C1648 1.395 . S
C1650 H1640 0.950 . S
C1650 C1651 1.386 . S
C1650 C1652 1.391 . S
C1651 C1650 1.386 . S
C1651 C1655 1.393 . S
C1652 H1641 0.950 . S
C1652 C1650 1.391 . S
C1652 C1653 1.400 . S
C1653 C1647 1.491 1_455 S
C1653 C1652 1.400 . S
C1653 C1654 1.399 . S
C1654 H1642 0.948 1_455 S
C1654 C1653 1.399 . S
C1654 C1655 1.392 . S
C1655 H1643 0.950 1_556 S
C1655 C1651 1.393 . S
C1655 C1654 1.392 . S
H1656 C1664 0.950 . S
H1657 C1669 0.950 . S
H1658 C1666 0.950 . S
H1659 C1668 0.950 . S
H1660 C1670 0.950 . S
H1661 C1672 0.950 . S
H1662 C1674 0.950 . S
H1663 C1675 0.950 . S
C1664 H1656 0.950 . S
C1664 C1665 1.386 . S
C1664 C1666 1.391 . S
C1665 C1664 1.386 . S
C1665 C1669 1.393 . S
C1666 H1658 0.950 . S
C1666 C1664 1.391 . S
C1666 C1667 1.400 . S
C1667 C1666 1.400 . S
C1667 C1668 1.398 . S
C1667 C1673 1.491 . S
C1668 H1659 0.950 . S
C1668 C1667 1.398 . S
C1668 C1669 1.391 . S
C1669 H1657 0.950 . S
C1669 C1665 1.393 . S
C1669 C1668 1.391 . S
C1670 H1660 0.950 . S
C1670 C1671 1.386 . S
C1670 C1672 1.391 . S
C1671 C1670 1.386 . S
C1671 C1675 1.393 . S
C1672 H1661 0.950 . S
C1672 C1670 1.391 . S
C1672 C1673 1.400 . S
C1673 C1667 1.491 . S
C1673 C1672 1.400 . S
C1673 C1674 1.398 . S
C1674 H1662 0.950 . S
C1674 C1673 1.398 . S
C1674 C1675 1.391 . S
C1675 H1663 0.950 . S
C1675 C1671 1.393 . S
C1675 C1674 1.391 . S
H1676 C1684 0.950 . S
H1677 C1689 0.950 . S
H1678 C1686 0.950 . S
H1679 C1688 0.950 . S
H1680 C1690 0.950 . S
H1681 C1692 0.950 . S
H1682 C1694 0.950 . S
H1683 C1695 0.950 . S
C1684 H1676 0.950 . S
C1684 C1685 1.386 . S
C1684 C1686 1.391 . S
C1685 C1684 1.386 . S
C1685 C1689 1.393 . S
C1686 H1678 0.950 . S
C1686 C1684 1.391 . S
C1686 C1687 1.400 . S
C1687 C1686 1.400 . S
C1687 C1688 1.398 . S
C1687 C1693 1.491 . S
C1688 H1679 0.950 . S
C1688 C1687 1.398 . S
C1688 C1689 1.391 . S
C1689 H1677 0.950 . S
C1689 C1685 1.393 . S
C1689 C1688 1.391 . S
C1690 H1680 0.950 . S
C1690 C1691 1.386 . S
C1690 C1692 1.391 . S
C1691 C1690 1.386 . S
C1691 C1695 1.393 . S
C1692 H1681 0.950 . S
C1692 C1690 1.391 . S
C1692 C1693 1.400 . S
C1693 C1687 1.491 . S
C1693 C1692 1.400 . S
C1693 C1694 1.398 . S
C1694 H1682 0.950 . S
C1694 C1693 1.398 . S
C1694 C1695 1.391 . S
C1695 H1683 0.950 . S
C1695 C1691 1.393 . S
C1695 C1694 1.391 . S
C425 C81 2.118 . S
C431 C5 2.099 . S
C445 C18 1.425 . S
C451 C96 1.437 . S
C465 C55 2.102 . S
C471 C29 2.119 . S
C485 C42 1.434 . S
C491 C70 1.423 . S
C505 C185 2.111 . S
C511 C109 2.090 . S
C525 C120 1.435 . S
C531 C200 1.429 . S
C545 C159 2.105 . S
C551 C133 2.120 . S
C565 C146 1.434 . S
C571 C174 1.423 . S
C585 C211 2.114 . S
C591 C291 2.117 . S
C605 C302 1.437 . S
C611 C226 1.425 . S
C625 C237 2.113 . S
C631 C263 2.091 . S
C645 C276 1.436 . S
C651 C252 1.422 . S
C665 C393 2.096 . S
C671 C317 2.089 . S
C685 C406 1.438 . S
C691 C330 1.424 . S
C705 C367 2.096 . S
C711 C341 2.089 . S
C725 C356 1.433 . S
C731 C382 1.431 . S
C745 C101 1.285 . S
C751 C10 1.289 . S
C765 C56 1.288 . S
C771 C23 1.273 . S
C785 C75 1.275 . S
C791 C30 1.289 . S
C805 C82 1.288 . S
C811 C43 1.275 . S
C825 C205 1.273 . S
C831 C114 1.288 . S
C845 C160 1.288 . S
C851 C121 1.273 . S
C865 C179 1.284 . S
C871 C134 1.289 . S
C885 C147 1.273 . S
C891 C186 1.288 . S
C905 C303 1.286 . S
C911 C212 1.290 . S
C925 C231 1.273 . S
C931 C264 1.288 . S
C945 C238 1.288 . S
C951 C277 1.273 . S
C965 C296 1.289 . S
C971 C257 1.286 . S
C985 C407 1.286 . S
C991 C322 1.289 . S
C1005 C335 1.281 . S
C1011 C368 1.288 . S
C1025 C342 1.288 . S
C1031 C387 1.273 . S
C1045 C394 1.288 . S
C1051 C361 1.273 . S
C1065 C4 1.801 . S
C1071 C395 1.973 . S
C1085 C198 1.345 . S
C1091 C17 1.348 . S
C1105 C369 1.972 . S
C1111 C36 1.808 . S
C1125 C172 1.346 . S
C1131 C49 1.347 1_556 S
C1145 C343 1.973 . S
C1151 C62 1.799 . S
C1165 C69 1.354 . S
C1171 C148 1.338 . S
C1185 C88 1.810 . S
C1191 C315 1.970 . S
C1205 C95 1.355 1_554 S
C1211 C122 1.338 . S
C1225 C108 1.808 . S
C1231 C289 1.968 . S
C1245 C94 1.353 . S
C1251 C127 1.345 . S
C1265 C265 1.963 . S
C1271 C140 1.781 . S
C1285 C68 1.340 . S
C1291 C153 1.351 1_554 S
C1305 C239 1.965 . S
C1311 C166 1.801 . S
C1325 C44 1.348 . S
C1331 C173 1.352 . S
C1345 C192 1.785 . S
C1351 C213 1.963 . S
C1365 C16 1.350 . S
C1371 C199 1.345 1_556 S
C1385 C187 1.973 . S
C1391 C218 1.795 . S
C1405 C408 1.352 . S
C1411 C225 1.345 1_556 S
C1425 C244 1.800 . S
C1431 C161 1.973 . S
C1445 C251 1.351 . S
C1451 C380 1.341 . S
C1465 C270 1.777 . S
C1471 C135 1.966 . S
C1485 C283 1.350 1_554 S
C1491 C354 1.341 . S
C1505 C290 1.779 . S
C1511 C107 1.968 . S
C1525 C309 1.350 . S
C1531 C328 1.342 . S
C1545 C83 1.973 . S
C1551 C316 1.797 . S
C1565 C304 1.352 . S
C1571 C329 1.345 1_554 S
C1585 C57 1.973 . S
C1591 C348 1.803 . S
C1605 C355 1.347 . S
C1611 C278 1.352 . S
C1625 C374 1.807 . S
C1631 C31 1.972 . S
C1645 C250 1.338 . S
C1651 C381 1.356 1_556 S
C1665 C400 1.805 . S
C1671 C3 1.966 . S
C1685 C413 1.349 . S
C1691 C224 1.343 . S
