# Generated by pormake.
# Topology wjh, (4)-cn, num edge types: 1
# Building blocks:
#     Node 0, Type 0, BuildingBlock: CEKHIL_clean_sbu_0, # of connection points: 4
#     Node 1, Type 0, BuildingBlock: CEKHIL_clean_sbu_0, # of connection points: 4
#     Node 2, Type 0, BuildingBlock: CEKHIL_clean_sbu_0, # of connection points: 4
#     Node 3, Type 0, BuildingBlock: CEKHIL_clean_sbu_0, # of connection points: 4
#     Node 4, Type 0, BuildingBlock: CEKHIL_clean_sbu_0, # of connection points: 4
#     Node 5, Type 0, BuildingBlock: CEKHIL_clean_sbu_0, # of connection points: 4
#     Node 6, Type 0, BuildingBlock: CEKHIL_clean_sbu_0, # of connection points: 4
#     Node 7, Type 0, BuildingBlock: CEKHIL_clean_sbu_0, # of connection points: 4
#     Node 8, Type 0, BuildingBlock: CEKHIL_clean_sbu_0, # of connection points: 4
#     Node 9, Type 0, BuildingBlock: CEKHIL_clean_sbu_0, # of connection points: 4
#     Node 10, Type 0, BuildingBlock: CEKHIL_clean_sbu_0, # of connection points: 4
#     Node 11, Type 0, BuildingBlock: CEKHIL_clean_sbu_0, # of connection points: 4
#     Edge 12, Type (0, 0), BuildingBlock: EZIPEK_clean_linker_0, # of connection points: 2
#     Edge 13, Type (0, 0), BuildingBlock: EZIPEK_clean_linker_0, # of connection points: 2
#     Edge 14, Type (0, 0), BuildingBlock: EZIPEK_clean_linker_0, # of connection points: 2
#     Edge 15, Type (0, 0), BuildingBlock: EZIPEK_clean_linker_0, # of connection points: 2
#     Edge 16, Type (0, 0), BuildingBlock: EZIPEK_clean_linker_0, # of connection points: 2
#     Edge 17, Type (0, 0), BuildingBlock: EZIPEK_clean_linker_0, # of connection points: 2
#     Edge 18, Type (0, 0), BuildingBlock: EZIPEK_clean_linker_0, # of connection points: 2
#     Edge 19, Type (0, 0), BuildingBlock: EZIPEK_clean_linker_0, # of connection points: 2
#     Edge 20, Type (0, 0), BuildingBlock: EZIPEK_clean_linker_0, # of connection points: 2
#     Edge 21, Type (0, 0), BuildingBlock: EZIPEK_clean_linker_0, # of connection points: 2
#     Edge 22, Type (0, 0), BuildingBlock: EZIPEK_clean_linker_0, # of connection points: 2
#     Edge 23, Type (0, 0), BuildingBlock: EZIPEK_clean_linker_0, # of connection points: 2
#     Edge 24, Type (0, 0), BuildingBlock: EZIPEK_clean_linker_0, # of connection points: 2
#     Edge 25, Type (0, 0), BuildingBlock: EZIPEK_clean_linker_0, # of connection points: 2
#     Edge 26, Type (0, 0), BuildingBlock: EZIPEK_clean_linker_0, # of connection points: 2
#     Edge 27, Type (0, 0), BuildingBlock: EZIPEK_clean_linker_0, # of connection points: 2
#     Edge 28, Type (0, 0), BuildingBlock: EZIPEK_clean_linker_0, # of connection points: 2
#     Edge 29, Type (0, 0), BuildingBlock: EZIPEK_clean_linker_0, # of connection points: 2
#     Edge 30, Type (0, 0), BuildingBlock: EZIPEK_clean_linker_0, # of connection points: 2
#     Edge 31, Type (0, 0), BuildingBlock: EZIPEK_clean_linker_0, # of connection points: 2
#     Edge 32, Type (0, 0), BuildingBlock: EZIPEK_clean_linker_0, # of connection points: 2
#     Edge 33, Type (0, 0), BuildingBlock: EZIPEK_clean_linker_0, # of connection points: 2
#     Edge 34, Type (0, 0), BuildingBlock: EZIPEK_clean_linker_0, # of connection points: 2
#     Edge 35, Type (0, 0), BuildingBlock: EZIPEK_clean_linker_0, # of connection points: 2
# Relax obj value: 0.077
# Max RMSD: 0.099
# Mean RMSD: 0.099
data_MOF--net-wjh--node1-CEKHIL_clean_sbu_0--edge1-EZIPEK_clean_linker_0
_symmetry_space_group_name_H-M    P1
_symmetry_Int_Tables_number       1
_symmetry_cell_setting            triclinic
loop_
_symmetry_equiv_pos_as_xyz
'x, y, z'
_cell_length_a     44.071883
_cell_length_b     44.161203
_cell_length_c     19.237911
_cell_angle_alpha  90.025699
_cell_angle_beta   89.877932
_cell_angle_gamma 119.7532
loop_
_atom_site_label
_atom_site_type_symbol
_atom_site_fract_x
_atom_site_fract_y
_atom_site_fract_z
_atom_type_partial_charge
Co0 Co 0.54139 0.16106 0.03041 0.0
O1 O 0.55838 0.21067 0.03542 0.0
O2 O 0.50436 0.1698 0.06091 0.0
C3 C 0.56659 0.16218 0.92699 0.0
O4 O 0.51394 0.10727 0.0328 0.0
Co5 Co 0.59296 0.13208 0.0281 0.0
O6 O 0.55043 0.08594 0.01627 0.0
C7 C 0.57884 0.15751 0.15928 0.0
C8 C 0.52766 0.20279 0.05866 0.0
C9 C 0.51988 0.08157 0.02562 0.0
O10 O 0.55537 0.16194 0.12949 0.0
O11 O 0.59844 0.14827 0.12731 0.0
O12 O 0.53665 0.16138 0.92882 0.0
O13 O 0.58109 0.16463 0.98628 0.0
Co14 Co 0.38486 0.53117 0.18473 0.0
O15 O 0.35975 0.55635 0.1996 0.0
O16 O 0.33908 0.50054 0.22425 0.0
C17 C 0.4056 0.55429 0.07799 0.0
O18 O 0.40244 0.49576 0.17866 0.0
Co19 Co 0.46605 0.56917 0.16037 0.0
O20 O 0.45929 0.52201 0.1478 0.0
C21 C 0.43637 0.56349 0.30184 0.0
C22 C 0.33467 0.52752 0.22522 0.0
C23 C 0.4308 0.49503 0.16477 0.0
O24 O 0.40514 0.54518 0.2791 0.0
O25 O 0.46351 0.57547 0.2629 0.0
O26 O 0.37412 0.52776 0.08488 0.0
O27 O 0.42217 0.56582 0.13527 0.0
Co28 Co 0.86706 0.38149 0.35595 0.0
O29 O 0.81705 0.3528 0.3697 0.0
O30 O 0.85575 0.33628 0.39384 0.0
C31 C 0.86421 0.40186 0.24907 0.0
O32 O 0.92034 0.40296 0.34937 0.0
Co33 Co 0.90115 0.46223 0.34119 0.0
O34 O 0.94577 0.46163 0.34659 0.0
C35 C 0.87622 0.42919 0.47663 0.0
C36 C 0.82336 0.32915 0.39447 0.0
C37 C 0.94752 0.43372 0.34939 0.0
O38 O 0.8719 0.40025 0.4525 0.0
O39 O 0.88451 0.45622 0.43962 0.0
O40 O 0.86201 0.37146 0.2555 0.0
O41 O 0.8655 0.41737 0.30654 0.0
Co42 Co 0.49577 0.86099 0.52206 0.0
O43 O 0.47339 0.8109 0.53324 0.0
O44 O 0.52916 0.84774 0.55485 0.0
C45 C 0.47152 0.86004 0.41734 0.0
O46 O 0.5289 0.91394 0.51693 0.0
Co47 Co 0.45185 0.89837 0.51499 0.0
O48 O 0.49779 0.94186 0.51794 0.0
C49 C 0.45849 0.86901 0.64628 0.0
C50 C 0.50333 0.81581 0.5553 0.0
C51 C 0.52676 0.94202 0.51853 0.0
O52 O 0.48327 0.86516 0.6206 0.0
O53 O 0.4401 0.87849 0.61104 0.0
O54 O 0.49921 0.85668 0.42094 0.0
O55 O 0.45833 0.86146 0.47621 0.0
Co56 Co 0.64822 0.48885 0.68335 0.0
O57 O 0.67869 0.46908 0.69082 0.0
O58 O 0.69374 0.52346 0.71801 0.0
C59 C 0.62617 0.46536 0.57792 0.0
O60 O 0.62481 0.51921 0.68409 0.0
Co61 Co 0.56706 0.44253 0.6708 0.0
O62 O 0.56724 0.48729 0.66122 0.0
C63 C 0.60258 0.45031 0.80541 0.0
C64 C 0.70203 0.49903 0.71569 0.0
C65 C 0.5945 0.5163 0.67428 0.0
O66 O 0.63189 0.47365 0.78034 0.0
O67 O 0.57472 0.43311 0.76949 0.0
O68 O 0.65598 0.49429 0.58251 0.0
O69 O 0.61185 0.45131 0.63623 0.0
Co70 Co 0.16807 0.64057 0.86935 0.0
O71 O 0.21778 0.67332 0.87053 0.0
O72 O 0.17693 0.68647 0.89812 0.0
C73 C 0.16748 0.6152 0.76659 0.0
O74 O 0.11426 0.61443 0.87514 0.0
Co75 Co 0.13957 0.56065 0.8725 0.0
O76 O 0.09307 0.55672 0.86189 0.0
C77 C 0.16662 0.60168 0.00088 0.0
C78 C 0.21002 0.69625 0.89372 0.0
C79 C 0.08859 0.58286 0.86991 0.0
O80 O 0.17089 0.62896 0.96879 0.0
O81 O 0.1563 0.5722 0.97125 0.0
O82 O 0.16654 0.64421 0.76781 0.0
O83 O 0.17118 0.60401 0.82602 0.0
Co84 Co 0.86249 0.48734 0.88395 0.0
O85 O 0.81325 0.46844 0.86572 0.0
O86 O 0.85433 0.52227 0.83979 0.0
C87 C 0.85604 0.46581 -0.00711 0.0
O88 O 0.91598 0.51613 0.89506 0.0
Co89 Co 0.89153 0.43656 0.91252 0.0
O90 O 0.93713 0.48018 0.92012 0.0
C91 C 0.87213 0.44519 0.77119 0.0
C92 C 0.82148 0.49838 0.83843 0.0
C93 C 0.94158 0.51044 0.9072 0.0
O94 O 0.86854 0.471 0.79072 0.0
O95 O 0.8782 0.42606 0.81227 0.0
O96 O 0.85547 0.49463 0.98215 0.0
O97 O 0.85746 0.45001 0.9379 0.0
Co98 Co 0.38371 0.85645 0.05191 0.0
O99 O 0.35157 0.80738 0.03709 0.0
O100 O 0.34131 0.8498 0.00673 0.0
C101 C 0.3983 0.85113 0.16218 0.0
O102 O 0.41066 0.91009 0.05902 0.0
Co103 Co 0.4627 0.88159 0.0814 0.0
O104 O 0.46708 0.92846 0.08524 0.0
C105 C 0.43456 0.86173 0.94019 0.0
C106 C 0.33085 0.81658 0.00814 0.0
C107 C 0.44241 0.93455 0.07054 0.0
O108 O 0.40561 0.85961 0.959 0.0
O109 O 0.45926 0.86694 0.98188 0.0
O110 O 0.36972 0.8521 0.1503 0.0
O111 O 0.41483 0.85031 0.10773 0.0
Co112 Co 0.53359 0.37497 0.21205 0.0
O113 O 0.5551 0.34641 0.19789 0.0
O114 O 0.49946 0.32921 0.17758 0.0
C115 C 0.56068 0.3967 0.31683 0.0
O116 O 0.50128 0.39596 0.21851 0.0
Co117 Co 0.57753 0.45577 0.2288 0.0
O118 O 0.532 0.45426 0.23287 0.0
C119 C 0.57328 0.42177 0.09507 0.0
C120 C 0.5249 0.32232 0.17551 0.0
C121 C 0.5033 0.42601 0.22411 0.0
O122 O 0.54649 0.3933 0.11515 0.0
O123 O 0.59223 0.44707 0.13586 0.0
O124 O 0.53155 0.36697 0.31359 0.0
O125 O 0.57146 0.41131 0.25761 0.0
Co126 Co 0.1711 0.53573 0.39491 0.0
O127 O 0.22142 0.55642 0.38923 0.0
O128 O 0.18337 0.50471 0.34702 0.0
C129 C 0.16872 0.54932 0.50783 0.0
O130 O 0.11791 0.50462 0.38912 0.0
Co131 Co 0.13489 0.57923 0.4262 0.0
O132 O 0.0905 0.53446 0.41735 0.0
C133 C 0.17154 0.58769 0.29286 0.0
C134 C 0.21579 0.52883 0.35452 0.0
C135 C 0.08998 0.50655 0.39867 0.0
O136 O 0.17193 0.55918 0.30471 0.0
O137 O 0.1606 0.60135 0.33784 0.0
O138 O 0.17102 0.5218 0.49241 0.0
O139 O 0.17031 0.56843 0.45607 0.0
Co140 Co 0.65353 0.1643 0.56033 0.0
O141 O 0.68243 0.21443 0.55165 0.0
O142 O 0.69712 0.17614 0.51355 0.0
C143 C 0.63695 0.16386 0.67227 0.0
O144 O 0.63157 0.11113 0.55858 0.0
Co145 Co 0.57342 0.13036 0.59004 0.0
O146 O 0.57374 0.08571 0.58045 0.0
C147 C 0.60161 0.15974 0.45294 0.0
C148 C 0.70484 0.20853 0.51914 0.0
C149 C 0.60104 0.08402 0.56532 0.0
O150 O 0.63109 0.16221 0.46852 0.0
O151 O 0.57727 0.15266 0.49721 0.0
O152 O 0.66702 0.1662 0.65884 0.0
O153 O 0.61982 0.16467 0.61912 0.0
Co154 Co 0.49771 0.64354 0.71156 0.0
O155 O 0.47448 0.67034 0.69532 0.0
O156 O 0.53036 0.68909 0.67355 0.0
C157 C 0.47316 0.62308 0.81767 0.0
O158 O 0.53114 0.62365 0.72049 0.0
Co159 Co 0.45432 0.562 0.73415 0.0
O160 O 0.50058 0.56614 0.74525 0.0
C161 C 0.46389 0.59298 0.59343 0.0
C162 C 0.50417 0.69486 0.6716 0.0
C163 C 0.5292 0.59389 0.7321 0.0
O164 O 0.48447 0.62378 0.61633 0.0
O165 O 0.44878 0.56587 0.63214 0.0
O166 O 0.50044 0.65408 0.81158 0.0
O167 O 0.46146 0.60716 0.75986 0.0
C168 C 0.55589 0.13624 0.27838 0.0
C169 C 0.58241 0.16164 0.23527 0.0
C170 C 0.61776 0.19047 0.33793 0.0
C171 C 0.59405 0.16163 0.37894 0.0
N172 N 0.54381 0.10334 0.38452 0.0
N173 N 0.63917 0.21286 0.22235 0.0
C174 C 0.56377 0.13363 0.3485 0.0
C175 C 0.61359 0.1888 0.26458 0.0
N176 N 0.52324 0.1144 0.25278 0.0
N177 N 0.64342 0.21982 0.36926 0.0
H178 H 0.63594 0.21387 0.16884 0.0
H179 H 0.66414 0.23066 0.23984 0.0
H180 H 0.64655 0.22222 0.42308 0.0
H181 H 0.65955 0.24286 0.34263 0.0
H182 H 0.5022 0.09797 0.2844 0.0
H183 H 0.51609 0.11491 0.20146 0.0
H184 H 0.52398 0.08086 0.36147 0.0
H185 H 0.54925 0.09907 0.43506 0.0
C186 C 0.41753 0.55034 0.42805 0.0
C187 C 0.44145 0.5726 0.37652 0.0
C188 C 0.48142 0.60831 0.46763 0.0
C189 C 0.45591 0.58831 0.51854 0.0
N190 N 0.39402 0.55061 0.54076 0.0
N191 N 0.48802 0.63164 0.3524 0.0
C192 C 0.42206 0.56258 0.49691 0.0
C193 C 0.47094 0.60445 0.3976 0.0
N194 N 0.39163 0.51718 0.41368 0.0
N195 N 0.51572 0.62966 0.48425 0.0
H196 H 0.47872 0.63169 0.30263 0.0
H197 H 0.50833 0.65587 0.36821 0.0
H198 H 0.52577 0.63128 0.53379 0.0
H199 H 0.5349 0.64248 0.44638 0.0
H200 H 0.37584 0.50014 0.45257 0.0
H201 H 0.38835 0.50503 0.36591 0.0
H202 H 0.36856 0.53354 0.52434 0.0
H203 H 0.39556 0.56133 0.58985 0.0
C204 C 0.90563 0.45548 0.66178 0.0
C205 C 0.8729 0.43963 0.69637 0.0
C206 C 0.84202 0.41776 0.58629 0.0
C207 C 0.87484 0.43249 0.55214 0.0
N208 N 0.9378 0.46094 0.55592 0.0
N209 N 0.81032 0.40279 0.69587 0.0
C210 C 0.90667 0.45017 0.58946 0.0
C211 C 0.84111 0.41989 0.65985 0.0
N212 N 0.93561 0.47644 0.69791 0.0
N213 N 0.81192 0.4027 0.54802 0.0
H214 H 0.80884 0.40453 0.74974 0.0
H215 H 0.78652 0.38517 0.67351 0.0
H216 H 0.81175 0.40013 0.49408 0.0
H217 H 0.78721 0.39452 0.56864 0.0
H218 H 0.95974 0.49229 0.67452 0.0
H219 H 0.93612 0.47975 0.75166 0.0
H220 H 0.9616 0.47015 0.58131 0.0
H221 H 0.93972 0.45848 0.50241 0.0
C222 C 0.4279 0.83426 0.75174 0.0
C223 C 0.45339 0.86621 0.7218 0.0
C224 C 0.46549 0.89516 0.8347 0.0
C225 C 0.44153 0.86275 0.86545 0.0
N226 N 0.4025 0.80077 0.85715 0.0
N227 N 0.49934 0.92599 0.73335 0.0
C228 C 0.42335 0.83203 0.82505 0.0
C229 C 0.47316 0.89631 0.76298 0.0
N230 N 0.40764 0.80644 0.70979 0.0
N231 N 0.47941 0.92515 0.8733 0.0
H232 H 0.50418 0.92858 0.68002 0.0
H233 H 0.51767 0.94729 0.76179 0.0
H234 H 0.47447 0.92558 0.92621 0.0
H235 H 0.49368 0.95005 0.85213 0.0
H236 H 0.386 0.78362 0.72719 0.0
H237 H 0.41127 0.80692 0.65609 0.0
H238 H 0.39102 0.77683 0.83174 0.0
H239 H 0.39838 0.79844 0.91078 0.0
C240 C 0.58552 0.45947 0.99184 0.0
C241 C 0.58091 0.42793 0.0205 0.0
C242 C 0.59212 0.41087 0.90673 0.0
C243 C 0.6 0.44404 0.8806 0.0
N244 N 0.6156 0.50383 0.90552 0.0
N245 N 0.58676 0.37657 0.00908 0.0
C246 C 0.60056 0.4697 0.92543 0.0
C247 C 0.58605 0.40425 0.97909 0.0
N248 N 0.5738 0.47882 0.02627 0.0
N249 N 0.5907 0.38594 0.86263 0.0
H250 H 0.58348 0.37155 0.06231 0.0
H251 H 0.59359 0.36033 0.98225 0.0
H252 H 0.5976 0.39084 0.81023 0.0
H253 H 0.58108 0.36005 0.87733 0.0
H254 H 0.57379 0.50032 0.00393 0.0
H255 H 0.56024 0.47104 0.07333 0.0
H256 H 0.61903 0.52363 0.93965 0.0
H257 H 0.62786 0.51302 0.85771 0.0
C258 C 0.16381 0.62037 0.19274 0.0
C259 C 0.18049 0.60288 0.22131 0.0
C260 C 0.19788 0.59543 0.10424 0.0
C261 C 0.17365 0.60464 0.07641 0.0
N262 N 0.13164 0.62421 0.09553 0.0
N263 N 0.22734 0.59059 0.20709 0.0
C264 C 0.15646 0.61715 0.12081 0.0
C265 C 0.20173 0.59521 0.1777 0.0
N266 N 0.15742 0.64222 0.23257 0.0
N267 N 0.21674 0.58659 0.06051 0.0
H268 H 0.23235 0.59365 0.26039 0.0
H269 H 0.24574 0.58732 0.1792 0.0
H270 H 0.21707 0.58971 0.00673 0.0
H271 H 0.23163 0.57561 0.07689 0.0
H272 H 0.14745 0.65737 0.21229 0.0
H273 H 0.16774 0.65001 0.28222 0.0
H274 H 0.11557 0.62918 0.12775 0.0
H275 H 0.12472 0.6221 0.04334 0.0
C276 C 0.51798 0.28403 0.0727 0.0
C277 C 0.52047 0.28917 0.1459 0.0
C278 C 0.51949 0.23338 0.16153 0.0
C279 C 0.52123 0.23037 0.08814 0.0
N280 N 0.52401 0.25333 0.97338 0.0
N281 N 0.52534 0.27017 0.2605 0.0
C282 C 0.52081 0.25578 0.04359 0.0
C283 C 0.52152 0.26411 0.19045 0.0
N284 N 0.51283 0.30614 0.03098 0.0
N285 N 0.51589 0.20687 0.20371 0.0
H286 H 0.52484 0.29124 0.28388 0.0
H287 H 0.53087 0.25553 0.29528 0.0
H288 H 0.51528 0.18444 0.18511 0.0
H289 H 0.51082 0.20567 0.25678 0.0
H290 H 0.50727 0.30197 0.97816 0.0
H291 H 0.5117 0.32766 0.04997 0.0
H292 H 0.52846 0.27309 0.93841 0.0
H293 H 0.52402 0.23199 0.95006 0.0
C294 C 0.27223 0.51444 0.2207 0.0
C295 C 0.30358 0.52623 0.2588 0.0
C296 C 0.27504 0.53355 0.36236 0.0
C297 C 0.24514 0.526 0.32206 0.0
N298 N 0.21756 0.51444 0.20893 0.0
N299 N 0.33663 0.55141 0.36356 0.0
C300 C 0.24415 0.5175 0.25024 0.0
C301 C 0.30551 0.5371 0.32895 0.0
N302 N 0.26923 0.50023 0.15619 0.0
N303 N 0.27382 0.53574 0.43312 0.0
H304 H 0.35933 0.55387 0.34153 0.0
H305 H 0.34066 0.56339 0.41194 0.0
H306 H 0.25156 0.53188 0.45984 0.0
H307 H 0.29347 0.53766 0.46591 0.0
H308 H 0.24574 0.4875 0.12903 0.0
H309 H 0.28963 0.49867 0.13206 0.0
H310 H 0.21762 0.51233 0.15502 0.0
H311 H 0.19702 0.51759 0.22703 0.0
C312 C 0.74113 0.24012 0.41372 0.0
C313 C 0.737 0.23764 0.48727 0.0
C314 C 0.7902 0.29474 0.50003 0.0
C315 C 0.795 0.29667 0.42671 0.0
N316 N 0.77879 0.26918 0.31453 0.0
N317 N 0.76062 0.25911 0.60098 0.0
C318 C 0.77157 0.26867 0.38382 0.0
C319 C 0.76242 0.26401 0.53055 0.0
N320 N 0.71515 0.21612 0.37223 0.0
N321 N 0.81152 0.32279 0.54042 0.0
H322 H 0.7408 0.23688 0.62504 0.0
H323 H 0.78021 0.27548 0.63517 0.0
H324 H 0.83309 0.345 0.52071 0.0
H325 H 0.80668 0.32505 0.59262 0.0
H326 H 0.71441 0.21875 0.31859 0.0
H327 H 0.69275 0.19462 0.39175 0.0
H328 H 0.76497 0.24806 0.28144 0.0
H329 H 0.80054 0.2899 0.29098 0.0
C330 C 0.51783 0.7868 0.65303 0.0
C331 C 0.50701 0.78625 0.58313 0.0
C332 C 0.49474 0.72576 0.57107 0.0
C333 C 0.50718 0.72696 0.6397 0.0
N334 N 0.53659 0.76037 0.74141 0.0
N335 N 0.49219 0.75807 0.47128 0.0
C336 C 0.52082 0.75815 0.67903 0.0
C337 C 0.49744 0.75649 0.54092 0.0
N338 N 0.52307 0.81361 0.69612 0.0
N339 N 0.47982 0.69506 0.53496 0.0
H340 H 0.49474 0.78037 0.44718 0.0
H341 H 0.48862 0.73862 0.43619 0.0
H342 H 0.47886 0.67249 0.55373 0.0
H343 H 0.46643 0.69128 0.48837 0.0
H344 H 0.52698 0.81351 0.74945 0.0
H345 H 0.52048 0.83475 0.68007 0.0
H346 H 0.55049 0.78356 0.76902 0.0
H347 H 0.53824 0.73956 0.76297 0.0
C348 C 0.74171 0.5094 0.81823 0.0
C349 C 0.73533 0.5038 0.74555 0.0
C350 C 0.7875 0.49756 0.73269 0.0
C351 C 0.79429 0.50402 0.80492 0.0
N352 N 0.78237 0.52277 0.91389 0.0
N353 N 0.7555 0.49946 0.6316 0.0
C354 C 0.77282 0.51215 0.84678 0.0
C355 C 0.75928 0.49994 0.70218 0.0
N356 N 0.7171 0.51 0.86074 0.0
N357 N 0.8073 0.48794 0.6937 0.0
H358 H 0.7353 0.50141 0.60773 0.0
H359 H 0.77389 0.50021 0.59658 0.0
H360 H 0.82907 0.48746 0.71342 0.0
H361 H 0.80109 0.47852 0.64309 0.0
H362 H 0.71813 0.50955 0.91476 0.0
H363 H 0.69409 0.50829 0.84243 0.0
H364 H 0.76998 0.53259 0.94524 0.0
H365 H 0.80475 0.52462 0.93644 0.0
C366 C 0.23953 0.73817 -0.00677 0.0
C367 C 0.23793 0.73054 0.92091 0.0
C368 C 0.29601 0.78222 0.9042 0.0
C369 C 0.29738 0.78989 0.97623 0.0
N370 N 0.26802 0.78014 0.08625 0.0
N371 N 0.26091 0.74886 0.80551 0.0
C372 C 0.26826 0.76944 0.01965 0.0
C373 C 0.26509 0.75373 0.87577 0.0
N374 N 0.21484 0.71455 0.03756 0.0
N375 N 0.32478 0.80136 0.86348 0.0
H376 H 0.23846 0.72848 0.78329 0.0
H377 H 0.27807 0.76652 0.76912 0.0
H378 H 0.34715 0.82331 0.8817 0.0
H379 H 0.32732 0.79454 0.81288 0.0
H380 H 0.21705 0.71634 0.09147 0.0
H381 H 0.19308 0.69164 0.02098 0.0
H382 H 0.24621 0.76854 0.11866 0.0
H383 H 0.28879 0.80273 0.10714 0.0
C384 C 0.59587 0.13115 0.76935 0.0
C385 C 0.62336 0.16304 0.74338 0.0
C386 C 0.61487 0.19436 0.8403 0.0
C387 C 0.58483 0.16287 0.86148 0.0
N388 N 0.54404 0.10207 0.84156 0.0
N389 N 0.65816 0.22557 0.75035 0.0
C390 C 0.57452 0.13147 0.82456 0.0
C391 C 0.63284 0.19482 0.7782 0.0
N392 N 0.59105 0.10048 0.74254 0.0
N393 N 0.62623 0.22382 0.87962 0.0
H394 H 0.67294 0.22668 0.70698 0.0
H395 H 0.66343 0.25 0.76787 0.0
H396 H 0.6125 0.2252 0.92263 0.0
H397 H 0.65013 0.24642 0.87198 0.0
H398 H 0.57346 0.07604 0.76262 0.0
H399 H 0.6077 0.09993 0.70478 0.0
H400 H 0.53323 0.07922 0.81236 0.0
H401 H 0.52795 0.10152 0.88178 0.0
C402 C 0.47218 0.61887 0.94997 0.0
C403 C 0.45561 0.60635 0.88483 0.0
C404 C 0.40866 0.55598 0.94541 0.0
C405 C 0.42184 0.57204 0.01071 0.0
N406 N 0.45956 0.62804 0.06676 0.0
N407 N 0.39918 0.56934 0.82947 0.0
C408 C 0.45168 0.60629 0.01098 0.0
C409 C 0.42116 0.57674 0.88471 0.0
N410 N 0.50716 0.64167 0.95531 0.0
N411 N 0.38526 0.52122 0.93965 0.0
H412 H 0.40418 0.58668 0.78865 0.0
H413 H 0.3735 0.54867 0.83036 0.0
H414 H 0.37807 0.50386 0.98108 0.0
H415 H 0.37699 0.50907 0.89139 0.0
H416 H 0.51955 0.64947 0.00345 0.0
H417 H 0.52438 0.64865 0.91357 0.0
H418 H 0.48046 0.65357 0.06599 0.0
H419 H 0.44236 0.62308 0.10801 0.0
C420 C 0.88272 0.4696 0.10984 0.0
C421 C 0.855 0.451 0.06268 0.0
C422 C 0.83134 0.39978 0.14005 0.0
C423 C 0.86193 0.41696 0.18139 0.0
N424 N 0.92045 0.46489 0.1941 0.0
N425 N 0.8026 0.39786 0.03135 0.0
C426 C 0.8885 0.45109 0.16342 0.0
C427 C 0.82927 0.41583 0.07725 0.0
N428 N 0.90376 0.50485 0.10385 0.0
N429 N 0.80361 0.36905 0.16225 0.0
H430 H 0.79796 0.40969 0.98892 0.0
H431 H 0.78585 0.37101 0.03393 0.0
H432 H 0.80401 0.35651 0.20784 0.0
H433 H 0.7792 0.35727 0.13848 0.0
H434 H 0.9219 0.51987 0.14177 0.0
H435 H 0.90128 0.51958 0.0644 0.0
H436 H 0.94202 0.48839 0.17887 0.0
H437 H 0.92631 0.45017 0.22772 0.0
C438 C 0.44602 0.88446 0.33234 0.0
C439 C 0.45275 0.8573 0.35127 0.0
C440 C 0.41975 0.82379 0.24924 0.0
C441 C 0.41185 0.85051 0.23255 0.0
N442 N 0.40925 0.90137 0.2699 0.0
N443 N 0.43971 0.79778 0.33605 0.0
C444 C 0.42212 0.87913 0.27807 0.0
C445 C 0.43794 0.826 0.31191 0.0
N446 N 0.46435 0.91634 0.36309 0.0
N447 N 0.40956 0.79605 0.20535 0.0
H448 H 0.45244 0.79816 0.38189 0.0
H449 H 0.42613 0.77307 0.31389 0.0
H450 H 0.39285 0.79138 0.16336 0.0
H451 H 0.41858 0.77834 0.2091 0.0
H452 H 0.4633 0.93831 0.34684 0.0
H453 H 0.48393 0.92166 0.39893 0.0
H454 H 0.41298 0.92031 0.30651 0.0
H455 H 0.39248 0.89922 0.22982 0.0
C456 C 0.59603 0.41064 0.50474 0.0
C457 C 0.61064 0.44745 0.51088 0.0
C458 C 0.60342 0.45032 0.38621 0.0
C459 C 0.58081 0.41337 0.38262 0.0
N460 N 0.55876 0.35773 0.44141 0.0
N461 N 0.62065 0.50113 0.45741 0.0
C462 C 0.57751 0.39331 0.44313 0.0
C463 C 0.61177 0.4669 0.4518 0.0
N464 N 0.60237 0.39248 0.55478 0.0
N465 N 0.62029 0.46959 0.3289 0.0
H466 H 0.62557 0.51405 0.50494 0.0
H467 H 0.61912 0.51524 0.41537 0.0
H468 H 0.62312 0.45849 0.28344 0.0
H469 H 0.63764 0.49637 0.3313 0.0
H470 H 0.59515 0.36626 0.54992 0.0
H471 H 0.6187 0.40434 0.59715 0.0
H472 H 0.55079 0.34252 0.48634 0.0
H473 H 0.55142 0.34331 0.39564 0.0
C474 C 0.13594 0.55619 0.60726 0.0
C475 C 0.16791 0.56101 0.57995 0.0
C476 C 0.19939 0.59925 0.67836 0.0
C477 C 0.16779 0.59745 0.7011 0.0
N478 N 0.10659 0.57726 0.68351 0.0
N479 N 0.23059 0.58847 0.58601 0.0
C480 C 0.13621 0.57677 0.66444 0.0
C481 C 0.19979 0.58267 0.61496 0.0
N482 N 0.10523 0.53103 0.57956 0.0
N483 N 0.22905 0.6169 0.71733 0.0
H484 H 0.23169 0.57546 0.54162 0.0
H485 H 0.25509 0.6073 0.60369 0.0
H486 H 0.23049 0.63136 0.76133 0.0
H487 H 0.25178 0.6158 0.70841 0.0
H488 H 0.08072 0.52374 0.60035 0.0
H489 H 0.10472 0.51484 0.53977 0.0
H490 H 0.08359 0.56567 0.65471 0.0
H491 H 0.10587 0.59172 0.72556 0.0
C492 C 0.4676 0.02384 0.99217 0.0
C493 C 0.49204 0.04535 0.04299 0.0
C494 C 0.47125 0.99466 0.12051 0.0
C495 C 0.45247 0.97218 0.06471 0.0
N496 N 0.43389 0.96548 0.94475 0.0
N497 N 0.51814 0.05118 0.15596 0.0
C498 C 0.45026 0.98676 9e-05 0.0
C499 C 0.49372 0.0308 0.10777 0.0
N500 N 0.46123 0.03884 0.93625 0.0
N501 N 0.46769 0.98122 0.18584 0.0
H502 H 0.53478 0.07787 0.14926 0.0
H503 H 0.52355 0.04132 0.20048 0.0
H504 H 0.45147 0.95479 0.19618 0.0
H505 H 0.47788 0.99647 0.2302 0.0
H506 H 0.44171 0.02482 0.89996 0.0
H507 H 0.47306 0.06583 0.93064 0.0
H508 H 0.43532 0.97472 0.89436 0.0
H509 H 0.42077 0.93837 0.94793 0.0
C510 C 0.46389 0.43287 0.13956 0.0
C511 C 0.4721 0.42958 0.2096 0.0
C512 C 0.43857 0.4567 0.25061 0.0
C513 C 0.43368 0.46354 0.18043 0.0
N514 N 0.43166 0.44942 0.05982 0.0
N515 N 0.45903 0.42804 0.33087 0.0
C516 C 0.44274 0.44825 0.12548 0.0
C517 C 0.45632 0.43782 0.26486 0.0
N518 N 0.47834 0.42355 0.08666 0.0
N519 N 0.42871 0.47066 0.30339 0.0
H520 H 0.47206 0.41425 0.34154 0.0
H521 H 0.44603 0.43074 0.37357 0.0
H522 H 0.41448 0.48329 0.29468 0.0
H523 H 0.43546 0.47077 0.35523 0.0
H524 H 0.47707 0.4291 0.03455 0.0
H525 H 0.49286 0.41112 0.09528 0.0
H526 H 0.43508 0.43685 0.01728 0.0
H527 H 0.41617 0.46071 0.04958 0.0
C528 C 0.04257 0.47569 0.31101 0.0
C529 C 0.05554 0.47672 0.37889 0.0
C530 C 0.99642 0.43628 0.42055 0.0
C531 C 0.98316 0.43834 0.35465 0.0
N532 N 0.99308 0.44812 0.23217 0.0
N533 N 0.04757 0.44861 0.48938 0.0
C534 C 1.00625 0.45404 0.29801 0.0
C535 C 0.03328 0.45371 0.43083 0.0
N536 N 0.0647 0.49673 0.26018 0.0
N537 N 0.97382 0.4194 0.47399 0.0
H538 H 0.07456 0.45981 0.49512 0.0
H539 H 0.03309 0.43062 0.52792 0.0
H540 H 0.94681 0.40519 0.46698 0.0
H541 H 0.98166 0.42052 0.52538 0.0
H542 H 0.05631 0.50036 0.21196 0.0
H543 H 0.09167 0.51168 0.26746 0.0
H544 H 1.00848 0.45696 0.18758 0.0
H545 H 0.96667 0.43094 0.22252 0.0
C546 C 0.56576 0.99989 0.46514 0.0
C547 C 0.55882 0.97687 0.52161 0.0
C548 C 0.59608 0.02653 0.5967 0.0
C549 C 0.59552 0.04915 0.54531 0.0
N550 N 0.58567 0.05928 0.42677 0.0
N551 N 0.57243 0.96675 0.63722 0.0
C552 C 0.58276 0.03642 0.47771 0.0
C553 C 0.57623 0.98974 0.58595 0.0
N554 N 0.55585 0.98639 0.39991 0.0
N555 N 0.61556 0.04049 0.65521 0.0
H556 H 0.55983 0.9399 0.62872 0.0
H557 H 0.58118 0.97394 0.68795 0.0
H558 H 0.63142 0.06738 0.66128 0.0
H559 H 0.61863 0.02594 0.69422 0.0
H560 H 0.56139 1.00137 0.35503 0.0
H561 H 0.54479 0.9597 0.39048 0.0
H562 H 0.57357 0.05178 0.37852 0.0
H563 H 0.59994 0.08625 0.43372 0.0
C564 C 0.57529 0.54524 0.76226 0.0
C565 C 0.58866 0.54554 0.69478 0.0
C566 C 0.57572 0.59134 0.6592 0.0
C567 C 0.56031 0.58911 0.72549 0.0
N568 N 0.55799 0.57497 0.84616 0.0
N569 N 0.61031 0.57485 0.58559 0.0
C570 C 0.56502 0.57012 0.77924 0.0
C571 C 0.59207 0.57089 0.64554 0.0
N572 N 0.56975 0.51949 0.80839 0.0
N573 N 0.5728 0.61121 0.60825 0.0
H574 H 0.62212 0.55991 0.5749 0.0
H575 H 0.61618 0.59461 0.54958 0.0
H576 H 0.56358 0.6284 0.61812 0.0
H577 H 0.57897 0.61032 0.5563 0.0
H578 H 0.55657 0.51575 0.85539 0.0
H579 H 0.57584 0.50003 0.79725 0.0
H580 H 0.56335 0.56391 0.8889 0.0
H581 H 0.55012 0.59307 0.85865 0.0
C582 C 0.03104 0.57781 0.83505 0.0
C583 C 0.05227 0.57475 0.88657 0.0
C584 C 1.00069 0.54316 0.96144 0.0
C585 C 0.97872 0.53944 0.90448 0.0
N586 N 0.97299 0.55381 0.78574 0.0
N587 N 0.05789 0.55551 0.00068 0.0
C588 C 0.99384 0.55764 0.84131 0.0
C589 C 0.03729 0.55826 0.95087 0.0
N590 N 0.04649 0.59977 0.78015 0.0
N591 N 0.98625 0.53193 0.02571 0.0
H592 H 0.08496 0.56723 -0.00413 0.0
H593 H 0.0481 0.54008 0.04498 0.0
H594 H 0.95948 0.52072 0.03424 0.0
H595 H 1.00077 0.53666 0.07106 0.0
H596 H 0.03273 0.60541 0.74332 0.0
H597 H 0.07357 0.6152 0.77584 0.0
H598 H 0.9826 0.56257 0.73591 0.0
H599 H 0.94581 0.54012 0.78819 0.0
loop_
_geom_bond_atom_site_label_1
_geom_bond_atom_site_label_2
_geom_bond_distance
_geom_bond_site_symmetry_2
_ccdc_geom_bond_type
Co0 O1 2.216 . S
Co0 O2 2.091 . S
Co0 O4 2.004 . S
Co0 O10 2.021 . S
Co0 O12 2.137 1_554 S
Co0 O13 2.244 1_554 S
O1 Co0 2.216 . S
O1 C8 1.247 . S
O2 Co0 2.091 . S
O2 C8 1.261 . S
C3 O12 1.247 . S
C3 O13 1.272 . S
O4 Co0 2.004 . S
O4 C9 1.259 . S
Co5 O6 2.061 . S
Co5 O11 2.052 . S
Co5 O13 2.135 1_554 S
O6 Co5 2.061 . S
O6 C9 1.235 . S
C7 O10 1.238 . S
C7 O11 1.241 . S
C8 O1 1.247 . S
C8 O2 1.261 . S
C9 O4 1.259 . S
C9 O6 1.235 . S
O10 Co0 2.021 . S
O10 C7 1.238 . S
O11 Co5 2.052 . S
O11 C7 1.241 . S
O12 Co0 2.137 1_556 S
O12 C3 1.247 . S
O13 Co0 2.244 1_556 S
O13 C3 1.272 . S
O13 Co5 2.135 1_556 S
Co14 O15 2.216 . S
Co14 O16 2.091 . S
Co14 O18 2.004 . S
Co14 O24 2.021 . S
Co14 O26 2.137 . S
Co14 O27 2.244 . S
O15 Co14 2.216 . S
O15 C22 1.247 . S
O16 Co14 2.091 . S
O16 C22 1.261 . S
C17 O26 1.247 . S
C17 O27 1.272 . S
O18 Co14 2.004 . S
O18 C23 1.259 . S
Co19 O20 2.061 . S
Co19 O25 2.052 . S
Co19 O27 2.135 . S
O20 Co19 2.061 . S
O20 C23 1.235 . S
C21 O24 1.238 . S
C21 O25 1.241 . S
C22 O15 1.247 . S
C22 O16 1.261 . S
C23 O18 1.259 . S
C23 O20 1.235 . S
O24 Co14 2.021 . S
O24 C21 1.238 . S
O25 Co19 2.052 . S
O25 C21 1.241 . S
O26 Co14 2.137 . S
O26 C17 1.247 . S
O27 Co14 2.244 . S
O27 C17 1.272 . S
O27 Co19 2.135 . S
Co28 O29 2.216 . S
Co28 O30 2.091 . S
Co28 O32 2.004 . S
Co28 O38 2.021 . S
Co28 O40 2.137 . S
Co28 O41 2.244 . S
O29 Co28 2.216 . S
O29 C36 1.247 . S
O30 Co28 2.091 . S
O30 C36 1.261 . S
C31 O40 1.247 . S
C31 O41 1.272 . S
O32 Co28 2.004 . S
O32 C37 1.259 . S
Co33 O34 2.061 . S
Co33 O39 2.052 . S
Co33 O41 2.135 . S
O34 Co33 2.061 . S
O34 C37 1.235 . S
C35 O38 1.238 . S
C35 O39 1.241 . S
C36 O29 1.247 . S
C36 O30 1.261 . S
C37 O32 1.259 . S
C37 O34 1.235 . S
O38 Co28 2.021 . S
O38 C35 1.238 . S
O39 Co33 2.052 . S
O39 C35 1.241 . S
O40 Co28 2.137 . S
O40 C31 1.247 . S
O41 Co28 2.244 . S
O41 C31 1.272 . S
O41 Co33 2.135 . S
Co42 O43 2.216 . S
Co42 O44 2.091 . S
Co42 O46 2.004 . S
Co42 O52 2.021 . S
Co42 O54 2.137 . S
Co42 O55 2.244 . S
O43 Co42 2.216 . S
O43 C50 1.247 . S
O44 Co42 2.091 . S
O44 C50 1.261 . S
C45 O54 1.247 . S
C45 O55 1.272 . S
O46 Co42 2.004 . S
O46 C51 1.259 . S
Co47 O48 2.061 . S
Co47 O53 2.052 . S
Co47 O55 2.135 . S
O48 Co47 2.061 . S
O48 C51 1.235 . S
C49 O52 1.238 . S
C49 O53 1.241 . S
C50 O43 1.247 . S
C50 O44 1.261 . S
C51 O46 1.259 . S
C51 O48 1.235 . S
O52 Co42 2.021 . S
O52 C49 1.238 . S
O53 Co47 2.052 . S
O53 C49 1.241 . S
O54 Co42 2.137 . S
O54 C45 1.247 . S
O55 Co42 2.244 . S
O55 C45 1.272 . S
O55 Co47 2.135 . S
Co56 O57 2.216 . S
Co56 O58 2.091 . S
Co56 O60 2.004 . S
Co56 O66 2.021 . S
Co56 O68 2.137 . S
Co56 O69 2.244 . S
O57 Co56 2.216 . S
O57 C64 1.247 . S
O58 Co56 2.091 . S
O58 C64 1.261 . S
C59 O68 1.247 . S
C59 O69 1.272 . S
O60 Co56 2.004 . S
O60 C65 1.259 . S
Co61 O62 2.061 . S
Co61 O67 2.052 . S
Co61 O69 2.135 . S
O62 Co61 2.061 . S
O62 C65 1.235 . S
C63 O66 1.238 . S
C63 O67 1.241 . S
C64 O57 1.247 . S
C64 O58 1.261 . S
C65 O60 1.259 . S
C65 O62 1.235 . S
O66 Co56 2.021 . S
O66 C63 1.238 . S
O67 Co61 2.052 . S
O67 C63 1.241 . S
O68 Co56 2.137 . S
O68 C59 1.247 . S
O69 Co56 2.244 . S
O69 C59 1.272 . S
O69 Co61 2.135 . S
Co70 O71 2.216 . S
Co70 O72 2.091 . S
Co70 O74 2.004 . S
Co70 O80 2.021 . S
Co70 O82 2.137 . S
Co70 O83 2.244 . S
O71 Co70 2.216 . S
O71 C78 1.247 . S
O72 Co70 2.091 . S
O72 C78 1.261 . S
C73 O82 1.247 . S
C73 O83 1.272 . S
O74 Co70 2.004 . S
O74 C79 1.259 . S
Co75 O76 2.061 . S
Co75 O81 2.052 . S
Co75 O83 2.135 . S
O76 Co75 2.061 . S
O76 C79 1.235 . S
C77 O80 1.238 1_554 S
C77 O81 1.241 1_554 S
C78 O71 1.247 . S
C78 O72 1.261 . S
C79 O74 1.259 . S
C79 O76 1.235 . S
O80 Co70 2.021 . S
O80 C77 1.238 1_556 S
O81 Co75 2.052 . S
O81 C77 1.241 1_556 S
O82 Co70 2.137 . S
O82 C73 1.247 . S
O83 Co70 2.244 . S
O83 C73 1.272 . S
O83 Co75 2.135 . S
Co84 O85 2.216 . S
Co84 O86 2.091 . S
Co84 O88 2.004 . S
Co84 O94 2.021 . S
Co84 O96 2.137 . S
Co84 O97 2.244 . S
O85 Co84 2.216 . S
O85 C92 1.247 . S
O86 Co84 2.091 . S
O86 C92 1.261 . S
C87 O96 1.247 . S
C87 O97 1.272 . S
O88 Co84 2.004 . S
O88 C93 1.259 . S
Co89 O90 2.061 . S
Co89 O95 2.052 . S
Co89 O97 2.135 . S
O90 Co89 2.061 . S
O90 C93 1.235 . S
C91 O94 1.238 . S
C91 O95 1.241 . S
C92 O85 1.247 . S
C92 O86 1.261 . S
C93 O88 1.259 . S
C93 O90 1.235 . S
O94 Co84 2.021 . S
O94 C91 1.238 . S
O95 Co89 2.052 . S
O95 C91 1.241 . S
O96 Co84 2.137 . S
O96 C87 1.247 . S
O97 Co84 2.244 . S
O97 C87 1.272 . S
O97 Co89 2.135 . S
Co98 O99 2.216 . S
Co98 O100 2.091 . S
Co98 O102 2.004 . S
Co98 O108 2.021 1_554 S
Co98 O110 2.137 . S
Co98 O111 2.244 . S
O99 Co98 2.216 . S
O99 C106 1.247 . S
O100 Co98 2.091 . S
O100 C106 1.261 . S
C101 O110 1.247 . S
C101 O111 1.272 . S
O102 Co98 2.004 . S
O102 C107 1.259 . S
Co103 O104 2.061 . S
Co103 O109 2.052 1_554 S
Co103 O111 2.135 . S
O104 Co103 2.061 . S
O104 C107 1.235 . S
C105 O108 1.238 . S
C105 O109 1.241 . S
C106 O99 1.247 . S
C106 O100 1.261 . S
C107 O102 1.259 . S
C107 O104 1.235 . S
O108 Co98 2.021 1_556 S
O108 C105 1.238 . S
O109 Co103 2.052 1_556 S
O109 C105 1.241 . S
O110 Co98 2.137 . S
O110 C101 1.247 . S
O111 Co98 2.244 . S
O111 C101 1.272 . S
O111 Co103 2.135 . S
Co112 O113 2.216 . S
Co112 O114 2.091 . S
Co112 O116 2.004 . S
Co112 O122 2.021 . S
Co112 O124 2.137 . S
Co112 O125 2.244 . S
O113 Co112 2.216 . S
O113 C120 1.247 . S
O114 Co112 2.091 . S
O114 C120 1.261 . S
C115 O124 1.247 . S
C115 O125 1.272 . S
O116 Co112 2.004 . S
O116 C121 1.259 . S
Co117 O118 2.061 . S
Co117 O123 2.052 . S
Co117 O125 2.135 . S
O118 Co117 2.061 . S
O118 C121 1.235 . S
C119 O122 1.238 . S
C119 O123 1.241 . S
C120 O113 1.247 . S
C120 O114 1.261 . S
C121 O116 1.259 . S
C121 O118 1.235 . S
O122 Co112 2.021 . S
O122 C119 1.238 . S
O123 Co117 2.052 . S
O123 C119 1.241 . S
O124 Co112 2.137 . S
O124 C115 1.247 . S
O125 Co112 2.244 . S
O125 C115 1.272 . S
O125 Co117 2.135 . S
Co126 O127 2.216 . S
Co126 O128 2.091 . S
Co126 O130 2.004 . S
Co126 O136 2.021 . S
Co126 O138 2.137 . S
Co126 O139 2.244 . S
O127 Co126 2.216 . S
O127 C134 1.247 . S
O128 Co126 2.091 . S
O128 C134 1.261 . S
C129 O138 1.247 . S
C129 O139 1.272 . S
O130 Co126 2.004 . S
O130 C135 1.259 . S
Co131 O132 2.061 . S
Co131 O137 2.052 . S
Co131 O139 2.135 . S
O132 Co131 2.061 . S
O132 C135 1.235 . S
C133 O136 1.238 . S
C133 O137 1.241 . S
C134 O127 1.247 . S
C134 O128 1.261 . S
C135 O130 1.259 . S
C135 O132 1.235 . S
O136 Co126 2.021 . S
O136 C133 1.238 . S
O137 Co131 2.052 . S
O137 C133 1.241 . S
O138 Co126 2.137 . S
O138 C129 1.247 . S
O139 Co126 2.244 . S
O139 C129 1.272 . S
O139 Co131 2.135 . S
Co140 O141 2.216 . S
Co140 O142 2.091 . S
Co140 O144 2.004 . S
Co140 O150 2.021 . S
Co140 O152 2.137 . S
Co140 O153 2.244 . S
O141 Co140 2.216 . S
O141 C148 1.247 . S
O142 Co140 2.091 . S
O142 C148 1.261 . S
C143 O152 1.247 . S
C143 O153 1.272 . S
O144 Co140 2.004 . S
O144 C149 1.259 . S
Co145 O146 2.061 . S
Co145 O151 2.052 . S
Co145 O153 2.135 . S
O146 Co145 2.061 . S
O146 C149 1.235 . S
C147 O150 1.238 . S
C147 O151 1.241 . S
C148 O141 1.247 . S
C148 O142 1.261 . S
C149 O144 1.259 . S
C149 O146 1.235 . S
O150 Co140 2.021 . S
O150 C147 1.238 . S
O151 Co145 2.052 . S
O151 C147 1.241 . S
O152 Co140 2.137 . S
O152 C143 1.247 . S
O153 Co140 2.244 . S
O153 C143 1.272 . S
O153 Co145 2.135 . S
Co154 O155 2.216 . S
Co154 O156 2.091 . S
Co154 O158 2.004 . S
Co154 O164 2.021 . S
Co154 O166 2.137 . S
Co154 O167 2.244 . S
O155 Co154 2.216 . S
O155 C162 1.247 . S
O156 Co154 2.091 . S
O156 C162 1.261 . S
C157 O166 1.247 . S
C157 O167 1.272 . S
O158 Co154 2.004 . S
O158 C163 1.259 . S
Co159 O160 2.061 . S
Co159 O165 2.052 . S
Co159 O167 2.135 . S
O160 Co159 2.061 . S
O160 C163 1.235 . S
C161 O164 1.238 . S
C161 O165 1.241 . S
C162 O155 1.247 . S
C162 O156 1.261 . S
C163 O158 1.259 . S
C163 O160 1.235 . S
O164 Co154 2.021 . S
O164 C161 1.238 . S
O165 Co159 2.052 . S
O165 C161 1.241 . S
O166 Co154 2.137 . S
O166 C157 1.247 . S
O167 Co154 2.244 . S
O167 C157 1.272 . S
O167 Co159 2.135 . S
C168 C169 1.363 . S
C168 C174 1.379 . S
C168 N176 1.356 . S
C169 C168 1.363 . S
C169 C175 1.363 . S
C170 C171 1.363 . S
C170 C175 1.379 . S
C170 N177 1.356 . S
C171 C170 1.363 . S
C171 C174 1.363 . S
N172 C174 1.356 . S
N172 H184 0.984 . S
N172 H185 0.985 . S
N173 C175 1.356 . S
N173 H178 0.984 . S
N173 H179 0.985 . S
C174 C168 1.379 . S
C174 C171 1.363 . S
C174 N172 1.356 . S
C175 C169 1.363 . S
C175 C170 1.379 . S
C175 N173 1.356 . S
N176 C168 1.356 . S
N176 H182 0.984 . S
N176 H183 0.984 . S
N177 C170 1.356 . S
N177 H180 0.984 . S
N177 H181 0.985 . S
H178 N173 0.984 . S
H179 N173 0.985 . S
H180 N177 0.984 . S
H181 N177 0.985 . S
H182 N176 0.984 . S
H183 N176 0.984 . S
H184 N172 0.984 . S
H185 N172 0.985 . S
C186 C187 1.363 . S
C186 C192 1.379 . S
C186 N194 1.356 . S
C187 C186 1.363 . S
C187 C193 1.363 . S
C188 C189 1.363 . S
C188 C193 1.379 . S
C188 N195 1.356 . S
C189 C188 1.363 . S
C189 C192 1.363 . S
N190 C192 1.356 . S
N190 H202 0.984 . S
N190 H203 0.985 . S
N191 C193 1.356 . S
N191 H196 0.984 . S
N191 H197 0.985 . S
C192 C186 1.379 . S
C192 C189 1.363 . S
C192 N190 1.356 . S
C193 C187 1.363 . S
C193 C188 1.379 . S
C193 N191 1.356 . S
N194 C186 1.356 . S
N194 H200 0.984 . S
N194 H201 0.984 . S
N195 C188 1.356 . S
N195 H198 0.984 . S
N195 H199 0.985 . S
H196 N191 0.984 . S
H197 N191 0.985 . S
H198 N195 0.984 . S
H199 N195 0.985 . S
H200 N194 0.984 . S
H201 N194 0.984 . S
H202 N190 0.984 . S
H203 N190 0.985 . S
C204 C205 1.363 . S
C204 C210 1.379 . S
C204 N212 1.356 . S
C205 C204 1.363 . S
C205 C211 1.363 . S
C206 C207 1.363 . S
C206 C211 1.379 . S
C206 N213 1.356 . S
C207 C206 1.363 . S
C207 C210 1.363 . S
N208 C210 1.356 . S
N208 H220 0.984 . S
N208 H221 0.985 . S
N209 C211 1.356 . S
N209 H214 0.984 . S
N209 H215 0.985 . S
C210 C204 1.379 . S
C210 C207 1.363 . S
C210 N208 1.356 . S
C211 C205 1.363 . S
C211 C206 1.379 . S
C211 N209 1.356 . S
N212 C204 1.356 . S
N212 H218 0.984 . S
N212 H219 0.984 . S
N213 C206 1.356 . S
N213 H216 0.984 . S
N213 H217 0.985 . S
H214 N209 0.984 . S
H215 N209 0.985 . S
H216 N213 0.984 . S
H217 N213 0.985 . S
H218 N212 0.984 . S
H219 N212 0.984 . S
H220 N208 0.984 . S
H221 N208 0.985 . S
C222 C223 1.363 . S
C222 C228 1.379 . S
C222 N230 1.356 . S
C223 C222 1.363 . S
C223 C229 1.363 . S
C224 C225 1.363 . S
C224 C229 1.379 . S
C224 N231 1.356 . S
C225 C224 1.363 . S
C225 C228 1.363 . S
N226 C228 1.356 . S
N226 H238 0.984 . S
N226 H239 0.985 . S
N227 C229 1.356 . S
N227 H232 0.984 . S
N227 H233 0.985 . S
C228 C222 1.379 . S
C228 C225 1.363 . S
C228 N226 1.356 . S
C229 C223 1.363 . S
C229 C224 1.379 . S
C229 N227 1.356 . S
N230 C222 1.356 . S
N230 H236 0.984 . S
N230 H237 0.984 . S
N231 C224 1.356 . S
N231 H234 0.984 . S
N231 H235 0.985 . S
H232 N227 0.984 . S
H233 N227 0.985 . S
H234 N231 0.984 . S
H235 N231 0.985 . S
H236 N230 0.984 . S
H237 N230 0.984 . S
H238 N226 0.984 . S
H239 N226 0.985 . S
C240 C241 1.363 . S
C240 C246 1.379 1_554 S
C240 N248 1.356 . S
C241 C240 1.363 . S
C241 C247 1.363 1_554 S
C242 C243 1.363 . S
C242 C247 1.379 . S
C242 N249 1.356 . S
C243 C242 1.363 . S
C243 C246 1.363 . S
N244 C246 1.356 . S
N244 H256 0.984 . S
N244 H257 0.985 . S
N245 C247 1.356 1_554 S
N245 H250 0.984 . S
N245 H251 0.985 . S
C246 C240 1.379 1_556 S
C246 C243 1.363 . S
C246 N244 1.356 . S
C247 C241 1.363 1_556 S
C247 C242 1.379 . S
C247 N245 1.356 1_556 S
N248 C240 1.356 . S
N248 H254 0.984 . S
N248 H255 0.984 . S
N249 C242 1.356 . S
N249 H252 0.984 . S
N249 H253 0.985 . S
H250 N245 0.984 . S
H251 N245 0.985 . S
H252 N249 0.984 . S
H253 N249 0.985 . S
H254 N248 0.984 . S
H255 N248 0.984 . S
H256 N244 0.984 . S
H257 N244 0.985 . S
C258 C259 1.363 . S
C258 C264 1.379 . S
C258 N266 1.356 . S
C259 C258 1.363 . S
C259 C265 1.363 . S
C260 C261 1.363 . S
C260 C265 1.379 . S
C260 N267 1.356 . S
C261 C260 1.363 . S
C261 C264 1.363 . S
N262 C264 1.356 . S
N262 H274 0.984 . S
N262 H275 0.985 . S
N263 C265 1.356 . S
N263 H268 0.984 . S
N263 H269 0.985 . S
C264 C258 1.379 . S
C264 C261 1.363 . S
C264 N262 1.356 . S
C265 C259 1.363 . S
C265 C260 1.379 . S
C265 N263 1.356 . S
N266 C258 1.356 . S
N266 H272 0.984 . S
N266 H273 0.984 . S
N267 C260 1.356 . S
N267 H270 0.984 1_554 S
N267 H271 0.985 1_554 S
H268 N263 0.984 . S
H269 N263 0.985 . S
H270 N267 0.984 1_556 S
H271 N267 0.985 1_556 S
H272 N266 0.984 . S
H273 N266 0.984 . S
H274 N262 0.984 . S
H275 N262 0.985 . S
C276 C277 1.363 . S
C276 C282 1.379 . S
C276 N284 1.356 . S
C277 C276 1.363 . S
C277 C283 1.363 . S
C278 C279 1.363 . S
C278 C283 1.379 . S
C278 N285 1.356 . S
C279 C278 1.363 . S
C279 C282 1.363 . S
N280 C282 1.356 1_556 S
N280 H292 0.984 . S
N280 H293 0.985 . S
N281 C283 1.356 . S
N281 H286 0.984 . S
N281 H287 0.985 . S
C282 C276 1.379 . S
C282 C279 1.363 . S
C282 N280 1.356 1_554 S
C283 C277 1.363 . S
C283 C278 1.379 . S
C283 N281 1.356 . S
N284 C276 1.356 . S
N284 H290 0.984 . S
N284 H291 0.984 . S
N285 C278 1.356 . S
N285 H288 0.984 . S
N285 H289 0.985 . S
H286 N281 0.984 . S
H287 N281 0.985 . S
H288 N285 0.984 . S
H289 N285 0.985 . S
H290 N284 0.984 . S
H291 N284 0.984 . S
H292 N280 0.984 . S
H293 N280 0.985 . S
C294 C295 1.363 . S
C294 C300 1.379 . S
C294 N302 1.356 . S
C295 C294 1.363 . S
C295 C301 1.363 . S
C296 C297 1.363 . S
C296 C301 1.379 . S
C296 N303 1.356 . S
C297 C296 1.363 . S
C297 C300 1.363 . S
N298 C300 1.356 . S
N298 H310 0.984 . S
N298 H311 0.985 . S
N299 C301 1.356 . S
N299 H304 0.984 . S
N299 H305 0.985 . S
C300 C294 1.379 . S
C300 C297 1.363 . S
C300 N298 1.356 . S
C301 C295 1.363 . S
C301 C296 1.379 . S
C301 N299 1.356 . S
N302 C294 1.356 . S
N302 H308 0.984 . S
N302 H309 0.984 . S
N303 C296 1.356 . S
N303 H306 0.984 . S
N303 H307 0.985 . S
H304 N299 0.984 . S
H305 N299 0.985 . S
H306 N303 0.984 . S
H307 N303 0.985 . S
H308 N302 0.984 . S
H309 N302 0.984 . S
H310 N298 0.984 . S
H311 N298 0.985 . S
C312 C313 1.363 . S
C312 C318 1.379 . S
C312 N320 1.356 . S
C313 C312 1.363 . S
C313 C319 1.363 . S
C314 C315 1.363 . S
C314 C319 1.379 . S
C314 N321 1.356 . S
C315 C314 1.363 . S
C315 C318 1.363 . S
N316 C318 1.356 . S
N316 H328 0.984 . S
N316 H329 0.985 . S
N317 C319 1.356 . S
N317 H322 0.984 . S
N317 H323 0.985 . S
C318 C312 1.379 . S
C318 C315 1.363 . S
C318 N316 1.356 . S
C319 C313 1.363 . S
C319 C314 1.379 . S
C319 N317 1.356 . S
N320 C312 1.356 . S
N320 H326 0.984 . S
N320 H327 0.984 . S
N321 C314 1.356 . S
N321 H324 0.984 . S
N321 H325 0.985 . S
H322 N317 0.984 . S
H323 N317 0.985 . S
H324 N321 0.984 . S
H325 N321 0.985 . S
H326 N320 0.984 . S
H327 N320 0.984 . S
H328 N316 0.984 . S
H329 N316 0.985 . S
C330 C331 1.363 . S
C330 C336 1.379 . S
C330 N338 1.356 . S
C331 C330 1.363 . S
C331 C337 1.363 . S
C332 C333 1.363 . S
C332 C337 1.379 . S
C332 N339 1.356 . S
C333 C332 1.363 . S
C333 C336 1.363 . S
N334 C336 1.356 . S
N334 H346 0.984 . S
N334 H347 0.985 . S
N335 C337 1.356 . S
N335 H340 0.984 . S
N335 H341 0.985 . S
C336 C330 1.379 . S
C336 C333 1.363 . S
C336 N334 1.356 . S
C337 C331 1.363 . S
C337 C332 1.379 . S
C337 N335 1.356 . S
N338 C330 1.356 . S
N338 H344 0.984 . S
N338 H345 0.984 . S
N339 C332 1.356 . S
N339 H342 0.984 . S
N339 H343 0.985 . S
H340 N335 0.984 . S
H341 N335 0.985 . S
H342 N339 0.984 . S
H343 N339 0.985 . S
H344 N338 0.984 . S
H345 N338 0.984 . S
H346 N334 0.984 . S
H347 N334 0.985 . S
C348 C349 1.363 . S
C348 C354 1.379 . S
C348 N356 1.356 . S
C349 C348 1.363 . S
C349 C355 1.363 . S
C350 C351 1.363 . S
C350 C355 1.379 . S
C350 N357 1.356 . S
C351 C350 1.363 . S
C351 C354 1.363 . S
N352 C354 1.356 . S
N352 H364 0.984 . S
N352 H365 0.985 . S
N353 C355 1.356 . S
N353 H358 0.984 . S
N353 H359 0.985 . S
C354 C348 1.379 . S
C354 C351 1.363 . S
C354 N352 1.356 . S
C355 C349 1.363 . S
C355 C350 1.379 . S
C355 N353 1.356 . S
N356 C348 1.356 . S
N356 H362 0.984 . S
N356 H363 0.984 . S
N357 C350 1.356 . S
N357 H360 0.984 . S
N357 H361 0.985 . S
H358 N353 0.984 . S
H359 N353 0.985 . S
H360 N357 0.984 . S
H361 N357 0.985 . S
H362 N356 0.984 . S
H363 N356 0.984 . S
H364 N352 0.984 . S
H365 N352 0.985 . S
C366 C367 1.363 . S
C366 C372 1.379 1_556 S
C366 N374 1.356 . S
C367 C366 1.363 . S
C367 C373 1.363 . S
C368 C369 1.362 1_556 S
C368 C373 1.379 . S
C368 N375 1.356 . S
C369 C368 1.362 1_554 S
C369 C372 1.363 . S
N370 C372 1.356 . S
N370 H382 0.984 . S
N370 H383 0.985 . S
N371 C373 1.356 . S
N371 H376 0.984 . S
N371 H377 0.985 . S
C372 C366 1.379 1_554 S
C372 C369 1.363 . S
C372 N370 1.356 . S
C373 C367 1.363 . S
C373 C368 1.379 . S
C373 N371 1.356 . S
N374 C366 1.356 . S
N374 H380 0.984 1_556 S
N374 H381 0.984 . S
N375 C368 1.356 . S
N375 H378 0.984 . S
N375 H379 0.985 . S
H376 N371 0.984 . S
H377 N371 0.985 . S
H378 N375 0.984 . S
H379 N375 0.985 . S
H380 N374 0.984 1_554 S
H381 N374 0.984 . S
H382 N370 0.984 . S
H383 N370 0.985 . S
C384 C385 1.363 . S
C384 C390 1.379 . S
C384 N392 1.356 . S
C385 C384 1.363 . S
C385 C391 1.363 . S
C386 C387 1.363 . S
C386 C391 1.379 . S
C386 N393 1.356 . S
C387 C386 1.363 . S
C387 C390 1.363 . S
N388 C390 1.356 . S
N388 H400 0.984 . S
N388 H401 0.985 . S
N389 C391 1.356 . S
N389 H394 0.984 . S
N389 H395 0.985 . S
C390 C384 1.379 . S
C390 C387 1.363 . S
C390 N388 1.356 . S
C391 C385 1.363 . S
C391 C386 1.379 . S
C391 N389 1.356 . S
N392 C384 1.356 . S
N392 H398 0.984 . S
N392 H399 0.984 . S
N393 C386 1.356 . S
N393 H396 0.984 . S
N393 H397 0.985 . S
H394 N389 0.984 . S
H395 N389 0.985 . S
H396 N393 0.984 . S
H397 N393 0.985 . S
H398 N392 0.984 . S
H399 N392 0.984 . S
H400 N388 0.984 . S
H401 N388 0.985 . S
C402 C403 1.363 . S
C402 C408 1.379 1_556 S
C402 N410 1.356 . S
C403 C402 1.363 . S
C403 C409 1.363 . S
C404 C405 1.363 1_556 S
C404 C409 1.379 . S
C404 N411 1.356 . S
C405 C404 1.363 1_554 S
C405 C408 1.363 . S
N406 C408 1.356 . S
N406 H418 0.984 . S
N406 H419 0.985 . S
N407 C409 1.356 . S
N407 H412 0.984 . S
N407 H413 0.985 . S
C408 C402 1.379 1_554 S
C408 C405 1.363 . S
C408 N406 1.356 . S
C409 C403 1.363 . S
C409 C404 1.379 . S
C409 N407 1.356 . S
N410 C402 1.356 . S
N410 H416 0.984 . S
N410 H417 0.984 . S
N411 C404 1.356 . S
N411 H414 0.984 1_556 S
N411 H415 0.985 . S
H412 N407 0.984 . S
H413 N407 0.985 . S
H414 N411 0.984 1_554 S
H415 N411 0.985 . S
H416 N410 0.984 . S
H417 N410 0.984 . S
H418 N406 0.984 . S
H419 N406 0.985 . S
C420 C421 1.363 . S
C420 C426 1.379 . S
C420 N428 1.356 . S
C421 C420 1.363 . S
C421 C427 1.363 . S
C422 C423 1.363 . S
C422 C427 1.379 . S
C422 N429 1.356 . S
C423 C422 1.363 . S
C423 C426 1.363 . S
N424 C426 1.356 . S
N424 H436 0.984 . S
N424 H437 0.985 . S
N425 C427 1.356 . S
N425 H430 0.984 1_554 S
N425 H431 0.985 . S
C426 C420 1.379 . S
C426 C423 1.363 . S
C426 N424 1.356 . S
C427 C421 1.363 . S
C427 C422 1.379 . S
C427 N425 1.356 . S
N428 C420 1.356 . S
N428 H434 0.984 . S
N428 H435 0.984 . S
N429 C422 1.356 . S
N429 H432 0.984 . S
N429 H433 0.985 . S
H430 N425 0.984 1_556 S
H431 N425 0.985 . S
H432 N429 0.984 . S
H433 N429 0.985 . S
H434 N428 0.984 . S
H435 N428 0.984 . S
H436 N424 0.984 . S
H437 N424 0.985 . S
C438 C439 1.363 . S
C438 C444 1.379 . S
C438 N446 1.356 . S
C439 C438 1.363 . S
C439 C445 1.363 . S
C440 C441 1.363 . S
C440 C445 1.379 . S
C440 N447 1.356 . S
C441 C440 1.363 . S
C441 C444 1.363 . S
N442 C444 1.356 . S
N442 H454 0.984 . S
N442 H455 0.985 . S
N443 C445 1.356 . S
N443 H448 0.984 . S
N443 H449 0.985 . S
C444 C438 1.379 . S
C444 C441 1.363 . S
C444 N442 1.356 . S
C445 C439 1.363 . S
C445 C440 1.379 . S
C445 N443 1.356 . S
N446 C438 1.356 . S
N446 H452 0.984 . S
N446 H453 0.984 . S
N447 C440 1.356 . S
N447 H450 0.984 . S
N447 H451 0.985 . S
H448 N443 0.984 . S
H449 N443 0.985 . S
H450 N447 0.984 . S
H451 N447 0.985 . S
H452 N446 0.984 . S
H453 N446 0.984 . S
H454 N442 0.984 . S
H455 N442 0.985 . S
C456 C457 1.363 . S
C456 C462 1.379 . S
C456 N464 1.356 . S
C457 C456 1.363 . S
C457 C463 1.363 . S
C458 C459 1.363 . S
C458 C463 1.379 . S
C458 N465 1.356 . S
C459 C458 1.363 . S
C459 C462 1.363 . S
N460 C462 1.356 . S
N460 H472 0.984 . S
N460 H473 0.985 . S
N461 C463 1.356 . S
N461 H466 0.984 . S
N461 H467 0.985 . S
C462 C456 1.379 . S
C462 C459 1.363 . S
C462 N460 1.356 . S
C463 C457 1.363 . S
C463 C458 1.379 . S
C463 N461 1.356 . S
N464 C456 1.356 . S
N464 H470 0.984 . S
N464 H471 0.984 . S
N465 C458 1.356 . S
N465 H468 0.984 . S
N465 H469 0.985 . S
H466 N461 0.984 . S
H467 N461 0.985 . S
H468 N465 0.984 . S
H469 N465 0.985 . S
H470 N464 0.984 . S
H471 N464 0.984 . S
H472 N460 0.984 . S
H473 N460 0.985 . S
C474 C475 1.363 . S
C474 C480 1.379 . S
C474 N482 1.356 . S
C475 C474 1.363 . S
C475 C481 1.363 . S
C476 C477 1.363 . S
C476 C481 1.379 . S
C476 N483 1.356 . S
C477 C476 1.363 . S
C477 C480 1.363 . S
N478 C480 1.356 . S
N478 H490 0.984 . S
N478 H491 0.985 . S
N479 C481 1.356 . S
N479 H484 0.984 . S
N479 H485 0.985 . S
C480 C474 1.379 . S
C480 C477 1.363 . S
C480 N478 1.356 . S
C481 C475 1.363 . S
C481 C476 1.379 . S
C481 N479 1.356 . S
N482 C474 1.356 . S
N482 H488 0.984 . S
N482 H489 0.984 . S
N483 C476 1.356 . S
N483 H486 0.984 . S
N483 H487 0.985 . S
H484 N479 0.984 . S
H485 N479 0.985 . S
H486 N483 0.984 . S
H487 N483 0.985 . S
H488 N482 0.984 . S
H489 N482 0.984 . S
H490 N478 0.984 . S
H491 N478 0.985 . S
C492 C493 1.363 1_556 S
C492 C498 1.379 1_545 S
C492 N500 1.356 . S
C493 C492 1.363 1_554 S
C493 C499 1.363 . S
C494 C495 1.363 . S
C494 C499 1.379 1_565 S
C494 N501 1.356 . S
C495 C494 1.363 . S
C495 C498 1.363 1_554 S
N496 C498 1.356 . S
N496 H508 0.984 . S
N496 H509 0.985 . S
N497 C499 1.356 . S
N497 H502 0.984 . S
N497 H503 0.985 . S
C498 C492 1.379 1_565 S
C498 C495 1.363 1_556 S
C498 N496 1.356 . S
C499 C493 1.363 . S
C499 C494 1.379 1_545 S
C499 N497 1.356 . S
N500 C492 1.356 . S
N500 H506 0.984 . S
N500 H507 0.984 . S
N501 C494 1.356 . S
N501 H504 0.984 . S
N501 H505 0.985 . S
H502 N497 0.984 . S
H503 N497 0.985 . S
H504 N501 0.984 . S
H505 N501 0.985 . S
H506 N500 0.984 . S
H507 N500 0.984 . S
H508 N496 0.984 . S
H509 N496 0.985 . S
C510 C511 1.363 . S
C510 C516 1.379 . S
C510 N518 1.356 . S
C511 C510 1.363 . S
C511 C517 1.363 . S
C512 C513 1.363 . S
C512 C517 1.379 . S
C512 N519 1.356 . S
C513 C512 1.363 . S
C513 C516 1.363 . S
N514 C516 1.356 . S
N514 H526 0.984 . S
N514 H527 0.985 . S
N515 C517 1.356 . S
N515 H520 0.984 . S
N515 H521 0.985 . S
C516 C510 1.379 . S
C516 C513 1.363 . S
C516 N514 1.356 . S
C517 C511 1.363 . S
C517 C512 1.379 . S
C517 N515 1.356 . S
N518 C510 1.356 . S
N518 H524 0.984 . S
N518 H525 0.984 . S
N519 C512 1.356 . S
N519 H522 0.984 . S
N519 H523 0.985 . S
H520 N515 0.984 . S
H521 N515 0.985 . S
H522 N519 0.984 . S
H523 N519 0.985 . S
H524 N518 0.984 . S
H525 N518 0.984 . S
H526 N514 0.984 . S
H527 N514 0.985 . S
C528 C529 1.363 . S
C528 C534 1.379 1_455 S
C528 N536 1.356 . S
C529 C528 1.363 . S
C529 C535 1.363 . S
C530 C531 1.363 . S
C530 C535 1.379 1_655 S
C530 N537 1.356 . S
C531 C530 1.363 . S
C531 C534 1.363 . S
N532 C534 1.356 . S
N532 H544 0.984 . S
N532 H545 0.985 . S
N533 C535 1.356 . S
N533 H538 0.984 . S
N533 H539 0.985 . S
C534 C528 1.379 1_655 S
C534 C531 1.363 . S
C534 N532 1.356 . S
C535 C529 1.363 . S
C535 C530 1.379 1_455 S
C535 N533 1.356 . S
N536 C528 1.356 . S
N536 H542 0.984 . S
N536 H543 0.984 . S
N537 C530 1.356 . S
N537 H540 0.984 . S
N537 H541 0.985 . S
H538 N533 0.984 . S
H539 N533 0.985 . S
H540 N537 0.984 . S
H541 N537 0.985 . S
H542 N536 0.984 . S
H543 N536 0.984 . S
H544 N532 0.984 . S
H545 N532 0.985 . S
C546 C547 1.363 . S
C546 C552 1.379 1_565 S
C546 N554 1.356 . S
C547 C546 1.363 . S
C547 C553 1.363 . S
C548 C549 1.363 . S
C548 C553 1.379 1_545 S
C548 N555 1.356 . S
C549 C548 1.363 . S
C549 C552 1.363 . S
N550 C552 1.356 . S
N550 H562 0.984 . S
N550 H563 0.985 . S
N551 C553 1.356 . S
N551 H556 0.984 . S
N551 H557 0.985 . S
C552 C546 1.379 1_545 S
C552 C549 1.363 . S
C552 N550 1.356 . S
C553 C547 1.363 . S
C553 C548 1.379 1_565 S
C553 N551 1.356 . S
N554 C546 1.356 . S
N554 H560 0.984 . S
N554 H561 0.984 . S
N555 C548 1.356 . S
N555 H558 0.984 . S
N555 H559 0.985 . S
H556 N551 0.984 . S
H557 N551 0.985 . S
H558 N555 0.984 . S
H559 N555 0.985 . S
H560 N554 0.984 . S
H561 N554 0.984 . S
H562 N550 0.984 . S
H563 N550 0.985 . S
C564 C565 1.363 . S
C564 C570 1.379 . S
C564 N572 1.356 . S
C565 C564 1.363 . S
C565 C571 1.363 . S
C566 C567 1.363 . S
C566 C571 1.379 . S
C566 N573 1.356 . S
C567 C566 1.363 . S
C567 C570 1.363 . S
N568 C570 1.356 . S
N568 H580 0.984 . S
N568 H581 0.985 . S
N569 C571 1.356 . S
N569 H574 0.984 . S
N569 H575 0.985 . S
C570 C564 1.379 . S
C570 C567 1.363 . S
C570 N568 1.356 . S
C571 C565 1.363 . S
C571 C566 1.379 . S
C571 N569 1.356 . S
N572 C564 1.356 . S
N572 H578 0.984 . S
N572 H579 0.984 . S
N573 C566 1.356 . S
N573 H576 0.984 . S
N573 H577 0.985 . S
H574 N569 0.984 . S
H575 N569 0.985 . S
H576 N573 0.984 . S
H577 N573 0.985 . S
H578 N572 0.984 . S
H579 N572 0.984 . S
H580 N568 0.984 . S
H581 N568 0.985 . S
C582 C583 1.363 . S
C582 C588 1.379 1_455 S
C582 N590 1.356 . S
C583 C582 1.363 . S
C583 C589 1.363 . S
C584 C585 1.363 . S
C584 C589 1.379 1_655 S
C584 N591 1.356 . S
C585 C584 1.363 . S
C585 C588 1.363 . S
N586 C588 1.356 . S
N586 H598 0.984 . S
N586 H599 0.985 . S
N587 C589 1.356 . S
N587 H592 0.984 . S
N587 H593 0.985 1_556 S
C588 C582 1.379 1_655 S
C588 C585 1.363 . S
C588 N586 1.356 . S
C589 C583 1.363 . S
C589 C584 1.379 1_455 S
C589 N587 1.356 . S
N590 C582 1.356 . S
N590 H596 0.984 . S
N590 H597 0.984 . S
N591 C584 1.356 . S
N591 H594 0.984 . S
N591 H595 0.985 1_556 S
H592 N587 0.984 . S
H593 N587 0.985 1_554 S
H594 N591 0.984 . S
H595 N591 0.985 1_554 S
H596 N590 0.984 . S
H597 N590 0.984 . S
H598 N586 0.984 . S
H599 N586 0.985 . S
C169 C7 1.195 . S
C171 C147 1.195 . S
C187 C21 1.194 . S
C189 C161 1.194 . S
C205 C91 1.194 . S
C207 C35 1.194 . S
C223 C49 1.194 . S
C225 C105 1.195 . S
C241 C119 1.194 . S
C243 C63 1.194 . S
C259 C133 1.194 . S
C261 C77 1.194 . S
C277 C120 1.441 . S
C279 C8 1.441 . S
C295 C22 1.440 . S
C297 C134 1.440 . S
C313 C148 1.441 . S
C315 C36 1.441 . S
C331 C50 1.441 . S
C333 C162 1.441 . S
C349 C64 1.440 . S
C351 C92 1.440 . S
C367 C78 1.441 . S
C369 C106 1.441 . S
C385 C143 1.606 . S
C387 C3 1.606 . S
C403 C157 1.606 . S
C405 C17 1.606 . S
C421 C87 1.606 1_554 S
C423 C31 1.606 . S
C439 C45 1.607 . S
C441 C101 1.607 . S
C457 C59 1.606 . S
C459 C115 1.606 . S
C475 C129 1.606 . S
C477 C73 1.606 . S
C493 C9 1.376 . S
C495 C107 1.376 . S
C511 C121 1.375 . S
C513 C23 1.376 . S
C529 C135 1.375 . S
C531 C37 1.375 . S
C547 C51 1.376 . S
C549 C149 1.376 . S
C565 C65 1.376 . S
C567 C163 1.375 . S
C583 C79 1.375 . S
C585 C93 1.375 . S
