# Generated by pormake.
# Topology umz, (4)-cn, num edge types: 1
# Building blocks:
#     Node 0, Type 0, BuildingBlock: KUFVIS_clean_sbu_0, # of connection points: 4
#     Node 1, Type 0, BuildingBlock: KUFVIS_clean_sbu_0, # of connection points: 4
#     Node 2, Type 0, BuildingBlock: KUFVIS_clean_sbu_0, # of connection points: 4
#     Node 3, Type 0, BuildingBlock: KUFVIS_clean_sbu_0, # of connection points: 4
#     Node 4, Type 0, BuildingBlock: KUFVIS_clean_sbu_0, # of connection points: 4
#     Node 5, Type 0, BuildingBlock: KUFVIS_clean_sbu_0, # of connection points: 4
#     Node 6, Type 0, BuildingBlock: KUFVIS_clean_sbu_0, # of connection points: 4
#     Node 7, Type 0, BuildingBlock: KUFVIS_clean_sbu_0, # of connection points: 4
#     Node 8, Type 0, BuildingBlock: KUFVIS_clean_sbu_0, # of connection points: 4
#     Node 9, Type 0, BuildingBlock: KUFVIS_clean_sbu_0, # of connection points: 4
#     Node 10, Type 0, BuildingBlock: KUFVIS_clean_sbu_0, # of connection points: 4
#     Node 11, Type 0, BuildingBlock: KUFVIS_clean_sbu_0, # of connection points: 4
#     Node 12, Type 0, BuildingBlock: KUFVIS_clean_sbu_0, # of connection points: 4
#     Node 13, Type 0, BuildingBlock: KUFVIS_clean_sbu_0, # of connection points: 4
#     Node 14, Type 0, BuildingBlock: KUFVIS_clean_sbu_0, # of connection points: 4
#     Node 15, Type 0, BuildingBlock: KUFVIS_clean_sbu_0, # of connection points: 4
#     Edge 16, Type (0, 0), BuildingBlock: UVAHIK_clean_linker_0, # of connection points: 2
#     Edge 17, Type (0, 0), BuildingBlock: UVAHIK_clean_linker_0, # of connection points: 2
#     Edge 18, Type (0, 0), BuildingBlock: UVAHIK_clean_linker_0, # of connection points: 2
#     Edge 19, Type (0, 0), BuildingBlock: UVAHIK_clean_linker_0, # of connection points: 2
#     Edge 20, Type (0, 0), BuildingBlock: UVAHIK_clean_linker_0, # of connection points: 2
#     Edge 21, Type (0, 0), BuildingBlock: UVAHIK_clean_linker_0, # of connection points: 2
#     Edge 22, Type (0, 0), BuildingBlock: UVAHIK_clean_linker_0, # of connection points: 2
#     Edge 23, Type (0, 0), BuildingBlock: UVAHIK_clean_linker_0, # of connection points: 2
#     Edge 24, Type (0, 0), BuildingBlock: UVAHIK_clean_linker_0, # of connection points: 2
#     Edge 25, Type (0, 0), BuildingBlock: UVAHIK_clean_linker_0, # of connection points: 2
#     Edge 26, Type (0, 0), BuildingBlock: UVAHIK_clean_linker_0, # of connection points: 2
#     Edge 27, Type (0, 0), BuildingBlock: UVAHIK_clean_linker_0, # of connection points: 2
#     Edge 28, Type (0, 0), BuildingBlock: UVAHIK_clean_linker_0, # of connection points: 2
#     Edge 29, Type (0, 0), BuildingBlock: UVAHIK_clean_linker_0, # of connection points: 2
#     Edge 30, Type (0, 0), BuildingBlock: UVAHIK_clean_linker_0, # of connection points: 2
#     Edge 31, Type (0, 0), BuildingBlock: UVAHIK_clean_linker_0, # of connection points: 2
#     Edge 32, Type (0, 0), BuildingBlock: UVAHIK_clean_linker_0, # of connection points: 2
#     Edge 33, Type (0, 0), BuildingBlock: UVAHIK_clean_linker_0, # of connection points: 2
#     Edge 34, Type (0, 0), BuildingBlock: UVAHIK_clean_linker_0, # of connection points: 2
#     Edge 35, Type (0, 0), BuildingBlock: UVAHIK_clean_linker_0, # of connection points: 2
#     Edge 36, Type (0, 0), BuildingBlock: UVAHIK_clean_linker_0, # of connection points: 2
#     Edge 37, Type (0, 0), BuildingBlock: UVAHIK_clean_linker_0, # of connection points: 2
#     Edge 38, Type (0, 0), BuildingBlock: UVAHIK_clean_linker_0, # of connection points: 2
#     Edge 39, Type (0, 0), BuildingBlock: UVAHIK_clean_linker_0, # of connection points: 2
#     Edge 40, Type (0, 0), BuildingBlock: UVAHIK_clean_linker_0, # of connection points: 2
#     Edge 41, Type (0, 0), BuildingBlock: UVAHIK_clean_linker_0, # of connection points: 2
#     Edge 42, Type (0, 0), BuildingBlock: UVAHIK_clean_linker_0, # of connection points: 2
#     Edge 43, Type (0, 0), BuildingBlock: UVAHIK_clean_linker_0, # of connection points: 2
#     Edge 44, Type (0, 0), BuildingBlock: UVAHIK_clean_linker_0, # of connection points: 2
#     Edge 45, Type (0, 0), BuildingBlock: UVAHIK_clean_linker_0, # of connection points: 2
#     Edge 46, Type (0, 0), BuildingBlock: UVAHIK_clean_linker_0, # of connection points: 2
#     Edge 47, Type (0, 0), BuildingBlock: UVAHIK_clean_linker_0, # of connection points: 2
# Relax obj value: 0.252
# Max RMSD: 0.161
# Mean RMSD: 0.161
data_MOF--net-umz--node1-KUFVIS_clean_sbu_0--edge1-UVAHIK_clean_linker_0
_symmetry_space_group_name_H-M    P1
_symmetry_Int_Tables_number       1
_symmetry_cell_setting            triclinic
loop_
_symmetry_equiv_pos_as_xyz
'x, y, z'
_cell_length_a     74.811599
_cell_length_b     74.820068
_cell_length_c     29.28976
_cell_angle_alpha  89.967136
_cell_angle_beta   90.007488
_cell_angle_gamma 90.006904
loop_
_atom_site_label
_atom_site_type_symbol
_atom_site_fract_x
_atom_site_fract_y
_atom_site_fract_z
_atom_type_partial_charge
Mn0 Mn 0.00615 0.61725 0.06199 0.0
Mn1 Mn 0.96866 0.61866 0.99812 0.0
C2 C 0.97856 0.61761 0.09689 0.0
C3 C 0.02832 0.60059 0.09808 0.0
C4 C 0.99208 0.65104 0.01599 0.0
O5 O 0.01503 0.61056 -0.00118 0.0
O6 O 0.98899 0.61003 0.96007 0.0
C7 C 0.96408 0.57986 0.98223 0.0
N8 N 0.95756 0.59565 0.99824 0.0
C9 C 0.93018 0.58162 0.02229 0.0
C10 C 0.93655 0.56524 0.00572 0.0
C11 C 0.95359 0.56436 0.98565 0.0
C12 C 0.94117 0.59666 0.01752 0.0
H13 H 0.97723 0.57909 0.96711 0.0
C14 C 0.00598 0.60786 0.96255 0.0
O15 O 0.03097 0.61723 0.08717 0.0
O16 O 0.01313 0.59361 0.08651 0.0
N17 N 0.94798 0.62656 0.0309 0.0
C18 C 0.94424 0.64315 0.04753 0.0
C19 C 0.92793 0.64616 0.06995 0.0
C20 C 0.91561 0.63212 0.07487 0.0
C21 C 0.91967 0.61521 0.05708 0.0
C22 C 0.93606 0.61305 0.03464 0.0
H23 H 0.9537 0.65397 0.04407 0.0
O24 O 0.99274 0.62232 0.11931 0.0
O25 O 0.98102 0.61255 0.05489 0.0
O26 O 0.00338 0.64326 0.04188 0.0
O27 O 0.97892 0.64298 0.9972 0.0
C28 C 0.90828 0.60032 0.06162 0.0
C29 C 0.91353 0.58354 0.04426 0.0
H30 H 0.92856 0.55322 0.00865 0.0
H31 H 0.95864 0.55174 0.97304 0.0
H32 H 0.9249 0.65924 0.08364 0.0
H33 H 0.90313 0.63445 0.09266 0.0
H34 H 0.89556 0.60157 0.07899 0.0
H35 H 0.90477 0.57214 0.04853 0.0
Mn36 Mn 0.87719 0.0056 0.57337 0.0
Mn37 Mn 0.87467 0.96992 0.50335 0.0
C38 C 0.87642 0.97717 0.60353 0.0
C39 C 0.89424 0.02662 0.61245 0.0
C40 C 0.84298 0.99367 0.5258 0.0
O41 O 0.88374 0.01597 0.5115 0.0
O42 O 0.8839 0.99091 0.46866 0.0
C43 C 0.91328 0.96454 0.4862 0.0
N44 N 0.89731 0.95812 0.50133 0.0
C45 C 0.9105 0.92978 0.52079 0.0
C46 C 0.92706 0.93604 0.50505 0.0
C47 C 0.92845 0.9535 0.48772 0.0
C48 C 0.8958 0.94133 0.51797 0.0
H49 H 0.91445 0.978 0.47324 0.0
C50 C 0.88634 0.00777 0.47387 0.0
O51 O 0.87756 0.02963 0.60269 0.0
O52 O 0.90108 0.01172 0.59816 0.0
N53 N 0.86616 0.94872 0.53286 0.0
C54 C 0.84948 0.94512 0.54917 0.0
C55 C 0.84599 0.92839 0.56905 0.0
C56 C 0.85964 0.91555 0.5718 0.0
C57 C 0.87664 0.9195 0.55441 0.0
C58 C 0.87929 0.93632 0.53451 0.0
H59 H 0.83897 0.95497 0.5474 0.0
O60 O 0.87215 0.99082 0.62849 0.0
O61 O 0.88135 0.98063 0.56187 0.0
O62 O 0.8511 0.00385 0.55384 0.0
O63 O 0.85063 0.98093 0.50427 0.0
C64 C 0.89117 0.90757 0.55694 0.0
C65 C 0.90809 0.9127 0.54016 0.0
H66 H 0.93882 0.92762 0.50654 0.0
H67 H 0.94121 0.95846 0.47579 0.0
H68 H 0.83284 0.92545 0.58246 0.0
H69 H 0.85694 0.90274 0.58764 0.0
H70 H 0.88955 0.8945 0.57232 0.0
H71 H 0.91921 0.9035 0.54289 0.0
Mn72 Mn 0.49332 0.87739 0.07323 0.0
Mn73 Mn 0.5301 0.87668 0.00655 0.0
C74 C 0.52132 0.87793 0.10595 0.0
C75 C 0.4709 0.89317 0.11065 0.0
C76 C 0.50765 0.84385 0.02671 0.0
O77 O 0.48353 0.88364 0.01054 0.0
O78 O 0.50914 0.88478 0.97002 0.0
C79 C 0.53364 0.91553 0.98968 0.0
N80 N 0.54069 0.89992 0.00546 0.0
C81 C 0.56803 0.91459 0.02716 0.0
C82 C 0.56112 0.93079 0.01082 0.0
C83 C 0.54384 0.93126 0.99204 0.0
C84 C 0.55731 0.89931 0.0235 0.0
H85 H 0.52031 0.91598 0.97555 0.0
C86 C 0.49214 0.88653 0.97364 0.0
O87 O 0.4689 0.87642 0.10017 0.0
O88 O 0.48563 0.90085 0.09796 0.0
N89 N 0.55131 0.86931 0.0379 0.0
C90 C 0.55561 0.85284 0.05446 0.0
C91 C 0.57225 0.85022 0.07561 0.0
C92 C 0.58431 0.86453 0.07937 0.0
C93 C 0.57967 0.88131 0.06167 0.0
C94 C 0.56298 0.88308 0.04049 0.0
H95 H 0.54635 0.84181 0.05189 0.0
O96 O 0.50756 0.87291 0.12961 0.0
O97 O 0.51822 0.88278 0.06405 0.0
O98 O 0.49662 0.85148 0.05351 0.0
O99 O 0.52038 0.8521 0.00659 0.0
C100 C 0.59079 0.89645 0.06508 0.0
C101 C 0.58497 0.91308 0.04787 0.0
H102 H 0.56888 0.94299 0.01292 0.0
H103 H 0.53837 0.94374 0.97961 0.0
H104 H 0.57573 0.83723 0.08924 0.0
H105 H 0.59705 0.86251 0.09619 0.0
H106 H 0.60374 0.89552 0.08146 0.0
H107 H 0.59354 0.92468 0.05127 0.0
Mn108 Mn 0.61855 0.49071 0.56586 0.0
Mn109 Mn 0.61953 0.52748 0.49928 0.0
C110 C 0.61753 0.51863 0.59873 0.0
C111 C 0.60224 0.46828 0.60173 0.0
C112 C 0.65239 0.50529 0.52141 0.0
O113 O 0.61319 0.48092 0.50276 0.0
O114 O 0.61186 0.5065 0.46213 0.0
C115 C 0.5808 0.53079 0.48049 0.0
N116 N 0.59624 0.53792 0.4971 0.0
C117 C 0.5812 0.56509 0.51852 0.0
C118 C 0.56517 0.55809 0.5013 0.0
C119 C 0.56498 0.54086 0.48224 0.0
C120 C 0.59659 0.5545 0.51542 0.0
H121 H 0.58056 0.5175 0.46618 0.0
C122 C 0.61045 0.48947 0.4657 0.0
O123 O 0.61915 0.46625 0.59301 0.0
O124 O 0.59479 0.48301 0.58829 0.0
N125 N 0.62653 0.54871 0.53109 0.0
C126 C 0.64285 0.5531 0.54842 0.0
C127 C 0.64519 0.5697 0.56994 0.0
C128 C 0.63075 0.58163 0.57325 0.0
C129 C 0.61413 0.5769 0.55473 0.0
C130 C 0.61265 0.56025 0.53323 0.0
H131 H 0.65397 0.54394 0.54621 0.0
O132 O 0.62229 0.50483 0.62262 0.0
O133 O 0.6131 0.51558 0.55648 0.0
O134 O 0.64468 0.49423 0.54809 0.0
O135 O 0.64415 0.51787 0.50063 0.0
C136 C 0.59888 0.58788 0.55763 0.0
C137 C 0.58242 0.58198 0.53956 0.0
H138 H 0.5529 0.56575 0.50294 0.0
H139 H 0.55263 0.53533 0.46914 0.0
H140 H 0.65805 0.57325 0.5842 0.0
H141 H 0.63255 0.59434 0.59035 0.0
H142 H 0.59959 0.60079 0.57425 0.0
H143 H 0.57074 0.59044 0.54254 0.0
Mn144 Mn 0.0021 0.87599 0.92309 0.0
Mn145 Mn 0.96581 0.87465 0.99128 0.0
C146 C 0.97387 0.87572 0.89152 0.0
C147 C 0.0237 0.8924 0.8843 0.0
C148 C 0.98901 0.84232 0.97125 0.0
O149 O 0.01213 0.88274 0.9852 0.0
O150 O 0.98673 0.8836 0.02665 0.0
C151 C 0.96116 0.91346 0.00694 0.0
N152 N 0.95451 0.89756 0.99198 0.0
C153 C 0.92663 0.91129 0.97067 0.0
C154 C 0.93313 0.92777 0.98622 0.0
C155 C 0.95048 0.92886 0.00439 0.0
C156 C 0.93782 0.89635 0.97454 0.0
H157 H 0.97454 0.91439 0.02056 0.0
C158 C 0.00366 0.88573 0.02227 0.0
O159 O 0.02634 0.87573 0.89478 0.0
O160 O 0.00885 0.8996 0.89774 0.0
N161 N 0.94466 0.86649 0.96093 0.0
C162 C 0.94083 0.84984 0.94483 0.0
C163 C 0.9242 0.84663 0.92414 0.0
C164 C 0.91168 0.86054 0.92034 0.0
C165 C 0.91587 0.87752 0.9375 0.0
C166 C 0.93257 0.87988 0.95824 0.0
H167 H 0.95043 0.83912 0.94739 0.0
O168 O 0.9876 0.87095 0.86745 0.0
O169 O 0.97714 0.88077 0.93316 0.0
O170 O -0.00035 0.85005 0.94357 0.0
O171 O 0.97626 0.85038 0.9917 0.0
C172 C 0.90428 0.8923 0.93392 0.0
C173 C 0.90966 0.90917 0.95048 0.0
H174 H 0.925 0.93972 0.98392 0.0
H175 H 0.95564 0.94156 0.01618 0.0
H176 H 0.92108 0.8335 0.9109 0.0
H177 H 0.89895 0.85807 0.90389 0.0
H178 H 0.89131 0.89091 0.91787 0.0
H179 H 0.90074 0.92049 0.94692 0.0
Mn180 Mn 0.61803 0.00581 0.43164 0.0
Mn181 Mn 0.62135 0.969 0.49761 0.0
C182 C 0.61947 0.97794 0.39841 0.0
C183 C 0.6004 0.02695 0.3945 0.0
C184 C 0.65251 0.99381 0.47797 0.0
O185 O 0.61107 0.01491 0.49446 0.0
O186 O 0.61178 0.98919 0.53463 0.0
C187 C 0.58286 0.9626 0.51444 0.0
N188 N 0.59892 0.95676 0.49845 0.0
C189 C 0.58623 0.92856 0.4759 0.0
C190 C 0.56958 0.93422 0.49247 0.0
C191 C 0.56789 0.95132 0.51178 0.0
C192 C 0.60071 0.94031 0.47993 0.0
H193 H 0.58147 0.97579 0.52895 0.0
C194 C 0.60881 0.00603 0.53124 0.0
O195 O 0.61692 0.03037 0.40511 0.0
O196 O 0.59405 0.01159 0.407 0.0
N197 N 0.6302 0.94851 0.46569 0.0
C198 C 0.6469 0.94552 0.44877 0.0
C199 C 0.65066 0.92925 0.42695 0.0
C200 C 0.63725 0.91621 0.42285 0.0
C201 C 0.62021 0.91953 0.44086 0.0
C202 C 0.61729 0.93591 0.46271 0.0
H203 H 0.65723 0.95554 0.45156 0.0
O204 O 0.62354 0.99209 0.37502 0.0
O205 O 0.61446 0.9806 0.44037 0.0
O206 O 0.64415 0.00442 0.45139 0.0
O207 O 0.64515 0.98047 0.49774 0.0
C208 C 0.60589 0.90738 0.43708 0.0
C209 C 0.58891 0.91189 0.45458 0.0
H210 H 0.55796 0.92562 0.49011 0.0
H211 H 0.55506 0.95583 0.52438 0.0
H212 H 0.66384 0.9268 0.41306 0.0
H213 H 0.64015 0.90376 0.40552 0.0
H214 H 0.60772 0.89464 0.42018 0.0
H215 H 0.57795 0.90255 0.45087 0.0
Mn216 Mn 0.49206 0.61898 0.93221 0.0
Mn217 Mn 0.52909 0.62021 0.99793 0.0
C218 C 0.51988 0.61824 0.89882 0.0
C219 C 0.46953 0.60296 0.89592 0.0
C220 C 0.50695 0.65298 0.97597 0.0
O221 O 0.4825 0.613 0.9951 0.0
O222 O 0.50806 0.61327 0.03591 0.0
C223 C 0.53172 0.58158 0.0186 0.0
N224 N 0.53909 0.59674 0.00107 0.0
C225 C 0.56588 0.58102 0.97974 0.0
C226 C 0.55863 0.56526 0.99788 0.0
C227 C 0.54147 0.56554 0.01736 0.0
C228 C 0.55561 0.59663 0.98235 0.0
H229 H 0.51848 0.5817 0.03328 0.0
C230 C 0.4911 0.61112 0.03241 0.0
O231 O 0.46754 0.61977 0.90578 0.0
O232 O 0.48433 0.5954 0.90853 0.0
N233 N 0.55037 0.62658 0.9655 0.0
C234 C 0.55505 0.6427 0.94745 0.0
C235 C 0.57164 0.64456 0.92551 0.0
C236 C 0.58326 0.62987 0.92256 0.0
C237 C 0.57824 0.61347 0.94186 0.0
C238 C 0.56163 0.61246 0.96373 0.0
H239 H 0.54612 0.65402 0.94937 0.0
O240 O 0.50602 0.62319 0.87545 0.0
O241 O 0.51699 0.61359 0.94102 0.0
O242 O 0.49545 0.64506 0.95096 0.0
O243 O 0.51993 0.64494 0.99551 0.0
C244 C 0.58891 0.59798 0.93941 0.0
C245 C 0.58273 0.58177 0.95831 0.0
H246 H 0.56605 0.55284 0.99666 0.0
H247 H 0.53574 0.55341 0.03119 0.0
H248 H 0.5754 0.65726 0.91067 0.0
H249 H 0.59595 0.6313 0.90514 0.0
H250 H 0.60179 0.59833 0.92252 0.0
H251 H 0.59096 0.5699 0.9557 0.0
Mn252 Mn 0.87726 0.4923 0.42502 0.0
Mn253 Mn 0.87604 0.52853 0.49342 0.0
C254 C 0.87824 0.52052 0.39366 0.0
C255 C 0.89363 0.47021 0.38795 0.0
C256 C 0.8433 0.5064 0.46991 0.0
O257 O 0.88262 0.48201 0.48765 0.0
O258 O 0.88369 0.50728 0.52956 0.0
C259 C 0.91472 0.53179 0.51289 0.0
N260 N 0.8993 0.53902 0.49644 0.0
C261 C 0.91431 0.56639 0.4766 0.0
C262 C 0.93032 0.5593 0.49369 0.0
C263 C 0.93053 0.54192 0.51186 0.0
C264 C 0.89895 0.55574 0.47896 0.0
H265 H 0.91497 0.51838 0.52653 0.0
C266 C 0.88522 0.49028 0.52517 0.0
O267 O 0.87672 0.46808 0.39661 0.0
O268 O 0.90104 0.48484 0.40218 0.0
N269 N 0.86905 0.54999 0.4626 0.0
C270 C 0.85275 0.55448 0.44525 0.0
C271 C 0.85042 0.57125 0.42455 0.0
C272 C 0.86483 0.58325 0.42204 0.0
C273 C 0.88143 0.57841 0.44054 0.0
C274 C 0.8829 0.56159 0.46123 0.0
H275 H 0.84166 0.54528 0.44685 0.0
O276 O 0.87352 0.50692 0.369 0.0
O277 O 0.88262 0.5171 0.43575 0.0
O278 O 0.8511 0.49557 0.44285 0.0
O279 O 0.85145 0.51888 0.4913 0.0
C280 C 0.89666 0.58945 0.43841 0.0
C281 C 0.91309 0.58345 0.4564 0.0
H282 H 0.94258 0.567 0.4926 0.0
H283 H 0.94285 0.53631 0.52485 0.0
H284 H 0.83758 0.57488 0.4103 0.0
H285 H 0.86304 0.59609 0.40556 0.0
H286 H 0.89595 0.60249 0.42243 0.0
H287 H 0.92476 0.59197 0.454 0.0
Mn288 Mn 0.9891 0.37778 0.92327 0.0
Mn289 Mn 0.02671 0.37733 0.98678 0.0
C290 C 0.01663 0.37858 0.88808 0.0
C291 C 0.96613 0.39351 0.88794 0.0
C292 C 0.00427 0.34433 0.96842 0.0
O293 O 0.9801 0.38388 0.98678 0.0
O294 O 0.0062 0.38532 0.02511 0.0
C295 C 0.03028 0.41619 0.00332 0.0
N296 N 0.03719 0.40063 0.98694 0.0
C297 C 0.06416 0.41543 0.96293 0.0
C298 C 0.05738 0.4316 0.97987 0.0
C299 C 0.04036 0.43197 0.0001 0.0
C300 C 0.05357 0.4001 0.96749 0.0
H301 H 0.01714 0.41657 0.01858 0.0
C302 C 0.98914 0.3869 0.02292 0.0
O303 O 0.96434 0.37673 0.89837 0.0
O304 O 0.98098 0.40123 0.89951 0.0
N305 N 0.04754 0.37008 0.95363 0.0
C306 C 0.05169 0.35363 0.93668 0.0
C307 C 0.06805 0.35111 0.9141 0.0
C308 C 0.07999 0.36548 0.90933 0.0
C309 C 0.07551 0.38223 0.92745 0.0
C310 C 0.05909 0.3839 0.95004 0.0
H311 H 0.04253 0.34256 0.94003 0.0
O312 O 0.00259 0.37349 0.86565 0.0
O313 O 0.01407 0.38336 0.93028 0.0
O314 O 0.99285 0.35185 0.94246 0.0
O315 O 0.01714 0.35269 0.98759 0.0
C316 C 0.0865 0.39743 0.92312 0.0
C317 C 0.08083 0.41402 0.94081 0.0
H318 H 0.06506 0.44383 0.97711 0.0
H319 H 0.035 0.44442 0.013 0.0
H320 H 0.07141 0.33815 0.90015 0.0
H321 H 0.09251 0.36354 0.89143 0.0
H322 H 0.09923 0.39656 0.90564 0.0
H323 H 0.08929 0.42566 0.9367 0.0
Mn324 Mn 0.11858 0.99098 0.42309 0.0
Mn325 Mn 0.12078 0.02686 0.49255 0.0
C326 C 0.11951 0.01936 0.39253 0.0
C327 C 0.10167 0.96993 0.3837 0.0
C328 C 0.15256 0.00303 0.47161 0.0
O329 O 0.11165 0.98077 0.48492 0.0
O330 O 0.11135 0.00597 0.52716 0.0
C331 C 0.08209 0.03233 0.5084 0.0
N332 N 0.09814 0.03869 0.49368 0.0
C333 C 0.08511 0.06703 0.47356 0.0
C334 C 0.06846 0.06083 0.48886 0.0
C335 C 0.06695 0.0434 0.5063 0.0
C336 C 0.09976 0.05546 0.47693 0.0
H337 H 0.08084 0.01889 0.52147 0.0
C338 C 0.10885 0.98912 0.52226 0.0
O339 O 0.11828 0.96688 0.39402 0.0
O340 O 0.09481 0.98488 0.39761 0.0
N341 N 0.12946 0.04798 0.46298 0.0
C342 C 0.14621 0.05152 0.44708 0.0
C343 C 0.14982 0.06821 0.42713 0.0
C344 C 0.13622 0.08108 0.42386 0.0
C345 C 0.11913 0.07719 0.44083 0.0
C346 C 0.11636 0.06041 0.46083 0.0
H347 H 0.15669 0.04165 0.44925 0.0
O348 O 0.12393 0.00566 0.36792 0.0
O349 O 0.1144 0.01598 0.43407 0.0
O350 O 0.14459 0.99274 0.44351 0.0
O351 O 0.14479 0.01583 0.49258 0.0
C352 C 0.10463 0.08915 0.43776 0.0
C353 C 0.08764 0.08407 0.4541 0.0
H354 H 0.05672 0.06926 0.48692 0.0
H355 H 0.05413 0.03848 0.5179 0.0
H356 H 0.16304 0.0711 0.41404 0.0
H357 H 0.139 0.09385 0.40797 0.0
H358 H 0.10635 0.10219 0.42229 0.0
H359 H 0.07654 0.09329 0.45094 0.0
Mn360 Mn 0.5022 0.11814 0.93177 0.0
Mn361 Mn 0.46585 0.12057 -0.00037 0.0
C362 C 0.47405 0.11796 0.9001 0.0
C363 C 0.52393 0.10136 0.89459 0.0
C364 C 0.48867 0.15266 0.97561 0.0
O365 O 0.5122 0.11217 0.9943 0.0
O366 O 0.487 0.11311 0.03649 0.0
C367 C 0.46227 0.08208 0.02125 0.0
N368 N 0.45519 0.09741 0.00382 0.0
C369 C 0.4278 0.0824 0.98421 0.0
C370 C 0.43474 0.06649 0.00227 0.0
C371 C 0.45206 0.06633 0.02084 0.0
C372 C 0.43853 0.09772 0.98598 0.0
H373 H 0.47563 0.08187 0.03522 0.0
C374 C 0.50388 0.11056 0.0321 0.0
O375 O 0.52647 0.11816 0.90371 0.0
O376 O 0.50908 0.09424 0.90842 0.0
N377 N 0.44448 0.12745 0.96828 0.0
C378 C 0.44012 0.14365 0.95012 0.0
C379 C 0.42342 0.14592 0.92902 0.0
C380 C 0.41136 0.13155 0.92696 0.0
C381 C 0.41606 0.11507 0.94633 0.0
C382 C 0.43282 0.11366 0.96736 0.0
H383 H 0.44939 0.15471 0.95134 0.0
O384 O 0.4878 0.12245 0.87574 0.0
O385 O 0.47723 0.11342 0.94224 0.0
O386 O 0.49967 0.14437 0.94994 0.0
O387 O 0.4757 0.14501 0.99621 0.0
C388 C 0.40494 0.09989 0.94473 0.0
C389 C 0.4108 0.08356 0.96364 0.0
H390 H 0.42697 0.05427 0.00168 0.0
H391 H 0.45755 0.05408 0.0346 0.0
H392 H 0.4199 0.15868 0.91411 0.0
H393 H 0.39857 0.1333 0.91018 0.0
H394 H 0.39194 0.10055 0.9285 0.0
H395 H 0.40223 0.07192 0.96168 0.0
Mn396 Mn 0.37985 0.50479 0.43275 0.0
Mn397 Mn 0.37783 0.46832 0.5002 0.0
C398 C 0.37985 0.47672 0.4006 0.0
C399 C 0.39676 0.52652 0.39571 0.0
C400 C 0.34567 0.4915 0.47828 0.0
O401 O 0.38591 0.5146 0.49537 0.0
O402 O 0.38614 0.48919 0.53688 0.0
C403 C 0.41648 0.46396 0.51883 0.0
N404 N 0.40083 0.45723 0.50243 0.0
C405 C 0.41509 0.42962 0.48126 0.0
C406 C 0.43133 0.43621 0.49828 0.0
C407 C 0.43202 0.45346 0.51711 0.0
C408 C 0.4 0.44063 0.48435 0.0
H409 H 0.41711 0.47728 0.53296 0.0
C410 C 0.38826 0.50614 0.53273 0.0
O411 O 0.38003 0.52923 0.40539 0.0
O412 O 0.4037 0.51151 0.40896 0.0
N413 N 0.37021 0.44721 0.46881 0.0
C414 C 0.35378 0.44327 0.45147 0.0
C415 C 0.35098 0.42671 0.43008 0.0
C416 C 0.36507 0.41438 0.42686 0.0
C417 C 0.38182 0.41867 0.44532 0.0
C418 C 0.38377 0.43529 0.4667 0.0
H419 H 0.34292 0.45275 0.45358 0.0
O420 O 0.37532 0.49055 0.37651 0.0
O421 O 0.38451 0.47982 0.44265 0.0
O422 O 0.35371 0.5023 0.45157 0.0
O423 O 0.35349 0.47861 0.49886 0.0
C424 C 0.39677 0.40727 0.44244 0.0
C425 C 0.41339 0.41274 0.46039 0.0
H426 H 0.44338 0.42821 0.49664 0.0
H427 H 0.44452 0.45868 0.53005 0.0
H428 H 0.33802 0.42351 0.41585 0.0
H429 H 0.36291 0.4017 0.40986 0.0
H430 H 0.39569 0.39436 0.42592 0.0
H431 H 0.42484 0.40396 0.45741 0.0
Mn432 Mn 0.99309 0.12021 0.07413 0.0
Mn433 Mn 0.02965 0.12123 0.00672 0.0
C434 C 0.0212 0.12033 0.10632 0.0
C435 C 0.97109 0.10419 0.11259 0.0
C436 C 0.00662 0.15373 0.026 0.0
O437 O 0.98325 0.11343 0.01183 0.0
O438 O 0.00879 0.11239 0.97098 0.0
C439 C 0.03408 0.08237 0.99151 0.0
N440 N 0.04079 0.09824 0.00644 0.0
C441 C 0.06856 0.08439 0.02813 0.0
C442 C 0.06199 0.06792 0.01263 0.0
C443 C 0.04467 0.06691 0.9943 0.0
C444 C 0.05746 0.09938 0.02405 0.0
H445 H 0.02072 0.0815 0.97774 0.0
C446 C 0.99183 0.11036 0.97498 0.0
O447 O 0.96874 0.12085 0.10157 0.0
O448 O 0.98592 0.09674 0.09984 0.0
N449 N 0.05076 0.1293 0.03741 0.0
C450 C 0.05467 0.14595 0.05339 0.0
C451 C 0.07129 0.14909 0.07419 0.0
C452 C 0.08372 0.13511 0.0782 0.0
C453 C 0.07946 0.11813 0.06114 0.0
C454 C 0.06277 0.11584 0.0403 0.0
H455 H 0.04513 0.15672 0.05063 0.0
O456 O 0.00742 0.12523 0.13006 0.0
O457 O 0.01805 0.11523 0.06466 0.0
O458 O 0.99585 0.14608 0.05347 0.0
O459 O 0.01939 0.14558 0.00581 0.0
C460 C 0.09097 0.10329 0.06491 0.0
C461 C 0.08552 0.08644 0.04844 0.0
H462 H 0.07006 0.05594 0.01509 0.0
H463 H 0.03946 0.05423 0.98254 0.0
H464 H 0.07446 0.16222 0.08734 0.0
H465 H 0.09645 0.13753 0.09474 0.0
H466 H 0.10393 0.10464 0.08104 0.0
H467 H 0.09437 0.07508 0.05215 0.0
Mn468 Mn 0.377 0.98929 0.57268 0.0
Mn469 Mn 0.37507 0.02576 0.50518 0.0
C470 C 0.37689 0.01737 0.60485 0.0
C471 C 0.39383 0.96758 0.60979 0.0
C472 C 0.34293 0.00242 0.52654 0.0
O473 O 0.38311 0.97948 0.51001 0.0
O474 O 0.3838 0.00497 0.46887 0.0
C475 C 0.41375 0.03055 0.48784 0.0
N476 N 0.39795 0.03711 0.50368 0.0
C477 C 0.41177 0.06492 0.52509 0.0
C478 C 0.42816 0.05851 0.50864 0.0
C479 C 0.42915 0.04125 0.48998 0.0
C480 C 0.39683 0.05372 0.52161 0.0
H481 H 0.41461 0.01723 0.47385 0.0
C482 C 0.38583 0.98801 0.4729 0.0
O483 O 0.37706 0.96494 0.60041 0.0
O484 O 0.40086 0.98251 0.59628 0.0
N485 N 0.36706 0.04678 0.53628 0.0
C486 C 0.35049 0.05054 0.55304 0.0
C487 C 0.34738 0.06709 0.57419 0.0
C488 C 0.36131 0.07961 0.57776 0.0
C489 C 0.3782 0.0755 0.55988 0.0
C490 C 0.38045 0.05887 0.53871 0.0
H491 H 0.33976 0.04094 0.55065 0.0
O492 O 0.37243 0.00352 0.62893 0.0
O493 O 0.38162 0.01429 0.56286 0.0
O494 O 0.35087 0.99178 0.55385 0.0
O495 O 0.35083 0.0152 0.50571 0.0
C496 C 0.39299 0.08709 0.56313 0.0
C497 C 0.40976 0.08181 0.54576 0.0
H498 H 0.44011 0.06666 0.51061 0.0
H499 H 0.44178 0.03617 0.47749 0.0
H500 H 0.33432 0.07015 0.58797 0.0
H501 H 0.35892 0.09228 0.59457 0.0
H502 H 0.39167 0.1 0.5795 0.0
H503 H 0.42109 0.09073 0.54903 0.0
Mn504 Mn 0.50645 0.37728 0.06691 0.0
Mn505 Mn 0.46888 0.37638 0.00327 0.0
C506 C 0.4789 0.37798 0.10194 0.0
C507 C 0.5293 0.39326 0.10207 0.0
C508 C 0.49152 0.34358 0.02241 0.0
O509 O 0.51546 0.38327 0.00334 0.0
O510 O 0.48939 0.38429 0.96478 0.0
C511 C 0.46519 0.41516 0.98564 0.0
N512 N 0.45832 0.39964 0.00245 0.0
C513 C 0.43132 0.41445 0.02613 0.0
C514 C 0.43805 0.43057 0.00875 0.0
C515 C 0.45506 0.43092 0.98846 0.0
C516 C 0.44195 0.39913 0.02194 0.0
H517 H 0.47832 0.41552 0.97033 0.0
C518 C 0.50643 0.38602 0.96703 0.0
O519 O 0.53121 0.37646 0.09193 0.0
O520 O 0.51441 0.40085 0.09029 0.0
N521 N 0.44807 0.36918 0.03655 0.0
C522 C 0.44396 0.35278 0.05392 0.0
C523 C 0.42761 0.35029 0.0766 0.0
C524 C 0.41564 0.36464 0.08104 0.0
C525 C 0.42008 0.38134 0.0625 0.0
C526 C 0.43648 0.38298 0.03982 0.0
H527 H 0.45315 0.34172 0.05084 0.0
O528 O 0.49296 0.37303 0.12453 0.0
O529 O 0.48146 0.38267 0.05966 0.0
O530 O 0.5029 0.35129 0.04814 0.0
O531 O 0.47856 0.35178 0.00316 0.0
C532 C 0.40905 0.39653 0.06649 0.0
C533 C 0.41467 0.41307 0.04834 0.0
H534 H 0.43035 0.44279 0.01121 0.0
H535 H 0.46039 0.44334 0.97522 0.0
H536 H 0.42429 0.33737 0.09088 0.0
H537 H 0.40314 0.36272 0.09903 0.0
H538 H 0.39633 0.39569 0.08403 0.0
H539 H 0.40618 0.4247 0.05219 0.0
Mn540 Mn 0.11971 0.50428 0.56096 0.0
Mn541 Mn 0.12262 0.46806 0.49287 0.0
C542 C 0.11906 0.47606 0.59225 0.0
C543 C 0.10265 0.52597 0.59751 0.0
C544 C 0.15458 0.49068 0.51905 0.0
O545 O 0.11436 0.51444 0.49823 0.0
O546 O 0.11567 0.48933 0.45579 0.0
C547 C 0.08434 0.46475 0.46868 0.0
N548 N 0.09943 0.45756 0.48707 0.0
C549 C 0.08404 0.43025 0.50554 0.0
C550 C 0.06837 0.43732 0.48648 0.0
C551 C 0.06852 0.45465 0.468 0.0
C552 C 0.09945 0.44087 0.50483 0.0
H553 H 0.08436 0.47813 0.45478 0.0
C554 C 0.11314 0.5062 0.46023 0.0
O555 O 0.11955 0.52848 0.58941 0.0
O556 O 0.09563 0.51119 0.58299 0.0
N557 N 0.12904 0.44659 0.52447 0.0
C558 C 0.14502 0.44211 0.54367 0.0
C559 C 0.14696 0.42538 0.56483 0.0
C560 C 0.13249 0.41342 0.56589 0.0
C561 C 0.11624 0.41825 0.54548 0.0
C562 C 0.11516 0.43503 0.52444 0.0
H563 H 0.15615 0.4513 0.54322 0.0
O564 O 0.12344 0.48973 0.61704 0.0
O565 O 0.11497 0.47937 0.5499 0.0
O566 O 0.14611 0.50169 0.54429 0.0
O567 O 0.14708 0.47775 0.49798 0.0
C568 C 0.10096 0.40724 0.54604 0.0
C569 C 0.08488 0.41323 0.5261 0.0
H570 H 0.0561 0.42963 0.48624 0.0
H571 H 0.05645 0.46024 0.45348 0.0
H572 H 0.15954 0.42175 0.58056 0.0
H573 H 0.13397 0.40061 0.58272 0.0
H574 H 0.10137 0.39423 0.56225 0.0
H575 H 0.07316 0.40474 0.52726 0.0
C576 C 0.98183 0.67953 0.97953 0.0
C577 C 0.99369 0.67057 0.00894 0.0
C578 C 0.98246 0.69808 0.9752 0.0
C579 C 0.01074 0.73773 0.9959 0.0
H580 H 0.96522 0.76252 0.99404 0.0
C581 C 0.00386 0.81299 0.9542 0.0
C582 C 0.99108 0.82285 0.97882 0.0
C583 C 0.00507 0.79447 0.95942 0.0
C584 C 0.97806 0.75583 0.99497 0.0
H585 H 0.01584 0.67417 0.056 0.0
H586 H 0.01676 0.7066 0.04874 0.0
H587 H 0.9658 0.7301 -0.00054 0.0
H588 H 0.96993 0.82095 0.0294 0.0
H589 H 0.97224 0.78874 0.03888 0.0
H590 H 0.02298 0.76358 0.9923 0.0
C591 C 0.0071 0.6992 0.02871 0.0
C592 C 0.97838 0.73722 0.99743 0.0
C593 C 0.00651 0.6806 0.033 0.0
C594 C 0.97986 0.8138 0.00963 0.0
C595 C 0.9811 0.79531 0.01491 0.0
C596 C 0.01042 0.75639 0.99346 0.0
C597 C 0.9949 0.70815 0.00026 0.0
C598 C 0.99472 0.72795 0.99774 0.0
C599 C 0.99355 0.78541 0.98942 0.0
C600 C 0.99406 0.76563 0.99293 0.0
H601 H 0.97186 0.67226 0.96021 0.0
H602 H 0.9731 0.70456 0.95232 0.0
H603 H 0.02354 0.73096 0.99579 0.0
H604 H 0.01272 0.8195 0.93012 0.0
H605 H 0.01469 0.78721 0.93896 0.0
C606 C 0.68133 0.98629 0.5171 0.0
C607 C 0.6719 0.99664 0.48505 0.0
C608 C 0.69977 0.98825 0.52214 0.0
C609 C 0.73731 0.0018 0.54155 0.0
H610 H 0.766 0.00193 0.43123 0.0
C611 C 0.81408 0.00878 0.54568 0.0
C612 C 0.82355 0.99637 0.51891 0.0
C613 C 0.79561 0.01068 0.54077 0.0
C614 C 0.75815 0.00191 0.4623 0.0
H615 H 0.67452 0.01744 0.43371 0.0
H616 H 0.70676 0.0208 0.44257 0.0
H617 H 0.73343 0.00188 0.42549 0.0
H618 H 0.82101 0.97652 0.46521 0.0
H619 H 0.7888 0.97987 0.45677 0.0
H620 H 0.76202 0.00138 0.57836 0.0
C621 C 0.69982 0.01111 0.46357 0.0
C622 C 0.73953 0.00206 0.45903 0.0
C623 C 0.68133 0.00924 0.45871 0.0
C624 C 0.81417 0.9862 0.48642 0.0
C625 C 0.79572 0.98819 0.48136 0.0
C626 C 0.75593 0.00177 0.54482 0.0
C627 C 0.70922 0.00054 0.49509 0.0
C628 C 0.72893 0.00175 0.49863 0.0
C629 C 0.78623 0.00031 0.5088 0.0
C630 C 0.76653 0.00159 0.50522 0.0
H631 H 0.67452 0.97647 0.53799 0.0
H632 H 0.7067 0.97978 0.54637 0.0
H633 H 0.72946 0.00172 0.57262 0.0
H634 H 0.82086 0.01687 0.57099 0.0
H635 H 0.78865 0.02025 0.56206 0.0
C636 C 0.51676 0.81549 0.98745 0.0
C637 C 0.50592 0.82434 0.01951 0.0
C638 C 0.51553 0.797 0.98184 0.0
C639 C 0.50276 0.75919 0.96061 0.0
H640 H 0.50262 0.72976 0.06972 0.0
C641 C 0.49332 0.68255 0.95551 0.0
C642 C 0.50544 0.67256 0.98191 0.0
C643 C 0.49237 0.70111 0.96011 0.0
C644 C 0.50267 0.73782 0.03898 0.0
H645 H 0.48513 0.82063 0.07043 0.0
H646 H 0.48308 0.78838 0.06059 0.0
H647 H 0.50287 0.76227 0.07683 0.0
H648 H 0.52592 0.67429 0.03431 0.0
H649 H 0.52418 0.70663 0.04232 0.0
H650 H 0.50283 0.73471 0.92278 0.0
C651 C 0.49257 0.79578 0.04003 0.0
C652 C 0.50265 0.7564 0.04304 0.0
C653 C 0.4937 0.81428 0.04544 0.0
C654 C 0.51643 0.68154 0.01342 0.0
C655 C 0.51537 0.70006 0.01823 0.0
C656 C 0.50264 0.74059 0.95655 0.0
C657 C 0.50354 0.78696 0.00837 0.0
C658 C 0.50284 0.76726 0.0039 0.0
C659 C 0.50342 0.71004 0.99144 0.0
C660 C 0.50275 0.72974 0.99571 0.0
H661 H 0.52632 0.8228 0.96689 0.0
H662 H 0.52428 0.79051 0.95749 0.0
H663 H 0.50276 0.76726 0.92989 0.0
H664 H 0.48467 0.67609 0.93087 0.0
H665 H 0.48293 0.70848 0.9393 0.0
C666 C 0.68204 0.49166 0.54113 0.0
C667 C 0.67195 0.50376 0.51488 0.0
C668 C 0.70057 0.49067 0.53599 0.0
C669 C 0.74001 0.50082 0.53877 0.0
H670 H 0.76154 0.50152 0.4183 0.0
C671 C 0.81477 0.51532 0.50852 0.0
C672 C 0.82374 0.50469 0.47624 0.0
C673 C 0.79627 0.51403 0.51374 0.0
C674 C 0.75571 0.50117 0.45215 0.0
H675 H 0.67349 0.52413 0.46215 0.0
H676 H 0.7058 0.52234 0.45329 0.0
H677 H 0.72902 0.50111 0.42573 0.0
H678 H 0.82023 0.48425 0.42435 0.0
H679 H 0.78792 0.48207 0.43356 0.0
H680 H 0.7667 0.50094 0.56519 0.0
C681 C 0.69932 0.51357 0.47763 0.0
C682 C 0.73712 0.5011 0.45639 0.0
C683 C 0.68081 0.51465 0.48294 0.0
C684 C 0.81378 0.49265 0.44954 0.0
C685 C 0.79525 0.49145 0.4546 0.0
C686 C 0.7586 0.50101 0.53454 0.0
C687 C 0.70939 0.50166 0.5043 0.0
C688 C 0.72909 0.50103 0.49974 0.0
C689 C 0.78632 0.50216 0.48665 0.0
C690 C 0.76663 0.50128 0.49118 0.0
H691 H 0.67568 0.48306 0.56605 0.0
H692 H 0.708 0.48124 0.5567 0.0
H693 H 0.73418 0.50091 0.57262 0.0
H694 H 0.82199 0.52475 0.52965 0.0
H695 H 0.7897 0.52259 0.53837 0.0
C696 C 0.01405 0.31612 0.00733 0.0
C697 C 0.00287 0.32479 0.9757 0.0
C698 C 0.01313 0.29762 0.01309 0.0
C699 C 0.00092 0.25979 0.03559 0.0
H700 H 0.00046 0.22991 0.92737 0.0
C701 C 0.99249 0.18324 0.04448 0.0
C702 C 0.00461 0.17319 0.01824 0.0
C703 C 0.9912 0.20172 0.03867 0.0
C704 C 0.00061 0.2381 0.95786 0.0
H705 H 0.98184 0.32076 0.92559 0.0
H706 H 0.98033 0.28846 0.9357 0.0
H707 H 0.00029 0.26241 0.91931 0.0
H708 H 0.02463 0.1747 0.96467 0.0
H709 H 0.02229 0.20694 0.95457 0.0
H710 H 0.00151 0.23548 0.07413 0.0
C711 C 0.98984 0.29602 0.95582 0.0
C712 C 0.00035 0.25667 0.95327 0.0
C713 C 0.99065 0.31454 0.95027 0.0
C714 C 0.01515 0.18201 0.98547 0.0
C715 C 0.01376 0.20047 0.97948 0.0
C716 C 0.00104 0.24121 0.04019 0.0
C717 C 0.00112 0.28738 0.98715 0.0
C718 C 0.00065 0.26769 0.99209 0.0
C719 C 0.00189 0.21052 0.00631 0.0
C720 C 0.00103 0.23019 0.00136 0.0
H721 H 0.02362 0.32358 0.02749 0.0
H722 H 0.02211 0.29127 0.03717 0.0
H723 H 0.00102 0.26797 0.06609 0.0
H724 H 0.98416 0.17691 0.07002 0.0
H725 H 0.98181 0.20913 0.05949 0.0
C726 C 0.31434 0.01072 0.48726 0.0
C727 C 0.32347 0.00015 0.51943 0.0
C728 C 0.29589 0.00903 0.48166 0.0
C729 C 0.25556 0.99528 0.5428 0.0
H730 H 0.23396 0.99605 0.42242 0.0
C731 C 0.18169 0.98815 0.4527 0.0
C732 C 0.17195 0.00042 0.47925 0.0
C733 C 0.20015 0.9864 0.45834 0.0
C734 C 0.23981 0.99564 0.45624 0.0
H735 H 0.32029 0.97934 0.57057 0.0
H736 H 0.28806 0.97648 0.56071 0.0
H737 H 0.26647 0.99589 0.42972 0.0
H738 H 0.174 0.02018 0.53332 0.0
H739 H 0.20616 0.01709 0.54302 0.0
H740 H 0.22889 0.99516 0.56932 0.0
C741 C 0.29524 0.98612 0.54005 0.0
C742 C 0.25839 0.99572 0.46041 0.0
C743 C 0.31371 0.98772 0.54549 0.0
C744 C 0.18105 0.0106 0.51225 0.0
C745 C 0.19947 0.00877 0.51804 0.0
C746 C 0.23697 0.99531 0.53863 0.0
C747 C 0.28614 0.99682 0.50825 0.0
C748 C 0.26645 0.99571 0.50374 0.0
C749 C 0.20923 0.99679 0.49084 0.0
C750 C 0.22892 0.99566 0.49532 0.0
H751 H 0.3214 0.02044 0.46661 0.0
H752 H 0.28919 0.01761 0.45725 0.0
H753 H 0.26141 0.9954 0.57664 0.0
H754 H 0.17513 0.98007 0.427 0.0
H755 H 0.20732 0.97694 0.43721 0.0
C756 C 0.50283 0.18182 0.95361 0.0
C757 C 0.49077 0.17221 0.9811 0.0
C758 C 0.50431 0.20036 0.9578 0.0
C759 C 0.49492 0.24006 0.95416 0.0
H760 H 0.49641 0.26215 0.07389 0.0
C761 C 0.48189 0.31515 0.98436 0.0
C762 C 0.4931 0.32405 0.01548 0.0
C763 C 0.48296 0.29664 0.97904 0.0
C764 C 0.49616 0.25617 0.04023 0.0
H765 H 0.47099 0.1746 0.03504 0.0
H766 H 0.47366 0.20689 0.04234 0.0
H767 H 0.49606 0.22962 0.06752 0.0
H768 H 0.51442 0.32039 0.06501 0.0
H769 H 0.51619 0.28808 0.05569 0.0
H770 H 0.4949 0.26663 0.92689 0.0
C771 C 0.48201 0.20005 0.0177 0.0
C772 C 0.49579 0.23757 0.03661 0.0
C773 C 0.48042 0.18155 0.0133 0.0
C774 C 0.50556 0.314 0.04075 0.0
C775 C 0.50653 0.29548 0.03563 0.0
C776 C 0.49515 0.25867 0.95779 0.0
C777 C 0.49388 0.20964 0.98981 0.0
C778 C 0.49506 0.22934 0.99357 0.0
C779 C 0.49517 0.28661 0.00492 0.0
C780 C 0.49566 0.2669 0.00087 0.0
H781 H 0.511 0.17508 0.92842 0.0
H782 H 0.51368 0.20743 0.93613 0.0
H783 H 0.49422 0.23406 0.92056 0.0
H784 H 0.47214 0.32245 0.96432 0.0
H785 H 0.47391 0.29012 0.95544 0.0
C786 C 0.31647 0.50609 0.45858 0.0
C787 C 0.32616 0.49366 0.48483 0.0
C788 C 0.29795 0.50752 0.46327 0.0
C789 C 0.26053 0.49735 0.54069 0.0
H790 H 0.23207 0.49767 0.42997 0.0
C791 C 0.18375 0.48229 0.48293 0.0
C792 C 0.17419 0.49275 0.51446 0.0
C793 C 0.20227 0.48391 0.47919 0.0
C794 C 0.23986 0.49758 0.46116 0.0
H795 H 0.32393 0.47327 0.53734 0.0
H796 H 0.29164 0.47581 0.54539 0.0
H797 H 0.26464 0.49778 0.42469 0.0
H798 H 0.17668 0.5132 0.56668 0.0
H799 H 0.20908 0.51594 0.56012 0.0
H800 H 0.23573 0.49678 0.57713 0.0
C801 C 0.29842 0.4845 0.52139 0.0
C802 C 0.25848 0.49782 0.45815 0.0
C803 C 0.31692 0.48298 0.51653 0.0
C804 C 0.1836 0.50494 0.542 0.0
C805 C 0.20217 0.50646 0.53846 0.0
C806 C 0.2419 0.49724 0.54371 0.0
C807 C 0.28873 0.49665 0.49449 0.0
C808 C 0.269 0.49749 0.49788 0.0
C809 C 0.21167 0.49593 0.50706 0.0
C810 C 0.23139 0.49714 0.50395 0.0
H811 H 0.32313 0.51456 0.43388 0.0
H812 H 0.29083 0.51713 0.44241 0.0
H813 H 0.26833 0.49724 0.57187 0.0
H814 H 0.17696 0.47275 0.46118 0.0
H815 H 0.20928 0.47547 0.45506 0.0
C816 C 0.00594 0.59455 0.88402 0.0
C817 C 0.01552 0.60163 0.92117 0.0
C818 C 0.01492 0.58822 0.84548 0.0
C819 C 0.05722 0.59091 0.78212 0.0
H820 H 0.0441 0.54382 0.73833 0.0
C821 C 0.10074 0.55037 0.65568 0.0
C822 C 0.09216 0.5384 0.62599 0.0
C823 C 0.09086 0.56 0.6879 0.0
C824 C 0.04774 0.55714 0.74936 0.0
H825 H 0.04207 0.60794 0.9464 0.0
H826 H 0.0577 0.59694 0.87885 0.0
H827 H 0.02787 0.55691 0.80188 0.0
H828 H 0.06646 0.52807 0.60432 0.0
H829 H 0.04917 0.54536 0.6591 0.0
H830 H 0.07706 0.59119 0.72942 0.0
C831 C 0.04324 0.59634 0.8797 0.0
C832 C 0.03846 0.5646 0.78601 0.0
C833 C 0.03428 0.60251 0.91849 0.0
C834 C 0.07345 0.53706 0.62715 0.0
C835 C 0.06356 0.54686 0.65885 0.0
C836 C 0.06642 0.58352 0.74505 0.0
C837 C 0.03365 0.58898 0.84301 0.0
C838 C 0.04317 0.58149 0.80298 0.0
C839 C 0.07218 0.55801 0.69067 0.0
C840 C 0.06186 0.56648 0.72838 0.0
H841 H 0.99149 0.59364 0.88489 0.0
H842 H 0.00719 0.58272 0.81753 0.0
H843 H 0.06102 0.60404 0.79429 0.0
H844 H 0.11517 0.5516 0.65568 0.0
H845 H 0.098 0.56833 0.71202 0.0
C846 C 0.94564 0.10394 0.16802 0.0
C847 C 0.95831 0.09453 0.14205 0.0
C848 C 0.93529 0.09505 0.20068 0.0
C849 C 0.91922 0.0509 0.23776 0.0
H850 H 0.92175 0.07078 0.35982 0.0
C851 C 0.90057 0.00952 0.39657 0.0
C852 C 0.89269 0.0182 0.43405 0.0
C853 C 0.90684 0.01933 0.35928 0.0
C854 C 0.92057 0.06517 0.32588 0.0
H855 H 0.96943 0.06833 0.12808 0.0
H856 H 0.95112 0.05277 0.18448 0.0
H857 H 0.93481 0.0871 0.29609 0.0
H858 H 0.88486 0.044 0.46124 0.0
H859 H 0.89529 0.06107 0.39562 0.0
H860 H 0.90491 0.02902 0.26724 0.0
C861 C 0.94927 0.06702 0.1798 0.0
C862 C 0.9281 0.07454 0.28937 0.0
C863 C 0.95979 0.07594 0.14766 0.0
C864 C 0.89101 0.03691 0.4331 0.0
C865 C 0.89708 0.04671 0.3955 0.0
C866 C 0.91148 0.04162 0.27417 0.0
C867 C 0.93723 0.07655 0.20739 0.0
C868 C 0.92774 0.06737 0.24509 0.0
C869 C 0.90518 0.03805 0.3582 0.0
C870 C 0.91231 0.04849 0.31887 0.0
H871 H 0.94424 0.11828 0.16452 0.0
H872 H 0.92601 0.10267 0.2213 0.0
H873 H 0.91863 0.04516 0.20385 0.0
H874 H 0.9022 0.99514 0.39633 0.0
H875 H 0.91332 0.0122 0.33171 0.0
C876 C 0.49122 0.8997 0.89503 0.0
C877 C 0.48208 0.89259 0.93288 0.0
C878 C 0.48182 0.90595 0.85711 0.0
C879 C 0.43905 0.90311 0.79615 0.0
H880 H 0.45186 0.95018 0.7515 0.0
C881 C 0.3955 0.94328 0.66835 0.0
C882 C 0.40419 0.95512 0.63851 0.0
C883 C 0.40529 0.93373 0.70097 0.0
C884 C 0.4483 0.93686 0.7628 0.0
H885 H 0.45585 0.8861 0.95993 0.0
H886 H 0.43944 0.89699 0.89332 0.0
H887 H 0.46832 0.93726 0.81491 0.0
H888 H 0.42996 0.96527 0.61685 0.0
H889 H 0.44709 0.94811 0.67223 0.0
H890 H 0.41908 0.90266 0.74374 0.0
C891 C 0.45391 0.89767 0.89323 0.0
C892 C 0.45771 0.92951 0.79937 0.0
C893 C 0.46331 0.89156 0.93146 0.0
C894 C 0.4229 0.95638 0.63982 0.0
C895 C 0.43269 0.94665 0.67187 0.0
C896 C 0.42972 0.9104 0.75913 0.0
C897 C 0.46308 0.9051 0.85591 0.0
C898 C 0.45316 0.9126 0.81652 0.0
C899 C 0.42397 0.93569 0.70393 0.0
C900 C 0.43422 0.92741 0.74205 0.0
H901 H 0.50567 0.90071 0.89489 0.0
H902 H 0.48923 0.91148 0.82863 0.0
H903 H 0.43537 0.88997 0.80852 0.0
H904 H 0.38107 0.94212 0.66821 0.0
H905 H 0.39809 0.92551 0.72523 0.0
C906 C 0.54121 0.42156 0.13536 0.0
C907 C 0.54256 0.40295 0.12999 0.0
C908 C 0.55197 0.43049 0.16692 0.0
C909 C 0.57331 0.42261 0.27607 0.0
H910 H 0.59505 0.46901 0.25621 0.0
C911 C 0.60793 0.46061 0.42267 0.0
C912 C 0.6052 0.47918 0.42464 0.0
C913 C 0.60277 0.45088 0.38414 0.0
C914 C 0.58891 0.45613 0.26246 0.0
H915 H 0.55681 0.3792 0.15183 0.0
H916 H 0.57551 0.39483 0.20752 0.0
H917 H 0.5821 0.45281 0.19186 0.0
H918 H 0.59491 0.50209 0.38758 0.0
H919 H 0.58538 0.48509 0.32119 0.0
H920 H 0.57928 0.42614 0.34678 0.0
C921 C 0.5661 0.40247 0.18725 0.0
C922 C 0.5816 0.44683 0.22552 0.0
C923 C 0.55549 0.39356 0.15522 0.0
C924 C 0.59731 0.48781 0.38709 0.0
C925 C 0.59195 0.47806 0.3488 0.0
C926 C 0.58042 0.43198 0.31307 0.0
C927 C 0.56416 0.42096 0.19411 0.0
C928 C 0.57355 0.43007 0.23208 0.0
C929 C 0.59455 0.45944 0.34686 0.0
C930 C 0.58811 0.44897 0.30688 0.0
H931 H 0.5314 0.42916 0.1163 0.0
H932 H 0.5501 0.44472 0.1717 0.0
H933 H 0.56694 0.40983 0.28225 0.0
H934 H 0.61415 0.45356 0.45081 0.0
H935 H 0.60527 0.43663 0.3836 0.0
C936 C 0.10008 0.94567 0.325 0.0
C937 C 0.09135 0.95785 0.35385 0.0
C938 C 0.09045 0.93619 0.29196 0.0
C939 C 0.04791 0.9393 0.22747 0.0
H940 H 0.06043 0.89163 0.18656 0.0
C941 C 0.00473 0.90017 0.09936 0.0
C942 C 0.0138 0.89245 0.06221 0.0
C943 C 0.0142 0.90709 0.1364 0.0
C944 C 0.05687 0.90499 0.19756 0.0
H945 H 0.0656 0.96879 0.37296 0.0
H946 H 0.04871 0.95177 0.31687 0.0
H947 H 0.0766 0.90503 0.25054 0.0
H948 H 0.03998 0.88561 0.03549 0.0
H949 H 0.05651 0.89759 0.10067 0.0
H950 H 0.02805 0.93915 0.1749 0.0
C951 C 0.06306 0.94998 0.31835 0.0
C952 C 0.06615 0.91269 0.23411 0.0
C953 C 0.07271 0.95963 0.35083 0.0
C954 C 0.03258 0.89152 0.06344 0.0
C955 C 0.04205 0.89827 0.10085 0.0
C956 C 0.03854 0.93153 0.19139 0.0
C957 C 0.07185 0.93855 0.28754 0.0
C958 C 0.06178 0.92997 0.24952 0.0
C959 C 0.03295 0.90629 0.13744 0.0
C960 C 0.04293 0.91432 0.17602 0.0
H961 H 0.11446 0.94411 0.32641 0.0
H962 H 0.09772 0.92763 0.26867 0.0
H963 H 0.04445 0.95279 0.23744 0.0
H964 H 0.99028 0.90115 0.09958 0.0
H965 H 0.00685 0.91308 0.16435 0.0
C966 C 0.54846 0.09989 0.83671 0.0
C967 C 0.53645 0.09108 0.86587 0.0
C968 C 0.55827 0.09024 0.80439 0.0
C969 C 0.55615 0.04725 0.74193 0.0
H970 H 0.60309 0.06124 0.69857 0.0
C971 C 0.59519 0.00595 0.60937 0.0
C972 C 0.60216 0.01558 0.57214 0.0
C973 C 0.58845 0.0149 0.64748 0.0
C974 C 0.58995 0.05725 0.71031 0.0
H975 H 0.5262 0.06522 0.8865 0.0
H976 H 0.54382 0.04831 0.83165 0.0
H977 H 0.58971 0.07699 0.7632 0.0
H978 H 0.60786 0.04218 0.54633 0.0
H979 H 0.59619 0.05777 0.61326 0.0
H980 H 0.55649 0.02743 0.68931 0.0
C981 C 0.54522 0.06271 0.83231 0.0
C982 C 0.58225 0.06628 0.74723 0.0
C983 C 0.53523 0.07238 0.86407 0.0
C984 C 0.60252 0.03436 0.57431 0.0
C985 C 0.59597 0.04329 0.61274 0.0
C986 C 0.56393 0.03812 0.70548 0.0
C987 C 0.55643 0.07155 0.80104 0.0
C988 C 0.56519 0.06146 0.76335 0.0
C989 C 0.58871 0.03365 0.64948 0.0
C990 C 0.58084 0.04309 0.68911 0.0
H991 H 0.5496 0.11432 0.8372 0.0
H992 H 0.56664 0.09755 0.7807 0.0
H993 H 0.54283 0.04342 0.75251 0.0
H994 H 0.59467 0.99149 0.60886 0.0
H995 H 0.58304 0.00714 0.67549 0.0
C996 C 0.39986 0.55545 0.35288 0.0
C997 C 0.40719 0.53912 0.36739 0.0
C998 C 0.40919 0.56634 0.32213 0.0
C999 C 0.42539 0.57952 0.23322 0.0
H1000 H 0.47718 0.57998 0.22968 0.0
C1001 C 0.46417 0.59771 0.07 0.0
C1002 C 0.48102 0.60588 0.07378 0.0
C1003 C 0.45499 0.59207 0.10895 0.0
C1004 C 0.46272 0.58031 0.23038 0.0
H1005 H 0.43025 0.52165 0.36212 0.0
H1006 H 0.44616 0.54021 0.30795 0.0
H1007 H 0.46198 0.56672 0.2945 0.0
H1008 H 0.50113 0.61515 0.12156 0.0
H1009 H 0.48487 0.60589 0.18955 0.0
H1010 H 0.42615 0.59353 0.16962 0.0
C1011 C 0.43345 0.54495 0.32083 0.0
C1012 C 0.45397 0.57243 0.26738 0.0
C1013 C 0.42424 0.53419 0.35178 0.0
C1014 C 0.48826 0.60871 0.11745 0.0
C1015 C 0.47895 0.60331 0.15646 0.0
C1016 C 0.43415 0.58762 0.19648 0.0
C1017 C 0.42596 0.56104 0.30502 0.0
C1018 C 0.4352 0.5715 0.26873 0.0
C1019 C 0.46229 0.5947 0.15273 0.0
C1020 C 0.45293 0.58774 0.194 0.0
H1021 H 0.38677 0.55963 0.3645 0.0
H1022 H 0.40313 0.57878 0.31129 0.0
H1023 H 0.41093 0.57898 0.2328 0.0
H1024 H 0.45827 0.59522 0.03683 0.0
H1025 H 0.44238 0.58519 0.10451 0.0
C1026 C 0.94006 0.39352 0.83444 0.0
C1027 C 0.95278 0.40306 0.85998 0.0
C1028 C 0.92938 0.40235 0.80236 0.0
C1029 C 0.91326 0.44655 0.7646 0.0
H1030 H 0.91649 0.42647 0.64286 0.0
C1031 C 0.89805 0.4882 0.604 0.0
C1032 C 0.89043 0.47974 0.56586 0.0
C1033 C 0.9033 0.47826 0.64208 0.0
C1034 C 0.91509 0.43213 0.67669 0.0
H1035 H 0.96352 0.4294 0.87417 0.0
H1036 H 0.9447 0.44481 0.81873 0.0
H1037 H 0.92876 0.41004 0.70735 0.0
H1038 H 0.8819 0.45421 0.53834 0.0
H1039 H 0.8906 0.43692 0.6052 0.0
H1040 H 0.89965 0.46866 0.7341 0.0
C1041 C 0.94303 0.43054 0.82328 0.0
C1042 C 0.92216 0.42269 0.71367 0.0
C1043 C 0.95386 0.4217 0.85487 0.0
C1044 C 0.8879 0.46113 0.56697 0.0
C1045 C 0.89296 0.4512 0.60529 0.0
C1046 C 0.906 0.45591 0.72769 0.0
C1047 C 0.93106 0.42088 0.7958 0.0
C1048 C 0.92161 0.42995 0.75784 0.0
C1049 C 0.90086 0.45962 0.64322 0.0
C1050 C 0.90715 0.44898 0.6831 0.0
H1051 H 0.93895 0.37914 0.83761 0.0
H1052 H 0.92014 0.39463 0.78182 0.0
H1053 H 0.91253 0.45237 0.79841 0.0
H1054 H 0.90031 0.5025 0.60418 0.0
H1055 H 0.90965 0.48518 0.67018 0.0
C1056 C 0.96076 0.39213 0.06686 0.0
C1057 C 0.97953 0.39296 0.06438 0.0
C1058 C 0.95174 0.39838 0.10552 0.0
C1059 C 0.95671 0.43032 0.19887 0.0
H1060 H 0.91758 0.40447 0.25533 0.0
C1061 C 0.92248 0.45839 0.358 0.0
C1062 C 0.90374 0.45753 0.3593 0.0
C1063 C 0.93208 0.4484 0.32615 0.0
C1064 C 0.92837 0.41193 0.23973 0.0
H1065 H 0.00351 0.40085 0.10103 0.0
H1066 H 0.98774 0.41184 0.1681 0.0
H1067 H 0.93347 0.39127 0.19065 0.0
H1068 H 0.88038 0.44494 0.32971 0.0
H1069 H 0.89708 0.42784 0.27308 0.0
H1070 H 0.9514 0.45122 0.24644 0.0
C1071 C 0.98003 0.40637 0.14008 0.0
C1072 C 0.93748 0.40434 0.20276 0.0
C1073 C 0.98906 0.39999 0.10169 0.0
C1074 C 0.89483 0.44581 0.32959 0.0
C1075 C 0.90443 0.43597 0.2972 0.0
C1076 C 0.94753 0.43796 0.23542 0.0
C1077 C 0.96129 0.40575 0.14227 0.0
C1078 C 0.95174 0.41348 0.182 0.0
C1079 C 0.92316 0.43752 0.29429 0.0
C1080 C 0.93324 0.42888 0.25641 0.0
H1081 H 0.953 0.38675 0.03884 0.0
H1082 H 0.93728 0.39787 0.10615 0.0
H1083 H 0.96744 0.43781 0.18305 0.0
H1084 H 0.92972 0.46718 0.38085 0.0
H1085 H 0.94651 0.44955 0.3258 0.0
C1086 C 0.04794 0.89339 0.82546 0.0
C1087 C 0.03609 0.90242 0.85459 0.0
C1088 C 0.05756 0.9028 0.79225 0.0
C1089 C 0.05509 0.94537 0.72786 0.0
H1090 H 0.1023 0.93192 0.68539 0.0
C1091 C 0.09456 0.98804 0.5995 0.0
C1092 C 0.10198 0.97895 0.56198 0.0
C1093 C 0.08758 0.97857 0.63647 0.0
C1094 C 0.08906 0.93573 0.69682 0.0
H1095 H 0.02592 0.92843 0.87415 0.0
H1096 H 0.0432 0.94491 0.81778 0.0
H1097 H 0.08888 0.91597 0.74975 0.0
H1098 H 0.10819 0.95274 0.53447 0.0
H1099 H 0.09608 0.93621 0.59957 0.0
H1100 H 0.05539 0.96526 0.67537 0.0
C1101 C 0.04461 0.93052 0.81915 0.0
C1102 C 0.08135 0.92659 0.7336 0.0
C1103 C 0.03482 0.9211 0.85179 0.0
C1104 C 0.10252 0.96015 0.56273 0.0
C1105 C 0.0957 0.95068 0.60008 0.0
C1106 C 0.06287 0.9546 0.69156 0.0
C1107 C 0.05566 0.92145 0.78795 0.0
C1108 C 0.06425 0.93132 0.74961 0.0
C1109 C 0.088 0.95981 0.63707 0.0
C1110 C 0.07992 0.94988 0.67566 0.0
H1111 H 0.0491 0.87897 0.82672 0.0
H1112 H 0.06583 0.89534 0.76868 0.0
H1113 H 0.04172 0.9491 0.73829 0.0
H1114 H 0.09389 0.0025 0.60011 0.0
H1115 H 0.08185 0.98594 0.66474 0.0
C1116 C 0.5965 0.05571 0.35137 0.0
C1117 C 0.58964 0.03918 0.3659 0.0
C1118 C 0.58695 0.06625 0.32029 0.0
C1119 C 0.54213 0.07111 0.26522 0.0
H1120 H 0.56942 0.09292 0.1675 0.0
C1121 C 0.53103 0.09706 0.06862 0.0
C1122 C 0.51417 0.10516 0.07305 0.0
C1123 C 0.54039 0.09128 0.10719 0.0
C1124 C 0.56157 0.08681 0.19436 0.0
H1125 H 0.56716 0.02099 0.36031 0.0
H1126 H 0.55082 0.039 0.30566 0.0
H1127 H 0.58499 0.07858 0.23052 0.0
H1128 H 0.49422 0.11412 0.12166 0.0
H1129 H 0.51076 0.10457 0.18892 0.0
H1130 H 0.51873 0.07833 0.2278 0.0
C1131 C 0.56335 0.04412 0.31874 0.0
C1132 C 0.57052 0.07883 0.23098 0.0
C1133 C 0.57281 0.0337 0.34996 0.0
C1134 C 0.50709 0.10775 0.117 0.0
C1135 C 0.51655 0.10219 0.15561 0.0
C1136 C 0.53319 0.07891 0.22839 0.0
C1137 C 0.57039 0.06042 0.30292 0.0
C1138 C 0.56091 0.0706 0.26651 0.0
C1139 C 0.53323 0.09367 0.15121 0.0
C1140 C 0.54279 0.08662 0.19209 0.0
H1141 H 0.60942 0.06032 0.3632 0.0
H1142 H 0.59265 0.07886 0.30944 0.0
H1143 H 0.53426 0.06519 0.29234 0.0
H1144 H 0.53682 0.09476 0.03524 0.0
H1145 H 0.55302 0.0845 0.10228 0.0
C1146 C 0.40147 0.50778 0.61128 0.0
C1147 C 0.39378 0.51645 0.57349 0.0
C1148 C 0.40702 0.51757 0.64935 0.0
C1149 C 0.41932 0.5636 0.68411 0.0
H1150 H 0.41696 0.54332 0.80587 0.0
C1151 C 0.4437 0.60254 0.84167 0.0
C1152 C 0.45645 0.59321 0.86761 0.0
C1153 C 0.43324 0.59354 0.80949 0.0
C1154 C 0.41765 0.54915 0.77204 0.0
H1155 H 0.38541 0.54215 0.54665 0.0
H1156 H 0.39459 0.55914 0.61346 0.0
H1157 H 0.40402 0.52701 0.74168 0.0
H1158 H 0.46746 0.56702 0.88235 0.0
H1159 H 0.44901 0.5513 0.82668 0.0
H1160 H 0.43295 0.58572 0.71463 0.0
C1161 C 0.39681 0.54484 0.61328 0.0
C1162 C 0.41036 0.53977 0.7352 0.0
C1163 C 0.39147 0.53508 0.57498 0.0
C1164 C 0.45778 0.57458 0.86273 0.0
C1165 C 0.44717 0.56556 0.83102 0.0
C1166 C 0.42641 0.57304 0.72101 0.0
C1167 C 0.40481 0.53624 0.65081 0.0
C1168 C 0.41137 0.54674 0.69061 0.0
C1169 C 0.43516 0.57502 0.80319 0.0
C1170 C 0.4259 0.56579 0.76521 0.0
H1171 H 0.40354 0.49345 0.61114 0.0
H1172 H 0.41341 0.5105 0.67717 0.0
H1173 H 0.42065 0.56928 0.65028 0.0
H1174 H 0.44239 0.61691 0.84467 0.0
H1175 H 0.42396 0.60112 0.7887 0.0
C1176 C 0.89594 0.05091 0.67099 0.0
C1177 C 0.90463 0.03869 0.64218 0.0
C1178 C 0.90562 0.06039 0.70393 0.0
C1179 C 0.94809 0.05714 0.7685 0.0
H1180 H 0.93565 0.10483 0.80943 0.0
C1181 C 0.99099 0.09595 0.89785 0.0
C1182 C 0.98182 0.10368 0.93481 0.0
C1183 C 0.98163 0.08911 0.86053 0.0
C1184 C 0.93918 0.09147 0.79842 0.0
H1185 H 0.93034 0.02766 0.62303 0.0
H1186 H 0.9473 0.04466 0.67901 0.0
H1187 H 0.91957 0.09154 0.74516 0.0
H1188 H 0.95557 0.11062 0.96093 0.0
H1189 H 0.93923 0.09877 0.89528 0.0
H1190 H 0.96782 0.05718 0.82139 0.0
C1191 C 0.93295 0.0465 0.67754 0.0
C1192 C 0.92997 0.08383 0.7617 0.0
C1193 C 0.92326 0.03686 0.64513 0.0
C1194 C 0.96305 0.1047 0.93313 0.0
C1195 C 0.95369 0.09803 0.89546 0.0
C1196 C 0.9574 0.06485 0.80476 0.0
C1197 C 0.9242 0.05798 0.70831 0.0
C1198 C 0.93429 0.06654 0.74632 0.0
C1199 C 0.96289 0.09001 0.85904 0.0
C1200 C 0.95302 0.08206 0.82017 0.0
H1201 H 0.88156 0.05252 0.66962 0.0
H1202 H 0.89838 0.06899 0.72721 0.0
H1203 H 0.95152 0.04364 0.75852 0.0
H1204 H 0.00544 0.09491 0.89797 0.0
H1205 H 0.98906 0.08312 0.83273 0.0
C1206 C 0.38987 0.95917 0.43052 0.0
C1207 C 0.39186 0.97783 0.43238 0.0
C1208 C 0.39577 0.94956 0.39248 0.0
C1209 C 0.4105 0.95519 0.27155 0.0
H1210 H 0.43349 0.90947 0.29256 0.0
C1211 C 0.45916 0.92132 0.14529 0.0
C1212 C 0.45785 0.90272 0.13956 0.0
C1213 C 0.44842 0.93012 0.17715 0.0
C1214 C 0.42686 0.92209 0.28607 0.0
H1215 H 0.40169 0.00104 0.39567 0.0
H1216 H 0.41251 0.98429 0.33021 0.0
H1217 H 0.42033 0.92553 0.35649 0.0
H1218 H 0.4438 0.87884 0.16135 0.0
H1219 H 0.42516 0.89425 0.21756 0.0
H1220 H 0.41783 0.95197 0.20126 0.0
C1221 C 0.40593 0.97706 0.35747 0.0
C1222 C 0.41927 0.93131 0.3227 0.0
C1223 C 0.39982 0.98668 0.39524 0.0
C1224 C 0.44508 0.89319 0.16498 0.0
C1225 C 0.4345 0.90197 0.19732 0.0
C1226 C 0.41829 0.94605 0.235 0.0
C1227 C 0.40403 0.95836 0.35561 0.0
C1228 C 0.41115 0.94808 0.31605 0.0
C1229 C 0.43632 0.92046 0.20429 0.0
C1230 C 0.42668 0.92949 0.242 0.0
H1231 H 0.38363 0.95195 0.45836 0.0
H1232 H 0.39379 0.93523 0.39197 0.0
H1233 H 0.40404 0.96788 0.26491 0.0
H1234 H 0.46886 0.92902 0.12612 0.0
H1235 H 0.45018 0.94436 0.18203 0.0
C1236 C 0.53482 0.39113 0.92306 0.0
C1237 C 0.51605 0.39187 0.92537 0.0
C1238 C 0.54384 0.39713 0.88414 0.0
C1239 C 0.53879 0.42833 0.78921 0.0
H1240 H 0.57826 0.40243 0.73456 0.0
C1241 C 0.57338 0.456 0.63029 0.0
C1242 C 0.59213 0.45538 0.62976 0.0
C1243 C 0.56372 0.44593 0.66189 0.0
C1244 C 0.56736 0.4099 0.74964 0.0
H1245 H 0.49206 0.3993 0.88814 0.0
H1246 H 0.50783 0.40986 0.82059 0.0
H1247 H 0.56228 0.38951 0.79954 0.0
H1248 H 0.61548 0.44311 0.66031 0.0
H1249 H 0.59866 0.42589 0.71656 0.0
H1250 H 0.54408 0.44898 0.74087 0.0
C1251 C 0.51554 0.40466 0.84896 0.0
C1252 C 0.55821 0.40248 0.78678 0.0
C1253 C 0.50652 0.39853 0.88763 0.0
C1254 C 0.60101 0.44378 0.65986 0.0
C1255 C 0.59135 0.43388 0.69202 0.0
C1256 C 0.548 0.43581 0.7525 0.0
C1257 C 0.53429 0.40415 0.84693 0.0
C1258 C 0.54384 0.41165 0.80691 0.0
C1259 C 0.57259 0.43525 0.69428 0.0
C1260 C 0.56242 0.42672 0.73217 0.0
H1261 H 0.54259 0.38602 0.95142 0.0
H1262 H 0.55831 0.39671 0.88364 0.0
H1263 H 0.52797 0.43585 0.80454 0.0
H1264 H 0.56617 0.46468 0.6071 0.0
H1265 H 0.54928 0.44692 0.66171 0.0
C1266 C 0.0996 0.5332 0.4232 0.0
C1267 C 0.10817 0.51657 0.41909 0.0
C1268 C 0.0941 0.54256 0.38435 0.0
C1269 C 0.08341 0.53529 0.26218 0.0
H1270 H 0.08065 0.58702 0.26143 0.0
C1271 C 0.05733 0.598 0.14083 0.0
C1272 C 0.04119 0.59035 0.12606 0.0
C1273 C 0.06839 0.58884 0.17154 0.0
C1274 C 0.08161 0.57259 0.26057 0.0
H1275 H 0.11838 0.49709 0.37089 0.0
H1276 H 0.10936 0.51366 0.30319 0.0
H1277 H 0.09524 0.57185 0.32472 0.0
H1278 H 0.02427 0.56686 0.13071 0.0
H1279 H 0.04313 0.55119 0.18465 0.0
H1280 H 0.07014 0.53602 0.19763 0.0
C1281 C 0.10635 0.51925 0.33639 0.0
C1282 C 0.08973 0.56385 0.29734 0.0
C1283 C 0.1116 0.50977 0.37525 0.0
C1284 C 0.03665 0.57313 0.14127 0.0
C1285 C 0.04758 0.56406 0.17209 0.0
C1286 C 0.0755 0.54402 0.22521 0.0
C1287 C 0.09728 0.53565 0.3404 0.0
C1288 C 0.09034 0.54506 0.29918 0.0
C1289 C 0.06346 0.57188 0.18824 0.0
C1290 C 0.07405 0.56276 0.22447 0.0
H1291 H 0.09666 0.53877 0.45649 0.0
H1292 H 0.08688 0.55497 0.38897 0.0
H1293 H 0.08346 0.52082 0.26237 0.0
H1294 H 0.06122 0.61123 0.12957 0.0
H1295 H 0.08066 0.59515 0.1827 0.0
C1296 C 0.87087 0.54528 0.34012 0.0
C1297 C 0.88287 0.53731 0.37075 0.0
C1298 C 0.87634 0.55964 0.31295 0.0
C1299 C 0.91356 0.59192 0.2941 0.0
H1300 H 0.90433 0.58279 0.1659 0.0
C1301 C 0.955 0.62596 0.1531 0.0
C1302 C 0.96217 0.61355 0.12228 0.0
C1303 C 0.94079 0.62112 0.18158 0.0
C1304 C 0.90686 0.58567 0.20158 0.0
H1305 H 0.91 0.53744 0.39621 0.0
H1306 H 0.91962 0.56249 0.34919 0.0
H1307 H 0.88758 0.56648 0.22381 0.0
H1308 H 0.96098 0.58624 0.09832 0.0
H1309 H 0.93614 0.57774 0.14743 0.0
H1310 H 0.9338 0.61011 0.27175 0.0
C1311 C 0.90581 0.55823 0.34713 0.0
C1312 C 0.89714 0.57646 0.23479 0.0
C1313 C 0.90034 0.54388 0.37409 0.0
C1314 C 0.95511 0.59624 0.12048 0.0
C1315 C 0.94091 0.5914 0.14865 0.0
C1316 C 0.92329 0.60113 0.26085 0.0
C1317 C 0.894 0.56601 0.31549 0.0
C1318 C 0.90098 0.57889 0.28137 0.0
C1319 C 0.93376 0.60369 0.18001 0.0
C1320 C 0.9206 0.59745 0.2143 0.0
H1321 H 0.85742 0.5401 0.33647 0.0
H1322 H 0.86696 0.56536 0.28888 0.0
H1323 H 0.9166 0.59426 0.32977 0.0
H1324 H 0.96058 0.63929 0.15562 0.0
H1325 H 0.93559 0.63082 0.20557 0.0
C1326 C 0.89729 0.95267 0.62275 0.0
C1327 C 0.88014 0.96004 0.62596 0.0
C1328 C 0.90194 0.93785 0.64899 0.0
C1329 C 0.90782 0.90333 0.69984 0.0
H1330 H 0.89927 0.91209 0.8285 0.0
C1331 C 0.9493 0.86777 0.83774 0.0
C1332 C 0.95709 0.88 0.86805 0.0
C1333 C 0.93479 0.87291 0.81057 0.0
C1334 C 0.90158 0.9093 0.79268 0.0
H1335 H 0.85445 0.9582 0.65945 0.0
H1336 H 0.86257 0.93212 0.70594 0.0
H1337 H 0.88306 0.9294 0.77145 0.0
H1338 H 0.95659 0.90725 0.89264 0.0
H1339 H 0.93126 0.91624 0.8459 0.0
H1340 H 0.92739 0.88425 0.72116 0.0
C1341 C 0.8723 0.93758 0.68239 0.0
C1342 C 0.89217 0.91908 0.75996 0.0
C1343 C 0.86765 0.95242 0.65588 0.0
C1344 C 0.95027 0.89739 0.87088 0.0
C1345 C 0.93578 0.9025 0.84406 0.0
C1346 C 0.91724 0.89355 0.73258 0.0
C1347 C 0.88963 0.93035 0.67984 0.0
C1348 C 0.89587 0.91683 0.71326 0.0
C1349 C 0.92808 0.89044 0.81295 0.0
C1350 C 0.91486 0.8971 0.77931 0.0
H1351 H 0.90735 0.95882 0.60126 0.0
H1352 H 0.91554 0.93293 0.64701 0.0
H1353 H 0.91072 0.90111 0.66404 0.0
H1354 H 0.95467 0.85439 0.83443 0.0
H1355 H 0.92918 0.86336 0.78676 0.0
C1356 C 0.5459 0.8702 0.1599 0.0
C1357 C 0.53794 0.88243 0.12984 0.0
C1358 C 0.56041 0.87541 0.18694 0.0
C1359 C 0.59332 0.91213 0.20473 0.0
H1360 H 0.58536 0.90266 0.33333 0.0
C1361 C 0.59854 0.95379 0.37722 0.0
C1362 C 0.61566 0.96125 0.37408 0.0
C1363 C 0.5938 0.93931 0.34994 0.0
C1364 C 0.58792 0.90524 0.29751 0.0
H1365 H 0.53809 0.90975 0.10566 0.0
H1366 H 0.56336 0.91891 0.15245 0.0
H1367 H 0.56839 0.88614 0.27623 0.0
H1368 H 0.64115 0.96002 0.33943 0.0
H1369 H 0.63284 0.93454 0.29098 0.0
H1370 H 0.61179 0.93225 0.22612 0.0
C1371 C 0.559 0.90512 0.1541 0.0
C1372 C 0.57833 0.89566 0.26476 0.0
C1373 C 0.54453 0.89992 0.1273 0.0
C1374 C 0.62799 0.95414 0.34295 0.0
C1375 C 0.62322 0.93965 0.31535 0.0
C1376 C 0.60289 0.92173 0.23749 0.0
C1377 C 0.56693 0.89303 0.18478 0.0
C1378 C 0.58028 0.89965 0.21813 0.0
C1379 C 0.60596 0.93227 0.3181 0.0
C1380 C 0.59961 0.919 0.28422 0.0
H1381 H 0.54071 0.85674 0.16296 0.0
H1382 H 0.5662 0.86583 0.21038 0.0
H1383 H 0.59531 0.91525 0.16897 0.0
H1384 H 0.58859 0.95958 0.39966 0.0
H1385 H 0.58024 0.93429 0.35209 0.0
C1386 C 0.5956 0.54193 0.61999 0.0
C1387 C 0.61305 0.53525 0.62258 0.0
C1388 C 0.5903 0.55609 0.64779 0.0
C1389 C 0.59954 0.57384 0.76047 0.0
H1390 H 0.5637 0.60854 0.72457 0.0
C1391 C 0.54296 0.59613 0.8771 0.0
C1392 C 0.53632 0.6136 0.87429 0.0
C1393 C 0.55692 0.59067 0.84886 0.0
C1394 C 0.57399 0.59924 0.73519 0.0
H1395 H 0.63862 0.53761 0.65651 0.0
H1396 H 0.6294 0.56254 0.70552 0.0
H1397 H 0.58013 0.5922 0.66608 0.0
H1398 H 0.53853 0.639 0.83946 0.0
H1399 H 0.5631 0.62946 0.78959 0.0
H1400 H 0.59292 0.58041 0.82959 0.0
C1401 C 0.61989 0.55705 0.68141 0.0
C1402 C 0.58326 0.58976 0.70166 0.0
C1403 C 0.62518 0.54288 0.65341 0.0
C1404 C 0.54378 0.62556 0.84273 0.0
C1405 C 0.55774 0.62009 0.81425 0.0
C1406 C 0.59026 0.58333 0.79399 0.0
C1407 C 0.60228 0.56357 0.6795 0.0
C1408 C 0.59557 0.57642 0.71401 0.0
C1409 C 0.56422 0.60247 0.81646 0.0
C1410 C 0.57686 0.59556 0.78169 0.0
H1411 H 0.58583 0.53572 0.59776 0.0
H1412 H 0.57652 0.56049 0.6462 0.0
H1413 H 0.6089 0.56362 0.77114 0.0
H1414 H 0.53687 0.58648 0.89989 0.0
H1415 H 0.56128 0.57689 0.85071 0.0
C1416 C 0.12567 0.45167 0.64754 0.0
C1417 C 0.11416 0.45934 0.61523 0.0
C1418 C 0.11978 0.43754 0.67496 0.0
C1419 C 0.08231 0.40538 0.69208 0.0
H1420 H 0.09001 0.41534 0.82053 0.0
C1421 C 0.03952 0.40061 0.86464 0.0
C1422 C 0.03291 0.38312 0.86271 0.0
C1423 C 0.05365 0.40581 0.83661 0.0
C1424 C 0.08788 0.41225 0.7848 0.0
H1425 H 0.08747 0.45888 0.58689 0.0
H1426 H 0.07714 0.43422 0.63429 0.0
H1427 H 0.10726 0.43145 0.76325 0.0
H1428 H 0.03518 0.35746 0.82924 0.0
H1429 H 0.06006 0.36655 0.77971 0.0
H1430 H 0.062 0.3871 0.71365 0.0
C1431 C 0.0909 0.43854 0.63757 0.0
C1432 C 0.0979 0.42134 0.75195 0.0
C1433 C 0.09678 0.45265 0.61035 0.0
C1434 C 0.04042 0.37092 0.83186 0.0
C1435 C 0.05456 0.37613 0.80359 0.0
C1436 C 0.07228 0.39628 0.72496 0.0
C1437 C 0.10218 0.43111 0.67098 0.0
C1438 C 0.09467 0.41855 0.7052 0.0
C1439 C 0.06118 0.39372 0.80533 0.0
C1440 C 0.07444 0.40021 0.77156 0.0
H1441 H 0.13903 0.45692 0.65236 0.0
H1442 H 0.12878 0.43207 0.70034 0.0
H1443 H 0.07973 0.40276 0.65629 0.0
H1444 H 0.03339 0.41043 0.88685 0.0
H1445 H 0.0581 0.41958 0.83799 0.0
C1446 C 0.04477 0.09873 0.12747 0.0
C1447 C 0.03793 0.11611 0.13005 0.0
C1448 C 0.05938 0.09375 0.15403 0.0
C1449 C 0.09395 0.08737 0.20399 0.0
H1450 H 0.08527 0.09541 0.33289 0.0
C1451 C 0.12824 0.04411 0.34008 0.0
C1452 C 0.11573 0.0364 0.3698 0.0
C1453 C 0.12357 0.059 0.31372 0.0
C1454 C 0.08805 0.09326 0.297 0.0
H1455 H 0.04036 0.14183 0.16312 0.0
H1456 H 0.06606 0.13309 0.21038 0.0
H1457 H 0.0683 0.11225 0.27628 0.0
H1458 H 0.08846 0.03745 0.39415 0.0
H1459 H 0.08027 0.06341 0.34873 0.0
H1460 H 0.11264 0.06733 0.22468 0.0
C1461 C 0.06038 0.12345 0.18691 0.0
C1462 C 0.07846 0.10302 0.26456 0.0
C1463 C 0.04576 0.12845 0.16001 0.0
C1464 C 0.09853 0.04367 0.37284 0.0
C1465 C 0.09388 0.05854 0.34681 0.0
C1466 C 0.10354 0.07761 0.23643 0.0
C1467 C 0.06718 0.10595 0.18459 0.0
C1468 C 0.08065 0.09947 0.21778 0.0
C1469 C 0.10622 0.06617 0.3163 0.0
C1470 C 0.09998 0.0798 0.28321 0.0
H1471 H 0.03842 0.08879 0.10599 0.0
H1472 H 0.06395 0.08003 0.15233 0.0
H1473 H 0.0961 0.08459 0.16811 0.0
H1474 H 0.14148 0.0384 0.33663 0.0
H1475 H 0.13332 0.06455 0.29034 0.0
C1476 C 0.39824 0.04125 0.62579 0.0
C1477 C 0.38094 0.03417 0.62845 0.0
C1478 C 0.40317 0.05564 0.65319 0.0
C1479 C 0.40953 0.08961 0.70607 0.0
H1480 H 0.40014 0.08052 0.83424 0.0
C1481 C 0.44977 0.12549 0.84523 0.0
C1482 C 0.45729 0.11353 0.8767 0.0
C1483 C 0.43553 0.12012 0.81752 0.0
C1484 C 0.40272 0.08337 0.79856 0.0
H1485 H 0.35529 0.03607 0.66214 0.0
H1486 H 0.3639 0.06143 0.71053 0.0
H1487 H 0.38427 0.06339 0.77623 0.0
H1488 H 0.45647 0.08654 0.90311 0.0
H1489 H 0.43162 0.07711 0.85522 0.0
H1490 H 0.42897 0.10861 0.72842 0.0
C1491 C 0.37354 0.05606 0.68663 0.0
C1492 C 0.3935 0.07369 0.76529 0.0
C1493 C 0.3686 0.04164 0.65899 0.0
C1494 C 0.45037 0.0962 0.88035 0.0
C1495 C 0.43615 0.09083 0.85286 0.0
C1496 C 0.41876 0.09927 0.73934 0.0
C1497 C 0.391 0.06299 0.6846 0.0
C1498 C 0.39741 0.07614 0.71876 0.0
C1499 C 0.42882 0.10259 0.82038 0.0
C1500 C 0.41604 0.09566 0.78594 0.0
H1501 H 0.40817 0.03518 0.6038 0.0
H1502 H 0.41685 0.06034 0.65154 0.0
H1503 H 0.4126 0.09198 0.67042 0.0
H1504 H 0.45522 0.13882 0.84133 0.0
H1505 H 0.43016 0.12947 0.79284 0.0
C1506 C 0.45595 0.40001 0.12492 0.0
C1507 C 0.46261 0.38255 0.1272 0.0
C1508 C 0.44191 0.4053 0.15308 0.0
C1509 C 0.42404 0.39614 0.2657 0.0
H1510 H 0.38919 0.43166 0.22867 0.0
C1511 C 0.4017 0.45325 0.38022 0.0
C1512 C 0.38431 0.46004 0.37692 0.0
C1513 C 0.40708 0.43904 0.35272 0.0
C1514 C 0.39852 0.42145 0.23963 0.0
H1515 H 0.46043 0.35699 0.16129 0.0
H1516 H 0.4357 0.36622 0.21107 0.0
H1517 H 0.40571 0.41514 0.17074 0.0
H1518 H 0.35893 0.4578 0.34207 0.0
H1519 H 0.36831 0.43279 0.29346 0.0
H1520 H 0.41733 0.40295 0.33462 0.0
C1521 C 0.4411 0.37572 0.18682 0.0
C1522 C 0.40811 0.41213 0.20641 0.0
C1523 C 0.45516 0.37043 0.15841 0.0
C1524 C 0.37231 0.45245 0.3457 0.0
C1525 C 0.37769 0.43823 0.31795 0.0
C1526 C 0.41444 0.40547 0.29894 0.0
C1527 C 0.4345 0.39331 0.18488 0.0
C1528 C 0.42153 0.39997 0.21915 0.0
C1529 C 0.39526 0.43161 0.32056 0.0
C1530 C 0.40216 0.41879 0.28623 0.0
H1531 H 0.46203 0.40977 0.1024 0.0
H1532 H 0.43747 0.41907 0.15151 0.0
H1533 H 0.43431 0.38688 0.27665 0.0
H1534 H 0.41139 0.45942 0.40276 0.0
H1535 H 0.42083 0.43458 0.35487 0.0
loop_
_geom_bond_atom_site_label_1
_geom_bond_atom_site_label_2
_geom_bond_distance
_geom_bond_site_symmetry_2
_ccdc_geom_bond_type
Mn0 O5 2.095 . S
Mn0 O15 2.162 . S
Mn0 O16 2.297 . S
Mn0 O24 2.385 1_455 S
Mn0 O25 2.209 1_455 S
Mn0 O26 2.094 . S
Mn1 O6 2.121 1_655 S
Mn1 N8 2.257 . S
Mn1 N17 2.282 . S
Mn1 O25 2.215 . S
Mn1 O27 2.117 . S
C2 O24 1.234 . S
C2 O25 1.283 . S
C3 O15 1.281 . S
C3 O16 1.236 . S
C4 O26 1.240 . S
C4 O27 1.264 1_455 S
O5 Mn0 2.095 . S
O5 C14 1.250 . S
O6 Mn1 2.121 1_455 S
O6 C14 1.258 . S
C7 N8 1.326 . S
C7 C11 1.460 . S
C7 H13 0.929 . S
N8 Mn1 2.257 . S
N8 C7 1.326 . S
N8 C12 1.362 . S
C9 C10 1.258 . S
C9 C12 1.431 . S
C9 C29 1.449 . S
C10 C9 1.258 . S
C10 C11 1.477 . S
C10 H30 0.931 . S
C11 C7 1.460 . S
C11 C10 1.477 . S
C11 H31 0.930 1_554 S
C12 N8 1.362 . S
C12 C9 1.431 . S
C12 C22 1.476 . S
H13 C7 0.929 . S
C14 O5 1.250 . S
C14 O6 1.258 . S
O15 Mn0 2.162 . S
O15 C3 1.281 . S
O16 Mn0 2.297 . S
O16 C3 1.236 . S
N17 Mn1 2.282 . S
N17 C18 1.328 . S
N17 C22 1.318 . S
C18 N17 1.328 . S
C18 C19 1.457 . S
C18 H23 0.929 . S
C19 C18 1.457 . S
C19 C20 1.291 . S
C19 H32 0.931 . S
C20 C19 1.291 . S
C20 C21 1.373 . S
C20 H33 0.929 . S
C21 C20 1.373 . S
C21 C22 1.396 . S
C21 C28 1.403 . S
C22 C12 1.476 . S
C22 N17 1.318 . S
C22 C21 1.396 . S
H23 C18 0.929 . S
O24 Mn0 2.385 1_655 S
O24 C2 1.234 . S
O25 Mn0 2.209 1_655 S
O25 Mn1 2.215 . S
O25 C2 1.283 . S
O26 Mn0 2.094 . S
O26 C4 1.240 . S
O27 Mn1 2.117 . S
O27 C4 1.264 1_655 S
C28 C21 1.403 . S
C28 C29 1.399 . S
C28 H34 0.929 . S
C29 C9 1.449 . S
C29 C28 1.399 . S
C29 H35 0.930 . S
H30 C10 0.931 . S
H31 C11 0.930 1_556 S
H32 C19 0.931 . S
H33 C20 0.929 . S
H34 C28 0.929 . S
H35 C29 0.930 . S
Mn36 O41 2.095 . S
Mn36 O51 2.162 . S
Mn36 O52 2.297 . S
Mn36 O60 2.385 1_545 S
Mn36 O61 2.209 1_545 S
Mn36 O62 2.094 . S
Mn37 O42 2.121 1_565 S
Mn37 N44 2.257 . S
Mn37 N53 2.282 . S
Mn37 O61 2.215 . S
Mn37 O63 2.117 . S
C38 O60 1.234 . S
C38 O61 1.283 . S
C39 O51 1.281 . S
C39 O52 1.236 . S
C40 O62 1.240 . S
C40 O63 1.264 1_545 S
O41 Mn36 2.095 . S
O41 C50 1.250 . S
O42 Mn37 2.121 1_545 S
O42 C50 1.258 . S
C43 N44 1.326 . S
C43 C47 1.460 . S
C43 H49 0.929 . S
N44 Mn37 2.257 . S
N44 C43 1.326 . S
N44 C48 1.362 . S
C45 C46 1.258 . S
C45 C48 1.431 . S
C45 C65 1.449 . S
C46 C45 1.258 . S
C46 C47 1.477 . S
C46 H66 0.931 . S
C47 C43 1.460 . S
C47 C46 1.477 . S
C47 H67 0.930 . S
C48 N44 1.362 . S
C48 C45 1.431 . S
C48 C58 1.476 . S
H49 C43 0.929 . S
C50 O41 1.250 . S
C50 O42 1.258 . S
O51 Mn36 2.162 . S
O51 C39 1.281 . S
O52 Mn36 2.297 . S
O52 C39 1.236 . S
N53 Mn37 2.282 . S
N53 C54 1.328 . S
N53 C58 1.318 . S
C54 N53 1.328 . S
C54 C55 1.457 . S
C54 H59 0.929 . S
C55 C54 1.457 . S
C55 C56 1.291 . S
C55 H68 0.931 . S
C56 C55 1.291 . S
C56 C57 1.373 . S
C56 H69 0.929 . S
C57 C56 1.373 . S
C57 C58 1.396 . S
C57 C64 1.403 . S
C58 C48 1.476 . S
C58 N53 1.318 . S
C58 C57 1.396 . S
H59 C54 0.929 . S
O60 Mn36 2.385 1_565 S
O60 C38 1.234 . S
O61 Mn36 2.209 1_565 S
O61 Mn37 2.215 . S
O61 C38 1.283 . S
O62 Mn36 2.094 . S
O62 C40 1.240 . S
O63 Mn37 2.117 . S
O63 C40 1.264 1_565 S
C64 C57 1.403 . S
C64 C65 1.399 . S
C64 H70 0.929 . S
C65 C45 1.449 . S
C65 C64 1.399 . S
C65 H71 0.930 . S
H66 C46 0.931 . S
H67 C47 0.930 . S
H68 C55 0.931 . S
H69 C56 0.929 . S
H70 C64 0.929 . S
H71 C65 0.930 . S
Mn72 O77 2.095 . S
Mn72 O87 2.162 . S
Mn72 O88 2.297 . S
Mn72 O96 2.385 . S
Mn72 O97 2.209 . S
Mn72 O98 2.094 . S
Mn73 O78 2.121 . S
Mn73 N80 2.257 . S
Mn73 N89 2.282 . S
Mn73 O97 2.215 . S
Mn73 O99 2.117 . S
C74 O96 1.234 . S
C74 O97 1.283 . S
C75 O87 1.281 . S
C75 O88 1.236 . S
C76 O98 1.240 . S
C76 O99 1.264 . S
O77 Mn72 2.095 . S
O77 C86 1.250 . S
O78 Mn73 2.121 . S
O78 C86 1.258 . S
C79 N80 1.326 . S
C79 C83 1.460 . S
C79 H85 0.929 . S
N80 Mn73 2.257 . S
N80 C79 1.326 . S
N80 C84 1.362 . S
C81 C82 1.258 . S
C81 C84 1.431 . S
C81 C101 1.449 . S
C82 C81 1.258 . S
C82 C83 1.477 . S
C82 H102 0.931 . S
C83 C79 1.460 . S
C83 C82 1.477 . S
C83 H103 0.930 1_554 S
C84 N80 1.362 . S
C84 C81 1.431 . S
C84 C94 1.476 . S
H85 C79 0.929 . S
C86 O77 1.250 . S
C86 O78 1.258 . S
O87 Mn72 2.162 . S
O87 C75 1.281 . S
O88 Mn72 2.297 . S
O88 C75 1.236 . S
N89 Mn73 2.282 . S
N89 C90 1.328 . S
N89 C94 1.318 . S
C90 N89 1.328 . S
C90 C91 1.457 . S
C90 H95 0.929 . S
C91 C90 1.457 . S
C91 C92 1.291 . S
C91 H104 0.931 . S
C92 C91 1.291 . S
C92 C93 1.373 . S
C92 H105 0.929 . S
C93 C92 1.373 . S
C93 C94 1.396 . S
C93 C100 1.403 . S
C94 C84 1.476 . S
C94 N89 1.318 . S
C94 C93 1.396 . S
H95 C90 0.929 . S
O96 Mn72 2.385 . S
O96 C74 1.234 . S
O97 Mn72 2.209 . S
O97 Mn73 2.215 . S
O97 C74 1.283 . S
O98 Mn72 2.094 . S
O98 C76 1.240 . S
O99 Mn73 2.117 . S
O99 C76 1.264 . S
C100 C93 1.403 . S
C100 C101 1.399 . S
C100 H106 0.929 . S
C101 C81 1.449 . S
C101 C100 1.399 . S
C101 H107 0.930 . S
H102 C82 0.931 . S
H103 C83 0.930 1_556 S
H104 C91 0.931 . S
H105 C92 0.929 . S
H106 C100 0.929 . S
H107 C101 0.930 . S
Mn108 O113 2.095 . S
Mn108 O123 2.162 . S
Mn108 O124 2.297 . S
Mn108 O132 2.385 . S
Mn108 O133 2.209 . S
Mn108 O134 2.094 . S
Mn109 O114 2.121 . S
Mn109 N116 2.257 . S
Mn109 N125 2.282 . S
Mn109 O133 2.215 . S
Mn109 O135 2.117 . S
C110 O132 1.234 . S
C110 O133 1.283 . S
C111 O123 1.281 . S
C111 O124 1.236 . S
C112 O134 1.240 . S
C112 O135 1.264 . S
O113 Mn108 2.095 . S
O113 C122 1.250 . S
O114 Mn109 2.121 . S
O114 C122 1.258 . S
C115 N116 1.326 . S
C115 C119 1.460 . S
C115 H121 0.929 . S
N116 Mn109 2.257 . S
N116 C115 1.326 . S
N116 C120 1.362 . S
C117 C118 1.258 . S
C117 C120 1.431 . S
C117 C137 1.449 . S
C118 C117 1.258 . S
C118 C119 1.477 . S
C118 H138 0.931 . S
C119 C115 1.460 . S
C119 C118 1.477 . S
C119 H139 0.930 . S
C120 N116 1.362 . S
C120 C117 1.431 . S
C120 C130 1.476 . S
H121 C115 0.929 . S
C122 O113 1.250 . S
C122 O114 1.258 . S
O123 Mn108 2.162 . S
O123 C111 1.281 . S
O124 Mn108 2.297 . S
O124 C111 1.236 . S
N125 Mn109 2.282 . S
N125 C126 1.328 . S
N125 C130 1.318 . S
C126 N125 1.328 . S
C126 C127 1.457 . S
C126 H131 0.929 . S
C127 C126 1.457 . S
C127 C128 1.291 . S
C127 H140 0.931 . S
C128 C127 1.291 . S
C128 C129 1.373 . S
C128 H141 0.929 . S
C129 C128 1.373 . S
C129 C130 1.396 . S
C129 C136 1.403 . S
C130 C120 1.476 . S
C130 N125 1.318 . S
C130 C129 1.396 . S
H131 C126 0.929 . S
O132 Mn108 2.385 . S
O132 C110 1.234 . S
O133 Mn108 2.209 . S
O133 Mn109 2.215 . S
O133 C110 1.283 . S
O134 Mn108 2.094 . S
O134 C112 1.240 . S
O135 Mn109 2.117 . S
O135 C112 1.264 . S
C136 C129 1.403 . S
C136 C137 1.399 . S
C136 H142 0.929 . S
C137 C117 1.449 . S
C137 C136 1.399 . S
C137 H143 0.930 . S
H138 C118 0.931 . S
H139 C119 0.930 . S
H140 C127 0.931 . S
H141 C128 0.929 . S
H142 C136 0.929 . S
H143 C137 0.930 . S
Mn144 O149 2.095 . S
Mn144 O159 2.162 . S
Mn144 O160 2.297 . S
Mn144 O168 2.385 1_455 S
Mn144 O169 2.209 1_455 S
Mn144 O170 2.094 . S
Mn145 O150 2.121 1_655 S
Mn145 N152 2.257 . S
Mn145 N161 2.282 . S
Mn145 O169 2.215 . S
Mn145 O171 2.117 . S
C146 O168 1.234 . S
C146 O169 1.283 . S
C147 O159 1.281 . S
C147 O160 1.236 . S
C148 O170 1.240 . S
C148 O171 1.264 1_455 S
O149 Mn144 2.095 . S
O149 C158 1.250 . S
O150 Mn145 2.121 1_455 S
O150 C158 1.258 . S
C151 N152 1.326 . S
C151 C155 1.460 . S
C151 H157 0.929 . S
N152 Mn145 2.257 . S
N152 C151 1.326 . S
N152 C156 1.362 . S
C153 C154 1.258 . S
C153 C156 1.431 . S
C153 C173 1.449 . S
C154 C153 1.258 . S
C154 C155 1.477 . S
C154 H174 0.931 . S
C155 C151 1.460 . S
C155 C154 1.477 . S
C155 H175 0.930 1_556 S
C156 N152 1.362 . S
C156 C153 1.431 . S
C156 C166 1.476 . S
H157 C151 0.929 . S
C158 O149 1.250 . S
C158 O150 1.258 . S
O159 Mn144 2.162 . S
O159 C147 1.281 . S
O160 Mn144 2.297 . S
O160 C147 1.236 . S
N161 Mn145 2.282 . S
N161 C162 1.328 . S
N161 C166 1.318 . S
C162 N161 1.328 . S
C162 C163 1.457 . S
C162 H167 0.929 . S
C163 C162 1.457 . S
C163 C164 1.291 . S
C163 H176 0.931 . S
C164 C163 1.291 . S
C164 C165 1.373 . S
C164 H177 0.929 . S
C165 C164 1.373 . S
C165 C166 1.396 . S
C165 C172 1.403 . S
C166 C156 1.476 . S
C166 N161 1.318 . S
C166 C165 1.396 . S
H167 C162 0.929 . S
O168 Mn144 2.385 1_655 S
O168 C146 1.234 . S
O169 Mn144 2.209 1_655 S
O169 Mn145 2.215 . S
O169 C146 1.283 . S
O170 Mn144 2.094 . S
O170 C148 1.240 . S
O171 Mn145 2.117 . S
O171 C148 1.264 1_655 S
C172 C165 1.403 . S
C172 C173 1.399 . S
C172 H178 0.929 . S
C173 C153 1.449 . S
C173 C172 1.399 . S
C173 H179 0.930 . S
H174 C154 0.931 . S
H175 C155 0.930 1_554 S
H176 C163 0.931 . S
H177 C164 0.929 . S
H178 C172 0.929 . S
H179 C173 0.930 . S
Mn180 O185 2.095 . S
Mn180 O195 2.162 . S
Mn180 O196 2.297 . S
Mn180 O204 2.385 1_545 S
Mn180 O205 2.209 1_545 S
Mn180 O206 2.094 . S
Mn181 O186 2.121 1_565 S
Mn181 N188 2.257 . S
Mn181 N197 2.282 . S
Mn181 O205 2.215 . S
Mn181 O207 2.117 . S
C182 O204 1.234 . S
C182 O205 1.283 . S
C183 O195 1.281 . S
C183 O196 1.236 . S
C184 O206 1.240 . S
C184 O207 1.264 1_545 S
O185 Mn180 2.095 . S
O185 C194 1.250 . S
O186 Mn181 2.121 1_545 S
O186 C194 1.258 . S
C187 N188 1.326 . S
C187 C191 1.460 . S
C187 H193 0.929 . S
N188 Mn181 2.257 . S
N188 C187 1.326 . S
N188 C192 1.362 . S
C189 C190 1.258 . S
C189 C192 1.431 . S
C189 C209 1.449 . S
C190 C189 1.258 . S
C190 C191 1.477 . S
C190 H210 0.931 . S
C191 C187 1.460 . S
C191 C190 1.477 . S
C191 H211 0.930 . S
C192 N188 1.362 . S
C192 C189 1.431 . S
C192 C202 1.476 . S
H193 C187 0.929 . S
C194 O185 1.250 . S
C194 O186 1.258 . S
O195 Mn180 2.162 . S
O195 C183 1.281 . S
O196 Mn180 2.297 . S
O196 C183 1.236 . S
N197 Mn181 2.282 . S
N197 C198 1.328 . S
N197 C202 1.318 . S
C198 N197 1.328 . S
C198 C199 1.457 . S
C198 H203 0.929 . S
C199 C198 1.457 . S
C199 C200 1.291 . S
C199 H212 0.931 . S
C200 C199 1.291 . S
C200 C201 1.373 . S
C200 H213 0.929 . S
C201 C200 1.373 . S
C201 C202 1.396 . S
C201 C208 1.403 . S
C202 C192 1.476 . S
C202 N197 1.318 . S
C202 C201 1.396 . S
H203 C198 0.929 . S
O204 Mn180 2.385 1_565 S
O204 C182 1.234 . S
O205 Mn180 2.209 1_565 S
O205 Mn181 2.215 . S
O205 C182 1.283 . S
O206 Mn180 2.094 . S
O206 C184 1.240 . S
O207 Mn181 2.117 . S
O207 C184 1.264 1_565 S
C208 C201 1.403 . S
C208 C209 1.399 . S
C208 H214 0.929 . S
C209 C189 1.449 . S
C209 C208 1.399 . S
C209 H215 0.930 . S
H210 C190 0.931 . S
H211 C191 0.930 . S
H212 C199 0.931 . S
H213 C200 0.929 . S
H214 C208 0.929 . S
H215 C209 0.930 . S
Mn216 O221 2.095 . S
Mn216 O231 2.162 . S
Mn216 O232 2.297 . S
Mn216 O240 2.385 . S
Mn216 O241 2.209 . S
Mn216 O242 2.094 . S
Mn217 O222 2.121 . S
Mn217 N224 2.257 . S
Mn217 N233 2.282 . S
Mn217 O241 2.215 . S
Mn217 O243 2.117 . S
C218 O240 1.234 . S
C218 O241 1.283 . S
C219 O231 1.281 . S
C219 O232 1.236 . S
C220 O242 1.240 . S
C220 O243 1.264 . S
O221 Mn216 2.095 . S
O221 C230 1.250 . S
O222 Mn217 2.121 . S
O222 C230 1.258 . S
C223 N224 1.326 . S
C223 C227 1.460 . S
C223 H229 0.929 . S
N224 Mn217 2.257 . S
N224 C223 1.326 . S
N224 C228 1.362 . S
C225 C226 1.258 . S
C225 C228 1.431 . S
C225 C245 1.449 . S
C226 C225 1.258 . S
C226 C227 1.477 . S
C226 H246 0.931 . S
C227 C223 1.460 . S
C227 C226 1.477 . S
C227 H247 0.930 1_556 S
C228 N224 1.362 . S
C228 C225 1.431 . S
C228 C238 1.476 . S
H229 C223 0.929 . S
C230 O221 1.250 . S
C230 O222 1.258 . S
O231 Mn216 2.162 . S
O231 C219 1.281 . S
O232 Mn216 2.297 . S
O232 C219 1.236 . S
N233 Mn217 2.282 . S
N233 C234 1.328 . S
N233 C238 1.318 . S
C234 N233 1.328 . S
C234 C235 1.457 . S
C234 H239 0.929 . S
C235 C234 1.457 . S
C235 C236 1.291 . S
C235 H248 0.931 . S
C236 C235 1.291 . S
C236 C237 1.373 . S
C236 H249 0.929 . S
C237 C236 1.373 . S
C237 C238 1.396 . S
C237 C244 1.403 . S
C238 C228 1.476 . S
C238 N233 1.318 . S
C238 C237 1.396 . S
H239 C234 0.929 . S
O240 Mn216 2.385 . S
O240 C218 1.234 . S
O241 Mn216 2.209 . S
O241 Mn217 2.215 . S
O241 C218 1.283 . S
O242 Mn216 2.094 . S
O242 C220 1.240 . S
O243 Mn217 2.117 . S
O243 C220 1.264 . S
C244 C237 1.403 . S
C244 C245 1.399 . S
C244 H250 0.929 . S
C245 C225 1.449 . S
C245 C244 1.399 . S
C245 H251 0.930 . S
H246 C226 0.931 . S
H247 C227 0.930 1_554 S
H248 C235 0.931 . S
H249 C236 0.929 . S
H250 C244 0.929 . S
H251 C245 0.930 . S
Mn252 O257 2.095 . S
Mn252 O267 2.162 . S
Mn252 O268 2.297 . S
Mn252 O276 2.385 . S
Mn252 O277 2.209 . S
Mn252 O278 2.094 . S
Mn253 O258 2.121 . S
Mn253 N260 2.257 . S
Mn253 N269 2.282 . S
Mn253 O277 2.215 . S
Mn253 O279 2.117 . S
C254 O276 1.234 . S
C254 O277 1.283 . S
C255 O267 1.281 . S
C255 O268 1.236 . S
C256 O278 1.240 . S
C256 O279 1.264 . S
O257 Mn252 2.095 . S
O257 C266 1.250 . S
O258 Mn253 2.121 . S
O258 C266 1.258 . S
C259 N260 1.326 . S
C259 C263 1.460 . S
C259 H265 0.929 . S
N260 Mn253 2.257 . S
N260 C259 1.326 . S
N260 C264 1.362 . S
C261 C262 1.258 . S
C261 C264 1.431 . S
C261 C281 1.449 . S
C262 C261 1.258 . S
C262 C263 1.477 . S
C262 H282 0.931 . S
C263 C259 1.460 . S
C263 C262 1.477 . S
C263 H283 0.930 . S
C264 N260 1.362 . S
C264 C261 1.431 . S
C264 C274 1.476 . S
H265 C259 0.929 . S
C266 O257 1.250 . S
C266 O258 1.258 . S
O267 Mn252 2.162 . S
O267 C255 1.281 . S
O268 Mn252 2.297 . S
O268 C255 1.236 . S
N269 Mn253 2.282 . S
N269 C270 1.328 . S
N269 C274 1.318 . S
C270 N269 1.328 . S
C270 C271 1.457 . S
C270 H275 0.929 . S
C271 C270 1.457 . S
C271 C272 1.291 . S
C271 H284 0.931 . S
C272 C271 1.291 . S
C272 C273 1.373 . S
C272 H285 0.929 . S
C273 C272 1.373 . S
C273 C274 1.396 . S
C273 C280 1.403 . S
C274 C264 1.476 . S
C274 N269 1.318 . S
C274 C273 1.396 . S
H275 C270 0.929 . S
O276 Mn252 2.385 . S
O276 C254 1.234 . S
O277 Mn252 2.209 . S
O277 Mn253 2.215 . S
O277 C254 1.283 . S
O278 Mn252 2.094 . S
O278 C256 1.240 . S
O279 Mn253 2.117 . S
O279 C256 1.264 . S
C280 C273 1.403 . S
C280 C281 1.399 . S
C280 H286 0.929 . S
C281 C261 1.449 . S
C281 C280 1.399 . S
C281 H287 0.930 . S
H282 C262 0.931 . S
H283 C263 0.930 . S
H284 C271 0.931 . S
H285 C272 0.929 . S
H286 C280 0.929 . S
H287 C281 0.930 . S
Mn288 O293 2.095 . S
Mn288 O303 2.162 . S
Mn288 O304 2.297 . S
Mn288 O312 2.385 1_655 S
Mn288 O313 2.209 1_655 S
Mn288 O314 2.094 . S
Mn289 O294 2.121 1_455 S
Mn289 N296 2.257 . S
Mn289 N305 2.282 . S
Mn289 O313 2.215 . S
Mn289 O315 2.117 . S
C290 O312 1.234 . S
C290 O313 1.283 . S
C291 O303 1.281 . S
C291 O304 1.236 . S
C292 O314 1.240 . S
C292 O315 1.264 1_655 S
O293 Mn288 2.095 . S
O293 C302 1.250 . S
O294 Mn289 2.121 1_655 S
O294 C302 1.258 . S
C295 N296 1.326 . S
C295 C299 1.460 . S
C295 H301 0.929 . S
N296 Mn289 2.257 . S
N296 C295 1.326 . S
N296 C300 1.362 . S
C297 C298 1.258 . S
C297 C300 1.431 . S
C297 C317 1.449 . S
C298 C297 1.258 . S
C298 C299 1.477 . S
C298 H318 0.931 . S
C299 C295 1.460 . S
C299 C298 1.477 . S
C299 H319 0.930 1_556 S
C300 N296 1.362 . S
C300 C297 1.431 . S
C300 C310 1.476 . S
H301 C295 0.929 . S
C302 O293 1.250 . S
C302 O294 1.258 . S
O303 Mn288 2.162 . S
O303 C291 1.281 . S
O304 Mn288 2.297 . S
O304 C291 1.236 . S
N305 Mn289 2.282 . S
N305 C306 1.328 . S
N305 C310 1.318 . S
C306 N305 1.328 . S
C306 C307 1.457 . S
C306 H311 0.929 . S
C307 C306 1.457 . S
C307 C308 1.291 . S
C307 H320 0.931 . S
C308 C307 1.291 . S
C308 C309 1.373 . S
C308 H321 0.929 . S
C309 C308 1.373 . S
C309 C310 1.396 . S
C309 C316 1.403 . S
C310 C300 1.476 . S
C310 N305 1.318 . S
C310 C309 1.396 . S
H311 C306 0.929 . S
O312 Mn288 2.385 1_455 S
O312 C290 1.234 . S
O313 Mn288 2.209 1_455 S
O313 Mn289 2.215 . S
O313 C290 1.283 . S
O314 Mn288 2.094 . S
O314 C292 1.240 . S
O315 Mn289 2.117 . S
O315 C292 1.264 1_455 S
C316 C309 1.403 . S
C316 C317 1.399 . S
C316 H322 0.929 . S
C317 C297 1.449 . S
C317 C316 1.399 . S
C317 H323 0.930 . S
H318 C298 0.931 . S
H319 C299 0.930 1_554 S
H320 C307 0.931 . S
H321 C308 0.929 . S
H322 C316 0.929 . S
H323 C317 0.930 . S
Mn324 O329 2.095 . S
Mn324 O339 2.162 . S
Mn324 O340 2.297 . S
Mn324 O348 2.385 1_565 S
Mn324 O349 2.209 1_565 S
Mn324 O350 2.094 . S
Mn325 O330 2.121 1_545 S
Mn325 N332 2.257 . S
Mn325 N341 2.282 . S
Mn325 O349 2.215 . S
Mn325 O351 2.117 . S
C326 O348 1.234 . S
C326 O349 1.283 . S
C327 O339 1.281 . S
C327 O340 1.236 . S
C328 O350 1.240 . S
C328 O351 1.264 1_565 S
O329 Mn324 2.095 . S
O329 C338 1.250 . S
O330 Mn325 2.121 1_565 S
O330 C338 1.258 . S
C331 N332 1.326 . S
C331 C335 1.460 . S
C331 H337 0.929 . S
N332 Mn325 2.257 . S
N332 C331 1.326 . S
N332 C336 1.362 . S
C333 C334 1.258 . S
C333 C336 1.431 . S
C333 C353 1.449 . S
C334 C333 1.258 . S
C334 C335 1.477 . S
C334 H354 0.931 . S
C335 C331 1.460 . S
C335 C334 1.477 . S
C335 H355 0.930 . S
C336 N332 1.362 . S
C336 C333 1.431 . S
C336 C346 1.476 . S
H337 C331 0.929 . S
C338 O329 1.250 . S
C338 O330 1.258 . S
O339 Mn324 2.162 . S
O339 C327 1.281 . S
O340 Mn324 2.297 . S
O340 C327 1.236 . S
N341 Mn325 2.282 . S
N341 C342 1.328 . S
N341 C346 1.318 . S
C342 N341 1.328 . S
C342 C343 1.457 . S
C342 H347 0.929 . S
C343 C342 1.457 . S
C343 C344 1.291 . S
C343 H356 0.931 . S
C344 C343 1.291 . S
C344 C345 1.373 . S
C344 H357 0.929 . S
C345 C344 1.373 . S
C345 C346 1.396 . S
C345 C352 1.403 . S
C346 C336 1.476 . S
C346 N341 1.318 . S
C346 C345 1.396 . S
H347 C342 0.929 . S
O348 Mn324 2.385 1_545 S
O348 C326 1.234 . S
O349 Mn324 2.209 1_545 S
O349 Mn325 2.215 . S
O349 C326 1.283 . S
O350 Mn324 2.094 . S
O350 C328 1.240 . S
O351 Mn325 2.117 . S
O351 C328 1.264 1_545 S
C352 C345 1.403 . S
C352 C353 1.399 . S
C352 H358 0.929 . S
C353 C333 1.449 . S
C353 C352 1.399 . S
C353 H359 0.930 . S
H354 C334 0.931 . S
H355 C335 0.930 . S
H356 C343 0.931 . S
H357 C344 0.929 . S
H358 C352 0.929 . S
H359 C353 0.930 . S
Mn360 O365 2.095 . S
Mn360 O375 2.162 . S
Mn360 O376 2.297 . S
Mn360 O384 2.385 . S
Mn360 O385 2.209 . S
Mn360 O386 2.094 . S
Mn361 O366 2.121 . S
Mn361 N368 2.257 . S
Mn361 N377 2.282 . S
Mn361 O385 2.215 . S
Mn361 O387 2.117 . S
C362 O384 1.234 . S
C362 O385 1.283 . S
C363 O375 1.281 . S
C363 O376 1.236 . S
C364 O386 1.240 . S
C364 O387 1.264 . S
O365 Mn360 2.095 . S
O365 C374 1.250 . S
O366 Mn361 2.121 . S
O366 C374 1.258 . S
C367 N368 1.326 . S
C367 C371 1.460 . S
C367 H373 0.929 . S
N368 Mn361 2.257 . S
N368 C367 1.326 . S
N368 C372 1.362 . S
C369 C370 1.258 . S
C369 C372 1.431 . S
C369 C389 1.449 . S
C370 C369 1.258 . S
C370 C371 1.477 . S
C370 H390 0.931 . S
C371 C367 1.460 . S
C371 C370 1.477 . S
C371 H391 0.930 1_556 S
C372 N368 1.362 . S
C372 C369 1.431 . S
C372 C382 1.476 . S
H373 C367 0.929 . S
C374 O365 1.250 . S
C374 O366 1.258 . S
O375 Mn360 2.162 . S
O375 C363 1.281 . S
O376 Mn360 2.297 . S
O376 C363 1.236 . S
N377 Mn361 2.282 . S
N377 C378 1.328 . S
N377 C382 1.318 . S
C378 N377 1.328 . S
C378 C379 1.457 . S
C378 H383 0.929 . S
C379 C378 1.457 . S
C379 C380 1.291 . S
C379 H392 0.931 . S
C380 C379 1.291 . S
C380 C381 1.373 . S
C380 H393 0.929 . S
C381 C380 1.373 . S
C381 C382 1.396 . S
C381 C388 1.403 . S
C382 C372 1.476 . S
C382 N377 1.318 . S
C382 C381 1.396 . S
H383 C378 0.929 . S
O384 Mn360 2.385 . S
O384 C362 1.234 . S
O385 Mn360 2.209 . S
O385 Mn361 2.215 . S
O385 C362 1.283 . S
O386 Mn360 2.094 . S
O386 C364 1.240 . S
O387 Mn361 2.117 . S
O387 C364 1.264 . S
C388 C381 1.403 . S
C388 C389 1.399 . S
C388 H394 0.929 . S
C389 C369 1.449 . S
C389 C388 1.399 . S
C389 H395 0.930 . S
H390 C370 0.931 . S
H391 C371 0.930 1_554 S
H392 C379 0.931 . S
H393 C380 0.929 . S
H394 C388 0.929 . S
H395 C389 0.930 . S
Mn396 O401 2.095 . S
Mn396 O411 2.162 . S
Mn396 O412 2.297 . S
Mn396 O420 2.385 . S
Mn396 O421 2.209 . S
Mn396 O422 2.094 . S
Mn397 O402 2.121 . S
Mn397 N404 2.257 . S
Mn397 N413 2.282 . S
Mn397 O421 2.215 . S
Mn397 O423 2.117 . S
C398 O420 1.234 . S
C398 O421 1.283 . S
C399 O411 1.281 . S
C399 O412 1.236 . S
C400 O422 1.240 . S
C400 O423 1.264 . S
O401 Mn396 2.095 . S
O401 C410 1.250 . S
O402 Mn397 2.121 . S
O402 C410 1.258 . S
C403 N404 1.326 . S
C403 C407 1.460 . S
C403 H409 0.929 . S
N404 Mn397 2.257 . S
N404 C403 1.326 . S
N404 C408 1.362 . S
C405 C406 1.258 . S
C405 C408 1.431 . S
C405 C425 1.449 . S
C406 C405 1.258 . S
C406 C407 1.477 . S
C406 H426 0.931 . S
C407 C403 1.460 . S
C407 C406 1.477 . S
C407 H427 0.930 . S
C408 N404 1.362 . S
C408 C405 1.431 . S
C408 C418 1.476 . S
H409 C403 0.929 . S
C410 O401 1.250 . S
C410 O402 1.258 . S
O411 Mn396 2.162 . S
O411 C399 1.281 . S
O412 Mn396 2.297 . S
O412 C399 1.236 . S
N413 Mn397 2.282 . S
N413 C414 1.328 . S
N413 C418 1.318 . S
C414 N413 1.328 . S
C414 C415 1.457 . S
C414 H419 0.929 . S
C415 C414 1.457 . S
C415 C416 1.291 . S
C415 H428 0.931 . S
C416 C415 1.291 . S
C416 C417 1.373 . S
C416 H429 0.929 . S
C417 C416 1.373 . S
C417 C418 1.396 . S
C417 C424 1.403 . S
C418 C408 1.476 . S
C418 N413 1.318 . S
C418 C417 1.396 . S
H419 C414 0.929 . S
O420 Mn396 2.385 . S
O420 C398 1.234 . S
O421 Mn396 2.209 . S
O421 Mn397 2.215 . S
O421 C398 1.283 . S
O422 Mn396 2.094 . S
O422 C400 1.240 . S
O423 Mn397 2.117 . S
O423 C400 1.264 . S
C424 C417 1.403 . S
C424 C425 1.399 . S
C424 H430 0.929 . S
C425 C405 1.449 . S
C425 C424 1.399 . S
C425 H431 0.930 . S
H426 C406 0.931 . S
H427 C407 0.930 . S
H428 C415 0.931 . S
H429 C416 0.929 . S
H430 C424 0.929 . S
H431 C425 0.930 . S
Mn432 O437 2.095 . S
Mn432 O447 2.162 . S
Mn432 O448 2.297 . S
Mn432 O456 2.385 1_655 S
Mn432 O457 2.209 1_655 S
Mn432 O458 2.094 . S
Mn433 O438 2.121 1_455 S
Mn433 N440 2.257 . S
Mn433 N449 2.282 . S
Mn433 O457 2.215 . S
Mn433 O459 2.117 . S
C434 O456 1.234 . S
C434 O457 1.283 . S
C435 O447 1.281 . S
C435 O448 1.236 . S
C436 O458 1.240 . S
C436 O459 1.264 1_655 S
O437 Mn432 2.095 . S
O437 C446 1.250 . S
O438 Mn433 2.121 1_655 S
O438 C446 1.258 . S
C439 N440 1.326 . S
C439 C443 1.460 . S
C439 H445 0.929 . S
N440 Mn433 2.257 . S
N440 C439 1.326 . S
N440 C444 1.362 . S
C441 C442 1.258 . S
C441 C444 1.431 . S
C441 C461 1.449 . S
C442 C441 1.258 . S
C442 C443 1.477 . S
C442 H462 0.931 . S
C443 C439 1.460 . S
C443 C442 1.477 . S
C443 H463 0.930 1_554 S
C444 N440 1.362 . S
C444 C441 1.431 . S
C444 C454 1.476 . S
H445 C439 0.929 . S
C446 O437 1.250 . S
C446 O438 1.258 . S
O447 Mn432 2.162 . S
O447 C435 1.281 . S
O448 Mn432 2.297 . S
O448 C435 1.236 . S
N449 Mn433 2.282 . S
N449 C450 1.328 . S
N449 C454 1.318 . S
C450 N449 1.328 . S
C450 C451 1.457 . S
C450 H455 0.929 . S
C451 C450 1.457 . S
C451 C452 1.291 . S
C451 H464 0.931 . S
C452 C451 1.291 . S
C452 C453 1.373 . S
C452 H465 0.929 . S
C453 C452 1.373 . S
C453 C454 1.396 . S
C453 C460 1.403 . S
C454 C444 1.476 . S
C454 N449 1.318 . S
C454 C453 1.396 . S
H455 C450 0.929 . S
O456 Mn432 2.385 1_455 S
O456 C434 1.234 . S
O457 Mn432 2.209 1_455 S
O457 Mn433 2.215 . S
O457 C434 1.283 . S
O458 Mn432 2.094 . S
O458 C436 1.240 . S
O459 Mn433 2.117 . S
O459 C436 1.264 1_455 S
C460 C453 1.403 . S
C460 C461 1.399 . S
C460 H466 0.929 . S
C461 C441 1.449 . S
C461 C460 1.399 . S
C461 H467 0.930 . S
H462 C442 0.931 . S
H463 C443 0.930 1_556 S
H464 C451 0.931 . S
H465 C452 0.929 . S
H466 C460 0.929 . S
H467 C461 0.930 . S
Mn468 O473 2.095 . S
Mn468 O483 2.162 . S
Mn468 O484 2.297 . S
Mn468 O492 2.385 1_565 S
Mn468 O493 2.209 1_565 S
Mn468 O494 2.094 . S
Mn469 O474 2.121 1_545 S
Mn469 N476 2.257 . S
Mn469 N485 2.282 . S
Mn469 O493 2.215 . S
Mn469 O495 2.117 . S
C470 O492 1.234 . S
C470 O493 1.283 . S
C471 O483 1.281 . S
C471 O484 1.236 . S
C472 O494 1.240 . S
C472 O495 1.264 1_565 S
O473 Mn468 2.095 . S
O473 C482 1.250 . S
O474 Mn469 2.121 1_565 S
O474 C482 1.258 . S
C475 N476 1.326 . S
C475 C479 1.460 . S
C475 H481 0.929 . S
N476 Mn469 2.257 . S
N476 C475 1.326 . S
N476 C480 1.362 . S
C477 C478 1.258 . S
C477 C480 1.431 . S
C477 C497 1.449 . S
C478 C477 1.258 . S
C478 C479 1.477 . S
C478 H498 0.931 . S
C479 C475 1.460 . S
C479 C478 1.477 . S
C479 H499 0.930 . S
C480 N476 1.362 . S
C480 C477 1.431 . S
C480 C490 1.476 . S
H481 C475 0.929 . S
C482 O473 1.250 . S
C482 O474 1.258 . S
O483 Mn468 2.162 . S
O483 C471 1.281 . S
O484 Mn468 2.297 . S
O484 C471 1.236 . S
N485 Mn469 2.282 . S
N485 C486 1.328 . S
N485 C490 1.318 . S
C486 N485 1.328 . S
C486 C487 1.457 . S
C486 H491 0.929 . S
C487 C486 1.457 . S
C487 C488 1.291 . S
C487 H500 0.931 . S
C488 C487 1.291 . S
C488 C489 1.373 . S
C488 H501 0.929 . S
C489 C488 1.373 . S
C489 C490 1.396 . S
C489 C496 1.403 . S
C490 C480 1.476 . S
C490 N485 1.318 . S
C490 C489 1.396 . S
H491 C486 0.929 . S
O492 Mn468 2.385 1_545 S
O492 C470 1.234 . S
O493 Mn468 2.209 1_545 S
O493 Mn469 2.215 . S
O493 C470 1.283 . S
O494 Mn468 2.094 . S
O494 C472 1.240 . S
O495 Mn469 2.117 . S
O495 C472 1.264 1_545 S
C496 C489 1.403 . S
C496 C497 1.399 . S
C496 H502 0.929 . S
C497 C477 1.449 . S
C497 C496 1.399 . S
C497 H503 0.930 . S
H498 C478 0.931 . S
H499 C479 0.930 . S
H500 C487 0.931 . S
H501 C488 0.929 . S
H502 C496 0.929 . S
H503 C497 0.930 . S
Mn504 O509 2.095 . S
Mn504 O519 2.162 . S
Mn504 O520 2.297 . S
Mn504 O528 2.385 . S
Mn504 O529 2.209 . S
Mn504 O530 2.094 . S
Mn505 O510 2.121 . S
Mn505 N512 2.257 . S
Mn505 N521 2.282 . S
Mn505 O529 2.215 . S
Mn505 O531 2.117 . S
C506 O528 1.234 . S
C506 O529 1.283 . S
C507 O519 1.281 . S
C507 O520 1.236 . S
C508 O530 1.240 . S
C508 O531 1.264 . S
O509 Mn504 2.095 . S
O509 C518 1.250 . S
O510 Mn505 2.121 . S
O510 C518 1.258 . S
C511 N512 1.326 . S
C511 C515 1.460 . S
C511 H517 0.929 . S
N512 Mn505 2.257 . S
N512 C511 1.326 . S
N512 C516 1.362 . S
C513 C514 1.258 . S
C513 C516 1.431 . S
C513 C533 1.449 . S
C514 C513 1.258 . S
C514 C515 1.477 . S
C514 H534 0.931 . S
C515 C511 1.460 . S
C515 C514 1.477 . S
C515 H535 0.930 1_554 S
C516 N512 1.362 . S
C516 C513 1.431 . S
C516 C526 1.476 . S
H517 C511 0.929 . S
C518 O509 1.250 . S
C518 O510 1.258 . S
O519 Mn504 2.162 . S
O519 C507 1.281 . S
O520 Mn504 2.297 . S
O520 C507 1.236 . S
N521 Mn505 2.282 . S
N521 C522 1.328 . S
N521 C526 1.318 . S
C522 N521 1.328 . S
C522 C523 1.457 . S
C522 H527 0.929 . S
C523 C522 1.457 . S
C523 C524 1.291 . S
C523 H536 0.931 . S
C524 C523 1.291 . S
C524 C525 1.373 . S
C524 H537 0.929 . S
C525 C524 1.373 . S
C525 C526 1.396 . S
C525 C532 1.403 . S
C526 C516 1.476 . S
C526 N521 1.318 . S
C526 C525 1.396 . S
H527 C522 0.929 . S
O528 Mn504 2.385 . S
O528 C506 1.234 . S
O529 Mn504 2.209 . S
O529 Mn505 2.215 . S
O529 C506 1.283 . S
O530 Mn504 2.094 . S
O530 C508 1.240 . S
O531 Mn505 2.117 . S
O531 C508 1.264 . S
C532 C525 1.403 . S
C532 C533 1.399 . S
C532 H538 0.929 . S
C533 C513 1.449 . S
C533 C532 1.399 . S
C533 H539 0.930 . S
H534 C514 0.931 . S
H535 C515 0.930 1_556 S
H536 C523 0.931 . S
H537 C524 0.929 . S
H538 C532 0.929 . S
H539 C533 0.930 . S
Mn540 O545 2.095 . S
Mn540 O555 2.162 . S
Mn540 O556 2.297 . S
Mn540 O564 2.385 . S
Mn540 O565 2.209 . S
Mn540 O566 2.094 . S
Mn541 O546 2.121 . S
Mn541 N548 2.257 . S
Mn541 N557 2.282 . S
Mn541 O565 2.215 . S
Mn541 O567 2.117 . S
C542 O564 1.234 . S
C542 O565 1.283 . S
C543 O555 1.281 . S
C543 O556 1.236 . S
C544 O566 1.240 . S
C544 O567 1.264 . S
O545 Mn540 2.095 . S
O545 C554 1.250 . S
O546 Mn541 2.121 . S
O546 C554 1.258 . S
C547 N548 1.326 . S
C547 C551 1.460 . S
C547 H553 0.929 . S
N548 Mn541 2.257 . S
N548 C547 1.326 . S
N548 C552 1.362 . S
C549 C550 1.258 . S
C549 C552 1.431 . S
C549 C569 1.449 . S
C550 C549 1.258 . S
C550 C551 1.477 . S
C550 H570 0.931 . S
C551 C547 1.460 . S
C551 C550 1.477 . S
C551 H571 0.930 . S
C552 N548 1.362 . S
C552 C549 1.431 . S
C552 C562 1.476 . S
H553 C547 0.929 . S
C554 O545 1.250 . S
C554 O546 1.258 . S
O555 Mn540 2.162 . S
O555 C543 1.281 . S
O556 Mn540 2.297 . S
O556 C543 1.236 . S
N557 Mn541 2.282 . S
N557 C558 1.328 . S
N557 C562 1.318 . S
C558 N557 1.328 . S
C558 C559 1.457 . S
C558 H563 0.929 . S
C559 C558 1.457 . S
C559 C560 1.291 . S
C559 H572 0.931 . S
C560 C559 1.291 . S
C560 C561 1.373 . S
C560 H573 0.929 . S
C561 C560 1.373 . S
C561 C562 1.396 . S
C561 C568 1.403 . S
C562 C552 1.476 . S
C562 N557 1.318 . S
C562 C561 1.396 . S
H563 C558 0.929 . S
O564 Mn540 2.385 . S
O564 C542 1.234 . S
O565 Mn540 2.209 . S
O565 Mn541 2.215 . S
O565 C542 1.283 . S
O566 Mn540 2.094 . S
O566 C544 1.240 . S
O567 Mn541 2.117 . S
O567 C544 1.264 . S
C568 C561 1.403 . S
C568 C569 1.399 . S
C568 H574 0.929 . S
C569 C549 1.449 . S
C569 C568 1.399 . S
C569 H575 0.930 . S
H570 C550 0.931 . S
H571 C551 0.930 . S
H572 C559 0.931 . S
H573 C560 0.929 . S
H574 C568 0.929 . S
H575 C569 0.930 . S
C576 C577 1.349 . S
C576 C578 1.327 . S
C576 H601 0.955 . S
C577 C576 1.349 . S
C577 C593 1.349 . S
C578 C576 1.327 . S
C578 C597 1.429 . S
C578 H602 0.952 . S
C579 C596 1.574 . S
C579 C598 1.368 1_556 S
C579 H603 0.949 . S
H580 C584 0.951 . S
C581 C582 1.349 . S
C581 C583 1.327 . S
C581 H604 0.950 . S
C582 C581 1.349 . S
C582 C594 1.349 . S
C583 C581 1.327 . S
C583 C599 1.429 . S
C583 H605 0.950 . S
C584 H580 0.951 . S
C584 C592 1.574 . S
C584 C600 1.368 1_554 S
H585 C593 0.950 . S
H586 C591 0.950 1_556 S
H587 C592 0.951 . S
H588 C594 0.954 . S
H589 C595 0.952 1_554 S
H590 C596 0.949 . S
C591 H586 0.950 1_554 S
C591 C593 1.327 . S
C591 C597 1.429 . S
C592 C584 1.574 . S
C592 H587 0.951 . S
C592 C598 1.368 . S
C593 C577 1.349 . S
C593 H585 0.950 . S
C593 C591 1.327 . S
C594 C582 1.349 . S
C594 H588 0.954 . S
C594 C595 1.327 . S
C595 H589 0.952 1_556 S
C595 C594 1.327 . S
C595 C599 1.429 . S
C596 C579 1.574 . S
C596 H590 0.949 . S
C596 C600 1.368 . S
C597 C578 1.429 . S
C597 C591 1.429 . S
C597 C598 1.523 . S
C598 C579 1.368 1_554 S
C598 C592 1.368 . S
C598 C597 1.523 . S
C599 C583 1.429 . S
C599 C595 1.429 . S
C599 C600 1.523 . S
C600 C584 1.368 1_556 S
C600 C596 1.368 . S
C600 C599 1.523 . S
H601 C576 0.955 . S
H602 C578 0.952 . S
H603 C579 0.949 . S
H604 C581 0.950 . S
H605 C583 0.950 . S
C606 C607 1.349 1_565 S
C606 C608 1.327 . S
C606 H631 0.950 . S
C607 C606 1.349 1_545 S
C607 C623 1.349 . S
C608 C606 1.327 . S
C608 C627 1.429 1_565 S
C608 H632 0.950 . S
C609 C626 1.574 . S
C609 C628 1.368 . S
C609 H633 0.949 . S
H610 C614 0.949 . S
C611 C612 1.349 . S
C611 C613 1.327 . S
C611 H634 0.950 . S
C612 C611 1.349 . S
C612 C624 1.349 1_545 S
C613 C611 1.327 . S
C613 C629 1.429 . S
C613 H635 0.950 . S
C614 H610 0.949 . S
C614 C622 1.574 . S
C614 C630 1.368 1_565 S
H615 C623 0.950 . S
H616 C621 0.950 . S
H617 C622 0.949 . S
H618 C624 0.950 . S
H619 C625 0.950 . S
H620 C626 0.949 . S
C621 H616 0.950 . S
C621 C623 1.327 . S
C621 C627 1.429 . S
C622 C614 1.574 . S
C622 H617 0.949 . S
C622 C628 1.368 1_565 S
C623 C607 1.349 . S
C623 H615 0.950 . S
C623 C621 1.327 . S
C624 C612 1.349 1_565 S
C624 H618 0.950 . S
C624 C625 1.327 . S
C625 H619 0.950 . S
C625 C624 1.327 . S
C625 C629 1.429 1_565 S
C626 C609 1.574 . S
C626 H620 0.949 . S
C626 C630 1.368 . S
C627 C608 1.429 1_545 S
C627 C621 1.429 . S
C627 C628 1.523 . S
C628 C609 1.368 . S
C628 C622 1.368 1_545 S
C628 C627 1.523 . S
C629 C613 1.429 . S
C629 C625 1.429 1_545 S
C629 C630 1.523 . S
C630 C614 1.368 1_545 S
C630 C626 1.368 . S
C630 C629 1.523 . S
H631 C606 0.950 . S
H632 C608 0.950 . S
H633 C609 0.949 . S
H634 C611 0.950 . S
H635 C613 0.950 . S
C636 C637 1.349 . S
C636 C638 1.327 . S
C636 H661 0.950 . S
C637 C636 1.349 . S
C637 C653 1.349 . S
C638 C636 1.327 . S
C638 C657 1.429 . S
C638 H662 0.950 . S
C639 C656 1.574 1_554 S
C639 C658 1.368 . S
C639 H663 0.949 . S
H640 C644 0.949 . S
C641 C642 1.349 . S
C641 C643 1.327 . S
C641 H664 0.950 . S
C642 C641 1.349 . S
C642 C654 1.349 . S
C643 C641 1.327 . S
C643 C659 1.429 . S
C643 H665 0.950 . S
C644 H640 0.949 . S
C644 C652 1.574 1_556 S
C644 C660 1.368 . S
H645 C653 0.950 . S
H646 C651 0.950 . S
H647 C652 0.949 . S
H648 C654 0.950 . S
H649 C655 0.950 . S
H650 C656 0.949 . S
C651 H646 0.950 . S
C651 C653 1.327 . S
C651 C657 1.429 . S
C652 C644 1.574 1_554 S
C652 H647 0.949 . S
C652 C658 1.368 . S
C653 C637 1.349 . S
C653 H645 0.950 . S
C653 C651 1.327 . S
C654 C642 1.349 . S
C654 H648 0.950 . S
C654 C655 1.327 . S
C655 H649 0.950 . S
C655 C654 1.327 . S
C655 C659 1.429 . S
C656 C639 1.574 1_556 S
C656 H650 0.949 . S
C656 C660 1.368 . S
C657 C638 1.429 . S
C657 C651 1.429 . S
C657 C658 1.523 . S
C658 C639 1.368 . S
C658 C652 1.368 . S
C658 C657 1.523 . S
C659 C643 1.429 . S
C659 C655 1.429 . S
C659 C660 1.523 . S
C660 C644 1.368 . S
C660 C656 1.368 . S
C660 C659 1.523 . S
H661 C636 0.950 . S
H662 C638 0.950 . S
H663 C639 0.949 . S
H664 C641 0.950 . S
H665 C643 0.950 . S
C666 C667 1.349 . S
C666 C668 1.327 . S
C666 H691 0.950 . S
C667 C666 1.349 . S
C667 C683 1.349 . S
C668 C666 1.327 . S
C668 C687 1.429 . S
C668 H692 0.950 . S
C669 C686 1.574 . S
C669 C688 1.368 . S
C669 H693 0.949 . S
H670 C674 0.949 . S
C671 C672 1.349 . S
C671 C673 1.327 . S
C671 H694 0.950 . S
C672 C671 1.349 . S
C672 C684 1.349 . S
C673 C671 1.327 . S
C673 C689 1.429 . S
C673 H695 0.950 . S
C674 H670 0.949 . S
C674 C682 1.574 . S
C674 C690 1.368 . S
H675 C683 0.950 . S
H676 C681 0.950 . S
H677 C682 0.949 . S
H678 C684 0.950 . S
H679 C685 0.950 . S
H680 C686 0.949 . S
C681 H676 0.950 . S
C681 C683 1.327 . S
C681 C687 1.429 . S
C682 C674 1.574 . S
C682 H677 0.949 . S
C682 C688 1.368 . S
C683 C667 1.349 . S
C683 H675 0.950 . S
C683 C681 1.327 . S
C684 C672 1.349 . S
C684 H678 0.950 . S
C684 C685 1.327 . S
C685 H679 0.950 . S
C685 C684 1.327 . S
C685 C689 1.429 . S
C686 C669 1.574 . S
C686 H680 0.949 . S
C686 C690 1.368 . S
C687 C668 1.429 . S
C687 C681 1.429 . S
C687 C688 1.523 . S
C688 C669 1.368 . S
C688 C682 1.368 . S
C688 C687 1.523 . S
C689 C673 1.429 . S
C689 C685 1.429 . S
C689 C690 1.523 . S
C690 C674 1.368 . S
C690 C686 1.368 . S
C690 C689 1.523 . S
H691 C666 0.950 . S
H692 C668 0.950 . S
H693 C669 0.949 . S
H694 C671 0.950 . S
H695 C673 0.950 . S
C696 C697 1.349 1_455 S
C696 C698 1.327 . S
C696 H721 0.950 . S
C697 C696 1.349 1_655 S
C697 C713 1.349 . S
C698 C696 1.327 . S
C698 C717 1.429 1_455 S
C698 H722 0.950 . S
C699 C716 1.574 1_556 S
C699 C718 1.368 . S
C699 H723 0.949 . S
H700 C704 0.949 . S
C701 C702 1.349 . S
C701 C703 1.327 . S
C701 H724 0.950 . S
C702 C701 1.349 . S
C702 C714 1.349 1_655 S
C703 C701 1.327 . S
C703 C719 1.429 . S
C703 H725 0.950 . S
C704 H700 0.949 . S
C704 C712 1.574 1_554 S
C704 C720 1.368 1_455 S
H705 C713 0.950 . S
H706 C711 0.950 . S
H707 C712 0.949 . S
H708 C714 0.950 . S
H709 C715 0.950 . S
H710 C716 0.949 . S
C711 H706 0.950 . S
C711 C713 1.327 . S
C711 C717 1.429 . S
C712 C704 1.574 1_556 S
C712 H707 0.949 . S
C712 C718 1.368 1_455 S
C713 C697 1.349 . S
C713 H705 0.950 . S
C713 C711 1.327 . S
C714 C702 1.349 1_455 S
C714 H708 0.950 . S
C714 C715 1.327 . S
C715 H709 0.950 . S
C715 C714 1.327 . S
C715 C719 1.429 1_455 S
C716 C699 1.574 1_554 S
C716 H710 0.949 . S
C716 C720 1.368 . S
C717 C698 1.429 1_655 S
C717 C711 1.429 . S
C717 C718 1.523 . S
C718 C699 1.368 . S
C718 C712 1.368 1_655 S
C718 C717 1.523 . S
C719 C703 1.429 . S
C719 C715 1.429 1_655 S
C719 C720 1.523 . S
C720 C704 1.368 1_655 S
C720 C716 1.368 . S
C720 C719 1.523 . S
H721 C696 0.950 . S
H722 C698 0.950 . S
H723 C699 0.949 . S
H724 C701 0.950 . S
H725 C703 0.950 . S
C726 C727 1.349 1_545 S
C726 C728 1.327 . S
C726 H751 0.950 . S
C727 C726 1.349 1_565 S
C727 C743 1.349 . S
C728 C726 1.327 . S
C728 C747 1.429 1_545 S
C728 H752 0.950 . S
C729 C746 1.574 . S
C729 C748 1.368 . S
C729 H753 0.949 . S
H730 C734 0.949 . S
C731 C732 1.349 . S
C731 C733 1.327 . S
C731 H754 0.950 . S
C732 C731 1.349 . S
C732 C744 1.349 1_565 S
C733 C731 1.327 . S
C733 C749 1.429 . S
C733 H755 0.950 . S
C734 H730 0.949 . S
C734 C742 1.574 . S
C734 C750 1.368 1_545 S
H735 C743 0.950 . S
H736 C741 0.950 . S
H737 C742 0.949 . S
H738 C744 0.950 . S
H739 C745 0.950 . S
H740 C746 0.949 . S
C741 H736 0.950 . S
C741 C743 1.327 . S
C741 C747 1.429 . S
C742 C734 1.574 . S
C742 H737 0.949 . S
C742 C748 1.368 1_545 S
C743 C727 1.349 . S
C743 H735 0.950 . S
C743 C741 1.327 . S
C744 C732 1.349 1_545 S
C744 H738 0.950 . S
C744 C745 1.327 . S
C745 H739 0.950 . S
C745 C744 1.327 . S
C745 C749 1.429 1_545 S
C746 C729 1.574 . S
C746 H740 0.949 . S
C746 C750 1.368 . S
C747 C728 1.429 1_565 S
C747 C741 1.429 . S
C747 C748 1.523 . S
C748 C729 1.368 . S
C748 C742 1.368 1_565 S
C748 C747 1.523 . S
C749 C733 1.429 . S
C749 C745 1.429 1_565 S
C749 C750 1.523 . S
C750 C734 1.368 1_565 S
C750 C746 1.368 . S
C750 C749 1.523 . S
H751 C726 0.950 . S
H752 C728 0.950 . S
H753 C729 0.949 . S
H754 C731 0.950 . S
H755 C733 0.950 . S
C756 C757 1.349 . S
C756 C758 1.327 . S
C756 H781 0.950 . S
C757 C756 1.349 . S
C757 C773 1.349 . S
C758 C756 1.327 . S
C758 C777 1.429 . S
C758 H782 0.950 . S
C759 C776 1.574 . S
C759 C778 1.368 . S
C759 H783 0.949 . S
H760 C764 0.949 . S
C761 C762 1.349 . S
C761 C763 1.327 . S
C761 H784 0.950 . S
C762 C761 1.349 . S
C762 C774 1.349 . S
C763 C761 1.327 . S
C763 C779 1.429 . S
C763 H785 0.950 . S
C764 H760 0.949 . S
C764 C772 1.574 . S
C764 C780 1.368 . S
H765 C773 0.950 . S
H766 C771 0.950 . S
H767 C772 0.949 . S
H768 C774 0.950 . S
H769 C775 0.950 . S
H770 C776 0.949 . S
C771 H766 0.950 . S
C771 C773 1.327 . S
C771 C777 1.429 . S
C772 C764 1.574 . S
C772 H767 0.949 . S
C772 C778 1.368 1_554 S
C773 C757 1.349 . S
C773 H765 0.950 . S
C773 C771 1.327 . S
C774 C762 1.349 . S
C774 H768 0.950 . S
C774 C775 1.327 . S
C775 H769 0.950 . S
C775 C774 1.327 . S
C775 C779 1.429 . S
C776 C759 1.574 . S
C776 H770 0.949 . S
C776 C780 1.368 1_556 S
C777 C758 1.429 . S
C777 C771 1.429 . S
C777 C778 1.523 . S
C778 C759 1.368 . S
C778 C772 1.368 1_556 S
C778 C777 1.523 . S
C779 C763 1.429 . S
C779 C775 1.429 . S
C779 C780 1.523 . S
C780 C764 1.368 . S
C780 C776 1.368 1_554 S
C780 C779 1.523 . S
H781 C756 0.950 . S
H782 C758 0.950 . S
H783 C759 0.949 . S
H784 C761 0.950 . S
H785 C763 0.950 . S
C786 C787 1.349 . S
C786 C788 1.327 . S
C786 H811 0.950 . S
C787 C786 1.349 . S
C787 C803 1.349 . S
C788 C786 1.327 . S
C788 C807 1.429 . S
C788 H812 0.950 . S
C789 C806 1.574 . S
C789 C808 1.368 . S
C789 H813 0.949 . S
H790 C794 0.949 . S
C791 C792 1.349 . S
C791 C793 1.327 . S
C791 H814 0.950 . S
C792 C791 1.349 . S
C792 C804 1.349 . S
C793 C791 1.327 . S
C793 C809 1.429 . S
C793 H815 0.950 . S
C794 H790 0.949 . S
C794 C802 1.574 . S
C794 C810 1.368 . S
H795 C803 0.950 . S
H796 C801 0.950 . S
H797 C802 0.949 . S
H798 C804 0.950 . S
H799 C805 0.950 . S
H800 C806 0.949 . S
C801 H796 0.950 . S
C801 C803 1.327 . S
C801 C807 1.429 . S
C802 C794 1.574 . S
C802 H797 0.949 . S
C802 C808 1.368 . S
C803 C787 1.349 . S
C803 H795 0.950 . S
C803 C801 1.327 . S
C804 C792 1.349 . S
C804 H798 0.950 . S
C804 C805 1.327 . S
C805 H799 0.950 . S
C805 C804 1.327 . S
C805 C809 1.429 . S
C806 C789 1.574 . S
C806 H800 0.949 . S
C806 C810 1.368 . S
C807 C788 1.429 . S
C807 C801 1.429 . S
C807 C808 1.523 . S
C808 C789 1.368 . S
C808 C802 1.368 . S
C808 C807 1.523 . S
C809 C793 1.429 . S
C809 C805 1.429 . S
C809 C810 1.523 . S
C810 C794 1.368 . S
C810 C806 1.368 . S
C810 C809 1.523 . S
H811 C786 0.950 . S
H812 C788 0.950 . S
H813 C789 0.949 . S
H814 C791 0.950 . S
H815 C793 0.950 . S
C816 C817 1.349 . S
C816 C818 1.327 . S
C816 H841 0.950 . S
C817 C816 1.349 . S
C817 C833 1.349 . S
C818 C816 1.327 . S
C818 C837 1.429 1_554 S
C818 H842 0.950 . S
C819 C836 1.574 . S
C819 C838 1.368 . S
C819 H843 0.949 . S
H820 C824 0.949 . S
C821 C822 1.349 . S
C821 C823 1.327 . S
C821 H844 0.950 . S
C822 C821 1.349 . S
C822 C834 1.349 . S
C823 C821 1.327 . S
C823 C839 1.429 . S
C823 H845 0.950 . S
C824 H820 0.949 . S
C824 C832 1.574 . S
C824 C840 1.368 . S
H825 C833 0.950 . S
H826 C831 0.950 . S
H827 C832 0.949 . S
H828 C834 0.950 . S
H829 C835 0.950 . S
H830 C836 0.949 . S
C831 H826 0.950 . S
C831 C833 1.327 1_556 S
C831 C837 1.429 . S
C832 C824 1.574 . S
C832 H827 0.949 . S
C832 C838 1.368 . S
C833 C817 1.349 . S
C833 H825 0.950 . S
C833 C831 1.327 1_554 S
C834 C822 1.349 . S
C834 H828 0.950 . S
C834 C835 1.327 . S
C835 H829 0.950 . S
C835 C834 1.327 . S
C835 C839 1.429 . S
C836 C819 1.574 . S
C836 H830 0.949 . S
C836 C840 1.368 . S
C837 C818 1.429 1_556 S
C837 C831 1.429 . S
C837 C838 1.523 . S
C838 C819 1.368 . S
C838 C832 1.368 . S
C838 C837 1.523 . S
C839 C823 1.429 . S
C839 C835 1.429 . S
C839 C840 1.523 . S
C840 C824 1.368 . S
C840 C836 1.368 . S
C840 C839 1.523 . S
H841 C816 0.950 . S
H842 C818 0.950 . S
H843 C819 0.949 . S
H844 C821 0.950 . S
H845 C823 0.950 . S
C846 C847 1.349 . S
C846 C848 1.327 . S
C846 H871 0.950 . S
C847 C846 1.349 . S
C847 C863 1.349 . S
C848 C846 1.327 . S
C848 C867 1.429 . S
C848 H872 0.950 . S
C849 C866 1.574 . S
C849 C868 1.368 . S
C849 H873 0.949 . S
H850 C854 0.949 . S
C851 C852 1.349 . S
C851 C853 1.327 . S
C851 H874 0.950 . S
C852 C851 1.349 . S
C852 C864 1.349 . S
C853 C851 1.327 . S
C853 C869 1.429 . S
C853 H875 0.950 . S
C854 H850 0.949 . S
C854 C862 1.574 . S
C854 C870 1.368 . S
H855 C863 0.950 . S
H856 C861 0.950 . S
H857 C862 0.949 . S
H858 C864 0.950 . S
H859 C865 0.950 . S
H860 C866 0.949 . S
C861 H856 0.950 . S
C861 C863 1.327 . S
C861 C867 1.429 . S
C862 C854 1.574 . S
C862 H857 0.949 . S
C862 C868 1.368 . S
C863 C847 1.349 . S
C863 H855 0.950 . S
C863 C861 1.327 . S
C864 C852 1.349 . S
C864 H858 0.950 . S
C864 C865 1.327 . S
C865 H859 0.950 . S
C865 C864 1.327 . S
C865 C869 1.429 . S
C866 C849 1.574 . S
C866 H860 0.949 . S
C866 C870 1.368 . S
C867 C848 1.429 . S
C867 C861 1.429 . S
C867 C868 1.523 . S
C868 C849 1.368 . S
C868 C862 1.368 . S
C868 C867 1.523 . S
C869 C853 1.429 . S
C869 C865 1.429 . S
C869 C870 1.523 . S
C870 C854 1.368 . S
C870 C866 1.368 . S
C870 C869 1.523 . S
H871 C846 0.950 . S
H872 C848 0.950 . S
H873 C849 0.949 . S
H874 C851 0.950 . S
H875 C853 0.950 . S
C876 C877 1.349 . S
C876 C878 1.327 1_554 S
C876 H901 0.950 . S
C877 C876 1.349 . S
C877 C893 1.349 . S
C878 C876 1.327 1_556 S
C878 C897 1.429 . S
C878 H902 0.950 . S
C879 C896 1.574 . S
C879 C898 1.368 . S
C879 H903 0.949 . S
H880 C884 0.949 . S
C881 C882 1.349 . S
C881 C883 1.327 . S
C881 H904 0.950 . S
C882 C881 1.349 . S
C882 C894 1.349 . S
C883 C881 1.327 . S
C883 C899 1.429 . S
C883 H905 0.950 . S
C884 H880 0.949 . S
C884 C892 1.574 . S
C884 C900 1.368 . S
H885 C893 0.950 . S
H886 C891 0.950 . S
H887 C892 0.949 . S
H888 C894 0.950 . S
H889 C895 0.950 . S
H890 C896 0.949 . S
C891 H886 0.950 . S
C891 C893 1.327 1_556 S
C891 C897 1.429 . S
C892 C884 1.574 . S
C892 H887 0.949 . S
C892 C898 1.368 . S
C893 C877 1.349 . S
C893 H885 0.950 . S
C893 C891 1.327 1_554 S
C894 C882 1.349 . S
C894 H888 0.950 . S
C894 C895 1.327 . S
C895 H889 0.950 . S
C895 C894 1.327 . S
C895 C899 1.429 . S
C896 C879 1.574 . S
C896 H890 0.949 . S
C896 C900 1.368 . S
C897 C878 1.429 . S
C897 C891 1.429 . S
C897 C898 1.523 . S
C898 C879 1.368 . S
C898 C892 1.368 . S
C898 C897 1.523 . S
C899 C883 1.429 . S
C899 C895 1.429 . S
C899 C900 1.523 . S
C900 C884 1.368 . S
C900 C896 1.368 . S
C900 C899 1.523 . S
H901 C876 0.950 . S
H902 C878 0.950 . S
H903 C879 0.949 . S
H904 C881 0.950 . S
H905 C883 0.950 . S
C906 C907 1.349 . S
C906 C908 1.327 . S
C906 H931 0.950 . S
C907 C906 1.349 . S
C907 C923 1.349 . S
C908 C906 1.327 . S
C908 C927 1.429 . S
C908 H932 0.950 . S
C909 C926 1.574 . S
C909 C928 1.368 . S
C909 H933 0.949 . S
H910 C914 0.949 . S
C911 C912 1.349 . S
C911 C913 1.327 . S
C911 H934 0.950 . S
C912 C911 1.349 . S
C912 C924 1.349 . S
C913 C911 1.327 . S
C913 C929 1.429 . S
C913 H935 0.950 . S
C914 H910 0.949 . S
C914 C922 1.574 . S
C914 C930 1.368 . S
H915 C923 0.950 . S
H916 C921 0.950 . S
H917 C922 0.949 . S
H918 C924 0.950 . S
H919 C925 0.950 . S
H920 C926 0.949 . S
C921 H916 0.950 . S
C921 C923 1.327 . S
C921 C927 1.429 . S
C922 C914 1.574 . S
C922 H917 0.949 . S
C922 C928 1.368 . S
C923 C907 1.349 . S
C923 H915 0.950 . S
C923 C921 1.327 . S
C924 C912 1.349 . S
C924 H918 0.950 . S
C924 C925 1.327 . S
C925 H919 0.950 . S
C925 C924 1.327 . S
C925 C929 1.429 . S
C926 C909 1.574 . S
C926 H920 0.949 . S
C926 C930 1.368 . S
C927 C908 1.429 . S
C927 C921 1.429 . S
C927 C928 1.523 . S
C928 C909 1.368 . S
C928 C922 1.368 . S
C928 C927 1.523 . S
C929 C913 1.429 . S
C929 C925 1.429 . S
C929 C930 1.523 . S
C930 C914 1.368 . S
C930 C926 1.368 . S
C930 C929 1.523 . S
H931 C906 0.950 . S
H932 C908 0.950 . S
H933 C909 0.949 . S
H934 C911 0.950 . S
H935 C913 0.950 . S
C936 C937 1.349 . S
C936 C938 1.327 . S
C936 H961 0.950 . S
C937 C936 1.349 . S
C937 C953 1.349 . S
C938 C936 1.327 . S
C938 C957 1.429 . S
C938 H962 0.950 . S
C939 C956 1.574 . S
C939 C958 1.368 . S
C939 H963 0.949 . S
H940 C944 0.949 . S
C941 C942 1.349 1_554 S
C941 C943 1.327 . S
C941 H964 0.950 . S
C942 C941 1.349 1_556 S
C942 C954 1.349 . S
C943 C941 1.327 . S
C943 C959 1.429 . S
C943 H965 0.950 . S
C944 H940 0.949 . S
C944 C952 1.574 . S
C944 C960 1.368 . S
H945 C953 0.950 . S
H946 C951 0.950 . S
H947 C952 0.949 . S
H948 C954 0.950 . S
H949 C955 0.950 . S
H950 C956 0.949 . S
C951 H946 0.950 . S
C951 C953 1.327 . S
C951 C957 1.429 . S
C952 C944 1.574 . S
C952 H947 0.949 . S
C952 C958 1.368 . S
C953 C937 1.349 . S
C953 H945 0.950 . S
C953 C951 1.327 . S
C954 C942 1.349 . S
C954 H948 0.950 . S
C954 C955 1.327 . S
C955 H949 0.950 . S
C955 C954 1.327 . S
C955 C959 1.429 1_556 S
C956 C939 1.574 . S
C956 H950 0.949 . S
C956 C960 1.368 . S
C957 C938 1.429 . S
C957 C951 1.429 . S
C957 C958 1.523 . S
C958 C939 1.368 . S
C958 C952 1.368 . S
C958 C957 1.523 . S
C959 C943 1.429 . S
C959 C955 1.429 1_554 S
C959 C960 1.523 . S
C960 C944 1.368 . S
C960 C956 1.368 . S
C960 C959 1.523 . S
H961 C936 0.950 . S
H962 C938 0.950 . S
H963 C939 0.949 . S
H964 C941 0.950 . S
H965 C943 0.950 . S
C966 C967 1.349 . S
C966 C968 1.327 . S
C966 H991 0.950 . S
C967 C966 1.349 . S
C967 C983 1.349 . S
C968 C966 1.327 . S
C968 C987 1.429 . S
C968 H992 0.950 . S
C969 C986 1.574 . S
C969 C988 1.368 . S
C969 H993 0.949 . S
H970 C974 0.949 . S
C971 C972 1.349 . S
C971 C973 1.327 . S
C971 H994 0.950 . S
C972 C971 1.349 . S
C972 C984 1.349 . S
C973 C971 1.327 . S
C973 C989 1.429 . S
C973 H995 0.950 . S
C974 H970 0.949 . S
C974 C982 1.574 . S
C974 C990 1.368 . S
H975 C983 0.950 . S
H976 C981 0.950 . S
H977 C982 0.949 . S
H978 C984 0.950 . S
H979 C985 0.950 . S
H980 C986 0.949 . S
C981 H976 0.950 . S
C981 C983 1.327 . S
C981 C987 1.429 . S
C982 C974 1.574 . S
C982 H977 0.949 . S
C982 C988 1.368 . S
C983 C967 1.349 . S
C983 H975 0.950 . S
C983 C981 1.327 . S
C984 C972 1.349 . S
C984 H978 0.950 . S
C984 C985 1.327 . S
C985 H979 0.950 . S
C985 C984 1.327 . S
C985 C989 1.429 . S
C986 C969 1.574 . S
C986 H980 0.949 . S
C986 C990 1.368 . S
C987 C968 1.429 . S
C987 C981 1.429 . S
C987 C988 1.523 . S
C988 C969 1.368 . S
C988 C982 1.368 . S
C988 C987 1.523 . S
C989 C973 1.429 . S
C989 C985 1.429 . S
C989 C990 1.523 . S
C990 C974 1.368 . S
C990 C986 1.368 . S
C990 C989 1.523 . S
H991 C966 0.950 . S
H992 C968 0.950 . S
H993 C969 0.949 . S
H994 C971 0.950 . S
H995 C973 0.950 . S
C996 C997 1.349 . S
C996 C998 1.327 . S
C996 H1021 0.950 . S
C997 C996 1.349 . S
C997 C1013 1.349 . S
C998 C996 1.327 . S
C998 C1017 1.429 . S
C998 H1022 0.950 . S
C999 C1016 1.574 . S
C999 C1018 1.368 . S
C999 H1023 0.949 . S
H1000 C1004 0.949 . S
C1001 C1002 1.349 . S
C1001 C1003 1.327 . S
C1001 H1024 0.950 . S
C1002 C1001 1.349 . S
C1002 C1014 1.349 1_556 S
C1003 C1001 1.327 . S
C1003 C1019 1.429 1_556 S
C1003 H1025 0.950 . S
C1004 H1000 0.949 . S
C1004 C1012 1.574 . S
C1004 C1020 1.368 . S
H1005 C1013 0.950 . S
H1006 C1011 0.950 . S
H1007 C1012 0.949 . S
H1008 C1014 0.950 . S
H1009 C1015 0.950 . S
H1010 C1016 0.949 . S
C1011 H1006 0.950 . S
C1011 C1013 1.327 . S
C1011 C1017 1.429 . S
C1012 C1004 1.574 . S
C1012 H1007 0.949 . S
C1012 C1018 1.368 . S
C1013 C997 1.349 . S
C1013 H1005 0.950 . S
C1013 C1011 1.327 . S
C1014 C1002 1.349 1_554 S
C1014 H1008 0.950 . S
C1014 C1015 1.327 . S
C1015 H1009 0.950 . S
C1015 C1014 1.327 . S
C1015 C1019 1.429 . S
C1016 C999 1.574 . S
C1016 H1010 0.949 . S
C1016 C1020 1.368 . S
C1017 C998 1.429 . S
C1017 C1011 1.429 . S
C1017 C1018 1.523 . S
C1018 C999 1.368 . S
C1018 C1012 1.368 . S
C1018 C1017 1.523 . S
C1019 C1003 1.429 1_554 S
C1019 C1015 1.429 . S
C1019 C1020 1.523 . S
C1020 C1004 1.368 . S
C1020 C1016 1.368 . S
C1020 C1019 1.523 . S
H1021 C996 0.950 . S
H1022 C998 0.950 . S
H1023 C999 0.949 . S
H1024 C1001 0.950 . S
H1025 C1003 0.950 . S
C1026 C1027 1.349 . S
C1026 C1028 1.327 . S
C1026 H1051 0.950 . S
C1027 C1026 1.349 . S
C1027 C1043 1.349 . S
C1028 C1026 1.327 . S
C1028 C1047 1.429 . S
C1028 H1052 0.950 . S
C1029 C1046 1.574 . S
C1029 C1048 1.368 . S
C1029 H1053 0.949 . S
H1030 C1034 0.949 . S
C1031 C1032 1.349 . S
C1031 C1033 1.327 . S
C1031 H1054 0.950 . S
C1032 C1031 1.349 . S
C1032 C1044 1.349 . S
C1033 C1031 1.327 . S
C1033 C1049 1.429 . S
C1033 H1055 0.950 . S
C1034 H1030 0.949 . S
C1034 C1042 1.574 . S
C1034 C1050 1.368 . S
H1035 C1043 0.950 . S
H1036 C1041 0.950 . S
H1037 C1042 0.949 . S
H1038 C1044 0.950 . S
H1039 C1045 0.950 . S
H1040 C1046 0.949 . S
C1041 H1036 0.950 . S
C1041 C1043 1.327 . S
C1041 C1047 1.429 . S
C1042 C1034 1.574 . S
C1042 H1037 0.949 . S
C1042 C1048 1.368 . S
C1043 C1027 1.349 . S
C1043 H1035 0.950 . S
C1043 C1041 1.327 . S
C1044 C1032 1.349 . S
C1044 H1038 0.950 . S
C1044 C1045 1.327 . S
C1045 H1039 0.950 . S
C1045 C1044 1.327 . S
C1045 C1049 1.429 . S
C1046 C1029 1.574 . S
C1046 H1040 0.949 . S
C1046 C1050 1.368 . S
C1047 C1028 1.429 . S
C1047 C1041 1.429 . S
C1047 C1048 1.523 . S
C1048 C1029 1.368 . S
C1048 C1042 1.368 . S
C1048 C1047 1.523 . S
C1049 C1033 1.429 . S
C1049 C1045 1.429 . S
C1049 C1050 1.523 . S
C1050 C1034 1.368 . S
C1050 C1046 1.368 . S
C1050 C1049 1.523 . S
H1051 C1026 0.950 . S
H1052 C1028 0.950 . S
H1053 C1029 0.949 . S
H1054 C1031 0.950 . S
H1055 C1033 0.950 . S
C1056 C1057 1.349 . S
C1056 C1058 1.327 . S
C1056 H1081 0.950 . S
C1057 C1056 1.349 . S
C1057 C1073 1.349 1_556 S
C1058 C1056 1.327 . S
C1058 C1077 1.429 1_556 S
C1058 H1082 0.950 . S
C1059 C1076 1.574 . S
C1059 C1078 1.368 . S
C1059 H1083 0.949 . S
H1060 C1064 0.949 . S
C1061 C1062 1.349 . S
C1061 C1063 1.327 . S
C1061 H1084 0.950 . S
C1062 C1061 1.349 . S
C1062 C1074 1.349 . S
C1063 C1061 1.327 . S
C1063 C1079 1.429 . S
C1063 H1085 0.950 . S
C1064 H1060 0.949 . S
C1064 C1072 1.574 . S
C1064 C1080 1.368 . S
H1065 C1073 0.950 . S
H1066 C1071 0.950 . S
H1067 C1072 0.949 . S
H1068 C1074 0.950 . S
H1069 C1075 0.950 . S
H1070 C1076 0.949 . S
C1071 H1066 0.950 . S
C1071 C1073 1.327 . S
C1071 C1077 1.429 . S
C1072 C1064 1.574 . S
C1072 H1067 0.949 . S
C1072 C1078 1.368 . S
C1073 C1057 1.349 1_554 S
C1073 H1065 0.950 . S
C1073 C1071 1.327 . S
C1074 C1062 1.349 . S
C1074 H1068 0.950 . S
C1074 C1075 1.327 . S
C1075 H1069 0.950 . S
C1075 C1074 1.327 . S
C1075 C1079 1.429 . S
C1076 C1059 1.574 . S
C1076 H1070 0.949 . S
C1076 C1080 1.368 . S
C1077 C1058 1.429 1_554 S
C1077 C1071 1.429 . S
C1077 C1078 1.523 . S
C1078 C1059 1.368 . S
C1078 C1072 1.368 . S
C1078 C1077 1.523 . S
C1079 C1063 1.429 . S
C1079 C1075 1.429 . S
C1079 C1080 1.523 . S
C1080 C1064 1.368 . S
C1080 C1076 1.368 . S
C1080 C1079 1.523 . S
H1081 C1056 0.950 . S
H1082 C1058 0.950 . S
H1083 C1059 0.949 . S
H1084 C1061 0.950 . S
H1085 C1063 0.950 . S
C1086 C1087 1.349 . S
C1086 C1088 1.327 . S
C1086 H1111 0.950 . S
C1087 C1086 1.349 . S
C1087 C1103 1.349 . S
C1088 C1086 1.327 . S
C1088 C1107 1.429 . S
C1088 H1112 0.950 . S
C1089 C1106 1.574 . S
C1089 C1108 1.368 . S
C1089 H1113 0.949 . S
H1090 C1094 0.949 . S
C1091 C1092 1.349 . S
C1091 C1093 1.327 . S
C1091 H1114 0.950 . S
C1092 C1091 1.349 . S
C1092 C1104 1.349 . S
C1093 C1091 1.327 . S
C1093 C1109 1.429 . S
C1093 H1115 0.950 . S
C1094 H1090 0.949 . S
C1094 C1102 1.574 . S
C1094 C1110 1.368 . S
H1095 C1103 0.950 . S
H1096 C1101 0.950 . S
H1097 C1102 0.949 . S
H1098 C1104 0.950 . S
H1099 C1105 0.950 . S
H1100 C1106 0.949 . S
C1101 H1096 0.950 . S
C1101 C1103 1.327 . S
C1101 C1107 1.429 . S
C1102 C1094 1.574 . S
C1102 H1097 0.949 . S
C1102 C1108 1.368 . S
C1103 C1087 1.349 . S
C1103 H1095 0.950 . S
C1103 C1101 1.327 . S
C1104 C1092 1.349 . S
C1104 H1098 0.950 . S
C1104 C1105 1.327 . S
C1105 H1099 0.950 . S
C1105 C1104 1.327 . S
C1105 C1109 1.429 . S
C1106 C1089 1.574 . S
C1106 H1100 0.949 . S
C1106 C1110 1.368 . S
C1107 C1088 1.429 . S
C1107 C1101 1.429 . S
C1107 C1108 1.523 . S
C1108 C1089 1.368 . S
C1108 C1102 1.368 . S
C1108 C1107 1.523 . S
C1109 C1093 1.429 . S
C1109 C1105 1.429 . S
C1109 C1110 1.523 . S
C1110 C1094 1.368 . S
C1110 C1106 1.368 . S
C1110 C1109 1.523 . S
H1111 C1086 0.950 . S
H1112 C1088 0.950 . S
H1113 C1089 0.949 . S
H1114 C1091 0.950 . S
H1115 C1093 0.950 . S
C1116 C1117 1.349 . S
C1116 C1118 1.327 . S
C1116 H1141 0.950 . S
C1117 C1116 1.349 . S
C1117 C1133 1.349 . S
C1118 C1116 1.327 . S
C1118 C1137 1.429 . S
C1118 H1142 0.950 . S
C1119 C1136 1.574 . S
C1119 C1138 1.368 . S
C1119 H1143 0.949 . S
H1120 C1124 0.949 . S
C1121 C1122 1.349 . S
C1121 C1123 1.327 1_556 S
C1121 H1144 0.950 . S
C1122 C1121 1.349 . S
C1122 C1134 1.349 . S
C1123 C1121 1.327 1_554 S
C1123 C1139 1.429 . S
C1123 H1145 0.950 . S
C1124 H1120 0.949 . S
C1124 C1132 1.574 . S
C1124 C1140 1.368 . S
H1125 C1133 0.950 . S
H1126 C1131 0.950 . S
H1127 C1132 0.949 . S
H1128 C1134 0.950 . S
H1129 C1135 0.950 . S
H1130 C1136 0.949 . S
C1131 H1126 0.950 . S
C1131 C1133 1.327 . S
C1131 C1137 1.429 . S
C1132 C1124 1.574 . S
C1132 H1127 0.949 . S
C1132 C1138 1.368 . S
C1133 C1117 1.349 . S
C1133 H1125 0.950 . S
C1133 C1131 1.327 . S
C1134 C1122 1.349 . S
C1134 H1128 0.950 . S
C1134 C1135 1.327 1_556 S
C1135 H1129 0.950 . S
C1135 C1134 1.327 1_554 S
C1135 C1139 1.429 . S
C1136 C1119 1.574 . S
C1136 H1130 0.949 . S
C1136 C1140 1.368 . S
C1137 C1118 1.429 . S
C1137 C1131 1.429 . S
C1137 C1138 1.523 . S
C1138 C1119 1.368 . S
C1138 C1132 1.368 . S
C1138 C1137 1.523 . S
C1139 C1123 1.429 . S
C1139 C1135 1.429 . S
C1139 C1140 1.523 . S
C1140 C1124 1.368 . S
C1140 C1136 1.368 . S
C1140 C1139 1.523 . S
H1141 C1116 0.950 . S
H1142 C1118 0.950 . S
H1143 C1119 0.949 . S
H1144 C1121 0.950 . S
H1145 C1123 0.950 . S
C1146 C1147 1.349 . S
C1146 C1148 1.327 . S
C1146 H1171 0.950 . S
C1147 C1146 1.349 . S
C1147 C1163 1.349 . S
C1148 C1146 1.327 . S
C1148 C1167 1.429 . S
C1148 H1172 0.950 . S
C1149 C1166 1.574 . S
C1149 C1168 1.368 . S
C1149 H1173 0.949 . S
H1150 C1154 0.949 . S
C1151 C1152 1.349 . S
C1151 C1153 1.327 . S
C1151 H1174 0.950 . S
C1152 C1151 1.349 . S
C1152 C1164 1.349 . S
C1153 C1151 1.327 . S
C1153 C1169 1.429 . S
C1153 H1175 0.950 . S
C1154 H1150 0.949 . S
C1154 C1162 1.574 . S
C1154 C1170 1.368 . S
H1155 C1163 0.950 . S
H1156 C1161 0.950 . S
H1157 C1162 0.949 . S
H1158 C1164 0.950 . S
H1159 C1165 0.950 . S
H1160 C1166 0.949 . S
C1161 H1156 0.950 . S
C1161 C1163 1.327 . S
C1161 C1167 1.429 . S
C1162 C1154 1.574 . S
C1162 H1157 0.949 . S
C1162 C1168 1.368 . S
C1163 C1147 1.349 . S
C1163 H1155 0.950 . S
C1163 C1161 1.327 . S
C1164 C1152 1.349 . S
C1164 H1158 0.950 . S
C1164 C1165 1.327 . S
C1165 H1159 0.950 . S
C1165 C1164 1.327 . S
C1165 C1169 1.429 . S
C1166 C1149 1.574 . S
C1166 H1160 0.949 . S
C1166 C1170 1.368 . S
C1167 C1148 1.429 . S
C1167 C1161 1.429 . S
C1167 C1168 1.523 . S
C1168 C1149 1.368 . S
C1168 C1162 1.368 . S
C1168 C1167 1.523 . S
C1169 C1153 1.429 . S
C1169 C1165 1.429 . S
C1169 C1170 1.523 . S
C1170 C1154 1.368 . S
C1170 C1166 1.368 . S
C1170 C1169 1.523 . S
H1171 C1146 0.950 . S
H1172 C1148 0.950 . S
H1173 C1149 0.949 . S
H1174 C1151 0.950 . S
H1175 C1153 0.950 . S
C1176 C1177 1.349 . S
C1176 C1178 1.327 . S
C1176 H1201 0.950 . S
C1177 C1176 1.349 . S
C1177 C1193 1.349 . S
C1178 C1176 1.327 . S
C1178 C1197 1.429 . S
C1178 H1202 0.950 . S
C1179 C1196 1.574 . S
C1179 C1198 1.368 . S
C1179 H1203 0.949 . S
H1180 C1184 0.949 . S
C1181 C1182 1.349 . S
C1181 C1183 1.327 1_554 S
C1181 H1204 0.950 . S
C1182 C1181 1.349 . S
C1182 C1194 1.349 . S
C1183 C1181 1.327 1_556 S
C1183 C1199 1.429 . S
C1183 H1205 0.950 . S
C1184 H1180 0.949 . S
C1184 C1192 1.574 . S
C1184 C1200 1.368 . S
H1185 C1193 0.950 . S
H1186 C1191 0.950 . S
H1187 C1192 0.949 . S
H1188 C1194 0.950 . S
H1189 C1195 0.950 . S
H1190 C1196 0.949 . S
C1191 H1186 0.950 . S
C1191 C1193 1.327 . S
C1191 C1197 1.429 . S
C1192 C1184 1.574 . S
C1192 H1187 0.949 . S
C1192 C1198 1.368 . S
C1193 C1177 1.349 . S
C1193 H1185 0.950 . S
C1193 C1191 1.327 . S
C1194 C1182 1.349 . S
C1194 H1188 0.950 . S
C1194 C1195 1.327 1_554 S
C1195 H1189 0.950 . S
C1195 C1194 1.327 1_556 S
C1195 C1199 1.429 . S
C1196 C1179 1.574 . S
C1196 H1190 0.949 . S
C1196 C1200 1.368 . S
C1197 C1178 1.429 . S
C1197 C1191 1.429 . S
C1197 C1198 1.523 . S
C1198 C1179 1.368 . S
C1198 C1192 1.368 . S
C1198 C1197 1.523 . S
C1199 C1183 1.429 . S
C1199 C1195 1.429 . S
C1199 C1200 1.523 . S
C1200 C1184 1.368 . S
C1200 C1196 1.368 . S
C1200 C1199 1.523 . S
H1201 C1176 0.950 . S
H1202 C1178 0.950 . S
H1203 C1179 0.949 . S
H1204 C1181 0.950 . S
H1205 C1183 0.950 . S
C1206 C1207 1.349 . S
C1206 C1208 1.327 . S
C1206 H1231 0.950 . S
C1207 C1206 1.349 . S
C1207 C1223 1.349 . S
C1208 C1206 1.327 . S
C1208 C1227 1.429 . S
C1208 H1232 0.950 . S
C1209 C1226 1.574 . S
C1209 C1228 1.368 . S
C1209 H1233 0.949 . S
H1210 C1214 0.949 . S
C1211 C1212 1.349 . S
C1211 C1213 1.327 . S
C1211 H1234 0.950 . S
C1212 C1211 1.349 . S
C1212 C1224 1.349 . S
C1213 C1211 1.327 . S
C1213 C1229 1.429 . S
C1213 H1235 0.950 . S
C1214 H1210 0.949 . S
C1214 C1222 1.574 . S
C1214 C1230 1.368 . S
H1215 C1223 0.950 . S
H1216 C1221 0.950 . S
H1217 C1222 0.949 . S
H1218 C1224 0.950 . S
H1219 C1225 0.950 . S
H1220 C1226 0.949 . S
C1221 H1216 0.950 . S
C1221 C1223 1.327 . S
C1221 C1227 1.429 . S
C1222 C1214 1.574 . S
C1222 H1217 0.949 . S
C1222 C1228 1.368 . S
C1223 C1207 1.349 . S
C1223 H1215 0.950 . S
C1223 C1221 1.327 . S
C1224 C1212 1.349 . S
C1224 H1218 0.950 . S
C1224 C1225 1.327 . S
C1225 H1219 0.950 . S
C1225 C1224 1.327 . S
C1225 C1229 1.429 . S
C1226 C1209 1.574 . S
C1226 H1220 0.949 . S
C1226 C1230 1.368 . S
C1227 C1208 1.429 . S
C1227 C1221 1.429 . S
C1227 C1228 1.523 . S
C1228 C1209 1.368 . S
C1228 C1222 1.368 . S
C1228 C1227 1.523 . S
C1229 C1213 1.429 . S
C1229 C1225 1.429 . S
C1229 C1230 1.523 . S
C1230 C1214 1.368 . S
C1230 C1226 1.368 . S
C1230 C1229 1.523 . S
H1231 C1206 0.950 . S
H1232 C1208 0.950 . S
H1233 C1209 0.949 . S
H1234 C1211 0.950 . S
H1235 C1213 0.950 . S
C1236 C1237 1.349 . S
C1236 C1238 1.327 . S
C1236 H1261 0.950 . S
C1237 C1236 1.349 . S
C1237 C1253 1.349 1_554 S
C1238 C1236 1.327 . S
C1238 C1257 1.429 1_554 S
C1238 H1262 0.950 . S
C1239 C1256 1.574 . S
C1239 C1258 1.368 . S
C1239 H1263 0.949 . S
H1240 C1244 0.949 . S
C1241 C1242 1.349 . S
C1241 C1243 1.327 . S
C1241 H1264 0.950 . S
C1242 C1241 1.349 . S
C1242 C1254 1.349 . S
C1243 C1241 1.327 . S
C1243 C1259 1.429 . S
C1243 H1265 0.950 . S
C1244 H1240 0.949 . S
C1244 C1252 1.574 . S
C1244 C1260 1.368 . S
H1245 C1253 0.950 . S
H1246 C1251 0.950 . S
H1247 C1252 0.949 . S
H1248 C1254 0.950 . S
H1249 C1255 0.950 . S
H1250 C1256 0.949 . S
C1251 H1246 0.950 . S
C1251 C1253 1.327 . S
C1251 C1257 1.429 . S
C1252 C1244 1.574 . S
C1252 H1247 0.949 . S
C1252 C1258 1.368 . S
C1253 C1237 1.349 1_556 S
C1253 H1245 0.950 . S
C1253 C1251 1.327 . S
C1254 C1242 1.349 . S
C1254 H1248 0.950 . S
C1254 C1255 1.327 . S
C1255 H1249 0.950 . S
C1255 C1254 1.327 . S
C1255 C1259 1.429 . S
C1256 C1239 1.574 . S
C1256 H1250 0.949 . S
C1256 C1260 1.368 . S
C1257 C1238 1.429 1_556 S
C1257 C1251 1.429 . S
C1257 C1258 1.523 . S
C1258 C1239 1.368 . S
C1258 C1252 1.368 . S
C1258 C1257 1.523 . S
C1259 C1243 1.429 . S
C1259 C1255 1.429 . S
C1259 C1260 1.523 . S
C1260 C1244 1.368 . S
C1260 C1256 1.368 . S
C1260 C1259 1.523 . S
H1261 C1236 0.950 . S
H1262 C1238 0.950 . S
H1263 C1239 0.949 . S
H1264 C1241 0.950 . S
H1265 C1243 0.950 . S
C1266 C1267 1.349 . S
C1266 C1268 1.327 . S
C1266 H1291 0.950 . S
C1267 C1266 1.349 . S
C1267 C1283 1.349 . S
C1268 C1266 1.327 . S
C1268 C1287 1.429 . S
C1268 H1292 0.950 . S
C1269 C1286 1.574 . S
C1269 C1288 1.368 . S
C1269 H1293 0.949 . S
H1270 C1274 0.949 . S
C1271 C1272 1.349 . S
C1271 C1273 1.327 . S
C1271 H1294 0.950 . S
C1272 C1271 1.349 . S
C1272 C1284 1.349 . S
C1273 C1271 1.327 . S
C1273 C1289 1.429 . S
C1273 H1295 0.950 . S
C1274 H1270 0.949 . S
C1274 C1282 1.574 . S
C1274 C1290 1.368 . S
H1275 C1283 0.950 . S
H1276 C1281 0.950 . S
H1277 C1282 0.949 . S
H1278 C1284 0.950 . S
H1279 C1285 0.950 . S
H1280 C1286 0.949 . S
C1281 H1276 0.950 . S
C1281 C1283 1.327 . S
C1281 C1287 1.429 . S
C1282 C1274 1.574 . S
C1282 H1277 0.949 . S
C1282 C1288 1.368 . S
C1283 C1267 1.349 . S
C1283 H1275 0.950 . S
C1283 C1281 1.327 . S
C1284 C1272 1.349 . S
C1284 H1278 0.950 . S
C1284 C1285 1.327 . S
C1285 H1279 0.950 . S
C1285 C1284 1.327 . S
C1285 C1289 1.429 . S
C1286 C1269 1.574 . S
C1286 H1280 0.949 . S
C1286 C1290 1.368 . S
C1287 C1268 1.429 . S
C1287 C1281 1.429 . S
C1287 C1288 1.523 . S
C1288 C1269 1.368 . S
C1288 C1282 1.368 . S
C1288 C1287 1.523 . S
C1289 C1273 1.429 . S
C1289 C1285 1.429 . S
C1289 C1290 1.523 . S
C1290 C1274 1.368 . S
C1290 C1286 1.368 . S
C1290 C1289 1.523 . S
H1291 C1266 0.950 . S
H1292 C1268 0.950 . S
H1293 C1269 0.949 . S
H1294 C1271 0.950 . S
H1295 C1273 0.950 . S
C1296 C1297 1.349 . S
C1296 C1298 1.327 . S
C1296 H1321 0.950 . S
C1297 C1296 1.349 . S
C1297 C1313 1.349 . S
C1298 C1296 1.327 . S
C1298 C1317 1.429 . S
C1298 H1322 0.950 . S
C1299 C1316 1.574 . S
C1299 C1318 1.368 . S
C1299 H1323 0.949 . S
H1300 C1304 0.949 . S
C1301 C1302 1.349 . S
C1301 C1303 1.327 . S
C1301 H1324 0.950 . S
C1302 C1301 1.349 . S
C1302 C1314 1.349 . S
C1303 C1301 1.327 . S
C1303 C1319 1.429 . S
C1303 H1325 0.950 . S
C1304 H1300 0.949 . S
C1304 C1312 1.574 . S
C1304 C1320 1.368 . S
H1305 C1313 0.950 . S
H1306 C1311 0.950 . S
H1307 C1312 0.949 . S
H1308 C1314 0.950 . S
H1309 C1315 0.950 . S
H1310 C1316 0.949 . S
C1311 H1306 0.950 . S
C1311 C1313 1.327 . S
C1311 C1317 1.429 . S
C1312 C1304 1.574 . S
C1312 H1307 0.949 . S
C1312 C1318 1.368 . S
C1313 C1297 1.349 . S
C1313 H1305 0.950 . S
C1313 C1311 1.327 . S
C1314 C1302 1.349 . S
C1314 H1308 0.950 . S
C1314 C1315 1.327 . S
C1315 H1309 0.950 . S
C1315 C1314 1.327 . S
C1315 C1319 1.429 . S
C1316 C1299 1.574 . S
C1316 H1310 0.949 . S
C1316 C1320 1.368 . S
C1317 C1298 1.429 . S
C1317 C1311 1.429 . S
C1317 C1318 1.523 . S
C1318 C1299 1.368 . S
C1318 C1312 1.368 . S
C1318 C1317 1.523 . S
C1319 C1303 1.429 . S
C1319 C1315 1.429 . S
C1319 C1320 1.523 . S
C1320 C1304 1.368 . S
C1320 C1316 1.368 . S
C1320 C1319 1.523 . S
H1321 C1296 0.950 . S
H1322 C1298 0.950 . S
H1323 C1299 0.949 . S
H1324 C1301 0.950 . S
H1325 C1303 0.950 . S
C1326 C1327 1.349 . S
C1326 C1328 1.327 . S
C1326 H1351 0.950 . S
C1327 C1326 1.349 . S
C1327 C1343 1.349 . S
C1328 C1326 1.327 . S
C1328 C1347 1.429 . S
C1328 H1352 0.950 . S
C1329 C1346 1.574 . S
C1329 C1348 1.368 . S
C1329 H1353 0.949 . S
H1330 C1334 0.949 . S
C1331 C1332 1.349 . S
C1331 C1333 1.327 . S
C1331 H1354 0.950 . S
C1332 C1331 1.349 . S
C1332 C1344 1.349 . S
C1333 C1331 1.327 . S
C1333 C1349 1.429 . S
C1333 H1355 0.950 . S
C1334 H1330 0.949 . S
C1334 C1342 1.574 . S
C1334 C1350 1.368 . S
H1335 C1343 0.950 . S
H1336 C1341 0.950 . S
H1337 C1342 0.949 . S
H1338 C1344 0.950 . S
H1339 C1345 0.950 . S
H1340 C1346 0.949 . S
C1341 H1336 0.950 . S
C1341 C1343 1.327 . S
C1341 C1347 1.429 . S
C1342 C1334 1.574 . S
C1342 H1337 0.949 . S
C1342 C1348 1.368 . S
C1343 C1327 1.349 . S
C1343 H1335 0.950 . S
C1343 C1341 1.327 . S
C1344 C1332 1.349 . S
C1344 H1338 0.950 . S
C1344 C1345 1.327 . S
C1345 H1339 0.950 . S
C1345 C1344 1.327 . S
C1345 C1349 1.429 . S
C1346 C1329 1.574 . S
C1346 H1340 0.949 . S
C1346 C1350 1.368 . S
C1347 C1328 1.429 . S
C1347 C1341 1.429 . S
C1347 C1348 1.523 . S
C1348 C1329 1.368 . S
C1348 C1342 1.368 . S
C1348 C1347 1.523 . S
C1349 C1333 1.429 . S
C1349 C1345 1.429 . S
C1349 C1350 1.523 . S
C1350 C1334 1.368 . S
C1350 C1346 1.368 . S
C1350 C1349 1.523 . S
H1351 C1326 0.950 . S
H1352 C1328 0.950 . S
H1353 C1329 0.949 . S
H1354 C1331 0.950 . S
H1355 C1333 0.950 . S
C1356 C1357 1.349 . S
C1356 C1358 1.327 . S
C1356 H1381 0.950 . S
C1357 C1356 1.349 . S
C1357 C1373 1.349 . S
C1358 C1356 1.327 . S
C1358 C1377 1.429 . S
C1358 H1382 0.950 . S
C1359 C1376 1.574 . S
C1359 C1378 1.368 . S
C1359 H1383 0.949 . S
H1360 C1364 0.949 . S
C1361 C1362 1.349 . S
C1361 C1363 1.327 . S
C1361 H1384 0.950 . S
C1362 C1361 1.349 . S
C1362 C1374 1.349 . S
C1363 C1361 1.327 . S
C1363 C1379 1.429 . S
C1363 H1385 0.950 . S
C1364 H1360 0.949 . S
C1364 C1372 1.574 . S
C1364 C1380 1.368 . S
H1365 C1373 0.950 . S
H1366 C1371 0.950 . S
H1367 C1372 0.949 . S
H1368 C1374 0.950 . S
H1369 C1375 0.950 . S
H1370 C1376 0.949 . S
C1371 H1366 0.950 . S
C1371 C1373 1.327 . S
C1371 C1377 1.429 . S
C1372 C1364 1.574 . S
C1372 H1367 0.949 . S
C1372 C1378 1.368 . S
C1373 C1357 1.349 . S
C1373 H1365 0.950 . S
C1373 C1371 1.327 . S
C1374 C1362 1.349 . S
C1374 H1368 0.950 . S
C1374 C1375 1.327 . S
C1375 H1369 0.950 . S
C1375 C1374 1.327 . S
C1375 C1379 1.429 . S
C1376 C1359 1.574 . S
C1376 H1370 0.949 . S
C1376 C1380 1.368 . S
C1377 C1358 1.429 . S
C1377 C1371 1.429 . S
C1377 C1378 1.523 . S
C1378 C1359 1.368 . S
C1378 C1372 1.368 . S
C1378 C1377 1.523 . S
C1379 C1363 1.429 . S
C1379 C1375 1.429 . S
C1379 C1380 1.523 . S
C1380 C1364 1.368 . S
C1380 C1376 1.368 . S
C1380 C1379 1.523 . S
H1381 C1356 0.950 . S
H1382 C1358 0.950 . S
H1383 C1359 0.949 . S
H1384 C1361 0.950 . S
H1385 C1363 0.950 . S
C1386 C1387 1.349 . S
C1386 C1388 1.327 . S
C1386 H1411 0.950 . S
C1387 C1386 1.349 . S
C1387 C1403 1.349 . S
C1388 C1386 1.327 . S
C1388 C1407 1.429 . S
C1388 H1412 0.950 . S
C1389 C1406 1.574 . S
C1389 C1408 1.368 . S
C1389 H1413 0.949 . S
H1390 C1394 0.949 . S
C1391 C1392 1.349 . S
C1391 C1393 1.327 . S
C1391 H1414 0.950 . S
C1392 C1391 1.349 . S
C1392 C1404 1.349 . S
C1393 C1391 1.327 . S
C1393 C1409 1.429 . S
C1393 H1415 0.950 . S
C1394 H1390 0.949 . S
C1394 C1402 1.574 . S
C1394 C1410 1.368 . S
H1395 C1403 0.950 . S
H1396 C1401 0.950 . S
H1397 C1402 0.949 . S
H1398 C1404 0.950 . S
H1399 C1405 0.950 . S
H1400 C1406 0.949 . S
C1401 H1396 0.950 . S
C1401 C1403 1.327 . S
C1401 C1407 1.429 . S
C1402 C1394 1.574 . S
C1402 H1397 0.949 . S
C1402 C1408 1.368 . S
C1403 C1387 1.349 . S
C1403 H1395 0.950 . S
C1403 C1401 1.327 . S
C1404 C1392 1.349 . S
C1404 H1398 0.950 . S
C1404 C1405 1.327 . S
C1405 H1399 0.950 . S
C1405 C1404 1.327 . S
C1405 C1409 1.429 . S
C1406 C1389 1.574 . S
C1406 H1400 0.949 . S
C1406 C1410 1.368 . S
C1407 C1388 1.429 . S
C1407 C1401 1.429 . S
C1407 C1408 1.523 . S
C1408 C1389 1.368 . S
C1408 C1402 1.368 . S
C1408 C1407 1.523 . S
C1409 C1393 1.429 . S
C1409 C1405 1.429 . S
C1409 C1410 1.523 . S
C1410 C1394 1.368 . S
C1410 C1406 1.368 . S
C1410 C1409 1.523 . S
H1411 C1386 0.950 . S
H1412 C1388 0.950 . S
H1413 C1389 0.949 . S
H1414 C1391 0.950 . S
H1415 C1393 0.950 . S
C1416 C1417 1.349 . S
C1416 C1418 1.327 . S
C1416 H1441 0.950 . S
C1417 C1416 1.349 . S
C1417 C1433 1.349 . S
C1418 C1416 1.327 . S
C1418 C1437 1.429 . S
C1418 H1442 0.950 . S
C1419 C1436 1.574 . S
C1419 C1438 1.368 . S
C1419 H1443 0.949 . S
H1420 C1424 0.949 . S
C1421 C1422 1.349 . S
C1421 C1423 1.327 . S
C1421 H1444 0.950 . S
C1422 C1421 1.349 . S
C1422 C1434 1.349 . S
C1423 C1421 1.327 . S
C1423 C1439 1.429 . S
C1423 H1445 0.950 . S
C1424 H1420 0.949 . S
C1424 C1432 1.574 . S
C1424 C1440 1.368 . S
H1425 C1433 0.950 . S
H1426 C1431 0.950 . S
H1427 C1432 0.949 . S
H1428 C1434 0.950 . S
H1429 C1435 0.950 . S
H1430 C1436 0.949 . S
C1431 H1426 0.950 . S
C1431 C1433 1.327 . S
C1431 C1437 1.429 . S
C1432 C1424 1.574 . S
C1432 H1427 0.949 . S
C1432 C1438 1.368 . S
C1433 C1417 1.349 . S
C1433 H1425 0.950 . S
C1433 C1431 1.327 . S
C1434 C1422 1.349 . S
C1434 H1428 0.950 . S
C1434 C1435 1.327 . S
C1435 H1429 0.950 . S
C1435 C1434 1.327 . S
C1435 C1439 1.429 . S
C1436 C1419 1.574 . S
C1436 H1430 0.949 . S
C1436 C1440 1.368 . S
C1437 C1418 1.429 . S
C1437 C1431 1.429 . S
C1437 C1438 1.523 . S
C1438 C1419 1.368 . S
C1438 C1432 1.368 . S
C1438 C1437 1.523 . S
C1439 C1423 1.429 . S
C1439 C1435 1.429 . S
C1439 C1440 1.523 . S
C1440 C1424 1.368 . S
C1440 C1436 1.368 . S
C1440 C1439 1.523 . S
H1441 C1416 0.950 . S
H1442 C1418 0.950 . S
H1443 C1419 0.949 . S
H1444 C1421 0.950 . S
H1445 C1423 0.950 . S
C1446 C1447 1.349 . S
C1446 C1448 1.327 . S
C1446 H1471 0.950 . S
C1447 C1446 1.349 . S
C1447 C1463 1.349 . S
C1448 C1446 1.327 . S
C1448 C1467 1.429 . S
C1448 H1472 0.950 . S
C1449 C1466 1.574 . S
C1449 C1468 1.368 . S
C1449 H1473 0.949 . S
H1450 C1454 0.949 . S
C1451 C1452 1.349 . S
C1451 C1453 1.327 . S
C1451 H1474 0.950 . S
C1452 C1451 1.349 . S
C1452 C1464 1.349 . S
C1453 C1451 1.327 . S
C1453 C1469 1.429 . S
C1453 H1475 0.950 . S
C1454 H1450 0.949 . S
C1454 C1462 1.574 . S
C1454 C1470 1.368 . S
H1455 C1463 0.950 . S
H1456 C1461 0.950 . S
H1457 C1462 0.949 . S
H1458 C1464 0.950 . S
H1459 C1465 0.950 . S
H1460 C1466 0.949 . S
C1461 H1456 0.950 . S
C1461 C1463 1.327 . S
C1461 C1467 1.429 . S
C1462 C1454 1.574 . S
C1462 H1457 0.949 . S
C1462 C1468 1.368 . S
C1463 C1447 1.349 . S
C1463 H1455 0.950 . S
C1463 C1461 1.327 . S
C1464 C1452 1.349 . S
C1464 H1458 0.950 . S
C1464 C1465 1.327 . S
C1465 H1459 0.950 . S
C1465 C1464 1.327 . S
C1465 C1469 1.429 . S
C1466 C1449 1.574 . S
C1466 H1460 0.949 . S
C1466 C1470 1.368 . S
C1467 C1448 1.429 . S
C1467 C1461 1.429 . S
C1467 C1468 1.523 . S
C1468 C1449 1.368 . S
C1468 C1462 1.368 . S
C1468 C1467 1.523 . S
C1469 C1453 1.429 . S
C1469 C1465 1.429 . S
C1469 C1470 1.523 . S
C1470 C1454 1.368 . S
C1470 C1466 1.368 . S
C1470 C1469 1.523 . S
H1471 C1446 0.950 . S
H1472 C1448 0.950 . S
H1473 C1449 0.949 . S
H1474 C1451 0.950 . S
H1475 C1453 0.950 . S
C1476 C1477 1.349 . S
C1476 C1478 1.327 . S
C1476 H1501 0.950 . S
C1477 C1476 1.349 . S
C1477 C1493 1.349 . S
C1478 C1476 1.327 . S
C1478 C1497 1.429 . S
C1478 H1502 0.950 . S
C1479 C1496 1.574 . S
C1479 C1498 1.368 . S
C1479 H1503 0.949 . S
H1480 C1484 0.949 . S
C1481 C1482 1.349 . S
C1481 C1483 1.327 . S
C1481 H1504 0.950 . S
C1482 C1481 1.349 . S
C1482 C1494 1.349 . S
C1483 C1481 1.327 . S
C1483 C1499 1.429 . S
C1483 H1505 0.950 . S
C1484 H1480 0.949 . S
C1484 C1492 1.574 . S
C1484 C1500 1.368 . S
H1485 C1493 0.950 . S
H1486 C1491 0.950 . S
H1487 C1492 0.949 . S
H1488 C1494 0.950 . S
H1489 C1495 0.950 . S
H1490 C1496 0.949 . S
C1491 H1486 0.950 . S
C1491 C1493 1.327 . S
C1491 C1497 1.429 . S
C1492 C1484 1.574 . S
C1492 H1487 0.949 . S
C1492 C1498 1.368 . S
C1493 C1477 1.349 . S
C1493 H1485 0.950 . S
C1493 C1491 1.327 . S
C1494 C1482 1.349 . S
C1494 H1488 0.950 . S
C1494 C1495 1.327 . S
C1495 H1489 0.950 . S
C1495 C1494 1.327 . S
C1495 C1499 1.429 . S
C1496 C1479 1.574 . S
C1496 H1490 0.949 . S
C1496 C1500 1.368 . S
C1497 C1478 1.429 . S
C1497 C1491 1.429 . S
C1497 C1498 1.523 . S
C1498 C1479 1.368 . S
C1498 C1492 1.368 . S
C1498 C1497 1.523 . S
C1499 C1483 1.429 . S
C1499 C1495 1.429 . S
C1499 C1500 1.523 . S
C1500 C1484 1.368 . S
C1500 C1496 1.368 . S
C1500 C1499 1.523 . S
H1501 C1476 0.950 . S
H1502 C1478 0.950 . S
H1503 C1479 0.949 . S
H1504 C1481 0.950 . S
H1505 C1483 0.950 . S
C1506 C1507 1.349 . S
C1506 C1508 1.327 . S
C1506 H1531 0.950 . S
C1507 C1506 1.349 . S
C1507 C1523 1.349 . S
C1508 C1506 1.327 . S
C1508 C1527 1.429 . S
C1508 H1532 0.950 . S
C1509 C1526 1.574 . S
C1509 C1528 1.368 . S
C1509 H1533 0.949 . S
H1510 C1514 0.949 . S
C1511 C1512 1.349 . S
C1511 C1513 1.327 . S
C1511 H1534 0.950 . S
C1512 C1511 1.349 . S
C1512 C1524 1.349 . S
C1513 C1511 1.327 . S
C1513 C1529 1.429 . S
C1513 H1535 0.950 . S
C1514 H1510 0.949 . S
C1514 C1522 1.574 . S
C1514 C1530 1.368 . S
H1515 C1523 0.950 . S
H1516 C1521 0.950 . S
H1517 C1522 0.949 . S
H1518 C1524 0.950 . S
H1519 C1525 0.950 . S
H1520 C1526 0.949 . S
C1521 H1516 0.950 . S
C1521 C1523 1.327 . S
C1521 C1527 1.429 . S
C1522 C1514 1.574 . S
C1522 H1517 0.949 . S
C1522 C1528 1.368 . S
C1523 C1507 1.349 . S
C1523 H1515 0.950 . S
C1523 C1521 1.327 . S
C1524 C1512 1.349 . S
C1524 H1518 0.950 . S
C1524 C1525 1.327 . S
C1525 H1519 0.950 . S
C1525 C1524 1.327 . S
C1525 C1529 1.429 . S
C1526 C1509 1.574 . S
C1526 H1520 0.949 . S
C1526 C1530 1.368 . S
C1527 C1508 1.429 . S
C1527 C1521 1.429 . S
C1527 C1528 1.523 . S
C1528 C1509 1.368 . S
C1528 C1522 1.368 . S
C1528 C1527 1.523 . S
C1529 C1513 1.429 . S
C1529 C1525 1.429 . S
C1529 C1530 1.523 . S
C1530 C1514 1.368 . S
C1530 C1526 1.368 . S
C1530 C1529 1.523 . S
H1531 C1506 0.950 . S
H1532 C1508 0.950 . S
H1533 C1509 0.949 . S
H1534 C1511 0.950 . S
H1535 C1513 0.950 . S
C577 C4 0.986 . S
C582 C148 0.986 . S
C607 C184 0.986 . S
C612 C40 0.986 . S
C637 C76 0.986 . S
C642 C220 0.986 . S
C667 C112 0.986 . S
C672 C256 0.986 . S
C697 C292 0.986 . S
C702 C436 0.986 . S
C727 C472 0.986 . S
C732 C328 0.986 . S
C757 C364 0.986 . S
C762 C508 0.986 . S
C787 C400 0.986 . S
C792 C544 0.986 . S
C817 C14 1.336 . S
C822 C543 1.363 . S
C847 C435 1.363 . S
C852 C50 1.335 . S
C877 C86 1.335 . S
C882 C471 1.362 . S
C907 C507 1.363 . S
C912 C122 1.336 . S
C937 C327 1.363 . S
C942 C158 1.335 . S
C967 C363 1.363 . S
C972 C194 1.336 . S
C997 C399 1.363 . S
C1002 C230 1.336 . S
C1027 C291 1.362 . S
C1032 C266 1.335 . S
C1057 C302 1.336 . S
C1062 C255 1.363 . S
C1087 C147 1.363 . S
C1092 C338 1.335 . S
C1117 C183 1.362 . S
C1122 C374 1.335 . S
C1147 C410 1.336 . S
C1152 C219 1.363 . S
C1177 C39 1.363 . S
C1182 C446 1.335 . S
C1207 C482 1.336 . S
C1212 C75 1.363 . S
C1237 C518 1.336 . S
C1242 C111 1.363 . S
C1267 C554 1.335 . S
C1272 C3 1.362 . S
C1297 C254 0.925 . S
C1302 C2 0.925 . S
C1327 C38 0.925 . S
C1332 C146 0.925 . S
C1357 C74 0.925 . S
C1362 C182 0.925 . S
C1387 C110 0.926 . S
C1392 C218 0.926 . S
C1417 C542 0.925 . S
C1422 C290 0.925 . S
C1447 C434 0.925 . S
C1452 C326 0.925 . S
C1477 C470 0.925 . S
C1482 C362 0.925 . S
C1507 C506 0.926 . S
C1512 C398 0.926 . S
