# Generated by pormake.
# Topology uot, (4)-cn, num edge types: 1
# Building blocks:
#     Node 0, Type 0, BuildingBlock: UXUYUI_clean_sbu_0, # of connection points: 4
#     Node 1, Type 0, BuildingBlock: UXUYUI_clean_sbu_0, # of connection points: 4
#     Node 2, Type 0, BuildingBlock: UXUYUI_clean_sbu_0, # of connection points: 4
#     Node 3, Type 0, BuildingBlock: UXUYUI_clean_sbu_0, # of connection points: 4
#     Node 4, Type 0, BuildingBlock: UXUYUI_clean_sbu_0, # of connection points: 4
#     Node 5, Type 0, BuildingBlock: UXUYUI_clean_sbu_0, # of connection points: 4
#     Node 6, Type 0, BuildingBlock: UXUYUI_clean_sbu_0, # of connection points: 4
#     Node 7, Type 0, BuildingBlock: UXUYUI_clean_sbu_0, # of connection points: 4
#     Node 8, Type 0, BuildingBlock: UXUYUI_clean_sbu_0, # of connection points: 4
#     Node 9, Type 0, BuildingBlock: UXUYUI_clean_sbu_0, # of connection points: 4
#     Node 10, Type 0, BuildingBlock: UXUYUI_clean_sbu_0, # of connection points: 4
#     Node 11, Type 0, BuildingBlock: UXUYUI_clean_sbu_0, # of connection points: 4
#     Node 12, Type 0, BuildingBlock: UXUYUI_clean_sbu_0, # of connection points: 4
#     Node 13, Type 0, BuildingBlock: UXUYUI_clean_sbu_0, # of connection points: 4
#     Node 14, Type 0, BuildingBlock: UXUYUI_clean_sbu_0, # of connection points: 4
#     Node 15, Type 0, BuildingBlock: UXUYUI_clean_sbu_0, # of connection points: 4
#     Edge 16, Type (0, 0), BuildingBlock: MIFKUJ_clean_linker_0, # of connection points: 2
#     Edge 17, Type (0, 0), BuildingBlock: MIFKUJ_clean_linker_0, # of connection points: 2
#     Edge 18, Type (0, 0), BuildingBlock: MIFKUJ_clean_linker_0, # of connection points: 2
#     Edge 19, Type (0, 0), BuildingBlock: MIFKUJ_clean_linker_0, # of connection points: 2
#     Edge 20, Type (0, 0), BuildingBlock: MIFKUJ_clean_linker_0, # of connection points: 2
#     Edge 21, Type (0, 0), BuildingBlock: MIFKUJ_clean_linker_0, # of connection points: 2
#     Edge 22, Type (0, 0), BuildingBlock: MIFKUJ_clean_linker_0, # of connection points: 2
#     Edge 23, Type (0, 0), BuildingBlock: MIFKUJ_clean_linker_0, # of connection points: 2
#     Edge 24, Type (0, 0), BuildingBlock: MIFKUJ_clean_linker_0, # of connection points: 2
#     Edge 25, Type (0, 0), BuildingBlock: MIFKUJ_clean_linker_0, # of connection points: 2
#     Edge 26, Type (0, 0), BuildingBlock: MIFKUJ_clean_linker_0, # of connection points: 2
#     Edge 27, Type (0, 0), BuildingBlock: MIFKUJ_clean_linker_0, # of connection points: 2
#     Edge 28, Type (0, 0), BuildingBlock: MIFKUJ_clean_linker_0, # of connection points: 2
#     Edge 29, Type (0, 0), BuildingBlock: MIFKUJ_clean_linker_0, # of connection points: 2
#     Edge 30, Type (0, 0), BuildingBlock: MIFKUJ_clean_linker_0, # of connection points: 2
#     Edge 31, Type (0, 0), BuildingBlock: MIFKUJ_clean_linker_0, # of connection points: 2
#     Edge 32, Type (0, 0), BuildingBlock: MIFKUJ_clean_linker_0, # of connection points: 2
#     Edge 33, Type (0, 0), BuildingBlock: MIFKUJ_clean_linker_0, # of connection points: 2
#     Edge 34, Type (0, 0), BuildingBlock: MIFKUJ_clean_linker_0, # of connection points: 2
#     Edge 35, Type (0, 0), BuildingBlock: MIFKUJ_clean_linker_0, # of connection points: 2
#     Edge 36, Type (0, 0), BuildingBlock: MIFKUJ_clean_linker_0, # of connection points: 2
#     Edge 37, Type (0, 0), BuildingBlock: MIFKUJ_clean_linker_0, # of connection points: 2
#     Edge 38, Type (0, 0), BuildingBlock: MIFKUJ_clean_linker_0, # of connection points: 2
#     Edge 39, Type (0, 0), BuildingBlock: MIFKUJ_clean_linker_0, # of connection points: 2
#     Edge 40, Type (0, 0), BuildingBlock: MIFKUJ_clean_linker_0, # of connection points: 2
#     Edge 41, Type (0, 0), BuildingBlock: MIFKUJ_clean_linker_0, # of connection points: 2
#     Edge 42, Type (0, 0), BuildingBlock: MIFKUJ_clean_linker_0, # of connection points: 2
#     Edge 43, Type (0, 0), BuildingBlock: MIFKUJ_clean_linker_0, # of connection points: 2
#     Edge 44, Type (0, 0), BuildingBlock: MIFKUJ_clean_linker_0, # of connection points: 2
#     Edge 45, Type (0, 0), BuildingBlock: MIFKUJ_clean_linker_0, # of connection points: 2
#     Edge 46, Type (0, 0), BuildingBlock: MIFKUJ_clean_linker_0, # of connection points: 2
#     Edge 47, Type (0, 0), BuildingBlock: MIFKUJ_clean_linker_0, # of connection points: 2
# Relax obj value: 0.272
# Max RMSD: 0.247
# Mean RMSD: 0.247
data_MOF--net-uot--node1-UXUYUI_clean_sbu_0--edge1-MIFKUJ_clean_linker_0
_symmetry_space_group_name_H-M    P1
_symmetry_Int_Tables_number       1
_symmetry_cell_setting            triclinic
loop_
_symmetry_equiv_pos_as_xyz
'x, y, z'
_cell_length_a     76.092927
_cell_length_b     75.853562
_cell_length_c     70.83246
_cell_angle_alpha  89.984109
_cell_angle_beta   89.985272
_cell_angle_gamma 89.978491
loop_
_atom_site_label
_atom_site_type_symbol
_atom_site_fract_x
_atom_site_fract_y
_atom_site_fract_z
_atom_type_partial_charge
Li0 Li 0.22157 0.47335 0.30166 0.0
Li1 Li 0.22711 0.46312 0.33407 0.0
Li2 Li 0.24458 0.45364 0.30749 0.0
Li3 Li 0.21417 0.44341 0.31039 0.0
C4 C 0.25963 0.48248 0.31915 0.0
N5 N 0.29497 0.49052 0.32187 0.0
C6 C 0.26829 0.48107 0.33648 0.0
C7 C 0.26891 0.48821 0.30325 0.0
C8 C 0.28616 0.48515 0.33756 0.0
C9 C 0.28677 0.49214 0.3049 0.0
C10 C 0.19055 0.46158 0.33255 0.0
C11 C 0.17794 0.44421 0.35766 0.0
N12 N 0.16288 0.45379 0.35638 0.0
C13 C 0.17495 0.47123 0.33146 0.0
C14 C 0.19208 0.44792 0.34572 0.0
C15 C 0.1611 0.4671 0.34364 0.0
C16 C 0.19666 0.49107 0.27987 0.0
N17 N 0.21298 0.49266 0.28746 0.0
C18 C 0.21578 0.52186 0.27526 0.0
C19 C 0.22261 0.5076 0.28535 0.0
C20 C 0.19887 0.52067 0.26736 0.0
C21 C 0.18934 0.50495 0.26965 0.0
H22 H 0.18929 0.47903 0.28195 0.0
H23 H 0.23552 0.5085 0.29164 0.0
C24 C 0.2367 0.46023 0.37246 0.0
N25 N 0.22653 0.46927 0.36 0.0
C26 C 0.23631 0.4645 0.39162 0.0
C27 C 0.21474 0.48704 0.38477 0.0
C28 C 0.21574 0.48251 0.36571 0.0
C29 C 0.22515 0.47801 0.39797 0.0
H30 H 0.24519 0.4498 0.36746 0.0
H31 H 0.20786 0.4895 0.35543 0.0
C32 C 0.22348 0.45654 0.26927 0.0
N33 N 0.21639 0.46782 0.23294 0.0
C34 C 0.20934 0.44943 0.25925 0.0
C35 C 0.23424 0.46911 0.26063 0.0
C36 C 0.20591 0.45537 0.24094 0.0
C37 C 0.23037 0.47474 0.24231 0.0
C38 C 0.24023 0.42179 0.32691 0.0
C39 C 0.24217 0.41367 0.3093 0.0
C40 C 0.24499 0.41266 0.34326 0.0
C41 C 0.24887 0.39654 0.30837 0.0
C42 C 0.25161 0.39553 0.34174 0.0
N43 N 0.25341 0.3879 0.32447 0.0
C44 C 0.2786 0.44142 0.31512 0.0
C45 C 0.27186 0.4431 0.28249 0.0
C46 C 0.29456 0.43318 0.31118 0.0
N47 N 0.26754 0.44592 0.30085 0.0
C48 C 0.28772 0.4349 0.2779 0.0
C49 C 0.29911 0.42944 0.29238 0.0
H50 H 0.27462 0.44346 0.32961 0.0
H51 H 0.26269 0.44651 0.27144 0.0
C52 C 0.18217 0.43119 0.2974 0.0
N53 N 0.19663 0.42567 0.30697 0.0
C54 C 0.16829 0.41964 0.29398 0.0
C55 C 0.1841 0.397 0.31095 0.0
C56 C 0.19768 0.40904 0.31409 0.0
C57 C 0.1692 0.40223 0.30067 0.0
H58 H 0.18147 0.44463 0.29235 0.0
H59 H 0.20889 0.40507 0.32237 0.0
O60 O 0.24219 0.47823 0.31776 0.0
O61 O 0.20414 0.46541 0.32058 0.0
O62 O 0.22687 0.45111 0.28736 0.0
O63 O 0.23435 0.43882 0.32819 0.0
H64 H 0.26135 0.47675 0.34894 0.0
H65 H 0.26243 0.48954 0.28976 0.0
H66 H 0.29304 0.484 0.35087 0.0
H67 H 0.29413 0.49647 0.29268 0.0
H68 H 0.17894 0.43369 0.36792 0.0
H69 H 0.17355 0.48178 0.32127 0.0
H70 H 0.20402 0.44025 0.34672 0.0
H71 H 0.14894 0.47447 0.34296 0.0
H72 H 0.2236 0.5337 0.27371 0.0
H73 H 0.17617 0.50357 0.26407 0.0
H74 H 0.24445 0.45717 0.40141 0.0
H75 H 0.2061 0.49765 0.38912 0.0
H76 H 0.20116 0.43934 0.26545 0.0
H77 H 0.24532 0.47463 0.26807 0.0
H78 H 0.19495 0.45003 0.23308 0.0
H79 H 0.23848 0.48461 0.23556 0.0
H80 H 0.23861 0.42048 0.29646 0.0
H81 H 0.24364 0.41875 0.357 0.0
H82 H 0.25048 0.39012 0.29484 0.0
H83 H 0.25535 0.38832 0.35428 0.0
H84 H 0.30275 0.4289 0.32281 0.0
H85 H 0.29077 0.43234 0.26322 0.0
H86 H 0.1571 0.42422 0.28591 0.0
H87 H 0.18516 0.38381 0.31669 0.0
Li88 Li 0.44131 0.78844 0.68686 0.0
Li89 Li 0.47106 0.7784 0.69466 0.0
Li90 Li 0.459 0.77442 0.66293 0.0
Li91 Li 0.44839 0.75709 0.68974 0.0
C92 C 0.46232 0.81446 0.67601 0.0
N93 N 0.45778 0.8506 0.67671 0.0
C94 C 0.47089 0.82464 0.68963 0.0
C95 C 0.45155 0.82268 0.66265 0.0
C96 C 0.46841 0.84289 0.68976 0.0
C97 C 0.44938 0.84095 0.66328 0.0
C98 C 0.44145 0.76759 0.7244 0.0
C99 C 0.44159 0.74597 0.74936 0.0
N100 N 0.42468 0.75026 0.75359 0.0
C101 C 0.42411 0.77186 0.72904 0.0
C102 C 0.45032 0.75462 0.73469 0.0
C103 C 0.41585 0.76292 0.74384 0.0
C104 C 0.40821 0.80516 0.68296 0.0
N105 N 0.42404 0.80588 0.69183 0.0
C106 C 0.41554 0.8319 0.70842 0.0
C107 C 0.42778 0.81869 0.70461 0.0
C108 C 0.39915 0.83159 0.69937 0.0
C109 C 0.39544 0.81793 0.68662 0.0
H110 H 0.40548 0.79462 0.67312 0.0
H111 H 0.44029 0.81863 0.71184 0.0
C112 C 0.50599 0.7899 0.69869 0.0
N113 N 0.49148 0.7847 0.70839 0.0
C114 C 0.52056 0.79652 0.7083 0.0
C115 C 0.50494 0.79235 0.73771 0.0
C116 C 0.49074 0.78561 0.72753 0.0
C117 C 0.51998 0.79813 0.72804 0.0
H118 H 0.50599 0.78952 0.68343 0.0
H119 H 0.4789 0.7817 0.73485 0.0
C120 C 0.42678 0.76458 0.65337 0.0
N121 N 0.41274 0.75521 0.61884 0.0
C122 C 0.4239 0.74683 0.64906 0.0
C123 C 0.4224 0.77757 0.64019 0.0
C124 C 0.4168 0.74237 0.63151 0.0
C125 C 0.41537 0.77256 0.62278 0.0
C126 C 0.48914 0.75218 0.68005 0.0
C127 C 0.50095 0.75585 0.66546 0.0
C128 C 0.49513 0.74405 0.69654 0.0
C129 C 0.51866 0.75146 0.66771 0.0
C130 C 0.51294 0.73989 0.69826 0.0
N131 N 0.52424 0.74366 0.68393 0.0
C132 C 0.47026 0.789 0.6284 0.0
C133 C 0.46308 0.75863 0.62702 0.0
C134 C 0.47444 0.78909 0.60923 0.0
N135 N 0.46456 0.77396 0.63681 0.0
C136 C 0.4669 0.75817 0.60775 0.0
C137 C 0.47267 0.77356 0.59857 0.0
H138 H 0.47174 0.80089 0.63663 0.0
H139 H 0.45886 0.74678 0.63417 0.0
C140 C 0.42161 0.73426 0.70112 0.0
N141 N 0.43897 0.73493 0.69674 0.0
C142 C 0.41363 0.71817 0.70516 0.0
C143 C 0.44151 0.70368 0.69982 0.0
C144 C 0.44902 0.72012 0.69611 0.0
C145 C 0.42357 0.70259 0.7043 0.0
H146 H 0.41386 0.74622 0.701 0.0
H147 H 0.46274 0.72104 0.69229 0.0
O148 O 0.46437 0.79654 0.67581 0.0
O149 O 0.44968 0.77598 0.70978 0.0
O150 O 0.43393 0.76921 0.67037 0.0
O151 O 0.4718 0.75659 0.67823 0.0
H152 H 0.47923 0.81853 0.70012 0.0
H153 H 0.4448 0.81499 0.65203 0.0
H154 H 0.4749 0.85092 0.70028 0.0
H155 H 0.441 0.84747 0.65311 0.0
H156 H 0.44824 0.73582 0.75737 0.0
H157 H 0.41706 0.78185 0.72121 0.0
H158 H 0.46374 0.75116 0.73126 0.0
H159 H 0.40241 0.76602 0.74753 0.0
H160 H 0.41873 0.84209 0.71858 0.0
H161 H 0.38289 0.81728 0.67944 0.0
H162 H 0.53179 0.80113 0.70032 0.0
H163 H 0.50403 0.79339 0.75293 0.0
H164 H 0.42727 0.7366 0.65906 0.0
H165 H 0.42456 0.79135 0.6433 0.0
H166 H 0.41458 0.72868 0.62794 0.0
H167 H 0.41202 0.78247 0.6124 0.0
H168 H 0.49653 0.76216 0.65261 0.0
H169 H 0.48614 0.74113 0.70797 0.0
H170 H 0.52797 0.7543 0.65658 0.0
H171 H 0.51779 0.7337 0.71099 0.0
H172 H 0.47926 0.80117 0.60293 0.0
H173 H 0.46519 0.74592 0.60014 0.0
H174 H 0.39968 0.71784 0.70818 0.0
H175 H 0.44958 0.69193 0.69899 0.0
Li176 Li 0.75868 0.54948 0.30835 0.0
Li177 Li 0.78894 0.55571 0.31342 0.0
Li178 Li 0.78097 0.52648 0.30428 0.0
Li179 Li 0.77428 0.53805 0.33675 0.0
C180 C 0.77154 0.5448 0.2718 0.0
N181 N 0.7584 0.53741 0.23633 0.0
C182 C 0.77715 0.55454 0.25618 0.0
C183 C 0.75931 0.53126 0.26938 0.0
C184 C 0.77033 0.55062 0.23836 0.0
C185 C 0.75281 0.52773 0.25134 0.0
C186 C 0.76487 0.58033 0.32781 0.0
C187 C 0.75364 0.60755 0.34063 0.0
N188 N 0.75574 0.61536 0.32349 0.0
C189 C 0.76693 0.58864 0.31032 0.0
C190 C 0.75818 0.58984 0.34309 0.0
C191 C 0.76223 0.60635 0.30843 0.0
C192 C 0.72263 0.5564 0.31198 0.0
N193 N 0.73667 0.55867 0.30039 0.0
C194 C 0.71979 0.57691 0.27976 0.0
C195 C 0.73551 0.56858 0.28445 0.0
C196 C 0.70517 0.57529 0.29175 0.0
C197 C 0.70664 0.56461 0.3079 0.0
H198 H 0.72405 0.5487 0.32475 0.0
H199 H 0.74694 0.5706 0.27569 0.0
C200 C 0.81722 0.57126 0.29462 0.0
N201 N 0.80695 0.5728 0.31022 0.0
C202 C 0.83085 0.58318 0.29145 0.0
C203 C 0.8228 0.59831 0.32025 0.0
C204 C 0.80954 0.58587 0.32307 0.0
C205 C 0.83365 0.59696 0.3043 0.0
H206 H 0.81486 0.56067 0.28471 0.0
H207 H 0.80132 0.58662 0.3355 0.0
C208 C 0.74843 0.51076 0.321 0.0
N209 N 0.72786 0.48106 0.32578 0.0
C210 C 0.75325 0.49786 0.33411 0.0
C211 C 0.73303 0.50864 0.31048 0.0
C212 C 0.74272 0.48291 0.33627 0.0
C213 C 0.72284 0.49351 0.31305 0.0
C214 C 0.81415 0.5372 0.3286 0.0
C215 C 0.82735 0.53289 0.31569 0.0
C216 C 0.81841 0.54627 0.34514 0.0
C217 C 0.84466 0.53794 0.31946 0.0
C218 C 0.83587 0.55108 0.3484 0.0
N219 N 0.84852 0.54686 0.33559 0.0
C220 C 0.79881 0.50982 0.27492 0.0
C221 C 0.7851 0.48973 0.29587 0.0
C222 C 0.806 0.49598 0.26454 0.0
N223 N 0.78859 0.5065 0.29025 0.0
C224 C 0.79213 0.47545 0.28596 0.0
C225 C 0.80292 0.47849 0.27018 0.0
H226 H 0.80172 0.52328 0.27099 0.0
H227 H 0.77732 0.48739 0.30833 0.0
C228 C 0.76127 0.54086 0.37403 0.0
N229 N 0.7726 0.53209 0.36257 0.0
C230 C 0.76053 0.53686 0.39327 0.0
C231 C 0.78295 0.51472 0.38837 0.0
C232 C 0.78338 0.51928 0.36931 0.0
C233 C 0.7715 0.52363 0.40071 0.0
H234 H 0.75295 0.55109 0.36824 0.0
H235 H 0.7923 0.51259 0.35982 0.0
O236 O 0.77814 0.54858 0.28931 0.0
O237 O 0.76917 0.56293 0.33002 0.0
O238 O 0.75838 0.52566 0.31891 0.0
O239 O 0.79707 0.53286 0.3249 0.0
H240 H 0.78664 0.56506 0.25784 0.0
H241 H 0.75498 0.52348 0.28124 0.0
H242 H 0.77452 0.55808 0.22614 0.0
H243 H 0.74334 0.51727 0.24926 0.0
H244 H 0.74844 0.61507 0.35234 0.0
H245 H 0.77209 0.58153 0.29832 0.0
H246 H 0.75649 0.5836 0.35671 0.0
H247 H 0.76375 0.61293 0.29497 0.0
H248 H 0.71921 0.58487 0.26708 0.0
H249 H 0.69581 0.5632 0.31771 0.0
H250 H 0.83893 0.58183 0.27894 0.0
H251 H 0.82471 0.60874 0.33049 0.0
H252 H 0.76511 0.49925 0.34234 0.0
H253 H 0.72893 0.5186 0.30046 0.0
H254 H 0.74637 0.47278 0.34627 0.0
H255 H 0.71092 0.49169 0.30497 0.0
H256 H 0.82423 0.52591 0.30279 0.0
H257 H 0.8083 0.54977 0.35522 0.0
H258 H 0.85501 0.53481 0.30954 0.0
H259 H 0.83936 0.55821 0.36108 0.0
H260 H 0.81407 0.49898 0.25237 0.0
H261 H 0.78967 0.46221 0.29105 0.0
H262 H 0.75169 0.54427 0.40224 0.0
H263 H 0.79144 0.50424 0.39334 0.0
Li264 Li 0.55224 0.21005 0.68834 0.0
Li265 Li 0.52266 0.22216 0.69486 0.0
Li266 Li 0.53475 0.22442 0.66277 0.0
Li267 Li 0.54646 0.24131 0.68974 0.0
C268 C 0.52392 0.18589 0.67687 0.0
N269 N 0.51263 0.15125 0.67635 0.0
C270 C 0.51721 0.1781 0.69324 0.0
C271 C 0.52478 0.17606 0.66019 0.0
C272 C 0.5116 0.16057 0.69271 0.0
C273 C 0.51905 0.15857 0.66023 0.0
C274 C 0.5529 0.23238 0.72441 0.0
C275 C 0.5543 0.25538 0.74788 0.0
N276 N 0.57123 0.25082 0.75168 0.0
C277 C 0.57026 0.22785 0.72864 0.0
C278 C 0.5448 0.24617 0.73419 0.0
C279 C 0.57932 0.23736 0.74245 0.0
C280 C 0.58618 0.19409 0.69041 0.0
N281 N 0.5688 0.19185 0.69427 0.0
C282 C 0.57468 0.16406 0.70884 0.0
C283 C 0.56298 0.1773 0.70353 0.0
C284 C 0.59268 0.16593 0.70495 0.0
C285 C 0.59839 0.18119 0.69553 0.0
H286 H 0.5907 0.20609 0.68379 0.0
H287 H 0.5493 0.17611 0.70721 0.0
C288 C 0.48763 0.21066 0.69848 0.0
N289 N 0.50152 0.21732 0.7082 0.0
C290 C 0.4727 0.20489 0.70809 0.0
C291 C 0.48634 0.21367 0.73744 0.0
C292 C 0.50107 0.21913 0.72727 0.0
C293 C 0.47204 0.20604 0.72789 0.0
H294 H 0.48849 0.20915 0.68332 0.0
H295 H 0.51237 0.2243 0.73464 0.0
C296 C 0.57084 0.2217 0.6564 0.0
N297 N 0.59261 0.20848 0.62858 0.0
C298 C 0.58496 0.23173 0.64979 0.0
C299 C 0.5678 0.20495 0.64888 0.0
C300 C 0.59582 0.22481 0.63571 0.0
C301 C 0.57895 0.1985 0.63482 0.0
C302 C 0.50602 0.24861 0.68006 0.0
C303 C 0.49372 0.24554 0.66579 0.0
C304 C 0.50072 0.25685 0.69677 0.0
C305 C 0.47624 0.25055 0.66858 0.0
C306 C 0.48312 0.26163 0.69904 0.0
N307 N 0.47134 0.2584 0.68502 0.0
C308 C 0.51575 0.21454 0.63025 0.0
C309 C 0.54001 0.23341 0.62448 0.0
C310 C 0.51181 0.21402 0.61101 0.0
N311 N 0.52968 0.22409 0.63655 0.0
C312 C 0.53674 0.23301 0.60511 0.0
C313 C 0.52246 0.22326 0.5982 0.0
H314 H 0.50766 0.2074 0.64022 0.0
H315 H 0.5508 0.24116 0.6299 0.0
C316 C 0.57537 0.26239 0.69753 0.0
N317 N 0.55758 0.26284 0.6961 0.0
C318 C 0.58468 0.27763 0.70205 0.0
C319 C 0.55717 0.29357 0.70339 0.0
C320 C 0.54837 0.27797 0.69889 0.0
C321 C 0.57558 0.29351 0.705 0.0
H322 H 0.58232 0.25016 0.69506 0.0
H323 H 0.53423 0.27795 0.69752 0.0
O324 O 0.52912 0.20318 0.67696 0.0
O325 O 0.54396 0.2235 0.7106 0.0
O326 O 0.56003 0.2284 0.67006 0.0
O327 O 0.52313 0.24348 0.67774 0.0
H328 H 0.51658 0.1854 0.70634 0.0
H329 H 0.52978 0.18186 0.64732 0.0
H330 H 0.50647 0.15438 0.70531 0.0
H331 H 0.51967 0.15082 0.64743 0.0
H332 H 0.54825 0.26618 0.75543 0.0
H333 H 0.57675 0.21723 0.72125 0.0
H334 H 0.53141 0.24993 0.73106 0.0
H335 H 0.59279 0.23405 0.74579 0.0
H336 H 0.56965 0.1525 0.716 0.0
H337 H 0.61219 0.18338 0.69263 0.0
H338 H 0.46215 0.19886 0.70013 0.0
H339 H 0.48633 0.21505 0.75265 0.0
H340 H 0.58747 0.24474 0.65547 0.0
H341 H 0.55701 0.197 0.65391 0.0
H342 H 0.6068 0.23243 0.63045 0.0
H343 H 0.57674 0.18555 0.62889 0.0
H344 H 0.4976 0.2393 0.65273 0.0
H345 H 0.51003 0.25926 0.708 0.0
H346 H 0.46657 0.24817 0.65769 0.0
H347 H 0.47881 0.26787 0.71197 0.0
H348 H 0.5007 0.20633 0.60617 0.0
H349 H 0.54509 0.24048 0.59565 0.0
H350 H 0.59888 0.27705 0.70277 0.0
H351 H 0.54967 0.30553 0.70562 0.0
Li352 Li 0.20864 0.55294 0.68483 0.0
Li353 Li 0.23964 0.5451 0.68753 0.0
Li354 Li 0.22149 0.53397 0.66026 0.0
Li355 Li 0.2181 0.52171 0.69226 0.0
C356 C 0.22411 0.57417 0.65809 0.0
N357 N 0.21603 0.6056 0.64034 0.0
C358 C 0.23338 0.58952 0.66256 0.0
C359 C 0.21094 0.57476 0.64437 0.0
C360 C 0.22904 0.6053 0.6535 0.0
C361 C 0.20699 0.59078 0.63561 0.0
C362 C 0.22895 0.54754 0.72416 0.0
C363 C 0.24667 0.53905 0.75088 0.0
N364 N 0.24489 0.55556 0.75812 0.0
C365 C 0.2271 0.56434 0.73198 0.0
C366 C 0.23864 0.53472 0.73376 0.0
C367 C 0.23534 0.56817 0.74912 0.0
C368 C 0.17451 0.56621 0.6909 0.0
N369 N 0.19178 0.57071 0.69019 0.0
C370 C 0.18497 0.60046 0.69856 0.0
C371 C 0.19719 0.58741 0.69401 0.0
C372 C 0.16701 0.59622 0.69936 0.0
C373 C 0.16184 0.57883 0.6954 0.0
H374 H 0.1706 0.55273 0.68832 0.0
H375 H 0.21104 0.59054 0.69383 0.0
C376 C 0.27689 0.54526 0.69099 0.0
N377 N 0.26184 0.55429 0.69467 0.0
C378 C 0.29321 0.5528 0.69502 0.0
C379 C 0.27818 0.5787 0.70664 0.0
C380 C 0.2622 0.57065 0.70243 0.0
C381 C 0.294 0.56985 0.70275 0.0
H382 H 0.27626 0.5324 0.68447 0.0
H383 H 0.25005 0.57771 0.70477 0.0
C384 C 0.18598 0.52406 0.66397 0.0
N385 N 0.1588 0.51142 0.64191 0.0
C386 C 0.18144 0.50622 0.66459 0.0
C387 C 0.17647 0.53553 0.65237 0.0
C388 C 0.16772 0.50006 0.65327 0.0
C389 C 0.16284 0.52887 0.64126 0.0
C390 C 0.24768 0.50545 0.67698 0.0
C391 C 0.24696 0.49356 0.66193 0.0
C392 C 0.25711 0.50104 0.69324 0.0
C393 C 0.25546 0.47729 0.66353 0.0
C394 C 0.26543 0.48464 0.6943 0.0
N395 N 0.26442 0.4732 0.67956 0.0
C396 C 0.23063 0.53928 0.62211 0.0
C397 C 0.21305 0.514 0.62751 0.0
C398 C 0.23093 0.53585 0.60274 0.0
N399 N 0.2216 0.52852 0.634 0.0
C400 C 0.21287 0.51015 0.60825 0.0
C401 C 0.22185 0.52118 0.5956 0.0
H402 H 0.23761 0.55055 0.62767 0.0
H403 H 0.20659 0.50523 0.63728 0.0
C404 C 0.20384 0.5038 0.72327 0.0
N405 N 0.21178 0.50128 0.7063 0.0
C406 C 0.19725 0.48946 0.7334 0.0
C407 C 0.20753 0.47016 0.7086 0.0
C408 C 0.2138 0.48487 0.69891 0.0
C409 C 0.19879 0.47236 0.72593 0.0
H410 H 0.2021 0.51702 0.72865 0.0
H411 H 0.21962 0.4832 0.68514 0.0
O412 O 0.22805 0.55863 0.66697 0.0
O413 O 0.22105 0.54358 0.70734 0.0
O414 O 0.19941 0.5303 0.67496 0.0
O415 O 0.2394 0.52141 0.67565 0.0
H416 H 0.24376 0.5893 0.67297 0.0
H417 H 0.20395 0.56295 0.6404 0.0
H418 H 0.23603 0.6173 0.65692 0.0
H419 H 0.19678 0.59142 0.62501 0.0
H420 H 0.25427 0.52927 0.75843 0.0
H421 H 0.21949 0.57437 0.72483 0.0
H422 H 0.23984 0.52153 0.72814 0.0
H423 H 0.23414 0.58117 0.75526 0.0
H424 H 0.18954 0.6137 0.70147 0.0
H425 H 0.14819 0.57487 0.69626 0.0
H426 H 0.30506 0.54548 0.69185 0.0
H427 H 0.27812 0.59201 0.71216 0.0
H428 H 0.18851 0.49717 0.67359 0.0
H429 H 0.17943 0.54945 0.65209 0.0
H430 H 0.16417 0.48625 0.65351 0.0
H431 H 0.15542 0.53759 0.63217 0.0
H432 H 0.23986 0.49681 0.64918 0.0
H433 H 0.25809 0.5102 0.70486 0.0
H434 H 0.25493 0.46792 0.65204 0.0
H435 H 0.27272 0.48103 0.70683 0.0
H436 H 0.23801 0.54468 0.59343 0.0
H437 H 0.20605 0.49849 0.60335 0.0
H438 H 0.19035 0.49184 0.74653 0.0
H439 H 0.20915 0.45723 0.70236 0.0
Li440 Li 0.53433 0.77405 0.33784 0.0
Li441 Li 0.54628 0.75842 0.30966 0.0
Li442 Li 0.55137 0.78921 0.31409 0.0
Li443 Li 0.52247 0.77935 0.30566 0.0
C444 C 0.57616 0.77432 0.3336 0.0
N445 N 0.61056 0.78515 0.3381 0.0
C446 C 0.58928 0.76782 0.32167 0.0
C447 C 0.58054 0.78623 0.3479 0.0
C448 C 0.6066 0.77348 0.32416 0.0
C449 C 0.59801 0.79157 0.34992 0.0
C450 C 0.51191 0.74483 0.31151 0.0
C451 C 0.50385 0.72906 0.28325 0.0
N452 N 0.49137 0.72018 0.29318 0.0
C453 C 0.49901 0.73556 0.32143 0.0
C454 C 0.51437 0.74158 0.29227 0.0
C455 C 0.48876 0.72314 0.31191 0.0
C456 C 0.51116 0.77474 0.36857 0.0
N457 N 0.52819 0.77206 0.36357 0.0
C458 C 0.53654 0.76831 0.3958 0.0
C459 C 0.54081 0.76866 0.37664 0.0
C460 C 0.51909 0.77127 0.40143 0.0
C461 C 0.50627 0.77432 0.38755 0.0
H462 H 0.50147 0.77748 0.35779 0.0
H463 H 0.55422 0.76645 0.3722 0.0
C464 C 0.5649 0.73603 0.28508 0.0
N465 N 0.55601 0.73682 0.30168 0.0
C466 C 0.57343 0.72051 0.27978 0.0
C467 C 0.56305 0.70684 0.30856 0.0
C468 C 0.55473 0.72263 0.3133 0.0
C469 C 0.57281 0.70574 0.29175 0.0
H470 H 0.56576 0.7476 0.27622 0.0
H471 H 0.54763 0.72376 0.32647 0.0
C472 C 0.52696 0.8124 0.33418 0.0
N473 N 0.52261 0.84443 0.3522 0.0
C474 C 0.51804 0.82616 0.32518 0.0
C475 C 0.53347 0.81488 0.35245 0.0
C476 C 0.51604 0.84227 0.3345 0.0
C477 C 0.53119 0.83118 0.36129 0.0
C478 C 0.54338 0.78851 0.27539 0.0
C479 C 0.53836 0.80603 0.27826 0.0
C480 C 0.54732 0.7827 0.25715 0.0
C481 C 0.53739 0.81747 0.26284 0.0
C482 C 0.54619 0.79454 0.24208 0.0
N483 N 0.54129 0.81153 0.24522 0.0
C484 C 0.58015 0.80428 0.29523 0.0
C485 C 0.57045 0.82155 0.32104 0.0
C486 C 0.5932 0.81658 0.29099 0.0
N487 N 0.56892 0.80706 0.30988 0.0
C488 C 0.58335 0.83416 0.31738 0.0
C489 C 0.59485 0.83185 0.30206 0.0
H490 H 0.57895 0.79248 0.28678 0.0
H491 H 0.56185 0.82333 0.33293 0.0
C492 C 0.4889 0.79354 0.30277 0.0
N493 N 0.50146 0.78501 0.29267 0.0
C494 C 0.47367 0.79955 0.29392 0.0
C495 C 0.48432 0.78733 0.26453 0.0
C496 C 0.49935 0.78153 0.27398 0.0
C497 C 0.47134 0.7967 0.27448 0.0
H498 H 0.49094 0.79606 0.31764 0.0
H499 H 0.50947 0.77455 0.26631 0.0
O500 O 0.55906 0.76935 0.331 0.0
O501 O 0.52198 0.75707 0.32067 0.0
O502 O 0.52864 0.7964 0.32542 0.0
O503 O 0.54428 0.77697 0.29022 0.0
H504 H 0.5861 0.75867 0.31048 0.0
H505 H 0.57053 0.79151 0.35715 0.0
H506 H 0.61688 0.76864 0.31496 0.0
H507 H 0.60157 0.80089 0.36082 0.0
H508 H 0.50561 0.72642 0.26836 0.0
H509 H 0.49695 0.73796 0.33634 0.0
H510 H 0.52427 0.74864 0.28434 0.0
H511 H 0.47872 0.71586 0.31941 0.0
H512 H 0.54675 0.76573 0.40609 0.0
H513 H 0.49271 0.7768 0.39138 0.0
H514 H 0.58068 0.72018 0.26663 0.0
H515 H 0.56244 0.69587 0.31833 0.0
H516 H 0.51265 0.82443 0.31117 0.0
H517 H 0.54047 0.80447 0.35963 0.0
H518 H 0.50922 0.85304 0.32767 0.0
H519 H 0.53628 0.83331 0.37536 0.0
H520 H 0.53533 0.81078 0.29223 0.0
H521 H 0.55113 0.76915 0.25464 0.0
H522 H 0.53354 0.83106 0.26489 0.0
H523 H 0.54919 0.7902 0.22789 0.0
H524 H 0.60166 0.81428 0.27896 0.0
H525 H 0.58439 0.84553 0.32655 0.0
H526 H 0.46412 0.80688 0.3021 0.0
H527 H 0.48293 0.78466 0.24958 0.0
Li528 Li 0.78043 0.47529 0.69458 0.0
Li529 Li 0.77649 0.46418 0.66243 0.0
Li530 Li 0.76031 0.45162 0.68903 0.0
Li531 Li 0.79178 0.44635 0.68524 0.0
C532 C 0.75297 0.49249 0.6812 0.0
N533 N 0.74239 0.52697 0.68653 0.0
C534 C 0.75505 0.50485 0.66674 0.0
C535 C 0.74538 0.49762 0.69832 0.0
C536 C 0.74964 0.52223 0.66972 0.0
C537 C 0.74017 0.51514 0.70075 0.0
C538 C 0.81644 0.46882 0.67547 0.0
C539 C 0.84344 0.45747 0.66239 0.0
N540 N 0.85257 0.46532 0.6766 0.0
C541 C 0.82609 0.47685 0.68989 0.0
C542 C 0.82517 0.45913 0.66154 0.0
C543 C 0.84435 0.4749 0.69022 0.0
C544 C 0.78757 0.49402 0.72816 0.0
N545 N 0.78578 0.49557 0.70914 0.0
C546 C 0.79449 0.52579 0.71029 0.0
C547 C 0.78915 0.511 0.70009 0.0
C548 C 0.7968 0.52448 0.72989 0.0
C549 C 0.79316 0.5084 0.73888 0.0
H550 H 0.78515 0.48148 0.73492 0.0
H551 H 0.78814 0.51169 0.68488 0.0
C552 C 0.75972 0.46885 0.62718 0.0
N553 N 0.77517 0.47071 0.63659 0.0
C554 C 0.75862 0.4731 0.60805 0.0
C555 C 0.78912 0.48195 0.6089 0.0
C556 C 0.78969 0.47729 0.62795 0.0
C557 C 0.77348 0.47972 0.59859 0.0
H558 H 0.74828 0.4639 0.63453 0.0
H559 H 0.80169 0.479 0.63587 0.0
C560 C 0.7715 0.44386 0.72294 0.0
N561 N 0.75506 0.4248 0.75108 0.0
C562 C 0.77591 0.42619 0.72591 0.0
C563 C 0.75883 0.45188 0.73435 0.0
C564 C 0.76743 0.41677 0.74021 0.0
C565 C 0.75063 0.442 0.74848 0.0
C566 C 0.76829 0.43191 0.65147 0.0
C567 C 0.75074 0.42814 0.64727 0.0
C568 C 0.78126 0.42904 0.63782 0.0
C569 C 0.74644 0.42167 0.62939 0.0
C570 C 0.77641 0.42259 0.6201 0.0
N571 N 0.75925 0.41907 0.61628 0.0
C572 C 0.72408 0.45037 0.69894 0.0
C573 C 0.73904 0.42295 0.69826 0.0
C574 C 0.70833 0.44197 0.70359 0.0
N575 N 0.73896 0.44076 0.69635 0.0
C576 C 0.72365 0.41403 0.70296 0.0
C577 C 0.70799 0.42353 0.70555 0.0
H578 H 0.72439 0.46451 0.69715 0.0
H579 H 0.75105 0.41566 0.69581 0.0
C580 C 0.82163 0.43325 0.70366 0.0
N581 N 0.81007 0.42981 0.68952 0.0
C582 C 0.83514 0.42141 0.70767 0.0
C583 C 0.82427 0.40241 0.68286 0.0
C584 C 0.81106 0.41474 0.6792 0.0
C585 C 0.83655 0.40573 0.69723 0.0
H586 H 0.82024 0.44515 0.71193 0.0
H587 H 0.8015 0.4122 0.66827 0.0
O588 O 0.75835 0.47546 0.67864 0.0
O589 O 0.79853 0.47028 0.67509 0.0
O590 O 0.77936 0.4532 0.70874 0.0
O591 O 0.77275 0.43849 0.66879 0.0
H592 H 0.76091 0.50111 0.65341 0.0
H593 H 0.74375 0.48824 0.70968 0.0
H594 H 0.75124 0.53196 0.65869 0.0
H595 H 0.7344 0.51932 0.71397 0.0
H596 H 0.85035 0.44991 0.65179 0.0
H597 H 0.81957 0.48435 0.70082 0.0
H598 H 0.8179 0.4528 0.65032 0.0
H599 H 0.85198 0.48096 0.70134 0.0
H600 H 0.7975 0.53789 0.70283 0.0
H601 H 0.79485 0.50691 0.75398 0.0
H602 H 0.74632 0.47097 0.60072 0.0
H603 H 0.8008 0.4874 0.6024 0.0
H604 H 0.78562 0.41974 0.71714 0.0
H605 H 0.75523 0.46553 0.73218 0.0
H606 H 0.77064 0.40306 0.74261 0.0
H607 H 0.74071 0.448 0.75734 0.0
H608 H 0.74052 0.43038 0.65761 0.0
H609 H 0.79489 0.43196 0.6408 0.0
H610 H 0.7329 0.41878 0.62592 0.0
H611 H 0.78629 0.42043 0.60936 0.0
H612 H 0.69656 0.44978 0.70554 0.0
H613 H 0.72391 0.39978 0.70397 0.0
H614 H 0.84415 0.42429 0.71909 0.0
H615 H 0.82494 0.39048 0.6745 0.0
Li616 Li 0.45156 0.23754 0.31077 0.0
Li617 Li 0.4632 0.22025 0.33688 0.0
Li618 Li 0.4737 0.21586 0.3046 0.0
Li619 Li 0.4444 0.20629 0.3142 0.0
C620 C 0.47982 0.25452 0.32095 0.0
N621 N 0.48579 0.29044 0.32175 0.0
C622 C 0.47867 0.26376 0.33797 0.0
C623 C 0.4841 0.26352 0.30435 0.0
C624 C 0.48173 0.28192 0.33809 0.0
C625 C 0.48703 0.28169 0.30505 0.0
C626 C 0.42113 0.2227 0.33478 0.0
C627 C 0.39819 0.20498 0.3487 0.0
N628 N 0.38591 0.21513 0.33995 0.0
C629 C 0.40827 0.23295 0.32592 0.0
C630 C 0.41605 0.2086 0.34629 0.0
C631 C 0.39054 0.22892 0.32873 0.0
C632 C 0.43835 0.26367 0.28583 0.0
N633 N 0.44213 0.25986 0.30413 0.0
C634 C 0.4297 0.28715 0.31434 0.0
C635 C 0.4381 0.27123 0.31831 0.0
C636 C 0.42524 0.2913 0.29561 0.0
C637 C 0.4299 0.27944 0.28122 0.0
H638 H 0.44146 0.25427 0.27488 0.0
H639 H 0.4409 0.26764 0.33277 0.0
C640 C 0.48731 0.22348 0.36703 0.0
N641 N 0.4701 0.22095 0.36267 0.0
C642 C 0.49269 0.22392 0.38588 0.0
C643 C 0.46256 0.219 0.39531 0.0
C644 C 0.45775 0.21884 0.37632 0.0
C645 C 0.48023 0.22165 0.40035 0.0
H646 H 0.49682 0.22523 0.35584 0.0
H647 H 0.44417 0.21696 0.37248 0.0
C648 C 0.45537 0.21476 0.27311 0.0
N649 N 0.46535 0.2048 0.23714 0.0
C650 C 0.4504 0.19831 0.26598 0.0
C651 C 0.46531 0.22619 0.26189 0.0
C652 C 0.45559 0.19352 0.24777 0.0
C653 C 0.47026 0.22089 0.24377 0.0
C654 C 0.47661 0.18881 0.33668 0.0
C655 C 0.49496 0.18866 0.33575 0.0
C656 C 0.46811 0.18064 0.35183 0.0
C657 C 0.50452 0.18034 0.35005 0.0
C658 C 0.47814 0.1725 0.36587 0.0
N659 N 0.49598 0.17252 0.3647 0.0
C660 C 0.50744 0.21986 0.2874 0.0
C661 C 0.49275 0.19278 0.28186 0.0
C662 C 0.52196 0.21411 0.27699 0.0
N663 N 0.49326 0.20916 0.28961 0.0
C664 C 0.50682 0.18661 0.27115 0.0
C665 C 0.52173 0.19727 0.26874 0.0
H666 H 0.5076 0.23271 0.29399 0.0
H667 H 0.48146 0.18442 0.28425 0.0
C668 C 0.41232 0.19377 0.29991 0.0
N669 N 0.42676 0.18906 0.30999 0.0
C670 C 0.39912 0.18147 0.29629 0.0
C671 C 0.41603 0.15965 0.31333 0.0
C672 C 0.42888 0.1724 0.31666 0.0
C673 C 0.40093 0.16411 0.30294 0.0
H674 H 0.4111 0.20709 0.29463 0.0
H675 H 0.44064 0.16895 0.32435 0.0
O676 O 0.47655 0.2368 0.32048 0.0
O677 O 0.43857 0.22626 0.33198 0.0
O678 O 0.45068 0.21958 0.29102 0.0
O679 O 0.46704 0.19729 0.32309 0.0
H680 H 0.47524 0.25703 0.35093 0.0
H681 H 0.48496 0.25659 0.29105 0.0
H682 H 0.48079 0.28926 0.35114 0.0
H683 H 0.49024 0.28884 0.29229 0.0
H684 H 0.39409 0.19402 0.35743 0.0
H685 H 0.41189 0.24379 0.31683 0.0
H686 H 0.42579 0.20027 0.35293 0.0
H687 H 0.38047 0.23672 0.32192 0.0
H688 H 0.42607 0.29574 0.32591 0.0
H689 H 0.42677 0.28218 0.26659 0.0
H690 H 0.50641 0.22627 0.38904 0.0
H691 H 0.45251 0.2169 0.40591 0.0
H692 H 0.4428 0.18925 0.27448 0.0
H693 H 0.46935 0.23891 0.26722 0.0
H694 H 0.45192 0.1808 0.24211 0.0
H695 H 0.47806 0.22955 0.23499 0.0
H696 H 0.50178 0.19505 0.32423 0.0
H697 H 0.45393 0.18085 0.35293 0.0
H698 H 0.51872 0.18017 0.34954 0.0
H699 H 0.47174 0.16625 0.37775 0.0
H700 H 0.53327 0.22266 0.27548 0.0
H701 H 0.5063 0.17341 0.26536 0.0
H702 H 0.38763 0.18553 0.28838 0.0
H703 H 0.41811 0.14635 0.31841 0.0
Li704 Li 0.71819 0.97448 0.80631 0.0
Li705 Li 0.72155 0.95985 0.83685 0.0
Li706 Li 0.73719 0.94934 0.80863 0.0
Li707 Li 0.70537 0.9452 0.81203 0.0
C708 C 0.74657 0.98863 0.82119 0.0
N709 N 0.7589 0.02282 0.81935 0.0
C710 C 0.7437 0.00021 0.83622 0.0
C711 C 0.75585 0.99436 0.80531 0.0
C712 C 0.75002 0.01747 0.835 0.0
C713 C 0.76193 0.01172 0.80463 0.0
C714 C 0.68188 0.96789 0.8254 0.0
C715 C 0.65468 0.9568 0.83823 0.0
N716 N 0.64558 0.96708 0.82591 0.0
C717 C 0.67226 0.9784 0.8129 0.0
C718 C 0.67304 0.95706 0.83823 0.0
C719 C 0.65391 0.9778 0.81338 0.0
C720 C 0.71269 0.99789 0.77564 0.0
N721 N 0.71359 0.99654 0.79475 0.0
C722 C 0.70297 0.02595 0.79842 0.0
C723 C 0.70913 0.01022 0.80616 0.0
C724 C 0.70111 0.0275 0.77875 0.0
C725 C 0.70651 0.01337 0.76728 0.0
H726 H 0.71596 0.98667 0.76693 0.0
H727 H 0.70959 0.00861 0.82132 0.0
C728 C 0.73773 0.96008 0.87312 0.0
N729 N 0.72283 0.96385 0.86331 0.0
C730 C 0.73854 0.96327 0.89253 0.0
C731 C 0.70891 0.97471 0.89119 0.0
C732 C 0.70861 0.97113 0.87189 0.0
C733 C 0.724 0.97076 0.90175 0.0
H734 H 0.74901 0.95471 0.86584 0.0
H735 H 0.69707 0.97434 0.86372 0.0
C736 C 0.72463 0.9471 0.77316 0.0
N737 N 0.73798 0.93296 0.74021 0.0
C738 C 0.71741 0.93168 0.76566 0.0
C739 C 0.73852 0.95543 0.76383 0.0
C740 C 0.72437 0.92472 0.74899 0.0
C741 C 0.74513 0.94804 0.74722 0.0
C742 C 0.72845 0.92617 0.84357 0.0
C743 C 0.74588 0.92129 0.84698 0.0
C744 C 0.71547 0.92209 0.85684 0.0
C745 C 0.75007 0.91254 0.86375 0.0
C746 C 0.7202 0.91336 0.87345 0.0
N747 N 0.73725 0.90882 0.87654 0.0
C748 C 0.774 0.94455 0.80454 0.0
C749 C 0.7561 0.92197 0.79174 0.0
C750 C 0.78916 0.9348 0.80057 0.0
N751 N 0.75791 0.93788 0.80029 0.0
C752 C 0.77086 0.91202 0.78708 0.0
C753 C 0.7877 0.91812 0.79199 0.0
H754 H 0.77501 0.95708 0.81174 0.0
H755 H 0.74314 0.91674 0.78905 0.0
C756 C 0.67321 0.93527 0.79506 0.0
N757 N 0.68652 0.9297 0.80639 0.0
C758 C 0.6593 0.92398 0.79079 0.0
C759 C 0.67353 0.90114 0.80909 0.0
C760 C 0.68699 0.91299 0.81332 0.0
C761 C 0.65943 0.90668 0.7978 0.0
H762 H 0.67346 0.94844 0.78926 0.0
H763 H 0.69791 0.90881 0.82199 0.0
O764 O 0.74027 0.97178 0.82199 0.0
O765 O 0.69985 0.96815 0.82504 0.0
O766 O 0.71806 0.95405 0.78951 0.0
O767 O 0.72411 0.93494 0.82736 0.0
H768 H 0.73654 0.99597 0.84862 0.0
H769 H 0.75825 0.98551 0.79362 0.0
H770 H 0.74781 0.02662 0.84648 0.0
H771 H 0.76905 0.01637 0.79238 0.0
H772 H 0.64767 0.94839 0.84801 0.0
H773 H 0.67885 0.9868 0.80281 0.0
H774 H 0.68028 0.94882 0.84798 0.0
H775 H 0.6463 0.9858 0.80374 0.0
H776 H 0.69913 0.03656 0.80778 0.0
H777 H 0.70506 0.01388 0.75209 0.0
H778 H 0.7505 0.96026 0.90016 0.0
H779 H 0.69739 0.98042 0.8978 0.0
H780 H 0.70663 0.92509 0.77268 0.0
H781 H 0.74421 0.96739 0.76944 0.0
H782 H 0.71897 0.91275 0.74306 0.0
H783 H 0.75594 0.95428 0.7399 0.0
H784 H 0.75609 0.92434 0.83688 0.0
H785 H 0.70192 0.92574 0.85439 0.0
H786 H 0.76351 0.90876 0.86662 0.0
H787 H 0.71031 0.91022 0.8839 0.0
H788 H 0.80176 0.93998 0.80497 0.0
H789 H 0.76898 0.89946 0.78012 0.0
H790 H 0.64875 0.92858 0.78178 0.0
H791 H 0.67405 0.88785 0.81466 0.0
Li792 Li 0.94608 0.29097 0.18761 0.0
Li793 Li 0.97482 0.28297 0.19752 0.0
Li794 Li 0.96492 0.27764 0.16446 0.0
Li795 Li 0.95248 0.2605 0.19167 0.0
C796 C 0.97206 0.31704 0.18407 0.0
N797 N 0.97959 0.35047 0.19727 0.0
C798 C 0.96657 0.32219 0.20209 0.0
C799 C 0.98134 0.32891 0.17276 0.0
C800 C 0.97052 0.33914 0.20851 0.0
C801 C 0.98503 0.34576 0.17969 0.0
C802 C 0.95577 0.2718 0.22876 0.0
C803 C 0.97072 0.25042 0.24818 0.0
N804 N 0.96275 0.25725 0.26373 0.0
C805 C 0.94768 0.27859 0.24492 0.0
C806 C 0.96736 0.2576 0.23038 0.0
C807 C 0.95139 0.27106 0.26248 0.0
C808 C 0.91659 0.3063 0.205 0.0
N809 N 0.9281 0.30811 0.19047 0.0
C810 C 0.91491 0.33536 0.18132 0.0
C811 C 0.92736 0.32211 0.17852 0.0
C812 C 0.90313 0.33411 0.19654 0.0
C813 C 0.90388 0.3192 0.20829 0.0
H814 H 0.91752 0.29498 0.21424 0.0
H815 H 0.93665 0.32311 0.16701 0.0
C816 C 0.01093 0.28788 0.20392 0.0
N817 N 0.9948 0.28962 0.21194 0.0
C818 C 0.02586 0.294 0.21333 0.0
C819 C 0.00728 0.30336 0.23914 0.0
C820 C 0.99273 0.29709 0.22924 0.0
C821 C 0.0241 0.30208 0.23109 0.0
H822 H 0.01212 0.28213 0.19001 0.0
H823 H 0.97976 0.29865 0.23518 0.0
C824 C 0.92419 0.27675 0.16403 0.0
N825 N 0.89157 0.28879 0.15279 0.0
C826 C 0.90912 0.27159 0.17384 0.0
C827 C 0.92269 0.28795 0.14844 0.0
C828 C 0.89274 0.27784 0.16796 0.0
C829 C 0.90607 0.29391 0.14299 0.0
C830 C 0.98706 0.24685 0.17841 0.0
C831 C 0.98434 0.23745 0.16169 0.0
C832 C 0.00019 0.24143 0.19093 0.0
C833 C 0.99463 0.22261 0.15792 0.0
C834 C 0.01021 0.22652 0.18665 0.0
N835 N 0.00724 0.2175 0.17037 0.0
C836 C 0.98532 0.28658 0.13258 0.0
C837 C 0.96153 0.26715 0.1267 0.0
C838 C 0.98965 0.28677 0.11341 0.0
N839 N 0.97143 0.27691 0.13875 0.0
C840 C 0.96544 0.26689 0.10747 0.0
C841 C 0.97958 0.27691 0.10055 0.0
H842 H 0.99286 0.29431 0.14253 0.0
H843 H 0.95055 0.25961 0.13206 0.0
C844 C 0.92897 0.23953 0.21159 0.0
N845 N 0.94241 0.23859 0.19899 0.0
C846 C 0.91908 0.22459 0.21584 0.0
C847 C 0.93739 0.20777 0.19455 0.0
C848 C 0.94694 0.22308 0.1907 0.0
C849 C 0.92296 0.20854 0.2069 0.0
H850 H 0.92543 0.25209 0.21773 0.0
H851 H 0.9574 0.22268 0.18047 0.0
O852 O 0.96841 0.3005 0.17743 0.0
O853 O 0.95226 0.27917 0.21153 0.0
O854 O 0.94038 0.27115 0.16986 0.0
O855 O 0.97736 0.26163 0.1822 0.0
H856 H 0.95933 0.31323 0.21105 0.0
H857 H 0.98566 0.32514 0.15877 0.0
H858 H 0.96636 0.34328 0.22242 0.0
H859 H 0.99222 0.35508 0.17108 0.0
H860 H 0.97966 0.23941 0.24962 0.0
H861 H 0.93868 0.2896 0.2439 0.0
H862 H 0.9736 0.25209 0.21805 0.0
H863 H 0.94526 0.2762 0.27511 0.0
H864 H 0.91464 0.34655 0.17183 0.0
H865 H 0.89519 0.31784 0.22031 0.0
H866 H 0.03854 0.29298 0.20647 0.0
H867 H 0.00533 0.30935 0.25286 0.0
H868 H 0.91007 0.26298 0.18598 0.0
H869 H 0.93426 0.2922 0.1408 0.0
H870 H 0.88096 0.27403 0.17548 0.0
H871 H 0.90471 0.30267 0.13103 0.0
H872 H 0.97421 0.2414 0.15188 0.0
H873 H 0.00267 0.24868 0.20381 0.0
H874 H 0.99257 0.21515 0.14509 0.0
H875 H 0.02038 0.22216 0.19624 0.0
H876 H 0.00053 0.29485 0.10869 0.0
H877 H 0.95749 0.25887 0.09814 0.0
H878 H 0.90813 0.22573 0.22554 0.0
H879 H 0.94065 0.19572 0.18713 0.0
Li880 Li 0.26227 0.04805 0.80859 0.0
Li881 Li 0.29363 0.05225 0.81116 0.0
Li882 Li 0.28071 0.0237 0.80277 0.0
Li883 Li 0.27848 0.03456 0.83476 0.0
C884 C 0.2713 0.05201 0.77282 0.0
N885 N 0.25277 0.06481 0.74218 0.0
C886 C 0.27651 0.06766 0.76403 0.0
C887 C 0.25685 0.04272 0.76581 0.0
C888 C 0.26693 0.07395 0.74861 0.0
C889 C 0.24759 0.04945 0.75038 0.0
C890 C 0.28274 0.06992 0.84312 0.0
C891 C 0.30611 0.07527 0.86539 0.0
N892 N 0.29755 0.08992 0.87155 0.0
C893 C 0.27418 0.08503 0.84965 0.0
C894 C 0.29885 0.06498 0.85102 0.0
C895 C 0.28188 0.09497 0.86404 0.0
C896 C 0.22542 0.05252 0.80272 0.0
N897 N 0.2415 0.06029 0.80216 0.0
C898 C 0.2289 0.08767 0.79267 0.0
C899 C 0.2435 0.07747 0.79727 0.0
C900 C 0.21201 0.0802 0.79347 0.0
C901 C 0.21038 0.06231 0.79841 0.0
H902 H 0.22427 0.03883 0.80679 0.0
H903 H 0.25649 0.08325 0.79701 0.0
C904 C 0.32884 0.06658 0.8111 0.0
N905 N 0.31151 0.06958 0.80768 0.0
C906 C 0.3412 0.07982 0.80778 0.0
C907 C 0.31758 0.09931 0.7986 0.0
C908 C 0.3057 0.08568 0.80201 0.0
C909 C 0.33565 0.0964 0.8012 0.0
H910 H 0.33315 0.05396 0.81636 0.0
H911 H 0.29177 0.08788 0.80009 0.0
C912 C 0.25347 0.00721 0.81852 0.0
N913 N 0.24192 0.9727 0.81685 0.0
C914 C 0.25793 0.99531 0.83281 0.0
C915 C 0.24293 0.00161 0.80352 0.0
C916 C 0.25201 0.97791 0.83168 0.0
C917 C 0.23729 0.9841 0.80288 0.0
C918 C 0.31579 0.02258 0.81328 0.0
C919 C 0.31976 0.02632 0.7944 0.0
C920 C 0.32751 0.0125 0.82398 0.0
C921 C 0.33543 0.02004 0.78664 0.0
C922 C 0.34306 0.00647 0.8157 0.0
N923 N 0.34666 0.01033 0.79736 0.0
C924 C 0.28577 0.00398 0.76913 0.0
C925 C 0.28863 0.98783 0.79763 0.0
C926 C 0.29093 0.9893 0.75862 0.0
N927 N 0.2848 0.003 0.78827 0.0
C928 C 0.29355 0.97276 0.78768 0.0
C929 C 0.295 0.9735 0.76795 0.0
H930 H 0.28323 0.01633 0.76206 0.0
H931 H 0.28852 0.98763 0.81288 0.0
C932 C 0.26328 0.03368 0.87091 0.0
N933 N 0.27774 0.02908 0.86081 0.0
C934 C 0.2624 0.02999 0.89021 0.0
C935 C 0.29135 0.01694 0.88825 0.0
C936 C 0.29166 0.02091 0.86902 0.0
C937 C 0.27657 0.02148 0.89911 0.0
H938 H 0.25243 0.04021 0.86394 0.0
H939 H 0.30303 0.01756 0.86064 0.0
O940 O 0.28029 0.0458 0.78819 0.0
O941 O 0.27532 0.06011 0.82901 0.0
O942 O 0.25925 0.02428 0.8193 0.0
O943 O 0.30027 0.02813 0.82111 0.0
H944 H 0.28785 0.07485 0.76899 0.0
H945 H 0.25276 0.03052 0.77232 0.0
H946 H 0.27077 0.08609 0.74174 0.0
H947 H 0.23629 0.04246 0.74493 0.0
H948 H 0.31856 0.0716 0.87163 0.0
H949 H 0.26172 0.08903 0.84364 0.0
H950 H 0.3057 0.05337 0.84612 0.0
H951 H 0.2754 0.1067 0.86924 0.0
H952 H 0.23085 0.10129 0.7886 0.0
H953 H 0.19762 0.05607 0.79943 0.0
H954 H 0.35499 0.07693 0.80996 0.0
H955 H 0.31265 0.112 0.79401 0.0
H956 H 0.26605 -0.00063 0.84454 0.0
H957 H 0.23911 0.01067 0.79248 0.0
H958 H 0.25547 0.96853 0.84257 0.0
H959 H 0.2292 0.97957 0.7913 0.0
H960 H 0.31094 0.03402 0.78578 0.0
H961 H 0.32463 0.00928 0.83852 0.0
H962 H 0.33866 0.02287 0.77207 0.0
H963 H 0.35224 0.99868 0.82385 0.0
H964 H 0.29205 0.99036 0.74342 0.0
H965 H 0.29701 0.96092 0.79538 0.0
H966 H 0.25069 0.03356 0.89801 0.0
H967 H 0.30267 0.01062 0.89459 0.0
Li968 Li 0.02085 0.71779 0.19655 0.0
Li969 Li 0.04865 0.70387 0.18713 0.0
Li970 Li 0.04521 0.73548 0.18962 0.0
Li971 Li 0.03038 0.71961 0.1639 0.0
C972 C 0.05134 0.7264 0.22478 0.0
N973 N 0.06761 0.74472 0.25363 0.0
C974 C 0.06788 0.72114 0.23128 0.0
C975 C 0.04294 0.74075 0.23324 0.0
C976 C 0.07592 0.73062 0.2458 0.0
C977 C 0.05142 0.74991 0.24772 0.0
C978 C 0.01743 0.68284 0.18524 0.0
C979 C -0.0007 0.65696 0.18182 0.0
N980 N 0.00257 0.65263 0.20012 0.0
C981 C 0.02062 0.67812 0.20402 0.0
C982 C 0.00666 0.6722 0.17405 0.0
C983 C 0.01299 0.6628 0.21128 0.0
C984 C 0.98491 0.71136 0.20378 0.0
N985 N 0.00078 0.7141 0.21208 0.0
C986 C 0.98909 0.70652 0.24231 0.0
C987 C 0.00307 0.712 0.23098 0.0
C988 C 0.97264 0.70342 0.23406 0.0
C989 C 0.97048 0.70625 0.21463 0.0
H990 H 0.98363 0.71239 0.18863 0.0
H991 H 0.01594 0.71372 0.23713 0.0
C992 C 0.08225 0.69074 0.19293 0.0
N993 N 0.06547 0.68535 0.18978 0.0
C994 C 0.09558 0.67844 0.19592 0.0
C995 C 0.07434 0.65516 0.19135 0.0
C996 C 0.06144 0.66794 0.18833 0.0
C997 C 0.09164 0.66035 0.19555 0.0
H998 H 0.08521 0.70468 0.19333 0.0
H999 H 0.04823 0.66386 0.18499 0.0
C1000 C 0.00465 0.74578 0.18213 0.0
N1001 N 0.97105 0.75896 0.18685 0.0
C1002 C 0.9919 0.74309 0.16822 0.0
C1003 C 0.00037 0.75546 0.19828 0.0
C1004 C 0.97497 0.74979 0.17091 0.0
C1005 C 0.9833 0.76193 0.20046 0.0
C1006 C 0.06562 0.71416 0.15464 0.0
C1007 C 0.08117 0.72196 0.14829 0.0
C1008 C 0.05988 0.69837 0.14654 0.0
C1009 C 0.0907 0.71386 0.13384 0.0
C1010 C 0.06979 0.69069 0.13212 0.0
N1011 N 0.08486 0.69853 0.12612 0.0
C1012 C 0.07553 0.75442 0.19795 0.0
C1013 C 0.05005 0.77224 0.19508 0.0
C1014 C 0.08595 0.76926 0.2009 0.0
N1015 N 0.05799 0.75619 0.19505 0.0
C1016 C 0.06001 0.78749 0.19784 0.0
C1017 C 0.07826 0.78612 0.20054 0.0
H1018 H 0.08145 0.74145 0.1977 0.0
H1019 H 0.03609 0.77322 0.19251 0.0
C1020 C 0.01018 0.71062 0.13175 0.0
N1021 N 0.02402 0.72026 0.13804 0.0
C1022 C 0.00571 0.71075 0.11263 0.0
C1023 C 0.03001 0.73056 0.10685 0.0
C1024 C 0.03381 0.73026 0.1261 0.0
C1025 C 0.01577 0.72073 0.09983 0.0
H1026 H 0.00251 0.70296 0.14164 0.0
H1027 H 0.04473 0.73784 0.13153 0.0
O1028 O 0.04337 0.7175 0.2103 0.0
O1029 O 0.02422 0.69814 0.17803 0.0
O1030 O 0.02127 0.7392 0.1798 0.0
O1031 O 0.05623 0.72193 0.16885 0.0
H1032 H 0.07443 0.70985 0.22524 0.0
H1033 H 0.03005 0.74481 0.22862 0.0
H1034 H 0.08877 0.72676 0.25088 0.0
H1035 H 0.04511 0.76113 0.25426 0.0
H1036 H 0.99095 0.6486 0.17331 0.0
H1037 H 0.02891 0.68616 0.21293 0.0
H1038 H 0.00399 0.67567 0.15952 0.0
H1039 H 0.01533 0.65902 0.22578 0.0
H1040 H 0.99121 0.70428 0.25724 0.0
H1041 H 0.95804 0.70359 0.20777 0.0
H1042 H 0.10881 0.68306 0.19861 0.0
H1043 H 0.07067 0.64138 0.19092 0.0
H1044 H 0.99497 0.73582 0.15554 0.0
H1045 H 0.01011 0.75797 0.20904 0.0
H1046 H 0.96496 0.74769 0.16031 0.0
H1047 H 0.9798 0.76933 0.21296 0.0
H1048 H 0.0858 0.73415 0.15449 0.0
H1049 H 0.04792 0.69209 0.15131 0.0
H1050 H 0.10276 0.71976 0.12877 0.0
H1051 H 0.0655 0.67848 0.1257 0.0
H1052 H 0.09991 0.76755 0.20323 0.0
H1053 H 0.05357 0.80021 0.19721 0.0
H1054 H 0.99441 0.70325 0.10802 0.0
H1055 H 0.03836 0.73821 0.09756 0.0
Li1056 Li 0.70587 0.04904 0.18649 0.0
Li1057 Li 0.73734 0.04549 0.18887 0.0
Li1058 Li 0.72001 0.03024 0.16277 0.0
Li1059 Li 0.71803 0.02104 0.1958 0.0
C1060 C 0.71663 0.07041 0.15957 0.0
N1061 N 0.70091 0.10005 0.14449 0.0
C1062 C 0.72258 0.08718 0.16462 0.0
C1063 C 0.70276 0.06869 0.14677 0.0
C1064 C 0.71444 0.10201 0.15686 0.0
C1065 C 0.69497 0.08384 0.13932 0.0
C1066 C 0.72782 0.04596 0.22633 0.0
C1067 C 0.74936 0.03666 0.24923 0.0
N1068 N 0.74489 0.05053 0.26041 0.0
C1069 C 0.72334 0.06005 0.2381 0.0
C1070 C 0.74086 0.03413 0.23197 0.0
C1071 C 0.73215 0.06216 0.25525 0.0
C1072 C 0.67123 0.06403 0.18409 0.0
N1073 N 0.688 0.06627 0.19025 0.0
C1074 C 0.68071 0.09426 0.20352 0.0
C1075 C 0.69295 0.08111 0.19954 0.0
C1076 C 0.66308 0.09205 0.19809 0.0
C1077 C 0.65846 0.07675 0.18801 0.0
H1078 H 0.66769 0.05226 0.17637 0.0
H1079 H 0.70649 0.08272 0.20383 0.0
C1080 C 0.77404 0.05197 0.18783 0.0
N1081 N 0.75829 0.05772 0.19446 0.0
C1082 C 0.78921 0.06194 0.19087 0.0
C1083 C 0.7716 0.08335 0.2077 0.0
C1084 C 0.75682 0.07301 0.20428 0.0
C1085 C 0.78804 0.078 0.20069 0.0
H1086 H 0.77473 0.0399 0.17973 0.0
H1087 H 0.74405 0.0774 0.20906 0.0
C1088 C 0.68328 0.01899 0.18496 0.0
N1089 N 0.65297 0.00534 0.20069 0.0
C1090 C 0.67799 0.02421 0.20302 0.0
C1091 C 0.6732 0.00678 0.17494 0.0
C1092 C 0.66262 0.01717 0.21072 0.0
C1093 C 0.65789 5e-05 0.18312 0.0
C1094 C 0.7484 0.00548 0.18088 0.0
C1095 C 0.74443 0.99124 0.16913 0.0
C1096 C 0.76219 0.00401 0.19383 0.0
C1097 C 0.7539 0.97555 0.17096 0.0
C1098 C 0.77138 0.98811 0.19523 0.0
N1099 N 0.76705 0.97432 0.18389 0.0
C1100 C 0.72878 0.03382 0.12455 0.0
C1101 C 0.71209 0.00826 0.13167 0.0
C1102 C 0.72922 0.02929 0.10546 0.0
N1103 N 0.72029 0.02333 0.13714 0.0
C1104 C 0.71239 0.0031 0.11275 0.0
C1105 C 0.72099 0.01372 0.09939 0.0
H1106 H 0.7352 0.04572 0.12936 0.0
H1107 H 0.7054 0.00023 0.14204 0.0
C1108 C 0.70904 0.00284 0.22956 0.0
N1109 N 0.7133 0.0008 0.21104 0.0
C1110 C 0.70313 0.98849 0.24013 0.0
C1111 C 0.70607 0.97016 0.21242 0.0
C1112 C 0.71179 0.9849 0.20235 0.0
C1113 C 0.70142 0.97194 0.2315 0.0
H1114 H 0.7094 0.01573 0.23597 0.0
H1115 H 0.71415 0.98382 0.18737 0.0
O1116 O 0.72409 0.05574 0.16739 0.0
O1117 O 0.71958 0.0439 0.20929 0.0
O1118 O 0.69859 0.02527 0.17737 0.0
O1119 O 0.73937 0.02102 0.17911 0.0
H1120 H 0.73328 0.08872 0.17455 0.0
H1121 H 0.69794 0.05578 0.14283 0.0
H1122 H 0.71885 0.11508 0.1607 0.0
H1123 H 0.68415 0.08272 0.12948 0.0
H1124 H 0.75948 0.02758 0.25376 0.0
H1125 H 0.71318 0.06928 0.23405 0.0
H1126 H 0.74418 0.02298 0.22323 0.0
H1127 H 0.72886 0.07304 0.26447 0.0
H1128 H 0.68504 0.10601 0.21084 0.0
H1129 H 0.64504 0.07436 0.18363 0.0
H1130 H 0.80156 0.05747 0.18497 0.0
H1131 H 0.77012 0.09554 0.2155 0.0
H1132 H 0.68572 0.03351 0.21108 0.0
H1133 H 0.67718 0.00251 0.161 0.0
H1134 H 0.65839 0.02107 0.22469 0.0
H1135 H 0.64996 0.9906 0.17552 0.0
H1136 H 0.734 0.9922 0.15883 0.0
H1137 H 0.76594 0.01506 0.20257 0.0
H1138 H 0.75081 0.96437 0.16209 0.0
H1139 H 0.78202 0.98677 0.20526 0.0
H1140 H 0.73611 0.03773 0.0956 0.0
H1141 H 0.70576 0.99109 0.10856 0.0
H1142 H 0.69952 0.99043 0.25478 0.0
H1143 H 0.70444 0.95773 0.2051 0.0
Li1144 Li 0.03378 0.27555 0.83769 0.0
Li1145 Li 0.04631 0.25838 0.81141 0.0
Li1146 Li 0.05248 0.28912 0.81462 0.0
Li1147 Li 0.02391 0.28002 0.80536 0.0
C1148 C 0.07297 0.27705 0.84136 0.0
N1149 N 0.10199 0.29212 0.85833 0.0
C1150 C 0.08985 0.27111 0.83687 0.0
C1151 C 0.07084 0.29061 0.85452 0.0
C1152 C 0.10435 0.27892 0.84559 0.0
C1153 C 0.08568 0.29806 0.86294 0.0
C1154 C 0.01743 0.24341 0.83087 0.0
C1155 C 0.99671 0.22115 0.84063 0.0
N1156 N 0.00931 0.21367 0.85164 0.0
C1157 C 0.03017 0.23551 0.8423 0.0
C1158 C 0.00055 0.2362 0.83003 0.0
C1159 C 0.02582 0.22048 0.85268 0.0
C1160 C 0.01284 0.2842 0.86928 0.0
N1161 N 0.02729 0.27515 0.86352 0.0
C1162 C 0.03351 0.26624 0.89514 0.0
C1163 C 0.03757 0.26622 0.87595 0.0
C1164 C 0.0188 0.27566 0.90164 0.0
C1165 C 0.00833 0.28464 0.8884 0.0
H1166 H 0.00497 0.29124 0.85904 0.0
H1167 H 0.04904 0.2592 0.87098 0.0
C1168 C 0.07376 0.23974 0.7971 0.0
N1169 N 0.05712 0.23711 0.80337 0.0
C1170 C 0.08419 0.22552 0.79181 0.0
C1171 C 0.05986 0.20603 0.7986 0.0
C1172 C 0.0498 0.22074 0.80361 0.0
C1173 C 0.07746 0.20831 0.79305 0.0
H1174 H 0.07899 0.25299 0.79644 0.0
H1175 H 0.03631 0.21901 0.80797 0.0
C1176 C 0.02576 0.31454 0.81779 0.0
N1177 N 0.01697 0.34746 0.80397 0.0
C1178 C 0.03172 0.31991 0.80002 0.0
C1179 C 0.01535 0.32593 0.82853 0.0
C1180 C 0.02714 0.33659 0.79328 0.0
C1181 C 0.01104 0.34252 0.82129 0.0
C1182 C 0.04294 0.2683 0.77447 0.0
C1183 C 0.05253 0.27306 0.75844 0.0
C1184 C 0.03013 0.25514 0.77317 0.0
C1185 C 0.0491 0.26461 0.74131 0.0
C1186 C 0.0271 0.247 0.75579 0.0
N1187 N 0.03657 0.25186 0.74035 0.0
C1188 C 0.08294 0.302 0.79769 0.0
C1189 C 0.0709 0.3215 0.82043 0.0
C1190 C 0.09599 0.31418 0.79317 0.0
N1191 N 0.07059 0.30598 0.81086 0.0
C1192 C 0.08368 0.33412 0.8163 0.0
C1193 C 0.09627 0.33065 0.80225 0.0
H1194 H 0.08243 0.28944 0.79048 0.0
H1195 H 0.06096 0.32425 0.83095 0.0
C1196 C 0.98773 0.28417 0.79742 0.0
N1197 N 0.00419 0.28645 0.79037 0.0
C1198 C 0.97317 0.29062 0.78756 0.0
C1199 C 0.99281 0.30121 0.76323 0.0
C1200 C 0.00693 0.29453 0.7735 0.0
C1201 C 0.97569 0.2996 0.77041 0.0
H1202 H 0.98599 0.27785 0.81098 0.0
H1203 H 0.02013 0.29635 0.76826 0.0
O1204 O 0.0586 0.26989 0.83264 0.0
O1205 O 0.0212 0.25833 0.82079 0.0
O1206 O 0.02992 0.29821 0.8247 0.0
O1207 O 0.04631 0.27646 0.79132 0.0
H1208 H 0.09175 0.26061 0.82675 0.0
H1209 H 0.05789 0.29554 0.85796 0.0
H1210 H 0.1175 0.27448 0.84222 0.0
H1211 H 0.08423 0.30864 0.87307 0.0
H1212 H 0.9837 0.21542 0.84011 0.0
H1213 H 0.04334 0.24078 0.84301 0.0
H1214 H 0.99052 0.24221 0.8213 0.0
H1215 H 0.03557 0.21421 0.86154 0.0
H1216 H 0.0418 0.2589 0.90477 0.0
H1217 H 0.99699 0.29224 0.89279 0.0
H1218 H 0.09749 0.22797 0.78703 0.0
H1219 H 0.05411 0.19301 0.79966 0.0
H1220 H 0.03978 0.31129 0.79148 0.0
H1221 H 0.01062 0.32197 0.84231 0.0
H1222 H 0.03164 0.34089 0.77955 0.0
H1223 H 0.00298 0.35146 0.82945 0.0
H1224 H 0.06251 0.2832 0.75923 0.0
H1225 H 0.02258 0.25123 0.78539 0.0
H1226 H 0.05642 0.26817 0.72878 0.0
H1227 H 0.01722 0.23681 0.75457 0.0
H1228 H 0.10562 0.31083 0.7825 0.0
H1229 H 0.0833 0.34669 0.82353 0.0
H1230 H 0.96019 0.28926 0.79365 0.0
H1231 H 0.9953 0.30788 0.74997 0.0
Li1232 Li 0.27654 0.96421 0.16131 0.0
Li1233 Li 0.28002 0.97557 0.19345 0.0
Li1234 Li 0.29044 0.94524 0.18436 0.0
Li1235 Li 0.25913 0.95128 0.18823 0.0
C1236 C 0.30945 0.97741 0.16306 0.0
N1237 N 0.33057 0.99544 0.13786 0.0
C1238 C 0.31108 0.99572 0.1643 0.0
C1239 C 0.31878 0.96824 0.14918 0.0
C1240 C 0.32177 0.00461 0.15139 0.0
C1241 C 0.32931 0.9776 0.13651 0.0
C1242 C 0.24694 0.98904 0.18112 0.0
C1243 C 0.22532 0.00297 0.20108 0.0
N1244 N 0.22378 0.0163 0.18834 0.0
C1245 C 0.24497 0.00277 0.16812 0.0
C1246 C 0.2369 0.98904 0.19765 0.0
C1247 C 0.23326 0.01647 0.17207 0.0
C1248 C 0.27202 0.95817 0.12231 0.0
N1249 N 0.27586 0.97071 0.13536 0.0
C1250 C 0.27904 0.99248 0.11119 0.0
C1251 C 0.27911 0.98767 0.13022 0.0
C1252 C 0.27538 0.97973 0.09734 0.0
C1253 C 0.27173 0.9624 0.10314 0.0
H1254 H 0.26908 0.94488 0.12677 0.0
H1255 H 0.28182 0.99747 0.14089 0.0
C1256 C 0.29689 0.99268 0.2231 0.0
N1257 N 0.28569 0.99552 0.20848 0.0
C1258 C 0.30276 0.00676 0.23408 0.0
C1259 C 0.28529 0.02643 0.21488 0.0
C1260 C 0.2798 0.01197 0.20424 0.0
C1261 C 0.29712 0.02395 0.22989 0.0
H1262 H 0.30157 0.97948 0.22595 0.0
H1263 H 0.27128 0.01401 0.19229 0.0
C1264 C 0.27524 0.92277 0.16019 0.0
N1265 N 0.28428 0.88957 0.14736 0.0
C1266 C 0.26514 0.90812 0.16526 0.0
C1267 C 0.28977 0.92055 0.14836 0.0
C1268 C 0.26996 0.89144 0.15869 0.0
C1269 C 0.29418 0.90366 0.14209 0.0
C1270 C 0.27233 0.9504 0.22558 0.0
C1271 C 0.27601 0.93457 0.23489 0.0
C1272 C 0.26331 0.96375 0.23512 0.0
C1273 C 0.27019 0.93219 0.25343 0.0
C1274 C 0.25773 0.96089 0.25366 0.0
N1275 N 0.26123 0.94528 0.26235 0.0
C1276 C 0.32506 0.93163 0.18681 0.0
C1277 C 0.30238 0.91167 0.19511 0.0
C1278 C 0.33784 0.91906 0.19119 0.0
N1279 N 0.30775 0.92775 0.18894 0.0
C1280 C 0.31468 0.89868 0.19951 0.0
C1281 C 0.33271 0.90235 0.19782 0.0
H1282 H 0.32895 0.94462 0.18212 0.0
H1283 H 0.28852 0.90902 0.19688 0.0
C1284 C 0.222 0.94658 0.1891 0.0
N1285 N 0.23773 0.94051 0.19551 0.0
C1286 C 0.2066 0.93717 0.1928 0.0
C1287 C 0.22392 0.91555 0.20966 0.0
C1288 C 0.23891 0.92543 0.20579 0.0
C1289 C 0.20756 0.92123 0.20283 0.0
H1290 H 0.2215 0.95833 0.18049 0.0
H1291 H 0.25162 0.92059 0.21013 0.0
O1292 O 0.29894 0.9685 0.1755 0.0
O1293 O 0.25839 0.97555 0.17746 0.0
O1294 O 0.27087 0.93919 0.16671 0.0
O1295 O 0.27802 0.95296 0.20745 0.0
H1296 H 0.30406 0.00304 0.175 0.0
H1297 H 0.31793 0.95406 0.1482 0.0
H1298 H 0.32305 0.0188 0.15211 0.0
H1299 H 0.33652 0.97068 0.12564 0.0
H1300 H 0.2175 0.00314 0.21384 0.0
H1301 H 0.25248 0.0029 0.15516 0.0
H1302 H 0.23784 0.97829 0.20759 0.0
H1303 H 0.23171 0.02723 0.16218 0.0
H1304 H 0.28203 0.00597 0.10739 0.0
H1305 H 0.26848 0.95223 0.093 0.0
H1306 H 0.31212 0.00426 0.24529 0.0
H1307 H 0.28053 0.03944 0.21121 0.0
H1308 H 0.25371 0.90959 0.17417 0.0
H1309 H 0.29759 0.93175 0.14412 0.0
H1310 H 0.26232 0.87998 0.16258 0.0
H1311 H 0.30547 0.90175 0.13303 0.0
H1312 H 0.2832 0.92418 0.22785 0.0
H1313 H 0.26082 0.97629 0.22841 0.0
H1314 H 0.27283 0.91995 0.26073 0.0
H1315 H 0.2507 0.9711 0.26118 0.0
H1316 H 0.35158 0.92259 0.18997 0.0
H1317 H 0.31009 0.88594 0.20435 0.0
H1318 H 0.19424 0.94179 0.18704 0.0
H1319 H 0.22517 0.90328 0.21739 0.0
Li1320 Li 0.95225 0.73816 0.80969 0.0
Li1321 Li 0.96272 0.72162 0.83695 0.0
Li1322 Li 0.97482 0.71648 0.80545 0.0
Li1323 Li 0.9452 0.70689 0.81367 0.0
C1324 C 0.98036 0.7555 0.82091 0.0
N1325 N 0.9873 0.79125 0.82099 0.0
C1326 C 0.97956 0.76505 0.83776 0.0
C1327 C 0.98479 0.76411 0.80412 0.0
C1328 C 0.98311 0.78312 0.8375 0.0
C1329 C 0.9882 0.7822 0.80444 0.0
C1330 C 0.92069 0.72367 0.83166 0.0
C1331 C 0.8967 0.7065 0.84426 0.0
N1332 N 0.88525 0.71581 0.8334 0.0
C1333 C 0.90867 0.73306 0.82062 0.0
C1334 C 0.91465 0.71029 0.8436 0.0
C1335 C 0.89081 0.7289 0.82172 0.0
C1336 C 0.93805 0.76293 0.78375 0.0
N1337 N 0.94293 0.76024 0.80198 0.0
C1338 C 0.93118 0.78815 0.8111 0.0
C1339 C 0.93972 0.77244 0.81559 0.0
C1340 C 0.92552 0.7911 0.79251 0.0
C1341 C 0.92923 0.77838 0.77867 0.0
H1342 H 0.9404 0.75282 0.77331 0.0
H1343 H 0.94321 0.76967 0.83008 0.0
C1344 C 0.98539 0.72541 0.86826 0.0
N1345 N 0.96837 0.72293 0.86306 0.0
C1346 C 0.99001 0.7255 0.88734 0.0
C1347 C 0.9595 0.72048 0.89527 0.0
C1348 C 0.95544 0.72074 0.87608 0.0
C1349 C 0.97697 0.72281 0.90106 0.0
H1350 H 0.99539 0.72709 0.85755 0.0
H1351 H 0.94202 0.71899 0.87157 0.0
C1352 C 0.95824 0.71473 0.77299 0.0
N1353 N 0.97047 0.70458 0.7379 0.0
C1354 C 0.95489 0.69774 0.76626 0.0
C1355 C 0.9677 0.72659 0.76182 0.0
C1356 C 0.9612 0.69285 0.74849 0.0
C1357 C 0.97381 0.72119 0.74415 0.0
C1358 C 0.97672 0.69041 0.83838 0.0
C1359 C 0.99508 0.69018 0.83793 0.0
C1360 C 0.96788 0.68293 0.85374 0.0
C1361 C 0.00431 0.68247 0.85286 0.0
C1362 C 0.97758 0.67539 0.86841 0.0
N1363 N 0.99544 0.67531 0.86767 0.0
C1364 C 0.0089 0.72089 0.78916 0.0
C1365 C 0.9955 0.69295 0.78496 0.0
C1366 C 0.02389 0.71523 0.77949 0.0
N1367 N 0.99513 0.70973 0.79165 0.0
C1368 C 0.0101 0.68681 0.77508 0.0
C1369 C 0.02459 0.69798 0.77233 0.0
H1370 H 0.00836 0.73408 0.79489 0.0
H1371 H 0.98449 0.68426 0.78754 0.0
C1372 C 0.91525 0.6929 0.7959 0.0
N1373 N 0.92779 0.68944 0.80903 0.0
C1374 C 0.90226 0.68044 0.79197 0.0
C1375 C 0.91519 0.66125 0.81542 0.0
C1376 C 0.92804 0.67399 0.81872 0.0
C1377 C 0.90211 0.66431 0.80178 0.0
H1378 H 0.91546 0.7053 0.78835 0.0
H1379 H 0.93819 0.67156 0.82902 0.0
O1380 O 0.97673 0.73784 0.82083 0.0
O1381 O 0.93829 0.72725 0.83045 0.0
O1382 O 0.95248 0.71966 0.7905 0.0
O1383 O 0.96745 0.69831 0.82414 0.0
H1384 H 0.97604 0.75865 0.85087 0.0
H1385 H 0.98539 0.75694 0.79095 0.0
H1386 H 0.98245 0.7907 0.85042 0.0
H1387 H 0.99154 0.78905 0.79154 0.0
H1388 H 0.89188 0.69608 0.85331 0.0
H1389 H 0.91304 0.74334 0.81117 0.0
H1390 H 0.92376 0.70258 0.85192 0.0
H1391 H 0.88138 0.73604 0.81321 0.0
H1392 H 0.92822 0.79746 0.82225 0.0
H1393 H 0.92497 0.78017 0.76421 0.0
H1394 H 0.00364 0.72726 0.89131 0.0
H1395 H 0.94907 0.71859 0.90549 0.0
H1396 H 0.94773 0.68833 0.77476 0.0
H1397 H 0.97045 0.73978 0.76683 0.0
H1398 H 0.9588 0.67971 0.74315 0.0
H1399 H 0.98125 0.7302 0.7354 0.0
H1400 H 0.00218 0.69607 0.82632 0.0
H1401 H 0.9537 0.68333 0.85457 0.0
H1402 H 0.01852 0.68225 0.85271 0.0
H1403 H 0.97091 0.66972 0.88045 0.0
H1404 H 0.03481 0.72423 0.77765 0.0
H1405 H 0.01025 0.67331 0.77012 0.0
H1406 H 0.89269 0.68331 0.78109 0.0
H1407 H 0.91549 0.64916 0.82353 0.0
H1408 H 0.30126 0.40235 0.26715 0.0
H1409 H 0.32511 0.38113 0.26362 0.0
H1410 H 0.35557 0.40924 0.30519 0.0
H1411 H 0.33189 0.43093 0.30843 0.0
H1412 H 0.37621 0.39547 0.2757 0.0
H1413 H 0.33176 0.37628 0.31939 0.0
H1414 H 0.30134 0.36995 0.32928 0.0
H1415 H 0.29674 0.33117 0.28541 0.0
H1416 H 0.32705 0.33752 0.27503 0.0
H1417 H 0.42909 0.3245 0.31029 0.0
H1418 H 0.40959 0.34982 0.30583 0.0
H1419 H 0.37808 0.31952 0.26698 0.0
H1420 H 0.39722 0.29405 0.27174 0.0
H1421 H 0.3583 0.33485 0.29376 0.0
H1422 H 0.40374 0.35296 0.25121 0.0
H1423 H 0.43407 0.35976 0.24138 0.0
H1424 H 0.43712 0.40041 0.28342 0.0
H1425 H 0.40687 0.39369 0.29369 0.0
C1426 C 0.31323 0.40437 0.27513 0.0
C1427 C 0.31463 0.41826 0.28819 0.0
C1428 C 0.3268 0.39214 0.27319 0.0
C1429 C 0.34196 0.39349 0.28435 0.0
C1430 C 0.34393 0.40796 0.2965 0.0
C1431 C 0.33034 0.42023 0.29845 0.0
C1432 C 0.35485 0.37889 0.28475 0.0
C1433 C 0.37238 0.38223 0.27979 0.0
C1434 C 0.34972 0.36161 0.28986 0.0
C1435 C 0.33161 0.35751 0.29631 0.0
C1436 C 0.32422 0.36649 0.31177 0.0
C1437 C 0.307 0.3629 0.31747 0.0
C1438 C 0.29709 0.3502 0.30795 0.0
C1439 C 0.30442 0.34102 0.29275 0.0
C1440 C 0.32162 0.34461 0.28695 0.0
C1441 C 0.41806 0.32328 0.30071 0.0
C1442 C 0.41467 0.30726 0.29139 0.0
C1443 C 0.40703 0.3378 0.29804 0.0
C1444 C 0.39244 0.33657 0.28598 0.0
C1445 C 0.3893 0.32075 0.2763 0.0
C1446 C 0.40033 0.30625 0.27893 0.0
C1447 C 0.37973 0.35131 0.28454 0.0
C1448 C 0.36218 0.34802 0.28948 0.0
C1449 C 0.3849 0.36861 0.27949 0.0
C1450 C 0.40309 0.3727 0.27334 0.0
C1451 C 0.41092 0.36325 0.25847 0.0
C1452 C 0.42809 0.36711 0.25279 0.0
C1453 C 0.43753 0.38048 0.2618 0.0
C1454 C 0.4298 0.39004 0.27647 0.0
C1455 C 0.41264 0.38623 0.28221 0.0
H1456 H 0.45082 0.38345 0.25738 0.0
H1457 H 0.28376 0.34744 0.31237 0.0
H1458 H 0.40046 0.69287 0.7319 0.0
H1459 H 0.38304 0.66577 0.73335 0.0
H1460 H 0.40921 0.64643 0.68345 0.0
H1461 H 0.42661 0.67355 0.68187 0.0
H1462 H 0.37312 0.64642 0.6805 0.0
H1463 H 0.41646 0.6262 0.72412 0.0
H1464 H 0.43572 0.62781 0.75204 0.0
H1465 H 0.39056 0.63126 0.7882 0.0
H1466 H 0.371 0.62994 0.76047 0.0
H1467 H 0.32269 0.5692 0.67945 0.0
H1468 H 0.34916 0.58723 0.6817 0.0
H1469 H 0.33011 0.60993 0.73365 0.0
H1470 H 0.30391 0.59136 0.73195 0.0
H1471 H 0.36542 0.60571 0.73473 0.0
H1472 H 0.32263 0.63029 0.69215 0.0
H1473 H 0.30247 0.63013 0.66491 0.0
H1474 H 0.34582 0.62024 0.62756 0.0
H1475 H 0.36622 0.62008 0.65465 0.0
C1476 C 0.40267 0.68271 0.72141 0.0
C1477 C 0.41482 0.68531 0.70674 0.0
C1478 C 0.39282 0.6672 0.72233 0.0
C1479 C 0.39491 0.65408 0.70854 0.0
C1480 C 0.40748 0.65638 0.69426 0.0
C1481 C 0.41746 0.67181 0.69344 0.0
C1482 C 0.3827 0.63891 0.70796 0.0
C1483 C 0.37172 0.63725 0.69217 0.0
C1484 C 0.38055 0.62734 0.72345 0.0
C1485 C 0.39226 0.62811 0.74018 0.0
C1486 C 0.41063 0.62745 0.73801 0.0
C1487 C 0.4216 0.62828 0.75381 0.0
C1488 C 0.41437 0.62967 0.77188 0.0
C1489 C 0.39614 0.6302 0.77419 0.0
C1490 C 0.3851 0.62939 0.75844 0.0
C1491 C 0.32433 0.57764 0.69164 0.0
C1492 C 0.31107 0.57899 0.70541 0.0
C1493 C 0.33942 0.58806 0.69282 0.0
C1494 C 0.34143 0.60016 0.70765 0.0
C1495 C 0.32877 0.60074 0.72203 0.0
C1496 C 0.31372 0.59026 0.72093 0.0
C1497 C 0.35583 0.6133 0.7073 0.0
C1498 C 0.36709 0.61467 0.72293 0.0
C1499 C 0.35814 0.62481 0.69175 0.0
C1500 C 0.34592 0.62495 0.67544 0.0
C1501 C 0.32784 0.62794 0.67815 0.0
C1502 C 0.31637 0.62793 0.66273 0.0
C1503 C 0.32285 0.62512 0.64452 0.0
C1504 C 0.34082 0.62237 0.64168 0.0
C1505 C 0.35234 0.62233 0.65705 0.0
H1506 H 0.31395 0.62512 0.6326 0.0
H1507 H 0.42289 0.63031 0.78409 0.0
H1508 H 0.56331 0.67107 0.29611 0.0
H1509 H 0.582 0.64503 0.29207 0.0
H1510 H 0.62477 0.67835 0.27403 0.0
H1511 H 0.60628 0.70431 0.27806 0.0
H1512 H 0.62339 0.64854 0.25328 0.0
H1513 H 0.62127 0.66452 0.31967 0.0
H1514 H 0.60628 0.67034 0.34991 0.0
H1515 H 0.58511 0.61787 0.34976 0.0
H1516 H 0.5998 0.61182 0.31936 0.0
H1517 H 0.70296 0.60924 0.27925 0.0
H1518 H 0.67669 0.62706 0.27491 0.0
H1519 H 0.64438 0.58332 0.29249 0.0
H1520 H 0.67076 0.56515 0.29661 0.0
H1521 H 0.63603 0.61356 0.31092 0.0
H1522 H 0.64344 0.59621 0.24699 0.0
H1523 H 0.65946 0.59084 0.21729 0.0
H1524 H 0.67147 0.64599 0.21292 0.0
H1525 H 0.65575 0.65167 0.24275 0.0
C1526 C 0.57667 0.67281 0.29118 0.0
C1527 C 0.58334 0.68976 0.2875 0.0
C1528 C 0.5873 0.65793 0.28883 0.0
C1529 C 0.60482 0.65979 0.28294 0.0
C1530 C 0.61126 0.67661 0.27851 0.0
C1531 C 0.60065 0.69145 0.28079 0.0
C1532 C 0.61694 0.6445 0.28256 0.0
C1533 C 0.62618 0.64088 0.26587 0.0
C1534 C 0.62019 0.63419 0.29885 0.0
C1535 C 0.61143 0.6378 0.31715 0.0
C1536 C 0.6133 0.65427 0.32602 0.0
C1537 C 0.60488 0.65761 0.34319 0.0
C1538 C 0.5947 0.64451 0.35172 0.0
C1539 C 0.59296 0.62802 0.34311 0.0
C1540 C 0.60133 0.62463 0.32592 0.0
C1541 C 0.69027 0.60321 0.28177 0.0
C1542 C 0.68897 0.5857 0.28815 0.0
C1543 C 0.67524 0.61346 0.27931 0.0
C1544 C 0.65856 0.60644 0.28312 0.0
C1545 C 0.65714 0.58894 0.28939 0.0
C1546 C 0.67222 0.57862 0.29181 0.0
C1547 C 0.64287 0.61793 0.28178 0.0
C1548 C 0.63296 0.62088 0.29817 0.0
C1549 C 0.63908 0.62767 0.26523 0.0
C1550 C 0.64847 0.62435 0.24719 0.0
C1551 C 0.64959 0.60718 0.23977 0.0
C1552 C 0.65861 0.60408 0.2229 0.0
C1553 C 0.66649 0.61806 0.21324 0.0
C1554 C 0.66535 0.63517 0.22042 0.0
C1555 C 0.65636 0.63835 0.2373 0.0
H1556 H 0.67347 0.61563 0.20017 0.0
H1557 H 0.58819 0.64711 0.36502 0.0
H1558 H 0.56979 0.32631 0.69014 0.0
H1559 H 0.58818 0.35253 0.69373 0.0
H1560 H 0.62237 0.32399 0.73151 0.0
H1561 H 0.60373 0.29791 0.72849 0.0
H1562 H 0.61828 0.3582 0.74266 0.0
H1563 H 0.63189 0.32643 0.68528 0.0
H1564 H 0.62496 0.31283 0.65455 0.0
H1565 H 0.60757 0.36291 0.63331 0.0
H1566 H 0.61418 0.37676 0.66404 0.0
H1567 H 0.70252 0.39575 0.72943 0.0
H1568 H 0.67598 0.37788 0.73245 0.0
H1569 H 0.6491 0.41208 0.69325 0.0
H1570 H 0.6758 0.42972 0.68973 0.0
H1571 H 0.64617 0.37842 0.68315 0.0
H1572 H 0.63722 0.41099 0.7398 0.0
H1573 H 0.64509 0.42406 0.77051 0.0
H1574 H 0.65459 0.37247 0.79328 0.0
H1575 H 0.64702 0.35908 0.76262 0.0
C1576 C 0.58098 0.32575 0.69958 0.0
C1577 C 0.58545 0.30998 0.70886 0.0
C1578 C 0.59153 0.3407 0.70151 0.0
C1579 C 0.60678 0.3401 0.71266 0.0
C1580 C 0.61069 0.32471 0.72279 0.0
C1581 C 0.60014 0.30977 0.72089 0.0
C1582 C 0.61949 0.35488 0.7125 0.0
C1583 C 0.62444 0.36263 0.72969 0.0
C1584 C 0.62722 0.36087 0.6955 0.0
C1585 C 0.62332 0.35258 0.67701 0.0
C1586 C 0.62646 0.33451 0.6741 0.0
C1587 C 0.62261 0.32676 0.65668 0.0
C1588 C 0.61577 0.33699 0.64201 0.0
C1589 C 0.61282 0.355 0.64471 0.0
C1590 C 0.61662 0.36281 0.66211 0.0
C1591 C 0.69091 0.39954 0.72157 0.0
C1592 C 0.69128 0.41407 0.70925 0.0
C1593 C 0.67569 0.38944 0.72347 0.0
C1594 C 0.66051 0.39373 0.71318 0.0
C1595 C 0.66065 0.40859 0.70138 0.0
C1596 C 0.67588 0.41872 0.69948 0.0
C1597 C 0.64517 0.38169 0.71335 0.0
C1598 C 0.63978 0.37434 0.69613 0.0
C1599 C 0.63714 0.37604 0.73034 0.0
C1600 C 0.64166 0.38403 0.74884 0.0
C1601 C 0.64112 0.40243 0.7513 0.0
C1602 C 0.6455 0.4099 0.76872 0.0
C1603 C 0.65037 0.3991 0.78382 0.0
C1604 C 0.65082 0.38081 0.78156 0.0
C1605 C 0.64646 0.37327 0.76417 0.0
H1606 H 0.65376 0.40491 0.79729 0.0
H1607 H 0.61281 0.33097 0.62853 0.0
H1608 H 0.78932 0.88212 0.7949 0.0
H1609 H 0.81482 0.86322 0.79202 0.0
H1610 H 0.84773 0.90863 0.78237 0.0
H1611 H 0.82185 0.92774 0.78363 0.0
H1612 H 0.85872 0.88268 0.76111 0.0
H1613 H 0.8454 0.88831 0.82634 0.0
H1614 H 0.82695 0.88832 0.85497 0.0
H1615 H 0.81577 0.83334 0.84707 0.0
H1616 H 0.83394 0.83305 0.81823 0.0
H1617 H 0.93079 0.82558 0.80238 0.0
H1618 H 0.9098 0.85003 0.79916 0.0
H1619 H 0.87352 0.81546 0.7707 0.0
H1620 H 0.89444 0.79109 0.7736 0.0
H1621 H 0.86744 0.83876 0.81222 0.0
H1622 H 0.87859 0.83686 0.7428 0.0
H1623 H 0.89908 0.83854 0.71587 0.0
H1624 H 0.91734 0.88898 0.73514 0.0
H1625 H 0.89711 0.88744 0.76236 0.0
C1626 C 0.80183 0.88819 0.79165 0.0
C1627 C 0.8034 0.90657 0.7895 0.0
C1628 C 0.81652 0.87731 0.79035 0.0
C1629 C 0.83328 0.88452 0.78748 0.0
C1630 C 0.83494 0.90278 0.78478 0.0
C1631 C 0.82013 0.91371 0.78573 0.0
C1632 C 0.84897 0.87288 0.78775 0.0
C1633 C 0.86069 0.87323 0.77241 0.0
C1634 C 0.85177 0.86064 0.80259 0.0
C1635 C 0.84095 0.8607 0.82004 0.0
C1636 C 0.83892 0.87625 0.83065 0.0
C1637 C 0.82852 0.8763 0.84692 0.0
C1638 C 0.82017 0.86085 0.85282 0.0
C1639 C 0.82224 0.8453 0.84248 0.0
C1640 C 0.83261 0.84518 0.82618 0.0
C1641 C 0.91849 0.82333 0.79508 0.0
C1642 C 0.91423 0.80648 0.78819 0.0
C1643 C 0.90659 0.83728 0.79319 0.0
C1644 C 0.89028 0.8345 0.78451 0.0
C1645 C 0.88622 0.81786 0.77713 0.0
C1646 C 0.89817 0.80399 0.77877 0.0
C1647 C 0.87657 0.84819 0.78533 0.0
C1648 C 0.86539 0.8483 0.80102 0.0
C1649 C 0.87449 0.861 0.77107 0.0
C1650 C 0.88656 0.86191 0.75473 0.0
C1651 C 0.88714 0.84819 0.74142 0.0
C1652 C 0.89865 0.84915 0.72607 0.0
C1653 C 0.90956 0.86382 0.72383 0.0
C1654 C 0.90892 0.8776 0.73691 0.0
C1655 C 0.89743 0.87669 0.75229 0.0
H1656 H 0.91846 0.86455 0.71194 0.0
H1657 H 0.81212 0.86092 0.86541 0.0
H1658 H 0.82215 0.06878 0.20882 0.0
H1659 H 0.84774 0.08836 0.21068 0.0
H1660 H 0.81444 0.13309 0.19896 0.0
H1661 H 0.78907 0.11368 0.19646 0.0
H1662 H 0.84336 0.13371 0.17765 0.0
H1663 H 0.82939 0.12426 0.24355 0.0
H1664 H 0.82444 0.10628 0.27207 0.0
H1665 H 0.87691 0.08574 0.26812 0.0
H1666 H 0.88209 0.10344 0.23941 0.0
H1667 H 0.88725 0.20911 0.20637 0.0
H1668 H 0.8672 0.18408 0.20656 0.0
H1669 H 0.91108 0.14835 0.21116 0.0
H1670 H 0.93142 0.17354 0.21124 0.0
H1671 H 0.88074 0.13973 0.2347 0.0
H1672 H 0.89536 0.15202 0.17034 0.0
H1673 H 0.9 0.17099 0.14252 0.0
H1674 H 0.84579 0.18668 0.14395 0.0
H1675 H 0.84089 0.16801 0.17199 0.0
C1676 C 0.82033 0.08279 0.20658 0.0
C1677 C 0.80357 0.08969 0.20259 0.0
C1678 C 0.83492 0.09396 0.20779 0.0
C1679 C 0.83295 0.11219 0.20507 0.0
C1680 C 0.81625 0.11907 0.20113 0.0
C1681 C 0.80172 0.10796 0.1999 0.0
C1682 C 0.84822 0.12426 0.20586 0.0
C1683 C 0.85147 0.13506 0.19016 0.0
C1684 C 0.85916 0.12563 0.22196 0.0
C1685 C 0.85605 0.115 0.23921 0.0
C1686 C 0.83982 0.11579 0.24866 0.0
C1687 C 0.83698 0.10567 0.26488 0.0
C1688 C 0.85033 0.09483 0.27187 0.0
C1689 C 0.86656 0.09412 0.26267 0.0
C1690 C 0.86946 0.10419 0.24643 0.0
C1691 C 0.89267 0.19598 0.20784 0.0
C1692 C 0.91092 0.19329 0.20881 0.0
C1693 C 0.88119 0.18168 0.2078 0.0
C1694 C 0.88771 0.16442 0.20869 0.0
C1695 C 0.90586 0.16162 0.21043 0.0
C1696 C 0.91742 0.17597 0.21035 0.0
C1697 C 0.87541 0.14946 0.20673 0.0
C1698 C 0.87278 0.13813 0.22211 0.0
C1699 C 0.86496 0.1476 0.19036 0.0
C1700 C 0.86779 0.1587 0.17335 0.0
C1701 C 0.88445 0.15961 0.16481 0.0
C1702 C 0.88713 0.1703 0.14899 0.0
C1703 C 0.8732 0.18006 0.14149 0.0
C1704 C 0.85656 0.17912 0.14978 0.0
C1705 C 0.85383 0.16846 0.16562 0.0
H1706 H 0.8753 0.18833 0.12924 0.0
H1707 H 0.84811 0.08701 0.28443 0.0
H1708 H 0.11158 0.20457 0.80374 0.0
H1709 H 0.13128 0.18002 0.79753 0.0
H1710 H 0.08964 0.15226 0.76891 0.0
H1711 H 0.0697 0.17719 0.77473 0.0
H1712 H 0.10895 0.13116 0.79461 0.0
H1713 H 0.12028 0.16823 0.74224 0.0
H1714 H 0.12581 0.19616 0.72546 0.0
H1715 H 0.17394 0.20301 0.75621 0.0
H1716 H 0.16857 0.17526 0.77341 0.0
H1717 H 0.18152 0.07125 0.77483 0.0
H1718 H 0.1557 0.08997 0.76934 0.0
H1719 H 0.18128 0.13286 0.79832 0.0
H1720 H 0.20672 0.11428 0.80434 0.0
H1721 H 0.16644 0.14276 0.76391 0.0
H1722 H 0.15113 0.10911 0.82044 0.0
H1723 H 0.14536 0.08153 0.83782 0.0
H1724 H 0.10449 0.06824 0.79853 0.0
H1725 H 0.1102 0.09566 0.78077 0.0
C1726 C 0.10661 0.19341 0.79585 0.0
C1727 C 0.08913 0.19298 0.78945 0.0
C1728 C 0.11789 0.17934 0.79239 0.0
C1729 C 0.11198 0.16448 0.78249 0.0
C1730 C 0.09443 0.1637 0.77647 0.0
C1731 C 0.08308 0.1779 0.77987 0.0
C1732 C 0.12441 0.14988 0.77887 0.0
C1733 C 0.12134 0.13349 0.78744 0.0
C1734 C 0.14057 0.15299 0.76957 0.0
C1735 C 0.14398 0.16966 0.75917 0.0
C1736 C 0.13199 0.17574 0.74552 0.0
C1737 C 0.1351 0.19154 0.73592 0.0
C1738 C 0.15021 0.20136 0.73978 0.0
C1739 C 0.16225 0.19538 0.75323 0.0
C1740 C 0.15919 0.1796 0.76288 0.0
C1741 C 0.18157 0.08462 0.78016 0.0
C1742 C 0.19626 0.0913 0.78991 0.0
C1743 C 0.16686 0.0953 0.77692 0.0
C1744 C 0.16666 0.1128 0.78335 0.0
C1745 C 0.18127 0.11945 0.79305 0.0
C1746 C 0.19585 0.10881 0.7964 0.0
C1747 C 0.15129 0.1244 0.7804 0.0
C1748 C 0.15384 0.14022 0.77055 0.0
C1749 C 0.13467 0.12072 0.78845 0.0
C1750 C 0.13125 0.10429 0.79914 0.0
C1751 C 0.14103 0.10023 0.81541 0.0
C1752 C 0.13775 0.08464 0.82535 0.0
C1753 C 0.12461 0.07311 0.81924 0.0
C1754 C 0.1147 0.07716 0.80321 0.0
C1755 C 0.11794 0.09272 0.79321 0.0
H1756 H 0.12209 0.06105 0.82696 0.0
H1757 H 0.15259 0.21359 0.73234 0.0
H1758 H 0.20581 0.88643 0.19452 0.0
H1759 H 0.18005 0.86727 0.1955 0.0
H1760 H 0.14837 0.91056 0.2155 0.0
H1761 H 0.17428 0.93002 0.2144 0.0
H1762 H 0.14493 0.87474 0.23522 0.0
H1763 H 0.14095 0.903 0.17482 0.0
H1764 H 0.15258 0.91391 0.1445 0.0
H1765 H 0.16668 0.86114 0.12861 0.0
H1766 H 0.15539 0.84995 0.15898 0.0
H1767 H 0.07119 0.81709 0.21926 0.0
H1768 H 0.08957 0.84358 0.22061 0.0
H1769 H 0.12896 0.81756 0.18676 0.0
H1770 H 0.11044 0.79151 0.18462 0.0
H1771 H 0.12392 0.84987 0.17449 0.0
H1772 H 0.13265 0.82211 0.23539 0.0
H1773 H 0.12317 0.81015 0.26613 0.0
H1774 H 0.10188 0.8606 0.2814 0.0
H1775 H 0.11105 0.8728 0.25063 0.0
C1776 C 0.19342 0.89183 0.19936 0.0
C1777 C 0.19201 0.90966 0.20447 0.0
C1778 C 0.17873 0.88091 0.19982 0.0
C1779 C 0.16239 0.88757 0.20551 0.0
C1780 C 0.16093 0.90525 0.21108 0.0
C1781 C 0.17565 0.91631 0.21037 0.0
C1782 C 0.1469 0.87589 0.20494 0.0
C1783 C 0.13996 0.86957 0.22197 0.0
C1784 C 0.14078 0.86901 0.18763 0.0
C1785 C 0.14742 0.87566 0.16924 0.0
C1786 C 0.14665 0.89374 0.16492 0.0
C1787 C 0.15316 0.89997 0.14772 0.0
C1788 C 0.16038 0.88823 0.13465 0.0
C1789 C 0.16108 0.87022 0.13875 0.0
C1790 C 0.1546 0.86392 0.15595 0.0
C1791 C 0.08371 0.81709 0.21199 0.0
C1792 C 0.0894 0.80213 0.20194 0.0
C1793 C 0.09425 0.83218 0.21291 0.0
C1794 C 0.1107 0.83249 0.20391 0.0
C1795 C 0.11632 0.81762 0.19382 0.0
C1796 C 0.1058 0.80263 0.1928 0.0
C1797 C 0.12224 0.8482 0.20481 0.0
C1798 C 0.12849 0.85529 0.18778 0.0
C1799 C 0.12783 0.85562 0.22215 0.0
C1800 C 0.12232 0.8483 0.24063 0.0
C1801 C 0.12581 0.8306 0.24524 0.0
C1802 C 0.12052 0.82379 0.26268 0.0
C1803 C 0.11187 0.83459 0.27568 0.0
C1804 C 0.10854 0.85224 0.2713 0.0
C1805 C 0.11378 0.85911 0.25387 0.0
H1806 H 0.10779 0.82929 0.28918 0.0
H1807 H 0.16542 0.89308 0.12133 0.0
H1808 H 0.17929 0.52061 0.23492 0.0
H1809 H 0.16372 0.54549 0.22066 0.0
H1810 H 0.18479 0.58017 0.26327 0.0
H1811 H 0.19998 0.55529 0.27791 0.0
H1812 H 0.14982 0.58369 0.25991 0.0
H1813 H 0.19917 0.58235 0.21785 0.0
H1814 H 0.2202 0.56877 0.19572 0.0
H1815 H 0.17798 0.55595 0.15795 0.0
H1816 H 0.15665 0.56924 0.17999 0.0
H1817 H 0.11703 0.66267 0.22275 0.0
H1818 H 0.13795 0.64008 0.23242 0.0
H1819 H 0.11753 0.60491 0.18991 0.0
H1820 H 0.09702 0.6278 0.17952 0.0
H1821 H 0.15298 0.60208 0.19276 0.0
H1822 H 0.10365 0.60167 0.23505 0.0
H1823 H 0.08215 0.61469 0.25706 0.0
H1824 H 0.12396 0.62992 0.29434 0.0
H1825 H 0.14574 0.6172 0.27241 0.0
C1826 C 0.18065 0.53355 0.24121 0.0
C1827 C 0.19081 0.53597 0.25759 0.0
C1828 C 0.17189 0.54778 0.23293 0.0
C1829 C 0.17319 0.56469 0.24084 0.0
C1830 C 0.18366 0.56722 0.25692 0.0
C1831 C 0.19243 0.55302 0.26518 0.0
C1832 C 0.16266 0.57949 0.23317 0.0
C1833 C 0.15075 0.58791 0.2453 0.0
C1834 C 0.16348 0.58461 0.21398 0.0
C1835 C 0.17629 0.57665 0.20067 0.0
C1836 C 0.19435 0.57651 0.2049 0.0
C1837 C 0.20633 0.56889 0.19236 0.0
C1838 C 0.20043 0.56147 0.17546 0.0
C1839 C 0.18253 0.56169 0.17105 0.0
C1840 C 0.17049 0.56928 0.18356 0.0
C1841 C 0.11721 0.6503 0.21514 0.0
C1842 C 0.10524 0.64702 0.20043 0.0
C1843 C 0.12908 0.63732 0.22082 0.0
C1844 C 0.12908 0.62071 0.2121 0.0
C1845 C 0.11767 0.61761 0.1969 0.0
C1846 C 0.10584 0.63064 0.19112 0.0
C1847 C 0.14028 0.60632 0.21955 0.0
C1848 C 0.15219 0.59792 0.20739 0.0
C1849 C 0.13942 0.6011 0.23872 0.0
C1850 C 0.12634 0.60864 0.252 0.0
C1851 C 0.10827 0.60791 0.24788 0.0
C1852 C 0.09603 0.61521 0.26035 0.0
C1853 C 0.10169 0.62316 0.27707 0.0
C1854 C 0.1196 0.62378 0.28137 0.0
C1855 C 0.1319 0.61651 0.26894 0.0
H1856 H 0.09219 0.62881 0.2867 0.0
H1857 H 0.20972 0.55558 0.16576 0.0
H1858 H 0.55537 0.79286 0.72426 0.0
H1859 H 0.57909 0.80991 0.73898 0.0
H1860 H 0.54076 0.84102 0.76903 0.0
H1861 H 0.51704 0.82406 0.7544 0.0
H1862 H 0.5656 0.86086 0.7485 0.0
H1863 H 0.56407 0.81298 0.79314 0.0
H1864 H 0.56477 0.78175 0.80279 0.0
H1865 H 0.61634 0.77615 0.77891 0.0
H1866 H 0.61585 0.80729 0.76887 0.0
H1867 H 0.6243 0.91183 0.80227 0.0
H1868 H 0.60046 0.89192 0.79314 0.0
H1869 H 0.63852 0.8543 0.77257 0.0
H1870 H 0.66237 0.87389 0.78252 0.0
H1871 H 0.61341 0.83729 0.7889 0.0
H1872 H 0.61534 0.88332 0.74265 0.0
H1873 H 0.61544 0.91397 0.73102 0.0
H1874 H 0.56427 0.92238 0.75495 0.0
H1875 H 0.56396 0.89184 0.76695 0.0
C1876 C 0.55205 0.80322 0.73416 0.0
C1877 C 0.5344 0.80714 0.73823 0.0
C1878 C 0.56557 0.81287 0.74261 0.0
C1879 C 0.56163 0.82666 0.75511 0.0
C1880 C 0.54403 0.83038 0.75945 0.0
C1881 C 0.53053 0.82062 0.75119 0.0
C1882 C 0.57578 0.83796 0.76273 0.0
C1883 C 0.57592 0.8558 0.75759 0.0
C1884 C 0.58951 0.83114 0.774 0.0
C1885 C 0.58985 0.81243 0.78009 0.0
C1886 C 0.5755 0.80505 0.7898 0.0
C1887 C 0.57587 0.78737 0.79537 0.0
C1888 C 0.59057 0.77696 0.79142 0.0
C1889 C 0.60495 0.78422 0.78194 0.0
C1890 C 0.60464 0.80189 0.77632 0.0
C1891 C 0.62751 0.89926 0.79587 0.0
C1892 C 0.64509 0.89438 0.79295 0.0
C1893 C 0.61392 0.88793 0.79059 0.0
C1894 C 0.61767 0.87175 0.78178 0.0
C1895 C 0.63528 0.8667 0.7793 0.0
C1896 C 0.64889 0.87789 0.78494 0.0
C1897 C 0.60325 0.86031 0.77474 0.0
C1898 C 0.60307 0.84242 0.77989 0.0
C1899 C 0.58961 0.86701 0.76315 0.0
C1900 C 0.58971 0.88535 0.75586 0.0
C1901 C 0.60416 0.89175 0.74554 0.0
C1902 C 0.60425 0.90909 0.73887 0.0
C1903 C 0.58989 0.92013 0.74229 0.0
C1904 C 0.57539 0.91382 0.75234 0.0
C1905 C 0.57525 0.89649 0.75907 0.0
H1906 H 0.58998 0.93355 0.73711 0.0
H1907 H 0.59083 0.76328 0.79575 0.0
H1908 H 0.91033 0.3693 0.19611 0.0
H1909 H 0.89129 0.39342 0.20627 0.0
H1910 H 0.84962 0.35641 0.21772 0.0
H1911 H 0.86855 0.33212 0.20722 0.0
H1912 H 0.83798 0.38838 0.20063 0.0
H1913 H 0.8731 0.36892 0.25308 0.0
H1914 H 0.90073 0.3609 0.26909 0.0
H1915 H 0.92064 0.4132 0.26011 0.0
H1916 H 0.89321 0.42145 0.24377 0.0
H1917 H 0.78953 0.44574 0.26192 0.0
H1918 H 0.80496 0.42085 0.24749 0.0
H1919 H 0.85145 0.45288 0.24131 0.0
H1920 H 0.83647 0.47747 0.25646 0.0
H1921 H 0.85959 0.42219 0.25592 0.0
H1922 H 0.82496 0.44192 0.20329 0.0
H1923 H 0.79775 0.45014 0.18656 0.0
H1924 H 0.77719 0.39805 0.19521 0.0
H1925 H 0.8042 0.38959 0.21223 0.0
C1926 C 0.89699 0.36631 0.2004 0.0
C1927 C 0.89095 0.3488 0.20096 0.0
C1928 C 0.88618 0.38009 0.20631 0.0
C1929 C 0.86915 0.37663 0.21293 0.0
C1930 C 0.86275 0.3593 0.2127 0.0
C1931 C 0.87361 0.34546 0.20685 0.0
C1932 C 0.85857 0.39101 0.22128 0.0
C1933 C 0.84254 0.39567 0.21286 0.0
C1934 C 0.86473 0.40062 0.23704 0.0
C1935 C 0.88116 0.39575 0.24705 0.0
C1936 C 0.88342 0.37867 0.2544 0.0
C1937 C 0.89904 0.37409 0.26355 0.0
C1938 C 0.91245 0.38652 0.26558 0.0
C1939 C 0.91025 0.40357 0.25851 0.0
C1940 C 0.89466 0.40822 0.24931 0.0
C1941 C 0.80306 0.44746 0.25753 0.0
C1942 C 0.81174 0.46363 0.26033 0.0
C1943 C 0.81179 0.43328 0.2491 0.0
C1944 C 0.82931 0.43506 0.24316 0.0
C1945 C 0.83792 0.45123 0.24573 0.0
C1946 C 0.82925 0.46534 0.25424 0.0
C1947 C 0.83906 0.41989 0.23511 0.0
C1948 C 0.85495 0.41497 0.24368 0.0
C1949 C 0.83277 0.41013 0.21946 0.0
C1950 C 0.81653 0.41518 0.20921 0.0
C1951 C 0.81458 0.43226 0.20177 0.0
C1952 C 0.7992 0.43696 0.1922 0.0
C1953 C 0.78573 0.42464 0.18987 0.0
C1954 C 0.78762 0.40759 0.19705 0.0
C1955 C 0.80297 0.40283 0.20665 0.0
H1956 H 0.77384 0.4283 0.18245 0.0
H1957 H 0.92454 0.38294 0.27266 0.0
H1958 H 0.43697 0.20608 0.71867 0.0
H1959 H 0.41329 0.19006 0.73438 0.0
H1960 H 0.44958 0.17243 0.7772 0.0
H1961 H 0.47348 0.1876 0.76107 0.0
H1962 H 0.43163 0.1458 0.76463 0.0
H1963 H 0.41686 0.2034 0.78649 0.0
H1964 H 0.41029 0.23514 0.78395 0.0
H1965 H 0.36531 0.22369 0.74948 0.0
H1966 H 0.37175 0.19188 0.75159 0.0
H1967 H 0.36585 0.10497 0.82029 0.0
H1968 H 0.38836 0.12625 0.81091 0.0
H1969 H 0.35737 0.14085 0.7624 0.0
H1970 H 0.33498 0.11938 0.7714 0.0
H1971 H 0.37278 0.16986 0.78037 0.0
H1972 H 0.38949 0.11241 0.75681 0.0
H1973 H 0.39613 0.08072 0.75985 0.0
H1974 H 0.43795 0.09246 0.79855 0.0
H1975 H 0.43137 0.12423 0.79595 0.0
C1976 C 0.43992 0.19882 0.73145 0.0
C1977 C 0.45717 0.1981 0.73855 0.0
C1978 C 0.4263 0.18984 0.74056 0.0
C1979 C 0.42961 0.18015 0.75708 0.0
C1980 C 0.4467 0.17985 0.7645 0.0
C1981 C 0.46034 0.1887 0.75534 0.0
C1982 C 0.4156 0.16923 0.76579 0.0
C1983 C 0.41889 0.15118 0.76841 0.0
C1984 C 0.39883 0.17612 0.77035 0.0
C1985 C 0.39489 0.19525 0.76906 0.0
C1986 C 0.40565 0.20765 0.77824 0.0
C1987 C 0.40193 0.22566 0.7769 0.0
C1988 C 0.38741 0.23143 0.76653 0.0
C1989 C 0.37656 0.2192 0.7575 0.0
C1990 C 0.38023 0.20118 0.75878 0.0
C1991 C 0.36382 0.11268 0.80761 0.0
C1992 C 0.34867 0.11034 0.79651 0.0
C1993 C 0.37664 0.12491 0.80235 0.0
C1994 C 0.37456 0.135 0.78589 0.0
C1995 C 0.35917 0.13323 0.7752 0.0
C1996 C 0.34637 0.12096 0.7804 0.0
C1997 C 0.38891 0.14656 0.77912 0.0
C1998 C 0.38564 0.16464 0.77678 0.0
C1999 C 0.40576 0.13975 0.7749 0.0
C2000 C 0.40981 0.12067 0.77635 0.0
C2001 C 0.40001 0.10822 0.76609 0.0
C2002 C 0.40377 0.09025 0.76771 0.0
C2003 C 0.41742 0.08457 0.77943 0.0
C2004 C 0.42736 0.09687 0.78951 0.0
C2005 C 0.42362 0.11486 0.78796 0.0
H2006 H 0.42032 0.07065 0.78067 0.0
H2007 H 0.38455 0.24537 0.76551 0.0
H2008 H 0.19671 0.46523 0.76394 0.0
H2009 H 0.18057 0.44123 0.77923 0.0
H2010 H 0.1657 0.42095 0.72462 0.0
H2011 H 0.18104 0.44521 0.70932 0.0
H2012 H 0.13812 0.42286 0.74725 0.0
H2013 H 0.19763 0.40107 0.75228 0.0
H2014 H 0.2288 0.40248 0.76169 0.0
H2015 H 0.21366 0.40742 0.81985 0.0
H2016 H 0.18238 0.40626 0.81076 0.0
H2017 H 0.1064 0.33867 0.76632 0.0
H2018 H 0.12549 0.36256 0.75598 0.0
H2019 H 0.13315 0.37854 0.81383 0.0
H2020 H 0.11442 0.35415 0.82443 0.0
H2021 H 0.16389 0.38033 0.79274 0.0
H2022 H 0.10452 0.40048 0.78793 0.0
H2023 H 0.07334 0.39876 0.77864 0.0
H2024 H 0.08823 0.39713 0.72019 0.0
H2025 H 0.11952 0.39857 0.72914 0.0
C2026 C 0.18998 0.45566 0.7552 0.0
C2027 C 0.19022 0.45714 0.73539 0.0
C2028 C 0.1809 0.44186 0.76396 0.0
C2029 C 0.17203 0.42923 0.75306 0.0
C2030 C 0.17248 0.43054 0.73331 0.0
C2031 C 0.18144 0.44433 0.72457 0.0
C2032 C 0.16159 0.41502 0.76205 0.0
C2033 C 0.14382 0.41345 0.75704 0.0
C2034 C 0.16887 0.40314 0.77534 0.0
C2035 C 0.18767 0.40378 0.78082 0.0
C2036 C 0.20095 0.4026 0.76706 0.0
C2037 C 0.21863 0.40333 0.77234 0.0
C2038 C 0.22321 0.40509 0.79135 0.0
C2039 C 0.2101 0.40608 0.80513 0.0
C2040 C 0.19239 0.40538 0.79992 0.0
C2041 C 0.1124 0.34701 0.77692 0.0
C2042 C 0.10884 0.34452 0.79622 0.0
C2043 C 0.12318 0.36077 0.77096 0.0
C2044 C 0.1305 0.37246 0.78413 0.0
C2045 C 0.12753 0.3697 0.80345 0.0
C2046 C 0.11672 0.35587 0.80945 0.0
C2047 C 0.14061 0.38794 0.77748 0.0
C2048 C 0.15822 0.38981 0.78302 0.0
C2049 C 0.13321 0.40017 0.76467 0.0
C2050 C 0.11438 0.39951 0.75922 0.0
C2051 C 0.10115 0.39964 0.7731 0.0
C2052 C 0.08346 0.39873 0.76789 0.0
C2053 C 0.07881 0.39781 0.74884 0.0
C2054 C 0.09185 0.39784 0.73494 0.0
C2055 C 0.10957 0.39872 0.74007 0.0
H2056 H 0.0651 0.39709 0.74483 0.0
H2057 H 0.23691 0.40565 0.79541 0.0
H2058 H 0.33125 0.88025 0.22831 0.0
H2059 H 0.35367 0.85972 0.23925 0.0
H2060 H 0.38718 0.87462 0.19279 0.0
H2061 H 0.36441 0.89469 0.18118 0.0
H2062 H 0.3888 0.83945 0.19932 0.0
H2063 H 0.39334 0.89239 0.23605 0.0
H2064 H 0.38247 0.91645 0.25634 0.0
H2065 H 0.36753 0.87887 0.29875 0.0
H2066 H 0.37809 0.85455 0.27858 0.0
H2067 H 0.4707 0.81324 0.24018 0.0
H2068 H 0.4459 0.82831 0.22535 0.0
H2069 H 0.41245 0.81287 0.27167 0.0
H2070 H 0.43718 0.79763 0.28653 0.0
H2071 H 0.41046 0.84765 0.2648 0.0
H2072 H 0.40746 0.79462 0.22812 0.0
H2073 H 0.41893 0.77098 0.20765 0.0
H2074 H 0.43189 0.80909 0.16503 0.0
H2075 H 0.42072 0.833 0.18537 0.0
C2076 C 0.34322 0.87894 0.22016 0.0
C2077 C 0.34605 0.8892 0.20389 0.0
C2078 C 0.35611 0.86731 0.22656 0.0
C2079 C 0.3722 0.86586 0.21701 0.0
C2080 C 0.37488 0.87561 0.20042 0.0
C2081 C 0.36193 0.88721 0.19393 0.0
C2082 C 0.38647 0.85473 0.22482 0.0
C2083 C 0.39369 0.84134 0.21356 0.0
C2084 C 0.39261 0.85703 0.24352 0.0
C2085 C 0.38635 0.87164 0.25572 0.0
C2086 C 0.38762 0.88925 0.24964 0.0
C2087 C 0.38153 0.90293 0.26113 0.0
C2088 C 0.37427 0.89919 0.2788 0.0
C2089 C 0.37313 0.88175 0.28505 0.0
C2090 C 0.37918 0.86801 0.2736 0.0
C2091 C 0.45798 0.8127 0.247 0.0
C2092 C 0.45591 0.80429 0.26457 0.0
C2093 C 0.44382 0.82135 0.23852 0.0
C2094 C 0.42732 0.82165 0.24738 0.0
C2095 C 0.4251 0.81283 0.26463 0.0
C2096 C 0.43924 0.80419 0.27313 0.0
C2097 C 0.41274 0.83224 0.23938 0.0
C2098 C 0.40551 0.84564 0.2506 0.0
C2099 C 0.40671 0.82998 0.22064 0.0
C2100 C 0.41339 0.81562 0.20835 0.0
C2101 C 0.41289 0.79798 0.21445 0.0
C2102 C 0.41931 0.78453 0.20286 0.0
C2103 C 0.42617 0.78853 0.18507 0.0
C2104 C 0.42659 0.806 0.17882 0.0
C2105 C 0.42019 0.81951 0.19037 0.0
H2106 H 0.43114 0.7781 0.17611 0.0
H2107 H 0.36957 0.9098 0.28768 0.0
H2108 H 0.8243 0.52378 0.75435 0.0
H2109 H 0.83853 0.54878 0.76969 0.0
H2110 H 0.80024 0.58399 0.74509 0.0
H2111 H 0.78636 0.55894 0.72913 0.0
H2112 H 0.83073 0.59714 0.74025 0.0
H2113 H 0.80156 0.57401 0.79405 0.0
H2114 H 0.79182 0.55154 0.81692 0.0
H2115 H 0.84542 0.54172 0.8327 0.0
H2116 H 0.85551 0.56396 0.80972 0.0
H2117 H 0.86729 0.66894 0.79264 0.0
H2118 H 0.84609 0.64635 0.78328 0.0
H2119 H 0.88516 0.60603 0.79216 0.0
H2120 H 0.90666 0.62846 0.80078 0.0
H2121 H 0.85083 0.59779 0.80688 0.0
H2122 H 0.87904 0.61915 0.74961 0.0
H2123 H 0.88784 0.64239 0.72715 0.0
H2124 H 0.83373 0.65654 0.71899 0.0
H2125 H 0.82463 0.63354 0.74163 0.0
C2126 C 0.81875 0.53682 0.7525 0.0
C2127 C 0.80422 0.53946 0.74062 0.0
C2128 C 0.82684 0.55112 0.76134 0.0
C2129 C 0.82032 0.56829 0.75882 0.0
C2130 C 0.80551 0.57087 0.74728 0.0
C2131 C 0.79758 0.55659 0.73819 0.0
C2132 C 0.8298 0.5836 0.76703 0.0
C2133 C 0.83474 0.59742 0.75494 0.0
C2134 C 0.83529 0.58396 0.78615 0.0
C2135 C 0.8293 0.57059 0.80005 0.0
C2136 C 0.81128 0.56698 0.8023 0.0
C2137 C 0.8057 0.55429 0.8153 0.0
C2138 C 0.818 0.54519 0.82623 0.0
C2139 C 0.83591 0.54878 0.82421 0.0
C2140 C 0.84156 0.56144 0.81122 0.0
C2141 C 0.87144 0.65529 0.7925 0.0
C2142 C 0.88877 0.65058 0.79736 0.0
C2143 C 0.85925 0.6424 0.78731 0.0
C2144 C 0.86412 0.62457 0.78702 0.0
C2145 C 0.88115 0.61974 0.79244 0.0
C2146 C 0.89341 0.63261 0.79743 0.0
C2147 C 0.85183 0.61097 0.78001 0.0
C2148 C 0.84645 0.59753 0.7923 0.0
C2149 C 0.84571 0.61106 0.76117 0.0
C2150 C 0.85118 0.62478 0.74747 0.0
C2151 C 0.86904 0.62732 0.74314 0.0
C2152 C 0.87408 0.64043 0.73036 0.0
C2153 C 0.86136 0.65097 0.72169 0.0
C2154 C 0.84357 0.64839 0.72574 0.0
C2155 C 0.83846 0.63532 0.73854 0.0
H2156 H 0.86528 0.66111 0.7118 0.0
H2157 H 0.81365 0.53537 0.83629 0.0
H2158 H 0.63417 0.10303 0.17786 0.0
H2159 H 0.61106 0.12323 0.18808 0.0
H2160 H 0.63859 0.13189 0.24051 0.0
H2161 H 0.66107 0.1109 0.23098 0.0
H2162 H 0.60598 0.12644 0.24764 0.0
H2163 H 0.63674 0.16341 0.20392 0.0
H2164 H 0.65009 0.17173 0.17347 0.0
H2165 H 0.59979 0.16759 0.14636 0.0
H2166 H 0.58617 0.15901 0.17661 0.0
H2167 H 0.55585 0.19819 0.28034 0.0
H2168 H 0.58097 0.1831 0.26598 0.0
H2169 H 0.54788 0.16509 0.2205 0.0
H2170 H 0.52265 0.18017 0.23481 0.0
H2171 H 0.58318 0.17623 0.20933 0.0
H2172 H 0.55322 0.13814 0.25365 0.0
H2173 H 0.54031 0.13089 0.28463 0.0
H2174 H 0.59053 0.13833 0.3111 0.0
H2175 H 0.60367 0.14592 0.28029 0.0
C2176 C 0.63527 0.10913 0.19162 0.0
C2177 C 0.64953 0.10527 0.20358 0.0
C2178 C 0.62215 0.1209 0.19734 0.0
C2179 C 0.62317 0.12927 0.21499 0.0
C2180 C 0.63752 0.12565 0.2268 0.0
C2181 C 0.6505 0.11375 0.22122 0.0
C2182 C 0.60886 0.14104 0.22168 0.0
C2183 C 0.60125 0.13748 0.23934 0.0
C2184 C 0.60232 0.15524 0.21072 0.0
C2185 C 0.61047 0.1604 0.1925 0.0
C2186 C 0.62855 0.16414 0.19144 0.0
C2187 C 0.63616 0.16892 0.17422 0.0
C2188 C 0.62581 0.17014 0.15798 0.0
C2189 C 0.6078 0.16662 0.15895 0.0
C2190 C 0.60013 0.16181 0.17613 0.0
C2191 C 0.55403 0.19135 0.26706 0.0
C2192 C 0.53731 0.19023 0.25874 0.0
C2193 C 0.56835 0.18271 0.25892 0.0
C2194 C 0.5662 0.17291 0.24228 0.0
C2195 C 0.54976 0.17261 0.23334 0.0
C2196 C 0.53538 0.1811 0.24159 0.0
C2197 C 0.58064 0.16164 0.23524 0.0
C2198 C 0.58812 0.16523 0.21756 0.0
C2199 C 0.58721 0.14755 0.24622 0.0
C2200 C 0.57938 0.14278 0.26471 0.0
C2201 C 0.56147 0.13837 0.2661 0.0
C2202 C 0.55412 0.13418 0.28362 0.0
C2203 C 0.56458 0.13419 0.29983 0.0
C2204 C 0.58243 0.13835 0.29854 0.0
C2205 C 0.58984 0.14259 0.28105 0.0
H2206 H 0.55887 0.13094 0.31339 0.0
H2207 H 0.63172 0.17385 0.14467 0.0
H2208 H 0.70923 0.04535 0.74608 0.0
H2209 H 0.69255 0.06936 0.73138 0.0
H2210 H 0.65596 0.06863 0.77791 0.0
H2211 H 0.67212 0.04439 0.7923 0.0
H2212 H 0.6392 0.06845 0.74468 0.0
H2213 H 0.68669 0.1012 0.7733 0.0
H2214 H 0.71773 0.10878 0.7791 0.0
H2215 H 0.72482 0.12019 0.72021 0.0
H2216 H 0.69386 0.11245 0.71402 0.0
H2217 H 0.59277 0.14781 0.73828 0.0
H2218 H 0.6129 0.12458 0.74822 0.0
H2219 H 0.64192 0.13016 0.69626 0.0
H2220 H 0.62155 0.1533 0.68596 0.0
H2221 H 0.66357 0.12712 0.72812 0.0
H2222 H 0.61547 0.09653 0.69997 0.0
H2223 H 0.58434 0.0893 0.69428 0.0
H2224 H 0.57844 0.07372 0.75222 0.0
H2225 H 0.60949 0.08112 0.75834 0.0
C2226 C 0.69765 0.05034 0.75317 0.0
C2227 C 0.69206 0.043 0.77041 0.0
C2228 C 0.68821 0.06414 0.74483 0.0
C2229 C 0.67306 0.07082 0.75361 0.0
C2230 C 0.66762 0.06367 0.7709 0.0
C2231 C 0.677 0.04993 0.77922 0.0
C2232 C 0.66235 0.0848 0.74458 0.0
C2233 C 0.64451 0.08133 0.74122 0.0
C2234 C 0.66942 0.10138 0.73945 0.0
C2235 C 0.68802 0.10604 0.74316 0.0
C2236 C 0.69491 0.10517 0.76156 0.0
C2237 C 0.71248 0.10953 0.76493 0.0
C2238 C 0.72326 0.11491 0.75003 0.0
C2239 C 0.71647 0.11599 0.73173 0.0
C2240 C 0.69891 0.11163 0.72829 0.0
C2241 C 0.60331 0.144 0.72884 0.0
C2242 C 0.60541 0.15227 0.71121 0.0
C2243 C 0.61486 0.13079 0.7346 0.0
C2244 C 0.62875 0.12553 0.72286 0.0
C2245 C 0.63125 0.13405 0.70549 0.0
C2246 C 0.61963 0.14728 0.69967 0.0
C2247 C 0.64037 0.11088 0.72877 0.0
C2248 C 0.65834 0.11418 0.73144 0.0
C2249 C 0.63345 0.09409 0.73328 0.0
C2250 C 0.61479 0.08951 0.72964 0.0
C2251 C 0.60751 0.09169 0.71154 0.0
C2252 C 0.58988 0.08754 0.70823 0.0
C2253 C 0.57941 0.08109 0.72289 0.0
C2254 C 0.58657 0.07873 0.74088 0.0
C2255 C 0.60419 0.08288 0.74427 0.0
H2256 H 0.56576 0.07788 0.7203 0.0
H2257 H 0.73686 0.11828 0.75266 0.0
H2258 H 0.172 0.36767 0.28998 0.0
H2259 H 0.14821 0.34756 0.28123 0.0
H2260 H 0.11016 0.3883 0.29292 0.0
H2261 H 0.1338 0.40829 0.30221 0.0
H2262 H 0.099 0.35632 0.30544 0.0
H2263 H 0.12377 0.3807 0.24831 0.0
H2264 H 0.14766 0.38739 0.2259 0.0
H2265 H 0.15803 0.33209 0.21924 0.0
H2266 H 0.13433 0.32509 0.24183 0.0
H2267 H 0.02572 0.33355 0.2497 0.0
H2268 H 0.05124 0.34716 0.26452 0.0
H2269 H 0.08311 0.30248 0.24874 0.0
H2270 H 0.05749 0.28865 0.23393 0.0
H2271 H 0.09891 0.33311 0.23995 0.0
H2272 H 0.07153 0.30872 0.29456 0.0
H2273 H 0.04724 0.30241 0.31658 0.0
H2274 H 0.04141 0.35771 0.32788 0.0
H2275 H 0.0655 0.36439 0.3057 0.0
C2276 C 0.15854 0.37224 0.291 0.0
C2277 C 0.15478 0.38962 0.29663 0.0
C2278 C 0.14499 0.36079 0.28586 0.0
C2279 C 0.12745 0.36653 0.2862 0.0
C2280 C 0.12361 0.38363 0.2925 0.0
C2281 C 0.13714 0.39508 0.29763 0.0
C2282 C 0.11311 0.35508 0.27912 0.0
C2283 C 0.09891 0.35131 0.2911 0.0
C2284 C 0.11324 0.34819 0.26055 0.0
C2285 C 0.12743 0.35238 0.24692 0.0
C2286 C 0.13124 0.36998 0.24218 0.0
C2287 C 0.14473 0.37382 0.22943 0.0
C2288 C 0.15439 0.36017 0.22119 0.0
C2289 C 0.15055 0.34265 0.22566 0.0
C2290 C 0.13709 0.33873 0.23843 0.0
C2291 C 0.03807 0.32644 0.24967 0.0
C2292 C 0.03955 0.30996 0.24072 0.0
C2293 C 0.05266 0.33426 0.25814 0.0
C2294 C 0.06903 0.32573 0.25795 0.0
C2295 C 0.07058 0.30926 0.24908 0.0
C2296 C 0.05596 0.30141 0.24058 0.0
C2297 C 0.08464 0.33453 0.26618 0.0
C2298 C 0.09909 0.33785 0.2544 0.0
C2299 C 0.0847 0.34102 0.28491 0.0
C2300 C 0.07025 0.33706 0.29835 0.0
C2301 C 0.06499 0.31955 0.30163 0.0
C2302 C 0.05127 0.3159 0.31416 0.0
C2303 C 0.04277 0.32965 0.3236 0.0
C2304 C 0.048 0.34708 0.32055 0.0
C2305 C 0.0617 0.3508 0.30802 0.0
H2306 H 0.03214 0.3268 0.33329 0.0
H2307 H 0.16483 0.36318 0.21132 0.0
H2308 H 0.28464 0.9391 0.77 0.0
H2309 H 0.29868 0.91361 0.75503 0.0
H2310 H 0.33618 0.94818 0.72816 0.0
H2311 H 0.32177 0.97366 0.74254 0.0
H2312 H 0.32833 0.9229 0.70495 0.0
H2313 H 0.34511 0.92586 0.77032 0.0
H2314 H 0.34009 0.92711 0.80469 0.0
H2315 H 0.31375 0.87709 0.80267 0.0
H2316 H 0.3184 0.87567 0.76821 0.0
H2317 H 0.40373 0.86714 0.69848 0.0
H2318 H 0.38228 0.88996 0.70688 0.0
H2319 H 0.34359 0.84983 0.71839 0.0
H2320 H 0.36496 0.82693 0.70972 0.0
H2321 H 0.34928 0.87575 0.74802 0.0
H2322 H 0.3368 0.87231 0.68173 0.0
H2323 H 0.34424 0.87202 0.64785 0.0
H2324 H 0.36561 0.92423 0.65241 0.0
H2325 H 0.35854 0.92473 0.68639 0.0
C2326 C 0.29574 0.94121 0.76069 0.0
C2327 C 0.3022 0.95828 0.75745 0.0
C2328 C 0.30379 0.92667 0.7522 0.0
C2329 C 0.31871 0.92894 0.74076 0.0
C2330 C 0.32469 0.94608 0.73692 0.0
C2331 C 0.31647 0.96063 0.74513 0.0
C2332 C 0.32876 0.91352 0.73369 0.0
C2333 C 0.33298 0.91265 0.7144 0.0
C2334 C 0.33465 0.89998 0.74595 0.0
C2335 C 0.33192 0.90075 0.76667 0.0
C2336 C 0.33814 0.91519 0.77719 0.0
C2337 C 0.33538 0.91592 0.79668 0.0
C2338 C 0.32656 0.90221 0.80585 0.0
C2339 C 0.32054 0.88771 0.79554 0.0
C2340 C 0.32324 0.88693 0.77603 0.0
C2341 C 0.39061 0.86323 0.70268 0.0
C2342 C 0.38594 0.84534 0.70349 0.0
C2343 C 0.37838 0.87624 0.70737 0.0
C2344 C 0.36138 0.87153 0.71315 0.0
C2345 C 0.35665 0.85367 0.71387 0.0
C2346 C 0.36879 0.84066 0.70887 0.0
C2347 C 0.34895 0.8853 0.71942 0.0
C2348 C 0.34437 0.88588 0.73856 0.0
C2349 C 0.34306 0.89872 0.70711 0.0
C2350 C 0.34727 0.89849 0.68665 0.0
C2351 C 0.34323 0.88367 0.67555 0.0
C2352 C 0.34735 0.88348 0.65632 0.0
C2353 C 0.35542 0.89808 0.64799 0.0
C2354 C 0.35936 0.91292 0.65888 0.0
C2355 C 0.35528 0.91317 0.67812 0.0
H2356 H 0.3586 0.89791 0.6331 0.0
H2357 H 0.32444 0.9028 0.82094 0.0
H2358 H 0.86824 0.59044 0.29764 0.0
H2359 H 0.89122 0.61195 0.28992 0.0
H2360 H 0.85351 0.65416 0.29475 0.0
H2361 H 0.83052 0.6327 0.30289 0.0
H2362 H 0.87438 0.65204 0.25938 0.0
H2363 H 0.88086 0.65352 0.32689 0.0
H2364 H 0.88462 0.64037 0.35847 0.0
H2365 H 0.93365 0.61747 0.34114 0.0
H2366 H 0.93006 0.63027 0.30936 0.0
H2367 H 0.9391 0.71558 0.23807 0.0
H2368 H 0.91466 0.7009 0.25428 0.0
H2369 H 0.94933 0.65827 0.27007 0.0
H2370 H 0.97385 0.6734 0.25475 0.0
H2371 H 0.92799 0.6634 0.29733 0.0
H2372 H 0.92101 0.65699 0.2302 0.0
H2373 H 0.91808 0.66723 0.1973 0.0
H2374 H 0.87122 0.69567 0.21194 0.0
H2375 H 0.87401 0.68577 0.24501 0.0
C2376 C 0.86494 0.60433 0.29722 0.0
C2377 C 0.84769 0.60999 0.30082 0.0
C2378 C 0.87804 0.61657 0.2929 0.0
C2379 C 0.87401 0.63459 0.29185 0.0
C2380 C 0.85682 0.64029 0.29559 0.0
C2381 C 0.84378 0.62808 0.30027 0.0
C2382 C 0.88759 0.64726 0.28573 0.0
C2383 C 0.88596 0.65486 0.2678 0.0
C2384 C 0.90287 0.65038 0.29655 0.0
C2385 C 0.90511 0.64274 0.31569 0.0
C2386 C 0.89237 0.64556 0.32976 0.0
C2387 C 0.89449 0.63819 0.34771 0.0
C2388 C 0.90935 0.62806 0.3518 0.0
C2389 C 0.92214 0.62531 0.33795 0.0
C2390 C 0.92008 0.63264 0.31997 0.0
C2391 C 0.94146 0.7032 0.24527 0.0
C2392 C 0.95825 0.69556 0.2452 0.0
C2393 C 0.92752 0.69477 0.25442 0.0
C2394 C 0.93005 0.67827 0.26307 0.0
C2395 C 0.94702 0.67098 0.26353 0.0
C2396 C 0.96101 0.6796 0.25477 0.0
C2397 C 0.91498 0.66809 0.27075 0.0
C2398 C 0.91632 0.66086 0.28897 0.0
C2399 C 0.89959 0.66493 0.25999 0.0
C2400 C 0.89784 0.67082 0.24011 0.0
C2401 C 0.91015 0.66552 0.22642 0.0
C2402 C 0.90851 0.67125 0.20775 0.0
C2403 C 0.8945 0.68214 0.20255 0.0
C2404 C 0.88208 0.68727 0.216 0.0
C2405 C 0.88368 0.6816 0.23471 0.0
H2406 H 0.89325 0.68656 0.18808 0.0
H2407 H 0.91097 0.62237 0.3657 0.0
H2408 H 0.71246 0.93762 0.23241 0.0
H2409 H 0.69764 0.91256 0.24736 0.0
H2410 H 0.65721 0.94745 0.26817 0.0
H2411 H 0.67211 0.97249 0.25357 0.0
H2412 H 0.665 0.92365 0.29414 0.0
H2413 H 0.65186 0.92285 0.22749 0.0
H2414 H 0.65914 0.92223 0.19356 0.0
H2415 H 0.68605 0.87293 0.20096 0.0
H2416 H 0.67912 0.87339 0.235 0.0
H2417 H 0.59109 0.86769 0.30341 0.0
H2418 H 0.61256 0.8901 0.29456 0.0
H2419 H 0.65006 0.84946 0.2807 0.0
H2420 H 0.62874 0.82688 0.2899 0.0
H2421 H 0.64679 0.87417 0.25273 0.0
H2422 H 0.65626 0.87383 0.31945 0.0
H2423 H 0.64771 0.87489 0.353 0.0
H2424 H 0.6263 0.92676 0.34518 0.0
H2425 H 0.63449 0.92592 0.31149 0.0
C2426 C 0.70047 0.93991 0.2403 0.0
C2427 C 0.6934 0.95697 0.24179 0.0
C2428 C 0.69202 0.92561 0.24881 0.0
C2429 C 0.67617 0.9281 0.25865 0.0
C2430 C 0.66944 0.94522 0.26069 0.0
C2431 C 0.67797 0.95952 0.25236 0.0
C2432 C 0.66607 0.91286 0.26603 0.0
C2433 C 0.66093 0.91288 0.28507 0.0
C2434 C 0.66107 0.89861 0.25429 0.0
C2435 C 0.66515 0.89826 0.23381 0.0
C2436 C 0.65943 0.91194 0.2219 0.0
C2437 C 0.66348 0.91161 0.20265 0.0
C2438 C 0.6731 0.89758 0.19512 0.0
C2439 C 0.67864 0.88381 0.20682 0.0
C2440 C 0.67465 0.8841 0.22609 0.0
C2441 C 0.60401 0.86349 0.29883 0.0
C2442 C 0.60819 0.84547 0.29738 0.0
C2443 C 0.61626 0.87633 0.29374 0.0
C2444 C 0.63294 0.87143 0.28714 0.0
C2445 C 0.63724 0.8535 0.28577 0.0
C2446 C 0.62501 0.84062 0.29094 0.0
C2447 C 0.64552 0.8851 0.28076 0.0
C2448 C 0.65108 0.8848 0.26188 0.0
C2449 C 0.65074 0.89916 0.29261 0.0
C2450 C 0.64588 0.89975 0.3129 0.0
C2451 C 0.64961 0.88541 0.32484 0.0
C2452 C 0.64485 0.88598 0.3439 0.0
C2453 C 0.63644 0.90086 0.35121 0.0
C2454 C 0.63281 0.91523 0.33949 0.0
C2455 C 0.63753 0.91472 0.32042 0.0
H2456 H 0.63276 0.90128 0.36596 0.0
H2457 H 0.67622 0.89734 0.18022 0.0
H2458 H 0.83329 0.37002 0.70115 0.0
H2459 H 0.85614 0.34896 0.7105 0.0
H2460 H 0.89401 0.3912 0.71298 0.0
H2461 H 0.8713 0.41227 0.70348 0.0
H2462 H 0.90708 0.36073 0.69574 0.0
H2463 H 0.87529 0.3775 0.75237 0.0
H2464 H 0.84865 0.38087 0.77187 0.0
H2465 H 0.83916 0.32515 0.76847 0.0
H2466 H 0.86564 0.3215 0.74871 0.0
H2467 H 0.97487 0.33258 0.75533 0.0
H2468 H 0.95035 0.34731 0.73982 0.0
H2469 H 0.91814 0.30111 0.74792 0.0
H2470 H 0.94274 0.28628 0.76372 0.0
H2471 H 0.90046 0.3298 0.75708 0.0
H2472 H 0.93402 0.31212 0.70383 0.0
H2473 H 0.96049 0.30832 0.68417 0.0
H2474 H 0.9664 0.3645 0.68033 0.0
H2475 H 0.9401 0.36865 0.7002 0.0
C2476 C 0.84655 0.37475 0.70344 0.0
C2477 C 0.85052 0.39279 0.7017 0.0
C2478 C 0.85954 0.36274 0.70887 0.0
C2479 C 0.8767 0.36857 0.71256 0.0
C2480 C 0.88083 0.38646 0.71021 0.0
C2481 C 0.86783 0.39848 0.70493 0.0
C2482 C 0.89026 0.35626 0.71968 0.0
C2483 C 0.90572 0.35401 0.70919 0.0
C2484 C 0.88816 0.34708 0.73693 0.0
C2485 C 0.87231 0.34926 0.74888 0.0
C2486 C 0.86744 0.36599 0.75565 0.0
C2487 C 0.85239 0.36795 0.76677 0.0
C2488 C 0.84219 0.35324 0.77136 0.0
C2489 C 0.84706 0.33654 0.76487 0.0
C2490 C 0.86208 0.33452 0.75372 0.0
C2491 C 0.96266 0.32544 0.75357 0.0
C2492 C 0.96077 0.30821 0.76058 0.0
C2493 C 0.94864 0.33387 0.74468 0.0
C2494 C 0.93249 0.3252 0.74238 0.0
C2495 C 0.93051 0.30801 0.74945 0.0
C2496 C 0.94454 0.29958 0.7585 0.0
C2497 C 0.91755 0.33452 0.73333 0.0
C2498 C 0.90179 0.33623 0.74347 0.0
C2499 C 0.91933 0.3431 0.71567 0.0
C2500 C 0.93513 0.34069 0.70362 0.0
C2501 C 0.94103 0.32367 0.6989 0.0
C2502 C 0.956 0.32145 0.68771 0.0
C2503 C 0.96514 0.33616 0.68104 0.0
C2504 C 0.9593 0.35312 0.68552 0.0
C2505 C 0.94435 0.35541 0.69673 0.0
H2506 H 0.97673 0.33442 0.67237 0.0
H2507 H 0.83054 0.35478 0.77998 0.0
H2508 H 0.38364 0.1593 0.26955 0.0
H2509 H 0.36251 0.13634 0.2616 0.0
H2510 H 0.36692 0.11495 0.31783 0.0
H2511 H 0.38803 0.13809 0.32601 0.0
H2512 H 0.36978 0.08962 0.29146 0.0
H2513 H 0.32972 0.13602 0.30476 0.0
H2514 H 0.31741 0.16605 0.30324 0.0
H2515 H 0.3091 0.16033 0.2436 0.0
H2516 H 0.32161 0.13035 0.2447 0.0
H2517 H 0.30363 0.0268 0.26788 0.0
H2518 H 0.31801 0.05124 0.28435 0.0
H2519 H 0.32145 0.08006 0.23199 0.0
H2520 H 0.30734 0.05572 0.21541 0.0
H2521 H 0.31202 0.10137 0.26146 0.0
H2522 H 0.35604 0.05683 0.24794 0.0
H2523 H 0.36865 0.0269 0.24937 0.0
H2524 H 0.36939 0.02942 0.30993 0.0
H2525 H 0.35656 0.0593 0.30885 0.0
C2526 C 0.37989 0.14993 0.28037 0.0
C2527 C 0.38749 0.15056 0.29844 0.0
C2528 C 0.3678 0.13679 0.27578 0.0
C2529 C 0.36298 0.12406 0.2892 0.0
C2530 C 0.37045 0.12468 0.3073 0.0
C2531 C 0.38255 0.13785 0.31191 0.0
C2532 C 0.35091 0.10958 0.28383 0.0
C2533 C 0.35697 0.09216 0.2853 0.0
C2534 C 0.33432 0.11294 0.27555 0.0
C2535 C 0.32672 0.13096 0.2748 0.0
C2536 C 0.32539 0.14121 0.29129 0.0
C2537 C 0.31836 0.15822 0.29051 0.0
C2538 C 0.3125 0.1651 0.27333 0.0
C2539 C 0.31364 0.15498 0.2569 0.0
C2540 C 0.32068 0.13796 0.2576 0.0
C2541 C 0.30743 0.03836 0.25989 0.0
C2542 C 0.30441 0.03927 0.24031 0.0
C2543 C 0.31557 0.05232 0.26933 0.0
C2544 C 0.32091 0.06738 0.25934 0.0
C2545 C 0.31735 0.06859 0.23996 0.0
C2546 C 0.30923 0.05466 0.23052 0.0
C2547 C 0.33109 0.08152 0.26871 0.0
C2548 C 0.32468 0.09885 0.26797 0.0
C2549 C 0.34735 0.0781 0.27768 0.0
C2550 C 0.35515 0.0602 0.27833 0.0
C2551 C 0.35876 0.05094 0.26157 0.0
C2552 C 0.36597 0.034 0.26231 0.0
C2553 C 0.36977 0.02624 0.27974 0.0
C2554 C 0.36641 0.03543 0.29645 0.0
C2555 C 0.35917 0.05237 0.29578 0.0
H2556 H 0.37535 0.01313 0.28029 0.0
H2557 H 0.30706 0.17828 0.27275 0.0
H2558 H 0.16988 0.62116 0.72712 0.0
H2559 H 0.14744 0.64194 0.73776 0.0
H2560 H 0.11159 0.62198 0.69573 0.0
H2561 H 0.13419 0.60156 0.68454 0.0
H2562 H 0.10918 0.65752 0.69878 0.0
H2563 H 0.10924 0.60765 0.74073 0.0
H2564 H 0.12241 0.58609 0.76262 0.0
H2565 H 0.13736 0.628 0.80006 0.0
H2566 H 0.12449 0.64984 0.77824 0.0
H2567 H 0.02646 0.67843 0.74001 0.0
H2568 H 0.05258 0.6648 0.72611 0.0
H2569 H 0.08489 0.68859 0.76917 0.0
H2570 H 0.05876 0.70206 0.78331 0.0
H2571 H 0.09064 0.65329 0.76579 0.0
H2572 H 0.08768 0.70303 0.72455 0.0
H2573 H 0.07367 0.72397 0.7026 0.0
H2574 H 0.06317 0.68183 0.66375 0.0
H2575 H 0.07689 0.66058 0.6856 0.0
C2576 C 0.15734 0.62141 0.71989 0.0
C2577 C 0.15378 0.60962 0.70505 0.0
C2578 C 0.14448 0.6332 0.7261 0.0
C2579 C 0.12777 0.63332 0.71771 0.0
C2580 C 0.12438 0.62204 0.70245 0.0
C2581 C 0.13725 0.61027 0.6962 0.0
C2582 C 0.11355 0.64457 0.72543 0.0
C2583 C 0.10501 0.65652 0.71339 0.0
C2584 C 0.10838 0.6435 0.74459 0.0
C2585 C 0.11609 0.63039 0.75775 0.0
C2586 C 0.11547 0.61228 0.75356 0.0
C2587 C 0.12285 0.6 0.76596 0.0
C2588 C 0.13077 0.60567 0.78269 0.0
C2589 C 0.13126 0.62363 0.78707 0.0
C2590 C 0.12392 0.63596 0.7747 0.0
C2591 C 0.03916 0.68086 0.74642 0.0
C2592 C 0.04058 0.69125 0.76278 0.0
C2593 C 0.05407 0.67319 0.73839 0.0
C2594 C 0.07067 0.67578 0.74655 0.0
C2595 C 0.07219 0.68649 0.76262 0.0
C2596 C 0.05729 0.69426 0.7706 0.0
C2597 C 0.08619 0.66622 0.73914 0.0
C2598 C 0.09493 0.65449 0.75124 0.0
C2599 C 0.09143 0.66743 0.72001 0.0
C2600 C 0.08319 0.68018 0.7068 0.0
C2601 C 0.08225 0.6982 0.7114 0.0
C2602 C 0.07438 0.71013 0.69896 0.0
C2603 C 0.0675 0.70423 0.6818 0.0
C2604 C 0.0685 0.68638 0.67704 0.0
C2605 C 0.07634 0.67439 0.68945 0.0
H2606 H 0.06141 0.71349 0.67219 0.0
H2607 H 0.13647 0.59615 0.79228 0.0
H2608 H 0.19392 0.51201 0.57353 0.0
H2609 H 0.19403 0.50511 0.53981 0.0
H2610 H 0.24997 0.51435 0.53778 0.0
H2611 H 0.24984 0.52159 0.57144 0.0
H2612 H 0.23493 0.52856 0.50816 0.0
H2613 H 0.23222 0.47212 0.53844 0.0
H2614 H 0.22049 0.44952 0.56007 0.0
H2615 H 0.17118 0.45029 0.5306 0.0
H2616 H 0.18255 0.47309 0.50895 0.0
H2617 H 0.2527 0.4837 0.42183 0.0
H2618 H 0.25148 0.49161 0.45535 0.0
H2619 H 0.19483 0.49074 0.45333 0.0
H2620 H 0.19597 0.48286 0.41976 0.0
H2621 H 0.20966 0.47243 0.48459 0.0
H2622 H 0.21342 0.52877 0.45381 0.0
H2623 H 0.22609 0.55076 0.43209 0.0
H2624 H 0.27482 0.54921 0.46261 0.0
H2625 H 0.26251 0.527 0.48436 0.0
C2626 C 0.20624 0.51249 0.56589 0.0
C2627 C 0.22188 0.51726 0.57511 0.0
C2628 C 0.2063 0.50853 0.54663 0.0
C2629 C 0.22206 0.50894 0.53631 0.0
C2630 C 0.23765 0.51394 0.54545 0.0
C2631 C 0.23757 0.51809 0.56466 0.0
C2632 C 0.2223 0.5042 0.51598 0.0
C2633 C 0.22961 0.51618 0.50307 0.0
C2634 C 0.21504 0.48819 0.50924 0.0
C2635 C 0.20818 0.47444 0.5222 0.0
C2636 C 0.21883 0.46757 0.53666 0.0
C2637 C 0.21226 0.45471 0.54891 0.0
C2638 C 0.19509 0.44851 0.54674 0.0
C2639 C 0.18447 0.45513 0.53228 0.0
C2640 C 0.19098 0.46801 0.52001 0.0
C2641 C 0.24 0.48513 0.42857 0.0
C2642 C 0.22443 0.4827 0.41824 0.0
C2643 C 0.23932 0.48973 0.44765 0.0
C2644 C 0.22306 0.49184 0.45673 0.0
C2645 C 0.20749 0.4892 0.44652 0.0
C2646 C 0.20816 0.48481 0.42738 0.0
C2647 C 0.22235 0.49675 0.47693 0.0
C2648 C 0.21495 0.4848 0.48977 0.0
C2649 C 0.22968 0.51269 0.48362 0.0
C2650 C 0.2371 0.52608 0.47059 0.0
C2651 C 0.22689 0.533 0.45579 0.0
C2652 C 0.234 0.54553 0.44349 0.0
C2653 C 0.25127 0.55135 0.44594 0.0
C2654 C 0.26145 0.54467 0.46072 0.0
C2655 C 0.25441 0.53212 0.47304 0.0
H2656 H 0.25674 0.56105 0.43641 0.0
H2657 H 0.19002 0.43855 0.55623 0.0
H2658 H 0.49138 0.75497 0.41864 0.0
H2659 H 0.48352 0.75577 0.45214 0.0
H2660 H 0.52806 0.78942 0.46329 0.0
H2661 H 0.53619 0.78828 0.42991 0.0
H2662 H 0.526 0.76606 0.48962 0.0
H2663 H 0.48534 0.80568 0.46094 0.0
H2664 H 0.46271 0.81536 0.43827 0.0
H2665 H 0.42748 0.77556 0.4589 0.0
H2666 H 0.44999 0.76547 0.48152 0.0
H2667 H 0.46674 0.7996 0.57246 0.0
H2668 H 0.47512 0.79987 0.53923 0.0
H2669 H 0.49568 0.74708 0.54463 0.0
H2670 H 0.48841 0.74714 0.57814 0.0
H2671 H 0.46568 0.78188 0.51014 0.0
H2672 H 0.53 0.7409 0.51553 0.0
H2673 H 0.55378 0.7353 0.53844 0.0
H2674 H 0.54378 0.78525 0.56486 0.0
H2675 H 0.52012 0.79125 0.54196 0.0
C2676 C 0.49944 0.76257 0.42826 0.0
C2677 C 0.51437 0.77158 0.42171 0.0
C2678 C 0.49493 0.76306 0.44738 0.0
C2679 C 0.50507 0.77285 0.46021 0.0
C2680 C 0.52006 0.78174 0.45368 0.0
C2681 C 0.5247 0.78108 0.43462 0.0
C2682 C 0.50011 0.77377 0.48046 0.0
C2683 C 0.51281 0.76952 0.49409 0.0
C2684 C 0.48301 0.77867 0.48636 0.0
C2685 C 0.46942 0.78471 0.4728 0.0
C2686 C 0.47281 0.7989 0.46054 0.0
C2687 C 0.46 0.80448 0.44772 0.0
C2688 C 0.44368 0.79605 0.44711 0.0
C2689 C 0.44013 0.78206 0.45937 0.0
C2690 C 0.45291 0.77642 0.4722 0.0
C2691 C 0.47329 0.78814 0.56668 0.0
C2692 C 0.47704 0.77341 0.57809 0.0
C2693 C 0.47789 0.78824 0.54759 0.0
C2694 C 0.48623 0.77359 0.53946 0.0
C2695 C 0.48955 0.75868 0.55066 0.0
C2696 C 0.48516 0.75865 0.5698 0.0
C2697 C 0.49151 0.77395 0.51928 0.0
C2698 C 0.47887 0.77842 0.50566 0.0
C2699 C 0.50882 0.76983 0.51342 0.0
C2700 C 0.52317 0.76643 0.52714 0.0
C2701 C 0.53292 0.75071 0.52618 0.0
C2702 C 0.54637 0.74746 0.53918 0.0
C2703 C 0.55025 0.75988 0.55313 0.0
C2704 C 0.54072 0.77561 0.55409 0.0
C2705 C 0.52728 0.77893 0.54112 0.0
H2706 H 0.56065 0.75733 0.56319 0.0
H2707 H 0.43378 0.80039 0.43718 0.0
H2708 H 0.74299 0.52255 0.4245 0.0
H2709 H 0.7427 0.5154 0.45817 0.0
H2710 H 0.79872 0.50703 0.45687 0.0
H2711 H 0.79932 0.51478 0.42343 0.0
H2712 H 0.77962 0.47984 0.47502 0.0
H2713 H 0.78432 0.54335 0.47543 0.0
H2714 H 0.77515 0.57352 0.46701 0.0
H2715 H 0.72521 0.56507 0.49376 0.0
H2716 H 0.734 0.53474 0.50211 0.0
H2717 H 0.79928 0.47547 0.5719 0.0
H2718 H 0.79818 0.48322 0.53858 0.0
H2719 H 0.74458 0.50079 0.54512 0.0
H2720 H 0.74597 0.49425 0.57881 0.0
H2721 H 0.76116 0.52292 0.52386 0.0
H2722 H 0.75561 0.46021 0.52425 0.0
H2723 H 0.7635 0.42959 0.53232 0.0
H2724 H 0.8129 0.43549 0.5037 0.0
H2725 H 0.80541 0.46624 0.49567 0.0
C2726 C 0.7553 0.51943 0.4314 0.0
C2727 C 0.77118 0.51924 0.42119 0.0
C2728 C 0.75508 0.51525 0.45062 0.0
C2729 C 0.77069 0.51073 0.45996 0.0
C2730 C 0.78652 0.5104 0.44985 0.0
C2731 C 0.7868 0.51474 0.4307 0.0
C2732 C 0.77057 0.50626 0.48029 0.0
C2733 C 0.77577 0.48928 0.48576 0.0
C2734 C 0.76501 0.51846 0.49415 0.0
C2735 C 0.75975 0.53671 0.48921 0.0
C2736 C 0.77133 0.54787 0.47937 0.0
C2737 C 0.76621 0.56501 0.47464 0.0
C2738 C 0.74958 0.57119 0.4798 0.0
C2739 C 0.73807 0.56026 0.48975 0.0
C2740 C 0.74312 0.54309 0.49449 0.0
C2741 C 0.78732 0.48123 0.56637 0.0
C2742 C 0.77271 0.4842 0.57814 0.0
C2743 C 0.78662 0.48541 0.5472 0.0
C2744 C 0.77118 0.49228 0.53922 0.0
C2745 C 0.75661 0.49539 0.55091 0.0
C2746 C 0.75737 0.49145 0.57017 0.0
C2747 C 0.77033 0.49644 0.51875 0.0
C2748 C 0.76493 0.51338 0.5132 0.0
C2749 C 0.77549 0.48411 0.50478 0.0
C2750 C 0.78001 0.46559 0.5095 0.0
C2751 C 0.76821 0.45502 0.51979 0.0
C2752 C 0.7726 0.43764 0.52434 0.0
C2753 C 0.78871 0.43062 0.51857 0.0
C2754 C 0.80044 0.44096 0.50818 0.0
C2755 C 0.79612 0.45836 0.50361 0.0
H2756 H 0.79209 0.41715 0.52211 0.0
H2757 H 0.74565 0.58447 0.47613 0.0
H2758 H 0.46203 0.23576 0.43014 0.0
H2759 H 0.47022 0.23581 0.46334 0.0
H2760 H 0.51904 0.20982 0.44969 0.0
H2761 H 0.51041 0.20867 0.41649 0.0
H2762 H 0.50588 0.19556 0.47979 0.0
H2763 H 0.5169 0.2547 0.46069 0.0
H2764 H 0.51058 0.28358 0.44622 0.0
H2765 H 0.46853 0.2919 0.48566 0.0
H2766 H 0.47443 0.26294 0.50022 0.0
H2767 H 0.54522 0.21628 0.56943 0.0
H2768 H 0.53884 0.21592 0.53547 0.0
H2769 H 0.4848 0.22932 0.54698 0.0
H2770 H 0.49106 0.22948 0.58096 0.0
H2771 H 0.50229 0.25029 0.51796 0.0
H2772 H 0.49198 0.18969 0.53614 0.0
H2773 H 0.50012 0.16122 0.55051 0.0
H2774 H 0.54369 0.1566 0.51229 0.0
H2775 H 0.53595 0.18519 0.49787 0.0
C2776 C 0.47442 0.22984 0.43416 0.0
C2777 C 0.48554 0.22218 0.42056 0.0
C2778 C 0.47921 0.23012 0.45317 0.0
C2779 C 0.49539 0.2231 0.45901 0.0
C2780 C 0.50653 0.21541 0.44551 0.0
C2781 C 0.50165 0.21493 0.42649 0.0
C2782 C 0.50046 0.22346 0.47925 0.0
C2783 C 0.50536 0.2076 0.48803 0.0
C2784 C 0.4996 0.23912 0.49012 0.0
C2785 C 0.49601 0.25657 0.48144 0.0
C2786 C 0.50622 0.26263 0.46619 0.0
C2787 C 0.50272 0.27902 0.45799 0.0
C2788 C 0.48913 0.28955 0.46499 0.0
C2789 C 0.47904 0.28372 0.48024 0.0
C2790 C 0.48246 0.26732 0.48849 0.0
C2791 C 0.532 0.21916 0.56467 0.0
C2792 C 0.51861 0.22288 0.57774 0.0
C2793 C 0.52837 0.21889 0.54534 0.0
C2794 C 0.51136 0.22256 0.5388 0.0
C2795 C 0.49801 0.22645 0.55181 0.0
C2796 C 0.50156 0.22644 0.57115 0.0
C2797 C 0.50748 0.22242 0.51836 0.0
C2798 C 0.50286 0.23832 0.5096 0.0
C2799 C 0.50888 0.20688 0.50746 0.0
C2800 C 0.5135 0.18967 0.51607 0.0
C2801 C 0.50339 0.18268 0.53092 0.0
C2802 C 0.50791 0.16651 0.53905 0.0
C2803 C 0.52244 0.15713 0.53236 0.0
C2804 C 0.53245 0.16389 0.51748 0.0
C2805 C 0.528 0.18007 0.50932 0.0
H2806 H 0.52592 0.14461 0.53866 0.0
H2807 H 0.48645 0.30224 0.45862 0.0
H2808 H 0.72861 0.98144 0.08436 0.0
H2809 H 0.72948 0.97325 0.05088 0.0
H2810 H 0.71506 0.02634 0.03549 0.0
H2811 H 0.71415 0.0346 0.06891 0.0
H2812 H 0.69564 5e-05 0.01661 0.0
H2813 H 0.75597 0.01462 0.03068 0.0
H2814 H 0.78377 0.01225 0.04838 0.0
H2815 H 0.78743 0.95738 0.03398 0.0
H2816 H 0.7595 0.95937 0.01641 0.0
H2817 H 0.71357 0.00094 0.91935 0.0
H2818 H 0.71341 0.00717 0.95318 0.0
H2819 H 0.73532 0.95571 0.96428 0.0
H2820 H 0.73579 0.94954 0.93031 0.0
H2821 H 0.75062 0.97953 0.98595 0.0
H2822 H 0.69133 0.96436 0.97132 0.0
H2823 H 0.66327 0.96572 0.95399 0.0
H2824 H 0.65693 0.01994 0.97 0.0
H2825 H 0.6851 0.01899 0.98721 0.0
C2826 C 0.72554 0.99132 0.07382 0.0
C2827 C 0.72135 0.00866 0.07919 0.0
C2828 C 0.72614 0.98666 0.05474 0.0
C2829 C 0.72243 -0.00076 0.04076 0.0
C2830 C 0.71799 0.01648 0.0461 0.0
C2831 C 0.71758 0.02119 0.06515 0.0
C2832 C 0.72312 0.99444 0.02052 0.0
C2833 C 0.70768 0.99575 0.00982 0.0
C2834 C 0.73873 0.9883 0.0119 0.0
C2835 C 0.75555 0.9871 0.02241 0.0
C2836 C 0.76262 0.00201 0.03143 0.0
C2837 C 0.77842 0.00074 0.04141 0.0
C2838 C 0.78733 0.98466 0.04235 0.0
C2839 C 0.78049 0.96982 0.03327 0.0
C2840 C 0.76469 0.97102 0.02329 0.0
C2841 C 0.71829 0.99093 0.92902 0.0
C2842 C 0.72454 0.97469 0.92224 0.0
C2843 C 0.71818 0.99449 0.94834 0.0
C2844 C 0.72403 0.98177 0.9613 0.0
C2845 C 0.73069 0.96569 0.95454 0.0
C2846 C 0.73097 0.96219 0.93516 0.0
C2847 C 0.72314 0.98531 0.98189 0.0
C2848 C 0.73852 0.98375 0.9927 0.0
C2849 C 0.70741 0.99103 0.99068 0.0
C2850 C 0.69041 0.99164 0.98042 0.0
C2851 C 0.68402 0.97661 0.97103 0.0
C2852 C 0.66808 0.97731 0.96125 0.0
C2853 C 0.65834 0.99292 0.96086 0.0
C2854 C 0.6645 0.00786 0.9703 0.0
C2855 C 0.68044 0.00725 0.98009 0.0
H2856 H 0.64601 0.99343 0.95328 0.0
H2857 H 0.79957 0.98371 0.05008 0.0
H2858 H 0.98637 0.27418 0.9185 0.0
H2859 H 0.9797 0.27509 0.95227 0.0
H2860 H 0.03499 0.27909 0.96489 0.0
H2861 H 0.04178 0.27855 0.9312 0.0
H2862 H 0.0184 0.25443 0.98685 0.0
H2863 H 0.00951 0.31475 0.96824 0.0
H2864 H 0.99688 0.33879 0.94913 0.0
H2865 H 0.94493 0.3238 0.96653 0.0
H2866 H 0.95724 0.2995 0.98555 0.0
H2867 H 0.01198 0.27686 0.08355 0.0
H2868 H 0.01849 0.27729 0.04979 0.0
H2869 H 0.963 0.27734 0.0373 0.0
H2870 H 0.95637 0.27773 0.07103 0.0
H2871 H 0.9796 0.29991 0.01512 0.0
H2872 H 0.98792 0.23963 0.03339 0.0
H2873 H 5e-05 0.21516 0.05225 0.0
H2874 H 0.05232 0.22936 0.03518 0.0
H2875 H 0.04051 0.25408 0.01642 0.0
C2876 C 0.99711 0.27547 0.92844 0.0
C2877 C 0.01462 0.27628 0.92213 0.0
C2878 C 0.99327 0.27592 0.94773 0.0
C2879 C 0.00686 0.27725 0.96105 0.0
C2880 C 0.02433 0.278 0.95483 0.0
C2881 C 0.02818 0.2776 0.93556 0.0
C2882 C 0.0029 0.27766 0.98153 0.0
C2883 C 0.0101 0.2645 0.99309 0.0
C2884 C 0.99171 0.29054 0.98953 0.0
C2885 C 0.98429 0.30519 0.97817 0.0
C2886 C 0.99538 0.31649 0.96787 0.0
C2887 C 0.98828 0.33018 0.95708 0.0
C2888 C 0.97011 0.3328 0.95658 0.0
C2889 C 0.959 0.32175 0.96691 0.0
C2890 C 0.96603 0.30802 0.97771 0.0
C2891 C 0.00115 0.27716 0.07364 0.0
C2892 C 0.98364 0.27717 0.08002 0.0
C2893 C 0.0049 0.27722 0.05433 0.0
C2894 C 0.99123 0.27708 0.04101 0.0
C2895 C 0.97375 0.27735 0.04732 0.0
C2896 C 0.96999 0.27739 0.06662 0.0
C2897 C 0.99512 0.27667 0.02049 0.0
C2898 C 0.9879 0.28982 0.0089 0.0
C2899 C 0.00621 0.26371 0.01243 0.0
C2900 C 0.01334 0.24881 0.02365 0.0
C2901 C 0.00201 0.23762 0.03378 0.0
C2902 C 0.00883 0.22369 0.04443 0.0
C2903 C 0.02695 0.22073 0.04496 0.0
C2904 C 0.03829 0.23168 0.03478 0.0
C2905 C 0.03154 0.24564 0.02412 0.0
H2906 H 0.0322 0.20994 0.05321 0.0
H2907 H 0.96464 0.34341 0.94822 0.0
H2908 H 0.26431 0.04232 0.92781 0.0
H2909 H 0.26355 0.0355 0.96154 0.0
H2910 H 0.28715 0.98482 0.95053 0.0
H2911 H 0.28745 0.99131 0.91673 0.0
H2912 H 0.26042 0.98199 0.97513 0.0
H2913 H 0.31145 0.01858 0.96802 0.0
H2914 H 0.32794 0.04503 0.95827 0.0
H2915 H 0.29566 0.07718 0.99416 0.0
H2916 H 0.2788 0.05093 0.00393 0.0
H2917 H 0.28817 0.9604 0.06775 0.0
H2918 H 0.28759 0.96792 0.03423 0.0
H2919 H 0.26229 0.01733 0.04725 0.0
H2920 H 0.26256 0.00981 0.08084 0.0
H2921 H 0.28917 0.02128 0.02184 0.0
H2922 H 0.23857 0.9843 0.02944 0.0
H2923 H 0.22244 0.95765 0.03929 0.0
H2924 H 0.25435 0.92602 0.0025 0.0
H2925 H 0.27084 0.95246 0.99263 0.0
C2926 C 0.26918 0.02965 0.93255 0.0
C2927 C 0.27599 0.01737 0.91959 0.0
C2928 C 0.26889 0.02585 0.95185 0.0
C2929 C 0.27549 0.00973 0.95856 0.0
C2930 C 0.28206 0.99736 0.94565 0.0
C2931 C 0.28236 0.00115 0.92636 0.0
C2932 C 0.27551 0.00573 0.97905 0.0
C2933 C 0.26689 0.99047 0.98532 0.0
C2934 C 0.2836 0.01702 0.99237 0.0
C2935 C 0.29374 0.03282 0.98655 0.0
C2936 C 0.30777 0.03131 0.97371 0.0
C2937 C 0.3172 0.04626 0.96821 0.0
C2938 C 0.31282 0.06278 0.97555 0.0
C2939 C 0.29902 0.06438 0.98846 0.0
C2940 C 0.28953 0.04947 0.994 0.0
C2941 C 0.28231 0.97279 0.06349 0.0
C2942 C 0.27532 0.98446 0.07698 0.0
C2943 C 0.28204 0.97709 0.04433 0.0
C2944 C 0.27473 0.9931 0.03826 0.0
C2945 C 0.268 0.00491 0.05167 0.0
C2946 C 0.26823 0.00061 0.07085 0.0
C2947 C 0.27416 0.9975 0.01789 0.0
C2948 C 0.28266 0.01284 0.01165 0.0
C2949 C 0.266 0.98626 0.00458 0.0
C2950 C 0.25605 0.97034 0.01043 0.0
C2951 C 0.24224 0.97165 0.02356 0.0
C2952 C 0.23302 0.95658 0.02913 0.0
C2953 C 0.2374 0.94015 0.02156 0.0
C2954 C 0.25098 0.93875 0.00837 0.0
C2955 C 0.26026 0.95378 0.00277 0.0
H2956 H 0.23024 0.9285 0.02589 0.0
H2957 H 0.32014 0.07435 0.97127 0.0
H2958 H 0.96763 0.69791 0.92682 0.0
H2959 H 0.97457 0.69729 0.96052 0.0
H2960 H 0.00308 0.7462 0.95478 0.0
H2961 H 0.99664 0.74649 0.92088 0.0
H2962 H 0.02048 0.72537 0.97684 0.0
H2963 H 0.96054 0.744 0.97386 0.0
H2964 H 0.92935 0.74257 0.96457 0.0
H2965 H 0.92381 0.6932 0.99364 0.0
H2966 H 0.95505 0.69422 0.00289 0.0
H2967 H 0.01859 0.74827 0.07479 0.0
H2968 H 0.01261 0.74801 0.04093 0.0
H2969 H 0.99657 0.69363 0.04445 0.0
H2970 H 0.00333 0.69339 0.07816 0.0
H2971 H 0.97289 0.71732 0.02399 0.0
H2972 H 0.03387 0.69997 0.02701 0.0
H2973 H 0.06479 0.70325 0.03679 0.0
H2974 H 0.0677 0.75302 0.00806 0.0
H2975 H 0.03669 0.75016 0.99836 0.0
C2976 C 0.97536 0.70852 0.9328 0.0
C2977 C 0.98151 0.72231 0.92135 0.0
C2978 C 0.97927 0.7082 0.95205 0.0
C2979 C 0.98905 0.72189 0.96029 0.0
C2980 C 0.99548 0.73552 0.94876 0.0
C2981 C 0.9918 0.73569 0.92943 0.0
C2982 C 0.99259 0.72197 0.9809 0.0
C2983 C 0.01002 0.72385 0.98712 0.0
C2984 C 0.979 0.71974 0.99438 0.0
C2985 C 0.96018 0.71911 0.98891 0.0
C2986 C 0.9527 0.73278 0.97815 0.0
C2987 C 0.93501 0.73205 0.97291 0.0
C2988 C 0.92461 0.71778 0.97847 0.0
C2989 C 0.93188 0.70423 0.98932 0.0
C2990 C 0.94958 0.70489 0.99458 0.0
C2991 C 0.01405 0.73614 0.06839 0.0
C2992 C 0.01155 0.72081 0.0793 0.0
C2993 C 0.01052 0.73609 0.04905 0.0
C2994 C 0.00423 0.72079 0.04027 0.0
C2995 C 0.00137 0.70558 0.05105 0.0
C2996 C 0.00514 0.70552 0.07035 0.0
C2997 C 0.00068 0.72069 0.01976 0.0
C2998 C 0.98328 0.71884 0.01362 0.0
C2999 C 0.01423 0.72323 0.00639 0.0
C3000 C 0.0329 0.72493 0.01213 0.0
C3001 C 0.04105 0.71169 0.02293 0.0
C3002 C 0.0586 0.71346 0.02843 0.0
C3003 C 0.06819 0.72836 0.02309 0.0
C3004 C 0.06025 0.7415 0.01221 0.0
C3005 C 0.04269 0.7398 0.00669 0.0
H3006 H 0.08178 0.7297 0.02736 0.0
H3007 H 0.91092 0.71724 0.9744 0.0
loop_
_geom_bond_atom_site_label_1
_geom_bond_atom_site_label_2
_geom_bond_distance
_geom_bond_site_symmetry_2
_ccdc_geom_bond_type
Li0 N17 1.990 . S
Li0 O60 1.956 . S
Li0 O61 1.970 . S
Li0 O62 1.961 . S
Li1 N25 1.990 . S
Li1 O60 1.970 . S
Li1 O61 1.956 . S
Li1 O63 1.961 . S
Li2 N47 1.990 . S
Li2 O60 1.961 . S
Li2 O62 1.956 . S
Li2 O63 1.970 . S
Li3 N53 1.990 . S
Li3 O61 1.961 . S
Li3 O62 1.970 . S
Li3 O63 1.956 . S
C4 C6 1.348 . S
C4 C7 1.356 . S
C4 O60 1.325 . S
N5 C8 1.314 . S
N5 C9 1.279 . S
C6 C4 1.348 . S
C6 C8 1.353 . S
C6 H64 0.929 . S
C7 C4 1.356 . S
C7 C9 1.358 . S
C7 H65 0.930 . S
C8 N5 1.314 . S
C8 C6 1.353 . S
C8 H66 0.930 . S
C9 N5 1.279 . S
C9 C7 1.358 . S
C9 H67 0.930 . S
C10 C13 1.348 . S
C10 C14 1.356 . S
C10 O61 1.325 . S
C11 N12 1.279 . S
C11 C14 1.358 . S
C11 H68 0.930 . S
N12 C11 1.279 . S
N12 C15 1.314 . S
C13 C10 1.348 . S
C13 C15 1.353 . S
C13 H69 0.929 . S
C14 C10 1.356 . S
C14 C11 1.358 . S
C14 H70 0.930 . S
C15 N12 1.314 . S
C15 C13 1.353 . S
C15 H71 0.930 . S
C16 N17 1.314 . S
C16 C21 1.353 . S
C16 H22 0.930 . S
N17 Li0 1.990 . S
N17 C16 1.314 . S
N17 C19 1.279 . S
C18 C19 1.358 . S
C18 C20 1.356 . S
C18 H72 0.930 . S
C19 N17 1.279 . S
C19 C18 1.358 . S
C19 H23 0.930 . S
C20 C18 1.356 . S
C20 C21 1.348 . S
C21 C16 1.353 . S
C21 C20 1.348 . S
C21 H73 0.929 . S
H22 C16 0.930 . S
H23 C19 0.930 . S
C24 N25 1.314 . S
C24 C26 1.353 . S
C24 H30 0.930 . S
N25 Li1 1.990 . S
N25 C24 1.314 . S
N25 C28 1.279 . S
C26 C24 1.353 . S
C26 C29 1.348 . S
C26 H74 0.929 . S
C27 C28 1.358 . S
C27 C29 1.356 . S
C27 H75 0.930 . S
C28 N25 1.279 . S
C28 C27 1.358 . S
C28 H31 0.930 . S
C29 C26 1.348 . S
C29 C27 1.356 . S
H30 C24 0.930 . S
H31 C28 0.930 . S
C32 C34 1.348 . S
C32 C35 1.356 . S
C32 O62 1.325 . S
N33 C36 1.314 . S
N33 C37 1.279 . S
C34 C32 1.348 . S
C34 C36 1.353 . S
C34 H76 0.929 . S
C35 C32 1.356 . S
C35 C37 1.358 . S
C35 H77 0.930 . S
C36 N33 1.314 . S
C36 C34 1.353 . S
C36 H78 0.930 . S
C37 N33 1.279 . S
C37 C35 1.358 . S
C37 H79 0.930 . S
C38 C39 1.348 . S
C38 C40 1.356 . S
C38 O63 1.325 . S
C39 C38 1.348 . S
C39 C41 1.353 . S
C39 H80 0.929 . S
C40 C38 1.356 . S
C40 C42 1.358 . S
C40 H81 0.930 . S
C41 C39 1.353 . S
C41 N43 1.314 . S
C41 H82 0.930 . S
C42 C40 1.358 . S
C42 N43 1.279 . S
C42 H83 0.930 . S
N43 C41 1.314 . S
N43 C42 1.279 . S
C44 C46 1.353 . S
C44 N47 1.314 . S
C44 H50 0.930 . S
C45 N47 1.279 . S
C45 C48 1.358 . S
C45 H51 0.930 . S
C46 C44 1.353 . S
C46 C49 1.348 . S
C46 H84 0.929 . S
N47 Li2 1.990 . S
N47 C44 1.314 . S
N47 C45 1.279 . S
C48 C45 1.358 . S
C48 C49 1.356 . S
C48 H85 0.930 . S
C49 C46 1.348 . S
C49 C48 1.356 . S
H50 C44 0.930 . S
H51 C45 0.930 . S
C52 N53 1.314 . S
C52 C54 1.353 . S
C52 H58 0.930 . S
N53 Li3 1.990 . S
N53 C52 1.314 . S
N53 C56 1.279 . S
C54 C52 1.353 . S
C54 C57 1.348 . S
C54 H86 0.929 . S
C55 C56 1.358 . S
C55 C57 1.356 . S
C55 H87 0.930 . S
C56 N53 1.279 . S
C56 C55 1.358 . S
C56 H59 0.930 . S
C57 C54 1.348 . S
C57 C55 1.356 . S
H58 C52 0.930 . S
H59 C56 0.930 . S
O60 Li0 1.956 . S
O60 Li1 1.970 . S
O60 Li2 1.961 . S
O60 C4 1.325 . S
O61 Li0 1.970 . S
O61 Li1 1.956 . S
O61 Li3 1.961 . S
O61 C10 1.325 . S
O62 Li0 1.961 . S
O62 Li2 1.956 . S
O62 Li3 1.970 . S
O62 C32 1.325 . S
O63 Li1 1.961 . S
O63 Li2 1.970 . S
O63 Li3 1.956 . S
O63 C38 1.325 . S
H64 C6 0.929 . S
H65 C7 0.930 . S
H66 C8 0.930 . S
H67 C9 0.930 . S
H68 C11 0.930 . S
H69 C13 0.929 . S
H70 C14 0.930 . S
H71 C15 0.930 . S
H72 C18 0.930 . S
H73 C21 0.929 . S
H74 C26 0.929 . S
H75 C27 0.930 . S
H76 C34 0.929 . S
H77 C35 0.930 . S
H78 C36 0.930 . S
H79 C37 0.930 . S
H80 C39 0.929 . S
H81 C40 0.930 . S
H82 C41 0.930 . S
H83 C42 0.930 . S
H84 C46 0.929 . S
H85 C48 0.930 . S
H86 C54 0.929 . S
H87 C55 0.930 . S
Li88 N105 1.990 . S
Li88 O148 1.956 . S
Li88 O149 1.970 . S
Li88 O150 1.961 . S
Li89 N113 1.990 . S
Li89 O148 1.970 . S
Li89 O149 1.956 . S
Li89 O151 1.961 . S
Li90 N135 1.990 . S
Li90 O148 1.961 . S
Li90 O150 1.956 . S
Li90 O151 1.970 . S
Li91 N141 1.990 . S
Li91 O149 1.961 . S
Li91 O150 1.970 . S
Li91 O151 1.956 . S
C92 C94 1.348 . S
C92 C95 1.356 . S
C92 O148 1.325 . S
N93 C96 1.314 . S
N93 C97 1.279 . S
C94 C92 1.348 . S
C94 C96 1.353 . S
C94 H152 0.929 . S
C95 C92 1.356 . S
C95 C97 1.358 . S
C95 H153 0.930 . S
C96 N93 1.314 . S
C96 C94 1.353 . S
C96 H154 0.930 . S
C97 N93 1.279 . S
C97 C95 1.358 . S
C97 H155 0.930 . S
C98 C101 1.348 . S
C98 C102 1.356 . S
C98 O149 1.325 . S
C99 N100 1.279 . S
C99 C102 1.358 . S
C99 H156 0.930 . S
N100 C99 1.279 . S
N100 C103 1.314 . S
C101 C98 1.348 . S
C101 C103 1.353 . S
C101 H157 0.929 . S
C102 C98 1.356 . S
C102 C99 1.358 . S
C102 H158 0.930 . S
C103 N100 1.314 . S
C103 C101 1.353 . S
C103 H159 0.930 . S
C104 N105 1.314 . S
C104 C109 1.353 . S
C104 H110 0.930 . S
N105 Li88 1.990 . S
N105 C104 1.314 . S
N105 C107 1.279 . S
C106 C107 1.358 . S
C106 C108 1.356 . S
C106 H160 0.930 . S
C107 N105 1.279 . S
C107 C106 1.358 . S
C107 H111 0.930 . S
C108 C106 1.356 . S
C108 C109 1.348 . S
C109 C104 1.353 . S
C109 C108 1.348 . S
C109 H161 0.929 . S
H110 C104 0.930 . S
H111 C107 0.930 . S
C112 N113 1.314 . S
C112 C114 1.353 . S
C112 H118 0.930 . S
N113 Li89 1.990 . S
N113 C112 1.314 . S
N113 C116 1.279 . S
C114 C112 1.353 . S
C114 C117 1.348 . S
C114 H162 0.929 . S
C115 C116 1.358 . S
C115 C117 1.356 . S
C115 H163 0.930 . S
C116 N113 1.279 . S
C116 C115 1.358 . S
C116 H119 0.930 . S
C117 C114 1.348 . S
C117 C115 1.356 . S
H118 C112 0.930 . S
H119 C116 0.930 . S
C120 C122 1.348 . S
C120 C123 1.356 . S
C120 O150 1.325 . S
N121 C124 1.314 . S
N121 C125 1.279 . S
C122 C120 1.348 . S
C122 C124 1.353 . S
C122 H164 0.929 . S
C123 C120 1.356 . S
C123 C125 1.358 . S
C123 H165 0.930 . S
C124 N121 1.314 . S
C124 C122 1.353 . S
C124 H166 0.930 . S
C125 N121 1.279 . S
C125 C123 1.358 . S
C125 H167 0.930 . S
C126 C127 1.348 . S
C126 C128 1.356 . S
C126 O151 1.325 . S
C127 C126 1.348 . S
C127 C129 1.353 . S
C127 H168 0.929 . S
C128 C126 1.356 . S
C128 C130 1.358 . S
C128 H169 0.930 . S
C129 C127 1.353 . S
C129 N131 1.314 . S
C129 H170 0.930 . S
C130 C128 1.358 . S
C130 N131 1.279 . S
C130 H171 0.930 . S
N131 C129 1.314 . S
N131 C130 1.279 . S
C132 C134 1.353 . S
C132 N135 1.314 . S
C132 H138 0.930 . S
C133 N135 1.279 . S
C133 C136 1.358 . S
C133 H139 0.930 . S
C134 C132 1.353 . S
C134 C137 1.348 . S
C134 H172 0.929 . S
N135 Li90 1.990 . S
N135 C132 1.314 . S
N135 C133 1.279 . S
C136 C133 1.358 . S
C136 C137 1.356 . S
C136 H173 0.930 . S
C137 C134 1.348 . S
C137 C136 1.356 . S
H138 C132 0.930 . S
H139 C133 0.930 . S
C140 N141 1.314 . S
C140 C142 1.353 . S
C140 H146 0.930 . S
N141 Li91 1.990 . S
N141 C140 1.314 . S
N141 C144 1.279 . S
C142 C140 1.353 . S
C142 C145 1.348 . S
C142 H174 0.929 . S
C143 C144 1.358 . S
C143 C145 1.356 . S
C143 H175 0.930 . S
C144 N141 1.279 . S
C144 C143 1.358 . S
C144 H147 0.930 . S
C145 C142 1.348 . S
C145 C143 1.356 . S
H146 C140 0.930 . S
H147 C144 0.930 . S
O148 Li88 1.956 . S
O148 Li89 1.970 . S
O148 Li90 1.961 . S
O148 C92 1.325 . S
O149 Li88 1.970 . S
O149 Li89 1.956 . S
O149 Li91 1.961 . S
O149 C98 1.325 . S
O150 Li88 1.961 . S
O150 Li90 1.956 . S
O150 Li91 1.970 . S
O150 C120 1.325 . S
O151 Li89 1.961 . S
O151 Li90 1.970 . S
O151 Li91 1.956 . S
O151 C126 1.325 . S
H152 C94 0.929 . S
H153 C95 0.930 . S
H154 C96 0.930 . S
H155 C97 0.930 . S
H156 C99 0.930 . S
H157 C101 0.929 . S
H158 C102 0.930 . S
H159 C103 0.930 . S
H160 C106 0.930 . S
H161 C109 0.929 . S
H162 C114 0.929 . S
H163 C115 0.930 . S
H164 C122 0.929 . S
H165 C123 0.930 . S
H166 C124 0.930 . S
H167 C125 0.930 . S
H168 C127 0.929 . S
H169 C128 0.930 . S
H170 C129 0.930 . S
H171 C130 0.930 . S
H172 C134 0.929 . S
H173 C136 0.930 . S
H174 C142 0.929 . S
H175 C143 0.930 . S
Li176 N193 1.990 . S
Li176 O236 1.956 . S
Li176 O237 1.970 . S
Li176 O238 1.961 . S
Li177 N201 1.990 . S
Li177 O236 1.970 . S
Li177 O237 1.956 . S
Li177 O239 1.961 . S
Li178 N223 1.990 . S
Li178 O236 1.961 . S
Li178 O238 1.956 . S
Li178 O239 1.970 . S
Li179 N229 1.990 . S
Li179 O237 1.961 . S
Li179 O238 1.970 . S
Li179 O239 1.956 . S
C180 C182 1.348 . S
C180 C183 1.356 . S
C180 O236 1.325 . S
N181 C184 1.314 . S
N181 C185 1.279 . S
C182 C180 1.348 . S
C182 C184 1.353 . S
C182 H240 0.929 . S
C183 C180 1.356 . S
C183 C185 1.358 . S
C183 H241 0.930 . S
C184 N181 1.314 . S
C184 C182 1.353 . S
C184 H242 0.930 . S
C185 N181 1.279 . S
C185 C183 1.358 . S
C185 H243 0.930 . S
C186 C189 1.348 . S
C186 C190 1.356 . S
C186 O237 1.325 . S
C187 N188 1.279 . S
C187 C190 1.358 . S
C187 H244 0.930 . S
N188 C187 1.279 . S
N188 C191 1.314 . S
C189 C186 1.348 . S
C189 C191 1.353 . S
C189 H245 0.929 . S
C190 C186 1.356 . S
C190 C187 1.358 . S
C190 H246 0.930 . S
C191 N188 1.314 . S
C191 C189 1.353 . S
C191 H247 0.930 . S
C192 N193 1.314 . S
C192 C197 1.353 . S
C192 H198 0.930 . S
N193 Li176 1.990 . S
N193 C192 1.314 . S
N193 C195 1.279 . S
C194 C195 1.358 . S
C194 C196 1.356 . S
C194 H248 0.930 . S
C195 N193 1.279 . S
C195 C194 1.358 . S
C195 H199 0.930 . S
C196 C194 1.356 . S
C196 C197 1.348 . S
C197 C192 1.353 . S
C197 C196 1.348 . S
C197 H249 0.929 . S
H198 C192 0.930 . S
H199 C195 0.930 . S
C200 N201 1.314 . S
C200 C202 1.353 . S
C200 H206 0.930 . S
N201 Li177 1.990 . S
N201 C200 1.314 . S
N201 C204 1.279 . S
C202 C200 1.353 . S
C202 C205 1.348 . S
C202 H250 0.929 . S
C203 C204 1.358 . S
C203 C205 1.356 . S
C203 H251 0.930 . S
C204 N201 1.279 . S
C204 C203 1.358 . S
C204 H207 0.930 . S
C205 C202 1.348 . S
C205 C203 1.356 . S
H206 C200 0.930 . S
H207 C204 0.930 . S
C208 C210 1.348 . S
C208 C211 1.356 . S
C208 O238 1.325 . S
N209 C212 1.314 . S
N209 C213 1.279 . S
C210 C208 1.348 . S
C210 C212 1.353 . S
C210 H252 0.929 . S
C211 C208 1.356 . S
C211 C213 1.358 . S
C211 H253 0.930 . S
C212 N209 1.314 . S
C212 C210 1.353 . S
C212 H254 0.930 . S
C213 N209 1.279 . S
C213 C211 1.358 . S
C213 H255 0.930 . S
C214 C215 1.348 . S
C214 C216 1.356 . S
C214 O239 1.325 . S
C215 C214 1.348 . S
C215 C217 1.353 . S
C215 H256 0.929 . S
C216 C214 1.356 . S
C216 C218 1.358 . S
C216 H257 0.930 . S
C217 C215 1.353 . S
C217 N219 1.314 . S
C217 H258 0.930 . S
C218 C216 1.358 . S
C218 N219 1.279 . S
C218 H259 0.930 . S
N219 C217 1.314 . S
N219 C218 1.279 . S
C220 C222 1.353 . S
C220 N223 1.314 . S
C220 H226 0.930 . S
C221 N223 1.279 . S
C221 C224 1.358 . S
C221 H227 0.930 . S
C222 C220 1.353 . S
C222 C225 1.348 . S
C222 H260 0.929 . S
N223 Li178 1.990 . S
N223 C220 1.314 . S
N223 C221 1.279 . S
C224 C221 1.358 . S
C224 C225 1.356 . S
C224 H261 0.930 . S
C225 C222 1.348 . S
C225 C224 1.356 . S
H226 C220 0.930 . S
H227 C221 0.930 . S
C228 N229 1.314 . S
C228 C230 1.353 . S
C228 H234 0.930 . S
N229 Li179 1.990 . S
N229 C228 1.314 . S
N229 C232 1.279 . S
C230 C228 1.353 . S
C230 C233 1.348 . S
C230 H262 0.929 . S
C231 C232 1.358 . S
C231 C233 1.356 . S
C231 H263 0.930 . S
C232 N229 1.279 . S
C232 C231 1.358 . S
C232 H235 0.930 . S
C233 C230 1.348 . S
C233 C231 1.356 . S
H234 C228 0.930 . S
H235 C232 0.930 . S
O236 Li176 1.956 . S
O236 Li177 1.970 . S
O236 Li178 1.961 . S
O236 C180 1.325 . S
O237 Li176 1.970 . S
O237 Li177 1.956 . S
O237 Li179 1.961 . S
O237 C186 1.325 . S
O238 Li176 1.961 . S
O238 Li178 1.956 . S
O238 Li179 1.970 . S
O238 C208 1.325 . S
O239 Li177 1.961 . S
O239 Li178 1.970 . S
O239 Li179 1.956 . S
O239 C214 1.325 . S
H240 C182 0.929 . S
H241 C183 0.930 . S
H242 C184 0.930 . S
H243 C185 0.930 . S
H244 C187 0.930 . S
H245 C189 0.929 . S
H246 C190 0.930 . S
H247 C191 0.930 . S
H248 C194 0.930 . S
H249 C197 0.929 . S
H250 C202 0.929 . S
H251 C203 0.930 . S
H252 C210 0.929 . S
H253 C211 0.930 . S
H254 C212 0.930 . S
H255 C213 0.930 . S
H256 C215 0.929 . S
H257 C216 0.930 . S
H258 C217 0.930 . S
H259 C218 0.930 . S
H260 C222 0.929 . S
H261 C224 0.930 . S
H262 C230 0.929 . S
H263 C231 0.930 . S
Li264 N281 1.990 . S
Li264 O324 1.956 . S
Li264 O325 1.970 . S
Li264 O326 1.961 . S
Li265 N289 1.990 . S
Li265 O324 1.970 . S
Li265 O325 1.956 . S
Li265 O327 1.961 . S
Li266 N311 1.990 . S
Li266 O324 1.961 . S
Li266 O326 1.956 . S
Li266 O327 1.970 . S
Li267 N317 1.990 . S
Li267 O325 1.961 . S
Li267 O326 1.970 . S
Li267 O327 1.956 . S
C268 C270 1.348 . S
C268 C271 1.356 . S
C268 O324 1.325 . S
N269 C272 1.314 . S
N269 C273 1.279 . S
C270 C268 1.348 . S
C270 C272 1.353 . S
C270 H328 0.929 . S
C271 C268 1.356 . S
C271 C273 1.358 . S
C271 H329 0.930 . S
C272 N269 1.314 . S
C272 C270 1.353 . S
C272 H330 0.930 . S
C273 N269 1.279 . S
C273 C271 1.358 . S
C273 H331 0.930 . S
C274 C277 1.348 . S
C274 C278 1.356 . S
C274 O325 1.325 . S
C275 N276 1.279 . S
C275 C278 1.358 . S
C275 H332 0.930 . S
N276 C275 1.279 . S
N276 C279 1.314 . S
C277 C274 1.348 . S
C277 C279 1.353 . S
C277 H333 0.929 . S
C278 C274 1.356 . S
C278 C275 1.358 . S
C278 H334 0.930 . S
C279 N276 1.314 . S
C279 C277 1.353 . S
C279 H335 0.930 . S
C280 N281 1.314 . S
C280 C285 1.353 . S
C280 H286 0.930 . S
N281 Li264 1.990 . S
N281 C280 1.314 . S
N281 C283 1.279 . S
C282 C283 1.358 . S
C282 C284 1.356 . S
C282 H336 0.930 . S
C283 N281 1.279 . S
C283 C282 1.358 . S
C283 H287 0.930 . S
C284 C282 1.356 . S
C284 C285 1.348 . S
C285 C280 1.353 . S
C285 C284 1.348 . S
C285 H337 0.929 . S
H286 C280 0.930 . S
H287 C283 0.930 . S
C288 N289 1.314 . S
C288 C290 1.353 . S
C288 H294 0.930 . S
N289 Li265 1.990 . S
N289 C288 1.314 . S
N289 C292 1.279 . S
C290 C288 1.353 . S
C290 C293 1.348 . S
C290 H338 0.929 . S
C291 C292 1.358 . S
C291 C293 1.356 . S
C291 H339 0.930 . S
C292 N289 1.279 . S
C292 C291 1.358 . S
C292 H295 0.930 . S
C293 C290 1.348 . S
C293 C291 1.356 . S
H294 C288 0.930 . S
H295 C292 0.930 . S
C296 C298 1.348 . S
C296 C299 1.356 . S
C296 O326 1.325 . S
N297 C300 1.314 . S
N297 C301 1.279 . S
C298 C296 1.348 . S
C298 C300 1.353 . S
C298 H340 0.929 . S
C299 C296 1.356 . S
C299 C301 1.358 . S
C299 H341 0.930 . S
C300 N297 1.314 . S
C300 C298 1.353 . S
C300 H342 0.930 . S
C301 N297 1.279 . S
C301 C299 1.358 . S
C301 H343 0.930 . S
C302 C303 1.348 . S
C302 C304 1.356 . S
C302 O327 1.325 . S
C303 C302 1.348 . S
C303 C305 1.353 . S
C303 H344 0.929 . S
C304 C302 1.356 . S
C304 C306 1.358 . S
C304 H345 0.930 . S
C305 C303 1.353 . S
C305 N307 1.314 . S
C305 H346 0.930 . S
C306 C304 1.358 . S
C306 N307 1.279 . S
C306 H347 0.930 . S
N307 C305 1.314 . S
N307 C306 1.279 . S
C308 C310 1.353 . S
C308 N311 1.314 . S
C308 H314 0.930 . S
C309 N311 1.279 . S
C309 C312 1.358 . S
C309 H315 0.930 . S
C310 C308 1.353 . S
C310 C313 1.348 . S
C310 H348 0.929 . S
N311 Li266 1.990 . S
N311 C308 1.314 . S
N311 C309 1.279 . S
C312 C309 1.358 . S
C312 C313 1.356 . S
C312 H349 0.930 . S
C313 C310 1.348 . S
C313 C312 1.356 . S
H314 C308 0.930 . S
H315 C309 0.930 . S
C316 N317 1.314 . S
C316 C318 1.353 . S
C316 H322 0.930 . S
N317 Li267 1.990 . S
N317 C316 1.314 . S
N317 C320 1.279 . S
C318 C316 1.353 . S
C318 C321 1.348 . S
C318 H350 0.929 . S
C319 C320 1.358 . S
C319 C321 1.356 . S
C319 H351 0.930 . S
C320 N317 1.279 . S
C320 C319 1.358 . S
C320 H323 0.930 . S
C321 C318 1.348 . S
C321 C319 1.356 . S
H322 C316 0.930 . S
H323 C320 0.930 . S
O324 Li264 1.956 . S
O324 Li265 1.970 . S
O324 Li266 1.961 . S
O324 C268 1.325 . S
O325 Li264 1.970 . S
O325 Li265 1.956 . S
O325 Li267 1.961 . S
O325 C274 1.325 . S
O326 Li264 1.961 . S
O326 Li266 1.956 . S
O326 Li267 1.970 . S
O326 C296 1.325 . S
O327 Li265 1.961 . S
O327 Li266 1.970 . S
O327 Li267 1.956 . S
O327 C302 1.325 . S
H328 C270 0.929 . S
H329 C271 0.930 . S
H330 C272 0.930 . S
H331 C273 0.930 . S
H332 C275 0.930 . S
H333 C277 0.929 . S
H334 C278 0.930 . S
H335 C279 0.930 . S
H336 C282 0.930 . S
H337 C285 0.929 . S
H338 C290 0.929 . S
H339 C291 0.930 . S
H340 C298 0.929 . S
H341 C299 0.930 . S
H342 C300 0.930 . S
H343 C301 0.930 . S
H344 C303 0.929 . S
H345 C304 0.930 . S
H346 C305 0.930 . S
H347 C306 0.930 . S
H348 C310 0.929 . S
H349 C312 0.930 . S
H350 C318 0.929 . S
H351 C319 0.930 . S
Li352 N369 1.990 . S
Li352 O412 1.956 . S
Li352 O413 1.970 . S
Li352 O414 1.961 . S
Li353 N377 1.990 . S
Li353 O412 1.970 . S
Li353 O413 1.956 . S
Li353 O415 1.961 . S
Li354 N399 1.990 . S
Li354 O412 1.961 . S
Li354 O414 1.956 . S
Li354 O415 1.970 . S
Li355 N405 1.990 . S
Li355 O413 1.961 . S
Li355 O414 1.970 . S
Li355 O415 1.956 . S
C356 C358 1.348 . S
C356 C359 1.356 . S
C356 O412 1.325 . S
N357 C360 1.314 . S
N357 C361 1.279 . S
C358 C356 1.348 . S
C358 C360 1.353 . S
C358 H416 0.929 . S
C359 C356 1.356 . S
C359 C361 1.358 . S
C359 H417 0.930 . S
C360 N357 1.314 . S
C360 C358 1.353 . S
C360 H418 0.930 . S
C361 N357 1.279 . S
C361 C359 1.358 . S
C361 H419 0.930 . S
C362 C365 1.348 . S
C362 C366 1.356 . S
C362 O413 1.325 . S
C363 N364 1.279 . S
C363 C366 1.358 . S
C363 H420 0.930 . S
N364 C363 1.279 . S
N364 C367 1.314 . S
C365 C362 1.348 . S
C365 C367 1.353 . S
C365 H421 0.929 . S
C366 C362 1.356 . S
C366 C363 1.358 . S
C366 H422 0.930 . S
C367 N364 1.314 . S
C367 C365 1.353 . S
C367 H423 0.930 . S
C368 N369 1.314 . S
C368 C373 1.353 . S
C368 H374 0.930 . S
N369 Li352 1.990 . S
N369 C368 1.314 . S
N369 C371 1.279 . S
C370 C371 1.358 . S
C370 C372 1.356 . S
C370 H424 0.930 . S
C371 N369 1.279 . S
C371 C370 1.358 . S
C371 H375 0.930 . S
C372 C370 1.356 . S
C372 C373 1.348 . S
C373 C368 1.353 . S
C373 C372 1.348 . S
C373 H425 0.929 . S
H374 C368 0.930 . S
H375 C371 0.930 . S
C376 N377 1.314 . S
C376 C378 1.353 . S
C376 H382 0.930 . S
N377 Li353 1.990 . S
N377 C376 1.314 . S
N377 C380 1.279 . S
C378 C376 1.353 . S
C378 C381 1.348 . S
C378 H426 0.929 . S
C379 C380 1.358 . S
C379 C381 1.356 . S
C379 H427 0.930 . S
C380 N377 1.279 . S
C380 C379 1.358 . S
C380 H383 0.930 . S
C381 C378 1.348 . S
C381 C379 1.356 . S
H382 C376 0.930 . S
H383 C380 0.930 . S
C384 C386 1.348 . S
C384 C387 1.356 . S
C384 O414 1.325 . S
N385 C388 1.314 . S
N385 C389 1.279 . S
C386 C384 1.348 . S
C386 C388 1.353 . S
C386 H428 0.929 . S
C387 C384 1.356 . S
C387 C389 1.358 . S
C387 H429 0.930 . S
C388 N385 1.314 . S
C388 C386 1.353 . S
C388 H430 0.930 . S
C389 N385 1.279 . S
C389 C387 1.358 . S
C389 H431 0.930 . S
C390 C391 1.348 . S
C390 C392 1.356 . S
C390 O415 1.325 . S
C391 C390 1.348 . S
C391 C393 1.353 . S
C391 H432 0.929 . S
C392 C390 1.356 . S
C392 C394 1.358 . S
C392 H433 0.930 . S
C393 C391 1.353 . S
C393 N395 1.314 . S
C393 H434 0.930 . S
C394 C392 1.358 . S
C394 N395 1.279 . S
C394 H435 0.930 . S
N395 C393 1.314 . S
N395 C394 1.279 . S
C396 C398 1.353 . S
C396 N399 1.314 . S
C396 H402 0.930 . S
C397 N399 1.279 . S
C397 C400 1.358 . S
C397 H403 0.930 . S
C398 C396 1.353 . S
C398 C401 1.348 . S
C398 H436 0.929 . S
N399 Li354 1.990 . S
N399 C396 1.314 . S
N399 C397 1.279 . S
C400 C397 1.358 . S
C400 C401 1.356 . S
C400 H437 0.930 . S
C401 C398 1.348 . S
C401 C400 1.356 . S
H402 C396 0.930 . S
H403 C397 0.930 . S
C404 N405 1.314 . S
C404 C406 1.353 . S
C404 H410 0.930 . S
N405 Li355 1.990 . S
N405 C404 1.314 . S
N405 C408 1.279 . S
C406 C404 1.353 . S
C406 C409 1.348 . S
C406 H438 0.929 . S
C407 C408 1.358 . S
C407 C409 1.356 . S
C407 H439 0.930 . S
C408 N405 1.279 . S
C408 C407 1.358 . S
C408 H411 0.930 . S
C409 C406 1.348 . S
C409 C407 1.356 . S
H410 C404 0.930 . S
H411 C408 0.930 . S
O412 Li352 1.956 . S
O412 Li353 1.970 . S
O412 Li354 1.961 . S
O412 C356 1.325 . S
O413 Li352 1.970 . S
O413 Li353 1.956 . S
O413 Li355 1.961 . S
O413 C362 1.325 . S
O414 Li352 1.961 . S
O414 Li354 1.956 . S
O414 Li355 1.970 . S
O414 C384 1.325 . S
O415 Li353 1.961 . S
O415 Li354 1.970 . S
O415 Li355 1.956 . S
O415 C390 1.325 . S
H416 C358 0.929 . S
H417 C359 0.930 . S
H418 C360 0.930 . S
H419 C361 0.930 . S
H420 C363 0.930 . S
H421 C365 0.929 . S
H422 C366 0.930 . S
H423 C367 0.930 . S
H424 C370 0.930 . S
H425 C373 0.929 . S
H426 C378 0.929 . S
H427 C379 0.930 . S
H428 C386 0.929 . S
H429 C387 0.930 . S
H430 C388 0.930 . S
H431 C389 0.930 . S
H432 C391 0.929 . S
H433 C392 0.930 . S
H434 C393 0.930 . S
H435 C394 0.930 . S
H436 C398 0.929 . S
H437 C400 0.930 . S
H438 C406 0.929 . S
H439 C407 0.930 . S
Li440 N457 1.990 . S
Li440 O500 1.956 . S
Li440 O501 1.970 . S
Li440 O502 1.961 . S
Li441 N465 1.990 . S
Li441 O500 1.970 . S
Li441 O501 1.956 . S
Li441 O503 1.961 . S
Li442 N487 1.990 . S
Li442 O500 1.961 . S
Li442 O502 1.956 . S
Li442 O503 1.970 . S
Li443 N493 1.990 . S
Li443 O501 1.961 . S
Li443 O502 1.970 . S
Li443 O503 1.956 . S
C444 C446 1.348 . S
C444 C447 1.356 . S
C444 O500 1.325 . S
N445 C448 1.314 . S
N445 C449 1.279 . S
C446 C444 1.348 . S
C446 C448 1.353 . S
C446 H504 0.929 . S
C447 C444 1.356 . S
C447 C449 1.358 . S
C447 H505 0.930 . S
C448 N445 1.314 . S
C448 C446 1.353 . S
C448 H506 0.930 . S
C449 N445 1.279 . S
C449 C447 1.358 . S
C449 H507 0.930 . S
C450 C453 1.348 . S
C450 C454 1.356 . S
C450 O501 1.325 . S
C451 N452 1.279 . S
C451 C454 1.358 . S
C451 H508 0.930 . S
N452 C451 1.279 . S
N452 C455 1.314 . S
C453 C450 1.348 . S
C453 C455 1.353 . S
C453 H509 0.929 . S
C454 C450 1.356 . S
C454 C451 1.358 . S
C454 H510 0.930 . S
C455 N452 1.314 . S
C455 C453 1.353 . S
C455 H511 0.930 . S
C456 N457 1.314 . S
C456 C461 1.353 . S
C456 H462 0.930 . S
N457 Li440 1.990 . S
N457 C456 1.314 . S
N457 C459 1.279 . S
C458 C459 1.358 . S
C458 C460 1.356 . S
C458 H512 0.930 . S
C459 N457 1.279 . S
C459 C458 1.358 . S
C459 H463 0.930 . S
C460 C458 1.356 . S
C460 C461 1.348 . S
C461 C456 1.353 . S
C461 C460 1.348 . S
C461 H513 0.929 . S
H462 C456 0.930 . S
H463 C459 0.930 . S
C464 N465 1.314 . S
C464 C466 1.353 . S
C464 H470 0.930 . S
N465 Li441 1.990 . S
N465 C464 1.314 . S
N465 C468 1.279 . S
C466 C464 1.353 . S
C466 C469 1.348 . S
C466 H514 0.929 . S
C467 C468 1.358 . S
C467 C469 1.356 . S
C467 H515 0.930 . S
C468 N465 1.279 . S
C468 C467 1.358 . S
C468 H471 0.930 . S
C469 C466 1.348 . S
C469 C467 1.356 . S
H470 C464 0.930 . S
H471 C468 0.930 . S
C472 C474 1.348 . S
C472 C475 1.356 . S
C472 O502 1.325 . S
N473 C476 1.314 . S
N473 C477 1.279 . S
C474 C472 1.348 . S
C474 C476 1.353 . S
C474 H516 0.929 . S
C475 C472 1.356 . S
C475 C477 1.358 . S
C475 H517 0.930 . S
C476 N473 1.314 . S
C476 C474 1.353 . S
C476 H518 0.930 . S
C477 N473 1.279 . S
C477 C475 1.358 . S
C477 H519 0.930 . S
C478 C479 1.348 . S
C478 C480 1.356 . S
C478 O503 1.325 . S
C479 C478 1.348 . S
C479 C481 1.353 . S
C479 H520 0.929 . S
C480 C478 1.356 . S
C480 C482 1.358 . S
C480 H521 0.930 . S
C481 C479 1.353 . S
C481 N483 1.314 . S
C481 H522 0.930 . S
C482 C480 1.358 . S
C482 N483 1.279 . S
C482 H523 0.930 . S
N483 C481 1.314 . S
N483 C482 1.279 . S
C484 C486 1.353 . S
C484 N487 1.314 . S
C484 H490 0.930 . S
C485 N487 1.279 . S
C485 C488 1.358 . S
C485 H491 0.930 . S
C486 C484 1.353 . S
C486 C489 1.348 . S
C486 H524 0.929 . S
N487 Li442 1.990 . S
N487 C484 1.314 . S
N487 C485 1.279 . S
C488 C485 1.358 . S
C488 C489 1.356 . S
C488 H525 0.930 . S
C489 C486 1.348 . S
C489 C488 1.356 . S
H490 C484 0.930 . S
H491 C485 0.930 . S
C492 N493 1.314 . S
C492 C494 1.353 . S
C492 H498 0.930 . S
N493 Li443 1.990 . S
N493 C492 1.314 . S
N493 C496 1.279 . S
C494 C492 1.353 . S
C494 C497 1.348 . S
C494 H526 0.929 . S
C495 C496 1.358 . S
C495 C497 1.356 . S
C495 H527 0.930 . S
C496 N493 1.279 . S
C496 C495 1.358 . S
C496 H499 0.930 . S
C497 C494 1.348 . S
C497 C495 1.356 . S
H498 C492 0.930 . S
H499 C496 0.930 . S
O500 Li440 1.956 . S
O500 Li441 1.970 . S
O500 Li442 1.961 . S
O500 C444 1.325 . S
O501 Li440 1.970 . S
O501 Li441 1.956 . S
O501 Li443 1.961 . S
O501 C450 1.325 . S
O502 Li440 1.961 . S
O502 Li442 1.956 . S
O502 Li443 1.970 . S
O502 C472 1.325 . S
O503 Li441 1.961 . S
O503 Li442 1.970 . S
O503 Li443 1.956 . S
O503 C478 1.325 . S
H504 C446 0.929 . S
H505 C447 0.930 . S
H506 C448 0.930 . S
H507 C449 0.930 . S
H508 C451 0.930 . S
H509 C453 0.929 . S
H510 C454 0.930 . S
H511 C455 0.930 . S
H512 C458 0.930 . S
H513 C461 0.929 . S
H514 C466 0.929 . S
H515 C467 0.930 . S
H516 C474 0.929 . S
H517 C475 0.930 . S
H518 C476 0.930 . S
H519 C477 0.930 . S
H520 C479 0.929 . S
H521 C480 0.930 . S
H522 C481 0.930 . S
H523 C482 0.930 . S
H524 C486 0.929 . S
H525 C488 0.930 . S
H526 C494 0.929 . S
H527 C495 0.930 . S
Li528 N545 1.990 . S
Li528 O588 1.956 . S
Li528 O589 1.970 . S
Li528 O590 1.961 . S
Li529 N553 1.990 . S
Li529 O588 1.970 . S
Li529 O589 1.956 . S
Li529 O591 1.961 . S
Li530 N575 1.990 . S
Li530 O588 1.961 . S
Li530 O590 1.956 . S
Li530 O591 1.970 . S
Li531 N581 1.990 . S
Li531 O589 1.961 . S
Li531 O590 1.970 . S
Li531 O591 1.956 . S
C532 C534 1.348 . S
C532 C535 1.356 . S
C532 O588 1.325 . S
N533 C536 1.314 . S
N533 C537 1.279 . S
C534 C532 1.348 . S
C534 C536 1.353 . S
C534 H592 0.929 . S
C535 C532 1.356 . S
C535 C537 1.358 . S
C535 H593 0.930 . S
C536 N533 1.314 . S
C536 C534 1.353 . S
C536 H594 0.930 . S
C537 N533 1.279 . S
C537 C535 1.358 . S
C537 H595 0.930 . S
C538 C541 1.348 . S
C538 C542 1.356 . S
C538 O589 1.325 . S
C539 N540 1.279 . S
C539 C542 1.358 . S
C539 H596 0.930 . S
N540 C539 1.279 . S
N540 C543 1.314 . S
C541 C538 1.348 . S
C541 C543 1.353 . S
C541 H597 0.929 . S
C542 C538 1.356 . S
C542 C539 1.358 . S
C542 H598 0.930 . S
C543 N540 1.314 . S
C543 C541 1.353 . S
C543 H599 0.930 . S
C544 N545 1.314 . S
C544 C549 1.353 . S
C544 H550 0.930 . S
N545 Li528 1.990 . S
N545 C544 1.314 . S
N545 C547 1.279 . S
C546 C547 1.358 . S
C546 C548 1.356 . S
C546 H600 0.930 . S
C547 N545 1.279 . S
C547 C546 1.358 . S
C547 H551 0.930 . S
C548 C546 1.356 . S
C548 C549 1.348 . S
C549 C544 1.353 . S
C549 C548 1.348 . S
C549 H601 0.929 . S
H550 C544 0.930 . S
H551 C547 0.930 . S
C552 N553 1.314 . S
C552 C554 1.353 . S
C552 H558 0.930 . S
N553 Li529 1.990 . S
N553 C552 1.314 . S
N553 C556 1.279 . S
C554 C552 1.353 . S
C554 C557 1.348 . S
C554 H602 0.929 . S
C555 C556 1.358 . S
C555 C557 1.356 . S
C555 H603 0.930 . S
C556 N553 1.279 . S
C556 C555 1.358 . S
C556 H559 0.930 . S
C557 C554 1.348 . S
C557 C555 1.356 . S
H558 C552 0.930 . S
H559 C556 0.930 . S
C560 C562 1.348 . S
C560 C563 1.356 . S
C560 O590 1.325 . S
N561 C564 1.314 . S
N561 C565 1.279 . S
C562 C560 1.348 . S
C562 C564 1.353 . S
C562 H604 0.929 . S
C563 C560 1.356 . S
C563 C565 1.358 . S
C563 H605 0.930 . S
C564 N561 1.314 . S
C564 C562 1.353 . S
C564 H606 0.930 . S
C565 N561 1.279 . S
C565 C563 1.358 . S
C565 H607 0.930 . S
C566 C567 1.348 . S
C566 C568 1.356 . S
C566 O591 1.325 . S
C567 C566 1.348 . S
C567 C569 1.353 . S
C567 H608 0.929 . S
C568 C566 1.356 . S
C568 C570 1.358 . S
C568 H609 0.930 . S
C569 C567 1.353 . S
C569 N571 1.314 . S
C569 H610 0.930 . S
C570 C568 1.358 . S
C570 N571 1.279 . S
C570 H611 0.930 . S
N571 C569 1.314 . S
N571 C570 1.279 . S
C572 C574 1.353 . S
C572 N575 1.314 . S
C572 H578 0.930 . S
C573 N575 1.279 . S
C573 C576 1.358 . S
C573 H579 0.930 . S
C574 C572 1.353 . S
C574 C577 1.348 . S
C574 H612 0.929 . S
N575 Li530 1.990 . S
N575 C572 1.314 . S
N575 C573 1.279 . S
C576 C573 1.358 . S
C576 C577 1.356 . S
C576 H613 0.930 . S
C577 C574 1.348 . S
C577 C576 1.356 . S
H578 C572 0.930 . S
H579 C573 0.930 . S
C580 N581 1.314 . S
C580 C582 1.353 . S
C580 H586 0.930 . S
N581 Li531 1.990 . S
N581 C580 1.314 . S
N581 C584 1.279 . S
C582 C580 1.353 . S
C582 C585 1.348 . S
C582 H614 0.929 . S
C583 C584 1.358 . S
C583 C585 1.356 . S
C583 H615 0.930 . S
C584 N581 1.279 . S
C584 C583 1.358 . S
C584 H587 0.930 . S
C585 C582 1.348 . S
C585 C583 1.356 . S
H586 C580 0.930 . S
H587 C584 0.930 . S
O588 Li528 1.956 . S
O588 Li529 1.970 . S
O588 Li530 1.961 . S
O588 C532 1.325 . S
O589 Li528 1.970 . S
O589 Li529 1.956 . S
O589 Li531 1.961 . S
O589 C538 1.325 . S
O590 Li528 1.961 . S
O590 Li530 1.956 . S
O590 Li531 1.970 . S
O590 C560 1.325 . S
O591 Li529 1.961 . S
O591 Li530 1.970 . S
O591 Li531 1.956 . S
O591 C566 1.325 . S
H592 C534 0.929 . S
H593 C535 0.930 . S
H594 C536 0.930 . S
H595 C537 0.930 . S
H596 C539 0.930 . S
H597 C541 0.929 . S
H598 C542 0.930 . S
H599 C543 0.930 . S
H600 C546 0.930 . S
H601 C549 0.929 . S
H602 C554 0.929 . S
H603 C555 0.930 . S
H604 C562 0.929 . S
H605 C563 0.930 . S
H606 C564 0.930 . S
H607 C565 0.930 . S
H608 C567 0.929 . S
H609 C568 0.930 . S
H610 C569 0.930 . S
H611 C570 0.930 . S
H612 C574 0.929 . S
H613 C576 0.930 . S
H614 C582 0.929 . S
H615 C583 0.930 . S
Li616 N633 1.990 . S
Li616 O676 1.956 . S
Li616 O677 1.970 . S
Li616 O678 1.961 . S
Li617 N641 1.990 . S
Li617 O676 1.970 . S
Li617 O677 1.956 . S
Li617 O679 1.961 . S
Li618 N663 1.990 . S
Li618 O676 1.961 . S
Li618 O678 1.956 . S
Li618 O679 1.970 . S
Li619 N669 1.990 . S
Li619 O677 1.961 . S
Li619 O678 1.970 . S
Li619 O679 1.956 . S
C620 C622 1.348 . S
C620 C623 1.356 . S
C620 O676 1.325 . S
N621 C624 1.314 . S
N621 C625 1.279 . S
C622 C620 1.348 . S
C622 C624 1.353 . S
C622 H680 0.929 . S
C623 C620 1.356 . S
C623 C625 1.358 . S
C623 H681 0.930 . S
C624 N621 1.314 . S
C624 C622 1.353 . S
C624 H682 0.930 . S
C625 N621 1.279 . S
C625 C623 1.358 . S
C625 H683 0.930 . S
C626 C629 1.348 . S
C626 C630 1.356 . S
C626 O677 1.325 . S
C627 N628 1.279 . S
C627 C630 1.358 . S
C627 H684 0.930 . S
N628 C627 1.279 . S
N628 C631 1.314 . S
C629 C626 1.348 . S
C629 C631 1.353 . S
C629 H685 0.929 . S
C630 C626 1.356 . S
C630 C627 1.358 . S
C630 H686 0.930 . S
C631 N628 1.314 . S
C631 C629 1.353 . S
C631 H687 0.930 . S
C632 N633 1.314 . S
C632 C637 1.353 . S
C632 H638 0.930 . S
N633 Li616 1.990 . S
N633 C632 1.314 . S
N633 C635 1.279 . S
C634 C635 1.358 . S
C634 C636 1.356 . S
C634 H688 0.930 . S
C635 N633 1.279 . S
C635 C634 1.358 . S
C635 H639 0.930 . S
C636 C634 1.356 . S
C636 C637 1.348 . S
C637 C632 1.353 . S
C637 C636 1.348 . S
C637 H689 0.929 . S
H638 C632 0.930 . S
H639 C635 0.930 . S
C640 N641 1.314 . S
C640 C642 1.353 . S
C640 H646 0.930 . S
N641 Li617 1.990 . S
N641 C640 1.314 . S
N641 C644 1.279 . S
C642 C640 1.353 . S
C642 C645 1.348 . S
C642 H690 0.929 . S
C643 C644 1.358 . S
C643 C645 1.356 . S
C643 H691 0.930 . S
C644 N641 1.279 . S
C644 C643 1.358 . S
C644 H647 0.930 . S
C645 C642 1.348 . S
C645 C643 1.356 . S
H646 C640 0.930 . S
H647 C644 0.930 . S
C648 C650 1.348 . S
C648 C651 1.356 . S
C648 O678 1.325 . S
N649 C652 1.314 . S
N649 C653 1.279 . S
C650 C648 1.348 . S
C650 C652 1.353 . S
C650 H692 0.929 . S
C651 C648 1.356 . S
C651 C653 1.358 . S
C651 H693 0.930 . S
C652 N649 1.314 . S
C652 C650 1.353 . S
C652 H694 0.930 . S
C653 N649 1.279 . S
C653 C651 1.358 . S
C653 H695 0.930 . S
C654 C655 1.348 . S
C654 C656 1.356 . S
C654 O679 1.325 . S
C655 C654 1.348 . S
C655 C657 1.353 . S
C655 H696 0.929 . S
C656 C654 1.356 . S
C656 C658 1.358 . S
C656 H697 0.930 . S
C657 C655 1.353 . S
C657 N659 1.314 . S
C657 H698 0.930 . S
C658 C656 1.358 . S
C658 N659 1.279 . S
C658 H699 0.930 . S
N659 C657 1.314 . S
N659 C658 1.279 . S
C660 C662 1.353 . S
C660 N663 1.314 . S
C660 H666 0.930 . S
C661 N663 1.279 . S
C661 C664 1.358 . S
C661 H667 0.930 . S
C662 C660 1.353 . S
C662 C665 1.348 . S
C662 H700 0.929 . S
N663 Li618 1.990 . S
N663 C660 1.314 . S
N663 C661 1.279 . S
C664 C661 1.358 . S
C664 C665 1.356 . S
C664 H701 0.930 . S
C665 C662 1.348 . S
C665 C664 1.356 . S
H666 C660 0.930 . S
H667 C661 0.930 . S
C668 N669 1.314 . S
C668 C670 1.353 . S
C668 H674 0.930 . S
N669 Li619 1.990 . S
N669 C668 1.314 . S
N669 C672 1.279 . S
C670 C668 1.353 . S
C670 C673 1.348 . S
C670 H702 0.929 . S
C671 C672 1.358 . S
C671 C673 1.356 . S
C671 H703 0.930 . S
C672 N669 1.279 . S
C672 C671 1.358 . S
C672 H675 0.930 . S
C673 C670 1.348 . S
C673 C671 1.356 . S
H674 C668 0.930 . S
H675 C672 0.930 . S
O676 Li616 1.956 . S
O676 Li617 1.970 . S
O676 Li618 1.961 . S
O676 C620 1.325 . S
O677 Li616 1.970 . S
O677 Li617 1.956 . S
O677 Li619 1.961 . S
O677 C626 1.325 . S
O678 Li616 1.961 . S
O678 Li618 1.956 . S
O678 Li619 1.970 . S
O678 C648 1.325 . S
O679 Li617 1.961 . S
O679 Li618 1.970 . S
O679 Li619 1.956 . S
O679 C654 1.325 . S
H680 C622 0.929 . S
H681 C623 0.930 . S
H682 C624 0.930 . S
H683 C625 0.930 . S
H684 C627 0.930 . S
H685 C629 0.929 . S
H686 C630 0.930 . S
H687 C631 0.930 . S
H688 C634 0.930 . S
H689 C637 0.929 . S
H690 C642 0.929 . S
H691 C643 0.930 . S
H692 C650 0.929 . S
H693 C651 0.930 . S
H694 C652 0.930 . S
H695 C653 0.930 . S
H696 C655 0.929 . S
H697 C656 0.930 . S
H698 C657 0.930 . S
H699 C658 0.930 . S
H700 C662 0.929 . S
H701 C664 0.930 . S
H702 C670 0.929 . S
H703 C671 0.930 . S
Li704 N721 1.990 . S
Li704 O764 1.956 . S
Li704 O765 1.970 . S
Li704 O766 1.961 . S
Li705 N729 1.990 . S
Li705 O764 1.970 . S
Li705 O765 1.956 . S
Li705 O767 1.961 . S
Li706 N751 1.990 . S
Li706 O764 1.961 . S
Li706 O766 1.956 . S
Li706 O767 1.970 . S
Li707 N757 1.990 . S
Li707 O765 1.961 . S
Li707 O766 1.970 . S
Li707 O767 1.956 . S
C708 C710 1.348 . S
C708 C711 1.356 . S
C708 O764 1.325 . S
N709 C712 1.314 . S
N709 C713 1.279 . S
C710 C708 1.348 . S
C710 C712 1.353 . S
C710 H768 0.929 . S
C711 C708 1.356 . S
C711 C713 1.358 . S
C711 H769 0.930 . S
C712 N709 1.314 . S
C712 C710 1.353 . S
C712 H770 0.930 . S
C713 N709 1.279 . S
C713 C711 1.358 . S
C713 H771 0.930 . S
C714 C717 1.348 . S
C714 C718 1.356 . S
C714 O765 1.325 . S
C715 N716 1.279 . S
C715 C718 1.358 . S
C715 H772 0.930 . S
N716 C715 1.279 . S
N716 C719 1.314 . S
C717 C714 1.348 . S
C717 C719 1.353 . S
C717 H773 0.929 . S
C718 C714 1.356 . S
C718 C715 1.358 . S
C718 H774 0.930 . S
C719 N716 1.314 . S
C719 C717 1.353 . S
C719 H775 0.871 1_565 S
C720 N721 1.314 . S
C720 C725 1.353 1_565 S
C720 H726 0.930 . S
N721 Li704 1.990 . S
N721 C720 1.314 . S
N721 C723 1.280 . S
C722 C723 1.357 1_545 S
C722 C724 1.356 . S
C722 H776 0.930 . S
C723 N721 1.280 . S
C723 C722 1.357 1_565 S
C723 H727 0.930 . S
C724 C722 1.356 . S
C724 C725 1.348 . S
C725 C720 1.353 1_545 S
C725 C724 1.348 . S
C725 H777 0.929 . S
H726 C720 0.930 . S
H727 C723 0.930 . S
C728 N729 1.314 . S
C728 C730 1.353 . S
C728 H734 0.930 . S
N729 Li705 1.990 . S
N729 C728 1.314 . S
N729 C732 1.279 . S
C730 C728 1.353 . S
C730 C733 1.348 . S
C730 H778 0.929 . S
C731 C732 1.358 . S
C731 C733 1.356 . S
C731 H779 0.930 . S
C732 N729 1.279 . S
C732 C731 1.358 . S
C732 H735 0.930 . S
C733 C730 1.348 . S
C733 C731 1.356 . S
H734 C728 0.930 . S
H735 C732 0.930 . S
C736 C738 1.348 . S
C736 C739 1.356 . S
C736 O766 1.325 . S
N737 C740 1.314 . S
N737 C741 1.279 . S
C738 C736 1.348 . S
C738 C740 1.353 . S
C738 H780 0.929 . S
C739 C736 1.356 . S
C739 C741 1.358 . S
C739 H781 0.930 . S
C740 N737 1.314 . S
C740 C738 1.353 . S
C740 H782 0.930 . S
C741 N737 1.279 . S
C741 C739 1.358 . S
C741 H783 0.930 . S
C742 C743 1.348 . S
C742 C744 1.356 . S
C742 O767 1.325 . S
C743 C742 1.348 . S
C743 C745 1.353 . S
C743 H784 0.929 . S
C744 C742 1.356 . S
C744 C746 1.358 . S
C744 H785 0.930 . S
C745 C743 1.353 . S
C745 N747 1.314 . S
C745 H786 0.930 . S
C746 C744 1.358 . S
C746 N747 1.279 . S
C746 H787 0.930 . S
N747 C745 1.314 . S
N747 C746 1.279 . S
C748 C750 1.353 . S
C748 N751 1.314 . S
C748 H754 0.930 . S
C749 N751 1.279 . S
C749 C752 1.358 . S
C749 H755 0.930 . S
C750 C748 1.353 . S
C750 C753 1.348 . S
C750 H788 0.929 . S
N751 Li706 1.990 . S
N751 C748 1.314 . S
N751 C749 1.279 . S
C752 C749 1.358 . S
C752 C753 1.356 . S
C752 H789 0.930 . S
C753 C750 1.348 . S
C753 C752 1.356 . S
H754 C748 0.930 . S
H755 C749 0.930 . S
C756 N757 1.314 . S
C756 C758 1.353 . S
C756 H762 0.930 . S
N757 Li707 1.990 . S
N757 C756 1.314 . S
N757 C760 1.279 . S
C758 C756 1.353 . S
C758 C761 1.348 . S
C758 H790 0.929 . S
C759 C760 1.358 . S
C759 C761 1.356 . S
C759 H791 0.930 . S
C760 N757 1.279 . S
C760 C759 1.358 . S
C760 H763 0.930 . S
C761 C758 1.348 . S
C761 C759 1.356 . S
H762 C756 0.930 . S
H763 C760 0.930 . S
O764 Li704 1.956 . S
O764 Li705 1.970 . S
O764 Li706 1.961 . S
O764 C708 1.325 . S
O765 Li704 1.970 . S
O765 Li705 1.956 . S
O765 Li707 1.961 . S
O765 C714 1.325 . S
O766 Li704 1.961 . S
O766 Li706 1.956 . S
O766 Li707 1.970 . S
O766 C736 1.325 . S
O767 Li705 1.961 . S
O767 Li706 1.970 . S
O767 Li707 1.956 . S
O767 C742 1.325 . S
H768 C710 0.929 . S
H769 C711 0.930 . S
H770 C712 0.930 . S
H771 C713 0.930 . S
H772 C715 0.930 . S
H773 C717 0.929 . S
H774 C718 0.930 . S
H775 C719 0.871 1_545 S
H776 C722 0.930 . S
H777 C725 0.929 . S
H778 C730 0.929 . S
H779 C731 0.930 . S
H780 C738 0.929 . S
H781 C739 0.930 . S
H782 C740 0.930 . S
H783 C741 0.930 . S
H784 C743 0.929 . S
H785 C744 0.930 . S
H786 C745 0.930 . S
H787 C746 0.930 . S
H788 C750 0.929 . S
H789 C752 0.930 . S
H790 C758 0.929 . S
H791 C759 0.930 . S
Li792 N809 1.990 . S
Li792 O852 1.956 . S
Li792 O853 1.970 . S
Li792 O854 1.961 . S
Li793 N817 1.990 . S
Li793 O852 1.970 . S
Li793 O853 1.956 . S
Li793 O855 1.961 . S
Li794 N839 1.990 . S
Li794 O852 1.961 . S
Li794 O854 1.956 . S
Li794 O855 1.970 . S
Li795 N845 1.990 . S
Li795 O853 1.961 . S
Li795 O854 1.970 . S
Li795 O855 1.956 . S
C796 C798 1.348 . S
C796 C799 1.356 . S
C796 O852 1.325 . S
N797 C800 1.314 . S
N797 C801 1.279 . S
C798 C796 1.348 . S
C798 C800 1.353 . S
C798 H856 0.929 . S
C799 C796 1.356 . S
C799 C801 1.358 . S
C799 H857 0.930 . S
C800 N797 1.314 . S
C800 C798 1.353 . S
C800 H858 0.930 . S
C801 N797 1.279 . S
C801 C799 1.358 . S
C801 H859 0.930 . S
C802 C805 1.348 . S
C802 C806 1.356 . S
C802 O853 1.325 . S
C803 N804 1.279 . S
C803 C806 1.358 . S
C803 H860 0.930 . S
N804 C803 1.279 . S
N804 C807 1.314 . S
C805 C802 1.348 . S
C805 C807 1.353 . S
C805 H861 0.929 . S
C806 C802 1.356 . S
C806 C803 1.358 . S
C806 H862 0.930 . S
C807 N804 1.314 . S
C807 C805 1.353 . S
C807 H863 0.930 . S
C808 N809 1.314 . S
C808 C813 1.353 . S
C808 H814 0.930 . S
N809 Li792 1.990 . S
N809 C808 1.314 . S
N809 C811 1.279 . S
C810 C811 1.358 . S
C810 C812 1.356 . S
C810 H864 0.930 . S
C811 N809 1.279 . S
C811 C810 1.358 . S
C811 H815 0.930 . S
C812 C810 1.356 . S
C812 C813 1.348 . S
C813 C808 1.353 . S
C813 C812 1.348 . S
C813 H865 0.929 . S
H814 C808 0.930 . S
H815 C811 0.930 . S
C816 N817 1.294 1_455 S
C816 C818 1.373 . S
C816 H822 0.929 . S
N817 Li793 1.990 . S
N817 C816 1.294 1_655 S
N817 C820 1.279 . S
C818 C816 1.373 . S
C818 C821 1.348 . S
C818 H866 0.929 . S
C819 C820 1.307 1_455 S
C819 C821 1.411 . S
C819 H867 0.928 . S
C820 N817 1.279 . S
C820 C819 1.307 1_655 S
C820 H823 0.930 . S
C821 C818 1.348 . S
C821 C819 1.411 . S
H822 C816 0.929 . S
H823 C820 0.930 . S
C824 C826 1.348 . S
C824 C827 1.356 . S
C824 O854 1.325 . S
N825 C828 1.314 . S
N825 C829 1.279 . S
C826 C824 1.348 . S
C826 C828 1.353 . S
C826 H868 0.929 . S
C827 C824 1.356 . S
C827 C829 1.358 . S
C827 H869 0.930 . S
C828 N825 1.314 . S
C828 C826 1.353 . S
C828 H870 0.930 . S
C829 N825 1.279 . S
C829 C827 1.358 . S
C829 H871 0.930 . S
C830 C831 1.348 . S
C830 C832 1.356 . S
C830 O855 1.325 . S
C831 C830 1.348 . S
C831 C833 1.353 . S
C831 H872 0.929 . S
C832 C830 1.356 . S
C832 C834 1.358 . S
C832 H873 0.930 . S
C833 C831 1.353 . S
C833 N835 1.314 . S
C833 H874 0.930 . S
C834 C832 1.358 . S
C834 N835 1.279 . S
C834 H875 0.930 . S
N835 C833 1.314 . S
N835 C834 1.279 . S
C836 C838 1.353 . S
C836 N839 1.314 . S
C836 H842 0.930 . S
C837 N839 1.279 . S
C837 C840 1.358 . S
C837 H843 0.930 . S
C838 C836 1.353 . S
C838 C841 1.348 . S
C838 H876 0.929 . S
N839 Li794 1.990 . S
N839 C836 1.314 . S
N839 C837 1.279 . S
C840 C837 1.358 . S
C840 C841 1.356 . S
C840 H877 0.930 . S
C841 C838 1.348 . S
C841 C840 1.356 . S
H842 C836 0.930 . S
H843 C837 0.930 . S
C844 N845 1.314 . S
C844 C846 1.353 . S
C844 H850 0.930 . S
N845 Li795 1.990 . S
N845 C844 1.314 . S
N845 C848 1.279 . S
C846 C844 1.353 . S
C846 C849 1.348 . S
C846 H878 0.929 . S
C847 C848 1.358 . S
C847 C849 1.356 . S
C847 H879 0.930 . S
C848 N845 1.279 . S
C848 C847 1.358 . S
C848 H851 0.930 . S
C849 C846 1.348 . S
C849 C847 1.356 . S
H850 C844 0.930 . S
H851 C848 0.930 . S
O852 Li792 1.956 . S
O852 Li793 1.970 . S
O852 Li794 1.961 . S
O852 C796 1.325 . S
O853 Li792 1.970 . S
O853 Li793 1.956 . S
O853 Li795 1.961 . S
O853 C802 1.325 . S
O854 Li792 1.961 . S
O854 Li794 1.956 . S
O854 Li795 1.970 . S
O854 C824 1.325 . S
O855 Li793 1.961 . S
O855 Li794 1.970 . S
O855 Li795 1.956 . S
O855 C830 1.325 . S
H856 C798 0.929 . S
H857 C799 0.930 . S
H858 C800 0.930 . S
H859 C801 0.930 . S
H860 C803 0.930 . S
H861 C805 0.929 . S
H862 C806 0.930 . S
H863 C807 0.930 . S
H864 C810 0.930 . S
H865 C813 0.929 . S
H866 C818 0.929 . S
H867 C819 0.928 . S
H868 C826 0.929 . S
H869 C827 0.930 . S
H870 C828 0.930 . S
H871 C829 0.930 . S
H872 C831 0.929 . S
H873 C832 0.930 . S
H874 C833 0.930 . S
H875 C834 0.930 . S
H876 C838 0.929 . S
H877 C840 0.930 . S
H878 C846 0.929 . S
H879 C847 0.930 . S
Li880 N897 1.990 . S
Li880 O940 1.956 . S
Li880 O941 1.970 . S
Li880 O942 1.961 . S
Li881 N905 1.990 . S
Li881 O940 1.970 . S
Li881 O941 1.956 . S
Li881 O943 1.961 . S
Li882 N927 1.990 . S
Li882 O940 1.961 . S
Li882 O942 1.956 . S
Li882 O943 1.970 . S
Li883 N933 1.990 . S
Li883 O941 1.961 . S
Li883 O942 1.970 . S
Li883 O943 1.956 . S
C884 C886 1.348 . S
C884 C887 1.356 . S
C884 O940 1.325 . S
N885 C888 1.314 . S
N885 C889 1.279 . S
C886 C884 1.348 . S
C886 C888 1.353 . S
C886 H944 0.929 . S
C887 C884 1.356 . S
C887 C889 1.358 . S
C887 H945 0.930 . S
C888 N885 1.314 . S
C888 C886 1.353 . S
C888 H946 0.930 . S
C889 N885 1.279 . S
C889 C887 1.358 . S
C889 H947 0.930 . S
C890 C893 1.348 . S
C890 C894 1.356 . S
C890 O941 1.325 . S
C891 N892 1.279 . S
C891 C894 1.358 . S
C891 H948 0.930 . S
N892 C891 1.279 . S
N892 C895 1.314 . S
C893 C890 1.348 . S
C893 C895 1.353 . S
C893 H949 0.929 . S
C894 C890 1.356 . S
C894 C891 1.358 . S
C894 H950 0.930 . S
C895 N892 1.314 . S
C895 C893 1.353 . S
C895 H951 0.930 . S
C896 N897 1.314 . S
C896 C901 1.353 . S
C896 H902 0.930 . S
N897 Li880 1.990 . S
N897 C896 1.314 . S
N897 C899 1.279 . S
C898 C899 1.358 . S
C898 C900 1.356 . S
C898 H952 0.930 . S
C899 N897 1.279 . S
C899 C898 1.358 . S
C899 H903 0.930 . S
C900 C898 1.356 . S
C900 C901 1.348 . S
C901 C896 1.353 . S
C901 C900 1.348 . S
C901 H953 0.929 . S
H902 C896 0.930 . S
H903 C899 0.930 . S
C904 N905 1.314 . S
C904 C906 1.353 . S
C904 H910 0.930 . S
N905 Li881 1.990 . S
N905 C904 1.314 . S
N905 C908 1.279 . S
C906 C904 1.353 . S
C906 C909 1.348 . S
C906 H954 0.929 . S
C907 C908 1.358 . S
C907 C909 1.356 . S
C907 H955 0.930 . S
C908 N905 1.279 . S
C908 C907 1.358 . S
C908 H911 0.930 . S
C909 C906 1.348 . S
C909 C907 1.356 . S
H910 C904 0.930 . S
H911 C908 0.930 . S
C912 C914 1.348 . S
C912 C915 1.356 . S
C912 O942 1.325 . S
N913 C916 1.314 . S
N913 C917 1.279 . S
C914 C912 1.348 . S
C914 C916 1.353 . S
C914 H956 0.929 . S
C915 C912 1.356 . S
C915 C917 1.358 . S
C915 H957 0.930 . S
C916 N913 1.314 . S
C916 C914 1.353 . S
C916 H958 0.930 . S
C917 N913 1.279 . S
C917 C915 1.358 . S
C917 H959 0.930 . S
C918 C919 1.348 . S
C918 C920 1.356 . S
C918 O943 1.325 . S
C919 C918 1.348 . S
C919 C921 1.353 . S
C919 H960 0.929 . S
C920 C918 1.356 . S
C920 C922 1.358 . S
C920 H961 0.930 . S
C921 C919 1.353 . S
C921 N923 1.314 . S
C921 H962 0.871 1_545 S
C922 C920 1.358 . S
C922 N923 1.279 . S
C922 H963 0.930 . S
N923 C921 1.314 . S
N923 C922 1.279 . S
C924 C926 1.353 1_545 S
C924 N927 1.314 . S
C924 H930 0.930 . S
C925 N927 1.280 . S
C925 C928 1.358 1_545 S
C925 H931 0.930 . S
C926 C924 1.353 1_565 S
C926 C929 1.348 . S
C926 H964 0.929 . S
N927 Li882 1.990 . S
N927 C924 1.314 . S
N927 C925 1.280 . S
C928 C925 1.358 1_565 S
C928 C929 1.356 . S
C928 H965 0.930 . S
C929 C926 1.348 . S
C929 C928 1.356 . S
H930 C924 0.930 . S
H931 C925 0.930 . S
C932 N933 1.314 . S
C932 C934 1.353 . S
C932 H938 0.930 . S
N933 Li883 1.990 . S
N933 C932 1.314 . S
N933 C936 1.279 . S
C934 C932 1.353 . S
C934 C937 1.348 . S
C934 H966 0.929 . S
C935 C936 1.358 . S
C935 C937 1.356 . S
C935 H967 0.930 . S
C936 N933 1.279 . S
C936 C935 1.358 . S
C936 H939 0.930 . S
C937 C934 1.348 . S
C937 C935 1.356 . S
H938 C932 0.930 . S
H939 C936 0.930 . S
O940 Li880 1.956 . S
O940 Li881 1.970 . S
O940 Li882 1.961 . S
O940 C884 1.325 . S
O941 Li880 1.970 . S
O941 Li881 1.956 . S
O941 Li883 1.961 . S
O941 C890 1.325 . S
O942 Li880 1.961 . S
O942 Li882 1.956 . S
O942 Li883 1.970 . S
O942 C912 1.325 . S
O943 Li881 1.961 . S
O943 Li882 1.970 . S
O943 Li883 1.956 . S
O943 C918 1.325 . S
H944 C886 0.929 . S
H945 C887 0.930 . S
H946 C888 0.930 . S
H947 C889 0.930 . S
H948 C891 0.930 . S
H949 C893 0.929 . S
H950 C894 0.930 . S
H951 C895 0.930 . S
H952 C898 0.930 . S
H953 C901 0.929 . S
H954 C906 0.929 . S
H955 C907 0.930 . S
H956 C914 0.929 . S
H957 C915 0.930 . S
H958 C916 0.930 . S
H959 C917 0.930 . S
H960 C919 0.929 . S
H961 C920 0.930 . S
H962 C921 0.871 1_565 S
H963 C922 0.930 . S
H964 C926 0.929 . S
H965 C928 0.930 . S
H966 C934 0.929 . S
H967 C935 0.930 . S
Li968 N985 1.990 . S
Li968 O1028 1.956 . S
Li968 O1029 1.970 . S
Li968 O1030 1.961 . S
Li969 N993 1.990 . S
Li969 O1028 1.970 . S
Li969 O1029 1.956 . S
Li969 O1031 1.961 . S
Li970 N1015 1.990 . S
Li970 O1028 1.961 . S
Li970 O1030 1.956 . S
Li970 O1031 1.970 . S
Li971 N1021 1.990 . S
Li971 O1029 1.961 . S
Li971 O1030 1.970 . S
Li971 O1031 1.956 . S
C972 C974 1.348 . S
C972 C975 1.356 . S
C972 O1028 1.325 . S
N973 C976 1.314 . S
N973 C977 1.279 . S
C974 C972 1.348 . S
C974 C976 1.353 . S
C974 H1032 0.929 . S
C975 C972 1.356 . S
C975 C977 1.358 . S
C975 H1033 0.930 . S
C976 N973 1.314 . S
C976 C974 1.353 . S
C976 H1034 0.930 . S
C977 N973 1.279 . S
C977 C975 1.358 . S
C977 H1035 0.930 . S
C978 C981 1.348 . S
C978 C982 1.356 . S
C978 O1029 1.325 . S
C979 N980 1.279 . S
C979 C982 1.358 . S
C979 H1036 0.930 . S
N980 C979 1.279 . S
N980 C983 1.314 . S
C981 C978 1.348 . S
C981 C983 1.353 . S
C981 H1037 0.929 . S
C982 C978 1.356 . S
C982 C979 1.358 . S
C982 H1038 0.930 . S
C983 N980 1.314 . S
C983 C981 1.353 . S
C983 H1039 0.930 . S
C984 N985 1.295 1_655 S
C984 C989 1.372 . S
C984 H990 0.929 . S
N985 Li968 1.990 . S
N985 C984 1.295 1_455 S
N985 C987 1.279 . S
C986 C987 1.307 1_655 S
C986 C988 1.411 . S
C986 H1040 0.928 . S
C987 N985 1.279 . S
C987 C986 1.307 1_455 S
C987 H991 0.930 . S
C988 C986 1.411 . S
C988 C989 1.348 . S
C989 C984 1.372 . S
C989 C988 1.348 . S
C989 H1041 0.929 . S
H990 C984 0.929 . S
H991 C987 0.930 . S
C992 N993 1.314 . S
C992 C994 1.353 . S
C992 H998 0.930 . S
N993 Li969 1.990 . S
N993 C992 1.314 . S
N993 C996 1.279 . S
C994 C992 1.353 . S
C994 C997 1.348 . S
C994 H1042 0.929 . S
C995 C996 1.358 . S
C995 C997 1.356 . S
C995 H1043 0.930 . S
C996 N993 1.279 . S
C996 C995 1.358 . S
C996 H999 0.930 . S
C997 C994 1.348 . S
C997 C995 1.356 . S
H998 C992 0.930 . S
H999 C996 0.930 . S
C1000 C1002 1.348 . S
C1000 C1003 1.356 . S
C1000 O1030 1.325 . S
N1001 C1004 1.314 . S
N1001 C1005 1.279 . S
C1002 C1000 1.348 . S
C1002 C1004 1.353 . S
C1002 H1044 0.929 . S
C1003 C1000 1.356 . S
C1003 C1005 1.358 . S
C1003 H1045 0.930 . S
C1004 N1001 1.314 . S
C1004 C1002 1.353 . S
C1004 H1046 0.930 . S
C1005 N1001 1.279 . S
C1005 C1003 1.358 . S
C1005 H1047 0.930 . S
C1006 C1007 1.348 . S
C1006 C1008 1.356 . S
C1006 O1031 1.325 . S
C1007 C1006 1.348 . S
C1007 C1009 1.353 . S
C1007 H1048 0.929 . S
C1008 C1006 1.356 . S
C1008 C1010 1.358 . S
C1008 H1049 0.930 . S
C1009 C1007 1.353 . S
C1009 N1011 1.314 . S
C1009 H1050 0.930 . S
C1010 C1008 1.358 . S
C1010 N1011 1.279 . S
C1010 H1051 0.930 . S
N1011 C1009 1.314 . S
N1011 C1010 1.279 . S
C1012 C1014 1.353 . S
C1012 N1015 1.314 . S
C1012 H1018 0.930 . S
C1013 N1015 1.279 . S
C1013 C1016 1.358 . S
C1013 H1019 0.930 . S
C1014 C1012 1.353 . S
C1014 C1017 1.348 . S
C1014 H1052 0.929 . S
N1015 Li970 1.990 . S
N1015 C1012 1.314 . S
N1015 C1013 1.279 . S
C1016 C1013 1.358 . S
C1016 C1017 1.356 . S
C1016 H1053 0.930 . S
C1017 C1014 1.348 . S
C1017 C1016 1.356 . S
H1018 C1012 0.930 . S
H1019 C1013 0.930 . S
C1020 N1021 1.314 . S
C1020 C1022 1.353 . S
C1020 H1026 0.930 . S
N1021 Li971 1.990 . S
N1021 C1020 1.314 . S
N1021 C1024 1.279 . S
C1022 C1020 1.353 . S
C1022 C1025 1.348 . S
C1022 H1054 0.929 . S
C1023 C1024 1.358 . S
C1023 C1025 1.356 . S
C1023 H1055 0.930 . S
C1024 N1021 1.279 . S
C1024 C1023 1.358 . S
C1024 H1027 0.930 . S
C1025 C1022 1.348 . S
C1025 C1023 1.356 . S
H1026 C1020 0.930 . S
H1027 C1024 0.930 . S
O1028 Li968 1.956 . S
O1028 Li969 1.970 . S
O1028 Li970 1.961 . S
O1028 C972 1.325 . S
O1029 Li968 1.970 . S
O1029 Li969 1.956 . S
O1029 Li971 1.961 . S
O1029 C978 1.325 . S
O1030 Li968 1.961 . S
O1030 Li970 1.956 . S
O1030 Li971 1.970 . S
O1030 C1000 1.325 . S
O1031 Li969 1.961 . S
O1031 Li970 1.970 . S
O1031 Li971 1.956 . S
O1031 C1006 1.325 . S
H1032 C974 0.929 . S
H1033 C975 0.930 . S
H1034 C976 0.930 . S
H1035 C977 0.930 . S
H1036 C979 0.930 . S
H1037 C981 0.929 . S
H1038 C982 0.930 . S
H1039 C983 0.930 . S
H1040 C986 0.928 . S
H1041 C989 0.929 . S
H1042 C994 0.929 . S
H1043 C995 0.930 . S
H1044 C1002 0.929 . S
H1045 C1003 0.930 . S
H1046 C1004 0.930 . S
H1047 C1005 0.930 . S
H1048 C1007 0.929 . S
H1049 C1008 0.930 . S
H1050 C1009 0.930 . S
H1051 C1010 0.930 . S
H1052 C1014 0.929 . S
H1053 C1016 0.930 . S
H1054 C1022 0.929 . S
H1055 C1023 0.930 . S
Li1056 N1073 1.990 . S
Li1056 O1116 1.956 . S
Li1056 O1117 1.970 . S
Li1056 O1118 1.961 . S
Li1057 N1081 1.990 . S
Li1057 O1116 1.970 . S
Li1057 O1117 1.956 . S
Li1057 O1119 1.961 . S
Li1058 N1103 1.990 . S
Li1058 O1116 1.961 . S
Li1058 O1118 1.956 . S
Li1058 O1119 1.970 . S
Li1059 N1109 1.990 . S
Li1059 O1117 1.961 . S
Li1059 O1118 1.970 . S
Li1059 O1119 1.956 . S
C1060 C1062 1.348 . S
C1060 C1063 1.356 . S
C1060 O1116 1.325 . S
N1061 C1064 1.314 . S
N1061 C1065 1.279 . S
C1062 C1060 1.348 . S
C1062 C1064 1.353 . S
C1062 H1120 0.929 . S
C1063 C1060 1.356 . S
C1063 C1065 1.358 . S
C1063 H1121 0.930 . S
C1064 N1061 1.314 . S
C1064 C1062 1.353 . S
C1064 H1122 0.930 . S
C1065 N1061 1.279 . S
C1065 C1063 1.358 . S
C1065 H1123 0.930 . S
C1066 C1069 1.348 . S
C1066 C1070 1.356 . S
C1066 O1117 1.325 . S
C1067 N1068 1.279 . S
C1067 C1070 1.358 . S
C1067 H1124 0.930 . S
N1068 C1067 1.279 . S
N1068 C1071 1.314 . S
C1069 C1066 1.348 . S
C1069 C1071 1.353 . S
C1069 H1125 0.929 . S
C1070 C1066 1.356 . S
C1070 C1067 1.358 . S
C1070 H1126 0.930 . S
C1071 N1068 1.314 . S
C1071 C1069 1.353 . S
C1071 H1127 0.930 . S
C1072 N1073 1.314 . S
C1072 C1077 1.353 . S
C1072 H1078 0.930 . S
N1073 Li1056 1.990 . S
N1073 C1072 1.314 . S
N1073 C1075 1.279 . S
C1074 C1075 1.358 . S
C1074 C1076 1.356 . S
C1074 H1128 0.930 . S
C1075 N1073 1.279 . S
C1075 C1074 1.358 . S
C1075 H1079 0.930 . S
C1076 C1074 1.356 . S
C1076 C1077 1.348 . S
C1077 C1072 1.353 . S
C1077 C1076 1.348 . S
C1077 H1129 0.929 . S
H1078 C1072 0.930 . S
H1079 C1075 0.930 . S
C1080 N1081 1.314 . S
C1080 C1082 1.353 . S
C1080 H1086 0.930 . S
N1081 Li1057 1.990 . S
N1081 C1080 1.314 . S
N1081 C1084 1.279 . S
C1082 C1080 1.353 . S
C1082 C1085 1.348 . S
C1082 H1130 0.929 . S
C1083 C1084 1.358 . S
C1083 C1085 1.356 . S
C1083 H1131 0.930 . S
C1084 N1081 1.279 . S
C1084 C1083 1.358 . S
C1084 H1087 0.930 . S
C1085 C1082 1.348 . S
C1085 C1083 1.356 . S
H1086 C1080 0.930 . S
H1087 C1084 0.930 . S
C1088 C1090 1.348 . S
C1088 C1091 1.356 . S
C1088 O1118 1.325 . S
N1089 C1092 1.314 . S
N1089 C1093 1.279 . S
C1090 C1088 1.348 . S
C1090 C1092 1.353 . S
C1090 H1132 0.929 . S
C1091 C1088 1.356 . S
C1091 C1093 1.358 . S
C1091 H1133 0.930 . S
C1092 N1089 1.314 . S
C1092 C1090 1.353 . S
C1092 H1134 0.871 1_545 S
C1093 N1089 1.279 . S
C1093 C1091 1.358 . S
C1093 H1135 0.930 . S
C1094 C1095 1.348 . S
C1094 C1096 1.356 . S
C1094 O1119 1.325 . S
C1095 C1094 1.348 . S
C1095 C1097 1.353 . S
C1095 H1136 0.929 . S
C1096 C1094 1.356 . S
C1096 C1098 1.358 . S
C1096 H1137 0.930 . S
C1097 C1095 1.353 . S
C1097 N1099 1.314 . S
C1097 H1138 0.930 . S
C1098 C1096 1.358 . S
C1098 N1099 1.279 . S
C1098 H1139 0.930 . S
N1099 C1097 1.314 . S
N1099 C1098 1.279 . S
C1100 C1102 1.353 . S
C1100 N1103 1.314 . S
C1100 H1106 0.930 . S
C1101 N1103 1.279 . S
C1101 C1104 1.358 . S
C1101 H1107 0.930 . S
C1102 C1100 1.353 . S
C1102 C1105 1.348 . S
C1102 H1140 0.929 . S
N1103 Li1058 1.990 . S
N1103 C1100 1.314 . S
N1103 C1101 1.279 . S
C1104 C1101 1.358 . S
C1104 C1105 1.356 . S
C1104 H1141 0.930 . S
C1105 C1102 1.348 . S
C1105 C1104 1.356 . S
H1106 C1100 0.930 . S
H1107 C1101 0.930 . S
C1108 N1109 1.314 . S
C1108 C1110 1.353 1_545 S
C1108 H1114 0.930 . S
N1109 Li1059 1.990 . S
N1109 C1108 1.314 . S
N1109 C1112 1.280 . S
C1110 C1108 1.353 1_565 S
C1110 C1113 1.348 . S
C1110 H1142 0.929 . S
C1111 C1112 1.357 1_565 S
C1111 C1113 1.356 . S
C1111 H1143 0.930 . S
C1112 N1109 1.280 . S
C1112 C1111 1.357 1_545 S
C1112 H1115 0.930 . S
C1113 C1110 1.348 . S
C1113 C1111 1.356 . S
H1114 C1108 0.930 . S
H1115 C1112 0.930 . S
O1116 Li1056 1.956 . S
O1116 Li1057 1.970 . S
O1116 Li1058 1.961 . S
O1116 C1060 1.325 . S
O1117 Li1056 1.970 . S
O1117 Li1057 1.956 . S
O1117 Li1059 1.961 . S
O1117 C1066 1.325 . S
O1118 Li1056 1.961 . S
O1118 Li1058 1.956 . S
O1118 Li1059 1.970 . S
O1118 C1088 1.325 . S
O1119 Li1057 1.961 . S
O1119 Li1058 1.970 . S
O1119 Li1059 1.956 . S
O1119 C1094 1.325 . S
H1120 C1062 0.929 . S
H1121 C1063 0.930 . S
H1122 C1064 0.930 . S
H1123 C1065 0.930 . S
H1124 C1067 0.930 . S
H1125 C1069 0.929 . S
H1126 C1070 0.930 . S
H1127 C1071 0.930 . S
H1128 C1074 0.930 . S
H1129 C1077 0.929 . S
H1130 C1082 0.929 . S
H1131 C1083 0.930 . S
H1132 C1090 0.929 . S
H1133 C1091 0.930 . S
H1134 C1092 0.871 1_565 S
H1135 C1093 0.930 . S
H1136 C1095 0.929 . S
H1137 C1096 0.930 . S
H1138 C1097 0.930 . S
H1139 C1098 0.930 . S
H1140 C1102 0.929 . S
H1141 C1104 0.930 . S
H1142 C1110 0.929 . S
H1143 C1111 0.930 . S
Li1144 N1161 1.990 . S
Li1144 O1204 1.956 . S
Li1144 O1205 1.970 . S
Li1144 O1206 1.961 . S
Li1145 N1169 1.990 . S
Li1145 O1204 1.970 . S
Li1145 O1205 1.956 . S
Li1145 O1207 1.961 . S
Li1146 N1191 1.990 . S
Li1146 O1204 1.961 . S
Li1146 O1206 1.956 . S
Li1146 O1207 1.970 . S
Li1147 N1197 1.990 . S
Li1147 O1205 1.961 . S
Li1147 O1206 1.970 . S
Li1147 O1207 1.956 . S
C1148 C1150 1.348 . S
C1148 C1151 1.356 . S
C1148 O1204 1.325 . S
N1149 C1152 1.314 . S
N1149 C1153 1.279 . S
C1150 C1148 1.348 . S
C1150 C1152 1.353 . S
C1150 H1208 0.929 . S
C1151 C1148 1.356 . S
C1151 C1153 1.358 . S
C1151 H1209 0.930 . S
C1152 N1149 1.314 . S
C1152 C1150 1.353 . S
C1152 H1210 0.930 . S
C1153 N1149 1.279 . S
C1153 C1151 1.358 . S
C1153 H1211 0.930 . S
C1154 C1157 1.348 . S
C1154 C1158 1.356 . S
C1154 O1205 1.325 . S
C1155 N1156 1.279 . S
C1155 C1158 1.358 . S
C1155 H1212 0.930 . S
N1156 C1155 1.279 . S
N1156 C1159 1.314 . S
C1157 C1154 1.348 . S
C1157 C1159 1.353 . S
C1157 H1213 0.929 . S
C1158 C1154 1.356 . S
C1158 C1155 1.358 . S
C1158 H1214 0.930 . S
C1159 N1156 1.314 . S
C1159 C1157 1.353 . S
C1159 H1215 0.930 . S
C1160 N1161 1.314 . S
C1160 C1165 1.353 . S
C1160 H1166 0.930 . S
N1161 Li1144 1.990 . S
N1161 C1160 1.314 . S
N1161 C1163 1.279 . S
C1162 C1163 1.358 . S
C1162 C1164 1.356 . S
C1162 H1216 0.930 . S
C1163 N1161 1.279 . S
C1163 C1162 1.358 . S
C1163 H1167 0.930 . S
C1164 C1162 1.356 . S
C1164 C1165 1.348 . S
C1165 C1160 1.353 . S
C1165 C1164 1.348 . S
C1165 H1217 0.929 . S
H1166 C1160 0.930 . S
H1167 C1163 0.930 . S
C1168 N1169 1.314 . S
C1168 C1170 1.353 . S
C1168 H1174 0.930 . S
N1169 Li1145 1.990 . S
N1169 C1168 1.314 . S
N1169 C1172 1.279 . S
C1170 C1168 1.353 . S
C1170 C1173 1.348 . S
C1170 H1218 0.929 . S
C1171 C1172 1.358 . S
C1171 C1173 1.356 . S
C1171 H1219 0.930 . S
C1172 N1169 1.279 . S
C1172 C1171 1.358 . S
C1172 H1175 0.930 . S
C1173 C1170 1.348 . S
C1173 C1171 1.356 . S
H1174 C1168 0.930 . S
H1175 C1172 0.930 . S
C1176 C1178 1.348 . S
C1176 C1179 1.356 . S
C1176 O1206 1.325 . S
N1177 C1180 1.314 . S
N1177 C1181 1.279 . S
C1178 C1176 1.348 . S
C1178 C1180 1.353 . S
C1178 H1220 0.929 . S
C1179 C1176 1.356 . S
C1179 C1181 1.358 . S
C1179 H1221 0.930 . S
C1180 N1177 1.314 . S
C1180 C1178 1.353 . S
C1180 H1222 0.930 . S
C1181 N1177 1.279 . S
C1181 C1179 1.358 . S
C1181 H1223 0.930 . S
C1182 C1183 1.348 . S
C1182 C1184 1.356 . S
C1182 O1207 1.325 . S
C1183 C1182 1.348 . S
C1183 C1185 1.353 . S
C1183 H1224 0.929 . S
C1184 C1182 1.356 . S
C1184 C1186 1.358 . S
C1184 H1225 0.930 . S
C1185 C1183 1.353 . S
C1185 N1187 1.314 . S
C1185 H1226 0.930 . S
C1186 C1184 1.358 . S
C1186 N1187 1.279 . S
C1186 H1227 0.930 . S
N1187 C1185 1.314 . S
N1187 C1186 1.279 . S
C1188 C1190 1.353 . S
C1188 N1191 1.314 . S
C1188 H1194 0.930 . S
C1189 N1191 1.279 . S
C1189 C1192 1.358 . S
C1189 H1195 0.930 . S
C1190 C1188 1.353 . S
C1190 C1193 1.348 . S
C1190 H1228 0.929 . S
N1191 Li1146 1.990 . S
N1191 C1188 1.314 . S
N1191 C1189 1.279 . S
C1192 C1189 1.358 . S
C1192 C1193 1.356 . S
C1192 H1229 0.930 . S
C1193 C1190 1.348 . S
C1193 C1192 1.356 . S
H1194 C1188 0.930 . S
H1195 C1189 0.930 . S
C1196 N1197 1.294 1_655 S
C1196 C1198 1.373 . S
C1196 H1202 0.929 . S
N1197 Li1147 1.990 . S
N1197 C1196 1.294 1_455 S
N1197 C1200 1.279 . S
C1198 C1196 1.373 . S
C1198 C1201 1.348 . S
C1198 H1230 0.929 . S
C1199 C1200 1.307 1_655 S
C1199 C1201 1.411 . S
C1199 H1231 0.928 . S
C1200 N1197 1.279 . S
C1200 C1199 1.307 1_455 S
C1200 H1203 0.930 . S
C1201 C1198 1.348 . S
C1201 C1199 1.411 . S
H1202 C1196 0.929 . S
H1203 C1200 0.930 . S
O1204 Li1144 1.956 . S
O1204 Li1145 1.970 . S
O1204 Li1146 1.961 . S
O1204 C1148 1.325 . S
O1205 Li1144 1.970 . S
O1205 Li1145 1.956 . S
O1205 Li1147 1.961 . S
O1205 C1154 1.325 . S
O1206 Li1144 1.961 . S
O1206 Li1146 1.956 . S
O1206 Li1147 1.970 . S
O1206 C1176 1.325 . S
O1207 Li1145 1.961 . S
O1207 Li1146 1.970 . S
O1207 Li1147 1.956 . S
O1207 C1182 1.325 . S
H1208 C1150 0.929 . S
H1209 C1151 0.930 . S
H1210 C1152 0.930 . S
H1211 C1153 0.930 . S
H1212 C1155 0.930 . S
H1213 C1157 0.929 . S
H1214 C1158 0.930 . S
H1215 C1159 0.930 . S
H1216 C1162 0.930 . S
H1217 C1165 0.929 . S
H1218 C1170 0.929 . S
H1219 C1171 0.930 . S
H1220 C1178 0.929 . S
H1221 C1179 0.930 . S
H1222 C1180 0.930 . S
H1223 C1181 0.930 . S
H1224 C1183 0.929 . S
H1225 C1184 0.930 . S
H1226 C1185 0.930 . S
H1227 C1186 0.930 . S
H1228 C1190 0.929 . S
H1229 C1192 0.930 . S
H1230 C1198 0.929 . S
H1231 C1199 0.928 . S
Li1232 N1249 1.990 . S
Li1232 O1292 1.956 . S
Li1232 O1293 1.970 . S
Li1232 O1294 1.961 . S
Li1233 N1257 1.990 . S
Li1233 O1292 1.970 . S
Li1233 O1293 1.956 . S
Li1233 O1295 1.961 . S
Li1234 N1279 1.990 . S
Li1234 O1292 1.961 . S
Li1234 O1294 1.956 . S
Li1234 O1295 1.970 . S
Li1235 N1285 1.990 . S
Li1235 O1293 1.961 . S
Li1235 O1294 1.970 . S
Li1235 O1295 1.956 . S
C1236 C1238 1.348 . S
C1236 C1239 1.356 . S
C1236 O1292 1.325 . S
N1237 C1240 1.314 . S
N1237 C1241 1.279 . S
C1238 C1236 1.348 . S
C1238 C1240 1.353 . S
C1238 H1296 0.929 . S
C1239 C1236 1.356 . S
C1239 C1241 1.358 . S
C1239 H1297 0.930 . S
C1240 N1237 1.314 . S
C1240 C1238 1.353 . S
C1240 H1298 0.871 1_565 S
C1241 N1237 1.279 . S
C1241 C1239 1.358 . S
C1241 H1299 0.930 . S
C1242 C1245 1.348 . S
C1242 C1246 1.356 . S
C1242 O1293 1.325 . S
C1243 N1244 1.279 . S
C1243 C1246 1.358 . S
C1243 H1300 0.930 . S
N1244 C1243 1.279 . S
N1244 C1247 1.314 . S
C1245 C1242 1.348 . S
C1245 C1247 1.353 . S
C1245 H1301 0.929 . S
C1246 C1242 1.356 . S
C1246 C1243 1.358 . S
C1246 H1302 0.930 . S
C1247 N1244 1.314 . S
C1247 C1245 1.353 . S
C1247 H1303 0.930 . S
C1248 N1249 1.314 . S
C1248 C1253 1.353 . S
C1248 H1254 0.930 . S
N1249 Li1232 1.990 . S
N1249 C1248 1.314 . S
N1249 C1251 1.279 . S
C1250 C1251 1.358 . S
C1250 C1252 1.356 . S
C1250 H1304 0.930 . S
C1251 N1249 1.279 . S
C1251 C1250 1.358 . S
C1251 H1255 0.930 . S
C1252 C1250 1.356 . S
C1252 C1253 1.348 . S
C1253 C1248 1.353 . S
C1253 C1252 1.348 . S
C1253 H1305 0.929 . S
H1254 C1248 0.930 . S
H1255 C1251 0.930 . S
C1256 N1257 1.314 . S
C1256 C1258 1.353 1_565 S
C1256 H1262 0.930 . S
N1257 Li1233 1.990 . S
N1257 C1256 1.314 . S
N1257 C1260 1.280 . S
C1258 C1256 1.353 1_545 S
C1258 C1261 1.348 . S
C1258 H1306 0.929 . S
C1259 C1260 1.358 1_545 S
C1259 C1261 1.356 . S
C1259 H1307 0.930 . S
C1260 N1257 1.280 . S
C1260 C1259 1.358 1_565 S
C1260 H1263 0.930 . S
C1261 C1258 1.348 . S
C1261 C1259 1.356 . S
H1262 C1256 0.930 . S
H1263 C1260 0.930 . S
C1264 C1266 1.348 . S
C1264 C1267 1.356 . S
C1264 O1294 1.325 . S
N1265 C1268 1.314 . S
N1265 C1269 1.279 . S
C1266 C1264 1.348 . S
C1266 C1268 1.353 . S
C1266 H1308 0.929 . S
C1267 C1264 1.356 . S
C1267 C1269 1.358 . S
C1267 H1309 0.930 . S
C1268 N1265 1.314 . S
C1268 C1266 1.353 . S
C1268 H1310 0.930 . S
C1269 N1265 1.279 . S
C1269 C1267 1.358 . S
C1269 H1311 0.930 . S
C1270 C1271 1.348 . S
C1270 C1272 1.356 . S
C1270 O1295 1.325 . S
C1271 C1270 1.348 . S
C1271 C1273 1.353 . S
C1271 H1312 0.929 . S
C1272 C1270 1.356 . S
C1272 C1274 1.358 . S
C1272 H1313 0.930 . S
C1273 C1271 1.353 . S
C1273 N1275 1.314 . S
C1273 H1314 0.930 . S
C1274 C1272 1.358 . S
C1274 N1275 1.279 . S
C1274 H1315 0.930 . S
N1275 C1273 1.314 . S
N1275 C1274 1.279 . S
C1276 C1278 1.353 . S
C1276 N1279 1.314 . S
C1276 H1282 0.930 . S
C1277 N1279 1.279 . S
C1277 C1280 1.358 . S
C1277 H1283 0.930 . S
C1278 C1276 1.353 . S
C1278 C1281 1.348 . S
C1278 H1316 0.929 . S
N1279 Li1234 1.990 . S
N1279 C1276 1.314 . S
N1279 C1277 1.279 . S
C1280 C1277 1.358 . S
C1280 C1281 1.356 . S
C1280 H1317 0.930 . S
C1281 C1278 1.348 . S
C1281 C1280 1.356 . S
H1282 C1276 0.930 . S
H1283 C1277 0.930 . S
C1284 N1285 1.314 . S
C1284 C1286 1.353 . S
C1284 H1290 0.930 . S
N1285 Li1235 1.990 . S
N1285 C1284 1.314 . S
N1285 C1288 1.279 . S
C1286 C1284 1.353 . S
C1286 C1289 1.348 . S
C1286 H1318 0.929 . S
C1287 C1288 1.358 . S
C1287 C1289 1.356 . S
C1287 H1319 0.930 . S
C1288 N1285 1.279 . S
C1288 C1287 1.358 . S
C1288 H1291 0.930 . S
C1289 C1286 1.348 . S
C1289 C1287 1.356 . S
H1290 C1284 0.930 . S
H1291 C1288 0.930 . S
O1292 Li1232 1.956 . S
O1292 Li1233 1.970 . S
O1292 Li1234 1.961 . S
O1292 C1236 1.325 . S
O1293 Li1232 1.970 . S
O1293 Li1233 1.956 . S
O1293 Li1235 1.961 . S
O1293 C1242 1.325 . S
O1294 Li1232 1.961 . S
O1294 Li1234 1.956 . S
O1294 Li1235 1.970 . S
O1294 C1264 1.325 . S
O1295 Li1233 1.961 . S
O1295 Li1234 1.970 . S
O1295 Li1235 1.956 . S
O1295 C1270 1.325 . S
H1296 C1238 0.929 . S
H1297 C1239 0.930 . S
H1298 C1240 0.871 1_545 S
H1299 C1241 0.930 . S
H1300 C1243 0.930 . S
H1301 C1245 0.929 . S
H1302 C1246 0.930 . S
H1303 C1247 0.930 . S
H1304 C1250 0.930 . S
H1305 C1253 0.929 . S
H1306 C1258 0.929 . S
H1307 C1259 0.930 . S
H1308 C1266 0.929 . S
H1309 C1267 0.930 . S
H1310 C1268 0.930 . S
H1311 C1269 0.930 . S
H1312 C1271 0.929 . S
H1313 C1272 0.930 . S
H1314 C1273 0.930 . S
H1315 C1274 0.930 . S
H1316 C1278 0.929 . S
H1317 C1280 0.930 . S
H1318 C1286 0.929 . S
H1319 C1287 0.930 . S
Li1320 N1337 1.990 . S
Li1320 O1380 1.956 . S
Li1320 O1381 1.970 . S
Li1320 O1382 1.961 . S
Li1321 N1345 1.990 . S
Li1321 O1380 1.970 . S
Li1321 O1381 1.956 . S
Li1321 O1383 1.961 . S
Li1322 N1367 1.990 . S
Li1322 O1380 1.961 . S
Li1322 O1382 1.956 . S
Li1322 O1383 1.970 . S
Li1323 N1373 1.990 . S
Li1323 O1381 1.961 . S
Li1323 O1382 1.970 . S
Li1323 O1383 1.956 . S
C1324 C1326 1.348 . S
C1324 C1327 1.356 . S
C1324 O1380 1.325 . S
N1325 C1328 1.314 . S
N1325 C1329 1.279 . S
C1326 C1324 1.348 . S
C1326 C1328 1.353 . S
C1326 H1384 0.929 . S
C1327 C1324 1.356 . S
C1327 C1329 1.358 . S
C1327 H1385 0.930 . S
C1328 N1325 1.314 . S
C1328 C1326 1.353 . S
C1328 H1386 0.930 . S
C1329 N1325 1.279 . S
C1329 C1327 1.358 . S
C1329 H1387 0.930 . S
C1330 C1333 1.348 . S
C1330 C1334 1.356 . S
C1330 O1381 1.325 . S
C1331 N1332 1.279 . S
C1331 C1334 1.358 . S
C1331 H1388 0.930 . S
N1332 C1331 1.279 . S
N1332 C1335 1.314 . S
C1333 C1330 1.348 . S
C1333 C1335 1.353 . S
C1333 H1389 0.929 . S
C1334 C1330 1.356 . S
C1334 C1331 1.358 . S
C1334 H1390 0.930 . S
C1335 N1332 1.314 . S
C1335 C1333 1.353 . S
C1335 H1391 0.930 . S
C1336 N1337 1.314 . S
C1336 C1341 1.353 . S
C1336 H1342 0.930 . S
N1337 Li1320 1.990 . S
N1337 C1336 1.314 . S
N1337 C1339 1.279 . S
C1338 C1339 1.358 . S
C1338 C1340 1.356 . S
C1338 H1392 0.930 . S
C1339 N1337 1.279 . S
C1339 C1338 1.358 . S
C1339 H1343 0.930 . S
C1340 C1338 1.356 . S
C1340 C1341 1.348 . S
C1341 C1336 1.353 . S
C1341 C1340 1.348 . S
C1341 H1393 0.929 . S
H1342 C1336 0.930 . S
H1343 C1339 0.930 . S
C1344 N1345 1.314 . S
C1344 C1346 1.353 . S
C1344 H1350 0.930 . S
N1345 Li1321 1.990 . S
N1345 C1344 1.314 . S
N1345 C1348 1.279 . S
C1346 C1344 1.353 . S
C1346 C1349 1.348 . S
C1346 H1394 0.929 . S
C1347 C1348 1.358 . S
C1347 C1349 1.356 . S
C1347 H1395 0.930 . S
C1348 N1345 1.279 . S
C1348 C1347 1.358 . S
C1348 H1351 0.930 . S
C1349 C1346 1.348 . S
C1349 C1347 1.356 . S
H1350 C1344 0.930 . S
H1351 C1348 0.930 . S
C1352 C1354 1.348 . S
C1352 C1355 1.356 . S
C1352 O1382 1.325 . S
N1353 C1356 1.314 . S
N1353 C1357 1.279 . S
C1354 C1352 1.348 . S
C1354 C1356 1.353 . S
C1354 H1396 0.929 . S
C1355 C1352 1.356 . S
C1355 C1357 1.358 . S
C1355 H1397 0.930 . S
C1356 N1353 1.314 . S
C1356 C1354 1.353 . S
C1356 H1398 0.930 . S
C1357 N1353 1.279 . S
C1357 C1355 1.358 . S
C1357 H1399 0.930 . S
C1358 C1359 1.348 . S
C1358 C1360 1.356 . S
C1358 O1383 1.325 . S
C1359 C1358 1.348 . S
C1359 C1361 1.353 . S
C1359 H1400 0.929 . S
C1360 C1358 1.356 . S
C1360 C1362 1.358 . S
C1360 H1401 0.930 . S
C1361 C1359 1.353 . S
C1361 N1363 1.314 . S
C1361 H1402 0.930 . S
C1362 C1360 1.358 . S
C1362 N1363 1.279 . S
C1362 H1403 0.930 . S
N1363 C1361 1.314 . S
N1363 C1362 1.279 . S
C1364 C1366 1.372 . S
C1364 N1367 1.295 1_455 S
C1364 H1370 0.929 . S
C1365 N1367 1.279 . S
C1365 C1368 1.307 1_655 S
C1365 H1371 0.930 . S
C1366 C1364 1.372 . S
C1366 C1369 1.348 . S
C1366 H1404 0.929 . S
N1367 Li1322 1.990 . S
N1367 C1364 1.295 1_655 S
N1367 C1365 1.279 . S
C1368 C1365 1.307 1_455 S
C1368 C1369 1.411 . S
C1368 H1405 0.928 . S
C1369 C1366 1.348 . S
C1369 C1368 1.411 . S
H1370 C1364 0.929 . S
H1371 C1365 0.930 . S
C1372 N1373 1.314 . S
C1372 C1374 1.353 . S
C1372 H1378 0.930 . S
N1373 Li1323 1.990 . S
N1373 C1372 1.314 . S
N1373 C1376 1.279 . S
C1374 C1372 1.353 . S
C1374 C1377 1.348 . S
C1374 H1406 0.929 . S
C1375 C1376 1.358 . S
C1375 C1377 1.356 . S
C1375 H1407 0.930 . S
C1376 N1373 1.279 . S
C1376 C1375 1.358 . S
C1376 H1379 0.930 . S
C1377 C1374 1.348 . S
C1377 C1375 1.356 . S
H1378 C1372 0.930 . S
H1379 C1376 0.930 . S
O1380 Li1320 1.956 . S
O1380 Li1321 1.970 . S
O1380 Li1322 1.961 . S
O1380 C1324 1.325 . S
O1381 Li1320 1.970 . S
O1381 Li1321 1.956 . S
O1381 Li1323 1.961 . S
O1381 C1330 1.325 . S
O1382 Li1320 1.961 . S
O1382 Li1322 1.956 . S
O1382 Li1323 1.970 . S
O1382 C1352 1.325 . S
O1383 Li1321 1.961 . S
O1383 Li1322 1.970 . S
O1383 Li1323 1.956 . S
O1383 C1358 1.325 . S
H1384 C1326 0.929 . S
H1385 C1327 0.930 . S
H1386 C1328 0.930 . S
H1387 C1329 0.930 . S
H1388 C1331 0.930 . S
H1389 C1333 0.929 . S
H1390 C1334 0.930 . S
H1391 C1335 0.930 . S
H1392 C1338 0.930 . S
H1393 C1341 0.929 . S
H1394 C1346 0.929 . S
H1395 C1347 0.930 . S
H1396 C1354 0.929 . S
H1397 C1355 0.930 . S
H1398 C1356 0.930 . S
H1399 C1357 0.930 . S
H1400 C1359 0.929 . S
H1401 C1360 0.930 . S
H1402 C1361 0.930 . S
H1403 C1362 0.930 . S
H1404 C1366 0.929 . S
H1405 C1368 0.928 . S
H1406 C1374 0.929 . S
H1407 C1375 0.930 . S
H1408 C1426 0.951 . S
H1409 C1428 0.951 . S
H1410 C1430 0.950 . S
H1411 C1431 0.950 . S
H1412 C1433 0.950 . S
H1413 C1436 0.950 . S
H1414 C1437 0.950 . S
H1415 C1439 0.950 . S
H1416 C1440 0.950 . S
H1417 C1441 0.951 . S
H1418 C1443 0.951 . S
H1419 C1445 0.950 . S
H1420 C1446 0.950 . S
H1421 C1448 0.950 . S
H1422 C1451 0.950 . S
H1423 C1452 0.950 . S
H1424 C1454 0.950 . S
H1425 C1455 0.950 . S
C1426 H1408 0.951 . S
C1426 C1427 1.366 . S
C1426 C1428 1.388 . S
C1427 C1426 1.366 . S
C1427 C1431 1.385 . S
C1428 H1409 0.951 . S
C1428 C1426 1.388 . S
C1428 C1429 1.366 . S
C1429 C1428 1.366 . S
C1429 C1430 1.414 . S
C1429 C1432 1.499 . S
C1430 H1410 0.950 . S
C1430 C1429 1.414 . S
C1430 C1431 1.374 . S
C1431 H1411 0.950 . S
C1431 C1427 1.385 . S
C1431 C1430 1.374 . S
C1432 C1429 1.499 . S
C1432 C1433 1.373 . S
C1432 C1434 1.389 . S
C1433 H1412 0.950 . S
C1433 C1432 1.373 . S
C1433 C1449 1.377 . S
C1434 C1432 1.389 . S
C1434 C1435 1.524 . S
C1434 C1448 1.377 . S
C1435 C1434 1.524 . S
C1435 C1436 1.397 . S
C1435 C1440 1.363 . S
C1436 H1413 0.950 . S
C1436 C1435 1.397 . S
C1436 C1437 1.334 . S
C1437 H1414 0.950 . S
C1437 C1436 1.334 . S
C1437 C1438 1.287 . S
C1438 C1437 1.287 . S
C1438 C1439 1.524 . S
C1438 H1457 0.913 . S
C1439 H1415 0.950 . S
C1439 C1438 1.524 . S
C1439 C1440 1.415 . S
C1440 H1416 0.950 . S
C1440 C1435 1.363 . S
C1440 C1439 1.415 . S
C1441 H1417 0.951 . S
C1441 C1442 1.366 . S
C1441 C1443 1.388 . S
C1442 C1441 1.366 . S
C1442 C1446 1.385 . S
C1443 H1418 0.951 . S
C1443 C1441 1.388 . S
C1443 C1444 1.366 . S
C1444 C1443 1.366 . S
C1444 C1445 1.414 . S
C1444 C1447 1.499 . S
C1445 H1419 0.950 . S
C1445 C1444 1.414 . S
C1445 C1446 1.374 . S
C1446 H1420 0.950 . S
C1446 C1442 1.385 . S
C1446 C1445 1.374 . S
C1447 C1444 1.499 . S
C1447 C1448 1.373 . S
C1447 C1449 1.389 . S
C1448 H1421 0.950 . S
C1448 C1434 1.377 . S
C1448 C1447 1.373 . S
C1449 C1433 1.377 . S
C1449 C1447 1.389 . S
C1449 C1450 1.524 . S
C1450 C1449 1.524 . S
C1450 C1451 1.397 . S
C1450 C1455 1.363 . S
C1451 H1422 0.950 . S
C1451 C1450 1.397 . S
C1451 C1452 1.334 . S
C1452 H1423 0.950 . S
C1452 C1451 1.334 . S
C1452 C1453 1.287 . S
C1453 C1452 1.287 . S
C1453 C1454 1.524 . S
C1453 H1456 0.999 . S
C1454 H1424 0.950 . S
C1454 C1453 1.524 . S
C1454 C1455 1.415 . S
C1455 H1425 0.950 . S
C1455 C1450 1.363 . S
C1455 C1454 1.415 . S
H1456 C1453 0.999 . S
H1457 C1438 0.913 . S
H1458 C1476 0.951 . S
H1459 C1478 0.951 . S
H1460 C1480 0.950 . S
H1461 C1481 0.950 . S
H1462 C1483 0.950 . S
H1463 C1486 0.950 . S
H1464 C1487 0.950 . S
H1465 C1489 0.950 . S
H1466 C1490 0.950 . S
H1467 C1491 0.951 . S
H1468 C1493 0.951 . S
H1469 C1495 0.950 . S
H1470 C1496 0.950 . S
H1471 C1498 0.950 . S
H1472 C1501 0.950 . S
H1473 C1502 0.950 . S
H1474 C1504 0.950 . S
H1475 C1505 0.950 . S
C1476 H1458 0.951 . S
C1476 C1477 1.366 . S
C1476 C1478 1.388 . S
C1477 C1476 1.366 . S
C1477 C1481 1.385 . S
C1478 H1459 0.951 . S
C1478 C1476 1.388 . S
C1478 C1479 1.366 . S
C1479 C1478 1.366 . S
C1479 C1480 1.414 . S
C1479 C1482 1.499 . S
C1480 H1460 0.950 . S
C1480 C1479 1.414 . S
C1480 C1481 1.374 . S
C1481 H1461 0.950 . S
C1481 C1477 1.385 . S
C1481 C1480 1.374 . S
C1482 C1479 1.499 . S
C1482 C1483 1.373 . S
C1482 C1484 1.389 . S
C1483 H1462 0.950 . S
C1483 C1482 1.373 . S
C1483 C1499 1.377 . S
C1484 C1482 1.389 . S
C1484 C1485 1.524 . S
C1484 C1498 1.377 . S
C1485 C1484 1.524 . S
C1485 C1486 1.397 . S
C1485 C1490 1.363 . S
C1486 H1463 0.950 . S
C1486 C1485 1.397 . S
C1486 C1487 1.334 . S
C1487 H1464 0.950 . S
C1487 C1486 1.334 . S
C1487 C1488 1.287 . S
C1488 C1487 1.287 . S
C1488 C1489 1.524 . S
C1488 H1507 0.913 . S
C1489 H1465 0.950 . S
C1489 C1488 1.524 . S
C1489 C1490 1.415 . S
C1490 H1466 0.950 . S
C1490 C1485 1.363 . S
C1490 C1489 1.415 . S
C1491 H1467 0.951 . S
C1491 C1492 1.366 . S
C1491 C1493 1.388 . S
C1492 C1491 1.366 . S
C1492 C1496 1.385 . S
C1493 H1468 0.951 . S
C1493 C1491 1.388 . S
C1493 C1494 1.366 . S
C1494 C1493 1.366 . S
C1494 C1495 1.414 . S
C1494 C1497 1.499 . S
C1495 H1469 0.950 . S
C1495 C1494 1.414 . S
C1495 C1496 1.374 . S
C1496 H1470 0.950 . S
C1496 C1492 1.385 . S
C1496 C1495 1.374 . S
C1497 C1494 1.499 . S
C1497 C1498 1.373 . S
C1497 C1499 1.389 . S
C1498 H1471 0.950 . S
C1498 C1484 1.377 . S
C1498 C1497 1.373 . S
C1499 C1483 1.377 . S
C1499 C1497 1.389 . S
C1499 C1500 1.524 . S
C1500 C1499 1.524 . S
C1500 C1501 1.397 . S
C1500 C1505 1.363 . S
C1501 H1472 0.950 . S
C1501 C1500 1.397 . S
C1501 C1502 1.334 . S
C1502 H1473 0.950 . S
C1502 C1501 1.334 . S
C1502 C1503 1.287 . S
C1503 C1502 1.287 . S
C1503 C1504 1.524 . S
C1503 H1506 0.999 . S
C1504 H1474 0.950 . S
C1504 C1503 1.524 . S
C1504 C1505 1.415 . S
C1505 H1475 0.950 . S
C1505 C1500 1.363 . S
C1505 C1504 1.415 . S
H1506 C1503 0.999 . S
H1507 C1488 0.913 . S
H1508 C1526 0.951 . S
H1509 C1528 0.951 . S
H1510 C1530 0.950 . S
H1511 C1531 0.950 . S
H1512 C1533 0.950 . S
H1513 C1536 0.950 . S
H1514 C1537 0.950 . S
H1515 C1539 0.950 . S
H1516 C1540 0.950 . S
H1517 C1541 0.951 . S
H1518 C1543 0.951 . S
H1519 C1545 0.950 . S
H1520 C1546 0.950 . S
H1521 C1548 0.950 . S
H1522 C1551 0.950 . S
H1523 C1552 0.950 . S
H1524 C1554 0.950 . S
H1525 C1555 0.950 . S
C1526 H1508 0.951 . S
C1526 C1527 1.366 . S
C1526 C1528 1.388 . S
C1527 C1526 1.366 . S
C1527 C1531 1.385 . S
C1528 H1509 0.951 . S
C1528 C1526 1.388 . S
C1528 C1529 1.366 . S
C1529 C1528 1.366 . S
C1529 C1530 1.414 . S
C1529 C1532 1.499 . S
C1530 H1510 0.950 . S
C1530 C1529 1.414 . S
C1530 C1531 1.374 . S
C1531 H1511 0.950 . S
C1531 C1527 1.385 . S
C1531 C1530 1.374 . S
C1532 C1529 1.499 . S
C1532 C1533 1.373 . S
C1532 C1534 1.389 . S
C1533 H1512 0.950 . S
C1533 C1532 1.373 . S
C1533 C1549 1.377 . S
C1534 C1532 1.389 . S
C1534 C1535 1.524 . S
C1534 C1548 1.377 . S
C1535 C1534 1.524 . S
C1535 C1536 1.397 . S
C1535 C1540 1.363 . S
C1536 H1513 0.950 . S
C1536 C1535 1.397 . S
C1536 C1537 1.334 . S
C1537 H1514 0.950 . S
C1537 C1536 1.334 . S
C1537 C1538 1.287 . S
C1538 C1537 1.287 . S
C1538 C1539 1.524 . S
C1538 H1557 0.913 . S
C1539 H1515 0.950 . S
C1539 C1538 1.524 . S
C1539 C1540 1.415 . S
C1540 H1516 0.950 . S
C1540 C1535 1.363 . S
C1540 C1539 1.415 . S
C1541 H1517 0.951 . S
C1541 C1542 1.366 . S
C1541 C1543 1.388 . S
C1542 C1541 1.366 . S
C1542 C1546 1.385 . S
C1543 H1518 0.951 . S
C1543 C1541 1.388 . S
C1543 C1544 1.366 . S
C1544 C1543 1.366 . S
C1544 C1545 1.414 . S
C1544 C1547 1.499 . S
C1545 H1519 0.950 . S
C1545 C1544 1.414 . S
C1545 C1546 1.374 . S
C1546 H1520 0.950 . S
C1546 C1542 1.385 . S
C1546 C1545 1.374 . S
C1547 C1544 1.499 . S
C1547 C1548 1.373 . S
C1547 C1549 1.389 . S
C1548 H1521 0.950 . S
C1548 C1534 1.377 . S
C1548 C1547 1.373 . S
C1549 C1533 1.377 . S
C1549 C1547 1.389 . S
C1549 C1550 1.524 . S
C1550 C1549 1.524 . S
C1550 C1551 1.397 . S
C1550 C1555 1.363 . S
C1551 H1522 0.950 . S
C1551 C1550 1.397 . S
C1551 C1552 1.334 . S
C1552 H1523 0.950 . S
C1552 C1551 1.334 . S
C1552 C1553 1.287 . S
C1553 C1552 1.287 . S
C1553 C1554 1.524 . S
C1553 H1556 0.999 . S
C1554 H1524 0.950 . S
C1554 C1553 1.524 . S
C1554 C1555 1.415 . S
C1555 H1525 0.950 . S
C1555 C1550 1.363 . S
C1555 C1554 1.415 . S
H1556 C1553 0.999 . S
H1557 C1538 0.913 . S
H1558 C1576 0.951 . S
H1559 C1578 0.951 . S
H1560 C1580 0.950 . S
H1561 C1581 0.950 . S
H1562 C1583 0.950 . S
H1563 C1586 0.950 . S
H1564 C1587 0.950 . S
H1565 C1589 0.950 . S
H1566 C1590 0.950 . S
H1567 C1591 0.951 . S
H1568 C1593 0.951 . S
H1569 C1595 0.950 . S
H1570 C1596 0.950 . S
H1571 C1598 0.950 . S
H1572 C1601 0.950 . S
H1573 C1602 0.950 . S
H1574 C1604 0.950 . S
H1575 C1605 0.950 . S
C1576 H1558 0.951 . S
C1576 C1577 1.366 . S
C1576 C1578 1.388 . S
C1577 C1576 1.366 . S
C1577 C1581 1.385 . S
C1578 H1559 0.951 . S
C1578 C1576 1.388 . S
C1578 C1579 1.366 . S
C1579 C1578 1.366 . S
C1579 C1580 1.414 . S
C1579 C1582 1.499 . S
C1580 H1560 0.950 . S
C1580 C1579 1.414 . S
C1580 C1581 1.374 . S
C1581 H1561 0.950 . S
C1581 C1577 1.385 . S
C1581 C1580 1.374 . S
C1582 C1579 1.499 . S
C1582 C1583 1.373 . S
C1582 C1584 1.389 . S
C1583 H1562 0.950 . S
C1583 C1582 1.373 . S
C1583 C1599 1.377 . S
C1584 C1582 1.389 . S
C1584 C1585 1.524 . S
C1584 C1598 1.377 . S
C1585 C1584 1.524 . S
C1585 C1586 1.397 . S
C1585 C1590 1.363 . S
C1586 H1563 0.950 . S
C1586 C1585 1.397 . S
C1586 C1587 1.334 . S
C1587 H1564 0.950 . S
C1587 C1586 1.334 . S
C1587 C1588 1.287 . S
C1588 C1587 1.287 . S
C1588 C1589 1.524 . S
C1588 H1607 0.913 . S
C1589 H1565 0.950 . S
C1589 C1588 1.524 . S
C1589 C1590 1.415 . S
C1590 H1566 0.950 . S
C1590 C1585 1.363 . S
C1590 C1589 1.415 . S
C1591 H1567 0.951 . S
C1591 C1592 1.366 . S
C1591 C1593 1.388 . S
C1592 C1591 1.366 . S
C1592 C1596 1.385 . S
C1593 H1568 0.951 . S
C1593 C1591 1.388 . S
C1593 C1594 1.366 . S
C1594 C1593 1.366 . S
C1594 C1595 1.414 . S
C1594 C1597 1.499 . S
C1595 H1569 0.950 . S
C1595 C1594 1.414 . S
C1595 C1596 1.374 . S
C1596 H1570 0.950 . S
C1596 C1592 1.385 . S
C1596 C1595 1.374 . S
C1597 C1594 1.499 . S
C1597 C1598 1.373 . S
C1597 C1599 1.389 . S
C1598 H1571 0.950 . S
C1598 C1584 1.377 . S
C1598 C1597 1.373 . S
C1599 C1583 1.377 . S
C1599 C1597 1.389 . S
C1599 C1600 1.524 . S
C1600 C1599 1.524 . S
C1600 C1601 1.397 . S
C1600 C1605 1.363 . S
C1601 H1572 0.950 . S
C1601 C1600 1.397 . S
C1601 C1602 1.334 . S
C1602 H1573 0.950 . S
C1602 C1601 1.334 . S
C1602 C1603 1.287 . S
C1603 C1602 1.287 . S
C1603 C1604 1.524 . S
C1603 H1606 0.999 . S
C1604 H1574 0.950 . S
C1604 C1603 1.524 . S
C1604 C1605 1.415 . S
C1605 H1575 0.950 . S
C1605 C1600 1.363 . S
C1605 C1604 1.415 . S
H1606 C1603 0.999 . S
H1607 C1588 0.913 . S
H1608 C1626 0.951 . S
H1609 C1628 0.951 . S
H1610 C1630 0.950 . S
H1611 C1631 0.950 . S
H1612 C1633 0.950 . S
H1613 C1636 0.950 . S
H1614 C1637 0.950 . S
H1615 C1639 0.950 . S
H1616 C1640 0.950 . S
H1617 C1641 0.951 . S
H1618 C1643 0.951 . S
H1619 C1645 0.950 . S
H1620 C1646 0.950 . S
H1621 C1648 0.950 . S
H1622 C1651 0.950 . S
H1623 C1652 0.950 . S
H1624 C1654 0.950 . S
H1625 C1655 0.950 . S
C1626 H1608 0.951 . S
C1626 C1627 1.366 . S
C1626 C1628 1.388 . S
C1627 C1626 1.366 . S
C1627 C1631 1.385 . S
C1628 H1609 0.951 . S
C1628 C1626 1.388 . S
C1628 C1629 1.366 . S
C1629 C1628 1.366 . S
C1629 C1630 1.414 . S
C1629 C1632 1.499 . S
C1630 H1610 0.950 . S
C1630 C1629 1.414 . S
C1630 C1631 1.374 . S
C1631 H1611 0.950 . S
C1631 C1627 1.385 . S
C1631 C1630 1.374 . S
C1632 C1629 1.499 . S
C1632 C1633 1.373 . S
C1632 C1634 1.389 . S
C1633 H1612 0.950 . S
C1633 C1632 1.373 . S
C1633 C1649 1.377 . S
C1634 C1632 1.389 . S
C1634 C1635 1.524 . S
C1634 C1648 1.377 . S
C1635 C1634 1.524 . S
C1635 C1636 1.397 . S
C1635 C1640 1.363 . S
C1636 H1613 0.950 . S
C1636 C1635 1.397 . S
C1636 C1637 1.334 . S
C1637 H1614 0.950 . S
C1637 C1636 1.334 . S
C1637 C1638 1.287 . S
C1638 C1637 1.287 . S
C1638 C1639 1.524 . S
C1638 H1657 0.913 . S
C1639 H1615 0.950 . S
C1639 C1638 1.524 . S
C1639 C1640 1.415 . S
C1640 H1616 0.950 . S
C1640 C1635 1.363 . S
C1640 C1639 1.415 . S
C1641 H1617 0.951 . S
C1641 C1642 1.366 . S
C1641 C1643 1.388 . S
C1642 C1641 1.366 . S
C1642 C1646 1.385 . S
C1643 H1618 0.951 . S
C1643 C1641 1.388 . S
C1643 C1644 1.366 . S
C1644 C1643 1.366 . S
C1644 C1645 1.414 . S
C1644 C1647 1.499 . S
C1645 H1619 0.950 . S
C1645 C1644 1.414 . S
C1645 C1646 1.374 . S
C1646 H1620 0.950 . S
C1646 C1642 1.385 . S
C1646 C1645 1.374 . S
C1647 C1644 1.499 . S
C1647 C1648 1.373 . S
C1647 C1649 1.389 . S
C1648 H1621 0.950 . S
C1648 C1634 1.377 . S
C1648 C1647 1.373 . S
C1649 C1633 1.377 . S
C1649 C1647 1.389 . S
C1649 C1650 1.524 . S
C1650 C1649 1.524 . S
C1650 C1651 1.397 . S
C1650 C1655 1.363 . S
C1651 H1622 0.950 . S
C1651 C1650 1.397 . S
C1651 C1652 1.334 . S
C1652 H1623 0.950 . S
C1652 C1651 1.334 . S
C1652 C1653 1.287 . S
C1653 C1652 1.287 . S
C1653 C1654 1.524 . S
C1653 H1656 0.999 . S
C1654 H1624 0.950 . S
C1654 C1653 1.524 . S
C1654 C1655 1.415 . S
C1655 H1625 0.950 . S
C1655 C1650 1.363 . S
C1655 C1654 1.415 . S
H1656 C1653 0.999 . S
H1657 C1638 0.913 . S
H1658 C1676 0.951 . S
H1659 C1678 0.951 . S
H1660 C1680 0.950 . S
H1661 C1681 0.950 . S
H1662 C1683 0.950 . S
H1663 C1686 0.950 . S
H1664 C1687 0.950 . S
H1665 C1689 0.950 . S
H1666 C1690 0.950 . S
H1667 C1691 0.951 . S
H1668 C1693 0.951 . S
H1669 C1695 0.950 . S
H1670 C1696 0.950 . S
H1671 C1698 0.950 . S
H1672 C1701 0.950 . S
H1673 C1702 0.950 . S
H1674 C1704 0.950 . S
H1675 C1705 0.950 . S
C1676 H1658 0.951 . S
C1676 C1677 1.366 . S
C1676 C1678 1.388 . S
C1677 C1676 1.366 . S
C1677 C1681 1.385 . S
C1678 H1659 0.951 . S
C1678 C1676 1.388 . S
C1678 C1679 1.366 . S
C1679 C1678 1.366 . S
C1679 C1680 1.414 . S
C1679 C1682 1.499 . S
C1680 H1660 0.950 . S
C1680 C1679 1.414 . S
C1680 C1681 1.374 . S
C1681 H1661 0.950 . S
C1681 C1677 1.385 . S
C1681 C1680 1.374 . S
C1682 C1679 1.499 . S
C1682 C1683 1.373 . S
C1682 C1684 1.389 . S
C1683 H1662 0.950 . S
C1683 C1682 1.373 . S
C1683 C1699 1.377 . S
C1684 C1682 1.389 . S
C1684 C1685 1.524 . S
C1684 C1698 1.377 . S
C1685 C1684 1.524 . S
C1685 C1686 1.397 . S
C1685 C1690 1.363 . S
C1686 H1663 0.950 . S
C1686 C1685 1.397 . S
C1686 C1687 1.334 . S
C1687 H1664 0.950 . S
C1687 C1686 1.334 . S
C1687 C1688 1.287 . S
C1688 C1687 1.287 . S
C1688 C1689 1.524 . S
C1688 H1707 0.913 . S
C1689 H1665 0.950 . S
C1689 C1688 1.524 . S
C1689 C1690 1.415 . S
C1690 H1666 0.950 . S
C1690 C1685 1.363 . S
C1690 C1689 1.415 . S
C1691 H1667 0.951 . S
C1691 C1692 1.366 . S
C1691 C1693 1.388 . S
C1692 C1691 1.366 . S
C1692 C1696 1.385 . S
C1693 H1668 0.951 . S
C1693 C1691 1.388 . S
C1693 C1694 1.366 . S
C1694 C1693 1.366 . S
C1694 C1695 1.414 . S
C1694 C1697 1.499 . S
C1695 H1669 0.950 . S
C1695 C1694 1.414 . S
C1695 C1696 1.374 . S
C1696 H1670 0.950 . S
C1696 C1692 1.385 . S
C1696 C1695 1.374 . S
C1697 C1694 1.499 . S
C1697 C1698 1.373 . S
C1697 C1699 1.389 . S
C1698 H1671 0.950 . S
C1698 C1684 1.377 . S
C1698 C1697 1.373 . S
C1699 C1683 1.377 . S
C1699 C1697 1.389 . S
C1699 C1700 1.524 . S
C1700 C1699 1.524 . S
C1700 C1701 1.397 . S
C1700 C1705 1.363 . S
C1701 H1672 0.950 . S
C1701 C1700 1.397 . S
C1701 C1702 1.334 . S
C1702 H1673 0.950 . S
C1702 C1701 1.334 . S
C1702 C1703 1.287 . S
C1703 C1702 1.287 . S
C1703 C1704 1.524 . S
C1703 H1706 0.999 . S
C1704 H1674 0.950 . S
C1704 C1703 1.524 . S
C1704 C1705 1.415 . S
C1705 H1675 0.950 . S
C1705 C1700 1.363 . S
C1705 C1704 1.415 . S
H1706 C1703 0.999 . S
H1707 C1688 0.913 . S
H1708 C1726 0.951 . S
H1709 C1728 0.951 . S
H1710 C1730 0.950 . S
H1711 C1731 0.950 . S
H1712 C1733 0.950 . S
H1713 C1736 0.950 . S
H1714 C1737 0.950 . S
H1715 C1739 0.950 . S
H1716 C1740 0.950 . S
H1717 C1741 0.951 . S
H1718 C1743 0.951 . S
H1719 C1745 0.950 . S
H1720 C1746 0.950 . S
H1721 C1748 0.950 . S
H1722 C1751 0.950 . S
H1723 C1752 0.950 . S
H1724 C1754 0.950 . S
H1725 C1755 0.950 . S
C1726 H1708 0.951 . S
C1726 C1727 1.366 . S
C1726 C1728 1.388 . S
C1727 C1726 1.366 . S
C1727 C1731 1.385 . S
C1728 H1709 0.951 . S
C1728 C1726 1.388 . S
C1728 C1729 1.366 . S
C1729 C1728 1.366 . S
C1729 C1730 1.414 . S
C1729 C1732 1.499 . S
C1730 H1710 0.950 . S
C1730 C1729 1.414 . S
C1730 C1731 1.374 . S
C1731 H1711 0.950 . S
C1731 C1727 1.385 . S
C1731 C1730 1.374 . S
C1732 C1729 1.499 . S
C1732 C1733 1.373 . S
C1732 C1734 1.389 . S
C1733 H1712 0.950 . S
C1733 C1732 1.373 . S
C1733 C1749 1.377 . S
C1734 C1732 1.389 . S
C1734 C1735 1.524 . S
C1734 C1748 1.377 . S
C1735 C1734 1.524 . S
C1735 C1736 1.397 . S
C1735 C1740 1.363 . S
C1736 H1713 0.950 . S
C1736 C1735 1.397 . S
C1736 C1737 1.334 . S
C1737 H1714 0.950 . S
C1737 C1736 1.334 . S
C1737 C1738 1.287 . S
C1738 C1737 1.287 . S
C1738 C1739 1.524 . S
C1738 H1757 0.913 . S
C1739 H1715 0.950 . S
C1739 C1738 1.524 . S
C1739 C1740 1.415 . S
C1740 H1716 0.950 . S
C1740 C1735 1.363 . S
C1740 C1739 1.415 . S
C1741 H1717 0.951 . S
C1741 C1742 1.366 . S
C1741 C1743 1.388 . S
C1742 C1741 1.366 . S
C1742 C1746 1.385 . S
C1743 H1718 0.951 . S
C1743 C1741 1.388 . S
C1743 C1744 1.366 . S
C1744 C1743 1.366 . S
C1744 C1745 1.414 . S
C1744 C1747 1.499 . S
C1745 H1719 0.950 . S
C1745 C1744 1.414 . S
C1745 C1746 1.374 . S
C1746 H1720 0.950 . S
C1746 C1742 1.385 . S
C1746 C1745 1.374 . S
C1747 C1744 1.499 . S
C1747 C1748 1.373 . S
C1747 C1749 1.389 . S
C1748 H1721 0.950 . S
C1748 C1734 1.377 . S
C1748 C1747 1.373 . S
C1749 C1733 1.377 . S
C1749 C1747 1.389 . S
C1749 C1750 1.524 . S
C1750 C1749 1.524 . S
C1750 C1751 1.397 . S
C1750 C1755 1.363 . S
C1751 H1722 0.950 . S
C1751 C1750 1.397 . S
C1751 C1752 1.334 . S
C1752 H1723 0.950 . S
C1752 C1751 1.334 . S
C1752 C1753 1.287 . S
C1753 C1752 1.287 . S
C1753 C1754 1.524 . S
C1753 H1756 0.999 . S
C1754 H1724 0.950 . S
C1754 C1753 1.524 . S
C1754 C1755 1.415 . S
C1755 H1725 0.950 . S
C1755 C1750 1.363 . S
C1755 C1754 1.415 . S
H1756 C1753 0.999 . S
H1757 C1738 0.913 . S
H1758 C1776 0.951 . S
H1759 C1778 0.951 . S
H1760 C1780 0.950 . S
H1761 C1781 0.950 . S
H1762 C1783 0.950 . S
H1763 C1786 0.950 . S
H1764 C1787 0.950 . S
H1765 C1789 0.950 . S
H1766 C1790 0.950 . S
H1767 C1791 0.951 . S
H1768 C1793 0.951 . S
H1769 C1795 0.950 . S
H1770 C1796 0.950 . S
H1771 C1798 0.950 . S
H1772 C1801 0.950 . S
H1773 C1802 0.950 . S
H1774 C1804 0.950 . S
H1775 C1805 0.950 . S
C1776 H1758 0.951 . S
C1776 C1777 1.366 . S
C1776 C1778 1.388 . S
C1777 C1776 1.366 . S
C1777 C1781 1.385 . S
C1778 H1759 0.951 . S
C1778 C1776 1.388 . S
C1778 C1779 1.366 . S
C1779 C1778 1.366 . S
C1779 C1780 1.414 . S
C1779 C1782 1.499 . S
C1780 H1760 0.950 . S
C1780 C1779 1.414 . S
C1780 C1781 1.374 . S
C1781 H1761 0.950 . S
C1781 C1777 1.385 . S
C1781 C1780 1.374 . S
C1782 C1779 1.499 . S
C1782 C1783 1.373 . S
C1782 C1784 1.389 . S
C1783 H1762 0.950 . S
C1783 C1782 1.373 . S
C1783 C1799 1.377 . S
C1784 C1782 1.389 . S
C1784 C1785 1.524 . S
C1784 C1798 1.377 . S
C1785 C1784 1.524 . S
C1785 C1786 1.397 . S
C1785 C1790 1.363 . S
C1786 H1763 0.950 . S
C1786 C1785 1.397 . S
C1786 C1787 1.334 . S
C1787 H1764 0.950 . S
C1787 C1786 1.334 . S
C1787 C1788 1.287 . S
C1788 C1787 1.287 . S
C1788 C1789 1.524 . S
C1788 H1807 0.913 . S
C1789 H1765 0.950 . S
C1789 C1788 1.524 . S
C1789 C1790 1.415 . S
C1790 H1766 0.950 . S
C1790 C1785 1.363 . S
C1790 C1789 1.415 . S
C1791 H1767 0.951 . S
C1791 C1792 1.366 . S
C1791 C1793 1.388 . S
C1792 C1791 1.366 . S
C1792 C1796 1.385 . S
C1793 H1768 0.951 . S
C1793 C1791 1.388 . S
C1793 C1794 1.366 . S
C1794 C1793 1.366 . S
C1794 C1795 1.414 . S
C1794 C1797 1.499 . S
C1795 H1769 0.950 . S
C1795 C1794 1.414 . S
C1795 C1796 1.374 . S
C1796 H1770 0.950 . S
C1796 C1792 1.385 . S
C1796 C1795 1.374 . S
C1797 C1794 1.499 . S
C1797 C1798 1.373 . S
C1797 C1799 1.389 . S
C1798 H1771 0.950 . S
C1798 C1784 1.377 . S
C1798 C1797 1.373 . S
C1799 C1783 1.377 . S
C1799 C1797 1.389 . S
C1799 C1800 1.524 . S
C1800 C1799 1.524 . S
C1800 C1801 1.397 . S
C1800 C1805 1.363 . S
C1801 H1772 0.950 . S
C1801 C1800 1.397 . S
C1801 C1802 1.334 . S
C1802 H1773 0.950 . S
C1802 C1801 1.334 . S
C1802 C1803 1.287 . S
C1803 C1802 1.287 . S
C1803 C1804 1.524 . S
C1803 H1806 0.999 . S
C1804 H1774 0.950 . S
C1804 C1803 1.524 . S
C1804 C1805 1.415 . S
C1805 H1775 0.950 . S
C1805 C1800 1.363 . S
C1805 C1804 1.415 . S
H1806 C1803 0.999 . S
H1807 C1788 0.913 . S
H1808 C1826 0.951 . S
H1809 C1828 0.951 . S
H1810 C1830 0.950 . S
H1811 C1831 0.950 . S
H1812 C1833 0.950 . S
H1813 C1836 0.950 . S
H1814 C1837 0.950 . S
H1815 C1839 0.950 . S
H1816 C1840 0.950 . S
H1817 C1841 0.951 . S
H1818 C1843 0.951 . S
H1819 C1845 0.950 . S
H1820 C1846 0.950 . S
H1821 C1848 0.950 . S
H1822 C1851 0.950 . S
H1823 C1852 0.950 . S
H1824 C1854 0.950 . S
H1825 C1855 0.950 . S
C1826 H1808 0.951 . S
C1826 C1827 1.366 . S
C1826 C1828 1.388 . S
C1827 C1826 1.366 . S
C1827 C1831 1.385 . S
C1828 H1809 0.951 . S
C1828 C1826 1.388 . S
C1828 C1829 1.366 . S
C1829 C1828 1.366 . S
C1829 C1830 1.414 . S
C1829 C1832 1.499 . S
C1830 H1810 0.950 . S
C1830 C1829 1.414 . S
C1830 C1831 1.374 . S
C1831 H1811 0.950 . S
C1831 C1827 1.385 . S
C1831 C1830 1.374 . S
C1832 C1829 1.499 . S
C1832 C1833 1.373 . S
C1832 C1834 1.389 . S
C1833 H1812 0.950 . S
C1833 C1832 1.373 . S
C1833 C1849 1.377 . S
C1834 C1832 1.389 . S
C1834 C1835 1.524 . S
C1834 C1848 1.377 . S
C1835 C1834 1.524 . S
C1835 C1836 1.397 . S
C1835 C1840 1.363 . S
C1836 H1813 0.950 . S
C1836 C1835 1.397 . S
C1836 C1837 1.334 . S
C1837 H1814 0.950 . S
C1837 C1836 1.334 . S
C1837 C1838 1.287 . S
C1838 C1837 1.287 . S
C1838 C1839 1.524 . S
C1838 H1857 0.913 . S
C1839 H1815 0.950 . S
C1839 C1838 1.524 . S
C1839 C1840 1.415 . S
C1840 H1816 0.950 . S
C1840 C1835 1.363 . S
C1840 C1839 1.415 . S
C1841 H1817 0.951 . S
C1841 C1842 1.366 . S
C1841 C1843 1.388 . S
C1842 C1841 1.366 . S
C1842 C1846 1.385 . S
C1843 H1818 0.951 . S
C1843 C1841 1.388 . S
C1843 C1844 1.366 . S
C1844 C1843 1.366 . S
C1844 C1845 1.414 . S
C1844 C1847 1.499 . S
C1845 H1819 0.950 . S
C1845 C1844 1.414 . S
C1845 C1846 1.374 . S
C1846 H1820 0.950 . S
C1846 C1842 1.385 . S
C1846 C1845 1.374 . S
C1847 C1844 1.499 . S
C1847 C1848 1.373 . S
C1847 C1849 1.389 . S
C1848 H1821 0.950 . S
C1848 C1834 1.377 . S
C1848 C1847 1.373 . S
C1849 C1833 1.377 . S
C1849 C1847 1.389 . S
C1849 C1850 1.524 . S
C1850 C1849 1.524 . S
C1850 C1851 1.397 . S
C1850 C1855 1.363 . S
C1851 H1822 0.950 . S
C1851 C1850 1.397 . S
C1851 C1852 1.334 . S
C1852 H1823 0.950 . S
C1852 C1851 1.334 . S
C1852 C1853 1.287 . S
C1853 C1852 1.287 . S
C1853 C1854 1.524 . S
C1853 H1856 0.999 . S
C1854 H1824 0.950 . S
C1854 C1853 1.524 . S
C1854 C1855 1.415 . S
C1855 H1825 0.950 . S
C1855 C1850 1.363 . S
C1855 C1854 1.415 . S
H1856 C1853 0.999 . S
H1857 C1838 0.913 . S
H1858 C1876 0.951 . S
H1859 C1878 0.951 . S
H1860 C1880 0.950 . S
H1861 C1881 0.950 . S
H1862 C1883 0.950 . S
H1863 C1886 0.950 . S
H1864 C1887 0.950 . S
H1865 C1889 0.950 . S
H1866 C1890 0.950 . S
H1867 C1891 0.951 . S
H1868 C1893 0.951 . S
H1869 C1895 0.950 . S
H1870 C1896 0.950 . S
H1871 C1898 0.950 . S
H1872 C1901 0.950 . S
H1873 C1902 0.950 . S
H1874 C1904 0.950 . S
H1875 C1905 0.950 . S
C1876 H1858 0.951 . S
C1876 C1877 1.366 . S
C1876 C1878 1.388 . S
C1877 C1876 1.366 . S
C1877 C1881 1.385 . S
C1878 H1859 0.951 . S
C1878 C1876 1.388 . S
C1878 C1879 1.366 . S
C1879 C1878 1.366 . S
C1879 C1880 1.414 . S
C1879 C1882 1.499 . S
C1880 H1860 0.950 . S
C1880 C1879 1.414 . S
C1880 C1881 1.374 . S
C1881 H1861 0.950 . S
C1881 C1877 1.385 . S
C1881 C1880 1.374 . S
C1882 C1879 1.499 . S
C1882 C1883 1.373 . S
C1882 C1884 1.389 . S
C1883 H1862 0.950 . S
C1883 C1882 1.373 . S
C1883 C1899 1.377 . S
C1884 C1882 1.389 . S
C1884 C1885 1.524 . S
C1884 C1898 1.377 . S
C1885 C1884 1.524 . S
C1885 C1886 1.397 . S
C1885 C1890 1.363 . S
C1886 H1863 0.950 . S
C1886 C1885 1.397 . S
C1886 C1887 1.334 . S
C1887 H1864 0.950 . S
C1887 C1886 1.334 . S
C1887 C1888 1.287 . S
C1888 C1887 1.287 . S
C1888 C1889 1.524 . S
C1888 H1907 0.913 . S
C1889 H1865 0.950 . S
C1889 C1888 1.524 . S
C1889 C1890 1.415 . S
C1890 H1866 0.950 . S
C1890 C1885 1.363 . S
C1890 C1889 1.415 . S
C1891 H1867 0.951 . S
C1891 C1892 1.366 . S
C1891 C1893 1.388 . S
C1892 C1891 1.366 . S
C1892 C1896 1.385 . S
C1893 H1868 0.951 . S
C1893 C1891 1.388 . S
C1893 C1894 1.366 . S
C1894 C1893 1.366 . S
C1894 C1895 1.414 . S
C1894 C1897 1.499 . S
C1895 H1869 0.950 . S
C1895 C1894 1.414 . S
C1895 C1896 1.374 . S
C1896 H1870 0.950 . S
C1896 C1892 1.385 . S
C1896 C1895 1.374 . S
C1897 C1894 1.499 . S
C1897 C1898 1.373 . S
C1897 C1899 1.389 . S
C1898 H1871 0.950 . S
C1898 C1884 1.377 . S
C1898 C1897 1.373 . S
C1899 C1883 1.377 . S
C1899 C1897 1.389 . S
C1899 C1900 1.524 . S
C1900 C1899 1.524 . S
C1900 C1901 1.397 . S
C1900 C1905 1.363 . S
C1901 H1872 0.950 . S
C1901 C1900 1.397 . S
C1901 C1902 1.334 . S
C1902 H1873 0.950 . S
C1902 C1901 1.334 . S
C1902 C1903 1.287 . S
C1903 C1902 1.287 . S
C1903 C1904 1.524 . S
C1903 H1906 0.999 . S
C1904 H1874 0.950 . S
C1904 C1903 1.524 . S
C1904 C1905 1.415 . S
C1905 H1875 0.950 . S
C1905 C1900 1.363 . S
C1905 C1904 1.415 . S
H1906 C1903 0.999 . S
H1907 C1888 0.913 . S
H1908 C1926 0.951 . S
H1909 C1928 0.951 . S
H1910 C1930 0.950 . S
H1911 C1931 0.950 . S
H1912 C1933 0.950 . S
H1913 C1936 0.950 . S
H1914 C1937 0.950 . S
H1915 C1939 0.950 . S
H1916 C1940 0.950 . S
H1917 C1941 0.951 . S
H1918 C1943 0.951 . S
H1919 C1945 0.950 . S
H1920 C1946 0.950 . S
H1921 C1948 0.950 . S
H1922 C1951 0.950 . S
H1923 C1952 0.950 . S
H1924 C1954 0.950 . S
H1925 C1955 0.950 . S
C1926 H1908 0.951 . S
C1926 C1927 1.366 . S
C1926 C1928 1.388 . S
C1927 C1926 1.366 . S
C1927 C1931 1.385 . S
C1928 H1909 0.951 . S
C1928 C1926 1.388 . S
C1928 C1929 1.366 . S
C1929 C1928 1.366 . S
C1929 C1930 1.414 . S
C1929 C1932 1.499 . S
C1930 H1910 0.950 . S
C1930 C1929 1.414 . S
C1930 C1931 1.374 . S
C1931 H1911 0.950 . S
C1931 C1927 1.385 . S
C1931 C1930 1.374 . S
C1932 C1929 1.499 . S
C1932 C1933 1.373 . S
C1932 C1934 1.389 . S
C1933 H1912 0.950 . S
C1933 C1932 1.373 . S
C1933 C1949 1.377 . S
C1934 C1932 1.389 . S
C1934 C1935 1.524 . S
C1934 C1948 1.377 . S
C1935 C1934 1.524 . S
C1935 C1936 1.397 . S
C1935 C1940 1.363 . S
C1936 H1913 0.950 . S
C1936 C1935 1.397 . S
C1936 C1937 1.334 . S
C1937 H1914 0.950 . S
C1937 C1936 1.334 . S
C1937 C1938 1.287 . S
C1938 C1937 1.287 . S
C1938 C1939 1.524 . S
C1938 H1957 0.913 . S
C1939 H1915 0.950 . S
C1939 C1938 1.524 . S
C1939 C1940 1.415 . S
C1940 H1916 0.950 . S
C1940 C1935 1.363 . S
C1940 C1939 1.415 . S
C1941 H1917 0.951 . S
C1941 C1942 1.366 . S
C1941 C1943 1.388 . S
C1942 C1941 1.366 . S
C1942 C1946 1.385 . S
C1943 H1918 0.951 . S
C1943 C1941 1.388 . S
C1943 C1944 1.366 . S
C1944 C1943 1.366 . S
C1944 C1945 1.414 . S
C1944 C1947 1.499 . S
C1945 H1919 0.950 . S
C1945 C1944 1.414 . S
C1945 C1946 1.374 . S
C1946 H1920 0.950 . S
C1946 C1942 1.385 . S
C1946 C1945 1.374 . S
C1947 C1944 1.499 . S
C1947 C1948 1.373 . S
C1947 C1949 1.389 . S
C1948 H1921 0.950 . S
C1948 C1934 1.377 . S
C1948 C1947 1.373 . S
C1949 C1933 1.377 . S
C1949 C1947 1.389 . S
C1949 C1950 1.524 . S
C1950 C1949 1.524 . S
C1950 C1951 1.397 . S
C1950 C1955 1.363 . S
C1951 H1922 0.950 . S
C1951 C1950 1.397 . S
C1951 C1952 1.334 . S
C1952 H1923 0.950 . S
C1952 C1951 1.334 . S
C1952 C1953 1.287 . S
C1953 C1952 1.287 . S
C1953 C1954 1.524 . S
C1953 H1956 0.999 . S
C1954 H1924 0.950 . S
C1954 C1953 1.524 . S
C1954 C1955 1.415 . S
C1955 H1925 0.950 . S
C1955 C1950 1.363 . S
C1955 C1954 1.415 . S
H1956 C1953 0.999 . S
H1957 C1938 0.913 . S
H1958 C1976 0.951 . S
H1959 C1978 0.951 . S
H1960 C1980 0.950 . S
H1961 C1981 0.950 . S
H1962 C1983 0.950 . S
H1963 C1986 0.950 . S
H1964 C1987 0.950 . S
H1965 C1989 0.950 . S
H1966 C1990 0.950 . S
H1967 C1991 0.951 . S
H1968 C1993 0.951 . S
H1969 C1995 0.950 . S
H1970 C1996 0.950 . S
H1971 C1998 0.950 . S
H1972 C2001 0.950 . S
H1973 C2002 0.950 . S
H1974 C2004 0.950 . S
H1975 C2005 0.950 . S
C1976 H1958 0.951 . S
C1976 C1977 1.366 . S
C1976 C1978 1.388 . S
C1977 C1976 1.366 . S
C1977 C1981 1.385 . S
C1978 H1959 0.951 . S
C1978 C1976 1.388 . S
C1978 C1979 1.366 . S
C1979 C1978 1.366 . S
C1979 C1980 1.414 . S
C1979 C1982 1.499 . S
C1980 H1960 0.950 . S
C1980 C1979 1.414 . S
C1980 C1981 1.374 . S
C1981 H1961 0.950 . S
C1981 C1977 1.385 . S
C1981 C1980 1.374 . S
C1982 C1979 1.499 . S
C1982 C1983 1.373 . S
C1982 C1984 1.389 . S
C1983 H1962 0.950 . S
C1983 C1982 1.373 . S
C1983 C1999 1.377 . S
C1984 C1982 1.389 . S
C1984 C1985 1.524 . S
C1984 C1998 1.377 . S
C1985 C1984 1.524 . S
C1985 C1986 1.397 . S
C1985 C1990 1.363 . S
C1986 H1963 0.950 . S
C1986 C1985 1.397 . S
C1986 C1987 1.334 . S
C1987 H1964 0.950 . S
C1987 C1986 1.334 . S
C1987 C1988 1.287 . S
C1988 C1987 1.287 . S
C1988 C1989 1.524 . S
C1988 H2007 0.913 . S
C1989 H1965 0.950 . S
C1989 C1988 1.524 . S
C1989 C1990 1.415 . S
C1990 H1966 0.950 . S
C1990 C1985 1.363 . S
C1990 C1989 1.415 . S
C1991 H1967 0.951 . S
C1991 C1992 1.366 . S
C1991 C1993 1.388 . S
C1992 C1991 1.366 . S
C1992 C1996 1.385 . S
C1993 H1968 0.951 . S
C1993 C1991 1.388 . S
C1993 C1994 1.366 . S
C1994 C1993 1.366 . S
C1994 C1995 1.414 . S
C1994 C1997 1.499 . S
C1995 H1969 0.950 . S
C1995 C1994 1.414 . S
C1995 C1996 1.374 . S
C1996 H1970 0.950 . S
C1996 C1992 1.385 . S
C1996 C1995 1.374 . S
C1997 C1994 1.499 . S
C1997 C1998 1.373 . S
C1997 C1999 1.389 . S
C1998 H1971 0.950 . S
C1998 C1984 1.377 . S
C1998 C1997 1.373 . S
C1999 C1983 1.377 . S
C1999 C1997 1.389 . S
C1999 C2000 1.524 . S
C2000 C1999 1.524 . S
C2000 C2001 1.397 . S
C2000 C2005 1.363 . S
C2001 H1972 0.950 . S
C2001 C2000 1.397 . S
C2001 C2002 1.334 . S
C2002 H1973 0.950 . S
C2002 C2001 1.334 . S
C2002 C2003 1.287 . S
C2003 C2002 1.287 . S
C2003 C2004 1.524 . S
C2003 H2006 0.999 . S
C2004 H1974 0.950 . S
C2004 C2003 1.524 . S
C2004 C2005 1.415 . S
C2005 H1975 0.950 . S
C2005 C2000 1.363 . S
C2005 C2004 1.415 . S
H2006 C2003 0.999 . S
H2007 C1988 0.913 . S
H2008 C2026 0.951 . S
H2009 C2028 0.951 . S
H2010 C2030 0.950 . S
H2011 C2031 0.950 . S
H2012 C2033 0.950 . S
H2013 C2036 0.950 . S
H2014 C2037 0.950 . S
H2015 C2039 0.950 . S
H2016 C2040 0.950 . S
H2017 C2041 0.951 . S
H2018 C2043 0.951 . S
H2019 C2045 0.950 . S
H2020 C2046 0.950 . S
H2021 C2048 0.950 . S
H2022 C2051 0.950 . S
H2023 C2052 0.950 . S
H2024 C2054 0.950 . S
H2025 C2055 0.950 . S
C2026 H2008 0.951 . S
C2026 C2027 1.366 . S
C2026 C2028 1.388 . S
C2027 C2026 1.366 . S
C2027 C2031 1.385 . S
C2028 H2009 0.951 . S
C2028 C2026 1.388 . S
C2028 C2029 1.366 . S
C2029 C2028 1.366 . S
C2029 C2030 1.414 . S
C2029 C2032 1.499 . S
C2030 H2010 0.950 . S
C2030 C2029 1.414 . S
C2030 C2031 1.374 . S
C2031 H2011 0.950 . S
C2031 C2027 1.385 . S
C2031 C2030 1.374 . S
C2032 C2029 1.499 . S
C2032 C2033 1.373 . S
C2032 C2034 1.389 . S
C2033 H2012 0.950 . S
C2033 C2032 1.373 . S
C2033 C2049 1.377 . S
C2034 C2032 1.389 . S
C2034 C2035 1.524 . S
C2034 C2048 1.377 . S
C2035 C2034 1.524 . S
C2035 C2036 1.397 . S
C2035 C2040 1.363 . S
C2036 H2013 0.950 . S
C2036 C2035 1.397 . S
C2036 C2037 1.334 . S
C2037 H2014 0.950 . S
C2037 C2036 1.334 . S
C2037 C2038 1.287 . S
C2038 C2037 1.287 . S
C2038 C2039 1.524 . S
C2038 H2057 0.913 . S
C2039 H2015 0.950 . S
C2039 C2038 1.524 . S
C2039 C2040 1.415 . S
C2040 H2016 0.950 . S
C2040 C2035 1.363 . S
C2040 C2039 1.415 . S
C2041 H2017 0.951 . S
C2041 C2042 1.366 . S
C2041 C2043 1.388 . S
C2042 C2041 1.366 . S
C2042 C2046 1.385 . S
C2043 H2018 0.951 . S
C2043 C2041 1.388 . S
C2043 C2044 1.366 . S
C2044 C2043 1.366 . S
C2044 C2045 1.414 . S
C2044 C2047 1.499 . S
C2045 H2019 0.950 . S
C2045 C2044 1.414 . S
C2045 C2046 1.374 . S
C2046 H2020 0.950 . S
C2046 C2042 1.385 . S
C2046 C2045 1.374 . S
C2047 C2044 1.499 . S
C2047 C2048 1.373 . S
C2047 C2049 1.389 . S
C2048 H2021 0.950 . S
C2048 C2034 1.377 . S
C2048 C2047 1.373 . S
C2049 C2033 1.377 . S
C2049 C2047 1.389 . S
C2049 C2050 1.524 . S
C2050 C2049 1.524 . S
C2050 C2051 1.397 . S
C2050 C2055 1.363 . S
C2051 H2022 0.950 . S
C2051 C2050 1.397 . S
C2051 C2052 1.334 . S
C2052 H2023 0.950 . S
C2052 C2051 1.334 . S
C2052 C2053 1.287 . S
C2053 C2052 1.287 . S
C2053 C2054 1.524 . S
C2053 H2056 0.999 . S
C2054 H2024 0.950 . S
C2054 C2053 1.524 . S
C2054 C2055 1.415 . S
C2055 H2025 0.950 . S
C2055 C2050 1.363 . S
C2055 C2054 1.415 . S
H2056 C2053 0.999 . S
H2057 C2038 0.913 . S
H2058 C2076 0.951 . S
H2059 C2078 0.951 . S
H2060 C2080 0.950 . S
H2061 C2081 0.950 . S
H2062 C2083 0.950 . S
H2063 C2086 0.950 . S
H2064 C2087 0.950 . S
H2065 C2089 0.950 . S
H2066 C2090 0.950 . S
H2067 C2091 0.951 . S
H2068 C2093 0.951 . S
H2069 C2095 0.950 . S
H2070 C2096 0.950 . S
H2071 C2098 0.950 . S
H2072 C2101 0.950 . S
H2073 C2102 0.950 . S
H2074 C2104 0.950 . S
H2075 C2105 0.950 . S
C2076 H2058 0.951 . S
C2076 C2077 1.366 . S
C2076 C2078 1.388 . S
C2077 C2076 1.366 . S
C2077 C2081 1.385 . S
C2078 H2059 0.951 . S
C2078 C2076 1.388 . S
C2078 C2079 1.366 . S
C2079 C2078 1.366 . S
C2079 C2080 1.414 . S
C2079 C2082 1.499 . S
C2080 H2060 0.950 . S
C2080 C2079 1.414 . S
C2080 C2081 1.374 . S
C2081 H2061 0.950 . S
C2081 C2077 1.385 . S
C2081 C2080 1.374 . S
C2082 C2079 1.499 . S
C2082 C2083 1.373 . S
C2082 C2084 1.389 . S
C2083 H2062 0.950 . S
C2083 C2082 1.373 . S
C2083 C2099 1.377 . S
C2084 C2082 1.389 . S
C2084 C2085 1.524 . S
C2084 C2098 1.377 . S
C2085 C2084 1.524 . S
C2085 C2086 1.397 . S
C2085 C2090 1.363 . S
C2086 H2063 0.950 . S
C2086 C2085 1.397 . S
C2086 C2087 1.334 . S
C2087 H2064 0.950 . S
C2087 C2086 1.334 . S
C2087 C2088 1.287 . S
C2088 C2087 1.287 . S
C2088 C2089 1.524 . S
C2088 H2107 0.913 . S
C2089 H2065 0.950 . S
C2089 C2088 1.524 . S
C2089 C2090 1.415 . S
C2090 H2066 0.950 . S
C2090 C2085 1.363 . S
C2090 C2089 1.415 . S
C2091 H2067 0.951 . S
C2091 C2092 1.366 . S
C2091 C2093 1.388 . S
C2092 C2091 1.366 . S
C2092 C2096 1.385 . S
C2093 H2068 0.951 . S
C2093 C2091 1.388 . S
C2093 C2094 1.366 . S
C2094 C2093 1.366 . S
C2094 C2095 1.414 . S
C2094 C2097 1.499 . S
C2095 H2069 0.950 . S
C2095 C2094 1.414 . S
C2095 C2096 1.374 . S
C2096 H2070 0.950 . S
C2096 C2092 1.385 . S
C2096 C2095 1.374 . S
C2097 C2094 1.499 . S
C2097 C2098 1.373 . S
C2097 C2099 1.389 . S
C2098 H2071 0.950 . S
C2098 C2084 1.377 . S
C2098 C2097 1.373 . S
C2099 C2083 1.377 . S
C2099 C2097 1.389 . S
C2099 C2100 1.524 . S
C2100 C2099 1.524 . S
C2100 C2101 1.397 . S
C2100 C2105 1.363 . S
C2101 H2072 0.950 . S
C2101 C2100 1.397 . S
C2101 C2102 1.334 . S
C2102 H2073 0.950 . S
C2102 C2101 1.334 . S
C2102 C2103 1.287 . S
C2103 C2102 1.287 . S
C2103 C2104 1.524 . S
C2103 H2106 0.999 . S
C2104 H2074 0.950 . S
C2104 C2103 1.524 . S
C2104 C2105 1.415 . S
C2105 H2075 0.950 . S
C2105 C2100 1.363 . S
C2105 C2104 1.415 . S
H2106 C2103 0.999 . S
H2107 C2088 0.913 . S
H2108 C2126 0.951 . S
H2109 C2128 0.951 . S
H2110 C2130 0.950 . S
H2111 C2131 0.950 . S
H2112 C2133 0.950 . S
H2113 C2136 0.950 . S
H2114 C2137 0.950 . S
H2115 C2139 0.950 . S
H2116 C2140 0.950 . S
H2117 C2141 0.951 . S
H2118 C2143 0.951 . S
H2119 C2145 0.950 . S
H2120 C2146 0.950 . S
H2121 C2148 0.950 . S
H2122 C2151 0.950 . S
H2123 C2152 0.950 . S
H2124 C2154 0.950 . S
H2125 C2155 0.950 . S
C2126 H2108 0.951 . S
C2126 C2127 1.366 . S
C2126 C2128 1.388 . S
C2127 C2126 1.366 . S
C2127 C2131 1.385 . S
C2128 H2109 0.951 . S
C2128 C2126 1.388 . S
C2128 C2129 1.366 . S
C2129 C2128 1.366 . S
C2129 C2130 1.414 . S
C2129 C2132 1.499 . S
C2130 H2110 0.950 . S
C2130 C2129 1.414 . S
C2130 C2131 1.374 . S
C2131 H2111 0.950 . S
C2131 C2127 1.385 . S
C2131 C2130 1.374 . S
C2132 C2129 1.499 . S
C2132 C2133 1.373 . S
C2132 C2134 1.389 . S
C2133 H2112 0.950 . S
C2133 C2132 1.373 . S
C2133 C2149 1.377 . S
C2134 C2132 1.389 . S
C2134 C2135 1.524 . S
C2134 C2148 1.377 . S
C2135 C2134 1.524 . S
C2135 C2136 1.397 . S
C2135 C2140 1.363 . S
C2136 H2113 0.950 . S
C2136 C2135 1.397 . S
C2136 C2137 1.334 . S
C2137 H2114 0.950 . S
C2137 C2136 1.334 . S
C2137 C2138 1.287 . S
C2138 C2137 1.287 . S
C2138 C2139 1.524 . S
C2138 H2157 0.913 . S
C2139 H2115 0.950 . S
C2139 C2138 1.524 . S
C2139 C2140 1.415 . S
C2140 H2116 0.950 . S
C2140 C2135 1.363 . S
C2140 C2139 1.415 . S
C2141 H2117 0.951 . S
C2141 C2142 1.366 . S
C2141 C2143 1.388 . S
C2142 C2141 1.366 . S
C2142 C2146 1.385 . S
C2143 H2118 0.951 . S
C2143 C2141 1.388 . S
C2143 C2144 1.366 . S
C2144 C2143 1.366 . S
C2144 C2145 1.414 . S
C2144 C2147 1.499 . S
C2145 H2119 0.950 . S
C2145 C2144 1.414 . S
C2145 C2146 1.374 . S
C2146 H2120 0.950 . S
C2146 C2142 1.385 . S
C2146 C2145 1.374 . S
C2147 C2144 1.499 . S
C2147 C2148 1.373 . S
C2147 C2149 1.389 . S
C2148 H2121 0.950 . S
C2148 C2134 1.377 . S
C2148 C2147 1.373 . S
C2149 C2133 1.377 . S
C2149 C2147 1.389 . S
C2149 C2150 1.524 . S
C2150 C2149 1.524 . S
C2150 C2151 1.397 . S
C2150 C2155 1.363 . S
C2151 H2122 0.950 . S
C2151 C2150 1.397 . S
C2151 C2152 1.334 . S
C2152 H2123 0.950 . S
C2152 C2151 1.334 . S
C2152 C2153 1.287 . S
C2153 C2152 1.287 . S
C2153 C2154 1.524 . S
C2153 H2156 0.999 . S
C2154 H2124 0.950 . S
C2154 C2153 1.524 . S
C2154 C2155 1.415 . S
C2155 H2125 0.950 . S
C2155 C2150 1.363 . S
C2155 C2154 1.415 . S
H2156 C2153 0.999 . S
H2157 C2138 0.913 . S
H2158 C2176 0.951 . S
H2159 C2178 0.951 . S
H2160 C2180 0.950 . S
H2161 C2181 0.950 . S
H2162 C2183 0.950 . S
H2163 C2186 0.950 . S
H2164 C2187 0.950 . S
H2165 C2189 0.950 . S
H2166 C2190 0.950 . S
H2167 C2191 0.951 . S
H2168 C2193 0.951 . S
H2169 C2195 0.950 . S
H2170 C2196 0.950 . S
H2171 C2198 0.950 . S
H2172 C2201 0.950 . S
H2173 C2202 0.950 . S
H2174 C2204 0.950 . S
H2175 C2205 0.950 . S
C2176 H2158 0.951 . S
C2176 C2177 1.366 . S
C2176 C2178 1.388 . S
C2177 C2176 1.366 . S
C2177 C2181 1.385 . S
C2178 H2159 0.951 . S
C2178 C2176 1.388 . S
C2178 C2179 1.366 . S
C2179 C2178 1.366 . S
C2179 C2180 1.414 . S
C2179 C2182 1.499 . S
C2180 H2160 0.950 . S
C2180 C2179 1.414 . S
C2180 C2181 1.374 . S
C2181 H2161 0.950 . S
C2181 C2177 1.385 . S
C2181 C2180 1.374 . S
C2182 C2179 1.499 . S
C2182 C2183 1.373 . S
C2182 C2184 1.389 . S
C2183 H2162 0.950 . S
C2183 C2182 1.373 . S
C2183 C2199 1.377 . S
C2184 C2182 1.389 . S
C2184 C2185 1.524 . S
C2184 C2198 1.377 . S
C2185 C2184 1.524 . S
C2185 C2186 1.397 . S
C2185 C2190 1.363 . S
C2186 H2163 0.950 . S
C2186 C2185 1.397 . S
C2186 C2187 1.334 . S
C2187 H2164 0.950 . S
C2187 C2186 1.334 . S
C2187 C2188 1.287 . S
C2188 C2187 1.287 . S
C2188 C2189 1.524 . S
C2188 H2207 0.913 . S
C2189 H2165 0.950 . S
C2189 C2188 1.524 . S
C2189 C2190 1.415 . S
C2190 H2166 0.950 . S
C2190 C2185 1.363 . S
C2190 C2189 1.415 . S
C2191 H2167 0.951 . S
C2191 C2192 1.366 . S
C2191 C2193 1.388 . S
C2192 C2191 1.366 . S
C2192 C2196 1.385 . S
C2193 H2168 0.951 . S
C2193 C2191 1.388 . S
C2193 C2194 1.366 . S
C2194 C2193 1.366 . S
C2194 C2195 1.414 . S
C2194 C2197 1.499 . S
C2195 H2169 0.950 . S
C2195 C2194 1.414 . S
C2195 C2196 1.374 . S
C2196 H2170 0.950 . S
C2196 C2192 1.385 . S
C2196 C2195 1.374 . S
C2197 C2194 1.499 . S
C2197 C2198 1.373 . S
C2197 C2199 1.389 . S
C2198 H2171 0.950 . S
C2198 C2184 1.377 . S
C2198 C2197 1.373 . S
C2199 C2183 1.377 . S
C2199 C2197 1.389 . S
C2199 C2200 1.524 . S
C2200 C2199 1.524 . S
C2200 C2201 1.397 . S
C2200 C2205 1.363 . S
C2201 H2172 0.950 . S
C2201 C2200 1.397 . S
C2201 C2202 1.334 . S
C2202 H2173 0.950 . S
C2202 C2201 1.334 . S
C2202 C2203 1.287 . S
C2203 C2202 1.287 . S
C2203 C2204 1.524 . S
C2203 H2206 0.999 . S
C2204 H2174 0.950 . S
C2204 C2203 1.524 . S
C2204 C2205 1.415 . S
C2205 H2175 0.950 . S
C2205 C2200 1.363 . S
C2205 C2204 1.415 . S
H2206 C2203 0.999 . S
H2207 C2188 0.913 . S
H2208 C2226 0.951 . S
H2209 C2228 0.951 . S
H2210 C2230 0.950 . S
H2211 C2231 0.950 . S
H2212 C2233 0.950 . S
H2213 C2236 0.950 . S
H2214 C2237 0.950 . S
H2215 C2239 0.950 . S
H2216 C2240 0.950 . S
H2217 C2241 0.951 . S
H2218 C2243 0.951 . S
H2219 C2245 0.950 . S
H2220 C2246 0.950 . S
H2221 C2248 0.950 . S
H2222 C2251 0.950 . S
H2223 C2252 0.950 . S
H2224 C2254 0.950 . S
H2225 C2255 0.950 . S
C2226 H2208 0.951 . S
C2226 C2227 1.366 . S
C2226 C2228 1.388 . S
C2227 C2226 1.366 . S
C2227 C2231 1.385 . S
C2228 H2209 0.951 . S
C2228 C2226 1.388 . S
C2228 C2229 1.366 . S
C2229 C2228 1.366 . S
C2229 C2230 1.414 . S
C2229 C2232 1.499 . S
C2230 H2210 0.950 . S
C2230 C2229 1.414 . S
C2230 C2231 1.374 . S
C2231 H2211 0.950 . S
C2231 C2227 1.385 . S
C2231 C2230 1.374 . S
C2232 C2229 1.499 . S
C2232 C2233 1.373 . S
C2232 C2234 1.389 . S
C2233 H2212 0.950 . S
C2233 C2232 1.373 . S
C2233 C2249 1.377 . S
C2234 C2232 1.389 . S
C2234 C2235 1.524 . S
C2234 C2248 1.377 . S
C2235 C2234 1.524 . S
C2235 C2236 1.397 . S
C2235 C2240 1.363 . S
C2236 H2213 0.950 . S
C2236 C2235 1.397 . S
C2236 C2237 1.334 . S
C2237 H2214 0.950 . S
C2237 C2236 1.334 . S
C2237 C2238 1.287 . S
C2238 C2237 1.287 . S
C2238 C2239 1.524 . S
C2238 H2257 0.913 . S
C2239 H2215 0.950 . S
C2239 C2238 1.524 . S
C2239 C2240 1.415 . S
C2240 H2216 0.950 . S
C2240 C2235 1.363 . S
C2240 C2239 1.415 . S
C2241 H2217 0.951 . S
C2241 C2242 1.366 . S
C2241 C2243 1.388 . S
C2242 C2241 1.366 . S
C2242 C2246 1.385 . S
C2243 H2218 0.951 . S
C2243 C2241 1.388 . S
C2243 C2244 1.366 . S
C2244 C2243 1.366 . S
C2244 C2245 1.414 . S
C2244 C2247 1.499 . S
C2245 H2219 0.950 . S
C2245 C2244 1.414 . S
C2245 C2246 1.374 . S
C2246 H2220 0.950 . S
C2246 C2242 1.385 . S
C2246 C2245 1.374 . S
C2247 C2244 1.499 . S
C2247 C2248 1.373 . S
C2247 C2249 1.389 . S
C2248 H2221 0.950 . S
C2248 C2234 1.377 . S
C2248 C2247 1.373 . S
C2249 C2233 1.377 . S
C2249 C2247 1.389 . S
C2249 C2250 1.524 . S
C2250 C2249 1.524 . S
C2250 C2251 1.397 . S
C2250 C2255 1.363 . S
C2251 H2222 0.950 . S
C2251 C2250 1.397 . S
C2251 C2252 1.334 . S
C2252 H2223 0.950 . S
C2252 C2251 1.334 . S
C2252 C2253 1.287 . S
C2253 C2252 1.287 . S
C2253 C2254 1.524 . S
C2253 H2256 0.999 . S
C2254 H2224 0.950 . S
C2254 C2253 1.524 . S
C2254 C2255 1.415 . S
C2255 H2225 0.950 . S
C2255 C2250 1.363 . S
C2255 C2254 1.415 . S
H2256 C2253 0.999 . S
H2257 C2238 0.913 . S
H2258 C2276 0.951 . S
H2259 C2278 0.951 . S
H2260 C2280 0.950 . S
H2261 C2281 0.950 . S
H2262 C2283 0.950 . S
H2263 C2286 0.950 . S
H2264 C2287 0.950 . S
H2265 C2289 0.950 . S
H2266 C2290 0.950 . S
H2267 C2291 0.951 . S
H2268 C2293 0.951 . S
H2269 C2295 0.950 . S
H2270 C2296 0.950 . S
H2271 C2298 0.950 . S
H2272 C2301 0.950 . S
H2273 C2302 0.950 . S
H2274 C2304 0.950 . S
H2275 C2305 0.950 . S
C2276 H2258 0.951 . S
C2276 C2277 1.366 . S
C2276 C2278 1.388 . S
C2277 C2276 1.366 . S
C2277 C2281 1.385 . S
C2278 H2259 0.951 . S
C2278 C2276 1.388 . S
C2278 C2279 1.366 . S
C2279 C2278 1.366 . S
C2279 C2280 1.414 . S
C2279 C2282 1.499 . S
C2280 H2260 0.950 . S
C2280 C2279 1.414 . S
C2280 C2281 1.374 . S
C2281 H2261 0.950 . S
C2281 C2277 1.385 . S
C2281 C2280 1.374 . S
C2282 C2279 1.499 . S
C2282 C2283 1.373 . S
C2282 C2284 1.389 . S
C2283 H2262 0.950 . S
C2283 C2282 1.373 . S
C2283 C2299 1.377 . S
C2284 C2282 1.389 . S
C2284 C2285 1.524 . S
C2284 C2298 1.377 . S
C2285 C2284 1.524 . S
C2285 C2286 1.397 . S
C2285 C2290 1.363 . S
C2286 H2263 0.950 . S
C2286 C2285 1.397 . S
C2286 C2287 1.334 . S
C2287 H2264 0.950 . S
C2287 C2286 1.334 . S
C2287 C2288 1.287 . S
C2288 C2287 1.287 . S
C2288 C2289 1.524 . S
C2288 H2307 0.913 . S
C2289 H2265 0.950 . S
C2289 C2288 1.524 . S
C2289 C2290 1.415 . S
C2290 H2266 0.950 . S
C2290 C2285 1.363 . S
C2290 C2289 1.415 . S
C2291 H2267 0.951 . S
C2291 C2292 1.366 . S
C2291 C2293 1.388 . S
C2292 C2291 1.366 . S
C2292 C2296 1.385 . S
C2293 H2268 0.951 . S
C2293 C2291 1.388 . S
C2293 C2294 1.366 . S
C2294 C2293 1.366 . S
C2294 C2295 1.414 . S
C2294 C2297 1.499 . S
C2295 H2269 0.950 . S
C2295 C2294 1.414 . S
C2295 C2296 1.374 . S
C2296 H2270 0.950 . S
C2296 C2292 1.385 . S
C2296 C2295 1.374 . S
C2297 C2294 1.499 . S
C2297 C2298 1.373 . S
C2297 C2299 1.389 . S
C2298 H2271 0.950 . S
C2298 C2284 1.377 . S
C2298 C2297 1.373 . S
C2299 C2283 1.377 . S
C2299 C2297 1.389 . S
C2299 C2300 1.524 . S
C2300 C2299 1.524 . S
C2300 C2301 1.397 . S
C2300 C2305 1.363 . S
C2301 H2272 0.950 . S
C2301 C2300 1.397 . S
C2301 C2302 1.334 . S
C2302 H2273 0.950 . S
C2302 C2301 1.334 . S
C2302 C2303 1.287 . S
C2303 C2302 1.287 . S
C2303 C2304 1.524 . S
C2303 H2306 0.999 . S
C2304 H2274 0.950 . S
C2304 C2303 1.524 . S
C2304 C2305 1.415 . S
C2305 H2275 0.950 . S
C2305 C2300 1.363 . S
C2305 C2304 1.415 . S
H2306 C2303 0.999 . S
H2307 C2288 0.913 . S
H2308 C2326 0.951 . S
H2309 C2328 0.951 . S
H2310 C2330 0.950 . S
H2311 C2331 0.950 . S
H2312 C2333 0.950 . S
H2313 C2336 0.950 . S
H2314 C2337 0.950 . S
H2315 C2339 0.950 . S
H2316 C2340 0.950 . S
H2317 C2341 0.951 . S
H2318 C2343 0.951 . S
H2319 C2345 0.950 . S
H2320 C2346 0.950 . S
H2321 C2348 0.950 . S
H2322 C2351 0.950 . S
H2323 C2352 0.950 . S
H2324 C2354 0.950 . S
H2325 C2355 0.950 . S
C2326 H2308 0.951 . S
C2326 C2327 1.366 . S
C2326 C2328 1.388 . S
C2327 C2326 1.366 . S
C2327 C2331 1.385 . S
C2328 H2309 0.951 . S
C2328 C2326 1.388 . S
C2328 C2329 1.366 . S
C2329 C2328 1.366 . S
C2329 C2330 1.414 . S
C2329 C2332 1.499 . S
C2330 H2310 0.950 . S
C2330 C2329 1.414 . S
C2330 C2331 1.374 . S
C2331 H2311 0.950 . S
C2331 C2327 1.385 . S
C2331 C2330 1.374 . S
C2332 C2329 1.499 . S
C2332 C2333 1.373 . S
C2332 C2334 1.389 . S
C2333 H2312 0.950 . S
C2333 C2332 1.373 . S
C2333 C2349 1.377 . S
C2334 C2332 1.389 . S
C2334 C2335 1.524 . S
C2334 C2348 1.377 . S
C2335 C2334 1.524 . S
C2335 C2336 1.397 . S
C2335 C2340 1.363 . S
C2336 H2313 0.950 . S
C2336 C2335 1.397 . S
C2336 C2337 1.334 . S
C2337 H2314 0.950 . S
C2337 C2336 1.334 . S
C2337 C2338 1.287 . S
C2338 C2337 1.287 . S
C2338 C2339 1.524 . S
C2338 H2357 0.913 . S
C2339 H2315 0.950 . S
C2339 C2338 1.524 . S
C2339 C2340 1.415 . S
C2340 H2316 0.950 . S
C2340 C2335 1.363 . S
C2340 C2339 1.415 . S
C2341 H2317 0.951 . S
C2341 C2342 1.366 . S
C2341 C2343 1.388 . S
C2342 C2341 1.366 . S
C2342 C2346 1.385 . S
C2343 H2318 0.951 . S
C2343 C2341 1.388 . S
C2343 C2344 1.366 . S
C2344 C2343 1.366 . S
C2344 C2345 1.414 . S
C2344 C2347 1.499 . S
C2345 H2319 0.950 . S
C2345 C2344 1.414 . S
C2345 C2346 1.374 . S
C2346 H2320 0.950 . S
C2346 C2342 1.385 . S
C2346 C2345 1.374 . S
C2347 C2344 1.499 . S
C2347 C2348 1.373 . S
C2347 C2349 1.389 . S
C2348 H2321 0.950 . S
C2348 C2334 1.377 . S
C2348 C2347 1.373 . S
C2349 C2333 1.377 . S
C2349 C2347 1.389 . S
C2349 C2350 1.524 . S
C2350 C2349 1.524 . S
C2350 C2351 1.397 . S
C2350 C2355 1.363 . S
C2351 H2322 0.950 . S
C2351 C2350 1.397 . S
C2351 C2352 1.334 . S
C2352 H2323 0.950 . S
C2352 C2351 1.334 . S
C2352 C2353 1.287 . S
C2353 C2352 1.287 . S
C2353 C2354 1.524 . S
C2353 H2356 0.999 . S
C2354 H2324 0.950 . S
C2354 C2353 1.524 . S
C2354 C2355 1.415 . S
C2355 H2325 0.950 . S
C2355 C2350 1.363 . S
C2355 C2354 1.415 . S
H2356 C2353 0.999 . S
H2357 C2338 0.913 . S
H2358 C2376 0.951 . S
H2359 C2378 0.951 . S
H2360 C2380 0.950 . S
H2361 C2381 0.950 . S
H2362 C2383 0.950 . S
H2363 C2386 0.950 . S
H2364 C2387 0.950 . S
H2365 C2389 0.950 . S
H2366 C2390 0.950 . S
H2367 C2391 0.951 . S
H2368 C2393 0.951 . S
H2369 C2395 0.950 . S
H2370 C2396 0.950 . S
H2371 C2398 0.950 . S
H2372 C2401 0.950 . S
H2373 C2402 0.950 . S
H2374 C2404 0.950 . S
H2375 C2405 0.950 . S
C2376 H2358 0.951 . S
C2376 C2377 1.366 . S
C2376 C2378 1.388 . S
C2377 C2376 1.366 . S
C2377 C2381 1.385 . S
C2378 H2359 0.951 . S
C2378 C2376 1.388 . S
C2378 C2379 1.366 . S
C2379 C2378 1.366 . S
C2379 C2380 1.414 . S
C2379 C2382 1.499 . S
C2380 H2360 0.950 . S
C2380 C2379 1.414 . S
C2380 C2381 1.374 . S
C2381 H2361 0.950 . S
C2381 C2377 1.385 . S
C2381 C2380 1.374 . S
C2382 C2379 1.499 . S
C2382 C2383 1.373 . S
C2382 C2384 1.389 . S
C2383 H2362 0.950 . S
C2383 C2382 1.373 . S
C2383 C2399 1.377 . S
C2384 C2382 1.389 . S
C2384 C2385 1.524 . S
C2384 C2398 1.377 . S
C2385 C2384 1.524 . S
C2385 C2386 1.397 . S
C2385 C2390 1.363 . S
C2386 H2363 0.950 . S
C2386 C2385 1.397 . S
C2386 C2387 1.334 . S
C2387 H2364 0.950 . S
C2387 C2386 1.334 . S
C2387 C2388 1.287 . S
C2388 C2387 1.287 . S
C2388 C2389 1.524 . S
C2388 H2407 0.913 . S
C2389 H2365 0.950 . S
C2389 C2388 1.524 . S
C2389 C2390 1.415 . S
C2390 H2366 0.950 . S
C2390 C2385 1.363 . S
C2390 C2389 1.415 . S
C2391 H2367 0.951 . S
C2391 C2392 1.366 . S
C2391 C2393 1.388 . S
C2392 C2391 1.366 . S
C2392 C2396 1.385 . S
C2393 H2368 0.951 . S
C2393 C2391 1.388 . S
C2393 C2394 1.366 . S
C2394 C2393 1.366 . S
C2394 C2395 1.414 . S
C2394 C2397 1.499 . S
C2395 H2369 0.950 . S
C2395 C2394 1.414 . S
C2395 C2396 1.374 . S
C2396 H2370 0.950 . S
C2396 C2392 1.385 . S
C2396 C2395 1.374 . S
C2397 C2394 1.499 . S
C2397 C2398 1.373 . S
C2397 C2399 1.389 . S
C2398 H2371 0.950 . S
C2398 C2384 1.377 . S
C2398 C2397 1.373 . S
C2399 C2383 1.377 . S
C2399 C2397 1.389 . S
C2399 C2400 1.524 . S
C2400 C2399 1.524 . S
C2400 C2401 1.397 . S
C2400 C2405 1.363 . S
C2401 H2372 0.950 . S
C2401 C2400 1.397 . S
C2401 C2402 1.334 . S
C2402 H2373 0.950 . S
C2402 C2401 1.334 . S
C2402 C2403 1.287 . S
C2403 C2402 1.287 . S
C2403 C2404 1.524 . S
C2403 H2406 0.999 . S
C2404 H2374 0.950 . S
C2404 C2403 1.524 . S
C2404 C2405 1.415 . S
C2405 H2375 0.950 . S
C2405 C2400 1.363 . S
C2405 C2404 1.415 . S
H2406 C2403 0.999 . S
H2407 C2388 0.913 . S
H2408 C2426 0.951 . S
H2409 C2428 0.951 . S
H2410 C2430 0.950 . S
H2411 C2431 0.950 . S
H2412 C2433 0.950 . S
H2413 C2436 0.950 . S
H2414 C2437 0.950 . S
H2415 C2439 0.950 . S
H2416 C2440 0.950 . S
H2417 C2441 0.951 . S
H2418 C2443 0.951 . S
H2419 C2445 0.950 . S
H2420 C2446 0.950 . S
H2421 C2448 0.950 . S
H2422 C2451 0.950 . S
H2423 C2452 0.950 . S
H2424 C2454 0.950 . S
H2425 C2455 0.950 . S
C2426 H2408 0.951 . S
C2426 C2427 1.366 . S
C2426 C2428 1.388 . S
C2427 C2426 1.366 . S
C2427 C2431 1.385 . S
C2428 H2409 0.951 . S
C2428 C2426 1.388 . S
C2428 C2429 1.366 . S
C2429 C2428 1.366 . S
C2429 C2430 1.414 . S
C2429 C2432 1.499 . S
C2430 H2410 0.950 . S
C2430 C2429 1.414 . S
C2430 C2431 1.374 . S
C2431 H2411 0.950 . S
C2431 C2427 1.385 . S
C2431 C2430 1.374 . S
C2432 C2429 1.499 . S
C2432 C2433 1.373 . S
C2432 C2434 1.389 . S
C2433 H2412 0.950 . S
C2433 C2432 1.373 . S
C2433 C2449 1.377 . S
C2434 C2432 1.389 . S
C2434 C2435 1.524 . S
C2434 C2448 1.377 . S
C2435 C2434 1.524 . S
C2435 C2436 1.397 . S
C2435 C2440 1.363 . S
C2436 H2413 0.950 . S
C2436 C2435 1.397 . S
C2436 C2437 1.334 . S
C2437 H2414 0.950 . S
C2437 C2436 1.334 . S
C2437 C2438 1.287 . S
C2438 C2437 1.287 . S
C2438 C2439 1.524 . S
C2438 H2457 0.913 . S
C2439 H2415 0.950 . S
C2439 C2438 1.524 . S
C2439 C2440 1.415 . S
C2440 H2416 0.950 . S
C2440 C2435 1.363 . S
C2440 C2439 1.415 . S
C2441 H2417 0.951 . S
C2441 C2442 1.366 . S
C2441 C2443 1.388 . S
C2442 C2441 1.366 . S
C2442 C2446 1.385 . S
C2443 H2418 0.951 . S
C2443 C2441 1.388 . S
C2443 C2444 1.366 . S
C2444 C2443 1.366 . S
C2444 C2445 1.414 . S
C2444 C2447 1.499 . S
C2445 H2419 0.950 . S
C2445 C2444 1.414 . S
C2445 C2446 1.374 . S
C2446 H2420 0.950 . S
C2446 C2442 1.385 . S
C2446 C2445 1.374 . S
C2447 C2444 1.499 . S
C2447 C2448 1.373 . S
C2447 C2449 1.389 . S
C2448 H2421 0.950 . S
C2448 C2434 1.377 . S
C2448 C2447 1.373 . S
C2449 C2433 1.377 . S
C2449 C2447 1.389 . S
C2449 C2450 1.524 . S
C2450 C2449 1.524 . S
C2450 C2451 1.397 . S
C2450 C2455 1.363 . S
C2451 H2422 0.950 . S
C2451 C2450 1.397 . S
C2451 C2452 1.334 . S
C2452 H2423 0.950 . S
C2452 C2451 1.334 . S
C2452 C2453 1.287 . S
C2453 C2452 1.287 . S
C2453 C2454 1.524 . S
C2453 H2456 0.999 . S
C2454 H2424 0.950 . S
C2454 C2453 1.524 . S
C2454 C2455 1.415 . S
C2455 H2425 0.950 . S
C2455 C2450 1.363 . S
C2455 C2454 1.415 . S
H2456 C2453 0.999 . S
H2457 C2438 0.913 . S
H2458 C2476 0.951 . S
H2459 C2478 0.951 . S
H2460 C2480 0.950 . S
H2461 C2481 0.950 . S
H2462 C2483 0.950 . S
H2463 C2486 0.950 . S
H2464 C2487 0.950 . S
H2465 C2489 0.950 . S
H2466 C2490 0.950 . S
H2467 C2491 0.951 . S
H2468 C2493 0.951 . S
H2469 C2495 0.950 . S
H2470 C2496 0.950 . S
H2471 C2498 0.950 . S
H2472 C2501 0.950 . S
H2473 C2502 0.950 . S
H2474 C2504 0.950 . S
H2475 C2505 0.950 . S
C2476 H2458 0.951 . S
C2476 C2477 1.366 . S
C2476 C2478 1.388 . S
C2477 C2476 1.366 . S
C2477 C2481 1.385 . S
C2478 H2459 0.951 . S
C2478 C2476 1.388 . S
C2478 C2479 1.366 . S
C2479 C2478 1.366 . S
C2479 C2480 1.414 . S
C2479 C2482 1.499 . S
C2480 H2460 0.950 . S
C2480 C2479 1.414 . S
C2480 C2481 1.374 . S
C2481 H2461 0.950 . S
C2481 C2477 1.385 . S
C2481 C2480 1.374 . S
C2482 C2479 1.499 . S
C2482 C2483 1.373 . S
C2482 C2484 1.389 . S
C2483 H2462 0.950 . S
C2483 C2482 1.373 . S
C2483 C2499 1.377 . S
C2484 C2482 1.389 . S
C2484 C2485 1.524 . S
C2484 C2498 1.377 . S
C2485 C2484 1.524 . S
C2485 C2486 1.397 . S
C2485 C2490 1.363 . S
C2486 H2463 0.950 . S
C2486 C2485 1.397 . S
C2486 C2487 1.334 . S
C2487 H2464 0.950 . S
C2487 C2486 1.334 . S
C2487 C2488 1.287 . S
C2488 C2487 1.287 . S
C2488 C2489 1.524 . S
C2488 H2507 0.913 . S
C2489 H2465 0.950 . S
C2489 C2488 1.524 . S
C2489 C2490 1.415 . S
C2490 H2466 0.950 . S
C2490 C2485 1.363 . S
C2490 C2489 1.415 . S
C2491 H2467 0.951 . S
C2491 C2492 1.366 . S
C2491 C2493 1.388 . S
C2492 C2491 1.366 . S
C2492 C2496 1.385 . S
C2493 H2468 0.951 . S
C2493 C2491 1.388 . S
C2493 C2494 1.366 . S
C2494 C2493 1.366 . S
C2494 C2495 1.414 . S
C2494 C2497 1.499 . S
C2495 H2469 0.950 . S
C2495 C2494 1.414 . S
C2495 C2496 1.374 . S
C2496 H2470 0.950 . S
C2496 C2492 1.385 . S
C2496 C2495 1.374 . S
C2497 C2494 1.499 . S
C2497 C2498 1.373 . S
C2497 C2499 1.389 . S
C2498 H2471 0.950 . S
C2498 C2484 1.377 . S
C2498 C2497 1.373 . S
C2499 C2483 1.377 . S
C2499 C2497 1.389 . S
C2499 C2500 1.524 . S
C2500 C2499 1.524 . S
C2500 C2501 1.397 . S
C2500 C2505 1.363 . S
C2501 H2472 0.950 . S
C2501 C2500 1.397 . S
C2501 C2502 1.334 . S
C2502 H2473 0.950 . S
C2502 C2501 1.334 . S
C2502 C2503 1.287 . S
C2503 C2502 1.287 . S
C2503 C2504 1.524 . S
C2503 H2506 0.999 . S
C2504 H2474 0.950 . S
C2504 C2503 1.524 . S
C2504 C2505 1.415 . S
C2505 H2475 0.950 . S
C2505 C2500 1.363 . S
C2505 C2504 1.415 . S
H2506 C2503 0.999 . S
H2507 C2488 0.913 . S
H2508 C2526 0.951 . S
H2509 C2528 0.951 . S
H2510 C2530 0.950 . S
H2511 C2531 0.950 . S
H2512 C2533 0.950 . S
H2513 C2536 0.950 . S
H2514 C2537 0.950 . S
H2515 C2539 0.950 . S
H2516 C2540 0.950 . S
H2517 C2541 0.951 . S
H2518 C2543 0.951 . S
H2519 C2545 0.950 . S
H2520 C2546 0.950 . S
H2521 C2548 0.950 . S
H2522 C2551 0.950 . S
H2523 C2552 0.950 . S
H2524 C2554 0.950 . S
H2525 C2555 0.950 . S
C2526 H2508 0.951 . S
C2526 C2527 1.366 . S
C2526 C2528 1.388 . S
C2527 C2526 1.366 . S
C2527 C2531 1.385 . S
C2528 H2509 0.951 . S
C2528 C2526 1.388 . S
C2528 C2529 1.366 . S
C2529 C2528 1.366 . S
C2529 C2530 1.414 . S
C2529 C2532 1.499 . S
C2530 H2510 0.950 . S
C2530 C2529 1.414 . S
C2530 C2531 1.374 . S
C2531 H2511 0.950 . S
C2531 C2527 1.385 . S
C2531 C2530 1.374 . S
C2532 C2529 1.499 . S
C2532 C2533 1.373 . S
C2532 C2534 1.389 . S
C2533 H2512 0.950 . S
C2533 C2532 1.373 . S
C2533 C2549 1.377 . S
C2534 C2532 1.389 . S
C2534 C2535 1.524 . S
C2534 C2548 1.377 . S
C2535 C2534 1.524 . S
C2535 C2536 1.397 . S
C2535 C2540 1.363 . S
C2536 H2513 0.950 . S
C2536 C2535 1.397 . S
C2536 C2537 1.334 . S
C2537 H2514 0.950 . S
C2537 C2536 1.334 . S
C2537 C2538 1.287 . S
C2538 C2537 1.287 . S
C2538 C2539 1.524 . S
C2538 H2557 0.913 . S
C2539 H2515 0.950 . S
C2539 C2538 1.524 . S
C2539 C2540 1.415 . S
C2540 H2516 0.950 . S
C2540 C2535 1.363 . S
C2540 C2539 1.415 . S
C2541 H2517 0.951 . S
C2541 C2542 1.366 . S
C2541 C2543 1.388 . S
C2542 C2541 1.366 . S
C2542 C2546 1.385 . S
C2543 H2518 0.951 . S
C2543 C2541 1.388 . S
C2543 C2544 1.366 . S
C2544 C2543 1.366 . S
C2544 C2545 1.414 . S
C2544 C2547 1.499 . S
C2545 H2519 0.950 . S
C2545 C2544 1.414 . S
C2545 C2546 1.374 . S
C2546 H2520 0.950 . S
C2546 C2542 1.385 . S
C2546 C2545 1.374 . S
C2547 C2544 1.499 . S
C2547 C2548 1.373 . S
C2547 C2549 1.389 . S
C2548 H2521 0.950 . S
C2548 C2534 1.377 . S
C2548 C2547 1.373 . S
C2549 C2533 1.377 . S
C2549 C2547 1.389 . S
C2549 C2550 1.524 . S
C2550 C2549 1.524 . S
C2550 C2551 1.397 . S
C2550 C2555 1.363 . S
C2551 H2522 0.950 . S
C2551 C2550 1.397 . S
C2551 C2552 1.334 . S
C2552 H2523 0.950 . S
C2552 C2551 1.334 . S
C2552 C2553 1.287 . S
C2553 C2552 1.287 . S
C2553 C2554 1.524 . S
C2553 H2556 0.999 . S
C2554 H2524 0.950 . S
C2554 C2553 1.524 . S
C2554 C2555 1.415 . S
C2555 H2525 0.950 . S
C2555 C2550 1.363 . S
C2555 C2554 1.415 . S
H2556 C2553 0.999 . S
H2557 C2538 0.913 . S
H2558 C2576 0.951 . S
H2559 C2578 0.951 . S
H2560 C2580 0.950 . S
H2561 C2581 0.950 . S
H2562 C2583 0.950 . S
H2563 C2586 0.950 . S
H2564 C2587 0.950 . S
H2565 C2589 0.950 . S
H2566 C2590 0.950 . S
H2567 C2591 0.951 . S
H2568 C2593 0.951 . S
H2569 C2595 0.950 . S
H2570 C2596 0.950 . S
H2571 C2598 0.950 . S
H2572 C2601 0.950 . S
H2573 C2602 0.950 . S
H2574 C2604 0.950 . S
H2575 C2605 0.950 . S
C2576 H2558 0.951 . S
C2576 C2577 1.366 . S
C2576 C2578 1.388 . S
C2577 C2576 1.366 . S
C2577 C2581 1.385 . S
C2578 H2559 0.951 . S
C2578 C2576 1.388 . S
C2578 C2579 1.366 . S
C2579 C2578 1.366 . S
C2579 C2580 1.414 . S
C2579 C2582 1.499 . S
C2580 H2560 0.950 . S
C2580 C2579 1.414 . S
C2580 C2581 1.374 . S
C2581 H2561 0.950 . S
C2581 C2577 1.385 . S
C2581 C2580 1.374 . S
C2582 C2579 1.499 . S
C2582 C2583 1.373 . S
C2582 C2584 1.389 . S
C2583 H2562 0.950 . S
C2583 C2582 1.373 . S
C2583 C2599 1.377 . S
C2584 C2582 1.389 . S
C2584 C2585 1.524 . S
C2584 C2598 1.377 . S
C2585 C2584 1.524 . S
C2585 C2586 1.397 . S
C2585 C2590 1.363 . S
C2586 H2563 0.950 . S
C2586 C2585 1.397 . S
C2586 C2587 1.334 . S
C2587 H2564 0.950 . S
C2587 C2586 1.334 . S
C2587 C2588 1.287 . S
C2588 C2587 1.287 . S
C2588 C2589 1.524 . S
C2588 H2607 0.913 . S
C2589 H2565 0.950 . S
C2589 C2588 1.524 . S
C2589 C2590 1.415 . S
C2590 H2566 0.950 . S
C2590 C2585 1.363 . S
C2590 C2589 1.415 . S
C2591 H2567 0.951 . S
C2591 C2592 1.366 . S
C2591 C2593 1.388 . S
C2592 C2591 1.366 . S
C2592 C2596 1.385 . S
C2593 H2568 0.951 . S
C2593 C2591 1.388 . S
C2593 C2594 1.366 . S
C2594 C2593 1.366 . S
C2594 C2595 1.414 . S
C2594 C2597 1.499 . S
C2595 H2569 0.950 . S
C2595 C2594 1.414 . S
C2595 C2596 1.374 . S
C2596 H2570 0.950 . S
C2596 C2592 1.385 . S
C2596 C2595 1.374 . S
C2597 C2594 1.499 . S
C2597 C2598 1.373 . S
C2597 C2599 1.389 . S
C2598 H2571 0.950 . S
C2598 C2584 1.377 . S
C2598 C2597 1.373 . S
C2599 C2583 1.377 . S
C2599 C2597 1.389 . S
C2599 C2600 1.524 . S
C2600 C2599 1.524 . S
C2600 C2601 1.397 . S
C2600 C2605 1.363 . S
C2601 H2572 0.950 . S
C2601 C2600 1.397 . S
C2601 C2602 1.334 . S
C2602 H2573 0.950 . S
C2602 C2601 1.334 . S
C2602 C2603 1.287 . S
C2603 C2602 1.287 . S
C2603 C2604 1.524 . S
C2603 H2606 0.999 . S
C2604 H2574 0.950 . S
C2604 C2603 1.524 . S
C2604 C2605 1.415 . S
C2605 H2575 0.950 . S
C2605 C2600 1.363 . S
C2605 C2604 1.415 . S
H2606 C2603 0.999 . S
H2607 C2588 0.913 . S
H2608 C2626 0.951 . S
H2609 C2628 0.951 . S
H2610 C2630 0.950 . S
H2611 C2631 0.950 . S
H2612 C2633 0.950 . S
H2613 C2636 0.950 . S
H2614 C2637 0.950 . S
H2615 C2639 0.950 . S
H2616 C2640 0.950 . S
H2617 C2641 0.951 . S
H2618 C2643 0.951 . S
H2619 C2645 0.950 . S
H2620 C2646 0.950 . S
H2621 C2648 0.950 . S
H2622 C2651 0.950 . S
H2623 C2652 0.950 . S
H2624 C2654 0.950 . S
H2625 C2655 0.950 . S
C2626 H2608 0.951 . S
C2626 C2627 1.366 . S
C2626 C2628 1.388 . S
C2627 C2626 1.366 . S
C2627 C2631 1.385 . S
C2628 H2609 0.951 . S
C2628 C2626 1.388 . S
C2628 C2629 1.366 . S
C2629 C2628 1.366 . S
C2629 C2630 1.414 . S
C2629 C2632 1.499 . S
C2630 H2610 0.950 . S
C2630 C2629 1.414 . S
C2630 C2631 1.374 . S
C2631 H2611 0.950 . S
C2631 C2627 1.385 . S
C2631 C2630 1.374 . S
C2632 C2629 1.499 . S
C2632 C2633 1.373 . S
C2632 C2634 1.389 . S
C2633 H2612 0.950 . S
C2633 C2632 1.373 . S
C2633 C2649 1.377 . S
C2634 C2632 1.389 . S
C2634 C2635 1.524 . S
C2634 C2648 1.377 . S
C2635 C2634 1.524 . S
C2635 C2636 1.397 . S
C2635 C2640 1.363 . S
C2636 H2613 0.950 . S
C2636 C2635 1.397 . S
C2636 C2637 1.334 . S
C2637 H2614 0.950 . S
C2637 C2636 1.334 . S
C2637 C2638 1.287 . S
C2638 C2637 1.287 . S
C2638 C2639 1.524 . S
C2638 H2657 0.913 . S
C2639 H2615 0.950 . S
C2639 C2638 1.524 . S
C2639 C2640 1.415 . S
C2640 H2616 0.950 . S
C2640 C2635 1.363 . S
C2640 C2639 1.415 . S
C2641 H2617 0.951 . S
C2641 C2642 1.366 . S
C2641 C2643 1.388 . S
C2642 C2641 1.366 . S
C2642 C2646 1.385 . S
C2643 H2618 0.951 . S
C2643 C2641 1.388 . S
C2643 C2644 1.366 . S
C2644 C2643 1.366 . S
C2644 C2645 1.414 . S
C2644 C2647 1.499 . S
C2645 H2619 0.950 . S
C2645 C2644 1.414 . S
C2645 C2646 1.374 . S
C2646 H2620 0.950 . S
C2646 C2642 1.385 . S
C2646 C2645 1.374 . S
C2647 C2644 1.499 . S
C2647 C2648 1.373 . S
C2647 C2649 1.389 . S
C2648 H2621 0.950 . S
C2648 C2634 1.377 . S
C2648 C2647 1.373 . S
C2649 C2633 1.377 . S
C2649 C2647 1.389 . S
C2649 C2650 1.524 . S
C2650 C2649 1.524 . S
C2650 C2651 1.397 . S
C2650 C2655 1.363 . S
C2651 H2622 0.950 . S
C2651 C2650 1.397 . S
C2651 C2652 1.334 . S
C2652 H2623 0.950 . S
C2652 C2651 1.334 . S
C2652 C2653 1.287 . S
C2653 C2652 1.287 . S
C2653 C2654 1.524 . S
C2653 H2656 0.999 . S
C2654 H2624 0.950 . S
C2654 C2653 1.524 . S
C2654 C2655 1.415 . S
C2655 H2625 0.950 . S
C2655 C2650 1.363 . S
C2655 C2654 1.415 . S
H2656 C2653 0.999 . S
H2657 C2638 0.913 . S
H2658 C2676 0.951 . S
H2659 C2678 0.951 . S
H2660 C2680 0.950 . S
H2661 C2681 0.950 . S
H2662 C2683 0.950 . S
H2663 C2686 0.950 . S
H2664 C2687 0.950 . S
H2665 C2689 0.950 . S
H2666 C2690 0.950 . S
H2667 C2691 0.951 . S
H2668 C2693 0.951 . S
H2669 C2695 0.950 . S
H2670 C2696 0.950 . S
H2671 C2698 0.950 . S
H2672 C2701 0.950 . S
H2673 C2702 0.950 . S
H2674 C2704 0.950 . S
H2675 C2705 0.950 . S
C2676 H2658 0.951 . S
C2676 C2677 1.366 . S
C2676 C2678 1.388 . S
C2677 C2676 1.366 . S
C2677 C2681 1.385 . S
C2678 H2659 0.951 . S
C2678 C2676 1.388 . S
C2678 C2679 1.366 . S
C2679 C2678 1.366 . S
C2679 C2680 1.414 . S
C2679 C2682 1.499 . S
C2680 H2660 0.950 . S
C2680 C2679 1.414 . S
C2680 C2681 1.374 . S
C2681 H2661 0.950 . S
C2681 C2677 1.385 . S
C2681 C2680 1.374 . S
C2682 C2679 1.499 . S
C2682 C2683 1.373 . S
C2682 C2684 1.389 . S
C2683 H2662 0.950 . S
C2683 C2682 1.373 . S
C2683 C2699 1.377 . S
C2684 C2682 1.389 . S
C2684 C2685 1.524 . S
C2684 C2698 1.377 . S
C2685 C2684 1.524 . S
C2685 C2686 1.397 . S
C2685 C2690 1.363 . S
C2686 H2663 0.950 . S
C2686 C2685 1.397 . S
C2686 C2687 1.334 . S
C2687 H2664 0.950 . S
C2687 C2686 1.334 . S
C2687 C2688 1.287 . S
C2688 C2687 1.287 . S
C2688 C2689 1.524 . S
C2688 H2707 0.913 . S
C2689 H2665 0.950 . S
C2689 C2688 1.524 . S
C2689 C2690 1.415 . S
C2690 H2666 0.950 . S
C2690 C2685 1.363 . S
C2690 C2689 1.415 . S
C2691 H2667 0.951 . S
C2691 C2692 1.366 . S
C2691 C2693 1.388 . S
C2692 C2691 1.366 . S
C2692 C2696 1.385 . S
C2693 H2668 0.951 . S
C2693 C2691 1.388 . S
C2693 C2694 1.366 . S
C2694 C2693 1.366 . S
C2694 C2695 1.414 . S
C2694 C2697 1.499 . S
C2695 H2669 0.950 . S
C2695 C2694 1.414 . S
C2695 C2696 1.374 . S
C2696 H2670 0.950 . S
C2696 C2692 1.385 . S
C2696 C2695 1.374 . S
C2697 C2694 1.499 . S
C2697 C2698 1.373 . S
C2697 C2699 1.389 . S
C2698 H2671 0.950 . S
C2698 C2684 1.377 . S
C2698 C2697 1.373 . S
C2699 C2683 1.377 . S
C2699 C2697 1.389 . S
C2699 C2700 1.524 . S
C2700 C2699 1.524 . S
C2700 C2701 1.397 . S
C2700 C2705 1.363 . S
C2701 H2672 0.950 . S
C2701 C2700 1.397 . S
C2701 C2702 1.334 . S
C2702 H2673 0.950 . S
C2702 C2701 1.334 . S
C2702 C2703 1.287 . S
C2703 C2702 1.287 . S
C2703 C2704 1.524 . S
C2703 H2706 0.999 . S
C2704 H2674 0.950 . S
C2704 C2703 1.524 . S
C2704 C2705 1.415 . S
C2705 H2675 0.950 . S
C2705 C2700 1.363 . S
C2705 C2704 1.415 . S
H2706 C2703 0.999 . S
H2707 C2688 0.913 . S
H2708 C2726 0.951 . S
H2709 C2728 0.951 . S
H2710 C2730 0.950 . S
H2711 C2731 0.950 . S
H2712 C2733 0.950 . S
H2713 C2736 0.950 . S
H2714 C2737 0.950 . S
H2715 C2739 0.950 . S
H2716 C2740 0.950 . S
H2717 C2741 0.951 . S
H2718 C2743 0.951 . S
H2719 C2745 0.950 . S
H2720 C2746 0.950 . S
H2721 C2748 0.950 . S
H2722 C2751 0.950 . S
H2723 C2752 0.950 . S
H2724 C2754 0.950 . S
H2725 C2755 0.950 . S
C2726 H2708 0.951 . S
C2726 C2727 1.366 . S
C2726 C2728 1.388 . S
C2727 C2726 1.366 . S
C2727 C2731 1.385 . S
C2728 H2709 0.951 . S
C2728 C2726 1.388 . S
C2728 C2729 1.366 . S
C2729 C2728 1.366 . S
C2729 C2730 1.414 . S
C2729 C2732 1.499 . S
C2730 H2710 0.950 . S
C2730 C2729 1.414 . S
C2730 C2731 1.374 . S
C2731 H2711 0.950 . S
C2731 C2727 1.385 . S
C2731 C2730 1.374 . S
C2732 C2729 1.499 . S
C2732 C2733 1.373 . S
C2732 C2734 1.389 . S
C2733 H2712 0.950 . S
C2733 C2732 1.373 . S
C2733 C2749 1.377 . S
C2734 C2732 1.389 . S
C2734 C2735 1.524 . S
C2734 C2748 1.377 . S
C2735 C2734 1.524 . S
C2735 C2736 1.397 . S
C2735 C2740 1.363 . S
C2736 H2713 0.950 . S
C2736 C2735 1.397 . S
C2736 C2737 1.334 . S
C2737 H2714 0.950 . S
C2737 C2736 1.334 . S
C2737 C2738 1.287 . S
C2738 C2737 1.287 . S
C2738 C2739 1.524 . S
C2738 H2757 0.913 . S
C2739 H2715 0.950 . S
C2739 C2738 1.524 . S
C2739 C2740 1.415 . S
C2740 H2716 0.950 . S
C2740 C2735 1.363 . S
C2740 C2739 1.415 . S
C2741 H2717 0.951 . S
C2741 C2742 1.366 . S
C2741 C2743 1.388 . S
C2742 C2741 1.366 . S
C2742 C2746 1.385 . S
C2743 H2718 0.951 . S
C2743 C2741 1.388 . S
C2743 C2744 1.366 . S
C2744 C2743 1.366 . S
C2744 C2745 1.414 . S
C2744 C2747 1.499 . S
C2745 H2719 0.950 . S
C2745 C2744 1.414 . S
C2745 C2746 1.374 . S
C2746 H2720 0.950 . S
C2746 C2742 1.385 . S
C2746 C2745 1.374 . S
C2747 C2744 1.499 . S
C2747 C2748 1.373 . S
C2747 C2749 1.389 . S
C2748 H2721 0.950 . S
C2748 C2734 1.377 . S
C2748 C2747 1.373 . S
C2749 C2733 1.377 . S
C2749 C2747 1.389 . S
C2749 C2750 1.524 . S
C2750 C2749 1.524 . S
C2750 C2751 1.397 . S
C2750 C2755 1.363 . S
C2751 H2722 0.950 . S
C2751 C2750 1.397 . S
C2751 C2752 1.334 . S
C2752 H2723 0.950 . S
C2752 C2751 1.334 . S
C2752 C2753 1.287 . S
C2753 C2752 1.287 . S
C2753 C2754 1.524 . S
C2753 H2756 0.999 . S
C2754 H2724 0.950 . S
C2754 C2753 1.524 . S
C2754 C2755 1.415 . S
C2755 H2725 0.950 . S
C2755 C2750 1.363 . S
C2755 C2754 1.415 . S
H2756 C2753 0.999 . S
H2757 C2738 0.913 . S
H2758 C2776 0.951 . S
H2759 C2778 0.951 . S
H2760 C2780 0.950 . S
H2761 C2781 0.950 . S
H2762 C2783 0.950 . S
H2763 C2786 0.950 . S
H2764 C2787 0.950 . S
H2765 C2789 0.950 . S
H2766 C2790 0.950 . S
H2767 C2791 0.951 . S
H2768 C2793 0.951 . S
H2769 C2795 0.950 . S
H2770 C2796 0.950 . S
H2771 C2798 0.950 . S
H2772 C2801 0.950 . S
H2773 C2802 0.950 . S
H2774 C2804 0.950 . S
H2775 C2805 0.950 . S
C2776 H2758 0.951 . S
C2776 C2777 1.366 . S
C2776 C2778 1.388 . S
C2777 C2776 1.366 . S
C2777 C2781 1.385 . S
C2778 H2759 0.951 . S
C2778 C2776 1.388 . S
C2778 C2779 1.366 . S
C2779 C2778 1.366 . S
C2779 C2780 1.414 . S
C2779 C2782 1.499 . S
C2780 H2760 0.950 . S
C2780 C2779 1.414 . S
C2780 C2781 1.374 . S
C2781 H2761 0.950 . S
C2781 C2777 1.385 . S
C2781 C2780 1.374 . S
C2782 C2779 1.499 . S
C2782 C2783 1.373 . S
C2782 C2784 1.389 . S
C2783 H2762 0.950 . S
C2783 C2782 1.373 . S
C2783 C2799 1.377 . S
C2784 C2782 1.389 . S
C2784 C2785 1.524 . S
C2784 C2798 1.377 . S
C2785 C2784 1.524 . S
C2785 C2786 1.397 . S
C2785 C2790 1.363 . S
C2786 H2763 0.950 . S
C2786 C2785 1.397 . S
C2786 C2787 1.334 . S
C2787 H2764 0.950 . S
C2787 C2786 1.334 . S
C2787 C2788 1.287 . S
C2788 C2787 1.287 . S
C2788 C2789 1.524 . S
C2788 H2807 0.913 . S
C2789 H2765 0.950 . S
C2789 C2788 1.524 . S
C2789 C2790 1.415 . S
C2790 H2766 0.950 . S
C2790 C2785 1.363 . S
C2790 C2789 1.415 . S
C2791 H2767 0.951 . S
C2791 C2792 1.366 . S
C2791 C2793 1.388 . S
C2792 C2791 1.366 . S
C2792 C2796 1.385 . S
C2793 H2768 0.951 . S
C2793 C2791 1.388 . S
C2793 C2794 1.366 . S
C2794 C2793 1.366 . S
C2794 C2795 1.414 . S
C2794 C2797 1.499 . S
C2795 H2769 0.950 . S
C2795 C2794 1.414 . S
C2795 C2796 1.374 . S
C2796 H2770 0.950 . S
C2796 C2792 1.385 . S
C2796 C2795 1.374 . S
C2797 C2794 1.499 . S
C2797 C2798 1.373 . S
C2797 C2799 1.389 . S
C2798 H2771 0.950 . S
C2798 C2784 1.377 . S
C2798 C2797 1.373 . S
C2799 C2783 1.377 . S
C2799 C2797 1.389 . S
C2799 C2800 1.524 . S
C2800 C2799 1.524 . S
C2800 C2801 1.397 . S
C2800 C2805 1.363 . S
C2801 H2772 0.950 . S
C2801 C2800 1.397 . S
C2801 C2802 1.334 . S
C2802 H2773 0.950 . S
C2802 C2801 1.334 . S
C2802 C2803 1.287 . S
C2803 C2802 1.287 . S
C2803 C2804 1.524 . S
C2803 H2806 0.999 . S
C2804 H2774 0.950 . S
C2804 C2803 1.524 . S
C2804 C2805 1.415 . S
C2805 H2775 0.950 . S
C2805 C2800 1.363 . S
C2805 C2804 1.415 . S
H2806 C2803 0.999 . S
H2807 C2788 0.913 . S
H2808 C2826 0.951 . S
H2809 C2828 0.951 . S
H2810 C2830 0.950 . S
H2811 C2831 0.950 . S
H2812 C2833 0.950 . S
H2813 C2836 0.950 . S
H2814 C2837 0.950 . S
H2815 C2839 0.950 . S
H2816 C2840 0.950 1_565 S
H2817 C2841 0.951 . S
H2818 C2843 0.951 . S
H2819 C2845 0.950 . S
H2820 C2846 0.950 . S
H2821 C2848 0.950 . S
H2822 C2851 0.950 . S
H2823 C2852 0.950 . S
H2824 C2854 0.950 . S
H2825 C2855 0.950 1_545 S
C2826 H2808 0.951 . S
C2826 C2827 1.366 . S
C2826 C2828 1.388 . S
C2827 C2826 1.366 . S
C2827 C2831 1.385 . S
C2828 H2809 0.951 . S
C2828 C2826 1.388 . S
C2828 C2829 1.366 . S
C2829 C2828 1.366 . S
C2829 C2830 1.414 . S
C2829 C2832 1.499 . S
C2830 H2810 0.950 . S
C2830 C2829 1.414 . S
C2830 C2831 1.374 . S
C2831 H2811 0.950 . S
C2831 C2827 1.385 . S
C2831 C2830 1.374 . S
C2832 C2829 1.499 . S
C2832 C2833 1.373 . S
C2832 C2834 1.389 . S
C2833 H2812 0.950 . S
C2833 C2832 1.373 . S
C2833 C2849 1.377 1_544 S
C2834 C2832 1.389 . S
C2834 C2835 1.524 . S
C2834 C2848 1.377 1_544 S
C2835 C2834 1.524 . S
C2835 C2836 1.397 . S
C2835 C2840 1.363 . S
C2836 H2813 0.950 . S
C2836 C2835 1.397 . S
C2836 C2837 1.334 . S
C2837 H2814 0.950 . S
C2837 C2836 1.334 . S
C2837 C2838 1.287 . S
C2838 C2837 1.287 . S
C2838 C2839 1.524 . S
C2838 H2857 0.913 . S
C2839 H2815 0.950 . S
C2839 C2838 1.524 . S
C2839 C2840 1.415 . S
C2840 H2816 0.950 1_545 S
C2840 C2835 1.363 . S
C2840 C2839 1.415 . S
C2841 H2817 0.951 . S
C2841 C2842 1.366 . S
C2841 C2843 1.388 . S
C2842 C2841 1.366 . S
C2842 C2846 1.385 . S
C2843 H2818 0.951 . S
C2843 C2841 1.388 . S
C2843 C2844 1.366 . S
C2844 C2843 1.366 . S
C2844 C2845 1.414 . S
C2844 C2847 1.499 . S
C2845 H2819 0.950 . S
C2845 C2844 1.414 . S
C2845 C2846 1.374 . S
C2846 H2820 0.950 . S
C2846 C2842 1.385 . S
C2846 C2845 1.374 . S
C2847 C2844 1.499 . S
C2847 C2848 1.373 . S
C2847 C2849 1.389 . S
C2848 H2821 0.950 . S
C2848 C2834 1.377 1_566 S
C2848 C2847 1.373 . S
C2849 C2833 1.377 1_566 S
C2849 C2847 1.389 . S
C2849 C2850 1.524 . S
C2850 C2849 1.524 . S
C2850 C2851 1.397 . S
C2850 C2855 1.363 . S
C2851 H2822 0.950 . S
C2851 C2850 1.397 . S
C2851 C2852 1.334 . S
C2852 H2823 0.950 . S
C2852 C2851 1.334 . S
C2852 C2853 1.287 . S
C2853 C2852 1.287 . S
C2853 C2854 1.524 . S
C2853 H2856 0.999 . S
C2854 H2824 0.950 . S
C2854 C2853 1.524 . S
C2854 C2855 1.415 . S
C2855 H2825 0.950 1_565 S
C2855 C2850 1.363 . S
C2855 C2854 1.415 . S
H2856 C2853 0.999 . S
H2857 C2838 0.913 . S
H2858 C2876 0.951 . S
H2859 C2878 0.951 1_655 S
H2860 C2880 0.950 . S
H2861 C2881 0.950 . S
H2862 C2883 0.950 . S
H2863 C2886 0.950 1_455 S
H2864 C2887 0.950 . S
H2865 C2889 0.950 . S
H2866 C2890 0.950 . S
H2867 C2891 0.951 . S
H2868 C2893 0.951 1_455 S
H2869 C2895 0.950 . S
H2870 C2896 0.950 . S
H2871 C2898 0.950 . S
H2872 C2901 0.950 1_655 S
H2873 C2902 0.950 . S
H2874 C2904 0.950 . S
H2875 C2905 0.950 . S
C2876 H2858 0.951 . S
C2876 C2877 1.366 . S
C2876 C2878 1.388 . S
C2877 C2876 1.366 . S
C2877 C2881 1.385 . S
C2878 H2859 0.951 1_455 S
C2878 C2876 1.388 . S
C2878 C2879 1.366 . S
C2879 C2878 1.366 . S
C2879 C2880 1.414 . S
C2879 C2882 1.499 . S
C2880 H2860 0.950 . S
C2880 C2879 1.414 . S
C2880 C2881 1.374 . S
C2881 H2861 0.950 . S
C2881 C2877 1.385 . S
C2881 C2880 1.374 . S
C2882 C2879 1.499 . S
C2882 C2883 1.373 . S
C2882 C2884 1.389 1_455 S
C2883 H2862 0.950 . S
C2883 C2882 1.373 . S
C2883 C2899 1.377 1_556 S
C2884 C2882 1.389 1_655 S
C2884 C2885 1.524 . S
C2884 C2898 1.377 1_556 S
C2885 C2884 1.524 . S
C2885 C2886 1.397 . S
C2885 C2890 1.363 . S
C2886 H2863 0.950 1_655 S
C2886 C2885 1.397 . S
C2886 C2887 1.334 . S
C2887 H2864 0.950 . S
C2887 C2886 1.334 . S
C2887 C2888 1.287 . S
C2888 C2887 1.287 . S
C2888 C2889 1.524 . S
C2888 H2907 0.913 . S
C2889 H2865 0.950 . S
C2889 C2888 1.524 . S
C2889 C2890 1.415 . S
C2890 H2866 0.950 . S
C2890 C2885 1.363 . S
C2890 C2889 1.415 . S
C2891 H2867 0.951 . S
C2891 C2892 1.366 . S
C2891 C2893 1.388 . S
C2892 C2891 1.366 . S
C2892 C2896 1.385 . S
C2893 H2868 0.951 1_655 S
C2893 C2891 1.388 . S
C2893 C2894 1.366 . S
C2894 C2893 1.366 . S
C2894 C2895 1.414 . S
C2894 C2897 1.499 . S
C2895 H2869 0.950 . S
C2895 C2894 1.414 . S
C2895 C2896 1.374 . S
C2896 H2870 0.950 . S
C2896 C2892 1.385 . S
C2896 C2895 1.374 . S
C2897 C2894 1.499 . S
C2897 C2898 1.373 . S
C2897 C2899 1.389 1_655 S
C2898 H2871 0.950 . S
C2898 C2884 1.377 1_554 S
C2898 C2897 1.373 . S
C2899 C2883 1.377 1_554 S
C2899 C2897 1.389 1_455 S
C2899 C2900 1.524 . S
C2900 C2899 1.524 . S
C2900 C2901 1.397 . S
C2900 C2905 1.363 . S
C2901 H2872 0.950 1_455 S
C2901 C2900 1.397 . S
C2901 C2902 1.334 . S
C2902 H2873 0.950 . S
C2902 C2901 1.334 . S
C2902 C2903 1.287 . S
C2903 C2902 1.287 . S
C2903 C2904 1.524 . S
C2903 H2906 0.999 . S
C2904 H2874 0.950 . S
C2904 C2903 1.524 . S
C2904 C2905 1.415 . S
C2905 H2875 0.950 . S
C2905 C2900 1.363 . S
C2905 C2904 1.415 . S
H2906 C2903 0.999 . S
H2907 C2888 0.913 . S
H2908 C2926 0.951 . S
H2909 C2928 0.951 . S
H2910 C2930 0.950 1_565 S
H2911 C2931 0.950 . S
H2912 C2933 0.950 . S
H2913 C2936 0.950 . S
H2914 C2937 0.950 . S
H2915 C2939 0.950 . S
H2916 C2940 0.950 . S
H2917 C2941 0.951 . S
H2918 C2943 0.951 . S
H2919 C2945 0.950 1_545 S
H2920 C2946 0.950 . S
H2921 C2948 0.950 . S
H2922 C2951 0.950 . S
H2923 C2952 0.950 . S
H2924 C2954 0.950 . S
H2925 C2955 0.950 . S
C2926 H2908 0.951 . S
C2926 C2927 1.366 . S
C2926 C2928 1.388 . S
C2927 C2926 1.366 . S
C2927 C2931 1.385 . S
C2928 H2909 0.951 . S
C2928 C2926 1.388 . S
C2928 C2929 1.366 . S
C2929 C2928 1.366 . S
C2929 C2930 1.414 . S
C2929 C2932 1.499 . S
C2930 H2910 0.950 1_545 S
C2930 C2929 1.414 . S
C2930 C2931 1.374 . S
C2931 H2911 0.950 . S
C2931 C2927 1.385 . S
C2931 C2930 1.374 . S
C2932 C2929 1.499 . S
C2932 C2933 1.373 1_545 S
C2932 C2934 1.389 . S
C2933 H2912 0.950 . S
C2933 C2932 1.373 1_565 S
C2933 C2949 1.377 1_556 S
C2934 C2932 1.389 . S
C2934 C2935 1.524 . S
C2934 C2948 1.377 1_556 S
C2935 C2934 1.524 . S
C2935 C2936 1.397 . S
C2935 C2940 1.363 1_556 S
C2936 H2913 0.950 . S
C2936 C2935 1.397 . S
C2936 C2937 1.334 . S
C2937 H2914 0.950 . S
C2937 C2936 1.334 . S
C2937 C2938 1.287 . S
C2938 C2937 1.287 . S
C2938 C2939 1.524 1_556 S
C2938 H2957 0.913 . S
C2939 H2915 0.950 . S
C2939 C2938 1.524 1_554 S
C2939 C2940 1.415 . S
C2940 H2916 0.950 . S
C2940 C2935 1.363 1_554 S
C2940 C2939 1.415 . S
C2941 H2917 0.951 . S
C2941 C2942 1.366 . S
C2941 C2943 1.388 . S
C2942 C2941 1.366 . S
C2942 C2946 1.385 . S
C2943 H2918 0.951 . S
C2943 C2941 1.388 . S
C2943 C2944 1.366 . S
C2944 C2943 1.366 . S
C2944 C2945 1.414 . S
C2944 C2947 1.499 . S
C2945 H2919 0.950 1_565 S
C2945 C2944 1.414 . S
C2945 C2946 1.374 . S
C2946 H2920 0.950 . S
C2946 C2942 1.385 . S
C2946 C2945 1.374 . S
C2947 C2944 1.499 . S
C2947 C2948 1.373 1_565 S
C2947 C2949 1.389 . S
C2948 H2921 0.950 . S
C2948 C2934 1.377 1_554 S
C2948 C2947 1.373 1_545 S
C2949 C2933 1.377 1_554 S
C2949 C2947 1.389 . S
C2949 C2950 1.524 . S
C2950 C2949 1.524 . S
C2950 C2951 1.397 . S
C2950 C2955 1.363 1_554 S
C2951 H2922 0.950 . S
C2951 C2950 1.397 . S
C2951 C2952 1.334 . S
C2952 H2923 0.950 . S
C2952 C2951 1.334 . S
C2952 C2953 1.287 . S
C2953 C2952 1.287 . S
C2953 C2954 1.524 1_554 S
C2953 H2956 0.999 . S
C2954 H2924 0.950 . S
C2954 C2953 1.524 1_556 S
C2954 C2955 1.415 . S
C2955 H2925 0.950 . S
C2955 C2950 1.363 1_556 S
C2955 C2954 1.415 . S
H2956 C2953 0.999 . S
H2957 C2938 0.913 . S
H2958 C2976 0.951 . S
H2959 C2978 0.951 . S
H2960 C2980 0.950 1_455 S
H2961 C2981 0.950 . S
H2962 C2983 0.950 . S
H2963 C2986 0.950 . S
H2964 C2987 0.950 . S
H2965 C2989 0.950 . S
H2966 C2990 0.950 . S
H2967 C2991 0.951 . S
H2968 C2993 0.951 . S
H2969 C2995 0.950 1_655 S
H2970 C2996 0.950 . S
H2971 C2998 0.950 . S
H2972 C3001 0.950 . S
H2973 C3002 0.950 . S
H2974 C3004 0.950 . S
H2975 C3005 0.950 . S
C2976 H2958 0.951 . S
C2976 C2977 1.366 . S
C2976 C2978 1.388 . S
C2977 C2976 1.366 . S
C2977 C2981 1.385 . S
C2978 H2959 0.951 . S
C2978 C2976 1.388 . S
C2978 C2979 1.366 . S
C2979 C2978 1.366 . S
C2979 C2980 1.414 . S
C2979 C2982 1.499 . S
C2980 H2960 0.950 1_655 S
C2980 C2979 1.414 . S
C2980 C2981 1.374 . S
C2981 H2961 0.950 . S
C2981 C2977 1.385 . S
C2981 C2980 1.374 . S
C2982 C2979 1.499 . S
C2982 C2983 1.373 1_655 S
C2982 C2984 1.389 . S
C2983 H2962 0.950 . S
C2983 C2982 1.373 1_455 S
C2983 C2999 1.377 1_556 S
C2984 C2982 1.389 . S
C2984 C2985 1.524 . S
C2984 C2998 1.377 1_556 S
C2985 C2984 1.524 . S
C2985 C2986 1.397 . S
C2985 C2990 1.363 1_556 S
C2986 H2963 0.950 . S
C2986 C2985 1.397 . S
C2986 C2987 1.334 . S
C2987 H2964 0.950 . S
C2987 C2986 1.334 . S
C2987 C2988 1.287 . S
C2988 C2987 1.287 . S
C2988 C2989 1.524 1_556 S
C2988 H3007 0.913 . S
C2989 H2965 0.950 . S
C2989 C2988 1.524 1_554 S
C2989 C2990 1.415 . S
C2990 H2966 0.950 . S
C2990 C2985 1.363 1_554 S
C2990 C2989 1.415 . S
C2991 H2967 0.951 . S
C2991 C2992 1.366 . S
C2991 C2993 1.388 . S
C2992 C2991 1.366 . S
C2992 C2996 1.385 . S
C2993 H2968 0.951 . S
C2993 C2991 1.388 . S
C2993 C2994 1.366 . S
C2994 C2993 1.366 . S
C2994 C2995 1.414 . S
C2994 C2997 1.499 . S
C2995 H2969 0.950 1_455 S
C2995 C2994 1.414 . S
C2995 C2996 1.374 . S
C2996 H2970 0.950 . S
C2996 C2992 1.385 . S
C2996 C2995 1.374 . S
C2997 C2994 1.499 . S
C2997 C2998 1.373 1_455 S
C2997 C2999 1.389 . S
C2998 H2971 0.950 . S
C2998 C2984 1.377 1_554 S
C2998 C2997 1.373 1_655 S
C2999 C2983 1.377 1_554 S
C2999 C2997 1.389 . S
C2999 C3000 1.524 . S
C3000 C2999 1.524 . S
C3000 C3001 1.397 . S
C3000 C3005 1.363 1_554 S
C3001 H2972 0.950 . S
C3001 C3000 1.397 . S
C3001 C3002 1.334 . S
C3002 H2973 0.950 . S
C3002 C3001 1.334 . S
C3002 C3003 1.287 . S
C3003 C3002 1.287 . S
C3003 C3004 1.524 1_554 S
C3003 H3006 0.999 . S
C3004 H2974 0.950 . S
C3004 C3003 1.524 1_556 S
C3004 C3005 1.415 . S
C3005 H2975 0.950 . S
C3005 C3000 1.363 1_556 S
C3005 C3004 1.415 . S
H3006 C3003 0.999 . S
H3007 C2988 0.913 . S
C1427 C49 0.767 . S
C1442 C636 0.766 . S
C1477 C145 0.766 . S
C1492 C381 0.767 . S
C1527 C469 0.767 . S
C1542 C196 0.766 . S
C1577 C321 0.767 . S
C1592 C577 0.766 . S
C1627 C753 0.767 . S
C1642 C1340 0.766 . S
C1677 C1085 0.766 . S
C1692 C849 0.767 . S
C1727 C1173 0.766 . S
C1742 C900 0.767 . S
C1777 C1289 0.767 . S
C1792 C1017 0.766 . S
C1827 C20 0.985 . S
C1842 C997 1.019 . S
C1877 C117 0.994 . S
C1892 C761 1.030 . S
C1927 C812 1.020 . S
C1942 C225 0.986 . S
C1977 C293 0.994 . S
C1992 C909 1.030 . S
C2027 C409 0.985 . S
C2042 C1193 1.019 . S
C2077 C1281 1.030 . S
C2092 C497 0.994 . S
C2127 C548 0.986 . S
C2142 C1377 1.019 . S
C2177 C1076 1.030 . S
C2192 C665 0.996 . S
C2227 C724 0.986 . S
C2242 C284 1.019 . S
C2277 C57 1.030 . S
C2292 C821 0.995 . S
C2327 C929 0.987 . S
C2342 C108 1.019 . S
C2377 C205 1.030 . S
C2392 C988 0.995 . S
C2427 C1113 0.986 . S
C2442 C489 1.019 . S
C2477 C585 1.030 . S
C2492 C1201 0.995 . S
C2527 C673 1.019 . S
C2542 C1261 0.987 . S
C2577 C372 1.030 . S
C2592 C1369 0.994 . S
C2627 C401 1.694 . S
C2642 C29 1.694 . S
C2677 C460 1.688 . S
C2692 C137 1.688 . S
C2727 C233 1.694 . S
C2742 C557 1.694 . S
C2777 C645 1.687 . S
C2792 C313 1.687 . S
C2827 C1105 1.694 . S
C2842 C733 1.694 . S
C2877 C1164 1.687 . S
C2892 C841 1.687 . S
C2927 C937 1.694 . S
C2942 C1252 1.694 . S
C2977 C1349 1.687 . S
C2992 C1025 1.687 . S
