# Generated by pormake.
# Topology unw, (4)-cn, num edge types: 1
# Building blocks:
#     Node 0, Type 0, BuildingBlock: ESEHIV_clean_sbu_0, # of connection points: 4
#     Node 1, Type 0, BuildingBlock: ESEHIV_clean_sbu_0, # of connection points: 4
#     Node 2, Type 0, BuildingBlock: ESEHIV_clean_sbu_0, # of connection points: 4
#     Node 3, Type 0, BuildingBlock: ESEHIV_clean_sbu_0, # of connection points: 4
#     Node 4, Type 0, BuildingBlock: ESEHIV_clean_sbu_0, # of connection points: 4
#     Node 5, Type 0, BuildingBlock: ESEHIV_clean_sbu_0, # of connection points: 4
#     Node 6, Type 0, BuildingBlock: ESEHIV_clean_sbu_0, # of connection points: 4
#     Node 7, Type 0, BuildingBlock: ESEHIV_clean_sbu_0, # of connection points: 4
#     Node 8, Type 0, BuildingBlock: ESEHIV_clean_sbu_0, # of connection points: 4
#     Node 9, Type 0, BuildingBlock: ESEHIV_clean_sbu_0, # of connection points: 4
#     Node 10, Type 0, BuildingBlock: ESEHIV_clean_sbu_0, # of connection points: 4
#     Node 11, Type 0, BuildingBlock: ESEHIV_clean_sbu_0, # of connection points: 4
#     Node 12, Type 0, BuildingBlock: ESEHIV_clean_sbu_0, # of connection points: 4
#     Node 13, Type 0, BuildingBlock: ESEHIV_clean_sbu_0, # of connection points: 4
#     Node 14, Type 0, BuildingBlock: ESEHIV_clean_sbu_0, # of connection points: 4
#     Node 15, Type 0, BuildingBlock: ESEHIV_clean_sbu_0, # of connection points: 4
#     Node 16, Type 0, BuildingBlock: ESEHIV_clean_sbu_0, # of connection points: 4
#     Node 17, Type 0, BuildingBlock: ESEHIV_clean_sbu_0, # of connection points: 4
#     Node 18, Type 0, BuildingBlock: ESEHIV_clean_sbu_0, # of connection points: 4
#     Node 19, Type 0, BuildingBlock: ESEHIV_clean_sbu_0, # of connection points: 4
#     Node 20, Type 0, BuildingBlock: ESEHIV_clean_sbu_0, # of connection points: 4
#     Node 21, Type 0, BuildingBlock: ESEHIV_clean_sbu_0, # of connection points: 4
#     Node 22, Type 0, BuildingBlock: ESEHIV_clean_sbu_0, # of connection points: 4
#     Node 23, Type 0, BuildingBlock: ESEHIV_clean_sbu_0, # of connection points: 4
#     Edge 24, Type (0, 0), BuildingBlock: CIFDUS_clean_linker_0, # of connection points: 2
#     Edge 25, Type (0, 0), BuildingBlock: CIFDUS_clean_linker_0, # of connection points: 2
#     Edge 26, Type (0, 0), BuildingBlock: CIFDUS_clean_linker_0, # of connection points: 2
#     Edge 27, Type (0, 0), BuildingBlock: CIFDUS_clean_linker_0, # of connection points: 2
#     Edge 28, Type (0, 0), BuildingBlock: CIFDUS_clean_linker_0, # of connection points: 2
#     Edge 29, Type (0, 0), BuildingBlock: CIFDUS_clean_linker_0, # of connection points: 2
#     Edge 30, Type (0, 0), BuildingBlock: CIFDUS_clean_linker_0, # of connection points: 2
#     Edge 31, Type (0, 0), BuildingBlock: CIFDUS_clean_linker_0, # of connection points: 2
#     Edge 32, Type (0, 0), BuildingBlock: CIFDUS_clean_linker_0, # of connection points: 2
#     Edge 33, Type (0, 0), BuildingBlock: CIFDUS_clean_linker_0, # of connection points: 2
#     Edge 34, Type (0, 0), BuildingBlock: CIFDUS_clean_linker_0, # of connection points: 2
#     Edge 35, Type (0, 0), BuildingBlock: CIFDUS_clean_linker_0, # of connection points: 2
#     Edge 36, Type (0, 0), BuildingBlock: CIFDUS_clean_linker_0, # of connection points: 2
#     Edge 37, Type (0, 0), BuildingBlock: CIFDUS_clean_linker_0, # of connection points: 2
#     Edge 38, Type (0, 0), BuildingBlock: CIFDUS_clean_linker_0, # of connection points: 2
#     Edge 39, Type (0, 0), BuildingBlock: CIFDUS_clean_linker_0, # of connection points: 2
#     Edge 40, Type (0, 0), BuildingBlock: CIFDUS_clean_linker_0, # of connection points: 2
#     Edge 41, Type (0, 0), BuildingBlock: CIFDUS_clean_linker_0, # of connection points: 2
#     Edge 42, Type (0, 0), BuildingBlock: CIFDUS_clean_linker_0, # of connection points: 2
#     Edge 43, Type (0, 0), BuildingBlock: CIFDUS_clean_linker_0, # of connection points: 2
#     Edge 44, Type (0, 0), BuildingBlock: CIFDUS_clean_linker_0, # of connection points: 2
#     Edge 45, Type (0, 0), BuildingBlock: CIFDUS_clean_linker_0, # of connection points: 2
#     Edge 46, Type (0, 0), BuildingBlock: CIFDUS_clean_linker_0, # of connection points: 2
#     Edge 47, Type (0, 0), BuildingBlock: CIFDUS_clean_linker_0, # of connection points: 2
#     Edge 48, Type (0, 0), BuildingBlock: CIFDUS_clean_linker_0, # of connection points: 2
#     Edge 49, Type (0, 0), BuildingBlock: CIFDUS_clean_linker_0, # of connection points: 2
#     Edge 50, Type (0, 0), BuildingBlock: CIFDUS_clean_linker_0, # of connection points: 2
#     Edge 51, Type (0, 0), BuildingBlock: CIFDUS_clean_linker_0, # of connection points: 2
#     Edge 52, Type (0, 0), BuildingBlock: CIFDUS_clean_linker_0, # of connection points: 2
#     Edge 53, Type (0, 0), BuildingBlock: CIFDUS_clean_linker_0, # of connection points: 2
#     Edge 54, Type (0, 0), BuildingBlock: CIFDUS_clean_linker_0, # of connection points: 2
#     Edge 55, Type (0, 0), BuildingBlock: CIFDUS_clean_linker_0, # of connection points: 2
#     Edge 56, Type (0, 0), BuildingBlock: CIFDUS_clean_linker_0, # of connection points: 2
#     Edge 57, Type (0, 0), BuildingBlock: CIFDUS_clean_linker_0, # of connection points: 2
#     Edge 58, Type (0, 0), BuildingBlock: CIFDUS_clean_linker_0, # of connection points: 2
#     Edge 59, Type (0, 0), BuildingBlock: CIFDUS_clean_linker_0, # of connection points: 2
#     Edge 60, Type (0, 0), BuildingBlock: CIFDUS_clean_linker_0, # of connection points: 2
#     Edge 61, Type (0, 0), BuildingBlock: CIFDUS_clean_linker_0, # of connection points: 2
#     Edge 62, Type (0, 0), BuildingBlock: CIFDUS_clean_linker_0, # of connection points: 2
#     Edge 63, Type (0, 0), BuildingBlock: CIFDUS_clean_linker_0, # of connection points: 2
#     Edge 64, Type (0, 0), BuildingBlock: CIFDUS_clean_linker_0, # of connection points: 2
#     Edge 65, Type (0, 0), BuildingBlock: CIFDUS_clean_linker_0, # of connection points: 2
#     Edge 66, Type (0, 0), BuildingBlock: CIFDUS_clean_linker_0, # of connection points: 2
#     Edge 67, Type (0, 0), BuildingBlock: CIFDUS_clean_linker_0, # of connection points: 2
#     Edge 68, Type (0, 0), BuildingBlock: CIFDUS_clean_linker_0, # of connection points: 2
#     Edge 69, Type (0, 0), BuildingBlock: CIFDUS_clean_linker_0, # of connection points: 2
#     Edge 70, Type (0, 0), BuildingBlock: CIFDUS_clean_linker_0, # of connection points: 2
#     Edge 71, Type (0, 0), BuildingBlock: CIFDUS_clean_linker_0, # of connection points: 2
# Relax obj value: 0.340
# Max RMSD: 0.213
# Mean RMSD: 0.205
data_MOF--net-unw--node1-ESEHIV_clean_sbu_0--edge1-CIFDUS_clean_linker_0
_symmetry_space_group_name_H-M    P1
_symmetry_Int_Tables_number       1
_symmetry_cell_setting            triclinic
loop_
_symmetry_equiv_pos_as_xyz
'x, y, z'
_cell_length_a     44.395667
_cell_length_b     45.563612
_cell_length_c     44.999993
_cell_angle_alpha  90.847675
_cell_angle_beta   90.271731
_cell_angle_gamma 92.18222
loop_
_atom_site_label
_atom_site_type_symbol
_atom_site_fract_x
_atom_site_fract_y
_atom_site_fract_z
_atom_type_partial_charge
Cu0 Cu 0.12784 0.41045 0.272 0.0
N1 N 0.14671 0.40352 0.30817 0.0
N2 N 0.16468 0.37171 0.34071 0.0
C3 C 0.14078 0.37933 0.32425 0.0
C4 C 0.18606 0.39299 0.3358 0.0
C5 C 0.17498 0.41243 0.31563 0.0
O6 O 0.08814 0.39052 0.27351 0.0
C7 C 0.16707 0.40253 0.2207 0.0
O8 O 0.16045 0.42876 0.2116 0.0
H9 H 0.12039 0.36593 0.32156 0.0
H10 H 0.18794 0.42943 0.30432 0.0
N11 N 0.12441 0.45083 0.26623 0.0
N12 N 0.13409 0.49833 0.25668 0.0
C13 C 0.14572 0.47146 0.25907 0.0
C14 C 0.09865 0.46525 0.26873 0.0
C15 C 0.10452 0.49447 0.2629 0.0
C16 C 0.08637 0.3626 0.2718 0.0
O17 O 0.11081 0.34839 0.26552 0.0
H18 H 0.16925 0.46693 0.25582 0.0
H19 H 0.07701 0.45507 0.2742 0.0
O20 O 0.15389 0.39174 0.24331 0.0
H21 H 0.20925 0.39267 0.34329 0.0
H22 H 0.08813 0.51146 0.26255 0.0
Cu23 Cu 0.6379 0.14459 0.2584 0.0
N24 N 0.66207 0.14705 0.2248 0.0
N25 N 0.69429 0.17089 0.19494 0.0
C26 C 0.66815 0.17197 0.20993 0.0
C27 C 0.70464 0.14393 0.19984 0.0
C28 C 0.68463 0.12921 0.21818 0.0
O29 O 0.60106 0.16593 0.25142 0.0
C30 C 0.67518 0.1879 0.2889 0.0
O31 O 0.66697 0.20593 0.26814 0.0
H32 H 0.65586 0.19182 0.21323 0.0
H33 H 0.68817 0.10844 0.22874 0.0
N34 N 0.6317 0.10506 0.2686 0.0
N35 N 0.64193 0.06095 0.28702 0.0
C36 C 0.65245 0.08867 0.28185 0.0
C37 C 0.60707 0.08722 0.26524 0.0
C38 C 0.6133 0.06004 0.27652 0.0
C39 C 0.58423 0.16065 0.22874 0.0
O40 O 0.59051 0.13873 0.21079 0.0
H41 H 0.67497 0.09703 0.28727 0.0
H42 H 0.58601 0.09358 0.25552 0.0
O43 O 0.66264 0.16234 0.29004 0.0
H44 H 0.72649 0.13654 0.19308 0.0
H45 H 0.59765 0.04128 0.27736 0.0
Cu46 Cu 0.87704 0.60238 0.31047 0.0
N47 N 0.87245 0.61863 0.34846 0.0
N48 N 0.86757 0.6577 0.37867 0.0
C49 C 0.88303 0.64582 0.35602 0.0
C50 C 0.8472 0.63646 0.38654 0.0
C51 C 0.85015 0.61248 0.36776 0.0
O52 O 0.91249 0.62212 0.29391 0.0
C53 C 0.83549 0.61073 0.262 0.0
O54 O 0.85773 0.60574 0.24367 0.0
H55 H 0.89982 0.65778 0.34332 0.0
H56 H 0.83482 0.5935 0.36603 0.0
N57 N 0.88079 0.56178 0.31091 0.0
N58 N 0.8755 0.51473 0.29635 0.0
C59 C 0.8725 0.54301 0.2887 0.0
C60 C 0.88948 0.54491 0.33342 0.0
C61 C 0.88619 0.51582 0.32452 0.0
C62 C 0.91096 0.64866 0.28583 0.0
O63 O 0.88424 0.65987 0.28334 0.0
H64 H 0.86324 0.54994 0.26777 0.0
H65 H 0.89693 0.55316 0.355 0.0
O66 O 0.84008 0.61052 0.28987 0.0
H67 H 0.8292 0.63921 0.40236 0.0
H68 H 0.891 0.49697 0.33785 0.0
Cu69 Cu 0.37476 0.87237 0.28746 0.0
N70 N 0.36162 0.84252 0.31244 0.0
N71 N 0.32598 0.8179 0.33778 0.0
C72 C 0.33708 0.84449 0.32954 0.0
C73 C 0.34451 0.79832 0.32555 0.0
C74 C 0.36657 0.81364 0.30991 0.0
O75 O 0.36105 0.90902 0.30532 0.0
C76 C 0.32798 0.86086 0.24576 0.0
O77 O 0.31083 0.87322 0.26568 0.0
H78 H 0.32543 0.86475 0.33269 0.0
H79 H 0.38305 0.80427 0.29529 0.0
N80 N 0.41654 0.87185 0.2833 0.0
N81 N 0.46185 0.85783 0.26812 0.0
C82 C 0.43173 0.85205 0.26734 0.0
C83 C 0.43759 0.89087 0.29462 0.0
C84 C 0.46555 0.88229 0.28534 0.0
C85 C 0.3544 0.93284 0.29277 0.0
O86 O 0.35781 0.93527 0.26392 0.0
H87 H 0.42079 0.8337 0.25555 0.0
H88 H 0.43288 0.9098 0.30839 0.0
O89 O 0.35636 0.86134 0.24969 0.0
H90 H 0.34101 0.77469 0.32591 0.0
H91 H 0.48685 0.89363 0.29041 0.0
Cu92 Cu 0.14182 0.62599 0.73058 0.0
N93 N 0.15819 0.64012 0.69528 0.0
N94 N 0.17385 0.67454 0.6635 0.0
C95 C 0.15586 0.66806 0.68667 0.0
C96 C 0.18813 0.6496 0.65712 0.0
C97 C 0.17827 0.62827 0.67675 0.0
O98 O 0.09874 0.63308 0.72779 0.0
C99 C 0.19229 0.64505 0.76123 0.0
O100 O 0.20328 0.62645 0.7419 0.0
H101 H 0.14303 0.68404 0.69864 0.0
H102 H 0.18652 0.60633 0.67855 0.0
N103 N 0.14855 0.58575 0.73477 0.0
N104 N 0.16462 0.54361 0.75347 0.0
C105 C 0.16172 0.57283 0.75802 0.0
C106 C 0.14266 0.56398 0.71484 0.0
C107 C 0.15251 0.53804 0.72625 0.0
C108 C 0.08766 0.65835 0.73108 0.0
O109 O 0.10487 0.68016 0.74173 0.0
H110 H 0.16972 0.5849 0.77756 0.0
H111 H 0.13224 0.56687 0.69336 0.0
O112 O 0.16386 0.64814 0.76165 0.0
H113 H 0.20531 0.64732 0.64034 0.0
H114 H 0.1507 0.51675 0.71529 0.0
Cu115 Cu 0.33729 0.08193 0.80452 0.0
N116 N 0.31862 0.11088 0.78304 0.0
N117 N 0.28221 0.1319 0.75784 0.0
C118 C 0.28867 0.11278 0.77923 0.0
C119 C 0.30893 0.14248 0.74774 0.0
C120 C 0.3314 0.12945 0.76333 0.0
O121 O 0.32925 0.04463 0.78359 0.0
C122 C 0.3058 0.09671 0.85891 0.0
O123 O 0.29233 0.0887 0.88357 0.0
H124 H 0.27206 0.09887 0.79033 0.0
H125 H 0.35523 0.13153 0.75872 0.0
N126 N 0.37872 0.09019 0.80895 0.0
N127 N 0.42289 0.1147 0.81554 0.0
C128 C 0.39376 0.1164 0.80731 0.0
C129 C 0.39916 0.07129 0.81835 0.0
C130 C 0.42642 0.08636 0.82253 0.0
C131 C 0.32422 0.04325 0.7557 0.0
O132 O 0.32786 0.06706 0.73985 0.0
H133 H 0.38328 0.13673 0.80204 0.0
H134 H 0.39426 0.04836 0.82288 0.0
O135 O 0.31915 0.0775 0.84353 0.0
H136 H 0.31189 0.15738 0.72937 0.0
H137 H 0.44709 0.07732 0.83056 0.0
Cu138 Cu 0.85244 0.37879 0.76183 0.0
N139 N 0.84019 0.35847 0.7956 0.0
N140 N 0.80416 0.33525 0.82177 0.0
C141 C 0.81217 0.35968 0.80675 0.0
C142 C 0.8287 0.31862 0.82112 0.0
C143 C 0.85095 0.33305 0.80505 0.0
O144 O 0.83329 0.41655 0.76362 0.0
C145 C 0.81586 0.33814 0.72711 0.0
O146 O 0.7958 0.34086 0.74816 0.0
H147 H 0.7962 0.37546 0.79939 0.0
H148 H 0.87163 0.32381 0.79729 0.0
N149 N 0.89454 0.38208 0.75961 0.0
N150 N 0.94068 0.37557 0.74112 0.0
C151 C 0.91068 0.37425 0.73566 0.0
C152 C 0.91498 0.38855 0.78111 0.0
C153 C 0.94344 0.38468 0.76976 0.0
C154 C 0.8389 0.4334 0.78597 0.0
O155 O 0.85963 0.42604 0.8051 0.0
H156 H 0.9004 0.36636 0.71507 0.0
H157 H 0.90959 0.3946 0.80374 0.0
O158 O 0.83973 0.35455 0.72761 0.0
H159 H 0.82907 0.29602 0.82818 0.0
H160 H 0.96444 0.38789 0.78188 0.0
Cu161 Cu 0.62581 0.88654 0.76688 0.0
N162 N 0.63017 0.88702 0.80806 0.0
N163 N 0.63766 0.86397 0.85088 0.0
C164 C 0.62312 0.86343 0.82451 0.0
C165 C 0.65379 0.88975 0.85146 0.0
C166 C 0.64913 0.90392 0.82497 0.0
O167 O 0.59048 0.8613 0.75792 0.0
C168 C 0.67359 0.87394 0.72584 0.0
O169 O 0.65855 0.88804 0.70569 0.0
H170 H 0.61099 0.84428 0.81565 0.0
H171 H 0.66137 0.92332 0.81728 0.0
N172 N 0.62042 0.92426 0.75273 0.0
N173 N 0.62824 0.9662 0.72831 0.0
C174 C 0.64103 0.94253 0.74003 0.0
C175 C 0.59386 0.9371 0.74957 0.0
C176 C 0.59858 0.96294 0.73448 0.0
C177 C 0.59088 0.83345 0.75985 0.0
O178 O 0.6168 0.82099 0.7637 0.0
H179 H 0.66461 0.93771 0.73786 0.0
H180 H 0.57239 0.92764 0.7566 0.0
O181 O 0.66259 0.8705 0.75165 0.0
H182 H 0.67013 0.89651 0.86837 0.0
H183 H 0.58135 0.97771 0.72779 0.0
Cu184 Cu 0.26337 0.15901 0.38761 0.0
N185 N 0.22519 0.17081 0.3765 0.0
N186 N 0.19107 0.20418 0.36702 0.0
C187 C 0.22045 0.19805 0.36696 0.0
C188 C 0.17638 0.1795 0.37613 0.0
C189 C 0.19764 0.15888 0.38223 0.0
O190 O 0.26791 0.17206 0.42942 0.0
C191 C 0.28555 0.17452 0.33248 0.0
O192 O 0.26265 0.15693 0.32462 0.0
H193 H 0.23846 0.21385 0.36191 0.0
H194 H 0.19346 0.13764 0.39214 0.0
N195 N 0.26675 0.11806 0.38344 0.0
N196 N 0.28135 0.07398 0.36711 0.0
C197 C 0.28415 0.10348 0.36403 0.0
C198 C 0.25252 0.09706 0.39939 0.0
C199 C 0.26146 0.06993 0.38945 0.0
C200 C 0.26309 0.19866 0.43682 0.0
O201 O 0.26018 0.21806 0.41583 0.0
H202 H 0.29892 0.11432 0.34822 0.0
H203 H 0.23666 0.10121 0.417 0.0
O204 O 0.29121 0.17851 0.36013 0.0
H205 H 0.15239 0.17732 0.38021 0.0
H206 H 0.25348 0.04886 0.3977 0.0
Cu207 Cu 0.90784 0.2247 0.33433 0.0
N208 N 0.91723 0.2096 0.29708 0.0
N209 N 0.92969 0.21268 0.24918 0.0
C210 C 0.92813 0.22695 0.27552 0.0
C211 C 0.91927 0.18499 0.25444 0.0
C212 C 0.91168 0.18312 0.28418 0.0
O213 O 0.9367 0.25783 0.33931 0.0
C214 C 0.84605 0.21429 0.33378 0.0
O215 O 0.85507 0.18746 0.33746 0.0
H216 H 0.93252 0.25032 0.27869 0.0
H217 H 0.9014 0.16433 0.29516 0.0
N218 N 0.91239 0.19675 0.36394 0.0
N219 N 0.90345 0.17088 0.40503 0.0
C220 C 0.89794 0.1957 0.39019 0.0
C221 C 0.92766 0.17186 0.36211 0.0
C222 C 0.92232 0.15594 0.38745 0.0
C223 C 0.96411 0.25072 0.34123 0.0
O224 O 0.96976 0.22286 0.34448 0.0
H225 H 0.88299 0.21244 0.39774 0.0
H226 H 0.9409 0.16529 0.34321 0.0
O227 O 0.86575 0.23531 0.33227 0.0
H228 H 0.91604 0.16776 0.23779 0.0
H229 H 0.93061 0.1344 0.39191 0.0
Cu230 Cu 0.76069 0.86705 0.39567 0.0
N231 N 0.80024 0.857 0.3873 0.0
N232 N 0.83814 0.82649 0.38088 0.0
C233 C 0.81158 0.831 0.39422 0.0
C234 C 0.84401 0.85098 0.36501 0.0
C235 C 0.82059 0.86982 0.36908 0.0
O236 O 0.75287 0.8534 0.4361 0.0
C237 C 0.70917 0.85344 0.35832 0.0
O238 O 0.69432 0.87112 0.37577 0.0
H239 H 0.7994 0.81449 0.40671 0.0
H240 H 0.81765 0.89043 0.35801 0.0
N241 N 0.7564 0.90788 0.39347 0.0
N242 N 0.74181 0.95219 0.37909 0.0
C243 C 0.74241 0.92316 0.37224 0.0
C244 C 0.76513 0.92791 0.41429 0.0
C245 C 0.75625 0.95515 0.40553 0.0
C246 C 0.75018 0.82629 0.44267 0.0
O247 O 0.7469 0.8065 0.42125 0.0
H248 H 0.73275 0.91318 0.35224 0.0
H249 H 0.77654 0.92291 0.43479 0.0
O250 O 0.7362 0.84769 0.3648 0.0
H251 H 0.86298 0.8544 0.35028 0.0
H252 H 0.75935 0.97541 0.41822 0.0
Cu253 Cu 0.0897 0.79678 0.3411 0.0
N254 N 0.08966 0.8185 0.30644 0.0
N255 N 0.09874 0.82346 0.25803 0.0
C256 C 0.08996 0.80507 0.27974 0.0
C257 C 0.10383 0.84982 0.27162 0.0
C258 C 0.098 0.84673 0.30161 0.0
O259 O 0.05804 0.76657 0.33628 0.0
C260 C 0.15086 0.80131 0.34759 0.0
O261 O 0.14346 0.82889 0.34981 0.0
H262 H 0.08753 0.78144 0.27697 0.0
H263 H 0.10249 0.86308 0.31888 0.0
N264 N 0.08421 0.81982 0.3752 0.0
N265 N 0.1002 0.84119 0.41773 0.0
C266 C 0.10115 0.8173 0.39979 0.0
C267 C 0.07099 0.8458 0.37813 0.0
C268 C 0.08077 0.85902 0.4045 0.0
C269 C 0.03208 0.77572 0.32996 0.0
O270 O 0.02832 0.80419 0.32985 0.0
H271 H 0.11648 0.79966 0.40284 0.0
H272 H 0.05774 0.85572 0.36101 0.0
O273 O 0.13007 0.78158 0.34346 0.0
H274 H 0.1135 0.86919 0.26114 0.0
H275 H 0.07655 0.88127 0.41167 0.0
Cu276 Cu 0.27715 0.88039 0.60146 0.0
N277 N 0.31865 0.88161 0.60826 0.0
N278 N 0.35943 0.88023 0.6376 0.0
C279 C 0.33046 0.88776 0.63523 0.0
C280 C 0.36636 0.86932 0.61048 0.0
C281 C 0.3411 0.87013 0.59243 0.0
O282 O 0.26175 0.91252 0.62487 0.0
C283 C 0.23563 0.83351 0.61837 0.0
O284 O 0.21421 0.8525 0.61631 0.0
H285 H 0.317 0.89437 0.65383 0.0
H286 H 0.33857 0.86062 0.57035 0.0
N287 N 0.26794 0.88486 0.56142 0.0
N288 N 0.2427 0.88041 0.51853 0.0
C289 C 0.24135 0.87759 0.54826 0.0
C290 C 0.28666 0.8929 0.53929 0.0
C291 C 0.27117 0.88995 0.51271 0.0
C292 C 0.25954 0.91141 0.65302 0.0
O293 O 0.26127 0.88588 0.66602 0.0
H294 H 0.22183 0.86897 0.56003 0.0
H295 H 0.31015 0.89952 0.54218 0.0
O296 O 0.26282 0.84181 0.61372 0.0
H297 H 0.38729 0.8593 0.60471 0.0
H298 H 0.28024 0.8939 0.49078 0.0
Cu299 Cu 0.1557 0.27014 0.63608 0.0
N300 N 0.14333 0.23165 0.64457 0.0
N301 N 0.15189 0.18699 0.66175 0.0
C302 C 0.16252 0.20964 0.64549 0.0
C303 C 0.12447 0.19479 0.67112 0.0
C304 C 0.11914 0.22234 0.66028 0.0
O305 O 0.17585 0.26978 0.59718 0.0
C306 C 0.18091 0.3068 0.6831 0.0
O307 O 0.1666 0.32814 0.67061 0.0
H308 H 0.18558 0.21183 0.63814 0.0
H309 H 0.10053 0.2358 0.6663 0.0
N310 N 0.12174 0.29333 0.63615 0.0
N311 N 0.08181 0.31701 0.65318 0.0
C312 C 0.1043 0.29898 0.65985 0.0
C313 C 0.10993 0.30821 0.6136 0.0
C314 C 0.08529 0.3228 0.624 0.0
C315 C 0.20159 0.2589 0.5928 0.0
O316 O 0.2175 0.25069 0.61568 0.0
H317 H 0.10817 0.2899 0.68156 0.0
H318 H 0.1188 0.30863 0.59125 0.0
O319 O 0.18157 0.28194 0.6698 0.0
H320 H 0.11072 0.18283 0.68702 0.0
H321 H 0.07145 0.33701 0.61112 0.0
Cu322 Cu 0.76154 0.13314 0.62386 0.0
N323 N 0.72642 0.15311 0.61751 0.0
N324 N 0.69392 0.18131 0.64132 0.0
C325 C 0.70771 0.15552 0.64071 0.0
C326 C 0.70346 0.19537 0.61671 0.0
C327 C 0.72346 0.17786 0.60197 0.0
O328 O 0.7503 0.09789 0.64566 0.0
C329 C 0.79431 0.18487 0.64039 0.0
O330 O 0.79474 0.1895 0.61169 0.0
H331 H 0.70901 0.14147 0.65985 0.0
H332 H 0.73829 0.18491 0.58427 0.0
N333 N 0.78233 0.12342 0.58927 0.0
N334 N 0.80735 0.12581 0.5463 0.0
C335 C 0.789 0.13979 0.56527 0.0
C336 C 0.79651 0.09815 0.58504 0.0
C337 C 0.81196 0.09954 0.55864 0.0
C338 C 0.7274 0.08236 0.63702 0.0
O339 O 0.71367 0.0893 0.6123 0.0
H340 H 0.78161 0.16189 0.5623 0.0
H341 H 0.79626 0.08025 0.60058 0.0
O342 O 0.78449 0.16011 0.64981 0.0
H343 H 0.69958 0.21815 0.61196 0.0
H344 H 0.8258 0.08263 0.54943 0.0
Cu345 Cu 0.85931 0.75139 0.63871 0.0
N346 N 0.85931 0.78994 0.65322 0.0
N347 N 0.83445 0.82879 0.66937 0.0
C348 C 0.83702 0.79947 0.67054 0.0
C349 C 0.85665 0.83828 0.65103 0.0
C350 C 0.87197 0.8142 0.64107 0.0
O351 O 0.8405 0.75191 0.59902 0.0
C352 C 0.84268 0.72873 0.69381 0.0
O353 O 0.8659 0.74555 0.70233 0.0
H354 H 0.82016 0.78476 0.68017 0.0
H355 H 0.8887 0.81407 0.62368 0.0
N356 N 0.89816 0.73648 0.6369 0.0
N357 N 0.94244 0.71909 0.65127 0.0
C358 C 0.92002 0.73736 0.65797 0.0
C359 C 0.90737 0.71738 0.61607 0.0
C360 C 0.93457 0.70665 0.62482 0.0
C361 C 0.81651 0.766 0.59492 0.0
O362 O 0.80316 0.77759 0.61801 0.0
H363 H 0.91876 0.74982 0.67854 0.0
H364 H 0.89439 0.71061 0.59658 0.0
O365 O 0.83562 0.72748 0.66629 0.0
H366 H 0.85988 0.86056 0.6433 0.0
H367 H 0.94722 0.69037 0.61299 0.0
Cu368 Cu 0.36966 0.27834 0.1356 0.0
N369 N 0.35681 0.31567 0.14615 0.0
N370 N 0.3237 0.34995 0.15761 0.0
C371 C 0.32955 0.32104 0.15758 0.0
C372 C 0.34852 0.36324 0.14581 0.0
C373 C 0.36869 0.34206 0.13849 0.0
O374 O 0.35872 0.2738 0.0934 0.0
C375 C 0.35468 0.25421 0.18948 0.0
O376 O 0.37417 0.27523 0.19774 0.0
H377 H 0.31356 0.30372 0.16375 0.0
H378 H 0.3896 0.34556 0.12665 0.0
N379 N 0.41123 0.27451 0.14284 0.0
N380 N 0.45365 0.25447 0.15906 0.0
C381 C 0.42488 0.2494 0.14963 0.0
C382 C 0.43225 0.2961 0.14801 0.0
C383 C 0.45833 0.28385 0.15793 0.0
C384 C 0.33092 0.27432 0.08611 0.0
O385 O 0.31066 0.27354 0.1073 0.0
H386 H 0.41336 0.22802 0.14935 0.0
H387 H 0.42861 0.31927 0.14613 0.0
O388 O 0.34862 0.25088 0.16185 0.0
H389 H 0.35162 0.38648 0.14168 0.0
H390 H 0.47897 0.29574 0.16437 0.0
Cu391 Cu 0.38831 0.76362 0.84516 0.0
N392 N 0.37773 0.80076 0.83366 0.0
N393 N 0.37622 0.83854 0.80274 0.0
C394 C 0.38028 0.80953 0.80545 0.0
C395 C 0.37042 0.84836 0.83055 0.0
C396 C 0.37164 0.82494 0.84969 0.0
O397 O 0.42689 0.75959 0.82579 0.0
C398 C 0.3305 0.73804 0.83406 0.0
O399 O 0.32178 0.76077 0.84964 0.0
H400 H 0.38557 0.79473 0.78735 0.0
H401 H 0.36939 0.82573 0.87361 0.0
N402 N 0.39035 0.76151 0.88646 0.0
N403 N 0.37789 0.74909 0.9329 0.0
C404 C 0.37365 0.74327 0.90357 0.0
C405 C 0.40594 0.77944 0.90541 0.0
C406 C 0.39837 0.77184 0.93404 0.0
C407 C 0.45173 0.75173 0.83664 0.0
O408 O 0.45257 0.74128 0.86367 0.0
H409 H 0.35833 0.72641 0.89447 0.0
H410 H 0.42096 0.7974 0.89881 0.0
O411 O 0.35855 0.73501 0.82967 0.0
H412 H 0.36654 0.87092 0.8368 0.0
H413 H 0.4065 0.78307 0.95403 0.0
Cu414 Cu 0.24262 0.33433 0.87573 0.0
N415 N 0.25885 0.30709 0.84985 0.0
N416 N 0.27033 0.26261 0.83313 0.0
C417 C 0.25353 0.27802 0.85216 0.0
C418 C 0.28728 0.28276 0.81837 0.0
C419 C 0.27999 0.31036 0.82868 0.0
O420 O 0.26014 0.32745 0.91532 0.0
C421 C 0.17848 0.32631 0.858 0.0
O422 O 0.15034 0.32264 0.86643 0.0
H423 H 0.23844 0.26829 0.86842 0.0
H424 H 0.29014 0.33119 0.82206 0.0
N425 N 0.2499 0.37332 0.86412 0.0
N426 N 0.24211 0.41579 0.84118 0.0
C427 C 0.2401 0.3861 0.83918 0.0
C428 C 0.25923 0.39564 0.88219 0.0
C429 C 0.25455 0.42178 0.86815 0.0
C430 C 0.24749 0.30832 0.93208 0.0
O431 O 0.22275 0.29437 0.92263 0.0
H432 H 0.23007 0.37393 0.8207 0.0
H433 H 0.26698 0.39312 0.9048 0.0
O434 O 0.1991 0.32711 0.8779 0.0
H435 H 0.3041 0.27785 0.80188 0.0
H436 H 0.25881 0.4435 0.87766 0.0
Cu437 Cu 0.61559 0.24868 0.87601 0.0
N438 N 0.64151 0.22798 0.85178 0.0
N439 N 0.65936 0.20975 0.80946 0.0
C440 C 0.6345 0.21533 0.82529 0.0
C441 C 0.68293 0.21874 0.82674 0.0
C442 C 0.67182 0.22987 0.85296 0.0
O443 O 0.57555 0.23009 0.87346 0.0
C444 C 0.62986 0.29545 0.8391 0.0
O445 O 0.62016 0.27864 0.81683 0.0
H446 H 0.61179 0.21314 0.8165 0.0
H447 H 0.68479 0.24107 0.87041 0.0
N448 N 0.6287 0.24681 0.91513 0.0
N449 N 0.65256 0.25887 0.95766 0.0
C450 C 0.64981 0.26454 0.92839 0.0
C451 C 0.61766 0.22926 0.93652 0.0
C452 C 0.63234 0.2366 0.96278 0.0
C453 C 0.5573 0.23031 0.8516 0.0
O454 O 0.56356 0.24703 0.82876 0.0
H455 H 0.6627 0.28132 0.91668 0.0
H456 H 0.59969 0.21278 0.93334 0.0
O457 O 0.62018 0.28966 0.86498 0.0
H458 H 0.70632 0.21912 0.82002 0.0
H459 H 0.62775 0.2268 0.98412 0.0
Cu460 Cu 0.73045 0.64551 0.88686 0.0
N461 N 0.69356 0.66226 0.87889 0.0
N462 N 0.66089 0.69837 0.87667 0.0
C463 C 0.68674 0.68922 0.88862 0.0
C464 C 0.65074 0.6759 0.85892 0.0
C465 C 0.671 0.65367 0.86027 0.0
O466 O 0.73648 0.65009 0.92961 0.0
C467 C 0.75551 0.66259 0.83428 0.0
O468 O 0.73204 0.64636 0.82527 0.0
H469 H 0.7012 0.7024 0.90325 0.0
H470 H 0.67022 0.63355 0.84721 0.0
N471 N 0.73059 0.60572 0.87576 0.0
N472 N 0.74817 0.56389 0.85729 0.0
C473 C 0.75515 0.59152 0.86695 0.0
C474 C 0.70724 0.58631 0.87183 0.0
C475 C 0.71801 0.56048 0.8603 0.0
C476 C 0.7431 0.6745 0.94272 0.0
O477 O 0.75217 0.69712 0.92686 0.0
H478 H 0.7776 0.60165 0.86667 0.0
H479 H 0.68397 0.59074 0.87653 0.0
O480 O 0.76016 0.66583 0.86216 0.0
H481 H 0.63122 0.67624 0.84445 0.0
H482 H 0.70475 0.54074 0.85467 0.0
Cu483 Cu 0.65783 0.7456 0.15382 0.0
N484 N 0.6638 0.70856 0.16895 0.0
N485 N 0.69055 0.67139 0.18483 0.0
C486 C 0.69066 0.69598 0.16861 0.0
C487 C 0.66238 0.66834 0.19588 0.0
C488 C 0.64582 0.69137 0.18591 0.0
O489 O 0.67648 0.74622 0.11447 0.0
C490 C 0.66861 0.79533 0.19388 0.0
O491 O 0.64432 0.80672 0.18287 0.0
H492 H 0.71051 0.70591 0.15838 0.0
H493 H 0.62292 0.69609 0.19188 0.0
N494 N 0.61666 0.75297 0.15188 0.0
N495 N 0.57099 0.76787 0.16487 0.0
C496 C 0.59852 0.76039 0.17452 0.0
C497 C 0.59987 0.75515 0.12712 0.0
C498 C 0.57172 0.76428 0.13504 0.0
C499 C 0.67279 0.72331 0.098 0.0
O500 O 0.65476 0.70178 0.10711 0.0
H501 H 0.6058 0.76134 0.19752 0.0
H502 H 0.60798 0.75159 0.10478 0.0
O503 O 0.67851 0.77187 0.18244 0.0
H504 H 0.65471 0.65144 0.21102 0.0
H505 H 0.55378 0.76942 0.11983 0.0
Cu506 Cu 0.23549 0.67216 0.13211 0.0
N507 N 0.19802 0.68899 0.12854 0.0
N508 N 0.15955 0.71765 0.13822 0.0
C509 C 0.18787 0.71092 0.14561 0.0
C510 C 0.15127 0.69894 0.1159 0.0
C511 C 0.17522 0.68134 0.10983 0.0
O512 O 0.22973 0.6357 0.15397 0.0
C513 C 0.26343 0.72721 0.14544 0.0
O514 O 0.24668 0.73545 0.12315 0.0
H515 H 0.20064 0.72109 0.16382 0.0
H516 H 0.17581 0.66388 0.09332 0.0
N517 N 0.24977 0.6637 0.09417 0.0
N518 N 0.2718 0.6683 0.04987 0.0
C519 C 0.26862 0.6802 0.0773 0.0
C520 C 0.24092 0.64055 0.07696 0.0
C521 C 0.25442 0.64334 0.04959 0.0
C522 C 0.21481 0.63508 0.17808 0.0
O523 O 0.20522 0.65984 0.1892 0.0
H524 H 0.27885 0.70103 0.08456 0.0
H525 H 0.22513 0.62327 0.08366 0.0
O526 O 0.26287 0.70023 0.15264 0.0
H527 H 0.12946 0.69791 0.105 0.0
H528 H 0.25142 0.62833 0.03085 0.0
Cu529 Cu 0.82152 0.35326 0.12589 0.0
N530 N 0.8548 0.33488 0.10993 0.0
N531 N 0.89022 0.3014 0.1121 0.0
C532 C 0.87703 0.32384 0.12621 0.0
C533 C 0.87675 0.29928 0.08518 0.0
C534 C 0.85502 0.32004 0.08385 0.0
O535 O 0.83413 0.38687 0.15101 0.0
C536 C 0.80772 0.30627 0.16624 0.0
O537 O 0.83512 0.311 0.17674 0.0
H538 H 0.88041 0.32912 0.14953 0.0
H539 H 0.83804 0.32143 0.06669 0.0
N540 N 0.79713 0.36457 0.09475 0.0
N541 N 0.76351 0.35911 0.05778 0.0
C542 C 0.77964 0.34556 0.07866 0.0
C543 C 0.79208 0.39127 0.08388 0.0
C544 C 0.77133 0.38797 0.06094 0.0
C545 C 0.82732 0.38935 0.17838 0.0
O546 O 0.81041 0.36873 0.19077 0.0
H547 H 0.77923 0.32211 0.08212 0.0
H548 H 0.80253 0.41163 0.09217 0.0
O549 O 0.79769 0.32314 0.1465 0.0
H550 H 0.87972 0.28168 0.06916 0.0
H551 H 0.76243 0.40551 0.04798 0.0
H552 H 0.17698 0.62655 0.22472 0.0
H553 H 0.2316 0.57958 0.16235 0.0
H554 H 0.21311 0.53281 0.18277 0.0
H555 H 0.17871 0.5051 0.21638 0.0
H556 H 0.12295 0.55269 0.27702 0.0
H557 H 0.14459 0.59927 0.25933 0.0
C558 C 0.18512 0.60613 0.21571 0.0
C559 C 0.20563 0.60668 0.19193 0.0
C560 C 0.174 0.57934 0.22719 0.0
C561 C 0.21578 0.57989 0.18058 0.0
C562 C 0.20517 0.55309 0.19224 0.0
C563 C 0.1717 0.52569 0.22598 0.0
C564 C 0.14915 0.52545 0.24791 0.0
C565 C 0.18392 0.55251 0.21527 0.0
C566 C 0.14 0.55231 0.2599 0.0
C567 C 0.15241 0.57895 0.24984 0.0
H568 H 0.5394 0.15139 0.18742 0.0
H569 H 0.57387 0.21512 0.25215 0.0
H570 H 0.53635 0.24965 0.23646 0.0
H571 H 0.49481 0.26257 0.20311 0.0
H572 H 0.45929 0.19857 0.13942 0.0
H573 H 0.49592 0.16333 0.15602 0.0
C574 C 0.53862 0.17277 0.19824 0.0
C575 C 0.55965 0.18061 0.22089 0.0
C576 C 0.51681 0.19256 0.18919 0.0
C577 C 0.55803 0.20837 0.23475 0.0
C578 C 0.53662 0.22824 0.22568 0.0
C579 C 0.49517 0.24095 0.1928 0.0
C580 C 0.4745 0.23334 0.16979 0.0
C581 C 0.51612 0.22072 0.20269 0.0
C582 C 0.47485 0.20496 0.15716 0.0
C583 C 0.49589 0.18485 0.1666 0.0
H584 H 0.8282 0.39527 0.23858 0.0
H585 H 0.85155 0.4415 0.15839 0.0
H586 H 0.86887 0.48441 0.18794 0.0
H587 H 0.87686 0.50902 0.23663 0.0
H588 H 0.85439 0.4623 0.31665 0.0
H589 H 0.83764 0.41926 0.28714 0.0
C590 C 0.83704 0.41474 0.22753 0.0
C591 C 0.83838 0.4152 0.19628 0.0
C592 C 0.84726 0.43922 0.24466 0.0
C593 C 0.85024 0.44052 0.18239 0.0
C594 C 0.86013 0.46509 0.19928 0.0
C595 C 0.86819 0.48945 0.24758 0.0
C596 C 0.8668 0.48896 0.27883 0.0
C597 C 0.85863 0.46473 0.23043 0.0
C598 C 0.85599 0.46322 0.29269 0.0
C599 C 0.84622 0.43865 0.2758 0.0
H600 H 0.57704 0.80003 0.21574 0.0
H601 H 0.51126 0.76518 0.15239 0.0
H602 H 0.47136 0.78975 0.17908 0.0
H603 H 0.45541 0.82253 0.21933 0.0
H604 H 0.52111 0.85673 0.28318 0.0
H605 H 0.56069 0.8311 0.25731 0.0
C606 C 0.55393 0.79738 0.20801 0.0
C607 C 0.54724 0.78072 0.18201 0.0
C608 C 0.53106 0.8117 0.22342 0.0
C609 C 0.51715 0.77808 0.17211 0.0
C610 C 0.49428 0.79208 0.18742 0.0
C611 C 0.47826 0.82413 0.2279 0.0
C612 C 0.48508 0.84177 0.25323 0.0
C613 C 0.501 0.80918 0.21295 0.0
C614 C 0.51509 0.84378 0.26355 0.0
C615 C 0.5378 0.82894 0.24884 0.0
H616 H 0.22121 0.46931 0.85493 0.0
H617 H 0.23316 0.40877 0.7817 0.0
H618 H 0.20993 0.44294 0.74789 0.0
H619 H 0.18663 0.49031 0.73907 0.0
H620 H 0.1737 0.54994 0.81304 0.0
H621 H 0.19753 0.51612 0.8463 0.0
C622 C 0.2192 0.46367 0.83153 0.0
C623 C 0.22929 0.43647 0.82096 0.0
C624 C 0.20568 0.48337 0.81222 0.0
C625 C 0.22561 0.42942 0.79057 0.0
C626 C 0.21236 0.44903 0.77118 0.0
C627 C 0.18871 0.49591 0.76247 0.0
C628 C 0.17834 0.52299 0.77324 0.0
C629 C 0.20224 0.47608 0.78176 0.0
C630 C 0.18177 0.52969 0.80375 0.0
C631 C 0.1953 0.5102 0.82296 0.0
H632 H 0.51257 0.22453 0.80959 0.0
H633 H 0.54432 0.18668 0.89086 0.0
H634 H 0.50561 0.14755 0.88672 0.0
H635 H 0.46395 0.12269 0.85913 0.0
H636 H 0.43056 0.16083 0.77904 0.0
H637 H 0.46855 0.20118 0.78357 0.0
C638 C 0.51086 0.20787 0.82652 0.0
C639 C 0.53154 0.20854 0.85037 0.0
C640 C 0.48837 0.1853 0.8241 0.0
C641 C 0.52881 0.18681 0.87221 0.0
C642 C 0.50672 0.16427 0.86983 0.0
C643 C 0.46515 0.13979 0.84263 0.0
C644 C 0.44484 0.13866 0.81859 0.0
C645 C 0.48668 0.16304 0.84568 0.0
C646 C 0.44606 0.1613 0.79771 0.0
C647 C 0.46777 0.1843 0.80029 0.0
H648 H 0.73769 0.52398 0.81314 0.0
H649 H 0.80509 0.55636 0.87591 0.0
H650 H 0.83994 0.51989 0.858 0.0
H651 H 0.85048 0.47747 0.82606 0.0
H652 H 0.78374 0.44535 0.76232 0.0
H653 H 0.74955 0.48316 0.77875 0.0
C654 C 0.75998 0.52292 0.82289 0.0
C655 C 0.76872 0.54268 0.846 0.0
C656 C 0.78004 0.50204 0.81222 0.0
C657 C 0.79789 0.54149 0.85806 0.0
C658 C 0.81778 0.52058 0.84787 0.0
C659 C 0.82855 0.47887 0.81555 0.0
C660 C 0.81966 0.45848 0.79308 0.0
C661 C 0.80902 0.50061 0.82514 0.0
C662 C 0.79124 0.46081 0.77957 0.0
C663 C 0.77158 0.48232 0.7891 0.0
H664 H 0.58326 0.78381 0.79224 0.0
H665 H 0.53426 0.84649 0.74197 0.0
H666 H 0.48652 0.82416 0.75883 0.0
H667 H 0.45913 0.79059 0.79195 0.0
H668 H 0.50799 0.73043 0.84552 0.0
H669 H 0.55531 0.74742 0.82257 0.0
C670 C 0.56213 0.79213 0.78439 0.0
C671 C 0.5623 0.81675 0.76578 0.0
C672 C 0.53477 0.77983 0.79504 0.0
C673 C 0.53472 0.82758 0.75627 0.0
C674 C 0.50743 0.8149 0.76601 0.0
C675 C 0.48006 0.78087 0.79841 0.0
C676 C 0.48002 0.75932 0.82056 0.0
C677 C 0.50724 0.79159 0.78606 0.0
C678 C 0.50742 0.74719 0.82872 0.0
C679 C 0.53449 0.75702 0.81572 0.0
H680 H 0.23982 0.21673 0.57486 0.0
H681 H 0.18662 0.28648 0.54151 0.0
H682 H 0.20251 0.27498 0.49077 0.0
H683 H 0.23013 0.24421 0.45572 0.0
H684 H 0.28002 0.17181 0.48828 0.0
H685 H 0.26688 0.18523 0.53947 0.0
C686 C 0.23193 0.22961 0.55652 0.0
C687 C 0.21224 0.25268 0.56207 0.0
C688 C 0.2405 0.2223 0.52725 0.0
C689 C 0.2018 0.26872 0.53793 0.0
C690 C 0.21089 0.26213 0.5089 0.0
C691 C 0.23843 0.2315 0.47401 0.0
C692 C 0.25638 0.20718 0.46813 0.0
C693 C 0.23007 0.23886 0.50327 0.0
C694 C 0.26633 0.19066 0.49213 0.0
C695 C 0.25878 0.19834 0.52141 0.0
H696 H 0.86161 0.11286 0.52428 0.0
H697 H 0.7843 0.16506 0.50858 0.0
H698 H 0.8077 0.18453 0.46347 0.0
H699 H 0.84965 0.18559 0.42785 0.0
H700 H 0.9271 0.13361 0.44429 0.0
H701 H 0.90386 0.11477 0.4895 0.0
C702 C 0.84973 0.12826 0.51086 0.0
C703 C 0.82113 0.13732 0.5197 0.0
C704 C 0.86333 0.13935 0.48504 0.0
C705 C 0.80638 0.15786 0.50238 0.0
C706 C 0.81972 0.16891 0.47653 0.0
C707 C 0.86166 0.17046 0.44149 0.0
C708 C 0.89012 0.161 0.43252 0.0
C709 C 0.84818 0.15976 0.46761 0.0
C710 C 0.90504 0.14098 0.45035 0.0
C711 C 0.89182 0.13027 0.47631 0.0
H712 H 0.78072 0.77849 0.4591 0.0
H713 H 0.73696 0.85407 0.49484 0.0
H714 H 0.75231 0.841 0.54515 0.0
H715 H 0.77991 0.8094 0.57866 0.0
H716 H 0.82753 0.73621 0.54276 0.0
H717 H 0.80905 0.74704 0.49281 0.0
C718 C 0.77413 0.79181 0.47799 0.0
C719 C 0.75726 0.81698 0.47332 0.0
C720 C 0.784 0.78473 0.50675 0.0
C721 C 0.74967 0.83449 0.49789 0.0
C722 C 0.75853 0.82706 0.52663 0.0
C723 C 0.78607 0.79561 0.55997 0.0
C724 C 0.80493 0.77183 0.56455 0.0
C725 C 0.77596 0.80242 0.53128 0.0
C726 C 0.81305 0.75458 0.53992 0.0
C727 C 0.80244 0.76076 0.51136 0.0
H728 H 0.15889 0.82997 0.41656 0.0
H729 H 0.09141 0.87229 0.46848 0.0
H730 H 0.12997 0.88809 0.5054 0.0
H731 H 0.18343 0.8901 0.52221 0.0
H732 H 0.25054 0.85022 0.4676 0.0
H733 H 0.21157 0.83288 0.43233 0.0
C734 C 0.15256 0.84238 0.43609 0.0
C735 C 0.12234 0.84965 0.44006 0.0
C736 C 0.17485 0.85193 0.4565 0.0
C737 C 0.11455 0.86637 0.46513 0.0
C738 C 0.13657 0.87538 0.48612 0.0
C739 C 0.18934 0.87767 0.5025 0.0
C740 C 0.2197 0.87143 0.49736 0.0
C741 C 0.16685 0.86838 0.48194 0.0
C742 C 0.22735 0.85554 0.47172 0.0
C743 C 0.2051 0.84557 0.45165 0.0
H744 H 0.68573 0.98773 0.73152 0.0
H745 H 0.60273 0.99322 0.68204 0.0
H746 H 0.62657 0.02884 0.64891 0.0
H747 H 0.67074 0.05846 0.63386 0.0
H748 H 0.7537 0.05485 0.68375 0.0
H749 H 0.73031 0.01819 0.71658 0.0
C750 C 0.67296 0.99669 0.71342 0.0
C751 C 0.64244 0.9879 0.70939 0.0
C752 C 0.68685 0.01735 0.69441 0.0
C753 C 0.62607 0.99993 0.686 0.0
C754 C 0.63976 0.02014 0.66686 0.0
C755 C 0.68384 0.04951 0.65175 0.0
C756 C 0.714 0.05921 0.6562 0.0
C757 C 0.67011 0.02898 0.67083 0.0
C758 C 0.73046 0.04768 0.6798 0.0
C759 C 0.71708 0.02677 0.6986 0.0
H760 H 0.96733 0.66636 0.65639 0.0
H761 H 0.97491 0.75615 0.68769 0.0
H762 H 0.01961 0.74495 0.71701 0.0
H763 H 0.05811 0.71006 0.7316 0.0
H764 H 0.04959 0.61998 0.70054 0.0
H765 H 1.00368 0.63082 0.67354 0.0
C766 C 0.97883 0.6835 0.66954 0.0
C767 C 0.96802 0.71217 0.66953 0.0
C768 C 1.00434 0.6768 0.68649 0.0
C769 C 0.98277 0.73395 0.68731 0.0
C770 C 0.00837 0.72754 0.70401 0.0
C771 C 0.04605 0.69268 0.71922 0.0
C772 C 0.05756 0.66423 0.71807 0.0
C773 C 0.01957 0.69909 0.70353 0.0
C774 C 0.04143 0.64206 0.70192 0.0
C775 C 0.01517 0.64827 0.68629 0.0
H776 H 0.29737 0.03747 0.70163 0.0
H777 H 0.32203 0.98762 0.77823 0.0
H778 H 0.30078 0.94271 0.75456 0.0
H779 H 0.27829 0.91722 0.71069 0.0
H780 H 0.25369 0.96756 0.63433 0.0
H781 H 0.27154 0.01273 0.65957 0.0
C782 C 0.29827 0.01677 0.71314 0.0
C783 C 0.31171 0.01585 0.74149 0.0
C784 C 0.2859 0.99113 0.69949 0.0
C785 C 0.31209 0.98891 0.75628 0.0
C786 C 0.29992 0.96322 0.74276 0.0
C787 C 0.2762 0.93812 0.69979 0.0
C788 C 0.26468 0.93894 0.67058 0.0
C789 C 0.28705 0.96402 0.71423 0.0
C790 C 0.26247 0.96625 0.65676 0.0
C791 C 0.27287 0.99209 0.6711 0.0
H792 H 0.02705 0.33694 0.63845 0.0
H793 H 0.08529 0.32202 0.71339 0.0
H794 H 0.04682 0.33906 0.74724 0.0
H795 H 0.99623 0.35744 0.75584 0.0
H796 H 0.93873 0.37406 0.68082 0.0
H797 H 0.97733 0.35729 0.64693 0.0
C798 C 0.03156 0.33768 0.66213 0.0
C799 C 0.05915 0.32792 0.67316 0.0
C800 C 0.00935 0.34779 0.6816 0.0
C801 C 0.06419 0.3288 0.70409 0.0
C802 C 0.04221 0.33877 0.72356 0.0
C803 C 0.99219 0.35779 0.7321 0.0
C804 C 0.96433 0.36693 0.72109 0.0
C805 C 0.01464 0.34821 0.71259 0.0
C806 C 0.95961 0.36675 0.69012 0.0
C807 C 0.98181 0.35728 0.67063 0.0
H808 H 0.69452 0.94617 0.34062 0.0
H809 H 0.7567 0.01042 0.38067 0.0
H810 H 0.73131 0.04971 0.35573 0.0
H811 H 0.69074 0.06621 0.32359 0.0
H812 H 0.62913 1.00214 0.28236 0.0
H813 H 0.6549 0.96269 0.30672 0.0
C814 C 0.70278 0.9687 0.34364 0.0
C815 C 0.72752 0.97514 0.36277 0.0
C816 C 0.688 0.9914 0.32913 0.0
C817 C 0.73752 1.00467 0.36655 0.0
C818 C 0.72305 0.02724 0.35215 0.0
C819 C 0.68305 0.04367 0.31955 0.0
C820 C 0.65777 0.03747 0.30106 0.0
C821 C 0.69813 0.02092 0.33355 0.0
C822 C 0.64812 0.00788 0.2967 0.0
C823 C 0.66302 0.98517 0.31054 0.0
H824 H 0.91252 0.70815 0.28822 0.0
H825 H 0.97005 0.63402 0.29174 0.0
H826 H 0.01291 0.66676 0.30575 0.0
H827 H 0.03324 0.71627 0.32008 0.0
H828 H 0.97442 0.78957 0.31769 0.0
H829 H 0.93301 0.75727 0.30029 0.0
C830 C 0.93451 0.6991 0.2915 0.0
C831 C 0.938 0.66862 0.28889 0.0
C832 C 0.95878 0.71788 0.30034 0.0
C833 C 0.96671 0.6574 0.29353 0.0
C834 C 0.99119 0.67609 0.30177 0.0
C835 C 0.01131 0.72511 0.31589 0.0
C836 C 0.00697 0.7553 0.32045 0.0
C837 C 0.98733 0.70631 0.3059 0.0
C838 C 0.97845 0.76643 0.3146 0.0
C839 C 0.95468 0.74797 0.30458 0.0
H840 H 0.34211 0.9887 0.27536 0.0
H841 H 0.33716 0.93145 0.35093 0.0
H842 H 0.31439 0.96992 0.38047 0.0
H843 H 0.29527 0.01971 0.38506 0.0
H844 H 0.30041 0.07737 0.30999 0.0
H845 H 0.32388 0.03915 0.28038 0.0
C846 C 0.33612 0.98463 0.29831 0.0
C847 C 0.3414 0.95704 0.31075 0.0
C848 C 0.32305 0.00703 0.3154 0.0
C849 C 0.33352 0.95237 0.34064 0.0
C850 C 0.32039 0.9744 0.35762 0.0
C851 C 0.30135 0.0239 0.36218 0.0
C852 C 0.29591 0.05149 0.34985 0.0
C853 C 0.31491 1.00177 0.34524 0.0
C854 C 0.30452 0.05655 0.32024 0.0
C855 C 0.31782 0.03459 0.3032 0.0
H856 H 0.0861 0.31167 0.30117 0.0
H857 H 0.02685 0.37728 0.26961 0.0
H858 H 0.98328 0.34956 0.29007 0.0
H859 H 0.96216 0.30527 0.31566 0.0
H860 H 0.02348 0.24225 0.34951 0.0
H861 H 0.06611 0.27078 0.33012 0.0
C862 C 0.06366 0.31993 0.29867 0.0
C863 C 0.05961 0.34619 0.28345 0.0
C864 C 0.0391 0.30448 0.31127 0.0
C865 C 0.03046 0.35691 0.28099 0.0
C866 C 0.0056 0.34112 0.29278 0.0
C867 C 0.98488 0.29812 0.31926 0.0
C868 C 0.98949 0.27146 0.33387 0.0
C869 C 0.00964 0.31475 0.30792 0.0
C870 C 0.01915 0.26251 0.33821 0.0
C871 C 0.04363 0.27874 0.32699 0.0
H872 H 0.74098 0.72612 0.97462 0.0
H873 H 0.72422 0.63248 0.98171 0.0
H874 H 0.70178 0.63958 0.03045 0.0
H875 H 0.68362 0.67225 0.06943 0.0
H876 H 0.70032 0.76584 0.06356 0.0
H877 H 0.72606 0.75886 0.01597 0.0
C878 C 0.73289 0.70721 0.98701 0.0
C879 C 0.73418 0.67877 0.97428 0.0
C880 C 0.7196 0.71146 0.01508 0.0
C881 C 0.72348 0.6546 0.99077 0.0
C882 C 0.71048 0.65864 0.01866 0.0
C883 C 0.69288 0.69119 0.05778 0.0
C884 C 0.68963 0.71959 0.06983 0.0
C885 C 0.70779 0.68697 0.03069 0.0
C886 C 0.70233 0.74378 0.0547 0.0
C887 C 0.71705 0.73977 0.02749 0.0
H888 H 0.32381 0.70075 0.05262 0.0
H889 H 0.25686 0.66384 0.9917 0.0
H890 H 0.28409 0.68542 0.94988 0.0
H891 H 0.32595 0.7157 0.93084 0.0
H892 H 0.39436 0.75126 0.9913 0.0
H893 H 0.36718 0.72978 0.03305 0.0
C894 C 0.31519 0.69757 0.03019 0.0
C895 C 0.28835 0.68072 0.0253 0.0
C896 C 0.33109 0.70993 1.00617 0.0
C897 C 0.27763 0.67641 0.99606 0.0
C898 C 0.29311 0.68889 0.97214 0.0
C899 C 0.33534 0.71854 0.95297 0.0
C900 C 0.36232 0.73536 0.95759 0.0
C901 C 0.31983 0.70573 0.97694 0.0
C902 C 0.37351 0.73892 0.98683 0.0
C903 C 0.35803 0.72646 0.01083 0.0
H904 H 0.30628 0.31229 0.95274 0.0
H905 H 0.21534 0.2885 0.97898 0.0
H906 H 0.23314 0.27499 0.02795 0.0
H907 H 0.27406 0.26996 0.06371 0.0
H908 H 0.36567 0.29169 0.03837 0.0
H909 H 0.34826 0.30541 0.98883 0.0
C910 C 0.29042 0.30434 0.96929 0.0
C911 C 0.25943 0.30164 0.96215 0.0
C912 C 0.30096 0.29589 0.99756 0.0
C913 C 0.23926 0.29084 0.98375 0.0
C914 C 0.24943 0.28303 0.01184 0.0
C915 C 0.29035 0.27751 0.04735 0.0
C916 C 0.32118 0.27976 0.05492 0.0
C917 C 0.28018 0.28537 0.01899 0.0
C918 C 0.34183 0.28952 0.03322 0.0
C919 C 0.33183 0.29758 1.00489 0.0
H920 H 0.73437 0.30634 0.063 0.0
H921 H 0.74503 0.38051 1.00488 0.0
H922 H 0.71088 0.35617 0.96876 0.0
H923 H 0.67877 0.31343 0.9534 0.0
H924 H 0.671 0.23831 0.01071 0.0
H925 H 0.7035 0.2635 0.04733 0.0
C926 C 0.72966 0.31716 0.04233 0.0
C927 C 0.7426 0.34523 0.03672 0.0
C928 C 0.71047 0.30285 0.02145 0.0
C929 C 0.73532 0.35906 0.01002 0.0
C930 C 0.71591 0.34505 0.98922 0.0
C931 C 0.68437 0.30235 0.9737 0.0
C932 C 0.67224 0.27388 0.97912 0.0
C933 C 0.70351 0.31684 0.99463 0.0
C934 C 0.67951 0.26028 1.00595 0.0
C935 C 0.6983 0.27463 0.02692 0.0
H936 H 0.13405 0.3203 0.32727 0.0
H937 H 0.20691 0.35768 0.38132 0.0
H938 H 0.22061 0.30844 0.39562 0.0
H939 H 0.21441 0.25485 0.38944 0.0
H940 H 0.14111 0.21761 0.33648 0.0
H941 H 0.12442 0.26712 0.32552 0.0
C942 C 0.15245 0.31805 0.34276 0.0
C943 C 0.16963 0.34302 0.35284 0.0
C944 C 0.1602 0.28966 0.35089 0.0
C945 C 0.19362 0.33901 0.37271 0.0
C946 C 0.20145 0.31084 0.38096 0.0
C947 C 0.19471 0.25767 0.3756 0.0
C948 C 0.17925 0.23283 0.36325 0.0
C949 C 0.18539 0.28603 0.36954 0.0
C950 C 0.15332 0.23653 0.34603 0.0
C951 C 0.14392 0.26476 0.33974 0.0
H952 H 0.79943 0.18121 0.35445 0.0
H953 H 0.82019 0.25663 0.30047 0.0
H954 H 0.76737 0.25744 0.28439 0.0
H955 H 0.71696 0.23271 0.2811 0.0
H956 H 0.69725 0.15661 0.33478 0.0
H957 H 0.74787 0.16042 0.35597 0.0
C958 C 0.79228 0.19814 0.33955 0.0
C959 C 0.81366 0.21863 0.32839 0.0
C960 C 0.76208 0.19826 0.33028 0.0
C961 C 0.80409 0.24066 0.3094 0.0
C962 C 0.77394 0.24099 0.30007 0.0
C963 C 0.72347 0.21737 0.29795 0.0
C964 C 0.70335 0.19419 0.30607 0.0
C965 C 0.75293 0.21935 0.30971 0.0
C966 C 0.71227 0.17452 0.32793 0.0
C967 C 0.74129 0.1766 0.33999 0.0
H968 H 0.88332 0.70366 0.34363 0.0
H969 H 0.84889 0.6819 0.43045 0.0
H970 H 0.84018 0.73383 0.44045 0.0
H971 H 0.83779 0.78441 0.42246 0.0
H972 H 0.87009 0.80505 0.33463 0.0
H973 H 0.88526 0.75455 0.32759 0.0
C974 C 0.87467 0.71011 0.3651 0.0
C975 C 0.86661 0.68863 0.38623 0.0
C976 C 0.86935 0.73989 0.37051 0.0
C977 C 0.85492 0.69782 0.41367 0.0
C978 C 0.85 0.72753 0.4194 0.0
C979 C 0.84842 0.77794 0.40187 0.0
C980 C 0.85236 0.79852 0.37895 0.0
C981 C 0.85636 0.74862 0.39764 0.0
C982 C 0.86686 0.78988 0.35271 0.0
C983 C 0.87534 0.76088 0.34857 0.0
H984 H 0.28583 0.77414 0.32197 0.0
H985 H 0.29891 0.85032 0.37923 0.0
H986 H 0.24513 0.8497 0.38999 0.0
H987 H 0.19421 0.83225 0.37709 0.0
H988 H 0.17973 0.75587 0.32047 0.0
H989 H 0.23448 0.75143 0.31567 0.0
C990 C 0.27703 0.78994 0.33758 0.0
C991 C 0.2962 0.81257 0.34948 0.0
C992 C 0.24589 0.78962 0.34338 0.0
C993 C 0.28445 0.83302 0.36953 0.0
C994 C 0.25373 0.83269 0.37563 0.0
C995 C 0.20298 0.81414 0.36433 0.0
C996 C 0.18307 0.79457 0.34895 0.0
C997 C 0.23417 0.81186 0.36172 0.0
C998 C 0.19471 0.7712 0.3325 0.0
C999 C 0.22596 0.76879 0.32965 0.0
H1000 H 0.22762 0.69811 0.64725 0.0
H1001 H 0.1335 0.71634 0.65525 0.0
H1002 H 0.14404 0.76745 0.64146 0.0
H1003 H 0.18046 0.80744 0.62924 0.0
H1004 H 0.27496 0.78918 0.62267 0.0
H1005 H 0.26386 0.73775 0.63376 0.0
C1006 C 0.20941 0.71317 0.6454 0.0
C1007 C 0.17984 0.70352 0.65211 0.0
C1008 C 0.21576 0.74263 0.63807 0.0
C1009 C 0.15646 0.72339 0.65025 0.0
C1010 C 0.16249 0.75258 0.64244 0.0
C1011 C 0.19863 0.79222 0.6302 0.0
C1012 C 0.22849 0.80229 0.62523 0.0
C1013 C 0.19214 0.76257 0.63673 0.0
C1014 C 0.25174 0.78216 0.6265 0.0
C1015 C 0.24544 0.75266 0.63278 0.0
H1016 H 0.26748 0.12711 0.70051 0.0
H1017 H 0.23222 0.14663 0.78709 0.0
H1018 H 0.18447 0.16095 0.76471 0.0
H1019 H 0.15632 0.17442 0.71977 0.0
H1020 H 0.19218 0.15472 0.63329 0.0
H1021 H 0.2359 0.13285 0.65616 0.0
C1022 C 0.24909 0.13421 0.71433 0.0
C1023 C 0.25322 0.13667 0.74516 0.0
C1024 C 0.22191 0.14203 0.70129 0.0
C1025 C 0.22933 0.14509 0.76322 0.0
C1026 C 0.20217 0.15319 0.75043 0.0
C1027 C 0.1731 0.16424 0.70603 0.0
C1028 C 0.17128 0.16624 0.67492 0.0
C1029 C 0.19857 0.15256 0.71939 0.0
C1030 C 0.19333 0.15336 0.65728 0.0
C1031 C 0.21841 0.14121 0.67033 0.0
H1032 H 0.82462 0.23673 0.63069 0.0
H1033 H 0.7712 0.19036 0.69615 0.0
H1034 H 0.7714 0.23443 0.72764 0.0
H1035 H 0.78602 0.28626 0.73627 0.0
H1036 H 0.84187 0.33219 0.67252 0.0
H1037 H 0.84111 0.28826 0.64041 0.0
C1038 C 0.81336 0.23619 0.65203 0.0
C1039 C 0.79815 0.21023 0.66115 0.0
C1040 C 0.81363 0.26163 0.6701 0.0
C1041 C 0.78355 0.20988 0.68881 0.0
C1042 C 0.78337 0.23517 0.70671 0.0
C1043 C 0.79778 0.28678 0.71521 0.0
C1044 C 0.81364 0.31255 0.70655 0.0
C1045 C 0.7981 0.26122 0.69745 0.0
C1046 C 0.8293 0.31266 0.67951 0.0
C1047 C 0.829 0.28753 0.66125 0.0
H1048 H 0.80092 0.81773 0.71749 0.0
H1049 H 0.80775 0.87322 0.64088 0.0
H1050 H 0.75826 0.89244 0.65169 0.0
H1051 H 0.71137 0.89079 0.68103 0.0
H1052 H 0.70473 0.83436 0.75715 0.0
H1053 H 0.75543 0.81771 0.74801 0.0
C1054 C 0.79165 0.83422 0.70332 0.0
C1055 C 0.80798 0.84391 0.6784 0.0
C1056 C 0.76292 0.84457 0.70924 0.0
C1057 C 0.79588 0.86559 0.66042 0.0
C1058 C 0.76737 0.87631 0.66637 0.0
C1059 C 0.72099 0.87476 0.69552 0.0
C1060 C 0.70414 0.86361 0.71954 0.0
C1061 C 0.75039 0.86546 0.69034 0.0
C1062 C 0.71713 0.84321 0.73842 0.0
C1063 C 0.74617 0.83373 0.73328 0.0
H1064 H 0.27781 0.16987 0.27262 0.0
H1065 H 0.33216 0.21529 0.33994 0.0
H1066 H 0.35868 0.24327 0.30144 0.0
H1067 H 0.36531 0.25585 0.24898 0.0
H1068 H 0.31066 0.21081 0.18167 0.0
H1069 H 0.28534 0.18157 0.22002 0.0
C1070 C 0.29554 0.1858 0.27896 0.0
C1071 C 0.30291 0.1905 0.30924 0.0
C1072 C 0.31055 0.20193 0.25673 0.0
C1073 C 0.32601 0.2112 0.31689 0.0
C1074 C 0.34114 0.22725 0.29487 0.0
C1075 C 0.34791 0.2396 0.2426 0.0
C1076 C 0.33984 0.23564 0.21241 0.0
C1077 C 0.33341 0.22297 0.26476 0.0
C1078 C 0.31731 0.21437 0.20467 0.0
C1079 C 0.30281 0.19766 0.22661 0.0
H1080 H 0.90409 0.19748 0.19628 0.0
H1081 H 0.9661 0.2602 0.23881 0.0
H1082 H 0.96335 0.29228 0.19608 0.0
H1083 H 0.93554 0.30646 0.15135 0.0
H1084 H 0.87347 0.24387 0.10912 0.0
H1085 H 0.88467 0.20743 0.14636 0.0
C1086 C 0.91782 0.21764 0.19579 0.0
C1087 C 0.93452 0.22685 0.22109 0.0
C1088 C 0.91589 0.23616 0.17122 0.0
C1089 C 0.95232 0.25304 0.21995 0.0
C1090 C 0.95079 0.2714 0.19552 0.0
C1091 C 0.9254 0.28445 0.14982 0.0
C1092 C 0.90366 0.2779 0.12775 0.0
C1093 C 0.93145 0.26386 0.17173 0.0
C1094 C 0.8905 0.24936 0.12579 0.0
C1095 C 0.8966 0.22862 0.14733 0.0
H1096 H 0.64139 0.82866 0.23592 0.0
H1097 H 0.72421 0.78565 0.21679 0.0
H1098 H 0.74354 0.79902 0.26624 0.0
H1099 H 0.7366 0.82184 0.31518 0.0
H1100 H 0.65359 0.86428 0.33501 0.0
H1101 H 0.63451 0.85179 0.28517 0.0
C1102 C 0.66385 0.82259 0.24241 0.0
C1103 C 0.68144 0.80638 0.22256 0.0
C1104 C 0.6746 0.82982 0.27117 0.0
C1105 C 0.71027 0.79823 0.23156 0.0
C1106 C 0.72128 0.80574 0.2599 0.0
C1107 C 0.71424 0.82824 0.30874 0.0
C1108 C 0.69653 0.84389 0.32897 0.0
C1109 C 0.70352 0.82123 0.27999 0.0
C1110 C 0.66767 0.85208 0.32004 0.0
C1111 C 0.6568 0.8451 0.29145 0.0
H1112 H 0.17826 0.77039 0.15977 0.0
H1113 H 0.10036 0.71151 0.15112 0.0
H1114 H 0.07202 0.74297 0.18455 0.0
H1115 H 0.07234 0.78301 0.22193 0.0
H1116 H 0.15078 0.841 0.23157 0.0
H1117 H 0.17586 0.81468 0.19156 0.0
C1118 C 0.15493 0.76477 0.16494 0.0
C1119 C 0.14148 0.73852 0.15351 0.0
C1120 C 0.13898 0.7828 0.18433 0.0
C1121 C 0.11111 0.73162 0.15974 0.0
C1122 C 0.095 0.7495 0.17896 0.0
C1123 C 0.09459 0.79028 0.21461 0.0
C1124 C 0.10981 0.81367 0.22975 0.0
C1125 C 0.10908 0.77456 0.19217 0.0
C1126 C 0.13855 0.82318 0.2201 0.0
C1127 C 0.15303 0.80789 0.19749 0.0
H1128 H 0.40641 0.8247 0.75278 0.0
H1129 H 0.34945 0.88979 0.79119 0.0
H1130 H 0.34544 0.91314 0.74293 0.0
H1131 H 0.35119 0.91016 0.68894 0.0
H1132 H 0.40208 0.84059 0.64996 0.0
H1133 H 0.41615 0.82457 0.69932 0.0
C1134 C 0.39297 0.84391 0.75069 0.0
C1135 C 0.37747 0.85487 0.77551 0.0
C1136 C 0.3897 0.85647 0.72267 0.0
C1137 C 0.36139 0.88067 0.77252 0.0
C1138 C 0.35894 0.89395 0.74486 0.0
C1139 C 0.36551 0.89157 0.69116 0.0
C1140 C 0.37461 0.87603 0.66561 0.0
C1141 C 0.37194 0.88128 0.71961 0.0
C1142 C 0.39436 0.85287 0.66902 0.0
C1143 C 0.40215 0.84342 0.69735 0.0
H1144 H 0.20401 0.28822 0.81959 0.0
H1145 H 0.16257 0.37195 0.82468 0.0
H1146 H 0.16351 0.37539 0.77045 0.0
H1147 H 0.17099 0.35199 0.72174 0.0
H1148 H 0.21031 0.26687 0.71658 0.0
H1149 H 0.21658 0.26706 0.77057 0.0
C1150 C 0.19666 0.30782 0.80886 0.0
C1151 C 0.18451 0.33041 0.82609 0.0
C1152 C 0.19659 0.30921 0.7776 0.0
C1153 C 0.17269 0.35466 0.8118 0.0
C1154 C 0.17313 0.35655 0.78082 0.0
C1155 C 0.18152 0.33372 0.73229 0.0
C1156 C 0.18995 0.30937 0.71498 0.0
C1157 C 0.1843 0.33359 0.76345 0.0
C1158 C 0.20347 0.28588 0.72923 0.0
C1159 C 0.20693 0.28588 0.76018 0.0
H1160 H 0.65433 0.15808 0.67969 0.0
H1161 H 0.71411 0.2331 0.66516 0.0
H1162 H 0.70826 0.24904 0.71682 0.0
H1163 H 0.68997 0.23879 0.76733 0.0
H1164 H 0.62941 0.16458 0.78213 0.0
H1165 H 0.63162 0.15082 0.72921 0.0
C1166 C 0.66525 0.17837 0.68776 0.0
C1167 C 0.68429 0.19457 0.66868 0.0
C1168 C 0.66218 0.18706 0.71762 0.0
C1169 C 0.69877 0.22066 0.67926 0.0
C1170 C 0.69583 0.2295 0.70892 0.0
C1171 C 0.67737 0.21963 0.75884 0.0
C1172 C 0.66013 0.20223 0.77841 0.0
C1173 C 0.67832 0.21238 0.72847 0.0
C1174 C 0.64309 0.17793 0.76729 0.0
C1175 C 0.64431 0.17019 0.73714 0.0
H1176 H 0.85018 0.73095 0.75383 0.0
H1177 H 0.79313 0.69203 0.68471 0.0
H1178 H 0.7616 0.668 0.72224 0.0
H1179 H 0.7498 0.65875 0.77438 0.0
H1180 H 0.80628 0.69793 0.84377 0.0
H1181 H 0.83858 0.72124 0.80623 0.0
C1182 C 0.83091 0.71713 0.7469 0.0
C1183 C 0.82405 0.71331 0.71642 0.0
C1184 C 0.81278 0.70353 0.76861 0.0
C1185 C 0.79895 0.69536 0.70795 0.0
C1186 C 0.78089 0.68164 0.72941 0.0
C1187 C 0.76919 0.67235 0.78141 0.0
C1188 C 0.77557 0.67661 0.81192 0.0
C1189 C 0.78753 0.68569 0.75977 0.0
C1190 C 0.80082 0.6943 0.82048 0.0
C1191 C 0.81929 0.70762 0.79902 0.0
H1192 H 0.2092 0.42401 0.18181 0.0
H1193 H 0.18419 0.34692 0.23207 0.0
H1194 H 0.23046 0.32391 0.21696 0.0
H1195 H 0.27926 0.32672 0.19206 0.0
H1196 H 0.30416 0.40334 0.141 0.0
H1197 H 0.25709 0.42558 0.15447 0.0
C1198 C 0.21364 0.40201 0.18912 0.0
C1199 C 0.19319 0.3873 0.20811 0.0
C1200 C 0.24058 0.38895 0.18067 0.0
C1201 C 0.19949 0.35884 0.21748 0.0
C1202 C 0.22605 0.34566 0.20896 0.0
C1203 C 0.27439 0.3481 0.18348 0.0
C1204 C 0.29565 0.3632 0.16558 0.0
C1205 C 0.24699 0.3607 0.19096 0.0
C1206 C 0.28876 0.39121 0.1552 0.0
C1207 C 0.26159 0.40393 0.16269 0.0
H1208 H 0.26905 0.73979 0.8364 0.0
H1209 H 0.34117 0.68815 0.80225 0.0
H1210 H 0.30452 0.65407 0.77861 0.0
H1211 H 0.25256 0.64013 0.76565 0.0
H1212 H 0.1798 0.69165 0.79829 0.0
H1213 H 0.2162 0.7244 0.82486 0.0
C1214 C 0.27675 0.721 0.82391 0.0
C1215 C 0.30791 0.71669 0.82098 0.0
C1216 C 0.25548 0.70147 0.81012 0.0
C1217 C 0.31742 0.69215 0.80478 0.0
C1218 C 0.29645 0.6726 0.79124 0.0
C1219 C 0.24451 0.6584 0.77869 0.0
C1220 C 0.21345 0.6635 0.77982 0.0
C1221 C 0.2655 0.67725 0.79348 0.0
C1222 C 0.20355 0.6872 0.79704 0.0
C1223 C 0.22439 0.706 0.81212 0.0
H1224 H 0.32024 0.2311 0.82876 0.0
H1225 H 0.22359 0.22374 0.83629 0.0
H1226 H 0.22588 0.17074 0.8432 0.0
H1227 H 0.25575 0.12729 0.8515 0.0
H1228 H 0.35242 0.1348 0.84734 0.0
H1229 H 0.35011 0.18673 0.83415 0.0
C1230 C 0.29973 0.21768 0.8312 0.0
C1231 C 0.27179 0.23115 0.83219 0.0
C1232 C 0.30134 0.18732 0.83585 0.0
C1233 C 0.24532 0.21373 0.83578 0.0
C1234 C 0.24665 0.18352 0.83979 0.0
C1235 C 0.27621 0.14035 0.84738 0.0
C1236 C 0.30425 0.12733 0.84937 0.0
C1237 C 0.27456 0.17022 0.84066 0.0
C1238 C 0.33069 0.1443 0.8445 0.0
C1239 C 0.3293 0.174 0.83741 0.0
H1240 H 0.67526 0.27797 0.80438 0.0
H1241 H 0.65345 0.34304 0.8705 0.0
H1242 H 0.70614 0.36166 0.87113 0.0
H1243 H 0.75913 0.35806 0.85351 0.0
H1244 H 0.78049 0.28824 0.79258 0.0
H1245 H 0.72751 0.2722 0.78974 0.0
C1246 C 0.6819 0.29642 0.81873 0.0
C1247 C 0.66041 0.30943 0.83702 0.0
C1248 C 0.71234 0.30564 0.82033 0.0
C1249 C 0.66955 0.33296 0.85592 0.0
C1250 C 0.69969 0.3434 0.85646 0.0
C1251 C 0.75199 0.33912 0.84004 0.0
C1252 C 0.77353 0.32407 0.82355 0.0
C1253 C 0.7214 0.32963 0.83903 0.0
C1254 C 0.76427 0.29971 0.80586 0.0
C1255 C 0.73397 0.29077 0.80399 0.0
H1256 H 0.69314 0.74853 0.88971 0.0
H1257 H 0.60358 0.71488 0.86712 0.0
H1258 H 0.58653 0.76514 0.8634 0.0
H1259 H 0.59909 0.81787 0.85919 0.0
H1260 H 0.68962 0.85046 0.87891 0.0
H1261 H 0.70377 0.80137 0.89261 0.0
C1262 C 0.66969 0.75193 0.88464 0.0
C1263 C 0.64981 0.72776 0.87825 0.0
C1264 C 0.66019 0.78077 0.88198 0.0
C1265 C 0.61955 0.73299 0.87146 0.0
C1266 C 0.60976 0.76171 0.86939 0.0
C1267 C 0.62177 0.8143 0.86704 0.0
C1268 C 0.64337 0.83779 0.86735 0.0
C1269 C 0.63019 0.7857 0.87349 0.0
C1270 C 0.67246 0.83296 0.87832 0.0
C1271 C 0.68072 0.80472 0.88577 0.0
H1272 H 0.70272 0.64881 0.23816 0.0
H1273 H 0.73783 0.65973 0.14979 0.0
H1274 H 0.78578 0.63981 0.16527 0.0
H1275 H 0.819 0.62312 0.20512 0.0
H1276 H 0.78385 0.61421 0.29398 0.0
H1277 H 0.73469 0.62924 0.27711 0.0
C1278 C 0.72063 0.64618 0.22217 0.0
C1279 C 0.71683 0.65573 0.19293 0.0
C1280 C 0.74829 0.63539 0.23142 0.0
C1281 C 0.74041 0.65269 0.17251 0.0
C1282 C 0.7678 0.64136 0.18135 0.0
C1283 C 0.80051 0.6242 0.22071 0.0
C1284 C 0.80525 0.6178 0.2508 0.0
C1285 C 0.77225 0.63329 0.21096 0.0
C1286 C 0.78099 0.61929 0.27072 0.0
C1287 C 0.75278 0.62784 0.26111 0.0
H1288 H 0.34742 0.80778 0.22876 0.0
H1289 H 0.27669 0.86814 0.21358 0.0
H1290 H 0.25135 0.83248 0.17959 0.0
H1291 H 0.24828 0.78329 0.15611 0.0
H1292 H 0.31619 0.7211 0.17569 0.0
H1293 H 0.34378 0.75827 0.20617 0.0
C1294 C 0.32673 0.81329 0.21756 0.0
C1295 C 0.31416 0.84072 0.22312 0.0
C1296 C 0.31173 0.79224 0.19913 0.0
C1297 C 0.28688 0.84727 0.2093 0.0
C1298 C 0.27239 0.82687 0.19 0.0
C1299 C 0.26928 0.778 0.16685 0.0
C1300 C 0.28041 0.74963 0.1635 0.0
C1301 C 0.28444 0.79917 0.18502 0.0
C1302 C 0.30725 0.74281 0.17799 0.0
C1303 C 0.32302 0.76406 0.19533 0.0
H1304 H 0.75047 0.28991 0.14901 0.0
H1305 H 0.82454 0.26318 0.20367 0.0
H1306 H 0.79635 0.21812 0.21618 0.0
H1307 H 0.75081 0.18603 0.21138 0.0
H1308 H 0.67599 0.2131 0.15862 0.0
H1309 H 0.70439 0.25827 0.1452 0.0
C1310 C 0.76042 0.27431 0.16376 0.0
C1311 C 0.78961 0.27998 0.17535 0.0
C1312 C 0.74409 0.24835 0.17086 0.0
C1313 C 0.8021 0.25949 0.19448 0.0
C1314 C 0.78606 0.2336 0.20155 0.0
C1315 C 0.74103 0.20164 0.19653 0.0
C1316 C 0.71173 0.19616 0.18535 0.0
C1317 C 0.75717 0.2277 0.18967 0.0
C1318 C 0.69872 0.2169 0.16702 0.0
C1319 C 0.71488 0.24266 0.15954 0.0
loop_
_geom_bond_atom_site_label_1
_geom_bond_atom_site_label_2
_geom_bond_distance
_geom_bond_site_symmetry_2
_ccdc_geom_bond_type
Cu0 N1 1.999 . S
Cu0 O6 1.974 . S
Cu0 N11 1.985 . S
Cu0 O20 1.959 . S
N1 Cu0 1.999 . S
N1 C3 1.263 . S
N1 C5 1.389 . S
N2 C3 1.358 . S
N2 C4 1.400 . S
C3 N1 1.263 . S
C3 N2 1.358 . S
C3 H9 0.930 . S
C4 N2 1.400 . S
C4 C5 1.351 . S
C4 H21 0.930 . S
C5 N1 1.389 . S
C5 C4 1.351 . S
C5 H10 0.930 . S
O6 Cu0 1.974 . S
O6 C16 1.282 . S
C7 O8 1.261 . S
C7 O20 1.251 . S
O8 C7 1.261 . S
H9 C3 0.930 . S
H10 C5 0.930 . S
N11 Cu0 1.985 . S
N11 C13 1.335 . S
N11 C14 1.390 . S
N12 C13 1.345 . S
N12 C15 1.336 . S
C13 N11 1.335 . S
C13 N12 1.345 . S
C13 H18 0.930 . S
C14 N11 1.390 . S
C14 C15 1.346 . S
C14 H19 0.930 . S
C15 N12 1.336 . S
C15 C14 1.346 . S
C15 H22 0.929 . S
C16 O6 1.282 . S
C16 O17 1.216 . S
O17 C16 1.216 . S
H18 C13 0.930 . S
H19 C14 0.930 . S
O20 Cu0 1.959 . S
O20 C7 1.251 . S
H21 C4 0.930 . S
H22 C15 0.929 . S
Cu23 N24 1.999 . S
Cu23 O29 1.974 . S
Cu23 N34 1.985 . S
Cu23 O43 1.959 . S
N24 Cu23 1.999 . S
N24 C26 1.263 . S
N24 C28 1.389 . S
N25 C26 1.358 . S
N25 C27 1.400 . S
C26 N24 1.263 . S
C26 N25 1.358 . S
C26 H32 0.930 . S
C27 N25 1.400 . S
C27 C28 1.351 . S
C27 H44 0.930 . S
C28 N24 1.389 . S
C28 C27 1.351 . S
C28 H33 0.930 . S
O29 Cu23 1.974 . S
O29 C39 1.282 . S
C30 O31 1.261 . S
C30 O43 1.251 . S
O31 C30 1.261 . S
H32 C26 0.930 . S
H33 C28 0.930 . S
N34 Cu23 1.985 . S
N34 C36 1.335 . S
N34 C37 1.390 . S
N35 C36 1.345 . S
N35 C38 1.336 . S
C36 N34 1.335 . S
C36 N35 1.345 . S
C36 H41 0.930 . S
C37 N34 1.390 . S
C37 C38 1.346 . S
C37 H42 0.930 . S
C38 N35 1.336 . S
C38 C37 1.346 . S
C38 H45 0.929 . S
C39 O29 1.282 . S
C39 O40 1.216 . S
O40 C39 1.216 . S
H41 C36 0.930 . S
H42 C37 0.930 . S
O43 Cu23 1.959 . S
O43 C30 1.251 . S
H44 C27 0.930 . S
H45 C38 0.929 . S
Cu46 N47 1.999 . S
Cu46 O52 1.974 . S
Cu46 N57 1.985 . S
Cu46 O66 1.959 . S
N47 Cu46 1.999 . S
N47 C49 1.263 . S
N47 C51 1.389 . S
N48 C49 1.358 . S
N48 C50 1.400 . S
C49 N47 1.263 . S
C49 N48 1.358 . S
C49 H55 0.930 . S
C50 N48 1.400 . S
C50 C51 1.351 . S
C50 H67 0.930 . S
C51 N47 1.389 . S
C51 C50 1.351 . S
C51 H56 0.930 . S
O52 Cu46 1.974 . S
O52 C62 1.282 . S
C53 O54 1.261 . S
C53 O66 1.251 . S
O54 C53 1.261 . S
H55 C49 0.930 . S
H56 C51 0.930 . S
N57 Cu46 1.985 . S
N57 C59 1.335 . S
N57 C60 1.390 . S
N58 C59 1.345 . S
N58 C61 1.336 . S
C59 N57 1.335 . S
C59 N58 1.345 . S
C59 H64 0.930 . S
C60 N57 1.390 . S
C60 C61 1.346 . S
C60 H65 0.930 . S
C61 N58 1.336 . S
C61 C60 1.346 . S
C61 H68 0.929 . S
C62 O52 1.282 . S
C62 O63 1.216 . S
O63 C62 1.216 . S
H64 C59 0.930 . S
H65 C60 0.930 . S
O66 Cu46 1.959 . S
O66 C53 1.251 . S
H67 C50 0.930 . S
H68 C61 0.929 . S
Cu69 N70 1.999 . S
Cu69 O75 1.974 . S
Cu69 N80 1.985 . S
Cu69 O89 1.959 . S
N70 Cu69 1.999 . S
N70 C72 1.263 . S
N70 C74 1.389 . S
N71 C72 1.358 . S
N71 C73 1.400 . S
C72 N70 1.263 . S
C72 N71 1.358 . S
C72 H78 0.930 . S
C73 N71 1.400 . S
C73 C74 1.351 . S
C73 H90 0.930 . S
C74 N70 1.389 . S
C74 C73 1.351 . S
C74 H79 0.930 . S
O75 Cu69 1.974 . S
O75 C85 1.282 . S
C76 O77 1.261 . S
C76 O89 1.251 . S
O77 C76 1.261 . S
H78 C72 0.930 . S
H79 C74 0.930 . S
N80 Cu69 1.985 . S
N80 C82 1.335 . S
N80 C83 1.390 . S
N81 C82 1.345 . S
N81 C84 1.336 . S
C82 N80 1.335 . S
C82 N81 1.345 . S
C82 H87 0.930 . S
C83 N80 1.390 . S
C83 C84 1.346 . S
C83 H88 0.930 . S
C84 N81 1.336 . S
C84 C83 1.346 . S
C84 H91 0.929 . S
C85 O75 1.282 . S
C85 O86 1.216 . S
O86 C85 1.216 . S
H87 C82 0.930 . S
H88 C83 0.930 . S
O89 Cu69 1.959 . S
O89 C76 1.251 . S
H90 C73 0.930 . S
H91 C84 0.929 . S
Cu92 N93 1.999 . S
Cu92 O98 1.974 . S
Cu92 N103 1.985 . S
Cu92 O112 1.959 . S
N93 Cu92 1.999 . S
N93 C95 1.263 . S
N93 C97 1.389 . S
N94 C95 1.358 . S
N94 C96 1.400 . S
C95 N93 1.263 . S
C95 N94 1.358 . S
C95 H101 0.930 . S
C96 N94 1.400 . S
C96 C97 1.351 . S
C96 H113 0.930 . S
C97 N93 1.389 . S
C97 C96 1.351 . S
C97 H102 0.930 . S
O98 Cu92 1.974 . S
O98 C108 1.282 . S
C99 O100 1.261 . S
C99 O112 1.251 . S
O100 C99 1.261 . S
H101 C95 0.930 . S
H102 C97 0.930 . S
N103 Cu92 1.985 . S
N103 C105 1.335 . S
N103 C106 1.390 . S
N104 C105 1.345 . S
N104 C107 1.336 . S
C105 N103 1.335 . S
C105 N104 1.345 . S
C105 H110 0.930 . S
C106 N103 1.390 . S
C106 C107 1.346 . S
C106 H111 0.930 . S
C107 N104 1.336 . S
C107 C106 1.346 . S
C107 H114 0.929 . S
C108 O98 1.282 . S
C108 O109 1.216 . S
O109 C108 1.216 . S
H110 C105 0.930 . S
H111 C106 0.930 . S
O112 Cu92 1.959 . S
O112 C99 1.251 . S
H113 C96 0.930 . S
H114 C107 0.929 . S
Cu115 N116 1.999 . S
Cu115 O121 1.974 . S
Cu115 N126 1.985 . S
Cu115 O135 1.959 . S
N116 Cu115 1.999 . S
N116 C118 1.263 . S
N116 C120 1.389 . S
N117 C118 1.358 . S
N117 C119 1.400 . S
C118 N116 1.263 . S
C118 N117 1.358 . S
C118 H124 0.930 . S
C119 N117 1.400 . S
C119 C120 1.351 . S
C119 H136 0.930 . S
C120 N116 1.389 . S
C120 C119 1.351 . S
C120 H125 0.930 . S
O121 Cu115 1.974 . S
O121 C131 1.282 . S
C122 O123 1.261 . S
C122 O135 1.251 . S
O123 C122 1.261 . S
H124 C118 0.930 . S
H125 C120 0.930 . S
N126 Cu115 1.985 . S
N126 C128 1.335 . S
N126 C129 1.390 . S
N127 C128 1.345 . S
N127 C130 1.336 . S
C128 N126 1.335 . S
C128 N127 1.345 . S
C128 H133 0.930 . S
C129 N126 1.390 . S
C129 C130 1.346 . S
C129 H134 0.930 . S
C130 N127 1.336 . S
C130 C129 1.346 . S
C130 H137 0.929 . S
C131 O121 1.282 . S
C131 O132 1.216 . S
O132 C131 1.216 . S
H133 C128 0.930 . S
H134 C129 0.930 . S
O135 Cu115 1.959 . S
O135 C122 1.251 . S
H136 C119 0.930 . S
H137 C130 0.929 . S
Cu138 N139 1.999 . S
Cu138 O144 1.974 . S
Cu138 N149 1.985 . S
Cu138 O158 1.959 . S
N139 Cu138 1.999 . S
N139 C141 1.263 . S
N139 C143 1.389 . S
N140 C141 1.358 . S
N140 C142 1.400 . S
C141 N139 1.263 . S
C141 N140 1.358 . S
C141 H147 0.930 . S
C142 N140 1.400 . S
C142 C143 1.351 . S
C142 H159 0.930 . S
C143 N139 1.389 . S
C143 C142 1.351 . S
C143 H148 0.930 . S
O144 Cu138 1.974 . S
O144 C154 1.282 . S
C145 O146 1.261 . S
C145 O158 1.251 . S
O146 C145 1.261 . S
H147 C141 0.930 . S
H148 C143 0.930 . S
N149 Cu138 1.985 . S
N149 C151 1.335 . S
N149 C152 1.390 . S
N150 C151 1.345 . S
N150 C153 1.336 . S
C151 N149 1.335 . S
C151 N150 1.345 . S
C151 H156 0.930 . S
C152 N149 1.390 . S
C152 C153 1.346 . S
C152 H157 0.930 . S
C153 N150 1.336 . S
C153 C152 1.346 . S
C153 H160 0.929 . S
C154 O144 1.282 . S
C154 O155 1.216 . S
O155 C154 1.216 . S
H156 C151 0.930 . S
H157 C152 0.930 . S
O158 Cu138 1.959 . S
O158 C145 1.251 . S
H159 C142 0.930 . S
H160 C153 0.929 . S
Cu161 N162 1.999 . S
Cu161 O167 1.974 . S
Cu161 N172 1.985 . S
Cu161 O181 1.959 . S
N162 Cu161 1.999 . S
N162 C164 1.263 . S
N162 C166 1.389 . S
N163 C164 1.358 . S
N163 C165 1.400 . S
C164 N162 1.263 . S
C164 N163 1.358 . S
C164 H170 0.930 . S
C165 N163 1.400 . S
C165 C166 1.351 . S
C165 H182 0.930 . S
C166 N162 1.389 . S
C166 C165 1.351 . S
C166 H171 0.930 . S
O167 Cu161 1.974 . S
O167 C177 1.282 . S
C168 O169 1.261 . S
C168 O181 1.251 . S
O169 C168 1.261 . S
H170 C164 0.930 . S
H171 C166 0.930 . S
N172 Cu161 1.985 . S
N172 C174 1.335 . S
N172 C175 1.390 . S
N173 C174 1.345 . S
N173 C176 1.336 . S
C174 N172 1.335 . S
C174 N173 1.345 . S
C174 H179 0.930 . S
C175 N172 1.390 . S
C175 C176 1.346 . S
C175 H180 0.930 . S
C176 N173 1.336 . S
C176 C175 1.346 . S
C176 H183 0.929 . S
C177 O167 1.282 . S
C177 O178 1.216 . S
O178 C177 1.216 . S
H179 C174 0.930 . S
H180 C175 0.930 . S
O181 Cu161 1.959 . S
O181 C168 1.251 . S
H182 C165 0.930 . S
H183 C176 0.929 . S
Cu184 N185 1.999 . S
Cu184 O190 1.974 . S
Cu184 N195 1.985 . S
Cu184 O204 1.959 . S
N185 Cu184 1.999 . S
N185 C187 1.263 . S
N185 C189 1.389 . S
N186 C187 1.358 . S
N186 C188 1.400 . S
C187 N185 1.263 . S
C187 N186 1.358 . S
C187 H193 0.930 . S
C188 N186 1.400 . S
C188 C189 1.351 . S
C188 H205 0.930 . S
C189 N185 1.389 . S
C189 C188 1.351 . S
C189 H194 0.930 . S
O190 Cu184 1.974 . S
O190 C200 1.282 . S
C191 O192 1.261 . S
C191 O204 1.251 . S
O192 C191 1.261 . S
H193 C187 0.930 . S
H194 C189 0.930 . S
N195 Cu184 1.985 . S
N195 C197 1.335 . S
N195 C198 1.390 . S
N196 C197 1.345 . S
N196 C199 1.336 . S
C197 N195 1.335 . S
C197 N196 1.345 . S
C197 H202 0.930 . S
C198 N195 1.390 . S
C198 C199 1.346 . S
C198 H203 0.930 . S
C199 N196 1.336 . S
C199 C198 1.346 . S
C199 H206 0.929 . S
C200 O190 1.282 . S
C200 O201 1.216 . S
O201 C200 1.216 . S
H202 C197 0.930 . S
H203 C198 0.930 . S
O204 Cu184 1.959 . S
O204 C191 1.251 . S
H205 C188 0.930 . S
H206 C199 0.929 . S
Cu207 N208 1.999 . S
Cu207 O213 1.974 . S
Cu207 N218 1.985 . S
Cu207 O227 1.959 . S
N208 Cu207 1.999 . S
N208 C210 1.263 . S
N208 C212 1.389 . S
N209 C210 1.358 . S
N209 C211 1.400 . S
C210 N208 1.263 . S
C210 N209 1.358 . S
C210 H216 0.930 . S
C211 N209 1.400 . S
C211 C212 1.351 . S
C211 H228 0.930 . S
C212 N208 1.389 . S
C212 C211 1.351 . S
C212 H217 0.930 . S
O213 Cu207 1.974 . S
O213 C223 1.282 . S
C214 O215 1.261 . S
C214 O227 1.251 . S
O215 C214 1.261 . S
H216 C210 0.930 . S
H217 C212 0.930 . S
N218 Cu207 1.985 . S
N218 C220 1.335 . S
N218 C221 1.390 . S
N219 C220 1.345 . S
N219 C222 1.336 . S
C220 N218 1.335 . S
C220 N219 1.345 . S
C220 H225 0.930 . S
C221 N218 1.390 . S
C221 C222 1.346 . S
C221 H226 0.930 . S
C222 N219 1.336 . S
C222 C221 1.346 . S
C222 H229 0.929 . S
C223 O213 1.282 . S
C223 O224 1.216 . S
O224 C223 1.216 . S
H225 C220 0.930 . S
H226 C221 0.930 . S
O227 Cu207 1.959 . S
O227 C214 1.251 . S
H228 C211 0.930 . S
H229 C222 0.929 . S
Cu230 N231 1.999 . S
Cu230 O236 1.974 . S
Cu230 N241 1.985 . S
Cu230 O250 1.959 . S
N231 Cu230 1.999 . S
N231 C233 1.263 . S
N231 C235 1.389 . S
N232 C233 1.358 . S
N232 C234 1.400 . S
C233 N231 1.263 . S
C233 N232 1.358 . S
C233 H239 0.930 . S
C234 N232 1.400 . S
C234 C235 1.351 . S
C234 H251 0.930 . S
C235 N231 1.389 . S
C235 C234 1.351 . S
C235 H240 0.930 . S
O236 Cu230 1.974 . S
O236 C246 1.282 . S
C237 O238 1.261 . S
C237 O250 1.251 . S
O238 C237 1.261 . S
H239 C233 0.930 . S
H240 C235 0.930 . S
N241 Cu230 1.985 . S
N241 C243 1.335 . S
N241 C244 1.390 . S
N242 C243 1.345 . S
N242 C245 1.336 . S
C243 N241 1.335 . S
C243 N242 1.345 . S
C243 H248 0.930 . S
C244 N241 1.390 . S
C244 C245 1.346 . S
C244 H249 0.930 . S
C245 N242 1.336 . S
C245 C244 1.346 . S
C245 H252 0.929 . S
C246 O236 1.282 . S
C246 O247 1.216 . S
O247 C246 1.216 . S
H248 C243 0.930 . S
H249 C244 0.930 . S
O250 Cu230 1.959 . S
O250 C237 1.251 . S
H251 C234 0.930 . S
H252 C245 0.929 . S
Cu253 N254 1.999 . S
Cu253 O259 1.974 . S
Cu253 N264 1.985 . S
Cu253 O273 1.959 . S
N254 Cu253 1.999 . S
N254 C256 1.263 . S
N254 C258 1.389 . S
N255 C256 1.358 . S
N255 C257 1.400 . S
C256 N254 1.263 . S
C256 N255 1.358 . S
C256 H262 0.930 . S
C257 N255 1.400 . S
C257 C258 1.351 . S
C257 H274 0.930 . S
C258 N254 1.389 . S
C258 C257 1.351 . S
C258 H263 0.930 . S
O259 Cu253 1.974 . S
O259 C269 1.282 . S
C260 O261 1.261 . S
C260 O273 1.251 . S
O261 C260 1.261 . S
H262 C256 0.930 . S
H263 C258 0.930 . S
N264 Cu253 1.985 . S
N264 C266 1.335 . S
N264 C267 1.390 . S
N265 C266 1.345 . S
N265 C268 1.336 . S
C266 N264 1.335 . S
C266 N265 1.345 . S
C266 H271 0.930 . S
C267 N264 1.390 . S
C267 C268 1.346 . S
C267 H272 0.930 . S
C268 N265 1.336 . S
C268 C267 1.346 . S
C268 H275 0.929 . S
C269 O259 1.282 . S
C269 O270 1.216 . S
O270 C269 1.216 . S
H271 C266 0.930 . S
H272 C267 0.930 . S
O273 Cu253 1.959 . S
O273 C260 1.251 . S
H274 C257 0.930 . S
H275 C268 0.929 . S
Cu276 N277 1.999 . S
Cu276 O282 1.974 . S
Cu276 N287 1.985 . S
Cu276 O296 1.959 . S
N277 Cu276 1.999 . S
N277 C279 1.263 . S
N277 C281 1.389 . S
N278 C279 1.358 . S
N278 C280 1.400 . S
C279 N277 1.263 . S
C279 N278 1.358 . S
C279 H285 0.930 . S
C280 N278 1.400 . S
C280 C281 1.351 . S
C280 H297 0.930 . S
C281 N277 1.389 . S
C281 C280 1.351 . S
C281 H286 0.930 . S
O282 Cu276 1.974 . S
O282 C292 1.282 . S
C283 O284 1.261 . S
C283 O296 1.251 . S
O284 C283 1.261 . S
H285 C279 0.930 . S
H286 C281 0.930 . S
N287 Cu276 1.985 . S
N287 C289 1.335 . S
N287 C290 1.390 . S
N288 C289 1.345 . S
N288 C291 1.336 . S
C289 N287 1.335 . S
C289 N288 1.345 . S
C289 H294 0.930 . S
C290 N287 1.390 . S
C290 C291 1.346 . S
C290 H295 0.930 . S
C291 N288 1.336 . S
C291 C290 1.346 . S
C291 H298 0.929 . S
C292 O282 1.282 . S
C292 O293 1.216 . S
O293 C292 1.216 . S
H294 C289 0.930 . S
H295 C290 0.930 . S
O296 Cu276 1.959 . S
O296 C283 1.251 . S
H297 C280 0.930 . S
H298 C291 0.929 . S
Cu299 N300 1.999 . S
Cu299 O305 1.974 . S
Cu299 N310 1.985 . S
Cu299 O319 1.959 . S
N300 Cu299 1.999 . S
N300 C302 1.263 . S
N300 C304 1.389 . S
N301 C302 1.358 . S
N301 C303 1.400 . S
C302 N300 1.263 . S
C302 N301 1.358 . S
C302 H308 0.930 . S
C303 N301 1.400 . S
C303 C304 1.351 . S
C303 H320 0.930 . S
C304 N300 1.389 . S
C304 C303 1.351 . S
C304 H309 0.930 . S
O305 Cu299 1.974 . S
O305 C315 1.282 . S
C306 O307 1.261 . S
C306 O319 1.251 . S
O307 C306 1.261 . S
H308 C302 0.930 . S
H309 C304 0.930 . S
N310 Cu299 1.985 . S
N310 C312 1.335 . S
N310 C313 1.390 . S
N311 C312 1.345 . S
N311 C314 1.336 . S
C312 N310 1.335 . S
C312 N311 1.345 . S
C312 H317 0.930 . S
C313 N310 1.390 . S
C313 C314 1.346 . S
C313 H318 0.930 . S
C314 N311 1.336 . S
C314 C313 1.346 . S
C314 H321 0.929 . S
C315 O305 1.282 . S
C315 O316 1.216 . S
O316 C315 1.216 . S
H317 C312 0.930 . S
H318 C313 0.930 . S
O319 Cu299 1.959 . S
O319 C306 1.251 . S
H320 C303 0.930 . S
H321 C314 0.929 . S
Cu322 N323 1.999 . S
Cu322 O328 1.974 . S
Cu322 N333 1.985 . S
Cu322 O342 1.959 . S
N323 Cu322 1.999 . S
N323 C325 1.263 . S
N323 C327 1.389 . S
N324 C325 1.358 . S
N324 C326 1.400 . S
C325 N323 1.263 . S
C325 N324 1.358 . S
C325 H331 0.930 . S
C326 N324 1.400 . S
C326 C327 1.351 . S
C326 H343 0.930 . S
C327 N323 1.389 . S
C327 C326 1.351 . S
C327 H332 0.930 . S
O328 Cu322 1.974 . S
O328 C338 1.282 . S
C329 O330 1.261 . S
C329 O342 1.251 . S
O330 C329 1.261 . S
H331 C325 0.930 . S
H332 C327 0.930 . S
N333 Cu322 1.985 . S
N333 C335 1.335 . S
N333 C336 1.390 . S
N334 C335 1.345 . S
N334 C337 1.336 . S
C335 N333 1.335 . S
C335 N334 1.345 . S
C335 H340 0.930 . S
C336 N333 1.390 . S
C336 C337 1.346 . S
C336 H341 0.930 . S
C337 N334 1.336 . S
C337 C336 1.346 . S
C337 H344 0.929 . S
C338 O328 1.282 . S
C338 O339 1.216 . S
O339 C338 1.216 . S
H340 C335 0.930 . S
H341 C336 0.930 . S
O342 Cu322 1.959 . S
O342 C329 1.251 . S
H343 C326 0.930 . S
H344 C337 0.929 . S
Cu345 N346 1.999 . S
Cu345 O351 1.974 . S
Cu345 N356 1.985 . S
Cu345 O365 1.959 . S
N346 Cu345 1.999 . S
N346 C348 1.263 . S
N346 C350 1.389 . S
N347 C348 1.358 . S
N347 C349 1.400 . S
C348 N346 1.263 . S
C348 N347 1.358 . S
C348 H354 0.930 . S
C349 N347 1.400 . S
C349 C350 1.351 . S
C349 H366 0.930 . S
C350 N346 1.389 . S
C350 C349 1.351 . S
C350 H355 0.930 . S
O351 Cu345 1.974 . S
O351 C361 1.282 . S
C352 O353 1.261 . S
C352 O365 1.251 . S
O353 C352 1.261 . S
H354 C348 0.930 . S
H355 C350 0.930 . S
N356 Cu345 1.985 . S
N356 C358 1.335 . S
N356 C359 1.390 . S
N357 C358 1.345 . S
N357 C360 1.336 . S
C358 N356 1.335 . S
C358 N357 1.345 . S
C358 H363 0.930 . S
C359 N356 1.390 . S
C359 C360 1.346 . S
C359 H364 0.930 . S
C360 N357 1.336 . S
C360 C359 1.346 . S
C360 H367 0.929 . S
C361 O351 1.282 . S
C361 O362 1.216 . S
O362 C361 1.216 . S
H363 C358 0.930 . S
H364 C359 0.930 . S
O365 Cu345 1.959 . S
O365 C352 1.251 . S
H366 C349 0.930 . S
H367 C360 0.929 . S
Cu368 N369 1.999 . S
Cu368 O374 1.974 . S
Cu368 N379 1.985 . S
Cu368 O388 1.959 . S
N369 Cu368 1.999 . S
N369 C371 1.263 . S
N369 C373 1.389 . S
N370 C371 1.358 . S
N370 C372 1.400 . S
C371 N369 1.263 . S
C371 N370 1.358 . S
C371 H377 0.930 . S
C372 N370 1.400 . S
C372 C373 1.351 . S
C372 H389 0.930 . S
C373 N369 1.389 . S
C373 C372 1.351 . S
C373 H378 0.930 . S
O374 Cu368 1.974 . S
O374 C384 1.282 . S
C375 O376 1.261 . S
C375 O388 1.251 . S
O376 C375 1.261 . S
H377 C371 0.930 . S
H378 C373 0.930 . S
N379 Cu368 1.985 . S
N379 C381 1.335 . S
N379 C382 1.390 . S
N380 C381 1.345 . S
N380 C383 1.336 . S
C381 N379 1.335 . S
C381 N380 1.345 . S
C381 H386 0.930 . S
C382 N379 1.390 . S
C382 C383 1.346 . S
C382 H387 0.930 . S
C383 N380 1.336 . S
C383 C382 1.346 . S
C383 H390 0.929 . S
C384 O374 1.282 . S
C384 O385 1.216 . S
O385 C384 1.216 . S
H386 C381 0.930 . S
H387 C382 0.930 . S
O388 Cu368 1.959 . S
O388 C375 1.251 . S
H389 C372 0.930 . S
H390 C383 0.929 . S
Cu391 N392 1.999 . S
Cu391 O397 1.974 . S
Cu391 N402 1.985 . S
Cu391 O411 1.959 . S
N392 Cu391 1.999 . S
N392 C394 1.263 . S
N392 C396 1.389 . S
N393 C394 1.358 . S
N393 C395 1.400 . S
C394 N392 1.263 . S
C394 N393 1.358 . S
C394 H400 0.930 . S
C395 N393 1.400 . S
C395 C396 1.351 . S
C395 H412 0.930 . S
C396 N392 1.389 . S
C396 C395 1.351 . S
C396 H401 0.930 . S
O397 Cu391 1.974 . S
O397 C407 1.282 . S
C398 O399 1.261 . S
C398 O411 1.251 . S
O399 C398 1.261 . S
H400 C394 0.930 . S
H401 C396 0.930 . S
N402 Cu391 1.985 . S
N402 C404 1.335 . S
N402 C405 1.390 . S
N403 C404 1.345 . S
N403 C406 1.336 . S
C404 N402 1.335 . S
C404 N403 1.345 . S
C404 H409 0.930 . S
C405 N402 1.390 . S
C405 C406 1.346 . S
C405 H410 0.930 . S
C406 N403 1.336 . S
C406 C405 1.346 . S
C406 H413 0.929 . S
C407 O397 1.282 . S
C407 O408 1.216 . S
O408 C407 1.216 . S
H409 C404 0.930 . S
H410 C405 0.930 . S
O411 Cu391 1.959 . S
O411 C398 1.251 . S
H412 C395 0.930 . S
H413 C406 0.929 . S
Cu414 N415 1.999 . S
Cu414 O420 1.974 . S
Cu414 N425 1.985 . S
Cu414 O434 1.959 . S
N415 Cu414 1.999 . S
N415 C417 1.263 . S
N415 C419 1.389 . S
N416 C417 1.358 . S
N416 C418 1.400 . S
C417 N415 1.263 . S
C417 N416 1.358 . S
C417 H423 0.930 . S
C418 N416 1.400 . S
C418 C419 1.351 . S
C418 H435 0.930 . S
C419 N415 1.389 . S
C419 C418 1.351 . S
C419 H424 0.930 . S
O420 Cu414 1.974 . S
O420 C430 1.282 . S
C421 O422 1.261 . S
C421 O434 1.251 . S
O422 C421 1.261 . S
H423 C417 0.930 . S
H424 C419 0.930 . S
N425 Cu414 1.985 . S
N425 C427 1.335 . S
N425 C428 1.390 . S
N426 C427 1.345 . S
N426 C429 1.336 . S
C427 N425 1.335 . S
C427 N426 1.345 . S
C427 H432 0.930 . S
C428 N425 1.390 . S
C428 C429 1.346 . S
C428 H433 0.930 . S
C429 N426 1.336 . S
C429 C428 1.346 . S
C429 H436 0.929 . S
C430 O420 1.282 . S
C430 O431 1.216 . S
O431 C430 1.216 . S
H432 C427 0.930 . S
H433 C428 0.930 . S
O434 Cu414 1.959 . S
O434 C421 1.251 . S
H435 C418 0.930 . S
H436 C429 0.929 . S
Cu437 N438 1.999 . S
Cu437 O443 1.974 . S
Cu437 N448 1.985 . S
Cu437 O457 1.959 . S
N438 Cu437 1.999 . S
N438 C440 1.263 . S
N438 C442 1.389 . S
N439 C440 1.358 . S
N439 C441 1.400 . S
C440 N438 1.263 . S
C440 N439 1.358 . S
C440 H446 0.930 . S
C441 N439 1.400 . S
C441 C442 1.351 . S
C441 H458 0.930 . S
C442 N438 1.389 . S
C442 C441 1.351 . S
C442 H447 0.930 . S
O443 Cu437 1.974 . S
O443 C453 1.282 . S
C444 O445 1.261 . S
C444 O457 1.251 . S
O445 C444 1.261 . S
H446 C440 0.930 . S
H447 C442 0.930 . S
N448 Cu437 1.985 . S
N448 C450 1.335 . S
N448 C451 1.390 . S
N449 C450 1.345 . S
N449 C452 1.336 . S
C450 N448 1.335 . S
C450 N449 1.345 . S
C450 H455 0.930 . S
C451 N448 1.390 . S
C451 C452 1.346 . S
C451 H456 0.930 . S
C452 N449 1.336 . S
C452 C451 1.346 . S
C452 H459 0.929 . S
C453 O443 1.282 . S
C453 O454 1.216 . S
O454 C453 1.216 . S
H455 C450 0.930 . S
H456 C451 0.930 . S
O457 Cu437 1.959 . S
O457 C444 1.251 . S
H458 C441 0.930 . S
H459 C452 0.929 . S
Cu460 N461 1.999 . S
Cu460 O466 1.974 . S
Cu460 N471 1.985 . S
Cu460 O480 1.959 . S
N461 Cu460 1.999 . S
N461 C463 1.263 . S
N461 C465 1.389 . S
N462 C463 1.358 . S
N462 C464 1.400 . S
C463 N461 1.263 . S
C463 N462 1.358 . S
C463 H469 0.930 . S
C464 N462 1.400 . S
C464 C465 1.351 . S
C464 H481 0.930 . S
C465 N461 1.389 . S
C465 C464 1.351 . S
C465 H470 0.930 . S
O466 Cu460 1.974 . S
O466 C476 1.282 . S
C467 O468 1.261 . S
C467 O480 1.251 . S
O468 C467 1.261 . S
H469 C463 0.930 . S
H470 C465 0.930 . S
N471 Cu460 1.985 . S
N471 C473 1.335 . S
N471 C474 1.390 . S
N472 C473 1.345 . S
N472 C475 1.336 . S
C473 N471 1.335 . S
C473 N472 1.345 . S
C473 H478 0.930 . S
C474 N471 1.390 . S
C474 C475 1.346 . S
C474 H479 0.930 . S
C475 N472 1.336 . S
C475 C474 1.346 . S
C475 H482 0.929 . S
C476 O466 1.282 . S
C476 O477 1.216 . S
O477 C476 1.216 . S
H478 C473 0.930 . S
H479 C474 0.930 . S
O480 Cu460 1.959 . S
O480 C467 1.251 . S
H481 C464 0.930 . S
H482 C475 0.929 . S
Cu483 N484 1.999 . S
Cu483 O489 1.974 . S
Cu483 N494 1.985 . S
Cu483 O503 1.959 . S
N484 Cu483 1.999 . S
N484 C486 1.263 . S
N484 C488 1.389 . S
N485 C486 1.358 . S
N485 C487 1.400 . S
C486 N484 1.263 . S
C486 N485 1.358 . S
C486 H492 0.930 . S
C487 N485 1.400 . S
C487 C488 1.351 . S
C487 H504 0.930 . S
C488 N484 1.389 . S
C488 C487 1.351 . S
C488 H493 0.930 . S
O489 Cu483 1.974 . S
O489 C499 1.282 . S
C490 O491 1.261 . S
C490 O503 1.251 . S
O491 C490 1.261 . S
H492 C486 0.930 . S
H493 C488 0.930 . S
N494 Cu483 1.985 . S
N494 C496 1.335 . S
N494 C497 1.390 . S
N495 C496 1.345 . S
N495 C498 1.336 . S
C496 N494 1.335 . S
C496 N495 1.345 . S
C496 H501 0.930 . S
C497 N494 1.390 . S
C497 C498 1.346 . S
C497 H502 0.930 . S
C498 N495 1.336 . S
C498 C497 1.346 . S
C498 H505 0.929 . S
C499 O489 1.282 . S
C499 O500 1.216 . S
O500 C499 1.216 . S
H501 C496 0.930 . S
H502 C497 0.930 . S
O503 Cu483 1.959 . S
O503 C490 1.251 . S
H504 C487 0.930 . S
H505 C498 0.929 . S
Cu506 N507 1.999 . S
Cu506 O512 1.974 . S
Cu506 N517 1.985 . S
Cu506 O526 1.959 . S
N507 Cu506 1.999 . S
N507 C509 1.263 . S
N507 C511 1.389 . S
N508 C509 1.358 . S
N508 C510 1.400 . S
C509 N507 1.263 . S
C509 N508 1.358 . S
C509 H515 0.930 . S
C510 N508 1.400 . S
C510 C511 1.351 . S
C510 H527 0.930 . S
C511 N507 1.389 . S
C511 C510 1.351 . S
C511 H516 0.930 . S
O512 Cu506 1.974 . S
O512 C522 1.282 . S
C513 O514 1.261 . S
C513 O526 1.251 . S
O514 C513 1.261 . S
H515 C509 0.930 . S
H516 C511 0.930 . S
N517 Cu506 1.985 . S
N517 C519 1.335 . S
N517 C520 1.390 . S
N518 C519 1.345 . S
N518 C521 1.336 . S
C519 N517 1.335 . S
C519 N518 1.345 . S
C519 H524 0.930 . S
C520 N517 1.390 . S
C520 C521 1.346 . S
C520 H525 0.930 . S
C521 N518 1.336 . S
C521 C520 1.346 . S
C521 H528 0.929 . S
C522 O512 1.282 . S
C522 O523 1.216 . S
O523 C522 1.216 . S
H524 C519 0.930 . S
H525 C520 0.930 . S
O526 Cu506 1.959 . S
O526 C513 1.251 . S
H527 C510 0.930 . S
H528 C521 0.929 . S
Cu529 N530 1.999 . S
Cu529 O535 1.974 . S
Cu529 N540 1.985 . S
Cu529 O549 1.959 . S
N530 Cu529 1.999 . S
N530 C532 1.263 . S
N530 C534 1.389 . S
N531 C532 1.358 . S
N531 C533 1.400 . S
C532 N530 1.263 . S
C532 N531 1.358 . S
C532 H538 0.930 . S
C533 N531 1.400 . S
C533 C534 1.351 . S
C533 H550 0.930 . S
C534 N530 1.389 . S
C534 C533 1.351 . S
C534 H539 0.930 . S
O535 Cu529 1.974 . S
O535 C545 1.282 . S
C536 O537 1.261 . S
C536 O549 1.251 . S
O537 C536 1.261 . S
H538 C532 0.930 . S
H539 C534 0.930 . S
N540 Cu529 1.985 . S
N540 C542 1.335 . S
N540 C543 1.390 . S
N541 C542 1.345 . S
N541 C544 1.336 . S
C542 N540 1.335 . S
C542 N541 1.345 . S
C542 H547 0.930 . S
C543 N540 1.390 . S
C543 C544 1.346 . S
C543 H548 0.930 . S
C544 N541 1.336 . S
C544 C543 1.346 . S
C544 H551 0.929 . S
C545 O535 1.282 . S
C545 O546 1.216 . S
O546 C545 1.216 . S
H547 C542 0.930 . S
H548 C543 0.930 . S
O549 Cu529 1.959 . S
O549 C536 1.251 . S
H550 C533 0.930 . S
H551 C544 0.929 . S
H552 C558 0.930 . S
H553 C561 0.930 . S
H554 C562 0.930 . S
H555 C563 0.930 . S
H556 C566 0.930 . S
H557 C567 0.930 . S
C558 H552 0.930 . S
C558 C559 1.355 . S
C558 C560 1.415 . S
C559 C558 1.355 . S
C559 C561 1.419 . S
C560 C558 1.415 . S
C560 C565 1.425 . S
C560 C567 1.409 . S
C561 H553 0.930 . S
C561 C559 1.419 . S
C561 C562 1.362 . S
C562 H554 0.930 . S
C562 C561 1.362 . S
C562 C565 1.409 . S
C563 H555 0.930 . S
C563 C564 1.355 . S
C563 C565 1.415 . S
C564 C563 1.355 . S
C564 C566 1.419 . S
C565 C560 1.425 . S
C565 C562 1.409 . S
C565 C563 1.415 . S
C566 H556 0.930 . S
C566 C564 1.419 . S
C566 C567 1.362 . S
C567 H557 0.930 . S
C567 C560 1.409 . S
C567 C566 1.362 . S
H568 C574 0.930 . S
H569 C577 0.930 . S
H570 C578 0.930 . S
H571 C579 0.930 . S
H572 C582 0.930 . S
H573 C583 0.930 . S
C574 H568 0.930 . S
C574 C575 1.355 . S
C574 C576 1.415 . S
C575 C574 1.355 . S
C575 C577 1.419 . S
C576 C574 1.415 . S
C576 C581 1.425 . S
C576 C583 1.409 . S
C577 H569 0.930 . S
C577 C575 1.419 . S
C577 C578 1.362 . S
C578 H570 0.930 . S
C578 C577 1.362 . S
C578 C581 1.409 . S
C579 H571 0.930 . S
C579 C580 1.355 . S
C579 C581 1.415 . S
C580 C579 1.355 . S
C580 C582 1.419 . S
C581 C576 1.425 . S
C581 C578 1.409 . S
C581 C579 1.415 . S
C582 H572 0.930 . S
C582 C580 1.419 . S
C582 C583 1.362 . S
C583 H573 0.930 . S
C583 C576 1.409 . S
C583 C582 1.362 . S
H584 C590 0.930 . S
H585 C593 0.930 . S
H586 C594 0.930 . S
H587 C595 0.930 . S
H588 C598 0.930 . S
H589 C599 0.930 . S
C590 H584 0.930 . S
C590 C591 1.355 . S
C590 C592 1.415 . S
C591 C590 1.355 . S
C591 C593 1.419 . S
C592 C590 1.415 . S
C592 C597 1.425 . S
C592 C599 1.409 . S
C593 H585 0.930 . S
C593 C591 1.419 . S
C593 C594 1.362 . S
C594 H586 0.930 . S
C594 C593 1.362 . S
C594 C597 1.409 . S
C595 H587 0.930 . S
C595 C596 1.355 . S
C595 C597 1.415 . S
C596 C595 1.355 . S
C596 C598 1.419 . S
C597 C592 1.425 . S
C597 C594 1.409 . S
C597 C595 1.415 . S
C598 H588 0.930 . S
C598 C596 1.419 . S
C598 C599 1.362 . S
C599 H589 0.930 . S
C599 C592 1.409 . S
C599 C598 1.362 . S
H600 C606 0.930 . S
H601 C609 0.930 . S
H602 C610 0.930 . S
H603 C611 0.930 . S
H604 C614 0.930 . S
H605 C615 0.930 . S
C606 H600 0.930 . S
C606 C607 1.355 . S
C606 C608 1.415 . S
C607 C606 1.355 . S
C607 C609 1.419 . S
C608 C606 1.415 . S
C608 C613 1.425 . S
C608 C615 1.409 . S
C609 H601 0.930 . S
C609 C607 1.419 . S
C609 C610 1.362 . S
C610 H602 0.930 . S
C610 C609 1.362 . S
C610 C613 1.409 . S
C611 H603 0.930 . S
C611 C612 1.355 . S
C611 C613 1.415 . S
C612 C611 1.355 . S
C612 C614 1.419 . S
C613 C608 1.425 . S
C613 C610 1.409 . S
C613 C611 1.415 . S
C614 H604 0.930 . S
C614 C612 1.419 . S
C614 C615 1.362 . S
C615 H605 0.930 . S
C615 C608 1.409 . S
C615 C614 1.362 . S
H616 C622 0.930 . S
H617 C625 0.930 . S
H618 C626 0.930 . S
H619 C627 0.930 . S
H620 C630 0.930 . S
H621 C631 0.930 . S
C622 H616 0.930 . S
C622 C623 1.355 . S
C622 C624 1.415 . S
C623 C622 1.355 . S
C623 C625 1.419 . S
C624 C622 1.415 . S
C624 C629 1.425 . S
C624 C631 1.409 . S
C625 H617 0.930 . S
C625 C623 1.419 . S
C625 C626 1.362 . S
C626 H618 0.930 . S
C626 C625 1.362 . S
C626 C629 1.409 . S
C627 H619 0.930 . S
C627 C628 1.355 . S
C627 C629 1.415 . S
C628 C627 1.355 . S
C628 C630 1.419 . S
C629 C624 1.425 . S
C629 C626 1.409 . S
C629 C627 1.415 . S
C630 H620 0.930 . S
C630 C628 1.419 . S
C630 C631 1.362 . S
C631 H621 0.930 . S
C631 C624 1.409 . S
C631 C630 1.362 . S
H632 C638 0.930 . S
H633 C641 0.930 . S
H634 C642 0.930 . S
H635 C643 0.930 . S
H636 C646 0.930 . S
H637 C647 0.930 . S
C638 H632 0.930 . S
C638 C639 1.355 . S
C638 C640 1.415 . S
C639 C638 1.355 . S
C639 C641 1.419 . S
C640 C638 1.415 . S
C640 C645 1.425 . S
C640 C647 1.409 . S
C641 H633 0.930 . S
C641 C639 1.419 . S
C641 C642 1.362 . S
C642 H634 0.930 . S
C642 C641 1.362 . S
C642 C645 1.409 . S
C643 H635 0.930 . S
C643 C644 1.355 . S
C643 C645 1.415 . S
C644 C643 1.355 . S
C644 C646 1.419 . S
C645 C640 1.425 . S
C645 C642 1.409 . S
C645 C643 1.415 . S
C646 H636 0.930 . S
C646 C644 1.419 . S
C646 C647 1.362 . S
C647 H637 0.930 . S
C647 C640 1.409 . S
C647 C646 1.362 . S
H648 C654 0.930 . S
H649 C657 0.930 . S
H650 C658 0.930 . S
H651 C659 0.930 . S
H652 C662 0.930 . S
H653 C663 0.930 . S
C654 H648 0.930 . S
C654 C655 1.355 . S
C654 C656 1.415 . S
C655 C654 1.355 . S
C655 C657 1.419 . S
C656 C654 1.415 . S
C656 C661 1.425 . S
C656 C663 1.409 . S
C657 H649 0.930 . S
C657 C655 1.419 . S
C657 C658 1.362 . S
C658 H650 0.930 . S
C658 C657 1.362 . S
C658 C661 1.409 . S
C659 H651 0.930 . S
C659 C660 1.355 . S
C659 C661 1.415 . S
C660 C659 1.355 . S
C660 C662 1.419 . S
C661 C656 1.425 . S
C661 C658 1.409 . S
C661 C659 1.415 . S
C662 H652 0.930 . S
C662 C660 1.419 . S
C662 C663 1.362 . S
C663 H653 0.930 . S
C663 C656 1.409 . S
C663 C662 1.362 . S
H664 C670 0.930 . S
H665 C673 0.930 . S
H666 C674 0.930 . S
H667 C675 0.930 . S
H668 C678 0.930 . S
H669 C679 0.930 . S
C670 H664 0.930 . S
C670 C671 1.355 . S
C670 C672 1.415 . S
C671 C670 1.355 . S
C671 C673 1.419 . S
C672 C670 1.415 . S
C672 C677 1.425 . S
C672 C679 1.409 . S
C673 H665 0.930 . S
C673 C671 1.419 . S
C673 C674 1.362 . S
C674 H666 0.930 . S
C674 C673 1.362 . S
C674 C677 1.409 . S
C675 H667 0.930 . S
C675 C676 1.355 . S
C675 C677 1.415 . S
C676 C675 1.355 . S
C676 C678 1.419 . S
C677 C672 1.425 . S
C677 C674 1.409 . S
C677 C675 1.415 . S
C678 H668 0.930 . S
C678 C676 1.419 . S
C678 C679 1.362 . S
C679 H669 0.930 . S
C679 C672 1.409 . S
C679 C678 1.362 . S
H680 C686 0.930 . S
H681 C689 0.930 . S
H682 C690 0.930 . S
H683 C691 0.930 . S
H684 C694 0.930 . S
H685 C695 0.930 . S
C686 H680 0.930 . S
C686 C687 1.355 . S
C686 C688 1.415 . S
C687 C686 1.355 . S
C687 C689 1.419 . S
C688 C686 1.415 . S
C688 C693 1.425 . S
C688 C695 1.409 . S
C689 H681 0.930 . S
C689 C687 1.419 . S
C689 C690 1.362 . S
C690 H682 0.930 . S
C690 C689 1.362 . S
C690 C693 1.409 . S
C691 H683 0.930 . S
C691 C692 1.355 . S
C691 C693 1.415 . S
C692 C691 1.355 . S
C692 C694 1.419 . S
C693 C688 1.425 . S
C693 C690 1.409 . S
C693 C691 1.415 . S
C694 H684 0.930 . S
C694 C692 1.419 . S
C694 C695 1.362 . S
C695 H685 0.930 . S
C695 C688 1.409 . S
C695 C694 1.362 . S
H696 C702 0.930 . S
H697 C705 0.930 . S
H698 C706 0.930 . S
H699 C707 0.930 . S
H700 C710 0.930 . S
H701 C711 0.930 . S
C702 H696 0.930 . S
C702 C703 1.355 . S
C702 C704 1.415 . S
C703 C702 1.355 . S
C703 C705 1.419 . S
C704 C702 1.415 . S
C704 C709 1.425 . S
C704 C711 1.409 . S
C705 H697 0.930 . S
C705 C703 1.419 . S
C705 C706 1.362 . S
C706 H698 0.930 . S
C706 C705 1.362 . S
C706 C709 1.409 . S
C707 H699 0.930 . S
C707 C708 1.355 . S
C707 C709 1.415 . S
C708 C707 1.355 . S
C708 C710 1.419 . S
C709 C704 1.425 . S
C709 C706 1.409 . S
C709 C707 1.415 . S
C710 H700 0.930 . S
C710 C708 1.419 . S
C710 C711 1.362 . S
C711 H701 0.930 . S
C711 C704 1.409 . S
C711 C710 1.362 . S
H712 C718 0.930 . S
H713 C721 0.930 . S
H714 C722 0.930 . S
H715 C723 0.930 . S
H716 C726 0.930 . S
H717 C727 0.930 . S
C718 H712 0.930 . S
C718 C719 1.355 . S
C718 C720 1.415 . S
C719 C718 1.355 . S
C719 C721 1.419 . S
C720 C718 1.415 . S
C720 C725 1.425 . S
C720 C727 1.409 . S
C721 H713 0.930 . S
C721 C719 1.419 . S
C721 C722 1.362 . S
C722 H714 0.930 . S
C722 C721 1.362 . S
C722 C725 1.409 . S
C723 H715 0.930 . S
C723 C724 1.355 . S
C723 C725 1.415 . S
C724 C723 1.355 . S
C724 C726 1.419 . S
C725 C720 1.425 . S
C725 C722 1.409 . S
C725 C723 1.415 . S
C726 H716 0.930 . S
C726 C724 1.419 . S
C726 C727 1.362 . S
C727 H717 0.930 . S
C727 C720 1.409 . S
C727 C726 1.362 . S
H728 C734 0.930 . S
H729 C737 0.930 . S
H730 C738 0.930 . S
H731 C739 0.930 . S
H732 C742 0.930 . S
H733 C743 0.930 . S
C734 H728 0.930 . S
C734 C735 1.355 . S
C734 C736 1.415 . S
C735 C734 1.355 . S
C735 C737 1.419 . S
C736 C734 1.415 . S
C736 C741 1.425 . S
C736 C743 1.409 . S
C737 H729 0.930 . S
C737 C735 1.419 . S
C737 C738 1.362 . S
C738 H730 0.930 . S
C738 C737 1.362 . S
C738 C741 1.409 . S
C739 H731 0.930 . S
C739 C740 1.355 . S
C739 C741 1.415 . S
C740 C739 1.355 . S
C740 C742 1.419 . S
C741 C736 1.425 . S
C741 C738 1.409 . S
C741 C739 1.415 . S
C742 H732 0.930 . S
C742 C740 1.419 . S
C742 C743 1.362 . S
C743 H733 0.930 . S
C743 C736 1.409 . S
C743 C742 1.362 . S
H744 C750 0.930 . S
H745 C753 0.930 . S
H746 C754 0.930 . S
H747 C755 0.930 . S
H748 C758 0.930 . S
H749 C759 0.930 . S
C750 H744 0.930 . S
C750 C751 1.355 . S
C750 C752 1.415 . S
C751 C750 1.355 . S
C751 C753 1.419 1_545 S
C752 C750 1.415 . S
C752 C757 1.425 . S
C752 C759 1.409 . S
C753 H745 0.930 . S
C753 C751 1.419 1_565 S
C753 C754 1.362 1_565 S
C754 H746 0.930 . S
C754 C753 1.362 1_545 S
C754 C757 1.409 . S
C755 H747 0.930 . S
C755 C756 1.355 . S
C755 C757 1.415 . S
C756 C755 1.355 . S
C756 C758 1.419 . S
C757 C752 1.425 . S
C757 C754 1.409 . S
C757 C755 1.415 . S
C758 H748 0.930 . S
C758 C756 1.419 . S
C758 C759 1.362 . S
C759 H749 0.930 . S
C759 C752 1.409 . S
C759 C758 1.362 . S
H760 C766 0.939 . S
H761 C769 0.930 . S
H762 C770 0.930 . S
H763 C771 0.930 . S
H764 C774 0.930 . S
H765 C775 0.930 . S
C766 H760 0.939 . S
C766 C767 1.355 . S
C766 C768 1.405 1_655 S
C767 C766 1.355 . S
C767 C769 1.412 1_655 S
C768 C766 1.405 1_455 S
C768 C773 1.425 . S
C768 C775 1.409 . S
C769 H761 0.930 . S
C769 C767 1.412 1_455 S
C769 C770 1.362 . S
C770 H762 0.930 . S
C770 C769 1.362 . S
C770 C773 1.409 . S
C771 H763 0.930 . S
C771 C772 1.355 . S
C771 C773 1.415 . S
C772 C771 1.355 . S
C772 C774 1.419 . S
C773 C768 1.425 . S
C773 C770 1.409 . S
C773 C771 1.415 . S
C774 H764 0.930 . S
C774 C772 1.419 . S
C774 C775 1.362 . S
C775 H765 0.930 . S
C775 C768 1.409 . S
C775 C774 1.362 . S
H776 C782 0.930 . S
H777 C785 0.930 . S
H778 C786 0.930 . S
H779 C787 0.930 . S
H780 C790 0.930 . S
H781 C791 0.930 1_545 S
C782 H776 0.930 . S
C782 C783 1.355 . S
C782 C784 1.415 1_545 S
C783 C782 1.355 . S
C783 C785 1.419 1_545 S
C784 C782 1.415 1_565 S
C784 C789 1.425 . S
C784 C791 1.409 . S
C785 H777 0.930 . S
C785 C783 1.419 1_565 S
C785 C786 1.362 . S
C786 H778 0.930 . S
C786 C785 1.362 . S
C786 C789 1.409 . S
C787 H779 0.930 . S
C787 C788 1.355 . S
C787 C789 1.415 . S
C788 C787 1.355 . S
C788 C790 1.419 . S
C789 C784 1.425 . S
C789 C786 1.409 . S
C789 C787 1.415 . S
C790 H780 0.930 . S
C790 C788 1.419 . S
C790 C791 1.362 . S
C791 H781 0.930 1_565 S
C791 C784 1.409 . S
C791 C790 1.362 . S
H792 C798 0.930 . S
H793 C801 0.930 . S
H794 C802 0.930 . S
H795 C803 0.930 . S
H796 C806 0.930 . S
H797 C807 0.930 . S
C798 H792 0.930 . S
C798 C799 1.355 1_655 S
C798 C800 1.415 . S
C799 C798 1.355 1_455 S
C799 C801 1.419 . S
C800 C798 1.415 . S
C800 C805 1.425 . S
C800 C807 1.409 . S
C801 H793 0.930 . S
C801 C799 1.419 . S
C801 C802 1.362 . S
C802 H794 0.930 . S
C802 C801 1.362 . S
C802 C805 1.409 1_455 S
C803 H795 0.930 . S
C803 C804 1.355 . S
C803 C805 1.415 . S
C804 C803 1.355 . S
C804 C806 1.419 . S
C805 C800 1.425 . S
C805 C802 1.409 1_655 S
C805 C803 1.415 . S
C806 H796 0.930 . S
C806 C804 1.419 . S
C806 C807 1.362 . S
C807 H797 0.930 . S
C807 C800 1.409 . S
C807 C806 1.362 . S
H808 C814 0.930 . S
H809 C817 0.930 . S
H810 C818 0.933 . S
H811 C819 0.930 . S
H812 C822 0.930 . S
H813 C823 0.930 . S
C814 H808 0.930 . S
C814 C815 1.355 . S
C814 C816 1.415 . S
C815 C814 1.355 . S
C815 C817 1.419 . S
C816 C814 1.415 . S
C816 C821 1.425 . S
C816 C823 1.409 . S
C817 H809 0.930 . S
C817 C815 1.419 . S
C817 C818 1.360 1_565 S
C818 H810 0.933 . S
C818 C817 1.360 1_545 S
C818 C821 1.409 1_545 S
C819 H811 0.930 . S
C819 C820 1.355 . S
C819 C821 1.415 1_545 S
C820 C819 1.355 . S
C820 C822 1.419 1_545 S
C821 C816 1.425 . S
C821 C818 1.409 1_565 S
C821 C819 1.415 1_565 S
C822 H812 0.930 . S
C822 C820 1.419 1_565 S
C822 C823 1.362 . S
C823 H813 0.930 . S
C823 C816 1.409 . S
C823 C822 1.362 . S
H824 C830 0.930 . S
H825 C833 0.930 . S
H826 C834 0.930 . S
H827 C835 0.930 . S
H828 C838 0.930 . S
H829 C839 0.930 . S
C830 H824 0.930 . S
C830 C831 1.355 . S
C830 C832 1.415 . S
C831 C830 1.355 . S
C831 C833 1.419 . S
C832 C830 1.415 . S
C832 C837 1.425 . S
C832 C839 1.409 . S
C833 H825 0.930 . S
C833 C831 1.419 . S
C833 C834 1.362 1_655 S
C834 H826 0.930 . S
C834 C833 1.362 1_455 S
C834 C837 1.409 1_455 S
C835 H827 0.930 . S
C835 C836 1.355 . S
C835 C837 1.415 1_455 S
C836 C835 1.355 . S
C836 C838 1.419 1_455 S
C837 C832 1.425 . S
C837 C834 1.409 1_655 S
C837 C835 1.415 1_655 S
C838 H828 0.930 . S
C838 C836 1.419 1_655 S
C838 C839 1.362 . S
C839 H829 0.930 . S
C839 C832 1.409 . S
C839 C838 1.362 . S
H840 C846 0.930 . S
H841 C849 0.930 . S
H842 C850 0.930 1_545 S
H843 C851 0.930 . S
H844 C854 0.930 . S
H845 C855 0.947 . S
C846 H840 0.930 . S
C846 C847 1.355 . S
C846 C848 1.415 . S
C847 C846 1.355 . S
C847 C849 1.419 . S
C848 C846 1.415 . S
C848 C853 1.425 1_565 S
C848 C855 1.420 . S
C849 H841 0.930 . S
C849 C847 1.419 . S
C849 C850 1.362 . S
C850 H842 0.930 1_565 S
C850 C849 1.362 . S
C850 C853 1.409 1_565 S
C851 H843 0.930 . S
C851 C852 1.355 . S
C851 C853 1.415 . S
C852 C851 1.355 . S
C852 C854 1.419 . S
C853 C848 1.425 1_545 S
C853 C850 1.409 1_545 S
C853 C851 1.415 . S
C854 H844 0.930 . S
C854 C852 1.419 . S
C854 C855 1.337 1_545 S
C855 H845 0.947 . S
C855 C848 1.420 . S
C855 C854 1.337 1_565 S
H856 C862 0.930 . S
H857 C865 0.930 . S
H858 C866 0.930 . S
H859 C867 0.930 . S
H860 C870 0.930 . S
H861 C871 0.930 . S
C862 H856 0.930 . S
C862 C863 1.355 . S
C862 C864 1.415 . S
C863 C862 1.355 . S
C863 C865 1.419 . S
C864 C862 1.415 . S
C864 C869 1.425 . S
C864 C871 1.409 . S
C865 H857 0.930 . S
C865 C863 1.419 . S
C865 C866 1.362 1_455 S
C866 H858 0.930 . S
C866 C865 1.362 1_655 S
C866 C869 1.409 1_655 S
C867 H859 0.930 . S
C867 C868 1.355 . S
C867 C869 1.415 1_655 S
C868 C867 1.355 . S
C868 C870 1.419 1_655 S
C869 C864 1.425 . S
C869 C866 1.409 1_455 S
C869 C867 1.415 1_455 S
C870 H860 0.930 . S
C870 C868 1.419 1_455 S
C870 C871 1.362 . S
C871 H861 0.930 . S
C871 C864 1.409 . S
C871 C870 1.362 . S
H872 C878 0.930 . S
H873 C881 0.930 . S
H874 C882 0.930 . S
H875 C883 0.930 . S
H876 C886 0.930 . S
H877 C887 0.930 . S
C878 H872 0.930 . S
C878 C879 1.355 1_554 S
C878 C880 1.415 . S
C879 C878 1.355 1_556 S
C879 C881 1.419 . S
C880 C878 1.415 . S
C880 C885 1.425 . S
C880 C887 1.409 . S
C881 H873 0.930 . S
C881 C879 1.419 . S
C881 C882 1.362 . S
C882 H874 0.930 . S
C882 C881 1.362 . S
C882 C885 1.409 1_556 S
C883 H875 0.930 . S
C883 C884 1.355 . S
C883 C885 1.415 . S
C884 C883 1.355 . S
C884 C886 1.419 . S
C885 C880 1.425 . S
C885 C882 1.409 1_554 S
C885 C883 1.415 . S
C886 H876 0.930 . S
C886 C884 1.419 . S
C886 C887 1.362 . S
C887 H877 0.930 . S
C887 C880 1.409 . S
C887 C886 1.362 . S
H888 C894 0.930 . S
H889 C897 0.930 . S
H890 C898 0.930 . S
H891 C899 0.930 . S
H892 C902 0.930 . S
H893 C903 0.910 1_554 S
C894 H888 0.930 . S
C894 C895 1.367 . S
C894 C896 1.415 1_554 S
C895 C894 1.367 . S
C895 C897 1.381 1_554 S
C896 C894 1.415 1_556 S
C896 C901 1.425 . S
C896 C903 1.415 . S
C897 H889 0.930 . S
C897 C895 1.381 1_556 S
C897 C898 1.362 . S
C898 H890 0.930 . S
C898 C897 1.362 . S
C898 C901 1.409 . S
C899 H891 0.930 . S
C899 C900 1.355 . S
C899 C901 1.415 . S
C900 C899 1.355 . S
C900 C902 1.419 . S
C901 C896 1.425 . S
C901 C898 1.409 . S
C901 C899 1.415 . S
C902 H892 0.930 . S
C902 C900 1.419 . S
C902 C903 1.376 . S
C903 H893 0.910 1_556 S
C903 C896 1.415 . S
C903 C902 1.376 . S
H904 C910 0.930 . S
H905 C913 0.930 . S
H906 C914 0.930 . S
H907 C915 0.930 . S
H908 C918 0.930 . S
H909 C919 0.930 1_556 S
C910 H904 0.930 . S
C910 C911 1.355 . S
C910 C912 1.415 1_556 S
C911 C910 1.355 . S
C911 C913 1.419 1_556 S
C912 C910 1.415 1_554 S
C912 C917 1.425 . S
C912 C919 1.409 . S
C913 H905 0.930 . S
C913 C911 1.419 1_554 S
C913 C914 1.362 . S
C914 H906 0.930 . S
C914 C913 1.362 . S
C914 C917 1.409 . S
C915 H907 0.930 . S
C915 C916 1.355 . S
C915 C917 1.415 . S
C916 C915 1.355 . S
C916 C918 1.419 . S
C917 C912 1.425 . S
C917 C914 1.409 . S
C917 C915 1.415 . S
C918 H908 0.930 . S
C918 C916 1.419 . S
C918 C919 1.362 . S
C919 H909 0.930 1_554 S
C919 C912 1.409 . S
C919 C918 1.362 . S
H920 C926 0.930 . S
H921 C929 0.930 . S
H922 C930 0.930 . S
H923 C931 0.930 . S
H924 C934 0.947 . S
H925 C935 0.930 . S
C926 H920 0.930 . S
C926 C927 1.355 1_554 S
C926 C928 1.415 1_554 S
C927 C926 1.355 1_556 S
C927 C929 1.419 . S
C928 C926 1.415 1_556 S
C928 C933 1.425 . S
C928 C935 1.409 1_556 S
C929 H921 0.930 . S
C929 C927 1.419 . S
C929 C930 1.362 . S
C930 H922 0.930 . S
C930 C929 1.362 . S
C930 C933 1.409 . S
C931 H923 0.930 . S
C931 C932 1.355 . S
C931 C933 1.415 . S
C932 C931 1.355 . S
C932 C934 1.419 . S
C933 C928 1.425 . S
C933 C930 1.409 . S
C933 C931 1.415 . S
C934 H924 0.947 . S
C934 C932 1.419 . S
C934 C935 1.362 1_556 S
C935 H925 0.930 . S
C935 C928 1.409 1_554 S
C935 C934 1.362 1_554 S
H936 C942 0.930 . S
H937 C945 0.930 . S
H938 C946 0.930 . S
H939 C947 0.930 . S
H940 C950 0.930 . S
H941 C951 0.930 . S
C942 H936 0.930 . S
C942 C943 1.355 . S
C942 C944 1.415 . S
C943 C942 1.355 . S
C943 C945 1.419 . S
C944 C942 1.415 . S
C944 C949 1.425 . S
C944 C951 1.409 . S
C945 H937 0.930 . S
C945 C943 1.419 . S
C945 C946 1.362 . S
C946 H938 0.930 . S
C946 C945 1.362 . S
C946 C949 1.409 . S
C947 H939 0.930 . S
C947 C948 1.355 . S
C947 C949 1.415 . S
C948 C947 1.355 . S
C948 C950 1.419 . S
C949 C944 1.425 . S
C949 C946 1.409 . S
C949 C947 1.415 . S
C950 H940 0.930 . S
C950 C948 1.419 . S
C950 C951 1.362 . S
C951 H941 0.930 . S
C951 C944 1.409 . S
C951 C950 1.362 . S
H952 C958 0.930 . S
H953 C961 0.930 . S
H954 C962 0.930 . S
H955 C963 0.930 . S
H956 C966 0.930 . S
H957 C967 0.930 . S
C958 H952 0.930 . S
C958 C959 1.355 . S
C958 C960 1.415 . S
C959 C958 1.355 . S
C959 C961 1.419 . S
C960 C958 1.415 . S
C960 C965 1.425 . S
C960 C967 1.409 . S
C961 H953 0.930 . S
C961 C959 1.419 . S
C961 C962 1.362 . S
C962 H954 0.930 . S
C962 C961 1.362 . S
C962 C965 1.409 . S
C963 H955 0.930 . S
C963 C964 1.355 . S
C963 C965 1.415 . S
C964 C963 1.355 . S
C964 C966 1.419 . S
C965 C960 1.425 . S
C965 C962 1.409 . S
C965 C963 1.415 . S
C966 H956 0.930 . S
C966 C964 1.419 . S
C966 C967 1.362 . S
C967 H957 0.930 . S
C967 C960 1.409 . S
C967 C966 1.362 . S
H968 C974 0.930 . S
H969 C977 0.930 . S
H970 C978 0.930 . S
H971 C979 0.930 . S
H972 C982 0.930 . S
H973 C983 0.930 . S
C974 H968 0.930 . S
C974 C975 1.355 . S
C974 C976 1.415 . S
C975 C974 1.355 . S
C975 C977 1.419 . S
C976 C974 1.415 . S
C976 C981 1.425 . S
C976 C983 1.409 . S
C977 H969 0.930 . S
C977 C975 1.419 . S
C977 C978 1.362 . S
C978 H970 0.930 . S
C978 C977 1.362 . S
C978 C981 1.409 . S
C979 H971 0.930 . S
C979 C980 1.355 . S
C979 C981 1.415 . S
C980 C979 1.355 . S
C980 C982 1.419 . S
C981 C976 1.425 . S
C981 C978 1.409 . S
C981 C979 1.415 . S
C982 H972 0.930 . S
C982 C980 1.419 . S
C982 C983 1.362 . S
C983 H973 0.930 . S
C983 C976 1.409 . S
C983 C982 1.362 . S
H984 C990 0.930 . S
H985 C993 0.930 . S
H986 C994 0.930 . S
H987 C995 0.930 . S
H988 C998 0.930 . S
H989 C999 0.930 . S
C990 H984 0.930 . S
C990 C991 1.355 . S
C990 C992 1.415 . S
C991 C990 1.355 . S
C991 C993 1.419 . S
C992 C990 1.415 . S
C992 C997 1.425 . S
C992 C999 1.409 . S
C993 H985 0.930 . S
C993 C991 1.419 . S
C993 C994 1.362 . S
C994 H986 0.930 . S
C994 C993 1.362 . S
C994 C997 1.409 . S
C995 H987 0.930 . S
C995 C996 1.355 . S
C995 C997 1.415 . S
C996 C995 1.355 . S
C996 C998 1.419 . S
C997 C992 1.425 . S
C997 C994 1.409 . S
C997 C995 1.415 . S
C998 H988 0.930 . S
C998 C996 1.419 . S
C998 C999 1.362 . S
C999 H989 0.930 . S
C999 C992 1.409 . S
C999 C998 1.362 . S
H1000 C1006 0.930 . S
H1001 C1009 0.930 . S
H1002 C1010 0.930 . S
H1003 C1011 0.930 . S
H1004 C1014 0.930 . S
H1005 C1015 0.930 . S
C1006 H1000 0.930 . S
C1006 C1007 1.355 . S
C1006 C1008 1.415 . S
C1007 C1006 1.355 . S
C1007 C1009 1.419 . S
C1008 C1006 1.415 . S
C1008 C1013 1.425 . S
C1008 C1015 1.409 . S
C1009 H1001 0.930 . S
C1009 C1007 1.419 . S
C1009 C1010 1.362 . S
C1010 H1002 0.930 . S
C1010 C1009 1.362 . S
C1010 C1013 1.409 . S
C1011 H1003 0.930 . S
C1011 C1012 1.355 . S
C1011 C1013 1.415 . S
C1012 C1011 1.355 . S
C1012 C1014 1.419 . S
C1013 C1008 1.425 . S
C1013 C1010 1.409 . S
C1013 C1011 1.415 . S
C1014 H1004 0.930 . S
C1014 C1012 1.419 . S
C1014 C1015 1.362 . S
C1015 H1005 0.930 . S
C1015 C1008 1.409 . S
C1015 C1014 1.362 . S
H1016 C1022 0.930 . S
H1017 C1025 0.930 . S
H1018 C1026 0.930 . S
H1019 C1027 0.930 . S
H1020 C1030 0.930 . S
H1021 C1031 0.930 . S
C1022 H1016 0.930 . S
C1022 C1023 1.355 . S
C1022 C1024 1.415 . S
C1023 C1022 1.355 . S
C1023 C1025 1.419 . S
C1024 C1022 1.415 . S
C1024 C1029 1.425 . S
C1024 C1031 1.409 . S
C1025 H1017 0.930 . S
C1025 C1023 1.419 . S
C1025 C1026 1.362 . S
C1026 H1018 0.930 . S
C1026 C1025 1.362 . S
C1026 C1029 1.409 . S
C1027 H1019 0.930 . S
C1027 C1028 1.355 . S
C1027 C1029 1.415 . S
C1028 C1027 1.355 . S
C1028 C1030 1.419 . S
C1029 C1024 1.425 . S
C1029 C1026 1.409 . S
C1029 C1027 1.415 . S
C1030 H1020 0.930 . S
C1030 C1028 1.419 . S
C1030 C1031 1.362 . S
C1031 H1021 0.930 . S
C1031 C1024 1.409 . S
C1031 C1030 1.362 . S
H1032 C1038 0.930 . S
H1033 C1041 0.930 . S
H1034 C1042 0.930 . S
H1035 C1043 0.930 . S
H1036 C1046 0.930 . S
H1037 C1047 0.930 . S
C1038 H1032 0.930 . S
C1038 C1039 1.355 . S
C1038 C1040 1.415 . S
C1039 C1038 1.355 . S
C1039 C1041 1.419 . S
C1040 C1038 1.415 . S
C1040 C1045 1.425 . S
C1040 C1047 1.409 . S
C1041 H1033 0.930 . S
C1041 C1039 1.419 . S
C1041 C1042 1.362 . S
C1042 H1034 0.930 . S
C1042 C1041 1.362 . S
C1042 C1045 1.409 . S
C1043 H1035 0.930 . S
C1043 C1044 1.355 . S
C1043 C1045 1.415 . S
C1044 C1043 1.355 . S
C1044 C1046 1.419 . S
C1045 C1040 1.425 . S
C1045 C1042 1.409 . S
C1045 C1043 1.415 . S
C1046 H1036 0.930 . S
C1046 C1044 1.419 . S
C1046 C1047 1.362 . S
C1047 H1037 0.930 . S
C1047 C1040 1.409 . S
C1047 C1046 1.362 . S
H1048 C1054 0.930 . S
H1049 C1057 0.930 . S
H1050 C1058 0.930 . S
H1051 C1059 0.930 . S
H1052 C1062 0.930 . S
H1053 C1063 0.930 . S
C1054 H1048 0.930 . S
C1054 C1055 1.355 . S
C1054 C1056 1.415 . S
C1055 C1054 1.355 . S
C1055 C1057 1.419 . S
C1056 C1054 1.415 . S
C1056 C1061 1.425 . S
C1056 C1063 1.409 . S
C1057 H1049 0.930 . S
C1057 C1055 1.419 . S
C1057 C1058 1.362 . S
C1058 H1050 0.930 . S
C1058 C1057 1.362 . S
C1058 C1061 1.409 . S
C1059 H1051 0.930 . S
C1059 C1060 1.355 . S
C1059 C1061 1.415 . S
C1060 C1059 1.355 . S
C1060 C1062 1.419 . S
C1061 C1056 1.425 . S
C1061 C1058 1.409 . S
C1061 C1059 1.415 . S
C1062 H1052 0.930 . S
C1062 C1060 1.419 . S
C1062 C1063 1.362 . S
C1063 H1053 0.930 . S
C1063 C1056 1.409 . S
C1063 C1062 1.362 . S
H1064 C1070 0.930 . S
H1065 C1073 0.930 . S
H1066 C1074 0.930 . S
H1067 C1075 0.930 . S
H1068 C1078 0.930 . S
H1069 C1079 0.930 . S
C1070 H1064 0.930 . S
C1070 C1071 1.355 . S
C1070 C1072 1.415 . S
C1071 C1070 1.355 . S
C1071 C1073 1.419 . S
C1072 C1070 1.415 . S
C1072 C1077 1.425 . S
C1072 C1079 1.409 . S
C1073 H1065 0.930 . S
C1073 C1071 1.419 . S
C1073 C1074 1.362 . S
C1074 H1066 0.930 . S
C1074 C1073 1.362 . S
C1074 C1077 1.409 . S
C1075 H1067 0.930 . S
C1075 C1076 1.355 . S
C1075 C1077 1.415 . S
C1076 C1075 1.355 . S
C1076 C1078 1.419 . S
C1077 C1072 1.425 . S
C1077 C1074 1.409 . S
C1077 C1075 1.415 . S
C1078 H1068 0.930 . S
C1078 C1076 1.419 . S
C1078 C1079 1.362 . S
C1079 H1069 0.930 . S
C1079 C1072 1.409 . S
C1079 C1078 1.362 . S
H1080 C1086 0.930 . S
H1081 C1089 0.930 . S
H1082 C1090 0.930 . S
H1083 C1091 0.930 . S
H1084 C1094 0.930 . S
H1085 C1095 0.930 . S
C1086 H1080 0.930 . S
C1086 C1087 1.355 . S
C1086 C1088 1.415 . S
C1087 C1086 1.355 . S
C1087 C1089 1.419 . S
C1088 C1086 1.415 . S
C1088 C1093 1.425 . S
C1088 C1095 1.409 . S
C1089 H1081 0.930 . S
C1089 C1087 1.419 . S
C1089 C1090 1.362 . S
C1090 H1082 0.930 . S
C1090 C1089 1.362 . S
C1090 C1093 1.409 . S
C1091 H1083 0.930 . S
C1091 C1092 1.355 . S
C1091 C1093 1.415 . S
C1092 C1091 1.355 . S
C1092 C1094 1.419 . S
C1093 C1088 1.425 . S
C1093 C1090 1.409 . S
C1093 C1091 1.415 . S
C1094 H1084 0.930 . S
C1094 C1092 1.419 . S
C1094 C1095 1.362 . S
C1095 H1085 0.930 . S
C1095 C1088 1.409 . S
C1095 C1094 1.362 . S
H1096 C1102 0.930 . S
H1097 C1105 0.930 . S
H1098 C1106 0.930 . S
H1099 C1107 0.930 . S
H1100 C1110 0.930 . S
H1101 C1111 0.930 . S
C1102 H1096 0.930 . S
C1102 C1103 1.355 . S
C1102 C1104 1.415 . S
C1103 C1102 1.355 . S
C1103 C1105 1.419 . S
C1104 C1102 1.415 . S
C1104 C1109 1.425 . S
C1104 C1111 1.409 . S
C1105 H1097 0.930 . S
C1105 C1103 1.419 . S
C1105 C1106 1.362 . S
C1106 H1098 0.930 . S
C1106 C1105 1.362 . S
C1106 C1109 1.409 . S
C1107 H1099 0.930 . S
C1107 C1108 1.355 . S
C1107 C1109 1.415 . S
C1108 C1107 1.355 . S
C1108 C1110 1.419 . S
C1109 C1104 1.425 . S
C1109 C1106 1.409 . S
C1109 C1107 1.415 . S
C1110 H1100 0.930 . S
C1110 C1108 1.419 . S
C1110 C1111 1.362 . S
C1111 H1101 0.930 . S
C1111 C1104 1.409 . S
C1111 C1110 1.362 . S
H1112 C1118 0.930 . S
H1113 C1121 0.930 . S
H1114 C1122 0.930 . S
H1115 C1123 0.930 . S
H1116 C1126 0.930 . S
H1117 C1127 0.930 . S
C1118 H1112 0.930 . S
C1118 C1119 1.355 . S
C1118 C1120 1.415 . S
C1119 C1118 1.355 . S
C1119 C1121 1.419 . S
C1120 C1118 1.415 . S
C1120 C1125 1.425 . S
C1120 C1127 1.409 . S
C1121 H1113 0.930 . S
C1121 C1119 1.419 . S
C1121 C1122 1.362 . S
C1122 H1114 0.930 . S
C1122 C1121 1.362 . S
C1122 C1125 1.409 . S
C1123 H1115 0.930 . S
C1123 C1124 1.355 . S
C1123 C1125 1.415 . S
C1124 C1123 1.355 . S
C1124 C1126 1.419 . S
C1125 C1120 1.425 . S
C1125 C1122 1.409 . S
C1125 C1123 1.415 . S
C1126 H1116 0.930 . S
C1126 C1124 1.419 . S
C1126 C1127 1.362 . S
C1127 H1117 0.930 . S
C1127 C1120 1.409 . S
C1127 C1126 1.362 . S
H1128 C1134 0.930 . S
H1129 C1137 0.930 . S
H1130 C1138 0.930 . S
H1131 C1139 0.930 . S
H1132 C1142 0.930 . S
H1133 C1143 0.930 . S
C1134 H1128 0.930 . S
C1134 C1135 1.355 . S
C1134 C1136 1.415 . S
C1135 C1134 1.355 . S
C1135 C1137 1.419 . S
C1136 C1134 1.415 . S
C1136 C1141 1.425 . S
C1136 C1143 1.409 . S
C1137 H1129 0.930 . S
C1137 C1135 1.419 . S
C1137 C1138 1.362 . S
C1138 H1130 0.930 . S
C1138 C1137 1.362 . S
C1138 C1141 1.409 . S
C1139 H1131 0.930 . S
C1139 C1140 1.355 . S
C1139 C1141 1.415 . S
C1140 C1139 1.355 . S
C1140 C1142 1.419 . S
C1141 C1136 1.425 . S
C1141 C1138 1.409 . S
C1141 C1139 1.415 . S
C1142 H1132 0.930 . S
C1142 C1140 1.419 . S
C1142 C1143 1.362 . S
C1143 H1133 0.930 . S
C1143 C1136 1.409 . S
C1143 C1142 1.362 . S
H1144 C1150 0.930 . S
H1145 C1153 0.930 . S
H1146 C1154 0.930 . S
H1147 C1155 0.930 . S
H1148 C1158 0.930 . S
H1149 C1159 0.930 . S
C1150 H1144 0.930 . S
C1150 C1151 1.355 . S
C1150 C1152 1.415 . S
C1151 C1150 1.355 . S
C1151 C1153 1.419 . S
C1152 C1150 1.415 . S
C1152 C1157 1.425 . S
C1152 C1159 1.409 . S
C1153 H1145 0.930 . S
C1153 C1151 1.419 . S
C1153 C1154 1.362 . S
C1154 H1146 0.930 . S
C1154 C1153 1.362 . S
C1154 C1157 1.409 . S
C1155 H1147 0.930 . S
C1155 C1156 1.355 . S
C1155 C1157 1.415 . S
C1156 C1155 1.355 . S
C1156 C1158 1.419 . S
C1157 C1152 1.425 . S
C1157 C1154 1.409 . S
C1157 C1155 1.415 . S
C1158 H1148 0.930 . S
C1158 C1156 1.419 . S
C1158 C1159 1.362 . S
C1159 H1149 0.930 . S
C1159 C1152 1.409 . S
C1159 C1158 1.362 . S
H1160 C1166 0.930 . S
H1161 C1169 0.930 . S
H1162 C1170 0.930 . S
H1163 C1171 0.930 . S
H1164 C1174 0.930 . S
H1165 C1175 0.930 . S
C1166 H1160 0.930 . S
C1166 C1167 1.355 . S
C1166 C1168 1.415 . S
C1167 C1166 1.355 . S
C1167 C1169 1.419 . S
C1168 C1166 1.415 . S
C1168 C1173 1.425 . S
C1168 C1175 1.409 . S
C1169 H1161 0.930 . S
C1169 C1167 1.419 . S
C1169 C1170 1.362 . S
C1170 H1162 0.930 . S
C1170 C1169 1.362 . S
C1170 C1173 1.409 . S
C1171 H1163 0.930 . S
C1171 C1172 1.355 . S
C1171 C1173 1.415 . S
C1172 C1171 1.355 . S
C1172 C1174 1.419 . S
C1173 C1168 1.425 . S
C1173 C1170 1.409 . S
C1173 C1171 1.415 . S
C1174 H1164 0.930 . S
C1174 C1172 1.419 . S
C1174 C1175 1.362 . S
C1175 H1165 0.930 . S
C1175 C1168 1.409 . S
C1175 C1174 1.362 . S
H1176 C1182 0.930 . S
H1177 C1185 0.930 . S
H1178 C1186 0.930 . S
H1179 C1187 0.930 . S
H1180 C1190 0.930 . S
H1181 C1191 0.930 . S
C1182 H1176 0.930 . S
C1182 C1183 1.355 . S
C1182 C1184 1.415 . S
C1183 C1182 1.355 . S
C1183 C1185 1.419 . S
C1184 C1182 1.415 . S
C1184 C1189 1.425 . S
C1184 C1191 1.409 . S
C1185 H1177 0.930 . S
C1185 C1183 1.419 . S
C1185 C1186 1.362 . S
C1186 H1178 0.930 . S
C1186 C1185 1.362 . S
C1186 C1189 1.409 . S
C1187 H1179 0.930 . S
C1187 C1188 1.355 . S
C1187 C1189 1.415 . S
C1188 C1187 1.355 . S
C1188 C1190 1.419 . S
C1189 C1184 1.425 . S
C1189 C1186 1.409 . S
C1189 C1187 1.415 . S
C1190 H1180 0.930 . S
C1190 C1188 1.419 . S
C1190 C1191 1.362 . S
C1191 H1181 0.930 . S
C1191 C1184 1.409 . S
C1191 C1190 1.362 . S
H1192 C1198 0.930 . S
H1193 C1201 0.930 . S
H1194 C1202 0.930 . S
H1195 C1203 0.930 . S
H1196 C1206 0.930 . S
H1197 C1207 0.930 . S
C1198 H1192 0.930 . S
C1198 C1199 1.355 . S
C1198 C1200 1.415 . S
C1199 C1198 1.355 . S
C1199 C1201 1.419 . S
C1200 C1198 1.415 . S
C1200 C1205 1.425 . S
C1200 C1207 1.409 . S
C1201 H1193 0.930 . S
C1201 C1199 1.419 . S
C1201 C1202 1.362 . S
C1202 H1194 0.930 . S
C1202 C1201 1.362 . S
C1202 C1205 1.409 . S
C1203 H1195 0.930 . S
C1203 C1204 1.355 . S
C1203 C1205 1.415 . S
C1204 C1203 1.355 . S
C1204 C1206 1.419 . S
C1205 C1200 1.425 . S
C1205 C1202 1.409 . S
C1205 C1203 1.415 . S
C1206 H1196 0.930 . S
C1206 C1204 1.419 . S
C1206 C1207 1.362 . S
C1207 H1197 0.930 . S
C1207 C1200 1.409 . S
C1207 C1206 1.362 . S
H1208 C1214 0.930 . S
H1209 C1217 0.930 . S
H1210 C1218 0.930 . S
H1211 C1219 0.930 . S
H1212 C1222 0.930 . S
H1213 C1223 0.930 . S
C1214 H1208 0.930 . S
C1214 C1215 1.355 . S
C1214 C1216 1.415 . S
C1215 C1214 1.355 . S
C1215 C1217 1.419 . S
C1216 C1214 1.415 . S
C1216 C1221 1.425 . S
C1216 C1223 1.409 . S
C1217 H1209 0.930 . S
C1217 C1215 1.419 . S
C1217 C1218 1.362 . S
C1218 H1210 0.930 . S
C1218 C1217 1.362 . S
C1218 C1221 1.409 . S
C1219 H1211 0.930 . S
C1219 C1220 1.355 . S
C1219 C1221 1.415 . S
C1220 C1219 1.355 . S
C1220 C1222 1.419 . S
C1221 C1216 1.425 . S
C1221 C1218 1.409 . S
C1221 C1219 1.415 . S
C1222 H1212 0.930 . S
C1222 C1220 1.419 . S
C1222 C1223 1.362 . S
C1223 H1213 0.930 . S
C1223 C1216 1.409 . S
C1223 C1222 1.362 . S
H1224 C1230 0.930 . S
H1225 C1233 0.930 . S
H1226 C1234 0.930 . S
H1227 C1235 0.930 . S
H1228 C1238 0.930 . S
H1229 C1239 0.930 . S
C1230 H1224 0.930 . S
C1230 C1231 1.355 . S
C1230 C1232 1.415 . S
C1231 C1230 1.355 . S
C1231 C1233 1.419 . S
C1232 C1230 1.415 . S
C1232 C1237 1.425 . S
C1232 C1239 1.409 . S
C1233 H1225 0.930 . S
C1233 C1231 1.419 . S
C1233 C1234 1.362 . S
C1234 H1226 0.930 . S
C1234 C1233 1.362 . S
C1234 C1237 1.409 . S
C1235 H1227 0.930 . S
C1235 C1236 1.355 . S
C1235 C1237 1.415 . S
C1236 C1235 1.355 . S
C1236 C1238 1.419 . S
C1237 C1232 1.425 . S
C1237 C1234 1.409 . S
C1237 C1235 1.415 . S
C1238 H1228 0.930 . S
C1238 C1236 1.419 . S
C1238 C1239 1.362 . S
C1239 H1229 0.930 . S
C1239 C1232 1.409 . S
C1239 C1238 1.362 . S
H1240 C1246 0.930 . S
H1241 C1249 0.930 . S
H1242 C1250 0.930 . S
H1243 C1251 0.930 . S
H1244 C1254 0.930 . S
H1245 C1255 0.930 . S
C1246 H1240 0.930 . S
C1246 C1247 1.355 . S
C1246 C1248 1.415 . S
C1247 C1246 1.355 . S
C1247 C1249 1.419 . S
C1248 C1246 1.415 . S
C1248 C1253 1.425 . S
C1248 C1255 1.409 . S
C1249 H1241 0.930 . S
C1249 C1247 1.419 . S
C1249 C1250 1.362 . S
C1250 H1242 0.930 . S
C1250 C1249 1.362 . S
C1250 C1253 1.409 . S
C1251 H1243 0.930 . S
C1251 C1252 1.355 . S
C1251 C1253 1.415 . S
C1252 C1251 1.355 . S
C1252 C1254 1.419 . S
C1253 C1248 1.425 . S
C1253 C1250 1.409 . S
C1253 C1251 1.415 . S
C1254 H1244 0.930 . S
C1254 C1252 1.419 . S
C1254 C1255 1.362 . S
C1255 H1245 0.930 . S
C1255 C1248 1.409 . S
C1255 C1254 1.362 . S
H1256 C1262 0.930 . S
H1257 C1265 0.930 . S
H1258 C1266 0.930 . S
H1259 C1267 0.930 . S
H1260 C1270 0.930 . S
H1261 C1271 0.930 . S
C1262 H1256 0.930 . S
C1262 C1263 1.355 . S
C1262 C1264 1.415 . S
C1263 C1262 1.355 . S
C1263 C1265 1.419 . S
C1264 C1262 1.415 . S
C1264 C1269 1.425 . S
C1264 C1271 1.409 . S
C1265 H1257 0.930 . S
C1265 C1263 1.419 . S
C1265 C1266 1.362 . S
C1266 H1258 0.930 . S
C1266 C1265 1.362 . S
C1266 C1269 1.409 . S
C1267 H1259 0.930 . S
C1267 C1268 1.355 . S
C1267 C1269 1.415 . S
C1268 C1267 1.355 . S
C1268 C1270 1.419 . S
C1269 C1264 1.425 . S
C1269 C1266 1.409 . S
C1269 C1267 1.415 . S
C1270 H1260 0.930 . S
C1270 C1268 1.419 . S
C1270 C1271 1.362 . S
C1271 H1261 0.930 . S
C1271 C1264 1.409 . S
C1271 C1270 1.362 . S
H1272 C1278 0.930 . S
H1273 C1281 0.930 . S
H1274 C1282 0.930 . S
H1275 C1283 0.930 . S
H1276 C1286 0.930 . S
H1277 C1287 0.930 . S
C1278 H1272 0.930 . S
C1278 C1279 1.355 . S
C1278 C1280 1.415 . S
C1279 C1278 1.355 . S
C1279 C1281 1.419 . S
C1280 C1278 1.415 . S
C1280 C1285 1.425 . S
C1280 C1287 1.409 . S
C1281 H1273 0.930 . S
C1281 C1279 1.419 . S
C1281 C1282 1.362 . S
C1282 H1274 0.930 . S
C1282 C1281 1.362 . S
C1282 C1285 1.409 . S
C1283 H1275 0.930 . S
C1283 C1284 1.355 . S
C1283 C1285 1.415 . S
C1284 C1283 1.355 . S
C1284 C1286 1.419 . S
C1285 C1280 1.425 . S
C1285 C1282 1.409 . S
C1285 C1283 1.415 . S
C1286 H1276 0.930 . S
C1286 C1284 1.419 . S
C1286 C1287 1.362 . S
C1287 H1277 0.930 . S
C1287 C1280 1.409 . S
C1287 C1286 1.362 . S
H1288 C1294 0.930 . S
H1289 C1297 0.930 . S
H1290 C1298 0.930 . S
H1291 C1299 0.930 . S
H1292 C1302 0.930 . S
H1293 C1303 0.930 . S
C1294 H1288 0.930 . S
C1294 C1295 1.355 . S
C1294 C1296 1.415 . S
C1295 C1294 1.355 . S
C1295 C1297 1.419 . S
C1296 C1294 1.415 . S
C1296 C1301 1.425 . S
C1296 C1303 1.409 . S
C1297 H1289 0.930 . S
C1297 C1295 1.419 . S
C1297 C1298 1.362 . S
C1298 H1290 0.930 . S
C1298 C1297 1.362 . S
C1298 C1301 1.409 . S
C1299 H1291 0.930 . S
C1299 C1300 1.355 . S
C1299 C1301 1.415 . S
C1300 C1299 1.355 . S
C1300 C1302 1.419 . S
C1301 C1296 1.425 . S
C1301 C1298 1.409 . S
C1301 C1299 1.415 . S
C1302 H1292 0.930 . S
C1302 C1300 1.419 . S
C1302 C1303 1.362 . S
C1303 H1293 0.930 . S
C1303 C1296 1.409 . S
C1303 C1302 1.362 . S
H1304 C1310 0.930 . S
H1305 C1313 0.930 . S
H1306 C1314 0.930 . S
H1307 C1315 0.930 . S
H1308 C1318 0.930 . S
H1309 C1319 0.930 . S
C1310 H1304 0.930 . S
C1310 C1311 1.355 . S
C1310 C1312 1.415 . S
C1311 C1310 1.355 . S
C1311 C1313 1.419 . S
C1312 C1310 1.415 . S
C1312 C1317 1.425 . S
C1312 C1319 1.409 . S
C1313 H1305 0.930 . S
C1313 C1311 1.419 . S
C1313 C1314 1.362 . S
C1314 H1306 0.930 . S
C1314 C1313 1.362 . S
C1314 C1317 1.409 . S
C1315 H1307 0.930 . S
C1315 C1316 1.355 . S
C1315 C1317 1.415 . S
C1316 C1315 1.355 . S
C1316 C1318 1.419 . S
C1317 C1312 1.425 . S
C1317 C1314 1.409 . S
C1317 C1315 1.415 . S
C1318 H1308 0.930 . S
C1318 C1316 1.419 . S
C1318 C1319 1.362 . S
C1319 H1309 0.930 . S
C1319 C1312 1.409 . S
C1319 C1318 1.362 . S
C559 C522 1.906 . S
C564 N12 2.037 . S
C575 C39 2.022 . S
C580 N380 2.125 . S
C591 C545 1.875 . S
C596 N58 1.993 . S
C607 N495 2.087 . S
C612 N81 2.073 . S
C623 N426 2.148 . S
C628 N104 2.138 . S
C639 C453 2.188 . S
C644 N127 2.110 . S
C655 N472 2.250 . S
C660 C154 2.267 . S
C671 C177 2.021 . S
C676 C407 2.190 . S
C687 C315 2.261 . S
C692 C200 2.385 . S
C703 N334 1.979 . S
C708 N219 2.014 . S
C719 C246 2.373 . S
C724 C361 2.285 . S
C735 N265 2.040 . S
C740 N288 2.044 . S
C751 N173 2.130 1_545 S
C756 C338 2.000 . S
C767 N357 2.183 . S
C772 C108 2.090 . S
C783 C131 2.097 . S
C788 C292 1.978 . S
C799 N311 2.048 . S
C804 N150 2.062 . S
C815 N242 2.094 . S
C820 N35 2.105 . S
C831 C62 1.966 . S
C836 C269 2.140 . S
C847 C85 2.211 . S
C852 N196 2.150 . S
C863 C16 2.020 . S
C868 C223 2.172 . S
C879 C476 2.330 . S
C884 C499 2.198 . S
C895 N518 2.008 . S
C900 N403 1.985 . S
C911 C430 2.406 . S
C916 C384 2.304 . S
C927 N541 1.984 1_556 S
C932 N449 1.991 . S
C943 N2 1.147 . S
C948 N186 1.043 . S
C959 C214 1.651 . S
C964 C30 1.654 . S
C975 N48 1.108 . S
C980 N232 1.146 . S
C991 N71 1.325 . S
C996 C260 1.397 . S
C1007 N94 1.355 . S
C1012 C283 1.487 . S
C1023 N117 1.208 . S
C1028 N301 1.201 . S
C1039 C329 1.702 . S
C1044 C145 1.759 . S
C1055 N347 1.414 . S
C1060 C168 1.459 . S
C1071 C191 1.831 . S
C1076 C375 1.828 . S
C1087 N209 1.017 . S
C1092 N531 0.972 . S
C1103 C490 1.803 . S
C1108 C237 1.816 . S
C1119 N508 1.100 . S
C1124 N255 0.997 . S
C1135 N393 1.192 . S
C1140 N278 1.080 . S
C1151 C421 1.862 . S
C1156 C306 1.811 . S
C1167 N324 1.028 . S
C1172 N439 1.015 . S
C1183 C352 1.807 . S
C1188 C467 1.818 . S
C1199 C7 1.479 . S
C1204 N370 1.431 . S
C1215 C398 1.659 . S
C1220 C99 1.713 . S
C1231 N416 1.329 . S
C1236 C122 1.405 . S
C1247 C444 1.396 . S
C1252 N140 1.318 . S
C1263 N462 1.099 . S
C1268 N163 1.119 . S
C1279 N485 1.446 . S
C1284 C53 1.526 . S
C1295 C76 1.679 . S
C1300 C513 1.650 . S
C1311 C536 1.530 . S
C1316 N25 1.445 . S
