# Generated by pormake.
# Topology smm, (6)-cn, num edge types: 1
# Building blocks:
#     Node 0, Type 0, BuildingBlock: UKALOJ_clean_sbu_0, # of connection points: 6
#     Node 1, Type 0, BuildingBlock: UKALOJ_clean_sbu_0, # of connection points: 6
#     Node 2, Type 0, BuildingBlock: UKALOJ_clean_sbu_0, # of connection points: 6
#     Node 3, Type 0, BuildingBlock: UKALOJ_clean_sbu_0, # of connection points: 6
#     Node 4, Type 0, BuildingBlock: UKALOJ_clean_sbu_0, # of connection points: 6
#     Node 5, Type 0, BuildingBlock: UKALOJ_clean_sbu_0, # of connection points: 6
#     Node 6, Type 0, BuildingBlock: UKALOJ_clean_sbu_0, # of connection points: 6
#     Node 7, Type 0, BuildingBlock: UKALOJ_clean_sbu_0, # of connection points: 6
#     Node 8, Type 0, BuildingBlock: UKALOJ_clean_sbu_0, # of connection points: 6
#     Edge 9, Type (0, 0), BuildingBlock: KIFKEQ_clean_linker_1, # of connection points: 2
#     Edge 10, Type (0, 0), BuildingBlock: KIFKEQ_clean_linker_1, # of connection points: 2
#     Edge 11, Type (0, 0), BuildingBlock: KIFKEQ_clean_linker_1, # of connection points: 2
#     Edge 12, Type (0, 0), BuildingBlock: KIFKEQ_clean_linker_1, # of connection points: 2
#     Edge 13, Type (0, 0), BuildingBlock: KIFKEQ_clean_linker_1, # of connection points: 2
#     Edge 14, Type (0, 0), BuildingBlock: KIFKEQ_clean_linker_1, # of connection points: 2
#     Edge 15, Type (0, 0), BuildingBlock: KIFKEQ_clean_linker_1, # of connection points: 2
#     Edge 16, Type (0, 0), BuildingBlock: KIFKEQ_clean_linker_1, # of connection points: 2
#     Edge 17, Type (0, 0), BuildingBlock: KIFKEQ_clean_linker_1, # of connection points: 2
#     Edge 18, Type (0, 0), BuildingBlock: KIFKEQ_clean_linker_1, # of connection points: 2
#     Edge 19, Type (0, 0), BuildingBlock: KIFKEQ_clean_linker_1, # of connection points: 2
#     Edge 20, Type (0, 0), BuildingBlock: KIFKEQ_clean_linker_1, # of connection points: 2
#     Edge 21, Type (0, 0), BuildingBlock: KIFKEQ_clean_linker_1, # of connection points: 2
#     Edge 22, Type (0, 0), BuildingBlock: KIFKEQ_clean_linker_1, # of connection points: 2
#     Edge 23, Type (0, 0), BuildingBlock: KIFKEQ_clean_linker_1, # of connection points: 2
#     Edge 24, Type (0, 0), BuildingBlock: KIFKEQ_clean_linker_1, # of connection points: 2
#     Edge 25, Type (0, 0), BuildingBlock: KIFKEQ_clean_linker_1, # of connection points: 2
#     Edge 26, Type (0, 0), BuildingBlock: KIFKEQ_clean_linker_1, # of connection points: 2
#     Edge 27, Type (0, 0), BuildingBlock: KIFKEQ_clean_linker_1, # of connection points: 2
#     Edge 28, Type (0, 0), BuildingBlock: KIFKEQ_clean_linker_1, # of connection points: 2
#     Edge 29, Type (0, 0), BuildingBlock: KIFKEQ_clean_linker_1, # of connection points: 2
#     Edge 30, Type (0, 0), BuildingBlock: KIFKEQ_clean_linker_1, # of connection points: 2
#     Edge 31, Type (0, 0), BuildingBlock: KIFKEQ_clean_linker_1, # of connection points: 2
#     Edge 32, Type (0, 0), BuildingBlock: KIFKEQ_clean_linker_1, # of connection points: 2
#     Edge 33, Type (0, 0), BuildingBlock: KIFKEQ_clean_linker_1, # of connection points: 2
#     Edge 34, Type (0, 0), BuildingBlock: KIFKEQ_clean_linker_1, # of connection points: 2
#     Edge 35, Type (0, 0), BuildingBlock: KIFKEQ_clean_linker_1, # of connection points: 2
# Relax obj value: 0.318
# Max RMSD: 0.270
# Mean RMSD: 0.256
data_MOF--net-smm--node1-UKALOJ_clean_sbu_0--edge1-KIFKEQ_clean_linker_1
_symmetry_space_group_name_H-M    P1
_symmetry_Int_Tables_number       1
_symmetry_cell_setting            triclinic
loop_
_symmetry_equiv_pos_as_xyz
'x, y, z'
_cell_length_a     49.341534
_cell_length_b     48.545381
_cell_length_c     19.954541
_cell_angle_alpha  92.963252
_cell_angle_beta   92.792551
_cell_angle_gamma 119.93457
loop_
_atom_site_label
_atom_site_type_symbol
_atom_site_fract_x
_atom_site_fract_y
_atom_site_fract_z
_atom_type_partial_charge
Zn0 Zn 0.01302 0.21089 0.07646 0.0
O1 O 0.97564 0.1634 0.09731 0.0
C2 C 0.04468 0.17865 0.02544 0.0
Zn3 Zn 0.9975 0.19631 0.96847 0.0
C4 C 0.95687 0.14482 0.04787 0.0
O5 O 0.96079 0.15417 0.98946 0.0
C6 C 0.05315 0.26099 0.98791 0.0
O7 O 0.96688 0.21682 0.97034 0.0
O8 O 0.98194 0.22724 0.0785 0.0
N9 N 0.98544 0.18114 0.8689 0.0
C10 C 0.98982 0.19729 0.81385 0.0
C11 C 0.97153 0.1484 0.77982 0.0
N12 N 0.97384 0.15072 0.84768 0.0
N13 N 0.98152 0.17734 0.75754 0.0
C14 C 0.02241 0.21086 0.23129 0.0
C15 C 0.03452 0.25847 0.2637 0.0
N16 N 0.02473 0.2262 0.17568 0.0
N17 N 0.0326 0.25588 0.19593 0.0
N18 N 0.02849 0.23062 0.28694 0.0
H19 H 0.98564 0.16255 0.23265 0.0
H20 H 0.02208 0.17131 0.27639 0.0
H21 H 0.01778 0.16737 0.18531 0.0
C22 C 0.01153 0.17601 0.23121 0.0
C23 C 0.00107 0.23227 0.81489 0.0
H24 H 0.99445 0.24068 0.86057 0.0
H25 H 0.99103 0.23736 0.7694 0.0
H26 H 0.02698 0.24569 0.81477 0.0
O27 O 0.03474 0.23844 0.94492 0.0
O28 O 0.04957 0.2575 0.05036 0.0
C29 C 0.96539 0.22769 0.0288 0.0
O30 O 0.04411 0.1944 0.07736 0.0
O31 O 0.02771 0.17547 0.97194 0.0
Zn32 Zn 0.82151 0.85399 0.11946 0.0
O33 O 0.77109 0.83814 0.1162 0.0
C34 C 0.80323 0.78638 0.10167 0.0
Zn35 Zn 0.81685 0.8389 0.01248 0.0
C36 C 0.75745 0.8309 0.05668 0.0
O37 O 0.77227 0.83057 0.00729 0.0
C38 C 0.88123 0.86305 0.06411 0.0
O39 O 0.83313 0.88839 0.99037 0.0
O40 O 0.82989 0.8977 0.09722 0.0
N41 N 0.80911 0.82316 0.91384 0.0
C42 C 0.82357 0.83695 0.85945 0.0
C43 C 0.78244 0.79293 0.82436 0.0
N44 N 0.78374 0.79569 0.89206 0.0
N45 N 0.80731 0.8184 0.80294 0.0
C46 C 0.81677 0.85453 0.27309 0.0
C47 C 0.85115 0.90253 0.30727 0.0
N48 N 0.82878 0.86987 0.21829 0.0
N49 N 0.85002 0.89974 0.23952 0.0
N50 N 0.83056 0.87442 0.32931 0.0
H51 H 0.77523 0.81326 0.22441 0.0
H52 H 0.7766 0.8173 0.31528 0.0
H53 H 0.80095 0.8048 0.27516 0.0
C54 C 0.79074 0.82055 0.2717 0.0
C55 C 0.85161 0.86981 0.86111 0.0
H56 H 0.84346 0.88711 0.85391 0.0
H57 H 0.86639 0.87134 0.81979 0.0
H58 H 0.866 0.87659 0.90984 0.0
O59 O 0.86171 0.84727 0.01422 0.0
O60 O 0.87158 0.87023 0.11683 0.0
C61 C 0.8353 0.90754 0.03941 0.0
O62 O 0.81352 0.81013 0.14468 0.0
O63 O 0.80031 0.79027 0.03955 0.0
Zn64 Zn 0.17154 0.01849 0.93426 0.0
O65 O 0.2226 0.05026 0.94007 0.0
C66 C 0.18531 0.96611 0.93185 0.0
Zn67 Zn 0.17464 0.00528 0.03585 0.0
C68 C 0.23583 0.05634 -0.0002 0.0
O69 O 0.2201 0.04155 0.047 0.0
C70 C 0.11001 0.96852 0.98148 0.0
O71 O 0.1599 0.03884 0.07062 0.0
O72 O 0.16717 0.0562 0.9702 0.0
N73 N 0.18092 0.99559 0.13146 0.0
C74 C 0.16662 0.99529 0.18746 0.0
C75 C 0.20651 0.99122 0.21705 0.0
N76 N 0.2055 0.99273 0.14985 0.0
N77 N 0.18223 0.99255 0.24163 0.0
C78 C 0.17667 0.02397 0.78101 0.0
C79 C 0.14555 0.04101 0.75505 0.0
N80 N 0.16576 0.02869 0.8385 0.0
N81 N 0.14656 0.03946 0.82233 0.0
N82 N 0.16414 0.03124 0.72809 0.0
H83 H 0.21616 0.0211 0.82384 0.0
H84 H 0.21489 0.02359 0.73379 0.0
H85 H 0.18825 0.98713 0.76819 0.0
C86 C 0.20051 0.01351 0.7767 0.0
C87 C 0.13945 0.00092 0.19026 0.0
H88 H 0.14854 0.02675 0.20282 0.0
H89 H 0.12433 0.98777 0.23002 0.0
H90 H 0.12512 0.99337 0.14132 0.0
O91 O 0.12882 0.96903 0.02761 0.0
O92 O 0.12093 0.98727 0.93482 0.0
C93 C 0.16044 0.05844 0.02979 0.0
O94 O 0.17527 0.98041 0.89622 0.0
O95 O 0.18975 0.97271 0.99558 0.0
Zn96 Zn 0.63475 0.51514 0.24877 0.0
O97 O 0.67171 0.50605 0.21841 0.0
C98 C 0.60534 0.4508 0.28763 0.0
Zn99 Zn 0.65306 0.51703 0.35385 0.0
C100 C 0.69201 0.50737 0.2625 0.0
O101 O 0.69011 0.51299 0.32409 0.0
C102 C 0.59638 0.52438 0.3476 0.0
O103 O 0.68317 0.56866 0.36082 0.0
O104 O 0.66538 0.56348 0.25517 0.0
N105 N 0.66563 0.51433 0.45162 0.0
C106 C 0.66111 0.52597 0.51017 0.0
C107 C 0.67891 0.49544 0.53459 0.0
N108 N 0.67692 0.49554 0.46696 0.0
N109 N 0.66898 0.51426 0.56276 0.0
C110 C 0.62498 0.50537 0.09216 0.0
C111 C 0.61394 0.54129 0.06986 0.0
N112 N 0.62258 0.51837 0.15134 0.0
N113 N 0.61538 0.54044 0.13725 0.0
N114 N 0.61965 0.51934 0.04048 0.0
H115 H 0.66111 0.4937 0.08281 0.0
H116 H 0.62429 0.46552 0.03761 0.0
H117 H 0.62899 0.4663 0.12822 0.0
C118 C 0.63527 0.48116 0.08502 0.0
C119 C 0.65016 0.5497 0.51638 0.0
H120 H 0.65656 0.56462 0.47326 0.0
H121 H 0.6606 0.56528 0.56407 0.0
H122 H 0.6243 0.53685 0.51752 0.0
O123 O 0.61552 0.5207 0.38514 0.0
O124 O 0.59866 0.5243 0.28421 0.0
C125 C 0.6829 0.58104 0.30612 0.0
O126 O 0.60409 0.46675 0.24052 0.0
O127 O 0.6234 0.46538 0.34108 0.0
Zn128 Zn 0.49878 0.16627 0.33741 0.0
O129 O 0.4479 0.14507 0.32915 0.0
C130 C 0.49027 0.10062 0.32901 0.0
Zn131 Zn 0.49761 0.14761 0.23304 0.0
C132 C 0.43448 0.13268 0.2704 0.0
O133 O 0.45044 0.13161 0.22383 0.0
C134 C 0.56228 0.18274 0.29024 0.0
O135 O 0.50706 0.19477 0.2058 0.0
O136 O 0.50179 0.2072 0.30973 0.0
N137 N 0.49331 0.13165 0.13408 0.0
C138 C 0.50665 0.14695 0.07988 0.0
C139 C 0.46971 0.10039 0.04374 0.0
N140 N 0.47057 0.10261 0.11148 0.0
N141 N 0.49226 0.12783 0.02279 0.0
C142 C 0.49178 0.16572 0.49115 0.0
C143 C 0.52164 0.21459 0.52679 0.0
N144 N 0.50276 0.18206 0.43674 0.0
N145 N 0.52116 0.21247 0.459 0.0
N146 N 0.5035 0.18552 0.54809 0.0
H147 H 0.45349 0.12213 0.44079 0.0
H148 H 0.45373 0.12545 0.53155 0.0
H149 H 0.48149 0.11742 0.49313 0.0
C150 C 0.46864 0.13067 0.48876 0.0
C151 C 0.53157 0.1814 0.08215 0.0
H152 H 0.52024 0.19594 0.07436 0.0
H153 H 0.5472 0.18526 0.04123 0.0
H154 H 0.54582 0.1896 0.13124 0.0
O155 O 0.54509 0.16366 0.24042 0.0
O156 O 0.54953 0.18868 0.33884 0.0
C157 C 0.50628 0.21438 0.24975 0.0
O158 O 0.49616 0.12489 0.36714 0.0
O159 O 0.48772 0.10149 0.26536 0.0
Zn160 Zn 0.83993 0.35839 0.36134 0.0
O161 O 0.86107 0.32829 0.35599 0.0
C162 C 0.90491 0.41446 0.378 0.0
Zn163 Zn 0.85682 0.37806 0.26585 0.0
C164 C 0.8697 0.32603 0.2977 0.0
O165 O 0.86873 0.34319 0.25327 0.0
C166 C 0.82526 0.40931 0.31897 0.0
O167 O 0.80901 0.34403 0.2231 0.0
O168 O 0.79913 0.32058 0.31716 0.0
N169 N 0.8715 0.39058 0.17254 0.0
C170 C 0.85554 0.38869 0.11406 0.0
C171 C 0.90094 0.39807 0.09116 0.0
N172 N 0.89978 0.39668 0.15825 0.0
N173 N 0.87336 0.39281 0.06193 0.0
C174 C 0.84059 0.35007 0.51441 0.0
C175 C 0.79239 0.33048 0.53186 0.0
N176 N 0.82457 0.34496 0.45406 0.0
N177 N 0.79457 0.33253 0.46498 0.0
N178 N 0.821 0.34142 0.56385 0.0
H179 H 0.88405 0.35647 0.48033 0.0
H180 H 0.88058 0.35285 0.56974 0.0
H181 H 0.88759 0.38903 0.53543 0.0
C182 C 0.87522 0.3627 0.5253 0.0
C183 C 0.8233 0.38464 0.10892 0.0
H184 H 0.80545 0.35889 0.10192 0.0
H185 H 0.82018 0.39638 0.06531 0.0
H186 H 0.81922 0.39496 0.15553 0.0
O187 O 0.84471 0.4129 0.27631 0.0
O188 O 0.81802 0.38778 0.35992 0.0
C189 C 0.79057 0.32153 0.25708 0.0
O190 O 0.88083 0.39679 0.40742 0.0
O191 O 0.90367 0.41112 0.31391 0.0
Zn192 Zn 0.34669 0.87802 0.71536 0.0
O193 O 0.30755 0.83092 0.73569 0.0
C194 C 0.38075 0.84583 0.67746 0.0
Zn195 Zn 0.33433 0.86105 0.60733 0.0
C196 C 0.29122 0.81096 0.68552 0.0
O197 O 0.29828 0.81852 0.62673 0.0
C198 C 0.38835 0.92709 0.62745 0.0
O199 O 0.30145 0.87908 0.60109 0.0
O200 O 0.31645 0.89493 0.70818 0.0
N201 N 0.32513 0.8454 0.50787 0.0
C202 C 0.32926 0.86133 0.45253 0.0
C203 C 0.3134 0.8128 0.41931 0.0
N204 N 0.3151 0.81521 0.48717 0.0
N205 N 0.32228 0.84148 0.39663 0.0
C206 C 0.3535 0.87911 0.87055 0.0
C207 C 0.36346 0.92624 0.9012 0.0
N208 N 0.35559 0.89399 0.81432 0.0
N209 N 0.362 0.92333 0.83344 0.0
N210 N 0.35845 0.89888 0.9254 0.0
H211 H 0.3181 0.8308 0.8788 0.0
H212 H 0.35625 0.84096 0.91495 0.0
H213 H 0.34788 0.83497 0.8247 0.0
C214 C 0.34356 0.84451 0.87194 0.0
C215 C 0.33895 0.89595 0.45275 0.0
H216 H 0.33079 0.90367 0.49681 0.0
H217 H 0.32926 0.90046 0.40594 0.0
H218 H 0.36493 0.91049 0.45514 0.0
O219 O 0.37072 0.90401 0.58492 0.0
O220 O 0.38456 0.92418 0.68996 0.0
C221 C 0.29974 0.89262 0.65598 0.0
O222 O 0.37717 0.86134 0.72565 0.0
O223 O 0.36646 0.84225 0.61967 0.0
Zn224 Zn 0.15414 0.52544 0.76893 0.0
O225 O 0.10304 0.50538 0.76028 0.0
C226 C 0.14522 0.46003 0.75615 0.0
Zn227 Zn 0.15279 0.50877 0.66342 0.0
C228 C 0.08969 0.49311 0.70143 0.0
O229 O 0.1058 0.49241 0.65493 0.0
C230 C 0.2174 0.54145 0.72024 0.0
O231 O 0.16228 0.55638 0.63893 0.0
O232 O 0.15901 0.56751 0.74475 0.0
N233 N 0.14814 0.49344 0.56481 0.0
C234 C 0.15992 0.50952 0.51068 0.0
C235 C 0.12647 0.46148 0.4748 0.0
N236 N 0.12754 0.46354 0.54253 0.0
N237 N 0.14639 0.49009 0.45355 0.0
C238 C 0.14549 0.52503 0.92107 0.0
C239 C 0.17724 0.57352 0.95694 0.0
N240 N 0.15812 0.5409 0.8672 0.0
N241 N 0.1777 0.5711 0.88947 0.0
N242 N 0.15702 0.54494 0.97756 0.0
H243 H 0.10796 0.48107 0.87004 0.0
H244 H 0.10641 0.48536 0.96019 0.0
H245 H 0.13493 0.47695 0.92737 0.0
C246 C 0.12218 0.49007 0.91916 0.0
C247 C 0.18563 0.54374 0.51399 0.0
H248 H 0.17517 0.55931 0.51275 0.0
H249 H 0.19991 0.54792 0.47035 0.0
H250 H 0.20111 0.55053 0.56115 0.0
O251 O 0.19965 0.52472 0.66879 0.0
O252 O 0.20526 0.5461 0.77168 0.0
C253 C 0.16319 0.57588 0.68566 0.0
O254 O 0.14987 0.4832 0.79646 0.0
O255 O 0.14378 0.46249 0.69294 0.0
Zn256 Zn 0.51219 0.67774 0.75235 0.0
O257 O 0.49994 0.71371 0.78716 0.0
C258 C 0.45063 0.64535 0.68547 0.0
Zn259 Zn 0.51639 0.69745 0.6529 0.0
C260 C 0.50094 0.73376 0.74696 0.0
O261 O 0.50841 0.73229 0.68791 0.0
C262 C 0.52748 0.64233 0.64952 0.0
O263 O 0.56646 0.73114 0.67179 0.0
O264 O 0.55911 0.71103 0.76989 0.0
N265 N 0.51413 0.7104 0.55745 0.0
C266 C 0.52597 0.70653 0.50059 0.0
C267 C 0.4947 0.72318 0.47331 0.0
N268 N 0.49489 0.72101 0.54038 0.0
N269 N 0.51393 0.71407 0.44716 0.0
C270 C 0.50156 0.66753 0.90376 0.0
C271 C 0.53689 0.65643 0.93298 0.0
N272 N 0.51467 0.66526 0.84756 0.0
N273 N 0.53637 0.65801 0.8658 0.0
N274 N 0.51508 0.66205 0.95782 0.0
H275 H 0.4892 0.70373 0.91605 0.0
H276 H 0.46245 0.66682 0.94873 0.0
H277 H 0.46222 0.66977 0.85864 0.0
C278 C 0.47729 0.67737 0.90672 0.0
C279 C 0.55022 0.69667 0.49754 0.0
H280 H 0.56567 0.70491 0.54516 0.0
H281 H 0.56469 0.70671 0.45473 0.0
H282 H 0.53837 0.67028 0.48975 0.0
O283 O 0.52494 0.66232 0.6156 0.0
O284 O 0.52354 0.64229 0.71219 0.0
C285 C 0.57708 0.73066 0.73106 0.0
O286 O 0.46586 0.64493 0.73783 0.0
O287 O 0.46535 0.66419 0.64094 0.0
H288 H 0.08183 0.26744 0.87312 0.0
H289 H 0.07576 0.32238 0.0428 0.0
H290 H 0.10977 0.31562 0.81519 0.0
H291 H 0.10373 0.37091 0.98452 0.0
H292 H 0.16839 0.45597 0.87847 0.0
H293 H 0.15242 0.4085 0.93816 0.0
H294 H 0.09357 0.34992 0.76152 0.0
H295 H 0.10984 0.3978 0.70138 0.0
C296 C 0.08702 0.29002 0.89857 0.0
C297 C 0.07639 0.29118 0.96226 0.0
C298 C 0.10282 0.31756 0.86508 0.0
C299 C 0.10848 0.34701 0.89456 0.0
C300 C 0.09983 0.34857 0.96044 0.0
C301 C 0.08394 0.32086 0.9941 0.0
C302 C 0.15235 0.43289 0.85196 0.0
C303 C 0.14003 0.43058 0.78543 0.0
C304 C 0.1431 0.40572 0.88641 0.0
C305 C 0.12135 0.37547 0.85514 0.0
C306 C 0.11052 0.37291 0.78703 0.0
C307 C 0.11984 0.40026 0.75239 0.0
H308 H 0.73677 0.86794 0.00575 0.0
H309 H 0.70625 0.77258 0.0591 0.0
H310 H 0.69364 0.84714 0.91763 0.0
H311 H 0.66256 0.75155 0.97212 0.0
H312 H 0.62464 0.71963 0.75737 0.0
H313 H 0.66508 0.74678 0.85073 0.0
H314 H 0.63795 0.81837 0.8765 0.0
H315 H 0.59788 0.79126 0.78173 0.0
C316 C 0.71951 0.8427 0.00169 0.0
C317 C 0.72465 0.82191 0.03983 0.0
C318 C 0.69512 0.83067 0.95016 0.0
C319 C 0.67536 0.79757 0.93604 0.0
C320 C 0.67803 0.77714 0.9802 0.0
C321 C 0.70246 0.78922 0.0316 0.0
C322 C 0.62852 0.74212 0.78068 0.0
C323 C 0.60877 0.75384 0.76113 0.0
C324 C 0.651 0.75718 0.83556 0.0
C325 C 0.65403 0.78417 0.87272 0.0
C326 C 0.63613 0.79753 0.84938 0.0
C327 C 0.61361 0.78241 0.79417 0.0
H328 H 0.15611 0.92515 0.82068 0.0
H329 H 0.23968 0.96525 0.95768 0.0
H330 H 0.18042 0.90634 0.74023 0.0
H331 H 0.26416 0.94656 0.87697 0.0
H332 H 0.3135 0.95252 0.69128 0.0
H333 H 0.28193 0.96605 0.76127 0.0
H334 H 0.20422 0.86969 0.72232 0.0
H335 H 0.23619 0.85615 0.6523 0.0
C336 C 0.17929 0.92889 0.83456 0.0
C337 C 0.19595 0.94641 0.89566 0.0
C338 C 0.19326 0.91835 0.78823 0.0
C339 C 0.22439 0.9256 0.80165 0.0
C340 C 0.24028 0.94116 0.86482 0.0
C341 C 0.22611 0.95132 0.91163 0.0
C342 C 0.28912 0.93471 0.69472 0.0
C343 C 0.2771 0.90346 0.66545 0.0
C344 C 0.27132 0.94221 0.73619 0.0
C345 C 0.24099 0.91864 0.74899 0.0
C346 C 0.22765 0.88825 0.71379 0.0
C347 C 0.24568 0.88066 0.67252 0.0
H348 H 0.40913 0.17065 0.25919 0.0
H349 H 0.38833 0.07337 0.22699 0.0
H350 H 0.36384 0.15838 0.1815 0.0
H351 H 0.34254 0.06055 0.15128 0.0
H352 H 0.28528 0.05017 0.96584 0.0
H353 H 0.33398 0.0712 0.03861 0.0
H354 H 0.30804 0.1301 0.15736 0.0
H355 H 0.26018 0.10977 0.08322 0.0
C356 C 0.39379 0.14622 0.23832 0.0
C357 C 0.40166 0.12273 0.25029 0.0
C358 C 0.36818 0.13928 0.19279 0.0
C359 C 0.35003 0.10868 0.15841 0.0
C360 C 0.35657 0.08464 0.17495 0.0
C361 C 0.38223 0.09167 0.2199 0.0
C362 C 0.29102 0.06902 0.00499 0.0
C363 C 0.2693 0.07876 0.0183 0.0
C364 C 0.31844 0.08043 0.04803 0.0
C365 C 0.32444 0.10156 0.10538 0.0
C366 C 0.30426 0.11382 0.11406 0.0
C367 C 0.27699 0.1025 0.07094 0.0
H368 H 0.9284 0.33483 0.31179 0.0
H369 H 0.8341 0.26899 0.22736 0.0
H370 H 0.9484 0.30903 0.23656 0.0
H371 H 0.85383 0.24351 0.15074 0.0
H372 H 0.90526 0.19297 0.05842 0.0
H373 H 0.87976 0.21285 0.13307 0.0
H374 H 0.95434 0.3094 0.11708 0.0
H375 H 0.97995 0.28916 0.04393 0.0
C376 C 0.91186 0.31383 0.27935 0.0
C377 C 0.87968 0.30326 0.27671 0.0
C378 C 0.9233 0.29958 0.23484 0.0
C379 C 0.90279 0.27471 0.18616 0.0
C380 C 0.87032 0.26255 0.18739 0.0
C381 C 0.85893 0.2768 0.23202 0.0
C382 C 0.91522 0.21852 0.0681 0.0
C383 C 0.94408 0.23962 0.04392 0.0
C384 C 0.90094 0.22992 0.11188 0.0
C385 C 0.91543 0.26269 0.1327 0.0
C386 C 0.94296 0.28394 0.1037 0.0
C387 C 0.95721 0.2725 0.06015 0.0
H388 H 0.75489 0.72867 0.04635 0.0
H389 H 0.82419 0.77299 0.21663 0.0
H390 H 0.72793 0.67983 0.10401 0.0
H391 H 0.79705 0.72462 0.27464 0.0
H392 H 0.74685 0.6176 0.32942 0.0
H393 H 0.77993 0.66694 0.27646 0.0
H394 H 0.69692 0.66844 0.20287 0.0
H395 H 0.66432 0.61944 0.2549 0.0
C396 C 0.76483 0.72767 0.09517 0.0
C397 C 0.79147 0.75465 0.12715 0.0
C398 C 0.74917 0.69994 0.12873 0.0
C399 C 0.75999 0.69867 0.19463 0.0
C400 C 0.78805 0.72483 0.22418 0.0
C401 C 0.80356 0.75253 0.19086 0.0
C402 C 0.73595 0.62933 0.30428 0.0
C403 C 0.70315 0.61505 0.2968 0.0
C404 C 0.75477 0.65724 0.27307 0.0
C405 C 0.74092 0.67102 0.23374 0.0
C406 C 0.70825 0.6579 0.23097 0.0
C407 C 0.68962 0.63023 0.26196 0.0
H408 H 0.04714 0.43311 0.65535 0.0
H409 H 0.05939 0.52702 0.69339 0.0
H410 H 0.00273 0.41856 0.57365 0.0
H411 H 0.01441 0.51235 0.61166 0.0
H412 H 0.91188 0.45176 0.49041 0.0
H413 H 0.95423 0.47188 0.5808 0.0
H414 H 0.00496 0.44073 0.45725 0.0
H415 H 0.96262 0.42086 0.36648 0.0
C416 C 0.03921 0.45007 0.64881 0.0
C417 C 0.05632 0.48098 0.68157 0.0
C418 C 0.01429 0.44202 0.60084 0.0
C419 C 0.00577 0.46466 0.58484 0.0
C420 C 0.0207 0.49453 0.62265 0.0
C421 C 0.04599 0.50272 0.67045 0.0
C422 C 0.93269 0.45037 0.48169 0.0
C423 C 0.93418 0.43506 0.42124 0.0
C424 C 0.95676 0.46165 0.53363 0.0
C425 C 0.98254 0.45729 0.52657 0.0
C426 C 0.98505 0.44393 0.46437 0.0
C427 C 0.96115 0.43309 0.41194 0.0
H428 H 0.49902 0.57676 0.64404 0.0
H429 H 0.57538 0.6603 0.57206 0.0
H430 H 0.50829 0.54269 0.5635 0.0
H431 H 0.58453 0.62692 0.49224 0.0
H432 H 0.5786 0.5672 0.31243 0.0
H433 H 0.55795 0.59248 0.3876 0.0
H434 H 0.54802 0.52734 0.53665 0.0
H435 H 0.56793 0.50181 0.46109 0.0
C436 C 0.51819 0.58772 0.61217 0.0
C437 C 0.53648 0.62108 0.614 0.0
C438 C 0.52327 0.56835 0.56555 0.0
C439 C 0.54655 0.58215 0.51999 0.0
C440 C 0.5657 0.61549 0.52476 0.0
C441 C 0.56074 0.63463 0.57113 0.0
C442 C 0.57077 0.55751 0.36004 0.0
C443 C 0.5751 0.53277 0.38116 0.0
C444 C 0.55942 0.57225 0.40362 0.0
C445 C 0.55209 0.5624 0.46887 0.0
C446 C 0.55349 0.53558 0.48702 0.0
C447 C 0.56492 0.52097 0.44364 0.0
H448 H 0.43928 0.0412 0.29927 0.0
H449 H 0.52204 0.09535 0.4371 0.0
H450 H 0.41748 -0.00044 0.37773 0.0
H451 H 0.50048 0.05382 0.51522 0.0
H452 H 0.45122 0.95437 0.61318 0.0
H453 H 0.47999 0.99433 0.53394 0.0
H454 H 0.39883 0.00447 0.49293 0.0
H455 H 0.37063 0.96519 0.57226 0.0
C456 C 0.4534 0.04348 0.34479 0.0
C457 C 0.48241 0.0713 0.36189 0.0
C458 C 0.44074 0.01998 0.39029 0.0
C459 C 0.45707 0.02378 0.4532 0.0
C460 C 0.48736 0.05022 0.46729 0.0
C461 C 0.49979 0.07385 0.4223 0.0
C462 C 0.44021 0.96631 0.58938 0.0
C463 C 0.40914 0.95757 0.60023 0.0
C464 C 0.45639 0.98869 0.54323 0.0
C465 C 0.44137 0.00194 0.50612 0.0
C466 C 0.41081 0.9942 0.51969 0.0
C467 C 0.39492 0.9723 0.56621 0.0
H468 H 0.17597 0.11245 0.97013 0.0
H469 H 0.11971 0.05531 0.12258 0.0
H470 H 0.14889 0.14273 0.97256 0.0
H471 H 0.09258 0.08618 0.1254 0.0
H472 H 0.07067 0.16951 0.13942 0.0
H473 H 0.1013 0.14292 0.14931 0.0
H474 H 0.09218 0.12508 0.93291 0.0
H475 H 0.06119 0.15161 0.92266 0.0
C476 C 0.15823 0.10682 0.00533 0.0
C477 C 0.14971 0.08129 0.04576 0.0
C478 C 0.14257 0.124 0.00618 0.0
C479 C 0.11818 0.11628 0.04789 0.0
C480 C 0.11126 0.09247 0.09246 0.0
C481 C 0.12691 0.075 0.09132 0.0
C482 C 0.07525 0.16005 0.09375 0.0
C483 C 0.06367 0.16287 0.03003 0.0
C484 C 0.09263 0.14463 0.09967 0.0
C485 C 0.0992 0.13209 0.04201 0.0
C486 C 0.0877 0.13489 0.97823 0.0
C487 C 0.06991 0.14995 0.9723 0.0
H488 H 0.86531 0.9449 0.93714 0.0
H489 H 0.83142 0.94797 0.13167 0.0
H490 H 0.89138 0.00344 0.94198 0.0
H491 H 0.85781 0.0057 0.13672 0.0
H492 H 0.9509 0.10713 0.15137 0.0
H493 H 0.91738 0.04885 0.14627 0.0
H494 H 0.87658 0.04838 0.94965 0.0
H495 H 0.90905 0.10607 0.95502 0.0
C496 C 0.86294 0.9579 0.98007 0.0
C497 C 0.84658 0.9418 0.03413 0.0
C498 C 0.87794 0.99131 0.98311 0.0
C499 C 0.87697 0.00894 0.04043 0.0
C500 C 0.8594 0.99271 0.0927 0.0
C501 C 0.84418 0.95958 0.08935 0.0
C502 C 0.93415 0.09465 0.10806 0.0
C503 C 0.93284 0.11119 0.05353 0.0
C504 C 0.91518 0.06135 0.10481 0.0
C505 C 0.89493 0.04423 0.04682 0.0
C506 C 0.89244 0.06096 0.99417 0.0
C507 C 0.91094 0.09404 0.99774 0.0
H508 H 0.90623 0.85403 0.95259 0.0
H509 H 0.93259 0.90062 0.15492 0.0
H510 H 0.96104 0.87833 0.9312 0.0
H511 H 0.98812 0.92484 0.13303 0.0
H512 H 0.08222 0.93241 0.08414 0.0
H513 H 0.02728 0.90632 0.10615 0.0
H514 H 0.00518 0.93528 0.92006 0.0
H515 H 0.0607 0.96206 0.89786 0.0
C516 C 0.92371 0.86923 0.99297 0.0
C517 C 0.91493 0.8754 0.05571 0.0
C518 C 0.95516 0.88334 0.98023 0.0
C519 C 0.97875 0.90368 0.03007 0.0
C520 C 0.97026 0.90915 0.0937 0.0
C521 C 0.93856 0.89527 0.10631 0.0
C522 C 0.06574 0.93307 0.0473 0.0
C523 C 0.07592 0.94936 0.98896 0.0
C524 C 0.03428 0.91833 0.06048 0.0
C525 C 0.01209 0.91907 0.01528 0.0
C526 C 0.02191 0.93436 0.95576 0.0
C527 C 0.05361 0.94956 0.94289 0.0
H528 H 0.68068 0.45175 0.19743 0.0
H529 H 0.7542 0.54043 0.29892 0.0
H530 H 0.71479 0.42859 0.2092 0.0
H531 H 0.78847 0.51771 0.30952 0.0
H532 H 0.84621 0.46725 0.27072 0.0
H533 H 0.81561 0.49277 0.24296 0.0
H534 H 0.73471 0.41588 0.32106 0.0
H535 H 0.76544 0.39044 0.34961 0.0
C536 C 0.70465 0.46671 0.2192 0.0
C537 C 0.7151 0.49794 0.24645 0.0
C538 C 0.72392 0.45334 0.22709 0.0
C539 C 0.75404 0.47126 0.26123 0.0
C540 C 0.76539 0.50339 0.28299 0.0
C541 C 0.74594 0.51649 0.27635 0.0
C542 C 0.82203 0.45609 0.28301 0.0
C543 C 0.80827 0.42705 0.31301 0.0
C544 C 0.80452 0.47058 0.26671 0.0
C545 C 0.77272 0.45602 0.27885 0.0
C546 C 0.75909 0.42732 0.31014 0.0
C547 C 0.77678 0.41307 0.32757 0.0
H548 H 0.58008 0.41454 0.16832 0.0
H549 H 0.59145 0.40752 0.38183 0.0
H550 H 0.55281 0.3565 0.14832 0.0
H551 H 0.56363 0.34928 0.36151 0.0
H552 H 0.48413 0.24879 0.3115 0.0
H553 H 0.50646 0.3063 0.31588 0.0
H554 H 0.56795 0.31162 0.16419 0.0
H555 H 0.54572 0.25348 0.16036 0.0
C556 C 0.57652 0.40061 0.21112 0.0
C557 C 0.58773 0.41559 0.2769 0.0
C558 C 0.5611 0.36742 0.19939 0.0
C559 C 0.55606 0.34854 0.25329 0.0
C560 C 0.56702 0.36341 0.31912 0.0
C561 C 0.58296 0.39667 0.33078 0.0
C562 C 0.50191 0.26208 0.27782 0.0
C563 C 0.51348 0.24678 0.23607 0.0
C564 C 0.51481 0.295 0.28081 0.0
C565 C 0.53936 0.31334 0.24162 0.0
C566 C 0.54908 0.29787 0.19518 0.0
C567 C 0.53623 0.26467 0.19251 0.0
H568 H 0.60511 0.24167 0.35144 0.0
H569 H 0.59645 0.1651 0.21505 0.0
H570 H 0.66001 0.27464 0.32755 0.0
H571 H 0.65113 0.19794 0.1915 0.0
H572 H 0.76095 0.25738 0.25138 0.0
H573 H 0.70458 0.22212 0.25585 0.0
H574 H 0.68951 0.30103 0.22489 0.0
H575 H 0.74614 0.33622 0.21948 0.0
C576 C 0.61508 0.23168 0.31746 0.0
C577 C 0.59657 0.20074 0.28554 0.0
C578 C 0.64629 0.25072 0.30286 0.0
C579 C 0.65963 0.23898 0.25682 0.0
C580 C 0.64144 0.20763 0.22695 0.0
C581 C 0.6102 0.18881 0.24078 0.0
C582 C 0.74536 0.26673 0.24223 0.0
C583 C 0.75763 0.29923 0.23382 0.0
C584 C 0.71317 0.24669 0.24553 0.0
C585 C 0.69278 0.259 0.24192 0.0
C586 C 0.70482 0.29106 0.22869 0.0
C587 C 0.73705 0.31101 0.22416 0.0
H588 H 0.5232 0.79208 0.70314 0.0
H589 H 0.4511 0.72418 0.81791 0.0
H590 H 0.49393 0.81985 0.6885 0.0
H591 H 0.42192 0.75268 0.80439 0.0
H592 H 0.39643 0.83411 0.8005 0.0
H593 H 0.42734 0.80936 0.82871 0.0
H594 H 0.43937 0.79829 0.61819 0.0
H595 H 0.40756 0.82271 0.58908 0.0
C596 C 0.50159 0.78381 0.72739 0.0
C597 C 0.48933 0.75593 0.76152 0.0
C598 C 0.48468 0.79944 0.71809 0.0
C599 C 0.45535 0.78784 0.74366 0.0
C600 C 0.44444 0.76187 0.78367 0.0
C601 C 0.4613 0.74587 0.79236 0.0
C602 C 0.40555 0.82641 0.75986 0.0
C603 C 0.39965 0.83055 0.6923 0.0
C604 C 0.42314 0.81208 0.77631 0.0
C605 C 0.4358 0.80208 0.72582 0.0
C606 C 0.43 0.8061 0.65815 0.0
C607 C 0.41177 0.81994 0.64142 0.0
H608 H 0.19458 0.61194 0.5834 0.0
H609 H 0.15548 0.61644 0.77012 0.0
H610 H 0.22118 0.6703 0.58608 0.0
H611 H 0.18261 0.67432 0.7734 0.0
H612 H 0.27993 0.77396 0.79286 0.0
H613 H 0.24307 0.71618 0.78924 0.0
H614 H 0.20857 0.71651 0.58652 0.0
H615 H 0.24436 0.77362 0.59032 0.0
C616 C 0.19096 0.6252 0.62383 0.0
C617 C 0.17314 0.60957 0.67665 0.0
C618 C 0.20636 0.65857 0.62576 0.0
C619 C 0.20434 0.6767 0.68078 0.0
C620 C 0.185 0.66093 0.73122 0.0
C621 C 0.16932 0.62776 0.72884 0.0
C622 C 0.26382 0.76179 0.74848 0.0
C623 C 0.26532 0.77822 0.69174 0.0
C624 C 0.24291 0.72879 0.74614 0.0
C625 C 0.22349 0.71195 0.68695 0.0
C626 C 0.22369 0.72881 0.63212 0.0
C627 C 0.24415 0.76156 0.63467 0.0
H628 H 0.4151 0.60232 0.77126 0.0
H629 H 0.40764 0.64804 0.59657 0.0
H630 H 0.35915 0.57861 0.78078 0.0
H631 H 0.35104 0.62375 0.60613 0.0
H632 H 0.24724 0.54399 0.60818 0.0
H633 H 0.30305 0.56879 0.59712 0.0
H634 H 0.32196 0.59851 0.81002 0.0
H635 H 0.26534 0.57354 0.82157 0.0
C636 C 0.40147 0.60706 0.73425 0.0
C637 C 0.41593 0.62716 0.68301 0.0
C638 C 0.36942 0.59369 0.74036 0.0
C639 C 0.35086 0.59975 0.695 0.0
C640 C 0.3649 0.61875 0.64194 0.0
C641 C 0.39721 0.63246 0.63614 0.0
C642 C 0.26312 0.55577 0.65301 0.0
C643 C 0.25174 0.55661 0.71609 0.0
C644 C 0.29519 0.57022 0.64628 0.0
C645 C 0.31683 0.58563 0.7025 0.0
C646 C 0.30567 0.58657 0.76582 0.0
C647 C 0.27335 0.57236 0.7725 0.0
H648 H 0.94075 0.15062 0.64757 0.0
H649 H 0.03658 0.22042 0.71507 0.0
H650 H 0.95191 0.16277 0.53056 0.0
H651 H 0.0479 0.23274 0.59885 0.0
H652 H 0.06168 0.21647 0.37496 0.0
H653 H 0.04976 0.20259 0.49096 0.0
H654 H 0.96742 0.21201 0.46388 0.0
H655 H 0.97974 0.22604 0.34846 0.0
C656 C 0.96407 0.16869 0.63704 0.0
C657 C 0.98766 0.18514 0.68968 0.0
C658 C 0.97046 0.17566 0.57061 0.0
C659 C 0.00074 0.1987 0.55603 0.0
C660 C 0.02441 0.2148 0.60884 0.0
C661 C 0.01788 0.20812 0.67515 0.0
C662 C 0.04112 0.21547 0.3944 0.0
C663 C 0.02156 0.22225 0.35404 0.0
C664 C 0.03433 0.20768 0.46027 0.0
C665 C 0.00766 0.20624 0.48601 0.0
C666 C 0.98794 0.21271 0.44495 0.0
C667 C 0.995 0.22088 0.37952 0.0
H668 H 0.85434 0.82583 0.72979 0.0
H669 H 0.76873 0.82925 0.72477 0.0
H670 H 0.86116 0.84075 0.61334 0.0
H671 H 0.77526 0.84422 0.60856 0.0
H672 H 0.81997 0.90535 0.43084 0.0
H673 H 0.81491 0.89228 0.54864 0.0
H674 H 0.83085 0.81412 0.49871 0.0
H675 H 0.83599 0.82743 0.38167 0.0
C676 C 0.83712 0.82987 0.70332 0.0
C677 C 0.81113 0.82659 0.73507 0.0
C678 C 0.84087 0.83825 0.63717 0.0
C679 C 0.81876 0.84371 0.60246 0.0
C680 C 0.79276 0.84046 0.63463 0.0
C681 C 0.78888 0.83172 0.70043 0.0
C682 C 0.82232 0.88543 0.44562 0.0
C683 C 0.82772 0.86694 0.39785 0.0
C684 C 0.81934 0.87789 0.51242 0.0
C685 C 0.82239 0.85214 0.53229 0.0
C686 C 0.82851 0.83413 0.48456 0.0
C687 C 0.83107 0.84145 0.41777 0.0
H688 H 0.15417 0.97662 0.66341 0.0
H689 H 0.17739 0.07309 0.63454 0.0
H690 H 0.15793 0.96704 0.54355 0.0
H691 H 0.18104 0.06366 0.51396 0.0
H692 H 0.2228 0.04256 0.32621 0.0
H693 H 0.21752 0.05244 0.44537 0.0
H694 H 0.12887 0.96394 0.4319 0.0
H695 H 0.13446 0.95438 0.31249 0.0
C696 C 0.16037 0.99581 0.63119 0.0
C697 C 0.16616 0.02576 0.65776 0.0
C698 C 0.16215 0.99026 0.56271 0.0
C699 C 0.16988 0.01466 0.51972 0.0
C700 C 0.17534 0.04457 0.54627 0.0
C701 C 0.17317 0.04996 0.61478 0.0
C702 C 0.2023 0.02537 0.34923 0.0
C703 C 0.17897 0.99783 0.31118 0.0
C704 C 0.19913 0.03106 0.41684 0.0
C705 C 0.17274 0.009 0.44758 0.0
C706 C 0.1495 0.98124 0.40937 0.0
C707 C 0.15255 0.97579 0.34145 0.0
H708 H 0.61372 0.50127 0.60797 0.0
H709 H 0.70915 0.52881 0.67246 0.0
H710 H 0.60185 0.502 0.72545 0.0
H711 H 0.69744 0.52956 0.79073 0.0
H712 H 0.66927 0.56419 0.98508 0.0
H713 H 0.68213 0.56279 0.86809 0.0
H714 H 0.59885 0.47007 0.82591 0.0
H715 H 0.58641 0.47169 0.94349 0.0
C716 C 0.63223 0.50794 0.64757 0.0
C717 C 0.6625 0.51569 0.63175 0.0
C718 C 0.62537 0.50794 0.71461 0.0
C719 C 0.64875 0.51587 0.76706 0.0
C720 C 0.67908 0.52362 0.75117 0.0
C721 C 0.68579 0.52316 0.68393 0.0
C722 C 0.65391 0.5436 0.95041 0.0
C723 C 0.62693 0.51806 0.97226 0.0
C724 C 0.66128 0.54267 0.88397 0.0
C725 C 0.64147 0.51632 0.8381 0.0
C726 C 0.61438 0.49074 0.86021 0.0
C727 C 0.60729 0.49154 0.92705 0.0
H728 H 0.48874 0.21173 0.65193 0.0
H729 H 0.51584 0.14225 0.59865 0.0
H730 H 0.48651 0.1984 0.76952 0.0
H731 H 0.51364 0.12878 0.71551 0.0
H732 H 0.54006 0.14167 0.94611 0.0
H733 H 0.54349 0.15671 0.82963 0.0
H734 H 0.45244 0.14898 0.83201 0.0
H735 H 0.44925 0.13377 0.94804 0.0
C736 C 0.49406 0.19355 0.66564 0.0
C737 C 0.50182 0.17752 0.61659 0.0
C738 C 0.49273 0.18585 0.73248 0.0
C739 C 0.49983 0.1625 0.75143 0.0
C740 C 0.50816 0.14693 0.70234 0.0
C741 C 0.50904 0.15432 0.6355 0.0
C742 C 0.52096 0.14328 0.92125 0.0
C743 C 0.49443 0.13667 0.95507 0.0
C744 C 0.52279 0.15173 0.85496 0.0
C745 C 0.49823 0.15406 0.82199 0.0
C746 C 0.47181 0.14766 0.85643 0.0
C747 C 0.46984 0.13879 0.92228 0.0
H748 H 0.7996 0.30054 0.6598 0.0
H749 H 0.85924 0.39941 0.62741 0.0
H750 H 0.81254 0.31353 0.7815 0.0
H751 H 0.87117 0.41317 0.74863 0.0
H752 H 0.91075 0.423 0.96501 0.0
H753 H 0.89868 0.4102 0.84362 0.0
H754 H 0.80422 0.33742 0.87584 0.0
H755 H 0.8174 0.34829 0.99628 0.0
C756 C 0.81542 0.32507 0.67925 0.0
C757 C 0.8289 0.34892 0.63502 0.0
C758 C 0.82266 0.33268 0.74877 0.0
C759 C 0.84295 0.36451 0.77534 0.0
C760 C 0.85606 0.38836 0.73036 0.0
C761 C 0.84924 0.38058 0.66097 0.0
C762 C 0.88737 0.40446 0.94582 0.0
C763 C 0.86476 0.38747 0.99041 0.0
C764 C 0.88032 0.3972 0.87622 0.0
C765 C 0.85035 0.37282 0.84945 0.0
C766 C 0.82765 0.35611 0.89426 0.0
C767 C 0.83491 0.36301 0.96376 0.0
H768 H 0.28038 0.81403 0.28865 0.0
H769 H 0.37596 0.886 0.35209 0.0
H770 H 0.28917 0.82806 0.17185 0.0
H771 H 0.38498 0.9001 0.23599 0.0
H772 H 0.39476 0.8863 0.00755 0.0
H773 H 0.38577 0.87147 0.12373 0.0
H774 H 0.30201 0.8789 0.11063 0.0
H775 H 0.31144 0.89396 0.99475 0.0
C776 C 0.30318 0.83282 0.2772 0.0
C777 C 0.32738 0.84936 0.3286 0.0
C778 C 0.3082 0.84092 0.21096 0.0
C779 C 0.33771 0.8652 0.19538 0.0
C780 C 0.36207 0.88125 0.24684 0.0
C781 C 0.35688 0.87345 0.31302 0.0
C782 C 0.37459 0.88479 0.03014 0.0
C783 C 0.35374 0.89116 0.99345 0.0
C784 C 0.36946 0.87643 0.09611 0.0
C785 C 0.34315 0.87397 0.12565 0.0
C786 C 0.32228 0.88036 0.08858 0.0
C787 C 0.32771 0.88915 0.02298 0.0
H788 H 0.12559 0.55635 0.07033 0.0
H789 H 0.18339 0.51472 0.0353 0.0
H790 H 0.12129 0.54133 0.18638 0.0
H791 H 0.18085 0.50098 0.15193 0.0
H792 H 0.14641 0.45463 0.34559 0.0
H793 H 0.14712 0.46657 0.22792 0.0
H794 H 0.1513 0.5554 0.29029 0.0
H795 H 0.14799 0.54201 0.40608 0.0
C796 C 0.13753 0.54419 0.0883 0.0
C797 C 0.15479 0.53657 0.04528 0.0
C798 C 0.13532 0.53574 0.15445 0.0
C799 C 0.15086 0.52004 0.17864 0.0
C800 C 0.16817 0.51253 0.1348 0.0
C801 C 0.16991 0.52057 0.06849 0.0
C802 C 0.14754 0.47667 0.33363 0.0
C803 C 0.14835 0.49795 0.38497 0.0
C804 C 0.14815 0.48366 0.26653 0.0
C805 C 0.14959 0.51213 0.24963 0.0
C806 C 0.15001 0.53318 0.30125 0.0
C807 C 0.14897 0.52595 0.36801 0.0
H808 H 0.52459 0.75382 0.34993 0.0
H809 H 0.5042 0.65883 0.38578 0.0
H810 H 0.52406 0.74157 0.22863 0.0
H811 H 0.50385 0.6465 0.26531 0.0
H812 H 0.47062 0.62678 0.03852 0.0
H813 H 0.47001 0.64002 0.15897 0.0
H814 H 0.55701 0.7288 0.15214 0.0
H815 H 0.55735 0.71516 0.03212 0.0
C816 C 0.52032 0.73048 0.33164 0.0
C817 C 0.51519 0.70751 0.37681 0.0
C818 C 0.52003 0.72346 0.26264 0.0
C819 C 0.51393 0.69308 0.23774 0.0
C820 C 0.50846 0.67003 0.28309 0.0
C821 C 0.50915 0.67721 0.35198 0.0
C822 C 0.4894 0.64905 0.06331 0.0
C823 C 0.51404 0.67002 0.02725 0.0
C824 C 0.4892 0.65661 0.1318 0.0
C825 C 0.51351 0.68543 0.16475 0.0
C826 C 0.53787 0.70659 0.12789 0.0
C827 C 0.5382 0.69882 0.05973 0.0
loop_
_geom_bond_atom_site_label_1
_geom_bond_atom_site_label_2
_geom_bond_distance
_geom_bond_site_symmetry_2
_ccdc_geom_bond_type
Zn0 O1 2.055 1_455 S
Zn0 O8 2.046 1_455 S
Zn0 N16 2.036 . S
Zn0 O28 2.053 . S
Zn0 O30 2.066 . S
O1 Zn0 2.055 1_655 S
O1 C4 1.259 . S
C2 O30 1.256 . S
C2 O31 1.244 1_554 S
Zn3 O5 2.046 . S
Zn3 O7 2.055 . S
Zn3 N9 2.036 . S
Zn3 O27 2.066 1_655 S
Zn3 O31 2.053 1_655 S
C4 O1 1.259 . S
C4 O5 1.254 1_554 S
O5 Zn3 2.046 . S
O5 C4 1.254 1_556 S
C6 O27 1.256 1_554 S
C6 O28 1.244 . S
O7 Zn3 2.055 . S
O7 C29 1.259 1_556 S
O8 Zn0 2.046 1_655 S
O8 C29 1.254 . S
N9 Zn3 2.036 . S
N9 C10 1.298 . S
N9 N12 1.398 1_655 S
C10 N9 1.298 . S
C10 N13 1.367 . S
C10 C23 1.481 . S
C11 N12 1.299 . S
C11 N13 1.379 1_455 S
N12 N9 1.398 1_455 S
N12 C11 1.299 . S
N13 C10 1.367 . S
N13 C11 1.379 1_655 S
C14 N16 1.298 . S
C14 N18 1.367 . S
C14 C22 1.481 . S
C15 N17 1.299 . S
C15 N18 1.379 . S
N16 Zn0 2.036 . S
N16 C14 1.298 . S
N16 N17 1.398 . S
N17 C15 1.299 . S
N17 N16 1.398 . S
N18 C14 1.367 . S
N18 C15 1.379 . S
H19 C22 0.980 1_655 S
H20 C22 0.981 . S
H21 C22 0.981 . S
C22 C14 1.481 . S
C22 H19 0.980 1_455 S
C22 H20 0.981 . S
C22 H21 0.981 . S
C23 C10 1.481 . S
C23 H24 0.980 . S
C23 H25 0.981 . S
C23 H26 0.981 . S
H24 C23 0.980 . S
H25 C23 0.981 . S
H26 C23 0.981 . S
O27 Zn3 2.066 1_455 S
O27 C6 1.256 1_556 S
O28 Zn0 2.053 . S
O28 C6 1.244 . S
C29 O7 1.259 1_554 S
C29 O8 1.254 . S
O30 Zn0 2.066 . S
O30 C2 1.256 . S
O31 C2 1.244 1_556 S
O31 Zn3 2.053 1_455 S
Zn32 O33 2.055 . S
Zn32 O40 2.046 . S
Zn32 N48 2.036 . S
Zn32 O60 2.053 . S
Zn32 O62 2.066 . S
O33 Zn32 2.055 . S
O33 C36 1.259 . S
C34 O62 1.256 . S
C34 O63 1.245 . S
Zn35 O37 2.046 . S
Zn35 O39 2.055 . S
Zn35 N41 2.036 . S
Zn35 O59 2.066 . S
Zn35 O63 2.052 1_556 S
C36 O33 1.259 . S
C36 O37 1.254 1_554 S
O37 Zn35 2.046 . S
O37 C36 1.254 1_556 S
C38 O59 1.256 1_554 S
C38 O60 1.244 . S
O39 Zn35 2.055 . S
O39 C61 1.259 1_556 S
O40 Zn32 2.046 . S
O40 C61 1.254 . S
N41 Zn35 2.036 . S
N41 C42 1.298 . S
N41 N44 1.398 . S
C42 N41 1.298 . S
C42 N45 1.367 . S
C42 C55 1.481 . S
C43 N44 1.299 . S
C43 N45 1.379 . S
N44 N41 1.398 . S
N44 C43 1.299 . S
N45 C42 1.367 . S
N45 C43 1.379 . S
C46 N48 1.298 . S
C46 N50 1.367 . S
C46 C54 1.481 . S
C47 N49 1.299 . S
C47 N50 1.379 . S
N48 Zn32 2.036 . S
N48 C46 1.298 . S
N48 N49 1.398 . S
N49 C47 1.299 . S
N49 N48 1.398 . S
N50 C46 1.367 . S
N50 C47 1.379 . S
H51 C54 0.980 . S
H52 C54 0.981 . S
H53 C54 0.981 . S
C54 C46 1.481 . S
C54 H51 0.980 . S
C54 H52 0.981 . S
C54 H53 0.981 . S
C55 C42 1.481 . S
C55 H56 0.980 . S
C55 H57 0.981 . S
C55 H58 0.981 . S
H56 C55 0.980 . S
H57 C55 0.981 . S
H58 C55 0.981 . S
O59 Zn35 2.066 . S
O59 C38 1.256 1_556 S
O60 Zn32 2.053 . S
O60 C38 1.244 . S
C61 O39 1.259 1_554 S
C61 O40 1.254 . S
O62 Zn32 2.066 . S
O62 C34 1.256 . S
O63 C34 1.245 . S
O63 Zn35 2.052 1_554 S
Zn64 O65 2.055 . S
Zn64 O72 2.046 . S
Zn64 N80 2.036 . S
Zn64 O92 2.053 1_545 S
Zn64 O94 2.066 1_545 S
O65 Zn64 2.055 . S
O65 C68 1.259 1_556 S
C66 O94 1.256 . S
C66 O95 1.244 1_556 S
Zn67 O69 2.046 . S
Zn67 O71 2.055 . S
Zn67 N73 2.036 . S
Zn67 O91 2.066 1_545 S
Zn67 O95 2.053 1_545 S
C68 O65 1.259 1_554 S
C68 O69 1.254 . S
O69 Zn67 2.046 . S
O69 C68 1.254 . S
C70 O91 1.256 1_556 S
C70 O92 1.244 . S
O71 Zn67 2.055 . S
O71 C93 1.259 . S
O72 Zn64 2.046 . S
O72 C93 1.254 1_556 S
N73 Zn67 2.036 . S
N73 C74 1.298 . S
N73 N76 1.398 1_545 S
C74 N73 1.298 . S
C74 N77 1.367 1_545 S
C74 C87 1.481 . S
C75 N76 1.299 . S
C75 N77 1.379 . S
N76 N73 1.398 1_565 S
N76 C75 1.299 . S
N77 C74 1.367 1_565 S
N77 C75 1.379 . S
C78 N80 1.298 . S
C78 N82 1.367 . S
C78 C86 1.481 . S
C79 N81 1.299 . S
C79 N82 1.379 . S
N80 Zn64 2.036 . S
N80 C78 1.298 . S
N80 N81 1.398 . S
N81 C79 1.299 . S
N81 N80 1.398 . S
N82 C78 1.367 . S
N82 C79 1.379 . S
H83 C86 0.980 . S
H84 C86 0.981 . S
H85 C86 0.981 . S
C86 C78 1.481 . S
C86 H83 0.980 . S
C86 H84 0.981 . S
C86 H85 0.981 . S
C87 C74 1.481 . S
C87 H88 0.980 . S
C87 H89 0.981 . S
C87 H90 0.981 1_545 S
H88 C87 0.980 . S
H89 C87 0.981 . S
H90 C87 0.981 1_565 S
O91 Zn67 2.066 1_565 S
O91 C70 1.256 1_554 S
O92 Zn64 2.053 1_565 S
O92 C70 1.244 . S
C93 O71 1.259 . S
C93 O72 1.254 1_554 S
O94 Zn64 2.066 1_565 S
O94 C66 1.256 . S
O95 C66 1.244 1_554 S
O95 Zn67 2.053 1_565 S
Zn96 O97 2.055 . S
Zn96 O104 2.046 . S
Zn96 N112 2.036 . S
Zn96 O124 2.053 . S
Zn96 O126 2.066 . S
O97 Zn96 2.055 . S
O97 C100 1.259 . S
C98 O126 1.256 . S
C98 O127 1.244 . S
Zn99 O101 2.046 . S
Zn99 O103 2.055 . S
Zn99 N105 2.036 . S
Zn99 O123 2.066 . S
Zn99 O127 2.053 . S
C100 O97 1.259 . S
C100 O101 1.254 . S
O101 Zn99 2.046 . S
O101 C100 1.254 . S
C102 O123 1.256 . S
C102 O124 1.244 . S
O103 Zn99 2.055 . S
O103 C125 1.259 . S
O104 Zn96 2.046 . S
O104 C125 1.254 . S
N105 Zn99 2.036 . S
N105 C106 1.298 . S
N105 N108 1.398 . S
C106 N105 1.298 . S
C106 N109 1.367 . S
C106 C119 1.481 . S
C107 N108 1.299 . S
C107 N109 1.379 . S
N108 N105 1.398 . S
N108 C107 1.299 . S
N109 C106 1.367 . S
N109 C107 1.379 . S
C110 N112 1.298 . S
C110 N114 1.367 . S
C110 C118 1.481 . S
C111 N113 1.299 . S
C111 N114 1.379 . S
N112 Zn96 2.036 . S
N112 C110 1.298 . S
N112 N113 1.398 . S
N113 C111 1.299 . S
N113 N112 1.398 . S
N114 C110 1.367 . S
N114 C111 1.379 . S
H115 C118 0.980 . S
H116 C118 0.981 . S
H117 C118 0.981 . S
C118 C110 1.481 . S
C118 H115 0.980 . S
C118 H116 0.981 . S
C118 H117 0.981 . S
C119 C106 1.481 . S
C119 H120 0.980 . S
C119 H121 0.981 . S
C119 H122 0.981 . S
H120 C119 0.980 . S
H121 C119 0.981 . S
H122 C119 0.981 . S
O123 Zn99 2.066 . S
O123 C102 1.256 . S
O124 Zn96 2.053 . S
O124 C102 1.244 . S
C125 O103 1.259 . S
C125 O104 1.254 . S
O126 Zn96 2.066 . S
O126 C98 1.256 . S
O127 C98 1.244 . S
O127 Zn99 2.053 . S
Zn128 O129 2.055 . S
Zn128 O136 2.046 . S
Zn128 N144 2.036 . S
Zn128 O156 2.053 . S
Zn128 O158 2.066 . S
O129 Zn128 2.055 . S
O129 C132 1.259 . S
C130 O158 1.256 . S
C130 O159 1.244 . S
Zn131 O133 2.046 . S
Zn131 O135 2.055 . S
Zn131 N137 2.036 . S
Zn131 O155 2.066 . S
Zn131 O159 2.053 . S
C132 O129 1.259 . S
C132 O133 1.254 . S
O133 Zn131 2.046 . S
O133 C132 1.254 . S
C134 O155 1.256 . S
C134 O156 1.244 . S
O135 Zn131 2.055 . S
O135 C157 1.259 . S
O136 Zn128 2.046 . S
O136 C157 1.254 . S
N137 Zn131 2.036 . S
N137 C138 1.298 . S
N137 N140 1.398 . S
C138 N137 1.298 . S
C138 N141 1.367 . S
C138 C151 1.481 . S
C139 N140 1.299 . S
C139 N141 1.379 . S
N140 N137 1.398 . S
N140 C139 1.299 . S
N141 C138 1.367 . S
N141 C139 1.379 . S
C142 N144 1.298 . S
C142 N146 1.367 . S
C142 C150 1.481 . S
C143 N145 1.299 . S
C143 N146 1.379 . S
N144 Zn128 2.036 . S
N144 C142 1.298 . S
N144 N145 1.398 . S
N145 C143 1.299 . S
N145 N144 1.398 . S
N146 C142 1.367 . S
N146 C143 1.379 . S
H147 C150 0.980 . S
H148 C150 0.981 . S
H149 C150 0.981 . S
C150 C142 1.481 . S
C150 H147 0.980 . S
C150 H148 0.981 . S
C150 H149 0.981 . S
C151 C138 1.481 . S
C151 H152 0.980 . S
C151 H153 0.981 . S
C151 H154 0.981 . S
H152 C151 0.980 . S
H153 C151 0.981 . S
H154 C151 0.981 . S
O155 Zn131 2.066 . S
O155 C134 1.256 . S
O156 Zn128 2.053 . S
O156 C134 1.244 . S
C157 O135 1.259 . S
C157 O136 1.254 . S
O158 Zn128 2.066 . S
O158 C130 1.256 . S
O159 C130 1.244 . S
O159 Zn131 2.053 . S
Zn160 O161 2.055 . S
Zn160 O168 2.046 . S
Zn160 N176 2.036 . S
Zn160 O188 2.053 . S
Zn160 O190 2.066 . S
O161 Zn160 2.055 . S
O161 C164 1.259 . S
C162 O190 1.256 . S
C162 O191 1.244 . S
Zn163 O165 2.046 . S
Zn163 O167 2.055 . S
Zn163 N169 2.036 . S
Zn163 O187 2.066 . S
Zn163 O191 2.053 . S
C164 O161 1.259 . S
C164 O165 1.254 . S
O165 Zn163 2.046 . S
O165 C164 1.254 . S
C166 O187 1.256 . S
C166 O188 1.244 . S
O167 Zn163 2.055 . S
O167 C189 1.259 . S
O168 Zn160 2.046 . S
O168 C189 1.254 . S
N169 Zn163 2.036 . S
N169 C170 1.298 . S
N169 N172 1.398 . S
C170 N169 1.298 . S
C170 N173 1.367 . S
C170 C183 1.481 . S
C171 N172 1.299 . S
C171 N173 1.379 . S
N172 N169 1.398 . S
N172 C171 1.299 . S
N173 C170 1.367 . S
N173 C171 1.379 . S
C174 N176 1.298 . S
C174 N178 1.367 . S
C174 C182 1.481 . S
C175 N177 1.299 . S
C175 N178 1.379 . S
N176 Zn160 2.036 . S
N176 C174 1.298 . S
N176 N177 1.398 . S
N177 C175 1.299 . S
N177 N176 1.398 . S
N178 C174 1.367 . S
N178 C175 1.379 . S
H179 C182 0.980 . S
H180 C182 0.981 . S
H181 C182 0.981 . S
C182 C174 1.481 . S
C182 H179 0.980 . S
C182 H180 0.981 . S
C182 H181 0.981 . S
C183 C170 1.481 . S
C183 H184 0.980 . S
C183 H185 0.981 . S
C183 H186 0.981 . S
H184 C183 0.980 . S
H185 C183 0.981 . S
H186 C183 0.981 . S
O187 Zn163 2.066 . S
O187 C166 1.256 . S
O188 Zn160 2.053 . S
O188 C166 1.244 . S
C189 O167 1.259 . S
C189 O168 1.254 . S
O190 Zn160 2.066 . S
O190 C162 1.256 . S
O191 C162 1.244 . S
O191 Zn163 2.053 . S
Zn192 O193 2.055 . S
Zn192 O200 2.046 . S
Zn192 N208 2.036 . S
Zn192 O220 2.053 . S
Zn192 O222 2.066 . S
O193 Zn192 2.055 . S
O193 C196 1.259 . S
C194 O222 1.256 . S
C194 O223 1.244 . S
Zn195 O197 2.046 . S
Zn195 O199 2.055 . S
Zn195 N201 2.036 . S
Zn195 O219 2.066 . S
Zn195 O223 2.053 . S
C196 O193 1.259 . S
C196 O197 1.254 . S
O197 Zn195 2.046 . S
O197 C196 1.254 . S
C198 O219 1.256 . S
C198 O220 1.244 . S
O199 Zn195 2.055 . S
O199 C221 1.259 . S
O200 Zn192 2.046 . S
O200 C221 1.254 . S
N201 Zn195 2.036 . S
N201 C202 1.298 . S
N201 N204 1.398 . S
C202 N201 1.298 . S
C202 N205 1.367 . S
C202 C215 1.481 . S
C203 N204 1.299 . S
C203 N205 1.379 . S
N204 N201 1.398 . S
N204 C203 1.299 . S
N205 C202 1.367 . S
N205 C203 1.379 . S
C206 N208 1.298 . S
C206 N210 1.367 . S
C206 C214 1.481 . S
C207 N209 1.299 . S
C207 N210 1.379 . S
N208 Zn192 2.036 . S
N208 C206 1.298 . S
N208 N209 1.398 . S
N209 C207 1.299 . S
N209 N208 1.398 . S
N210 C206 1.367 . S
N210 C207 1.379 . S
H211 C214 0.980 . S
H212 C214 0.981 . S
H213 C214 0.981 . S
C214 C206 1.481 . S
C214 H211 0.980 . S
C214 H212 0.981 . S
C214 H213 0.981 . S
C215 C202 1.481 . S
C215 H216 0.980 . S
C215 H217 0.981 . S
C215 H218 0.981 . S
H216 C215 0.980 . S
H217 C215 0.981 . S
H218 C215 0.981 . S
O219 Zn195 2.066 . S
O219 C198 1.256 . S
O220 Zn192 2.053 . S
O220 C198 1.244 . S
C221 O199 1.259 . S
C221 O200 1.254 . S
O222 Zn192 2.066 . S
O222 C194 1.256 . S
O223 C194 1.244 . S
O223 Zn195 2.053 . S
Zn224 O225 2.055 . S
Zn224 O232 2.046 . S
Zn224 N240 2.036 . S
Zn224 O252 2.053 . S
Zn224 O254 2.066 . S
O225 Zn224 2.055 . S
O225 C228 1.259 . S
C226 O254 1.256 . S
C226 O255 1.244 . S
Zn227 O229 2.046 . S
Zn227 O231 2.055 . S
Zn227 N233 2.036 . S
Zn227 O251 2.066 . S
Zn227 O255 2.053 . S
C228 O225 1.259 . S
C228 O229 1.254 . S
O229 Zn227 2.046 . S
O229 C228 1.254 . S
C230 O251 1.256 . S
C230 O252 1.244 . S
O231 Zn227 2.055 . S
O231 C253 1.259 . S
O232 Zn224 2.046 . S
O232 C253 1.254 . S
N233 Zn227 2.036 . S
N233 C234 1.298 . S
N233 N236 1.398 . S
C234 N233 1.298 . S
C234 N237 1.367 . S
C234 C247 1.481 . S
C235 N236 1.299 . S
C235 N237 1.379 . S
N236 N233 1.398 . S
N236 C235 1.299 . S
N237 C234 1.367 . S
N237 C235 1.379 . S
C238 N240 1.298 . S
C238 N242 1.367 . S
C238 C246 1.481 . S
C239 N241 1.299 . S
C239 N242 1.379 . S
N240 Zn224 2.036 . S
N240 C238 1.298 . S
N240 N241 1.398 . S
N241 C239 1.299 . S
N241 N240 1.398 . S
N242 C238 1.367 . S
N242 C239 1.379 . S
H243 C246 0.980 . S
H244 C246 0.981 . S
H245 C246 0.981 . S
C246 C238 1.481 . S
C246 H243 0.980 . S
C246 H244 0.981 . S
C246 H245 0.981 . S
C247 C234 1.481 . S
C247 H248 0.980 . S
C247 H249 0.981 . S
C247 H250 0.981 . S
H248 C247 0.980 . S
H249 C247 0.981 . S
H250 C247 0.981 . S
O251 Zn227 2.066 . S
O251 C230 1.256 . S
O252 Zn224 2.053 . S
O252 C230 1.244 . S
C253 O231 1.259 . S
C253 O232 1.254 . S
O254 Zn224 2.066 . S
O254 C226 1.256 . S
O255 C226 1.244 . S
O255 Zn227 2.053 . S
Zn256 O257 2.055 . S
Zn256 O264 2.046 . S
Zn256 N272 2.036 . S
Zn256 O284 2.053 . S
Zn256 O286 2.066 . S
O257 Zn256 2.055 . S
O257 C260 1.259 . S
C258 O286 1.256 . S
C258 O287 1.244 . S
Zn259 O261 2.046 . S
Zn259 O263 2.055 . S
Zn259 N265 2.036 . S
Zn259 O283 2.066 . S
Zn259 O287 2.053 . S
C260 O257 1.259 . S
C260 O261 1.254 . S
O261 Zn259 2.046 . S
O261 C260 1.254 . S
C262 O283 1.256 . S
C262 O284 1.244 . S
O263 Zn259 2.055 . S
O263 C285 1.259 . S
O264 Zn256 2.046 . S
O264 C285 1.254 . S
N265 Zn259 2.036 . S
N265 C266 1.298 . S
N265 N268 1.398 . S
C266 N265 1.298 . S
C266 N269 1.367 . S
C266 C279 1.481 . S
C267 N268 1.299 . S
C267 N269 1.379 . S
N268 N265 1.398 . S
N268 C267 1.299 . S
N269 C266 1.367 . S
N269 C267 1.379 . S
C270 N272 1.298 . S
C270 N274 1.367 . S
C270 C278 1.481 . S
C271 N273 1.299 . S
C271 N274 1.379 . S
N272 Zn256 2.036 . S
N272 C270 1.298 . S
N272 N273 1.398 . S
N273 C271 1.299 . S
N273 N272 1.398 . S
N274 C270 1.367 . S
N274 C271 1.379 . S
H275 C278 0.980 . S
H276 C278 0.981 . S
H277 C278 0.981 . S
C278 C270 1.481 . S
C278 H275 0.980 . S
C278 H276 0.981 . S
C278 H277 0.981 . S
C279 C266 1.481 . S
C279 H280 0.980 . S
C279 H281 0.981 . S
C279 H282 0.981 . S
H280 C279 0.980 . S
H281 C279 0.981 . S
H282 C279 0.981 . S
O283 Zn259 2.066 . S
O283 C262 1.256 . S
O284 Zn256 2.053 . S
O284 C262 1.244 . S
C285 O263 1.259 . S
C285 O264 1.254 . S
O286 Zn256 2.066 . S
O286 C258 1.256 . S
O287 C258 1.244 . S
O287 Zn259 2.053 . S
H288 C296 0.950 . S
H289 C301 0.950 . S
H290 C298 0.950 . S
H291 C300 0.950 . S
H292 C302 0.950 . S
H293 C304 0.950 . S
H294 C306 0.950 . S
H295 C307 0.950 . S
C296 H288 0.950 . S
C296 C297 1.386 . S
C296 C298 1.391 . S
C297 C296 1.386 . S
C297 C301 1.393 1_556 S
C298 H290 0.950 . S
C298 C296 1.391 . S
C298 C299 1.400 . S
C299 C298 1.400 . S
C299 C300 1.398 . S
C299 C305 1.491 . S
C300 H291 0.950 . S
C300 C299 1.398 . S
C300 C301 1.391 1_556 S
C301 H289 0.950 . S
C301 C297 1.393 1_554 S
C301 C300 1.391 1_554 S
C302 H292 0.950 . S
C302 C303 1.386 . S
C302 C304 1.391 . S
C303 C302 1.386 . S
C303 C307 1.393 . S
C304 H293 0.950 . S
C304 C302 1.391 . S
C304 C305 1.400 . S
C305 C299 1.491 . S
C305 C304 1.400 . S
C305 C306 1.398 . S
C306 H294 0.950 . S
C306 C305 1.398 . S
C306 C307 1.391 . S
C307 H295 0.950 . S
C307 C303 1.393 . S
C307 C306 1.391 . S
H308 C316 0.950 . S
H309 C321 0.950 1_554 S
H310 C318 0.950 . S
H311 C320 0.950 . S
H312 C322 0.950 . S
H313 C324 0.950 . S
H314 C326 0.950 . S
H315 C327 0.950 . S
C316 H308 0.950 . S
C316 C317 1.386 . S
C316 C318 1.391 . S
C317 C316 1.386 . S
C317 C321 1.393 . S
C318 H310 0.950 . S
C318 C316 1.391 . S
C318 C319 1.400 . S
C319 C318 1.400 . S
C319 C320 1.398 . S
C319 C325 1.491 . S
C320 H311 0.950 . S
C320 C319 1.398 . S
C320 C321 1.391 . S
C321 H309 0.950 1_556 S
C321 C317 1.393 . S
C321 C320 1.391 . S
C322 H312 0.950 . S
C322 C323 1.386 . S
C322 C324 1.391 . S
C323 C322 1.386 . S
C323 C327 1.393 . S
C324 H313 0.950 . S
C324 C322 1.391 . S
C324 C325 1.400 . S
C325 C319 1.491 . S
C325 C324 1.400 . S
C325 C326 1.398 . S
C326 H314 0.950 . S
C326 C325 1.398 . S
C326 C327 1.391 . S
C327 H315 0.950 . S
C327 C323 1.393 . S
C327 C326 1.391 . S
H328 C336 0.950 . S
H329 C341 0.950 . S
H330 C338 0.950 . S
H331 C340 0.950 . S
H332 C342 0.950 . S
H333 C344 0.950 . S
H334 C346 0.950 . S
H335 C347 0.950 . S
C336 H328 0.950 . S
C336 C337 1.386 . S
C336 C338 1.391 . S
C337 C336 1.386 . S
C337 C341 1.393 . S
C338 H330 0.950 . S
C338 C336 1.391 . S
C338 C339 1.400 . S
C339 C338 1.400 . S
C339 C340 1.398 . S
C339 C345 1.491 . S
C340 H331 0.950 . S
C340 C339 1.398 . S
C340 C341 1.391 . S
C341 H329 0.950 . S
C341 C337 1.393 . S
C341 C340 1.391 . S
C342 H332 0.950 . S
C342 C343 1.386 . S
C342 C344 1.391 . S
C343 C342 1.386 . S
C343 C347 1.393 . S
C344 H333 0.950 . S
C344 C342 1.391 . S
C344 C345 1.400 . S
C345 C339 1.491 . S
C345 C344 1.400 . S
C345 C346 1.398 . S
C346 H334 0.950 . S
C346 C345 1.398 . S
C346 C347 1.391 . S
C347 H335 0.950 . S
C347 C343 1.393 . S
C347 C346 1.391 . S
H348 C356 0.950 . S
H349 C361 0.950 . S
H350 C358 0.950 . S
H351 C360 0.950 . S
H352 C362 0.950 . S
H353 C364 0.950 . S
H354 C366 0.950 . S
H355 C367 0.950 . S
C356 H348 0.950 . S
C356 C357 1.386 . S
C356 C358 1.391 . S
C357 C356 1.386 . S
C357 C361 1.393 . S
C358 H350 0.950 . S
C358 C356 1.391 . S
C358 C359 1.400 . S
C359 C358 1.400 . S
C359 C360 1.398 . S
C359 C365 1.491 . S
C360 H351 0.950 . S
C360 C359 1.398 . S
C360 C361 1.391 . S
C361 H349 0.950 . S
C361 C357 1.393 . S
C361 C360 1.391 . S
C362 H352 0.950 . S
C362 C363 1.386 . S
C362 C364 1.391 . S
C363 C362 1.386 . S
C363 C367 1.393 . S
C364 H353 0.950 . S
C364 C362 1.391 . S
C364 C365 1.400 . S
C365 C359 1.491 . S
C365 C364 1.400 . S
C365 C366 1.398 . S
C366 H354 0.950 . S
C366 C365 1.398 . S
C366 C367 1.391 . S
C367 H355 0.950 . S
C367 C363 1.393 . S
C367 C366 1.391 . S
H368 C376 0.950 . S
H369 C381 0.950 . S
H370 C378 0.950 . S
H371 C380 0.950 . S
H372 C382 0.950 . S
H373 C384 0.950 . S
H374 C386 0.950 . S
H375 C387 0.950 . S
C376 H368 0.950 . S
C376 C377 1.386 . S
C376 C378 1.391 . S
C377 C376 1.386 . S
C377 C381 1.393 . S
C378 H370 0.950 . S
C378 C376 1.391 . S
C378 C379 1.400 . S
C379 C378 1.400 . S
C379 C380 1.398 . S
C379 C385 1.491 . S
C380 H371 0.950 . S
C380 C379 1.398 . S
C380 C381 1.391 . S
C381 H369 0.950 . S
C381 C377 1.393 . S
C381 C380 1.391 . S
C382 H372 0.950 . S
C382 C383 1.386 . S
C382 C384 1.391 . S
C383 C382 1.386 . S
C383 C387 1.393 . S
C384 H373 0.950 . S
C384 C382 1.391 . S
C384 C385 1.400 . S
C385 C379 1.491 . S
C385 C384 1.400 . S
C385 C386 1.398 . S
C386 H374 0.950 . S
C386 C385 1.398 . S
C386 C387 1.391 . S
C387 H375 0.950 . S
C387 C383 1.393 . S
C387 C386 1.391 . S
H388 C396 0.950 . S
H389 C401 0.950 . S
H390 C398 0.950 . S
H391 C400 0.950 . S
H392 C402 0.950 . S
H393 C404 0.950 . S
H394 C406 0.950 . S
H395 C407 0.950 . S
C396 H388 0.950 . S
C396 C397 1.386 . S
C396 C398 1.391 . S
C397 C396 1.386 . S
C397 C401 1.393 . S
C398 H390 0.950 . S
C398 C396 1.391 . S
C398 C399 1.400 . S
C399 C398 1.400 . S
C399 C400 1.398 . S
C399 C405 1.491 . S
C400 H391 0.950 . S
C400 C399 1.398 . S
C400 C401 1.391 . S
C401 H389 0.950 . S
C401 C397 1.393 . S
C401 C400 1.391 . S
C402 H392 0.950 . S
C402 C403 1.386 . S
C402 C404 1.391 . S
C403 C402 1.386 . S
C403 C407 1.393 . S
C404 H393 0.950 . S
C404 C402 1.391 . S
C404 C405 1.400 . S
C405 C399 1.491 . S
C405 C404 1.400 . S
C405 C406 1.398 . S
C406 H394 0.950 . S
C406 C405 1.398 . S
C406 C407 1.391 . S
C407 H395 0.950 . S
C407 C403 1.393 . S
C407 C406 1.391 . S
H408 C416 0.950 . S
H409 C421 0.950 . S
H410 C418 0.950 . S
H411 C420 0.950 . S
H412 C422 0.950 . S
H413 C424 0.950 . S
H414 C426 0.950 . S
H415 C427 0.950 . S
C416 H408 0.950 . S
C416 C417 1.386 . S
C416 C418 1.391 . S
C417 C416 1.386 . S
C417 C421 1.393 . S
C418 H410 0.950 . S
C418 C416 1.391 . S
C418 C419 1.400 . S
C419 C418 1.400 . S
C419 C420 1.398 . S
C419 C425 1.491 1_455 S
C420 H411 0.950 . S
C420 C419 1.398 . S
C420 C421 1.391 . S
C421 H409 0.950 . S
C421 C417 1.393 . S
C421 C420 1.391 . S
C422 H412 0.950 . S
C422 C423 1.386 . S
C422 C424 1.391 . S
C423 C422 1.386 . S
C423 C427 1.393 . S
C424 H413 0.950 . S
C424 C422 1.391 . S
C424 C425 1.400 . S
C425 C419 1.491 1_655 S
C425 C424 1.400 . S
C425 C426 1.398 . S
C426 H414 0.950 . S
C426 C425 1.398 . S
C426 C427 1.391 . S
C427 H415 0.950 . S
C427 C423 1.393 . S
C427 C426 1.391 . S
H428 C436 0.950 . S
H429 C441 0.950 . S
H430 C438 0.950 . S
H431 C440 0.950 . S
H432 C442 0.950 . S
H433 C444 0.950 . S
H434 C446 0.950 . S
H435 C447 0.950 . S
C436 H428 0.950 . S
C436 C437 1.386 . S
C436 C438 1.391 . S
C437 C436 1.386 . S
C437 C441 1.393 . S
C438 H430 0.950 . S
C438 C436 1.391 . S
C438 C439 1.400 . S
C439 C438 1.400 . S
C439 C440 1.398 . S
C439 C445 1.491 . S
C440 H431 0.950 . S
C440 C439 1.398 . S
C440 C441 1.391 . S
C441 H429 0.950 . S
C441 C437 1.393 . S
C441 C440 1.391 . S
C442 H432 0.950 . S
C442 C443 1.386 . S
C442 C444 1.391 . S
C443 C442 1.386 . S
C443 C447 1.393 . S
C444 H433 0.950 . S
C444 C442 1.391 . S
C444 C445 1.400 . S
C445 C439 1.491 . S
C445 C444 1.400 . S
C445 C446 1.398 . S
C446 H434 0.950 . S
C446 C445 1.398 . S
C446 C447 1.391 . S
C447 H435 0.950 . S
C447 C443 1.393 . S
C447 C446 1.391 . S
H448 C456 0.950 . S
H449 C461 0.950 . S
H450 C458 0.950 . S
H451 C460 0.950 . S
H452 C462 0.950 . S
H453 C464 0.953 1_545 S
H454 C466 0.950 1_545 S
H455 C467 0.950 . S
C456 H448 0.950 . S
C456 C457 1.386 . S
C456 C458 1.391 . S
C457 C456 1.386 . S
C457 C461 1.393 . S
C458 H450 0.950 . S
C458 C456 1.391 . S
C458 C459 1.400 . S
C459 C458 1.400 . S
C459 C460 1.398 . S
C459 C465 1.491 . S
C460 H451 0.950 . S
C460 C459 1.398 . S
C460 C461 1.391 . S
C461 H449 0.950 . S
C461 C457 1.393 . S
C461 C460 1.391 . S
C462 H452 0.950 . S
C462 C463 1.386 . S
C462 C464 1.411 . S
C463 C462 1.386 . S
C463 C467 1.393 . S
C464 H453 0.953 1_565 S
C464 C462 1.411 . S
C464 C465 1.379 1_565 S
C465 C459 1.491 . S
C465 C464 1.379 1_545 S
C465 C466 1.398 1_545 S
C466 H454 0.950 1_565 S
C466 C465 1.398 1_565 S
C466 C467 1.391 . S
C467 H455 0.950 . S
C467 C463 1.393 . S
C467 C466 1.391 . S
H468 C476 0.950 . S
H469 C481 0.950 . S
H470 C478 0.950 . S
H471 C480 0.950 . S
H472 C482 0.950 . S
H473 C484 0.950 . S
H474 C486 0.950 . S
H475 C487 0.950 . S
C476 H468 0.950 . S
C476 C477 1.386 1_556 S
C476 C478 1.391 . S
C477 C476 1.386 1_554 S
C477 C481 1.393 . S
C478 H470 0.950 . S
C478 C476 1.391 . S
C478 C479 1.400 1_556 S
C479 C478 1.400 1_554 S
C479 C480 1.398 . S
C479 C485 1.491 . S
C480 H471 0.950 . S
C480 C479 1.398 . S
C480 C481 1.391 . S
C481 H469 0.950 . S
C481 C477 1.393 . S
C481 C480 1.391 . S
C482 H472 0.950 . S
C482 C483 1.386 . S
C482 C484 1.391 . S
C483 C482 1.386 . S
C483 C487 1.393 1_554 S
C484 H473 0.950 . S
C484 C482 1.391 . S
C484 C485 1.400 . S
C485 C479 1.491 . S
C485 C484 1.400 . S
C485 C486 1.398 1_554 S
C486 H474 0.950 . S
C486 C485 1.398 1_556 S
C486 C487 1.391 . S
C487 H475 0.950 . S
C487 C483 1.393 1_556 S
C487 C486 1.391 . S
H488 C496 0.950 . S
H489 C501 0.950 . S
H490 C498 0.949 1_545 S
H491 C500 0.950 1_545 S
H492 C502 0.950 . S
H493 C504 0.950 . S
H494 C506 0.950 . S
H495 C507 0.950 . S
C496 H488 0.950 . S
C496 C497 1.386 1_556 S
C496 C498 1.391 . S
C497 C496 1.386 1_554 S
C497 C501 1.393 . S
C498 H490 0.949 1_565 S
C498 C496 1.391 . S
C498 C499 1.400 1_566 S
C499 C498 1.400 1_544 S
C499 C500 1.398 1_545 S
C499 C505 1.491 . S
C500 H491 0.950 1_565 S
C500 C499 1.398 1_565 S
C500 C501 1.391 . S
C501 H489 0.950 . S
C501 C497 1.393 . S
C501 C500 1.391 . S
C502 H492 0.950 . S
C502 C503 1.386 . S
C502 C504 1.391 . S
C503 C502 1.386 . S
C503 C507 1.393 1_554 S
C504 H493 0.950 . S
C504 C502 1.391 . S
C504 C505 1.400 . S
C505 C499 1.491 . S
C505 C504 1.400 . S
C505 C506 1.398 1_554 S
C506 H494 0.950 . S
C506 C505 1.398 1_556 S
C506 C507 1.391 . S
C507 H495 0.950 . S
C507 C503 1.393 1_556 S
C507 C506 1.391 . S
H508 C516 0.950 . S
H509 C521 0.950 . S
H510 C518 0.950 . S
H511 C520 0.950 . S
H512 C522 0.950 . S
H513 C524 0.950 . S
H514 C526 0.950 . S
H515 C527 0.950 . S
C516 H508 0.950 . S
C516 C517 1.386 1_556 S
C516 C518 1.391 . S
C517 C516 1.386 1_554 S
C517 C521 1.393 . S
C518 H510 0.950 . S
C518 C516 1.391 . S
C518 C519 1.400 1_556 S
C519 C518 1.400 1_554 S
C519 C520 1.398 . S
C519 C525 1.491 1_655 S
C520 H511 0.950 . S
C520 C519 1.398 . S
C520 C521 1.391 . S
C521 H509 0.950 . S
C521 C517 1.393 . S
C521 C520 1.391 . S
C522 H512 0.950 . S
C522 C523 1.386 1_554 S
C522 C524 1.391 . S
C523 C522 1.386 1_556 S
C523 C527 1.393 . S
C524 H513 0.950 . S
C524 C522 1.391 . S
C524 C525 1.400 . S
C525 C519 1.491 1_455 S
C525 C524 1.400 . S
C525 C526 1.398 1_554 S
C526 H514 0.950 . S
C526 C525 1.398 1_556 S
C526 C527 1.391 . S
C527 H515 0.950 . S
C527 C523 1.393 . S
C527 C526 1.391 . S
H528 C536 0.950 . S
H529 C541 0.950 . S
H530 C538 0.950 . S
H531 C540 0.950 . S
H532 C542 0.950 . S
H533 C544 0.950 . S
H534 C546 0.950 . S
H535 C547 0.950 . S
C536 H528 0.950 . S
C536 C537 1.386 . S
C536 C538 1.391 . S
C537 C536 1.386 . S
C537 C541 1.393 . S
C538 H530 0.950 . S
C538 C536 1.391 . S
C538 C539 1.400 . S
C539 C538 1.400 . S
C539 C540 1.398 . S
C539 C545 1.491 . S
C540 H531 0.950 . S
C540 C539 1.398 . S
C540 C541 1.391 . S
C541 H529 0.950 . S
C541 C537 1.393 . S
C541 C540 1.391 . S
C542 H532 0.950 . S
C542 C543 1.386 . S
C542 C544 1.391 . S
C543 C542 1.386 . S
C543 C547 1.393 . S
C544 H533 0.950 . S
C544 C542 1.391 . S
C544 C545 1.400 . S
C545 C539 1.491 . S
C545 C544 1.400 . S
C545 C546 1.398 . S
C546 H534 0.950 . S
C546 C545 1.398 . S
C546 C547 1.391 . S
C547 H535 0.950 . S
C547 C543 1.393 . S
C547 C546 1.391 . S
H548 C556 0.950 . S
H549 C561 0.950 . S
H550 C558 0.950 . S
H551 C560 0.950 . S
H552 C562 0.950 . S
H553 C564 0.950 . S
H554 C566 0.950 . S
H555 C567 0.950 . S
C556 H548 0.950 . S
C556 C557 1.386 . S
C556 C558 1.391 . S
C557 C556 1.386 . S
C557 C561 1.393 . S
C558 H550 0.950 . S
C558 C556 1.391 . S
C558 C559 1.400 . S
C559 C558 1.400 . S
C559 C560 1.398 . S
C559 C565 1.491 . S
C560 H551 0.950 . S
C560 C559 1.398 . S
C560 C561 1.391 . S
C561 H549 0.950 . S
C561 C557 1.393 . S
C561 C560 1.391 . S
C562 H552 0.950 . S
C562 C563 1.386 . S
C562 C564 1.391 . S
C563 C562 1.386 . S
C563 C567 1.393 . S
C564 H553 0.950 . S
C564 C562 1.391 . S
C564 C565 1.400 . S
C565 C559 1.491 . S
C565 C564 1.400 . S
C565 C566 1.398 . S
C566 H554 0.950 . S
C566 C565 1.398 . S
C566 C567 1.391 . S
C567 H555 0.950 . S
C567 C563 1.393 . S
C567 C566 1.391 . S
H568 C576 0.950 . S
H569 C581 0.950 . S
H570 C578 0.950 . S
H571 C580 0.950 . S
H572 C582 0.950 . S
H573 C584 0.950 . S
H574 C586 0.950 . S
H575 C587 0.950 . S
C576 H568 0.950 . S
C576 C577 1.386 . S
C576 C578 1.391 . S
C577 C576 1.386 . S
C577 C581 1.393 . S
C578 H570 0.950 . S
C578 C576 1.391 . S
C578 C579 1.400 . S
C579 C578 1.400 . S
C579 C580 1.398 . S
C579 C585 1.491 . S
C580 H571 0.950 . S
C580 C579 1.398 . S
C580 C581 1.391 . S
C581 H569 0.950 . S
C581 C577 1.393 . S
C581 C580 1.391 . S
C582 H572 0.950 . S
C582 C583 1.386 . S
C582 C584 1.391 . S
C583 C582 1.386 . S
C583 C587 1.393 . S
C584 H573 0.950 . S
C584 C582 1.391 . S
C584 C585 1.400 . S
C585 C579 1.491 . S
C585 C584 1.400 . S
C585 C586 1.398 . S
C586 H574 0.950 . S
C586 C585 1.398 . S
C586 C587 1.391 . S
C587 H575 0.950 . S
C587 C583 1.393 . S
C587 C586 1.391 . S
H588 C596 0.950 . S
H589 C601 0.950 . S
H590 C598 0.950 . S
H591 C600 0.950 . S
H592 C602 0.950 . S
H593 C604 0.950 . S
H594 C606 0.950 . S
H595 C607 0.950 . S
C596 H588 0.950 . S
C596 C597 1.386 . S
C596 C598 1.391 . S
C597 C596 1.386 . S
C597 C601 1.393 . S
C598 H590 0.950 . S
C598 C596 1.391 . S
C598 C599 1.400 . S
C599 C598 1.400 . S
C599 C600 1.398 . S
C599 C605 1.491 . S
C600 H591 0.950 . S
C600 C599 1.398 . S
C600 C601 1.391 . S
C601 H589 0.950 . S
C601 C597 1.393 . S
C601 C600 1.391 . S
C602 H592 0.950 . S
C602 C603 1.386 . S
C602 C604 1.391 . S
C603 C602 1.386 . S
C603 C607 1.393 . S
C604 H593 0.950 . S
C604 C602 1.391 . S
C604 C605 1.400 . S
C605 C599 1.491 . S
C605 C604 1.400 . S
C605 C606 1.398 . S
C606 H594 0.950 . S
C606 C605 1.398 . S
C606 C607 1.391 . S
C607 H595 0.950 . S
C607 C603 1.393 . S
C607 C606 1.391 . S
H608 C616 0.950 . S
H609 C621 0.950 . S
H610 C618 0.950 . S
H611 C620 0.950 . S
H612 C622 0.950 . S
H613 C624 0.950 . S
H614 C626 0.950 . S
H615 C627 0.950 . S
C616 H608 0.950 . S
C616 C617 1.386 . S
C616 C618 1.391 . S
C617 C616 1.386 . S
C617 C621 1.393 . S
C618 H610 0.950 . S
C618 C616 1.391 . S
C618 C619 1.400 . S
C619 C618 1.400 . S
C619 C620 1.398 . S
C619 C625 1.491 . S
C620 H611 0.950 . S
C620 C619 1.398 . S
C620 C621 1.391 . S
C621 H609 0.950 . S
C621 C617 1.393 . S
C621 C620 1.391 . S
C622 H612 0.950 . S
C622 C623 1.386 . S
C622 C624 1.391 . S
C623 C622 1.386 . S
C623 C627 1.393 . S
C624 H613 0.950 . S
C624 C622 1.391 . S
C624 C625 1.400 . S
C625 C619 1.491 . S
C625 C624 1.400 . S
C625 C626 1.398 . S
C626 H614 0.950 . S
C626 C625 1.398 . S
C626 C627 1.391 . S
C627 H615 0.950 . S
C627 C623 1.393 . S
C627 C626 1.391 . S
H628 C636 0.950 . S
H629 C641 0.950 . S
H630 C638 0.950 . S
H631 C640 0.950 . S
H632 C642 0.950 . S
H633 C644 0.950 . S
H634 C646 0.950 . S
H635 C647 0.950 . S
C636 H628 0.950 . S
C636 C637 1.386 . S
C636 C638 1.391 . S
C637 C636 1.386 . S
C637 C641 1.393 . S
C638 H630 0.950 . S
C638 C636 1.391 . S
C638 C639 1.400 . S
C639 C638 1.400 . S
C639 C640 1.398 . S
C639 C645 1.491 . S
C640 H631 0.950 . S
C640 C639 1.398 . S
C640 C641 1.391 . S
C641 H629 0.950 . S
C641 C637 1.393 . S
C641 C640 1.391 . S
C642 H632 0.950 . S
C642 C643 1.386 . S
C642 C644 1.391 . S
C643 C642 1.386 . S
C643 C647 1.393 . S
C644 H633 0.950 . S
C644 C642 1.391 . S
C644 C645 1.400 . S
C645 C639 1.491 . S
C645 C644 1.400 . S
C645 C646 1.398 . S
C646 H634 0.950 . S
C646 C645 1.398 . S
C646 C647 1.391 . S
C647 H635 0.950 . S
C647 C643 1.393 . S
C647 C646 1.391 . S
H648 C656 0.950 . S
H649 C661 0.950 . S
H650 C658 0.950 . S
H651 C660 0.950 . S
H652 C662 0.950 . S
H653 C664 0.950 . S
H654 C666 0.950 1_655 S
H655 C667 0.950 . S
C656 H648 0.950 . S
C656 C657 1.386 . S
C656 C658 1.391 . S
C657 C656 1.386 . S
C657 C661 1.393 1_655 S
C658 H650 0.950 . S
C658 C656 1.391 . S
C658 C659 1.400 1_655 S
C659 C658 1.400 1_455 S
C659 C660 1.398 . S
C659 C665 1.491 . S
C660 H651 0.950 . S
C660 C659 1.398 . S
C660 C661 1.391 . S
C661 H649 0.950 . S
C661 C657 1.393 1_455 S
C661 C660 1.391 . S
C662 H652 0.950 . S
C662 C663 1.386 . S
C662 C664 1.391 . S
C663 C662 1.386 . S
C663 C667 1.393 . S
C664 H653 0.950 . S
C664 C662 1.391 . S
C664 C665 1.400 . S
C665 C659 1.491 . S
C665 C664 1.400 . S
C665 C666 1.398 . S
C666 H654 0.950 1_455 S
C666 C665 1.398 . S
C666 C667 1.391 . S
C667 H655 0.950 . S
C667 C663 1.393 . S
C667 C666 1.391 . S
H668 C676 0.950 . S
H669 C681 0.950 . S
H670 C678 0.950 . S
H671 C680 0.950 . S
H672 C682 0.950 . S
H673 C684 0.950 . S
H674 C686 0.950 . S
H675 C687 0.950 . S
C676 H668 0.950 . S
C676 C677 1.386 . S
C676 C678 1.391 . S
C677 C676 1.386 . S
C677 C681 1.393 . S
C678 H670 0.950 . S
C678 C676 1.391 . S
C678 C679 1.400 . S
C679 C678 1.400 . S
C679 C680 1.398 . S
C679 C685 1.491 . S
C680 H671 0.950 . S
C680 C679 1.398 . S
C680 C681 1.391 . S
C681 H669 0.950 . S
C681 C677 1.393 . S
C681 C680 1.391 . S
C682 H672 0.950 . S
C682 C683 1.386 . S
C682 C684 1.391 . S
C683 C682 1.386 . S
C683 C687 1.393 . S
C684 H673 0.950 . S
C684 C682 1.391 . S
C684 C685 1.400 . S
C685 C679 1.491 . S
C685 C684 1.400 . S
C685 C686 1.398 . S
C686 H674 0.950 . S
C686 C685 1.398 . S
C686 C687 1.391 . S
C687 H675 0.950 . S
C687 C683 1.393 . S
C687 C686 1.391 . S
H688 C696 0.950 . S
H689 C701 0.950 . S
H690 C698 0.950 . S
H691 C700 0.950 . S
H692 C702 0.950 . S
H693 C704 0.950 . S
H694 C706 0.950 . S
H695 C707 0.950 . S
C696 H688 0.950 . S
C696 C697 1.386 1_565 S
C696 C698 1.391 . S
C697 C696 1.386 1_545 S
C697 C701 1.393 . S
C698 H690 0.950 . S
C698 C696 1.391 . S
C698 C699 1.400 1_565 S
C699 C698 1.400 1_545 S
C699 C700 1.398 . S
C699 C705 1.491 1_545 S
C700 H691 0.950 . S
C700 C699 1.398 . S
C700 C701 1.391 . S
C701 H689 0.950 . S
C701 C697 1.393 . S
C701 C700 1.391 . S
C702 H692 0.950 . S
C702 C703 1.386 1_545 S
C702 C704 1.391 . S
C703 C702 1.386 1_565 S
C703 C707 1.393 . S
C704 H693 0.950 . S
C704 C702 1.391 . S
C704 C705 1.400 1_545 S
C705 C699 1.491 1_565 S
C705 C704 1.400 1_565 S
C705 C706 1.398 . S
C706 H694 0.950 . S
C706 C705 1.398 . S
C706 C707 1.391 . S
C707 H695 0.950 . S
C707 C703 1.393 . S
C707 C706 1.391 . S
H708 C716 0.950 . S
H709 C721 0.950 . S
H710 C718 0.950 . S
H711 C720 0.950 . S
H712 C722 0.950 1_554 S
H713 C724 0.950 . S
H714 C726 0.950 . S
H715 C727 0.950 . S
C716 H708 0.950 . S
C716 C717 1.386 . S
C716 C718 1.391 . S
C717 C716 1.386 . S
C717 C721 1.393 . S
C718 H710 0.950 . S
C718 C716 1.391 . S
C718 C719 1.400 . S
C719 C718 1.400 . S
C719 C720 1.398 . S
C719 C725 1.491 . S
C720 H711 0.950 . S
C720 C719 1.398 . S
C720 C721 1.391 . S
C721 H709 0.950 . S
C721 C717 1.393 . S
C721 C720 1.391 . S
C722 H712 0.950 1_556 S
C722 C723 1.386 . S
C722 C724 1.391 . S
C723 C722 1.386 . S
C723 C727 1.393 . S
C724 H713 0.950 . S
C724 C722 1.391 . S
C724 C725 1.400 . S
C725 C719 1.491 . S
C725 C724 1.400 . S
C725 C726 1.398 . S
C726 H714 0.950 . S
C726 C725 1.398 . S
C726 C727 1.391 . S
C727 H715 0.950 . S
C727 C723 1.393 . S
C727 C726 1.391 . S
H728 C736 0.950 . S
H729 C741 0.950 . S
H730 C738 0.950 . S
H731 C740 0.950 . S
H732 C742 0.950 . S
H733 C744 0.950 . S
H734 C746 0.950 . S
H735 C747 0.950 . S
C736 H728 0.950 . S
C736 C737 1.386 . S
C736 C738 1.391 . S
C737 C736 1.386 . S
C737 C741 1.393 . S
C738 H730 0.950 . S
C738 C736 1.391 . S
C738 C739 1.400 . S
C739 C738 1.400 . S
C739 C740 1.398 . S
C739 C745 1.491 . S
C740 H731 0.950 . S
C740 C739 1.398 . S
C740 C741 1.391 . S
C741 H729 0.950 . S
C741 C737 1.393 . S
C741 C740 1.391 . S
C742 H732 0.950 . S
C742 C743 1.386 . S
C742 C744 1.391 . S
C743 C742 1.386 . S
C743 C747 1.393 . S
C744 H733 0.950 . S
C744 C742 1.391 . S
C744 C745 1.400 . S
C745 C739 1.491 . S
C745 C744 1.400 . S
C745 C746 1.398 . S
C746 H734 0.950 . S
C746 C745 1.398 . S
C746 C747 1.391 . S
C747 H735 0.950 . S
C747 C743 1.393 . S
C747 C746 1.391 . S
H748 C756 0.950 . S
H749 C761 0.950 . S
H750 C758 0.950 . S
H751 C760 0.950 . S
H752 C762 0.950 . S
H753 C764 0.950 . S
H754 C766 0.950 . S
H755 C767 0.950 . S
C756 H748 0.950 . S
C756 C757 1.386 . S
C756 C758 1.391 . S
C757 C756 1.386 . S
C757 C761 1.393 . S
C758 H750 0.950 . S
C758 C756 1.391 . S
C758 C759 1.400 . S
C759 C758 1.400 . S
C759 C760 1.398 . S
C759 C765 1.491 . S
C760 H751 0.950 . S
C760 C759 1.398 . S
C760 C761 1.391 . S
C761 H749 0.950 . S
C761 C757 1.393 . S
C761 C760 1.391 . S
C762 H752 0.950 . S
C762 C763 1.386 . S
C762 C764 1.391 . S
C763 C762 1.386 . S
C763 C767 1.393 . S
C764 H753 0.950 . S
C764 C762 1.391 . S
C764 C765 1.400 . S
C765 C759 1.491 . S
C765 C764 1.400 . S
C765 C766 1.398 . S
C766 H754 0.950 . S
C766 C765 1.398 . S
C766 C767 1.391 . S
C767 H755 0.950 . S
C767 C763 1.393 . S
C767 C766 1.391 . S
H768 C776 0.950 . S
H769 C781 0.950 . S
H770 C778 0.950 . S
H771 C780 0.950 . S
H772 C782 0.950 . S
H773 C784 0.950 . S
H774 C786 0.950 . S
H775 C787 0.950 1_556 S
C776 H768 0.950 . S
C776 C777 1.386 . S
C776 C778 1.391 . S
C777 C776 1.386 . S
C777 C781 1.393 . S
C778 H770 0.950 . S
C778 C776 1.391 . S
C778 C779 1.400 . S
C779 C778 1.400 . S
C779 C780 1.398 . S
C779 C785 1.491 . S
C780 H771 0.950 . S
C780 C779 1.398 . S
C780 C781 1.391 . S
C781 H769 0.950 . S
C781 C777 1.393 . S
C781 C780 1.391 . S
C782 H772 0.950 . S
C782 C783 1.386 . S
C782 C784 1.391 . S
C783 C782 1.386 . S
C783 C787 1.393 . S
C784 H773 0.950 . S
C784 C782 1.391 . S
C784 C785 1.400 . S
C785 C779 1.491 . S
C785 C784 1.400 . S
C785 C786 1.398 . S
C786 H774 0.950 . S
C786 C785 1.398 . S
C786 C787 1.391 . S
C787 H775 0.950 1_554 S
C787 C783 1.393 . S
C787 C786 1.391 . S
H788 C796 0.950 . S
H789 C801 0.950 . S
H790 C798 0.950 . S
H791 C800 0.950 . S
H792 C802 0.950 . S
H793 C804 0.950 . S
H794 C806 0.950 . S
H795 C807 0.950 . S
C796 H788 0.950 . S
C796 C797 1.386 . S
C796 C798 1.391 . S
C797 C796 1.386 . S
C797 C801 1.393 . S
C798 H790 0.950 . S
C798 C796 1.391 . S
C798 C799 1.400 . S
C799 C798 1.400 . S
C799 C800 1.398 . S
C799 C805 1.491 . S
C800 H791 0.950 . S
C800 C799 1.398 . S
C800 C801 1.391 . S
C801 H789 0.950 . S
C801 C797 1.393 . S
C801 C800 1.391 . S
C802 H792 0.950 . S
C802 C803 1.386 . S
C802 C804 1.391 . S
C803 C802 1.386 . S
C803 C807 1.393 . S
C804 H793 0.950 . S
C804 C802 1.391 . S
C804 C805 1.400 . S
C805 C799 1.491 . S
C805 C804 1.400 . S
C805 C806 1.398 . S
C806 H794 0.950 . S
C806 C805 1.398 . S
C806 C807 1.391 . S
C807 H795 0.950 . S
C807 C803 1.393 . S
C807 C806 1.391 . S
H808 C816 0.950 . S
H809 C821 0.950 . S
H810 C818 0.950 . S
H811 C820 0.950 . S
H812 C822 0.950 . S
H813 C824 0.950 . S
H814 C826 0.950 . S
H815 C827 0.950 . S
C816 H808 0.950 . S
C816 C817 1.386 . S
C816 C818 1.391 . S
C817 C816 1.386 . S
C817 C821 1.393 . S
C818 H810 0.950 . S
C818 C816 1.391 . S
C818 C819 1.400 . S
C819 C818 1.400 . S
C819 C820 1.398 . S
C819 C825 1.491 . S
C820 H811 0.950 . S
C820 C819 1.398 . S
C820 C821 1.391 . S
C821 H809 0.950 . S
C821 C817 1.393 . S
C821 C820 1.391 . S
C822 H812 0.950 . S
C822 C823 1.386 . S
C822 C824 1.391 . S
C823 C822 1.386 . S
C823 C827 1.393 . S
C824 H813 0.950 . S
C824 C822 1.391 . S
C824 C825 1.400 . S
C825 C819 1.491 . S
C825 C824 1.400 . S
C825 C826 1.398 . S
C826 H814 0.950 . S
C826 C825 1.398 . S
C826 C827 1.391 . S
C827 H815 0.950 . S
C827 C823 1.393 . S
C827 C826 1.391 . S
C297 C6 1.800 1_556 S
C303 C226 1.812 . S
C317 C36 1.572 1_556 S
C323 C285 1.576 . S
C337 C66 1.709 . S
C343 C221 1.681 . S
C357 C132 1.382 . S
C363 C68 1.379 . S
C377 C164 1.552 . S
C383 C29 1.552 . S
C397 C34 1.711 . S
C403 C125 1.686 . S
C417 C228 1.721 . S
C423 C162 1.740 . S
C437 C262 1.849 . S
C443 C102 1.845 . S
C457 C130 2.024 . S
C463 C198 2.035 . S
C477 C93 1.269 . S
C483 C2 1.272 . S
C497 C61 1.246 . S
C503 C4 1.244 . S
C517 C38 1.272 . S
C523 C70 1.279 . S
C537 C100 1.291 . S
C543 C166 1.290 . S
C557 C98 1.317 . S
C563 C157 1.321 . S
C577 C134 1.295 . S
C583 C189 1.289 . S
C597 C260 1.313 . S
C603 C194 1.322 . S
C617 C253 1.272 . S
C623 C196 1.271 . S
C637 C258 1.300 . S
C643 C230 1.301 . S
C657 N13 1.127 . S
C663 N18 1.094 . S
C677 N45 0.993 . S
C683 N50 1.006 . S
C697 N82 0.954 . S
C703 N77 0.943 . S
C717 N109 1.113 . S
C723 N114 1.090 1_556 S
C737 N146 1.055 . S
C743 N141 1.029 1_556 S
C757 N178 1.060 . S
C763 N173 1.042 1_556 S
C777 N205 1.153 . S
C783 N210 1.116 1_554 S
C797 N242 1.117 1_554 S
C803 N237 1.091 . S
C817 N269 1.009 . S
C823 N274 0.988 1_554 S
