# Generated by pormake.
# Topology smt, (6)-cn, num edge types: 1
# Building blocks:
#     Node 0, Type 0, BuildingBlock: UKALOJ_clean_sbu_0, # of connection points: 6
#     Node 1, Type 0, BuildingBlock: UKALOJ_clean_sbu_0, # of connection points: 6
#     Node 2, Type 0, BuildingBlock: UKALOJ_clean_sbu_0, # of connection points: 6
#     Node 3, Type 0, BuildingBlock: UKALOJ_clean_sbu_0, # of connection points: 6
#     Node 4, Type 0, BuildingBlock: UKALOJ_clean_sbu_0, # of connection points: 6
#     Node 5, Type 0, BuildingBlock: UKALOJ_clean_sbu_0, # of connection points: 6
#     Edge 6, Type (0, 0), BuildingBlock: EZIPEK_clean_linker_0, # of connection points: 2
#     Edge 7, Type (0, 0), BuildingBlock: EZIPEK_clean_linker_0, # of connection points: 2
#     Edge 8, Type (0, 0), BuildingBlock: EZIPEK_clean_linker_0, # of connection points: 2
#     Edge 9, Type (0, 0), BuildingBlock: EZIPEK_clean_linker_0, # of connection points: 2
#     Edge 10, Type (0, 0), BuildingBlock: EZIPEK_clean_linker_0, # of connection points: 2
#     Edge 11, Type (0, 0), BuildingBlock: EZIPEK_clean_linker_0, # of connection points: 2
#     Edge 12, Type (0, 0), BuildingBlock: EZIPEK_clean_linker_0, # of connection points: 2
#     Edge 13, Type (0, 0), BuildingBlock: EZIPEK_clean_linker_0, # of connection points: 2
#     Edge 14, Type (0, 0), BuildingBlock: EZIPEK_clean_linker_0, # of connection points: 2
#     Edge 15, Type (0, 0), BuildingBlock: EZIPEK_clean_linker_0, # of connection points: 2
#     Edge 16, Type (0, 0), BuildingBlock: EZIPEK_clean_linker_0, # of connection points: 2
#     Edge 17, Type (0, 0), BuildingBlock: EZIPEK_clean_linker_0, # of connection points: 2
#     Edge 18, Type (0, 0), BuildingBlock: EZIPEK_clean_linker_0, # of connection points: 2
#     Edge 19, Type (0, 0), BuildingBlock: EZIPEK_clean_linker_0, # of connection points: 2
#     Edge 20, Type (0, 0), BuildingBlock: EZIPEK_clean_linker_0, # of connection points: 2
#     Edge 21, Type (0, 0), BuildingBlock: EZIPEK_clean_linker_0, # of connection points: 2
#     Edge 22, Type (0, 0), BuildingBlock: EZIPEK_clean_linker_0, # of connection points: 2
#     Edge 23, Type (0, 0), BuildingBlock: EZIPEK_clean_linker_0, # of connection points: 2
# Relax obj value: 0.366
# Max RMSD: 0.287
# Mean RMSD: 0.287
data_MOF--net-smt--node1-UKALOJ_clean_sbu_0--edge1-EZIPEK_clean_linker_0
_symmetry_space_group_name_H-M    P1
_symmetry_Int_Tables_number       1
_symmetry_cell_setting            triclinic
loop_
_symmetry_equiv_pos_as_xyz
'x, y, z'
_cell_length_a     28.879585
_cell_length_b     28.777192
_cell_length_c     19.488986
_cell_angle_alpha  90.496873
_cell_angle_beta   89.722158
_cell_angle_gamma 119.87043
loop_
_atom_site_label
_atom_site_type_symbol
_atom_site_fract_x
_atom_site_fract_y
_atom_site_fract_z
_atom_type_partial_charge
Zn0 Zn 0.50814 0.1276 0.01479 0.0
O1 O 0.4852 0.07572 0.10032 0.0
C2 C 0.39724 0.07031 0.97999 0.0
Zn3 Zn 0.47148 0.17131 0.06479 0.0
C4 C 0.46583 0.08568 0.15373 0.0
O5 O 0.45646 0.12434 0.15273 0.0
C6 C 0.52015 0.21811 0.93093 0.0
O7 O 0.54337 0.23034 0.11365 0.0
O8 O 0.57648 0.1827 0.06773 0.0
N9 N 0.42455 0.20141 0.10183 0.0
C10 C 0.42564 0.24872 0.09578 0.0
C11 C 0.34783 0.19146 0.13069 0.0
N12 N 0.37621 0.16619 0.12389 0.0
N13 N 0.37767 0.24337 0.11309 0.0
C14 C 0.53268 0.04795 0.93859 0.0
C15 C 0.60783 0.10237 0.89395 0.0
N16 N 0.55021 0.09585 0.96969 0.0
N17 N 0.59746 0.12925 0.94286 0.0
N18 N 0.56743 0.05144 0.88959 0.0
H19 H 0.46574 0.00031 0.00505 0.0
H20 H 0.4851 0.96256 0.94837 0.0
H21 H 0.45019 0.994 0.91454 0.0
C22 C 0.48036 0.99844 0.95295 0.0
C23 C 0.47282 0.29926 0.07062 0.0
H24 H 0.51045 0.30053 0.08549 0.0
H25 H 0.4721 0.33489 0.09153 0.0
H26 H 0.47164 0.30046 0.01382 0.0
O27 O 0.49147 0.22087 0.97861 0.0
O28 O 0.53083 0.18042 0.93107 0.0
C29 C 0.58217 0.22153 0.10511 0.0
O30 O 0.44047 0.07215 0.96404 0.0
O31 O 0.39861 0.1075 0.01738 0.0
Zn32 Zn 0.38547 0.51687 0.15958 0.0
O33 O 0.41626 0.48584 0.23384 0.0
C34 C 0.32166 0.40604 0.12065 0.0
Zn35 Zn 0.31074 0.48449 0.21949 0.0
C36 C 0.39127 0.46755 0.28997 0.0
O37 O 0.34605 0.46413 0.29849 0.0
C38 C 0.30657 0.53833 0.0925 0.0
O39 O 0.33081 0.55666 0.27354 0.0
O40 O 0.40838 0.58533 0.22168 0.0
N41 N 0.23698 0.43977 0.26423 0.0
C42 C 0.19016 0.43955 0.26008 0.0
C43 C 0.17269 0.3628 0.29628 0.0
N44 N 0.2258 0.39219 0.28742 0.0
N45 N 0.14904 0.3913 0.27918 0.0
C46 C 0.48283 0.53668 0.07186 0.0
C47 C 0.51774 0.61981 0.04927 0.0
N48 N 0.45704 0.55593 0.10997 0.0
N49 N 0.47946 0.60783 0.09686 0.0
N50 N 0.52 0.57553 0.0322 0.0
H51 H 0.45119 0.45907 0.11934 0.0
H52 H 0.50727 0.47717 0.06375 0.0
H53 H 0.444 0.45849 0.02661 0.0
C54 C 0.47041 0.47949 0.0708 0.0
C55 C 0.18471 0.48577 0.23548 0.0
H56 H 0.2214 0.52418 0.24759 0.0
H57 H 0.14942 0.48507 0.25943 0.0
H58 H 0.17909 0.48297 0.17905 0.0
O59 O 0.27769 0.50858 0.14094 0.0
O60 O 0.35423 0.54777 0.08638 0.0
C61 C 0.37909 0.59319 0.2637 0.0
O62 O 0.36226 0.44803 0.09943 0.0
O63 O 0.29373 0.41126 0.1673 0.0
Zn64 Zn 0.87527 0.38411 0.319 0.0
O65 O 0.93631 0.41942 0.39444 0.0
C66 C 0.92866 0.32448 0.28463 0.0
Zn67 Zn 0.8372 0.30978 0.37884 0.0
C68 C 0.93094 0.39559 0.4511 0.0
O69 O 0.89085 0.34912 0.45963 0.0
C70 C 0.7803 0.29887 0.24703 0.0
O71 O 0.78165 0.32655 0.42887 0.0
O72 O 0.82612 0.40435 0.3772 0.0
N73 N 0.80983 0.23737 0.42614 0.0
C74 C 0.76147 0.19278 0.4311 0.0
C75 C 0.8196 0.17145 0.45984 0.0
N76 N 0.84564 0.22397 0.44481 0.0
N77 N 0.76673 0.15078 0.45116 0.0
C78 C 0.94761 0.48222 0.22924 0.0
C79 C 0.89567 0.51316 0.20847 0.0
N80 N 0.90363 0.45456 0.26794 0.0
N81 N 0.87181 0.47448 0.25588 0.0
N82 N 0.94302 0.5182 0.1905 0.0
H83 H -0.00165 0.45613 0.2759 0.0
H84 H 0.03182 0.5105 0.21667 0.0
H85 H 0.98823 0.44476 0.18392 0.0
C86 C 0.99415 0.47275 0.22673 0.0
C87 C 0.70926 0.19049 0.41845 0.0
H88 H 0.6891 0.18634 0.46847 0.0
H89 H 0.68259 0.15471 0.38724 0.0
H90 H 0.71492 0.22726 0.39321 0.0
O91 O 0.78273 0.27209 0.29699 0.0
O92 O 0.81428 0.34846 0.24503 0.0
C93 C 0.78967 0.37363 0.4185 0.0
O94 O 0.92462 0.36344 0.26208 0.0
O95 O 0.89634 0.29598 0.33114 0.0
Zn96 Zn 0.48964 0.8763 0.50996 0.0
O97 O 0.50946 0.92861 0.5954 0.0
C98 C 0.60251 0.93367 0.47858 0.0
Zn99 Zn 0.52656 0.83415 0.55958 0.0
C100 C 0.52962 0.92026 0.6486 0.0
O101 O 0.54011 0.88225 0.64805 0.0
C102 C 0.48415 0.78844 0.42146 0.0
O103 O 0.45377 0.77481 0.60548 0.0
O104 O 0.41991 0.82097 0.55946 0.0
N105 N 0.57102 0.80363 0.59937 0.0
C106 C 0.56816 0.75554 0.59327 0.0
C107 C 0.64475 0.81011 0.63493 0.0
N108 N 0.61854 0.83729 0.62555 0.0
N109 N 0.61419 0.7589 0.61428 0.0
C110 C 0.46495 0.9551 0.43485 0.0
C111 C 0.38929 0.90077 0.39088 0.0
N112 N 0.44818 0.90696 0.4636 0.0
N113 N 0.40066 0.87353 0.43727 0.0
N114 N 0.42931 0.95189 0.38803 0.0
H115 H 0.5329 0.003 0.49998 0.0
H116 H 0.51339 0.04058 0.44455 0.0
H117 H 0.54706 0.00794 0.40898 0.0
C118 C 0.51767 0.00444 0.44839 0.0
C119 C 0.52099 0.70553 0.56642 0.0
H120 H 0.48505 0.70988 0.56368 0.0
H121 H 0.5129 0.6713 0.59995 0.0
H122 H 0.53019 0.69623 0.51457 0.0
O123 O 0.51058 0.7853 0.47136 0.0
O124 O 0.46978 0.82334 0.42525 0.0
C125 C 0.41438 0.78229 0.596 0.0
O126 O 0.55965 0.93256 0.46231 0.0
O127 O 0.59965 0.89641 0.51591 0.0
Zn128 Zn 0.60358 0.47574 0.65899 0.0
O129 O 0.56994 0.49501 0.74468 0.0
C130 C 0.6625 0.58969 0.6253 0.0
Zn131 Zn 0.68233 0.51547 0.71031 0.0
C132 C 0.6012 0.52428 0.79243 0.0
O133 O 0.6507 0.54007 0.78893 0.0
C134 C 0.68535 0.46397 0.58024 0.0
O135 O 0.66167 0.44452 0.76787 0.0
O136 O 0.58768 0.40517 0.70701 0.0
N137 N 0.75676 0.55908 0.75238 0.0
C138 C 0.80195 0.55634 0.74702 0.0
C139 C 0.82353 0.63335 0.78853 0.0
N140 N 0.7704 0.60685 0.77853 0.0
N141 N 0.84435 0.60279 0.76823 0.0
C142 C 0.5041 0.45191 0.57358 0.0
C143 C 0.48272 0.37433 0.53473 0.0
N144 N 0.53248 0.43461 0.60892 0.0
N145 N 0.5182 0.38588 0.58569 0.0
N146 N 0.47366 0.41542 0.52573 0.0
H147 H 0.52088 0.52112 0.63503 0.0
H148 H 0.46939 0.50277 0.57078 0.0
H149 H 0.53795 0.53434 0.54504 0.0
C150 C 0.50842 0.50574 0.58206 0.0
C151 C 0.80484 0.5089 0.72037 0.0
H152 H 0.76628 0.4715 0.72841 0.0
H153 H 0.83742 0.50599 0.74633 0.0
H154 H 0.81387 0.51384 0.66466 0.0
O155 O 0.71287 0.48892 0.63229 0.0
O156 O 0.63839 0.4565 0.57435 0.0
C157 C 0.61669 0.40323 0.75423 0.0
O158 O 0.61867 0.54724 0.61457 0.0
O159 O 0.69971 0.58677 0.65578 0.0
Zn160 Zn 0.12727 0.6133 0.82178 0.0
O161 O 0.07351 0.57793 0.9051 0.0
C162 C 0.06524 0.66456 0.78363 0.0
Zn163 Zn 0.16008 0.69302 0.87168 0.0
C164 C 0.07308 0.60845 0.95267 0.0
O165 O 0.10445 0.65868 0.94982 0.0
C166 C 0.21701 0.69986 0.74198 0.0
O167 O 0.21418 0.67784 0.93167 0.0
O168 O 0.18324 0.60207 0.87392 0.0
N169 N 0.18568 0.76804 0.91204 0.0
C170 C 0.23402 0.81212 0.92066 0.0
C171 C 0.1756 0.83622 0.93456 0.0
N172 N 0.14965 0.78328 0.92102 0.0
N173 N 0.2286 0.85531 0.93413 0.0
C174 C 0.05686 0.51106 0.73657 0.0
C175 C 0.11658 0.4957 0.6959 0.0
N176 N 0.10215 0.54212 0.77178 0.0
N177 N 0.13886 0.53156 0.7474 0.0
N178 N 0.06525 0.48267 0.68766 0.0
H179 H 0.00237 0.52417 0.79854 0.0
H180 H 0.9712 0.47001 0.73653 0.0
H181 H 0.00245 0.53787 0.70794 0.0
C182 C 0.00527 0.51092 0.74596 0.0
C183 C 0.2863 0.81326 0.91546 0.0
H184 H 0.28148 0.77599 0.89189 0.0
H185 H 0.30302 0.81766 0.96779 0.0
H186 H 0.31522 0.8485 0.88544 0.0
O187 O 0.21619 0.72679 0.79324 0.0
O188 O 0.18271 0.65029 0.74005 0.0
C189 C 0.21312 0.63346 0.92068 0.0
O190 O 0.06881 0.6231 0.773 0.0
O191 O 0.10264 0.70384 0.81548 0.0
C192 C 0.33333 0.99893 0.89954 0.0
C193 C 0.3469 0.01888 0.96771 0.0
C194 C 0.279 0.93127 0.0125 0.0
C195 C 0.26894 0.91036 0.94509 0.0
N196 N 0.2846 0.92176 0.82382 0.0
N197 N 0.33646 0.00232 0.08989 0.0
C198 C 0.29555 0.94362 0.88828 0.0
C199 C 0.32008 0.98485 0.02442 0.0
N200 N 0.35622 0.03343 0.84596 0.0
N201 N 0.24897 0.89945 0.06537 0.0
H202 H 0.36455 0.04155 0.10171 0.0
H203 H 0.32455 0.97739 0.13247 0.0
H204 H 0.22153 0.85877 0.05911 0.0
H205 H 0.24884 0.91378 0.11456 0.0
H206 H 0.34648 0.02306 0.79469 0.0
H207 H 0.38297 0.07422 0.8533 0.0
H208 H 0.30558 0.9416 0.78001 0.0
H209 H 0.25525 0.88212 0.81442 0.0
C210 C 0.3052 0.3168 0.16193 0.0
C211 C 0.3178 0.3528 0.10668 0.0
C212 C 0.35731 0.30505 0.04695 0.0
C213 C 0.35834 0.28109 0.11003 0.0
N214 N 0.33761 0.26983 0.23086 0.0
N215 N 0.34797 0.37487 0.99004 0.0
C216 C 0.33329 0.28844 0.16846 0.0
C217 C 0.3415 0.34489 0.0469 0.0
N218 N 0.26487 0.30756 0.20623 0.0
N219 N 0.36854 0.28769 0.98711 0.0
H220 H 0.33149 0.39986 0.98664 0.0
H221 H 0.37054 0.37588 0.94764 0.0
H222 H 0.37646 0.25609 0.98541 0.0
H223 H 0.36474 0.3007 0.93888 0.0
H224 H 0.25265 0.27922 0.24519 0.0
H225 H 0.23866 0.32186 0.19718 0.0
H226 H 0.32326 0.278 0.2759 0.0
H227 H 0.36053 0.25151 0.23845 0.0
C228 C 0.01006 0.34755 0.21169 0.0
C229 C 0.97918 0.32299 0.27127 0.0
C230 C 0.06019 0.34307 0.33366 0.0
C231 C 0.09188 0.36979 0.27584 0.0
N232 N 0.09466 0.3785 0.1527 0.0
N233 N 0.97661 0.27339 0.3731 0.0
C234 C 0.06623 0.3667 0.21239 0.0
C235 C 0.00432 0.31287 0.32692 0.0
N236 N 0.98542 0.35159 0.15436 0.0
N237 N 0.08318 0.34566 0.39559 0.0
H238 H 0.93642 0.24462 0.36744 0.0
H239 H 0.93642 0.24462 0.36744 0.0
H240 H 0.12393 0.37041 0.4046 0.0
H241 H 0.06051 0.32606 0.43881 0.0
H242 H 0.00602 0.3746 0.11204 0.0
H243 H 0.94388 0.33262 0.15048 0.0
H244 H 0.07755 0.37329 0.10433 0.0
H245 H 0.13455 0.38815 0.15119 0.0
C246 C 0.71972 0.068 0.51836 0.0
C247 C 0.7275 0.09466 0.4553 0.0
C248 C 0.66139 0.01026 0.40104 0.0
C249 C 0.65422 0.98347 0.46451 0.0
N250 N 0.69499 0.98416 0.5733 0.0
N251 N 0.71807 0.08843 0.3324 0.0
C252 C 0.68916 0.0113 0.52007 0.0
C253 C 0.70194 0.06497 0.39515 0.0
N254 N 0.74042 0.09709 0.57717 0.0
N255 N 0.62942 0.98334 0.34649 0.0
H256 H 0.749 0.12778 0.32658 0.0
H257 H 0.70422 0.06765 0.2862 0.0
H258 H 0.60329 0.94202 0.34697 0.0
H259 H 0.62771 0.00224 0.302 0.0
H260 H 0.73147 0.07997 0.6258 0.0
H261 H 0.762 0.1389 0.57761 0.0
H262 H 0.72273 0.00314 0.61248 0.0
H263 H 0.67849 0.94279 0.57341 0.0
C264 C 0.63923 0.69868 0.55315 0.0
C265 C 0.62942 0.71832 0.61524 0.0
C266 C 0.66084 0.66755 0.68081 0.0
C267 C 0.66299 0.64137 0.61939 0.0
N268 N 0.65051 0.62933 0.49701 0.0
N269 N 0.62121 0.71445 0.73779 0.0
C270 C 0.65117 0.65629 0.55538 0.0
C271 C 0.63776 0.70092 0.67895 0.0
N272 N 0.63866 0.72173 0.49248 0.0
N273 N 0.6806 0.66086 0.74116 0.0
H274 H 0.60289 0.73785 0.73773 0.0
H275 H 0.62046 0.698 0.78548 0.0
H276 H 0.69946 0.63843 0.74573 0.0
H277 H 0.68395 0.68278 0.78551 0.0
H278 H 0.65005 0.71247 0.44586 0.0
H279 H 0.63096 0.75344 0.48981 0.0
H280 H 0.63584 0.63376 0.45027 0.0
H281 H 0.66242 0.60051 0.49638 0.0
C282 C 0.9822 0.65584 0.83711 0.0
C283 C 0.01166 0.65944 0.77641 0.0
C284 C 0.92992 0.629 0.70849 0.0
C285 C 0.90014 0.61883 0.77003 0.0
N286 N 0.89562 0.61156 0.89249 0.0
N287 N 0.01238 0.64472 0.6545 0.0
C288 C 0.92575 0.62922 0.83417 0.0
C289 C 0.98507 0.64455 0.71202 0.0
N290 N 0.00748 0.6777 0.89783 0.0
N291 N 0.9059 0.62561 0.64705 0.0
H292 H 0.0535 0.65931 0.65454 0.0
H293 H 0.99387 0.62805 0.60782 0.0
H294 H 0.86589 0.61531 0.64329 0.0
H295 H 0.92651 0.63715 0.60068 0.0
H296 H 0.98762 0.68005 0.94134 0.0
H297 H 0.04856 0.69906 0.90369 0.0
H298 H 0.91157 0.61242 0.94063 0.0
H299 H 0.85396 0.59064 0.89152 0.0
C300 C 0.49266 0.03443 0.23192 0.0
C301 C 0.45738 0.05429 0.21766 0.0
C302 C 0.40959 0.01362 0.32502 0.0
C303 C 0.43914 0.98704 0.33132 0.0
N304 N 0.49996 0.96181 0.28107 0.0
N305 N 0.37645 0.05632 0.24978 0.0
C306 C 0.478 0.99427 0.28182 0.0
C307 C 0.41434 0.04257 0.26414 0.0
N308 N 0.54165 0.05584 0.2012 0.0
N309 N 0.37745 0.01163 0.37786 0.0
H310 H 0.37668 0.07753 0.20696 0.0
H311 H 0.34142 0.04246 0.27815 0.0
H312 H 0.37303 0.99 0.42251 0.0
H313 H 0.35922 0.03505 0.37999 0.0
H314 H 0.56995 0.0452 0.21504 0.0
H315 H 0.55705 0.08914 0.16933 0.0
H316 H 0.52514 0.96276 0.2419 0.0
H317 H 0.48866 0.93031 0.31529 0.0
C318 C 0.46941 0.4819 0.36357 0.0
C319 C 0.41431 0.45089 0.34618 0.0
C320 C 0.39856 0.39659 0.44926 0.0
C321 C 0.45364 0.42544 0.46364 0.0
N322 N 0.54319 0.48256 0.42242 0.0
N323 N 0.3306 0.36829 0.36195 0.0
C324 C 0.48965 0.46397 0.41685 0.0
C325 C 0.37996 0.40504 0.38597 0.0
N326 N 0.50211 0.52993 0.33285 0.0
N327 N 0.36402 0.3619 0.49672 0.0
H328 H 0.317 0.37091 0.31356 0.0
H329 H 0.30593 0.33208 0.38636 0.0
H330 H 0.37701 0.35486 0.54334 0.0
H331 H 0.32266 0.34368 0.4921 0.0
H332 H 0.54079 0.55602 0.35 0.0
H333 H 0.48969 0.54693 0.29553 0.0
H334 H 0.57077 0.5071 0.38576 0.0
H335 H 0.55926 0.46876 0.45949 0.0
C336 C 0.0314 0.49715 0.57875 0.0
C337 C 0.03543 0.46182 0.62526 0.0
C338 C 0.98434 0.38728 0.5467 0.0
C339 C 0.97114 0.42047 0.507 0.0
N340 N 0.9788 0.50799 0.49178 0.0
N341 N 0.01308 0.37283 0.65724 0.0
C342 C 0.99408 0.47586 0.52424 0.0
C343 C 0.01118 0.4067 0.61021 0.0
N344 N 0.06433 0.5512 0.5857 0.0
N345 N 0.97374 0.33833 0.5222 0.0
H346 H 0.03319 0.38649 0.70388 0.0
H347 H 0.99133 0.33125 0.65225 0.0
H348 H 0.95788 0.32431 0.47358 0.0
H349 H 0.98663 0.31465 0.5464 0.0
H350 H 0.06699 0.57869 0.54921 0.0
H351 H 0.09303 0.56815 0.62422 0.0
H352 H 0.98948 0.54635 0.50935 0.0
H353 H 0.95203 0.49578 0.45121 0.0
C354 C 0.50175 0.96955 0.73155 0.0
C355 C 0.53914 0.9534 0.71169 0.0
C356 C 0.59047 0.99554 0.8165 0.0
C357 C 0.55701 0.01715 0.83066 0.0
N358 N 0.49097 0.0381 0.78899 0.0
N359 N 0.62667 0.96296 0.72884 0.0
C360 C 0.51555 0.00811 0.78452 0.0
C361 C 0.58563 0.96943 0.75252 0.0
N362 N 0.45213 0.94672 0.70253 0.0
N363 N 0.6267 -0.00015 0.86444 0.0
H364 H 0.62688 0.94761 0.6804 0.0
H365 H 0.6632 0.97855 0.75407 0.0
H366 H 0.63088 0.01898 0.91163 0.0
H367 H 0.64883 0.98037 0.85982 0.0
H368 H 0.42241 0.95426 0.72051 0.0
H369 H 0.43821 0.91556 0.66677 0.0
H370 H 0.46361 0.03592 0.75256 0.0
H371 H 0.50224 0.06926 0.82437 0.0
C372 C 0.58342 0.55336 0.97781 0.0
C373 C 0.5435 0.56758 0.97133 0.0
C374 C 0.54674 0.56088 0.84644 0.0
C375 C 0.58066 0.53876 0.85368 0.0
N376 N 0.62162 0.50275 0.92869 0.0
N377 N 0.4786 0.57395 0.90034 0.0
C378 C 0.59673 0.53214 0.92008 0.0
C379 C 0.52273 0.56845 0.90584 0.0
N380 N 0.60812 0.55976 0.0395 0.0
N381 N 0.53904 0.57665 0.78364 0.0
H382 H 0.45841 0.57744 0.94274 0.0
H383 H 0.45898 0.5696 0.85395 0.0
H384 H 0.55804 0.57419 0.73929 0.0
H385 H 0.5186 0.59762 0.77707 0.0
H386 H 0.64101 0.55449 0.04597 0.0
H387 H 0.59833 0.5749 0.08264 0.0
H388 H 0.62975 0.49295 0.97678 0.0
H389 H 0.62862 0.48292 0.88846 0.0
C390 C 0.98337 0.54868 0.00547 0.0
C391 C 0.0385 0.58604 0.01347 0.0
C392 C 0.02614 0.58667 0.13765 0.0
C393 C 0.9735 0.54384 0.13022 0.0
N394 N 0.90486 0.47636 0.05802 0.0
N395 N 0.11481 0.63133 0.08936 0.0
C396 C 0.9527 0.52265 0.06434 0.0
C397 C 0.0607 0.60293 0.08019 0.0
N398 N 0.95979 0.53947 0.94243 0.0
N399 N 0.04303 0.61122 0.20001 0.0
H400 H 0.14205 0.64072 0.04935 0.0
H401 H 0.1327 0.64021 0.13761 0.0
H402 H 0.01812 0.59921 0.243 0.0
H403 H 0.07971 0.64598 0.20729 0.0
H404 H 0.91866 0.51625 0.93527 0.0
H405 H 0.98042 0.5597 0.89849 0.0
H406 H 0.89052 0.45647 0.01132 0.0
H407 H 0.88197 0.45503 0.10009 0.0
C408 C 0.60032 0.28665 0.86347 0.0
C409 C 0.54478 0.26177 0.87982 0.0
C410 C 0.5403 0.33455 0.82326 0.0
C411 C 0.59341 0.35527 0.79865 0.0
N412 N 0.66991 0.34352 0.7837 0.0
N413 N 0.45949 0.25521 0.85777 0.0
C414 C 0.62226 0.32901 0.81506 0.0
C415 C 0.51398 0.2835 0.854 0.0
N416 N 0.63318 0.2729 0.89698 0.0
N417 N 0.51583 0.36472 0.82131 0.0
H418 H 0.43847 0.2163 0.87686 0.0
H419 H 0.43535 0.26801 0.83462 0.0
H420 H 0.53505 0.40425 0.80472 0.0
H421 H 0.479 0.35282 0.84446 0.0
H422 H 0.67455 0.29392 0.89117 0.0
H423 H 0.62062 0.24498 0.93628 0.0
H424 H 0.68987 0.32195 0.78911 0.0
H425 H 0.68672 0.3737 0.74706 0.0
C426 C 0.20678 0.5595 -0.00663 0.0
C427 C 0.23844 0.61251 0.96818 0.0
C428 C 0.3149 0.6197 0.03127 0.0
C429 C 0.28507 0.56381 0.04623 0.0
N430 N 0.20578 0.47832 0.02536 0.0
N431 N 0.32561 0.69047 0.95479 0.0
C432 C 0.23196 0.53303 0.02236 0.0
C433 C 0.29347 0.64204 0.98469 0.0
N434 N 0.15235 0.53508 0.99278 0.0
N435 N 0.36203 0.65223 0.06413 0.0
H436 H 0.3114 0.70775 0.92002 0.0
H437 H 0.36704 0.71102 0.9599 0.0
H438 H 0.37801 0.63875 0.10163 0.0
H439 H 0.38226 0.69382 0.05965 0.0
H440 H 0.12787 0.49833 0.01623 0.0
H441 H 0.1321 0.55457 0.97711 0.0
H442 H 0.16836 0.45425 0.00323 0.0
H443 H 0.22381 0.45691 0.04258 0.0
C444 C 0.67841 0.29156 0.11601 0.0
C445 C 0.63172 0.24925 0.14579 0.0
C446 C 0.68603 0.22792 0.21992 0.0
C447 C 0.73265 0.27554 0.20007 0.0
N448 N 0.77529 0.34596 0.11633 0.0
N449 N 0.59085 0.18517 0.23649 0.0
C450 C 0.72947 0.30577 0.1443 0.0
C451 C 0.63563 0.2205 0.2016 0.0
N452 N 0.67353 0.31673 0.05963 0.0
N453 N 0.68961 0.18724 0.25015 0.0
H454 H 0.55321 0.17965 0.22486 0.0
H455 H 0.59232 0.16595 0.2809 0.0
H456 H 0.72564 0.18729 0.25372 0.0
H457 H 0.65622 0.15022 0.26095 0.0
H458 H 0.70545 0.34472 0.03064 0.0
H459 H 0.63637 0.3087 0.04113 0.0
H460 H 0.77652 0.37411 0.08216 0.0
H461 H 0.81255 0.3497 0.12549 0.0
C462 C 0.48337 0.70981 0.36495 0.0
C463 C 0.46382 0.74617 0.36599 0.0
C464 C 0.38973 0.68382 0.29068 0.0
C465 C 0.40394 0.64406 0.30324 0.0
N466 N 0.45939 0.61682 0.36291 0.0
N467 N 0.40405 0.77273 0.3152 0.0
C468 C 0.44943 0.65645 0.34334 0.0
C469 C 0.41862 0.73479 0.32437 0.0
N470 N 0.5354 0.72702 0.3812 0.0
N471 N 0.35054 0.6738 0.24401 0.0
H472 H 0.43053 0.81353 0.32172 0.0
H473 H 0.36661 0.76407 0.29753 0.0
H474 H 0.32814 0.63675 0.21962 0.0
H475 H 0.34199 0.7027 0.22629 0.0
H476 H 0.55255 0.70271 0.3764 0.0
H477 H 0.5628 0.76737 0.3905 0.0
H478 H 0.4898 0.6234 0.39705 0.0
H479 H 0.43349 0.57655 0.35123 0.0
C480 C 0.79026 0.44704 0.48852 0.0
C481 C 0.76067 0.39545 0.45808 0.0
C482 C 0.67884 0.38717 0.50751 0.0
C483 C 0.70808 0.44163 0.53011 0.0
N484 N 0.78923 0.52725 0.52248 0.0
N485 N 0.67464 0.32153 0.42528 0.0
C486 C 0.763 0.47286 0.51392 0.0
C487 C 0.70421 0.36697 0.4633 0.0
N488 N 0.84411 0.47004 0.4976 0.0
N489 N 0.62849 0.3535 0.53134 0.0
H490 H 0.69168 0.30626 0.39104 0.0
H491 H 0.6331 0.30228 0.42266 0.0
H492 H 0.60888 0.36489 0.56675 0.0
H493 H 0.60829 0.31241 0.5213 0.0
H494 H 0.86659 0.50582 0.52465 0.0
H495 H 0.86467 0.44971 0.48651 0.0
H496 H 0.8286 0.55188 0.50666 0.0
H497 H 0.76985 0.548 0.53801 0.0
C498 C 0.31849 0.71067 0.60622 0.0
C499 C 0.36472 0.75388 0.63609 0.0
C500 C 0.30927 0.77278 0.71224 0.0
C501 C 0.26358 0.72376 0.69332 0.0
N502 N 0.2224 0.65137 0.61063 0.0
N503 N 0.40452 0.81825 0.72792 0.0
C504 C 0.26748 0.69387 0.63689 0.0
C505 C 0.36012 0.78192 0.69296 0.0
N506 N 0.32347 0.68732 0.54738 0.0
N507 N 0.30423 0.81282 0.74303 0.0
H508 H 0.44262 0.82512 0.7157 0.0
H509 H 0.4024 0.83698 0.77296 0.0
H510 H 0.26752 0.81136 0.74729 0.0
H511 H 0.3369 0.85051 0.75364 0.0
H512 H 0.29136 0.65921 0.51846 0.0
H513 H 0.36061 0.69761 0.52618 0.0
H514 H 0.22257 0.62323 0.5769 0.0
H515 H 0.18443 0.64552 0.62102 0.0
loop_
_geom_bond_atom_site_label_1
_geom_bond_atom_site_label_2
_geom_bond_distance
_geom_bond_site_symmetry_2
_ccdc_geom_bond_type
Zn0 O1 2.055 1_556 S
Zn0 O8 2.046 1_556 S
Zn0 N16 2.036 . S
Zn0 O28 2.053 . S
Zn0 O30 2.066 . S
O1 Zn0 2.055 1_554 S
O1 C4 1.259 . S
C2 O30 1.256 . S
C2 O31 1.244 1_556 S
Zn3 O5 2.046 . S
Zn3 O7 2.055 . S
Zn3 N9 2.036 . S
Zn3 O27 2.066 1_554 S
Zn3 O31 2.053 . S
C4 O1 1.259 . S
C4 O5 1.254 . S
O5 Zn3 2.046 . S
O5 C4 1.254 . S
C6 O27 1.256 . S
C6 O28 1.244 . S
O7 Zn3 2.055 . S
O7 C29 1.259 . S
O8 Zn0 2.046 1_554 S
O8 C29 1.254 . S
N9 Zn3 2.036 . S
N9 C10 1.298 . S
N9 N12 1.398 . S
C10 N9 1.298 . S
C10 N13 1.367 . S
C10 C23 1.481 . S
C11 N12 1.299 . S
C11 N13 1.379 . S
N12 N9 1.398 . S
N12 C11 1.299 . S
N13 C10 1.367 . S
N13 C11 1.379 . S
C14 N16 1.298 . S
C14 N18 1.367 . S
C14 C22 1.482 1_545 S
C15 N17 1.299 . S
C15 N18 1.379 . S
N16 Zn0 2.036 . S
N16 C14 1.298 . S
N16 N17 1.398 . S
N17 C15 1.299 . S
N17 N16 1.398 . S
N18 C14 1.367 . S
N18 C15 1.379 . S
H19 C22 0.981 1_545 S
H20 C22 0.979 . S
H21 C22 0.981 . S
C22 C14 1.482 1_565 S
C22 H19 0.981 1_565 S
C22 H20 0.979 . S
C22 H21 0.981 . S
C23 C10 1.481 . S
C23 H24 0.980 . S
C23 H25 0.981 . S
C23 H26 0.981 . S
H24 C23 0.980 . S
H25 C23 0.981 . S
H26 C23 0.981 . S
O27 Zn3 2.066 1_556 S
O27 C6 1.256 . S
O28 Zn0 2.053 . S
O28 C6 1.244 . S
C29 O7 1.259 . S
C29 O8 1.254 . S
O30 Zn0 2.066 . S
O30 C2 1.256 . S
O31 C2 1.244 1_554 S
O31 Zn3 2.053 . S
Zn32 O33 2.055 . S
Zn32 O40 2.046 . S
Zn32 N48 2.036 . S
Zn32 O60 2.053 . S
Zn32 O62 2.066 . S
O33 Zn32 2.055 . S
O33 C36 1.259 . S
C34 O62 1.256 . S
C34 O63 1.244 . S
Zn35 O37 2.046 . S
Zn35 O39 2.055 . S
Zn35 N41 2.036 . S
Zn35 O59 2.066 . S
Zn35 O63 2.053 . S
C36 O33 1.259 . S
C36 O37 1.254 . S
O37 Zn35 2.046 . S
O37 C36 1.254 . S
C38 O59 1.256 . S
C38 O60 1.244 . S
O39 Zn35 2.055 . S
O39 C61 1.259 . S
O40 Zn32 2.046 . S
O40 C61 1.254 . S
N41 Zn35 2.036 . S
N41 C42 1.298 . S
N41 N44 1.398 . S
C42 N41 1.298 . S
C42 N45 1.367 . S
C42 C55 1.481 . S
C43 N44 1.299 . S
C43 N45 1.379 . S
N44 N41 1.398 . S
N44 C43 1.299 . S
N45 C42 1.367 . S
N45 C43 1.379 . S
C46 N48 1.298 . S
C46 N50 1.367 . S
C46 C54 1.481 . S
C47 N49 1.299 1_556 S
C47 N50 1.379 1_556 S
N48 Zn32 2.036 . S
N48 C46 1.298 . S
N48 N49 1.398 . S
N49 C47 1.299 1_554 S
N49 N48 1.398 . S
N50 C46 1.367 . S
N50 C47 1.379 1_554 S
H51 C54 0.980 . S
H52 C54 0.981 . S
H53 C54 0.981 . S
C54 C46 1.481 . S
C54 H51 0.980 . S
C54 H52 0.981 . S
C54 H53 0.981 . S
C55 C42 1.481 . S
C55 H56 0.980 . S
C55 H57 0.981 . S
C55 H58 0.981 . S
H56 C55 0.980 . S
H57 C55 0.981 . S
H58 C55 0.981 . S
O59 Zn35 2.066 . S
O59 C38 1.256 . S
O60 Zn32 2.053 . S
O60 C38 1.244 . S
C61 O39 1.259 . S
C61 O40 1.254 . S
O62 Zn32 2.066 . S
O62 C34 1.256 . S
O63 C34 1.244 . S
O63 Zn35 2.053 . S
Zn64 O65 2.055 . S
Zn64 O72 2.046 . S
Zn64 N80 2.036 . S
Zn64 O92 2.053 . S
Zn64 O94 2.066 . S
O65 Zn64 2.055 . S
O65 C68 1.259 . S
C66 O94 1.256 . S
C66 O95 1.244 . S
Zn67 O69 2.046 . S
Zn67 O71 2.055 . S
Zn67 N73 2.036 . S
Zn67 O91 2.066 . S
Zn67 O95 2.053 . S
C68 O65 1.259 . S
C68 O69 1.254 . S
O69 Zn67 2.046 . S
O69 C68 1.254 . S
C70 O91 1.256 . S
C70 O92 1.244 . S
O71 Zn67 2.055 . S
O71 C93 1.259 . S
O72 Zn64 2.046 . S
O72 C93 1.254 . S
N73 Zn67 2.036 . S
N73 C74 1.298 . S
N73 N76 1.398 . S
C74 N73 1.298 . S
C74 N77 1.367 . S
C74 C87 1.481 . S
C75 N76 1.299 . S
C75 N77 1.379 . S
N76 N73 1.398 . S
N76 C75 1.299 . S
N77 C74 1.367 . S
N77 C75 1.379 . S
C78 N80 1.298 . S
C78 N82 1.367 . S
C78 C86 1.482 1_655 S
C79 N81 1.299 . S
C79 N82 1.379 . S
N80 Zn64 2.036 . S
N80 C78 1.298 . S
N80 N81 1.398 . S
N81 C79 1.299 . S
N81 N80 1.398 . S
N82 C78 1.367 . S
N82 C79 1.379 . S
H83 C86 0.980 1_655 S
H84 C86 0.981 . S
H85 C86 0.980 . S
C86 C78 1.482 1_455 S
C86 H83 0.980 1_455 S
C86 H84 0.981 . S
C86 H85 0.980 . S
C87 C74 1.481 . S
C87 H88 0.980 . S
C87 H89 0.981 . S
C87 H90 0.981 . S
H88 C87 0.980 . S
H89 C87 0.981 . S
H90 C87 0.981 . S
O91 Zn67 2.066 . S
O91 C70 1.256 . S
O92 Zn64 2.053 . S
O92 C70 1.244 . S
C93 O71 1.259 . S
C93 O72 1.254 . S
O94 Zn64 2.066 . S
O94 C66 1.256 . S
O95 C66 1.244 . S
O95 Zn67 2.053 . S
Zn96 O97 2.055 . S
Zn96 O104 2.046 . S
Zn96 N112 2.036 . S
Zn96 O124 2.053 . S
Zn96 O126 2.066 . S
O97 Zn96 2.055 . S
O97 C100 1.259 . S
C98 O126 1.256 . S
C98 O127 1.244 . S
Zn99 O101 2.046 . S
Zn99 O103 2.055 . S
Zn99 N105 2.036 . S
Zn99 O123 2.066 . S
Zn99 O127 2.053 . S
C100 O97 1.259 . S
C100 O101 1.254 . S
O101 Zn99 2.046 . S
O101 C100 1.254 . S
C102 O123 1.256 . S
C102 O124 1.244 . S
O103 Zn99 2.055 . S
O103 C125 1.259 . S
O104 Zn96 2.046 . S
O104 C125 1.254 . S
N105 Zn99 2.036 . S
N105 C106 1.298 . S
N105 N108 1.398 . S
C106 N105 1.298 . S
C106 N109 1.367 . S
C106 C119 1.481 . S
C107 N108 1.299 . S
C107 N109 1.379 . S
N108 N105 1.398 . S
N108 C107 1.299 . S
N109 C106 1.367 . S
N109 C107 1.379 . S
C110 N112 1.298 . S
C110 N114 1.367 . S
C110 C118 1.482 1_565 S
C111 N113 1.299 . S
C111 N114 1.379 . S
N112 Zn96 2.036 . S
N112 C110 1.298 . S
N112 N113 1.398 . S
N113 C111 1.299 . S
N113 N112 1.398 . S
N114 C110 1.367 . S
N114 C111 1.379 . S
H115 C118 0.981 1_565 S
H116 C118 0.979 . S
H117 C118 0.981 . S
C118 C110 1.482 1_545 S
C118 H115 0.981 1_545 S
C118 H116 0.979 . S
C118 H117 0.981 . S
C119 C106 1.481 . S
C119 H120 0.980 . S
C119 H121 0.981 . S
C119 H122 0.981 . S
H120 C119 0.980 . S
H121 C119 0.981 . S
H122 C119 0.981 . S
O123 Zn99 2.066 . S
O123 C102 1.256 . S
O124 Zn96 2.053 . S
O124 C102 1.244 . S
C125 O103 1.259 . S
C125 O104 1.254 . S
O126 Zn96 2.066 . S
O126 C98 1.256 . S
O127 C98 1.244 . S
O127 Zn99 2.053 . S
Zn128 O129 2.055 . S
Zn128 O136 2.046 . S
Zn128 N144 2.036 . S
Zn128 O156 2.053 . S
Zn128 O158 2.066 . S
O129 Zn128 2.055 . S
O129 C132 1.259 . S
C130 O158 1.256 . S
C130 O159 1.244 . S
Zn131 O133 2.046 . S
Zn131 O135 2.055 . S
Zn131 N137 2.036 . S
Zn131 O155 2.066 . S
Zn131 O159 2.053 . S
C132 O129 1.259 . S
C132 O133 1.254 . S
O133 Zn131 2.046 . S
O133 C132 1.254 . S
C134 O155 1.256 . S
C134 O156 1.244 . S
O135 Zn131 2.055 . S
O135 C157 1.259 . S
O136 Zn128 2.046 . S
O136 C157 1.254 . S
N137 Zn131 2.036 . S
N137 C138 1.298 . S
N137 N140 1.398 . S
C138 N137 1.298 . S
C138 N141 1.367 . S
C138 C151 1.481 . S
C139 N140 1.299 . S
C139 N141 1.379 . S
N140 N137 1.398 . S
N140 C139 1.299 . S
N141 C138 1.367 . S
N141 C139 1.379 . S
C142 N144 1.298 . S
C142 N146 1.367 . S
C142 C150 1.481 . S
C143 N145 1.299 . S
C143 N146 1.379 . S
N144 Zn128 2.036 . S
N144 C142 1.298 . S
N144 N145 1.398 . S
N145 C143 1.299 . S
N145 N144 1.398 . S
N146 C142 1.367 . S
N146 C143 1.379 . S
H147 C150 0.980 . S
H148 C150 0.981 . S
H149 C150 0.981 . S
C150 C142 1.481 . S
C150 H147 0.980 . S
C150 H148 0.981 . S
C150 H149 0.981 . S
C151 C138 1.481 . S
C151 H152 0.980 . S
C151 H153 0.981 . S
C151 H154 0.981 . S
H152 C151 0.980 . S
H153 C151 0.981 . S
H154 C151 0.981 . S
O155 Zn131 2.066 . S
O155 C134 1.256 . S
O156 Zn128 2.053 . S
O156 C134 1.244 . S
C157 O135 1.259 . S
C157 O136 1.254 . S
O158 Zn128 2.066 . S
O158 C130 1.256 . S
O159 C130 1.244 . S
O159 Zn131 2.053 . S
Zn160 O161 2.055 . S
Zn160 O168 2.046 . S
Zn160 N176 2.036 . S
Zn160 O188 2.053 . S
Zn160 O190 2.066 . S
O161 Zn160 2.055 . S
O161 C164 1.259 . S
C162 O190 1.256 . S
C162 O191 1.244 . S
Zn163 O165 2.046 . S
Zn163 O167 2.055 . S
Zn163 N169 2.036 . S
Zn163 O187 2.066 . S
Zn163 O191 2.053 . S
C164 O161 1.259 . S
C164 O165 1.254 . S
O165 Zn163 2.046 . S
O165 C164 1.254 . S
C166 O187 1.256 . S
C166 O188 1.244 . S
O167 Zn163 2.055 . S
O167 C189 1.259 . S
O168 Zn160 2.046 . S
O168 C189 1.254 . S
N169 Zn163 2.036 . S
N169 C170 1.298 . S
N169 N172 1.398 . S
C170 N169 1.298 . S
C170 N173 1.367 . S
C170 C183 1.481 . S
C171 N172 1.299 . S
C171 N173 1.379 . S
N172 N169 1.398 . S
N172 C171 1.299 . S
N173 C170 1.367 . S
N173 C171 1.379 . S
C174 N176 1.298 . S
C174 N178 1.367 . S
C174 C182 1.482 1_455 S
C175 N177 1.299 . S
C175 N178 1.379 . S
N176 Zn160 2.036 . S
N176 C174 1.298 . S
N176 N177 1.398 . S
N177 C175 1.299 . S
N177 N176 1.398 . S
N178 C174 1.367 . S
N178 C175 1.379 . S
H179 C182 0.980 1_455 S
H180 C182 0.981 . S
H181 C182 0.980 . S
C182 C174 1.482 1_655 S
C182 H179 0.980 1_655 S
C182 H180 0.981 . S
C182 H181 0.980 . S
C183 C170 1.481 . S
C183 H184 0.980 . S
C183 H185 0.981 1_556 S
C183 H186 0.981 . S
H184 C183 0.980 . S
H185 C183 0.981 1_554 S
H186 C183 0.981 . S
O187 Zn163 2.066 . S
O187 C166 1.256 . S
O188 Zn160 2.053 . S
O188 C166 1.244 . S
C189 O167 1.259 . S
C189 O168 1.254 . S
O190 Zn160 2.066 . S
O190 C162 1.256 . S
O191 C162 1.244 . S
O191 Zn163 2.053 . S
C192 C193 1.363 1_565 S
C192 C198 1.379 . S
C192 N200 1.356 1_565 S
C193 C192 1.363 1_545 S
C193 C199 1.363 1_546 S
C194 C195 1.363 1_554 S
C194 C199 1.379 . S
C194 N201 1.356 . S
C195 C194 1.363 1_556 S
C195 C198 1.363 . S
N196 C198 1.356 . S
N196 H208 0.984 . S
N196 H209 0.985 . S
N197 C199 1.356 1_545 S
N197 H202 0.984 . S
N197 H203 0.985 . S
C198 C192 1.379 . S
C198 C195 1.363 . S
C198 N196 1.356 . S
C199 C193 1.363 1_564 S
C199 C194 1.379 . S
C199 N197 1.356 1_565 S
N200 C192 1.356 1_545 S
N200 H206 0.984 . S
N200 H207 0.984 . S
N201 C194 1.356 . S
N201 H204 0.984 . S
N201 H205 0.985 . S
H202 N197 0.984 . S
H203 N197 0.985 . S
H204 N201 0.984 . S
H205 N201 0.985 . S
H206 N200 0.984 . S
H207 N200 0.984 . S
H208 N196 0.984 . S
H209 N196 0.985 . S
C210 C211 1.363 . S
C210 C216 1.379 . S
C210 N218 1.356 . S
C211 C210 1.363 . S
C211 C217 1.363 . S
C212 C213 1.363 . S
C212 C217 1.379 . S
C212 N219 1.356 . S
C213 C212 1.363 . S
C213 C216 1.363 . S
N214 C216 1.356 . S
N214 H226 0.984 . S
N214 H227 0.985 . S
N215 C217 1.356 . S
N215 H220 0.984 . S
N215 H221 0.985 . S
C216 C210 1.379 . S
C216 C213 1.363 . S
C216 N214 1.356 . S
C217 C211 1.363 . S
C217 C212 1.379 . S
C217 N215 1.356 . S
N218 C210 1.356 . S
N218 H224 0.984 . S
N218 H225 0.984 . S
N219 C212 1.356 . S
N219 H222 0.984 . S
N219 H223 0.985 . S
H220 N215 0.984 . S
H221 N215 0.985 . S
H222 N219 0.984 . S
H223 N219 0.985 . S
H224 N218 0.984 . S
H225 N218 0.984 . S
H226 N214 0.984 . S
H227 N214 0.985 . S
C228 C229 1.363 1_455 S
C228 C234 1.379 . S
C228 N236 1.356 1_455 S
C229 C228 1.363 1_655 S
C229 C235 1.363 . S
C230 C231 1.363 . S
C230 C235 1.379 1_455 S
C230 N237 1.356 . S
C231 C230 1.363 . S
C231 C234 1.363 . S
N232 C234 1.356 . S
N232 H244 0.984 . S
N232 H245 0.985 . S
N233 C235 1.356 . S
N233 H238 0.984 . S
N233 H239 0.985 . S
C234 C228 1.379 . S
C234 C231 1.363 . S
C234 N232 1.356 . S
C235 C229 1.363 . S
C235 C230 1.379 1_655 S
C235 N233 1.356 . S
N236 C228 1.356 1_655 S
N236 H242 0.984 . S
N236 H243 0.984 . S
N237 C230 1.356 . S
N237 H240 0.984 . S
N237 H241 0.985 . S
H238 N233 0.984 . S
H239 N233 0.985 . S
H240 N237 0.984 . S
H241 N237 0.985 . S
H242 N236 0.984 . S
H243 N236 0.984 . S
H244 N232 0.984 . S
H245 N232 0.985 . S
C246 C247 1.363 . S
C246 C252 1.379 1_545 S
C246 N254 1.356 . S
C247 C246 1.363 . S
C247 C253 1.363 . S
C248 C249 1.363 1_545 S
C248 C253 1.379 . S
C248 N255 1.356 1_545 S
C249 C248 1.363 1_565 S
C249 C252 1.363 . S
N250 C252 1.356 . S
N250 H262 0.984 . S
N250 H263 0.985 . S
N251 C253 1.356 . S
N251 H256 0.984 . S
N251 H257 0.985 . S
C252 C246 1.379 1_565 S
C252 C249 1.363 . S
C252 N250 1.356 . S
C253 C247 1.363 . S
C253 C248 1.379 . S
C253 N251 1.356 . S
N254 C246 1.356 . S
N254 H260 0.984 . S
N254 H261 0.984 . S
N255 C248 1.356 1_565 S
N255 H258 0.984 . S
N255 H259 0.984 . S
H256 N251 0.984 . S
H257 N251 0.985 . S
H258 N255 0.984 . S
H259 N255 0.984 . S
H260 N254 0.984 . S
H261 N254 0.984 . S
H262 N250 0.984 . S
H263 N250 0.985 . S
C264 C265 1.363 . S
C264 C270 1.379 . S
C264 N272 1.356 . S
C265 C264 1.363 . S
C265 C271 1.363 . S
C266 C267 1.363 . S
C266 C271 1.379 . S
C266 N273 1.356 . S
C267 C266 1.363 . S
C267 C270 1.363 . S
N268 C270 1.356 . S
N268 H280 0.984 . S
N268 H281 0.985 . S
N269 C271 1.356 . S
N269 H274 0.984 . S
N269 H275 0.985 . S
C270 C264 1.379 . S
C270 C267 1.363 . S
C270 N268 1.356 . S
C271 C265 1.363 . S
C271 C266 1.379 . S
C271 N269 1.356 . S
N272 C264 1.356 . S
N272 H278 0.984 . S
N272 H279 0.984 . S
N273 C266 1.356 . S
N273 H276 0.984 . S
N273 H277 0.985 . S
H274 N269 0.984 . S
H275 N269 0.985 . S
H276 N273 0.984 . S
H277 N273 0.985 . S
H278 N272 0.984 . S
H279 N272 0.984 . S
H280 N268 0.984 . S
H281 N268 0.985 . S
C282 C283 1.367 . S
C282 C288 1.362 1_455 S
C282 N290 1.372 . S
C283 C282 1.367 . S
C283 C289 1.363 1_455 S
C284 C285 1.363 . S
C284 C289 1.379 . S
C284 N291 1.356 . S
C285 C284 1.363 . S
C285 C288 1.363 . S
N286 C288 1.356 . S
N286 H298 0.984 . S
N286 H299 0.985 . S
N287 C289 1.356 1_455 S
N287 H292 0.984 . S
N287 H293 0.985 . S
C288 C282 1.362 1_655 S
C288 C285 1.363 . S
C288 N286 1.356 . S
C289 C283 1.363 1_655 S
C289 C284 1.379 . S
C289 N287 1.356 1_655 S
N290 C282 1.372 . S
N290 H296 0.984 . S
N290 H297 0.984 . S
N291 C284 1.356 . S
N291 H294 0.984 . S
N291 H295 0.985 . S
H292 N287 0.984 . S
H293 N287 0.985 . S
H294 N291 0.984 . S
H295 N291 0.985 . S
H296 N290 0.984 . S
H297 N290 0.984 . S
H298 N286 0.984 . S
H299 N286 0.985 . S
C300 C301 1.363 . S
C300 C306 1.379 1_545 S
C300 N308 1.356 . S
C301 C300 1.363 . S
C301 C307 1.363 . S
C302 C303 1.363 1_545 S
C302 C307 1.379 . S
C302 N309 1.356 . S
C303 C302 1.363 1_565 S
C303 C306 1.363 . S
N304 C306 1.356 . S
N304 H316 0.984 . S
N304 H317 0.985 . S
N305 C307 1.356 . S
N305 H310 0.984 . S
N305 H311 0.985 . S
C306 C300 1.379 1_565 S
C306 C303 1.363 . S
C306 N304 1.356 . S
C307 C301 1.363 . S
C307 C302 1.379 . S
C307 N305 1.356 . S
N308 C300 1.356 . S
N308 H314 0.984 . S
N308 H315 0.984 . S
N309 C302 1.356 . S
N309 H312 0.984 1_545 S
N309 H313 0.985 . S
H310 N305 0.984 . S
H311 N305 0.985 . S
H312 N309 0.984 1_565 S
H313 N309 0.985 . S
H314 N308 0.984 . S
H315 N308 0.984 . S
H316 N304 0.984 . S
H317 N304 0.985 . S
C318 C319 1.363 . S
C318 C324 1.379 . S
C318 N326 1.356 . S
C319 C318 1.363 . S
C319 C325 1.363 . S
C320 C321 1.363 . S
C320 C325 1.379 . S
C320 N327 1.356 . S
C321 C320 1.363 . S
C321 C324 1.363 . S
N322 C324 1.356 . S
N322 H334 0.984 . S
N322 H335 0.985 . S
N323 C325 1.356 . S
N323 H328 0.984 . S
N323 H329 0.985 . S
C324 C318 1.379 . S
C324 C321 1.363 . S
C324 N322 1.356 . S
C325 C319 1.363 . S
C325 C320 1.379 . S
C325 N323 1.356 . S
N326 C318 1.356 . S
N326 H332 0.984 . S
N326 H333 0.984 . S
N327 C320 1.356 . S
N327 H330 0.984 . S
N327 H331 0.985 . S
H328 N323 0.984 . S
H329 N323 0.985 . S
H330 N327 0.984 . S
H331 N327 0.985 . S
H332 N326 0.984 . S
H333 N326 0.984 . S
H334 N322 0.984 . S
H335 N322 0.985 . S
C336 C337 1.363 1_655 S
C336 C342 1.379 . S
C336 N344 1.356 . S
C337 C336 1.363 1_455 S
C337 C343 1.363 . S
C338 C339 1.363 . S
C338 C343 1.379 1_655 S
C338 N345 1.356 . S
C339 C338 1.363 . S
C339 C342 1.363 . S
N340 C342 1.356 . S
N340 H352 0.984 . S
N340 H353 0.985 . S
N341 C343 1.356 . S
N341 H346 0.984 . S
N341 H347 0.985 . S
C342 C336 1.379 . S
C342 C339 1.363 . S
C342 N340 1.356 . S
C343 C337 1.363 . S
C343 C338 1.379 1_455 S
C343 N341 1.356 . S
N344 C336 1.356 . S
N344 H350 0.984 . S
N344 H351 0.984 1_655 S
N345 C338 1.356 . S
N345 H348 0.984 . S
N345 H349 0.985 1_655 S
H346 N341 0.984 . S
H347 N341 0.985 . S
H348 N345 0.984 . S
H349 N345 0.985 1_455 S
H350 N344 0.984 . S
H351 N344 0.984 1_455 S
H352 N340 0.984 . S
H353 N340 0.985 . S
C354 C355 1.363 . S
C354 C360 1.379 . S
C354 N362 1.356 . S
C355 C354 1.363 . S
C355 C361 1.363 . S
C356 C357 1.363 . S
C356 C361 1.379 1_545 S
C356 N363 1.356 . S
C357 C356 1.363 . S
C357 C360 1.363 1_545 S
N358 C360 1.356 . S
N358 H370 0.984 . S
N358 H371 0.985 . S
N359 C361 1.356 1_545 S
N359 H364 0.984 1_545 S
N359 H365 0.985 . S
C360 C354 1.379 . S
C360 C357 1.363 1_565 S
C360 N358 1.356 . S
C361 C355 1.363 . S
C361 C356 1.379 1_565 S
C361 N359 1.356 1_565 S
N362 C354 1.356 . S
N362 H368 0.984 . S
N362 H369 0.984 . S
N363 C356 1.356 . S
N363 H366 0.984 . S
N363 H367 0.985 . S
H364 N359 0.984 1_565 S
H365 N359 0.985 . S
H366 N363 0.984 . S
H367 N363 0.985 . S
H368 N362 0.984 . S
H369 N362 0.984 . S
H370 N358 0.984 . S
H371 N358 0.985 . S
C372 C373 1.363 . S
C372 C378 1.379 . S
C372 N380 1.356 1_556 S
C373 C372 1.363 . S
C373 C379 1.363 . S
C374 C375 1.363 . S
C374 C379 1.379 . S
C374 N381 1.356 . S
C375 C374 1.363 . S
C375 C378 1.363 . S
N376 C378 1.356 . S
N376 H388 0.984 . S
N376 H389 0.985 . S
N377 C379 1.356 . S
N377 H382 0.984 . S
N377 H383 0.985 . S
C378 C372 1.379 . S
C378 C375 1.363 . S
C378 N376 1.356 . S
C379 C373 1.363 . S
C379 C374 1.379 . S
C379 N377 1.356 . S
N380 C372 1.356 1_554 S
N380 H386 0.984 . S
N380 H387 0.984 . S
N381 C374 1.356 . S
N381 H384 0.984 . S
N381 H385 0.985 . S
H382 N377 0.984 . S
H383 N377 0.985 . S
H384 N381 0.984 . S
H385 N381 0.985 . S
H386 N380 0.984 . S
H387 N380 0.984 . S
H388 N376 0.984 . S
H389 N376 0.985 . S
C390 C391 1.363 1_655 S
C390 C396 1.379 . S
C390 N398 1.356 1_554 S
C391 C390 1.363 1_455 S
C391 C397 1.363 . S
C392 C393 1.363 1_455 S
C392 C397 1.379 . S
C392 N399 1.356 . S
C393 C392 1.363 1_655 S
C393 C396 1.363 . S
N394 C396 1.356 . S
N394 H406 0.984 . S
N394 H407 0.985 . S
N395 C397 1.356 . S
N395 H400 0.984 1_554 S
N395 H401 0.985 . S
C396 C390 1.379 . S
C396 C393 1.363 . S
C396 N394 1.356 . S
C397 C391 1.363 . S
C397 C392 1.379 . S
C397 N395 1.356 . S
N398 C390 1.356 1_556 S
N398 H404 0.984 . S
N398 H405 0.984 1_655 S
N399 C392 1.356 . S
N399 H402 0.984 . S
N399 H403 0.985 . S
H400 N395 0.984 1_556 S
H401 N395 0.985 . S
H402 N399 0.984 . S
H403 N399 0.985 . S
H404 N398 0.984 . S
H405 N398 0.984 1_455 S
H406 N394 0.984 . S
H407 N394 0.985 . S
C408 C409 1.363 . S
C408 C414 1.379 . S
C408 N416 1.356 . S
C409 C408 1.363 . S
C409 C415 1.363 . S
C410 C411 1.363 . S
C410 C415 1.379 . S
C410 N417 1.356 . S
C411 C410 1.363 . S
C411 C414 1.363 . S
N412 C414 1.356 . S
N412 H424 0.984 . S
N412 H425 0.985 . S
N413 C415 1.356 . S
N413 H418 0.984 . S
N413 H419 0.985 . S
C414 C408 1.379 . S
C414 C411 1.363 . S
C414 N412 1.356 . S
C415 C409 1.363 . S
C415 C410 1.379 . S
C415 N413 1.356 . S
N416 C408 1.356 . S
N416 H422 0.984 . S
N416 H423 0.984 . S
N417 C410 1.356 . S
N417 H420 0.984 . S
N417 H421 0.985 . S
H418 N413 0.984 . S
H419 N413 0.985 . S
H420 N417 0.984 . S
H421 N417 0.985 . S
H422 N416 0.984 . S
H423 N416 0.984 . S
H424 N412 0.984 . S
H425 N412 0.985 . S
C426 C427 1.363 . S
C426 C432 1.379 1_556 S
C426 N434 1.356 . S
C427 C426 1.363 . S
C427 C433 1.363 . S
C428 C429 1.363 . S
C428 C433 1.379 1_554 S
C428 N435 1.356 . S
C429 C428 1.363 . S
C429 C432 1.363 . S
N430 C432 1.356 . S
N430 H442 0.984 . S
N430 H443 0.985 . S
N431 C433 1.356 . S
N431 H436 0.984 . S
N431 H437 0.985 . S
C432 C426 1.379 1_554 S
C432 C429 1.363 . S
C432 N430 1.356 . S
C433 C427 1.363 . S
C433 C428 1.379 1_556 S
C433 N431 1.356 . S
N434 C426 1.356 . S
N434 H440 0.984 . S
N434 H441 0.984 . S
N435 C428 1.356 . S
N435 H438 0.984 . S
N435 H439 0.985 . S
H436 N431 0.984 . S
H437 N431 0.985 . S
H438 N435 0.984 . S
H439 N435 0.985 . S
H440 N434 0.984 . S
H441 N434 0.984 . S
H442 N430 0.984 . S
H443 N430 0.985 . S
C444 C445 1.363 . S
C444 C450 1.379 . S
C444 N452 1.356 . S
C445 C444 1.363 . S
C445 C451 1.363 . S
C446 C447 1.363 . S
C446 C451 1.379 . S
C446 N453 1.356 . S
C447 C446 1.363 . S
C447 C450 1.363 . S
N448 C450 1.356 . S
N448 H460 0.984 . S
N448 H461 0.985 . S
N449 C451 1.356 . S
N449 H454 0.984 . S
N449 H455 0.985 . S
C450 C444 1.379 . S
C450 C447 1.363 . S
C450 N448 1.356 . S
C451 C445 1.363 . S
C451 C446 1.379 . S
C451 N449 1.356 . S
N452 C444 1.356 . S
N452 H458 0.984 . S
N452 H459 0.984 . S
N453 C446 1.356 . S
N453 H456 0.984 . S
N453 H457 0.985 . S
H454 N449 0.984 . S
H455 N449 0.985 . S
H456 N453 0.984 . S
H457 N453 0.985 . S
H458 N452 0.984 . S
H459 N452 0.984 . S
H460 N448 0.984 . S
H461 N448 0.985 . S
C462 C463 1.363 . S
C462 C468 1.379 . S
C462 N470 1.356 . S
C463 C462 1.363 . S
C463 C469 1.363 . S
C464 C465 1.363 . S
C464 C469 1.379 . S
C464 N471 1.356 . S
C465 C464 1.363 . S
C465 C468 1.363 . S
N466 C468 1.356 . S
N466 H478 0.984 . S
N466 H479 0.985 . S
N467 C469 1.356 . S
N467 H472 0.984 . S
N467 H473 0.985 . S
C468 C462 1.379 . S
C468 C465 1.363 . S
C468 N466 1.356 . S
C469 C463 1.363 . S
C469 C464 1.379 . S
C469 N467 1.356 . S
N470 C462 1.356 . S
N470 H476 0.984 . S
N470 H477 0.984 . S
N471 C464 1.356 . S
N471 H474 0.984 . S
N471 H475 0.985 . S
H472 N467 0.984 . S
H473 N467 0.985 . S
H474 N471 0.984 . S
H475 N471 0.985 . S
H476 N470 0.984 . S
H477 N470 0.984 . S
H478 N466 0.984 . S
H479 N466 0.985 . S
C480 C481 1.363 . S
C480 C486 1.379 . S
C480 N488 1.356 . S
C481 C480 1.363 . S
C481 C487 1.363 . S
C482 C483 1.363 . S
C482 C487 1.379 . S
C482 N489 1.356 . S
C483 C482 1.363 . S
C483 C486 1.363 . S
N484 C486 1.356 . S
N484 H496 0.984 . S
N484 H497 0.985 . S
N485 C487 1.356 . S
N485 H490 0.984 . S
N485 H491 0.985 . S
C486 C480 1.379 . S
C486 C483 1.363 . S
C486 N484 1.356 . S
C487 C481 1.363 . S
C487 C482 1.379 . S
C487 N485 1.356 . S
N488 C480 1.356 . S
N488 H494 0.984 . S
N488 H495 0.984 . S
N489 C482 1.356 . S
N489 H492 0.984 . S
N489 H493 0.985 . S
H490 N485 0.984 . S
H491 N485 0.985 . S
H492 N489 0.984 . S
H493 N489 0.985 . S
H494 N488 0.984 . S
H495 N488 0.984 . S
H496 N484 0.984 . S
H497 N484 0.985 . S
C498 C499 1.363 . S
C498 C504 1.379 . S
C498 N506 1.356 . S
C499 C498 1.363 . S
C499 C505 1.363 . S
C500 C501 1.363 . S
C500 C505 1.379 . S
C500 N507 1.356 . S
C501 C500 1.363 . S
C501 C504 1.363 . S
N502 C504 1.356 . S
N502 H514 0.984 . S
N502 H515 0.985 . S
N503 C505 1.356 . S
N503 H508 0.984 . S
N503 H509 0.985 . S
C504 C498 1.379 . S
C504 C501 1.363 . S
C504 N502 1.356 . S
C505 C499 1.363 . S
C505 C500 1.379 . S
C505 N503 1.356 . S
N506 C498 1.356 . S
N506 H512 0.984 . S
N506 H513 0.984 . S
N507 C500 1.356 . S
N507 H510 0.984 . S
N507 H511 0.985 . S
H508 N503 0.984 . S
H509 N503 0.985 . S
H510 N507 0.984 . S
H511 N507 0.985 . S
H512 N506 0.984 . S
H513 N506 0.984 . S
H514 N502 0.984 . S
H515 N502 0.985 . S
C193 C2 1.434 . S
C195 N173 1.478 . S
C211 C34 1.434 . S
C213 N13 1.478 . S
C229 C66 1.434 . S
C231 N45 1.478 . S
C247 N77 1.478 . S
C249 C98 1.434 . S
C265 N109 1.478 . S
C267 C130 1.434 . S
C283 C162 1.434 . S
C285 N141 1.478 . S
C301 C4 1.276 . S
C303 N114 1.228 . S
C319 C36 1.276 . S
C321 N146 1.228 . S
C337 N178 1.228 . S
C339 C68 1.276 . S
C355 C100 1.276 . S
C357 N18 1.228 . S
C373 N50 1.228 1_556 S
C375 C132 1.276 . S
C391 C164 1.276 1_554 S
C393 N82 1.228 . S
C409 C6 1.783 . S
C411 C157 1.676 . S
C427 C189 1.676 . S
C429 C38 1.783 . S
C445 C29 1.676 . S
C447 C70 1.783 . S
C463 C102 1.783 . S
C465 C61 1.676 . S
C481 C93 1.676 . S
C483 C134 1.783 . S
C499 C125 1.676 . S
C501 C166 1.783 . S
