# Generated by pormake.
# Topology wjf, (4)-cn, num edge types: 1
# Building blocks:
#     Node 0, Type 0, BuildingBlock: NAHDIM_clean_sbu_0, # of connection points: 4
#     Node 1, Type 0, BuildingBlock: NAHDIM_clean_sbu_0, # of connection points: 4
#     Node 2, Type 0, BuildingBlock: NAHDIM_clean_sbu_0, # of connection points: 4
#     Node 3, Type 0, BuildingBlock: NAHDIM_clean_sbu_0, # of connection points: 4
#     Node 4, Type 0, BuildingBlock: NAHDIM_clean_sbu_0, # of connection points: 4
#     Node 5, Type 0, BuildingBlock: NAHDIM_clean_sbu_0, # of connection points: 4
#     Node 6, Type 0, BuildingBlock: NAHDIM_clean_sbu_0, # of connection points: 4
#     Node 7, Type 0, BuildingBlock: NAHDIM_clean_sbu_0, # of connection points: 4
#     Node 8, Type 0, BuildingBlock: NAHDIM_clean_sbu_0, # of connection points: 4
#     Node 9, Type 0, BuildingBlock: NAHDIM_clean_sbu_0, # of connection points: 4
#     Node 10, Type 0, BuildingBlock: NAHDIM_clean_sbu_0, # of connection points: 4
#     Node 11, Type 0, BuildingBlock: NAHDIM_clean_sbu_0, # of connection points: 4
#     Edge 12, Type (0, 0), BuildingBlock: KIFKEQ_clean_linker_1, # of connection points: 2
#     Edge 13, Type (0, 0), BuildingBlock: KIFKEQ_clean_linker_1, # of connection points: 2
#     Edge 14, Type (0, 0), BuildingBlock: KIFKEQ_clean_linker_1, # of connection points: 2
#     Edge 15, Type (0, 0), BuildingBlock: KIFKEQ_clean_linker_1, # of connection points: 2
#     Edge 16, Type (0, 0), BuildingBlock: KIFKEQ_clean_linker_1, # of connection points: 2
#     Edge 17, Type (0, 0), BuildingBlock: KIFKEQ_clean_linker_1, # of connection points: 2
#     Edge 18, Type (0, 0), BuildingBlock: KIFKEQ_clean_linker_1, # of connection points: 2
#     Edge 19, Type (0, 0), BuildingBlock: KIFKEQ_clean_linker_1, # of connection points: 2
#     Edge 20, Type (0, 0), BuildingBlock: KIFKEQ_clean_linker_1, # of connection points: 2
#     Edge 21, Type (0, 0), BuildingBlock: KIFKEQ_clean_linker_1, # of connection points: 2
#     Edge 22, Type (0, 0), BuildingBlock: KIFKEQ_clean_linker_1, # of connection points: 2
#     Edge 23, Type (0, 0), BuildingBlock: KIFKEQ_clean_linker_1, # of connection points: 2
#     Edge 24, Type (0, 0), BuildingBlock: KIFKEQ_clean_linker_1, # of connection points: 2
#     Edge 25, Type (0, 0), BuildingBlock: KIFKEQ_clean_linker_1, # of connection points: 2
#     Edge 26, Type (0, 0), BuildingBlock: KIFKEQ_clean_linker_1, # of connection points: 2
#     Edge 27, Type (0, 0), BuildingBlock: KIFKEQ_clean_linker_1, # of connection points: 2
#     Edge 28, Type (0, 0), BuildingBlock: KIFKEQ_clean_linker_1, # of connection points: 2
#     Edge 29, Type (0, 0), BuildingBlock: KIFKEQ_clean_linker_1, # of connection points: 2
#     Edge 30, Type (0, 0), BuildingBlock: KIFKEQ_clean_linker_1, # of connection points: 2
#     Edge 31, Type (0, 0), BuildingBlock: KIFKEQ_clean_linker_1, # of connection points: 2
#     Edge 32, Type (0, 0), BuildingBlock: KIFKEQ_clean_linker_1, # of connection points: 2
#     Edge 33, Type (0, 0), BuildingBlock: KIFKEQ_clean_linker_1, # of connection points: 2
#     Edge 34, Type (0, 0), BuildingBlock: KIFKEQ_clean_linker_1, # of connection points: 2
#     Edge 35, Type (0, 0), BuildingBlock: KIFKEQ_clean_linker_1, # of connection points: 2
# Relax obj value: 0.236
# Max RMSD: 0.248
# Mean RMSD: 0.248
data_MOF--net-wjf--node1-NAHDIM_clean_sbu_0--edge1-KIFKEQ_clean_linker_1
_symmetry_space_group_name_H-M    P1
_symmetry_Int_Tables_number       1
_symmetry_cell_setting            triclinic
loop_
_symmetry_equiv_pos_as_xyz
'x, y, z'
_cell_length_a     53.068726
_cell_length_b     52.946298
_cell_length_c     26.196197
_cell_angle_alpha  90.052484
_cell_angle_beta   89.821318
_cell_angle_gamma 120.10685
loop_
_atom_site_label
_atom_site_type_symbol
_atom_site_fract_x
_atom_site_fract_y
_atom_site_fract_z
_atom_type_partial_charge
C0 C 0.30107 0.45467 0.10349 0.0
O1 O 0.29076 0.43834 0.14452 0.0
O2 O 0.32156 0.40583 0.15813 0.0
Zn3 Zn 0.33989 0.43073 0.09587 0.0
O4 O 0.33331 0.40725 0.03198 0.0
C5 C 0.39756 0.44808 0.13249 0.0
O6 O 0.38451 0.4216 0.15182 0.0
O7 O 0.32244 0.45559 0.07997 0.0
C8 C 0.34839 0.39619 0.01671 0.0
O9 O 0.36922 0.39781 0.0459 0.0
C10 C 0.31041 0.37827 0.1596 0.0
O11 O 0.3094 0.36416 0.11769 0.0
O12 O 0.38276 0.45663 0.10738 0.0
C13 C 0.89794 0.27663 0.40097 0.0
O14 O 0.92281 0.27692 0.39809 0.0
O15 O 0.95369 0.31964 0.49616 0.0
Zn16 Zn 0.93837 0.3309 0.43522 0.0
O17 O 0.96091 0.33513 0.37078 0.0
C18 C 0.96148 0.38781 0.47694 0.0
O19 O 0.97909 0.37998 0.49744 0.0
O20 O 0.89776 0.29868 0.41981 0.0
C21 C 0.98451 0.35735 0.35657 0.0
O22 O -0.00228 0.3799 0.38725 0.0
C23 C 0.97774 0.31988 0.49777 0.0
O24 O -0.00627 0.32617 0.45625 0.0
O25 O 0.94068 0.36962 0.44899 0.0
C26 C 0.54634 0.84944 0.76556 0.0
O27 O 0.56157 0.86052 0.80737 0.0
O28 O 0.58431 0.9209 0.81345 0.0
Zn29 Zn 0.56146 0.90906 0.74795 0.0
O30 O 0.58741 0.92543 0.68686 0.0
C31 C 0.52145 0.92663 0.78739 0.0
O32 O 0.52396 0.91518 0.83019 0.0
O33 O 0.54097 0.86564 0.73728 0.0
C34 C 0.5981 0.95171 0.67236 0.0
O35 O 0.59387 0.96987 0.70037 0.0
C36 C 0.6116 0.93833 0.81651 0.0
O37 O 0.62691 0.94938 0.77465 0.0
O38 O 0.53437 0.92521 0.74753 0.0
C39 C 0.69856 0.56605 0.08593 0.0
O40 O 0.68875 0.5565 0.13212 0.0
O41 O 0.68786 0.63448 0.13645 0.0
Zn42 Zn 0.67059 0.60387 0.08159 0.0
O43 O 0.66998 0.62231 0.01544 0.0
C44 C 0.61443 0.5812 0.12807 0.0
O45 O 0.62642 0.60805 0.14539 0.0
O46 O 0.69355 0.58454 0.0644 0.0
C47 C 0.65213 0.63043 0.00242 0.0
O48 O 0.63248 0.62843 0.0353 0.0
C49 C 0.70126 0.63307 0.17543 0.0
O50 O 0.70691 0.61167 0.17909 0.0
O51 O 0.62949 0.57393 0.1004 0.0
C52 C 0.12792 0.70416 0.43286 0.0
O53 O 0.12038 0.71701 0.46772 0.0
O54 O 0.05782 0.67772 0.49258 0.0
Zn55 Zn 0.06591 0.66096 0.42976 0.0
O56 O 0.04861 0.66739 0.36639 0.0
C57 C 0.02643 0.60167 0.46392 0.0
O58 O 0.01148 0.61312 0.48299 0.0
O59 O 0.10864 0.67992 0.41443 0.0
C60 C 0.0225 0.65138 0.35163 0.0
O61 O 0.00407 0.62965 0.38059 0.0
C62 C 0.03919 0.68611 0.49418 0.0
O63 O 0.02526 0.68541 0.45238 0.0
O64 O 0.05009 0.61793 0.44013 0.0
C65 C 0.35696 0.09124 0.72078 0.0
O66 O 0.33109 0.0676 0.72055 0.0
O67 O 0.34203 0.02817 0.79605 0.0
Zn68 Zn 0.36764 0.04638 0.73449 0.0
O69 O 0.3469 0.02802 0.66907 0.0
C70 C 0.41095 0.03581 0.7813 0.0
O71 O 0.4001 0.03925 0.82416 0.0
O72 O 0.37909 0.0886 0.72917 0.0
C73 C 0.34651 0.00566 0.65062 0.0
O74 O 0.35811 0.99288 0.67675 0.0
C75 C 0.32143 0.00179 0.79749 0.0
O76 O 0.31497 0.98574 0.7561 0.0
O77 O 0.40175 0.03981 0.73906 0.0
C78 C 0.58758 0.70948 0.58304 0.0
O79 O 0.61514 0.71675 0.58557 0.0
O80 O 0.61427 0.67367 0.49126 0.0
Zn81 Zn 0.58703 0.65945 0.5515 0.0
O82 O 0.60771 0.66164 0.61681 0.0
C83 C 0.56234 0.60018 0.51765 0.0
O84 O 0.58897 0.61014 0.50045 0.0
O85 O 0.56945 0.68476 0.56445 0.0
C86 C 0.61666 0.6447 0.63163 0.0
O87 O 0.61395 0.62365 0.60149 0.0
C88 C 0.64154 0.68344 0.49379 0.0
O89 O 0.65374 0.68625 0.53856 0.0
O90 O 0.55598 0.6176 0.54001 0.0
C91 C 0.86767 0.58742 0.89744 0.0
O92 O 0.87732 0.60836 0.86319 0.0
O93 O 0.9381 0.6294 0.84265 0.0
Zn94 Zn 0.92824 0.60347 0.90442 0.0
O95 O 0.94618 0.62583 0.96885 0.0
C96 C 0.96411 0.58134 0.86469 0.0
O97 O 0.97813 0.60721 0.84313 0.0
O98 O 0.88538 0.58104 0.91792 0.0
C99 C 0.97183 0.63337 0.98328 0.0
O100 O 0.98874 0.62843 0.95322 0.0
C101 C 0.95929 0.65547 0.84055 0.0
O102 O 0.97479 0.66747 0.88173 0.0
O103 O 0.94201 0.57486 0.89251 0.0
C104 C 0.28955 0.84654 0.22138 0.0
O105 O 0.27864 0.85229 0.18104 0.0
O106 O 0.31415 0.9125 0.15174 0.0
Zn107 Zn 0.32985 0.90862 0.21926 0.0
O108 O 0.31851 0.92637 0.27599 0.0
C109 C 0.39016 0.94193 0.25167 0.0
O110 O 0.37851 0.94101 0.29643 0.0
O111 O 0.31285 0.86681 0.24084 0.0
C112 C 0.32806 0.95327 0.28459 0.0
O113 O 0.34647 0.97286 0.25227 0.0
C114 C 0.29734 0.92291 0.14613 0.0
O115 O 0.28825 0.93082 0.1865 0.0
O116 O 0.37366 0.92886 0.21398 0.0
C117 C 0.36538 0.27614 0.60258 0.0
O118 O 0.34114 0.27698 0.60707 0.0
O119 O 0.35155 0.31797 0.50723 0.0
Zn120 Zn 0.37895 0.33 0.56702 0.0
O121 O 0.36152 0.33488 0.63203 0.0
C122 C 0.41146 0.38652 0.5233 0.0
O123 O 0.38545 0.37827 0.50503 0.0
O124 O 0.38745 0.29779 0.58237 0.0
C125 C 0.36042 0.35722 0.64627 0.0
O126 O 0.3695 0.37962 0.61526 0.0
C127 C 0.32801 0.31874 0.50571 0.0
O128 O 0.31899 0.32602 0.54694 0.0
O129 O 0.41499 0.36874 0.55084 0.0
C130 C 0.14647 0.45152 0.90024 0.0
O131 O 0.14107 0.43628 0.858 0.0
O132 O 0.07644 0.40165 0.84601 0.0
Zn133 Zn 0.08328 0.42671 0.9081 0.0
O134 O 0.06552 0.40359 0.97215 0.0
C135 C 0.0444 0.44533 0.86937 0.0
O136 O 0.03062 0.41886 0.8501 0.0
O137 O 0.12556 0.45112 0.92452 0.0
C138 C 0.03944 0.39377 0.987 0.0
O139 O 0.02103 0.3964 0.9572 0.0
C140 C 0.05806 0.37449 0.84399 0.0
O141 O 0.04347 0.36096 0.88533 0.0
O142 O 0.06736 0.45335 0.89536 0.0
C143 C 0.72046 0.1012 0.25723 0.0
O144 O 0.72125 0.07686 0.25314 0.0
O145 O 0.66882 0.04402 0.17064 0.0
Zn146 Zn 0.66392 0.0595 0.23785 0.0
O147 O 0.66542 0.03657 0.2974 0.0
C148 C 0.60791 0.05031 0.20287 0.0
O149 O 0.61829 0.05081 0.15706 0.0
O150 O 0.6965 0.10045 0.24913 0.0
C151 C 0.64362 0.01232 0.31034 0.0
O152 O 0.62043 0.00047 0.28107 0.0
C153 C 0.66976 0.02064 0.1654 0.0
O154 O 0.66875 0.00565 0.20602 0.0
O155 O 0.62425 0.05553 0.24146 0.0
H156 H 0.3075 0.40056 0.25186 0.0
H157 H 0.29563 0.32175 0.18029 0.0
H158 H 0.3027 0.37873 0.3354 0.0
H159 H 0.2903 0.29963 0.26433 0.0
H160 H 0.33995 0.30195 0.41467 0.0
H161 H 0.32675 0.31023 0.33024 0.0
H162 H 0.2729 0.34119 0.39798 0.0
H163 H 0.28657 0.33337 0.48293 0.0
C164 C 0.30325 0.37832 0.25392 0.0
C165 C 0.30246 0.36308 0.20945 0.0
C166 C 0.3002 0.36568 0.3019 0.0
C167 C 0.29633 0.3375 0.30655 0.0
C168 C 0.29363 0.32152 0.26196 0.0
C169 C 0.29659 0.33417 0.21384 0.0
C170 C 0.32478 0.30992 0.41167 0.0
C171 C 0.31476 0.31754 0.45552 0.0
C172 C 0.31701 0.31446 0.36315 0.0
C173 C 0.29906 0.32673 0.35739 0.0
C174 C 0.28714 0.33213 0.40125 0.0
C175 C 0.29486 0.3275 0.4499 0.0
H176 H 0.94964 0.30546 0.58962 0.0
H177 H 0.03305 0.33159 0.51961 0.0
H178 H 0.97138 0.31241 0.67359 0.0
H179 H 0.05478 0.33807 0.60411 0.0
H180 H 0.08413 0.3962 0.75188 0.0
H181 H 0.06575 0.37575 0.66803 0.0
H182 H -0.00469 0.29866 0.7381 0.0
H183 H 0.01345 0.31942 0.82242 0.0
C184 C 0.9725 0.31203 0.59213 0.0
C185 C 0.98972 0.31846 0.54792 0.0
C186 C 0.98494 0.31579 0.64039 0.0
C187 C 0.0149 0.32609 0.64556 0.0
C188 C 0.03171 0.33051 0.60132 0.0
C189 C 0.01922 0.32666 0.55293 0.0
C190 C 0.06502 0.37465 0.74953 0.0
C191 C 0.04996 0.35967 0.79384 0.0
C192 C 0.05461 0.36279 0.70134 0.0
C193 C 0.02889 0.33568 0.69636 0.0
C194 C 0.01495 0.31979 0.74073 0.0
C195 C 0.02542 0.33164 0.78902 0.0
H196 H 0.58862 0.91407 0.90903 0.0
H197 H 0.66532 0.98481 0.83846 0.0
H198 H 0.6084 0.93346 0.99305 0.0
H199 H 0.68512 0.00419 0.92289 0.0
H200 H 0.67782 0.04865 0.07434 0.0
H201 H 0.66872 0.02729 0.98928 0.0
H202 H 0.64906 0.94441 0.05423 0.0
H203 H 0.65812 0.96575 0.13965 0.0
C204 C 0.6099 0.93353 0.91148 0.0
C205 C 0.62527 0.9481 0.86714 0.0
C206 C 0.62132 0.94449 0.95963 0.0
C207 C 0.64825 0.97039 0.96445 0.0
C208 C 0.66421 0.9843 0.92018 0.0
C209 C 0.65291 0.97315 0.87193 0.0
C210 C 0.67202 0.026 0.07047 0.0
C211 C 0.66836 0.00879 0.11374 0.0
C212 C 0.66702 0.01383 0.0217 0.0
C213 C 0.65803 0.98416 0.01522 0.0
C214 C 0.65573 0.96729 0.05825 0.0
C215 C 0.66102 0.97955 0.10707 0.0
H216 H 0.69251 0.67966 0.18025 0.0
H217 H 0.71639 0.62736 0.27262 0.0
H218 H 0.68617 0.70178 0.25718 0.0
H219 H 0.70934 0.64892 0.34943 0.0
H220 H 0.69695 0.69257 0.48402 0.0
H221 H 0.72061 0.69003 0.40553 0.0
H222 H 0.64679 0.67912 0.31836 0.0
H223 H 0.62356 0.68217 0.39609 0.0
C224 C 0.69701 0.67332 0.2169 0.0
C225 C 0.70432 0.65127 0.22042 0.0
C226 C 0.69326 0.68593 0.26098 0.0
C227 C 0.69663 0.67666 0.30944 0.0
C228 C 0.70664 0.65664 0.31272 0.0
C229 C 0.71053 0.64413 0.2686 0.0
C230 C 0.68612 0.69031 0.44792 0.0
C231 C 0.65819 0.68712 0.44632 0.0
C232 C 0.69962 0.68874 0.40303 0.0
C233 C 0.68551 0.68413 0.35574 0.0
C234 C 0.65848 0.683 0.35398 0.0
C235 C 0.64499 0.68448 0.39871 0.0
H236 H 0.01167 0.70372 0.81735 0.0
H237 H 0.93072 0.63852 0.7496 0.0
H238 H 0.03245 0.72014 0.73229 0.0
H239 H 0.95155 0.6547 0.66496 0.0
H240 H 0.99196 0.69221 0.51516 0.0
H241 H 0.97274 0.69352 0.59934 0.0
H242 H 0.04654 0.69423 0.66994 0.0
H243 H 0.06586 0.6932 0.58618 0.0
C244 C -0.00193 0.69336 0.78438 0.0
C245 C 0.96972 0.66948 0.79016 0.0
C246 C 0.01003 0.70269 0.73571 0.0
C247 C -0.00624 0.68848 0.69199 0.0
C248 C 0.96461 0.66624 0.69784 0.0
C249 C 0.95273 0.6568 0.74642 0.0
C250 C 0.00441 0.69331 0.54862 0.0
C251 C 0.0302 0.69213 0.54407 0.0
C252 C -0.00666 0.69397 0.5968 0.0
C253 C 0.00799 0.69373 0.64123 0.0
C254 C 0.03484 0.69469 0.63647 0.0
C255 C 0.0458 0.69384 0.58841 0.0
H256 H 0.27604 0.95857 0.11918 0.0
H257 H 0.30547 0.90237 0.05589 0.0
H258 H 0.27349 0.97508 0.03322 0.0
H259 H 0.30304 0.91893 0.97042 0.0
H260 H 0.28565 0.94381 0.8184 0.0
H261 H 0.27136 0.92108 0.90254 0.0
H262 H 0.31385 0.00633 0.97284 0.0
H263 H 0.32797 0.02908 0.88901 0.0
C264 C 0.2814 0.94931 0.08692 0.0
C265 C 0.29132 0.92946 0.09429 0.0
C266 C 0.28004 0.95885 0.03778 0.0
C267 C 0.28822 0.94842 0.99519 0.0
C268 C 0.29633 0.92717 0.00242 0.0
C269 C 0.29796 0.91786 0.05146 0.0
C270 C 0.29139 0.95772 0.85173 0.0
C271 C 0.30833 0.98824 0.84712 0.0
C272 C 0.28328 0.94468 0.89987 0.0
C273 C 0.29173 0.96192 0.94421 0.0
C274 C 0.30683 0.99247 0.93936 0.0
C275 C 0.31511 0.0055 0.8913 0.0
H276 H 0.16381 0.48308 0.98856 0.0
H277 H 0.19397 0.44816 0.86913 0.0
H278 H 0.20657 0.49432 0.03927 0.0
H279 H 0.23655 0.45918 0.92013 0.0
H280 H 0.31439 0.48573 0.01449 0.0
H281 H 0.28181 0.49531 0.96338 0.0
H282 H 0.21714 0.45947 0.08332 0.0
H283 H 0.24972 0.45011 0.13465 0.0
C284 C 0.17985 0.47835 0.97262 0.0
C285 C 0.17521 0.46415 0.92524 0.0
C286 C 0.2043 0.48475 0.00179 0.0
C287 C 0.22465 0.47723 0.98405 0.0
C288 C 0.22131 0.46539 0.93477 0.0
C289 C 0.19681 0.45892 0.9056 0.0
C290 C 0.2935 0.48053 0.03053 0.0
C291 C 0.28437 0.46658 0.07824 0.0
C292 C 0.27484 0.48596 0.00111 0.0
C293 C 0.2468 0.47774 0.01898 0.0
C294 C 0.23869 0.4662 0.06856 0.0
C295 C 0.25732 0.46068 0.09793 0.0
H296 H 0.84108 0.26326 0.41286 0.0
H297 H 0.89507 0.23443 0.33862 0.0
H298 H 0.79766 0.2215 0.3766 0.0
H299 H 0.85228 0.19379 0.30109 0.0
H300 H 0.77067 0.10614 0.29292 0.0
H301 H 0.81245 0.1489 0.32793 0.0
H302 H 0.77127 0.2001 0.29815 0.0
H303 H 0.72856 0.15658 0.26456 0.0
C304 C 0.84366 0.24812 0.38862 0.0
C305 C 0.87142 0.25188 0.37914 0.0
C306 C 0.81886 0.22436 0.36754 0.0
C307 C 0.82146 0.20414 0.33628 0.0
C308 C 0.84936 0.20848 0.32597 0.0
C309 C 0.87397 0.2319 0.3474 0.0
C310 C 0.77049 0.12651 0.29349 0.0
C311 C 0.74634 0.12799 0.27571 0.0
C312 C 0.79457 0.15113 0.31342 0.0
C313 C 0.79536 0.17804 0.31552 0.0
C314 C 0.77123 0.17964 0.29755 0.0
C315 C 0.74689 0.15479 0.27793 0.0
H316 H 0.52147 0.8231 0.67471 0.0
H317 H 0.56367 0.81367 0.80837 0.0
H318 H 0.52727 0.78549 0.63128 0.0
H319 H 0.5693 0.77612 0.76484 0.0
H320 H 0.61985 0.75734 0.64166 0.0
H321 H 0.60344 0.78569 0.6896 0.0
H322 H 0.51638 0.7319 0.63116 0.0
H323 H 0.53279 0.703 0.58286 0.0
C324 C 0.53124 0.81247 0.69536 0.0
C325 C 0.54269 0.82184 0.74463 0.0
C326 C 0.53449 0.7909 0.67045 0.0
C327 C 0.5493 0.77844 0.69437 0.0
C328 C 0.5583 0.78585 0.74524 0.0
C329 C 0.55493 0.80726 0.77023 0.0
C330 C 0.59721 0.75151 0.63869 0.0
C331 C 0.57762 0.72788 0.60845 0.0
C332 C 0.58776 0.76759 0.66666 0.0
C333 C 0.55854 0.76064 0.66477 0.0
C334 C 0.53899 0.73755 0.63346 0.0
C335 C 0.54841 0.72112 0.6058 0.0
H336 H 0.69622 0.55403 0.98553 0.0
H337 H 0.74212 0.55831 0.12385 0.0
H338 H 0.73251 0.54969 0.93524 0.0
H339 H 0.77944 0.55535 0.07343 0.0
H340 H 0.84193 0.54579 0.97187 0.0
H341 H 0.79587 0.53098 0.01541 0.0
H342 H 0.78078 0.58676 0.9149 0.0
H343 H 0.82617 0.60087 0.8708 0.0
C344 C 0.71391 0.55351 0.00515 0.0
C345 C 0.71675 0.55688 0.05832 0.0
C346 C 0.73477 0.55121 0.97639 0.0
C347 C 0.75926 0.55293 0.00015 0.0
C348 C 0.76079 0.55386 0.0539 0.0
C349 C 0.73951 0.55562 0.08285 0.0
C350 C 0.82845 0.55442 0.95845 0.0
C351 C 0.83785 0.5748 0.91825 0.0
C352 C 0.80214 0.54603 0.9836 0.0
C353 C 0.78473 0.55783 0.96898 0.0
C354 C 0.7934 0.57689 0.92684 0.0
C355 C 0.81961 0.58519 0.90166 0.0
H356 H 0.14765 0.68657 0.3514 0.0
H357 H 0.17374 0.75775 0.45803 0.0
H358 H 0.19152 0.7163 0.30114 0.0
H359 H 0.21749 0.78743 0.40753 0.0
H360 H 0.29938 0.83345 0.3177 0.0
H361 H 0.26441 0.79432 0.37275 0.0
H362 H 0.20363 0.75974 0.24751 0.0
H363 H 0.23851 0.7987 0.19239 0.0
C364 C 0.163 0.70834 0.36474 0.0
C365 C 0.15696 0.71999 0.40831 0.0
C366 C 0.18809 0.72536 0.3358 0.0
C367 C 0.20776 0.75426 0.35007 0.0
C368 C 0.20283 0.76515 0.39572 0.0
C369 C 0.17765 0.74819 0.42452 0.0
C370 C 0.27886 0.81708 0.30148 0.0
C371 C 0.27152 0.81945 0.25083 0.0
C372 C 0.2588 0.79476 0.33317 0.0
C373 C 0.23117 0.77422 0.31465 0.0
C374 C 0.22481 0.77517 0.26286 0.0
C375 C 0.24476 0.79759 0.23128 0.0
H376 H 0.40679 0.14512 0.71695 0.0
H377 H 0.31377 0.10154 0.69271 0.0
H378 H 0.41087 0.19148 0.69097 0.0
H379 H 0.31794 0.14714 0.66555 0.0
H380 H 0.32724 0.23521 0.6681 0.0
H381 H 0.32747 0.19253 0.70066 0.0
H382 H 0.40623 0.21641 0.61556 0.0
H383 H 0.40654 0.26016 0.58408 0.0
C384 C 0.38727 0.14544 0.70621 0.0
C385 C 0.35994 0.1197 0.7072 0.0
C386 C 0.38963 0.17191 0.69098 0.0
C387 C 0.36471 0.17304 0.67648 0.0
C388 C 0.3375 0.14722 0.67749 0.0
C389 C 0.33513 0.12097 0.69286 0.0
C390 C 0.34467 0.23146 0.65628 0.0
C391 C 0.36666 0.25083 0.62294 0.0
C392 C 0.34475 0.2069 0.67488 0.0
C393 C 0.3666 0.20078 0.6601 0.0
C394 C 0.38916 0.2206 0.62787 0.0
C395 C 0.38925 0.24551 0.60958 0.0
H396 H 0.35533 0.40122 0.69093 0.0
H397 H 0.34826 0.31779 0.72292 0.0
H398 H 0.3482 0.40686 0.78144 0.0
H399 H 0.34113 0.32353 0.8132 0.0
H400 H 0.31311 0.39771 0.94256 0.0
H401 H 0.31156 0.38505 0.85271 0.0
H402 H 0.37441 0.35763 0.88075 0.0
H403 H 0.37601 0.37024 0.9708 0.0
C404 C 0.35185 0.38392 0.71709 0.0
C405 C 0.3526 0.3592 0.69976 0.0
C406 C 0.34766 0.3871 0.76887 0.0
C407 C 0.34432 0.3657 0.80434 0.0
C408 C 0.344 0.3405 0.78676 0.0
C409 C 0.34794 0.3372 0.73499 0.0
C410 C 0.32634 0.38863 0.92979 0.0
C411 C 0.34488 0.38518 0.96379 0.0
C412 C 0.32553 0.38154 0.87826 0.0
C413 C 0.343 0.37057 0.85973 0.0
C414 C 0.36055 0.36588 0.89408 0.0
C415 C 0.36156 0.3732 0.9456 0.0
H416 H 0.95736 0.31783 0.28009 0.0
H417 H 0.03439 0.40068 0.31252 0.0
H418 H 0.97108 0.323 0.19021 0.0
H419 H 0.04802 0.40573 0.22241 0.0
H420 H 0.98549 0.36929 0.03132 0.0
H421 H 0.97341 0.35734 0.12135 0.0
H422 H 0.06288 0.38279 0.15283 0.0
H423 H 0.07506 0.39475 0.06297 0.0
C424 C 0.97741 0.33698 0.26821 0.0
C425 C -0.00529 0.35899 0.30343 0.0
C426 C 0.98514 0.33996 0.21667 0.0
C427 C 0.01048 0.36483 0.19933 0.0
C428 C 0.02846 0.38622 0.23482 0.0
C429 C 0.02059 0.38339 0.28636 0.0
C430 C 0.0025 0.37196 0.05729 0.0
C431 C 0.03125 0.38315 0.04003 0.0
C432 C -0.00444 0.36501 0.10879 0.0
C433 C 0.01728 0.36934 0.14407 0.0
C434 C 0.0458 0.37956 0.12653 0.0
C435 C 0.05269 0.38624 0.075 0.0
H436 H 0.62534 0.0063 0.63014 0.0
H437 H 0.60117 0.91674 0.59885 0.0
H438 H 0.64145 0.01921 0.54184 0.0
H439 H 0.61727 0.92977 0.51063 0.0
H440 H 0.6013 0.96061 0.3504 0.0
H441 H 0.59571 0.94516 0.43939 0.0
H442 H 0.67774 0.02189 0.47585 0.0
H443 H 0.68348 0.03743 0.38689 0.0
C444 C 0.62392 0.98949 0.6047 0.0
C445 C 0.61169 0.96047 0.62133 0.0
C446 C 0.6333 -0.00309 0.55424 0.0
C447 C 0.63041 0.97541 0.51942 0.0
C448 C 0.61947 0.94668 0.53663 0.0
C449 C 0.61036 0.9393 0.58718 0.0
C450 C 0.61842 0.97389 0.37715 0.0
C451 C 0.64263 0.0004 0.36173 0.0
C452 C 0.61529 0.96498 0.42805 0.0
C453 C 0.63619 0.98251 0.46449 0.0
C454 C 0.66117 0.00817 0.44856 0.0
C455 C 0.66447 0.01695 0.39758 0.0
H456 H 0.63468 0.61049 0.67899 0.0
H457 H 0.62213 0.68418 0.70414 0.0
H458 H 0.64683 0.61129 0.76891 0.0
H459 H 0.63454 0.68507 0.79381 0.0
H460 H 0.61452 0.64504 0.95807 0.0
H461 H 0.60987 0.65217 0.86731 0.0
H462 H 0.68344 0.6409 0.83441 0.0
H463 H 0.688 0.63351 0.92484 0.0
C464 C 0.63492 0.62709 0.70348 0.0
C465 C 0.62719 0.64707 0.68452 0.0
C466 C 0.642 0.62764 0.75493 0.0
C467 C 0.64143 0.64814 0.7884 0.0
C468 C 0.63475 0.66879 0.76903 0.0
C469 C 0.62779 0.66832 0.7176 0.0
C470 C 0.62994 0.64448 0.93157 0.0
C471 C 0.65142 0.63842 0.94863 0.0
C472 C 0.62736 0.64868 0.87962 0.0
C473 C 0.64616 0.64683 0.84379 0.0
C474 C 0.66838 0.642 0.8611 0.0
C475 C 0.67105 0.63792 0.91296 0.0
H476 H 0.96947 0.61966 0.30555 0.0
H477 H 0.05689 0.69122 0.27956 0.0
H478 H 0.95795 0.62122 0.21607 0.0
H479 H 0.04519 0.69292 0.19019 0.0
H480 H 0.93975 0.64026 0.05811 0.0
H481 H 0.95199 0.6503 0.14827 0.0
H482 H 0.03613 0.65908 0.11848 0.0
H483 H 0.0241 0.64937 0.0283 0.0
C484 C 0.98606 0.63606 0.28101 0.0
C485 C 0.01419 0.65505 0.29953 0.0
C486 C 0.97941 0.63707 0.22978 0.0
C487 C 0.00077 0.65706 0.19605 0.0
C488 C 0.02844 0.67703 0.21517 0.0
C489 C 0.03506 0.6761 0.26642 0.0
C490 C 0.96106 0.64482 0.07061 0.0
C491 C 0.98085 0.64368 0.03614 0.0
C492 C 0.96798 0.65043 0.1223 0.0
C493 C -0.00511 0.6552 0.1405 0.0
C494 C 0.0153 0.65571 0.10555 0.0
C495 C 0.00834 0.64998 0.05389 0.0
H496 H 0.3543 0.00801 0.32675 0.0
H497 H 0.29009 0.91794 0.35762 0.0
H498 H 0.35251 0.01999 0.41623 0.0
H499 H 0.28828 0.93003 0.44671 0.0
H500 H 0.33751 0.95606 0.6029 0.0
H501 H 0.32668 0.94363 0.51306 0.0
H502 H 0.32207 0.02189 0.48882 0.0
H503 H 0.33296 0.03445 0.57895 0.0
C504 C 0.33929 0.99094 0.35225 0.0
C505 C 0.32275 0.96195 0.33532 0.0
C506 C 0.3382 -0.00218 0.40346 0.0
C507 C 0.32058 0.97581 0.43848 0.0
C508 C 0.30243 0.94729 0.42067 0.0
C509 C 0.30344 0.94044 0.3696 0.0
C510 C 0.33375 0.9704 0.57864 0.0
C511 C 0.3363 -0.00368 0.59791 0.0
C512 C 0.32737 0.96319 0.52724 0.0
C513 C 0.3236 0.98186 0.49398 0.0
C514 C 0.32507 0.00724 0.51359 0.0
C515 C 0.33118 0.01432 0.5652 0.0
H516 H 0.42971 0.50593 0.10873 0.0
H517 H 0.43728 0.4339 0.16827 0.0
H518 H 0.48236 0.53738 0.11376 0.0
H519 H 0.49013 0.46557 0.17339 0.0
H520 H 0.58341 0.52337 0.10245 0.0
H521 H 0.53085 0.49074 0.10917 0.0
H522 H 0.52202 0.55981 0.17906 0.0
H523 H 0.5745 0.59252 0.17225 0.0
C524 C 0.44259 0.49685 0.12319 0.0
C525 C 0.42935 0.4674 0.13794 0.0
C526 C 0.47272 0.51493 0.12639 0.0
C527 C 0.49029 0.50391 0.14403 0.0
C528 C 0.47708 0.47456 0.15934 0.0
C529 C 0.44685 0.4565 0.15661 0.0
C530 C 0.5703 0.53151 0.11972 0.0
C531 C 0.58308 0.56059 0.13645 0.0
C532 C 0.54024 0.51277 0.12381 0.0
C533 C 0.52238 0.52283 0.14435 0.0
C534 C 0.53527 0.55161 0.16253 0.0
C535 C 0.56533 0.57027 0.15882 0.0
H536 H 0.97217 0.55869 0.49382 0.0
H537 H 0.05638 0.57322 0.44547 0.0
H538 H 0.95451 0.50631 0.501 0.0
H539 H 0.03875 0.52112 0.45285 0.0
H540 H 0.00805 0.43261 0.52434 0.0
H541 H 0.02236 0.48404 0.52443 0.0
H542 H 0.94495 0.46423 0.43971 0.0
H543 H 0.93045 0.41242 0.43936 0.0
C544 C 0.98692 0.55074 0.48493 0.0
C545 C 0.01568 0.57008 0.46913 0.0
C546 C 0.97675 0.52079 0.4888 0.0
C547 C -0.00469 0.50974 0.4777 0.0
C548 C 0.02408 0.52911 0.46222 0.0
C549 C 0.03411 0.55892 0.45773 0.0
C550 C -0.00614 0.43906 0.50611 0.0
C551 C 0.96821 0.41843 0.48143 0.0
C552 C 0.00217 0.46857 0.50601 0.0
C553 C 0.98491 0.47811 0.48164 0.0
C554 C 0.95859 0.4574 0.45891 0.0
C555 C 0.95037 0.4278 0.45858 0.0
H556 H 0.52336 0.96356 0.713 0.0
H557 H 0.48451 0.92745 0.8596 0.0
H558 H 0.49941 0.99245 0.71238 0.0
H559 H 0.45946 0.95546 0.8581 0.0
H560 H 0.43846 0.02836 0.86325 0.0
H561 H 0.46648 0.00332 0.8649 0.0
H562 H 0.45332 0.98791 0.70248 0.0
H563 H 0.42648 0.01389 0.70059 0.0
C564 C 0.50939 0.96151 0.74486 0.0
C565 C 0.50573 0.94312 0.78628 0.0
C566 C 0.49556 0.97804 0.74445 0.0
C567 C 0.47742 0.97633 0.78515 0.0
C568 C 0.47366 0.95777 0.8265 0.0
C569 C 0.48779 0.94147 0.82718 0.0
C570 C 0.44191 0.01994 0.82782 0.0
C571 C 0.43026 0.02315 0.78181 0.0
C572 C 0.45773 0.00532 0.82882 0.0
C573 C 0.46201 0.99334 0.7839 0.0
C574 C 0.45087 -0.00283 0.73773 0.0
C575 C 0.43535 0.01203 0.73665 0.0
H576 H 0.50405 0.57345 0.53801 0.0
H577 H 0.5716 0.55574 0.48954 0.0
H578 H 0.46863 0.52134 0.53545 0.0
H579 H 0.53602 0.50353 0.48702 0.0
H580 H 0.46807 0.41214 0.55646 0.0
H581 H 0.50529 0.46387 0.55136 0.0
H582 H 0.44522 0.48161 0.46998 0.0
H583 H 0.40815 0.43025 0.47496 0.0
C584 C 0.51131 0.55846 0.52656 0.0
C585 C 0.54062 0.56872 0.51396 0.0
C586 C 0.491 0.52864 0.52488 0.0
C587 C 0.4996 0.50842 0.51099 0.0
C588 C 0.52886 0.51864 0.49819 0.0
C589 C 0.54915 0.54853 0.49935 0.0
C590 C 0.46294 0.42704 0.53703 0.0
C591 C 0.43509 0.4171 0.51646 0.0
C592 C 0.48426 0.45661 0.53398 0.0
C593 C 0.47801 0.47675 0.51068 0.0
C594 C 0.45049 0.46664 0.4888 0.0
C595 C 0.42931 0.43715 0.49148 0.0
H596 H 0.01551 0.5917 0.82238 0.0
H597 H 0.93724 0.52429 0.89492 0.0
H598 H 0.03471 0.5584 0.81823 0.0
H599 H 0.95654 0.49111 0.89076 0.0
H600 H 0.99095 0.4322 0.83297 0.0
H601 H 0.97096 0.46482 0.82652 0.0
H602 H 0.05141 0.53585 0.8851 0.0
H603 H 0.07143 0.50342 0.89155 0.0
C604 C 0.00231 0.56973 0.83708 0.0
C605 C 0.97494 0.56066 0.85927 0.0
C606 C 0.01337 0.55074 0.83486 0.0
C607 C -0.00287 0.52225 0.85431 0.0
C608 C 0.9694 0.51289 0.8751 0.0
C609 C 0.95845 0.53195 0.87776 0.0
C610 C 0.00443 0.45482 0.84411 0.0
C611 C 0.03272 0.46523 0.86296 0.0
C612 C -0.00706 0.47342 0.84062 0.0
C613 C 0.00966 0.50281 0.85532 0.0
C614 C 0.03816 0.51336 0.87302 0.0
C615 C 0.04953 0.49473 0.87701 0.0
H616 H 0.57737 0.03331 0.29228 0.0
H617 H 0.56701 0.04084 0.13046 0.0
H618 H 0.52494 0.00843 0.30358 0.0
H619 H 0.51436 0.01694 0.14204 0.0
H620 H 0.42218 0.94087 0.17066 0.0
H621 H 0.47474 0.96959 0.15895 0.0
H622 H 0.48265 0.01224 0.30372 0.0
H623 H 0.43023 0.98259 0.31627 0.0
C624 C 0.56392 0.03023 0.25922 0.0
C625 C 0.57638 0.03894 0.21039 0.0
C626 C 0.53375 0.01601 0.26574 0.0
C627 C 0.51527 0.01043 0.22369 0.0
C628 C 0.52786 0.02029 0.17514 0.0
C629 C 0.55807 0.03425 0.16853 0.0
C630 C 0.43518 0.95634 0.2 0.0
C631 C 0.42208 0.9593 0.24455 0.0
C632 C 0.46532 0.97304 0.1931 0.0
C633 C 0.48305 0.99336 0.23031 0.0
C634 C 0.46981 -0.0035 0.27461 0.0
C635 C 0.43971 0.97954 0.28178 0.0
loop_
_geom_bond_atom_site_label_1
_geom_bond_atom_site_label_2
_geom_bond_distance
_geom_bond_site_symmetry_2
_ccdc_geom_bond_type
C0 O1 1.160 . S
C0 O7 1.185 . S
O1 C0 1.160 . S
O2 Zn3 1.899 . S
O2 C10 1.284 . S
Zn3 O2 1.899 . S
Zn3 O4 2.032 . S
Zn3 O7 2.086 . S
Zn3 O12 1.977 . S
O4 Zn3 2.032 . S
O4 C8 1.278 1_554 S
C5 O6 1.203 . S
C5 O12 1.267 . S
O6 C5 1.203 . S
O7 C0 1.185 . S
O7 Zn3 2.086 . S
C8 O4 1.278 1_556 S
C8 O9 1.211 . S
O9 C8 1.211 . S
C10 O2 1.284 . S
C10 O11 1.273 . S
O11 C10 1.273 . S
O12 Zn3 1.977 . S
O12 C5 1.267 . S
C13 O14 1.160 . S
C13 O20 1.185 . S
O14 C13 1.160 . S
O15 Zn16 1.899 . S
O15 C23 1.284 . S
Zn16 O15 1.899 . S
Zn16 O17 2.032 . S
Zn16 O20 2.086 . S
Zn16 O25 1.977 . S
O17 Zn16 2.032 . S
O17 C21 1.278 . S
C18 O19 1.203 . S
C18 O25 1.267 . S
O19 C18 1.203 . S
O20 C13 1.185 . S
O20 Zn16 2.086 . S
C21 O17 1.278 . S
C21 O22 1.211 1_655 S
O22 C21 1.211 1_455 S
C23 O15 1.284 . S
C23 O24 1.273 1_655 S
O24 C23 1.273 1_455 S
O25 Zn16 1.977 . S
O25 C18 1.267 . S
C26 O27 1.160 . S
C26 O33 1.185 . S
O27 C26 1.160 . S
O28 Zn29 1.899 . S
O28 C36 1.284 . S
Zn29 O28 1.899 . S
Zn29 O30 2.032 . S
Zn29 O33 2.086 . S
Zn29 O38 1.977 . S
O30 Zn29 2.032 . S
O30 C34 1.278 . S
C31 O32 1.203 . S
C31 O38 1.267 . S
O32 C31 1.203 . S
O33 C26 1.185 . S
O33 Zn29 2.086 . S
C34 O30 1.278 . S
C34 O35 1.211 1_565 S
O35 C34 1.211 1_545 S
C36 O28 1.284 . S
C36 O37 1.273 1_565 S
O37 C36 1.273 1_545 S
O38 Zn29 1.977 . S
O38 C31 1.267 . S
C39 O40 1.160 . S
C39 O46 1.185 . S
O40 C39 1.160 . S
O41 Zn42 1.899 . S
O41 C49 1.284 . S
Zn42 O41 1.899 . S
Zn42 O43 2.032 . S
Zn42 O46 2.086 . S
Zn42 O51 1.977 . S
O43 Zn42 2.032 . S
O43 C47 1.278 1_554 S
C44 O45 1.203 . S
C44 O51 1.267 . S
O45 C44 1.203 . S
O46 C39 1.185 . S
O46 Zn42 2.086 . S
C47 O43 1.278 1_556 S
C47 O48 1.211 . S
O48 C47 1.211 . S
C49 O41 1.284 . S
C49 O50 1.273 . S
O50 C49 1.273 . S
O51 Zn42 1.977 . S
O51 C44 1.267 . S
C52 O53 1.160 . S
C52 O59 1.185 . S
O53 C52 1.160 . S
O54 Zn55 1.899 . S
O54 C62 1.284 . S
Zn55 O54 1.899 . S
Zn55 O56 2.032 . S
Zn55 O59 2.086 . S
Zn55 O64 1.977 . S
O56 Zn55 2.032 . S
O56 C60 1.278 . S
C57 O58 1.203 . S
C57 O64 1.267 . S
O58 C57 1.203 . S
O59 C52 1.185 . S
O59 Zn55 2.086 . S
C60 O56 1.278 . S
C60 O61 1.211 1_455 S
O61 C60 1.211 1_655 S
C62 O54 1.284 . S
C62 O63 1.273 1_455 S
O63 C62 1.273 1_655 S
O64 Zn55 1.977 . S
O64 C57 1.267 . S
C65 O66 1.160 . S
C65 O72 1.185 . S
O66 C65 1.160 . S
O67 Zn68 1.899 . S
O67 C75 1.284 . S
Zn68 O67 1.899 . S
Zn68 O69 2.032 . S
Zn68 O72 2.086 . S
Zn68 O77 1.977 . S
O69 Zn68 2.032 . S
O69 C73 1.278 . S
C70 O71 1.203 . S
C70 O77 1.267 . S
O71 C70 1.203 . S
O72 C65 1.185 . S
O72 Zn68 2.086 . S
C73 O69 1.278 . S
C73 O74 1.211 1_545 S
O74 C73 1.211 1_565 S
C75 O67 1.284 . S
C75 O76 1.273 1_545 S
O76 C75 1.273 1_565 S
O77 Zn68 1.977 . S
O77 C70 1.267 . S
C78 O79 1.160 . S
C78 O85 1.185 . S
O79 C78 1.160 . S
O80 Zn81 1.899 . S
O80 C88 1.284 . S
Zn81 O80 1.899 . S
Zn81 O82 2.032 . S
Zn81 O85 2.086 . S
Zn81 O90 1.977 . S
O82 Zn81 2.032 . S
O82 C86 1.278 . S
C83 O84 1.203 . S
C83 O90 1.267 . S
O84 C83 1.203 . S
O85 C78 1.185 . S
O85 Zn81 2.086 . S
C86 O82 1.278 . S
C86 O87 1.211 . S
O87 C86 1.211 . S
C88 O80 1.284 . S
C88 O89 1.273 . S
O89 C88 1.273 . S
O90 Zn81 1.977 . S
O90 C83 1.267 . S
C91 O92 1.160 . S
C91 O98 1.185 . S
O92 C91 1.160 . S
O93 Zn94 1.899 . S
O93 C101 1.284 . S
Zn94 O93 1.899 . S
Zn94 O95 2.032 . S
Zn94 O98 2.086 . S
Zn94 O103 1.977 . S
O95 Zn94 2.032 . S
O95 C99 1.278 1_556 S
C96 O97 1.203 . S
C96 O103 1.267 . S
O97 C96 1.203 . S
O98 C91 1.185 . S
O98 Zn94 2.086 . S
C99 O95 1.278 1_554 S
C99 O100 1.211 1_655 S
O100 C99 1.211 1_455 S
C101 O93 1.284 . S
C101 O102 1.273 1_655 S
O102 C101 1.273 1_455 S
O103 Zn94 1.977 . S
O103 C96 1.267 . S
C104 O105 1.160 . S
C104 O111 1.185 . S
O105 C104 1.160 . S
O106 Zn107 1.899 . S
O106 C114 1.284 . S
Zn107 O106 1.899 . S
Zn107 O108 2.032 . S
Zn107 O111 2.086 . S
Zn107 O116 1.977 . S
O108 Zn107 2.032 . S
O108 C112 1.278 . S
C109 O110 1.203 . S
C109 O116 1.267 . S
O110 C109 1.203 . S
O111 C104 1.185 . S
O111 Zn107 2.086 . S
C112 O108 1.278 . S
C112 O113 1.211 1_565 S
O113 C112 1.211 1_545 S
C114 O106 1.284 . S
C114 O115 1.273 1_565 S
O115 C114 1.273 1_545 S
O116 Zn107 1.977 . S
O116 C109 1.267 . S
C117 O118 1.160 . S
C117 O124 1.185 . S
O118 C117 1.160 . S
O119 Zn120 1.899 . S
O119 C127 1.284 . S
Zn120 O119 1.899 . S
Zn120 O121 2.032 . S
Zn120 O124 2.086 . S
Zn120 O129 1.977 . S
O121 Zn120 2.032 . S
O121 C125 1.278 . S
C122 O123 1.203 . S
C122 O129 1.267 . S
O123 C122 1.203 . S
O124 C117 1.185 . S
O124 Zn120 2.086 . S
C125 O121 1.278 . S
C125 O126 1.211 . S
O126 C125 1.211 . S
C127 O119 1.284 . S
C127 O128 1.273 . S
O128 C127 1.273 . S
O129 Zn120 1.977 . S
O129 C122 1.267 . S
C130 O131 1.160 . S
C130 O137 1.185 . S
O131 C130 1.160 . S
O132 Zn133 1.899 . S
O132 C140 1.284 . S
Zn133 O132 1.899 . S
Zn133 O134 2.032 . S
Zn133 O137 2.086 . S
Zn133 O142 1.977 . S
O134 Zn133 2.032 . S
O134 C138 1.278 1_556 S
C135 O136 1.203 . S
C135 O142 1.267 . S
O136 C135 1.203 . S
O137 C130 1.185 . S
O137 Zn133 2.086 . S
C138 O134 1.278 1_554 S
C138 O139 1.211 1_455 S
O139 C138 1.211 1_655 S
C140 O132 1.284 . S
C140 O141 1.273 1_455 S
O141 C140 1.273 1_655 S
O142 Zn133 1.977 . S
O142 C135 1.267 . S
C143 O144 1.160 . S
C143 O150 1.185 . S
O144 C143 1.160 . S
O145 Zn146 1.899 . S
O145 C153 1.284 . S
Zn146 O145 1.899 . S
Zn146 O147 2.032 . S
Zn146 O150 2.086 . S
Zn146 O155 1.977 . S
O147 Zn146 2.032 . S
O147 C151 1.278 . S
C148 O149 1.203 . S
C148 O155 1.267 . S
O149 C148 1.203 . S
O150 C143 1.185 . S
O150 Zn146 2.086 . S
C151 O147 1.278 . S
C151 O152 1.211 1_545 S
O152 C151 1.211 1_565 S
C153 O145 1.284 . S
C153 O154 1.273 1_545 S
O154 C153 1.273 1_565 S
O155 Zn146 1.977 . S
O155 C148 1.267 . S
H156 C164 0.950 . S
H157 C169 0.950 . S
H158 C166 0.950 . S
H159 C168 0.950 . S
H160 C170 0.950 . S
H161 C172 0.950 . S
H162 C174 0.950 . S
H163 C175 0.950 . S
C164 H156 0.950 . S
C164 C165 1.386 . S
C164 C166 1.391 . S
C165 C164 1.386 . S
C165 C169 1.393 . S
C166 H158 0.950 . S
C166 C164 1.391 . S
C166 C167 1.400 . S
C167 C166 1.400 . S
C167 C168 1.398 . S
C167 C173 1.491 . S
C168 H159 0.950 . S
C168 C167 1.398 . S
C168 C169 1.391 . S
C169 H157 0.950 . S
C169 C165 1.393 . S
C169 C168 1.391 . S
C170 H160 0.950 . S
C170 C171 1.386 . S
C170 C172 1.391 . S
C171 C170 1.386 . S
C171 C175 1.393 . S
C172 H161 0.950 . S
C172 C170 1.391 . S
C172 C173 1.400 . S
C173 C167 1.491 . S
C173 C172 1.400 . S
C173 C174 1.398 . S
C174 H162 0.950 . S
C174 C173 1.398 . S
C174 C175 1.391 . S
C175 H163 0.950 . S
C175 C171 1.393 . S
C175 C174 1.391 . S
H176 C184 0.950 . S
H177 C189 0.950 . S
H178 C186 0.950 . S
H179 C188 0.950 . S
H180 C190 0.950 . S
H181 C192 0.950 . S
H182 C194 0.950 . S
H183 C195 0.950 . S
C184 H176 0.950 . S
C184 C185 1.386 . S
C184 C186 1.391 . S
C185 C184 1.386 . S
C185 C189 1.393 1_655 S
C186 H178 0.950 . S
C186 C184 1.391 . S
C186 C187 1.400 . S
C187 C186 1.400 . S
C187 C188 1.398 1_655 S
C187 C193 1.491 1_655 S
C188 H179 0.950 . S
C188 C187 1.398 1_455 S
C188 C189 1.391 . S
C189 H177 0.950 . S
C189 C185 1.393 1_455 S
C189 C188 1.391 . S
C190 H180 0.950 . S
C190 C191 1.386 . S
C190 C192 1.391 . S
C191 C190 1.386 . S
C191 C195 1.393 1_455 S
C192 H181 0.950 . S
C192 C190 1.391 . S
C192 C193 1.400 . S
C193 C187 1.491 1_455 S
C193 C192 1.400 . S
C193 C194 1.398 1_455 S
C194 H182 0.950 . S
C194 C193 1.398 1_655 S
C194 C195 1.391 . S
C195 H183 0.950 . S
C195 C191 1.393 1_655 S
C195 C194 1.391 . S
H196 C204 0.950 . S
H197 C209 0.950 . S
H198 C206 0.950 . S
H199 C208 0.950 . S
H200 C210 0.950 . S
H201 C212 0.950 . S
H202 C214 0.950 . S
H203 C215 0.950 . S
C204 H196 0.950 . S
C204 C205 1.386 . S
C204 C206 1.391 . S
C205 C204 1.386 . S
C205 C209 1.393 1_565 S
C206 H198 0.950 . S
C206 C204 1.391 . S
C206 C207 1.400 . S
C207 C206 1.400 . S
C207 C208 1.398 1_565 S
C207 C213 1.491 1_566 S
C208 H199 0.950 . S
C208 C207 1.398 1_545 S
C208 C209 1.391 . S
C209 H197 0.950 . S
C209 C205 1.393 1_545 S
C209 C208 1.391 . S
C210 H200 0.950 . S
C210 C211 1.386 . S
C210 C212 1.391 . S
C211 C210 1.386 . S
C211 C215 1.393 1_545 S
C212 H201 0.950 . S
C212 C210 1.391 . S
C212 C213 1.400 . S
C213 C207 1.491 1_544 S
C213 C212 1.400 . S
C213 C214 1.398 1_545 S
C214 H202 0.950 . S
C214 C213 1.398 1_565 S
C214 C215 1.391 . S
C215 H203 0.950 . S
C215 C211 1.393 1_565 S
C215 C214 1.391 . S
H216 C224 0.950 . S
H217 C229 0.950 . S
H218 C226 0.950 . S
H219 C228 0.950 . S
H220 C230 0.950 . S
H221 C232 0.950 . S
H222 C234 0.950 . S
H223 C235 0.950 . S
C224 H216 0.950 . S
C224 C225 1.386 . S
C224 C226 1.391 . S
C225 C224 1.386 . S
C225 C229 1.393 . S
C226 H218 0.950 . S
C226 C224 1.391 . S
C226 C227 1.400 . S
C227 C226 1.400 . S
C227 C228 1.398 . S
C227 C233 1.491 . S
C228 H219 0.950 . S
C228 C227 1.398 . S
C228 C229 1.391 . S
C229 H217 0.950 . S
C229 C225 1.393 . S
C229 C228 1.391 . S
C230 H220 0.950 . S
C230 C231 1.386 . S
C230 C232 1.391 . S
C231 C230 1.386 . S
C231 C235 1.393 . S
C232 H221 0.950 . S
C232 C230 1.391 . S
C232 C233 1.400 . S
C233 C227 1.491 . S
C233 C232 1.400 . S
C233 C234 1.398 . S
C234 H222 0.950 . S
C234 C233 1.398 . S
C234 C235 1.391 . S
C235 H223 0.950 . S
C235 C231 1.393 . S
C235 C234 1.391 . S
H236 C244 0.950 . S
H237 C249 0.950 . S
H238 C246 0.950 . S
H239 C248 0.950 . S
H240 C250 0.950 . S
H241 C252 0.950 . S
H242 C254 0.950 . S
H243 C255 0.950 . S
C244 H236 0.950 . S
C244 C245 1.386 1_455 S
C244 C246 1.391 . S
C245 C244 1.386 1_655 S
C245 C249 1.393 . S
C246 H238 0.950 . S
C246 C244 1.391 . S
C246 C247 1.400 1_455 S
C247 C246 1.400 1_655 S
C247 C248 1.398 . S
C247 C253 1.491 1_655 S
C248 H239 0.950 . S
C248 C247 1.398 . S
C248 C249 1.391 . S
C249 H237 0.950 . S
C249 C245 1.393 . S
C249 C248 1.391 . S
C250 H240 0.950 . S
C250 C251 1.386 1_655 S
C250 C252 1.391 . S
C251 C250 1.386 1_455 S
C251 C255 1.393 . S
C252 H241 0.950 . S
C252 C250 1.391 . S
C252 C253 1.400 1_655 S
C253 C247 1.491 1_455 S
C253 C252 1.400 1_455 S
C253 C254 1.398 . S
C254 H242 0.950 . S
C254 C253 1.398 . S
C254 C255 1.391 . S
C255 H243 0.950 . S
C255 C251 1.393 . S
C255 C254 1.391 . S
H256 C264 0.950 . S
H257 C269 0.950 . S
H258 C266 0.950 . S
H259 C268 0.950 . S
H260 C270 0.950 . S
H261 C272 0.950 . S
H262 C274 0.950 . S
H263 C275 0.950 . S
C264 H256 0.950 . S
C264 C265 1.386 1_545 S
C264 C266 1.391 . S
C265 C264 1.386 1_565 S
C265 C269 1.393 . S
C266 H258 0.950 . S
C266 C264 1.391 . S
C266 C267 1.400 1_545 S
C267 C266 1.400 1_565 S
C267 C268 1.398 . S
C267 C273 1.491 1_564 S
C268 H259 0.950 . S
C268 C267 1.398 . S
C268 C269 1.391 . S
C269 H257 0.950 . S
C269 C265 1.393 . S
C269 C268 1.391 . S
C270 H260 0.950 . S
C270 C271 1.386 1_565 S
C270 C272 1.391 . S
C271 C270 1.386 1_545 S
C271 C275 1.393 . S
C272 H261 0.950 . S
C272 C270 1.391 . S
C272 C273 1.400 1_565 S
C273 C267 1.491 1_546 S
C273 C272 1.400 1_545 S
C273 C274 1.398 . S
C274 H262 0.950 . S
C274 C273 1.398 . S
C274 C275 1.391 . S
C275 H263 0.950 . S
C275 C271 1.393 . S
C275 C274 1.391 . S
H276 C284 0.950 . S
H277 C289 0.950 . S
H278 C286 0.950 . S
H279 C288 0.950 . S
H280 C290 0.950 . S
H281 C292 0.950 . S
H282 C294 0.950 . S
H283 C295 0.950 . S
C284 H276 0.950 . S
C284 C285 1.386 1_554 S
C284 C286 1.391 . S
C285 C284 1.386 1_556 S
C285 C289 1.393 . S
C286 H278 0.950 . S
C286 C284 1.391 . S
C286 C287 1.400 1_554 S
C287 C286 1.400 1_556 S
C287 C288 1.398 . S
C287 C293 1.491 1_556 S
C288 H279 0.950 . S
C288 C287 1.398 . S
C288 C289 1.391 . S
C289 H277 0.950 . S
C289 C285 1.393 . S
C289 C288 1.391 . S
C290 H280 0.950 . S
C290 C291 1.386 1_556 S
C290 C292 1.391 . S
C291 C290 1.386 1_554 S
C291 C295 1.393 . S
C292 H281 0.950 . S
C292 C290 1.391 . S
C292 C293 1.400 1_556 S
C293 C287 1.491 1_554 S
C293 C292 1.400 1_554 S
C293 C294 1.398 . S
C294 H282 0.950 . S
C294 C293 1.398 . S
C294 C295 1.391 . S
C295 H283 0.950 . S
C295 C291 1.393 . S
C295 C294 1.391 . S
H296 C304 0.950 . S
H297 C309 0.950 . S
H298 C306 0.950 . S
H299 C308 0.950 . S
H300 C310 0.950 . S
H301 C312 0.950 . S
H302 C314 0.950 . S
H303 C315 0.950 . S
C304 H296 0.950 . S
C304 C305 1.386 . S
C304 C306 1.391 . S
C305 C304 1.386 . S
C305 C309 1.393 . S
C306 H298 0.950 . S
C306 C304 1.391 . S
C306 C307 1.400 . S
C307 C306 1.400 . S
C307 C308 1.398 . S
C307 C313 1.491 . S
C308 H299 0.950 . S
C308 C307 1.398 . S
C308 C309 1.391 . S
C309 H297 0.950 . S
C309 C305 1.393 . S
C309 C308 1.391 . S
C310 H300 0.950 . S
C310 C311 1.386 . S
C310 C312 1.391 . S
C311 C310 1.386 . S
C311 C315 1.393 . S
C312 H301 0.950 . S
C312 C310 1.391 . S
C312 C313 1.400 . S
C313 C307 1.491 . S
C313 C312 1.400 . S
C313 C314 1.398 . S
C314 H302 0.950 . S
C314 C313 1.398 . S
C314 C315 1.391 . S
C315 H303 0.950 . S
C315 C311 1.393 . S
C315 C314 1.391 . S
H316 C324 0.950 . S
H317 C329 0.950 . S
H318 C326 0.950 . S
H319 C328 0.950 . S
H320 C330 0.950 . S
H321 C332 0.950 . S
H322 C334 0.950 . S
H323 C335 0.950 . S
C324 H316 0.950 . S
C324 C325 1.386 . S
C324 C326 1.391 . S
C325 C324 1.386 . S
C325 C329 1.393 . S
C326 H318 0.950 . S
C326 C324 1.391 . S
C326 C327 1.400 . S
C327 C326 1.400 . S
C327 C328 1.398 . S
C327 C333 1.491 . S
C328 H319 0.950 . S
C328 C327 1.398 . S
C328 C329 1.391 . S
C329 H317 0.950 . S
C329 C325 1.393 . S
C329 C328 1.391 . S
C330 H320 0.950 . S
C330 C331 1.386 . S
C330 C332 1.391 . S
C331 C330 1.386 . S
C331 C335 1.393 . S
C332 H321 0.950 . S
C332 C330 1.391 . S
C332 C333 1.400 . S
C333 C327 1.491 . S
C333 C332 1.400 . S
C333 C334 1.398 . S
C334 H322 0.950 . S
C334 C333 1.398 . S
C334 C335 1.391 . S
C335 H323 0.950 . S
C335 C331 1.393 . S
C335 C334 1.391 . S
H336 C344 0.950 . S
H337 C349 0.950 . S
H338 C346 0.950 . S
H339 C348 0.950 . S
H340 C350 0.950 . S
H341 C352 0.950 . S
H342 C354 0.950 . S
H343 C355 0.950 . S
C344 H336 0.950 . S
C344 C345 1.386 1_556 S
C344 C346 1.391 . S
C345 C344 1.386 1_554 S
C345 C349 1.393 . S
C346 H338 0.950 . S
C346 C344 1.391 . S
C346 C347 1.400 1_556 S
C347 C346 1.400 1_554 S
C347 C348 1.398 . S
C347 C353 1.491 1_554 S
C348 H339 0.950 . S
C348 C347 1.398 . S
C348 C349 1.391 . S
C349 H337 0.950 . S
C349 C345 1.393 . S
C349 C348 1.391 . S
C350 H340 0.950 . S
C350 C351 1.386 1_554 S
C350 C352 1.391 . S
C351 C350 1.386 1_556 S
C351 C355 1.393 . S
C352 H341 0.950 . S
C352 C350 1.391 . S
C352 C353 1.400 1_554 S
C353 C347 1.491 1_556 S
C353 C352 1.400 1_556 S
C353 C354 1.398 . S
C354 H342 0.950 . S
C354 C353 1.398 . S
C354 C355 1.391 . S
C355 H343 0.950 . S
C355 C351 1.393 . S
C355 C354 1.391 . S
H356 C364 0.950 . S
H357 C369 0.950 . S
H358 C366 0.950 . S
H359 C368 0.950 . S
H360 C370 0.950 . S
H361 C372 0.950 . S
H362 C374 0.950 . S
H363 C375 0.950 . S
C364 H356 0.950 . S
C364 C365 1.386 . S
C364 C366 1.391 . S
C365 C364 1.386 . S
C365 C369 1.393 . S
C366 H358 0.950 . S
C366 C364 1.391 . S
C366 C367 1.400 . S
C367 C366 1.400 . S
C367 C368 1.398 . S
C367 C373 1.491 . S
C368 H359 0.950 . S
C368 C367 1.398 . S
C368 C369 1.391 . S
C369 H357 0.950 . S
C369 C365 1.393 . S
C369 C368 1.391 . S
C370 H360 0.950 . S
C370 C371 1.386 . S
C370 C372 1.391 . S
C371 C370 1.386 . S
C371 C375 1.393 . S
C372 H361 0.950 . S
C372 C370 1.391 . S
C372 C373 1.400 . S
C373 C367 1.491 . S
C373 C372 1.400 . S
C373 C374 1.398 . S
C374 H362 0.950 . S
C374 C373 1.398 . S
C374 C375 1.391 . S
C375 H363 0.950 . S
C375 C371 1.393 . S
C375 C374 1.391 . S
H376 C384 0.950 . S
H377 C389 0.950 . S
H378 C386 0.950 . S
H379 C388 0.950 . S
H380 C390 0.950 . S
H381 C392 0.950 . S
H382 C394 0.950 . S
H383 C395 0.950 . S
C384 H376 0.950 . S
C384 C385 1.386 . S
C384 C386 1.391 . S
C385 C384 1.386 . S
C385 C389 1.393 . S
C386 H378 0.950 . S
C386 C384 1.391 . S
C386 C387 1.400 . S
C387 C386 1.400 . S
C387 C388 1.398 . S
C387 C393 1.491 . S
C388 H379 0.950 . S
C388 C387 1.398 . S
C388 C389 1.391 . S
C389 H377 0.950 . S
C389 C385 1.393 . S
C389 C388 1.391 . S
C390 H380 0.950 . S
C390 C391 1.386 . S
C390 C392 1.391 . S
C391 C390 1.386 . S
C391 C395 1.393 . S
C392 H381 0.950 . S
C392 C390 1.391 . S
C392 C393 1.400 . S
C393 C387 1.491 . S
C393 C392 1.400 . S
C393 C394 1.398 . S
C394 H382 0.950 . S
C394 C393 1.398 . S
C394 C395 1.391 . S
C395 H383 0.950 . S
C395 C391 1.393 . S
C395 C394 1.391 . S
H396 C404 0.950 . S
H397 C409 0.950 . S
H398 C406 0.950 . S
H399 C408 0.950 . S
H400 C410 0.950 . S
H401 C412 0.950 . S
H402 C414 0.950 . S
H403 C415 0.950 . S
C404 H396 0.950 . S
C404 C405 1.386 . S
C404 C406 1.391 . S
C405 C404 1.386 . S
C405 C409 1.393 . S
C406 H398 0.950 . S
C406 C404 1.391 . S
C406 C407 1.400 . S
C407 C406 1.400 . S
C407 C408 1.398 . S
C407 C413 1.491 . S
C408 H399 0.950 . S
C408 C407 1.398 . S
C408 C409 1.391 . S
C409 H397 0.950 . S
C409 C405 1.393 . S
C409 C408 1.391 . S
C410 H400 0.950 . S
C410 C411 1.386 . S
C410 C412 1.391 . S
C411 C410 1.386 . S
C411 C415 1.393 . S
C412 H401 0.950 . S
C412 C410 1.391 . S
C412 C413 1.400 . S
C413 C407 1.491 . S
C413 C412 1.400 . S
C413 C414 1.398 . S
C414 H402 0.950 . S
C414 C413 1.398 . S
C414 C415 1.391 . S
C415 H403 0.950 . S
C415 C411 1.393 . S
C415 C414 1.391 . S
H416 C424 0.950 . S
H417 C429 0.950 . S
H418 C426 0.950 . S
H419 C428 0.950 . S
H420 C430 0.950 . S
H421 C432 0.950 . S
H422 C434 0.950 . S
H423 C435 0.950 . S
C424 H416 0.950 . S
C424 C425 1.386 . S
C424 C426 1.391 . S
C425 C424 1.386 . S
C425 C429 1.393 1_655 S
C426 H418 0.950 . S
C426 C424 1.391 . S
C426 C427 1.400 . S
C427 C426 1.400 . S
C427 C428 1.398 1_655 S
C427 C433 1.491 1_655 S
C428 H419 0.950 . S
C428 C427 1.398 1_455 S
C428 C429 1.391 . S
C429 H417 0.950 . S
C429 C425 1.393 1_455 S
C429 C428 1.391 . S
C430 H420 0.950 . S
C430 C431 1.386 . S
C430 C432 1.391 . S
C431 C430 1.386 . S
C431 C435 1.393 1_455 S
C432 H421 0.950 . S
C432 C430 1.391 . S
C432 C433 1.400 . S
C433 C427 1.491 1_455 S
C433 C432 1.400 . S
C433 C434 1.398 1_455 S
C434 H422 0.950 . S
C434 C433 1.398 1_655 S
C434 C435 1.391 . S
C435 H423 0.950 . S
C435 C431 1.393 1_655 S
C435 C434 1.391 . S
H436 C444 0.950 . S
H437 C449 0.950 . S
H438 C446 0.950 . S
H439 C448 0.950 . S
H440 C450 0.950 . S
H441 C452 0.950 . S
H442 C454 0.950 . S
H443 C455 0.950 . S
C444 H436 0.950 . S
C444 C445 1.386 1_545 S
C444 C446 1.391 . S
C445 C444 1.386 1_565 S
C445 C449 1.393 . S
C446 H438 0.950 . S
C446 C444 1.391 . S
C446 C447 1.400 1_545 S
C447 C446 1.400 1_565 S
C447 C448 1.398 . S
C447 C453 1.491 1_565 S
C448 H439 0.950 . S
C448 C447 1.398 . S
C448 C449 1.391 . S
C449 H437 0.950 . S
C449 C445 1.393 . S
C449 C448 1.391 . S
C450 H440 0.950 . S
C450 C451 1.386 1_565 S
C450 C452 1.391 . S
C451 C450 1.386 1_545 S
C451 C455 1.393 . S
C452 H441 0.950 . S
C452 C450 1.391 . S
C452 C453 1.400 1_565 S
C453 C447 1.491 1_545 S
C453 C452 1.400 1_545 S
C453 C454 1.398 . S
C454 H442 0.950 . S
C454 C453 1.398 . S
C454 C455 1.391 . S
C455 H443 0.950 . S
C455 C451 1.393 . S
C455 C454 1.391 . S
H456 C464 0.950 . S
H457 C469 0.950 . S
H458 C466 0.950 . S
H459 C468 0.950 . S
H460 C470 0.950 . S
H461 C472 0.950 . S
H462 C474 0.950 . S
H463 C475 0.950 . S
C464 H456 0.950 . S
C464 C465 1.386 . S
C464 C466 1.391 . S
C465 C464 1.386 . S
C465 C469 1.393 . S
C466 H458 0.950 . S
C466 C464 1.391 . S
C466 C467 1.400 . S
C467 C466 1.400 . S
C467 C468 1.398 . S
C467 C473 1.491 . S
C468 H459 0.950 . S
C468 C467 1.398 . S
C468 C469 1.391 . S
C469 H457 0.950 . S
C469 C465 1.393 . S
C469 C468 1.391 . S
C470 H460 0.950 . S
C470 C471 1.386 . S
C470 C472 1.391 . S
C471 C470 1.386 . S
C471 C475 1.393 . S
C472 H461 0.950 . S
C472 C470 1.391 . S
C472 C473 1.400 . S
C473 C467 1.491 . S
C473 C472 1.400 . S
C473 C474 1.398 . S
C474 H462 0.950 . S
C474 C473 1.398 . S
C474 C475 1.391 . S
C475 H463 0.950 . S
C475 C471 1.393 . S
C475 C474 1.391 . S
H476 C484 0.950 . S
H477 C489 0.950 . S
H478 C486 0.950 . S
H479 C488 0.938 1_655 S
H480 C490 0.950 . S
H481 C492 0.950 . S
H482 C494 0.938 1_455 S
H483 C495 0.950 . S
C484 H476 0.950 . S
C484 C485 1.386 . S
C484 C486 1.391 . S
C485 C484 1.386 . S
C485 C489 1.393 . S
C486 H478 0.950 . S
C486 C484 1.391 . S
C486 C487 1.417 . S
C487 C486 1.417 . S
C487 C488 1.393 . S
C487 C493 1.489 1_455 S
C488 H479 0.938 1_455 S
C488 C487 1.393 . S
C488 C489 1.393 . S
C489 H477 0.950 . S
C489 C485 1.393 . S
C489 C488 1.393 . S
C490 H480 0.950 . S
C490 C491 1.386 . S
C490 C492 1.391 . S
C491 C490 1.386 . S
C491 C495 1.393 . S
C492 H481 0.950 . S
C492 C490 1.391 . S
C492 C493 1.417 . S
C493 C487 1.489 1_655 S
C493 C492 1.417 . S
C493 C494 1.393 . S
C494 H482 0.938 1_655 S
C494 C493 1.393 . S
C494 C495 1.393 . S
C495 H483 0.950 . S
C495 C491 1.393 . S
C495 C494 1.393 . S
H496 C504 0.950 . S
H497 C509 0.950 . S
H498 C506 0.950 . S
H499 C508 0.950 . S
H500 C510 0.950 . S
H501 C512 0.950 . S
H502 C514 0.950 . S
H503 C515 0.950 . S
C504 H496 0.950 . S
C504 C505 1.386 1_545 S
C504 C506 1.391 . S
C505 C504 1.386 1_565 S
C505 C509 1.393 . S
C506 H498 0.950 . S
C506 C504 1.391 . S
C506 C507 1.400 1_545 S
C507 C506 1.400 1_565 S
C507 C508 1.398 . S
C507 C513 1.491 1_565 S
C508 H499 0.950 . S
C508 C507 1.398 . S
C508 C509 1.391 . S
C509 H497 0.950 . S
C509 C505 1.393 . S
C509 C508 1.391 . S
C510 H500 0.950 . S
C510 C511 1.386 1_565 S
C510 C512 1.391 . S
C511 C510 1.386 1_545 S
C511 C515 1.393 . S
C512 H501 0.950 . S
C512 C510 1.391 . S
C512 C513 1.400 1_565 S
C513 C507 1.491 1_545 S
C513 C512 1.400 1_545 S
C513 C514 1.398 . S
C514 H502 0.950 . S
C514 C513 1.398 . S
C514 C515 1.391 . S
C515 H503 0.950 . S
C515 C511 1.393 . S
C515 C514 1.391 . S
H516 C524 0.950 . S
H517 C529 0.950 . S
H518 C526 0.950 . S
H519 C528 0.950 . S
H520 C530 0.950 . S
H521 C532 0.950 . S
H522 C534 0.950 . S
H523 C535 0.950 . S
C524 H516 0.950 . S
C524 C525 1.386 . S
C524 C526 1.391 . S
C525 C524 1.386 . S
C525 C529 1.393 . S
C526 H518 0.950 . S
C526 C524 1.391 . S
C526 C527 1.400 . S
C527 C526 1.400 . S
C527 C528 1.398 . S
C527 C533 1.491 . S
C528 H519 0.950 . S
C528 C527 1.398 . S
C528 C529 1.391 . S
C529 H517 0.950 . S
C529 C525 1.393 . S
C529 C528 1.391 . S
C530 H520 0.950 . S
C530 C531 1.386 . S
C530 C532 1.391 . S
C531 C530 1.386 . S
C531 C535 1.393 . S
C532 H521 0.950 . S
C532 C530 1.391 . S
C532 C533 1.400 . S
C533 C527 1.491 . S
C533 C532 1.400 . S
C533 C534 1.398 . S
C534 H522 0.950 . S
C534 C533 1.398 . S
C534 C535 1.391 . S
C535 H523 0.950 . S
C535 C531 1.393 . S
C535 C534 1.391 . S
H536 C544 0.950 1_655 S
H537 C549 0.950 . S
H538 C546 0.950 . S
H539 C548 0.950 . S
H540 C550 0.950 1_455 S
H541 C552 0.950 . S
H542 C554 0.950 . S
H543 C555 0.950 . S
C544 H536 0.950 1_455 S
C544 C545 1.386 . S
C544 C546 1.391 1_455 S
C545 C544 1.386 . S
C545 C549 1.393 . S
C546 H538 0.950 . S
C546 C544 1.391 1_655 S
C546 C547 1.400 1_655 S
C547 C546 1.400 1_455 S
C547 C548 1.398 . S
C547 C553 1.491 1_455 S
C548 H539 0.950 . S
C548 C547 1.398 . S
C548 C549 1.391 . S
C549 H537 0.950 . S
C549 C545 1.393 . S
C549 C548 1.391 . S
C550 H540 0.950 1_655 S
C550 C551 1.386 . S
C550 C552 1.391 1_655 S
C551 C550 1.386 . S
C551 C555 1.393 . S
C552 H541 0.950 . S
C552 C550 1.391 1_455 S
C552 C553 1.400 1_455 S
C553 C547 1.491 1_655 S
C553 C552 1.400 1_655 S
C553 C554 1.398 . S
C554 H542 0.950 . S
C554 C553 1.398 . S
C554 C555 1.391 . S
C555 H543 0.950 . S
C555 C551 1.393 . S
C555 C554 1.391 . S
H556 C564 0.950 . S
H557 C569 0.950 . S
H558 C566 0.950 . S
H559 C568 0.950 . S
H560 C570 0.950 . S
H561 C572 0.950 . S
H562 C574 0.950 . S
H563 C575 0.950 . S
C564 H556 0.950 . S
C564 C565 1.386 . S
C564 C566 1.391 . S
C565 C564 1.386 . S
C565 C569 1.393 . S
C566 H558 0.950 . S
C566 C564 1.391 . S
C566 C567 1.400 . S
C567 C566 1.400 . S
C567 C568 1.398 . S
C567 C573 1.491 1_565 S
C568 H559 0.950 . S
C568 C567 1.398 . S
C568 C569 1.391 . S
C569 H557 0.950 . S
C569 C565 1.393 . S
C569 C568 1.391 . S
C570 H560 0.950 . S
C570 C571 1.386 . S
C570 C572 1.391 . S
C571 C570 1.386 . S
C571 C575 1.393 . S
C572 H561 0.950 . S
C572 C570 1.391 . S
C572 C573 1.400 . S
C573 C567 1.491 1_545 S
C573 C572 1.400 . S
C573 C574 1.398 . S
C574 H562 0.950 . S
C574 C573 1.398 . S
C574 C575 1.391 . S
C575 H563 0.950 . S
C575 C571 1.393 . S
C575 C574 1.391 . S
H576 C584 0.950 . S
H577 C589 0.950 . S
H578 C586 0.950 . S
H579 C588 0.950 . S
H580 C590 0.950 . S
H581 C592 0.950 . S
H582 C594 0.950 . S
H583 C595 0.950 . S
C584 H576 0.950 . S
C584 C585 1.386 . S
C584 C586 1.391 . S
C585 C584 1.386 . S
C585 C589 1.393 . S
C586 H578 0.950 . S
C586 C584 1.391 . S
C586 C587 1.400 . S
C587 C586 1.400 . S
C587 C588 1.398 . S
C587 C593 1.491 . S
C588 H579 0.950 . S
C588 C587 1.398 . S
C588 C589 1.391 . S
C589 H577 0.950 . S
C589 C585 1.393 . S
C589 C588 1.391 . S
C590 H580 0.950 . S
C590 C591 1.386 . S
C590 C592 1.391 . S
C591 C590 1.386 . S
C591 C595 1.393 . S
C592 H581 0.950 . S
C592 C590 1.391 . S
C592 C593 1.400 . S
C593 C587 1.491 . S
C593 C592 1.400 . S
C593 C594 1.398 . S
C594 H582 0.950 . S
C594 C593 1.398 . S
C594 C595 1.391 . S
C595 H583 0.950 . S
C595 C591 1.393 . S
C595 C594 1.391 . S
H596 C604 0.950 1_455 S
H597 C609 0.950 . S
H598 C606 0.950 . S
H599 C608 0.950 . S
H600 C610 0.950 1_655 S
H601 C612 0.950 . S
H602 C614 0.950 . S
H603 C615 0.950 . S
C604 H596 0.950 1_655 S
C604 C605 1.386 . S
C604 C606 1.391 1_655 S
C605 C604 1.386 . S
C605 C609 1.393 . S
C606 H598 0.950 . S
C606 C604 1.391 1_455 S
C606 C607 1.400 1_455 S
C607 C606 1.400 1_655 S
C607 C608 1.398 . S
C607 C613 1.491 1_655 S
C608 H599 0.950 . S
C608 C607 1.398 . S
C608 C609 1.391 . S
C609 H597 0.950 . S
C609 C605 1.393 . S
C609 C608 1.391 . S
C610 H600 0.950 1_455 S
C610 C611 1.386 . S
C610 C612 1.391 1_455 S
C611 C610 1.386 . S
C611 C615 1.393 . S
C612 H601 0.950 . S
C612 C610 1.391 1_655 S
C612 C613 1.400 1_655 S
C613 C607 1.491 1_455 S
C613 C612 1.400 1_455 S
C613 C614 1.398 . S
C614 H602 0.950 . S
C614 C613 1.398 . S
C614 C615 1.391 . S
C615 H603 0.950 . S
C615 C611 1.393 . S
C615 C614 1.391 . S
H616 C624 0.950 . S
H617 C629 0.950 . S
H618 C626 0.950 . S
H619 C628 0.950 . S
H620 C630 0.950 . S
H621 C632 0.950 . S
H622 C634 0.950 . S
H623 C635 0.950 . S
C624 H616 0.950 . S
C624 C625 1.386 . S
C624 C626 1.391 . S
C625 C624 1.386 . S
C625 C629 1.393 . S
C626 H618 0.950 . S
C626 C624 1.391 . S
C626 C627 1.400 . S
C627 C626 1.400 . S
C627 C628 1.398 . S
C627 C633 1.491 1_545 S
C628 H619 0.950 . S
C628 C627 1.398 . S
C628 C629 1.391 . S
C629 H617 0.950 . S
C629 C625 1.393 . S
C629 C628 1.391 . S
C630 H620 0.950 . S
C630 C631 1.386 . S
C630 C632 1.391 . S
C631 C630 1.386 . S
C631 C635 1.393 . S
C632 H621 0.950 . S
C632 C630 1.391 . S
C632 C633 1.400 . S
C633 C627 1.491 1_565 S
C633 C632 1.400 . S
C633 C634 1.398 . S
C634 H622 0.950 . S
C634 C633 1.398 . S
C634 C635 1.391 . S
C635 H623 0.950 . S
C635 C631 1.393 . S
C635 C634 1.391 . S
C165 C10 1.343 . S
C171 C127 1.334 . S
C185 C23 1.344 . S
C191 C140 1.338 . S
C205 C36 1.342 . S
C211 C153 1.334 . S
C225 C49 1.335 . S
C231 C88 1.340 . S
C245 C101 1.335 . S
C251 C62 1.341 . S
C265 C114 1.337 . S
C271 C75 1.344 . S
C285 C130 1.346 . S
C291 C0 1.359 . S
C305 C13 1.353 . S
C311 C143 1.361 . S
C325 C26 1.350 . S
C331 C78 1.362 . S
C345 C39 1.346 . S
C351 C91 1.358 . S
C365 C52 1.346 . S
C371 C104 1.359 . S
C385 C65 1.360 . S
C391 C117 1.354 . S
C405 C125 0.721 . S
C411 C8 0.710 . S
C425 C21 0.667 . S
C431 C138 0.708 . S
C445 C34 0.717 . S
C451 C151 0.663 . S
C465 C86 0.729 . S
C471 C47 0.663 . S
C485 C60 0.719 . S
C491 C99 0.712 . S
C505 C112 0.729 . S
C511 C73 0.664 . S
C525 C5 1.359 . S
C531 C44 1.367 . S
C545 C57 1.356 . S
C551 C18 1.347 . S
C565 C31 1.372 . S
C571 C70 1.373 . S
C585 C83 1.362 . S
C591 C122 1.369 . S
C605 C96 1.366 . S
C611 C135 1.358 . S
C625 C148 1.372 . S
C631 C109 1.373 . S
