# Generated by pormake.
# Topology wiv, (6)-cn, num edge types: 1
# Building blocks:
#     Node 0, Type 0, BuildingBlock: NUHQIS_clean_sbu_0, # of connection points: 6
#     Node 1, Type 0, BuildingBlock: NUHQIS_clean_sbu_0, # of connection points: 6
#     Node 2, Type 0, BuildingBlock: NUHQIS_clean_sbu_0, # of connection points: 6
#     Node 3, Type 0, BuildingBlock: NUHQIS_clean_sbu_0, # of connection points: 6
#     Node 4, Type 0, BuildingBlock: NUHQIS_clean_sbu_0, # of connection points: 6
#     Node 5, Type 0, BuildingBlock: NUHQIS_clean_sbu_0, # of connection points: 6
#     Node 6, Type 0, BuildingBlock: NUHQIS_clean_sbu_0, # of connection points: 6
#     Node 7, Type 0, BuildingBlock: NUHQIS_clean_sbu_0, # of connection points: 6
#     Node 8, Type 0, BuildingBlock: NUHQIS_clean_sbu_0, # of connection points: 6
#     Node 9, Type 0, BuildingBlock: NUHQIS_clean_sbu_0, # of connection points: 6
#     Node 10, Type 0, BuildingBlock: NUHQIS_clean_sbu_0, # of connection points: 6
#     Node 11, Type 0, BuildingBlock: NUHQIS_clean_sbu_0, # of connection points: 6
#     Node 12, Type 0, BuildingBlock: NUHQIS_clean_sbu_0, # of connection points: 6
#     Node 13, Type 0, BuildingBlock: NUHQIS_clean_sbu_0, # of connection points: 6
#     Node 14, Type 0, BuildingBlock: NUHQIS_clean_sbu_0, # of connection points: 6
#     Node 15, Type 0, BuildingBlock: NUHQIS_clean_sbu_0, # of connection points: 6
#     Edge 16, Type (0, 0), BuildingBlock: AJUNOK_clean_linker_0, # of connection points: 2
#     Edge 17, Type (0, 0), BuildingBlock: AJUNOK_clean_linker_0, # of connection points: 2
#     Edge 18, Type (0, 0), BuildingBlock: AJUNOK_clean_linker_0, # of connection points: 2
#     Edge 19, Type (0, 0), BuildingBlock: AJUNOK_clean_linker_0, # of connection points: 2
#     Edge 20, Type (0, 0), BuildingBlock: AJUNOK_clean_linker_0, # of connection points: 2
#     Edge 21, Type (0, 0), BuildingBlock: AJUNOK_clean_linker_0, # of connection points: 2
#     Edge 22, Type (0, 0), BuildingBlock: AJUNOK_clean_linker_0, # of connection points: 2
#     Edge 23, Type (0, 0), BuildingBlock: AJUNOK_clean_linker_0, # of connection points: 2
#     Edge 24, Type (0, 0), BuildingBlock: AJUNOK_clean_linker_0, # of connection points: 2
#     Edge 25, Type (0, 0), BuildingBlock: AJUNOK_clean_linker_0, # of connection points: 2
#     Edge 26, Type (0, 0), BuildingBlock: AJUNOK_clean_linker_0, # of connection points: 2
#     Edge 27, Type (0, 0), BuildingBlock: AJUNOK_clean_linker_0, # of connection points: 2
#     Edge 28, Type (0, 0), BuildingBlock: AJUNOK_clean_linker_0, # of connection points: 2
#     Edge 29, Type (0, 0), BuildingBlock: AJUNOK_clean_linker_0, # of connection points: 2
#     Edge 30, Type (0, 0), BuildingBlock: AJUNOK_clean_linker_0, # of connection points: 2
#     Edge 31, Type (0, 0), BuildingBlock: AJUNOK_clean_linker_0, # of connection points: 2
#     Edge 32, Type (0, 0), BuildingBlock: AJUNOK_clean_linker_0, # of connection points: 2
#     Edge 33, Type (0, 0), BuildingBlock: AJUNOK_clean_linker_0, # of connection points: 2
#     Edge 34, Type (0, 0), BuildingBlock: AJUNOK_clean_linker_0, # of connection points: 2
#     Edge 35, Type (0, 0), BuildingBlock: AJUNOK_clean_linker_0, # of connection points: 2
#     Edge 36, Type (0, 0), BuildingBlock: AJUNOK_clean_linker_0, # of connection points: 2
#     Edge 37, Type (0, 0), BuildingBlock: AJUNOK_clean_linker_0, # of connection points: 2
#     Edge 38, Type (0, 0), BuildingBlock: AJUNOK_clean_linker_0, # of connection points: 2
#     Edge 39, Type (0, 0), BuildingBlock: AJUNOK_clean_linker_0, # of connection points: 2
#     Edge 40, Type (0, 0), BuildingBlock: AJUNOK_clean_linker_0, # of connection points: 2
#     Edge 41, Type (0, 0), BuildingBlock: AJUNOK_clean_linker_0, # of connection points: 2
#     Edge 42, Type (0, 0), BuildingBlock: AJUNOK_clean_linker_0, # of connection points: 2
#     Edge 43, Type (0, 0), BuildingBlock: AJUNOK_clean_linker_0, # of connection points: 2
#     Edge 44, Type (0, 0), BuildingBlock: AJUNOK_clean_linker_0, # of connection points: 2
#     Edge 45, Type (0, 0), BuildingBlock: AJUNOK_clean_linker_0, # of connection points: 2
#     Edge 46, Type (0, 0), BuildingBlock: AJUNOK_clean_linker_0, # of connection points: 2
#     Edge 47, Type (0, 0), BuildingBlock: AJUNOK_clean_linker_0, # of connection points: 2
#     Edge 48, Type (0, 0), BuildingBlock: AJUNOK_clean_linker_0, # of connection points: 2
#     Edge 49, Type (0, 0), BuildingBlock: AJUNOK_clean_linker_0, # of connection points: 2
#     Edge 50, Type (0, 0), BuildingBlock: AJUNOK_clean_linker_0, # of connection points: 2
#     Edge 51, Type (0, 0), BuildingBlock: AJUNOK_clean_linker_0, # of connection points: 2
#     Edge 52, Type (0, 0), BuildingBlock: AJUNOK_clean_linker_0, # of connection points: 2
#     Edge 53, Type (0, 0), BuildingBlock: AJUNOK_clean_linker_0, # of connection points: 2
#     Edge 54, Type (0, 0), BuildingBlock: AJUNOK_clean_linker_0, # of connection points: 2
#     Edge 55, Type (0, 0), BuildingBlock: AJUNOK_clean_linker_0, # of connection points: 2
#     Edge 56, Type (0, 0), BuildingBlock: AJUNOK_clean_linker_0, # of connection points: 2
#     Edge 57, Type (0, 0), BuildingBlock: AJUNOK_clean_linker_0, # of connection points: 2
#     Edge 58, Type (0, 0), BuildingBlock: AJUNOK_clean_linker_0, # of connection points: 2
#     Edge 59, Type (0, 0), BuildingBlock: AJUNOK_clean_linker_0, # of connection points: 2
#     Edge 60, Type (0, 0), BuildingBlock: AJUNOK_clean_linker_0, # of connection points: 2
#     Edge 61, Type (0, 0), BuildingBlock: AJUNOK_clean_linker_0, # of connection points: 2
#     Edge 62, Type (0, 0), BuildingBlock: AJUNOK_clean_linker_0, # of connection points: 2
#     Edge 63, Type (0, 0), BuildingBlock: AJUNOK_clean_linker_0, # of connection points: 2
# Relax obj value: 0.170
# Max RMSD: 0.221
# Mean RMSD: 0.221
data_MOF--net-wiv--node1-NUHQIS_clean_sbu_0--edge1-AJUNOK_clean_linker_0
_symmetry_space_group_name_H-M    P1
_symmetry_Int_Tables_number       1
_symmetry_cell_setting            triclinic
loop_
_symmetry_equiv_pos_as_xyz
'x, y, z'
_cell_length_a     35.609956
_cell_length_b     35.692383
_cell_length_c     20.102091
_cell_angle_alpha  89.823193
_cell_angle_beta   89.765682
_cell_angle_gamma 90.099568
loop_
_atom_site_label
_atom_site_type_symbol
_atom_site_fract_x
_atom_site_fract_y
_atom_site_fract_z
_atom_type_partial_charge
Tb0 Tb 0.31961 0.08828 0.20116 0.0
Eu1 Eu 0.38379 0.08994 0.08381 0.0
C2 C 0.35277 0.16441 0.15357 0.0
C3 C 0.29738 0.08292 1.05018 0.0
C4 C 0.28721 0.08234 0.37213 0.0
C5 C 0.30024 0.11501 0.47609 0.0
C6 C 0.28671 0.11516 0.41063 0.0
C7 C 0.30116 0.04927 0.40121 0.0
C8 C 0.3155 0.04932 0.46586 0.0
C9 C 0.31516 0.08213 0.50453 0.0
C10 C 0.27655 0.08325 0.3005 0.0
O11 O 0.33369 0.0317 0.16992 0.0
O12 O 0.39547 0.03886 0.14684 0.0
O13 O 0.41657 0.10567 0.17595 0.0
O14 O 0.37321 0.08589 0.25522 0.0
C15 C 0.36815 0.0189 0.17284 0.0
O16 O 0.41466 0.0589 1.00757 0.0
O17 O 0.41712 0.11942 1.00827 0.0
O18 O 0.36013 0.14873 0.09568 0.0
O19 O 0.34322 0.14394 0.2049 0.0
O20 O 0.2888 0.09942 0.10709 0.0
O21 O 0.32999 0.06672 1.04394 0.0
C22 C 0.407 0.09811 0.23822 0.0
O23 O 0.28249 0.11457 0.26856 0.0
O24 O 0.2869 0.05464 0.26491 0.0
C25 C 0.41062 0.08915 0.90276 0.0
C26 C 0.38149 0.08565 0.77147 0.0
C27 C 0.40285 0.05594 0.79757 0.0
C28 C 0.41728 0.05772 0.86236 0.0
C29 C 0.3898 0.11914 0.87617 0.0
C30 C 0.37559 0.11744 0.81131 0.0
C31 C 0.42289 0.08903 0.9736 0.0
H32 H 0.29905 0.14074 0.5044 0.0
H33 H 0.2761 0.14112 0.38998 0.0
H34 H 0.30202 0.02337 0.3735 0.0
H35 H 0.32784 0.02371 0.48458 0.0
H36 H 0.40842 0.03129 0.76786 0.0
H37 H 0.43311 0.03414 0.88139 0.0
H38 H 0.38376 0.14369 0.90585 0.0
H39 H 0.35912 0.14072 0.79282 0.0
Tb40 Tb 0.09889 0.61749 1.01236 0.0
Eu41 Eu 0.0923 0.68168 0.89456 0.0
C42 C 0.02445 0.63524 0.93698 0.0
C43 C 0.10536 0.59232 0.86222 0.0
C44 C 0.09813 0.59021 0.18808 0.0
C45 C 0.06245 0.61205 0.2846 0.0
C46 C 0.06361 0.59751 0.21994 0.0
C47 C 0.13145 0.597 0.2236 0.0
C48 C 0.13026 0.61147 0.28847 0.0
C49 C 0.09574 0.61931 0.3198 0.0
C50 C 0.09922 0.57817 0.11692 0.0
O51 O 0.15576 0.64081 0.99785 0.0
O52 O 0.15103 0.66061 0.88987 0.0
O53 O 0.10285 0.7148 0.99055 0.0
O54 O 0.08182 0.66888 0.06167 0.0
C55 C 0.17143 0.65004 0.94037 0.0
O56 O 0.11329 0.72449 0.82534 0.0
O57 O 0.05538 0.70646 0.82014 0.0
O58 O 0.03692 0.66944 0.94209 0.0
O59 O 0.047 0.60803 0.95535 0.0
O60 O 0.1147 0.58494 0.92448 0.0
O61 O 0.09107 0.62477 0.84361 0.0
C62 C 0.09327 0.7033 1.05106 0.0
O63 O 0.06914 0.58486 0.08212 0.0
O64 O 0.1295 0.58618 0.08292 0.0
C65 C 0.08671 0.71424 0.7175 0.0
C66 C 0.09046 0.68677 0.58533 0.0
C67 C 0.1228 0.68799 0.62512 0.0
C68 C 0.1209 0.70123 0.69072 0.0
C69 C 0.05481 0.71456 0.67651 0.0
C70 C 0.05661 0.70082 0.61133 0.0
C71 C 0.08279 0.72355 0.78932 0.0
H72 H 0.03536 0.61845 0.30642 0.0
H73 H 0.03732 0.59279 0.19438 0.0
H74 H 0.15855 0.59171 0.20089 0.0
H75 H 0.15644 0.61652 0.31421 0.0
H76 H 0.14925 0.67737 0.60631 0.0
H77 H 0.14602 0.70034 0.72088 0.0
H78 H 0.02809 0.72432 0.69569 0.0
H79 H 0.03135 0.7006 0.58148 0.0
Tb80 Tb 0.67667 0.90504 0.18865 0.0
Eu81 Eu 0.60907 0.90733 0.07499 0.0
C82 C 0.6442 0.83082 0.13005 0.0
C83 C 0.70047 0.90511 1.03686 0.0
C84 C 0.7023 0.90615 0.36376 0.0
C85 C 0.69239 0.87921 0.47427 0.0
C86 C 0.7077 0.87704 0.40993 0.0
C87 C 0.68153 0.93771 0.38383 0.0
C88 C 0.66645 0.94002 0.44824 0.0
C89 C 0.67106 0.91049 0.49408 0.0
C90 C 0.71506 0.90153 0.29358 0.0
O91 O 0.66749 0.9629 0.16207 0.0
O92 O 0.60564 0.96035 0.13738 0.0
O93 O 0.57441 0.89633 0.16611 0.0
O94 O 0.62277 0.90283 0.24223 0.0
C95 C 0.63418 0.978 0.16425 0.0
O96 O 0.58259 0.94324 1.0004 0.0
O97 O 0.5698 0.88391 1.00263 0.0
O98 O 0.61332 0.8469 0.10869 0.0
O99 O 0.67444 0.85043 0.14277 0.0
O100 O 0.71229 0.90766 0.09905 0.0
O101 O 0.66471 0.90397 1.02153 0.0
C102 C 0.58717 0.89741 0.22736 0.0
O103 O 0.70176 0.87219 0.26335 0.0
O104 O 0.71428 0.93101 0.25501 0.0
C105 C 0.57844 0.9129 0.89598 0.0
C106 C 0.60472 0.91254 0.7622 0.0
C107 C 0.5868 0.94432 0.78867 0.0
C108 C 0.57376 0.94445 0.85471 0.0
C109 C 0.59556 0.88081 0.86892 0.0
C110 C 0.60837 0.88064 0.80286 0.0
C111 C 0.56836 0.91495 0.96796 0.0
H112 H 0.69653 0.8559 0.50806 0.0
H113 H 0.7232 0.85221 0.39578 0.0
H114 H 0.67612 0.96034 0.34936 0.0
H115 H 0.65099 0.96494 0.46195 0.0
H116 H 0.58386 0.9695 0.75894 0.0
H117 H 0.56092 0.96967 0.87418 0.0
H118 H 0.59986 0.85601 0.8991 0.0
H119 H 0.62144 0.85554 0.78353 0.0
Tb120 Tb 0.90558 0.38526 1.02127 0.0
Eu121 Eu 0.91019 0.32084 0.90372 0.0
C122 C 0.97956 0.36612 0.94424 0.0
C123 C 0.90268 0.41049 0.87018 0.0
C124 C 0.90429 0.41479 0.19586 0.0
C125 C 0.93768 0.40371 0.29987 0.0
C126 C 0.93676 0.4182 0.23505 0.0
C127 C 0.87215 0.39801 0.22432 0.0
C128 C 0.87296 0.38394 0.28955 0.0
C129 C 0.906 0.3859 0.32741 0.0
C130 C 0.9057 0.42555 0.12423 0.0
O131 O 0.84813 0.36365 1.00719 0.0
O132 O 0.85273 0.34522 0.89871 0.0
O133 O 0.89848 0.288 0.9994 0.0
O134 O 0.92081 0.33317 0.07035 0.0
C135 C 0.83238 0.35556 0.94959 0.0
O136 O 0.8863 0.28103 0.83246 0.0
O137 O 0.94592 0.29258 0.83144 0.0
O138 O 0.96654 0.33198 0.94794 0.0
O139 O 0.95789 0.39354 0.96473 0.0
O140 O 0.89331 0.41835 0.93234 0.0
O141 O 0.91471 0.37713 0.85226 0.0
C142 C 0.90856 0.29912 0.05945 0.0
O143 O 0.93603 0.41555 0.09252 0.0
O144 O 0.87576 0.41949 0.08851 0.0
C145 C 0.9157 0.29186 0.72668 0.0
C146 C 0.91272 0.32014 0.59442 0.0
C147 C 0.87971 0.30932 0.62819 0.0
C148 C 0.88116 0.29535 0.69344 0.0
C149 C 0.94871 0.30244 0.69264 0.0
C150 C 0.94722 0.31652 0.62764 0.0
C151 C 0.91742 0.2799 0.79774 0.0
H152 H 0.96336 0.40605 0.32832 0.0
H153 H 0.96191 0.43108 0.21477 0.0
H154 H 0.84666 0.39476 0.1957 0.0
H155 H 0.84815 0.37036 0.30965 0.0
H156 H 0.85269 0.31145 0.60397 0.0
H157 H 0.85516 0.2875 0.71793 0.0
H158 H 0.97581 0.30043 0.71667 0.0
H159 H 0.97313 0.32545 0.60404 0.0
Tb160 Tb 0.32034 0.40139 0.15448 0.0
Eu161 Eu 0.38554 0.40057 0.27112 0.0
C162 C 0.35605 0.32621 0.19871 0.0
C163 C 0.29907 0.40649 0.30769 0.0
C164 C 0.28931 0.40074 0.98247 0.0
C165 C 0.30476 0.3626 0.88511 0.0
C166 C 0.2901 0.36584 0.94992 0.0
C167 C 0.30235 0.43244 0.94731 0.0
C168 C 0.31712 0.42916 0.88286 0.0
C169 C 0.31911 0.39415 0.85111 0.0
C170 C 0.27817 0.40382 0.05417 0.0
O171 O 0.33296 0.45844 0.18422 0.0
O172 O 0.39485 0.45305 0.20919 0.0
O173 O 0.42 0.39115 0.17807 0.0
O174 O 0.37383 0.40269 0.09927 0.0
C175 C 0.36715 0.47215 0.18255 0.0
O176 O 0.41406 0.43055 0.3512 0.0
O177 O 0.42195 0.37082 0.34115 0.0
O178 O 0.36294 0.34112 0.25736 0.0
O179 O 0.34642 0.34728 0.14861 0.0
O180 O 0.28972 0.39096 0.25012 0.0
O181 O 0.33174 0.42273 0.31309 0.0
C182 C 0.40899 0.39526 0.11574 0.0
O183 O 0.28189 0.37395 0.09122 0.0
O184 O 0.29005 0.43348 0.0853 0.0
C185 C 0.41612 0.39541 0.4517 0.0
C186 C 0.38965 0.39028 0.58548 0.0
C187 C 0.40611 0.42356 0.56102 0.0
C188 C 0.41909 0.42608 0.49512 0.0
C189 C 0.40177 0.36146 0.47709 0.0
C190 C 0.38906 0.35886 0.54315 0.0
C191 C 0.42593 0.39994 0.37979 0.0
H192 H 0.30619 0.3351 0.86269 0.0
H193 H 0.28034 0.34081 0.97523 0.0
H194 H 0.30191 0.45988 0.97009 0.0
H195 H 0.32731 0.45415 0.85794 0.0
H196 H 0.40729 0.44841 0.59173 0.0
H197 H 0.43028 0.45255 0.47739 0.0
H198 H 0.39958 0.33699 0.44563 0.0
H199 H 0.37841 0.33218 0.56068 0.0
Tb200 Tb 0.40776 0.61723 0.84161 0.0
Eu201 Eu 0.4142 0.6804 0.95969 0.0
C202 C 0.48189 0.63367 0.91744 0.0
C203 C 0.39881 0.59165 0.99129 0.0
C204 C 0.40888 0.58704 0.66669 0.0
C205 C 0.4429 0.61254 0.57103 0.0
C206 C 0.44228 0.6005 0.63731 0.0
C207 C 0.37634 0.58515 0.62732 0.0
C208 C 0.37697 0.59733 0.56083 0.0
C209 C 0.41024 0.61135 0.53213 0.0
C210 C 0.40756 0.57684 0.73865 0.0
O211 O 0.35174 0.6421 0.85273 0.0
O212 O 0.35459 0.6604 0.96164 0.0
O213 O 0.40366 0.71436 0.86522 0.0
O214 O 0.42553 0.66916 0.79388 0.0
C215 C 0.33506 0.65085 0.9093 0.0
O216 O 0.39403 0.72257 1.03023 0.0
O217 O 0.4521 0.70473 1.03272 0.0
O218 O 0.47002 0.66812 0.91334 0.0
O219 O 0.45862 0.60686 0.90034 0.0
O220 O 0.38967 0.58514 0.92875 0.0
O221 O 0.41402 0.62351 1.0104 0.0
C222 C 0.41359 0.70335 0.80499 0.0
O223 O 0.43756 0.58421 0.77324 0.0
O224 O 0.37718 0.5858 0.77134 0.0
C225 C 0.4214 0.70937 0.13632 0.0
C226 C 0.41713 0.6778 0.26585 0.0
C227 C 0.3844 0.68392 0.22839 0.0
C228 C 0.38648 0.6995 0.16441 0.0
C229 C 0.45397 0.70435 0.17461 0.0
C230 C 0.45184 0.6891 0.23873 0.0
C231 C 0.42483 0.72078 0.06537 0.0
H232 H 0.46884 0.62366 0.55061 0.0
H233 H 0.46796 0.60246 0.66579 0.0
H234 H 0.35019 0.57489 0.6483 0.0
H235 H 0.35139 0.59604 0.53196 0.0
H236 H 0.3572 0.67557 0.24771 0.0
H237 H 0.36081 0.70269 0.1363 0.0
H238 H 0.48128 0.71177 0.15449 0.0
H239 H 0.47749 0.68602 0.26694 0.0
Tb240 Tb 0.68549 0.60635 0.15491 0.0
Eu241 Eu 0.61989 0.59602 0.27066 0.0
C242 C 0.64967 0.67505 0.21802 0.0
C243 C 0.70736 0.59631 0.30618 0.0
C244 C 0.71616 0.61212 0.9835 0.0
C245 C 0.70338 0.64024 0.87483 0.0
C246 C 0.71799 0.6428 0.93952 0.0
C247 C 0.70004 0.5785 0.96056 0.0
C248 C 0.68534 0.57599 0.89605 0.0
C249 C 0.68609 0.60705 0.85272 0.0
C250 C 0.72673 0.61684 0.05478 0.0
O251 O 0.65779 0.55559 0.12703 0.0
O252 O 0.62694 0.53822 0.22298 0.0
O253 O 0.58489 0.59609 0.17774 0.0
O254 O 0.63131 0.62 0.10821 0.0
C255 C 0.63837 0.5314 0.16167 0.0
O256 O 0.59931 0.55994 0.35093 0.0
O257 O 0.57898 0.61689 0.34345 0.0
O258 O 0.61897 0.65649 0.23416 0.0
O259 O 0.68144 0.65702 0.21248 0.0
O260 O 0.71605 0.5861 0.2446 0.0
O261 O 0.67439 0.61035 0.31898 0.0
C262 C 0.5961 0.61003 0.12013 0.0
O263 O 0.70945 0.64391 0.08575 0.0
O264 O 0.72843 0.58659 0.09163 0.0
C265 C 0.59264 0.59258 0.45228 0.0
C266 C 0.61973 0.59846 0.58513 0.0
C267 C 0.60043 0.56618 0.56369 0.0
C268 C 0.58692 0.56341 0.49834 0.0
C269 C 0.61178 0.62492 0.47345 0.0
C270 C 0.625 0.62785 0.53899 0.0
C271 C 0.58199 0.58716 0.38131 0.0
H272 H 0.70456 0.66466 0.84278 0.0
H273 H 0.72994 0.66914 0.95579 0.0
H274 H 0.69782 0.55431 0.99299 0.0
H275 H 0.67302 0.54973 0.88029 0.0
H276 H 0.59672 0.54245 0.59675 0.0
H277 H 0.5729 0.53788 0.48316 0.0
H278 H 0.61725 0.6477 0.43902 0.0
H279 H 0.63962 0.65316 0.55343 0.0
Tb280 Tb 0.5981 0.38215 0.83306 0.0
Eu281 Eu 0.59109 0.3181 0.9506 0.0
C282 C 0.52459 0.37024 0.91542 0.0
C283 C 0.60661 0.40754 0.98363 0.0
C284 C 0.60317 0.41313 0.65696 0.0
C285 C 0.57239 0.40341 0.55006 0.0
C286 C 0.5713 0.41577 0.61617 0.0
C287 C 0.63685 0.40002 0.62862 0.0
C288 C 0.63802 0.38792 0.56234 0.0
C289 C 0.60541 0.38794 0.52283 0.0
C290 C 0.60035 0.42234 0.72912 0.0
O291 O 0.65484 0.35892 0.84777 0.0
O292 O 0.64945 0.34007 0.95618 0.0
O293 O 0.60132 0.28548 0.85351 0.0
O294 O 0.57577 0.33113 0.78887 0.0
C295 C 0.67003 0.3514 0.90617 0.0
O296 O 0.61217 0.27535 1.01963 0.0
O297 O 0.55428 0.29346 1.02591 0.0
O298 O 0.53405 0.33491 0.91385 0.0
O299 O 0.54874 0.39551 0.89439 0.0
O300 O 0.61113 0.41599 0.92002 0.0
O301 O 0.5961 0.37394 1.00404 0.0
C302 C 0.58875 0.29697 0.79499 0.0
O303 O 0.56936 0.41214 0.75884 0.0
O304 O 0.62954 0.41538 0.76619 0.0
C305 C 0.58708 0.28892 0.12804 0.0
C306 C 0.59615 0.31873 0.25821 0.0
C307 C 0.62738 0.30611 0.22142 0.0
C308 C 0.62292 0.29144 0.15713 0.0
C309 C 0.55582 0.30054 0.16578 0.0
C310 C 0.56031 0.31531 0.22974 0.0
C311 C 0.58211 0.27752 0.05713 0.0
H312 H 0.5467 0.4042 0.52147 0.0
H313 H 0.54502 0.42619 0.6361 0.0
H314 H 0.66225 0.39835 0.65793 0.0
H315 H 0.66452 0.37815 0.54243 0.0
H316 H 0.65545 0.30877 0.24136 0.0
H317 H 0.64769 0.28294 0.12969 0.0
H318 H 0.52778 0.29887 0.14532 0.0
H319 H 0.53561 0.3243 0.25691 0.0
Tb320 Tb 0.82542 0.59082 0.69647 0.0
Eu321 Eu 0.88987 0.59632 0.57851 0.0
C322 C 0.85576 0.66895 0.65235 0.0
C323 C 0.80413 0.58537 0.54422 0.0
C324 C 0.79297 0.58568 0.86786 0.0
C325 C 0.81846 0.6203 0.96231 0.0
C326 C 0.80451 0.61961 0.89716 0.0
C327 C 0.79492 0.55268 0.90618 0.0
C328 C 0.80938 0.55331 0.971 0.0
C329 C 0.82186 0.58705 0.99942 0.0
C330 C 0.78267 0.5838 0.79604 0.0
O331 O 0.84166 0.53547 0.66316 0.0
O332 O 0.90323 0.54516 0.64127 0.0
O333 O 0.92243 0.61222 0.67046 0.0
O334 O 0.87927 0.59193 0.74994 0.0
C335 C 0.87654 0.52415 0.66684 0.0
O336 O 0.92438 0.56799 0.50389 0.0
O337 O 0.9199 0.6283 0.50172 0.0
O338 O 0.86484 0.65464 0.59396 0.0
O339 O 0.84646 0.64722 0.70208 0.0
O340 O 0.79466 0.60072 0.60185 0.0
O341 O 0.83745 0.5708 0.53734 0.0
C342 C 0.91282 0.60467 0.73262 0.0
O343 O 0.78546 0.61462 0.76131 0.0
O344 O 0.79626 0.55549 0.76321 0.0
C345 C 0.9182 0.59658 0.39704 0.0
C346 C 0.89068 0.59253 0.26431 0.0
C347 C 0.90126 0.55991 0.29903 0.0
C348 C 0.91492 0.56191 0.36429 0.0
C349 C 0.90876 0.6293 0.36165 0.0
C350 C 0.89511 0.62729 0.29636 0.0
C351 C 0.9294 0.59834 0.46856 0.0
H352 H 0.82775 0.64672 0.98294 0.0
H353 H 0.80351 0.64563 0.8694 0.0
H354 H 0.78631 0.5261 0.88524 0.0
H355 H 0.81118 0.52732 0.99875 0.0
H356 H 0.89763 0.53254 0.27689 0.0
H357 H 0.92197 0.53608 0.38971 0.0
H358 H 0.91122 0.65655 0.3848 0.0
H359 H 0.88783 0.65307 0.27103 0.0
Tb360 Tb 0.59498 0.11402 0.51687 0.0
Eu361 Eu 0.5877 0.1782 0.3994 0.0
C362 C 0.51984 0.13043 0.44066 0.0
C363 C 0.60197 0.08972 0.36687 0.0
C364 C 0.59392 0.08484 0.69156 0.0
C365 C 0.56131 0.11682 0.78217 0.0
C366 C 0.56208 0.10349 0.71673 0.0
C367 C 0.62471 0.07939 0.73406 0.0
C368 C 0.624 0.09293 0.79959 0.0
C369 C 0.59233 0.112 0.82444 0.0
C370 C 0.59625 0.07367 0.62024 0.0
O371 O 0.65219 0.13641 0.50037 0.0
O372 O 0.64647 0.15717 0.39309 0.0
O373 O 0.59825 0.21138 0.49519 0.0
O374 O 0.57836 0.16532 0.56713 0.0
C375 C 0.6673 0.14588 0.44249 0.0
O376 O 0.60988 0.21942 0.32876 0.0
O377 O 0.55137 0.20404 0.32494 0.0
O378 O 0.5316 0.16505 0.44392 0.0
O379 O 0.54279 0.1038 0.46043 0.0
O380 O 0.61193 0.08252 0.4288 0.0
O381 O 0.58603 0.12144 0.34905 0.0
C382 C 0.58938 0.19984 0.55599 0.0
O383 O 0.5663 0.079 0.58438 0.0
O384 O 0.62641 0.08402 0.58811 0.0
C385 C 0.58325 0.2075 0.22193 0.0
C386 C 0.58762 0.17748 0.09154 0.0
C387 C 0.61953 0.17861 0.13243 0.0
C388 C 0.61741 0.19344 0.19682 0.0
C389 C 0.55152 0.20697 0.1805 0.0
C390 C 0.55373 0.19237 0.11591 0.0
C391 C 0.57944 0.21901 0.29275 0.0
H392 H 0.53636 0.13112 0.79966 0.0
H393 H 0.53784 0.10846 0.68559 0.0
H394 H 0.64974 0.06545 0.71605 0.0
H395 H 0.64871 0.08936 0.83014 0.0
H396 H 0.64613 0.16778 0.1147 0.0
H397 H 0.6424 0.19306 0.22733 0.0
H398 H 0.52478 0.21731 0.19855 0.0
H399 H 0.52869 0.1919 0.08551 0.0
Tb400 Tb 0.17712 0.40855 0.69944 0.0
Eu401 Eu 0.11279 0.40252 0.58216 0.0
C402 C 0.14599 0.32995 0.65761 0.0
C403 C 0.20023 0.40689 0.54547 0.0
C404 C 0.2086 0.41275 0.87211 0.0
C405 C 0.18157 0.37627 0.96356 0.0
C406 C 0.19488 0.37862 0.8979 0.0
C407 C 0.20936 0.44419 0.91405 0.0
C408 C 0.19593 0.44186 0.9796 0.0
C409 C 0.18154 0.40796 1.00507 0.0
C410 C 0.21819 0.41711 0.80034 0.0
O411 O 0.16606 0.46287 0.65567 0.0
O412 O 0.10404 0.4564 0.64108 0.0
O413 O 0.08088 0.38595 0.67475 0.0
O414 O 0.12261 0.41092 0.75089 0.0
C415 C 0.13236 0.47698 0.66141 0.0
O416 O 0.07763 0.43163 0.50983 0.0
O417 O 0.08088 0.37122 0.50753 0.0
O418 O 0.13632 0.34388 0.59928 0.0
O419 O 0.15632 0.35176 0.70646 0.0
O420 O 0.20993 0.39749 0.60705 0.0
O421 O 0.16652 0.41908 0.53218 0.0
C422 C 0.0898 0.39602 0.73574 0.0
O423 O 0.21838 0.387 0.76369 0.0
O424 O 0.20119 0.44449 0.77017 0.0
C425 C 0.08408 0.40304 0.40327 0.0
C426 C 0.11431 0.40364 0.27207 0.0
C427 C 0.11454 0.43624 0.3111 0.0
C428 C 0.09975 0.43595 0.37581 0.0
C429 C 0.08265 0.37076 0.36335 0.0
C430 C 0.09764 0.37103 0.29862 0.0
C431 C 0.07208 0.4015 0.4745 0.0
H432 H 0.17008 0.3499 0.98105 0.0
H433 H 0.19334 0.35393 0.86686 0.0
H434 H 0.21956 0.47089 0.89555 0.0
H435 H 0.19656 0.46672 1.01034 0.0
H436 H 0.12712 0.46182 0.29219 0.0
H437 H 0.10145 0.46143 0.40476 0.0
H438 H 0.07061 0.34503 0.38272 0.0
H439 H 0.09626 0.34565 0.26933 0.0
Tb440 Tb 0.40972 0.88372 0.52615 0.0
Eu441 Eu 0.41755 0.81851 0.40958 0.0
C442 C 0.48343 0.86921 0.4469 0.0
C443 C 0.40221 0.90745 0.3754 0.0
C444 C 0.41216 0.91243 0.70211 0.0
C445 C 0.44826 0.88522 0.79341 0.0
C446 C 0.44603 0.89801 0.72749 0.0
C447 C 0.38091 0.91447 0.74495 0.0
C448 C 0.3831 0.90151 0.8108 0.0
C449 C 0.41676 0.88649 0.83591 0.0
C450 C 0.40839 0.92309 0.63058 0.0
O451 O 0.35153 0.86596 0.5054 0.0
O452 O 0.3582 0.83706 0.40342 0.0
O453 O 0.40418 0.78655 0.50555 0.0
O454 O 0.4292 0.83184 0.57177 0.0
C455 C 0.3374 0.85238 0.44964 0.0
O456 O 0.39846 0.77569 0.33926 0.0
O457 O 0.45639 0.79376 0.33792 0.0
O458 O 0.47257 0.8345 0.45459 0.0
O459 O 0.46048 0.89561 0.46716 0.0
O460 O 0.39436 0.91585 0.4379 0.0
O461 O 0.41578 0.87474 0.35701 0.0
C462 C 0.41517 0.79811 0.56476 0.0
O463 O 0.43798 0.91928 0.59281 0.0
O464 O 0.37831 0.91113 0.60059 0.0
C465 C 0.42671 0.78941 0.23342 0.0
C466 C 0.42324 0.8203 0.10319 0.0
C467 C 0.39035 0.81489 0.14098 0.0
C468 C 0.39202 0.79956 0.20523 0.0
C469 C 0.45951 0.7942 0.19496 0.0
C470 C 0.45776 0.80914 0.13043 0.0
C471 C 0.42954 0.77775 0.30452 0.0
H472 H 0.47471 0.8741 0.81107 0.0
H473 H 0.47075 0.89593 0.69618 0.0
H474 H 0.35439 0.92523 0.72697 0.0
H475 H 0.35802 0.90225 0.8414 0.0
H476 H 0.36329 0.82273 0.12089 0.0
H477 H 0.36616 0.79653 0.23328 0.0
H478 H 0.48668 0.78692 0.21529 0.0
H479 H 0.48356 0.81292 0.10245 0.0
Tb480 Tb 0.82262 0.90702 0.64874 0.0
Eu481 Eu 0.88444 0.90618 0.76831 0.0
C482 C 0.85514 0.83124 0.69553 0.0
C483 C 0.79856 0.91096 0.8004 0.0
C484 C 0.78684 0.91002 0.47861 0.0
C485 C 0.81521 0.8769 0.38521 0.0
C486 C 0.803 0.87746 0.45154 0.0
C487 C 0.78208 0.94149 0.43733 0.0
C488 C 0.7947 0.94106 0.37131 0.0
C489 C 0.81211 0.90901 0.34502 0.0
C490 C 0.77898 0.91329 0.55084 0.0
O491 O 0.83296 0.96302 0.68617 0.0
O492 O 0.89476 0.95841 0.70672 0.0
O493 O 0.91931 0.89259 0.67851 0.0
O494 O 0.8771 0.90853 0.59577 0.0
C495 C 0.86659 0.97769 0.68267 0.0
O496 O 0.91761 0.93612 0.84223 0.0
O497 O 0.91473 0.87566 0.84599 0.0
O498 O 0.86172 0.84697 0.75364 0.0
O499 O 0.84656 0.85163 0.64372 0.0
O500 O 0.79136 0.89481 0.74255 0.0
O501 O 0.83042 0.92828 0.80851 0.0
C502 C 0.91126 0.89909 0.61552 0.0
O503 O 0.7812 0.883 0.58724 0.0
O504 O 0.79544 0.94148 0.57945 0.0
C505 C 0.90999 0.90791 0.94899 0.0
C506 C 0.87945 0.90904 0.0795 0.0
C507 C 0.87943 0.94152 1.03983 0.0
C508 C 0.89451 0.94101 0.97544 0.0
C509 C 0.91056 0.87558 0.98917 0.0
C510 C 0.89526 0.87608 0.05354 0.0
C511 C 0.92288 0.90621 0.8785 0.0
H512 H 0.82858 0.85187 0.36615 0.0
H513 H 0.80736 0.85281 0.48207 0.0
H514 H 0.76969 0.96692 0.45686 0.0
H515 H 0.79143 0.966 0.34105 0.0
H516 H 0.86698 0.96721 0.05809 0.0
H517 H 0.89329 0.96644 0.94602 0.0
H518 H 0.92223 0.84966 0.97034 0.0
H519 H 0.89584 0.85068 0.08314 0.0
Tb520 Tb 0.90527 0.12007 0.33719 0.0
Eu521 Eu 0.90706 0.18384 0.45407 0.0
C522 C 0.97693 0.13499 0.42197 0.0
C523 C 0.89646 0.09452 0.48717 0.0
C524 C 0.90241 0.09316 0.16169 0.0
C525 C 0.91407 0.08191 1.04389 0.0
C526 C 0.9142 0.0694 0.11021 0.0
C527 C 0.8901 0.12945 0.14582 0.0
C528 C 0.89005 0.14199 0.07979 0.0
C529 C 0.90221 0.11849 1.02793 0.0
C530 C 0.90532 0.0813 0.23205 0.0
O531 O 0.848 0.14327 0.34722 0.0
O532 O 0.8497 0.15899 0.45696 0.0
O533 O 0.89594 0.21546 0.35691 0.0
O534 O 0.92724 0.17209 0.29605 0.0
C535 C 0.83062 0.14948 0.40436 0.0
O536 O 0.88115 0.22331 0.52359 0.0
O537 O 0.94118 0.21472 0.52549 0.0
O538 O 0.9653 0.16972 0.41997 0.0
O539 O 0.95532 0.10847 0.39769 0.0
O540 O 0.88987 0.08651 0.42418 0.0
O541 O 0.90811 0.12767 0.50711 0.0
C542 C 0.91149 0.20508 0.30024 0.0
O543 O 0.93568 0.09213 0.26239 0.0
O544 O 0.87564 0.08662 0.26901 0.0
C545 C 0.9098 0.2131 0.62937 0.0
C546 C 0.90779 0.18091 0.75849 0.0
C547 C 0.87469 0.18495 0.7214 0.0
C548 C 0.87565 0.20087 0.65765 0.0
C549 C 0.94283 0.20959 0.6671 0.0
C550 C 0.94179 0.19391 0.73109 0.0
C551 C 0.91181 0.22582 0.55884 0.0
H552 H 0.92429 0.06334 1.00538 0.0
H553 H 0.92419 0.04144 0.12139 0.0
H554 H 0.8811 0.14839 0.18474 0.0
H555 H 0.88071 0.17026 0.0693 0.0
H556 H 0.848 0.17579 0.74179 0.0
H557 H 0.84964 0.20296 0.63018 0.0
H558 H 0.9696 0.21856 0.64675 0.0
H559 H 0.96771 0.19132 0.75874 0.0
Tb560 Tb 0.17804 0.08911 0.65926 0.0
Eu561 Eu 0.11367 0.09439 0.77787 0.0
C562 C 0.14846 0.16788 0.70591 0.0
C563 C 0.20158 0.08747 0.81183 0.0
C564 C 0.20785 0.08312 0.4868 0.0
C565 C 0.18404 0.12154 0.39558 0.0
C566 C 0.19795 0.11833 0.4605 0.0
C567 C 0.20404 0.05138 0.44613 0.0
C568 C 0.1897 0.05454 0.38156 0.0
C569 C 0.17891 0.08959 0.3557 0.0
C570 C 0.21826 0.07843 0.55797 0.0
O571 O 0.16361 0.03489 0.70094 0.0
O572 O 0.10191 0.04332 0.71427 0.0
O573 O 0.0813 0.11094 0.68627 0.0
O574 O 0.12413 0.09153 0.60655 0.0
C575 C 0.12946 0.02245 0.6923 0.0
O576 O 0.08076 0.06404 0.85239 0.0
O577 O 0.07974 0.12462 0.85126 0.0
O578 O 0.1376 0.15291 0.76294 0.0
O579 O 0.15962 0.14697 0.65603 0.0
O580 O 0.21143 0.09799 0.75088 0.0
O581 O 0.16748 0.07611 0.82548 0.0
C582 C 0.09062 0.10412 0.6238 0.0
O583 O 0.22068 0.10856 0.59456 0.0
O584 O 0.20036 0.05173 0.58905 0.0
C585 C 0.08383 0.09446 0.95743 0.0
C586 C 0.112 0.09461 0.08956 0.0
C587 C 0.10559 0.06073 0.05595 0.0
C588 C 0.09151 0.06063 0.99097 0.0
C589 C 0.08934 0.12836 0.99175 0.0
C590 C 0.10331 0.12842 0.05693 0.0
C591 C 0.07273 0.09431 0.88587 0.0
H592 H 0.17713 0.14912 0.37677 0.0
H593 H 0.20045 0.14343 0.4903 0.0
H594 H 0.21115 0.02387 0.46507 0.0
H595 H 0.1861 0.02929 0.35251 0.0
H596 H 0.11164 0.0342 0.07992 0.0
H597 H 0.08742 0.03393 0.96653 0.0
H598 H 0.08372 0.15495 0.9677 0.0
H599 H 0.10833 0.15503 0.0811 0.0
Tb600 Tb 0.10152 0.88925 0.32962 0.0
Eu601 Eu 0.11011 0.82216 0.4441 0.0
C602 C 0.03311 0.86929 0.42877 0.0
C603 C 0.11326 0.91393 0.47696 0.0
C604 C 0.10399 0.91789 0.15384 0.0
C605 C 0.07966 0.91457 1.04047 0.0
C606 C 0.07698 0.92773 0.10615 0.0
C607 C 0.13423 0.89513 0.13388 0.0
C608 C 0.13711 0.88224 0.06814 0.0
C609 C 0.10967 0.89139 1.02045 0.0
C610 C 0.09852 0.92854 0.22493 0.0
O611 O 0.16048 0.88651 0.36217 0.0
O612 O 0.16223 0.824 0.38254 0.0
O613 O 0.10003 0.7868 0.35115 0.0
O614 O 0.09784 0.83605 0.27695 0.0
C615 C 0.17971 0.85582 0.37425 0.0
O616 O 0.1478 0.79922 0.51954 0.0
O617 O 0.0901 0.78045 0.51641 0.0
O618 O 0.04956 0.83825 0.44754 0.0
O619 O 0.04847 0.8931 0.38615 0.0
O620 O 0.10097 0.92417 0.41796 0.0
O621 O 0.12204 0.87896 0.49152 0.0
C622 C 0.09673 0.79998 0.28981 0.0
O623 O 0.06906 0.91406 0.25401 0.0
O624 O 0.12787 0.92712 0.26363 0.0
C625 C 0.11691 0.79315 0.62344 0.0
C626 C 0.1136 0.82233 0.75491 0.0
C627 C 0.14649 0.80519 0.73093 0.0
C628 C 0.14817 0.79096 0.66587 0.0
C629 C 0.08346 0.80875 0.64862 0.0
C630 C 0.08184 0.823 0.71361 0.0
C631 C 0.12072 0.78251 0.55195 0.0
H632 H 0.05729 0.92137 1.00623 0.0
H633 H 0.05306 0.94471 0.12026 0.0
H634 H 0.15532 0.88652 0.16943 0.0
H635 H 0.16068 0.86462 0.05489 0.0
H636 H 0.17133 0.80394 0.76176 0.0
H637 H 0.17429 0.77907 0.64805 0.0
H638 H 0.05873 0.81081 0.61765 0.0
H639 H 0.05582 0.83506 0.73147 0.0
C640 C 0.36024 0.9546 0.32295 0.0
C641 C 0.3945 0.93531 0.32274 0.0
C642 C 0.35124 0.97974 0.27184 0.0
C643 C 0.37669 0.98781 0.21981 0.0
H644 H 0.3399 0.94972 0.3623 0.0
H645 H 0.32435 0.99359 0.27424 0.0
S646 S 0.46995 0.94351 0.19572 0.0
N647 N 0.4534 0.92418 0.26465 0.0
N648 N 0.43743 0.97328 0.17055 0.0
C649 C 0.41104 0.96838 0.2188 0.0
C650 C 0.4197 0.94174 0.26981 0.0
C651 C 0.95705 0.5831 0.82185 0.0
C652 C 0.93998 0.61242 0.78626 0.0
C653 C 0.98321 0.59056 0.8726 0.0
C654 C 0.99247 0.62763 0.89074 0.0
H655 H 0.95082 0.55425 0.80925 0.0
H656 H 0.99688 0.56708 0.89664 0.0
S657 S 0.95122 0.714 0.81674 0.0
N658 N 0.93211 0.67941 0.77432 0.0
N659 N 0.9789 0.69386 0.87194 0.0
C660 C 0.97363 0.65705 0.85748 0.0
C661 C 0.94805 0.64933 0.80464 0.0
C662 C 0.59127 0.02538 0.21767 0.0
C663 C 0.62761 0.01029 0.20996 0.0
C664 C 0.58313 0.05137 0.26821 0.0
C665 C 0.61071 0.06234 0.31409 0.0
H666 H 0.56865 0.01635 0.18561 0.0
H667 H 0.55477 0.06207 0.27268 0.0
S668 S 0.7112 0.03585 0.31122 0.0
N669 N 0.69254 0.01266 0.24852 0.0
N670 N 0.67623 0.05925 0.34552 0.0
C671 C 0.64729 0.04872 0.30579 0.0
C672 C 0.65601 0.02338 0.25311 0.0
C673 C 0.02275 0.34573 0.85233 0.0
C674 C 0.01089 0.37404 0.8966 0.0
C675 C 0.04753 0.35338 0.7996 0.0
C676 C 0.06271 0.3893 0.7904 0.0
H677 H 0.01214 0.31744 0.85705 0.0
H678 H 0.05526 0.33084 0.76626 0.0
S679 S 0.04415 0.47273 0.89479 0.0
N680 N 0.01791 0.43942 0.92848 0.0
N681 N 0.06633 0.45305 0.83161 0.0
C682 C 0.05281 0.4175 0.83582 0.0
C683 C 0.02653 0.41006 0.88839 0.0
C684 C 0.35121 0.5116 0.08356 0.0
C685 C 0.37495 0.50482 0.13826 0.0
C686 C 0.35946 0.5393 1.0361 0.0
C687 C 0.39123 0.56234 1.04227 0.0
H688 H 0.32642 0.49471 0.07594 0.0
H689 H 0.34052 0.5429 0.99452 0.0
S690 S 0.46164 0.55782 0.17777 0.0
N691 N 0.43154 0.52402 0.19609 0.0
N692 N 0.44594 0.57769 0.10901 0.0
C693 C 0.41463 0.55689 0.09787 0.0
C694 C 0.40682 0.52775 0.14522 0.0
C695 C 0.54037 0.58853 0.05401 0.0
C696 C 0.56834 0.61553 0.066 0.0
C697 C 0.5141 0.59325 1.0025 0.0
C698 C 0.51416 0.62566 0.96222 0.0
H699 H 0.53883 0.5635 0.08453 0.0
H700 H 0.49265 0.57204 0.99612 0.0
S701 S 0.58282 0.70385 0.97144 0.0
N702 N 0.5958 0.67481 1.03112 0.0
N703 N 0.54586 0.68431 0.93619 0.0
C704 C 0.54266 0.65236 0.97275 0.0
C705 C 0.56983 0.64716 1.02415 0.0
C706 C 0.61397 0.50486 0.05699 0.0
C707 C 0.62506 0.49857 0.12332 0.0
C708 C 0.60745 0.47528 1.01318 0.0
C709 C 0.61153 0.43785 1.03355 0.0
H710 H 0.61137 0.53318 1.03792 0.0
H711 H 0.59963 0.48198 0.96249 0.0
S712 S 0.63885 0.406 0.20273 0.0
N713 N 0.63884 0.45219 0.20809 0.0
N714 N 0.62611 0.39595 0.12583 0.0
C715 C 0.62106 0.43093 0.10068 0.0
C716 C 0.62788 0.46142 0.14556 0.0
C717 C 0.47432 0.40413 0.07064 0.0
C718 C 0.43723 0.39161 0.06131 0.0
C719 C 0.50182 0.39945 1.02094 0.0
C720 C 0.49359 0.38109 0.96082 0.0
H721 H 0.48225 0.41747 0.11685 0.0
H722 H 0.5301 0.40888 1.03104 0.0
S723 S 0.40091 0.34391 0.9107 0.0
N724 N 0.39342 0.36177 0.98532 0.0
N725 N 0.44581 0.35104 0.89409 0.0
C726 C 0.45664 0.36892 0.95041 0.0
C727 C 0.42828 0.37474 1.00002 0.0
C728 C 0.87766 0.47221 0.83138 0.0
C729 C 0.89894 0.43997 0.81797 0.0
C730 C 0.87122 0.4992 0.78212 0.0
C731 C 0.88575 0.49535 0.71733 0.0
H732 H 0.86518 0.47648 0.88001 0.0
H733 H 0.85492 0.52353 0.79541 0.0
S734 S 0.94632 0.4183 0.6572 0.0
N735 N 0.93687 0.40705 0.7353 0.0
N736 N 0.92454 0.45837 0.64318 0.0
C737 C 0.90841 0.46426 0.70359 0.0
C738 C 0.91491 0.43637 0.75369 0.0
C739 C 0.47728 0.1488 0.34679 0.0
C740 C 0.48807 0.12176 0.39446 0.0
C741 C 0.45189 0.14047 0.29577 0.0
C742 C 0.43454 0.10528 0.29189 0.0
H743 H 0.48902 0.17667 0.34768 0.0
H744 H 0.44527 0.16206 0.25966 0.0
S745 S 0.44743 0.02621 0.40962 0.0
N746 N 0.4766 0.05881 0.43681 0.0
N747 N 0.42658 0.04419 0.34357 0.0
C748 C 0.44288 0.0786 0.34135 0.0
C749 C 0.4701 0.08657 0.39198 0.0
C750 C 0.08264 0.54801 0.77389 0.0
C751 C 0.11242 0.56382 0.81009 0.0
C752 C 0.08928 0.521 0.72409 0.0
C753 C 0.12605 0.50956 0.70723 0.0
H754 H 0.05395 0.55587 0.7853 0.0
H755 H 0.06531 0.50845 0.6997 0.0
S756 S 0.21383 0.54732 0.7819 0.0
N757 N 0.17979 0.56837 0.82326 0.0
N758 N 0.1928 0.52016 0.72707 0.0
C759 C 0.15609 0.52717 0.74084 0.0
C760 C 0.14914 0.55357 0.79293 0.0
C761 C 0.55133 0.85477 0.30232 0.0
C762 C 0.56099 0.89136 0.28345 0.0
C763 C 0.52822 0.84799 0.35781 0.0
C764 C 0.51286 0.8776 0.39562 0.0
H765 H 0.562 0.83114 0.2743 0.0
H766 H 0.52184 0.81915 0.37012 0.0
S767 S 0.53339 0.97868 0.36937 0.0
N768 N 0.55702 0.95742 0.3096 0.0
N769 N 0.51168 0.94522 0.41166 0.0
C770 C 0.52344 0.91443 0.37801 0.0
C771 C 0.54788 0.92116 0.32242 0.0
C772 C 0.91032 0.02319 0.62546 0.0
C773 C 0.87336 0.01075 0.63854 0.0
C774 C 0.91777 0.0507 0.57682 0.0
C775 C 0.88864 0.06594 0.53842 0.0
H776 H 0.93382 0.01103 0.65184 0.0
H777 H 0.94654 0.05939 0.56801 0.0
S778 S 0.78699 0.04663 0.55641 0.0
N779 N 0.80701 0.01947 0.61261 0.0
N780 N 0.8217 0.06908 0.51891 0.0
C781 C 0.8517 0.05478 0.55192 0.0
C782 C 0.84388 0.02776 0.60263 0.0
C783 C 0.0313 0.13395 0.58378 0.0
C784 C 0.06215 0.11056 0.57071 0.0
C785 C 0.00433 0.14139 0.53504 0.0
C786 C 0.00653 0.12556 0.47111 0.0
H787 H 0.02801 0.14707 0.63197 0.0
H788 H 0.98108 0.15926 0.54827 0.0
S789 S 0.07995 0.06008 0.41201 0.0
N790 N 0.0927 0.07046 0.48872 0.0
N791 N 0.04078 0.0836 0.39821 0.0
C792 C 0.03646 0.1012 0.45754 0.0
C793 C 0.06464 0.09412 0.50687 0.0
C794 C 0.1483 0.94191 0.5727 0.0
C795 C 0.11677 0.94224 0.53076 0.0
C796 C 0.15162 0.96723 0.62584 0.0
C797 C 0.1229 0.993 0.64094 0.0
H798 H 0.17093 0.9223 0.56369 0.0
H799 H 0.17706 0.96672 0.65519 0.0
S800 S 0.03243 0.00206 0.55057 0.0
N801 N 0.05557 0.96947 0.50922 0.0
N802 N 0.06037 0.01506 0.61174 0.0
C803 C 0.09044 0.99249 0.60088 0.0
C804 C 0.08782 0.96776 0.54502 0.0
C805 C 0.96419 0.88271 0.45128 0.0
C806 C 1.00179 0.88161 0.47232 0.0
C807 C 0.93479 0.88956 0.49725 0.0
C808 C 0.9422 0.89565 0.56547 0.0
H809 H 0.95737 0.87686 0.39989 0.0
H810 H 0.90609 0.88884 0.47962 0.0
S811 S 0.03668 0.90039 0.64254 0.0
N812 N 0.04488 0.88918 0.56434 0.0
N813 N 0.99072 0.90439 0.64893 0.0
C814 C 0.97999 0.89663 0.58559 0.0
C815 C 0.00945 0.88893 0.53951 0.0
C816 C 0.35419 0.2207 0.22842 0.0
C817 C 0.35566 0.20571 0.16338 0.0
C818 C 0.35556 0.2595 0.23992 0.0
C819 C 0.35815 0.28504 0.18687 0.0
H820 H 0.35168 0.20234 0.27121 0.0
H821 H 0.35358 0.26951 0.29063 0.0
S822 S 0.36552 0.26049 1.00727 0.0
N823 N 0.3618 0.21971 1.04559 0.0
N824 N 0.36439 0.29233 0.06657 0.0
C825 C 0.36075 0.27039 0.12164 0.0
C826 C 0.35953 0.23088 0.11006 0.0
C827 C 0.2763 0.64809 0.9788 0.0
C828 C 0.29333 0.64996 0.91532 0.0
C829 C 0.23705 0.64751 0.9866 0.0
C830 C 0.21307 0.64929 0.9313 0.0
H831 H 0.29342 0.64687 1.02317 0.0
H832 H 0.22548 0.6462 1.03648 0.0
S833 S 0.24338 0.65393 0.75383 0.0
N834 N 0.28301 0.65289 0.79605 0.0
N835 N 0.20957 0.65237 0.81015 0.0
C836 C 0.22979 0.65093 0.86735 0.0
C837 C 0.26975 0.65106 0.85951 0.0
C838 C 0.61228 0.7707 0.16403 0.0
C839 C 0.6452 0.79014 0.1456 0.0
C840 C 0.61383 0.73377 0.18876 0.0
C841 C 0.64836 0.71496 0.19616 0.0
H842 H 0.58523 0.78445 0.16124 0.0
H843 H 0.58776 0.71992 0.20211 0.0
S844 S 0.74253 0.75297 0.15076 0.0
N845 N 0.71305 0.78704 0.13277 0.0
N846 N 0.71625 0.71869 0.18046 0.0
C847 C 0.68138 0.73405 0.17659 0.0
C848 C 0.67972 0.77128 0.15095 0.0
C849 C 0.77567 0.35231 0.87573 0.0
C850 C 0.7908 0.35684 0.94022 0.0
C851 C 0.73675 0.35162 0.86457 0.0
C852 C 0.71119 0.35503 0.91746 0.0
H853 H 0.79401 0.34891 0.83307 0.0
H854 H 0.72669 0.3474 0.81436 0.0
S855 S 0.73559 0.37086 0.09509 0.0
N856 N 0.7766 0.3672 0.05708 0.0
N857 N 0.70367 0.36584 1.03647 0.0
C858 C 0.7258 0.36077 0.98196 0.0
C859 C 0.76547 0.36171 0.99324 0.0
C860 C 0.86153 0.73567 0.61171 0.0
C861 C 0.85651 0.71027 0.66457 0.0
C862 C 0.86139 0.77458 0.62253 0.0
C863 C 0.85673 0.78983 0.6868 0.0
H864 H 0.86514 0.72553 0.56136 0.0
H865 H 0.86501 0.79288 0.57988 0.0
S866 S 0.84322 0.73581 0.84292 0.0
N867 N 0.84696 0.70364 0.78453 0.0
N868 N 0.84746 0.77641 0.80411 0.0
C869 C 0.85237 0.76486 0.74029 0.0
C870 C 0.85199 0.72525 0.72936 0.0
C871 C 0.77264 0.14664 0.47594 0.0
C872 C 0.7889 0.14669 0.41159 0.0
C873 C 0.73356 0.14536 0.48569 0.0
C874 C 0.70881 0.14469 0.43155 0.0
H875 H 0.79024 0.14771 0.51971 0.0
H876 H 0.72272 0.1458 0.53611 0.0
S877 S 0.7365 0.14222 0.25272 0.0
N878 N 0.7768 0.14406 0.29291 0.0
N879 N 0.70352 0.14237 0.31065 0.0
C880 C 0.72461 0.14397 0.36681 0.0
C881 C 0.76451 0.14476 0.35698 0.0
C882 C 0.14938 0.26311 0.61819 0.0
C883 C 0.14496 0.28878 0.67045 0.0
C884 C 0.15063 0.2243 0.6304 0.0
C885 C 0.14702 0.20936 0.69536 0.0
H886 H 0.15268 0.27306 0.56753 0.0
H887 H 0.15439 0.20588 0.58819 0.0
S888 S 0.13234 0.26471 0.84939 0.0
N889 N 0.1353 0.29642 0.78968 0.0
N890 N 0.13737 0.22381 0.81232 0.0
C891 C 0.14168 0.23477 0.74791 0.0
C892 C 0.14075 0.2743 0.73556 0.0
C893 C 0.27952 0.82332 0.40409 0.0
C894 C 0.29659 0.85401 0.43577 0.0
C895 C 0.24212 0.82473 0.38299 0.0
C896 C 0.22031 0.85722 0.39112 0.0
H897 H 0.29529 0.79784 0.39543 0.0
H898 H 0.2302 0.80005 0.35991 0.0
S899 S 0.25207 0.94582 0.46973 0.0
N900 N 0.28911 0.91809 0.47377 0.0
N901 N 0.21873 0.92114 0.43317 0.0
C902 C 0.23711 0.8884 0.42218 0.0
C903 C 0.2752 0.88666 0.4449 0.0
C904 C 0.22101 0.11139 0.9244 0.0
C905 C 0.22841 0.08821 0.86896 0.0
C906 C 0.2426 0.10931 0.98332 0.0
C907 C 0.27215 0.08337 0.98995 0.0
H908 H 0.19804 0.13122 0.92234 0.0
H909 H 0.2362 0.12832 1.02367 0.0
S910 S 0.29888 0.01219 0.86325 0.0
N911 N 0.26502 0.03628 0.82713 0.0
N912 N 0.30501 0.03151 0.93683 0.0
C913 C 0.27888 0.05919 0.93531 0.0
C914 C 0.25721 0.06176 0.87528 0.0
C915 C 0.10647 0.71487 0.17296 0.0
C916 C 0.09419 0.72874 0.11061 0.0
C917 C 0.10637 0.73727 0.23104 0.0
C918 C 0.09344 0.77455 0.22986 0.0
H919 H 0.11674 0.68639 0.17681 0.0
H920 H 0.11714 0.72545 0.27679 0.0
S921 S 0.05163 0.82187 0.08202 0.0
N922 N 0.06501 0.78069 0.05339 0.0
N923 N 0.0637 0.82251 0.16122 0.0
C924 C 0.0795 0.78809 0.16815 0.0
C925 C 0.08018 0.76539 0.10906 0.0
C926 C 0.75888 0.92719 0.97607 0.0
C927 C 0.72727 0.90368 0.97921 0.0
C928 C 0.78104 0.92961 0.91784 0.0
C929 C 0.77287 0.90844 0.85998 0.0
H930 H 0.76588 0.94478 1.01808 0.0
H931 H 0.80479 0.9486 0.91833 0.0
S932 S 0.69627 0.83845 0.8463 0.0
N933 N 0.69081 0.85624 0.92145 0.0
N934 N 0.73266 0.86043 0.81312 0.0
C935 C 0.74214 0.88376 0.8636 0.0
C936 C 0.71942 0.88147 0.92275 0.0
C937 C 0.88639 0.28257 0.17478 0.0
C938 C 0.90788 0.2733 0.11799 0.0
C939 C 0.88805 0.26108 0.23388 0.0
C940 C 0.91182 0.22969 0.23918 0.0
H941 H 0.86813 0.30681 0.17353 0.0
H942 H 0.87037 0.26901 0.27546 0.0
S943 S 0.97847 0.19749 0.10786 0.0
N944 N 0.95645 0.23323 0.07327 0.0
N945 N 0.9601 0.19287 0.18297 0.0
C946 C 0.93449 0.22107 0.1831 0.0
C947 C 0.93243 0.24281 0.12301 0.0
C948 C 0.23729 0.39127 0.36767 0.0
C949 C 0.27403 0.40598 0.36905 0.0
C950 C 0.21417 0.39095 0.42523 0.0
C951 C 0.22689 0.40438 0.48748 0.0
H952 H 0.22604 0.38037 0.32164 0.0
H953 H 0.18583 0.38012 0.42085 0.0
S954 S 0.31914 0.4482 0.51873 0.0
N955 N 0.32097 0.43621 0.43956 0.0
N956 N 0.27772 0.43424 0.5461 0.0
C957 C 0.26335 0.41888 0.48993 0.0
C958 C 0.28674 0.42003 0.43135 0.0
C959 C 0.4311 0.76293 0.74356 0.0
C960 C 0.4114 0.72886 0.74608 0.0
C961 C 0.43237 0.7846 0.68468 0.0
C962 C 0.41392 0.77327 0.62558 0.0
H963 H 0.44656 0.77235 0.78667 0.0
H964 H 0.44835 0.81044 0.68563 0.0
S965 S 0.3542 0.68848 0.61029 0.0
N966 N 0.37066 0.68609 0.68678 0.0
N967 N 0.3724 0.72681 0.57695 0.0
C968 C 0.39313 0.73972 0.62861 0.0
C969 C 0.39208 0.71761 0.68847 0.0
C970 C 0.72484 0.61237 0.42449 0.0
C971 C 0.7337 0.5933 0.36458 0.0
C972 C 0.74689 0.609 0.48233 0.0
C973 C 0.77906 0.58631 0.48376 0.0
H974 H 0.70044 0.63038 0.42713 0.0
H975 H 0.73882 0.62482 0.526 0.0
S976 S 0.81359 0.52821 0.34215 0.0
N977 N 0.77637 0.54968 0.31183 0.0
N978 N 0.81779 0.54292 0.41957 0.0
C979 C 0.78809 0.56663 0.42438 0.0
C980 C 0.76558 0.57027 0.36528 0.0
C981 C 0.60361 0.21268 0.67727 0.0
C982 C 0.59024 0.22564 0.61508 0.0
C983 C 0.60299 0.2354 0.73498 0.0
C984 C 0.58812 0.27201 0.73386 0.0
H985 H 0.61493 0.18461 0.68135 0.0
H986 H 0.61424 0.22409 0.78078 0.0
S987 S 0.54452 0.31699 0.58515 0.0
N988 N 0.55928 0.27619 0.55723 0.0
N989 N 0.55668 0.31856 0.66426 0.0
C990 C 0.5736 0.28473 0.67191 0.0
C991 C 0.57503 0.26177 0.61313 0.0
C992 C 0.35319 0.11308 0.59486 0.0
C993 C 0.33139 0.08243 0.57329 0.0
C994 C 0.36932 0.11381 0.65858 0.0
C995 C 0.36499 0.08363 0.70324 0.0
H996 H 0.35831 0.13664 0.56197 0.0
H997 H 0.38576 0.13805 0.6727 0.0
S998 S 0.30934 0.99733 0.67315 0.0
N999 N 0.30458 0.02202 0.60418 0.0
N1000 N 0.33696 0.02237 0.72159 0.0
C1001 C 0.34356 0.0527 0.6823 0.0
C1002 C 0.32628 0.05235 0.6181 0.0
C1003 C 0.11685 0.68225 0.46905 0.0
C1004 C 0.0916 0.66928 0.51804 0.0
C1005 C 0.11815 0.6659 0.4054 0.0
C1006 C 0.09444 0.63573 0.38833 0.0
H1007 H 0.13542 0.70552 0.47977 0.0
H1008 H 0.13755 0.67734 0.36899 0.0
S1009 S 0.02641 0.58874 0.50173 0.0
N1010 N 0.04416 0.62302 0.54678 0.0
N1011 N 0.047 0.59187 0.42816 0.0
C1012 C 0.06974 0.62198 0.43766 0.0
C1013 C 0.06824 0.63883 0.50215 0.0
C1014 C 0.67418 0.90086 0.61841 0.0
C1015 C 0.6535 0.91196 0.56205 0.0
C1016 C 0.65824 0.90126 0.68254 0.0
C1017 C 0.62093 0.91285 0.69338 0.0
H1018 H 0.70308 0.89201 0.6131 0.0
H1019 H 0.67547 0.89276 0.72418 0.0
S1020 S 0.55369 0.94229 0.56294 0.0
N1021 N 0.59279 0.93321 0.52158 0.0
N1022 N 0.56325 0.9344 0.64204 0.0
C1023 C 0.59984 0.92392 0.63768 0.0
C1024 C 0.61598 0.92336 0.5722 0.0
C1025 C 0.88212 0.37886 0.44478 0.0
C1026 C 0.90779 0.36848 0.39478 0.0
C1027 C 0.88383 0.36304 0.50889 0.0
C1028 C 0.91105 0.33593 0.52541 0.0
H1029 H 0.86095 0.39984 0.43455 0.0
H1030 H 0.86401 0.3726 0.54613 0.0
S1031 S 0.98227 0.29649 0.40973 0.0
N1032 N 0.95977 0.32795 0.36463 0.0
N1033 N 0.96265 0.29772 0.48426 0.0
C1034 C 0.93631 0.32473 0.47511 0.0
C1035 C 0.93474 0.34107 0.4101 0.0
C1036 C 0.38878 0.408 0.70746 0.0
C1037 C 0.37195 0.38911 0.65368 0.0
C1038 C 0.37177 0.40906 0.77077 0.0
C1039 C 0.33733 0.39087 0.78382 0.0
H1040 H 0.41543 0.42219 0.70074 0.0
H1041 H 0.38592 0.42416 0.81008 0.0
S1042 S 0.28101 0.33777 0.66086 0.0
N1043 N 0.31774 0.35274 0.61805 0.0
N1044 N 0.28737 0.35277 0.73757 0.0
C1045 C 0.32062 0.37111 0.73113 0.0
C1046 C 0.33745 0.37074 0.66615 0.0
C1047 C 0.38704 0.6699 0.37871 0.0
C1048 C 0.41502 0.65942 0.3327 0.0
C1049 C 0.38484 0.65334 0.44212 0.0
C1050 C 0.4109 0.62608 0.46261 0.0
H1051 H 0.36699 0.69157 0.36611 0.0
H1052 H 0.36301 0.66259 0.4757 0.0
S1053 S 0.48606 0.58474 0.35816 0.0
N1054 N 0.46679 0.61688 0.31 0.0
N1055 N 0.46319 0.58667 0.42964 0.0
C1056 C 0.4382 0.61443 0.41647 0.0
C1057 C 0.44019 0.63091 0.3516 0.0
C1058 C 0.6878 0.6179 0.72836 0.0
C1059 C 0.66836 0.60502 0.78517 0.0
C1060 C 0.67196 0.61565 0.66442 0.0
C1061 C 0.63562 0.60096 0.65426 0.0
H1062 H 0.71574 0.62945 0.73312 0.0
H1063 H 0.68864 0.62512 0.62245 0.0
S1064 S 0.57083 0.56802 0.78772 0.0
N1065 N 0.60955 0.57969 0.82759 0.0
N1066 N 0.57946 0.57627 0.70822 0.0
C1067 C 0.61539 0.58904 0.71104 0.0
C1068 C 0.63174 0.59094 0.77609 0.0
C1069 C 0.58428 0.38709 0.40282 0.0
C1070 C 0.60512 0.37062 0.45474 0.0
C1071 C 0.58181 0.3703 0.33978 0.0
C1072 C 0.6006 0.33659 0.32514 0.0
H1073 H 0.56962 0.41326 0.41081 0.0
H1074 H 0.5652 0.38408 0.3019 0.0
S1075 S 0.65832 0.28126 0.44312 0.0
N1076 N 0.64365 0.31733 0.48722 0.0
N1077 N 0.64112 0.28754 0.36782 0.0
C1078 C 0.6222 0.32021 0.37593 0.0
C1079 C 0.62393 0.33672 0.44075 0.0
C1080 C 0.82592 0.61174 0.11646 0.0
C1081 C 0.83944 0.58751 0.06678 0.0
C1082 C 0.84243 0.61292 0.17989 0.0
C1083 C 0.87368 0.59044 0.19612 0.0
H1084 H 0.80216 0.62974 0.10644 0.0
H1085 H 0.83033 0.63145 0.21672 0.0
S1086 S 0.92197 0.52477 0.08101 0.0
N1087 N 0.88688 0.54174 1.03681 0.0
N1088 N 0.91875 0.54478 0.15478 0.0
C1089 C 0.88787 0.56655 0.14621 0.0
C1090 C 0.87063 0.56496 0.08196 0.0
C1091 C 0.57824 0.16466 0.90397 0.0
C1092 C 0.59178 0.12803 0.89325 0.0
C1093 C 0.57693 0.18037 0.96798 0.0
C1094 C 0.58946 0.16031 1.024 0.0
H1095 H 0.56881 0.18152 0.8624 0.0
H1096 H 0.56634 0.20862 0.97356 0.0
S1097 S 0.62475 0.06255 1.02456 0.0
N1098 N 0.61597 0.07144 0.94544 0.0
N1099 N 0.61414 0.10128 0.06522 0.0
C1100 C 0.60284 0.12364 1.01428 0.0
C1101 C 0.60389 0.10748 0.94916 0.0
C1102 C 0.12319 0.43275 0.15869 0.0
C1103 C 0.13165 0.40387 0.20412 0.0
C1104 C 0.13951 0.43389 0.09487 0.0
C1105 C 0.16506 0.40622 0.07365 0.0
H1106 H 0.10346 0.4545 0.17232 0.0
H1107 H 0.13163 0.45641 0.06151 0.0
S1108 S 0.19926 0.32646 0.17556 0.0
N1109 N 0.16907 0.34817 0.22463 0.0
N1110 N 0.19946 0.35015 0.10486 0.0
C1111 C 0.17412 0.37745 0.11889 0.0
C1112 C 0.15754 0.37632 0.18394 0.0
C1113 C 0.43778 0.8199 0.98055 0.0
C1114 C 0.42163 0.83794 1.03581 0.0
C1115 C 0.43626 0.83588 0.91656 0.0
C1116 C 0.41871 0.87071 0.90507 0.0
H1117 H 0.45125 0.79292 0.98666 0.0
H1118 H 0.44848 0.82049 0.87556 0.0
S1119 S 0.37586 0.93126 1.03476 0.0
N1120 N 0.38976 0.89365 0.07585 0.0
N1121 N 0.38734 0.92394 0.95616 0.0
C1122 C 0.40326 0.88945 0.96041 0.0
C1123 C 0.40463 0.87304 1.0255 0.0
C1124 C 0.81962 0.88208 0.23022 0.0
C1125 C 0.82894 0.90972 0.27716 0.0
C1126 C 0.83608 0.88197 0.16649 0.0
C1127 C 0.86255 0.90943 0.14746 0.0
H1128 H 0.79927 0.86056 0.24273 0.0
H1129 H 0.82776 0.86045 0.13161 0.0
S1130 S 0.89908 0.98561 0.25442 0.0
N1131 N 0.86787 0.96382 0.30166 0.0
N1132 N 0.89885 0.96357 0.18232 0.0
C1133 C 0.87243 0.93686 0.19437 0.0
C1134 C 0.85564 0.937 0.25905 0.0
C1135 C 0.92022 0.16826 0.94508 0.0
C1136 C 0.9039 0.13301 0.95812 0.0
C1137 C 0.92193 0.18319 0.88049 0.0
C1138 C 0.90678 0.16375 0.82613 0.0
H1139 H 0.93203 0.18442 0.98515 0.0
H1140 H 0.93471 0.21046 0.87327 0.0
S1141 S 0.86169 0.06997 0.83216 0.0
N1142 N 0.87281 0.0787 0.91033 0.0
N1143 N 0.87589 0.10683 0.78889 0.0
C1144 C 0.89061 0.12832 0.83803 0.0
C1145 C 0.88926 0.11291 0.90388 0.0
C1146 C 0.16099 0.0729 0.17077 0.0
C1147 C 0.12877 0.09448 0.15761 0.0
C1148 C 0.17718 0.07188 0.23441 0.0
C1149 C 0.16189 0.09242 0.2878 0.0
H1150 H 0.17403 0.05682 0.13134 0.0
H1151 H 0.20204 0.05496 0.24167 0.0
S1152 S 0.07626 0.15169 0.28045 0.0
N1153 N 0.08132 0.13581 0.20388 0.0
N1154 N 0.11163 0.1341 0.32318 0.0
C1155 C 0.1296 0.11414 0.27524 0.0
C1156 C 0.1131 0.1151 0.21038 0.0
C1157 C 0.12256 0.82027 0.87941 0.0
C1158 C 0.11275 0.84053 0.82192 0.0
C1159 C 0.12158 0.83691 0.94283 0.0
C1160 C 0.11122 0.87477 0.95169 0.0
H1161 H 0.13063 0.79115 0.87551 0.0
H1162 H 0.12853 0.81965 0.98541 0.0
S1163 S 0.0875 0.94131 0.81559 0.0
N1164 N 0.09491 0.90116 0.77718 0.0
N1165 N 0.09391 0.93271 0.89553 0.0
C1166 C 0.10237 0.89561 0.89409 0.0
C1167 C 0.10299 0.87848 0.82961 0.0
loop_
_geom_bond_atom_site_label_1
_geom_bond_atom_site_label_2
_geom_bond_distance
_geom_bond_site_symmetry_2
_ccdc_geom_bond_type
Tb0 C10 2.825 . S
Tb0 O11 2.347 . S
Tb0 O14 2.366 . S
Tb0 O19 2.418 . S
Tb0 O20 2.384 . S
Tb0 O23 2.479 . S
Tb0 O24 2.471 . S
Eu1 O12 2.418 . S
Eu1 O13 2.384 . S
Eu1 O16 2.479 1_554 S
Eu1 O17 2.471 1_554 S
Eu1 O18 2.347 . S
Eu1 O21 2.366 . S
Eu1 C31 2.825 1_554 S
C2 O18 1.259 . S
C2 O19 1.265 . S
C3 O20 1.255 . S
C3 O21 1.265 . S
C4 C6 1.380 . S
C4 C7 1.374 . S
C4 C10 1.507 . S
C5 C6 1.384 . S
C5 C9 1.387 . S
C5 H32 0.930 . S
C6 C4 1.380 . S
C6 C5 1.384 . S
C6 H33 0.931 . S
C7 C4 1.374 . S
C7 C8 1.390 . S
C7 H34 0.930 . S
C8 C7 1.390 . S
C8 C9 1.391 . S
C8 H35 0.930 . S
C9 C5 1.387 . S
C9 C8 1.391 . S
C10 Tb0 2.825 . S
C10 C4 1.507 . S
C10 O23 1.238 . S
C10 O24 1.247 . S
O11 Tb0 2.347 . S
O11 C15 1.259 . S
O12 Eu1 2.418 . S
O12 C15 1.265 . S
O13 Eu1 2.384 . S
O13 C22 1.255 . S
O14 Tb0 2.366 . S
O14 C22 1.265 . S
C15 O11 1.259 . S
C15 O12 1.265 . S
O16 Eu1 2.479 1_556 S
O16 C31 1.238 . S
O17 Eu1 2.471 1_556 S
O17 C31 1.247 . S
O18 Eu1 2.347 . S
O18 C2 1.259 . S
O19 Tb0 2.418 . S
O19 C2 1.265 . S
O20 Tb0 2.384 . S
O20 C3 1.255 . S
O21 Eu1 2.366 . S
O21 C3 1.265 . S
C22 O13 1.255 . S
C22 O14 1.265 . S
O23 Tb0 2.479 . S
O23 C10 1.238 . S
O24 Tb0 2.471 . S
O24 C10 1.247 . S
C25 C28 1.380 . S
C25 C29 1.374 . S
C25 C31 1.507 . S
C26 C27 1.387 . S
C26 C30 1.391 . S
C27 C26 1.387 . S
C27 C28 1.384 . S
C27 H36 0.930 . S
C28 C25 1.380 . S
C28 C27 1.384 . S
C28 H37 0.931 . S
C29 C25 1.374 . S
C29 C30 1.390 . S
C29 H38 0.930 . S
C30 C26 1.391 . S
C30 C29 1.390 . S
C30 H39 0.930 . S
C31 Eu1 2.825 1_556 S
C31 O16 1.238 . S
C31 O17 1.247 . S
C31 C25 1.507 . S
H32 C5 0.930 . S
H33 C6 0.931 . S
H34 C7 0.930 . S
H35 C8 0.930 . S
H36 C27 0.930 . S
H37 C28 0.931 . S
H38 C29 0.930 . S
H39 C30 0.930 . S
Tb40 C50 2.825 1_556 S
Tb40 O51 2.347 . S
Tb40 O54 2.366 . S
Tb40 O59 2.418 . S
Tb40 O60 2.384 . S
Tb40 O63 2.479 1_556 S
Tb40 O64 2.471 1_556 S
Eu41 O52 2.418 . S
Eu41 O53 2.384 . S
Eu41 O56 2.479 . S
Eu41 O57 2.471 . S
Eu41 O58 2.347 . S
Eu41 O61 2.366 . S
Eu41 C71 2.825 . S
C42 O58 1.259 . S
C42 O59 1.265 . S
C43 O60 1.255 . S
C43 O61 1.265 . S
C44 C46 1.380 . S
C44 C47 1.374 . S
C44 C50 1.507 . S
C45 C46 1.384 . S
C45 C49 1.387 . S
C45 H72 0.930 . S
C46 C44 1.380 . S
C46 C45 1.384 . S
C46 H73 0.931 . S
C47 C44 1.374 . S
C47 C48 1.390 . S
C47 H74 0.930 . S
C48 C47 1.390 . S
C48 C49 1.391 . S
C48 H75 0.930 . S
C49 C45 1.387 . S
C49 C48 1.391 . S
C50 Tb40 2.825 1_554 S
C50 C44 1.507 . S
C50 O63 1.238 . S
C50 O64 1.247 . S
O51 Tb40 2.347 . S
O51 C55 1.259 . S
O52 Eu41 2.418 . S
O52 C55 1.265 . S
O53 Eu41 2.384 . S
O53 C62 1.255 . S
O54 Tb40 2.366 . S
O54 C62 1.265 . S
C55 O51 1.259 . S
C55 O52 1.265 . S
O56 Eu41 2.479 . S
O56 C71 1.238 . S
O57 Eu41 2.471 . S
O57 C71 1.247 . S
O58 Eu41 2.347 . S
O58 C42 1.259 . S
O59 Tb40 2.418 . S
O59 C42 1.265 . S
O60 Tb40 2.384 . S
O60 C43 1.255 . S
O61 Eu41 2.366 . S
O61 C43 1.265 . S
C62 O53 1.255 . S
C62 O54 1.265 . S
O63 Tb40 2.479 1_554 S
O63 C50 1.238 . S
O64 Tb40 2.471 1_554 S
O64 C50 1.247 . S
C65 C68 1.380 . S
C65 C69 1.374 . S
C65 C71 1.507 . S
C66 C67 1.387 . S
C66 C70 1.391 . S
C67 C66 1.387 . S
C67 C68 1.384 . S
C67 H76 0.930 . S
C68 C65 1.380 . S
C68 C67 1.384 . S
C68 H77 0.931 . S
C69 C65 1.374 . S
C69 C70 1.390 . S
C69 H78 0.930 . S
C70 C66 1.391 . S
C70 C69 1.390 . S
C70 H79 0.930 . S
C71 Eu41 2.825 . S
C71 O56 1.238 . S
C71 O57 1.247 . S
C71 C65 1.507 . S
H72 C45 0.930 . S
H73 C46 0.931 . S
H74 C47 0.930 . S
H75 C48 0.930 . S
H76 C67 0.930 . S
H77 C68 0.931 . S
H78 C69 0.930 . S
H79 C70 0.930 . S
Tb80 C90 2.825 . S
Tb80 O91 2.347 . S
Tb80 O94 2.366 . S
Tb80 O99 2.418 . S
Tb80 O100 2.384 . S
Tb80 O103 2.479 . S
Tb80 O104 2.471 . S
Eu81 O92 2.418 . S
Eu81 O93 2.384 . S
Eu81 O96 2.479 1_554 S
Eu81 O97 2.471 1_554 S
Eu81 O98 2.347 . S
Eu81 O101 2.366 . S
Eu81 C111 2.825 1_554 S
C82 O98 1.259 . S
C82 O99 1.265 . S
C83 O100 1.255 . S
C83 O101 1.265 . S
C84 C86 1.380 . S
C84 C87 1.374 . S
C84 C90 1.507 . S
C85 C86 1.384 . S
C85 C89 1.387 . S
C85 H112 0.930 . S
C86 C84 1.380 . S
C86 C85 1.384 . S
C86 H113 0.931 . S
C87 C84 1.374 . S
C87 C88 1.390 . S
C87 H114 0.930 . S
C88 C87 1.390 . S
C88 C89 1.391 . S
C88 H115 0.930 . S
C89 C85 1.387 . S
C89 C88 1.391 . S
C90 Tb80 2.825 . S
C90 C84 1.507 . S
C90 O103 1.238 . S
C90 O104 1.247 . S
O91 Tb80 2.347 . S
O91 C95 1.259 . S
O92 Eu81 2.418 . S
O92 C95 1.265 . S
O93 Eu81 2.384 . S
O93 C102 1.255 . S
O94 Tb80 2.366 . S
O94 C102 1.265 . S
C95 O91 1.259 . S
C95 O92 1.265 . S
O96 Eu81 2.479 1_556 S
O96 C111 1.238 . S
O97 Eu81 2.471 1_556 S
O97 C111 1.247 . S
O98 Eu81 2.347 . S
O98 C82 1.259 . S
O99 Tb80 2.418 . S
O99 C82 1.265 . S
O100 Tb80 2.384 . S
O100 C83 1.255 . S
O101 Eu81 2.366 . S
O101 C83 1.265 . S
C102 O93 1.255 . S
C102 O94 1.265 . S
O103 Tb80 2.479 . S
O103 C90 1.238 . S
O104 Tb80 2.471 . S
O104 C90 1.247 . S
C105 C108 1.380 . S
C105 C109 1.374 . S
C105 C111 1.507 . S
C106 C107 1.387 . S
C106 C110 1.391 . S
C107 C106 1.387 . S
C107 C108 1.384 . S
C107 H116 0.930 . S
C108 C105 1.380 . S
C108 C107 1.384 . S
C108 H117 0.931 . S
C109 C105 1.374 . S
C109 C110 1.390 . S
C109 H118 0.930 . S
C110 C106 1.391 . S
C110 C109 1.390 . S
C110 H119 0.930 . S
C111 Eu81 2.825 1_556 S
C111 O96 1.238 . S
C111 O97 1.247 . S
C111 C105 1.507 . S
H112 C85 0.930 . S
H113 C86 0.931 . S
H114 C87 0.930 . S
H115 C88 0.930 . S
H116 C107 0.930 . S
H117 C108 0.931 . S
H118 C109 0.930 . S
H119 C110 0.930 . S
Tb120 C130 2.825 1_556 S
Tb120 O131 2.347 . S
Tb120 O134 2.366 . S
Tb120 O139 2.418 . S
Tb120 O140 2.384 . S
Tb120 O143 2.479 1_556 S
Tb120 O144 2.471 1_556 S
Eu121 O132 2.418 . S
Eu121 O133 2.384 . S
Eu121 O136 2.479 . S
Eu121 O137 2.471 . S
Eu121 O138 2.347 . S
Eu121 O141 2.366 . S
Eu121 C151 2.825 . S
C122 O138 1.259 . S
C122 O139 1.265 . S
C123 O140 1.255 . S
C123 O141 1.265 . S
C124 C126 1.380 . S
C124 C127 1.374 . S
C124 C130 1.507 . S
C125 C126 1.384 . S
C125 C129 1.387 . S
C125 H152 0.930 . S
C126 C124 1.380 . S
C126 C125 1.384 . S
C126 H153 0.931 . S
C127 C124 1.374 . S
C127 C128 1.390 . S
C127 H154 0.930 . S
C128 C127 1.390 . S
C128 C129 1.391 . S
C128 H155 0.930 . S
C129 C125 1.387 . S
C129 C128 1.391 . S
C130 Tb120 2.825 1_554 S
C130 C124 1.507 . S
C130 O143 1.238 . S
C130 O144 1.247 . S
O131 Tb120 2.347 . S
O131 C135 1.259 . S
O132 Eu121 2.418 . S
O132 C135 1.265 . S
O133 Eu121 2.384 . S
O133 C142 1.255 . S
O134 Tb120 2.366 . S
O134 C142 1.265 . S
C135 O131 1.259 . S
C135 O132 1.265 . S
O136 Eu121 2.479 . S
O136 C151 1.238 . S
O137 Eu121 2.471 . S
O137 C151 1.247 . S
O138 Eu121 2.347 . S
O138 C122 1.259 . S
O139 Tb120 2.418 . S
O139 C122 1.265 . S
O140 Tb120 2.384 . S
O140 C123 1.255 . S
O141 Eu121 2.366 . S
O141 C123 1.265 . S
C142 O133 1.255 . S
C142 O134 1.265 . S
O143 Tb120 2.479 1_554 S
O143 C130 1.238 . S
O144 Tb120 2.471 1_554 S
O144 C130 1.247 . S
C145 C148 1.380 . S
C145 C149 1.374 . S
C145 C151 1.507 . S
C146 C147 1.387 . S
C146 C150 1.391 . S
C147 C146 1.387 . S
C147 C148 1.384 . S
C147 H156 0.930 . S
C148 C145 1.380 . S
C148 C147 1.384 . S
C148 H157 0.931 . S
C149 C145 1.374 . S
C149 C150 1.390 . S
C149 H158 0.930 . S
C150 C146 1.391 . S
C150 C149 1.390 . S
C150 H159 0.930 . S
C151 Eu121 2.825 . S
C151 O136 1.238 . S
C151 O137 1.247 . S
C151 C145 1.507 . S
H152 C125 0.930 . S
H153 C126 0.931 . S
H154 C127 0.930 . S
H155 C128 0.930 . S
H156 C147 0.930 . S
H157 C148 0.931 . S
H158 C149 0.930 . S
H159 C150 0.930 . S
Tb160 C170 2.825 1_554 S
Tb160 O171 2.347 . S
Tb160 O174 2.366 . S
Tb160 O179 2.418 . S
Tb160 O180 2.384 . S
Tb160 O183 2.479 1_554 S
Tb160 O184 2.471 1_554 S
Eu161 O172 2.418 . S
Eu161 O173 2.384 . S
Eu161 O176 2.479 . S
Eu161 O177 2.471 . S
Eu161 O178 2.347 . S
Eu161 O181 2.366 . S
Eu161 C191 2.825 . S
C162 O178 1.259 . S
C162 O179 1.265 . S
C163 O180 1.255 . S
C163 O181 1.265 . S
C164 C166 1.380 . S
C164 C167 1.374 . S
C164 C170 1.507 . S
C165 C166 1.384 . S
C165 C169 1.387 . S
C165 H192 0.930 . S
C166 C164 1.380 . S
C166 C165 1.384 . S
C166 H193 0.931 . S
C167 C164 1.374 . S
C167 C168 1.390 . S
C167 H194 0.930 . S
C168 C167 1.390 . S
C168 C169 1.391 . S
C168 H195 0.930 . S
C169 C165 1.387 . S
C169 C168 1.391 . S
C170 Tb160 2.825 1_556 S
C170 C164 1.507 . S
C170 O183 1.238 . S
C170 O184 1.247 . S
O171 Tb160 2.347 . S
O171 C175 1.259 . S
O172 Eu161 2.418 . S
O172 C175 1.265 . S
O173 Eu161 2.384 . S
O173 C182 1.255 . S
O174 Tb160 2.366 . S
O174 C182 1.265 . S
C175 O171 1.259 . S
C175 O172 1.265 . S
O176 Eu161 2.479 . S
O176 C191 1.238 . S
O177 Eu161 2.471 . S
O177 C191 1.247 . S
O178 Eu161 2.347 . S
O178 C162 1.259 . S
O179 Tb160 2.418 . S
O179 C162 1.265 . S
O180 Tb160 2.384 . S
O180 C163 1.255 . S
O181 Eu161 2.366 . S
O181 C163 1.265 . S
C182 O173 1.255 . S
C182 O174 1.265 . S
O183 Tb160 2.479 1_556 S
O183 C170 1.238 . S
O184 Tb160 2.471 1_556 S
O184 C170 1.247 . S
C185 C188 1.380 . S
C185 C189 1.374 . S
C185 C191 1.507 . S
C186 C187 1.387 . S
C186 C190 1.391 . S
C187 C186 1.387 . S
C187 C188 1.384 . S
C187 H196 0.930 . S
C188 C185 1.380 . S
C188 C187 1.384 . S
C188 H197 0.931 . S
C189 C185 1.374 . S
C189 C190 1.390 . S
C189 H198 0.930 . S
C190 C186 1.391 . S
C190 C189 1.390 . S
C190 H199 0.930 . S
C191 Eu161 2.825 . S
C191 O176 1.238 . S
C191 O177 1.247 . S
C191 C185 1.507 . S
H192 C165 0.930 . S
H193 C166 0.931 . S
H194 C167 0.930 . S
H195 C168 0.930 . S
H196 C187 0.930 . S
H197 C188 0.931 . S
H198 C189 0.930 . S
H199 C190 0.930 . S
Tb200 C210 2.825 . S
Tb200 O211 2.347 . S
Tb200 O214 2.366 . S
Tb200 O219 2.418 . S
Tb200 O220 2.384 . S
Tb200 O223 2.479 . S
Tb200 O224 2.471 . S
Eu201 O212 2.418 . S
Eu201 O213 2.384 . S
Eu201 O216 2.479 1_556 S
Eu201 O217 2.471 1_556 S
Eu201 O218 2.347 . S
Eu201 O221 2.366 . S
Eu201 C231 2.825 1_556 S
C202 O218 1.259 . S
C202 O219 1.265 . S
C203 O220 1.255 . S
C203 O221 1.265 . S
C204 C206 1.380 . S
C204 C207 1.374 . S
C204 C210 1.507 . S
C205 C206 1.384 . S
C205 C209 1.387 . S
C205 H232 0.930 . S
C206 C204 1.380 . S
C206 C205 1.384 . S
C206 H233 0.931 . S
C207 C204 1.374 . S
C207 C208 1.390 . S
C207 H234 0.930 . S
C208 C207 1.390 . S
C208 C209 1.391 . S
C208 H235 0.930 . S
C209 C205 1.387 . S
C209 C208 1.391 . S
C210 Tb200 2.825 . S
C210 C204 1.507 . S
C210 O223 1.238 . S
C210 O224 1.247 . S
O211 Tb200 2.347 . S
O211 C215 1.259 . S
O212 Eu201 2.418 . S
O212 C215 1.265 . S
O213 Eu201 2.384 . S
O213 C222 1.255 . S
O214 Tb200 2.366 . S
O214 C222 1.265 . S
C215 O211 1.259 . S
C215 O212 1.265 . S
O216 Eu201 2.479 1_554 S
O216 C231 1.238 . S
O217 Eu201 2.471 1_554 S
O217 C231 1.247 . S
O218 Eu201 2.347 . S
O218 C202 1.259 . S
O219 Tb200 2.418 . S
O219 C202 1.265 . S
O220 Tb200 2.384 . S
O220 C203 1.255 . S
O221 Eu201 2.366 . S
O221 C203 1.265 . S
C222 O213 1.255 . S
C222 O214 1.265 . S
O223 Tb200 2.479 . S
O223 C210 1.238 . S
O224 Tb200 2.471 . S
O224 C210 1.247 . S
C225 C228 1.380 . S
C225 C229 1.374 . S
C225 C231 1.507 . S
C226 C227 1.387 . S
C226 C230 1.391 . S
C227 C226 1.387 . S
C227 C228 1.384 . S
C227 H236 0.930 . S
C228 C225 1.380 . S
C228 C227 1.384 . S
C228 H237 0.931 . S
C229 C225 1.374 . S
C229 C230 1.390 . S
C229 H238 0.930 . S
C230 C226 1.391 . S
C230 C229 1.390 . S
C230 H239 0.930 . S
C231 Eu201 2.825 1_554 S
C231 O216 1.238 . S
C231 O217 1.247 . S
C231 C225 1.507 . S
H232 C205 0.930 . S
H233 C206 0.931 . S
H234 C207 0.930 . S
H235 C208 0.930 . S
H236 C227 0.930 . S
H237 C228 0.931 . S
H238 C229 0.930 . S
H239 C230 0.930 . S
Tb240 C250 2.825 1_554 S
Tb240 O251 2.347 . S
Tb240 O254 2.366 . S
Tb240 O259 2.418 . S
Tb240 O260 2.384 . S
Tb240 O263 2.479 1_554 S
Tb240 O264 2.471 1_554 S
Eu241 O252 2.418 . S
Eu241 O253 2.384 . S
Eu241 O256 2.479 . S
Eu241 O257 2.471 . S
Eu241 O258 2.347 . S
Eu241 O261 2.366 . S
Eu241 C271 2.825 . S
C242 O258 1.259 . S
C242 O259 1.265 . S
C243 O260 1.255 . S
C243 O261 1.265 . S
C244 C246 1.380 . S
C244 C247 1.374 . S
C244 C250 1.507 . S
C245 C246 1.384 . S
C245 C249 1.387 . S
C245 H272 0.930 . S
C246 C244 1.380 . S
C246 C245 1.384 . S
C246 H273 0.931 . S
C247 C244 1.374 . S
C247 C248 1.390 . S
C247 H274 0.930 . S
C248 C247 1.390 . S
C248 C249 1.391 . S
C248 H275 0.930 . S
C249 C245 1.387 . S
C249 C248 1.391 . S
C250 Tb240 2.825 1_556 S
C250 C244 1.507 . S
C250 O263 1.238 . S
C250 O264 1.247 . S
O251 Tb240 2.347 . S
O251 C255 1.259 . S
O252 Eu241 2.418 . S
O252 C255 1.265 . S
O253 Eu241 2.384 . S
O253 C262 1.255 . S
O254 Tb240 2.366 . S
O254 C262 1.265 . S
C255 O251 1.259 . S
C255 O252 1.265 . S
O256 Eu241 2.479 . S
O256 C271 1.238 . S
O257 Eu241 2.471 . S
O257 C271 1.247 . S
O258 Eu241 2.347 . S
O258 C242 1.259 . S
O259 Tb240 2.418 . S
O259 C242 1.265 . S
O260 Tb240 2.384 . S
O260 C243 1.255 . S
O261 Eu241 2.366 . S
O261 C243 1.265 . S
C262 O253 1.255 . S
C262 O254 1.265 . S
O263 Tb240 2.479 1_556 S
O263 C250 1.238 . S
O264 Tb240 2.471 1_556 S
O264 C250 1.247 . S
C265 C268 1.380 . S
C265 C269 1.374 . S
C265 C271 1.507 . S
C266 C267 1.387 . S
C266 C270 1.391 . S
C267 C266 1.387 . S
C267 C268 1.384 . S
C267 H276 0.930 . S
C268 C265 1.380 . S
C268 C267 1.384 . S
C268 H277 0.931 . S
C269 C265 1.374 . S
C269 C270 1.390 . S
C269 H278 0.930 . S
C270 C266 1.391 . S
C270 C269 1.390 . S
C270 H279 0.930 . S
C271 Eu241 2.825 . S
C271 O256 1.238 . S
C271 O257 1.247 . S
C271 C265 1.507 . S
H272 C245 0.930 . S
H273 C246 0.931 . S
H274 C247 0.930 . S
H275 C248 0.930 . S
H276 C267 0.930 . S
H277 C268 0.931 . S
H278 C269 0.930 . S
H279 C270 0.930 . S
Tb280 C290 2.825 . S
Tb280 O291 2.347 . S
Tb280 O294 2.366 . S
Tb280 O299 2.418 . S
Tb280 O300 2.384 . S
Tb280 O303 2.479 . S
Tb280 O304 2.471 . S
Eu281 O292 2.418 . S
Eu281 O293 2.384 . S
Eu281 O296 2.479 1_556 S
Eu281 O297 2.471 1_556 S
Eu281 O298 2.347 . S
Eu281 O301 2.366 . S
Eu281 C311 2.825 1_556 S
C282 O298 1.259 . S
C282 O299 1.265 . S
C283 O300 1.255 . S
C283 O301 1.265 . S
C284 C286 1.380 . S
C284 C287 1.374 . S
C284 C290 1.507 . S
C285 C286 1.384 . S
C285 C289 1.387 . S
C285 H312 0.930 . S
C286 C284 1.380 . S
C286 C285 1.384 . S
C286 H313 0.931 . S
C287 C284 1.374 . S
C287 C288 1.390 . S
C287 H314 0.930 . S
C288 C287 1.390 . S
C288 C289 1.391 . S
C288 H315 0.930 . S
C289 C285 1.387 . S
C289 C288 1.391 . S
C290 Tb280 2.825 . S
C290 C284 1.507 . S
C290 O303 1.238 . S
C290 O304 1.247 . S
O291 Tb280 2.347 . S
O291 C295 1.259 . S
O292 Eu281 2.418 . S
O292 C295 1.265 . S
O293 Eu281 2.384 . S
O293 C302 1.255 . S
O294 Tb280 2.366 . S
O294 C302 1.265 . S
C295 O291 1.259 . S
C295 O292 1.265 . S
O296 Eu281 2.479 1_554 S
O296 C311 1.238 . S
O297 Eu281 2.471 1_554 S
O297 C311 1.247 . S
O298 Eu281 2.347 . S
O298 C282 1.259 . S
O299 Tb280 2.418 . S
O299 C282 1.265 . S
O300 Tb280 2.384 . S
O300 C283 1.255 . S
O301 Eu281 2.366 . S
O301 C283 1.265 . S
C302 O293 1.255 . S
C302 O294 1.265 . S
O303 Tb280 2.479 . S
O303 C290 1.238 . S
O304 Tb280 2.471 . S
O304 C290 1.247 . S
C305 C308 1.380 . S
C305 C309 1.374 . S
C305 C311 1.507 . S
C306 C307 1.387 . S
C306 C310 1.391 . S
C307 C306 1.387 . S
C307 C308 1.384 . S
C307 H316 0.930 . S
C308 C305 1.380 . S
C308 C307 1.384 . S
C308 H317 0.931 . S
C309 C305 1.374 . S
C309 C310 1.390 . S
C309 H318 0.930 . S
C310 C306 1.391 . S
C310 C309 1.390 . S
C310 H319 0.930 . S
C311 Eu281 2.825 1_554 S
C311 O296 1.238 . S
C311 O297 1.247 . S
C311 C305 1.507 . S
H312 C285 0.930 . S
H313 C286 0.931 . S
H314 C287 0.930 . S
H315 C288 0.930 . S
H316 C307 0.930 . S
H317 C308 0.931 . S
H318 C309 0.930 . S
H319 C310 0.930 . S
Tb320 C330 2.825 . S
Tb320 O331 2.347 . S
Tb320 O334 2.366 . S
Tb320 O339 2.418 . S
Tb320 O340 2.384 . S
Tb320 O343 2.479 . S
Tb320 O344 2.471 . S
Eu321 O332 2.418 . S
Eu321 O333 2.384 . S
Eu321 O336 2.479 . S
Eu321 O337 2.471 . S
Eu321 O338 2.347 . S
Eu321 O341 2.366 . S
Eu321 C351 2.825 . S
C322 O338 1.259 . S
C322 O339 1.265 . S
C323 O340 1.255 . S
C323 O341 1.265 . S
C324 C326 1.380 . S
C324 C327 1.374 . S
C324 C330 1.507 . S
C325 C326 1.384 . S
C325 C329 1.387 1_556 S
C325 H352 0.930 1_556 S
C326 C324 1.380 . S
C326 C325 1.384 . S
C326 H353 0.931 . S
C327 C324 1.374 . S
C327 C328 1.390 . S
C327 H354 0.930 . S
C328 C327 1.390 . S
C328 C329 1.391 1_556 S
C328 H355 0.930 . S
C329 C325 1.387 1_554 S
C329 C328 1.391 1_554 S
C330 Tb320 2.825 . S
C330 C324 1.507 . S
C330 O343 1.238 . S
C330 O344 1.247 . S
O331 Tb320 2.347 . S
O331 C335 1.259 . S
O332 Eu321 2.418 . S
O332 C335 1.265 . S
O333 Eu321 2.384 . S
O333 C342 1.255 . S
O334 Tb320 2.366 . S
O334 C342 1.265 . S
C335 O331 1.259 . S
C335 O332 1.265 . S
O336 Eu321 2.479 . S
O336 C351 1.238 . S
O337 Eu321 2.471 . S
O337 C351 1.247 . S
O338 Eu321 2.347 . S
O338 C322 1.259 . S
O339 Tb320 2.418 . S
O339 C322 1.265 . S
O340 Tb320 2.384 . S
O340 C323 1.255 . S
O341 Eu321 2.366 . S
O341 C323 1.265 . S
C342 O333 1.255 . S
C342 O334 1.265 . S
O343 Tb320 2.479 . S
O343 C330 1.238 . S
O344 Tb320 2.471 . S
O344 C330 1.247 . S
C345 C348 1.380 . S
C345 C349 1.374 . S
C345 C351 1.507 . S
C346 C347 1.387 . S
C346 C350 1.391 . S
C347 C346 1.387 . S
C347 C348 1.384 . S
C347 H356 0.930 . S
C348 C345 1.380 . S
C348 C347 1.384 . S
C348 H357 0.931 . S
C349 C345 1.374 . S
C349 C350 1.390 . S
C349 H358 0.930 . S
C350 C346 1.391 . S
C350 C349 1.390 . S
C350 H359 0.930 . S
C351 Eu321 2.825 . S
C351 O336 1.238 . S
C351 O337 1.247 . S
C351 C345 1.507 . S
H352 C325 0.930 1_554 S
H353 C326 0.931 . S
H354 C327 0.930 . S
H355 C328 0.930 . S
H356 C347 0.930 . S
H357 C348 0.931 . S
H358 C349 0.930 . S
H359 C350 0.930 . S
Tb360 C370 2.825 . S
Tb360 O371 2.347 . S
Tb360 O374 2.366 . S
Tb360 O379 2.418 . S
Tb360 O380 2.384 . S
Tb360 O383 2.479 . S
Tb360 O384 2.471 . S
Eu361 O372 2.418 . S
Eu361 O373 2.384 . S
Eu361 O376 2.479 . S
Eu361 O377 2.471 . S
Eu361 O378 2.347 . S
Eu361 O381 2.366 . S
Eu361 C391 2.825 . S
C362 O378 1.259 . S
C362 O379 1.265 . S
C363 O380 1.255 . S
C363 O381 1.265 . S
C364 C366 1.380 . S
C364 C367 1.374 . S
C364 C370 1.507 . S
C365 C366 1.384 . S
C365 C369 1.387 . S
C365 H392 0.930 . S
C366 C364 1.380 . S
C366 C365 1.384 . S
C366 H393 0.931 . S
C367 C364 1.374 . S
C367 C368 1.390 . S
C367 H394 0.930 . S
C368 C367 1.390 . S
C368 C369 1.391 . S
C368 H395 0.930 . S
C369 C365 1.387 . S
C369 C368 1.391 . S
C370 Tb360 2.825 . S
C370 C364 1.507 . S
C370 O383 1.238 . S
C370 O384 1.247 . S
O371 Tb360 2.347 . S
O371 C375 1.259 . S
O372 Eu361 2.418 . S
O372 C375 1.265 . S
O373 Eu361 2.384 . S
O373 C382 1.255 . S
O374 Tb360 2.366 . S
O374 C382 1.265 . S
C375 O371 1.259 . S
C375 O372 1.265 . S
O376 Eu361 2.479 . S
O376 C391 1.238 . S
O377 Eu361 2.471 . S
O377 C391 1.247 . S
O378 Eu361 2.347 . S
O378 C362 1.259 . S
O379 Tb360 2.418 . S
O379 C362 1.265 . S
O380 Tb360 2.384 . S
O380 C363 1.255 . S
O381 Eu361 2.366 . S
O381 C363 1.265 . S
C382 O373 1.255 . S
C382 O374 1.265 . S
O383 Tb360 2.479 . S
O383 C370 1.238 . S
O384 Tb360 2.471 . S
O384 C370 1.247 . S
C385 C388 1.380 . S
C385 C389 1.374 . S
C385 C391 1.507 . S
C386 C387 1.387 1_556 S
C386 C390 1.391 1_556 S
C387 C386 1.387 1_554 S
C387 C388 1.384 . S
C387 H396 0.930 1_554 S
C388 C385 1.380 . S
C388 C387 1.384 . S
C388 H397 0.931 . S
C389 C385 1.374 . S
C389 C390 1.390 . S
C389 H398 0.930 . S
C390 C386 1.391 1_554 S
C390 C389 1.390 . S
C390 H399 0.930 . S
C391 Eu361 2.825 . S
C391 O376 1.238 . S
C391 O377 1.247 . S
C391 C385 1.507 . S
H392 C365 0.930 . S
H393 C366 0.931 . S
H394 C367 0.930 . S
H395 C368 0.930 . S
H396 C387 0.930 1_556 S
H397 C388 0.931 . S
H398 C389 0.930 . S
H399 C390 0.930 . S
Tb400 C410 2.825 . S
Tb400 O411 2.347 . S
Tb400 O414 2.366 . S
Tb400 O419 2.418 . S
Tb400 O420 2.384 . S
Tb400 O423 2.479 . S
Tb400 O424 2.471 . S
Eu401 O412 2.418 . S
Eu401 O413 2.384 . S
Eu401 O416 2.479 . S
Eu401 O417 2.471 . S
Eu401 O418 2.347 . S
Eu401 O421 2.366 . S
Eu401 C431 2.825 . S
C402 O418 1.259 . S
C402 O419 1.265 . S
C403 O420 1.255 . S
C403 O421 1.265 . S
C404 C406 1.380 . S
C404 C407 1.374 . S
C404 C410 1.507 . S
C405 C406 1.384 . S
C405 C409 1.387 1_556 S
C405 H432 0.930 1_556 S
C406 C404 1.380 . S
C406 C405 1.384 . S
C406 H433 0.931 . S
C407 C404 1.374 . S
C407 C408 1.390 . S
C407 H434 0.930 . S
C408 C407 1.390 . S
C408 C409 1.391 1_556 S
C408 H435 0.930 . S
C409 C405 1.387 1_554 S
C409 C408 1.391 1_554 S
C410 Tb400 2.825 . S
C410 C404 1.507 . S
C410 O423 1.238 . S
C410 O424 1.247 . S
O411 Tb400 2.347 . S
O411 C415 1.259 . S
O412 Eu401 2.418 . S
O412 C415 1.265 . S
O413 Eu401 2.384 . S
O413 C422 1.255 . S
O414 Tb400 2.366 . S
O414 C422 1.265 . S
C415 O411 1.259 . S
C415 O412 1.265 . S
O416 Eu401 2.479 . S
O416 C431 1.238 . S
O417 Eu401 2.471 . S
O417 C431 1.247 . S
O418 Eu401 2.347 . S
O418 C402 1.259 . S
O419 Tb400 2.418 . S
O419 C402 1.265 . S
O420 Tb400 2.384 . S
O420 C403 1.255 . S
O421 Eu401 2.366 . S
O421 C403 1.265 . S
C422 O413 1.255 . S
C422 O414 1.265 . S
O423 Tb400 2.479 . S
O423 C410 1.238 . S
O424 Tb400 2.471 . S
O424 C410 1.247 . S
C425 C428 1.380 . S
C425 C429 1.374 . S
C425 C431 1.507 . S
C426 C427 1.387 . S
C426 C430 1.391 . S
C427 C426 1.387 . S
C427 C428 1.384 . S
C427 H436 0.930 . S
C428 C425 1.380 . S
C428 C427 1.384 . S
C428 H437 0.931 . S
C429 C425 1.374 . S
C429 C430 1.390 . S
C429 H438 0.930 . S
C430 C426 1.391 . S
C430 C429 1.390 . S
C430 H439 0.930 . S
C431 Eu401 2.825 . S
C431 O416 1.238 . S
C431 O417 1.247 . S
C431 C425 1.507 . S
H432 C405 0.930 1_554 S
H433 C406 0.931 . S
H434 C407 0.930 . S
H435 C408 0.930 . S
H436 C427 0.930 . S
H437 C428 0.931 . S
H438 C429 0.930 . S
H439 C430 0.930 . S
Tb440 C450 2.825 . S
Tb440 O451 2.347 . S
Tb440 O454 2.366 . S
Tb440 O459 2.418 . S
Tb440 O460 2.384 . S
Tb440 O463 2.479 . S
Tb440 O464 2.471 . S
Eu441 O452 2.418 . S
Eu441 O453 2.384 . S
Eu441 O456 2.479 . S
Eu441 O457 2.471 . S
Eu441 O458 2.347 . S
Eu441 O461 2.366 . S
Eu441 C471 2.825 . S
C442 O458 1.259 . S
C442 O459 1.265 . S
C443 O460 1.255 . S
C443 O461 1.265 . S
C444 C446 1.380 . S
C444 C447 1.374 . S
C444 C450 1.507 . S
C445 C446 1.384 . S
C445 C449 1.387 . S
C445 H472 0.930 . S
C446 C444 1.380 . S
C446 C445 1.384 . S
C446 H473 0.931 . S
C447 C444 1.374 . S
C447 C448 1.390 . S
C447 H474 0.930 . S
C448 C447 1.390 . S
C448 C449 1.391 . S
C448 H475 0.930 . S
C449 C445 1.387 . S
C449 C448 1.391 . S
C450 Tb440 2.825 . S
C450 C444 1.507 . S
C450 O463 1.238 . S
C450 O464 1.247 . S
O451 Tb440 2.347 . S
O451 C455 1.259 . S
O452 Eu441 2.418 . S
O452 C455 1.265 . S
O453 Eu441 2.384 . S
O453 C462 1.255 . S
O454 Tb440 2.366 . S
O454 C462 1.265 . S
C455 O451 1.259 . S
C455 O452 1.265 . S
O456 Eu441 2.479 . S
O456 C471 1.238 . S
O457 Eu441 2.471 . S
O457 C471 1.247 . S
O458 Eu441 2.347 . S
O458 C442 1.259 . S
O459 Tb440 2.418 . S
O459 C442 1.265 . S
O460 Tb440 2.384 . S
O460 C443 1.255 . S
O461 Eu441 2.366 . S
O461 C443 1.265 . S
C462 O453 1.255 . S
C462 O454 1.265 . S
O463 Tb440 2.479 . S
O463 C450 1.238 . S
O464 Tb440 2.471 . S
O464 C450 1.247 . S
C465 C468 1.380 . S
C465 C469 1.374 . S
C465 C471 1.507 . S
C466 C467 1.387 1_556 S
C466 C470 1.391 1_556 S
C467 C466 1.387 1_554 S
C467 C468 1.384 . S
C467 H476 0.930 1_554 S
C468 C465 1.380 . S
C468 C467 1.384 . S
C468 H477 0.931 . S
C469 C465 1.374 . S
C469 C470 1.390 . S
C469 H478 0.930 . S
C470 C466 1.391 1_554 S
C470 C469 1.390 . S
C470 H479 0.930 . S
C471 Eu441 2.825 . S
C471 O456 1.238 . S
C471 O457 1.247 . S
C471 C465 1.507 . S
H472 C445 0.930 . S
H473 C446 0.931 . S
H474 C447 0.930 . S
H475 C448 0.930 . S
H476 C467 0.930 1_556 S
H477 C468 0.931 . S
H478 C469 0.930 . S
H479 C470 0.930 . S
Tb480 C490 2.825 . S
Tb480 O491 2.347 . S
Tb480 O494 2.366 . S
Tb480 O499 2.418 . S
Tb480 O500 2.384 . S
Tb480 O503 2.479 . S
Tb480 O504 2.471 . S
Eu481 O492 2.418 . S
Eu481 O493 2.384 . S
Eu481 O496 2.479 . S
Eu481 O497 2.471 . S
Eu481 O498 2.347 . S
Eu481 O501 2.366 . S
Eu481 C511 2.825 . S
C482 O498 1.259 . S
C482 O499 1.265 . S
C483 O500 1.255 . S
C483 O501 1.265 . S
C484 C486 1.380 . S
C484 C487 1.374 . S
C484 C490 1.507 . S
C485 C486 1.384 . S
C485 C489 1.387 . S
C485 H512 0.930 . S
C486 C484 1.380 . S
C486 C485 1.384 . S
C486 H513 0.931 . S
C487 C484 1.374 . S
C487 C488 1.390 . S
C487 H514 0.930 . S
C488 C487 1.390 . S
C488 C489 1.391 . S
C488 H515 0.930 . S
C489 C485 1.387 . S
C489 C488 1.391 . S
C490 Tb480 2.825 . S
C490 C484 1.507 . S
C490 O503 1.238 . S
C490 O504 1.247 . S
O491 Tb480 2.347 . S
O491 C495 1.259 . S
O492 Eu481 2.418 . S
O492 C495 1.265 . S
O493 Eu481 2.384 . S
O493 C502 1.255 . S
O494 Tb480 2.366 . S
O494 C502 1.265 . S
C495 O491 1.259 . S
C495 O492 1.265 . S
O496 Eu481 2.479 . S
O496 C511 1.238 . S
O497 Eu481 2.471 . S
O497 C511 1.247 . S
O498 Eu481 2.347 . S
O498 C482 1.259 . S
O499 Tb480 2.418 . S
O499 C482 1.265 . S
O500 Tb480 2.384 . S
O500 C483 1.255 . S
O501 Eu481 2.366 . S
O501 C483 1.265 . S
C502 O493 1.255 . S
C502 O494 1.265 . S
O503 Tb480 2.479 . S
O503 C490 1.238 . S
O504 Tb480 2.471 . S
O504 C490 1.247 . S
C505 C508 1.380 . S
C505 C509 1.374 . S
C505 C511 1.507 . S
C506 C507 1.387 1_554 S
C506 C510 1.391 1_554 S
C507 C506 1.387 1_556 S
C507 C508 1.384 . S
C507 H516 0.930 1_556 S
C508 C505 1.380 . S
C508 C507 1.384 . S
C508 H517 0.931 . S
C509 C505 1.374 . S
C509 C510 1.390 . S
C509 H518 0.930 . S
C510 C506 1.391 1_556 S
C510 C509 1.390 . S
C510 H519 0.930 . S
C511 Eu481 2.825 . S
C511 O496 1.238 . S
C511 O497 1.247 . S
C511 C505 1.507 . S
H512 C485 0.930 . S
H513 C486 0.931 . S
H514 C487 0.930 . S
H515 C488 0.930 . S
H516 C507 0.930 1_554 S
H517 C508 0.931 . S
H518 C509 0.930 . S
H519 C510 0.930 . S
Tb520 C530 2.825 . S
Tb520 O531 2.347 . S
Tb520 O534 2.366 . S
Tb520 O539 2.418 . S
Tb520 O540 2.384 . S
Tb520 O543 2.479 . S
Tb520 O544 2.471 . S
Eu521 O532 2.418 . S
Eu521 O533 2.384 . S
Eu521 O536 2.479 . S
Eu521 O537 2.471 . S
Eu521 O538 2.347 . S
Eu521 O541 2.366 . S
Eu521 C551 2.825 . S
C522 O538 1.259 . S
C522 O539 1.265 . S
C523 O540 1.255 . S
C523 O541 1.265 . S
C524 C526 1.380 . S
C524 C527 1.374 . S
C524 C530 1.507 . S
C525 C526 1.384 . S
C525 C529 1.387 1_554 S
C525 H552 0.930 1_554 S
C526 C524 1.380 . S
C526 C525 1.384 . S
C526 H553 0.931 . S
C527 C524 1.374 . S
C527 C528 1.390 . S
C527 H554 0.930 . S
C528 C527 1.390 . S
C528 C529 1.391 1_554 S
C528 H555 0.930 . S
C529 C525 1.387 1_556 S
C529 C528 1.391 1_556 S
C530 Tb520 2.825 . S
C530 C524 1.507 . S
C530 O543 1.238 . S
C530 O544 1.247 . S
O531 Tb520 2.347 . S
O531 C535 1.259 . S
O532 Eu521 2.418 . S
O532 C535 1.265 . S
O533 Eu521 2.384 . S
O533 C542 1.255 . S
O534 Tb520 2.366 . S
O534 C542 1.265 . S
C535 O531 1.259 . S
C535 O532 1.265 . S
O536 Eu521 2.479 . S
O536 C551 1.238 . S
O537 Eu521 2.471 . S
O537 C551 1.247 . S
O538 Eu521 2.347 . S
O538 C522 1.259 . S
O539 Tb520 2.418 . S
O539 C522 1.265 . S
O540 Tb520 2.384 . S
O540 C523 1.255 . S
O541 Eu521 2.366 . S
O541 C523 1.265 . S
C542 O533 1.255 . S
C542 O534 1.265 . S
O543 Tb520 2.479 . S
O543 C530 1.238 . S
O544 Tb520 2.471 . S
O544 C530 1.247 . S
C545 C548 1.380 . S
C545 C549 1.374 . S
C545 C551 1.507 . S
C546 C547 1.387 . S
C546 C550 1.391 . S
C547 C546 1.387 . S
C547 C548 1.384 . S
C547 H556 0.930 . S
C548 C545 1.380 . S
C548 C547 1.384 . S
C548 H557 0.931 . S
C549 C545 1.374 . S
C549 C550 1.390 . S
C549 H558 0.930 . S
C550 C546 1.391 . S
C550 C549 1.390 . S
C550 H559 0.930 . S
C551 Eu521 2.825 . S
C551 O536 1.238 . S
C551 O537 1.247 . S
C551 C545 1.507 . S
H552 C525 0.930 1_556 S
H553 C526 0.931 . S
H554 C527 0.930 . S
H555 C528 0.930 . S
H556 C547 0.930 . S
H557 C548 0.931 . S
H558 C549 0.930 . S
H559 C550 0.930 . S
Tb560 C570 2.825 . S
Tb560 O571 2.347 . S
Tb560 O574 2.366 . S
Tb560 O579 2.418 . S
Tb560 O580 2.384 . S
Tb560 O583 2.479 . S
Tb560 O584 2.471 . S
Eu561 O572 2.418 . S
Eu561 O573 2.384 . S
Eu561 O576 2.479 . S
Eu561 O577 2.471 . S
Eu561 O578 2.347 . S
Eu561 O581 2.366 . S
Eu561 C591 2.825 . S
C562 O578 1.259 . S
C562 O579 1.265 . S
C563 O580 1.255 . S
C563 O581 1.265 . S
C564 C566 1.380 . S
C564 C567 1.374 . S
C564 C570 1.507 . S
C565 C566 1.384 . S
C565 C569 1.387 . S
C565 H592 0.930 . S
C566 C564 1.380 . S
C566 C565 1.384 . S
C566 H593 0.931 . S
C567 C564 1.374 . S
C567 C568 1.390 . S
C567 H594 0.930 . S
C568 C567 1.390 . S
C568 C569 1.391 . S
C568 H595 0.930 . S
C569 C565 1.387 . S
C569 C568 1.391 . S
C570 Tb560 2.825 . S
C570 C564 1.507 . S
C570 O583 1.238 . S
C570 O584 1.247 . S
O571 Tb560 2.347 . S
O571 C575 1.259 . S
O572 Eu561 2.418 . S
O572 C575 1.265 . S
O573 Eu561 2.384 . S
O573 C582 1.255 . S
O574 Tb560 2.366 . S
O574 C582 1.265 . S
C575 O571 1.259 . S
C575 O572 1.265 . S
O576 Eu561 2.479 . S
O576 C591 1.238 . S
O577 Eu561 2.471 . S
O577 C591 1.247 . S
O578 Eu561 2.347 . S
O578 C562 1.259 . S
O579 Tb560 2.418 . S
O579 C562 1.265 . S
O580 Tb560 2.384 . S
O580 C563 1.255 . S
O581 Eu561 2.366 . S
O581 C563 1.265 . S
C582 O573 1.255 . S
C582 O574 1.265 . S
O583 Tb560 2.479 . S
O583 C570 1.238 . S
O584 Tb560 2.471 . S
O584 C570 1.247 . S
C585 C588 1.380 . S
C585 C589 1.374 . S
C585 C591 1.507 . S
C586 C587 1.387 1_554 S
C586 C590 1.391 1_554 S
C587 C586 1.387 1_556 S
C587 C588 1.384 . S
C587 H596 0.930 1_556 S
C588 C585 1.380 . S
C588 C587 1.384 . S
C588 H597 0.931 . S
C589 C585 1.374 . S
C589 C590 1.390 . S
C589 H598 0.930 . S
C590 C586 1.391 1_556 S
C590 C589 1.390 . S
C590 H599 0.930 . S
C591 Eu561 2.825 . S
C591 O576 1.238 . S
C591 O577 1.247 . S
C591 C585 1.507 . S
H592 C565 0.930 . S
H593 C566 0.931 . S
H594 C567 0.930 . S
H595 C568 0.930 . S
H596 C587 0.930 1_554 S
H597 C588 0.931 . S
H598 C589 0.930 . S
H599 C590 0.930 . S
Tb600 C610 2.825 . S
Tb600 O611 2.347 . S
Tb600 O614 2.366 . S
Tb600 O619 2.418 . S
Tb600 O620 2.384 . S
Tb600 O623 2.479 . S
Tb600 O624 2.471 . S
Eu601 O612 2.418 . S
Eu601 O613 2.384 . S
Eu601 O616 2.479 . S
Eu601 O617 2.471 . S
Eu601 O618 2.347 . S
Eu601 O621 2.366 . S
Eu601 C631 2.825 . S
C602 O618 1.259 . S
C602 O619 1.265 . S
C603 O620 1.255 . S
C603 O621 1.265 . S
C604 C606 1.380 . S
C604 C607 1.374 . S
C604 C610 1.507 . S
C605 C606 1.384 . S
C605 C609 1.387 1_554 S
C605 H632 0.930 1_554 S
C606 C604 1.380 . S
C606 C605 1.384 . S
C606 H633 0.931 . S
C607 C604 1.374 . S
C607 C608 1.390 . S
C607 H634 0.930 . S
C608 C607 1.390 . S
C608 C609 1.391 1_554 S
C608 H635 0.930 . S
C609 C605 1.387 1_556 S
C609 C608 1.391 1_556 S
C610 Tb600 2.825 . S
C610 C604 1.507 . S
C610 O623 1.238 . S
C610 O624 1.247 . S
O611 Tb600 2.347 . S
O611 C615 1.259 . S
O612 Eu601 2.418 . S
O612 C615 1.265 . S
O613 Eu601 2.384 . S
O613 C622 1.255 . S
O614 Tb600 2.366 . S
O614 C622 1.265 . S
C615 O611 1.259 . S
C615 O612 1.265 . S
O616 Eu601 2.479 . S
O616 C631 1.238 . S
O617 Eu601 2.471 . S
O617 C631 1.247 . S
O618 Eu601 2.347 . S
O618 C602 1.259 . S
O619 Tb600 2.418 . S
O619 C602 1.265 . S
O620 Tb600 2.384 . S
O620 C603 1.255 . S
O621 Eu601 2.366 . S
O621 C603 1.265 . S
C622 O613 1.255 . S
C622 O614 1.265 . S
O623 Tb600 2.479 . S
O623 C610 1.238 . S
O624 Tb600 2.471 . S
O624 C610 1.247 . S
C625 C628 1.380 . S
C625 C629 1.374 . S
C625 C631 1.507 . S
C626 C627 1.387 . S
C626 C630 1.391 . S
C627 C626 1.387 . S
C627 C628 1.384 . S
C627 H636 0.930 . S
C628 C625 1.380 . S
C628 C627 1.384 . S
C628 H637 0.931 . S
C629 C625 1.374 . S
C629 C630 1.390 . S
C629 H638 0.930 . S
C630 C626 1.391 . S
C630 C629 1.390 . S
C630 H639 0.930 . S
C631 Eu601 2.825 . S
C631 O616 1.238 . S
C631 O617 1.247 . S
C631 C625 1.507 . S
H632 C605 0.930 1_556 S
H633 C606 0.931 . S
H634 C607 0.930 . S
H635 C608 0.930 . S
H636 C627 0.930 . S
H637 C628 0.931 . S
H638 C629 0.930 . S
H639 C630 0.930 . S
C640 C641 1.369 . S
C640 C642 1.419 . S
C640 H644 0.930 . S
C641 C640 1.369 . S
C641 C650 1.429 . S
C642 C640 1.419 . S
C642 C643 1.363 . S
C642 H645 0.929 1_565 S
C643 C642 1.363 . S
C643 C649 1.428 . S
H644 C640 0.930 . S
H645 C642 0.929 1_545 S
S646 N647 1.613 . S
S646 N648 1.610 . S
N647 S646 1.613 . S
N647 C650 1.350 . S
N648 S646 1.610 . S
N648 C649 1.351 . S
C649 C643 1.428 . S
C649 N648 1.351 . S
C649 C650 1.434 . S
C650 C641 1.429 . S
C650 N647 1.350 . S
C650 C649 1.434 . S
C651 C652 1.369 . S
C651 C653 1.419 . S
C651 H655 0.930 . S
C652 C651 1.369 . S
C652 C661 1.429 . S
C653 C651 1.419 . S
C653 C654 1.363 . S
C653 H656 0.929 . S
C654 C653 1.363 . S
C654 C660 1.428 . S
H655 C651 0.930 . S
H656 C653 0.929 . S
S657 N658 1.613 1_455 S
S657 N659 1.610 . S
N658 S657 1.613 1_655 S
N658 C661 1.350 . S
N659 S657 1.610 . S
N659 C660 1.351 1_455 S
C660 C654 1.428 . S
C660 N659 1.351 1_655 S
C660 C661 1.434 . S
C661 C652 1.429 . S
C661 N658 1.350 . S
C661 C660 1.434 . S
C662 C663 1.369 . S
C662 C664 1.419 . S
C662 H666 0.930 . S
C663 C662 1.369 . S
C663 C672 1.429 . S
C664 C662 1.419 . S
C664 C665 1.363 . S
C664 H667 0.929 . S
C665 C664 1.363 . S
C665 C671 1.428 . S
H666 C662 0.930 . S
H667 C664 0.929 . S
S668 N669 1.613 . S
S668 N670 1.610 1_565 S
N669 S668 1.613 . S
N669 C672 1.350 1_565 S
N670 S668 1.610 1_545 S
N670 C671 1.351 . S
C671 C665 1.428 . S
C671 N670 1.351 . S
C671 C672 1.434 . S
C672 C663 1.429 . S
C672 N669 1.350 1_545 S
C672 C671 1.434 . S
C673 C674 1.369 . S
C673 C675 1.419 . S
C673 H677 0.930 . S
C674 C673 1.369 . S
C674 C683 1.429 . S
C675 C673 1.419 . S
C675 C676 1.363 . S
C675 H678 0.929 . S
C676 C675 1.363 . S
C676 C682 1.428 . S
H677 C673 0.930 . S
H678 C675 0.929 . S
S679 N680 1.613 1_455 S
S679 N681 1.610 . S
N680 S679 1.613 1_655 S
N680 C683 1.350 1_655 S
N681 S679 1.610 . S
N681 C682 1.351 . S
C682 C676 1.428 . S
C682 N681 1.351 . S
C682 C683 1.434 . S
C683 C674 1.429 . S
C683 N680 1.350 1_455 S
C683 C682 1.434 . S
C684 C685 1.369 . S
C684 C686 1.419 1_554 S
C684 H688 0.930 1_554 S
C685 C684 1.369 . S
C685 C694 1.429 . S
C686 C684 1.419 1_556 S
C686 C687 1.363 1_556 S
C686 H689 0.929 . S
C687 C686 1.363 1_554 S
C687 C693 1.428 . S
H688 C684 0.930 1_556 S
H689 C686 0.929 . S
S690 N691 1.613 . S
S690 N692 1.610 . S
N691 S690 1.613 . S
N691 C694 1.350 . S
N692 S690 1.610 . S
N692 C693 1.351 . S
C693 C687 1.428 . S
C693 N692 1.351 . S
C693 C694 1.434 . S
C694 C685 1.429 . S
C694 N691 1.350 . S
C694 C693 1.434 . S
C695 C696 1.369 . S
C695 C697 1.419 . S
C695 H699 0.930 1_556 S
C696 C695 1.369 . S
C696 C705 1.429 . S
C697 C695 1.419 . S
C697 C698 1.363 . S
C697 H700 0.929 . S
C698 C697 1.363 . S
C698 C704 1.428 . S
H699 C695 0.930 1_554 S
H700 C697 0.929 . S
S701 N702 1.613 . S
S701 N703 1.610 . S
N702 S701 1.613 . S
N702 C705 1.350 . S
N703 S701 1.610 . S
N703 C704 1.351 . S
C704 C698 1.428 . S
C704 N703 1.351 . S
C704 C705 1.434 . S
C705 C696 1.429 . S
C705 N702 1.350 . S
C705 C704 1.434 . S
C706 C707 1.369 . S
C706 C708 1.419 . S
C706 H710 0.930 . S
C707 C706 1.369 . S
C707 C716 1.429 . S
C708 C706 1.419 . S
C708 C709 1.363 . S
C708 H711 0.929 . S
C709 C708 1.363 . S
C709 C715 1.428 . S
H710 C706 0.930 . S
H711 C708 0.929 . S
S712 N713 1.613 . S
S712 N714 1.610 . S
N713 S712 1.613 . S
N713 C716 1.350 . S
N714 S712 1.610 . S
N714 C715 1.351 . S
C715 C709 1.428 . S
C715 N714 1.351 . S
C715 C716 1.434 . S
C716 C707 1.429 . S
C716 N713 1.350 . S
C716 C715 1.434 . S
C717 C718 1.369 . S
C717 C719 1.419 . S
C717 H721 0.930 1_556 S
C718 C717 1.369 . S
C718 C727 1.429 . S
C719 C717 1.419 . S
C719 C720 1.363 . S
C719 H722 0.929 . S
C720 C719 1.363 . S
C720 C726 1.428 . S
H721 C717 0.930 1_554 S
H722 C719 0.929 . S
S723 N724 1.613 . S
S723 N725 1.610 . S
N724 S723 1.613 . S
N724 C727 1.350 . S
N725 S723 1.610 . S
N725 C726 1.351 . S
C726 C720 1.428 . S
C726 N725 1.351 . S
C726 C727 1.434 . S
C727 C718 1.429 . S
C727 N724 1.350 . S
C727 C726 1.434 . S
C728 C729 1.369 . S
C728 C730 1.419 . S
C728 H732 0.930 . S
C729 C728 1.369 . S
C729 C738 1.429 . S
C730 C728 1.419 . S
C730 C731 1.363 . S
C730 H733 0.929 . S
C731 C730 1.363 . S
C731 C737 1.428 . S
H732 C728 0.930 . S
H733 C730 0.929 . S
S734 N735 1.613 . S
S734 N736 1.610 . S
N735 S734 1.613 . S
N735 C738 1.350 . S
N736 S734 1.610 . S
N736 C737 1.351 . S
C737 C731 1.428 . S
C737 N736 1.351 . S
C737 C738 1.434 . S
C738 C729 1.429 . S
C738 N735 1.350 . S
C738 C737 1.434 . S
C739 C740 1.369 . S
C739 C741 1.419 . S
C739 H743 0.930 . S
C740 C739 1.369 . S
C740 C749 1.429 . S
C741 C739 1.419 . S
C741 C742 1.363 . S
C741 H744 0.929 . S
C742 C741 1.363 . S
C742 C748 1.428 . S
H743 C739 0.930 . S
H744 C741 0.929 . S
S745 N746 1.613 . S
S745 N747 1.610 . S
N746 S745 1.613 . S
N746 C749 1.350 . S
N747 S745 1.610 . S
N747 C748 1.351 . S
C748 C742 1.428 . S
C748 N747 1.351 . S
C748 C749 1.434 . S
C749 C740 1.429 . S
C749 N746 1.350 . S
C749 C748 1.434 . S
C750 C751 1.369 . S
C750 C752 1.419 . S
C750 H754 0.930 . S
C751 C750 1.369 . S
C751 C760 1.429 . S
C752 C750 1.419 . S
C752 C753 1.363 . S
C752 H755 0.929 . S
C753 C752 1.363 . S
C753 C759 1.428 . S
H754 C750 0.930 . S
H755 C752 0.929 . S
S756 N757 1.613 . S
S756 N758 1.610 . S
N757 S756 1.613 . S
N757 C760 1.350 . S
N758 S756 1.610 . S
N758 C759 1.351 . S
C759 C753 1.428 . S
C759 N758 1.351 . S
C759 C760 1.434 . S
C760 C751 1.429 . S
C760 N757 1.350 . S
C760 C759 1.434 . S
C761 C762 1.369 . S
C761 C763 1.419 . S
C761 H765 0.930 . S
C762 C761 1.369 . S
C762 C771 1.429 . S
C763 C761 1.419 . S
C763 C764 1.363 . S
C763 H766 0.929 . S
C764 C763 1.363 . S
C764 C770 1.428 . S
H765 C761 0.930 . S
H766 C763 0.929 . S
S767 N768 1.613 . S
S767 N769 1.610 . S
N768 S767 1.613 . S
N768 C771 1.350 . S
N769 S767 1.610 . S
N769 C770 1.351 . S
C770 C764 1.428 . S
C770 N769 1.351 . S
C770 C771 1.434 . S
C771 C762 1.429 . S
C771 N768 1.350 . S
C771 C770 1.434 . S
C772 C773 1.369 . S
C772 C774 1.419 . S
C772 H776 0.930 . S
C773 C772 1.369 . S
C773 C782 1.429 . S
C774 C772 1.419 . S
C774 C775 1.363 . S
C774 H777 0.929 . S
C775 C774 1.363 . S
C775 C781 1.428 . S
H776 C772 0.930 . S
H777 C774 0.929 . S
S778 N779 1.613 1_545 S
S778 N780 1.610 . S
N779 S778 1.613 1_565 S
N779 C782 1.350 1_565 S
N780 S778 1.610 . S
N780 C781 1.351 . S
C781 C775 1.428 . S
C781 N780 1.351 . S
C781 C782 1.434 . S
C782 C773 1.429 . S
C782 N779 1.350 1_545 S
C782 C781 1.434 . S
C783 C784 1.369 . S
C783 C785 1.419 . S
C783 H787 0.930 . S
C784 C783 1.369 . S
C784 C793 1.429 . S
C785 C783 1.419 . S
C785 C786 1.363 . S
C785 H788 0.929 1_455 S
C786 C785 1.363 . S
C786 C792 1.428 . S
H787 C783 0.930 . S
H788 C785 0.929 1_655 S
S789 N790 1.613 . S
S789 N791 1.610 . S
N790 S789 1.613 . S
N790 C793 1.350 . S
N791 S789 1.610 . S
N791 C792 1.351 . S
C792 C786 1.428 . S
C792 N791 1.351 . S
C792 C793 1.434 . S
C793 C784 1.429 . S
C793 N790 1.350 . S
C793 C792 1.434 . S
C794 C795 1.369 . S
C794 C796 1.419 . S
C794 H798 0.930 . S
C795 C794 1.369 . S
C795 C804 1.429 . S
C796 C794 1.419 . S
C796 C797 1.363 . S
C796 H799 0.929 . S
C797 C796 1.363 . S
C797 C803 1.428 . S
H798 C794 0.930 . S
H799 C796 0.929 . S
S800 N801 1.613 1_545 S
S800 N802 1.610 . S
N801 S800 1.613 1_565 S
N801 C804 1.350 . S
N802 S800 1.610 . S
N802 C803 1.351 1_545 S
C803 C797 1.428 . S
C803 N802 1.351 1_565 S
C803 C804 1.434 . S
C804 C795 1.429 . S
C804 N801 1.350 . S
C804 C803 1.434 . S
C805 C806 1.369 . S
C805 C807 1.419 . S
C805 H809 0.930 . S
C806 C805 1.369 . S
C806 C815 1.429 . S
C807 C805 1.419 . S
C807 C808 1.363 . S
C807 H810 0.929 . S
C808 C807 1.363 . S
C808 C814 1.428 . S
H809 C805 0.930 . S
H810 C807 0.929 . S
S811 N812 1.613 . S
S811 N813 1.610 1_455 S
N812 S811 1.613 . S
N812 C815 1.350 1_455 S
N813 S811 1.610 1_655 S
N813 C814 1.351 . S
C814 C808 1.428 . S
C814 N813 1.351 . S
C814 C815 1.434 . S
C815 C806 1.429 . S
C815 N812 1.350 1_655 S
C815 C814 1.434 . S
C816 C817 1.369 . S
C816 C818 1.419 . S
C816 H820 0.930 . S
C817 C816 1.369 . S
C817 C826 1.429 . S
C818 C816 1.419 . S
C818 C819 1.363 . S
C818 H821 0.929 . S
C819 C818 1.363 . S
C819 C825 1.428 . S
H820 C816 0.930 . S
H821 C818 0.929 . S
S822 N823 1.613 . S
S822 N824 1.610 . S
N823 S822 1.613 . S
N823 C826 1.350 . S
N824 S822 1.610 . S
N824 C825 1.351 . S
C825 C819 1.428 . S
C825 N824 1.351 . S
C825 C826 1.434 . S
C826 C817 1.429 . S
C826 N823 1.350 . S
C826 C825 1.434 . S
C827 C828 1.369 . S
C827 C829 1.419 . S
C827 H831 0.930 . S
C828 C827 1.369 . S
C828 C837 1.429 . S
C829 C827 1.419 . S
C829 C830 1.363 . S
C829 H832 0.929 . S
C830 C829 1.363 . S
C830 C836 1.428 . S
H831 C827 0.930 . S
H832 C829 0.929 . S
S833 N834 1.613 . S
S833 N835 1.610 . S
N834 S833 1.613 . S
N834 C837 1.350 . S
N835 S833 1.610 . S
N835 C836 1.351 . S
C836 C830 1.428 . S
C836 N835 1.351 . S
C836 C837 1.434 . S
C837 C828 1.429 . S
C837 N834 1.350 . S
C837 C836 1.434 . S
C838 C839 1.369 . S
C838 C840 1.419 . S
C838 H842 0.930 . S
C839 C838 1.369 . S
C839 C848 1.429 . S
C840 C838 1.419 . S
C840 C841 1.363 . S
C840 H843 0.929 . S
C841 C840 1.363 . S
C841 C847 1.428 . S
H842 C838 0.930 . S
H843 C840 0.929 . S
S844 N845 1.613 . S
S844 N846 1.610 . S
N845 S844 1.613 . S
N845 C848 1.350 . S
N846 S844 1.610 . S
N846 C847 1.351 . S
C847 C841 1.428 . S
C847 N846 1.351 . S
C847 C848 1.434 . S
C848 C839 1.429 . S
C848 N845 1.350 . S
C848 C847 1.434 . S
C849 C850 1.369 . S
C849 C851 1.419 . S
C849 H853 0.930 . S
C850 C849 1.369 . S
C850 C859 1.429 . S
C851 C849 1.419 . S
C851 C852 1.363 . S
C851 H854 0.929 . S
C852 C851 1.363 . S
C852 C858 1.428 . S
H853 C849 0.930 . S
H854 C851 0.929 . S
S855 N856 1.613 1_554 S
S855 N857 1.610 1_554 S
N856 S855 1.613 1_556 S
N856 C859 1.350 . S
N857 S855 1.610 1_556 S
N857 C858 1.351 . S
C858 C852 1.428 . S
C858 N857 1.351 . S
C858 C859 1.434 . S
C859 C850 1.429 . S
C859 N856 1.350 . S
C859 C858 1.434 . S
C860 C861 1.369 . S
C860 C862 1.419 . S
C860 H864 0.930 . S
C861 C860 1.369 . S
C861 C870 1.429 . S
C862 C860 1.419 . S
C862 C863 1.363 . S
C862 H865 0.929 . S
C863 C862 1.363 . S
C863 C869 1.428 . S
H864 C860 0.930 . S
H865 C862 0.929 . S
S866 N867 1.613 . S
S866 N868 1.610 . S
N867 S866 1.613 . S
N867 C870 1.350 . S
N868 S866 1.610 . S
N868 C869 1.351 . S
C869 C863 1.428 . S
C869 N868 1.351 . S
C869 C870 1.434 . S
C870 C861 1.429 . S
C870 N867 1.350 . S
C870 C869 1.434 . S
C871 C872 1.369 . S
C871 C873 1.419 . S
C871 H875 0.930 . S
C872 C871 1.369 . S
C872 C881 1.429 . S
C873 C871 1.419 . S
C873 C874 1.363 . S
C873 H876 0.929 . S
C874 C873 1.363 . S
C874 C880 1.428 . S
H875 C871 0.930 . S
H876 C873 0.929 . S
S877 N878 1.613 . S
S877 N879 1.610 . S
N878 S877 1.613 . S
N878 C881 1.350 . S
N879 S877 1.610 . S
N879 C880 1.351 . S
C880 C874 1.428 . S
C880 N879 1.351 . S
C880 C881 1.434 . S
C881 C872 1.429 . S
C881 N878 1.350 . S
C881 C880 1.434 . S
C882 C883 1.369 . S
C882 C884 1.419 . S
C882 H886 0.930 . S
C883 C882 1.369 . S
C883 C892 1.429 . S
C884 C882 1.419 . S
C884 C885 1.363 . S
C884 H887 0.929 . S
C885 C884 1.363 . S
C885 C891 1.428 . S
H886 C882 0.930 . S
H887 C884 0.929 . S
S888 N889 1.613 . S
S888 N890 1.610 . S
N889 S888 1.613 . S
N889 C892 1.350 . S
N890 S888 1.610 . S
N890 C891 1.351 . S
C891 C885 1.428 . S
C891 N890 1.351 . S
C891 C892 1.434 . S
C892 C883 1.429 . S
C892 N889 1.350 . S
C892 C891 1.434 . S
C893 C894 1.369 . S
C893 C895 1.419 . S
C893 H897 0.930 . S
C894 C893 1.369 . S
C894 C903 1.429 . S
C895 C893 1.419 . S
C895 C896 1.363 . S
C895 H898 0.929 . S
C896 C895 1.363 . S
C896 C902 1.428 . S
H897 C893 0.930 . S
H898 C895 0.929 . S
S899 N900 1.613 . S
S899 N901 1.610 . S
N900 S899 1.613 . S
N900 C903 1.350 . S
N901 S899 1.610 . S
N901 C902 1.351 . S
C902 C896 1.428 . S
C902 N901 1.351 . S
C902 C903 1.434 . S
C903 C894 1.429 . S
C903 N900 1.350 . S
C903 C902 1.434 . S
C904 C905 1.369 . S
C904 C906 1.419 . S
C904 H908 0.930 . S
C905 C904 1.369 . S
C905 C914 1.429 . S
C906 C904 1.419 . S
C906 C907 1.363 . S
C906 H909 0.929 . S
C907 C906 1.363 . S
C907 C913 1.428 . S
H908 C904 0.930 . S
H909 C906 0.929 . S
S910 N911 1.613 . S
S910 N912 1.610 . S
N911 S910 1.613 . S
N911 C914 1.350 . S
N912 S910 1.610 . S
N912 C913 1.351 . S
C913 C907 1.428 . S
C913 N912 1.351 . S
C913 C914 1.434 . S
C914 C905 1.429 . S
C914 N911 1.350 . S
C914 C913 1.434 . S
C915 C916 1.369 . S
C915 C917 1.419 . S
C915 H919 0.930 . S
C916 C915 1.369 . S
C916 C925 1.429 . S
C917 C915 1.419 . S
C917 C918 1.363 . S
C917 H920 0.929 . S
C918 C917 1.363 . S
C918 C924 1.428 . S
H919 C915 0.930 . S
H920 C917 0.929 . S
S921 N922 1.613 . S
S921 N923 1.610 . S
N922 S921 1.613 . S
N922 C925 1.350 . S
N923 S921 1.610 . S
N923 C924 1.351 . S
C924 C918 1.428 . S
C924 N923 1.351 . S
C924 C925 1.434 . S
C925 C916 1.429 . S
C925 N922 1.350 . S
C925 C924 1.434 . S
C926 C927 1.369 . S
C926 C928 1.419 . S
C926 H930 0.930 . S
C927 C926 1.369 . S
C927 C936 1.429 . S
C928 C926 1.419 . S
C928 C929 1.363 . S
C928 H931 0.929 . S
C929 C928 1.363 . S
C929 C935 1.428 . S
H930 C926 0.930 . S
H931 C928 0.929 . S
S932 N933 1.613 . S
S932 N934 1.610 . S
N933 S932 1.613 . S
N933 C936 1.350 . S
N934 S932 1.610 . S
N934 C935 1.351 . S
C935 C929 1.428 . S
C935 N934 1.351 . S
C935 C936 1.434 . S
C936 C927 1.429 . S
C936 N933 1.350 . S
C936 C935 1.434 . S
C937 C938 1.369 . S
C937 C939 1.419 . S
C937 H941 0.930 . S
C938 C937 1.369 . S
C938 C947 1.429 . S
C939 C937 1.419 . S
C939 C940 1.363 . S
C939 H942 0.929 . S
C940 C939 1.363 . S
C940 C946 1.428 . S
H941 C937 0.930 . S
H942 C939 0.929 . S
S943 N944 1.613 . S
S943 N945 1.610 . S
N944 S943 1.613 . S
N944 C947 1.350 . S
N945 S943 1.610 . S
N945 C946 1.351 . S
C946 C940 1.428 . S
C946 N945 1.351 . S
C946 C947 1.434 . S
C947 C938 1.429 . S
C947 N944 1.350 . S
C947 C946 1.434 . S
C948 C949 1.369 . S
C948 C950 1.419 . S
C948 H952 0.930 . S
C949 C948 1.369 . S
C949 C958 1.429 . S
C950 C948 1.419 . S
C950 C951 1.363 . S
C950 H953 0.929 . S
C951 C950 1.363 . S
C951 C957 1.428 . S
H952 C948 0.930 . S
H953 C950 0.929 . S
S954 N955 1.613 . S
S954 N956 1.610 . S
N955 S954 1.613 . S
N955 C958 1.350 . S
N956 S954 1.610 . S
N956 C957 1.351 . S
C957 C951 1.428 . S
C957 N956 1.351 . S
C957 C958 1.434 . S
C958 C949 1.429 . S
C958 N955 1.350 . S
C958 C957 1.434 . S
C959 C960 1.369 . S
C959 C961 1.419 . S
C959 H963 0.930 . S
C960 C959 1.369 . S
C960 C969 1.429 . S
C961 C959 1.419 . S
C961 C962 1.363 . S
C961 H964 0.929 . S
C962 C961 1.363 . S
C962 C968 1.428 . S
H963 C959 0.930 . S
H964 C961 0.929 . S
S965 N966 1.613 . S
S965 N967 1.610 . S
N966 S965 1.613 . S
N966 C969 1.350 . S
N967 S965 1.610 . S
N967 C968 1.351 . S
C968 C962 1.428 . S
C968 N967 1.351 . S
C968 C969 1.434 . S
C969 C960 1.429 . S
C969 N966 1.350 . S
C969 C968 1.434 . S
C970 C971 1.369 . S
C970 C972 1.419 . S
C970 H974 0.930 . S
C971 C970 1.369 . S
C971 C980 1.429 . S
C972 C970 1.419 . S
C972 C973 1.363 . S
C972 H975 0.929 . S
C973 C972 1.363 . S
C973 C979 1.428 . S
H974 C970 0.930 . S
H975 C972 0.929 . S
S976 N977 1.613 . S
S976 N978 1.610 . S
N977 S976 1.613 . S
N977 C980 1.350 . S
N978 S976 1.610 . S
N978 C979 1.351 . S
C979 C973 1.428 . S
C979 N978 1.351 . S
C979 C980 1.434 . S
C980 C971 1.429 . S
C980 N977 1.350 . S
C980 C979 1.434 . S
C981 C982 1.369 . S
C981 C983 1.419 . S
C981 H985 0.930 . S
C982 C981 1.369 . S
C982 C991 1.429 . S
C983 C981 1.419 . S
C983 C984 1.363 . S
C983 H986 0.929 . S
C984 C983 1.363 . S
C984 C990 1.428 . S
H985 C981 0.930 . S
H986 C983 0.929 . S
S987 N988 1.613 . S
S987 N989 1.610 . S
N988 S987 1.613 . S
N988 C991 1.350 . S
N989 S987 1.610 . S
N989 C990 1.351 . S
C990 C984 1.428 . S
C990 N989 1.351 . S
C990 C991 1.434 . S
C991 C982 1.429 . S
C991 N988 1.350 . S
C991 C990 1.434 . S
C992 C993 1.369 . S
C992 C994 1.419 . S
C992 H996 0.930 . S
C993 C992 1.369 . S
C993 C1002 1.429 . S
C994 C992 1.419 . S
C994 C995 1.363 . S
C994 H997 0.929 . S
C995 C994 1.363 . S
C995 C1001 1.428 . S
H996 C992 0.930 . S
H997 C994 0.929 . S
S998 N999 1.613 . S
S998 N1000 1.610 . S
N999 S998 1.613 . S
N999 C1002 1.350 . S
N1000 S998 1.610 . S
N1000 C1001 1.351 . S
C1001 C995 1.428 . S
C1001 N1000 1.351 . S
C1001 C1002 1.434 . S
C1002 C993 1.429 . S
C1002 N999 1.350 . S
C1002 C1001 1.434 . S
C1003 C1004 1.369 . S
C1003 C1005 1.419 . S
C1003 H1007 0.930 . S
C1004 C1003 1.369 . S
C1004 C1013 1.429 . S
C1005 C1003 1.419 . S
C1005 C1006 1.363 . S
C1005 H1008 0.929 . S
C1006 C1005 1.363 . S
C1006 C1012 1.428 . S
H1007 C1003 0.930 . S
H1008 C1005 0.929 . S
S1009 N1010 1.613 . S
S1009 N1011 1.610 . S
N1010 S1009 1.613 . S
N1010 C1013 1.350 . S
N1011 S1009 1.610 . S
N1011 C1012 1.351 . S
C1012 C1006 1.428 . S
C1012 N1011 1.351 . S
C1012 C1013 1.434 . S
C1013 C1004 1.429 . S
C1013 N1010 1.350 . S
C1013 C1012 1.434 . S
C1014 C1015 1.369 . S
C1014 C1016 1.419 . S
C1014 H1018 0.930 . S
C1015 C1014 1.369 . S
C1015 C1024 1.429 . S
C1016 C1014 1.419 . S
C1016 C1017 1.363 . S
C1016 H1019 0.929 . S
C1017 C1016 1.363 . S
C1017 C1023 1.428 . S
H1018 C1014 0.930 . S
H1019 C1016 0.929 . S
S1020 N1021 1.613 . S
S1020 N1022 1.610 . S
N1021 S1020 1.613 . S
N1021 C1024 1.350 . S
N1022 S1020 1.610 . S
N1022 C1023 1.351 . S
C1023 C1017 1.428 . S
C1023 N1022 1.351 . S
C1023 C1024 1.434 . S
C1024 C1015 1.429 . S
C1024 N1021 1.350 . S
C1024 C1023 1.434 . S
C1025 C1026 1.369 . S
C1025 C1027 1.419 . S
C1025 H1029 0.930 . S
C1026 C1025 1.369 . S
C1026 C1035 1.429 . S
C1027 C1025 1.419 . S
C1027 C1028 1.363 . S
C1027 H1030 0.929 . S
C1028 C1027 1.363 . S
C1028 C1034 1.428 . S
H1029 C1025 0.930 . S
H1030 C1027 0.929 . S
S1031 N1032 1.613 . S
S1031 N1033 1.610 . S
N1032 S1031 1.613 . S
N1032 C1035 1.350 . S
N1033 S1031 1.610 . S
N1033 C1034 1.351 . S
C1034 C1028 1.428 . S
C1034 N1033 1.351 . S
C1034 C1035 1.434 . S
C1035 C1026 1.429 . S
C1035 N1032 1.350 . S
C1035 C1034 1.434 . S
C1036 C1037 1.369 . S
C1036 C1038 1.419 . S
C1036 H1040 0.930 . S
C1037 C1036 1.369 . S
C1037 C1046 1.429 . S
C1038 C1036 1.419 . S
C1038 C1039 1.363 . S
C1038 H1041 0.929 . S
C1039 C1038 1.363 . S
C1039 C1045 1.428 . S
H1040 C1036 0.930 . S
H1041 C1038 0.929 . S
S1042 N1043 1.613 . S
S1042 N1044 1.610 . S
N1043 S1042 1.613 . S
N1043 C1046 1.350 . S
N1044 S1042 1.610 . S
N1044 C1045 1.351 . S
C1045 C1039 1.428 . S
C1045 N1044 1.351 . S
C1045 C1046 1.434 . S
C1046 C1037 1.429 . S
C1046 N1043 1.350 . S
C1046 C1045 1.434 . S
C1047 C1048 1.369 . S
C1047 C1049 1.419 . S
C1047 H1051 0.930 . S
C1048 C1047 1.369 . S
C1048 C1057 1.429 . S
C1049 C1047 1.419 . S
C1049 C1050 1.363 . S
C1049 H1052 0.929 . S
C1050 C1049 1.363 . S
C1050 C1056 1.428 . S
H1051 C1047 0.930 . S
H1052 C1049 0.929 . S
S1053 N1054 1.613 . S
S1053 N1055 1.610 . S
N1054 S1053 1.613 . S
N1054 C1057 1.350 . S
N1055 S1053 1.610 . S
N1055 C1056 1.351 . S
C1056 C1050 1.428 . S
C1056 N1055 1.351 . S
C1056 C1057 1.434 . S
C1057 C1048 1.429 . S
C1057 N1054 1.350 . S
C1057 C1056 1.434 . S
C1058 C1059 1.369 . S
C1058 C1060 1.419 . S
C1058 H1062 0.930 . S
C1059 C1058 1.369 . S
C1059 C1068 1.429 . S
C1060 C1058 1.419 . S
C1060 C1061 1.363 . S
C1060 H1063 0.929 . S
C1061 C1060 1.363 . S
C1061 C1067 1.428 . S
H1062 C1058 0.930 . S
H1063 C1060 0.929 . S
S1064 N1065 1.613 . S
S1064 N1066 1.610 . S
N1065 S1064 1.613 . S
N1065 C1068 1.350 . S
N1066 S1064 1.610 . S
N1066 C1067 1.351 . S
C1067 C1061 1.428 . S
C1067 N1066 1.351 . S
C1067 C1068 1.434 . S
C1068 C1059 1.429 . S
C1068 N1065 1.350 . S
C1068 C1067 1.434 . S
C1069 C1070 1.369 . S
C1069 C1071 1.419 . S
C1069 H1073 0.930 . S
C1070 C1069 1.369 . S
C1070 C1079 1.429 . S
C1071 C1069 1.419 . S
C1071 C1072 1.363 . S
C1071 H1074 0.929 . S
C1072 C1071 1.363 . S
C1072 C1078 1.428 . S
H1073 C1069 0.930 . S
H1074 C1071 0.929 . S
S1075 N1076 1.613 . S
S1075 N1077 1.610 . S
N1076 S1075 1.613 . S
N1076 C1079 1.350 . S
N1077 S1075 1.610 . S
N1077 C1078 1.351 . S
C1078 C1072 1.428 . S
C1078 N1077 1.351 . S
C1078 C1079 1.434 . S
C1079 C1070 1.429 . S
C1079 N1076 1.350 . S
C1079 C1078 1.434 . S
C1080 C1081 1.369 . S
C1080 C1082 1.419 . S
C1080 H1084 0.930 . S
C1081 C1080 1.369 . S
C1081 C1090 1.429 . S
C1082 C1080 1.419 . S
C1082 C1083 1.363 . S
C1082 H1085 0.929 . S
C1083 C1082 1.363 . S
C1083 C1089 1.428 . S
H1084 C1080 0.930 . S
H1085 C1082 0.929 . S
S1086 N1087 1.613 . S
S1086 N1088 1.610 . S
N1087 S1086 1.613 . S
N1087 C1090 1.350 . S
N1088 S1086 1.610 . S
N1088 C1089 1.351 . S
C1089 C1083 1.428 . S
C1089 N1088 1.351 . S
C1089 C1090 1.434 . S
C1090 C1081 1.429 . S
C1090 N1087 1.350 . S
C1090 C1089 1.434 . S
C1091 C1092 1.369 . S
C1091 C1093 1.419 . S
C1091 H1095 0.930 . S
C1092 C1091 1.369 . S
C1092 C1101 1.429 . S
C1093 C1091 1.419 . S
C1093 C1094 1.363 . S
C1093 H1096 0.929 . S
C1094 C1093 1.363 . S
C1094 C1100 1.428 . S
H1095 C1091 0.930 . S
H1096 C1093 0.929 . S
S1097 N1098 1.613 . S
S1097 N1099 1.610 . S
N1098 S1097 1.613 . S
N1098 C1101 1.350 . S
N1099 S1097 1.610 . S
N1099 C1100 1.351 . S
C1100 C1094 1.428 . S
C1100 N1099 1.351 . S
C1100 C1101 1.434 . S
C1101 C1092 1.429 . S
C1101 N1098 1.350 . S
C1101 C1100 1.434 . S
C1102 C1103 1.369 . S
C1102 C1104 1.419 . S
C1102 H1106 0.930 . S
C1103 C1102 1.369 . S
C1103 C1112 1.429 . S
C1104 C1102 1.419 . S
C1104 C1105 1.363 . S
C1104 H1107 0.929 . S
C1105 C1104 1.363 . S
C1105 C1111 1.428 . S
H1106 C1102 0.930 . S
H1107 C1104 0.929 . S
S1108 N1109 1.613 . S
S1108 N1110 1.610 . S
N1109 S1108 1.613 . S
N1109 C1112 1.350 . S
N1110 S1108 1.610 . S
N1110 C1111 1.351 . S
C1111 C1105 1.428 . S
C1111 N1110 1.351 . S
C1111 C1112 1.434 . S
C1112 C1103 1.429 . S
C1112 N1109 1.350 . S
C1112 C1111 1.434 . S
C1113 C1114 1.369 . S
C1113 C1115 1.419 . S
C1113 H1117 0.930 . S
C1114 C1113 1.369 . S
C1114 C1123 1.429 . S
C1115 C1113 1.419 . S
C1115 C1116 1.363 . S
C1115 H1118 0.929 . S
C1116 C1115 1.363 . S
C1116 C1122 1.428 . S
H1117 C1113 0.930 . S
H1118 C1115 0.929 . S
S1119 N1120 1.613 . S
S1119 N1121 1.610 . S
N1120 S1119 1.613 . S
N1120 C1123 1.350 . S
N1121 S1119 1.610 . S
N1121 C1122 1.351 . S
C1122 C1116 1.428 . S
C1122 N1121 1.351 . S
C1122 C1123 1.434 . S
C1123 C1114 1.429 . S
C1123 N1120 1.350 . S
C1123 C1122 1.434 . S
C1124 C1125 1.369 . S
C1124 C1126 1.419 . S
C1124 H1128 0.930 . S
C1125 C1124 1.369 . S
C1125 C1134 1.429 . S
C1126 C1124 1.419 . S
C1126 C1127 1.363 . S
C1126 H1129 0.929 . S
C1127 C1126 1.363 . S
C1127 C1133 1.428 . S
H1128 C1124 0.930 . S
H1129 C1126 0.929 . S
S1130 N1131 1.613 . S
S1130 N1132 1.610 . S
N1131 S1130 1.613 . S
N1131 C1134 1.350 . S
N1132 S1130 1.610 . S
N1132 C1133 1.351 . S
C1133 C1127 1.428 . S
C1133 N1132 1.351 . S
C1133 C1134 1.434 . S
C1134 C1125 1.429 . S
C1134 N1131 1.350 . S
C1134 C1133 1.434 . S
C1135 C1136 1.369 . S
C1135 C1137 1.419 . S
C1135 H1139 0.930 . S
C1136 C1135 1.369 . S
C1136 C1145 1.429 . S
C1137 C1135 1.419 . S
C1137 C1138 1.363 . S
C1137 H1140 0.929 . S
C1138 C1137 1.363 . S
C1138 C1144 1.428 . S
H1139 C1135 0.930 . S
H1140 C1137 0.929 . S
S1141 N1142 1.613 . S
S1141 N1143 1.610 . S
N1142 S1141 1.613 . S
N1142 C1145 1.350 . S
N1143 S1141 1.610 . S
N1143 C1144 1.351 . S
C1144 C1138 1.428 . S
C1144 N1143 1.351 . S
C1144 C1145 1.434 . S
C1145 C1136 1.429 . S
C1145 N1142 1.350 . S
C1145 C1144 1.434 . S
C1146 C1147 1.369 . S
C1146 C1148 1.419 . S
C1146 H1150 0.930 . S
C1147 C1146 1.369 . S
C1147 C1156 1.429 . S
C1148 C1146 1.419 . S
C1148 C1149 1.363 . S
C1148 H1151 0.929 . S
C1149 C1148 1.363 . S
C1149 C1155 1.428 . S
H1150 C1146 0.930 . S
H1151 C1148 0.929 . S
S1152 N1153 1.613 . S
S1152 N1154 1.610 . S
N1153 S1152 1.613 . S
N1153 C1156 1.350 . S
N1154 S1152 1.610 . S
N1154 C1155 1.351 . S
C1155 C1149 1.428 . S
C1155 N1154 1.351 . S
C1155 C1156 1.434 . S
C1156 C1147 1.429 . S
C1156 N1153 1.350 . S
C1156 C1155 1.434 . S
C1157 C1158 1.369 . S
C1157 C1159 1.419 . S
C1157 H1161 0.930 . S
C1158 C1157 1.369 . S
C1158 C1167 1.429 . S
C1159 C1157 1.419 . S
C1159 C1160 1.363 . S
C1159 H1162 0.929 . S
C1160 C1159 1.363 . S
C1160 C1166 1.428 . S
H1161 C1157 0.930 . S
H1162 C1159 0.929 . S
S1163 N1164 1.613 . S
S1163 N1165 1.610 . S
N1164 S1163 1.613 . S
N1164 C1167 1.350 . S
N1165 S1163 1.610 . S
N1165 C1166 1.351 . S
C1166 C1160 1.428 . S
C1166 N1165 1.351 . S
C1166 C1167 1.434 . S
C1167 C1158 1.429 . S
C1167 N1164 1.350 . S
C1167 C1166 1.434 . S
C641 C443 1.802 . S
C643 C15 1.761 1_565 S
C652 C342 1.800 . S
C654 C42 1.759 1_655 S
C663 C95 1.758 1_545 S
C665 C363 1.801 . S
C674 C122 1.756 1_455 S
C676 C422 1.801 . S
C685 C175 1.760 . S
C687 C203 1.802 1_554 S
C696 C262 1.801 1_556 S
C698 C202 1.762 . S
C707 C255 1.763 . S
C709 C283 1.801 1_554 S
C718 C182 1.800 1_556 S
C720 C282 1.762 . S
C729 C123 1.803 . S
C731 C335 1.758 . S
C740 C362 1.758 . S
C742 C22 1.801 . S
C751 C43 1.800 . S
C753 C415 1.760 . S
C762 C102 1.803 . S
C764 C442 1.760 . S
C773 C495 1.760 1_545 S
C775 C523 1.800 . S
C784 C582 1.802 . S
C786 C522 1.760 1_455 S
C795 C603 1.800 . S
C797 C575 1.758 1_565 S
C806 C602 1.760 1_655 S
C808 C502 1.800 . S
C817 C2 1.267 . S
C819 C162 1.256 . S
C828 C215 1.266 . S
C830 C55 1.256 . S
C839 C82 1.265 . S
C841 C242 1.257 . S
C850 C135 1.266 . S
C852 C295 1.256 . S
C861 C322 1.254 . S
C863 C482 1.267 . S
C872 C535 1.266 . S
C874 C375 1.256 . S
C883 C402 1.255 . S
C885 C562 1.267 . S
C894 C455 1.266 . S
C896 C615 1.261 . S
C905 C563 2.513 . S
C907 C3 2.507 1_556 S
C916 C62 2.512 1_554 S
C918 C622 2.506 . S
C927 C83 2.507 1_556 S
C929 C483 2.510 . S
C938 C142 2.512 1_554 S
C940 C542 2.506 . S
C949 C163 2.505 . S
C951 C403 2.511 . S
C960 C222 2.505 . S
C962 C462 2.511 . S
C971 C243 2.513 . S
C973 C323 2.507 . S
C982 C382 2.512 . S
C984 C302 2.506 . S
C993 C9 1.188 . S
C995 C26 1.182 . S
C1004 C66 1.181 . S
C1006 C49 1.187 . S
C1015 C89 1.181 . S
C1017 C106 1.187 . S
C1026 C129 1.181 . S
C1028 C146 1.187 . S
C1037 C186 1.181 . S
C1039 C169 1.187 . S
C1048 C226 1.181 . S
C1050 C209 1.187 . S
C1059 C249 1.182 . S
C1061 C266 1.186 . S
C1070 C289 1.181 . S
C1072 C306 1.187 . S
C1081 C329 1.181 . S
C1083 C346 1.187 . S
C1092 C369 1.188 . S
C1094 C386 1.182 . S
C1103 C426 1.181 . S
C1105 C409 1.187 . S
C1114 C466 1.186 . S
C1116 C449 1.183 . S
C1125 C489 1.181 . S
C1127 C506 1.187 . S
C1136 C529 1.188 . S
C1138 C546 1.182 . S
C1147 C586 1.185 . S
C1149 C569 1.184 . S
C1158 C626 1.181 . S
C1160 C609 1.187 . S
