# Generated by pormake.
# Topology uoq, (4)-cn, num edge types: 1
# Building blocks:
#     Node 0, Type 0, BuildingBlock: CEKHIL_clean_sbu_0, # of connection points: 4
#     Node 1, Type 0, BuildingBlock: CEKHIL_clean_sbu_0, # of connection points: 4
#     Node 2, Type 0, BuildingBlock: CEKHIL_clean_sbu_0, # of connection points: 4
#     Node 3, Type 0, BuildingBlock: CEKHIL_clean_sbu_0, # of connection points: 4
#     Node 4, Type 0, BuildingBlock: CEKHIL_clean_sbu_0, # of connection points: 4
#     Node 5, Type 0, BuildingBlock: CEKHIL_clean_sbu_0, # of connection points: 4
#     Node 6, Type 0, BuildingBlock: CEKHIL_clean_sbu_0, # of connection points: 4
#     Node 7, Type 0, BuildingBlock: CEKHIL_clean_sbu_0, # of connection points: 4
#     Node 8, Type 0, BuildingBlock: CEKHIL_clean_sbu_0, # of connection points: 4
#     Node 9, Type 0, BuildingBlock: CEKHIL_clean_sbu_0, # of connection points: 4
#     Node 10, Type 0, BuildingBlock: CEKHIL_clean_sbu_0, # of connection points: 4
#     Node 11, Type 0, BuildingBlock: CEKHIL_clean_sbu_0, # of connection points: 4
#     Edge 12, Type (0, 0), BuildingBlock: AJUNOK_clean_linker_0, # of connection points: 2
#     Edge 13, Type (0, 0), BuildingBlock: AJUNOK_clean_linker_0, # of connection points: 2
#     Edge 14, Type (0, 0), BuildingBlock: AJUNOK_clean_linker_0, # of connection points: 2
#     Edge 15, Type (0, 0), BuildingBlock: AJUNOK_clean_linker_0, # of connection points: 2
#     Edge 16, Type (0, 0), BuildingBlock: AJUNOK_clean_linker_0, # of connection points: 2
#     Edge 17, Type (0, 0), BuildingBlock: AJUNOK_clean_linker_0, # of connection points: 2
#     Edge 18, Type (0, 0), BuildingBlock: AJUNOK_clean_linker_0, # of connection points: 2
#     Edge 19, Type (0, 0), BuildingBlock: AJUNOK_clean_linker_0, # of connection points: 2
#     Edge 20, Type (0, 0), BuildingBlock: AJUNOK_clean_linker_0, # of connection points: 2
#     Edge 21, Type (0, 0), BuildingBlock: AJUNOK_clean_linker_0, # of connection points: 2
#     Edge 22, Type (0, 0), BuildingBlock: AJUNOK_clean_linker_0, # of connection points: 2
#     Edge 23, Type (0, 0), BuildingBlock: AJUNOK_clean_linker_0, # of connection points: 2
#     Edge 24, Type (0, 0), BuildingBlock: AJUNOK_clean_linker_0, # of connection points: 2
#     Edge 25, Type (0, 0), BuildingBlock: AJUNOK_clean_linker_0, # of connection points: 2
#     Edge 26, Type (0, 0), BuildingBlock: AJUNOK_clean_linker_0, # of connection points: 2
#     Edge 27, Type (0, 0), BuildingBlock: AJUNOK_clean_linker_0, # of connection points: 2
#     Edge 28, Type (0, 0), BuildingBlock: AJUNOK_clean_linker_0, # of connection points: 2
#     Edge 29, Type (0, 0), BuildingBlock: AJUNOK_clean_linker_0, # of connection points: 2
#     Edge 30, Type (0, 0), BuildingBlock: AJUNOK_clean_linker_0, # of connection points: 2
#     Edge 31, Type (0, 0), BuildingBlock: AJUNOK_clean_linker_0, # of connection points: 2
#     Edge 32, Type (0, 0), BuildingBlock: AJUNOK_clean_linker_0, # of connection points: 2
#     Edge 33, Type (0, 0), BuildingBlock: AJUNOK_clean_linker_0, # of connection points: 2
#     Edge 34, Type (0, 0), BuildingBlock: AJUNOK_clean_linker_0, # of connection points: 2
#     Edge 35, Type (0, 0), BuildingBlock: AJUNOK_clean_linker_0, # of connection points: 2
# Relax obj value: 0.168
# Max RMSD: 0.159
# Mean RMSD: 0.159
data_MOF--net-uoq--node1-CEKHIL_clean_sbu_0--edge1-AJUNOK_clean_linker_0
_symmetry_space_group_name_H-M    P1
_symmetry_Int_Tables_number       1
_symmetry_cell_setting            triclinic
loop_
_symmetry_equiv_pos_as_xyz
'x, y, z'
_cell_length_a     43.048314
_cell_length_b     42.888494
_cell_length_c     14.977056
_cell_angle_alpha  90.231186
_cell_angle_beta   89.861763
_cell_angle_gamma 119.92397
loop_
_atom_site_label
_atom_site_type_symbol
_atom_site_fract_x
_atom_site_fract_y
_atom_site_fract_z
_atom_type_partial_charge
Co0 Co 0.31683 0.44399 0.29263 0.0
O1 O 0.26986 0.41495 0.23587 0.0
O2 O 0.31009 0.46956 0.1941 0.0
C3 C 0.33191 0.40039 0.30724 0.0
O4 O 0.36741 0.48257 0.32895 0.0
Co5 Co 0.33715 0.4282 0.48208 0.0
O6 O 0.38436 0.47129 0.46131 0.0
C7 C 0.2943 0.46453 0.46427 0.0
C8 C 0.27814 0.44207 0.18322 0.0
C9 C 0.39042 0.49082 0.39245 0.0
O10 O 0.29643 0.46519 0.37846 0.0
O11 O 0.30656 0.44906 0.51422 0.0
O12 O 0.3368 0.41695 0.23122 0.0
O13 O 0.31591 0.4085 0.36735 0.0
Co14 Co 0.88279 0.31802 0.60994 0.0
O15 O 0.86599 0.27212 0.54754 0.0
O16 O 0.85241 0.31319 0.50828 0.0
C17 C 0.94106 0.33286 0.62949 0.0
O18 O 0.89421 0.368 0.65311 0.0
Co19 Co 0.91539 0.33322 0.804 0.0
O20 O 0.91962 0.3809 0.78947 0.0
C21 C 0.83675 0.29329 0.77629 0.0
C22 C 0.84825 0.28139 0.49405 0.0
C23 C 0.9074 0.38898 0.72149 0.0
O24 O 0.83972 0.29599 0.69067 0.0
O25 O 0.86332 0.30407 0.82956 0.0
O26 O 0.93067 0.33932 0.55353 0.0
O27 O 0.91601 0.31537 0.68616 0.0
Co28 Co 0.56713 0.87425 0.97941 0.0
O29 O 0.5942 0.85248 0.93005 0.0
O30 O 0.54372 0.84485 0.87426 0.0
C31 C 0.61429 0.9306 1.00449 0.0
O32 O 0.53139 0.89168 1.00603 0.0
Co33 Co 0.57792 0.90797 0.17087 0.0
O34 O 0.54405 0.92352 0.13376 0.0
C35 C 0.53756 0.82897 0.1457 0.0
C36 C 0.56931 0.83717 0.86971 0.0
C37 C 0.52534 0.91059 0.06356 0.0
O38 O 0.5394 0.83166 0.0599 0.0
O39 O 0.55315 0.85586 0.19869 0.0
O40 O 0.60063 0.92094 0.92469 0.0
O41 O 0.60112 0.90544 0.06285 0.0
Co42 Co 0.70242 0.57275 0.29726 0.0
O43 O 0.74943 0.6019 0.24065 0.0
O44 O 0.70957 0.54713 0.19877 0.0
C45 C 0.68686 0.61611 0.31116 0.0
O46 O 0.65189 0.53401 0.33328 0.0
Co47 Co 0.68146 0.5889 0.48627 0.0
O48 O 0.63458 0.5453 0.46561 0.0
C49 C 0.72468 0.55292 0.46969 0.0
C50 C 0.74139 0.57476 0.18776 0.0
C51 C 0.62878 0.52565 0.39672 0.0
O52 O 0.72289 0.55205 0.38375 0.0
O53 O 0.71242 0.56865 0.51918 0.0
O54 O 0.68225 0.59933 0.23528 0.0
O55 O 0.70285 0.60835 0.37165 0.0
Co56 Co 0.13853 0.70043 0.61928 0.0
O57 O 0.15615 0.74688 0.55978 0.0
O58 O 0.17019 0.70609 0.51943 0.0
C59 C 0.08014 0.6857 0.63585 0.0
O60 O 0.12641 0.65004 0.65954 0.0
Co61 Co 0.1038 0.68378 0.8112 0.0
O62 O 0.09955 0.63615 0.79429 0.0
C63 C 0.18278 0.72327 0.78872 0.0
C64 C 0.17455 0.73803 0.50696 0.0
C65 C 0.11243 0.62856 0.72643 0.0
O66 O 0.18062 0.72145 0.70293 0.0
O67 O 0.15561 0.7119 0.84039 0.0
O68 O 0.09125 0.6798 0.55997 0.0
O69 O 0.10462 0.70265 0.69421 0.0
Co70 Co 0.45041 0.14192 0.97395 0.0
O71 O 0.42135 0.16188 0.92794 0.0
O72 O 0.47269 0.17248 0.87014 0.0
C73 C 0.40494 0.08458 0.99757 0.0
O74 O 0.48825 0.12715 0.99722 0.0
Co75 Co 0.44251 0.10703 0.16183 0.0
O76 O 0.47344 0.08931 0.11344 0.0
C77 C 0.47936 0.18631 0.14224 0.0
C78 C 0.44596 0.17847 0.86756 0.0
C79 C 0.49338 0.10572 1.0473 0.0
O80 O 0.47671 0.18421 0.05646 0.0
O81 O 0.46593 0.15886 0.19346 0.0
O82 O 0.4181 0.09489 0.91759 0.0
O83 O 0.4177 0.10941 0.0572 0.0
Co84 Co 0.56998 0.69882 0.48924 0.0
O85 O 0.59823 0.74527 0.54982 0.0
O86 O 0.54384 0.70399 0.58951 0.0
C87 C 0.61411 0.68462 0.47194 0.0
O88 O 0.53229 0.64833 0.44833 0.0
Co89 Co 0.58802 0.68248 0.29672 0.0
O90 O 0.54496 0.63478 0.31252 0.0
C91 C 0.54778 0.72141 0.32059 0.0
C92 C 0.57103 0.73601 0.60277 0.0
C93 C 0.52479 0.62697 0.38082 0.0
O94 O 0.5483 0.71956 0.40636 0.0
O95 O 0.56377 0.71028 0.26841 0.0
O96 O 0.59718 0.67859 0.54781 0.0
O97 O 0.60618 0.70139 0.41392 0.0
Co98 Co 0.8821 0.57236 0.81919 0.0
O99 O 0.86476 0.6018 0.87783 0.0
O100 O 0.8504 0.54709 0.919 0.0
C101 C 0.94061 0.61555 0.80216 0.0
O102 O 0.89365 0.53341 0.78078 0.0
Co103 Co 0.91686 0.58798 0.6277 0.0
O104 O 0.92043 0.54434 0.64622 0.0
C105 C 0.83815 0.55291 0.6499 0.0
C106 C 0.84611 0.57475 0.93077 0.0
C107 C 0.90763 0.52491 0.71551 0.0
O108 O 0.84011 0.55161 0.73544 0.0
O109 O 0.86548 0.56838 0.59871 0.0
O110 O 0.9294 0.59906 0.87844 0.0
O111 O 0.91623 0.60765 0.74338 0.0
Co112 Co 0.31521 0.87778 0.13363 0.0
O113 O 0.26714 0.85669 0.1861 0.0
O114 O 0.30997 0.84796 0.23717 0.0
C115 C 0.32508 0.93462 0.11151 0.0
O116 O 0.36769 0.89432 0.10204 0.0
Co117 Co 0.33504 0.91154 0.94146 0.0
O118 O 0.38453 0.92526 0.97292 0.0
C119 C 0.29801 0.83255 0.96594 0.0
C120 C 0.27694 0.84078 0.24412 0.0
C121 C 0.39129 0.9122 1.04129 0.0
O122 O 0.29915 0.8352 1.05177 0.0
O123 O 0.30858 0.85937 0.9134 0.0
O124 O 0.3298 0.92473 0.19024 0.0
O125 O 0.31173 0.90936 1.05314 0.0
Co126 Co 0.44776 0.31767 0.48948 0.0
O127 O 0.41846 0.27118 0.54793 0.0
O128 O 0.47263 0.31161 0.59127 0.0
C129 C 0.40417 0.3325 0.47081 0.0
O130 O 0.48622 0.36811 0.45057 0.0
Co131 Co 0.43109 0.33465 0.29638 0.0
O132 O 0.47465 0.38183 0.31411 0.0
C133 C 0.47055 0.29507 0.32106 0.0
C134 C 0.44484 0.27987 0.60305 0.0
C135 C 0.49439 0.38945 0.38312 0.0
O136 O 0.46964 0.29671 0.40694 0.0
O137 O 0.45473 0.30616 0.26875 0.0
O138 O 0.42053 0.33823 0.54733 0.0
O139 O 0.41234 0.31575 0.41287 0.0
Co140 Co 0.13845 0.44556 0.81542 0.0
O141 O 0.15614 0.41628 0.87227 0.0
O142 O 0.16992 0.47067 0.91591 0.0
C143 C 0.08011 0.40197 0.79804 0.0
O144 O 0.12642 0.48426 0.77916 0.0
Co145 Co 0.10347 0.43013 0.62428 0.0
O146 O 0.0993 0.47336 0.64519 0.0
C147 C 0.18232 0.46688 0.64557 0.0
C148 C 0.1744 0.4431 0.9265 0.0
C149 C 0.11215 0.49271 0.71485 0.0
O150 O 0.18046 0.46705 0.73145 0.0
O151 O 0.15501 0.45135 0.59441 0.0
O152 O 0.09123 0.41832 0.8747 0.0
O153 O 0.1045 0.41027 0.7389 0.0
Co154 Co 0.70523 0.13999 0.12665 0.0
O155 O 0.75373 0.16007 0.176 0.0
O156 O 0.71297 0.1723 0.22654 0.0
C157 C 0.69245 0.08193 0.10989 0.0
O158 O 0.65318 0.1257 0.09884 0.0
Co159 Co 0.67973 0.10256 0.94026 0.0
O160 O 0.63087 0.08704 0.98337 0.0
C161 C 0.72178 0.18202 0.95448 0.0
C162 C 0.74553 0.17808 0.23217 0.0
C163 C 0.62709 0.10436 1.04744 0.0
O164 O 0.72206 0.18103 1.04042 0.0
O165 O 0.70809 0.15392 0.90501 0.0
O166 O 0.68944 0.09378 0.18795 0.0
O167 O 0.70553 0.10584 1.04839 0.0
C168 C 0.33218 0.34661 0.36738 0.0
C169 C 0.35165 0.38219 0.33602 0.0
C170 C 0.34903 0.33109 0.41563 0.0
C171 C 0.38536 0.35138 0.43989 0.0
H172 H 0.30363 0.33073 0.35493 0.0
H173 H 0.33354 0.30298 0.43405 0.0
S174 S 0.44784 0.44624 0.37795 0.0
N175 N 0.40962 0.43674 0.32977 0.0
N176 N 0.43983 0.40943 0.43182 0.0
C177 C 0.40477 0.38732 0.41149 0.0
C178 C 0.38828 0.40228 0.35692 0.0
C179 C 0.99451 0.33187 0.68856 0.0
C180 C 0.97845 0.35198 0.66209 0.0
C181 C 0.02661 0.34775 0.73781 0.0
C182 C 0.0424 0.38356 0.76795 0.0
H183 H 0.98214 0.30363 0.671 0.0
H184 H 0.03932 0.33196 0.75197 0.0
S185 S 0.0099 0.44721 0.72079 0.0
N186 N 0.98155 0.41003 0.66721 0.0
N187 N 0.03855 0.43809 0.77103 0.0
C188 C 0.0258 0.40347 0.74492 0.0
C189 C 0.99463 0.38811 0.68936 0.0
C190 C 0.64922 0.99637 0.96907 0.0
C191 C 0.63749 0.96882 1.03241 0.0
C192 C 0.66825 0.03262 0.9949 0.0
C193 C 0.67519 0.0431 0.08558 0.0
H194 H 0.64338 0.98998 0.8989 0.0
H195 H 0.67689 0.05239 0.94247 0.0
S196 S 0.65572 0.98169 0.2769 0.0
N197 N 0.63944 0.95474 0.18948 0.0
N198 N 0.67239 0.0229 0.23775 0.0
C199 C 0.6651 0.01594 0.14936 0.0
C200 C 0.64694 0.97888 0.12283 0.0
C201 C 0.68623 0.67026 0.36862 0.0
C202 C 0.66694 0.63432 0.33916 0.0
C203 C 0.66928 0.68604 0.41598 0.0
C204 C 0.63306 0.66574 0.44126 0.0
H205 H 0.71472 0.68622 0.3554 0.0
H206 H 0.68463 0.71436 0.43303 0.0
S207 S 0.57101 0.57012 0.38379 0.0
N208 N 0.6092 0.57943 0.33541 0.0
N209 N 0.57886 0.60739 0.43584 0.0
C210 C 0.61382 0.6295 0.41465 0.0
C211 C 0.63039 0.6142 0.36095 0.0
C212 C 0.99434 0.67011 0.74463 0.0
C213 C 0.97832 0.63401 0.77197 0.0
C214 C 0.02652 0.6863 0.69564 0.0
C215 C 0.04249 0.66632 0.66663 0.0
H216 H 0.98177 0.68589 0.76092 0.0
H217 H 0.0391 0.71473 0.68054 0.0
S218 S 0.01039 0.57044 0.71722 0.0
N219 N 0.98176 0.57924 0.76936 0.0
N220 N 0.03902 0.60808 0.66623 0.0
C221 C 0.02604 0.6299 0.6909 0.0
C222 C 0.99474 0.61414 0.74614 0.0
C223 C 0.36238 1.00066 0.1433 0.0
C224 C 0.34178 0.97291 0.08298 0.0
C225 C 0.38161 0.03656 0.11518 0.0
C226 C 0.38223 0.0463 1.02484 0.0
H227 H 0.36418 0.99466 0.21265 0.0
H228 H 0.39657 0.05653 0.16538 0.0
S229 S 0.32809 0.9847 0.84256 0.0
N230 N 0.31873 0.95841 0.93054 0.0
N231 N 0.35733 0.0256 0.87727 0.0
C232 C 0.36058 0.01908 0.96446 0.0
C233 C 0.3398 0.98254 0.99362 0.0
C234 C 0.19856 0.41075 1.02117 0.0
C235 C 0.20055 0.44314 0.99344 0.0
C236 C 0.22334 0.41047 0.08279 0.0
C237 C 0.25189 0.44262 0.11775 0.0
H238 H 0.17748 0.38528 0.99558 0.0
H239 H 0.22036 0.38482 0.10222 0.0
S240 S 0.26936 0.53478 0.06761 0.0
N241 N 0.23352 0.50831 1.00771 0.0
N242 N 0.28014 0.5078 0.12044 0.0
C243 C 0.25424 0.47515 0.09031 0.0
C244 C 0.22865 0.47541 1.02919 0.0
C245 C 0.82448 0.22544 0.39632 0.0
C246 C 0.82285 0.25611 0.42425 0.0
C247 C 0.80001 0.20075 0.33325 0.0
C248 C 0.77215 0.20502 0.297 0.0
H249 H 0.84489 0.22043 0.4233 0.0
H250 H 0.80251 0.17771 0.31421 0.0
S251 S 0.75633 0.281 0.34513 0.0
N252 N 0.79133 0.28958 0.40737 0.0
N253 N 0.74524 0.24306 0.29201 0.0
C254 C 0.77034 0.23561 0.32394 0.0
C255 C 0.79564 0.2611 0.3865 0.0
C256 C 0.60143 0.8119 0.77733 0.0
C257 C 0.56939 0.81134 0.80115 0.0
C258 C 0.60191 0.78786 0.71295 0.0
C259 C 0.57021 0.76138 0.67133 0.0
H260 H 0.62651 0.8314 0.80789 0.0
H261 H 0.6273 0.78974 0.69652 0.0
S262 S 0.47917 0.74829 0.70907 0.0
N263 N 0.50512 0.78206 0.77589 0.0
N264 N 0.50591 0.73658 0.65826 0.0
C265 C 0.53802 0.76038 0.695 0.0
C266 C 0.53764 0.78535 0.75879 0.0
C267 C 0.79741 0.60675 0.0912 0.0
C268 C 0.76773 0.57445 0.12158 0.0
C269 C 0.82244 0.60676 1.02957 0.0
C270 C 0.81956 0.57445 0.99718 0.0
H271 H 0.80117 0.63235 0.1145 0.0
H272 H 0.84446 0.63236 1.00783 0.0
S273 S 0.74715 0.48241 0.05598 0.0
N274 N 0.73716 0.50917 0.11338 0.0
N275 N 0.78421 0.50918 1.00061 0.0
C276 C 0.79018 0.54201 1.02766 0.0
C277 C 0.76436 0.54201 0.08883 0.0
C278 C 0.1953 0.79046 0.39951 0.0
C279 C 0.20069 0.7638 0.43953 0.0
C280 C 0.21976 0.81496 0.33638 0.0
C281 C 0.25136 0.81468 0.31218 0.0
H282 H 0.17168 0.79215 0.4162 0.0
H283 H 0.21399 0.83454 0.30696 0.0
S284 S 0.27907 0.75137 0.40056 0.0
N285 N 0.24055 0.7392 0.45096 0.0
N286 N 0.28669 0.78549 0.33558 0.0
C287 C 0.25733 0.78853 0.35304 0.0
C288 C 0.23203 0.76311 0.41562 0.0
C289 C 0.47665 0.23242 0.76546 0.0
C290 C 0.44465 0.20408 0.80116 0.0
C291 C 0.47644 0.25711 0.70358 0.0
C292 C 0.44418 0.25419 0.67246 0.0
H293 H 0.50226 0.23585 0.78622 0.0
H294 H 0.50188 0.2783 0.67857 0.0
S295 S 0.35283 0.18482 0.74418 0.0
N296 N 0.37968 0.17505 0.80111 0.0
N297 N 0.3792 0.22037 0.68311 0.0
C298 C 0.41196 0.22588 0.70728 0.0
C299 C 0.41222 0.20122 0.77193 0.0
C300 C 0.24512 0.47998 0.64949 0.0
C301 C 0.21737 0.48061 0.60243 0.0
C302 C 0.27285 0.47915 0.60351 0.0
C303 C 0.27336 0.47858 0.50932 0.0
H304 H 0.24358 0.4763 0.72123 0.0
H305 H 0.29205 0.47552 0.6422 0.0
S306 S 0.21426 0.49406 0.35849 0.0
N307 N 0.19765 0.49159 0.45939 0.0
N308 N 0.24955 0.48906 0.37245 0.0
C309 C 0.24928 0.48557 0.46269 0.0
C310 C 0.2212 0.48678 0.50965 0.0
C311 C 0.7734 0.24461 0.76903 0.0
C312 C 0.80105 0.27295 0.81681 0.0
C313 C 0.74451 0.21695 0.81424 0.0
C314 C 0.74285 0.21673 0.90841 0.0
H315 H 0.77582 0.2417 0.69784 0.0
H316 H 0.72548 0.19394 0.77544 0.0
S317 S 0.80147 0.29225 0.05886 0.0
N318 N 0.81963 0.30498 0.95887 0.0
N319 N 0.76557 0.25234 1.04447 0.0
C320 C 0.76692 0.24807 0.95479 0.0
C321 C 0.79615 0.27642 0.90859 0.0
C322 C 0.52517 0.7663 0.13876 0.0
C323 C 0.52319 0.79334 0.18682 0.0
C324 C 0.52893 0.73999 0.1837 0.0
C325 C 0.53095 0.74017 0.27775 0.0
H326 H 0.52829 0.76785 0.06681 0.0
H327 H 0.5338 0.72169 0.14398 0.0
S328 S 0.5114 0.79605 0.43185 0.0
N329 N 0.51145 0.81176 0.33132 0.0
N330 N 0.51942 0.76257 0.4163 0.0
C331 C 0.52198 0.76272 0.3258 0.0
C332 C 0.51775 0.78929 0.27987 0.0
C333 C 0.77308 0.53767 0.46732 0.0
C334 C 0.74588 0.5394 0.5147 0.0
C335 C 0.80123 0.53763 0.51281 0.0
C336 C 0.8031 0.53965 0.60682 0.0
H337 H 0.77465 0.53995 0.39521 0.0
H338 H 0.82322 0.53936 0.47361 0.0
S339 S 0.73153 0.53096 0.76022 0.0
N340 N 0.71695 0.5325 0.65935 0.0
N341 N 0.77071 0.53349 0.74512 0.0
C342 C 0.7731 0.53521 0.65455 0.0
C343 C 0.7442 0.5349 0.60816 0.0
C344 C 0.21979 0.74245 0.92627 0.0
C345 C 0.21813 0.74252 0.8322 0.0
C346 C 0.24917 0.76938 0.97183 0.0
C347 C 0.27766 0.79687 0.92429 0.0
H348 H 0.19686 0.72372 0.96547 0.0
H349 H 0.24738 0.77094 1.04373 0.0
S350 S 0.2929 0.79979 0.67964 0.0
N351 N 0.25203 0.7655 0.69432 0.0
N352 N 0.30796 0.81587 0.7805 0.0
C353 C 0.27949 0.79286 0.83132 0.0
C354 C 0.24936 0.76565 0.78477 0.0
C355 C 0.49291 0.22264 0.28093 0.0
C356 C 0.4927 0.22144 0.1867 0.0
C357 C 0.48981 0.2494 0.32634 0.0
C358 C 0.48715 0.27599 0.27867 0.0
H359 H 0.49142 0.20071 0.31992 0.0
H360 H 0.48577 0.24695 0.39797 0.0
S361 S 0.50149 0.2935 1.03506 0.0
N362 N 0.5009 0.25509 1.04972 0.0
N363 N 0.49638 0.30634 0.13548 0.0
C364 C 0.49425 0.2791 0.18618 0.0
C365 C 0.49689 0.25155 0.13983 0.0
C366 C 0.44406 0.54165 0.46575 0.0
C367 C 0.42528 0.52476 0.38688 0.0
C368 C 0.4762 0.57464 0.46334 0.0
C369 C 0.4912 0.59172 0.38187 0.0
H370 H 0.43348 0.5297 0.53029 0.0
H371 H 0.48945 0.58676 0.52581 0.0
S372 S 0.4534 0.55822 0.15603 0.0
N373 N 0.42453 0.5273 0.22481 0.0
N374 N 0.48511 0.58904 0.22 0.0
C375 C 0.4731 0.5748 0.30232 0.0
C376 C 0.44011 0.54144 0.30488 0.0
C377 C 0.90907 0.47355 0.63978 0.0
C378 C 0.90865 0.49089 0.71955 0.0
C379 C 0.90869 0.44069 0.64089 0.0
C380 C 0.9085 0.42412 0.72182 0.0
H381 H 0.90901 0.4851 0.57565 0.0
H382 H 0.9087 0.42827 0.57776 0.0
S383 S 0.90863 0.45908 0.94947 0.0
N384 N 0.90881 0.48942 0.88172 0.0
N385 N 0.90847 0.4279 0.88421 0.0
C386 C 0.90875 0.44151 0.8022 0.0
C387 C 0.90867 0.47476 0.80097 0.0
C388 C 0.4763 0.91803 0.13185 0.0
C389 C 0.49284 0.91401 1.05448 0.0
C390 C 0.44366 0.91782 0.12733 0.0
C391 C 0.42673 0.91448 1.04513 0.0
H392 H 0.48799 0.92012 0.19708 0.0
H393 H 0.43153 0.92011 0.18867 0.0
S394 S 0.45914 0.9042 0.82267 0.0
N395 N 0.48989 0.9071 0.89318 0.0
N396 N 0.429 0.90747 0.88415 0.0
C397 C 0.44339 0.91139 0.96695 0.0
C398 C 0.47629 0.91094 0.97179 0.0
C399 C 0.57506 0.47478 0.46942 0.0
C400 C 0.59406 0.49154 0.3908 0.0
C401 C 0.54293 0.44176 0.46658 0.0
C402 C 0.5282 0.42451 0.38492 0.0
H403 H 0.5854 0.48691 0.53408 0.0
H404 H 0.52944 0.42979 0.52883 0.0
S405 S 0.56682 0.45746 0.15964 0.0
N406 N 0.5954 0.48857 0.2288 0.0
N407 N 0.53493 0.42677 0.22318 0.0
C408 C 0.54661 0.44123 0.30565 0.0
C409 C 0.57956 0.47462 0.30865 0.0
C410 C 0.11019 0.57663 0.64375 0.0
C411 C 0.11129 0.59344 0.7253 0.0
C412 C 0.10973 0.54373 0.64135 0.0
C413 C 0.11101 0.52665 0.72036 0.0
H414 H 0.10952 0.58887 0.5812 0.0
H415 H 0.1091 0.53197 0.57675 0.0
S416 S 0.1138 0.5594 0.95145 0.0
N417 N 0.11321 0.59033 0.8874 0.0
N418 N 0.11275 0.52875 0.88257 0.0
C419 C 0.11193 0.54308 0.80242 0.0
C420 C 0.11191 0.57635 0.80496 0.0
C421 C 0.56007 0.07244 1.04731 0.0
C422 C 0.59309 0.10474 1.05149 0.0
C423 C 0.52763 0.07277 1.04381 0.0
C424 C 0.52736 0.1054 1.04024 0.0
H425 H 0.55935 0.04682 1.04768 0.0
H426 H 0.50262 0.0474 1.04372 0.0
S427 S 0.60668 0.19716 1.04617 0.0
N428 N 0.62358 0.17007 1.05106 0.0
N429 N 0.56276 0.17068 1.04098 0.0
C430 C 0.56022 0.1378 1.04253 0.0
C431 C 0.59308 0.13747 1.04903 0.0
loop_
_geom_bond_atom_site_label_1
_geom_bond_atom_site_label_2
_geom_bond_distance
_geom_bond_site_symmetry_2
_ccdc_geom_bond_type
Co0 O1 2.216 . S
Co0 O2 2.091 . S
Co0 O4 2.004 . S
Co0 O10 2.021 . S
Co0 O12 2.137 . S
Co0 O13 2.244 . S
O1 Co0 2.216 . S
O1 C8 1.247 . S
O2 Co0 2.091 . S
O2 C8 1.261 . S
C3 O12 1.247 . S
C3 O13 1.272 . S
O4 Co0 2.004 . S
O4 C9 1.259 . S
Co5 O6 2.061 . S
Co5 O11 2.052 . S
Co5 O13 2.135 . S
O6 Co5 2.061 . S
O6 C9 1.235 . S
C7 O10 1.238 . S
C7 O11 1.241 . S
C8 O1 1.247 . S
C8 O2 1.261 . S
C9 O4 1.259 . S
C9 O6 1.235 . S
O10 Co0 2.021 . S
O10 C7 1.238 . S
O11 Co5 2.052 . S
O11 C7 1.241 . S
O12 Co0 2.137 . S
O12 C3 1.247 . S
O13 Co0 2.244 . S
O13 C3 1.272 . S
O13 Co5 2.135 . S
Co14 O15 2.216 . S
Co14 O16 2.091 . S
Co14 O18 2.004 . S
Co14 O24 2.021 . S
Co14 O26 2.137 . S
Co14 O27 2.244 . S
O15 Co14 2.216 . S
O15 C22 1.247 . S
O16 Co14 2.091 . S
O16 C22 1.261 . S
C17 O26 1.247 . S
C17 O27 1.272 . S
O18 Co14 2.004 . S
O18 C23 1.259 . S
Co19 O20 2.061 . S
Co19 O25 2.052 . S
Co19 O27 2.135 . S
O20 Co19 2.061 . S
O20 C23 1.235 . S
C21 O24 1.238 . S
C21 O25 1.241 . S
C22 O15 1.247 . S
C22 O16 1.261 . S
C23 O18 1.259 . S
C23 O20 1.235 . S
O24 Co14 2.021 . S
O24 C21 1.238 . S
O25 Co19 2.052 . S
O25 C21 1.241 . S
O26 Co14 2.137 . S
O26 C17 1.247 . S
O27 Co14 2.244 . S
O27 C17 1.272 . S
O27 Co19 2.135 . S
Co28 O29 2.216 . S
Co28 O30 2.091 . S
Co28 O32 2.004 . S
Co28 O38 2.021 . S
Co28 O40 2.137 . S
Co28 O41 2.244 . S
O29 Co28 2.216 . S
O29 C36 1.247 . S
O30 Co28 2.091 . S
O30 C36 1.261 . S
C31 O40 1.247 . S
C31 O41 1.272 . S
O32 Co28 2.004 . S
O32 C37 1.259 1_556 S
Co33 O34 2.061 . S
Co33 O39 2.052 . S
Co33 O41 2.135 1_554 S
O34 Co33 2.061 . S
O34 C37 1.235 . S
C35 O38 1.238 1_554 S
C35 O39 1.241 . S
C36 O29 1.247 . S
C36 O30 1.261 . S
C37 O32 1.259 1_554 S
C37 O34 1.235 . S
O38 Co28 2.021 . S
O38 C35 1.238 1_556 S
O39 Co33 2.052 . S
O39 C35 1.241 . S
O40 Co28 2.137 . S
O40 C31 1.247 . S
O41 Co28 2.244 . S
O41 C31 1.272 . S
O41 Co33 2.135 1_556 S
Co42 O43 2.216 . S
Co42 O44 2.091 . S
Co42 O46 2.004 . S
Co42 O52 2.021 . S
Co42 O54 2.137 . S
Co42 O55 2.244 . S
O43 Co42 2.216 . S
O43 C50 1.247 . S
O44 Co42 2.091 . S
O44 C50 1.261 . S
C45 O54 1.247 . S
C45 O55 1.272 . S
O46 Co42 2.004 . S
O46 C51 1.259 . S
Co47 O48 2.061 . S
Co47 O53 2.052 . S
Co47 O55 2.135 . S
O48 Co47 2.061 . S
O48 C51 1.235 . S
C49 O52 1.238 . S
C49 O53 1.241 . S
C50 O43 1.247 . S
C50 O44 1.261 . S
C51 O46 1.259 . S
C51 O48 1.235 . S
O52 Co42 2.021 . S
O52 C49 1.238 . S
O53 Co47 2.052 . S
O53 C49 1.241 . S
O54 Co42 2.137 . S
O54 C45 1.247 . S
O55 Co42 2.244 . S
O55 C45 1.272 . S
O55 Co47 2.135 . S
Co56 O57 2.216 . S
Co56 O58 2.091 . S
Co56 O60 2.004 . S
Co56 O66 2.021 . S
Co56 O68 2.137 . S
Co56 O69 2.244 . S
O57 Co56 2.216 . S
O57 C64 1.247 . S
O58 Co56 2.091 . S
O58 C64 1.261 . S
C59 O68 1.247 . S
C59 O69 1.272 . S
O60 Co56 2.004 . S
O60 C65 1.259 . S
Co61 O62 2.061 . S
Co61 O67 2.052 . S
Co61 O69 2.135 . S
O62 Co61 2.061 . S
O62 C65 1.235 . S
C63 O66 1.238 . S
C63 O67 1.241 . S
C64 O57 1.247 . S
C64 O58 1.261 . S
C65 O60 1.259 . S
C65 O62 1.235 . S
O66 Co56 2.021 . S
O66 C63 1.238 . S
O67 Co61 2.052 . S
O67 C63 1.241 . S
O68 Co56 2.137 . S
O68 C59 1.247 . S
O69 Co56 2.244 . S
O69 C59 1.272 . S
O69 Co61 2.135 . S
Co70 O71 2.216 . S
Co70 O72 2.091 . S
Co70 O74 2.004 . S
Co70 O80 2.021 . S
Co70 O82 2.137 . S
Co70 O83 2.244 . S
O71 Co70 2.216 . S
O71 C78 1.247 . S
O72 Co70 2.091 . S
O72 C78 1.261 . S
C73 O82 1.247 . S
C73 O83 1.272 . S
O74 Co70 2.004 . S
O74 C79 1.259 1_556 S
Co75 O76 2.061 . S
Co75 O81 2.052 . S
Co75 O83 2.135 1_554 S
O76 Co75 2.061 . S
O76 C79 1.235 . S
C77 O80 1.238 1_554 S
C77 O81 1.241 . S
C78 O71 1.247 . S
C78 O72 1.261 . S
C79 O74 1.259 1_554 S
C79 O76 1.235 . S
O80 Co70 2.021 . S
O80 C77 1.238 1_556 S
O81 Co75 2.052 . S
O81 C77 1.241 . S
O82 Co70 2.137 . S
O82 C73 1.247 . S
O83 Co70 2.244 . S
O83 C73 1.272 . S
O83 Co75 2.135 1_556 S
Co84 O85 2.216 . S
Co84 O86 2.091 . S
Co84 O88 2.004 . S
Co84 O94 2.021 . S
Co84 O96 2.137 . S
Co84 O97 2.244 . S
O85 Co84 2.216 . S
O85 C92 1.247 . S
O86 Co84 2.091 . S
O86 C92 1.261 . S
C87 O96 1.247 . S
C87 O97 1.272 . S
O88 Co84 2.004 . S
O88 C93 1.259 . S
Co89 O90 2.061 . S
Co89 O95 2.052 . S
Co89 O97 2.135 . S
O90 Co89 2.061 . S
O90 C93 1.235 . S
C91 O94 1.238 . S
C91 O95 1.241 . S
C92 O85 1.247 . S
C92 O86 1.261 . S
C93 O88 1.259 . S
C93 O90 1.235 . S
O94 Co84 2.021 . S
O94 C91 1.238 . S
O95 Co89 2.052 . S
O95 C91 1.241 . S
O96 Co84 2.137 . S
O96 C87 1.247 . S
O97 Co84 2.244 . S
O97 C87 1.272 . S
O97 Co89 2.135 . S
Co98 O99 2.216 . S
Co98 O100 2.091 . S
Co98 O102 2.004 . S
Co98 O108 2.021 . S
Co98 O110 2.137 . S
Co98 O111 2.244 . S
O99 Co98 2.216 . S
O99 C106 1.247 . S
O100 Co98 2.091 . S
O100 C106 1.261 . S
C101 O110 1.247 . S
C101 O111 1.272 . S
O102 Co98 2.004 . S
O102 C107 1.259 . S
Co103 O104 2.061 . S
Co103 O109 2.052 . S
Co103 O111 2.135 . S
O104 Co103 2.061 . S
O104 C107 1.235 . S
C105 O108 1.238 . S
C105 O109 1.241 . S
C106 O99 1.247 . S
C106 O100 1.261 . S
C107 O102 1.259 . S
C107 O104 1.235 . S
O108 Co98 2.021 . S
O108 C105 1.238 . S
O109 Co103 2.052 . S
O109 C105 1.241 . S
O110 Co98 2.137 . S
O110 C101 1.247 . S
O111 Co98 2.244 . S
O111 C101 1.272 . S
O111 Co103 2.135 . S
Co112 O113 2.216 . S
Co112 O114 2.091 . S
Co112 O116 2.004 . S
Co112 O122 2.021 . S
Co112 O124 2.137 . S
Co112 O125 2.244 . S
O113 Co112 2.216 . S
O113 C120 1.247 . S
O114 Co112 2.091 . S
O114 C120 1.261 . S
C115 O124 1.247 . S
C115 O125 1.272 . S
O116 Co112 2.004 . S
O116 C121 1.259 1_554 S
Co117 O118 2.061 . S
Co117 O123 2.052 . S
Co117 O125 2.135 1_556 S
O118 Co117 2.061 . S
O118 C121 1.235 . S
C119 O122 1.238 1_556 S
C119 O123 1.241 . S
C120 O113 1.247 . S
C120 O114 1.261 . S
C121 O116 1.259 1_556 S
C121 O118 1.235 . S
O122 Co112 2.021 . S
O122 C119 1.238 1_554 S
O123 Co117 2.052 . S
O123 C119 1.241 . S
O124 Co112 2.137 . S
O124 C115 1.247 . S
O125 Co112 2.244 . S
O125 C115 1.272 . S
O125 Co117 2.135 1_554 S
Co126 O127 2.216 . S
Co126 O128 2.091 . S
Co126 O130 2.004 . S
Co126 O136 2.021 . S
Co126 O138 2.137 . S
Co126 O139 2.244 . S
O127 Co126 2.216 . S
O127 C134 1.247 . S
O128 Co126 2.091 . S
O128 C134 1.261 . S
C129 O138 1.247 . S
C129 O139 1.272 . S
O130 Co126 2.004 . S
O130 C135 1.259 . S
Co131 O132 2.061 . S
Co131 O137 2.052 . S
Co131 O139 2.135 . S
O132 Co131 2.061 . S
O132 C135 1.235 . S
C133 O136 1.238 . S
C133 O137 1.241 . S
C134 O127 1.247 . S
C134 O128 1.261 . S
C135 O130 1.259 . S
C135 O132 1.235 . S
O136 Co126 2.021 . S
O136 C133 1.238 . S
O137 Co131 2.052 . S
O137 C133 1.241 . S
O138 Co126 2.137 . S
O138 C129 1.247 . S
O139 Co126 2.244 . S
O139 C129 1.272 . S
O139 Co131 2.135 . S
Co140 O141 2.216 . S
Co140 O142 2.091 . S
Co140 O144 2.004 . S
Co140 O150 2.021 . S
Co140 O152 2.137 . S
Co140 O153 2.244 . S
O141 Co140 2.216 . S
O141 C148 1.247 . S
O142 Co140 2.091 . S
O142 C148 1.261 . S
C143 O152 1.247 . S
C143 O153 1.272 . S
O144 Co140 2.004 . S
O144 C149 1.259 . S
Co145 O146 2.061 . S
Co145 O151 2.052 . S
Co145 O153 2.135 . S
O146 Co145 2.061 . S
O146 C149 1.235 . S
C147 O150 1.238 . S
C147 O151 1.241 . S
C148 O141 1.247 . S
C148 O142 1.261 . S
C149 O144 1.259 . S
C149 O146 1.235 . S
O150 Co140 2.021 . S
O150 C147 1.238 . S
O151 Co145 2.052 . S
O151 C147 1.241 . S
O152 Co140 2.137 . S
O152 C143 1.247 . S
O153 Co140 2.244 . S
O153 C143 1.272 . S
O153 Co145 2.135 . S
Co154 O155 2.216 . S
Co154 O156 2.091 . S
Co154 O158 2.004 . S
Co154 O164 2.021 . S
Co154 O166 2.137 . S
Co154 O167 2.244 . S
O155 Co154 2.216 . S
O155 C162 1.247 . S
O156 Co154 2.091 . S
O156 C162 1.261 . S
C157 O166 1.247 . S
C157 O167 1.272 . S
O158 Co154 2.004 . S
O158 C163 1.259 1_554 S
Co159 O160 2.061 . S
Co159 O165 2.052 . S
Co159 O167 2.135 1_556 S
O160 Co159 2.061 . S
O160 C163 1.235 . S
C161 O164 1.238 1_556 S
C161 O165 1.241 . S
C162 O155 1.247 . S
C162 O156 1.261 . S
C163 O158 1.259 1_556 S
C163 O160 1.235 . S
O164 Co154 2.021 . S
O164 C161 1.238 1_554 S
O165 Co159 2.052 . S
O165 C161 1.241 . S
O166 Co154 2.137 . S
O166 C157 1.247 . S
O167 Co154 2.244 . S
O167 C157 1.272 . S
O167 Co159 2.135 1_554 S
C168 C169 1.369 . S
C168 C170 1.419 . S
C168 H172 0.930 . S
C169 C168 1.369 . S
C169 C178 1.429 . S
C170 C168 1.419 . S
C170 C171 1.363 . S
C170 H173 0.929 . S
C171 C170 1.363 . S
C171 C177 1.428 . S
H172 C168 0.930 . S
H173 C170 0.929 . S
S174 N175 1.613 . S
S174 N176 1.610 . S
N175 S174 1.613 . S
N175 C178 1.350 . S
N176 S174 1.610 . S
N176 C177 1.351 . S
C177 C171 1.428 . S
C177 N176 1.351 . S
C177 C178 1.434 . S
C178 C169 1.429 . S
C178 N175 1.350 . S
C178 C177 1.434 . S
C179 C180 1.369 . S
C179 C181 1.419 1_655 S
C179 H183 0.930 . S
C180 C179 1.369 . S
C180 C189 1.429 . S
C181 C179 1.419 1_455 S
C181 C182 1.363 . S
C181 H184 0.929 . S
C182 C181 1.363 . S
C182 C188 1.428 . S
H183 C179 0.930 . S
H184 C181 0.929 . S
S185 N186 1.613 1_455 S
S185 N187 1.610 . S
N186 S185 1.613 1_655 S
N186 C189 1.350 . S
N187 S185 1.610 . S
N187 C188 1.351 . S
C188 C182 1.428 . S
C188 N187 1.351 . S
C188 C189 1.434 1_455 S
C189 C180 1.429 . S
C189 N186 1.350 . S
C189 C188 1.434 1_655 S
C190 C191 1.369 . S
C190 C192 1.419 1_565 S
C190 H194 0.930 . S
C191 C190 1.369 . S
C191 C200 1.429 1_556 S
C192 C190 1.419 1_545 S
C192 C193 1.363 1_556 S
C192 H195 0.929 . S
C193 C192 1.363 1_554 S
C193 C199 1.428 . S
H194 C190 0.930 . S
H195 C192 0.929 . S
S196 N197 1.613 . S
S196 N198 1.613 1_565 S
N197 S196 1.613 . S
N197 C200 1.350 . S
N198 S196 1.613 1_545 S
N198 C199 1.351 . S
C199 C193 1.428 . S
C199 N198 1.351 . S
C199 C200 1.434 1_545 S
C200 C191 1.429 1_554 S
C200 N197 1.350 . S
C200 C199 1.434 1_565 S
C201 C202 1.369 . S
C201 C203 1.419 . S
C201 H205 0.930 . S
C202 C201 1.369 . S
C202 C211 1.429 . S
C203 C201 1.419 . S
C203 C204 1.363 . S
C203 H206 0.929 . S
C204 C203 1.363 . S
C204 C210 1.428 . S
H205 C201 0.930 . S
H206 C203 0.929 . S
S207 N208 1.613 . S
S207 N209 1.610 . S
N208 S207 1.613 . S
N208 C211 1.350 . S
N209 S207 1.610 . S
N209 C210 1.351 . S
C210 C204 1.428 . S
C210 N209 1.351 . S
C210 C211 1.434 . S
C211 C202 1.429 . S
C211 N208 1.350 . S
C211 C210 1.434 . S
C212 C213 1.369 . S
C212 C214 1.419 1_655 S
C212 H216 0.930 . S
C213 C212 1.369 . S
C213 C222 1.429 . S
C214 C212 1.419 1_455 S
C214 C215 1.363 . S
C214 H217 0.929 . S
C215 C214 1.363 . S
C215 C221 1.428 . S
H216 C212 0.930 . S
H217 C214 0.929 . S
S218 N219 1.613 1_455 S
S218 N220 1.610 . S
N219 S218 1.613 1_655 S
N219 C222 1.350 . S
N220 S218 1.610 . S
N220 C221 1.351 . S
C221 C215 1.428 . S
C221 N220 1.351 . S
C221 C222 1.434 1_455 S
C222 C213 1.429 . S
C222 N219 1.350 . S
C222 C221 1.434 1_655 S
C223 C224 1.369 . S
C223 C225 1.419 1_565 S
C223 H227 0.930 . S
C224 C223 1.369 . S
C224 C233 1.429 1_554 S
C225 C223 1.419 1_545 S
C225 C226 1.363 1_554 S
C225 H228 0.929 . S
C226 C225 1.363 1_556 S
C226 C232 1.428 . S
H227 C223 0.930 . S
H228 C225 0.929 . S
S229 N230 1.613 . S
S229 N231 1.638 . S
N230 S229 1.613 . S
N230 C233 1.350 . S
N231 S229 1.638 . S
N231 C232 1.350 1_565 S
C232 C226 1.428 . S
C232 N231 1.350 1_545 S
C232 C233 1.434 1_545 S
C233 C224 1.429 1_556 S
C233 N230 1.350 . S
C233 C232 1.434 1_565 S
C234 C235 1.369 . S
C234 C236 1.419 1_556 S
C234 H238 0.930 . S
C235 C234 1.369 . S
C235 C244 1.429 . S
C236 C234 1.419 1_554 S
C236 C237 1.363 . S
C236 H239 0.929 . S
C237 C236 1.363 . S
C237 C243 1.428 . S
H238 C234 0.930 . S
H239 C236 0.929 . S
S240 N241 1.613 . S
S240 N242 1.610 . S
N241 S240 1.613 . S
N241 C244 1.350 . S
N242 S240 1.610 . S
N242 C243 1.351 1_556 S
C243 C237 1.428 . S
C243 N242 1.351 1_554 S
C243 C244 1.434 1_554 S
C244 C235 1.429 . S
C244 N241 1.350 . S
C244 C243 1.434 1_556 S
C245 C246 1.369 . S
C245 C247 1.419 . S
C245 H249 0.930 . S
C246 C245 1.369 . S
C246 C255 1.429 . S
C247 C245 1.419 . S
C247 C248 1.363 . S
C247 H250 0.929 . S
C248 C247 1.363 . S
C248 C254 1.428 . S
H249 C245 0.930 . S
H250 C247 0.929 . S
S251 N252 1.613 . S
S251 N253 1.610 . S
N252 S251 1.613 . S
N252 C255 1.350 . S
N253 S251 1.610 . S
N253 C254 1.351 . S
C254 C248 1.428 . S
C254 N253 1.351 . S
C254 C255 1.434 . S
C255 C246 1.429 . S
C255 N252 1.350 . S
C255 C254 1.434 . S
C256 C257 1.369 . S
C256 C258 1.419 . S
C256 H260 0.930 . S
C257 C256 1.369 . S
C257 C266 1.429 . S
C258 C256 1.419 . S
C258 C259 1.363 . S
C258 H261 0.929 . S
C259 C258 1.363 . S
C259 C265 1.428 . S
H260 C256 0.930 . S
H261 C258 0.929 . S
S262 N263 1.613 . S
S262 N264 1.610 . S
N263 S262 1.613 . S
N263 C266 1.350 . S
N264 S262 1.610 . S
N264 C265 1.351 . S
C265 C259 1.428 . S
C265 N264 1.351 . S
C265 C266 1.434 . S
C266 C257 1.429 . S
C266 N263 1.350 . S
C266 C265 1.434 . S
C267 C268 1.369 1_556 S
C267 C269 1.419 . S
C267 H271 0.930 . S
C268 C267 1.369 1_554 S
C268 C277 1.429 . S
C269 C267 1.419 . S
C269 C270 1.363 . S
C269 H272 0.929 . S
C270 C269 1.363 . S
C270 C276 1.428 1_556 S
H271 C267 0.930 . S
H272 C269 0.929 . S
S273 N274 1.613 . S
S273 N275 1.610 . S
N274 S273 1.613 . S
N274 C277 1.350 . S
N275 S273 1.610 . S
N275 C276 1.351 . S
C276 C270 1.428 1_554 S
C276 N275 1.351 . S
C276 C277 1.434 . S
C277 C268 1.429 . S
C277 N274 1.350 . S
C277 C276 1.434 . S
C278 C279 1.369 . S
C278 C280 1.419 . S
C278 H282 0.930 . S
C279 C278 1.369 . S
C279 C288 1.429 . S
C280 C278 1.419 . S
C280 C281 1.363 . S
C280 H283 0.929 . S
C281 C280 1.363 . S
C281 C287 1.428 . S
H282 C278 0.930 . S
H283 C280 0.929 . S
S284 N285 1.613 . S
S284 N286 1.610 . S
N285 S284 1.613 . S
N285 C288 1.350 . S
N286 S284 1.610 . S
N286 C287 1.351 . S
C287 C281 1.428 . S
C287 N286 1.351 . S
C287 C288 1.434 . S
C288 C279 1.429 . S
C288 N285 1.350 . S
C288 C287 1.434 . S
C289 C290 1.369 . S
C289 C291 1.419 . S
C289 H293 0.930 . S
C290 C289 1.369 . S
C290 C299 1.429 . S
C291 C289 1.419 . S
C291 C292 1.363 . S
C291 H294 0.929 . S
C292 C291 1.363 . S
C292 C298 1.428 . S
H293 C289 0.930 . S
H294 C291 0.929 . S
S295 N296 1.613 . S
S295 N297 1.610 . S
N296 S295 1.613 . S
N296 C299 1.350 . S
N297 S295 1.610 . S
N297 C298 1.351 . S
C298 C292 1.428 . S
C298 N297 1.351 . S
C298 C299 1.434 . S
C299 C290 1.429 . S
C299 N296 1.350 . S
C299 C298 1.434 . S
C300 C301 1.369 . S
C300 C302 1.419 . S
C300 H304 0.930 . S
C301 C300 1.369 . S
C301 C310 1.429 . S
C302 C300 1.419 . S
C302 C303 1.363 . S
C302 H305 0.929 . S
C303 C302 1.363 . S
C303 C309 1.428 . S
H304 C300 0.930 . S
H305 C302 0.929 . S
S306 N307 1.613 . S
S306 N308 1.610 . S
N307 S306 1.613 . S
N307 C310 1.350 . S
N308 S306 1.610 . S
N308 C309 1.351 . S
C309 C303 1.428 . S
C309 N308 1.351 . S
C309 C310 1.434 . S
C310 C301 1.429 . S
C310 N307 1.350 . S
C310 C309 1.434 . S
C311 C312 1.369 . S
C311 C313 1.419 . S
C311 H315 0.930 . S
C312 C311 1.369 . S
C312 C321 1.429 . S
C313 C311 1.419 . S
C313 C314 1.363 . S
C313 H316 0.929 . S
C314 C313 1.363 . S
C314 C320 1.428 . S
H315 C311 0.930 . S
H316 C313 0.929 . S
S317 N318 1.613 . S
S317 N319 1.610 . S
N318 S317 1.613 . S
N318 C321 1.350 . S
N319 S317 1.610 . S
N319 C320 1.351 . S
C320 C314 1.428 . S
C320 N319 1.351 . S
C320 C321 1.434 . S
C321 C312 1.429 . S
C321 N318 1.350 . S
C321 C320 1.434 . S
C322 C323 1.369 . S
C322 C324 1.419 . S
C322 H326 0.930 . S
C323 C322 1.369 . S
C323 C332 1.429 . S
C324 C322 1.419 . S
C324 C325 1.363 . S
C324 H327 0.929 . S
C325 C324 1.363 . S
C325 C331 1.428 . S
H326 C322 0.930 . S
H327 C324 0.929 . S
S328 N329 1.613 . S
S328 N330 1.610 . S
N329 S328 1.613 . S
N329 C332 1.350 . S
N330 S328 1.610 . S
N330 C331 1.351 . S
C331 C325 1.428 . S
C331 N330 1.351 . S
C331 C332 1.434 . S
C332 C323 1.429 . S
C332 N329 1.350 . S
C332 C331 1.434 . S
C333 C334 1.369 . S
C333 C335 1.419 . S
C333 H337 0.930 . S
C334 C333 1.369 . S
C334 C343 1.429 . S
C335 C333 1.419 . S
C335 C336 1.363 . S
C335 H338 0.929 . S
C336 C335 1.363 . S
C336 C342 1.428 . S
H337 C333 0.930 . S
H338 C335 0.929 . S
S339 N340 1.613 . S
S339 N341 1.610 . S
N340 S339 1.613 . S
N340 C343 1.350 . S
N341 S339 1.610 . S
N341 C342 1.351 . S
C342 C336 1.428 . S
C342 N341 1.351 . S
C342 C343 1.434 . S
C343 C334 1.429 . S
C343 N340 1.350 . S
C343 C342 1.434 . S
C344 C345 1.369 . S
C344 C346 1.419 . S
C344 H348 0.930 . S
C345 C344 1.369 . S
C345 C354 1.429 . S
C346 C344 1.419 . S
C346 C347 1.363 . S
C346 H349 0.929 . S
C347 C346 1.363 . S
C347 C353 1.428 . S
H348 C344 0.930 . S
H349 C346 0.929 . S
S350 N351 1.613 . S
S350 N352 1.610 . S
N351 S350 1.613 . S
N351 C354 1.350 . S
N352 S350 1.610 . S
N352 C353 1.351 . S
C353 C347 1.428 . S
C353 N352 1.351 . S
C353 C354 1.434 . S
C354 C345 1.429 . S
C354 N351 1.350 . S
C354 C353 1.434 . S
C355 C356 1.369 . S
C355 C357 1.419 . S
C355 H359 0.930 . S
C356 C355 1.369 . S
C356 C365 1.429 . S
C357 C355 1.419 . S
C357 C358 1.363 . S
C357 H360 0.929 . S
C358 C357 1.363 . S
C358 C364 1.428 . S
H359 C355 0.930 . S
H360 C357 0.929 . S
S361 N362 1.613 . S
S361 N363 1.610 . S
N362 S361 1.613 . S
N362 C365 1.350 . S
N363 S361 1.610 . S
N363 C364 1.351 . S
C364 C358 1.428 . S
C364 N363 1.351 . S
C364 C365 1.434 . S
C365 C356 1.429 . S
C365 N362 1.350 . S
C365 C364 1.434 . S
C366 C367 1.369 . S
C366 C368 1.419 . S
C366 H370 0.930 . S
C367 C366 1.369 . S
C367 C376 1.429 . S
C368 C366 1.419 . S
C368 C369 1.363 . S
C368 H371 0.929 . S
C369 C368 1.363 . S
C369 C375 1.428 . S
H370 C366 0.930 . S
H371 C368 0.929 . S
S372 N373 1.613 . S
S372 N374 1.610 . S
N373 S372 1.613 . S
N373 C376 1.350 . S
N374 S372 1.610 . S
N374 C375 1.351 . S
C375 C369 1.428 . S
C375 N374 1.351 . S
C375 C376 1.434 . S
C376 C367 1.429 . S
C376 N373 1.350 . S
C376 C375 1.434 . S
C377 C378 1.369 . S
C377 C379 1.419 . S
C377 H381 0.930 . S
C378 C377 1.369 . S
C378 C387 1.429 . S
C379 C377 1.419 . S
C379 C380 1.363 . S
C379 H382 0.929 . S
C380 C379 1.363 . S
C380 C386 1.428 . S
H381 C377 0.930 . S
H382 C379 0.929 . S
S383 N384 1.613 . S
S383 N385 1.610 . S
N384 S383 1.613 . S
N384 C387 1.350 . S
N385 S383 1.610 . S
N385 C386 1.351 . S
C386 C380 1.428 . S
C386 N385 1.351 . S
C386 C387 1.434 . S
C387 C378 1.429 . S
C387 N384 1.350 . S
C387 C386 1.434 . S
C388 C389 1.369 . S
C388 C390 1.419 . S
C388 H392 0.930 . S
C389 C388 1.369 . S
C389 C398 1.429 1_554 S
C390 C388 1.419 . S
C390 C391 1.363 1_554 S
C390 H393 0.929 . S
C391 C390 1.363 1_556 S
C391 C397 1.428 . S
H392 C388 0.930 . S
H393 C390 0.929 . S
S394 N395 1.613 . S
S394 N396 1.610 . S
N395 S394 1.613 . S
N395 C398 1.350 . S
N396 S394 1.610 . S
N396 C397 1.351 . S
C397 C391 1.428 . S
C397 N396 1.351 . S
C397 C398 1.434 . S
C398 C389 1.429 1_556 S
C398 N395 1.350 . S
C398 C397 1.434 . S
C399 C400 1.369 . S
C399 C401 1.419 . S
C399 H403 0.930 . S
C400 C399 1.369 . S
C400 C409 1.429 . S
C401 C399 1.419 . S
C401 C402 1.363 . S
C401 H404 0.929 . S
C402 C401 1.363 . S
C402 C408 1.428 . S
H403 C399 0.930 . S
H404 C401 0.929 . S
S405 N406 1.613 . S
S405 N407 1.610 . S
N406 S405 1.613 . S
N406 C409 1.350 . S
N407 S405 1.610 . S
N407 C408 1.351 . S
C408 C402 1.428 . S
C408 N407 1.351 . S
C408 C409 1.434 . S
C409 C400 1.429 . S
C409 N406 1.350 . S
C409 C408 1.434 . S
C410 C411 1.369 . S
C410 C412 1.419 . S
C410 H414 0.930 . S
C411 C410 1.369 . S
C411 C420 1.429 . S
C412 C410 1.419 . S
C412 C413 1.363 . S
C412 H415 0.929 . S
C413 C412 1.363 . S
C413 C419 1.428 . S
H414 C410 0.930 . S
H415 C412 0.929 . S
S416 N417 1.613 . S
S416 N418 1.610 . S
N417 S416 1.613 . S
N417 C420 1.350 . S
N418 S416 1.610 . S
N418 C419 1.351 . S
C419 C413 1.428 . S
C419 N418 1.351 . S
C419 C420 1.434 . S
C420 C411 1.429 . S
C420 N417 1.350 . S
C420 C419 1.434 . S
C421 C422 1.369 . S
C421 C423 1.419 . S
C421 H425 0.930 . S
C422 C421 1.369 . S
C422 C431 1.429 1_556 S
C423 C421 1.419 . S
C423 C424 1.363 1_556 S
C423 H426 0.929 . S
C424 C423 1.363 1_554 S
C424 C430 1.428 . S
H425 C421 0.930 . S
H426 C423 0.929 . S
S427 N428 1.613 . S
S427 N429 1.610 . S
N428 S427 1.613 . S
N428 C431 1.350 . S
N429 S427 1.610 . S
N429 C430 1.351 . S
C430 C424 1.428 . S
C430 N429 1.351 . S
C430 C431 1.434 . S
C431 C422 1.429 1_554 S
C431 N428 1.350 . S
C431 C430 1.434 . S
C169 C3 1.475 . S
C171 C129 1.470 . S
C180 C17 1.474 . S
C182 C143 1.470 . S
C191 C31 1.469 . S
C193 C157 1.474 . S
C202 C45 1.476 . S
C204 C87 1.470 . S
C213 C101 1.476 . S
C215 C59 1.470 . S
C224 C115 1.469 . S
C226 C73 1.475 . S
C235 C148 1.733 . S
C237 C8 1.734 . S
C246 C22 1.734 . S
C248 C162 1.734 . S
C257 C36 1.732 . S
C259 C92 1.733 . S
C268 C50 1.734 . S
C270 C106 1.735 . S
C279 C64 1.734 . S
C281 C120 1.735 . S
C290 C78 1.736 . S
C292 C134 1.736 . S
C301 C147 1.091 . S
C303 C7 1.101 . S
C312 C21 1.094 . S
C314 C161 1.098 . S
C323 C35 1.093 . S
C325 C91 1.099 . S
C334 C49 1.096 . S
C336 C105 1.097 . S
C345 C63 1.099 . S
C347 C119 1.095 . S
C356 C77 1.102 . S
C358 C133 1.092 . S
C367 C9 1.646 . S
C369 C93 1.647 . S
C378 C107 1.644 . S
C380 C23 1.645 . S
C389 C37 1.646 . S
C391 C121 1.646 . S
C400 C51 1.645 . S
C402 C135 1.646 . S
C411 C65 1.646 . S
C413 C149 1.646 . S
C422 C163 1.646 . S
C424 C79 1.647 . S
