# Generated by pormake.
# Topology umy, (4)-cn, num edge types: 1
# Building blocks:
#     Node 0, Type 0, BuildingBlock: ICAMEG_clean_sbu_1, # of connection points: 4
#     Node 1, Type 0, BuildingBlock: ICAMEG_clean_sbu_1, # of connection points: 4
#     Node 2, Type 0, BuildingBlock: ICAMEG_clean_sbu_1, # of connection points: 4
#     Node 3, Type 0, BuildingBlock: ICAMEG_clean_sbu_1, # of connection points: 4
#     Node 4, Type 0, BuildingBlock: ICAMEG_clean_sbu_1, # of connection points: 4
#     Node 5, Type 0, BuildingBlock: ICAMEG_clean_sbu_1, # of connection points: 4
#     Node 6, Type 0, BuildingBlock: ICAMEG_clean_sbu_1, # of connection points: 4
#     Node 7, Type 0, BuildingBlock: ICAMEG_clean_sbu_1, # of connection points: 4
#     Node 8, Type 0, BuildingBlock: ICAMEG_clean_sbu_1, # of connection points: 4
#     Node 9, Type 0, BuildingBlock: ICAMEG_clean_sbu_1, # of connection points: 4
#     Node 10, Type 0, BuildingBlock: ICAMEG_clean_sbu_1, # of connection points: 4
#     Node 11, Type 0, BuildingBlock: ICAMEG_clean_sbu_1, # of connection points: 4
#     Edge 12, Type (0, 0), BuildingBlock: XIVTED_clean_linker_0, # of connection points: 2
#     Edge 13, Type (0, 0), BuildingBlock: XIVTED_clean_linker_0, # of connection points: 2
#     Edge 14, Type (0, 0), BuildingBlock: XIVTED_clean_linker_0, # of connection points: 2
#     Edge 15, Type (0, 0), BuildingBlock: XIVTED_clean_linker_0, # of connection points: 2
#     Edge 16, Type (0, 0), BuildingBlock: XIVTED_clean_linker_0, # of connection points: 2
#     Edge 17, Type (0, 0), BuildingBlock: XIVTED_clean_linker_0, # of connection points: 2
#     Edge 18, Type (0, 0), BuildingBlock: XIVTED_clean_linker_0, # of connection points: 2
#     Edge 19, Type (0, 0), BuildingBlock: XIVTED_clean_linker_0, # of connection points: 2
#     Edge 20, Type (0, 0), BuildingBlock: XIVTED_clean_linker_0, # of connection points: 2
#     Edge 21, Type (0, 0), BuildingBlock: XIVTED_clean_linker_0, # of connection points: 2
#     Edge 22, Type (0, 0), BuildingBlock: XIVTED_clean_linker_0, # of connection points: 2
#     Edge 23, Type (0, 0), BuildingBlock: XIVTED_clean_linker_0, # of connection points: 2
#     Edge 24, Type (0, 0), BuildingBlock: XIVTED_clean_linker_0, # of connection points: 2
#     Edge 25, Type (0, 0), BuildingBlock: XIVTED_clean_linker_0, # of connection points: 2
#     Edge 26, Type (0, 0), BuildingBlock: XIVTED_clean_linker_0, # of connection points: 2
#     Edge 27, Type (0, 0), BuildingBlock: XIVTED_clean_linker_0, # of connection points: 2
#     Edge 28, Type (0, 0), BuildingBlock: XIVTED_clean_linker_0, # of connection points: 2
#     Edge 29, Type (0, 0), BuildingBlock: XIVTED_clean_linker_0, # of connection points: 2
#     Edge 30, Type (0, 0), BuildingBlock: XIVTED_clean_linker_0, # of connection points: 2
#     Edge 31, Type (0, 0), BuildingBlock: XIVTED_clean_linker_0, # of connection points: 2
#     Edge 32, Type (0, 0), BuildingBlock: XIVTED_clean_linker_0, # of connection points: 2
#     Edge 33, Type (0, 0), BuildingBlock: XIVTED_clean_linker_0, # of connection points: 2
#     Edge 34, Type (0, 0), BuildingBlock: XIVTED_clean_linker_0, # of connection points: 2
#     Edge 35, Type (0, 0), BuildingBlock: XIVTED_clean_linker_0, # of connection points: 2
# Relax obj value: 0.082
# Max RMSD: 0.107
# Mean RMSD: 0.107
data_MOF--net-umy--node1-ICAMEG_clean_sbu_1--edge1-XIVTED_clean_linker_0
_symmetry_space_group_name_H-M    P1
_symmetry_Int_Tables_number       1
_symmetry_cell_setting            triclinic
loop_
_symmetry_equiv_pos_as_xyz
'x, y, z'
_cell_length_a     40.476862
_cell_length_b     40.483947
_cell_length_c     56.677519
_cell_angle_alpha  90.015019
_cell_angle_beta   89.970681
_cell_angle_gamma 120.00098
loop_
_atom_site_label
_atom_site_type_symbol
_atom_site_fract_x
_atom_site_fract_y
_atom_site_fract_z
_atom_type_partial_charge
Co0 Co 0.05746 0.30856 0.14091 0.0
Co1 Co 0.0644 0.38602 0.17027 0.0
O2 O 0.06933 0.36168 0.14158 0.0
C3 C 0.13542 0.34718 0.11923 0.0
O4 O 0.14815 0.3704 0.13739 0.0
C5 C 0.02543 0.40609 0.13299 0.0
O6 O 0.00987 0.37098 0.1251 0.0
O7 O 0.01044 0.34455 0.17468 0.0
O8 O 0.01417 0.29324 0.16372 0.0
H9 H 0.02733 0.38962 0.25448 0.0
H10 H 0.06371 0.34784 0.09566 0.0
O11 O 0.10018 0.32196 0.11788 0.0
H12 H 0.93257 0.23826 0.09731 0.0
H13 H 0.03982 0.18906 0.10183 0.0
H14 H 0.03749 0.24874 0.17721 0.0
H15 H 0.9769 0.24949 0.13017 0.0
H16 H 0.05364 0.25568 0.10293 0.0
O17 O 0.04721 0.4163 0.15095 0.0
H18 H 0.0341 0.35933 0.21846 0.0
H19 H 0.08385 0.46547 0.18241 0.0
H20 H 0.02315 0.18193 0.17688 0.0
H21 H 0.02049 0.33741 0.06227 0.0
H22 H 0.02428 0.15166 0.13899 0.0
H23 H 0.95434 0.28236 0.06301 0.0
O24 O 0.09284 0.31815 0.16781 0.0
H25 H 0.17699 0.48334 0.12385 0.0
H26 H 0.13226 0.42381 0.20196 0.0
H27 H 0.19968 0.47326 0.19668 0.0
H28 H 0.22243 0.50344 0.15741 0.0
H29 H 0.10986 0.43354 0.12985 0.0
H30 H 0.07735 0.49685 0.21798 0.0
H31 H 0.04904 0.45888 0.25438 0.0
O32 O 0.08186 0.35714 0.19051 0.0
C33 C 0.99704 0.30852 0.17403 0.0
C34 C 0.0398 0.40649 0.23874 0.0
C35 C 0.06782 0.46666 0.21825 0.0
N36 N 0.05955 0.41062 0.19839 0.0
C37 C 0.04379 0.38951 0.21831 0.0
C38 C 0.07134 0.4487 0.19814 0.0
C39 C 0.05195 0.44534 0.23867 0.0
C40 C 0.03509 0.32361 0.09599 0.0
N41 N 0.02286 0.29929 0.11483 0.0
C42 C 0.01069 0.31795 0.07709 0.0
C43 C 0.97356 0.28709 0.07754 0.0
C44 C 0.96132 0.26237 0.09679 0.0
C45 C 0.98649 0.26896 0.1154 0.0
C46 C 0.03919 0.20191 0.11845 0.0
C47 C 0.03784 0.23571 0.16063 0.0
C48 C 0.04709 0.23966 0.11919 0.0
N49 N 0.04615 0.25602 0.1401 0.0
C50 C 0.02979 0.1979 0.16056 0.0
C51 C 0.03046 0.18094 0.1393 0.0
C52 C 0.09538 0.33497 0.18733 0.0
C53 C 0.16739 0.47049 0.14106 0.0
C54 C 0.14194 0.43675 0.1848 0.0
C55 C 0.18014 0.46479 0.18193 0.0
C56 C 0.19288 0.48172 0.15989 0.0
N57 N 0.11708 0.42597 0.16625 0.0
C58 C 0.12938 0.44239 0.14459 0.0
Co59 Co 0.75333 0.0544 0.30771 0.0
Co60 Co 0.68303 0.06188 0.33707 0.0
O61 O 0.71193 0.06605 0.30834 0.0
C62 C 0.79168 0.13188 0.28564 0.0
O63 O 0.78051 0.1443 0.30364 0.0
C64 C 0.62366 0.02101 0.3003 0.0
O65 O 0.64337 1.00532 0.29292 0.0
O66 O 0.67111 0.00825 0.34227 0.0
O67 O 0.72579 0.01157 0.33086 0.0
H68 H 0.64384 0.02768 0.42174 0.0
H69 H 0.71972 0.05963 0.26244 0.0
O70 O 0.78231 0.0968 0.28441 0.0
H71 H 0.69852 0.92867 0.26507 0.0
H72 H 0.85508 0.03655 0.26861 0.0
H73 H 0.79384 0.03541 0.34408 0.0
H74 H 0.73195 0.97371 0.29757 0.0
H75 H 0.80208 0.05008 0.26969 0.0
O76 O 0.6352 0.04357 0.31792 0.0
H77 H 0.68049 0.0335 0.38568 0.0
H78 H 0.6227 0.08103 0.34885 0.0
H79 H 0.84653 0.02138 0.34377 0.0
H80 H 0.68655 0.01567 0.22941 0.0
H81 H 0.87754 0.02191 0.30583 0.0
H82 H 0.67565 0.94962 0.23064 0.0
O83 O 0.77934 0.09031 0.3343 0.0
H84 H 0.69638 0.17225 0.28905 0.0
H85 H 0.7131 0.13086 0.36778 0.0
H86 H 0.73037 0.19789 0.36155 0.0
H87 H 0.72197 0.21896 0.32196 0.0
H88 H 0.67977 0.10555 0.296 0.0
H89 H 0.58521 0.07546 0.38446 0.0
H90 H 0.59579 0.04875 0.42127 0.0
O91 O 0.72981 0.0805 0.35709 0.0
C92 C 0.69372 0.99484 0.34159 0.0
C93 C 0.63904 0.03946 0.40582 0.0
C94 C 0.6061 0.06622 0.38489 0.0
N95 N 0.65392 0.05779 0.36522 0.0
C96 C 0.65978 0.04291 0.38537 0.0
C97 C 0.62735 0.06921 0.36477 0.0
C98 C 0.61206 0.05125 0.40555 0.0
C99 C 0.71541 0.03105 0.26298 0.0
N100 N 0.7278 0.01927 0.28189 0.0
C101 C 0.69647 0.00623 0.24428 0.0
C102 C 0.6903 0.96916 0.24501 0.0
C103 C 0.70308 0.95737 0.26433 0.0
C104 C 0.72186 0.98295 0.28273 0.0
C105 C 0.84177 0.03618 0.28524 0.0
C106 C 0.80705 0.03549 0.32748 0.0
C107 C 0.8118 0.04391 0.28598 0.0
N108 N 0.79472 0.0433 0.30691 0.0
C109 C 0.83694 0.02762 0.32743 0.0
C110 C 0.85434 0.02796 0.30614 0.0
C111 C 0.76543 0.09374 0.35373 0.0
C112 C 0.70004 0.16338 0.3064 0.0
C113 C 0.70942 0.1398 0.35049 0.0
C114 C 0.71919 0.17779 0.34708 0.0
C115 C 0.71445 0.18959 0.32487 0.0
N116 N 0.6952 0.11424 0.3323 0.0
C117 C 0.69054 0.12562 0.31047 0.0
Co118 Co 0.70479 0.75292 0.47734 0.0
Co119 Co 0.62433 0.68043 0.50377 0.0
O120 O 0.65169 0.71124 0.47614 0.0
C121 C 0.66655 0.79235 0.45536 0.0
O122 O 0.64161 0.77971 0.47266 0.0
C123 C 0.60815 0.62282 0.46567 0.0
O124 O 0.64293 0.64397 0.45754 0.0
O125 O 0.66612 0.66906 0.51055 0.0
O126 O 0.7185 0.7235 0.49986 0.0
H127 H 0.612 0.63769 0.58815 0.0
H128 H 0.66902 0.72323 0.43072 0.0
O129 O 0.6928 0.78368 0.45461 0.0
H130 H 0.77871 0.70196 0.4341 0.0
H131 H 0.82671 0.85787 0.44235 0.0
H132 H 0.76192 0.79031 0.5154 0.0
H133 H 0.76477 0.73242 0.46733 0.0
H134 H 0.76021 0.8048 0.44127 0.0
O135 O 0.59714 0.63326 0.4838 0.0
H136 H 0.64576 0.6762 0.55324 0.0
H137 H 0.54417 0.61866 0.51269 0.0
H138 H 0.82853 0.84304 0.51725 0.0
H139 H 0.68222 0.69316 0.39693 0.0
H140 H 0.86137 0.87722 0.48054 0.0
H141 H 0.73733 0.68221 0.39854 0.0
O142 O 0.6935 0.77698 0.5046 0.0
H143 H 0.5317 0.69478 0.45184 0.0
H144 H 0.58057 0.70702 0.53292 0.0
H145 H 0.53073 0.72348 0.52466 0.0
H146 H 0.5059 0.71732 0.48387 0.0
H147 H 0.58182 0.679 0.46085 0.0
H148 H 0.5094 0.57934 0.54711 0.0
H149 H 0.54331 0.58884 0.58521 0.0
O150 O 0.64961 0.72612 0.52468 0.0
C151 C 0.70228 0.69119 0.51028 0.0
C152 C 0.59689 0.63334 0.57166 0.0
C153 C 0.53932 0.60055 0.54862 0.0
N154 N 0.59695 0.64982 0.53097 0.0
C155 C 0.61584 0.65511 0.55184 0.0
C156 C 0.5592 0.62284 0.52916 0.0
C157 C 0.55836 0.60591 0.56999 0.0
C158 C 0.69327 0.71891 0.43145 0.0
N159 N 0.7161 0.72958 0.45098 0.0
C160 C 0.70051 0.70171 0.41231 0.0
C161 C 0.73139 0.69551 0.41324 0.0
C162 C 0.75458 0.70654 0.4332 0.0
C163 C 0.74645 0.72361 0.45202 0.0
C164 C 0.81273 0.84317 0.45846 0.0
C165 C 0.77607 0.80491 0.49932 0.0
C166 C 0.77504 0.81314 0.45797 0.0
N167 N 0.75727 0.79432 0.47823 0.0
C168 C 0.81377 0.83481 0.5005 0.0
C169 C 0.83216 0.854 0.47989 0.0
C170 C 0.67333 0.76174 0.52298 0.0
C171 C 0.54222 0.69749 0.46969 0.0
C172 C 0.57005 0.70442 0.51512 0.0
C173 C 0.54173 0.71367 0.51055 0.0
C174 C 0.52779 0.71018 0.48767 0.0
N175 N 0.58402 0.69192 0.49741 0.0
C176 C 0.5705 0.68846 0.47492 0.0
Co177 Co 0.959 0.70079 0.64181 0.0
Co178 Co 0.95093 0.62295 0.67133 0.0
O179 O 0.94656 0.6475 0.6426 0.0
C180 C 0.8809 0.66281 0.62039 0.0
O181 O 0.86816 0.63982 0.63867 0.0
C182 C 0.99035 0.60286 0.63433 0.0
O183 O 1.00632 0.63812 0.62665 0.0
O184 O 1.00493 0.66415 0.67598 0.0
O185 O 1.00223 0.71585 0.66463 0.0
H186 H 0.98687 0.61881 0.7557 0.0
H187 H 0.95225 0.66108 0.59665 0.0
O188 O 0.91626 0.68763 0.61882 0.0
H189 H 0.08399 0.7696 0.59815 0.0
H190 H 0.97788 0.82048 0.60238 0.0
H191 H 0.97953 0.76097 0.67794 0.0
H192 H 0.0398 0.7591 0.63099 0.0
H193 H 0.96339 0.75366 0.60367 0.0
O194 O 0.96813 0.59252 0.65211 0.0
H195 H 0.98073 0.64937 0.71963 0.0
H196 H 0.93081 0.54332 0.68346 0.0
H197 H 0.99453 0.82799 0.67742 0.0
H198 H 0.99535 0.67078 0.56328 0.0
H199 H 0.99376 0.85817 0.63943 0.0
H200 H 0.06179 0.7253 0.56395 0.0
O201 O 0.92376 0.69177 0.66869 0.0
H202 H 0.83867 0.52628 0.62444 0.0
H203 H 0.88262 0.58539 0.70271 0.0
H204 H 0.81516 0.53628 0.69715 0.0
H205 H 0.7928 0.50631 0.65779 0.0
H206 H 0.90583 0.57574 0.63073 0.0
H207 H 0.93666 0.51166 0.71909 0.0
H208 H 0.96473 0.54945 0.75558 0.0
O209 O 0.93343 0.65199 0.69146 0.0
C210 C 0.01884 0.70024 0.67518 0.0
C211 C 0.97449 0.60201 0.73993 0.0
C212 C 0.94636 0.54189 0.71937 0.0
N213 N 0.95523 0.59813 0.6995 0.0
C214 C 0.97086 0.61914 0.71947 0.0
C215 C 0.94321 0.56 0.69923 0.0
C216 C 0.9621 0.56311 0.73984 0.0
C217 C 0.981 0.68508 0.59695 0.0
N218 N 0.99347 0.70952 0.61573 0.0
C219 C 1.00533 0.69033 0.57806 0.0
C220 C 0.04262 0.72089 0.57846 0.0
C221 C 0.05511 0.74573 0.59766 0.0
C222 C 0.03001 0.73955 0.61626 0.0
C223 C 0.97837 0.80767 0.61903 0.0
C224 C 0.97934 0.77396 0.66133 0.0
C225 C 0.9701 0.76981 0.61989 0.0
N226 N 0.97086 0.7535 0.64085 0.0
C227 C 0.98776 0.81189 0.66115 0.0
C228 C 0.98729 0.8288 0.63983 0.0
C229 C 0.92052 0.67465 0.68817 0.0
C230 C 0.8481 0.53903 0.64169 0.0
C231 C 0.87311 0.57254 0.68552 0.0
C232 C 0.83488 0.5447 0.68249 0.0
C233 C 0.82236 0.52788 0.6604 0.0
N234 N 0.89821 0.58325 0.66709 0.0
C235 C 0.88612 0.56694 0.64538 0.0
Co236 Co 0.2649 0.95763 0.80694 0.0
Co237 Co 0.33515 0.95021 0.83641 0.0
O238 O 0.30629 0.94595 0.80765 0.0
C239 C 0.22575 0.8799 0.785 0.0
O240 O 0.23618 0.8671 0.80315 0.0
C241 C 0.395 0.99173 0.79997 0.0
O242 O 0.37535 0.00751 0.79265 0.0
O243 O 0.34698 1.00381 0.84159 0.0
O244 O 0.29243 1.00058 0.83001 0.0
H245 H 0.374 0.98452 0.92109 0.0
H246 H 0.29874 0.95219 0.76181 0.0
O247 O 0.2359 0.91517 0.78367 0.0
H248 H 0.31999 0.08318 0.76406 0.0
H249 H 0.16339 0.97556 0.76764 0.0
H250 H 0.22436 0.97684 0.84321 0.0
H251 H 0.28631 0.03828 0.79658 0.0
H252 H 0.21631 0.96191 0.76884 0.0
O253 O 0.3831 0.96866 0.81733 0.0
H254 H 0.33749 0.97865 0.88499 0.0
H255 H 0.39547 0.93113 0.8483 0.0
H256 H 0.17176 0.991 0.84279 0.0
H257 H 0.33218 0.99602 0.72876 0.0
H258 H 0.14089 0.9904 0.8048 0.0
H259 H 0.34311 0.06208 0.7298 0.0
O260 O 0.23879 0.92185 0.83362 0.0
H261 H 0.3222 0.83993 0.78845 0.0
H262 H 0.30502 0.88123 0.86713 0.0
H263 H 0.28787 0.81423 0.86092 0.0
H264 H 0.2965 0.79321 0.82135 0.0
H265 H 0.33868 0.90661 0.79539 0.0
H266 H 0.43282 0.93675 0.88396 0.0
H267 H 0.42207 0.96347 0.92073 0.0
O268 O 0.28829 0.93155 0.85638 0.0
C269 C 0.32446 0.01731 0.84077 0.0
C270 C 0.37887 0.97273 0.9052 0.0
C271 C 0.41192 0.94597 0.88435 0.0
N272 N 0.36416 0.95435 0.8646 0.0
C273 C 0.35821 0.96925 0.88472 0.0
C274 C 0.39075 0.94295 0.86419 0.0
C275 C 0.40586 0.96095 0.90498 0.0
C276 C 0.30306 0.98078 0.76227 0.0
N277 N 0.29054 0.99264 0.78108 0.0
C278 C 0.32216 1.00551 0.74356 0.0
C279 C 0.32834 0.0426 0.74418 0.0
C280 C 0.31542 0.05447 0.76341 0.0
C281 C 0.29649 0.02896 0.78182 0.0
C282 C 0.17665 0.97596 0.7843 0.0
C283 C 0.21121 0.97672 0.82659 0.0
C284 C 0.20656 0.96816 0.7851 0.0
N285 N 0.22357 0.96881 0.80606 0.0
C286 C 0.18138 0.98467 0.82647 0.0
C287 C 0.16405 0.9843 0.80515 0.0
C288 C 0.25269 0.91841 0.85305 0.0
C289 C 0.31843 0.84878 0.80579 0.0
C290 C 0.3088 0.8723 0.84985 0.0
C291 C 0.2991 0.83433 0.84645 0.0
C292 C 0.30396 0.82256 0.82425 0.0
N293 N 0.32307 0.89787 0.83167 0.0
C294 C 0.32785 0.88653 0.80984 0.0
Co295 Co 0.31392 0.26087 0.97497 0.0
Co296 Co 0.39205 0.33142 1.00386 0.0
O297 O 0.36712 0.30201 0.97534 0.0
C298 C 0.35249 0.22165 0.95318 0.0
O299 O 0.37616 0.23288 0.97114 0.0
C300 C 0.41098 0.39031 0.96668 0.0
O301 O 0.37557 0.3707 0.9593 0.0
O302 O 0.35068 0.34391 0.00871 0.0
O303 O 0.29901 0.2891 0.99784 0.0
H304 H 0.39736 0.37254 0.08811 0.0
H305 H 0.35272 0.29349 0.92951 0.0
O306 O 0.32694 0.23124 0.95192 0.0
H307 H 0.24353 0.31564 0.93169 0.0
H308 H 0.19378 0.15901 0.93649 0.0
H309 H 0.2545 0.22139 0.01156 0.0
H310 H 0.25494 0.28258 0.96449 0.0
H311 H 0.2605 0.21166 0.93726 0.0
O312 O 0.42187 0.3788 0.98437 0.0
H313 H 0.36633 0.33528 0.0523 0.0
H314 H 0.47175 0.39146 0.01539 0.0
H315 H 0.1876 0.16906 0.01156 0.0
H316 H 0.34212 0.32627 0.89618 0.0
H317 H 0.15681 0.13749 0.97383 0.0
H318 H 0.28725 0.33764 0.89719 0.0
O319 O 0.3237 0.23518 1.00184 0.0
H320 H 0.48846 0.31607 0.95645 0.0
H321 H 0.43047 0.30145 0.03507 0.0
H322 H 0.47981 0.28346 0.02925 0.0
H323 H 0.50921 0.2908 0.98972 0.0
H324 H 0.43878 0.33341 0.96299 0.0
H325 H 0.50386 0.42954 0.05077 0.0
H326 H 0.46663 0.42008 0.08749 0.0
O327 O 0.36358 0.28515 0.02424 0.0
C328 C 0.31461 0.32148 0.0082 0.0
C329 C 0.41392 0.37685 0.07224 0.0
C330 C 0.47368 0.40888 0.05127 0.0
N331 N 0.41723 0.361 0.03182 0.0
C332 C 0.39652 0.35576 0.05192 0.0
C333 C 0.45531 0.3873 0.03128 0.0
C334 C 0.45277 0.40354 0.07187 0.0
C335 C 0.32857 0.298 0.92996 0.0
N336 N 0.30446 0.28609 0.94891 0.0
C337 C 0.32281 0.31672 0.91109 0.0
C338 C 0.29206 0.32316 0.91168 0.0
C339 C 0.26755 0.31086 0.93105 0.0
C340 C 0.27424 0.29229 0.94962 0.0
C341 C 0.20686 0.17258 0.95304 0.0
C342 C 0.24124 0.20793 0.99505 0.0
C343 C 0.24466 0.20235 0.9536 0.0
N344 N 0.26131 0.21974 0.97442 0.0
C345 C 0.20338 0.17825 0.99517 0.0
C346 C 0.18613 0.16053 0.97399 0.0
C347 C 0.34105 0.24949 0.02121 0.0
C348 C 0.47596 0.31286 0.97377 0.0
C349 C 0.44307 0.30467 0.0178 0.0
C350 C 0.47105 0.29449 0.01463 0.0
C351 C 0.48755 0.29864 0.99244 0.0
N352 N 0.43193 0.3187 0.99941 0.0
C353 C 0.44793 0.32278 0.97761 0.0
Co354 Co 0.70848 0.96239 0.70601 0.0
Co355 Co 0.6271 0.95 0.67773 0.0
O356 O 0.65487 0.94948 0.706 0.0
C357 C 0.67059 0.88486 0.728 0.0
O358 O 0.64609 0.87244 0.71047 0.0
C359 C 0.61247 0.99571 0.71353 0.0
O360 O 0.64735 0.00954 0.72152 0.0
O361 O 0.66911 1.00207 0.66859 0.0
O362 O 0.72207 1.00503 0.68328 0.0
H363 H 0.61344 0.96997 0.5916 0.0
H364 H 0.66993 0.95516 0.75176 0.0
O365 O 0.69649 0.91989 0.72894 0.0
H366 H 0.77685 0.08769 0.74931 0.0
H367 H 0.8299 0.98333 0.74403 0.0
H368 H 0.76801 0.98399 0.66925 0.0
H369 H 0.76607 0.04356 0.7164 0.0
H370 H 0.76266 0.96762 0.74348 0.0
O371 O 0.60095 0.97296 0.69602 0.0
H372 H 0.64755 0.96887 0.62738 0.0
H373 H 0.54721 0.93217 0.66831 0.0
H374 H 0.83541 1.00021 0.66903 0.0
H375 H 0.67996 0.99819 0.7852 0.0
H376 H 0.86679 0.99993 0.70662 0.0
H377 H 0.73366 0.06504 0.78405 0.0
O378 O 0.6997 0.92728 0.679 0.0
H379 H 0.53537 0.85012 0.73393 0.0
H380 H 0.5811 0.87683 0.65169 0.0
H381 H 0.53078 0.81198 0.66269 0.0
H382 H 0.50755 0.7983 0.70408 0.0
H383 H 0.5859 0.91446 0.72221 0.0
H384 H 0.51211 0.93316 0.63302 0.0
H385 H 0.54521 0.95202 0.5943 0.0
O386 O 0.65117 0.92607 0.6588 0.0
C387 C 0.70537 0.01837 0.67063 0.0
C388 C 0.59867 0.96161 0.60836 0.0
C389 C 0.54182 0.94101 0.63162 0.0
N390 N 0.59936 0.95029 0.64989 0.0
C391 C 0.61782 0.96084 0.62867 0.0
C392 C 0.56189 0.94062 0.65156 0.0
C393 C 0.56041 0.95157 0.60989 0.0
C394 C 0.6936 0.98409 0.75124 0.0
N395 N 0.71741 0.99682 0.73215 0.0
C396 C 0.69903 0.00838 0.77018 0.0
C397 C 0.72912 0.0459 0.76951 0.0
C398 C 0.75333 0.05864 0.75 0.0
C399 C 0.74699 0.03357 0.73137 0.0
C400 C 0.81656 0.98359 0.72754 0.0
C401 C 0.78151 0.98399 0.68569 0.0
C402 C 0.77846 0.97462 0.72711 0.0
N403 N 0.76148 0.97508 0.70636 0.0
C404 C 0.81966 0.99311 0.68545 0.0
C405 C 0.83724 0.99292 0.70655 0.0
C406 C 0.67733 0.91755 0.66129 0.0
C407 C 0.54521 0.85574 0.71583 0.0
C408 C 0.57124 0.87107 0.66975 0.0
C409 C 0.54267 0.83432 0.67586 0.0
C410 C 0.52964 0.82667 0.69908 0.0
N411 N 0.5864 0.89943 0.68628 0.0
C412 C 0.57374 0.89215 0.70907 0.0
Co413 Co 0.75424 0.7031 0.87151 0.0
Co414 Co 0.68398 0.62585 0.84187 0.0
O415 O 0.71294 0.65002 0.87066 0.0
C416 C 0.79311 0.66412 0.89318 0.0
O417 O 0.78254 0.64101 0.87496 0.0
C418 C 0.62462 0.60624 0.87884 0.0
O419 O 0.64416 0.6415 0.88647 0.0
O420 O 0.67179 0.66749 0.83733 0.0
O421 O 0.72669 0.71869 0.84858 0.0
H422 H 0.64434 0.62275 0.75751 0.0
H423 H 0.72061 0.66358 0.91662 0.0
O424 O 0.78323 0.68943 0.89463 0.0
H425 H 0.69918 0.77323 0.91485 0.0
H426 H 0.85577 0.8222 0.9111 0.0
H427 H 0.79477 0.76312 0.83541 0.0
H428 H 0.73272 0.76218 0.88216 0.0
H429 H 0.80285 0.75565 0.90973 0.0
O430 O 0.63627 0.59571 0.86104 0.0
H431 H 0.68111 0.65278 0.79364 0.0
H432 H 0.62386 0.54655 0.82955 0.0
H433 H 0.84737 0.82988 0.83601 0.0
H434 H 0.68733 0.67381 0.94984 0.0
H435 H 0.87825 0.85984 0.87406 0.0
H436 H 0.67631 0.7289 0.94904 0.0
O437 O 0.7803 0.69359 0.84474 0.0
H438 H 0.69813 0.52809 0.8885 0.0
H439 H 0.71413 0.58787 0.81038 0.0
H440 H 0.73173 0.53819 0.8158 0.0
H441 H 0.72368 0.50788 0.85508 0.0
H442 H 0.6812 0.57813 0.88235 0.0
H443 H 0.58626 0.51541 0.79385 0.0
H444 H 0.59651 0.55356 0.75746 0.0
O445 O 0.73066 0.65462 0.82181 0.0
C446 C 0.69445 0.7035 0.83808 0.0
C447 C 0.63969 0.60579 0.77323 0.0
C448 C 0.60706 0.54557 0.79364 0.0
N449 N 0.65482 0.60142 0.81364 0.0
C450 C 0.6605 0.62263 0.79373 0.0
C451 C 0.62836 0.56339 0.81382 0.0
C452 C 0.61283 0.56698 0.77322 0.0
C453 C 0.71625 0.68783 0.91626 0.0
N454 N 0.72864 0.71227 0.89749 0.0
C455 C 0.69725 0.69338 0.93507 0.0
C456 C 0.69101 0.72425 0.93459 0.0
C457 C 0.7038 0.74911 0.9154 0.0
C458 C 0.72264 0.74262 0.89689 0.0
C459 C 0.8425 0.80949 0.89442 0.0
C460 C 0.80792 0.77603 0.85206 0.0
C461 C 0.81259 0.77178 0.89352 0.0
N462 N 0.79557 0.75559 0.87253 0.0
C463 C 0.83776 0.8138 0.85228 0.0
C464 C 0.8551 0.83059 0.87363 0.0
C465 C 0.76631 0.67673 0.82519 0.0
C466 C 0.70164 0.54099 0.87128 0.0
C467 C 0.71061 0.57488 0.82754 0.0
C468 C 0.72056 0.54671 0.83049 0.0
C469 C 0.71603 0.5297 0.85253 0.0
N470 N 0.69642 0.58572 0.846 0.0
C471 C 0.69196 0.56923 0.86767 0.0
Co472 Co 0.05915 0.74966 0.03623 0.0
Co473 Co 0.06708 0.68 0.00645 0.0
O474 O 0.07148 0.70874 0.03529 0.0
C475 C 0.13699 0.78879 0.0579 0.0
O476 O 0.14949 0.77801 0.03975 0.0
C477 C 0.02735 0.62027 0.04321 0.0
O478 O 0.01134 0.63954 0.05088 0.0
O479 O 0.01314 0.66735 1.00185 0.0
O480 O 0.01599 0.72175 0.01335 0.0
H481 H 0.03112 0.64054 0.922 0.0
H482 H 0.06562 0.7162 0.08125 0.0
O483 O 0.1018 0.77897 0.05931 0.0
H484 H 0.93402 0.69339 0.07976 0.0
H485 H 0.04029 0.85026 0.07604 0.0
H486 H 0.03889 0.7897 1.00025 0.0
H487 H 0.97837 0.72732 0.04704 0.0
H488 H 0.05469 0.79787 0.07455 0.0
O489 O 0.04975 0.63226 0.02552 0.0
H490 H 0.03735 0.67703 0.95819 0.0
H491 H 0.08702 0.62044 0.99408 0.0
H492 H 0.02398 0.84178 1.00096 0.0
H493 H 0.02236 0.68254 0.1145 0.0
H494 H 0.02463 0.87244 0.03906 0.0
H495 H 0.95599 0.67082 0.11384 0.0
O496 O 0.09453 0.77604 0.00943 0.0
H497 H 0.17916 0.69486 0.05322 0.0
H498 H 0.13542 0.71087 0.97509 0.0
H499 H 0.20284 0.72901 0.98063 0.0
H500 H 0.22508 0.72096 0.01991 0.0
H501 H 0.11205 0.67739 0.04697 0.0
H502 H 0.08108 0.58312 0.95832 0.0
H503 H 0.05309 0.59318 0.92192 0.0
O504 O 0.08469 0.72669 0.98648 0.0
C505 C 0.99931 0.68959 1.00275 0.0
C506 C 0.04347 0.63597 0.93773 0.0
C507 C 0.07146 0.60371 0.95813 0.0
N508 N 0.06274 0.65106 0.97818 0.0
C509 C 0.04716 0.65662 0.95826 0.0
C510 C 0.07466 0.62486 0.97834 0.0
C511 C 0.05576 0.60938 0.9377 0.0
C512 C 0.0369 0.71154 0.08095 0.0
N513 N 0.02456 0.72376 0.06224 0.0
C514 C 0.01248 0.69232 0.09978 0.0
C515 C 0.97523 0.68569 0.09937 0.0
C516 C 0.96287 0.6983 0.08025 0.0
C517 C 0.98806 0.71737 0.06172 0.0
C518 C 0.03986 0.83709 0.05933 0.0
C519 C 0.03904 0.80276 0.01691 0.0
C520 C 0.04808 0.80747 0.05837 0.0
N521 N 0.0474 0.79058 0.03735 0.0
C522 C 0.03066 0.8323 0.0172 0.0
C523 C 0.03106 0.84951 0.03858 0.0
C524 C 0.09771 0.76225 0.98988 0.0
C525 C 0.16978 0.69837 0.036 0.0
C526 C 0.14489 0.70735 0.99226 0.0
C527 C 0.18309 0.71761 0.99527 0.0
C528 C 0.19554 0.71307 0.01732 0.0
N529 N 0.11976 0.69286 0.01066 0.0
C530 C 0.13178 0.68839 0.03233 0.0
Co531 Co 0.31274 0.05342 0.20344 0.0
Co532 Co 0.39053 0.06046 0.1744 0.0
O533 O 0.36584 0.06519 0.20299 0.0
C534 C 0.35123 0.13122 0.22533 0.0
O535 O 0.37469 0.14401 0.20727 0.0
C536 C 0.40944 0.02054 0.2116 0.0
O537 O 0.37404 1.00482 0.219 0.0
O538 O 0.34897 0.00664 0.16966 0.0
O539 O 0.29758 0.01031 0.18054 0.0
H540 H 0.39528 0.02438 0.09013 0.0
H541 H 0.35154 0.05924 0.24882 0.0
O542 O 0.32595 0.09599 0.22657 0.0
H543 H 0.24184 0.9282 0.24665 0.0
H544 H 0.19284 0.03563 0.24209 0.0
H545 H 0.25335 0.03388 0.16692 0.0
H546 H 0.25342 0.97284 0.21391 0.0
H547 H 0.25946 0.04939 0.24123 0.0
O548 O 0.42032 0.04282 0.19386 0.0
H549 H 0.36453 0.03087 0.12601 0.0
H550 H 0.47006 0.07966 0.16269 0.0
H551 H 0.18655 0.01961 0.167 0.0
H552 H 0.34077 0.01569 0.28209 0.0
H553 H 0.15586 0.02044 0.20479 0.0
H554 H 0.28565 0.94959 0.28108 0.0
O555 O 0.32271 0.08902 0.17661 0.0
H556 H 0.48748 0.17225 0.22151 0.0
H557 H 0.42905 0.12867 0.14304 0.0
H558 H 0.47864 0.19593 0.14868 0.0
H559 H 0.50827 0.2181 0.18813 0.0
H560 H 0.43755 0.10529 0.21514 0.0
H561 H 0.5019 0.07342 0.12725 0.0
H562 H 0.46448 0.04575 0.0906 0.0
O563 O 0.3621 0.07836 0.15407 0.0
C564 C 0.31294 0.99327 0.1702 0.0
C565 C 0.41192 0.03658 0.10597 0.0
C566 C 0.47175 0.06405 0.12682 0.0
N567 N 0.4155 0.05582 0.14639 0.0
C568 C 0.39468 0.04041 0.12633 0.0
C569 C 0.45353 0.06741 0.14685 0.0
C570 C 0.45073 0.04854 0.10625 0.0
C571 C 0.32728 0.03064 0.24837 0.0
N572 N 0.30312 0.01861 0.22946 0.0
C573 C 0.32142 0.00606 0.26721 0.0
C574 C 0.29053 0.96896 0.26661 0.0
C575 C 0.26597 0.95692 0.24728 0.0
C576 C 0.27276 0.98228 0.22875 0.0
C577 C 0.20588 0.03513 0.22552 0.0
C578 C 0.24014 0.0341 0.18345 0.0
C579 C 0.24363 0.04299 0.22491 0.0
N580 N 0.26021 0.04221 0.20406 0.0
C581 C 0.20233 0.02609 0.18338 0.0
C582 C 0.18514 0.0266 0.20458 0.0
C583 C 0.33987 0.09183 0.15718 0.0
C584 C 0.47487 0.1629 0.20421 0.0
C585 C 0.44175 0.1381 0.16027 0.0
C586 C 0.46987 0.17621 0.16335 0.0
C587 C 0.48649 0.18863 0.18549 0.0
N588 N 0.43058 0.11301 0.17871 0.0
C589 C 0.4467 0.12499 0.20048 0.0
Co590 Co 0.26492 0.31001 0.36963 0.0
Co591 Co 0.335 0.38775 0.3402 0.0
O592 O 0.30599 0.36325 0.36896 0.0
C593 C 0.22561 0.3485 0.39147 0.0
O594 O 0.23664 0.37202 0.37344 0.0
C595 C 0.3948 0.40811 0.37705 0.0
O596 O 0.37564 0.37294 0.3849 0.0
O597 O 0.34775 0.34651 0.33566 0.0
O598 O 0.29296 0.29494 0.34668 0.0
H599 H 0.37527 0.39153 0.25589 0.0
H600 H 0.29812 0.34936 0.41483 0.0
O601 O 0.23542 0.32312 0.39278 0.0
H602 H 0.32051 0.24033 0.41285 0.0
H603 H 0.16376 0.19015 0.4088 0.0
H604 H 0.22508 0.25018 0.33334 0.0
H605 H 0.28695 0.25128 0.38016 0.0
H606 H 0.21629 0.2569 0.40766 0.0
O607 O 0.38262 0.41826 0.35935 0.0
H608 H 0.3385 0.36113 0.29197 0.0
H609 H 0.39448 0.46735 0.32795 0.0
H610 H 0.17286 0.18324 0.33369 0.0
H611 H 0.33143 0.33923 0.44806 0.0
H612 H 0.14182 0.1528 0.37163 0.0
H613 H 0.34292 0.28444 0.44715 0.0
O614 O 0.2388 0.31939 0.34284 0.0
H615 H 0.31953 0.48468 0.3869 0.0
H616 H 0.30425 0.42518 0.30874 0.0
H617 H 0.28596 0.47435 0.31421 0.0
H618 H 0.29363 0.50451 0.35351 0.0
H619 H 0.33716 0.43515 0.3807 0.0
H620 H 0.43207 0.49885 0.2923 0.0
H621 H 0.42246 0.46089 0.2559 0.0
O622 O 0.28853 0.35865 0.32008 0.0
C623 C 0.32531 0.31045 0.33626 0.0
C624 C 0.37964 0.4084 0.27161 0.0
C625 C 0.41156 0.46862 0.29206 0.0
N626 N 0.36415 0.41246 0.31201 0.0
C627 C 0.35883 0.39136 0.29209 0.0
C628 C 0.39025 0.4506 0.31222 0.0
C629 C 0.40614 0.44731 0.27164 0.0
C630 C 0.3027 0.32526 0.41443 0.0
N631 N 0.29055 0.30092 0.39561 0.0
C632 C 0.32172 0.31975 0.43324 0.0
C633 C 0.32821 0.28905 0.4327 0.0
C634 C 0.31569 0.26432 0.41345 0.0
C635 C 0.29683 0.27075 0.39494 0.0
C636 C 0.17709 0.20308 0.39216 0.0
C637 C 0.21185 0.23707 0.34993 0.0
C638 C 0.20679 0.2409 0.3914 0.0
N639 N 0.22389 0.25735 0.37047 0.0
C640 C 0.18223 0.19919 0.35001 0.0
C641 C 0.16481 0.18214 0.3713 0.0
C642 C 0.2529 0.33626 0.32331 0.0
C643 C 0.31617 0.47184 0.36967 0.0
C644 C 0.30761 0.43811 0.32591 0.0
C645 C 0.29726 0.46599 0.32889 0.0
C646 C 0.30159 0.48292 0.35094 0.0
N647 N 0.32199 0.42747 0.34436 0.0
C648 C 0.32625 0.44389 0.36604 0.0
Co649 Co 0.95984 0.26112 0.53673 0.0
Co650 Co 0.95354 0.33169 0.50693 0.0
O651 O 0.94835 0.30261 0.53575 0.0
C652 C 0.88147 0.22209 0.55776 0.0
O653 O 0.86935 0.23257 0.5393 0.0
C654 C 0.99268 0.39087 0.54418 0.0
O655 O 1.00787 0.37108 0.55224 0.0
O656 O 1.00734 0.34359 0.50254 0.0
O657 O 1.00341 0.28867 0.51401 0.0
H658 H 0.99078 0.37131 0.42262 0.0
H659 H 0.95337 0.29447 0.58181 0.0
O660 O 0.91668 0.23213 0.55961 0.0
H661 H 0.08428 0.31536 0.58078 0.0
H662 H 0.97609 0.15896 0.57655 0.0
H663 H 0.97978 0.22067 0.50082 0.0
H664 H 0.04019 0.28227 0.54781 0.0
H665 H 0.96277 0.21207 0.57502 0.0
O666 O 0.97115 0.37944 0.52609 0.0
H667 H 0.98358 0.33442 0.45877 0.0
H668 H 0.9349 0.39214 0.4945 0.0
H669 H 0.99362 0.16786 0.50157 0.0
H670 H 0.99636 0.32727 0.6153 0.0
H671 H 0.99181 0.13662 0.53964 0.0
H672 H 0.06239 0.33802 0.61487 0.0
O673 O 0.9247 0.23533 0.50978 0.0
H674 H 0.84145 0.31798 0.55324 0.0
H675 H 0.8857 0.30197 0.47525 0.0
H676 H 0.81847 0.28471 0.48048 0.0
H677 H 0.79596 0.29276 0.5197 0.0
H678 H 0.90838 0.33458 0.54728 0.0
H679 H 0.94183 0.42986 0.45878 0.0
H680 H 0.96982 0.41945 0.42247 0.0
O681 O 0.93557 0.28503 0.48686 0.0
C682 C 0.0206 0.32085 0.50342 0.0
C683 C 0.97845 0.37605 0.4383 0.0
C684 C 0.95103 0.40895 0.45861 0.0
N685 N 0.95865 0.36096 0.47869 0.0
C686 C 0.97422 0.35518 0.45882 0.0
C687 C 0.94727 0.38757 0.4788 0.0
C688 C 0.96672 0.40307 0.43824 0.0
C689 C 0.98194 0.29871 0.58161 0.0
N690 N 0.99423 0.28643 0.5629 0.0
C691 C 1.00621 0.31745 0.60057 0.0
C692 C 0.04327 0.32353 0.6003 0.0
C693 C 0.05559 0.31086 0.58116 0.0
C694 C 0.03054 0.29229 0.56249 0.0
C695 C 0.97703 0.17238 0.55986 0.0
C696 C 0.97914 0.20736 0.51747 0.0
C697 C 0.96942 0.20241 0.55887 0.0
N698 N 0.97075 0.21962 0.53787 0.0
C699 C 0.98691 0.17741 0.51778 0.0
C700 C 0.98586 0.15987 0.53914 0.0
C701 C 0.92195 0.24937 0.49023 0.0
C702 C 0.85094 0.31447 0.53605 0.0
C703 C 0.87613 0.30549 0.49238 0.0
C704 C 0.83803 0.29573 0.49523 0.0
C705 C 0.82542 0.30027 0.51723 0.0
N706 N 0.90102 0.31951 0.51091 0.0
C707 C 0.88885 0.32396 0.53255 0.0
H708 H 0.03608 0.56204 0.02594 0.0
H709 H 0.03291 0.47244 0.1504 0.0
H710 H 1.00637 0.60025 0.08937 0.0
H711 H 1.00668 0.40617 0.08645 0.0
H712 H 0.02878 0.5224 0.1285 0.0
H713 H 0.03095 0.50742 0.04774 0.0
C714 C 0.02826 0.55882 0.04443 0.0
C715 C 0.02163 0.58575 0.05586 0.0
C716 C 0.02358 0.49677 0.11933 0.0
C717 C 0.01635 0.52364 0.08097 0.0
C718 C 0.02605 0.4683 0.13177 0.0
C719 C 0.02011 0.43506 0.12023 0.0
C720 C 0.01601 0.49246 0.09501 0.0
C721 C 0.01126 0.43122 0.09607 0.0
C722 C 0.02521 0.52757 0.05682 0.0
C723 C 0.01153 0.58008 0.07984 0.0
N724 N 0.00997 0.45981 0.08419 0.0
N725 N 0.00969 0.54992 0.09168 0.0
H726 H 0.60505 1.00027 0.25401 0.0
H727 H 0.40751 1.00026 0.25798 0.0
H728 H 0.56445 0.02879 0.31687 0.0
H729 H 0.47643 0.02831 0.19505 0.0
H730 H 0.45771 0.99611 0.27986 0.0
H731 H 0.5506 0.99592 0.23216 0.0
C732 C 0.58444 1.00511 0.26328 0.0
C733 C 0.58934 0.01503 0.28727 0.0
C734 C 0.46162 1.00289 0.26122 0.0
C735 C 0.52697 0.00975 0.26247 0.0
C736 C 0.43295 1.00505 0.24871 0.0
C737 C 0.43787 0.01478 0.22468 0.0
C738 C 0.49506 0.00971 0.24951 0.0
C739 C 0.47156 0.02096 0.21359 0.0
C740 C 0.55354 1.00284 0.25078 0.0
C741 C 0.56188 0.02128 0.29835 0.0
N742 N 0.4988 0.01821 0.22606 0.0
N743 N 0.53182 0.01843 0.2859 0.0
H744 H 0.54408 0.56175 0.48354 0.0
H745 H 0.45223 0.4753 0.35947 0.0
H746 H 0.60762 0.60486 0.41885 0.0
H747 H 0.4162 0.40744 0.42295 0.0
H748 H 0.50709 0.5252 0.38085 0.0
H749 H 0.49471 0.507 0.46185 0.0
C750 C 0.54779 0.55954 0.46478 0.0
C751 C 0.58004 0.58795 0.45297 0.0
C752 C 0.48739 0.49924 0.39004 0.0
C753 C 0.52322 0.52561 0.42798 0.0
C754 C 0.45598 0.4708 0.37788 0.0
C755 C 0.42954 0.43714 0.38946 0.0
C756 C 0.49203 0.49445 0.4141 0.0
C757 C 0.43594 0.43284 0.41331 0.0
C758 C 0.51963 0.52822 0.45245 0.0
C759 C 0.58334 0.58354 0.42866 0.0
N760 N 0.46625 0.46137 0.42493 0.0
N761 N 0.55501 0.55323 0.4169 0.0
H762 H 0.98139 0.53573 0.65144 0.0
H763 H 0.98542 0.4499 0.52678 0.0
H764 H 0.01127 0.60387 0.58813 0.0
H765 H 0.01091 0.40942 0.5908 0.0
H766 H 0.98928 0.50385 0.54876 0.0
H767 H 0.98649 0.48628 0.62955 0.0
C768 C 0.98923 0.54038 0.63296 0.0
C769 C 0.99594 0.57401 0.62159 0.0
C770 C 0.99438 0.48335 0.55794 0.0
C771 C 1.0012 0.51721 0.59637 0.0
C772 C 0.99207 0.4525 0.54544 0.0
C773 C 0.99789 0.42512 0.55698 0.0
C774 C 1.00166 0.48645 0.58228 0.0
C775 C 1.00644 0.42997 0.58118 0.0
C776 C 0.99226 0.5122 0.62052 0.0
C777 C 1.00606 0.57849 0.59762 0.0
N778 N 1.00758 0.45975 0.5931 0.0
N779 N 1.0079 0.55021 0.58572 0.0
H780 H 0.61303 0.01454 0.76012 0.0
H781 H 0.41579 0.01534 0.75425 0.0
H782 H 0.54774 0.99178 0.69599 0.0
H783 H 0.45372 0.98345 0.81688 0.0
H784 H 0.47163 0.0217 0.73303 0.0
H785 H 0.56226 0.01839 0.78154 0.0
C786 C 0.58836 0.01101 0.75048 0.0
C787 C 0.58454 1.00272 0.72625 0.0
C788 C 0.46779 0.01361 0.75148 0.0
C789 C 0.52663 0.00728 0.75059 0.0
C790 C 0.43608 0.01015 0.76361 0.0
C791 C 0.43 0.99867 0.78734 0.0
C792 C 0.494 0.00629 0.76327 0.0
C793 C 0.45715 0.9921 0.79855 0.0
C794 C 0.55932 0.01294 0.76274 0.0
C795 C 0.55175 0.99803 0.71469 0.0
N796 N 0.48799 0.99608 0.78646 0.0
N797 N 0.52411 1.00043 0.72694 0.0
H798 H 0.40908 0.40921 0.92041 0.0
H799 H 0.60586 0.60737 0.92523 0.0
H800 H 0.47782 0.44945 0.9834 0.0
H801 H 0.56574 0.53935 0.86194 0.0
H802 H 0.55155 0.55666 0.94687 0.0
H803 H 0.45913 0.46403 0.89876 0.0
C804 C 0.43445 0.4298 0.92975 0.0
C805 C 0.43937 0.4247 0.95372 0.0
C806 C 0.55457 0.55306 0.9282 0.0
C807 C 0.49638 0.4875 0.92915 0.0
C808 C 0.58538 0.58203 0.91583 0.0
C809 C 0.59039 0.5775 0.89177 0.0
C810 C 0.52818 0.5197 0.91633 0.0
C811 C 0.56309 0.54391 0.88051 0.0
C812 C 0.46303 0.46091 0.91736 0.0
C813 C 0.47296 0.45216 0.9649 0.0
N814 N 0.53312 0.51636 0.89285 0.0
N815 N 0.50012 0.48242 0.95256 0.0
H816 H 0.11778 0.30446 0.07893 0.0
H817 H 0.33472 0.37946 0.04064 0.0
H818 H 0.21394 0.39169 0.1174 0.0
H819 H 0.23655 0.28548 0.00764 0.0
H820 H 0.29171 0.3896 0.06626 0.0
H821 H 0.16151 0.30244 0.05024 0.0
C822 C 0.14813 0.32339 0.08133 0.0
C823 C 0.1621 0.3481 0.10081 0.0
C824 C 0.27966 0.367 0.05325 0.0
C825 C 0.21272 0.3458 0.06777 0.0
C826 C 0.30421 0.36128 0.03851 0.0
C827 C 0.28938 0.33141 0.02194 0.0
C828 C 0.23998 0.34283 0.05135 0.0
C829 C 0.2495 0.30876 0.02015 0.0
C830 C 0.17317 0.32219 0.06487 0.0
C831 C 0.20182 0.37208 0.10275 0.0
N832 N 0.22635 0.31484 0.03469 0.0
N833 N 0.22574 0.37018 0.08653 0.0
H834 H 0.82365 0.21011 0.28361 0.0
H835 H 0.95522 0.23055 0.17266 0.0
H836 H 0.81911 0.11522 0.24596 0.0
H837 H 0.95857 0.3276 0.20671 0.0
H838 H 0.90225 0.18833 0.19795 0.0
H839 H 0.86996 0.25376 0.25459 0.0
C840 C 0.83211 0.19839 0.26918 0.0
C841 C 0.81755 0.15885 0.26738 0.0
C842 C 0.91428 0.21884 0.19983 0.0
C843 C 0.87067 0.20873 0.23412 0.0
C844 C 0.94462 0.24311 0.18529 0.0
C845 C 0.96172 0.2829 0.18752 0.0
C846 C 0.9008 0.23418 0.21704 0.0
C847 C 0.94641 0.29718 0.2043 0.0
C848 C 0.85859 0.22336 0.25262 0.0
C849 C 0.82961 0.14541 0.24824 0.0
N850 N 0.91708 0.27287 0.21856 0.0
N851 N 0.8555 0.17024 0.23252 0.0
H852 H 0.6192 0.82304 0.45235 0.0
H853 H 0.73045 0.95351 0.3409 0.0
H854 H 0.71242 0.82125 0.41652 0.0
H855 H 0.63666 0.95713 0.37468 0.0
H856 H 0.72046 0.9016 0.36693 0.0
H857 H 0.62174 0.86883 0.42296 0.0
C858 C 0.64003 0.83204 0.43827 0.0
C859 C 0.6658 0.81836 0.43707 0.0
C860 C 0.70181 0.91347 0.3686 0.0
C861 C 0.66884 0.8708 0.40335 0.0
C862 C 0.70743 0.94319 0.35363 0.0
C863 C 0.68449 0.96007 0.35555 0.0
C864 C 0.67315 0.90034 0.38591 0.0
C865 C 0.6551 0.94513 0.37248 0.0
C866 C 0.64146 0.85821 0.42149 0.0
C867 C 0.6921 0.83107 0.41835 0.0
N868 N 0.65049 0.91638 0.38713 0.0
N869 N 0.69301 0.85656 0.40238 0.0
H870 H 0.68144 0.63376 0.5433 0.0
H871 H 0.89839 0.705 0.57987 0.0
H872 H 0.78019 0.72572 0.50938 0.0
H873 H 0.80224 0.6195 0.61926 0.0
H874 H 0.85457 0.70761 0.55156 0.0
H875 H 0.72414 0.62287 0.56879 0.0
C876 C 0.71199 0.65132 0.54094 0.0
C877 C 0.72709 0.68081 0.52412 0.0
C878 C 0.84292 0.68811 0.56631 0.0
C879 C 0.77612 0.66857 0.55336 0.0
C880 C 0.86802 0.68656 0.58255 0.0
C881 C 0.8541 0.66217 0.60217 0.0
C882 C 0.80334 0.66517 0.56957 0.0
C883 C 0.81433 0.63884 0.60447 0.0
C884 C 0.73636 0.64518 0.5556 0.0
C885 C 0.76701 0.70272 0.52206 0.0
N886 N 0.79035 0.64108 0.58846 0.0
N887 N 0.78995 0.69625 0.5365 0.0
H888 H 0.0568 0.68029 0.70763 0.0
H889 H 0.20011 0.89743 0.74488 0.0
H890 H 0.06122 0.7783 0.67426 0.0
H891 H 0.19155 0.80139 0.78328 0.0
H892 H 0.15374 0.85359 0.71649 0.0
H893 H 0.11037 0.72341 0.73292 0.0
C894 C 0.06926 0.71079 0.70536 0.0
C895 C 0.05416 0.72553 0.68877 0.0
C896 C 0.16206 0.84199 0.73104 0.0
C897 C 0.11549 0.77509 0.71781 0.0
C898 C 0.18867 0.86709 0.74731 0.0
C899 C 0.19969 0.85319 0.76669 0.0
C900 C 0.14605 0.80243 0.73401 0.0
C901 C 0.18387 0.81347 0.7687 0.0
C902 C 0.09977 0.7354 0.7199 0.0
C903 C 0.07158 0.76541 0.68679 0.0
N904 N 0.15771 0.7895 0.75266 0.0
N905 N 0.10104 0.78863 0.70115 0.0
H906 H 0.28826 0.05913 0.83955 0.0
H907 H 0.39854 0.18944 0.95112 0.0
H908 H 0.38134 0.05504 0.8739 0.0
H909 H 0.3083 0.19425 0.91356 0.0
H910 H 0.39587 0.14324 0.92203 0.0
H911 H 0.29865 0.11167 0.86516 0.0
C912 C 0.3112 0.06947 0.85231 0.0
C913 C 0.33384 0.05231 0.85452 0.0
C914 C 0.37685 0.15462 0.9201 0.0
C915 C 0.34565 0.11273 0.88439 0.0
C916 C 0.37837 0.18105 0.93671 0.0
C917 C 0.35344 0.19568 0.93494 0.0
C918 C 0.3502 0.14268 0.90158 0.0
C919 C 0.32795 0.18369 0.91581 0.0
C920 C 0.31707 0.09957 0.86704 0.0
C921 C 0.36314 0.06727 0.87149 0.0
N922 N 0.32689 0.15788 0.90004 0.0
N923 N 0.36797 0.09637 0.8859 0.0
H924 H 0.63647 0.68438 0.80579 0.0
H925 H 0.71557 0.90187 0.76724 0.0
H926 H 0.73155 0.78158 0.83876 0.0
H927 H 0.6243 0.80663 0.7304 0.0
H928 H 0.71736 0.85774 0.79569 0.0
H929 H 0.62707 0.72805 0.78037 0.0
C930 C 0.65506 0.71482 0.80795 0.0
C931 C 0.685 0.72917 0.82446 0.0
C932 C 0.69678 0.84637 0.78147 0.0
C933 C 0.67447 0.77934 0.79526 0.0
C934 C 0.69573 0.87165 0.76515 0.0
C935 C 0.66991 0.85803 0.74621 0.0
C936 C 0.67192 0.80694 0.77896 0.0
C937 C 0.64479 0.81847 0.74464 0.0
C938 C 0.64975 0.73975 0.79333 0.0
C939 C 0.70819 0.76899 0.8263 0.0
N940 N 0.64656 0.79431 0.7607 0.0
N941 N 0.70254 0.7925 0.81185 0.0
H942 H 0.81848 0.70661 0.93356 0.0
H943 H 0.9613 0.63194 0.97014 0.0
H944 H 0.82705 0.61957 0.89458 0.0
H945 H 0.95699 0.7253 1.00398 0.0
H946 H 0.90776 0.62179 0.94494 0.0
H947 H 0.86456 0.70855 0.96193 0.0
C948 C 0.82987 0.68769 0.93099 0.0
C949 C 0.81896 0.66308 0.91146 0.0
C950 C 0.91838 0.64425 0.95804 0.0
C951 C 0.87225 0.66529 0.94412 0.0
C952 C 0.94887 0.64999 0.97254 0.0
C953 C 0.96399 0.67968 0.98923 0.0
C954 C 0.90271 0.66825 0.96029 0.0
C955 C 0.94661 0.70216 0.99137 0.0
C956 C 0.8563 0.68885 0.94726 0.0
C957 C 0.83468 0.63912 0.90929 0.0
N958 N 0.91717 0.69608 0.97705 0.0
N959 N 0.86069 0.64098 0.92532 0.0
H960 H 0.23494 0.9514 0.17136 0.0
H961 H 0.21532 0.82138 0.05976 0.0
H962 H 0.33229 0.95526 0.13735 0.0
H963 H 0.12012 0.81551 0.09781 0.0
H964 H 0.25882 0.86752 0.08889 0.0
H965 H 0.19292 0.89871 0.14584 0.0
C966 C 0.24761 0.94097 0.15869 0.0
C967 C 0.28743 0.95813 0.15655 0.0
C968 C 0.22839 0.8559 0.09092 0.0
C969 C 0.23895 0.89753 0.12676 0.0
C970 C 0.2035 0.82952 0.07429 0.0
C971 C 0.16391 0.81463 0.07618 0.0
C972 C 0.21361 0.86755 0.10957 0.0
C973 C 0.15035 0.82628 0.09546 0.0
C974 C 0.22345 0.91078 0.14401 0.0
C975 C 0.30185 0.94304 0.1397 0.0
N976 N 0.17508 0.85208 0.11124 0.0
N977 N 0.27765 0.91388 0.12532 0.0
H978 H 0.30784 0.11352 0.26537 0.0
H979 H 0.38344 0.33042 0.30393 0.0
H980 H 0.39604 0.20968 0.22738 0.0
H981 H 0.28901 0.23237 0.33674 0.0
H982 H 0.39352 0.28736 0.27834 0.0
H983 H 0.30565 0.1572 0.29403 0.0
C984 C 0.32695 0.14385 0.26307 0.0
C985 C 0.35199 0.15784 0.24374 0.0
C986 C 0.37083 0.27534 0.2913 0.0
C987 C 0.3495 0.20842 0.27674 0.0
C988 C 0.36514 0.29992 0.30602 0.0
C989 C 0.33517 0.28515 0.32254 0.0
C990 C 0.34652 0.23568 0.29314 0.0
C991 C 0.31237 0.24528 0.32428 0.0
C992 C 0.32565 0.16887 0.27951 0.0
C993 C 0.37617 0.19754 0.24192 0.0
N994 N 0.31842 0.2221 0.30975 0.0
N995 N 0.37418 0.22144 0.25812 0.0
H996 H 0.19378 0.39487 0.39367 0.0
H997 H 0.06177 0.28392 0.5046 0.0
H998 H 0.19756 0.30385 0.43093 0.0
H999 H 0.05936 0.37818 0.47068 0.0
H1000 H 0.11442 0.29409 0.47912 0.0
H1001 H 0.14746 0.39221 0.42267 0.0
C1002 C 0.18513 0.37452 0.408 0.0
C1003 C 0.19954 0.3494 0.4097 0.0
C1004 C 0.10266 0.31281 0.47731 0.0
C1005 C 0.14636 0.34615 0.44297 0.0
C1006 C 0.07251 0.30707 0.49196 0.0
C1007 C 0.05576 0.33011 0.48983 0.0
C1008 C 0.11632 0.34165 0.46011 0.0
C1009 C 0.07123 0.35967 0.47303 0.0
C1010 C 0.15864 0.37301 0.42456 0.0
C1011 C 0.18722 0.32368 0.42873 0.0
N1012 N 0.10037 0.36436 0.4587 0.0
N1013 N 0.16132 0.32262 0.44446 0.0
H1014 H 0.80285 0.18674 0.5578 0.0
H1015 H 0.78254 0.06582 0.67434 0.0
H1016 H 0.89755 0.19803 0.59908 0.0
H1017 H 0.6852 0.05004 0.634 0.0
H1018 H 0.8241 0.11813 0.64849 0.0
H1019 H 0.75876 0.14052 0.58672 0.0
C1020 C 0.81442 0.17979 0.573 0.0
C1021 C 0.85408 0.19623 0.57587 0.0
C1022 C 0.79365 0.10352 0.64532 0.0
C1023 C 0.8037 0.14325 0.60903 0.0
C1024 C 0.76972 0.07353 0.66019 0.0
C1025 C 0.73009 0.05316 0.65642 0.0
C1026 C 0.77818 0.11342 0.62626 0.0
C1027 C 0.7155 0.06484 0.63767 0.0
C1028 C 0.7892 0.15333 0.58949 0.0
C1029 C 0.8673 0.18604 0.59596 0.0
N1030 N 0.73955 0.09397 0.62319 0.0
N1031 N 0.84225 0.16021 0.61162 0.0
H1032 H 0.27039 0.34269 0.27646 0.0
H1033 H 0.08417 0.34136 0.23417 0.0
H1034 H 0.17724 0.31616 0.32419 0.0
H1035 H 0.15147 0.31562 0.18653 0.0
H1036 H 0.11975 0.33623 0.2674 0.0
H1037 H 0.22938 0.3369 0.24326 0.0
C1038 C 0.24122 0.33549 0.27996 0.0
C1039 C 0.22724 0.33011 0.30316 0.0
C1040 C 0.12647 0.33133 0.24971 0.0
C1041 C 0.18033 0.32383 0.26518 0.0
C1042 C 0.10635 0.33445 0.2307 0.0
C1043 C 0.11504 0.32911 0.20751 0.0
C1044 C 0.15608 0.3236 0.24552 0.0
C1045 C 0.14384 0.31991 0.20411 0.0
C1046 C 0.21781 0.33198 0.26097 0.0
C1047 C 0.18913 0.3205 0.30659 0.0
N1048 N 0.16373 0.31796 0.2229 0.0
N1049 N 0.16711 0.31818 0.28781 0.0
H1050 H 0.86604 0.17405 0.49191 0.0
H1051 H 0.84107 0.14895 0.35197 0.0
H1052 H 0.93172 0.2659 0.44319 0.0
H1053 H 0.74882 0.0848 0.40076 0.0
H1054 H 0.88196 0.18485 0.38539 0.0
H1055 H 0.82993 0.13347 0.45845 0.0
C1056 C 0.87314 0.18552 0.47419 0.0
C1057 C 0.9017 0.22346 0.47032 0.0
C1058 C 0.85281 0.16272 0.3887 0.0
C1059 C 0.86093 0.17725 0.43213 0.0
C1060 C 0.82956 0.14217 0.36969 0.0
C1061 C 0.79143 0.11409 0.37359 0.0
C1062 C 0.838 0.15455 0.41173 0.0
C1063 C 0.77792 0.1065 0.39693 0.0
C1064 C 0.85245 0.16245 0.45516 0.0
C1065 C 0.90965 0.23693 0.44698 0.0
N1066 N 0.80119 0.12655 0.41512 0.0
N1067 N 0.88943 0.21383 0.42877 0.0
H1068 H 0.62211 0.84751 0.64798 0.0
H1069 H 0.72543 0.83806 0.5307 0.0
H1070 H 0.73804 0.93339 0.63256 0.0
H1071 H 0.63007 0.7401 0.56303 0.0
H1072 H 0.72955 0.87607 0.56564 0.0
H1073 H 0.6232 0.80991 0.61466 0.0
C1074 C 0.64788 0.85827 0.63756 0.0
C1075 C 0.67999 0.89341 0.64288 0.0
C1076 C 0.70788 0.8462 0.56498 0.0
C1077 C 0.68147 0.85092 0.60451 0.0
C1078 C 0.70534 0.82455 0.54502 0.0
C1079 C 0.67708 0.78584 0.54371 0.0
C1080 C 0.68169 0.82906 0.58354 0.0
C1081 C 0.6521 0.76982 0.56295 0.0
C1082 C 0.64859 0.83682 0.61858 0.0
C1083 C 0.71284 0.90615 0.62899 0.0
N1084 N 0.65486 0.79151 0.58189 0.0
N1085 N 0.71267 0.88505 0.61018 0.0
H1086 H 0.86601 0.69604 0.68671 0.0
H1087 H 0.84156 0.6957 0.82678 0.0
H1088 H 0.92988 0.66712 0.73517 0.0
H1089 H 0.74987 0.67056 0.77818 0.0
H1090 H 0.88202 0.7001 0.79322 0.0
H1091 H 0.83068 0.70156 0.72029 0.0
C1092 C 0.87287 0.69126 0.7044 0.0
C1093 C 0.90068 0.6808 0.70815 0.0
C1094 C 0.8531 0.69388 0.78998 0.0
C1095 C 0.86084 0.68748 0.74649 0.0
C1096 C 0.83011 0.69154 0.80907 0.0
C1097 C 0.79223 0.68244 0.80526 0.0
C1098 C 0.8383 0.68784 0.76697 0.0
C1099 C 0.77878 0.67722 0.78193 0.0
C1100 C 0.85264 0.69425 0.7235 0.0
C1101 C 0.90837 0.67484 0.73145 0.0
N1102 N 0.8018 0.68005 0.76367 0.0
N1103 N 0.88861 0.67832 0.74974 0.0
H1104 H 0.17715 0.8628 0.85143 0.0
H1105 H 0.15288 0.83791 0.99149 0.0
H1106 H 0.26929 0.92793 0.90006 0.0
H1107 H 0.08788 0.74575 0.94285 0.0
H1108 H 0.18846 0.87873 0.95796 0.0
H1109 H 0.13651 0.82684 0.88495 0.0
C1110 C 0.18868 0.8698 0.86914 0.0
C1111 C 0.22672 0.89815 0.87296 0.0
C1112 C 0.16619 0.84962 0.9547 0.0
C1113 C 0.18044 0.85762 0.91122 0.0
C1114 C 0.14582 0.82641 0.97377 0.0
C1115 C 0.11763 0.78831 0.96995 0.0
C1116 C 0.15775 0.83479 0.93168 0.0
C1117 C 0.10968 0.77483 0.94662 0.0
C1118 C 0.16558 0.84921 0.8882 0.0
C1119 C 0.24025 0.90601 0.89629 0.0
N1120 N 0.12959 0.79805 0.92836 0.0
N1121 N 0.21713 0.88591 0.91453 0.0
H1122 H 0.34646 0.08082 0.11035 0.0
H1123 H 0.34864 0.26742 0.06802 0.0
H1124 H 0.3209 0.14818 0.15803 0.0
H1125 H 0.32059 0.17377 0.02045 0.0
H1126 H 0.34311 0.22652 0.10126 0.0
H1127 H 0.34156 0.11659 0.07713 0.0
C1128 C 0.33966 0.10306 0.11383 0.0
C1129 C 0.33427 0.11169 0.13702 0.0
C1130 C 0.33782 0.21482 0.08357 0.0
C1131 C 0.32904 0.15297 0.09905 0.0
C1132 C 0.34118 0.23818 0.06457 0.0
C1133 C 0.33526 0.22401 0.0414 0.0
C1134 C 0.32928 0.17723 0.0794 0.0
C1135 C 0.32534 0.1858 0.03802 0.0
C1136 C 0.33667 0.1233 0.09484 0.0
C1137 C 0.32521 0.14058 0.14044 0.0
N1138 N 0.32316 0.16385 0.0568 0.0
N1139 N 0.3234 0.16058 0.12167 0.0
loop_
_geom_bond_atom_site_label_1
_geom_bond_atom_site_label_2
_geom_bond_distance
_geom_bond_site_symmetry_2
_ccdc_geom_bond_type
Co0 O2 2.143 . S
Co0 O8 2.074 . S
Co0 O11 2.093 . S
Co0 O24 2.097 . S
Co0 N41 2.151 . S
Co0 N49 2.214 . S
Co1 O2 2.160 . S
Co1 O7 2.058 . S
Co1 O17 2.057 . S
Co1 O32 2.037 . S
Co1 N36 2.145 . S
Co1 N57 2.257 . S
O2 Co0 2.143 . S
O2 Co1 2.160 . S
C3 O4 1.278 . S
C3 O11 1.224 . S
O4 C3 1.278 . S
C5 O6 1.245 . S
C5 O17 1.232 . S
O6 C5 1.245 . S
O7 Co1 2.058 . S
O7 C33 1.269 . S
O8 Co0 2.074 . S
O8 C33 1.257 . S
H9 C34 0.930 . S
H10 C40 0.930 . S
O11 Co0 2.093 . S
O11 C3 1.224 . S
H12 C44 0.929 . S
H13 C46 0.930 . S
H14 C47 0.930 . S
H15 C45 0.929 . S
H16 C48 0.928 . S
O17 Co1 2.057 . S
O17 C5 1.232 . S
H18 C37 0.929 . S
H19 C38 0.929 . S
H20 C50 0.931 . S
H21 C42 0.929 . S
H22 C51 0.930 . S
H23 C43 0.931 . S
O24 Co0 2.097 . S
O24 C52 1.214 . S
H25 C53 0.929 . S
H26 C54 0.929 . S
H27 C55 0.930 . S
H28 C56 0.929 . S
H29 C58 0.930 . S
H30 C35 0.930 . S
H31 C39 0.930 . S
O32 Co1 2.037 . S
O32 C52 1.234 . S
C33 O7 1.269 . S
C33 O8 1.257 . S
C34 H9 0.930 . S
C34 C37 1.388 . S
C34 C39 1.418 . S
C35 H30 0.930 . S
C35 C38 1.404 . S
C35 C39 1.353 . S
N36 Co1 2.145 . S
N36 C37 1.397 . S
N36 C38 1.334 . S
C37 H18 0.929 . S
C37 C34 1.388 . S
C37 N36 1.397 . S
C38 H19 0.929 . S
C38 C35 1.404 . S
C38 N36 1.334 . S
C39 H31 0.930 . S
C39 C34 1.418 . S
C39 C35 1.353 . S
C40 H10 0.930 . S
C40 N41 1.330 . S
C40 C42 1.446 . S
N41 Co0 2.151 . S
N41 C40 1.330 . S
N41 C45 1.418 1_455 S
C42 H21 0.929 . S
C42 C40 1.446 . S
C42 C43 1.332 1_455 S
C43 H23 0.931 . S
C43 C42 1.332 1_655 S
C43 C44 1.267 . S
C44 H12 0.929 . S
C44 C43 1.267 . S
C44 C45 1.251 . S
C45 H15 0.929 . S
C45 N41 1.418 1_655 S
C45 C44 1.251 . S
C46 H13 0.930 . S
C46 C48 1.406 . S
C46 C51 1.261 . S
C47 H14 0.930 . S
C47 N49 1.325 . S
C47 C50 1.357 . S
C48 H16 0.928 . S
C48 C46 1.406 . S
C48 N49 1.261 . S
N49 Co0 2.214 . S
N49 C47 1.325 . S
N49 C48 1.261 . S
C50 H20 0.931 . S
C50 C47 1.357 . S
C50 C51 1.312 . S
C51 H22 0.930 . S
C51 C46 1.261 . S
C51 C50 1.312 . S
C52 O24 1.214 . S
C52 O32 1.234 . S
C53 H25 0.929 . S
C53 C56 1.391 . S
C53 C58 1.391 . S
C54 H26 0.929 . S
C54 C55 1.390 . S
C54 N57 1.391 . S
C55 H27 0.930 . S
C55 C54 1.390 . S
C55 C56 1.392 . S
C56 H28 0.929 . S
C56 C53 1.391 . S
C56 C55 1.392 . S
N57 Co1 2.257 . S
N57 C54 1.391 . S
N57 C58 1.388 . S
C58 H29 0.930 . S
C58 C53 1.391 . S
C58 N57 1.388 . S
Co59 O61 2.143 . S
Co59 O67 2.074 . S
Co59 O70 2.093 . S
Co59 O83 2.097 . S
Co59 N100 2.151 . S
Co59 N108 2.214 . S
Co60 O61 2.160 . S
Co60 O66 2.058 . S
Co60 O76 2.057 . S
Co60 O91 2.037 . S
Co60 N95 2.145 . S
Co60 N116 2.257 . S
O61 Co59 2.143 . S
O61 Co60 2.160 . S
C62 O63 1.278 . S
C62 O70 1.224 . S
O63 C62 1.278 . S
C64 O65 1.245 . S
C64 O76 1.232 . S
O65 C64 1.245 . S
O66 Co60 2.058 . S
O66 C92 1.269 . S
O67 Co59 2.074 . S
O67 C92 1.257 . S
H68 C93 0.930 . S
H69 C99 0.930 . S
O70 Co59 2.093 . S
O70 C62 1.224 . S
H71 C103 0.929 . S
H72 C105 0.930 . S
H73 C106 0.930 . S
H74 C104 0.929 . S
H75 C107 0.928 . S
O76 Co60 2.057 . S
O76 C64 1.232 . S
H77 C96 0.929 . S
H78 C97 0.929 . S
H79 C109 0.931 . S
H80 C101 0.929 . S
H81 C110 0.930 . S
H82 C102 0.931 . S
O83 Co59 2.097 . S
O83 C111 1.214 . S
H84 C112 0.929 . S
H85 C113 0.929 . S
H86 C114 0.930 . S
H87 C115 0.929 . S
H88 C117 0.930 . S
H89 C94 0.930 . S
H90 C98 0.930 . S
O91 Co60 2.037 . S
O91 C111 1.234 . S
C92 O66 1.269 . S
C92 O67 1.257 . S
C93 H68 0.930 . S
C93 C96 1.388 . S
C93 C98 1.418 . S
C94 H89 0.930 . S
C94 C97 1.404 . S
C94 C98 1.353 . S
N95 Co60 2.145 . S
N95 C96 1.397 . S
N95 C97 1.334 . S
C96 H77 0.929 . S
C96 C93 1.388 . S
C96 N95 1.397 . S
C97 H78 0.929 . S
C97 C94 1.404 . S
C97 N95 1.334 . S
C98 H90 0.930 . S
C98 C93 1.418 . S
C98 C94 1.353 . S
C99 H69 0.930 . S
C99 N100 1.330 . S
C99 C101 1.446 . S
N100 Co59 2.151 . S
N100 C99 1.330 . S
N100 C104 1.418 1_545 S
C101 H80 0.929 . S
C101 C99 1.446 . S
C101 C102 1.332 1_545 S
C102 H82 0.931 . S
C102 C101 1.332 1_565 S
C102 C103 1.267 . S
C103 H71 0.929 . S
C103 C102 1.267 . S
C103 C104 1.251 . S
C104 H74 0.929 . S
C104 N100 1.418 1_565 S
C104 C103 1.251 . S
C105 H72 0.930 . S
C105 C107 1.406 . S
C105 C110 1.261 . S
C106 H73 0.930 . S
C106 N108 1.325 . S
C106 C109 1.357 . S
C107 H75 0.928 . S
C107 C105 1.406 . S
C107 N108 1.261 . S
N108 Co59 2.214 . S
N108 C106 1.325 . S
N108 C107 1.261 . S
C109 H79 0.931 . S
C109 C106 1.357 . S
C109 C110 1.312 . S
C110 H81 0.930 . S
C110 C105 1.261 . S
C110 C109 1.312 . S
C111 O83 1.214 . S
C111 O91 1.234 . S
C112 H84 0.929 . S
C112 C115 1.391 . S
C112 C117 1.391 . S
C113 H85 0.929 . S
C113 C114 1.390 . S
C113 N116 1.391 . S
C114 H86 0.930 . S
C114 C113 1.390 . S
C114 C115 1.392 . S
C115 H87 0.929 . S
C115 C112 1.391 . S
C115 C114 1.392 . S
N116 Co60 2.257 . S
N116 C113 1.391 . S
N116 C117 1.388 . S
C117 H88 0.930 . S
C117 C112 1.391 . S
C117 N116 1.388 . S
Co118 O120 2.143 . S
Co118 O126 2.074 . S
Co118 O129 2.093 . S
Co118 O142 2.097 . S
Co118 N159 2.151 . S
Co118 N167 2.214 . S
Co119 O120 2.160 . S
Co119 O125 2.058 . S
Co119 O135 2.057 . S
Co119 O150 2.037 . S
Co119 N154 2.145 . S
Co119 N175 2.257 . S
O120 Co118 2.143 . S
O120 Co119 2.160 . S
C121 O122 1.278 . S
C121 O129 1.224 . S
O122 C121 1.278 . S
C123 O124 1.245 . S
C123 O135 1.232 . S
O124 C123 1.245 . S
O125 Co119 2.058 . S
O125 C151 1.269 . S
O126 Co118 2.074 . S
O126 C151 1.257 . S
H127 C152 0.930 . S
H128 C158 0.930 . S
O129 Co118 2.093 . S
O129 C121 1.224 . S
H130 C162 0.929 . S
H131 C164 0.930 . S
H132 C165 0.930 . S
H133 C163 0.929 . S
H134 C166 0.928 . S
O135 Co119 2.057 . S
O135 C123 1.232 . S
H136 C155 0.929 . S
H137 C156 0.929 . S
H138 C168 0.931 . S
H139 C160 0.929 . S
H140 C169 0.930 . S
H141 C161 0.931 . S
O142 Co118 2.097 . S
O142 C170 1.214 . S
H143 C171 0.929 . S
H144 C172 0.929 . S
H145 C173 0.930 . S
H146 C174 0.929 . S
H147 C176 0.930 . S
H148 C153 0.930 . S
H149 C157 0.930 . S
O150 Co119 2.037 . S
O150 C170 1.234 . S
C151 O125 1.269 . S
C151 O126 1.257 . S
C152 H127 0.930 . S
C152 C155 1.388 . S
C152 C157 1.418 . S
C153 H148 0.930 . S
C153 C156 1.404 . S
C153 C157 1.353 . S
N154 Co119 2.145 . S
N154 C155 1.397 . S
N154 C156 1.334 . S
C155 H136 0.929 . S
C155 C152 1.388 . S
C155 N154 1.397 . S
C156 H137 0.929 . S
C156 C153 1.404 . S
C156 N154 1.334 . S
C157 H149 0.930 . S
C157 C152 1.418 . S
C157 C153 1.353 . S
C158 H128 0.930 . S
C158 N159 1.330 . S
C158 C160 1.446 . S
N159 Co118 2.151 . S
N159 C158 1.330 . S
N159 C163 1.418 . S
C160 H139 0.929 . S
C160 C158 1.446 . S
C160 C161 1.332 . S
C161 H141 0.931 . S
C161 C160 1.332 . S
C161 C162 1.267 . S
C162 H130 0.929 . S
C162 C161 1.267 . S
C162 C163 1.251 . S
C163 H133 0.929 . S
C163 N159 1.418 . S
C163 C162 1.251 . S
C164 H131 0.930 . S
C164 C166 1.406 . S
C164 C169 1.261 . S
C165 H132 0.930 . S
C165 N167 1.325 . S
C165 C168 1.357 . S
C166 H134 0.928 . S
C166 C164 1.406 . S
C166 N167 1.261 . S
N167 Co118 2.214 . S
N167 C165 1.325 . S
N167 C166 1.261 . S
C168 H138 0.931 . S
C168 C165 1.357 . S
C168 C169 1.312 . S
C169 H140 0.930 . S
C169 C164 1.261 . S
C169 C168 1.312 . S
C170 O142 1.214 . S
C170 O150 1.234 . S
C171 H143 0.929 . S
C171 C174 1.391 . S
C171 C176 1.391 . S
C172 H144 0.929 . S
C172 C173 1.390 . S
C172 N175 1.391 . S
C173 H145 0.930 . S
C173 C172 1.390 . S
C173 C174 1.392 . S
C174 H146 0.929 . S
C174 C171 1.391 . S
C174 C173 1.392 . S
N175 Co119 2.257 . S
N175 C172 1.391 . S
N175 C176 1.388 . S
C176 H147 0.930 . S
C176 C171 1.391 . S
C176 N175 1.388 . S
Co177 O179 2.143 . S
Co177 O185 2.074 . S
Co177 O188 2.093 . S
Co177 O201 2.097 . S
Co177 N218 2.151 . S
Co177 N226 2.214 . S
Co178 O179 2.160 . S
Co178 O184 2.058 . S
Co178 O194 2.057 . S
Co178 O209 2.037 . S
Co178 N213 2.145 . S
Co178 N234 2.257 . S
O179 Co177 2.143 . S
O179 Co178 2.160 . S
C180 O181 1.278 . S
C180 O188 1.224 . S
O181 C180 1.278 . S
C182 O183 1.245 . S
C182 O194 1.232 . S
O183 C182 1.245 . S
O184 Co178 2.058 . S
O184 C210 1.269 . S
O185 Co177 2.074 . S
O185 C210 1.257 . S
H186 C211 0.930 . S
H187 C217 0.930 . S
O188 Co177 2.093 . S
O188 C180 1.224 . S
H189 C221 0.929 . S
H190 C223 0.930 . S
H191 C224 0.930 . S
H192 C222 0.929 . S
H193 C225 0.928 . S
O194 Co178 2.057 . S
O194 C182 1.232 . S
H195 C214 0.929 . S
H196 C215 0.929 . S
H197 C227 0.931 . S
H198 C219 0.929 . S
H199 C228 0.930 . S
H200 C220 0.931 . S
O201 Co177 2.097 . S
O201 C229 1.214 . S
H202 C230 0.929 . S
H203 C231 0.929 . S
H204 C232 0.930 . S
H205 C233 0.929 . S
H206 C235 0.930 . S
H207 C212 0.930 . S
H208 C216 0.930 . S
O209 Co178 2.037 . S
O209 C229 1.234 . S
C210 O184 1.269 . S
C210 O185 1.257 . S
C211 H186 0.930 . S
C211 C214 1.388 . S
C211 C216 1.418 . S
C212 H207 0.930 . S
C212 C215 1.404 . S
C212 C216 1.353 . S
N213 Co178 2.145 . S
N213 C214 1.397 . S
N213 C215 1.334 . S
C214 H195 0.929 . S
C214 C211 1.388 . S
C214 N213 1.397 . S
C215 H196 0.929 . S
C215 C212 1.404 . S
C215 N213 1.334 . S
C216 H208 0.930 . S
C216 C211 1.418 . S
C216 C212 1.353 . S
C217 H187 0.930 . S
C217 N218 1.330 . S
C217 C219 1.446 . S
N218 Co177 2.151 . S
N218 C217 1.330 . S
N218 C222 1.418 1_655 S
C219 H198 0.929 . S
C219 C217 1.446 . S
C219 C220 1.332 1_655 S
C220 H200 0.931 . S
C220 C219 1.332 1_455 S
C220 C221 1.267 . S
C221 H189 0.929 . S
C221 C220 1.267 . S
C221 C222 1.251 . S
C222 H192 0.929 . S
C222 N218 1.418 1_455 S
C222 C221 1.251 . S
C223 H190 0.930 . S
C223 C225 1.406 . S
C223 C228 1.261 . S
C224 H191 0.930 . S
C224 N226 1.325 . S
C224 C227 1.357 . S
C225 H193 0.928 . S
C225 C223 1.406 . S
C225 N226 1.261 . S
N226 Co177 2.214 . S
N226 C224 1.325 . S
N226 C225 1.261 . S
C227 H197 0.931 . S
C227 C224 1.357 . S
C227 C228 1.312 . S
C228 H199 0.930 . S
C228 C223 1.261 . S
C228 C227 1.312 . S
C229 O201 1.214 . S
C229 O209 1.234 . S
C230 H202 0.929 . S
C230 C233 1.391 . S
C230 C235 1.391 . S
C231 H203 0.929 . S
C231 C232 1.390 . S
C231 N234 1.391 . S
C232 H204 0.930 . S
C232 C231 1.390 . S
C232 C233 1.392 . S
C233 H205 0.929 . S
C233 C230 1.391 . S
C233 C232 1.392 . S
N234 Co178 2.257 . S
N234 C231 1.391 . S
N234 C235 1.388 . S
C235 H206 0.930 . S
C235 C230 1.391 . S
C235 N234 1.388 . S
Co236 O238 2.143 . S
Co236 O244 2.074 . S
Co236 O247 2.093 . S
Co236 O260 2.097 . S
Co236 N277 2.151 . S
Co236 N285 2.214 . S
Co237 O238 2.160 . S
Co237 O243 2.058 . S
Co237 O253 2.057 . S
Co237 O268 2.037 . S
Co237 N272 2.145 . S
Co237 N293 2.257 . S
O238 Co236 2.143 . S
O238 Co237 2.160 . S
C239 O240 1.278 . S
C239 O247 1.224 . S
O240 C239 1.278 . S
C241 O242 1.245 . S
C241 O253 1.232 . S
O242 C241 1.245 . S
O243 Co237 2.058 . S
O243 C269 1.269 . S
O244 Co236 2.074 . S
O244 C269 1.257 . S
H245 C270 0.930 . S
H246 C276 0.930 . S
O247 Co236 2.093 . S
O247 C239 1.224 . S
H248 C280 0.929 . S
H249 C282 0.930 . S
H250 C283 0.930 . S
H251 C281 0.929 . S
H252 C284 0.928 . S
O253 Co237 2.057 . S
O253 C241 1.232 . S
H254 C273 0.929 . S
H255 C274 0.929 . S
H256 C286 0.931 . S
H257 C278 0.929 . S
H258 C287 0.930 . S
H259 C279 0.931 . S
O260 Co236 2.097 . S
O260 C288 1.214 . S
H261 C289 0.929 . S
H262 C290 0.929 . S
H263 C291 0.930 . S
H264 C292 0.929 . S
H265 C294 0.930 . S
H266 C271 0.930 . S
H267 C275 0.930 . S
O268 Co237 2.037 . S
O268 C288 1.234 . S
C269 O243 1.269 . S
C269 O244 1.257 . S
C270 H245 0.930 . S
C270 C273 1.388 . S
C270 C275 1.418 . S
C271 H266 0.930 . S
C271 C274 1.404 . S
C271 C275 1.353 . S
N272 Co237 2.145 . S
N272 C273 1.397 . S
N272 C274 1.334 . S
C273 H254 0.929 . S
C273 C270 1.388 . S
C273 N272 1.397 . S
C274 H255 0.929 . S
C274 C271 1.404 . S
C274 N272 1.334 . S
C275 H267 0.930 . S
C275 C270 1.418 . S
C275 C271 1.353 . S
C276 H246 0.930 . S
C276 N277 1.330 . S
C276 C278 1.446 . S
N277 Co236 2.151 . S
N277 C276 1.330 . S
N277 C281 1.418 1_565 S
C278 H257 0.929 . S
C278 C276 1.446 . S
C278 C279 1.332 1_565 S
C279 H259 0.931 . S
C279 C278 1.332 1_545 S
C279 C280 1.267 . S
C280 H248 0.929 . S
C280 C279 1.267 . S
C280 C281 1.251 . S
C281 H251 0.929 . S
C281 N277 1.418 1_545 S
C281 C280 1.251 . S
C282 H249 0.930 . S
C282 C284 1.406 . S
C282 C287 1.261 . S
C283 H250 0.930 . S
C283 N285 1.325 . S
C283 C286 1.357 . S
C284 H252 0.928 . S
C284 C282 1.406 . S
C284 N285 1.261 . S
N285 Co236 2.214 . S
N285 C283 1.325 . S
N285 C284 1.261 . S
C286 H256 0.931 . S
C286 C283 1.357 . S
C286 C287 1.312 . S
C287 H258 0.930 . S
C287 C282 1.261 . S
C287 C286 1.312 . S
C288 O260 1.214 . S
C288 O268 1.234 . S
C289 H261 0.929 . S
C289 C292 1.391 . S
C289 C294 1.391 . S
C290 H262 0.929 . S
C290 C291 1.390 . S
C290 N293 1.391 . S
C291 H263 0.930 . S
C291 C290 1.390 . S
C291 C292 1.392 . S
C292 H264 0.929 . S
C292 C289 1.391 . S
C292 C291 1.392 . S
N293 Co237 2.257 . S
N293 C290 1.391 . S
N293 C294 1.388 . S
C294 H265 0.930 . S
C294 C289 1.391 . S
C294 N293 1.388 . S
Co295 O297 2.143 . S
Co295 O303 2.074 . S
Co295 O306 2.093 . S
Co295 O319 2.097 . S
Co295 N336 2.151 . S
Co295 N344 2.214 . S
Co296 O297 2.160 . S
Co296 O302 2.058 . S
Co296 O312 2.057 . S
Co296 O327 2.037 1_556 S
Co296 N331 2.145 1_556 S
Co296 N352 2.257 . S
O297 Co295 2.143 . S
O297 Co296 2.160 . S
C298 O299 1.278 . S
C298 O306 1.224 . S
O299 C298 1.278 . S
C300 O301 1.245 . S
C300 O312 1.232 . S
O301 C300 1.245 . S
O302 Co296 2.058 . S
O302 C328 1.269 . S
O303 Co295 2.074 . S
O303 C328 1.257 . S
H304 C329 0.930 . S
H305 C335 0.930 . S
O306 Co295 2.093 . S
O306 C298 1.224 . S
H307 C339 0.929 . S
H308 C341 0.930 . S
H309 C342 0.930 1_554 S
H310 C340 0.929 . S
H311 C343 0.928 . S
O312 Co296 2.057 . S
O312 C300 1.232 . S
H313 C332 0.929 . S
H314 C333 0.929 1_556 S
H315 C345 0.931 . S
H316 C337 0.929 . S
H317 C346 0.946 . S
H318 C338 0.931 . S
O319 Co295 2.097 . S
O319 C347 1.214 1_556 S
H320 C348 0.929 . S
H321 C349 0.897 1_554 S
H322 C350 0.930 1_554 S
H323 C351 0.929 . S
H324 C353 0.930 . S
H325 C330 0.930 . S
H326 C334 0.930 . S
O327 Co296 2.037 1_554 S
O327 C347 1.234 . S
C328 O302 1.269 . S
C328 O303 1.257 . S
C329 H304 0.930 . S
C329 C332 1.388 . S
C329 C334 1.418 . S
C330 H325 0.930 . S
C330 C333 1.404 . S
C330 C334 1.353 . S
N331 Co296 2.145 1_554 S
N331 C332 1.397 . S
N331 C333 1.334 . S
C332 H313 0.929 . S
C332 C329 1.388 . S
C332 N331 1.397 . S
C333 H314 0.929 1_554 S
C333 C330 1.404 . S
C333 N331 1.334 . S
C334 H326 0.930 . S
C334 C329 1.418 . S
C334 C330 1.353 . S
C335 H305 0.930 . S
C335 N336 1.330 . S
C335 C337 1.446 . S
N336 Co295 2.151 . S
N336 C335 1.330 . S
N336 C340 1.418 . S
C337 H316 0.929 . S
C337 C335 1.446 . S
C337 C338 1.332 . S
C338 H318 0.931 . S
C338 C337 1.332 . S
C338 C339 1.267 . S
C339 H307 0.929 . S
C339 C338 1.267 . S
C339 C340 1.251 . S
C340 H310 0.929 . S
C340 N336 1.418 . S
C340 C339 1.251 . S
C341 H308 0.930 . S
C341 C343 1.406 . S
C341 C346 1.261 . S
C342 H309 0.930 1_556 S
C342 N344 1.325 . S
C342 C345 1.357 1_556 S
C343 H311 0.928 . S
C343 C341 1.406 . S
C343 N344 1.261 . S
N344 Co295 2.214 . S
N344 C342 1.325 . S
N344 C343 1.261 . S
C345 H315 0.931 . S
C345 C342 1.357 1_554 S
C345 C346 1.312 1_554 S
C346 H317 0.946 . S
C346 C341 1.261 . S
C346 C345 1.312 1_556 S
C347 O319 1.214 1_554 S
C347 O327 1.234 . S
C348 H320 0.929 . S
C348 C351 1.391 . S
C348 C353 1.391 . S
C349 H321 0.897 1_556 S
C349 C350 1.396 . S
C349 N352 1.418 . S
C350 H322 0.930 1_556 S
C350 C349 1.396 . S
C350 C351 1.392 . S
C351 H323 0.929 . S
C351 C348 1.391 . S
C351 C350 1.392 . S
N352 Co296 2.257 . S
N352 C349 1.418 . S
N352 C353 1.388 . S
C353 H324 0.930 . S
C353 C348 1.391 . S
C353 N352 1.388 . S
Co354 O356 2.143 . S
Co354 O362 2.074 . S
Co354 O365 2.093 . S
Co354 O378 2.097 . S
Co354 N395 2.151 . S
Co354 N403 2.214 . S
Co355 O356 2.160 . S
Co355 O361 2.058 . S
Co355 O371 2.057 . S
Co355 O386 2.037 . S
Co355 N390 2.145 . S
Co355 N411 2.257 . S
O356 Co354 2.143 . S
O356 Co355 2.160 . S
C357 O358 1.278 . S
C357 O365 1.224 . S
O358 C357 1.278 . S
C359 O360 1.245 . S
C359 O371 1.232 . S
O360 C359 1.245 . S
O361 Co355 2.058 . S
O361 C387 1.269 . S
O362 Co354 2.074 . S
O362 C387 1.257 . S
H363 C388 0.930 . S
H364 C394 0.930 . S
O365 Co354 2.093 . S
O365 C357 1.224 . S
H366 C398 0.929 . S
H367 C400 0.930 . S
H368 C401 0.930 . S
H369 C399 0.929 . S
H370 C402 0.928 . S
O371 Co355 2.057 . S
O371 C359 1.232 . S
H372 C391 0.929 . S
H373 C392 0.929 . S
H374 C404 0.931 . S
H375 C396 0.929 . S
H376 C405 0.930 . S
H377 C397 0.931 . S
O378 Co354 2.097 . S
O378 C406 1.214 . S
H379 C407 0.929 . S
H380 C408 0.929 . S
H381 C409 0.930 . S
H382 C410 0.929 . S
H383 C412 0.930 . S
H384 C389 0.930 . S
H385 C393 0.930 . S
O386 Co355 2.037 . S
O386 C406 1.234 . S
C387 O361 1.269 . S
C387 O362 1.257 . S
C388 H363 0.930 . S
C388 C391 1.388 . S
C388 C393 1.418 . S
C389 H384 0.930 . S
C389 C392 1.404 . S
C389 C393 1.353 . S
N390 Co355 2.145 . S
N390 C391 1.397 . S
N390 C392 1.334 . S
C391 H372 0.929 . S
C391 C388 1.388 . S
C391 N390 1.397 . S
C392 H373 0.929 . S
C392 C389 1.404 . S
C392 N390 1.334 . S
C393 H385 0.930 . S
C393 C388 1.418 . S
C393 C389 1.353 . S
C394 H364 0.930 . S
C394 N395 1.330 . S
C394 C396 1.446 . S
N395 Co354 2.151 . S
N395 C394 1.330 . S
N395 C399 1.418 1_565 S
C396 H375 0.929 . S
C396 C394 1.446 . S
C396 C397 1.332 1_565 S
C397 H377 0.931 . S
C397 C396 1.332 1_545 S
C397 C398 1.267 . S
C398 H366 0.929 . S
C398 C397 1.267 . S
C398 C399 1.251 . S
C399 H369 0.929 . S
C399 N395 1.418 1_545 S
C399 C398 1.251 . S
C400 H367 0.930 . S
C400 C402 1.406 . S
C400 C405 1.261 . S
C401 H368 0.930 . S
C401 N403 1.325 . S
C401 C404 1.357 . S
C402 H370 0.928 . S
C402 C400 1.406 . S
C402 N403 1.261 . S
N403 Co354 2.214 . S
N403 C401 1.325 . S
N403 C402 1.261 . S
C404 H374 0.931 . S
C404 C401 1.357 . S
C404 C405 1.312 . S
C405 H376 0.930 . S
C405 C400 1.261 . S
C405 C404 1.312 . S
C406 O378 1.214 . S
C406 O386 1.234 . S
C407 H379 0.929 . S
C407 C410 1.391 . S
C407 C412 1.391 . S
C408 H380 0.929 . S
C408 C409 1.390 . S
C408 N411 1.391 . S
C409 H381 0.930 . S
C409 C408 1.390 . S
C409 C410 1.392 . S
C410 H382 0.929 . S
C410 C407 1.391 . S
C410 C409 1.392 . S
N411 Co355 2.257 . S
N411 C408 1.391 . S
N411 C412 1.388 . S
C412 H383 0.930 . S
C412 C407 1.391 . S
C412 N411 1.388 . S
Co413 O415 2.143 . S
Co413 O421 2.074 . S
Co413 O424 2.093 . S
Co413 O437 2.097 . S
Co413 N454 2.151 . S
Co413 N462 2.214 . S
Co414 O415 2.160 . S
Co414 O420 2.058 . S
Co414 O430 2.057 . S
Co414 O445 2.037 . S
Co414 N449 2.145 . S
Co414 N470 2.257 . S
O415 Co413 2.143 . S
O415 Co414 2.160 . S
C416 O417 1.278 . S
C416 O424 1.224 . S
O417 C416 1.278 . S
C418 O419 1.245 . S
C418 O430 1.232 . S
O419 C418 1.245 . S
O420 Co414 2.058 . S
O420 C446 1.269 . S
O421 Co413 2.074 . S
O421 C446 1.257 . S
H422 C447 0.930 . S
H423 C453 0.930 . S
O424 Co413 2.093 . S
O424 C416 1.224 . S
H425 C457 0.929 . S
H426 C459 0.930 . S
H427 C460 0.930 . S
H428 C458 0.929 . S
H429 C461 0.928 . S
O430 Co414 2.057 . S
O430 C418 1.232 . S
H431 C450 0.929 . S
H432 C451 0.929 . S
H433 C463 0.931 . S
H434 C455 0.929 . S
H435 C464 0.930 . S
H436 C456 0.931 . S
O437 Co413 2.097 . S
O437 C465 1.214 . S
H438 C466 0.929 . S
H439 C467 0.929 . S
H440 C468 0.930 . S
H441 C469 0.929 . S
H442 C471 0.930 . S
H443 C448 0.930 . S
H444 C452 0.930 . S
O445 Co414 2.037 . S
O445 C465 1.234 . S
C446 O420 1.269 . S
C446 O421 1.257 . S
C447 H422 0.930 . S
C447 C450 1.388 . S
C447 C452 1.418 . S
C448 H443 0.930 . S
C448 C451 1.404 . S
C448 C452 1.353 . S
N449 Co414 2.145 . S
N449 C450 1.397 . S
N449 C451 1.334 . S
C450 H431 0.929 . S
C450 C447 1.388 . S
C450 N449 1.397 . S
C451 H432 0.929 . S
C451 C448 1.404 . S
C451 N449 1.334 . S
C452 H444 0.930 . S
C452 C447 1.418 . S
C452 C448 1.353 . S
C453 H423 0.930 . S
C453 N454 1.330 . S
C453 C455 1.446 . S
N454 Co413 2.151 . S
N454 C453 1.330 . S
N454 C458 1.418 . S
C455 H434 0.929 . S
C455 C453 1.446 . S
C455 C456 1.332 . S
C456 H436 0.931 . S
C456 C455 1.332 . S
C456 C457 1.267 . S
C457 H425 0.929 . S
C457 C456 1.267 . S
C457 C458 1.251 . S
C458 H428 0.929 . S
C458 N454 1.418 . S
C458 C457 1.251 . S
C459 H426 0.930 . S
C459 C461 1.406 . S
C459 C464 1.261 . S
C460 H427 0.930 . S
C460 N462 1.325 . S
C460 C463 1.357 . S
C461 H429 0.928 . S
C461 C459 1.406 . S
C461 N462 1.261 . S
N462 Co413 2.214 . S
N462 C460 1.325 . S
N462 C461 1.261 . S
C463 H433 0.931 . S
C463 C460 1.357 . S
C463 C464 1.312 . S
C464 H435 0.930 . S
C464 C459 1.261 . S
C464 C463 1.312 . S
C465 O437 1.214 . S
C465 O445 1.234 . S
C466 H438 0.929 . S
C466 C469 1.391 . S
C466 C471 1.391 . S
C467 H439 0.929 . S
C467 C468 1.390 . S
C467 N470 1.391 . S
C468 H440 0.930 . S
C468 C467 1.390 . S
C468 C469 1.392 . S
C469 H441 0.929 . S
C469 C466 1.391 . S
C469 C468 1.392 . S
N470 Co414 2.257 . S
N470 C467 1.391 . S
N470 C471 1.388 . S
C471 H442 0.930 . S
C471 C466 1.391 . S
C471 N470 1.388 . S
Co472 O474 2.143 . S
Co472 O480 2.074 . S
Co472 O483 2.093 . S
Co472 O496 2.097 . S
Co472 N513 2.151 . S
Co472 N521 2.214 . S
Co473 O474 2.160 . S
Co473 O479 2.058 . S
Co473 O489 2.057 . S
Co473 O504 2.037 1_554 S
Co473 N508 2.145 1_554 S
Co473 N529 2.257 . S
O474 Co472 2.143 . S
O474 Co473 2.160 . S
C475 O476 1.278 . S
C475 O483 1.224 . S
O476 C475 1.278 . S
C477 O478 1.245 . S
C477 O489 1.232 . S
O478 C477 1.245 . S
O479 Co473 2.058 . S
O479 C505 1.269 . S
O480 Co472 2.074 . S
O480 C505 1.257 . S
H481 C506 0.930 . S
H482 C512 0.930 . S
O483 Co472 2.093 . S
O483 C475 1.224 . S
H484 C516 0.929 . S
H485 C518 0.930 . S
H486 C519 0.930 1_556 S
H487 C517 0.929 . S
H488 C520 0.928 . S
O489 Co473 2.057 . S
O489 C477 1.232 . S
H490 C509 0.929 . S
H491 C510 0.929 1_554 S
H492 C522 0.931 . S
H493 C514 0.929 . S
H494 C523 0.946 . S
H495 C515 0.931 . S
O496 Co472 2.097 . S
O496 C524 1.214 1_554 S
H497 C525 0.929 . S
H498 C526 0.897 1_556 S
H499 C527 0.930 1_556 S
H500 C528 0.929 . S
H501 C530 0.930 . S
H502 C507 0.930 . S
H503 C511 0.930 . S
O504 Co473 2.037 1_556 S
O504 C524 1.234 . S
C505 O479 1.269 . S
C505 O480 1.257 . S
C506 H481 0.930 . S
C506 C509 1.388 . S
C506 C511 1.418 . S
C507 H502 0.930 . S
C507 C510 1.404 . S
C507 C511 1.353 . S
N508 Co473 2.145 1_556 S
N508 C509 1.397 . S
N508 C510 1.334 . S
C509 H490 0.929 . S
C509 C506 1.388 . S
C509 N508 1.397 . S
C510 H491 0.929 1_556 S
C510 C507 1.404 . S
C510 N508 1.334 . S
C511 H503 0.930 . S
C511 C506 1.418 . S
C511 C507 1.353 . S
C512 H482 0.930 . S
C512 N513 1.330 . S
C512 C514 1.446 . S
N513 Co472 2.151 . S
N513 C512 1.330 . S
N513 C517 1.418 1_455 S
C514 H493 0.929 . S
C514 C512 1.446 . S
C514 C515 1.332 1_455 S
C515 H495 0.931 . S
C515 C514 1.332 1_655 S
C515 C516 1.267 . S
C516 H484 0.929 . S
C516 C515 1.267 . S
C516 C517 1.251 . S
C517 H487 0.929 . S
C517 N513 1.418 1_655 S
C517 C516 1.251 . S
C518 H485 0.930 . S
C518 C520 1.406 . S
C518 C523 1.261 . S
C519 H486 0.930 1_554 S
C519 N521 1.325 . S
C519 C522 1.357 1_554 S
C520 H488 0.928 . S
C520 C518 1.406 . S
C520 N521 1.261 . S
N521 Co472 2.214 . S
N521 C519 1.325 . S
N521 C520 1.261 . S
C522 H492 0.931 . S
C522 C519 1.357 1_556 S
C522 C523 1.312 1_556 S
C523 H494 0.946 . S
C523 C518 1.261 . S
C523 C522 1.312 1_554 S
C524 O496 1.214 1_556 S
C524 O504 1.234 . S
C525 H497 0.929 . S
C525 C528 1.391 . S
C525 C530 1.391 . S
C526 H498 0.897 1_554 S
C526 C527 1.396 . S
C526 N529 1.418 . S
C527 H499 0.930 1_554 S
C527 C526 1.396 . S
C527 C528 1.392 . S
C528 H500 0.929 . S
C528 C525 1.391 . S
C528 C527 1.392 . S
N529 Co473 2.257 . S
N529 C526 1.418 . S
N529 C530 1.388 . S
C530 H501 0.930 . S
C530 C525 1.391 . S
C530 N529 1.388 . S
Co531 O533 2.143 . S
Co531 O539 2.074 . S
Co531 O542 2.093 . S
Co531 O555 2.097 . S
Co531 N572 2.151 . S
Co531 N580 2.214 . S
Co532 O533 2.160 . S
Co532 O538 2.058 . S
Co532 O548 2.057 . S
Co532 O563 2.037 . S
Co532 N567 2.145 . S
Co532 N588 2.257 . S
O533 Co531 2.143 . S
O533 Co532 2.160 . S
C534 O535 1.278 . S
C534 O542 1.224 . S
O535 C534 1.278 . S
C536 O537 1.245 . S
C536 O548 1.232 . S
O537 C536 1.245 . S
O538 Co532 2.058 . S
O538 C564 1.269 . S
O539 Co531 2.074 . S
O539 C564 1.257 . S
H540 C565 0.930 . S
H541 C571 0.930 . S
O542 Co531 2.093 . S
O542 C534 1.224 . S
H543 C575 0.929 . S
H544 C577 0.930 . S
H545 C578 0.930 . S
H546 C576 0.929 . S
H547 C579 0.928 . S
O548 Co532 2.057 . S
O548 C536 1.232 . S
H549 C568 0.929 . S
H550 C569 0.929 . S
H551 C581 0.931 . S
H552 C573 0.929 . S
H553 C582 0.930 . S
H554 C574 0.931 . S
O555 Co531 2.097 . S
O555 C583 1.214 . S
H556 C584 0.929 . S
H557 C585 0.929 . S
H558 C586 0.930 . S
H559 C587 0.929 . S
H560 C589 0.930 . S
H561 C566 0.930 . S
H562 C570 0.930 . S
O563 Co532 2.037 . S
O563 C583 1.234 . S
C564 O538 1.269 . S
C564 O539 1.257 . S
C565 H540 0.930 . S
C565 C568 1.388 . S
C565 C570 1.418 . S
C566 H561 0.930 . S
C566 C569 1.404 . S
C566 C570 1.353 . S
N567 Co532 2.145 . S
N567 C568 1.397 . S
N567 C569 1.334 . S
C568 H549 0.929 . S
C568 C565 1.388 . S
C568 N567 1.397 . S
C569 H550 0.929 . S
C569 C566 1.404 . S
C569 N567 1.334 . S
C570 H562 0.930 . S
C570 C565 1.418 . S
C570 C566 1.353 . S
C571 H541 0.930 . S
C571 N572 1.330 . S
C571 C573 1.446 . S
N572 Co531 2.151 . S
N572 C571 1.330 . S
N572 C576 1.418 1_545 S
C573 H552 0.929 . S
C573 C571 1.446 . S
C573 C574 1.332 1_545 S
C574 H554 0.931 . S
C574 C573 1.332 1_565 S
C574 C575 1.267 . S
C575 H543 0.929 . S
C575 C574 1.267 . S
C575 C576 1.251 . S
C576 H546 0.929 . S
C576 N572 1.418 1_565 S
C576 C575 1.251 . S
C577 H544 0.930 . S
C577 C579 1.406 . S
C577 C582 1.261 . S
C578 H545 0.930 . S
C578 N580 1.325 . S
C578 C581 1.357 . S
C579 H547 0.928 . S
C579 C577 1.406 . S
C579 N580 1.261 . S
N580 Co531 2.214 . S
N580 C578 1.325 . S
N580 C579 1.261 . S
C581 H551 0.931 . S
C581 C578 1.357 . S
C581 C582 1.312 . S
C582 H553 0.930 . S
C582 C577 1.261 . S
C582 C581 1.312 . S
C583 O555 1.214 . S
C583 O563 1.234 . S
C584 H556 0.929 . S
C584 C587 1.391 . S
C584 C589 1.391 . S
C585 H557 0.929 . S
C585 C586 1.390 . S
C585 N588 1.391 . S
C586 H558 0.930 . S
C586 C585 1.390 . S
C586 C587 1.392 . S
C587 H559 0.929 . S
C587 C584 1.391 . S
C587 C586 1.392 . S
N588 Co532 2.257 . S
N588 C585 1.391 . S
N588 C589 1.388 . S
C589 H560 0.930 . S
C589 C584 1.391 . S
C589 N588 1.388 . S
Co590 O592 2.143 . S
Co590 O598 2.074 . S
Co590 O601 2.093 . S
Co590 O614 2.097 . S
Co590 N631 2.151 . S
Co590 N639 2.214 . S
Co591 O592 2.160 . S
Co591 O597 2.058 . S
Co591 O607 2.057 . S
Co591 O622 2.037 . S
Co591 N626 2.145 . S
Co591 N647 2.257 . S
O592 Co590 2.143 . S
O592 Co591 2.160 . S
C593 O594 1.278 . S
C593 O601 1.224 . S
O594 C593 1.278 . S
C595 O596 1.245 . S
C595 O607 1.232 . S
O596 C595 1.245 . S
O597 Co591 2.058 . S
O597 C623 1.269 . S
O598 Co590 2.074 . S
O598 C623 1.257 . S
H599 C624 0.930 . S
H600 C630 0.930 . S
O601 Co590 2.093 . S
O601 C593 1.224 . S
H602 C634 0.929 . S
H603 C636 0.930 . S
H604 C637 0.930 . S
H605 C635 0.929 . S
H606 C638 0.928 . S
O607 Co591 2.057 . S
O607 C595 1.232 . S
H608 C627 0.929 . S
H609 C628 0.929 . S
H610 C640 0.931 . S
H611 C632 0.929 . S
H612 C641 0.930 . S
H613 C633 0.931 . S
O614 Co590 2.097 . S
O614 C642 1.214 . S
H615 C643 0.929 . S
H616 C644 0.929 . S
H617 C645 0.930 . S
H618 C646 0.929 . S
H619 C648 0.930 . S
H620 C625 0.930 . S
H621 C629 0.930 . S
O622 Co591 2.037 . S
O622 C642 1.234 . S
C623 O597 1.269 . S
C623 O598 1.257 . S
C624 H599 0.930 . S
C624 C627 1.388 . S
C624 C629 1.418 . S
C625 H620 0.930 . S
C625 C628 1.404 . S
C625 C629 1.353 . S
N626 Co591 2.145 . S
N626 C627 1.397 . S
N626 C628 1.334 . S
C627 H608 0.929 . S
C627 C624 1.388 . S
C627 N626 1.397 . S
C628 H609 0.929 . S
C628 C625 1.404 . S
C628 N626 1.334 . S
C629 H621 0.930 . S
C629 C624 1.418 . S
C629 C625 1.353 . S
C630 H600 0.930 . S
C630 N631 1.330 . S
C630 C632 1.446 . S
N631 Co590 2.151 . S
N631 C630 1.330 . S
N631 C635 1.418 . S
C632 H611 0.929 . S
C632 C630 1.446 . S
C632 C633 1.332 . S
C633 H613 0.931 . S
C633 C632 1.332 . S
C633 C634 1.267 . S
C634 H602 0.929 . S
C634 C633 1.267 . S
C634 C635 1.251 . S
C635 H605 0.929 . S
C635 N631 1.418 . S
C635 C634 1.251 . S
C636 H603 0.930 . S
C636 C638 1.406 . S
C636 C641 1.261 . S
C637 H604 0.930 . S
C637 N639 1.325 . S
C637 C640 1.357 . S
C638 H606 0.928 . S
C638 C636 1.406 . S
C638 N639 1.261 . S
N639 Co590 2.214 . S
N639 C637 1.325 . S
N639 C638 1.261 . S
C640 H610 0.931 . S
C640 C637 1.357 . S
C640 C641 1.312 . S
C641 H612 0.930 . S
C641 C636 1.261 . S
C641 C640 1.312 . S
C642 O614 1.214 . S
C642 O622 1.234 . S
C643 H615 0.929 . S
C643 C646 1.391 . S
C643 C648 1.391 . S
C644 H616 0.929 . S
C644 C645 1.390 . S
C644 N647 1.391 . S
C645 H617 0.930 . S
C645 C644 1.390 . S
C645 C646 1.392 . S
C646 H618 0.929 . S
C646 C643 1.391 . S
C646 C645 1.392 . S
N647 Co591 2.257 . S
N647 C644 1.391 . S
N647 C648 1.388 . S
C648 H619 0.930 . S
C648 C643 1.391 . S
C648 N647 1.388 . S
Co649 O651 2.143 . S
Co649 O657 2.074 . S
Co649 O660 2.093 . S
Co649 O673 2.097 . S
Co649 N690 2.151 . S
Co649 N698 2.214 . S
Co650 O651 2.160 . S
Co650 O656 2.058 . S
Co650 O666 2.057 . S
Co650 O681 2.037 . S
Co650 N685 2.145 . S
Co650 N706 2.257 . S
O651 Co649 2.143 . S
O651 Co650 2.160 . S
C652 O653 1.278 . S
C652 O660 1.224 . S
O653 C652 1.278 . S
C654 O655 1.245 . S
C654 O666 1.232 . S
O655 C654 1.245 . S
O656 Co650 2.058 . S
O656 C682 1.269 . S
O657 Co649 2.074 . S
O657 C682 1.257 . S
H658 C683 0.930 . S
H659 C689 0.930 . S
O660 Co649 2.093 . S
O660 C652 1.224 . S
H661 C693 0.929 . S
H662 C695 0.930 . S
H663 C696 0.930 . S
H664 C694 0.929 . S
H665 C697 0.928 . S
O666 Co650 2.057 . S
O666 C654 1.232 . S
H667 C686 0.929 . S
H668 C687 0.929 . S
H669 C699 0.931 . S
H670 C691 0.929 . S
H671 C700 0.930 . S
H672 C692 0.931 . S
O673 Co649 2.097 . S
O673 C701 1.214 . S
H674 C702 0.929 . S
H675 C703 0.929 . S
H676 C704 0.930 . S
H677 C705 0.929 . S
H678 C707 0.930 . S
H679 C684 0.930 . S
H680 C688 0.930 . S
O681 Co650 2.037 . S
O681 C701 1.234 . S
C682 O656 1.269 . S
C682 O657 1.257 . S
C683 H658 0.930 . S
C683 C686 1.388 . S
C683 C688 1.418 . S
C684 H679 0.930 . S
C684 C687 1.404 . S
C684 C688 1.353 . S
N685 Co650 2.145 . S
N685 C686 1.397 . S
N685 C687 1.334 . S
C686 H667 0.929 . S
C686 C683 1.388 . S
C686 N685 1.397 . S
C687 H668 0.929 . S
C687 C684 1.404 . S
C687 N685 1.334 . S
C688 H680 0.930 . S
C688 C683 1.418 . S
C688 C684 1.353 . S
C689 H659 0.930 . S
C689 N690 1.330 . S
C689 C691 1.446 . S
N690 Co649 2.151 . S
N690 C689 1.330 . S
N690 C694 1.418 1_655 S
C691 H670 0.929 . S
C691 C689 1.446 . S
C691 C692 1.332 1_655 S
C692 H672 0.931 . S
C692 C691 1.332 1_455 S
C692 C693 1.267 . S
C693 H661 0.929 . S
C693 C692 1.267 . S
C693 C694 1.251 . S
C694 H664 0.929 . S
C694 N690 1.418 1_455 S
C694 C693 1.251 . S
C695 H662 0.930 . S
C695 C697 1.406 . S
C695 C700 1.261 . S
C696 H663 0.930 . S
C696 N698 1.325 . S
C696 C699 1.357 . S
C697 H665 0.928 . S
C697 C695 1.406 . S
C697 N698 1.261 . S
N698 Co649 2.214 . S
N698 C696 1.325 . S
N698 C697 1.261 . S
C699 H669 0.931 . S
C699 C696 1.357 . S
C699 C700 1.312 . S
C700 H671 0.930 . S
C700 C695 1.261 . S
C700 C699 1.312 . S
C701 O673 1.214 . S
C701 O681 1.234 . S
C702 H674 0.929 . S
C702 C705 1.391 . S
C702 C707 1.391 . S
C703 H675 0.929 . S
C703 C704 1.390 . S
C703 N706 1.391 . S
C704 H676 0.930 . S
C704 C703 1.390 . S
C704 C705 1.392 . S
C705 H677 0.929 . S
C705 C702 1.391 . S
C705 C704 1.392 . S
N706 Co650 2.257 . S
N706 C703 1.391 . S
N706 C707 1.388 . S
C707 H678 0.930 . S
C707 C702 1.391 . S
C707 N706 1.388 . S
H708 C714 0.930 . S
H709 C718 0.930 . S
H710 C723 0.929 . S
H711 C721 0.929 . S
H712 C716 0.929 . S
H713 C722 0.929 . S
C714 H708 0.930 . S
C714 C715 1.367 . S
C714 C722 1.378 . S
C715 C714 1.367 . S
C715 C723 1.433 . S
C716 H712 0.929 . S
C716 C718 1.378 . S
C716 C720 1.350 . S
C717 C720 1.463 . S
C717 C722 1.350 . S
C717 N725 1.427 . S
C718 H709 0.930 . S
C718 C716 1.378 . S
C718 C719 1.367 . S
C719 C718 1.367 . S
C719 C721 1.433 . S
C720 C716 1.350 . S
C720 C717 1.463 . S
C720 N724 1.427 . S
C721 H711 0.929 . S
C721 C719 1.433 . S
C721 N724 1.384 . S
C722 H713 0.929 . S
C722 C714 1.378 . S
C722 C717 1.350 . S
C723 H710 0.929 . S
C723 C715 1.433 . S
C723 N725 1.384 . S
N724 C720 1.427 . S
N724 C721 1.384 . S
N725 C717 1.427 . S
N725 C723 1.384 . S
H726 C732 0.930 . S
H727 C736 0.930 . S
H728 C741 0.929 . S
H729 C739 0.929 . S
H730 C734 0.929 . S
H731 C740 0.929 . S
C732 H726 0.930 . S
C732 C733 1.367 . S
C732 C740 1.378 . S
C733 C732 1.367 . S
C733 C741 1.433 . S
C734 H730 0.929 . S
C734 C736 1.378 . S
C734 C738 1.350 . S
C735 C738 1.463 . S
C735 C740 1.350 . S
C735 N743 1.427 . S
C736 H727 0.930 . S
C736 C734 1.378 . S
C736 C737 1.367 . S
C737 C736 1.367 . S
C737 C739 1.433 . S
C738 C734 1.350 . S
C738 C735 1.463 . S
C738 N742 1.427 . S
C739 H729 0.929 . S
C739 C737 1.433 . S
C739 N742 1.384 . S
C740 H731 0.929 . S
C740 C732 1.378 . S
C740 C735 1.350 . S
C741 H728 0.929 . S
C741 C733 1.433 . S
C741 N743 1.384 . S
N742 C738 1.427 . S
N742 C739 1.384 . S
N743 C735 1.427 . S
N743 C741 1.384 . S
H744 C750 0.930 . S
H745 C754 0.930 . S
H746 C759 0.929 . S
H747 C757 0.929 . S
H748 C752 0.929 . S
H749 C758 0.929 . S
C750 H744 0.930 . S
C750 C751 1.367 . S
C750 C758 1.378 . S
C751 C750 1.367 . S
C751 C759 1.433 . S
C752 H748 0.929 . S
C752 C754 1.378 . S
C752 C756 1.350 . S
C753 C756 1.463 . S
C753 C758 1.350 . S
C753 N761 1.427 . S
C754 H745 0.930 . S
C754 C752 1.378 . S
C754 C755 1.367 . S
C755 C754 1.367 . S
C755 C757 1.433 . S
C756 C752 1.350 . S
C756 C753 1.463 . S
C756 N760 1.427 . S
C757 H747 0.929 . S
C757 C755 1.433 . S
C757 N760 1.384 . S
C758 H749 0.929 . S
C758 C750 1.378 . S
C758 C753 1.350 . S
C759 H746 0.929 . S
C759 C751 1.433 . S
C759 N761 1.384 . S
N760 C756 1.427 . S
N760 C757 1.384 . S
N761 C753 1.427 . S
N761 C759 1.384 . S
H762 C768 0.930 . S
H763 C772 0.930 . S
H764 C777 0.929 . S
H765 C775 0.929 . S
H766 C770 0.929 . S
H767 C776 0.929 . S
C768 H762 0.930 . S
C768 C769 1.367 . S
C768 C776 1.378 . S
C769 C768 1.367 . S
C769 C777 1.433 . S
C770 H766 0.929 . S
C770 C772 1.378 . S
C770 C774 1.350 . S
C771 C774 1.463 . S
C771 C776 1.350 . S
C771 N779 1.427 . S
C772 H763 0.930 . S
C772 C770 1.378 . S
C772 C773 1.367 . S
C773 C772 1.367 . S
C773 C775 1.433 . S
C774 C770 1.350 . S
C774 C771 1.463 . S
C774 N778 1.427 . S
C775 H765 0.929 . S
C775 C773 1.433 . S
C775 N778 1.384 . S
C776 H767 0.929 . S
C776 C768 1.378 . S
C776 C771 1.350 . S
C777 H764 0.929 . S
C777 C769 1.433 . S
C777 N779 1.384 . S
N778 C774 1.427 . S
N778 C775 1.384 . S
N779 C771 1.427 . S
N779 C777 1.384 . S
H780 C786 0.930 . S
H781 C790 0.930 . S
H782 C795 0.929 . S
H783 C793 0.929 . S
H784 C788 0.929 . S
H785 C794 0.929 . S
C786 H780 0.930 . S
C786 C787 1.367 . S
C786 C794 1.378 . S
C787 C786 1.367 . S
C787 C795 1.433 . S
C788 H784 0.929 . S
C788 C790 1.378 . S
C788 C792 1.350 . S
C789 C792 1.463 . S
C789 C794 1.350 . S
C789 N797 1.427 . S
C790 H781 0.930 . S
C790 C788 1.378 . S
C790 C791 1.367 . S
C791 C790 1.367 . S
C791 C793 1.433 . S
C792 C788 1.350 . S
C792 C789 1.463 . S
C792 N796 1.427 . S
C793 H783 0.929 . S
C793 C791 1.433 . S
C793 N796 1.384 . S
C794 H785 0.929 . S
C794 C786 1.378 . S
C794 C789 1.350 . S
C795 H782 0.929 . S
C795 C787 1.433 . S
C795 N797 1.384 . S
N796 C792 1.427 . S
N796 C793 1.384 . S
N797 C789 1.427 . S
N797 C795 1.384 . S
H798 C804 0.930 . S
H799 C808 0.930 . S
H800 C813 0.929 . S
H801 C811 0.929 . S
H802 C806 0.929 . S
H803 C812 0.929 . S
C804 H798 0.930 . S
C804 C805 1.367 . S
C804 C812 1.378 . S
C805 C804 1.367 . S
C805 C813 1.433 . S
C806 H802 0.929 . S
C806 C808 1.378 . S
C806 C810 1.350 . S
C807 C810 1.463 . S
C807 C812 1.350 . S
C807 N815 1.427 . S
C808 H799 0.930 . S
C808 C806 1.378 . S
C808 C809 1.367 . S
C809 C808 1.367 . S
C809 C811 1.433 . S
C810 C806 1.350 . S
C810 C807 1.463 . S
C810 N814 1.427 . S
C811 H801 0.929 . S
C811 C809 1.433 . S
C811 N814 1.384 . S
C812 H803 0.929 . S
C812 C804 1.378 . S
C812 C807 1.350 . S
C813 H800 0.929 . S
C813 C805 1.433 . S
C813 N815 1.384 . S
N814 C810 1.427 . S
N814 C811 1.384 . S
N815 C807 1.427 . S
N815 C813 1.384 . S
H816 C822 0.930 . S
H817 C826 0.930 . S
H818 C831 0.929 . S
H819 C829 0.929 . S
H820 C824 0.929 . S
H821 C830 0.929 . S
C822 H816 0.930 . S
C822 C823 1.367 . S
C822 C830 1.378 . S
C823 C822 1.367 . S
C823 C831 1.433 . S
C824 H820 0.929 . S
C824 C826 1.378 . S
C824 C828 1.350 . S
C825 C828 1.463 . S
C825 C830 1.350 . S
C825 N833 1.427 . S
C826 H817 0.930 . S
C826 C824 1.378 . S
C826 C827 1.367 . S
C827 C826 1.367 . S
C827 C829 1.433 . S
C828 C824 1.350 . S
C828 C825 1.463 . S
C828 N832 1.427 . S
C829 H819 0.929 . S
C829 C827 1.433 . S
C829 N832 1.384 . S
C830 H821 0.929 . S
C830 C822 1.378 . S
C830 C825 1.350 . S
C831 H818 0.929 . S
C831 C823 1.433 . S
C831 N833 1.384 . S
N832 C828 1.427 . S
N832 C829 1.384 . S
N833 C825 1.427 . S
N833 C831 1.384 . S
H834 C840 0.930 . S
H835 C844 0.930 . S
H836 C849 0.929 . S
H837 C847 0.929 . S
H838 C842 0.929 . S
H839 C848 0.929 . S
C840 H834 0.930 . S
C840 C841 1.367 . S
C840 C848 1.378 . S
C841 C840 1.367 . S
C841 C849 1.433 . S
C842 H838 0.929 . S
C842 C844 1.378 . S
C842 C846 1.350 . S
C843 C846 1.463 . S
C843 C848 1.350 . S
C843 N851 1.427 . S
C844 H835 0.930 . S
C844 C842 1.378 . S
C844 C845 1.367 . S
C845 C844 1.367 . S
C845 C847 1.433 . S
C846 C842 1.350 . S
C846 C843 1.463 . S
C846 N850 1.427 . S
C847 H837 0.929 . S
C847 C845 1.433 . S
C847 N850 1.384 . S
C848 H839 0.929 . S
C848 C840 1.378 . S
C848 C843 1.350 . S
C849 H836 0.929 . S
C849 C841 1.433 . S
C849 N851 1.384 . S
N850 C846 1.427 . S
N850 C847 1.384 . S
N851 C843 1.427 . S
N851 C849 1.384 . S
H852 C858 0.930 . S
H853 C862 0.930 1_545 S
H854 C867 0.929 . S
H855 C865 0.929 . S
H856 C860 0.929 . S
H857 C866 0.929 . S
C858 H852 0.930 . S
C858 C859 1.367 . S
C858 C866 1.378 . S
C859 C858 1.367 . S
C859 C867 1.433 . S
C860 H856 0.929 . S
C860 C862 1.378 . S
C860 C864 1.350 . S
C861 C864 1.463 . S
C861 C866 1.350 . S
C861 N869 1.427 . S
C862 H853 0.930 1_565 S
C862 C860 1.378 . S
C862 C863 1.367 . S
C863 C862 1.367 . S
C863 C865 1.433 . S
C864 C860 1.350 . S
C864 C861 1.463 . S
C864 N868 1.427 . S
C865 H855 0.929 . S
C865 C863 1.433 . S
C865 N868 1.384 . S
C866 H857 0.929 . S
C866 C858 1.378 . S
C866 C861 1.350 . S
C867 H854 0.929 . S
C867 C859 1.433 . S
C867 N869 1.384 . S
N868 C864 1.427 . S
N868 C865 1.384 . S
N869 C861 1.427 . S
N869 C867 1.384 . S
H870 C876 0.930 . S
H871 C880 0.930 . S
H872 C885 0.929 . S
H873 C883 0.929 . S
H874 C878 0.929 . S
H875 C884 0.929 . S
C876 H870 0.930 . S
C876 C877 1.367 . S
C876 C884 1.378 . S
C877 C876 1.367 . S
C877 C885 1.433 . S
C878 H874 0.929 . S
C878 C880 1.378 . S
C878 C882 1.350 . S
C879 C882 1.463 . S
C879 C884 1.350 . S
C879 N887 1.427 . S
C880 H871 0.930 . S
C880 C878 1.378 . S
C880 C881 1.367 . S
C881 C880 1.367 . S
C881 C883 1.433 . S
C882 C878 1.350 . S
C882 C879 1.463 . S
C882 N886 1.427 . S
C883 H873 0.929 . S
C883 C881 1.433 . S
C883 N886 1.384 . S
C884 H875 0.929 . S
C884 C876 1.378 . S
C884 C879 1.350 . S
C885 H872 0.929 . S
C885 C877 1.433 . S
C885 N887 1.384 . S
N886 C882 1.427 . S
N886 C883 1.384 . S
N887 C879 1.427 . S
N887 C885 1.384 . S
H888 C894 0.930 . S
H889 C898 0.930 . S
H890 C903 0.929 . S
H891 C901 0.929 . S
H892 C896 0.929 . S
H893 C902 0.929 . S
C894 H888 0.930 . S
C894 C895 1.367 . S
C894 C902 1.378 . S
C895 C894 1.367 . S
C895 C903 1.433 . S
C896 H892 0.929 . S
C896 C898 1.378 . S
C896 C900 1.350 . S
C897 C900 1.463 . S
C897 C902 1.350 . S
C897 N905 1.427 . S
C898 H889 0.930 . S
C898 C896 1.378 . S
C898 C899 1.367 . S
C899 C898 1.367 . S
C899 C901 1.433 . S
C900 C896 1.350 . S
C900 C897 1.463 . S
C900 N904 1.427 . S
C901 H891 0.929 . S
C901 C899 1.433 . S
C901 N904 1.384 . S
C902 H893 0.929 . S
C902 C894 1.378 . S
C902 C897 1.350 . S
C903 H890 0.929 . S
C903 C895 1.433 . S
C903 N905 1.384 . S
N904 C900 1.427 . S
N904 C901 1.384 . S
N905 C897 1.427 . S
N905 C903 1.384 . S
H906 C912 0.930 . S
H907 C916 0.930 . S
H908 C921 0.929 . S
H909 C919 0.929 . S
H910 C914 0.929 . S
H911 C920 0.929 . S
C912 H906 0.930 . S
C912 C913 1.367 . S
C912 C920 1.378 . S
C913 C912 1.367 . S
C913 C921 1.433 . S
C914 H910 0.929 . S
C914 C916 1.378 . S
C914 C918 1.350 . S
C915 C918 1.463 . S
C915 C920 1.350 . S
C915 N923 1.427 . S
C916 H907 0.930 . S
C916 C914 1.378 . S
C916 C917 1.367 . S
C917 C916 1.367 . S
C917 C919 1.433 . S
C918 C914 1.350 . S
C918 C915 1.463 . S
C918 N922 1.427 . S
C919 H909 0.929 . S
C919 C917 1.433 . S
C919 N922 1.384 . S
C920 H911 0.929 . S
C920 C912 1.378 . S
C920 C915 1.350 . S
C921 H908 0.929 . S
C921 C913 1.433 . S
C921 N923 1.384 . S
N922 C918 1.427 . S
N922 C919 1.384 . S
N923 C915 1.427 . S
N923 C921 1.384 . S
H924 C930 0.930 . S
H925 C934 0.930 . S
H926 C939 0.929 . S
H927 C937 0.929 . S
H928 C932 0.929 . S
H929 C938 0.929 . S
C930 H924 0.930 . S
C930 C931 1.367 . S
C930 C938 1.378 . S
C931 C930 1.367 . S
C931 C939 1.433 . S
C932 H928 0.929 . S
C932 C934 1.378 . S
C932 C936 1.350 . S
C933 C936 1.463 . S
C933 C938 1.350 . S
C933 N941 1.427 . S
C934 H925 0.930 . S
C934 C932 1.378 . S
C934 C935 1.367 . S
C935 C934 1.367 . S
C935 C937 1.433 . S
C936 C932 1.350 . S
C936 C933 1.463 . S
C936 N940 1.427 . S
C937 H927 0.929 . S
C937 C935 1.433 . S
C937 N940 1.384 . S
C938 H929 0.929 . S
C938 C930 1.378 . S
C938 C933 1.350 . S
C939 H926 0.929 . S
C939 C931 1.433 . S
C939 N941 1.384 . S
N940 C936 1.427 . S
N940 C937 1.384 . S
N941 C933 1.427 . S
N941 C939 1.384 . S
H942 C948 0.930 . S
H943 C952 0.930 . S
H944 C957 0.929 . S
H945 C955 0.929 . S
H946 C950 0.929 . S
H947 C956 0.929 . S
C948 H942 0.930 . S
C948 C949 1.367 . S
C948 C956 1.378 . S
C949 C948 1.367 . S
C949 C957 1.433 . S
C950 H946 0.929 . S
C950 C952 1.378 . S
C950 C954 1.350 . S
C951 C954 1.463 . S
C951 C956 1.350 . S
C951 N959 1.427 . S
C952 H943 0.930 . S
C952 C950 1.378 . S
C952 C953 1.367 . S
C953 C952 1.367 . S
C953 C955 1.433 . S
C954 C950 1.350 . S
C954 C951 1.463 . S
C954 N958 1.427 . S
C955 H945 0.929 . S
C955 C953 1.433 . S
C955 N958 1.384 . S
C956 H947 0.929 . S
C956 C948 1.378 . S
C956 C951 1.350 . S
C957 H944 0.929 . S
C957 C949 1.433 . S
C957 N959 1.384 . S
N958 C954 1.427 . S
N958 C955 1.384 . S
N959 C951 1.427 . S
N959 C957 1.384 . S
H960 C966 0.930 . S
H961 C970 0.930 . S
H962 C975 0.929 . S
H963 C973 0.929 . S
H964 C968 0.929 . S
H965 C974 0.929 . S
C966 H960 0.930 . S
C966 C967 1.367 . S
C966 C974 1.378 . S
C967 C966 1.367 . S
C967 C975 1.433 . S
C968 H964 0.929 . S
C968 C970 1.378 . S
C968 C972 1.350 . S
C969 C972 1.463 . S
C969 C974 1.350 . S
C969 N977 1.427 . S
C970 H961 0.930 . S
C970 C968 1.378 . S
C970 C971 1.367 . S
C971 C970 1.367 . S
C971 C973 1.433 . S
C972 C968 1.350 . S
C972 C969 1.463 . S
C972 N976 1.427 . S
C973 H963 0.929 . S
C973 C971 1.433 . S
C973 N976 1.384 . S
C974 H965 0.929 . S
C974 C966 1.378 . S
C974 C969 1.350 . S
C975 H962 0.929 . S
C975 C967 1.433 . S
C975 N977 1.384 . S
N976 C972 1.427 . S
N976 C973 1.384 . S
N977 C969 1.427 . S
N977 C975 1.384 . S
H978 C984 0.930 . S
H979 C988 0.930 . S
H980 C993 0.929 . S
H981 C991 0.929 . S
H982 C986 0.929 . S
H983 C992 0.929 . S
C984 H978 0.930 . S
C984 C985 1.367 . S
C984 C992 1.378 . S
C985 C984 1.367 . S
C985 C993 1.433 . S
C986 H982 0.929 . S
C986 C988 1.378 . S
C986 C990 1.350 . S
C987 C990 1.463 . S
C987 C992 1.350 . S
C987 N995 1.427 . S
C988 H979 0.930 . S
C988 C986 1.378 . S
C988 C989 1.367 . S
C989 C988 1.367 . S
C989 C991 1.433 . S
C990 C986 1.350 . S
C990 C987 1.463 . S
C990 N994 1.427 . S
C991 H981 0.929 . S
C991 C989 1.433 . S
C991 N994 1.384 . S
C992 H983 0.929 . S
C992 C984 1.378 . S
C992 C987 1.350 . S
C993 H980 0.929 . S
C993 C985 1.433 . S
C993 N995 1.384 . S
N994 C990 1.427 . S
N994 C991 1.384 . S
N995 C987 1.427 . S
N995 C993 1.384 . S
H996 C1002 0.930 . S
H997 C1006 0.930 . S
H998 C1011 0.929 . S
H999 C1009 0.929 . S
H1000 C1004 0.929 . S
H1001 C1010 0.929 . S
C1002 H996 0.930 . S
C1002 C1003 1.367 . S
C1002 C1010 1.378 . S
C1003 C1002 1.367 . S
C1003 C1011 1.433 . S
C1004 H1000 0.929 . S
C1004 C1006 1.378 . S
C1004 C1008 1.350 . S
C1005 C1008 1.463 . S
C1005 C1010 1.350 . S
C1005 N1013 1.427 . S
C1006 H997 0.930 . S
C1006 C1004 1.378 . S
C1006 C1007 1.367 . S
C1007 C1006 1.367 . S
C1007 C1009 1.433 . S
C1008 C1004 1.350 . S
C1008 C1005 1.463 . S
C1008 N1012 1.427 . S
C1009 H999 0.929 . S
C1009 C1007 1.433 . S
C1009 N1012 1.384 . S
C1010 H1001 0.929 . S
C1010 C1002 1.378 . S
C1010 C1005 1.350 . S
C1011 H998 0.929 . S
C1011 C1003 1.433 . S
C1011 N1013 1.384 . S
N1012 C1008 1.427 . S
N1012 C1009 1.384 . S
N1013 C1005 1.427 . S
N1013 C1011 1.384 . S
H1014 C1020 0.930 . S
H1015 C1024 0.930 . S
H1016 C1029 0.929 . S
H1017 C1027 0.929 . S
H1018 C1022 0.929 . S
H1019 C1028 0.929 . S
C1020 H1014 0.930 . S
C1020 C1021 1.367 . S
C1020 C1028 1.378 . S
C1021 C1020 1.367 . S
C1021 C1029 1.433 . S
C1022 H1018 0.929 . S
C1022 C1024 1.378 . S
C1022 C1026 1.350 . S
C1023 C1026 1.463 . S
C1023 C1028 1.350 . S
C1023 N1031 1.427 . S
C1024 H1015 0.930 . S
C1024 C1022 1.378 . S
C1024 C1025 1.367 . S
C1025 C1024 1.367 . S
C1025 C1027 1.433 . S
C1026 C1022 1.350 . S
C1026 C1023 1.463 . S
C1026 N1030 1.427 . S
C1027 H1017 0.929 . S
C1027 C1025 1.433 . S
C1027 N1030 1.384 . S
C1028 H1019 0.929 . S
C1028 C1020 1.378 . S
C1028 C1023 1.350 . S
C1029 H1016 0.929 . S
C1029 C1021 1.433 . S
C1029 N1031 1.384 . S
N1030 C1026 1.427 . S
N1030 C1027 1.384 . S
N1031 C1023 1.427 . S
N1031 C1029 1.384 . S
H1032 C1038 0.930 . S
H1033 C1042 0.930 . S
H1034 C1047 0.929 . S
H1035 C1045 0.929 . S
H1036 C1040 0.929 . S
H1037 C1046 0.929 . S
C1038 H1032 0.930 . S
C1038 C1039 1.367 . S
C1038 C1046 1.378 . S
C1039 C1038 1.367 . S
C1039 C1047 1.433 . S
C1040 H1036 0.929 . S
C1040 C1042 1.378 . S
C1040 C1044 1.350 . S
C1041 C1044 1.463 . S
C1041 C1046 1.350 . S
C1041 N1049 1.427 . S
C1042 H1033 0.930 . S
C1042 C1040 1.378 . S
C1042 C1043 1.367 . S
C1043 C1042 1.367 . S
C1043 C1045 1.433 . S
C1044 C1040 1.350 . S
C1044 C1041 1.463 . S
C1044 N1048 1.427 . S
C1045 H1035 0.929 . S
C1045 C1043 1.433 . S
C1045 N1048 1.384 . S
C1046 H1037 0.929 . S
C1046 C1038 1.378 . S
C1046 C1041 1.350 . S
C1047 H1034 0.929 . S
C1047 C1039 1.433 . S
C1047 N1049 1.384 . S
N1048 C1044 1.427 . S
N1048 C1045 1.384 . S
N1049 C1041 1.427 . S
N1049 C1047 1.384 . S
H1050 C1056 0.930 . S
H1051 C1060 0.930 . S
H1052 C1065 0.929 . S
H1053 C1063 0.929 . S
H1054 C1058 0.929 . S
H1055 C1064 0.929 . S
C1056 H1050 0.930 . S
C1056 C1057 1.367 . S
C1056 C1064 1.378 . S
C1057 C1056 1.367 . S
C1057 C1065 1.433 . S
C1058 H1054 0.929 . S
C1058 C1060 1.378 . S
C1058 C1062 1.350 . S
C1059 C1062 1.463 . S
C1059 C1064 1.350 . S
C1059 N1067 1.427 . S
C1060 H1051 0.930 . S
C1060 C1058 1.378 . S
C1060 C1061 1.367 . S
C1061 C1060 1.367 . S
C1061 C1063 1.433 . S
C1062 C1058 1.350 . S
C1062 C1059 1.463 . S
C1062 N1066 1.427 . S
C1063 H1053 0.929 . S
C1063 C1061 1.433 . S
C1063 N1066 1.384 . S
C1064 H1055 0.929 . S
C1064 C1056 1.378 . S
C1064 C1059 1.350 . S
C1065 H1052 0.929 . S
C1065 C1057 1.433 . S
C1065 N1067 1.384 . S
N1066 C1062 1.427 . S
N1066 C1063 1.384 . S
N1067 C1059 1.427 . S
N1067 C1065 1.384 . S
H1068 C1074 0.930 . S
H1069 C1078 0.930 . S
H1070 C1083 0.929 . S
H1071 C1081 0.929 . S
H1072 C1076 0.929 . S
H1073 C1082 0.929 . S
C1074 H1068 0.930 . S
C1074 C1075 1.367 . S
C1074 C1082 1.378 . S
C1075 C1074 1.367 . S
C1075 C1083 1.433 . S
C1076 H1072 0.929 . S
C1076 C1078 1.378 . S
C1076 C1080 1.350 . S
C1077 C1080 1.463 . S
C1077 C1082 1.350 . S
C1077 N1085 1.427 . S
C1078 H1069 0.930 . S
C1078 C1076 1.378 . S
C1078 C1079 1.367 . S
C1079 C1078 1.367 . S
C1079 C1081 1.433 . S
C1080 C1076 1.350 . S
C1080 C1077 1.463 . S
C1080 N1084 1.427 . S
C1081 H1071 0.929 . S
C1081 C1079 1.433 . S
C1081 N1084 1.384 . S
C1082 H1073 0.929 . S
C1082 C1074 1.378 . S
C1082 C1077 1.350 . S
C1083 H1070 0.929 . S
C1083 C1075 1.433 . S
C1083 N1085 1.384 . S
N1084 C1080 1.427 . S
N1084 C1081 1.384 . S
N1085 C1077 1.427 . S
N1085 C1083 1.384 . S
H1086 C1092 0.930 . S
H1087 C1096 0.930 . S
H1088 C1101 0.929 . S
H1089 C1099 0.929 . S
H1090 C1094 0.929 . S
H1091 C1100 0.929 . S
C1092 H1086 0.930 . S
C1092 C1093 1.367 . S
C1092 C1100 1.378 . S
C1093 C1092 1.367 . S
C1093 C1101 1.433 . S
C1094 H1090 0.929 . S
C1094 C1096 1.378 . S
C1094 C1098 1.350 . S
C1095 C1098 1.463 . S
C1095 C1100 1.350 . S
C1095 N1103 1.427 . S
C1096 H1087 0.930 . S
C1096 C1094 1.378 . S
C1096 C1097 1.367 . S
C1097 C1096 1.367 . S
C1097 C1099 1.433 . S
C1098 C1094 1.350 . S
C1098 C1095 1.463 . S
C1098 N1102 1.427 . S
C1099 H1089 0.929 . S
C1099 C1097 1.433 . S
C1099 N1102 1.384 . S
C1100 H1091 0.929 . S
C1100 C1092 1.378 . S
C1100 C1095 1.350 . S
C1101 H1088 0.929 . S
C1101 C1093 1.433 . S
C1101 N1103 1.384 . S
N1102 C1098 1.427 . S
N1102 C1099 1.384 . S
N1103 C1095 1.427 . S
N1103 C1101 1.384 . S
H1104 C1110 0.930 . S
H1105 C1114 0.930 . S
H1106 C1119 0.929 . S
H1107 C1117 0.929 . S
H1108 C1112 0.929 . S
H1109 C1118 0.929 . S
C1110 H1104 0.930 . S
C1110 C1111 1.367 . S
C1110 C1118 1.378 . S
C1111 C1110 1.367 . S
C1111 C1119 1.433 . S
C1112 H1108 0.929 . S
C1112 C1114 1.378 . S
C1112 C1116 1.350 . S
C1113 C1116 1.463 . S
C1113 C1118 1.350 . S
C1113 N1121 1.427 . S
C1114 H1105 0.930 . S
C1114 C1112 1.378 . S
C1114 C1115 1.367 . S
C1115 C1114 1.367 . S
C1115 C1117 1.433 . S
C1116 C1112 1.350 . S
C1116 C1113 1.463 . S
C1116 N1120 1.427 . S
C1117 H1107 0.929 . S
C1117 C1115 1.433 . S
C1117 N1120 1.384 . S
C1118 H1109 0.929 . S
C1118 C1110 1.378 . S
C1118 C1113 1.350 . S
C1119 H1106 0.929 . S
C1119 C1111 1.433 . S
C1119 N1121 1.384 . S
N1120 C1116 1.427 . S
N1120 C1117 1.384 . S
N1121 C1113 1.427 . S
N1121 C1119 1.384 . S
H1122 C1128 0.930 . S
H1123 C1132 0.930 . S
H1124 C1137 0.929 . S
H1125 C1135 0.929 . S
H1126 C1130 0.929 . S
H1127 C1136 0.929 . S
C1128 H1122 0.930 . S
C1128 C1129 1.367 . S
C1128 C1136 1.378 . S
C1129 C1128 1.367 . S
C1129 C1137 1.433 . S
C1130 H1126 0.929 . S
C1130 C1132 1.378 . S
C1130 C1134 1.350 . S
C1131 C1134 1.463 . S
C1131 C1136 1.350 . S
C1131 N1139 1.427 . S
C1132 H1123 0.930 . S
C1132 C1130 1.378 . S
C1132 C1133 1.367 . S
C1133 C1132 1.367 . S
C1133 C1135 1.433 . S
C1134 C1130 1.350 . S
C1134 C1131 1.463 . S
C1134 N1138 1.427 . S
C1135 H1125 0.929 . S
C1135 C1133 1.433 . S
C1135 N1138 1.384 . S
C1136 H1127 0.929 . S
C1136 C1128 1.378 . S
C1136 C1131 1.350 . S
C1137 H1124 0.929 . S
C1137 C1129 1.433 . S
C1137 N1139 1.384 . S
N1138 C1134 1.427 . S
N1138 C1135 1.384 . S
N1139 C1131 1.427 . S
N1139 C1137 1.384 . S
C715 C477 1.503 . S
C719 C5 1.504 . S
C733 C64 1.509 . S
C737 C536 1.510 . S
C751 C123 1.504 . S
C755 C595 1.507 . S
C769 C182 1.504 . S
C773 C654 1.506 . S
C787 C359 1.508 . S
C791 C241 1.510 . S
C805 C300 1.510 . S
C809 C418 1.510 . S
C823 C3 1.598 . S
C827 C328 1.606 1_554 S
C841 C62 1.593 . S
C845 C33 1.604 1_655 S
C859 C121 1.601 . S
C863 C92 1.601 1_565 S
C877 C151 1.606 . S
C881 C180 1.592 . S
C895 C210 1.606 1_455 S
C899 C239 1.598 . S
C913 C269 1.605 1_545 S
C917 C298 1.593 . S
C931 C446 1.607 . S
C935 C357 1.593 . S
C949 C416 1.597 . S
C953 C505 1.606 1_656 S
C967 C564 1.605 1_565 S
C971 C475 1.593 . S
C985 C534 1.593 . S
C989 C623 1.607 . S
C1003 C593 1.597 . S
C1007 C682 1.601 1_455 S
C1021 C652 1.596 . S
C1025 C387 1.601 1_545 S
C1039 C642 1.469 . S
C1043 C52 1.471 . S
C1057 C701 1.470 . S
C1061 C111 1.471 . S
C1075 C406 1.469 . S
C1079 C170 1.472 . S
C1093 C229 1.471 . S
C1097 C465 1.469 . S
C1111 C288 1.472 . S
C1115 C524 1.470 . S
C1129 C583 1.471 . S
C1133 C347 1.469 . S
