# Generated by pormake.
# Topology uma, (4)-cn, num edge types: 1
# Building blocks:
#     Node 0, Type 0, BuildingBlock: QUQFOY_clean_sbu_1, # of connection points: 4
#     Node 1, Type 0, BuildingBlock: QUQFOY_clean_sbu_1, # of connection points: 4
#     Node 2, Type 0, BuildingBlock: QUQFOY_clean_sbu_1, # of connection points: 4
#     Node 3, Type 0, BuildingBlock: QUQFOY_clean_sbu_1, # of connection points: 4
#     Node 4, Type 0, BuildingBlock: QUQFOY_clean_sbu_1, # of connection points: 4
#     Node 5, Type 0, BuildingBlock: QUQFOY_clean_sbu_1, # of connection points: 4
#     Node 6, Type 0, BuildingBlock: QUQFOY_clean_sbu_1, # of connection points: 4
#     Node 7, Type 0, BuildingBlock: QUQFOY_clean_sbu_1, # of connection points: 4
#     Node 8, Type 0, BuildingBlock: QUQFOY_clean_sbu_1, # of connection points: 4
#     Node 9, Type 0, BuildingBlock: QUQFOY_clean_sbu_1, # of connection points: 4
#     Node 10, Type 0, BuildingBlock: QUQFOY_clean_sbu_1, # of connection points: 4
#     Node 11, Type 0, BuildingBlock: QUQFOY_clean_sbu_1, # of connection points: 4
#     Node 12, Type 0, BuildingBlock: QUQFOY_clean_sbu_1, # of connection points: 4
#     Node 13, Type 0, BuildingBlock: QUQFOY_clean_sbu_1, # of connection points: 4
#     Node 14, Type 0, BuildingBlock: QUQFOY_clean_sbu_1, # of connection points: 4
#     Node 15, Type 0, BuildingBlock: QUQFOY_clean_sbu_1, # of connection points: 4
#     Node 16, Type 0, BuildingBlock: QUQFOY_clean_sbu_1, # of connection points: 4
#     Node 17, Type 0, BuildingBlock: QUQFOY_clean_sbu_1, # of connection points: 4
#     Node 18, Type 0, BuildingBlock: QUQFOY_clean_sbu_1, # of connection points: 4
#     Node 19, Type 0, BuildingBlock: QUQFOY_clean_sbu_1, # of connection points: 4
#     Node 20, Type 0, BuildingBlock: QUQFOY_clean_sbu_1, # of connection points: 4
#     Node 21, Type 0, BuildingBlock: QUQFOY_clean_sbu_1, # of connection points: 4
#     Node 22, Type 0, BuildingBlock: QUQFOY_clean_sbu_1, # of connection points: 4
#     Node 23, Type 0, BuildingBlock: QUQFOY_clean_sbu_1, # of connection points: 4
#     Node 24, Type 0, BuildingBlock: QUQFOY_clean_sbu_1, # of connection points: 4
#     Node 25, Type 0, BuildingBlock: QUQFOY_clean_sbu_1, # of connection points: 4
#     Node 26, Type 0, BuildingBlock: QUQFOY_clean_sbu_1, # of connection points: 4
#     Node 27, Type 0, BuildingBlock: QUQFOY_clean_sbu_1, # of connection points: 4
#     Node 28, Type 0, BuildingBlock: QUQFOY_clean_sbu_1, # of connection points: 4
#     Node 29, Type 0, BuildingBlock: QUQFOY_clean_sbu_1, # of connection points: 4
#     Node 30, Type 0, BuildingBlock: QUQFOY_clean_sbu_1, # of connection points: 4
#     Node 31, Type 0, BuildingBlock: QUQFOY_clean_sbu_1, # of connection points: 4
#     Node 32, Type 0, BuildingBlock: QUQFOY_clean_sbu_1, # of connection points: 4
#     Node 33, Type 0, BuildingBlock: QUQFOY_clean_sbu_1, # of connection points: 4
#     Node 34, Type 0, BuildingBlock: QUQFOY_clean_sbu_1, # of connection points: 4
#     Node 35, Type 0, BuildingBlock: QUQFOY_clean_sbu_1, # of connection points: 4
#     Edge 36, Type (0, 0), BuildingBlock: CIFDUS_clean_linker_0, # of connection points: 2
#     Edge 37, Type (0, 0), BuildingBlock: CIFDUS_clean_linker_0, # of connection points: 2
#     Edge 38, Type (0, 0), BuildingBlock: CIFDUS_clean_linker_0, # of connection points: 2
#     Edge 39, Type (0, 0), BuildingBlock: CIFDUS_clean_linker_0, # of connection points: 2
#     Edge 40, Type (0, 0), BuildingBlock: CIFDUS_clean_linker_0, # of connection points: 2
#     Edge 41, Type (0, 0), BuildingBlock: CIFDUS_clean_linker_0, # of connection points: 2
#     Edge 42, Type (0, 0), BuildingBlock: CIFDUS_clean_linker_0, # of connection points: 2
#     Edge 43, Type (0, 0), BuildingBlock: CIFDUS_clean_linker_0, # of connection points: 2
#     Edge 44, Type (0, 0), BuildingBlock: CIFDUS_clean_linker_0, # of connection points: 2
#     Edge 45, Type (0, 0), BuildingBlock: CIFDUS_clean_linker_0, # of connection points: 2
#     Edge 46, Type (0, 0), BuildingBlock: CIFDUS_clean_linker_0, # of connection points: 2
#     Edge 47, Type (0, 0), BuildingBlock: CIFDUS_clean_linker_0, # of connection points: 2
#     Edge 48, Type (0, 0), BuildingBlock: CIFDUS_clean_linker_0, # of connection points: 2
#     Edge 49, Type (0, 0), BuildingBlock: CIFDUS_clean_linker_0, # of connection points: 2
#     Edge 50, Type (0, 0), BuildingBlock: CIFDUS_clean_linker_0, # of connection points: 2
#     Edge 51, Type (0, 0), BuildingBlock: CIFDUS_clean_linker_0, # of connection points: 2
#     Edge 52, Type (0, 0), BuildingBlock: CIFDUS_clean_linker_0, # of connection points: 2
#     Edge 53, Type (0, 0), BuildingBlock: CIFDUS_clean_linker_0, # of connection points: 2
#     Edge 54, Type (0, 0), BuildingBlock: CIFDUS_clean_linker_0, # of connection points: 2
#     Edge 55, Type (0, 0), BuildingBlock: CIFDUS_clean_linker_0, # of connection points: 2
#     Edge 56, Type (0, 0), BuildingBlock: CIFDUS_clean_linker_0, # of connection points: 2
#     Edge 57, Type (0, 0), BuildingBlock: CIFDUS_clean_linker_0, # of connection points: 2
#     Edge 58, Type (0, 0), BuildingBlock: CIFDUS_clean_linker_0, # of connection points: 2
#     Edge 59, Type (0, 0), BuildingBlock: CIFDUS_clean_linker_0, # of connection points: 2
#     Edge 60, Type (0, 0), BuildingBlock: CIFDUS_clean_linker_0, # of connection points: 2
#     Edge 61, Type (0, 0), BuildingBlock: CIFDUS_clean_linker_0, # of connection points: 2
#     Edge 62, Type (0, 0), BuildingBlock: CIFDUS_clean_linker_0, # of connection points: 2
#     Edge 63, Type (0, 0), BuildingBlock: CIFDUS_clean_linker_0, # of connection points: 2
#     Edge 64, Type (0, 0), BuildingBlock: CIFDUS_clean_linker_0, # of connection points: 2
#     Edge 65, Type (0, 0), BuildingBlock: CIFDUS_clean_linker_0, # of connection points: 2
#     Edge 66, Type (0, 0), BuildingBlock: CIFDUS_clean_linker_0, # of connection points: 2
#     Edge 67, Type (0, 0), BuildingBlock: CIFDUS_clean_linker_0, # of connection points: 2
#     Edge 68, Type (0, 0), BuildingBlock: CIFDUS_clean_linker_0, # of connection points: 2
#     Edge 69, Type (0, 0), BuildingBlock: CIFDUS_clean_linker_0, # of connection points: 2
#     Edge 70, Type (0, 0), BuildingBlock: CIFDUS_clean_linker_0, # of connection points: 2
#     Edge 71, Type (0, 0), BuildingBlock: CIFDUS_clean_linker_0, # of connection points: 2
#     Edge 72, Type (0, 0), BuildingBlock: CIFDUS_clean_linker_0, # of connection points: 2
#     Edge 73, Type (0, 0), BuildingBlock: CIFDUS_clean_linker_0, # of connection points: 2
#     Edge 74, Type (0, 0), BuildingBlock: CIFDUS_clean_linker_0, # of connection points: 2
#     Edge 75, Type (0, 0), BuildingBlock: CIFDUS_clean_linker_0, # of connection points: 2
#     Edge 76, Type (0, 0), BuildingBlock: CIFDUS_clean_linker_0, # of connection points: 2
#     Edge 77, Type (0, 0), BuildingBlock: CIFDUS_clean_linker_0, # of connection points: 2
#     Edge 78, Type (0, 0), BuildingBlock: CIFDUS_clean_linker_0, # of connection points: 2
#     Edge 79, Type (0, 0), BuildingBlock: CIFDUS_clean_linker_0, # of connection points: 2
#     Edge 80, Type (0, 0), BuildingBlock: CIFDUS_clean_linker_0, # of connection points: 2
#     Edge 81, Type (0, 0), BuildingBlock: CIFDUS_clean_linker_0, # of connection points: 2
#     Edge 82, Type (0, 0), BuildingBlock: CIFDUS_clean_linker_0, # of connection points: 2
#     Edge 83, Type (0, 0), BuildingBlock: CIFDUS_clean_linker_0, # of connection points: 2
#     Edge 84, Type (0, 0), BuildingBlock: CIFDUS_clean_linker_0, # of connection points: 2
#     Edge 85, Type (0, 0), BuildingBlock: CIFDUS_clean_linker_0, # of connection points: 2
#     Edge 86, Type (0, 0), BuildingBlock: CIFDUS_clean_linker_0, # of connection points: 2
#     Edge 87, Type (0, 0), BuildingBlock: CIFDUS_clean_linker_0, # of connection points: 2
#     Edge 88, Type (0, 0), BuildingBlock: CIFDUS_clean_linker_0, # of connection points: 2
#     Edge 89, Type (0, 0), BuildingBlock: CIFDUS_clean_linker_0, # of connection points: 2
#     Edge 90, Type (0, 0), BuildingBlock: CIFDUS_clean_linker_0, # of connection points: 2
#     Edge 91, Type (0, 0), BuildingBlock: CIFDUS_clean_linker_0, # of connection points: 2
#     Edge 92, Type (0, 0), BuildingBlock: CIFDUS_clean_linker_0, # of connection points: 2
#     Edge 93, Type (0, 0), BuildingBlock: CIFDUS_clean_linker_0, # of connection points: 2
#     Edge 94, Type (0, 0), BuildingBlock: CIFDUS_clean_linker_0, # of connection points: 2
#     Edge 95, Type (0, 0), BuildingBlock: CIFDUS_clean_linker_0, # of connection points: 2
#     Edge 96, Type (0, 0), BuildingBlock: CIFDUS_clean_linker_0, # of connection points: 2
#     Edge 97, Type (0, 0), BuildingBlock: CIFDUS_clean_linker_0, # of connection points: 2
#     Edge 98, Type (0, 0), BuildingBlock: CIFDUS_clean_linker_0, # of connection points: 2
#     Edge 99, Type (0, 0), BuildingBlock: CIFDUS_clean_linker_0, # of connection points: 2
#     Edge 100, Type (0, 0), BuildingBlock: CIFDUS_clean_linker_0, # of connection points: 2
#     Edge 101, Type (0, 0), BuildingBlock: CIFDUS_clean_linker_0, # of connection points: 2
#     Edge 102, Type (0, 0), BuildingBlock: CIFDUS_clean_linker_0, # of connection points: 2
#     Edge 103, Type (0, 0), BuildingBlock: CIFDUS_clean_linker_0, # of connection points: 2
#     Edge 104, Type (0, 0), BuildingBlock: CIFDUS_clean_linker_0, # of connection points: 2
#     Edge 105, Type (0, 0), BuildingBlock: CIFDUS_clean_linker_0, # of connection points: 2
#     Edge 106, Type (0, 0), BuildingBlock: CIFDUS_clean_linker_0, # of connection points: 2
#     Edge 107, Type (0, 0), BuildingBlock: CIFDUS_clean_linker_0, # of connection points: 2
# Relax obj value: 0.074
# Max RMSD: 0.232
# Mean RMSD: 0.232
data_MOF--net-uma--node1-QUQFOY_clean_sbu_1--edge1-CIFDUS_clean_linker_0
_symmetry_space_group_name_H-M    P1
_symmetry_Int_Tables_number       1
_symmetry_cell_setting            triclinic
loop_
_symmetry_equiv_pos_as_xyz
'x, y, z'
_cell_length_a     78.255436
_cell_length_b     78.473865
_cell_length_c     34.589793
_cell_angle_alpha  90.078349
_cell_angle_beta   89.660838
_cell_angle_gamma 120.24486
loop_
_atom_site_label
_atom_site_type_symbol
_atom_site_fract_x
_atom_site_fract_y
_atom_site_fract_z
_atom_type_partial_charge
O0 O 0.06884 0.32374 1.01382 0.0
Cd1 Cd 0.07939 0.32606 0.06897 0.0
Cd2 Cd 0.05056 0.33562 0.08079 0.0
O3 O 0.04926 0.33627 1.01991 0.0
O4 O 0.10322 0.32401 0.05756 0.0
O5 O 0.10492 0.34938 0.08884 0.0
C6 C 0.11377 0.34076 0.07414 0.0
C7 C 0.05043 0.35845 0.12541 0.0
C8 C 0.05692 0.32837 0.99901 0.0
C9 C 0.04382 0.29527 0.10636 0.0
O10 O 0.03723 0.30696 0.10081 0.0
O11 O 0.06181 0.30081 0.09949 0.0
O12 O 0.03516 0.34738 0.10455 0.0
O13 O 0.06625 0.35752 0.11917 0.0
O14 O 0.68198 0.77398 1.01766 0.0
Cd15 Cd 0.68914 0.7801 0.07503 0.0
Cd16 Cd 0.66061 0.74002 0.07645 0.0
O17 O 0.65311 0.74644 1.02255 0.0
O18 O 0.70479 0.80947 0.07472 0.0
O19 O 0.67616 0.79275 0.10522 0.0
C20 C 0.69075 0.80955 0.09412 0.0
C21 C 0.63911 0.71507 0.12059 0.0
C22 C 0.66633 0.7605 1.00204 0.0
C23 C 0.70487 0.75446 0.08319 0.0
O24 O 0.68744 0.74146 0.07361 0.0
O25 O 0.7089 0.77172 0.09264 0.0
O26 O 0.64196 0.71095 0.08594 0.0
O27 O 0.64718 0.73351 0.1295 0.0
O28 O 0.24059 0.92471 0.99613 0.0
Cd29 Cd 0.22957 0.91203 0.04933 0.0
Cd30 Cd 0.27153 0.93922 0.06285 0.0
O31 O 0.27314 0.94123 1.00215 0.0
O32 O 0.20174 0.89479 0.03224 0.0
O33 O 0.21811 0.88269 0.06167 0.0
C34 C 0.20209 0.87969 0.04525 0.0
C35 C 0.29758 0.94233 0.10274 0.0
C36 C 0.2577 0.93561 0.98164 0.0
C37 C 0.23946 0.94819 0.09162 0.0
O38 O 0.25743 0.95338 0.08473 0.0
O39 O 0.22567 0.93081 0.08433 0.0
O40 O 0.29966 0.95645 0.08064 0.0
O41 O 0.281 0.92589 0.10095 0.0
O42 O 0.33415 0.08359 0.05438 0.0
Cd43 Cd 0.31827 0.08144 1.0058 0.0
Cd44 Cd 0.3264 0.05068 0.9889 0.0
O45 O 0.33178 0.0544 0.04887 0.0
O46 O 0.30879 0.09953 1.02233 0.0
O47 O 0.32568 0.10448 0.9685 0.0
C48 C 0.31625 0.1098 0.99161 0.0
C49 C 0.34706 0.04899 0.94042 0.0
C50 C 0.33487 0.06921 0.06942 0.0
C51 C 0.28452 0.03948 0.99252 0.0
O52 O 0.29656 0.03481 0.97808 0.0
O53 O 0.29069 0.05655 1.00636 0.0
O54 O 0.3382 0.03515 0.96577 0.0
O55 O 0.34512 0.06435 0.94389 0.0
O56 O 0.92159 0.26669 0.07976 0.0
Cd57 Cd 0.91869 0.25167 0.0294 0.0
Cd58 Cd 0.95267 0.28745 1.00995 0.0
O59 O 0.95292 0.28929 0.07072 0.0
O60 O 0.89703 0.22544 0.04681 0.0
O61 O 0.89405 0.24018 0.99553 0.0
C62 C 0.8865 0.2251 1.01828 0.0
C63 C 0.95756 0.31327 0.96737 0.0
C64 C 0.93816 0.27968 0.09325 0.0
C65 C 0.95664 0.25237 1.00655 0.0
O66 O 0.96314 0.2694 0.99185 0.0
O67 O 0.93999 0.24379 0.02365 0.0
O68 O 0.97156 0.3146 0.98896 0.0
O69 O 0.94041 0.29752 0.97079 0.0
O70 O 0.72486 0.63723 0.09371 0.0
Cd71 Cd 0.7384 0.64815 0.04127 0.0
Cd72 Cd 0.70062 0.6369 1.01923 0.0
O73 O 0.69527 0.63238 0.07914 0.0
O74 O 0.76615 0.65678 0.05521 0.0
O75 O 0.75097 0.63584 1.00792 0.0
C76 C 0.76683 0.6461 0.02779 0.0
C77 C 0.68551 0.61477 0.96766 0.0
C78 C 0.7077 0.63345 0.10412 0.0
C79 C 0.72996 0.6796 1.01376 0.0
O80 O 0.71265 0.66608 1.00478 0.0
O81 O 0.74207 0.67546 0.02927 0.0
O82 O 0.67591 0.62117 0.98772 0.0
O83 O 0.70321 0.61978 0.97866 0.0
O84 O 0.92139 0.67289 0.05393 0.0
Cd85 Cd 0.90978 0.67235 1.00055 0.0
Cd86 Cd 0.93468 0.6564 0.98719 0.0
O87 O 0.93498 0.65428 0.04777 0.0
O88 O 0.89329 0.68366 1.01754 0.0
O89 O 0.88025 0.65475 0.98919 0.0
C90 C 0.87779 0.66811 1.00565 0.0
C91 C 0.93255 0.63298 0.94152 0.0
C92 C 0.93045 0.66488 0.0686 0.0
C93 C 0.94705 0.69858 0.96181 0.0
O94 O 0.95141 0.68535 0.96928 0.0
O95 O 0.92954 0.6952 0.96665 0.0
O96 O 0.94782 0.64239 0.96336 0.0
O97 O 0.91789 0.63591 0.94727 0.0
O98 O 0.28897 0.23327 0.04815 0.0
Cd99 Cd 0.28302 0.22108 0.99393 0.0
Cd100 Cd 0.30275 0.26032 0.97646 0.0
O101 O 0.30959 0.26465 0.03526 0.0
O102 O 0.27234 0.19297 1.00773 0.0
O103 O 0.29868 0.20925 0.97061 0.0
C104 C 0.28651 0.19315 0.9884 0.0
C105 C 0.32496 0.27686 0.9256 0.0
C106 C 0.30004 0.25085 0.05967 0.0
C107 C 0.25824 0.23588 0.96328 0.0
O108 O 0.27391 0.25269 0.9651 0.0
O109 O 0.25866 0.22026 0.9705 0.0
O110 O 0.31973 0.28612 0.94932 0.0
O111 O 0.31851 0.25837 0.93205 0.0
O112 O 0.74189 0.07153 0.03523 0.0
Cd113 Cd 0.76112 0.08949 0.99137 0.0
Cd114 Cd 0.70693 0.06132 0.96875 0.0
O115 O 0.70889 0.0542 0.02748 0.0
O116 O 0.78814 0.10307 1.01294 0.0
O117 O 0.77358 0.11894 0.98989 0.0
C118 C 0.78887 0.11953 1.00536 0.0
C119 C 0.67988 0.05563 0.92979 0.0
C120 C 0.72448 0.05945 0.04795 0.0
C121 C 0.74284 0.06539 0.93468 0.0
O122 O 0.73374 0.07467 0.94112 0.0
O123 O 0.76102 0.07449 0.94262 0.0
O124 O 0.68401 0.04185 0.93588 0.0
O125 O 0.68997 0.07201 0.94853 0.0
O126 O 0.65973 0.91538 0.97211 0.0
Cd127 Cd 0.66452 0.91981 0.03086 0.0
Cd128 Cd 0.63499 0.92654 1.02264 0.0
O129 O 0.62971 0.91131 0.96956 0.0
O130 O 0.68182 0.90863 0.04293 0.0
O131 O 0.65192 0.89671 0.06798 0.0
C132 C 0.66778 0.89563 0.06434 0.0
C133 C 0.616 0.92385 0.07831 0.0
C134 C 0.64442 0.91145 0.95272 0.0
C135 C 0.67641 0.96078 0.02836 0.0
O136 O 0.65897 0.95416 1.01586 0.0
O137 O 0.68126 0.94926 0.0442 0.0
O138 O 0.61328 0.93035 0.04591 0.0
O139 O 0.62801 0.91701 0.07791 0.0
O140 O 0.07153 0.72699 0.99201 0.0
Cd141 Cd 0.07515 0.74382 0.04024 0.0
Cd142 Cd 0.04024 0.70782 0.06301 0.0
O143 O 0.03994 0.70559 1.00247 0.0
O144 O 0.09627 0.76957 1.0192 0.0
O145 O 0.10035 0.75729 0.07297 0.0
C146 C 0.10729 0.77144 0.04803 0.0
C147 C 0.03219 0.6808 0.10495 0.0
C148 C 0.05458 0.71434 0.97932 0.0
C149 C 0.03715 0.74335 0.0626 0.0
O150 O 0.0311 0.72708 0.08026 0.0
O151 O 0.05347 0.75125 0.04427 0.0
O152 O 0.01926 0.68109 0.08249 0.0
O153 O 0.05003 0.69562 0.10297 0.0
O154 O 0.26509 0.36291 0.97097 0.0
Cd155 Cd 0.24016 0.34701 1.00445 0.0
Cd156 Cd 0.26315 0.33357 0.03697 0.0
O157 O 0.27453 0.34118 0.98105 0.0
O158 O 0.22185 0.35523 0.98315 0.0
O159 O 0.22811 0.3564 0.04542 0.0
C160 C 0.2183 0.35854 1.01784 0.0
C161 C 0.28479 0.3402 0.08949 0.0
C162 C 0.27442 0.35436 0.95982 0.0
C163 C 0.22504 0.30375 1.00882 0.0
O164 O 0.23611 0.30772 0.03819 0.0
O165 O 0.2257 0.31776 0.98943 0.0
O166 O 0.28084 0.32624 0.06524 0.0
O167 O 0.27667 0.35079 0.08386 0.0
O168 O 0.73301 0.6698 0.33232 0.0
Cd169 Cd 0.74487 0.67227 0.38621 0.0
Cd170 Cd 0.71428 0.67915 0.4007 0.0
O171 O 0.71196 0.6804 0.34022 0.0
O172 O 0.76655 0.66806 0.36839 0.0
O173 O 0.77244 0.69415 0.40237 0.0
C174 C 0.77914 0.68441 0.38406 0.0
C175 C 0.71225 0.70039 0.4468 0.0
C176 C 0.72019 0.67342 0.31848 0.0
C177 C 0.71031 0.63959 0.42258 0.0
O178 O 0.70243 0.65022 0.41818 0.0
O179 O 0.72866 0.64673 0.41661 0.0
O180 O 0.69733 0.68863 0.42581 0.0
O181 O 0.72881 0.70095 0.44026 0.0
O182 O 0.31401 0.07409 0.30848 0.0
Cd183 Cd 0.31344 0.08125 0.36553 0.0
Cd184 Cd 0.29406 0.04277 0.37378 0.0
O185 O 0.29208 0.04234 0.31288 0.0
O186 O 0.31918 0.10889 0.36668 0.0
O187 O 0.29043 0.08348 0.38545 0.0
C188 C 0.30149 0.10223 0.37978 0.0
C189 C 0.27056 0.02513 0.42225 0.0
C190 C 0.30382 0.05736 0.29242 0.0
C191 C 0.33597 0.06591 0.40231 0.0
O192 O 0.32153 0.04938 0.3921 0.0
O193 O 0.33549 0.08166 0.39766 0.0
O194 O 0.27563 0.01622 0.39728 0.0
O195 O 0.27716 0.04375 0.41717 0.0
O196 O 0.92963 0.24131 0.3209 0.0
Cd197 Cd 0.91639 0.22901 0.37294 0.0
Cd198 Cd 0.95647 0.24921 0.39023 0.0
O199 O 0.96125 0.25162 0.32994 0.0
O200 O 0.88854 0.21461 0.35504 0.0
O201 O 0.9023 0.1993 0.38261 0.0
C202 C 0.88707 0.19836 0.36632 0.0
C203 C 0.97062 0.24098 0.44122 0.0
C204 C 0.94721 0.24933 0.30788 0.0
C205 C 0.93043 0.26515 0.41785 0.0
O206 O 0.9476 0.26812 0.41004 0.0
O207 O 0.9151 0.249 0.40915 0.0
O208 O 0.9811 0.25662 0.42059 0.0
O209 O 0.95279 0.2288 0.42984 0.0
O210 O 0.98212 0.41781 0.41302 0.0
Cd211 Cd 0.97255 0.41015 0.3568 0.0
Cd212 Cd 0.00222 0.40421 0.35727 0.0
O213 O 0.01232 0.42293 0.4051 0.0
O214 O 0.95549 0.4217 0.34691 0.0
O215 O 0.98359 0.43116 0.31551 0.0
C216 C 0.96849 0.43328 0.32204 0.0
C217 C 0.01755 0.40361 0.2989 0.0
C218 C -0.00076 0.42346 0.42651 0.0
C219 C 0.96105 0.36972 0.36501 0.0
O220 O 0.97924 0.37712 0.37313 0.0
O221 O 0.95486 0.38022 0.34944 0.0
O222 O 0.02268 0.39947 0.33145 0.0
O223 O 0.00507 0.40984 0.30002 0.0
O224 O 0.58617 0.57731 0.39847 0.0
Cd225 Cd 0.58151 0.56836 0.34174 0.0
Cd226 Cd 0.6042 0.61123 0.33515 0.0
O227 O 0.59736 0.6094 0.39446 0.0
O228 O 0.56507 0.53936 0.35004 0.0
O229 O 0.5544 0.55571 0.31597 0.0
C230 C 0.55118 0.53914 0.3301 0.0
C231 C 0.60878 0.63802 0.29521 0.0
C232 C 0.59209 0.59388 0.4146 0.0
C233 C 0.6228 0.58535 0.31788 0.0
O234 O 0.62429 0.60201 0.32448 0.0
O235 O 0.6061 0.56964 0.31824 0.0
O236 O 0.62011 0.6405 0.32407 0.0
O237 O 0.59414 0.62041 0.28966 0.0
O238 O 0.42066 -3e-05 0.3945 0.0
Cd239 Cd 0.42344 0.00764 0.33674 0.0
Cd240 Cd 0.38632 0.98108 0.33984 0.0
O241 O 0.39341 0.97105 0.38958 0.0
O242 O 0.4522 0.0214 0.32562 0.0
O243 O 0.43078 0.99324 0.2978 0.0
C244 C 0.44888 0.00714 0.30261 0.0
C245 C 0.36524 0.96271 0.28861 0.0
C246 C 0.40775 0.98381 0.40986 0.0
C247 C 0.39878 0.02417 0.34137 0.0
O248 O 0.38623 0.00666 0.3515 0.0
O249 O 0.41499 0.02797 0.32564 0.0
O250 O 0.35856 0.96161 0.32327 0.0
O251 O 0.38417 0.97313 0.28345 0.0
O252 O 0.57385 0.005 0.37184 0.0
Cd253 Cd 0.57709 0.01087 0.3132 0.0
Cd254 Cd 0.58332 0.98085 0.31676 0.0
O255 O 0.56834 0.97454 0.37037 0.0
O256 O 0.56663 0.02906 0.30716 0.0
O257 O 0.55262 -0.0004 0.28003 0.0
C258 C 0.5524 0.01565 0.28709 0.0
C259 C 0.58036 0.9616 0.2615 0.0
C260 C 0.56919 0.98898 0.3893 0.0
C261 C 0.61764 0.02237 0.30953 0.0
O262 O 0.61105 0.00498 0.32223 0.0
O263 O 0.606 0.02756 0.29568 0.0
O264 O 0.58746 0.95941 0.29358 0.0
O265 O 0.5732 0.97332 0.26198 0.0
O266 O 0.96236 0.55427 0.39424 0.0
Cd267 Cd 0.95414 0.55098 0.33687 0.0
Cd268 Cd 0.98439 0.58735 0.33735 0.0
O269 O -0.00689 0.57844 0.38659 0.0
O270 O 0.93668 0.52205 0.33126 0.0
O271 O 0.96544 0.53886 0.30092 0.0
C272 C 0.95007 0.52205 0.30941 0.0
C273 C 0.00425 0.60826 0.28668 0.0
C274 C 0.97948 0.56541 0.40808 0.0
C275 C 0.94268 0.57985 0.33811 0.0
O276 O 0.96047 0.59062 0.34893 0.0
O277 O 0.93697 0.56308 0.32317 0.0
O278 O 0.00597 0.61454 0.32172 0.0
O279 O -0.00762 0.58966 0.28075 0.0
O280 O 0.4144 0.38904 0.38034 0.0
Cd281 Cd 0.42874 0.39839 0.32796 0.0
Cd282 Cd 0.38674 0.37476 0.30626 0.0
O283 O 0.38249 0.3736 0.36617 0.0
O284 O 0.45641 0.41463 0.34662 0.0
O285 O 0.44255 0.42714 0.31006 0.0
C286 C 0.45781 0.42966 0.32893 0.0
C287 C 0.36241 0.37267 0.26303 0.0
C288 C 0.39636 0.37939 0.39086 0.0
C289 C 0.4166 0.36093 0.28726 0.0
O290 O 0.39929 0.35857 0.28746 0.0
O291 O 0.43116 0.3766 0.3003 0.0
O292 O 0.35955 0.35798 0.28416 0.0
O293 O 0.37872 0.38913 0.2678 0.0
O294 O 0.28471 0.22967 0.3006 0.0
Cd295 Cd 0.30514 0.22824 0.33506 0.0
Cd296 Cd 0.31249 0.26221 0.35966 0.0
O297 O 0.30059 0.2619 0.30577 0.0
O298 O 0.29882 0.20058 0.32823 0.0
O299 O 0.30055 0.21382 0.38571 0.0
C300 C 0.29787 0.19889 0.3653 0.0
C301 C 0.3001 0.26685 0.41795 0.0
C302 C 0.28886 0.24639 0.28724 0.0
C303 C 0.3467 0.26137 0.32934 0.0
O304 O 0.34171 0.26967 0.35505 0.0
O305 O 0.33371 0.24519 0.31454 0.0
O306 O 0.30959 0.28123 0.39393 0.0
O307 O 0.29732 0.24967 0.40872 0.0
O308 O 0.75687 0.0524 0.27257 0.0
Cd309 Cd 0.76149 0.06337 0.3279 0.0
Cd310 Cd 0.73453 0.02285 0.34345 0.0
O311 O 0.73533 0.02069 0.28238 0.0
O312 O 0.78077 0.09159 0.31746 0.0
O313 O 0.78749 0.07383 0.35696 0.0
C314 C 0.79291 0.09064 0.34093 0.0
C315 C 0.73685 0.00414 0.39455 0.0
C316 C 0.74525 0.03525 0.25946 0.0
C317 C 0.72194 0.05264 0.36055 0.0
O318 O 0.71779 0.03479 0.36033 0.0
O319 O 0.73862 0.06641 0.34902 0.0
O320 O 0.72209 -0.00352 0.37099 0.0
O321 O 0.75132 0.02164 0.38649 0.0
O322 O 0.92488 0.69416 0.29221 0.0
Cd323 Cd 0.90979 0.68739 0.34373 0.0
Cd324 Cd 0.94901 0.70203 0.37054 0.0
O325 O 0.95587 0.70651 0.31118 0.0
O326 O 0.88309 0.67836 0.32273 0.0
O327 O 0.89671 0.70216 0.36579 0.0
C328 C 0.88188 0.69115 0.34394 0.0
C329 C 0.96743 0.72315 0.42163 0.0
C330 C 0.94306 0.70121 0.28437 0.0
C331 C 0.91831 0.65895 0.38349 0.0
O332 O 0.93603 0.673 0.38678 0.0
O333 O 0.90524 0.66158 0.36774 0.0
O334 O 0.97469 0.7151 0.39953 0.0
O335 O 0.95022 0.72053 0.41298 0.0
O336 O 0.4004 0.97364 0.65514 0.0
Cd337 Cd 0.39419 0.96514 0.71214 0.0
Cd338 Cd 0.38871 -0.00487 0.71028 0.0
O339 O 0.40688 0.00428 0.66109 0.0
O340 O 0.40545 0.94765 0.7188 0.0
O341 O 0.41708 0.97616 0.7492 0.0
C342 C 0.41863 0.96093 0.74093 0.0
C343 C 0.38871 0.01169 0.76724 0.0
C344 C 0.40649 0.99058 0.64043 0.0
C345 C 0.3539 0.9538 0.70657 0.0
O346 O 0.36142 0.97178 0.69681 0.0
O347 O 0.36439 0.94771 0.72256 0.0
O348 O 0.38401 0.01591 0.73431 0.0
O349 O 0.39513 -0.00064 0.76715 0.0
O350 O 0.01428 0.43396 0.67134 0.0
Cd351 Cd 0.02282 0.43722 0.72855 0.0
Cd352 Cd -0.00674 0.40119 0.72839 0.0
O353 O 0.98371 0.40953 0.67946 0.0
O354 O 0.03998 0.4661 0.73476 0.0
O355 O 0.0114 0.44874 0.76555 0.0
C356 C 0.02663 0.4657 0.75733 0.0
C357 C 0.97536 0.38121 0.78162 0.0
C358 C -0.00285 0.42262 0.65771 0.0
C359 C 0.03492 0.40904 0.72545 0.0
O360 O 0.01709 0.39819 0.71493 0.0
O361 O 0.04046 0.42559 0.74121 0.0
O362 O 0.97246 0.37423 0.74695 0.0
O363 O 0.98712 0.39999 0.78574 0.0
O364 O 0.58255 0.57088 0.65166 0.0
Cd365 Cd 0.56989 0.55986 0.70464 0.0
Cd366 Cd 0.60832 0.57517 0.72044 0.0
O367 O 0.61153 0.57316 0.66026 0.0
O368 O 0.54243 0.54121 0.68926 0.0
O369 O 0.56115 0.53184 0.72002 0.0
C370 C 0.54474 0.52727 0.70302 0.0
C371 C 0.62495 0.57151 0.77327 0.0
C372 C 0.59899 0.57405 0.63809 0.0
C373 C 0.5854 0.59566 0.74497 0.0
O374 O 0.60141 0.59623 0.73558 0.0
O375 O 0.56884 0.58027 0.73934 0.0
O376 O 0.63434 0.58504 0.74758 0.0
O377 O 0.60673 0.55845 0.76617 0.0
O378 O 0.66157 0.75437 0.75673 0.0
Cd379 Cd 0.65387 0.74424 0.70131 0.0
Cd380 Cd 0.68586 0.74331 0.70744 0.0
O381 O 0.69303 0.76302 0.75352 0.0
O382 O 0.63425 0.75188 0.68603 0.0
O383 O 0.66351 0.76375 0.65768 0.0
C384 C 0.64709 0.76376 0.66124 0.0
C385 C 0.70144 0.74381 0.64881 0.0
C386 C 0.67849 0.76211 0.77234 0.0
C387 C 0.64736 0.70598 0.71811 0.0
O388 O 0.66567 0.71558 0.72604 0.0
O389 O 0.6395 0.71416 0.69942 0.0
O390 O 0.70829 0.74196 0.68154 0.0
O391 O 0.68688 0.74719 0.64977 0.0
O392 O 0.21691 0.94383 0.76333 0.0
Cd393 Cd 0.21208 0.92622 0.71614 0.0
Cd394 Cd 0.24343 0.95968 0.68615 0.0
O395 O 0.24715 0.96622 0.74576 0.0
O396 O 0.19006 0.90135 0.73716 0.0
O397 O 0.18737 0.91409 0.68253 0.0
C398 C 0.17966 0.89996 0.70751 0.0
C399 C 0.24608 0.98081 0.63499 0.0
C400 C 0.23396 0.95792 0.77199 0.0
C401 C 0.24771 0.92457 0.68914 0.0
O402 O 0.25324 0.94077 0.67173 0.0
O403 O 0.23248 0.91712 0.71066 0.0
O404 O 0.26096 0.98469 0.65667 0.0
O405 O 0.22922 0.96557 0.64377 0.0
O406 O 0.06327 0.29851 0.77373 0.0
Cd407 Cd 0.07703 0.3069 0.72078 0.0
Cd408 Cd 0.03667 0.28816 0.69857 0.0
O409 O 0.03149 0.28342 0.75854 0.0
O410 O 0.1046 0.32055 0.73965 0.0
O411 O 0.09396 0.29656 0.69701 0.0
C412 C 0.10829 0.30967 0.71748 0.0
C413 C 0.02323 0.26692 0.64545 0.0
C414 C 0.04519 0.28992 0.78379 0.0
C415 C 0.06263 0.3316 0.68332 0.0
O416 O 0.0455 0.31642 0.6823 0.0
O417 O 0.07722 0.33085 0.69696 0.0
O418 O 0.0124 0.27131 0.66682 0.0
O419 O 0.04107 0.27276 0.65687 0.0
O420 O 0.26072 0.34269 0.72295 0.0
Cd421 Cd 0.25089 0.34393 0.66884 0.0
Cd422 Cd 0.27401 0.32887 0.65315 0.0
O423 O 0.273 0.32326 0.7126 0.0
O424 O 0.22924 0.34874 0.68328 0.0
O425 O 0.2241 0.32265 0.64958 0.0
C426 C 0.21701 0.33231 0.66708 0.0
C427 C 0.27116 0.30755 0.60294 0.0
C428 C 0.2686 0.33313 0.73574 0.0
C429 C 0.28761 0.37194 0.63314 0.0
O430 O 0.29159 0.35827 0.63864 0.0
O431 O 0.27039 0.36899 0.63981 0.0
O432 O 0.28616 0.31497 0.6258 0.0
O433 O 0.257 0.31106 0.61036 0.0
O434 O 0.65456 0.89861 0.70883 0.0
Cd435 Cd 0.65162 0.89212 0.65074 0.0
Cd436 Cd 0.67913 0.92969 0.64489 0.0
O437 O 0.68265 0.92698 0.70512 0.0
O438 O 0.63797 0.86301 0.64775 0.0
O439 O 0.66813 0.88247 0.62445 0.0
C440 C 0.65352 0.86488 0.63076 0.0
C441 C 0.70057 0.94204 0.59103 0.0
C442 C 0.66873 0.91335 0.72547 0.0
C443 C 0.63738 0.9171 0.6223 0.0
O444 O 0.65419 0.93091 0.63304 0.0
O445 O 0.63324 0.8993 0.6231 0.0
O446 O 0.70109 0.95373 0.61798 0.0
O447 O 0.6898 0.92325 0.59728 0.0
O448 O 0.05346 0.74533 0.74798 0.0
Cd449 Cd 0.06354 0.7575 0.69432 0.0
Cd450 Cd 0.02408 0.73616 0.68354 0.0
O451 O 0.02148 0.73419 0.7443 0.0
O452 O 0.09141 0.77558 0.70853 0.0
O453 O 0.07273 0.78627 0.683 0.0
C454 C 0.08937 0.79012 0.69789 0.0
C455 C 0.00597 0.74185 0.63677 0.0
C456 C 0.03651 0.73714 0.76389 0.0
C457 C 0.05065 0.72204 0.64968 0.0
O458 O 0.03357 0.71823 0.6607 0.0
O459 O 0.0658 0.7386 0.65675 0.0
O460 O -0.00236 0.72651 0.65891 0.0
O461 O 0.02408 0.75513 0.64409 0.0
O462 O -0.00561 0.56903 0.65256 0.0
Cd463 Cd 0.00409 0.57681 0.70871 0.0
Cd464 Cd 0.97561 0.58425 0.70729 0.0
O465 O 0.9647 0.56526 0.66016 0.0
O466 O 0.02071 0.56484 0.7188 0.0
O467 O -0.00713 0.55612 0.7506 0.0
C468 C 0.00778 0.55369 0.7442 0.0
C469 C 0.9609 0.58532 0.76599 0.0
C470 C 0.97742 0.56396 0.63899 0.0
C471 C 0.0173 0.61757 0.69937 0.0
O472 O -0.00075 0.61086 0.69092 0.0
O473 O 0.02272 0.60659 0.71555 0.0
O474 O 0.95594 0.58988 0.7337 0.0
O475 O 0.9729 0.5785 0.76438 0.0
O476 O 0.41711 0.37502 0.62959 0.0
Cd477 Cd 0.41962 0.39614 0.66771 0.0
Cd478 Cd 0.38434 0.3681 0.69142 0.0
O479 O 0.38475 0.35888 0.63494 0.0
O480 O 0.44552 0.4182 0.65081 0.0
O481 O 0.43962 0.40805 0.71128 0.0
C482 C 0.45158 0.42033 0.68584 0.0
C483 C 0.37734 0.3483 0.74646 0.0
C484 C 0.40026 0.36323 0.61547 0.0
C485 C 0.38626 0.40455 0.66918 0.0
O486 O 0.37762 0.39027 0.69282 0.0
O487 O 0.40232 0.40807 0.65314 0.0
O488 O 0.36379 0.34496 0.72158 0.0
O489 O 0.39512 0.36254 0.73955 0.0
O490 O 0.55686 0.98845 0.63558 0.0
Cd491 Cd 0.55351 0.98112 0.69355 0.0
Cd492 Cd 0.59013 0.00899 0.69207 0.0
O493 O 0.58352 0.01791 0.63967 0.0
O494 O 0.52449 0.9652 0.70247 0.0
O495 O 0.54352 -0.00623 0.73135 0.0
C496 C 0.52608 0.97883 0.72553 0.0
C497 C 0.60501 0.0236 0.75126 0.0
C498 C 0.5697 0.00438 0.61937 0.0
C499 C 0.58039 0.96702 0.69071 0.0
O500 O 0.59235 0.98473 0.68081 0.0
O501 O 0.56382 0.96238 0.7059 0.0
O502 O 0.61521 0.02863 0.71947 0.0
O503 O 0.58606 0.012 0.74871 0.0
H504 H 0.96036 0.24032 0.07635 0.0
H505 H 0.98655 0.25369 0.96243 0.0
H506 H 0.01806 0.26012 0.98937 0.0
H507 H 0.03954 0.27354 0.04514 0.0
H508 H 0.01426 0.27143 0.15706 0.0
H509 H 0.98132 0.24812 0.13271 0.0
C510 C 0.97271 0.24366 0.05721 0.0
C511 C 0.97131 0.2468 1.01756 0.0
C512 C -0.00875 0.24976 0.07345 0.0
C513 C 0.98738 0.25128 0.99303 0.0
C514 C 0.00544 0.25521 1.0086 0.0
C515 C 0.02688 0.26699 0.06465 0.0
C516 C 0.02912 0.2743 0.10256 0.0
C517 C 0.0079 0.25622 0.04892 0.0
C518 C 0.01281 0.26598 0.12777 0.0
C519 C -0.00607 0.25303 0.11349 0.0
H520 H 0.74411 0.70421 0.07404 0.0
H521 H 0.72354 0.69966 0.9571 0.0
H522 H 0.72003 0.72862 0.96692 0.0
H523 H 0.71449 0.74878 1.01318 0.0
H524 H 0.72847 0.74867 0.13328 0.0
H525 H 0.74351 0.7285 0.1182 0.0
C526 C 0.73966 0.71013 0.05032 0.0
C527 C 0.73405 0.69998 1.01491 0.0
C528 C 0.73623 0.72577 0.05724 0.0
C529 C 0.72792 0.70736 0.98448 0.0
C530 C 0.72579 0.72379 0.99025 0.0
C531 C 0.72165 0.74501 0.03566 0.0
C532 C 0.72049 0.75003 0.07414 0.0
C533 C 0.72869 0.73223 0.02715 0.0
C534 C 0.72946 0.74504 0.10343 0.0
C535 C 0.73775 0.73329 0.09481 0.0
H536 H 0.27181 0.03336 0.06517 0.0
H537 H 0.2556 0.00914 0.95051 0.0
H538 H 0.23097 0.97723 0.97774 0.0
H539 H 0.22284 0.95494 0.0323 0.0
H540 H 0.24856 0.97798 0.1435 0.0
H541 H 0.25957 0.01152 0.12111 0.0
C542 C 0.26217 0.0213 0.04622 0.0
C543 C 0.26532 0.02342 1.00602 0.0
C544 C 0.2498 0.00262 0.06218 0.0
C545 C 0.25325 0.00772 0.98152 0.0
C546 C 0.23934 0.98949 0.99718 0.0
C547 C 0.22985 0.96728 0.0522 0.0
C548 C 0.23502 0.96418 0.08933 0.0
C549 C 0.23863 0.98646 0.03735 0.0
C550 C 0.24435 0.98011 0.1149 0.0
C551 C 0.25104 -0.00072 0.10171 0.0
H552 H 0.03245 0.75247 0.99067 0.0
H553 H 0.00731 0.74294 0.10531 0.0
H554 H 0.9755 0.73545 0.07809 0.0
H555 H 0.95351 0.72078 1.02324 0.0
H556 H 0.97765 0.72015 0.91152 0.0
H557 H 0.01103 0.74312 0.93467 0.0
C558 C 0.02026 0.74972 1.00979 0.0
C559 C 0.02207 0.74804 0.04991 0.0
C560 C 0.0016 0.74316 0.99374 0.0
C561 C 0.00618 0.74426 0.07438 0.0
C562 C 0.98795 0.73973 0.0587 0.0
C563 C 0.96605 0.72664 1.00347 0.0
C564 C 0.96334 0.71888 0.96588 0.0
C565 C 0.98517 0.73753 1.0185 0.0
C566 C 0.97952 0.72608 0.94048 0.0
C567 C -0.00141 0.73888 0.95404 0.0
H568 H 0.24361 0.2517 0.91297 0.0
H569 H 0.23187 0.22085 1.02146 0.0
H570 H 0.21409 0.23693 0.04488 0.0
H571 H 0.21279 0.26769 0.0412 0.0
H572 H 0.2233 0.29749 0.9314 0.0
H573 H 0.22987 0.27342 0.90133 0.0
C574 C 0.23603 0.24758 0.94071 0.0
C575 C 0.23943 0.23565 0.96591 0.0
C576 C 0.22607 0.2571 0.95418 0.0
C577 C 0.2295 0.23016 1.00169 0.0
C578 C 0.2196 0.23962 1.01538 0.0
C579 C 0.21546 0.26826 1.01028 0.0
C580 C 0.21845 0.28479 0.98904 0.0
C581 C 0.21938 0.25438 0.99303 0.0
C582 C 0.22136 0.28514 0.94875 0.0
C583 C 0.22535 0.27146 0.93145 0.0
H584 H 0.67633 0.97897 0.96329 0.0
H585 H 0.71119 0.98638 0.06479 0.0
H586 H 0.73684 0.01892 0.04113 0.0
H587 H 0.74805 0.04571 0.99312 0.0
H588 H 0.71249 0.03792 0.89267 0.0
H589 H 0.68858 0.00431 0.9135 0.0
C590 C 0.68946 0.98777 0.98049 0.0
C591 C 0.69173 0.98063 1.01618 0.0
C592 C 0.70411 0.00602 0.96638 0.0
C593 C 0.70908 0.99182 0.03752 0.0
C594 C 0.72373 0.01028 0.02388 0.0
C595 C 0.73527 0.03644 0.97543 0.0
C596 C 0.73177 0.0441 0.9416 0.0
C597 C 0.72129 0.01754 0.98845 0.0
C598 C 0.71531 0.03213 0.91878 0.0
C599 C 0.7016 0.0131 0.93092 0.0
H600 H 0.70884 0.62203 0.35695 0.0
H601 H 0.68129 0.61159 0.46921 0.0
H602 H 0.65031 0.58516 0.44252 0.0
H603 H 0.62938 0.57472 0.38548 0.0
H604 H 0.6555 0.59519 0.27296 0.0
H605 H 0.68852 0.60748 0.30003 0.0
C606 C 0.69631 0.61313 0.37585 0.0
C607 C 0.69717 0.61858 0.41487 0.0
C608 C 0.678 0.60015 0.35924 0.0
C609 C 0.6809 0.60744 0.4392 0.0
C610 C 0.66312 0.59263 0.42367 0.0
C611 C 0.64233 0.58095 0.36673 0.0
C612 C 0.64024 0.58399 0.32742 0.0
C613 C 0.66114 0.59019 0.38335 0.0
C614 C 0.6569 0.59253 0.30319 0.0
C615 C 0.67574 0.59982 0.31888 0.0
H616 H 0.38535 0.02729 0.41009 0.0
H617 H 0.40464 0.05644 0.29972 0.0
H618 H 0.39144 0.07807 0.31656 0.0
H619 H 0.36745 0.08225 0.35583 0.0
H620 H 0.34483 0.04943 0.46174 0.0
H621 H 0.36717 0.03634 0.45493 0.0
C622 C 0.38699 0.03868 0.39009 0.0
C623 C 0.39524 0.04002 0.35334 0.0
C624 C 0.37894 0.05047 0.39958 0.0
C625 C 0.39796 0.05507 0.32792 0.0
C626 C 0.39041 0.06735 0.33757 0.0
C627 C 0.36829 0.07309 0.37837 0.0
C628 C 0.35469 0.0667 0.40921 0.0
C629 C 0.37991 0.06438 0.37242 0.0
C630 C 0.3554 0.05457 0.43804 0.0
C631 C 0.36787 0.04683 0.43371 0.0
H632 H 0.91067 0.27851 0.37711 0.0
H633 H 0.9483 0.29107 0.47614 0.0
H634 H 0.95835 0.32596 0.47207 0.0
H635 H 0.96293 0.35299 0.43053 0.0
H636 H 0.92847 0.3412 0.3269 0.0
H637 H 0.91052 0.3058 0.34224 0.0
C638 C 0.92026 0.2888 0.39891 0.0
C639 C 0.92884 0.28248 0.42684 0.0
C640 C 0.92709 0.30898 0.39446 0.0
C641 C 0.94151 0.29578 0.45463 0.0
C642 C 0.94749 0.31571 0.45185 0.0
C643 C 0.95121 0.34266 0.4117 0.0
C644 C 0.94734 0.34936 0.3771 0.0
C645 C 0.94147 0.32255 0.42026 0.0
C646 C 0.93182 0.33615 0.35338 0.0
C647 C 0.92163 0.31599 0.36215 0.0
H648 H 0.63555 0.0281 0.37693 0.0
H649 H 0.64563 0.04878 0.25914 0.0
H650 H 0.68155 0.06632 0.26983 0.0
H651 H 0.70898 0.06828 0.308 0.0
H652 H 0.69761 0.04326 0.42253 0.0
H653 H 0.6633 0.03564 0.41892 0.0
C654 C 0.64568 0.0369 0.35396 0.0
C655 C 0.63833 0.03689 0.31712 0.0
C656 C 0.66601 0.04617 0.36004 0.0
C657 C 0.65123 0.04853 0.28757 0.0
C658 C 0.67167 0.05843 0.29371 0.0
C659 C 0.69917 0.06208 0.33278 0.0
C660 C 0.70552 0.05625 0.36547 0.0
C661 C 0.67917 0.05637 0.32917 0.0
C662 C 0.69284 0.04789 0.39729 0.0
C663 C 0.67323 0.0433 0.39495 0.0
H664 H 0.90054 0.6284 0.33461 0.0
H665 H 0.92895 0.64557 0.44565 0.0
H666 H 0.93477 0.61779 0.44454 0.0
H667 H 0.9396 0.59497 0.40464 0.0
H668 H 0.91522 0.58038 0.29002 0.0
H669 H 0.89968 0.60058 0.29962 0.0
C670 C 0.90716 0.62543 0.35927 0.0
C671 C 0.91448 0.63892 0.39007 0.0
C672 C 0.91168 0.61029 0.35707 0.0
C673 C 0.92328 0.63528 0.42174 0.0
C674 C 0.92679 0.61957 0.42085 0.0
C675 C 0.9304 0.59582 0.38222 0.0
C676 C 0.92882 0.58677 0.34643 0.0
C677 C 0.92232 0.60795 0.3875 0.0
C678 C 0.91667 0.58747 0.31766 0.0
C679 C 0.90794 0.5991 0.32312 0.0
H680 H 0.40084 0.33189 0.23336 0.0
H681 H 0.43357 0.34879 0.33972 0.0
H682 H 0.41597 0.31471 0.36184 0.0
H683 H 0.38345 0.28391 0.3596 0.0
H684 H 0.35137 0.26673 0.25234 0.0
H685 H 0.37672 0.29688 0.22149 0.0
C686 C 0.40505 0.32787 0.26016 0.0
C687 C 0.41769 0.34279 0.28568 0.0
C688 C 0.39443 0.30827 0.27316 0.0
C689 C 0.42351 0.33752 0.31989 0.0
C690 C 0.41313 0.31803 0.33299 0.0
C691 C 0.38263 0.28632 0.32895 0.0
C692 C 0.36542 0.27356 0.30852 0.0
C693 C 0.39727 0.30376 0.31135 0.0
C694 C 0.36448 0.27653 0.2687 0.0
C695 C 0.37889 0.29388 0.25109 0.0
H696 H 0.2733 0.92665 0.63447 0.0
H697 H 0.25447 0.90787 0.75176 0.0
H698 H 0.2864 0.91102 0.7664 0.0
H699 H 0.32218 0.92841 0.75038 0.0
H700 H 0.3409 0.94927 0.63399 0.0
H701 H 0.30666 0.93568 0.61411 0.0
C702 C 0.27594 0.92242 0.6627 0.0
C703 C 0.26195 0.91766 0.69226 0.0
C704 C 0.29456 0.9251 0.6713 0.0
C705 C 0.2652 0.91181 0.72859 0.0
C706 C 0.28358 0.91388 0.73716 0.0
C707 C 0.31857 0.92919 0.72044 0.0
C708 C 0.33377 0.94009 0.69377 0.0
C709 C 0.29883 0.92196 0.70954 0.0
C710 C 0.32922 0.94114 0.65497 0.0
C711 C 0.3097 0.93344 0.64363 0.0
H712 H 0.03605 0.39178 0.66028 0.0
H713 H 0.06476 0.4114 0.77052 0.0
H714 H 0.08122 0.39206 0.76088 0.0
H715 H 0.08047 0.36374 0.72828 0.0
H716 H 0.04769 0.3414 0.62256 0.0
H717 H 0.04025 0.36811 0.6222 0.0
C718 C 0.0463 0.39215 0.68174 0.0
C719 C 0.04888 0.40237 0.71647 0.0
C720 C 0.05487 0.38046 0.67665 0.0
C721 C 0.06248 0.40334 0.74379 0.0
C722 C 0.07174 0.39221 0.73834 0.0
C723 C 0.07243 0.3653 0.70439 0.0
C724 C 0.06443 0.35072 0.67563 0.0
C725 C 0.06709 0.37985 0.70591 0.0
C726 C 0.05385 0.35254 0.64495 0.0
C727 C 0.04947 0.36765 0.64498 0.0
H728 H 0.60885 0.67907 0.702 0.0
H729 H 0.6582 0.68887 0.77321 0.0
H730 H 0.63909 0.65581 0.79951 0.0
H731 H 0.61133 0.62265 0.79282 0.0
H732 H 0.56374 0.611 0.71562 0.0
H733 H 0.57834 0.64638 0.7033 0.0
C734 C 0.61532 0.67397 0.72346 0.0
C735 C 0.63511 0.68614 0.73462 0.0
C736 C 0.60435 0.6547 0.73804 0.0
C737 C 0.6432 0.67956 0.76312 0.0
C738 C 0.63222 0.66073 0.77861 0.0
C739 C 0.60374 0.62802 0.77472 0.0
C740 C 0.58688 0.6145 0.75446 0.0
C741 C 0.61313 0.64797 0.76511 0.0
C742 C 0.57684 0.62131 0.73143 0.0
C743 C 0.58547 0.64147 0.72363 0.0
H744 H 0.36343 0.41713 0.70443 0.0
H745 H 0.3819 0.40759 0.5928 0.0
H746 H 0.35143 0.4026 0.56408 0.0
H747 H 0.31596 0.38886 0.57783 0.0
H748 H 0.29767 0.39923 0.68861 0.0
H749 H 0.33187 0.41706 0.71013 0.0
C750 C 0.36124 0.41512 0.67345 0.0
C751 C 0.37437 0.41198 0.65098 0.0
C752 C 0.34358 0.41213 0.6571 0.0
C753 C 0.37176 0.40976 0.61075 0.0
C754 C 0.35421 0.4067 0.59431 0.0
C755 C 0.31966 0.39631 0.60557 0.0
C756 C 0.3045 0.39207 0.6323 0.0
C757 C 0.33935 0.40605 0.61805 0.0
C758 C 0.30924 0.40205 0.66785 0.0
C759 C 0.3288 0.4119 0.68051 0.0
H760 H 0.60533 0.90364 0.6671 0.0
H761 H 0.63589 0.94215 0.57095 0.0
H762 H 0.61758 0.95945 0.58115 0.0
H763 H 0.59881 0.96781 0.62544 0.0
H764 H 0.57084 0.93199 0.72626 0.0
H765 H 0.58223 0.90922 0.70654 0.0
C766 C 0.60722 0.91525 0.64744 0.0
C767 C 0.62169 0.92172 0.61824 0.0
C768 C 0.59772 0.92595 0.65533 0.0
C769 C 0.62459 0.93698 0.59328 0.0
C770 C 0.61438 0.94699 0.59951 0.0
C771 C 0.59511 0.95494 0.64301 0.0
C772 C 0.58472 0.95182 0.6779 0.0
C773 C 0.60192 0.94235 0.63185 0.0
C774 C 0.57925 0.93477 0.69971 0.0
C775 C 0.58571 0.92182 0.68838 0.0
H776 H 0.07049 0.70834 0.68872 0.0
H777 H 0.03368 0.69751 0.58907 0.0
H778 H 0.02279 0.66241 0.59198 0.0
H779 H 0.01675 0.63484 0.63349 0.0
H780 H 0.05025 0.64502 0.73799 0.0
H781 H 0.06954 0.6804 0.723 0.0
C782 C 0.06096 0.69838 0.66645 0.0
C783 C 0.05275 0.70523 0.63881 0.0
C784 C 0.05354 0.67807 0.6704 0.0
C785 C 0.04018 0.69238 0.61036 0.0
C786 C 0.03369 0.67231 0.61254 0.0
C787 C 0.02856 0.6448 0.65256 0.0
C788 C 0.03176 0.63771 0.68736 0.0
C789 C 0.03908 0.66494 0.64419 0.0
C790 C 0.04741 0.65041 0.71138 0.0
C791 C 0.05837 0.67057 0.7028 0.0
H792 H 0.20015 0.35669 0.08689 0.0
H793 H 0.19887 0.368 0.96511 0.0
H794 H 0.16715 0.36628 0.97338 0.0
H795 H 0.13747 0.35627 1.0128 0.0
H796 H 0.13777 0.34427 0.13405 0.0
H797 H 0.17221 0.35176 0.12872 0.0
C798 C 0.19317 0.3593 0.06241 0.0
C799 C 0.20173 0.36213 0.02532 0.0
C800 C 0.17464 0.35794 0.06722 0.0
C801 C 0.19251 0.36553 0.99389 0.0
C802 C 0.17431 0.36449 0.99852 0.0
C803 C 0.14536 0.35591 0.03821 0.0
C804 C 0.13537 0.34987 0.07372 0.0
C805 C 0.16489 0.35991 0.03468 0.0
C806 C 0.14542 0.34915 0.10654 0.0
C807 C 0.165 0.35326 0.10337 0.0
H808 H 0.65916 0.81417 0.11125 0.0
H809 H 0.72174 0.84684 0.08589 0.0
H810 H 0.72047 0.87707 0.07892 0.0
H811 H 0.70094 0.89323 0.07128 0.0
H812 H 0.6382 0.86084 0.09455 0.0
H813 H 0.64021 0.83163 0.11155 0.0
C814 C 0.6726 0.828 0.10517 0.0
C815 C 0.69048 0.82819 0.09868 0.0
C816 C 0.67169 0.84535 0.10027 0.0
C817 C 0.70775 0.84623 0.09069 0.0
C818 C 0.70703 0.86354 0.08653 0.0
C819 C 0.68774 0.87987 0.08063 0.0
C820 C 0.66941 0.87913 0.08109 0.0
C821 C 0.68897 0.86311 0.08981 0.0
C822 C 0.65249 0.86179 0.09377 0.0
C823 C 0.65362 0.84504 0.10333 0.0
H824 H 0.12217 0.80369 1.0028 0.0
H825 H 0.13608 0.78036 0.10295 0.0
H826 H 0.16751 0.81153 0.11001 0.0
H827 H 0.19047 0.84616 0.08859 0.0
H828 H 0.17445 0.86875 0.99001 0.0
H829 H 0.1445 0.83708 0.98141 0.0
C830 C 0.13207 0.80528 0.02614 0.0
C831 C 0.12676 0.78969 0.05231 0.0
C832 C 0.14978 0.82319 0.03032 0.0
C833 C 0.1398 0.79214 0.08241 0.0
C834 C 0.15777 0.80997 0.08645 0.0
C835 C 0.18045 0.84401 0.06512 0.0
C836 C 0.18465 0.85981 0.04004 0.0
C837 C 0.16285 0.8257 0.06071 0.0
C838 C 0.1715 0.85691 1.0099 0.0
C839 C 0.15436 0.83878 1.00488 0.0
H840 H 0.31449 0.18763 0.95087 0.0
H841 H 0.26403 0.15925 0.02794 0.0
H842 H 0.26879 0.13119 0.03463 0.0
H843 H 0.28767 0.11514 1.02131 0.0
H844 H 0.33766 0.14179 0.94344 0.0
H845 H 0.33263 0.17003 0.93413 0.0
C846 C 0.30448 0.17522 0.96885 0.0
C847 C 0.289 0.17566 0.98904 0.0
C848 C 0.30724 0.15887 0.9726 0.0
C849 C 0.2761 0.15942 1.01211 0.0
C850 C 0.27881 0.14332 1.01608 0.0
C851 C 0.29752 0.12712 1.00226 0.0
C852 C 0.31316 0.12654 0.98349 0.0
C853 C 0.29443 0.14301 0.99692 0.0
C854 C 0.32554 0.14197 0.95833 0.0
C855 C 0.32268 0.15811 0.9531 0.0
H856 H 0.87098 0.19039 0.05577 0.0
H857 H 0.85784 0.22031 0.96639 0.0
H858 H 0.82564 0.19047 0.95598 0.0
H859 H 0.80177 0.15537 0.97117 0.0
H860 H 0.81666 0.1258 0.05845 0.0
H861 H 0.84764 0.15615 0.071 0.0
C862 C 0.86108 0.1905 0.03409 0.0
C863 C 0.86678 0.20755 1.01191 0.0
C864 C 0.8429 0.17334 0.02793 0.0
C865 C 0.85379 0.20734 0.98381 0.0
C866 C 0.83539 0.1903 0.97789 0.0
C867 C 0.81176 0.15568 0.99314 0.0
C868 C 0.80696 0.1384 1.01388 0.0
C869 C 0.82985 0.17315 0.99963 0.0
C870 C 0.82008 0.1389 0.04199 0.0
C871 C 0.83779 0.15623 0.04921 0.0
H872 H 0.84183 0.64077 0.97488 0.0
H873 H 0.86948 0.69032 0.05306 0.0
H874 H 0.8377 0.68729 0.06714 0.0
H875 H 0.80243 0.67119 0.05752 0.0
H876 H 0.77356 0.62243 0.97824 0.0
H877 H 0.80541 0.62452 0.96437 0.0
C878 C 0.84082 0.65086 0.99494 0.0
C879 C 0.85806 0.66577 1.01279 0.0
C880 C 0.82233 0.6492 1.00278 0.0
C881 C 0.85654 0.67879 0.03867 0.0
C882 C 0.83834 0.67706 0.0469 0.0
C883 C 0.80298 0.6609 0.03728 0.0
C884 C 0.78563 0.64661 1.01911 0.0
C885 C 0.8212 0.66239 0.02914 0.0
C886 C 0.78673 0.63356 0.99269 0.0
C887 C 0.80493 0.63477 0.98475 0.0
H888 H 0.79633 0.67697 0.32487 0.0
H889 H 0.80943 0.70714 0.4343 0.0
H890 H 0.84367 0.71381 0.43011 0.0
H891 H 0.86866 0.70772 0.39779 0.0
H892 H 0.85398 0.67687 0.28862 0.0
H893 H 0.82161 0.67397 0.29009 0.0
C894 C 0.80673 0.68517 0.34769 0.0
C895 C 0.8004 0.69128 0.38011 0.0
C896 C 0.82606 0.68872 0.34516 0.0
C897 C 0.81404 0.70224 0.40911 0.0
C898 C 0.83354 0.70594 0.40677 0.0
C899 C 0.85846 0.70066 0.37413 0.0
C900 C 0.8636 0.69224 0.34345 0.0
C901 C 0.83957 0.69878 0.37533 0.0
C902 C 0.85028 0.68319 0.31286 0.0
C903 C 0.83175 0.68152 0.31361 0.0
H904 H 0.27253 0.16113 0.34556 0.0
H905 H 0.32001 0.19718 0.42338 0.0
H906 H 0.32387 0.16891 0.43929 0.0
H907 H 0.31753 0.13572 0.42159 0.0
H908 H 0.26889 0.09916 0.34655 0.0
H909 H 0.26134 0.12573 0.33932 0.0
C910 C 0.28327 0.16255 0.36693 0.0
C911 C 0.29614 0.1811 0.38302 0.0
C912 C 0.28531 0.14626 0.37597 0.0
C913 C 0.30993 0.18294 0.41083 0.0
C914 C 0.31226 0.16685 0.4196 0.0
C915 C 0.30491 0.13345 0.4047 0.0
C916 C 0.29385 0.11576 0.3843 0.0
C917 C 0.30061 0.1487 0.401 0.0
C918 C 0.27749 0.11273 0.36256 0.0
C919 C 0.2733 0.12795 0.35819 0.0
H920 H 0.80446 0.12755 0.31756 0.0
H921 H 0.82414 0.09422 0.38395 0.0
H922 H 0.85534 0.12466 0.39792 0.0
H923 H 0.87692 0.16106 0.39103 0.0
H924 H 0.85556 0.19329 0.32528 0.0
H925 H 0.82513 0.16292 0.31144 0.0
C926 C 0.81555 0.12683 0.33502 0.0
C927 C 0.812 0.10862 0.34954 0.0
C928 C 0.83317 0.14425 0.34315 0.0
C929 C 0.82653 0.10807 0.37235 0.0
C930 C 0.84435 0.12547 0.38035 0.0
C931 C 0.86558 0.16138 0.37374 0.0
C932 C 0.86858 0.17948 0.35928 0.0
C933 C 0.84783 0.1437 0.36591 0.0
C934 C 0.8537 0.17965 0.33695 0.0
C935 C 0.83625 0.16226 0.32888 0.0
H936 H 0.93583 0.43663 0.31763 0.0
H937 H -0.00192 0.46729 0.28967 0.0
H938 H -0.00285 0.49743 0.27642 0.0
H939 H 0.9798 0.51623 0.28381 0.0
H940 H 0.91775 0.48533 0.31402 0.0
H941 H 0.91738 0.45411 0.3146 0.0
C942 C 0.94911 0.4498 0.30785 0.0
C943 C 0.96707 0.44985 0.30533 0.0
C944 C 0.94854 0.46711 0.30102 0.0
C945 C 0.98409 0.4669 0.29204 0.0
C946 C 0.98359 0.48419 0.2847 0.0
C947 C 0.96608 0.5026 0.28942 0.0
C948 C 0.94892 0.50315 0.29955 0.0
C949 C 0.96607 0.48467 0.29069 0.0
C950 C 0.93124 0.48535 0.30666 0.0
C951 C 0.93102 0.46747 0.30716 0.0
H952 H 0.54206 0.50337 0.35717 0.0
H953 H 0.51784 0.5327 0.29091 0.0
H954 H 0.48664 0.50132 0.28397 0.0
H955 H 0.46614 0.46536 0.29787 0.0
H956 H 0.49154 0.43725 0.36487 0.0
H957 H 0.52232 0.46837 0.3703 0.0
C958 C 0.53001 0.50299 0.3411 0.0
C959 C 0.5323 0.52038 0.32462 0.0
C960 C 0.51226 0.48506 0.33741 0.0
C961 C 0.51648 0.51952 0.3039 0.0
C962 C 0.49863 0.50158 0.29996 0.0
C963 C 0.47844 0.46609 0.31355 0.0
C964 C 0.47645 0.44893 0.33095 0.0
C965 C 0.49633 0.48422 0.31675 0.0
C966 C 0.49255 0.45014 0.35121 0.0
C967 C 0.51024 0.46797 0.35438 0.0
H968 H 0.4861 0.03728 0.29177 0.0
H969 H 0.4494 0.97443 0.27665 0.0
H970 H 0.4788 0.97183 0.26358 0.0
H971 H 0.51511 0.98684 0.26769 0.0
H972 H 0.5513 0.04964 0.28538 0.0
H973 H 0.52196 0.05289 0.2855 0.0
C974 C 0.4845 0.02306 0.28484 0.0
C975 C 0.4657 0.00603 0.28588 0.0
C976 C 0.50142 0.02166 0.27816 0.0
C977 C 0.46377 0.98775 0.27621 0.0
C978 C 0.48059 0.98625 0.269 0.0
C979 C 0.51659 0.00129 0.27047 0.0
C980 C 0.53531 0.01792 0.27721 0.0
C981 C 0.49954 0.00301 0.27153 0.0
C982 C 0.53702 0.03656 0.2807 0.0
C983 C 0.52025 0.03845 0.28091 0.0
H984 H 0.48978 0.94654 0.73271 0.0
H985 H 0.52205 0.00918 0.75407 0.0
H986 H 0.49103 0.00857 0.76795 0.0
H987 H 0.45461 0.99106 0.76331 0.0
H988 H 0.42277 0.92859 0.73948 0.0
H989 H 0.45372 0.92822 0.73815 0.0
C990 C 0.49005 0.96 0.74108 0.0
C991 C 0.50811 0.97793 0.74165 0.0
C992 C 0.4722 0.95957 0.74839 0.0
C993 C 0.5083 -0.0048 0.7532 0.0
C994 C 0.49056 -0.00513 0.76094 0.0
C995 C 0.45441 0.97727 0.759 0.0
C996 C 0.43645 0.95993 0.75092 0.0
C997 C 0.47237 0.97727 0.75713 0.0
C998 C 0.43642 0.94218 0.74534 0.0
C999 C 0.45413 0.94197 0.74436 0.0
H1000 H -0.00346 0.47098 0.78253 0.0
H1001 H 0.05897 0.50245 0.75552 0.0
H1002 H 0.05918 0.53359 0.75564 0.0
H1003 H 0.04054 0.55081 0.75134 0.0
H1004 H 0.97791 0.5196 0.77565 0.0
H1005 H 0.97891 0.48953 0.78939 0.0
C1006 C 0.0103 0.48472 0.77785 0.0
C1007 C 0.02763 0.48438 0.76828 0.0
C1008 C 0.01021 0.50259 0.77684 0.0
C1009 C 0.04536 0.50229 0.76239 0.0
C1010 C 0.04549 0.52011 0.76228 0.0
C1011 C 0.02719 0.53754 0.76048 0.0
C1012 C 0.00912 0.53727 0.76173 0.0
C1013 C 0.02782 0.52029 0.76752 0.0
C1014 C -0.00801 0.52011 0.77426 0.0
C1015 C -0.00746 0.50288 0.78185 0.0
H1016 H 0.52548 0.49646 0.75364 0.0
H1017 H 0.5308 0.51266 0.63324 0.0
H1018 H 0.50406 0.47976 0.61685 0.0
H1019 H 0.47747 0.44789 0.63698 0.0
H1020 H 0.46892 0.43163 0.75764 0.0
H1021 H 0.49879 0.4629 0.77383 0.0
C1022 C 0.52085 0.49255 0.72389 0.0
C1023 C 0.52989 0.50677 0.69457 0.0
C1024 C 0.50489 0.47372 0.71483 0.0
C1025 C 0.52384 0.50184 0.65613 0.0
C1026 C 0.50861 0.48308 0.64677 0.0
C1027 C 0.48219 0.45099 0.66687 0.0
C1028 C 0.47091 0.43753 0.6961 0.0
C1029 C 0.49875 0.46911 0.67595 0.0
C1030 C 0.47735 0.44181 0.7346 0.0
C1031 C 0.49435 0.45971 0.74386 0.0
H1032 H 0.62365 0.82708 0.62991 0.0
H1033 H 0.68674 0.86309 0.61307 0.0
H1034 H 0.68979 0.83357 0.61328 0.0
H1035 H 0.67522 0.79846 0.63006 0.0
H1036 H 0.61238 0.76316 0.65113 0.0
H1037 H 0.60846 0.7914 0.63659 0.0
C1038 C 0.63803 0.82845 0.62558 0.0
C1039 C 0.65499 0.84722 0.62237 0.0
C1040 C 0.63972 0.81153 0.62674 0.0
C1041 C 0.67348 0.84878 0.616 0.0
C1042 C 0.67524 0.83192 0.6163 0.0
C1043 C 0.6606 0.79681 0.63033 0.0
C1044 C 0.64415 0.77888 0.64227 0.0
C1045 C 0.65857 0.81332 0.62337 0.0
C1046 C 0.62529 0.77691 0.64248 0.0
C1047 C 0.62306 0.79307 0.63436 0.0
H1048 H 0.10065 0.8237 0.65529 0.0
H1049 H 0.11373 0.80172 0.75861 0.0
H1050 H 0.14145 0.83433 0.77245 0.0
H1051 H 0.16315 0.86815 0.75364 0.0
H1052 H 0.15298 0.89085 0.6481 0.0
H1053 H 0.12281 0.85899 0.63681 0.0
C1054 C 0.10954 0.82622 0.68089 0.0
C1055 C 0.10531 0.81038 0.70578 0.0
C1056 C 0.12595 0.84504 0.68821 0.0
C1057 C 0.1169 0.81366 0.73881 0.0
C1058 C 0.1327 0.83231 0.74684 0.0
C1059 C 0.1543 0.8663 0.72825 0.0
C1060 C 0.16034 0.88183 0.70169 0.0
C1061 C 0.13754 0.84797 0.72145 0.0
C1062 C 0.14864 0.87909 0.669 0.0
C1063 C 0.13145 0.86087 0.66249 0.0
H1064 H 0.19938 0.34149 0.72299 0.0
H1065 H 0.18664 0.30537 0.62125 0.0
H1066 H 0.15119 0.29389 0.62894 0.0
H1067 H 0.12413 0.29571 0.66349 0.0
H1068 H 0.13832 0.33183 0.76597 0.0
H1069 H 0.1729 0.34152 0.75927 0.0
C1070 C 0.18888 0.33114 0.70235 0.0
C1071 C 0.19557 0.32455 0.67122 0.0
C1072 C 0.16878 0.32454 0.70723 0.0
C1073 C 0.18177 0.31076 0.64529 0.0
C1074 C 0.16155 0.30421 0.64972 0.0
C1075 C 0.13479 0.30549 0.68454 0.0
C1076 C 0.12866 0.3132 0.71493 0.0
C1077 C 0.1549 0.31119 0.68044 0.0
C1078 C 0.14262 0.32583 0.74207 0.0
C1079 C 0.16245 0.33143 0.73829 0.0
H1080 H 0.04848 0.39727 0.28481 0.0
H1081 H 0.00023 0.39878 0.22845 0.0
H1082 H 0.00664 0.38591 0.16922 0.0
H1083 H 0.02414 0.37148 0.1349 0.0
H1084 H 0.07351 0.37158 0.18983 0.0
H1085 H 0.0686 0.38664 0.2476 0.0
C1086 C 0.03956 0.39509 0.25938 0.0
C1087 C 0.02378 0.39891 0.26136 0.0
C1088 C 0.04345 0.38779 0.22505 0.0
C1089 C 0.01249 0.39606 0.22792 0.0
C1090 C 0.01608 0.38856 0.19399 0.0
C1091 C 0.034 0.37505 0.15931 0.0
C1092 C 0.0491 0.37023 0.158 0.0
C1093 C 0.03123 0.38396 0.19244 0.0
C1094 C 0.06181 0.37513 0.18986 0.0
C1095 C 0.05894 0.38367 0.22309 0.0
H1096 H 0.59734 0.63639 0.21982 0.0
H1097 H 0.63112 0.67738 0.31013 0.0
H1098 H 0.6417 0.70498 0.26533 0.0
H1099 H 0.64356 0.71748 0.19909 0.0
H1100 H 0.61197 0.67635 0.10755 0.0
H1101 H 0.59826 0.64906 0.15391 0.0
C1102 C 0.60677 0.65138 0.22983 0.0
C1103 C 0.61336 0.65473 0.26844 0.0
C1104 C 0.6133 0.66726 0.20348 0.0
C1105 C 0.62582 0.67429 0.28065 0.0
C1106 C 0.63191 0.69014 0.25498 0.0
C1107 C 0.63337 0.7026 0.18941 0.0
C1108 C 0.62872 0.69905 0.14983 0.0
C1109 C 0.62605 0.68681 0.21612 0.0
C1110 C 0.61578 0.67956 0.13779 0.0
C1111 C 0.60797 0.6639 0.16432 0.0
H1112 H 0.2933 0.92406 0.17237 0.0
H1113 H 0.33703 0.96877 0.09729 0.0
H1114 H 0.36239 0.97744 0.14649 0.0
H1115 H 0.37162 0.97441 0.2131 0.0
H1116 H 0.32726 0.93181 0.2903 0.0
H1117 H 0.30288 0.92016 0.23833 0.0
C1118 C 0.30846 0.93545 0.16655 0.0
C1119 C 0.31325 0.94568 0.13104 0.0
C1120 C 0.3229 0.94086 0.19562 0.0
C1121 C 0.33292 0.96065 0.1243 0.0
C1122 C 0.34745 0.96565 0.1525 0.0
C1123 C 0.35672 0.96232 0.21833 0.0
C1124 C 0.35134 0.95393 0.25557 0.0
C1125 C 0.34255 0.95616 0.1886 0.0
C1126 C 0.33184 0.93851 0.26196 0.0
C1127 C 0.31785 0.93188 0.23223 0.0
H1128 H 0.36102 0.02337 0.93274 0.0
H1129 H 0.35654 0.0688 0.87156 0.0
H1130 H 0.37003 0.06218 0.81324 0.0
H1131 H 0.38086 0.04176 0.77794 0.0
H1132 H 0.38675 -0.00262 0.84006 0.0
H1133 H 0.37524 0.00544 0.89934 0.0
C1134 C 0.36321 0.03199 0.90678 0.0
C1135 C 0.3576 0.0465 0.90664 0.0
C1136 C 0.37121 0.02824 0.87327 0.0
C1137 C 0.36072 0.05759 0.8727 0.0
C1138 C 0.36837 0.05374 0.83918 0.0
C1139 C 0.37991 0.03405 0.80457 0.0
C1140 C 0.38461 0.01888 0.80426 0.0
C1141 C 0.37336 0.03886 0.83887 0.0
C1142 C 0.38333 0.00914 0.83923 0.0
C1143 C 0.37662 0.01367 0.87323 0.0
H1144 H 0.93707 0.3103 0.90124 0.0
H1145 H 0.98744 0.35159 0.96804 0.0
H1146 H -0.00395 0.37691 0.91866 0.0
H1147 H -0.00919 0.38676 0.85412 0.0
H1148 H 0.94221 0.34468 0.78467 0.0
H1149 H 0.9313 0.32049 0.83721 0.0
C1150 C 0.94977 0.32492 0.90522 0.0
C1151 C 0.96154 0.32899 0.93849 0.0
C1152 C 0.95501 0.33934 0.876 0.0
C1153 C 0.97812 0.34798 0.9428 0.0
C1154 C 0.98307 0.36251 0.9145 0.0
C1155 C 0.9776 0.37244 0.85078 0.0
C1156 C 0.96724 0.36765 0.81554 0.0
C1157 C 0.97183 0.3583 0.88067 0.0
C1158 C 0.95041 0.34882 0.81148 0.0
C1159 C 0.9442 0.33493 0.84152 0.0
H1160 H 0.64688 0.58894 0.94939 0.0
H1161 H 0.70597 0.61744 0.90199 0.0
H1162 H 0.69273 0.6052 0.83754 0.0
H1163 H 0.66405 0.58941 0.79341 0.0
H1164 H 0.60509 0.55871 0.84161 0.0
H1165 H 0.61851 0.5684 0.90667 0.0
C1166 C 0.65685 0.59214 0.92505 0.0
C1167 C 0.67739 0.60424 0.93049 0.0
C1168 C 0.64913 0.58469 0.88805 0.0
C1169 C 0.69012 0.60811 0.8987 0.0
C1170 C 0.68254 0.60121 0.86172 0.0
C1171 C 0.65418 0.58443 0.81823 0.0
C1172 C 0.63356 0.57342 0.81246 0.0
C1173 C 0.66203 0.5899 0.85584 0.0
C1174 C 0.621 0.56706 0.84505 0.0
C1175 C 0.62867 0.57277 0.88237 0.0
H1176 H 0.95619 0.61691 0.93157 0.0
H1177 H 0.9097 0.62213 0.87665 0.0
H1178 H 0.91331 0.60661 0.81823 0.0
H1179 H 0.93178 0.59422 0.78053 0.0
H1180 H 0.97729 0.58776 0.83664 0.0
H1181 H 0.9718 0.60079 0.89657 0.0
C1182 C 0.94665 0.6144 0.90702 0.0
C1183 C 0.9328 0.62086 0.90851 0.0
C1184 C 0.94871 0.60529 0.87349 0.0
C1185 C 0.92046 0.61731 0.87646 0.0
C1186 C 0.9226 0.60851 0.84288 0.0
C1187 C 0.94028 0.59536 0.80604 0.0
C1188 C 0.95505 0.59012 0.8038 0.0
C1189 C 0.93697 0.60283 0.84072 0.0
C1190 C 0.96581 0.59162 0.83734 0.0
C1191 C 0.96276 0.5992 0.87169 0.0
H1192 H 0.35397 0.31519 0.91631 0.0
H1193 H 0.32021 0.26057 0.85436 0.0
H1194 H 0.33392 0.27767 0.793 0.0
H1195 H 0.3533 0.30882 0.75655 0.0
H1196 H 0.38951 0.36286 0.81862 0.0
H1197 H 0.37724 0.34542 0.88028 0.0
C1198 C 0.34992 0.30701 0.88939 0.0
C1199 C 0.33601 0.28668 0.88979 0.0
C1200 C 0.35819 0.31689 0.85424 0.0
C1201 C 0.33097 0.2762 0.85479 0.0
C1202 C 0.33869 0.286 0.81967 0.0
C1203 C 0.3587 0.31666 0.78365 0.0
C1204 C 0.37213 0.33709 0.78318 0.0
C1205 C 0.35197 0.30642 0.81897 0.0
C1206 C 0.37921 0.34711 0.81836 0.0
C1207 C 0.37212 0.33716 0.85359 0.0
H1208 H 0.64391 0.02362 0.91135 0.0
H1209 H 0.68537 0.08325 0.87644 0.0
H1210 H 0.66592 0.07917 0.81842 0.0
H1211 H 0.6382 0.05766 0.77475 0.0
H1212 H 0.59473 -0.0006 0.81352 0.0
H1213 H 0.61355 0.00393 0.87258 0.0
C1214 C 0.64847 0.0358 0.89134 0.0
C1215 C 0.66613 0.0537 0.89821 0.0
C1216 C 0.63683 0.03356 0.85846 0.0
C1217 C 0.67178 0.06938 0.87206 0.0
C1218 C 0.66071 0.06701 0.83867 0.0
C1219 C 0.6327 0.04612 0.79648 0.0
C1220 C 0.61507 0.02818 0.78955 0.0
C1221 C 0.64336 0.04905 0.83115 0.0
C1222 C 0.60812 0.01341 0.81815 0.0
C1223 C 0.61898 0.01594 0.8519 0.0
H1224 H 0.59262 0.94041 0.08999 0.0
H1225 H 0.62067 0.91327 0.15122 0.0
H1226 H 0.61096 0.92117 0.21289 0.0
H1227 H 0.59682 0.93817 0.25001 0.0
H1228 H 0.56897 0.96551 0.18883 0.0
H1229 H 0.57609 0.95504 0.12723 0.0
C1230 C 0.59636 0.93592 0.11677 0.0
C1231 C 0.60747 0.92624 0.11557 0.0
C1232 C 0.59085 0.9407 0.15249 0.0
C1233 C 0.61215 0.92068 0.15088 0.0
C1234 C 0.60665 0.92529 0.18636 0.0
C1235 C 0.59202 0.9416 0.22328 0.0
C1236 C 0.58236 0.95273 0.22444 0.0
C1237 C 0.59634 0.93564 0.18761 0.0
C1238 C 0.57638 0.957 0.18919 0.0
C1239 C 0.58053 0.95106 0.15376 0.0
H1240 H -0.00854 0.60502 0.21244 0.0
H1241 H 0.03852 0.64386 0.28857 0.0
H1242 H 0.05243 0.66912 0.23795 0.0
H1243 H 0.04982 0.68123 0.17347 0.0
H1244 H 0.0009 0.64336 0.09992 0.0
H1245 H 0.98923 0.61683 0.14764 0.0
C1246 C 0.00497 0.61887 0.21767 0.0
C1247 C 0.01403 0.62244 0.25419 0.0
C1248 C 0.01247 0.63366 0.18886 0.0
C1249 C 0.03129 0.64067 0.26073 0.0
C1250 C 0.03922 0.65517 0.23179 0.0
C1251 C 0.03676 0.66708 0.16769 0.0
C1252 C 0.02631 0.66431 0.13299 0.0
C1253 C 0.02974 0.652 0.19594 0.0
C1254 C 0.00924 0.64595 0.12632 0.0
C1255 C 0.00253 0.63073 0.15366 0.0
H1256 H 0.33674 0.33874 0.2271 0.0
H1257 H 0.35623 0.40082 0.22947 0.0
H1258 H 0.33317 0.39621 0.17728 0.0
H1259 H 0.30791 0.37443 0.12956 0.0
H1260 H 0.29111 0.31299 0.12444 0.0
H1261 H 0.31259 0.31742 0.17893 0.0
C1262 C 0.33583 0.35125 0.21646 0.0
C1263 C 0.34803 0.37007 0.23245 0.0
C1264 C 0.32304 0.34859 0.18573 0.0
C1265 C 0.34695 0.38618 0.21776 0.0
C1266 C 0.33376 0.38354 0.1879 0.0
C1267 C 0.30891 0.36203 0.14057 0.0
C1268 C 0.29784 0.34338 0.12302 0.0
C1269 C 0.3218 0.36481 0.17145 0.0
C1270 C 0.29949 0.3275 0.13728 0.0
C1271 C 0.31175 0.33 0.16854 0.0
H1272 H 0.68358 0.7364 0.57842 0.0
H1273 H 0.73475 0.74142 0.63558 0.0
H1274 H 0.74376 0.73029 0.57685 0.0
H1275 H 0.73548 0.71625 0.51087 0.0
H1276 H 0.68303 0.7093 0.45582 0.0
H1277 H 0.67629 0.72411 0.51167 0.0
C1278 C 0.69691 0.73541 0.57788 0.0
C1279 C 0.70847 0.73982 0.61153 0.0
C1280 C 0.70171 0.72844 0.54429 0.0
C1281 C 0.72556 0.73817 0.61022 0.0
C1282 C 0.7307 0.73172 0.57661 0.0
C1283 C 0.72276 0.71828 0.51084 0.0
C1284 C 0.70979 0.71163 0.47904 0.0
C1285 C 0.71865 0.72639 0.54369 0.0
C1286 C 0.69325 0.71419 0.47982 0.0
C1287 C 0.68935 0.72266 0.51184 0.0
H1288 H 0.2771 0.04045 0.49457 0.0
H1289 H 0.24175 0.98655 0.43153 0.0
H1290 H 0.2288 0.96847 0.49241 0.0
H1291 H 0.23033 0.96733 0.56378 0.0
H1292 H 0.26925 0.02051 0.62593 0.0
H1293 H 0.27787 0.03952 0.56573 0.0
C1294 C 0.26618 0.02484 0.49419 0.0
C1295 C 0.26016 0.01491 0.45852 0.0
C1296 C 0.25961 0.01436 0.52938 0.0
C1297 C 0.24646 -0.00544 0.45855 0.0
C1298 C 0.23914 0.9842 0.4934 0.0
C1299 C 0.24036 0.98315 0.56416 0.0
C1300 C 0.24897 0.99256 0.59936 0.0
C1301 C 0.24599 -0.00616 0.52904 0.0
C1302 C 0.26235 0.01297 0.59928 0.0
C1303 C 0.26732 0.02383 0.56481 0.0
H1304 H 0.9854 0.24268 0.6201 0.0
H1305 H 0.04617 0.27344 0.58159 0.0
H1306 H 0.03547 0.26668 0.51432 0.0
H1307 H 0.00868 0.25572 0.46613 0.0
H1308 H 0.94796 0.22287 0.5046 0.0
H1309 H 0.95874 0.22643 0.57173 0.0
C1310 C -0.00371 0.24747 0.59701 0.0
C1311 C 0.01657 0.25869 0.60598 0.0
C1312 C 0.99002 0.2433 0.55819 0.0
C1313 C 0.03048 0.2647 0.57565 0.0
C1314 C 0.02436 0.26098 0.53704 0.0
C1315 C -0.00217 0.24892 0.48915 0.0
C1316 C 0.97752 0.23917 0.48023 0.0
C1317 C 0.00416 0.25082 0.52789 0.0
C1318 C 0.96368 0.23036 0.51047 0.0
C1319 C 0.96984 0.23255 0.54902 0.0
H1320 H 0.27767 0.28362 0.43183 0.0
H1321 H 0.30837 0.25814 0.48873 0.0
H1322 H 0.30135 0.26759 0.5519 0.0
H1323 H 0.28857 0.28542 0.59043 0.0
H1324 H 0.25515 0.30807 0.5338 0.0
H1325 H 0.26077 0.29714 0.47122 0.0
C1326 C 0.28256 0.27993 0.45818 0.0
C1327 C 0.29365 0.27039 0.45585 0.0
C1328 C 0.27796 0.2849 0.49439 0.0
C1329 C 0.29977 0.26547 0.49001 0.0
C1330 C 0.29583 0.27093 0.52605 0.0
C1331 C 0.28223 0.28762 0.56444 0.0
C1332 C 0.27156 0.29764 0.56671 0.0
C1333 C 0.28522 0.28096 0.52857 0.0
C1334 C 0.26331 0.30029 0.53287 0.0
C1335 C 0.26665 0.29418 0.49701 0.0
H1336 H 0.72962 0.97956 0.57066 0.0
H1337 H 0.69015 0.92221 0.52256 0.0
H1338 H 0.69873 0.93586 0.45731 0.0
H1339 H 0.71477 0.96487 0.41377 0.0
H1340 H 0.75588 0.02181 0.46139 0.0
H1341 H 0.74955 0.00759 0.52631 0.0
C1342 C 0.72321 0.96996 0.54589 0.0
C1343 C 0.70913 0.94985 0.55182 0.0
C1344 C 0.72839 0.97791 0.50808 0.0
C1345 C 0.70107 0.93769 0.51916 0.0
C1346 C 0.70587 0.94554 0.48166 0.0
C1347 C 0.72265 0.9741 0.43825 0.0
C1348 C 0.73571 -0.00554 0.43249 0.0
C1349 C 0.71911 0.96573 0.47573 0.0
C1350 C 0.74583 0.00611 0.4647 0.0
C1351 C 0.7421 -0.00201 0.50203 0.0
H1352 H 0.02302 0.75576 0.56668 0.0
H1353 H 0.96657 0.72754 0.62517 0.0
H1354 H 0.94964 0.72209 0.56315 0.0
H1355 H 0.95072 0.72142 0.49177 0.0
H1356 H 0.00707 0.74569 0.4336 0.0
H1357 H 0.02419 0.75679 0.4955 0.0
C1358 C 0.00704 0.74894 0.5659 0.0
C1359 C -0.00393 0.74229 0.60056 0.0
C1360 C -0.00263 0.74491 0.52992 0.0
C1361 C 0.97535 0.73294 0.59895 0.0
C1362 C 0.96566 0.72971 0.56344 0.0
C1363 C 0.96675 0.7296 0.49263 0.0
C1364 C 0.97763 0.73291 0.45808 0.0
C1365 C 0.97647 0.73507 0.52862 0.0
C1366 C -0.00162 0.74307 0.45974 0.0
C1367 C 0.00817 0.74934 0.49518 0.0
H1368 H 0.05529 0.29723 0.96263 0.0
H1369 H 0.04369 0.34479 0.94427 0.0
H1370 H 0.03566 0.33481 0.87626 0.0
H1371 H 0.03553 0.31451 0.82047 0.0
H1372 H 0.04818 0.26782 0.84029 0.0
H1373 H 0.05175 0.27514 0.90954 0.0
C1374 C 0.051 0.30548 0.94382 0.0
C1375 C 0.05061 0.3221 0.95834 0.0
C1376 C 0.04635 0.29957 0.9051 0.0
C1377 C 0.04439 0.33215 0.93378 0.0
C1378 C 0.03978 0.3264 0.89491 0.0
C1379 C 0.0383 0.30549 0.8403 0.0
C1380 C 0.04108 0.29027 0.8255 0.0
C1381 C 0.04108 0.31035 0.88003 0.0
C1382 C 0.04545 0.27919 0.85116 0.0
C1383 C 0.04778 0.2836 0.89064 0.0
H1384 H 0.69649 0.77933 0.95058 0.0
H1385 H 0.6331 0.74139 0.95707 0.0
H1386 H 0.63142 0.7404 0.88634 0.0
H1387 H 0.64806 0.74881 0.82333 0.0
H1388 H 0.71172 0.78431 0.81656 0.0
H1389 H 0.71319 0.78797 0.88712 0.0
C1390 C 0.68224 0.77101 0.93659 0.0
C1391 C 0.66487 0.76053 0.95921 0.0
C1392 C 0.68149 0.77009 0.89598 0.0
C1393 C 0.64663 0.74957 0.94048 0.0
C1394 C 0.6457 0.74903 0.90004 0.0
C1395 C 0.66231 0.75765 0.83707 0.0
C1396 C 0.6798 0.76647 0.81446 0.0
C1397 C 0.66305 0.75905 0.87757 0.0
C1398 C 0.69807 0.77749 0.83309 0.0
C1399 C 0.69889 0.7795 0.87346 0.0
H1400 H 0.23152 0.94397 0.94983 0.0
H1401 H 0.28642 0.94572 0.92486 0.0
H1402 H 0.28566 0.95634 0.85824 0.0
H1403 H 0.26712 0.9614 0.80533 0.0
H1404 H 0.21179 0.95848 0.83193 0.0
H1405 H 0.21528 0.95263 0.9 0.0
C1406 C 0.24339 0.94669 0.92987 0.0
C1407 C 0.25876 0.94354 0.94202 0.0
C1408 C 0.24285 0.95283 0.892 0.0
C1409 C 0.2743 0.94776 0.91613 0.0
C1410 C 0.27384 0.95385 0.87806 0.0
C1411 C 0.25622 0.96021 0.82633 0.0
C1412 C 0.23927 0.9606 0.8136 0.0
C1413 C 0.25795 0.95603 0.86541 0.0
C1414 C 0.22502 0.95847 0.841 0.0
C1415 C 0.2269 0.95488 0.87985 0.0
H1416 H 0.30981 0.03836 0.11536 0.0
H1417 H 0.35808 0.09845 0.11918 0.0
H1418 H 0.35264 0.09985 0.1885 0.0
H1419 H 0.3327 0.0851 0.24655 0.0
H1420 H 0.28349 0.02538 0.24376 0.0
H1421 H 0.29054 0.02281 0.17542 0.0
C1422 C 0.31953 0.05152 0.13171 0.0
C1423 C 0.33467 0.06818 0.11228 0.0
C1424 C 0.31576 0.05247 0.17146 0.0
C1425 C 0.34663 0.08537 0.13356 0.0
C1426 C 0.34335 0.08623 0.17311 0.0
C1427 C 0.32339 0.07147 0.23116 0.0
C1428 C 0.30736 0.05553 0.25045 0.0
C1429 C 0.32765 0.07007 0.1921 0.0
C1430 C 0.29578 0.03796 0.22977 0.0
C1431 C 0.29989 0.03646 0.19068 0.0
H1432 H 0.92435 0.26006 0.26939 0.0
H1433 H 0.97824 0.25818 0.25685 0.0
H1434 H 0.98192 0.27056 0.19013 0.0
H1435 H 0.96772 0.27883 0.1334 0.0
H1436 H 0.91324 0.2794 0.14799 0.0
H1437 H 0.9121 0.271 0.21622 0.0
C1438 C 0.93695 0.26229 0.2522 0.0
C1439 C 0.95077 0.25773 0.26796 0.0
C1440 C 0.93893 0.26939 0.21427 0.0
C1441 C 0.96725 0.26131 0.2454 0.0
C1442 C 0.96934 0.26841 0.20724 0.0
C1443 C 0.956 0.27778 0.15193 0.0
C1444 C 0.94068 0.28003 0.13576 0.0
C1445 C 0.95506 0.27219 0.19112 0.0
C1446 C 0.92527 0.27801 0.15982 0.0
C1447 C 0.92451 0.27299 0.19873 0.0
H1448 H 0.72034 0.64321 0.28225 0.0
H1449 H 0.70424 0.68769 0.26451 0.0
H1450 H 0.69559 0.6768 0.197 0.0
H1451 H 0.69616 0.65672 0.14129 0.0
H1452 H 0.71363 0.6134 0.16092 0.0
H1453 H 0.71765 0.62134 0.22978 0.0
C1454 C 0.71493 0.65061 0.26372 0.0
C1455 C 0.71345 0.66663 0.2782 0.0
C1456 C 0.70999 0.64422 0.22536 0.0
C1457 C 0.70581 0.67553 0.25402 0.0
C1458 C 0.70085 0.66926 0.21543 0.0
C1459 C 0.70014 0.64855 0.16099 0.0
C1460 C 0.70429 0.63422 0.14614 0.0
C1461 C 0.70325 0.65385 0.20053 0.0
C1462 C 0.71006 0.62421 0.17173 0.0
C1463 C 0.7126 0.62894 0.21101 0.0
H1464 H 0.94519 0.67163 0.24912 0.0
H1465 H 0.94997 0.72795 0.22808 0.0
H1466 H 0.94823 0.72205 0.15827 0.0
H1467 H 0.94087 0.69913 0.1045 0.0
H1468 H 0.9349 0.64214 0.12431 0.0
H1469 H 0.94175 0.65 0.1934 0.0
C1470 C 0.94661 0.68288 0.22903 0.0
C1471 C 0.94817 0.70043 0.24351 0.0
C1472 C 0.94488 0.67901 0.18895 0.0
C1473 C 0.94928 0.71462 0.21748 0.0
C1474 C 0.94801 0.71109 0.17765 0.0
C1475 C 0.94117 0.68842 0.12387 0.0
C1476 C 0.93691 0.66986 0.10946 0.0
C1477 C 0.94506 0.69306 0.16325 0.0
C1478 C 0.93792 0.65642 0.13472 0.0
C1479 C 0.94181 0.66092 0.1742 0.0
H1480 H 0.31206 0.27542 0.23618 0.0
H1481 H 0.25773 0.21948 0.24497 0.0
H1482 H 0.25618 0.21667 0.17462 0.0
H1483 H 0.27221 0.2279 0.11188 0.0
H1484 H 0.32704 0.28326 0.10156 0.0
H1485 H 0.32652 0.2885 0.17151 0.0
C1486 C 0.29953 0.26294 0.22265 0.0
C1487 C 0.28495 0.24766 0.24582 0.0
C1488 C 0.29916 0.26106 0.1821 0.0
C1489 C 0.26904 0.23143 0.22782 0.0
C1490 C 0.26828 0.22973 0.18762 0.0
C1491 C 0.28413 0.24115 0.12479 0.0
C1492 C 0.29994 0.25494 0.1016 0.0
C1493 C 0.28365 0.24404 0.16468 0.0
C1494 C 0.31488 0.27227 0.1188 0.0
C1495 C 0.31453 0.27528 0.15876 0.0
H1496 H 0.71169 0.02744 0.22106 0.0
H1497 H 0.7721 0.04198 0.20334 0.0
H1498 H 0.7703 0.04944 0.1354 0.0
H1499 H 0.75315 0.05568 0.08349 0.0
H1500 H 0.69306 0.04258 0.09995 0.0
H1501 H 0.69305 0.03066 0.1657 0.0
C1502 C 0.72417 0.0315 0.20185 0.0
C1503 C 0.7419 0.03368 0.21705 0.0
C1504 C 0.72324 0.03655 0.16288 0.0
C1505 C 0.7582 0.03973 0.19219 0.0
C1506 C 0.75724 0.04425 0.15344 0.0
C1507 C 0.73996 0.05019 0.1013 0.0
C1508 C 0.72325 0.05049 0.08686 0.0
C1509 C 0.7401 0.0434 0.13888 0.0
C1510 C 0.70619 0.04276 0.11026 0.0
C1511 C 0.70621 0.03594 0.14792 0.0
H1512 H 0.63582 0.89646 0.77128 0.0
H1513 H 0.69923 0.93393 0.77661 0.0
H1514 H 0.6971 0.93588 0.84712 0.0
H1515 H 0.67724 0.92705 0.90709 0.0
H1516 H 0.61363 0.8917 0.90146 0.0
H1517 H 0.61581 0.8888 0.83111 0.0
C1518 C 0.64924 0.90499 0.78783 0.0
C1519 C 0.66776 0.91486 0.76848 0.0
C1520 C 0.64781 0.90641 0.8283 0.0
C1521 C 0.68485 0.92614 0.79052 0.0
C1522 C 0.6836 0.92723 0.8309 0.0
C1523 C 0.6638 0.91856 0.89059 0.0
C1524 C 0.64524 0.90933 0.90984 0.0
C1525 C 0.66517 0.91741 0.85008 0.0
C1526 C 0.62805 0.89884 0.88765 0.0
C1527 C 0.62933 0.89719 0.84738 0.0
H1528 H 0.06344 0.73169 0.80166 0.0
H1529 H 0.00595 0.72578 0.8173 0.0
H1530 H 0.00517 0.71522 0.88457 0.0
H1531 H 0.0225 0.71075 0.9406 0.0
H1532 H 0.08032 0.71771 0.92297 0.0
H1533 H 0.07913 0.72454 0.85456 0.0
C1534 C 0.05067 0.72817 0.81963 0.0
C1535 C 0.03493 0.72996 0.80446 0.0
C1536 C 0.05036 0.72219 0.85796 0.0
C1537 C 0.01837 0.7248 0.8282 0.0
C1538 C 0.01795 0.71876 0.86669 0.0
C1539 C 0.03455 0.71315 0.92148 0.0
C1540 C 0.05145 0.71353 0.93688 0.0
C1541 C 0.03403 0.71772 0.88211 0.0
C1542 C 0.06713 0.71718 0.91188 0.0
C1543 C 0.06653 0.72127 0.87281 0.0
H1544 H 0.27809 0.36459 0.7805 0.0
H1545 H 0.27044 0.30624 0.78454 0.0
H1546 H 0.27483 0.30902 0.85509 0.0
H1547 H 0.27683 0.32669 0.91589 0.0
H1548 H 0.28346 0.38469 0.91021 0.0
H1549 H 0.28396 0.38358 0.83974 0.0
C1550 C 0.2775 0.35248 0.79674 0.0
C1551 C 0.27352 0.33505 0.77747 0.0
C1552 C 0.27997 0.35421 0.83693 0.0
C1553 C 0.27332 0.31973 0.79876 0.0
C1554 C 0.2758 0.32133 0.83906 0.0
C1555 C 0.279 0.33935 0.89927 0.0
C1556 C 0.28006 0.35579 0.9184 0.0
C1557 C 0.27863 0.33834 0.85856 0.0
C1558 C 0.2826 0.37191 0.8963 0.0
C1559 C 0.28272 0.3712 0.85598 0.0
H1560 H 0.97122 0.41291 0.48251 0.0
H1561 H 0.03449 0.44271 0.46569 0.0
H1562 H 0.03924 0.44645 0.53581 0.0
H1563 H 0.02535 0.43934 0.60169 0.0
H1564 H 0.96203 0.40707 0.61838 0.0
H1565 H 0.95735 0.40627 0.5483 0.0
C1566 C 0.98611 0.42051 0.49404 0.0
C1567 C 0.00253 0.42767 0.46866 0.0
C1568 C 0.98866 0.42201 0.53438 0.0
C1569 C 0.02164 0.43714 0.48438 0.0
C1570 C 0.02432 0.43922 0.52451 0.0
C1571 C 0.01048 0.43233 0.59012 0.0
C1572 C -0.00598 0.42335 0.61546 0.0
C1573 C 0.00794 0.43144 0.54977 0.0
C1574 C 0.97492 0.4141 0.59972 0.0
C1575 C 0.97227 0.41363 0.55961 0.0
H1576 H 0.58844 0.59639 0.59672 0.0
H1577 H 0.61779 0.56258 0.58568 0.0
H1578 H 0.61894 0.56661 0.5151 0.0
H1579 H 0.60884 0.5773 0.45655 0.0
H1580 H 0.58112 0.61261 0.46785 0.0
H1581 H 0.58211 0.61055 0.53862 0.0
C1582 C 0.59532 0.5901 0.57886 0.0
C1583 C 0.60284 0.57898 0.59633 0.0
C1584 C 0.59601 0.59262 0.53851 0.0
C1585 C 0.61195 0.57119 0.57297 0.0
C1586 C 0.61246 0.57339 0.53263 0.0
C1587 C 0.60315 0.58467 0.4746 0.0
C1588 C 0.59459 0.59483 0.45715 0.0
C1589 C 0.6041 0.58366 0.5151 0.0
C1590 C 0.58767 0.60466 0.48067 0.0
C1591 C 0.58819 0.60341 0.52105 0.0
H1592 H 0.39496 0.96156 0.58715 0.0
H1593 H 0.42674 0.02497 0.5982 0.0
H1594 H 0.43137 0.02821 0.52782 0.0
H1595 H 0.4248 0.01298 0.46322 0.0
H1596 H 0.39051 0.94962 0.45241 0.0
H1597 H 0.38857 0.94639 0.52297 0.0
C1598 C 0.40314 0.97615 0.57434 0.0
C1599 C 0.41065 0.99304 0.59812 0.0
C1600 C 0.40522 0.97786 0.53393 0.0
C1601 C 0.42087 0.01175 0.58073 0.0
C1602 C 0.42349 0.01359 0.54048 0.0
C1603 C 0.41715 -0.00158 0.47625 0.0
C1604 C 0.40797 0.98151 0.45247 0.0
C1605 C 0.41554 -0.00327 0.51679 0.0
C1606 C 0.39776 0.96283 0.46994 0.0
C1607 C 0.39662 0.961 0.51028 0.0
H1608 H 0.58233 0.02011 0.43862 0.0
H1609 H 0.5503 0.95646 0.43694 0.0
H1610 H 0.54661 0.95593 0.50747 0.0
H1611 H 0.55326 0.97348 0.56951 0.0
H1612 H 0.58751 0.03708 0.57178 0.0
H1613 H 0.58945 0.03769 0.50089 0.0
C1614 C 0.57438 0.00607 0.45355 0.0
C1615 C 0.56642 0.98829 0.43221 0.0
C1616 C 0.57273 0.00591 0.4942 0.0
C1617 C 0.55652 0.97032 0.45238 0.0
C1618 C 0.5544 0.97004 0.49276 0.0
C1619 C 0.56095 0.98755 0.5546 0.0
C1620 C 0.57 0.00529 0.57618 0.0
C1621 C 0.56251 0.98773 0.51395 0.0
C1622 C 0.58029 0.02326 0.55611 0.0
C1623 C 0.58143 0.02358 0.51554 0.0
H1624 H 0.00529 0.57378 0.58305 0.0
H1625 H 0.94211 0.54549 0.59998 0.0
H1626 H 0.9373 0.54203 0.52984 0.0
H1627 H 0.95118 0.5491 0.46397 0.0
H1628 H 0.0145 0.57997 0.44729 0.0
H1629 H 0.01913 0.58033 0.51731 0.0
C1630 C -0.0096 0.56655 0.57153 0.0
C1631 C 0.97403 0.55974 0.59691 0.0
C1632 C 0.98783 0.56525 0.53122 0.0
C1633 C 0.95492 0.55077 0.58125 0.0
C1634 C 0.9522 0.54886 0.54112 0.0
C1635 C 0.96603 0.5557 0.47554 0.0
C1636 C 0.98251 0.56443 0.45026 0.0
C1637 C 0.96856 0.55635 0.51586 0.0
C1638 C 0.0016 0.57316 0.46595 0.0
C1639 C 0.00422 0.57337 0.50601 0.0
H1640 H 0.41927 0.37275 0.43892 0.0
H1641 H 0.36357 0.37146 0.43481 0.0
H1642 H 0.3582 0.36292 0.50391 0.0
H1643 H 0.37123 0.35921 0.5666 0.0
H1644 H 0.42731 0.36113 0.56918 0.0
H1645 H 0.43036 0.36544 0.49914 0.0
C1646 C 0.40592 0.37061 0.45308 0.0
C1647 C 0.39206 0.37323 0.432 0.0
C1648 C 0.40291 0.36556 0.4924 0.0
C1649 C 0.37458 0.3698 0.45052 0.0
C1650 C 0.37151 0.36487 0.48997 0.0
C1651 C 0.38379 0.3599 0.55168 0.0
C1652 C 0.39905 0.35981 0.57316 0.0
C1653 C 0.38577 0.36307 0.51138 0.0
C1654 C 0.41537 0.36108 0.55338 0.0
C1655 C 0.41722 0.36377 0.51337 0.0
loop_
_geom_bond_atom_site_label_1
_geom_bond_atom_site_label_2
_geom_bond_distance
_geom_bond_site_symmetry_2
_ccdc_geom_bond_type
O0 Cd1 2.223 . S
O0 C8 1.315 . S
Cd1 O0 2.223 . S
Cd1 O4 2.297 . S
Cd1 O5 2.439 1_556 S
Cd1 O11 2.240 1_556 S
Cd2 O3 2.240 . S
Cd2 O10 2.223 . S
Cd2 O12 2.297 1_556 S
Cd2 O13 2.439 1_556 S
O3 Cd2 2.240 . S
O3 C8 1.279 . S
O4 Cd1 2.297 . S
O4 C6 1.247 1_556 S
O5 Cd1 2.439 1_554 S
O5 C6 1.208 . S
C6 O4 1.247 1_554 S
C6 O5 1.208 . S
C7 O12 1.247 . S
C7 O13 1.208 . S
C8 O0 1.315 . S
C8 O3 1.279 . S
C9 O10 1.318 . S
C9 O11 1.276 1_556 S
O10 Cd2 2.223 . S
O10 C9 1.318 . S
O11 Cd1 2.240 1_554 S
O11 C9 1.276 1_554 S
O12 Cd2 2.297 1_554 S
O12 C7 1.247 . S
O13 Cd2 2.439 1_554 S
O13 C7 1.208 . S
O14 Cd15 2.223 . S
O14 C22 1.315 . S
Cd15 O14 2.223 . S
Cd15 O18 2.297 . S
Cd15 O19 2.439 1_556 S
Cd15 O25 2.240 1_556 S
Cd16 O17 2.240 . S
Cd16 O24 2.223 . S
Cd16 O26 2.297 1_556 S
Cd16 O27 2.439 1_556 S
O17 Cd16 2.240 . S
O17 C22 1.279 . S
O18 Cd15 2.297 . S
O18 C20 1.247 1_556 S
O19 Cd15 2.439 1_554 S
O19 C20 1.208 . S
C20 O18 1.247 1_554 S
C20 O19 1.208 . S
C21 O26 1.247 . S
C21 O27 1.208 . S
C22 O14 1.315 . S
C22 O17 1.279 . S
C23 O24 1.318 . S
C23 O25 1.276 1_556 S
O24 Cd16 2.223 . S
O24 C23 1.318 . S
O25 Cd15 2.240 1_554 S
O25 C23 1.276 1_554 S
O26 Cd16 2.297 1_554 S
O26 C21 1.247 . S
O27 Cd16 2.439 1_554 S
O27 C21 1.208 . S
O28 Cd29 2.223 . S
O28 C36 1.315 . S
Cd29 O28 2.223 . S
Cd29 O32 2.297 . S
Cd29 O33 2.439 1_556 S
Cd29 O39 2.240 1_556 S
Cd30 O31 2.240 . S
Cd30 O38 2.223 . S
Cd30 O40 2.297 1_556 S
Cd30 O41 2.439 1_556 S
O31 Cd30 2.240 . S
O31 C36 1.279 . S
O32 Cd29 2.297 . S
O32 C34 1.247 1_556 S
O33 Cd29 2.439 1_554 S
O33 C34 1.208 . S
C34 O32 1.247 1_554 S
C34 O33 1.208 . S
C35 O40 1.247 . S
C35 O41 1.208 . S
C36 O28 1.315 . S
C36 O31 1.279 . S
C37 O38 1.318 . S
C37 O39 1.276 1_556 S
O38 Cd30 2.223 . S
O38 C37 1.318 . S
O39 Cd29 2.240 1_554 S
O39 C37 1.276 1_554 S
O40 Cd30 2.297 1_554 S
O40 C35 1.247 . S
O41 Cd30 2.439 1_554 S
O41 C35 1.208 . S
O42 Cd43 2.223 . S
O42 C50 1.315 . S
Cd43 O42 2.223 . S
Cd43 O46 2.297 . S
Cd43 O47 2.439 1_554 S
Cd43 O53 2.240 1_554 S
Cd44 O45 2.240 . S
Cd44 O52 2.223 . S
Cd44 O54 2.297 1_554 S
Cd44 O55 2.439 1_554 S
O45 Cd44 2.240 . S
O45 C50 1.279 . S
O46 Cd43 2.297 . S
O46 C48 1.247 1_554 S
O47 Cd43 2.439 1_556 S
O47 C48 1.208 . S
C48 O46 1.247 1_556 S
C48 O47 1.208 . S
C49 O54 1.247 . S
C49 O55 1.208 . S
C50 O42 1.315 . S
C50 O45 1.279 . S
C51 O52 1.318 . S
C51 O53 1.276 1_554 S
O52 Cd44 2.223 . S
O52 C51 1.318 . S
O53 Cd43 2.240 1_556 S
O53 C51 1.276 1_556 S
O54 Cd44 2.297 1_556 S
O54 C49 1.247 . S
O55 Cd44 2.439 1_556 S
O55 C49 1.208 . S
O56 Cd57 2.223 . S
O56 C64 1.315 . S
Cd57 O56 2.223 . S
Cd57 O60 2.297 . S
Cd57 O61 2.439 1_554 S
Cd57 O67 2.240 1_554 S
Cd58 O59 2.240 . S
Cd58 O66 2.223 . S
Cd58 O68 2.297 1_554 S
Cd58 O69 2.439 1_554 S
O59 Cd58 2.240 . S
O59 C64 1.279 . S
O60 Cd57 2.297 . S
O60 C62 1.247 1_554 S
O61 Cd57 2.439 1_556 S
O61 C62 1.208 . S
C62 O60 1.247 1_556 S
C62 O61 1.208 . S
C63 O68 1.247 . S
C63 O69 1.208 . S
C64 O56 1.315 . S
C64 O59 1.279 . S
C65 O66 1.318 . S
C65 O67 1.276 1_554 S
O66 Cd58 2.223 . S
O66 C65 1.318 . S
O67 Cd57 2.240 1_556 S
O67 C65 1.276 1_556 S
O68 Cd58 2.297 1_556 S
O68 C63 1.247 . S
O69 Cd58 2.439 1_556 S
O69 C63 1.208 . S
O70 Cd71 2.223 . S
O70 C78 1.315 . S
Cd71 O70 2.223 . S
Cd71 O74 2.297 . S
Cd71 O75 2.439 1_554 S
Cd71 O81 2.240 1_554 S
Cd72 O73 2.240 . S
Cd72 O80 2.223 . S
Cd72 O82 2.297 1_554 S
Cd72 O83 2.439 1_554 S
O73 Cd72 2.240 . S
O73 C78 1.279 . S
O74 Cd71 2.297 . S
O74 C76 1.247 1_554 S
O75 Cd71 2.439 1_556 S
O75 C76 1.208 . S
C76 O74 1.247 1_556 S
C76 O75 1.208 . S
C77 O82 1.247 . S
C77 O83 1.208 . S
C78 O70 1.315 . S
C78 O73 1.279 . S
C79 O80 1.318 . S
C79 O81 1.276 1_554 S
O80 Cd72 2.223 . S
O80 C79 1.318 . S
O81 Cd71 2.240 1_556 S
O81 C79 1.276 1_556 S
O82 Cd72 2.297 1_556 S
O82 C77 1.247 . S
O83 Cd72 2.439 1_556 S
O83 C77 1.208 . S
O84 Cd85 2.223 . S
O84 C92 1.315 . S
Cd85 O84 2.223 . S
Cd85 O88 2.297 . S
Cd85 O89 2.439 1_554 S
Cd85 O95 2.240 1_554 S
Cd86 O87 2.240 . S
Cd86 O94 2.223 . S
Cd86 O96 2.297 1_554 S
Cd86 O97 2.439 1_554 S
O87 Cd86 2.240 . S
O87 C92 1.279 . S
O88 Cd85 2.297 . S
O88 C90 1.247 1_554 S
O89 Cd85 2.439 1_556 S
O89 C90 1.208 . S
C90 O88 1.247 1_556 S
C90 O89 1.208 . S
C91 O96 1.247 . S
C91 O97 1.208 . S
C92 O84 1.315 . S
C92 O87 1.279 . S
C93 O94 1.318 . S
C93 O95 1.276 1_554 S
O94 Cd86 2.223 . S
O94 C93 1.318 . S
O95 Cd85 2.240 1_556 S
O95 C93 1.276 1_556 S
O96 Cd86 2.297 1_556 S
O96 C91 1.247 . S
O97 Cd86 2.439 1_556 S
O97 C91 1.208 . S
O98 Cd99 2.223 . S
O98 C106 1.315 . S
Cd99 O98 2.223 . S
Cd99 O102 2.297 . S
Cd99 O103 2.439 1_554 S
Cd99 O109 2.240 1_554 S
Cd100 O101 2.240 . S
Cd100 O108 2.223 . S
Cd100 O110 2.297 1_554 S
Cd100 O111 2.439 1_554 S
O101 Cd100 2.240 . S
O101 C106 1.279 . S
O102 Cd99 2.297 . S
O102 C104 1.247 1_554 S
O103 Cd99 2.439 1_556 S
O103 C104 1.208 . S
C104 O102 1.247 1_556 S
C104 O103 1.208 . S
C105 O110 1.247 . S
C105 O111 1.208 . S
C106 O98 1.315 . S
C106 O101 1.279 . S
C107 O108 1.318 . S
C107 O109 1.276 1_554 S
O108 Cd100 2.223 . S
O108 C107 1.318 . S
O109 Cd99 2.240 1_556 S
O109 C107 1.276 1_556 S
O110 Cd100 2.297 1_556 S
O110 C105 1.247 . S
O111 Cd100 2.439 1_556 S
O111 C105 1.208 . S
O112 Cd113 2.223 . S
O112 C120 1.315 . S
Cd113 O112 2.223 . S
Cd113 O116 2.297 . S
Cd113 O117 2.439 1_554 S
Cd113 O123 2.240 1_554 S
Cd114 O115 2.240 . S
Cd114 O122 2.223 . S
Cd114 O124 2.297 1_554 S
Cd114 O125 2.439 1_554 S
O115 Cd114 2.240 . S
O115 C120 1.279 . S
O116 Cd113 2.297 . S
O116 C118 1.247 1_554 S
O117 Cd113 2.439 1_556 S
O117 C118 1.208 . S
C118 O116 1.247 1_556 S
C118 O117 1.208 . S
C119 O124 1.247 . S
C119 O125 1.208 . S
C120 O112 1.315 . S
C120 O115 1.279 . S
C121 O122 1.318 . S
C121 O123 1.276 1_554 S
O122 Cd114 2.223 . S
O122 C121 1.318 . S
O123 Cd113 2.240 1_556 S
O123 C121 1.276 1_556 S
O124 Cd114 2.297 1_556 S
O124 C119 1.247 . S
O125 Cd114 2.439 1_556 S
O125 C119 1.208 . S
O126 Cd127 2.223 . S
O126 C134 1.315 . S
Cd127 O126 2.223 . S
Cd127 O130 2.297 . S
Cd127 O131 2.439 1_556 S
Cd127 O137 2.240 1_556 S
Cd128 O129 2.240 . S
Cd128 O136 2.223 . S
Cd128 O138 2.297 1_556 S
Cd128 O139 2.439 1_556 S
O129 Cd128 2.240 . S
O129 C134 1.279 . S
O130 Cd127 2.297 . S
O130 C132 1.247 1_556 S
O131 Cd127 2.439 1_554 S
O131 C132 1.208 . S
C132 O130 1.247 1_554 S
C132 O131 1.208 . S
C133 O138 1.247 . S
C133 O139 1.208 . S
C134 O126 1.315 . S
C134 O129 1.279 . S
C135 O136 1.318 . S
C135 O137 1.276 1_556 S
O136 Cd128 2.223 . S
O136 C135 1.318 . S
O137 Cd127 2.240 1_554 S
O137 C135 1.276 1_554 S
O138 Cd128 2.297 1_554 S
O138 C133 1.247 . S
O139 Cd128 2.439 1_554 S
O139 C133 1.208 . S
O140 Cd141 2.223 . S
O140 C148 1.315 . S
Cd141 O140 2.223 . S
Cd141 O144 2.297 . S
Cd141 O145 2.439 1_556 S
Cd141 O151 2.240 1_556 S
Cd142 O143 2.240 . S
Cd142 O150 2.223 . S
Cd142 O152 2.297 1_556 S
Cd142 O153 2.439 1_556 S
O143 Cd142 2.240 . S
O143 C148 1.279 . S
O144 Cd141 2.297 . S
O144 C146 1.247 1_556 S
O145 Cd141 2.439 1_554 S
O145 C146 1.208 . S
C146 O144 1.247 1_554 S
C146 O145 1.208 . S
C147 O152 1.247 . S
C147 O153 1.208 . S
C148 O140 1.315 . S
C148 O143 1.279 . S
C149 O150 1.318 . S
C149 O151 1.276 1_556 S
O150 Cd142 2.223 . S
O150 C149 1.318 . S
O151 Cd141 2.240 1_554 S
O151 C149 1.276 1_554 S
O152 Cd142 2.297 1_554 S
O152 C147 1.247 . S
O153 Cd142 2.439 1_554 S
O153 C147 1.208 . S
O154 Cd155 2.223 . S
O154 C162 1.315 . S
Cd155 O154 2.223 . S
Cd155 O158 2.297 . S
Cd155 O159 2.439 1_556 S
Cd155 O165 2.240 1_556 S
Cd156 O157 2.240 . S
Cd156 O164 2.223 . S
Cd156 O166 2.297 1_556 S
Cd156 O167 2.439 1_556 S
O157 Cd156 2.240 . S
O157 C162 1.279 . S
O158 Cd155 2.297 . S
O158 C160 1.247 1_556 S
O159 Cd155 2.439 1_554 S
O159 C160 1.208 . S
C160 O158 1.247 1_554 S
C160 O159 1.208 . S
C161 O166 1.247 . S
C161 O167 1.208 . S
C162 O154 1.315 . S
C162 O157 1.279 . S
C163 O164 1.318 . S
C163 O165 1.276 1_556 S
O164 Cd156 2.223 . S
O164 C163 1.318 . S
O165 Cd155 2.240 1_554 S
O165 C163 1.276 1_554 S
O166 Cd156 2.297 1_554 S
O166 C161 1.247 . S
O167 Cd156 2.439 1_554 S
O167 C161 1.208 . S
O168 Cd169 2.223 . S
O168 C176 1.315 . S
Cd169 O168 2.223 . S
Cd169 O172 2.297 . S
Cd169 O173 2.439 . S
Cd169 O179 2.240 . S
Cd170 O171 2.240 . S
Cd170 O178 2.223 . S
Cd170 O180 2.297 . S
Cd170 O181 2.439 . S
O171 Cd170 2.240 . S
O171 C176 1.279 . S
O172 Cd169 2.297 . S
O172 C174 1.247 . S
O173 Cd169 2.439 . S
O173 C174 1.208 . S
C174 O172 1.247 . S
C174 O173 1.208 . S
C175 O180 1.247 . S
C175 O181 1.208 . S
C176 O168 1.315 . S
C176 O171 1.279 . S
C177 O178 1.315 . S
C177 O179 1.279 . S
O178 Cd170 2.223 . S
O178 C177 1.315 . S
O179 Cd169 2.240 . S
O179 C177 1.279 . S
O180 Cd170 2.297 . S
O180 C175 1.247 . S
O181 Cd170 2.439 . S
O181 C175 1.208 . S
O182 Cd183 2.223 . S
O182 C190 1.315 . S
Cd183 O182 2.223 . S
Cd183 O186 2.297 . S
Cd183 O187 2.439 . S
Cd183 O193 2.240 . S
Cd184 O185 2.240 . S
Cd184 O192 2.223 . S
Cd184 O194 2.297 . S
Cd184 O195 2.439 . S
O185 Cd184 2.240 . S
O185 C190 1.279 . S
O186 Cd183 2.297 . S
O186 C188 1.247 . S
O187 Cd183 2.439 . S
O187 C188 1.208 . S
C188 O186 1.247 . S
C188 O187 1.208 . S
C189 O194 1.247 . S
C189 O195 1.208 . S
C190 O182 1.315 . S
C190 O185 1.279 . S
C191 O192 1.315 . S
C191 O193 1.279 . S
O192 Cd184 2.223 . S
O192 C191 1.315 . S
O193 Cd183 2.240 . S
O193 C191 1.279 . S
O194 Cd184 2.297 . S
O194 C189 1.247 . S
O195 Cd184 2.439 . S
O195 C189 1.208 . S
O196 Cd197 2.223 . S
O196 C204 1.315 . S
Cd197 O196 2.223 . S
Cd197 O200 2.297 . S
Cd197 O201 2.439 . S
Cd197 O207 2.240 . S
Cd198 O199 2.240 . S
Cd198 O206 2.223 . S
Cd198 O208 2.297 . S
Cd198 O209 2.439 . S
O199 Cd198 2.240 . S
O199 C204 1.279 . S
O200 Cd197 2.297 . S
O200 C202 1.247 . S
O201 Cd197 2.439 . S
O201 C202 1.208 . S
C202 O200 1.247 . S
C202 O201 1.208 . S
C203 O208 1.247 . S
C203 O209 1.208 . S
C204 O196 1.315 . S
C204 O199 1.279 . S
C205 O206 1.315 . S
C205 O207 1.279 . S
O206 Cd198 2.223 . S
O206 C205 1.315 . S
O207 Cd197 2.240 . S
O207 C205 1.279 . S
O208 Cd198 2.297 . S
O208 C203 1.247 . S
O209 Cd198 2.439 . S
O209 C203 1.208 . S
O210 Cd211 2.223 . S
O210 C218 1.315 . S
Cd211 O210 2.223 . S
Cd211 O214 2.297 . S
Cd211 O215 2.439 . S
Cd211 O221 2.240 . S
Cd212 O213 2.240 . S
Cd212 O220 2.223 . S
Cd212 O222 2.297 . S
Cd212 O223 2.439 . S
O213 Cd212 2.240 . S
O213 C218 1.279 . S
O214 Cd211 2.297 . S
O214 C216 1.247 . S
O215 Cd211 2.439 . S
O215 C216 1.208 . S
C216 O214 1.247 . S
C216 O215 1.208 . S
C217 O222 1.247 . S
C217 O223 1.208 . S
C218 O210 1.315 . S
C218 O213 1.279 . S
C219 O220 1.315 . S
C219 O221 1.279 . S
O220 Cd212 2.223 . S
O220 C219 1.315 . S
O221 Cd211 2.240 . S
O221 C219 1.279 . S
O222 Cd212 2.297 . S
O222 C217 1.247 . S
O223 Cd212 2.439 . S
O223 C217 1.208 . S
O224 Cd225 2.223 . S
O224 C232 1.315 . S
Cd225 O224 2.223 . S
Cd225 O228 2.297 . S
Cd225 O229 2.439 . S
Cd225 O235 2.240 . S
Cd226 O227 2.240 . S
Cd226 O234 2.223 . S
Cd226 O236 2.297 . S
Cd226 O237 2.439 . S
O227 Cd226 2.240 . S
O227 C232 1.279 . S
O228 Cd225 2.297 . S
O228 C230 1.247 . S
O229 Cd225 2.439 . S
O229 C230 1.208 . S
C230 O228 1.247 . S
C230 O229 1.208 . S
C231 O236 1.247 . S
C231 O237 1.208 . S
C232 O224 1.315 . S
C232 O227 1.279 . S
C233 O234 1.315 . S
C233 O235 1.279 . S
O234 Cd226 2.223 . S
O234 C233 1.315 . S
O235 Cd225 2.240 . S
O235 C233 1.279 . S
O236 Cd226 2.297 . S
O236 C231 1.247 . S
O237 Cd226 2.439 . S
O237 C231 1.208 . S
O238 Cd239 2.223 . S
O238 C246 1.315 . S
Cd239 O238 2.223 . S
Cd239 O242 2.297 . S
Cd239 O243 2.439 . S
Cd239 O249 2.240 . S
Cd240 O241 2.240 . S
Cd240 O248 2.223 . S
Cd240 O250 2.297 . S
Cd240 O251 2.439 . S
O241 Cd240 2.240 . S
O241 C246 1.279 . S
O242 Cd239 2.297 . S
O242 C244 1.247 . S
O243 Cd239 2.439 . S
O243 C244 1.208 . S
C244 O242 1.247 . S
C244 O243 1.208 . S
C245 O250 1.247 . S
C245 O251 1.208 . S
C246 O238 1.315 . S
C246 O241 1.279 . S
C247 O248 1.315 . S
C247 O249 1.279 . S
O248 Cd240 2.223 . S
O248 C247 1.315 . S
O249 Cd239 2.240 . S
O249 C247 1.279 . S
O250 Cd240 2.297 . S
O250 C245 1.247 . S
O251 Cd240 2.439 . S
O251 C245 1.208 . S
O252 Cd253 2.223 . S
O252 C260 1.315 . S
Cd253 O252 2.223 . S
Cd253 O256 2.297 . S
Cd253 O257 2.439 . S
Cd253 O263 2.240 . S
Cd254 O255 2.240 . S
Cd254 O262 2.223 . S
Cd254 O264 2.297 . S
Cd254 O265 2.439 . S
O255 Cd254 2.240 . S
O255 C260 1.279 . S
O256 Cd253 2.297 . S
O256 C258 1.247 . S
O257 Cd253 2.439 . S
O257 C258 1.208 . S
C258 O256 1.247 . S
C258 O257 1.208 . S
C259 O264 1.247 . S
C259 O265 1.208 . S
C260 O252 1.315 . S
C260 O255 1.279 . S
C261 O262 1.315 . S
C261 O263 1.279 . S
O262 Cd254 2.223 . S
O262 C261 1.315 . S
O263 Cd253 2.240 . S
O263 C261 1.279 . S
O264 Cd254 2.297 . S
O264 C259 1.247 . S
O265 Cd254 2.439 . S
O265 C259 1.208 . S
O266 Cd267 2.223 . S
O266 C274 1.315 . S
Cd267 O266 2.223 . S
Cd267 O270 2.297 . S
Cd267 O271 2.439 . S
Cd267 O277 2.240 . S
Cd268 O269 2.240 . S
Cd268 O276 2.223 . S
Cd268 O278 2.297 . S
Cd268 O279 2.439 . S
O269 Cd268 2.240 . S
O269 C274 1.279 . S
O270 Cd267 2.297 . S
O270 C272 1.247 . S
O271 Cd267 2.439 . S
O271 C272 1.208 . S
C272 O270 1.247 . S
C272 O271 1.208 . S
C273 O278 1.247 . S
C273 O279 1.208 . S
C274 O266 1.315 . S
C274 O269 1.279 . S
C275 O276 1.315 . S
C275 O277 1.279 . S
O276 Cd268 2.223 . S
O276 C275 1.315 . S
O277 Cd267 2.240 . S
O277 C275 1.279 . S
O278 Cd268 2.297 . S
O278 C273 1.247 . S
O279 Cd268 2.439 . S
O279 C273 1.208 . S
O280 Cd281 2.223 . S
O280 C288 1.315 . S
Cd281 O280 2.223 . S
Cd281 O284 2.297 . S
Cd281 O285 2.439 . S
Cd281 O291 2.240 . S
Cd282 O283 2.240 . S
Cd282 O290 2.223 . S
Cd282 O292 2.297 . S
Cd282 O293 2.439 . S
O283 Cd282 2.240 . S
O283 C288 1.279 . S
O284 Cd281 2.297 . S
O284 C286 1.247 . S
O285 Cd281 2.439 . S
O285 C286 1.208 . S
C286 O284 1.247 . S
C286 O285 1.208 . S
C287 O292 1.247 . S
C287 O293 1.208 . S
C288 O280 1.315 . S
C288 O283 1.279 . S
C289 O290 1.315 . S
C289 O291 1.279 . S
O290 Cd282 2.223 . S
O290 C289 1.315 . S
O291 Cd281 2.240 . S
O291 C289 1.279 . S
O292 Cd282 2.297 . S
O292 C287 1.247 . S
O293 Cd282 2.439 . S
O293 C287 1.208 . S
O294 Cd295 2.223 . S
O294 C302 1.315 . S
Cd295 O294 2.223 . S
Cd295 O298 2.297 . S
Cd295 O299 2.439 . S
Cd295 O305 2.240 . S
Cd296 O297 2.240 . S
Cd296 O304 2.223 . S
Cd296 O306 2.297 . S
Cd296 O307 2.439 . S
O297 Cd296 2.240 . S
O297 C302 1.279 . S
O298 Cd295 2.297 . S
O298 C300 1.247 . S
O299 Cd295 2.439 . S
O299 C300 1.208 . S
C300 O298 1.247 . S
C300 O299 1.208 . S
C301 O306 1.247 . S
C301 O307 1.208 . S
C302 O294 1.315 . S
C302 O297 1.279 . S
C303 O304 1.315 . S
C303 O305 1.279 . S
O304 Cd296 2.223 . S
O304 C303 1.315 . S
O305 Cd295 2.240 . S
O305 C303 1.279 . S
O306 Cd296 2.297 . S
O306 C301 1.247 . S
O307 Cd296 2.439 . S
O307 C301 1.208 . S
O308 Cd309 2.223 . S
O308 C316 1.315 . S
Cd309 O308 2.223 . S
Cd309 O312 2.297 . S
Cd309 O313 2.439 . S
Cd309 O319 2.240 . S
Cd310 O311 2.240 . S
Cd310 O318 2.223 . S
Cd310 O320 2.297 . S
Cd310 O321 2.439 . S
O311 Cd310 2.240 . S
O311 C316 1.279 . S
O312 Cd309 2.297 . S
O312 C314 1.247 . S
O313 Cd309 2.439 . S
O313 C314 1.208 . S
C314 O312 1.247 . S
C314 O313 1.208 . S
C315 O320 1.247 . S
C315 O321 1.208 . S
C316 O308 1.315 . S
C316 O311 1.279 . S
C317 O318 1.315 . S
C317 O319 1.279 . S
O318 Cd310 2.223 . S
O318 C317 1.315 . S
O319 Cd309 2.240 . S
O319 C317 1.279 . S
O320 Cd310 2.297 . S
O320 C315 1.247 . S
O321 Cd310 2.439 . S
O321 C315 1.208 . S
O322 Cd323 2.223 . S
O322 C330 1.315 . S
Cd323 O322 2.223 . S
Cd323 O326 2.297 . S
Cd323 O327 2.439 . S
Cd323 O333 2.240 . S
Cd324 O325 2.240 . S
Cd324 O332 2.223 . S
Cd324 O334 2.297 . S
Cd324 O335 2.439 . S
O325 Cd324 2.240 . S
O325 C330 1.279 . S
O326 Cd323 2.297 . S
O326 C328 1.247 . S
O327 Cd323 2.439 . S
O327 C328 1.208 . S
C328 O326 1.247 . S
C328 O327 1.208 . S
C329 O334 1.247 . S
C329 O335 1.208 . S
C330 O322 1.315 . S
C330 O325 1.279 . S
C331 O332 1.315 . S
C331 O333 1.279 . S
O332 Cd324 2.223 . S
O332 C331 1.315 . S
O333 Cd323 2.240 . S
O333 C331 1.279 . S
O334 Cd324 2.297 . S
O334 C329 1.247 . S
O335 Cd324 2.439 . S
O335 C329 1.208 . S
O336 Cd337 2.223 . S
O336 C344 1.315 . S
Cd337 O336 2.223 . S
Cd337 O340 2.297 . S
Cd337 O341 2.439 . S
Cd337 O347 2.240 . S
Cd338 O339 2.240 . S
Cd338 O346 2.223 . S
Cd338 O348 2.297 . S
Cd338 O349 2.439 . S
O339 Cd338 2.240 . S
O339 C344 1.279 . S
O340 Cd337 2.297 . S
O340 C342 1.247 . S
O341 Cd337 2.439 . S
O341 C342 1.208 . S
C342 O340 1.247 . S
C342 O341 1.208 . S
C343 O348 1.247 . S
C343 O349 1.208 . S
C344 O336 1.315 . S
C344 O339 1.279 . S
C345 O346 1.315 . S
C345 O347 1.279 . S
O346 Cd338 2.223 . S
O346 C345 1.315 . S
O347 Cd337 2.240 . S
O347 C345 1.279 . S
O348 Cd338 2.297 . S
O348 C343 1.247 . S
O349 Cd338 2.439 . S
O349 C343 1.208 . S
O350 Cd351 2.223 . S
O350 C358 1.315 . S
Cd351 O350 2.223 . S
Cd351 O354 2.297 . S
Cd351 O355 2.439 . S
Cd351 O361 2.240 . S
Cd352 O353 2.240 . S
Cd352 O360 2.223 . S
Cd352 O362 2.297 . S
Cd352 O363 2.439 . S
O353 Cd352 2.240 . S
O353 C358 1.279 . S
O354 Cd351 2.297 . S
O354 C356 1.247 . S
O355 Cd351 2.439 . S
O355 C356 1.208 . S
C356 O354 1.247 . S
C356 O355 1.208 . S
C357 O362 1.247 . S
C357 O363 1.208 . S
C358 O350 1.315 . S
C358 O353 1.279 . S
C359 O360 1.315 . S
C359 O361 1.279 . S
O360 Cd352 2.223 . S
O360 C359 1.315 . S
O361 Cd351 2.240 . S
O361 C359 1.279 . S
O362 Cd352 2.297 . S
O362 C357 1.247 . S
O363 Cd352 2.439 . S
O363 C357 1.208 . S
O364 Cd365 2.223 . S
O364 C372 1.315 . S
Cd365 O364 2.223 . S
Cd365 O368 2.297 . S
Cd365 O369 2.439 . S
Cd365 O375 2.240 . S
Cd366 O367 2.240 . S
Cd366 O374 2.223 . S
Cd366 O376 2.297 . S
Cd366 O377 2.439 . S
O367 Cd366 2.240 . S
O367 C372 1.279 . S
O368 Cd365 2.297 . S
O368 C370 1.247 . S
O369 Cd365 2.439 . S
O369 C370 1.208 . S
C370 O368 1.247 . S
C370 O369 1.208 . S
C371 O376 1.247 . S
C371 O377 1.208 . S
C372 O364 1.315 . S
C372 O367 1.279 . S
C373 O374 1.315 . S
C373 O375 1.279 . S
O374 Cd366 2.223 . S
O374 C373 1.315 . S
O375 Cd365 2.240 . S
O375 C373 1.279 . S
O376 Cd366 2.297 . S
O376 C371 1.247 . S
O377 Cd366 2.439 . S
O377 C371 1.208 . S
O378 Cd379 2.223 . S
O378 C386 1.315 . S
Cd379 O378 2.223 . S
Cd379 O382 2.297 . S
Cd379 O383 2.439 . S
Cd379 O389 2.240 . S
Cd380 O381 2.240 . S
Cd380 O388 2.223 . S
Cd380 O390 2.297 . S
Cd380 O391 2.439 . S
O381 Cd380 2.240 . S
O381 C386 1.279 . S
O382 Cd379 2.297 . S
O382 C384 1.247 . S
O383 Cd379 2.439 . S
O383 C384 1.208 . S
C384 O382 1.247 . S
C384 O383 1.208 . S
C385 O390 1.247 . S
C385 O391 1.208 . S
C386 O378 1.315 . S
C386 O381 1.279 . S
C387 O388 1.315 . S
C387 O389 1.279 . S
O388 Cd380 2.223 . S
O388 C387 1.315 . S
O389 Cd379 2.240 . S
O389 C387 1.279 . S
O390 Cd380 2.297 . S
O390 C385 1.247 . S
O391 Cd380 2.439 . S
O391 C385 1.208 . S
O392 Cd393 2.223 . S
O392 C400 1.315 . S
Cd393 O392 2.223 . S
Cd393 O396 2.297 . S
Cd393 O397 2.439 . S
Cd393 O403 2.240 . S
Cd394 O395 2.240 . S
Cd394 O402 2.223 . S
Cd394 O404 2.297 . S
Cd394 O405 2.439 . S
O395 Cd394 2.240 . S
O395 C400 1.279 . S
O396 Cd393 2.297 . S
O396 C398 1.247 . S
O397 Cd393 2.439 . S
O397 C398 1.208 . S
C398 O396 1.247 . S
C398 O397 1.208 . S
C399 O404 1.247 . S
C399 O405 1.208 . S
C400 O392 1.315 . S
C400 O395 1.279 . S
C401 O402 1.315 . S
C401 O403 1.279 . S
O402 Cd394 2.223 . S
O402 C401 1.315 . S
O403 Cd393 2.240 . S
O403 C401 1.279 . S
O404 Cd394 2.297 . S
O404 C399 1.247 . S
O405 Cd394 2.439 . S
O405 C399 1.208 . S
O406 Cd407 2.223 . S
O406 C414 1.315 . S
Cd407 O406 2.223 . S
Cd407 O410 2.297 . S
Cd407 O411 2.439 . S
Cd407 O417 2.240 . S
Cd408 O409 2.240 . S
Cd408 O416 2.223 . S
Cd408 O418 2.297 . S
Cd408 O419 2.439 . S
O409 Cd408 2.240 . S
O409 C414 1.279 . S
O410 Cd407 2.297 . S
O410 C412 1.247 . S
O411 Cd407 2.439 . S
O411 C412 1.208 . S
C412 O410 1.247 . S
C412 O411 1.208 . S
C413 O418 1.247 . S
C413 O419 1.208 . S
C414 O406 1.315 . S
C414 O409 1.279 . S
C415 O416 1.315 . S
C415 O417 1.279 . S
O416 Cd408 2.223 . S
O416 C415 1.315 . S
O417 Cd407 2.240 . S
O417 C415 1.279 . S
O418 Cd408 2.297 . S
O418 C413 1.247 . S
O419 Cd408 2.439 . S
O419 C413 1.208 . S
O420 Cd421 2.223 . S
O420 C428 1.315 . S
Cd421 O420 2.223 . S
Cd421 O424 2.297 . S
Cd421 O425 2.439 . S
Cd421 O431 2.240 . S
Cd422 O423 2.240 . S
Cd422 O430 2.223 . S
Cd422 O432 2.297 . S
Cd422 O433 2.439 . S
O423 Cd422 2.240 . S
O423 C428 1.279 . S
O424 Cd421 2.297 . S
O424 C426 1.247 . S
O425 Cd421 2.439 . S
O425 C426 1.208 . S
C426 O424 1.247 . S
C426 O425 1.208 . S
C427 O432 1.247 . S
C427 O433 1.208 . S
C428 O420 1.315 . S
C428 O423 1.279 . S
C429 O430 1.315 . S
C429 O431 1.279 . S
O430 Cd422 2.223 . S
O430 C429 1.315 . S
O431 Cd421 2.240 . S
O431 C429 1.279 . S
O432 Cd422 2.297 . S
O432 C427 1.247 . S
O433 Cd422 2.439 . S
O433 C427 1.208 . S
O434 Cd435 2.223 . S
O434 C442 1.315 . S
Cd435 O434 2.223 . S
Cd435 O438 2.297 . S
Cd435 O439 2.439 . S
Cd435 O445 2.240 . S
Cd436 O437 2.240 . S
Cd436 O444 2.223 . S
Cd436 O446 2.297 . S
Cd436 O447 2.439 . S
O437 Cd436 2.240 . S
O437 C442 1.279 . S
O438 Cd435 2.297 . S
O438 C440 1.247 . S
O439 Cd435 2.439 . S
O439 C440 1.208 . S
C440 O438 1.247 . S
C440 O439 1.208 . S
C441 O446 1.247 . S
C441 O447 1.208 . S
C442 O434 1.315 . S
C442 O437 1.279 . S
C443 O444 1.315 . S
C443 O445 1.279 . S
O444 Cd436 2.223 . S
O444 C443 1.315 . S
O445 Cd435 2.240 . S
O445 C443 1.279 . S
O446 Cd436 2.297 . S
O446 C441 1.247 . S
O447 Cd436 2.439 . S
O447 C441 1.208 . S
O448 Cd449 2.223 . S
O448 C456 1.315 . S
Cd449 O448 2.223 . S
Cd449 O452 2.297 . S
Cd449 O453 2.439 . S
Cd449 O459 2.240 . S
Cd450 O451 2.240 . S
Cd450 O458 2.223 . S
Cd450 O460 2.297 . S
Cd450 O461 2.439 . S
O451 Cd450 2.240 . S
O451 C456 1.279 . S
O452 Cd449 2.297 . S
O452 C454 1.247 . S
O453 Cd449 2.439 . S
O453 C454 1.208 . S
C454 O452 1.247 . S
C454 O453 1.208 . S
C455 O460 1.247 . S
C455 O461 1.208 . S
C456 O448 1.315 . S
C456 O451 1.279 . S
C457 O458 1.315 . S
C457 O459 1.279 . S
O458 Cd450 2.223 . S
O458 C457 1.315 . S
O459 Cd449 2.240 . S
O459 C457 1.279 . S
O460 Cd450 2.297 . S
O460 C455 1.247 . S
O461 Cd450 2.439 . S
O461 C455 1.208 . S
O462 Cd463 2.223 . S
O462 C470 1.315 . S
Cd463 O462 2.223 . S
Cd463 O466 2.297 . S
Cd463 O467 2.439 . S
Cd463 O473 2.240 . S
Cd464 O465 2.240 . S
Cd464 O472 2.223 . S
Cd464 O474 2.297 . S
Cd464 O475 2.439 . S
O465 Cd464 2.240 . S
O465 C470 1.279 . S
O466 Cd463 2.297 . S
O466 C468 1.247 . S
O467 Cd463 2.439 . S
O467 C468 1.208 . S
C468 O466 1.247 . S
C468 O467 1.208 . S
C469 O474 1.247 . S
C469 O475 1.208 . S
C470 O462 1.315 . S
C470 O465 1.279 . S
C471 O472 1.315 . S
C471 O473 1.279 . S
O472 Cd464 2.223 . S
O472 C471 1.315 . S
O473 Cd463 2.240 . S
O473 C471 1.279 . S
O474 Cd464 2.297 . S
O474 C469 1.247 . S
O475 Cd464 2.439 . S
O475 C469 1.208 . S
O476 Cd477 2.223 . S
O476 C484 1.315 . S
Cd477 O476 2.223 . S
Cd477 O480 2.297 . S
Cd477 O481 2.439 . S
Cd477 O487 2.240 . S
Cd478 O479 2.240 . S
Cd478 O486 2.223 . S
Cd478 O488 2.297 . S
Cd478 O489 2.439 . S
O479 Cd478 2.240 . S
O479 C484 1.279 . S
O480 Cd477 2.297 . S
O480 C482 1.247 . S
O481 Cd477 2.439 . S
O481 C482 1.208 . S
C482 O480 1.247 . S
C482 O481 1.208 . S
C483 O488 1.247 . S
C483 O489 1.208 . S
C484 O476 1.315 . S
C484 O479 1.279 . S
C485 O486 1.315 . S
C485 O487 1.279 . S
O486 Cd478 2.223 . S
O486 C485 1.315 . S
O487 Cd477 2.240 . S
O487 C485 1.279 . S
O488 Cd478 2.297 . S
O488 C483 1.247 . S
O489 Cd478 2.439 . S
O489 C483 1.208 . S
O490 Cd491 2.223 . S
O490 C498 1.315 . S
Cd491 O490 2.223 . S
Cd491 O494 2.297 . S
Cd491 O495 2.439 . S
Cd491 O501 2.240 . S
Cd492 O493 2.240 . S
Cd492 O500 2.223 . S
Cd492 O502 2.297 . S
Cd492 O503 2.439 . S
O493 Cd492 2.240 . S
O493 C498 1.279 . S
O494 Cd491 2.297 . S
O494 C496 1.247 . S
O495 Cd491 2.439 . S
O495 C496 1.208 . S
C496 O494 1.247 . S
C496 O495 1.208 . S
C497 O502 1.247 . S
C497 O503 1.208 . S
C498 O490 1.315 . S
C498 O493 1.279 . S
C499 O500 1.315 . S
C499 O501 1.279 . S
O500 Cd492 2.223 . S
O500 C499 1.315 . S
O501 Cd491 2.240 . S
O501 C499 1.279 . S
O502 Cd492 2.297 . S
O502 C497 1.247 . S
O503 Cd492 2.439 . S
O503 C497 1.208 . S
H504 C510 0.930 . S
H505 C513 0.930 . S
H506 C514 0.930 . S
H507 C515 0.930 . S
H508 C518 0.930 . S
H509 C519 0.930 . S
C510 H504 0.930 . S
C510 C511 1.355 1_554 S
C510 C512 1.415 . S
C511 C510 1.355 1_556 S
C511 C513 1.419 . S
C512 C510 1.415 . S
C512 C517 1.425 1_654 S
C512 C519 1.409 1_655 S
C513 H505 0.930 . S
C513 C511 1.419 . S
C513 C514 1.362 . S
C514 H506 0.930 . S
C514 C513 1.362 . S
C514 C517 1.409 1_655 S
C515 H507 0.930 . S
C515 C516 1.355 1_556 S
C515 C517 1.415 . S
C516 C515 1.355 1_554 S
C516 C518 1.419 . S
C517 C512 1.425 1_456 S
C517 C514 1.409 1_455 S
C517 C515 1.415 . S
C518 H508 0.930 . S
C518 C516 1.419 . S
C518 C519 1.362 . S
C519 H509 0.930 . S
C519 C512 1.409 1_455 S
C519 C518 1.362 . S
H520 C526 0.930 . S
H521 C529 0.930 . S
H522 C530 0.930 . S
H523 C531 0.930 . S
H524 C534 0.930 . S
H525 C535 0.930 . S
C526 H520 0.930 . S
C526 C527 1.355 1_554 S
C526 C528 1.415 . S
C527 C526 1.355 1_556 S
C527 C529 1.419 . S
C528 C526 1.415 . S
C528 C533 1.425 1_554 S
C528 C535 1.409 . S
C529 H521 0.930 . S
C529 C527 1.419 . S
C529 C530 1.362 . S
C530 H522 0.930 . S
C530 C529 1.362 . S
C530 C533 1.409 . S
C531 H523 0.930 . S
C531 C532 1.355 1_556 S
C531 C533 1.415 . S
C532 C531 1.355 1_554 S
C532 C534 1.419 . S
C533 C528 1.425 1_556 S
C533 C530 1.409 . S
C533 C531 1.415 . S
C534 H524 0.930 . S
C534 C532 1.419 . S
C534 C535 1.362 . S
C535 H525 0.930 . S
C535 C528 1.409 . S
C535 C534 1.362 . S
H536 C542 0.930 . S
H537 C545 0.930 . S
H538 C546 0.930 . S
H539 C547 0.930 . S
H540 C550 0.930 . S
H541 C551 0.930 . S
C542 H536 0.930 . S
C542 C543 1.355 1_554 S
C542 C544 1.415 . S
C543 C542 1.355 1_556 S
C543 C545 1.419 . S
C544 C542 1.415 . S
C544 C549 1.425 1_544 S
C544 C551 1.409 1_545 S
C545 H537 0.930 . S
C545 C543 1.419 . S
C545 C546 1.362 . S
C546 H538 0.930 . S
C546 C545 1.362 . S
C546 C549 1.409 1_545 S
C547 H539 0.930 . S
C547 C548 1.355 1_556 S
C547 C549 1.415 . S
C548 C547 1.355 1_554 S
C548 C550 1.419 . S
C549 C544 1.425 1_566 S
C549 C546 1.409 1_565 S
C549 C547 1.415 . S
C550 H540 0.930 . S
C550 C548 1.419 . S
C550 C551 1.362 . S
C551 H541 0.930 . S
C551 C544 1.409 1_565 S
C551 C550 1.362 . S
H552 C558 0.930 . S
H553 C561 0.930 . S
H554 C562 0.930 . S
H555 C563 0.930 . S
H556 C566 0.930 . S
H557 C567 0.930 . S
C558 H552 0.930 . S
C558 C559 1.355 1_556 S
C558 C560 1.415 . S
C559 C558 1.355 1_554 S
C559 C561 1.419 . S
C560 C558 1.415 . S
C560 C565 1.425 1_456 S
C560 C567 1.409 1_455 S
C561 H553 0.930 . S
C561 C559 1.419 . S
C561 C562 1.362 . S
C562 H554 0.930 . S
C562 C561 1.362 . S
C562 C565 1.409 1_455 S
C563 H555 0.930 . S
C563 C564 1.355 1_554 S
C563 C565 1.415 . S
C564 C563 1.355 1_556 S
C564 C566 1.419 . S
C565 C560 1.425 1_654 S
C565 C562 1.409 1_655 S
C565 C563 1.415 . S
C566 H556 0.930 . S
C566 C564 1.419 . S
C566 C567 1.362 . S
C567 H557 0.930 . S
C567 C560 1.409 1_655 S
C567 C566 1.362 . S
H568 C574 0.930 . S
H569 C577 0.930 . S
H570 C578 0.930 . S
H571 C579 0.930 . S
H572 C582 0.930 . S
H573 C583 0.930 . S
C574 H568 0.930 . S
C574 C575 1.355 1_556 S
C574 C576 1.415 . S
C575 C574 1.355 1_554 S
C575 C577 1.419 . S
C576 C574 1.415 . S
C576 C581 1.425 1_556 S
C576 C583 1.409 . S
C577 H569 0.930 . S
C577 C575 1.419 . S
C577 C578 1.362 . S
C578 H570 0.930 . S
C578 C577 1.362 . S
C578 C581 1.409 . S
C579 H571 0.930 . S
C579 C580 1.355 1_554 S
C579 C581 1.415 . S
C580 C579 1.355 1_556 S
C580 C582 1.419 . S
C581 C576 1.425 1_554 S
C581 C578 1.409 . S
C581 C579 1.415 . S
C582 H572 0.930 . S
C582 C580 1.419 . S
C582 C583 1.362 . S
C583 H573 0.930 . S
C583 C576 1.409 . S
C583 C582 1.362 . S
H584 C590 0.930 . S
H585 C593 0.930 . S
H586 C594 0.930 . S
H587 C595 0.930 . S
H588 C598 0.930 . S
H589 C599 0.930 . S
C590 H584 0.930 . S
C590 C591 1.355 1_554 S
C590 C592 1.415 . S
C591 C590 1.355 1_556 S
C591 C593 1.419 . S
C592 C590 1.415 . S
C592 C597 1.425 1_564 S
C592 C599 1.409 1_565 S
C593 H585 0.930 . S
C593 C591 1.419 . S
C593 C594 1.362 . S
C594 H586 0.930 . S
C594 C593 1.362 . S
C594 C597 1.409 1_565 S
C595 H587 0.930 . S
C595 C596 1.355 1_556 S
C595 C597 1.415 . S
C596 C595 1.355 1_554 S
C596 C598 1.419 . S
C597 C592 1.425 1_546 S
C597 C594 1.409 1_545 S
C597 C595 1.415 . S
C598 H588 0.930 . S
C598 C596 1.419 . S
C598 C599 1.362 . S
C599 H589 0.930 . S
C599 C592 1.409 1_545 S
C599 C598 1.362 . S
H600 C606 0.930 . S
H601 C609 0.930 . S
H602 C610 0.930 . S
H603 C611 0.930 . S
H604 C614 0.930 . S
H605 C615 0.930 . S
C606 H600 0.930 . S
C606 C607 1.355 . S
C606 C608 1.415 . S
C607 C606 1.355 . S
C607 C609 1.419 . S
C608 C606 1.415 . S
C608 C613 1.425 . S
C608 C615 1.409 . S
C609 H601 0.930 . S
C609 C607 1.419 . S
C609 C610 1.362 . S
C610 H602 0.930 . S
C610 C609 1.362 . S
C610 C613 1.409 . S
C611 H603 0.930 . S
C611 C612 1.355 . S
C611 C613 1.415 . S
C612 C611 1.355 . S
C612 C614 1.419 . S
C613 C608 1.425 . S
C613 C610 1.409 . S
C613 C611 1.415 . S
C614 H604 0.930 . S
C614 C612 1.419 . S
C614 C615 1.362 . S
C615 H605 0.930 . S
C615 C608 1.409 . S
C615 C614 1.362 . S
H616 C622 0.930 . S
H617 C625 0.930 . S
H618 C626 0.930 . S
H619 C627 0.930 . S
H620 C630 0.930 . S
H621 C631 0.930 1_565 S
C622 H616 0.930 . S
C622 C623 1.355 . S
C622 C624 1.415 1_565 S
C623 C622 1.355 . S
C623 C625 1.419 1_565 S
C624 C622 1.415 1_545 S
C624 C629 1.425 . S
C624 C631 1.409 . S
C625 H617 0.930 . S
C625 C623 1.419 1_545 S
C625 C626 1.362 . S
C626 H618 0.930 . S
C626 C625 1.362 . S
C626 C629 1.409 . S
C627 H619 0.930 . S
C627 C628 1.355 . S
C627 C629 1.415 . S
C628 C627 1.355 . S
C628 C630 1.419 . S
C629 C624 1.425 . S
C629 C626 1.409 . S
C629 C627 1.415 . S
C630 H620 0.930 . S
C630 C628 1.419 . S
C630 C631 1.362 . S
C631 H621 0.930 1_545 S
C631 C624 1.409 . S
C631 C630 1.362 . S
H632 C638 0.930 . S
H633 C641 0.930 . S
H634 C642 0.930 . S
H635 C643 0.930 . S
H636 C646 0.935 . S
H637 C647 0.930 . S
C638 H632 0.930 . S
C638 C639 1.355 . S
C638 C640 1.415 . S
C639 C638 1.355 . S
C639 C641 1.419 . S
C640 C638 1.415 . S
C640 C645 1.425 . S
C640 C647 1.409 . S
C641 H633 0.930 . S
C641 C639 1.419 . S
C641 C642 1.362 . S
C642 H634 0.930 . S
C642 C641 1.362 . S
C642 C645 1.409 . S
C643 H635 0.930 . S
C643 C644 1.355 1_655 S
C643 C645 1.415 . S
C644 C643 1.355 1_455 S
C644 C646 1.415 . S
C645 C640 1.425 . S
C645 C642 1.409 . S
C645 C643 1.415 . S
C646 H636 0.935 . S
C646 C644 1.415 . S
C646 C647 1.364 1_455 S
C647 H637 0.930 . S
C647 C640 1.409 . S
C647 C646 1.364 1_655 S
H648 C654 0.930 . S
H649 C657 0.930 . S
H650 C658 0.930 . S
H651 C659 0.930 . S
H652 C662 0.930 . S
H653 C663 0.930 . S
C654 H648 0.930 . S
C654 C655 1.355 1_545 S
C654 C656 1.415 . S
C655 C654 1.355 1_565 S
C655 C657 1.419 . S
C656 C654 1.415 . S
C656 C661 1.425 . S
C656 C663 1.409 . S
C657 H649 0.930 . S
C657 C655 1.419 . S
C657 C658 1.362 . S
C658 H650 0.930 . S
C658 C657 1.362 . S
C658 C661 1.409 1_565 S
C659 H651 0.930 . S
C659 C660 1.355 . S
C659 C661 1.415 . S
C660 C659 1.355 . S
C660 C662 1.419 . S
C661 C656 1.425 . S
C661 C658 1.409 1_545 S
C661 C659 1.415 . S
C662 H652 0.930 . S
C662 C660 1.419 . S
C662 C663 1.362 . S
C663 H653 0.930 . S
C663 C656 1.409 . S
C663 C662 1.362 . S
H664 C670 0.930 . S
H665 C673 0.930 . S
H666 C674 0.930 . S
H667 C675 0.930 . S
H668 C678 0.930 . S
H669 C679 0.930 . S
C670 H664 0.930 . S
C670 C671 1.355 . S
C670 C672 1.415 . S
C671 C670 1.355 . S
C671 C673 1.419 . S
C672 C670 1.415 . S
C672 C677 1.425 . S
C672 C679 1.409 . S
C673 H665 0.930 . S
C673 C671 1.419 . S
C673 C674 1.362 . S
C674 H666 0.930 . S
C674 C673 1.362 . S
C674 C677 1.409 . S
C675 H667 0.930 . S
C675 C676 1.355 . S
C675 C677 1.415 1_455 S
C676 C675 1.355 . S
C676 C678 1.419 1_455 S
C677 C672 1.425 . S
C677 C674 1.409 . S
C677 C675 1.415 1_655 S
C678 H668 0.930 . S
C678 C676 1.419 1_655 S
C678 C679 1.362 . S
C679 H669 0.930 . S
C679 C672 1.409 . S
C679 C678 1.362 . S
H680 C686 0.930 . S
H681 C689 0.930 . S
H682 C690 0.930 . S
H683 C691 0.930 . S
H684 C694 0.930 . S
H685 C695 0.930 . S
C686 H680 0.930 . S
C686 C687 1.355 . S
C686 C688 1.415 . S
C687 C686 1.355 . S
C687 C689 1.419 . S
C688 C686 1.415 . S
C688 C693 1.425 . S
C688 C695 1.409 . S
C689 H681 0.930 . S
C689 C687 1.419 . S
C689 C690 1.362 . S
C690 H682 0.930 . S
C690 C689 1.362 . S
C690 C693 1.409 . S
C691 H683 0.930 . S
C691 C692 1.355 . S
C691 C693 1.415 . S
C692 C691 1.355 . S
C692 C694 1.419 . S
C693 C688 1.425 . S
C693 C690 1.409 . S
C693 C691 1.415 . S
C694 H684 0.930 . S
C694 C692 1.419 . S
C694 C695 1.362 . S
C695 H685 0.930 . S
C695 C688 1.409 . S
C695 C694 1.362 . S
H696 C702 0.930 . S
H697 C705 0.930 . S
H698 C706 0.930 . S
H699 C707 0.930 . S
H700 C710 0.930 . S
H701 C711 0.930 . S
C702 H696 0.930 . S
C702 C703 1.355 . S
C702 C704 1.415 . S
C703 C702 1.355 . S
C703 C705 1.419 . S
C704 C702 1.415 . S
C704 C709 1.425 . S
C704 C711 1.409 1_565 S
C705 H697 0.930 . S
C705 C703 1.419 . S
C705 C706 1.362 . S
C706 H698 0.930 . S
C706 C705 1.362 . S
C706 C709 1.409 . S
C707 H699 0.930 . S
C707 C708 1.355 1_565 S
C707 C709 1.415 . S
C708 C707 1.355 1_545 S
C708 C710 1.419 . S
C709 C704 1.425 . S
C709 C706 1.409 . S
C709 C707 1.415 . S
C710 H700 0.930 . S
C710 C708 1.419 . S
C710 C711 1.362 . S
C711 H701 0.930 . S
C711 C704 1.409 1_545 S
C711 C710 1.362 . S
H712 C718 0.930 . S
H713 C721 0.930 . S
H714 C722 0.930 . S
H715 C723 0.930 . S
H716 C726 0.930 . S
H717 C727 0.930 . S
C718 H712 0.930 . S
C718 C719 1.355 . S
C718 C720 1.415 1_655 S
C719 C718 1.355 . S
C719 C721 1.419 1_655 S
C720 C718 1.415 1_455 S
C720 C725 1.425 . S
C720 C727 1.409 . S
C721 H713 0.930 . S
C721 C719 1.419 1_455 S
C721 C722 1.362 . S
C722 H714 0.930 . S
C722 C721 1.362 . S
C722 C725 1.409 . S
C723 H715 0.930 . S
C723 C724 1.355 . S
C723 C725 1.415 . S
C724 C723 1.355 . S
C724 C726 1.419 . S
C725 C720 1.425 . S
C725 C722 1.409 . S
C725 C723 1.415 . S
C726 H716 0.930 . S
C726 C724 1.419 . S
C726 C727 1.362 . S
C727 H717 0.930 . S
C727 C720 1.409 . S
C727 C726 1.362 . S
H728 C734 0.930 . S
H729 C737 0.930 . S
H730 C738 0.930 . S
H731 C739 0.930 . S
H732 C742 0.930 . S
H733 C743 0.930 . S
C734 H728 0.930 . S
C734 C735 1.355 . S
C734 C736 1.415 . S
C735 C734 1.355 . S
C735 C737 1.419 . S
C736 C734 1.415 . S
C736 C741 1.425 . S
C736 C743 1.409 . S
C737 H729 0.930 . S
C737 C735 1.419 . S
C737 C738 1.362 . S
C738 H730 0.930 . S
C738 C737 1.362 . S
C738 C741 1.409 . S
C739 H731 0.930 . S
C739 C740 1.355 . S
C739 C741 1.415 . S
C740 C739 1.355 . S
C740 C742 1.419 . S
C741 C736 1.425 . S
C741 C738 1.409 . S
C741 C739 1.415 . S
C742 H732 0.930 . S
C742 C740 1.419 . S
C742 C743 1.362 . S
C743 H733 0.930 . S
C743 C736 1.409 . S
C743 C742 1.362 . S
H744 C750 0.930 . S
H745 C753 0.930 . S
H746 C754 0.930 . S
H747 C755 0.930 . S
H748 C758 0.930 . S
H749 C759 0.930 . S
C750 H744 0.930 . S
C750 C751 1.355 . S
C750 C752 1.415 . S
C751 C750 1.355 . S
C751 C753 1.419 . S
C752 C750 1.415 . S
C752 C757 1.425 . S
C752 C759 1.409 . S
C753 H745 0.930 . S
C753 C751 1.419 . S
C753 C754 1.362 . S
C754 H746 0.930 . S
C754 C753 1.362 . S
C754 C757 1.409 . S
C755 H747 0.930 . S
C755 C756 1.355 . S
C755 C757 1.415 . S
C756 C755 1.355 . S
C756 C758 1.419 . S
C757 C752 1.425 . S
C757 C754 1.409 . S
C757 C755 1.415 . S
C758 H748 0.930 . S
C758 C756 1.419 . S
C758 C759 1.362 . S
C759 H749 0.930 . S
C759 C752 1.409 . S
C759 C758 1.362 . S
H760 C766 0.930 . S
H761 C769 0.930 . S
H762 C770 0.930 1_545 S
H763 C771 0.930 . S
H764 C774 0.930 . S
H765 C775 0.930 . S
C766 H760 0.930 . S
C766 C767 1.355 . S
C766 C768 1.415 . S
C767 C766 1.355 . S
C767 C769 1.419 . S
C768 C766 1.415 . S
C768 C773 1.425 . S
C768 C775 1.409 . S
C769 H761 0.930 . S
C769 C767 1.419 . S
C769 C770 1.362 . S
C770 H762 0.930 1_565 S
C770 C769 1.362 . S
C770 C773 1.409 . S
C771 H763 0.930 . S
C771 C772 1.355 . S
C771 C773 1.415 1_545 S
C772 C771 1.355 . S
C772 C774 1.419 1_545 S
C773 C768 1.425 . S
C773 C770 1.409 . S
C773 C771 1.415 1_565 S
C774 H764 0.930 . S
C774 C772 1.419 1_565 S
C774 C775 1.362 . S
C775 H765 0.930 . S
C775 C768 1.409 . S
C775 C774 1.362 . S
H776 C782 0.930 . S
H777 C785 0.930 . S
H778 C786 0.955 . S
H779 C787 0.930 . S
H780 C790 0.930 . S
H781 C791 0.930 . S
C782 H776 0.930 . S
C782 C783 1.355 . S
C782 C784 1.415 . S
C783 C782 1.355 . S
C783 C785 1.419 . S
C784 C782 1.415 . S
C784 C789 1.425 . S
C784 C791 1.409 . S
C785 H777 0.930 . S
C785 C783 1.419 . S
C785 C786 1.358 1_455 S
C786 H778 0.955 . S
C786 C785 1.358 1_655 S
C786 C789 1.390 1_655 S
C787 H779 0.930 . S
C787 C788 1.402 . S
C787 C789 1.415 1_655 S
C788 C787 1.402 . S
C788 C790 1.362 1_655 S
C789 C784 1.425 . S
C789 C786 1.390 1_455 S
C789 C787 1.415 1_455 S
C790 H780 0.930 . S
C790 C788 1.362 1_455 S
C790 C791 1.362 . S
C791 H781 0.930 . S
C791 C784 1.409 . S
C791 C790 1.362 . S
H792 C798 0.930 . S
H793 C801 0.930 . S
H794 C802 0.930 . S
H795 C803 0.930 . S
H796 C806 0.930 . S
H797 C807 0.930 . S
C798 H792 0.930 . S
C798 C799 1.355 . S
C798 C800 1.415 . S
C799 C798 1.355 . S
C799 C801 1.419 1_554 S
C800 C798 1.415 . S
C800 C805 1.425 1_554 S
C800 C807 1.409 . S
C801 H793 0.930 . S
C801 C799 1.419 1_556 S
C801 C802 1.362 . S
C802 H794 0.930 . S
C802 C801 1.362 . S
C802 C805 1.409 . S
C803 H795 0.930 . S
C803 C804 1.355 1_556 S
C803 C805 1.415 . S
C804 C803 1.355 1_554 S
C804 C806 1.419 . S
C805 C800 1.425 1_556 S
C805 C802 1.409 . S
C805 C803 1.415 . S
C806 H796 0.930 . S
C806 C804 1.419 . S
C806 C807 1.362 . S
C807 H797 0.930 . S
C807 C800 1.409 . S
C807 C806 1.362 . S
H808 C814 0.930 . S
H809 C817 0.930 . S
H810 C818 0.930 . S
H811 C819 0.930 . S
H812 C822 0.930 . S
H813 C823 0.930 . S
C814 H808 0.930 . S
C814 C815 1.355 . S
C814 C816 1.415 . S
C815 C814 1.355 . S
C815 C817 1.419 1_554 S
C816 C814 1.415 . S
C816 C821 1.425 1_554 S
C816 C823 1.409 . S
C817 H809 0.930 . S
C817 C815 1.419 1_556 S
C817 C818 1.362 . S
C818 H810 0.930 . S
C818 C817 1.362 . S
C818 C821 1.409 . S
C819 H811 0.930 . S
C819 C820 1.355 1_556 S
C819 C821 1.415 . S
C820 C819 1.355 1_554 S
C820 C822 1.419 . S
C821 C816 1.425 1_556 S
C821 C818 1.409 . S
C821 C819 1.415 . S
C822 H812 0.930 . S
C822 C820 1.419 . S
C822 C823 1.362 . S
C823 H813 0.930 . S
C823 C816 1.409 . S
C823 C822 1.362 . S
H824 C830 0.930 . S
H825 C833 0.930 . S
H826 C834 0.930 . S
H827 C835 0.930 . S
H828 C838 0.930 . S
H829 C839 0.930 . S
C830 H824 0.930 . S
C830 C831 1.355 . S
C830 C832 1.415 . S
C831 C830 1.355 . S
C831 C833 1.419 1_554 S
C832 C830 1.415 . S
C832 C837 1.425 1_554 S
C832 C839 1.409 . S
C833 H825 0.930 . S
C833 C831 1.419 1_556 S
C833 C834 1.362 . S
C834 H826 0.930 . S
C834 C833 1.362 . S
C834 C837 1.409 . S
C835 H827 0.930 . S
C835 C836 1.355 1_556 S
C835 C837 1.415 . S
C836 C835 1.355 1_554 S
C836 C838 1.419 . S
C837 C832 1.425 1_556 S
C837 C834 1.409 . S
C837 C835 1.415 . S
C838 H828 0.930 . S
C838 C836 1.419 . S
C838 C839 1.362 . S
C839 H829 0.930 . S
C839 C832 1.409 . S
C839 C838 1.362 . S
H840 C846 0.930 . S
H841 C849 0.930 . S
H842 C850 0.930 . S
H843 C851 0.930 . S
H844 C854 0.930 . S
H845 C855 0.930 . S
C846 H840 0.930 . S
C846 C847 1.355 . S
C846 C848 1.415 . S
C847 C846 1.355 . S
C847 C849 1.419 1_556 S
C848 C846 1.415 . S
C848 C853 1.425 1_556 S
C848 C855 1.409 . S
C849 H841 0.930 . S
C849 C847 1.419 1_554 S
C849 C850 1.362 . S
C850 H842 0.930 . S
C850 C849 1.362 . S
C850 C853 1.409 . S
C851 H843 0.930 . S
C851 C852 1.355 1_554 S
C851 C853 1.415 . S
C852 C851 1.355 1_556 S
C852 C854 1.419 . S
C853 C848 1.425 1_554 S
C853 C850 1.409 . S
C853 C851 1.415 . S
C854 H844 0.930 . S
C854 C852 1.419 . S
C854 C855 1.362 . S
C855 H845 0.930 . S
C855 C848 1.409 . S
C855 C854 1.362 . S
H856 C862 0.930 . S
H857 C865 0.930 . S
H858 C866 0.930 . S
H859 C867 0.930 . S
H860 C870 0.930 . S
H861 C871 0.930 . S
C862 H856 0.930 . S
C862 C863 1.355 1_554 S
C862 C864 1.415 . S
C863 C862 1.355 1_556 S
C863 C865 1.419 . S
C864 C862 1.415 . S
C864 C869 1.425 1_554 S
C864 C871 1.409 . S
C865 H857 0.930 . S
C865 C863 1.419 . S
C865 C866 1.362 . S
C866 H858 0.930 . S
C866 C865 1.362 . S
C866 C869 1.409 . S
C867 H859 0.930 . S
C867 C868 1.355 . S
C867 C869 1.415 . S
C868 C867 1.355 . S
C868 C870 1.419 1_556 S
C869 C864 1.425 1_556 S
C869 C866 1.409 . S
C869 C867 1.415 . S
C870 H860 0.930 . S
C870 C868 1.419 1_554 S
C870 C871 1.362 . S
C871 H861 0.930 . S
C871 C864 1.409 . S
C871 C870 1.362 . S
H872 C878 0.930 . S
H873 C881 0.930 . S
H874 C882 0.930 . S
H875 C883 0.930 . S
H876 C886 0.930 . S
H877 C887 0.931 . S
C878 H872 0.930 . S
C878 C879 1.355 . S
C878 C880 1.415 . S
C879 C878 1.355 . S
C879 C881 1.419 . S
C880 C878 1.415 . S
C880 C885 1.425 . S
C880 C887 1.409 . S
C881 H873 0.930 . S
C881 C879 1.419 . S
C881 C882 1.362 . S
C882 H874 0.930 . S
C882 C881 1.362 . S
C882 C885 1.409 . S
C883 H875 0.930 . S
C883 C884 1.355 . S
C883 C885 1.415 . S
C884 C883 1.355 . S
C884 C886 1.419 . S
C885 C880 1.425 . S
C885 C882 1.409 . S
C885 C883 1.415 . S
C886 H876 0.930 . S
C886 C884 1.419 . S
C886 C887 1.362 . S
C887 H877 0.931 . S
C887 C880 1.409 . S
C887 C886 1.362 . S
H888 C894 0.930 . S
H889 C897 0.930 . S
H890 C898 0.930 . S
H891 C899 0.930 . S
H892 C902 0.930 . S
H893 C903 0.930 . S
C894 H888 0.930 . S
C894 C895 1.355 . S
C894 C896 1.415 . S
C895 C894 1.355 . S
C895 C897 1.419 . S
C896 C894 1.415 . S
C896 C901 1.425 . S
C896 C903 1.409 . S
C897 H889 0.930 . S
C897 C895 1.419 . S
C897 C898 1.362 . S
C898 H890 0.930 . S
C898 C897 1.362 . S
C898 C901 1.409 . S
C899 H891 0.930 . S
C899 C900 1.355 . S
C899 C901 1.415 . S
C900 C899 1.355 . S
C900 C902 1.419 . S
C901 C896 1.425 . S
C901 C898 1.409 . S
C901 C899 1.415 . S
C902 H892 0.930 . S
C902 C900 1.419 . S
C902 C903 1.362 . S
C903 H893 0.930 . S
C903 C896 1.409 . S
C903 C902 1.362 . S
H904 C910 0.930 . S
H905 C913 0.930 . S
H906 C914 0.930 . S
H907 C915 0.930 . S
H908 C918 0.930 . S
H909 C919 0.930 . S
C910 H904 0.930 . S
C910 C911 1.355 . S
C910 C912 1.415 . S
C911 C910 1.355 . S
C911 C913 1.419 . S
C912 C910 1.415 . S
C912 C917 1.425 . S
C912 C919 1.409 . S
C913 H905 0.930 . S
C913 C911 1.419 . S
C913 C914 1.362 . S
C914 H906 0.930 . S
C914 C913 1.362 . S
C914 C917 1.409 . S
C915 H907 0.930 . S
C915 C916 1.355 . S
C915 C917 1.415 . S
C916 C915 1.355 . S
C916 C918 1.419 . S
C917 C912 1.425 . S
C917 C914 1.409 . S
C917 C915 1.415 . S
C918 H908 0.930 . S
C918 C916 1.419 . S
C918 C919 1.362 . S
C919 H909 0.930 . S
C919 C912 1.409 . S
C919 C918 1.362 . S
H920 C926 0.930 . S
H921 C929 0.930 . S
H922 C930 0.930 . S
H923 C931 0.930 . S
H924 C934 0.930 . S
H925 C935 0.930 . S
C926 H920 0.930 . S
C926 C927 1.355 . S
C926 C928 1.415 . S
C927 C926 1.355 . S
C927 C929 1.419 . S
C928 C926 1.415 . S
C928 C933 1.425 . S
C928 C935 1.409 . S
C929 H921 0.930 . S
C929 C927 1.419 . S
C929 C930 1.362 . S
C930 H922 0.930 . S
C930 C929 1.362 . S
C930 C933 1.409 . S
C931 H923 0.930 . S
C931 C932 1.355 . S
C931 C933 1.415 . S
C932 C931 1.355 . S
C932 C934 1.419 . S
C933 C928 1.425 . S
C933 C930 1.409 . S
C933 C931 1.415 . S
C934 H924 0.930 . S
C934 C932 1.419 . S
C934 C935 1.362 . S
C935 H925 0.930 . S
C935 C928 1.409 . S
C935 C934 1.362 . S
H936 C942 0.930 . S
H937 C945 0.930 . S
H938 C946 0.930 . S
H939 C947 0.930 . S
H940 C950 0.930 . S
H941 C951 0.930 1_655 S
C942 H936 0.930 . S
C942 C943 1.355 . S
C942 C944 1.415 . S
C943 C942 1.355 . S
C943 C945 1.419 . S
C944 C942 1.415 . S
C944 C949 1.425 . S
C944 C951 1.409 . S
C945 H937 0.930 . S
C945 C943 1.419 . S
C945 C946 1.362 . S
C946 H938 0.930 . S
C946 C945 1.362 . S
C946 C949 1.409 . S
C947 H939 0.930 . S
C947 C948 1.355 . S
C947 C949 1.415 . S
C948 C947 1.355 . S
C948 C950 1.419 . S
C949 C944 1.425 . S
C949 C946 1.409 . S
C949 C947 1.415 . S
C950 H940 0.930 . S
C950 C948 1.419 . S
C950 C951 1.362 . S
C951 H941 0.930 1_455 S
C951 C944 1.409 . S
C951 C950 1.362 . S
H952 C958 0.930 . S
H953 C961 0.930 . S
H954 C962 0.930 . S
H955 C963 0.930 . S
H956 C966 0.930 . S
H957 C967 0.930 . S
C958 H952 0.930 . S
C958 C959 1.355 . S
C958 C960 1.415 . S
C959 C958 1.355 . S
C959 C961 1.419 . S
C960 C958 1.415 . S
C960 C965 1.425 . S
C960 C967 1.409 . S
C961 H953 0.930 . S
C961 C959 1.419 . S
C961 C962 1.362 . S
C962 H954 0.930 . S
C962 C961 1.362 . S
C962 C965 1.409 . S
C963 H955 0.930 . S
C963 C964 1.355 . S
C963 C965 1.415 . S
C964 C963 1.355 . S
C964 C966 1.419 . S
C965 C960 1.425 . S
C965 C962 1.409 . S
C965 C963 1.415 . S
C966 H956 0.930 . S
C966 C964 1.419 . S
C966 C967 1.362 . S
C967 H957 0.930 . S
C967 C960 1.409 . S
C967 C966 1.362 . S
H968 C974 0.930 . S
H969 C977 0.930 . S
H970 C978 0.930 . S
H971 C979 0.930 . S
H972 C982 0.915 1_545 S
H973 C983 0.930 1_545 S
C974 H968 0.930 . S
C974 C975 1.355 . S
C974 C976 1.415 . S
C975 C974 1.355 . S
C975 C977 1.419 . S
C976 C974 1.415 . S
C976 C981 1.425 . S
C976 C983 1.409 . S
C977 H969 0.930 . S
C977 C975 1.419 . S
C977 C978 1.362 . S
C978 H970 0.930 . S
C978 C977 1.362 . S
C978 C981 1.409 . S
C979 H971 0.930 . S
C979 C980 1.355 . S
C979 C981 1.415 . S
C980 C979 1.355 . S
C980 C982 1.419 . S
C981 C976 1.425 . S
C981 C978 1.409 . S
C981 C979 1.415 . S
C982 H972 0.915 1_565 S
C982 C980 1.419 . S
C982 C983 1.362 . S
C983 H973 0.930 1_565 S
C983 C976 1.409 . S
C983 C982 1.362 . S
H984 C990 0.930 . S
H985 C993 0.930 . S
H986 C994 0.930 . S
H987 C995 0.930 . S
H988 C998 0.935 . S
H989 C999 0.930 1_565 S
C990 H984 0.930 . S
C990 C991 1.355 . S
C990 C992 1.415 . S
C991 C990 1.355 . S
C991 C993 1.419 . S
C992 C990 1.415 . S
C992 C997 1.425 . S
C992 C999 1.409 . S
C993 H985 0.930 . S
C993 C991 1.419 . S
C993 C994 1.362 . S
C994 H986 0.930 . S
C994 C993 1.362 . S
C994 C997 1.409 . S
C995 H987 0.930 . S
C995 C996 1.355 . S
C995 C997 1.415 . S
C996 C995 1.355 . S
C996 C998 1.419 . S
C997 C992 1.425 . S
C997 C994 1.409 . S
C997 C995 1.415 . S
C998 H988 0.935 . S
C998 C996 1.419 . S
C998 C999 1.362 . S
C999 H989 0.930 1_545 S
C999 C992 1.409 . S
C999 C998 1.362 . S
H1000 C1006 0.930 . S
H1001 C1009 0.930 . S
H1002 C1010 0.930 . S
H1003 C1011 0.930 . S
H1004 C1014 0.930 . S
H1005 C1015 0.930 . S
C1006 H1000 0.930 . S
C1006 C1007 1.355 . S
C1006 C1008 1.415 . S
C1007 C1006 1.355 . S
C1007 C1009 1.419 . S
C1008 C1006 1.415 . S
C1008 C1013 1.425 . S
C1008 C1015 1.409 . S
C1009 H1001 0.930 . S
C1009 C1007 1.419 . S
C1009 C1010 1.362 . S
C1010 H1002 0.930 . S
C1010 C1009 1.362 . S
C1010 C1013 1.409 . S
C1011 H1003 0.930 . S
C1011 C1012 1.355 . S
C1011 C1013 1.415 . S
C1012 C1011 1.355 . S
C1012 C1014 1.419 . S
C1013 C1008 1.425 . S
C1013 C1010 1.409 . S
C1013 C1011 1.415 . S
C1014 H1004 0.930 . S
C1014 C1012 1.419 . S
C1014 C1015 1.362 . S
C1015 H1005 0.930 . S
C1015 C1008 1.409 . S
C1015 C1014 1.362 . S
H1016 C1022 0.930 . S
H1017 C1025 0.930 . S
H1018 C1026 0.930 . S
H1019 C1027 0.930 . S
H1020 C1030 0.930 . S
H1021 C1031 0.930 . S
C1022 H1016 0.930 . S
C1022 C1023 1.355 . S
C1022 C1024 1.415 . S
C1023 C1022 1.355 . S
C1023 C1025 1.419 . S
C1024 C1022 1.415 . S
C1024 C1029 1.425 . S
C1024 C1031 1.409 . S
C1025 H1017 0.930 . S
C1025 C1023 1.419 . S
C1025 C1026 1.362 . S
C1026 H1018 0.930 . S
C1026 C1025 1.362 . S
C1026 C1029 1.409 . S
C1027 H1019 0.930 . S
C1027 C1028 1.355 . S
C1027 C1029 1.415 . S
C1028 C1027 1.355 . S
C1028 C1030 1.419 . S
C1029 C1024 1.425 . S
C1029 C1026 1.409 . S
C1029 C1027 1.415 . S
C1030 H1020 0.930 . S
C1030 C1028 1.419 . S
C1030 C1031 1.362 . S
C1031 H1021 0.930 . S
C1031 C1024 1.409 . S
C1031 C1030 1.362 . S
H1032 C1038 0.930 . S
H1033 C1041 0.930 . S
H1034 C1042 0.930 . S
H1035 C1043 0.930 . S
H1036 C1046 0.930 . S
H1037 C1047 0.930 . S
C1038 H1032 0.930 . S
C1038 C1039 1.355 . S
C1038 C1040 1.415 . S
C1039 C1038 1.355 . S
C1039 C1041 1.419 . S
C1040 C1038 1.415 . S
C1040 C1045 1.425 . S
C1040 C1047 1.409 . S
C1041 H1033 0.930 . S
C1041 C1039 1.419 . S
C1041 C1042 1.362 . S
C1042 H1034 0.930 . S
C1042 C1041 1.362 . S
C1042 C1045 1.409 . S
C1043 H1035 0.930 . S
C1043 C1044 1.355 . S
C1043 C1045 1.415 . S
C1044 C1043 1.355 . S
C1044 C1046 1.419 . S
C1045 C1040 1.425 . S
C1045 C1042 1.409 . S
C1045 C1043 1.415 . S
C1046 H1036 0.930 . S
C1046 C1044 1.419 . S
C1046 C1047 1.362 . S
C1047 H1037 0.930 . S
C1047 C1040 1.409 . S
C1047 C1046 1.362 . S
H1048 C1054 0.930 . S
H1049 C1057 0.930 . S
H1050 C1058 0.930 . S
H1051 C1059 0.930 . S
H1052 C1062 0.930 . S
H1053 C1063 0.930 . S
C1054 H1048 0.930 . S
C1054 C1055 1.355 . S
C1054 C1056 1.415 . S
C1055 C1054 1.355 . S
C1055 C1057 1.419 . S
C1056 C1054 1.415 . S
C1056 C1061 1.425 . S
C1056 C1063 1.409 . S
C1057 H1049 0.930 . S
C1057 C1055 1.419 . S
C1057 C1058 1.362 . S
C1058 H1050 0.930 . S
C1058 C1057 1.362 . S
C1058 C1061 1.409 . S
C1059 H1051 0.930 . S
C1059 C1060 1.355 . S
C1059 C1061 1.415 . S
C1060 C1059 1.355 . S
C1060 C1062 1.419 . S
C1061 C1056 1.425 . S
C1061 C1058 1.409 . S
C1061 C1059 1.415 . S
C1062 H1052 0.930 . S
C1062 C1060 1.419 . S
C1062 C1063 1.362 . S
C1063 H1053 0.930 . S
C1063 C1056 1.409 . S
C1063 C1062 1.362 . S
H1064 C1070 0.930 . S
H1065 C1073 0.930 . S
H1066 C1074 0.930 . S
H1067 C1075 0.930 . S
H1068 C1078 0.930 . S
H1069 C1079 0.930 . S
C1070 H1064 0.930 . S
C1070 C1071 1.355 . S
C1070 C1072 1.415 . S
C1071 C1070 1.355 . S
C1071 C1073 1.419 . S
C1072 C1070 1.415 . S
C1072 C1077 1.425 . S
C1072 C1079 1.409 . S
C1073 H1065 0.930 . S
C1073 C1071 1.419 . S
C1073 C1074 1.362 . S
C1074 H1066 0.930 . S
C1074 C1073 1.362 . S
C1074 C1077 1.409 . S
C1075 H1067 0.930 . S
C1075 C1076 1.355 . S
C1075 C1077 1.415 . S
C1076 C1075 1.355 . S
C1076 C1078 1.419 . S
C1077 C1072 1.425 . S
C1077 C1074 1.409 . S
C1077 C1075 1.415 . S
C1078 H1068 0.930 . S
C1078 C1076 1.419 . S
C1078 C1079 1.362 . S
C1079 H1069 0.930 . S
C1079 C1072 1.409 . S
C1079 C1078 1.362 . S
H1080 C1086 0.930 . S
H1081 C1089 0.930 . S
H1082 C1090 0.930 . S
H1083 C1091 0.930 . S
H1084 C1094 0.930 . S
H1085 C1095 0.930 . S
C1086 H1080 0.930 . S
C1086 C1087 1.355 . S
C1086 C1088 1.415 . S
C1087 C1086 1.355 . S
C1087 C1089 1.419 . S
C1088 C1086 1.415 . S
C1088 C1093 1.425 . S
C1088 C1095 1.409 . S
C1089 H1081 0.930 . S
C1089 C1087 1.419 . S
C1089 C1090 1.362 . S
C1090 H1082 0.930 . S
C1090 C1089 1.362 . S
C1090 C1093 1.409 . S
C1091 H1083 0.930 . S
C1091 C1092 1.355 . S
C1091 C1093 1.415 . S
C1092 C1091 1.355 . S
C1092 C1094 1.419 . S
C1093 C1088 1.425 . S
C1093 C1090 1.409 . S
C1093 C1091 1.415 . S
C1094 H1084 0.930 . S
C1094 C1092 1.419 . S
C1094 C1095 1.362 . S
C1095 H1085 0.930 . S
C1095 C1088 1.409 . S
C1095 C1094 1.362 . S
H1096 C1102 0.930 . S
H1097 C1105 0.930 . S
H1098 C1106 0.930 . S
H1099 C1107 0.930 . S
H1100 C1110 0.930 . S
H1101 C1111 0.930 . S
C1102 H1096 0.930 . S
C1102 C1103 1.355 . S
C1102 C1104 1.415 . S
C1103 C1102 1.355 . S
C1103 C1105 1.419 . S
C1104 C1102 1.415 . S
C1104 C1109 1.425 . S
C1104 C1111 1.409 . S
C1105 H1097 0.930 . S
C1105 C1103 1.419 . S
C1105 C1106 1.362 . S
C1106 H1098 0.930 . S
C1106 C1105 1.362 . S
C1106 C1109 1.409 . S
C1107 H1099 0.930 . S
C1107 C1108 1.355 . S
C1107 C1109 1.415 . S
C1108 C1107 1.355 . S
C1108 C1110 1.419 . S
C1109 C1104 1.425 . S
C1109 C1106 1.409 . S
C1109 C1107 1.415 . S
C1110 H1100 0.930 . S
C1110 C1108 1.419 . S
C1110 C1111 1.362 . S
C1111 H1101 0.930 . S
C1111 C1104 1.409 . S
C1111 C1110 1.362 . S
H1112 C1118 0.930 . S
H1113 C1121 0.930 . S
H1114 C1122 0.930 . S
H1115 C1123 0.930 . S
H1116 C1126 0.930 . S
H1117 C1127 0.930 . S
C1118 H1112 0.930 . S
C1118 C1119 1.355 . S
C1118 C1120 1.415 . S
C1119 C1118 1.355 . S
C1119 C1121 1.419 . S
C1120 C1118 1.415 . S
C1120 C1125 1.425 . S
C1120 C1127 1.409 . S
C1121 H1113 0.930 . S
C1121 C1119 1.419 . S
C1121 C1122 1.362 . S
C1122 H1114 0.930 . S
C1122 C1121 1.362 . S
C1122 C1125 1.409 . S
C1123 H1115 0.930 . S
C1123 C1124 1.355 . S
C1123 C1125 1.415 . S
C1124 C1123 1.355 . S
C1124 C1126 1.419 . S
C1125 C1120 1.425 . S
C1125 C1122 1.409 . S
C1125 C1123 1.415 . S
C1126 H1116 0.930 . S
C1126 C1124 1.419 . S
C1126 C1127 1.362 . S
C1127 H1117 0.930 . S
C1127 C1120 1.409 . S
C1127 C1126 1.362 . S
H1128 C1134 0.930 . S
H1129 C1137 0.930 . S
H1130 C1138 0.930 . S
H1131 C1139 0.930 . S
H1132 C1142 0.930 . S
H1133 C1143 0.930 . S
C1134 H1128 0.930 . S
C1134 C1135 1.355 . S
C1134 C1136 1.415 . S
C1135 C1134 1.355 . S
C1135 C1137 1.419 . S
C1136 C1134 1.415 . S
C1136 C1141 1.425 . S
C1136 C1143 1.409 . S
C1137 H1129 0.930 . S
C1137 C1135 1.419 . S
C1137 C1138 1.362 . S
C1138 H1130 0.930 . S
C1138 C1137 1.362 . S
C1138 C1141 1.409 . S
C1139 H1131 0.930 . S
C1139 C1140 1.355 . S
C1139 C1141 1.415 . S
C1140 C1139 1.355 . S
C1140 C1142 1.419 . S
C1141 C1136 1.425 . S
C1141 C1138 1.409 . S
C1141 C1139 1.415 . S
C1142 H1132 0.930 . S
C1142 C1140 1.419 . S
C1142 C1143 1.362 . S
C1143 H1133 0.930 . S
C1143 C1136 1.409 . S
C1143 C1142 1.362 . S
H1144 C1150 0.930 . S
H1145 C1153 0.930 . S
H1146 C1154 0.930 . S
H1147 C1155 0.930 . S
H1148 C1158 0.930 . S
H1149 C1159 0.930 . S
C1150 H1144 0.930 . S
C1150 C1151 1.355 . S
C1150 C1152 1.415 . S
C1151 C1150 1.355 . S
C1151 C1153 1.419 . S
C1152 C1150 1.415 . S
C1152 C1157 1.425 . S
C1152 C1159 1.409 . S
C1153 H1145 0.930 . S
C1153 C1151 1.419 . S
C1153 C1154 1.362 . S
C1154 H1146 0.930 . S
C1154 C1153 1.362 . S
C1154 C1157 1.409 . S
C1155 H1147 0.930 . S
C1155 C1156 1.355 . S
C1155 C1157 1.415 . S
C1156 C1155 1.355 . S
C1156 C1158 1.419 . S
C1157 C1152 1.425 . S
C1157 C1154 1.409 . S
C1157 C1155 1.415 . S
C1158 H1148 0.930 . S
C1158 C1156 1.419 . S
C1158 C1159 1.362 . S
C1159 H1149 0.930 . S
C1159 C1152 1.409 . S
C1159 C1158 1.362 . S
H1160 C1166 0.930 . S
H1161 C1169 0.930 . S
H1162 C1170 0.930 . S
H1163 C1171 0.930 . S
H1164 C1174 0.930 . S
H1165 C1175 0.930 . S
C1166 H1160 0.930 . S
C1166 C1167 1.355 . S
C1166 C1168 1.415 . S
C1167 C1166 1.355 . S
C1167 C1169 1.419 . S
C1168 C1166 1.415 . S
C1168 C1173 1.425 . S
C1168 C1175 1.409 . S
C1169 H1161 0.930 . S
C1169 C1167 1.419 . S
C1169 C1170 1.362 . S
C1170 H1162 0.930 . S
C1170 C1169 1.362 . S
C1170 C1173 1.409 . S
C1171 H1163 0.930 . S
C1171 C1172 1.355 . S
C1171 C1173 1.415 . S
C1172 C1171 1.355 . S
C1172 C1174 1.419 . S
C1173 C1168 1.425 . S
C1173 C1170 1.409 . S
C1173 C1171 1.415 . S
C1174 H1164 0.930 . S
C1174 C1172 1.419 . S
C1174 C1175 1.362 . S
C1175 H1165 0.930 . S
C1175 C1168 1.409 . S
C1175 C1174 1.362 . S
H1176 C1182 0.930 . S
H1177 C1185 0.930 . S
H1178 C1186 0.930 . S
H1179 C1187 0.930 . S
H1180 C1190 0.930 . S
H1181 C1191 0.930 . S
C1182 H1176 0.930 . S
C1182 C1183 1.355 . S
C1182 C1184 1.415 . S
C1183 C1182 1.355 . S
C1183 C1185 1.419 . S
C1184 C1182 1.415 . S
C1184 C1189 1.425 . S
C1184 C1191 1.409 . S
C1185 H1177 0.930 . S
C1185 C1183 1.419 . S
C1185 C1186 1.362 . S
C1186 H1178 0.930 . S
C1186 C1185 1.362 . S
C1186 C1189 1.409 . S
C1187 H1179 0.930 . S
C1187 C1188 1.355 . S
C1187 C1189 1.415 . S
C1188 C1187 1.355 . S
C1188 C1190 1.419 . S
C1189 C1184 1.425 . S
C1189 C1186 1.409 . S
C1189 C1187 1.415 . S
C1190 H1180 0.930 . S
C1190 C1188 1.419 . S
C1190 C1191 1.362 . S
C1191 H1181 0.930 . S
C1191 C1184 1.409 . S
C1191 C1190 1.362 . S
H1192 C1198 0.930 . S
H1193 C1201 0.930 . S
H1194 C1202 0.930 . S
H1195 C1203 0.930 . S
H1196 C1206 0.930 . S
H1197 C1207 0.930 . S
C1198 H1192 0.930 . S
C1198 C1199 1.355 . S
C1198 C1200 1.415 . S
C1199 C1198 1.355 . S
C1199 C1201 1.419 . S
C1200 C1198 1.415 . S
C1200 C1205 1.425 . S
C1200 C1207 1.409 . S
C1201 H1193 0.930 . S
C1201 C1199 1.419 . S
C1201 C1202 1.362 . S
C1202 H1194 0.930 . S
C1202 C1201 1.362 . S
C1202 C1205 1.409 . S
C1203 H1195 0.930 . S
C1203 C1204 1.355 . S
C1203 C1205 1.415 . S
C1204 C1203 1.355 . S
C1204 C1206 1.419 . S
C1205 C1200 1.425 . S
C1205 C1202 1.409 . S
C1205 C1203 1.415 . S
C1206 H1196 0.930 . S
C1206 C1204 1.419 . S
C1206 C1207 1.362 . S
C1207 H1197 0.930 . S
C1207 C1200 1.409 . S
C1207 C1206 1.362 . S
H1208 C1214 0.930 . S
H1209 C1217 0.930 . S
H1210 C1218 0.930 . S
H1211 C1219 0.930 . S
H1212 C1222 0.930 . S
H1213 C1223 0.930 . S
C1214 H1208 0.930 . S
C1214 C1215 1.355 . S
C1214 C1216 1.415 . S
C1215 C1214 1.355 . S
C1215 C1217 1.419 . S
C1216 C1214 1.415 . S
C1216 C1221 1.425 . S
C1216 C1223 1.409 . S
C1217 H1209 0.930 . S
C1217 C1215 1.419 . S
C1217 C1218 1.362 . S
C1218 H1210 0.930 . S
C1218 C1217 1.362 . S
C1218 C1221 1.409 . S
C1219 H1211 0.930 . S
C1219 C1220 1.355 . S
C1219 C1221 1.415 . S
C1220 C1219 1.355 . S
C1220 C1222 1.419 . S
C1221 C1216 1.425 . S
C1221 C1218 1.409 . S
C1221 C1219 1.415 . S
C1222 H1212 0.930 . S
C1222 C1220 1.419 . S
C1222 C1223 1.362 . S
C1223 H1213 0.930 . S
C1223 C1216 1.409 . S
C1223 C1222 1.362 . S
H1224 C1230 0.930 . S
H1225 C1233 0.930 . S
H1226 C1234 0.930 . S
H1227 C1235 0.930 . S
H1228 C1238 0.930 . S
H1229 C1239 0.930 . S
C1230 H1224 0.930 . S
C1230 C1231 1.355 . S
C1230 C1232 1.415 . S
C1231 C1230 1.355 . S
C1231 C1233 1.419 . S
C1232 C1230 1.415 . S
C1232 C1237 1.425 . S
C1232 C1239 1.409 . S
C1233 H1225 0.930 . S
C1233 C1231 1.419 . S
C1233 C1234 1.362 . S
C1234 H1226 0.930 . S
C1234 C1233 1.362 . S
C1234 C1237 1.409 . S
C1235 H1227 0.930 . S
C1235 C1236 1.355 . S
C1235 C1237 1.415 . S
C1236 C1235 1.355 . S
C1236 C1238 1.419 . S
C1237 C1232 1.425 . S
C1237 C1234 1.409 . S
C1237 C1235 1.415 . S
C1238 H1228 0.930 . S
C1238 C1236 1.419 . S
C1238 C1239 1.362 . S
C1239 H1229 0.930 . S
C1239 C1232 1.409 . S
C1239 C1238 1.362 . S
H1240 C1246 0.930 . S
H1241 C1249 0.930 . S
H1242 C1250 0.930 . S
H1243 C1251 0.930 . S
H1244 C1254 0.930 . S
H1245 C1255 0.930 . S
C1246 H1240 0.930 . S
C1246 C1247 1.355 . S
C1246 C1248 1.415 . S
C1247 C1246 1.355 . S
C1247 C1249 1.419 . S
C1248 C1246 1.415 . S
C1248 C1253 1.425 . S
C1248 C1255 1.409 . S
C1249 H1241 0.930 . S
C1249 C1247 1.419 . S
C1249 C1250 1.362 . S
C1250 H1242 0.930 . S
C1250 C1249 1.362 . S
C1250 C1253 1.409 . S
C1251 H1243 0.930 . S
C1251 C1252 1.355 . S
C1251 C1253 1.415 . S
C1252 C1251 1.355 . S
C1252 C1254 1.419 . S
C1253 C1248 1.425 . S
C1253 C1250 1.409 . S
C1253 C1251 1.415 . S
C1254 H1244 0.930 . S
C1254 C1252 1.419 . S
C1254 C1255 1.362 . S
C1255 H1245 0.930 . S
C1255 C1248 1.409 . S
C1255 C1254 1.362 . S
H1256 C1262 0.930 . S
H1257 C1265 0.930 . S
H1258 C1266 0.930 . S
H1259 C1267 0.930 . S
H1260 C1270 0.930 . S
H1261 C1271 0.930 . S
C1262 H1256 0.930 . S
C1262 C1263 1.355 . S
C1262 C1264 1.415 . S
C1263 C1262 1.355 . S
C1263 C1265 1.419 . S
C1264 C1262 1.415 . S
C1264 C1269 1.425 . S
C1264 C1271 1.409 . S
C1265 H1257 0.930 . S
C1265 C1263 1.419 . S
C1265 C1266 1.362 . S
C1266 H1258 0.930 . S
C1266 C1265 1.362 . S
C1266 C1269 1.409 . S
C1267 H1259 0.930 . S
C1267 C1268 1.355 . S
C1267 C1269 1.415 . S
C1268 C1267 1.355 . S
C1268 C1270 1.419 . S
C1269 C1264 1.425 . S
C1269 C1266 1.409 . S
C1269 C1267 1.415 . S
C1270 H1260 0.930 . S
C1270 C1268 1.419 . S
C1270 C1271 1.362 . S
C1271 H1261 0.930 . S
C1271 C1264 1.409 . S
C1271 C1270 1.362 . S
H1272 C1278 0.930 . S
H1273 C1281 0.930 . S
H1274 C1282 0.930 . S
H1275 C1283 0.930 . S
H1276 C1286 0.930 . S
H1277 C1287 0.930 . S
C1278 H1272 0.930 . S
C1278 C1279 1.355 . S
C1278 C1280 1.415 . S
C1279 C1278 1.355 . S
C1279 C1281 1.419 . S
C1280 C1278 1.415 . S
C1280 C1285 1.425 . S
C1280 C1287 1.409 . S
C1281 H1273 0.930 . S
C1281 C1279 1.419 . S
C1281 C1282 1.362 . S
C1282 H1274 0.930 . S
C1282 C1281 1.362 . S
C1282 C1285 1.409 . S
C1283 H1275 0.930 . S
C1283 C1284 1.355 . S
C1283 C1285 1.415 . S
C1284 C1283 1.355 . S
C1284 C1286 1.419 . S
C1285 C1280 1.425 . S
C1285 C1282 1.409 . S
C1285 C1283 1.415 . S
C1286 H1276 0.930 . S
C1286 C1284 1.419 . S
C1286 C1287 1.362 . S
C1287 H1277 0.930 . S
C1287 C1280 1.409 . S
C1287 C1286 1.362 . S
H1288 C1294 0.930 . S
H1289 C1297 0.930 . S
H1290 C1298 0.930 . S
H1291 C1299 0.930 . S
H1292 C1302 0.930 . S
H1293 C1303 0.930 . S
C1294 H1288 0.930 . S
C1294 C1295 1.355 . S
C1294 C1296 1.415 . S
C1295 C1294 1.355 . S
C1295 C1297 1.419 1_545 S
C1296 C1294 1.415 . S
C1296 C1301 1.425 1_545 S
C1296 C1303 1.409 . S
C1297 H1289 0.930 . S
C1297 C1295 1.419 1_565 S
C1297 C1298 1.362 . S
C1298 H1290 0.930 . S
C1298 C1297 1.362 . S
C1298 C1301 1.409 . S
C1299 H1291 0.930 . S
C1299 C1300 1.355 . S
C1299 C1301 1.415 . S
C1300 C1299 1.355 . S
C1300 C1302 1.419 1_565 S
C1301 C1296 1.425 1_565 S
C1301 C1298 1.409 . S
C1301 C1299 1.415 . S
C1302 H1292 0.930 . S
C1302 C1300 1.419 1_545 S
C1302 C1303 1.362 . S
C1303 H1293 0.930 . S
C1303 C1296 1.409 . S
C1303 C1302 1.362 . S
H1304 C1310 0.930 . S
H1305 C1313 0.930 . S
H1306 C1314 0.930 . S
H1307 C1315 0.930 . S
H1308 C1318 0.930 . S
H1309 C1319 0.930 . S
C1310 H1304 0.930 . S
C1310 C1311 1.355 1_655 S
C1310 C1312 1.415 . S
C1311 C1310 1.355 1_455 S
C1311 C1313 1.419 . S
C1312 C1310 1.415 . S
C1312 C1317 1.425 1_655 S
C1312 C1319 1.409 . S
C1313 H1305 0.930 . S
C1313 C1311 1.419 . S
C1313 C1314 1.362 . S
C1314 H1306 0.930 . S
C1314 C1313 1.362 . S
C1314 C1317 1.409 . S
C1315 H1307 0.930 . S
C1315 C1316 1.355 1_455 S
C1315 C1317 1.415 . S
C1316 C1315 1.355 1_655 S
C1316 C1318 1.419 . S
C1317 C1312 1.425 1_455 S
C1317 C1314 1.409 . S
C1317 C1315 1.415 . S
C1318 H1308 0.930 . S
C1318 C1316 1.419 . S
C1318 C1319 1.362 . S
C1319 H1309 0.930 . S
C1319 C1312 1.409 . S
C1319 C1318 1.362 . S
H1320 C1326 0.930 . S
H1321 C1329 0.930 . S
H1322 C1330 0.930 . S
H1323 C1331 0.930 . S
H1324 C1334 0.930 . S
H1325 C1335 0.930 . S
C1326 H1320 0.930 . S
C1326 C1327 1.355 . S
C1326 C1328 1.415 . S
C1327 C1326 1.355 . S
C1327 C1329 1.419 . S
C1328 C1326 1.415 . S
C1328 C1333 1.425 . S
C1328 C1335 1.409 . S
C1329 H1321 0.930 . S
C1329 C1327 1.419 . S
C1329 C1330 1.362 . S
C1330 H1322 0.930 . S
C1330 C1329 1.362 . S
C1330 C1333 1.409 . S
C1331 H1323 0.930 . S
C1331 C1332 1.355 . S
C1331 C1333 1.415 . S
C1332 C1331 1.355 . S
C1332 C1334 1.419 . S
C1333 C1328 1.425 . S
C1333 C1330 1.409 . S
C1333 C1331 1.415 . S
C1334 H1324 0.930 . S
C1334 C1332 1.419 . S
C1334 C1335 1.362 . S
C1335 H1325 0.930 . S
C1335 C1328 1.409 . S
C1335 C1334 1.362 . S
H1336 C1342 0.930 1_545 S
H1337 C1345 0.930 . S
H1338 C1346 0.930 . S
H1339 C1347 0.930 1_565 S
H1340 C1350 0.930 . S
H1341 C1351 0.930 . S
C1342 H1336 0.930 1_565 S
C1342 C1343 1.355 . S
C1342 C1344 1.415 1_565 S
C1343 C1342 1.355 . S
C1343 C1345 1.419 . S
C1344 C1342 1.415 1_545 S
C1344 C1349 1.425 1_545 S
C1344 C1351 1.409 . S
C1345 H1337 0.930 . S
C1345 C1343 1.419 . S
C1345 C1346 1.362 . S
C1346 H1338 0.930 . S
C1346 C1345 1.362 . S
C1346 C1349 1.409 . S
C1347 H1339 0.930 1_545 S
C1347 C1348 1.355 . S
C1347 C1349 1.415 1_545 S
C1348 C1347 1.355 . S
C1348 C1350 1.419 . S
C1349 C1344 1.425 1_565 S
C1349 C1346 1.409 . S
C1349 C1347 1.415 1_565 S
C1350 H1340 0.930 . S
C1350 C1348 1.419 . S
C1350 C1351 1.362 . S
C1351 H1341 0.930 . S
C1351 C1344 1.409 . S
C1351 C1350 1.362 . S
H1352 C1358 0.930 . S
H1353 C1361 0.930 . S
H1354 C1362 0.930 . S
H1355 C1363 0.930 . S
H1356 C1366 0.930 . S
H1357 C1367 0.930 . S
C1358 H1352 0.930 . S
C1358 C1359 1.355 . S
C1358 C1360 1.415 . S
C1359 C1358 1.355 . S
C1359 C1361 1.419 . S
C1360 C1358 1.415 . S
C1360 C1365 1.425 1_455 S
C1360 C1367 1.409 . S
C1361 H1353 0.930 . S
C1361 C1359 1.419 . S
C1361 C1362 1.362 1_455 S
C1362 H1354 0.930 . S
C1362 C1361 1.362 1_655 S
C1362 C1365 1.409 . S
C1363 H1355 0.930 . S
C1363 C1364 1.355 . S
C1363 C1365 1.415 . S
C1364 C1363 1.355 . S
C1364 C1366 1.419 . S
C1365 C1360 1.425 1_655 S
C1365 C1362 1.409 . S
C1365 C1363 1.415 . S
C1366 H1356 0.930 . S
C1366 C1364 1.419 . S
C1366 C1367 1.362 1_655 S
C1367 H1357 0.930 . S
C1367 C1360 1.409 . S
C1367 C1366 1.362 1_455 S
H1368 C1374 0.930 . S
H1369 C1377 0.930 . S
H1370 C1378 0.930 . S
H1371 C1379 0.930 . S
H1372 C1382 0.930 . S
H1373 C1383 0.930 . S
C1374 H1368 0.930 . S
C1374 C1375 1.355 . S
C1374 C1376 1.415 . S
C1375 C1374 1.355 . S
C1375 C1377 1.419 . S
C1376 C1374 1.415 . S
C1376 C1381 1.425 . S
C1376 C1383 1.409 . S
C1377 H1369 0.930 . S
C1377 C1375 1.419 . S
C1377 C1378 1.362 . S
C1378 H1370 0.930 . S
C1378 C1377 1.362 . S
C1378 C1381 1.409 . S
C1379 H1371 0.930 . S
C1379 C1380 1.355 . S
C1379 C1381 1.415 . S
C1380 C1379 1.355 . S
C1380 C1382 1.419 . S
C1381 C1376 1.425 . S
C1381 C1378 1.409 . S
C1381 C1379 1.415 . S
C1382 H1372 0.930 . S
C1382 C1380 1.419 . S
C1382 C1383 1.362 . S
C1383 H1373 0.930 . S
C1383 C1376 1.409 . S
C1383 C1382 1.362 . S
H1384 C1390 0.930 . S
H1385 C1393 0.930 . S
H1386 C1394 0.930 . S
H1387 C1395 0.930 . S
H1388 C1398 0.930 . S
H1389 C1399 0.930 . S
C1390 H1384 0.930 . S
C1390 C1391 1.355 . S
C1390 C1392 1.415 . S
C1391 C1390 1.355 . S
C1391 C1393 1.419 . S
C1392 C1390 1.415 . S
C1392 C1397 1.425 . S
C1392 C1399 1.409 . S
C1393 H1385 0.930 . S
C1393 C1391 1.419 . S
C1393 C1394 1.362 . S
C1394 H1386 0.930 . S
C1394 C1393 1.362 . S
C1394 C1397 1.409 . S
C1395 H1387 0.930 . S
C1395 C1396 1.355 . S
C1395 C1397 1.415 . S
C1396 C1395 1.355 . S
C1396 C1398 1.419 . S
C1397 C1392 1.425 . S
C1397 C1394 1.409 . S
C1397 C1395 1.415 . S
C1398 H1388 0.930 . S
C1398 C1396 1.419 . S
C1398 C1399 1.362 . S
C1399 H1389 0.930 . S
C1399 C1392 1.409 . S
C1399 C1398 1.362 . S
H1400 C1406 0.930 . S
H1401 C1409 0.930 . S
H1402 C1410 0.930 . S
H1403 C1411 0.930 . S
H1404 C1414 0.930 . S
H1405 C1415 0.930 . S
C1406 H1400 0.930 . S
C1406 C1407 1.355 . S
C1406 C1408 1.415 . S
C1407 C1406 1.355 . S
C1407 C1409 1.419 . S
C1408 C1406 1.415 . S
C1408 C1413 1.425 . S
C1408 C1415 1.409 . S
C1409 H1401 0.930 . S
C1409 C1407 1.419 . S
C1409 C1410 1.362 . S
C1410 H1402 0.930 . S
C1410 C1409 1.362 . S
C1410 C1413 1.409 . S
C1411 H1403 0.930 . S
C1411 C1412 1.355 . S
C1411 C1413 1.415 . S
C1412 C1411 1.355 . S
C1412 C1414 1.419 . S
C1413 C1408 1.425 . S
C1413 C1410 1.409 . S
C1413 C1411 1.415 . S
C1414 H1404 0.930 . S
C1414 C1412 1.419 . S
C1414 C1415 1.362 . S
C1415 H1405 0.930 . S
C1415 C1408 1.409 . S
C1415 C1414 1.362 . S
H1416 C1422 0.930 . S
H1417 C1425 0.930 . S
H1418 C1426 0.930 . S
H1419 C1427 0.930 . S
H1420 C1430 0.930 . S
H1421 C1431 0.930 . S
C1422 H1416 0.930 . S
C1422 C1423 1.355 . S
C1422 C1424 1.415 . S
C1423 C1422 1.355 . S
C1423 C1425 1.419 . S
C1424 C1422 1.415 . S
C1424 C1429 1.425 . S
C1424 C1431 1.409 . S
C1425 H1417 0.930 . S
C1425 C1423 1.419 . S
C1425 C1426 1.362 . S
C1426 H1418 0.930 . S
C1426 C1425 1.362 . S
C1426 C1429 1.409 . S
C1427 H1419 0.930 . S
C1427 C1428 1.355 . S
C1427 C1429 1.415 . S
C1428 C1427 1.355 . S
C1428 C1430 1.419 . S
C1429 C1424 1.425 . S
C1429 C1426 1.409 . S
C1429 C1427 1.415 . S
C1430 H1420 0.930 . S
C1430 C1428 1.419 . S
C1430 C1431 1.362 . S
C1431 H1421 0.930 . S
C1431 C1424 1.409 . S
C1431 C1430 1.362 . S
H1432 C1438 0.930 . S
H1433 C1441 0.930 . S
H1434 C1442 0.930 . S
H1435 C1443 0.930 . S
H1436 C1446 0.930 . S
H1437 C1447 0.930 . S
C1438 H1432 0.930 . S
C1438 C1439 1.355 . S
C1438 C1440 1.415 . S
C1439 C1438 1.355 . S
C1439 C1441 1.419 . S
C1440 C1438 1.415 . S
C1440 C1445 1.425 . S
C1440 C1447 1.409 . S
C1441 H1433 0.930 . S
C1441 C1439 1.419 . S
C1441 C1442 1.362 . S
C1442 H1434 0.930 . S
C1442 C1441 1.362 . S
C1442 C1445 1.409 . S
C1443 H1435 0.930 . S
C1443 C1444 1.355 . S
C1443 C1445 1.415 . S
C1444 C1443 1.355 . S
C1444 C1446 1.419 . S
C1445 C1440 1.425 . S
C1445 C1442 1.409 . S
C1445 C1443 1.415 . S
C1446 H1436 0.930 . S
C1446 C1444 1.419 . S
C1446 C1447 1.362 . S
C1447 H1437 0.930 . S
C1447 C1440 1.409 . S
C1447 C1446 1.362 . S
H1448 C1454 0.930 . S
H1449 C1457 0.930 . S
H1450 C1458 0.930 . S
H1451 C1459 0.930 . S
H1452 C1462 0.930 . S
H1453 C1463 0.930 . S
C1454 H1448 0.930 . S
C1454 C1455 1.355 . S
C1454 C1456 1.415 . S
C1455 C1454 1.355 . S
C1455 C1457 1.419 . S
C1456 C1454 1.415 . S
C1456 C1461 1.425 . S
C1456 C1463 1.409 . S
C1457 H1449 0.930 . S
C1457 C1455 1.419 . S
C1457 C1458 1.362 . S
C1458 H1450 0.930 . S
C1458 C1457 1.362 . S
C1458 C1461 1.409 . S
C1459 H1451 0.930 . S
C1459 C1460 1.355 . S
C1459 C1461 1.415 . S
C1460 C1459 1.355 . S
C1460 C1462 1.419 . S
C1461 C1456 1.425 . S
C1461 C1458 1.409 . S
C1461 C1459 1.415 . S
C1462 H1452 0.930 . S
C1462 C1460 1.419 . S
C1462 C1463 1.362 . S
C1463 H1453 0.930 . S
C1463 C1456 1.409 . S
C1463 C1462 1.362 . S
H1464 C1470 0.930 . S
H1465 C1473 0.930 . S
H1466 C1474 0.930 . S
H1467 C1475 0.930 . S
H1468 C1478 0.930 . S
H1469 C1479 0.930 . S
C1470 H1464 0.930 . S
C1470 C1471 1.355 . S
C1470 C1472 1.415 . S
C1471 C1470 1.355 . S
C1471 C1473 1.419 . S
C1472 C1470 1.415 . S
C1472 C1477 1.425 . S
C1472 C1479 1.409 . S
C1473 H1465 0.930 . S
C1473 C1471 1.419 . S
C1473 C1474 1.362 . S
C1474 H1466 0.930 . S
C1474 C1473 1.362 . S
C1474 C1477 1.409 . S
C1475 H1467 0.930 . S
C1475 C1476 1.355 . S
C1475 C1477 1.415 . S
C1476 C1475 1.355 . S
C1476 C1478 1.419 . S
C1477 C1472 1.425 . S
C1477 C1474 1.409 . S
C1477 C1475 1.415 . S
C1478 H1468 0.930 . S
C1478 C1476 1.419 . S
C1478 C1479 1.362 . S
C1479 H1469 0.930 . S
C1479 C1472 1.409 . S
C1479 C1478 1.362 . S
H1480 C1486 0.930 . S
H1481 C1489 0.930 . S
H1482 C1490 0.930 . S
H1483 C1491 0.930 . S
H1484 C1494 0.930 . S
H1485 C1495 0.930 . S
C1486 H1480 0.930 . S
C1486 C1487 1.355 . S
C1486 C1488 1.415 . S
C1487 C1486 1.355 . S
C1487 C1489 1.419 . S
C1488 C1486 1.415 . S
C1488 C1493 1.425 . S
C1488 C1495 1.409 . S
C1489 H1481 0.930 . S
C1489 C1487 1.419 . S
C1489 C1490 1.362 . S
C1490 H1482 0.930 . S
C1490 C1489 1.362 . S
C1490 C1493 1.409 . S
C1491 H1483 0.930 . S
C1491 C1492 1.355 . S
C1491 C1493 1.415 . S
C1492 C1491 1.355 . S
C1492 C1494 1.419 . S
C1493 C1488 1.425 . S
C1493 C1490 1.409 . S
C1493 C1491 1.415 . S
C1494 H1484 0.930 . S
C1494 C1492 1.419 . S
C1494 C1495 1.362 . S
C1495 H1485 0.930 . S
C1495 C1488 1.409 . S
C1495 C1494 1.362 . S
H1496 C1502 0.930 . S
H1497 C1505 0.930 . S
H1498 C1506 0.930 . S
H1499 C1507 0.930 . S
H1500 C1510 0.930 . S
H1501 C1511 0.930 . S
C1502 H1496 0.930 . S
C1502 C1503 1.355 . S
C1502 C1504 1.415 . S
C1503 C1502 1.355 . S
C1503 C1505 1.419 . S
C1504 C1502 1.415 . S
C1504 C1509 1.425 . S
C1504 C1511 1.409 . S
C1505 H1497 0.930 . S
C1505 C1503 1.419 . S
C1505 C1506 1.362 . S
C1506 H1498 0.930 . S
C1506 C1505 1.362 . S
C1506 C1509 1.409 . S
C1507 H1499 0.930 . S
C1507 C1508 1.355 . S
C1507 C1509 1.415 . S
C1508 C1507 1.355 . S
C1508 C1510 1.419 . S
C1509 C1504 1.425 . S
C1509 C1506 1.409 . S
C1509 C1507 1.415 . S
C1510 H1500 0.930 . S
C1510 C1508 1.419 . S
C1510 C1511 1.362 . S
C1511 H1501 0.930 . S
C1511 C1504 1.409 . S
C1511 C1510 1.362 . S
H1512 C1518 0.930 . S
H1513 C1521 0.930 . S
H1514 C1522 0.930 . S
H1515 C1523 0.930 . S
H1516 C1526 0.930 . S
H1517 C1527 0.930 . S
C1518 H1512 0.930 . S
C1518 C1519 1.355 . S
C1518 C1520 1.415 . S
C1519 C1518 1.355 . S
C1519 C1521 1.419 . S
C1520 C1518 1.415 . S
C1520 C1525 1.425 . S
C1520 C1527 1.409 . S
C1521 H1513 0.930 . S
C1521 C1519 1.419 . S
C1521 C1522 1.362 . S
C1522 H1514 0.930 . S
C1522 C1521 1.362 . S
C1522 C1525 1.409 . S
C1523 H1515 0.930 . S
C1523 C1524 1.355 . S
C1523 C1525 1.415 . S
C1524 C1523 1.355 . S
C1524 C1526 1.419 . S
C1525 C1520 1.425 . S
C1525 C1522 1.409 . S
C1525 C1523 1.415 . S
C1526 H1516 0.930 . S
C1526 C1524 1.419 . S
C1526 C1527 1.362 . S
C1527 H1517 0.930 . S
C1527 C1520 1.409 . S
C1527 C1526 1.362 . S
H1528 C1534 0.930 . S
H1529 C1537 0.930 . S
H1530 C1538 0.930 . S
H1531 C1539 0.930 . S
H1532 C1542 0.930 . S
H1533 C1543 0.930 . S
C1534 H1528 0.930 . S
C1534 C1535 1.355 . S
C1534 C1536 1.415 . S
C1535 C1534 1.355 . S
C1535 C1537 1.419 . S
C1536 C1534 1.415 . S
C1536 C1541 1.425 . S
C1536 C1543 1.409 . S
C1537 H1529 0.930 . S
C1537 C1535 1.419 . S
C1537 C1538 1.362 . S
C1538 H1530 0.930 . S
C1538 C1537 1.362 . S
C1538 C1541 1.409 . S
C1539 H1531 0.930 . S
C1539 C1540 1.355 . S
C1539 C1541 1.415 . S
C1540 C1539 1.355 . S
C1540 C1542 1.419 . S
C1541 C1536 1.425 . S
C1541 C1538 1.409 . S
C1541 C1539 1.415 . S
C1542 H1532 0.930 . S
C1542 C1540 1.419 . S
C1542 C1543 1.362 . S
C1543 H1533 0.930 . S
C1543 C1536 1.409 . S
C1543 C1542 1.362 . S
H1544 C1550 0.930 . S
H1545 C1553 0.930 . S
H1546 C1554 0.930 . S
H1547 C1555 0.930 . S
H1548 C1558 0.930 . S
H1549 C1559 0.930 . S
C1550 H1544 0.930 . S
C1550 C1551 1.355 . S
C1550 C1552 1.415 . S
C1551 C1550 1.355 . S
C1551 C1553 1.419 . S
C1552 C1550 1.415 . S
C1552 C1557 1.425 . S
C1552 C1559 1.409 . S
C1553 H1545 0.930 . S
C1553 C1551 1.419 . S
C1553 C1554 1.362 . S
C1554 H1546 0.930 . S
C1554 C1553 1.362 . S
C1554 C1557 1.409 . S
C1555 H1547 0.930 . S
C1555 C1556 1.355 . S
C1555 C1557 1.415 . S
C1556 C1555 1.355 . S
C1556 C1558 1.419 . S
C1557 C1552 1.425 . S
C1557 C1554 1.409 . S
C1557 C1555 1.415 . S
C1558 H1548 0.930 . S
C1558 C1556 1.419 . S
C1558 C1559 1.362 . S
C1559 H1549 0.930 . S
C1559 C1552 1.409 . S
C1559 C1558 1.362 . S
H1560 C1566 0.930 . S
H1561 C1569 0.930 . S
H1562 C1570 0.930 . S
H1563 C1571 0.930 . S
H1564 C1574 0.930 . S
H1565 C1575 0.930 . S
C1566 H1560 0.930 . S
C1566 C1567 1.355 . S
C1566 C1568 1.415 . S
C1567 C1566 1.355 . S
C1567 C1569 1.419 . S
C1568 C1566 1.415 . S
C1568 C1573 1.425 1_455 S
C1568 C1575 1.409 . S
C1569 H1561 0.930 . S
C1569 C1567 1.419 . S
C1569 C1570 1.362 1_455 S
C1570 H1562 0.930 . S
C1570 C1569 1.362 1_655 S
C1570 C1573 1.409 . S
C1571 H1563 0.930 . S
C1571 C1572 1.355 . S
C1571 C1573 1.415 . S
C1572 C1571 1.355 . S
C1572 C1574 1.419 . S
C1573 C1568 1.425 1_655 S
C1573 C1570 1.409 . S
C1573 C1571 1.415 . S
C1574 H1564 0.930 . S
C1574 C1572 1.419 . S
C1574 C1575 1.362 1_655 S
C1575 H1565 0.930 . S
C1575 C1568 1.409 . S
C1575 C1574 1.362 1_455 S
H1576 C1582 0.930 . S
H1577 C1585 0.930 . S
H1578 C1586 0.930 . S
H1579 C1587 0.930 . S
H1580 C1590 0.930 . S
H1581 C1591 0.930 . S
C1582 H1576 0.930 . S
C1582 C1583 1.355 . S
C1582 C1584 1.415 . S
C1583 C1582 1.355 . S
C1583 C1585 1.419 . S
C1584 C1582 1.415 . S
C1584 C1589 1.425 . S
C1584 C1591 1.409 . S
C1585 H1577 0.930 . S
C1585 C1583 1.419 . S
C1585 C1586 1.362 . S
C1586 H1578 0.930 . S
C1586 C1585 1.362 . S
C1586 C1589 1.409 . S
C1587 H1579 0.930 . S
C1587 C1588 1.355 . S
C1587 C1589 1.415 . S
C1588 C1587 1.355 . S
C1588 C1590 1.419 . S
C1589 C1584 1.425 . S
C1589 C1586 1.409 . S
C1589 C1587 1.415 . S
C1590 H1580 0.930 . S
C1590 C1588 1.419 . S
C1590 C1591 1.362 . S
C1591 H1581 0.930 . S
C1591 C1584 1.409 . S
C1591 C1590 1.362 . S
H1592 C1598 0.930 . S
H1593 C1601 0.930 . S
H1594 C1602 0.930 . S
H1595 C1603 0.930 . S
H1596 C1606 0.930 . S
H1597 C1607 0.930 . S
C1598 H1592 0.930 . S
C1598 C1599 1.355 . S
C1598 C1600 1.415 1_545 S
C1599 C1598 1.355 . S
C1599 C1601 1.419 . S
C1600 C1598 1.415 1_565 S
C1600 C1605 1.425 1_565 S
C1600 C1607 1.409 . S
C1601 H1593 0.930 . S
C1601 C1599 1.419 . S
C1601 C1602 1.362 . S
C1602 H1594 0.930 . S
C1602 C1601 1.362 . S
C1602 C1605 1.409 . S
C1603 H1595 0.930 . S
C1603 C1604 1.355 . S
C1603 C1605 1.415 1_565 S
C1604 C1603 1.355 . S
C1604 C1606 1.419 . S
C1605 C1600 1.425 1_545 S
C1605 C1602 1.409 . S
C1605 C1603 1.415 1_545 S
C1606 H1596 0.930 . S
C1606 C1604 1.419 . S
C1606 C1607 1.362 . S
C1607 H1597 0.930 . S
C1607 C1600 1.409 . S
C1607 C1606 1.362 . S
H1608 C1614 0.930 . S
H1609 C1617 0.930 . S
H1610 C1618 0.930 . S
H1611 C1619 0.930 . S
H1612 C1622 0.930 . S
H1613 C1623 0.930 . S
C1614 H1608 0.930 . S
C1614 C1615 1.355 . S
C1614 C1616 1.415 . S
C1615 C1614 1.355 . S
C1615 C1617 1.419 . S
C1616 C1614 1.415 . S
C1616 C1621 1.425 1_565 S
C1616 C1623 1.409 1_565 S
C1617 H1609 0.930 . S
C1617 C1615 1.419 . S
C1617 C1618 1.362 . S
C1618 H1610 0.930 . S
C1618 C1617 1.362 . S
C1618 C1621 1.409 1_565 S
C1619 H1611 0.930 . S
C1619 C1620 1.355 . S
C1619 C1621 1.415 . S
C1620 C1619 1.355 . S
C1620 C1622 1.419 . S
C1621 C1616 1.425 1_545 S
C1621 C1618 1.409 1_545 S
C1621 C1619 1.415 . S
C1622 H1612 0.930 . S
C1622 C1620 1.419 . S
C1622 C1623 1.362 . S
C1623 H1613 0.930 . S
C1623 C1616 1.409 1_545 S
C1623 C1622 1.362 . S
H1624 C1630 0.930 . S
H1625 C1633 0.930 . S
H1626 C1634 0.930 . S
H1627 C1635 0.930 . S
H1628 C1638 0.930 . S
H1629 C1639 0.930 . S
C1630 H1624 0.930 . S
C1630 C1631 1.355 . S
C1630 C1632 1.415 . S
C1631 C1630 1.355 . S
C1631 C1633 1.419 . S
C1632 C1630 1.415 . S
C1632 C1637 1.425 1_655 S
C1632 C1639 1.409 . S
C1633 H1625 0.930 . S
C1633 C1631 1.419 . S
C1633 C1634 1.362 1_655 S
C1634 H1626 0.930 . S
C1634 C1633 1.362 1_455 S
C1634 C1637 1.409 . S
C1635 H1627 0.930 . S
C1635 C1636 1.355 . S
C1635 C1637 1.415 . S
C1636 C1635 1.355 . S
C1636 C1638 1.419 . S
C1637 C1632 1.425 1_455 S
C1637 C1634 1.409 . S
C1637 C1635 1.415 . S
C1638 H1628 0.930 . S
C1638 C1636 1.419 . S
C1638 C1639 1.362 1_455 S
C1639 H1629 0.930 . S
C1639 C1632 1.409 . S
C1639 C1638 1.362 1_655 S
H1640 C1646 0.930 . S
H1641 C1649 0.930 . S
H1642 C1650 0.930 . S
H1643 C1651 0.930 . S
H1644 C1654 0.930 . S
H1645 C1655 0.930 . S
C1646 H1640 0.930 . S
C1646 C1647 1.355 . S
C1646 C1648 1.415 . S
C1647 C1646 1.355 . S
C1647 C1649 1.419 . S
C1648 C1646 1.415 . S
C1648 C1653 1.425 . S
C1648 C1655 1.409 . S
C1649 H1641 0.930 . S
C1649 C1647 1.419 . S
C1649 C1650 1.362 . S
C1650 H1642 0.930 . S
C1650 C1649 1.362 . S
C1650 C1653 1.409 . S
C1651 H1643 0.930 . S
C1651 C1652 1.355 . S
C1651 C1653 1.415 . S
C1652 C1651 1.355 . S
C1652 C1654 1.419 . S
C1653 C1648 1.425 . S
C1653 C1650 1.409 . S
C1653 C1651 1.415 . S
C1654 H1644 0.930 . S
C1654 C1652 1.419 . S
C1654 C1655 1.362 . S
C1655 H1645 0.930 . S
C1655 C1648 1.409 . S
C1655 C1654 1.362 . S
C511 C65 1.019 1_556 S
C516 C9 1.013 1_554 S
C527 C79 1.052 1_556 S
C532 C23 0.980 1_554 S
C543 C51 1.015 1_556 S
C548 C37 1.016 1_554 S
C559 C149 0.990 1_554 S
C564 C93 1.043 1_556 S
C575 C107 0.979 . S
C580 C163 1.064 . S
C591 C135 1.056 . S
C596 C121 0.990 . S
C607 C177 1.049 . S
C612 C233 0.988 . S
C623 C247 1.043 . S
C628 C191 0.995 . S
C639 C205 1.006 . S
C644 C219 1.030 . S
C655 C261 0.973 . S
C660 C317 1.067 . S
C671 C331 1.009 . S
C676 C275 1.027 . S
C687 C289 1.035 . S
C692 C303 1.018 . S
C703 C401 1.070 . S
C708 C345 0.974 . S
C719 C359 1.031 . S
C724 C415 1.005 . S
C735 C387 1.021 . S
C740 C373 1.031 . S
C751 C485 0.975 . S
C756 C429 1.070 . S
C767 C443 0.981 . S
C772 C499 1.057 . S
C783 C457 0.971 . S
C788 C471 1.102 . S
C799 C160 1.369 . S
C804 C6 1.412 . S
C815 C20 1.376 . S
C820 C132 1.406 . S
C831 C146 1.390 . S
C836 C34 1.391 . S
C847 C104 1.366 . S
C852 C48 1.415 . S
C863 C62 1.411 . S
C868 C118 1.369 . S
C879 C90 1.374 . S
C884 C76 1.407 . S
C895 C174 1.404 . S
C900 C328 1.384 . S
C911 C300 1.411 . S
C916 C188 1.377 . S
C927 C314 1.413 . S
C932 C202 1.374 . S
C943 C216 1.414 . S
C948 C272 1.368 . S
C959 C230 1.397 . S
C964 C286 1.385 . S
C975 C244 1.416 . S
C980 C258 1.367 . S
C991 C496 1.403 . S
C996 C342 1.380 . S
C1007 C356 1.379 . S
C1012 C468 1.404 . S
C1023 C370 1.373 . S
C1028 C482 1.409 . S
C1039 C440 1.410 . S
C1044 C384 1.378 . S
C1055 C454 1.381 . S
C1060 C398 1.406 . S
C1071 C426 1.407 . S
C1076 C412 1.381 . S
C1087 C217 1.414 . S
C1092 C7 1.419 . S
C1103 C231 1.394 . S
C1108 C21 1.434 . S
C1119 C35 1.396 . S
C1124 C245 1.434 . S
C1135 C49 1.404 . S
C1140 C343 1.429 . S
C1151 C63 1.394 . S
C1156 C357 1.434 . S
C1167 C77 1.436 . S
C1172 C371 1.393 . S
C1183 C91 1.429 . S
C1188 C469 1.403 . S
C1199 C105 1.437 . S
C1204 C483 1.391 . S
C1215 C119 1.421 . S
C1220 C497 1.412 . S
C1231 C133 1.416 . S
C1236 C259 1.417 . S
C1247 C273 1.432 . S
C1252 C147 1.393 . S
C1263 C287 1.396 . S
C1268 C161 1.433 . S
C1279 C385 1.449 . S
C1284 C175 1.418 . S
C1295 C189 1.427 . S
C1300 C399 1.437 . S
C1311 C413 1.444 . S
C1316 C203 1.429 . S
C1327 C301 1.451 . S
C1332 C427 1.423 . S
C1343 C441 1.449 . S
C1348 C315 1.424 . S
C1359 C455 1.416 . S
C1364 C329 1.451 . S
C1375 C8 1.627 . S
C1380 C414 1.603 . S
C1391 C22 1.653 . S
C1396 C386 1.622 . S
C1407 C36 1.628 . S
C1412 C400 1.603 . S
C1423 C50 1.640 . S
C1428 C190 1.676 . S
C1439 C204 1.618 . S
C1444 C64 1.599 . S
C1455 C176 1.651 . S
C1460 C78 1.621 . S
C1471 C330 1.691 . S
C1476 C92 1.679 . S
C1487 C302 1.642 . S
C1492 C106 1.677 . S
C1503 C316 1.593 . S
C1508 C120 1.616 . S
C1519 C442 1.678 . S
C1524 C134 1.696 . S
C1535 C456 1.658 . S
C1540 C148 1.628 . S
C1551 C428 1.617 . S
C1556 C162 1.598 . S
C1567 C218 1.615 . S
C1572 C358 1.585 . S
C1583 C372 1.573 . S
C1588 C232 1.583 . S
C1599 C344 1.619 . S
C1604 C246 1.652 . S
C1615 C260 1.621 . S
C1620 C498 1.654 . S
C1631 C470 1.582 . S
C1636 C274 1.610 . S
C1647 C288 1.588 . S
C1652 C484 1.573 . S
