# Generated by pormake.
# Topology smu, (6)-cn, num edge types: 1
# Building blocks:
#     Node 0, Type 0, BuildingBlock: OJICUG_clean_sbu_0, # of connection points: 6
#     Node 1, Type 0, BuildingBlock: OJICUG_clean_sbu_0, # of connection points: 6
#     Node 2, Type 0, BuildingBlock: OJICUG_clean_sbu_0, # of connection points: 6
#     Node 3, Type 0, BuildingBlock: OJICUG_clean_sbu_0, # of connection points: 6
#     Node 4, Type 0, BuildingBlock: OJICUG_clean_sbu_0, # of connection points: 6
#     Node 5, Type 0, BuildingBlock: OJICUG_clean_sbu_0, # of connection points: 6
#     Edge 6, Type (0, 0), BuildingBlock: XUDNAN_clean_linker_2, # of connection points: 2
#     Edge 7, Type (0, 0), BuildingBlock: XUDNAN_clean_linker_2, # of connection points: 2
#     Edge 8, Type (0, 0), BuildingBlock: XUDNAN_clean_linker_2, # of connection points: 2
#     Edge 9, Type (0, 0), BuildingBlock: XUDNAN_clean_linker_2, # of connection points: 2
#     Edge 10, Type (0, 0), BuildingBlock: XUDNAN_clean_linker_2, # of connection points: 2
#     Edge 11, Type (0, 0), BuildingBlock: XUDNAN_clean_linker_2, # of connection points: 2
#     Edge 12, Type (0, 0), BuildingBlock: XUDNAN_clean_linker_2, # of connection points: 2
#     Edge 13, Type (0, 0), BuildingBlock: XUDNAN_clean_linker_2, # of connection points: 2
#     Edge 14, Type (0, 0), BuildingBlock: XUDNAN_clean_linker_2, # of connection points: 2
#     Edge 15, Type (0, 0), BuildingBlock: XUDNAN_clean_linker_2, # of connection points: 2
#     Edge 16, Type (0, 0), BuildingBlock: XUDNAN_clean_linker_2, # of connection points: 2
#     Edge 17, Type (0, 0), BuildingBlock: XUDNAN_clean_linker_2, # of connection points: 2
#     Edge 18, Type (0, 0), BuildingBlock: XUDNAN_clean_linker_2, # of connection points: 2
#     Edge 19, Type (0, 0), BuildingBlock: XUDNAN_clean_linker_2, # of connection points: 2
#     Edge 20, Type (0, 0), BuildingBlock: XUDNAN_clean_linker_2, # of connection points: 2
#     Edge 21, Type (0, 0), BuildingBlock: XUDNAN_clean_linker_2, # of connection points: 2
#     Edge 22, Type (0, 0), BuildingBlock: XUDNAN_clean_linker_2, # of connection points: 2
#     Edge 23, Type (0, 0), BuildingBlock: XUDNAN_clean_linker_2, # of connection points: 2
# Relax obj value: 0.250
# Max RMSD: 0.294
# Mean RMSD: 0.265
data_MOF--net-smu--node1-OJICUG_clean_sbu_0--edge1-XUDNAN_clean_linker_2
_symmetry_space_group_name_H-M    P1
_symmetry_Int_Tables_number       1
_symmetry_cell_setting            triclinic
loop_
_symmetry_equiv_pos_as_xyz
'x, y, z'
_cell_length_a     29.993861
_cell_length_b     29.90161
_cell_length_c     30.93401
_cell_angle_alpha  95.479089
_cell_angle_beta   95.676947
_cell_angle_gamma 119.51346
loop_
_atom_site_label
_atom_site_type_symbol
_atom_site_fract_x
_atom_site_fract_y
_atom_site_fract_z
_atom_type_partial_charge
Sc0 Sc 0.27884 0.05536 0.18841 0.0
Sc1 Sc 0.32688 0.00727 0.26893 0.0
Sc2 Sc 0.33231 0.12748 0.29222 0.0
O3 O 0.31144 0.06207 0.25028 0.0
C4 C 0.3545 0.17409 0.20466 0.0
C5 C 0.34791 0.00564 0.16988 0.0
C6 C 0.43251 0.11685 0.29238 0.0
C7 C 0.21221 0.94267 0.21384 0.0
C8 C 0.22217 0.0979 0.24926 0.0
C9 C 0.3149 0.04984 0.36198 0.0
O10 O 0.33889 0.13091 0.18052 0.0
O11 O 0.35177 0.99393 0.20785 0.0
O12 O 0.41127 0.14491 0.29401 0.0
O13 O 0.21867 0.97804 0.19109 0.0
O14 O 0.25218 0.10873 0.28583 0.0
O15 O 0.30702 0.0113 0.33448 0.0
O16 O 0.23131 0.08446 0.21229 0.0
O17 O 0.24661 0.94694 0.24454 0.0
O18 O 0.32652 0.09342 0.3508 0.0
O19 O 0.32264 0.02731 0.15864 0.0
O20 O 0.34392 0.17675 0.24309 0.0
O21 O 0.40744 0.06742 0.29133 0.0
Sc22 Sc 0.73564 0.62295 0.19277 0.0
Sc23 Sc 0.65254 0.64291 0.25561 0.0
Sc24 Sc 0.78586 0.70006 0.29752 0.0
O25 O 0.72458 0.65519 0.24857 0.0
C26 C 0.80362 0.60595 0.26836 0.0
C27 C 0.62487 0.53178 0.20695 0.0
C28 C 0.69582 0.64158 0.35329 0.0
C29 C 0.65779 0.65817 0.15482 0.0
C30 C 0.84286 0.7299 0.21441 0.0
C31 C 0.72735 0.76437 0.29317 0.0
O32 O 0.77875 0.59528 0.22948 0.0
O33 O 0.6155 0.56086 0.2325 0.0
O34 O 0.74264 0.6691 0.34838 0.0
O35 O 0.69438 0.6488 0.15183 0.0
O36 O 0.83911 0.73745 0.25449 0.0
O37 O 0.68257 0.72452 0.27917 0.0
O38 O 0.80735 0.69131 0.18696 0.0
O39 O 0.63745 0.65633 0.18932 0.0
O40 O 0.76869 0.76208 0.3 0.0
O41 O 0.66599 0.54895 0.19002 0.0
O42 O 0.80819 0.64149 0.2978 0.0
O43 O 0.6578 0.62662 0.32233 0.0
Sc44 Sc 0.84026 0.17084 0.17103 0.0
Sc45 Sc 0.95327 0.28488 0.22383 0.0
Sc46 Sc 0.8455 0.23045 0.27419 0.0
O47 O 0.87919 0.22911 0.22211 0.0
C48 C 0.75705 0.20261 0.1979 0.0
C49 C 0.90483 0.26175 0.12103 0.0
C50 C 0.91215 0.35071 0.26574 0.0
C51 C 0.95197 0.18199 0.1912 0.0
C52 C 0.80015 0.10928 0.248 0.0
C53 C 0.95289 0.26017 0.32119 0.0
O54 O 0.76846 0.17347 0.17398 0.0
O55 O 0.94298 0.2842 0.15294 0.0
O56 O 0.88736 0.31493 0.28785 0.0
O57 O 0.90737 0.16107 0.16689 0.0
O58 O 0.79872 0.14649 0.26997 0.0
O59 O 0.97441 0.29226 0.29514 0.0
O60 O 0.81919 0.11357 0.21291 0.0
O61 O 0.97346 0.22612 0.21584 0.0
O62 O 0.90469 0.22733 0.31436 0.0
O63 O 0.86081 0.22386 0.12453 0.0
O64 O 0.78562 0.2323 0.23346 0.0
O65 O 0.93288 0.34407 0.23365 0.0
Sc66 Sc 0.10624 0.32358 0.69716 0.0
Sc67 Sc 0.00508 0.33234 0.73198 0.0
Sc68 Sc 0.12611 0.39414 0.80078 0.0
O69 O 0.07959 0.35004 0.7442 0.0
C70 C 0.14842 0.29905 0.78417 0.0
C71 C 0.99534 0.22718 0.70098 0.0
C72 C 0.02032 0.33956 0.83678 0.0
C73 C 0.03553 0.34183 0.63605 0.0
C74 C 0.20648 0.43327 0.73475 0.0
C75 C 0.06829 0.45346 0.76282 0.0
O76 O 0.13148 0.28906 0.74305 0.0
O77 O 0.98199 0.25191 0.72751 0.0
O78 O 0.06852 0.35536 0.84136 0.0
O79 O 0.08286 0.35936 0.65066 0.0
O80 O 0.19002 0.44067 0.76924 0.0
O81 O 0.03096 0.41364 0.7372 0.0
O82 O 0.18221 0.39152 0.70704 0.0
O83 O 0.00136 0.32393 0.66079 0.0
O84 O 0.10205 0.45153 0.79048 0.0
O85 O 0.03319 0.24983 0.68031 0.0
O86 O 0.15239 0.33764 0.81005 0.0
O87 O 0.99401 0.33435 0.79996 0.0
Sc88 Sc 0.20087 0.91749 0.72147 0.0
Sc89 Sc 0.33005 -0.0017 0.77139 0.0
Sc90 Sc 0.26173 0.86996 0.78684 0.0
O91 O 0.26452 0.92936 0.76063 0.0
C92 C 0.15026 0.85817 0.79412 0.0
C93 C 0.24894 0.0347 0.77178 0.0
C94 C 0.32527 0.9592 0.86572 0.0
C95 C 0.28622 0.98055 0.66725 0.0
C96 C 0.19398 0.80664 0.70254 0.0
C97 C 0.37771 0.92655 0.76569 0.0
O98 O 0.15877 0.89661 0.77483 0.0
O99 O 0.28958 0.03717 0.79134 0.0
O100 O 0.28645 0.91386 0.85136 0.0
O101 O 0.24295 0.9393 0.66726 0.0
O102 O 0.24026 0.82741 0.72206 0.0
O103 O 0.3758 0.9648 0.75291 0.0
O104 O 0.17176 0.83364 0.70052 0.0
O105 O 0.31795 0.00852 0.70277 0.0
O106 O 0.34143 0.89231 0.7825 0.0
O107 O 0.2177 -0.00252 0.74062 0.0
O108 O 0.18025 0.83913 0.79532 0.0
O109 O 0.34756 0.99258 0.84057 0.0
Sc110 Sc 0.6684 0.76764 0.69818 0.0
Sc111 Sc 0.67058 0.67589 0.76111 0.0
Sc112 Sc 0.73074 0.80881 0.80703 0.0
O113 O 0.69005 0.75037 0.75535 0.0
C114 C 0.77926 0.86353 0.72546 0.0
C115 C 0.68538 0.67489 0.66104 0.0
C116 C 0.79071 0.74518 0.8058 0.0
C117 C 0.56655 0.66691 0.71308 0.0
C118 C 0.65289 0.84149 0.76891 0.0
C119 C 0.66311 0.71688 0.85774 0.0
O120 O 0.74626 0.82704 0.69501 0.0
O121 O 0.68475 0.65699 0.69664 0.0
O122 O 0.78906 0.78689 0.81423 0.0
O123 O 0.58921 0.70992 0.6987 0.0
O124 O 0.67398 0.83345 0.80265 0.0
O125 O 0.65051 0.68048 0.82599 0.0
O126 O 0.65343 0.82492 0.72979 0.0
O127 O 0.59039 0.64818 0.73435 0.0
O128 O 0.69278 0.7644 0.85561 0.0
O129 O 0.67973 0.71366 0.65748 0.0
O130 O 0.77511 0.86286 0.76592 0.0
O131 O 0.75092 0.70132 0.78795 0.0
H132 H 0.28626 0.89746 0.92757 0.0
H133 H 0.41255 0.04815 0.91189 0.0
H134 H 0.44687 0.06613 0.99157 0.0
H135 H 0.26003 0.93833 0.02255 0.0
H136 H 0.24381 0.88022 0.04587 0.0
H137 H 0.23637 0.87686 0.98727 0.0
H138 H 0.29581 0.8367 0.9844 0.0
H139 H 0.30451 0.84157 0.04353 0.0
H140 H 0.36032 0.87137 0.01644 0.0
H141 H 0.4591 0.07288 0.07351 0.0
H142 H 0.44007 0.07349 0.14928 0.0
H143 H 0.30753 0.91785 0.11121 0.0
C144 C 0.32172 0.934 0.94051 0.0
C145 C 0.34671 0.97139 0.91333 0.0
C146 C 0.39262 0.01888 0.93199 0.0
C147 C 0.41278 0.0291 0.97711 0.0
C148 C 0.38699 0.99116 0.00289 0.0
C149 C 0.34223 0.94465 0.98513 0.0
C150 C 0.31749 0.91319 0.02026 0.0
C151 C 0.26117 0.90156 0.01892 0.0
C152 C 0.31969 0.86272 0.01588 0.0
C153 C 0.35328 0.9508 0.0611 0.0
C154 C 0.39433 0.99479 0.05041 0.0
C155 C 0.42819 0.03807 0.08234 0.0
C156 C 0.41756 0.0379 0.12545 0.0
C157 C 0.37342 0.99493 0.13593 0.0
C158 C 0.34289 0.94986 0.10416 0.0
H159 H 0.76134 0.71035 0.61178 0.0
H160 H 0.60921 0.58079 0.61677 0.0
H161 H 0.59781 0.54986 0.53707 0.0
H162 H 0.73082 0.74195 0.51881 0.0
H163 H 0.78924 0.75864 0.49632 0.0
H164 H 0.79117 0.76317 0.5548 0.0
H165 H 0.82802 0.70108 0.55781 0.0
H166 H 0.82774 0.69743 0.49926 0.0
H167 H 0.79456 0.63857 0.52228 0.0
H168 H 0.59539 0.54655 0.45444 0.0
H169 H 0.60795 0.5635 0.37825 0.0
H170 H 0.76336 0.69309 0.42956 0.0
C171 C 0.72707 0.67379 0.59645 0.0
C172 C 0.6867 0.64705 0.6201 0.0
C173 C 0.64115 0.60065 0.5991 0.0
C174 C 0.63423 0.58315 0.55384 0.0
C175 C 0.67376 0.61209 0.53063 0.0
C176 C 0.72005 0.65554 0.55163 0.0
C177 C 0.75432 0.68302 0.51904 0.0
C178 C 0.76707 0.74002 0.52247 0.0
C179 C 0.8041 0.6798 0.52495 0.0
C180 C 0.71895 0.65027 0.47638 0.0
C181 C 0.67275 0.60928 0.4834 0.0
C182 C 0.63209 0.57753 0.44853 0.0
C183 C 0.63929 0.58769 0.40546 0.0
C184 C 0.68681 0.62915 0.39789 0.0
C185 C 0.72696 0.66029 0.43399 0.0
H186 H -0.0029 0.31185 0.08972 0.0
H187 H 0.83053 0.24398 0.05194 0.0
H188 H 0.84255 0.25992 0.97598 0.0
H189 H 0.03727 0.41201 0.0181 0.0
H190 H 0.09075 0.40441 0.00531 0.0
H191 H 0.06955 0.39227 0.05766 0.0
H192 H 0.05715 0.29976 0.04255 0.0
H193 H 0.0778 0.31139 0.99001 0.0
H194 H 0.01568 0.25593 0.99296 0.0
H195 H 0.8718 0.27813 0.9032 0.0
H196 H 0.91628 0.29846 0.83882 0.0
H197 H 0.06387 0.35269 0.92328 0.0
C198 C 0.96327 0.30145 0.06574 0.0
C199 C 0.91287 0.27703 0.07694 0.0
C200 C 0.86952 0.26287 0.04423 0.0
C201 C 0.87595 0.27179 0.00097 0.0
C202 C 0.92596 0.29475 0.99079 0.0
C203 C 0.96893 0.30959 0.02224 0.0
C204 C 0.01806 0.33079 0.00204 0.0
C205 C 0.05615 0.38829 0.02196 0.0
C206 C 0.04366 0.29747 0.0072 0.0
C207 C 0.9959 0.32498 0.95427 0.0
C208 C 0.94276 0.30444 0.94858 0.0
C209 C 0.91347 0.29457 0.9073 0.0
C210 C 0.93916 0.30619 0.87086 0.0
C211 C 0.9937 0.32725 0.87576 0.0
C212 C 0.02221 0.33667 0.91823 0.0
H213 H 0.26109 0.96374 0.40327 0.0
H214 H 0.37277 0.12995 0.42924 0.0
H215 H 0.37922 0.12879 0.50879 0.0
H216 H 0.19424 0.96608 0.49422 0.0
H217 H 0.18268 0.90415 0.50724 0.0
H218 H 0.18787 0.91674 0.45162 0.0
H219 H 0.26124 0.89471 0.45162 0.0
H220 H 0.25639 0.88224 0.50732 0.0
H221 H 0.31792 0.92913 0.49408 0.0
H222 H 0.37606 0.11088 0.58512 0.0
H223 H 0.35731 0.07823 0.65508 0.0
H224 H 0.24378 0.92434 0.58257 0.0
C225 C 0.28693 -0.00027 0.42578 0.0
C226 C 0.3164 0.04695 0.40981 0.0
C227 C 0.34943 0.09334 0.44045 0.0
C228 C 0.35368 0.09312 0.48584 0.0
C229 C 0.32422 0.04629 0.50055 0.0
C230 C 0.29097 0.00048 0.47169 0.0
C231 C 0.26217 0.9562 0.49696 0.0
C232 C 0.20324 0.93452 0.48691 0.0
C233 C 0.27522 0.91302 0.48689 0.0
C234 C 0.28465 0.98448 0.54426 0.0
C235 C 0.32084 0.03627 0.54532 0.0
C236 C 0.34763 0.07041 0.58481 0.0
C237 C 0.33681 0.05138 0.62446 0.0
C238 C 0.29898 -0.00127 0.62457 0.0
C239 C 0.27274 0.96486 0.58372 0.0
H240 H 0.71112 0.77426 0.939 0.0
H241 H 0.57558 0.62979 0.87198 0.0
H242 H 0.54928 0.60772 0.94405 0.0
H243 H 0.74268 0.72087 0.02105 0.0
H244 H 0.76666 0.77676 0.06358 0.0
H245 H 0.76829 0.78522 0.00699 0.0
H246 H 0.71554 0.83222 0.01453 0.0
H247 H 0.71323 0.82318 0.07124 0.0
H248 H 0.65383 0.7999 0.03322 0.0
H249 H 0.54341 0.59733 0.02356 0.0
H250 H 0.56505 0.59347 0.10202 0.0
H251 H 0.70671 0.74238 0.1157 0.0
C252 C 0.67508 0.73863 0.93934 0.0
C253 C 0.64496 0.70402 0.89997 0.0
C254 C 0.59904 0.65694 0.90185 0.0
C255 C 0.58359 0.6444 0.94256 0.0
C256 C 0.61462 0.67928 0.98091 0.0
C257 C 0.65973 0.72523 0.97952 0.0
C258 C 0.69051 0.75244 0.02509 0.0
C259 C 0.74521 0.75915 0.02941 0.0
C260 C 0.69342 0.80505 0.0367 0.0
C261 C 0.65687 0.71363 0.05241 0.0
C262 C 0.61233 0.6725 0.0266 0.0
C263 C 0.57754 0.6298 0.04419 0.0
C264 C 0.58982 0.62806 0.08876 0.0
C265 C 0.63678 0.6683 0.11463 0.0
C266 C 0.66978 0.71215 0.09665 0.0
H267 H 0.02041 0.34963 0.37901 0.0
H268 H 0.94398 0.18108 0.36138 0.0
H269 H 0.96191 0.18537 0.44141 0.0
H270 H 0.12136 0.37394 0.48043 0.0
H271 H 0.11808 0.42926 0.50474 0.0
H272 H 0.11013 0.41373 0.4457 0.0
H273 H 0.0224 0.41164 0.43886 0.0
H274 H 0.02872 0.42483 0.49778 0.0
H275 H 0.97205 0.36759 0.46643 0.0
H276 H 0.965 0.20513 0.52034 0.0
H277 H 0.97752 0.24149 0.59836 0.0
H278 H 0.05985 0.39818 0.56819 0.0
C279 C 0.01043 0.31406 0.39196 0.0
C280 C 0.98101 0.26504 0.36445 0.0
C281 C 0.96677 0.21891 0.38226 0.0
C282 C 0.97651 0.22095 0.4276 0.0
C283 C 0.00155 0.2695 0.45437 0.0
C284 C 0.02045 0.31549 0.43743 0.0
C285 C 0.04261 0.36205 0.4741 0.0
C286 C 0.10156 0.39679 0.47639 0.0
C287 C 0.01476 0.39333 0.46895 0.0
C288 C 0.0302 0.33458 0.51371 0.0
C289 C 0.0061 0.28119 0.5013 0.0
C290 C 0.98547 0.24691 0.53085 0.0
C291 C 0.9919 0.26784 0.57483 0.0
C292 C 0.01945 0.32239 0.58879 0.0
C293 C 0.03865 0.35629 0.55796 0.0
H294 H 0.4858 0.06743 0.27017 0.0
H295 H 0.49791 0.21927 0.28565 0.0
H296 H 0.57572 0.2538 0.25014 0.0
H297 H 0.62282 0.11459 0.29235 0.0
H298 H 0.61828 0.06375 0.25259 0.0
H299 H 0.56374 0.05203 0.2792 0.0
H300 H 0.50548 0.02598 0.20204 0.0
H301 H 0.56088 0.03804 0.17632 0.0
H302 H 0.52593 0.07099 0.16344 0.0
H303 H 0.65242 0.27221 0.21371 0.0
H304 H 0.7313 0.27694 0.1915 0.0
H305 H 0.66755 0.11284 0.19689 0.0
C306 C 0.50522 0.10824 0.26695 0.0
C307 C 0.48552 0.14055 0.281 0.0
C308 C 0.51221 0.19365 0.27559 0.0
C309 C 0.55608 0.2135 0.25482 0.0
C310 C 0.57276 0.17983 0.23951 0.0
C311 C 0.5488 0.12863 0.24607 0.0
C312 C 0.57586 0.1012 0.22823 0.0
C313 C 0.59642 0.08179 0.26529 0.0
C314 C 0.53984 0.05637 0.19028 0.0
C315 C 0.61965 0.1454 0.21153 0.0
C316 C 0.61653 0.19017 0.2176 0.0
C317 C 0.65486 0.23725 0.20811 0.0
C318 C 0.69915 0.23945 0.19488 0.0
C319 C 0.70451 0.19486 0.19119 0.0
C320 C 0.6632 0.14677 0.19751 0.0
H321 H 0.53695 0.47907 0.24257 0.0
H322 H 0.62401 0.45728 0.14672 0.0
H323 H 0.55792 0.36352 0.12914 0.0
H324 H 0.50283 0.36394 0.28446 0.0
H325 H 0.43937 0.35167 0.29272 0.0
H326 H 0.49114 0.41738 0.29446 0.0
H327 H 0.43401 0.42982 0.23366 0.0
H328 H 0.38218 0.36381 0.23147 0.0
H329 H 0.4072 0.38529 0.18208 0.0
H330 H 0.48456 0.27103 0.12538 0.0
H331 H 0.41411 0.18733 0.13987 0.0
H332 H 0.37666 0.27162 0.23804 0.0
C333 C 0.54202 0.45488 0.2175 0.0
C334 C 0.58561 0.47565 0.19594 0.0
C335 C 0.59091 0.44229 0.16372 0.0
C336 C 0.55342 0.38906 0.15328 0.0
C337 C 0.51091 0.36997 0.17523 0.0
C338 C 0.50523 0.40193 0.20678 0.0
C339 C 0.45815 0.37157 0.22791 0.0
C340 C 0.47384 0.37642 0.27782 0.0
C341 C 0.41801 0.38865 0.21818 0.0
C342 C 0.43881 0.31724 0.20408 0.0
C343 C 0.46916 0.31701 0.17332 0.0
C344 C 0.46015 0.27077 0.149 0.0
C345 C 0.41993 0.22347 0.15728 0.0
C346 C 0.38989 0.22309 0.18997 0.0
C347 C 0.39879 0.27069 0.21269 0.0
H348 H 0.90084 0.4089 0.20817 0.0
H349 H 0.92101 0.40048 0.34723 0.0
H350 H 0.90559 0.47369 0.36441 0.0
H351 H 0.95375 0.55329 0.219 0.0
H352 H 0.90468 0.54397 0.17467 0.0
H353 H 0.92848 0.49913 0.1745 0.0
H354 H 0.83402 0.42237 0.16758 0.0
H355 H 0.80998 0.46682 0.16848 0.0
H356 H 0.79523 0.42328 0.20824 0.0
H357 H 0.87708 0.53985 0.36542 0.0
H358 H 0.83637 0.59258 0.34987 0.0
H359 H 0.83025 0.55314 0.2098 0.0
C360 C 0.90416 0.42404 0.24231 0.0
C361 C 0.91293 0.4 0.27649 0.0
C362 C 0.91482 0.41905 0.32072 0.0
C363 C 0.90626 0.46059 0.33076 0.0
C364 C 0.89554 0.48222 0.29611 0.0
C365 C 0.89463 0.4647 0.25276 0.0
C366 C 0.87534 0.48945 0.22122 0.0
C367 C 0.91813 0.5235 0.19586 0.0
C368 C 0.82571 0.44801 0.18955 0.0
C369 C 0.86404 0.5223 0.25347 0.0
C370 C 0.87685 0.51853 0.29654 0.0
C371 C 0.8675 0.54367 0.33183 0.0
C372 C 0.84425 0.57334 0.32272 0.0
C373 C 0.82986 0.57662 0.27867 0.0
C374 C 0.84048 0.55112 0.24384 0.0
H375 H 0.15982 0.5406 0.75933 0.0
H376 H 0.99406 0.48037 0.74625 0.0
H377 H 0.00633 0.5622 0.72289 0.0
H378 H 0.20409 0.67534 0.7985 0.0
H379 H 0.25617 0.69908 0.76679 0.0
H380 H 0.23355 0.63705 0.78466 0.0
H381 H 0.21709 0.59338 0.70362 0.0
H382 H 0.23869 0.65521 0.68554 0.0
H383 H 0.17523 0.6005 0.66242 0.0
H384 H 0.03818 0.65261 0.70218 0.0
H385 H 0.08702 0.74385 0.68946 0.0
H386 H 0.23002 0.73929 0.70867 0.0
C387 C 0.12633 0.54519 0.75253 0.0
C388 C 0.07617 0.50482 0.75554 0.0
C389 C 0.03293 0.51135 0.74481 0.0
C390 C 0.03949 0.55746 0.7312 0.0
C391 C 0.0894 0.59606 0.72741 0.0
C392 C 0.13202 0.59023 0.73771 0.0
C393 C 0.18126 0.63654 0.72957 0.0
C394 C 0.22109 0.66361 0.77243 0.0
C395 C 0.2044 0.62042 0.69312 0.0
C396 C 0.16003 0.67003 0.71428 0.0
C397 C 0.10698 0.64615 0.71305 0.0
C398 C 0.07965 0.67138 0.70247 0.0
C399 C 0.10765 0.7231 0.69479 0.0
C400 C 0.16241 0.74891 0.69766 0.0
C401 C 0.18817 0.72082 0.70572 0.0
H402 H 0.40069 0.85599 0.79709 0.0
H403 H 0.46271 0.99011 0.72978 0.0
H404 H 0.54349 0.98734 0.72949 0.0
H405 H 0.5209 0.89139 0.8665 0.0
H406 H 0.50783 0.82535 0.86242 0.0
H407 H 0.45479 0.83792 0.85799 0.0
H408 H 0.41445 0.77701 0.7822 0.0
H409 H 0.46692 0.76369 0.78677 0.0
H410 H 0.45346 0.7883 0.73927 0.0
H411 H 0.61553 0.9677 0.73323 0.0
H412 H 0.67289 0.93019 0.73861 0.0
H413 H 0.5662 0.81166 0.80632 0.0
C414 C 0.43114 0.8848 0.78218 0.0
C415 C 0.42521 0.92332 0.76345 0.0
C416 C 0.46619 0.96023 0.74434 0.0
C417 C 0.51236 0.95912 0.74418 0.0
C418 C 0.5171 0.92108 0.76344 0.0
C419 C 0.47755 0.88443 0.7819 0.0
C420 C 0.49202 0.84683 0.79942 0.0
C421 C 0.49401 0.85063 0.84957 0.0
C422 C 0.45449 0.79066 0.77548 0.0
C423 C 0.54578 0.86783 0.78757 0.0
C424 C 0.55949 0.91075 0.76689 0.0
C425 C 0.60568 0.93473 0.75004 0.0
C426 C 0.63807 0.91344 0.75341 0.0
C427 C 0.62438 0.86924 0.77399 0.0
C428 C 0.57823 0.84672 0.79198 0.0
H429 H 0.28599 0.42458 0.70838 0.0
H430 H 0.23818 0.5362 0.74465 0.0
H431 H 0.32266 0.60796 0.73311 0.0
H432 H 0.41171 0.5012 0.76827 0.0
H433 H 0.44255 0.48119 0.7299 0.0
H434 H 0.37554 0.43814 0.73359 0.0
H435 H 0.34948 0.4323 0.64988 0.0
H436 H 0.41656 0.47552 0.64596 0.0
H437 H 0.36786 0.49126 0.62736 0.0
H438 H 0.413 0.66718 0.7212 0.0
H439 H 0.50716 0.71162 0.71925 0.0
H440 H 0.49887 0.56196 0.69819 0.0
C441 C 0.29313 0.46408 0.71288 0.0
C442 C 0.2558 0.47529 0.7265 0.0
C443 C 0.26654 0.5273 0.7337 0.0
C444 C 0.31412 0.56805 0.727 0.0
C445 C 0.35055 0.55589 0.71393 0.0
C446 C 0.34096 0.50529 0.7076 0.0
C447 C 0.38887 0.50343 0.69921 0.0
C448 C 0.40565 0.4796 0.73488 0.0
C449 C 0.38016 0.47388 0.65284 0.0
C450 C 0.42718 0.56095 0.70272 0.0
C451 C 0.4039 0.59041 0.70996 0.0
C452 C 0.43164 0.64458 0.71525 0.0
C453 C 0.48492 0.6694 0.71394 0.0
C454 C 0.50979 0.63994 0.70848 0.0
C455 C 0.48049 0.58513 0.70231 0.0
H456 H 0.18001 0.12469 0.18251 0.0
H457 H 0.15899 0.08172 0.31216 0.0
H458 H 0.07784 0.08574 0.30549 0.0
H459 H 0.14201 0.21788 0.19498 0.0
H460 H 0.11106 0.20333 0.13839 0.0
H461 H 0.16362 0.19164 0.1523 0.0
H462 H 0.10456 0.09528 0.1144 0.0
H463 H 0.05144 0.10656 0.10102 0.0
H464 H 0.0432 0.05547 0.13173 0.0
H465 H 0.00167 0.0984 0.2854 0.0
H466 H 0.94409 0.13084 0.25907 0.0
H467 H 0.01739 0.16791 0.14358 0.0
C468 C 0.15806 0.11553 0.20939 0.0
C469 C 0.17534 0.10247 0.24775 0.0
C470 C 0.14632 0.09193 0.28259 0.0
C471 C 0.10002 0.09353 0.2788 0.0
C472 C 0.08383 0.10597 0.24012 0.0
C473 C 0.11248 0.11749 0.20633 0.0
C474 C 0.08974 0.13444 0.16992 0.0
C475 C 0.12892 0.19012 0.16357 0.0
C476 C 0.07113 0.09561 0.12671 0.0
C477 C 0.04436 0.13224 0.18893 0.0
C478 C 0.0408 0.11439 0.22892 0.0
C479 C 0.00371 0.11171 0.25394 0.0
C480 C 0.97098 0.12978 0.2386 0.0
C481 C 0.97584 0.15041 0.19888 0.0
C482 C 0.01205 0.15061 0.17324 0.0
H483 H 0.92954 0.80895 0.26772 0.0
H484 H 0.87385 0.72232 0.13421 0.0
H485 H 0.96447 0.76412 0.12026 0.0
H486 H 0.03731 0.92811 0.24394 0.0
H487 H 0.07784 0.93738 0.29493 0.0
H488 H 0.00835 0.90496 0.29147 0.0
H489 H 0.0096 0.82606 0.3187 0.0
H490 H 0.07883 0.85742 0.32067 0.0
H491 H 0.03681 0.79357 0.28833 0.0
H492 H 0.06211 0.81418 0.12232 0.0
H493 H 0.15776 0.87309 0.13876 0.0
H494 H 0.1473 0.91816 0.27289 0.0
C495 C 0.9359 0.79936 0.23512 0.0
C496 C 0.89439 0.76227 0.20203 0.0
C497 C 0.90492 0.75085 0.16001 0.0
C498 C 0.95628 0.77405 0.15191 0.0
C499 C -0.00364 0.80819 0.18624 0.0
C500 C 0.98656 0.8212 0.22681 0.0
C501 C 0.03611 0.85722 0.25892 0.0
C502 C 0.04014 0.91004 0.27312 0.0
C503 C 0.04056 0.83203 0.29901 0.0
C504 C 0.07564 0.86228 0.23024 0.0
C505 C 0.0521 0.83409 0.18829 0.0
C506 C 0.08094 0.83574 0.1552 0.0
C507 C 0.13506 0.86867 0.16487 0.0
C508 C 0.15938 0.89825 0.20744 0.0
C509 C 0.12952 0.89401 0.24072 0.0
H510 H 0.84879 0.05393 0.2493 0.0
H511 H 0.71252 0.05414 0.28435 0.0
H512 H 0.68136 0.96716 0.30657 0.0
H513 H 0.78992 0.92396 0.20303 0.0
H514 H 0.84281 0.91529 0.22434 0.0
H515 H 0.85553 0.97863 0.21496 0.0
H516 H 0.90047 0.01739 0.29615 0.0
H517 H 0.8881 0.95412 0.3059 0.0
H518 H 0.86598 0.98907 0.33989 0.0
H519 H 0.66062 0.87531 0.3149 0.0
H520 H 0.6552 0.78989 0.31471 0.0
H521 H 0.80913 0.85481 0.27981 0.0
C522 C 0.81268 0.03589 0.26219 0.0
C523 C 0.78267 0.06006 0.26493 0.0
C524 C 0.73591 0.03589 0.28221 0.0
C525 C 0.71806 0.98668 0.29482 0.0
C526 C 0.74831 0.96336 0.29094 0.0
C527 C 0.79513 0.98776 0.27579 0.0
C528 C 0.81996 0.95442 0.27354 0.0
C529 C 0.82745 0.94236 0.22616 0.0
C530 C 0.87168 0.9803 0.30581 0.0
C531 C 0.77886 0.90636 0.2882 0.0
C532 C 0.73777 0.91208 0.29811 0.0
C533 C 0.6931 0.87084 0.30828 0.0
C534 C 0.69027 0.82251 0.30794 0.0
C535 C 0.73212 0.81616 0.29798 0.0
C536 C 0.77718 0.85896 0.28877 0.0
H537 H 0.10412 0.19631 0.75299 0.0
H538 H 0.22991 0.32067 0.84942 0.0
H539 H 0.26561 0.26268 0.86213 0.0
H540 H 0.09079 0.08483 0.80582 0.0
H541 H 0.07817 0.0453 0.75332 0.0
H542 H 0.0584 0.09329 0.7577 0.0
H543 H 0.10972 0.13534 0.69658 0.0
H544 H 0.13035 0.08819 0.6918 0.0
H545 H 0.17804 0.15679 0.70278 0.0
H546 H 0.29347 0.19445 0.85573 0.0
H547 H 0.30906 0.12235 0.83446 0.0
H548 H 0.16526 0.04432 0.74014 0.0
C549 C 0.13845 0.21101 0.77777 0.0
C550 C 0.16426 0.263 0.80039 0.0
C551 C 0.20915 0.28081 0.83226 0.0
C552 C 0.22978 0.24818 0.83939 0.0
C553 C 0.20462 0.19789 0.81471 0.0
C554 C 0.15941 0.17928 0.78499 0.0
C555 C 0.14195 0.12586 0.75962 0.0
C556 C 0.08921 0.08488 0.76976 0.0
C557 C 0.13994 0.12665 0.70977 0.0
C558 C 0.18527 0.1176 0.77861 0.0
C559 C 0.22077 0.15923 0.81067 0.0
C560 C 0.26548 0.16144 0.83114 0.0
C561 C 0.27407 0.12024 0.81861 0.0
C562 C 0.23841 0.07733 0.78551 0.0
C563 C 0.19326 0.07619 0.76564 0.0
H564 H 0.09543 0.901 0.82427 0.0
H565 H 0.08991 0.75346 0.79544 0.0
H566 H -0.00239 0.70687 0.80504 0.0
H567 H 0.00255 0.86139 0.90558 0.0
H568 H 0.97549 0.89919 0.88577 0.0
H569 H 0.04292 0.92026 0.88475 0.0
H570 H 0.02837 0.92234 0.80114 0.0
H571 H 0.96101 0.90073 0.80171 0.0
H572 H 0.97883 0.86431 0.76457 0.0
H573 H 0.90188 0.67678 0.80442 0.0
H574 H 0.81427 0.66649 0.7986 0.0
H575 H 0.88499 0.83454 0.82994 0.0
C576 C 0.07529 0.85896 0.82149 0.0
C577 C 0.09977 0.83081 0.80945 0.0
C578 C 0.07207 0.7758 0.80544 0.0
C579 C 0.01957 0.74903 0.81063 0.0
C580 C 0.99587 0.778 0.82067 0.0
C581 C 0.02331 0.83189 0.82693 0.0
C582 C 0.98837 0.85411 0.83361 0.0
C583 C 0.00322 0.88559 0.88021 0.0
C584 C 0.9892 0.88728 0.79814 0.0
C585 C 0.93647 0.80436 0.82808 0.0
C586 C 0.94135 0.76075 0.82106 0.0
C587 C 0.89778 0.71066 0.81096 0.0
C588 C 0.84813 0.70519 0.80756 0.0
C589 C 0.84249 0.7496 0.81416 0.0
C590 C 0.88757 0.79958 0.82543 0.0
H591 H 0.95538 0.16845 0.7635 0.0
H592 H 0.97477 0.15803 0.62655 0.0
H593 H 0.92835 0.0616 0.61866 0.0
H594 H 0.97384 0.05953 0.78574 0.0
H595 H 0.92707 0.04001 0.82257 0.0
H596 H 0.96448 0.10757 0.81676 0.0
H597 H 0.87852 0.10835 0.79657 0.0
H598 H 0.84152 0.04087 0.80209 0.0
H599 H 0.83014 0.06143 0.75131 0.0
H600 H 0.87137 0.96601 0.6248 0.0
H601 H 0.81163 0.88057 0.64498 0.0
H602 H 0.8378 0.9568 0.77931 0.0
C603 C 0.9498 0.14582 0.73185 0.0
C604 C 0.96768 0.17014 0.69544 0.0
C605 C 0.96082 0.13966 0.65472 0.0
C606 C 0.93483 0.0851 0.65004 0.0
C607 C 0.91741 0.06219 0.68673 0.0
C608 C 0.92525 0.09178 0.72696 0.0
C609 C 0.90199 0.05826 0.76114 0.0
C610 C 0.94439 0.06688 0.79877 0.0
C611 C 0.86058 0.06779 0.77877 0.0
C612 C 0.87801 0.00501 0.73352 0.0
C613 C 0.88732 0.00774 0.69073 0.0
C614 C 0.86471 0.9633 0.65845 0.0
C615 C 0.83084 0.91503 0.67016 0.0
C616 C 0.82038 0.91193 0.71378 0.0
C617 C 0.84559 0.95747 0.74586 0.0
loop_
_geom_bond_atom_site_label_1
_geom_bond_atom_site_label_2
_geom_bond_distance
_geom_bond_site_symmetry_2
_ccdc_geom_bond_type
Sc0 O3 2.025 . S
Sc0 O10 2.105 . S
Sc0 O13 2.105 . S
Sc0 O16 2.105 . S
Sc0 O19 2.105 . S
Sc1 O3 2.025 . S
Sc1 O11 2.105 . S
Sc1 O15 2.105 . S
Sc1 O17 2.105 1_545 S
Sc1 O21 2.105 . S
Sc2 O3 2.025 . S
Sc2 O12 2.105 . S
Sc2 O14 2.105 . S
Sc2 O18 2.105 . S
Sc2 O20 2.105 . S
O3 Sc0 2.025 . S
O3 Sc1 2.025 . S
O3 Sc2 2.025 . S
C4 O10 1.268 . S
C4 O20 1.268 . S
C5 O11 1.268 . S
C5 O19 1.268 . S
C6 O12 1.268 . S
C6 O21 1.268 . S
C7 O13 1.268 1_565 S
C7 O17 1.268 . S
C8 O14 1.268 . S
C8 O16 1.268 . S
C9 O15 1.268 . S
C9 O18 1.268 . S
O10 Sc0 2.105 . S
O10 C4 1.268 . S
O11 Sc1 2.105 . S
O11 C5 1.268 . S
O12 Sc2 2.105 . S
O12 C6 1.268 . S
O13 Sc0 2.105 . S
O13 C7 1.268 1_545 S
O14 Sc2 2.105 . S
O14 C8 1.268 . S
O15 Sc1 2.105 . S
O15 C9 1.268 . S
O16 Sc0 2.105 . S
O16 C8 1.268 . S
O17 Sc1 2.105 1_565 S
O17 C7 1.268 . S
O18 Sc2 2.105 . S
O18 C9 1.268 . S
O19 Sc0 2.105 . S
O19 C5 1.268 . S
O20 Sc2 2.105 . S
O20 C4 1.268 . S
O21 Sc1 2.105 . S
O21 C6 1.268 . S
Sc22 O25 2.025 . S
Sc22 O32 2.105 . S
Sc22 O35 2.105 . S
Sc22 O38 2.105 . S
Sc22 O41 2.105 . S
Sc23 O25 2.025 . S
Sc23 O33 2.105 . S
Sc23 O37 2.105 . S
Sc23 O39 2.105 . S
Sc23 O43 2.105 . S
Sc24 O25 2.025 . S
Sc24 O34 2.105 . S
Sc24 O36 2.105 . S
Sc24 O40 2.105 . S
Sc24 O42 2.105 . S
O25 Sc22 2.025 . S
O25 Sc23 2.025 . S
O25 Sc24 2.025 . S
C26 O32 1.268 . S
C26 O42 1.268 . S
C27 O33 1.268 . S
C27 O41 1.268 . S
C28 O34 1.268 . S
C28 O43 1.268 . S
C29 O35 1.268 . S
C29 O39 1.268 . S
C30 O36 1.268 . S
C30 O38 1.268 . S
C31 O37 1.268 . S
C31 O40 1.268 . S
O32 Sc22 2.105 . S
O32 C26 1.268 . S
O33 Sc23 2.105 . S
O33 C27 1.268 . S
O34 Sc24 2.105 . S
O34 C28 1.268 . S
O35 Sc22 2.105 . S
O35 C29 1.268 . S
O36 Sc24 2.105 . S
O36 C30 1.268 . S
O37 Sc23 2.105 . S
O37 C31 1.268 . S
O38 Sc22 2.105 . S
O38 C30 1.268 . S
O39 Sc23 2.105 . S
O39 C29 1.268 . S
O40 Sc24 2.105 . S
O40 C31 1.268 . S
O41 Sc22 2.105 . S
O41 C27 1.268 . S
O42 Sc24 2.105 . S
O42 C26 1.268 . S
O43 Sc23 2.105 . S
O43 C28 1.268 . S
Sc44 O47 2.025 . S
Sc44 O54 2.105 . S
Sc44 O57 2.105 . S
Sc44 O60 2.105 . S
Sc44 O63 2.105 . S
Sc45 O47 2.025 . S
Sc45 O55 2.105 . S
Sc45 O59 2.105 1_655 S
Sc45 O61 2.105 1_655 S
Sc45 O65 2.105 . S
Sc46 O47 2.025 . S
Sc46 O56 2.105 . S
Sc46 O58 2.105 . S
Sc46 O62 2.105 . S
Sc46 O64 2.105 . S
O47 Sc44 2.025 . S
O47 Sc45 2.025 . S
O47 Sc46 2.025 . S
C48 O54 1.268 . S
C48 O64 1.268 . S
C49 O55 1.268 . S
C49 O63 1.268 . S
C50 O56 1.268 . S
C50 O65 1.268 . S
C51 O57 1.268 1_455 S
C51 O61 1.268 . S
C52 O58 1.268 . S
C52 O60 1.268 . S
C53 O59 1.268 1_655 S
C53 O62 1.268 . S
O54 Sc44 2.105 . S
O54 C48 1.268 . S
O55 Sc45 2.105 . S
O55 C49 1.268 . S
O56 Sc46 2.105 . S
O56 C50 1.268 . S
O57 Sc44 2.105 . S
O57 C51 1.268 1_655 S
O58 Sc46 2.105 . S
O58 C52 1.268 . S
O59 Sc45 2.105 1_455 S
O59 C53 1.268 1_455 S
O60 Sc44 2.105 . S
O60 C52 1.268 . S
O61 Sc45 2.105 1_455 S
O61 C51 1.268 . S
O62 Sc46 2.105 . S
O62 C53 1.268 . S
O63 Sc44 2.105 . S
O63 C49 1.268 . S
O64 Sc46 2.105 . S
O64 C48 1.268 . S
O65 Sc45 2.105 . S
O65 C50 1.268 . S
Sc66 O69 2.025 . S
Sc66 O76 2.105 . S
Sc66 O79 2.105 . S
Sc66 O82 2.105 . S
Sc66 O85 2.105 . S
Sc67 O69 2.025 . S
Sc67 O77 2.105 1_455 S
Sc67 O81 2.105 . S
Sc67 O83 2.105 . S
Sc67 O87 2.105 . S
Sc68 O69 2.025 . S
Sc68 O78 2.105 . S
Sc68 O80 2.105 . S
Sc68 O84 2.105 . S
Sc68 O86 2.105 . S
O69 Sc66 2.025 . S
O69 Sc67 2.025 . S
O69 Sc68 2.025 . S
C70 O76 1.268 . S
C70 O86 1.268 . S
C71 O77 1.268 . S
C71 O85 1.268 1_655 S
C72 O78 1.268 . S
C72 O87 1.268 . S
C73 O79 1.268 . S
C73 O83 1.268 . S
C74 O80 1.268 . S
C74 O82 1.268 . S
C75 O81 1.268 . S
C75 O84 1.268 . S
O76 Sc66 2.105 . S
O76 C70 1.268 . S
O77 Sc67 2.105 1_655 S
O77 C71 1.268 . S
O78 Sc68 2.105 . S
O78 C72 1.268 . S
O79 Sc66 2.105 . S
O79 C73 1.268 . S
O80 Sc68 2.105 . S
O80 C74 1.268 . S
O81 Sc67 2.105 . S
O81 C75 1.268 . S
O82 Sc66 2.105 . S
O82 C74 1.268 . S
O83 Sc67 2.105 . S
O83 C73 1.268 . S
O84 Sc68 2.105 . S
O84 C75 1.268 . S
O85 Sc66 2.105 . S
O85 C71 1.268 1_455 S
O86 Sc68 2.105 . S
O86 C70 1.268 . S
O87 Sc67 2.105 . S
O87 C72 1.268 . S
Sc88 O91 2.025 . S
Sc88 O98 2.105 . S
Sc88 O101 2.105 . S
Sc88 O104 2.105 . S
Sc88 O107 2.105 . S
Sc89 O91 2.025 . S
Sc89 O99 2.105 1_565 S
Sc89 O103 2.105 . S
Sc89 O105 2.105 . S
Sc89 O109 2.105 1_565 S
Sc90 O91 2.025 . S
Sc90 O100 2.105 . S
Sc90 O102 2.105 . S
Sc90 O106 2.105 . S
Sc90 O108 2.105 . S
O91 Sc88 2.025 . S
O91 Sc89 2.025 . S
O91 Sc90 2.025 . S
C92 O98 1.268 . S
C92 O108 1.268 . S
C93 O99 1.268 . S
C93 O107 1.268 1_545 S
C94 O100 1.268 . S
C94 O109 1.268 1_565 S
C95 O101 1.268 . S
C95 O105 1.268 . S
C96 O102 1.268 . S
C96 O104 1.268 . S
C97 O103 1.268 . S
C97 O106 1.268 . S
O98 Sc88 2.105 . S
O98 C92 1.268 . S
O99 Sc89 2.105 1_545 S
O99 C93 1.268 . S
O100 Sc90 2.105 . S
O100 C94 1.268 . S
O101 Sc88 2.105 . S
O101 C95 1.268 . S
O102 Sc90 2.105 . S
O102 C96 1.268 . S
O103 Sc89 2.105 . S
O103 C97 1.268 . S
O104 Sc88 2.105 . S
O104 C96 1.268 . S
O105 Sc89 2.105 . S
O105 C95 1.268 . S
O106 Sc90 2.105 . S
O106 C97 1.268 . S
O107 Sc88 2.105 . S
O107 C93 1.268 1_565 S
O108 Sc90 2.105 . S
O108 C92 1.268 . S
O109 Sc89 2.105 1_545 S
O109 C94 1.268 1_545 S
Sc110 O113 2.025 . S
Sc110 O120 2.105 . S
Sc110 O123 2.105 . S
Sc110 O126 2.105 . S
Sc110 O129 2.105 . S
Sc111 O113 2.025 . S
Sc111 O121 2.105 . S
Sc111 O125 2.105 . S
Sc111 O127 2.105 . S
Sc111 O131 2.105 . S
Sc112 O113 2.025 . S
Sc112 O122 2.105 . S
Sc112 O124 2.105 . S
Sc112 O128 2.105 . S
Sc112 O130 2.105 . S
O113 Sc110 2.025 . S
O113 Sc111 2.025 . S
O113 Sc112 2.025 . S
C114 O120 1.268 . S
C114 O130 1.268 . S
C115 O121 1.268 . S
C115 O129 1.268 . S
C116 O122 1.268 . S
C116 O131 1.268 . S
C117 O123 1.268 . S
C117 O127 1.268 . S
C118 O124 1.268 . S
C118 O126 1.268 . S
C119 O125 1.268 . S
C119 O128 1.268 . S
O120 Sc110 2.105 . S
O120 C114 1.268 . S
O121 Sc111 2.105 . S
O121 C115 1.268 . S
O122 Sc112 2.105 . S
O122 C116 1.268 . S
O123 Sc110 2.105 . S
O123 C117 1.268 . S
O124 Sc112 2.105 . S
O124 C118 1.268 . S
O125 Sc111 2.105 . S
O125 C119 1.268 . S
O126 Sc110 2.105 . S
O126 C118 1.268 . S
O127 Sc111 2.105 . S
O127 C117 1.268 . S
O128 Sc112 2.105 . S
O128 C119 1.268 . S
O129 Sc110 2.105 . S
O129 C115 1.268 . S
O130 Sc112 2.105 . S
O130 C114 1.268 . S
O131 Sc111 2.105 . S
O131 C116 1.268 . S
H132 C144 0.930 . S
H133 C146 0.930 . S
H134 C147 0.930 . S
H135 C151 0.959 . S
H136 C151 0.959 . S
H137 C151 0.961 1_556 S
H138 C152 0.960 1_556 S
H139 C152 0.961 . S
H140 C152 0.959 . S
H141 C155 0.929 . S
H142 C156 0.931 . S
H143 C158 0.930 . S
C144 H132 0.930 . S
C144 C145 1.400 . S
C144 C149 1.399 . S
C145 C144 1.400 . S
C145 C146 1.375 1_565 S
C146 H133 0.930 . S
C146 C145 1.375 1_545 S
C146 C147 1.388 . S
C147 H134 0.930 . S
C147 C146 1.388 . S
C147 C148 1.390 . S
C148 C147 1.390 . S
C148 C149 1.394 1_545 S
C148 C154 1.465 1_556 S
C149 C144 1.399 . S
C149 C148 1.394 1_565 S
C149 C150 1.516 1_556 S
C150 C149 1.516 1_554 S
C150 C151 1.502 . S
C150 C152 1.561 . S
C150 C153 1.526 . S
C151 H135 0.959 . S
C151 H136 0.959 . S
C151 H137 0.961 1_554 S
C151 C150 1.502 . S
C152 H138 0.960 1_554 S
C152 H139 0.961 . S
C152 H140 0.959 . S
C152 C150 1.561 . S
C153 C150 1.526 . S
C153 C154 1.396 1_565 S
C153 C158 1.390 . S
C154 C148 1.465 1_554 S
C154 C153 1.396 1_545 S
C154 C155 1.399 . S
C155 H141 0.929 . S
C155 C154 1.399 . S
C155 C156 1.385 . S
C156 H142 0.931 . S
C156 C155 1.385 . S
C156 C157 1.389 . S
C157 C156 1.389 . S
C157 C158 1.387 1_545 S
C158 H143 0.930 . S
C158 C153 1.390 . S
C158 C157 1.387 1_565 S
H159 C171 0.930 . S
H160 C173 0.930 . S
H161 C174 0.930 . S
H162 C178 0.959 . S
H163 C178 0.959 . S
H164 C178 0.961 . S
H165 C179 0.960 . S
H166 C179 0.961 . S
H167 C179 0.959 . S
H168 C182 0.929 . S
H169 C183 0.931 . S
H170 C185 0.930 . S
C171 H159 0.930 . S
C171 C172 1.399 . S
C171 C176 1.399 . S
C172 C171 1.399 . S
C172 C173 1.376 . S
C173 H160 0.930 . S
C173 C172 1.376 . S
C173 C174 1.388 . S
C174 H161 0.930 . S
C174 C173 1.388 . S
C174 C175 1.390 . S
C175 C174 1.390 . S
C175 C176 1.394 . S
C175 C181 1.465 . S
C176 C171 1.399 . S
C176 C175 1.394 . S
C176 C177 1.516 . S
C177 C176 1.516 . S
C177 C178 1.502 . S
C177 C179 1.561 . S
C177 C180 1.526 . S
C178 H162 0.959 . S
C178 H163 0.959 . S
C178 H164 0.961 . S
C178 C177 1.502 . S
C179 H165 0.960 . S
C179 H166 0.961 . S
C179 H167 0.959 . S
C179 C177 1.561 . S
C180 C177 1.526 . S
C180 C181 1.396 . S
C180 C185 1.390 . S
C181 C175 1.465 . S
C181 C180 1.396 . S
C181 C182 1.399 . S
C182 H168 0.929 . S
C182 C181 1.399 . S
C182 C183 1.385 . S
C183 H169 0.931 . S
C183 C182 1.385 . S
C183 C184 1.389 . S
C184 C183 1.389 . S
C184 C185 1.387 . S
C185 H170 0.930 . S
C185 C180 1.390 . S
C185 C184 1.387 . S
H186 C198 0.930 . S
H187 C200 0.930 . S
H188 C201 0.930 . S
H189 C205 0.959 . S
H190 C205 0.967 . S
H191 C205 0.961 . S
H192 C206 0.960 1_554 S
H193 C206 0.961 . S
H194 C206 0.959 . S
H195 C209 0.929 . S
H196 C210 0.931 . S
H197 C212 0.930 . S
C198 H186 0.930 . S
C198 C199 1.399 . S
C198 C203 1.399 . S
C199 C198 1.399 . S
C199 C200 1.376 . S
C200 H187 0.930 . S
C200 C199 1.376 . S
C200 C201 1.388 . S
C201 H188 0.930 . S
C201 C200 1.388 . S
C201 C202 1.390 . S
C202 C201 1.390 . S
C202 C203 1.394 . S
C202 C208 1.465 1_554 S
C203 C198 1.399 . S
C203 C202 1.394 . S
C203 C204 1.530 . S
C204 C203 1.530 . S
C204 C205 1.481 1_655 S
C204 C206 1.567 1_554 S
C204 C207 1.529 1_654 S
C205 H189 0.959 . S
C205 H190 0.967 . S
C205 H191 0.961 . S
C205 C204 1.481 1_455 S
C206 H192 0.960 1_556 S
C206 H193 0.961 . S
C206 H194 0.959 . S
C206 C204 1.567 1_556 S
C207 C204 1.529 1_456 S
C207 C208 1.396 1_455 S
C207 C212 1.390 . S
C208 C202 1.465 1_556 S
C208 C207 1.396 1_655 S
C208 C209 1.399 . S
C209 H195 0.929 . S
C209 C208 1.399 . S
C209 C210 1.385 . S
C210 H196 0.931 . S
C210 C209 1.385 . S
C210 C211 1.389 1_655 S
C211 C210 1.389 1_455 S
C211 C212 1.387 . S
C212 H197 0.930 . S
C212 C207 1.390 . S
C212 C211 1.387 . S
H213 C225 0.930 . S
H214 C227 0.930 . S
H215 C228 0.930 . S
H216 C232 0.959 . S
H217 C232 0.959 . S
H218 C232 0.961 . S
H219 C233 0.960 . S
H220 C233 0.961 . S
H221 C233 0.959 . S
H222 C236 0.929 . S
H223 C237 0.931 . S
H224 C239 0.930 . S
C225 H213 0.930 . S
C225 C226 1.399 1_565 S
C225 C230 1.399 . S
C226 C225 1.399 1_545 S
C226 C227 1.376 . S
C227 H214 0.930 . S
C227 C226 1.376 . S
C227 C228 1.388 . S
C228 H215 0.930 . S
C228 C227 1.388 . S
C228 C229 1.390 . S
C229 C228 1.390 . S
C229 C230 1.394 1_545 S
C229 C235 1.473 . S
C230 C225 1.399 . S
C230 C229 1.394 1_565 S
C230 C231 1.516 . S
C231 C230 1.516 . S
C231 C232 1.502 . S
C231 C233 1.561 . S
C231 C234 1.526 . S
C232 H216 0.959 . S
C232 H217 0.959 . S
C232 H218 0.961 . S
C232 C231 1.502 . S
C233 H219 0.960 . S
C233 H220 0.961 . S
C233 H221 0.959 . S
C233 C231 1.561 . S
C234 C231 1.526 . S
C234 C235 1.388 1_565 S
C234 C239 1.390 . S
C235 C229 1.473 . S
C235 C234 1.388 1_545 S
C235 C236 1.399 . S
C236 H222 0.929 . S
C236 C235 1.399 . S
C236 C237 1.385 . S
C237 H223 0.931 . S
C237 C236 1.385 . S
C237 C238 1.389 1_545 S
C238 C237 1.389 1_565 S
C238 C239 1.387 . S
C239 H224 0.930 . S
C239 C234 1.390 . S
C239 C238 1.387 . S
H240 C252 0.930 . S
H241 C254 0.930 . S
H242 C255 0.930 . S
H243 C259 0.959 . S
H244 C259 0.959 1_554 S
H245 C259 0.961 . S
H246 C260 0.960 1_556 S
H247 C260 0.961 . S
H248 C260 0.959 . S
H249 C263 0.929 . S
H250 C264 0.931 . S
H251 C266 0.930 . S
C252 H240 0.930 . S
C252 C253 1.399 . S
C252 C257 1.399 . S
C253 C252 1.399 . S
C253 C254 1.376 . S
C254 H241 0.930 . S
C254 C253 1.376 . S
C254 C255 1.388 . S
C255 H242 0.930 . S
C255 C254 1.388 . S
C255 C256 1.390 . S
C256 C255 1.390 . S
C256 C257 1.394 . S
C256 C262 1.465 1_556 S
C257 C252 1.399 . S
C257 C256 1.394 . S
C257 C258 1.516 . S
C258 C257 1.516 . S
C258 C259 1.502 . S
C258 C260 1.561 1_556 S
C258 C261 1.526 1_556 S
C259 H243 0.959 . S
C259 H244 0.959 1_556 S
C259 H245 0.961 . S
C259 C258 1.502 . S
C260 H246 0.960 1_554 S
C260 H247 0.961 . S
C260 H248 0.959 . S
C260 C258 1.561 1_554 S
C261 C258 1.526 1_554 S
C261 C262 1.396 . S
C261 C266 1.390 . S
C262 C256 1.465 1_554 S
C262 C261 1.396 . S
C262 C263 1.399 . S
C263 H249 0.929 . S
C263 C262 1.399 . S
C263 C264 1.385 . S
C264 H250 0.931 . S
C264 C263 1.385 . S
C264 C265 1.389 . S
C265 C264 1.389 . S
C265 C266 1.387 . S
C266 H251 0.930 . S
C266 C261 1.390 . S
C266 C265 1.387 . S
H267 C279 0.930 . S
H268 C281 0.930 . S
H269 C282 0.930 . S
H270 C286 0.959 . S
H271 C286 0.959 . S
H272 C286 0.961 . S
H273 C287 0.960 . S
H274 C287 0.961 . S
H275 C287 0.959 . S
H276 C290 0.929 . S
H277 C291 0.931 . S
H278 C293 0.930 . S
C279 H267 0.930 . S
C279 C280 1.399 1_455 S
C279 C284 1.399 . S
C280 C279 1.399 1_655 S
C280 C281 1.376 . S
C281 H268 0.930 . S
C281 C280 1.376 . S
C281 C282 1.388 . S
C282 H269 0.930 . S
C282 C281 1.388 . S
C282 C283 1.390 . S
C283 C282 1.390 . S
C283 C284 1.394 1_655 S
C283 C289 1.465 . S
C284 C279 1.399 . S
C284 C283 1.394 1_455 S
C284 C285 1.516 . S
C285 C284 1.516 . S
C285 C286 1.502 . S
C285 C287 1.561 . S
C285 C288 1.526 . S
C286 H270 0.959 . S
C286 H271 0.959 . S
C286 H272 0.961 . S
C286 C285 1.502 . S
C287 H273 0.960 . S
C287 H274 0.961 . S
C287 H275 0.959 . S
C287 C285 1.561 . S
C288 C285 1.526 . S
C288 C289 1.396 1_455 S
C288 C293 1.390 . S
C289 C283 1.465 . S
C289 C288 1.396 1_655 S
C289 C290 1.399 . S
C290 H276 0.929 . S
C290 C289 1.399 . S
C290 C291 1.385 . S
C291 H277 0.931 . S
C291 C290 1.385 . S
C291 C292 1.389 1_655 S
C292 C291 1.389 1_455 S
C292 C293 1.387 . S
C293 H278 0.930 . S
C293 C288 1.390 . S
C293 C292 1.387 . S
H294 C306 0.930 . S
H295 C308 0.930 . S
H296 C309 0.930 . S
H297 C313 0.959 . S
H298 C313 0.959 . S
H299 C313 0.961 . S
H300 C314 0.960 . S
H301 C314 0.961 . S
H302 C314 0.959 . S
H303 C317 0.929 . S
H304 C318 0.931 . S
H305 C320 0.930 . S
C306 H294 0.930 . S
C306 C307 1.399 . S
C306 C311 1.399 . S
C307 C306 1.399 . S
C307 C308 1.376 . S
C308 H295 0.930 . S
C308 C307 1.376 . S
C308 C309 1.388 . S
C309 H296 0.930 . S
C309 C308 1.388 . S
C309 C310 1.390 . S
C310 C309 1.390 . S
C310 C311 1.394 . S
C310 C316 1.465 . S
C311 C306 1.399 . S
C311 C310 1.394 . S
C311 C312 1.516 . S
C312 C311 1.516 . S
C312 C313 1.502 . S
C312 C314 1.561 . S
C312 C315 1.526 . S
C313 H297 0.959 . S
C313 H298 0.959 . S
C313 H299 0.961 . S
C313 C312 1.502 . S
C314 H300 0.960 . S
C314 H301 0.961 . S
C314 H302 0.959 . S
C314 C312 1.561 . S
C315 C312 1.526 . S
C315 C316 1.396 . S
C315 C320 1.390 . S
C316 C310 1.465 . S
C316 C315 1.396 . S
C316 C317 1.399 . S
C317 H303 0.929 . S
C317 C316 1.399 . S
C317 C318 1.385 . S
C318 H304 0.931 . S
C318 C317 1.385 . S
C318 C319 1.389 . S
C319 C318 1.389 . S
C319 C320 1.387 . S
C320 H305 0.930 . S
C320 C315 1.390 . S
C320 C319 1.387 . S
H321 C333 0.930 . S
H322 C335 0.930 . S
H323 C336 0.930 . S
H324 C340 0.959 . S
H325 C340 0.959 . S
H326 C340 0.961 . S
H327 C341 0.960 . S
H328 C341 0.961 . S
H329 C341 0.959 . S
H330 C344 0.929 . S
H331 C345 0.931 . S
H332 C347 0.930 . S
C333 H321 0.930 . S
C333 C334 1.399 . S
C333 C338 1.399 . S
C334 C333 1.399 . S
C334 C335 1.376 . S
C335 H322 0.930 . S
C335 C334 1.376 . S
C335 C336 1.388 . S
C336 H323 0.930 . S
C336 C335 1.388 . S
C336 C337 1.390 . S
C337 C336 1.390 . S
C337 C338 1.394 . S
C337 C343 1.465 . S
C338 C333 1.399 . S
C338 C337 1.394 . S
C338 C339 1.516 . S
C339 C338 1.516 . S
C339 C340 1.502 . S
C339 C341 1.561 . S
C339 C342 1.526 . S
C340 H324 0.959 . S
C340 H325 0.959 . S
C340 H326 0.961 . S
C340 C339 1.502 . S
C341 H327 0.960 . S
C341 H328 0.961 . S
C341 H329 0.959 . S
C341 C339 1.561 . S
C342 C339 1.526 . S
C342 C343 1.396 . S
C342 C347 1.390 . S
C343 C337 1.465 . S
C343 C342 1.396 . S
C343 C344 1.399 . S
C344 H330 0.929 . S
C344 C343 1.399 . S
C344 C345 1.385 . S
C345 H331 0.931 . S
C345 C344 1.385 . S
C345 C346 1.389 . S
C346 C345 1.389 . S
C346 C347 1.387 . S
C347 H332 0.930 . S
C347 C342 1.390 . S
C347 C346 1.387 . S
H348 C360 0.930 . S
H349 C362 0.930 . S
H350 C363 0.930 . S
H351 C367 0.959 . S
H352 C367 0.959 . S
H353 C367 0.961 . S
H354 C368 0.960 . S
H355 C368 0.961 . S
H356 C368 0.959 . S
H357 C371 0.929 . S
H358 C372 0.931 . S
H359 C374 0.930 . S
C360 H348 0.930 . S
C360 C361 1.399 . S
C360 C365 1.399 . S
C361 C360 1.399 . S
C361 C362 1.376 . S
C362 H349 0.930 . S
C362 C361 1.376 . S
C362 C363 1.388 . S
C363 H350 0.930 . S
C363 C362 1.388 . S
C363 C364 1.390 . S
C364 C363 1.390 . S
C364 C365 1.394 . S
C364 C370 1.465 . S
C365 C360 1.399 . S
C365 C364 1.394 . S
C365 C366 1.516 . S
C366 C365 1.516 . S
C366 C367 1.502 . S
C366 C368 1.561 . S
C366 C369 1.526 . S
C367 H351 0.959 . S
C367 H352 0.959 . S
C367 H353 0.961 . S
C367 C366 1.502 . S
C368 H354 0.960 . S
C368 H355 0.961 . S
C368 H356 0.959 . S
C368 C366 1.561 . S
C369 C366 1.526 . S
C369 C370 1.396 . S
C369 C374 1.390 . S
C370 C364 1.465 . S
C370 C369 1.396 . S
C370 C371 1.399 . S
C371 H357 0.929 . S
C371 C370 1.399 . S
C371 C372 1.385 . S
C372 H358 0.931 . S
C372 C371 1.385 . S
C372 C373 1.389 . S
C373 C372 1.389 . S
C373 C374 1.387 . S
C374 H359 0.930 . S
C374 C369 1.390 . S
C374 C373 1.387 . S
H375 C387 0.930 . S
H376 C389 0.930 . S
H377 C390 0.930 . S
H378 C394 0.959 . S
H379 C394 0.959 . S
H380 C394 0.961 . S
H381 C395 0.960 . S
H382 C395 0.961 . S
H383 C395 0.959 . S
H384 C398 0.929 . S
H385 C399 0.931 . S
H386 C401 0.930 . S
C387 H375 0.930 . S
C387 C388 1.399 . S
C387 C392 1.399 . S
C388 C387 1.399 . S
C388 C389 1.376 . S
C389 H376 0.930 . S
C389 C388 1.376 . S
C389 C390 1.388 . S
C390 H377 0.930 . S
C390 C389 1.388 . S
C390 C391 1.390 . S
C391 C390 1.390 . S
C391 C392 1.394 . S
C391 C397 1.465 . S
C392 C387 1.399 . S
C392 C391 1.394 . S
C392 C393 1.516 . S
C393 C392 1.516 . S
C393 C394 1.502 . S
C393 C395 1.561 . S
C393 C396 1.526 . S
C394 H378 0.959 . S
C394 H379 0.959 . S
C394 H380 0.961 . S
C394 C393 1.502 . S
C395 H381 0.960 . S
C395 H382 0.961 . S
C395 H383 0.959 . S
C395 C393 1.561 . S
C396 C393 1.526 . S
C396 C397 1.396 . S
C396 C401 1.390 . S
C397 C391 1.465 . S
C397 C396 1.396 . S
C397 C398 1.399 . S
C398 H384 0.929 . S
C398 C397 1.399 . S
C398 C399 1.385 . S
C399 H385 0.931 . S
C399 C398 1.385 . S
C399 C400 1.389 . S
C400 C399 1.389 . S
C400 C401 1.387 . S
C401 H386 0.930 . S
C401 C396 1.390 . S
C401 C400 1.387 . S
H402 C414 0.930 . S
H403 C416 0.930 . S
H404 C417 0.930 . S
H405 C421 0.959 . S
H406 C421 0.959 . S
H407 C421 0.961 . S
H408 C422 0.960 . S
H409 C422 0.961 . S
H410 C422 0.959 . S
H411 C425 0.929 . S
H412 C426 0.931 . S
H413 C428 0.930 . S
C414 H402 0.930 . S
C414 C415 1.399 . S
C414 C419 1.399 . S
C415 C414 1.399 . S
C415 C416 1.376 . S
C416 H403 0.930 . S
C416 C415 1.376 . S
C416 C417 1.388 . S
C417 H404 0.930 . S
C417 C416 1.388 . S
C417 C418 1.390 . S
C418 C417 1.390 . S
C418 C419 1.394 . S
C418 C424 1.465 . S
C419 C414 1.399 . S
C419 C418 1.394 . S
C419 C420 1.516 . S
C420 C419 1.516 . S
C420 C421 1.502 . S
C420 C422 1.561 . S
C420 C423 1.526 . S
C421 H405 0.959 . S
C421 H406 0.959 . S
C421 H407 0.961 . S
C421 C420 1.502 . S
C422 H408 0.960 . S
C422 H409 0.961 . S
C422 H410 0.959 . S
C422 C420 1.561 . S
C423 C420 1.526 . S
C423 C424 1.396 . S
C423 C428 1.390 . S
C424 C418 1.465 . S
C424 C423 1.396 . S
C424 C425 1.399 . S
C425 H411 0.929 . S
C425 C424 1.399 . S
C425 C426 1.385 . S
C426 H412 0.931 . S
C426 C425 1.385 . S
C426 C427 1.389 . S
C427 C426 1.389 . S
C427 C428 1.387 . S
C428 H413 0.930 . S
C428 C423 1.390 . S
C428 C427 1.387 . S
H429 C441 0.930 . S
H430 C443 0.930 . S
H431 C444 0.930 . S
H432 C448 0.959 . S
H433 C448 0.959 . S
H434 C448 0.961 . S
H435 C449 0.960 . S
H436 C449 0.961 . S
H437 C449 0.959 . S
H438 C452 0.929 . S
H439 C453 0.931 . S
H440 C455 0.930 . S
C441 H429 0.930 . S
C441 C442 1.399 . S
C441 C446 1.399 . S
C442 C441 1.399 . S
C442 C443 1.376 . S
C443 H430 0.930 . S
C443 C442 1.376 . S
C443 C444 1.388 . S
C444 H431 0.930 . S
C444 C443 1.388 . S
C444 C445 1.390 . S
C445 C444 1.390 . S
C445 C446 1.394 . S
C445 C451 1.465 . S
C446 C441 1.399 . S
C446 C445 1.394 . S
C446 C447 1.516 . S
C447 C446 1.516 . S
C447 C448 1.502 . S
C447 C449 1.561 . S
C447 C450 1.526 . S
C448 H432 0.959 . S
C448 H433 0.959 . S
C448 H434 0.961 . S
C448 C447 1.502 . S
C449 H435 0.960 . S
C449 H436 0.961 . S
C449 H437 0.959 . S
C449 C447 1.561 . S
C450 C447 1.526 . S
C450 C451 1.396 . S
C450 C455 1.390 . S
C451 C445 1.465 . S
C451 C450 1.396 . S
C451 C452 1.399 . S
C452 H438 0.929 . S
C452 C451 1.399 . S
C452 C453 1.385 . S
C453 H439 0.931 . S
C453 C452 1.385 . S
C453 C454 1.389 . S
C454 C453 1.389 . S
C454 C455 1.387 . S
C455 H440 0.930 . S
C455 C450 1.390 . S
C455 C454 1.387 . S
H456 C468 0.930 . S
H457 C470 0.930 . S
H458 C471 0.930 . S
H459 C475 0.959 . S
H460 C475 0.959 . S
H461 C475 0.961 . S
H462 C476 0.960 . S
H463 C476 0.961 . S
H464 C476 0.959 . S
H465 C479 0.929 . S
H466 C480 0.931 . S
H467 C482 0.930 . S
C468 H456 0.930 . S
C468 C469 1.399 . S
C468 C473 1.399 . S
C469 C468 1.399 . S
C469 C470 1.376 . S
C470 H457 0.930 . S
C470 C469 1.376 . S
C470 C471 1.388 . S
C471 H458 0.930 . S
C471 C470 1.388 . S
C471 C472 1.390 . S
C472 C471 1.390 . S
C472 C473 1.394 . S
C472 C478 1.465 . S
C473 C468 1.399 . S
C473 C472 1.394 . S
C473 C474 1.516 . S
C474 C473 1.516 . S
C474 C475 1.502 . S
C474 C476 1.561 . S
C474 C477 1.526 . S
C475 H459 0.959 . S
C475 H460 0.959 . S
C475 H461 0.961 . S
C475 C474 1.502 . S
C476 H462 0.960 . S
C476 H463 0.961 . S
C476 H464 0.959 . S
C476 C474 1.561 . S
C477 C474 1.526 . S
C477 C478 1.396 . S
C477 C482 1.390 . S
C478 C472 1.465 . S
C478 C477 1.396 . S
C478 C479 1.399 . S
C479 H465 0.929 . S
C479 C478 1.399 . S
C479 C480 1.385 . S
C480 H466 0.931 . S
C480 C479 1.385 . S
C480 C481 1.389 . S
C481 C480 1.389 . S
C481 C482 1.387 . S
C482 H467 0.930 . S
C482 C477 1.390 . S
C482 C481 1.387 . S
H483 C495 0.930 . S
H484 C497 0.930 . S
H485 C498 0.930 . S
H486 C502 0.959 . S
H487 C502 0.959 . S
H488 C502 0.961 . S
H489 C503 0.960 . S
H490 C503 0.961 . S
H491 C503 0.959 . S
H492 C506 0.929 . S
H493 C507 0.931 . S
H494 C509 0.930 . S
C495 H483 0.930 . S
C495 C496 1.399 . S
C495 C500 1.399 . S
C496 C495 1.399 . S
C496 C497 1.376 . S
C497 H484 0.930 . S
C497 C496 1.376 . S
C497 C498 1.388 . S
C498 H485 0.930 . S
C498 C497 1.388 . S
C498 C499 1.390 1_655 S
C499 C498 1.390 1_455 S
C499 C500 1.394 1_455 S
C499 C505 1.465 . S
C500 C495 1.399 . S
C500 C499 1.394 1_655 S
C500 C501 1.516 1_655 S
C501 C500 1.516 1_455 S
C501 C502 1.502 . S
C501 C503 1.561 . S
C501 C504 1.526 . S
C502 H486 0.959 . S
C502 H487 0.959 . S
C502 H488 0.961 . S
C502 C501 1.502 . S
C503 H489 0.960 . S
C503 H490 0.961 . S
C503 H491 0.959 . S
C503 C501 1.561 . S
C504 C501 1.526 . S
C504 C505 1.396 . S
C504 C509 1.390 . S
C505 C499 1.465 . S
C505 C504 1.396 . S
C505 C506 1.399 . S
C506 H492 0.929 . S
C506 C505 1.399 . S
C506 C507 1.385 . S
C507 H493 0.931 . S
C507 C506 1.385 . S
C507 C508 1.389 . S
C508 C507 1.389 . S
C508 C509 1.387 . S
C509 H494 0.930 . S
C509 C504 1.390 . S
C509 C508 1.387 . S
H510 C522 0.930 . S
H511 C524 0.930 . S
H512 C525 0.930 1_565 S
H513 C529 0.959 . S
H514 C529 0.959 . S
H515 C529 0.961 1_545 S
H516 C530 0.960 . S
H517 C530 0.961 . S
H518 C530 0.959 . S
H519 C533 0.929 . S
H520 C534 0.931 . S
H521 C536 0.930 . S
C522 H510 0.930 . S
C522 C523 1.399 . S
C522 C527 1.399 . S
C523 C522 1.399 . S
C523 C524 1.376 . S
C524 H511 0.930 . S
C524 C523 1.376 . S
C524 C525 1.388 . S
C525 H512 0.930 1_545 S
C525 C524 1.388 . S
C525 C526 1.390 1_545 S
C526 C525 1.390 1_565 S
C526 C527 1.394 1_565 S
C526 C532 1.465 . S
C527 C522 1.399 . S
C527 C526 1.394 1_545 S
C527 C528 1.516 1_545 S
C528 C527 1.516 1_565 S
C528 C529 1.502 . S
C528 C530 1.561 . S
C528 C531 1.526 . S
C529 H513 0.959 . S
C529 H514 0.959 . S
C529 H515 0.961 1_565 S
C529 C528 1.502 . S
C530 H516 0.960 . S
C530 H517 0.961 . S
C530 H518 0.959 . S
C530 C528 1.561 . S
C531 C528 1.526 . S
C531 C532 1.396 . S
C531 C536 1.390 . S
C532 C526 1.465 . S
C532 C531 1.396 . S
C532 C533 1.399 . S
C533 H519 0.929 . S
C533 C532 1.399 . S
C533 C534 1.385 . S
C534 H520 0.931 . S
C534 C533 1.385 . S
C534 C535 1.389 . S
C535 C534 1.389 . S
C535 C536 1.387 . S
C536 H521 0.930 . S
C536 C531 1.390 . S
C536 C535 1.387 . S
H537 C549 0.930 . S
H538 C551 0.930 . S
H539 C552 0.930 . S
H540 C556 0.959 . S
H541 C556 0.959 . S
H542 C556 0.961 . S
H543 C557 0.960 . S
H544 C557 0.961 . S
H545 C557 0.959 . S
H546 C560 0.929 . S
H547 C561 0.931 . S
H548 C563 0.930 . S
C549 H537 0.930 . S
C549 C550 1.399 . S
C549 C554 1.399 . S
C550 C549 1.399 . S
C550 C551 1.376 . S
C551 H538 0.930 . S
C551 C550 1.376 . S
C551 C552 1.388 . S
C552 H539 0.930 . S
C552 C551 1.388 . S
C552 C553 1.390 . S
C553 C552 1.390 . S
C553 C554 1.394 . S
C553 C559 1.465 . S
C554 C549 1.399 . S
C554 C553 1.394 . S
C554 C555 1.516 . S
C555 C554 1.516 . S
C555 C556 1.502 . S
C555 C557 1.561 . S
C555 C558 1.526 . S
C556 H540 0.959 . S
C556 H541 0.959 . S
C556 H542 0.961 . S
C556 C555 1.502 . S
C557 H543 0.960 . S
C557 H544 0.961 . S
C557 H545 0.959 . S
C557 C555 1.561 . S
C558 C555 1.526 . S
C558 C559 1.396 . S
C558 C563 1.390 . S
C559 C553 1.465 . S
C559 C558 1.396 . S
C559 C560 1.399 . S
C560 H546 0.929 . S
C560 C559 1.399 . S
C560 C561 1.385 . S
C561 H547 0.931 . S
C561 C560 1.385 . S
C561 C562 1.389 . S
C562 C561 1.389 . S
C562 C563 1.387 . S
C563 H548 0.930 . S
C563 C558 1.390 . S
C563 C562 1.387 . S
H564 C576 0.930 . S
H565 C578 0.930 . S
H566 C579 0.923 1_655 S
H567 C583 0.959 . S
H568 C583 0.959 . S
H569 C583 0.961 1_455 S
H570 C584 0.960 . S
H571 C584 0.961 . S
H572 C584 0.959 . S
H573 C587 0.929 . S
H574 C588 0.931 . S
H575 C590 0.930 . S
C576 H564 0.930 . S
C576 C577 1.399 . S
C576 C581 1.399 . S
C577 C576 1.399 . S
C577 C578 1.376 . S
C578 H565 0.930 . S
C578 C577 1.376 . S
C578 C579 1.388 . S
C579 H566 0.923 1_455 S
C579 C578 1.388 . S
C579 C580 1.390 1_455 S
C580 C579 1.390 1_655 S
C580 C581 1.394 1_655 S
C580 C586 1.465 . S
C581 C576 1.399 . S
C581 C580 1.394 1_455 S
C581 C582 1.516 1_455 S
C582 C581 1.516 1_655 S
C582 C583 1.502 . S
C582 C584 1.561 . S
C582 C585 1.526 . S
C583 H567 0.959 . S
C583 H568 0.959 . S
C583 H569 0.961 1_655 S
C583 C582 1.502 . S
C584 H570 0.960 . S
C584 H571 0.961 . S
C584 H572 0.959 . S
C584 C582 1.561 . S
C585 C582 1.526 . S
C585 C586 1.396 . S
C585 C590 1.390 . S
C586 C580 1.465 . S
C586 C585 1.396 . S
C586 C587 1.399 . S
C587 H573 0.929 . S
C587 C586 1.399 . S
C587 C588 1.385 . S
C588 H574 0.931 . S
C588 C587 1.385 . S
C588 C589 1.389 . S
C589 C588 1.389 . S
C589 C590 1.387 . S
C590 H575 0.930 . S
C590 C585 1.390 . S
C590 C589 1.387 . S
H591 C603 0.930 . S
H592 C605 0.930 . S
H593 C606 0.930 . S
H594 C610 0.959 . S
H595 C610 0.959 . S
H596 C610 0.961 . S
H597 C611 0.960 . S
H598 C611 0.961 . S
H599 C611 0.959 . S
H600 C614 0.929 . S
H601 C615 0.931 . S
H602 C617 0.930 . S
C603 H591 0.930 . S
C603 C604 1.399 . S
C603 C608 1.399 . S
C604 C603 1.399 . S
C604 C605 1.376 . S
C605 H592 0.930 . S
C605 C604 1.376 . S
C605 C606 1.388 . S
C606 H593 0.930 . S
C606 C605 1.388 . S
C606 C607 1.390 . S
C607 C606 1.390 . S
C607 C608 1.394 . S
C607 C613 1.453 1_545 S
C608 C603 1.399 . S
C608 C607 1.394 . S
C608 C609 1.516 . S
C609 C608 1.516 . S
C609 C610 1.502 . S
C609 C611 1.561 . S
C609 C612 1.526 1_545 S
C610 H594 0.959 . S
C610 H595 0.959 . S
C610 H596 0.961 . S
C610 C609 1.502 . S
C611 H597 0.960 . S
C611 H598 0.961 . S
C611 H599 0.959 . S
C611 C609 1.561 . S
C612 C609 1.526 1_565 S
C612 C613 1.390 . S
C612 C617 1.390 . S
C613 C607 1.453 1_565 S
C613 C612 1.390 . S
C613 C614 1.415 . S
C614 H600 0.929 . S
C614 C613 1.415 . S
C614 C615 1.385 . S
C615 H601 0.931 . S
C615 C614 1.385 . S
C615 C616 1.389 . S
C616 C615 1.389 . S
C616 C617 1.387 . S
C617 H602 0.930 . S
C617 C612 1.390 . S
C617 C616 1.387 . S
C145 C94 0.666 . S
C157 C5 0.699 . S
C172 C115 1.346 . S
C184 C28 1.370 . S
C199 C49 2.128 . S
C211 C72 2.159 . S
C226 C9 2.152 . S
C238 C95 2.113 . S
C253 C119 1.381 . S
C265 C29 1.349 . S
C280 C53 0.592 . S
C292 C73 0.617 . S
C307 C6 1.429 . S
C319 C48 1.272 . S
C334 C27 1.240 . S
C346 C4 1.249 . S
C361 C50 1.259 . S
C373 C26 1.273 . S
C388 C75 1.420 . S
C400 C96 1.368 . S
C415 C97 1.280 . S
C427 C118 1.182 . S
C442 C74 1.183 . S
C454 C117 1.257 . S
C469 C8 1.305 . S
C481 C51 1.325 . S
C496 C30 1.270 . S
C508 C7 1.273 . S
C523 C52 1.238 . S
C535 C31 1.343 . S
C550 C70 1.284 . S
C562 C93 1.325 . S
C577 C92 1.294 . S
C589 C116 1.309 . S
C604 C71 1.277 . S
C616 C114 1.273 . S
