# Generated by pormake.
# Topology ume, (4)-cn, num edge types: 1
# Building blocks:
#     Node 0, Type 0, BuildingBlock: QUQFOY_clean_sbu_3, # of connection points: 4
#     Node 1, Type 0, BuildingBlock: QUQFOY_clean_sbu_3, # of connection points: 4
#     Node 2, Type 0, BuildingBlock: QUQFOY_clean_sbu_3, # of connection points: 4
#     Node 3, Type 0, BuildingBlock: QUQFOY_clean_sbu_3, # of connection points: 4
#     Node 4, Type 0, BuildingBlock: QUQFOY_clean_sbu_3, # of connection points: 4
#     Node 5, Type 0, BuildingBlock: QUQFOY_clean_sbu_3, # of connection points: 4
#     Node 6, Type 0, BuildingBlock: QUQFOY_clean_sbu_3, # of connection points: 4
#     Node 7, Type 0, BuildingBlock: QUQFOY_clean_sbu_3, # of connection points: 4
#     Node 8, Type 0, BuildingBlock: QUQFOY_clean_sbu_3, # of connection points: 4
#     Node 9, Type 0, BuildingBlock: QUQFOY_clean_sbu_3, # of connection points: 4
#     Node 10, Type 0, BuildingBlock: QUQFOY_clean_sbu_3, # of connection points: 4
#     Node 11, Type 0, BuildingBlock: QUQFOY_clean_sbu_3, # of connection points: 4
#     Node 12, Type 0, BuildingBlock: QUQFOY_clean_sbu_3, # of connection points: 4
#     Node 13, Type 0, BuildingBlock: QUQFOY_clean_sbu_3, # of connection points: 4
#     Node 14, Type 0, BuildingBlock: QUQFOY_clean_sbu_3, # of connection points: 4
#     Node 15, Type 0, BuildingBlock: QUQFOY_clean_sbu_3, # of connection points: 4
#     Edge 16, Type (0, 0), BuildingBlock: MIFKUJ_clean_linker_0, # of connection points: 2
#     Edge 17, Type (0, 0), BuildingBlock: MIFKUJ_clean_linker_0, # of connection points: 2
#     Edge 18, Type (0, 0), BuildingBlock: MIFKUJ_clean_linker_0, # of connection points: 2
#     Edge 19, Type (0, 0), BuildingBlock: MIFKUJ_clean_linker_0, # of connection points: 2
#     Edge 20, Type (0, 0), BuildingBlock: MIFKUJ_clean_linker_0, # of connection points: 2
#     Edge 21, Type (0, 0), BuildingBlock: MIFKUJ_clean_linker_0, # of connection points: 2
#     Edge 22, Type (0, 0), BuildingBlock: MIFKUJ_clean_linker_0, # of connection points: 2
#     Edge 23, Type (0, 0), BuildingBlock: MIFKUJ_clean_linker_0, # of connection points: 2
#     Edge 24, Type (0, 0), BuildingBlock: MIFKUJ_clean_linker_0, # of connection points: 2
#     Edge 25, Type (0, 0), BuildingBlock: MIFKUJ_clean_linker_0, # of connection points: 2
#     Edge 26, Type (0, 0), BuildingBlock: MIFKUJ_clean_linker_0, # of connection points: 2
#     Edge 27, Type (0, 0), BuildingBlock: MIFKUJ_clean_linker_0, # of connection points: 2
#     Edge 28, Type (0, 0), BuildingBlock: MIFKUJ_clean_linker_0, # of connection points: 2
#     Edge 29, Type (0, 0), BuildingBlock: MIFKUJ_clean_linker_0, # of connection points: 2
#     Edge 30, Type (0, 0), BuildingBlock: MIFKUJ_clean_linker_0, # of connection points: 2
#     Edge 31, Type (0, 0), BuildingBlock: MIFKUJ_clean_linker_0, # of connection points: 2
#     Edge 32, Type (0, 0), BuildingBlock: MIFKUJ_clean_linker_0, # of connection points: 2
#     Edge 33, Type (0, 0), BuildingBlock: MIFKUJ_clean_linker_0, # of connection points: 2
#     Edge 34, Type (0, 0), BuildingBlock: MIFKUJ_clean_linker_0, # of connection points: 2
#     Edge 35, Type (0, 0), BuildingBlock: MIFKUJ_clean_linker_0, # of connection points: 2
#     Edge 36, Type (0, 0), BuildingBlock: MIFKUJ_clean_linker_0, # of connection points: 2
#     Edge 37, Type (0, 0), BuildingBlock: MIFKUJ_clean_linker_0, # of connection points: 2
#     Edge 38, Type (0, 0), BuildingBlock: MIFKUJ_clean_linker_0, # of connection points: 2
#     Edge 39, Type (0, 0), BuildingBlock: MIFKUJ_clean_linker_0, # of connection points: 2
#     Edge 40, Type (0, 0), BuildingBlock: MIFKUJ_clean_linker_0, # of connection points: 2
#     Edge 41, Type (0, 0), BuildingBlock: MIFKUJ_clean_linker_0, # of connection points: 2
#     Edge 42, Type (0, 0), BuildingBlock: MIFKUJ_clean_linker_0, # of connection points: 2
#     Edge 43, Type (0, 0), BuildingBlock: MIFKUJ_clean_linker_0, # of connection points: 2
#     Edge 44, Type (0, 0), BuildingBlock: MIFKUJ_clean_linker_0, # of connection points: 2
#     Edge 45, Type (0, 0), BuildingBlock: MIFKUJ_clean_linker_0, # of connection points: 2
#     Edge 46, Type (0, 0), BuildingBlock: MIFKUJ_clean_linker_0, # of connection points: 2
#     Edge 47, Type (0, 0), BuildingBlock: MIFKUJ_clean_linker_0, # of connection points: 2
# Relax obj value: 0.095
# Max RMSD: 0.142
# Mean RMSD: 0.142
data_MOF--net-ume--node1-QUQFOY_clean_sbu_3--edge1-MIFKUJ_clean_linker_0
_symmetry_space_group_name_H-M    P1
_symmetry_Int_Tables_number       1
_symmetry_cell_setting            triclinic
loop_
_symmetry_equiv_pos_as_xyz
'x, y, z'
_cell_length_a     35.972167
_cell_length_b     35.967333
_cell_length_c     146.29152
_cell_angle_alpha  89.995822
_cell_angle_beta   89.976344
_cell_angle_gamma 89.962091
loop_
_atom_site_label
_atom_site_type_symbol
_atom_site_fract_x
_atom_site_fract_y
_atom_site_fract_z
_atom_type_partial_charge
C0 C 0.25386 0.23309 0.2877 0.0
O1 O 0.27655 0.24792 0.29324 0.0
Cd2 Cd 0.29403 0.21552 0.30698 0.0
O3 O 0.24112 0.20065 0.28913 0.0
Cd4 Cd 0.2428 0.14922 0.30003 0.0
C5 C 0.33605 0.13736 0.29815 0.0
O6 O 0.23832 0.18925 0.31349 0.0
O7 O 0.2468 0.13048 0.31579 0.0
O8 O 0.17828 0.14306 0.2954 0.0
C9 C 0.24084 0.16247 0.3191 0.0
O10 O 0.33897 0.16812 0.3024 0.0
C11 C 0.17851 0.10789 0.29481 0.0
O12 O 0.30424 0.12466 0.29593 0.0
O13 O 0.20913 0.09161 0.29646 0.0
C14 C 0.8021 0.76343 0.53726 0.0
O15 O 0.7819 0.78179 0.54276 0.0
Cd16 Cd 0.80604 0.80021 0.55735 0.0
O17 O 0.83401 0.75162 0.53963 0.0
Cd18 Cd 0.87501 0.74662 0.55296 0.0
C19 C 0.89123 0.83919 0.55169 0.0
O20 O 0.82537 0.74314 0.56427 0.0
O21 O 0.88141 0.74835 0.56945 0.0
O22 O 0.87894 0.68158 0.54873 0.0
C23 C 0.8471 0.74381 0.57108 0.0
O24 O 0.85778 0.8432 0.5544 0.0
C25 C 0.91407 0.67919 0.54915 0.0
O26 O 0.90466 0.80687 0.55031 0.0
O27 O 0.93165 0.70874 0.55116 0.0
C28 C 0.25265 0.28052 0.79221 0.0
O29 O 0.23238 0.27047 0.79888 0.0
Cd30 Cd 0.21713 0.31293 0.81102 0.0
O31 O 0.26621 0.31317 0.79193 0.0
Cd32 Cd 0.27032 0.37145 0.80052 0.0
C33 C 0.17756 0.38391 0.79831 0.0
O34 O 0.27302 0.34362 0.81563 0.0
O35 O 0.26406 0.40299 0.81511 0.0
O36 O 0.33592 0.3718 0.7967 0.0
C37 C 0.26913 0.37406 0.8199 0.0
O38 O 0.17436 0.35798 0.8042 0.0
C39 C 0.33657 0.40477 0.79361 0.0
O40 O 0.20937 0.39319 0.79522 0.0
O41 O 0.30593 0.42241 0.79357 0.0
C42 C 0.70832 0.73865 0.03355 0.0
O43 O 0.72619 0.71618 0.03861 0.0
Cd44 Cd 0.70233 0.69479 0.05309 0.0
O45 O 0.67729 0.75203 0.03614 0.0
Cd46 Cd 0.63399 0.75313 0.04907 0.0
C47 C 0.61576 0.66027 0.04716 0.0
O48 O 0.68181 0.74941 0.06085 0.0
O49 O 0.6245 0.74921 0.06535 0.0
O50 O 0.6307 0.81972 0.04661 0.0
C51 C 0.65871 0.74808 0.06739 0.0
O52 O 0.64906 0.65483 0.04982 0.0
C53 C 0.59553 0.82146 0.0461 0.0
O54 O 0.60335 0.69315 0.04594 0.0
O55 O 0.57786 0.79097 0.04678 0.0
C56 C 0.25139 0.30992 0.94586 0.0
O57 O 0.27146 0.29936 0.9392 0.0
Cd58 Cd 0.28372 0.33913 0.92641 0.0
O59 O 0.23626 0.34196 0.94583 0.0
Cd60 Cd 0.22803 0.39828 0.93647 0.0
C61 C 0.32079 0.41579 0.93746 0.0
O62 O 0.22468 0.36453 0.9222 0.0
O63 O 0.22536 0.42425 0.92103 0.0
O64 O 0.16445 0.39581 0.94202 0.0
C65 C 0.22377 0.39293 0.91709 0.0
O66 O 0.32505 0.38725 0.93241 0.0
C67 C 0.162 0.43007 0.94399 0.0
O68 O 0.28861 0.42559 0.94022 0.0
O69 O 0.19074 0.44984 0.94262 0.0
C70 C 0.70437 0.7439 0.19041 0.0
O71 O 0.71808 0.76157 0.18367 0.0
Cd72 Cd 0.69112 0.76252 0.16862 0.0
O73 O 0.67427 0.72551 0.18958 0.0
Cd74 Cd 0.62617 0.70819 0.17849 0.0
C75 C 0.60566 0.79997 0.17436 0.0
O76 O 0.67333 0.69927 0.16711 0.0
O77 O 0.61802 0.68536 0.16271 0.0
O78 O 0.62206 0.65262 0.188 0.0
C79 C 0.65227 0.68783 0.16082 0.0
O80 O 0.63663 0.8028 0.17018 0.0
C81 C 0.58718 0.6487 0.18706 0.0
O82 O 0.59619 0.76971 0.17827 0.0
O83 O 0.57026 0.67332 0.18242 0.0
C84 C 0.24086 0.20935 0.44705 0.0
O85 O 0.22017 0.22443 0.44108 0.0
Cd86 Cd 0.20276 0.19351 0.42725 0.0
O87 O 0.25402 0.17685 0.4458 0.0
Cd88 Cd 0.25635 0.12672 0.43433 0.0
C89 C 0.16333 0.11229 0.43554 0.0
O90 O 0.25937 0.16868 0.42132 0.0
O91 O 0.25292 0.11039 0.41825 0.0
O92 O 0.32131 0.12145 0.43877 0.0
C93 C 0.25683 0.14332 0.41535 0.0
O94 O 0.15996 0.14366 0.43157 0.0
C95 C 0.32174 0.08622 0.43914 0.0
O96 O 0.19525 0.0999 0.43779 0.0
O97 O 0.29129 0.0696 0.43752 0.0
C98 C 0.78666 0.75883 0.69901 0.0
O99 O 0.7679 0.73473 0.69467 0.0
Cd100 Cd 0.791 0.70747 0.68079 0.0
O101 O 0.81811 0.76946 0.69603 0.0
Cd102 Cd 0.8607 0.76143 0.68311 0.0
C103 C 0.87494 0.67026 0.68779 0.0
O104 O 0.81322 0.75684 0.67123 0.0
O105 O 0.86979 0.74396 0.66734 0.0
O106 O 0.86596 0.82845 0.68373 0.0
C107 C 0.83617 0.74832 0.66498 0.0
O108 O 0.84172 0.6656 0.68499 0.0
C109 C 0.90115 0.82968 0.68407 0.0
O110 O 0.88881 0.7028 0.68838 0.0
O111 O 0.91822 0.7987 0.68397 0.0
C112 C 0.77233 0.70095 0.78837 0.0
O113 O 0.79308 0.7125 0.79479 0.0
Cd114 Cd 0.8094 0.67245 0.80729 0.0
O115 O 0.75953 0.66796 0.78849 0.0
Cd116 Cd 0.75743 0.61102 0.79775 0.0
C117 C 0.85017 0.59843 0.79591 0.0
O118 O 0.75238 0.64441 0.8121 0.0
O119 O 0.76075 0.58514 0.81316 0.0
O120 O 0.69318 0.6107 0.79279 0.0
C121 C 0.75472 0.61587 0.81713 0.0
O122 O 0.85289 0.626 0.80135 0.0
C123 C 0.69142 0.57617 0.79111 0.0
O124 O 0.81858 0.58811 0.7929 0.0
O125 O 0.72096 0.55739 0.79232 0.0
C126 C 0.29653 0.25176 0.03676 0.0
O127 O 0.27758 0.27414 0.04159 0.0
Cd128 Cd 0.29996 0.29673 0.05602 0.0
O129 O 0.32787 0.23994 0.03955 0.0
Cd130 Cd 0.37025 0.24272 0.05265 0.0
C131 C 0.38425 0.33522 0.04963 0.0
O132 O 0.3221 0.24392 0.06436 0.0
O133 O 0.37836 0.25468 0.06881 0.0
O134 O 0.37565 0.17611 0.05067 0.0
C135 C 0.34441 0.25029 0.07088 0.0
O136 O 0.35101 0.33927 0.05248 0.0
C137 C 0.41084 0.17507 0.05021 0.0
O138 O 0.3981 0.30286 0.04854 0.0
O139 O 0.42784 0.20594 0.05093 0.0
C140 C 0.74052 0.82047 0.28278 0.0
O141 O 0.71836 0.80203 0.28779 0.0
Cd142 Cd 0.70071 0.8244 0.30263 0.0
O143 O 0.7542 0.85101 0.28557 0.0
Cd144 Cd 0.75611 0.89266 0.29878 0.0
C145 C 0.66358 0.91023 0.29728 0.0
O146 O 0.75811 0.8418 0.30984 0.0
O147 O 0.75532 0.89762 0.31526 0.0
O148 O 0.81994 0.8975 0.29357 0.0
C149 C 0.75818 0.86303 0.31675 0.0
O150 O 0.65882 0.87685 0.29994 0.0
C151 C 0.82306 0.93221 0.29488 0.0
O152 O 0.69617 0.923 0.29594 0.0
O153 O 0.79464 0.9491 0.29795 0.0
C154 C 0.21333 0.24993 0.53856 0.0
O155 O 0.23078 0.22577 0.54321 0.0
Cd156 Cd 0.20545 0.20149 0.55719 0.0
O157 O 0.18186 0.26193 0.54121 0.0
Cd158 Cd 0.13708 0.25671 0.55376 0.0
C159 C 0.12164 0.16474 0.5501 0.0
O160 O 0.1833 0.25343 0.56594 0.0
O161 O 0.12603 0.24368 0.56974 0.0
O162 O 0.13162 0.32376 0.55281 0.0
C163 C 0.15963 0.24737 0.57219 0.0
O164 O 0.15458 0.15977 0.55306 0.0
C165 C 0.09676 0.32466 0.55155 0.0
O166 O 0.10845 0.19745 0.54919 0.0
O167 O 0.08002 0.29354 0.55133 0.0
C168 C 0.75922 0.7949 0.4439 0.0
O169 O 0.77757 0.77542 0.43825 0.0
Cd170 Cd 0.79671 0.80276 0.42402 0.0
O171 O 0.74789 0.82727 0.44177 0.0
Cd172 Cd 0.74332 0.87196 0.42923 0.0
C173 C 0.83567 0.88615 0.43134 0.0
O174 O 0.74131 0.82615 0.41696 0.0
O175 O 0.74918 0.88349 0.41302 0.0
O176 O 0.679 0.87551 0.43412 0.0
C177 C 0.74513 0.84988 0.41062 0.0
O178 O 0.83962 0.85347 0.4281 0.0
C179 C 0.67663 0.91067 0.4338 0.0
O180 O 0.80342 0.89962 0.43279 0.0
O181 O 0.70557 0.92832 0.43134 0.0
C182 C 0.19256 0.25844 0.70172 0.0
O183 O 0.212 0.28246 0.69754 0.0
Cd184 Cd 0.19065 0.30815 0.68329 0.0
O185 O 0.16208 0.24716 0.69832 0.0
Cd186 Cd 0.1236 0.25398 0.68464 0.0
C187 C 0.10521 0.3449 0.68866 0.0
O188 O 0.17424 0.25719 0.67341 0.0
O189 O 0.11835 0.26781 0.66858 0.0
O190 O 0.11955 0.18688 0.68521 0.0
C191 C 0.15237 0.2625 0.66673 0.0
O192 O 0.13903 0.3504 0.68648 0.0
C193 C 0.08438 0.18492 0.68528 0.0
O194 O 0.09215 0.312 0.68903 0.0
O195 O 0.06671 0.21555 0.68513 0.0
C196 C 0.73792 0.73043 0.94267 0.0
O197 O 0.7148 0.74177 0.93674 0.0
Cd198 Cd 0.6953 0.70049 0.92466 0.0
O199 O 0.74978 0.69713 0.94256 0.0
Cd200 Cd 0.74669 0.63817 0.93433 0.0
C201 C 0.65298 0.63013 0.93679 0.0
O202 O 0.7498 0.66773 0.91938 0.0
O203 O 0.74369 0.6079 0.91959 0.0
O204 O 0.81152 0.63438 0.93872 0.0
C205 C 0.74739 0.63746 0.91496 0.0
O206 O 0.6502 0.65815 0.93151 0.0
C207 C 0.81014 0.60141 0.94178 0.0
O208 O 0.6847 0.61788 0.93924 0.0
O209 O 0.77881 0.58515 0.94143 0.0
C210 C 0.30408 0.21319 0.19606 0.0
O211 O 0.28544 0.19448 0.1903 0.0
Cd212 Cd 0.30915 0.18376 0.17513 0.0
O213 O 0.33589 0.2261 0.19397 0.0
Cd214 Cd 0.38134 0.23111 0.18162 0.0
C215 C 0.39188 0.13782 0.17936 0.0
O216 O 0.33125 0.24406 0.17085 0.0
O217 O 0.3868 0.24293 0.1653 0.0
O218 O 0.39274 0.28734 0.19047 0.0
C219 C 0.35238 0.24812 0.16401 0.0
O220 O 0.3591 0.13756 0.17606 0.0
C221 C 0.42649 0.29078 0.18813 0.0
O222 O 0.40607 0.1677 0.18247 0.0
O223 O 0.4398 0.26583 0.18293 0.0
H224 H 0.88187 0.90729 0.28487 0.0
H225 H 0.94313 0.93618 0.28332 0.0
H226 H 0.90666 0.02848 0.29987 0.0
H227 H 0.84502 1.00003 0.30134 0.0
H228 H 0.96651 0.00877 0.27686 0.0
H229 H 0.97992 0.04231 0.31515 0.0
H230 H 0.95574 0.02009 0.32996 0.0
H231 H 0.94154 0.9106 0.3188 0.0
H232 H 0.96615 0.93204 0.30397 0.0
H233 H 0.11359 0.13508 0.28792 0.0
H234 H 0.05446 0.10219 0.2863 0.0
H235 H 0.10593 0.00128 0.29598 0.0
H236 H 0.16538 0.03392 0.29754 0.0
H237 H 0.04051 0.02058 0.30534 0.0
H238 H 0.08362 0.00561 0.27456 0.0
H239 H 0.10886 0.02719 0.25981 0.0
H240 H 0.01258 0.09584 0.25575 0.0
H241 H 0.98703 0.07515 0.27055 0.0
C242 C 0.88675 0.93397 0.28809 0.0
C243 C 0.85876 0.95135 0.29327 0.0
C244 C 0.92167 0.95047 0.28716 0.0
C245 C 0.92936 0.98427 0.29152 0.0
C246 C 0.90118 0.00228 0.29647 0.0
C247 C 0.86603 0.98605 0.29729 0.0
C248 C 0.96753 0.99945 0.29139 0.0
C249 C 0.98273 0.01144 0.28307 0.0
C250 C 0.98876 0.00227 0.2995 0.0
C251 C 0.97448 0.98891 0.30843 0.0
C252 C 0.97175 0.01347 0.31587 0.0
C253 C 0.95797 0.00101 0.32427 0.0
C254 C 0.94698 0.96399 0.32531 0.0
C255 C 0.94991 0.93931 0.31797 0.0
C256 C 0.96372 0.95161 0.30956 0.0
C257 C 0.11244 0.10576 0.28959 0.0
C258 C 0.14404 0.08706 0.29289 0.0
C259 C 0.07869 0.08702 0.28864 0.0
C260 C 0.07591 0.04937 0.29103 0.0
C261 C 0.1076 0.03038 0.29411 0.0
C262 C 0.14152 0.049 0.29496 0.0
C263 C 0.0394 0.03052 0.29082 0.0
C264 C 0.0244 0.01789 0.29911 0.0
C265 C 0.01852 0.02697 0.28268 0.0
C266 C 0.03355 0.03905 0.27371 0.0
C267 C 0.06794 0.02552 0.27055 0.0
C268 C 0.0823 0.03757 0.26218 0.0
C269 C 0.06238 0.06294 0.25686 0.0
C270 C 0.028 0.07622 0.25989 0.0
C271 C 0.01355 0.06431 0.26826 0.0
H272 H 0.07356 0.07226 0.25038 0.0
H273 H 0.93629 0.95441 0.33181 0.0
H274 H 0.9885 0.66398 0.5506 0.0
H275 H 0.01861 0.60302 0.54966 0.0
H276 H 0.91273 0.55202 0.54382 0.0
H277 H 0.88244 0.61263 0.54485 0.0
H278 H 0.94864 0.51561 0.55712 0.0
H279 H 0.97819 0.56092 0.52721 0.0
H280 H 0.00255 0.60547 0.51589 0.0
H281 H 0.11134 0.59688 0.52778 0.0
H282 H 0.08751 0.55264 0.53926 0.0
H283 H 0.02288 0.33601 0.54785 0.0
H284 H 0.99075 0.39571 0.54618 0.0
H285 H 0.09374 0.45361 0.55123 0.0
H286 H 0.12606 0.39429 0.55271 0.0
H287 H 0.05719 0.48551 0.53755 0.0
H288 H 0.0272 0.44369 0.56797 0.0
H289 H 0.0032 0.39982 0.5795 0.0
H290 H 0.89557 0.40269 0.56684 0.0
H291 H 0.91908 0.44623 0.55515 0.0
C292 C 0.97172 0.63984 0.54902 0.0
C293 C 0.93309 0.64312 0.54782 0.0
C294 C 0.98897 0.60504 0.54845 0.0
C295 C 0.96791 0.573 0.54663 0.0
C296 C 0.92948 0.57636 0.54525 0.0
C297 C 0.91225 0.61107 0.54582 0.0
C298 C 0.98556 0.53571 0.54663 0.0
C299 C 0.97199 0.50882 0.55273 0.0
C300 C 0.01653 0.52716 0.54105 0.0
C301 C 0.03097 0.55371 0.53415 0.0
C302 C 0.00724 0.56875 0.52746 0.0
C303 C 0.02097 0.59391 0.521 0.0
C304 C 0.05845 0.60407 0.52113 0.0
C305 C 0.0823 0.58902 0.5277 0.0
C306 C 0.06871 0.56387 0.53417 0.0
C307 C 0.03864 0.36148 0.54859 0.0
C308 C 0.07696 0.36044 0.55045 0.0
C309 C 0.02025 0.39556 0.54766 0.0
C310 C 0.03978 0.42915 0.54867 0.0
C311 C 0.07811 0.42808 0.5504 0.0
C312 C 0.09651 0.39411 0.55129 0.0
C313 C 0.02039 0.46551 0.54808 0.0
C314 C 0.03366 0.49224 0.54189 0.0
C315 C 0.9892 0.474 0.5536 0.0
C316 C 0.97501 0.44788 0.56063 0.0
C317 C 0.9985 0.43473 0.5676 0.0
C318 C 0.98497 0.40997 0.57417 0.0
C319 C 0.94792 0.39839 0.57389 0.0
C320 C 0.92428 0.41163 0.56704 0.0
C321 C 0.93769 0.43637 0.56044 0.0
H322 H 0.93749 0.37922 0.57898 0.0
H323 H 0.06902 0.62355 0.51612 0.0
H324 H 0.67504 0.50192 0.79019 0.0
H325 H 0.61382 0.47389 0.78786 0.0
H326 H 0.56627 0.58282 0.78378 0.0
H327 H 0.62711 0.611 0.7863 0.0
H328 H 0.5281 0.54584 0.79604 0.0
H329 H 0.57403 0.51924 0.76608 0.0
H330 H 0.61823 0.4953 0.75462 0.0
H331 H 0.60571 0.38496 0.76538 0.0
H332 H 0.5618 0.40831 0.777 0.0
H333 H 0.34776 0.47619 0.78774 0.0
H334 H 0.40737 0.50638 0.78456 0.0
H335 H 0.46463 0.4033 0.78999 0.0
H336 H 0.40529 0.37285 0.79304 0.0
H337 H 0.49606 0.44023 0.77571 0.0
H338 H 0.45634 0.46784 0.80653 0.0
H339 H 0.41291 0.49113 0.81826 0.0
H340 H 0.41498 0.59948 0.80594 0.0
H341 H 0.45807 0.57667 0.79406 0.0
C342 C 0.65165 0.51982 0.78864 0.0
C343 C 0.65582 0.55866 0.78849 0.0
C344 C 0.61669 0.50376 0.78727 0.0
C345 C 0.58544 0.52625 0.78561 0.0
C346 C 0.58995 0.56494 0.78507 0.0
C347 C 0.62476 0.58099 0.7865 0.0
C348 C 0.54762 0.50986 0.78527 0.0
C349 C 0.52092 0.52327 0.79145 0.0
C350 C 0.53849 0.47977 0.77945 0.0
C351 C 0.56484 0.4656 0.77246 0.0
C352 C 0.58091 0.48992 0.76605 0.0
C353 C 0.60588 0.47644 0.75952 0.0
C354 C 0.61483 0.43865 0.75928 0.0
C355 C 0.59877 0.41423 0.76557 0.0
C356 C 0.5738 0.42757 0.77213 0.0
C357 C 0.373 0.45985 0.78813 0.0
C358 C 0.37187 0.42226 0.79074 0.0
C359 C 0.40703 0.47714 0.78633 0.0
C360 C 0.44044 0.45718 0.78716 0.0
C361 C 0.43919 0.41921 0.78931 0.0
C362 C 0.40524 0.40192 0.7911 0.0
C363 C 0.47682 0.47628 0.78647 0.0
C364 C 0.50323 0.46322 0.78017 0.0
C365 C 0.48585 0.50667 0.79219 0.0
C366 C 0.46007 0.52045 0.79935 0.0
C367 C 0.4473 0.49656 0.80628 0.0
C368 C 0.42279 0.50968 0.81296 0.0
C369 C 0.4111 0.54673 0.81283 0.0
C370 C 0.42399 0.57077 0.80603 0.0
C371 C 0.44847 0.55777 0.79932 0.0
H372 H 0.39213 0.55684 0.81801 0.0
H373 H 0.63417 0.42827 0.75422 0.0
H374 H 0.38022 0.10642 0.0481 0.0
H375 H 0.41223 0.04702 0.04649 0.0
H376 H 0.51811 0.1029 0.048 0.0
H377 H 0.48613 0.16288 0.0495 0.0
H378 H 0.51728 0.04904 0.03469 0.0
H379 H 0.48498 0.05844 0.06643 0.0
H380 H 0.4432 0.06846 0.07957 0.0
H381 H 0.3764 0.97562 0.0712 0.0
H382 H 0.41751 0.96536 0.05793 0.0
H383 H 0.62698 0.89031 0.04522 0.0
H384 H 0.59544 0.95034 0.0449 0.0
H385 H 0.48916 0.89481 0.04459 0.0
H386 H 0.52062 0.83444 0.0451 0.0
H387 H 0.49034 0.94883 0.05705 0.0
H388 H 0.52381 0.93843 0.02544 0.0
H389 H 0.56644 0.92799 0.01249 0.0
H390 H 0.63168 0.02218 0.02068 0.0
H391 H 0.58972 0.0329 0.03376 0.0
C392 C 0.41033 0.10619 0.04807 0.0
C393 C 0.43067 0.13936 0.049 0.0
C394 C 0.42858 0.07216 0.04717 0.0
C395 C 0.46754 0.07049 0.04725 0.0
C396 C 0.48801 0.1036 0.04795 0.0
C397 C 0.46972 0.13779 0.04884 0.0
C398 C 0.48667 0.034 0.04679 0.0
C399 C 0.51179 0.02725 0.03964 0.0
C400 C 0.47883 0.00534 0.05314 0.0
C401 C 0.45413 0.01136 0.06114 0.0
C402 C 0.46122 0.04034 0.06735 0.0
C403 C 0.43769 0.04603 0.07483 0.0
C404 C 0.40711 0.02275 0.0762 0.0
C405 C 0.40007 0.99366 0.07012 0.0
C406 C 0.42349 0.98787 0.06262 0.0
C407 C 0.59689 0.89081 0.045 0.0
C408 C 0.57627 0.85761 0.04519 0.0
C409 C 0.5789 0.92519 0.04477 0.0
C410 C 0.53994 0.92709 0.04463 0.0
C411 C 0.51927 0.89397 0.04469 0.0
C412 C 0.53726 0.85951 0.04495 0.0
C413 C 0.52083 0.96366 0.04491 0.0
C414 C 0.49576 0.9705 0.05207 0.0
C415 C 0.52878 0.99233 0.03857 0.0
C416 C 0.55379 0.98626 0.03063 0.0
C417 C 0.54738 0.95678 0.02452 0.0
C418 C 0.57141 0.95083 0.01714 0.0
C419 C 0.60181 0.97434 0.01577 0.0
C420 C 0.60815 0.00396 0.02175 0.0
C421 C 0.58422 0.01001 0.02914 0.0
H422 H 0.62042 0.96964 0.01007 0.0
H423 H 0.38893 0.02719 0.082 0.0
H424 H 0.09936 0.39316 0.94925 0.0
H425 H 0.0381 0.41968 0.95232 0.0
H426 H 0.08244 0.53005 0.94857 0.0
H427 H 0.14411 0.50372 0.94568 0.0
H428 H 0.02946 0.52866 0.96204 0.0
H429 H 0.04244 0.48518 0.93091 0.0
H430 H 0.05607 0.43863 0.91899 0.0
H431 H 0.9691 0.36854 0.92934 0.0
H432 H 0.95529 0.41451 0.9414 0.0
H433 H 0.87891 0.63153 0.9441 0.0
H434 H 0.93646 0.59918 0.94786 0.0
H435 H 0.87596 0.4963 0.95075 0.0
H436 H 0.81806 0.52854 0.94685 0.0
H437 H 0.93421 0.48864 0.93957 0.0
H438 H 0.91475 0.53848 0.96928 0.0
H439 H 0.90044 0.58725 0.98059 0.0
H440 H 0.9985 0.64716 0.97268 0.0
H441 H 0.0131 0.59908 0.9612 0.0
C442 C 0.09624 0.42311 0.94923 0.0
C443 C 0.12643 0.44636 0.94709 0.0
C444 C 0.0612 0.43821 0.95099 0.0
C445 C 0.05559 0.47678 0.95051 0.0
C446 C 0.08616 0.50019 0.94896 0.0
C447 C 0.12135 0.4851 0.94727 0.0
C448 C 0.01744 0.49241 0.9507 0.0
C449 C 0.00861 0.52007 0.95712 0.0
C450 C 0.99003 0.48058 0.9444 0.0
C451 C 0.99813 0.45306 0.93712 0.0
C452 C 0.02641 0.45972 0.93068 0.0
C453 C 0.03414 0.43346 0.92389 0.0
C454 C 0.01354 0.4006 0.92342 0.0
C455 C 0.98508 0.39397 0.92972 0.0
C456 C 0.97728 0.42012 0.93653 0.0
C457 C 0.87771 0.60211 0.94565 0.0
C458 C 0.84401 0.58249 0.9451 0.0
C459 C 0.91063 0.5837 0.94787 0.0
C460 C 0.91048 0.54536 0.94965 0.0
C461 C 0.87665 0.52592 0.94941 0.0
C462 C 0.84362 0.54437 0.9472 0.0
C463 C 0.94612 0.52523 0.95085 0.0
C464 C 0.95465 0.49678 0.94464 0.0
C465 C 0.97315 0.53653 0.95731 0.0
C466 C 0.9649 0.56522 0.96433 0.0
C467 C 0.93317 0.56215 0.96991 0.0
C468 C 0.92501 0.58967 0.97635 0.0
C469 C 0.94851 0.62031 0.97734 0.0
C470 C 0.98031 0.62341 0.97191 0.0
C471 C 0.98857 0.596 0.96544 0.0
H472 H 0.94211 0.64162 0.98232 0.0
H473 H 0.01956 0.3803 0.91816 0.0
H474 H 0.4187 0.33377 0.20337 0.0
H475 H 0.44903 0.39334 0.20651 0.0
H476 H 0.51007 0.38396 0.18118 0.0
H477 H 0.48189 0.32334 0.17841 0.0
H478 H 0.55186 0.41573 0.19229 0.0
H479 H 0.4227 0.43524 0.18407 0.0
H480 H 0.35499 0.42699 0.18588 0.0
H481 H 0.36059 0.47348 0.21288 0.0
H482 H 0.42842 0.48172 0.21124 0.0
H483 H 0.52009 0.622 0.18153 0.0
H484 H 0.49376 0.56102 0.18483 0.0
H485 H 0.58368 0.53862 0.20358 0.0
H486 H 0.61119 0.59905 0.19993 0.0
H487 H 0.4677 0.52253 0.19806 0.0
H488 H 0.60898 0.44878 0.20225 0.0
H489 H 0.67471 0.4572 0.19786 0.0
H490 H 0.64122 0.52024 0.17433 0.0
H491 H 0.57533 0.51181 0.17853 0.0
C492 C 0.43917 0.34422 0.19858 0.0
C493 C 0.44788 0.32418 0.19063 0.0
C494 C 0.45625 0.37839 0.20033 0.0
C495 C 0.48111 0.3938 0.19396 0.0
C496 C 0.49099 0.37285 0.18621 0.0
C497 C 0.47483 0.33819 0.18461 0.0
C498 C 0.49535 0.43243 0.19499 0.0
C499 C 0.53343 0.43899 0.19362 0.0
C500 C 0.47142 0.46306 0.19664 0.0
C501 C 0.43061 0.45873 0.19757 0.0
C502 C 0.40947 0.44358 0.1904 0.0
C503 C 0.3711 0.43891 0.19139 0.0
C504 C 0.35352 0.4496 0.1995 0.0
C505 C 0.37426 0.46516 0.20661 0.0
C506 C 0.41265 0.46987 0.20565 0.0
C507 C 0.53396 0.60434 0.18647 0.0
C508 C 0.56798 0.61502 0.19037 0.0
C509 C 0.51881 0.56946 0.18837 0.0
C510 C 0.53714 0.54481 0.1943 0.0
C511 C 0.56953 0.55674 0.19879 0.0
C512 C 0.58513 0.59134 0.19674 0.0
C513 C 0.52395 0.50578 0.19509 0.0
C514 C 0.48618 0.49916 0.19687 0.0
C515 C 0.54784 0.47518 0.19342 0.0
C516 C 0.58733 0.48005 0.19077 0.0
C517 C 0.61569 0.46436 0.19613 0.0
C518 C 0.65295 0.46914 0.19368 0.0
C519 C 0.66214 0.48937 0.18584 0.0
C520 C 0.63408 0.50471 0.18041 0.0
C521 C 0.59678 0.49995 0.18283 0.0
H522 H 0.691 0.49307 0.18395 0.0
H523 H 0.32382 0.44589 0.20027 0.0
H524 H 0.33541 0.0127 0.43595 0.0
H525 H 0.39546 0.98074 0.43674 0.0
H526 H 0.44711 0.08129 0.44653 0.0
H527 H 0.38731 0.11361 0.44565 0.0
H528 H 0.45882 0.00345 0.42669 0.0
H529 H 0.51834 0.05152 0.46138 0.0
H530 H 0.49603 0.06886 0.47675 0.0
H531 H 0.39951 0.00024 0.47314 0.0
H532 H 0.42149 0.98208 0.45781 0.0
H533 H 0.65538 0.98084 0.42888 0.0
H534 H 0.59448 0.00993 0.43135 0.0
H535 H 0.55777 0.9129 0.44612 0.0
H536 H 0.61819 0.88334 0.44352 0.0
H537 H 0.53759 0.98575 0.4542 0.0
H538 H 0.532 0.91451 0.42608 0.0
H539 H 0.55427 0.89638 0.41077 0.0
H540 H 0.54082 0.00872 0.40139 0.0
H541 H 0.519 0.02762 0.4167 0.0
C542 C 0.35943 0.02784 0.4384 0.0
C543 C 0.35673 0.06569 0.4407 0.0
C544 C 0.39369 0.0096 0.43882 0.0
C545 C 0.4256 0.0287 0.44169 0.0
C546 C 0.42271 0.06605 0.44435 0.0
C547 C 0.38857 0.08446 0.44382 0.0
C548 C 0.46239 0.01039 0.44129 0.0
C549 C 0.47597 0.99951 0.43271 0.0
C550 C 0.48472 0.00536 0.44915 0.0
C551 C 0.4714 0.01576 0.45841 0.0
C552 C 0.49242 0.04003 0.46388 0.0
C553 C 0.47982 0.05002 0.47258 0.0
C554 C 0.44631 0.03576 0.47591 0.0
C555 C 0.42538 0.01139 0.47054 0.0
C556 C 0.43787 0.0013 0.46184 0.0
C557 C 0.63446 0.96592 0.43274 0.0
C558 C 0.64137 0.92975 0.43596 0.0
C559 C 0.59977 0.98253 0.43414 0.0
C560 C 0.57178 0.96344 0.4389 0.0
C561 C 0.57914 0.92804 0.44246 0.0
C562 C 0.61354 0.91115 0.44092 0.0
C563 C 0.53397 0.97925 0.4396 0.0
C564 C 0.52033 0.98976 0.4482 0.0
C565 C 0.51146 0.98393 0.43177 0.0
C566 C 0.52425 0.97254 0.42255 0.0
C567 C 0.53411 0.9354 0.42077 0.0
C568 C 0.54658 0.92497 0.41209 0.0
C569 C 0.54905 0.9514 0.40511 0.0
C570 C 0.53895 0.98829 0.4068 0.0
C571 C 0.5265 0.99887 0.41547 0.0
H572 H 0.55872 0.94327 0.3984 0.0
H573 H 0.4366 0.04353 0.48264 0.0
H574 H 0.00957 0.17093 0.68645 0.0
H575 H 0.97891 0.11007 0.68654 0.0
H576 H 0.08565 0.05595 0.68452 0.0
H577 H 0.11638 0.1164 0.68437 0.0
H578 H 0.03575 0.02629 0.67271 0.0
H579 H 0.04067 0.05764 0.70456 0.0
H580 H 0.03045 0.0969 0.71814 0.0
H581 H 0.91261 0.09384 0.71353 0.0
H582 H 0.92217 0.05496 0.69983 0.0
H583 H 0.97631 0.84232 0.68352 0.0
H584 H 0.0081 0.90257 0.68397 0.0
H585 H 0.90227 0.95842 0.68602 0.0
H586 H 0.87042 0.89858 0.68564 0.0
H587 H 0.95243 0.98687 0.69795 0.0
H588 H 0.94765 0.9562 0.666 0.0
H589 H 0.95789 0.91706 0.65239 0.0
H590 H 0.07562 0.91892 0.65721 0.0
H591 H 0.06602 0.95767 0.67093 0.0
C592 C 0.02646 0.14605 0.68604 0.0
C593 C 0.06538 0.14847 0.68542 0.0
C594 C 0.00895 0.11133 0.68612 0.0
C595 C 0.03006 0.07851 0.6856 0.0
C596 C 0.06885 0.08092 0.68492 0.0
C597 C 0.08635 0.11552 0.68487 0.0
C598 C 0.01182 0.04156 0.68568 0.0
C599 C 0.01791 0.01746 0.67829 0.0
C600 C 0.98802 0.03038 0.69288 0.0
C601 C 0.98217 0.05371 0.70111 0.0
C602 C 0.0126 0.0656 0.70639 0.0
C603 C 0.00692 0.08773 0.71412 0.0
C604 C 0.97091 0.09794 0.71669 0.0
C605 C 0.94049 0.08596 0.71153 0.0
C606 C 0.94602 0.06385 0.70379 0.0
C607 C 0.95986 0.86744 0.68409 0.0
C608 C 0.92087 0.8657 0.68451 0.0
C609 C 0.97803 0.90182 0.68431 0.0
C610 C 0.95749 0.93497 0.68496 0.0
C611 C 0.91863 0.9332 0.68553 0.0
C612 C 0.90049 0.89895 0.68527 0.0
C613 C 0.97632 0.97162 0.68497 0.0
C614 C 0.97033 0.99567 0.69239 0.0
C615 C 0.00022 0.98276 0.6778 0.0
C616 C 0.00607 0.95949 0.66955 0.0
C617 C 0.97569 0.94799 0.6642 0.0
C618 C 0.98139 0.92593 0.65646 0.0
C619 C 0.01738 0.91542 0.65395 0.0
C620 C 0.04775 0.92703 0.65917 0.0
C621 C 0.0422 0.94906 0.66693 0.0
H622 H 0.02173 0.89835 0.64795 0.0
H623 H 0.96657 0.11507 0.72268 0.0
H624 H 0.6619 0.98607 0.29547 0.0
H625 H 0.60695 0.02599 0.29421 0.0
H626 H 0.53616 0.92932 0.29481 0.0
H627 H 0.59078 0.88922 0.29612 0.0
H628 H 0.51498 0.98259 0.28157 0.0
H629 H 0.54604 0.97575 0.31362 0.0
H630 H 0.5876 0.98132 0.32695 0.0
H631 H 0.60384 0.0972 0.32114 0.0
H632 H 0.56276 0.09218 0.30768 0.0
H633 H 0.34121 0.0635 0.29374 0.0
H634 H 0.39781 0.02643 0.29215 0.0
H635 H 0.46433 0.12465 0.29653 0.0
H636 H 0.40792 0.16156 0.29843 0.0
H637 H 0.48941 0.07179 0.30666 0.0
H638 H 0.45622 0.08052 0.27507 0.0
H639 H 0.41538 0.07562 0.2616 0.0
H640 H 0.40405 0.95819 0.26607 0.0
H641 H 0.44443 0.96245 0.27965 0.0
C642 C 0.63467 0.97327 0.29526 0.0
C643 C 0.63071 0.93447 0.29596 0.0
C644 C 0.60332 0.99612 0.29456 0.0
C645 C 0.56754 0.98056 0.29447 0.0
C646 C 0.56355 0.94183 0.29486 0.0
C647 C 0.59481 0.919 0.29565 0.0
C648 C 0.53414 0.00467 0.2944 0.0
C649 C 0.50912 0.00193 0.28707 0.0
C650 C 0.52708 0.0304 0.30149 0.0
C651 C 0.55168 0.03349 0.30959 0.0
C652 C 0.55874 0.00234 0.31514 0.0
C653 C 0.58215 0.00541 0.32272 0.0
C654 C 0.59844 0.03957 0.32487 0.0
C655 C 0.59126 0.07075 0.31945 0.0
C656 C 0.5679 0.06781 0.31185 0.0
C657 C 0.3679 0.07728 0.29425 0.0
C658 C 0.37006 0.11546 0.29624 0.0
C659 C 0.40028 0.05607 0.2933 0.0
C660 C 0.43545 0.07276 0.29414 0.0
C661 C 0.43758 0.11108 0.29588 0.0
C662 C 0.40527 0.13218 0.29694 0.0
C663 C 0.46997 0.05002 0.29378 0.0
C664 C 0.49524 0.05283 0.30107 0.0
C665 C 0.47732 0.02457 0.28661 0.0
C666 C 0.45309 0.02188 0.27843 0.0
C667 C 0.44479 0.0537 0.27323 0.0
C668 C 0.42176 0.05103 0.26556 0.0
C669 C 0.40706 0.01664 0.26299 0.0
C670 C 0.41543 0.98482 0.26807 0.0
C671 C 0.43842 0.98734 0.27575 0.0
H672 H 0.38923 0.01463 0.25705 0.0
H673 H 0.61656 0.04189 0.33075 0.0
H674 H 0.9661 0.84189 0.54822 0.0
H675 H 0.00508 0.89721 0.54661 0.0
H676 H 0.90897 0.96725 0.55039 0.0
H677 H 0.86972 0.91219 0.552 0.0
H678 H 0.95506 0.99212 0.53641 0.0
H679 H 0.96553 0.9535 0.56783 0.0
H680 H 0.97795 0.90912 0.58032 0.0
H681 H 0.08972 0.89444 0.57065 0.0
H682 H 0.07779 0.93838 0.55803 0.0
H683 H 0.04582 0.16214 0.54817 0.0
H684 H 0.00678 0.1067 0.54701 0.0
H685 H 0.10484 0.03752 0.54674 0.0
H686 H 0.14388 0.09262 0.54817 0.0
H687 H 0.05781 0.01139 0.5585 0.0
H688 H 0.04893 0.05141 0.52736 0.0
H689 H 0.03695 0.09526 0.51475 0.0
H690 H 0.92356 0.10686 0.52348 0.0
H691 H 0.935 0.06344 0.53623 0.0
C692 C 0.95317 0.86903 0.54866 0.0
C693 C 0.91479 0.87256 0.5503 0.0
C694 C 0.97552 0.90062 0.54775 0.0
C695 C 0.95995 0.93632 0.54846 0.0
C696 C 0.92153 0.93996 0.54983 0.0
C697 C 0.89919 0.90842 0.55079 0.0
C698 C 0.98388 0.96987 0.54808 0.0
C699 C 0.97734 0.9966 0.54128 0.0
C700 C 0.01338 0.97524 0.55433 0.0
C701 C 0.02064 0.94891 0.56193 0.0
C702 C 0.99266 0.94057 0.56833 0.0
C703 C 0.99963 0.91554 0.57543 0.0
C704 C 0.03457 0.89889 0.57626 0.0
C705 C 0.06265 0.90731 0.56999 0.0
C706 C 0.05581 0.93229 0.56286 0.0
C707 C 0.05908 0.13516 0.54773 0.0
C708 C 0.09797 0.13182 0.5483 0.0
C709 C 0.03672 0.10344 0.54703 0.0
C710 C 0.05284 0.06784 0.54674 0.0
C711 C 0.09171 0.06462 0.547 0.0
C712 C 0.11402 0.09621 0.54779 0.0
C713 C 0.02933 0.03381 0.54676 0.0
C714 C 0.03579 0.00697 0.55356 0.0
C715 C 0.99991 0.02833 0.54047 0.0
C716 C 0.99293 0.05443 0.53281 0.0
C717 C 0.02152 0.06354 0.52664 0.0
C718 C 0.01481 0.08827 0.51946 0.0
C719 C 0.97954 0.10391 0.51833 0.0
C720 C 0.95088 0.09477 0.52437 0.0
C721 C 0.95745 0.07006 0.53157 0.0
H722 H 0.9744 0.12305 0.51276 0.0
H723 H 0.03991 0.87952 0.58177 0.0
H724 H 0.10876 0.38155 0.80606 0.0
H725 H 0.05388 0.41696 0.80184 0.0
H726 H 0.11404 0.46702 0.77947 0.0
H727 H 0.16991 0.43239 0.78391 0.0
H728 H 0.07737 0.51791 0.78756 0.0
H729 H 0.04335 0.40191 0.77575 0.0
H730 H 0.03505 0.33393 0.77516 0.0
H731 H 0.95624 0.33981 0.79717 0.0
H732 H 0.96454 0.40776 0.79801 0.0
H733 H 0.85915 0.54665 0.78226 0.0
H734 H 0.9154 0.51105 0.77864 0.0
H735 H 0.97334 0.56604 0.80065 0.0
H736 H 0.91815 0.60246 0.80403 0.0
H737 H 0.9513 0.46205 0.78746 0.0
H738 H 0.06282 0.57406 0.79744 0.0
H739 H 0.07166 0.64171 0.79583 0.0
H740 H 0.99604 0.64342 0.77314 0.0
H741 H 0.98715 0.57569 0.77451 0.0
C742 C 0.11036 0.3998 0.80019 0.0
C743 C 0.14378 0.4041 0.79532 0.0
C744 C 0.07876 0.41989 0.79773 0.0
C745 C 0.07948 0.44421 0.79022 0.0
C746 C 0.11271 0.44832 0.78527 0.0
C747 C 0.14462 0.4285 0.78781 0.0
C748 C 0.04607 0.4669 0.78803 0.0
C749 C 0.04983 0.50567 0.78744 0.0
C750 C 0.01015 0.45092 0.78746 0.0
C751 C 0.0047 0.41001 0.78696 0.0
C752 C 0.0244 0.38871 0.7805 0.0
C753 C 0.01969 0.35016 0.78012 0.0
C754 C 0.99515 0.33256 0.78613 0.0
C755 C 0.97523 0.35349 0.79252 0.0
C756 C 0.97988 0.39205 0.79294 0.0
C757 C 0.88406 0.55142 0.78625 0.0
C758 C 0.8842 0.57754 0.79341 0.0
C759 C 0.91618 0.53103 0.78418 0.0
C760 C 0.94893 0.53625 0.78926 0.0
C761 C 0.94891 0.56222 0.79643 0.0
C762 C 0.91712 0.5829 0.79841 0.0
C763 C 0.98256 0.51314 0.78756 0.0
C764 C 0.97884 0.47428 0.78739 0.0
C765 C 0.01855 0.52899 0.78705 0.0
C766 C 0.02418 0.56974 0.78612 0.0
C767 C 0.04827 0.58879 0.79207 0.0
C768 C 0.05324 0.62718 0.79121 0.0
C769 C 0.03437 0.64686 0.7844 0.0
C770 C 0.01056 0.62816 0.77842 0.0
C771 C 0.00551 0.58977 0.77925 0.0
H772 H 0.03824 0.67658 0.78375 0.0
H773 H 0.99154 0.30272 0.78583 0.0
H774 H 0.53973 0.65953 0.04554 0.0
H775 H 0.49906 0.60497 0.04478 0.0
H776 H 0.59494 0.53299 0.04532 0.0
H777 H 0.63572 0.58714 0.04609 0.0
H778 H 0.54213 0.5102 0.03272 0.0
H779 H 0.54785 0.54635 0.06446 0.0
H780 H 0.54174 0.58908 0.07756 0.0
H781 H 0.42621 0.60522 0.07135 0.0
H782 H 0.43171 0.56281 0.05815 0.0
H783 H 0.45932 0.33907 0.04637 0.0
H784 H 0.49728 0.39506 0.04471 0.0
H785 H 0.39909 0.46321 0.04732 0.0
H786 H 0.36116 0.40756 0.04919 0.0
H787 H 0.45171 0.48936 0.05781 0.0
H788 H 0.44447 0.45096 0.02655 0.0
H789 H 0.44984 0.40754 0.01357 0.0
H790 H 0.56686 0.39596 0.01861 0.0
H791 H 0.5621 0.43893 0.0317 0.0
C792 C 0.55218 0.63211 0.0454 0.0
C793 C 0.59098 0.62771 0.04592 0.0
C794 C 0.5289 0.60097 0.04501 0.0
C795 C 0.54401 0.56495 0.04508 0.0
C796 C 0.58272 0.56053 0.04527 0.0
C797 C 0.60597 0.59156 0.04574 0.0
C798 C 0.51958 0.53174 0.04528 0.0
C799 C 0.52254 0.50543 0.03823 0.0
C800 C 0.49354 0.52596 0.05239 0.0
C801 C 0.4903 0.55175 0.06026 0.0
C802 C 0.52123 0.5593 0.06583 0.0
C803 C 0.51786 0.5834 0.07329 0.0
C804 C 0.48365 0.59998 0.07526 0.0
C805 C 0.45271 0.59242 0.0698 0.0
C806 C 0.45593 0.56833 0.06234 0.0
C807 C 0.44576 0.36595 0.0465 0.0
C808 C 0.40719 0.36878 0.04793 0.0
C809 C 0.46749 0.39798 0.04552 0.0
C810 C 0.45102 0.43342 0.04582 0.0
C811 C 0.41246 0.43622 0.04709 0.0
C812 C 0.39079 0.40431 0.04813 0.0
C813 C 0.47407 0.46764 0.04522 0.0
C814 C 0.47099 0.49416 0.05223 0.0
C815 C 0.49986 0.47364 0.03805 0.0
C816 C 0.50286 0.44791 0.03016 0.0
C817 C 0.4713 0.43894 0.02493 0.0
C818 C 0.47424 0.41444 0.01755 0.0
C819 C 0.50865 0.39893 0.01528 0.0
C820 C 0.54021 0.40797 0.02038 0.0
C821 C 0.53742 0.43242 0.02778 0.0
H822 H 0.51087 0.37998 0.00956 0.0
H823 H 0.48104 0.61855 0.08104 0.0
H824 H 0.39337 0.39391 0.93754 0.0
H825 H 0.44831 0.43265 0.94001 0.0
H826 H 0.37801 0.52782 0.9448 0.0
H827 H 0.3227 0.48906 0.9425 0.0
H828 H 0.43502 0.53622 0.93088 0.0
H829 H 0.42128 0.49676 0.96212 0.0
H830 H 0.4139 0.45067 0.97447 0.0
H831 H 0.51773 0.40006 0.96702 0.0
H832 H 0.52548 0.44553 0.95454 0.0
H833 H 0.583 0.65845 0.93831 0.0
H834 H 0.52537 0.62419 0.94092 0.0
H835 H 0.58781 0.52217 0.94343 0.0
H836 H 0.64573 0.55672 0.94127 0.0
H837 H 0.5322 0.51927 0.95458 0.0
H838 H 0.54489 0.54976 0.92291 0.0
H839 H 0.55405 0.59035 0.90951 0.0
H840 H 0.45484 0.65083 0.9163 0.0
H841 H 0.44535 0.61087 0.92981 0.0
C842 C 0.38956 0.42299 0.93924 0.0
C843 C 0.35372 0.4385 0.93979 0.0
C844 C 0.42096 0.445 0.94069 0.0
C845 C 0.41712 0.48299 0.94261 0.0
C846 C 0.38143 0.49847 0.94335 0.0
C847 C 0.34993 0.4763 0.94206 0.0
C848 C 0.45048 0.50695 0.94312 0.0
C849 C 0.45595 0.53314 0.93616 0.0
C850 C 0.47833 0.50167 0.94981 0.0
C851 C 0.4738 0.47439 0.95734 0.0
C852 C 0.44239 0.47561 0.96306 0.0
C853 C 0.43817 0.44963 0.9701 0.0
C854 C 0.46529 0.4224 0.97151 0.0
C855 C 0.49673 0.42115 0.96591 0.0
C856 C 0.50107 0.44705 0.95886 0.0
C857 C 0.58446 0.6288 0.93955 0.0
C858 C 0.6188 0.61018 0.93949 0.0
C859 C 0.55149 0.60919 0.941 0.0
C860 C 0.5521 0.5704 0.94212 0.0
C861 C 0.58655 0.55204 0.94253 0.0
C862 C 0.61966 0.5718 0.94129 0.0
C863 C 0.51686 0.5488 0.94232 0.0
C864 C 0.51111 0.52283 0.94936 0.0
C865 C 0.48905 0.55354 0.93555 0.0
C866 C 0.49465 0.57761 0.92743 0.0
C867 C 0.52518 0.5719 0.92158 0.0
C868 C 0.53041 0.59476 0.91396 0.0
C869 C 0.5051 0.62322 0.91207 0.0
C870 C 0.47446 0.62882 0.91778 0.0
C871 C 0.46913 0.60606 0.92542 0.0
H872 H 0.50919 0.64089 0.90616 0.0
H873 H 0.46197 0.40232 0.97696 0.0
H874 H 0.60469 0.86057 0.16315 0.0
H875 H 0.56743 0.91691 0.16477 0.0
H876 H 0.51593 0.87162 0.18898 0.0
H877 H 0.552 0.8144 0.18715 0.0
H878 H 0.46619 0.90595 0.18001 0.0
H879 H 0.58761 0.93885 0.18985 0.0
H880 H 0.65583 0.94465 0.18903 0.0
H881 H 0.64583 0.01451 0.16535 0.0
H882 H 0.57753 0.00873 0.16596 0.0
H883 H 0.45318 0.1213 0.18971 0.0
H884 H 0.4883 0.063 0.18996 0.0
H885 H 0.41613 0.01806 0.16915 0.0
H886 H 0.38008 0.07547 0.16917 0.0
H887 H 0.52852 0.02879 0.17841 0.0
H888 H 0.40692 0.92634 0.17077 0.0
H889 H 0.33985 0.9207 0.174 0.0
H890 H 0.35218 0.99002 0.1977 0.0
H891 H 0.41938 0.99566 0.19468 0.0
C892 C 0.58526 0.86252 0.16879 0.0
C893 C 0.58141 0.83312 0.17505 0.0
C894 C 0.56414 0.89489 0.16975 0.0
C895 C 0.53945 0.899 0.17713 0.0
C896 C 0.53487 0.86924 0.18325 0.0
C897 C 0.5555 0.83653 0.1822 0.0
C898 C 0.51854 0.93432 0.17844 0.0
C899 C 0.47986 0.93278 0.17967 0.0
C900 C 0.53638 0.96945 0.17829 0.0
C901 C 0.57746 0.97309 0.1779 0.0
C902 C 0.59997 0.95525 0.18443 0.0
C903 C 0.63865 0.95856 0.18401 0.0
C904 C 0.65516 0.97987 0.17713 0.0
C905 C 0.633 0.99798 0.17067 0.0
C906 C 0.5943 0.99473 0.17106 0.0
C907 C 0.44472 0.09889 0.18522 0.0
C908 C 0.41367 0.10288 0.17948 0.0
C909 C 0.46486 0.06559 0.18536 0.0
C910 C 0.45457 0.03579 0.17968 0.0
C911 C 0.42407 0.04015 0.17378 0.0
C912 C 0.40357 0.07313 0.17376 0.0
C913 C 0.47607 0.00042 0.17977 0.0
C914 C 0.51486 0.00196 0.17879 0.0
C915 C 0.4585 0.96529 0.18052 0.0
C916 C 0.41814 0.96167 0.18245 0.0
C917 C 0.39535 0.94023 0.17669 0.0
C918 C 0.3573 0.93707 0.17848 0.0
C919 C 0.34174 0.95508 0.18603 0.0
C920 C 0.36423 0.97619 0.19183 0.0
C921 C 0.4023 0.97941 0.19008 0.0
H922 H 0.31228 0.95262 0.1874 0.0
H923 H 0.68511 0.9824 0.17682 0.0
H924 H 0.90792 0.86298 0.43269 0.0
H925 H 0.96328 0.90149 0.43487 0.0
H926 H 0.89456 0.99963 0.43606 0.0
H927 H 0.83896 0.96137 0.43398 0.0
H928 H 0.95518 0.0041 0.42365 0.0
H929 H 0.93115 0.97047 0.45498 0.0
H930 H 0.91973 0.92666 0.46764 0.0
H931 H 0.02547 0.87485 0.46278 0.0
H932 H 0.0373 0.91803 0.45 0.0
H933 H 0.09095 0.13488 0.4352 0.0
H934 H 0.0354 0.09614 0.43589 0.0
H935 H 0.10378 0.9986 0.43942 0.0
H936 H 0.15964 0.03746 0.43901 0.0
H937 H 0.04331 0.99282 0.4496 0.0
H938 H 0.06807 0.02213 0.41837 0.0
H939 H 0.08103 0.06237 0.4051 0.0
H940 H 0.97624 0.11756 0.40883 0.0
H941 H 0.96287 0.07798 0.42221 0.0
C942 C 0.90453 0.89274 0.43348 0.0
C943 C 0.86902 0.90913 0.43315 0.0
C944 C 0.93618 0.91465 0.43476 0.0
C945 C 0.93293 0.95334 0.43565 0.0
C946 C 0.89758 0.96978 0.4354 0.0
C947 C 0.86586 0.94785 0.43424 0.0
C948 C 0.96656 0.97685 0.43644 0.0
C949 C 0.97418 0.00211 0.42939 0.0
C950 C 0.99194 0.97312 0.44377 0.0
C951 C 0.98494 0.94725 0.45147 0.0
C952 C 0.95183 0.94953 0.45656 0.0
C953 C 0.94531 0.92485 0.46377 0.0
C954 C 0.97181 0.89792 0.46599 0.0
C955 C 0.00494 0.89569 0.46103 0.0
C956 C 0.01159 0.92028 0.45381 0.0
C957 C 0.09421 0.10523 0.43621 0.0
C958 C 0.12974 0.0892 0.43695 0.0
C959 C 0.0624 0.08308 0.43657 0.0
C960 C 0.06543 0.04434 0.43749 0.0
C961 C 0.10077 0.02841 0.43866 0.0
C962 C 0.13267 0.05065 0.43842 0.0
C963 C 0.03182 0.02049 0.43684 0.0
C964 C 0.02428 0.995 0.44387 0.0
C965 C 0.00674 0.0235 0.4294 0.0
C966 C 0.01464 0.04734 0.42135 0.0
C967 C 0.04791 0.04304 0.4164 0.0
C968 C 0.05531 0.0657 0.40886 0.0
C969 C 0.02952 0.09257 0.40614 0.0
C970 C 0.99622 0.09677 0.41095 0.0
C971 C 0.9887 0.07422 0.41852 0.0
H972 H 0.03529 0.11008 0.40029 0.0
H973 H 0.96671 0.87885 0.47158 0.0
H974 H 0.12569 0.41758 0.69073 0.0
H975 H 0.08527 0.47175 0.69227 0.0
H976 H 0.98892 0.4005 0.69183 0.0
H977 H 0.02921 0.34595 0.69026 0.0
H978 H 0.98341 0.45882 0.67979 0.0
H979 H 0.01406 0.44184 0.71139 0.0
H980 H 0.0558 0.43334 0.72459 0.0
H981 H 0.10706 0.53877 0.71908 0.0
H982 H 0.06597 0.54768 0.70576 0.0
H983 H 0.85204 0.59808 0.68908 0.0
H984 H 0.89044 0.54267 0.6908 0.0
H985 H 0.9886 0.61111 0.69253 0.0
H986 H 0.95017 0.66702 0.69097 0.0
H987 H 0.99233 0.5534 0.70439 0.0
H988 H 0.96543 0.56955 0.67257 0.0
H989 H 0.92568 0.57876 0.65903 0.0
H990 H 0.86995 0.47559 0.66451 0.0
H991 H 0.90903 0.46603 0.67817 0.0
C992 C 0.09591 0.4133 0.69105 0.0
C993 C 0.08069 0.37737 0.69035 0.0
C994 C 0.07286 0.44434 0.69198 0.0
C995 C 0.0341 0.44015 0.69222 0.0
C996 C 0.01878 0.40432 0.69167 0.0
C997 C 0.04186 0.37318 0.69081 0.0
C998 C 0.00963 0.47337 0.69252 0.0
C999 C 0.98486 0.47915 0.68526 0.0
C1000 C 0.01245 0.50049 0.6995 0.0
C1001 C 0.03714 0.49526 0.70752 0.0
C1002 C 0.03444 0.46308 0.71294 0.0
C1003 C 0.05794 0.45821 0.72046 0.0
C1004 C 0.08412 0.48546 0.72266 0.0
C1005 C 0.08679 0.51767 0.71736 0.0
C1006 C 0.06337 0.52266 0.70983 0.0
C1007 C 0.88176 0.6015 0.68991 0.0
C1008 C 0.89805 0.63705 0.68979 0.0
C1009 C 0.9037 0.56971 0.69087 0.0
C1010 C 0.94247 0.57269 0.69162 0.0
C1011 C 0.95874 0.60816 0.69192 0.0
C1012 C 0.93673 0.64009 0.69101 0.0
C1013 C 0.966 0.53872 0.69167 0.0
C1014 C 0.99069 0.5329 0.69896 0.0
C1015 C 0.9634 0.51164 0.68467 0.0
C1016 C 0.93989 0.51727 0.67645 0.0
C1017 C 0.94449 0.54897 0.67093 0.0
C1018 C 0.92212 0.55423 0.66323 0.0
C1019 C 0.89524 0.52783 0.66093 0.0
C1020 C 0.89074 0.49606 0.66631 0.0
C1021 C 0.91301 0.49069 0.67403 0.0
H1022 H 0.87795 0.53195 0.65496 0.0
H1023 H 0.10229 0.48164 0.72848 0.0
H1024 H 0.23771 0.10893 0.33213 0.0
H1025 H 0.23341 0.11725 0.3486 0.0
H1026 H 0.23185 0.23636 0.3451 0.0
H1027 H 0.23632 0.22826 0.32847 0.0
H1028 H 0.28193 0.21236 0.35832 0.0
H1029 H 0.15401 0.19627 0.35152 0.0
H1030 H 0.09905 0.16772 0.34431 0.0
H1031 H 0.12103 0.06523 0.35837 0.0
H1032 H 0.17645 0.09296 0.36555 0.0
H1033 H 0.25592 0.21192 0.40729 0.0
H1034 H 0.24755 0.22588 0.39103 0.0
H1035 H 0.24273 0.10843 0.38511 0.0
H1036 H 0.25061 0.09427 0.4013 0.0
H1037 H 0.18702 0.1465 0.37685 0.0
H1038 H 0.32076 0.15885 0.38096 0.0
H1039 H 0.37722 0.1858 0.38785 0.0
H1040 H 0.34456 0.29443 0.37868 0.0
H1041 H 0.28763 0.26814 0.37183 0.0
C1042 C 0.23628 0.13693 0.33484 0.0
C1043 C 0.23734 0.16797 0.32903 0.0
C1044 C 0.23358 0.14162 0.34425 0.0
C1045 C 0.23179 0.17739 0.34803 0.0
C1046 C 0.23294 0.20855 0.34227 0.0
C1047 C 0.23545 0.20386 0.3328 0.0
C1048 C 0.2306 0.18155 0.35805 0.0
C1049 C 0.26069 0.19885 0.3624 0.0
C1050 C 0.20302 0.16353 0.36331 0.0
C1051 C 0.16952 0.14671 0.35905 0.0
C1052 C 0.14728 0.16757 0.35303 0.0
C1053 C 0.11601 0.15153 0.34895 0.0
C1054 C 0.10658 0.11468 0.35087 0.0
C1055 C 0.12836 0.09379 0.35689 0.0
C1056 C 0.15967 0.10968 0.36098 0.0
C1057 C 0.25327 0.18913 0.40251 0.0
C1058 C 0.25388 0.15204 0.40555 0.0
C1059 C 0.2485 0.19714 0.39324 0.0
C1060 C 0.24453 0.16815 0.3869 0.0
C1061 C 0.24551 0.13116 0.38992 0.0
C1062 C 0.25019 0.12316 0.39916 0.0
C1063 C 0.2392 0.17581 0.37708 0.0
C1064 C 0.20775 0.16086 0.37278 0.0
C1065 C 0.26557 0.19586 0.37188 0.0
C1066 C 0.29973 0.21162 0.376 0.0
C1067 C 0.32546 0.18853 0.38049 0.0
C1068 C 0.35757 0.20367 0.38437 0.0
C1069 C 0.3644 0.24182 0.38373 0.0
C1070 C 0.33918 0.2649 0.37919 0.0
C1071 C 0.307 0.24989 0.3753 0.0
H1072 H 0.38929 0.25349 0.38673 0.0
H1073 H 0.08236 0.10231 0.34771 0.0
H1074 H 0.88721 0.72479 0.58605 0.0
H1075 H 0.86487 0.71765 0.6017 0.0
H1076 H 0.75368 0.74562 0.59306 0.0
H1077 H 0.77582 0.75222 0.57724 0.0
H1078 H 0.78298 0.78694 0.60864 0.0
H1079 H 0.76114 0.66318 0.59932 0.0
H1080 H 0.77414 0.60361 0.59163 0.0
H1081 H 0.86891 0.58642 0.60895 0.0
H1082 H 0.85687 0.64616 0.61667 0.0
H1083 H 0.76776 0.76168 0.65741 0.0
H1084 H 0.74986 0.75367 0.64133 0.0
H1085 H 0.86004 0.71329 0.63516 0.0
H1086 H 0.87798 0.72103 0.65108 0.0
H1087 H 0.80564 0.67226 0.62667 0.0
H1088 H 0.83805 0.80329 0.63184 0.0
H1089 H 0.82913 0.86449 0.63914 0.0
H1090 H 0.71671 0.86823 0.62931 0.0
H1091 H 0.72491 0.8068 0.62204 0.0
C1092 C 0.85798 0.72925 0.58746 0.0
C1093 C 0.83323 0.73911 0.58046 0.0
C1094 C 0.84522 0.72491 0.59638 0.0
C1095 C 0.80761 0.73072 0.59846 0.0
C1096 C 0.78273 0.74073 0.59152 0.0
C1097 C 0.79541 0.74448 0.58253 0.0
C1098 C 0.79563 0.72845 0.60807 0.0
C1099 C 0.78662 0.76162 0.61258 0.0
C1100 C 0.80069 0.69541 0.61314 0.0
C1101 C 0.8081 0.65927 0.60857 0.0
C1102 C 0.7849 0.64683 0.60146 0.0
C1103 C 0.79208 0.613 0.5971 0.0
C1104 C 0.82234 0.59125 0.5998 0.0
C1105 C 0.84545 0.60327 0.60688 0.0
C1106 C 0.83841 0.6371 0.61126 0.0
C1107 C 0.788 0.75083 0.65262 0.0
C1108 C 0.82435 0.74225 0.65546 0.0
C1109 C 0.77772 0.74624 0.64347 0.0
C1110 C 0.80366 0.73291 0.6371 0.0
C1111 C 0.83955 0.72336 0.64 0.0
C1112 C 0.84985 0.72809 0.64909 0.0
C1113 C 0.7951 0.73115 0.62724 0.0
C1114 C 0.80028 0.69719 0.6227 0.0
C1115 C 0.78679 0.76351 0.62214 0.0
C1116 C 0.7819 0.80031 0.62652 0.0
C1117 C 0.81134 0.81705 0.63131 0.0
C1118 C 0.80644 0.85179 0.63542 0.0
C1119 C 0.77233 0.87017 0.63472 0.0
C1120 C 0.74308 0.85391 0.62987 0.0
C1121 C 0.74783 0.81914 0.62575 0.0
H1122 H 0.76859 0.89708 0.63791 0.0
H1123 H 0.82786 0.56507 0.59641 0.0
H1124 H 0.2547 0.43438 0.8306 0.0
H1125 H 0.24718 0.43585 0.84717 0.0
H1126 H 0.2697 0.31812 0.8485 0.0
H1127 H 0.27661 0.31626 0.83187 0.0
H1128 H 0.21013 0.33674 0.85871 0.0
H1129 H 0.33512 0.3807 0.85504 0.0
H1130 H 0.38465 0.42047 0.84872 0.0
H1131 H 0.33105 0.51729 0.85975 0.0
H1132 H 0.28089 0.47813 0.86604 0.0
H1133 H 0.23453 0.33009 0.90698 0.0
H1134 H 0.24161 0.32564 0.89041 0.0
H1135 H 0.22328 0.44384 0.88798 0.0
H1136 H 0.21709 0.44863 0.90457 0.0
H1137 H 0.28193 0.42326 0.87833 0.0
H1138 H 0.15635 0.37969 0.88175 0.0
H1139 H 0.10639 0.34016 0.88797 0.0
H1140 H 0.16069 0.24292 0.87738 0.0
H1141 H 0.21125 0.28184 0.8712 0.0
C1142 C 0.25826 0.40883 0.83442 0.0
C1143 C 0.26631 0.3752 0.82994 0.0
C1144 C 0.25406 0.40974 0.84389 0.0
C1145 C 0.25827 0.37716 0.84906 0.0
C1146 C 0.2664 0.34356 0.84462 0.0
C1147 C 0.27047 0.34258 0.83513 0.0
C1148 C 0.25337 0.37813 0.85909 0.0
C1149 C 0.22619 0.35523 0.86303 0.0
C1150 C 0.27378 0.40291 0.86466 0.0
C1151 C 0.30408 0.4265 0.86094 0.0
C1152 C 0.33375 0.41049 0.85606 0.0
C1153 C 0.36196 0.43293 0.85249 0.0
C1154 C 0.36095 0.47139 0.85381 0.0
C1155 C 0.33177 0.48749 0.85872 0.0
C1156 C 0.30347 0.46519 0.8623 0.0
C1157 C 0.23167 0.35506 0.90291 0.0
C1158 C 0.22531 0.38972 0.90706 0.0
C1159 C 0.2356 0.35246 0.89344 0.0
C1160 C 0.23267 0.38437 0.88796 0.0
C1161 C 0.22569 0.41889 0.89209 0.0
C1162 C 0.22207 0.42157 0.90156 0.0
C1163 C 0.23843 0.3821 0.87797 0.0
C1164 C 0.26587 0.40471 0.87402 0.0
C1165 C 0.21822 0.35709 0.8724 0.0
C1166 C 0.18777 0.33365 0.87609 0.0
C1167 C 0.15778 0.34985 0.88081 0.0
C1168 C 0.12933 0.32755 0.88432 0.0
C1169 C 0.13041 0.28904 0.88309 0.0
C1170 C 0.15991 0.27275 0.87834 0.0
C1171 C 0.18845 0.29492 0.87482 0.0
H1172 H 0.10835 0.27183 0.88581 0.0
H1173 H 0.38281 0.48871 0.85104 0.0
H1174 H 0.71855 0.708 0.07331 0.0
H1175 H 0.73012 0.68711 0.08906 0.0
H1176 H 0.63704 0.75277 0.09837 0.0
H1177 H 0.62443 0.77206 0.0827 0.0
H1178 H 0.74409 0.71482 0.10567 0.0
H1179 H 0.58355 0.7057 0.11208 0.0
H1180 H 0.5271 0.6932 0.10303 0.0
H1181 H 0.59203 0.63344 0.08325 0.0
H1182 H 0.64871 0.64484 0.09227 0.0
H1183 H 0.69797 0.73408 0.15156 0.0
H1184 H 0.71229 0.73229 0.1353 0.0
H1185 H 0.6533 0.62802 0.13288 0.0
H1186 H 0.63598 0.632 0.14904 0.0
H1187 H 0.63053 0.66588 0.12069 0.0
H1188 H 0.75355 0.64019 0.1288 0.0
H1189 H 0.81314 0.64418 0.13705 0.0
H1190 H 0.8295 0.75509 0.12698 0.0
H1191 H 0.76975 0.75204 0.11877 0.0
C1192 C 0.70105 0.71837 0.07878 0.0
C1193 C 0.67024 0.74108 0.07685 0.0
C1194 C 0.70769 0.70646 0.08774 0.0
C1195 C 0.6838 0.7176 0.09482 0.0
C1196 C 0.65513 0.74301 0.09296 0.0
C1197 C 0.648 0.75413 0.08403 0.0
C1198 C 0.68635 0.70083 0.10402 0.0
C1199 C 0.7195 0.70381 0.109 0.0
C1200 C 0.65479 0.68441 0.10813 0.0
C1201 C 0.62045 0.67631 0.10284 0.0
C1202 C 0.58574 0.68957 0.10585 0.0
C1203 C 0.55369 0.68271 0.10071 0.0
C1204 C 0.55597 0.66257 0.09256 0.0
C1205 C 0.59027 0.64904 0.08956 0.0
C1206 C 0.62237 0.65569 0.09468 0.0
C1207 C 0.68864 0.71054 0.14756 0.0
C1208 C 0.66568 0.68334 0.15144 0.0
C1209 C 0.69724 0.7092 0.13827 0.0
C1210 C 0.68434 0.67974 0.1328 0.0
C1211 C 0.66341 0.6512 0.1369 0.0
C1212 C 0.65355 0.65338 0.14611 0.0
C1213 C 0.68786 0.68182 0.12269 0.0
C1214 C 0.65569 0.67594 0.11745 0.0
C1215 C 0.7209 0.69379 0.11828 0.0
C1216 C 0.75701 0.6959 0.12318 0.0
C1217 C 0.76972 0.66553 0.12838 0.0
C1218 C 0.80357 0.66762 0.13305 0.0
C1219 C 0.82508 0.69987 0.13254 0.0
C1220 C 0.81282 0.7301 0.12736 0.0
C1221 C 0.77899 0.72818 0.12268 0.0
H1222 H 0.85126 0.70144 0.13616 0.0
H1223 H 0.53117 0.65748 0.08858 0.0
H1224 H 0.76302 0.56013 0.82963 0.0
H1225 H 0.76089 0.56539 0.84628 0.0
H1226 H 0.73981 0.68313 0.84394 0.0
H1227 H 0.7425 0.67823 0.82729 0.0
H1228 H 0.79223 0.66847 0.85662 0.0
H1229 H 0.66996 0.62384 0.84928 0.0
H1230 H 0.62434 0.58161 0.84219 0.0
H1231 H 0.66835 0.4901 0.85762 0.0
H1232 H 0.71459 0.53169 0.86472 0.0
H1233 H 0.74186 0.69603 0.90316 0.0
H1234 H 0.74232 0.69377 0.88645 0.0
H1235 H 0.75697 0.57469 0.88742 0.0
H1236 H 0.75534 0.57664 0.90409 0.0
H1237 H 0.70632 0.59192 0.87532 0.0
H1238 H 0.82966 0.63539 0.88232 0.0
H1239 H 0.87617 0.67689 0.88932 0.0
H1240 H 0.83128 0.76965 0.87449 0.0
H1241 H 0.78417 0.72876 0.86749 0.0
C1242 C 0.75785 0.58712 0.83266 0.0
C1243 C 0.75284 0.61876 0.82717 0.0
C1244 C 0.75651 0.59005 0.84216 0.0
C1245 C 0.7498 0.62459 0.84631 0.0
C1246 C 0.74498 0.65624 0.84085 0.0
C1247 C 0.74641 0.65336 0.83135 0.0
C1248 C 0.74832 0.62778 0.85638 0.0
C1249 C 0.7731 0.65215 0.86072 0.0
C1250 C 0.72389 0.60585 0.86169 0.0
C1251 C 0.69595 0.58083 0.85747 0.0
C1252 C 0.67009 0.59466 0.85111 0.0
C1253 C 0.64409 0.57085 0.8471 0.0
C1254 C 0.6435 0.53318 0.84944 0.0
C1255 C 0.66886 0.51927 0.85581 0.0
C1256 C 0.69494 0.54296 0.85984 0.0
C1257 C 0.74529 0.66941 0.8998 0.0
C1258 C 0.74861 0.63651 0.90491 0.0
C1259 C 0.7457 0.66817 0.89026 0.0
C1260 C 0.75012 0.6341 0.8857 0.0
C1261 C 0.75349 0.60127 0.89081 0.0
C1262 C 0.75264 0.60244 0.90032 0.0
C1263 C 0.7505 0.63237 0.87559 0.0
C1264 C 0.72543 0.60832 0.87123 0.0
C1265 C 0.77478 0.65449 0.87027 0.0
C1266 C 0.80316 0.67908 0.87445 0.0
C1267 C 0.82953 0.66469 0.88061 0.0
C1268 C 0.85603 0.68809 0.88457 0.0
C1269 C 0.85662 0.7259 0.88237 0.0
C1270 C 0.83076 0.74037 0.8762 0.0
C1271 C 0.80418 0.71708 0.87222 0.0
H1272 H 0.87716 0.74397 0.88545 0.0
H1273 H 0.62335 0.51479 0.84632 0.0
H1274 H 0.28104 0.23958 0.15794 0.0
H1275 H 0.25837 0.24838 0.14225 0.0
H1276 H 0.36761 0.28459 0.13395 0.0
H1277 H 0.39048 0.27541 0.14949 0.0
H1278 H 0.30731 0.32697 0.12628 0.0
H1279 H 0.34744 0.19722 0.13155 0.0
H1280 H 0.34231 0.13702 0.13954 0.0
H1281 H 0.22739 0.12932 0.13182 0.0
H1282 H 0.2318 0.18978 0.12388 0.0
H1283 H 0.38332 0.27889 0.08512 0.0
H1284 H 0.36253 0.287 0.10082 0.0
H1285 H 0.25519 0.24173 0.09384 0.0
H1286 H 0.27586 0.23369 0.07795 0.0
H1287 H 0.28718 0.20928 0.10927 0.0
H1288 H 0.25589 0.32925 0.0994 0.0
H1289 H 0.26229 0.3887 0.09117 0.0
H1290 H 0.3582 0.41597 0.10728 0.0
H1291 H 0.3528 0.35643 0.11551 0.0
C1292 C 0.30001 0.24992 0.15278 0.0
C1293 C 0.33759 0.2565 0.15487 0.0
C1294 C 0.28701 0.25497 0.14386 0.0
C1295 C 0.31137 0.26715 0.137 0.0
C1296 C 0.34838 0.27541 0.13919 0.0
C1297 C 0.36148 0.26986 0.14804 0.0
C1298 C 0.30014 0.26775 0.12731 0.0
C1299 C 0.30245 0.30142 0.12253 0.0
C1300 C 0.29232 0.2345 0.12254 0.0
C1301 C 0.2898 0.19815 0.12724 0.0
C1302 C 0.32102 0.1828 0.13162 0.0
C1303 C 0.31826 0.14863 0.13613 0.0
C1304 C 0.2845 0.12942 0.13621 0.0
C1305 C 0.25348 0.14428 0.13177 0.0
C1306 C 0.25609 0.17849 0.12727 0.0
C1307 C 0.35521 0.27085 0.08689 0.0
C1308 C 0.33123 0.25558 0.08032 0.0
C1309 C 0.34324 0.27581 0.09584 0.0
C1310 C 0.30714 0.26551 0.09843 0.0
C1311 C 0.28302 0.25019 0.09192 0.0
C1312 C 0.29488 0.24558 0.08288 0.0
C1313 C 0.29654 0.26829 0.10816 0.0
C1314 C 0.2902 0.23523 0.11298 0.0
C1315 C 0.30045 0.30218 0.11296 0.0
C1316 C 0.30392 0.33825 0.10808 0.0
C1317 C 0.27849 0.34781 0.10116 0.0
C1318 C 0.28193 0.38155 0.09649 0.0
C1319 C 0.31063 0.4061 0.0987 0.0
C1320 C 0.33594 0.39695 0.10559 0.0
C1321 C 0.33265 0.36322 0.11027 0.0
H1322 H 0.31325 0.43221 0.09508 0.0
H1323 H 0.28242 0.10296 0.1397 0.0
H1324 H 0.77502 0.9021 0.33203 0.0
H1325 H 0.77953 0.879 0.34763 0.0
H1326 H 0.7533 0.7682 0.33838 0.0
H1327 H 0.74907 0.79122 0.32257 0.0
H1328 H 0.71031 0.79427 0.35367 0.0
H1329 H 0.83612 0.77743 0.34562 0.0
H1330 H 0.89628 0.79275 0.33848 0.0
H1331 H 0.90704 0.88794 0.35599 0.0
H1332 H 0.8467 0.87356 0.36314 0.0
H1333 H 0.73402 0.7809 0.4031 0.0
H1334 H 0.74184 0.7632 0.38698 0.0
H1335 H 0.77312 0.8759 0.38047 0.0
H1336 H 0.76524 0.89376 0.39639 0.0
H1337 H 0.82058 0.82191 0.37287 0.0
H1338 H 0.68698 0.84811 0.37669 0.0
H1339 H 0.62532 0.83574 0.38342 0.0
H1340 H 0.62964 0.72327 0.37362 0.0
H1341 H 0.69158 0.73492 0.36692 0.0
C1342 C 0.7704 0.87278 0.33328 0.0
C1343 C 0.76168 0.84844 0.32611 0.0
C1344 C 0.77322 0.85957 0.34219 0.0
C1345 C 0.76719 0.82185 0.3441 0.0
C1346 C 0.75834 0.79734 0.33698 0.0
C1347 C 0.75597 0.81051 0.328 0.0
C1348 C 0.76826 0.80943 0.3537 0.0
C1349 C 0.73473 0.79899 0.35786 0.0
C1350 C 0.80016 0.81567 0.35912 0.0
C1351 C 0.83678 0.82437 0.35492 0.0
C1352 C 0.85121 0.80174 0.34792 0.0
C1353 C 0.88537 0.81025 0.34387 0.0
C1354 C 0.90547 0.8413 0.34678 0.0
C1355 C 0.89147 0.86386 0.35376 0.0
C1356 C 0.85732 0.85548 0.35783 0.0
C1357 C 0.74256 0.80182 0.39821 0.0
C1358 C 0.74895 0.83873 0.40098 0.0
C1359 C 0.74707 0.79165 0.38904 0.0
C1360 C 0.75828 0.81824 0.3826 0.0
C1361 C 0.7648 0.85494 0.38538 0.0
C1362 C 0.76002 0.86515 0.39447 0.0
C1363 C 0.76214 0.80908 0.37282 0.0
C1364 C 0.79665 0.81543 0.36865 0.0
C1365 C 0.73117 0.79912 0.3674 0.0
C1366 C 0.69406 0.79221 0.37143 0.0
C1367 C 0.67491 0.82066 0.37605 0.0
C1368 C 0.6399 0.8138 0.37984 0.0
C1369 C 0.62364 0.7787 0.37898 0.0
C1370 C 0.64232 0.75041 0.37431 0.0
C1371 C 0.67736 0.75712 0.37051 0.0
H1372 H 0.59652 0.77345 0.38192 0.0
H1373 H 0.93189 0.84787 0.34363 0.0
H1374 H 0.10921 0.25648 0.65162 0.0
H1375 H 0.12937 0.2474 0.63588 0.0
H1376 H 0.24405 0.25215 0.64438 0.0
H1377 H 0.22402 0.26072 0.66033 0.0
H1378 H 0.2197 0.29813 0.62787 0.0
H1379 H 0.22432 0.17426 0.63911 0.0
H1380 H 0.20255 0.11995 0.64788 0.0
H1381 H 0.1041 0.11451 0.63136 0.0
H1382 H 0.12495 0.16917 0.62258 0.0
H1383 H 0.22902 0.25585 0.57964 0.0
H1384 H 0.24589 0.25182 0.59586 0.0
H1385 H 0.13172 0.22736 0.60264 0.0
H1386 H 0.11481 0.23097 0.58656 0.0
H1387 H 0.17973 0.18306 0.61195 0.0
H1388 H 0.16653 0.31535 0.60429 0.0
H1389 H 0.18403 0.37216 0.59587 0.0
H1390 H 0.29593 0.36273 0.60583 0.0
H1391 H 0.27911 0.30559 0.61423 0.0
C1392 C 0.13873 0.25577 0.65017 0.0
C1393 C 0.16506 0.2592 0.65719 0.0
C1394 C 0.15018 0.25044 0.64119 0.0
C1395 C 0.18811 0.24876 0.63904 0.0
C1396 C 0.21465 0.2532 0.64596 0.0
C1397 C 0.20317 0.25805 0.65503 0.0
C1398 C 0.19899 0.24237 0.62947 0.0
C1399 C 0.21223 0.27258 0.62438 0.0
C1400 C 0.18884 0.20909 0.625 0.0
C1401 C 0.17621 0.17593 0.6302 0.0
C1402 C 0.19791 0.16165 0.63738 0.0
C1403 C 0.18574 0.13076 0.64235 0.0
C1404 C 0.15195 0.1138 0.64018 0.0
C1405 C 0.13029 0.12766 0.63302 0.0
C1406 C 0.14231 0.15856 0.62804 0.0
C1407 C 0.20763 0.2494 0.5846 0.0
C1408 C 0.17055 0.24393 0.58186 0.0
C1409 C 0.21732 0.2471 0.59384 0.0
C1410 C 0.19003 0.23936 0.60042 0.0
C1411 C 0.15324 0.23312 0.59765 0.0
C1412 C 0.14357 0.23544 0.58846 0.0
C1413 C 0.19855 0.2395 0.6103 0.0
C1414 C 0.18887 0.20805 0.61544 0.0
C1415 C 0.21171 0.27172 0.6148 0.0
C1416 C 0.22172 0.306 0.60977 0.0
C1417 C 0.19493 0.32526 0.60462 0.0
C1418 C 0.2047 0.35753 0.59987 0.0
C1419 C 0.2411 0.37097 0.60029 0.0
C1420 C 0.26777 0.35223 0.60549 0.0
C1421 C 0.25814 0.31991 0.61025 0.0
H1422 H 0.24862 0.39596 0.59661 0.0
H1423 H 0.14258 0.0899 0.64404 0.0
H1424 H 0.18784 0.23176 0.27877 0.0
H1425 H 0.17818 0.2456 0.26258 0.0
H1426 H 0.2909 0.28592 0.26064 0.0
H1427 H 0.29995 0.27391 0.27693 0.0
H1428 H 0.24763 0.31861 0.24793 0.0
H1429 H 0.27097 0.1919 0.25894 0.0
H1430 H 0.25523 0.13715 0.26834 0.0
H1431 H 0.14894 0.12948 0.25512 0.0
H1432 H 0.16394 0.18455 0.24572 0.0
H1433 H 0.33934 0.2473 0.21019 0.0
H1434 H 0.31391 0.26397 0.22501 0.0
H1435 H 0.2079 0.21731 0.21736 0.0
H1436 H 0.2335 0.19972 0.20243 0.0
H1437 H 0.22904 0.19446 0.23382 0.0
H1438 H 0.21804 0.3122 0.21944 0.0
H1439 H 0.23833 0.3655 0.21009 0.0
H1440 H 0.32499 0.38931 0.22938 0.0
H1441 H 0.30561 0.33585 0.23879 0.0
C1442 C 0.20999 0.245 0.27495 0.0
C1443 C 0.24486 0.25115 0.27898 0.0
C1444 C 0.20446 0.25286 0.26572 0.0
C1445 C 0.23421 0.26559 0.26037 0.0
C1446 C 0.26765 0.27583 0.26464 0.0
C1447 C 0.27287 0.26887 0.27394 0.0
C1448 C 0.23343 0.26132 0.25032 0.0
C1449 C 0.24334 0.29161 0.2448 0.0
C1450 C 0.22698 0.22615 0.24624 0.0
C1451 C 0.21838 0.19251 0.25171 0.0
C1452 C 0.24422 0.17857 0.25806 0.0
C1453 C 0.23542 0.14753 0.26339 0.0
C1454 C 0.20105 0.12992 0.26235 0.0
C1455 C 0.1755 0.14321 0.25593 0.0
C1456 C 0.18413 0.17433 0.25061 0.0
C1457 C 0.31055 0.24061 0.21161 0.0
C1458 C 0.28842 0.22214 0.20513 0.0
C1459 C 0.29592 0.25059 0.22006 0.0
C1460 C 0.25874 0.24276 0.22219 0.0
C1461 C 0.23655 0.22402 0.21579 0.0
C1462 C 0.25126 0.21382 0.2073 0.0
C1463 C 0.24455 0.25148 0.23143 0.0
C1464 C 0.23195 0.22189 0.23683 0.0
C1465 C 0.24895 0.28719 0.23537 0.0
C1466 C 0.26036 0.31988 0.22982 0.0
C1467 C 0.24152 0.32869 0.22167 0.0
C1468 C 0.25287 0.35895 0.21636 0.0
C1469 C 0.28295 0.38076 0.21914 0.0
C1470 C 0.30167 0.37242 0.22725 0.0
C1471 C 0.29045 0.34218 0.23259 0.0
H1472 H 0.29174 0.40413 0.21501 0.0
H1473 H 0.19425 0.10595 0.2665 0.0
H1474 H 0.74827 0.83663 0.459 0.0
H1475 H 0.74196 0.81567 0.47466 0.0
H1476 H 0.74572 0.70134 0.46562 0.0
H1477 H 0.75449 0.72261 0.44982 0.0
H1478 H 0.69699 0.78009 0.48438 0.0
H1479 H 0.78532 0.64879 0.48222 0.0
H1480 H 0.8337 0.61985 0.47256 0.0
H1481 H 0.87314 0.72791 0.46471 0.0
H1482 H 0.8252 0.75739 0.47437 0.0
H1483 H 0.7319 0.74572 0.53161 0.0
H1484 H 0.71174 0.73301 0.51588 0.0
H1485 H 0.82339 0.75455 0.50631 0.0
H1486 H 0.84381 0.76427 0.52197 0.0
H1487 H 0.79882 0.70247 0.49692 0.0
H1488 H 0.74595 0.82197 0.50647 0.0
H1489 H 0.70635 0.86231 0.51605 0.0
H1490 H 0.61064 0.79704 0.50898 0.0
H1491 H 0.64982 0.75614 0.49943 0.0
C1492 C 0.74753 0.807 0.46032 0.0
C1493 C 0.75233 0.78122 0.45322 0.0
C1494 C 0.7436 0.79498 0.46929 0.0
C1495 C 0.74363 0.75688 0.47137 0.0
C1496 C 0.74634 0.73089 0.46421 0.0
C1497 C 0.75132 0.74301 0.4552 0.0
C1498 C 0.74411 0.74549 0.48111 0.0
C1499 C 0.71899 0.76271 0.48712 0.0
C1500 C 0.77254 0.72257 0.48471 0.0
C1501 C 0.80139 0.70519 0.47889 0.0
C1502 C 0.80433 0.6663 0.47842 0.0
C1503 C 0.83167 0.64983 0.47295 0.0
C1504 C 0.85637 0.67203 0.46799 0.0
C1505 C 0.85389 0.71075 0.46852 0.0
C1506 C 0.82665 0.72735 0.47398 0.0
C1507 C 0.75197 0.74745 0.5261 0.0
C1508 C 0.78927 0.75617 0.52791 0.0
C1509 C 0.7405 0.74024 0.51714 0.0
C1510 C 0.7659 0.74323 0.50987 0.0
C1511 C 0.80324 0.75163 0.51177 0.0
C1512 C 0.81489 0.75754 0.52071 0.0
C1513 C 0.75403 0.7401 0.50019 0.0
C1514 C 0.77625 0.71916 0.49419 0.0
C1515 C 0.7243 0.76137 0.49659 0.0
C1516 C 0.70083 0.78575 0.50236 0.0
C1517 C 0.7165 0.81612 0.50702 0.0
C1518 C 0.69414 0.83909 0.51243 0.0
C1519 C 0.65603 0.83215 0.51315 0.0
C1520 C 0.64018 0.8023 0.50844 0.0
C1521 C 0.66244 0.77922 0.50303 0.0
H1522 H 0.63875 0.84997 0.51734 0.0
H1523 H 0.87749 0.65922 0.46376 0.0
H1524 H 0.25416 0.27792 0.71164 0.0
H1525 H 0.27004 0.25789 0.72711 0.0
H1526 H 0.17431 0.1857 0.72751 0.0
H1527 H 0.15802 0.20572 0.7121 0.0
H1528 H 0.17473 0.2329 0.74161 0.0
H1529 H 0.26044 0.14813 0.72841 0.0
H1530 H 0.31073 0.12731 0.71817 0.0
H1531 H 0.38647 0.20308 0.73108 0.0
H1532 H 0.33652 0.2248 0.74132 0.0
H1533 H 0.21314 0.21778 0.78787 0.0
H1534 H 0.20955 0.18888 0.77276 0.0
H1535 H 0.29751 0.26047 0.76318 0.0
H1536 H 0.30175 0.2889 0.77822 0.0
H1537 H 0.29743 0.19462 0.75393 0.0
H1538 H 0.20951 0.29149 0.76292 0.0
H1539 H 0.16031 0.31829 0.77266 0.0
H1540 H 0.09006 0.22456 0.76701 0.0
H1541 H 0.13914 0.197 0.75733 0.0
C1542 C 0.23681 0.25736 0.71496 0.0
C1543 C 0.20457 0.24382 0.71069 0.0
C1544 C 0.24612 0.24565 0.72377 0.0
C1545 C 0.22348 0.22007 0.72842 0.0
C1546 C 0.1922 0.20534 0.72402 0.0
C1547 C 0.18287 0.21699 0.71522 0.0
C1548 C 0.22957 0.21293 0.73825 0.0
C1549 C 0.20119 0.22334 0.7443 0.0
C1550 C 0.26435 0.20125 0.74173 0.0
C1551 C 0.29461 0.18821 0.73562 0.0
C1552 C 0.28774 0.16055 0.72903 0.0
C1553 C 0.31622 0.14856 0.72323 0.0
C1554 C 0.35176 0.16389 0.72397 0.0
C1555 C 0.35893 0.19121 0.73052 0.0
C1556 C 0.33055 0.20333 0.73634 0.0
C1557 C 0.23261 0.22641 0.78264 0.0
C1558 C 0.25699 0.25633 0.78414 0.0
C1559 C 0.23054 0.20985 0.77401 0.0
C1560 C 0.25267 0.2232 0.76682 0.0
C1561 C 0.28004 0.24991 0.76863 0.0
C1562 C 0.28216 0.2664 0.77722 0.0
C1563 C 0.24289 0.21543 0.7572 0.0
C1564 C 0.27054 0.20261 0.75121 0.0
C1565 C 0.2076 0.22546 0.7537 0.0
C1566 C 0.17812 0.24195 0.75952 0.0
C1567 C 0.18367 0.27648 0.76382 0.0
C1568 C 0.15581 0.29182 0.76932 0.0
C1569 C 0.12212 0.27308 0.77048 0.0
C1570 C 0.11621 0.23899 0.76613 0.0
C1571 C 0.14404 0.22348 0.76064 0.0
H1572 H 0.10056 0.28502 0.77473 0.0
H1573 H 0.37377 0.15456 0.71947 0.0
H1574 H 0.80669 0.73817 0.94994 0.0
H1575 H 0.82059 0.76044 0.96536 0.0
H1576 H 0.70621 0.7944 0.96857 0.0
H1577 H 0.69286 0.77411 0.95297 0.0
H1578 H 0.75108 0.83485 0.97956 0.0
H1579 H 0.73422 0.70201 0.97195 0.0
H1580 H 0.75272 0.64541 0.96354 0.0
H1581 H 0.86229 0.65216 0.97507 0.0
H1582 H 0.84451 0.70909 0.98345 0.0
H1583 H 0.67129 0.77399 0.01988 0.0
H1584 H 0.69387 0.7891 0.0047 0.0
H1585 H 0.80167 0.74426 0.01154 0.0
H1586 H 0.77865 0.72766 0.02677 0.0
H1587 H 0.78038 0.71795 -0.00391 0.0
H1588 H 0.78783 0.84054 0.00762 0.0
H1589 H 0.76741 0.89644 0.01599 0.0
H1590 H 0.67565 0.90959 -0.00249 0.0
H1591 H 0.69519 0.8535 0.98909 0.0
C1592 C 0.78502 0.75199 0.95381 0.0
C1593 C 0.7486 0.75399 0.9504 0.0
C1594 C 0.79294 0.76461 0.96261 0.0
C1595 C 0.76413 0.77782 0.9682 0.0
C1596 C 0.7288 0.78401 0.96439 0.0
C1597 C 0.72113 0.77235 0.95548 0.0
C1598 C 0.76816 0.77776 0.97827 0.0
C1599 C 0.75774 0.80948 0.98322 0.0
C1600 C 0.77794 0.74484 0.98303 0.0
C1601 C 0.78817 0.70994 0.97824 0.0
C1602 C 0.76225 0.6914 0.97268 0.0
C1603 C 0.77262 0.65931 0.96791 0.0
C1604 C 0.80869 0.64524 0.96876 0.0
C1605 C 0.83439 0.66312 0.97441 0.0
C1606 C 0.82419 0.69529 0.97917 0.0
C1607 C 0.69996 0.76766 0.01822 0.0
C1608 C 0.72315 0.74947 0.02452 0.0
C1609 C 0.71299 0.77676 0.00954 0.0
C1610 C 0.74976 0.76863 0.00702 0.0
C1611 C 0.77329 0.7511 0.01336 0.0
C1612 C 0.76007 0.7415 0.02204 0.0
C1613 C 0.76178 0.7747 -0.00255 0.0
C1614 C 0.77512 0.74394 -0.00745 0.0
C1615 C 0.75461 0.80849 -0.00722 0.0
C1616 C 0.74301 0.8427 -0.00227 0.0
C1617 C 0.76322 0.85525 0.00536 0.0
C1618 C 0.75179 0.88699 0.01011 0.0
C1619 C 0.72024 0.90654 0.00728 0.0
C1620 C 0.70012 0.89445 -0.00032 0.0
C1621 C 0.71142 0.86273 -0.0051 0.0
H1622 H 0.7114 0.93107 0.01098 0.0
H1623 H 0.81671 0.62046 0.96504 0.0
H1624 H 0.32473 0.19722 0.0258 0.0
H1625 H 0.30943 0.18538 0.00982 0.0
H1626 H 0.22418 0.26967 0.01093 0.0
H1627 H 0.23881 0.28129 0.02698 0.0
H1628 H 0.2047 0.21132 -0.00042 0.0
H1629 H 0.31044 0.29323 0.00474 0.0
H1630 H 0.3721 0.30894 0.01101 0.0
H1631 H 0.42051 0.2168 -0.00339 0.0
H1632 H 0.35895 0.20029 0.99034 0.0
H1633 H 0.20428 0.32017 0.96021 0.0
H1634 H 0.20461 0.2874 0.97474 0.0
H1635 H 0.28923 0.21293 0.96461 0.0
H1636 H 0.28942 0.24604 0.95 0.0
H1637 H 0.31067 0.24732 0.97975 0.0
H1638 H 0.20467 0.17831 0.97117 0.0
H1639 H 0.14251 0.16679 0.96469 0.0
H1640 H 0.09347 0.23741 0.98506 0.0
H1641 H 0.15537 0.24985 -0.00841 0.0
C1642 C 0.30226 0.2128 0.0227 0.0
C1643 C 0.28347 0.24077 0.02759 0.0
C1644 C 0.29347 0.20585 0.01358 0.0
C1645 C 0.26612 0.22707 0.00918 0.0
C1646 C 0.2454 0.25301 0.01422 0.0
C1647 C 0.25397 0.2598 0.02337 0.0
C1648 C 0.2626 0.22621 -0.00088 0.0
C1649 C 0.22777 0.21904 -0.0048 0.0
C1650 C 0.2931 0.23528 -0.00656 0.0
C1651 C 0.33008 0.24523 -0.00282 0.0
C1652 C 0.3342 0.27616 0.00297 0.0
C1653 C 0.36912 0.28524 0.00651 0.0
C1654 C 0.40018 0.2638 0.00424 0.0
C1655 C 0.3964 0.23331 -0.00161 0.0
C1656 C 0.36152 0.22408 -0.00516 0.0
C1657 C 0.22246 0.29635 0.96099 0.0
C1658 C 0.24729 0.28608 0.95401 0.0
C1659 C 0.22228 0.27732 0.96928 0.0
C1660 C 0.24678 0.24756 0.97074 0.0
C1661 C 0.26999 0.23574 0.96359 0.0
C1662 C 0.27011 0.25474 0.95526 0.0
C1663 C 0.25236 0.23356 0.98014 0.0
C1664 C 0.28771 0.23818 0.98401 0.0
C1665 C 0.22222 0.22252 0.98574 0.0
C1666 C 0.18478 0.2151 0.98186 0.0
C1667 C 0.18068 0.1916 0.97424 0.0
C1668 C 0.14546 0.18486 0.97056 0.0
C1669 C 0.11407 0.20137 0.97446 0.0
C1670 C 0.11781 0.22461 0.98205 0.0
C1671 C 0.15297 0.23145 0.98576 0.0
H1672 H 0.08683 0.19613 0.9716 0.0
H1673 H 0.4272 0.27088 0.00699 0.0
H1674 H 0.71117 0.7612 0.27352 0.0
H1675 H 0.72352 0.7433 0.25771 0.0
H1676 H 0.80456 0.83121 0.2554 0.0
H1677 H 0.79204 0.84967 0.27114 0.0
H1678 H 0.7549 0.83501 0.24215 0.0
H1679 H 0.83209 0.74053 0.25447 0.0
H1680 H 0.84972 0.68871 0.26462 0.0
H1681 H 0.76218 0.62172 0.25339 0.0
H1682 H 0.74363 0.67331 0.24327 0.0
H1683 H 0.76486 0.78549 0.19548 0.0
H1684 H 0.78956 0.79333 0.21095 0.0
H1685 H 0.70907 0.71473 0.22117 0.0
H1686 H 0.68471 0.70624 0.20581 0.0
H1687 H 0.7752 0.70782 0.23 0.0
H1688 H 0.68978 0.80672 0.22096 0.0
H1689 H 0.66917 0.85858 0.21115 0.0
H1690 H 0.77083 0.91695 0.21665 0.0
H1691 H 0.79222 0.86515 0.22641 0.0
C1692 C 0.73199 0.77639 0.26969 0.0
C1693 C 0.75028 0.80711 0.27354 0.0
C1694 C 0.73927 0.76593 0.26068 0.0
C1695 C 0.7652 0.78577 0.25542 0.0
C1696 C 0.78452 0.81552 0.25937 0.0
C1697 C 0.77719 0.82608 0.26835 0.0
C1698 C 0.76868 0.77829 0.24553 0.0
C1699 C 0.76042 0.80739 0.23948 0.0
C1700 C 0.77527 0.74215 0.24208 0.0
C1701 C 0.78636 0.71092 0.24814 0.0
C1702 C 0.81642 0.71485 0.25421 0.0
C1703 C 0.82661 0.68549 0.25995 0.0
C1704 C 0.80706 0.65196 0.25966 0.0
C1705 C 0.77731 0.6477 0.25361 0.0
C1706 C 0.76699 0.67698 0.24786 0.0
C1707 C 0.75285 0.76943 0.201 0.0
C1708 C 0.7224 0.74575 0.19945 0.0
C1709 C 0.76703 0.7739 0.20982 0.0
C1710 C 0.7508 0.75492 0.21719 0.0
C1711 C 0.722 0.72958 0.21557 0.0
C1712 C 0.70788 0.72505 0.20678 0.0
C1713 C 0.76041 0.7643 0.22672 0.0
C1714 C 0.77096 0.73561 0.23269 0.0
C1715 C 0.75568 0.80077 0.23014 0.0
C1716 C 0.74279 0.83191 0.2243 0.0
C1717 C 0.70784 0.8305 0.22002 0.0
C1718 C 0.696 0.85989 0.21448 0.0
C1719 C 0.71873 0.89098 0.21325 0.0
C1720 C 0.7533 0.8928 0.21759 0.0
C1721 C 0.7653 0.86345 0.22312 0.0
H1722 H 0.70952 0.91371 0.20896 0.0
H1723 H 0.81499 0.62926 0.26411 0.0
H1724 H 0.28283 0.18463 0.46134 0.0
H1725 H 0.28907 0.21296 0.47637 0.0
H1726 H 0.22415 0.30706 0.46742 0.0
H1727 H 0.21709 0.27854 0.45234 0.0
H1728 H 0.31366 0.27782 0.48415 0.0
H1729 H 0.16302 0.32637 0.48457 0.0
H1730 H 0.10368 0.31555 0.47652 0.0
H1731 H 0.13629 0.20297 0.47088 0.0
H1732 H 0.19556 0.21305 0.479 0.0
H1733 H 0.19185 0.31101 0.52889 0.0
H1734 H 0.20895 0.32685 0.51323 0.0
H1735 H 0.28432 0.23345 0.5125 0.0
H1736 H 0.26811 0.21808 0.52823 0.0
H1737 H 0.19175 0.28305 0.49995 0.0
H1738 H 0.34855 0.24165 0.49627 0.0
H1739 H 0.40713 0.25022 0.50473 0.0
H1740 H 0.36228 0.3471 0.51788 0.0
H1741 H 0.3036 0.33949 0.50939 0.0
C1742 C 0.27027 0.2116 0.4625 0.0
C1743 C 0.24873 0.22894 0.45571 0.0
C1744 C 0.27422 0.22794 0.47108 0.0
C1745 C 0.25673 0.26186 0.47302 0.0
C1746 C 0.23755 0.28065 0.46606 0.0
C1747 C 0.23342 0.26422 0.45747 0.0
C1748 C 0.25426 0.27429 0.48262 0.0
C1749 C 0.28711 0.27924 0.48764 0.0
C1750 C 0.2195 0.2772 0.48707 0.0
C1751 C 0.18384 0.27065 0.48227 0.0
C1752 C 0.15745 0.29932 0.48162 0.0
C1753 C 0.12385 0.29331 0.47705 0.0
C1754 C 0.11629 0.25865 0.47316 0.0
C1755 C 0.14224 0.22985 0.47387 0.0
C1756 C 0.17583 0.2357 0.47844 0.0
C1757 C 0.21272 0.29436 0.52546 0.0
C1758 C 0.22821 0.26291 0.52972 0.0
C1759 C 0.22258 0.30358 0.51653 0.0
C1760 C 0.24792 0.28142 0.51169 0.0
C1761 C 0.26522 0.25142 0.51614 0.0
C1762 C 0.25567 0.24241 0.52512 0.0
C1763 C 0.2513 0.28532 0.50165 0.0
C1764 C 0.21847 0.28321 0.4965 0.0
C1765 C 0.2861 0.28491 0.49714 0.0
C1766 C 0.32153 0.28987 0.50221 0.0
C1767 C 0.35123 0.26495 0.50091 0.0
C1768 C 0.38446 0.2696 0.50573 0.0
C1769 C 0.38841 0.29915 0.51185 0.0
C1770 C 0.35915 0.32415 0.51316 0.0
C1771 C 0.32587 0.31964 0.50835 0.0
H1772 H 0.41415 0.30269 0.51558 0.0
H1773 H 0.09029 0.25407 0.46961 0.0
H1774 H 0.73176 0.73028 0.70984 0.0
H1775 H 0.71866 0.74682 0.72566 0.0
H1776 H 0.7981 0.8365 0.72408 0.0
H1777 H 0.81209 0.81942 0.7083 0.0
H1778 H 0.81562 0.79208 0.73717 0.0
H1779 H 0.70487 0.85385 0.72925 0.0
H1780 H 0.64524 0.86479 0.7214 0.0
H1781 H 0.59841 0.76878 0.73449 0.0
H1782 H 0.65789 0.75686 0.74231 0.0
H1783 H 0.79877 0.77111 0.78479 0.0
H1784 H 0.79037 0.80687 0.77069 0.0
H1785 H 0.71865 0.72094 0.76011 0.0
H1786 H 0.72617 0.68562 0.77413 0.0
H1787 H 0.69645 0.78903 0.75421 0.0
H1788 H 0.81297 0.71752 0.75665 0.0
H1789 H 0.87312 0.70275 0.76391 0.0
H1790 H 0.90833 0.81596 0.76047 0.0
H1791 H 0.84816 0.83143 0.75327 0.0
C1792 C 0.74574 0.75411 0.71278 0.0
C1793 C 0.77347 0.77307 0.7079 0.0
C1794 C 0.73795 0.76383 0.72182 0.0
C1795 C 0.75731 0.79305 0.72606 0.0
C1796 C 0.78287 0.81387 0.72094 0.0
C1797 C 0.79095 0.80392 0.71194 0.0
C1798 C 0.75597 0.79688 0.73613 0.0
C1799 C 0.78956 0.79283 0.74091 0.0
C1800 C 0.72202 0.79741 0.74102 0.0
C1801 C 0.68598 0.80445 0.73637 0.0
C1802 C 0.68194 0.83492 0.73042 0.0
C1803 C 0.64813 0.84132 0.72598 0.0
C1804 C 0.61806 0.81749 0.72744 0.0
C1805 C 0.62172 0.78724 0.73337 0.0
C1806 C 0.65547 0.78071 0.73783 0.0
C1807 C 0.78064 0.76022 0.77953 0.0
C1808 C 0.76381 0.72514 0.78049 0.0
C1809 C 0.77576 0.78075 0.7715 0.0
C1810 C 0.75427 0.76629 0.76432 0.0
C1811 C 0.73529 0.73265 0.76557 0.0
C1812 C 0.74001 0.71226 0.77356 0.0
C1813 C 0.75583 0.78245 0.75504 0.0
C1814 C 0.72243 0.79014 0.75045 0.0
C1815 C 0.78989 0.78503 0.75026 0.0
C1816 C 0.826 0.77573 0.75455 0.0
C1817 C 0.83349 0.73928 0.7575 0.0
C1818 C 0.86756 0.73078 0.7616 0.0
C1819 C 0.89448 0.75843 0.76268 0.0
C1820 C 0.88741 0.79461 0.75965 0.0
C1821 C 0.85334 0.80326 0.75557 0.0
H1822 H 0.92085 0.7518 0.76585 0.0
H1823 H 0.59192 0.82248 0.72399 0.0
loop_
_geom_bond_atom_site_label_1
_geom_bond_atom_site_label_2
_geom_bond_distance
_geom_bond_site_symmetry_2
_ccdc_geom_bond_type
C0 O1 1.306 . S
C0 O3 1.160 . S
O1 C0 1.306 . S
O1 Cd2 2.228 . S
Cd2 O1 2.228 . S
Cd2 O6 2.273 . S
Cd2 O10 2.277 . S
O3 C0 1.160 . S
O3 Cd4 2.203 . S
Cd4 O3 2.203 . S
Cd4 O6 2.411 . S
Cd4 O7 2.333 . S
Cd4 O8 2.352 . S
Cd4 O12 2.277 . S
Cd4 O13 2.356 . S
C5 O10 1.209 . S
C5 O12 1.226 . S
O6 Cd2 2.273 . S
O6 Cd4 2.411 . S
O6 C9 1.320 . S
O7 Cd4 2.333 . S
O7 C9 1.214 . S
O8 Cd4 2.352 . S
O8 C11 1.258 . S
C9 O6 1.320 . S
C9 O7 1.214 . S
O10 Cd2 2.277 . S
O10 C5 1.209 . S
C11 O8 1.258 . S
C11 O13 1.282 . S
O12 Cd4 2.277 . S
O12 C5 1.226 . S
O13 Cd4 2.356 . S
O13 C11 1.282 . S
C14 O15 1.306 . S
C14 O17 1.160 . S
O15 C14 1.306 . S
O15 Cd16 2.228 . S
Cd16 O15 2.228 . S
Cd16 O20 2.273 . S
Cd16 O24 2.277 . S
O17 C14 1.160 . S
O17 Cd18 2.203 . S
Cd18 O17 2.203 . S
Cd18 O20 2.411 . S
Cd18 O21 2.333 . S
Cd18 O22 2.352 . S
Cd18 O26 2.277 . S
Cd18 O27 2.356 . S
C19 O24 1.209 . S
C19 O26 1.226 . S
O20 Cd16 2.273 . S
O20 Cd18 2.411 . S
O20 C23 1.320 . S
O21 Cd18 2.333 . S
O21 C23 1.214 . S
O22 Cd18 2.352 . S
O22 C25 1.258 . S
C23 O20 1.320 . S
C23 O21 1.214 . S
O24 Cd16 2.277 . S
O24 C19 1.209 . S
C25 O22 1.258 . S
C25 O27 1.282 . S
O26 Cd18 2.277 . S
O26 C19 1.226 . S
O27 Cd18 2.356 . S
O27 C25 1.282 . S
C28 O29 1.306 . S
C28 O31 1.160 . S
O29 C28 1.306 . S
O29 Cd30 2.228 . S
Cd30 O29 2.228 . S
Cd30 O34 2.273 . S
Cd30 O38 2.277 . S
O31 C28 1.160 . S
O31 Cd32 2.203 . S
Cd32 O31 2.203 . S
Cd32 O34 2.411 . S
Cd32 O35 2.333 . S
Cd32 O36 2.352 . S
Cd32 O40 2.277 . S
Cd32 O41 2.356 . S
C33 O38 1.209 . S
C33 O40 1.226 . S
O34 Cd30 2.273 . S
O34 Cd32 2.411 . S
O34 C37 1.320 . S
O35 Cd32 2.333 . S
O35 C37 1.214 . S
O36 Cd32 2.352 . S
O36 C39 1.258 . S
C37 O34 1.320 . S
C37 O35 1.214 . S
O38 Cd30 2.277 . S
O38 C33 1.209 . S
C39 O36 1.258 . S
C39 O41 1.282 . S
O40 Cd32 2.277 . S
O40 C33 1.226 . S
O41 Cd32 2.356 . S
O41 C39 1.282 . S
C42 O43 1.306 . S
C42 O45 1.160 . S
O43 C42 1.306 . S
O43 Cd44 2.228 . S
Cd44 O43 2.228 . S
Cd44 O48 2.273 . S
Cd44 O52 2.277 . S
O45 C42 1.160 . S
O45 Cd46 2.203 . S
Cd46 O45 2.203 . S
Cd46 O48 2.411 . S
Cd46 O49 2.333 . S
Cd46 O50 2.352 . S
Cd46 O54 2.277 . S
Cd46 O55 2.356 . S
C47 O52 1.209 . S
C47 O54 1.226 . S
O48 Cd44 2.273 . S
O48 Cd46 2.411 . S
O48 C51 1.320 . S
O49 Cd46 2.333 . S
O49 C51 1.214 . S
O50 Cd46 2.352 . S
O50 C53 1.258 . S
C51 O48 1.320 . S
C51 O49 1.214 . S
O52 Cd44 2.277 . S
O52 C47 1.209 . S
C53 O50 1.258 . S
C53 O55 1.282 . S
O54 Cd46 2.277 . S
O54 C47 1.226 . S
O55 Cd46 2.356 . S
O55 C53 1.282 . S
C56 O57 1.306 . S
C56 O59 1.160 . S
O57 C56 1.306 . S
O57 Cd58 2.228 . S
Cd58 O57 2.228 . S
Cd58 O62 2.273 . S
Cd58 O66 2.277 . S
O59 C56 1.160 . S
O59 Cd60 2.203 . S
Cd60 O59 2.203 . S
Cd60 O62 2.411 . S
Cd60 O63 2.333 . S
Cd60 O64 2.352 . S
Cd60 O68 2.277 . S
Cd60 O69 2.356 . S
C61 O66 1.209 . S
C61 O68 1.226 . S
O62 Cd58 2.273 . S
O62 Cd60 2.411 . S
O62 C65 1.320 . S
O63 Cd60 2.333 . S
O63 C65 1.214 . S
O64 Cd60 2.352 . S
O64 C67 1.258 . S
C65 O62 1.320 . S
C65 O63 1.214 . S
O66 Cd58 2.277 . S
O66 C61 1.209 . S
C67 O64 1.258 . S
C67 O69 1.282 . S
O68 Cd60 2.277 . S
O68 C61 1.226 . S
O69 Cd60 2.356 . S
O69 C67 1.282 . S
C70 O71 1.306 . S
C70 O73 1.160 . S
O71 C70 1.306 . S
O71 Cd72 2.228 . S
Cd72 O71 2.228 . S
Cd72 O76 2.273 . S
Cd72 O80 2.277 . S
O73 C70 1.160 . S
O73 Cd74 2.203 . S
Cd74 O73 2.203 . S
Cd74 O76 2.411 . S
Cd74 O77 2.333 . S
Cd74 O78 2.352 . S
Cd74 O82 2.277 . S
Cd74 O83 2.356 . S
C75 O80 1.209 . S
C75 O82 1.226 . S
O76 Cd72 2.273 . S
O76 Cd74 2.411 . S
O76 C79 1.320 . S
O77 Cd74 2.333 . S
O77 C79 1.214 . S
O78 Cd74 2.352 . S
O78 C81 1.258 . S
C79 O76 1.320 . S
C79 O77 1.214 . S
O80 Cd72 2.277 . S
O80 C75 1.209 . S
C81 O78 1.258 . S
C81 O83 1.282 . S
O82 Cd74 2.277 . S
O82 C75 1.226 . S
O83 Cd74 2.356 . S
O83 C81 1.282 . S
C84 O85 1.306 . S
C84 O87 1.160 . S
O85 C84 1.306 . S
O85 Cd86 2.228 . S
Cd86 O85 2.228 . S
Cd86 O90 2.273 . S
Cd86 O94 2.277 . S
O87 C84 1.160 . S
O87 Cd88 2.203 . S
Cd88 O87 2.203 . S
Cd88 O90 2.411 . S
Cd88 O91 2.333 . S
Cd88 O92 2.352 . S
Cd88 O96 2.277 . S
Cd88 O97 2.356 . S
C89 O94 1.209 . S
C89 O96 1.226 . S
O90 Cd86 2.273 . S
O90 Cd88 2.411 . S
O90 C93 1.320 . S
O91 Cd88 2.333 . S
O91 C93 1.214 . S
O92 Cd88 2.352 . S
O92 C95 1.258 . S
C93 O90 1.320 . S
C93 O91 1.214 . S
O94 Cd86 2.277 . S
O94 C89 1.209 . S
C95 O92 1.258 . S
C95 O97 1.282 . S
O96 Cd88 2.277 . S
O96 C89 1.226 . S
O97 Cd88 2.356 . S
O97 C95 1.282 . S
C98 O99 1.306 . S
C98 O101 1.160 . S
O99 C98 1.306 . S
O99 Cd100 2.228 . S
Cd100 O99 2.228 . S
Cd100 O104 2.273 . S
Cd100 O108 2.277 . S
O101 C98 1.160 . S
O101 Cd102 2.203 . S
Cd102 O101 2.203 . S
Cd102 O104 2.411 . S
Cd102 O105 2.333 . S
Cd102 O106 2.352 . S
Cd102 O110 2.277 . S
Cd102 O111 2.356 . S
C103 O108 1.209 . S
C103 O110 1.226 . S
O104 Cd100 2.273 . S
O104 Cd102 2.411 . S
O104 C107 1.320 . S
O105 Cd102 2.333 . S
O105 C107 1.214 . S
O106 Cd102 2.352 . S
O106 C109 1.258 . S
C107 O104 1.320 . S
C107 O105 1.214 . S
O108 Cd100 2.277 . S
O108 C103 1.209 . S
C109 O106 1.258 . S
C109 O111 1.282 . S
O110 Cd102 2.277 . S
O110 C103 1.226 . S
O111 Cd102 2.356 . S
O111 C109 1.282 . S
C112 O113 1.306 . S
C112 O115 1.160 . S
O113 C112 1.306 . S
O113 Cd114 2.228 . S
Cd114 O113 2.228 . S
Cd114 O118 2.273 . S
Cd114 O122 2.277 . S
O115 C112 1.160 . S
O115 Cd116 2.203 . S
Cd116 O115 2.203 . S
Cd116 O118 2.411 . S
Cd116 O119 2.333 . S
Cd116 O120 2.352 . S
Cd116 O124 2.277 . S
Cd116 O125 2.356 . S
C117 O122 1.209 . S
C117 O124 1.226 . S
O118 Cd114 2.273 . S
O118 Cd116 2.411 . S
O118 C121 1.320 . S
O119 Cd116 2.333 . S
O119 C121 1.214 . S
O120 Cd116 2.352 . S
O120 C123 1.258 . S
C121 O118 1.320 . S
C121 O119 1.214 . S
O122 Cd114 2.277 . S
O122 C117 1.209 . S
C123 O120 1.258 . S
C123 O125 1.282 . S
O124 Cd116 2.277 . S
O124 C117 1.226 . S
O125 Cd116 2.356 . S
O125 C123 1.282 . S
C126 O127 1.306 . S
C126 O129 1.160 . S
O127 C126 1.306 . S
O127 Cd128 2.228 . S
Cd128 O127 2.228 . S
Cd128 O132 2.273 . S
Cd128 O136 2.277 . S
O129 C126 1.160 . S
O129 Cd130 2.203 . S
Cd130 O129 2.203 . S
Cd130 O132 2.411 . S
Cd130 O133 2.333 . S
Cd130 O134 2.352 . S
Cd130 O138 2.277 . S
Cd130 O139 2.356 . S
C131 O136 1.209 . S
C131 O138 1.226 . S
O132 Cd128 2.273 . S
O132 Cd130 2.411 . S
O132 C135 1.320 . S
O133 Cd130 2.333 . S
O133 C135 1.214 . S
O134 Cd130 2.352 . S
O134 C137 1.258 . S
C135 O132 1.320 . S
C135 O133 1.214 . S
O136 Cd128 2.277 . S
O136 C131 1.209 . S
C137 O134 1.258 . S
C137 O139 1.282 . S
O138 Cd130 2.277 . S
O138 C131 1.226 . S
O139 Cd130 2.356 . S
O139 C137 1.282 . S
C140 O141 1.306 . S
C140 O143 1.160 . S
O141 C140 1.306 . S
O141 Cd142 2.228 . S
Cd142 O141 2.228 . S
Cd142 O146 2.273 . S
Cd142 O150 2.277 . S
O143 C140 1.160 . S
O143 Cd144 2.203 . S
Cd144 O143 2.203 . S
Cd144 O146 2.411 . S
Cd144 O147 2.333 . S
Cd144 O148 2.352 . S
Cd144 O152 2.277 . S
Cd144 O153 2.356 . S
C145 O150 1.209 . S
C145 O152 1.226 . S
O146 Cd142 2.273 . S
O146 Cd144 2.411 . S
O146 C149 1.320 . S
O147 Cd144 2.333 . S
O147 C149 1.214 . S
O148 Cd144 2.352 . S
O148 C151 1.258 . S
C149 O146 1.320 . S
C149 O147 1.214 . S
O150 Cd142 2.277 . S
O150 C145 1.209 . S
C151 O148 1.258 . S
C151 O153 1.282 . S
O152 Cd144 2.277 . S
O152 C145 1.226 . S
O153 Cd144 2.356 . S
O153 C151 1.282 . S
C154 O155 1.306 . S
C154 O157 1.160 . S
O155 C154 1.306 . S
O155 Cd156 2.228 . S
Cd156 O155 2.228 . S
Cd156 O160 2.273 . S
Cd156 O164 2.277 . S
O157 C154 1.160 . S
O157 Cd158 2.203 . S
Cd158 O157 2.203 . S
Cd158 O160 2.411 . S
Cd158 O161 2.333 . S
Cd158 O162 2.352 . S
Cd158 O166 2.277 . S
Cd158 O167 2.356 . S
C159 O164 1.209 . S
C159 O166 1.226 . S
O160 Cd156 2.273 . S
O160 Cd158 2.411 . S
O160 C163 1.320 . S
O161 Cd158 2.333 . S
O161 C163 1.214 . S
O162 Cd158 2.352 . S
O162 C165 1.258 . S
C163 O160 1.320 . S
C163 O161 1.214 . S
O164 Cd156 2.277 . S
O164 C159 1.209 . S
C165 O162 1.258 . S
C165 O167 1.282 . S
O166 Cd158 2.277 . S
O166 C159 1.226 . S
O167 Cd158 2.356 . S
O167 C165 1.282 . S
C168 O169 1.306 . S
C168 O171 1.160 . S
O169 C168 1.306 . S
O169 Cd170 2.228 . S
Cd170 O169 2.228 . S
Cd170 O174 2.273 . S
Cd170 O178 2.277 . S
O171 C168 1.160 . S
O171 Cd172 2.203 . S
Cd172 O171 2.203 . S
Cd172 O174 2.411 . S
Cd172 O175 2.333 . S
Cd172 O176 2.352 . S
Cd172 O180 2.277 . S
Cd172 O181 2.356 . S
C173 O178 1.209 . S
C173 O180 1.226 . S
O174 Cd170 2.273 . S
O174 Cd172 2.411 . S
O174 C177 1.320 . S
O175 Cd172 2.333 . S
O175 C177 1.214 . S
O176 Cd172 2.352 . S
O176 C179 1.258 . S
C177 O174 1.320 . S
C177 O175 1.214 . S
O178 Cd170 2.277 . S
O178 C173 1.209 . S
C179 O176 1.258 . S
C179 O181 1.282 . S
O180 Cd172 2.277 . S
O180 C173 1.226 . S
O181 Cd172 2.356 . S
O181 C179 1.282 . S
C182 O183 1.306 . S
C182 O185 1.160 . S
O183 C182 1.306 . S
O183 Cd184 2.228 . S
Cd184 O183 2.228 . S
Cd184 O188 2.273 . S
Cd184 O192 2.277 . S
O185 C182 1.160 . S
O185 Cd186 2.203 . S
Cd186 O185 2.203 . S
Cd186 O188 2.411 . S
Cd186 O189 2.333 . S
Cd186 O190 2.352 . S
Cd186 O194 2.277 . S
Cd186 O195 2.356 . S
C187 O192 1.209 . S
C187 O194 1.226 . S
O188 Cd184 2.273 . S
O188 Cd186 2.411 . S
O188 C191 1.320 . S
O189 Cd186 2.333 . S
O189 C191 1.214 . S
O190 Cd186 2.352 . S
O190 C193 1.258 . S
C191 O188 1.320 . S
C191 O189 1.214 . S
O192 Cd184 2.277 . S
O192 C187 1.209 . S
C193 O190 1.258 . S
C193 O195 1.282 . S
O194 Cd186 2.277 . S
O194 C187 1.226 . S
O195 Cd186 2.356 . S
O195 C193 1.282 . S
C196 O197 1.306 . S
C196 O199 1.160 . S
O197 C196 1.306 . S
O197 Cd198 2.228 . S
Cd198 O197 2.228 . S
Cd198 O202 2.273 . S
Cd198 O206 2.277 . S
O199 C196 1.160 . S
O199 Cd200 2.203 . S
Cd200 O199 2.203 . S
Cd200 O202 2.411 . S
Cd200 O203 2.333 . S
Cd200 O204 2.352 . S
Cd200 O208 2.277 . S
Cd200 O209 2.356 . S
C201 O206 1.209 . S
C201 O208 1.226 . S
O202 Cd198 2.273 . S
O202 Cd200 2.411 . S
O202 C205 1.320 . S
O203 Cd200 2.333 . S
O203 C205 1.214 . S
O204 Cd200 2.352 . S
O204 C207 1.258 . S
C205 O202 1.320 . S
C205 O203 1.214 . S
O206 Cd198 2.277 . S
O206 C201 1.209 . S
C207 O204 1.258 . S
C207 O209 1.282 . S
O208 Cd200 2.277 . S
O208 C201 1.226 . S
O209 Cd200 2.356 . S
O209 C207 1.282 . S
C210 O211 1.306 . S
C210 O213 1.160 . S
O211 C210 1.306 . S
O211 Cd212 2.228 . S
Cd212 O211 2.228 . S
Cd212 O216 2.273 . S
Cd212 O220 2.277 . S
O213 C210 1.160 . S
O213 Cd214 2.203 . S
Cd214 O213 2.203 . S
Cd214 O216 2.411 . S
Cd214 O217 2.333 . S
Cd214 O218 2.352 . S
Cd214 O222 2.277 . S
Cd214 O223 2.356 . S
C215 O220 1.209 . S
C215 O222 1.226 . S
O216 Cd212 2.273 . S
O216 Cd214 2.411 . S
O216 C219 1.320 . S
O217 Cd214 2.333 . S
O217 C219 1.214 . S
O218 Cd214 2.352 . S
O218 C221 1.258 . S
C219 O216 1.320 . S
C219 O217 1.214 . S
O220 Cd212 2.277 . S
O220 C215 1.209 . S
C221 O218 1.258 . S
C221 O223 1.282 . S
O222 Cd214 2.277 . S
O222 C215 1.226 . S
O223 Cd214 2.356 . S
O223 C221 1.282 . S
H224 C242 0.951 . S
H225 C244 0.951 . S
H226 C246 0.950 . S
H227 C247 0.950 . S
H228 C249 0.950 . S
H229 C252 0.950 . S
H230 C253 0.950 . S
H231 C255 0.950 . S
H232 C256 0.950 1_565 S
H233 C257 0.951 . S
H234 C259 0.951 . S
H235 C261 0.950 . S
H236 C262 0.950 . S
H237 C264 0.950 . S
H238 C267 0.950 . S
H239 C268 0.950 . S
H240 C270 0.950 . S
H241 C271 0.950 1_545 S
C242 H224 0.951 . S
C242 C243 1.366 . S
C242 C244 1.388 . S
C243 C242 1.366 . S
C243 C247 1.385 . S
C244 H225 0.951 . S
C244 C242 1.388 . S
C244 C245 1.366 . S
C245 C244 1.366 . S
C245 C246 1.414 . S
C245 C248 1.499 . S
C246 H226 0.950 . S
C246 C245 1.414 . S
C246 C247 1.374 . S
C247 H227 0.950 . S
C247 C243 1.385 . S
C247 C246 1.374 . S
C248 C245 1.499 . S
C248 C249 1.373 . S
C248 C250 1.389 1_565 S
C249 H228 0.950 . S
C249 C248 1.373 . S
C249 C265 1.377 1_655 S
C250 C248 1.389 1_545 S
C250 C251 1.524 . S
C250 C264 1.377 1_655 S
C251 C250 1.524 . S
C251 C252 1.397 . S
C251 C256 1.363 . S
C252 H229 0.950 . S
C252 C251 1.397 . S
C252 C253 1.334 . S
C253 H230 0.950 . S
C253 C252 1.334 . S
C253 C254 1.287 . S
C254 C253 1.287 . S
C254 C255 1.524 . S
C254 H273 0.913 . S
C255 H231 0.950 . S
C255 C254 1.524 . S
C255 C256 1.415 . S
C256 H232 0.950 1_545 S
C256 C251 1.363 . S
C256 C255 1.415 . S
C257 H233 0.951 . S
C257 C258 1.366 . S
C257 C259 1.388 . S
C258 C257 1.366 . S
C258 C262 1.385 . S
C259 H234 0.951 . S
C259 C257 1.388 . S
C259 C260 1.366 . S
C260 C259 1.366 . S
C260 C261 1.414 . S
C260 C263 1.499 . S
C261 H235 0.950 . S
C261 C260 1.414 . S
C261 C262 1.374 . S
C262 H236 0.950 . S
C262 C258 1.385 . S
C262 C261 1.374 . S
C263 C260 1.499 . S
C263 C264 1.373 . S
C263 C265 1.389 1_545 S
C264 H237 0.950 . S
C264 C250 1.377 1_455 S
C264 C263 1.373 . S
C265 C249 1.377 1_455 S
C265 C263 1.389 1_565 S
C265 C266 1.524 . S
C266 C265 1.524 . S
C266 C267 1.397 . S
C266 C271 1.363 . S
C267 H238 0.950 . S
C267 C266 1.397 . S
C267 C268 1.334 . S
C268 H239 0.950 . S
C268 C267 1.334 . S
C268 C269 1.287 . S
C269 C268 1.287 . S
C269 C270 1.524 . S
C269 H272 0.999 . S
C270 H240 0.950 . S
C270 C269 1.524 . S
C270 C271 1.415 . S
C271 H241 0.950 1_565 S
C271 C266 1.363 . S
C271 C270 1.415 . S
H272 C269 0.999 . S
H273 C254 0.913 . S
H274 C292 0.951 . S
H275 C294 0.951 1_455 S
H276 C296 0.950 . S
H277 C297 0.950 . S
H278 C299 0.950 . S
H279 C302 0.950 1_655 S
H280 C303 0.950 . S
H281 C305 0.950 . S
H282 C306 0.950 . S
H283 C307 0.951 . S
H284 C309 0.951 1_655 S
H285 C311 0.950 . S
H286 C312 0.950 . S
H287 C314 0.950 . S
H288 C317 0.950 1_455 S
H289 C318 0.950 . S
H290 C320 0.950 . S
H291 C321 0.950 . S
C292 H274 0.951 . S
C292 C293 1.366 . S
C292 C294 1.388 . S
C293 C292 1.366 . S
C293 C297 1.385 . S
C294 H275 0.951 1_655 S
C294 C292 1.388 . S
C294 C295 1.366 . S
C295 C294 1.366 . S
C295 C296 1.414 . S
C295 C298 1.499 . S
C296 H276 0.950 . S
C296 C295 1.414 . S
C296 C297 1.374 . S
C297 H277 0.950 . S
C297 C293 1.385 . S
C297 C296 1.374 . S
C298 C295 1.499 . S
C298 C299 1.373 . S
C298 C300 1.389 1_655 S
C299 H278 0.950 . S
C299 C298 1.373 . S
C299 C315 1.377 . S
C300 C298 1.389 1_455 S
C300 C301 1.524 . S
C300 C314 1.377 . S
C301 C300 1.524 . S
C301 C302 1.397 . S
C301 C306 1.363 . S
C302 H279 0.950 1_455 S
C302 C301 1.397 . S
C302 C303 1.334 . S
C303 H280 0.950 . S
C303 C302 1.334 . S
C303 C304 1.287 . S
C304 C303 1.287 . S
C304 C305 1.524 . S
C304 H323 0.913 . S
C305 H281 0.950 . S
C305 C304 1.524 . S
C305 C306 1.415 . S
C306 H282 0.950 . S
C306 C301 1.363 . S
C306 C305 1.415 . S
C307 H283 0.951 . S
C307 C308 1.366 . S
C307 C309 1.388 . S
C308 C307 1.366 . S
C308 C312 1.385 . S
C309 H284 0.951 1_455 S
C309 C307 1.388 . S
C309 C310 1.366 . S
C310 C309 1.366 . S
C310 C311 1.414 . S
C310 C313 1.499 . S
C311 H285 0.950 . S
C311 C310 1.414 . S
C311 C312 1.374 . S
C312 H286 0.950 . S
C312 C308 1.385 . S
C312 C311 1.374 . S
C313 C310 1.499 . S
C313 C314 1.373 . S
C313 C315 1.389 1_455 S
C314 H287 0.950 . S
C314 C300 1.377 . S
C314 C313 1.373 . S
C315 C299 1.377 . S
C315 C313 1.389 1_655 S
C315 C316 1.524 . S
C316 C315 1.524 . S
C316 C317 1.397 . S
C316 C321 1.363 . S
C317 H288 0.950 1_655 S
C317 C316 1.397 . S
C317 C318 1.334 . S
C318 H289 0.950 . S
C318 C317 1.334 . S
C318 C319 1.287 . S
C319 C318 1.287 . S
C319 C320 1.524 . S
C319 H322 0.999 . S
C320 H290 0.950 . S
C320 C319 1.524 . S
C320 C321 1.415 . S
C321 H291 0.950 . S
C321 C316 1.363 . S
C321 C320 1.415 . S
H322 C319 0.999 . S
H323 C304 0.913 . S
H324 C342 0.951 . S
H325 C344 0.951 . S
H326 C346 0.950 . S
H327 C347 0.950 . S
H328 C349 0.950 . S
H329 C352 0.950 . S
H330 C353 0.950 . S
H331 C355 0.950 . S
H332 C356 0.950 . S
H333 C357 0.951 . S
H334 C359 0.951 . S
H335 C361 0.950 . S
H336 C362 0.950 . S
H337 C364 0.950 . S
H338 C367 0.950 . S
H339 C368 0.950 . S
H340 C370 0.950 . S
H341 C371 0.950 . S
C342 H324 0.951 . S
C342 C343 1.366 . S
C342 C344 1.388 . S
C343 C342 1.366 . S
C343 C347 1.385 . S
C344 H325 0.951 . S
C344 C342 1.388 . S
C344 C345 1.366 . S
C345 C344 1.366 . S
C345 C346 1.414 . S
C345 C348 1.499 . S
C346 H326 0.950 . S
C346 C345 1.414 . S
C346 C347 1.374 . S
C347 H327 0.950 . S
C347 C343 1.385 . S
C347 C346 1.374 . S
C348 C345 1.499 . S
C348 C349 1.373 . S
C348 C350 1.389 . S
C349 H328 0.950 . S
C349 C348 1.373 . S
C349 C365 1.377 . S
C350 C348 1.389 . S
C350 C351 1.524 . S
C350 C364 1.377 . S
C351 C350 1.524 . S
C351 C352 1.397 . S
C351 C356 1.363 . S
C352 H329 0.950 . S
C352 C351 1.397 . S
C352 C353 1.334 . S
C353 H330 0.950 . S
C353 C352 1.334 . S
C353 C354 1.287 . S
C354 C353 1.287 . S
C354 C355 1.524 . S
C354 H373 0.913 . S
C355 H331 0.950 . S
C355 C354 1.524 . S
C355 C356 1.415 . S
C356 H332 0.950 . S
C356 C351 1.363 . S
C356 C355 1.415 . S
C357 H333 0.951 . S
C357 C358 1.366 . S
C357 C359 1.388 . S
C358 C357 1.366 . S
C358 C362 1.385 . S
C359 H334 0.951 . S
C359 C357 1.388 . S
C359 C360 1.366 . S
C360 C359 1.366 . S
C360 C361 1.414 . S
C360 C363 1.499 . S
C361 H335 0.950 . S
C361 C360 1.414 . S
C361 C362 1.374 . S
C362 H336 0.950 . S
C362 C358 1.385 . S
C362 C361 1.374 . S
C363 C360 1.499 . S
C363 C364 1.373 . S
C363 C365 1.389 . S
C364 H337 0.950 . S
C364 C350 1.377 . S
C364 C363 1.373 . S
C365 C349 1.377 . S
C365 C363 1.389 . S
C365 C366 1.524 . S
C366 C365 1.524 . S
C366 C367 1.397 . S
C366 C371 1.363 . S
C367 H338 0.950 . S
C367 C366 1.397 . S
C367 C368 1.334 . S
C368 H339 0.950 . S
C368 C367 1.334 . S
C368 C369 1.287 . S
C369 C368 1.287 . S
C369 C370 1.524 . S
C369 H372 0.999 . S
C370 H340 0.950 . S
C370 C369 1.524 . S
C370 C371 1.415 . S
C371 H341 0.950 . S
C371 C366 1.363 . S
C371 C370 1.415 . S
H372 C369 0.999 . S
H373 C354 0.913 . S
H374 C392 0.951 . S
H375 C394 0.951 . S
H376 C396 0.950 . S
H377 C397 0.950 . S
H378 C399 0.950 . S
H379 C402 0.950 . S
H380 C403 0.950 . S
H381 C405 0.950 1_565 S
H382 C406 0.950 . S
H383 C407 0.951 . S
H384 C409 0.951 . S
H385 C411 0.950 . S
H386 C412 0.950 . S
H387 C414 0.950 . S
H388 C417 0.950 . S
H389 C418 0.950 . S
H390 C420 0.950 1_545 S
H391 C421 0.950 . S
C392 H374 0.951 . S
C392 C393 1.366 . S
C392 C394 1.388 . S
C393 C392 1.366 . S
C393 C397 1.385 . S
C394 H375 0.951 . S
C394 C392 1.388 . S
C394 C395 1.366 . S
C395 C394 1.366 . S
C395 C396 1.414 . S
C395 C398 1.499 . S
C396 H376 0.950 . S
C396 C395 1.414 . S
C396 C397 1.374 . S
C397 H377 0.950 . S
C397 C393 1.385 . S
C397 C396 1.374 . S
C398 C395 1.499 . S
C398 C399 1.373 . S
C398 C400 1.389 . S
C399 H378 0.950 . S
C399 C398 1.373 . S
C399 C415 1.377 1_545 S
C400 C398 1.389 . S
C400 C401 1.524 . S
C400 C414 1.377 1_545 S
C401 C400 1.524 . S
C401 C402 1.397 . S
C401 C406 1.363 1_545 S
C402 H379 0.950 . S
C402 C401 1.397 . S
C402 C403 1.334 . S
C403 H380 0.950 . S
C403 C402 1.334 . S
C403 C404 1.287 . S
C404 C403 1.287 . S
C404 C405 1.524 . S
C404 H423 0.913 . S
C405 H381 0.950 1_545 S
C405 C404 1.524 . S
C405 C406 1.415 1_545 S
C406 H382 0.950 . S
C406 C401 1.363 1_565 S
C406 C405 1.415 1_565 S
C407 H383 0.951 . S
C407 C408 1.366 . S
C407 C409 1.388 . S
C408 C407 1.366 . S
C408 C412 1.385 . S
C409 H384 0.951 . S
C409 C407 1.388 . S
C409 C410 1.366 . S
C410 C409 1.366 . S
C410 C411 1.414 . S
C410 C413 1.499 . S
C411 H385 0.950 . S
C411 C410 1.414 . S
C411 C412 1.374 . S
C412 H386 0.950 . S
C412 C408 1.385 . S
C412 C411 1.374 . S
C413 C410 1.499 . S
C413 C414 1.373 . S
C413 C415 1.389 . S
C414 H387 0.950 . S
C414 C400 1.377 1_565 S
C414 C413 1.373 . S
C415 C399 1.377 1_565 S
C415 C413 1.389 . S
C415 C416 1.524 . S
C416 C415 1.524 . S
C416 C417 1.397 . S
C416 C421 1.363 1_565 S
C417 H388 0.950 . S
C417 C416 1.397 . S
C417 C418 1.334 . S
C418 H389 0.950 . S
C418 C417 1.334 . S
C418 C419 1.287 . S
C419 C418 1.287 . S
C419 C420 1.524 . S
C419 H422 0.999 . S
C420 H390 0.950 1_565 S
C420 C419 1.524 . S
C420 C421 1.415 1_565 S
C421 H391 0.950 . S
C421 C416 1.363 1_545 S
C421 C420 1.415 1_545 S
H422 C419 0.999 . S
H423 C404 0.913 . S
H424 C442 0.951 . S
H425 C444 0.951 . S
H426 C446 0.950 . S
H427 C447 0.950 . S
H428 C449 0.950 . S
H429 C452 0.950 . S
H430 C453 0.950 . S
H431 C455 0.950 . S
H432 C456 0.950 . S
H433 C457 0.951 . S
H434 C459 0.951 . S
H435 C461 0.950 . S
H436 C462 0.950 . S
H437 C464 0.950 . S
H438 C467 0.950 . S
H439 C468 0.950 . S
H440 C470 0.950 . S
H441 C471 0.950 . S
C442 H424 0.951 . S
C442 C443 1.366 . S
C442 C444 1.388 . S
C443 C442 1.366 . S
C443 C447 1.385 . S
C444 H425 0.951 . S
C444 C442 1.388 . S
C444 C445 1.366 . S
C445 C444 1.366 . S
C445 C446 1.414 . S
C445 C448 1.499 . S
C446 H426 0.950 . S
C446 C445 1.414 . S
C446 C447 1.374 . S
C447 H427 0.950 . S
C447 C443 1.385 . S
C447 C446 1.374 . S
C448 C445 1.499 . S
C448 C449 1.373 . S
C448 C450 1.389 . S
C449 H428 0.950 . S
C449 C448 1.373 . S
C449 C465 1.377 1_455 S
C450 C448 1.389 . S
C450 C451 1.524 . S
C450 C464 1.377 1_455 S
C451 C450 1.524 . S
C451 C452 1.397 . S
C451 C456 1.363 1_455 S
C452 H429 0.950 . S
C452 C451 1.397 . S
C452 C453 1.334 . S
C453 H430 0.950 . S
C453 C452 1.334 . S
C453 C454 1.287 . S
C454 C453 1.287 . S
C454 C455 1.524 1_455 S
C454 H473 0.913 . S
C455 H431 0.950 . S
C455 C454 1.524 1_655 S
C455 C456 1.415 . S
C456 H432 0.950 . S
C456 C451 1.363 1_655 S
C456 C455 1.415 . S
C457 H433 0.951 . S
C457 C458 1.366 . S
C457 C459 1.388 . S
C458 C457 1.366 . S
C458 C462 1.385 . S
C459 H434 0.951 . S
C459 C457 1.388 . S
C459 C460 1.366 . S
C460 C459 1.366 . S
C460 C461 1.414 . S
C460 C463 1.499 . S
C461 H435 0.950 . S
C461 C460 1.414 . S
C461 C462 1.374 . S
C462 H436 0.950 . S
C462 C458 1.385 . S
C462 C461 1.374 . S
C463 C460 1.499 . S
C463 C464 1.373 . S
C463 C465 1.389 . S
C464 H437 0.950 . S
C464 C450 1.377 1_655 S
C464 C463 1.373 . S
C465 C449 1.377 1_655 S
C465 C463 1.389 . S
C465 C466 1.524 . S
C466 C465 1.524 . S
C466 C467 1.397 . S
C466 C471 1.363 1_655 S
C467 H438 0.950 . S
C467 C466 1.397 . S
C467 C468 1.334 . S
C468 H439 0.950 . S
C468 C467 1.334 . S
C468 C469 1.287 . S
C469 C468 1.287 . S
C469 C470 1.524 1_655 S
C469 H472 0.999 . S
C470 H440 0.950 . S
C470 C469 1.524 1_455 S
C470 C471 1.415 . S
C471 H441 0.950 . S
C471 C466 1.363 1_455 S
C471 C470 1.415 . S
H472 C469 0.999 . S
H473 C454 0.913 . S
H474 C492 0.951 . S
H475 C494 0.951 . S
H476 C496 0.950 . S
H477 C497 0.950 . S
H478 C499 0.950 . S
H479 C502 0.950 . S
H480 C503 0.950 . S
H481 C505 0.950 . S
H482 C506 0.950 . S
H483 C507 0.951 . S
H484 C509 0.951 . S
H485 C511 0.950 . S
H486 C512 0.950 . S
H487 C514 0.950 . S
H488 C517 0.950 . S
H489 C518 0.950 . S
H490 C520 0.950 . S
H491 C521 0.950 . S
C492 H474 0.951 . S
C492 C493 1.366 . S
C492 C494 1.388 . S
C493 C492 1.366 . S
C493 C497 1.385 . S
C494 H475 0.951 . S
C494 C492 1.388 . S
C494 C495 1.366 . S
C495 C494 1.366 . S
C495 C496 1.414 . S
C495 C498 1.499 . S
C496 H476 0.950 . S
C496 C495 1.414 . S
C496 C497 1.374 . S
C497 H477 0.950 . S
C497 C493 1.385 . S
C497 C496 1.374 . S
C498 C495 1.499 . S
C498 C499 1.373 . S
C498 C500 1.389 . S
C499 H478 0.950 . S
C499 C498 1.373 . S
C499 C515 1.377 . S
C500 C498 1.389 . S
C500 C501 1.524 . S
C500 C514 1.377 . S
C501 C500 1.524 . S
C501 C502 1.397 . S
C501 C506 1.363 . S
C502 H479 0.950 . S
C502 C501 1.397 . S
C502 C503 1.334 . S
C503 H480 0.950 . S
C503 C502 1.334 . S
C503 C504 1.287 . S
C504 C503 1.287 . S
C504 C505 1.524 . S
C504 H523 0.913 . S
C505 H481 0.950 . S
C505 C504 1.524 . S
C505 C506 1.415 . S
C506 H482 0.950 . S
C506 C501 1.363 . S
C506 C505 1.415 . S
C507 H483 0.951 . S
C507 C508 1.366 . S
C507 C509 1.388 . S
C508 C507 1.366 . S
C508 C512 1.385 . S
C509 H484 0.951 . S
C509 C507 1.388 . S
C509 C510 1.366 . S
C510 C509 1.366 . S
C510 C511 1.414 . S
C510 C513 1.499 . S
C511 H485 0.950 . S
C511 C510 1.414 . S
C511 C512 1.374 . S
C512 H486 0.950 . S
C512 C508 1.385 . S
C512 C511 1.374 . S
C513 C510 1.499 . S
C513 C514 1.373 . S
C513 C515 1.389 . S
C514 H487 0.950 . S
C514 C500 1.377 . S
C514 C513 1.373 . S
C515 C499 1.377 . S
C515 C513 1.389 . S
C515 C516 1.524 . S
C516 C515 1.524 . S
C516 C517 1.397 . S
C516 C521 1.363 . S
C517 H488 0.950 . S
C517 C516 1.397 . S
C517 C518 1.334 . S
C518 H489 0.950 . S
C518 C517 1.334 . S
C518 C519 1.287 . S
C519 C518 1.287 . S
C519 C520 1.524 . S
C519 H522 0.999 . S
C520 H490 0.950 . S
C520 C519 1.524 . S
C520 C521 1.415 . S
C521 H491 0.950 . S
C521 C516 1.363 . S
C521 C520 1.415 . S
H522 C519 0.999 . S
H523 C504 0.913 . S
H524 C542 0.951 . S
H525 C544 0.951 . S
H526 C546 0.950 . S
H527 C547 0.950 . S
H528 C549 0.950 . S
H529 C552 0.950 . S
H530 C553 0.950 . S
H531 C555 0.950 . S
H532 C556 0.950 1_565 S
H533 C557 0.951 . S
H534 C559 0.951 . S
H535 C561 0.950 . S
H536 C562 0.950 . S
H537 C564 0.950 . S
H538 C567 0.950 . S
H539 C568 0.950 . S
H540 C570 0.951 . S
H541 C571 0.950 1_545 S
C542 H524 0.951 . S
C542 C543 1.366 . S
C542 C544 1.388 . S
C543 C542 1.366 . S
C543 C547 1.385 . S
C544 H525 0.951 . S
C544 C542 1.388 . S
C544 C545 1.366 . S
C545 C544 1.366 . S
C545 C546 1.414 . S
C545 C548 1.499 . S
C546 H526 0.950 . S
C546 C545 1.414 . S
C546 C547 1.374 . S
C547 H527 0.950 . S
C547 C543 1.385 . S
C547 C546 1.374 . S
C548 C545 1.499 . S
C548 C549 1.373 . S
C548 C550 1.389 . S
C549 H528 0.950 . S
C549 C548 1.373 . S
C549 C565 1.377 1_545 S
C550 C548 1.389 . S
C550 C551 1.524 . S
C550 C564 1.377 1_545 S
C551 C550 1.524 . S
C551 C552 1.397 . S
C551 C556 1.363 . S
C552 H529 0.950 . S
C552 C551 1.397 . S
C552 C553 1.334 . S
C553 H530 0.950 . S
C553 C552 1.334 . S
C553 C554 1.287 . S
C554 C553 1.287 . S
C554 C555 1.524 . S
C554 H573 0.913 . S
C555 H531 0.950 . S
C555 C554 1.524 . S
C555 C556 1.415 . S
C556 H532 0.950 1_545 S
C556 C551 1.363 . S
C556 C555 1.415 . S
C557 H533 0.951 . S
C557 C558 1.366 . S
C557 C559 1.388 . S
C558 C557 1.366 . S
C558 C562 1.385 . S
C559 H534 0.951 . S
C559 C557 1.388 . S
C559 C560 1.366 . S
C560 C559 1.366 . S
C560 C561 1.414 . S
C560 C563 1.499 . S
C561 H535 0.950 . S
C561 C560 1.414 . S
C561 C562 1.374 . S
C562 H536 0.950 . S
C562 C558 1.385 . S
C562 C561 1.374 . S
C563 C560 1.499 . S
C563 C564 1.373 . S
C563 C565 1.389 . S
C564 H537 0.950 . S
C564 C550 1.377 1_565 S
C564 C563 1.373 . S
C565 C549 1.377 1_565 S
C565 C563 1.389 . S
C565 C566 1.524 . S
C566 C565 1.524 . S
C566 C567 1.397 . S
C566 C571 1.363 . S
C567 H538 0.950 . S
C567 C566 1.397 . S
C567 C568 1.334 . S
C568 H539 0.950 . S
C568 C567 1.334 . S
C568 C569 1.287 . S
C569 C568 1.287 . S
C569 C570 1.524 . S
C569 H572 0.999 . S
C570 H540 0.951 . S
C570 C569 1.524 . S
C570 C571 1.415 . S
C571 H541 0.950 1_565 S
C571 C566 1.363 . S
C571 C570 1.415 . S
H572 C569 0.999 . S
H573 C554 0.913 . S
H574 C592 0.951 . S
H575 C594 0.951 . S
H576 C596 0.950 . S
H577 C597 0.950 . S
H578 C599 0.950 . S
H579 C602 0.950 . S
H580 C603 0.950 . S
H581 C605 0.950 . S
H582 C606 0.950 1_655 S
H583 C607 0.951 . S
H584 C609 0.951 . S
H585 C611 0.950 . S
H586 C612 0.950 . S
H587 C614 0.950 . S
H588 C617 0.950 . S
H589 C618 0.950 . S
H590 C620 0.950 . S
H591 C621 0.950 1_455 S
C592 H574 0.951 . S
C592 C593 1.366 . S
C592 C594 1.388 . S
C593 C592 1.366 . S
C593 C597 1.385 . S
C594 H575 0.951 . S
C594 C592 1.388 . S
C594 C595 1.366 . S
C595 C594 1.366 . S
C595 C596 1.414 . S
C595 C598 1.499 . S
C596 H576 0.950 . S
C596 C595 1.414 . S
C596 C597 1.374 . S
C597 H577 0.950 . S
C597 C593 1.385 . S
C597 C596 1.374 . S
C598 C595 1.499 . S
C598 C599 1.373 . S
C598 C600 1.389 . S
C599 H578 0.950 . S
C599 C598 1.373 . S
C599 C615 1.377 1_445 S
C600 C598 1.389 . S
C600 C601 1.524 . S
C600 C614 1.377 1_445 S
C601 C600 1.524 . S
C601 C602 1.397 . S
C601 C606 1.363 . S
C602 H579 0.950 . S
C602 C601 1.397 . S
C602 C603 1.334 . S
C603 H580 0.950 . S
C603 C602 1.334 . S
C603 C604 1.287 . S
C604 C603 1.287 . S
C604 C605 1.524 . S
C604 H623 0.913 . S
C605 H581 0.950 . S
C605 C604 1.524 . S
C605 C606 1.415 . S
C606 H582 0.950 1_455 S
C606 C601 1.363 . S
C606 C605 1.415 . S
C607 H583 0.951 . S
C607 C608 1.366 . S
C607 C609 1.388 . S
C608 C607 1.366 . S
C608 C612 1.385 . S
C609 H584 0.951 . S
C609 C607 1.388 . S
C609 C610 1.366 . S
C610 C609 1.366 . S
C610 C611 1.414 . S
C610 C613 1.499 . S
C611 H585 0.950 . S
C611 C610 1.414 . S
C611 C612 1.374 . S
C612 H586 0.950 . S
C612 C608 1.385 . S
C612 C611 1.374 . S
C613 C610 1.499 . S
C613 C614 1.373 . S
C613 C615 1.389 . S
C614 H587 0.950 . S
C614 C600 1.377 1_665 S
C614 C613 1.373 . S
C615 C599 1.377 1_665 S
C615 C613 1.389 . S
C615 C616 1.524 . S
C616 C615 1.524 . S
C616 C617 1.397 . S
C616 C621 1.363 . S
C617 H588 0.950 . S
C617 C616 1.397 . S
C617 C618 1.334 . S
C618 H589 0.950 . S
C618 C617 1.334 . S
C618 C619 1.287 . S
C619 C618 1.287 . S
C619 C620 1.524 . S
C619 H622 0.999 . S
C620 H590 0.950 . S
C620 C619 1.524 . S
C620 C621 1.415 . S
C621 H591 0.950 1_655 S
C621 C616 1.363 . S
C621 C620 1.415 . S
H622 C619 0.999 . S
H623 C604 0.913 . S
H624 C642 0.951 . S
H625 C644 0.951 1_545 S
H626 C646 0.950 . S
H627 C647 0.950 . S
H628 C649 0.950 . S
H629 C652 0.948 . S
H630 C653 0.950 1_565 S
H631 C655 0.950 . S
H632 C656 0.950 . S
H633 C657 0.951 . S
H634 C659 0.951 1_565 S
H635 C661 0.950 . S
H636 C662 0.950 . S
H637 C664 0.950 . S
H638 C667 0.946 . S
H639 C668 0.950 1_545 S
H640 C670 0.950 . S
H641 C671 0.950 . S
C642 H624 0.951 . S
C642 C643 1.366 . S
C642 C644 1.388 . S
C643 C642 1.366 . S
C643 C647 1.385 . S
C644 H625 0.951 1_565 S
C644 C642 1.388 . S
C644 C645 1.366 . S
C645 C644 1.366 . S
C645 C646 1.414 . S
C645 C648 1.499 . S
C646 H626 0.950 . S
C646 C645 1.414 . S
C646 C647 1.374 . S
C647 H627 0.950 . S
C647 C643 1.385 . S
C647 C646 1.374 . S
C648 C645 1.499 . S
C648 C649 1.373 . S
C648 C650 1.389 1_565 S
C649 H628 0.950 . S
C649 C648 1.373 . S
C649 C665 1.377 . S
C650 C648 1.389 1_545 S
C650 C651 1.524 . S
C650 C664 1.377 . S
C651 C650 1.524 . S
C651 C652 1.398 1_545 S
C651 C656 1.363 . S
C652 H629 0.948 . S
C652 C651 1.398 1_565 S
C652 C653 1.334 1_565 S
C653 H630 0.950 1_545 S
C653 C652 1.334 1_545 S
C653 C654 1.287 . S
C654 C653 1.287 . S
C654 C655 1.524 . S
C654 H673 0.913 . S
C655 H631 0.950 . S
C655 C654 1.524 . S
C655 C656 1.415 . S
C656 H632 0.950 . S
C656 C651 1.363 . S
C656 C655 1.415 . S
C657 H633 0.951 . S
C657 C658 1.366 . S
C657 C659 1.388 . S
C658 C657 1.366 . S
C658 C662 1.385 . S
C659 H634 0.951 1_545 S
C659 C657 1.388 . S
C659 C660 1.366 . S
C660 C659 1.366 . S
C660 C661 1.414 . S
C660 C663 1.499 . S
C661 H635 0.950 . S
C661 C660 1.414 . S
C661 C662 1.374 . S
C662 H636 0.950 . S
C662 C658 1.385 . S
C662 C661 1.374 . S
C663 C660 1.499 . S
C663 C664 1.373 . S
C663 C665 1.389 1_545 S
C664 H637 0.950 . S
C664 C650 1.377 . S
C664 C663 1.373 . S
C665 C649 1.377 . S
C665 C663 1.389 1_565 S
C665 C666 1.524 . S
C666 C665 1.524 . S
C666 C667 1.399 1_565 S
C666 C671 1.363 . S
C667 H638 0.946 . S
C667 C666 1.399 1_545 S
C667 C668 1.335 1_545 S
C668 H639 0.950 1_565 S
C668 C667 1.335 1_565 S
C668 C669 1.287 . S
C669 C668 1.287 . S
C669 C670 1.524 . S
C669 H672 0.999 . S
C670 H640 0.950 . S
C670 C669 1.524 . S
C670 C671 1.415 . S
C671 H641 0.950 . S
C671 C666 1.363 . S
C671 C670 1.415 . S
H672 C669 0.999 . S
H673 C654 0.913 . S
H674 C692 0.951 . S
H675 C694 0.951 1_455 S
H676 C696 0.950 . S
H677 C697 0.950 . S
H678 C699 0.950 . S
H679 C702 0.950 1_655 S
H680 C703 0.950 1_655 S
H681 C705 0.950 . S
H682 C706 0.950 . S
H683 C707 0.951 . S
H684 C709 0.951 1_655 S
H685 C711 0.950 . S
H686 C712 0.950 . S
H687 C714 0.950 . S
H688 C717 0.950 1_455 S
H689 C718 0.950 1_455 S
H690 C720 0.950 . S
H691 C721 0.950 . S
C692 H674 0.951 . S
C692 C693 1.366 . S
C692 C694 1.388 . S
C693 C692 1.366 . S
C693 C697 1.385 . S
C694 H675 0.951 1_655 S
C694 C692 1.388 . S
C694 C695 1.366 . S
C695 C694 1.366 . S
C695 C696 1.414 . S
C695 C698 1.499 . S
C696 H676 0.950 . S
C696 C695 1.414 . S
C696 C697 1.374 . S
C697 H677 0.950 . S
C697 C693 1.385 . S
C697 C696 1.374 . S
C698 C695 1.499 . S
C698 C699 1.373 . S
C698 C700 1.389 1_655 S
C699 H678 0.950 . S
C699 C698 1.373 . S
C699 C715 1.377 1_565 S
C700 C698 1.389 1_455 S
C700 C701 1.524 . S
C700 C714 1.377 1_565 S
C701 C700 1.524 . S
C701 C702 1.397 . S
C701 C706 1.363 . S
C702 H679 0.950 1_455 S
C702 C701 1.397 . S
C702 C703 1.334 . S
C703 H680 0.950 1_455 S
C703 C702 1.334 . S
C703 C704 1.287 . S
C704 C703 1.287 . S
C704 C705 1.524 . S
C704 H723 0.913 . S
C705 H681 0.950 . S
C705 C704 1.524 . S
C705 C706 1.415 . S
C706 H682 0.950 . S
C706 C701 1.363 . S
C706 C705 1.415 . S
C707 H683 0.951 . S
C707 C708 1.366 . S
C707 C709 1.388 . S
C708 C707 1.366 . S
C708 C712 1.385 . S
C709 H684 0.951 1_455 S
C709 C707 1.388 . S
C709 C710 1.366 . S
C710 C709 1.366 . S
C710 C711 1.414 . S
C710 C713 1.499 . S
C711 H685 0.950 . S
C711 C710 1.414 . S
C711 C712 1.374 . S
C712 H686 0.950 . S
C712 C708 1.385 . S
C712 C711 1.374 . S
C713 C710 1.499 . S
C713 C714 1.373 . S
C713 C715 1.389 1_455 S
C714 H687 0.950 . S
C714 C700 1.377 1_545 S
C714 C713 1.373 . S
C715 C699 1.377 1_545 S
C715 C713 1.389 1_655 S
C715 C716 1.524 . S
C716 C715 1.524 . S
C716 C717 1.397 . S
C716 C721 1.363 . S
C717 H688 0.950 1_655 S
C717 C716 1.397 . S
C717 C718 1.334 . S
C718 H689 0.950 1_655 S
C718 C717 1.334 . S
C718 C719 1.287 . S
C719 C718 1.287 . S
C719 C720 1.524 . S
C719 H722 0.999 . S
C720 H690 0.950 . S
C720 C719 1.524 . S
C720 C721 1.415 . S
C721 H691 0.950 . S
C721 C716 1.363 . S
C721 C720 1.415 . S
H722 C719 0.999 . S
H723 C704 0.913 . S
H724 C742 0.951 . S
H725 C744 0.951 . S
H726 C746 0.950 . S
H727 C747 0.950 . S
H728 C749 0.950 . S
H729 C752 0.950 . S
H730 C753 0.950 . S
H731 C755 0.950 . S
H732 C756 0.950 . S
H733 C757 0.951 . S
H734 C759 0.951 . S
H735 C761 0.950 . S
H736 C762 0.950 . S
H737 C764 0.950 . S
H738 C767 0.950 . S
H739 C768 0.950 . S
H740 C770 0.950 . S
H741 C771 0.950 . S
C742 H724 0.951 . S
C742 C743 1.366 . S
C742 C744 1.388 . S
C743 C742 1.366 . S
C743 C747 1.385 . S
C744 H725 0.951 . S
C744 C742 1.388 . S
C744 C745 1.366 . S
C745 C744 1.366 . S
C745 C746 1.414 . S
C745 C748 1.499 . S
C746 H726 0.950 . S
C746 C745 1.414 . S
C746 C747 1.374 . S
C747 H727 0.950 . S
C747 C743 1.385 . S
C747 C746 1.374 . S
C748 C745 1.499 . S
C748 C749 1.373 . S
C748 C750 1.408 . S
C749 H728 0.950 . S
C749 C748 1.373 . S
C749 C765 1.356 1_455 S
C750 C748 1.408 . S
C750 C751 1.523 1_455 S
C750 C764 1.357 1_455 S
C751 C750 1.523 1_655 S
C751 C752 1.397 1_655 S
C751 C756 1.363 . S
C752 H729 0.950 . S
C752 C751 1.397 1_455 S
C752 C753 1.334 . S
C753 H730 0.950 . S
C753 C752 1.334 . S
C753 C754 1.287 1_455 S
C754 C753 1.287 1_655 S
C754 C755 1.524 . S
C754 H773 0.913 . S
C755 H731 0.950 . S
C755 C754 1.524 . S
C755 C756 1.415 . S
C756 H732 0.950 . S
C756 C751 1.363 . S
C756 C755 1.415 . S
C757 H733 0.951 . S
C757 C758 1.366 . S
C757 C759 1.388 . S
C758 C757 1.366 . S
C758 C762 1.385 . S
C759 H734 0.951 . S
C759 C757 1.388 . S
C759 C760 1.366 . S
C760 C759 1.366 . S
C760 C761 1.414 . S
C760 C763 1.499 . S
C761 H735 0.950 . S
C761 C760 1.414 . S
C761 C762 1.374 . S
C762 H736 0.950 . S
C762 C758 1.385 . S
C762 C761 1.374 . S
C763 C760 1.499 . S
C763 C764 1.373 . S
C763 C765 1.409 . S
C764 H737 0.950 . S
C764 C750 1.357 1_655 S
C764 C763 1.373 . S
C765 C749 1.356 1_655 S
C765 C763 1.409 . S
C765 C766 1.523 1_655 S
C766 C765 1.523 1_455 S
C766 C767 1.397 1_455 S
C766 C771 1.363 . S
C767 H738 0.950 . S
C767 C766 1.397 1_655 S
C767 C768 1.334 . S
C768 H739 0.950 . S
C768 C767 1.334 . S
C768 C769 1.287 1_655 S
C769 C768 1.287 1_455 S
C769 C770 1.524 . S
C769 H772 0.999 . S
C770 H740 0.950 . S
C770 C769 1.524 . S
C770 C771 1.415 . S
C771 H741 0.950 . S
C771 C766 1.363 . S
C771 C770 1.415 . S
H772 C769 0.999 . S
H773 C754 0.913 . S
H774 C792 0.951 . S
H775 C794 0.951 . S
H776 C796 0.950 . S
H777 C797 0.950 . S
H778 C799 0.950 . S
H779 C802 0.950 . S
H780 C803 0.950 . S
H781 C805 0.950 . S
H782 C806 0.950 . S
H783 C807 0.951 . S
H784 C809 0.951 . S
H785 C811 0.950 . S
H786 C812 0.950 . S
H787 C814 0.950 . S
H788 C817 0.950 . S
H789 C818 0.950 . S
H790 C820 0.950 . S
H791 C821 0.950 . S
C792 H774 0.951 . S
C792 C793 1.366 . S
C792 C794 1.388 . S
C793 C792 1.366 . S
C793 C797 1.385 . S
C794 H775 0.951 . S
C794 C792 1.388 . S
C794 C795 1.366 . S
C795 C794 1.366 . S
C795 C796 1.414 . S
C795 C798 1.499 . S
C796 H776 0.950 . S
C796 C795 1.414 . S
C796 C797 1.374 . S
C797 H777 0.950 . S
C797 C793 1.385 . S
C797 C796 1.374 . S
C798 C795 1.499 . S
C798 C799 1.373 . S
C798 C800 1.389 . S
C799 H778 0.950 . S
C799 C798 1.373 . S
C799 C815 1.377 . S
C800 C798 1.389 . S
C800 C801 1.524 . S
C800 C814 1.377 . S
C801 C800 1.524 . S
C801 C802 1.397 . S
C801 C806 1.363 . S
C802 H779 0.950 . S
C802 C801 1.397 . S
C802 C803 1.334 . S
C803 H780 0.950 . S
C803 C802 1.334 . S
C803 C804 1.287 . S
C804 C803 1.287 . S
C804 C805 1.524 . S
C804 H823 0.913 . S
C805 H781 0.950 . S
C805 C804 1.524 . S
C805 C806 1.415 . S
C806 H782 0.950 . S
C806 C801 1.363 . S
C806 C805 1.415 . S
C807 H783 0.951 . S
C807 C808 1.366 . S
C807 C809 1.388 . S
C808 C807 1.366 . S
C808 C812 1.385 . S
C809 H784 0.951 . S
C809 C807 1.388 . S
C809 C810 1.366 . S
C810 C809 1.366 . S
C810 C811 1.414 . S
C810 C813 1.499 . S
C811 H785 0.950 . S
C811 C810 1.414 . S
C811 C812 1.374 . S
C812 H786 0.950 . S
C812 C808 1.385 . S
C812 C811 1.374 . S
C813 C810 1.499 . S
C813 C814 1.373 . S
C813 C815 1.389 . S
C814 H787 0.950 . S
C814 C800 1.377 . S
C814 C813 1.373 . S
C815 C799 1.377 . S
C815 C813 1.389 . S
C815 C816 1.524 . S
C816 C815 1.524 . S
C816 C817 1.397 . S
C816 C821 1.363 . S
C817 H788 0.950 . S
C817 C816 1.397 . S
C817 C818 1.334 . S
C818 H789 0.950 . S
C818 C817 1.334 . S
C818 C819 1.287 . S
C819 C818 1.287 . S
C819 C820 1.524 . S
C819 H822 0.999 . S
C820 H790 0.950 . S
C820 C819 1.524 . S
C820 C821 1.415 . S
C821 H791 0.950 . S
C821 C816 1.363 . S
C821 C820 1.415 . S
H822 C819 0.999 . S
H823 C804 0.913 . S
H824 C842 0.951 . S
H825 C844 0.951 . S
H826 C846 0.950 . S
H827 C847 0.950 . S
H828 C849 0.950 . S
H829 C852 0.950 . S
H830 C853 0.950 . S
H831 C855 0.950 . S
H832 C856 0.950 . S
H833 C857 0.951 . S
H834 C859 0.951 . S
H835 C861 0.950 . S
H836 C862 0.950 . S
H837 C864 0.950 . S
H838 C867 0.950 . S
H839 C868 0.950 . S
H840 C870 0.950 . S
H841 C871 0.950 . S
C842 H824 0.951 . S
C842 C843 1.366 . S
C842 C844 1.388 . S
C843 C842 1.366 . S
C843 C847 1.385 . S
C844 H825 0.951 . S
C844 C842 1.388 . S
C844 C845 1.366 . S
C845 C844 1.366 . S
C845 C846 1.414 . S
C845 C848 1.499 . S
C846 H826 0.950 . S
C846 C845 1.414 . S
C846 C847 1.374 . S
C847 H827 0.950 . S
C847 C843 1.385 . S
C847 C846 1.374 . S
C848 C845 1.499 . S
C848 C849 1.373 . S
C848 C850 1.389 . S
C849 H828 0.950 . S
C849 C848 1.373 . S
C849 C865 1.377 . S
C850 C848 1.389 . S
C850 C851 1.524 . S
C850 C864 1.377 . S
C851 C850 1.524 . S
C851 C852 1.397 . S
C851 C856 1.363 . S
C852 H829 0.950 . S
C852 C851 1.397 . S
C852 C853 1.334 . S
C853 H830 0.950 . S
C853 C852 1.334 . S
C853 C854 1.287 . S
C854 C853 1.287 . S
C854 C855 1.524 . S
C854 H873 0.913 . S
C855 H831 0.950 . S
C855 C854 1.524 . S
C855 C856 1.415 . S
C856 H832 0.950 . S
C856 C851 1.363 . S
C856 C855 1.415 . S
C857 H833 0.951 . S
C857 C858 1.366 . S
C857 C859 1.388 . S
C858 C857 1.366 . S
C858 C862 1.385 . S
C859 H834 0.951 . S
C859 C857 1.388 . S
C859 C860 1.366 . S
C860 C859 1.366 . S
C860 C861 1.414 . S
C860 C863 1.499 . S
C861 H835 0.950 . S
C861 C860 1.414 . S
C861 C862 1.374 . S
C862 H836 0.950 . S
C862 C858 1.385 . S
C862 C861 1.374 . S
C863 C860 1.499 . S
C863 C864 1.373 . S
C863 C865 1.389 . S
C864 H837 0.950 . S
C864 C850 1.377 . S
C864 C863 1.373 . S
C865 C849 1.377 . S
C865 C863 1.389 . S
C865 C866 1.524 . S
C866 C865 1.524 . S
C866 C867 1.397 . S
C866 C871 1.363 . S
C867 H838 0.950 . S
C867 C866 1.397 . S
C867 C868 1.334 . S
C868 H839 0.950 . S
C868 C867 1.334 . S
C868 C869 1.287 . S
C869 C868 1.287 . S
C869 C870 1.524 . S
C869 H872 0.999 . S
C870 H840 0.950 . S
C870 C869 1.524 . S
C870 C871 1.415 . S
C871 H841 0.950 . S
C871 C866 1.363 . S
C871 C870 1.415 . S
H872 C869 0.999 . S
H873 C854 0.913 . S
H874 C892 0.951 . S
H875 C894 0.951 . S
H876 C896 0.950 . S
H877 C897 0.950 . S
H878 C899 0.950 . S
H879 C902 0.950 . S
H880 C903 0.950 . S
H881 C905 0.951 . S
H882 C906 0.957 . S
H883 C907 0.951 . S
H884 C909 0.951 . S
H885 C911 0.950 . S
H886 C912 0.950 . S
H887 C914 0.950 . S
H888 C917 0.950 . S
H889 C918 0.950 . S
H890 C920 0.951 . S
H891 C921 0.956 . S
C892 H874 0.951 . S
C892 C893 1.366 . S
C892 C894 1.388 . S
C893 C892 1.366 . S
C893 C897 1.385 . S
C894 H875 0.951 . S
C894 C892 1.388 . S
C894 C895 1.366 . S
C895 C894 1.366 . S
C895 C896 1.414 . S
C895 C898 1.499 . S
C896 H876 0.950 . S
C896 C895 1.414 . S
C896 C897 1.374 . S
C897 H877 0.950 . S
C897 C893 1.385 . S
C897 C896 1.374 . S
C898 C895 1.499 . S
C898 C899 1.373 . S
C898 C900 1.389 . S
C899 H878 0.950 . S
C899 C898 1.373 . S
C899 C915 1.377 1_565 S
C900 C898 1.389 . S
C900 C901 1.524 . S
C900 C914 1.377 1_565 S
C901 C900 1.524 . S
C901 C902 1.397 . S
C901 C906 1.357 1_565 S
C902 H879 0.950 . S
C902 C901 1.397 . S
C902 C903 1.334 . S
C903 H880 0.950 . S
C903 C902 1.334 . S
C903 C904 1.287 . S
C904 C903 1.287 . S
C904 C905 1.522 1_565 S
C904 H923 0.913 . S
C905 H881 0.951 . S
C905 C904 1.522 1_545 S
C905 C906 1.415 . S
C906 H882 0.957 . S
C906 C901 1.357 1_545 S
C906 C905 1.415 . S
C907 H883 0.951 . S
C907 C908 1.366 . S
C907 C909 1.388 . S
C908 C907 1.366 . S
C908 C912 1.385 . S
C909 H884 0.951 . S
C909 C907 1.388 . S
C909 C910 1.366 . S
C910 C909 1.366 . S
C910 C911 1.414 . S
C910 C913 1.499 . S
C911 H885 0.950 . S
C911 C910 1.414 . S
C911 C912 1.374 . S
C912 H886 0.950 . S
C912 C908 1.385 . S
C912 C911 1.374 . S
C913 C910 1.499 . S
C913 C914 1.373 . S
C913 C915 1.389 . S
C914 H887 0.950 . S
C914 C900 1.377 1_545 S
C914 C913 1.373 . S
C915 C899 1.377 1_545 S
C915 C913 1.389 . S
C915 C916 1.524 . S
C916 C915 1.524 . S
C916 C917 1.397 . S
C916 C921 1.358 1_545 S
C917 H888 0.950 . S
C917 C916 1.397 . S
C917 C918 1.334 . S
C918 H889 0.950 . S
C918 C917 1.334 . S
C918 C919 1.287 . S
C919 C918 1.287 . S
C919 C920 1.522 1_545 S
C919 H922 0.999 . S
C920 H890 0.951 . S
C920 C919 1.522 1_565 S
C920 C921 1.415 . S
C921 H891 0.956 . S
C921 C916 1.358 1_565 S
C921 C920 1.415 . S
H922 C919 0.999 . S
H923 C904 0.913 . S
H924 C942 0.951 . S
H925 C944 0.951 . S
H926 C946 0.950 1_545 S
H927 C947 0.950 . S
H928 C949 0.950 . S
H929 C952 0.950 . S
H930 C953 0.950 . S
H931 C955 0.950 . S
H932 C956 0.950 . S
H933 C957 0.951 . S
H934 C959 0.951 . S
H935 C961 0.950 1_565 S
H936 C962 0.950 . S
H937 C964 0.950 . S
H938 C967 0.950 . S
H939 C968 0.950 . S
H940 C970 0.950 . S
H941 C971 0.950 . S
C942 H924 0.951 . S
C942 C943 1.366 . S
C942 C944 1.388 . S
C943 C942 1.366 . S
C943 C947 1.385 . S
C944 H925 0.951 . S
C944 C942 1.388 . S
C944 C945 1.366 . S
C945 C944 1.366 . S
C945 C946 1.414 . S
C945 C948 1.499 . S
C946 H926 0.950 1_565 S
C946 C945 1.414 . S
C946 C947 1.374 . S
C947 H927 0.950 . S
C947 C943 1.385 . S
C947 C946 1.374 . S
C948 C945 1.499 . S
C948 C949 1.373 1_565 S
C948 C950 1.389 . S
C949 H928 0.950 . S
C949 C948 1.373 1_545 S
C949 C965 1.377 1_655 S
C950 C948 1.389 . S
C950 C951 1.524 . S
C950 C964 1.377 1_655 S
C951 C950 1.524 . S
C951 C952 1.397 . S
C951 C956 1.363 1_655 S
C952 H929 0.950 . S
C952 C951 1.397 . S
C952 C953 1.334 . S
C953 H930 0.950 . S
C953 C952 1.334 . S
C953 C954 1.287 . S
C954 C953 1.287 . S
C954 C955 1.524 1_655 S
C954 H973 0.913 . S
C955 H931 0.950 . S
C955 C954 1.524 1_455 S
C955 C956 1.415 . S
C956 H932 0.950 . S
C956 C951 1.363 1_455 S
C956 C955 1.415 . S
C957 H933 0.951 . S
C957 C958 1.366 . S
C957 C959 1.388 . S
C958 C957 1.366 . S
C958 C962 1.385 . S
C959 H934 0.951 . S
C959 C957 1.388 . S
C959 C960 1.366 . S
C960 C959 1.366 . S
C960 C961 1.414 . S
C960 C963 1.499 . S
C961 H935 0.950 1_545 S
C961 C960 1.414 . S
C961 C962 1.374 . S
C962 H936 0.950 . S
C962 C958 1.385 . S
C962 C961 1.374 . S
C963 C960 1.499 . S
C963 C964 1.373 1_545 S
C963 C965 1.389 . S
C964 H937 0.950 . S
C964 C950 1.377 1_455 S
C964 C963 1.373 1_565 S
C965 C949 1.377 1_455 S
C965 C963 1.389 . S
C965 C966 1.524 . S
C966 C965 1.524 . S
C966 C967 1.397 . S
C966 C971 1.363 1_455 S
C967 H938 0.950 . S
C967 C966 1.397 . S
C967 C968 1.334 . S
C968 H939 0.950 . S
C968 C967 1.334 . S
C968 C969 1.287 . S
C969 C968 1.287 . S
C969 C970 1.524 1_455 S
C969 H972 0.999 . S
C970 H940 0.950 . S
C970 C969 1.524 1_655 S
C970 C971 1.415 . S
C971 H941 0.950 . S
C971 C966 1.363 1_655 S
C971 C970 1.415 . S
H972 C969 0.999 . S
H973 C954 0.913 . S
H974 C992 0.951 . S
H975 C994 0.951 . S
H976 C996 0.950 1_655 S
H977 C997 0.950 . S
H978 C999 0.950 . S
H979 C1002 0.950 . S
H980 C1003 0.950 . S
H981 C1005 0.950 . S
H982 C1006 0.950 . S
H983 C1007 0.951 . S
H984 C1009 0.951 . S
H985 C1011 0.950 1_455 S
H986 C1012 0.950 . S
H987 C1014 0.950 . S
H988 C1017 0.950 . S
H989 C1018 0.950 . S
H990 C1020 0.950 . S
H991 C1021 0.950 . S
C992 H974 0.951 . S
C992 C993 1.366 . S
C992 C994 1.388 . S
C993 C992 1.366 . S
C993 C997 1.385 . S
C994 H975 0.951 . S
C994 C992 1.388 . S
C994 C995 1.366 . S
C995 C994 1.366 . S
C995 C996 1.414 . S
C995 C998 1.499 . S
C996 H976 0.950 1_455 S
C996 C995 1.414 . S
C996 C997 1.374 . S
C997 H977 0.950 . S
C997 C993 1.385 . S
C997 C996 1.374 . S
C998 C995 1.499 . S
C998 C999 1.373 1_455 S
C998 C1000 1.389 . S
C999 H978 0.950 . S
C999 C998 1.373 1_655 S
C999 C1015 1.377 . S
C1000 C998 1.389 . S
C1000 C1001 1.524 . S
C1000 C1014 1.377 . S
C1001 C1000 1.524 . S
C1001 C1002 1.397 . S
C1001 C1006 1.363 . S
C1002 H979 0.950 . S
C1002 C1001 1.397 . S
C1002 C1003 1.334 . S
C1003 H980 0.950 . S
C1003 C1002 1.334 . S
C1003 C1004 1.287 . S
C1004 C1003 1.287 . S
C1004 C1005 1.524 . S
C1004 H1023 0.913 . S
C1005 H981 0.950 . S
C1005 C1004 1.524 . S
C1005 C1006 1.415 . S
C1006 H982 0.950 . S
C1006 C1001 1.363 . S
C1006 C1005 1.415 . S
C1007 H983 0.951 . S
C1007 C1008 1.366 . S
C1007 C1009 1.388 . S
C1008 C1007 1.366 . S
C1008 C1012 1.385 . S
C1009 H984 0.951 . S
C1009 C1007 1.388 . S
C1009 C1010 1.366 . S
C1010 C1009 1.366 . S
C1010 C1011 1.414 . S
C1010 C1013 1.499 . S
C1011 H985 0.950 1_655 S
C1011 C1010 1.414 . S
C1011 C1012 1.374 . S
C1012 H986 0.950 . S
C1012 C1008 1.385 . S
C1012 C1011 1.374 . S
C1013 C1010 1.499 . S
C1013 C1014 1.373 1_655 S
C1013 C1015 1.389 . S
C1014 H987 0.950 . S
C1014 C1000 1.377 . S
C1014 C1013 1.373 1_455 S
C1015 C999 1.377 . S
C1015 C1013 1.389 . S
C1015 C1016 1.524 . S
C1016 C1015 1.524 . S
C1016 C1017 1.397 . S
C1016 C1021 1.363 . S
C1017 H988 0.950 . S
C1017 C1016 1.397 . S
C1017 C1018 1.334 . S
C1018 H989 0.950 . S
C1018 C1017 1.334 . S
C1018 C1019 1.287 . S
C1019 C1018 1.287 . S
C1019 C1020 1.524 . S
C1019 H1022 0.999 . S
C1020 H990 0.950 . S
C1020 C1019 1.524 . S
C1020 C1021 1.415 . S
C1021 H991 0.950 . S
C1021 C1016 1.363 . S
C1021 C1020 1.415 . S
H1022 C1019 0.999 . S
H1023 C1004 0.913 . S
H1024 C1042 0.951 . S
H1025 C1044 0.951 . S
H1026 C1046 0.950 . S
H1027 C1047 0.950 . S
H1028 C1049 0.950 . S
H1029 C1052 0.950 . S
H1030 C1053 0.950 . S
H1031 C1055 0.950 1_565 S
H1032 C1056 0.950 . S
H1033 C1057 0.951 . S
H1034 C1059 0.951 . S
H1035 C1061 0.950 . S
H1036 C1062 0.950 . S
H1037 C1064 0.950 . S
H1038 C1067 0.950 . S
H1039 C1068 0.950 . S
H1040 C1070 0.950 . S
H1041 C1071 0.950 . S
C1042 H1024 0.951 . S
C1042 C1043 1.366 . S
C1042 C1044 1.388 . S
C1043 C1042 1.366 . S
C1043 C1047 1.385 . S
C1044 H1025 0.951 . S
C1044 C1042 1.388 . S
C1044 C1045 1.366 . S
C1045 C1044 1.366 . S
C1045 C1046 1.414 . S
C1045 C1048 1.499 . S
C1046 H1026 0.950 . S
C1046 C1045 1.414 . S
C1046 C1047 1.374 . S
C1047 H1027 0.950 . S
C1047 C1043 1.385 . S
C1047 C1046 1.374 . S
C1048 C1045 1.499 . S
C1048 C1049 1.373 . S
C1048 C1050 1.389 . S
C1049 H1028 0.950 . S
C1049 C1048 1.373 . S
C1049 C1065 1.377 . S
C1050 C1048 1.389 . S
C1050 C1051 1.524 . S
C1050 C1064 1.377 . S
C1051 C1050 1.524 . S
C1051 C1052 1.397 . S
C1051 C1056 1.363 . S
C1052 H1029 0.950 . S
C1052 C1051 1.397 . S
C1052 C1053 1.334 . S
C1053 H1030 0.950 . S
C1053 C1052 1.334 . S
C1053 C1054 1.287 . S
C1054 C1053 1.287 . S
C1054 C1055 1.524 . S
C1054 H1073 0.913 . S
C1055 H1031 0.950 1_545 S
C1055 C1054 1.524 . S
C1055 C1056 1.415 . S
C1056 H1032 0.950 . S
C1056 C1051 1.363 . S
C1056 C1055 1.415 . S
C1057 H1033 0.951 . S
C1057 C1058 1.366 . S
C1057 C1059 1.388 . S
C1058 C1057 1.366 . S
C1058 C1062 1.385 . S
C1059 H1034 0.951 . S
C1059 C1057 1.388 . S
C1059 C1060 1.366 . S
C1060 C1059 1.366 . S
C1060 C1061 1.414 . S
C1060 C1063 1.499 . S
C1061 H1035 0.950 . S
C1061 C1060 1.414 . S
C1061 C1062 1.374 . S
C1062 H1036 0.950 . S
C1062 C1058 1.385 . S
C1062 C1061 1.374 . S
C1063 C1060 1.499 . S
C1063 C1064 1.373 . S
C1063 C1065 1.389 . S
C1064 H1037 0.950 . S
C1064 C1050 1.377 . S
C1064 C1063 1.373 . S
C1065 C1049 1.377 . S
C1065 C1063 1.389 . S
C1065 C1066 1.524 . S
C1066 C1065 1.524 . S
C1066 C1067 1.397 . S
C1066 C1071 1.363 . S
C1067 H1038 0.950 . S
C1067 C1066 1.397 . S
C1067 C1068 1.334 . S
C1068 H1039 0.950 . S
C1068 C1067 1.334 . S
C1068 C1069 1.287 . S
C1069 C1068 1.287 . S
C1069 C1070 1.524 . S
C1069 H1072 0.999 . S
C1070 H1040 0.950 . S
C1070 C1069 1.524 . S
C1070 C1071 1.415 . S
C1071 H1041 0.950 . S
C1071 C1066 1.363 . S
C1071 C1070 1.415 . S
H1072 C1069 0.999 . S
H1073 C1054 0.913 . S
H1074 C1092 0.951 . S
H1075 C1094 0.951 . S
H1076 C1096 0.950 . S
H1077 C1097 0.950 . S
H1078 C1099 0.950 . S
H1079 C1102 0.950 . S
H1080 C1103 0.950 . S
H1081 C1105 0.950 . S
H1082 C1106 0.950 . S
H1083 C1107 0.951 . S
H1084 C1109 0.951 . S
H1085 C1111 0.950 . S
H1086 C1112 0.950 . S
H1087 C1114 0.950 . S
H1088 C1117 0.950 . S
H1089 C1118 0.950 . S
H1090 C1120 0.950 . S
H1091 C1121 0.950 . S
C1092 H1074 0.951 . S
C1092 C1093 1.366 . S
C1092 C1094 1.388 . S
C1093 C1092 1.366 . S
C1093 C1097 1.385 . S
C1094 H1075 0.951 . S
C1094 C1092 1.388 . S
C1094 C1095 1.366 . S
C1095 C1094 1.366 . S
C1095 C1096 1.414 . S
C1095 C1098 1.499 . S
C1096 H1076 0.950 . S
C1096 C1095 1.414 . S
C1096 C1097 1.374 . S
C1097 H1077 0.950 . S
C1097 C1093 1.385 . S
C1097 C1096 1.374 . S
C1098 C1095 1.499 . S
C1098 C1099 1.373 . S
C1098 C1100 1.389 . S
C1099 H1078 0.950 . S
C1099 C1098 1.373 . S
C1099 C1115 1.377 . S
C1100 C1098 1.389 . S
C1100 C1101 1.524 . S
C1100 C1114 1.377 . S
C1101 C1100 1.524 . S
C1101 C1102 1.397 . S
C1101 C1106 1.363 . S
C1102 H1079 0.950 . S
C1102 C1101 1.397 . S
C1102 C1103 1.334 . S
C1103 H1080 0.950 . S
C1103 C1102 1.334 . S
C1103 C1104 1.287 . S
C1104 C1103 1.287 . S
C1104 C1105 1.524 . S
C1104 H1123 0.913 . S
C1105 H1081 0.950 . S
C1105 C1104 1.524 . S
C1105 C1106 1.415 . S
C1106 H1082 0.950 . S
C1106 C1101 1.363 . S
C1106 C1105 1.415 . S
C1107 H1083 0.951 . S
C1107 C1108 1.366 . S
C1107 C1109 1.388 . S
C1108 C1107 1.366 . S
C1108 C1112 1.385 . S
C1109 H1084 0.951 . S
C1109 C1107 1.388 . S
C1109 C1110 1.366 . S
C1110 C1109 1.366 . S
C1110 C1111 1.414 . S
C1110 C1113 1.499 . S
C1111 H1085 0.950 . S
C1111 C1110 1.414 . S
C1111 C1112 1.374 . S
C1112 H1086 0.950 . S
C1112 C1108 1.385 . S
C1112 C1111 1.374 . S
C1113 C1110 1.499 . S
C1113 C1114 1.373 . S
C1113 C1115 1.389 . S
C1114 H1087 0.950 . S
C1114 C1100 1.377 . S
C1114 C1113 1.373 . S
C1115 C1099 1.377 . S
C1115 C1113 1.389 . S
C1115 C1116 1.524 . S
C1116 C1115 1.524 . S
C1116 C1117 1.397 . S
C1116 C1121 1.363 . S
C1117 H1088 0.950 . S
C1117 C1116 1.397 . S
C1117 C1118 1.334 . S
C1118 H1089 0.950 . S
C1118 C1117 1.334 . S
C1118 C1119 1.287 . S
C1119 C1118 1.287 . S
C1119 C1120 1.524 . S
C1119 H1122 0.999 . S
C1120 H1090 0.950 . S
C1120 C1119 1.524 . S
C1120 C1121 1.415 . S
C1121 H1091 0.950 . S
C1121 C1116 1.363 . S
C1121 C1120 1.415 . S
H1122 C1119 0.999 . S
H1123 C1104 0.913 . S
H1124 C1142 0.951 . S
H1125 C1144 0.951 . S
H1126 C1146 0.950 . S
H1127 C1147 0.950 . S
H1128 C1149 0.950 . S
H1129 C1152 0.950 . S
H1130 C1153 0.950 . S
H1131 C1155 0.950 . S
H1132 C1156 0.950 . S
H1133 C1157 0.951 . S
H1134 C1159 0.951 . S
H1135 C1161 0.950 . S
H1136 C1162 0.950 . S
H1137 C1164 0.950 . S
H1138 C1167 0.950 . S
H1139 C1168 0.950 . S
H1140 C1170 0.950 . S
H1141 C1171 0.950 . S
C1142 H1124 0.951 . S
C1142 C1143 1.366 . S
C1142 C1144 1.388 . S
C1143 C1142 1.366 . S
C1143 C1147 1.385 . S
C1144 H1125 0.951 . S
C1144 C1142 1.388 . S
C1144 C1145 1.366 . S
C1145 C1144 1.366 . S
C1145 C1146 1.414 . S
C1145 C1148 1.499 . S
C1146 H1126 0.950 . S
C1146 C1145 1.414 . S
C1146 C1147 1.374 . S
C1147 H1127 0.950 . S
C1147 C1143 1.385 . S
C1147 C1146 1.374 . S
C1148 C1145 1.499 . S
C1148 C1149 1.373 . S
C1148 C1150 1.389 . S
C1149 H1128 0.950 . S
C1149 C1148 1.373 . S
C1149 C1165 1.377 . S
C1150 C1148 1.389 . S
C1150 C1151 1.524 . S
C1150 C1164 1.377 . S
C1151 C1150 1.524 . S
C1151 C1152 1.397 . S
C1151 C1156 1.363 . S
C1152 H1129 0.950 . S
C1152 C1151 1.397 . S
C1152 C1153 1.334 . S
C1153 H1130 0.950 . S
C1153 C1152 1.334 . S
C1153 C1154 1.287 . S
C1154 C1153 1.287 . S
C1154 C1155 1.524 . S
C1154 H1173 0.913 . S
C1155 H1131 0.950 . S
C1155 C1154 1.524 . S
C1155 C1156 1.415 . S
C1156 H1132 0.950 . S
C1156 C1151 1.363 . S
C1156 C1155 1.415 . S
C1157 H1133 0.951 . S
C1157 C1158 1.366 . S
C1157 C1159 1.388 . S
C1158 C1157 1.366 . S
C1158 C1162 1.385 . S
C1159 H1134 0.951 . S
C1159 C1157 1.388 . S
C1159 C1160 1.366 . S
C1160 C1159 1.366 . S
C1160 C1161 1.414 . S
C1160 C1163 1.499 . S
C1161 H1135 0.950 . S
C1161 C1160 1.414 . S
C1161 C1162 1.374 . S
C1162 H1136 0.950 . S
C1162 C1158 1.385 . S
C1162 C1161 1.374 . S
C1163 C1160 1.499 . S
C1163 C1164 1.373 . S
C1163 C1165 1.389 . S
C1164 H1137 0.950 . S
C1164 C1150 1.377 . S
C1164 C1163 1.373 . S
C1165 C1149 1.377 . S
C1165 C1163 1.389 . S
C1165 C1166 1.524 . S
C1166 C1165 1.524 . S
C1166 C1167 1.397 . S
C1166 C1171 1.363 . S
C1167 H1138 0.950 . S
C1167 C1166 1.397 . S
C1167 C1168 1.334 . S
C1168 H1139 0.950 . S
C1168 C1167 1.334 . S
C1168 C1169 1.287 . S
C1169 C1168 1.287 . S
C1169 C1170 1.524 . S
C1169 H1172 0.999 . S
C1170 H1140 0.950 . S
C1170 C1169 1.524 . S
C1170 C1171 1.415 . S
C1171 H1141 0.950 . S
C1171 C1166 1.363 . S
C1171 C1170 1.415 . S
H1172 C1169 0.999 . S
H1173 C1154 0.913 . S
H1174 C1192 0.951 . S
H1175 C1194 0.951 . S
H1176 C1196 0.950 . S
H1177 C1197 0.950 . S
H1178 C1199 0.950 . S
H1179 C1202 0.950 . S
H1180 C1203 0.950 . S
H1181 C1205 0.950 . S
H1182 C1206 0.950 . S
H1183 C1207 0.951 . S
H1184 C1209 0.951 . S
H1185 C1211 0.950 . S
H1186 C1212 0.950 . S
H1187 C1214 0.950 . S
H1188 C1217 0.950 . S
H1189 C1218 0.950 . S
H1190 C1220 0.950 . S
H1191 C1221 0.950 . S
C1192 H1174 0.951 . S
C1192 C1193 1.366 . S
C1192 C1194 1.388 . S
C1193 C1192 1.366 . S
C1193 C1197 1.385 . S
C1194 H1175 0.951 . S
C1194 C1192 1.388 . S
C1194 C1195 1.366 . S
C1195 C1194 1.366 . S
C1195 C1196 1.414 . S
C1195 C1198 1.499 . S
C1196 H1176 0.950 . S
C1196 C1195 1.414 . S
C1196 C1197 1.374 . S
C1197 H1177 0.950 . S
C1197 C1193 1.385 . S
C1197 C1196 1.374 . S
C1198 C1195 1.499 . S
C1198 C1199 1.373 . S
C1198 C1200 1.389 . S
C1199 H1178 0.950 . S
C1199 C1198 1.373 . S
C1199 C1215 1.377 . S
C1200 C1198 1.389 . S
C1200 C1201 1.524 . S
C1200 C1214 1.377 . S
C1201 C1200 1.524 . S
C1201 C1202 1.397 . S
C1201 C1206 1.363 . S
C1202 H1179 0.950 . S
C1202 C1201 1.397 . S
C1202 C1203 1.334 . S
C1203 H1180 0.950 . S
C1203 C1202 1.334 . S
C1203 C1204 1.287 . S
C1204 C1203 1.287 . S
C1204 C1205 1.524 . S
C1204 H1223 0.913 . S
C1205 H1181 0.950 . S
C1205 C1204 1.524 . S
C1205 C1206 1.415 . S
C1206 H1182 0.950 . S
C1206 C1201 1.363 . S
C1206 C1205 1.415 . S
C1207 H1183 0.951 . S
C1207 C1208 1.366 . S
C1207 C1209 1.388 . S
C1208 C1207 1.366 . S
C1208 C1212 1.385 . S
C1209 H1184 0.951 . S
C1209 C1207 1.388 . S
C1209 C1210 1.366 . S
C1210 C1209 1.366 . S
C1210 C1211 1.414 . S
C1210 C1213 1.499 . S
C1211 H1185 0.950 . S
C1211 C1210 1.414 . S
C1211 C1212 1.374 . S
C1212 H1186 0.950 . S
C1212 C1208 1.385 . S
C1212 C1211 1.374 . S
C1213 C1210 1.499 . S
C1213 C1214 1.373 . S
C1213 C1215 1.389 . S
C1214 H1187 0.950 . S
C1214 C1200 1.377 . S
C1214 C1213 1.373 . S
C1215 C1199 1.377 . S
C1215 C1213 1.389 . S
C1215 C1216 1.524 . S
C1216 C1215 1.524 . S
C1216 C1217 1.397 . S
C1216 C1221 1.363 . S
C1217 H1188 0.950 . S
C1217 C1216 1.397 . S
C1217 C1218 1.334 . S
C1218 H1189 0.950 . S
C1218 C1217 1.334 . S
C1218 C1219 1.287 . S
C1219 C1218 1.287 . S
C1219 C1220 1.524 . S
C1219 H1222 0.999 . S
C1220 H1190 0.950 . S
C1220 C1219 1.524 . S
C1220 C1221 1.415 . S
C1221 H1191 0.950 . S
C1221 C1216 1.363 . S
C1221 C1220 1.415 . S
H1222 C1219 0.999 . S
H1223 C1204 0.913 . S
H1224 C1242 0.951 . S
H1225 C1244 0.951 . S
H1226 C1246 0.950 . S
H1227 C1247 0.950 . S
H1228 C1249 0.950 . S
H1229 C1252 0.950 . S
H1230 C1253 0.950 . S
H1231 C1255 0.950 . S
H1232 C1256 0.950 . S
H1233 C1257 0.951 . S
H1234 C1259 0.951 . S
H1235 C1261 0.950 . S
H1236 C1262 0.950 . S
H1237 C1264 0.950 . S
H1238 C1267 0.950 . S
H1239 C1268 0.950 . S
H1240 C1270 0.950 . S
H1241 C1271 0.950 . S
C1242 H1224 0.951 . S
C1242 C1243 1.366 . S
C1242 C1244 1.388 . S
C1243 C1242 1.366 . S
C1243 C1247 1.385 . S
C1244 H1225 0.951 . S
C1244 C1242 1.388 . S
C1244 C1245 1.366 . S
C1245 C1244 1.366 . S
C1245 C1246 1.414 . S
C1245 C1248 1.499 . S
C1246 H1226 0.950 . S
C1246 C1245 1.414 . S
C1246 C1247 1.374 . S
C1247 H1227 0.950 . S
C1247 C1243 1.385 . S
C1247 C1246 1.374 . S
C1248 C1245 1.499 . S
C1248 C1249 1.373 . S
C1248 C1250 1.389 . S
C1249 H1228 0.950 . S
C1249 C1248 1.373 . S
C1249 C1265 1.377 . S
C1250 C1248 1.389 . S
C1250 C1251 1.524 . S
C1250 C1264 1.377 . S
C1251 C1250 1.524 . S
C1251 C1252 1.397 . S
C1251 C1256 1.363 . S
C1252 H1229 0.950 . S
C1252 C1251 1.397 . S
C1252 C1253 1.334 . S
C1253 H1230 0.950 . S
C1253 C1252 1.334 . S
C1253 C1254 1.287 . S
C1254 C1253 1.287 . S
C1254 C1255 1.524 . S
C1254 H1273 0.913 . S
C1255 H1231 0.950 . S
C1255 C1254 1.524 . S
C1255 C1256 1.415 . S
C1256 H1232 0.950 . S
C1256 C1251 1.363 . S
C1256 C1255 1.415 . S
C1257 H1233 0.951 . S
C1257 C1258 1.366 . S
C1257 C1259 1.388 . S
C1258 C1257 1.366 . S
C1258 C1262 1.385 . S
C1259 H1234 0.951 . S
C1259 C1257 1.388 . S
C1259 C1260 1.366 . S
C1260 C1259 1.366 . S
C1260 C1261 1.414 . S
C1260 C1263 1.499 . S
C1261 H1235 0.950 . S
C1261 C1260 1.414 . S
C1261 C1262 1.374 . S
C1262 H1236 0.950 . S
C1262 C1258 1.385 . S
C1262 C1261 1.374 . S
C1263 C1260 1.499 . S
C1263 C1264 1.373 . S
C1263 C1265 1.389 . S
C1264 H1237 0.950 . S
C1264 C1250 1.377 . S
C1264 C1263 1.373 . S
C1265 C1249 1.377 . S
C1265 C1263 1.389 . S
C1265 C1266 1.524 . S
C1266 C1265 1.524 . S
C1266 C1267 1.397 . S
C1266 C1271 1.363 . S
C1267 H1238 0.950 . S
C1267 C1266 1.397 . S
C1267 C1268 1.334 . S
C1268 H1239 0.950 . S
C1268 C1267 1.334 . S
C1268 C1269 1.287 . S
C1269 C1268 1.287 . S
C1269 C1270 1.524 . S
C1269 H1272 0.999 . S
C1270 H1240 0.950 . S
C1270 C1269 1.524 . S
C1270 C1271 1.415 . S
C1271 H1241 0.950 . S
C1271 C1266 1.363 . S
C1271 C1270 1.415 . S
H1272 C1269 0.999 . S
H1273 C1254 0.913 . S
H1274 C1292 0.951 . S
H1275 C1294 0.951 . S
H1276 C1296 0.950 . S
H1277 C1297 0.950 . S
H1278 C1299 0.950 . S
H1279 C1302 0.950 . S
H1280 C1303 0.950 . S
H1281 C1305 0.950 . S
H1282 C1306 0.950 . S
H1283 C1307 0.951 . S
H1284 C1309 0.951 . S
H1285 C1311 0.950 . S
H1286 C1312 0.950 . S
H1287 C1314 0.950 . S
H1288 C1317 0.950 . S
H1289 C1318 0.950 . S
H1290 C1320 0.950 . S
H1291 C1321 0.950 . S
C1292 H1274 0.951 . S
C1292 C1293 1.366 . S
C1292 C1294 1.388 . S
C1293 C1292 1.366 . S
C1293 C1297 1.385 . S
C1294 H1275 0.951 . S
C1294 C1292 1.388 . S
C1294 C1295 1.366 . S
C1295 C1294 1.366 . S
C1295 C1296 1.414 . S
C1295 C1298 1.499 . S
C1296 H1276 0.950 . S
C1296 C1295 1.414 . S
C1296 C1297 1.374 . S
C1297 H1277 0.950 . S
C1297 C1293 1.385 . S
C1297 C1296 1.374 . S
C1298 C1295 1.499 . S
C1298 C1299 1.373 . S
C1298 C1300 1.389 . S
C1299 H1278 0.950 . S
C1299 C1298 1.373 . S
C1299 C1315 1.377 . S
C1300 C1298 1.389 . S
C1300 C1301 1.524 . S
C1300 C1314 1.377 . S
C1301 C1300 1.524 . S
C1301 C1302 1.397 . S
C1301 C1306 1.363 . S
C1302 H1279 0.950 . S
C1302 C1301 1.397 . S
C1302 C1303 1.334 . S
C1303 H1280 0.950 . S
C1303 C1302 1.334 . S
C1303 C1304 1.287 . S
C1304 C1303 1.287 . S
C1304 C1305 1.524 . S
C1304 H1323 0.913 . S
C1305 H1281 0.950 . S
C1305 C1304 1.524 . S
C1305 C1306 1.415 . S
C1306 H1282 0.950 . S
C1306 C1301 1.363 . S
C1306 C1305 1.415 . S
C1307 H1283 0.951 . S
C1307 C1308 1.366 . S
C1307 C1309 1.388 . S
C1308 C1307 1.366 . S
C1308 C1312 1.385 . S
C1309 H1284 0.951 . S
C1309 C1307 1.388 . S
C1309 C1310 1.366 . S
C1310 C1309 1.366 . S
C1310 C1311 1.414 . S
C1310 C1313 1.499 . S
C1311 H1285 0.950 . S
C1311 C1310 1.414 . S
C1311 C1312 1.374 . S
C1312 H1286 0.950 . S
C1312 C1308 1.385 . S
C1312 C1311 1.374 . S
C1313 C1310 1.499 . S
C1313 C1314 1.373 . S
C1313 C1315 1.389 . S
C1314 H1287 0.950 . S
C1314 C1300 1.377 . S
C1314 C1313 1.373 . S
C1315 C1299 1.377 . S
C1315 C1313 1.389 . S
C1315 C1316 1.524 . S
C1316 C1315 1.524 . S
C1316 C1317 1.397 . S
C1316 C1321 1.363 . S
C1317 H1288 0.950 . S
C1317 C1316 1.397 . S
C1317 C1318 1.334 . S
C1318 H1289 0.950 . S
C1318 C1317 1.334 . S
C1318 C1319 1.287 . S
C1319 C1318 1.287 . S
C1319 C1320 1.524 . S
C1319 H1322 0.999 . S
C1320 H1290 0.950 . S
C1320 C1319 1.524 . S
C1320 C1321 1.415 . S
C1321 H1291 0.950 . S
C1321 C1316 1.363 . S
C1321 C1320 1.415 . S
H1322 C1319 0.999 . S
H1323 C1304 0.913 . S
H1324 C1342 0.951 . S
H1325 C1344 0.951 . S
H1326 C1346 0.950 . S
H1327 C1347 0.950 . S
H1328 C1349 0.950 . S
H1329 C1352 0.950 . S
H1330 C1353 0.950 . S
H1331 C1355 0.950 . S
H1332 C1356 0.950 . S
H1333 C1357 0.951 . S
H1334 C1359 0.951 . S
H1335 C1361 0.950 . S
H1336 C1362 0.950 . S
H1337 C1364 0.950 . S
H1338 C1367 0.950 . S
H1339 C1368 0.950 . S
H1340 C1370 0.950 . S
H1341 C1371 0.950 . S
C1342 H1324 0.951 . S
C1342 C1343 1.366 . S
C1342 C1344 1.388 . S
C1343 C1342 1.366 . S
C1343 C1347 1.385 . S
C1344 H1325 0.951 . S
C1344 C1342 1.388 . S
C1344 C1345 1.366 . S
C1345 C1344 1.366 . S
C1345 C1346 1.414 . S
C1345 C1348 1.499 . S
C1346 H1326 0.950 . S
C1346 C1345 1.414 . S
C1346 C1347 1.374 . S
C1347 H1327 0.950 . S
C1347 C1343 1.385 . S
C1347 C1346 1.374 . S
C1348 C1345 1.499 . S
C1348 C1349 1.373 . S
C1348 C1350 1.389 . S
C1349 H1328 0.950 . S
C1349 C1348 1.373 . S
C1349 C1365 1.377 . S
C1350 C1348 1.389 . S
C1350 C1351 1.524 . S
C1350 C1364 1.377 . S
C1351 C1350 1.524 . S
C1351 C1352 1.397 . S
C1351 C1356 1.363 . S
C1352 H1329 0.950 . S
C1352 C1351 1.397 . S
C1352 C1353 1.334 . S
C1353 H1330 0.950 . S
C1353 C1352 1.334 . S
C1353 C1354 1.287 . S
C1354 C1353 1.287 . S
C1354 C1355 1.524 . S
C1354 H1373 0.913 . S
C1355 H1331 0.950 . S
C1355 C1354 1.524 . S
C1355 C1356 1.415 . S
C1356 H1332 0.950 . S
C1356 C1351 1.363 . S
C1356 C1355 1.415 . S
C1357 H1333 0.951 . S
C1357 C1358 1.366 . S
C1357 C1359 1.388 . S
C1358 C1357 1.366 . S
C1358 C1362 1.385 . S
C1359 H1334 0.951 . S
C1359 C1357 1.388 . S
C1359 C1360 1.366 . S
C1360 C1359 1.366 . S
C1360 C1361 1.414 . S
C1360 C1363 1.499 . S
C1361 H1335 0.950 . S
C1361 C1360 1.414 . S
C1361 C1362 1.374 . S
C1362 H1336 0.950 . S
C1362 C1358 1.385 . S
C1362 C1361 1.374 . S
C1363 C1360 1.499 . S
C1363 C1364 1.373 . S
C1363 C1365 1.389 . S
C1364 H1337 0.950 . S
C1364 C1350 1.377 . S
C1364 C1363 1.373 . S
C1365 C1349 1.377 . S
C1365 C1363 1.389 . S
C1365 C1366 1.524 . S
C1366 C1365 1.524 . S
C1366 C1367 1.397 . S
C1366 C1371 1.363 . S
C1367 H1338 0.950 . S
C1367 C1366 1.397 . S
C1367 C1368 1.334 . S
C1368 H1339 0.950 . S
C1368 C1367 1.334 . S
C1368 C1369 1.287 . S
C1369 C1368 1.287 . S
C1369 C1370 1.524 . S
C1369 H1372 0.999 . S
C1370 H1340 0.950 . S
C1370 C1369 1.524 . S
C1370 C1371 1.415 . S
C1371 H1341 0.950 . S
C1371 C1366 1.363 . S
C1371 C1370 1.415 . S
H1372 C1369 0.999 . S
H1373 C1354 0.913 . S
H1374 C1392 0.951 . S
H1375 C1394 0.951 . S
H1376 C1396 0.950 . S
H1377 C1397 0.950 . S
H1378 C1399 0.950 . S
H1379 C1402 0.950 . S
H1380 C1403 0.950 . S
H1381 C1405 0.950 . S
H1382 C1406 0.950 . S
H1383 C1407 0.951 . S
H1384 C1409 0.951 . S
H1385 C1411 0.950 . S
H1386 C1412 0.950 . S
H1387 C1414 0.950 . S
H1388 C1417 0.950 . S
H1389 C1418 0.950 . S
H1390 C1420 0.950 . S
H1391 C1421 0.950 . S
C1392 H1374 0.951 . S
C1392 C1393 1.366 . S
C1392 C1394 1.388 . S
C1393 C1392 1.366 . S
C1393 C1397 1.385 . S
C1394 H1375 0.951 . S
C1394 C1392 1.388 . S
C1394 C1395 1.366 . S
C1395 C1394 1.366 . S
C1395 C1396 1.414 . S
C1395 C1398 1.499 . S
C1396 H1376 0.950 . S
C1396 C1395 1.414 . S
C1396 C1397 1.374 . S
C1397 H1377 0.950 . S
C1397 C1393 1.385 . S
C1397 C1396 1.374 . S
C1398 C1395 1.499 . S
C1398 C1399 1.373 . S
C1398 C1400 1.389 . S
C1399 H1378 0.950 . S
C1399 C1398 1.373 . S
C1399 C1415 1.377 . S
C1400 C1398 1.389 . S
C1400 C1401 1.524 . S
C1400 C1414 1.377 . S
C1401 C1400 1.524 . S
C1401 C1402 1.397 . S
C1401 C1406 1.363 . S
C1402 H1379 0.950 . S
C1402 C1401 1.397 . S
C1402 C1403 1.334 . S
C1403 H1380 0.950 . S
C1403 C1402 1.334 . S
C1403 C1404 1.287 . S
C1404 C1403 1.287 . S
C1404 C1405 1.524 . S
C1404 H1423 0.913 . S
C1405 H1381 0.950 . S
C1405 C1404 1.524 . S
C1405 C1406 1.415 . S
C1406 H1382 0.950 . S
C1406 C1401 1.363 . S
C1406 C1405 1.415 . S
C1407 H1383 0.951 . S
C1407 C1408 1.366 . S
C1407 C1409 1.388 . S
C1408 C1407 1.366 . S
C1408 C1412 1.385 . S
C1409 H1384 0.951 . S
C1409 C1407 1.388 . S
C1409 C1410 1.366 . S
C1410 C1409 1.366 . S
C1410 C1411 1.414 . S
C1410 C1413 1.499 . S
C1411 H1385 0.950 . S
C1411 C1410 1.414 . S
C1411 C1412 1.374 . S
C1412 H1386 0.950 . S
C1412 C1408 1.385 . S
C1412 C1411 1.374 . S
C1413 C1410 1.499 . S
C1413 C1414 1.373 . S
C1413 C1415 1.389 . S
C1414 H1387 0.950 . S
C1414 C1400 1.377 . S
C1414 C1413 1.373 . S
C1415 C1399 1.377 . S
C1415 C1413 1.389 . S
C1415 C1416 1.524 . S
C1416 C1415 1.524 . S
C1416 C1417 1.397 . S
C1416 C1421 1.363 . S
C1417 H1388 0.950 . S
C1417 C1416 1.397 . S
C1417 C1418 1.334 . S
C1418 H1389 0.950 . S
C1418 C1417 1.334 . S
C1418 C1419 1.287 . S
C1419 C1418 1.287 . S
C1419 C1420 1.524 . S
C1419 H1422 0.999 . S
C1420 H1390 0.950 . S
C1420 C1419 1.524 . S
C1420 C1421 1.415 . S
C1421 H1391 0.950 . S
C1421 C1416 1.363 . S
C1421 C1420 1.415 . S
H1422 C1419 0.999 . S
H1423 C1404 0.913 . S
H1424 C1442 0.951 . S
H1425 C1444 0.951 . S
H1426 C1446 0.950 . S
H1427 C1447 0.950 . S
H1428 C1449 0.950 . S
H1429 C1452 0.950 . S
H1430 C1453 0.950 . S
H1431 C1455 0.950 . S
H1432 C1456 0.950 . S
H1433 C1457 0.951 . S
H1434 C1459 0.951 . S
H1435 C1461 0.950 . S
H1436 C1462 0.950 . S
H1437 C1464 0.950 . S
H1438 C1467 0.950 . S
H1439 C1468 0.950 . S
H1440 C1470 0.950 . S
H1441 C1471 0.950 . S
C1442 H1424 0.951 . S
C1442 C1443 1.366 . S
C1442 C1444 1.388 . S
C1443 C1442 1.366 . S
C1443 C1447 1.385 . S
C1444 H1425 0.951 . S
C1444 C1442 1.388 . S
C1444 C1445 1.366 . S
C1445 C1444 1.366 . S
C1445 C1446 1.414 . S
C1445 C1448 1.499 . S
C1446 H1426 0.950 . S
C1446 C1445 1.414 . S
C1446 C1447 1.374 . S
C1447 H1427 0.950 . S
C1447 C1443 1.385 . S
C1447 C1446 1.374 . S
C1448 C1445 1.499 . S
C1448 C1449 1.373 . S
C1448 C1450 1.389 . S
C1449 H1428 0.950 . S
C1449 C1448 1.373 . S
C1449 C1465 1.377 . S
C1450 C1448 1.389 . S
C1450 C1451 1.524 . S
C1450 C1464 1.377 . S
C1451 C1450 1.524 . S
C1451 C1452 1.397 . S
C1451 C1456 1.363 . S
C1452 H1429 0.950 . S
C1452 C1451 1.397 . S
C1452 C1453 1.334 . S
C1453 H1430 0.950 . S
C1453 C1452 1.334 . S
C1453 C1454 1.287 . S
C1454 C1453 1.287 . S
C1454 C1455 1.524 . S
C1454 H1473 0.913 . S
C1455 H1431 0.950 . S
C1455 C1454 1.524 . S
C1455 C1456 1.415 . S
C1456 H1432 0.950 . S
C1456 C1451 1.363 . S
C1456 C1455 1.415 . S
C1457 H1433 0.951 . S
C1457 C1458 1.366 . S
C1457 C1459 1.388 . S
C1458 C1457 1.366 . S
C1458 C1462 1.385 . S
C1459 H1434 0.951 . S
C1459 C1457 1.388 . S
C1459 C1460 1.366 . S
C1460 C1459 1.366 . S
C1460 C1461 1.414 . S
C1460 C1463 1.499 . S
C1461 H1435 0.950 . S
C1461 C1460 1.414 . S
C1461 C1462 1.374 . S
C1462 H1436 0.950 . S
C1462 C1458 1.385 . S
C1462 C1461 1.374 . S
C1463 C1460 1.499 . S
C1463 C1464 1.373 . S
C1463 C1465 1.389 . S
C1464 H1437 0.950 . S
C1464 C1450 1.377 . S
C1464 C1463 1.373 . S
C1465 C1449 1.377 . S
C1465 C1463 1.389 . S
C1465 C1466 1.524 . S
C1466 C1465 1.524 . S
C1466 C1467 1.397 . S
C1466 C1471 1.363 . S
C1467 H1438 0.950 . S
C1467 C1466 1.397 . S
C1467 C1468 1.334 . S
C1468 H1439 0.950 . S
C1468 C1467 1.334 . S
C1468 C1469 1.287 . S
C1469 C1468 1.287 . S
C1469 C1470 1.524 . S
C1469 H1472 0.999 . S
C1470 H1440 0.950 . S
C1470 C1469 1.524 . S
C1470 C1471 1.415 . S
C1471 H1441 0.950 . S
C1471 C1466 1.363 . S
C1471 C1470 1.415 . S
H1472 C1469 0.999 . S
H1473 C1454 0.913 . S
H1474 C1492 0.951 . S
H1475 C1494 0.951 . S
H1476 C1496 0.950 . S
H1477 C1497 0.950 . S
H1478 C1499 0.950 . S
H1479 C1502 0.950 . S
H1480 C1503 0.950 . S
H1481 C1505 0.950 . S
H1482 C1506 0.950 . S
H1483 C1507 0.951 . S
H1484 C1509 0.951 . S
H1485 C1511 0.950 . S
H1486 C1512 0.950 . S
H1487 C1514 0.950 . S
H1488 C1517 0.950 . S
H1489 C1518 0.950 . S
H1490 C1520 0.950 . S
H1491 C1521 0.950 . S
C1492 H1474 0.951 . S
C1492 C1493 1.366 . S
C1492 C1494 1.388 . S
C1493 C1492 1.366 . S
C1493 C1497 1.385 . S
C1494 H1475 0.951 . S
C1494 C1492 1.388 . S
C1494 C1495 1.366 . S
C1495 C1494 1.366 . S
C1495 C1496 1.414 . S
C1495 C1498 1.499 . S
C1496 H1476 0.950 . S
C1496 C1495 1.414 . S
C1496 C1497 1.374 . S
C1497 H1477 0.950 . S
C1497 C1493 1.385 . S
C1497 C1496 1.374 . S
C1498 C1495 1.499 . S
C1498 C1499 1.373 . S
C1498 C1500 1.389 . S
C1499 H1478 0.950 . S
C1499 C1498 1.373 . S
C1499 C1515 1.377 . S
C1500 C1498 1.389 . S
C1500 C1501 1.524 . S
C1500 C1514 1.377 . S
C1501 C1500 1.524 . S
C1501 C1502 1.397 . S
C1501 C1506 1.363 . S
C1502 H1479 0.950 . S
C1502 C1501 1.397 . S
C1502 C1503 1.334 . S
C1503 H1480 0.950 . S
C1503 C1502 1.334 . S
C1503 C1504 1.287 . S
C1504 C1503 1.287 . S
C1504 C1505 1.524 . S
C1504 H1523 0.913 . S
C1505 H1481 0.950 . S
C1505 C1504 1.524 . S
C1505 C1506 1.415 . S
C1506 H1482 0.950 . S
C1506 C1501 1.363 . S
C1506 C1505 1.415 . S
C1507 H1483 0.951 . S
C1507 C1508 1.366 . S
C1507 C1509 1.388 . S
C1508 C1507 1.366 . S
C1508 C1512 1.385 . S
C1509 H1484 0.951 . S
C1509 C1507 1.388 . S
C1509 C1510 1.366 . S
C1510 C1509 1.366 . S
C1510 C1511 1.414 . S
C1510 C1513 1.499 . S
C1511 H1485 0.950 . S
C1511 C1510 1.414 . S
C1511 C1512 1.374 . S
C1512 H1486 0.950 . S
C1512 C1508 1.385 . S
C1512 C1511 1.374 . S
C1513 C1510 1.499 . S
C1513 C1514 1.373 . S
C1513 C1515 1.389 . S
C1514 H1487 0.950 . S
C1514 C1500 1.377 . S
C1514 C1513 1.373 . S
C1515 C1499 1.377 . S
C1515 C1513 1.389 . S
C1515 C1516 1.524 . S
C1516 C1515 1.524 . S
C1516 C1517 1.397 . S
C1516 C1521 1.363 . S
C1517 H1488 0.950 . S
C1517 C1516 1.397 . S
C1517 C1518 1.334 . S
C1518 H1489 0.950 . S
C1518 C1517 1.334 . S
C1518 C1519 1.287 . S
C1519 C1518 1.287 . S
C1519 C1520 1.524 . S
C1519 H1522 0.999 . S
C1520 H1490 0.950 . S
C1520 C1519 1.524 . S
C1520 C1521 1.415 . S
C1521 H1491 0.950 . S
C1521 C1516 1.363 . S
C1521 C1520 1.415 . S
H1522 C1519 0.999 . S
H1523 C1504 0.913 . S
H1524 C1542 0.951 . S
H1525 C1544 0.951 . S
H1526 C1546 0.950 . S
H1527 C1547 0.950 . S
H1528 C1549 0.950 . S
H1529 C1552 0.950 . S
H1530 C1553 0.950 . S
H1531 C1555 0.950 . S
H1532 C1556 0.950 . S
H1533 C1557 0.951 . S
H1534 C1559 0.951 . S
H1535 C1561 0.950 . S
H1536 C1562 0.950 . S
H1537 C1564 0.950 . S
H1538 C1567 0.950 . S
H1539 C1568 0.950 . S
H1540 C1570 0.950 . S
H1541 C1571 0.950 . S
C1542 H1524 0.951 . S
C1542 C1543 1.366 . S
C1542 C1544 1.388 . S
C1543 C1542 1.366 . S
C1543 C1547 1.385 . S
C1544 H1525 0.951 . S
C1544 C1542 1.388 . S
C1544 C1545 1.366 . S
C1545 C1544 1.366 . S
C1545 C1546 1.414 . S
C1545 C1548 1.499 . S
C1546 H1526 0.950 . S
C1546 C1545 1.414 . S
C1546 C1547 1.374 . S
C1547 H1527 0.950 . S
C1547 C1543 1.385 . S
C1547 C1546 1.374 . S
C1548 C1545 1.499 . S
C1548 C1549 1.373 . S
C1548 C1550 1.389 . S
C1549 H1528 0.950 . S
C1549 C1548 1.373 . S
C1549 C1565 1.377 . S
C1550 C1548 1.389 . S
C1550 C1551 1.524 . S
C1550 C1564 1.377 . S
C1551 C1550 1.524 . S
C1551 C1552 1.397 . S
C1551 C1556 1.363 . S
C1552 H1529 0.950 . S
C1552 C1551 1.397 . S
C1552 C1553 1.334 . S
C1553 H1530 0.950 . S
C1553 C1552 1.334 . S
C1553 C1554 1.287 . S
C1554 C1553 1.287 . S
C1554 C1555 1.524 . S
C1554 H1573 0.913 . S
C1555 H1531 0.950 . S
C1555 C1554 1.524 . S
C1555 C1556 1.415 . S
C1556 H1532 0.950 . S
C1556 C1551 1.363 . S
C1556 C1555 1.415 . S
C1557 H1533 0.951 . S
C1557 C1558 1.366 . S
C1557 C1559 1.388 . S
C1558 C1557 1.366 . S
C1558 C1562 1.385 . S
C1559 H1534 0.951 . S
C1559 C1557 1.388 . S
C1559 C1560 1.366 . S
C1560 C1559 1.366 . S
C1560 C1561 1.414 . S
C1560 C1563 1.499 . S
C1561 H1535 0.950 . S
C1561 C1560 1.414 . S
C1561 C1562 1.374 . S
C1562 H1536 0.950 . S
C1562 C1558 1.385 . S
C1562 C1561 1.374 . S
C1563 C1560 1.499 . S
C1563 C1564 1.373 . S
C1563 C1565 1.389 . S
C1564 H1537 0.950 . S
C1564 C1550 1.377 . S
C1564 C1563 1.373 . S
C1565 C1549 1.377 . S
C1565 C1563 1.389 . S
C1565 C1566 1.524 . S
C1566 C1565 1.524 . S
C1566 C1567 1.397 . S
C1566 C1571 1.363 . S
C1567 H1538 0.950 . S
C1567 C1566 1.397 . S
C1567 C1568 1.334 . S
C1568 H1539 0.950 . S
C1568 C1567 1.334 . S
C1568 C1569 1.287 . S
C1569 C1568 1.287 . S
C1569 C1570 1.524 . S
C1569 H1572 0.999 . S
C1570 H1540 0.950 . S
C1570 C1569 1.524 . S
C1570 C1571 1.415 . S
C1571 H1541 0.950 . S
C1571 C1566 1.363 . S
C1571 C1570 1.415 . S
H1572 C1569 0.999 . S
H1573 C1554 0.913 . S
H1574 C1592 0.951 . S
H1575 C1594 0.951 . S
H1576 C1596 0.950 . S
H1577 C1597 0.950 . S
H1578 C1599 0.950 . S
H1579 C1602 0.950 . S
H1580 C1603 0.950 . S
H1581 C1605 0.965 . S
H1582 C1606 0.897 1_554 S
H1583 C1607 0.951 . S
H1584 C1609 0.951 . S
H1585 C1611 0.950 . S
H1586 C1612 0.950 . S
H1587 C1614 0.950 . S
H1588 C1617 0.950 . S
H1589 C1618 0.950 . S
H1590 C1620 0.965 . S
H1591 C1621 0.897 1_556 S
C1592 H1574 0.951 . S
C1592 C1593 1.366 . S
C1592 C1594 1.388 . S
C1593 C1592 1.366 . S
C1593 C1597 1.385 . S
C1594 H1575 0.951 . S
C1594 C1592 1.388 . S
C1594 C1595 1.366 . S
C1595 C1594 1.366 . S
C1595 C1596 1.414 . S
C1595 C1598 1.499 . S
C1596 H1576 0.950 . S
C1596 C1595 1.414 . S
C1596 C1597 1.374 . S
C1597 H1577 0.950 . S
C1597 C1593 1.385 . S
C1597 C1596 1.374 . S
C1598 C1595 1.499 . S
C1598 C1599 1.373 . S
C1598 C1600 1.389 . S
C1599 H1578 0.950 . S
C1599 C1598 1.373 . S
C1599 C1615 1.377 1_556 S
C1600 C1598 1.389 . S
C1600 C1601 1.524 . S
C1600 C1614 1.377 1_556 S
C1601 C1600 1.524 . S
C1601 C1602 1.397 . S
C1601 C1606 1.409 . S
C1602 H1579 0.950 . S
C1602 C1601 1.397 . S
C1602 C1603 1.334 . S
C1603 H1580 0.950 . S
C1603 C1602 1.334 . S
C1603 C1604 1.287 . S
C1604 C1603 1.287 . S
C1604 C1605 1.524 . S
C1604 H1623 0.913 . S
C1605 H1581 0.965 . S
C1605 C1604 1.524 . S
C1605 C1606 1.437 . S
C1606 H1582 0.897 1_556 S
C1606 C1601 1.409 . S
C1606 C1605 1.437 . S
C1607 H1583 0.951 . S
C1607 C1608 1.366 . S
C1607 C1609 1.388 . S
C1608 C1607 1.366 . S
C1608 C1612 1.385 . S
C1609 H1584 0.951 . S
C1609 C1607 1.388 . S
C1609 C1610 1.366 . S
C1610 C1609 1.366 . S
C1610 C1611 1.414 . S
C1610 C1613 1.499 . S
C1611 H1585 0.950 . S
C1611 C1610 1.414 . S
C1611 C1612 1.374 . S
C1612 H1586 0.950 . S
C1612 C1608 1.385 . S
C1612 C1611 1.374 . S
C1613 C1610 1.499 . S
C1613 C1614 1.373 . S
C1613 C1615 1.389 . S
C1614 H1587 0.950 . S
C1614 C1600 1.377 1_554 S
C1614 C1613 1.373 . S
C1615 C1599 1.377 1_554 S
C1615 C1613 1.389 . S
C1615 C1616 1.524 . S
C1616 C1615 1.524 . S
C1616 C1617 1.397 . S
C1616 C1621 1.409 . S
C1617 H1588 0.950 . S
C1617 C1616 1.397 . S
C1617 C1618 1.334 . S
C1618 H1589 0.950 . S
C1618 C1617 1.334 . S
C1618 C1619 1.287 . S
C1619 C1618 1.287 . S
C1619 C1620 1.524 . S
C1619 H1622 0.999 . S
C1620 H1590 0.965 . S
C1620 C1619 1.524 . S
C1620 C1621 1.436 . S
C1621 H1591 0.897 1_554 S
C1621 C1616 1.409 . S
C1621 C1620 1.436 . S
H1622 C1619 0.999 . S
H1623 C1604 0.913 . S
H1624 C1642 0.951 . S
H1625 C1644 0.951 . S
H1626 C1646 0.950 . S
H1627 C1647 0.950 . S
H1628 C1649 0.950 . S
H1629 C1652 0.950 . S
H1630 C1653 0.950 . S
H1631 C1655 0.950 . S
H1632 C1656 0.950 1_556 S
H1633 C1657 0.951 . S
H1634 C1659 0.951 . S
H1635 C1661 0.950 . S
H1636 C1662 0.950 . S
H1637 C1664 0.950 . S
H1638 C1667 0.950 . S
H1639 C1668 0.950 . S
H1640 C1670 0.950 . S
H1641 C1671 0.950 1_554 S
C1642 H1624 0.951 . S
C1642 C1643 1.366 . S
C1642 C1644 1.388 . S
C1643 C1642 1.366 . S
C1643 C1647 1.385 . S
C1644 H1625 0.951 . S
C1644 C1642 1.388 . S
C1644 C1645 1.366 . S
C1645 C1644 1.366 . S
C1645 C1646 1.414 . S
C1645 C1648 1.499 . S
C1646 H1626 0.950 . S
C1646 C1645 1.414 . S
C1646 C1647 1.374 . S
C1647 H1627 0.950 . S
C1647 C1643 1.385 . S
C1647 C1646 1.374 . S
C1648 C1645 1.499 . S
C1648 C1649 1.373 . S
C1648 C1650 1.389 . S
C1649 H1628 0.950 . S
C1649 C1648 1.373 . S
C1649 C1665 1.377 1_554 S
C1650 C1648 1.389 . S
C1650 C1651 1.524 . S
C1650 C1664 1.377 1_554 S
C1651 C1650 1.524 . S
C1651 C1652 1.397 . S
C1651 C1656 1.363 . S
C1652 H1629 0.950 . S
C1652 C1651 1.397 . S
C1652 C1653 1.334 . S
C1653 H1630 0.950 . S
C1653 C1652 1.334 . S
C1653 C1654 1.287 . S
C1654 C1653 1.287 . S
C1654 C1655 1.524 . S
C1654 H1673 0.913 . S
C1655 H1631 0.950 . S
C1655 C1654 1.524 . S
C1655 C1656 1.415 . S
C1656 H1632 0.950 1_554 S
C1656 C1651 1.363 . S
C1656 C1655 1.415 . S
C1657 H1633 0.951 . S
C1657 C1658 1.366 . S
C1657 C1659 1.388 . S
C1658 C1657 1.366 . S
C1658 C1662 1.385 . S
C1659 H1634 0.951 . S
C1659 C1657 1.388 . S
C1659 C1660 1.366 . S
C1660 C1659 1.366 . S
C1660 C1661 1.414 . S
C1660 C1663 1.499 . S
C1661 H1635 0.950 . S
C1661 C1660 1.414 . S
C1661 C1662 1.374 . S
C1662 H1636 0.950 . S
C1662 C1658 1.385 . S
C1662 C1661 1.374 . S
C1663 C1660 1.499 . S
C1663 C1664 1.373 . S
C1663 C1665 1.389 . S
C1664 H1637 0.950 . S
C1664 C1650 1.377 1_556 S
C1664 C1663 1.373 . S
C1665 C1649 1.377 1_556 S
C1665 C1663 1.389 . S
C1665 C1666 1.524 . S
C1666 C1665 1.524 . S
C1666 C1667 1.397 . S
C1666 C1671 1.363 . S
C1667 H1638 0.950 . S
C1667 C1666 1.397 . S
C1667 C1668 1.334 . S
C1668 H1639 0.950 . S
C1668 C1667 1.334 . S
C1668 C1669 1.287 . S
C1669 C1668 1.287 . S
C1669 C1670 1.524 . S
C1669 H1672 0.999 . S
C1670 H1640 0.950 . S
C1670 C1669 1.524 . S
C1670 C1671 1.415 . S
C1671 H1641 0.950 1_556 S
C1671 C1666 1.363 . S
C1671 C1670 1.415 . S
H1672 C1669 0.999 . S
H1673 C1654 0.913 . S
H1674 C1692 0.951 . S
H1675 C1694 0.951 . S
H1676 C1696 0.950 . S
H1677 C1697 0.950 . S
H1678 C1699 0.950 . S
H1679 C1702 0.950 . S
H1680 C1703 0.950 . S
H1681 C1705 0.950 . S
H1682 C1706 0.950 . S
H1683 C1707 0.951 . S
H1684 C1709 0.951 . S
H1685 C1711 0.950 . S
H1686 C1712 0.950 . S
H1687 C1714 0.950 . S
H1688 C1717 0.950 . S
H1689 C1718 0.950 . S
H1690 C1720 0.950 . S
H1691 C1721 0.950 . S
C1692 H1674 0.951 . S
C1692 C1693 1.366 . S
C1692 C1694 1.388 . S
C1693 C1692 1.366 . S
C1693 C1697 1.385 . S
C1694 H1675 0.951 . S
C1694 C1692 1.388 . S
C1694 C1695 1.366 . S
C1695 C1694 1.366 . S
C1695 C1696 1.414 . S
C1695 C1698 1.499 . S
C1696 H1676 0.950 . S
C1696 C1695 1.414 . S
C1696 C1697 1.374 . S
C1697 H1677 0.950 . S
C1697 C1693 1.385 . S
C1697 C1696 1.374 . S
C1698 C1695 1.499 . S
C1698 C1699 1.373 . S
C1698 C1700 1.389 . S
C1699 H1678 0.950 . S
C1699 C1698 1.373 . S
C1699 C1715 1.377 . S
C1700 C1698 1.389 . S
C1700 C1701 1.524 . S
C1700 C1714 1.377 . S
C1701 C1700 1.524 . S
C1701 C1702 1.397 . S
C1701 C1706 1.363 . S
C1702 H1679 0.950 . S
C1702 C1701 1.397 . S
C1702 C1703 1.334 . S
C1703 H1680 0.950 . S
C1703 C1702 1.334 . S
C1703 C1704 1.287 . S
C1704 C1703 1.287 . S
C1704 C1705 1.524 . S
C1704 H1723 0.913 . S
C1705 H1681 0.950 . S
C1705 C1704 1.524 . S
C1705 C1706 1.415 . S
C1706 H1682 0.950 . S
C1706 C1701 1.363 . S
C1706 C1705 1.415 . S
C1707 H1683 0.951 . S
C1707 C1708 1.366 . S
C1707 C1709 1.388 . S
C1708 C1707 1.366 . S
C1708 C1712 1.385 . S
C1709 H1684 0.951 . S
C1709 C1707 1.388 . S
C1709 C1710 1.366 . S
C1710 C1709 1.366 . S
C1710 C1711 1.414 . S
C1710 C1713 1.499 . S
C1711 H1685 0.950 . S
C1711 C1710 1.414 . S
C1711 C1712 1.374 . S
C1712 H1686 0.950 . S
C1712 C1708 1.385 . S
C1712 C1711 1.374 . S
C1713 C1710 1.499 . S
C1713 C1714 1.373 . S
C1713 C1715 1.389 . S
C1714 H1687 0.950 . S
C1714 C1700 1.377 . S
C1714 C1713 1.373 . S
C1715 C1699 1.377 . S
C1715 C1713 1.389 . S
C1715 C1716 1.524 . S
C1716 C1715 1.524 . S
C1716 C1717 1.397 . S
C1716 C1721 1.363 . S
C1717 H1688 0.950 . S
C1717 C1716 1.397 . S
C1717 C1718 1.334 . S
C1718 H1689 0.950 . S
C1718 C1717 1.334 . S
C1718 C1719 1.287 . S
C1719 C1718 1.287 . S
C1719 C1720 1.524 . S
C1719 H1722 0.999 . S
C1720 H1690 0.950 . S
C1720 C1719 1.524 . S
C1720 C1721 1.415 . S
C1721 H1691 0.950 . S
C1721 C1716 1.363 . S
C1721 C1720 1.415 . S
H1722 C1719 0.999 . S
H1723 C1704 0.913 . S
H1724 C1742 0.951 . S
H1725 C1744 0.951 . S
H1726 C1746 0.950 . S
H1727 C1747 0.950 . S
H1728 C1749 0.950 . S
H1729 C1752 0.950 . S
H1730 C1753 0.950 . S
H1731 C1755 0.950 . S
H1732 C1756 0.950 . S
H1733 C1757 0.951 . S
H1734 C1759 0.951 . S
H1735 C1761 0.950 . S
H1736 C1762 0.950 . S
H1737 C1764 0.950 . S
H1738 C1767 0.950 . S
H1739 C1768 0.950 . S
H1740 C1770 0.950 . S
H1741 C1771 0.950 . S
C1742 H1724 0.951 . S
C1742 C1743 1.366 . S
C1742 C1744 1.388 . S
C1743 C1742 1.366 . S
C1743 C1747 1.385 . S
C1744 H1725 0.951 . S
C1744 C1742 1.388 . S
C1744 C1745 1.366 . S
C1745 C1744 1.366 . S
C1745 C1746 1.414 . S
C1745 C1748 1.499 . S
C1746 H1726 0.950 . S
C1746 C1745 1.414 . S
C1746 C1747 1.374 . S
C1747 H1727 0.950 . S
C1747 C1743 1.385 . S
C1747 C1746 1.374 . S
C1748 C1745 1.499 . S
C1748 C1749 1.373 . S
C1748 C1750 1.389 . S
C1749 H1728 0.950 . S
C1749 C1748 1.373 . S
C1749 C1765 1.377 . S
C1750 C1748 1.389 . S
C1750 C1751 1.524 . S
C1750 C1764 1.377 . S
C1751 C1750 1.524 . S
C1751 C1752 1.397 . S
C1751 C1756 1.363 . S
C1752 H1729 0.950 . S
C1752 C1751 1.397 . S
C1752 C1753 1.334 . S
C1753 H1730 0.950 . S
C1753 C1752 1.334 . S
C1753 C1754 1.287 . S
C1754 C1753 1.287 . S
C1754 C1755 1.524 . S
C1754 H1773 0.913 . S
C1755 H1731 0.950 . S
C1755 C1754 1.524 . S
C1755 C1756 1.415 . S
C1756 H1732 0.950 . S
C1756 C1751 1.363 . S
C1756 C1755 1.415 . S
C1757 H1733 0.951 . S
C1757 C1758 1.366 . S
C1757 C1759 1.388 . S
C1758 C1757 1.366 . S
C1758 C1762 1.385 . S
C1759 H1734 0.951 . S
C1759 C1757 1.388 . S
C1759 C1760 1.366 . S
C1760 C1759 1.366 . S
C1760 C1761 1.414 . S
C1760 C1763 1.499 . S
C1761 H1735 0.950 . S
C1761 C1760 1.414 . S
C1761 C1762 1.374 . S
C1762 H1736 0.950 . S
C1762 C1758 1.385 . S
C1762 C1761 1.374 . S
C1763 C1760 1.499 . S
C1763 C1764 1.373 . S
C1763 C1765 1.389 . S
C1764 H1737 0.950 . S
C1764 C1750 1.377 . S
C1764 C1763 1.373 . S
C1765 C1749 1.377 . S
C1765 C1763 1.389 . S
C1765 C1766 1.524 . S
C1766 C1765 1.524 . S
C1766 C1767 1.397 . S
C1766 C1771 1.363 . S
C1767 H1738 0.950 . S
C1767 C1766 1.397 . S
C1767 C1768 1.334 . S
C1768 H1739 0.950 . S
C1768 C1767 1.334 . S
C1768 C1769 1.287 . S
C1769 C1768 1.287 . S
C1769 C1770 1.524 . S
C1769 H1772 0.999 . S
C1770 H1740 0.950 . S
C1770 C1769 1.524 . S
C1770 C1771 1.415 . S
C1771 H1741 0.950 . S
C1771 C1766 1.363 . S
C1771 C1770 1.415 . S
H1772 C1769 0.999 . S
H1773 C1754 0.913 . S
H1774 C1792 0.951 . S
H1775 C1794 0.951 . S
H1776 C1796 0.950 . S
H1777 C1797 0.950 . S
H1778 C1799 0.950 . S
H1779 C1802 0.950 . S
H1780 C1803 0.950 . S
H1781 C1805 0.950 . S
H1782 C1806 0.950 . S
H1783 C1807 0.951 . S
H1784 C1809 0.951 . S
H1785 C1811 0.950 . S
H1786 C1812 0.950 . S
H1787 C1814 0.950 . S
H1788 C1817 0.950 . S
H1789 C1818 0.950 . S
H1790 C1820 0.950 . S
H1791 C1821 0.950 . S
C1792 H1774 0.951 . S
C1792 C1793 1.366 . S
C1792 C1794 1.388 . S
C1793 C1792 1.366 . S
C1793 C1797 1.385 . S
C1794 H1775 0.951 . S
C1794 C1792 1.388 . S
C1794 C1795 1.366 . S
C1795 C1794 1.366 . S
C1795 C1796 1.414 . S
C1795 C1798 1.499 . S
C1796 H1776 0.950 . S
C1796 C1795 1.414 . S
C1796 C1797 1.374 . S
C1797 H1777 0.950 . S
C1797 C1793 1.385 . S
C1797 C1796 1.374 . S
C1798 C1795 1.499 . S
C1798 C1799 1.373 . S
C1798 C1800 1.389 . S
C1799 H1778 0.950 . S
C1799 C1798 1.373 . S
C1799 C1815 1.377 . S
C1800 C1798 1.389 . S
C1800 C1801 1.524 . S
C1800 C1814 1.377 . S
C1801 C1800 1.524 . S
C1801 C1802 1.397 . S
C1801 C1806 1.363 . S
C1802 H1779 0.950 . S
C1802 C1801 1.397 . S
C1802 C1803 1.334 . S
C1803 H1780 0.950 . S
C1803 C1802 1.334 . S
C1803 C1804 1.287 . S
C1804 C1803 1.287 . S
C1804 C1805 1.524 . S
C1804 H1823 0.913 . S
C1805 H1781 0.950 . S
C1805 C1804 1.524 . S
C1805 C1806 1.415 . S
C1806 H1782 0.950 . S
C1806 C1801 1.363 . S
C1806 C1805 1.415 . S
C1807 H1783 0.951 . S
C1807 C1808 1.366 . S
C1807 C1809 1.388 . S
C1808 C1807 1.366 . S
C1808 C1812 1.385 . S
C1809 H1784 0.951 . S
C1809 C1807 1.388 . S
C1809 C1810 1.366 . S
C1810 C1809 1.366 . S
C1810 C1811 1.414 . S
C1810 C1813 1.499 . S
C1811 H1785 0.950 . S
C1811 C1810 1.414 . S
C1811 C1812 1.374 . S
C1812 H1786 0.950 . S
C1812 C1808 1.385 . S
C1812 C1811 1.374 . S
C1813 C1810 1.499 . S
C1813 C1814 1.373 . S
C1813 C1815 1.389 . S
C1814 H1787 0.950 . S
C1814 C1800 1.377 . S
C1814 C1813 1.373 . S
C1815 C1799 1.377 . S
C1815 C1813 1.389 . S
C1815 C1816 1.524 . S
C1816 C1815 1.524 . S
C1816 C1817 1.397 . S
C1816 C1821 1.363 . S
C1817 H1788 0.950 . S
C1817 C1816 1.397 . S
C1817 C1818 1.334 . S
C1818 H1789 0.950 . S
C1818 C1817 1.334 . S
C1818 C1819 1.287 . S
C1819 C1818 1.287 . S
C1819 C1820 1.524 . S
C1819 H1822 0.999 . S
C1820 H1790 0.950 . S
C1820 C1819 1.524 . S
C1820 C1821 1.415 . S
C1821 H1791 0.950 . S
C1821 C1816 1.363 . S
C1821 C1820 1.415 . S
H1822 C1819 0.999 . S
H1823 C1804 0.913 . S
C243 C151 1.525 . S
C258 C11 1.525 . S
C293 C25 1.525 . S
C308 C165 1.525 . S
C343 C123 1.525 . S
C358 C39 1.525 . S
C393 C137 1.525 . S
C408 C53 1.525 . S
C443 C67 1.525 . S
C458 C207 1.525 . S
C493 C221 1.525 . S
C508 C81 1.525 . S
C543 C95 1.525 . S
C558 C179 1.525 . S
C593 C193 1.525 . S
C608 C109 1.525 . S
C643 C145 1.565 . S
C658 C5 1.565 . S
C693 C19 1.564 . S
C708 C159 1.564 . S
C743 C33 1.565 . S
C758 C117 1.565 . S
C793 C47 1.564 . S
C808 C131 1.564 . S
C843 C61 1.564 . S
C858 C201 1.564 . S
C893 C75 1.565 . S
C908 C215 1.565 . S
C943 C173 1.564 . S
C958 C89 1.564 . S
C993 C187 1.565 . S
C1008 C103 1.565 . S
C1043 C9 1.133 . S
C1058 C93 1.132 . S
C1093 C23 1.131 . S
C1108 C107 1.133 . S
C1143 C37 1.133 . S
C1158 C65 1.132 . S
C1193 C51 1.133 . S
C1208 C79 1.131 . S
C1243 C121 1.133 . S
C1258 C205 1.131 . S
C1293 C219 1.133 . S
C1308 C135 1.131 . S
C1343 C149 1.132 . S
C1358 C177 1.132 . S
C1393 C191 1.132 . S
C1408 C163 1.132 . S
C1443 C0 1.107 . S
C1458 C210 1.106 . S
C1493 C168 1.106 . S
C1508 C14 1.106 . S
C1543 C182 1.106 . S
C1558 C28 1.107 . S
C1593 C196 1.106 . S
C1608 C42 1.106 . S
C1643 C126 1.107 . S
C1658 C56 1.106 . S
C1693 C140 1.106 . S
C1708 C70 1.107 . S
C1743 C84 1.106 . S
C1758 C154 1.106 . S
C1793 C98 1.106 . S
C1808 C112 1.107 . S
