# Generated by pormake.
# Topology lcy, (6)-cn, num edge types: 1
# Building blocks:
#     Node 0, Type 0, BuildingBlock: CIFDUS_clean_sbu_1, # of connection points: 6
#     Node 1, Type 0, BuildingBlock: CIFDUS_clean_sbu_1, # of connection points: 6
#     Node 2, Type 0, BuildingBlock: CIFDUS_clean_sbu_1, # of connection points: 6
#     Node 3, Type 0, BuildingBlock: CIFDUS_clean_sbu_1, # of connection points: 6
#     Edge 4, Type (0, 0), BuildingBlock: ZUJKAS_clean_linker_0, # of connection points: 2
#     Edge 5, Type (0, 0), BuildingBlock: ZUJKAS_clean_linker_0, # of connection points: 2
#     Edge 6, Type (0, 0), BuildingBlock: ZUJKAS_clean_linker_0, # of connection points: 2
#     Edge 7, Type (0, 0), BuildingBlock: ZUJKAS_clean_linker_0, # of connection points: 2
#     Edge 8, Type (0, 0), BuildingBlock: ZUJKAS_clean_linker_0, # of connection points: 2
#     Edge 9, Type (0, 0), BuildingBlock: ZUJKAS_clean_linker_0, # of connection points: 2
#     Edge 10, Type (0, 0), BuildingBlock: ZUJKAS_clean_linker_0, # of connection points: 2
#     Edge 11, Type (0, 0), BuildingBlock: ZUJKAS_clean_linker_0, # of connection points: 2
#     Edge 12, Type (0, 0), BuildingBlock: ZUJKAS_clean_linker_0, # of connection points: 2
#     Edge 13, Type (0, 0), BuildingBlock: ZUJKAS_clean_linker_0, # of connection points: 2
#     Edge 14, Type (0, 0), BuildingBlock: ZUJKAS_clean_linker_0, # of connection points: 2
#     Edge 15, Type (0, 0), BuildingBlock: ZUJKAS_clean_linker_0, # of connection points: 2
# Relax obj value: 0.335
# Max RMSD: 0.278
# Mean RMSD: 0.275
data_MOF--net-lcy--node1-CIFDUS_clean_sbu_1--edge1-ZUJKAS_clean_linker_0
_symmetry_space_group_name_H-M    P1
_symmetry_Int_Tables_number       1
_symmetry_cell_setting            triclinic
loop_
_symmetry_equiv_pos_as_xyz
'x, y, z'
_cell_length_a     31.916688
_cell_length_b     32.01675
_cell_length_c     33.349268
_cell_angle_alpha  90.327221
_cell_angle_beta   89.652
_cell_angle_gamma 90.971593
loop_
_atom_site_label
_atom_site_type_symbol
_atom_site_fract_x
_atom_site_fract_y
_atom_site_fract_z
_atom_type_partial_charge
O0 O 0.40964 0.41525 0.34724 0.0
Mn1 Mn 0.36966 0.37205 0.37405 0.0
O2 O 0.45524 0.43989 0.39276 0.0
Mn3 Mn 0.42882 0.41323 0.4353 0.0
O4 O 0.32595 0.32953 0.40103 0.0
O5 O 0.33082 0.38474 0.32516 0.0
Mn6 Mn 0.31889 0.33275 0.31027 0.0
O7 O 0.40098 0.32278 0.34421 0.0
O8 O 0.2905 0.30384 0.34856 0.0
O9 O 0.33869 0.41942 0.40824 0.0
O10 O 0.38372 0.43981 0.4566 0.0
O11 O 0.28759 0.36146 0.27664 0.0
O12 O 0.36457 0.30698 0.28944 0.0
C13 C 0.44089 0.34932 0.44351 0.0
C14 C 0.441 0.43833 0.35722 0.0
C15 C 0.29603 0.30694 0.38595 0.0
C16 C 0.3063 0.39269 0.29432 0.0
C17 C 0.39606 0.30196 0.3115 0.0
C18 C 0.34792 0.44051 0.4404 0.0
O19 O 0.41253 0.3628 0.41881 0.0
O20 O 0.45818 0.37771 0.46611 0.0
O21 O 0.82489 0.07612 0.5779 0.0
Mn22 Mn 0.85819 0.10851 0.62177 0.0
O23 O 0.8656 0.02578 0.55277 0.0
Mn24 Mn 0.91368 0.04618 0.57675 0.0
O25 O 0.89162 0.14462 0.66431 0.0
O26 O 0.81329 0.15313 0.61732 0.0
Mn27 Mn 0.79857 0.16639 0.66699 0.0
O28 O 0.82419 0.07718 0.66597 0.0
O29 O 0.84492 0.18852 0.69184 0.0
O30 O 0.89566 0.13964 0.57864 0.0
O31 O 0.93921 0.09145 0.55302 0.0
O32 O 0.76653 0.19921 0.63569 0.0
O33 O 0.77468 0.11957 0.68984 0.0
C34 C 0.92442 0.03102 0.63735 0.0
C35 C 0.83084 0.04436 0.55526 0.0
C36 C 0.88206 0.17568 0.68719 0.0
C37 C 0.78432 0.17902 0.60666 0.0
C38 C 0.79189 0.08423 0.68771 0.0
C39 C 0.92698 0.12883 0.55651 0.0
O40 O 0.90031 0.06129 0.62629 0.0
O41 O 0.94383 0.012 0.60855 0.0
O42 O 0.16761 0.65781 0.89673 0.0
Mn43 Mn 0.12355 0.6189 0.86904 0.0
O44 O 0.1894 0.70657 0.8532 0.0
Mn45 Mn 0.16381 0.68007 0.81044 0.0
O46 O 0.08084 0.57648 0.84038 0.0
O47 O 0.13569 0.57892 0.91758 0.0
Mn48 Mn 0.08306 0.56448 0.9296 0.0
O49 O 0.07476 0.6495 0.90014 0.0
O50 O 0.05725 0.53549 0.88993 0.0
O51 O 0.17133 0.58903 0.83397 0.0
O52 O 0.19238 0.6368 0.78859 0.0
O53 O 0.11126 0.53345 0.96371 0.0
O54 O 0.05369 0.60816 0.9501 0.0
C55 C 0.10073 0.69127 0.79958 0.0
C56 C 0.1896 0.6903 0.88781 0.0
C57 C 0.05976 0.54446 0.85321 0.0
C58 C 0.14287 0.5536 0.94808 0.0
C59 C 0.05152 0.64197 0.93091 0.0
C60 C 0.1934 0.60028 0.80293 0.0
O61 O 0.11297 0.66301 0.8252 0.0
O62 O 0.12997 0.70933 0.77845 0.0
O63 O 0.65582 0.89913 0.16562 0.0
Mn64 Mn 0.62128 0.86862 0.12095 0.0
O65 O 0.7107 0.85962 0.17996 0.0
Mn66 Mn 0.6855 0.81254 0.15913 0.0
O67 O 0.58454 0.83873 0.07705 0.0
O68 O 0.57689 0.91375 0.13008 0.0
Mn69 Mn 0.56916 0.93266 0.08085 0.0
O70 O 0.65285 0.90238 0.07684 0.0
O71 O 0.54946 0.89055 0.0481 0.0
O72 O 0.59109 0.83148 0.16479 0.0
O73 O 0.64209 0.79102 0.18879 0.0
O74 O 0.53228 0.96197 0.10987 0.0
O75 O 0.61719 0.95953 0.06395 0.0
C76 C 0.69427 0.79886 0.0985 0.0
C77 C 0.69027 0.89298 0.18396 0.0
C78 C 0.5587 0.85224 0.05085 0.0
C79 C 0.54921 0.94209 0.13924 0.0
C80 C 0.64969 0.93789 0.06006 0.0
C81 C 0.60426 0.80275 0.18832 0.0
O82 O 0.66625 0.82495 0.11148 0.0
O83 O 0.71488 0.77919 0.1257 0.0
H84 H 0.21092 0.50251 0.94558 0.0
H85 H 0.24991 0.48227 0.00579 0.0
H86 H 0.19108 0.58077 0.07279 0.0
H87 H 0.15367 0.6019 0.01269 0.0
H88 H 0.29724 0.54909 0.07786 0.0
H89 H 0.1615 0.44377 0.11283 0.0
H90 H 0.1758 0.45703 0.06191 0.0
H91 H 0.15117 0.49502 0.09343 0.0
C92 C 0.20857 0.52157 0.97241 0.0
C93 C 0.1805 0.555 0.97374 0.0
C94 C 0.2301 0.50938 0.00712 0.0
C95 C 0.22322 0.52984 0.04397 0.0
C96 C 0.19733 0.56479 0.04472 0.0
H97 H 0.24512 0.45057 0.2916 0.0
H98 H 0.22781 0.48836 0.23041 0.0
C99 C 0.17662 0.57744 0.00999 0.0
C100 C 0.23999 0.51322 0.0824 0.0
H101 H 0.21309 0.45184 0.16248 0.0
C102 C 0.27906 0.52762 0.09633 0.0
C103 C 0.21609 0.48546 0.10663 0.0
C104 C 0.17383 0.46909 0.09314 0.0
C105 C 0.29454 0.51573 0.13413 0.0
C106 C 0.27056 0.48807 0.15869 0.0
C107 C 0.23157 0.4733 0.14426 0.0
C108 C 0.28523 0.47329 0.19897 0.0
C109 C 0.3359 0.53416 0.14771 0.0
C110 C 0.3244 0.45431 0.20326 0.0
C111 C 0.33514 0.43458 0.23918 0.0
C112 C 0.30648 0.43192 0.27131 0.0
C113 C 0.26861 0.45341 0.26814 0.0
C114 C 0.25823 0.47408 0.23255 0.0
H115 H 0.34302 0.56428 0.13253 0.0
H116 H 0.33628 0.5395 0.18062 0.0
H117 H 0.3613 0.51231 0.13975 0.0
H118 H 0.34549 0.45174 0.17788 0.0
H119 H 0.36367 0.4167 0.23985 0.0
H120 H 0.71848 0.97422 0.19459 0.0
H121 H 0.73708 0.00667 0.25982 0.0
H122 H 0.69623 0.89432 0.32058 0.0
H123 H 0.6785 0.86218 0.25643 0.0
H124 H 0.68501 0.0163 0.33348 0.0
H125 H 0.82027 0.91172 0.35362 0.0
H126 H 0.79604 0.91958 0.3055 0.0
H127 H 0.77207 0.88499 0.34154 0.0
C128 C 0.71335 0.95699 0.22209 0.0
C129 C 0.69786 0.91581 0.22109 0.0
C130 C 0.7239 0.97528 0.25902 0.0
C131 C 0.71878 0.9523 0.29457 0.0
C132 C 0.7012 0.91205 0.29332 0.0
H133 H 0.79094 0.97007 0.54176 0.0
H134 H 0.75597 0.94953 0.47915 0.0
C135 C 0.69103 0.89388 0.25684 0.0
C136 C 0.73232 0.96925 0.33344 0.0
H137 H 0.79765 0.94952 0.41108 0.0
C138 C 0.70992 0.00219 0.35045 0.0
C139 C 0.76441 0.95006 0.35534 0.0
C140 C 0.78985 0.91485 0.33798 0.0
C141 C 0.71803 0.01587 0.38966 0.0
C142 C 0.74998 -0.00347 0.41175 0.0
C143 C 0.77278 0.96395 0.3943 0.0
C144 C 0.76217 0.01081 0.45222 0.0
C145 C 0.69147 0.04997 0.40736 0.0
C146 C 0.7755 0.05231 0.4583 0.0
C147 C 0.79374 0.06428 0.49445 0.0
C148 C 0.80024 0.03453 0.52431 0.0
C149 C 0.78543 -0.00654 0.51913 0.0
C150 C 0.76591 0.98177 0.48339 0.0
H151 H 0.6605 0.05133 0.39243 0.0
H152 H 0.68632 0.04544 0.44001 0.0
H153 H 0.70758 0.08057 0.40281 0.0
H154 H 0.7744 0.07482 0.43424 0.0
H155 H 0.80623 0.09582 0.49762 0.0
H156 H 0.17226 0.52126 0.7758 0.0
H157 H 0.20011 0.49007 0.71388 0.0
H158 H 0.29471 0.58779 0.70801 0.0
H159 H 0.26958 0.61613 0.77092 0.0
H160 H 0.19463 0.5248 0.64613 0.0
H161 H 0.3646 0.50169 0.66412 0.0
H162 H 0.33111 0.51186 0.70664 0.0
H163 H 0.35136 0.55427 0.67632 0.0
C164 C 0.20072 0.53423 0.7627 0.0
C165 C 0.21878 0.57101 0.77849 0.0
C166 C 0.2162 0.51699 0.7267 0.0
C167 C 0.24971 0.5364 0.70563 0.0
C168 C 0.2698 0.57107 0.72351 0.0
H169 H 0.35075 0.52193 0.46237 0.0
H170 H 0.32209 0.54898 0.5254 0.0
C171 C 0.25519 0.58744 0.75982 0.0
C172 C 0.25974 0.52429 0.66305 0.0
H173 H 0.3399 0.50683 0.59653 0.0
C174 C 0.22645 0.52018 0.63565 0.0
C175 C 0.30132 0.51933 0.64847 0.0
C176 C 0.33899 0.52167 0.6756 0.0
C177 C 0.23336 0.51133 0.59473 0.0
C178 C 0.27469 0.50613 0.5804 0.0
C179 C 0.30811 0.51085 0.60743 0.0
C180 C 0.28413 0.49396 0.53798 0.0
C181 C 0.19634 0.50852 0.56691 0.0
C182 C 0.27047 0.45504 0.52264 0.0
C183 C 0.2863 0.43982 0.48605 0.0
C184 C 0.31631 0.46312 0.46432 0.0
C185 C 0.32685 0.50368 0.4779 0.0
C186 C 0.31108 0.51887 0.51437 0.0
H187 H 0.16845 0.52407 0.57984 0.0
H188 H 0.20396 0.52291 0.53748 0.0
H189 H 0.18801 0.47516 0.56166 0.0
H190 H 0.25024 0.43489 0.54048 0.0
H191 H 0.27873 0.40796 0.47723 0.0
H192 H 0.63382 0.89874 0.99189 0.0
H193 H 0.66025 0.91723 0.9253 0.0
H194 H 0.74201 0.01091 0.97798 0.0
H195 H 0.71431 -0.00681 0.04525 0.0
H196 H 0.65988 0.01355 0.89875 0.0
H197 H 0.8084 0.9244 0.89365 0.0
H198 H 0.76452 0.90846 0.92481 0.0
H199 H 0.7955 0.95344 0.93845 0.0
C200 C 0.65829 0.9225 0.98922 0.0
C201 C 0.67288 0.94426 0.0231 0.0
C202 C 0.67296 0.93318 0.95139 0.0
C203 C 0.70285 0.96522 0.94724 0.0
C204 C 0.71885 0.98601 0.98117 0.0
H205 H 0.83483 0.07616 0.75476 0.0
H206 H 0.81006 0.04356 0.81655 0.0
C207 C 0.70348 0.9758 0.01925 0.0
C208 C 0.71569 0.97787 0.90695 0.0
H209 H 0.79276 0.96544 0.83748 0.0
C210 C 0.68889 0.00323 0.88508 0.0
C211 C 0.75318 0.96359 0.88977 0.0
C212 C 0.7822 0.93579 0.91262 0.0
C213 C 0.69957 0.01612 0.84627 0.0
C214 C 0.73747 0.00206 0.82899 0.0
C215 C 0.76361 0.9758 0.8508 0.0
C216 C 0.75316 0.01792 0.79034 0.0
C217 C 0.67114 0.04591 0.82497 0.0
C218 C 0.72986 0.01317 0.75495 0.0
C219 C 0.7437 0.03257 0.71975 0.0
C220 C 0.78154 0.05535 0.71969 0.0
C221 C 0.80602 0.05771 0.75428 0.0
C222 C 0.79177 0.03941 0.7895 0.0
H223 H 0.64797 0.06013 0.84573 0.0
H224 H 0.68962 0.07137 0.81041 0.0
H225 H 0.65349 0.02873 0.80134 0.0
H226 H 0.70047 -0.00422 0.75491 0.0
H227 H 0.72432 0.03115 0.6932 0.0
H228 H 0.93633 0.16028 0.48084 0.0
H229 H 0.00193 0.19155 0.45417 0.0
H230 H 0.05478 0.19093 0.57281 0.0
H231 H 0.98921 0.16151 0.59953 0.0
H232 H 0.05487 0.2715 0.49588 0.0
H233 H 0.12807 0.11543 0.48125 0.0
H234 H 0.07222 0.12268 0.47724 0.0
H235 H 0.09675 0.12536 0.52539 0.0
C236 C 0.96129 0.16889 0.50131 0.0
C237 C 0.9574 0.16016 0.54238 0.0
C238 C -0.00112 0.18586 0.48605 0.0
C239 C 0.03312 0.19293 0.51163 0.0
C240 C 0.0286 0.1857 0.55276 0.0
H241 H 0.29397 0.28398 0.46725 0.0
H242 H 0.23245 0.25381 0.50354 0.0
C243 C 0.99094 0.16971 0.56806 0.0
C244 C 0.07408 0.20752 0.49593 0.0
H245 H 0.1721 0.17457 0.47056 0.0
C246 C 0.0806 0.25042 0.49058 0.0
C247 C 0.10733 0.17968 0.48896 0.0
C248 C 0.10102 0.13312 0.49321 0.0
C249 C 0.11979 0.26643 0.47856 0.0
C250 C 0.15327 0.23879 0.47188 0.0
C251 C 0.14675 0.19573 0.47713 0.0
C252 C 0.19195 0.2536 0.45164 0.0
C253 C 0.12487 0.31278 0.47175 0.0
C254 C 0.18926 0.26265 0.41101 0.0
C255 C 0.22337 0.27953 0.39079 0.0
C256 C 0.2618 0.28773 0.41038 0.0
C257 C 0.26495 0.27814 0.45135 0.0
C258 C 0.23005 0.26081 0.47192 0.0
H259 H 0.09976 0.33069 0.48692 0.0
H260 H 0.1558 0.32429 0.48266 0.0
H261 H 0.12328 0.31908 0.4391 0.0
H262 H 0.16017 0.25748 0.39494 0.0
H263 H 0.21888 0.28698 0.35948 0.0
H264 H 0.0331 0.68372 0.75042 0.0
H265 H 0.99011 0.74359 0.73193 0.0
H266 H 0.04305 0.81494 0.82965 0.0
H267 H 0.08469 0.75497 0.84889 0.0
H268 H 0.94082 0.81807 0.80106 0.0
H269 H 0.06978 0.85454 0.69266 0.0
H270 H 0.05592 0.80136 0.70543 0.0
H271 H 0.08254 0.83398 0.74126 0.0
C272 C 0.03328 0.71115 0.76959 0.0
C273 C 0.06113 0.71404 0.80202 0.0
C274 C 0.00943 0.74569 0.75848 0.0
C275 C 0.01365 0.78381 0.77928 0.0
C276 C 0.03891 0.78571 0.8135 0.0
H277 H 0.98422 0.0358 0.69447 0.0
H278 H 0.00245 0.97604 0.73593 0.0
C279 C 0.06206 0.75104 0.825 0.0
C280 C -0.00456 0.82278 0.7633 0.0
H281 H 0.01702 0.90409 0.70016 0.0
C282 C 0.95726 0.83689 0.77886 0.0
C283 C 0.01718 0.84733 0.73456 0.0
C284 C 0.05861 0.83377 0.71723 0.0
C285 C 0.94038 0.87521 0.76678 0.0
C286 C 0.96219 0.90002 0.73812 0.0
C287 C 0.00034 0.88552 0.7224 0.0
C288 C 0.94587 0.94041 0.72275 0.0
C289 C 0.89983 0.88909 0.78561 0.0
C290 C 0.90663 0.94192 0.70392 0.0
C291 C 0.89551 0.97697 0.68161 0.0
C292 C 0.92386 0.01064 0.67671 0.0
C293 C 0.96123 0.01089 0.69867 0.0
C294 C 0.97206 0.97621 0.72164 0.0
H295 H 0.89443 0.87415 0.81523 0.0
H296 H 0.89939 0.92353 0.78961 0.0
H297 H 0.87344 0.87965 0.76585 0.0
H298 H 0.88615 0.91464 0.7033 0.0
H299 H 0.8672 0.97525 0.66383 0.0
H300 H 0.23858 0.64037 0.9317 0.0
H301 H 0.30614 0.65977 0.96138 0.0
H302 H 0.28525 0.78903 0.93328 0.0
H303 H 0.21798 0.76965 0.90232 0.0
H304 H 0.36986 0.71371 0.90643 0.0
H305 H 0.32813 0.77438 0.05822 0.0
H306 H 0.29515 0.73706 0.03176 0.0
H307 H 0.29729 0.79051 0.0161 0.0
C308 C 0.2477 0.67311 0.93313 0.0
C309 C 0.22317 0.70368 0.91503 0.0
C310 C 0.2864 0.684 0.94967 0.0
C311 C 0.30041 0.72565 0.94917 0.0
C312 C 0.27469 0.75669 0.93373 0.0
H313 H 0.51719 0.87053 0.98261 0.0
H314 H 0.4589 0.83084 0.95414 0.0
C315 C 0.23634 0.74571 0.91639 0.0
C316 C 0.3433 0.73626 0.96185 0.0
H317 H 0.39895 0.78208 0.03744 0.0
C318 C 0.37646 0.72819 0.93524 0.0
C319 C 0.35129 0.75525 -0.00071 0.0
C320 C 0.31623 0.76477 0.02826 0.0
C321 C 0.41775 0.73984 0.94492 0.0
C322 C 0.42568 0.75921 0.98222 0.0
C323 C 0.39259 0.76637 0.00916 0.0
C324 C 0.46704 0.77719 0.99215 0.0
C325 C 0.45257 0.73244 0.91511 0.0
C326 C 0.49186 0.75918 0.02179 0.0
C327 C 0.52543 0.7819 0.0384 0.0
C328 C 0.53376 0.82303 0.02585 0.0
C329 C 0.51128 0.83906 0.9933 0.0
C330 C 0.47801 0.81642 0.9768 0.0
H331 H 0.44201 0.71304 0.88924 0.0
H332 H 0.46447 0.76292 0.90365 0.0
H333 H 0.47907 0.71686 0.93002 0.0
H334 H 0.48358 0.72878 0.03384 0.0
H335 H 0.5423 0.76872 0.06327 0.0
H336 H 0.36239 0.22721 0.29529 0.0
H337 H 0.39713 0.16332 0.27601 0.0
H338 H 0.51757 0.22473 0.29022 0.0
H339 H 0.4822 0.28981 0.31064 0.0
H340 H 0.44921 0.15613 0.20905 0.0
H341 H 0.52914 0.11189 0.35015 0.0
H342 H 0.48692 0.14873 0.34941 0.0
H343 H 0.53815 0.16417 0.33205 0.0
C344 C 0.39635 0.2272 0.29455 0.0
C345 C 0.41969 0.26356 0.30383 0.0
C346 C 0.41613 0.19059 0.28358 0.0
C347 C 0.45985 0.18924 0.28151 0.0
C348 C 0.4837 0.22509 0.292 0.0
H349 H 0.6051 0.98404 0.18523 0.0
H350 H 0.58465 0.04503 0.22497 0.0
C351 C 0.46364 0.26215 0.30353 0.0
C352 C 0.4792 0.1504 0.26637 0.0
H353 H 0.53562 0.06596 0.29498 0.0
C354 C 0.4684 0.13655 0.22772 0.0
C355 C 0.50395 0.12488 0.29088 0.0
C356 C 0.51515 0.13781 0.33306 0.0
C357 C 0.48119 0.09764 0.21307 0.0
C358 C 0.50508 0.07154 0.238 0.0
C359 C 0.51697 0.08587 0.27619 0.0
C360 C 0.51841 0.02964 0.22422 0.0
C361 C 0.46904 0.08494 0.17095 0.0
C362 C 0.48838 -0.00099 0.2138 0.0
C363 C 0.50012 0.96399 0.1915 0.0
C364 C 0.54203 0.95906 0.17951 0.0
C365 C 0.57275 0.98656 0.1949 0.0
C366 C 0.56096 0.02189 0.21693 0.0
H367 H 0.45932 0.11214 0.15287 0.0
H368 H 0.49541 0.06944 0.15531 0.0
H369 H 0.44218 0.0625 0.17226 0.0
H370 H 0.45545 0.00398 0.21985 0.0
H371 H 0.47577 0.94368 0.17934 0.0
H372 H 0.79054 0.23778 0.54861 0.0
H373 H 0.73102 0.25721 0.50671 0.0
H374 H 0.66536 0.14435 0.54154 0.0
H375 H 0.72524 0.12436 0.58231 0.0
H376 H 0.6703 0.20215 0.44434 0.0
H377 H 0.60646 0.26122 0.58926 0.0
H378 H 0.66194 0.25485 0.58076 0.0
H379 H 0.62877 0.20989 0.58868 0.0
C380 C 0.76462 0.21581 0.54504 0.0
C381 C 0.76299 0.17902 0.5678 0.0
C382 C 0.73028 0.2273 0.52174 0.0
C383 C 0.69363 0.20242 0.52142 0.0
C384 C 0.69344 0.16386 0.5412 0.0
H385 H 0.43638 0.27716 0.48636 0.0
H386 H 0.49794 0.23519 0.50072 0.0
C387 C 0.72803 0.15206 0.56387 0.0
C388 C 0.65409 0.21883 0.50483 0.0
H389 H 0.56299 0.26541 0.53293 0.0
C390 C 0.64665 0.21589 0.46356 0.0
C391 C 0.62348 0.23681 0.53008 0.0
C392 C 0.63035 0.24126 0.57468 0.0
C393 C 0.60886 0.2296 0.44682 0.0
C394 C 0.57796 0.24775 0.472 0.0
C395 C 0.58598 0.25102 0.51342 0.0
C396 C 0.53795 0.26529 0.45637 0.0
C397 C 0.60241 0.22342 0.4024 0.0
C398 C 0.53856 0.29428 0.42485 0.0
C399 C 0.5025 0.31619 0.41498 0.0
C400 C 0.46548 0.31132 0.43765 0.0
C401 C 0.46387 0.28046 0.46735 0.0
C402 C 0.49956 0.25727 0.47625 0.0
H403 H 0.62035 0.19637 0.39094 0.0
H404 H 0.56885 0.2183 0.39503 0.0
H405 H 0.61422 0.25154 0.38633 0.0
H406 H 0.56764 0.30268 0.40991 0.0
H407 H 0.5053 0.34113 0.3932 0.0
H408 H 0.01263 0.5501 0.78278 0.0
H409 H 0.97703 0.49031 0.74852 0.0
H410 H 0.03217 0.40553 0.83237 0.0
H411 H 0.06822 0.46315 0.86483 0.0
H412 H 0.0214 0.41146 0.71846 0.0
H413 H 0.90242 0.3789 0.83655 0.0
H414 H 0.92686 0.42982 0.82997 0.0
H415 H 0.95429 0.38912 0.85516 0.0
C416 C 0.0176 0.51857 0.79311 0.0
C417 C 0.04297 0.5113 0.82655 0.0
C418 C -0.00313 0.48466 0.77409 0.0
C419 C 0.00104 0.44379 0.78895 0.0
C420 C 0.02758 0.43684 0.82118 0.0
H421 H 0.92531 0.18493 0.75797 0.0
H422 H 0.95675 0.25149 0.78153 0.0
C423 C 0.04846 0.46995 0.83943 0.0
C424 C 0.98099 0.40681 0.76998 0.0
H425 H 0.91902 0.32205 0.79248 0.0
C426 C -0.00174 0.39223 0.73401 0.0
C427 C 0.95184 0.38138 0.79122 0.0
C428 C 0.93249 0.39569 0.83025 0.0
C429 C 0.98881 0.35198 0.71951 0.0
C430 C 0.95987 0.32616 0.7408 0.0
C431 C 0.9415 0.34145 0.77627 0.0
C432 C 0.94677 0.28415 0.72566 0.0
C433 C 0.01187 0.33696 0.68264 0.0
C434 C 0.93207 0.27988 0.68631 0.0
C435 C 0.91696 0.24157 0.67233 0.0
C436 C 0.91397 0.20703 0.69792 0.0
C437 C 0.92902 0.21067 0.73724 0.0
C438 C 0.94598 0.24892 0.75086 0.0
H439 H 0.04267 0.35328 0.67919 0.0
H440 H 0.01729 0.30283 0.6836 0.0
H441 H 0.99316 0.34404 0.65566 0.0
H442 H 0.93018 0.30671 0.66686 0.0
H443 H 0.9035 0.24005 0.64255 0.0
H444 H 0.04622 0.72775 0.94255 0.0
H445 H 0.98279 0.76559 0.96416 0.0
H446 H 0.91088 0.65041 0.95841 0.0
H447 H 0.97323 0.61305 0.93837 0.0
H448 H 0.90155 0.77297 0.92892 0.0
H449 H 0.89072 0.6887 0.0731 0.0
H450 H 0.93765 0.68913 0.04259 0.0
H451 H 0.89495 0.6536 0.03128 0.0
C452 C 0.01669 0.7109 0.94579 0.0
C453 C 0.01456 0.66749 0.9396 0.0
C454 C 0.98064 0.73235 0.95814 0.0
C455 C 0.94241 0.71049 0.96395 0.0
C456 C 0.94021 0.66767 0.9554 0.0
H457 H 0.69276 0.73183 0.04946 0.0
H458 H 0.75394 0.71422 0.00892 0.0
C459 C 0.97586 0.64641 0.94378 0.0
C460 C 0.90423 0.73126 0.97917 0.0
H461 H 0.82789 0.721 0.05066 0.0
C462 C 0.88564 0.76218 0.95585 0.0
C463 C 0.88361 0.7171 0.01438 0.0
C464 C 0.90298 0.68562 0.04198 0.0
C465 C 0.84584 0.77774 0.9657 0.0
C466 C 0.82439 0.76207 -0.00019 0.0
C467 C 0.84388 0.73238 0.02397 0.0
C468 C 0.78201 0.77615 0.01201 0.0
C469 C 0.8264 0.80962 0.93877 0.0
C470 C 0.77566 0.81763 0.02425 0.0
C471 C 0.73981 0.828 0.04636 0.0
C472 C 0.71068 0.79674 0.05748 0.0
C473 C 0.71431 0.75669 0.04061 0.0
C474 C 0.7498 0.7464 0.01816 0.0
H475 H 0.84183 0.81058 0.90883 0.0
H476 H 0.79243 0.80294 0.93474 0.0
H477 H 0.82988 0.84102 0.95272 0.0
H478 H 0.80024 0.84101 0.02043 0.0
H479 H 0.73831 0.85882 0.05986 0.0
H480 H 0.51867 0.79003 0.18101 0.0
H481 H 0.47803 0.73329 0.21311 0.0
H482 H 0.58711 0.70052 0.28138 0.0
H483 H 0.62549 0.7585 0.25332 0.0
H484 H 0.49308 0.65634 0.20134 0.0
H485 H 0.50591 0.67742 0.36445 0.0
H486 H 0.51926 0.71934 0.33056 0.0
H487 H 0.55757 0.68087 0.34383 0.0
C488 C 0.53302 0.77198 0.20443 0.0
C489 C 0.57539 0.7783 0.21414 0.0
C490 C 0.51002 0.73931 0.22245 0.0
C491 C 0.52931 0.71266 0.25003 0.0
C492 C 0.57071 0.72116 0.2615 0.0
H493 H 0.52075 0.46828 0.34694 0.0
H494 H 0.5407 0.53346 0.31309 0.0
C495 C 0.593 0.75422 0.2447 0.0
C496 C 0.50949 0.67247 0.26226 0.0
H497 H 0.50336 0.60491 0.3408 0.0
C498 C 0.49436 0.64545 0.23203 0.0
C499 C 0.51125 0.658 0.30227 0.0
C500 C 0.52402 0.68579 0.337 0.0
C501 C 0.48344 0.60372 0.24029 0.0
C502 C 0.48794 0.58881 0.27976 0.0
C503 C 0.50108 0.61623 0.31028 0.0
C504 C 0.47835 0.54516 0.29095 0.0
C505 C 0.46881 0.57562 0.20651 0.0
C506 C 0.43731 0.52929 0.28778 0.0
C507 C 0.42623 0.49167 0.30613 0.0
C508 C 0.4558 0.47015 0.32882 0.0
C509 C 0.49751 0.48451 0.32966 0.0
C510 C 0.5088 0.52167 0.3105 0.0
H511 H 0.47703 0.58879 0.17668 0.0
H512 H 0.48255 0.54411 0.20894 0.0
H513 H 0.43419 0.572 0.2081 0.0
H514 H 0.41314 0.54735 0.27371 0.0
H515 H 0.39367 0.48151 0.30561 0.0
loop_
_geom_bond_atom_site_label_1
_geom_bond_atom_site_label_2
_geom_bond_distance
_geom_bond_site_symmetry_2
_ccdc_geom_bond_type
O0 Mn1 2.163 . S
O0 C14 1.244 . S
Mn1 O0 2.163 . S
Mn1 O4 2.160 . S
Mn1 O5 2.221 . S
Mn1 O7 2.163 . S
Mn1 O9 2.160 . S
Mn1 O19 2.221 . S
O2 Mn3 2.087 . S
O2 C14 1.256 . S
Mn3 O2 2.087 . S
Mn3 O10 2.089 . S
Mn3 O19 2.290 . S
Mn3 O20 2.251 . S
O4 Mn1 2.160 . S
O4 C15 1.239 . S
O5 Mn1 2.221 . S
O5 Mn6 2.290 . S
O5 C16 1.278 . S
Mn6 O5 2.290 . S
Mn6 O8 2.089 . S
Mn6 O11 2.251 . S
Mn6 O12 2.087 . S
O7 Mn1 2.163 . S
O7 C17 1.244 . S
O8 Mn6 2.089 . S
O8 C15 1.256 . S
O9 Mn1 2.160 . S
O9 C18 1.239 . S
O10 Mn3 2.089 . S
O10 C18 1.256 . S
O11 Mn6 2.251 . S
O11 C16 1.241 . S
O12 Mn6 2.087 . S
O12 C17 1.256 . S
C13 O19 1.278 . S
C13 O20 1.241 . S
C14 O0 1.244 . S
C14 O2 1.256 . S
C15 O4 1.239 . S
C15 O8 1.256 . S
C16 O5 1.278 . S
C16 O11 1.241 . S
C17 O7 1.244 . S
C17 O12 1.256 . S
C18 O9 1.239 . S
C18 O10 1.256 . S
O19 Mn1 2.221 . S
O19 Mn3 2.290 . S
O19 C13 1.278 . S
O20 Mn3 2.251 . S
O20 C13 1.241 . S
O21 Mn22 2.163 . S
O21 C35 1.244 . S
Mn22 O21 2.163 . S
Mn22 O25 2.160 . S
Mn22 O26 2.221 . S
Mn22 O28 2.163 . S
Mn22 O30 2.160 . S
Mn22 O40 2.221 . S
O23 Mn24 2.087 . S
O23 C35 1.256 . S
Mn24 O23 2.087 . S
Mn24 O31 2.089 . S
Mn24 O40 2.290 . S
Mn24 O41 2.251 1_545 S
O25 Mn22 2.160 . S
O25 C36 1.239 . S
O26 Mn22 2.221 . S
O26 Mn27 2.290 . S
O26 C37 1.278 . S
Mn27 O26 2.290 . S
Mn27 O29 2.089 . S
Mn27 O32 2.251 . S
Mn27 O33 2.087 . S
O28 Mn22 2.163 . S
O28 C38 1.244 . S
O29 Mn27 2.089 . S
O29 C36 1.256 . S
O30 Mn22 2.160 . S
O30 C39 1.239 . S
O31 Mn24 2.089 . S
O31 C39 1.256 . S
O32 Mn27 2.251 . S
O32 C37 1.241 . S
O33 Mn27 2.087 . S
O33 C38 1.256 . S
C34 O40 1.278 . S
C34 O41 1.241 1_545 S
C35 O21 1.244 . S
C35 O23 1.256 . S
C36 O25 1.239 . S
C36 O29 1.256 . S
C37 O26 1.278 . S
C37 O32 1.241 . S
C38 O28 1.244 . S
C38 O33 1.256 . S
C39 O30 1.239 . S
C39 O31 1.256 . S
O40 Mn22 2.221 . S
O40 Mn24 2.290 . S
O40 C34 1.278 . S
O41 Mn24 2.251 1_565 S
O41 C34 1.241 1_565 S
O42 Mn43 2.163 . S
O42 C56 1.244 . S
Mn43 O42 2.163 . S
Mn43 O46 2.160 . S
Mn43 O47 2.221 . S
Mn43 O49 2.163 . S
Mn43 O51 2.160 . S
Mn43 O61 2.221 . S
O44 Mn45 2.087 . S
O44 C56 1.256 . S
Mn45 O44 2.087 . S
Mn45 O52 2.089 . S
Mn45 O61 2.290 . S
Mn45 O62 2.251 . S
O46 Mn43 2.160 . S
O46 C57 1.239 . S
O47 Mn43 2.221 . S
O47 Mn48 2.290 . S
O47 C58 1.278 . S
Mn48 O47 2.290 . S
Mn48 O50 2.089 . S
Mn48 O53 2.251 . S
Mn48 O54 2.087 . S
O49 Mn43 2.163 . S
O49 C59 1.244 . S
O50 Mn48 2.089 . S
O50 C57 1.256 . S
O51 Mn43 2.160 . S
O51 C60 1.239 . S
O52 Mn45 2.089 . S
O52 C60 1.256 . S
O53 Mn48 2.251 . S
O53 C58 1.241 . S
O54 Mn48 2.087 . S
O54 C59 1.256 . S
C55 O61 1.278 . S
C55 O62 1.241 . S
C56 O42 1.244 . S
C56 O44 1.256 . S
C57 O46 1.239 . S
C57 O50 1.256 . S
C58 O47 1.278 . S
C58 O53 1.241 . S
C59 O49 1.244 . S
C59 O54 1.256 . S
C60 O51 1.239 . S
C60 O52 1.256 . S
O61 Mn43 2.221 . S
O61 Mn45 2.290 . S
O61 C55 1.278 . S
O62 Mn45 2.251 . S
O62 C55 1.241 . S
O63 Mn64 2.163 . S
O63 C77 1.244 . S
Mn64 O63 2.163 . S
Mn64 O67 2.160 . S
Mn64 O68 2.221 . S
Mn64 O70 2.163 . S
Mn64 O72 2.160 . S
Mn64 O82 2.221 . S
O65 Mn66 2.087 . S
O65 C77 1.256 . S
Mn66 O65 2.087 . S
Mn66 O73 2.089 . S
Mn66 O82 2.290 . S
Mn66 O83 2.251 . S
O67 Mn64 2.160 . S
O67 C78 1.239 . S
O68 Mn64 2.221 . S
O68 Mn69 2.290 . S
O68 C79 1.278 . S
Mn69 O68 2.290 . S
Mn69 O71 2.089 . S
Mn69 O74 2.251 . S
Mn69 O75 2.087 . S
O70 Mn64 2.163 . S
O70 C80 1.244 . S
O71 Mn69 2.089 . S
O71 C78 1.256 . S
O72 Mn64 2.160 . S
O72 C81 1.239 . S
O73 Mn66 2.089 . S
O73 C81 1.256 . S
O74 Mn69 2.251 . S
O74 C79 1.241 . S
O75 Mn69 2.087 . S
O75 C80 1.256 . S
C76 O82 1.278 . S
C76 O83 1.241 . S
C77 O63 1.244 . S
C77 O65 1.256 . S
C78 O67 1.239 . S
C78 O71 1.256 . S
C79 O68 1.278 . S
C79 O74 1.241 . S
C80 O70 1.244 . S
C80 O75 1.256 . S
C81 O72 1.239 . S
C81 O73 1.256 . S
O82 Mn64 2.221 . S
O82 Mn66 2.290 . S
O82 C76 1.278 . S
O83 Mn66 2.251 . S
O83 C76 1.241 . S
H84 C92 0.929 . S
H85 C94 0.930 . S
H86 C96 0.930 . S
H87 C99 0.929 . S
H88 C102 0.930 . S
H89 C104 0.960 . S
H90 C104 0.960 . S
H91 C104 0.960 . S
C92 H84 0.929 . S
C92 C93 1.377 . S
C92 C94 1.384 1_556 S
C93 C92 1.377 . S
C93 C99 1.390 1_556 S
C94 H85 0.930 . S
C94 C92 1.384 1_554 S
C94 C95 1.372 . S
C95 C94 1.372 . S
C95 C96 1.400 . S
C95 C100 1.490 . S
C96 H86 0.930 . S
C96 C95 1.400 . S
C96 C99 1.386 . S
H97 C113 0.930 . S
H98 C114 0.931 . S
C99 H87 0.929 . S
C99 C93 1.390 1_554 S
C99 C96 1.386 . S
C100 C95 1.490 . S
C100 C102 1.395 . S
C100 C103 1.403 . S
H101 C107 0.930 . S
C102 H88 0.930 . S
C102 C100 1.395 . S
C102 C105 1.403 . S
C103 C100 1.403 . S
C103 C104 1.524 . S
C103 C107 1.400 . S
C104 H89 0.960 . S
C104 H90 0.960 . S
C104 H91 0.960 . S
C104 C103 1.524 . S
C105 C102 1.403 . S
C105 C106 1.392 . S
C105 C109 1.495 . S
C106 C105 1.392 . S
C106 C107 1.385 . S
C106 C108 1.478 . S
C107 H101 0.930 . S
C107 C103 1.400 . S
C107 C106 1.385 . S
C108 C106 1.478 . S
C108 C110 1.381 . S
C108 C114 1.383 . S
C109 C105 1.495 . S
C109 H115 0.959 . S
C109 H116 0.961 . S
C109 H117 0.960 . S
C110 C108 1.381 . S
C110 C111 1.394 . S
C110 H118 0.930 . S
C111 C110 1.394 . S
C111 C112 1.383 . S
C111 H119 0.929 . S
C112 C111 1.383 . S
C112 C113 1.377 . S
C113 H97 0.930 . S
C113 C112 1.377 . S
C113 C114 1.379 . S
C114 H98 0.931 . S
C114 C108 1.383 . S
C114 C113 1.379 . S
H115 C109 0.959 . S
H116 C109 0.961 . S
H117 C109 0.960 . S
H118 C110 0.930 . S
H119 C111 0.929 . S
H120 C128 0.929 . S
H121 C130 0.930 1_545 S
H122 C132 0.930 . S
H123 C135 0.929 . S
H124 C138 0.942 . S
H125 C140 0.960 . S
H126 C140 0.960 . S
H127 C140 0.960 . S
C128 H120 0.929 . S
C128 C129 1.377 . S
C128 C130 1.384 . S
C129 C128 1.377 . S
C129 C135 1.390 . S
C130 H121 0.930 1_565 S
C130 C128 1.384 . S
C130 C131 1.372 . S
C131 C130 1.372 . S
C131 C132 1.400 . S
C131 C136 1.490 . S
C132 H122 0.930 . S
C132 C131 1.400 . S
C132 C135 1.386 . S
H133 C149 0.921 1_565 S
H134 C150 0.931 . S
C135 H123 0.929 . S
C135 C129 1.390 . S
C135 C132 1.386 . S
C136 C131 1.490 . S
C136 C138 1.373 1_565 S
C136 C139 1.403 . S
H137 C143 0.930 . S
C138 H124 0.942 . S
C138 C136 1.373 1_545 S
C138 C141 1.413 . S
C139 C136 1.403 . S
C139 C140 1.524 . S
C139 C143 1.400 . S
C140 H125 0.960 . S
C140 H126 0.960 . S
C140 H127 0.960 . S
C140 C139 1.524 . S
C141 C138 1.413 . S
C141 C142 1.385 1_545 S
C141 C145 1.495 . S
C142 C141 1.385 1_565 S
C142 C143 1.398 . S
C142 C144 1.473 1_565 S
C143 H137 0.930 . S
C143 C139 1.400 . S
C143 C142 1.398 . S
C144 C142 1.473 1_545 S
C144 C146 1.381 . S
C144 C150 1.383 1_545 S
C145 C141 1.495 . S
C145 H151 0.959 . S
C145 H152 0.961 . S
C145 H153 0.960 . S
C146 C144 1.381 . S
C146 C147 1.394 . S
C146 H154 0.930 . S
C147 C146 1.394 . S
C147 C148 1.383 . S
C147 H155 0.929 . S
C148 C147 1.383 . S
C148 C149 1.389 . S
C149 H133 0.921 1_545 S
C149 C148 1.389 . S
C149 C150 1.376 1_545 S
C150 H134 0.931 . S
C150 C144 1.383 1_565 S
C150 C149 1.376 1_565 S
H151 C145 0.959 . S
H152 C145 0.961 . S
H153 C145 0.960 . S
H154 C146 0.930 . S
H155 C147 0.929 . S
H156 C164 0.929 . S
H157 C166 0.930 . S
H158 C168 0.930 . S
H159 C171 0.929 . S
H160 C174 0.930 . S
H161 C176 0.960 . S
H162 C176 0.960 . S
H163 C176 0.960 . S
C164 H156 0.929 . S
C164 C165 1.377 . S
C164 C166 1.384 . S
C165 C164 1.377 . S
C165 C171 1.390 . S
C166 H157 0.930 . S
C166 C164 1.384 . S
C166 C167 1.372 . S
C167 C166 1.372 . S
C167 C168 1.400 . S
C167 C172 1.490 . S
C168 H158 0.930 . S
C168 C167 1.400 . S
C168 C171 1.386 . S
H169 C185 0.930 . S
H170 C186 0.931 . S
C171 H159 0.929 . S
C171 C165 1.390 . S
C171 C168 1.386 . S
C172 C167 1.490 . S
C172 C174 1.395 . S
C172 C175 1.403 . S
H173 C179 0.930 . S
C174 H160 0.930 . S
C174 C172 1.395 . S
C174 C177 1.403 . S
C175 C172 1.403 . S
C175 C176 1.524 . S
C175 C179 1.400 . S
C176 H161 0.960 . S
C176 H162 0.960 . S
C176 H163 0.960 . S
C176 C175 1.524 . S
C177 C174 1.403 . S
C177 C178 1.392 . S
C177 C181 1.495 . S
C178 C177 1.392 . S
C178 C179 1.385 . S
C178 C180 1.478 . S
C179 H173 0.930 . S
C179 C175 1.400 . S
C179 C178 1.385 . S
C180 C178 1.478 . S
C180 C182 1.381 . S
C180 C186 1.383 . S
C181 C177 1.495 . S
C181 H187 0.959 . S
C181 H188 0.961 . S
C181 H189 0.960 . S
C182 C180 1.381 . S
C182 C183 1.394 . S
C182 H190 0.930 . S
C183 C182 1.394 . S
C183 C184 1.383 . S
C183 H191 0.929 . S
C184 C183 1.383 . S
C184 C185 1.377 . S
C185 H169 0.930 . S
C185 C184 1.377 . S
C185 C186 1.379 . S
C186 H170 0.931 . S
C186 C180 1.383 . S
C186 C185 1.379 . S
H187 C181 0.959 . S
H188 C181 0.961 . S
H189 C181 0.960 . S
H190 C182 0.930 . S
H191 C183 0.929 . S
H192 C200 0.929 . S
H193 C202 0.930 . S
H194 C204 0.930 1_545 S
H195 C207 0.929 . S
H196 C210 0.930 . S
H197 C212 0.960 . S
H198 C212 0.960 . S
H199 C212 0.960 . S
C200 H192 0.929 . S
C200 C201 1.377 1_556 S
C200 C202 1.384 . S
C201 C200 1.377 1_554 S
C201 C207 1.390 . S
C202 H193 0.930 . S
C202 C200 1.384 . S
C202 C203 1.372 . S
C203 C202 1.372 . S
C203 C204 1.400 . S
C203 C208 1.490 . S
C204 H194 0.930 1_565 S
C204 C203 1.400 . S
C204 C207 1.386 1_556 S
H205 C221 0.930 . S
H206 C222 0.931 . S
C207 H195 0.929 . S
C207 C201 1.390 . S
C207 C204 1.386 1_554 S
C208 C203 1.490 . S
C208 C210 1.395 1_565 S
C208 C211 1.403 . S
H209 C215 0.930 . S
C210 H196 0.930 . S
C210 C208 1.395 1_545 S
C210 C213 1.403 . S
C211 C208 1.403 . S
C211 C212 1.524 . S
C211 C215 1.400 . S
C212 H197 0.960 . S
C212 H198 0.960 . S
C212 H199 0.960 . S
C212 C211 1.524 . S
C213 C210 1.403 . S
C213 C214 1.392 . S
C213 C217 1.495 . S
C214 C213 1.392 . S
C214 C215 1.385 1_545 S
C214 C216 1.478 . S
C215 H209 0.930 . S
C215 C211 1.400 . S
C215 C214 1.385 1_565 S
C216 C214 1.478 . S
C216 C218 1.381 . S
C216 C222 1.383 . S
C217 C213 1.495 . S
C217 H223 0.959 . S
C217 H224 0.961 . S
C217 H225 0.960 . S
C218 C216 1.381 . S
C218 C219 1.394 . S
C218 H226 0.930 . S
C219 C218 1.394 . S
C219 C220 1.383 . S
C219 H227 0.929 . S
C220 C219 1.383 . S
C220 C221 1.377 . S
C221 H205 0.930 . S
C221 C220 1.377 . S
C221 C222 1.379 . S
C222 H206 0.931 . S
C222 C216 1.383 . S
C222 C221 1.379 . S
H223 C217 0.959 . S
H224 C217 0.961 . S
H225 C217 0.960 . S
H226 C218 0.930 . S
H227 C219 0.929 . S
H228 C236 0.929 . S
H229 C238 0.930 . S
H230 C240 0.930 . S
H231 C243 0.929 . S
H232 C246 0.930 . S
H233 C248 0.960 . S
H234 C248 0.960 . S
H235 C248 0.960 . S
C236 H228 0.929 . S
C236 C237 1.377 . S
C236 C238 1.384 1_655 S
C237 C236 1.377 . S
C237 C243 1.390 . S
C238 H229 0.930 . S
C238 C236 1.384 1_455 S
C238 C239 1.372 . S
C239 C238 1.372 . S
C239 C240 1.400 . S
C239 C244 1.490 . S
C240 H230 0.930 . S
C240 C239 1.400 . S
C240 C243 1.386 1_455 S
H241 C257 0.930 . S
H242 C258 0.931 . S
C243 H231 0.929 . S
C243 C237 1.390 . S
C243 C240 1.386 1_655 S
C244 C239 1.490 . S
C244 C246 1.395 . S
C244 C247 1.403 . S
H245 C251 0.930 . S
C246 H232 0.930 . S
C246 C244 1.395 . S
C246 C249 1.403 . S
C247 C244 1.403 . S
C247 C248 1.524 . S
C247 C251 1.400 . S
C248 H233 0.960 . S
C248 H234 0.960 . S
C248 H235 0.960 . S
C248 C247 1.524 . S
C249 C246 1.403 . S
C249 C250 1.392 . S
C249 C253 1.495 . S
C250 C249 1.392 . S
C250 C251 1.385 . S
C250 C252 1.478 . S
C251 H245 0.930 . S
C251 C247 1.400 . S
C251 C250 1.385 . S
C252 C250 1.478 . S
C252 C254 1.381 . S
C252 C258 1.383 . S
C253 C249 1.495 . S
C253 H259 0.959 . S
C253 H260 0.961 . S
C253 H261 0.960 . S
C254 C252 1.381 . S
C254 C255 1.394 . S
C254 H262 0.930 . S
C255 C254 1.394 . S
C255 C256 1.383 . S
C255 H263 0.929 . S
C256 C255 1.383 . S
C256 C257 1.377 . S
C257 H241 0.930 . S
C257 C256 1.377 . S
C257 C258 1.379 . S
C258 H242 0.931 . S
C258 C252 1.383 . S
C258 C257 1.379 . S
H259 C253 0.959 . S
H260 C253 0.961 . S
H261 C253 0.960 . S
H262 C254 0.930 . S
H263 C255 0.929 . S
H264 C272 0.929 . S
H265 C274 0.930 1_655 S
H266 C276 0.930 . S
H267 C279 0.929 . S
H268 C282 0.930 . S
H269 C284 0.960 . S
H270 C284 0.960 . S
H271 C284 0.960 . S
C272 H264 0.929 . S
C272 C273 1.377 . S
C272 C274 1.384 . S
C273 C272 1.377 . S
C273 C279 1.390 . S
C274 H265 0.930 1_455 S
C274 C272 1.384 . S
C274 C275 1.372 . S
C275 C274 1.372 . S
C275 C276 1.400 . S
C275 C280 1.490 . S
C276 H266 0.930 . S
C276 C275 1.400 . S
C276 C279 1.386 . S
H277 C293 0.930 . S
H278 C294 0.931 1_455 S
C279 H267 0.929 . S
C279 C273 1.390 . S
C279 C276 1.386 . S
C280 C275 1.490 . S
C280 C282 1.395 1_455 S
C280 C283 1.403 . S
H281 C287 0.930 . S
C282 H268 0.930 . S
C282 C280 1.395 1_655 S
C282 C285 1.403 . S
C283 C280 1.403 . S
C283 C284 1.524 . S
C283 C287 1.400 . S
C284 H269 0.960 . S
C284 H270 0.960 . S
C284 H271 0.960 . S
C284 C283 1.524 . S
C285 C282 1.403 . S
C285 C286 1.392 . S
C285 C289 1.495 . S
C286 C285 1.392 . S
C286 C287 1.385 1_655 S
C286 C288 1.478 . S
C287 H281 0.930 . S
C287 C283 1.400 . S
C287 C286 1.385 1_455 S
C288 C286 1.478 . S
C288 C290 1.381 . S
C288 C294 1.383 . S
C289 C285 1.495 . S
C289 H295 0.959 . S
C289 H296 0.961 . S
C289 H297 0.960 . S
C290 C288 1.381 . S
C290 C291 1.394 . S
C290 H298 0.930 . S
C291 C290 1.394 . S
C291 C292 1.383 1_565 S
C291 H299 0.929 . S
C292 C291 1.383 1_545 S
C292 C293 1.377 . S
C293 H277 0.930 . S
C293 C292 1.377 . S
C293 C294 1.379 1_545 S
C294 H278 0.931 1_655 S
C294 C288 1.383 . S
C294 C293 1.379 1_565 S
H295 C289 0.959 . S
H296 C289 0.961 . S
H297 C289 0.960 . S
H298 C290 0.930 . S
H299 C291 0.929 . S
H300 C308 0.929 . S
H301 C310 0.930 . S
H302 C312 0.930 . S
H303 C315 0.929 . S
H304 C318 0.930 . S
H305 C320 0.960 . S
H306 C320 0.960 . S
H307 C320 0.960 . S
C308 H300 0.929 . S
C308 C309 1.377 . S
C308 C310 1.384 . S
C309 C308 1.377 . S
C309 C315 1.390 . S
C310 H301 0.930 . S
C310 C308 1.384 . S
C310 C311 1.372 . S
C311 C310 1.372 . S
C311 C312 1.400 . S
C311 C316 1.490 . S
C312 H302 0.930 . S
C312 C311 1.400 . S
C312 C315 1.386 . S
H313 C329 0.930 . S
H314 C330 0.931 1_556 S
C315 H303 0.929 . S
C315 C309 1.390 . S
C315 C312 1.386 . S
C316 C311 1.490 . S
C316 C318 1.395 . S
C316 C319 1.403 . S
H317 C323 0.930 . S
C318 H304 0.930 . S
C318 C316 1.395 . S
C318 C321 1.403 . S
C319 C316 1.403 . S
C319 C320 1.524 1_556 S
C319 C323 1.400 1_556 S
C320 H305 0.960 . S
C320 H306 0.960 . S
C320 H307 0.960 . S
C320 C319 1.524 1_554 S
C321 C318 1.403 . S
C321 C322 1.392 . S
C321 C325 1.495 . S
C322 C321 1.392 . S
C322 C323 1.385 1_556 S
C322 C324 1.478 . S
C323 H317 0.930 . S
C323 C319 1.400 1_554 S
C323 C322 1.385 1_554 S
C324 C322 1.478 . S
C324 C326 1.381 1_556 S
C324 C330 1.383 1_556 S
C325 C321 1.495 . S
C325 H331 0.959 . S
C325 H332 0.961 . S
C325 H333 0.960 . S
C326 C324 1.381 1_554 S
C326 C327 1.394 . S
C326 H334 0.930 . S
C327 C326 1.394 . S
C327 C328 1.383 . S
C327 H335 0.929 . S
C328 C327 1.383 . S
C328 C329 1.377 . S
C329 H313 0.930 . S
C329 C328 1.377 . S
C329 C330 1.379 . S
C330 H314 0.931 1_554 S
C330 C324 1.383 1_554 S
C330 C329 1.379 . S
H331 C325 0.959 . S
H332 C325 0.961 . S
H333 C325 0.960 . S
H334 C326 0.930 . S
H335 C327 0.929 . S
H336 C344 0.929 . S
H337 C346 0.930 . S
H338 C348 0.930 . S
H339 C351 0.929 . S
H340 C354 0.930 . S
H341 C356 0.960 . S
H342 C356 0.960 . S
H343 C356 0.960 . S
C344 H336 0.929 . S
C344 C345 1.377 . S
C344 C346 1.384 . S
C345 C344 1.377 . S
C345 C351 1.390 . S
C346 H337 0.930 . S
C346 C344 1.384 . S
C346 C347 1.372 . S
C347 C346 1.372 . S
C347 C348 1.400 . S
C347 C352 1.490 . S
C348 H338 0.930 . S
C348 C347 1.400 . S
C348 C351 1.386 . S
H349 C365 0.930 . S
H350 C366 0.931 . S
C351 H339 0.929 . S
C351 C345 1.390 . S
C351 C348 1.386 . S
C352 C347 1.490 . S
C352 C354 1.395 . S
C352 C355 1.403 . S
H353 C359 0.930 . S
C354 H340 0.930 . S
C354 C352 1.395 . S
C354 C357 1.403 . S
C355 C352 1.403 . S
C355 C356 1.524 . S
C355 C359 1.400 . S
C356 H341 0.960 . S
C356 H342 0.960 . S
C356 H343 0.960 . S
C356 C355 1.524 . S
C357 C354 1.403 . S
C357 C358 1.392 . S
C357 C361 1.495 . S
C358 C357 1.392 . S
C358 C359 1.385 . S
C358 C360 1.478 . S
C359 H353 0.930 . S
C359 C355 1.400 . S
C359 C358 1.385 . S
C360 C358 1.478 . S
C360 C362 1.381 . S
C360 C366 1.383 . S
C361 C357 1.495 . S
C361 H367 0.959 . S
C361 H368 0.961 . S
C361 H369 0.960 . S
C362 C360 1.381 . S
C362 C363 1.394 1_545 S
C362 H370 0.930 . S
C363 C362 1.394 1_565 S
C363 C364 1.383 . S
C363 H371 0.929 . S
C364 C363 1.383 . S
C364 C365 1.377 1_565 S
C365 H349 0.930 . S
C365 C364 1.377 1_545 S
C365 C366 1.379 . S
C366 H350 0.931 . S
C366 C360 1.383 . S
C366 C365 1.379 . S
H367 C361 0.959 . S
H368 C361 0.961 . S
H369 C361 0.960 . S
H370 C362 0.930 . S
H371 C363 0.929 . S
H372 C380 0.929 . S
H373 C382 0.930 . S
H374 C384 0.930 . S
H375 C387 0.929 . S
H376 C390 0.930 . S
H377 C392 0.960 . S
H378 C392 0.960 . S
H379 C392 0.960 . S
C380 H372 0.929 . S
C380 C381 1.377 . S
C380 C382 1.384 . S
C381 C380 1.377 . S
C381 C387 1.390 . S
C382 H373 0.930 . S
C382 C380 1.384 . S
C382 C383 1.372 . S
C383 C382 1.372 . S
C383 C384 1.400 . S
C383 C388 1.490 . S
C384 H374 0.930 . S
C384 C383 1.400 . S
C384 C387 1.386 . S
H385 C401 0.930 . S
H386 C402 0.931 . S
C387 H375 0.929 . S
C387 C381 1.390 . S
C387 C384 1.386 . S
C388 C383 1.490 . S
C388 C390 1.395 . S
C388 C391 1.403 . S
H389 C395 0.930 . S
C390 H376 0.930 . S
C390 C388 1.395 . S
C390 C393 1.403 . S
C391 C388 1.403 . S
C391 C392 1.524 . S
C391 C395 1.400 . S
C392 H377 0.960 . S
C392 H378 0.960 . S
C392 H379 0.960 . S
C392 C391 1.524 . S
C393 C390 1.403 . S
C393 C394 1.392 . S
C393 C397 1.495 . S
C394 C393 1.392 . S
C394 C395 1.385 . S
C394 C396 1.478 . S
C395 H389 0.930 . S
C395 C391 1.400 . S
C395 C394 1.385 . S
C396 C394 1.478 . S
C396 C398 1.381 . S
C396 C402 1.383 . S
C397 C393 1.495 . S
C397 H403 0.959 . S
C397 H404 0.961 . S
C397 H405 0.960 . S
C398 C396 1.381 . S
C398 C399 1.394 . S
C398 H406 0.930 . S
C399 C398 1.394 . S
C399 C400 1.383 . S
C399 H407 0.929 . S
C400 C399 1.383 . S
C400 C401 1.377 . S
C401 H385 0.930 . S
C401 C400 1.377 . S
C401 C402 1.379 . S
C402 H386 0.931 . S
C402 C396 1.383 . S
C402 C401 1.379 . S
H403 C397 0.959 . S
H404 C397 0.961 . S
H405 C397 0.960 . S
H406 C398 0.930 . S
H407 C399 0.929 . S
H408 C416 0.936 . S
H409 C418 0.930 . S
H410 C420 0.930 . S
H411 C423 0.929 . S
H412 C426 0.930 1_455 S
H413 C428 0.960 . S
H414 C428 0.960 . S
H415 C428 0.960 . S
C416 H408 0.936 . S
C416 C417 1.377 . S
C416 C418 1.384 1_455 S
C417 C416 1.377 . S
C417 C423 1.390 . S
C418 H409 0.930 . S
C418 C416 1.384 1_655 S
C418 C419 1.372 . S
C419 C418 1.372 . S
C419 C420 1.400 1_655 S
C419 C424 1.490 . S
C420 H410 0.930 . S
C420 C419 1.400 1_455 S
C420 C423 1.386 . S
H421 C437 0.930 . S
H422 C438 0.931 . S
C423 H411 0.929 . S
C423 C417 1.390 . S
C423 C420 1.386 . S
C424 C419 1.490 . S
C424 C426 1.395 . S
C424 C427 1.403 . S
H425 C431 0.930 . S
C426 H412 0.930 1_655 S
C426 C424 1.395 . S
C426 C429 1.403 . S
C427 C424 1.403 . S
C427 C428 1.524 . S
C427 C431 1.400 . S
C428 H413 0.960 . S
C428 H414 0.960 . S
C428 H415 0.960 . S
C428 C427 1.524 . S
C429 C426 1.403 . S
C429 C430 1.392 . S
C429 C433 1.495 1_655 S
C430 C429 1.392 . S
C430 C431 1.385 . S
C430 C432 1.478 . S
C431 H425 0.930 . S
C431 C427 1.400 . S
C431 C430 1.385 . S
C432 C430 1.478 . S
C432 C434 1.381 . S
C432 C438 1.383 . S
C433 C429 1.495 1_455 S
C433 H439 0.959 . S
C433 H440 0.961 . S
C433 H441 0.960 1_455 S
C434 C432 1.381 . S
C434 C435 1.394 . S
C434 H442 0.930 . S
C435 C434 1.394 . S
C435 C436 1.383 . S
C435 H443 0.929 . S
C436 C435 1.383 . S
C436 C437 1.377 . S
C437 H421 0.930 . S
C437 C436 1.377 . S
C437 C438 1.379 . S
C438 H422 0.931 . S
C438 C432 1.383 . S
C438 C437 1.379 . S
H439 C433 0.959 . S
H440 C433 0.961 . S
H441 C433 0.960 1_655 S
H442 C434 0.930 . S
H443 C435 0.929 . S
H444 C452 0.929 . S
H445 C454 0.930 . S
H446 C456 0.930 . S
H447 C459 0.929 . S
H448 C462 0.930 . S
H449 C464 0.960 . S
H450 C464 0.960 . S
H451 C464 0.960 . S
C452 H444 0.929 . S
C452 C453 1.377 . S
C452 C454 1.384 1_455 S
C453 C452 1.377 . S
C453 C459 1.390 1_455 S
C454 H445 0.930 . S
C454 C452 1.384 1_655 S
C454 C455 1.372 . S
C455 C454 1.372 . S
C455 C456 1.400 . S
C455 C460 1.490 . S
C456 H446 0.930 . S
C456 C455 1.400 . S
C456 C459 1.386 . S
H457 C473 0.930 . S
H458 C474 0.931 . S
C459 H447 0.929 . S
C459 C453 1.390 1_655 S
C459 C456 1.386 . S
C460 C455 1.490 . S
C460 C462 1.395 . S
C460 C463 1.403 1_556 S
H461 C467 0.930 . S
C462 H448 0.930 . S
C462 C460 1.395 . S
C462 C465 1.403 . S
C463 C460 1.403 1_554 S
C463 C464 1.524 . S
C463 C467 1.400 . S
C464 H449 0.960 . S
C464 H450 0.960 . S
C464 H451 0.960 . S
C464 C463 1.524 . S
C465 C462 1.403 . S
C465 C466 1.392 1_556 S
C465 C469 1.495 . S
C466 C465 1.392 1_554 S
C466 C467 1.385 . S
C466 C468 1.478 . S
C467 H461 0.930 . S
C467 C463 1.400 . S
C467 C466 1.385 . S
C468 C466 1.478 . S
C468 C470 1.381 . S
C468 C474 1.383 . S
C469 C465 1.495 . S
C469 H475 0.959 . S
C469 H476 0.961 . S
C469 H477 0.960 . S
C470 C468 1.381 . S
C470 C471 1.394 . S
C470 H478 0.930 . S
C471 C470 1.394 . S
C471 C472 1.383 . S
C471 H479 0.929 . S
C472 C471 1.383 . S
C472 C473 1.377 . S
C473 H457 0.930 . S
C473 C472 1.377 . S
C473 C474 1.379 . S
C474 H458 0.931 . S
C474 C468 1.383 . S
C474 C473 1.379 . S
H475 C469 0.959 . S
H476 C469 0.961 . S
H477 C469 0.960 . S
H478 C470 0.930 . S
H479 C471 0.929 . S
H480 C488 0.929 . S
H481 C490 0.930 . S
H482 C492 0.930 . S
H483 C495 0.929 . S
H484 C498 0.930 . S
H485 C500 0.960 . S
H486 C500 0.960 . S
H487 C500 0.960 . S
C488 H480 0.929 . S
C488 C489 1.377 . S
C488 C490 1.384 . S
C489 C488 1.377 . S
C489 C495 1.390 . S
C490 H481 0.930 . S
C490 C488 1.384 . S
C490 C491 1.372 . S
C491 C490 1.372 . S
C491 C492 1.400 . S
C491 C496 1.490 . S
C492 H482 0.930 . S
C492 C491 1.400 . S
C492 C495 1.386 . S
H493 C509 0.930 . S
H494 C510 0.931 . S
C495 H483 0.929 . S
C495 C489 1.390 . S
C495 C492 1.386 . S
C496 C491 1.490 . S
C496 C498 1.395 . S
C496 C499 1.403 . S
H497 C503 0.930 . S
C498 H484 0.930 . S
C498 C496 1.395 . S
C498 C501 1.403 . S
C499 C496 1.403 . S
C499 C500 1.524 . S
C499 C503 1.400 . S
C500 H485 0.960 . S
C500 H486 0.960 . S
C500 H487 0.960 . S
C500 C499 1.524 . S
C501 C498 1.403 . S
C501 C502 1.392 . S
C501 C505 1.495 . S
C502 C501 1.392 . S
C502 C503 1.385 . S
C502 C504 1.478 . S
C503 H497 0.930 . S
C503 C499 1.400 . S
C503 C502 1.385 . S
C504 C502 1.478 . S
C504 C506 1.381 . S
C504 C510 1.383 . S
C505 C501 1.495 . S
C505 H511 0.959 . S
C505 H512 0.961 . S
C505 H513 0.960 . S
C506 C504 1.381 . S
C506 C507 1.394 . S
C506 H514 0.930 . S
C507 C506 1.394 . S
C507 C508 1.383 . S
C507 H515 0.929 . S
C508 C507 1.383 . S
C508 C509 1.377 . S
C509 H493 0.930 . S
C509 C508 1.377 . S
C509 C510 1.379 . S
C510 H494 0.931 . S
C510 C504 1.383 . S
C510 C509 1.379 . S
H511 C505 0.959 . S
H512 C505 0.961 . S
H513 C505 0.960 . S
H514 C506 0.930 . S
H515 C507 0.929 . S
C93 C58 1.653 . S
C112 C16 1.675 . S
C129 C77 1.212 . S
C148 C35 1.231 . S
C165 C60 1.326 . S
C184 C18 1.349 . S
C201 C80 1.212 . S
C220 C38 1.195 . S
C237 C39 1.439 . S
C256 C15 1.414 . S
C273 C55 1.085 . S
C292 C34 1.113 . S
C309 C56 1.015 . S
C328 C78 1.013 . S
C345 C17 1.277 . S
C364 C79 1.053 . S
C381 C37 1.066 . S
C400 C13 1.102 . S
C417 C57 1.444 . S
C436 C36 1.435 . S
C453 C59 1.279 . S
C472 C76 1.164 . S
C489 C81 0.983 . S
C508 C14 1.035 . S
