# Generated by pormake.
# Topology yfy, (5)-cn, num edge types: 1
# Building blocks:
#     Node 0, Type 0, BuildingBlock: XOMCOT_clean_sbu_0, # of connection points: 5
#     Node 1, Type 0, BuildingBlock: XOMCOT_clean_sbu_0, # of connection points: 5
#     Node 2, Type 0, BuildingBlock: XOMCOT_clean_sbu_0, # of connection points: 5
#     Node 3, Type 0, BuildingBlock: XOMCOT_clean_sbu_0, # of connection points: 5
#     Node 4, Type 0, BuildingBlock: XOMCOT_clean_sbu_0, # of connection points: 5
#     Node 5, Type 0, BuildingBlock: XOMCOT_clean_sbu_0, # of connection points: 5
#     Node 6, Type 0, BuildingBlock: XOMCOT_clean_sbu_0, # of connection points: 5
#     Node 7, Type 0, BuildingBlock: XOMCOT_clean_sbu_0, # of connection points: 5
#     Node 8, Type 0, BuildingBlock: XOMCOT_clean_sbu_0, # of connection points: 5
#     Node 9, Type 0, BuildingBlock: XOMCOT_clean_sbu_0, # of connection points: 5
#     Node 10, Type 0, BuildingBlock: XOMCOT_clean_sbu_0, # of connection points: 5
#     Node 11, Type 0, BuildingBlock: XOMCOT_clean_sbu_0, # of connection points: 5
#     Node 12, Type 0, BuildingBlock: XOMCOT_clean_sbu_0, # of connection points: 5
#     Node 13, Type 0, BuildingBlock: XOMCOT_clean_sbu_0, # of connection points: 5
#     Node 14, Type 0, BuildingBlock: XOMCOT_clean_sbu_0, # of connection points: 5
#     Node 15, Type 0, BuildingBlock: XOMCOT_clean_sbu_0, # of connection points: 5
#     Edge 16, Type (0, 0), BuildingBlock: AJUNOK_clean_linker_0, # of connection points: 2
#     Edge 17, Type (0, 0), BuildingBlock: AJUNOK_clean_linker_0, # of connection points: 2
#     Edge 18, Type (0, 0), BuildingBlock: AJUNOK_clean_linker_0, # of connection points: 2
#     Edge 19, Type (0, 0), BuildingBlock: AJUNOK_clean_linker_0, # of connection points: 2
#     Edge 20, Type (0, 0), BuildingBlock: AJUNOK_clean_linker_0, # of connection points: 2
#     Edge 21, Type (0, 0), BuildingBlock: AJUNOK_clean_linker_0, # of connection points: 2
#     Edge 22, Type (0, 0), BuildingBlock: AJUNOK_clean_linker_0, # of connection points: 2
#     Edge 23, Type (0, 0), BuildingBlock: AJUNOK_clean_linker_0, # of connection points: 2
#     Edge 24, Type (0, 0), BuildingBlock: AJUNOK_clean_linker_0, # of connection points: 2
#     Edge 25, Type (0, 0), BuildingBlock: AJUNOK_clean_linker_0, # of connection points: 2
#     Edge 26, Type (0, 0), BuildingBlock: AJUNOK_clean_linker_0, # of connection points: 2
#     Edge 27, Type (0, 0), BuildingBlock: AJUNOK_clean_linker_0, # of connection points: 2
#     Edge 28, Type (0, 0), BuildingBlock: AJUNOK_clean_linker_0, # of connection points: 2
#     Edge 29, Type (0, 0), BuildingBlock: AJUNOK_clean_linker_0, # of connection points: 2
#     Edge 30, Type (0, 0), BuildingBlock: AJUNOK_clean_linker_0, # of connection points: 2
#     Edge 31, Type (0, 0), BuildingBlock: AJUNOK_clean_linker_0, # of connection points: 2
#     Edge 32, Type (0, 0), BuildingBlock: AJUNOK_clean_linker_0, # of connection points: 2
#     Edge 33, Type (0, 0), BuildingBlock: AJUNOK_clean_linker_0, # of connection points: 2
#     Edge 34, Type (0, 0), BuildingBlock: AJUNOK_clean_linker_0, # of connection points: 2
#     Edge 35, Type (0, 0), BuildingBlock: AJUNOK_clean_linker_0, # of connection points: 2
#     Edge 36, Type (0, 0), BuildingBlock: AJUNOK_clean_linker_0, # of connection points: 2
#     Edge 37, Type (0, 0), BuildingBlock: AJUNOK_clean_linker_0, # of connection points: 2
#     Edge 38, Type (0, 0), BuildingBlock: AJUNOK_clean_linker_0, # of connection points: 2
#     Edge 39, Type (0, 0), BuildingBlock: AJUNOK_clean_linker_0, # of connection points: 2
#     Edge 40, Type (0, 0), BuildingBlock: AJUNOK_clean_linker_0, # of connection points: 2
#     Edge 41, Type (0, 0), BuildingBlock: AJUNOK_clean_linker_0, # of connection points: 2
#     Edge 42, Type (0, 0), BuildingBlock: AJUNOK_clean_linker_0, # of connection points: 2
#     Edge 43, Type (0, 0), BuildingBlock: AJUNOK_clean_linker_0, # of connection points: 2
#     Edge 44, Type (0, 0), BuildingBlock: AJUNOK_clean_linker_0, # of connection points: 2
#     Edge 45, Type (0, 0), BuildingBlock: AJUNOK_clean_linker_0, # of connection points: 2
#     Edge 46, Type (0, 0), BuildingBlock: AJUNOK_clean_linker_0, # of connection points: 2
#     Edge 47, Type (0, 0), BuildingBlock: AJUNOK_clean_linker_0, # of connection points: 2
#     Edge 48, Type (0, 0), BuildingBlock: AJUNOK_clean_linker_0, # of connection points: 2
#     Edge 49, Type (0, 0), BuildingBlock: AJUNOK_clean_linker_0, # of connection points: 2
#     Edge 50, Type (0, 0), BuildingBlock: AJUNOK_clean_linker_0, # of connection points: 2
#     Edge 51, Type (0, 0), BuildingBlock: AJUNOK_clean_linker_0, # of connection points: 2
#     Edge 52, Type (0, 0), BuildingBlock: AJUNOK_clean_linker_0, # of connection points: 2
#     Edge 53, Type (0, 0), BuildingBlock: AJUNOK_clean_linker_0, # of connection points: 2
#     Edge 54, Type (0, 0), BuildingBlock: AJUNOK_clean_linker_0, # of connection points: 2
#     Edge 55, Type (0, 0), BuildingBlock: AJUNOK_clean_linker_0, # of connection points: 2
# Relax obj value: 0.255
# Max RMSD: 0.240
# Mean RMSD: 0.240
data_MOF--net-yfy--node1-XOMCOT_clean_sbu_0--edge1-AJUNOK_clean_linker_0
_symmetry_space_group_name_H-M    P1
_symmetry_Int_Tables_number       1
_symmetry_cell_setting            triclinic
loop_
_symmetry_equiv_pos_as_xyz
'x, y, z'
_cell_length_a     32.964178
_cell_length_b     32.924418
_cell_length_c     37.736939
_cell_angle_alpha  89.704428
_cell_angle_beta   89.851067
_cell_angle_gamma 90.011534
loop_
_atom_site_label
_atom_site_type_symbol
_atom_site_fract_x
_atom_site_fract_y
_atom_site_fract_z
_atom_type_partial_charge
Co0 Co 0.05625 0.3243 0.317 0.0
C1 C 0.99292 0.25593 0.31317 0.0
C2 C 1.00822 0.28575 0.26446 0.0
C3 C 0.98282 0.25434 0.25688 0.0
N4 N 1.01532 0.28688 0.29958 0.0
N5 N 0.97248 0.23569 0.28742 0.0
H6 H 0.99143 0.24796 0.34087 0.0
H7 H 0.02209 0.30579 0.24514 0.0
C8 C 1.01849 0.40745 0.29429 0.0
O9 O 0.04584 0.43 0.31001 0.0
N10 N 0.09824 0.36204 0.33023 0.0
C11 C 0.12388 0.35971 0.35794 0.0
C12 C 0.15836 0.38195 0.34991 0.0
C13 C 0.11758 0.38496 0.30592 0.0
N14 N 0.15426 0.39763 0.31694 0.0
C15 C 0.03608 0.29611 0.38582 0.0
C16 C 0.03017 0.3721 0.41596 0.0
C17 C 0.04017 0.33887 0.43757 0.0
C18 C 0.04018 0.30022 0.42241 0.0
C19 C 0.02584 0.3666 0.37922 0.0
N20 N 0.0318 0.32929 0.36418 0.0
H21 H 0.04201 0.26655 0.37485 0.0
H22 H 0.02254 0.3932 0.363 0.0
H23 H 0.11973 0.34004 0.3807 0.0
H24 H 0.10593 0.38963 0.27944 0.0
O25 O 0.09159 0.28023 0.32899 0.0
O26 O 0.09028 0.30935 0.2761 0.0
O27 O 1.02051 0.36861 0.29583 0.0
C28 C 0.10571 0.28185 0.29713 0.0
H29 H 0.97461 0.24498 0.23046 0.0
H30 H 0.18552 0.38326 0.36588 0.0
H31 H 0.02937 0.40251 0.42676 0.0
H32 H 0.04701 0.27359 0.43831 0.0
Co33 Co 0.81715 0.05434 0.32444 0.0
C34 C 0.89176 1.00404 0.31084 0.0
C35 C 0.84121 0.96887 0.32959 0.0
C36 C 0.87245 0.9428 0.32149 0.0
N37 N 0.85311 1.00735 0.32291 0.0
N38 N 0.9042 0.96488 0.30972 0.0
H39 H 0.91018 0.02933 0.30206 0.0
H40 H 0.81139 0.96024 0.33899 0.0
C41 C 0.73736 1.01989 0.29362 0.0
O42 O 0.71522 0.05087 0.3037 0.0
N43 N 0.78148 0.1013 0.32427 0.0
C44 C 0.77317 0.12679 0.3512 0.0
C45 C 0.74929 0.15804 0.33859 0.0
C46 C 0.76453 0.11866 0.29536 0.0
N47 N 0.74402 0.15286 0.30348 0.0
C48 C 0.82907 0.03503 0.39621 0.0
C49 C 0.75037 0.04822 0.41876 0.0
C50 C 0.7821 0.05051 0.44325 0.0
C51 C 0.82141 0.04114 0.43206 0.0
C52 C 0.7594 0.04173 0.38285 0.0
N53 N 0.79881 0.03846 0.37174 0.0
H54 H 0.86028 0.03223 0.38773 0.0
H55 H 0.7352 0.04443 0.36407 0.0
H56 H 0.78424 0.12337 0.37801 0.0
H57 H 0.76643 0.10585 0.26905 0.0
O58 O 0.86015 0.0888 0.34033 0.0
O59 O 0.84516 0.07842 0.28386 0.0
O60 O 0.77554 1.01886 0.29982 0.0
C61 C 0.86724 0.09732 0.3074 0.0
H62 H 0.87199 0.91006 0.32427 0.0
H63 H 0.73731 0.18306 0.35389 0.0
H64 H 0.71952 0.05508 0.42667 0.0
H65 H 0.84659 0.0421 0.45044 0.0
Co66 Co 0.09199 0.82646 0.321 0.0
C67 C 0.1462 0.89857 0.30801 0.0
C68 C 0.17866 0.84585 0.32582 0.0
C69 C 0.20619 0.87639 0.31907 0.0
N70 N 0.14098 0.85957 0.31883 0.0
N71 N 0.1858 0.90955 0.30795 0.0
H72 H 0.1219 0.91847 0.29978 0.0
H73 H 0.18567 0.81557 0.33519 0.0
C74 C 0.11859 0.7425 0.29364 0.0
O75 O 0.085 0.72601 0.30557 0.0
N76 N 0.04275 0.79396 0.32164 0.0
C77 C 1.0181 0.78438 0.34899 0.0
C78 C 0.98637 0.76125 0.33636 0.0
C79 C 0.02422 0.77892 0.29266 0.0
N80 N 0.99068 0.75729 0.30095 0.0
C81 C 0.10912 0.84044 0.39302 0.0
C82 C 0.09779 0.76224 0.41784 0.0
C83 C 0.09611 0.79448 0.44198 0.0
C84 C 0.10418 0.83371 0.42929 0.0
C85 C 0.10316 0.77034 0.38154 0.0
N86 N 0.10587 0.80943 0.3693 0.0
H87 H 0.11193 0.87142 0.38373 0.0
H88 H 0.10137 0.74533 0.36365 0.0
H89 H 0.02269 0.79341 0.37619 0.0
H90 H 0.03587 0.78312 0.26608 0.0
O91 O 0.05993 0.8723 0.33497 0.0
O92 O 0.06987 0.85432 0.27918 0.0
O93 O 0.1252 0.78067 0.29783 0.0
C94 C 0.05193 0.87834 0.30186 0.0
H95 H 0.2387 0.87465 0.3228 0.0
H96 H 0.96253 0.74761 0.3522 0.0
H97 H 0.09303 0.73124 0.42666 0.0
H98 H 0.10367 0.85959 0.44689 0.0
Co99 Co 0.32738 0.09479 0.32984 0.0
C100 C 0.25989 0.15171 0.31164 0.0
C101 C 0.30785 0.18067 0.34033 0.0
C102 C 0.27975 0.20967 0.33097 0.0
N103 N 0.29531 0.14423 0.32848 0.0
N104 N 0.2496 0.19144 0.31297 0.0
H105 H 0.24253 0.12903 0.29772 0.0
H106 H 0.33601 0.18595 0.35423 0.0
C107 C 0.41187 0.12436 0.3049 0.0
O108 O 0.42965 0.09131 0.3166 0.0
N109 N 0.35919 0.04543 0.32944 0.0
C110 C 0.35982 1.01544 0.35398 0.0
C111 C 0.3798 0.98232 0.3399 0.0
C112 C 0.37721 0.02963 0.30051 0.0
N113 N 0.39064 0.99169 0.30642 0.0
C114 C 0.3106 0.10943 0.4019 0.0
C115 C 0.3859 0.08926 0.42864 0.0
C116 C 0.3522 0.08844 0.45133 0.0
C117 C 0.31465 0.10077 0.43795 0.0
C118 C 0.38046 0.09795 0.39244 0.0
N119 N 0.34264 0.10553 0.37908 0.0
H120 H 0.28051 0.11517 0.39174 0.0
H121 H 0.406 0.09433 0.37517 0.0
H122 H 0.34557 1.01701 0.37979 0.0
H123 H 0.3799 0.04542 0.27537 0.0
O124 O 0.28066 0.06265 0.3417 0.0
O125 O 0.30101 0.07477 0.28671 0.0
O126 O 0.37345 0.12902 0.30857 0.0
C127 C 0.2759 0.05611 0.30824 0.0
H128 H 0.28119 0.24169 0.33724 0.0
H129 H 0.38584 0.95368 0.35306 0.0
H130 H 0.4155 0.08005 0.43814 0.0
H131 H 0.28797 0.101 0.45478 0.0
Co132 Co 0.04623 0.81482 0.70842 0.0
C133 C 0.98355 0.88171 0.71275 0.0
C134 C 0.97666 0.8348 0.75173 0.0
C135 C 0.95025 0.86548 0.75971 0.0
N136 N 0.99749 0.84437 0.72207 0.0
N137 N 0.95394 0.89502 0.73503 0.0
H138 H 0.99611 0.89976 0.69146 0.0
H139 H 0.98265 0.80886 0.76856 0.0
C140 C 0.02794 0.72557 0.72898 0.0
O141 O 0.06052 0.71248 0.71263 0.0
N142 N 0.09594 0.78566 0.69781 0.0
C143 C 0.11528 0.77932 0.66673 0.0
C144 C 0.15019 0.75723 0.6733 0.0
C145 C 0.1204 0.76945 0.72277 0.0
N146 N 0.15315 0.75149 0.70857 0.0
C147 C 0.02713 0.83819 0.63798 0.0
C148 C 0.02782 0.76125 0.60929 0.0
C149 C 0.03522 0.79472 0.58708 0.0
C150 C 0.03204 0.83359 0.60153 0.0
C151 C 0.02288 0.76726 0.64593 0.0
N152 N 0.02606 0.8053 0.66022 0.0
H153 H 0.02908 0.86848 0.64833 0.0
H154 H 1.02075 0.74083 0.66248 0.0
H155 H 0.10506 0.78981 0.64111 0.0
H156 H 0.11324 0.76883 0.75079 0.0
O157 O 0.07435 0.86465 0.6981 0.0
O158 O 0.0729 0.83547 0.75096 0.0
O159 O 1.01881 0.76347 0.7282 0.0
C160 C 0.08636 0.86479 0.73065 0.0
H161 H 0.93223 0.86693 0.78362 0.0
H162 H 0.1715 0.74599 0.65381 0.0
H163 H 0.02942 0.73062 0.59904 0.0
H164 H 0.03658 0.86033 0.58513 0.0
Co165 Co 0.31975 0.04415 0.717 0.0
C166 C 0.24902 0.98506 0.72169 0.0
C167 C 0.29163 0.98052 0.76413 0.0
C168 C 0.25949 0.95568 0.77185 0.0
N169 N 0.28603 0.99839 0.73223 0.0
N170 N 0.23244 0.95849 0.74534 0.0
H171 H 0.23371 0.99558 0.69823 0.0
H172 H 0.31636 0.9871 0.78196 0.0
C173 C 0.37915 0.97868 0.73287 0.0
O174 O 0.35707 0.95647 0.71143 0.0
N175 N 0.35325 0.09046 0.70555 0.0
C176 C 0.34665 0.11953 0.68092 0.0
C177 C 0.37154 0.1522 0.6882 0.0
C178 C 0.38196 0.10551 0.72712 0.0
N179 N 0.39376 0.14296 0.71708 0.0
C180 C 0.2999 1.02001 0.64652 0.0
C181 C 0.37809 0.02682 0.62058 0.0
C182 C 0.34574 0.02757 0.59652 0.0
C183 C 0.30638 1.02239 0.60996 0.0
C184 C 0.3703 0.0241 0.65709 0.0
N185 N 0.33137 1.02244 0.66987 0.0
H186 H 0.26911 1.02135 0.65572 0.0
H187 H 0.39545 0.02806 0.67505 0.0
H188 H 0.32343 0.11826 0.66076 0.0
H189 H 0.39135 0.09096 0.75154 0.0
O190 O 0.27235 0.07425 0.70382 0.0
O191 O 0.29924 0.07504 0.75751 0.0
O192 O 0.369 1.01576 0.7384 0.0
C193 C 0.27159 0.08856 0.73564 0.0
H194 H 0.25538 0.93849 0.79613 0.0
H195 H 0.3719 0.18116 0.6745 0.0
H196 H 0.409 0.03089 0.61144 0.0
H197 H 0.28028 0.02399 0.59264 0.0
Co198 Co 0.09053 0.31842 0.70691 0.0
C199 C 0.14574 0.24824 0.72259 0.0
C200 C 0.17727 0.29904 0.69978 0.0
C201 C 0.20516 0.26924 0.70783 0.0
N202 N 0.13992 0.28595 0.70894 0.0
N203 N 0.18528 0.23728 0.72208 0.0
H204 H 0.12194 0.2294 0.73349 0.0
H205 H 0.18385 0.32849 0.6883 0.0
C206 C 0.11751 0.40346 0.7308 0.0
O207 O 0.08302 0.41923 0.72031 0.0
N208 N 0.04082 0.35025 0.70678 0.0
C209 C 1.01435 0.35679 0.6802 0.0
C210 C 0.98139 0.37776 0.69339 0.0
C211 C 0.02244 0.36521 0.73598 0.0
N212 N 0.98647 0.38294 0.7286 0.0
C213 C 0.10787 0.30172 0.63514 0.0
C214 C 0.09287 0.378 0.6074 0.0
C215 C 0.09489 0.34482 0.58427 0.0
C216 C 0.10408 0.3066 0.59856 0.0
C217 C 0.09753 0.37186 0.64407 0.0
N218 N 0.10274 0.33363 0.65772 0.0
H219 H 0.11174 0.27133 0.64554 0.0
H220 H 0.09318 0.39738 0.66116 0.0
H221 H 1.01832 0.3467 0.65319 0.0
H222 H 0.03551 0.36332 0.76222 0.0
O223 O 0.05876 0.27173 0.69518 0.0
O224 O 0.07012 0.29203 0.75015 0.0
O225 O 0.12405 0.36523 0.72746 0.0
C226 C 0.05194 0.26684 0.72867 0.0
H227 H 0.23753 0.2707 0.70309 0.0
H228 H 0.95621 0.38897 0.67786 0.0
H229 H 0.08607 0.40813 0.5974 0.0
H230 H 0.10554 0.27999 0.58184 0.0
Co231 Co 0.81829 0.09148 0.70654 0.0
C232 C 0.89327 0.14007 0.72273 0.0
C233 C 0.84339 0.17639 0.70449 0.0
C234 C 0.87461 0.20186 0.71362 0.0
N235 N 0.85487 0.13761 0.71017 0.0
N236 N 0.90593 0.1791 0.7251 0.0
H237 H 0.91132 0.11423 0.73076 0.0
H238 H 0.81387 0.18562 0.69492 0.0
C239 C 0.73799 0.12499 0.73739 0.0
O240 O 0.71625 0.09434 0.72605 0.0
N241 N 0.78151 0.04565 0.70445 0.0
C242 C 0.76932 0.02368 0.67644 0.0
C243 C 0.74351 0.99359 0.68839 0.0
C244 C 0.76498 0.02722 0.73297 0.0
N245 N 0.74045 0.99605 0.72407 0.0
C246 C 0.83251 0.11279 0.6352 0.0
C247 C 0.75305 0.10994 0.61218 0.0
C248 C 0.78446 0.10892 0.58711 0.0
C249 C 0.82451 0.11236 0.59898 0.0
C250 C 0.76243 0.11115 0.64839 0.0
N251 N 0.80187 0.10982 0.65946 0.0
H252 H 0.86375 0.112 0.64379 0.0
H253 H 0.73793 0.10891 0.66699 0.0
H254 H 0.77857 0.02886 0.64928 0.0
H255 H 0.77141 0.03676 0.75968 0.0
O256 O 0.86142 0.0563 0.69103 0.0
O257 O 0.84396 0.06524 0.74719 0.0
O258 O 0.77628 0.12668 0.73144 0.0
C259 C 0.86642 0.04628 0.72395 0.0
H260 H 0.87453 0.23467 0.71154 0.0
H261 H 0.72802 0.97186 0.67182 0.0
H262 H 0.72168 0.10756 0.60397 0.0
H263 H 0.84974 0.11138 0.58055 0.0
Co264 Co 0.54933 0.81448 0.82989 0.0
C265 C 0.49865 0.74193 0.81016 0.0
C266 C 0.46437 0.79038 0.83349 0.0
C267 C 0.43781 0.76084 0.82265 0.0
N268 N 0.50257 0.77879 0.82569 0.0
N269 N 0.45927 0.73059 0.8077 0.0
H270 H 0.52366 0.72412 0.80006 0.0
H271 H 0.45627 0.81898 0.8456 0.0
C272 C 0.515 0.89733 0.80416 0.0
O273 O 0.54577 0.9181 0.8165 0.0
N274 N 0.59581 0.85036 0.83258 0.0
C275 C 0.62069 0.85717 0.86024 0.0
C276 C 0.65108 0.8833 0.84942 0.0
C277 C 0.61269 0.87039 0.80498 0.0
N278 N 0.64566 0.89169 0.81474 0.0
C279 C 0.53157 0.79576 0.90102 0.0
C280 C 0.54164 0.87297 0.92793 0.0
C281 C 0.54618 0.83943 0.95056 0.0
C282 C 0.53827 0.8007 0.9372 0.0
C283 C 0.53485 0.86663 0.89165 0.0
N284 N 0.53321 0.82812 0.87828 0.0
H285 H 0.5296 0.76523 0.89078 0.0
H286 H 0.53575 0.89252 0.8744 0.0
H287 H 0.61741 0.8437 0.88629 0.0
H288 H 0.60035 0.87022 0.77842 0.0
O289 O 0.58415 0.76996 0.84296 0.0
O290 O 0.57437 0.79065 0.78775 0.0
O291 O 0.51375 0.8585 0.80747 0.0
C292 C 0.5935 0.76659 0.80981 0.0
H293 H 0.40517 0.76129 0.82592 0.0
H294 H 0.67568 0.8946 0.86557 0.0
H295 H 0.54695 0.90348 0.93748 0.0
H296 H 0.54043 0.77409 0.95411 0.0
Co297 Co 0.3182 0.54643 0.8164 0.0
C298 C 0.3883 0.49245 0.79902 0.0
C299 C 0.3392 0.46 0.82355 0.0
C300 C 0.36916 0.43265 0.81473 0.0
N301 N 0.35122 0.49758 0.81386 0.0
N302 N 0.40004 0.45312 0.79938 0.0
H303 H 0.4061 0.51659 0.78735 0.0
H304 H 0.31038 0.4529 0.83589 0.0
C305 C 0.23379 0.51934 0.79083 0.0
O306 O 0.21747 0.55316 0.80222 0.0
N307 N 0.28585 0.59562 0.81718 0.0
C308 C 0.27927 0.6218 0.84394 0.0
C309 C 0.25781 0.65467 0.83094 0.0
C310 C 0.27044 0.61397 0.78815 0.0
N311 N 0.25188 0.64932 0.79589 0.0
C312 C 0.33417 0.52998 0.88832 0.0
C313 C 0.2569 0.54305 0.91433 0.0
C314 C 0.28994 0.54565 0.93748 0.0
C315 C 0.32863 0.53671 0.92447 0.0
C316 C 0.26385 0.53639 0.87807 0.0
N317 N 0.30251 0.53284 0.86514 0.0
H318 H 0.3648 0.52653 0.8785 0.0
H319 H 0.23842 0.53823 0.86057 0.0
H320 H 0.28987 0.61777 0.87083 0.0
H321 H 0.27291 0.60144 0.76179 0.0
O322 O 0.36434 0.57851 0.82928 0.0
O323 O 0.34495 0.56857 0.77389 0.0
O324 O 0.272 0.51292 0.79457 0.0
C325 C 0.36958 0.58647 0.79604 0.0
H326 H 0.36857 0.40025 0.81975 0.0
H327 H 0.24712 0.68032 0.84616 0.0
H328 H 0.22645 0.54943 0.92361 0.0
H329 H 0.35484 0.53778 0.94172 0.0
Co330 Co 0.58873 0.32077 0.81328 0.0
C331 C 0.64476 0.39326 0.81143 0.0
C332 C 0.66407 0.34514 0.77769 0.0
C333 C 0.68957 0.37739 0.77257 0.0
N334 N 0.63677 0.35398 0.80326 0.0
N335 N 0.67753 0.40807 0.79356 0.0
H336 H 0.62505 0.41147 0.82774 0.0
H337 H 0.66421 0.31806 0.76171 0.0
C338 C 0.65389 0.25898 0.80739 0.0
O339 O 0.67218 0.27978 0.83232 0.0
N340 N 0.54078 0.28797 0.81978 0.0
C341 C 0.50912 0.29446 0.84171 0.0
C342 C 0.47763 0.26937 0.83168 0.0
C343 C 0.52834 0.25931 0.79693 0.0
N344 N 0.49004 0.24728 0.80367 0.0
C345 C 0.60559 0.34246 0.88496 0.0
C346 C 0.591 0.26592 0.91279 0.0
C347 C 0.58917 0.29954 0.93532 0.0
C348 C 0.59841 0.3379 0.92128 0.0
C349 C 0.59795 0.27183 0.87646 0.0
N350 N 0.60334 0.31004 0.86264 0.0
H351 H 0.60853 0.37277 0.87455 0.0
H352 H 0.59463 0.24609 0.85905 0.0
H353 H 0.50819 0.31741 0.86211 0.0
H354 H 0.54584 0.24977 0.77413 0.0
O355 O 0.55763 0.3685 0.82252 0.0
O356 O 0.56436 0.34098 0.76934 0.0
O357 O 0.61907 0.27069 0.79616 0.0
C358 C 0.54808 0.36898 0.78934 0.0
H359 H 0.71456 0.37822 0.75394 0.0
H360 H 0.44752 0.26846 0.84318 0.0
H361 H 0.58369 0.23581 0.92258 0.0
H362 H 0.59746 0.36463 0.93789 0.0
Co363 Co 0.8292 0.59175 0.82395 0.0
C364 C 0.76057 0.65278 0.81991 0.0
C365 C 0.80768 0.66213 0.78177 0.0
C366 C 0.77597 0.68696 0.77327 0.0
N367 N 0.79878 0.64067 0.81131 0.0
N368 N 0.74622 0.68193 0.79748 0.0
H369 H 0.74256 0.6388 0.84054 0.0
H370 H 0.83362 0.65727 0.76481 0.0
C371 C 0.9164 0.60911 0.79661 0.0
O372 O 0.93096 0.57597 0.81118 0.0
N373 N 0.85884 0.54175 0.833 0.0
C374 C 0.86773 0.52219 0.86356 0.0
C375 C 0.88887 0.48706 0.85555 0.0
C376 C 0.87235 0.51706 0.80707 0.0
N377 N 0.89128 0.48402 0.82001 0.0
C378 C 0.81271 0.61809 0.89382 0.0
C379 C 0.89026 0.60926 0.91998 0.0
C380 C 0.85746 0.60835 0.94382 0.0
C381 C 0.81863 0.61557 0.93031 0.0
C382 C 0.88295 0.61221 0.88334 0.0
N383 N 0.84412 0.61327 0.87055 0.0
H384 H 0.78195 0.61907 0.88456 0.0
H385 H 0.90834 0.60908 0.86578 0.0
H386 H 0.85946 0.53235 0.88978 0.0
H387 H 0.87019 0.52422 0.7791 0.0
O388 O 0.78095 0.56494 0.83964 0.0
O389 O 0.80253 0.56405 0.78431 0.0
O390 O 0.8787 0.61809 0.8 0.0
C391 C 0.77578 0.55193 0.8078 0.0
H392 H 0.77416 0.7044 0.74903 0.0
H393 H 0.90138 0.46544 0.87426 0.0
H394 H 0.92103 0.60515 0.92932 0.0
H395 H 0.79228 0.61552 0.94753 0.0
Co396 Co 0.54263 0.32453 0.20172 0.0
C397 C 0.49224 0.3978 0.21946 0.0
C398 C 0.4565 0.34652 0.20375 0.0
C399 C 0.43072 0.37779 0.2125 0.0
N400 N 0.49512 0.35889 0.20814 0.0
N401 N 0.45315 0.41005 0.22231 0.0
H402 H 0.51791 0.41674 0.22589 0.0
H403 H 0.44766 0.31673 0.19463 0.0
C404 C 0.51681 0.24009 0.22895 0.0
O405 O 0.54846 0.22352 0.21367 0.0
N406 N 0.59056 0.2906 0.19663 0.0
C407 C 0.61061 0.27915 0.1672 0.0
C408 C 0.64248 0.25444 0.17698 0.0
C409 C 0.61217 0.27497 0.22382 0.0
N410 N 0.64355 0.25177 0.21277 0.0
C411 C 0.52158 0.34301 0.13133 0.0
C412 C 0.52523 0.26544 0.1042 0.0
C413 C 0.52908 0.29864 0.08087 0.0
C414 C 0.52453 0.33772 0.0948 0.0
C415 C 0.5222 0.27216 0.14087 0.0
N416 N 0.52387 0.31073 0.15409 0.0
H417 H 0.52142 0.37364 0.14149 0.0
H418 H 0.52242 0.24627 0.15816 0.0
H419 H 0.60272 0.28771 0.14041 0.0
H420 H 0.60401 0.27961 0.25127 0.0
O421 O 0.57518 0.37027 0.18725 0.0
O422 O 0.56893 0.3492 0.24278 0.0
O423 O 0.51036 0.27848 0.22592 0.0
C424 C 0.58598 0.37395 0.21998 0.0
H425 H 0.39794 0.37721 0.21089 0.0
H426 H 0.66209 0.2387 0.15865 0.0
H427 H 0.52683 0.2346 0.09447 0.0
H428 H 0.52655 0.36438 0.07795 0.0
Co429 Co 0.82211 0.55224 0.20923 0.0
C430 C 0.75182 0.49233 0.2102 0.0
C431 C 0.7943 0.48512 0.25246 0.0
C432 C 0.76191 0.46027 0.25912 0.0
N433 N 0.78895 0.50481 0.22137 0.0
N434 N 0.73485 0.46465 0.23274 0.0
H435 H 0.73677 0.50441 0.18718 0.0
H436 H 0.8188 0.49075 0.27077 0.0
C437 C 0.88192 0.48683 0.22237 0.0
O438 O 0.86057 0.46626 0.19922 0.0
N439 N 0.85481 0.60007 0.20094 0.0
C440 C 0.85494 0.62577 0.17296 0.0
C441 C 0.87962 0.65845 0.18086 0.0
C442 C 0.87839 0.61768 0.22558 0.0
N443 N 0.89393 0.65312 0.21396 0.0
C444 C 0.80347 0.53409 0.13726 0.0
C445 C 0.88214 0.54245 0.11264 0.0
C446 C 0.85001 0.54688 0.08873 0.0
C447 C 0.81047 0.54053 0.10114 0.0
C448 C 0.87382 0.53627 0.14878 0.0
N449 N 0.83464 0.53424 0.16103 0.0
H450 H 0.77253 0.53428 0.14624 0.0
H451 H 0.89876 0.53843 0.16718 0.0
H452 H 0.83741 0.62171 0.14905 0.0
H453 H 0.88301 0.60544 0.25194 0.0
O454 O 0.77434 0.58258 0.19747 0.0
O455 O 0.80068 0.57883 0.25138 0.0
O456 O 0.87167 0.52345 0.22958 0.0
C457 C 0.77289 0.59358 0.23029 0.0
H458 H 0.75759 0.44223 0.28289 0.0
H459 H 0.88535 0.68474 0.16426 0.0
H460 H 0.91313 0.54758 0.10412 0.0
H461 H 0.78482 0.54366 0.08343 0.0
Co462 Co 0.58969 0.82287 0.21671 0.0
C463 C 0.64921 0.75262 0.22257 0.0
C464 C 0.65193 0.79542 0.26492 0.0
C465 C 0.67713 0.76371 0.27306 0.0
N466 N 0.63489 0.78932 0.23289 0.0
N467 N 0.67539 0.73658 0.24659 0.0
H468 H 0.64002 0.73723 0.19886 0.0
H469 H 0.6448 0.82045 0.2823 0.0
C470 C 0.6567 0.8805 0.22858 0.0
O471 O 0.67726 0.85615 0.20771 0.0
N472 N 0.54387 0.85634 0.20435 0.0
C473 C 0.51547 0.8496 0.1794 0.0
C474 C 0.48238 0.87406 0.18646 0.0
C475 C 0.52802 0.88462 0.22592 0.0
N476 N 0.49052 0.89581 0.2158 0.0
C477 C 0.61211 0.79841 0.14685 0.0
C478 C 0.60801 0.87544 0.11767 0.0
C479 C 0.60647 0.84179 0.09514 0.0
C480 C 0.6103 0.80301 0.11013 0.0
C481 C 0.61042 0.86952 0.15441 0.0
N482 N 0.61092 0.83122 0.16881 0.0
H483 H 0.60919 0.76818 0.15728 0.0
H484 H 0.60716 0.89575 0.17127 0.0
H485 H 0.51748 0.82657 0.15914 0.0
H486 H 0.54211 0.89405 0.25043 0.0
O487 O 0.5588 0.77534 0.20635 0.0
O488 O 0.55921 0.8055 0.25872 0.0
O489 O 0.61929 0.87267 0.23516 0.0
C490 C 0.54508 0.77674 0.23842 0.0
H491 H 0.69403 0.76003 0.29741 0.0
H492 H 0.45395 0.87447 0.17218 0.0
H493 H 0.60476 0.90594 0.10717 0.0
H494 H 0.60795 0.77608 0.09389 0.0
Co495 Co 0.31688 0.59894 0.20472 0.0
C496 C 0.38548 0.65383 0.22329 0.0
C497 C 0.33711 0.68558 0.19725 0.0
C498 C 0.36647 0.7133 0.20661 0.0
N499 N 0.34915 0.6482 0.20747 0.0
N500 N 0.3969 0.69324 0.22289 0.0
H501 H 0.40287 0.62997 0.23576 0.0
H502 H 0.30866 0.69229 0.18426 0.0
C503 C 0.232 0.62607 0.22986 0.0
O504 O 0.21566 0.59195 0.21921 0.0
N505 N 0.28544 0.54937 0.20372 0.0
C506 C 0.28485 0.52092 0.17821 0.0
C507 C 0.26703 0.48625 0.19179 0.0
C508 C 0.2696 0.53109 0.23266 0.0
N509 N 0.25754 0.4927 0.22617 0.0
C510 C 0.33288 0.6176 0.13282 0.0
C511 C 0.2564 0.60182 0.10655 0.0
C512 C 0.28909 0.60417 0.08276 0.0
C513 C 0.32746 0.61365 0.09632 0.0
C514 C 0.26314 0.60616 0.14303 0.0
N515 N 0.30139 0.6121 0.15596 0.0
H516 H 0.36335 0.62165 0.14272 0.0
H517 H 0.23806 0.60108 0.16054 0.0
H518 H 0.29815 0.52443 0.15214 0.0
H519 H 0.26673 0.54628 0.25786 0.0
O520 O 0.36366 0.56745 0.19216 0.0
O521 O 0.34312 0.57705 0.24739 0.0
O522 O 0.27026 0.63214 0.22619 0.0
C523 C 0.36822 0.55927 0.22544 0.0
H524 H 0.36576 0.74565 0.2014 0.0
H525 H 0.26243 0.45812 0.17765 0.0
H526 H 0.22619 0.59472 0.09721 0.0
H527 H 0.35384 0.61504 0.07919 0.0
C528 C 0.0328 0.36389 0.50053 0.0
C529 C 0.05589 0.34432 0.47427 0.0
C530 C 0.04653 0.36586 0.53585 0.0
C531 C 0.08392 0.34855 0.54603 0.0
H532 H 1.00333 0.37637 0.49403 0.0
H533 H 0.02695 0.37944 0.55561 0.0
S534 S 0.15851 0.29989 0.48601 0.0
N535 N 0.11994 0.31156 0.46006 0.0
N536 N 0.14556 0.31533 0.52604 0.0
C537 C 0.10818 0.33107 0.51951 0.0
C538 C 0.09424 0.32898 0.48378 0.0
C539 C 0.75582 0.0629 0.5407 0.0
C540 C 0.77672 0.09889 0.5494 0.0
C541 C 0.7556 0.0481 0.50578 0.0
C542 C 0.77631 0.06886 0.47864 0.0
H543 H 0.74164 0.04482 0.56136 0.0
H544 H 0.741 1.01932 0.50036 0.0
S545 S 0.83024 0.16721 0.48648 0.0
N546 N 0.8146 0.15697 0.52717 0.0
N547 N 0.81429 0.12918 0.46178 0.0
C548 C 0.79491 0.10612 0.48656 0.0
C549 C 0.7951 0.12114 0.5219 0.0
C550 C 0.08832 0.8096 0.54152 0.0
C551 C 0.05174 0.78997 0.55056 0.0
C552 C 0.10357 0.80896 0.50682 0.0
C553 C 0.08288 0.78869 0.47956 0.0
H554 H 0.10503 0.82628 0.56142 0.0
H555 H 0.13132 0.82539 0.5011 0.0
S556 S 0.98632 0.73153 0.48959 0.0
N557 N 0.99594 0.74841 0.52986 0.0
N558 N 0.02411 0.74761 0.46432 0.0
C559 C 0.04698 0.76762 0.48851 0.0
C560 C 0.03154 0.76815 0.52406 0.0
C561 C 0.37563 0.07342 0.54947 0.0
C562 C 0.35193 0.03912 0.5585 0.0
C563 C 0.37699 0.08859 0.5145 0.0
C564 C 0.35445 0.07018 0.48741 0.0
H565 H 0.39182 0.08978 0.56986 0.0
H566 H 0.39444 0.11577 0.50892 0.0
S567 S 0.29228 0.97672 0.49573 0.0
N568 N 0.30904 0.9849 0.53628 0.0
N569 N 0.31102 1.01382 0.47103 0.0
C570 C 0.33233 0.03485 0.49567 0.0
C571 C 0.33118 1.01925 0.53105 0.0
C572 C 0.54514 0.86741 1.01259 0.0
C573 C 0.56404 0.8437 0.98646 0.0
C574 C 0.56035 0.86845 0.0474 0.0
C575 C 0.59514 0.84607 0.05711 0.0
H576 H 0.5176 0.88393 1.00645 0.0
H577 H 0.54368 0.88538 0.0672 0.0
S578 S 0.65914 0.78462 0.99681 0.0
N579 N 0.62171 0.80107 0.97154 0.0
N580 N 0.65035 0.80328 0.03663 0.0
C581 C 0.61553 0.82427 0.03058 0.0
C582 C 0.59999 0.82306 0.99536 0.0
C583 C 0.26509 0.54149 1.0006 0.0
C584 C 0.28556 0.56278 0.97361 0.0
C585 C 0.26469 0.55607 0.03563 0.0
C586 C 0.28454 0.59255 0.04477 0.0
H587 H 0.25069 0.51269 0.99487 0.0
H588 H 0.25025 0.53772 0.05596 0.0
S589 S 0.33731 0.66221 0.98228 0.0
N590 N 0.32275 0.62377 0.95741 0.0
N591 N 0.3214 0.65152 0.0228 0.0
C592 C 0.30311 0.61508 0.01742 0.0
C593 C 0.30374 0.60012 0.98198 0.0
C594 C 0.53892 0.31926 0.98189 0.0
C595 C 0.57275 0.29583 0.97197 0.0
C596 C 0.52356 0.31815 0.01658 0.0
C597 C 0.54155 0.29378 0.043 0.0
H598 H 0.52438 0.33898 0.96267 0.0
H599 H 0.49789 0.33732 0.02297 0.0
S600 S 0.63081 0.2264 0.0304 0.0
N601 N 0.62319 0.24671 0.99085 0.0
N602 N 0.59522 0.24531 0.05642 0.0
C603 C 0.57482 0.26931 0.03312 0.0
C604 C 0.59021 0.27019 0.99757 0.0
C605 C 0.83695 0.60019 0.0428 0.0
C606 C 0.85655 0.56384 0.05251 0.0
C607 C 0.83969 0.6158 1.00822 0.0
C608 C 0.86192 0.5956 0.98171 0.0
H609 H 0.8187 0.61637 0.06203 0.0
H610 H 0.82317 0.64333 1.00191 0.0
S611 S 0.91979 0.49971 0.99394 0.0
N612 N 0.9003 0.50887 0.03348 0.0
N613 N 0.90473 0.53743 0.9681 0.0
C614 C 0.88294 0.55991 0.99147 0.0
C615 C 0.8804 0.54422 0.02692 0.0
C616 C 0.1784 0.27338 0.28185 0.0
C617 C 0.14035 0.25568 0.2883 0.0
C618 C 0.21424 0.25125 0.28776 0.0
C619 C 0.2131 0.21075 0.30016 0.0
H620 H 0.1806 0.30544 0.27546 0.0
H621 H 0.24307 0.2666 0.2845 0.0
S622 S 0.12031 0.14983 0.31716 0.0
N623 N 0.10322 0.19472 0.30446 0.0
N624 N 0.17026 0.15313 0.31556 0.0
C625 C 0.17504 0.19189 0.30377 0.0
C626 C 0.13872 0.21443 0.29785 0.0
C627 C 0.92795 0.13832 0.32312 0.0
C628 C 0.89696 0.12947 0.2987 0.0
C629 C 0.95261 0.17274 0.31918 0.0
C630 C 0.94693 0.20011 0.29091 0.0
H631 H 0.93277 0.11879 0.34592 0.0
H632 H 0.9762 0.17792 0.33852 0.0
S633 S 0.8696 0.19056 0.21979 0.0
N634 N 0.86252 0.14996 0.24486 0.0
N635 N 0.90705 0.21589 0.23825 0.0
C636 C 0.91616 0.19124 0.26606 0.0
C637 C 0.89171 0.1556 0.26971 0.0
C638 C 0.94626 0.91226 0.28085 0.0
C639 C 0.94344 0.94893 0.29986 0.0
C640 C 0.98344 0.89171 0.27716 0.0
C641 C 1.01892 0.90686 0.29284 0.0
H642 H 0.91908 0.8983 0.27043 0.0
H643 H 0.98356 0.862 0.26493 0.0
S644 S 0.02878 1.00346 0.34212 0.0
N645 N 0.98025 1.00126 0.33151 0.0
N646 N 0.04975 0.96224 0.32534 0.0
C647 C 1.01706 0.94487 0.3096 0.0
C648 C 0.97941 0.96606 0.31291 0.0
C649 C 0.26276 0.98865 0.28133 0.0
C650 C 0.24743 0.02381 0.29752 0.0
C651 C 0.24124 0.95175 0.28299 0.0
C652 C 0.20344 0.94889 0.30044 0.0
H653 H 0.2931 0.98866 0.2702 0.0
H654 H 0.25519 0.92475 0.27213 0.0
S655 S 0.14865 0.03354 0.34385 0.0
N656 N 0.19112 0.05435 0.32917 0.0
N657 N 0.15039 0.98546 0.33165 0.0
C658 C 0.18647 0.98466 0.31421 0.0
C659 C 0.2086 1.02199 0.31293 0.0
C660 C 0.18993 0.89877 0.76031 0.0
C661 C 0.19388 0.93743 0.74423 0.0
C662 C 0.15355 0.87671 0.75869 0.0
C663 C 0.11977 0.89228 0.74064 0.0
H664 H 0.21569 0.88463 0.7731 0.0
H665 H 0.15278 0.84622 0.76964 0.0
S666 S 0.11178 0.99379 0.69818 0.0
N667 N 0.15877 0.99196 0.7132 0.0
N668 N 0.09101 0.94976 0.70894 0.0
C669 C 0.12251 0.9315 0.72587 0.0
C670 C 0.1594 0.95422 0.72787 0.0
C671 C 0.24166 0.19761 0.74842 0.0
C672 C 0.203 0.19888 0.73252 0.0
C673 C 0.26226 0.16062 0.75366 0.0
C674 C 0.24502 0.1237 0.74277 0.0
H675 H 0.25681 0.22561 0.75544 0.0
H676 H 0.29314 0.16134 0.76342 0.0
S677 S 0.14366 0.10985 0.70232 0.0
N678 N 0.14745 0.15937 0.70823 0.0
N679 N 0.18622 0.09022 0.71775 0.0
C680 C 0.20549 0.12432 0.72893 0.0
C681 C 0.18442 0.1618 0.72389 0.0
C682 C 0.94831 0.23114 0.75404 0.0
C683 C 0.94528 0.19458 0.73489 0.0
C684 C 0.98527 0.25224 0.75652 0.0
C685 C 1.02024 0.23769 0.73948 0.0
H686 H 0.9213 0.24479 0.76521 0.0
H687 H 0.98538 0.282 0.76865 0.0
S688 S 0.02974 0.14116 0.69002 0.0
N689 N 0.9816 0.14269 0.70216 0.0
N690 N 0.05073 0.18264 0.7062 0.0
C691 C 1.0184 0.19952 0.723 0.0
C692 C 0.98098 0.17783 0.72086 0.0
C693 C 0.95033 0.96815 0.71822 0.0
C694 C 0.9329 0.9338 0.73477 0.0
C695 C 0.92967 1.00548 0.7167 0.0
C696 C 0.89141 1.0104 0.73268 0.0
H697 H 0.97991 0.96618 0.70586 0.0
H698 H 0.94334 0.03051 0.70222 0.0
S699 S 0.83103 0.93058 0.77779 0.0
N700 N 0.87318 0.90741 0.76562 0.0
N701 N 0.83655 0.97826 0.76509 0.0
C702 C 0.8741 0.977 0.75019 0.0
C703 C 0.89427 0.93857 0.75066 0.0
C704 C 0.63564 0.70413 0.81719 0.0
C705 C 0.6291 0.74161 0.80001 0.0
C706 C 0.67337 0.68423 0.81546 0.0
C707 C 0.70665 0.70162 0.79735 0.0
H708 H 0.61167 0.69065 0.83304 0.0
H709 H 0.67649 0.65543 0.82906 0.0
S710 S 0.70528 0.80079 0.7494 0.0
N711 N 0.65841 0.79518 0.76404 0.0
N712 N 0.72996 0.76011 0.76291 0.0
C713 C 0.70011 0.73922 0.77988 0.0
C714 C 0.66124 0.75858 0.78064 0.0
C715 C 0.45847 0.65571 0.80747 0.0
C716 C 0.44269 0.69277 0.79513 0.0
C717 C 0.43654 0.61941 0.80353 0.0
C718 C 0.39862 0.61882 0.78638 0.0
H719 H 0.48599 0.65537 0.82307 0.0
H720 H 0.4477 0.59224 0.81659 0.0
S721 S 0.34763 0.70666 0.74408 0.0
N722 N 0.38951 0.7259 0.76116 0.0
N723 N 0.34883 0.65755 0.75319 0.0
C724 C 0.38475 0.65487 0.77061 0.0
C725 C 0.40663 0.69195 0.77521 0.0
C726 C 0.47732 0.37679 0.76865 0.0
C727 C 0.51401 0.39515 0.77863 0.0
C728 C 0.44013 0.39694 0.77351 0.0
C729 C 0.43843 0.43622 0.78818 0.0
H730 H 0.47695 0.34528 0.76047 0.0
H731 H 0.41234 0.38085 0.76757 0.0
S732 S 0.52683 0.49876 0.81473 0.0
N733 N 0.5469 0.45579 0.80069 0.0
N734 N 0.47734 0.49383 0.80956 0.0
C735 C 0.47528 0.45608 0.7953 0.0
C736 C 0.51299 0.43547 0.79055 0.0
C737 C 0.74554 0.49688 0.7703 0.0
C738 C 0.74457 0.52024 0.80125 0.0
C739 C 0.72174 0.46168 0.76723 0.0
C740 C 0.6965 0.44785 0.79523 0.0
H741 H 0.76614 0.50472 0.74892 0.0
H742 H 0.72425 0.44461 0.74293 0.0
S743 S 0.67937 0.50152 0.88033 0.0
N744 N 0.71234 0.53014 0.85878 0.0
N745 N 0.66987 0.463 0.85387 0.0
C746 C 0.69346 0.4725 0.82545 0.0
C747 C 0.71697 0.50883 0.82824 0.0
C748 C 0.65368 0.38509 0.24715 0.0
C749 C 0.62041 0.40083 0.22857 0.0
C750 C 0.69065 0.40619 0.24823 0.0
C751 C 0.69579 0.44428 0.23129 0.0
H752 H 0.65197 0.35512 0.25908 0.0
H753 H 0.71585 0.39167 0.26153 0.0
S754 S 0.61538 0.50056 0.18274 0.0
N755 N 0.5935 0.45746 0.19464 0.0
N756 N 0.66214 0.49831 0.19825 0.0
C757 C 0.66183 0.46118 0.21406 0.0
C758 C 0.62439 0.4392 0.21241 0.0
C759 C 0.7591 0.65989 0.25909 0.0
C760 C 0.74462 0.6261 0.24054 0.0
C761 C 0.73596 0.69555 0.26134 0.0
C762 C 0.69736 0.6986 0.24539 0.0
H763 H 0.78951 0.65975 0.26994 0.0
H764 H 0.74922 0.72151 0.27442 0.0
S765 S 0.64364 0.6157 0.19852 0.0
N766 N 0.68826 0.59611 0.20871 0.0
N767 N 0.64398 0.66242 0.21422 0.0
C768 C 0.68164 0.66393 0.22866 0.0
C769 C 0.70546 0.62785 0.22598 0.0
C770 C 0.4726 0.77023 0.25504 0.0
C771 C 0.50973 0.75133 0.24718 0.0
C772 C 0.43565 0.75016 0.24894 0.0
C773 C 0.43467 0.71049 0.23503 0.0
H774 H 0.47194 0.80192 0.26267 0.0
H775 H 0.40763 0.76653 0.2534 0.0
S776 S 0.52429 0.64679 0.21368 0.0
N777 N 0.54366 0.68997 0.22786 0.0
N778 N 0.47458 0.65218 0.21639 0.0
C779 C 0.4718 0.69027 0.22985 0.0
C780 C 0.50925 0.71075 0.23596 0.0
C781 C 0.40088 0.45381 0.24986 0.0
C782 C 0.43754 0.44989 0.2308 0.0
C783 C 0.38067 0.49134 0.25232 0.0
C784 C 0.39621 0.52612 0.23536 0.0
H785 H 0.38663 0.42716 0.26134 0.0
H786 H 0.35097 0.49219 0.26465 0.0
S787 S 0.49303 0.53337 0.18552 0.0
N788 N 0.49025 0.48519 0.19768 0.0
N789 N 0.45201 0.55531 0.20178 0.0
C790 C 0.43425 0.52329 0.2186 0.0
C791 C 0.45503 0.48529 0.21644 0.0
C792 C 0.20794 0.43769 0.23593 0.0
C793 C 0.23571 0.46573 0.24984 0.0
C794 C 0.1829 0.41447 0.25807 0.0
C795 C 0.18387 0.41865 0.29523 0.0
H796 H 0.20435 0.43456 0.20759 0.0
H797 H 0.16214 0.39348 0.24568 0.0
S798 S 0.25532 0.48344 0.34551 0.0
N799 N 0.26673 0.49218 0.30354 0.0
N800 N 0.21753 0.45055 0.34509 0.0
C801 C 0.21296 0.44498 0.30969 0.0
C802 C 0.23922 0.46813 0.28705 0.0
C803 C 0.68171 0.19195 0.29166 0.0
C804 C 0.71958 0.17758 0.28019 0.0
C805 C 0.65716 0.21572 0.26948 0.0
C806 C 0.66976 0.22703 0.23501 0.0
H807 H 0.6706 0.184 0.31782 0.0
H808 H 0.62778 0.22466 0.27953 0.0
S809 S 0.76779 0.19839 0.19317 0.0
N810 N 0.76897 0.17627 0.23251 0.0
N811 N 0.72414 0.22274 0.19135 0.0
C812 C 0.70805 0.21315 0.22346 0.0
C813 C 0.7326 0.18806 0.24589 0.0
C814 C 0.90114 0.70061 0.26368 0.0
C815 C 0.91793 0.6809 0.23419 0.0
C816 C 0.92486 0.72619 0.2849 0.0
C817 C 0.96636 0.73251 0.27762 0.0
H818 H 0.86947 0.69602 0.27031 0.0
H819 H 0.91062 0.74103 0.30722 0.0
S820 S 0.02483 0.68431 0.20461 0.0
N821 N 0.97796 0.66778 0.19916 0.0
N822 N 0.02338 0.71434 0.23951 0.0
C823 C 0.98341 0.71234 0.24818 0.0
C824 C 0.95898 0.68687 0.22637 0.0
C825 C 0.45312 0.98131 0.27228 0.0
C826 C 0.41444 0.96781 0.28255 0.0
C827 C 0.47749 0.95793 0.24977 0.0
C828 C 0.46348 0.92087 0.23607 0.0
H829 H 0.46482 1.00968 0.28246 0.0
H830 H 0.50765 0.96865 0.24316 0.0
S831 S 0.36354 0.87329 0.25425 0.0
N832 N 0.3627 0.91592 0.2772 0.0
N833 N 0.40814 0.87207 0.23413 0.0
C834 C 0.42434 0.9076 0.2455 0.0
C835 C 0.39989 0.93107 0.26901 0.0
C836 C 0.2283 0.71737 0.77686 0.0
C837 C 0.22904 0.67497 0.77205 0.0
C838 C 0.2045 0.74254 0.75512 0.0
C839 C 0.18122 0.72625 0.72751 0.0
H840 H 0.24594 0.7311 0.79778 0.0
H841 H 0.20373 0.77489 0.76015 0.0
S842 S 0.16964 0.61761 0.70532 0.0
N843 N 0.20202 0.61794 0.73863 0.0
N844 N 0.15859 0.66571 0.69732 0.0
C845 C 0.18181 0.68423 0.72216 0.0
C846 C 0.20546 0.65847 0.74451 0.0
C847 C 0.40365 0.2072 0.74917 0.0
C848 C 0.41887 0.16973 0.7374 0.0
C849 C 0.42674 0.23216 0.77146 0.0
C850 C 0.46601 0.2207 0.78207 0.0
H851 H 0.37339 0.21672 0.74172 0.0
H852 H 0.41413 0.26085 0.78005 0.0
S853 S 0.51963 0.12593 0.75768 0.0
N854 N 0.4752 0.1224 0.73773 0.0
N855 N 0.5191 0.16971 0.77888 0.0
C856 C 0.48164 0.18355 0.77004 0.0
C857 C 0.45788 0.15791 0.74794 0.0
C858 C 0.97866 0.42537 0.7823 0.0
C859 C 0.96113 0.4055 0.753 0.0
C860 C 0.9553 0.44945 0.80519 0.0
C861 C 0.91364 0.45498 0.79943 0.0
H862 H 1.01097 0.42353 0.78698 0.0
H863 H 0.97015 0.4653 0.82662 0.0
S864 S 0.85166 0.40677 0.72968 0.0
N865 N 0.89818 0.39024 0.72207 0.0
N866 N 0.85501 0.43705 0.76431 0.0
C867 C 0.89538 0.43459 0.77113 0.0
C868 C 0.91891 0.40949 0.7481 0.0
C869 C 0.67924 0.90708 0.75782 0.0
C870 C 0.66939 0.91835 0.79258 0.0
C871 C 0.70296 0.93216 0.73599 0.0
C872 C 0.71625 0.97061 0.74743 0.0
H873 H 0.66868 0.8785 0.74746 0.0
H874 H 0.71087 0.92106 0.70997 0.0
S875 S 0.69049 1.01762 0.83423 0.0
N876 N 0.67066 0.97167 0.83651 0.0
N877 N 0.71216 1.02073 0.79485 0.0
C878 C 0.70429 0.98324 0.78169 0.0
C879 C 0.68149 0.95677 0.80434 0.0
C880 C 0.96028 0.70676 0.75627 0.0
C881 C 0.99991 0.69548 0.74615 0.0
C882 C 0.93333 0.67868 0.77198 0.0
C883 C 0.94486 0.63809 0.77856 0.0
H884 H 0.94977 0.73754 0.75188 0.0
H885 H 0.90339 0.68914 0.77945 0.0
S886 S 0.04524 0.59272 0.75708 0.0
N887 N 0.04918 0.64045 0.744 0.0
N888 N 0.99888 0.58807 0.77321 0.0
C889 C 0.9844 0.62639 0.7685 0.0
C890 C 1.01175 0.6549 0.75241 0.0
C891 C 0.41979 0.91697 0.74941 0.0
C892 C 0.41428 0.9594 0.75144 0.0
C893 C 0.45211 0.89735 0.76659 0.0
C894 C 0.48081 0.91921 0.78639 0.0
H895 H 0.39878 0.89841 0.73455 0.0
H896 H 0.45467 0.86468 0.76406 0.0
S897 S 0.48011 0.0309 0.80075 0.0
N898 N 0.44026 0.02262 0.7754 0.0
N899 N 0.50109 0.986 0.80747 0.0
C900 C 0.47573 0.96172 0.78873 0.0
C901 C 0.44252 0.9817 0.77138 0.0
C902 C 0.13876 0.47248 0.75124 0.0
C903 C 0.14885 0.43137 0.74591 0.0
C904 C 0.16664 0.50019 0.76515 0.0
C905 C 0.20632 0.48849 0.77449 0.0
H906 H 0.10878 0.4837 0.74478 0.0
H907 H 0.15667 0.53128 0.7686 0.0
S908 S 0.24903 0.38466 0.76542 0.0
N909 N 0.20202 0.38036 0.75085 0.0
N910 N 0.2546 0.43269 0.7769 0.0
C911 C 0.21728 0.4476 0.76899 0.0
C912 C 0.18857 0.41906 0.75485 0.0
C913 C 0.65424 0.19446 0.77205 0.0
C914 C 0.67575 0.22492 0.79001 0.0
C915 C 0.67455 0.16209 0.75556 0.0
C916 C 0.71727 0.15914 0.75589 0.0
H917 H 0.6214 0.19542 0.77096 0.0
H918 H 0.6565 0.13943 0.74213 0.0
S919 S 0.7879 0.23195 0.79845 0.0
N920 N 0.74234 0.25049 0.8066 0.0
N921 N 0.7803 0.19005 0.77562 0.0
C922 C 0.73912 0.18962 0.77361 0.0
C923 C 0.71845 0.22234 0.79066 0.0
C924 C 0.98036 0.46996 0.27383 0.0
C925 C 0.98336 0.42722 0.27593 0.0
C926 C 0.94742 0.48914 0.25688 0.0
C927 C 0.91627 0.46642 0.24099 0.0
H928 H 1.00366 0.48891 0.28535 0.0
H929 H 0.94667 0.52202 0.25583 0.0
S930 S 0.908 0.35378 0.24059 0.0
N931 N 0.95076 0.36299 0.26164 0.0
N932 N 0.88967 0.39876 0.22976 0.0
C933 C 0.91862 0.42374 0.24319 0.0
C934 C 0.95188 0.40425 0.26062 0.0
C935 C 0.65527 0.94759 0.26038 0.0
C936 C 0.67764 0.91586 0.24491 0.0
C937 C 0.67474 0.98128 0.27559 0.0
C938 C 0.71743 0.9845 0.27626 0.0
H939 H 0.62242 0.94657 0.26059 0.0
H940 H 0.65606 1.00478 0.28722 0.0
S941 S 0.79019 0.90921 0.23978 0.0
N942 N 0.74509 0.88968 0.23165 0.0
N943 N 0.78136 0.95267 0.25989 0.0
C944 C 0.74013 0.95289 0.2609 0.0
C945 C 0.72035 0.91873 0.24533 0.0
C946 C 0.13665 0.67562 0.26682 0.0
C947 C 0.14885 0.71514 0.2762 0.0
C948 C 0.16376 0.64768 0.25204 0.0
C949 C 0.20475 0.65753 0.2458 0.0
H950 H 0.10563 0.66579 0.27096 0.0
H951 H 0.15216 0.61783 0.24567 0.0
S952 S 0.25258 0.75736 0.26457 0.0
N953 N 0.20496 0.76311 0.27735 0.0
N954 N 0.25617 0.7104 0.24966 0.0
C955 C 0.21755 0.69712 0.25464 0.0
C956 C 0.18961 0.72591 0.26968 0.0
C957 C 0.47731 0.14581 0.27659 0.0
C958 C 0.43721 0.15564 0.28621 0.0
C959 C 0.50232 0.17351 0.25861 0.0
C960 C 0.48883 0.21277 0.24939 0.0
H961 H 0.48969 0.11611 0.28262 0.0
H962 H 0.53276 0.16375 0.2519 0.0
S963 S 0.38671 0.25474 0.26911 0.0
N964 N 0.38522 0.20815 0.28553 0.0
N965 N 0.43255 0.26042 0.25198 0.0
C966 C 0.44898 0.2235 0.25925 0.0
C967 C 0.42315 0.19494 0.27746 0.0
loop_
_geom_bond_atom_site_label_1
_geom_bond_atom_site_label_2
_geom_bond_distance
_geom_bond_site_symmetry_2
_ccdc_geom_bond_type
Co0 N4 2.148 1_455 S
Co0 N10 2.128 . S
Co0 N20 2.194 . S
Co0 O25 2.351 . S
Co0 O26 2.155 . S
Co0 O27 2.096 . S
C1 N4 1.301 . S
C1 N5 1.328 . S
C1 H6 0.924 1_655 S
C2 C3 1.333 . S
C2 N4 1.317 . S
C2 H7 0.930 . S
C3 C2 1.333 . S
C3 N5 1.350 . S
C3 H29 0.931 . S
N4 Co0 2.148 1_655 S
N4 C1 1.301 . S
N4 C2 1.317 . S
N5 C1 1.328 . S
N5 C3 1.350 . S
H6 C1 0.924 1_455 S
H7 C2 0.930 . S
C8 O9 1.224 . S
C8 O27 1.247 1_655 S
O9 C8 1.224 . S
N10 Co0 2.128 . S
N10 C11 1.355 . S
N10 C13 1.311 . S
C11 N10 1.355 . S
C11 C12 1.363 . S
C11 H23 0.929 . S
C12 C11 1.363 . S
C12 N14 1.375 . S
C12 H30 0.931 . S
C13 N10 1.311 . S
C13 N14 1.347 . S
C13 H24 0.929 . S
N14 C12 1.375 . S
N14 C13 1.347 . S
C15 C18 1.365 . S
C15 N20 1.328 . S
C15 H21 0.929 . S
C16 C17 1.362 . S
C16 C19 1.378 . S
C16 H31 0.929 1_455 S
C17 C16 1.362 . S
C17 C18 1.366 . S
C18 C15 1.365 . S
C18 C17 1.366 . S
C18 H32 0.930 . S
C19 C16 1.378 . S
C19 N20 1.315 . S
C19 H22 0.930 1_455 S
N20 Co0 2.194 . S
N20 C15 1.328 . S
N20 C19 1.315 . S
H21 C15 0.929 . S
H22 C19 0.930 1_655 S
H23 C11 0.929 . S
H24 C13 0.929 . S
O25 Co0 2.351 . S
O25 C28 1.244 . S
O26 Co0 2.155 . S
O26 C28 1.240 . S
O27 Co0 2.096 . S
O27 C8 1.247 1_455 S
C28 O25 1.244 . S
C28 O26 1.240 . S
H29 C3 0.931 . S
H30 C12 0.931 . S
H31 C16 0.929 1_655 S
H32 C18 0.930 . S
Co33 N37 2.148 1_545 S
Co33 N43 2.128 . S
Co33 N53 2.194 . S
Co33 O58 2.351 . S
Co33 O59 2.155 . S
Co33 O60 2.096 . S
C34 N37 1.301 . S
C34 N38 1.328 . S
C34 H39 0.924 1_565 S
C35 C36 1.333 . S
C35 N37 1.317 . S
C35 H40 0.930 . S
C36 C35 1.333 . S
C36 N38 1.350 . S
C36 H62 0.931 . S
N37 Co33 2.148 1_565 S
N37 C34 1.301 . S
N37 C35 1.317 . S
N38 C34 1.328 . S
N38 C36 1.350 . S
H39 C34 0.924 1_545 S
H40 C35 0.930 . S
C41 O42 1.224 . S
C41 O60 1.247 1_565 S
O42 C41 1.224 . S
N43 Co33 2.128 . S
N43 C44 1.355 . S
N43 C46 1.311 . S
C44 N43 1.355 . S
C44 C45 1.363 . S
C44 H56 0.929 . S
C45 C44 1.363 . S
C45 N47 1.375 . S
C45 H63 0.931 . S
C46 N43 1.311 . S
C46 N47 1.347 . S
C46 H57 0.929 . S
N47 C45 1.375 . S
N47 C46 1.347 . S
C48 C51 1.365 . S
C48 N53 1.328 . S
C48 H54 0.929 . S
C49 C50 1.362 . S
C49 C52 1.378 . S
C49 H64 0.929 1_545 S
C50 C49 1.362 . S
C50 C51 1.366 . S
C51 C48 1.365 . S
C51 C50 1.366 . S
C51 H65 0.930 . S
C52 C49 1.378 . S
C52 N53 1.315 . S
C52 H55 0.930 1_545 S
N53 Co33 2.194 . S
N53 C48 1.328 . S
N53 C52 1.315 . S
H54 C48 0.929 . S
H55 C52 0.930 1_565 S
H56 C44 0.929 . S
H57 C46 0.929 . S
O58 Co33 2.351 . S
O58 C61 1.244 . S
O59 Co33 2.155 . S
O59 C61 1.240 . S
O60 Co33 2.096 . S
O60 C41 1.247 1_545 S
C61 O58 1.244 . S
C61 O59 1.240 . S
H62 C36 0.931 . S
H63 C45 0.931 . S
H64 C49 0.929 1_565 S
H65 C51 0.930 . S
Co66 N70 2.148 . S
Co66 N76 2.128 . S
Co66 N86 2.194 . S
Co66 O91 2.351 . S
Co66 O92 2.155 . S
Co66 O93 2.096 . S
C67 N70 1.301 . S
C67 N71 1.328 . S
C67 H72 0.930 . S
C68 C69 1.333 . S
C68 N70 1.317 . S
C68 H73 0.930 . S
C69 C68 1.333 . S
C69 N71 1.350 . S
C69 H95 0.931 . S
N70 Co66 2.148 . S
N70 C67 1.301 . S
N70 C68 1.317 . S
N71 C67 1.328 . S
N71 C69 1.350 . S
H72 C67 0.930 . S
H73 C68 0.930 . S
C74 O75 1.224 . S
C74 O93 1.247 . S
O75 C74 1.224 . S
N76 Co66 2.128 . S
N76 C77 1.355 1_455 S
N76 C79 1.311 . S
C77 N76 1.355 1_655 S
C77 C78 1.363 . S
C77 H89 0.929 . S
C78 C77 1.363 . S
C78 N80 1.375 . S
C78 H96 0.931 . S
C79 N76 1.311 . S
C79 N80 1.347 1_455 S
C79 H90 0.929 . S
N80 C78 1.375 . S
N80 C79 1.347 1_655 S
C81 C84 1.365 . S
C81 N86 1.328 . S
C81 H87 0.929 . S
C82 C83 1.362 . S
C82 C85 1.378 . S
C82 H97 0.929 . S
C83 C82 1.362 . S
C83 C84 1.366 . S
C84 C81 1.365 . S
C84 C83 1.366 . S
C84 H98 0.930 . S
C85 C82 1.378 . S
C85 N86 1.315 . S
C85 H88 0.930 . S
N86 Co66 2.194 . S
N86 C81 1.328 . S
N86 C85 1.315 . S
H87 C81 0.929 . S
H88 C85 0.930 . S
H89 C77 0.929 . S
H90 C79 0.929 . S
O91 Co66 2.351 . S
O91 C94 1.244 . S
O92 Co66 2.155 . S
O92 C94 1.240 . S
O93 Co66 2.096 . S
O93 C74 1.247 . S
C94 O91 1.244 . S
C94 O92 1.240 . S
H95 C69 0.931 . S
H96 C78 0.931 . S
H97 C82 0.929 . S
H98 C84 0.930 . S
Co99 N103 2.148 . S
Co99 N109 2.128 . S
Co99 N119 2.194 . S
Co99 O124 2.351 . S
Co99 O125 2.155 . S
Co99 O126 2.096 . S
C100 N103 1.301 . S
C100 N104 1.328 . S
C100 H105 0.930 . S
C101 C102 1.333 . S
C101 N103 1.317 . S
C101 H106 0.930 . S
C102 C101 1.333 . S
C102 N104 1.350 . S
C102 H128 0.931 . S
N103 Co99 2.148 . S
N103 C100 1.301 . S
N103 C101 1.317 . S
N104 C100 1.328 . S
N104 C102 1.350 . S
H105 C100 0.930 . S
H106 C101 0.930 . S
C107 O108 1.224 . S
C107 O126 1.247 . S
O108 C107 1.224 . S
N109 Co99 2.128 . S
N109 C110 1.355 1_545 S
N109 C112 1.311 . S
C110 N109 1.355 1_565 S
C110 C111 1.363 . S
C110 H122 0.929 . S
C111 C110 1.363 . S
C111 N113 1.375 . S
C111 H129 0.931 . S
C112 N109 1.311 . S
C112 N113 1.347 1_545 S
C112 H123 0.929 . S
N113 C111 1.375 . S
N113 C112 1.347 1_565 S
C114 C117 1.365 . S
C114 N119 1.328 . S
C114 H120 0.929 . S
C115 C116 1.362 . S
C115 C118 1.378 . S
C115 H130 0.929 . S
C116 C115 1.362 . S
C116 C117 1.366 . S
C117 C114 1.365 . S
C117 C116 1.366 . S
C117 H131 0.930 . S
C118 C115 1.378 . S
C118 N119 1.315 . S
C118 H121 0.930 . S
N119 Co99 2.194 . S
N119 C114 1.328 . S
N119 C118 1.315 . S
H120 C114 0.929 . S
H121 C118 0.930 . S
H122 C110 0.929 . S
H123 C112 0.929 . S
O124 Co99 2.351 . S
O124 C127 1.244 . S
O125 Co99 2.155 . S
O125 C127 1.240 . S
O126 Co99 2.096 . S
O126 C107 1.247 . S
C127 O124 1.244 . S
C127 O125 1.240 . S
H128 C102 0.931 . S
H129 C111 0.931 . S
H130 C115 0.929 . S
H131 C117 0.930 . S
Co132 N136 2.148 1_455 S
Co132 N142 2.128 . S
Co132 N152 2.194 . S
Co132 O157 2.351 . S
Co132 O158 2.155 . S
Co132 O159 2.096 . S
C133 N136 1.301 . S
C133 N137 1.328 . S
C133 H138 0.924 1_655 S
C134 C135 1.333 . S
C134 N136 1.317 . S
C134 H139 0.930 . S
C135 C134 1.333 . S
C135 N137 1.350 . S
C135 H161 0.931 . S
N136 Co132 2.148 1_655 S
N136 C133 1.301 . S
N136 C134 1.317 . S
N137 C133 1.328 . S
N137 C135 1.350 . S
H138 C133 0.924 1_455 S
H139 C134 0.930 . S
C140 O141 1.224 . S
C140 O159 1.247 1_655 S
O141 C140 1.224 . S
N142 Co132 2.128 . S
N142 C143 1.355 . S
N142 C145 1.311 . S
C143 N142 1.355 . S
C143 C144 1.363 . S
C143 H155 0.929 . S
C144 C143 1.363 . S
C144 N146 1.375 . S
C144 H162 0.931 . S
C145 N142 1.311 . S
C145 N146 1.347 . S
C145 H156 0.929 . S
N146 C144 1.375 . S
N146 C145 1.347 . S
C147 C150 1.365 . S
C147 N152 1.328 . S
C147 H153 0.929 . S
C148 C149 1.362 . S
C148 C151 1.378 . S
C148 H163 0.929 1_455 S
C149 C148 1.362 . S
C149 C150 1.366 . S
C150 C147 1.365 . S
C150 C149 1.366 . S
C150 H164 0.930 . S
C151 C148 1.378 . S
C151 N152 1.315 . S
C151 H154 0.930 1_455 S
N152 Co132 2.194 . S
N152 C147 1.328 . S
N152 C151 1.315 . S
H153 C147 0.929 . S
H154 C151 0.930 1_655 S
H155 C143 0.929 . S
H156 C145 0.929 . S
O157 Co132 2.351 . S
O157 C160 1.244 . S
O158 Co132 2.155 . S
O158 C160 1.240 . S
O159 Co132 2.096 . S
O159 C140 1.247 1_455 S
C160 O157 1.244 . S
C160 O158 1.240 . S
H161 C135 0.931 . S
H162 C144 0.931 . S
H163 C148 0.929 1_655 S
H164 C150 0.930 . S
Co165 N169 2.148 1_545 S
Co165 N175 2.128 . S
Co165 N185 2.194 . S
Co165 O190 2.351 . S
Co165 O191 2.155 . S
Co165 O192 2.096 . S
C166 N169 1.301 . S
C166 N170 1.328 . S
C166 H171 0.924 1_565 S
C167 C168 1.333 . S
C167 N169 1.317 . S
C167 H172 0.930 . S
C168 C167 1.333 . S
C168 N170 1.350 . S
C168 H194 0.931 . S
N169 Co165 2.148 1_565 S
N169 C166 1.301 . S
N169 C167 1.317 . S
N170 C166 1.328 . S
N170 C168 1.350 . S
H171 C166 0.924 1_545 S
H172 C167 0.930 . S
C173 O174 1.224 . S
C173 O192 1.247 1_565 S
O174 C173 1.224 . S
N175 Co165 2.128 . S
N175 C176 1.355 . S
N175 C178 1.311 . S
C176 N175 1.355 . S
C176 C177 1.363 . S
C176 H188 0.929 . S
C177 C176 1.363 . S
C177 N179 1.375 . S
C177 H195 0.931 . S
C178 N175 1.311 . S
C178 N179 1.347 . S
C178 H189 0.929 . S
N179 C177 1.375 . S
N179 C178 1.347 . S
C180 C183 1.365 . S
C180 N185 1.328 . S
C180 H186 0.929 . S
C181 C182 1.362 . S
C181 C184 1.378 . S
C181 H196 0.929 1_545 S
C182 C181 1.362 . S
C182 C183 1.366 . S
C183 C180 1.365 . S
C183 C182 1.366 . S
C183 H197 0.930 . S
C184 C181 1.378 . S
C184 N185 1.315 . S
C184 H187 0.930 1_545 S
N185 Co165 2.194 . S
N185 C180 1.328 . S
N185 C184 1.315 . S
H186 C180 0.929 . S
H187 C184 0.930 1_565 S
H188 C176 0.929 . S
H189 C178 0.929 . S
O190 Co165 2.351 . S
O190 C193 1.244 . S
O191 Co165 2.155 . S
O191 C193 1.240 . S
O192 Co165 2.096 . S
O192 C173 1.247 1_545 S
C193 O190 1.244 . S
C193 O191 1.240 . S
H194 C168 0.931 . S
H195 C177 0.931 . S
H196 C181 0.929 1_565 S
H197 C183 0.930 . S
Co198 N202 2.148 . S
Co198 N208 2.128 . S
Co198 N218 2.194 . S
Co198 O223 2.351 . S
Co198 O224 2.155 . S
Co198 O225 2.096 . S
C199 N202 1.301 . S
C199 N203 1.328 . S
C199 H204 0.930 . S
C200 C201 1.333 . S
C200 N202 1.317 . S
C200 H205 0.930 . S
C201 C200 1.333 . S
C201 N203 1.350 . S
C201 H227 0.931 . S
N202 Co198 2.148 . S
N202 C199 1.301 . S
N202 C200 1.317 . S
N203 C199 1.328 . S
N203 C201 1.350 . S
H204 C199 0.930 . S
H205 C200 0.930 . S
C206 O207 1.224 . S
C206 O225 1.247 . S
O207 C206 1.224 . S
N208 Co198 2.128 . S
N208 C209 1.355 1_455 S
N208 C211 1.311 . S
C209 N208 1.355 1_655 S
C209 C210 1.363 . S
C209 H221 0.929 . S
C210 C209 1.363 . S
C210 N212 1.375 . S
C210 H228 0.931 . S
C211 N208 1.311 . S
C211 N212 1.347 1_455 S
C211 H222 0.929 . S
N212 C210 1.375 . S
N212 C211 1.347 1_655 S
C213 C216 1.365 . S
C213 N218 1.328 . S
C213 H219 0.929 . S
C214 C215 1.362 . S
C214 C217 1.378 . S
C214 H229 0.929 . S
C215 C214 1.362 . S
C215 C216 1.366 . S
C216 C213 1.365 . S
C216 C215 1.366 . S
C216 H230 0.930 . S
C217 C214 1.378 . S
C217 N218 1.315 . S
C217 H220 0.930 . S
N218 Co198 2.194 . S
N218 C213 1.328 . S
N218 C217 1.315 . S
H219 C213 0.929 . S
H220 C217 0.930 . S
H221 C209 0.929 . S
H222 C211 0.929 . S
O223 Co198 2.351 . S
O223 C226 1.244 . S
O224 Co198 2.155 . S
O224 C226 1.240 . S
O225 Co198 2.096 . S
O225 C206 1.247 . S
C226 O223 1.244 . S
C226 O224 1.240 . S
H227 C201 0.931 . S
H228 C210 0.931 . S
H229 C214 0.929 . S
H230 C216 0.930 . S
Co231 N235 2.148 . S
Co231 N241 2.128 . S
Co231 N251 2.194 . S
Co231 O256 2.351 . S
Co231 O257 2.155 . S
Co231 O258 2.096 . S
C232 N235 1.301 . S
C232 N236 1.328 . S
C232 H237 0.930 . S
C233 C234 1.333 . S
C233 N235 1.317 . S
C233 H238 0.930 . S
C234 C233 1.333 . S
C234 N236 1.350 . S
C234 H260 0.931 . S
N235 Co231 2.148 . S
N235 C232 1.301 . S
N235 C233 1.317 . S
N236 C232 1.328 . S
N236 C234 1.350 . S
H237 C232 0.930 . S
H238 C233 0.930 . S
C239 O240 1.224 . S
C239 O258 1.247 . S
O240 C239 1.224 . S
N241 Co231 2.128 . S
N241 C242 1.355 1_545 S
N241 C244 1.311 . S
C242 N241 1.355 1_565 S
C242 C243 1.363 . S
C242 H254 0.929 . S
C243 C242 1.363 . S
C243 N245 1.375 . S
C243 H261 0.931 . S
C244 N241 1.311 . S
C244 N245 1.347 1_545 S
C244 H255 0.929 . S
N245 C243 1.375 . S
N245 C244 1.347 1_565 S
C246 C249 1.365 . S
C246 N251 1.328 . S
C246 H252 0.929 . S
C247 C248 1.362 . S
C247 C250 1.378 . S
C247 H262 0.929 . S
C248 C247 1.362 . S
C248 C249 1.366 . S
C249 C246 1.365 . S
C249 C248 1.366 . S
C249 H263 0.930 . S
C250 C247 1.378 . S
C250 N251 1.315 . S
C250 H253 0.930 . S
N251 Co231 2.194 . S
N251 C246 1.328 . S
N251 C250 1.315 . S
H252 C246 0.929 . S
H253 C250 0.930 . S
H254 C242 0.929 . S
H255 C244 0.929 . S
O256 Co231 2.351 . S
O256 C259 1.244 . S
O257 Co231 2.155 . S
O257 C259 1.240 . S
O258 Co231 2.096 . S
O258 C239 1.247 . S
C259 O256 1.244 . S
C259 O257 1.240 . S
H260 C234 0.931 . S
H261 C243 0.931 . S
H262 C247 0.929 . S
H263 C249 0.930 . S
Co264 N268 2.148 . S
Co264 N274 2.128 . S
Co264 N284 2.194 . S
Co264 O289 2.351 . S
Co264 O290 2.155 . S
Co264 O291 2.096 . S
C265 N268 1.301 . S
C265 N269 1.328 . S
C265 H270 0.930 . S
C266 C267 1.333 . S
C266 N268 1.317 . S
C266 H271 0.930 . S
C267 C266 1.333 . S
C267 N269 1.350 . S
C267 H293 0.931 . S
N268 Co264 2.148 . S
N268 C265 1.301 . S
N268 C266 1.317 . S
N269 C265 1.328 . S
N269 C267 1.350 . S
H270 C265 0.930 . S
H271 C266 0.930 . S
C272 O273 1.224 . S
C272 O291 1.247 . S
O273 C272 1.224 . S
N274 Co264 2.128 . S
N274 C275 1.355 . S
N274 C277 1.311 . S
C275 N274 1.355 . S
C275 C276 1.363 . S
C275 H287 0.929 . S
C276 C275 1.363 . S
C276 N278 1.375 . S
C276 H294 0.931 . S
C277 N274 1.311 . S
C277 N278 1.347 . S
C277 H288 0.929 . S
N278 C276 1.375 . S
N278 C277 1.347 . S
C279 C282 1.365 . S
C279 N284 1.328 . S
C279 H285 0.929 . S
C280 C281 1.362 . S
C280 C283 1.378 . S
C280 H295 0.929 . S
C281 C280 1.362 . S
C281 C282 1.366 . S
C282 C279 1.365 . S
C282 C281 1.366 . S
C282 H296 0.930 . S
C283 C280 1.378 . S
C283 N284 1.315 . S
C283 H286 0.930 . S
N284 Co264 2.194 . S
N284 C279 1.328 . S
N284 C283 1.315 . S
H285 C279 0.929 . S
H286 C283 0.930 . S
H287 C275 0.929 . S
H288 C277 0.929 . S
O289 Co264 2.351 . S
O289 C292 1.244 . S
O290 Co264 2.155 . S
O290 C292 1.240 . S
O291 Co264 2.096 . S
O291 C272 1.247 . S
C292 O289 1.244 . S
C292 O290 1.240 . S
H293 C267 0.931 . S
H294 C276 0.931 . S
H295 C280 0.929 . S
H296 C282 0.930 . S
Co297 N301 2.148 . S
Co297 N307 2.128 . S
Co297 N317 2.194 . S
Co297 O322 2.351 . S
Co297 O323 2.155 . S
Co297 O324 2.096 . S
C298 N301 1.301 . S
C298 N302 1.328 . S
C298 H303 0.930 . S
C299 C300 1.333 . S
C299 N301 1.317 . S
C299 H304 0.930 . S
C300 C299 1.333 . S
C300 N302 1.350 . S
C300 H326 0.931 . S
N301 Co297 2.148 . S
N301 C298 1.301 . S
N301 C299 1.317 . S
N302 C298 1.328 . S
N302 C300 1.350 . S
H303 C298 0.930 . S
H304 C299 0.930 . S
C305 O306 1.224 . S
C305 O324 1.247 . S
O306 C305 1.224 . S
N307 Co297 2.128 . S
N307 C308 1.355 . S
N307 C310 1.311 . S
C308 N307 1.355 . S
C308 C309 1.363 . S
C308 H320 0.929 . S
C309 C308 1.363 . S
C309 N311 1.375 . S
C309 H327 0.931 . S
C310 N307 1.311 . S
C310 N311 1.347 . S
C310 H321 0.929 . S
N311 C309 1.375 . S
N311 C310 1.347 . S
C312 C315 1.365 . S
C312 N317 1.328 . S
C312 H318 0.929 . S
C313 C314 1.362 . S
C313 C316 1.378 . S
C313 H328 0.929 . S
C314 C313 1.362 . S
C314 C315 1.366 . S
C315 C312 1.365 . S
C315 C314 1.366 . S
C315 H329 0.930 . S
C316 C313 1.378 . S
C316 N317 1.315 . S
C316 H319 0.930 . S
N317 Co297 2.194 . S
N317 C312 1.328 . S
N317 C316 1.315 . S
H318 C312 0.929 . S
H319 C316 0.930 . S
H320 C308 0.929 . S
H321 C310 0.929 . S
O322 Co297 2.351 . S
O322 C325 1.244 . S
O323 Co297 2.155 . S
O323 C325 1.240 . S
O324 Co297 2.096 . S
O324 C305 1.247 . S
C325 O322 1.244 . S
C325 O323 1.240 . S
H326 C300 0.931 . S
H327 C309 0.931 . S
H328 C313 0.929 . S
H329 C315 0.930 . S
Co330 N334 2.148 . S
Co330 N340 2.128 . S
Co330 N350 2.194 . S
Co330 O355 2.351 . S
Co330 O356 2.155 . S
Co330 O357 2.096 . S
C331 N334 1.301 . S
C331 N335 1.328 . S
C331 H336 0.930 . S
C332 C333 1.333 . S
C332 N334 1.317 . S
C332 H337 0.930 . S
C333 C332 1.333 . S
C333 N335 1.350 . S
C333 H359 0.931 . S
N334 Co330 2.148 . S
N334 C331 1.301 . S
N334 C332 1.317 . S
N335 C331 1.328 . S
N335 C333 1.350 . S
H336 C331 0.930 . S
H337 C332 0.930 . S
C338 O339 1.224 . S
C338 O357 1.247 . S
O339 C338 1.224 . S
N340 Co330 2.128 . S
N340 C341 1.355 . S
N340 C343 1.311 . S
C341 N340 1.355 . S
C341 C342 1.363 . S
C341 H353 0.929 . S
C342 C341 1.363 . S
C342 N344 1.375 . S
C342 H360 0.931 . S
C343 N340 1.311 . S
C343 N344 1.347 . S
C343 H354 0.929 . S
N344 C342 1.375 . S
N344 C343 1.347 . S
C345 C348 1.365 . S
C345 N350 1.328 . S
C345 H351 0.929 . S
C346 C347 1.362 . S
C346 C349 1.378 . S
C346 H361 0.929 . S
C347 C346 1.362 . S
C347 C348 1.366 . S
C348 C345 1.365 . S
C348 C347 1.366 . S
C348 H362 0.930 . S
C349 C346 1.378 . S
C349 N350 1.315 . S
C349 H352 0.930 . S
N350 Co330 2.194 . S
N350 C345 1.328 . S
N350 C349 1.315 . S
H351 C345 0.929 . S
H352 C349 0.930 . S
H353 C341 0.929 . S
H354 C343 0.929 . S
O355 Co330 2.351 . S
O355 C358 1.244 . S
O356 Co330 2.155 . S
O356 C358 1.240 . S
O357 Co330 2.096 . S
O357 C338 1.247 . S
C358 O355 1.244 . S
C358 O356 1.240 . S
H359 C333 0.931 . S
H360 C342 0.931 . S
H361 C346 0.929 . S
H362 C348 0.930 . S
Co363 N367 2.148 . S
Co363 N373 2.128 . S
Co363 N383 2.194 . S
Co363 O388 2.351 . S
Co363 O389 2.155 . S
Co363 O390 2.096 . S
C364 N367 1.301 . S
C364 N368 1.328 . S
C364 H369 0.930 . S
C365 C366 1.333 . S
C365 N367 1.317 . S
C365 H370 0.930 . S
C366 C365 1.333 . S
C366 N368 1.350 . S
C366 H392 0.931 . S
N367 Co363 2.148 . S
N367 C364 1.301 . S
N367 C365 1.317 . S
N368 C364 1.328 . S
N368 C366 1.350 . S
H369 C364 0.930 . S
H370 C365 0.930 . S
C371 O372 1.224 . S
C371 O390 1.247 . S
O372 C371 1.224 . S
N373 Co363 2.128 . S
N373 C374 1.355 . S
N373 C376 1.311 . S
C374 N373 1.355 . S
C374 C375 1.363 . S
C374 H386 0.929 . S
C375 C374 1.363 . S
C375 N377 1.375 . S
C375 H393 0.931 . S
C376 N373 1.311 . S
C376 N377 1.347 . S
C376 H387 0.929 . S
N377 C375 1.375 . S
N377 C376 1.347 . S
C378 C381 1.365 . S
C378 N383 1.328 . S
C378 H384 0.929 . S
C379 C380 1.362 . S
C379 C382 1.378 . S
C379 H394 0.929 . S
C380 C379 1.362 . S
C380 C381 1.366 . S
C381 C378 1.365 . S
C381 C380 1.366 . S
C381 H395 0.930 . S
C382 C379 1.378 . S
C382 N383 1.315 . S
C382 H385 0.930 . S
N383 Co363 2.194 . S
N383 C378 1.328 . S
N383 C382 1.315 . S
H384 C378 0.929 . S
H385 C382 0.930 . S
H386 C374 0.929 . S
H387 C376 0.929 . S
O388 Co363 2.351 . S
O388 C391 1.244 . S
O389 Co363 2.155 . S
O389 C391 1.240 . S
O390 Co363 2.096 . S
O390 C371 1.247 . S
C391 O388 1.244 . S
C391 O389 1.240 . S
H392 C366 0.931 . S
H393 C375 0.931 . S
H394 C379 0.929 . S
H395 C381 0.930 . S
Co396 N400 2.148 . S
Co396 N406 2.128 . S
Co396 N416 2.194 . S
Co396 O421 2.351 . S
Co396 O422 2.155 . S
Co396 O423 2.096 . S
C397 N400 1.301 . S
C397 N401 1.328 . S
C397 H402 0.930 . S
C398 C399 1.333 . S
C398 N400 1.317 . S
C398 H403 0.930 . S
C399 C398 1.333 . S
C399 N401 1.350 . S
C399 H425 0.931 . S
N400 Co396 2.148 . S
N400 C397 1.301 . S
N400 C398 1.317 . S
N401 C397 1.328 . S
N401 C399 1.350 . S
H402 C397 0.930 . S
H403 C398 0.930 . S
C404 O405 1.224 . S
C404 O423 1.247 . S
O405 C404 1.224 . S
N406 Co396 2.128 . S
N406 C407 1.355 . S
N406 C409 1.311 . S
C407 N406 1.355 . S
C407 C408 1.363 . S
C407 H419 0.929 . S
C408 C407 1.363 . S
C408 N410 1.375 . S
C408 H426 0.931 . S
C409 N406 1.311 . S
C409 N410 1.347 . S
C409 H420 0.929 . S
N410 C408 1.375 . S
N410 C409 1.347 . S
C411 C414 1.365 . S
C411 N416 1.328 . S
C411 H417 0.929 . S
C412 C413 1.362 . S
C412 C415 1.378 . S
C412 H427 0.929 . S
C413 C412 1.362 . S
C413 C414 1.366 . S
C414 C411 1.365 . S
C414 C413 1.366 . S
C414 H428 0.930 . S
C415 C412 1.378 . S
C415 N416 1.315 . S
C415 H418 0.930 . S
N416 Co396 2.194 . S
N416 C411 1.328 . S
N416 C415 1.315 . S
H417 C411 0.929 . S
H418 C415 0.930 . S
H419 C407 0.929 . S
H420 C409 0.929 . S
O421 Co396 2.351 . S
O421 C424 1.244 . S
O422 Co396 2.155 . S
O422 C424 1.240 . S
O423 Co396 2.096 . S
O423 C404 1.247 . S
C424 O421 1.244 . S
C424 O422 1.240 . S
H425 C399 0.931 . S
H426 C408 0.931 . S
H427 C412 0.929 . S
H428 C414 0.930 . S
Co429 N433 2.148 . S
Co429 N439 2.128 . S
Co429 N449 2.194 . S
Co429 O454 2.351 . S
Co429 O455 2.155 . S
Co429 O456 2.096 . S
C430 N433 1.301 . S
C430 N434 1.328 . S
C430 H435 0.930 . S
C431 C432 1.333 . S
C431 N433 1.317 . S
C431 H436 0.930 . S
C432 C431 1.333 . S
C432 N434 1.350 . S
C432 H458 0.931 . S
N433 Co429 2.148 . S
N433 C430 1.301 . S
N433 C431 1.317 . S
N434 C430 1.328 . S
N434 C432 1.350 . S
H435 C430 0.930 . S
H436 C431 0.930 . S
C437 O438 1.224 . S
C437 O456 1.247 . S
O438 C437 1.224 . S
N439 Co429 2.128 . S
N439 C440 1.355 . S
N439 C442 1.311 . S
C440 N439 1.355 . S
C440 C441 1.363 . S
C440 H452 0.929 . S
C441 C440 1.363 . S
C441 N443 1.375 . S
C441 H459 0.931 . S
C442 N439 1.311 . S
C442 N443 1.347 . S
C442 H453 0.929 . S
N443 C441 1.375 . S
N443 C442 1.347 . S
C444 C447 1.365 . S
C444 N449 1.328 . S
C444 H450 0.929 . S
C445 C446 1.362 . S
C445 C448 1.378 . S
C445 H460 0.929 . S
C446 C445 1.362 . S
C446 C447 1.366 . S
C447 C444 1.365 . S
C447 C446 1.366 . S
C447 H461 0.930 . S
C448 C445 1.378 . S
C448 N449 1.315 . S
C448 H451 0.930 . S
N449 Co429 2.194 . S
N449 C444 1.328 . S
N449 C448 1.315 . S
H450 C444 0.929 . S
H451 C448 0.930 . S
H452 C440 0.929 . S
H453 C442 0.929 . S
O454 Co429 2.351 . S
O454 C457 1.244 . S
O455 Co429 2.155 . S
O455 C457 1.240 . S
O456 Co429 2.096 . S
O456 C437 1.247 . S
C457 O454 1.244 . S
C457 O455 1.240 . S
H458 C432 0.931 . S
H459 C441 0.931 . S
H460 C445 0.929 . S
H461 C447 0.930 . S
Co462 N466 2.148 . S
Co462 N472 2.128 . S
Co462 N482 2.194 . S
Co462 O487 2.351 . S
Co462 O488 2.155 . S
Co462 O489 2.096 . S
C463 N466 1.301 . S
C463 N467 1.328 . S
C463 H468 0.930 . S
C464 C465 1.333 . S
C464 N466 1.317 . S
C464 H469 0.930 . S
C465 C464 1.333 . S
C465 N467 1.350 . S
C465 H491 0.931 . S
N466 Co462 2.148 . S
N466 C463 1.301 . S
N466 C464 1.317 . S
N467 C463 1.328 . S
N467 C465 1.350 . S
H468 C463 0.930 . S
H469 C464 0.930 . S
C470 O471 1.224 . S
C470 O489 1.247 . S
O471 C470 1.224 . S
N472 Co462 2.128 . S
N472 C473 1.355 . S
N472 C475 1.311 . S
C473 N472 1.355 . S
C473 C474 1.363 . S
C473 H485 0.929 . S
C474 C473 1.363 . S
C474 N476 1.375 . S
C474 H492 0.931 . S
C475 N472 1.311 . S
C475 N476 1.347 . S
C475 H486 0.929 . S
N476 C474 1.375 . S
N476 C475 1.347 . S
C477 C480 1.365 . S
C477 N482 1.328 . S
C477 H483 0.929 . S
C478 C479 1.362 . S
C478 C481 1.378 . S
C478 H493 0.929 . S
C479 C478 1.362 . S
C479 C480 1.366 . S
C480 C477 1.365 . S
C480 C479 1.366 . S
C480 H494 0.930 . S
C481 C478 1.378 . S
C481 N482 1.315 . S
C481 H484 0.930 . S
N482 Co462 2.194 . S
N482 C477 1.328 . S
N482 C481 1.315 . S
H483 C477 0.929 . S
H484 C481 0.930 . S
H485 C473 0.929 . S
H486 C475 0.929 . S
O487 Co462 2.351 . S
O487 C490 1.244 . S
O488 Co462 2.155 . S
O488 C490 1.240 . S
O489 Co462 2.096 . S
O489 C470 1.247 . S
C490 O487 1.244 . S
C490 O488 1.240 . S
H491 C465 0.931 . S
H492 C474 0.931 . S
H493 C478 0.929 . S
H494 C480 0.930 . S
Co495 N499 2.148 . S
Co495 N505 2.128 . S
Co495 N515 2.194 . S
Co495 O520 2.351 . S
Co495 O521 2.155 . S
Co495 O522 2.096 . S
C496 N499 1.301 . S
C496 N500 1.328 . S
C496 H501 0.930 . S
C497 C498 1.333 . S
C497 N499 1.317 . S
C497 H502 0.930 . S
C498 C497 1.333 . S
C498 N500 1.350 . S
C498 H524 0.931 . S
N499 Co495 2.148 . S
N499 C496 1.301 . S
N499 C497 1.317 . S
N500 C496 1.328 . S
N500 C498 1.350 . S
H501 C496 0.930 . S
H502 C497 0.930 . S
C503 O504 1.224 . S
C503 O522 1.247 . S
O504 C503 1.224 . S
N505 Co495 2.128 . S
N505 C506 1.355 . S
N505 C508 1.311 . S
C506 N505 1.355 . S
C506 C507 1.363 . S
C506 H518 0.929 . S
C507 C506 1.363 . S
C507 N509 1.375 . S
C507 H525 0.931 . S
C508 N505 1.311 . S
C508 N509 1.347 . S
C508 H519 0.929 . S
N509 C507 1.375 . S
N509 C508 1.347 . S
C510 C513 1.365 . S
C510 N515 1.328 . S
C510 H516 0.929 . S
C511 C512 1.362 . S
C511 C514 1.378 . S
C511 H526 0.929 . S
C512 C511 1.362 . S
C512 C513 1.366 . S
C513 C510 1.365 . S
C513 C512 1.366 . S
C513 H527 0.930 . S
C514 C511 1.378 . S
C514 N515 1.315 . S
C514 H517 0.930 . S
N515 Co495 2.194 . S
N515 C510 1.328 . S
N515 C514 1.315 . S
H516 C510 0.929 . S
H517 C514 0.930 . S
H518 C506 0.929 . S
H519 C508 0.929 . S
O520 Co495 2.351 . S
O520 C523 1.244 . S
O521 Co495 2.155 . S
O521 C523 1.240 . S
O522 Co495 2.096 . S
O522 C503 1.247 . S
C523 O520 1.244 . S
C523 O521 1.240 . S
H524 C498 0.931 . S
H525 C507 0.931 . S
H526 C511 0.929 . S
H527 C513 0.930 . S
C528 C529 1.369 . S
C528 C530 1.419 . S
C528 H532 0.930 . S
C529 C528 1.369 . S
C529 C538 1.429 . S
C530 C528 1.419 . S
C530 C531 1.363 . S
C530 H533 0.929 . S
C531 C530 1.363 . S
C531 C537 1.428 . S
H532 C528 0.930 . S
H533 C530 0.929 . S
S534 N535 1.613 . S
S534 N536 1.610 . S
N535 S534 1.613 . S
N535 C538 1.350 . S
N536 S534 1.610 . S
N536 C537 1.351 . S
C537 C531 1.428 . S
C537 N536 1.351 . S
C537 C538 1.434 . S
C538 C529 1.429 . S
C538 N535 1.350 . S
C538 C537 1.434 . S
C539 C540 1.369 . S
C539 C541 1.419 . S
C539 H543 0.930 . S
C540 C539 1.369 . S
C540 C549 1.429 . S
C541 C539 1.419 . S
C541 C542 1.363 . S
C541 H544 0.929 1_545 S
C542 C541 1.363 . S
C542 C548 1.428 . S
H543 C539 0.930 . S
H544 C541 0.929 1_565 S
S545 N546 1.613 . S
S545 N547 1.610 . S
N546 S545 1.613 . S
N546 C549 1.350 . S
N547 S545 1.610 . S
N547 C548 1.351 . S
C548 C542 1.428 . S
C548 N547 1.351 . S
C548 C549 1.434 . S
C549 C540 1.429 . S
C549 N546 1.350 . S
C549 C548 1.434 . S
C550 C551 1.369 . S
C550 C552 1.419 . S
C550 H554 0.930 . S
C551 C550 1.369 . S
C551 C560 1.429 . S
C552 C550 1.419 . S
C552 C553 1.363 . S
C552 H555 0.929 . S
C553 C552 1.363 . S
C553 C559 1.428 . S
H554 C550 0.930 . S
H555 C552 0.929 . S
S556 N557 1.613 . S
S556 N558 1.610 . S
N557 S556 1.613 . S
N557 C560 1.350 . S
N558 S556 1.610 . S
N558 C559 1.351 . S
C559 C553 1.428 . S
C559 N558 1.351 . S
C559 C560 1.434 . S
C560 C551 1.429 . S
C560 N557 1.350 . S
C560 C559 1.434 . S
C561 C562 1.369 . S
C561 C563 1.419 . S
C561 H565 0.930 . S
C562 C561 1.369 . S
C562 C571 1.429 . S
C563 C561 1.419 . S
C563 C564 1.363 . S
C563 H566 0.929 . S
C564 C563 1.363 . S
C564 C570 1.428 . S
H565 C561 0.930 . S
H566 C563 0.929 . S
S567 N568 1.613 . S
S567 N569 1.610 1_565 S
N568 S567 1.613 . S
N568 C571 1.350 1_565 S
N569 S567 1.610 1_545 S
N569 C570 1.351 . S
C570 C564 1.428 . S
C570 N569 1.351 . S
C570 C571 1.434 . S
C571 C562 1.429 . S
C571 N568 1.350 1_545 S
C571 C570 1.434 . S
C572 C573 1.369 . S
C572 C574 1.419 1_556 S
C572 H576 0.930 . S
C573 C572 1.369 . S
C573 C582 1.429 . S
C574 C572 1.419 1_554 S
C574 C575 1.363 . S
C574 H577 0.929 . S
C575 C574 1.363 . S
C575 C581 1.428 . S
H576 C572 0.930 . S
H577 C574 0.929 . S
S578 N579 1.613 . S
S578 N580 1.610 1_556 S
N579 S578 1.613 . S
N579 C582 1.350 . S
N580 S578 1.610 1_554 S
N580 C581 1.351 . S
C581 C575 1.428 . S
C581 N580 1.351 . S
C581 C582 1.434 1_554 S
C582 C573 1.429 . S
C582 N579 1.350 . S
C582 C581 1.434 1_556 S
C583 C584 1.369 . S
C583 C585 1.419 1_556 S
C583 H587 0.930 . S
C584 C583 1.369 . S
C584 C593 1.429 . S
C585 C583 1.419 1_554 S
C585 C586 1.363 . S
C585 H588 0.929 . S
C586 C585 1.363 . S
C586 C592 1.428 . S
H587 C583 0.930 . S
H588 C585 0.929 . S
S589 N590 1.613 . S
S589 N591 1.610 1_556 S
N590 S589 1.613 . S
N590 C593 1.350 . S
N591 S589 1.610 1_554 S
N591 C592 1.351 . S
C592 C586 1.428 . S
C592 N591 1.351 . S
C592 C593 1.434 1_554 S
C593 C584 1.429 . S
C593 N590 1.350 . S
C593 C592 1.434 1_556 S
C594 C595 1.369 . S
C594 C596 1.419 1_556 S
C594 H598 0.930 . S
C595 C594 1.369 . S
C595 C604 1.429 . S
C596 C594 1.419 1_554 S
C596 C597 1.363 . S
C596 H599 0.929 . S
C597 C596 1.363 . S
C597 C603 1.428 . S
H598 C594 0.930 . S
H599 C596 0.929 . S
S600 N601 1.613 1_554 S
S600 N602 1.610 . S
N601 S600 1.613 1_556 S
N601 C604 1.350 . S
N602 S600 1.610 . S
N602 C603 1.351 . S
C603 C597 1.428 . S
C603 N602 1.351 . S
C603 C604 1.434 1_554 S
C604 C595 1.429 . S
C604 N601 1.350 . S
C604 C603 1.434 1_556 S
C605 C606 1.369 . S
C605 C607 1.419 1_554 S
C605 H609 0.930 . S
C606 C605 1.369 . S
C606 C615 1.429 . S
C607 C605 1.419 1_556 S
C607 C608 1.363 . S
C607 H610 0.929 . S
C608 C607 1.363 . S
C608 C614 1.428 . S
H609 C605 0.930 . S
H610 C607 0.929 . S
S611 N612 1.613 1_556 S
S611 N613 1.610 . S
N612 S611 1.613 1_554 S
N612 C615 1.350 . S
N613 S611 1.610 . S
N613 C614 1.351 . S
C614 C608 1.428 . S
C614 N613 1.351 . S
C614 C615 1.434 1_556 S
C615 C606 1.429 . S
C615 N612 1.350 . S
C615 C614 1.434 1_554 S
C616 C617 1.369 . S
C616 C618 1.419 . S
C616 H620 0.930 . S
C617 C616 1.369 . S
C617 C626 1.429 . S
C618 C616 1.419 . S
C618 C619 1.363 . S
C618 H621 0.929 . S
C619 C618 1.363 . S
C619 C625 1.428 . S
H620 C616 0.930 . S
H621 C618 0.929 . S
S622 N623 1.613 . S
S622 N624 1.610 . S
N623 S622 1.613 . S
N623 C626 1.350 . S
N624 S622 1.610 . S
N624 C625 1.351 . S
C625 C619 1.428 . S
C625 N624 1.351 . S
C625 C626 1.434 . S
C626 C617 1.429 . S
C626 N623 1.350 . S
C626 C625 1.434 . S
C627 C628 1.369 . S
C627 C629 1.419 . S
C627 H631 0.930 . S
C628 C627 1.369 . S
C628 C637 1.429 . S
C629 C627 1.419 . S
C629 C630 1.363 . S
C629 H632 0.929 . S
C630 C629 1.363 . S
C630 C636 1.428 . S
H631 C627 0.930 . S
H632 C629 0.929 . S
S633 N634 1.613 . S
S633 N635 1.610 . S
N634 S633 1.613 . S
N634 C637 1.350 . S
N635 S633 1.610 . S
N635 C636 1.351 . S
C636 C630 1.428 . S
C636 N635 1.351 . S
C636 C637 1.434 . S
C637 C628 1.429 . S
C637 N634 1.350 . S
C637 C636 1.434 . S
C638 C639 1.369 . S
C638 C640 1.419 . S
C638 H642 0.930 . S
C639 C638 1.369 . S
C639 C648 1.429 . S
C640 C638 1.419 . S
C640 C641 1.363 . S
C640 H643 0.929 1_655 S
C641 C640 1.363 . S
C641 C647 1.428 . S
H642 C638 0.930 . S
H643 C640 0.929 1_455 S
S644 N645 1.613 . S
S644 N646 1.610 . S
N645 S644 1.613 . S
N645 C648 1.350 . S
N646 S644 1.610 . S
N646 C647 1.351 . S
C647 C641 1.428 . S
C647 N646 1.351 . S
C647 C648 1.434 . S
C648 C639 1.429 . S
C648 N645 1.350 . S
C648 C647 1.434 . S
C649 C650 1.369 . S
C649 C651 1.419 . S
C649 H653 0.930 . S
C650 C649 1.369 . S
C650 C659 1.429 . S
C651 C649 1.419 . S
C651 C652 1.363 . S
C651 H654 0.929 . S
C652 C651 1.363 . S
C652 C658 1.428 . S
H653 C649 0.930 . S
H654 C651 0.929 . S
S655 N656 1.613 . S
S655 N657 1.610 1_545 S
N656 S655 1.613 . S
N656 C659 1.350 1_545 S
N657 S655 1.610 1_565 S
N657 C658 1.351 . S
C658 C652 1.428 . S
C658 N657 1.351 . S
C658 C659 1.434 . S
C659 C650 1.429 . S
C659 N656 1.350 1_565 S
C659 C658 1.434 . S
C660 C661 1.369 . S
C660 C662 1.419 . S
C660 H664 0.930 . S
C661 C660 1.369 . S
C661 C670 1.429 . S
C662 C660 1.419 . S
C662 C663 1.363 . S
C662 H665 0.929 . S
C663 C662 1.363 . S
C663 C669 1.428 . S
H664 C660 0.930 . S
H665 C662 0.929 . S
S666 N667 1.613 . S
S666 N668 1.610 . S
N667 S666 1.613 . S
N667 C670 1.350 . S
N668 S666 1.610 . S
N668 C669 1.351 . S
C669 C663 1.428 . S
C669 N668 1.351 . S
C669 C670 1.434 . S
C670 C661 1.429 . S
C670 N667 1.350 . S
C670 C669 1.434 . S
C671 C672 1.369 . S
C671 C673 1.419 . S
C671 H675 0.930 . S
C672 C671 1.369 . S
C672 C681 1.429 . S
C673 C671 1.419 . S
C673 C674 1.363 . S
C673 H676 0.929 . S
C674 C673 1.363 . S
C674 C680 1.428 . S
H675 C671 0.930 . S
H676 C673 0.929 . S
S677 N678 1.613 . S
S677 N679 1.610 . S
N678 S677 1.613 . S
N678 C681 1.350 . S
N679 S677 1.610 . S
N679 C680 1.351 . S
C680 C674 1.428 . S
C680 N679 1.351 . S
C680 C681 1.434 . S
C681 C672 1.429 . S
C681 N678 1.350 . S
C681 C680 1.434 . S
C682 C683 1.369 . S
C682 C684 1.419 . S
C682 H686 0.930 . S
C683 C682 1.369 . S
C683 C692 1.429 . S
C684 C682 1.419 . S
C684 C685 1.363 . S
C684 H687 0.929 . S
C685 C684 1.363 . S
C685 C691 1.428 . S
H686 C682 0.930 . S
H687 C684 0.929 . S
S688 N689 1.613 . S
S688 N690 1.610 . S
N689 S688 1.613 . S
N689 C692 1.350 . S
N690 S688 1.610 . S
N690 C691 1.351 . S
C691 C685 1.428 . S
C691 N690 1.351 . S
C691 C692 1.434 . S
C692 C683 1.429 . S
C692 N689 1.350 . S
C692 C691 1.434 . S
C693 C694 1.369 . S
C693 C695 1.419 . S
C693 H697 0.930 . S
C694 C693 1.369 . S
C694 C703 1.429 . S
C695 C693 1.419 . S
C695 C696 1.363 . S
C695 H698 0.929 1_565 S
C696 C695 1.363 . S
C696 C702 1.428 . S
H697 C693 0.930 . S
H698 C695 0.929 1_545 S
S699 N700 1.613 . S
S699 N701 1.610 . S
N700 S699 1.613 . S
N700 C703 1.350 . S
N701 S699 1.610 . S
N701 C702 1.351 . S
C702 C696 1.428 . S
C702 N701 1.351 . S
C702 C703 1.434 . S
C703 C694 1.429 . S
C703 N700 1.350 . S
C703 C702 1.434 . S
C704 C705 1.369 . S
C704 C706 1.419 . S
C704 H708 0.930 . S
C705 C704 1.369 . S
C705 C714 1.429 . S
C706 C704 1.419 . S
C706 C707 1.363 . S
C706 H709 0.929 . S
C707 C706 1.363 . S
C707 C713 1.428 . S
H708 C704 0.930 . S
H709 C706 0.929 . S
S710 N711 1.613 . S
S710 N712 1.610 . S
N711 S710 1.613 . S
N711 C714 1.350 . S
N712 S710 1.610 . S
N712 C713 1.351 . S
C713 C707 1.428 . S
C713 N712 1.351 . S
C713 C714 1.434 . S
C714 C705 1.429 . S
C714 N711 1.350 . S
C714 C713 1.434 . S
C715 C716 1.369 . S
C715 C717 1.419 . S
C715 H719 0.930 . S
C716 C715 1.369 . S
C716 C725 1.429 . S
C717 C715 1.419 . S
C717 C718 1.363 . S
C717 H720 0.929 . S
C718 C717 1.363 . S
C718 C724 1.428 . S
H719 C715 0.930 . S
H720 C717 0.929 . S
S721 N722 1.613 . S
S721 N723 1.610 . S
N722 S721 1.613 . S
N722 C725 1.350 . S
N723 S721 1.610 . S
N723 C724 1.351 . S
C724 C718 1.428 . S
C724 N723 1.351 . S
C724 C725 1.434 . S
C725 C716 1.429 . S
C725 N722 1.350 . S
C725 C724 1.434 . S
C726 C727 1.369 . S
C726 C728 1.419 . S
C726 H730 0.930 . S
C727 C726 1.369 . S
C727 C736 1.429 . S
C728 C726 1.419 . S
C728 C729 1.363 . S
C728 H731 0.929 . S
C729 C728 1.363 . S
C729 C735 1.428 . S
H730 C726 0.930 . S
H731 C728 0.929 . S
S732 N733 1.613 . S
S732 N734 1.610 . S
N733 S732 1.613 . S
N733 C736 1.350 . S
N734 S732 1.610 . S
N734 C735 1.351 . S
C735 C729 1.428 . S
C735 N734 1.351 . S
C735 C736 1.434 . S
C736 C727 1.429 . S
C736 N733 1.350 . S
C736 C735 1.434 . S
C737 C738 1.369 . S
C737 C739 1.419 . S
C737 H741 0.930 . S
C738 C737 1.369 . S
C738 C747 1.429 . S
C739 C737 1.419 . S
C739 C740 1.363 . S
C739 H742 0.929 . S
C740 C739 1.363 . S
C740 C746 1.428 . S
H741 C737 0.930 . S
H742 C739 0.929 . S
S743 N744 1.613 . S
S743 N745 1.610 . S
N744 S743 1.613 . S
N744 C747 1.350 . S
N745 S743 1.610 . S
N745 C746 1.351 . S
C746 C740 1.428 . S
C746 N745 1.351 . S
C746 C747 1.434 . S
C747 C738 1.429 . S
C747 N744 1.350 . S
C747 C746 1.434 . S
C748 C749 1.369 . S
C748 C750 1.419 . S
C748 H752 0.930 . S
C749 C748 1.369 . S
C749 C758 1.429 . S
C750 C748 1.419 . S
C750 C751 1.363 . S
C750 H753 0.929 . S
C751 C750 1.363 . S
C751 C757 1.428 . S
H752 C748 0.930 . S
H753 C750 0.929 . S
S754 N755 1.613 . S
S754 N756 1.610 . S
N755 S754 1.613 . S
N755 C758 1.350 . S
N756 S754 1.610 . S
N756 C757 1.351 . S
C757 C751 1.428 . S
C757 N756 1.351 . S
C757 C758 1.434 . S
C758 C749 1.429 . S
C758 N755 1.350 . S
C758 C757 1.434 . S
C759 C760 1.369 . S
C759 C761 1.419 . S
C759 H763 0.930 . S
C760 C759 1.369 . S
C760 C769 1.429 . S
C761 C759 1.419 . S
C761 C762 1.363 . S
C761 H764 0.929 . S
C762 C761 1.363 . S
C762 C768 1.428 . S
H763 C759 0.930 . S
H764 C761 0.929 . S
S765 N766 1.613 . S
S765 N767 1.610 . S
N766 S765 1.613 . S
N766 C769 1.350 . S
N767 S765 1.610 . S
N767 C768 1.351 . S
C768 C762 1.428 . S
C768 N767 1.351 . S
C768 C769 1.434 . S
C769 C760 1.429 . S
C769 N766 1.350 . S
C769 C768 1.434 . S
C770 C771 1.369 . S
C770 C772 1.419 . S
C770 H774 0.930 . S
C771 C770 1.369 . S
C771 C780 1.429 . S
C772 C770 1.419 . S
C772 C773 1.363 . S
C772 H775 0.929 . S
C773 C772 1.363 . S
C773 C779 1.428 . S
H774 C770 0.930 . S
H775 C772 0.929 . S
S776 N777 1.613 . S
S776 N778 1.610 . S
N777 S776 1.613 . S
N777 C780 1.350 . S
N778 S776 1.610 . S
N778 C779 1.351 . S
C779 C773 1.428 . S
C779 N778 1.351 . S
C779 C780 1.434 . S
C780 C771 1.429 . S
C780 N777 1.350 . S
C780 C779 1.434 . S
C781 C782 1.369 . S
C781 C783 1.419 . S
C781 H785 0.930 . S
C782 C781 1.369 . S
C782 C791 1.429 . S
C783 C781 1.419 . S
C783 C784 1.363 . S
C783 H786 0.929 . S
C784 C783 1.363 . S
C784 C790 1.428 . S
H785 C781 0.930 . S
H786 C783 0.929 . S
S787 N788 1.613 . S
S787 N789 1.610 . S
N788 S787 1.613 . S
N788 C791 1.350 . S
N789 S787 1.610 . S
N789 C790 1.351 . S
C790 C784 1.428 . S
C790 N789 1.351 . S
C790 C791 1.434 . S
C791 C782 1.429 . S
C791 N788 1.350 . S
C791 C790 1.434 . S
C792 C793 1.369 . S
C792 C794 1.419 . S
C792 H796 0.930 . S
C793 C792 1.369 . S
C793 C802 1.429 . S
C794 C792 1.419 . S
C794 C795 1.363 . S
C794 H797 0.929 . S
C795 C794 1.363 . S
C795 C801 1.428 . S
H796 C792 0.930 . S
H797 C794 0.929 . S
S798 N799 1.613 . S
S798 N800 1.610 . S
N799 S798 1.613 . S
N799 C802 1.350 . S
N800 S798 1.610 . S
N800 C801 1.351 . S
C801 C795 1.428 . S
C801 N800 1.351 . S
C801 C802 1.434 . S
C802 C793 1.429 . S
C802 N799 1.350 . S
C802 C801 1.434 . S
C803 C804 1.369 . S
C803 C805 1.419 . S
C803 H807 0.930 . S
C804 C803 1.369 . S
C804 C813 1.429 . S
C805 C803 1.419 . S
C805 C806 1.363 . S
C805 H808 0.929 . S
C806 C805 1.363 . S
C806 C812 1.428 . S
H807 C803 0.930 . S
H808 C805 0.929 . S
S809 N810 1.613 . S
S809 N811 1.610 . S
N810 S809 1.613 . S
N810 C813 1.350 . S
N811 S809 1.610 . S
N811 C812 1.351 . S
C812 C806 1.428 . S
C812 N811 1.351 . S
C812 C813 1.434 . S
C813 C804 1.429 . S
C813 N810 1.350 . S
C813 C812 1.434 . S
C814 C815 1.369 . S
C814 C816 1.419 . S
C814 H818 0.930 . S
C815 C814 1.369 . S
C815 C824 1.429 . S
C816 C814 1.419 . S
C816 C817 1.363 . S
C816 H819 0.929 . S
C817 C816 1.363 . S
C817 C823 1.428 . S
H818 C814 0.930 . S
H819 C816 0.929 . S
S820 N821 1.613 1_455 S
S820 N822 1.610 . S
N821 S820 1.613 1_655 S
N821 C824 1.350 . S
N822 S820 1.610 . S
N822 C823 1.351 1_455 S
C823 C817 1.428 . S
C823 N822 1.351 1_655 S
C823 C824 1.434 . S
C824 C815 1.429 . S
C824 N821 1.350 . S
C824 C823 1.434 . S
C825 C826 1.369 . S
C825 C827 1.419 . S
C825 H829 0.930 1_565 S
C826 C825 1.369 . S
C826 C835 1.429 . S
C827 C825 1.419 . S
C827 C828 1.363 . S
C827 H830 0.929 . S
C828 C827 1.363 . S
C828 C834 1.428 . S
H829 C825 0.930 1_545 S
H830 C827 0.929 . S
S831 N832 1.613 . S
S831 N833 1.610 . S
N832 S831 1.613 . S
N832 C835 1.350 . S
N833 S831 1.610 . S
N833 C834 1.351 . S
C834 C828 1.428 . S
C834 N833 1.351 . S
C834 C835 1.434 . S
C835 C826 1.429 . S
C835 N832 1.350 . S
C835 C834 1.434 . S
C836 C837 1.369 . S
C836 C838 1.419 . S
C836 H840 0.930 . S
C837 C836 1.369 . S
C837 C846 1.429 . S
C838 C836 1.419 . S
C838 C839 1.363 . S
C838 H841 0.929 . S
C839 C838 1.363 . S
C839 C845 1.428 . S
H840 C836 0.930 . S
H841 C838 0.929 . S
S842 N843 1.613 . S
S842 N844 1.610 . S
N843 S842 1.613 . S
N843 C846 1.350 . S
N844 S842 1.610 . S
N844 C845 1.351 . S
C845 C839 1.428 . S
C845 N844 1.351 . S
C845 C846 1.434 . S
C846 C837 1.429 . S
C846 N843 1.350 . S
C846 C845 1.434 . S
C847 C848 1.369 . S
C847 C849 1.419 . S
C847 H851 0.930 . S
C848 C847 1.369 . S
C848 C857 1.429 . S
C849 C847 1.419 . S
C849 C850 1.363 . S
C849 H852 0.929 . S
C850 C849 1.363 . S
C850 C856 1.428 . S
H851 C847 0.930 . S
H852 C849 0.929 . S
S853 N854 1.613 . S
S853 N855 1.610 . S
N854 S853 1.613 . S
N854 C857 1.350 . S
N855 S853 1.610 . S
N855 C856 1.351 . S
C856 C850 1.428 . S
C856 N855 1.351 . S
C856 C857 1.434 . S
C857 C848 1.429 . S
C857 N854 1.350 . S
C857 C856 1.434 . S
C858 C859 1.369 . S
C858 C860 1.419 . S
C858 H862 0.930 1_655 S
C859 C858 1.369 . S
C859 C868 1.429 . S
C860 C858 1.419 . S
C860 C861 1.363 . S
C860 H863 0.929 . S
C861 C860 1.363 . S
C861 C867 1.428 . S
H862 C858 0.930 1_455 S
H863 C860 0.929 . S
S864 N865 1.613 . S
S864 N866 1.610 . S
N865 S864 1.613 . S
N865 C868 1.350 . S
N866 S864 1.610 . S
N866 C867 1.351 . S
C867 C861 1.428 . S
C867 N866 1.351 . S
C867 C868 1.434 . S
C868 C859 1.429 . S
C868 N865 1.350 . S
C868 C867 1.434 . S
C869 C870 1.369 . S
C869 C871 1.419 . S
C869 H873 0.930 . S
C870 C869 1.369 . S
C870 C879 1.429 . S
C871 C869 1.419 . S
C871 C872 1.363 . S
C871 H874 0.929 . S
C872 C871 1.363 . S
C872 C878 1.428 . S
H873 C869 0.930 . S
H874 C871 0.929 . S
S875 N876 1.613 1_545 S
S875 N877 1.610 . S
N876 S875 1.613 1_565 S
N876 C879 1.350 . S
N877 S875 1.610 . S
N877 C878 1.351 1_545 S
C878 C872 1.428 . S
C878 N877 1.351 1_565 S
C878 C879 1.434 . S
C879 C870 1.429 . S
C879 N876 1.350 . S
C879 C878 1.434 . S
C880 C881 1.369 . S
C880 C882 1.419 . S
C880 H884 0.930 . S
C881 C880 1.369 . S
C881 C890 1.429 . S
C882 C880 1.419 . S
C882 C883 1.363 . S
C882 H885 0.929 . S
C883 C882 1.363 . S
C883 C889 1.428 . S
H884 C880 0.930 . S
H885 C882 0.929 . S
S886 N887 1.613 . S
S886 N888 1.610 . S
N887 S886 1.613 . S
N887 C890 1.350 . S
N888 S886 1.610 . S
N888 C889 1.351 . S
C889 C883 1.428 . S
C889 N888 1.351 . S
C889 C890 1.434 . S
C890 C881 1.429 . S
C890 N887 1.350 . S
C890 C889 1.434 . S
C891 C892 1.369 . S
C891 C893 1.419 . S
C891 H895 0.930 . S
C892 C891 1.369 . S
C892 C901 1.429 . S
C893 C891 1.419 . S
C893 C894 1.363 . S
C893 H896 0.929 . S
C894 C893 1.363 . S
C894 C900 1.428 . S
H895 C891 0.930 . S
H896 C893 0.929 . S
S897 N898 1.613 . S
S897 N899 1.610 . S
N898 S897 1.613 . S
N898 C901 1.350 . S
N899 S897 1.610 . S
N899 C900 1.351 . S
C900 C894 1.428 . S
C900 N899 1.351 . S
C900 C901 1.434 . S
C901 C892 1.429 . S
C901 N898 1.350 . S
C901 C900 1.434 . S
C902 C903 1.369 . S
C902 C904 1.419 . S
C902 H906 0.930 . S
C903 C902 1.369 . S
C903 C912 1.429 . S
C904 C902 1.419 . S
C904 C905 1.363 . S
C904 H907 0.929 . S
C905 C904 1.363 . S
C905 C911 1.428 . S
H906 C902 0.930 . S
H907 C904 0.929 . S
S908 N909 1.613 . S
S908 N910 1.610 . S
N909 S908 1.613 . S
N909 C912 1.350 . S
N910 S908 1.610 . S
N910 C911 1.351 . S
C911 C905 1.428 . S
C911 N910 1.351 . S
C911 C912 1.434 . S
C912 C903 1.429 . S
C912 N909 1.350 . S
C912 C911 1.434 . S
C913 C914 1.369 . S
C913 C915 1.419 . S
C913 H917 0.930 . S
C914 C913 1.369 . S
C914 C923 1.429 . S
C915 C913 1.419 . S
C915 C916 1.363 . S
C915 H918 0.929 . S
C916 C915 1.363 . S
C916 C922 1.428 . S
H917 C913 0.930 . S
H918 C915 0.929 . S
S919 N920 1.613 . S
S919 N921 1.610 . S
N920 S919 1.613 . S
N920 C923 1.350 . S
N921 S919 1.610 . S
N921 C922 1.351 . S
C922 C916 1.428 . S
C922 N921 1.351 . S
C922 C923 1.434 . S
C923 C914 1.429 . S
C923 N920 1.350 . S
C923 C922 1.434 . S
C924 C925 1.369 . S
C924 C926 1.419 . S
C924 H928 0.930 . S
C925 C924 1.369 . S
C925 C934 1.429 . S
C926 C924 1.419 . S
C926 C927 1.363 . S
C926 H929 0.929 . S
C927 C926 1.363 . S
C927 C933 1.428 . S
H928 C924 0.930 . S
H929 C926 0.929 . S
S930 N931 1.613 . S
S930 N932 1.610 . S
N931 S930 1.613 . S
N931 C934 1.350 . S
N932 S930 1.610 . S
N932 C933 1.351 . S
C933 C927 1.428 . S
C933 N932 1.351 . S
C933 C934 1.434 . S
C934 C925 1.429 . S
C934 N931 1.350 . S
C934 C933 1.434 . S
C935 C936 1.369 . S
C935 C937 1.419 . S
C935 H939 0.930 . S
C936 C935 1.369 . S
C936 C945 1.429 . S
C937 C935 1.419 . S
C937 C938 1.363 . S
C937 H940 0.929 . S
C938 C937 1.363 . S
C938 C944 1.428 . S
H939 C935 0.930 . S
H940 C937 0.929 . S
S941 N942 1.613 . S
S941 N943 1.610 . S
N942 S941 1.613 . S
N942 C945 1.350 . S
N943 S941 1.610 . S
N943 C944 1.351 . S
C944 C938 1.428 . S
C944 N943 1.351 . S
C944 C945 1.434 . S
C945 C936 1.429 . S
C945 N942 1.350 . S
C945 C944 1.434 . S
C946 C947 1.369 . S
C946 C948 1.419 . S
C946 H950 0.930 . S
C947 C946 1.369 . S
C947 C956 1.429 . S
C948 C946 1.419 . S
C948 C949 1.363 . S
C948 H951 0.929 . S
C949 C948 1.363 . S
C949 C955 1.428 . S
H950 C946 0.930 . S
H951 C948 0.929 . S
S952 N953 1.613 . S
S952 N954 1.610 . S
N953 S952 1.613 . S
N953 C956 1.350 . S
N954 S952 1.610 . S
N954 C955 1.351 . S
C955 C949 1.428 . S
C955 N954 1.351 . S
C955 C956 1.434 . S
C956 C947 1.429 . S
C956 N953 1.350 . S
C956 C955 1.434 . S
C957 C958 1.369 . S
C957 C959 1.419 . S
C957 H961 0.930 . S
C958 C957 1.369 . S
C958 C967 1.429 . S
C959 C957 1.419 . S
C959 C960 1.363 . S
C959 H962 0.929 . S
C960 C959 1.363 . S
C960 C966 1.428 . S
H961 C957 0.930 . S
H962 C959 0.929 . S
S963 N964 1.613 . S
S963 N965 1.610 . S
N964 S963 1.613 . S
N964 C967 1.350 . S
N965 S963 1.610 . S
N965 C966 1.351 . S
C966 C960 1.428 . S
C966 N965 1.351 . S
C966 C967 1.434 . S
C967 C958 1.429 . S
C967 N964 1.350 . S
C967 C966 1.434 . S
C529 C17 1.584 . S
C531 C215 1.585 . S
C540 C248 1.589 . S
C542 C50 1.584 . S
C551 C149 1.589 . S
C553 C83 1.588 . S
C562 C182 1.589 . S
C564 C116 1.584 . S
C573 C281 1.583 . S
C575 C479 1.586 . S
C584 C314 1.583 . S
C586 C512 1.588 . S
C595 C347 1.589 . S
C597 C413 1.587 . S
C606 C446 1.590 . S
C608 C380 1.587 . S
C617 C28 1.573 . S
C619 N104 1.556 . S
C628 C61 1.570 . S
C630 N5 1.552 . S
C639 N38 1.559 . S
C641 C94 1.565 1_655 S
C650 C127 1.564 1_565 S
C652 N71 1.560 . S
C661 N170 1.559 . S
C663 C160 1.571 . S
C672 N203 1.560 . S
C674 C193 1.569 . S
C683 N236 1.561 . S
C685 C226 1.565 1_655 S
C694 N137 1.554 . S
C696 C259 1.567 1_565 S
C705 C292 1.569 . S
C707 N368 1.553 . S
C716 N269 1.550 . S
C718 C325 1.573 . S
C727 C358 1.564 . S
C729 N302 1.560 . S
C738 C391 1.564 . S
C740 N335 1.557 . S
C749 C424 1.568 . S
C751 N434 1.560 . S
C760 C457 1.569 . S
C762 N467 1.559 . S
C771 C490 1.572 . S
C773 N500 1.557 . S
C782 N401 1.558 . S
C784 C523 1.565 . S
C793 N509 1.278 . S
C795 N14 1.281 . S
C804 N47 1.278 . S
C806 N410 1.280 . S
C815 N443 1.287 . S
C817 N80 1.283 . S
C826 N113 1.278 . S
C828 N476 1.279 . S
C837 N311 1.283 . S
C839 N146 1.286 . S
C848 N179 1.287 . S
C850 N344 1.286 . S
C859 N212 1.280 . S
C861 N377 1.279 . S
C870 N278 1.287 . S
C872 N245 1.283 . S
C881 C140 1.630 . S
C883 C371 1.631 . S
C892 C173 1.627 . S
C894 C272 1.634 . S
C903 C206 1.631 . S
C905 C305 1.632 . S
C914 C338 1.635 . S
C916 C239 1.628 . S
C925 C8 1.629 . S
C927 C437 1.633 . S
C936 C470 1.627 . S
C938 C41 1.635 . S
C947 C74 1.636 . S
C949 C503 1.628 . S
C958 C107 1.634 . S
C960 C404 1.630 . S
