# Generated by pormake.
# Topology ukg, (4)-cn, num edge types: 1
# Building blocks:
#     Node 0, Type 0, BuildingBlock: ESEHIV_clean_sbu_0, # of connection points: 4
#     Node 1, Type 0, BuildingBlock: ESEHIV_clean_sbu_0, # of connection points: 4
#     Node 2, Type 0, BuildingBlock: ESEHIV_clean_sbu_0, # of connection points: 4
#     Node 3, Type 0, BuildingBlock: ESEHIV_clean_sbu_0, # of connection points: 4
#     Node 4, Type 0, BuildingBlock: ESEHIV_clean_sbu_0, # of connection points: 4
#     Node 5, Type 0, BuildingBlock: ESEHIV_clean_sbu_0, # of connection points: 4
#     Node 6, Type 0, BuildingBlock: ESEHIV_clean_sbu_0, # of connection points: 4
#     Node 7, Type 0, BuildingBlock: ESEHIV_clean_sbu_0, # of connection points: 4
#     Edge 8, Type (0, 0), BuildingBlock: KIFKEQ_clean_linker_1, # of connection points: 2
#     Edge 9, Type (0, 0), BuildingBlock: KIFKEQ_clean_linker_1, # of connection points: 2
#     Edge 10, Type (0, 0), BuildingBlock: KIFKEQ_clean_linker_1, # of connection points: 2
#     Edge 11, Type (0, 0), BuildingBlock: KIFKEQ_clean_linker_1, # of connection points: 2
#     Edge 12, Type (0, 0), BuildingBlock: KIFKEQ_clean_linker_1, # of connection points: 2
#     Edge 13, Type (0, 0), BuildingBlock: KIFKEQ_clean_linker_1, # of connection points: 2
#     Edge 14, Type (0, 0), BuildingBlock: KIFKEQ_clean_linker_1, # of connection points: 2
#     Edge 15, Type (0, 0), BuildingBlock: KIFKEQ_clean_linker_1, # of connection points: 2
#     Edge 16, Type (0, 0), BuildingBlock: KIFKEQ_clean_linker_1, # of connection points: 2
#     Edge 17, Type (0, 0), BuildingBlock: KIFKEQ_clean_linker_1, # of connection points: 2
#     Edge 18, Type (0, 0), BuildingBlock: KIFKEQ_clean_linker_1, # of connection points: 2
#     Edge 19, Type (0, 0), BuildingBlock: KIFKEQ_clean_linker_1, # of connection points: 2
#     Edge 20, Type (0, 0), BuildingBlock: KIFKEQ_clean_linker_1, # of connection points: 2
#     Edge 21, Type (0, 0), BuildingBlock: KIFKEQ_clean_linker_1, # of connection points: 2
#     Edge 22, Type (0, 0), BuildingBlock: KIFKEQ_clean_linker_1, # of connection points: 2
#     Edge 23, Type (0, 0), BuildingBlock: KIFKEQ_clean_linker_1, # of connection points: 2
# Relax obj value: 0.120
# Max RMSD: 0.192
# Mean RMSD: 0.175
data_MOF--net-ukg--node1-ESEHIV_clean_sbu_0--edge1-KIFKEQ_clean_linker_1
_symmetry_space_group_name_H-M    P1
_symmetry_Int_Tables_number       1
_symmetry_cell_setting            triclinic
loop_
_symmetry_equiv_pos_as_xyz
'x, y, z'
_cell_length_a     31.918173
_cell_length_b     31.984014
_cell_length_c     42.398614
_cell_angle_alpha  90.037047
_cell_angle_beta   91.14351
_cell_angle_gamma 90.227128
loop_
_atom_site_label
_atom_site_type_symbol
_atom_site_fract_x
_atom_site_fract_y
_atom_site_fract_z
_atom_type_partial_charge
Cu0 Cu 0.06176 0.6805 0.16413 0.0
N1 N 1.03075 0.72929 0.1579 0.0
N2 N 0.99343 0.78567 0.17044 0.0
C3 C 1.00913 0.74878 0.18046 0.0
C4 C 1.00532 0.78928 0.14017 0.0
C5 C 1.02825 0.75435 0.13247 0.0
O6 O 0.03236 0.64829 0.19592 0.0
C7 C 0.12919 0.72965 0.19088 0.0
O8 O 0.0992 0.75296 0.20215 0.0
H9 H 1.00732 0.73726 0.2044 0.0
H10 H 0.04328 0.7485 0.11029 0.0
N11 N 0.06423 0.65023 0.12647 0.0
N12 N 0.0634 0.59829 0.09107 0.0
C13 C 0.05349 0.61004 0.12066 0.0
C14 C 0.08147 0.66421 0.09978 0.0
C15 C 0.08087 0.63243 0.07792 0.0
C16 C 0.99407 0.63904 0.18999 0.0
O17 O 0.97773 0.6493 0.16238 0.0
H18 H 0.04014 0.58947 0.13809 0.0
H19 H 0.0946 0.69513 0.09674 0.0
O20 O 0.11949 0.69618 0.17599 0.0
H21 H 0.99893 0.81573 0.12494 0.0
H22 H 0.09266 0.63432 0.05421 0.0
Cu23 Cu 0.34384 0.54914 0.64661 0.0
N24 N 0.29171 0.52289 0.64848 0.0
N25 N 0.23741 0.49077 0.67076 0.0
C26 C 0.27879 0.49967 0.67287 0.0
C27 C 0.22399 0.50887 0.64361 0.0
C28 C 0.25751 0.52886 0.63003 0.0
O29 O 0.37945 0.52146 0.67818 0.0
C30 C 0.31721 0.61797 0.68217 0.0
O31 O 0.3107 0.58843 0.70305 0.0
H32 H 0.29915 0.49131 0.69251 0.0
H33 H 0.25652 0.54841 0.60922 0.0
N34 N 0.36639 0.54269 0.60637 0.0
N35 N 0.41186 0.54178 0.56664 0.0
C36 C 0.40495 0.5537 0.59681 0.0
C37 C 0.34823 0.52316 0.58154 0.0
C38 C 0.376 0.52259 0.5571 0.0
C39 C 0.38787 0.48281 0.6745 0.0
O40 O 0.3752 0.46414 0.64837 0.0
H41 H 0.4275 0.56964 0.61197 0.0
H42 H 0.31735 0.50918 0.58146 0.0
O43 O 0.33399 0.60812 0.65616 0.0
H44 H 0.19181 0.51003 0.63516 0.0
H45 H 0.37048 0.50772 0.53447 0.0
Cu46 Cu 0.49607 0.89612 0.18854 0.0
N47 N 0.53158 0.85148 0.19854 0.0
N48 N 0.57814 0.81427 0.22696 0.0
C49 C 0.55863 0.85136 0.2233 0.0
C50 C 0.56274 0.79005 0.20326 0.0
C51 C 0.53393 0.81305 0.18584 0.0
O52 O 0.51254 0.93854 0.21956 0.0
C53 C 0.42118 0.853 0.17305 0.0
O54 O 0.44264 0.84279 0.14809 0.0
H55 H 0.56338 0.87793 0.23864 0.0
H56 H 0.51531 0.80214 0.16588 0.0
N57 N 0.50481 0.9146 0.14702 0.0
N58 N 0.50478 0.95368 0.10302 0.0
C59 C 0.49215 0.95063 0.1333 0.0
C60 C 0.526 0.89416 0.1247 0.0
C61 C 0.52604 0.91803 0.09766 0.0
C62 C 0.54623 0.9593 0.21573 0.0
O63 O 0.56435 0.95779 0.18821 0.0
H64 H 0.47481 0.97441 0.14558 0.0
H65 H 0.54054 0.86395 0.12787 0.0
O66 O 0.43812 0.87721 0.19358 0.0
H67 H 0.57048 0.75758 0.19933 0.0
H68 H 0.54039 0.90947 0.07569 0.0
Cu69 Cu 0.15152 0.98118 0.70713 0.0
N70 N 0.19767 1.01464 0.7184 0.0
N71 N 0.2348 0.06191 0.74606 0.0
C72 C 0.19623 0.04844 0.73733 0.0
C73 C 0.26167 0.0362 0.73143 0.0
C74 C 0.23865 1.00726 0.71415 0.0
O75 O 0.10912 0.99478 0.73805 0.0
C76 C 0.19557 0.90549 0.72334 0.0
O77 O 0.21155 0.9277 0.74672 0.0
H78 H 0.16747 0.06122 0.74627 0.0
H79 H 0.25088 0.98124 0.70093 0.0
N80 N 0.13178 0.9981 0.66733 0.0
N81 N 0.09028 1.0105 0.62519 0.0
C82 C 0.09346 0.99229 0.65396 0.0
C83 C 0.15355 1.02045 0.64634 0.0
C84 C 0.12813 1.02815 0.6204 0.0
C85 C 0.11831 0.99463 0.76744 0.0
O86 O 0.15262 0.97556 0.77698 0.0
H87 H 0.06826 0.9758 0.66536 0.0
H88 H 0.18567 0.03062 0.64978 0.0
O89 O 0.1682 0.92206 0.70494 0.0
H90 H 0.29547 0.03728 0.73399 0.0
H91 H 0.13704 0.0451 0.59947 0.0
Cu92 Cu 0.98125 0.32233 0.89975 0.0
N93 N 0.92499 0.32631 0.88809 0.0
N94 N 0.8554 0.33285 0.88907 0.0
C95 C 0.89135 0.33106 0.90644 0.0
C96 C 0.86717 0.32933 0.85875 0.0
C97 C 0.91002 0.32534 0.85826 0.0
O98 O 0.98762 0.33769 0.94404 0.0
C99 C 0.03728 0.25488 0.88409 0.0
O100 O 0.06787 0.28185 0.8889 0.0
H101 H 0.8932 0.33259 0.93193 0.0
H102 H 0.92911 0.32212 0.83761 0.0
N103 N 1.00941 0.36341 0.87728 0.0
N104 N 0.04882 0.39861 0.84332 0.0
C105 C 0.03344 0.36077 0.85157 0.0
C106 C 1.00912 0.40409 0.88519 0.0
C107 C 0.03336 0.42585 0.86441 0.0
C108 C 1.02371 0.34634 0.95565 0.0
O109 O 0.0569 0.33788 0.93903 0.0
H110 H 0.04014 0.33174 0.83959 0.0
H111 H 0.99249 0.41692 0.90494 0.0
O112 O 0.99964 0.26604 0.88873 0.0
H113 H 0.84639 0.33014 0.83829 0.0
H114 H 0.03891 0.45925 0.86473 0.0
Cu115 Cu 0.75413 0.57295 0.41647 0.0
N116 N 0.78615 0.53854 0.44304 0.0
N117 N 0.81075 0.47685 0.45945 0.0
C118 C 0.78246 0.49686 0.44102 0.0
C119 C 0.83341 0.50741 0.47382 0.0
C120 C 0.81787 0.54569 0.46379 0.0
O121 O 0.69525 0.56156 0.42599 0.0
C122 C 0.81224 0.56103 0.37053 0.0
O123 O 0.83613 0.5662 0.3958 0.0
H124 H 0.76079 0.48158 0.42473 0.0
H125 H 0.82993 0.5763 0.47006 0.0
N126 N 0.76212 0.63032 0.42127 0.0
N127 N 0.74929 0.69453 0.40259 0.0
C128 C 0.76048 0.65506 0.39567 0.0
C129 C 0.75258 0.65522 0.44568 0.0
C130 C 0.74461 0.69495 0.43419 0.0
C131 C 0.68756 0.55951 0.45541 0.0
O132 O 0.71858 0.56491 0.47583 0.0
H133 H 0.76103 0.64282 0.37188 0.0
H134 H 0.74672 0.64435 0.46933 0.0
O135 O 0.77246 0.56134 0.37345 0.0
H136 H 0.85989 0.50249 0.48972 0.0
H137 H 0.73229 0.72083 0.44754 0.0
Cu138 Cu 0.45884 0.26925 0.9198 0.0
N139 N 0.4951 0.30654 0.94086 0.0
N140 N 0.55655 0.33865 0.94887 0.0
C141 C 0.53376 0.31315 0.93003 0.0
C142 C 0.53149 0.34854 0.97297 0.0
C143 C 0.49307 0.32898 0.96773 0.0
O144 O 0.47115 0.21277 0.93608 0.0
C145 C 0.46387 0.31923 0.86807 0.0
O146 O 0.45595 0.34574 0.89084 0.0
H147 H 0.54544 0.29841 0.90896 0.0
H148 H 0.46613 0.33022 0.98278 0.0
N149 N 0.40142 0.27777 0.92456 0.0
N150 N 0.33634 0.26049 0.90864 0.0
C151 C 0.37538 0.27046 0.89982 0.0
C152 C 0.37758 0.27345 0.95024 0.0
C153 C 0.33741 0.26246 0.94044 0.0
C154 C 0.4702 0.21003 0.96614 0.0
O155 O 0.46299 0.24416 0.98228 0.0
H156 H 0.38644 0.26582 0.8761 0.0
H157 H 0.38937 0.27315 0.97429 0.0
O158 O 0.46743 0.2804 0.87481 0.0
H159 H 0.54032 0.36824 0.9928 0.0
H160 H 0.31236 0.25233 0.95553 0.0
Cu161 Cu 0.84655 0.05791 0.39636 0.0
N162 N 0.85546 0.11445 0.38884 0.0
N163 N 0.85757 0.18375 0.39449 0.0
C164 C 0.85209 0.14668 0.40909 0.0
C165 C 0.86483 0.17441 0.36405 0.0
C166 C 0.86364 0.13162 0.36067 0.0
O167 O 0.85926 0.04771 0.44084 0.0
C168 C 0.77304 1.00994 0.37761 0.0
O169 O 0.79412 0.9765 0.38621 0.0
H170 H 0.84399 0.14313 0.43362 0.0
H171 H 0.86737 0.11417 0.33905 0.0
N172 N 0.88507 0.02897 0.37226 0.0
N173 N 0.91505 0.99109 0.33473 0.0
C174 C 0.87859 1.00521 0.34635 0.0
C175 C 0.92681 0.02994 0.37714 0.0
C176 C 0.94539 1.00659 0.3541 0.0
C177 C 0.87393 1.01306 0.45081 0.0
O178 O 0.87461 0.98094 0.4315 0.0
H179 H 0.84798 0.99918 0.33586 0.0
H180 H 0.94254 0.04671 0.39614 0.0
O181 O 0.7894 0.0459 0.38187 0.0
H182 H 0.86993 0.19696 0.34547 0.0
H183 H 0.97865 1.00107 0.35199 0.0
H184 H 0.9622 0.3903 0.98543 0.0
H185 H 0.0954 0.36677 0.98828 0.0
H186 H 0.97221 0.44748 1.02302 0.0
H187 H 0.10524 0.42323 1.02629 0.0
H188 H 0.11208 0.56423 0.04647 0.0
H189 H 0.10164 0.49812 1.01932 0.0
H190 H 0.99355 0.47251 0.07601 0.0
H191 H 1.00351 0.5399 0.10281 0.0
C192 C 0.99346 0.39651 0.99473 0.0
C193 C 1.02809 0.37433 0.98347 0.0
C194 C 0.99919 0.42931 1.01636 0.0
C195 C 0.03964 0.44051 1.02722 0.0
C196 C 0.07378 0.41611 1.01781 0.0
C197 C 0.06809 0.38352 0.99616 0.0
C198 C 0.086 0.54466 0.05316 0.0
C199 C 0.05839 0.55763 0.07661 0.0
C200 C 0.08033 0.50635 1.03787 0.0
C201 C 0.04685 0.47979 0.04555 0.0
C202 C 1.01954 0.49231 0.06942 0.0
C203 C 1.02541 0.53074 0.08493 0.0
H204 H 0.49032 0.55981 0.58956 0.0
H205 H 0.42128 0.53333 0.50302 0.0
H206 H 0.55457 0.56387 0.56036 0.0
H207 H 0.48627 0.53506 0.47406 0.0
H208 H 0.61083 0.5811 0.42894 0.0
H209 H 0.5426 0.57801 0.45471 0.0
H210 H 0.60107 0.51789 0.53545 0.0
H211 H 0.6685 0.52237 0.51037 0.0
C212 C 0.48855 0.55488 0.56435 0.0
C213 C 0.45014 0.54583 0.54896 0.0
C214 C 0.52577 0.55665 0.54754 0.0
C215 C 0.52594 0.54906 0.51481 0.0
C216 C 0.48748 0.54112 0.49919 0.0
C217 C 0.45011 0.53962 0.516 0.0
C218 C 0.60875 0.56676 0.45199 0.0
C219 C 0.64502 0.55236 0.46776 0.0
C220 C 0.56973 0.56502 0.46682 0.0
C221 C 0.56635 0.54852 0.49755 0.0
C222 C 0.60249 0.5321 0.51232 0.0
C223 C 0.64121 0.53428 0.49776 0.0
H224 H 0.55063 0.97335 0.05145 0.0
H225 H 0.44332 1.01223 0.10443 0.0
H226 H 0.54067 0.03252 1.01589 0.0
H227 H 0.43358 0.07137 0.06897 0.0
H228 H 0.46467 0.19922 1.02927 0.0
H229 H 0.47154 0.13592 0.05982 0.0
H230 H 0.49374 0.06561 0.97485 0.0
H231 H 0.48711 0.13023 0.9436 0.0
C232 C 0.52458 0.9941 0.05538 0.0
C233 C 0.49801 0.98798 0.08118 0.0
C234 C 0.51885 1.02807 1.03484 0.0
C235 C 0.48653 0.05694 1.03962 0.0
C236 C 0.4593 0.05019 0.06488 0.0
C237 C 0.46497 1.01626 0.08535 0.0
C238 C 0.47097 0.17044 1.01678 0.0
C239 C 0.47524 0.17002 0.98378 0.0
C240 C 0.47458 0.13389 1.03446 0.0
C241 C 0.48267 0.09547 1.01987 0.0
C242 C 0.48754 0.09476 0.98686 0.0
C243 C 0.48364 0.1317 0.96893 0.0
H244 H 0.91211 0.94525 0.47817 0.0
H245 H 0.88982 0.07698 0.49257 0.0
H246 H 0.96022 0.94481 0.52356 0.0
H247 H 0.93752 0.07633 0.53823 0.0
H248 H 0.07091 0.07062 0.58248 0.0
H249 H 1.01342 0.0704 0.54398 0.0
H250 H 0.96954 0.95271 0.58104 0.0
H251 H 1.02806 0.95249 0.61928 0.0
C252 C 0.91678 0.97395 0.49137 0.0
C253 C 0.89734 1.01124 0.48146 0.0
C254 C 0.94431 0.97364 0.51752 0.0
C255 C 0.95317 1.01064 0.53436 0.0
C256 C 0.93198 0.04743 0.52546 0.0
C257 C 0.90434 0.04772 0.49939 0.0
C258 C 0.04911 0.04462 0.58244 0.0
C259 C 0.0544 1.01139 0.60383 0.0
C260 C 1.01574 0.04476 0.56059 0.0
C261 C 0.98672 1.01158 0.55939 0.0
C262 C 0.99148 0.97863 0.58117 0.0
C263 C 1.02481 0.97865 0.60325 0.0
H264 H 0.19957 0.69166 0.16815 0.0
H265 H 0.15884 0.80315 0.216 0.0
H266 H 0.27044 0.72025 0.16604 0.0
H267 H 0.22924 0.8322 0.21311 0.0
H268 H 0.36962 0.86044 0.22412 0.0
H269 H 0.30072 0.82845 0.23114 0.0
H270 H 0.30727 0.77326 0.13834 0.0
H271 H 0.37616 0.80417 0.13173 0.0
C272 C 0.20573 0.72215 0.1784 0.0
C273 C 0.17332 0.74507 0.19215 0.0
C274 C 0.24637 0.73878 0.17695 0.0
C275 C 0.25572 0.77885 0.18911 0.0
C276 C 0.22353 0.80115 0.20375 0.0
C277 C 0.18296 0.78448 0.20528 0.0
C278 C 0.3563 0.84149 0.20523 0.0
C279 C 0.37857 0.83494 0.17737 0.0
C280 C 0.31668 0.82321 0.2092 0.0
C281 C 0.29828 0.79794 0.18539 0.0
C282 C 0.32059 0.79171 0.1575 0.0
C283 C 0.36011 0.80985 0.15358 0.0
H284 H 0.31058 0.68382 0.64051 0.0
H285 H 0.28742 0.64954 0.73713 0.0
H286 H 0.28056 0.75295 0.65008 0.0
H287 H 0.25731 0.7181 0.74654 0.0
H288 H 0.24788 0.85947 0.76126 0.0
H289 H 0.27834 0.79135 0.75081 0.0
H290 H 0.21182 0.78608 0.66122 0.0
H291 H 0.18139 0.85481 0.67159 0.0
C292 C 0.29938 0.69106 0.66382 0.0
C293 C 0.30159 0.66106 0.68806 0.0
C294 C 0.2818 0.73057 0.66923 0.0
C295 C 0.26639 0.74116 0.69908 0.0
C296 C 0.26921 0.71129 0.72336 0.0
C297 C 0.28642 0.67182 0.71791 0.0
C298 C 0.23949 0.84382 0.73936 0.0
C299 C 0.212 0.86272 0.71733 0.0
C300 C 0.25692 0.80458 0.73341 0.0
C301 C 0.24762 0.78311 0.70515 0.0
C302 C 0.22004 0.80191 0.68308 0.0
C303 C 0.20228 0.84115 0.68916 0.0
H304 H 0.62098 0.33492 0.9913 0.0
H305 H 0.58902 0.36552 0.89489 0.0
H306 H 0.69582 0.33763 0.97872 0.0
H307 H 0.66312 0.36943 0.88232 0.0
H308 H 0.78469 0.30466 0.86008 0.0
H309 H 0.71321 0.31329 0.87704 0.0
H310 H 0.75764 0.37864 0.96046 0.0
H311 H 0.82998 0.3699 0.94327 0.0
C312 C 0.63014 0.34361 0.96773 0.0
C313 C 0.59957 0.34965 0.94393 0.0
C314 C 0.67284 0.34505 0.96047 0.0
C315 C 0.68535 0.35278 0.92933 0.0
C316 C 0.65454 0.36225 0.90631 0.0
C317 C 0.61219 0.3604 0.91349 0.0
C318 C 0.77939 0.32131 0.88185 0.0
C319 C 0.81313 0.33703 0.90008 0.0
C320 C 0.73829 0.32634 0.8916 0.0
C321 C 0.72962 0.34735 0.91984 0.0
C322 C 0.76331 0.36232 0.93858 0.0
C323 C 0.80471 0.35723 0.92877 0.0
H324 H 0.88496 0.4361 0.46735 0.0
H325 H 0.75242 0.41662 0.45068 0.0
H326 H 0.89753 0.36187 0.4561 0.0
H327 H 0.76519 0.34334 0.43859 0.0
H328 H 0.82108 0.24964 0.3659 0.0
H329 H 0.81047 0.31918 0.388 0.0
H330 H 0.87153 0.28093 0.47492 0.0
H331 H 0.88166 0.21049 0.45277 0.0
C332 C 0.85848 0.41586 0.46209 0.0
C333 C 0.81779 0.43236 0.45926 0.0
C334 C 0.8657 0.3735 0.45558 0.0
C335 C 0.83234 0.34732 0.44603 0.0
C336 C 0.79145 0.36313 0.44549 0.0
C337 C 0.78422 0.40507 0.45227 0.0
C338 C 0.83246 0.2561 0.38963 0.0
C339 C 0.85223 0.22481 0.40763 0.0
C340 C 0.82615 0.29573 0.40234 0.0
C341 C 0.84007 0.30516 0.43315 0.0
C342 C 0.86057 0.27425 0.4511 0.0
C343 C 0.86614 0.23412 0.43854 0.0
H344 H 0.88637 0.52578 0.35708 0.0
H345 H 0.78599 0.59802 0.31514 0.0
H346 H 0.92931 0.5387 0.31131 0.0
H347 H 0.82953 0.61227 0.26937 0.0
H348 H 0.91257 0.6135 0.18309 0.0
H349 H 0.86598 0.5876 0.22359 0.0
H350 H 0.96666 0.59825 0.29282 0.0
H351 H 1.01346 0.62323 0.25217 0.0
C352 C 0.87321 0.54381 0.33768 0.0
C353 C 0.83287 0.56091 0.33963 0.0
C354 C 0.89803 0.55166 0.31159 0.0
C355 C 0.88339 0.57735 0.2869 0.0
C356 C 0.84185 0.59222 0.28788 0.0
C357 C 0.81674 0.58394 0.31401 0.0
C358 C 0.92492 0.60995 0.20692 0.0
C359 C 0.96685 0.62048 0.21437 0.0
C360 C 0.89804 0.59531 0.23019 0.0
C361 C 0.91237 0.59078 0.26155 0.0
C362 C 0.95458 0.60062 0.26884 0.0
C363 C 0.98149 0.61517 0.24554 0.0
H364 H 0.40744 0.50784 0.73492 0.0
H365 H 0.41054 0.40035 0.67331 0.0
H366 H 0.43217 0.46476 0.77872 0.0
H367 H 0.43628 0.35736 0.71701 0.0
H368 H 0.42555 0.28781 0.81445 0.0
H369 H 0.4122 0.32645 0.76534 0.0
H370 H 0.49034 0.42773 0.80021 0.0
H371 H 0.50219 0.38975 0.84928 0.0
C372 C 0.41407 0.47517 0.73057 0.0
C373 C 0.40693 0.45767 0.70055 0.0
C374 C 0.42849 0.45037 0.75571 0.0
C375 C 0.43639 0.40738 0.75152 0.0
C376 C 0.43011 0.39012 0.72128 0.0
C377 C 0.41559 0.41493 0.69614 0.0
C378 C 0.44085 0.31772 0.81105 0.0
C379 C 0.46488 0.33583 0.83558 0.0
C380 C 0.43308 0.34005 0.783 0.0
C381 C 0.44947 0.38075 0.77898 0.0
C382 C 0.47619 0.39711 0.80272 0.0
C383 C 0.48347 0.3751 0.83071 0.0
H384 H 0.53953 0.93659 0.27789 0.0
H385 H 0.61 1.01612 0.21585 0.0
H386 H 0.58985 0.95142 0.32081 0.0
H387 H 0.6598 0.0313 0.25874 0.0
H388 H 0.7288 0.07195 0.34767 0.0
H389 H 0.66824 0.06453 0.3121 0.0
H390 H 0.6663 0.93157 0.32938 0.0
H391 H 0.72708 0.93884 0.36502 0.0
C392 C 0.56505 0.95815 0.27363 0.0
C393 C 0.57079 0.97515 0.24339 0.0
C394 C 0.59411 0.96628 0.29814 0.0
C395 C 0.62897 0.9923 0.29314 0.0
C396 C 0.63316 1.01134 0.26347 0.0
C397 C 0.6046 1.00263 0.23885 0.0
C398 C 0.71519 0.04116 0.34429 0.0
C399 C 0.7331 1.00592 0.35911 0.0
C400 C 0.68054 0.03694 0.32377 0.0
C401 C 0.66257 0.99747 0.31778 0.0
C402 C 0.67919 0.96248 0.3337 0.0
C403 C 0.71418 0.96663 0.35401 0.0
H404 H 0.11377 0.21852 0.87588 0.0
H405 H 0.98112 0.1965 0.86138 0.0
H406 H 0.12882 0.15196 0.85051 0.0
H407 H 0.99632 0.12971 0.83605 0.0
H408 H 0.1425 1.01523 0.82767 0.0
H409 H 0.1204 0.07528 0.85837 0.0
H410 H 1.02913 0.10637 0.78573 0.0
H411 H 0.05126 0.04614 0.75479 0.0
C412 C 0.08777 0.19932 0.86758 0.0
C413 C 0.04623 0.21295 0.8707 0.0
C414 C 0.09641 0.16102 0.85317 0.0
C415 C 0.06374 0.13546 0.8413 0.0
C416 C 1.02217 0.14879 0.84476 0.0
C417 C 1.01349 0.18697 0.85945 0.0
C418 C 0.11711 0.03426 0.81843 0.0
C419 C 0.09882 1.02584 0.7886 0.0
C420 C 0.10472 0.06897 0.83597 0.0
C421 C 0.0734 0.09593 0.82433 0.0
C422 C 0.05327 0.08613 0.79542 0.0
C423 C 0.06595 0.05156 0.77768 0.0
H424 H 0.05742 0.357 0.78787 0.0
H425 H 0.10449 0.46238 0.84177 0.0
H426 H 0.10486 0.37492 0.74516 0.0
H427 H 0.15034 0.481 0.79908 0.0
H428 H 0.25682 0.48271 0.73328 0.0
H429 H 0.21263 0.45551 0.77416 0.0
H430 H 0.11461 0.43035 0.705 0.0
H431 H 0.15984 0.45597 0.66338 0.0
C432 C 0.07792 0.38383 0.79066 0.0
C433 C 0.07702 0.40835 0.81819 0.0
C434 C 0.10477 0.39432 0.7661 0.0
C435 C 0.13146 0.4293 0.76877 0.0
C436 C 0.13064 0.45352 0.7964 0.0
C437 C 0.10387 0.44315 0.82077 0.0
C438 C 0.2263 0.47067 0.72639 0.0
C439 C 0.212 0.47189 0.69479 0.0
C440 C 0.20067 0.45548 0.75006 0.0
C441 C 0.15989 0.44129 0.74292 0.0
C442 C 0.14595 0.44097 0.71126 0.0
C443 C 0.17173 0.45612 0.68745 0.0
H444 H 0.77852 0.71008 0.34457 0.0
H445 H 0.67978 0.74234 0.40804 0.0
H446 H 0.74093 0.7451 0.30142 0.0
H447 H 0.6418 0.77678 0.36502 0.0
H448 H 0.58979 0.85269 0.28404 0.0
H449 H 0.63711 0.83209 0.32663 0.0
H450 H 0.67875 0.72756 0.271 0.0
H451 H 0.63287 0.74929 0.22764 0.0
C452 C 0.74916 0.72546 0.34939 0.0
C453 C 0.73204 0.72327 0.37963 0.0
C454 C 0.72742 0.74516 0.32465 0.0
C455 C 0.68793 0.76308 0.32956 0.0
C456 C 0.67223 0.76353 0.36037 0.0
C457 C 0.6941 0.74392 0.38515 0.0
C458 C 0.60944 0.82573 0.28045 0.0
C459 C 0.60715 0.80262 0.25212 0.0
C460 C 0.63639 0.81366 0.30519 0.0
C461 C 0.66174 0.77811 0.30238 0.0
C462 C 0.6601 0.75546 0.2739 0.0
C463 C 0.63324 0.76759 0.2491 0.0
H464 H 0.30289 0.18486 0.92119 0.0
H465 H 0.30831 0.28153 0.85062 0.0
H466 H 0.27173 0.13688 0.88217 0.0
H467 H 0.27638 0.23383 0.8116 0.0
H468 H 0.19341 0.13397 0.75723 0.0
H469 H 0.20868 0.18491 0.79937 0.0
H470 H 0.31218 0.10891 0.83198 0.0
H471 H 0.29731 0.05852 0.78984 0.0
C472 C 0.29571 0.19635 0.89769 0.0
C473 C 0.30772 0.23692 0.88887 0.0
C474 C 0.27838 0.16881 0.8753 0.0
C475 C 0.27207 0.18162 0.84388 0.0
C476 C 0.28076 0.22326 0.83571 0.0
C477 C 0.29884 0.25054 0.85796 0.0
C478 C 0.21941 0.12831 0.77343 0.0
C479 C 0.24446 0.09254 0.77009 0.0
C480 C 0.22808 0.15735 0.79746 0.0
C481 C 0.26134 0.15056 0.81902 0.0
C482 C 0.28605 0.11461 0.81587 0.0
C483 C 0.27792 0.08608 0.79152 0.0
H484 H 0.99715 0.8699 0.16337 0.0
H485 H 0.94609 0.77237 0.22175 0.0
H486 H 0.97193 0.92249 0.19999 0.0
H487 H 0.92195 0.82487 0.25887 0.0
H488 H 0.86164 0.93197 0.31142 0.0
H489 H 0.87416 0.88409 0.26758 0.0
H490 H 0.99479 0.94212 0.25349 0.0
H491 H 0.98181 0.99034 0.29656 0.0
C492 C 0.97993 0.85968 0.18371 0.0
C493 C 0.97403 0.81689 0.18981 0.0
C494 C 0.96584 0.88981 0.20487 0.0
C495 C 0.94535 0.87784 0.23252 0.0
C496 C 0.93745 0.83517 0.23773 0.0
C497 C 0.95168 0.80505 0.21664 0.0
C498 C 0.89048 0.93487 0.29859 0.0
C499 C 0.9209 0.9647 0.30762 0.0
C500 C 0.89779 0.90727 0.27367 0.0
C501 C 0.9355 0.90925 0.25709 0.0
C502 C 0.96523 0.94001 0.26551 0.0
C503 C 0.95804 0.96733 0.29049 0.0
loop_
_geom_bond_atom_site_label_1
_geom_bond_atom_site_label_2
_geom_bond_distance
_geom_bond_site_symmetry_2
_ccdc_geom_bond_type
Cu0 N1 1.999 . S
Cu0 O6 1.974 . S
Cu0 N11 1.983 1_655 S
Cu0 O20 1.959 1_655 S
N1 Cu0 1.999 . S
N1 C3 1.263 . S
N1 C5 1.389 . S
N2 C3 1.358 . S
N2 C4 1.400 . S
C3 N1 1.263 . S
C3 N2 1.358 . S
C3 H9 0.930 . S
C4 N2 1.400 . S
C4 C5 1.351 . S
C4 H21 0.930 . S
C5 N1 1.389 . S
C5 C4 1.351 . S
C5 H10 0.930 1_655 S
O6 Cu0 1.974 . S
O6 C16 1.282 . S
C7 O8 1.261 . S
C7 O20 1.251 . S
O8 C7 1.261 . S
H9 C3 0.930 . S
H10 C5 0.930 1_455 S
N11 Cu0 1.983 1_455 S
N11 C13 1.341 . S
N11 C14 1.386 1_455 S
N12 C13 1.345 . S
N12 C15 1.333 1_455 S
C13 N11 1.341 . S
C13 N12 1.345 . S
C13 H18 0.930 . S
C14 N11 1.386 1_655 S
C14 C15 1.349 . S
C14 H19 0.930 . S
C15 N12 1.333 1_655 S
C15 C14 1.349 . S
C15 H22 0.931 . S
C16 O6 1.282 . S
C16 O17 1.216 . S
O17 C16 1.216 . S
H18 C13 0.930 . S
H19 C14 0.930 . S
O20 Cu0 1.959 1_455 S
O20 C7 1.251 . S
H21 C4 0.930 . S
H22 C15 0.931 . S
Cu23 N24 1.999 . S
Cu23 O29 1.974 . S
Cu23 N34 1.985 . S
Cu23 O43 1.959 . S
N24 Cu23 1.999 . S
N24 C26 1.263 . S
N24 C28 1.389 . S
N25 C26 1.358 . S
N25 C27 1.400 . S
C26 N24 1.263 . S
C26 N25 1.358 . S
C26 H32 0.930 . S
C27 N25 1.400 . S
C27 C28 1.351 . S
C27 H44 0.930 . S
C28 N24 1.389 . S
C28 C27 1.351 . S
C28 H33 0.930 . S
O29 Cu23 1.974 . S
O29 C39 1.282 . S
C30 O31 1.261 . S
C30 O43 1.251 . S
O31 C30 1.261 . S
H32 C26 0.930 . S
H33 C28 0.930 . S
N34 Cu23 1.985 . S
N34 C36 1.335 . S
N34 C37 1.390 . S
N35 C36 1.345 . S
N35 C38 1.336 . S
C36 N34 1.335 . S
C36 N35 1.345 . S
C36 H41 0.930 . S
C37 N34 1.390 . S
C37 C38 1.346 . S
C37 H42 0.930 . S
C38 N35 1.336 . S
C38 C37 1.346 . S
C38 H45 0.929 . S
C39 O29 1.282 . S
C39 O40 1.216 . S
O40 C39 1.216 . S
H41 C36 0.930 . S
H42 C37 0.930 . S
O43 Cu23 1.959 . S
O43 C30 1.251 . S
H44 C27 0.930 . S
H45 C38 0.929 . S
Cu46 N47 1.999 . S
Cu46 O52 1.974 . S
Cu46 N57 1.985 . S
Cu46 O66 1.959 . S
N47 Cu46 1.999 . S
N47 C49 1.263 . S
N47 C51 1.389 . S
N48 C49 1.358 . S
N48 C50 1.400 . S
C49 N47 1.263 . S
C49 N48 1.358 . S
C49 H55 0.930 . S
C50 N48 1.400 . S
C50 C51 1.351 . S
C50 H67 0.930 . S
C51 N47 1.389 . S
C51 C50 1.351 . S
C51 H56 0.930 . S
O52 Cu46 1.974 . S
O52 C62 1.282 . S
C53 O54 1.261 . S
C53 O66 1.251 . S
O54 C53 1.261 . S
H55 C49 0.930 . S
H56 C51 0.930 . S
N57 Cu46 1.985 . S
N57 C59 1.335 . S
N57 C60 1.390 . S
N58 C59 1.345 . S
N58 C61 1.336 . S
C59 N57 1.335 . S
C59 N58 1.345 . S
C59 H64 0.930 . S
C60 N57 1.390 . S
C60 C61 1.346 . S
C60 H65 0.930 . S
C61 N58 1.336 . S
C61 C60 1.346 . S
C61 H68 0.929 . S
C62 O52 1.282 . S
C62 O63 1.216 . S
O63 C62 1.216 . S
H64 C59 0.930 . S
H65 C60 0.930 . S
O66 Cu46 1.959 . S
O66 C53 1.251 . S
H67 C50 0.930 . S
H68 C61 0.929 . S
Cu69 N70 1.999 . S
Cu69 O75 1.974 . S
Cu69 N80 1.982 1_545 S
Cu69 O89 1.959 1_545 S
N70 Cu69 1.999 . S
N70 C72 1.263 . S
N70 C74 1.389 . S
N71 C72 1.358 . S
N71 C73 1.400 . S
C72 N70 1.263 . S
C72 N71 1.358 . S
C72 H78 0.930 . S
C73 N71 1.400 . S
C73 C74 1.351 . S
C73 H90 0.930 . S
C74 N70 1.389 . S
C74 C73 1.351 . S
C74 H79 0.930 1_545 S
O75 Cu69 1.974 . S
O75 C85 1.282 . S
C76 O77 1.261 . S
C76 O89 1.251 . S
O77 C76 1.261 . S
H78 C72 0.930 . S
H79 C74 0.930 1_565 S
N80 Cu69 1.982 1_565 S
N80 C82 1.343 . S
N80 C83 1.384 1_565 S
N81 C82 1.345 . S
N81 C84 1.336 1_565 S
C82 N80 1.343 . S
C82 N81 1.345 . S
C82 H87 0.930 . S
C83 N80 1.384 1_545 S
C83 C84 1.346 . S
C83 H88 0.930 . S
C84 N81 1.336 1_545 S
C84 C83 1.346 . S
C84 H91 0.929 . S
C85 O75 1.282 . S
C85 O86 1.216 . S
O86 C85 1.216 . S
H87 C82 0.930 . S
H88 C83 0.930 . S
O89 Cu69 1.959 1_565 S
O89 C76 1.251 . S
H90 C73 0.930 . S
H91 C84 0.929 . S
Cu92 N93 1.999 . S
Cu92 O98 1.974 . S
Cu92 N103 1.985 1_655 S
Cu92 O112 1.959 1_655 S
N93 Cu92 1.999 . S
N93 C95 1.263 . S
N93 C97 1.389 . S
N94 C95 1.358 . S
N94 C96 1.400 . S
C95 N93 1.263 . S
C95 N94 1.358 . S
C95 H101 0.930 . S
C96 N94 1.400 . S
C96 C97 1.351 . S
C96 H113 0.930 . S
C97 N93 1.389 . S
C97 C96 1.351 . S
C97 H102 0.930 . S
O98 Cu92 1.974 . S
O98 C108 1.282 . S
C99 O100 1.261 . S
C99 O112 1.251 . S
O100 C99 1.261 . S
H101 C95 0.930 . S
H102 C97 0.930 . S
N103 Cu92 1.985 1_455 S
N103 C105 1.335 . S
N103 C106 1.390 . S
N104 C105 1.345 . S
N104 C107 1.336 . S
C105 N103 1.335 . S
C105 N104 1.345 . S
C105 H110 0.930 . S
C106 N103 1.390 . S
C106 C107 1.346 . S
C106 H111 0.930 . S
C107 N104 1.336 . S
C107 C106 1.346 . S
C107 H114 0.929 . S
C108 O98 1.282 . S
C108 O109 1.216 1_655 S
O109 C108 1.216 1_455 S
H110 C105 0.930 . S
H111 C106 0.930 . S
O112 Cu92 1.959 1_455 S
O112 C99 1.251 . S
H113 C96 0.930 . S
H114 C107 0.929 . S
Cu115 N116 1.999 . S
Cu115 O121 1.974 . S
Cu115 N126 1.985 . S
Cu115 O135 1.959 . S
N116 Cu115 1.999 . S
N116 C118 1.263 . S
N116 C120 1.389 . S
N117 C118 1.358 . S
N117 C119 1.400 . S
C118 N116 1.263 . S
C118 N117 1.358 . S
C118 H124 0.930 . S
C119 N117 1.400 . S
C119 C120 1.351 . S
C119 H136 0.930 . S
C120 N116 1.389 . S
C120 C119 1.351 . S
C120 H125 0.930 . S
O121 Cu115 1.974 . S
O121 C131 1.282 . S
C122 O123 1.261 . S
C122 O135 1.251 . S
O123 C122 1.261 . S
H124 C118 0.930 . S
H125 C120 0.930 . S
N126 Cu115 1.985 . S
N126 C128 1.335 . S
N126 C129 1.390 . S
N127 C128 1.345 . S
N127 C130 1.336 . S
C128 N126 1.335 . S
C128 N127 1.345 . S
C128 H133 0.930 . S
C129 N126 1.390 . S
C129 C130 1.346 . S
C129 H134 0.930 . S
C130 N127 1.336 . S
C130 C129 1.346 . S
C130 H137 0.929 . S
C131 O121 1.282 . S
C131 O132 1.216 . S
O132 C131 1.216 . S
H133 C128 0.930 . S
H134 C129 0.930 . S
O135 Cu115 1.959 . S
O135 C122 1.251 . S
H136 C119 0.930 . S
H137 C130 0.929 . S
Cu138 N139 1.999 . S
Cu138 O144 1.974 . S
Cu138 N149 1.985 . S
Cu138 O158 1.959 . S
N139 Cu138 1.999 . S
N139 C141 1.263 . S
N139 C143 1.389 . S
N140 C141 1.358 . S
N140 C142 1.400 . S
C141 N139 1.263 . S
C141 N140 1.358 . S
C141 H147 0.930 . S
C142 N140 1.400 . S
C142 C143 1.351 . S
C142 H159 0.930 . S
C143 N139 1.389 . S
C143 C142 1.351 . S
C143 H148 0.930 . S
O144 Cu138 1.974 . S
O144 C154 1.282 . S
C145 O146 1.261 . S
C145 O158 1.251 . S
O146 C145 1.261 . S
H147 C141 0.930 . S
H148 C143 0.930 . S
N149 Cu138 1.985 . S
N149 C151 1.335 . S
N149 C152 1.390 . S
N150 C151 1.345 . S
N150 C153 1.336 . S
C151 N149 1.335 . S
C151 N150 1.345 . S
C151 H156 0.930 . S
C152 N149 1.390 . S
C152 C153 1.346 . S
C152 H157 0.930 . S
C153 N150 1.336 . S
C153 C152 1.346 . S
C153 H160 0.929 . S
C154 O144 1.282 . S
C154 O155 1.216 . S
O155 C154 1.216 . S
H156 C151 0.930 . S
H157 C152 0.930 . S
O158 Cu138 1.959 . S
O158 C145 1.251 . S
H159 C142 0.930 . S
H160 C153 0.929 . S
Cu161 N162 1.999 . S
Cu161 O167 1.974 . S
Cu161 N172 1.985 1_545 S
Cu161 O181 1.958 1_545 S
N162 Cu161 1.999 . S
N162 C164 1.263 . S
N162 C166 1.389 . S
N163 C164 1.358 . S
N163 C165 1.400 . S
C164 N162 1.263 . S
C164 N163 1.358 . S
C164 H170 0.930 . S
C165 N163 1.400 . S
C165 C166 1.351 . S
C165 H182 0.930 . S
C166 N162 1.389 . S
C166 C165 1.351 . S
C166 H171 0.930 . S
O167 Cu161 1.974 . S
O167 C177 1.282 . S
C168 O169 1.261 . S
C168 O181 1.254 . S
O169 C168 1.261 . S
H170 C164 0.930 . S
H171 C166 0.930 . S
N172 Cu161 1.985 1_565 S
N172 C174 1.335 . S
N172 C175 1.390 . S
N173 C174 1.345 . S
N173 C176 1.336 . S
C174 N172 1.335 . S
C174 N173 1.345 . S
C174 H179 0.930 . S
C175 N172 1.390 . S
C175 C176 1.346 . S
C175 H180 0.930 . S
C176 N173 1.336 . S
C176 C175 1.346 . S
C176 H183 0.929 . S
C177 O167 1.282 . S
C177 O178 1.216 1_545 S
O178 C177 1.216 1_565 S
H179 C174 0.930 . S
H180 C175 0.930 . S
O181 Cu161 1.958 1_565 S
O181 C168 1.254 . S
H182 C165 0.930 . S
H183 C176 0.929 . S
H184 C192 0.950 . S
H185 C197 0.950 . S
H186 C194 0.950 . S
H187 C196 0.950 . S
H188 C198 0.950 . S
H189 C200 0.950 . S
H190 C202 0.950 1_556 S
H191 C203 0.950 . S
C192 H184 0.950 . S
C192 C193 1.386 . S
C192 C194 1.391 . S
C193 C192 1.386 . S
C193 C197 1.393 1_655 S
C194 H186 0.950 . S
C194 C192 1.391 . S
C194 C195 1.400 1_655 S
C195 C194 1.400 1_455 S
C195 C196 1.398 . S
C195 C201 1.491 1_556 S
C196 H187 0.950 . S
C196 C195 1.398 . S
C196 C197 1.391 . S
C197 H185 0.950 . S
C197 C193 1.393 1_455 S
C197 C196 1.391 . S
C198 H188 0.950 . S
C198 C199 1.386 . S
C198 C200 1.391 . S
C199 C198 1.386 . S
C199 C203 1.393 1_455 S
C200 H189 0.950 . S
C200 C198 1.391 . S
C200 C201 1.400 . S
C201 C195 1.491 1_554 S
C201 C200 1.400 . S
C201 C202 1.398 1_455 S
C202 H190 0.950 1_554 S
C202 C201 1.398 1_655 S
C202 C203 1.391 . S
C203 H191 0.950 . S
C203 C199 1.393 1_655 S
C203 C202 1.391 . S
H204 C212 0.950 . S
H205 C217 0.950 . S
H206 C214 0.950 . S
H207 C216 0.950 . S
H208 C218 0.950 . S
H209 C220 0.950 . S
H210 C222 0.950 . S
H211 C223 0.950 . S
C212 H204 0.950 . S
C212 C213 1.386 . S
C212 C214 1.391 . S
C213 C212 1.386 . S
C213 C217 1.393 . S
C214 H206 0.950 . S
C214 C212 1.391 . S
C214 C215 1.400 . S
C215 C214 1.400 . S
C215 C216 1.398 . S
C215 C221 1.491 . S
C216 H207 0.950 . S
C216 C215 1.398 . S
C216 C217 1.391 . S
C217 H205 0.950 . S
C217 C213 1.393 . S
C217 C216 1.391 . S
C218 H208 0.950 . S
C218 C219 1.386 . S
C218 C220 1.391 . S
C219 C218 1.386 . S
C219 C223 1.393 . S
C220 H209 0.950 . S
C220 C218 1.391 . S
C220 C221 1.400 . S
C221 C215 1.491 . S
C221 C220 1.400 . S
C221 C222 1.398 . S
C222 H210 0.950 . S
C222 C221 1.398 . S
C222 C223 1.391 . S
C223 H211 0.950 . S
C223 C219 1.393 . S
C223 C222 1.391 . S
H224 C232 0.950 . S
H225 C237 0.950 1_565 S
H226 C234 0.950 1_556 S
H227 C236 0.950 . S
H228 C238 0.950 . S
H229 C240 0.950 . S
H230 C242 0.950 . S
H231 C243 0.950 . S
C232 H224 0.950 . S
C232 C233 1.386 . S
C232 C234 1.391 1_565 S
C233 C232 1.386 . S
C233 C237 1.393 1_565 S
C234 H226 0.950 1_554 S
C234 C232 1.391 1_545 S
C234 C235 1.405 . S
C235 C234 1.405 . S
C235 C236 1.411 . S
C235 C241 1.473 1_554 S
C236 H227 0.950 . S
C236 C235 1.411 . S
C236 C237 1.391 . S
C237 H225 0.950 1_545 S
C237 C233 1.393 1_545 S
C237 C236 1.391 . S
C238 H228 0.950 . S
C238 C239 1.386 . S
C238 C240 1.391 . S
C239 C238 1.386 . S
C239 C243 1.393 . S
C240 H229 0.950 . S
C240 C238 1.391 . S
C240 C241 1.400 . S
C241 C235 1.473 1_556 S
C241 C240 1.400 . S
C241 C242 1.398 . S
C242 H230 0.950 . S
C242 C241 1.398 . S
C242 C243 1.391 . S
C243 H231 0.950 . S
C243 C239 1.393 . S
C243 C242 1.391 . S
H244 C252 0.950 . S
H245 C257 0.950 . S
H246 C254 0.950 . S
H247 C256 0.950 . S
H248 C258 0.950 . S
H249 C260 0.950 . S
H250 C262 0.950 . S
H251 C263 0.947 1_455 S
C252 H244 0.950 . S
C252 C253 1.386 1_565 S
C252 C254 1.391 . S
C253 C252 1.386 1_545 S
C253 C257 1.393 . S
C254 H246 0.950 . S
C254 C252 1.391 . S
C254 C255 1.400 . S
C255 C254 1.400 . S
C255 C256 1.398 1_565 S
C255 C261 1.491 . S
C256 H247 0.950 . S
C256 C255 1.398 1_545 S
C256 C257 1.391 . S
C257 H245 0.950 . S
C257 C253 1.393 . S
C257 C256 1.391 . S
C258 H248 0.950 . S
C258 C259 1.386 1_545 S
C258 C260 1.391 1_455 S
C259 C258 1.386 1_565 S
C259 C263 1.393 1_455 S
C260 H249 0.950 . S
C260 C258 1.391 1_655 S
C260 C261 1.400 1_545 S
C261 C255 1.491 . S
C261 C260 1.400 1_565 S
C261 C262 1.398 . S
C262 H250 0.950 . S
C262 C261 1.398 . S
C262 C263 1.391 . S
C263 H251 0.947 1_655 S
C263 C259 1.393 1_655 S
C263 C262 1.391 . S
H264 C272 0.950 . S
H265 C277 0.950 . S
H266 C274 0.950 . S
H267 C276 0.950 . S
H268 C278 0.950 . S
H269 C280 0.950 . S
H270 C282 0.950 . S
H271 C283 0.950 . S
C272 H264 0.950 . S
C272 C273 1.386 . S
C272 C274 1.391 . S
C273 C272 1.386 . S
C273 C277 1.393 . S
C274 H266 0.950 . S
C274 C272 1.391 . S
C274 C275 1.400 . S
C275 C274 1.400 . S
C275 C276 1.398 . S
C275 C281 1.491 . S
C276 H267 0.950 . S
C276 C275 1.398 . S
C276 C277 1.391 . S
C277 H265 0.950 . S
C277 C273 1.393 . S
C277 C276 1.391 . S
C278 H268 0.950 . S
C278 C279 1.386 . S
C278 C280 1.391 . S
C279 C278 1.386 . S
C279 C283 1.393 . S
C280 H269 0.950 . S
C280 C278 1.391 . S
C280 C281 1.400 . S
C281 C275 1.491 . S
C281 C280 1.400 . S
C281 C282 1.398 . S
C282 H270 0.950 . S
C282 C281 1.398 . S
C282 C283 1.391 . S
C283 H271 0.950 . S
C283 C279 1.393 . S
C283 C282 1.391 . S
H284 C292 0.950 . S
H285 C297 0.950 . S
H286 C294 0.950 . S
H287 C296 0.950 . S
H288 C298 0.950 . S
H289 C300 0.950 . S
H290 C302 0.950 . S
H291 C303 0.950 . S
C292 H284 0.950 . S
C292 C293 1.386 . S
C292 C294 1.391 . S
C293 C292 1.386 . S
C293 C297 1.393 . S
C294 H286 0.950 . S
C294 C292 1.391 . S
C294 C295 1.400 . S
C295 C294 1.400 . S
C295 C296 1.398 . S
C295 C301 1.491 . S
C296 H287 0.950 . S
C296 C295 1.398 . S
C296 C297 1.391 . S
C297 H285 0.950 . S
C297 C293 1.393 . S
C297 C296 1.391 . S
C298 H288 0.950 . S
C298 C299 1.386 . S
C298 C300 1.391 . S
C299 C298 1.386 . S
C299 C303 1.393 . S
C300 H289 0.950 . S
C300 C298 1.391 . S
C300 C301 1.400 . S
C301 C295 1.491 . S
C301 C300 1.400 . S
C301 C302 1.398 . S
C302 H290 0.950 . S
C302 C301 1.398 . S
C302 C303 1.391 . S
C303 H291 0.950 . S
C303 C299 1.393 . S
C303 C302 1.391 . S
H304 C312 0.950 . S
H305 C317 0.950 . S
H306 C314 0.950 . S
H307 C316 0.950 . S
H308 C318 0.950 . S
H309 C320 0.950 . S
H310 C322 0.950 . S
H311 C323 0.950 . S
C312 H304 0.950 . S
C312 C313 1.386 . S
C312 C314 1.391 . S
C313 C312 1.386 . S
C313 C317 1.393 . S
C314 H306 0.950 . S
C314 C312 1.391 . S
C314 C315 1.400 . S
C315 C314 1.400 . S
C315 C316 1.398 . S
C315 C321 1.491 . S
C316 H307 0.950 . S
C316 C315 1.398 . S
C316 C317 1.391 . S
C317 H305 0.950 . S
C317 C313 1.393 . S
C317 C316 1.391 . S
C318 H308 0.950 . S
C318 C319 1.386 . S
C318 C320 1.391 . S
C319 C318 1.386 . S
C319 C323 1.393 . S
C320 H309 0.950 . S
C320 C318 1.391 . S
C320 C321 1.400 . S
C321 C315 1.491 . S
C321 C320 1.400 . S
C321 C322 1.398 . S
C322 H310 0.950 . S
C322 C321 1.398 . S
C322 C323 1.391 . S
C323 H311 0.950 . S
C323 C319 1.393 . S
C323 C322 1.391 . S
H324 C332 0.950 . S
H325 C337 0.950 . S
H326 C334 0.950 . S
H327 C336 0.950 . S
H328 C338 0.950 . S
H329 C340 0.950 . S
H330 C342 0.950 . S
H331 C343 0.950 . S
C332 H324 0.950 . S
C332 C333 1.386 . S
C332 C334 1.391 . S
C333 C332 1.386 . S
C333 C337 1.393 . S
C334 H326 0.950 . S
C334 C332 1.391 . S
C334 C335 1.400 . S
C335 C334 1.400 . S
C335 C336 1.398 . S
C335 C341 1.491 . S
C336 H327 0.950 . S
C336 C335 1.398 . S
C336 C337 1.391 . S
C337 H325 0.950 . S
C337 C333 1.393 . S
C337 C336 1.391 . S
C338 H328 0.950 . S
C338 C339 1.386 . S
C338 C340 1.391 . S
C339 C338 1.386 . S
C339 C343 1.393 . S
C340 H329 0.950 . S
C340 C338 1.391 . S
C340 C341 1.400 . S
C341 C335 1.491 . S
C341 C340 1.400 . S
C341 C342 1.398 . S
C342 H330 0.950 . S
C342 C341 1.398 . S
C342 C343 1.391 . S
C343 H331 0.950 . S
C343 C339 1.393 . S
C343 C342 1.391 . S
H344 C352 0.950 . S
H345 C357 0.950 . S
H346 C354 0.950 . S
H347 C356 0.950 . S
H348 C358 0.950 . S
H349 C360 0.950 . S
H350 C362 0.950 . S
H351 C363 0.950 . S
C352 H344 0.950 . S
C352 C353 1.386 . S
C352 C354 1.391 . S
C353 C352 1.386 . S
C353 C357 1.393 . S
C354 H346 0.950 . S
C354 C352 1.391 . S
C354 C355 1.400 . S
C355 C354 1.400 . S
C355 C356 1.398 . S
C355 C361 1.491 . S
C356 H347 0.950 . S
C356 C355 1.398 . S
C356 C357 1.391 . S
C357 H345 0.950 . S
C357 C353 1.393 . S
C357 C356 1.391 . S
C358 H348 0.950 . S
C358 C359 1.386 . S
C358 C360 1.391 . S
C359 C358 1.386 . S
C359 C363 1.393 . S
C360 H349 0.950 . S
C360 C358 1.391 . S
C360 C361 1.400 . S
C361 C355 1.491 . S
C361 C360 1.400 . S
C361 C362 1.398 . S
C362 H350 0.950 . S
C362 C361 1.398 . S
C362 C363 1.391 . S
C363 H351 0.950 . S
C363 C359 1.393 . S
C363 C362 1.391 . S
H364 C372 0.950 . S
H365 C377 0.950 . S
H366 C374 0.950 . S
H367 C376 0.950 . S
H368 C378 0.950 . S
H369 C380 0.950 . S
H370 C382 0.950 . S
H371 C383 0.950 . S
C372 H364 0.950 . S
C372 C373 1.386 . S
C372 C374 1.391 . S
C373 C372 1.386 . S
C373 C377 1.393 . S
C374 H366 0.950 . S
C374 C372 1.391 . S
C374 C375 1.400 . S
C375 C374 1.400 . S
C375 C376 1.398 . S
C375 C381 1.491 . S
C376 H367 0.950 . S
C376 C375 1.398 . S
C376 C377 1.391 . S
C377 H365 0.950 . S
C377 C373 1.393 . S
C377 C376 1.391 . S
C378 H368 0.950 . S
C378 C379 1.386 . S
C378 C380 1.391 . S
C379 C378 1.386 . S
C379 C383 1.393 . S
C380 H369 0.950 . S
C380 C378 1.391 . S
C380 C381 1.400 . S
C381 C375 1.491 . S
C381 C380 1.400 . S
C381 C382 1.398 . S
C382 H370 0.950 . S
C382 C381 1.398 . S
C382 C383 1.391 . S
C383 H371 0.950 . S
C383 C379 1.393 . S
C383 C382 1.391 . S
H384 C392 0.950 . S
H385 C397 0.950 . S
H386 C394 0.950 . S
H387 C396 0.950 . S
H388 C398 0.950 1_545 S
H389 C400 0.935 1_545 S
H390 C402 0.950 . S
H391 C403 0.950 . S
C392 H384 0.950 . S
C392 C393 1.386 . S
C392 C394 1.391 . S
C393 C392 1.386 . S
C393 C397 1.393 . S
C394 H386 0.950 . S
C394 C392 1.391 . S
C394 C395 1.400 . S
C395 C394 1.400 . S
C395 C396 1.398 . S
C395 C401 1.491 . S
C396 H387 0.950 . S
C396 C395 1.398 . S
C396 C397 1.391 . S
C397 H385 0.950 . S
C397 C393 1.393 . S
C397 C396 1.391 . S
C398 H388 0.950 1_565 S
C398 C399 1.386 . S
C398 C400 1.391 . S
C399 C398 1.386 . S
C399 C403 1.393 . S
C400 H389 0.935 1_565 S
C400 C398 1.391 . S
C400 C401 1.400 . S
C401 C395 1.491 . S
C401 C400 1.400 . S
C401 C402 1.398 . S
C402 H390 0.950 . S
C402 C401 1.398 . S
C402 C403 1.391 . S
C403 H391 0.950 . S
C403 C399 1.393 . S
C403 C402 1.391 . S
H404 C412 0.950 . S
H405 C417 0.950 . S
H406 C414 0.950 . S
H407 C416 0.950 . S
H408 C418 0.950 . S
H409 C420 0.950 . S
H410 C422 0.950 . S
H411 C423 0.950 . S
C412 H404 0.950 . S
C412 C413 1.386 . S
C412 C414 1.391 . S
C413 C412 1.386 . S
C413 C417 1.393 . S
C414 H406 0.950 . S
C414 C412 1.391 . S
C414 C415 1.400 . S
C415 C414 1.400 . S
C415 C416 1.398 . S
C415 C421 1.491 . S
C416 H407 0.950 . S
C416 C415 1.398 . S
C416 C417 1.391 . S
C417 H405 0.950 . S
C417 C413 1.393 . S
C417 C416 1.391 . S
C418 H408 0.950 . S
C418 C419 1.386 . S
C418 C420 1.391 . S
C419 C418 1.386 . S
C419 C423 1.393 . S
C420 H409 0.950 . S
C420 C418 1.391 . S
C420 C421 1.400 . S
C421 C415 1.491 . S
C421 C420 1.400 . S
C421 C422 1.398 . S
C422 H410 0.950 . S
C422 C421 1.398 . S
C422 C423 1.391 . S
C423 H411 0.950 . S
C423 C419 1.393 . S
C423 C422 1.391 . S
H424 C432 0.950 . S
H425 C437 0.950 . S
H426 C434 0.950 . S
H427 C436 0.950 . S
H428 C438 0.950 . S
H429 C440 0.950 . S
H430 C442 0.950 . S
H431 C443 0.950 . S
C432 H424 0.950 . S
C432 C433 1.386 . S
C432 C434 1.391 . S
C433 C432 1.386 . S
C433 C437 1.393 . S
C434 H426 0.950 . S
C434 C432 1.391 . S
C434 C435 1.400 . S
C435 C434 1.400 . S
C435 C436 1.398 . S
C435 C441 1.491 . S
C436 H427 0.950 . S
C436 C435 1.398 . S
C436 C437 1.391 . S
C437 H425 0.950 . S
C437 C433 1.393 . S
C437 C436 1.391 . S
C438 H428 0.950 . S
C438 C439 1.386 . S
C438 C440 1.391 . S
C439 C438 1.386 . S
C439 C443 1.393 . S
C440 H429 0.950 . S
C440 C438 1.391 . S
C440 C441 1.400 . S
C441 C435 1.491 . S
C441 C440 1.400 . S
C441 C442 1.398 . S
C442 H430 0.950 . S
C442 C441 1.398 . S
C442 C443 1.391 . S
C443 H431 0.950 . S
C443 C439 1.393 . S
C443 C442 1.391 . S
H444 C452 0.950 . S
H445 C457 0.950 . S
H446 C454 0.950 . S
H447 C456 0.950 . S
H448 C458 0.950 . S
H449 C460 0.950 . S
H450 C462 0.950 . S
H451 C463 0.950 . S
C452 H444 0.950 . S
C452 C453 1.386 . S
C452 C454 1.391 . S
C453 C452 1.386 . S
C453 C457 1.393 . S
C454 H446 0.950 . S
C454 C452 1.391 . S
C454 C455 1.400 . S
C455 C454 1.400 . S
C455 C456 1.398 . S
C455 C461 1.491 . S
C456 H447 0.950 . S
C456 C455 1.398 . S
C456 C457 1.391 . S
C457 H445 0.950 . S
C457 C453 1.393 . S
C457 C456 1.391 . S
C458 H448 0.950 . S
C458 C459 1.386 . S
C458 C460 1.391 . S
C459 C458 1.386 . S
C459 C463 1.393 . S
C460 H449 0.950 . S
C460 C458 1.391 . S
C460 C461 1.400 . S
C461 C455 1.491 . S
C461 C460 1.400 . S
C461 C462 1.398 . S
C462 H450 0.950 . S
C462 C461 1.398 . S
C462 C463 1.391 . S
C463 H451 0.950 . S
C463 C459 1.393 . S
C463 C462 1.391 . S
H464 C472 0.950 . S
H465 C477 0.950 . S
H466 C474 0.950 . S
H467 C476 0.950 . S
H468 C478 0.950 . S
H469 C480 0.950 . S
H470 C482 0.950 . S
H471 C483 0.950 . S
C472 H464 0.950 . S
C472 C473 1.386 . S
C472 C474 1.391 . S
C473 C472 1.386 . S
C473 C477 1.393 . S
C474 H466 0.950 . S
C474 C472 1.391 . S
C474 C475 1.400 . S
C475 C474 1.400 . S
C475 C476 1.398 . S
C475 C481 1.491 . S
C476 H467 0.950 . S
C476 C475 1.398 . S
C476 C477 1.391 . S
C477 H465 0.950 . S
C477 C473 1.393 . S
C477 C476 1.391 . S
C478 H468 0.950 . S
C478 C479 1.386 . S
C478 C480 1.391 . S
C479 C478 1.386 . S
C479 C483 1.393 . S
C480 H469 0.950 . S
C480 C478 1.391 . S
C480 C481 1.400 . S
C481 C475 1.491 . S
C481 C480 1.400 . S
C481 C482 1.398 . S
C482 H470 0.950 . S
C482 C481 1.398 . S
C482 C483 1.391 . S
C483 H471 0.950 . S
C483 C479 1.393 . S
C483 C482 1.391 . S
H484 C492 0.950 . S
H485 C497 0.950 . S
H486 C494 0.950 . S
H487 C496 0.950 . S
H488 C498 0.950 . S
H489 C500 0.950 . S
H490 C502 0.950 . S
H491 C503 0.950 . S
C492 H484 0.950 . S
C492 C493 1.386 . S
C492 C494 1.391 . S
C493 C492 1.386 . S
C493 C497 1.393 . S
C494 H486 0.950 . S
C494 C492 1.391 . S
C494 C495 1.400 . S
C495 C494 1.400 . S
C495 C496 1.398 . S
C495 C501 1.491 . S
C496 H487 0.950 . S
C496 C495 1.398 . S
C496 C497 1.391 . S
C497 H485 0.950 . S
C497 C493 1.393 . S
C497 C496 1.391 . S
C498 H488 0.950 . S
C498 C499 1.386 . S
C498 C500 1.391 . S
C499 C498 1.386 . S
C499 C503 1.393 . S
C500 H489 0.950 . S
C500 C498 1.391 . S
C500 C501 1.400 . S
C501 C495 1.491 . S
C501 C500 1.400 . S
C501 C502 1.398 . S
C502 H490 0.950 . S
C502 C501 1.398 . S
C502 C503 1.391 . S
C503 H491 0.950 . S
C503 C499 1.393 . S
C503 C502 1.391 . S
C193 C108 1.863 . S
C199 N12 1.793 . S
C213 N35 1.749 . S
C219 C131 1.829 . S
C233 N58 1.714 . S
C239 C154 1.784 . S
C253 C177 1.809 . S
C259 N81 1.724 . S
C273 C7 2.693 . S
C279 C53 2.704 . S
C293 C30 2.698 . S
C299 C76 2.703 . S
C313 N140 1.908 . S
C319 N94 1.880 . S
C333 N117 1.892 . S
C339 N163 1.896 . S
C353 C122 1.698 . S
C359 C16 1.636 . S
C373 C39 1.658 . S
C379 C145 1.732 . S
C393 C62 1.620 . S
C399 C168 1.690 . S
C413 C99 1.654 . S
C419 C85 1.590 . S
C433 N104 1.160 . S
C439 N25 1.223 . S
C453 N127 1.214 . S
C459 N48 1.273 . S
C473 N150 1.223 . S
C479 N71 1.260 . S
C493 N2 1.202 . S
C499 N173 1.153 . S
