# Generated by pormake.
# Topology acs-i, (5)-cn, num edge types: 1
# Building blocks:
#     Node 0, Type 0, BuildingBlock: BEQFEK_clean_sbu_0, # of connection points: 5
#     Node 1, Type 0, BuildingBlock: BEQFEK_clean_sbu_0, # of connection points: 5
#     Node 2, Type 0, BuildingBlock: BEQFEK_clean_sbu_0, # of connection points: 5
#     Node 3, Type 0, BuildingBlock: BEQFEK_clean_sbu_0, # of connection points: 5
#     Node 4, Type 0, BuildingBlock: BEQFEK_clean_sbu_0, # of connection points: 5
#     Node 5, Type 0, BuildingBlock: BEQFEK_clean_sbu_0, # of connection points: 5
#     Node 6, Type 0, BuildingBlock: BEQFEK_clean_sbu_0, # of connection points: 5
#     Node 7, Type 0, BuildingBlock: BEQFEK_clean_sbu_0, # of connection points: 5
#     Node 8, Type 0, BuildingBlock: BEQFEK_clean_sbu_0, # of connection points: 5
#     Node 9, Type 0, BuildingBlock: BEQFEK_clean_sbu_0, # of connection points: 5
#     Node 10, Type 0, BuildingBlock: BEQFEK_clean_sbu_0, # of connection points: 5
#     Node 11, Type 0, BuildingBlock: BEQFEK_clean_sbu_0, # of connection points: 5
#     Edge 12, Type (0, 0), BuildingBlock: XIVTED_clean_linker_0, # of connection points: 2
#     Edge 13, Type (0, 0), BuildingBlock: XIVTED_clean_linker_0, # of connection points: 2
#     Edge 14, Type (0, 0), BuildingBlock: XIVTED_clean_linker_0, # of connection points: 2
#     Edge 15, Type (0, 0), BuildingBlock: XIVTED_clean_linker_0, # of connection points: 2
#     Edge 16, Type (0, 0), BuildingBlock: XIVTED_clean_linker_0, # of connection points: 2
#     Edge 17, Type (0, 0), BuildingBlock: XIVTED_clean_linker_0, # of connection points: 2
#     Edge 18, Type (0, 0), BuildingBlock: XIVTED_clean_linker_0, # of connection points: 2
#     Edge 19, Type (0, 0), BuildingBlock: XIVTED_clean_linker_0, # of connection points: 2
#     Edge 20, Type (0, 0), BuildingBlock: XIVTED_clean_linker_0, # of connection points: 2
#     Edge 21, Type (0, 0), BuildingBlock: XIVTED_clean_linker_0, # of connection points: 2
#     Edge 22, Type (0, 0), BuildingBlock: XIVTED_clean_linker_0, # of connection points: 2
#     Edge 23, Type (0, 0), BuildingBlock: XIVTED_clean_linker_0, # of connection points: 2
#     Edge 24, Type (0, 0), BuildingBlock: XIVTED_clean_linker_0, # of connection points: 2
#     Edge 25, Type (0, 0), BuildingBlock: XIVTED_clean_linker_0, # of connection points: 2
#     Edge 26, Type (0, 0), BuildingBlock: XIVTED_clean_linker_0, # of connection points: 2
#     Edge 27, Type (0, 0), BuildingBlock: XIVTED_clean_linker_0, # of connection points: 2
#     Edge 28, Type (0, 0), BuildingBlock: XIVTED_clean_linker_0, # of connection points: 2
#     Edge 29, Type (0, 0), BuildingBlock: XIVTED_clean_linker_0, # of connection points: 2
#     Edge 30, Type (0, 0), BuildingBlock: XIVTED_clean_linker_0, # of connection points: 2
#     Edge 31, Type (0, 0), BuildingBlock: XIVTED_clean_linker_0, # of connection points: 2
#     Edge 32, Type (0, 0), BuildingBlock: XIVTED_clean_linker_0, # of connection points: 2
#     Edge 33, Type (0, 0), BuildingBlock: XIVTED_clean_linker_0, # of connection points: 2
#     Edge 34, Type (0, 0), BuildingBlock: XIVTED_clean_linker_0, # of connection points: 2
#     Edge 35, Type (0, 0), BuildingBlock: XIVTED_clean_linker_0, # of connection points: 2
#     Edge 36, Type (0, 0), BuildingBlock: XIVTED_clean_linker_0, # of connection points: 2
#     Edge 37, Type (0, 0), BuildingBlock: XIVTED_clean_linker_0, # of connection points: 2
#     Edge 38, Type (0, 0), BuildingBlock: XIVTED_clean_linker_0, # of connection points: 2
#     Edge 39, Type (0, 0), BuildingBlock: XIVTED_clean_linker_0, # of connection points: 2
#     Edge 40, Type (0, 0), BuildingBlock: XIVTED_clean_linker_0, # of connection points: 2
#     Edge 41, Type (0, 0), BuildingBlock: XIVTED_clean_linker_0, # of connection points: 2
# Relax obj value: 1.292
# Max RMSD: 0.216
# Mean RMSD: 0.205
data_MOF--net-acs-i--node1-BEQFEK_clean_sbu_0--edge1-XIVTED_clean_linker_0
_symmetry_space_group_name_H-M    P1
_symmetry_Int_Tables_number       1
_symmetry_cell_setting            triclinic
loop_
_symmetry_equiv_pos_as_xyz
'x, y, z'
_cell_length_a     38.472806
_cell_length_b     45.400808
_cell_length_c     31.489095
_cell_angle_alpha  90.228076
_cell_angle_beta   89.961432
_cell_angle_gamma 114.94685
loop_
_atom_site_label
_atom_site_type_symbol
_atom_site_fract_x
_atom_site_fract_y
_atom_site_fract_z
_atom_type_partial_charge
Co0 Co 0.27397 0.44991 0.99833 0.0
Co1 Co 0.1852 0.43181 0.99168 0.0
C2 C 0.24681 0.49754 0.9666 0.0
O3 O 0.27432 0.49119 0.97899 0.0
O4 O 0.21219 0.47672 0.96977 0.0
C5 C 0.34802 0.48482 0.03017 0.0
O6 O 0.33168 0.50402 0.04077 0.0
C7 C 0.12402 0.44848 0.01829 0.0
C8 C 0.07099 0.40398 0.00796 0.0
C9 C 0.08466 0.43537 0.02401 0.0
N10 N 0.13332 0.42607 -0.0002 0.0
N11 N 0.10143 0.3996 0.99303 0.0
C12 C 0.15301 0.48028 0.03517 0.0
H13 H 0.18057 0.47886 0.04175 0.0
H14 H 0.14266 0.48728 0.06475 0.0
H15 H 0.15808 0.49942 0.01107 0.0
C16 C 0.25162 0.42988 0.08812 0.0
N17 N 0.24287 0.43356 0.0475 0.0
N18 N 0.20597 0.42624 0.04489 0.0
C19 C 0.19038 0.41807 0.084 0.0
C20 C 0.21878 0.42045 0.1127 0.0
C21 C 0.29129 0.4381 0.10397 0.0
H22 H 0.30703 0.42985 0.08086 0.0
H23 H 0.30648 0.46477 0.10816 0.0
H24 H 0.29108 0.42668 0.13502 0.0
O25 O 0.25418 0.4205 0.94902 0.0
O26 O 0.19068 0.40367 0.94536 0.0
H27 H 0.13063 0.39231 0.06916 0.0
H28 H 0.14148 0.39521 0.12518 0.0
C29 C 0.14905 0.40829 0.09444 0.0
H30 H 0.14352 0.43028 0.09713 0.0
H31 H 0.10059 0.37819 0.9799 0.0
O32 O 0.32846 0.45864 0.01015 0.0
C33 C 0.22199 0.40413 0.93102 0.0
Co34 Co 0.0209 0.42218 0.86204 0.0
Co35 Co -0.00265 0.3657 0.79463 0.0
C36 C 0.0042 0.4319 0.77116 0.0
O37 O 0.01273 0.44299 0.80888 0.0
O38 O -0.00212 0.40274 0.76228 0.0
C39 C 0.02668 0.47963 0.90811 0.0
O40 O 0.03496 0.49405 0.871 0.0
C41 C 0.9547 0.32306 0.72547 0.0
C42 C 0.97501 0.28424 0.7269 0.0
C43 C 0.9513 0.2949 0.7049 0.0
N44 N 0.97966 0.32903 0.75766 0.0
N45 N 0.99188 0.30585 0.75828 0.0
C46 C 0.93231 0.34258 0.71715 0.0
H47 H 0.93114 0.35617 0.74606 0.0
H48 H 0.9027 0.32658 0.70682 0.0
H49 H 0.94645 0.36024 0.69148 0.0
C50 C 0.95306 0.37152 0.90514 0.0
N51 N 0.9779 0.38159 0.87241 0.0
N52 N 0.96738 0.35839 0.8436 0.0
C53 C 0.9356 0.33298 0.85681 0.0
C54 C 0.92544 0.3405 0.89635 0.0
C55 C 0.95632 0.3909 0.94462 0.0
H56 H 0.98604 0.4001 0.957 0.0
H57 H 0.95001 0.41195 0.93682 0.0
H58 H 0.93626 0.3762 0.96964 0.0
O59 O 0.0697 0.4166 0.85588 0.0
O60 O 0.04973 0.375 0.81063 0.0
H61 H 0.93262 0.29022 0.82519 0.0
H62 H 0.88697 0.28656 0.84548 0.0
C63 C 0.91421 0.30322 0.8305 0.0
H64 H 0.90752 0.31049 0.79913 0.0
H65 H 0.0117 0.30478 0.78011 0.0
O66 O 0.02333 0.45065 0.9112 0.0
C67 C 0.07574 0.3955 0.83396 0.0
Co68 Co 0.36022 0.82906 0.01213 0.0
Co69 Co 0.34334 0.79318 0.92468 0.0
C70 C 0.28106 0.79289 0.98477 0.0
O71 O 0.30499 0.80912 0.01304 0.0
O72 O 0.29179 0.78545 0.94959 0.0
C73 C 0.36648 0.87381 0.07551 0.0
O74 O 0.34057 0.87734 0.05153 0.0
C75 C 0.31022 0.73117 0.88462 0.0
C76 C 0.33951 0.73786 0.82276 0.0
C77 C 0.31353 0.71454 0.84916 0.0
N78 N 0.33265 0.76283 0.87949 0.0
N79 N 0.34954 0.76696 0.84201 0.0
C80 C 0.29149 0.71657 0.92589 0.0
H81 H 0.26017 0.70916 0.9232 0.0
H82 H 0.30297 0.73416 0.95238 0.0
H83 H 0.29609 0.69458 0.93327 0.0
C84 C 0.40447 0.7911 0.02593 0.0
N85 N 0.3805 0.79892 0.00247 0.0
N86 N 0.37512 0.78439 0.96526 0.0
C87 C 0.39605 0.76681 0.96389 0.0
C88 C 0.4153 0.77058 0.00229 0.0
C89 C 0.41706 0.80361 0.06994 0.0
H90 H 0.3923 0.80334 0.08828 0.0
H91 H 0.42948 0.78883 0.08673 0.0
H92 H 0.43893 0.82913 0.06813 0.0
O93 O 0.37699 0.86116 0.96815 0.0
O94 O 0.37013 0.83894 0.90385 0.0
H95 H 0.40282 0.76392 0.89665 0.0
H96 H 0.42639 0.74435 0.92787 0.0
C97 C 0.40056 0.74927 0.92544 0.0
H98 H 0.37505 0.72575 0.92226 0.0
H99 H 0.36982 0.78922 0.83088 0.0
O100 O 0.3792 0.85315 0.06507 0.0
C101 C 0.38041 0.86368 0.92817 0.0
Co102 Co 0.75807 0.5431 0.48387 0.0
Co103 Co 0.8454 0.55695 0.49323 0.0
C104 C 0.78775 0.49773 0.44727 0.0
O105 O 0.75983 0.50521 0.45418 0.0
O106 O 0.82142 0.51564 0.46053 0.0
C107 C 0.67643 0.51962 0.46518 0.0
O108 O 0.68329 0.5042 0.43316 0.0
C109 C 0.90293 0.5383 0.52793 0.0
C110 C 0.95501 0.58447 0.53081 0.0
C111 C 0.94061 0.55196 0.54204 0.0
N112 N 0.89534 0.56158 0.50951 0.0
N113 N 0.92684 0.58902 0.51044 0.0
C114 C 0.87294 0.50484 0.537 0.0
H115 H 0.84384 0.50418 0.53509 0.0
H116 H 0.87724 0.49669 0.56896 0.0
H117 H 0.87517 0.48771 0.51309 0.0
C118 C 0.76314 0.54551 0.577 0.0
N119 N 0.77927 0.54751 0.53858 0.0
N120 N 0.81603 0.55492 0.54315 0.0
C121 C 0.8245 0.55836 0.58504 0.0
C122 C 0.79125 0.5524 0.60772 0.0
C123 C 0.72115 0.53537 0.58394 0.0
H124 H 0.71372 0.55555 0.5746 0.0
H125 H 0.70448 0.51404 0.5636 0.0
H126 H 0.71291 0.52898 0.61756 0.0
O127 O 0.78706 0.58312 0.45171 0.0
O128 O 0.84903 0.59347 0.45589 0.0
H129 H 0.8853 0.58705 0.58233 0.0
H130 H 0.86578 0.5796 0.63538 0.0
C131 C 0.86385 0.56887 0.60326 0.0
H132 H 0.87056 0.54749 0.60607 0.0
H133 H 0.92847 0.61118 0.49938 0.0
O134 O 0.70398 0.53741 0.4891 0.0
C135 C 0.82211 0.60053 0.4429 0.0
Co136 Co 0.96853 0.5698 0.30987 0.0
Co137 Co 0.99622 0.62324 0.23915 0.0
C138 C 0.9883 0.55568 0.22172 0.0
O139 O 0.97777 0.54622 0.25964 0.0
O140 O 0.99579 0.58459 0.2104 0.0
C141 C 0.9563 0.51359 0.3624 0.0
O142 O 0.94869 0.49708 0.32661 0.0
C143 C 0.04146 0.6635 0.1698 0.0
C144 C 0.02148 0.7025 0.16705 0.0
C145 C 0.04568 0.69108 0.14746 0.0
N146 N 0.01557 0.65859 0.20066 0.0
N147 N 0.00355 0.68187 0.1988 0.0
C148 C 0.06389 0.64362 0.16455 0.0
H149 H 0.0639 0.63084 0.19451 0.0
H150 H 0.09388 0.65922 0.15518 0.0
H151 H 0.05052 0.62524 0.13924 0.0
C152 C 0.03465 0.62169 0.35447 0.0
N153 N 0.01225 0.61005 0.31989 0.0
N154 N 0.02451 0.63203 0.28973 0.0
C155 C 0.05502 0.65823 0.30391 0.0
C156 C 0.06245 0.6526 0.34551 0.0
C157 C 0.02779 0.60444 0.39615 0.0
H158 H -0.0027 0.59628 0.40528 0.0
H159 H 0.03375 0.58267 0.39276 0.0
H160 H 0.0461 0.62023 0.42174 0.0
O161 O 0.9214 0.57739 0.30055 0.0
O162 O 0.94417 0.61656 0.25239 0.0
H163 H 0.05886 0.70072 0.27137 0.0
H164 H 0.10401 0.70429 0.2932 0.0
C165 C 0.07702 0.68762 0.27754 0.0
H166 H 0.08419 0.67997 0.24656 0.0
H167 H 0.98315 0.68367 0.2192 0.0
O168 O 0.96256 0.54337 0.36174 0.0
C169 C 0.91732 0.59825 0.27646 0.0
Co170 Co 0.65424 0.14548 0.51563 0.0
Co171 Co 0.67777 0.18697 0.43655 0.0
C172 C 0.72987 0.19039 0.51466 0.0
O173 O 0.70211 0.17389 0.53902 0.0
O174 O 0.72463 0.19457 0.47521 0.0
C175 C 0.64076 0.09333 0.57153 0.0
O176 O 0.67578 0.09846 0.56045 0.0
C177 C 0.71469 0.25171 0.40328 0.0
C178 C 0.69584 0.24704 0.33642 0.0
C179 C 0.71671 0.26954 0.3671 0.0
N180 N 0.694 0.22014 0.39452 0.0
N181 N 0.68322 0.21734 0.35429 0.0
C182 C 0.7274 0.26475 0.4471 0.0
H183 H 0.71169 0.24635 0.47142 0.0
H184 H 0.72268 0.28694 0.45275 0.0
H185 H 0.75851 0.27141 0.45031 0.0
C186 C 0.59835 0.17479 0.52201 0.0
N187 N 0.62735 0.17099 0.50256 0.0
N188 N 0.63929 0.19102 0.47025 0.0
C189 C 0.61768 0.20784 0.46748 0.0
C190 C 0.59119 0.19831 0.50043 0.0
C191 C 0.57951 0.15738 0.56173 0.0
H192 H 0.55707 0.13306 0.55311 0.0
H193 H 0.60085 0.15383 0.58225 0.0
H194 H 0.566 0.17096 0.57952 0.0
O195 O 0.67261 0.13012 0.46618 0.0
O196 O 0.64856 0.1421 0.41137 0.0
H197 H 0.62439 0.22044 0.40149 0.0
H198 H 0.59386 0.23481 0.43006 0.0
C199 C 0.62018 0.23058 0.43211 0.0
H200 H 0.64508 0.25419 0.43765 0.0
H201 H 0.66567 0.19538 0.33966 0.0
O202 O 0.62532 0.11021 0.5547 0.0
C203 C 0.64933 0.12033 0.4359 0.0
Co204 Co 0.62613 0.63242 0.20679 0.0
Co205 Co 0.64065 0.69405 0.26317 0.0
C206 C 0.59185 0.62636 0.29352 0.0
O207 O 0.59575 0.61348 0.25892 0.0
O208 O 0.60771 0.657 0.29889 0.0
C209 C 0.59437 0.56727 0.17444 0.0
O210 O 0.59614 0.55966 0.21434 0.0
C211 C 0.61852 0.73635 0.31543 0.0
C212 C 0.66824 0.78401 0.31024 0.0
C213 C 0.63213 0.76851 0.32814 0.0
N214 N 0.64538 0.73284 0.29137 0.0
N215 N 0.67525 0.76134 0.28873 0.0
C216 C 0.57901 0.71016 0.32195 0.0
H217 H 0.57094 0.69243 0.29536 0.0
H218 H 0.55764 0.72056 0.32435 0.0
H219 H 0.57843 0.69723 0.35193 0.0
C220 C 0.59643 0.66731 0.14827 0.0
N221 N 0.61378 0.66565 0.18478 0.0
N222 N 0.6195 0.69135 0.20818 0.0
C223 C 0.60604 0.71026 0.18724 0.0
C224 C 0.59089 0.69558 0.14857 0.0
C225 C 0.58503 0.64202 0.114 0.0
H226 H 0.60979 0.63662 0.10586 0.0
H227 H 0.56154 0.61935 0.12578 0.0
H228 H 0.57536 0.65011 0.08491 0.0
O229 O 0.68121 0.64903 0.22216 0.0
O230 O 0.69139 0.69314 0.26073 0.0
H231 H 0.63353 0.75766 0.21496 0.0
H232 H 0.59172 0.75177 0.18381 0.0
C233 C 0.60427 0.74 0.20591 0.0
H234 H 0.58638 0.73319 0.2349 0.0
H235 H 0.69998 0.76548 0.27136 0.0
O236 O 0.61019 0.59699 0.16378 0.0
C237 C 0.70327 0.67336 0.24434 0.0
Co238 Co 0.75356 0.51241 0.04115 0.0
Co239 Co 0.67227 0.5126 0.02904 0.0
C240 C 0.68319 0.45403 0.06148 0.0
O241 O 0.71958 0.46751 0.05806 0.0
O242 O 0.66283 0.46898 0.05151 0.0
C243 C 0.82394 0.50521 0.06261 0.0
O244 O 0.80417 0.48524 0.09276 0.0
C245 C 0.59841 0.48574 0.98776 0.0
C246 C 0.58042 0.52595 0.98902 0.0
C247 C 0.57025 0.49476 0.97357 0.0
N248 N 0.62407 0.51036 0.01048 0.0
N249 N 0.61281 0.53413 0.01197 0.0
C250 C 0.60416 0.45634 0.9746 0.0
H251 H 0.5883 0.43619 0.99678 0.0
H252 H 0.63499 0.46145 0.97572 0.0
H253 H 0.59312 0.44844 0.94202 0.0
C254 C 0.75939 0.52841 0.95049 0.0
N255 N 0.7401 0.52223 0.98743 0.0
N256 N 0.70694 0.52363 0.98185 0.0
C257 C 0.70431 0.53108 0.94076 0.0
C258 C 0.73736 0.53405 0.91957 0.0
C259 C 0.79882 0.52993 0.94555 0.0
H260 H 0.81859 0.54876 0.96738 0.0
H261 H 0.79855 0.50623 0.95457 0.0
H262 H 0.80987 0.53619 0.91275 0.0
O263 O 0.74918 0.54209 0.0838 0.0
O264 O 0.6924 0.54386 0.07706 0.0
H265 H 0.65944 0.54725 0.94265 0.0
H266 H 0.67612 0.54477 0.88982 0.0
C267 C 0.66988 0.53318 0.92148 0.0
H268 H 0.64688 0.50837 0.9175 0.0
H269 H 0.62833 0.55658 0.02654 0.0
O270 O 0.80774 0.51846 0.03917 0.0
C271 C 0.7248 0.55266 0.09527 0.0
Co272 Co 0.40225 0.88411 0.44568 0.0
Co273 Co 0.40636 0.85383 0.53345 0.0
C274 C 0.45459 0.85253 0.45771 0.0
O275 O 0.43989 0.86652 0.43346 0.0
O276 O 0.4443 0.8467 0.49633 0.0
C277 C 0.422 0.92207 0.37311 0.0
O278 O 0.456 0.93177 0.39078 0.0
C279 C 0.39542 0.79503 0.57586 0.0
C280 C 0.38393 0.80228 0.64282 0.0
C281 C 0.38569 0.77947 0.61451 0.0
N282 N 0.39981 0.82577 0.58074 0.0
N283 N 0.39348 0.83024 0.62105 0.0
C284 C 0.39469 0.77939 0.53363 0.0
H285 H 0.42339 0.78014 0.52726 0.0
H286 H 0.38735 0.79237 0.5079 0.0
H287 H 0.37354 0.75356 0.53349 0.0
C288 C 0.32198 0.83765 0.45048 0.0
N289 N 0.35714 0.8524 0.46758 0.0
N290 N 0.35757 0.84022 0.50528 0.0
C291 C 0.32192 0.8173 0.51359 0.0
C292 C 0.29833 0.81493 0.47912 0.0
C293 C 0.31277 0.84305 0.40577 0.0
H294 H 0.3104 0.86654 0.40411 0.0
H295 H 0.33639 0.84454 0.3844 0.0
H296 H 0.28564 0.82334 0.39441 0.0
O297 O 0.42448 0.92012 0.48505 0.0
O298 O 0.43011 0.90149 0.54869 0.0
H299 H 0.32492 0.81331 0.58122 0.0
H300 H 0.27873 0.78817 0.55834 0.0
C301 C 0.3102 0.79794 0.55361 0.0
H302 H 0.31811 0.77716 0.5516 0.0
H303 H 0.39368 0.85173 0.63318 0.0
O304 O 0.39296 0.90154 0.39238 0.0
C305 C 0.43472 0.92499 0.52371 0.0
Co306 Co 0.38404 0.36402 0.63965 0.0
Co307 Co 0.35274 0.30316 0.69968 0.0
C308 C 0.41184 0.36883 0.72852 0.0
O309 O 0.41453 0.38176 0.69214 0.0
O310 O 0.38903 0.33927 0.73491 0.0
C311 C 0.42618 0.42717 0.60256 0.0
O312 O 0.42503 0.43768 0.64124 0.0
C313 C 0.35812 0.25828 0.76192 0.0
C314 C 0.3024 0.21554 0.75621 0.0
C315 C 0.33677 0.22772 0.77824 0.0
N316 N 0.33726 0.26438 0.73203 0.0
N317 N 0.3038 0.23886 0.72892 0.0
C318 C 0.39914 0.27997 0.77175 0.0
H319 H 0.41301 0.29604 0.74451 0.0
H320 H 0.41533 0.26541 0.77938 0.0
H321 H 0.40028 0.29511 0.79987 0.0
C322 C 0.40834 0.31988 0.5909 0.0
N323 N 0.3881 0.32517 0.62264 0.0
N324 N 0.37536 0.29978 0.64782 0.0
C325 C 0.3869 0.27747 0.6329 0.0
C326 C 0.40855 0.28957 0.59639 0.0
C327 C 0.42925 0.34438 0.55758 0.0
H328 H 0.40925 0.35306 0.54254 0.0
H329 H 0.45282 0.36553 0.57265 0.0
H330 H 0.44123 0.33398 0.53266 0.0
O331 O 0.33072 0.35786 0.65436 0.0
O332 O 0.30785 0.31215 0.69169 0.0
H333 H 0.35155 0.23356 0.66513 0.0
H334 H 0.39204 0.23167 0.63854 0.0
C335 C 0.38215 0.24755 0.65682 0.0
H336 H 0.39895 0.25474 0.68663 0.0
H337 H 0.28216 0.23718 0.70776 0.0
O338 O 0.40765 0.39707 0.59442 0.0
C339 C 0.30387 0.33626 0.67582 0.0
Co340 Co 0.20991 0.47941 0.54308 0.0
Co341 Co 0.29387 0.48369 0.54249 0.0
C342 C 0.27786 0.54208 0.56068 0.0
O343 O 0.24177 0.52606 0.55604 0.0
O344 O 0.30076 0.52864 0.55576 0.0
C345 C 0.13906 0.48801 0.5515 0.0
O346 O 0.15713 0.50965 0.58095 0.0
C347 C 0.37328 0.50808 0.51463 0.0
C348 C 0.38783 0.46659 0.52578 0.0
C349 C 0.40227 0.49783 0.50968 0.0
N350 N 0.34319 0.48418 0.53313 0.0
N351 N 0.35223 0.45958 0.54034 0.0
C352 C 0.37219 0.5383 0.49707 0.0
H353 H 0.34226 0.53431 0.49022 0.0
H354 H 0.38933 0.54597 0.4675 0.0
H355 H 0.38449 0.55813 0.52084 0.0
C356 C 0.21109 0.45632 0.45558 0.0
N357 N 0.22769 0.46608 0.49383 0.0
N358 N 0.26247 0.46732 0.49309 0.0
C359 C 0.26906 0.45832 0.45399 0.0
C360 C 0.23672 0.4512 0.42884 0.0
C361 C 0.17115 0.4517 0.44518 0.0
H362 H 0.1511 0.43533 0.46898 0.0
H363 H 0.16945 0.47548 0.44703 0.0
H364 H 0.16205 0.44096 0.41316 0.0
O365 O 0.21157 0.45396 0.59292 0.0
O366 O 0.27127 0.45784 0.59432 0.0
H367 H 0.31582 0.44507 0.46205 0.0
H368 H 0.30549 0.44986 0.40725 0.0
C369 C 0.30675 0.45941 0.4399 0.0
H370 H 0.32863 0.48489 0.44058 0.0
H371 H 0.33357 0.43754 0.55364 0.0
O372 O 0.15614 0.47284 0.53319 0.0
C373 C 0.23779 0.44792 0.6101 0.0
Co374 Co 0.56538 0.13067 0.92765 0.0
Co375 Co 0.54874 0.15266 0.01692 0.0
C376 C 0.50535 0.15415 0.93702 0.0
O377 O 0.52495 0.14421 0.91329 0.0
O378 O 0.51178 0.15835 0.97677 0.0
C379 C 0.55702 0.09203 0.8564 0.0
O380 O 0.52154 0.07915 0.87036 0.0
C381 C 0.55081 0.2063 0.06623 0.0
C382 C 0.55762 0.19399 0.13249 0.0
C383 C 0.55677 0.21858 0.10713 0.0
N384 N 0.54783 0.17582 0.06711 0.0
N385 N 0.55107 0.16819 0.10695 0.0
C386 C 0.55444 0.22507 0.02611 0.0
H387 H 0.52624 0.22494 0.01844 0.0
H388 H 0.56339 0.21397 0.9993 0.0
H389 H 0.5756 0.25071 0.0299 0.0
C390 C 0.64293 0.17834 0.94598 0.0
N391 N 0.60579 0.16278 0.95636 0.0
N392 N 0.60017 0.17143 0.99476 0.0
C393 C 0.63426 0.19307 0.01015 0.0
C394 C 0.6623 0.19793 0.97975 0.0
C395 C 0.65909 0.17477 0.90401 0.0
H396 H 0.6621 0.15151 0.90352 0.0
H397 H 0.63912 0.17394 0.87816 0.0
H398 H 0.68751 0.19507 0.89812 0.0
O399 O 0.54376 0.09279 0.96286 0.0
O400 O 0.52954 0.10483 0.02714 0.0
H401 H 0.67128 0.21767 0.06281 0.0
H402 H 0.63105 0.22741 0.05468 0.0
C403 C 0.64053 0.2075 0.0538 0.0
H404 H 0.62357 0.18876 0.07715 0.0
H405 H 0.55143 0.14631 0.11629 0.0
O406 O 0.58209 0.11611 0.87605 0.0
C407 C 0.53071 0.08437 -5e-05 0.0
H408 H 0.30359 0.39608 0.68263 0.0
H409 H 0.17838 0.34378 0.89502 0.0
H410 H 0.23774 0.29565 0.71647 0.0
H411 H 0.26834 0.43829 0.86851 0.0
H412 H 0.18673 0.32598 0.82283 0.0
H413 H 0.27549 0.41226 0.74202 0.0
C414 C 0.28177 0.37727 0.7012 0.0
C415 C 0.27403 0.34447 0.69534 0.0
C416 C 0.20436 0.35065 0.83293 0.0
C417 C 0.2412 0.36297 0.76355 0.0
C418 C 0.19956 0.36073 0.8739 0.0
C419 C 0.2233 0.39224 0.88773 0.0
C420 C 0.23215 0.37271 0.80567 0.0
C421 C 0.25004 0.41354 0.85926 0.0
C422 C 0.26594 0.3866 0.7356 0.0
C423 C 0.2452 0.32131 0.7205 0.0
N424 N 0.25375 0.4034 0.81975 0.0
N425 N 0.23041 0.33101 0.75421 0.0
H426 H 0.09703 0.34779 0.81097 0.0
H427 H 0.26874 0.47997 0.68267 0.0
H428 H 0.14335 0.4506 0.83722 0.0
H429 H 0.1884 0.38725 0.63458 0.0
H430 H 0.24176 0.46409 0.75413 0.0
H431 H 0.15092 0.35715 0.76399 0.0
C432 C 0.11952 0.3722 0.80841 0.0
C433 C 0.11496 0.39868 0.82644 0.0
C434 C 0.23095 0.44687 0.72817 0.0
C435 C 0.17656 0.40943 0.773 0.0
C436 C 0.24652 0.45573 0.68764 0.0
C437 C 0.23065 0.43471 0.65315 0.0
C438 C 0.19987 0.41661 0.73397 0.0
C439 C 0.20139 0.40393 0.66063 0.0
C440 C 0.15003 0.37753 0.78123 0.0
C441 C 0.14535 0.42961 0.82301 0.0
N442 N 0.18668 0.39585 0.70029 0.0
N443 N 0.17451 0.43435 0.79553 0.0
H444 H 0.45516 0.05148 0.01674 0.0
H445 H 0.45471 0.8932 0.90524 0.0
H446 H 0.55771 0.03883 0.98929 0.0
H447 H 0.35336 0.90944 0.92405 0.0
H448 H 0.49381 0.94831 0.93044 0.0
H449 H 0.41685 -0.00229 0.98656 0.0
C450 C 0.46944 0.0366 0.00646 0.0
C451 C 0.50951 0.04937 0.00557 0.0
C452 C 0.46307 0.9402 0.92796 0.0
C453 C 0.4664 0.98902 0.96872 0.0
C454 C 0.44089 0.90912 0.91217 0.0
C455 C 0.40085 0.89684 0.913 0.0
C456 C 0.4448 0.95886 0.94433 0.0
C457 C 0.38425 0.91817 0.92303 0.0
C458 C 0.44771 0.00638 0.98795 0.0
C459 C 0.52677 0.02956 0.99077 0.0
N460 N 0.4062 0.94789 0.93963 0.0
N461 N 0.50516 0.00058 0.97214 0.0
H462 H 0.80699 0.65323 0.45298 0.0
H463 H 0.72869 0.62593 0.23736 0.0
H464 H 0.85131 0.60567 0.3636 0.0
H465 H 0.76022 0.72207 0.28918 0.0
H466 H 0.77483 0.6196 0.28442 0.0
H467 H 0.79593 0.68371 0.39458 0.0
C468 C 0.81603 0.65041 0.42121 0.0
C469 C 0.82994 0.62703 0.41275 0.0
C470 C 0.77391 0.64299 0.28282 0.0
C471 C 0.81579 0.66037 0.34608 0.0
C472 C 0.74689 0.64651 0.25659 0.0
C473 C 0.74011 0.67444 0.25967 0.0
C474 C 0.79535 0.66785 0.31116 0.0
C475 C 0.76427 0.69996 0.28608 0.0
C476 C 0.80968 0.66772 0.38794 0.0
C477 C 0.84065 0.62366 0.37117 0.0
N478 N 0.79036 0.69581 0.31162 0.0
N479 N 0.83207 0.63933 0.33899 0.0
H480 H 0.90422 0.64967 0.25108 0.0
H481 H 0.69804 0.52943 0.17282 0.0
H482 H 0.84538 0.54934 0.28877 0.0
H483 H 0.77421 0.61559 0.10739 0.0
H484 H 0.73889 0.5474 0.23592 0.0
H485 H 0.84489 0.6468 0.22003 0.0
C486 C 0.8785 0.62723 0.25377 0.0
C487 C 0.87987 0.59934 0.27124 0.0
C488 C 0.74575 0.56305 0.20838 0.0
C489 C 0.81222 0.59592 0.23542 0.0
C490 C 0.72207 0.55316 0.17269 0.0
C491 C 0.73326 0.571 0.13499 0.0
C492 C 0.78043 0.59096 0.20588 0.0
C493 C 0.76487 0.60121 0.13598 0.0
C494 C 0.84475 0.62562 0.23589 0.0
C495 C 0.8456 0.57121 0.27492 0.0
N496 N 0.78802 0.60994 0.17061 0.0
N497 N 0.81317 0.56995 0.25614 0.0
H498 H 0.50408 0.94683 0.56303 0.0
H499 H 0.57459 0.11311 0.43327 0.0
H500 H 0.42571 0.97951 0.50388 0.0
H501 H 0.64493 0.06347 0.4654 0.0
H502 H 0.52021 0.07017 0.4694 0.0
H503 H 0.55724 -0.00154 0.54449 0.0
C504 C 0.49783 0.96552 0.54812 0.0
C505 C 0.46063 0.95877 0.53429 0.0
C506 C 0.54749 0.06856 0.46805 0.0
C507 C 0.52117 0.01697 0.5111 0.0
C508 C 0.5782 0.09261 0.44659 0.0
C509 C 0.61399 0.09131 0.44547 0.0
C510 C 0.5529 0.04341 0.48878 0.0
C511 C 0.61756 0.06495 0.46484 0.0
C512 C 0.52827 0.99467 0.53654 0.0
C513 C 0.45418 0.98376 0.51464 0.0
N514 N 0.58754 0.04219 0.48586 0.0
N515 N 0.48429 0.01148 0.50254 0.0
H516 H 0.08917 0.49663 0.01612 0.0
H517 H 0.9844 0.49403 0.2335 0.0
H518 H 0.03089 0.40781 0.08604 0.0
H519 H 0.00511 0.56713 0.13743 0.0
H520 H 0.00115 0.46159 0.18158 0.0
H521 H 0.0593 0.52308 0.06169 0.0
C522 C 0.06994 0.4827 0.04107 0.0
C523 C 0.06283 0.45017 0.04778 0.0
C524 C 0.00159 0.4846 0.1719 0.0
C525 C 0.02863 0.48025 0.10026 0.0
C526 C 0.99209 0.50315 0.20151 0.0
C527 C 0.99406 0.53371 0.19017 0.0
C528 C 0.01347 0.49688 0.13089 0.0
C529 C 0.00397 0.54412 0.14807 0.0
C530 C 0.05274 0.49773 0.06696 0.0
C531 C 0.03704 0.43297 0.07992 0.0
N532 N 0.01374 0.52599 0.12025 0.0
N533 N 0.02128 0.44836 0.1055 0.0
H534 H 0.79257 0.2468 0.49405 0.0
H535 H 0.91071 0.2298 0.69447 0.0
H536 H 0.75506 0.16415 0.57772 0.0
H537 H 0.93466 0.32125 0.63358 0.0
H538 H 0.86262 0.2021 0.63996 0.0
H539 H 0.85331 0.27119 0.53379 0.0
C540 C 0.79739 0.23363 0.52027 0.0
C541 C 0.76863 0.2038 0.53322 0.0
C542 C 0.87853 0.22824 0.6384 0.0
C543 C 0.83754 0.23109 0.57821 0.0
C544 C 0.90602 0.244 0.66941 0.0
C545 C 0.9256 0.27791 0.66932 0.0
C546 C 0.87082 0.24654 0.60693 0.0
C547 C 0.91894 0.29517 0.63578 0.0
C548 C 0.83188 0.24753 0.54296 0.0
C549 C 0.77625 0.18754 0.56724 0.0
N550 N 0.89172 0.27932 0.60612 0.0
N551 N 0.80982 0.20147 0.58868 0.0
H552 H 0.35951 0.68294 0.84293 0.0
H553 H 0.19585 0.52043 0.93723 0.0
H554 H 0.24142 0.66694 0.85607 0.0
H555 H 0.31699 0.54441 0.94362 0.0
H556 H 0.21035 0.56981 0.89639 0.0
H557 H 0.34216 0.62688 0.86534 0.0
C558 C 0.32967 0.66713 0.84891 0.0
C559 C 0.30176 0.67929 0.84782 0.0
C560 C 0.23373 0.56421 0.90668 0.0
C561 C 0.28194 0.61591 0.87478 0.0
C562 C 0.22552 0.53614 0.93027 0.0
C563 C 0.25529 0.5284 0.94432 0.0
C564 C 0.27197 0.58468 0.89688 0.0
C565 C 0.29314 0.54954 0.93389 0.0
C566 C 0.31986 0.63537 0.86237 0.0
C567 C 0.26364 0.65823 0.85662 0.0
N568 N 0.30038 0.57673 0.91086 0.0
N569 N 0.25487 0.62762 0.87038 0.0
H570 H 0.94202 0.49242 0.53586 0.0
H571 H 0.00887 0.49422 0.77597 0.0
H572 H 0.97921 0.57773 0.6154 0.0
H573 H 0.99322 0.4172 0.68666 0.0
H574 H 0.0003 0.52621 0.71762 0.0
H575 H 0.96346 0.4654 0.59013 0.0
C576 C 0.95503 0.50551 0.56467 0.0
C577 C 0.9585 0.53714 0.57148 0.0
C578 C -0.001 0.50237 0.71087 0.0
C579 C 0.98255 0.50634 0.63408 0.0
C580 C 0.00379 0.48407 0.74418 0.0
C581 C 0.00117 0.45272 0.73645 0.0
C582 C 0.99136 0.48915 0.66962 0.0
C583 C 0.99479 0.44095 0.69447 0.0
C584 C 0.96729 0.49014 0.59567 0.0
C585 C 0.97604 0.55327 0.60905 0.0
N586 N 0.98983 0.45902 0.66283 0.0
N587 N 0.9869 0.53752 0.63929 0.0
H588 H 0.24817 0.82457 0.03106 0.0
H589 H 0.06502 0.66285 0.07958 0.0
H590 H 0.22148 0.73527 0.96234 0.0
H591 H 0.08659 0.75588 0.13533 0.0
H592 H 0.11654 0.68998 0.0286 0.0
H593 H 0.18371 0.80174 0.06053 0.0
C594 C 0.22836 0.80026 0.02164 0.0
C595 C 0.24016 0.78151 0.99484 0.0
C596 C 0.10974 0.70451 0.05166 0.0
C597 C 0.1666 0.75488 0.0292 0.0
C598 C 0.08066 0.689 0.08109 0.0
C599 C 0.07268 0.70711 0.1127 0.0
C600 C 0.13094 0.73833 0.05404 0.0
C601 C 0.0924 0.74101 0.11192 0.0
C602 C 0.19154 0.78721 0.03846 0.0
C603 C 0.21341 0.75037 0.98314 0.0
N604 N 0.1211 0.7555 0.08354 0.0
N605 N 0.17798 0.73769 0.00117 0.0
H606 H 0.83831 0.47045 0.43445 0.0
H607 H 0.67949 0.30507 0.33831 0.0
H608 H 0.72125 0.45451 0.40972 0.0
H609 H 0.78676 0.31462 0.39198 0.0
H610 H 0.69964 0.36365 0.34854 0.0
H611 H 0.82459 0.41719 0.40397 0.0
C612 C 0.8098 0.45592 0.42227 0.0
C613 C 0.78072 0.46684 0.42525 0.0
C614 C 0.719 0.35299 0.35747 0.0
C615 C 0.76492 0.40577 0.3902 0.0
C616 C 0.70765 0.31971 0.35129 0.0
C617 C 0.73139 0.30518 0.36487 0.0
C618 C 0.75441 0.3717 0.37699 0.0
C619 C 0.76748 0.32499 0.38174 0.0
C620 C 0.80201 0.42548 0.40488 0.0
C621 C 0.74442 0.44695 0.40859 0.0
N622 N 0.77778 0.35722 0.3877 0.0
N623 N 0.73747 0.41727 0.39207 0.0
H624 H 0.49145 0.86878 0.38111 0.0
H625 H 0.59049 0.74738 0.40085 0.0
H626 H 0.48547 0.81458 0.4954 0.0
H627 H 0.62593 0.82451 0.30874 0.0
H628 H 0.55006 0.77019 0.43502 0.0
H629 H 0.53876 0.8513 0.35254 0.0
C630 C 0.50004 0.8532 0.40023 0.0
C631 C 0.4841 0.84285 0.44059 0.0
C632 C 0.56693 0.7823 0.40756 0.0
C633 C 0.53821 0.82271 0.40793 0.0
C634 C 0.5898 0.76922 0.38799 0.0
C635 C 0.61102 0.78391 0.35168 0.0
C636 C 0.56495 0.81004 0.39032 0.0
C637 C 0.60983 0.81248 0.33666 0.0
C638 C 0.52722 0.84338 0.38396 0.0
C639 C 0.49666 0.82291 0.46402 0.0
N640 N 0.58671 0.82441 0.35571 0.0
N641 N 0.52271 0.81324 0.44718 0.0
H642 H 0.51861 0.4314 0.97333 0.0
H643 H 0.46349 0.43318 0.7292 0.0
H644 H 0.55644 0.51933 0.8999 0.0
H645 H 0.4098 0.35016 0.81124 0.0
H646 H 0.49814 0.46538 0.7907 0.0
H647 H 0.47772 0.4014 0.91415 0.0
C648 C 0.51782 0.44439 0.94482 0.0
C649 C 0.54094 0.47771 0.94116 0.0
C650 C 0.47871 0.4401 0.79514 0.0
C651 C 0.49485 0.44367 0.87313 0.0
C652 C 0.45908 0.42165 0.76002 0.0
C653 C 0.43401 0.38873 0.76486 0.0
C654 C 0.47335 0.42549 0.83533 0.0
C655 C 0.42923 0.37523 0.80569 0.0
C656 C 0.49459 0.42732 0.91103 0.0
C657 C 0.53885 0.4936 0.90383 0.0
N658 N 0.4488 0.3936 0.83921 0.0
N659 N 0.51656 0.47634 0.87093 0.0
H660 H 0.23844 0.5782 0.58279 0.0
H661 H 0.42643 0.74406 0.60168 0.0
H662 H 0.35324 0.58481 0.56947 0.0
H663 H 0.31456 0.73537 0.63791 0.0
H664 H 0.40047 0.685 0.59423 0.0
H665 H 0.26547 0.63512 0.60541 0.0
C666 C 0.26931 0.59158 0.58451 0.0
C667 C 0.29358 0.57669 0.57379 0.0
C668 C 0.38164 0.69582 0.60465 0.0
C669 C 0.32467 0.64182 0.59998 0.0
C670 C 0.39657 0.72947 0.60925 0.0
C671 C 0.37257 0.7443 0.62075 0.0
C672 C 0.34223 0.67697 0.61078 0.0
C673 C 0.33398 0.72461 0.62953 0.0
C674 C 0.2847 0.62403 0.59773 0.0
C675 C 0.33335 0.59523 0.57706 0.0
N676 N 0.31979 0.69189 0.62373 0.0
N677 N 0.34759 0.6268 0.5896 0.0
H678 H 0.47002 0.13197 0.86094 0.0
H679 H 0.36657 0.24888 0.85651 0.0
H680 H 0.46886 0.18964 0.96983 0.0
H681 H 0.33826 0.16865 0.76935 0.0
H682 H 0.40128 0.22605 0.90084 0.0
H683 H 0.42008 0.14391 0.82812 0.0
C684 C 0.45921 0.14714 0.87798 0.0
C685 C 0.47401 0.16025 0.91792 0.0
C686 C 0.38685 0.21305 0.8725 0.0
C687 C 0.41678 0.17396 0.88049 0.0
C688 C 0.36711 0.22606 0.84729 0.0
C689 C 0.3501 0.21068 0.80923 0.0
C690 C 0.39011 0.18483 0.85897 0.0
C691 C 0.35117 0.18114 0.79855 0.0
C692 C 0.43044 0.1537 0.85937 0.0
C693 C 0.45848 0.17928 0.93885 0.0
N694 N 0.37159 0.16943 0.82292 0.0
N695 N 0.43103 0.18596 0.9196 0.0
H696 H 0.55079 0.5599 0.29412 0.0
H697 H 0.4545 0.56063 0.51792 0.0
H698 H 0.58095 0.6451 0.37322 0.0
H699 H 0.43107 0.473 0.4468 0.0
H700 H 0.50645 0.59078 0.46882 0.0
H701 H 0.51133 0.52661 0.35199 0.0
C702 C 0.54924 0.57163 0.32363 0.0
C703 C 0.56879 0.60548 0.3285 0.0
C704 C 0.49034 0.56489 0.4641 0.0
C705 C 0.52382 0.56747 0.39489 0.0
C706 C 0.46073 0.54773 0.49215 0.0
C707 C 0.43813 0.51456 0.48565 0.0
C708 C 0.49707 0.54879 0.42901 0.0
C709 C 0.44772 0.49871 0.45246 0.0
C710 C 0.52682 0.55257 0.35672 0.0
C711 C 0.56596 0.61922 0.36764 0.0
N712 N 0.4761 0.5161 0.4248 0.0
N713 N 0.54369 0.60023 0.39911 0.0
H714 H 0.51975 0.25717 0.09522 0.0
H715 H 0.71619 0.4152 0.09202 0.0
H716 H 0.62612 0.25846 0.14004 0.0
H717 H 0.60613 0.41617 0.06819 0.0
H718 H 0.68335 0.35894 0.11585 0.0
H719 H 0.54958 0.31655 0.09331 0.0
C720 C 0.54909 0.27016 0.10599 0.0
C721 C 0.5706 0.25321 0.11793 0.0
C722 C 0.6664 0.37158 0.10578 0.0
C723 C 0.60541 0.32084 0.11429 0.0
C724 C 0.68514 0.40366 0.0919 0.0
C725 C 0.66393 0.42035 0.0775 0.0
C726 C 0.62616 0.35599 0.10494 0.0
C727 C 0.62374 0.40422 0.07855 0.0
C728 C 0.56625 0.30399 0.10456 0.0
C729 C 0.60861 0.27087 0.13104 0.0
N730 N 0.60621 0.37289 0.09161 0.0
N731 N 0.62511 0.30381 0.12811 0.0
H732 H 0.24528 0.40258 0.38445 0.0
H733 H 0.19696 0.45984 0.15991 0.0
H734 H 0.21815 0.48474 0.3684 0.0
H735 H 0.23663 0.38457 0.17166 0.0
H736 H 0.19904 0.46579 0.23722 0.0
H737 H 0.23818 0.39271 0.30743 0.0
C738 C 0.23793 0.41855 0.36459 0.0
C739 C 0.23241 0.44455 0.38257 0.0
C740 C 0.2072 0.44786 0.22304 0.0
C741 C 0.22376 0.4333 0.29488 0.0
C742 C 0.20575 0.44434 0.17896 0.0
C743 C 0.21691 0.42186 0.1596 0.0
C744 C 0.21984 0.42869 0.24804 0.0
C745 C 0.22827 0.40246 0.18554 0.0
C746 C 0.23372 0.41287 0.32077 0.0
C747 C 0.22245 0.46432 0.35572 0.0
N748 N 0.22962 0.4064 0.2285 0.0
N749 N 0.21846 0.45831 0.31328 0.0
H750 H 0.72067 0.17994 0.97049 0.0
H751 H 0.87189 0.36017 0.92515 0.0
H752 H 0.69707 0.2634 0.99275 0.0
H753 H 0.89982 0.27771 0.92272 0.0
H754 H 0.81023 0.32637 0.95805 0.0
H755 H 0.78855 0.2159 0.96131 0.0
C756 C 0.73012 0.20593 0.97415 0.0
C757 C 0.70362 0.21896 0.98192 0.0
C758 C 0.83002 0.31573 0.95092 0.0
C759 C 0.78076 0.26026 0.97078 0.0
C760 C 0.86518 0.33502 0.93226 0.0
C761 C 0.89048 0.32143 0.92083 0.0
C762 C 0.82009 0.28258 0.95774 0.0
C763 C 0.88061 0.28882 0.93048 0.0
C764 C 0.76876 0.22645 0.9689 0.0
C765 C 0.7169 0.25262 0.98665 0.0
N766 N 0.84593 0.27034 0.94789 0.0
N767 N 0.7546 0.27225 0.98029 0.0
H768 H 0.40561 0.70753 0.00505 0.0
H769 H 0.61262 0.75362 0.10804 0.0
H770 H 0.48898 0.80572 0.02712 0.0
H771 H 0.51816 0.65935 0.12048 0.0
H772 H 0.57212 0.77114 0.06427 0.0
H773 H 0.45124 0.68749 0.03322 0.0
C774 C 0.43375 0.72478 0.01533 0.0
C775 C 0.44364 0.75818 0.01441 0.0
C776 C 0.56037 0.74652 0.07623 0.0
C777 C 0.49565 0.73576 0.04632 0.0
C778 C 0.58341 0.73659 0.10115 0.0
C779 C 0.5684 0.70523 0.11817 0.0
C780 C 0.52217 0.72479 0.0681 0.0
C781 C 0.53068 0.68378 0.10789 0.0
C782 C 0.45964 0.71342 0.0315 0.0
C783 C 0.4803 0.77972 0.02794 0.0
N784 N 0.50868 0.69403 0.08373 0.0
N785 N 0.50496 0.76815 0.04356 0.0
H786 H 0.81123 0.5177 0.66516 0.0
H787 H 0.73991 0.58335 0.86801 0.0
H788 H 0.75983 0.58533 0.65516 0.0
H789 H 0.75398 0.49407 0.86736 0.0
H790 H 0.75464 0.58938 0.79171 0.0
H791 H 0.79924 0.5142 0.74187 0.0
C792 C 0.79772 0.532 0.67935 0.0
C793 C 0.7863 0.5517 0.65418 0.0
C794 C 0.7544 0.56844 0.8083 0.0
C795 C 0.77243 0.54786 0.74136 0.0
C796 C 0.74582 0.56494 0.85162 0.0
C797 C 0.74552 0.53808 0.87361 0.0
C798 C 0.76322 0.54512 0.78722 0.0
C799 C 0.7541 0.51519 0.85137 0.0
C800 C 0.79065 0.52987 0.72292 0.0
C801 C 0.76873 0.56968 0.67373 0.0
N802 N 0.76275 0.51927 0.80939 0.0
N803 N 0.76231 0.56737 0.71629 0.0
H804 H 0.23659 0.82524 0.45469 0.0
H805 H 0.11529 0.63959 0.38963 0.0
H806 H 0.27152 0.74907 0.48397 0.0
H807 H 0.07871 0.71552 0.36534 0.0
H808 H 0.16896 0.67792 0.43181 0.0
H809 H 0.17475 0.78429 0.42976 0.0
C810 C 0.23082 0.79976 0.45646 0.0
C811 C 0.25899 0.79036 0.47102 0.0
C812 C 0.14902 0.68617 0.41761 0.0
C813 C 0.18884 0.74346 0.44214 0.0
C814 C 0.11843 0.6643 0.39367 0.0
C815 C 0.09302 0.67468 0.37376 0.0
C816 C 0.15421 0.71863 0.42142 0.0
C817 C 0.09817 0.70684 0.37973 0.0
C818 C 0.19565 0.77641 0.44219 0.0
C819 C 0.25035 0.75717 0.47299 0.0
N820 N 0.1284 0.72779 0.40273 0.0
N821 N 0.21616 0.73488 0.45814 0.0
H822 H 0.51452 0.1646 0.516 0.0
H823 H 0.48594 0.3215 0.58788 0.0
H824 H 0.60418 0.26175 0.50921 0.0
H825 H 0.39082 0.22994 0.56026 0.0
H826 H 0.52996 0.29973 0.56078 0.0
H827 H 0.46879 0.18724 0.53509 0.0
C828 C 0.52447 0.1907 0.51856 0.0
C829 C 0.56302 0.21142 0.51114 0.0
C830 C 0.49945 0.28444 0.56025 0.0
C831 C 0.51123 0.23744 0.53284 0.0
C832 C 0.47433 0.29692 0.57547 0.0
C833 C 0.43478 0.27742 0.57625 0.0
C834 C 0.48494 0.25204 0.54622 0.0
C835 C 0.42122 0.24559 0.56048 0.0
C836 C 0.49842 0.20361 0.52916 0.0
C837 C 0.57458 0.24503 0.51447 0.0
N838 N 0.4463 0.23373 0.54646 0.0
N839 N 0.54885 0.25701 0.52534 0.0
H840 H 0.58605 0.57078 0.08814 0.0
H841 H 0.37346 0.5074 0.10884 0.0
H842 H 0.53231 0.51243 0.1977 0.0
H843 H 0.40789 0.47597 0.99315 0.0
H844 H 0.43572 0.51801 0.14004 0.0
H845 H 0.52596 0.5427 0.04838 0.0
C846 C 0.56211 0.55139 0.1034 0.0
C847 C 0.56397 0.54435 0.14656 0.0
C848 C 0.42947 0.50853 0.10794 0.0
C849 C 0.49556 0.51297 0.10169 0.0
C850 C 0.39417 0.5027 0.09003 0.0
C851 C 0.38565 0.49077 0.04845 0.0
C852 C 0.45701 0.50348 0.08368 0.0
C853 C 0.41353 0.48508 0.02542 0.0
C854 C 0.52797 0.53542 0.08067 0.0
C855 C 0.53213 0.51892 0.16469 0.0
N856 N 0.44855 0.49215 0.04308 0.0
N857 N 0.49881 0.50488 0.14258 0.0
H858 H 0.86346 0.47166 0.09394 0.0
H859 H 0.01688 0.53608 0.90798 0.0
H860 H 0.87451 0.54871 0.00759 0.0
H861 H 0.0006 0.45372 0.98673 0.0
H862 H 0.9766 0.55004 0.9565 0.0
H863 H 0.92417 0.47355 0.06716 0.0
C864 C 0.87886 0.48928 0.0698 0.0
C865 C 0.86333 0.50945 0.05217 0.0
C866 C 0.98233 0.52918 0.96356 0.0
C867 C 0.93259 0.51161 0.02124 0.0
C868 C 0.0055 0.52126 0.9359 0.0
C869 C 0.01118 0.49305 0.94249 0.0
C870 C 0.96449 0.50863 0.99788 0.0
C871 C 0.99607 0.47511 0.9796 0.0
C872 C 0.91351 0.49032 0.05448 0.0
C873 C 0.88484 0.5321 0.02136 0.0
N874 N 0.97281 0.4828 0.00544 0.0
N875 N 0.91802 0.53223 0.00646 0.0
H876 H 0.32916 0.90235 0.12229 0.0
H877 H 0.47852 0.94441 0.3133 0.0
H878 H 0.4324 0.88688 0.11924 0.0
H879 H 0.35719 0.91536 0.33081 0.0
H880 H 0.46916 0.94367 0.23641 0.0
H881 H 0.34707 0.92658 0.19323 0.0
C882 C 0.35589 0.90459 0.13624 0.0
C883 C 0.37903 0.89209 0.11545 0.0
C884 C 0.4448 0.93819 0.25723 0.0
C885 C 0.39978 0.92007 0.19562 0.0
C886 C 0.4501 0.93874 0.30104 0.0
C887 C 0.4184 0.92924 0.32826 0.0
C888 C 0.40769 0.92846 0.24084 0.0
C889 C 0.38224 0.92225 0.31074 0.0
C890 C 0.36604 0.91838 0.17656 0.0
C891 C 0.41345 0.8957 0.13468 0.0
N892 N 0.37775 0.92159 0.26798 0.0
N893 N 0.42269 0.90918 0.17391 0.0
H894 H 0.43891 0.413 0.52069 0.0
H895 H 0.65241 0.54956 0.52681 0.0
H896 H 0.48167 0.48886 0.61549 0.0
H897 H 0.60939 0.47544 0.42976 0.0
H898 H 0.58696 0.5339 0.5517 0.0
H899 H 0.49678 0.44191 0.47881 0.0
C900 C 0.46016 0.43599 0.53243 0.0
C901 C 0.45592 0.44799 0.57235 0.0
C902 C 0.59171 0.52132 0.52459 0.0
C903 C 0.5225 0.48108 0.52469 0.0
C904 C 0.62916 0.53022 0.51039 0.0
C905 C 0.63654 0.5134 0.4766 0.0
C906 C 0.56133 0.49514 0.50523 0.0
C907 C 0.60515 0.48884 0.45624 0.0
C908 C 0.49327 0.4525 0.50847 0.0
C909 C 0.48402 0.4783 0.58534 0.0
N910 N 0.569 0.48012 0.47128 0.0
N911 N 0.51643 0.49348 0.562 0.0
H912 H 0.9638 0.45646 0.37053 0.0
H913 H 0.09917 0.52416 0.57176 0.0
H914 H 0.97445 0.5413 0.44174 0.0
H915 H 0.09246 0.44316 0.49452 0.0
H916 H 0.0423 0.52296 0.53551 0.0
H917 H -0.00198 0.44302 0.42692 0.0
C918 C 0.97263 0.47195 0.39838 0.0
C919 C 0.9674 0.50067 0.40067 0.0
C920 C 0.05296 0.50514 0.52697 0.0
C921 C 0.00727 0.48573 0.46507 0.0
C922 C 0.08544 0.5058 0.54767 0.0
C923 C 0.10122 0.48425 0.53541 0.0
C924 C 0.03625 0.48281 0.49377 0.0
C925 C 0.08189 0.46074 0.50437 0.0
C926 C 0.99239 0.46434 0.43055 0.0
C927 C 0.97895 0.51947 0.43795 0.0
N928 N 0.05081 0.46096 0.48424 0.0
N929 N -0.00087 0.51209 0.46823 0.0
H930 H 0.62834 0.10161 0.82959 0.0
H931 H 0.56549 0.06743 0.59474 0.0
H932 H 0.50892 0.05478 0.79408 0.0
H933 H 0.67719 0.07928 0.63743 0.0
H934 H 0.54159 0.05413 0.66723 0.0
H935 H 0.64548 0.08696 0.76065 0.0
C936 C 0.60571 0.08793 0.80737 0.0
C937 C 0.56724 0.07995 0.81708 0.0
C938 C 0.57106 0.05874 0.6606 0.0
C939 C 0.58659 0.0633 0.7381 0.0
C940 C 0.58468 0.06631 0.61922 0.0
C941 C 0.62359 0.07534 0.6105 0.0
C942 C 0.59682 0.06097 0.69336 0.0
C943 C 0.64713 0.07299 0.64302 0.0
C944 C 0.61546 0.07932 0.76816 0.0
C945 C 0.53898 0.06175 0.78754 0.0
N946 N 0.63364 0.06694 0.68338 0.0
N947 N 0.54927 0.05461 0.74892 0.0
loop_
_geom_bond_atom_site_label_1
_geom_bond_atom_site_label_2
_geom_bond_distance
_geom_bond_site_symmetry_2
_ccdc_geom_bond_type
Co0 O3 1.970 1_554 S
Co0 N17 1.989 . S
Co0 O25 1.967 1_554 S
Co0 O32 1.920 . S
Co1 O4 1.966 . S
Co1 N10 2.022 . S
Co1 N18 1.993 1_556 S
Co1 O26 1.941 . S
C2 O3 1.258 . S
C2 O4 1.263 . S
O3 Co0 1.970 1_556 S
O3 C2 1.258 . S
O4 Co1 1.966 . S
O4 C2 1.263 . S
C5 O6 1.235 . S
C5 O32 1.289 . S
O6 C5 1.235 . S
C7 C9 1.400 1_556 S
C7 N10 1.351 . S
C7 C12 1.501 . S
C8 C9 1.387 . S
C8 N11 1.341 1_554 S
C9 C7 1.400 1_554 S
C9 C8 1.387 . S
N10 Co1 2.022 . S
N10 C7 1.351 . S
N10 N11 1.365 . S
N11 C8 1.341 1_556 S
N11 N10 1.365 . S
N11 H31 0.862 . S
C12 C7 1.501 . S
C12 H13 0.961 . S
C12 H14 0.961 1_556 S
C12 H15 0.960 . S
H13 C12 0.961 . S
H14 C12 0.961 1_554 S
H15 C12 0.960 . S
C16 N17 1.342 . S
C16 C20 1.401 . S
C16 C21 1.499 . S
N17 Co0 1.989 . S
N17 C16 1.342 . S
N17 N18 1.388 . S
N18 Co1 1.993 1_554 S
N18 N17 1.388 . S
N18 C19 1.346 . S
C19 N18 1.346 . S
C19 C20 1.396 . S
C19 C29 1.510 . S
C20 C16 1.401 . S
C20 C19 1.396 . S
C21 C16 1.499 . S
C21 H22 0.959 . S
C21 H23 0.960 . S
C21 H24 0.961 . S
H22 C21 0.959 . S
H23 C21 0.960 . S
H24 C21 0.961 . S
O25 Co0 1.967 1_556 S
O25 C33 1.258 . S
O26 Co1 1.941 . S
O26 C33 1.266 . S
H27 C29 0.959 . S
H28 C29 0.961 . S
C29 C19 1.510 . S
C29 H27 0.959 . S
C29 H28 0.961 . S
C29 H30 0.960 . S
H30 C29 0.960 . S
H31 N11 0.862 . S
O32 Co0 1.920 . S
O32 C5 1.289 . S
C33 O25 1.258 . S
C33 O26 1.266 . S
Co34 O37 1.970 . S
Co34 N51 1.989 . S
Co34 O59 1.967 1_655 S
Co34 O66 1.920 1_655 S
Co35 O38 1.966 . S
Co35 N44 2.022 . S
Co35 N52 1.993 . S
Co35 O60 1.941 1_655 S
C36 O37 1.258 . S
C36 O38 1.263 . S
O37 Co34 1.970 . S
O37 C36 1.258 . S
O38 Co35 1.966 . S
O38 C36 1.263 . S
C39 O40 1.235 . S
C39 O66 1.289 1_655 S
O40 C39 1.235 . S
C41 C43 1.400 . S
C41 N44 1.351 . S
C41 C46 1.501 . S
C42 C43 1.387 . S
C42 N45 1.341 . S
C43 C41 1.400 . S
C43 C42 1.387 . S
N44 Co35 2.022 . S
N44 C41 1.351 . S
N44 N45 1.365 . S
N45 C42 1.341 . S
N45 N44 1.365 . S
N45 H65 0.862 . S
C46 C41 1.501 . S
C46 H47 0.961 . S
C46 H48 0.961 . S
C46 H49 0.960 . S
H47 C46 0.961 . S
H48 C46 0.961 . S
H49 C46 0.960 . S
C50 N51 1.342 . S
C50 C54 1.401 . S
C50 C55 1.499 . S
N51 Co34 1.989 . S
N51 C50 1.342 . S
N51 N52 1.388 . S
N52 Co35 1.993 . S
N52 N51 1.388 . S
N52 C53 1.346 . S
C53 N52 1.346 . S
C53 C54 1.396 . S
C53 C63 1.510 . S
C54 C50 1.401 . S
C54 C53 1.396 . S
C55 C50 1.499 . S
C55 H56 0.959 . S
C55 H57 0.960 . S
C55 H58 0.961 . S
H56 C55 0.959 . S
H57 C55 0.960 . S
H58 C55 0.961 . S
O59 Co34 1.967 1_455 S
O59 C67 1.258 . S
O60 Co35 1.941 1_455 S
O60 C67 1.266 . S
H61 C63 0.959 . S
H62 C63 0.961 . S
C63 C53 1.510 . S
C63 H61 0.959 . S
C63 H62 0.961 . S
C63 H64 0.960 . S
H64 C63 0.960 . S
H65 N45 0.862 . S
O66 Co34 1.920 1_455 S
O66 C39 1.289 1_455 S
C67 O59 1.258 . S
C67 O60 1.266 . S
Co68 O71 1.970 . S
Co68 N85 1.989 . S
Co68 O93 1.967 1_554 S
Co68 O100 1.920 . S
Co69 O72 1.966 . S
Co69 N78 2.022 . S
Co69 N86 1.993 . S
Co69 O94 1.941 . S
C70 O71 1.258 . S
C70 O72 1.263 1_554 S
O71 Co68 1.970 . S
O71 C70 1.258 . S
O72 Co69 1.966 . S
O72 C70 1.263 1_556 S
C73 O74 1.235 . S
C73 O100 1.289 . S
O74 C73 1.235 . S
C75 C77 1.400 . S
C75 N78 1.351 . S
C75 C80 1.501 . S
C76 C77 1.387 . S
C76 N79 1.341 . S
C77 C75 1.400 . S
C77 C76 1.387 . S
N78 Co69 2.022 . S
N78 C75 1.351 . S
N78 N79 1.365 . S
N79 C76 1.341 . S
N79 N78 1.365 . S
N79 H99 0.862 . S
C80 C75 1.501 . S
C80 H81 0.961 . S
C80 H82 0.961 . S
C80 H83 0.960 . S
H81 C80 0.961 . S
H82 C80 0.961 . S
H83 C80 0.960 . S
C84 N85 1.342 . S
C84 C88 1.401 . S
C84 C89 1.499 . S
N85 Co68 1.989 . S
N85 C84 1.342 . S
N85 N86 1.388 1_554 S
N86 Co69 1.993 . S
N86 N85 1.388 1_556 S
N86 C87 1.346 . S
C87 N86 1.346 . S
C87 C88 1.396 1_556 S
C87 C97 1.510 . S
C88 C84 1.401 . S
C88 C87 1.396 1_554 S
C89 C84 1.499 . S
C89 H90 0.959 . S
C89 H91 0.960 . S
C89 H92 0.961 . S
H90 C89 0.959 . S
H91 C89 0.960 . S
H92 C89 0.961 . S
O93 Co68 1.967 1_556 S
O93 C101 1.258 . S
O94 Co69 1.941 . S
O94 C101 1.266 . S
H95 C97 0.959 . S
H96 C97 0.961 . S
C97 C87 1.510 . S
C97 H95 0.959 . S
C97 H96 0.961 . S
C97 H98 0.960 . S
H98 C97 0.960 . S
H99 N79 0.862 . S
O100 Co68 1.920 . S
O100 C73 1.289 . S
C101 O93 1.258 . S
C101 O94 1.266 . S
Co102 O105 1.970 . S
Co102 N119 1.989 . S
Co102 O127 1.967 . S
Co102 O134 1.920 . S
Co103 O106 1.966 . S
Co103 N112 2.022 . S
Co103 N120 1.993 . S
Co103 O128 1.941 . S
C104 O105 1.258 . S
C104 O106 1.263 . S
O105 Co102 1.970 . S
O105 C104 1.258 . S
O106 Co103 1.966 . S
O106 C104 1.263 . S
C107 O108 1.235 . S
C107 O134 1.289 . S
O108 C107 1.235 . S
C109 C111 1.400 . S
C109 N112 1.351 . S
C109 C114 1.501 . S
C110 C111 1.387 . S
C110 N113 1.341 . S
C111 C109 1.400 . S
C111 C110 1.387 . S
N112 Co103 2.022 . S
N112 C109 1.351 . S
N112 N113 1.365 . S
N113 C110 1.341 . S
N113 N112 1.365 . S
N113 H133 0.862 . S
C114 C109 1.501 . S
C114 H115 0.961 . S
C114 H116 0.961 . S
C114 H117 0.960 . S
H115 C114 0.961 . S
H116 C114 0.961 . S
H117 C114 0.960 . S
C118 N119 1.342 . S
C118 C122 1.401 . S
C118 C123 1.499 . S
N119 Co102 1.989 . S
N119 C118 1.342 . S
N119 N120 1.388 . S
N120 Co103 1.993 . S
N120 N119 1.388 . S
N120 C121 1.346 . S
C121 N120 1.346 . S
C121 C122 1.396 . S
C121 C131 1.510 . S
C122 C118 1.401 . S
C122 C121 1.396 . S
C123 C118 1.499 . S
C123 H124 0.959 . S
C123 H125 0.960 . S
C123 H126 0.961 . S
H124 C123 0.959 . S
H125 C123 0.960 . S
H126 C123 0.961 . S
O127 Co102 1.967 . S
O127 C135 1.258 . S
O128 Co103 1.941 . S
O128 C135 1.266 . S
H129 C131 0.959 . S
H130 C131 0.961 . S
C131 C121 1.510 . S
C131 H129 0.959 . S
C131 H130 0.961 . S
C131 H132 0.960 . S
H132 C131 0.960 . S
H133 N113 0.862 . S
O134 Co102 1.920 . S
O134 C107 1.289 . S
C135 O127 1.258 . S
C135 O128 1.266 . S
Co136 O139 1.970 . S
Co136 N153 1.989 . S
Co136 O161 1.967 1_455 S
Co136 O168 1.920 1_455 S
Co137 O140 1.966 . S
Co137 N146 2.022 . S
Co137 N154 1.993 . S
Co137 O162 1.941 1_455 S
C138 O139 1.258 . S
C138 O140 1.263 . S
O139 Co136 1.970 . S
O139 C138 1.258 . S
O140 Co137 1.966 . S
O140 C138 1.263 . S
C141 O142 1.235 . S
C141 O168 1.289 1_455 S
O142 C141 1.235 . S
C143 C145 1.400 . S
C143 N146 1.351 . S
C143 C148 1.501 . S
C144 C145 1.387 . S
C144 N147 1.341 . S
C145 C143 1.400 . S
C145 C144 1.387 . S
N146 Co137 2.022 . S
N146 C143 1.351 . S
N146 N147 1.365 . S
N147 C144 1.341 . S
N147 N146 1.365 . S
N147 H167 0.862 . S
C148 C143 1.501 . S
C148 H149 0.961 . S
C148 H150 0.961 . S
C148 H151 0.960 . S
H149 C148 0.961 . S
H150 C148 0.961 . S
H151 C148 0.960 . S
C152 N153 1.342 . S
C152 C156 1.401 . S
C152 C157 1.499 . S
N153 Co136 1.989 . S
N153 C152 1.342 . S
N153 N154 1.388 . S
N154 Co137 1.993 . S
N154 N153 1.388 . S
N154 C155 1.346 . S
C155 N154 1.346 . S
C155 C156 1.396 . S
C155 C165 1.510 . S
C156 C152 1.401 . S
C156 C155 1.396 . S
C157 C152 1.499 . S
C157 H158 0.959 . S
C157 H159 0.960 . S
C157 H160 0.961 . S
H158 C157 0.959 . S
H159 C157 0.960 . S
H160 C157 0.961 . S
O161 Co136 1.967 1_655 S
O161 C169 1.258 . S
O162 Co137 1.941 1_655 S
O162 C169 1.266 . S
H163 C165 0.959 . S
H164 C165 0.961 . S
C165 C155 1.510 . S
C165 H163 0.959 . S
C165 H164 0.961 . S
C165 H166 0.960 . S
H166 C165 0.960 . S
H167 N147 0.862 . S
O168 Co136 1.920 1_655 S
O168 C141 1.289 1_655 S
C169 O161 1.258 . S
C169 O162 1.266 . S
Co170 O173 1.970 . S
Co170 N187 1.989 . S
Co170 O195 1.967 . S
Co170 O202 1.920 . S
Co171 O174 1.966 . S
Co171 N180 2.022 . S
Co171 N188 1.993 . S
Co171 O196 1.941 . S
C172 O173 1.258 . S
C172 O174 1.263 . S
O173 Co170 1.970 . S
O173 C172 1.258 . S
O174 Co171 1.966 . S
O174 C172 1.263 . S
C175 O176 1.235 . S
C175 O202 1.289 . S
O176 C175 1.235 . S
C177 C179 1.400 . S
C177 N180 1.351 . S
C177 C182 1.501 . S
C178 C179 1.387 . S
C178 N181 1.341 . S
C179 C177 1.400 . S
C179 C178 1.387 . S
N180 Co171 2.022 . S
N180 C177 1.351 . S
N180 N181 1.365 . S
N181 C178 1.341 . S
N181 N180 1.365 . S
N181 H201 0.862 . S
C182 C177 1.501 . S
C182 H183 0.961 . S
C182 H184 0.961 . S
C182 H185 0.960 . S
H183 C182 0.961 . S
H184 C182 0.961 . S
H185 C182 0.960 . S
C186 N187 1.342 . S
C186 C190 1.401 . S
C186 C191 1.499 . S
N187 Co170 1.989 . S
N187 C186 1.342 . S
N187 N188 1.388 . S
N188 Co171 1.993 . S
N188 N187 1.388 . S
N188 C189 1.346 . S
C189 N188 1.346 . S
C189 C190 1.396 . S
C189 C199 1.510 . S
C190 C186 1.401 . S
C190 C189 1.396 . S
C191 C186 1.499 . S
C191 H192 0.959 . S
C191 H193 0.960 . S
C191 H194 0.961 . S
H192 C191 0.959 . S
H193 C191 0.960 . S
H194 C191 0.961 . S
O195 Co170 1.967 . S
O195 C203 1.258 . S
O196 Co171 1.941 . S
O196 C203 1.266 . S
H197 C199 0.959 . S
H198 C199 0.961 . S
C199 C189 1.510 . S
C199 H197 0.959 . S
C199 H198 0.961 . S
C199 H200 0.960 . S
H200 C199 0.960 . S
H201 N181 0.862 . S
O202 Co170 1.920 . S
O202 C175 1.289 . S
C203 O195 1.258 . S
C203 O196 1.266 . S
Co204 O207 1.970 . S
Co204 N221 1.989 . S
Co204 O229 1.967 . S
Co204 O236 1.920 . S
Co205 O208 1.966 . S
Co205 N214 2.022 . S
Co205 N222 1.993 . S
Co205 O230 1.941 . S
C206 O207 1.258 . S
C206 O208 1.263 . S
O207 Co204 1.970 . S
O207 C206 1.258 . S
O208 Co205 1.966 . S
O208 C206 1.263 . S
C209 O210 1.235 . S
C209 O236 1.289 . S
O210 C209 1.235 . S
C211 C213 1.400 . S
C211 N214 1.351 . S
C211 C216 1.501 . S
C212 C213 1.387 . S
C212 N215 1.341 . S
C213 C211 1.400 . S
C213 C212 1.387 . S
N214 Co205 2.022 . S
N214 C211 1.351 . S
N214 N215 1.365 . S
N215 C212 1.341 . S
N215 N214 1.365 . S
N215 H235 0.862 . S
C216 C211 1.501 . S
C216 H217 0.961 . S
C216 H218 0.961 . S
C216 H219 0.960 . S
H217 C216 0.961 . S
H218 C216 0.961 . S
H219 C216 0.960 . S
C220 N221 1.342 . S
C220 C224 1.401 . S
C220 C225 1.499 . S
N221 Co204 1.989 . S
N221 C220 1.342 . S
N221 N222 1.388 . S
N222 Co205 1.993 . S
N222 N221 1.388 . S
N222 C223 1.346 . S
C223 N222 1.346 . S
C223 C224 1.396 . S
C223 C233 1.510 . S
C224 C220 1.401 . S
C224 C223 1.396 . S
C225 C220 1.499 . S
C225 H226 0.959 . S
C225 H227 0.960 . S
C225 H228 0.961 . S
H226 C225 0.959 . S
H227 C225 0.960 . S
H228 C225 0.961 . S
O229 Co204 1.967 . S
O229 C237 1.258 . S
O230 Co205 1.941 . S
O230 C237 1.266 . S
H231 C233 0.959 . S
H232 C233 0.961 . S
C233 C223 1.510 . S
C233 H231 0.959 . S
C233 H232 0.961 . S
C233 H234 0.960 . S
H234 C233 0.960 . S
H235 N215 0.862 . S
O236 Co204 1.920 . S
O236 C209 1.289 . S
C237 O229 1.258 . S
C237 O230 1.266 . S
Co238 O241 1.970 1_556 S
Co238 N255 1.989 . S
Co238 O263 1.967 1_556 S
Co238 O270 1.920 . S
Co239 O242 1.966 . S
Co239 N248 2.022 . S
Co239 N256 1.993 1_554 S
Co239 O264 1.941 . S
C240 O241 1.258 . S
C240 O242 1.263 . S
O241 Co238 1.970 1_554 S
O241 C240 1.258 . S
O242 Co239 1.966 . S
O242 C240 1.263 . S
C243 O244 1.235 . S
C243 O270 1.289 . S
O244 C243 1.235 . S
C245 C247 1.400 1_554 S
C245 N248 1.351 . S
C245 C250 1.501 . S
C246 C247 1.387 . S
C246 N249 1.341 1_556 S
C247 C245 1.400 1_556 S
C247 C246 1.387 . S
N248 Co239 2.022 . S
N248 C245 1.351 . S
N248 N249 1.365 . S
N249 C246 1.341 1_554 S
N249 N248 1.365 . S
N249 H269 0.862 . S
C250 C245 1.501 . S
C250 H251 0.961 . S
C250 H252 0.961 1_554 S
C250 H253 0.960 . S
H251 C250 0.961 . S
H252 C250 0.961 1_556 S
H253 C250 0.960 . S
C254 N255 1.342 . S
C254 C258 1.401 . S
C254 C259 1.499 . S
N255 Co238 1.989 . S
N255 C254 1.342 . S
N255 N256 1.388 . S
N256 Co239 1.993 1_556 S
N256 N255 1.388 . S
N256 C257 1.346 . S
C257 N256 1.346 . S
C257 C258 1.396 . S
C257 C267 1.510 . S
C258 C254 1.401 . S
C258 C257 1.396 . S
C259 C254 1.499 . S
C259 H260 0.959 . S
C259 H261 0.960 . S
C259 H262 0.961 . S
H260 C259 0.959 . S
H261 C259 0.960 . S
H262 C259 0.961 . S
O263 Co238 1.967 1_554 S
O263 C271 1.258 . S
O264 Co239 1.941 . S
O264 C271 1.266 . S
H265 C267 0.959 . S
H266 C267 0.961 . S
C267 C257 1.510 . S
C267 H265 0.959 . S
C267 H266 0.961 . S
C267 H268 0.960 . S
H268 C267 0.960 . S
H269 N249 0.862 . S
O270 Co238 1.920 . S
O270 C243 1.289 . S
C271 O263 1.258 . S
C271 O264 1.266 . S
Co272 O275 1.970 . S
Co272 N289 1.989 . S
Co272 O297 1.967 . S
Co272 O304 1.920 . S
Co273 O276 1.966 . S
Co273 N282 2.022 . S
Co273 N290 1.993 . S
Co273 O298 1.941 . S
C274 O275 1.258 . S
C274 O276 1.263 . S
O275 Co272 1.970 . S
O275 C274 1.258 . S
O276 Co273 1.966 . S
O276 C274 1.263 . S
C277 O278 1.235 . S
C277 O304 1.289 . S
O278 C277 1.235 . S
C279 C281 1.400 . S
C279 N282 1.351 . S
C279 C284 1.501 . S
C280 C281 1.387 . S
C280 N283 1.341 . S
C281 C279 1.400 . S
C281 C280 1.387 . S
N282 Co273 2.022 . S
N282 C279 1.351 . S
N282 N283 1.365 . S
N283 C280 1.341 . S
N283 N282 1.365 . S
N283 H303 0.862 . S
C284 C279 1.501 . S
C284 H285 0.961 . S
C284 H286 0.961 . S
C284 H287 0.960 . S
H285 C284 0.961 . S
H286 C284 0.961 . S
H287 C284 0.960 . S
C288 N289 1.342 . S
C288 C292 1.401 . S
C288 C293 1.499 . S
N289 Co272 1.989 . S
N289 C288 1.342 . S
N289 N290 1.388 . S
N290 Co273 1.993 . S
N290 N289 1.388 . S
N290 C291 1.346 . S
C291 N290 1.346 . S
C291 C292 1.396 . S
C291 C301 1.510 . S
C292 C288 1.401 . S
C292 C291 1.396 . S
C293 C288 1.499 . S
C293 H294 0.959 . S
C293 H295 0.960 . S
C293 H296 0.961 . S
H294 C293 0.959 . S
H295 C293 0.960 . S
H296 C293 0.961 . S
O297 Co272 1.967 . S
O297 C305 1.258 . S
O298 Co273 1.941 . S
O298 C305 1.266 . S
H299 C301 0.959 . S
H300 C301 0.961 . S
C301 C291 1.510 . S
C301 H299 0.959 . S
C301 H300 0.961 . S
C301 H302 0.960 . S
H302 C301 0.960 . S
H303 N283 0.862 . S
O304 Co272 1.920 . S
O304 C277 1.289 . S
C305 O297 1.258 . S
C305 O298 1.266 . S
Co306 O309 1.970 . S
Co306 N323 1.989 . S
Co306 O331 1.967 . S
Co306 O338 1.920 . S
Co307 O310 1.966 . S
Co307 N316 2.022 . S
Co307 N324 1.993 . S
Co307 O332 1.941 . S
C308 O309 1.258 . S
C308 O310 1.263 . S
O309 Co306 1.970 . S
O309 C308 1.258 . S
O310 Co307 1.966 . S
O310 C308 1.263 . S
C311 O312 1.235 . S
C311 O338 1.289 . S
O312 C311 1.235 . S
C313 C315 1.400 . S
C313 N316 1.351 . S
C313 C318 1.501 . S
C314 C315 1.387 . S
C314 N317 1.341 . S
C315 C313 1.400 . S
C315 C314 1.387 . S
N316 Co307 2.022 . S
N316 C313 1.351 . S
N316 N317 1.365 . S
N317 C314 1.341 . S
N317 N316 1.365 . S
N317 H337 0.862 . S
C318 C313 1.501 . S
C318 H319 0.961 . S
C318 H320 0.961 . S
C318 H321 0.960 . S
H319 C318 0.961 . S
H320 C318 0.961 . S
H321 C318 0.960 . S
C322 N323 1.342 . S
C322 C326 1.401 . S
C322 C327 1.499 . S
N323 Co306 1.989 . S
N323 C322 1.342 . S
N323 N324 1.388 . S
N324 Co307 1.993 . S
N324 N323 1.388 . S
N324 C325 1.346 . S
C325 N324 1.346 . S
C325 C326 1.396 . S
C325 C335 1.510 . S
C326 C322 1.401 . S
C326 C325 1.396 . S
C327 C322 1.499 . S
C327 H328 0.959 . S
C327 H329 0.960 . S
C327 H330 0.961 . S
H328 C327 0.959 . S
H329 C327 0.960 . S
H330 C327 0.961 . S
O331 Co306 1.967 . S
O331 C339 1.258 . S
O332 Co307 1.941 . S
O332 C339 1.266 . S
H333 C335 0.959 . S
H334 C335 0.961 . S
C335 C325 1.510 . S
C335 H333 0.959 . S
C335 H334 0.961 . S
C335 H336 0.960 . S
H336 C335 0.960 . S
H337 N317 0.862 . S
O338 Co306 1.920 . S
O338 C311 1.289 . S
C339 O331 1.258 . S
C339 O332 1.266 . S
Co340 O343 1.970 . S
Co340 N357 1.989 . S
Co340 O365 1.967 . S
Co340 O372 1.920 . S
Co341 O344 1.966 . S
Co341 N350 2.022 . S
Co341 N358 1.993 . S
Co341 O366 1.941 . S
C342 O343 1.258 . S
C342 O344 1.263 . S
O343 Co340 1.970 . S
O343 C342 1.258 . S
O344 Co341 1.966 . S
O344 C342 1.263 . S
C345 O346 1.235 . S
C345 O372 1.289 . S
O346 C345 1.235 . S
C347 C349 1.400 . S
C347 N350 1.351 . S
C347 C352 1.501 . S
C348 C349 1.387 . S
C348 N351 1.341 . S
C349 C347 1.400 . S
C349 C348 1.387 . S
N350 Co341 2.022 . S
N350 C347 1.351 . S
N350 N351 1.365 . S
N351 C348 1.341 . S
N351 N350 1.365 . S
N351 H371 0.862 . S
C352 C347 1.501 . S
C352 H353 0.961 . S
C352 H354 0.961 . S
C352 H355 0.960 . S
H353 C352 0.961 . S
H354 C352 0.961 . S
H355 C352 0.960 . S
C356 N357 1.342 . S
C356 C360 1.401 . S
C356 C361 1.499 . S
N357 Co340 1.989 . S
N357 C356 1.342 . S
N357 N358 1.388 . S
N358 Co341 1.993 . S
N358 N357 1.388 . S
N358 C359 1.346 . S
C359 N358 1.346 . S
C359 C360 1.396 . S
C359 C369 1.510 . S
C360 C356 1.401 . S
C360 C359 1.396 . S
C361 C356 1.499 . S
C361 H362 0.959 . S
C361 H363 0.960 . S
C361 H364 0.961 . S
H362 C361 0.959 . S
H363 C361 0.960 . S
H364 C361 0.961 . S
O365 Co340 1.967 . S
O365 C373 1.258 . S
O366 Co341 1.941 . S
O366 C373 1.266 . S
H367 C369 0.959 . S
H368 C369 0.961 . S
C369 C359 1.510 . S
C369 H367 0.959 . S
C369 H368 0.961 . S
C369 H370 0.960 . S
H370 C369 0.960 . S
H371 N351 0.862 . S
O372 Co340 1.920 . S
O372 C345 1.289 . S
C373 O365 1.258 . S
C373 O366 1.266 . S
Co374 O377 1.970 . S
Co374 N391 1.989 . S
Co374 O399 1.967 1_556 S
Co374 O406 1.920 . S
Co375 O378 1.966 . S
Co375 N384 2.022 . S
Co375 N392 1.993 . S
Co375 O400 1.941 . S
C376 O377 1.258 . S
C376 O378 1.263 1_556 S
O377 Co374 1.970 . S
O377 C376 1.258 . S
O378 Co375 1.966 . S
O378 C376 1.263 1_554 S
C379 O380 1.235 . S
C379 O406 1.289 . S
O380 C379 1.235 . S
C381 C383 1.400 . S
C381 N384 1.351 . S
C381 C386 1.501 . S
C382 C383 1.387 . S
C382 N385 1.341 . S
C383 C381 1.400 . S
C383 C382 1.387 . S
N384 Co375 2.022 . S
N384 C381 1.351 . S
N384 N385 1.365 . S
N385 C382 1.341 . S
N385 N384 1.365 . S
N385 H405 0.862 . S
C386 C381 1.501 . S
C386 H387 0.961 . S
C386 H388 0.961 . S
C386 H389 0.960 . S
H387 C386 0.961 . S
H388 C386 0.961 . S
H389 C386 0.960 . S
C390 N391 1.342 . S
C390 C394 1.401 . S
C390 C395 1.499 . S
N391 Co374 1.989 . S
N391 C390 1.342 . S
N391 N392 1.388 1_556 S
N392 Co375 1.993 . S
N392 N391 1.388 1_554 S
N392 C393 1.346 . S
C393 N392 1.346 . S
C393 C394 1.396 1_554 S
C393 C403 1.510 . S
C394 C390 1.401 . S
C394 C393 1.396 1_556 S
C395 C390 1.499 . S
C395 H396 0.959 . S
C395 H397 0.960 . S
C395 H398 0.961 . S
H396 C395 0.959 . S
H397 C395 0.960 . S
H398 C395 0.961 . S
O399 Co374 1.967 1_554 S
O399 C407 1.258 . S
O400 Co375 1.941 . S
O400 C407 1.266 . S
H401 C403 0.959 . S
H402 C403 0.961 . S
C403 C393 1.510 . S
C403 H401 0.959 . S
C403 H402 0.961 . S
C403 H404 0.960 . S
H404 C403 0.960 . S
H405 N385 0.862 . S
O406 Co374 1.920 . S
O406 C379 1.289 . S
C407 O399 1.258 . S
C407 O400 1.266 . S
H408 C414 0.930 . S
H409 C418 0.930 . S
H410 C423 0.929 . S
H411 C421 0.929 . S
H412 C416 0.929 . S
H413 C422 0.929 . S
C414 H408 0.930 . S
C414 C415 1.367 . S
C414 C422 1.378 . S
C415 C414 1.367 . S
C415 C423 1.433 . S
C416 H412 0.929 . S
C416 C418 1.378 . S
C416 C420 1.350 . S
C417 C420 1.463 . S
C417 C422 1.350 . S
C417 N425 1.427 . S
C418 H409 0.930 . S
C418 C416 1.378 . S
C418 C419 1.367 . S
C419 C418 1.367 . S
C419 C421 1.433 . S
C420 C416 1.350 . S
C420 C417 1.463 . S
C420 N424 1.427 . S
C421 H411 0.929 . S
C421 C419 1.433 . S
C421 N424 1.384 . S
C422 H413 0.929 . S
C422 C414 1.378 . S
C422 C417 1.350 . S
C423 H410 0.929 . S
C423 C415 1.433 . S
C423 N425 1.384 . S
N424 C420 1.427 . S
N424 C421 1.384 . S
N425 C417 1.427 . S
N425 C423 1.384 . S
H426 C432 0.930 . S
H427 C436 0.930 . S
H428 C441 0.929 . S
H429 C439 0.929 . S
H430 C434 0.929 . S
H431 C440 0.929 . S
C432 H426 0.930 . S
C432 C433 1.367 . S
C432 C440 1.378 . S
C433 C432 1.367 . S
C433 C441 1.433 . S
C434 H430 0.929 . S
C434 C436 1.378 . S
C434 C438 1.350 . S
C435 C438 1.463 . S
C435 C440 1.350 . S
C435 N443 1.427 . S
C436 H427 0.930 . S
C436 C434 1.378 . S
C436 C437 1.367 . S
C437 C436 1.367 . S
C437 C439 1.433 . S
C438 C434 1.350 . S
C438 C435 1.463 . S
C438 N442 1.427 . S
C439 H429 0.929 . S
C439 C437 1.433 . S
C439 N442 1.384 . S
C440 H431 0.929 . S
C440 C432 1.378 . S
C440 C435 1.350 . S
C441 H428 0.929 . S
C441 C433 1.433 . S
C441 N443 1.384 . S
N442 C438 1.427 . S
N442 C439 1.384 . S
N443 C435 1.427 . S
N443 C441 1.384 . S
H444 C450 0.930 . S
H445 C454 0.930 . S
H446 C459 0.929 . S
H447 C457 0.929 . S
H448 C452 0.929 . S
H449 C458 0.929 . S
C450 H444 0.930 . S
C450 C451 1.367 . S
C450 C458 1.378 . S
C451 C450 1.367 . S
C451 C459 1.433 . S
C452 H448 0.929 . S
C452 C454 1.378 . S
C452 C456 1.350 . S
C453 C456 1.463 1_544 S
C453 C458 1.350 . S
C453 N461 1.427 1_554 S
C454 H445 0.930 . S
C454 C452 1.378 . S
C454 C455 1.367 . S
C455 C454 1.367 . S
C455 C457 1.433 . S
C456 C452 1.350 . S
C456 C453 1.463 1_566 S
C456 N460 1.427 1_556 S
C457 H447 0.929 . S
C457 C455 1.433 . S
C457 N460 1.384 1_556 S
C458 H449 0.929 . S
C458 C450 1.378 . S
C458 C453 1.350 . S
C459 H446 0.929 . S
C459 C451 1.433 . S
C459 N461 1.384 1_554 S
N460 C456 1.427 1_554 S
N460 C457 1.384 1_554 S
N461 C453 1.427 1_556 S
N461 C459 1.384 1_556 S
H462 C468 0.930 . S
H463 C472 0.930 . S
H464 C477 0.929 . S
H465 C475 0.929 . S
H466 C470 0.929 . S
H467 C476 0.929 . S
C468 H462 0.930 . S
C468 C469 1.367 . S
C468 C476 1.378 . S
C469 C468 1.367 . S
C469 C477 1.433 . S
C470 H466 0.929 . S
C470 C472 1.378 . S
C470 C474 1.350 . S
C471 C474 1.463 . S
C471 C476 1.350 . S
C471 N479 1.427 . S
C472 H463 0.930 . S
C472 C470 1.378 . S
C472 C473 1.367 . S
C473 C472 1.367 . S
C473 C475 1.433 . S
C474 C470 1.350 . S
C474 C471 1.463 . S
C474 N478 1.427 . S
C475 H465 0.929 . S
C475 C473 1.433 . S
C475 N478 1.384 . S
C476 H467 0.929 . S
C476 C468 1.378 . S
C476 C471 1.350 . S
C477 H464 0.929 . S
C477 C469 1.433 . S
C477 N479 1.384 . S
N478 C474 1.427 . S
N478 C475 1.384 . S
N479 C471 1.427 . S
N479 C477 1.384 . S
H480 C486 0.930 . S
H481 C490 0.930 . S
H482 C495 0.929 . S
H483 C493 0.929 . S
H484 C488 0.929 . S
H485 C494 0.929 . S
C486 H480 0.930 . S
C486 C487 1.367 . S
C486 C494 1.378 . S
C487 C486 1.367 . S
C487 C495 1.433 . S
C488 H484 0.929 . S
C488 C490 1.378 . S
C488 C492 1.350 . S
C489 C492 1.463 . S
C489 C494 1.350 . S
C489 N497 1.427 . S
C490 H481 0.930 . S
C490 C488 1.378 . S
C490 C491 1.367 . S
C491 C490 1.367 . S
C491 C493 1.433 . S
C492 C488 1.350 . S
C492 C489 1.463 . S
C492 N496 1.427 . S
C493 H483 0.929 . S
C493 C491 1.433 . S
C493 N496 1.384 . S
C494 H485 0.929 . S
C494 C486 1.378 . S
C494 C489 1.350 . S
C495 H482 0.929 . S
C495 C487 1.433 . S
C495 N497 1.384 . S
N496 C492 1.427 . S
N496 C493 1.384 . S
N497 C489 1.427 . S
N497 C495 1.384 . S
H498 C504 0.930 . S
H499 C508 0.930 . S
H500 C513 0.929 . S
H501 C511 0.929 . S
H502 C506 0.929 . S
H503 C512 0.929 . S
C504 H498 0.930 . S
C504 C505 1.367 . S
C504 C512 1.378 . S
C505 C504 1.367 . S
C505 C513 1.433 . S
C506 H502 0.929 . S
C506 C508 1.378 . S
C506 C510 1.350 . S
C507 C510 1.463 1_565 S
C507 C512 1.350 . S
C507 N515 1.427 . S
C508 H499 0.930 . S
C508 C506 1.378 . S
C508 C509 1.367 . S
C509 C508 1.367 . S
C509 C511 1.433 . S
C510 C506 1.350 . S
C510 C507 1.463 1_545 S
C510 N514 1.427 . S
C511 H501 0.929 . S
C511 C509 1.433 . S
C511 N514 1.384 . S
C512 H503 0.929 . S
C512 C504 1.378 . S
C512 C507 1.350 . S
C513 H500 0.929 . S
C513 C505 1.433 . S
C513 N515 1.384 . S
N514 C510 1.427 . S
N514 C511 1.384 . S
N515 C507 1.427 . S
N515 C513 1.384 . S
H516 C522 0.930 1_556 S
H517 C526 0.930 . S
H518 C531 0.929 . S
H519 C529 0.929 . S
H520 C524 0.929 . S
H521 C530 0.929 . S
C522 H516 0.930 1_554 S
C522 C523 1.367 . S
C522 C530 1.378 . S
C523 C522 1.367 . S
C523 C531 1.433 . S
C524 H520 0.929 . S
C524 C526 1.378 . S
C524 C528 1.350 . S
C525 C528 1.463 . S
C525 C530 1.350 . S
C525 N533 1.427 . S
C526 H517 0.930 . S
C526 C524 1.378 . S
C526 C527 1.367 . S
C527 C526 1.367 . S
C527 C529 1.433 . S
C528 C524 1.350 . S
C528 C525 1.463 . S
C528 N532 1.427 . S
C529 H519 0.929 . S
C529 C527 1.433 . S
C529 N532 1.384 . S
C530 H521 0.929 . S
C530 C522 1.378 . S
C530 C525 1.350 . S
C531 H518 0.929 . S
C531 C523 1.433 . S
C531 N533 1.384 . S
N532 C528 1.427 . S
N532 C529 1.384 . S
N533 C525 1.427 . S
N533 C531 1.384 . S
H534 C540 0.930 . S
H535 C544 0.930 . S
H536 C549 0.929 . S
H537 C547 0.929 . S
H538 C542 0.929 . S
H539 C548 0.929 . S
C540 H534 0.930 . S
C540 C541 1.367 . S
C540 C548 1.378 . S
C541 C540 1.367 . S
C541 C549 1.433 . S
C542 H538 0.929 . S
C542 C544 1.378 . S
C542 C546 1.350 . S
C543 C546 1.463 . S
C543 C548 1.350 . S
C543 N551 1.427 . S
C544 H535 0.930 . S
C544 C542 1.378 . S
C544 C545 1.367 . S
C545 C544 1.367 . S
C545 C547 1.433 . S
C546 C542 1.350 . S
C546 C543 1.463 . S
C546 N550 1.427 . S
C547 H537 0.929 . S
C547 C545 1.433 . S
C547 N550 1.384 . S
C548 H539 0.929 . S
C548 C540 1.378 . S
C548 C543 1.350 . S
C549 H536 0.929 . S
C549 C541 1.433 . S
C549 N551 1.384 . S
N550 C546 1.427 . S
N550 C547 1.384 . S
N551 C543 1.427 . S
N551 C549 1.384 . S
H552 C558 0.930 . S
H553 C562 0.930 . S
H554 C567 0.929 . S
H555 C565 0.929 1_554 S
H556 C560 0.929 . S
H557 C566 0.929 . S
C558 H552 0.930 . S
C558 C559 1.367 . S
C558 C566 1.378 . S
C559 C558 1.367 . S
C559 C567 1.433 . S
C560 H556 0.929 . S
C560 C562 1.378 . S
C560 C564 1.350 . S
C561 C564 1.463 . S
C561 C566 1.350 . S
C561 N569 1.427 . S
C562 H553 0.930 . S
C562 C560 1.378 . S
C562 C563 1.367 . S
C563 C562 1.367 . S
C563 C565 1.433 . S
C564 C560 1.350 . S
C564 C561 1.463 . S
C564 N568 1.427 . S
C565 H555 0.929 1_556 S
C565 C563 1.433 . S
C565 N568 1.384 . S
C566 H557 0.929 . S
C566 C558 1.378 . S
C566 C561 1.350 . S
C567 H554 0.929 . S
C567 C559 1.433 . S
C567 N569 1.384 . S
N568 C564 1.427 . S
N568 C565 1.384 . S
N569 C561 1.427 . S
N569 C567 1.384 . S
H570 C576 0.930 . S
H571 C580 0.930 . S
H572 C585 0.929 . S
H573 C583 0.929 . S
H574 C578 0.929 . S
H575 C584 0.929 . S
C576 H570 0.930 . S
C576 C577 1.367 . S
C576 C584 1.378 . S
C577 C576 1.367 . S
C577 C585 1.433 . S
C578 H574 0.929 . S
C578 C580 1.378 . S
C578 C582 1.350 . S
C579 C582 1.463 . S
C579 C584 1.350 . S
C579 N587 1.427 . S
C580 H571 0.930 . S
C580 C578 1.378 . S
C580 C581 1.367 . S
C581 C580 1.367 . S
C581 C583 1.433 . S
C582 C578 1.350 . S
C582 C579 1.463 . S
C582 N586 1.427 . S
C583 H573 0.929 . S
C583 C581 1.433 . S
C583 N586 1.384 . S
C584 H575 0.929 . S
C584 C576 1.378 . S
C584 C579 1.350 . S
C585 H572 0.929 . S
C585 C577 1.433 . S
C585 N587 1.384 . S
N586 C582 1.427 . S
N586 C583 1.384 . S
N587 C579 1.427 . S
N587 C585 1.384 . S
H588 C594 0.930 . S
H589 C598 0.930 . S
H590 C603 0.929 . S
H591 C601 0.929 . S
H592 C596 0.929 . S
H593 C602 0.929 . S
C594 H588 0.930 . S
C594 C595 1.367 . S
C594 C602 1.378 . S
C595 C594 1.367 . S
C595 C603 1.433 . S
C596 H592 0.929 . S
C596 C598 1.378 . S
C596 C600 1.350 . S
C597 C600 1.463 . S
C597 C602 1.350 . S
C597 N605 1.427 . S
C598 H589 0.930 . S
C598 C596 1.378 . S
C598 C599 1.367 . S
C599 C598 1.367 . S
C599 C601 1.433 . S
C600 C596 1.350 . S
C600 C597 1.463 . S
C600 N604 1.427 . S
C601 H591 0.929 . S
C601 C599 1.433 . S
C601 N604 1.384 . S
C602 H593 0.929 . S
C602 C594 1.378 . S
C602 C597 1.350 . S
C603 H590 0.929 . S
C603 C595 1.433 . S
C603 N605 1.384 . S
N604 C600 1.427 . S
N604 C601 1.384 . S
N605 C597 1.427 . S
N605 C603 1.384 . S
H606 C612 0.930 . S
H607 C616 0.930 . S
H608 C621 0.929 . S
H609 C619 0.929 . S
H610 C614 0.929 . S
H611 C620 0.929 . S
C612 H606 0.930 . S
C612 C613 1.367 . S
C612 C620 1.378 . S
C613 C612 1.367 . S
C613 C621 1.433 . S
C614 H610 0.929 . S
C614 C616 1.378 . S
C614 C618 1.350 . S
C615 C618 1.463 . S
C615 C620 1.350 . S
C615 N623 1.427 . S
C616 H607 0.930 . S
C616 C614 1.378 . S
C616 C617 1.367 . S
C617 C616 1.367 . S
C617 C619 1.433 . S
C618 C614 1.350 . S
C618 C615 1.463 . S
C618 N622 1.427 . S
C619 H609 0.929 . S
C619 C617 1.433 . S
C619 N622 1.384 . S
C620 H611 0.929 . S
C620 C612 1.378 . S
C620 C615 1.350 . S
C621 H608 0.929 . S
C621 C613 1.433 . S
C621 N623 1.384 . S
N622 C618 1.427 . S
N622 C619 1.384 . S
N623 C615 1.427 . S
N623 C621 1.384 . S
H624 C630 0.930 . S
H625 C634 0.930 . S
H626 C639 0.929 . S
H627 C637 0.929 . S
H628 C632 0.929 . S
H629 C638 0.929 . S
C630 H624 0.930 . S
C630 C631 1.367 . S
C630 C638 1.378 . S
C631 C630 1.367 . S
C631 C639 1.433 . S
C632 H628 0.929 . S
C632 C634 1.378 . S
C632 C636 1.350 . S
C633 C636 1.463 . S
C633 C638 1.350 . S
C633 N641 1.427 . S
C634 H625 0.930 . S
C634 C632 1.378 . S
C634 C635 1.367 . S
C635 C634 1.367 . S
C635 C637 1.433 . S
C636 C632 1.350 . S
C636 C633 1.463 . S
C636 N640 1.427 . S
C637 H627 0.929 . S
C637 C635 1.433 . S
C637 N640 1.384 . S
C638 H629 0.929 . S
C638 C630 1.378 . S
C638 C633 1.350 . S
C639 H626 0.929 . S
C639 C631 1.433 . S
C639 N641 1.384 . S
N640 C636 1.427 . S
N640 C637 1.384 . S
N641 C633 1.427 . S
N641 C639 1.384 . S
H642 C648 0.930 . S
H643 C652 0.930 . S
H644 C657 0.929 . S
H645 C655 0.929 . S
H646 C650 0.929 . S
H647 C656 0.929 . S
C648 H642 0.930 . S
C648 C649 1.367 . S
C648 C656 1.378 . S
C649 C648 1.367 . S
C649 C657 1.433 . S
C650 H646 0.929 . S
C650 C652 1.378 . S
C650 C654 1.350 . S
C651 C654 1.463 . S
C651 C656 1.350 . S
C651 N659 1.427 . S
C652 H643 0.930 . S
C652 C650 1.378 . S
C652 C653 1.367 . S
C653 C652 1.367 . S
C653 C655 1.433 . S
C654 C650 1.350 . S
C654 C651 1.463 . S
C654 N658 1.427 . S
C655 H645 0.929 . S
C655 C653 1.433 . S
C655 N658 1.384 . S
C656 H647 0.929 . S
C656 C648 1.378 . S
C656 C651 1.350 . S
C657 H644 0.929 . S
C657 C649 1.433 . S
C657 N659 1.384 . S
N658 C654 1.427 . S
N658 C655 1.384 . S
N659 C651 1.427 . S
N659 C657 1.384 . S
H660 C666 0.930 . S
H661 C670 0.930 . S
H662 C675 0.929 . S
H663 C673 0.929 . S
H664 C668 0.929 . S
H665 C674 0.929 . S
C666 H660 0.930 . S
C666 C667 1.367 . S
C666 C674 1.378 . S
C667 C666 1.367 . S
C667 C675 1.433 . S
C668 H664 0.929 . S
C668 C670 1.378 . S
C668 C672 1.350 . S
C669 C672 1.463 . S
C669 C674 1.350 . S
C669 N677 1.427 . S
C670 H661 0.930 . S
C670 C668 1.378 . S
C670 C671 1.367 . S
C671 C670 1.367 . S
C671 C673 1.433 . S
C672 C668 1.350 . S
C672 C669 1.463 . S
C672 N676 1.427 . S
C673 H663 0.929 . S
C673 C671 1.433 . S
C673 N676 1.384 . S
C674 H665 0.929 . S
C674 C666 1.378 . S
C674 C669 1.350 . S
C675 H662 0.929 . S
C675 C667 1.433 . S
C675 N677 1.384 . S
N676 C672 1.427 . S
N676 C673 1.384 . S
N677 C669 1.427 . S
N677 C675 1.384 . S
H678 C684 0.930 . S
H679 C688 0.930 . S
H680 C693 0.929 1_554 S
H681 C691 0.929 . S
H682 C686 0.929 . S
H683 C692 0.929 . S
C684 H678 0.930 . S
C684 C685 1.367 . S
C684 C692 1.378 . S
C685 C684 1.367 . S
C685 C693 1.433 . S
C686 H682 0.929 . S
C686 C688 1.378 . S
C686 C690 1.350 . S
C687 C690 1.463 . S
C687 C692 1.350 . S
C687 N695 1.427 . S
C688 H679 0.930 . S
C688 C686 1.378 . S
C688 C689 1.367 . S
C689 C688 1.367 . S
C689 C691 1.433 . S
C690 C686 1.350 . S
C690 C687 1.463 . S
C690 N694 1.427 . S
C691 H681 0.929 . S
C691 C689 1.433 . S
C691 N694 1.384 . S
C692 H683 0.929 . S
C692 C684 1.378 . S
C692 C687 1.350 . S
C693 H680 0.929 1_556 S
C693 C685 1.433 . S
C693 N695 1.384 . S
N694 C690 1.427 . S
N694 C691 1.384 . S
N695 C687 1.427 . S
N695 C693 1.384 . S
H696 C702 0.930 . S
H697 C706 0.930 . S
H698 C711 0.929 . S
H699 C709 0.929 . S
H700 C704 0.929 . S
H701 C710 0.929 . S
C702 H696 0.930 . S
C702 C703 1.367 . S
C702 C710 1.378 . S
C703 C702 1.367 . S
C703 C711 1.433 . S
C704 H700 0.929 . S
C704 C706 1.378 . S
C704 C708 1.350 . S
C705 C708 1.463 . S
C705 C710 1.350 . S
C705 N713 1.427 . S
C706 H697 0.930 . S
C706 C704 1.378 . S
C706 C707 1.367 . S
C707 C706 1.367 . S
C707 C709 1.433 . S
C708 C704 1.350 . S
C708 C705 1.463 . S
C708 N712 1.427 . S
C709 H699 0.929 . S
C709 C707 1.433 . S
C709 N712 1.384 . S
C710 H701 0.929 . S
C710 C702 1.378 . S
C710 C705 1.350 . S
C711 H698 0.929 . S
C711 C703 1.433 . S
C711 N713 1.384 . S
N712 C708 1.427 . S
N712 C709 1.384 . S
N713 C705 1.427 . S
N713 C711 1.384 . S
H714 C720 0.930 . S
H715 C724 0.930 1_556 S
H716 C729 0.929 . S
H717 C727 0.929 . S
H718 C722 0.929 . S
H719 C728 0.929 . S
C720 H714 0.930 . S
C720 C721 1.367 . S
C720 C728 1.378 . S
C721 C720 1.367 . S
C721 C729 1.433 . S
C722 H718 0.929 . S
C722 C724 1.378 . S
C722 C726 1.350 . S
C723 C726 1.463 . S
C723 C728 1.350 . S
C723 N731 1.427 . S
C724 H715 0.930 1_554 S
C724 C722 1.378 . S
C724 C725 1.367 . S
C725 C724 1.367 . S
C725 C727 1.433 . S
C726 C722 1.350 . S
C726 C723 1.463 . S
C726 N730 1.427 . S
C727 H717 0.929 . S
C727 C725 1.433 . S
C727 N730 1.384 . S
C728 H719 0.929 . S
C728 C720 1.378 . S
C728 C723 1.350 . S
C729 H716 0.929 . S
C729 C721 1.433 . S
C729 N731 1.384 . S
N730 C726 1.427 . S
N730 C727 1.384 . S
N731 C723 1.427 . S
N731 C729 1.384 . S
H732 C738 0.930 . S
H733 C742 0.930 . S
H734 C747 0.929 . S
H735 C745 0.929 . S
H736 C740 0.929 . S
H737 C746 0.929 . S
C738 H732 0.930 . S
C738 C739 1.367 . S
C738 C746 1.378 . S
C739 C738 1.367 . S
C739 C747 1.433 . S
C740 H736 0.929 . S
C740 C742 1.378 . S
C740 C744 1.350 . S
C741 C744 1.463 . S
C741 C746 1.350 . S
C741 N749 1.427 . S
C742 H733 0.930 . S
C742 C740 1.378 . S
C742 C743 1.367 . S
C743 C742 1.367 . S
C743 C745 1.433 . S
C744 C740 1.350 . S
C744 C741 1.463 . S
C744 N748 1.427 . S
C745 H735 0.929 . S
C745 C743 1.433 . S
C745 N748 1.384 . S
C746 H737 0.929 . S
C746 C738 1.378 . S
C746 C741 1.350 . S
C747 H734 0.929 . S
C747 C739 1.433 . S
C747 N749 1.384 . S
N748 C744 1.427 . S
N748 C745 1.384 . S
N749 C741 1.427 . S
N749 C747 1.384 . S
H750 C756 0.930 . S
H751 C760 0.930 . S
H752 C765 0.929 . S
H753 C763 0.929 . S
H754 C758 0.929 . S
H755 C764 0.929 . S
C756 H750 0.930 . S
C756 C757 1.367 . S
C756 C764 1.378 . S
C757 C756 1.367 . S
C757 C765 1.433 . S
C758 H754 0.929 . S
C758 C760 1.378 . S
C758 C762 1.350 . S
C759 C762 1.463 . S
C759 C764 1.350 . S
C759 N767 1.427 . S
C760 H751 0.930 . S
C760 C758 1.378 . S
C760 C761 1.367 . S
C761 C760 1.367 . S
C761 C763 1.433 . S
C762 C758 1.350 . S
C762 C759 1.463 . S
C762 N766 1.427 . S
C763 H753 0.929 . S
C763 C761 1.433 . S
C763 N766 1.384 . S
C764 H755 0.929 . S
C764 C756 1.378 . S
C764 C759 1.350 . S
C765 H752 0.929 . S
C765 C757 1.433 . S
C765 N767 1.384 . S
N766 C762 1.427 . S
N766 C763 1.384 . S
N767 C759 1.427 . S
N767 C765 1.384 . S
H768 C774 0.930 . S
H769 C778 0.930 . S
H770 C783 0.929 . S
H771 C781 0.929 . S
H772 C776 0.929 . S
H773 C782 0.929 . S
C774 H768 0.930 . S
C774 C775 1.367 . S
C774 C782 1.378 . S
C775 C774 1.367 . S
C775 C783 1.433 . S
C776 H772 0.929 . S
C776 C778 1.378 . S
C776 C780 1.350 . S
C777 C780 1.463 . S
C777 C782 1.350 . S
C777 N785 1.427 . S
C778 H769 0.930 . S
C778 C776 1.378 . S
C778 C779 1.367 . S
C779 C778 1.367 . S
C779 C781 1.433 . S
C780 C776 1.350 . S
C780 C777 1.463 . S
C780 N784 1.427 . S
C781 H771 0.929 . S
C781 C779 1.433 . S
C781 N784 1.384 . S
C782 H773 0.929 . S
C782 C774 1.378 . S
C782 C777 1.350 . S
C783 H770 0.929 . S
C783 C775 1.433 . S
C783 N785 1.384 . S
N784 C780 1.427 . S
N784 C781 1.384 . S
N785 C777 1.427 . S
N785 C783 1.384 . S
H786 C792 0.930 . S
H787 C796 0.930 . S
H788 C801 0.929 . S
H789 C799 0.929 . S
H790 C794 0.929 . S
H791 C800 0.929 . S
C792 H786 0.930 . S
C792 C793 1.367 . S
C792 C800 1.378 . S
C793 C792 1.367 . S
C793 C801 1.433 . S
C794 H790 0.929 . S
C794 C796 1.378 . S
C794 C798 1.350 . S
C795 C798 1.463 . S
C795 C800 1.350 . S
C795 N803 1.427 . S
C796 H787 0.930 . S
C796 C794 1.378 . S
C796 C797 1.367 . S
C797 C796 1.367 . S
C797 C799 1.433 . S
C798 C794 1.350 . S
C798 C795 1.463 . S
C798 N802 1.427 . S
C799 H789 0.929 . S
C799 C797 1.433 . S
C799 N802 1.384 . S
C800 H791 0.929 . S
C800 C792 1.378 . S
C800 C795 1.350 . S
C801 H788 0.929 . S
C801 C793 1.433 . S
C801 N803 1.384 . S
N802 C798 1.427 . S
N802 C799 1.384 . S
N803 C795 1.427 . S
N803 C801 1.384 . S
H804 C810 0.930 . S
H805 C814 0.930 . S
H806 C819 0.929 . S
H807 C817 0.929 . S
H808 C812 0.929 . S
H809 C818 0.929 . S
C810 H804 0.930 . S
C810 C811 1.367 . S
C810 C818 1.378 . S
C811 C810 1.367 . S
C811 C819 1.433 . S
C812 H808 0.929 . S
C812 C814 1.378 . S
C812 C816 1.350 . S
C813 C816 1.463 . S
C813 C818 1.350 . S
C813 N821 1.427 . S
C814 H805 0.930 . S
C814 C812 1.378 . S
C814 C815 1.367 . S
C815 C814 1.367 . S
C815 C817 1.433 . S
C816 C812 1.350 . S
C816 C813 1.463 . S
C816 N820 1.427 . S
C817 H807 0.929 . S
C817 C815 1.433 . S
C817 N820 1.384 . S
C818 H809 0.929 . S
C818 C810 1.378 . S
C818 C813 1.350 . S
C819 H806 0.929 . S
C819 C811 1.433 . S
C819 N821 1.384 . S
N820 C816 1.427 . S
N820 C817 1.384 . S
N821 C813 1.427 . S
N821 C819 1.384 . S
H822 C828 0.930 . S
H823 C832 0.930 . S
H824 C837 0.929 . S
H825 C835 0.929 . S
H826 C830 0.929 . S
H827 C836 0.929 . S
C828 H822 0.930 . S
C828 C829 1.367 . S
C828 C836 1.378 . S
C829 C828 1.367 . S
C829 C837 1.433 . S
C830 H826 0.929 . S
C830 C832 1.378 . S
C830 C834 1.350 . S
C831 C834 1.463 . S
C831 C836 1.350 . S
C831 N839 1.427 . S
C832 H823 0.930 . S
C832 C830 1.378 . S
C832 C833 1.367 . S
C833 C832 1.367 . S
C833 C835 1.433 . S
C834 C830 1.350 . S
C834 C831 1.463 . S
C834 N838 1.427 . S
C835 H825 0.929 . S
C835 C833 1.433 . S
C835 N838 1.384 . S
C836 H827 0.929 . S
C836 C828 1.378 . S
C836 C831 1.350 . S
C837 H824 0.929 . S
C837 C829 1.433 . S
C837 N839 1.384 . S
N838 C834 1.427 . S
N838 C835 1.384 . S
N839 C831 1.427 . S
N839 C837 1.384 . S
H840 C846 0.930 . S
H841 C850 0.930 . S
H842 C855 0.929 . S
H843 C853 0.929 1_556 S
H844 C848 0.929 . S
H845 C854 0.929 . S
C846 H840 0.930 . S
C846 C847 1.367 . S
C846 C854 1.378 . S
C847 C846 1.367 . S
C847 C855 1.433 . S
C848 H844 0.929 . S
C848 C850 1.378 . S
C848 C852 1.350 . S
C849 C852 1.463 . S
C849 C854 1.350 . S
C849 N857 1.427 . S
C850 H841 0.930 . S
C850 C848 1.378 . S
C850 C851 1.367 . S
C851 C850 1.367 . S
C851 C853 1.433 . S
C852 C848 1.350 . S
C852 C849 1.463 . S
C852 N856 1.427 . S
C853 H843 0.929 1_554 S
C853 C851 1.433 . S
C853 N856 1.384 . S
C854 H845 0.929 . S
C854 C846 1.378 . S
C854 C849 1.350 . S
C855 H842 0.929 . S
C855 C847 1.433 . S
C855 N857 1.384 . S
N856 C852 1.427 . S
N856 C853 1.384 . S
N857 C849 1.427 . S
N857 C855 1.384 . S
H858 C864 0.930 1_554 S
H859 C868 0.930 . S
H860 C873 0.929 . S
H861 C871 0.929 . S
H862 C866 0.929 . S
H863 C872 0.929 . S
C864 H858 0.930 1_556 S
C864 C865 1.367 . S
C864 C872 1.378 . S
C865 C864 1.367 . S
C865 C873 1.433 . S
C866 H862 0.929 . S
C866 C868 1.378 . S
C866 C870 1.350 . S
C867 C870 1.463 . S
C867 C872 1.350 . S
C867 N875 1.427 . S
C868 H859 0.930 . S
C868 C866 1.378 . S
C868 C869 1.367 . S
C869 C868 1.367 . S
C869 C871 1.433 . S
C870 C866 1.350 . S
C870 C867 1.463 . S
C870 N874 1.427 . S
C871 H861 0.929 . S
C871 C869 1.433 . S
C871 N874 1.384 . S
C872 H863 0.929 . S
C872 C864 1.378 . S
C872 C867 1.350 . S
C873 H860 0.929 . S
C873 C865 1.433 . S
C873 N875 1.384 . S
N874 C870 1.427 . S
N874 C871 1.384 . S
N875 C867 1.427 . S
N875 C873 1.384 . S
H876 C882 0.930 . S
H877 C886 0.930 . S
H878 C891 0.929 . S
H879 C889 0.929 . S
H880 C884 0.929 . S
H881 C890 0.929 . S
C882 H876 0.930 . S
C882 C883 1.367 . S
C882 C890 1.378 . S
C883 C882 1.367 . S
C883 C891 1.433 . S
C884 H880 0.929 . S
C884 C886 1.378 . S
C884 C888 1.350 . S
C885 C888 1.463 . S
C885 C890 1.350 . S
C885 N893 1.427 . S
C886 H877 0.930 . S
C886 C884 1.378 . S
C886 C887 1.367 . S
C887 C886 1.367 . S
C887 C889 1.433 . S
C888 C884 1.350 . S
C888 C885 1.463 . S
C888 N892 1.427 . S
C889 H879 0.929 . S
C889 C887 1.433 . S
C889 N892 1.384 . S
C890 H881 0.929 . S
C890 C882 1.378 . S
C890 C885 1.350 . S
C891 H878 0.929 . S
C891 C883 1.433 . S
C891 N893 1.384 . S
N892 C888 1.427 . S
N892 C889 1.384 . S
N893 C885 1.427 . S
N893 C891 1.384 . S
H894 C900 0.930 . S
H895 C904 0.930 . S
H896 C909 0.929 . S
H897 C907 0.929 . S
H898 C902 0.929 . S
H899 C908 0.929 . S
C900 H894 0.930 . S
C900 C901 1.367 . S
C900 C908 1.378 . S
C901 C900 1.367 . S
C901 C909 1.433 . S
C902 H898 0.929 . S
C902 C904 1.378 . S
C902 C906 1.350 . S
C903 C906 1.463 . S
C903 C908 1.350 . S
C903 N911 1.427 . S
C904 H895 0.930 . S
C904 C902 1.378 . S
C904 C905 1.367 . S
C905 C904 1.367 . S
C905 C907 1.433 . S
C906 C902 1.350 . S
C906 C903 1.463 . S
C906 N910 1.427 . S
C907 H897 0.929 . S
C907 C905 1.433 . S
C907 N910 1.384 . S
C908 H899 0.929 . S
C908 C900 1.378 . S
C908 C903 1.350 . S
C909 H896 0.929 . S
C909 C901 1.433 . S
C909 N911 1.384 . S
N910 C906 1.427 . S
N910 C907 1.384 . S
N911 C903 1.427 . S
N911 C909 1.384 . S
H912 C918 0.930 1_655 S
H913 C922 0.930 . S
H914 C927 0.929 . S
H915 C925 0.929 . S
H916 C920 0.929 . S
H917 C926 0.929 . S
C918 H912 0.930 1_455 S
C918 C919 1.367 . S
C918 C926 1.378 . S
C919 C918 1.367 . S
C919 C927 1.433 . S
C920 H916 0.929 . S
C920 C922 1.378 . S
C920 C924 1.350 . S
C921 C924 1.463 . S
C921 C926 1.350 . S
C921 N929 1.427 . S
C922 H913 0.930 . S
C922 C920 1.378 . S
C922 C923 1.367 . S
C923 C922 1.367 . S
C923 C925 1.433 . S
C924 C920 1.350 . S
C924 C921 1.463 . S
C924 N928 1.427 . S
C925 H915 0.929 . S
C925 C923 1.433 . S
C925 N928 1.384 . S
C926 H917 0.929 . S
C926 C918 1.378 . S
C926 C921 1.350 . S
C927 H914 0.929 . S
C927 C919 1.433 . S
C927 N929 1.384 . S
N928 C924 1.427 . S
N928 C925 1.384 . S
N929 C921 1.427 . S
N929 C927 1.384 . S
H930 C936 0.930 . S
H931 C940 0.930 . S
H932 C945 0.929 . S
H933 C943 0.929 . S
H934 C938 0.929 . S
H935 C944 0.929 . S
C936 H930 0.930 . S
C936 C937 1.367 . S
C936 C944 1.378 . S
C937 C936 1.367 . S
C937 C945 1.433 . S
C938 H934 0.929 . S
C938 C940 1.378 . S
C938 C942 1.350 . S
C939 C942 1.463 . S
C939 C944 1.350 . S
C939 N947 1.427 . S
C940 H931 0.930 . S
C940 C938 1.378 . S
C940 C941 1.367 . S
C941 C940 1.367 . S
C941 C943 1.433 . S
C942 C938 1.350 . S
C942 C939 1.463 . S
C942 N946 1.427 . S
C943 H933 0.929 . S
C943 C941 1.433 . S
C943 N946 1.384 . S
C944 H935 0.929 . S
C944 C936 1.378 . S
C944 C939 1.350 . S
C945 H932 0.929 . S
C945 C937 1.433 . S
C945 N947 1.384 . S
N946 C942 1.427 . S
N946 C943 1.384 . S
N947 C939 1.427 . S
N947 C945 1.384 . S
C415 C339 0.574 . S
C419 C33 0.500 . S
C433 C67 0.575 . S
C437 C373 0.516 . S
C451 C407 0.843 . S
C455 C101 0.842 . S
C469 C135 0.516 . S
C473 C237 0.592 . S
C487 C169 0.544 . S
C491 C271 0.497 . S
C505 C305 1.087 . S
C509 C203 1.085 . S
C523 C9 1.700 . S
C527 C138 1.786 . S
C541 C172 1.436 . S
C545 C43 1.445 . S
C559 C77 1.691 . S
C563 C2 1.781 . S
C577 C111 1.720 . S
C581 C36 1.810 . S
C595 C70 1.363 . S
C599 C145 1.373 . S
C613 C104 1.927 . S
C617 C179 1.818 . S
C631 C274 1.432 . S
C635 C213 1.442 . S
C649 C247 1.707 . S
C653 C308 1.788 . S
C667 C342 1.923 . S
C671 C281 1.831 . S
C685 C376 1.358 . S
C689 C315 1.377 . S
C703 C206 1.810 . S
C707 C349 1.712 . S
C721 C383 1.706 . S
C725 C240 1.778 . S
C739 C360 1.170 . S
C743 C20 1.151 . S
C757 C394 1.337 . S
C761 C54 1.260 . S
C775 C88 1.336 . S
C779 C224 1.273 . S
C793 C122 1.156 . S
C797 C258 1.170 . S
C811 C292 1.390 . S
C815 C156 1.312 . S
C829 C190 1.387 . S
C833 C326 1.315 . S
C847 C209 1.009 . S
C851 C5 1.085 . S
C865 C243 1.094 . S
C869 C39 0.989 . S
C883 C73 0.881 . S
C887 C277 0.851 . S
C901 C311 0.977 . S
C905 C107 1.124 . S
C919 C141 0.989 . S
C923 C345 1.113 . S
C937 C379 0.855 . S
C941 C175 0.881 . S
