# Generated by pormake.
# Topology wjv, (5)-cn, num edge types: 1
# Building blocks:
#     Node 0, Type 0, BuildingBlock: XOMCOT_clean_sbu_1, # of connection points: 5
#     Node 1, Type 0, BuildingBlock: XOMCOT_clean_sbu_1, # of connection points: 5
#     Node 2, Type 0, BuildingBlock: XOMCOT_clean_sbu_1, # of connection points: 5
#     Node 3, Type 0, BuildingBlock: XOMCOT_clean_sbu_1, # of connection points: 5
#     Node 4, Type 0, BuildingBlock: XOMCOT_clean_sbu_1, # of connection points: 5
#     Node 5, Type 0, BuildingBlock: XOMCOT_clean_sbu_1, # of connection points: 5
#     Node 6, Type 0, BuildingBlock: XOMCOT_clean_sbu_1, # of connection points: 5
#     Node 7, Type 0, BuildingBlock: XOMCOT_clean_sbu_1, # of connection points: 5
#     Node 8, Type 0, BuildingBlock: XOMCOT_clean_sbu_1, # of connection points: 5
#     Node 9, Type 0, BuildingBlock: XOMCOT_clean_sbu_1, # of connection points: 5
#     Node 10, Type 0, BuildingBlock: XOMCOT_clean_sbu_1, # of connection points: 5
#     Node 11, Type 0, BuildingBlock: XOMCOT_clean_sbu_1, # of connection points: 5
#     Edge 12, Type (0, 0), BuildingBlock: EZIPEK_clean_linker_0, # of connection points: 2
#     Edge 13, Type (0, 0), BuildingBlock: EZIPEK_clean_linker_0, # of connection points: 2
#     Edge 14, Type (0, 0), BuildingBlock: EZIPEK_clean_linker_0, # of connection points: 2
#     Edge 15, Type (0, 0), BuildingBlock: EZIPEK_clean_linker_0, # of connection points: 2
#     Edge 16, Type (0, 0), BuildingBlock: EZIPEK_clean_linker_0, # of connection points: 2
#     Edge 17, Type (0, 0), BuildingBlock: EZIPEK_clean_linker_0, # of connection points: 2
#     Edge 18, Type (0, 0), BuildingBlock: EZIPEK_clean_linker_0, # of connection points: 2
#     Edge 19, Type (0, 0), BuildingBlock: EZIPEK_clean_linker_0, # of connection points: 2
#     Edge 20, Type (0, 0), BuildingBlock: EZIPEK_clean_linker_0, # of connection points: 2
#     Edge 21, Type (0, 0), BuildingBlock: EZIPEK_clean_linker_0, # of connection points: 2
#     Edge 22, Type (0, 0), BuildingBlock: EZIPEK_clean_linker_0, # of connection points: 2
#     Edge 23, Type (0, 0), BuildingBlock: EZIPEK_clean_linker_0, # of connection points: 2
#     Edge 24, Type (0, 0), BuildingBlock: EZIPEK_clean_linker_0, # of connection points: 2
#     Edge 25, Type (0, 0), BuildingBlock: EZIPEK_clean_linker_0, # of connection points: 2
#     Edge 26, Type (0, 0), BuildingBlock: EZIPEK_clean_linker_0, # of connection points: 2
#     Edge 27, Type (0, 0), BuildingBlock: EZIPEK_clean_linker_0, # of connection points: 2
#     Edge 28, Type (0, 0), BuildingBlock: EZIPEK_clean_linker_0, # of connection points: 2
#     Edge 29, Type (0, 0), BuildingBlock: EZIPEK_clean_linker_0, # of connection points: 2
#     Edge 30, Type (0, 0), BuildingBlock: EZIPEK_clean_linker_0, # of connection points: 2
#     Edge 31, Type (0, 0), BuildingBlock: EZIPEK_clean_linker_0, # of connection points: 2
#     Edge 32, Type (0, 0), BuildingBlock: EZIPEK_clean_linker_0, # of connection points: 2
#     Edge 33, Type (0, 0), BuildingBlock: EZIPEK_clean_linker_0, # of connection points: 2
#     Edge 34, Type (0, 0), BuildingBlock: EZIPEK_clean_linker_0, # of connection points: 2
#     Edge 35, Type (0, 0), BuildingBlock: EZIPEK_clean_linker_0, # of connection points: 2
#     Edge 36, Type (0, 0), BuildingBlock: EZIPEK_clean_linker_0, # of connection points: 2
#     Edge 37, Type (0, 0), BuildingBlock: EZIPEK_clean_linker_0, # of connection points: 2
#     Edge 38, Type (0, 0), BuildingBlock: EZIPEK_clean_linker_0, # of connection points: 2
#     Edge 39, Type (0, 0), BuildingBlock: EZIPEK_clean_linker_0, # of connection points: 2
#     Edge 40, Type (0, 0), BuildingBlock: EZIPEK_clean_linker_0, # of connection points: 2
#     Edge 41, Type (0, 0), BuildingBlock: EZIPEK_clean_linker_0, # of connection points: 2
# Relax obj value: 0.266
# Max RMSD: 0.167
# Mean RMSD: 0.167
data_MOF--net-wjv--node1-XOMCOT_clean_sbu_1--edge1-EZIPEK_clean_linker_0
_symmetry_space_group_name_H-M    P1
_symmetry_Int_Tables_number       1
_symmetry_cell_setting            triclinic
loop_
_symmetry_equiv_pos_as_xyz
'x, y, z'
_cell_length_a     26.028848
_cell_length_b     26.767165
_cell_length_c     37.580599
_cell_angle_alpha  89.631794
_cell_angle_beta   90.481899
_cell_angle_gamma 120.98595
loop_
_atom_site_label
_atom_site_type_symbol
_atom_site_fract_x
_atom_site_fract_y
_atom_site_fract_z
_atom_type_partial_charge
C0 C 0.16841 0.33826 0.28096 0.0
C1 C 0.18212 0.32064 0.31236 0.0
N2 N 0.2415 0.35303 0.31787 0.0
N3 N 0.21885 0.38092 0.26534 0.0
C4 C 0.26226 0.39059 0.28983 0.0
H5 H 0.12385 0.31945 0.27059 0.0
Co6 Co 0.23019 0.41318 0.21679 0.0
C7 C 0.35987 0.44938 0.19959 0.0
O8 O 0.33865 0.42131 0.16941 0.0
N9 N 0.24376 0.4487 0.17083 0.0
C10 C 0.29777 0.51767 0.13086 0.0
C11 C 0.28967 0.50384 0.1664 0.0
C12 C 0.22114 0.4325 0.13734 0.0
N13 N 0.25453 0.47265 0.11225 0.0
O14 O 0.13877 0.38147 0.21018 0.0
H15 H 0.31826 0.53139 0.18768 0.0
H16 H 0.18173 0.39215 0.13069 0.0
O17 O 0.32272 0.45023 0.222 0.0
C18 C 0.08781 0.33273 0.2081 0.0
O19 O 0.08569 0.28309 0.21294 0.0
N20 N 0.22263 0.34278 0.19817 0.0
C21 C 0.21263 0.23631 0.18436 0.0
C22 C 0.25619 0.27553 0.2075 0.0
C23 C 0.25871 0.32685 0.21483 0.0
C24 C 0.18321 0.30656 0.17268 0.0
C25 C 0.17627 0.25197 0.16595 0.0
H26 H 0.28936 0.35312 0.23485 0.0
H27 H 0.15263 0.31616 0.15971 0.0
H28 H 0.30888 0.42323 0.28669 0.0
H29 H 0.15091 0.28519 0.3293 0.0
H30 H 0.33434 0.55728 0.11959 0.0
H31 H 0.28523 0.26451 0.22204 0.0
H32 H 0.14155 0.22171 0.14796 0.0
C33 C 0.81952 0.22297 0.62677 0.0
C34 C 0.84831 0.22971 0.65897 0.0
N35 N 0.9078 0.25725 0.65312 0.0
N36 N 0.86014 0.24317 0.60034 0.0
C37 C 0.91352 0.26564 0.61762 0.0
H38 H 0.7719 0.20466 0.62286 0.0
Co39 Co 0.8464 0.25093 0.55146 0.0
C40 C 0.95736 0.37538 0.55898 0.0
O41 O 0.99769 0.36003 0.55914 0.0
N42 N 0.83218 0.26268 0.5039 0.0
C43 C 0.83029 0.30937 0.45511 0.0
C44 C 0.83925 0.31326 0.49122 0.0
C45 C 0.8165 0.22785 0.47497 0.0
N46 N 0.8156 0.25555 0.44499 0.0
O47 O 0.78923 0.16411 0.54462 0.0
H48 H 0.85059 0.3512 0.50701 0.0
H49 H 0.80675 0.18348 0.47553 0.0
O50 O 0.90122 0.33703 0.55691 0.0
C51 C 0.76752 0.1157 0.56181 0.0
O52 O 0.77976 0.11604 0.59577 0.0
N53 N 0.90953 0.23923 0.53748 0.0
C54 C 0.00957 0.23037 0.52757 0.0
C55 C 0.96492 0.19236 0.55063 0.0
C56 C 0.91512 0.19733 0.55506 0.0
C57 C 0.94885 0.27069 0.51091 0.0
C58 C 1.00045 0.26788 0.50601 0.0
H59 H 0.88368 0.17022 0.57499 0.0
H60 H 0.94361 0.30203 0.49562 0.0
H61 H 0.95631 0.28744 0.60461 0.0
H62 H 0.82728 0.2168 0.68481 0.0
H63 H 0.83326 0.34304 0.43761 0.0
H64 H 0.97077 0.16234 0.56721 0.0
H65 H 0.0345 0.29731 0.48752 0.0
C66 C 0.60416 0.80966 0.96206 0.0
C67 C 0.62594 0.8388 0.99375 0.0
N68 N 0.6591 0.89647 0.98699 0.0
N69 N 0.62635 0.84798 0.93492 0.0
C70 C 0.65739 0.90082 0.95112 0.0
H71 H 0.5737 0.76327 0.95897 0.0
Co72 Co 0.60593 0.83021 0.88631 0.0
C73 C 0.52955 0.88022 0.89589 0.0
O74 O 0.48775 0.82963 0.90848 0.0
N75 N 0.58046 0.81081 0.83903 0.0
C76 C 0.50922 0.7625 0.79837 0.0
C77 C 0.521 0.77562 0.83381 0.0
C78 C 0.60443 0.81838 0.80603 0.0
N79 N 0.56151 0.78923 0.7809 0.0
O80 O 0.63309 0.77168 0.88441 0.0
H81 H 0.48815 0.75976 0.85483 0.0
H82 H 0.65192 0.84378 0.8005 0.0
O83 O 0.57942 0.88671 0.88612 0.0
C84 C 0.65753 0.74928 0.90345 0.0
O85 O 0.66814 0.76262 0.93731 0.0
N86 N 0.68403 0.89054 0.87318 0.0
C87 C 0.7958 0.99169 0.87341 0.0
C88 C 0.74901 0.98888 0.85309 0.0
C89 C 0.69301 0.9372 0.85314 0.0
C90 C 0.7316 0.89207 0.89005 0.0
C91 C 0.78769 0.94193 0.89032 0.0
H92 H 0.65598 0.93622 0.83922 0.0
H93 H 0.72587 0.85772 0.90725 0.0
H94 H 0.67719 0.94181 0.93693 0.0
H95 H 0.61638 0.81921 1.01999 0.0
H96 H 0.4656 0.73523 0.78622 0.0
H97 H 0.75466 0.02709 0.83938 0.0
H98 H 0.8232 0.94306 0.90625 0.0
C99 C 0.80253 0.6104 0.29306 0.0
C100 C 0.79266 0.62549 0.32641 0.0
N101 N 0.73755 0.61828 0.32692 0.0
N102 N 0.75454 0.59474 0.27165 0.0
C103 C 0.71518 0.5983 0.29385 0.0
H104 H 0.84389 0.61395 0.28478 0.0
Co105 Co 0.75009 0.58612 0.21971 0.0
C106 C 0.62171 0.57179 0.21047 0.0
O107 O 0.64124 0.62364 0.19675 0.0
N108 N 0.7421 0.57786 0.16903 0.0
C109 C 0.71807 0.592 0.11425 0.0
C110 C 0.72378 0.60808 0.14894 0.0
C111 C 0.74669 0.54269 0.14494 0.0
N112 N 0.73482 0.55259 0.11121 0.0
O113 O 0.84065 0.61079 0.21877 0.0
H114 H 0.71889 0.64341 0.15788 0.0
H115 H 0.76223 0.51322 0.15154 0.0
O116 O 0.65937 0.5564 0.22039 0.0
C117 C 0.8807 0.61618 0.19619 0.0
O118 O 0.86403 0.59991 0.16328 0.0
N119 N 0.77558 0.66633 0.21519 0.0
C120 C 0.82191 0.78549 0.21429 0.0
C121 C 0.76782 0.74822 0.23114 0.0
C122 C 0.74679 0.68929 0.23238 0.0
C123 C 0.8259 0.70241 0.19579 0.0
C124 C 0.85175 0.76254 0.19658 0.0
H125 H 0.70651 0.6625 0.24683 0.0
H126 H 0.84634 0.68539 0.17899 0.0
H127 H 0.67252 0.59155 0.28533 0.0
H128 H 0.82495 0.64359 0.34797 0.0
H129 H 0.71004 0.61341 0.09218 0.0
H130 H 0.74261 0.76485 0.24409 0.0
H131 H 0.89319 0.79044 0.18256 0.0
C132 C 0.18886 0.80048 0.62774 0.0
C133 C 0.16265 0.78926 0.66102 0.0
N134 N 0.11237 0.73599 0.66074 0.0
N135 N 0.15319 0.7561 0.60564 0.0
C136 C 0.11002 0.71627 0.62743 0.0
H137 H 0.22672 0.84162 0.61923 0.0
Co138 Co 0.14872 0.75444 0.55437 0.0
C139 C 0.04404 0.62431 0.55857 0.0
O140 O 1.00069 0.63564 0.55881 0.0
N141 N 0.14624 0.74967 0.50337 0.0
C142 C 0.11707 0.71526 0.44834 0.0
C143 C 0.10469 0.7045 0.48362 0.0
C144 C 0.18705 0.78495 0.47869 0.0
N145 N 0.16927 0.76568 0.44499 0.0
O146 O 0.20259 0.84329 0.55148 0.0
H147 H 0.06681 0.66511 0.49366 0.0
H148 H 0.22963 0.82313 0.48514 0.0
O149 O 0.09895 0.66648 0.55718 0.0
C150 C 0.19487 0.87965 0.53282 0.0
O151 O 0.14698 0.85975 0.51253 0.0
N152 N 0.07974 0.76489 0.55619 0.0
C153 C 0.98981 0.79153 0.56315 0.0
C154 C 0.03788 0.81503 0.58646 0.0
C155 C 0.08279 0.80256 0.58188 0.0
C156 C 0.03262 0.7432 0.53253 0.0
C157 C 0.98725 0.75593 0.53558 0.0
H158 H 0.12127 0.82632 0.59849 0.0
H159 H 0.02709 0.71439 0.51156 0.0
H160 H 0.07396 0.67509 0.61859 0.0
H161 H 0.17727 0.81988 0.68284 0.0
H162 H 0.09101 0.6867 0.42666 0.0
H163 H 0.04131 0.84379 0.60773 0.0
H164 H 0.94968 0.73687 0.51717 0.0
C165 C 0.44741 0.1709 0.95303 0.0
C166 C 0.42548 0.14438 0.98557 0.0
N167 N 0.38427 0.08789 0.97984 0.0
N168 N 0.41815 0.13219 0.9267 0.0
C169 C 0.38177 0.08151 0.94413 0.0
H170 H 0.48284 0.21558 0.94884 0.0
Co171 Co 0.43269 0.14351 0.87695 0.0
C172 C 0.49306 0.0785 0.89535 0.0
O173 O 0.52827 0.12154 0.91671 0.0
N174 N 0.45078 0.15561 0.8282 0.0
C175 C 0.5123 0.19119 0.78186 0.0
C176 C 0.50816 0.17945 0.81775 0.0
C177 C 0.42049 0.15303 0.79795 0.0
N178 N 0.45726 0.17473 0.76947 0.0
O179 O 0.41298 0.20706 0.87398 0.0
H180 H 0.54513 0.18965 0.83556 0.0
H181 H 0.37305 0.13708 0.79673 0.0
O182 O 0.45225 0.08103 0.87766 0.0
C183 C 0.39729 0.23681 0.89283 0.0
O184 O 0.39534 0.23123 0.92757 0.0
N185 N 0.351 0.08767 0.86778 0.0
C186 C 0.23351 0.99579 0.87016 0.0
C187 C 0.24952 0.04786 0.88696 0.0
C188 C 0.30844 0.09311 0.88559 0.0
C189 C 0.33454 0.03865 0.84834 0.0
C190 C 0.27552 0.99157 0.84937 0.0
H191 H 0.32032 0.12981 0.9023 0.0
H192 H 0.36769 0.03428 0.83381 0.0
H193 H 0.35514 0.04014 0.93093 0.0
H194 H 0.4401 0.16442 1.0115 0.0
H195 H 0.55287 0.21198 0.7662 0.0
H196 H 0.21787 0.05181 0.90349 0.0
H197 H 0.26375 0.95124 0.83607 0.0
C198 C 0.63799 0.78406 0.45435 0.0
C199 C 0.65959 0.76912 0.42564 0.0
N200 N 0.64939 0.7149 0.43057 0.0
N201 N 0.61724 0.74153 0.47924 0.0
C202 C 0.62165 0.69846 0.46264 0.0
H203 H 0.63651 0.82342 0.45601 0.0
Co204 Co 0.58882 0.74347 0.52692 0.0
C205 C 0.55799 0.62601 0.55621 0.0
O206 O 0.5913 0.65264 0.5842 0.0
N207 N 0.55712 0.74319 0.57291 0.0
C208 C 0.4907 0.74085 0.61129 0.0
C209 C 0.50256 0.73713 0.57597 0.0
C210 C 0.57693 0.74954 0.60724 0.0
N211 N 0.53827 0.74993 0.63086 0.0
O212 O 0.61772 0.83015 0.52278 0.0
H213 H 0.47355 0.73145 0.55365 0.0
H214 H 0.61856 0.75332 0.61553 0.0
O215 O 0.55578 0.6577 0.53126 0.0
C216 C 0.66818 0.87707 0.51623 0.0
O217 O 0.71395 0.87258 0.50621 0.0
N218 N 0.66416 0.76216 0.54703 0.0
C219 C 0.77985 0.79647 0.56811 0.0
C220 C 0.74685 0.74689 0.54726 0.0
C221 C 0.68894 0.7301 0.53745 0.0
C222 C 0.6957 0.80946 0.56892 0.0
C223 C 0.75371 0.82725 0.57999 0.0
H224 H 0.66423 0.69078 0.52242 0.0
H225 H 0.67664 0.83466 0.57772 0.0
H226 H 0.6056 0.65572 0.47391 0.0
H227 H 0.6803 0.79595 0.40236 0.0
H228 H 0.45119 0.73919 0.6217 0.0
H229 H 0.76586 0.72127 0.53859 0.0
H230 H 0.7782 0.86508 0.59693 0.0
C231 C 0.84674 0.61406 0.79843 0.0
C232 C 0.87482 0.63441 0.7661 0.0
N233 N 0.92678 0.63504 0.76709 0.0
N234 N 0.88206 0.60485 0.82078 0.0
C235 C 0.9283 0.61408 0.79957 0.0
H236 H 0.80331 0.60711 0.80508 0.0
Co237 Co 0.87072 0.5877 0.87116 0.0
C238 C 0.974 0.5596 0.87712 0.0
O239 O 0.0144 0.60813 0.89248 0.0
N240 N 0.85937 0.5688 0.92036 0.0
C241 C 0.88418 0.56452 0.97666 0.0
C242 C 0.90491 0.58103 0.94296 0.0
C243 C 0.81067 0.54613 0.94183 0.0
N244 N 0.82508 0.54384 0.97638 0.0
O245 O 0.81269 0.6171 0.87381 0.0
H246 H 0.95153 0.60598 0.93656 0.0
H247 H 0.76657 0.53552 0.93287 0.0
O248 O 0.92211 0.55123 0.86868 0.0
C249 C 0.81504 0.66475 0.86469 0.0
O250 O 0.8636 0.70616 0.84916 0.0
N251 N 0.93635 0.66461 0.88298 0.0
C252 C 0.02257 0.78094 0.89451 0.0
C253 C 0.03407 0.74715 0.8719 0.0
C254 C 0.99044 0.68955 0.86637 0.0
C255 C 0.92734 0.69642 0.90804 0.0
C256 C 0.96936 0.75529 0.91365 0.0
H257 H 1.00193 0.66583 0.84895 0.0
H258 H 0.8861 0.67733 0.92259 0.0
H259 H 0.96394 0.60718 0.80756 0.0
H260 H 0.85871 0.6484 0.74377 0.0
H261 H 0.91164 0.57419 1.00037 0.0
H262 H 0.07613 0.76577 0.85772 0.0
H263 H 0.95998 0.78056 0.93204 0.0
C264 C 0.20519 0.94025 0.1436 0.0
C265 C 0.22289 0.96182 0.10981 0.0
N266 N 0.25774 0.94269 0.09664 0.0
N267 N 0.22914 0.90777 0.15279 0.0
C268 C 0.25842 0.90775 0.12296 0.0
H269 H 0.17846 0.95001 0.16072 0.0
Co270 Co 0.23389 0.88066 0.19953 0.0
C271 C 0.36699 0.92897 0.20636 0.0
O272 O 0.36214 0.94071 0.23963 0.0
N273 N 0.24186 0.85329 0.24442 0.0
C274 C 0.27092 0.80762 0.28177 0.0
C275 C 0.26747 0.82051 0.2469 0.0
C276 C 0.22714 0.85708 0.27843 0.0
N277 N 0.24393 0.82904 0.30162 0.0
O278 O 0.1857 0.79801 0.18427 0.0
H279 H 0.28281 0.80669 0.22447 0.0
H280 H 0.20299 0.8782 0.28612 0.0
O281 O 0.31914 0.90093 0.18696 0.0
C282 C 0.13139 0.78836 0.18529 0.0
O283 O 0.12496 0.83383 0.18467 0.0
N284 N 0.26072 0.95491 0.2177 0.0
C285 C 0.24688 0.05027 0.21713 0.0
C286 C 0.30394 0.05805 0.21266 0.0
C287 C 0.3096 0.00897 0.21187 0.0
C288 C 0.20873 0.94933 0.22957 0.0
C289 C 0.20008 0.99614 0.22844 0.0
H290 H 0.35178 0.0152 0.20418 0.0
H291 H 0.1704 0.90658 0.23445 0.0
H292 H 0.27895 0.88169 0.12091 0.0
H293 H 0.21261 0.99152 0.09631 0.0
H294 H 0.28879 0.78149 0.29166 0.0
H295 H 0.3417 0.10023 0.20535 0.0
H296 H 0.15561 0.98872 0.23297 0.0
C297 C 0.39152 0.23114 0.44601 0.0
C298 C 0.36894 0.24215 0.41563 0.0
N299 N 0.35922 0.28598 0.42222 0.0
N300 N 0.39288 0.26498 0.47292 0.0
C301 C 0.37662 0.30061 0.45657 0.0
H302 H 0.40411 0.19857 0.44862 0.0
Co303 Co 0.41535 0.25758 0.52112 0.0
C304 C 0.47794 0.37807 0.55112 0.0
O305 O 0.45165 0.35396 0.58136 0.0
N306 N 0.44083 0.24981 0.5672 0.0
C307 C 0.50266 0.24218 0.60533 0.0
C308 C 0.4945 0.25388 0.5707 0.0
C309 C 0.41704 0.23548 0.60048 0.0
N310 N 0.45393 0.23064 0.62396 0.0
O311 O 0.3681 0.1695 0.51865 0.0
H312 H 0.52532 0.26358 0.549 0.0
H313 H 0.37393 0.2287 0.60783 0.0
O314 O 0.46631 0.34456 0.52419 0.0
C315 C 0.3219 0.12806 0.50276 0.0
O316 O 0.29327 0.14063 0.47877 0.0
N317 N 0.34689 0.25799 0.53962 0.0
C318 C 0.2361 0.24748 0.54736 0.0
C319 C 0.28506 0.30026 0.5368 0.0
C320 C 0.34035 0.30503 0.53394 0.0
C321 C 0.30066 0.20889 0.55488 0.0
C322 C 0.24456 0.20278 0.5591 0.0
H323 H 0.37614 0.34603 0.52453 0.0
H324 H 0.30567 0.17287 0.56283 0.0
H325 H 0.37775 0.33734 0.46879 0.0
H326 H 0.36016 0.21945 0.39053 0.0
H327 H 0.54094 0.24123 0.61595 0.0
H328 H 0.27995 0.33652 0.52895 0.0
H329 H 0.2074 0.16237 0.56921 0.0
C330 C 0.13293 0.29533 0.80306 0.0
C331 C 0.09914 0.27598 0.77256 0.0
N332 N 0.08745 0.3168 0.76137 0.0
N333 N 0.14302 0.34853 0.81211 0.0
C334 C 0.11553 0.36096 0.78531 0.0
H335 H 0.14314 0.26854 0.81918 0.0
Co336 Co 0.17162 0.38561 0.85835 0.0
C337 C 0.08098 0.41647 0.87973 0.0
O338 O 0.07279 0.38538 0.90863 0.0
N339 N 0.20227 0.42599 0.90258 0.0
C340 C 0.22418 0.49827 0.94031 0.0
C341 C 0.21053 0.47985 0.90583 0.0
C342 C 0.21852 0.41611 0.93523 0.0
N343 N 0.22907 0.45813 0.95927 0.0
O344 O 0.23103 0.35835 0.86091 0.0
H345 H 0.20422 0.5037 0.88462 0.0
H346 H 0.22337 0.37951 0.94167 0.0
O347 O 0.11732 0.41884 0.85575 0.0
C348 C 0.23394 0.31248 0.86697 0.0
O349 O 0.18516 0.26212 0.87294 0.0
N350 N 0.10772 0.31565 0.88062 0.0
C351 C 0.00985 0.2071 0.89809 0.0
C352 C 1.00489 0.24054 0.8716 0.0
C353 C 0.0537 0.29423 0.86362 0.0
C354 C 0.11106 0.28553 0.90931 0.0
C355 C 0.06247 0.23046 0.91839 0.0
H356 H 0.04796 0.31826 0.84284 0.0
H357 H 0.15226 0.30031 0.92338 0.0
H358 H 0.11273 0.39985 0.78457 0.0
H359 H 0.08096 0.23327 0.76078 0.0
H360 H 0.22813 0.53767 0.95083 0.0
H361 H 0.96407 0.22421 0.85604 0.0
H362 H 0.06706 0.20523 0.93946 0.0
C363 C 0.82067 0.08506 0.15282 0.0
C364 C 0.81804 0.0632 0.11934 0.0
N365 N 0.7707 0.05899 0.10196 0.0
N366 N 0.77458 0.09393 0.15732 0.0
C367 C 0.74719 0.08095 0.12488 0.0
H368 H 0.8519 0.08996 0.17361 0.0
Co369 Co 0.757 0.11281 0.20325 0.0
C370 C 0.62171 0.04185 0.17312 0.0
O371 O 0.62871 0.01177 0.14849 0.0
N372 N 0.74004 0.13149 0.24892 0.0
C373 C 0.69055 0.12182 0.2991 0.0
C374 C 0.68569 0.10341 0.26475 0.0
C375 C 0.77725 0.16787 0.2746 0.0
N376 N 0.74806 0.16219 0.30532 0.0
O377 O 0.79209 0.19416 0.1879 0.0
H378 H 0.64454 0.07023 0.25291 0.0
H379 H 0.82516 0.19572 0.27169 0.0
O380 O 0.66737 0.08099 0.19115 0.0
C381 C 0.84703 0.21189 0.19716 0.0
O382 O 0.85857 0.17419 0.21186 0.0
N383 N 0.7413 0.0412 0.22113 0.0
C384 C 0.77652 0.96072 0.2308 0.0
C385 C 0.72384 0.94544 0.2118 0.0
C386 C 0.70794 0.98732 0.20637 0.0
C387 C 0.78677 0.05255 0.24428 0.0
C388 C 0.8063 0.01365 0.24869 0.0
H389 H 0.67271 0.97765 0.18797 0.0
H390 H 0.81403 0.09513 0.25573 0.0
H391 H 0.70983 0.08608 0.11808 0.0
H392 H 0.84572 0.04692 0.10961 0.0
H393 H 0.65473 0.10629 0.31834 0.0
H394 H 0.69974 0.90437 0.19771 0.0
H395 H 0.84738 0.027 0.26337 0.0
C396 C 0.35388 0.32131 0.36164 0.0
C397 C 0.33398 0.31016 0.3974 0.0
C398 C 0.26196 0.34106 0.38163 0.0
C399 C 0.27518 0.34205 0.34497 0.0
N400 N 0.31998 0.31164 0.30099 0.0
N401 N 0.25811 0.29815 0.43923 0.0
C402 C 0.3179 0.32687 0.33513 0.0
C403 C 0.28528 0.31748 0.40704 0.0
N404 N 0.4073 0.3269 0.35282 0.0
N405 N 0.22715 0.36261 0.39221 0.0
H406 H 0.26986 0.27606 0.45728 0.0
H407 H 0.21935 0.29796 0.44621 0.0
H408 H 0.21053 0.38084 0.37425 0.0
H409 H 0.22006 0.36759 0.41888 0.0
H410 H 0.42513 0.33854 0.32729 0.0
H411 H 0.43653 0.32678 0.37194 0.0
H412 H 0.34769 0.29639 0.29288 0.0
H413 H 0.28736 0.30574 0.28262 0.0
C414 C 0.95415 0.30353 0.71111 0.0
C415 C 0.95571 0.27629 0.67929 0.0
C416 C 0.0529 0.2906 0.69874 0.0
C417 C 0.04545 0.30816 0.73289 0.0
N418 N 0.97427 0.30762 0.77368 0.0
N419 N 1.00148 0.23106 0.64738 0.0
C420 C 0.99227 0.30873 0.73974 0.0
C421 C 1.00402 0.26656 0.6741 0.0
N422 N 0.91726 0.3254 0.71408 0.0
N423 N 0.10643 0.2964 0.69001 0.0
H424 H 0.96374 0.20762 0.63131 0.0
H425 H 0.03356 0.21924 0.64415 0.0
H426 H 0.14332 0.31542 0.70721 0.0
H427 H 0.11553 0.28768 0.66464 0.0
H428 H 0.91775 0.34852 0.73646 0.0
H429 H 0.89227 0.32678 0.69267 0.0
H430 H 0.93325 0.30357 0.77979 0.0
H431 H 0.99628 0.30214 0.79508 0.0
C432 C 0.7476 0.9882 1.01143 0.0
C433 C 0.68633 0.94263 1.01346 0.0
C434 C 0.68464 0.97063 0.07488 0.0
C435 C 0.74166 0.02172 0.07129 0.0
N436 N 0.82478 0.08327 1.03338 0.0
N437 N 0.59258 0.90453 0.04453 0.0
C438 C 0.77221 0.03206 1.03849 0.0
C439 C 0.65349 0.9387 0.04426 0.0
N440 N 0.78358 0.98734 0.98559 0.0
N441 N 0.66301 0.94846 0.10769 0.0
H442 H 0.56784 0.88363 1.02172 0.0
H443 H 0.56713 0.90312 0.06625 0.0
H444 H 0.68943 0.96558 0.1304 0.0
H445 H 0.62316 0.90881 0.11143 0.0
H446 H 0.82967 0.01662 0.98491 0.0
H447 H 0.76862 0.95385 0.96707 0.0
H448 H 0.84673 0.0952 1.00898 0.0
H449 H 0.8432 0.11571 0.05279 0.0
C450 C 0.71093 0.62453 0.39056 0.0
C451 C 0.71302 0.63937 0.354 0.0
C452 C 0.65774 0.68797 0.36861 0.0
C453 C 0.66521 0.68315 0.40562 0.0
N454 N 0.71348 0.65655 0.45106 0.0
N455 N 0.7106 0.70778 0.31356 0.0
C456 C 0.69538 0.65354 0.41661 0.0
C457 C 0.69186 0.67683 0.34429 0.0
N458 N 0.72329 0.58274 0.4005 0.0
N459 N 0.6185 0.70357 0.35642 0.0
H460 H 0.74651 0.71041 0.29993 0.0
H461 H 0.69891 0.73829 0.30613 0.0
H462 H 0.58952 0.70797 0.37337 0.0
H463 H 0.61023 0.70496 0.32931 0.0
H464 H 0.71776 0.567 0.42649 0.0
H465 H 0.73307 0.55995 0.38202 0.0
H466 H 0.73973 0.63965 0.45958 0.0
H467 H 0.7088 0.68201 0.47 0.0
C468 C 0.08031 0.71654 0.72466 0.0
C469 C 0.06561 0.70931 0.68783 0.0
C470 C 0.9603 0.64228 0.70456 0.0
C471 C 0.97387 0.65877 0.74054 0.0
N472 N 0.04644 0.72875 0.78161 0.0
N473 N 0.98438 0.67967 0.64518 0.0
C474 C 0.03395 0.70063 0.74988 0.0
C475 C 1.00355 0.67575 0.67825 0.0
N476 N 0.13753 0.73652 0.73594 0.0
N477 N 0.90633 0.59507 0.69535 0.0
H478 H 0.01176 0.71144 0.62692 0.0
H479 H 0.93928 0.65617 0.63805 0.0
H480 H 0.87476 0.5685 0.71427 0.0
H481 H 0.8963 0.57891 0.66945 0.0
H482 H 0.14874 0.73917 0.76287 0.0
H483 H 0.17147 0.74279 0.71866 0.0
H484 H 0.08943 0.76215 0.78861 0.0
H485 H 0.01234 0.72473 0.79787 0.0
C486 C 0.28859 0.01272 1.00749 0.0
C487 C 0.35206 0.04292 1.00642 0.0
C488 C 0.35272 0.98879 0.05973 0.0
C489 C 0.28915 0.9625 0.06255 0.0
N490 N 0.19708 0.93095 1.03115 0.0
N491 N 0.44416 0.05159 1.02634 0.0
C492 C 0.25749 0.96839 1.0335 0.0
C493 C 0.38397 0.02832 1.03104 0.0
N494 N 0.25815 0.02918 0.98524 0.0
N495 N 0.38347 0.97609 0.08402 0.0
H496 H 0.46797 0.08051 1.00583 0.0
H497 H 0.47067 0.04009 1.04086 0.0
H498 H 0.36311 0.94155 0.1016 0.0
H499 H 0.42985 -0.00169 0.08635 0.0
H500 H 0.21223 0.01258 0.98688 0.0
H501 H 0.27962 0.06339 0.96713 0.0
H502 H 0.17122 0.92943 1.00942 0.0
H503 H 0.17427 0.89717 0.0495 0.0
C504 C 0.21058 0.40881 1.01931 0.0
C505 C 0.23903 0.45985 0.99765 0.0
C506 C 0.26644 0.51781 0.05208 0.0
C507 C 0.24842 0.46768 0.07358 0.0
N508 N 0.22424 0.36707 0.07293 0.0
N509 N 0.315 0.5625 0.99691 0.0
C510 C 0.22668 0.41337 0.05594 0.0
C511 C 0.27373 0.51435 1.01507 0.0
N512 N 0.1657 0.35697 1.00636 0.0
N513 N 0.27319 0.56772 0.06604 0.0
H514 H 0.32658 0.56029 0.9707 0.0
H515 H 0.3428 0.60226 1.00955 0.0
H516 H 0.25995 0.56973 0.09184 0.0
H517 H 0.28362 0.60393 0.05025 0.0
H518 H 0.14264 0.32016 1.02251 0.0
H519 H 0.14566 0.353 0.98164 0.0
H520 H 0.21109 0.32796 0.05986 0.0
H521 H 0.2436 0.37061 0.09787 0.0
C522 C 0.74547 0.22138 0.35402 0.0
C523 C 0.7713 0.19125 0.33884 0.0
C524 C 0.83277 0.21039 0.39246 0.0
C525 C 0.80021 0.23266 0.40938 0.0
N526 N 0.71612 0.24706 0.40847 0.0
N527 N 0.83193 0.14759 0.34609 0.0
C528 C 0.75398 0.23496 0.39072 0.0
C529 C 0.81322 0.1833 0.35863 0.0
N530 N 0.71331 0.23751 0.3331 0.0
N531 N 0.88334 0.21683 0.4081 0.0
H532 H 0.81692 0.12539 0.32204 0.0
H533 H 0.85788 0.1358 0.36113 0.0
H534 H 0.90013 0.23852 0.43219 0.0
H535 H 0.91172 0.20595 0.39544 0.0
H536 H 0.69749 0.26385 0.34213 0.0
H537 H 0.70819 0.22971 0.30575 0.0
H538 H 0.6784 0.24433 0.39666 0.0
H539 H 0.71849 0.25326 0.43594 0.0
C540 C 0.55573 0.82223 0.72038 0.0
C541 C 0.56693 0.78624 0.74285 0.0
C542 C 0.5581 0.72561 0.69162 0.0
C543 C 0.54844 0.76251 0.66873 0.0
N544 N 0.54794 0.8516 0.6604 0.0
N545 N 0.58829 0.70983 0.75017 0.0
C546 C 0.55011 0.81252 0.68291 0.0
C547 C 0.57159 0.74009 0.72838 0.0
N548 N 0.54845 0.86457 0.73532 0.0
N549 N 0.55057 0.6748 0.67855 0.0
H550 H 0.5972 0.71931 0.7772 0.0
H551 H 0.59791 0.67886 0.74115 0.0
H552 H 0.53793 0.66204 0.65227 0.0
H553 H 0.55165 0.64308 0.69413 0.0
H554 H 0.53288 0.88799 0.72144 0.0
H555 H 0.55532 0.87427 0.76242 0.0
H556 H 0.55549 0.89201 0.66838 0.0
H557 H 0.54282 0.84547 0.63303 0.0
C558 C 0.81766 0.59787 1.02611 0.0
C559 C 0.79436 0.54439 1.00792 0.0
C560 C 0.7306 0.49347 0.0593 0.0
C561 C 0.75967 0.54644 0.07859 0.0
N562 N 0.84185 0.64567 0.08308 0.0
N563 N 0.73294 0.4401 1.00765 0.0
C564 C 0.80678 0.59756 0.06276 0.0
C565 C 0.75173 0.49161 1.02462 0.0
N566 N 0.85019 0.64913 1.00806 0.0
N567 N 0.68237 0.44579 0.07389 0.0
H568 H 0.74698 0.43848 0.98197 0.0
H569 H 0.70619 0.39957 1.01959 0.0
H570 H 0.66752 0.44642 0.09951 0.0
H571 H 0.65561 0.40716 0.06004 0.0
H572 H 0.86395 0.68967 1.01925 0.0
H573 H 0.85762 0.65045 0.98081 0.0
H574 H 0.88023 0.68244 0.07349 0.0
H575 H 0.83627 0.64636 0.11045 0.0
C576 C 0.20204 0.74767 0.38817 0.0
C577 C 0.20001 0.78773 0.41154 0.0
C578 C 0.2392 0.86033 0.36345 0.0
C579 C 0.22852 0.8159 0.33879 0.0
N580 N 0.18136 0.71236 0.3281 0.0
N581 N 0.20998 0.88184 0.4197 0.0
C582 C 0.20507 0.75809 0.35125 0.0
C583 C 0.21724 0.84439 0.3989 0.0
N584 N 0.20002 0.6991 0.40133 0.0
N585 N 0.27163 0.91746 0.3535 0.0
H586 H 0.19268 0.87131 0.44532 0.0
H587 H 0.21651 0.9214 0.4103 0.0
H588 H 0.29082 0.93054 0.32838 0.0
H589 H 0.28472 0.95162 0.37137 0.0
H590 H 0.20499 0.67027 0.38523 0.0
H591 H 0.2004 0.69185 0.42865 0.0
H592 H 0.16016 0.6691 0.33662 0.0
H593 H 0.17542 0.71712 0.30109 0.0
C594 C 0.42858 0.1419 0.70721 0.0
C595 C 0.44383 0.18485 0.73366 0.0
C596 C 0.4574 0.25624 0.68755 0.0
C597 C 0.44348 0.21364 0.66104 0.0
N598 N 0.40525 0.11403 0.64491 0.0
N599 N 0.4618 0.27872 0.75063 0.0
C600 C 0.42542 0.15564 0.67078 0.0
C601 C 0.4544 0.24073 0.72423 0.0
N602 N 0.41968 0.08884 0.71709 0.0
N603 N 0.47621 0.31211 0.67735 0.0
H604 H 0.46022 0.26809 0.77752 0.0
H605 H 0.46511 0.31868 0.7462 0.0
H606 H 0.47785 0.32399 0.6507 0.0
H607 H 0.49283 0.34712 0.69482 0.0
H608 H 0.41422 0.05692 0.69921 0.0
H609 H 0.42026 0.07769 0.74369 0.0
H610 H 0.38698 0.06981 0.64997 0.0
H611 H 0.40296 0.12359 0.61818 0.0
C612 C 0.526 0.53017 0.17607 0.0
C613 C 0.55491 0.53018 0.20817 0.0
C614 C 0.45492 0.47177 0.23558 0.0
C615 C 0.42736 0.48103 0.20516 0.0
N616 N 0.44276 0.53152 0.14908 0.0
N617 N 0.54582 0.49933 0.26922 0.0
C618 C 0.46479 0.51372 0.1762 0.0
C619 C 0.51905 0.50051 0.23819 0.0
N620 N 0.55687 0.54434 0.14482 0.0
N621 N 0.4203 0.4326 0.26096 0.0
H622 H 0.59064 0.51151 0.27051 0.0
H623 H 0.52366 0.48686 0.29353 0.0
H624 H 0.37415 0.40939 0.25932 0.0
H625 H 0.43719 0.41906 0.28165 0.0
H626 H 0.53669 0.53996 0.12003 0.0
H627 H 0.60073 0.55317 0.14346 0.0
H628 H 0.46967 0.56039 0.12925 0.0
H629 H 0.3992 0.52313 0.14871 0.0
C630 C 0.01661 0.47491 0.53151 0.0
C631 C 0.97864 0.43875 0.55917 0.0
C632 C 0.9862 0.52446 0.58782 0.0
C633 C 0.02752 0.56159 0.5612 0.0
N634 N 0.09304 0.57132 0.51272 0.0
N635 N 0.93669 0.43007 0.61728 0.0
C636 C 0.04635 0.53667 0.53471 0.0
C637 C 0.96586 0.46375 0.58829 0.0
N638 N 0.02227 0.45017 0.50121 0.0
N639 N 0.96626 0.54699 0.61297 0.0
H640 H 0.92086 0.38552 0.61857 0.0
H641 H 0.93248 0.44692 0.64124 0.0
H642 H 0.9845 0.59137 0.6166 0.0
H643 H 0.92986 0.52145 0.62941 0.0
H644 H 0.04349 0.47393 0.47837 0.0
H645 H 1.00037 0.40526 0.49745 0.0
H646 H 0.11235 0.55507 0.4957 0.0
H647 H 0.11724 0.61647 0.51393 0.0
C648 C 0.51797 0.01054 0.86273 0.0
C649 C 0.49864 0.02535 0.89411 0.0
C650 C 0.50535 0.94886 0.92689 0.0
C651 C 0.51981 0.93075 0.89502 0.0
N652 N 0.53035 0.93837 0.83119 0.0
N653 N 0.45982 -0.00143 0.95353 0.0
C654 C 0.52359 0.96003 0.8625 0.0
C655 C 0.48836 0.99159 0.92545 0.0
N656 N 0.53291 0.04578 0.83347 0.0
N657 N 0.5105 0.92728 0.95894 0.0
H658 H 0.44507 0.02801 0.95288 0.0
H659 H 0.44503 0.97089 0.97556 0.0
H660 H 0.5246 0.89732 0.96138 0.0
H661 H 0.5068 0.94357 0.98328 0.0
H662 H 0.55376 0.04136 0.81119 0.0
H663 H 0.52851 0.08233 0.83248 0.0
H664 H 0.52714 0.95387 0.80629 0.0
H665 H 0.5341 0.90147 0.82989 0.0
C666 C 0.50823 0.47362 0.51693 0.0
C667 C 0.50887 0.44386 0.5484 0.0
C668 C 0.52988 0.52903 0.58377 0.0
C669 C 0.53129 0.56047 0.55281 0.0
N670 N 0.4978 0.55149 0.49152 0.0
N671 N 0.54749 0.45573 0.60818 0.0
C672 C 0.51421 0.52999 0.51962 0.0
C673 C 0.52825 0.47562 0.58062 0.0
N674 N 0.50617 0.45047 0.4843 0.0
N675 N 0.52359 0.54691 0.61653 0.0
H676 H 0.55174 0.41917 0.60579 0.0
H677 H 0.56649 0.47976 0.63134 0.0
H678 H 0.51395 0.57989 0.61957 0.0
H679 H 0.51792 0.52304 0.63972 0.0
H680 H 0.51119 0.47252 0.46046 0.0
H681 H 0.50908 0.41352 0.48082 0.0
H682 H 0.48003 0.52882 0.46787 0.0
H683 H 0.49235 0.58717 0.49342 0.0
C684 C 1.00469 0.49786 0.90901 0.0
C685 C 0.98695 0.51144 0.87656 0.0
C686 C 0.02276 0.45487 0.84524 0.0
C687 C 0.05054 0.45118 0.87728 0.0
N688 N 0.07825 0.48385 0.93842 0.0
N689 N 0.97701 0.50123 0.813 0.0
C690 C 0.04424 0.47663 0.90884 0.0
C691 C 0.99529 0.48937 0.84436 0.0
N692 N 0.98239 0.50398 0.94029 0.0
N693 N 0.0196 0.42314 0.81625 0.0
H694 H 0.94965 0.51894 0.81216 0.0
H695 H 0.98954 0.49419 0.78815 0.0
H696 H 0.0364 0.3955 0.81655 0.0
H697 H 0.99542 0.4198 0.79328 0.0
H698 H 0.99007 0.49023 0.96473 0.0
H699 H 0.94934 0.5147 0.94076 0.0
H700 H 0.07891 0.50745 0.96056 0.0
H701 H 0.11109 0.4729 0.93947 0.0
C702 C 0.52999 0.9701 0.20793 0.0
C703 C 0.55774 0.01868 0.18424 0.0
C704 C 0.45754 0.00336 0.17027 0.0
C705 C 0.42982 0.95308 0.19264 0.0
N706 N 0.43915 0.88213 0.22681 0.0
N707 N 0.54672 0.07662 0.13914 0.0
C708 C 0.46615 0.93476 0.20968 0.0
C709 C 0.52103 0.03392 0.16445 0.0
N710 N 0.56478 0.95814 0.22947 0.0
N711 N 0.42341 0.02294 0.15511 0.0
H712 H 0.59301 0.10173 0.13554 0.0
H713 H 0.52228 0.08526 0.12063 0.0
H714 H 0.37689 0.99735 0.15386 0.0
H715 H 0.44108 0.0641 0.14371 0.0
H716 H 0.54807 0.92764 0.25 0.0
H717 H 0.61117 0.98304 0.22928 0.0
H718 H 0.46213 0.86262 0.23668 0.0
H719 H 0.39271 0.85492 0.22786 0.0
C720 C 0.99297 0.33061 0.22713 0.0
C721 C 0.02881 0.32878 0.19945 0.0
C722 C 0.9379 0.27571 0.16174 0.0
C723 C 0.90158 0.27067 0.19098 0.0
N724 N 0.8942 0.30973 0.24628 0.0
N725 N 0.03783 0.31709 0.13699 0.0
C726 C 0.92953 0.3047 0.22173 0.0
C727 C 1.00187 0.30744 0.16549 0.0
N728 N 0.0191 0.35396 0.25918 0.0
N729 N 0.9105 0.24571 0.13138 0.0
H730 H 0.0842 0.34149 0.1394 0.0
H731 H 0.02237 0.30633 0.11092 0.0
H732 H 0.864 0.22421 0.12817 0.0
H733 H 0.93294 0.24061 0.11024 0.0
H734 H 0.99524 0.35137 0.28189 0.0
H735 H 0.06537 0.37491 0.2631 0.0
H736 H 0.91058 0.33595 0.26878 0.0
H737 H 0.84811 0.29067 0.24202 0.0
C738 C 0.72048 0.98379 0.50023 0.0
C739 C 0.67948 0.93772 0.52282 0.0
C740 C 0.68052 0.01246 0.56151 0.0
C741 C 0.73186 0.05714 0.54391 0.0
N742 N 0.80548 0.082 0.49764 0.0
N743 N 0.62486 0.9114 0.57852 0.0
C744 C 0.75269 0.04224 0.51317 0.0
C745 C 0.65972 0.95271 0.5541 0.0
N746 N 0.72865 0.97179 0.46621 0.0
N747 N 0.65116 0.02706 0.5854 0.0
H748 H 0.60626 0.86696 0.575 0.0
H749 H 0.61863 0.92256 0.60393 0.0
H750 H 0.66427 0.07028 0.59072 0.0
H751 H 0.61028 0.99651 0.59666 0.0
H752 H 0.75423 0.00421 0.44767 0.0
H753 H 0.70406 0.92999 0.45547 0.0
H754 H 0.8255 0.0711 0.47765 0.0
H755 H 0.8322 0.12435 0.5068 0.0
C756 C 0.68604 0.67313 0.90898 0.0
C757 C 0.68462 0.71635 0.88755 0.0
C758 C 0.75076 0.70616 0.84539 0.0
C759 C 0.76407 0.67526 0.87129 0.0
N760 N 0.74815 0.6375 0.93154 0.0
N761 N 0.72291 0.77807 0.8349 0.0
C762 C 0.73207 0.66004 0.90396 0.0
C763 C 0.71825 0.73355 0.85533 0.0
N764 N 0.64343 0.6446 0.93443 0.0
N765 N 0.76802 0.70856 0.81089 0.0
H766 H 0.70049 0.79995 0.8398 0.0
H767 H 0.75332 0.7965 0.81406 0.0
H768 H 0.7895 0.68719 0.80208 0.0
H769 H 0.75447 0.72568 0.79036 0.0
H770 H 0.63963 0.6095 0.94892 0.0
H771 H 0.60785 0.6516 0.93787 0.0
H772 H 0.7297 0.6311 0.95687 0.0
H773 H 0.78454 0.63176 0.93051 0.0
C774 C 0.97788 0.70067 0.22529 0.0
C775 C 0.94848 0.65031 0.20311 0.0
C776 C 0.0473 0.6818 0.17505 0.0
C777 C 0.07553 0.73214 0.19662 0.0
N778 N 0.07135 0.77472 0.25179 0.0
N779 N 0.96274 0.58319 0.16782 0.0
C780 C 0.04181 0.73601 0.22501 0.0
C781 C 0.98581 0.63776 0.18157 0.0
N782 N 0.94618 0.7184 0.24485 0.0
N783 N 0.07804 0.67691 0.14744 0.0
H784 H 0.91965 0.54918 0.17395 0.0
H785 H 0.98851 0.57017 0.15412 0.0
H786 H 0.12318 0.70745 0.14299 0.0
H787 H 0.05787 0.64445 0.12818 0.0
H788 H 0.96609 0.75916 0.25698 0.0
H789 H 0.90006 0.69548 0.2473 0.0
H790 H 0.05056 0.77611 0.27503 0.0
H791 H 0.1178 0.80059 0.25219 0.0
C792 C 0.2949 0.9737 0.52048 0.0
C793 C 0.23587 0.94504 0.53451 0.0
C794 C 0.23484 0.03621 0.52917 0.0
C795 C 0.29414 0.06583 0.51535 0.0
N796 N 0.3845 0.06478 0.50334 0.0
N797 N 0.16144 0.956 0.56462 0.0
C798 C 0.32564 0.0353 0.51312 0.0
C799 C 0.20965 0.97862 0.54258 0.0
N800 N 0.32063 0.94171 0.5128 0.0
N801 N 0.20127 0.06212 0.52908 0.0
H802 H 0.14585 0.91621 0.57719 0.0
H803 H 0.143 0.97969 0.57437 0.0
H804 H 0.21726 0.1048 0.52114 0.0
H805 H 0.15546 0.03947 0.53432 0.0
H806 H 0.35982 0.95755 0.49818 0.0
H807 H 0.30145 0.89822 0.52038 0.0
H808 H 0.41188 0.04704 0.50478 0.0
H809 H 0.40722 0.10845 0.49566 0.0
C810 C 0.29247 0.27284 0.8401 0.0
C811 C 0.29112 0.31225 0.86428 0.0
C812 C 0.37952 0.3208 0.89425 0.0
C813 C 0.36985 0.26965 0.87659 0.0
N814 N 0.31346 0.19643 0.83118 0.0
N815 N 0.33735 0.37897 0.91292 0.0
C816 C 0.32643 0.24629 0.84842 0.0
C817 C 0.33662 0.33871 0.89054 0.0
N818 N 0.26071 0.26065 0.80903 0.0
N819 N 0.43016 0.35245 0.91432 0.0
H820 H 0.30935 0.39566 0.90912 0.0
H821 H 0.36426 0.39429 0.93561 0.0
H822 H 0.46321 0.34149 0.91628 0.0
H823 H 0.44231 0.39246 0.92569 0.0
H824 H 0.26386 0.23629 0.78857 0.0
H825 H 0.23713 0.2812 0.80219 0.0
H826 H 0.27628 0.17363 0.81456 0.0
H827 H 0.3369 0.1753 0.83473 0.0
C828 C 0.18045 0.14687 0.2171 0.0
C829 C 0.20247 0.17722 0.18488 0.0
C830 C 0.2444 0.11715 0.17032 0.0
C831 C 0.23322 0.09537 0.20601 0.0
N832 N 0.19986 0.09861 0.26536 0.0
N833 N 0.257 0.19434 0.13058 0.0
C834 C 0.20285 0.112 0.22998 0.0
C835 C 0.23419 0.16268 0.16109 0.0
N836 N 0.14109 0.15568 0.23567 0.0
N837 N 0.26317 0.09376 0.14504 0.0
H838 H 0.24747 0.22611 0.12252 0.0
H839 H 0.28744 0.19103 0.11441 0.0
H840 H 0.27147 0.06042 0.15017 0.0
H841 H 0.26559 0.1041 0.11809 0.0
H842 H 0.11996 0.13351 0.25899 0.0
H843 H 0.11996 0.13351 0.25899 0.0
H844 H 0.18382 0.11497 0.28457 0.0
H845 H 0.2197 0.07656 0.2762 0.0
C846 C 0.13976 0.20748 0.514 0.0
C847 C 0.17597 0.23894 0.54368 0.0
C848 C 0.10684 0.27098 0.55934 0.0
C849 C 0.06875 0.23656 0.531 0.0
N850 N 0.04328 0.16609 0.48439 0.0
N851 N 0.19239 0.29432 0.59714 0.0
C852 C 0.08357 0.20307 0.50914 0.0
C853 C 0.15897 0.2689 0.56714 0.0
N854 N 0.16022 0.184 0.4897 0.0
N855 N 0.09309 0.3058 0.57852 0.0
H856 H 0.2301 0.2921 0.60398 0.0
H857 H 0.18117 0.31436 0.6166 0.0
H858 H 0.05423 0.3071 0.57428 0.0
H859 H 0.12156 0.33627 0.59716 0.0
H860 H 0.13922 0.16684 0.46538 0.0
H861 H 0.20078 0.18533 0.49249 0.0
H862 H 0.04833 0.1353 0.47058 0.0
H863 H 1.00254 0.16355 0.47921 0.0
C864 C 0.85142 0.08481 0.90754 0.0
C865 C 0.85157 0.04716 0.88105 0.0
C866 C 0.9609 0.10502 0.87832 0.0
C867 C 0.96 0.14645 0.90112 0.0
N868 N 0.90725 0.17738 0.9385 0.0
N869 N 0.90443 0.02238 0.83913 0.0
C870 C 0.90601 0.13625 0.91651 0.0
C871 C 0.9059 0.05722 0.86609 0.0
N872 N 0.79929 0.07084 0.92441 0.0
N873 N 0.0146 0.11224 0.86808 0.0
H874 H 0.8646 0.98741 0.82919 0.0
H875 H 0.94184 0.03054 0.8246 0.0
H876 H 0.05558 0.14727 0.87657 0.0
H877 H 0.01886 0.08129 0.85393 0.0
H878 H 0.79702 0.09305 0.94638 0.0
H879 H 0.75798 0.03455 0.91784 0.0
H880 H 0.86926 0.17696 0.94733 0.0
H881 H 0.94737 0.21357 0.94712 0.0
C882 C 0.8228 0.90517 0.25582 0.0
C883 C 0.80656 0.92717 0.22612 0.0
C884 C 0.83211 0.87298 0.18532 0.0
C885 C 0.84351 0.84785 0.21515 0.0
N886 N 0.87539 0.85706 0.27595 0.0
N887 N 0.82149 0.95178 0.16351 0.0
C888 C 0.84951 0.87167 0.24937 0.0
C889 C 0.82002 0.91779 0.19108 0.0
N890 N 0.80812 0.91161 0.2896 0.0
N891 N 0.82774 0.85104 0.15198 0.0
H892 H 0.81443 0.98607 0.16735 0.0
H893 H 0.83609 0.94998 0.13807 0.0
H894 H 0.83871 0.81967 0.1463 0.0
H895 H 0.81078 0.8624 0.1302 0.0
H896 H 0.81427 0.89145 0.31167 0.0
H897 H 0.78481 0.93264 0.29529 0.0
H898 H 0.88403 0.87544 0.30126 0.0
H899 H 0.89313 0.83051 0.27106 0.0
C900 C 0.84699 0.77328 0.59938 0.0
C901 C 0.84114 0.81312 0.57771 0.0
C902 C 0.94138 0.85035 0.55417 0.0
C903 C 0.94027 0.80126 0.56938 0.0
N904 N 0.8888 0.71152 0.60288 0.0
N905 N 0.88214 0.89215 0.5354 0.0
C906 C 0.89271 0.76192 0.59161 0.0
C907 C 0.88887 0.85363 0.55599 0.0
N908 N 0.80632 0.74398 0.62565 0.0
N909 N 0.99177 0.89271 0.53758 0.0
H910 H 0.84477 0.89666 0.5372 0.0
H911 H 0.91229 0.91785 0.51571 0.0
H912 H 0.0303 0.89031 0.5348 0.0
H913 H 0.99688 0.93203 0.52888 0.0
H914 H 0.81058 0.71693 0.64398 0.0
H915 H 0.77173 0.75177 0.63103 0.0
H916 H 0.85222 0.67894 0.61673 0.0
H917 H 0.91905 0.69949 0.59479 0.0
C918 C 0.17286 0.9096 0.90913 0.0
C919 C 0.17567 0.94395 0.87932 0.0
C920 C 0.06894 0.87918 0.86763 0.0
C921 C 0.06723 0.84341 0.89611 0.0
N922 N 0.11002 0.83038 0.94953 0.0
N923 N 0.12573 0.97031 0.83533 0.0
C924 C 0.11683 0.86111 0.91896 0.0
C925 C 0.12327 0.93175 0.8603 0.0
N926 N 0.22408 0.92213 0.92704 0.0
N927 N 0.01936 0.86079 0.84655 0.0
H928 H 0.16551 0.00823 0.82842 0.0
H929 H 0.08806 0.96684 0.82301 0.0
H930 H 0.97812 0.82386 0.85262 0.0
H931 H 0.01928 0.88062 0.82266 0.0
H932 H 0.2261 0.89589 0.94686 0.0
H933 H 0.26602 0.95745 0.92067 0.0
H934 H 0.14312 0.84272 0.96891 0.0
H935 H 0.06882 0.79461 0.95695 0.0
loop_
_geom_bond_atom_site_label_1
_geom_bond_atom_site_label_2
_geom_bond_distance
_geom_bond_site_symmetry_2
_ccdc_geom_bond_type
C0 C1 1.351 . S
C0 N3 1.368 . S
C0 H5 0.931 . S
C1 C0 1.351 . S
C1 N2 1.373 . S
C1 H29 0.930 . S
N2 C1 1.373 . S
N2 C4 1.340 . S
N3 C0 1.368 . S
N3 C4 1.321 . S
N3 Co6 2.135 . S
C4 N2 1.340 . S
C4 N3 1.321 . S
C4 H28 0.930 . S
H5 C0 0.931 . S
Co6 N3 2.135 . S
Co6 N9 2.121 . S
Co6 O14 2.055 . S
Co6 O17 2.039 . S
Co6 N20 2.140 . S
C7 O8 1.227 . S
C7 O17 1.265 . S
O8 C7 1.227 . S
N9 Co6 2.121 . S
N9 C11 1.375 . S
N9 C12 1.313 . S
C10 C11 1.338 . S
C10 N13 1.377 . S
C10 H30 0.930 . S
C11 N9 1.375 . S
C11 C10 1.338 . S
C11 H15 0.931 . S
C12 N9 1.313 . S
C12 N13 1.344 . S
C12 H16 0.930 . S
N13 C10 1.377 . S
N13 C12 1.344 . S
O14 Co6 2.055 . S
O14 C18 1.253 . S
H15 C11 0.931 . S
H16 C12 0.930 . S
O17 Co6 2.039 . S
O17 C7 1.265 . S
C18 O14 1.253 . S
C18 O19 1.227 . S
O19 C18 1.227 . S
N20 Co6 2.140 . S
N20 C23 1.346 . S
N20 C24 1.345 . S
C21 C22 1.387 . S
C21 C25 1.391 . S
C22 C21 1.387 . S
C22 C23 1.369 . S
C22 H31 0.929 . S
C23 N20 1.346 . S
C23 C22 1.369 . S
C23 H26 0.928 . S
C24 N20 1.345 . S
C24 C25 1.371 . S
C24 H27 0.931 . S
C25 C21 1.391 . S
C25 C24 1.371 . S
C25 H32 0.930 . S
H26 C23 0.928 . S
H27 C24 0.931 . S
H28 C4 0.930 . S
H29 C1 0.930 . S
H30 C10 0.930 . S
H31 C22 0.929 . S
H32 C25 0.930 . S
C33 C34 1.351 . S
C33 N36 1.368 . S
C33 H38 0.931 . S
C34 C33 1.351 . S
C34 N35 1.373 . S
C34 H62 0.930 . S
N35 C34 1.373 . S
N35 C37 1.340 . S
N36 C33 1.368 . S
N36 C37 1.321 . S
N36 Co39 2.135 . S
C37 N35 1.340 . S
C37 N36 1.321 . S
C37 H61 0.930 . S
H38 C33 0.931 . S
Co39 N36 2.135 . S
Co39 N42 2.121 . S
Co39 O47 2.055 . S
Co39 O50 2.039 . S
Co39 N53 2.140 . S
C40 O41 1.227 . S
C40 O50 1.265 . S
O41 C40 1.227 . S
N42 Co39 2.121 . S
N42 C44 1.375 . S
N42 C45 1.313 . S
C43 C44 1.338 . S
C43 N46 1.377 . S
C43 H63 0.930 . S
C44 N42 1.375 . S
C44 C43 1.338 . S
C44 H48 0.931 . S
C45 N42 1.313 . S
C45 N46 1.344 . S
C45 H49 0.930 . S
N46 C43 1.377 . S
N46 C45 1.344 . S
O47 Co39 2.055 . S
O47 C51 1.253 . S
H48 C44 0.931 . S
H49 C45 0.930 . S
O50 Co39 2.039 . S
O50 C40 1.265 . S
C51 O47 1.253 . S
C51 O52 1.227 . S
O52 C51 1.227 . S
N53 Co39 2.140 . S
N53 C56 1.346 . S
N53 C57 1.345 . S
C54 C55 1.387 . S
C54 C58 1.391 . S
C55 C54 1.387 . S
C55 C56 1.369 1_455 S
C55 H64 0.929 . S
C56 N53 1.346 . S
C56 C55 1.369 1_655 S
C56 H59 0.928 . S
C57 N53 1.345 . S
C57 C58 1.371 1_655 S
C57 H60 0.931 . S
C58 C54 1.391 . S
C58 C57 1.371 1_455 S
C58 H65 0.930 . S
H59 C56 0.928 . S
H60 C57 0.931 . S
H61 C37 0.930 . S
H62 C34 0.930 . S
H63 C43 0.930 . S
H64 C55 0.929 . S
H65 C58 0.930 . S
C66 C67 1.351 . S
C66 N69 1.368 . S
C66 H71 0.931 . S
C67 C66 1.351 . S
C67 N68 1.373 . S
C67 H95 0.930 . S
N68 C67 1.373 . S
N68 C70 1.340 . S
N69 C66 1.368 . S
N69 C70 1.321 . S
N69 Co72 2.135 . S
C70 N68 1.340 . S
C70 N69 1.321 . S
C70 H94 0.930 . S
H71 C66 0.931 . S
Co72 N69 2.135 . S
Co72 N75 2.121 . S
Co72 O80 2.055 . S
Co72 O83 2.039 . S
Co72 N86 2.140 . S
C73 O74 1.227 . S
C73 O83 1.265 . S
O74 C73 1.227 . S
N75 Co72 2.121 . S
N75 C77 1.375 . S
N75 C78 1.313 . S
C76 C77 1.338 . S
C76 N79 1.377 . S
C76 H96 0.930 . S
C77 N75 1.375 . S
C77 C76 1.338 . S
C77 H81 0.931 . S
C78 N75 1.313 . S
C78 N79 1.344 . S
C78 H82 0.930 . S
N79 C76 1.377 . S
N79 C78 1.344 . S
O80 Co72 2.055 . S
O80 C84 1.253 . S
H81 C77 0.931 . S
H82 C78 0.930 . S
O83 Co72 2.039 . S
O83 C73 1.265 . S
C84 O80 1.253 . S
C84 O85 1.227 . S
O85 C84 1.227 . S
N86 Co72 2.140 . S
N86 C89 1.346 . S
N86 C90 1.345 . S
C87 C88 1.387 . S
C87 C91 1.391 . S
C88 C87 1.387 . S
C88 C89 1.369 1_545 S
C88 H97 0.929 . S
C89 N86 1.346 . S
C89 C88 1.369 1_565 S
C89 H92 0.928 . S
C90 N86 1.345 . S
C90 C91 1.371 1_565 S
C90 H93 0.931 . S
C91 C87 1.391 . S
C91 C90 1.371 1_545 S
C91 H98 0.930 . S
H92 C89 0.928 . S
H93 C90 0.931 . S
H94 C70 0.930 . S
H95 C67 0.930 . S
H96 C76 0.930 . S
H97 C88 0.929 . S
H98 C91 0.930 . S
C99 C100 1.351 . S
C99 N102 1.368 . S
C99 H104 0.931 . S
C100 C99 1.351 . S
C100 N101 1.373 . S
C100 H128 0.930 . S
N101 C100 1.373 . S
N101 C103 1.340 . S
N102 C99 1.368 . S
N102 C103 1.321 . S
N102 Co105 2.135 . S
C103 N101 1.340 . S
C103 N102 1.321 . S
C103 H127 0.930 . S
H104 C99 0.931 . S
Co105 N102 2.135 . S
Co105 N108 2.121 . S
Co105 O113 2.055 . S
Co105 O116 2.039 . S
Co105 N119 2.140 . S
C106 O107 1.227 . S
C106 O116 1.265 . S
O107 C106 1.227 . S
N108 Co105 2.121 . S
N108 C110 1.375 . S
N108 C111 1.313 . S
C109 C110 1.338 . S
C109 N112 1.377 . S
C109 H129 0.930 . S
C110 N108 1.375 . S
C110 C109 1.338 . S
C110 H114 0.931 . S
C111 N108 1.313 . S
C111 N112 1.344 . S
C111 H115 0.930 . S
N112 C109 1.377 . S
N112 C111 1.344 . S
O113 Co105 2.055 . S
O113 C117 1.253 . S
H114 C110 0.931 . S
H115 C111 0.930 . S
O116 Co105 2.039 . S
O116 C106 1.265 . S
C117 O113 1.253 . S
C117 O118 1.227 . S
O118 C117 1.227 . S
N119 Co105 2.140 . S
N119 C122 1.346 . S
N119 C123 1.345 . S
C120 C121 1.387 . S
C120 C124 1.391 . S
C121 C120 1.387 . S
C121 C122 1.369 . S
C121 H130 0.929 . S
C122 N119 1.346 . S
C122 C121 1.369 . S
C122 H125 0.928 . S
C123 N119 1.345 . S
C123 C124 1.371 . S
C123 H126 0.931 . S
C124 C120 1.391 . S
C124 C123 1.371 . S
C124 H131 0.930 . S
H125 C122 0.928 . S
H126 C123 0.931 . S
H127 C103 0.930 . S
H128 C100 0.930 . S
H129 C109 0.930 . S
H130 C121 0.929 . S
H131 C124 0.930 . S
C132 C133 1.351 . S
C132 N135 1.368 . S
C132 H137 0.931 . S
C133 C132 1.351 . S
C133 N134 1.373 . S
C133 H161 0.930 . S
N134 C133 1.373 . S
N134 C136 1.340 . S
N135 C132 1.368 . S
N135 C136 1.321 . S
N135 Co138 2.135 . S
C136 N134 1.340 . S
C136 N135 1.321 . S
C136 H160 0.930 . S
H137 C132 0.931 . S
Co138 N135 2.135 . S
Co138 N141 2.121 . S
Co138 O146 2.055 . S
Co138 O149 2.039 . S
Co138 N152 2.140 . S
C139 O140 1.227 . S
C139 O149 1.265 . S
O140 C139 1.227 . S
N141 Co138 2.121 . S
N141 C143 1.375 . S
N141 C144 1.313 . S
C142 C143 1.338 . S
C142 N145 1.377 . S
C142 H162 0.930 . S
C143 N141 1.375 . S
C143 C142 1.338 . S
C143 H147 0.931 . S
C144 N141 1.313 . S
C144 N145 1.344 . S
C144 H148 0.930 . S
N145 C142 1.377 . S
N145 C144 1.344 . S
O146 Co138 2.055 . S
O146 C150 1.253 . S
H147 C143 0.931 . S
H148 C144 0.930 . S
O149 Co138 2.039 . S
O149 C139 1.265 . S
C150 O146 1.253 . S
C150 O151 1.227 . S
O151 C150 1.227 . S
N152 Co138 2.140 . S
N152 C155 1.346 . S
N152 C156 1.345 . S
C153 C154 1.387 . S
C153 C157 1.391 . S
C154 C153 1.387 . S
C154 C155 1.369 1_655 S
C154 H163 0.929 . S
C155 N152 1.346 . S
C155 C154 1.369 1_455 S
C155 H158 0.928 . S
C156 N152 1.345 . S
C156 C157 1.371 1_455 S
C156 H159 0.931 . S
C157 C153 1.391 . S
C157 C156 1.371 1_655 S
C157 H164 0.930 . S
H158 C155 0.928 . S
H159 C156 0.931 . S
H160 C136 0.930 . S
H161 C133 0.930 . S
H162 C142 0.930 . S
H163 C154 0.929 . S
H164 C157 0.930 . S
C165 C166 1.351 . S
C165 N168 1.368 . S
C165 H170 0.931 . S
C166 C165 1.351 . S
C166 N167 1.373 . S
C166 H194 0.930 . S
N167 C166 1.373 . S
N167 C169 1.340 . S
N168 C165 1.368 . S
N168 C169 1.321 . S
N168 Co171 2.135 . S
C169 N167 1.340 . S
C169 N168 1.321 . S
C169 H193 0.930 . S
H170 C165 0.931 . S
Co171 N168 2.135 . S
Co171 N174 2.121 . S
Co171 O179 2.055 . S
Co171 O182 2.039 . S
Co171 N185 2.140 . S
C172 O173 1.227 . S
C172 O182 1.265 . S
O173 C172 1.227 . S
N174 Co171 2.121 . S
N174 C176 1.375 . S
N174 C177 1.313 . S
C175 C176 1.338 . S
C175 N178 1.377 . S
C175 H195 0.930 . S
C176 N174 1.375 . S
C176 C175 1.338 . S
C176 H180 0.931 . S
C177 N174 1.313 . S
C177 N178 1.344 . S
C177 H181 0.930 . S
N178 C175 1.377 . S
N178 C177 1.344 . S
O179 Co171 2.055 . S
O179 C183 1.253 . S
H180 C176 0.931 . S
H181 C177 0.930 . S
O182 Co171 2.039 . S
O182 C172 1.265 . S
C183 O179 1.253 . S
C183 O184 1.227 . S
O184 C183 1.227 . S
N185 Co171 2.140 . S
N185 C188 1.346 . S
N185 C189 1.345 . S
C186 C187 1.387 . S
C186 C190 1.391 . S
C187 C186 1.387 . S
C187 C188 1.369 1_565 S
C187 H196 0.929 . S
C188 N185 1.346 . S
C188 C187 1.369 1_545 S
C188 H191 0.928 . S
C189 N185 1.345 . S
C189 C190 1.371 1_545 S
C189 H192 0.931 . S
C190 C186 1.391 . S
C190 C189 1.371 1_565 S
C190 H197 0.930 . S
H191 C188 0.928 . S
H192 C189 0.931 . S
H193 C169 0.930 . S
H194 C166 0.930 . S
H195 C175 0.930 . S
H196 C187 0.929 . S
H197 C190 0.930 . S
C198 C199 1.351 . S
C198 N201 1.368 . S
C198 H203 0.931 . S
C199 C198 1.351 . S
C199 N200 1.373 . S
C199 H227 0.930 . S
N200 C199 1.373 . S
N200 C202 1.340 . S
N201 C198 1.368 . S
N201 C202 1.321 . S
N201 Co204 2.135 . S
C202 N200 1.340 . S
C202 N201 1.321 . S
C202 H226 0.930 . S
H203 C198 0.931 . S
Co204 N201 2.135 . S
Co204 N207 2.121 . S
Co204 O212 2.055 . S
Co204 O215 2.039 . S
Co204 N218 2.140 . S
C205 O206 1.227 . S
C205 O215 1.265 . S
O206 C205 1.227 . S
N207 Co204 2.121 . S
N207 C209 1.375 . S
N207 C210 1.313 . S
C208 C209 1.338 . S
C208 N211 1.377 . S
C208 H228 0.930 . S
C209 N207 1.375 . S
C209 C208 1.338 . S
C209 H213 0.931 . S
C210 N207 1.313 . S
C210 N211 1.344 . S
C210 H214 0.930 . S
N211 C208 1.377 . S
N211 C210 1.344 . S
O212 Co204 2.055 . S
O212 C216 1.253 . S
H213 C209 0.931 . S
H214 C210 0.930 . S
O215 Co204 2.039 . S
O215 C205 1.265 . S
C216 O212 1.253 . S
C216 O217 1.227 . S
O217 C216 1.227 . S
N218 Co204 2.140 . S
N218 C221 1.346 . S
N218 C222 1.345 . S
C219 C220 1.387 . S
C219 C223 1.391 . S
C220 C219 1.387 . S
C220 C221 1.369 . S
C220 H229 0.929 . S
C221 N218 1.346 . S
C221 C220 1.369 . S
C221 H224 0.928 . S
C222 N218 1.345 . S
C222 C223 1.371 . S
C222 H225 0.931 . S
C223 C219 1.391 . S
C223 C222 1.371 . S
C223 H230 0.930 . S
H224 C221 0.928 . S
H225 C222 0.931 . S
H226 C202 0.930 . S
H227 C199 0.930 . S
H228 C208 0.930 . S
H229 C220 0.929 . S
H230 C223 0.930 . S
C231 C232 1.351 . S
C231 N234 1.368 . S
C231 H236 0.931 . S
C232 C231 1.351 . S
C232 N233 1.373 . S
C232 H260 0.930 . S
N233 C232 1.373 . S
N233 C235 1.340 . S
N234 C231 1.368 . S
N234 C235 1.321 . S
N234 Co237 2.135 . S
C235 N233 1.340 . S
C235 N234 1.321 . S
C235 H259 0.930 . S
H236 C231 0.931 . S
Co237 N234 2.135 . S
Co237 N240 2.121 . S
Co237 O245 2.055 . S
Co237 O248 2.039 . S
Co237 N251 2.140 . S
C238 O239 1.227 . S
C238 O248 1.265 . S
O239 C238 1.227 . S
N240 Co237 2.121 . S
N240 C242 1.375 . S
N240 C243 1.313 . S
C241 C242 1.338 . S
C241 N244 1.377 . S
C241 H261 0.930 . S
C242 N240 1.375 . S
C242 C241 1.338 . S
C242 H246 0.931 . S
C243 N240 1.313 . S
C243 N244 1.344 . S
C243 H247 0.930 . S
N244 C241 1.377 . S
N244 C243 1.344 . S
O245 Co237 2.055 . S
O245 C249 1.253 . S
H246 C242 0.931 . S
H247 C243 0.930 . S
O248 Co237 2.039 . S
O248 C238 1.265 . S
C249 O245 1.253 . S
C249 O250 1.227 . S
O250 C249 1.227 . S
N251 Co237 2.140 . S
N251 C254 1.346 . S
N251 C255 1.345 . S
C252 C253 1.387 . S
C252 C256 1.391 . S
C253 C252 1.387 . S
C253 C254 1.369 1_455 S
C253 H262 0.929 . S
C254 N251 1.346 . S
C254 C253 1.369 1_655 S
C254 H257 0.928 . S
C255 N251 1.345 . S
C255 C256 1.371 1_655 S
C255 H258 0.931 . S
C256 C252 1.391 . S
C256 C255 1.371 1_455 S
C256 H263 0.930 . S
H257 C254 0.928 . S
H258 C255 0.931 . S
H259 C235 0.930 . S
H260 C232 0.930 . S
H261 C241 0.930 . S
H262 C253 0.929 . S
H263 C256 0.930 . S
C264 C265 1.351 . S
C264 N267 1.368 . S
C264 H269 0.931 . S
C265 C264 1.351 . S
C265 N266 1.373 . S
C265 H293 0.930 . S
N266 C265 1.373 . S
N266 C268 1.340 . S
N267 C264 1.368 . S
N267 C268 1.321 . S
N267 Co270 2.135 . S
C268 N266 1.340 . S
C268 N267 1.321 . S
C268 H292 0.930 . S
H269 C264 0.931 . S
Co270 N267 2.135 . S
Co270 N273 2.121 . S
Co270 O278 2.055 . S
Co270 O281 2.039 . S
Co270 N284 2.140 . S
C271 O272 1.227 . S
C271 O281 1.265 . S
O272 C271 1.227 . S
N273 Co270 2.121 . S
N273 C275 1.375 . S
N273 C276 1.313 . S
C274 C275 1.338 . S
C274 N277 1.377 . S
C274 H294 0.930 . S
C275 N273 1.375 . S
C275 C274 1.338 . S
C275 H279 0.931 . S
C276 N273 1.313 . S
C276 N277 1.344 . S
C276 H280 0.930 . S
N277 C274 1.377 . S
N277 C276 1.344 . S
O278 Co270 2.055 . S
O278 C282 1.253 . S
H279 C275 0.931 . S
H280 C276 0.930 . S
O281 Co270 2.039 . S
O281 C271 1.265 . S
C282 O278 1.253 . S
C282 O283 1.227 . S
O283 C282 1.227 . S
N284 Co270 2.140 . S
N284 C287 1.346 . S
N284 C288 1.345 . S
C285 C286 1.387 . S
C285 C289 1.391 . S
C286 C285 1.387 . S
C286 C287 1.369 1_545 S
C286 H295 0.929 . S
C287 N284 1.346 . S
C287 C286 1.369 1_565 S
C287 H290 0.928 . S
C288 N284 1.345 . S
C288 C289 1.371 1_565 S
C288 H291 0.931 . S
C289 C285 1.391 . S
C289 C288 1.371 1_545 S
C289 H296 0.930 . S
H290 C287 0.928 . S
H291 C288 0.931 . S
H292 C268 0.930 . S
H293 C265 0.930 . S
H294 C274 0.930 . S
H295 C286 0.929 . S
H296 C289 0.930 . S
C297 C298 1.351 . S
C297 N300 1.368 . S
C297 H302 0.931 . S
C298 C297 1.351 . S
C298 N299 1.373 . S
C298 H326 0.930 . S
N299 C298 1.373 . S
N299 C301 1.340 . S
N300 C297 1.368 . S
N300 C301 1.321 . S
N300 Co303 2.135 . S
C301 N299 1.340 . S
C301 N300 1.321 . S
C301 H325 0.930 . S
H302 C297 0.931 . S
Co303 N300 2.135 . S
Co303 N306 2.121 . S
Co303 O311 2.055 . S
Co303 O314 2.039 . S
Co303 N317 2.140 . S
C304 O305 1.227 . S
C304 O314 1.265 . S
O305 C304 1.227 . S
N306 Co303 2.121 . S
N306 C308 1.375 . S
N306 C309 1.313 . S
C307 C308 1.338 . S
C307 N310 1.377 . S
C307 H327 0.930 . S
C308 N306 1.375 . S
C308 C307 1.338 . S
C308 H312 0.931 . S
C309 N306 1.313 . S
C309 N310 1.344 . S
C309 H313 0.930 . S
N310 C307 1.377 . S
N310 C309 1.344 . S
O311 Co303 2.055 . S
O311 C315 1.253 . S
H312 C308 0.931 . S
H313 C309 0.930 . S
O314 Co303 2.039 . S
O314 C304 1.265 . S
C315 O311 1.253 . S
C315 O316 1.227 . S
O316 C315 1.227 . S
N317 Co303 2.140 . S
N317 C320 1.346 . S
N317 C321 1.345 . S
C318 C319 1.387 . S
C318 C322 1.391 . S
C319 C318 1.387 . S
C319 C320 1.369 . S
C319 H328 0.929 . S
C320 N317 1.346 . S
C320 C319 1.369 . S
C320 H323 0.928 . S
C321 N317 1.345 . S
C321 C322 1.371 . S
C321 H324 0.931 . S
C322 C318 1.391 . S
C322 C321 1.371 . S
C322 H329 0.930 . S
H323 C320 0.928 . S
H324 C321 0.931 . S
H325 C301 0.930 . S
H326 C298 0.930 . S
H327 C307 0.930 . S
H328 C319 0.929 . S
H329 C322 0.930 . S
C330 C331 1.351 . S
C330 N333 1.368 . S
C330 H335 0.931 . S
C331 C330 1.351 . S
C331 N332 1.373 . S
C331 H359 0.930 . S
N332 C331 1.373 . S
N332 C334 1.340 . S
N333 C330 1.368 . S
N333 C334 1.321 . S
N333 Co336 2.135 . S
C334 N332 1.340 . S
C334 N333 1.321 . S
C334 H358 0.930 . S
H335 C330 0.931 . S
Co336 N333 2.135 . S
Co336 N339 2.121 . S
Co336 O344 2.055 . S
Co336 O347 2.039 . S
Co336 N350 2.140 . S
C337 O338 1.227 . S
C337 O347 1.265 . S
O338 C337 1.227 . S
N339 Co336 2.121 . S
N339 C341 1.375 . S
N339 C342 1.313 . S
C340 C341 1.338 . S
C340 N343 1.377 . S
C340 H360 0.930 . S
C341 N339 1.375 . S
C341 C340 1.338 . S
C341 H345 0.931 . S
C342 N339 1.313 . S
C342 N343 1.344 . S
C342 H346 0.930 . S
N343 C340 1.377 . S
N343 C342 1.344 . S
O344 Co336 2.055 . S
O344 C348 1.253 . S
H345 C341 0.931 . S
H346 C342 0.930 . S
O347 Co336 2.039 . S
O347 C337 1.265 . S
C348 O344 1.253 . S
C348 O349 1.227 . S
O349 C348 1.227 . S
N350 Co336 2.140 . S
N350 C353 1.346 . S
N350 C354 1.345 . S
C351 C352 1.387 . S
C351 C355 1.391 . S
C352 C351 1.387 . S
C352 C353 1.369 1_655 S
C352 H361 0.929 . S
C353 N350 1.346 . S
C353 C352 1.369 1_455 S
C353 H356 0.928 . S
C354 N350 1.345 . S
C354 C355 1.371 1_455 S
C354 H357 0.931 . S
C355 C351 1.391 . S
C355 C354 1.371 1_655 S
C355 H362 0.930 . S
H356 C353 0.928 . S
H357 C354 0.931 . S
H358 C334 0.930 . S
H359 C331 0.930 . S
H360 C340 0.930 . S
H361 C352 0.929 . S
H362 C355 0.930 . S
C363 C364 1.351 . S
C363 N366 1.368 . S
C363 H368 0.931 . S
C364 C363 1.351 . S
C364 N365 1.373 . S
C364 H392 0.930 . S
N365 C364 1.373 . S
N365 C367 1.340 . S
N366 C363 1.368 . S
N366 C367 1.321 . S
N366 Co369 2.135 . S
C367 N365 1.340 . S
C367 N366 1.321 . S
C367 H391 0.930 . S
H368 C363 0.931 . S
Co369 N366 2.135 . S
Co369 N372 2.121 . S
Co369 O377 2.055 . S
Co369 O380 2.039 . S
Co369 N383 2.140 . S
C370 O371 1.227 . S
C370 O380 1.265 . S
O371 C370 1.227 . S
N372 Co369 2.121 . S
N372 C374 1.375 . S
N372 C375 1.313 . S
C373 C374 1.338 . S
C373 N376 1.377 . S
C373 H393 0.930 . S
C374 N372 1.375 . S
C374 C373 1.338 . S
C374 H378 0.931 . S
C375 N372 1.313 . S
C375 N376 1.344 . S
C375 H379 0.930 . S
N376 C373 1.377 . S
N376 C375 1.344 . S
O377 Co369 2.055 . S
O377 C381 1.253 . S
H378 C374 0.931 . S
H379 C375 0.930 . S
O380 Co369 2.039 . S
O380 C370 1.265 . S
C381 O377 1.253 . S
C381 O382 1.227 . S
O382 C381 1.227 . S
N383 Co369 2.140 . S
N383 C386 1.346 . S
N383 C387 1.345 . S
C384 C385 1.387 . S
C384 C388 1.391 . S
C385 C384 1.387 . S
C385 C386 1.369 1_565 S
C385 H394 0.929 . S
C386 N383 1.346 . S
C386 C385 1.369 1_545 S
C386 H389 0.928 . S
C387 N383 1.345 . S
C387 C388 1.371 1_545 S
C387 H390 0.931 . S
C388 C384 1.391 . S
C388 C387 1.371 1_565 S
C388 H395 0.930 . S
H389 C386 0.928 . S
H390 C387 0.931 . S
H391 C367 0.930 . S
H392 C364 0.930 . S
H393 C373 0.930 . S
H394 C385 0.929 . S
H395 C388 0.930 . S
C396 C397 1.363 . S
C396 C402 1.379 . S
C396 N404 1.356 . S
C397 C396 1.363 . S
C397 C403 1.363 . S
C398 C399 1.363 . S
C398 C403 1.379 . S
C398 N405 1.356 . S
C399 C398 1.363 . S
C399 C402 1.363 . S
N400 C402 1.356 . S
N400 H412 0.984 . S
N400 H413 0.985 . S
N401 C403 1.356 . S
N401 H406 0.984 . S
N401 H407 0.985 . S
C402 C396 1.379 . S
C402 C399 1.363 . S
C402 N400 1.356 . S
C403 C397 1.363 . S
C403 C398 1.379 . S
C403 N401 1.356 . S
N404 C396 1.356 . S
N404 H410 0.984 . S
N404 H411 0.984 . S
N405 C398 1.356 . S
N405 H408 0.984 . S
N405 H409 0.985 . S
H406 N401 0.984 . S
H407 N401 0.985 . S
H408 N405 0.984 . S
H409 N405 0.985 . S
H410 N404 0.984 . S
H411 N404 0.984 . S
H412 N400 0.984 . S
H413 N400 0.985 . S
C414 C415 1.363 . S
C414 C420 1.378 . S
C414 N422 1.356 . S
C415 C414 1.363 . S
C415 C421 1.363 1_655 S
C416 C417 1.363 . S
C416 C421 1.379 . S
C416 N423 1.356 . S
C417 C416 1.363 . S
C417 C420 1.363 1_455 S
N418 C420 1.356 1_455 S
N418 H430 0.984 1_455 S
N418 H431 0.985 . S
N419 C421 1.356 1_655 S
N419 H424 0.984 . S
N419 H425 0.985 1_655 S
C420 C414 1.378 . S
C420 C417 1.363 1_655 S
C420 N418 1.356 1_655 S
C421 C415 1.363 1_455 S
C421 C416 1.379 . S
C421 N419 1.356 1_455 S
N422 C414 1.356 . S
N422 H428 0.984 . S
N422 H429 0.984 . S
N423 C416 1.356 . S
N423 H426 0.984 . S
N423 H427 0.985 . S
H424 N419 0.984 . S
H425 N419 0.985 1_455 S
H426 N423 0.984 . S
H427 N423 0.985 . S
H428 N422 0.984 . S
H429 N422 0.984 . S
H430 N418 0.984 1_655 S
H431 N418 0.985 . S
C432 C433 1.363 1_545 S
C432 C438 1.379 . S
C432 N440 1.356 1_545 S
C433 C432 1.363 1_565 S
C433 C439 1.363 1_556 S
C434 C435 1.363 1_565 S
C434 C439 1.379 . S
C434 N441 1.356 1_565 S
C435 C434 1.363 1_545 S
C435 C438 1.363 1_554 S
N436 C438 1.356 . S
N436 H448 0.984 . S
N436 H449 0.985 1_556 S
N437 C439 1.356 . S
N437 H442 0.984 1_554 S
N437 H443 0.985 . S
C438 C432 1.379 . S
C438 C435 1.363 1_556 S
C438 N436 1.356 . S
C439 C433 1.363 1_554 S
C439 C434 1.379 . S
C439 N437 1.356 . S
N440 C432 1.356 1_565 S
N440 H446 0.984 1_565 S
N440 H447 0.984 . S
N441 C434 1.356 1_545 S
N441 H444 0.984 . S
N441 H445 0.985 1_545 S
H442 N437 0.984 1_556 S
H443 N437 0.985 . S
H444 N441 0.984 . S
H445 N441 0.985 1_565 S
H446 N440 0.984 1_545 S
H447 N440 0.984 . S
H448 N436 0.984 . S
H449 N436 0.985 1_554 S
C450 C451 1.363 . S
C450 C456 1.379 . S
C450 N458 1.356 . S
C451 C450 1.363 . S
C451 C457 1.363 . S
C452 C453 1.363 . S
C452 C457 1.379 . S
C452 N459 1.356 . S
C453 C452 1.363 . S
C453 C456 1.363 . S
N454 C456 1.356 . S
N454 H466 0.984 . S
N454 H467 0.985 . S
N455 C457 1.356 . S
N455 H460 0.984 . S
N455 H461 0.985 . S
C456 C450 1.379 . S
C456 C453 1.363 . S
C456 N454 1.356 . S
C457 C451 1.363 . S
C457 C452 1.379 . S
C457 N455 1.356 . S
N458 C450 1.356 . S
N458 H464 0.984 . S
N458 H465 0.984 . S
N459 C452 1.356 . S
N459 H462 0.984 . S
N459 H463 0.985 . S
H460 N455 0.984 . S
H461 N455 0.985 . S
H462 N459 0.984 . S
H463 N459 0.985 . S
H464 N458 0.984 . S
H465 N458 0.984 . S
H466 N454 0.984 . S
H467 N454 0.985 . S
C468 C469 1.363 . S
C468 C474 1.379 . S
C468 N476 1.356 . S
C469 C468 1.363 . S
C469 C475 1.363 1_455 S
C470 C471 1.363 . S
C470 C475 1.379 . S
C470 N477 1.356 . S
C471 C470 1.363 . S
C471 C474 1.363 1_655 S
N472 C474 1.356 . S
N472 H484 0.984 . S
N472 H485 0.985 1_455 S
N473 C475 1.356 . S
N473 H478 0.984 1_655 S
N473 H479 0.985 . S
C474 C468 1.379 . S
C474 C471 1.363 1_455 S
C474 N472 1.356 . S
C475 C469 1.363 1_655 S
C475 C470 1.379 . S
C475 N473 1.356 . S
N476 C468 1.356 . S
N476 H482 0.984 . S
N476 H483 0.984 . S
N477 C470 1.356 . S
N477 H480 0.984 . S
N477 H481 0.985 . S
H478 N473 0.984 1_455 S
H479 N473 0.985 . S
H480 N477 0.984 . S
H481 N477 0.985 . S
H482 N476 0.984 . S
H483 N476 0.984 . S
H484 N472 0.984 . S
H485 N472 0.985 1_655 S
C486 C487 1.363 1_565 S
C486 C492 1.379 . S
C486 N494 1.356 1_565 S
C487 C486 1.363 1_545 S
C487 C493 1.363 1_556 S
C488 C489 1.363 1_545 S
C488 C493 1.379 . S
C488 N495 1.356 1_545 S
C489 C488 1.363 1_565 S
C489 C492 1.363 1_554 S
N490 C492 1.353 1_554 S
N490 H502 0.967 1_554 S
N490 H503 1.006 . S
N491 C493 1.353 1_556 S
N491 H496 1.006 . S
N491 H497 0.967 1_556 S
C492 C486 1.379 . S
C492 C489 1.363 1_556 S
C492 N490 1.353 1_556 S
C493 C487 1.363 1_554 S
C493 C488 1.379 . S
C493 N491 1.353 1_554 S
N494 C486 1.356 1_545 S
N494 H500 0.984 1_545 S
N494 H501 0.984 . S
N495 C488 1.356 1_565 S
N495 H498 0.984 . S
N495 H499 0.985 1_565 S
H496 N491 1.006 . S
H497 N491 0.967 1_554 S
H498 N495 0.984 . S
H499 N495 0.985 1_545 S
H500 N494 0.984 1_565 S
H501 N494 0.984 . S
H502 N490 0.967 1_556 S
H503 N490 1.006 . S
C504 C505 1.363 . S
C504 C510 1.379 1_556 S
C504 N512 1.356 . S
C505 C504 1.363 . S
C505 C511 1.363 . S
C506 C507 1.363 . S
C506 C511 1.379 1_554 S
C506 N513 1.356 . S
C507 C506 1.363 . S
C507 C510 1.363 . S
N508 C510 1.356 . S
N508 H520 0.984 . S
N508 H521 0.985 . S
N509 C511 1.356 . S
N509 H514 0.984 . S
N509 H515 0.985 . S
C510 C504 1.379 1_554 S
C510 C507 1.363 . S
C510 N508 1.356 . S
C511 C505 1.363 . S
C511 C506 1.379 1_556 S
C511 N509 1.356 . S
N512 C504 1.356 . S
N512 H518 0.984 . S
N512 H519 0.984 . S
N513 C506 1.356 . S
N513 H516 0.984 . S
N513 H517 0.985 . S
H514 N509 0.984 . S
H515 N509 0.985 . S
H516 N513 0.984 . S
H517 N513 0.985 . S
H518 N512 0.984 . S
H519 N512 0.984 . S
H520 N508 0.984 . S
H521 N508 0.985 . S
C522 C523 1.363 . S
C522 C528 1.379 . S
C522 N530 1.356 . S
C523 C522 1.363 . S
C523 C529 1.363 . S
C524 C525 1.363 . S
C524 C529 1.379 . S
C524 N531 1.356 . S
C525 C524 1.363 . S
C525 C528 1.363 . S
N526 C528 1.356 . S
N526 H538 0.984 . S
N526 H539 0.985 . S
N527 C529 1.356 . S
N527 H532 0.984 . S
N527 H533 0.985 . S
C528 C522 1.379 . S
C528 C525 1.363 . S
C528 N526 1.356 . S
C529 C523 1.363 . S
C529 C524 1.379 . S
C529 N527 1.356 . S
N530 C522 1.356 . S
N530 H536 0.984 . S
N530 H537 0.984 . S
N531 C524 1.356 . S
N531 H534 0.984 . S
N531 H535 0.985 . S
H532 N527 0.984 . S
H533 N527 0.985 . S
H534 N531 0.984 . S
H535 N531 0.985 . S
H536 N530 0.984 . S
H537 N530 0.984 . S
H538 N526 0.984 . S
H539 N526 0.985 . S
C540 C541 1.363 . S
C540 C546 1.379 . S
C540 N548 1.356 . S
C541 C540 1.363 . S
C541 C547 1.363 . S
C542 C543 1.363 . S
C542 C547 1.379 . S
C542 N549 1.356 . S
C543 C542 1.363 . S
C543 C546 1.363 . S
N544 C546 1.356 . S
N544 H556 0.984 . S
N544 H557 0.985 . S
N545 C547 1.356 . S
N545 H550 0.984 . S
N545 H551 0.985 . S
C546 C540 1.379 . S
C546 C543 1.363 . S
C546 N544 1.356 . S
C547 C541 1.363 . S
C547 C542 1.379 . S
C547 N545 1.356 . S
N548 C540 1.356 . S
N548 H554 0.984 . S
N548 H555 0.984 . S
N549 C542 1.356 . S
N549 H552 0.984 . S
N549 H553 0.985 . S
H550 N545 0.984 . S
H551 N545 0.985 . S
H552 N549 0.984 . S
H553 N549 0.985 . S
H554 N548 0.984 . S
H555 N548 0.984 . S
H556 N544 0.984 . S
H557 N544 0.985 . S
C558 C559 1.363 . S
C558 C564 1.379 1_556 S
C558 N566 1.356 . S
C559 C558 1.363 . S
C559 C565 1.363 . S
C560 C561 1.363 . S
C560 C565 1.379 1_554 S
C560 N567 1.356 . S
C561 C560 1.363 . S
C561 C564 1.363 . S
N562 C564 1.356 . S
N562 H574 0.984 . S
N562 H575 0.985 . S
N563 C565 1.356 . S
N563 H568 0.984 . S
N563 H569 0.985 . S
C564 C558 1.379 1_554 S
C564 C561 1.363 . S
C564 N562 1.356 . S
C565 C559 1.363 . S
C565 C560 1.379 1_556 S
C565 N563 1.356 . S
N566 C558 1.356 . S
N566 H572 0.984 . S
N566 H573 0.984 . S
N567 C560 1.356 . S
N567 H570 0.984 . S
N567 H571 0.985 . S
H568 N563 0.984 . S
H569 N563 0.985 . S
H570 N567 0.984 . S
H571 N567 0.985 . S
H572 N566 0.984 . S
H573 N566 0.984 . S
H574 N562 0.984 . S
H575 N562 0.985 . S
C576 C577 1.363 . S
C576 C582 1.379 . S
C576 N584 1.356 . S
C577 C576 1.363 . S
C577 C583 1.363 . S
C578 C579 1.363 . S
C578 C583 1.379 . S
C578 N585 1.356 . S
C579 C578 1.363 . S
C579 C582 1.363 . S
N580 C582 1.356 . S
N580 H592 0.984 . S
N580 H593 0.985 . S
N581 C583 1.356 . S
N581 H586 0.984 . S
N581 H587 0.985 . S
C582 C576 1.379 . S
C582 C579 1.363 . S
C582 N580 1.356 . S
C583 C577 1.363 . S
C583 C578 1.379 . S
C583 N581 1.356 . S
N584 C576 1.356 . S
N584 H590 0.984 . S
N584 H591 0.984 . S
N585 C578 1.356 . S
N585 H588 0.984 . S
N585 H589 0.985 . S
H586 N581 0.984 . S
H587 N581 0.985 . S
H588 N585 0.984 . S
H589 N585 0.985 . S
H590 N584 0.984 . S
H591 N584 0.984 . S
H592 N580 0.984 . S
H593 N580 0.985 . S
C594 C595 1.363 . S
C594 C600 1.379 . S
C594 N602 1.356 . S
C595 C594 1.363 . S
C595 C601 1.363 . S
C596 C597 1.363 . S
C596 C601 1.379 . S
C596 N603 1.356 . S
C597 C596 1.363 . S
C597 C600 1.363 . S
N598 C600 1.356 . S
N598 H610 0.984 . S
N598 H611 0.985 . S
N599 C601 1.356 . S
N599 H604 0.984 . S
N599 H605 0.985 . S
C600 C594 1.379 . S
C600 C597 1.363 . S
C600 N598 1.356 . S
C601 C595 1.363 . S
C601 C596 1.379 . S
C601 N599 1.356 . S
N602 C594 1.356 . S
N602 H608 0.984 . S
N602 H609 0.984 . S
N603 C596 1.356 . S
N603 H606 0.984 . S
N603 H607 0.985 . S
H604 N599 0.984 . S
H605 N599 0.985 . S
H606 N603 0.984 . S
H607 N603 0.985 . S
H608 N602 0.984 . S
H609 N602 0.984 . S
H610 N598 0.984 . S
H611 N598 0.985 . S
C612 C613 1.363 . S
C612 C618 1.379 . S
C612 N620 1.356 . S
C613 C612 1.363 . S
C613 C619 1.363 . S
C614 C615 1.363 . S
C614 C619 1.379 . S
C614 N621 1.356 . S
C615 C614 1.363 . S
C615 C618 1.363 . S
N616 C618 1.356 . S
N616 H628 0.984 . S
N616 H629 0.985 . S
N617 C619 1.356 . S
N617 H622 0.984 . S
N617 H623 0.985 . S
C618 C612 1.379 . S
C618 C615 1.363 . S
C618 N616 1.356 . S
C619 C613 1.363 . S
C619 C614 1.379 . S
C619 N617 1.356 . S
N620 C612 1.356 . S
N620 H626 0.984 . S
N620 H627 0.984 . S
N621 C614 1.356 . S
N621 H624 0.984 . S
N621 H625 0.985 . S
H622 N617 0.984 . S
H623 N617 0.985 . S
H624 N621 0.984 . S
H625 N621 0.985 . S
H626 N620 0.984 . S
H627 N620 0.984 . S
H628 N616 0.984 . S
H629 N616 0.985 . S
C630 C631 1.363 . S
C630 C636 1.379 1_655 S
C630 N638 1.356 . S
C631 C630 1.363 . S
C631 C637 1.363 . S
C632 C633 1.363 . S
C632 C637 1.379 1_455 S
C632 N639 1.356 . S
C633 C632 1.363 . S
C633 C636 1.363 . S
N634 C636 1.356 . S
N634 H646 0.984 . S
N634 H647 0.985 . S
N635 C637 1.356 . S
N635 H640 0.984 . S
N635 H641 0.985 . S
C636 C630 1.379 1_455 S
C636 C633 1.363 . S
C636 N634 1.356 . S
C637 C631 1.363 . S
C637 C632 1.379 1_655 S
C637 N635 1.356 . S
N638 C630 1.356 . S
N638 H644 0.984 . S
N638 H645 0.984 . S
N639 C632 1.356 . S
N639 H642 0.984 . S
N639 H643 0.985 . S
H640 N635 0.984 . S
H641 N635 0.985 . S
H642 N639 0.984 . S
H643 N639 0.985 . S
H644 N638 0.984 . S
H645 N638 0.984 . S
H646 N634 0.984 . S
H647 N634 0.985 . S
C648 C649 1.363 . S
C648 C654 1.379 1_545 S
C648 N656 1.356 . S
C649 C648 1.363 . S
C649 C655 1.363 . S
C650 C651 1.363 . S
C650 C655 1.379 1_565 S
C650 N657 1.356 . S
C651 C650 1.363 . S
C651 C654 1.363 . S
N652 C654 1.356 . S
N652 H664 0.984 . S
N652 H665 0.985 . S
N653 C655 1.356 . S
N653 H658 0.984 . S
N653 H659 0.985 . S
C654 C648 1.379 1_565 S
C654 C651 1.363 . S
C654 N652 1.356 . S
C655 C649 1.363 . S
C655 C650 1.379 1_545 S
C655 N653 1.356 . S
N656 C648 1.356 . S
N656 H662 0.984 . S
N656 H663 0.984 . S
N657 C650 1.356 . S
N657 H660 0.984 . S
N657 H661 0.985 . S
H658 N653 0.984 . S
H659 N653 0.985 . S
H660 N657 0.984 . S
H661 N657 0.985 . S
H662 N656 0.984 . S
H663 N656 0.984 . S
H664 N652 0.984 . S
H665 N652 0.985 . S
C666 C667 1.363 . S
C666 C672 1.379 . S
C666 N674 1.356 . S
C667 C666 1.363 . S
C667 C673 1.363 . S
C668 C669 1.363 . S
C668 C673 1.379 . S
C668 N675 1.356 . S
C669 C668 1.363 . S
C669 C672 1.363 . S
N670 C672 1.356 . S
N670 H682 0.984 . S
N670 H683 0.985 . S
N671 C673 1.356 . S
N671 H676 0.984 . S
N671 H677 0.985 . S
C672 C666 1.379 . S
C672 C669 1.363 . S
C672 N670 1.356 . S
C673 C667 1.363 . S
C673 C668 1.379 . S
C673 N671 1.356 . S
N674 C666 1.356 . S
N674 H680 0.984 . S
N674 H681 0.984 . S
N675 C668 1.356 . S
N675 H678 0.984 . S
N675 H679 0.985 . S
H676 N671 0.984 . S
H677 N671 0.985 . S
H678 N675 0.984 . S
H679 N675 0.985 . S
H680 N674 0.984 . S
H681 N674 0.984 . S
H682 N670 0.984 . S
H683 N670 0.985 . S
C684 C685 1.363 . S
C684 C690 1.379 1_655 S
C684 N692 1.356 . S
C685 C684 1.363 . S
C685 C691 1.363 . S
C686 C687 1.363 . S
C686 C691 1.379 1_455 S
C686 N693 1.356 . S
C687 C686 1.363 . S
C687 C690 1.363 . S
N688 C690 1.356 . S
N688 H700 0.984 . S
N688 H701 0.985 . S
N689 C691 1.356 . S
N689 H694 0.984 . S
N689 H695 0.985 . S
C690 C684 1.379 1_455 S
C690 C687 1.363 . S
C690 N688 1.356 . S
C691 C685 1.363 . S
C691 C686 1.379 1_655 S
C691 N689 1.356 . S
N692 C684 1.356 . S
N692 H698 0.984 . S
N692 H699 0.984 . S
N693 C686 1.356 . S
N693 H696 0.984 . S
N693 H697 0.985 . S
H694 N689 0.984 . S
H695 N689 0.985 . S
H696 N693 0.984 . S
H697 N693 0.985 . S
H698 N692 0.984 . S
H699 N692 0.984 . S
H700 N688 0.984 . S
H701 N688 0.985 . S
C702 C703 1.363 . S
C702 C708 1.379 1_545 S
C702 N710 1.356 . S
C703 C702 1.363 . S
C703 C709 1.363 . S
C704 C705 1.363 . S
C704 C709 1.379 1_565 S
C704 N711 1.356 . S
C705 C704 1.363 . S
C705 C708 1.363 . S
N706 C708 1.356 . S
N706 H718 0.984 . S
N706 H719 0.985 . S
N707 C709 1.356 . S
N707 H712 0.984 . S
N707 H713 0.985 . S
C708 C702 1.379 1_565 S
C708 C705 1.363 . S
C708 N706 1.356 . S
C709 C703 1.363 . S
C709 C704 1.379 1_545 S
C709 N707 1.356 . S
N710 C702 1.356 . S
N710 H716 0.984 . S
N710 H717 0.984 . S
N711 C704 1.356 . S
N711 H714 0.984 . S
N711 H715 0.985 . S
H712 N707 0.984 . S
H713 N707 0.985 . S
H714 N711 0.984 . S
H715 N711 0.985 . S
H716 N710 0.984 . S
H717 N710 0.984 . S
H718 N706 0.984 . S
H719 N706 0.985 . S
C720 C721 1.363 . S
C720 C726 1.379 1_455 S
C720 N728 1.356 . S
C721 C720 1.363 . S
C721 C727 1.363 . S
C722 C723 1.363 . S
C722 C727 1.379 1_655 S
C722 N729 1.356 . S
C723 C722 1.363 . S
C723 C726 1.363 . S
N724 C726 1.356 . S
N724 H736 0.984 . S
N724 H737 0.985 . S
N725 C727 1.356 . S
N725 H730 0.984 . S
N725 H731 0.985 . S
C726 C720 1.379 1_655 S
C726 C723 1.363 . S
C726 N724 1.356 . S
C727 C721 1.363 . S
C727 C722 1.379 1_455 S
C727 N725 1.356 . S
N728 C720 1.356 . S
N728 H734 0.984 . S
N728 H735 0.984 . S
N729 C722 1.356 . S
N729 H732 0.984 . S
N729 H733 0.985 . S
H730 N725 0.984 . S
H731 N725 0.985 . S
H732 N729 0.984 . S
H733 N729 0.985 . S
H734 N728 0.984 . S
H735 N728 0.984 . S
H736 N724 0.984 . S
H737 N724 0.985 . S
C738 C739 1.363 . S
C738 C744 1.379 1_565 S
C738 N746 1.356 . S
C739 C738 1.363 . S
C739 C745 1.363 . S
C740 C741 1.363 . S
C740 C745 1.379 1_545 S
C740 N747 1.356 . S
C741 C740 1.363 . S
C741 C744 1.363 . S
N742 C744 1.356 . S
N742 H754 0.984 . S
N742 H755 0.985 . S
N743 C745 1.356 . S
N743 H748 0.984 . S
N743 H749 0.985 . S
C744 C738 1.379 1_545 S
C744 C741 1.363 . S
C744 N742 1.356 . S
C745 C739 1.363 . S
C745 C740 1.379 1_565 S
C745 N743 1.356 . S
N746 C738 1.356 . S
N746 H752 0.984 . S
N746 H753 0.984 . S
N747 C740 1.356 . S
N747 H750 0.984 . S
N747 H751 0.985 . S
H748 N743 0.984 . S
H749 N743 0.985 . S
H750 N747 0.984 . S
H751 N747 0.985 . S
H752 N746 0.984 . S
H753 N746 0.984 . S
H754 N742 0.984 . S
H755 N742 0.985 . S
C756 C757 1.363 . S
C756 C762 1.379 . S
C756 N764 1.356 . S
C757 C756 1.363 . S
C757 C763 1.363 . S
C758 C759 1.363 . S
C758 C763 1.379 . S
C758 N765 1.356 . S
C759 C758 1.363 . S
C759 C762 1.363 . S
N760 C762 1.356 . S
N760 H772 0.984 . S
N760 H773 0.985 . S
N761 C763 1.356 . S
N761 H766 0.984 . S
N761 H767 0.985 . S
C762 C756 1.379 . S
C762 C759 1.363 . S
C762 N760 1.356 . S
C763 C757 1.363 . S
C763 C758 1.379 . S
C763 N761 1.356 . S
N764 C756 1.356 . S
N764 H770 0.984 . S
N764 H771 0.984 . S
N765 C758 1.356 . S
N765 H768 0.984 . S
N765 H769 0.985 . S
H766 N761 0.984 . S
H767 N761 0.985 . S
H768 N765 0.984 . S
H769 N765 0.985 . S
H770 N764 0.984 . S
H771 N764 0.984 . S
H772 N760 0.984 . S
H773 N760 0.985 . S
C774 C775 1.363 . S
C774 C780 1.379 1_655 S
C774 N782 1.356 . S
C775 C774 1.363 . S
C775 C781 1.363 . S
C776 C777 1.363 . S
C776 C781 1.379 1_455 S
C776 N783 1.356 . S
C777 C776 1.363 . S
C777 C780 1.363 . S
N778 C780 1.356 . S
N778 H790 0.984 . S
N778 H791 0.985 . S
N779 C781 1.356 . S
N779 H784 0.984 . S
N779 H785 0.985 . S
C780 C774 1.379 1_455 S
C780 C777 1.363 . S
C780 N778 1.356 . S
C781 C775 1.363 . S
C781 C776 1.379 1_655 S
C781 N779 1.356 . S
N782 C774 1.356 . S
N782 H788 0.984 . S
N782 H789 0.984 . S
N783 C776 1.356 . S
N783 H786 0.984 . S
N783 H787 0.985 . S
H784 N779 0.984 . S
H785 N779 0.985 . S
H786 N783 0.984 . S
H787 N783 0.985 . S
H788 N782 0.984 . S
H789 N782 0.984 . S
H790 N778 0.984 . S
H791 N778 0.985 . S
C792 C793 1.363 . S
C792 C798 1.379 1_565 S
C792 N800 1.356 . S
C793 C792 1.363 . S
C793 C799 1.363 . S
C794 C795 1.363 . S
C794 C799 1.379 1_545 S
C794 N801 1.356 . S
C795 C794 1.363 . S
C795 C798 1.363 . S
N796 C798 1.356 . S
N796 H808 0.984 . S
N796 H809 0.985 . S
N797 C799 1.356 . S
N797 H802 0.984 . S
N797 H803 0.985 . S
C798 C792 1.379 1_545 S
C798 C795 1.363 . S
C798 N796 1.356 . S
C799 C793 1.363 . S
C799 C794 1.379 1_565 S
C799 N797 1.356 . S
N800 C792 1.356 . S
N800 H806 0.984 . S
N800 H807 0.984 . S
N801 C794 1.356 . S
N801 H804 0.984 . S
N801 H805 0.985 . S
H802 N797 0.984 . S
H803 N797 0.985 . S
H804 N801 0.984 . S
H805 N801 0.985 . S
H806 N800 0.984 . S
H807 N800 0.984 . S
H808 N796 0.984 . S
H809 N796 0.985 . S
C810 C811 1.363 . S
C810 C816 1.379 . S
C810 N818 1.356 . S
C811 C810 1.363 . S
C811 C817 1.363 . S
C812 C813 1.363 . S
C812 C817 1.379 . S
C812 N819 1.356 . S
C813 C812 1.363 . S
C813 C816 1.363 . S
N814 C816 1.356 . S
N814 H826 0.984 . S
N814 H827 0.985 . S
N815 C817 1.356 . S
N815 H820 0.984 . S
N815 H821 0.985 . S
C816 C810 1.379 . S
C816 C813 1.363 . S
C816 N814 1.356 . S
C817 C811 1.363 . S
C817 C812 1.379 . S
C817 N815 1.356 . S
N818 C810 1.356 . S
N818 H824 0.984 . S
N818 H825 0.984 . S
N819 C812 1.356 . S
N819 H822 0.984 . S
N819 H823 0.985 . S
H820 N815 0.984 . S
H821 N815 0.985 . S
H822 N819 0.984 . S
H823 N819 0.985 . S
H824 N818 0.984 . S
H825 N818 0.984 . S
H826 N814 0.984 . S
H827 N814 0.985 . S
C828 C829 1.363 . S
C828 C834 1.379 . S
C828 N836 1.356 . S
C829 C828 1.363 . S
C829 C835 1.363 . S
C830 C831 1.363 . S
C830 C835 1.379 . S
C830 N837 1.356 . S
C831 C830 1.363 . S
C831 C834 1.363 . S
N832 C834 1.356 . S
N832 H844 0.984 . S
N832 H845 0.985 . S
N833 C835 1.356 . S
N833 H838 0.984 . S
N833 H839 0.985 . S
C834 C828 1.379 . S
C834 C831 1.363 . S
C834 N832 1.356 . S
C835 C829 1.363 . S
C835 C830 1.379 . S
C835 N833 1.356 . S
N836 C828 1.356 . S
N836 H842 0.984 . S
N836 H843 0.984 . S
N837 C830 1.356 . S
N837 H840 0.984 . S
N837 H841 0.985 . S
H838 N833 0.984 . S
H839 N833 0.985 . S
H840 N837 0.984 . S
H841 N837 0.985 . S
H842 N836 0.984 . S
H843 N836 0.984 . S
H844 N832 0.984 . S
H845 N832 0.985 . S
C846 C847 1.363 . S
C846 C852 1.379 . S
C846 N854 1.356 . S
C847 C846 1.363 . S
C847 C853 1.363 . S
C848 C849 1.363 . S
C848 C853 1.379 . S
C848 N855 1.356 . S
C849 C848 1.363 . S
C849 C852 1.363 . S
N850 C852 1.356 . S
N850 H862 0.984 . S
N850 H863 0.985 . S
N851 C853 1.356 . S
N851 H856 0.984 . S
N851 H857 0.985 . S
C852 C846 1.379 . S
C852 C849 1.363 . S
C852 N850 1.356 . S
C853 C847 1.363 . S
C853 C848 1.379 . S
C853 N851 1.356 . S
N854 C846 1.356 . S
N854 H860 0.984 . S
N854 H861 0.984 . S
N855 C848 1.356 . S
N855 H858 0.984 . S
N855 H859 0.985 . S
H856 N851 0.984 . S
H857 N851 0.985 . S
H858 N855 0.984 . S
H859 N855 0.985 . S
H860 N854 0.984 . S
H861 N854 0.984 . S
H862 N850 0.984 . S
H863 N850 0.985 . S
C864 C865 1.363 . S
C864 C870 1.379 . S
C864 N872 1.356 . S
C865 C864 1.363 . S
C865 C871 1.363 . S
C866 C867 1.363 . S
C866 C871 1.379 . S
C866 N873 1.356 . S
C867 C866 1.363 . S
C867 C870 1.363 . S
N868 C870 1.356 . S
N868 H880 0.984 . S
N868 H881 0.985 . S
N869 C871 1.356 . S
N869 H874 0.984 . S
N869 H875 0.985 . S
C870 C864 1.379 . S
C870 C867 1.363 . S
C870 N868 1.356 . S
C871 C865 1.363 . S
C871 C866 1.379 . S
C871 N869 1.356 . S
N872 C864 1.356 . S
N872 H878 0.984 . S
N872 H879 0.984 . S
N873 C866 1.356 . S
N873 H876 0.985 1_655 S
N873 H877 0.985 . S
H874 N869 0.984 . S
H875 N869 0.985 . S
H876 N873 0.985 1_455 S
H877 N873 0.985 . S
H878 N872 0.984 . S
H879 N872 0.984 . S
H880 N868 0.984 . S
H881 N868 0.985 . S
C882 C883 1.363 . S
C882 C888 1.379 . S
C882 N890 1.356 . S
C883 C882 1.363 . S
C883 C889 1.363 . S
C884 C885 1.363 . S
C884 C889 1.379 . S
C884 N891 1.356 . S
C885 C884 1.363 . S
C885 C888 1.363 . S
N886 C888 1.356 . S
N886 H898 0.984 . S
N886 H899 0.985 . S
N887 C889 1.356 . S
N887 H892 0.984 . S
N887 H893 0.985 . S
C888 C882 1.379 . S
C888 C885 1.363 . S
C888 N886 1.356 . S
C889 C883 1.363 . S
C889 C884 1.379 . S
C889 N887 1.356 . S
N890 C882 1.356 . S
N890 H896 0.984 . S
N890 H897 0.984 . S
N891 C884 1.356 . S
N891 H894 0.984 . S
N891 H895 0.985 . S
H892 N887 0.984 . S
H893 N887 0.985 . S
H894 N891 0.984 . S
H895 N891 0.985 . S
H896 N890 0.984 . S
H897 N890 0.984 . S
H898 N886 0.984 . S
H899 N886 0.985 . S
C900 C901 1.363 . S
C900 C906 1.379 . S
C900 N908 1.356 . S
C901 C900 1.363 . S
C901 C907 1.363 . S
C902 C903 1.363 . S
C902 C907 1.379 . S
C902 N909 1.356 . S
C903 C902 1.363 . S
C903 C906 1.363 . S
N904 C906 1.356 . S
N904 H916 0.984 . S
N904 H917 0.985 . S
N905 C907 1.356 . S
N905 H910 0.984 . S
N905 H911 0.985 . S
C906 C900 1.379 . S
C906 C903 1.363 . S
C906 N904 1.356 . S
C907 C901 1.363 . S
C907 C902 1.379 . S
C907 N905 1.356 . S
N908 C900 1.356 . S
N908 H914 0.984 . S
N908 H915 0.984 . S
N909 C902 1.356 . S
N909 H912 0.984 . S
N909 H913 0.985 . S
H910 N905 0.984 . S
H911 N905 0.985 . S
H912 N909 0.984 . S
H913 N909 0.985 . S
H914 N908 0.984 . S
H915 N908 0.984 . S
H916 N904 0.984 . S
H917 N904 0.985 . S
C918 C919 1.363 . S
C918 C924 1.379 . S
C918 N926 1.356 . S
C919 C918 1.363 . S
C919 C925 1.363 . S
C920 C921 1.363 . S
C920 C925 1.379 . S
C920 N927 1.356 . S
C921 C920 1.363 . S
C921 C924 1.363 . S
N922 C924 1.356 . S
N922 H934 0.984 . S
N922 H935 0.985 . S
N923 C925 1.356 . S
N923 H928 0.984 . S
N923 H929 0.985 . S
C924 C918 1.379 . S
C924 C921 1.363 . S
C924 N922 1.356 . S
C925 C919 1.363 . S
C925 C920 1.379 . S
C925 N923 1.356 . S
N926 C918 1.356 . S
N926 H932 0.984 . S
N926 H933 0.984 . S
N927 C920 1.356 . S
N927 H930 0.984 1_455 S
N927 H931 0.985 . S
H928 N923 0.984 . S
H929 N923 0.985 . S
H930 N927 0.984 1_655 S
H931 N927 0.985 . S
H932 N926 0.984 . S
H933 N926 0.984 . S
H934 N922 0.984 . S
H935 N922 0.985 . S
C397 N299 1.781 . S
C399 N2 1.781 . S
C415 N35 1.781 . S
C417 N332 1.781 . S
C433 N68 1.781 . S
C435 N365 1.781 . S
C451 N101 1.781 . S
C453 N200 1.781 . S
C469 N134 1.781 . S
C471 N233 1.781 . S
C487 N167 1.781 . S
C489 N266 1.781 . S
C505 N343 1.601 . S
C507 N13 1.601 . S
C523 N376 1.601 . S
C525 N46 1.601 . S
C541 N79 1.601 . S
C543 N211 1.601 . S
C559 N244 1.601 . S
C561 N112 1.601 . S
C577 N145 1.601 . S
C579 N277 1.601 . S
C595 N178 1.601 . S
C597 N310 1.601 . S
C613 C106 1.719 . S
C615 C7 1.719 . S
C631 C40 1.719 . S
C633 C139 1.719 . S
C649 C172 1.719 . S
C651 C73 1.719 . S
C667 C304 1.719 . S
C669 C205 1.719 . S
C685 C238 1.719 . S
C687 C337 1.719 . S
C703 C370 1.719 . S
C705 C271 1.719 . S
C721 C18 1.807 . S
C723 C381 1.807 . S
C739 C216 1.807 . S
C741 C51 1.807 . S
C757 C84 1.807 . S
C759 C249 1.807 . S
C775 C117 1.807 . S
C777 C282 1.807 . S
C793 C150 1.807 . S
C795 C315 1.807 . S
C811 C348 1.807 . S
C813 C183 1.807 . S
C829 C21 0.592 . S
C831 C285 0.592 . S
C847 C318 0.592 . S
C849 C54 0.592 . S
C865 C87 0.593 . S
C867 C351 0.593 . S
C883 C384 0.592 . S
C885 C120 0.592 . S
C901 C219 0.592 . S
C903 C153 0.592 . S
C919 C186 0.593 . S
C921 C252 0.593 . S
