# Generated by pormake.
# Topology dia-a, (4)-cn, num edge types: 1
# Building blocks:
#     Node 0, Type 0, BuildingBlock: AZAVOO_clean_sbu_0, # of connection points: 4
#     Node 1, Type 0, BuildingBlock: AZAVOO_clean_sbu_0, # of connection points: 4
#     Node 2, Type 0, BuildingBlock: AZAVOO_clean_sbu_0, # of connection points: 4
#     Node 3, Type 0, BuildingBlock: AZAVOO_clean_sbu_0, # of connection points: 4
#     Node 4, Type 0, BuildingBlock: AZAVOO_clean_sbu_0, # of connection points: 4
#     Node 5, Type 0, BuildingBlock: AZAVOO_clean_sbu_0, # of connection points: 4
#     Node 6, Type 0, BuildingBlock: AZAVOO_clean_sbu_0, # of connection points: 4
#     Node 7, Type 0, BuildingBlock: AZAVOO_clean_sbu_0, # of connection points: 4
#     Node 8, Type 0, BuildingBlock: AZAVOO_clean_sbu_0, # of connection points: 4
#     Node 9, Type 0, BuildingBlock: AZAVOO_clean_sbu_0, # of connection points: 4
#     Node 10, Type 0, BuildingBlock: AZAVOO_clean_sbu_0, # of connection points: 4
#     Node 11, Type 0, BuildingBlock: AZAVOO_clean_sbu_0, # of connection points: 4
#     Node 12, Type 0, BuildingBlock: AZAVOO_clean_sbu_0, # of connection points: 4
#     Node 13, Type 0, BuildingBlock: AZAVOO_clean_sbu_0, # of connection points: 4
#     Node 14, Type 0, BuildingBlock: AZAVOO_clean_sbu_0, # of connection points: 4
#     Node 15, Type 0, BuildingBlock: AZAVOO_clean_sbu_0, # of connection points: 4
#     Node 16, Type 0, BuildingBlock: AZAVOO_clean_sbu_0, # of connection points: 4
#     Node 17, Type 0, BuildingBlock: AZAVOO_clean_sbu_0, # of connection points: 4
#     Node 18, Type 0, BuildingBlock: AZAVOO_clean_sbu_0, # of connection points: 4
#     Node 19, Type 0, BuildingBlock: AZAVOO_clean_sbu_0, # of connection points: 4
#     Node 20, Type 0, BuildingBlock: AZAVOO_clean_sbu_0, # of connection points: 4
#     Node 21, Type 0, BuildingBlock: AZAVOO_clean_sbu_0, # of connection points: 4
#     Node 22, Type 0, BuildingBlock: AZAVOO_clean_sbu_0, # of connection points: 4
#     Node 23, Type 0, BuildingBlock: AZAVOO_clean_sbu_0, # of connection points: 4
#     Node 24, Type 0, BuildingBlock: AZAVOO_clean_sbu_0, # of connection points: 4
#     Node 25, Type 0, BuildingBlock: AZAVOO_clean_sbu_0, # of connection points: 4
#     Node 26, Type 0, BuildingBlock: AZAVOO_clean_sbu_0, # of connection points: 4
#     Node 27, Type 0, BuildingBlock: AZAVOO_clean_sbu_0, # of connection points: 4
#     Node 28, Type 0, BuildingBlock: AZAVOO_clean_sbu_0, # of connection points: 4
#     Node 29, Type 0, BuildingBlock: AZAVOO_clean_sbu_0, # of connection points: 4
#     Node 30, Type 0, BuildingBlock: AZAVOO_clean_sbu_0, # of connection points: 4
#     Node 31, Type 0, BuildingBlock: AZAVOO_clean_sbu_0, # of connection points: 4
#     Edge 32, Type (0, 0), BuildingBlock: UVAHIK_clean_linker_0, # of connection points: 2
#     Edge 33, Type (0, 0), BuildingBlock: UVAHIK_clean_linker_0, # of connection points: 2
#     Edge 34, Type (0, 0), BuildingBlock: UVAHIK_clean_linker_0, # of connection points: 2
#     Edge 35, Type (0, 0), BuildingBlock: UVAHIK_clean_linker_0, # of connection points: 2
#     Edge 36, Type (0, 0), BuildingBlock: UVAHIK_clean_linker_0, # of connection points: 2
#     Edge 37, Type (0, 0), BuildingBlock: UVAHIK_clean_linker_0, # of connection points: 2
#     Edge 38, Type (0, 0), BuildingBlock: UVAHIK_clean_linker_0, # of connection points: 2
#     Edge 39, Type (0, 0), BuildingBlock: UVAHIK_clean_linker_0, # of connection points: 2
#     Edge 40, Type (0, 0), BuildingBlock: UVAHIK_clean_linker_0, # of connection points: 2
#     Edge 41, Type (0, 0), BuildingBlock: UVAHIK_clean_linker_0, # of connection points: 2
#     Edge 42, Type (0, 0), BuildingBlock: UVAHIK_clean_linker_0, # of connection points: 2
#     Edge 43, Type (0, 0), BuildingBlock: UVAHIK_clean_linker_0, # of connection points: 2
#     Edge 44, Type (0, 0), BuildingBlock: UVAHIK_clean_linker_0, # of connection points: 2
#     Edge 45, Type (0, 0), BuildingBlock: UVAHIK_clean_linker_0, # of connection points: 2
#     Edge 46, Type (0, 0), BuildingBlock: UVAHIK_clean_linker_0, # of connection points: 2
#     Edge 47, Type (0, 0), BuildingBlock: UVAHIK_clean_linker_0, # of connection points: 2
#     Edge 48, Type (0, 0), BuildingBlock: UVAHIK_clean_linker_0, # of connection points: 2
#     Edge 49, Type (0, 0), BuildingBlock: UVAHIK_clean_linker_0, # of connection points: 2
#     Edge 50, Type (0, 0), BuildingBlock: UVAHIK_clean_linker_0, # of connection points: 2
#     Edge 51, Type (0, 0), BuildingBlock: UVAHIK_clean_linker_0, # of connection points: 2
#     Edge 52, Type (0, 0), BuildingBlock: UVAHIK_clean_linker_0, # of connection points: 2
#     Edge 53, Type (0, 0), BuildingBlock: UVAHIK_clean_linker_0, # of connection points: 2
#     Edge 54, Type (0, 0), BuildingBlock: UVAHIK_clean_linker_0, # of connection points: 2
#     Edge 55, Type (0, 0), BuildingBlock: UVAHIK_clean_linker_0, # of connection points: 2
#     Edge 56, Type (0, 0), BuildingBlock: UVAHIK_clean_linker_0, # of connection points: 2
#     Edge 57, Type (0, 0), BuildingBlock: UVAHIK_clean_linker_0, # of connection points: 2
#     Edge 58, Type (0, 0), BuildingBlock: UVAHIK_clean_linker_0, # of connection points: 2
#     Edge 59, Type (0, 0), BuildingBlock: UVAHIK_clean_linker_0, # of connection points: 2
#     Edge 60, Type (0, 0), BuildingBlock: UVAHIK_clean_linker_0, # of connection points: 2
#     Edge 61, Type (0, 0), BuildingBlock: UVAHIK_clean_linker_0, # of connection points: 2
#     Edge 62, Type (0, 0), BuildingBlock: UVAHIK_clean_linker_0, # of connection points: 2
#     Edge 63, Type (0, 0), BuildingBlock: UVAHIK_clean_linker_0, # of connection points: 2
#     Edge 64, Type (0, 0), BuildingBlock: UVAHIK_clean_linker_0, # of connection points: 2
#     Edge 65, Type (0, 0), BuildingBlock: UVAHIK_clean_linker_0, # of connection points: 2
#     Edge 66, Type (0, 0), BuildingBlock: UVAHIK_clean_linker_0, # of connection points: 2
#     Edge 67, Type (0, 0), BuildingBlock: UVAHIK_clean_linker_0, # of connection points: 2
#     Edge 68, Type (0, 0), BuildingBlock: UVAHIK_clean_linker_0, # of connection points: 2
#     Edge 69, Type (0, 0), BuildingBlock: UVAHIK_clean_linker_0, # of connection points: 2
#     Edge 70, Type (0, 0), BuildingBlock: UVAHIK_clean_linker_0, # of connection points: 2
#     Edge 71, Type (0, 0), BuildingBlock: UVAHIK_clean_linker_0, # of connection points: 2
#     Edge 72, Type (0, 0), BuildingBlock: UVAHIK_clean_linker_0, # of connection points: 2
#     Edge 73, Type (0, 0), BuildingBlock: UVAHIK_clean_linker_0, # of connection points: 2
#     Edge 74, Type (0, 0), BuildingBlock: UVAHIK_clean_linker_0, # of connection points: 2
#     Edge 75, Type (0, 0), BuildingBlock: UVAHIK_clean_linker_0, # of connection points: 2
#     Edge 76, Type (0, 0), BuildingBlock: UVAHIK_clean_linker_0, # of connection points: 2
#     Edge 77, Type (0, 0), BuildingBlock: UVAHIK_clean_linker_0, # of connection points: 2
#     Edge 78, Type (0, 0), BuildingBlock: UVAHIK_clean_linker_0, # of connection points: 2
#     Edge 79, Type (0, 0), BuildingBlock: UVAHIK_clean_linker_0, # of connection points: 2
#     Edge 80, Type (0, 0), BuildingBlock: UVAHIK_clean_linker_0, # of connection points: 2
#     Edge 81, Type (0, 0), BuildingBlock: UVAHIK_clean_linker_0, # of connection points: 2
#     Edge 82, Type (0, 0), BuildingBlock: UVAHIK_clean_linker_0, # of connection points: 2
#     Edge 83, Type (0, 0), BuildingBlock: UVAHIK_clean_linker_0, # of connection points: 2
#     Edge 84, Type (0, 0), BuildingBlock: UVAHIK_clean_linker_0, # of connection points: 2
#     Edge 85, Type (0, 0), BuildingBlock: UVAHIK_clean_linker_0, # of connection points: 2
#     Edge 86, Type (0, 0), BuildingBlock: UVAHIK_clean_linker_0, # of connection points: 2
#     Edge 87, Type (0, 0), BuildingBlock: UVAHIK_clean_linker_0, # of connection points: 2
#     Edge 88, Type (0, 0), BuildingBlock: UVAHIK_clean_linker_0, # of connection points: 2
#     Edge 89, Type (0, 0), BuildingBlock: UVAHIK_clean_linker_0, # of connection points: 2
#     Edge 90, Type (0, 0), BuildingBlock: UVAHIK_clean_linker_0, # of connection points: 2
#     Edge 91, Type (0, 0), BuildingBlock: UVAHIK_clean_linker_0, # of connection points: 2
#     Edge 92, Type (0, 0), BuildingBlock: UVAHIK_clean_linker_0, # of connection points: 2
#     Edge 93, Type (0, 0), BuildingBlock: UVAHIK_clean_linker_0, # of connection points: 2
#     Edge 94, Type (0, 0), BuildingBlock: UVAHIK_clean_linker_0, # of connection points: 2
#     Edge 95, Type (0, 0), BuildingBlock: UVAHIK_clean_linker_0, # of connection points: 2
# Relax obj value: 0.776
# Max RMSD: 0.286
# Mean RMSD: 0.272
data_MOF--net-dia-a--node1-AZAVOO_clean_sbu_0--edge1-UVAHIK_clean_linker_0
_symmetry_space_group_name_H-M    P1
_symmetry_Int_Tables_number       1
_symmetry_cell_setting            triclinic
loop_
_symmetry_equiv_pos_as_xyz
'x, y, z'
_cell_length_a     58.956082
_cell_length_b     81.636757
_cell_length_c     99.574421
_cell_angle_alpha  85.41623
_cell_angle_beta   101.19032
_cell_angle_gamma 115.09491
loop_
_atom_site_label
_atom_site_type_symbol
_atom_site_fract_x
_atom_site_fract_y
_atom_site_fract_z
_atom_type_partial_charge
Mg0 Mg 0.98214 0.00184 0.59294 0.0
O1 O 0.01038 0.03151 0.59683 0.0
O2 O 0.01449 0.03581 0.61931 0.0
Mg3 Mg 0.98518 0.01156 0.62945 0.0
C4 C 0.02078 0.04137 0.6076 0.0
C5 C 0.97695 0.99706 0.56228 0.0
O6 O 0.95341 0.99271 0.56374 0.0
O7 O 0.01568 0.99584 0.60447 0.0
O8 O -0.00575 0.99097 0.62067 0.0
O9 O 0.94946 0.01014 0.58728 0.0
O10 O 0.96336 0.00471 0.60847 0.0
C11 C 0.01552 0.99504 0.61722 0.0
C12 C 0.94878 0.0104 0.60015 0.0
O13 O -0.00559 0.00157 0.57278 0.0
Mg14 Mg 0.03161 0.35711 0.80578 0.0
O15 O 0.00736 0.33758 0.82064 0.0
O16 O 0.00181 0.35406 0.8356 0.0
Mg17 Mg 0.02147 0.38388 0.82989 0.0
C18 C -0.00147 0.3389 0.83104 0.0
C19 C 0.02732 0.3203 0.79425 0.0
O20 O 0.03984 0.31906 0.80645 0.0
O21 O -0.00336 0.36131 0.79472 0.0
O22 O 0.9917 0.37756 0.81009 0.0
O23 O 0.06761 0.36037 0.82061 0.0
O24 O 0.04702 0.37771 0.81996 0.0
C25 C 0.98473 0.36958 0.7985 0.0
C26 C 0.06541 0.37365 0.82567 0.0
O27 O 0.02171 0.33374 0.79149 0.0
Mg28 Mg 0.77193 0.25488 0.09338 0.0
O29 O 0.73956 0.22795 0.09761 0.0
O30 O 0.73766 0.22665 0.11991 0.0
Mg31 Mg 0.76866 0.253 0.12989 0.0
C32 C 0.72955 0.21979 0.10788 0.0
C33 C 0.75609 0.26102 0.06161 0.0
O34 O 0.76132 0.27742 0.06553 0.0
O35 O 0.74567 0.26885 0.09453 0.0
O36 O 0.74606 0.26737 0.11707 0.0
O37 O 0.79879 0.24155 0.09892 0.0
O38 O 0.7902 0.25608 0.11361 0.0
C39 C 0.7388 0.27212 0.10506 0.0
C40 C 0.8007 0.2458 0.11147 0.0
O41 O 0.75802 0.24944 0.07054 0.0
Mg42 Mg 0.70222 0.8702 0.25935 0.0
O43 O 0.73171 0.8804 0.2787 0.0
O44 O 0.73532 0.85755 0.29147 0.0
Mg45 Mg 0.71038 0.83206 0.27832 0.0
C46 C 0.74132 0.87442 0.28946 0.0
C47 C 0.69638 0.90522 0.25165 0.0
O48 O 0.67321 0.89347 0.25271 0.0
O49 O 0.73313 0.86758 0.24992 0.0
O50 O 0.73608 0.8442 0.26227 0.0
O51 O 0.67242 0.8655 0.27199 0.0
O52 O 0.68556 0.84486 0.26839 0.0
C53 C 0.74292 0.85617 0.25302 0.0
C54 C 0.67268 0.84985 0.27485 0.0
O55 O 0.71376 0.89962 0.25282 0.0
Mg56 Mg 0.9595 0.18548 0.65306 0.0
O57 O 0.98547 0.1722 0.66355 0.0
O58 O 0.98854 0.15444 0.6487 0.0
Mg59 Mg 0.96635 0.15822 0.6279 0.0
C60 C -0.00614 0.16107 0.66069 0.0
C61 C 0.96106 0.19786 0.6823 0.0
O62 O 0.94231 0.18167 0.68202 0.0
O63 O 0.99251 0.20584 0.64319 0.0
O64 O -0.00554 0.18811 0.62783 0.0
O65 O 0.92578 0.16031 0.65719 0.0
O66 O 0.94203 0.16514 0.63829 0.0
C67 C 0.00225 0.20353 0.63348 0.0
C68 C 0.92624 0.15431 0.64565 0.0
O69 O 0.97185 0.20341 0.67191 0.0
Mg70 Mg 0.7563 0.22843 0.89309 0.0
O71 O 0.78491 0.25812 0.89335 0.0
O72 O 0.80065 0.26365 0.87391 0.0
Mg73 Mg 0.7789 0.23846 0.86037 0.0
C74 C 0.79994 0.26863 0.88561 0.0
C75 C 0.74298 0.22163 0.92172 0.0
O76 O 0.74601 0.20716 0.91929 0.0
O77 O 0.72692 0.23657 0.87939 0.0
O78 O 0.74208 0.24207 0.85979 0.0
O79 O 0.78919 0.22161 0.90111 0.0
O80 O 0.77391 0.2223 0.87906 0.0
C81 C 0.72566 0.24127 0.86682 0.0
C82 C 0.79182 0.22161 0.88851 0.0
O83 O 0.74506 0.23349 0.91239 0.0
Mg84 Mg 0.73882 0.12675 0.24788 0.0
O85 O 0.71974 0.1152 0.22636 0.0
O86 O 0.71301 0.1358 0.21169 0.0
Mg87 Mg 0.72573 0.1627 0.22321 0.0
C88 C 0.71187 0.11988 0.21443 0.0
C89 C 0.7299 0.08821 0.25891 0.0
O90 O 0.71012 0.08967 0.26194 0.0
O91 O 0.77688 0.14036 0.23973 0.0
O92 O 0.75499 0.15602 0.23675 0.0
O93 O 0.7001 0.12006 0.25232 0.0
O94 O 0.72168 0.14604 0.24274 0.0
C95 C 0.77282 0.15328 0.23357 0.0
C96 C 0.70072 0.13491 0.24645 0.0
O97 O 0.74612 0.10161 0.25355 0.0
Mg98 Mg -0.00171 0.99391 0.39387 0.0
O99 O 0.97267 0.96348 0.39524 0.0
O100 O 0.96354 0.95231 0.37401 0.0
Mg101 Mg 0.98213 0.97495 0.35947 0.0
C102 C 0.96188 0.95036 0.38669 0.0
C103 C 0.00389 0.0069 0.42252 0.0
O104 O -0.00558 0.01701 0.41465 0.0
O105 O 0.0312 0.98673 0.39252 0.0
O106 O 0.02042 0.97606 0.37112 0.0
O107 O 0.96315 0.99841 0.38968 0.0
O108 O 0.9807 0.99372 0.37349 0.0
C109 C 0.03558 0.98022 0.3826 0.0
C110 C 0.96123 0.99444 0.37707 0.0
O111 O 0.00878 0.99557 0.41699 0.0
Mg112 Mg 0.48175 0.00732 0.09518 0.0
O113 O 0.50604 0.03802 0.09591 0.0
O114 O 0.50305 0.04876 0.11515 0.0
Mg115 Mg 0.47848 0.02474 0.12716 0.0
C116 C 0.51168 0.05113 0.10398 0.0
C117 C 0.48199 0.9936 0.06781 0.0
O118 O 0.45867 0.98401 0.07001 0.0
O119 O 0.51456 0.00475 0.11028 0.0
O120 O 0.51041 0.01518 0.12936 0.0
O121 O 0.44774 0.01233 0.08571 0.0
O122 O 0.45944 0.00989 0.108 0.0
C123 C 0.52168 0.00871 0.12301 0.0
C124 C 0.44494 0.01372 0.09808 0.0
O125 O 0.49784 0.00494 0.07685 0.0
Mg126 Mg 0.0344 0.85853 0.30019 0.0
O127 O 0.00841 0.83441 0.3129 0.0
O128 O -0.00024 0.84679 0.32957 0.0
Mg129 Mg 0.01867 0.87726 0.32797 0.0
C130 C -0.00216 0.83302 0.32337 0.0
C131 C 0.03358 0.82162 0.2973 0.0
O132 O 0.05708 0.83315 0.29668 0.0
O133 O -0.0026 0.86073 0.2903 0.0
O134 O 0.99207 0.8744 0.30724 0.0
O135 O 0.07183 0.8615 0.31529 0.0
O136 O 0.0448 0.87109 0.31919 0.0
C137 C 0.9855 0.86828 0.295 0.0
C138 C 0.06529 0.86932 0.32348 0.0
O139 O 0.01861 0.82757 0.30061 0.0
Mg140 Mg 0.26805 0.2536 0.59238 0.0
O141 O 0.23617 0.22642 0.59713 0.0
O142 O 0.23624 0.22649 0.61961 0.0
Mg143 Mg 0.26755 0.25306 0.62911 0.0
C144 C 0.22714 0.2189 0.60784 0.0
C145 C 0.27245 0.25104 0.56322 0.0
O146 O 0.29545 0.25559 0.5704 0.0
O147 O 0.2415 0.26714 0.59394 0.0
O148 O 0.2442 0.2672 0.61668 0.0
O149 O 0.29583 0.24084 0.59763 0.0
O150 O 0.2875 0.25552 0.61231 0.0
C151 C 0.23584 0.27116 0.60463 0.0
C152 C 0.29868 0.24576 0.61009 0.0
O153 O 0.25446 0.24894 0.56941 0.0
Mg154 Mg 0.70366 0.37272 0.75984 0.0
O155 O 0.73068 0.38182 0.78012 0.0
O156 O 0.73716 0.35875 0.79093 0.0
Mg157 Mg 0.71376 0.33404 0.77672 0.0
C158 C 0.7411 0.37542 0.7903 0.0
C159 C 0.69771 0.40857 0.75598 0.0
O160 O 0.67587 0.39724 0.75925 0.0
O161 O 0.73707 0.3729 0.75093 0.0
O162 O 0.73989 0.34825 0.76127 0.0
O163 O 0.67101 0.36426 0.77135 0.0
O164 O 0.68802 0.34626 0.76708 0.0
C165 C 0.747 0.36148 0.75299 0.0
C166 C 0.67254 0.34888 0.77316 0.0
O167 O 0.71384 0.40256 0.75468 0.0
Mg168 Mg 0.46377 0.18849 0.1529 0.0
O169 O 0.48842 0.17465 0.16424 0.0
O170 O 0.48871 0.15397 0.15102 0.0
Mg171 Mg 0.46688 0.15703 0.12991 0.0
C172 C 0.4953 0.16227 0.16243 0.0
C173 C 0.46116 0.20785 0.17737 0.0
O174 O 0.43694 0.19948 0.17199 0.0
O175 O 0.49698 0.20682 0.14221 0.0
O176 O 0.49728 0.18605 0.12897 0.0
O177 O 0.42949 0.16504 0.15831 0.0
O178 O 0.44425 0.16704 0.13915 0.0
C179 C 0.5064 0.20228 0.13337 0.0
C180 C 0.42845 0.15772 0.14702 0.0
O181 O 0.47771 0.20701 0.17131 0.0
Mg182 Mg 0.75479 0.72625 0.38949 0.0
O183 O 0.77965 0.75646 0.38994 0.0
O184 O 0.77312 0.76405 0.36785 0.0
Mg185 Mg 0.75614 0.73902 0.35365 0.0
C186 C 0.78197 0.76834 0.38051 0.0
C187 C 0.76341 0.72257 0.42136 0.0
O188 O 0.78005 0.71719 0.41854 0.0
O189 O 0.72263 0.73565 0.3818 0.0
O190 O 0.7184 0.72646 0.36105 0.0
O191 O 0.7897 0.72045 0.39059 0.0
O192 O 0.76782 0.725 0.37139 0.0
C193 C 0.71273 0.73473 0.36917 0.0
C194 C 0.78788 0.72323 0.37754 0.0
O195 O 0.74984 0.7271 0.41158 0.0
Mg196 Mg 0.23215 0.13047 0.7474 0.0
O197 O 0.20845 0.11922 0.72651 0.0
O198 O 0.19524 0.13934 0.71534 0.0
Mg199 Mg 0.2138 0.16484 0.72869 0.0
C200 C 0.19603 0.12389 0.71613 0.0
C201 C 0.23295 0.09466 0.75896 0.0
O202 O 0.21983 0.09789 0.76684 0.0
O203 O 0.26578 0.14656 0.73653 0.0
O204 O 0.25252 0.16693 0.72583 0.0
O205 O 0.19567 0.12046 0.75524 0.0
O206 O 0.214 0.14787 0.74683 0.0
C207 C 0.26891 0.16025 0.72874 0.0
C208 C 0.19417 0.1353 0.75066 0.0
O209 O 0.24225 0.10626 0.74997 0.0
Mg210 Mg -0.00366 0.49581 0.89602 0.0
O211 O 0.97155 0.46526 0.89709 0.0
O212 O 0.96347 0.45429 0.8759 0.0
Mg213 Mg 0.98177 0.47738 0.86155 0.0
C214 C 0.9614 0.45217 0.88853 0.0
C215 C 0.0022 0.50866 0.92507 0.0
O216 O 0.99266 0.519 0.91756 0.0
O217 O 0.03006 0.48934 0.89489 0.0
O218 O 0.0205 0.47961 0.87329 0.0
O219 O 0.9606 0.49971 0.89143 0.0
O220 O 0.97929 0.49566 0.87557 0.0
C221 C 0.0353 0.48354 0.88489 0.0
C222 C 0.9594 0.49607 0.87883 0.0
O223 O 0.00647 0.49729 0.91917 0.0
Mg224 Mg 0.97118 0.50403 0.09293 0.0
O225 O 0.00133 0.53291 0.09745 0.0
O226 O 0.00945 0.53552 0.12032 0.0
Mg227 Mg 0.9797 0.51141 0.13014 0.0
C228 C 0.0142 0.5417 0.10846 0.0
C229 C -0.00685 0.49757 0.06787 0.0
O230 O 4e-05 0.48664 0.07632 0.0
O231 O 0.00436 0.49683 0.1027 0.0
O232 O 0.98931 0.4906 0.12162 0.0
O233 O 0.93985 0.51354 0.08939 0.0
O234 O 0.95516 0.50639 0.10977 0.0
C235 C 0.00816 0.49493 0.11562 0.0
C236 C 0.94079 0.5132 0.10248 0.0
O237 O 0.98139 0.50574 0.07179 0.0
Mg238 Mg 0.499 0.49509 0.39579 0.0
O239 O 0.47521 0.46599 0.40227 0.0
O240 O 0.4543 0.45036 0.38282 0.0
Mg241 Mg 0.46785 0.46822 0.36457 0.0
C242 C 0.45927 0.45153 0.39586 0.0
C243 C 0.53232 0.50515 0.42954 0.0
O244 O 0.55691 0.51538 0.43174 0.0
O245 O 0.52793 0.48551 0.39175 0.0
O246 O 0.50793 0.46943 0.37249 0.0
O247 O 0.46419 0.50046 0.39412 0.0
O248 O 0.47499 0.4913 0.37704 0.0
C249 C 0.52709 0.47573 0.38216 0.0
C250 C 0.45833 0.4944 0.38171 0.0
O251 O 0.52036 0.50155 0.41737 0.0
Mg252 Mg 0.2669 0.75055 0.09418 0.0
O253 O 0.2379 0.72211 0.09888 0.0
O254 O 0.2433 0.71833 0.12162 0.0
Mg255 Mg 0.27179 0.74556 0.13134 0.0
C256 C 0.23248 0.71238 0.1095 0.0
C257 C 0.26216 0.75801 0.06346 0.0
O258 O 0.28355 0.77147 0.06864 0.0
O259 O 0.23975 0.76199 0.09881 0.0
O260 O 0.24392 0.75777 0.12145 0.0
O261 O 0.29628 0.73938 0.09635 0.0
O262 O 0.28962 0.75188 0.11323 0.0
C263 C 0.23398 0.76303 0.11036 0.0
C264 C 0.30088 0.74318 0.10924 0.0
O265 O 0.24922 0.74664 0.07158 0.0
Mg266 Mg 0.95754 0.69017 0.1565 0.0
O267 O 0.9835 0.67696 0.16703 0.0
O268 O 0.98415 0.6571 0.15312 0.0
Mg269 Mg 0.96112 0.66002 0.13236 0.0
C270 C 0.99086 0.66503 0.1647 0.0
C271 C 0.95479 0.70861 0.18177 0.0
O272 O 0.93052 0.69924 0.17697 0.0
O273 O 0.98999 0.70949 0.14549 0.0
O274 O 0.98992 0.68944 0.13143 0.0
O275 O 0.92428 0.66562 0.16196 0.0
O276 O 0.93846 0.66886 0.14251 0.0
C277 C -0.00116 0.70554 0.13605 0.0
C278 C 0.92349 0.65873 0.15052 0.0
O279 O 0.97121 0.70849 0.17522 0.0
Mg280 Mg 0.25842 0.72511 0.89544 0.0
O281 O 0.28646 0.75465 0.89331 0.0
O282 O 0.29403 0.7581 0.87182 0.0
Mg283 Mg 0.27265 0.73096 0.86072 0.0
C284 C 0.29715 0.76439 0.88372 0.0
C285 C 0.23517 0.7209 0.92187 0.0
O286 O 0.22152 0.70452 0.91682 0.0
O287 O 0.22708 0.73233 0.88274 0.0
O288 O 0.23611 0.73391 0.86173 0.0
O289 O 0.2916 0.71842 0.90232 0.0
O290 O 0.27322 0.71759 0.88068 0.0
C291 C 0.22224 0.73462 0.86984 0.0
C292 C 0.29247 0.71772 0.8895 0.0
O293 O 0.25124 0.73249 0.91523 0.0
Mg294 Mg 0.2093 0.87609 0.75823 0.0
O295 O 0.24165 0.88547 0.77693 0.0
O296 O 0.25014 0.86271 0.78747 0.0
Mg297 Mg 0.22579 0.83639 0.77491 0.0
C298 C 0.25391 0.8794 0.78652 0.0
C299 C 0.1998 0.91066 0.75635 0.0
O300 O 0.17969 0.89889 0.76104 0.0
O301 O 0.23924 0.87823 0.74524 0.0
O302 O 0.22552 0.85389 0.75682 0.0
O303 O 0.18119 0.86617 0.77263 0.0
O304 O 0.19805 0.84888 0.7666 0.0
C305 C 0.2422 0.86429 0.75006 0.0
C306 C 0.18373 0.85113 0.77383 0.0
O307 O 0.21577 0.90537 0.75359 0.0
Mg308 Mg 0.4974 0.99428 0.89764 0.0
O309 O 0.47067 0.96395 0.89564 0.0
O310 O 0.45795 0.95812 0.87314 0.0
Mg311 Mg 0.47989 0.98287 0.86117 0.0
C312 C 0.4571 0.95327 0.88562 0.0
C313 C 0.50517 0.00274 0.92761 0.0
O314 O 0.49942 0.01549 0.92108 0.0
O315 O 0.52987 0.98775 0.8939 0.0
O316 O 0.51697 0.98106 0.87163 0.0
O317 O 0.46243 -0.00086 0.89525 0.0
O318 O 0.48057 -0.00122 0.8779 0.0
C319 C 0.53285 0.98285 0.88275 0.0
C320 C 0.46095 0.99815 0.88218 0.0
O321 O 0.5069 0.99106 0.92066 0.0
Mg322 Mg 0.22743 0.62654 0.24284 0.0
O323 O 0.20169 0.61684 0.22226 0.0
O324 O 0.19238 0.63885 0.2114 0.0
Mg325 Mg 0.21359 0.66356 0.22564 0.0
C326 C 0.19053 0.62265 0.21203 0.0
C327 C 0.25258 0.5984 0.25021 0.0
O328 O 0.27175 0.612 0.257 0.0
O329 O 0.26068 0.64131 0.23138 0.0
O330 O 0.25082 0.66379 0.22186 0.0
O331 O 0.19238 0.61846 0.25169 0.0
O332 O 0.21283 0.64574 0.24349 0.0
C333 C 0.26542 0.65559 0.22411 0.0
C334 C 0.19277 0.63405 0.24773 0.0
O335 O 0.23328 0.60066 0.24382 0.0
Mg336 Mg 0.53142 0.85353 0.80623 0.0
O337 O 0.50743 0.83623 0.82193 0.0
O338 O 0.5053 0.85452 0.83675 0.0
Mg339 Mg 0.52632 0.88363 0.82974 0.0
C340 C 0.49997 0.83874 0.83248 0.0
C341 C 0.53357 0.82209 0.79103 0.0
O342 O 0.55796 0.83059 0.796 0.0
O343 O 0.49689 0.85857 0.79538 0.0
O344 O 0.49567 0.87699 0.81039 0.0
O345 O 0.56742 0.85589 0.82075 0.0
O346 O 0.54946 0.87494 0.81988 0.0
C347 C 0.4868 0.86817 0.79912 0.0
C348 C 0.56672 0.86979 0.82575 0.0
O349 O 0.51827 0.82823 0.79349 0.0
Mg350 Mg 0.47864 0.50456 0.58672 0.0
O351 O 0.5086 0.53418 0.58943 0.0
O352 O 0.51447 0.54069 0.61172 0.0
Mg353 Mg 0.48715 0.51782 0.62379 0.0
C354 C 0.5199 0.54497 0.59969 0.0
C355 C 0.46545 0.49498 0.55669 0.0
O356 O 0.4434 0.49105 0.56025 0.0
O357 O 0.51212 0.49755 0.59707 0.0
O358 O 0.4905 0.49683 0.61226 0.0
O359 O 0.44654 0.51348 0.58248 0.0
O360 O 0.46329 0.50893 0.60335 0.0
C361 C 0.51146 0.49848 0.60962 0.0
C362 C 0.4477 0.51422 0.59552 0.0
O363 O 0.48561 0.50167 0.56561 0.0
Mg364 Mg 0.77307 0.75543 0.5925 0.0
O365 O 0.74158 0.72732 0.59559 0.0
O366 O 0.73901 0.72465 0.61785 0.0
Mg367 Mg 0.76874 0.7506 0.62895 0.0
C368 C 0.73153 0.71836 0.60565 0.0
C369 C 0.77889 0.75401 0.56318 0.0
O370 O 0.80177 0.7583 0.57044 0.0
O371 O 0.74517 0.76778 0.59432 0.0
O372 O 0.74542 0.765 0.61686 0.0
O373 O 0.80163 0.74344 0.5974 0.0
O374 O 0.79102 0.75566 0.61275 0.0
C375 C 0.73795 0.77015 0.60505 0.0
C376 C 0.80302 0.74666 0.61011 0.0
O377 O 0.76091 0.75214 0.56931 0.0
Mg378 Mg 0.72953 0.62891 0.74277 0.0
O379 O 0.7033 0.61713 0.72254 0.0
O380 O 0.69083 0.63764 0.71149 0.0
Mg381 Mg 0.71114 0.66356 0.72449 0.0
C382 C 0.69063 0.62188 0.71234 0.0
C383 C 0.7275 0.59194 0.75349 0.0
O384 O 0.71293 0.59476 0.7606 0.0
O385 O 0.76165 0.64409 0.73058 0.0
O386 O 0.74909 0.66518 0.72064 0.0
O387 O 0.69484 0.62067 0.75227 0.0
O388 O 0.71333 0.64737 0.7429 0.0
C389 C 0.7649 0.65796 0.72293 0.0
C390 C 0.69429 0.6359 0.74803 0.0
O391 O 0.73851 0.60407 0.74518 0.0
Mg392 Mg 0.45862 0.6845 0.65298 0.0
O393 O 0.48193 0.67112 0.66639 0.0
O394 O 0.48589 0.65064 0.65462 0.0
Mg395 Mg 0.46787 0.6533 0.63241 0.0
C396 C 0.48989 0.65898 0.66575 0.0
C397 C 0.45238 0.70052 0.67852 0.0
O398 O 0.42936 0.6877 0.67516 0.0
O399 O 0.49434 0.70313 0.64417 0.0
O400 O 0.49806 0.68243 0.63239 0.0
O401 O 0.4228 0.66039 0.65636 0.0
O402 O 0.44258 0.66322 0.63904 0.0
C403 C 0.50596 0.69867 0.63653 0.0
C404 C 0.42464 0.65352 0.64557 0.0
O405 O 0.46875 0.70328 0.67099 0.0
Mg406 Mg 0.25919 0.23062 0.39009 0.0
O407 O 0.2893 0.25985 0.39297 0.0
O408 O 0.30416 0.26928 0.37337 0.0
Mg409 Mg 0.28025 0.24709 0.35728 0.0
C410 C 0.30433 0.27173 0.3859 0.0
C411 C 0.2597 0.22477 0.42097 0.0
O412 O 0.27285 0.21621 0.41837 0.0
O413 O 0.23021 0.24139 0.37939 0.0
O414 O 0.24413 0.25011 0.35949 0.0
O415 O 0.29091 0.22167 0.39446 0.0
O416 O 0.27439 0.22707 0.37367 0.0
C417 C 0.22839 0.24801 0.36738 0.0
C418 C 0.29199 0.22379 0.38157 0.0
O419 O 0.2502 0.23217 0.41113 0.0
Mg420 Mg 0.20738 0.37401 0.26226 0.0
O421 O 0.23319 0.38353 0.28295 0.0
O422 O 0.23844 0.36059 0.29471 0.0
Mg423 Mg 0.21596 0.33567 0.28063 0.0
C424 C 0.2426 0.37728 0.29363 0.0
C425 C 0.21439 0.41304 0.26454 0.0
O426 O 0.20404 0.40506 0.27519 0.0
O427 O 0.24107 0.3733 0.25425 0.0
O428 O 0.24344 0.34916 0.26563 0.0
O429 O 0.1738 0.36659 0.27272 0.0
O430 O 0.19075 0.34789 0.26991 0.0
C431 C 0.25106 0.36197 0.25706 0.0
C432 C 0.17496 0.35115 0.27529 0.0
O433 O 0.21842 0.4037 0.25643 0.0
Mg434 Mg 0.53399 0.35644 0.30142 0.0
O435 O 0.50982 0.33831 0.31654 0.0
O436 O 0.50643 0.35497 0.33209 0.0
Mg437 Mg 0.52678 0.38454 0.3256 0.0
C438 C 0.50173 0.33965 0.32718 0.0
C439 C 0.53123 0.31993 0.2923 0.0
O440 O 0.5488 0.32294 0.30333 0.0
O441 O 0.49967 0.36155 0.29031 0.0
O442 O 0.49698 0.37868 0.30584 0.0
O443 O 0.56945 0.35875 0.31624 0.0
O444 O 0.55119 0.37768 0.31516 0.0
C445 C 0.48902 0.37064 0.29424 0.0
C446 C 0.56866 0.37275 0.32102 0.0
O447 O 0.52188 0.33139 0.28872 0.0
C448 C 0.01994 -0.00106 0.44619 0.0
C449 C 0.00666 0.00765 0.43753 0.0
C450 C 0.02111 -0.00117 0.46035 0.0
C451 C 0.00862 0.02065 0.4879 0.0
H452 H -0.00032 0.97577 0.5073 0.0
C453 C 0.96522 0.9974 0.53685 0.0
C454 C 0.98309 0.9976 0.54853 0.0
C455 C 0.97132 -0.00112 0.52383 0.0
C456 C 0.00249 0.98841 0.50199 0.0
H457 H 0.98441 0.0232 0.4369 0.0
H458 H 0.98565 0.02248 0.4614 0.0
H459 H 0.00494 0.97852 0.48332 0.0
H460 H 0.02101 -0.00109 0.55573 0.0
H461 H 0.03137 0.00107 0.53273 0.0
H462 H 0.00454 0.03001 0.50642 0.0
C463 C -0.00416 0.01618 0.4574 0.0
C464 C 0.00564 0.99007 0.48831 0.0
C465 C -0.00504 0.01648 0.4433 0.0
C466 C 0.00693 -0.0012 0.5469 0.0
C467 C 0.01285 -1e-05 0.53382 0.0
C468 C 0.00506 0.01886 0.50147 0.0
C469 C 0.00878 0.00725 0.46611 0.0
C470 C 0.00825 0.00611 0.48103 0.0
C471 C -0.00483 0.00028 0.52226 0.0
C472 C 0.00162 0.00266 0.5085 0.0
H473 H 0.02928 0.99211 0.44202 0.0
H474 H 0.03156 0.99206 0.46677 0.0
H475 H 0.01117 0.03333 0.48273 0.0
H476 H 0.94672 0.9965 0.53777 0.0
H477 H 0.95746 -0.00095 0.51497 0.0
C478 C 0.00685 0.30814 0.77059 0.0
C479 C 0.02047 0.30661 0.78352 0.0
C480 C 0.00111 0.29578 0.7602 0.0
C481 C -0.00487 0.25021 0.75342 0.0
H482 H 0.00194 0.26925 0.71675 0.0
C483 C 0.95521 0.20461 0.70519 0.0
C484 C 0.96932 0.20958 0.69451 0.0
C485 C 0.96262 0.21593 0.71654 0.0
C486 C 0.0002 0.2637 0.72694 0.0
H487 H 0.03831 0.29063 0.79574 0.0
H488 H 0.02842 0.26903 0.77748 0.0
H489 H 0.01287 0.28986 0.73566 0.0
H490 H 0.00273 0.23008 0.68756 0.0
H491 H 0.01587 0.24967 0.70743 0.0
H492 H 0.98281 0.22403 0.74468 0.0
C493 C 0.02205 0.27978 0.77545 0.0
C494 C 0.00615 0.27551 0.73776 0.0
C495 C 0.02781 0.29219 0.78589 0.0
C496 C 0.99128 0.22594 0.69555 0.0
C497 C -0.00124 0.2372 0.70692 0.0
C498 C 0.98919 0.23836 0.74257 0.0
C499 C 0.00887 0.28157 0.76244 0.0
C500 C 0.00346 0.26891 0.75111 0.0
C501 C 0.98437 0.23244 0.71749 0.0
C502 C 0.99151 0.24497 0.72918 0.0
H503 H 0.00071 0.31899 0.76841 0.0
H504 H 0.99049 0.29734 0.75039 0.0
H505 H 0.99272 0.24469 0.76357 0.0
H506 H 0.93817 0.1921 0.70469 0.0
H507 H 0.95091 0.21194 0.72439 0.0
C508 C 0.73837 0.24085 0.93854 0.0
C509 C 0.73971 0.2248 0.9355 0.0
C510 C 0.73756 0.24445 0.95191 0.0
C511 C 0.75594 0.23246 0.98747 0.0
H512 H 0.71405 0.25474 -0.00385 0.0
C513 C 0.74775 0.23946 0.04289 0.0
C514 C 0.75035 0.25639 0.04689 0.0
C515 C 0.74454 0.23549 0.0291 0.0
C516 C 0.72599 0.24865 -0.00615 0.0
H517 H 0.74017 0.19958 0.94397 0.0
H518 H 0.73853 0.20577 0.96717 0.0
H519 H 0.71156 0.24777 0.9723 0.0
H520 H 0.75058 0.28217 0.03946 0.0
H521 H 0.74489 0.27516 0.01527 0.0
H522 H 0.77044 0.23334 0.00893 0.0
C523 C 0.73855 0.21574 0.95931 0.0
C524 C 0.72458 0.24466 0.98021 0.0
C525 C 0.73932 0.21214 0.94598 0.0
C526 C 0.74872 0.26903 0.03672 0.0
C527 C 0.74535 0.265 0.02287 0.0
C528 C 0.75731 0.2364 0.00105 0.0
C529 C 0.73814 0.23207 0.96249 0.0
C530 C 0.73945 0.23642 0.9769 0.0
C531 C 0.74373 0.24831 0.01895 0.0
C532 C 0.74226 0.24443 0.00442 0.0
H533 H 0.73859 0.25087 0.93069 0.0
H534 H 0.73739 0.25719 0.95404 0.0
H535 H 0.7681 0.22651 0.98524 0.0
H536 H 0.74877 0.22936 0.05043 0.0
H537 H 0.7429 0.2224 0.02638 0.0
C538 C 0.71229 0.05541 0.26497 0.0
C539 C 0.73165 0.07058 0.26028 0.0
C540 C 0.71241 0.03836 0.26501 0.0
C541 C 0.73724 0.01242 0.24813 0.0
H542 H 0.70938 0.97683 0.27559 0.0
C543 C 0.72712 0.93773 0.24981 0.0
C544 C 0.70269 0.92481 0.25134 0.0
C545 C 0.73353 0.95622 0.25099 0.0
C546 C 0.71722 0.98666 0.26786 0.0
H547 H 0.76694 0.07987 0.25244 0.0
H548 H 0.76738 0.05007 0.25273 0.0
H549 H 0.71678 0.00815 0.27856 0.0
H550 H 0.66567 0.92122 0.25491 0.0
H551 H 0.67702 0.95332 0.25714 0.0
H552 H 0.73761 0.9907 0.23748 0.0
C553 C 0.75183 0.05133 0.25615 0.0
C554 C 0.72138 0.00457 0.26952 0.0
C555 C 0.75167 0.06843 0.25607 0.0
C556 C 0.68466 0.93077 0.25368 0.0
C557 C 0.69118 0.94915 0.25506 0.0
C558 C 0.73334 0.99448 0.24656 0.0
C559 C 0.73198 0.03604 0.26043 0.0
C560 C 0.73076 0.01758 0.2595 0.0
C561 C 0.71575 0.96203 0.25395 0.0
C562 C 0.72265 0.98137 0.25623 0.0
H563 H 0.69657 0.05657 0.26826 0.0
H564 H 0.69659 0.02688 0.26818 0.0
H565 H 0.74428 0.02204 0.24015 0.0
H566 H 0.74141 0.93354 0.24798 0.0
H567 H 0.7526 0.96593 0.25006 0.0
C568 C 0.51348 0.00278 0.05189 0.0
C569 C 0.48882 0.99226 0.05454 0.0
C570 C 0.51916 0.00262 0.03892 0.0
C571 C 0.49507 0.97779 0.00576 0.0
H572 H 0.53164 0.02506 0.99078 0.0
C573 C 0.50435 0.01399 0.95001 0.0
C574 C 0.50791 0.0015 0.94269 0.0
C575 C 0.50554 0.01246 0.96415 0.0
C576 C 0.52142 0.01176 -0.00518 0.0
H577 H 0.45104 0.97279 0.04579 0.0
H578 H 0.46081 0.97274 0.02319 0.0
H579 H 0.52694 0.02237 0.01471 0.0
H580 H 0.51597 0.97776 0.94453 0.0
H581 H 0.51824 0.97517 0.96936 0.0
H582 H 0.48857 0.96731 0.98565 0.0
C583 C 0.47589 0.98094 0.03115 0.0
C584 C 0.51899 0.01018 0.00858 0.0
C585 C 0.47024 0.98107 0.0441 0.0
C586 C 0.5131 0.98759 0.94988 0.0
C587 C 0.51429 0.98604 0.96408 0.0
C588 C 0.49752 0.97937 -0.00803 0.0
C589 C 0.50029 0.99195 0.02833 0.0
C590 C 0.50534 0.99323 0.01415 0.0
C591 C 0.51037 0.99842 0.97135 0.0
C592 C 0.51024 0.99643 0.98629 0.0
H593 H 0.52828 0.01145 0.05975 0.0
H594 H 0.53824 0.01106 0.03712 0.0
H595 H 0.4847 0.96451 0.00978 0.0
H596 H 0.50019 0.02483 0.9448 0.0
H597 H 0.50199 0.02203 0.9694 0.0
C598 C 0.04068 0.79709 0.288 0.0
C599 C 0.02357 0.80372 0.2907 0.0
C600 C 0.03266 0.78315 0.27854 0.0
C601 C 0.97697 0.74885 0.25657 0.0
H602 H 0.02198 0.76446 0.22989 0.0
C603 C 0.94492 0.72016 0.20147 0.0
C604 C 0.96283 0.71806 0.19511 0.0
C605 C 0.95231 0.72861 0.21425 0.0
C606 C 0.00937 0.75963 0.23731 0.0
H607 H 0.98406 0.79968 0.28666 0.0
H608 H 0.97003 0.77531 0.27011 0.0
H609 H 0.03448 0.7811 0.25116 0.0
H610 H 0.00248 0.72288 0.19732 0.0
H611 H 0.01529 0.73728 0.21969 0.0
H612 H 0.95172 0.72744 0.24258 0.0
C613 C 0.98967 0.7809 0.2753 0.0
C614 C 0.01657 0.7692 0.24955 0.0
C615 C -0.00229 0.79486 0.28482 0.0
C616 C 0.98826 0.72449 0.20186 0.0
C617 C -0.00439 0.73278 0.21469 0.0
C618 C 0.96982 0.73915 0.24432 0.0
C619 C 0.00736 0.77555 0.27156 0.0
C620 C 0.00037 0.76406 0.25927 0.0
C621 C 0.97776 0.73503 0.22104 0.0
C622 C 0.98581 0.74457 0.23446 0.0
H623 H 0.06067 0.80348 0.29251 0.0
H624 H 0.0466 0.779 0.27612 0.0
H625 H 0.96416 0.74451 0.26389 0.0
H626 H 0.92516 0.71537 0.19653 0.0
H627 H 0.93811 0.73037 0.21868 0.0
C628 C 0.27232 0.22149 0.44606 0.0
C629 C 0.25735 0.22649 0.43524 0.0
C630 C 0.27096 0.22347 0.4596 0.0
C631 C 0.25089 0.24761 0.48154 0.0
H632 H 0.26033 0.2129 0.50841 0.0
C633 C 0.24607 0.24801 0.53969 0.0
C634 C 0.26791 0.24791 0.54834 0.0
C635 C 0.24228 0.24511 0.52559 0.0
C636 C 0.25762 0.22266 0.50099 0.0
H637 H 0.22894 0.23733 0.43015 0.0
H638 H 0.22597 0.24033 0.45392 0.0
H639 H 0.25733 0.20779 0.48424 0.0
H640 H 0.30279 0.24464 0.54905 0.0
H641 H 0.29579 0.23914 0.52459 0.0
H642 H 0.25093 0.26232 0.4985 0.0
C643 C 0.23918 0.23521 0.4519 0.0
C644 C 0.25607 0.21983 0.48716 0.0
C645 C 0.24076 0.23339 0.43828 0.0
C646 C 0.28577 0.24481 0.54266 0.0
C647 C 0.28175 0.24158 0.52868 0.0
C648 C 0.25206 0.2503 0.49541 0.0
C649 C 0.25431 0.23028 0.46273 0.0
C650 C 0.25332 0.23249 0.47727 0.0
C651 C 0.25999 0.24168 0.52003 0.0
C652 C 0.256 0.23803 0.50526 0.0
H653 H 0.2855 0.2163 0.44409 0.0
H654 H 0.28337 0.21996 0.46764 0.0
H655 H 0.24902 0.25773 0.47424 0.0
H656 H 0.23207 0.25047 0.5438 0.0
H657 H 0.22535 0.24523 0.51908 0.0
C658 C 0.74631 0.57135 0.7479 0.0
C659 C 0.72942 0.57437 0.75452 0.0
C660 C 0.74704 0.55436 0.74853 0.0
C661 C 0.72614 0.51087 0.76779 0.0
H662 H 0.72997 0.49065 0.73479 0.0
C663 C 0.68803 0.43474 0.75935 0.0
C664 C 0.70403 0.42818 0.7551 0.0
C665 C 0.69444 0.45324 0.75945 0.0
C666 C 0.72922 0.49624 0.74411 0.0
H667 H 0.70007 0.56193 0.76699 0.0
H668 H 0.70083 0.53245 0.76778 0.0
H669 H 0.73554 0.52209 0.73494 0.0
H670 H 0.73904 0.43593 0.74726 0.0
H671 H 0.74998 0.46851 0.74717 0.0
H672 H 0.71864 0.48477 0.77673 0.0
C673 C 0.71405 0.54321 0.7624 0.0
C674 C 0.73249 0.51425 0.74424 0.0
C675 C 0.71348 0.56014 0.76187 0.0
C676 C 0.72634 0.44058 0.75061 0.0
C677 C 0.73259 0.45917 0.75053 0.0
C678 C 0.72257 0.49287 0.7676 0.0
C679 C 0.73078 0.54005 0.75573 0.0
C680 C 0.73037 0.52166 0.75599 0.0
C681 C 0.71685 0.46565 0.75516 0.0
C682 C 0.72353 0.48527 0.75568 0.0
H683 H 0.75888 0.58207 0.74218 0.0
H684 H 0.76034 0.55247 0.74339 0.0
H685 H 0.72509 0.51623 0.77714 0.0
H686 H 0.6707 0.4256 0.76286 0.0
H687 H 0.6818 0.45788 0.76288 0.0
C688 C 0.45161 0.22066 0.19641 0.0
C689 C 0.46883 0.21663 0.1909 0.0
C690 C 0.45858 0.22847 0.20939 0.0
C691 C 0.51543 0.25466 0.23469 0.0
H692 H 0.4648 0.24557 0.2574 0.0
C693 C 0.53865 0.29458 0.28437 0.0
C694 C 0.52303 0.30379 0.28378 0.0
C695 C 0.5319 0.28042 0.27527 0.0
C696 C 0.47916 0.24809 0.25121 0.0
H697 H 0.50661 0.2171 0.19479 0.0
H698 H 0.51857 0.23031 0.21758 0.0
H699 H 0.45363 0.22726 0.23691 0.0
H700 H 0.48738 0.30467 0.27391 0.0
H701 H 0.47548 0.27982 0.25817 0.0
H702 H 0.54083 0.27562 0.24896 0.0
C703 C 0.4999 0.2279 0.21176 0.0
C704 C 0.47275 0.23774 0.23942 0.0
C705 C 0.49306 0.22033 0.19869 0.0
C706 C 0.4999 0.29793 0.27449 0.0
C707 C 0.49297 0.28361 0.26558 0.0
C708 C 0.52192 0.26482 0.24658 0.0
C709 C 0.48281 0.23218 0.21724 0.0
C710 C 0.49056 0.24133 0.23076 0.0
C711 C 0.50921 0.27504 0.26565 0.0
C712 C 0.50361 0.262 0.25469 0.0
H713 H 0.43281 0.21797 0.19064 0.0
H714 H 0.44509 0.23193 0.21312 0.0
H715 H 0.52959 0.25797 0.22824 0.0
H716 H 0.55654 0.29879 0.29148 0.0
H717 H 0.54468 0.27396 0.27551 0.0
C718 C 0.74253 0.72868 0.43891 0.0
C719 C 0.76122 0.72395 0.43575 0.0
C720 C 0.74112 0.73053 0.45254 0.0
C721 C 0.7635 0.71929 0.4882 0.0
H722 H 0.75136 0.75956 0.49801 0.0
C723 C 0.79244 0.74752 0.54278 0.0
C724 C 0.7742 0.75028 0.54837 0.0
C725 C 0.78806 0.74331 0.52895 0.0
C726 C 0.75445 0.74813 0.49538 0.0
H727 H 0.79295 0.71729 0.44447 0.0
H728 H 0.79093 0.72091 0.46812 0.0
H729 H 0.74881 0.75376 0.47393 0.0
H730 H 0.73727 0.7512 0.54376 0.0
H731 H 0.72987 0.74422 0.51933 0.0
H732 H 0.77015 0.71416 0.50971 0.0
C733 C 0.77696 0.72284 0.46012 0.0
C734 C 0.75293 0.74475 0.48159 0.0
C735 C 0.77826 0.72089 0.44652 0.0
C736 C 0.75163 0.74908 0.53974 0.0
C737 C 0.74742 0.74514 0.52579 0.0
C738 C 0.76529 0.72279 0.50195 0.0
C739 C 0.75845 0.72776 0.46332 0.0
C740 C 0.75788 0.73047 0.47785 0.0
C741 C 0.7655 0.74201 0.52033 0.0
C742 C 0.7612 0.73741 0.50568 0.0
H743 H 0.72901 0.73103 0.43084 0.0
H744 H 0.72641 0.73408 0.45462 0.0
H745 H 0.76681 0.70791 0.48571 0.0
H746 H 0.81002 0.74832 0.54913 0.0
H747 H 0.80245 0.74119 0.52496 0.0
C748 C 0.24914 0.07344 0.75168 0.0
C749 C 0.23437 0.07696 0.7596 0.0
C750 C 0.24876 0.05619 0.75159 0.0
C751 C 0.22893 0.01236 0.77038 0.0
H752 H 0.22564 0.99246 0.73559 0.0
C753 C 0.18981 0.93617 0.76123 0.0
C754 C 0.20487 0.93004 0.75555 0.0
C755 C 0.19562 0.95458 0.76152 0.0
C756 C 0.22681 0.99794 0.74538 0.0
H757 H 0.20791 0.0652 0.77375 0.0
H758 H 0.20672 0.03521 0.77331 0.0
H759 H 0.23263 0.02407 0.73694 0.0
H760 H 0.23731 0.9384 0.74528 0.0
H761 H 0.24716 0.97072 0.7456 0.0
H762 H 0.22207 0.98602 0.77867 0.0
C763 C 0.2191 0.04578 0.76742 0.0
C764 C 0.23093 0.01605 0.7462 0.0
C765 C 0.21965 0.063 0.76761 0.0
C766 C 0.22539 0.94271 0.74976 0.0
C767 C 0.23101 0.96117 0.7499 0.0
C768 C 0.2245 0.99426 0.76952 0.0
C769 C 0.23348 0.04209 0.75934 0.0
C770 C 0.23159 0.02339 0.75867 0.0
C771 C 0.21642 0.96727 0.75602 0.0
C772 C 0.22298 0.9868 0.75698 0.0
H773 H 0.26075 0.08394 0.74544 0.0
H774 H 0.26035 0.0539 0.7454 0.0
H775 H 0.22996 0.01765 0.78022 0.0
H776 H 0.17384 0.92679 0.76574 0.0
H777 H 0.18386 0.95893 0.76612 0.0
C778 C -0.00198 0.52003 0.94662 0.0
C779 C 0.00663 0.50962 0.94017 0.0
C780 C 0.00083 0.52015 0.96086 0.0
C781 C 0.00848 0.49255 0.99096 0.0
H782 H 0.02145 0.53547 0.01087 0.0
C783 C 0.0126 0.49202 0.04941 0.0
C784 C -0.00127 0.50032 0.05381 0.0
C785 C 0.01725 0.49434 0.03599 0.0
C786 C 0.01774 0.52336 0.00543 0.0
H787 H 0.02579 0.4917 0.94358 0.0
H788 H 0.03109 0.49216 0.96848 0.0
H789 H 0.02335 0.53758 0.9865 0.0
H790 H 0.97925 0.51782 0.04763 0.0
H791 H 0.98708 0.52164 0.02424 0.0
H792 H 0.00247 0.47828 0.00985 0.0
C793 C 0.0217 0.49994 0.96252 0.0
C794 C 0.01879 0.52456 0.99148 0.0
C795 C 0.01876 0.49974 0.94826 0.0
C796 C 0.99001 0.51123 0.04458 0.0
C797 C -0.00534 0.51354 0.0312 0.0
C798 C 0.0075 0.49136 0.00492 0.0
C799 C 0.01246 0.50996 0.96897 0.0
C800 C 0.01372 0.5091 0.98403 0.0
C801 C 0.00817 0.50503 0.02672 0.0
C802 C 0.01166 0.50669 0.01225 0.0
H803 H 0.98852 0.52776 0.94067 0.0
H804 H -0.00685 0.52781 0.96548 0.0
H805 H 0.00413 0.48032 0.98551 0.0
H806 H 0.01975 0.48364 0.0563 0.0
H807 H 0.02795 0.48776 0.03286 0.0
C808 C 0.53251 0.49594 0.45397 0.0
C809 C 0.51884 0.49722 0.44105 0.0
C810 C 0.52004 0.48934 0.46507 0.0
C811 C 0.46713 0.48923 0.47795 0.0
H812 H 0.48851 0.46213 0.50753 0.0
C813 C 0.44476 0.48647 0.53234 0.0
C814 C 0.46646 0.49104 0.54267 0.0
C815 C 0.44558 0.48261 0.51908 0.0
C816 C 0.48224 0.46962 0.49932 0.0
H817 H 0.48126 0.49189 0.42938 0.0
H818 H 0.45947 0.4808 0.44901 0.0
H819 H 0.49907 0.46227 0.48497 0.0
H820 H 0.50591 0.49493 0.54725 0.0
H821 H 0.50735 0.4882 0.5241 0.0
H822 H 0.45145 0.49734 0.49248 0.0
C823 C 0.47981 0.48479 0.45047 0.0
C824 C 0.48819 0.46965 0.48643 0.0
C825 C 0.49227 0.49114 0.43929 0.0
C826 C 0.48891 0.4915 0.53952 0.0
C827 C 0.48964 0.48745 0.5263 0.0
C828 C 0.46113 0.48918 0.49085 0.0
C829 C 0.49368 0.48411 0.46351 0.0
C830 C 0.48174 0.48015 0.47582 0.0
C831 C 0.46802 0.48302 0.51595 0.0
C832 C 0.46966 0.48004 0.50179 0.0
H833 H 0.55294 0.50031 0.45556 0.0
H834 H 0.53127 0.48918 0.47504 0.0
H835 H 0.46204 0.49753 0.46997 0.0
H836 H 0.42717 0.48603 0.53447 0.0
H837 H 0.42868 0.47926 0.51128 0.0
C838 C 0.23364 0.73967 0.04284 0.0
C839 C 0.25473 0.75523 0.04845 0.0
C840 C 0.22811 0.73633 0.02875 0.0
C841 C 0.24117 0.75794 -0.00472 0.0
H842 H 0.22773 0.70971 0.98429 0.0
C843 C 0.25045 0.74218 0.94173 0.0
C844 C 0.23348 0.72542 0.93564 0.0
C845 C 0.25019 0.746 0.9551 0.0
C846 C 0.231 0.72316 0.98713 0.0
H847 H 0.28602 0.7798 0.0436 0.0
H848 H 0.27642 0.77392 0.01909 0.0
H849 H 0.23205 0.71615 0.00834 0.0
H850 H 0.20232 0.69976 0.93868 0.0
H851 H 0.20157 0.70655 0.96197 0.0
H852 H 0.24042 0.76502 0.97408 0.0
C853 C 0.26405 0.76436 0.02555 0.0
C854 C 0.2335 0.72685 0.00094 0.0
C855 C 0.26963 0.76767 0.03962 0.0
C856 C 0.21575 0.71276 0.9431 0.0
C857 C 0.21542 0.71661 0.95648 0.0
C858 C 0.23858 0.75423 0.98146 0.0
C859 C 0.24347 0.74852 0.01998 0.0
C860 C 0.23892 0.74434 0.00519 0.0
C861 C 0.23286 0.73319 0.9627 0.0
C862 C 0.23379 0.73685 0.97724 0.0
H863 H 0.22172 0.72985 0.04935 0.0
H864 H 0.21192 0.72412 0.02474 0.0
H865 H 0.24501 0.77149 -0.00178 0.0
H866 H 0.26442 0.75222 0.93629 0.0
H867 H 0.26413 0.75879 0.95963 0.0
C868 C 0.21752 0.44262 0.27175 0.0
C869 C 0.22141 0.43261 0.26229 0.0
C870 C 0.22405 0.46107 0.26984 0.0
C871 C 0.23486 0.49631 0.24342 0.0
H872 H 0.26392 0.5284 0.27491 0.0
C873 C 0.2319 0.56588 0.24307 0.0
C874 C 0.25266 0.58026 0.25039 0.0
C875 C 0.23111 0.54852 0.24372 0.0
C876 C 0.25616 0.51971 0.26597 0.0
H877 H 0.23533 0.43416 0.24339 0.0
H878 H 0.24687 0.46656 0.24007 0.0
H879 H 0.25748 0.4969 0.27769 0.0
H880 H 0.28921 0.58773 0.26383 0.0
H881 H 0.2879 0.55734 0.26488 0.0
H882 H 0.23352 0.51915 0.23171 0.0
C883 C 0.23857 0.46002 0.24892 0.0
C884 C 0.25217 0.50159 0.2676 0.0
C885 C 0.23205 0.4415 0.25085 0.0
C886 C 0.2729 0.57694 0.25812 0.0
C887 C 0.27209 0.55952 0.25877 0.0
C888 C 0.23885 0.51445 0.2418 0.0
C889 C 0.23468 0.47001 0.25843 0.0
C890 C 0.24104 0.4896 0.2564 0.0
C891 C 0.25105 0.54507 0.25168 0.0
C892 C 0.24913 0.52628 0.2531 0.0
H893 H 0.20931 0.43621 0.28067 0.0
H894 H 0.22036 0.46828 0.27722 0.0
H895 H 0.22614 0.48741 0.2346 0.0
H896 H 0.21596 0.56794 0.237 0.0
H897 H 0.21445 0.53767 0.23829 0.0
C898 C 0.4407 0.71003 0.6985 0.0
C899 C 0.45951 0.71092 0.69132 0.0
C900 C 0.44744 0.71973 0.71066 0.0
C901 C 0.50052 0.74187 0.73882 0.0
H902 H 0.4659 0.77231 0.74146 0.0
C903 C 0.54111 0.80161 0.77673 0.0
C904 C 0.52408 0.80624 0.78192 0.0
C905 C 0.53203 0.78767 0.76713 0.0
C906 C 0.47545 0.76363 0.74108 0.0
H907 H 0.50016 0.7223 0.69145 0.0
H908 H 0.51189 0.73921 0.71273 0.0
H909 H 0.45208 0.75214 0.72195 0.0
H910 H 0.48416 0.79913 0.7818 0.0
H911 H 0.46834 0.77458 0.76534 0.0
H912 H 0.52398 0.7534 0.75794 0.0
C913 C 0.49196 0.73099 0.70893 0.0
C914 C 0.46755 0.75211 0.72985 0.0
C915 C 0.48521 0.72146 0.69668 0.0
C916 C 0.49779 0.79607 0.77784 0.0
C917 C 0.48872 0.78204 0.76834 0.0
C918 C 0.5083 0.75329 0.75015 0.0
C919 C 0.47313 0.73033 0.71598 0.0
C920 C 0.48027 0.74135 0.72849 0.0
C921 C 0.50572 0.77795 0.76261 0.0
C922 C 0.49612 0.76454 0.7513 0.0
H923 H 0.42074 0.70195 0.69467 0.0
H924 H 0.43257 0.7189 0.71594 0.0
H925 H 0.51044 0.73352 0.7381 0.0
H926 H 0.56148 0.80916 0.7797 0.0
H927 H 0.5457 0.78503 0.76285 0.0
C928 C 0.19101 0.19461 0.61732 0.0
C929 C 0.20504 0.20097 0.60664 0.0
C930 C 0.17047 0.17765 0.61649 0.0
C931 C 0.12471 0.14073 0.59268 0.0
H932 H 0.11926 0.11238 0.62603 0.0
C933 C 0.05239 0.06538 0.59485 0.0
C934 C 0.04097 0.05988 0.60657 0.0
C935 C 0.07195 0.08268 0.59414 0.0
C936 C 0.12024 0.12017 0.61666 0.0
H937 H 0.20802 0.19456 0.5865 0.0
H938 H 0.17234 0.16465 0.58518 0.0
H939 H 0.15386 0.14223 0.62596 0.0
H940 H 0.04077 0.06854 0.62657 0.0
H941 H 0.07433 0.09867 0.62523 0.0
H942 H 0.09091 0.1185 0.5834 0.0
C943 C 0.17712 0.17295 0.59414 0.0
C944 C 0.14015 0.13733 0.61662 0.0
C945 C 0.19766 0.19005 0.59494 0.0
C946 C 0.04928 0.07221 0.61744 0.0
C947 C 0.06866 0.0895 0.6167 0.0
C948 C 0.10466 0.12349 0.59272 0.0
C949 C 0.16349 0.16646 0.605 0.0
C950 C 0.14254 0.14793 0.60469 0.0
C951 C 0.08049 0.09491 0.60512 0.0
C952 C 0.10205 0.11306 0.60477 0.0
H953 H 0.19582 0.20276 0.62638 0.0
H954 H 0.16002 0.1733 0.62489 0.0
H955 H 0.12589 0.14858 0.58334 0.0
H956 H 0.04654 0.05621 0.5863 0.0
H957 H 0.08079 0.08631 0.58513 0.0
C958 C 0.77302 0.34958 0.74367 0.0
C959 C 0.77001 0.3646 0.74755 0.0
C960 C 0.79724 0.35062 0.74366 0.0
C961 C 0.86673 0.38021 0.74955 0.0
H962 H 0.86979 0.34162 0.77424 0.0
C963 C 0.95732 0.36716 0.77529 0.0
C964 C 0.9614 0.36933 0.78956 0.0
C965 C 0.93492 0.36682 0.76706 0.0
C966 C 0.86916 0.35229 0.76717 0.0
H967 H 0.78949 0.39299 0.75295 0.0
H968 H 0.83204 0.39482 0.7531 0.0
H969 H 0.82861 0.34091 0.76351 0.0
H970 H 0.94515 0.37262 0.80639 0.0
H971 H 0.9059 0.37142 0.79208 0.0
H972 H 0.90768 0.39182 0.75382 0.0
C973 C 0.81569 0.38228 0.74992 0.0
C974 C 0.84562 0.35187 0.76094 0.0
C975 C 0.79132 0.38128 0.74979 0.0
C976 C 0.94268 0.37107 0.79543 0.0
C977 C 0.92021 0.37035 0.78727 0.0
C978 C 0.89042 0.38048 0.75568 0.0
C979 C 0.81893 0.36664 0.74773 0.0
C980 C 0.84408 0.36601 0.75231 0.0
C981 C 0.91615 0.36823 0.77305 0.0
C982 C 0.8917 0.36673 0.76479 0.0
H983 H 0.75682 0.33658 0.74186 0.0
H984 H 0.79912 0.33845 0.74164 0.0
H985 H 0.8661 0.3913 0.74298 0.0
H986 H 0.97145 0.36584 0.7705 0.0
H987 H 0.93201 0.36508 0.75609 0.0
C988 C 0.54453 0.07193 0.09037 0.0
C989 C 0.53062 0.06938 0.10096 0.0
C990 C 0.56446 0.08869 0.08861 0.0
C991 C 0.5929 0.1372 0.09885 0.0
H992 H 0.65614 0.13649 0.09388 0.0
C993 C 0.69006 0.19622 0.11504 0.0
C994 C 0.70686 0.2023 0.10562 0.0
C995 C 0.66779 0.18033 0.11256 0.0
C996 C 0.63851 0.1369 0.09509 0.0
H997 H 0.52615 0.08275 0.11759 0.0
H998 H 0.56084 0.11174 0.11462 0.0
H999 H 0.61765 0.10824 0.09252 0.0
H1000 H 0.71373 0.1962 0.08638 0.0
H1001 H 0.67493 0.16806 0.08225 0.0
H1002 H 0.61408 0.16576 0.10199 0.0
C1003 C 0.55629 0.10089 0.10758 0.0
C1004 C 0.61643 0.12075 0.09426 0.0
C1005 C 0.53644 0.08418 0.10935 0.0
C1006 C 0.70113 0.19189 0.09381 0.0
C1007 C 0.67899 0.17579 0.09145 0.0
C1008 C 0.61499 0.15328 0.09981 0.0
C1009 C 0.57086 0.10329 0.09735 0.0
C1010 C 0.59348 0.12065 0.09646 0.0
C1011 C 0.66196 0.17001 0.10073 0.0
C1012 C 0.63812 0.15323 0.09824 0.0
H1013 H 0.54057 0.06084 0.08369 0.0
H1014 H 0.57508 0.09013 0.08052 0.0
H1015 H 0.57545 0.1377 0.10027 0.0
H1016 H 0.69382 0.20394 0.1242 0.0
H1017 H 0.65513 0.17605 0.11997 0.0
C1018 C 0.95056 0.87867 0.29147 0.0
C1019 C 0.96269 0.8695 0.28641 0.0
C1020 C 0.9279 0.87869 0.28416 0.0
C1021 C 0.88519 0.87148 0.25103 0.0
H1022 H 0.83297 0.85599 0.27361 0.0
C1023 C 0.77086 0.84308 0.24719 0.0
C1024 C 0.76575 0.85832 0.24773 0.0
C1025 C 0.7956 0.84514 0.24728 0.0
C1026 C 0.84741 0.86035 0.2672 0.0
H1027 H 0.96108 0.85399 0.26926 0.0
H1028 H 0.92108 0.85402 0.25643 0.0
H1029 H 0.87554 0.85879 0.2837 0.0
H1030 H 0.78184 0.88761 0.2471 0.0
H1031 H 0.82538 0.89117 0.24735 0.0
H1032 H 0.85652 0.87315 0.23454 0.0
C1033 C 0.92937 0.86118 0.26611 0.0
C1034 C 0.87175 0.86203 0.27297 0.0
C1035 C 0.95216 0.86109 0.27349 0.0
C1036 C 0.7852 0.87564 0.24658 0.0
C1037 C 0.8101 0.87769 0.24673 0.0
C1038 C 0.86068 0.87001 0.24526 0.0
C1039 C 0.91675 0.8696 0.27158 0.0
C1040 C 0.89094 0.86767 0.26499 0.0
C1041 C 0.8156 0.86245 0.24787 0.0
C1042 C 0.84168 0.86437 0.25336 0.0
H1043 H 0.95821 0.88552 0.30128 0.0
H1044 H 0.91874 0.8855 0.28852 0.0
H1045 H 0.89971 0.87588 0.24469 0.0
H1046 H 0.75618 0.82958 0.248 0.0
H1047 H 0.79951 0.83323 0.24825 0.0
C1048 C 0.16728 0.15246 0.74412 0.0
C1049 C 0.16913 0.13581 0.74602 0.0
C1050 C 0.1449 0.15329 0.73698 0.0
C1051 C 0.09638 0.13222 0.70841 0.0
H1052 H 0.05921 0.15661 0.71962 0.0
C1053 C 0.01372 0.14009 0.67091 0.0
C1054 C 0.01091 0.15622 0.67159 0.0
C1055 C 0.03031 0.13583 0.68113 0.0
C1056 C 0.06956 0.14996 0.71622 0.0
H1057 H 0.14878 0.1069 0.74242 0.0
H1058 H 0.10989 0.10846 0.72964 0.0
H1059 H 0.09323 0.15278 0.73601 0.0
H1060 H 0.02328 0.18057 0.68351 0.0
H1061 H 0.05302 0.17368 0.70088 0.0
H1062 H 0.0742 0.13034 0.68846 0.0
C1063 C 0.12562 0.12078 0.73386 0.0
C1064 C 0.08887 0.14764 0.72568 0.0
C1065 C 0.14778 0.1199 0.74126 0.0
C1066 C 0.02489 0.16795 0.68274 0.0
C1067 C 0.04184 0.16389 0.69279 0.0
C1068 C 0.07748 0.13487 0.69887 0.0
C1069 C 0.12424 0.13753 0.73138 0.0
C1070 C 0.1025 0.13883 0.72182 0.0
C1071 C 0.04489 0.1478 0.69214 0.0
C1072 C 0.06392 0.14393 0.70259 0.0
H1073 H 0.18353 0.16492 0.74761 0.0
H1074 H 0.14429 0.16637 0.73512 0.0
H1075 H 0.10693 0.1256 0.70516 0.0
H1076 H 0.00297 0.13068 0.66252 0.0
H1077 H 0.03164 0.12312 0.68037 0.0
C1078 C 0.81107 0.29606 0.89962 0.0
C1079 C 0.81737 0.28715 0.8904 0.0
C1080 C 0.82732 0.31389 0.90367 0.0
C1081 C 0.89365 0.34773 0.90561 0.0
H1082 H 0.86551 0.38343 0.89894 0.0
C1083 C 0.94849 0.41907 0.88775 0.0
C1084 C 0.94694 0.43375 0.89328 0.0
C1085 C 0.93392 0.40145 0.8915 0.0
C1086 C 0.87359 0.37361 0.90119 0.0
H1087 H 0.84594 0.28956 0.87862 0.0
H1088 H 0.87436 0.32049 0.8858 0.0
H1089 H 0.83689 0.35119 0.89802 0.0
H1090 H 0.92919 0.44169 0.90712 0.0
H1091 H 0.90274 0.4105 0.91339 0.0
H1092 H 0.9303 0.37007 0.90804 0.0
C1093 C 0.85687 0.31379 0.88986 0.0
C1094 C 0.85723 0.35518 0.90065 0.0
C1095 C 0.84049 0.29615 0.88563 0.0
C1096 C 0.93077 0.43054 0.9028 0.0
C1097 C 0.91566 0.41278 0.90634 0.0
C1098 C 0.90994 0.36609 0.90614 0.0
C1099 C 0.85037 0.3229 0.89881 0.0
C1100 C 0.86718 0.3421 0.90228 0.0
C1101 C 0.91711 0.39809 0.90068 0.0
C1102 C 0.90007 0.37917 0.90335 0.0
H1103 H 0.79332 0.28942 0.90343 0.0
H1104 H 0.82188 0.32063 0.91058 0.0
H1105 H 0.90178 0.33791 0.90717 0.0
H1106 H 0.9609 0.42122 0.88043 0.0
H1107 H 0.93515 0.39038 0.88684 0.0
C1108 C 0.65396 0.12261 0.23766 0.0
C1109 C 0.67718 0.13751 0.24173 0.0
C1110 C 0.63243 0.1252 0.23122 0.0
C1111 C 0.6156 0.16096 0.21226 0.0
H1112 H 0.54662 0.12482 0.21202 0.0
C1113 C 0.52765 0.17126 0.18398 0.0
C1114 C 0.51273 0.15829 0.17368 0.0
C1115 C 0.54585 0.16839 0.19392 0.0
C1116 C 0.56582 0.135 0.21205 0.0
H1117 H 0.69584 0.1667 0.24318 0.0
H1118 H 0.65801 0.1713 0.23286 0.0
H1119 H 0.582 0.12108 0.22723 0.0
H1120 H 0.50428 0.13174 0.16619 0.0
H1121 H 0.53585 0.12657 0.18387 0.0
H1122 H 0.59916 0.17504 0.19732 0.0
C1123 C 0.65649 0.15759 0.23393 0.0
C1124 C 0.58616 0.13285 0.22068 0.0
C1125 C 0.67816 0.15499 0.24001 0.0
C1126 C 0.51561 0.14202 0.17393 0.0
C1127 C 0.53351 0.13901 0.18407 0.0
C1128 C 0.59526 0.16329 0.2039 0.0
C1129 C 0.6335 0.14277 0.229 0.0
C1130 C 0.61144 0.14567 0.22075 0.0
C1131 C 0.54916 0.15236 0.19395 0.0
C1132 C 0.57025 0.15023 0.20357 0.0
H1133 H 0.65278 0.10897 0.23874 0.0
H1134 H 0.61535 0.11341 0.22745 0.0
H1135 H 0.63465 0.17094 0.21166 0.0
H1136 H 0.52593 0.18394 0.18409 0.0
H1137 H 0.55768 0.17885 0.20148 0.0
C1138 C 0.95112 0.91762 0.38783 0.0
C1139 C 0.94671 0.93214 0.39136 0.0
C1140 C 0.93415 0.8999 0.38988 0.0
C1141 C 0.87721 0.87031 0.40479 0.0
H1142 H 0.86179 0.84269 0.37171 0.0
C1143 C 0.79768 0.80104 0.37418 0.0
C1144 C 0.79696 0.7877 0.38412 0.0
C1145 C 0.8143 0.8191 0.3769 0.0
C1146 C 0.86568 0.85024 0.38098 0.0
H1147 H 0.92218 0.93988 0.40045 0.0
H1148 H 0.89168 0.90865 0.40359 0.0
H1149 H 0.89554 0.87291 0.37392 0.0
H1150 H 0.81176 0.7831 0.40512 0.0
H1151 H 0.84117 0.81476 0.40977 0.0
H1152 H 0.84668 0.84736 0.41164 0.0
C1153 C 0.90857 0.91095 0.39956 0.0
C1154 C 0.88534 0.8675 0.38235 0.0
C1155 C 0.92593 0.92878 0.39774 0.0
C1156 C 0.81202 0.79303 0.39719 0.0
C1157 C 0.82876 0.81116 0.3999 0.0
C1158 C 0.85742 0.85285 0.40342 0.0
C1159 C 0.91203 0.89635 0.39512 0.0
C1160 C 0.89143 0.87775 0.39425 0.0
C1161 C 0.83068 0.82425 0.3896 0.0
C1162 C 0.85138 0.84274 0.39142 0.0
H1163 H 0.96722 0.91999 0.38302 0.0
H1164 H 0.93771 0.88895 0.3867 0.0
H1165 H 0.88148 0.87791 0.41408 0.0
H1166 H 0.78599 0.79749 0.36411 0.0
H1167 H 0.81497 0.82898 0.36887 0.0
C1168 C 0.3966 0.13169 0.13277 0.0
C1169 C 0.41474 0.13821 0.14468 0.0
C1170 C 0.38909 0.1141 0.12821 0.0
C1171 C 0.40093 0.07212 0.13655 0.0
H1172 H 0.39513 0.07117 0.09717 0.0
C1173 C 0.41657 0.01751 0.1119 0.0
C1174 C 0.43003 0.02314 0.101 0.0
C1175 C 0.40603 0.02816 0.11624 0.0
C1176 C 0.39701 0.07121 0.1082 0.0
H1177 H 0.43864 0.13164 0.16152 0.0
H1178 H 0.42692 0.10145 0.15332 0.0
H1179 H 0.39276 0.09587 0.10766 0.0
H1180 H 0.44285 0.04403 0.08591 0.0
H1181 H 0.42613 0.06323 0.09393 0.0
H1182 H 0.40805 0.04858 0.13722 0.0
C1183 C 0.41733 0.10928 0.14768 0.0
C1184 C 0.39503 0.08528 0.11426 0.0
C1185 C 0.42418 0.12667 0.15244 0.0
C1186 C 0.43211 0.03927 0.09419 0.0
C1187 C 0.42234 0.05024 0.09881 0.0
C1188 C 0.40369 0.05835 0.13052 0.0
C1189 C 0.40049 0.103 0.13516 0.0
C1190 C 0.39777 0.08628 0.12858 0.0
C1191 C 0.40964 0.04506 0.11013 0.0
C1192 C 0.40258 0.05799 0.11628 0.0
H1193 H 0.3893 0.14053 0.1266 0.0
H1194 H 0.37545 0.10963 0.1188 0.0
H1195 H 0.40236 0.07201 0.14755 0.0
H1196 H 0.41475 0.00506 0.11728 0.0
H1197 H 0.39577 0.02335 0.12469 0.0
C1198 C 0.96827 0.79996 0.31979 0.0
C1199 C 0.98196 0.81503 0.3285 0.0
C1200 C 0.9499 0.78409 0.32442 0.0
C1201 C 0.92339 0.76231 0.35609 0.0
H1202 H 0.85893 0.74511 0.33105 0.0
C1203 C 0.82928 0.72196 0.3761 0.0
C1204 C 0.80953 0.72712 0.37044 0.0
C1205 C 0.85076 0.72722 0.3699 0.0
C1206 C 0.87675 0.74977 0.33822 0.0
H1207 H 0.98878 0.82474 0.3492 0.0
H1208 H 0.95694 0.79762 0.35712 0.0
H1209 H 0.89762 0.7646 0.32263 0.0
H1210 H 0.79703 0.74183 0.35378 0.0
H1211 H 0.83417 0.75145 0.34339 0.0
H1212 H 0.90232 0.74895 0.37193 0.0
C1213 C 0.96016 0.79771 0.34677 0.0
C1214 C 0.89911 0.76073 0.33331 0.0
C1215 C 0.97832 0.81345 0.34216 0.0
C1216 C 0.81149 0.73727 0.35832 0.0
C1217 C 0.83297 0.74274 0.35226 0.0
C1218 C 0.90099 0.75164 0.36105 0.0
C1219 C 0.94507 0.78299 0.33788 0.0
C1220 C 0.92259 0.76785 0.34231 0.0
C1221 C 0.85312 0.73802 0.35801 0.0
C1222 C 0.87721 0.7459 0.35229 0.0
H1223 H 0.97071 0.80077 0.30922 0.0
H1224 H 0.93888 0.77293 0.31734 0.0
H1225 H 0.94123 0.76709 0.36326 0.0
H1226 H 0.8283 0.71408 0.38543 0.0
H1227 H 0.86568 0.72309 0.37456 0.0
C1228 C 0.28863 0.15708 0.70993 0.0
C1229 C 0.2898 0.16729 0.72095 0.0
C1230 C 0.30045 0.16576 0.69884 0.0
C1231 C 0.30984 0.20858 0.68264 0.0
H1232 H 0.33634 0.1939 0.65532 0.0
C1233 C 0.32206 0.24832 0.63386 0.0
C1234 C 0.31033 0.23808 0.62182 0.0
C1235 C 0.32784 0.24017 0.64606 0.0
C1236 C 0.32896 0.19812 0.6629 0.0
H1237 H 0.30663 0.19395 0.73001 0.0
H1238 H 0.32837 0.209 0.71106 0.0
H1239 H 0.33328 0.17835 0.67759 0.0
H1240 H 0.2972 0.21167 0.61273 0.0
H1241 H 0.30654 0.19713 0.63432 0.0
H1242 H 0.30423 0.22761 0.66806 0.0
C1243 C 0.31783 0.19442 0.71072 0.0
C1244 C 0.3273 0.18929 0.67562 0.0
C1245 C 0.30565 0.18583 0.72164 0.0
C1246 C 0.30635 0.21985 0.62191 0.0
C1247 C 0.31173 0.21155 0.63426 0.0
C1248 C 0.3114 0.21727 0.67007 0.0
C1249 C 0.31364 0.1847 0.69876 0.0
C1250 C 0.31783 0.19456 0.68564 0.0
C1251 C 0.32138 0.22149 0.64656 0.0
C1252 C 0.32109 0.21228 0.66005 0.0
H1253 H 0.27615 0.14278 0.70913 0.0
H1254 H 0.2969 0.1579 0.68979 0.0
H1255 H 0.30145 0.21249 0.68987 0.0
H1256 H 0.32554 0.26246 0.63399 0.0
H1257 H 0.33589 0.2483 0.6553 0.0
C1258 C 0.77563 0.38293 0.81114 0.0
C1259 C 0.75961 0.38817 0.80114 0.0
C1260 C 0.79493 0.39566 0.82035 0.0
C1261 C 0.83497 0.44457 0.82302 0.0
H1262 H 0.85465 0.4338 0.86096 0.0
C1263 C 0.91188 0.48084 0.87497 0.0
C1264 C 0.93452 0.48811 0.86958 0.0
C1265 C 0.88876 0.47019 0.8668 0.0
C1266 C 0.84919 0.4371 0.85043 0.0
H1267 H 0.75043 0.41073 0.79351 0.0
H1268 H 0.78379 0.43274 0.80961 0.0
H1269 H 0.81693 0.4115 0.84698 0.0
H1270 H 0.95038 0.49107 0.85117 0.0
H1271 H 0.91005 0.47251 0.8369 0.0
H1272 H 0.8673 0.4701 0.82643 0.0
C1273 C 0.78181 0.4189 0.81015 0.0
C1274 C 0.82777 0.42424 0.84239 0.0
C1275 C 0.76259 0.40622 0.80097 0.0
C1276 C 0.9333 0.48551 0.85564 0.0
C1277 C 0.91016 0.47495 0.84745 0.0
C1278 C 0.85643 0.45738 0.83104 0.0
C1279 C 0.79856 0.41387 0.81975 0.0
C1280 C 0.82053 0.42778 0.82856 0.0
C1281 C 0.88777 0.46674 0.85305 0.0
C1282 C 0.86392 0.45373 0.84479 0.0
H1283 H 0.77387 0.36915 0.81156 0.0
H1284 H 0.80762 0.39138 0.82757 0.0
H1285 H 0.83008 0.44765 0.81236 0.0
H1286 H 0.91217 0.48257 0.88568 0.0
H1287 H 0.87175 0.46427 0.87134 0.0
C1288 C 0.17153 0.61633 0.18715 0.0
C1289 C 0.17516 0.61003 0.20058 0.0
C1290 C 0.15799 0.60408 0.17632 0.0
C1291 C 0.13245 0.55485 0.16788 0.0
H1292 H 0.08679 0.56608 0.13903 0.0
C1293 C 0.03921 0.50325 0.13753 0.0
C1294 C 0.03385 0.50569 0.12335 0.0
C1295 C 0.06137 0.51558 0.14541 0.0
C1296 C 0.0998 0.56291 0.14689 0.0
H1297 H 0.16689 0.58609 0.21332 0.0
H1298 H 0.14233 0.56489 0.19471 0.0
H1299 H 0.11533 0.58913 0.15594 0.0
H1300 H 0.04843 0.52227 0.10612 0.0
H1301 H 0.08662 0.54424 0.12004 0.0
H1302 H 0.11536 0.52816 0.15926 0.0
C1303 C 0.15077 0.57916 0.19231 0.0
C1304 C 0.11623 0.57611 0.1566 0.0
C1305 C 0.16464 0.59134 0.20303 0.0
C1306 C 0.05194 0.52002 0.11705 0.0
C1307 C 0.07377 0.53264 0.12498 0.0
C1308 C 0.11566 0.54157 0.15834 0.0
C1309 C 0.14746 0.58531 0.17877 0.0
C1310 C 0.13229 0.5721 0.16745 0.0
C1311 C 0.0783 0.53073 0.13925 0.0
C1312 C 0.09884 0.54539 0.14795 0.0
H1313 H 0.17964 0.63068 0.18497 0.0
H1314 H 0.15608 0.60935 0.16604 0.0
H1315 H 0.14509 0.55141 0.17582 0.0
H1316 H 0.0257 0.49228 0.14263 0.0
H1317 H 0.06444 0.51389 0.15642 0.0
C1318 C 0.70132 0.27632 0.09106 0.0
C1319 C 0.71831 0.27846 0.10349 0.0
C1320 C 0.67757 0.27651 0.09083 0.0
C1321 C 0.63568 0.27888 0.1145 0.0
H1322 H 0.58668 0.23639 0.09373 0.0
C1323 C 0.5359 0.23452 0.12875 0.0
C1324 C 0.52891 0.21581 0.12806 0.0
C1325 C 0.55688 0.24686 0.12316 0.0
C1326 C 0.6001 0.24827 0.09964 0.0
H1327 H 0.72549 0.2854 0.12496 0.0
H1328 H 0.68437 0.28491 0.12475 0.0
H1329 H 0.62862 0.25197 0.08808 0.0
H1330 H 0.53905 0.19547 0.12146 0.0
H1331 H 0.57555 0.21666 0.11229 0.0
H1332 H 0.6076 0.2738 0.12698 0.0
C1333 C 0.68882 0.28314 0.11508 0.0
C1334 C 0.6242 0.25753 0.09621 0.0
C1335 C 0.71256 0.28323 0.11525 0.0
C1336 C 0.54355 0.20976 0.12196 0.0
C1337 C 0.56445 0.22197 0.11654 0.0
C1338 C 0.61165 0.26932 0.11814 0.0
C1339 C 0.67029 0.27854 0.10307 0.0
C1340 C 0.64288 0.2724 0.10406 0.0
C1341 C 0.57126 0.24067 0.11687 0.0
C1342 C 0.59411 0.25331 0.11121 0.0
H1343 H 0.70535 0.27294 0.08175 0.0
H1344 H 0.66427 0.27368 0.08124 0.0
H1345 H 0.64913 0.29068 0.12048 0.0
H1346 H 0.52498 0.23959 0.1334 0.0
H1347 H 0.56164 0.26117 0.12363 0.0
C1348 C 0.67183 0.84942 0.29981 0.0
C1349 C 0.66466 0.84007 0.28736 0.0
C1350 C 0.67071 0.83996 0.31222 0.0
C1351 C 0.68943 0.81698 0.33361 0.0
H1352 H 0.63775 0.76881 0.33817 0.0
C1353 C 0.69857 0.75045 0.34907 0.0
C1354 C 0.70141 0.74741 0.36329 0.0
C1355 C 0.69041 0.76353 0.34331 0.0
C1356 C 0.65205 0.78244 0.33728 0.0
H1357 H 0.64916 0.8137 0.27792 0.0
H1358 H 0.64629 0.79714 0.29944 0.0
H1359 H 0.62771 0.78915 0.32109 0.0
H1360 H 0.6975 0.75571 0.38257 0.0
H1361 H 0.68264 0.77872 0.37223 0.0
H1362 H 0.71434 0.80956 0.34902 0.0
C1363 C 0.65284 0.81169 0.29974 0.0
C1364 C 0.64641 0.79401 0.32747 0.0
C1365 C 0.65448 0.82114 0.2874 0.0
C1366 C 0.6954 0.75767 0.37159 0.0
C1367 C 0.68704 0.77083 0.36573 0.0
C1368 C 0.69507 0.80536 0.34342 0.0
C1369 C 0.66187 0.82102 0.31229 0.0
C1370 C 0.6654 0.81106 0.32508 0.0
C1371 C 0.68469 0.77385 0.35156 0.0
C1372 C 0.67668 0.78777 0.34491 0.0
H1373 H 0.68021 0.86407 0.30002 0.0
H1374 H 0.67785 0.84748 0.32176 0.0
H1375 H 0.70455 0.82994 0.33188 0.0
H1376 H 0.70331 0.74305 0.34234 0.0
H1377 H 0.68888 0.7658 0.33236 0.0
C1378 C 0.03827 0.00593 0.64076 0.0
C1379 C 0.03894 0.00601 0.62673 0.0
C1380 C 0.05895 0.01783 0.64972 0.0
C1381 C 0.10887 0.03915 0.66789 0.0
H1382 H 0.13863 0.08918 0.65632 0.0
C1383 C 0.18487 0.0946 0.70464 0.0
C1384 C 0.18181 0.11076 0.70479 0.0
C1385 C 0.17081 0.08185 0.69426 0.0
C1386 C 0.13048 0.07526 0.65971 0.0
H1387 H 0.06236 0.01817 0.61118 0.0
H1388 H 0.09878 0.03895 0.62696 0.0
H1389 H 0.10786 0.06605 0.63995 0.0
H1390 H 0.16186 0.1263 0.69397 0.0
H1391 H 0.13695 0.10388 0.676 0.0
H1392 H 0.13032 0.04841 0.6878 0.0
C1393 C 0.08202 0.02976 0.63094 0.0
C1394 C 0.11312 0.06198 0.65028 0.0
C1395 C 0.06125 0.01776 0.62194 0.0
C1396 C 0.16473 0.11403 0.69415 0.0
C1397 C 0.15057 0.10121 0.68379 0.0
C1398 C 0.12611 0.05242 0.67732 0.0
C1399 C 0.0809 0.0301 0.6449 0.0
C1400 C 0.10172 0.04383 0.65435 0.0
C1401 C 0.15325 0.08489 0.6838 0.0
C1402 C 0.13676 0.07068 0.67341 0.0
H1403 H 0.02137 0.99702 0.64477 0.0
H1404 H 0.05729 0.0179 0.66036 0.0
H1405 H 0.10066 0.02526 0.6713 0.0
H1406 H 0.19803 0.09171 0.7126 0.0
H1407 H 0.17362 0.06955 0.69446 0.0
C1408 C 0.55459 0.46132 0.39488 0.0
C1409 C 0.5475 0.4697 0.38294 0.0
C1410 C 0.56987 0.45211 0.39472 0.0
C1411 C 0.57482 0.42035 0.38173 0.0
H1412 H 0.63539 0.43792 0.36534 0.0
C1413 C 0.58259 0.37367 0.3463 0.0
C1414 C 0.58521 0.38218 0.33354 0.0
C1415 C 0.59066 0.38412 0.35824 0.0
C1416 C 0.61861 0.43272 0.37007 0.0
H1417 H 0.55196 0.47621 0.36186 0.0
H1418 H 0.5796 0.46084 0.36173 0.0
H1419 H 0.62481 0.45931 0.3757 0.0
H1420 H 0.60037 0.40778 0.32316 0.0
H1421 H 0.61435 0.42594 0.34362 0.0
H1422 H 0.56653 0.39416 0.37459 0.0
C1423 C 0.57325 0.46125 0.37115 0.0
C1424 C 0.61272 0.44499 0.37609 0.0
C1425 C 0.55737 0.46993 0.37119 0.0
C1426 C 0.59842 0.40098 0.33295 0.0
C1427 C 0.60653 0.41138 0.34479 0.0
C1428 C 0.58036 0.40813 0.37543 0.0
C1429 C 0.57888 0.45172 0.38275 0.0
C1430 C 0.58998 0.43897 0.38121 0.0
C1431 C 0.60126 0.40317 0.35748 0.0
C1432 C 0.60133 0.41437 0.36862 0.0
H1433 H 0.54684 0.46079 0.40401 0.0
H1434 H 0.5737 0.44463 0.40369 0.0
H1435 H 0.55712 0.41541 0.3856 0.0
H1436 H 0.57211 0.35914 0.34691 0.0
H1437 H 0.58667 0.37733 0.36786 0.0
C1438 C 0.03307 0.73742 0.13529 0.0
C1439 C 0.02086 0.71946 0.1305 0.0
C1440 C 0.05517 0.74974 0.13061 0.0
C1441 C 0.09633 0.75422 0.10462 0.0
H1442 H 0.15115 0.782 0.13328 0.0
C1443 C 0.19885 0.7722 0.09914 0.0
C1444 C 0.21326 0.76857 0.11102 0.0
C1445 C 0.17663 0.77421 0.09985 0.0
C1446 C 0.13611 0.77425 0.12513 0.0
H1447 H 0.02192 0.70067 0.1166 0.0
H1448 H 0.06016 0.72147 0.10901 0.0
H1449 H 0.10769 0.76914 0.1373 0.0
H1450 H 0.21672 0.76584 0.13312 0.0
H1451 H 0.17808 0.76841 0.13429 0.0
H1452 H 0.12474 0.75746 0.09303 0.0
C1453 C 0.05266 0.72648 0.11604 0.0
C1454 C 0.11099 0.76712 0.12736 0.0
C1455 C 0.03069 0.71435 0.12059 0.0
C1456 C 0.20601 0.7684 0.1237 0.0
C1457 C 0.18377 0.77014 0.12439 0.0
C1458 C 0.12145 0.76088 0.10254 0.0
C1459 C 0.06552 0.74429 0.12109 0.0
C1460 C 0.0909 0.75608 0.11743 0.0
C1461 C 0.16817 0.7724 0.11244 0.0
C1462 C 0.14182 0.77008 0.11308 0.0
H1463 H 0.02593 0.74185 0.14287 0.0
H1464 H 0.06438 0.76339 0.13464 0.0
H1465 H 0.08127 0.74646 0.09648 0.0
H1466 H 0.20407 0.77268 0.08922 0.0
H1467 H 0.16557 0.77643 0.09044 0.0
C1468 C 0.08031 0.37631 0.85092 0.0
C1469 C 0.08239 0.38388 0.83783 0.0
C1470 C 0.08947 0.3876 0.86246 0.0
C1471 C 0.12123 0.43684 0.8729 0.0
H1472 H 0.06242 0.4229 0.89034 0.0
C1473 C 0.07025 0.48051 0.8764 0.0
C1474 C 0.05687 0.4784 0.88709 0.0
C1475 C 0.0854 0.47119 0.87658 0.0
C1476 C 0.07946 0.42695 0.88596 0.0
H1477 H 0.09729 0.40867 0.82644 0.0
H1478 H 0.1132 0.42828 0.84626 0.0
H1479 H 0.06806 0.40015 0.87894 0.0
H1480 H 0.05028 0.46605 0.90686 0.0
H1481 H 0.07628 0.44921 0.907 0.0
H1482 H 0.1309 0.46405 0.87872 0.0
C1483 C 0.10503 0.41381 0.84794 0.0
C1484 C 0.08277 0.41383 0.8794 0.0
C1485 C 0.09582 0.40258 0.8365 0.0
C1486 C 0.06063 0.46803 0.89855 0.0
C1487 C 0.07538 0.45834 0.8986 0.0
C1488 C 0.1177 0.45001 0.87931 0.0
C1489 C 0.10066 0.40658 0.861 0.0
C1490 C 0.10273 0.41881 0.87197 0.0
C1491 C 0.087 0.45923 0.88733 0.0
C1492 C 0.0959 0.44532 0.88514 0.0
H1493 H 0.06963 0.36189 0.85211 0.0
H1494 H 0.08609 0.38155 0.87237 0.0
H1495 H 0.13726 0.44107 0.86764 0.0
H1496 H 0.06758 0.48839 0.86744 0.0
H1497 H 0.09386 0.47203 0.86767 0.0
C1498 C 0.16985 0.65407 0.24397 0.0
C1499 C 0.169 0.63661 0.24445 0.0
C1500 C 0.14832 0.65698 0.23813 0.0
C1501 C 0.07882 0.63315 0.22279 0.0
H1502 H 0.09443 0.67688 0.20103 0.0
C1503 C 0.0115 0.64471 0.17556 0.0
C1504 C 0.00858 0.66092 0.17566 0.0
C1505 C 0.02907 0.64134 0.18571 0.0
C1506 C 0.08979 0.66469 0.20716 0.0
H1507 H 0.14481 0.60838 0.23974 0.0
H1508 H 0.10765 0.61343 0.22902 0.0
H1509 H 0.12868 0.67196 0.21604 0.0
H1510 H 0.02156 0.68619 0.18657 0.0
H1511 H 0.05271 0.68047 0.20398 0.0
H1512 H 0.0399 0.62557 0.21305 0.0
C1513 C 0.12452 0.62491 0.23351 0.0
C1514 C 0.1094 0.6619 0.2159 0.0
C1515 C 0.14589 0.62197 0.23966 0.0
C1516 C 0.02332 0.67355 0.1862 0.0
C1517 C 0.04118 0.67033 0.19616 0.0
C1518 C 0.05925 0.6358 0.2138 0.0
C1519 C 0.12566 0.64255 0.23226 0.0
C1520 C 0.10428 0.64604 0.22381 0.0
C1521 C 0.04433 0.65427 0.19595 0.0
C1522 C 0.06463 0.65157 0.20588 0.0
H1523 H 0.18745 0.66557 0.24765 0.0
H1524 H 0.14979 0.67067 0.2378 0.0
H1525 H 0.07397 0.62092 0.22886 0.0
H1526 H 0.00032 0.63469 0.16762 0.0
H1527 H 0.03131 0.6289 0.18531 0.0
C1528 C 0.32928 0.79049 0.89848 0.0
C1529 C 0.31251 0.78387 0.88608 0.0
C1530 C 0.34464 0.80906 0.9002 0.0
C1531 C 0.37027 0.84995 0.87912 0.0
H1532 H 0.38717 0.87655 0.91289 0.0
C1533 C 0.41682 0.92626 0.87871 0.0
C1534 C 0.43908 0.93475 0.88833 0.0
C1535 C 0.40061 0.90824 0.8803 0.0
C1536 C 0.38267 0.86921 0.90344 0.0
H1537 H 0.29722 0.79129 0.86618 0.0
H1538 H 0.32296 0.82356 0.86933 0.0
H1539 H 0.36008 0.84389 0.91208 0.0
H1540 H 0.46113 0.93147 0.90763 0.0
H1541 H 0.43288 0.89943 0.91023 0.0
H1542 H 0.3924 0.87503 0.87039 0.0
C1543 C 0.32529 0.81453 0.87752 0.0
C1544 C 0.36725 0.85055 0.90297 0.0
C1545 C 0.31046 0.79606 0.87571 0.0
C1546 C 0.44413 0.92515 0.90002 0.0
C1547 C 0.42795 0.9069 0.90155 0.0
C1548 C 0.38536 0.86844 0.87956 0.0
C1549 C 0.34309 0.82125 0.88961 0.0
C1550 C 0.36052 0.8408 0.8907 0.0
C1551 C 0.40648 0.89817 0.89145 0.0
C1552 C 0.39138 0.87835 0.89161 0.0
H1553 H 0.33108 0.78127 0.90663 0.0
H1554 H 0.35821 0.81378 0.90961 0.0
H1555 H 0.36624 0.84281 0.86963 0.0
H1556 H 0.41219 0.9335 0.86979 0.0
H1557 H 0.38383 0.90197 0.87255 0.0
C1558 C 0.04894 0.56286 0.09627 0.0
C1559 C 0.03645 0.5591 0.10756 0.0
C1560 C 0.07099 0.57875 0.09584 0.0
C1561 C 0.11025 0.61736 0.09393 0.0
H1562 H 0.15516 0.6375 0.12811 0.0
C1563 C 0.1908 0.68975 0.09739 0.0
C1564 C 0.21221 0.6938 0.1078 0.0
C1565 C 0.17045 0.67262 0.09665 0.0
C1566 C 0.14321 0.63199 0.1184 0.0
H1567 H 0.03694 0.56925 0.12711 0.0
H1568 H 0.07452 0.5973 0.12611 0.0
H1569 H 0.11835 0.60903 0.12823 0.0
H1570 H 0.22997 0.68288 0.12503 0.0
H1571 H 0.19533 0.65274 0.12329 0.0
H1572 H 0.13589 0.63988 0.08402 0.0
C1573 C 0.06794 0.58776 0.11775 0.0
C1574 C 0.12163 0.61574 0.11851 0.0
C1575 C 0.04618 0.57173 0.11829 0.0
C1576 C 0.21348 0.68018 0.11703 0.0
C1577 C 0.19345 0.66293 0.11608 0.0
C1578 C 0.13214 0.63347 0.09379 0.0
C1579 C 0.08087 0.59142 0.10661 0.0
C1580 C 0.10458 0.60833 0.10631 0.0
C1581 C 0.1713 0.65901 0.10611 0.0
C1582 C 0.14878 0.64118 0.10605 0.0
H1583 H 0.0421 0.55326 0.08792 0.0
H1584 H 0.08055 0.58088 0.08719 0.0
H1585 H 0.09756 0.61221 0.08432 0.0
H1586 H 0.18929 0.70006 0.09018 0.0
H1587 H 0.15371 0.67035 0.08894 0.0
C1588 C 0.28805 0.87713 0.74731 0.0
C1589 C 0.26643 0.8626 0.7508 0.0
C1590 C 0.31164 0.87612 0.74973 0.0
C1591 C 0.34537 0.85489 0.77388 0.0
H1592 H 0.39701 0.87324 0.75086 0.0
C1593 C 0.45036 0.87695 0.79598 0.0
C1594 C 0.46297 0.86819 0.79086 0.0
C1595 C 0.42664 0.87558 0.7892 0.0
C1596 C 0.38263 0.86794 0.7573 0.0
H1597 H 0.2521 0.83507 0.7584 0.0
H1598 H 0.2932 0.83345 0.76282 0.0
H1599 H 0.35402 0.87135 0.74181 0.0
H1600 H 0.46092 0.85188 0.77409 0.0
H1601 H 0.41921 0.84977 0.76205 0.0
H1602 H 0.37398 0.85206 0.7895 0.0
C1603 C 0.29203 0.8457 0.75842 0.0
C1604 C 0.35818 0.86696 0.75218 0.0
C1605 C 0.26852 0.84667 0.75594 0.0
C1606 C 0.4517 0.85872 0.77836 0.0
C1607 C 0.42791 0.85754 0.77144 0.0
C1608 C 0.36975 0.85612 0.77902 0.0
C1609 C 0.31397 0.86059 0.75572 0.0
C1610 C 0.33939 0.86055 0.76049 0.0
C1611 C 0.41498 0.8656 0.77703 0.0
C1612 C 0.38869 0.86287 0.77087 0.0
H1613 H 0.287 0.88955 0.74325 0.0
H1614 H 0.32826 0.88784 0.7476 0.0
H1615 H 0.33141 0.8501 0.78058 0.0
H1616 H 0.45841 0.88446 0.80551 0.0
H1617 H 0.41713 0.88207 0.79362 0.0
C1618 C 0.56968 0.87488 0.85014 0.0
C1619 C 0.58201 0.87806 0.8389 0.0
C1620 C 0.57903 0.88754 0.8607 0.0
C1621 C 0.61538 0.93717 0.86285 0.0
H1622 H 0.5813 0.92848 0.89397 0.0
C1623 C 0.56055 0.97647 0.86999 0.0
C1624 C 0.55377 0.9774 0.88257 0.0
C1625 C 0.5763 0.96804 0.86898 0.0
C1626 C 0.59162 0.93141 0.88555 0.0
H1627 H 0.61555 0.89546 0.83065 0.0
H1628 H 0.63322 0.91702 0.84963 0.0
H1629 H 0.58946 0.9046 0.88589 0.0
H1630 H 0.55994 0.97147 0.90423 0.0
H1631 H 0.58796 0.9568 0.90253 0.0
H1632 H 0.61799 0.96408 0.8627 0.0
C1633 C 0.61552 0.90528 0.85004 0.0
C1634 C 0.5959 0.91751 0.88071 0.0
C1635 C 0.60573 0.89275 0.83927 0.0
C1636 C 0.56478 0.97093 0.89438 0.0
C1637 C 0.58067 0.96239 0.89337 0.0
C1638 C 0.61181 0.95119 0.86794 0.0
C1639 C 0.6012 0.90363 0.86032 0.0
C1640 C 0.60579 0.9197 0.86855 0.0
C1641 C 0.58591 0.9603 0.88055 0.0
C1642 C 0.59792 0.94802 0.8786 0.0
H1643 H 0.55141 0.86353 0.85009 0.0
H1644 H 0.56721 0.88543 0.8683 0.0
H1645 H 0.62348 0.9398 0.85363 0.0
H1646 H 0.55258 0.98145 0.8607 0.0
H1647 H 0.5794 0.96653 0.85887 0.0
C1648 C 0.19333 0.26952 0.59335 0.0
C1649 C 0.21522 0.27722 0.60338 0.0
C1650 C 0.17036 0.26955 0.59511 0.0
C1651 C 0.14091 0.26797 0.62451 0.0
H1652 H 0.08166 0.26063 0.5966 0.0
C1653 C 0.04025 0.23352 0.63754 0.0
C1654 C 0.0241 0.21875 0.62889 0.0
C1655 C 0.06278 0.24648 0.63376 0.0
C1656 C 0.09807 0.26276 0.60453 0.0
H1657 H 0.23132 0.29324 0.62197 0.0
H1658 H 0.19157 0.29395 0.62474 0.0
H1659 H 0.12402 0.27448 0.59045 0.0
H1660 H 0.01798 0.2067 0.60912 0.0
H1661 H 0.05701 0.22913 0.60258 0.0
H1662 H 0.11504 0.25547 0.63844 0.0
C1663 C 0.19177 0.28726 0.61582 0.0
C1664 C 0.12232 0.27068 0.60101 0.0
C1665 C 0.2146 0.28701 0.61417 0.0
C1666 C 0.03012 0.21783 0.61607 0.0
C1667 C 0.05241 0.23082 0.61225 0.0
C1668 C 0.11673 0.26011 0.62803 0.0
C1669 C 0.16904 0.27747 0.60683 0.0
C1670 C 0.14397 0.27279 0.61087 0.0
C1671 C 0.06937 0.24503 0.62119 0.0
C1672 C 0.09496 0.25679 0.61798 0.0
H1673 H 0.19323 0.26179 0.58497 0.0
H1674 H 0.15327 0.26187 0.58795 0.0
H1675 H 0.15701 0.26906 0.63237 0.0
H1676 H 0.03612 0.2346 0.64748 0.0
H1677 H 0.0754 0.25735 0.64083 0.0
C1678 C 0.31834 0.72143 0.87131 0.0
C1679 C 0.31715 0.72243 0.88517 0.0
C1680 C 0.34153 0.73034 0.86667 0.0
C1681 C 0.39782 0.77152 0.87492 0.0
H1682 H 0.42462 0.75698 0.8477 0.0
C1683 C 0.48375 0.82372 0.85364 0.0
C1684 C 0.48349 0.82287 0.8396 0.0
C1685 C 0.46666 0.80928 0.86016 0.0
C1686 C 0.41727 0.76132 0.85521 0.0
H1687 H 0.33975 0.73184 0.90527 0.0
H1688 H 0.38004 0.74734 0.89715 0.0
H1689 H 0.38854 0.73449 0.85725 0.0
H1690 H 0.46571 0.80613 0.8214 0.0
H1691 H 0.43496 0.78132 0.83256 0.0
H1692 H 0.42501 0.79838 0.87243 0.0
C1693 C 0.36301 0.7399 0.88986 0.0
C1694 C 0.39673 0.74839 0.86073 0.0
C1695 C 0.33993 0.73091 0.8945 0.0
C1696 C 0.46637 0.80709 0.83227 0.0
C1697 C 0.44883 0.79281 0.83872 0.0
C1698 C 0.41795 0.78445 0.86927 0.0
C1699 C 0.36383 0.7404 0.87582 0.0
C1700 C 0.38681 0.75341 0.87062 0.0
C1701 C 0.4484 0.79385 0.85271 0.0
C1702 C 0.42795 0.77961 0.85928 0.0
H1703 H 0.30118 0.71469 0.86392 0.0
H1704 H 0.34165 0.73047 0.85579 0.0
H1705 H 0.39018 0.77586 0.8823 0.0
H1706 H 0.49705 0.83563 0.85957 0.0
H1707 H 0.46753 0.81041 0.87103 0.0
C1708 C 0.93349 0.98512 0.35407 0.0
C1709 C 0.9359 0.98625 0.36832 0.0
C1710 C 0.90991 0.97476 0.34613 0.0
C1711 C 0.85683 0.93354 0.34681 0.0
H1712 H 0.81832 0.95069 0.3177 0.0
C1713 C 0.76541 0.88339 0.31338 0.0
C1714 C 0.76103 0.88775 0.29948 0.0
C1715 C 0.78448 0.8962 0.32264 0.0
C1716 C 0.82898 0.9456 0.32566 0.0
H1717 H 0.91548 0.97781 0.38539 0.0
H1718 H 0.87452 0.95928 0.37148 0.0
H1719 H 0.85649 0.97242 0.33178 0.0
H1720 H 0.77322 0.90878 0.28432 0.0
H1721 H 0.80708 0.93061 0.30015 0.0
H1722 H 0.83068 0.90676 0.34032 0.0
C1723 C 0.89077 0.96669 0.36651 0.0
C1724 C 0.85068 0.9581 0.33377 0.0
C1725 C 0.91415 0.97737 0.3744 0.0
C1726 C 0.77598 0.90509 0.29502 0.0
C1727 C 0.79532 0.9177 0.30417 0.0
C1728 C 0.8355 0.92101 0.33851 0.0
C1729 C 0.8886 0.96509 0.35237 0.0
C1730 C 0.86481 0.95212 0.34432 0.0
C1731 C 0.79991 0.91349 0.31813 0.0
C1732 C 0.82141 0.92684 0.32769 0.0
H1733 H 0.94996 0.99177 0.34915 0.0
H1734 H 0.90857 0.97357 0.33521 0.0
H1735 H 0.86766 0.92869 0.35489 0.0
H1736 H 0.75397 0.87017 0.3171 0.0
H1737 H 0.78704 0.89251 0.33333 0.0
C1738 C 0.40441 0.62929 0.62816 0.0
C1739 C 0.41029 0.63427 0.64199 0.0
C1740 C 0.39743 0.61147 0.62448 0.0
C1741 C 0.41457 0.5753 0.63797 0.0
H1742 H 0.37371 0.55203 0.60366 0.0
C1743 C 0.43188 0.52025 0.61522 0.0
C1744 C 0.43394 0.52259 0.60132 0.0
C1745 C 0.42118 0.52956 0.62114 0.0
C1746 C 0.38519 0.55834 0.61328 0.0
H1747 H 0.41163 0.62446 0.66284 0.0
H1748 H 0.39953 0.59305 0.65642 0.0
H1749 H 0.36657 0.57596 0.61287 0.0
H1750 H 0.42539 0.53583 0.58253 0.0
H1751 H 0.40732 0.55251 0.59292 0.0
H1752 H 0.43429 0.5586 0.63803 0.0
C1753 C 0.40026 0.60297 0.64842 0.0
C1754 C 0.38099 0.57195 0.61859 0.0
C1755 C 0.40696 0.62087 0.6521 0.0
C1756 C 0.42403 0.53377 0.59328 0.0
C1757 C 0.41351 0.54323 0.59923 0.0
C1758 C 0.41883 0.56175 0.63265 0.0
C1759 C 0.39653 0.5983 0.6346 0.0
C1760 C 0.39628 0.58103 0.63074 0.0
C1761 C 0.41249 0.54154 0.61331 0.0
C1762 C 0.40481 0.55356 0.62 0.0
H1763 H 0.40692 0.63945 0.62019 0.0
H1764 H 0.39495 0.60842 0.61376 0.0
H1765 H 0.42697 0.5822 0.64722 0.0
H1766 H 0.43894 0.51145 0.62161 0.0
H1767 H 0.42024 0.52769 0.63195 0.0
C1768 C 0.81926 0.21937 0.87323 0.0
C1769 C 0.81705 0.22632 0.88509 0.0
C1770 C 0.84227 0.22677 0.86834 0.0
C1771 C 0.90992 0.26264 0.87587 0.0
H1772 H 0.89929 0.26631 0.83632 0.0
C1773 C 0.98919 0.31309 0.84755 0.0
C1774 C 0.98075 0.32237 0.83672 0.0
C1775 C 0.97154 0.298 0.85337 0.0
C1776 C 0.90264 0.26554 0.84739 0.0
H1777 H 0.83712 0.24603 0.9014 0.0
H1778 H 0.87658 0.25969 0.89254 0.0
H1779 H 0.86467 0.24605 0.84732 0.0
H1780 H 0.9479 0.32344 0.82331 0.0
H1781 H 0.91709 0.29758 0.83352 0.0
H1782 H 0.94734 0.28347 0.87585 0.0
C1783 C 0.86125 0.24801 0.88723 0.0
C1784 C 0.88279 0.25356 0.85376 0.0
C1785 C 0.8385 0.24019 0.89235 0.0
C1786 C 0.9547 0.31632 0.83162 0.0
C1787 C 0.93712 0.30139 0.83742 0.0
C1788 C 0.92965 0.27495 0.86948 0.0
C1789 C 0.86326 0.2418 0.87489 0.0
C1790 C 0.88581 0.25229 0.86813 0.0
C1791 C 0.94521 0.29206 0.84845 0.0
C1792 C 0.92596 0.27699 0.85517 0.0
H1793 H 0.80291 0.20866 0.86747 0.0
H1794 H 0.84316 0.22114 0.85908 0.0
H1795 H 0.91339 0.26174 0.88692 0.0
H1796 H 0.00932 0.31766 0.85162 0.0
H1797 H 0.97852 0.2911 0.86175 0.0
C1798 C 0.92958 0.52182 0.12307 0.0
C1799 C 0.9288 0.52253 0.10885 0.0
C1800 C 0.92086 0.53231 0.12925 0.0
C1801 C 0.88468 0.56099 0.12189 0.0
H1802 H 0.93214 0.58847 0.15328 0.0
C1803 C 0.90301 0.63305 0.13421 0.0
C1804 C 0.91068 0.63913 0.14783 0.0
C1805 C 0.89713 0.61517 0.13116 0.0
C1806 C 0.91827 0.58062 0.14475 0.0
H1807 H 0.91707 0.5341 0.08987 0.0
H1808 H 0.90228 0.55256 0.10061 0.0
H1809 H 0.93759 0.56367 0.14455 0.0
H1810 H 0.91654 0.63111 0.16902 0.0
H1811 H 0.90631 0.59967 0.16368 0.0
H1812 H 0.86622 0.57868 0.1217 0.0
C1813 C 0.90931 0.54376 0.10703 0.0
C1814 C 0.92142 0.56638 0.13971 0.0
C1815 C 0.91797 0.53325 0.10086 0.0
C1816 C 0.91045 0.62669 0.15843 0.0
C1817 C 0.90485 0.60877 0.15537 0.0
C1818 C 0.88157 0.57527 0.12692 0.0
C1819 C 0.91117 0.54373 0.12133 0.0
C1820 C 0.90516 0.55677 0.12795 0.0
C1821 C 0.89908 0.60304 0.14167 0.0
C1822 C 0.89882 0.58562 0.13814 0.0
H1823 H 0.93744 0.51347 0.1295 0.0
H1824 H 0.92218 0.53174 0.14026 0.0
H1825 H 0.87152 0.55362 0.11298 0.0
H1826 H 0.90312 0.64243 0.12585 0.0
H1827 H 0.893 0.61129 0.1205 0.0
C1828 C 0.55378 0.56647 0.58689 0.0
C1829 C 0.54028 0.56306 0.59776 0.0
C1830 C 0.57375 0.58343 0.58557 0.0
C1831 C 0.59926 0.63125 0.59625 0.0
H1832 H 0.66452 0.6343 0.59117 0.0
C1833 C 0.69222 0.69375 0.6121 0.0
C1834 C 0.70963 0.70049 0.60303 0.0
C1835 C 0.67097 0.67726 0.60952 0.0
C1836 C 0.6463 0.63367 0.59238 0.0
H1837 H 0.53692 0.57489 0.61561 0.0
H1838 H 0.57135 0.60434 0.61323 0.0
H1839 H 0.62789 0.60481 0.58994 0.0
H1840 H 0.7186 0.69502 0.58422 0.0
H1841 H 0.68156 0.6658 0.57989 0.0
H1842 H 0.61774 0.65996 0.59909 0.0
C1843 C 0.56656 0.59398 0.60571 0.0
C1844 C 0.62533 0.6168 0.59166 0.0
C1845 C 0.54693 0.57703 0.60713 0.0
C1846 C 0.70547 0.6902 0.59139 0.0
C1847 C 0.68436 0.67347 0.58893 0.0
C1848 C 0.62016 0.64803 0.59701 0.0
C1849 C 0.5803 0.59739 0.59496 0.0
C1850 C 0.60175 0.61537 0.59395 0.0
C1851 C 0.66676 0.66694 0.59792 0.0
C1852 C 0.64406 0.64938 0.59543 0.0
H1853 H 0.54924 0.55594 0.57956 0.0
H1854 H 0.58396 0.58566 0.57717 0.0
H1855 H 0.58122 0.63065 0.59776 0.0
H1856 H 0.69475 0.70138 0.62111 0.0
H1857 H 0.65791 0.67248 0.61672 0.0
C1858 C 0.64694 0.62346 0.74255 0.0
C1859 C 0.67047 0.63835 0.74588 0.0
C1860 C 0.6249 0.62607 0.73744 0.0
C1861 C 0.60733 0.66177 0.71943 0.0
H1862 H 0.53883 0.62489 0.71924 0.0
C1863 C 0.51901 0.66901 0.68827 0.0
C1864 C 0.50602 0.65563 0.67805 0.0
C1865 C 0.53655 0.66695 0.69912 0.0
C1866 C 0.55788 0.63532 0.7193 0.0
H1867 H 0.68919 0.66751 0.74775 0.0
H1868 H 0.65058 0.67211 0.73972 0.0
H1869 H 0.57453 0.62202 0.73481 0.0
H1870 H 0.50009 0.62913 0.67166 0.0
H1871 H 0.53043 0.62536 0.6909 0.0
H1872 H 0.59047 0.67512 0.70404 0.0
C1873 C 0.64914 0.65842 0.74035 0.0
C1874 C 0.57839 0.63366 0.72813 0.0
C1875 C 0.67126 0.6558 0.74513 0.0
C1876 C 0.50992 0.6397 0.67932 0.0
C1877 C 0.52711 0.63749 0.69036 0.0
C1878 C 0.58681 0.66361 0.71087 0.0
C1879 C 0.62585 0.64365 0.7358 0.0
C1880 C 0.60352 0.64662 0.72804 0.0
C1881 C 0.54103 0.6513 0.70014 0.0
C1882 C 0.56201 0.6502 0.71048 0.0
H1883 H 0.64584 0.60984 0.74292 0.0
H1884 H 0.60754 0.61432 0.73396 0.0
H1885 H 0.62627 0.67188 0.71874 0.0
H1886 H 0.51647 0.68146 0.68759 0.0
H1887 H 0.54709 0.67776 0.70655 0.0
C1888 C 0.3053 0.67908 0.21799 0.0
C1889 C 0.28587 0.66158 0.21606 0.0
C1890 C 0.31914 0.68753 0.20758 0.0
C1891 C 0.325 0.68203 0.17136 0.0
H1892 H 0.32337 0.72914 0.16768 0.0
C1893 C 0.30492 0.7157 0.1199 0.0
C1894 C 0.31364 0.73459 0.11962 0.0
C1895 C 0.31109 0.70707 0.13186 0.0
C1896 C 0.3247 0.71626 0.16857 0.0
H1897 H 0.26671 0.6386 0.20235 0.0
H1898 H 0.29001 0.65347 0.18393 0.0
H1899 H 0.31801 0.71325 0.18902 0.0
H1900 H 0.33746 0.75941 0.13088 0.0
H1901 H 0.34954 0.74452 0.15144 0.0
H1902 H 0.33021 0.68489 0.15041 0.0
C1903 C 0.29537 0.66061 0.19355 0.0
C1904 C 0.32164 0.70706 0.18094 0.0
C1905 C 0.28198 0.65202 0.20412 0.0
C1906 C 0.33058 0.74481 0.1309 0.0
C1907 C 0.33723 0.73625 0.1427 0.0
C1908 C 0.32801 0.69129 0.15888 0.0
C1909 C 0.31303 0.67886 0.19485 0.0
C1910 C 0.32112 0.68963 0.18245 0.0
C1911 C 0.32633 0.71726 0.14363 0.0
C1912 C 0.32731 0.70837 0.15726 0.0
H1913 H 0.30844 0.68672 0.2271 0.0
H1914 H 0.33316 0.70139 0.20911 0.0
H1915 H 0.32493 0.66871 0.17218 0.0
H1916 H 0.29145 0.70756 0.11138 0.0
H1917 H 0.3022 0.69244 0.13221 0.0
C1918 C 0.71193 0.78091 0.61578 0.0
C1919 C 0.71698 0.77594 0.60387 0.0
C1920 C 0.68807 0.78033 0.61612 0.0
C1921 C 0.62328 0.75226 0.59941 0.0
H1922 H 0.60711 0.77113 0.62903 0.0
C1923 C 0.5462 0.7064 0.62805 0.0
C1924 C 0.52935 0.7123 0.63209 0.0
C1925 C 0.56719 0.71846 0.62265 0.0
C1926 C 0.61112 0.76592 0.62053 0.0
H1927 H 0.7024 0.76933 0.58236 0.0
H1928 H 0.66092 0.76895 0.58278 0.0
H1929 H 0.64794 0.78793 0.62149 0.0
H1930 H 0.52194 0.73574 0.63414 0.0
H1931 H 0.55909 0.7571 0.6245 0.0
H1932 H 0.58673 0.73019 0.59854 0.0
C1933 C 0.67506 0.77254 0.59206 0.0
C1934 C 0.63463 0.77545 0.61628 0.0
C1935 C 0.69897 0.77297 0.59176 0.0
C1936 C 0.53459 0.7308 0.63108 0.0
C1937 C 0.55576 0.74299 0.62555 0.0
C1938 C 0.59981 0.7429 0.60354 0.0
C1939 C 0.66871 0.77491 0.6045 0.0
C1940 C 0.64158 0.7682 0.60618 0.0
C1941 C 0.57194 0.7368 0.62099 0.0
C1942 C 0.59406 0.74906 0.61466 0.0
H1943 H 0.72563 0.78365 0.62524 0.0
H1944 H 0.68422 0.78236 0.6259 0.0
H1945 H 0.62769 0.74607 0.59164 0.0
H1946 H 0.54307 0.69231 0.62896 0.0
H1947 H 0.57976 0.71334 0.61973 0.0
C1948 C 0.66082 0.3423 0.7965 0.0
C1949 C 0.66147 0.33611 0.78389 0.0
C1950 C 0.65664 0.33058 0.80776 0.0
C1951 C 0.67333 0.30815 0.83017 0.0
H1952 H 0.63481 0.25619 0.82643 0.0
C1953 C 0.69676 0.24504 0.84624 0.0
C1954 C 0.70626 0.24775 0.86032 0.0
C1955 C 0.68216 0.25386 0.83938 0.0
C1956 C 0.6454 0.27069 0.82774 0.0
H1957 H 0.65618 0.31269 0.77274 0.0
H1958 H 0.64867 0.29232 0.79211 0.0
H1959 H 0.62395 0.2762 0.80944 0.0
H1960 H 0.70716 0.26122 0.87843 0.0
H1961 H 0.68209 0.27719 0.86628 0.0
H1962 H 0.69561 0.30255 0.84809 0.0
C1963 C 0.65128 0.30607 0.79349 0.0
C1964 C 0.63925 0.28215 0.818 0.0
C1965 C 0.65573 0.31777 0.78237 0.0
C1966 C 0.69983 0.25877 0.86758 0.0
C1967 C 0.68564 0.26796 0.86064 0.0
C1968 C 0.67933 0.29668 0.83998 0.0
C1969 C 0.65273 0.31248 0.80647 0.0
C1970 C 0.65406 0.30095 0.81869 0.0
C1971 C 0.67717 0.26589 0.84641 0.0
C1972 C 0.66626 0.27781 0.83845 0.0
H1973 H 0.66543 0.35645 0.79795 0.0
H1974 H 0.65771 0.3359 0.8176 0.0
H1975 H 0.68526 0.32253 0.83099 0.0
H1976 H 0.7015 0.23664 0.8404 0.0
H1977 H 0.67619 0.25217 0.82839 0.0
C1978 C 0.05086 0.95681 0.39089 0.0
C1979 C 0.05587 0.97389 0.38503 0.0
C1980 C 0.06628 0.94804 0.38986 0.0
C1981 C 0.10578 0.94767 0.36557 0.0
H1982 H 0.10124 0.90418 0.38588 0.0
C1983 C 0.10516 0.89102 0.33729 0.0
C1984 C 0.08066 0.87712 0.33675 0.0
C1985 C 0.11562 0.90353 0.34808 0.0
C1986 C 0.10322 0.91648 0.38023 0.0
H1987 H 0.08178 0.996 0.37453 0.0
H1988 H 0.1099 0.98128 0.37345 0.0
H1989 H 0.09542 0.92772 0.39655 0.0
H1990 H 0.04933 0.86374 0.34771 0.0
H1991 H 0.06765 0.88514 0.36663 0.0
H1992 H 0.11247 0.93615 0.34909 0.0
C1993 C 0.09358 0.97424 0.37843 0.0
C1994 C 0.0996 0.92991 0.38626 0.0
C1995 C 0.07773 0.98283 0.37917 0.0
C1996 C 0.06831 0.87438 0.34797 0.0
C1997 C 0.0789 0.88664 0.35884 0.0
C1998 C 0.10983 0.93444 0.35966 0.0
C1999 C 0.08724 0.9563 0.38305 0.0
C2000 C 0.0991 0.94512 0.37866 0.0
C2001 C 0.10176 0.90209 0.35849 0.0
C2002 C 0.10697 0.91819 0.36659 0.0
H2003 H 0.03378 0.9496 0.39525 0.0
H2004 H 0.06033 0.93421 0.3934 0.0
H2005 H 0.1055 0.95902 0.35925 0.0
H2006 H 0.11488 0.89345 0.32866 0.0
H2007 H 0.13336 0.91524 0.34761 0.0
C2008 C 0.46072 0.42564 0.4103 0.0
C2009 C 0.44675 0.4351 0.40358 0.0
C2010 C 0.44804 0.40769 0.4143 0.0
C2011 C 0.3863 0.37069 0.41845 0.0
H2012 H 0.40337 0.34348 0.39504 0.0
C2013 C 0.31399 0.30075 0.39697 0.0
C2014 C 0.3226 0.28897 0.39244 0.0
C2015 C 0.33138 0.31775 0.40228 0.0
C2016 C 0.39859 0.35055 0.402 0.0
H2017 H 0.40911 0.43423 0.39685 0.0
H2018 H 0.38689 0.40304 0.40425 0.0
H2019 H 0.4305 0.3752 0.39922 0.0
H2020 H 0.35571 0.28482 0.39061 0.0
H2021 H 0.38628 0.31391 0.40072 0.0
H2022 H 0.35435 0.34607 0.42128 0.0
C2023 C 0.4075 0.40933 0.40637 0.0
C2024 C 0.41426 0.36886 0.40436 0.0
C2025 C 0.42015 0.42711 0.40209 0.0
C2026 C 0.34877 0.29392 0.39389 0.0
C2027 C 0.36621 0.31066 0.39959 0.0
C2028 C 0.37089 0.35219 0.41638 0.0
C2029 C 0.42129 0.39917 0.41183 0.0
C2030 C 0.40781 0.37923 0.4122 0.0
C2031 C 0.35781 0.32309 0.4035 0.0
C2032 C 0.37627 0.34198 0.40768 0.0
H2033 H 0.48128 0.43158 0.41142 0.0
H2034 H 0.45904 0.40009 0.41848 0.0
H2035 H 0.38098 0.37844 0.42456 0.0
H2036 H 0.29378 0.2971 0.3959 0.0
H2037 H 0.32393 0.32689 0.40489 0.0
C2038 C 0.29103 0.3816 0.24797 0.0
C2039 C 0.27394 0.36442 0.25159 0.0
C2040 C 0.31547 0.3844 0.24623 0.0
C2041 C 0.36912 0.38883 0.25759 0.0
H2042 H 0.38662 0.35009 0.25022 0.0
C2043 C 0.45227 0.37912 0.2907 0.0
C2044 C 0.46654 0.37196 0.28533 0.0
C2045 C 0.43105 0.38048 0.28261 0.0
C2046 C 0.38231 0.36125 0.2521 0.0
H2047 H 0.26783 0.33635 0.25456 0.0
H2048 H 0.31003 0.3412 0.2519 0.0
H2049 H 0.34444 0.34854 0.24077 0.0
H2050 H 0.46964 0.36071 0.26711 0.0
H2051 H 0.43246 0.36331 0.25284 0.0
H2052 H 0.40689 0.40153 0.26892 0.0
C2053 C 0.30501 0.35261 0.25031 0.0
C2054 C 0.35797 0.36027 0.2468 0.0
C2055 C 0.28074 0.34983 0.252 0.0
C2056 C 0.45903 0.36625 0.27158 0.0
C2057 C 0.43772 0.36772 0.26341 0.0
C2058 C 0.39351 0.38993 0.26271 0.0
C2059 C 0.32318 0.37009 0.2481 0.0
C2060 C 0.3506 0.37355 0.25013 0.0
C2061 C 0.42349 0.3749 0.26885 0.0
C2062 C 0.39993 0.37567 0.2607 0.0
H2063 H 0.28626 0.39309 0.24746 0.0
H2064 H 0.32875 0.39798 0.2442 0.0
H2065 H 0.36436 0.39936 0.26041 0.0
H2066 H 0.45724 0.38348 0.30127 0.0
H2067 H 0.42019 0.38554 0.28732 0.0
C2068 C 0.48065 0.32282 0.34676 0.0
C2069 C 0.48478 0.32288 0.33332 0.0
C2070 C 0.46274 0.30738 0.35201 0.0
C2071 C 0.40212 0.27162 0.34072 0.0
H2072 H 0.41128 0.25034 0.37645 0.0
C2073 C 0.31464 0.22422 0.36277 0.0
C2074 C 0.31553 0.22715 0.37659 0.0
C2075 C 0.33698 0.23093 0.35729 0.0
C2076 C 0.40831 0.2562 0.36648 0.0
H2077 H 0.47402 0.30658 0.31502 0.0
H2078 H 0.44215 0.27988 0.32407 0.0
H2079 H 0.44836 0.27243 0.3675 0.0
H2080 H 0.34044 0.23855 0.39571 0.0
H2081 H 0.3792 0.25105 0.38614 0.0
H2082 H 0.36225 0.25683 0.33997 0.0
C2083 C 0.45306 0.2917 0.33057 0.0
C2084 C 0.42959 0.26873 0.36135 0.0
C2085 C 0.4713 0.30698 0.32542 0.0
C2086 C 0.33924 0.23593 0.38504 0.0
C2087 C 0.36155 0.24306 0.37951 0.0
C2088 C 0.38085 0.25943 0.34595 0.0
C2089 C 0.44834 0.29187 0.34382 0.0
C2090 C 0.42658 0.27681 0.34855 0.0
C2091 C 0.36064 0.24124 0.36543 0.0
C2092 C 0.38355 0.25186 0.35906 0.0
H2093 H 0.49085 0.33482 0.35312 0.0
H2094 H 0.45925 0.30786 0.36222 0.0
H2095 H 0.39931 0.27782 0.33087 0.0
H2096 H 0.29654 0.21736 0.35606 0.0
H2097 H 0.33551 0.22872 0.34652 0.0
C2098 C 0.90845 0.12983 0.62831 0.0
C2099 C 0.9133 0.13494 0.64206 0.0
C2100 C 0.90192 0.11198 0.62486 0.0
C2101 C 0.91711 0.07517 0.63939 0.0
H2102 H 0.87687 0.0514 0.60513 0.0
C2103 C 0.93188 0.0174 0.61904 0.0
C2104 C 0.93473 0.01917 0.60525 0.0
C2105 C 0.92151 0.02748 0.62435 0.0
C2106 C 0.88818 0.05785 0.61475 0.0
H2107 H 0.91322 0.12522 0.66294 0.0
H2108 H 0.90188 0.09384 0.65691 0.0
H2109 H 0.8709 0.07647 0.61334 0.0
H2110 H 0.92773 0.03211 0.58601 0.0
H2111 H 0.91022 0.05002 0.5953 0.0
H2112 H 0.93549 0.05741 0.64047 0.0
C2113 C 0.90321 0.1037 0.64881 0.0
C2114 C 0.88466 0.07214 0.61947 0.0
C2115 C 0.9095 0.12161 0.65225 0.0
C2116 C 0.92577 0.03047 0.59668 0.0
C2117 C 0.91557 0.04065 0.60201 0.0
C2118 C 0.92069 0.06096 0.63465 0.0
C2119 C 0.90034 0.09889 0.63511 0.0
C2120 C 0.89971 0.08134 0.63162 0.0
C2121 C 0.91392 0.03963 0.61599 0.0
C2122 C 0.90687 0.05252 0.62204 0.0
H2123 H 0.91116 0.13986 0.62025 0.0
H2124 H 0.90007 0.1088 0.61423 0.0
H2125 H 0.9293 0.08213 0.64867 0.0
H2126 H 0.93823 0.00856 0.62584 0.0
H2127 H 0.92006 0.02609 0.63509 0.0
C2128 C 0.80807 0.21898 0.12166 0.0
C2129 C 0.80965 0.23643 0.12314 0.0
C2130 C 0.81149 0.20877 0.13324 0.0
C2131 C 0.79707 0.18666 0.15892 0.0
H2132 H 0.84012 0.20897 0.19308 0.0
C2133 C 0.78363 0.17846 0.21682 0.0
C2134 C 0.78344 0.16164 0.2212 0.0
C2135 C 0.79232 0.18624 0.20478 0.0
C2136 C 0.82829 0.2025 0.18357 0.0
H2137 H 0.81797 0.2574 0.13773 0.0
H2138 H 0.82377 0.23977 0.15779 0.0
H2139 H 0.84767 0.22534 0.1716 0.0
H2140 H 0.79207 0.13967 0.21644 0.0
H2141 H 0.80663 0.1532 0.19495 0.0
H2142 H 0.77736 0.16399 0.17111 0.0
C2143 C 0.82004 0.23384 0.14781 0.0
C2144 C 0.83245 0.21187 0.17129 0.0
C2145 C 0.81651 0.24395 0.13629 0.0
C2146 C 0.79223 0.15273 0.21333 0.0
C2147 C 0.80043 0.16039 0.20107 0.0
C2148 C 0.79316 0.17717 0.17122 0.0
C2149 C 0.81678 0.21592 0.14647 0.0
C2150 C 0.81618 0.20441 0.15889 0.0
C2151 C 0.80056 0.17722 0.19676 0.0
C2152 C 0.80815 0.18533 0.18366 0.0
H2153 H 0.80271 0.21282 0.11163 0.0
H2154 H 0.80912 0.19508 0.13186 0.0
H2155 H 0.784 0.18056 0.14961 0.0
H2156 H 0.77694 0.18559 0.22268 0.0
H2157 H 0.79203 0.19916 0.20155 0.0
C2158 C 0.26079 0.40768 0.30483 0.0
C2159 C 0.25958 0.3901 0.3048 0.0
C2160 C 0.27815 0.42035 0.31466 0.0
C2161 C 0.32319 0.42572 0.34773 0.0
H2162 H 0.35944 0.47353 0.33347 0.0
C2163 C 0.42818 0.48642 0.35964 0.0
C2164 C 0.4321 0.4877 0.37394 0.0
C2165 C 0.40391 0.47684 0.35219 0.0
C2166 C 0.34943 0.46028 0.33765 0.0
H2167 H 0.27518 0.3719 0.31541 0.0
H2168 H 0.30596 0.39413 0.33237 0.0
H2169 H 0.32322 0.45126 0.31889 0.0
H2170 H 0.41357 0.48067 0.39167 0.0
H2171 H 0.37077 0.46382 0.37857 0.0
H2172 H 0.35052 0.43452 0.36625 0.0
C2173 C 0.29313 0.39805 0.32493 0.0
C2174 C 0.32845 0.44752 0.32932 0.0
C2175 C 0.27558 0.3853 0.31515 0.0
C2176 C 0.41102 0.48004 0.38062 0.0
C2177 C 0.38661 0.47023 0.37314 0.0
C2178 C 0.34428 0.43849 0.35606 0.0
C2179 C 0.29494 0.41583 0.32467 0.0
C2180 C 0.31541 0.42993 0.33413 0.0
C2181 C 0.38292 0.46817 0.35887 0.0
C2182 C 0.35806 0.45576 0.35098 0.0
H2183 H 0.24855 0.4118 0.29711 0.0
H2184 H 0.27862 0.43378 0.31429 0.0
H2185 H 0.31334 0.4124 0.35185 0.0
H2186 H 0.44413 0.49217 0.35424 0.0
H2187 H 0.40189 0.47537 0.34125 0.0
C2188 C 0.55783 0.51978 0.61529 0.0
C2189 C 0.53493 0.5081 0.61954 0.0
C2190 C 0.57846 0.531 0.62482 0.0
C2191 C 0.60911 0.56207 0.64526 0.0
H2192 H 0.62274 0.54661 0.68264 0.0
C2193 C 0.65923 0.61249 0.69031 0.0
C2194 C 0.67557 0.60869 0.70109 0.0
C2195 C 0.64499 0.59993 0.67978 0.0
C2196 C 0.61952 0.55116 0.67221 0.0
H2197 H 0.51609 0.49827 0.63706 0.0
H2198 H 0.55173 0.51771 0.65355 0.0
H2199 H 0.5942 0.52434 0.66526 0.0
H2200 H 0.69008 0.58877 0.70907 0.0
H2201 H 0.66561 0.56708 0.69065 0.0
H2202 H 0.63455 0.58891 0.65223 0.0
C2203 C 0.55404 0.51823 0.64298 0.0
C2204 C 0.60293 0.53839 0.66227 0.0
C2205 C 0.53352 0.50714 0.6335 0.0
C2206 C 0.67754 0.59212 0.701 0.0
C2207 C 0.66342 0.57962 0.69044 0.0
C2208 C 0.62584 0.57486 0.65521 0.0
C2209 C 0.57658 0.53058 0.63874 0.0
C2210 C 0.59704 0.54374 0.64875 0.0
C2211 C 0.64685 0.58331 0.67974 0.0
C2212 C 0.63082 0.56961 0.66887 0.0
H2213 H 0.5594 0.52088 0.60456 0.0
H2214 H 0.59567 0.54026 0.62125 0.0
H2215 H 0.60484 0.56668 0.63497 0.0
H2216 H 0.65718 0.62509 0.69007 0.0
H2217 H 0.63209 0.60311 0.67183 0.0
C2218 C 0.18581 0.7335 0.85208 0.0
C2219 C 0.20299 0.74142 0.86404 0.0
C2220 C 0.17358 0.74302 0.84378 0.0
C2221 C 0.16622 0.7867 0.83952 0.0
H2222 H 0.17599 0.78259 0.80277 0.0
C2223 C 0.18113 0.84326 0.79839 0.0
C2224 C 0.1742 0.83797 0.78459 0.0
C2225 C 0.17718 0.83017 0.80874 0.0
C2226 C 0.17244 0.78372 0.81285 0.0
H2227 H 0.21958 0.76486 0.87732 0.0
H2228 H 0.19898 0.78186 0.8626 0.0
H2229 H 0.18112 0.76144 0.82001 0.0
H2230 H 0.15594 0.81524 0.77064 0.0
H2231 H 0.14756 0.7924 0.78857 0.0
H2232 H 0.15851 0.80963 0.83223 0.0
C2233 C 0.19427 0.76812 0.85975 0.0
C2234 C 0.17539 0.77148 0.82282 0.0
C2235 C 0.20606 0.75837 0.86823 0.0
C2236 C 0.16149 0.81957 0.78124 0.0
C2237 C 0.15696 0.80653 0.79153 0.0
C2238 C 0.16319 0.79903 0.82945 0.0
C2239 C 0.17903 0.76093 0.84705 0.0
C2240 C 0.1726 0.77286 0.83633 0.0
C2241 C 0.16593 0.81162 0.8054 0.0
C2242 C 0.16653 0.79777 0.81601 0.0
H2243 H 0.18326 0.72046 0.84864 0.0
H2244 H 0.16136 0.73686 0.83427 0.0
H2245 H 0.16391 0.78814 0.84983 0.0
H2246 H 0.1913 0.85744 0.80116 0.0
H2247 H 0.18449 0.83462 0.81929 0.0
C2248 C 0.70096 0.11042 0.18982 0.0
C2249 C 0.6997 0.10589 0.20363 0.0
C2250 C 0.68844 0.09708 0.17966 0.0
C2251 C 0.65109 0.04662 0.17459 0.0
H2252 H 0.61831 0.06173 0.14151 0.0
C2253 C 0.55098 0.00773 0.14436 0.0
C2254 C 0.54676 0.00998 0.1301 0.0
C2255 C 0.57562 0.01536 0.15194 0.0
C2256 C 0.62779 0.0573 0.15053 0.0
H2257 H 0.68467 0.08392 0.21769 0.0
H2258 H 0.6616 0.06099 0.20009 0.0
H2259 H 0.65005 0.08437 0.15756 0.0
H2260 H 0.56502 0.02017 0.11241 0.0
H2261 H 0.60809 0.03391 0.12572 0.0
H2262 H 0.62655 0.01937 0.16794 0.0
C2263 C 0.67305 0.07456 0.19697 0.0
C2264 C 0.64613 0.07033 0.1598 0.0
C2265 C 0.6861 0.08778 0.20712 0.0
C2266 C 0.56776 0.01812 0.12339 0.0
C2267 C 0.59239 0.0261 0.131 0.0
C2268 C 0.63225 0.03356 0.16544 0.0
C2269 C 0.67377 0.07901 0.18305 0.0
C2270 C 0.6575 0.0652 0.17219 0.0
C2271 C 0.59631 0.02563 0.14537 0.0
C2272 C 0.61999 0.03881 0.1535 0.0
H2273 H 0.71165 0.12426 0.18689 0.0
H2274 H 0.69004 0.10104 0.16913 0.0
H2275 H 0.65991 0.04207 0.18379 0.0
H2276 H 0.53507 0.00154 0.14976 0.0
H2277 H 0.5781 0.01486 0.16301 0.0
C2278 C 0.41455 0.97801 0.87836 0.0
C2279 C 0.43584 0.99056 0.87312 0.0
C2280 C 0.39242 0.96728 0.86951 0.0
C2281 C 0.35552 0.96205 0.83502 0.0
H2282 H 0.34023 0.91102 0.83927 0.0
C2283 C 0.28723 0.91035 0.79317 0.0
C2284 C 0.27331 0.89239 0.79687 0.0
C2285 C 0.3056 0.92275 0.80288 0.0
C2286 C 0.34367 0.92512 0.83804 0.0
H2287 H 0.45012 0.00259 0.85459 0.0
H2288 H 0.41089 0.98433 0.83909 0.0
H2289 H 0.37321 0.93265 0.85571 0.0
H2290 H 0.26709 0.87338 0.81368 0.0
H2291 H 0.29805 0.89517 0.83083 0.0
H2292 H 0.32544 0.95465 0.81768 0.0
C2293 C 0.41154 0.98266 0.85005 0.0
C2294 C 0.36279 0.93755 0.84746 0.0
C2295 C 0.43391 0.99311 0.85889 0.0
C2296 C 0.27782 0.88711 0.81052 0.0
C2297 C 0.29573 0.89964 0.82033 0.0
C2298 C 0.33589 0.94958 0.82578 0.0
C2299 C 0.39096 0.96922 0.85528 0.0
C2300 C 0.36915 0.95613 0.84592 0.0
C2301 C 0.31007 0.91765 0.81665 0.0
C2302 C 0.32994 0.93092 0.827 0.0
H2303 H 0.41559 0.97553 0.88927 0.0
H2304 H 0.37676 0.957 0.87377 0.0
H2305 H 0.36001 0.97633 0.83368 0.0
H2306 H 0.28427 0.91475 0.78267 0.0
H2307 H 0.31654 0.93627 0.79946 0.0
C2308 C 0.81531 0.72144 0.61909 0.0
C2309 C 0.814 0.73778 0.62131 0.0
C2310 C 0.82138 0.71148 0.6302 0.0
C2311 C 0.8095 0.68828 0.6558 0.0
H2312 H 0.85513 0.71033 0.6894 0.0
C2313 C 0.79845 0.6838 0.71347 0.0
C2314 C 0.78577 0.66504 0.71504 0.0
C2315 C 0.81248 0.69088 0.70298 0.0
C2316 C 0.84252 0.70387 0.68006 0.0
H2317 H 0.81989 0.75722 0.63667 0.0
H2318 H 0.83063 0.74003 0.65597 0.0
H2319 H 0.86042 0.72702 0.66791 0.0
H2320 H 0.77926 0.63891 0.70767 0.0
H2321 H 0.80369 0.65132 0.68908 0.0
H2322 H 0.79035 0.66572 0.66805 0.0
C2323 C 0.82701 0.73482 0.64573 0.0
C2324 C 0.84553 0.71342 0.66777 0.0
C2325 C 0.82063 0.74461 0.63468 0.0
C2326 C 0.78914 0.65345 0.70672 0.0
C2327 C 0.80291 0.66055 0.69603 0.0
C2328 C 0.80643 0.67874 0.6681 0.0
C2329 C 0.82665 0.71787 0.64367 0.0
C2330 C 0.82821 0.7061 0.65565 0.0
C2331 C 0.81375 0.67933 0.69369 0.0
C2332 C 0.82204 0.68684 0.68048 0.0
H2333 H 0.81023 0.71585 0.60888 0.0
H2334 H 0.82102 0.69848 0.62831 0.0
H2335 H 0.79575 0.68229 0.64666 0.0
H2336 H 0.79598 0.69297 0.71973 0.0
H2337 H 0.82032 0.70538 0.70143 0.0
C2338 C 0.15689 0.32061 0.28541 0.0
C2339 C 0.16309 0.33913 0.28617 0.0
C2340 C 0.15157 0.30961 0.29685 0.0
C2341 C 0.13799 0.28753 0.32211 0.0
H2342 H 0.19654 0.3085 0.35098 0.0
C2343 C 0.20391 0.2659 0.36999 0.0
C2344 C 0.20815 0.25416 0.36224 0.0
C2345 C 0.18876 0.27479 0.36383 0.0
C2346 C 0.17959 0.30249 0.34328 0.0
H2347 H 0.167 0.36056 0.29916 0.0
H2348 H 0.15802 0.34126 0.31941 0.0
H2349 H 0.18603 0.32798 0.3335 0.0
H2350 H 0.19856 0.24136 0.34247 0.0
H2351 H 0.17175 0.25638 0.33185 0.0
H2352 H 0.13289 0.26186 0.3313 0.0
C2353 C 0.15709 0.33525 0.30989 0.0
C2354 C 0.17354 0.31368 0.33323 0.0
C2355 C 0.16205 0.34625 0.2983 0.0
C2356 C 0.19551 0.25035 0.34864 0.0
C2357 C 0.18001 0.25888 0.3426 0.0
C2358 C 0.14407 0.27635 0.33214 0.0
C2359 C 0.15269 0.31694 0.3094 0.0
C2360 C 0.15361 0.30618 0.32209 0.0
C2361 C 0.17722 0.27171 0.34995 0.0
C2362 C 0.16584 0.28361 0.34234 0.0
H2363 H 0.15766 0.31484 0.27617 0.0
H2364 H 0.14862 0.29565 0.29613 0.0
H2365 H 0.12222 0.28141 0.31379 0.0
H2366 H 0.2137 0.26915 0.38047 0.0
H2367 H 0.18696 0.28465 0.36971 0.0
loop_
_geom_bond_atom_site_label_1
_geom_bond_atom_site_label_2
_geom_bond_distance
_geom_bond_site_symmetry_2
_ccdc_geom_bond_type
Mg0 O1 2.028 . S
Mg0 O7 1.986 . S
Mg0 O9 2.114 1_455 S
Mg0 O10 2.251 . S
Mg0 O13 2.010 1_455 S
O1 Mg0 2.028 . S
O1 C4 1.250 . S
O2 Mg3 2.028 . S
O2 C4 1.248 . S
Mg3 O2 2.028 . S
Mg3 O8 2.032 . S
Mg3 O10 2.079 . S
C4 O1 1.250 . S
C4 O2 1.248 . S
C5 O6 1.264 1_545 S
C5 O13 1.249 . S
O6 C5 1.264 1_565 S
O7 Mg0 1.986 . S
O7 C11 1.246 . S
O8 Mg3 2.032 . S
O8 C11 1.259 . S
O9 Mg0 2.114 1_655 S
O9 C12 1.252 . S
O10 Mg0 2.251 . S
O10 Mg3 2.079 . S
O10 C12 1.273 1_455 S
C11 O7 1.246 . S
C11 O8 1.259 . S
C12 O9 1.252 . S
C12 O10 1.273 1_655 S
O13 Mg0 2.010 1_655 S
O13 C5 1.249 . S
Mg14 O15 2.028 1_455 S
Mg14 O21 1.986 1_455 S
Mg14 O23 2.114 . S
Mg14 O24 2.251 . S
Mg14 O27 2.010 . S
O15 Mg14 2.028 1_655 S
O15 C18 1.250 . S
O16 Mg17 2.028 . S
O16 C18 1.248 . S
Mg17 O16 2.028 . S
Mg17 O22 2.032 . S
Mg17 O24 2.079 1_655 S
C18 O15 1.250 . S
C18 O16 1.248 . S
C19 O20 1.264 . S
C19 O27 1.249 . S
O20 C19 1.264 . S
O21 Mg14 1.986 1_655 S
O21 C25 1.246 . S
O22 Mg17 2.032 . S
O22 C25 1.259 . S
O23 Mg14 2.114 . S
O23 C26 1.252 . S
O24 Mg14 2.251 . S
O24 Mg17 2.079 1_455 S
O24 C26 1.273 . S
C25 O21 1.246 . S
C25 O22 1.259 . S
C26 O23 1.252 . S
C26 O24 1.273 . S
O27 Mg14 2.010 . S
O27 C19 1.249 . S
Mg28 O29 2.028 . S
Mg28 O35 1.986 . S
Mg28 O37 2.114 . S
Mg28 O38 2.251 . S
Mg28 O41 2.010 . S
O29 Mg28 2.028 . S
O29 C32 1.250 . S
O30 Mg31 2.028 . S
O30 C32 1.248 . S
Mg31 O30 2.028 . S
Mg31 O36 2.032 . S
Mg31 O38 2.079 . S
C32 O29 1.250 . S
C32 O30 1.248 . S
C33 O34 1.264 . S
C33 O41 1.249 . S
O34 C33 1.264 . S
O35 Mg28 1.986 . S
O35 C39 1.246 . S
O36 Mg31 2.032 . S
O36 C39 1.259 . S
O37 Mg28 2.114 . S
O37 C40 1.252 . S
O38 Mg28 2.251 . S
O38 Mg31 2.079 . S
O38 C40 1.273 . S
C39 O35 1.246 . S
C39 O36 1.259 . S
C40 O37 1.252 . S
C40 O38 1.273 . S
O41 Mg28 2.010 . S
O41 C33 1.249 . S
Mg42 O43 2.028 . S
Mg42 O49 1.986 . S
Mg42 O51 2.114 . S
Mg42 O52 2.251 . S
Mg42 O55 2.010 . S
O43 Mg42 2.028 . S
O43 C46 1.250 . S
O44 Mg45 2.028 . S
O44 C46 1.248 . S
Mg45 O44 2.028 . S
Mg45 O50 2.032 . S
Mg45 O52 2.079 . S
C46 O43 1.250 . S
C46 O44 1.248 . S
C47 O48 1.264 . S
C47 O55 1.249 . S
O48 C47 1.264 . S
O49 Mg42 1.986 . S
O49 C53 1.246 . S
O50 Mg45 2.032 . S
O50 C53 1.259 . S
O51 Mg42 2.114 . S
O51 C54 1.252 . S
O52 Mg42 2.251 . S
O52 Mg45 2.079 . S
O52 C54 1.273 . S
C53 O49 1.246 . S
C53 O50 1.259 . S
C54 O51 1.252 . S
C54 O52 1.273 . S
O55 Mg42 2.010 . S
O55 C47 1.249 . S
Mg56 O57 2.028 1_655 S
Mg56 O63 1.986 1_655 S
Mg56 O65 2.114 . S
Mg56 O66 2.251 . S
Mg56 O69 2.010 . S
O57 Mg56 2.028 1_455 S
O57 C60 1.250 . S
O58 Mg59 2.028 . S
O58 C60 1.248 . S
Mg59 O58 2.028 . S
Mg59 O64 2.032 . S
Mg59 O66 2.079 1_455 S
C60 O57 1.250 . S
C60 O58 1.248 . S
C61 O62 1.264 . S
C61 O69 1.249 . S
O62 C61 1.264 . S
O63 Mg56 1.986 1_455 S
O63 C67 1.246 . S
O64 Mg59 2.032 . S
O64 C67 1.259 . S
O65 Mg56 2.114 . S
O65 C68 1.252 . S
O66 Mg56 2.251 . S
O66 Mg59 2.079 1_655 S
O66 C68 1.273 . S
C67 O63 1.246 . S
C67 O64 1.259 . S
C68 O65 1.252 . S
C68 O66 1.273 . S
O69 Mg56 2.010 . S
O69 C61 1.249 . S
Mg70 O71 2.028 . S
Mg70 O77 1.986 . S
Mg70 O79 2.114 . S
Mg70 O80 2.251 . S
Mg70 O83 2.010 . S
O71 Mg70 2.028 . S
O71 C74 1.250 . S
O72 Mg73 2.028 . S
O72 C74 1.248 . S
Mg73 O72 2.028 . S
Mg73 O78 2.032 . S
Mg73 O80 2.079 . S
C74 O71 1.250 . S
C74 O72 1.248 . S
C75 O76 1.264 . S
C75 O83 1.249 . S
O76 C75 1.264 . S
O77 Mg70 1.986 . S
O77 C81 1.246 . S
O78 Mg73 2.032 . S
O78 C81 1.259 . S
O79 Mg70 2.114 . S
O79 C82 1.252 . S
O80 Mg70 2.251 . S
O80 Mg73 2.079 . S
O80 C82 1.273 . S
C81 O77 1.246 . S
C81 O78 1.259 . S
C82 O79 1.252 . S
C82 O80 1.273 . S
O83 Mg70 2.010 . S
O83 C75 1.249 . S
Mg84 O85 2.028 . S
Mg84 O91 1.986 . S
Mg84 O93 2.114 . S
Mg84 O94 2.251 . S
Mg84 O97 2.010 . S
O85 Mg84 2.028 . S
O85 C88 1.250 . S
O86 Mg87 2.028 . S
O86 C88 1.248 . S
Mg87 O86 2.028 . S
Mg87 O92 2.032 . S
Mg87 O94 2.079 . S
C88 O85 1.250 . S
C88 O86 1.248 . S
C89 O90 1.264 . S
C89 O97 1.249 . S
O90 C89 1.264 . S
O91 Mg84 1.986 . S
O91 C95 1.246 . S
O92 Mg87 2.032 . S
O92 C95 1.259 . S
O93 Mg84 2.114 . S
O93 C96 1.252 . S
O94 Mg84 2.251 . S
O94 Mg87 2.079 . S
O94 C96 1.273 . S
C95 O91 1.246 . S
C95 O92 1.259 . S
C96 O93 1.252 . S
C96 O94 1.273 . S
O97 Mg84 2.010 . S
O97 C89 1.249 . S
Mg98 O99 2.028 . S
Mg98 O105 1.986 1_655 S
Mg98 O107 2.114 . S
Mg98 O108 2.251 . S
Mg98 O111 2.010 1_655 S
O99 Mg98 2.028 . S
O99 C102 1.250 . S
O100 Mg101 2.028 . S
O100 C102 1.248 . S
Mg101 O100 2.028 . S
Mg101 O106 2.017 1_655 S
Mg101 O108 2.079 . S
C102 O99 1.250 . S
C102 O100 1.248 . S
C103 O104 1.264 1_565 S
C103 O111 1.249 . S
O104 C103 1.264 1_545 S
O105 Mg98 1.986 1_455 S
O105 C109 1.246 . S
O106 Mg101 2.017 1_455 S
O106 C109 1.267 . S
O107 Mg98 2.114 . S
O107 C110 1.252 . S
O108 Mg98 2.251 . S
O108 Mg101 2.079 . S
O108 C110 1.273 . S
C109 O105 1.246 . S
C109 O106 1.267 . S
C110 O107 1.252 . S
C110 O108 1.273 . S
O111 Mg98 2.010 1_455 S
O111 C103 1.249 . S
Mg112 O113 2.028 . S
Mg112 O119 1.986 . S
Mg112 O121 2.114 . S
Mg112 O122 2.251 . S
Mg112 O125 2.010 . S
O113 Mg112 2.028 . S
O113 C116 1.250 . S
O114 Mg115 2.028 . S
O114 C116 1.248 . S
Mg115 O114 2.028 . S
Mg115 O120 2.032 . S
Mg115 O122 2.079 . S
C116 O113 1.250 . S
C116 O114 1.248 . S
C117 O118 1.264 1_545 S
C117 O125 1.249 . S
O118 C117 1.264 1_565 S
O119 Mg112 1.986 . S
O119 C123 1.246 . S
O120 Mg115 2.032 . S
O120 C123 1.259 . S
O121 Mg112 2.114 . S
O121 C124 1.252 . S
O122 Mg112 2.251 . S
O122 Mg115 2.079 . S
O122 C124 1.273 . S
C123 O119 1.246 . S
C123 O120 1.259 . S
C124 O121 1.252 . S
C124 O122 1.273 . S
O125 Mg112 2.010 . S
O125 C117 1.249 . S
Mg126 O127 2.028 1_455 S
Mg126 O133 1.986 1_455 S
Mg126 O135 2.114 . S
Mg126 O136 2.251 . S
Mg126 O139 2.010 . S
O127 Mg126 2.028 1_655 S
O127 C130 1.250 . S
O128 Mg129 2.028 . S
O128 C130 1.248 . S
Mg129 O128 2.028 . S
Mg129 O134 2.032 . S
Mg129 O136 2.079 1_655 S
C130 O127 1.250 . S
C130 O128 1.248 . S
C131 O132 1.264 . S
C131 O139 1.249 . S
O132 C131 1.264 . S
O133 Mg126 1.986 1_655 S
O133 C137 1.246 . S
O134 Mg129 2.032 . S
O134 C137 1.259 . S
O135 Mg126 2.114 . S
O135 C138 1.252 . S
O136 Mg126 2.251 . S
O136 Mg129 2.079 1_455 S
O136 C138 1.273 . S
C137 O133 1.246 . S
C137 O134 1.259 . S
C138 O135 1.252 . S
C138 O136 1.273 . S
O139 Mg126 2.010 . S
O139 C131 1.249 . S
Mg140 O141 2.028 . S
Mg140 O147 1.986 . S
Mg140 O149 2.114 . S
Mg140 O150 2.251 . S
Mg140 O153 2.010 . S
O141 Mg140 2.028 . S
O141 C144 1.250 . S
O142 Mg143 2.028 . S
O142 C144 1.248 . S
Mg143 O142 2.028 . S
Mg143 O148 2.032 . S
Mg143 O150 2.079 . S
C144 O141 1.250 . S
C144 O142 1.248 . S
C145 O146 1.264 . S
C145 O153 1.249 . S
O146 C145 1.264 . S
O147 Mg140 1.986 . S
O147 C151 1.246 . S
O148 Mg143 2.032 . S
O148 C151 1.259 . S
O149 Mg140 2.114 . S
O149 C152 1.252 . S
O150 Mg140 2.251 . S
O150 Mg143 2.079 . S
O150 C152 1.273 . S
C151 O147 1.246 . S
C151 O148 1.259 . S
C152 O149 1.252 . S
C152 O150 1.273 . S
O153 Mg140 2.010 . S
O153 C145 1.249 . S
Mg154 O155 2.028 . S
Mg154 O161 1.986 . S
Mg154 O163 2.114 . S
Mg154 O164 2.251 . S
Mg154 O167 2.010 . S
O155 Mg154 2.028 . S
O155 C158 1.250 . S
O156 Mg157 2.028 . S
O156 C158 1.248 . S
Mg157 O156 2.028 . S
Mg157 O162 2.032 . S
Mg157 O164 2.079 . S
C158 O155 1.250 . S
C158 O156 1.248 . S
C159 O160 1.264 . S
C159 O167 1.249 . S
O160 C159 1.264 . S
O161 Mg154 1.986 . S
O161 C165 1.246 . S
O162 Mg157 2.032 . S
O162 C165 1.259 . S
O163 Mg154 2.114 . S
O163 C166 1.252 . S
O164 Mg154 2.251 . S
O164 Mg157 2.079 . S
O164 C166 1.273 . S
C165 O161 1.246 . S
C165 O162 1.259 . S
C166 O163 1.252 . S
C166 O164 1.273 . S
O167 Mg154 2.010 . S
O167 C159 1.249 . S
Mg168 O169 2.028 . S
Mg168 O175 1.986 . S
Mg168 O177 2.114 . S
Mg168 O178 2.251 . S
Mg168 O181 2.010 . S
O169 Mg168 2.028 . S
O169 C172 1.250 . S
O170 Mg171 2.028 . S
O170 C172 1.248 . S
Mg171 O170 2.028 . S
Mg171 O176 2.032 . S
Mg171 O178 2.079 . S
C172 O169 1.250 . S
C172 O170 1.248 . S
C173 O174 1.264 . S
C173 O181 1.249 . S
O174 C173 1.264 . S
O175 Mg168 1.986 . S
O175 C179 1.246 . S
O176 Mg171 2.032 . S
O176 C179 1.259 . S
O177 Mg168 2.114 . S
O177 C180 1.252 . S
O178 Mg168 2.251 . S
O178 Mg171 2.079 . S
O178 C180 1.273 . S
C179 O175 1.246 . S
C179 O176 1.259 . S
C180 O177 1.252 . S
C180 O178 1.273 . S
O181 Mg168 2.010 . S
O181 C173 1.249 . S
Mg182 O183 2.028 . S
Mg182 O189 1.986 . S
Mg182 O191 2.114 . S
Mg182 O192 2.251 . S
Mg182 O195 2.010 . S
O183 Mg182 2.028 . S
O183 C186 1.250 . S
O184 Mg185 2.028 . S
O184 C186 1.248 . S
Mg185 O184 2.028 . S
Mg185 O190 2.032 . S
Mg185 O192 2.079 . S
C186 O183 1.250 . S
C186 O184 1.248 . S
C187 O188 1.264 . S
C187 O195 1.249 . S
O188 C187 1.264 . S
O189 Mg182 1.986 . S
O189 C193 1.246 . S
O190 Mg185 2.032 . S
O190 C193 1.259 . S
O191 Mg182 2.114 . S
O191 C194 1.252 . S
O192 Mg182 2.251 . S
O192 Mg185 2.079 . S
O192 C194 1.273 . S
C193 O189 1.246 . S
C193 O190 1.259 . S
C194 O191 1.252 . S
C194 O192 1.273 . S
O195 Mg182 2.010 . S
O195 C187 1.249 . S
Mg196 O197 2.028 . S
Mg196 O203 1.986 . S
Mg196 O205 2.114 . S
Mg196 O206 2.251 . S
Mg196 O209 2.010 . S
O197 Mg196 2.028 . S
O197 C200 1.250 . S
O198 Mg199 2.028 . S
O198 C200 1.248 . S
Mg199 O198 2.028 . S
Mg199 O204 2.032 . S
Mg199 O206 2.079 . S
C200 O197 1.250 . S
C200 O198 1.248 . S
C201 O202 1.264 . S
C201 O209 1.249 . S
O202 C201 1.264 . S
O203 Mg196 1.986 . S
O203 C207 1.246 . S
O204 Mg199 2.032 . S
O204 C207 1.259 . S
O205 Mg196 2.114 . S
O205 C208 1.252 . S
O206 Mg196 2.251 . S
O206 Mg199 2.079 . S
O206 C208 1.273 . S
C207 O203 1.246 . S
C207 O204 1.259 . S
C208 O205 1.252 . S
C208 O206 1.273 . S
O209 Mg196 2.010 . S
O209 C201 1.249 . S
Mg210 O211 2.028 . S
Mg210 O217 1.986 1_655 S
Mg210 O219 2.114 . S
Mg210 O220 2.251 . S
Mg210 O223 2.010 1_655 S
O211 Mg210 2.028 . S
O211 C214 1.250 . S
O212 Mg213 2.028 . S
O212 C214 1.248 . S
Mg213 O212 2.028 . S
Mg213 O218 2.020 1_655 S
Mg213 O220 2.079 . S
C214 O211 1.250 . S
C214 O212 1.248 . S
C215 O216 1.264 . S
C215 O223 1.249 . S
O216 C215 1.264 . S
O217 Mg210 1.986 1_455 S
O217 C221 1.246 . S
O218 Mg213 2.020 1_455 S
O218 C221 1.266 . S
O219 Mg210 2.114 . S
O219 C222 1.252 . S
O220 Mg210 2.251 . S
O220 Mg213 2.079 . S
O220 C222 1.273 . S
C221 O217 1.246 . S
C221 O218 1.266 . S
C222 O219 1.252 . S
C222 O220 1.273 . S
O223 Mg210 2.010 1_455 S
O223 C215 1.249 . S
Mg224 O225 2.028 . S
Mg224 O231 1.986 . S
Mg224 O233 2.114 1_455 S
Mg224 O234 2.251 . S
Mg224 O237 2.010 1_455 S
O225 Mg224 2.028 . S
O225 C228 1.250 . S
O226 Mg227 2.028 . S
O226 C228 1.248 . S
Mg227 O226 2.028 . S
Mg227 O232 2.032 . S
Mg227 O234 2.079 . S
C228 O225 1.250 . S
C228 O226 1.248 . S
C229 O230 1.264 . S
C229 O237 1.249 . S
O230 C229 1.264 . S
O231 Mg224 1.986 . S
O231 C235 1.246 . S
O232 Mg227 2.032 . S
O232 C235 1.259 . S
O233 Mg224 2.114 1_655 S
O233 C236 1.252 . S
O234 Mg224 2.251 . S
O234 Mg227 2.079 . S
O234 C236 1.273 1_455 S
C235 O231 1.246 . S
C235 O232 1.259 . S
C236 O233 1.252 . S
C236 O234 1.273 1_655 S
O237 Mg224 2.010 1_655 S
O237 C229 1.249 . S
Mg238 O239 2.028 . S
Mg238 O245 1.986 . S
Mg238 O247 2.114 . S
Mg238 O248 2.251 . S
Mg238 O251 2.010 . S
O239 Mg238 2.028 . S
O239 C242 1.250 . S
O240 Mg241 2.028 . S
O240 C242 1.248 . S
Mg241 O240 2.028 . S
Mg241 O246 2.032 . S
Mg241 O248 2.079 . S
C242 O239 1.250 . S
C242 O240 1.248 . S
C243 O244 1.264 . S
C243 O251 1.249 . S
O244 C243 1.264 . S
O245 Mg238 1.986 . S
O245 C249 1.246 . S
O246 Mg241 2.032 . S
O246 C249 1.259 . S
O247 Mg238 2.114 . S
O247 C250 1.252 . S
O248 Mg238 2.251 . S
O248 Mg241 2.079 . S
O248 C250 1.273 . S
C249 O245 1.246 . S
C249 O246 1.259 . S
C250 O247 1.252 . S
C250 O248 1.273 . S
O251 Mg238 2.010 . S
O251 C243 1.249 . S
Mg252 O253 2.028 . S
Mg252 O259 1.986 . S
Mg252 O261 2.114 . S
Mg252 O262 2.251 . S
Mg252 O265 2.010 . S
O253 Mg252 2.028 . S
O253 C256 1.250 . S
O254 Mg255 2.028 . S
O254 C256 1.248 . S
Mg255 O254 2.028 . S
Mg255 O260 2.032 . S
Mg255 O262 2.079 . S
C256 O253 1.250 . S
C256 O254 1.248 . S
C257 O258 1.264 . S
C257 O265 1.249 . S
O258 C257 1.264 . S
O259 Mg252 1.986 . S
O259 C263 1.246 . S
O260 Mg255 2.032 . S
O260 C263 1.259 . S
O261 Mg252 2.114 . S
O261 C264 1.252 . S
O262 Mg252 2.251 . S
O262 Mg255 2.079 . S
O262 C264 1.273 . S
C263 O259 1.246 . S
C263 O260 1.259 . S
C264 O261 1.252 . S
C264 O262 1.273 . S
O265 Mg252 2.010 . S
O265 C257 1.249 . S
Mg266 O267 2.028 1_655 S
Mg266 O273 1.986 1_655 S
Mg266 O275 2.114 . S
Mg266 O276 2.251 . S
Mg266 O279 2.010 . S
O267 Mg266 2.028 1_455 S
O267 C270 1.250 . S
O268 Mg269 2.028 . S
O268 C270 1.248 . S
Mg269 O268 2.028 . S
Mg269 O274 2.032 . S
Mg269 O276 2.079 1_455 S
C270 O267 1.250 . S
C270 O268 1.248 . S
C271 O272 1.264 . S
C271 O279 1.249 . S
O272 C271 1.264 . S
O273 Mg266 1.986 1_455 S
O273 C277 1.246 . S
O274 Mg269 2.032 . S
O274 C277 1.259 . S
O275 Mg266 2.114 . S
O275 C278 1.252 . S
O276 Mg266 2.251 . S
O276 Mg269 2.079 1_655 S
O276 C278 1.273 . S
C277 O273 1.246 . S
C277 O274 1.259 . S
C278 O275 1.252 . S
C278 O276 1.273 . S
O279 Mg266 2.010 . S
O279 C271 1.249 . S
Mg280 O281 2.028 . S
Mg280 O287 1.986 . S
Mg280 O289 2.114 . S
Mg280 O290 2.251 . S
Mg280 O293 2.010 . S
O281 Mg280 2.028 . S
O281 C284 1.250 . S
O282 Mg283 2.028 . S
O282 C284 1.248 . S
Mg283 O282 2.028 . S
Mg283 O288 2.032 . S
Mg283 O290 2.079 . S
C284 O281 1.250 . S
C284 O282 1.248 . S
C285 O286 1.264 . S
C285 O293 1.249 . S
O286 C285 1.264 . S
O287 Mg280 1.986 . S
O287 C291 1.246 . S
O288 Mg283 2.032 . S
O288 C291 1.259 . S
O289 Mg280 2.114 . S
O289 C292 1.252 . S
O290 Mg280 2.251 . S
O290 Mg283 2.079 . S
O290 C292 1.273 . S
C291 O287 1.246 . S
C291 O288 1.259 . S
C292 O289 1.252 . S
C292 O290 1.273 . S
O293 Mg280 2.010 . S
O293 C285 1.249 . S
Mg294 O295 2.028 . S
Mg294 O301 1.986 . S
Mg294 O303 2.114 . S
Mg294 O304 2.251 . S
Mg294 O307 2.010 . S
O295 Mg294 2.028 . S
O295 C298 1.250 . S
O296 Mg297 2.028 . S
O296 C298 1.248 . S
Mg297 O296 2.028 . S
Mg297 O302 2.032 . S
Mg297 O304 2.079 . S
C298 O295 1.250 . S
C298 O296 1.248 . S
C299 O300 1.264 . S
C299 O307 1.249 . S
O300 C299 1.264 . S
O301 Mg294 1.986 . S
O301 C305 1.246 . S
O302 Mg297 2.032 . S
O302 C305 1.259 . S
O303 Mg294 2.114 . S
O303 C306 1.252 . S
O304 Mg294 2.251 . S
O304 Mg297 2.079 . S
O304 C306 1.273 . S
C305 O301 1.246 . S
C305 O302 1.259 . S
C306 O303 1.252 . S
C306 O304 1.273 . S
O307 Mg294 2.010 . S
O307 C299 1.249 . S
Mg308 O309 2.028 . S
Mg308 O315 1.986 . S
Mg308 O317 2.114 . S
Mg308 O318 2.251 . S
Mg308 O321 2.010 . S
O309 Mg308 2.028 . S
O309 C312 1.250 . S
O310 Mg311 2.028 . S
O310 C312 1.248 . S
Mg311 O310 2.028 . S
Mg311 O316 2.032 . S
Mg311 O318 2.079 . S
C312 O309 1.250 . S
C312 O310 1.248 . S
C313 O314 1.264 1_565 S
C313 O321 1.249 . S
O314 C313 1.264 1_545 S
O315 Mg308 1.986 . S
O315 C319 1.246 . S
O316 Mg311 2.032 . S
O316 C319 1.259 . S
O317 Mg308 2.114 . S
O317 C320 1.252 . S
O318 Mg308 2.251 . S
O318 Mg311 2.079 . S
O318 C320 1.273 . S
C319 O315 1.246 . S
C319 O316 1.259 . S
C320 O317 1.252 . S
C320 O318 1.273 . S
O321 Mg308 2.010 . S
O321 C313 1.249 . S
Mg322 O323 2.028 . S
Mg322 O329 1.986 . S
Mg322 O331 2.114 . S
Mg322 O332 2.251 . S
Mg322 O335 2.010 . S
O323 Mg322 2.028 . S
O323 C326 1.250 . S
O324 Mg325 2.028 . S
O324 C326 1.248 . S
Mg325 O324 2.028 . S
Mg325 O330 2.032 . S
Mg325 O332 2.079 . S
C326 O323 1.250 . S
C326 O324 1.248 . S
C327 O328 1.264 . S
C327 O335 1.249 . S
O328 C327 1.264 . S
O329 Mg322 1.986 . S
O329 C333 1.246 . S
O330 Mg325 2.032 . S
O330 C333 1.259 . S
O331 Mg322 2.114 . S
O331 C334 1.252 . S
O332 Mg322 2.251 . S
O332 Mg325 2.079 . S
O332 C334 1.273 . S
C333 O329 1.246 . S
C333 O330 1.259 . S
C334 O331 1.252 . S
C334 O332 1.273 . S
O335 Mg322 2.010 . S
O335 C327 1.249 . S
Mg336 O337 2.028 . S
Mg336 O343 1.986 . S
Mg336 O345 2.114 . S
Mg336 O346 2.251 . S
Mg336 O349 2.010 . S
O337 Mg336 2.028 . S
O337 C340 1.250 . S
O338 Mg339 2.028 . S
O338 C340 1.248 . S
Mg339 O338 2.028 . S
Mg339 O344 2.032 . S
Mg339 O346 2.079 . S
C340 O337 1.250 . S
C340 O338 1.248 . S
C341 O342 1.264 . S
C341 O349 1.249 . S
O342 C341 1.264 . S
O343 Mg336 1.986 . S
O343 C347 1.246 . S
O344 Mg339 2.032 . S
O344 C347 1.259 . S
O345 Mg336 2.114 . S
O345 C348 1.252 . S
O346 Mg336 2.251 . S
O346 Mg339 2.079 . S
O346 C348 1.273 . S
C347 O343 1.246 . S
C347 O344 1.259 . S
C348 O345 1.252 . S
C348 O346 1.273 . S
O349 Mg336 2.010 . S
O349 C341 1.249 . S
Mg350 O351 2.028 . S
Mg350 O357 1.986 . S
Mg350 O359 2.114 . S
Mg350 O360 2.251 . S
Mg350 O363 2.010 . S
O351 Mg350 2.028 . S
O351 C354 1.250 . S
O352 Mg353 2.028 . S
O352 C354 1.248 . S
Mg353 O352 2.028 . S
Mg353 O358 2.032 . S
Mg353 O360 2.079 . S
C354 O351 1.250 . S
C354 O352 1.248 . S
C355 O356 1.264 . S
C355 O363 1.249 . S
O356 C355 1.264 . S
O357 Mg350 1.986 . S
O357 C361 1.246 . S
O358 Mg353 2.032 . S
O358 C361 1.259 . S
O359 Mg350 2.114 . S
O359 C362 1.252 . S
O360 Mg350 2.251 . S
O360 Mg353 2.079 . S
O360 C362 1.273 . S
C361 O357 1.246 . S
C361 O358 1.259 . S
C362 O359 1.252 . S
C362 O360 1.273 . S
O363 Mg350 2.010 . S
O363 C355 1.249 . S
Mg364 O365 2.028 . S
Mg364 O371 1.986 . S
Mg364 O373 2.114 . S
Mg364 O374 2.251 . S
Mg364 O377 2.010 . S
O365 Mg364 2.028 . S
O365 C368 1.250 . S
O366 Mg367 2.028 . S
O366 C368 1.248 . S
Mg367 O366 2.028 . S
Mg367 O372 2.032 . S
Mg367 O374 2.079 . S
C368 O365 1.250 . S
C368 O366 1.248 . S
C369 O370 1.264 . S
C369 O377 1.249 . S
O370 C369 1.264 . S
O371 Mg364 1.986 . S
O371 C375 1.246 . S
O372 Mg367 2.032 . S
O372 C375 1.259 . S
O373 Mg364 2.114 . S
O373 C376 1.252 . S
O374 Mg364 2.251 . S
O374 Mg367 2.079 . S
O374 C376 1.273 . S
C375 O371 1.246 . S
C375 O372 1.259 . S
C376 O373 1.252 . S
C376 O374 1.273 . S
O377 Mg364 2.010 . S
O377 C369 1.249 . S
Mg378 O379 2.028 . S
Mg378 O385 1.986 . S
Mg378 O387 2.114 . S
Mg378 O388 2.251 . S
Mg378 O391 2.010 . S
O379 Mg378 2.028 . S
O379 C382 1.250 . S
O380 Mg381 2.028 . S
O380 C382 1.248 . S
Mg381 O380 2.028 . S
Mg381 O386 2.032 . S
Mg381 O388 2.079 . S
C382 O379 1.250 . S
C382 O380 1.248 . S
C383 O384 1.264 . S
C383 O391 1.249 . S
O384 C383 1.264 . S
O385 Mg378 1.986 . S
O385 C389 1.246 . S
O386 Mg381 2.032 . S
O386 C389 1.259 . S
O387 Mg378 2.114 . S
O387 C390 1.252 . S
O388 Mg378 2.251 . S
O388 Mg381 2.079 . S
O388 C390 1.273 . S
C389 O385 1.246 . S
C389 O386 1.259 . S
C390 O387 1.252 . S
C390 O388 1.273 . S
O391 Mg378 2.010 . S
O391 C383 1.249 . S
Mg392 O393 2.028 . S
Mg392 O399 1.986 . S
Mg392 O401 2.114 . S
Mg392 O402 2.251 . S
Mg392 O405 2.010 . S
O393 Mg392 2.028 . S
O393 C396 1.250 . S
O394 Mg395 2.028 . S
O394 C396 1.248 . S
Mg395 O394 2.028 . S
Mg395 O400 2.032 . S
Mg395 O402 2.079 . S
C396 O393 1.250 . S
C396 O394 1.248 . S
C397 O398 1.264 . S
C397 O405 1.249 . S
O398 C397 1.264 . S
O399 Mg392 1.986 . S
O399 C403 1.246 . S
O400 Mg395 2.032 . S
O400 C403 1.259 . S
O401 Mg392 2.114 . S
O401 C404 1.252 . S
O402 Mg392 2.251 . S
O402 Mg395 2.079 . S
O402 C404 1.273 . S
C403 O399 1.246 . S
C403 O400 1.259 . S
C404 O401 1.252 . S
C404 O402 1.273 . S
O405 Mg392 2.010 . S
O405 C397 1.249 . S
Mg406 O407 2.028 . S
Mg406 O413 1.986 . S
Mg406 O415 2.114 . S
Mg406 O416 2.251 . S
Mg406 O419 2.010 . S
O407 Mg406 2.028 . S
O407 C410 1.250 . S
O408 Mg409 2.028 . S
O408 C410 1.248 . S
Mg409 O408 2.028 . S
Mg409 O414 2.032 . S
Mg409 O416 2.079 . S
C410 O407 1.250 . S
C410 O408 1.248 . S
C411 O412 1.264 . S
C411 O419 1.249 . S
O412 C411 1.264 . S
O413 Mg406 1.986 . S
O413 C417 1.246 . S
O414 Mg409 2.032 . S
O414 C417 1.259 . S
O415 Mg406 2.114 . S
O415 C418 1.252 . S
O416 Mg406 2.251 . S
O416 Mg409 2.079 . S
O416 C418 1.273 . S
C417 O413 1.246 . S
C417 O414 1.259 . S
C418 O415 1.252 . S
C418 O416 1.273 . S
O419 Mg406 2.010 . S
O419 C411 1.249 . S
Mg420 O421 2.028 . S
Mg420 O427 1.986 . S
Mg420 O429 2.114 . S
Mg420 O430 2.251 . S
Mg420 O433 2.010 . S
O421 Mg420 2.028 . S
O421 C424 1.250 . S
O422 Mg423 2.028 . S
O422 C424 1.248 . S
Mg423 O422 2.028 . S
Mg423 O428 2.032 . S
Mg423 O430 2.079 . S
C424 O421 1.250 . S
C424 O422 1.248 . S
C425 O426 1.264 . S
C425 O433 1.249 . S
O426 C425 1.264 . S
O427 Mg420 1.986 . S
O427 C431 1.246 . S
O428 Mg423 2.032 . S
O428 C431 1.259 . S
O429 Mg420 2.114 . S
O429 C432 1.252 . S
O430 Mg420 2.251 . S
O430 Mg423 2.079 . S
O430 C432 1.273 . S
C431 O427 1.246 . S
C431 O428 1.259 . S
C432 O429 1.252 . S
C432 O430 1.273 . S
O433 Mg420 2.010 . S
O433 C425 1.249 . S
Mg434 O435 2.028 . S
Mg434 O441 1.986 . S
Mg434 O443 2.114 . S
Mg434 O444 2.251 . S
Mg434 O447 2.010 . S
O435 Mg434 2.028 . S
O435 C438 1.250 . S
O436 Mg437 2.028 . S
O436 C438 1.248 . S
Mg437 O436 2.028 . S
Mg437 O442 2.032 . S
Mg437 O444 2.079 . S
C438 O435 1.250 . S
C438 O436 1.248 . S
C439 O440 1.264 . S
C439 O447 1.249 . S
O440 C439 1.264 . S
O441 Mg434 1.986 . S
O441 C445 1.246 . S
O442 Mg437 2.032 . S
O442 C445 1.259 . S
O443 Mg434 2.114 . S
O443 C446 1.252 . S
O444 Mg434 2.251 . S
O444 Mg437 2.079 . S
O444 C446 1.273 . S
C445 O441 1.246 . S
C445 O442 1.259 . S
C446 O443 1.252 . S
C446 O444 1.273 . S
O447 Mg434 2.010 . S
O447 C439 1.249 . S
C448 C449 1.349 . S
C448 C450 1.327 . S
C448 H473 0.950 . S
C449 C448 1.349 . S
C449 C465 1.326 1_465 S
C450 C448 1.327 . S
C450 C469 1.429 . S
C450 H474 0.950 . S
C451 C468 1.574 . S
C451 C470 1.343 1_645 S
C451 H475 0.949 . S
H452 C456 0.949 . S
C453 C454 1.349 . S
C453 C455 1.327 . S
C453 H476 0.950 . S
C454 C453 1.349 . S
C454 C466 1.349 1_645 S
C455 C453 1.327 . S
C455 C471 1.429 . S
C455 H477 0.950 . S
C456 H452 0.949 . S
C456 C464 1.574 . S
C456 C472 1.368 1_465 S
H457 C465 0.966 . S
H458 C463 0.950 . S
H459 C464 0.949 . S
H460 C466 0.950 . S
H461 C467 0.950 . S
H462 C468 0.949 . S
C463 H458 0.950 . S
C463 C465 1.334 . S
C463 C469 1.429 1_645 S
C464 C456 1.574 . S
C464 H459 0.949 . S
C464 C470 1.387 . S
C465 C449 1.326 1_645 S
C465 H457 0.966 . S
C465 C463 1.334 . S
C466 C454 1.349 1_465 S
C466 H460 0.950 . S
C466 C467 1.327 . S
C467 H461 0.950 . S
C467 C466 1.327 . S
C467 C471 1.429 1_465 S
C468 C451 1.574 . S
C468 H462 0.949 . S
C468 C472 1.368 . S
C469 C450 1.429 . S
C469 C463 1.429 1_465 S
C469 C470 1.532 . S
C470 C451 1.343 1_465 S
C470 C464 1.387 . S
C470 C469 1.532 . S
C471 C455 1.429 . S
C471 C467 1.429 1_645 S
C471 C472 1.523 . S
C472 C456 1.368 1_645 S
C472 C468 1.368 . S
C472 C471 1.523 . S
H473 C448 0.950 . S
H474 C450 0.950 . S
H475 C451 0.949 . S
H476 C453 0.950 . S
H477 C455 0.950 . S
C478 C479 1.349 . S
C478 C480 1.327 . S
C478 H503 0.950 . S
C479 C478 1.349 . S
C479 C495 1.349 . S
C480 C478 1.327 . S
C480 C499 1.429 . S
C480 H504 0.950 . S
C481 C498 1.568 . S
C481 C500 1.371 1_655 S
C481 H505 0.952 . S
H482 C486 0.949 . S
C483 C484 1.349 . S
C483 C485 1.327 . S
C483 H506 0.950 . S
C484 C483 1.349 . S
C484 C496 1.349 . S
C485 C483 1.327 . S
C485 C501 1.429 . S
C485 H507 0.950 . S
C486 H482 0.949 . S
C486 C494 1.574 . S
C486 C502 1.368 1_455 S
H487 C495 0.950 . S
H488 C493 0.950 . S
H489 C494 0.949 . S
H490 C496 0.950 . S
H491 C497 0.950 . S
H492 C498 0.949 . S
C493 H488 0.950 . S
C493 C495 1.327 . S
C493 C499 1.429 . S
C494 C486 1.574 . S
C494 H489 0.949 . S
C494 C500 1.368 . S
C495 C479 1.349 . S
C495 H487 0.950 . S
C495 C493 1.327 . S
C496 C484 1.349 . S
C496 H490 0.950 . S
C496 C497 1.327 . S
C497 H491 0.950 . S
C497 C496 1.327 . S
C497 C501 1.429 . S
C498 C481 1.568 . S
C498 H492 0.949 . S
C498 C502 1.368 . S
C499 C480 1.429 . S
C499 C493 1.429 . S
C499 C500 1.523 . S
C500 C481 1.371 1_455 S
C500 C494 1.368 . S
C500 C499 1.523 . S
C501 C485 1.429 . S
C501 C497 1.429 . S
C501 C502 1.523 . S
C502 C486 1.368 1_655 S
C502 C498 1.368 . S
C502 C501 1.523 . S
H503 C478 0.950 . S
H504 C480 0.950 . S
H505 C481 0.952 . S
H506 C483 0.950 . S
H507 C485 0.950 . S
C508 C509 1.349 . S
C508 C510 1.327 . S
C508 H533 0.950 . S
C509 C508 1.349 . S
C509 C525 1.349 . S
C510 C508 1.327 . S
C510 C529 1.429 . S
C510 H534 0.950 . S
C511 C528 1.574 1_556 S
C511 C530 1.368 . S
C511 H535 0.949 . S
H512 C516 0.949 . S
C513 C514 1.349 . S
C513 C515 1.327 . S
C513 H536 0.950 . S
C514 C513 1.349 . S
C514 C526 1.349 . S
C515 C513 1.327 . S
C515 C531 1.429 . S
C515 H537 0.950 . S
C516 H512 0.949 . S
C516 C524 1.574 1_554 S
C516 C532 1.368 . S
H517 C525 0.950 . S
H518 C523 0.950 . S
H519 C524 0.949 . S
H520 C526 0.950 . S
H521 C527 0.950 . S
H522 C528 0.949 . S
C523 H518 0.950 . S
C523 C525 1.327 . S
C523 C529 1.429 . S
C524 C516 1.574 1_556 S
C524 H519 0.949 . S
C524 C530 1.368 . S
C525 C509 1.349 . S
C525 H517 0.950 . S
C525 C523 1.327 . S
C526 C514 1.349 . S
C526 H520 0.950 . S
C526 C527 1.327 . S
C527 H521 0.950 . S
C527 C526 1.327 . S
C527 C531 1.429 . S
C528 C511 1.574 1_554 S
C528 H522 0.949 . S
C528 C532 1.368 . S
C529 C510 1.429 . S
C529 C523 1.429 . S
C529 C530 1.523 . S
C530 C511 1.368 . S
C530 C524 1.368 . S
C530 C529 1.523 . S
C531 C515 1.429 . S
C531 C527 1.429 . S
C531 C532 1.523 . S
C532 C516 1.368 . S
C532 C528 1.368 . S
C532 C531 1.523 . S
H533 C508 0.950 . S
H534 C510 0.950 . S
H535 C511 0.949 . S
H536 C513 0.950 . S
H537 C515 0.950 . S
C538 C539 1.349 . S
C538 C540 1.327 . S
C538 H563 0.950 . S
C539 C538 1.349 . S
C539 C555 1.349 . S
C540 C538 1.327 . S
C540 C559 1.429 . S
C540 H564 0.950 . S
C541 C558 1.574 1_545 S
C541 C560 1.368 . S
C541 H565 0.949 . S
H542 C546 0.949 . S
C543 C544 1.349 . S
C543 C545 1.327 . S
C543 H566 0.950 . S
C544 C543 1.349 . S
C544 C556 1.349 . S
C545 C543 1.327 . S
C545 C561 1.429 . S
C545 H567 0.950 . S
C546 H542 0.949 . S
C546 C554 1.574 1_565 S
C546 C562 1.368 . S
H547 C555 0.950 . S
H548 C553 0.950 . S
H549 C554 0.949 . S
H550 C556 0.950 . S
H551 C557 0.950 . S
H552 C558 0.949 . S
C553 H548 0.950 . S
C553 C555 1.327 . S
C553 C559 1.429 . S
C554 C546 1.574 1_545 S
C554 H549 0.949 . S
C554 C560 1.368 . S
C555 C539 1.349 . S
C555 H547 0.950 . S
C555 C553 1.327 . S
C556 C544 1.349 . S
C556 H550 0.950 . S
C556 C557 1.327 . S
C557 H551 0.950 . S
C557 C556 1.327 . S
C557 C561 1.429 . S
C558 C541 1.574 1_565 S
C558 H552 0.949 . S
C558 C562 1.368 . S
C559 C540 1.429 . S
C559 C553 1.429 . S
C559 C560 1.523 . S
C560 C541 1.368 . S
C560 C554 1.368 . S
C560 C559 1.523 . S
C561 C545 1.429 . S
C561 C557 1.429 . S
C561 C562 1.523 . S
C562 C546 1.368 . S
C562 C558 1.368 . S
C562 C561 1.523 . S
H563 C538 0.950 . S
H564 C540 0.950 . S
H565 C541 0.949 . S
H566 C543 0.950 . S
H567 C545 0.950 . S
C568 C569 1.349 . S
C568 C570 1.327 . S
C568 H593 0.950 . S
C569 C568 1.349 . S
C569 C585 1.349 1_545 S
C570 C568 1.327 . S
C570 C589 1.429 . S
C570 H594 0.950 . S
C571 C588 1.574 1_554 S
C571 C590 1.368 1_565 S
C571 H595 0.949 . S
H572 C576 0.949 . S
C573 C574 1.349 . S
C573 C575 1.327 . S
C573 H596 0.950 . S
C574 C573 1.349 . S
C574 C586 1.349 1_565 S
C575 C573 1.327 . S
C575 C591 1.429 . S
C575 H597 0.950 . S
C576 H572 0.949 . S
C576 C584 1.574 1_556 S
C576 C592 1.368 1_545 S
H577 C585 0.950 . S
H578 C583 0.950 . S
H579 C584 0.949 . S
H580 C586 0.950 . S
H581 C587 0.950 . S
H582 C588 0.949 . S
C583 H578 0.950 . S
C583 C585 1.327 . S
C583 C589 1.429 1_565 S
C584 C576 1.574 1_554 S
C584 H579 0.949 . S
C584 C590 1.368 . S
C585 C569 1.349 1_565 S
C585 H577 0.950 . S
C585 C583 1.327 . S
C586 C574 1.349 1_545 S
C586 H580 0.950 . S
C586 C587 1.327 . S
C587 H581 0.950 . S
C587 C586 1.327 . S
C587 C591 1.429 1_545 S
C588 C571 1.574 1_556 S
C588 H582 0.949 . S
C588 C592 1.368 . S
C589 C570 1.429 . S
C589 C583 1.429 1_545 S
C589 C590 1.523 . S
C590 C571 1.368 1_545 S
C590 C584 1.368 . S
C590 C589 1.523 . S
C591 C575 1.429 . S
C591 C587 1.429 1_565 S
C591 C592 1.523 . S
C592 C576 1.368 1_565 S
C592 C588 1.368 . S
C592 C591 1.523 . S
H593 C568 0.950 . S
H594 C570 0.950 . S
H595 C571 0.949 . S
H596 C573 0.950 . S
H597 C575 0.950 . S
C598 C599 1.349 . S
C598 C600 1.327 . S
C598 H623 0.950 . S
C599 C598 1.349 . S
C599 C615 1.349 1_455 S
C600 C598 1.327 . S
C600 C619 1.429 . S
C600 H624 0.950 . S
C601 C618 1.574 . S
C601 C620 1.368 1_655 S
C601 H625 0.949 . S
H602 C606 0.949 . S
C603 C604 1.349 . S
C603 C605 1.327 . S
C603 H626 0.950 . S
C604 C603 1.349 . S
C604 C616 1.349 1_655 S
C605 C603 1.327 . S
C605 C621 1.429 . S
C605 H627 0.950 . S
C606 H602 0.949 . S
C606 C614 1.574 . S
C606 C622 1.368 1_455 S
H607 C615 0.950 . S
H608 C613 0.950 . S
H609 C614 0.949 . S
H610 C616 0.950 . S
H611 C617 0.950 . S
H612 C618 0.949 . S
C613 H608 0.950 . S
C613 C615 1.327 . S
C613 C619 1.429 1_655 S
C614 C606 1.574 . S
C614 H609 0.949 . S
C614 C620 1.368 . S
C615 C599 1.349 1_655 S
C615 H607 0.950 . S
C615 C613 1.327 . S
C616 C604 1.349 1_455 S
C616 H610 0.950 . S
C616 C617 1.327 . S
C617 H611 0.950 . S
C617 C616 1.327 . S
C617 C621 1.429 1_455 S
C618 C601 1.574 . S
C618 H612 0.949 . S
C618 C622 1.368 . S
C619 C600 1.429 . S
C619 C613 1.429 1_455 S
C619 C620 1.523 . S
C620 C601 1.368 1_455 S
C620 C614 1.368 . S
C620 C619 1.523 . S
C621 C605 1.429 . S
C621 C617 1.429 1_655 S
C621 C622 1.523 . S
C622 C606 1.368 1_655 S
C622 C618 1.368 . S
C622 C621 1.523 . S
H623 C598 0.950 . S
H624 C600 0.950 . S
H625 C601 0.949 . S
H626 C603 0.950 . S
H627 C605 0.950 . S
C628 C629 1.349 . S
C628 C630 1.327 . S
C628 H653 0.950 . S
C629 C628 1.349 . S
C629 C645 1.349 . S
C630 C628 1.327 . S
C630 C649 1.429 . S
C630 H654 0.950 . S
C631 C648 1.574 . S
C631 C650 1.368 . S
C631 H655 0.949 . S
H632 C636 0.949 . S
C633 C634 1.349 . S
C633 C635 1.327 . S
C633 H656 0.950 . S
C634 C633 1.349 . S
C634 C646 1.349 . S
C635 C633 1.327 . S
C635 C651 1.429 . S
C635 H657 0.950 . S
C636 H632 0.949 . S
C636 C644 1.574 . S
C636 C652 1.368 . S
H637 C645 0.950 . S
H638 C643 0.950 . S
H639 C644 0.949 . S
H640 C646 0.950 . S
H641 C647 0.950 . S
H642 C648 0.949 . S
C643 H638 0.950 . S
C643 C645 1.327 . S
C643 C649 1.429 . S
C644 C636 1.574 . S
C644 H639 0.949 . S
C644 C650 1.368 . S
C645 C629 1.349 . S
C645 H637 0.950 . S
C645 C643 1.327 . S
C646 C634 1.349 . S
C646 H640 0.950 . S
C646 C647 1.327 . S
C647 H641 0.950 . S
C647 C646 1.327 . S
C647 C651 1.429 . S
C648 C631 1.574 . S
C648 H642 0.949 . S
C648 C652 1.368 . S
C649 C630 1.429 . S
C649 C643 1.429 . S
C649 C650 1.523 . S
C650 C631 1.368 . S
C650 C644 1.368 . S
C650 C649 1.523 . S
C651 C635 1.429 . S
C651 C647 1.429 . S
C651 C652 1.523 . S
C652 C636 1.368 . S
C652 C648 1.368 . S
C652 C651 1.523 . S
H653 C628 0.950 . S
H654 C630 0.950 . S
H655 C631 0.949 . S
H656 C633 0.950 . S
H657 C635 0.950 . S
C658 C659 1.349 . S
C658 C660 1.327 . S
C658 H683 0.950 . S
C659 C658 1.349 . S
C659 C675 1.349 . S
C660 C658 1.327 . S
C660 C679 1.429 . S
C660 H684 0.950 . S
C661 C678 1.574 . S
C661 C680 1.368 . S
C661 H685 0.949 . S
H662 C666 0.949 . S
C663 C664 1.349 . S
C663 C665 1.327 . S
C663 H686 0.950 . S
C664 C663 1.349 . S
C664 C676 1.349 . S
C665 C663 1.327 . S
C665 C681 1.429 . S
C665 H687 0.950 . S
C666 H662 0.949 . S
C666 C674 1.574 . S
C666 C682 1.368 . S
H667 C675 0.950 . S
H668 C673 0.950 . S
H669 C674 0.949 . S
H670 C676 0.950 . S
H671 C677 0.950 . S
H672 C678 0.949 . S
C673 H668 0.950 . S
C673 C675 1.327 . S
C673 C679 1.429 . S
C674 C666 1.574 . S
C674 H669 0.949 . S
C674 C680 1.368 . S
C675 C659 1.349 . S
C675 H667 0.950 . S
C675 C673 1.327 . S
C676 C664 1.349 . S
C676 H670 0.950 . S
C676 C677 1.327 . S
C677 H671 0.950 . S
C677 C676 1.327 . S
C677 C681 1.429 . S
C678 C661 1.574 . S
C678 H672 0.949 . S
C678 C682 1.368 . S
C679 C660 1.429 . S
C679 C673 1.429 . S
C679 C680 1.523 . S
C680 C661 1.368 . S
C680 C674 1.368 . S
C680 C679 1.523 . S
C681 C665 1.429 . S
C681 C677 1.429 . S
C681 C682 1.523 . S
C682 C666 1.368 . S
C682 C678 1.368 . S
C682 C681 1.523 . S
H683 C658 0.950 . S
H684 C660 0.950 . S
H685 C661 0.949 . S
H686 C663 0.950 . S
H687 C665 0.950 . S
C688 C689 1.349 . S
C688 C690 1.327 . S
C688 H713 0.950 . S
C689 C688 1.349 . S
C689 C705 1.349 . S
C690 C688 1.327 . S
C690 C709 1.429 . S
C690 H714 0.950 . S
C691 C708 1.574 . S
C691 C710 1.368 . S
C691 H715 0.949 . S
H692 C696 0.949 . S
C693 C694 1.349 . S
C693 C695 1.327 . S
C693 H716 0.950 . S
C694 C693 1.349 . S
C694 C706 1.349 . S
C695 C693 1.327 . S
C695 C711 1.429 . S
C695 H717 0.950 . S
C696 H692 0.949 . S
C696 C704 1.574 . S
C696 C712 1.368 . S
H697 C705 0.950 . S
H698 C703 0.950 . S
H699 C704 0.949 . S
H700 C706 0.950 . S
H701 C707 0.950 . S
H702 C708 0.949 . S
C703 H698 0.950 . S
C703 C705 1.327 . S
C703 C709 1.429 . S
C704 C696 1.574 . S
C704 H699 0.949 . S
C704 C710 1.368 . S
C705 C689 1.349 . S
C705 H697 0.950 . S
C705 C703 1.327 . S
C706 C694 1.349 . S
C706 H700 0.950 . S
C706 C707 1.327 . S
C707 H701 0.950 . S
C707 C706 1.327 . S
C707 C711 1.429 . S
C708 C691 1.574 . S
C708 H702 0.949 . S
C708 C712 1.368 . S
C709 C690 1.429 . S
C709 C703 1.429 . S
C709 C710 1.523 . S
C710 C691 1.368 . S
C710 C704 1.368 . S
C710 C709 1.523 . S
C711 C695 1.429 . S
C711 C707 1.429 . S
C711 C712 1.523 . S
C712 C696 1.368 . S
C712 C708 1.368 . S
C712 C711 1.523 . S
H713 C688 0.950 . S
H714 C690 0.950 . S
H715 C691 0.949 . S
H716 C693 0.950 . S
H717 C695 0.950 . S
C718 C719 1.349 . S
C718 C720 1.327 . S
C718 H743 0.950 . S
C719 C718 1.349 . S
C719 C735 1.349 . S
C720 C718 1.327 . S
C720 C739 1.429 . S
C720 H744 0.950 . S
C721 C738 1.574 . S
C721 C740 1.368 . S
C721 H745 0.949 . S
H722 C726 0.949 . S
C723 C724 1.349 . S
C723 C725 1.327 . S
C723 H746 0.950 . S
C724 C723 1.349 . S
C724 C736 1.349 . S
C725 C723 1.327 . S
C725 C741 1.429 . S
C725 H747 0.950 . S
C726 H722 0.949 . S
C726 C734 1.574 . S
C726 C742 1.368 . S
H727 C735 0.950 . S
H728 C733 0.950 . S
H729 C734 0.949 . S
H730 C736 0.950 . S
H731 C737 0.950 . S
H732 C738 0.949 . S
C733 H728 0.950 . S
C733 C735 1.327 . S
C733 C739 1.429 . S
C734 C726 1.574 . S
C734 H729 0.949 . S
C734 C740 1.368 . S
C735 C719 1.349 . S
C735 H727 0.950 . S
C735 C733 1.327 . S
C736 C724 1.349 . S
C736 H730 0.950 . S
C736 C737 1.327 . S
C737 H731 0.950 . S
C737 C736 1.327 . S
C737 C741 1.429 . S
C738 C721 1.574 . S
C738 H732 0.949 . S
C738 C742 1.368 . S
C739 C720 1.429 . S
C739 C733 1.429 . S
C739 C740 1.523 . S
C740 C721 1.368 . S
C740 C734 1.368 . S
C740 C739 1.523 . S
C741 C725 1.429 . S
C741 C737 1.429 . S
C741 C742 1.523 . S
C742 C726 1.368 . S
C742 C738 1.368 . S
C742 C741 1.523 . S
H743 C718 0.950 . S
H744 C720 0.950 . S
H745 C721 0.949 . S
H746 C723 0.950 . S
H747 C725 0.950 . S
C748 C749 1.349 . S
C748 C750 1.327 . S
C748 H773 0.950 . S
C749 C748 1.349 . S
C749 C765 1.349 . S
C750 C748 1.327 . S
C750 C769 1.429 . S
C750 H774 0.950 . S
C751 C768 1.574 1_545 S
C751 C770 1.368 . S
C751 H775 0.949 . S
H752 C756 0.949 . S
C753 C754 1.349 . S
C753 C755 1.327 . S
C753 H776 0.950 . S
C754 C753 1.349 . S
C754 C766 1.349 . S
C755 C753 1.327 . S
C755 C771 1.429 . S
C755 H777 0.950 . S
C756 H752 0.949 . S
C756 C764 1.574 1_565 S
C756 C772 1.368 . S
H757 C765 0.950 . S
H758 C763 0.950 . S
H759 C764 0.949 . S
H760 C766 0.950 . S
H761 C767 0.950 . S
H762 C768 0.949 . S
C763 H758 0.950 . S
C763 C765 1.327 . S
C763 C769 1.429 . S
C764 C756 1.574 1_545 S
C764 H759 0.949 . S
C764 C770 1.368 . S
C765 C749 1.349 . S
C765 H757 0.950 . S
C765 C763 1.327 . S
C766 C754 1.349 . S
C766 H760 0.950 . S
C766 C767 1.327 . S
C767 H761 0.950 . S
C767 C766 1.327 . S
C767 C771 1.429 . S
C768 C751 1.574 1_565 S
C768 H762 0.949 . S
C768 C772 1.368 . S
C769 C750 1.429 . S
C769 C763 1.429 . S
C769 C770 1.523 . S
C770 C751 1.368 . S
C770 C764 1.368 . S
C770 C769 1.523 . S
C771 C755 1.429 . S
C771 C767 1.429 . S
C771 C772 1.523 . S
C772 C756 1.368 . S
C772 C768 1.368 . S
C772 C771 1.523 . S
H773 C748 0.950 . S
H774 C750 0.950 . S
H775 C751 0.949 . S
H776 C753 0.950 . S
H777 C755 0.950 . S
C778 C779 1.349 1_655 S
C778 C780 1.327 . S
C778 H803 0.950 . S
C779 C778 1.349 1_455 S
C779 C795 1.349 . S
C780 C778 1.327 . S
C780 C799 1.429 1_655 S
C780 H804 0.950 . S
C781 C798 1.574 . S
C781 C800 1.386 1_554 S
C781 H805 0.949 1_554 S
H782 C786 0.949 . S
C783 C784 1.349 1_455 S
C783 C785 1.327 . S
C783 H806 0.950 . S
C784 C783 1.349 1_655 S
C784 C796 1.349 . S
C785 C783 1.327 . S
C785 C801 1.429 1_455 S
C785 H807 0.950 . S
C786 H782 0.949 . S
C786 C794 1.574 1_554 S
C786 C802 1.368 . S
H787 C795 0.950 . S
H788 C793 0.950 . S
H789 C794 0.949 . S
H790 C796 0.950 . S
H791 C797 0.950 . S
H792 C798 0.949 . S
C793 H788 0.950 . S
C793 C795 1.327 . S
C793 C799 1.429 . S
C794 C786 1.574 1_556 S
C794 H789 0.949 . S
C794 C800 1.344 1_655 S
C795 C779 1.349 . S
C795 H787 0.950 . S
C795 C793 1.327 . S
C796 C784 1.349 . S
C796 H790 0.950 . S
C796 C797 1.327 . S
C797 H791 0.950 . S
C797 C796 1.327 . S
C797 C801 1.429 . S
C798 C781 1.574 . S
C798 H792 0.949 . S
C798 C802 1.368 1_455 S
C799 C780 1.429 1_455 S
C799 C793 1.429 . S
C799 C800 1.533 . S
C800 C781 1.386 1_556 S
C800 C794 1.344 1_455 S
C800 C799 1.533 . S
C801 C785 1.429 1_655 S
C801 C797 1.429 . S
C801 C802 1.523 . S
C802 C786 1.368 . S
C802 C798 1.368 1_655 S
C802 C801 1.523 . S
H803 C778 0.950 . S
H804 C780 0.950 . S
H805 C781 0.949 1_556 S
H806 C783 0.950 . S
H807 C785 0.950 . S
C808 C809 1.349 . S
C808 C810 1.327 . S
C808 H833 0.950 . S
C809 C808 1.349 . S
C809 C825 1.349 . S
C810 C808 1.327 . S
C810 C829 1.429 . S
C810 H834 0.950 . S
C811 C828 1.574 . S
C811 C830 1.368 . S
C811 H835 0.949 . S
H812 C816 0.949 . S
C813 C814 1.349 . S
C813 C815 1.327 . S
C813 H836 0.950 . S
C814 C813 1.349 . S
C814 C826 1.349 . S
C815 C813 1.327 . S
C815 C831 1.429 . S
C815 H837 0.950 . S
C816 H812 0.949 . S
C816 C824 1.574 . S
C816 C832 1.368 . S
H817 C825 0.950 . S
H818 C823 0.950 . S
H819 C824 0.949 . S
H820 C826 0.950 . S
H821 C827 0.950 . S
H822 C828 0.949 . S
C823 H818 0.950 . S
C823 C825 1.327 . S
C823 C829 1.429 . S
C824 C816 1.574 . S
C824 H819 0.949 . S
C824 C830 1.368 . S
C825 C809 1.349 . S
C825 H817 0.950 . S
C825 C823 1.327 . S
C826 C814 1.349 . S
C826 H820 0.950 . S
C826 C827 1.327 . S
C827 H821 0.950 . S
C827 C826 1.327 . S
C827 C831 1.429 . S
C828 C811 1.574 . S
C828 H822 0.949 . S
C828 C832 1.368 . S
C829 C810 1.429 . S
C829 C823 1.429 . S
C829 C830 1.523 . S
C830 C811 1.368 . S
C830 C824 1.368 . S
C830 C829 1.523 . S
C831 C815 1.429 . S
C831 C827 1.429 . S
C831 C832 1.523 . S
C832 C816 1.368 . S
C832 C828 1.368 . S
C832 C831 1.523 . S
H833 C808 0.950 . S
H834 C810 0.950 . S
H835 C811 0.949 . S
H836 C813 0.950 . S
H837 C815 0.950 . S
C838 C839 1.349 . S
C838 C840 1.327 . S
C838 H863 0.950 . S
C839 C838 1.349 . S
C839 C855 1.349 . S
C840 C838 1.327 . S
C840 C859 1.429 . S
C840 H864 0.950 . S
C841 C858 1.574 1_554 S
C841 C860 1.368 . S
C841 H865 0.949 . S
H842 C846 0.949 . S
C843 C844 1.349 . S
C843 C845 1.327 . S
C843 H866 0.950 . S
C844 C843 1.349 . S
C844 C856 1.349 . S
C845 C843 1.327 . S
C845 C861 1.429 . S
C845 H867 0.950 . S
C846 H842 0.949 . S
C846 C854 1.574 1_556 S
C846 C862 1.368 . S
H847 C855 0.950 . S
H848 C853 0.950 . S
H849 C854 0.949 . S
H850 C856 0.950 . S
H851 C857 0.950 . S
H852 C858 0.949 . S
C853 H848 0.950 . S
C853 C855 1.327 . S
C853 C859 1.429 . S
C854 C846 1.574 1_554 S
C854 H849 0.949 . S
C854 C860 1.368 . S
C855 C839 1.349 . S
C855 H847 0.950 . S
C855 C853 1.327 . S
C856 C844 1.349 . S
C856 H850 0.950 . S
C856 C857 1.327 . S
C857 H851 0.950 . S
C857 C856 1.327 . S
C857 C861 1.429 . S
C858 C841 1.574 1_556 S
C858 H852 0.949 . S
C858 C862 1.368 . S
C859 C840 1.429 . S
C859 C853 1.429 . S
C859 C860 1.523 . S
C860 C841 1.368 . S
C860 C854 1.368 . S
C860 C859 1.523 . S
C861 C845 1.429 . S
C861 C857 1.429 . S
C861 C862 1.523 . S
C862 C846 1.368 . S
C862 C858 1.368 . S
C862 C861 1.523 . S
H863 C838 0.950 . S
H864 C840 0.950 . S
H865 C841 0.949 . S
H866 C843 0.950 . S
H867 C845 0.950 . S
C868 C869 1.349 . S
C868 C870 1.327 . S
C868 H893 0.950 . S
C869 C868 1.349 . S
C869 C885 1.349 . S
C870 C868 1.327 . S
C870 C889 1.429 . S
C870 H894 0.950 . S
C871 C888 1.574 . S
C871 C890 1.368 . S
C871 H895 0.949 . S
H872 C876 0.949 . S
C873 C874 1.349 . S
C873 C875 1.327 . S
C873 H896 0.950 . S
C874 C873 1.349 . S
C874 C886 1.349 . S
C875 C873 1.327 . S
C875 C891 1.429 . S
C875 H897 0.950 . S
C876 H872 0.949 . S
C876 C884 1.574 . S
C876 C892 1.368 . S
H877 C885 0.950 . S
H878 C883 0.950 . S
H879 C884 0.949 . S
H880 C886 0.950 . S
H881 C887 0.950 . S
H882 C888 0.949 . S
C883 H878 0.950 . S
C883 C885 1.327 . S
C883 C889 1.429 . S
C884 C876 1.574 . S
C884 H879 0.949 . S
C884 C890 1.368 . S
C885 C869 1.349 . S
C885 H877 0.950 . S
C885 C883 1.327 . S
C886 C874 1.349 . S
C886 H880 0.950 . S
C886 C887 1.327 . S
C887 H881 0.950 . S
C887 C886 1.327 . S
C887 C891 1.429 . S
C888 C871 1.574 . S
C888 H882 0.949 . S
C888 C892 1.368 . S
C889 C870 1.429 . S
C889 C883 1.429 . S
C889 C890 1.523 . S
C890 C871 1.368 . S
C890 C884 1.368 . S
C890 C889 1.523 . S
C891 C875 1.429 . S
C891 C887 1.429 . S
C891 C892 1.523 . S
C892 C876 1.368 . S
C892 C888 1.368 . S
C892 C891 1.523 . S
H893 C868 0.950 . S
H894 C870 0.950 . S
H895 C871 0.949 . S
H896 C873 0.950 . S
H897 C875 0.950 . S
C898 C899 1.349 . S
C898 C900 1.327 . S
C898 H923 0.950 . S
C899 C898 1.349 . S
C899 C915 1.349 . S
C900 C898 1.327 . S
C900 C919 1.429 . S
C900 H924 0.950 . S
C901 C918 1.574 . S
C901 C920 1.368 . S
C901 H925 0.949 . S
H902 C906 0.949 . S
C903 C904 1.349 . S
C903 C905 1.327 . S
C903 H926 0.950 . S
C904 C903 1.349 . S
C904 C916 1.349 . S
C905 C903 1.327 . S
C905 C921 1.429 . S
C905 H927 0.950 . S
C906 H902 0.949 . S
C906 C914 1.574 . S
C906 C922 1.368 . S
H907 C915 0.950 . S
H908 C913 0.950 . S
H909 C914 0.949 . S
H910 C916 0.950 . S
H911 C917 0.950 . S
H912 C918 0.949 . S
C913 H908 0.950 . S
C913 C915 1.327 . S
C913 C919 1.429 . S
C914 C906 1.574 . S
C914 H909 0.949 . S
C914 C920 1.368 . S
C915 C899 1.349 . S
C915 H907 0.950 . S
C915 C913 1.327 . S
C916 C904 1.349 . S
C916 H910 0.950 . S
C916 C917 1.327 . S
C917 H911 0.950 . S
C917 C916 1.327 . S
C917 C921 1.429 . S
C918 C901 1.574 . S
C918 H912 0.949 . S
C918 C922 1.368 . S
C919 C900 1.429 . S
C919 C913 1.429 . S
C919 C920 1.523 . S
C920 C901 1.368 . S
C920 C914 1.368 . S
C920 C919 1.523 . S
C921 C905 1.429 . S
C921 C917 1.429 . S
C921 C922 1.523 . S
C922 C906 1.368 . S
C922 C918 1.368 . S
C922 C921 1.523 . S
H923 C898 0.950 . S
H924 C900 0.950 . S
H925 C901 0.949 . S
H926 C903 0.950 . S
H927 C905 0.950 . S
C928 C929 1.349 . S
C928 C930 1.327 . S
C928 H953 0.950 . S
C929 C928 1.349 . S
C929 C945 1.349 . S
C930 C928 1.327 . S
C930 C949 1.429 . S
C930 H954 0.950 . S
C931 C948 1.574 . S
C931 C950 1.368 . S
C931 H955 0.949 . S
H932 C936 0.949 . S
C933 C934 1.349 . S
C933 C935 1.327 . S
C933 H956 0.950 . S
C934 C933 1.349 . S
C934 C946 1.349 . S
C935 C933 1.327 . S
C935 C951 1.429 . S
C935 H957 0.950 . S
C936 H932 0.949 . S
C936 C944 1.574 . S
C936 C952 1.368 . S
H937 C945 0.950 . S
H938 C943 0.950 . S
H939 C944 0.949 . S
H940 C946 0.950 . S
H941 C947 0.950 . S
H942 C948 0.949 . S
C943 H938 0.950 . S
C943 C945 1.327 . S
C943 C949 1.429 . S
C944 C936 1.574 . S
C944 H939 0.949 . S
C944 C950 1.368 . S
C945 C929 1.349 . S
C945 H937 0.950 . S
C945 C943 1.327 . S
C946 C934 1.349 . S
C946 H940 0.950 . S
C946 C947 1.327 . S
C947 H941 0.950 . S
C947 C946 1.327 . S
C947 C951 1.429 . S
C948 C931 1.574 . S
C948 H942 0.949 . S
C948 C952 1.368 . S
C949 C930 1.429 . S
C949 C943 1.429 . S
C949 C950 1.523 . S
C950 C931 1.368 . S
C950 C944 1.368 . S
C950 C949 1.523 . S
C951 C935 1.429 . S
C951 C947 1.429 . S
C951 C952 1.523 . S
C952 C936 1.368 . S
C952 C948 1.368 . S
C952 C951 1.523 . S
H953 C928 0.950 . S
H954 C930 0.950 . S
H955 C931 0.949 . S
H956 C933 0.950 . S
H957 C935 0.950 . S
C958 C959 1.349 . S
C958 C960 1.327 . S
C958 H983 0.950 . S
C959 C958 1.349 . S
C959 C975 1.349 . S
C960 C958 1.327 . S
C960 C979 1.429 . S
C960 H984 0.950 . S
C961 C978 1.574 . S
C961 C980 1.368 . S
C961 H985 0.949 . S
H962 C966 0.949 . S
C963 C964 1.349 . S
C963 C965 1.327 . S
C963 H986 0.950 . S
C964 C963 1.349 . S
C964 C976 1.349 . S
C965 C963 1.327 . S
C965 C981 1.429 . S
C965 H987 0.950 . S
C966 H962 0.949 . S
C966 C974 1.574 . S
C966 C982 1.368 . S
H967 C975 0.950 . S
H968 C973 0.950 . S
H969 C974 0.949 . S
H970 C976 0.950 . S
H971 C977 0.950 . S
H972 C978 0.949 . S
C973 H968 0.950 . S
C973 C975 1.327 . S
C973 C979 1.429 . S
C974 C966 1.574 . S
C974 H969 0.949 . S
C974 C980 1.368 . S
C975 C959 1.349 . S
C975 H967 0.950 . S
C975 C973 1.327 . S
C976 C964 1.349 . S
C976 H970 0.950 . S
C976 C977 1.327 . S
C977 H971 0.950 . S
C977 C976 1.327 . S
C977 C981 1.429 . S
C978 C961 1.574 . S
C978 H972 0.949 . S
C978 C982 1.368 . S
C979 C960 1.429 . S
C979 C973 1.429 . S
C979 C980 1.523 . S
C980 C961 1.368 . S
C980 C974 1.368 . S
C980 C979 1.523 . S
C981 C965 1.429 . S
C981 C977 1.429 . S
C981 C982 1.523 . S
C982 C966 1.368 . S
C982 C978 1.368 . S
C982 C981 1.523 . S
H983 C958 0.950 . S
H984 C960 0.950 . S
H985 C961 0.949 . S
H986 C963 0.950 . S
H987 C965 0.950 . S
C988 C989 1.349 . S
C988 C990 1.327 . S
C988 H1013 0.950 . S
C989 C988 1.349 . S
C989 C1005 1.349 . S
C990 C988 1.327 . S
C990 C1009 1.429 . S
C990 H1014 0.950 . S
C991 C1008 1.574 . S
C991 C1010 1.368 . S
C991 H1015 0.949 . S
H992 C996 0.949 . S
C993 C994 1.349 . S
C993 C995 1.327 . S
C993 H1016 0.950 . S
C994 C993 1.349 . S
C994 C1006 1.349 . S
C995 C993 1.327 . S
C995 C1011 1.429 . S
C995 H1017 0.950 . S
C996 H992 0.949 . S
C996 C1004 1.574 . S
C996 C1012 1.368 . S
H997 C1005 0.950 . S
H998 C1003 0.950 . S
H999 C1004 0.949 . S
H1000 C1006 0.950 . S
H1001 C1007 0.950 . S
H1002 C1008 0.949 . S
C1003 H998 0.950 . S
C1003 C1005 1.327 . S
C1003 C1009 1.429 . S
C1004 C996 1.574 . S
C1004 H999 0.949 . S
C1004 C1010 1.368 . S
C1005 C989 1.349 . S
C1005 H997 0.950 . S
C1005 C1003 1.327 . S
C1006 C994 1.349 . S
C1006 H1000 0.950 . S
C1006 C1007 1.327 . S
C1007 H1001 0.950 . S
C1007 C1006 1.327 . S
C1007 C1011 1.429 . S
C1008 C991 1.574 . S
C1008 H1002 0.949 . S
C1008 C1012 1.368 . S
C1009 C990 1.429 . S
C1009 C1003 1.429 . S
C1009 C1010 1.523 . S
C1010 C991 1.368 . S
C1010 C1004 1.368 . S
C1010 C1009 1.523 . S
C1011 C995 1.429 . S
C1011 C1007 1.429 . S
C1011 C1012 1.523 . S
C1012 C996 1.368 . S
C1012 C1008 1.368 . S
C1012 C1011 1.523 . S
H1013 C988 0.950 . S
H1014 C990 0.950 . S
H1015 C991 0.949 . S
H1016 C993 0.950 . S
H1017 C995 0.950 . S
C1018 C1019 1.349 . S
C1018 C1020 1.327 . S
C1018 H1043 0.950 . S
C1019 C1018 1.349 . S
C1019 C1035 1.349 . S
C1020 C1018 1.327 . S
C1020 C1039 1.429 . S
C1020 H1044 0.950 . S
C1021 C1038 1.574 . S
C1021 C1040 1.368 . S
C1021 H1045 0.949 . S
H1022 C1026 0.949 . S
C1023 C1024 1.349 . S
C1023 C1025 1.327 . S
C1023 H1046 0.950 . S
C1024 C1023 1.349 . S
C1024 C1036 1.349 . S
C1025 C1023 1.327 . S
C1025 C1041 1.429 . S
C1025 H1047 0.950 . S
C1026 H1022 0.949 . S
C1026 C1034 1.574 . S
C1026 C1042 1.368 . S
H1027 C1035 0.950 . S
H1028 C1033 0.950 . S
H1029 C1034 0.949 . S
H1030 C1036 0.950 . S
H1031 C1037 0.950 . S
H1032 C1038 0.949 . S
C1033 H1028 0.950 . S
C1033 C1035 1.327 . S
C1033 C1039 1.429 . S
C1034 C1026 1.574 . S
C1034 H1029 0.949 . S
C1034 C1040 1.368 . S
C1035 C1019 1.349 . S
C1035 H1027 0.950 . S
C1035 C1033 1.327 . S
C1036 C1024 1.349 . S
C1036 H1030 0.950 . S
C1036 C1037 1.327 . S
C1037 H1031 0.950 . S
C1037 C1036 1.327 . S
C1037 C1041 1.429 . S
C1038 C1021 1.574 . S
C1038 H1032 0.949 . S
C1038 C1042 1.368 . S
C1039 C1020 1.429 . S
C1039 C1033 1.429 . S
C1039 C1040 1.523 . S
C1040 C1021 1.368 . S
C1040 C1034 1.368 . S
C1040 C1039 1.523 . S
C1041 C1025 1.429 . S
C1041 C1037 1.429 . S
C1041 C1042 1.523 . S
C1042 C1026 1.368 . S
C1042 C1038 1.368 . S
C1042 C1041 1.523 . S
H1043 C1018 0.950 . S
H1044 C1020 0.950 . S
H1045 C1021 0.949 . S
H1046 C1023 0.950 . S
H1047 C1025 0.950 . S
C1048 C1049 1.349 . S
C1048 C1050 1.327 . S
C1048 H1073 0.950 . S
C1049 C1048 1.349 . S
C1049 C1065 1.349 . S
C1050 C1048 1.327 . S
C1050 C1069 1.429 . S
C1050 H1074 0.950 . S
C1051 C1068 1.574 . S
C1051 C1070 1.368 . S
C1051 H1075 0.949 . S
H1052 C1056 0.949 . S
C1053 C1054 1.349 . S
C1053 C1055 1.327 . S
C1053 H1076 0.950 . S
C1054 C1053 1.349 . S
C1054 C1066 1.349 . S
C1055 C1053 1.327 . S
C1055 C1071 1.429 . S
C1055 H1077 0.950 . S
C1056 H1052 0.949 . S
C1056 C1064 1.574 . S
C1056 C1072 1.368 . S
H1057 C1065 0.950 . S
H1058 C1063 0.950 . S
H1059 C1064 0.949 . S
H1060 C1066 0.950 . S
H1061 C1067 0.950 . S
H1062 C1068 0.949 . S
C1063 H1058 0.950 . S
C1063 C1065 1.327 . S
C1063 C1069 1.429 . S
C1064 C1056 1.574 . S
C1064 H1059 0.949 . S
C1064 C1070 1.368 . S
C1065 C1049 1.349 . S
C1065 H1057 0.950 . S
C1065 C1063 1.327 . S
C1066 C1054 1.349 . S
C1066 H1060 0.950 . S
C1066 C1067 1.327 . S
C1067 H1061 0.950 . S
C1067 C1066 1.327 . S
C1067 C1071 1.429 . S
C1068 C1051 1.574 . S
C1068 H1062 0.949 . S
C1068 C1072 1.368 . S
C1069 C1050 1.429 . S
C1069 C1063 1.429 . S
C1069 C1070 1.523 . S
C1070 C1051 1.368 . S
C1070 C1064 1.368 . S
C1070 C1069 1.523 . S
C1071 C1055 1.429 . S
C1071 C1067 1.429 . S
C1071 C1072 1.523 . S
C1072 C1056 1.368 . S
C1072 C1068 1.368 . S
C1072 C1071 1.523 . S
H1073 C1048 0.950 . S
H1074 C1050 0.950 . S
H1075 C1051 0.949 . S
H1076 C1053 0.950 . S
H1077 C1055 0.950 . S
C1078 C1079 1.349 . S
C1078 C1080 1.327 . S
C1078 H1103 0.950 . S
C1079 C1078 1.349 . S
C1079 C1095 1.349 . S
C1080 C1078 1.327 . S
C1080 C1099 1.429 . S
C1080 H1104 0.950 . S
C1081 C1098 1.574 . S
C1081 C1100 1.368 . S
C1081 H1105 0.949 . S
H1082 C1086 0.949 . S
C1083 C1084 1.349 . S
C1083 C1085 1.327 . S
C1083 H1106 0.950 . S
C1084 C1083 1.349 . S
C1084 C1096 1.349 . S
C1085 C1083 1.327 . S
C1085 C1101 1.429 . S
C1085 H1107 0.950 . S
C1086 H1082 0.949 . S
C1086 C1094 1.574 . S
C1086 C1102 1.368 . S
H1087 C1095 0.950 . S
H1088 C1093 0.950 . S
H1089 C1094 0.949 . S
H1090 C1096 0.950 . S
H1091 C1097 0.950 . S
H1092 C1098 0.949 . S
C1093 H1088 0.950 . S
C1093 C1095 1.327 . S
C1093 C1099 1.429 . S
C1094 C1086 1.574 . S
C1094 H1089 0.949 . S
C1094 C1100 1.368 . S
C1095 C1079 1.349 . S
C1095 H1087 0.950 . S
C1095 C1093 1.327 . S
C1096 C1084 1.349 . S
C1096 H1090 0.950 . S
C1096 C1097 1.327 . S
C1097 H1091 0.950 . S
C1097 C1096 1.327 . S
C1097 C1101 1.429 . S
C1098 C1081 1.574 . S
C1098 H1092 0.949 . S
C1098 C1102 1.368 . S
C1099 C1080 1.429 . S
C1099 C1093 1.429 . S
C1099 C1100 1.523 . S
C1100 C1081 1.368 . S
C1100 C1094 1.368 . S
C1100 C1099 1.523 . S
C1101 C1085 1.429 . S
C1101 C1097 1.429 . S
C1101 C1102 1.523 . S
C1102 C1086 1.368 . S
C1102 C1098 1.368 . S
C1102 C1101 1.523 . S
H1103 C1078 0.950 . S
H1104 C1080 0.950 . S
H1105 C1081 0.949 . S
H1106 C1083 0.950 . S
H1107 C1085 0.950 . S
C1108 C1109 1.349 . S
C1108 C1110 1.327 . S
C1108 H1133 0.950 . S
C1109 C1108 1.349 . S
C1109 C1125 1.349 . S
C1110 C1108 1.327 . S
C1110 C1129 1.429 . S
C1110 H1134 0.950 . S
C1111 C1128 1.574 . S
C1111 C1130 1.368 . S
C1111 H1135 0.949 . S
H1112 C1116 0.949 . S
C1113 C1114 1.349 . S
C1113 C1115 1.327 . S
C1113 H1136 0.950 . S
C1114 C1113 1.349 . S
C1114 C1126 1.349 . S
C1115 C1113 1.327 . S
C1115 C1131 1.429 . S
C1115 H1137 0.950 . S
C1116 H1112 0.949 . S
C1116 C1124 1.574 . S
C1116 C1132 1.368 . S
H1117 C1125 0.950 . S
H1118 C1123 0.950 . S
H1119 C1124 0.949 . S
H1120 C1126 0.950 . S
H1121 C1127 0.950 . S
H1122 C1128 0.949 . S
C1123 H1118 0.950 . S
C1123 C1125 1.327 . S
C1123 C1129 1.429 . S
C1124 C1116 1.574 . S
C1124 H1119 0.949 . S
C1124 C1130 1.368 . S
C1125 C1109 1.349 . S
C1125 H1117 0.950 . S
C1125 C1123 1.327 . S
C1126 C1114 1.349 . S
C1126 H1120 0.950 . S
C1126 C1127 1.327 . S
C1127 H1121 0.950 . S
C1127 C1126 1.327 . S
C1127 C1131 1.429 . S
C1128 C1111 1.574 . S
C1128 H1122 0.949 . S
C1128 C1132 1.368 . S
C1129 C1110 1.429 . S
C1129 C1123 1.429 . S
C1129 C1130 1.523 . S
C1130 C1111 1.368 . S
C1130 C1124 1.368 . S
C1130 C1129 1.523 . S
C1131 C1115 1.429 . S
C1131 C1127 1.429 . S
C1131 C1132 1.523 . S
C1132 C1116 1.368 . S
C1132 C1128 1.368 . S
C1132 C1131 1.523 . S
H1133 C1108 0.950 . S
H1134 C1110 0.950 . S
H1135 C1111 0.949 . S
H1136 C1113 0.950 . S
H1137 C1115 0.950 . S
C1138 C1139 1.349 . S
C1138 C1140 1.327 . S
C1138 H1163 0.950 . S
C1139 C1138 1.349 . S
C1139 C1155 1.349 . S
C1140 C1138 1.327 . S
C1140 C1159 1.429 . S
C1140 H1164 0.950 . S
C1141 C1158 1.574 . S
C1141 C1160 1.368 . S
C1141 H1165 0.949 . S
H1142 C1146 0.949 . S
C1143 C1144 1.349 . S
C1143 C1145 1.327 . S
C1143 H1166 0.950 . S
C1144 C1143 1.349 . S
C1144 C1156 1.349 . S
C1145 C1143 1.327 . S
C1145 C1161 1.429 . S
C1145 H1167 0.950 . S
C1146 H1142 0.949 . S
C1146 C1154 1.574 . S
C1146 C1162 1.368 . S
H1147 C1155 0.950 . S
H1148 C1153 0.950 . S
H1149 C1154 0.949 . S
H1150 C1156 0.950 . S
H1151 C1157 0.950 . S
H1152 C1158 0.949 . S
C1153 H1148 0.950 . S
C1153 C1155 1.327 . S
C1153 C1159 1.429 . S
C1154 C1146 1.574 . S
C1154 H1149 0.949 . S
C1154 C1160 1.368 . S
C1155 C1139 1.349 . S
C1155 H1147 0.950 . S
C1155 C1153 1.327 . S
C1156 C1144 1.349 . S
C1156 H1150 0.950 . S
C1156 C1157 1.327 . S
C1157 H1151 0.950 . S
C1157 C1156 1.327 . S
C1157 C1161 1.429 . S
C1158 C1141 1.574 . S
C1158 H1152 0.949 . S
C1158 C1162 1.368 . S
C1159 C1140 1.429 . S
C1159 C1153 1.429 . S
C1159 C1160 1.523 . S
C1160 C1141 1.368 . S
C1160 C1154 1.368 . S
C1160 C1159 1.523 . S
C1161 C1145 1.429 . S
C1161 C1157 1.429 . S
C1161 C1162 1.523 . S
C1162 C1146 1.368 . S
C1162 C1158 1.368 . S
C1162 C1161 1.523 . S
H1163 C1138 0.950 . S
H1164 C1140 0.950 . S
H1165 C1141 0.949 . S
H1166 C1143 0.950 . S
H1167 C1145 0.950 . S
C1168 C1169 1.349 . S
C1168 C1170 1.327 . S
C1168 H1193 0.950 . S
C1169 C1168 1.349 . S
C1169 C1185 1.349 . S
C1170 C1168 1.327 . S
C1170 C1189 1.429 . S
C1170 H1194 0.950 . S
C1171 C1188 1.574 . S
C1171 C1190 1.368 . S
C1171 H1195 0.949 . S
H1172 C1176 0.949 . S
C1173 C1174 1.349 . S
C1173 C1175 1.327 . S
C1173 H1196 0.950 . S
C1174 C1173 1.349 . S
C1174 C1186 1.349 . S
C1175 C1173 1.327 . S
C1175 C1191 1.429 . S
C1175 H1197 0.950 . S
C1176 H1172 0.949 . S
C1176 C1184 1.574 . S
C1176 C1192 1.368 . S
H1177 C1185 0.950 . S
H1178 C1183 0.950 . S
H1179 C1184 0.949 . S
H1180 C1186 0.950 . S
H1181 C1187 0.950 . S
H1182 C1188 0.949 . S
C1183 H1178 0.950 . S
C1183 C1185 1.327 . S
C1183 C1189 1.429 . S
C1184 C1176 1.574 . S
C1184 H1179 0.949 . S
C1184 C1190 1.368 . S
C1185 C1169 1.349 . S
C1185 H1177 0.950 . S
C1185 C1183 1.327 . S
C1186 C1174 1.349 . S
C1186 H1180 0.950 . S
C1186 C1187 1.327 . S
C1187 H1181 0.950 . S
C1187 C1186 1.327 . S
C1187 C1191 1.429 . S
C1188 C1171 1.574 . S
C1188 H1182 0.949 . S
C1188 C1192 1.368 . S
C1189 C1170 1.429 . S
C1189 C1183 1.429 . S
C1189 C1190 1.523 . S
C1190 C1171 1.368 . S
C1190 C1184 1.368 . S
C1190 C1189 1.523 . S
C1191 C1175 1.429 . S
C1191 C1187 1.429 . S
C1191 C1192 1.523 . S
C1192 C1176 1.368 . S
C1192 C1188 1.368 . S
C1192 C1191 1.523 . S
H1193 C1168 0.950 . S
H1194 C1170 0.950 . S
H1195 C1171 0.949 . S
H1196 C1173 0.950 . S
H1197 C1175 0.950 . S
C1198 C1199 1.349 . S
C1198 C1200 1.327 . S
C1198 H1223 0.950 . S
C1199 C1198 1.349 . S
C1199 C1215 1.349 . S
C1200 C1198 1.327 . S
C1200 C1219 1.429 . S
C1200 H1224 0.950 . S
C1201 C1218 1.574 . S
C1201 C1220 1.368 . S
C1201 H1225 0.949 . S
H1202 C1206 0.949 . S
C1203 C1204 1.349 . S
C1203 C1205 1.327 . S
C1203 H1226 0.950 . S
C1204 C1203 1.349 . S
C1204 C1216 1.349 . S
C1205 C1203 1.327 . S
C1205 C1221 1.429 . S
C1205 H1227 0.950 . S
C1206 H1202 0.949 . S
C1206 C1214 1.574 . S
C1206 C1222 1.368 . S
H1207 C1215 0.950 . S
H1208 C1213 0.950 . S
H1209 C1214 0.949 . S
H1210 C1216 0.950 . S
H1211 C1217 0.950 . S
H1212 C1218 0.949 . S
C1213 H1208 0.950 . S
C1213 C1215 1.327 . S
C1213 C1219 1.429 . S
C1214 C1206 1.574 . S
C1214 H1209 0.949 . S
C1214 C1220 1.368 . S
C1215 C1199 1.349 . S
C1215 H1207 0.950 . S
C1215 C1213 1.327 . S
C1216 C1204 1.349 . S
C1216 H1210 0.950 . S
C1216 C1217 1.327 . S
C1217 H1211 0.950 . S
C1217 C1216 1.327 . S
C1217 C1221 1.429 . S
C1218 C1201 1.574 . S
C1218 H1212 0.949 . S
C1218 C1222 1.368 . S
C1219 C1200 1.429 . S
C1219 C1213 1.429 . S
C1219 C1220 1.523 . S
C1220 C1201 1.368 . S
C1220 C1214 1.368 . S
C1220 C1219 1.523 . S
C1221 C1205 1.429 . S
C1221 C1217 1.429 . S
C1221 C1222 1.523 . S
C1222 C1206 1.368 . S
C1222 C1218 1.368 . S
C1222 C1221 1.523 . S
H1223 C1198 0.950 . S
H1224 C1200 0.950 . S
H1225 C1201 0.949 . S
H1226 C1203 0.950 . S
H1227 C1205 0.950 . S
C1228 C1229 1.349 . S
C1228 C1230 1.327 . S
C1228 H1253 0.950 . S
C1229 C1228 1.349 . S
C1229 C1245 1.349 . S
C1230 C1228 1.327 . S
C1230 C1249 1.429 . S
C1230 H1254 0.950 . S
C1231 C1248 1.574 . S
C1231 C1250 1.368 . S
C1231 H1255 0.949 . S
H1232 C1236 0.949 . S
C1233 C1234 1.349 . S
C1233 C1235 1.327 . S
C1233 H1256 0.950 . S
C1234 C1233 1.349 . S
C1234 C1246 1.349 . S
C1235 C1233 1.327 . S
C1235 C1251 1.429 . S
C1235 H1257 0.950 . S
C1236 H1232 0.949 . S
C1236 C1244 1.574 . S
C1236 C1252 1.368 . S
H1237 C1245 0.950 . S
H1238 C1243 0.950 . S
H1239 C1244 0.949 . S
H1240 C1246 0.950 . S
H1241 C1247 0.950 . S
H1242 C1248 0.949 . S
C1243 H1238 0.950 . S
C1243 C1245 1.327 . S
C1243 C1249 1.429 . S
C1244 C1236 1.574 . S
C1244 H1239 0.949 . S
C1244 C1250 1.368 . S
C1245 C1229 1.349 . S
C1245 H1237 0.950 . S
C1245 C1243 1.327 . S
C1246 C1234 1.349 . S
C1246 H1240 0.950 . S
C1246 C1247 1.327 . S
C1247 H1241 0.950 . S
C1247 C1246 1.327 . S
C1247 C1251 1.429 . S
C1248 C1231 1.574 . S
C1248 H1242 0.949 . S
C1248 C1252 1.368 . S
C1249 C1230 1.429 . S
C1249 C1243 1.429 . S
C1249 C1250 1.523 . S
C1250 C1231 1.368 . S
C1250 C1244 1.368 . S
C1250 C1249 1.523 . S
C1251 C1235 1.429 . S
C1251 C1247 1.429 . S
C1251 C1252 1.523 . S
C1252 C1236 1.368 . S
C1252 C1248 1.368 . S
C1252 C1251 1.523 . S
H1253 C1228 0.950 . S
H1254 C1230 0.950 . S
H1255 C1231 0.949 . S
H1256 C1233 0.950 . S
H1257 C1235 0.950 . S
C1258 C1259 1.349 . S
C1258 C1260 1.327 . S
C1258 H1283 0.950 . S
C1259 C1258 1.349 . S
C1259 C1275 1.349 . S
C1260 C1258 1.327 . S
C1260 C1279 1.429 . S
C1260 H1284 0.950 . S
C1261 C1278 1.574 . S
C1261 C1280 1.368 . S
C1261 H1285 0.949 . S
H1262 C1266 0.949 . S
C1263 C1264 1.349 . S
C1263 C1265 1.327 . S
C1263 H1286 0.950 . S
C1264 C1263 1.349 . S
C1264 C1276 1.349 . S
C1265 C1263 1.327 . S
C1265 C1281 1.429 . S
C1265 H1287 0.950 . S
C1266 H1262 0.949 . S
C1266 C1274 1.574 . S
C1266 C1282 1.368 . S
H1267 C1275 0.950 . S
H1268 C1273 0.950 . S
H1269 C1274 0.949 . S
H1270 C1276 0.950 . S
H1271 C1277 0.950 . S
H1272 C1278 0.949 . S
C1273 H1268 0.950 . S
C1273 C1275 1.327 . S
C1273 C1279 1.429 . S
C1274 C1266 1.574 . S
C1274 H1269 0.949 . S
C1274 C1280 1.368 . S
C1275 C1259 1.349 . S
C1275 H1267 0.950 . S
C1275 C1273 1.327 . S
C1276 C1264 1.349 . S
C1276 H1270 0.950 . S
C1276 C1277 1.327 . S
C1277 H1271 0.950 . S
C1277 C1276 1.327 . S
C1277 C1281 1.429 . S
C1278 C1261 1.574 . S
C1278 H1272 0.949 . S
C1278 C1282 1.368 . S
C1279 C1260 1.429 . S
C1279 C1273 1.429 . S
C1279 C1280 1.523 . S
C1280 C1261 1.368 . S
C1280 C1274 1.368 . S
C1280 C1279 1.523 . S
C1281 C1265 1.429 . S
C1281 C1277 1.429 . S
C1281 C1282 1.523 . S
C1282 C1266 1.368 . S
C1282 C1278 1.368 . S
C1282 C1281 1.523 . S
H1283 C1258 0.950 . S
H1284 C1260 0.950 . S
H1285 C1261 0.949 . S
H1286 C1263 0.950 . S
H1287 C1265 0.950 . S
C1288 C1289 1.349 . S
C1288 C1290 1.327 . S
C1288 H1313 0.950 . S
C1289 C1288 1.349 . S
C1289 C1305 1.349 . S
C1290 C1288 1.327 . S
C1290 C1309 1.429 . S
C1290 H1314 0.950 . S
C1291 C1308 1.574 . S
C1291 C1310 1.368 . S
C1291 H1315 0.949 . S
H1292 C1296 0.949 . S
C1293 C1294 1.349 . S
C1293 C1295 1.327 . S
C1293 H1316 0.950 . S
C1294 C1293 1.349 . S
C1294 C1306 1.349 . S
C1295 C1293 1.327 . S
C1295 C1311 1.429 . S
C1295 H1317 0.950 . S
C1296 H1292 0.949 . S
C1296 C1304 1.574 . S
C1296 C1312 1.368 . S
H1297 C1305 0.950 . S
H1298 C1303 0.950 . S
H1299 C1304 0.949 . S
H1300 C1306 0.950 . S
H1301 C1307 0.950 . S
H1302 C1308 0.949 . S
C1303 H1298 0.950 . S
C1303 C1305 1.327 . S
C1303 C1309 1.429 . S
C1304 C1296 1.574 . S
C1304 H1299 0.949 . S
C1304 C1310 1.368 . S
C1305 C1289 1.349 . S
C1305 H1297 0.950 . S
C1305 C1303 1.327 . S
C1306 C1294 1.349 . S
C1306 H1300 0.950 . S
C1306 C1307 1.327 . S
C1307 H1301 0.950 . S
C1307 C1306 1.327 . S
C1307 C1311 1.429 . S
C1308 C1291 1.574 . S
C1308 H1302 0.949 . S
C1308 C1312 1.368 . S
C1309 C1290 1.429 . S
C1309 C1303 1.429 . S
C1309 C1310 1.523 . S
C1310 C1291 1.368 . S
C1310 C1304 1.368 . S
C1310 C1309 1.523 . S
C1311 C1295 1.429 . S
C1311 C1307 1.429 . S
C1311 C1312 1.523 . S
C1312 C1296 1.368 . S
C1312 C1308 1.368 . S
C1312 C1311 1.523 . S
H1313 C1288 0.950 . S
H1314 C1290 0.950 . S
H1315 C1291 0.949 . S
H1316 C1293 0.950 . S
H1317 C1295 0.950 . S
C1318 C1319 1.349 . S
C1318 C1320 1.327 . S
C1318 H1343 0.950 . S
C1319 C1318 1.349 . S
C1319 C1335 1.349 . S
C1320 C1318 1.327 . S
C1320 C1339 1.429 . S
C1320 H1344 0.950 . S
C1321 C1338 1.574 . S
C1321 C1340 1.368 . S
C1321 H1345 0.949 . S
H1322 C1326 0.949 . S
C1323 C1324 1.349 . S
C1323 C1325 1.327 . S
C1323 H1346 0.950 . S
C1324 C1323 1.349 . S
C1324 C1336 1.349 . S
C1325 C1323 1.327 . S
C1325 C1341 1.429 . S
C1325 H1347 0.950 . S
C1326 H1322 0.949 . S
C1326 C1334 1.574 . S
C1326 C1342 1.368 . S
H1327 C1335 0.950 . S
H1328 C1333 0.950 . S
H1329 C1334 0.949 . S
H1330 C1336 0.950 . S
H1331 C1337 0.950 . S
H1332 C1338 0.949 . S
C1333 H1328 0.950 . S
C1333 C1335 1.327 . S
C1333 C1339 1.429 . S
C1334 C1326 1.574 . S
C1334 H1329 0.949 . S
C1334 C1340 1.368 . S
C1335 C1319 1.349 . S
C1335 H1327 0.950 . S
C1335 C1333 1.327 . S
C1336 C1324 1.349 . S
C1336 H1330 0.950 . S
C1336 C1337 1.327 . S
C1337 H1331 0.950 . S
C1337 C1336 1.327 . S
C1337 C1341 1.429 . S
C1338 C1321 1.574 . S
C1338 H1332 0.949 . S
C1338 C1342 1.368 . S
C1339 C1320 1.429 . S
C1339 C1333 1.429 . S
C1339 C1340 1.523 . S
C1340 C1321 1.368 . S
C1340 C1334 1.368 . S
C1340 C1339 1.523 . S
C1341 C1325 1.429 . S
C1341 C1337 1.429 . S
C1341 C1342 1.523 . S
C1342 C1326 1.368 . S
C1342 C1338 1.368 . S
C1342 C1341 1.523 . S
H1343 C1318 0.950 . S
H1344 C1320 0.950 . S
H1345 C1321 0.949 . S
H1346 C1323 0.950 . S
H1347 C1325 0.950 . S
C1348 C1349 1.349 . S
C1348 C1350 1.327 . S
C1348 H1373 0.950 . S
C1349 C1348 1.349 . S
C1349 C1365 1.349 . S
C1350 C1348 1.327 . S
C1350 C1369 1.429 . S
C1350 H1374 0.950 . S
C1351 C1368 1.574 . S
C1351 C1370 1.368 . S
C1351 H1375 0.949 . S
H1352 C1356 0.949 . S
C1353 C1354 1.349 . S
C1353 C1355 1.327 . S
C1353 H1376 0.950 . S
C1354 C1353 1.349 . S
C1354 C1366 1.349 . S
C1355 C1353 1.327 . S
C1355 C1371 1.429 . S
C1355 H1377 0.950 . S
C1356 H1352 0.949 . S
C1356 C1364 1.574 . S
C1356 C1372 1.368 . S
H1357 C1365 0.950 . S
H1358 C1363 0.950 . S
H1359 C1364 0.949 . S
H1360 C1366 0.950 . S
H1361 C1367 0.950 . S
H1362 C1368 0.949 . S
C1363 H1358 0.950 . S
C1363 C1365 1.327 . S
C1363 C1369 1.429 . S
C1364 C1356 1.574 . S
C1364 H1359 0.949 . S
C1364 C1370 1.368 . S
C1365 C1349 1.349 . S
C1365 H1357 0.950 . S
C1365 C1363 1.327 . S
C1366 C1354 1.349 . S
C1366 H1360 0.950 . S
C1366 C1367 1.327 . S
C1367 H1361 0.950 . S
C1367 C1366 1.327 . S
C1367 C1371 1.429 . S
C1368 C1351 1.574 . S
C1368 H1362 0.949 . S
C1368 C1372 1.368 . S
C1369 C1350 1.429 . S
C1369 C1363 1.429 . S
C1369 C1370 1.523 . S
C1370 C1351 1.368 . S
C1370 C1364 1.368 . S
C1370 C1369 1.523 . S
C1371 C1355 1.429 . S
C1371 C1367 1.429 . S
C1371 C1372 1.523 . S
C1372 C1356 1.368 . S
C1372 C1368 1.368 . S
C1372 C1371 1.523 . S
H1373 C1348 0.950 . S
H1374 C1350 0.950 . S
H1375 C1351 0.949 . S
H1376 C1353 0.950 . S
H1377 C1355 0.950 . S
C1378 C1379 1.349 . S
C1378 C1380 1.327 . S
C1378 H1403 0.950 . S
C1379 C1378 1.349 . S
C1379 C1395 1.349 . S
C1380 C1378 1.327 . S
C1380 C1399 1.429 . S
C1380 H1404 0.950 . S
C1381 C1398 1.574 . S
C1381 C1400 1.368 . S
C1381 H1405 0.949 . S
H1382 C1386 0.949 . S
C1383 C1384 1.349 . S
C1383 C1385 1.327 . S
C1383 H1406 0.950 . S
C1384 C1383 1.349 . S
C1384 C1396 1.349 . S
C1385 C1383 1.327 . S
C1385 C1401 1.429 . S
C1385 H1407 0.950 . S
C1386 H1382 0.949 . S
C1386 C1394 1.574 . S
C1386 C1402 1.368 . S
H1387 C1395 0.950 . S
H1388 C1393 0.950 . S
H1389 C1394 0.949 . S
H1390 C1396 0.950 . S
H1391 C1397 0.950 . S
H1392 C1398 0.949 . S
C1393 H1388 0.950 . S
C1393 C1395 1.327 . S
C1393 C1399 1.429 . S
C1394 C1386 1.574 . S
C1394 H1389 0.949 . S
C1394 C1400 1.368 . S
C1395 C1379 1.349 . S
C1395 H1387 0.950 . S
C1395 C1393 1.327 . S
C1396 C1384 1.349 . S
C1396 H1390 0.950 . S
C1396 C1397 1.327 . S
C1397 H1391 0.950 . S
C1397 C1396 1.327 . S
C1397 C1401 1.429 . S
C1398 C1381 1.574 . S
C1398 H1392 0.949 . S
C1398 C1402 1.368 . S
C1399 C1380 1.429 . S
C1399 C1393 1.429 . S
C1399 C1400 1.523 . S
C1400 C1381 1.368 . S
C1400 C1394 1.368 . S
C1400 C1399 1.523 . S
C1401 C1385 1.429 . S
C1401 C1397 1.429 . S
C1401 C1402 1.523 . S
C1402 C1386 1.368 . S
C1402 C1398 1.368 . S
C1402 C1401 1.523 . S
H1403 C1378 0.950 . S
H1404 C1380 0.950 . S
H1405 C1381 0.949 . S
H1406 C1383 0.950 . S
H1407 C1385 0.950 . S
C1408 C1409 1.349 . S
C1408 C1410 1.327 . S
C1408 H1433 0.950 . S
C1409 C1408 1.349 . S
C1409 C1425 1.349 . S
C1410 C1408 1.327 . S
C1410 C1429 1.429 . S
C1410 H1434 0.950 . S
C1411 C1428 1.574 . S
C1411 C1430 1.368 . S
C1411 H1435 0.949 . S
H1412 C1416 0.949 . S
C1413 C1414 1.349 . S
C1413 C1415 1.327 . S
C1413 H1436 0.950 . S
C1414 C1413 1.349 . S
C1414 C1426 1.349 . S
C1415 C1413 1.327 . S
C1415 C1431 1.429 . S
C1415 H1437 0.950 . S
C1416 H1412 0.949 . S
C1416 C1424 1.574 . S
C1416 C1432 1.368 . S
H1417 C1425 0.950 . S
H1418 C1423 0.950 . S
H1419 C1424 0.949 . S
H1420 C1426 0.950 . S
H1421 C1427 0.950 . S
H1422 C1428 0.949 . S
C1423 H1418 0.950 . S
C1423 C1425 1.327 . S
C1423 C1429 1.429 . S
C1424 C1416 1.574 . S
C1424 H1419 0.949 . S
C1424 C1430 1.368 . S
C1425 C1409 1.349 . S
C1425 H1417 0.950 . S
C1425 C1423 1.327 . S
C1426 C1414 1.349 . S
C1426 H1420 0.950 . S
C1426 C1427 1.327 . S
C1427 H1421 0.950 . S
C1427 C1426 1.327 . S
C1427 C1431 1.429 . S
C1428 C1411 1.574 . S
C1428 H1422 0.949 . S
C1428 C1432 1.368 . S
C1429 C1410 1.429 . S
C1429 C1423 1.429 . S
C1429 C1430 1.523 . S
C1430 C1411 1.368 . S
C1430 C1424 1.368 . S
C1430 C1429 1.523 . S
C1431 C1415 1.429 . S
C1431 C1427 1.429 . S
C1431 C1432 1.523 . S
C1432 C1416 1.368 . S
C1432 C1428 1.368 . S
C1432 C1431 1.523 . S
H1433 C1408 0.950 . S
H1434 C1410 0.950 . S
H1435 C1411 0.949 . S
H1436 C1413 0.950 . S
H1437 C1415 0.950 . S
C1438 C1439 1.349 . S
C1438 C1440 1.327 . S
C1438 H1463 0.950 . S
C1439 C1438 1.349 . S
C1439 C1455 1.349 . S
C1440 C1438 1.327 . S
C1440 C1459 1.429 . S
C1440 H1464 0.950 . S
C1441 C1458 1.574 . S
C1441 C1460 1.368 . S
C1441 H1465 0.949 . S
H1442 C1446 0.949 . S
C1443 C1444 1.349 . S
C1443 C1445 1.327 . S
C1443 H1466 0.950 . S
C1444 C1443 1.349 . S
C1444 C1456 1.349 . S
C1445 C1443 1.327 . S
C1445 C1461 1.429 . S
C1445 H1467 0.950 . S
C1446 H1442 0.949 . S
C1446 C1454 1.574 . S
C1446 C1462 1.368 . S
H1447 C1455 0.950 . S
H1448 C1453 0.950 . S
H1449 C1454 0.949 . S
H1450 C1456 0.950 . S
H1451 C1457 0.950 . S
H1452 C1458 0.949 . S
C1453 H1448 0.950 . S
C1453 C1455 1.327 . S
C1453 C1459 1.429 . S
C1454 C1446 1.574 . S
C1454 H1449 0.949 . S
C1454 C1460 1.368 . S
C1455 C1439 1.349 . S
C1455 H1447 0.950 . S
C1455 C1453 1.327 . S
C1456 C1444 1.349 . S
C1456 H1450 0.950 . S
C1456 C1457 1.327 . S
C1457 H1451 0.950 . S
C1457 C1456 1.327 . S
C1457 C1461 1.429 . S
C1458 C1441 1.574 . S
C1458 H1452 0.949 . S
C1458 C1462 1.368 . S
C1459 C1440 1.429 . S
C1459 C1453 1.429 . S
C1459 C1460 1.523 . S
C1460 C1441 1.368 . S
C1460 C1454 1.368 . S
C1460 C1459 1.523 . S
C1461 C1445 1.429 . S
C1461 C1457 1.429 . S
C1461 C1462 1.523 . S
C1462 C1446 1.368 . S
C1462 C1458 1.368 . S
C1462 C1461 1.523 . S
H1463 C1438 0.950 . S
H1464 C1440 0.950 . S
H1465 C1441 0.949 . S
H1466 C1443 0.950 . S
H1467 C1445 0.950 . S
C1468 C1469 1.349 . S
C1468 C1470 1.327 . S
C1468 H1493 0.950 . S
C1469 C1468 1.349 . S
C1469 C1485 1.349 . S
C1470 C1468 1.327 . S
C1470 C1489 1.429 . S
C1470 H1494 0.950 . S
C1471 C1488 1.574 . S
C1471 C1490 1.368 . S
C1471 H1495 0.949 . S
H1472 C1476 0.949 . S
C1473 C1474 1.349 . S
C1473 C1475 1.327 . S
C1473 H1496 0.950 . S
C1474 C1473 1.349 . S
C1474 C1486 1.349 . S
C1475 C1473 1.327 . S
C1475 C1491 1.429 . S
C1475 H1497 0.950 . S
C1476 H1472 0.949 . S
C1476 C1484 1.574 . S
C1476 C1492 1.368 . S
H1477 C1485 0.950 . S
H1478 C1483 0.950 . S
H1479 C1484 0.949 . S
H1480 C1486 0.950 . S
H1481 C1487 0.950 . S
H1482 C1488 0.949 . S
C1483 H1478 0.950 . S
C1483 C1485 1.327 . S
C1483 C1489 1.429 . S
C1484 C1476 1.574 . S
C1484 H1479 0.949 . S
C1484 C1490 1.368 . S
C1485 C1469 1.349 . S
C1485 H1477 0.950 . S
C1485 C1483 1.327 . S
C1486 C1474 1.349 . S
C1486 H1480 0.950 . S
C1486 C1487 1.327 . S
C1487 H1481 0.950 . S
C1487 C1486 1.327 . S
C1487 C1491 1.429 . S
C1488 C1471 1.574 . S
C1488 H1482 0.949 . S
C1488 C1492 1.368 . S
C1489 C1470 1.429 . S
C1489 C1483 1.429 . S
C1489 C1490 1.523 . S
C1490 C1471 1.368 . S
C1490 C1484 1.368 . S
C1490 C1489 1.523 . S
C1491 C1475 1.429 . S
C1491 C1487 1.429 . S
C1491 C1492 1.523 . S
C1492 C1476 1.368 . S
C1492 C1488 1.368 . S
C1492 C1491 1.523 . S
H1493 C1468 0.950 . S
H1494 C1470 0.950 . S
H1495 C1471 0.949 . S
H1496 C1473 0.950 . S
H1497 C1475 0.950 . S
C1498 C1499 1.349 . S
C1498 C1500 1.327 . S
C1498 H1523 0.950 . S
C1499 C1498 1.349 . S
C1499 C1515 1.349 . S
C1500 C1498 1.327 . S
C1500 C1519 1.429 . S
C1500 H1524 0.950 . S
C1501 C1518 1.574 . S
C1501 C1520 1.368 . S
C1501 H1525 0.949 . S
H1502 C1506 0.949 . S
C1503 C1504 1.349 . S
C1503 C1505 1.327 . S
C1503 H1526 0.950 . S
C1504 C1503 1.349 . S
C1504 C1516 1.349 . S
C1505 C1503 1.327 . S
C1505 C1521 1.429 . S
C1505 H1527 0.950 . S
C1506 H1502 0.949 . S
C1506 C1514 1.574 . S
C1506 C1522 1.368 . S
H1507 C1515 0.950 . S
H1508 C1513 0.950 . S
H1509 C1514 0.949 . S
H1510 C1516 0.950 . S
H1511 C1517 0.950 . S
H1512 C1518 0.949 . S
C1513 H1508 0.950 . S
C1513 C1515 1.327 . S
C1513 C1519 1.429 . S
C1514 C1506 1.574 . S
C1514 H1509 0.949 . S
C1514 C1520 1.368 . S
C1515 C1499 1.349 . S
C1515 H1507 0.950 . S
C1515 C1513 1.327 . S
C1516 C1504 1.349 . S
C1516 H1510 0.950 . S
C1516 C1517 1.327 . S
C1517 H1511 0.950 . S
C1517 C1516 1.327 . S
C1517 C1521 1.429 . S
C1518 C1501 1.574 . S
C1518 H1512 0.949 . S
C1518 C1522 1.368 . S
C1519 C1500 1.429 . S
C1519 C1513 1.429 . S
C1519 C1520 1.523 . S
C1520 C1501 1.368 . S
C1520 C1514 1.368 . S
C1520 C1519 1.523 . S
C1521 C1505 1.429 . S
C1521 C1517 1.429 . S
C1521 C1522 1.523 . S
C1522 C1506 1.368 . S
C1522 C1518 1.368 . S
C1522 C1521 1.523 . S
H1523 C1498 0.950 . S
H1524 C1500 0.950 . S
H1525 C1501 0.949 . S
H1526 C1503 0.950 . S
H1527 C1505 0.950 . S
C1528 C1529 1.349 . S
C1528 C1530 1.327 . S
C1528 H1553 0.950 . S
C1529 C1528 1.349 . S
C1529 C1545 1.349 . S
C1530 C1528 1.327 . S
C1530 C1549 1.429 . S
C1530 H1554 0.950 . S
C1531 C1548 1.574 . S
C1531 C1550 1.368 . S
C1531 H1555 0.949 . S
H1532 C1536 0.949 . S
C1533 C1534 1.349 . S
C1533 C1535 1.327 . S
C1533 H1556 0.950 . S
C1534 C1533 1.349 . S
C1534 C1546 1.349 . S
C1535 C1533 1.327 . S
C1535 C1551 1.429 . S
C1535 H1557 0.950 . S
C1536 H1532 0.949 . S
C1536 C1544 1.574 . S
C1536 C1552 1.368 . S
H1537 C1545 0.950 . S
H1538 C1543 0.950 . S
H1539 C1544 0.949 . S
H1540 C1546 0.950 . S
H1541 C1547 0.950 . S
H1542 C1548 0.949 . S
C1543 H1538 0.950 . S
C1543 C1545 1.327 . S
C1543 C1549 1.429 . S
C1544 C1536 1.574 . S
C1544 H1539 0.949 . S
C1544 C1550 1.368 . S
C1545 C1529 1.349 . S
C1545 H1537 0.950 . S
C1545 C1543 1.327 . S
C1546 C1534 1.349 . S
C1546 H1540 0.950 . S
C1546 C1547 1.327 . S
C1547 H1541 0.950 . S
C1547 C1546 1.327 . S
C1547 C1551 1.429 . S
C1548 C1531 1.574 . S
C1548 H1542 0.949 . S
C1548 C1552 1.368 . S
C1549 C1530 1.429 . S
C1549 C1543 1.429 . S
C1549 C1550 1.523 . S
C1550 C1531 1.368 . S
C1550 C1544 1.368 . S
C1550 C1549 1.523 . S
C1551 C1535 1.429 . S
C1551 C1547 1.429 . S
C1551 C1552 1.523 . S
C1552 C1536 1.368 . S
C1552 C1548 1.368 . S
C1552 C1551 1.523 . S
H1553 C1528 0.950 . S
H1554 C1530 0.950 . S
H1555 C1531 0.949 . S
H1556 C1533 0.950 . S
H1557 C1535 0.950 . S
C1558 C1559 1.349 . S
C1558 C1560 1.327 . S
C1558 H1583 0.950 . S
C1559 C1558 1.349 . S
C1559 C1575 1.349 . S
C1560 C1558 1.327 . S
C1560 C1579 1.429 . S
C1560 H1584 0.950 . S
C1561 C1578 1.574 . S
C1561 C1580 1.368 . S
C1561 H1585 0.949 . S
H1562 C1566 0.949 . S
C1563 C1564 1.349 . S
C1563 C1565 1.327 . S
C1563 H1586 0.950 . S
C1564 C1563 1.349 . S
C1564 C1576 1.349 . S
C1565 C1563 1.327 . S
C1565 C1581 1.429 . S
C1565 H1587 0.950 . S
C1566 H1562 0.949 . S
C1566 C1574 1.574 . S
C1566 C1582 1.368 . S
H1567 C1575 0.950 . S
H1568 C1573 0.950 . S
H1569 C1574 0.949 . S
H1570 C1576 0.950 . S
H1571 C1577 0.950 . S
H1572 C1578 0.949 . S
C1573 H1568 0.950 . S
C1573 C1575 1.327 . S
C1573 C1579 1.429 . S
C1574 C1566 1.574 . S
C1574 H1569 0.949 . S
C1574 C1580 1.368 . S
C1575 C1559 1.349 . S
C1575 H1567 0.950 . S
C1575 C1573 1.327 . S
C1576 C1564 1.349 . S
C1576 H1570 0.950 . S
C1576 C1577 1.327 . S
C1577 H1571 0.950 . S
C1577 C1576 1.327 . S
C1577 C1581 1.429 . S
C1578 C1561 1.574 . S
C1578 H1572 0.949 . S
C1578 C1582 1.368 . S
C1579 C1560 1.429 . S
C1579 C1573 1.429 . S
C1579 C1580 1.523 . S
C1580 C1561 1.368 . S
C1580 C1574 1.368 . S
C1580 C1579 1.523 . S
C1581 C1565 1.429 . S
C1581 C1577 1.429 . S
C1581 C1582 1.523 . S
C1582 C1566 1.368 . S
C1582 C1578 1.368 . S
C1582 C1581 1.523 . S
H1583 C1558 0.950 . S
H1584 C1560 0.950 . S
H1585 C1561 0.949 . S
H1586 C1563 0.950 . S
H1587 C1565 0.950 . S
C1588 C1589 1.349 . S
C1588 C1590 1.327 . S
C1588 H1613 0.950 . S
C1589 C1588 1.349 . S
C1589 C1605 1.349 . S
C1590 C1588 1.327 . S
C1590 C1609 1.429 . S
C1590 H1614 0.950 . S
C1591 C1608 1.574 . S
C1591 C1610 1.368 . S
C1591 H1615 0.949 . S
H1592 C1596 0.949 . S
C1593 C1594 1.349 . S
C1593 C1595 1.327 . S
C1593 H1616 0.950 . S
C1594 C1593 1.349 . S
C1594 C1606 1.349 . S
C1595 C1593 1.327 . S
C1595 C1611 1.429 . S
C1595 H1617 0.950 . S
C1596 H1592 0.949 . S
C1596 C1604 1.574 . S
C1596 C1612 1.368 . S
H1597 C1605 0.950 . S
H1598 C1603 0.950 . S
H1599 C1604 0.949 . S
H1600 C1606 0.950 . S
H1601 C1607 0.950 . S
H1602 C1608 0.949 . S
C1603 H1598 0.950 . S
C1603 C1605 1.327 . S
C1603 C1609 1.429 . S
C1604 C1596 1.574 . S
C1604 H1599 0.949 . S
C1604 C1610 1.368 . S
C1605 C1589 1.349 . S
C1605 H1597 0.950 . S
C1605 C1603 1.327 . S
C1606 C1594 1.349 . S
C1606 H1600 0.950 . S
C1606 C1607 1.327 . S
C1607 H1601 0.950 . S
C1607 C1606 1.327 . S
C1607 C1611 1.429 . S
C1608 C1591 1.574 . S
C1608 H1602 0.949 . S
C1608 C1612 1.368 . S
C1609 C1590 1.429 . S
C1609 C1603 1.429 . S
C1609 C1610 1.523 . S
C1610 C1591 1.368 . S
C1610 C1604 1.368 . S
C1610 C1609 1.523 . S
C1611 C1595 1.429 . S
C1611 C1607 1.429 . S
C1611 C1612 1.523 . S
C1612 C1596 1.368 . S
C1612 C1608 1.368 . S
C1612 C1611 1.523 . S
H1613 C1588 0.950 . S
H1614 C1590 0.950 . S
H1615 C1591 0.949 . S
H1616 C1593 0.950 . S
H1617 C1595 0.950 . S
C1618 C1619 1.349 . S
C1618 C1620 1.327 . S
C1618 H1643 0.950 . S
C1619 C1618 1.349 . S
C1619 C1635 1.349 . S
C1620 C1618 1.327 . S
C1620 C1639 1.429 . S
C1620 H1644 0.950 . S
C1621 C1638 1.574 . S
C1621 C1640 1.368 . S
C1621 H1645 0.949 . S
H1622 C1626 0.949 . S
C1623 C1624 1.349 . S
C1623 C1625 1.327 . S
C1623 H1646 0.950 . S
C1624 C1623 1.349 . S
C1624 C1636 1.349 . S
C1625 C1623 1.327 . S
C1625 C1641 1.429 . S
C1625 H1647 0.950 . S
C1626 H1622 0.949 . S
C1626 C1634 1.574 . S
C1626 C1642 1.368 . S
H1627 C1635 0.950 . S
H1628 C1633 0.950 . S
H1629 C1634 0.949 . S
H1630 C1636 0.950 . S
H1631 C1637 0.950 . S
H1632 C1638 0.949 . S
C1633 H1628 0.950 . S
C1633 C1635 1.327 . S
C1633 C1639 1.429 . S
C1634 C1626 1.574 . S
C1634 H1629 0.949 . S
C1634 C1640 1.368 . S
C1635 C1619 1.349 . S
C1635 H1627 0.950 . S
C1635 C1633 1.327 . S
C1636 C1624 1.349 . S
C1636 H1630 0.950 . S
C1636 C1637 1.327 . S
C1637 H1631 0.950 . S
C1637 C1636 1.327 . S
C1637 C1641 1.429 . S
C1638 C1621 1.574 . S
C1638 H1632 0.949 . S
C1638 C1642 1.368 . S
C1639 C1620 1.429 . S
C1639 C1633 1.429 . S
C1639 C1640 1.523 . S
C1640 C1621 1.368 . S
C1640 C1634 1.368 . S
C1640 C1639 1.523 . S
C1641 C1625 1.429 . S
C1641 C1637 1.429 . S
C1641 C1642 1.523 . S
C1642 C1626 1.368 . S
C1642 C1638 1.368 . S
C1642 C1641 1.523 . S
H1643 C1618 0.950 . S
H1644 C1620 0.950 . S
H1645 C1621 0.949 . S
H1646 C1623 0.950 . S
H1647 C1625 0.950 . S
C1648 C1649 1.349 . S
C1648 C1650 1.327 . S
C1648 H1673 0.950 . S
C1649 C1648 1.349 . S
C1649 C1665 1.349 . S
C1650 C1648 1.327 . S
C1650 C1669 1.429 . S
C1650 H1674 0.950 . S
C1651 C1668 1.574 . S
C1651 C1670 1.368 . S
C1651 H1675 0.949 . S
H1652 C1656 0.949 . S
C1653 C1654 1.349 . S
C1653 C1655 1.327 . S
C1653 H1676 0.950 . S
C1654 C1653 1.349 . S
C1654 C1666 1.349 . S
C1655 C1653 1.327 . S
C1655 C1671 1.429 . S
C1655 H1677 0.950 . S
C1656 H1652 0.949 . S
C1656 C1664 1.574 . S
C1656 C1672 1.368 . S
H1657 C1665 0.950 . S
H1658 C1663 0.950 . S
H1659 C1664 0.949 . S
H1660 C1666 0.950 . S
H1661 C1667 0.950 . S
H1662 C1668 0.949 . S
C1663 H1658 0.950 . S
C1663 C1665 1.327 . S
C1663 C1669 1.429 . S
C1664 C1656 1.574 . S
C1664 H1659 0.949 . S
C1664 C1670 1.368 . S
C1665 C1649 1.349 . S
C1665 H1657 0.950 . S
C1665 C1663 1.327 . S
C1666 C1654 1.349 . S
C1666 H1660 0.950 . S
C1666 C1667 1.327 . S
C1667 H1661 0.950 . S
C1667 C1666 1.327 . S
C1667 C1671 1.429 . S
C1668 C1651 1.574 . S
C1668 H1662 0.949 . S
C1668 C1672 1.368 . S
C1669 C1650 1.429 . S
C1669 C1663 1.429 . S
C1669 C1670 1.523 . S
C1670 C1651 1.368 . S
C1670 C1664 1.368 . S
C1670 C1669 1.523 . S
C1671 C1655 1.429 . S
C1671 C1667 1.429 . S
C1671 C1672 1.523 . S
C1672 C1656 1.368 . S
C1672 C1668 1.368 . S
C1672 C1671 1.523 . S
H1673 C1648 0.950 . S
H1674 C1650 0.950 . S
H1675 C1651 0.949 . S
H1676 C1653 0.950 . S
H1677 C1655 0.950 . S
C1678 C1679 1.349 . S
C1678 C1680 1.327 . S
C1678 H1703 0.950 . S
C1679 C1678 1.349 . S
C1679 C1695 1.349 . S
C1680 C1678 1.327 . S
C1680 C1699 1.429 . S
C1680 H1704 0.950 . S
C1681 C1698 1.574 . S
C1681 C1700 1.368 . S
C1681 H1705 0.949 . S
H1682 C1686 0.949 . S
C1683 C1684 1.349 . S
C1683 C1685 1.327 . S
C1683 H1706 0.950 . S
C1684 C1683 1.349 . S
C1684 C1696 1.349 . S
C1685 C1683 1.327 . S
C1685 C1701 1.429 . S
C1685 H1707 0.950 . S
C1686 H1682 0.949 . S
C1686 C1694 1.574 . S
C1686 C1702 1.368 . S
H1687 C1695 0.950 . S
H1688 C1693 0.950 . S
H1689 C1694 0.949 . S
H1690 C1696 0.950 . S
H1691 C1697 0.950 . S
H1692 C1698 0.949 . S
C1693 H1688 0.950 . S
C1693 C1695 1.327 . S
C1693 C1699 1.429 . S
C1694 C1686 1.574 . S
C1694 H1689 0.949 . S
C1694 C1700 1.368 . S
C1695 C1679 1.349 . S
C1695 H1687 0.950 . S
C1695 C1693 1.327 . S
C1696 C1684 1.349 . S
C1696 H1690 0.950 . S
C1696 C1697 1.327 . S
C1697 H1691 0.950 . S
C1697 C1696 1.327 . S
C1697 C1701 1.429 . S
C1698 C1681 1.574 . S
C1698 H1692 0.949 . S
C1698 C1702 1.368 . S
C1699 C1680 1.429 . S
C1699 C1693 1.429 . S
C1699 C1700 1.523 . S
C1700 C1681 1.368 . S
C1700 C1694 1.368 . S
C1700 C1699 1.523 . S
C1701 C1685 1.429 . S
C1701 C1697 1.429 . S
C1701 C1702 1.523 . S
C1702 C1686 1.368 . S
C1702 C1698 1.368 . S
C1702 C1701 1.523 . S
H1703 C1678 0.950 . S
H1704 C1680 0.950 . S
H1705 C1681 0.949 . S
H1706 C1683 0.950 . S
H1707 C1685 0.950 . S
C1708 C1709 1.349 . S
C1708 C1710 1.327 . S
C1708 H1733 0.975 . S
C1709 C1708 1.349 . S
C1709 C1725 1.349 . S
C1710 C1708 1.327 . S
C1710 C1729 1.429 . S
C1710 H1734 0.950 . S
C1711 C1728 1.574 . S
C1711 C1730 1.368 . S
C1711 H1735 0.949 . S
H1712 C1716 0.949 . S
C1713 C1714 1.349 . S
C1713 C1715 1.327 . S
C1713 H1736 0.950 . S
C1714 C1713 1.349 . S
C1714 C1726 1.349 . S
C1715 C1713 1.327 . S
C1715 C1731 1.429 . S
C1715 H1737 0.950 . S
C1716 H1712 0.949 . S
C1716 C1724 1.574 . S
C1716 C1732 1.368 . S
H1717 C1725 0.950 . S
H1718 C1723 0.950 . S
H1719 C1724 0.949 . S
H1720 C1726 0.950 . S
H1721 C1727 0.950 . S
H1722 C1728 0.949 . S
C1723 H1718 0.950 . S
C1723 C1725 1.327 . S
C1723 C1729 1.429 . S
C1724 C1716 1.574 . S
C1724 H1719 0.949 . S
C1724 C1730 1.368 . S
C1725 C1709 1.349 . S
C1725 H1717 0.950 . S
C1725 C1723 1.327 . S
C1726 C1714 1.349 . S
C1726 H1720 0.950 . S
C1726 C1727 1.327 . S
C1727 H1721 0.950 . S
C1727 C1726 1.327 . S
C1727 C1731 1.429 . S
C1728 C1711 1.574 . S
C1728 H1722 0.949 . S
C1728 C1732 1.368 . S
C1729 C1710 1.429 . S
C1729 C1723 1.429 . S
C1729 C1730 1.523 . S
C1730 C1711 1.368 . S
C1730 C1724 1.368 . S
C1730 C1729 1.523 . S
C1731 C1715 1.429 . S
C1731 C1727 1.429 . S
C1731 C1732 1.523 . S
C1732 C1716 1.368 . S
C1732 C1728 1.368 . S
C1732 C1731 1.523 . S
H1733 C1708 0.975 . S
H1734 C1710 0.950 . S
H1735 C1711 0.949 . S
H1736 C1713 0.950 . S
H1737 C1715 0.950 . S
C1738 C1739 1.349 . S
C1738 C1740 1.327 . S
C1738 H1763 0.950 . S
C1739 C1738 1.349 . S
C1739 C1755 1.349 . S
C1740 C1738 1.327 . S
C1740 C1759 1.429 . S
C1740 H1764 0.950 . S
C1741 C1758 1.574 . S
C1741 C1760 1.368 . S
C1741 H1765 0.949 . S
H1742 C1746 0.949 . S
C1743 C1744 1.349 . S
C1743 C1745 1.327 . S
C1743 H1766 0.950 . S
C1744 C1743 1.349 . S
C1744 C1756 1.349 . S
C1745 C1743 1.327 . S
C1745 C1761 1.429 . S
C1745 H1767 0.950 . S
C1746 H1742 0.949 . S
C1746 C1754 1.574 . S
C1746 C1762 1.368 . S
H1747 C1755 0.950 . S
H1748 C1753 0.950 . S
H1749 C1754 0.949 . S
H1750 C1756 0.950 . S
H1751 C1757 0.950 . S
H1752 C1758 0.949 . S
C1753 H1748 0.950 . S
C1753 C1755 1.327 . S
C1753 C1759 1.429 . S
C1754 C1746 1.574 . S
C1754 H1749 0.949 . S
C1754 C1760 1.368 . S
C1755 C1739 1.349 . S
C1755 H1747 0.950 . S
C1755 C1753 1.327 . S
C1756 C1744 1.349 . S
C1756 H1750 0.950 . S
C1756 C1757 1.327 . S
C1757 H1751 0.950 . S
C1757 C1756 1.327 . S
C1757 C1761 1.429 . S
C1758 C1741 1.574 . S
C1758 H1752 0.949 . S
C1758 C1762 1.368 . S
C1759 C1740 1.429 . S
C1759 C1753 1.429 . S
C1759 C1760 1.523 . S
C1760 C1741 1.368 . S
C1760 C1754 1.368 . S
C1760 C1759 1.523 . S
C1761 C1745 1.429 . S
C1761 C1757 1.429 . S
C1761 C1762 1.523 . S
C1762 C1746 1.368 . S
C1762 C1758 1.368 . S
C1762 C1761 1.523 . S
H1763 C1738 0.950 . S
H1764 C1740 0.950 . S
H1765 C1741 0.949 . S
H1766 C1743 0.950 . S
H1767 C1745 0.950 . S
C1768 C1769 1.349 . S
C1768 C1770 1.327 . S
C1768 H1793 0.950 . S
C1769 C1768 1.349 . S
C1769 C1785 1.349 . S
C1770 C1768 1.327 . S
C1770 C1789 1.429 . S
C1770 H1794 0.950 . S
C1771 C1788 1.574 . S
C1771 C1790 1.368 . S
C1771 H1795 0.949 . S
H1772 C1776 0.949 . S
C1773 C1774 1.349 . S
C1773 C1775 1.327 . S
C1773 H1796 0.950 . S
C1774 C1773 1.349 . S
C1774 C1786 1.349 . S
C1775 C1773 1.327 . S
C1775 C1791 1.429 . S
C1775 H1797 0.950 . S
C1776 H1772 0.949 . S
C1776 C1784 1.574 . S
C1776 C1792 1.368 . S
H1777 C1785 0.950 . S
H1778 C1783 0.950 . S
H1779 C1784 0.949 . S
H1780 C1786 0.950 . S
H1781 C1787 0.950 . S
H1782 C1788 0.949 . S
C1783 H1778 0.950 . S
C1783 C1785 1.327 . S
C1783 C1789 1.429 . S
C1784 C1776 1.574 . S
C1784 H1779 0.949 . S
C1784 C1790 1.368 . S
C1785 C1769 1.349 . S
C1785 H1777 0.950 . S
C1785 C1783 1.327 . S
C1786 C1774 1.349 . S
C1786 H1780 0.950 . S
C1786 C1787 1.327 . S
C1787 H1781 0.950 . S
C1787 C1786 1.327 . S
C1787 C1791 1.429 . S
C1788 C1771 1.574 . S
C1788 H1782 0.949 . S
C1788 C1792 1.368 . S
C1789 C1770 1.429 . S
C1789 C1783 1.429 . S
C1789 C1790 1.523 . S
C1790 C1771 1.368 . S
C1790 C1784 1.368 . S
C1790 C1789 1.523 . S
C1791 C1775 1.429 . S
C1791 C1787 1.429 . S
C1791 C1792 1.523 . S
C1792 C1776 1.368 . S
C1792 C1788 1.368 . S
C1792 C1791 1.523 . S
H1793 C1768 0.950 . S
H1794 C1770 0.950 . S
H1795 C1771 0.949 . S
H1796 C1773 0.950 . S
H1797 C1775 0.950 . S
C1798 C1799 1.349 . S
C1798 C1800 1.327 . S
C1798 H1823 0.950 . S
C1799 C1798 1.349 . S
C1799 C1815 1.349 . S
C1800 C1798 1.327 . S
C1800 C1819 1.429 . S
C1800 H1824 0.950 . S
C1801 C1818 1.574 . S
C1801 C1820 1.368 . S
C1801 H1825 0.949 . S
H1802 C1806 0.949 . S
C1803 C1804 1.349 . S
C1803 C1805 1.327 . S
C1803 H1826 0.950 . S
C1804 C1803 1.349 . S
C1804 C1816 1.349 . S
C1805 C1803 1.327 . S
C1805 C1821 1.429 . S
C1805 H1827 0.950 . S
C1806 H1802 0.949 . S
C1806 C1814 1.574 . S
C1806 C1822 1.368 . S
H1807 C1815 0.950 . S
H1808 C1813 0.950 . S
H1809 C1814 0.949 . S
H1810 C1816 0.950 . S
H1811 C1817 0.950 . S
H1812 C1818 0.949 . S
C1813 H1808 0.950 . S
C1813 C1815 1.327 . S
C1813 C1819 1.429 . S
C1814 C1806 1.574 . S
C1814 H1809 0.949 . S
C1814 C1820 1.368 . S
C1815 C1799 1.349 . S
C1815 H1807 0.950 . S
C1815 C1813 1.327 . S
C1816 C1804 1.349 . S
C1816 H1810 0.950 . S
C1816 C1817 1.327 . S
C1817 H1811 0.950 . S
C1817 C1816 1.327 . S
C1817 C1821 1.429 . S
C1818 C1801 1.574 . S
C1818 H1812 0.949 . S
C1818 C1822 1.368 . S
C1819 C1800 1.429 . S
C1819 C1813 1.429 . S
C1819 C1820 1.523 . S
C1820 C1801 1.368 . S
C1820 C1814 1.368 . S
C1820 C1819 1.523 . S
C1821 C1805 1.429 . S
C1821 C1817 1.429 . S
C1821 C1822 1.523 . S
C1822 C1806 1.368 . S
C1822 C1818 1.368 . S
C1822 C1821 1.523 . S
H1823 C1798 0.950 . S
H1824 C1800 0.950 . S
H1825 C1801 0.949 . S
H1826 C1803 0.950 . S
H1827 C1805 0.950 . S
C1828 C1829 1.349 . S
C1828 C1830 1.327 . S
C1828 H1853 0.950 . S
C1829 C1828 1.349 . S
C1829 C1845 1.349 . S
C1830 C1828 1.327 . S
C1830 C1849 1.429 . S
C1830 H1854 0.950 . S
C1831 C1848 1.574 . S
C1831 C1850 1.368 . S
C1831 H1855 0.949 . S
H1832 C1836 0.949 . S
C1833 C1834 1.349 . S
C1833 C1835 1.327 . S
C1833 H1856 0.950 . S
C1834 C1833 1.349 . S
C1834 C1846 1.349 . S
C1835 C1833 1.327 . S
C1835 C1851 1.429 . S
C1835 H1857 0.950 . S
C1836 H1832 0.949 . S
C1836 C1844 1.574 . S
C1836 C1852 1.368 . S
H1837 C1845 0.950 . S
H1838 C1843 0.950 . S
H1839 C1844 0.949 . S
H1840 C1846 0.950 . S
H1841 C1847 0.950 . S
H1842 C1848 0.949 . S
C1843 H1838 0.950 . S
C1843 C1845 1.327 . S
C1843 C1849 1.429 . S
C1844 C1836 1.574 . S
C1844 H1839 0.949 . S
C1844 C1850 1.368 . S
C1845 C1829 1.349 . S
C1845 H1837 0.950 . S
C1845 C1843 1.327 . S
C1846 C1834 1.349 . S
C1846 H1840 0.950 . S
C1846 C1847 1.327 . S
C1847 H1841 0.950 . S
C1847 C1846 1.327 . S
C1847 C1851 1.429 . S
C1848 C1831 1.574 . S
C1848 H1842 0.949 . S
C1848 C1852 1.368 . S
C1849 C1830 1.429 . S
C1849 C1843 1.429 . S
C1849 C1850 1.523 . S
C1850 C1831 1.368 . S
C1850 C1844 1.368 . S
C1850 C1849 1.523 . S
C1851 C1835 1.429 . S
C1851 C1847 1.429 . S
C1851 C1852 1.523 . S
C1852 C1836 1.368 . S
C1852 C1848 1.368 . S
C1852 C1851 1.523 . S
H1853 C1828 0.950 . S
H1854 C1830 0.950 . S
H1855 C1831 0.949 . S
H1856 C1833 0.950 . S
H1857 C1835 0.950 . S
C1858 C1859 1.349 . S
C1858 C1860 1.327 . S
C1858 H1883 0.950 . S
C1859 C1858 1.349 . S
C1859 C1875 1.349 . S
C1860 C1858 1.327 . S
C1860 C1879 1.429 . S
C1860 H1884 0.950 . S
C1861 C1878 1.574 . S
C1861 C1880 1.368 . S
C1861 H1885 0.949 . S
H1862 C1866 0.949 . S
C1863 C1864 1.349 . S
C1863 C1865 1.327 . S
C1863 H1886 0.950 . S
C1864 C1863 1.349 . S
C1864 C1876 1.349 . S
C1865 C1863 1.327 . S
C1865 C1881 1.429 . S
C1865 H1887 0.950 . S
C1866 H1862 0.949 . S
C1866 C1874 1.574 . S
C1866 C1882 1.368 . S
H1867 C1875 0.950 . S
H1868 C1873 0.950 . S
H1869 C1874 0.949 . S
H1870 C1876 0.950 . S
H1871 C1877 0.950 . S
H1872 C1878 0.949 . S
C1873 H1868 0.950 . S
C1873 C1875 1.327 . S
C1873 C1879 1.429 . S
C1874 C1866 1.574 . S
C1874 H1869 0.949 . S
C1874 C1880 1.368 . S
C1875 C1859 1.349 . S
C1875 H1867 0.950 . S
C1875 C1873 1.327 . S
C1876 C1864 1.349 . S
C1876 H1870 0.950 . S
C1876 C1877 1.327 . S
C1877 H1871 0.950 . S
C1877 C1876 1.327 . S
C1877 C1881 1.429 . S
C1878 C1861 1.574 . S
C1878 H1872 0.949 . S
C1878 C1882 1.368 . S
C1879 C1860 1.429 . S
C1879 C1873 1.429 . S
C1879 C1880 1.523 . S
C1880 C1861 1.368 . S
C1880 C1874 1.368 . S
C1880 C1879 1.523 . S
C1881 C1865 1.429 . S
C1881 C1877 1.429 . S
C1881 C1882 1.523 . S
C1882 C1866 1.368 . S
C1882 C1878 1.368 . S
C1882 C1881 1.523 . S
H1883 C1858 0.950 . S
H1884 C1860 0.950 . S
H1885 C1861 0.949 . S
H1886 C1863 0.950 . S
H1887 C1865 0.950 . S
C1888 C1889 1.349 . S
C1888 C1890 1.327 . S
C1888 H1913 0.950 . S
C1889 C1888 1.349 . S
C1889 C1905 1.349 . S
C1890 C1888 1.327 . S
C1890 C1909 1.429 . S
C1890 H1914 0.950 . S
C1891 C1908 1.574 . S
C1891 C1910 1.368 . S
C1891 H1915 0.949 . S
H1892 C1896 0.949 . S
C1893 C1894 1.349 . S
C1893 C1895 1.327 . S
C1893 H1916 0.950 . S
C1894 C1893 1.349 . S
C1894 C1906 1.349 . S
C1895 C1893 1.327 . S
C1895 C1911 1.429 . S
C1895 H1917 0.950 . S
C1896 H1892 0.949 . S
C1896 C1904 1.574 . S
C1896 C1912 1.368 . S
H1897 C1905 0.950 . S
H1898 C1903 0.950 . S
H1899 C1904 0.949 . S
H1900 C1906 0.950 . S
H1901 C1907 0.950 . S
H1902 C1908 0.949 . S
C1903 H1898 0.950 . S
C1903 C1905 1.327 . S
C1903 C1909 1.429 . S
C1904 C1896 1.574 . S
C1904 H1899 0.949 . S
C1904 C1910 1.368 . S
C1905 C1889 1.349 . S
C1905 H1897 0.950 . S
C1905 C1903 1.327 . S
C1906 C1894 1.349 . S
C1906 H1900 0.950 . S
C1906 C1907 1.327 . S
C1907 H1901 0.950 . S
C1907 C1906 1.327 . S
C1907 C1911 1.429 . S
C1908 C1891 1.574 . S
C1908 H1902 0.949 . S
C1908 C1912 1.368 . S
C1909 C1890 1.429 . S
C1909 C1903 1.429 . S
C1909 C1910 1.523 . S
C1910 C1891 1.368 . S
C1910 C1904 1.368 . S
C1910 C1909 1.523 . S
C1911 C1895 1.429 . S
C1911 C1907 1.429 . S
C1911 C1912 1.523 . S
C1912 C1896 1.368 . S
C1912 C1908 1.368 . S
C1912 C1911 1.523 . S
H1913 C1888 0.950 . S
H1914 C1890 0.950 . S
H1915 C1891 0.949 . S
H1916 C1893 0.950 . S
H1917 C1895 0.950 . S
C1918 C1919 1.349 . S
C1918 C1920 1.327 . S
C1918 H1943 0.950 . S
C1919 C1918 1.349 . S
C1919 C1935 1.349 . S
C1920 C1918 1.327 . S
C1920 C1939 1.429 . S
C1920 H1944 0.950 . S
C1921 C1938 1.574 . S
C1921 C1940 1.368 . S
C1921 H1945 0.949 . S
H1922 C1926 0.949 . S
C1923 C1924 1.349 . S
C1923 C1925 1.327 . S
C1923 H1946 0.950 . S
C1924 C1923 1.349 . S
C1924 C1936 1.349 . S
C1925 C1923 1.327 . S
C1925 C1941 1.429 . S
C1925 H1947 0.950 . S
C1926 H1922 0.949 . S
C1926 C1934 1.574 . S
C1926 C1942 1.368 . S
H1927 C1935 0.950 . S
H1928 C1933 0.950 . S
H1929 C1934 0.949 . S
H1930 C1936 0.950 . S
H1931 C1937 0.950 . S
H1932 C1938 0.949 . S
C1933 H1928 0.950 . S
C1933 C1935 1.327 . S
C1933 C1939 1.429 . S
C1934 C1926 1.574 . S
C1934 H1929 0.949 . S
C1934 C1940 1.368 . S
C1935 C1919 1.349 . S
C1935 H1927 0.950 . S
C1935 C1933 1.327 . S
C1936 C1924 1.349 . S
C1936 H1930 0.950 . S
C1936 C1937 1.327 . S
C1937 H1931 0.950 . S
C1937 C1936 1.327 . S
C1937 C1941 1.429 . S
C1938 C1921 1.574 . S
C1938 H1932 0.949 . S
C1938 C1942 1.368 . S
C1939 C1920 1.429 . S
C1939 C1933 1.429 . S
C1939 C1940 1.523 . S
C1940 C1921 1.368 . S
C1940 C1934 1.368 . S
C1940 C1939 1.523 . S
C1941 C1925 1.429 . S
C1941 C1937 1.429 . S
C1941 C1942 1.523 . S
C1942 C1926 1.368 . S
C1942 C1938 1.368 . S
C1942 C1941 1.523 . S
H1943 C1918 0.950 . S
H1944 C1920 0.950 . S
H1945 C1921 0.949 . S
H1946 C1923 0.950 . S
H1947 C1925 0.950 . S
C1948 C1949 1.349 . S
C1948 C1950 1.327 . S
C1948 H1973 0.950 . S
C1949 C1948 1.349 . S
C1949 C1965 1.349 . S
C1950 C1948 1.327 . S
C1950 C1969 1.429 . S
C1950 H1974 0.950 . S
C1951 C1968 1.574 . S
C1951 C1970 1.368 . S
C1951 H1975 0.949 . S
H1952 C1956 0.949 . S
C1953 C1954 1.349 . S
C1953 C1955 1.327 . S
C1953 H1976 0.950 . S
C1954 C1953 1.349 . S
C1954 C1966 1.349 . S
C1955 C1953 1.327 . S
C1955 C1971 1.429 . S
C1955 H1977 0.950 . S
C1956 H1952 0.949 . S
C1956 C1964 1.574 . S
C1956 C1972 1.368 . S
H1957 C1965 0.950 . S
H1958 C1963 0.950 . S
H1959 C1964 0.949 . S
H1960 C1966 0.950 . S
H1961 C1967 0.950 . S
H1962 C1968 0.949 . S
C1963 H1958 0.950 . S
C1963 C1965 1.327 . S
C1963 C1969 1.429 . S
C1964 C1956 1.574 . S
C1964 H1959 0.949 . S
C1964 C1970 1.368 . S
C1965 C1949 1.349 . S
C1965 H1957 0.950 . S
C1965 C1963 1.327 . S
C1966 C1954 1.349 . S
C1966 H1960 0.950 . S
C1966 C1967 1.327 . S
C1967 H1961 0.950 . S
C1967 C1966 1.327 . S
C1967 C1971 1.429 . S
C1968 C1951 1.574 . S
C1968 H1962 0.949 . S
C1968 C1972 1.368 . S
C1969 C1950 1.429 . S
C1969 C1963 1.429 . S
C1969 C1970 1.523 . S
C1970 C1951 1.368 . S
C1970 C1964 1.368 . S
C1970 C1969 1.523 . S
C1971 C1955 1.429 . S
C1971 C1967 1.429 . S
C1971 C1972 1.523 . S
C1972 C1956 1.368 . S
C1972 C1968 1.368 . S
C1972 C1971 1.523 . S
H1973 C1948 0.950 . S
H1974 C1950 0.950 . S
H1975 C1951 0.949 . S
H1976 C1953 0.950 . S
H1977 C1955 0.950 . S
C1978 C1979 1.349 . S
C1978 C1980 1.327 . S
C1978 H2003 0.950 . S
C1979 C1978 1.349 . S
C1979 C1995 1.349 . S
C1980 C1978 1.327 . S
C1980 C1999 1.429 . S
C1980 H2004 0.950 . S
C1981 C1998 1.574 . S
C1981 C2000 1.368 . S
C1981 H2005 0.949 . S
H1982 C1986 0.949 . S
C1983 C1984 1.349 . S
C1983 C1985 1.327 . S
C1983 H2006 0.950 . S
C1984 C1983 1.349 . S
C1984 C1996 1.349 . S
C1985 C1983 1.327 . S
C1985 C2001 1.429 . S
C1985 H2007 0.950 . S
C1986 H1982 0.949 . S
C1986 C1994 1.574 . S
C1986 C2002 1.368 . S
H1987 C1995 0.950 . S
H1988 C1993 0.950 . S
H1989 C1994 0.949 . S
H1990 C1996 0.950 . S
H1991 C1997 0.950 . S
H1992 C1998 0.949 . S
C1993 H1988 0.950 . S
C1993 C1995 1.327 . S
C1993 C1999 1.429 . S
C1994 C1986 1.574 . S
C1994 H1989 0.949 . S
C1994 C2000 1.368 . S
C1995 C1979 1.349 . S
C1995 H1987 0.950 . S
C1995 C1993 1.327 . S
C1996 C1984 1.349 . S
C1996 H1990 0.950 . S
C1996 C1997 1.327 . S
C1997 H1991 0.950 . S
C1997 C1996 1.327 . S
C1997 C2001 1.429 . S
C1998 C1981 1.574 . S
C1998 H1992 0.949 . S
C1998 C2002 1.368 . S
C1999 C1980 1.429 . S
C1999 C1993 1.429 . S
C1999 C2000 1.523 . S
C2000 C1981 1.368 . S
C2000 C1994 1.368 . S
C2000 C1999 1.523 . S
C2001 C1985 1.429 . S
C2001 C1997 1.429 . S
C2001 C2002 1.523 . S
C2002 C1986 1.368 . S
C2002 C1998 1.368 . S
C2002 C2001 1.523 . S
H2003 C1978 0.950 . S
H2004 C1980 0.950 . S
H2005 C1981 0.949 . S
H2006 C1983 0.950 . S
H2007 C1985 0.950 . S
C2008 C2009 1.349 . S
C2008 C2010 1.327 . S
C2008 H2033 0.950 . S
C2009 C2008 1.349 . S
C2009 C2025 1.349 . S
C2010 C2008 1.327 . S
C2010 C2029 1.429 . S
C2010 H2034 0.950 . S
C2011 C2028 1.574 . S
C2011 C2030 1.368 . S
C2011 H2035 0.949 . S
H2012 C2016 0.949 . S
C2013 C2014 1.349 . S
C2013 C2015 1.327 . S
C2013 H2036 0.950 . S
C2014 C2013 1.349 . S
C2014 C2026 1.349 . S
C2015 C2013 1.327 . S
C2015 C2031 1.429 . S
C2015 H2037 0.950 . S
C2016 H2012 0.949 . S
C2016 C2024 1.574 . S
C2016 C2032 1.368 . S
H2017 C2025 0.950 . S
H2018 C2023 0.950 . S
H2019 C2024 0.949 . S
H2020 C2026 0.950 . S
H2021 C2027 0.950 . S
H2022 C2028 0.949 . S
C2023 H2018 0.950 . S
C2023 C2025 1.327 . S
C2023 C2029 1.429 . S
C2024 C2016 1.574 . S
C2024 H2019 0.949 . S
C2024 C2030 1.368 . S
C2025 C2009 1.349 . S
C2025 H2017 0.950 . S
C2025 C2023 1.327 . S
C2026 C2014 1.349 . S
C2026 H2020 0.950 . S
C2026 C2027 1.327 . S
C2027 H2021 0.950 . S
C2027 C2026 1.327 . S
C2027 C2031 1.429 . S
C2028 C2011 1.574 . S
C2028 H2022 0.949 . S
C2028 C2032 1.368 . S
C2029 C2010 1.429 . S
C2029 C2023 1.429 . S
C2029 C2030 1.523 . S
C2030 C2011 1.368 . S
C2030 C2024 1.368 . S
C2030 C2029 1.523 . S
C2031 C2015 1.429 . S
C2031 C2027 1.429 . S
C2031 C2032 1.523 . S
C2032 C2016 1.368 . S
C2032 C2028 1.368 . S
C2032 C2031 1.523 . S
H2033 C2008 0.950 . S
H2034 C2010 0.950 . S
H2035 C2011 0.949 . S
H2036 C2013 0.950 . S
H2037 C2015 0.950 . S
C2038 C2039 1.349 . S
C2038 C2040 1.327 . S
C2038 H2063 0.950 . S
C2039 C2038 1.349 . S
C2039 C2055 1.349 . S
C2040 C2038 1.327 . S
C2040 C2059 1.429 . S
C2040 H2064 0.950 . S
C2041 C2058 1.574 . S
C2041 C2060 1.368 . S
C2041 H2065 0.949 . S
H2042 C2046 0.949 . S
C2043 C2044 1.349 . S
C2043 C2045 1.327 . S
C2043 H2066 0.950 . S
C2044 C2043 1.349 . S
C2044 C2056 1.349 . S
C2045 C2043 1.327 . S
C2045 C2061 1.429 . S
C2045 H2067 0.950 . S
C2046 H2042 0.949 . S
C2046 C2054 1.574 . S
C2046 C2062 1.368 . S
H2047 C2055 0.950 . S
H2048 C2053 0.950 . S
H2049 C2054 0.949 . S
H2050 C2056 0.950 . S
H2051 C2057 0.950 . S
H2052 C2058 0.949 . S
C2053 H2048 0.950 . S
C2053 C2055 1.327 . S
C2053 C2059 1.429 . S
C2054 C2046 1.574 . S
C2054 H2049 0.949 . S
C2054 C2060 1.368 . S
C2055 C2039 1.349 . S
C2055 H2047 0.950 . S
C2055 C2053 1.327 . S
C2056 C2044 1.349 . S
C2056 H2050 0.950 . S
C2056 C2057 1.327 . S
C2057 H2051 0.950 . S
C2057 C2056 1.327 . S
C2057 C2061 1.429 . S
C2058 C2041 1.574 . S
C2058 H2052 0.949 . S
C2058 C2062 1.368 . S
C2059 C2040 1.429 . S
C2059 C2053 1.429 . S
C2059 C2060 1.523 . S
C2060 C2041 1.368 . S
C2060 C2054 1.368 . S
C2060 C2059 1.523 . S
C2061 C2045 1.429 . S
C2061 C2057 1.429 . S
C2061 C2062 1.523 . S
C2062 C2046 1.368 . S
C2062 C2058 1.368 . S
C2062 C2061 1.523 . S
H2063 C2038 0.950 . S
H2064 C2040 0.950 . S
H2065 C2041 0.949 . S
H2066 C2043 0.950 . S
H2067 C2045 0.950 . S
C2068 C2069 1.349 . S
C2068 C2070 1.327 . S
C2068 H2093 0.950 . S
C2069 C2068 1.349 . S
C2069 C2085 1.349 . S
C2070 C2068 1.327 . S
C2070 C2089 1.429 . S
C2070 H2094 0.950 . S
C2071 C2088 1.574 . S
C2071 C2090 1.368 . S
C2071 H2095 0.949 . S
H2072 C2076 0.949 . S
C2073 C2074 1.349 . S
C2073 C2075 1.327 . S
C2073 H2096 0.950 . S
C2074 C2073 1.349 . S
C2074 C2086 1.349 . S
C2075 C2073 1.327 . S
C2075 C2091 1.429 . S
C2075 H2097 0.950 . S
C2076 H2072 0.949 . S
C2076 C2084 1.574 . S
C2076 C2092 1.368 . S
H2077 C2085 0.950 . S
H2078 C2083 0.950 . S
H2079 C2084 0.949 . S
H2080 C2086 0.950 . S
H2081 C2087 0.950 . S
H2082 C2088 0.949 . S
C2083 H2078 0.950 . S
C2083 C2085 1.327 . S
C2083 C2089 1.429 . S
C2084 C2076 1.574 . S
C2084 H2079 0.949 . S
C2084 C2090 1.368 . S
C2085 C2069 1.349 . S
C2085 H2077 0.950 . S
C2085 C2083 1.327 . S
C2086 C2074 1.349 . S
C2086 H2080 0.950 . S
C2086 C2087 1.327 . S
C2087 H2081 0.950 . S
C2087 C2086 1.327 . S
C2087 C2091 1.429 . S
C2088 C2071 1.574 . S
C2088 H2082 0.949 . S
C2088 C2092 1.368 . S
C2089 C2070 1.429 . S
C2089 C2083 1.429 . S
C2089 C2090 1.523 . S
C2090 C2071 1.368 . S
C2090 C2084 1.368 . S
C2090 C2089 1.523 . S
C2091 C2075 1.429 . S
C2091 C2087 1.429 . S
C2091 C2092 1.523 . S
C2092 C2076 1.368 . S
C2092 C2088 1.368 . S
C2092 C2091 1.523 . S
H2093 C2068 0.950 . S
H2094 C2070 0.950 . S
H2095 C2071 0.949 . S
H2096 C2073 0.950 . S
H2097 C2075 0.950 . S
C2098 C2099 1.349 . S
C2098 C2100 1.327 . S
C2098 H2123 0.950 . S
C2099 C2098 1.349 . S
C2099 C2115 1.349 . S
C2100 C2098 1.327 . S
C2100 C2119 1.429 . S
C2100 H2124 0.950 . S
C2101 C2118 1.574 . S
C2101 C2120 1.368 . S
C2101 H2125 0.949 . S
H2102 C2106 0.949 . S
C2103 C2104 1.349 . S
C2103 C2105 1.327 . S
C2103 H2126 0.950 . S
C2104 C2103 1.349 . S
C2104 C2116 1.349 . S
C2105 C2103 1.327 . S
C2105 C2121 1.429 . S
C2105 H2127 0.950 . S
C2106 H2102 0.949 . S
C2106 C2114 1.574 . S
C2106 C2122 1.368 . S
H2107 C2115 0.950 . S
H2108 C2113 0.950 . S
H2109 C2114 0.949 . S
H2110 C2116 0.950 . S
H2111 C2117 0.950 . S
H2112 C2118 0.949 . S
C2113 H2108 0.950 . S
C2113 C2115 1.327 . S
C2113 C2119 1.429 . S
C2114 C2106 1.574 . S
C2114 H2109 0.949 . S
C2114 C2120 1.368 . S
C2115 C2099 1.349 . S
C2115 H2107 0.950 . S
C2115 C2113 1.327 . S
C2116 C2104 1.349 . S
C2116 H2110 0.950 . S
C2116 C2117 1.327 . S
C2117 H2111 0.950 . S
C2117 C2116 1.327 . S
C2117 C2121 1.429 . S
C2118 C2101 1.574 . S
C2118 H2112 0.949 . S
C2118 C2122 1.368 . S
C2119 C2100 1.429 . S
C2119 C2113 1.429 . S
C2119 C2120 1.523 . S
C2120 C2101 1.368 . S
C2120 C2114 1.368 . S
C2120 C2119 1.523 . S
C2121 C2105 1.429 . S
C2121 C2117 1.429 . S
C2121 C2122 1.523 . S
C2122 C2106 1.368 . S
C2122 C2118 1.368 . S
C2122 C2121 1.523 . S
H2123 C2098 0.950 . S
H2124 C2100 0.950 . S
H2125 C2101 0.949 . S
H2126 C2103 0.950 . S
H2127 C2105 0.950 . S
C2128 C2129 1.349 . S
C2128 C2130 1.327 . S
C2128 H2153 0.950 . S
C2129 C2128 1.349 . S
C2129 C2145 1.349 . S
C2130 C2128 1.327 . S
C2130 C2149 1.429 . S
C2130 H2154 0.950 . S
C2131 C2148 1.574 . S
C2131 C2150 1.368 . S
C2131 H2155 0.949 . S
H2132 C2136 0.949 . S
C2133 C2134 1.349 . S
C2133 C2135 1.327 . S
C2133 H2156 0.950 . S
C2134 C2133 1.349 . S
C2134 C2146 1.349 . S
C2135 C2133 1.327 . S
C2135 C2151 1.429 . S
C2135 H2157 0.950 . S
C2136 H2132 0.949 . S
C2136 C2144 1.574 . S
C2136 C2152 1.368 . S
H2137 C2145 0.950 . S
H2138 C2143 0.950 . S
H2139 C2144 0.949 . S
H2140 C2146 0.950 . S
H2141 C2147 0.950 . S
H2142 C2148 0.949 . S
C2143 H2138 0.950 . S
C2143 C2145 1.327 . S
C2143 C2149 1.429 . S
C2144 C2136 1.574 . S
C2144 H2139 0.949 . S
C2144 C2150 1.368 . S
C2145 C2129 1.349 . S
C2145 H2137 0.950 . S
C2145 C2143 1.327 . S
C2146 C2134 1.349 . S
C2146 H2140 0.950 . S
C2146 C2147 1.327 . S
C2147 H2141 0.950 . S
C2147 C2146 1.327 . S
C2147 C2151 1.429 . S
C2148 C2131 1.574 . S
C2148 H2142 0.949 . S
C2148 C2152 1.368 . S
C2149 C2130 1.429 . S
C2149 C2143 1.429 . S
C2149 C2150 1.523 . S
C2150 C2131 1.368 . S
C2150 C2144 1.368 . S
C2150 C2149 1.523 . S
C2151 C2135 1.429 . S
C2151 C2147 1.429 . S
C2151 C2152 1.523 . S
C2152 C2136 1.368 . S
C2152 C2148 1.368 . S
C2152 C2151 1.523 . S
H2153 C2128 0.950 . S
H2154 C2130 0.950 . S
H2155 C2131 0.949 . S
H2156 C2133 0.950 . S
H2157 C2135 0.950 . S
C2158 C2159 1.349 . S
C2158 C2160 1.327 . S
C2158 H2183 0.950 . S
C2159 C2158 1.349 . S
C2159 C2175 1.349 . S
C2160 C2158 1.327 . S
C2160 C2179 1.429 . S
C2160 H2184 0.950 . S
C2161 C2178 1.574 . S
C2161 C2180 1.368 . S
C2161 H2185 0.949 . S
H2162 C2166 0.949 . S
C2163 C2164 1.349 . S
C2163 C2165 1.327 . S
C2163 H2186 0.950 . S
C2164 C2163 1.349 . S
C2164 C2176 1.349 . S
C2165 C2163 1.327 . S
C2165 C2181 1.429 . S
C2165 H2187 0.950 . S
C2166 H2162 0.949 . S
C2166 C2174 1.574 . S
C2166 C2182 1.368 . S
H2167 C2175 0.950 . S
H2168 C2173 0.950 . S
H2169 C2174 0.949 . S
H2170 C2176 0.950 . S
H2171 C2177 0.950 . S
H2172 C2178 0.949 . S
C2173 H2168 0.950 . S
C2173 C2175 1.327 . S
C2173 C2179 1.429 . S
C2174 C2166 1.574 . S
C2174 H2169 0.949 . S
C2174 C2180 1.368 . S
C2175 C2159 1.349 . S
C2175 H2167 0.950 . S
C2175 C2173 1.327 . S
C2176 C2164 1.349 . S
C2176 H2170 0.950 . S
C2176 C2177 1.327 . S
C2177 H2171 0.950 . S
C2177 C2176 1.327 . S
C2177 C2181 1.429 . S
C2178 C2161 1.574 . S
C2178 H2172 0.949 . S
C2178 C2182 1.368 . S
C2179 C2160 1.429 . S
C2179 C2173 1.429 . S
C2179 C2180 1.523 . S
C2180 C2161 1.368 . S
C2180 C2174 1.368 . S
C2180 C2179 1.523 . S
C2181 C2165 1.429 . S
C2181 C2177 1.429 . S
C2181 C2182 1.523 . S
C2182 C2166 1.368 . S
C2182 C2178 1.368 . S
C2182 C2181 1.523 . S
H2183 C2158 0.950 . S
H2184 C2160 0.950 . S
H2185 C2161 0.949 . S
H2186 C2163 0.950 . S
H2187 C2165 0.950 . S
C2188 C2189 1.349 . S
C2188 C2190 1.327 . S
C2188 H2213 0.950 . S
C2189 C2188 1.349 . S
C2189 C2205 1.349 . S
C2190 C2188 1.327 . S
C2190 C2209 1.429 . S
C2190 H2214 0.950 . S
C2191 C2208 1.574 . S
C2191 C2210 1.368 . S
C2191 H2215 0.949 . S
H2192 C2196 0.949 . S
C2193 C2194 1.349 . S
C2193 C2195 1.327 . S
C2193 H2216 0.950 . S
C2194 C2193 1.349 . S
C2194 C2206 1.349 . S
C2195 C2193 1.327 . S
C2195 C2211 1.429 . S
C2195 H2217 0.950 . S
C2196 H2192 0.949 . S
C2196 C2204 1.574 . S
C2196 C2212 1.368 . S
H2197 C2205 0.950 . S
H2198 C2203 0.950 . S
H2199 C2204 0.949 . S
H2200 C2206 0.950 . S
H2201 C2207 0.950 . S
H2202 C2208 0.949 . S
C2203 H2198 0.950 . S
C2203 C2205 1.327 . S
C2203 C2209 1.429 . S
C2204 C2196 1.574 . S
C2204 H2199 0.949 . S
C2204 C2210 1.368 . S
C2205 C2189 1.349 . S
C2205 H2197 0.950 . S
C2205 C2203 1.327 . S
C2206 C2194 1.349 . S
C2206 H2200 0.950 . S
C2206 C2207 1.327 . S
C2207 H2201 0.950 . S
C2207 C2206 1.327 . S
C2207 C2211 1.429 . S
C2208 C2191 1.574 . S
C2208 H2202 0.949 . S
C2208 C2212 1.368 . S
C2209 C2190 1.429 . S
C2209 C2203 1.429 . S
C2209 C2210 1.523 . S
C2210 C2191 1.368 . S
C2210 C2204 1.368 . S
C2210 C2209 1.523 . S
C2211 C2195 1.429 . S
C2211 C2207 1.429 . S
C2211 C2212 1.523 . S
C2212 C2196 1.368 . S
C2212 C2208 1.368 . S
C2212 C2211 1.523 . S
H2213 C2188 0.950 . S
H2214 C2190 0.950 . S
H2215 C2191 0.949 . S
H2216 C2193 0.950 . S
H2217 C2195 0.950 . S
C2218 C2219 1.349 . S
C2218 C2220 1.327 . S
C2218 H2243 0.950 . S
C2219 C2218 1.349 . S
C2219 C2235 1.349 . S
C2220 C2218 1.327 . S
C2220 C2239 1.429 . S
C2220 H2244 0.950 . S
C2221 C2238 1.574 . S
C2221 C2240 1.368 . S
C2221 H2245 0.949 . S
H2222 C2226 0.949 . S
C2223 C2224 1.349 . S
C2223 C2225 1.327 . S
C2223 H2246 0.950 . S
C2224 C2223 1.349 . S
C2224 C2236 1.349 . S
C2225 C2223 1.327 . S
C2225 C2241 1.429 . S
C2225 H2247 0.950 . S
C2226 H2222 0.949 . S
C2226 C2234 1.574 . S
C2226 C2242 1.368 . S
H2227 C2235 0.950 . S
H2228 C2233 0.950 . S
H2229 C2234 0.949 . S
H2230 C2236 0.950 . S
H2231 C2237 0.950 . S
H2232 C2238 0.949 . S
C2233 H2228 0.950 . S
C2233 C2235 1.327 . S
C2233 C2239 1.429 . S
C2234 C2226 1.574 . S
C2234 H2229 0.949 . S
C2234 C2240 1.368 . S
C2235 C2219 1.349 . S
C2235 H2227 0.950 . S
C2235 C2233 1.327 . S
C2236 C2224 1.349 . S
C2236 H2230 0.950 . S
C2236 C2237 1.327 . S
C2237 H2231 0.950 . S
C2237 C2236 1.327 . S
C2237 C2241 1.429 . S
C2238 C2221 1.574 . S
C2238 H2232 0.949 . S
C2238 C2242 1.368 . S
C2239 C2220 1.429 . S
C2239 C2233 1.429 . S
C2239 C2240 1.523 . S
C2240 C2221 1.368 . S
C2240 C2234 1.368 . S
C2240 C2239 1.523 . S
C2241 C2225 1.429 . S
C2241 C2237 1.429 . S
C2241 C2242 1.523 . S
C2242 C2226 1.368 . S
C2242 C2238 1.368 . S
C2242 C2241 1.523 . S
H2243 C2218 0.950 . S
H2244 C2220 0.950 . S
H2245 C2221 0.949 . S
H2246 C2223 0.950 . S
H2247 C2225 0.950 . S
C2248 C2249 1.349 . S
C2248 C2250 1.327 . S
C2248 H2273 0.950 . S
C2249 C2248 1.349 . S
C2249 C2265 1.349 . S
C2250 C2248 1.327 . S
C2250 C2269 1.429 . S
C2250 H2274 0.950 . S
C2251 C2268 1.574 . S
C2251 C2270 1.368 . S
C2251 H2275 0.949 . S
H2252 C2256 0.949 . S
C2253 C2254 1.349 . S
C2253 C2255 1.327 . S
C2253 H2276 0.950 1_545 S
C2254 C2253 1.349 . S
C2254 C2266 1.349 . S
C2255 C2253 1.327 . S
C2255 C2271 1.429 . S
C2255 H2277 0.950 . S
C2256 H2252 0.949 . S
C2256 C2264 1.574 . S
C2256 C2272 1.368 . S
H2257 C2265 0.950 . S
H2258 C2263 0.950 . S
H2259 C2264 0.949 . S
H2260 C2266 0.950 . S
H2261 C2267 0.950 . S
H2262 C2268 0.949 . S
C2263 H2258 0.950 . S
C2263 C2265 1.327 . S
C2263 C2269 1.429 . S
C2264 C2256 1.574 . S
C2264 H2259 0.949 . S
C2264 C2270 1.368 . S
C2265 C2249 1.349 . S
C2265 H2257 0.950 . S
C2265 C2263 1.327 . S
C2266 C2254 1.349 . S
C2266 H2260 0.950 . S
C2266 C2267 1.327 . S
C2267 H2261 0.950 . S
C2267 C2266 1.327 . S
C2267 C2271 1.429 . S
C2268 C2251 1.574 . S
C2268 H2262 0.949 . S
C2268 C2272 1.368 . S
C2269 C2250 1.429 . S
C2269 C2263 1.429 . S
C2269 C2270 1.523 . S
C2270 C2251 1.368 . S
C2270 C2264 1.368 . S
C2270 C2269 1.523 . S
C2271 C2255 1.429 . S
C2271 C2267 1.429 . S
C2271 C2272 1.523 . S
C2272 C2256 1.368 . S
C2272 C2268 1.368 . S
C2272 C2271 1.523 . S
H2273 C2248 0.950 . S
H2274 C2250 0.950 . S
H2275 C2251 0.949 . S
H2276 C2253 0.950 1_565 S
H2277 C2255 0.950 . S
C2278 C2279 1.349 . S
C2278 C2280 1.327 . S
C2278 H2303 0.950 . S
C2279 C2278 1.349 . S
C2279 C2295 1.349 . S
C2280 C2278 1.327 . S
C2280 C2299 1.429 . S
C2280 H2304 0.950 . S
C2281 C2298 1.574 . S
C2281 C2300 1.368 . S
C2281 H2305 0.949 . S
H2282 C2286 0.949 . S
C2283 C2284 1.349 . S
C2283 C2285 1.327 . S
C2283 H2306 0.950 . S
C2284 C2283 1.349 . S
C2284 C2296 1.349 . S
C2285 C2283 1.327 . S
C2285 C2301 1.429 . S
C2285 H2307 0.950 . S
C2286 H2282 0.949 . S
C2286 C2294 1.574 . S
C2286 C2302 1.368 . S
H2287 C2295 0.897 1_545 S
H2288 C2293 0.950 . S
H2289 C2294 0.949 . S
H2290 C2296 0.950 . S
H2291 C2297 0.950 . S
H2292 C2298 0.949 . S
C2293 H2288 0.950 . S
C2293 C2295 1.327 . S
C2293 C2299 1.429 . S
C2294 C2286 1.574 . S
C2294 H2289 0.949 . S
C2294 C2300 1.368 . S
C2295 C2279 1.349 . S
C2295 H2287 0.897 1_565 S
C2295 C2293 1.327 . S
C2296 C2284 1.349 . S
C2296 H2290 0.950 . S
C2296 C2297 1.327 . S
C2297 H2291 0.950 . S
C2297 C2296 1.327 . S
C2297 C2301 1.429 . S
C2298 C2281 1.574 . S
C2298 H2292 0.949 . S
C2298 C2302 1.368 . S
C2299 C2280 1.429 . S
C2299 C2293 1.429 . S
C2299 C2300 1.523 . S
C2300 C2281 1.368 . S
C2300 C2294 1.368 . S
C2300 C2299 1.523 . S
C2301 C2285 1.429 . S
C2301 C2297 1.429 . S
C2301 C2302 1.523 . S
C2302 C2286 1.368 . S
C2302 C2298 1.368 . S
C2302 C2301 1.523 . S
H2303 C2278 0.950 . S
H2304 C2280 0.950 . S
H2305 C2281 0.949 . S
H2306 C2283 0.950 . S
H2307 C2285 0.950 . S
C2308 C2309 1.349 . S
C2308 C2310 1.327 . S
C2308 H2333 0.950 . S
C2309 C2308 1.349 . S
C2309 C2325 1.349 . S
C2310 C2308 1.327 . S
C2310 C2329 1.429 . S
C2310 H2334 0.950 . S
C2311 C2328 1.574 . S
C2311 C2330 1.368 . S
C2311 H2335 0.949 . S
H2312 C2316 0.949 . S
C2313 C2314 1.349 . S
C2313 C2315 1.327 . S
C2313 H2336 0.950 . S
C2314 C2313 1.349 . S
C2314 C2326 1.349 . S
C2315 C2313 1.327 . S
C2315 C2331 1.429 . S
C2315 H2337 0.950 . S
C2316 H2312 0.949 . S
C2316 C2324 1.574 . S
C2316 C2332 1.368 . S
H2317 C2325 0.950 . S
H2318 C2323 0.950 . S
H2319 C2324 0.949 . S
H2320 C2326 0.950 . S
H2321 C2327 0.950 . S
H2322 C2328 0.949 . S
C2323 H2318 0.950 . S
C2323 C2325 1.327 . S
C2323 C2329 1.429 . S
C2324 C2316 1.574 . S
C2324 H2319 0.949 . S
C2324 C2330 1.368 . S
C2325 C2309 1.349 . S
C2325 H2317 0.950 . S
C2325 C2323 1.327 . S
C2326 C2314 1.349 . S
C2326 H2320 0.950 . S
C2326 C2327 1.327 . S
C2327 H2321 0.950 . S
C2327 C2326 1.327 . S
C2327 C2331 1.429 . S
C2328 C2311 1.574 . S
C2328 H2322 0.949 . S
C2328 C2332 1.368 . S
C2329 C2310 1.429 . S
C2329 C2323 1.429 . S
C2329 C2330 1.523 . S
C2330 C2311 1.368 . S
C2330 C2324 1.368 . S
C2330 C2329 1.523 . S
C2331 C2315 1.429 . S
C2331 C2327 1.429 . S
C2331 C2332 1.523 . S
C2332 C2316 1.368 . S
C2332 C2328 1.368 . S
C2332 C2331 1.523 . S
H2333 C2308 0.950 . S
H2334 C2310 0.950 . S
H2335 C2311 0.949 . S
H2336 C2313 0.950 . S
H2337 C2315 0.950 . S
C2338 C2339 1.349 . S
C2338 C2340 1.327 . S
C2338 H2363 0.950 . S
C2339 C2338 1.349 . S
C2339 C2355 1.349 . S
C2340 C2338 1.327 . S
C2340 C2359 1.429 . S
C2340 H2364 0.950 . S
C2341 C2358 1.574 . S
C2341 C2360 1.368 . S
C2341 H2365 0.949 . S
H2342 C2346 0.949 . S
C2343 C2344 1.349 . S
C2343 C2345 1.327 . S
C2343 H2366 0.950 . S
C2344 C2343 1.349 . S
C2344 C2356 1.349 . S
C2345 C2343 1.327 . S
C2345 C2361 1.429 . S
C2345 H2367 0.950 . S
C2346 H2342 0.949 . S
C2346 C2354 1.574 . S
C2346 C2362 1.368 . S
H2347 C2355 0.950 . S
H2348 C2353 0.950 . S
H2349 C2354 0.949 . S
H2350 C2356 0.950 . S
H2351 C2357 0.950 . S
H2352 C2358 0.949 . S
C2353 H2348 0.950 . S
C2353 C2355 1.327 . S
C2353 C2359 1.429 . S
C2354 C2346 1.574 . S
C2354 H2349 0.949 . S
C2354 C2360 1.368 . S
C2355 C2339 1.349 . S
C2355 H2347 0.950 . S
C2355 C2353 1.327 . S
C2356 C2344 1.349 . S
C2356 H2350 0.950 . S
C2356 C2357 1.327 . S
C2357 H2351 0.950 . S
C2357 C2356 1.327 . S
C2357 C2361 1.429 . S
C2358 C2341 1.574 . S
C2358 H2352 0.949 . S
C2358 C2362 1.368 . S
C2359 C2340 1.429 . S
C2359 C2353 1.429 . S
C2359 C2360 1.523 . S
C2360 C2341 1.368 . S
C2360 C2354 1.368 . S
C2360 C2359 1.523 . S
C2361 C2345 1.429 . S
C2361 C2357 1.429 . S
C2361 C2362 1.523 . S
C2362 C2346 1.368 . S
C2362 C2358 1.368 . S
C2362 C2361 1.523 . S
H2363 C2338 0.950 . S
H2364 C2340 0.950 . S
H2365 C2341 0.949 . S
H2366 C2343 0.950 . S
H2367 C2345 0.950 . S
C449 C103 1.364 . S
C454 C5 1.379 . S
C479 C19 1.151 . S
C484 C61 1.246 . S
C509 C75 1.471 . S
C514 C33 1.464 . S
C539 C89 1.425 . S
C544 C47 1.419 . S
C569 C117 1.378 . S
C574 C313 1.364 . S
C599 C131 1.150 . S
C604 C271 1.246 . S
C629 C411 1.470 . S
C634 C145 1.463 . S
C659 C383 1.425 . S
C664 C159 1.419 . S
C689 C173 1.246 . S
C694 C439 1.150 . S
C719 C187 1.471 . S
C724 C369 1.465 . S
C749 C201 1.425 . S
C754 C299 1.418 . S
C779 C215 1.365 . S
C784 C229 1.379 . S
C809 C243 1.365 . S
C814 C355 1.380 . S
C839 C257 1.464 . S
C844 C285 1.471 . S
C869 C425 1.419 . S
C874 C327 1.425 . S
C899 C397 1.246 . S
C904 C341 1.151 . S
C929 C144 0.525 . S
C934 C4 0.492 . S
C959 C165 0.682 . S
C964 C25 0.502 . S
C989 C116 0.492 . S
C994 C32 0.524 . S
C1019 C137 0.502 . S
C1024 C53 0.682 . S
C1049 C208 0.668 . S
C1054 C60 0.653 . S
C1079 C74 0.497 . S
C1084 C214 0.520 . S
C1109 C96 0.667 . S
C1114 C172 0.652 . S
C1139 C102 0.520 . S
C1144 C186 0.497 . S
C1169 C180 0.598 . S
C1174 C124 0.452 . S
C1199 C130 0.604 . S
C1204 C194 0.596 . S
C1229 C207 0.677 . S
C1234 C152 0.515 . S
C1259 C158 0.477 . S
C1264 C222 0.498 . S
C1289 C326 0.416 . S
C1294 C235 0.824 . S
C1319 C39 0.704 . S
C1324 C179 0.568 . S
C1349 C54 0.533 . S
C1354 C193 0.655 . S
C1379 C11 0.824 . S
C1384 C200 0.417 . S
C1409 C249 0.790 . S
C1414 C446 0.624 . S
C1439 C277 0.568 . S
C1444 C263 0.704 . S
C1469 C26 0.624 . S
C1474 C221 0.791 . S
C1499 C334 0.667 . S
C1504 C270 0.652 . S
C1529 C284 0.497 . S
C1534 C312 0.520 . S
C1559 C228 0.492 . S
C1564 C256 0.524 . S
C1589 C305 0.682 . S
C1594 C347 0.501 . S
C1619 C348 0.624 . S
C1624 C319 0.791 . S
C1649 C151 0.704 . S
C1654 C67 0.568 . S
C1679 C292 0.596 . S
C1684 C340 0.604 . S
C1709 C110 0.498 . S
C1714 C46 0.477 . S
C1739 C404 0.598 . S
C1744 C362 0.452 . S
C1769 C82 0.596 . S
C1774 C18 0.604 . S
C1799 C236 0.452 . S
C1804 C278 0.598 . S
C1829 C354 0.492 . S
C1834 C368 0.524 . S
C1859 C390 0.667 . S
C1864 C396 0.652 . S
C1889 C333 0.677 . S
C1894 C264 0.515 . S
C1919 C375 0.704 . S
C1924 C403 0.567 . S
C1949 C166 0.534 . S
C1954 C81 0.654 . S
C1979 C109 0.791 . S
C1984 C138 0.624 . S
C2009 C242 0.520 . S
C2014 C410 0.497 . S
C2039 C431 0.682 . S
C2044 C445 0.501 . S
C2069 C438 0.605 . S
C2074 C418 0.596 . S
C2099 C68 0.598 . S
C2104 C12 0.452 . S
C2129 C40 0.515 . S
C2134 C95 0.677 . S
C2159 C424 0.477 . S
C2164 C250 0.498 . S
C2189 C361 0.823 . S
C2194 C382 0.417 . S
C2219 C291 0.655 . S
C2224 C306 0.533 . S
C2249 C88 0.416 . S
C2254 C123 0.824 . S
C2279 C320 0.498 . S
C2284 C298 0.477 . S
C2309 C376 0.515 . S
C2314 C389 0.677 . S
C2339 C432 0.533 . S
C2344 C417 0.655 . S
