# Generated by pormake.
# Topology wje, (4)-cn, num edge types: 1
# Building blocks:
#     Node 0, Type 0, BuildingBlock: QUQFOY_clean_sbu_1, # of connection points: 4
#     Node 1, Type 0, BuildingBlock: QUQFOY_clean_sbu_1, # of connection points: 4
#     Node 2, Type 0, BuildingBlock: QUQFOY_clean_sbu_1, # of connection points: 4
#     Node 3, Type 0, BuildingBlock: QUQFOY_clean_sbu_1, # of connection points: 4
#     Node 4, Type 0, BuildingBlock: QUQFOY_clean_sbu_1, # of connection points: 4
#     Node 5, Type 0, BuildingBlock: QUQFOY_clean_sbu_1, # of connection points: 4
#     Node 6, Type 0, BuildingBlock: QUQFOY_clean_sbu_1, # of connection points: 4
#     Node 7, Type 0, BuildingBlock: QUQFOY_clean_sbu_1, # of connection points: 4
#     Node 8, Type 0, BuildingBlock: QUQFOY_clean_sbu_1, # of connection points: 4
#     Node 9, Type 0, BuildingBlock: QUQFOY_clean_sbu_1, # of connection points: 4
#     Node 10, Type 0, BuildingBlock: QUQFOY_clean_sbu_1, # of connection points: 4
#     Node 11, Type 0, BuildingBlock: QUQFOY_clean_sbu_1, # of connection points: 4
#     Edge 12, Type (0, 0), BuildingBlock: KIFKEQ_clean_linker_1, # of connection points: 2
#     Edge 13, Type (0, 0), BuildingBlock: KIFKEQ_clean_linker_1, # of connection points: 2
#     Edge 14, Type (0, 0), BuildingBlock: KIFKEQ_clean_linker_1, # of connection points: 2
#     Edge 15, Type (0, 0), BuildingBlock: KIFKEQ_clean_linker_1, # of connection points: 2
#     Edge 16, Type (0, 0), BuildingBlock: KIFKEQ_clean_linker_1, # of connection points: 2
#     Edge 17, Type (0, 0), BuildingBlock: KIFKEQ_clean_linker_1, # of connection points: 2
#     Edge 18, Type (0, 0), BuildingBlock: KIFKEQ_clean_linker_1, # of connection points: 2
#     Edge 19, Type (0, 0), BuildingBlock: KIFKEQ_clean_linker_1, # of connection points: 2
#     Edge 20, Type (0, 0), BuildingBlock: KIFKEQ_clean_linker_1, # of connection points: 2
#     Edge 21, Type (0, 0), BuildingBlock: KIFKEQ_clean_linker_1, # of connection points: 2
#     Edge 22, Type (0, 0), BuildingBlock: KIFKEQ_clean_linker_1, # of connection points: 2
#     Edge 23, Type (0, 0), BuildingBlock: KIFKEQ_clean_linker_1, # of connection points: 2
#     Edge 24, Type (0, 0), BuildingBlock: KIFKEQ_clean_linker_1, # of connection points: 2
#     Edge 25, Type (0, 0), BuildingBlock: KIFKEQ_clean_linker_1, # of connection points: 2
#     Edge 26, Type (0, 0), BuildingBlock: KIFKEQ_clean_linker_1, # of connection points: 2
#     Edge 27, Type (0, 0), BuildingBlock: KIFKEQ_clean_linker_1, # of connection points: 2
#     Edge 28, Type (0, 0), BuildingBlock: KIFKEQ_clean_linker_1, # of connection points: 2
#     Edge 29, Type (0, 0), BuildingBlock: KIFKEQ_clean_linker_1, # of connection points: 2
#     Edge 30, Type (0, 0), BuildingBlock: KIFKEQ_clean_linker_1, # of connection points: 2
#     Edge 31, Type (0, 0), BuildingBlock: KIFKEQ_clean_linker_1, # of connection points: 2
#     Edge 32, Type (0, 0), BuildingBlock: KIFKEQ_clean_linker_1, # of connection points: 2
#     Edge 33, Type (0, 0), BuildingBlock: KIFKEQ_clean_linker_1, # of connection points: 2
#     Edge 34, Type (0, 0), BuildingBlock: KIFKEQ_clean_linker_1, # of connection points: 2
#     Edge 35, Type (0, 0), BuildingBlock: KIFKEQ_clean_linker_1, # of connection points: 2
# Relax obj value: 0.100
# Max RMSD: 0.085
# Mean RMSD: 0.085
data_MOF--net-wje--node1-QUQFOY_clean_sbu_1--edge1-KIFKEQ_clean_linker_1
_symmetry_space_group_name_H-M    P1
_symmetry_Int_Tables_number       1
_symmetry_cell_setting            triclinic
loop_
_symmetry_equiv_pos_as_xyz
'x, y, z'
_cell_length_a     43.003401
_cell_length_b     42.995541
_cell_length_c     38.949723
_cell_angle_alpha  89.895085
_cell_angle_beta   90.093457
_cell_angle_gamma 119.99697
loop_
_atom_site_label
_atom_site_type_symbol
_atom_site_fract_x
_atom_site_fract_y
_atom_site_fract_z
_atom_type_partial_charge
O0 O 0.26602 1.00003 0.32295 0.0
Cd1 Cd 0.31588 0.04463 0.32882 0.0
Cd2 Cd 0.33721 0.99728 0.31947 0.0
O3 O 0.28497 0.96431 0.30352 0.0
O4 O 0.31316 0.08784 0.31376 0.0
O5 O 0.34488 0.06802 0.28631 0.0
C6 C 0.33303 0.09034 0.28784 0.0
C7 C 0.38644 0.99839 0.29272 0.0
C8 C 0.25934 0.96961 0.31159 0.0
C9 C 0.34064 0.02488 0.39148 0.0
O10 O 0.34195 0.00192 0.37196 0.0
O11 O 0.33441 0.04865 0.37892 0.0
O12 O 0.36197 0.96987 0.30762 0.0
O13 O 0.38212 0.026 0.29131 0.0
O14 O 0.26603 0.26165 0.65762 0.0
Cd15 Cd 0.26462 0.30837 0.66544 0.0
Cd16 Cd 0.33593 0.33818 0.65779 0.0
O17 O 0.32258 0.28785 0.64117 0.0
O18 O 0.21662 0.2991 0.6491 0.0
O19 O 0.26779 0.33921 0.62499 0.0
C20 C 0.23305 0.32231 0.625 0.0
C21 C 0.3876 0.38737 0.63452 0.0
C22 C 0.29286 0.25954 0.64714 0.0
C23 C 0.30608 0.33516 0.7294 0.0
O24 O 0.33222 0.34076 0.71018 0.0
O25 O 0.27538 0.32548 0.71631 0.0
O26 O 0.38913 0.3631 0.65248 0.0
O27 O 0.35628 0.3834 0.62865 0.0
O28 O 0.99944 0.2571 1.00079 0.0
Cd29 Cd 0.95533 0.26357 1.0042 0.0
Cd30 Cd 0.0035 0.33247 0.99462 0.0
O31 O 0.03678 0.31224 0.98313 0.0
O32 O 0.9119 0.21892 0.98754 0.0
O33 O 0.93515 0.27118 0.96045 0.0
C34 C 0.9116 0.23729 0.96134 0.0
C35 C 0.00844 0.38274 0.96585 0.0
C36 C 0.0306 0.28093 0.99111 0.0
C37 C 0.97144 0.30905 0.06567 0.0
O38 O 0.99476 0.33331 0.04638 0.0
O39 O 0.94919 0.27839 0.05335 0.0
O40 O 0.034 0.38482 0.9847 0.0
O41 O 0.98048 0.35144 0.96161 0.0
O42 O 0.74242 0.0047 0.32516 0.0
Cd43 Cd 0.69444 0.95818 0.33194 0.0
Cd44 Cd 0.66692 0.00155 0.32849 0.0
O45 O 0.71874 0.03883 0.31433 0.0
O46 O 0.70001 0.91703 0.31565 0.0
O47 O 0.66424 0.93337 0.29037 0.0
C48 C 0.67827 0.91286 0.29084 0.0
C49 C 0.61769 1.0006 0.30158 0.0
C50 C 0.74618 0.03525 0.3181 0.0
C51 C 0.66825 0.97129 0.39793 0.0
O52 O 0.66161 0.99238 0.38065 0.0
O53 O 0.67903 0.95201 0.38308 0.0
O54 O 0.64029 0.02774 0.3194 0.0
O55 O 0.62343 0.97405 0.29799 0.0
O56 O 0.73778 0.74606 0.65573 0.0
Cd57 Cd 0.7437 0.70217 0.66437 0.0
Cd58 Cd 0.67126 0.66401 0.66729 0.0
O59 O 0.67866 0.71434 0.65762 0.0
O60 O 0.79036 0.71115 0.64448 0.0
O61 O 0.7374 0.66916 0.62504 0.0
C62 C 0.77204 0.68613 0.62242 0.0
C63 C 0.61875 0.61551 0.64422 0.0
C64 C 0.70748 0.74445 0.65532 0.0
C65 C 0.71131 0.67225 0.73311 0.0
O66 O 0.68127 0.65753 0.71767 0.0
O67 O 0.74042 0.69038 0.71642 0.0
O68 O 0.61775 0.63624 0.66733 0.0
O69 O 0.64991 0.6223 0.63355 0.0
O70 O 0.98951 0.72625 0.98455 0.0
Cd71 Cd 0.04004 0.73368 0.99226 0.0
Cd72 Cd 0.00718 0.66146 0.99712 0.0
O73 O 0.96302 0.66727 0.98863 0.0
O74 O 0.07617 0.78122 0.97242 0.0
O75 O 0.06751 0.7293 0.95245 0.0
C76 C 0.08389 0.76394 0.95009 0.0
C77 C 0.00535 0.61014 0.97364 0.0
C78 C 0.96109 0.69571 0.98567 0.0
C79 C 0.03984 0.70315 0.06167 0.0
O80 O 0.02483 0.67266 0.0471 0.0
O81 O 0.0497 0.73165 0.04421 0.0
O82 O 0.98345 0.60803 0.99712 0.0
O83 O 0.02859 0.64173 0.96279 0.0
O84 O 0.00451 0.74465 0.38177 0.0
Cd85 Cd 0.95761 0.6967 0.37651 0.0
Cd86 Cd 1.00069 0.66852 0.37818 0.0
O87 O 0.03916 0.72091 0.38917 0.0
O88 O 0.91727 0.70259 0.39456 0.0
O89 O 0.93429 0.66679 0.41863 0.0
C90 C 0.91385 0.68089 0.41915 0.0
C91 C 0.00351 0.62086 0.40471 0.0
C92 C 0.03543 0.74837 0.38645 0.0
C93 C 0.96661 0.66806 0.31022 0.0
O94 O 0.98755 0.66071 0.32684 0.0
O95 O 0.94914 0.68061 0.32558 0.0
O96 O 0.02787 0.64243 0.38373 0.0
O97 O 0.97773 0.62696 0.41179 0.0
O98 O 0.26141 0.0025 0.70956 0.0
Cd99 Cd 0.25963 0.95393 0.70519 0.0
Cd100 Cd 0.33184 0.99258 0.71047 0.0
O101 O 0.3201 0.03294 0.71747 0.0
O102 O 0.21302 0.91437 0.72342 0.0
O103 O 0.26562 0.93098 0.74786 0.0
C104 C 0.23102 0.91084 0.74825 0.0
C105 C 0.3836 0.99907 0.73786 0.0
C106 C 0.29033 0.03213 0.71388 0.0
C107 C 0.30052 0.95903 0.64165 0.0
O108 O 0.32819 0.97774 0.65992 0.0
O109 O 0.26936 0.9444 0.65507 0.0
O110 O 0.38508 0.02143 0.71516 0.0
O111 O 0.35231 0.97298 0.7461 0.0
O112 O 0.25865 0.25611 0.0519 0.0
Cd113 Cd 0.30956 0.2635 0.04601 0.0
Cd114 Cd 0.32702 0.33053 0.05721 0.0
O115 O 0.27556 0.30864 0.07567 0.0
O116 O 0.30939 0.21882 0.06114 0.0
O117 O 0.33881 0.27065 0.08871 0.0
C118 C 0.32867 0.23682 0.08716 0.0
C119 C 0.37548 0.38148 0.08184 0.0
C120 C 0.25073 0.27801 0.06576 0.0
C121 C 0.3307 0.30818 0.98431 0.0
O122 O 0.32887 0.33034 1.00452 0.0
O123 O 0.3289 0.27971 0.99629 0.0
O124 O 0.3494 0.38293 0.06716 0.0
O125 O 0.37317 0.35044 0.08434 0.0
O126 O 0.99765 0.26638 0.38491 0.0
Cd127 Cd 0.0446 0.31464 0.38067 0.0
Cd128 Cd 0.99911 0.34028 0.38574 0.0
O129 O 0.96185 0.2877 0.39723 0.0
O130 O 0.08334 0.30532 0.39699 0.0
O131 O 0.07039 0.34319 0.42292 0.0
C132 C 0.0888 0.32689 0.42224 0.0
C133 C 0.99572 0.3877 0.41181 0.0
C134 C 0.96656 0.26117 0.39192 0.0
C135 C 0.03347 0.34431 0.31643 0.0
O136 O 0.01114 0.34852 0.33426 0.0
O137 O 0.05313 0.33345 0.33047 0.0
O138 O 0.97092 0.36522 0.39173 0.0
O139 O 0.02213 0.38243 0.41858 0.0
O140 O 0.73547 0.99809 0.7229 0.0
Cd141 Cd 0.74076 0.04774 0.71497 0.0
Cd142 Cd 0.66847 0.01299 0.71148 0.0
O143 O 0.67638 0.97017 0.71984 0.0
O144 O 0.78754 0.08528 0.73484 0.0
O145 O 0.73472 0.07416 0.75473 0.0
C146 C 0.76938 0.09182 0.7572 0.0
C147 C 0.61606 0.00814 0.73555 0.0
C148 C 0.70535 0.96918 0.7224 0.0
C149 C 0.70839 0.04622 0.64624 0.0
O150 O 0.67824 0.0306 0.66141 0.0
O151 O 0.73738 0.05679 0.66307 0.0
O152 O 0.61499 0.98684 0.71194 0.0
O153 O 0.64725 0.03261 0.74612 0.0
O154 O 0.73943 0.72685 0.05951 0.0
Cd155 Cd 0.69685 0.73488 0.05062 0.0
Cd156 Cd 0.65718 0.66253 0.04488 0.0
O157 O 0.70675 0.66795 0.05471 0.0
O158 O 0.70811 0.78234 0.07051 0.0
O159 O 0.66397 0.7304 0.08957 0.0
C160 C 0.6824 0.76501 0.09221 0.0
C161 C 0.60697 0.61057 0.06676 0.0
C162 C 0.73712 0.69623 0.0584 0.0
C163 C 0.66854 0.70549 0.98051 0.0
O164 O 0.65243 0.67482 0.99478 0.0
O165 O 0.68677 0.73373 0.99836 0.0
O166 O 0.6274 0.60909 0.0436 0.0
O167 O 0.61503 0.64187 0.07815 0.0
H168 H 0.31736 0.14472 0.28648 0.0
H169 H 0.36254 0.09389 0.22456 0.0
H170 H 0.32149 0.18244 0.23783 0.0
H171 H 0.36674 0.13176 0.17585 0.0
H172 H 0.35735 0.26374 0.15053 0.0
H173 H 0.36365 0.23138 0.19928 0.0
H174 H 0.32293 0.13573 0.13725 0.0
H175 H 0.3167 0.16801 0.08857 0.0
C176 C 0.32866 0.14193 0.26264 0.0
C177 C 0.33952 0.11616 0.25947 0.0
C178 C 0.33117 0.1637 0.23474 0.0
C179 C 0.34429 0.16007 0.20282 0.0
C180 C 0.35614 0.13501 0.19994 0.0
C181 C 0.35396 0.11347 0.22796 0.0
C182 C 0.35021 0.23595 0.14713 0.0
C183 C 0.33643 0.21848 0.11559 0.0
C184 C 0.3536 0.21732 0.17517 0.0
C185 C 0.34365 0.18087 0.17229 0.0
C186 C 0.33117 0.16384 0.14035 0.0
C187 C 0.32745 0.18235 0.11243 0.0
H188 H 0.16346 0.27687 0.60699 0.0
H189 H 0.25612 0.37791 0.57863 0.0
H190 H 0.13083 0.28096 0.55741 0.0
H191 H 0.22269 0.38236 0.52934 0.0
H192 H 0.11869 0.37957 0.47166 0.0
H193 H 0.15529 0.38179 0.52124 0.0
H194 H 0.14913 0.28334 0.4878 0.0
H195 H 0.11372 0.28152 0.43797 0.0
C196 C 0.1767 0.30027 0.59053 0.0
C197 C 0.21245 0.32707 0.59679 0.0
C198 C 0.15801 0.30248 0.56207 0.0
C199 C 0.1743 0.33191 0.53958 0.0
C200 C 0.20954 0.35945 0.5464 0.0
C201 C 0.22862 0.35685 0.57453 0.0
C202 C 0.12559 0.35869 0.47467 0.0
C203 C 0.11332 0.33039 0.45082 0.0
C204 C 0.14654 0.36002 0.50297 0.0
C205 C 0.15481 0.33263 0.50833 0.0
C206 C 0.14299 0.3047 0.48428 0.0
C207 C 0.12285 0.30379 0.45568 0.0
H208 H 0.84072 0.14155 0.76264 0.0
H209 H 0.74015 0.09923 0.81702 0.0
H210 H 0.87228 0.17936 0.81187 0.0
H211 H 0.7719 0.13699 0.86649 0.0
H212 H 0.85292 0.16966 0.95942 0.0
H213 H 0.81644 0.1376 0.90958 0.0
H214 H 0.87825 0.23158 0.84673 0.0
H215 H 0.91466 0.26381 0.89666 0.0
C216 C 0.82527 0.14059 0.78496 0.0
C217 C 0.7879 0.11728 0.78588 0.0
C218 C 0.84336 0.16241 0.81313 0.0
C219 C 0.82463 0.16114 0.84315 0.0
C220 C 0.78713 0.1384 0.84383 0.0
C221 C 0.76893 0.11693 0.81541 0.0
C222 C 0.85842 0.18369 0.9351 0.0
C223 C 0.88681 0.21929 0.93205 0.0
C224 C 0.83739 0.16534 0.90655 0.0
C225 C 0.84454 0.18197 0.87413 0.0
C226 C 0.87226 0.21792 0.87129 0.0
C227 C 0.89298 0.23645 0.89996 0.0
H228 H 0.70397 0.83646 0.0955 0.0
H229 H 0.64639 0.73751 0.15269 0.0
H230 H 0.6976 0.86936 0.14352 0.0
H231 H 0.64058 0.77066 0.20104 0.0
H232 H 0.69096 0.85653 0.29092 0.0
H233 H 0.68688 0.81854 0.24249 0.0
H234 H 0.64868 0.87399 0.17779 0.0
H235 H 0.65218 0.91168 0.22638 0.0
C236 C 0.68967 0.82167 0.11821 0.0
C237 C 0.67572 0.78435 0.12026 0.0
C238 C 0.68589 0.84052 0.14566 0.0
C239 C 0.66864 0.82262 0.1761 0.0
C240 C 0.65415 0.7852 0.17798 0.0
C241 C 0.65732 0.76621 0.15022 0.0
C242 C 0.68116 0.86027 0.26651 0.0
C243 C 0.67193 0.88718 0.26253 0.0
C244 C 0.67871 0.8384 0.2388 0.0
C245 C 0.6676 0.84336 0.20628 0.0
C246 C 0.65754 0.86969 0.20248 0.0
C247 C 0.65935 0.89112 0.23038 0.0
H248 H 0.91399 0.65409 0.48299 0.0
H249 H 0.85808 0.69431 0.42141 0.0
H250 H 0.87761 0.65049 0.53278 0.0
H251 H 0.82148 0.69022 0.47101 0.0
H252 H 0.74282 0.65086 0.56201 0.0
H253 H 0.77443 0.64452 0.51264 0.0
H254 H 0.87428 0.69876 0.56871 0.0
H255 H 0.8429 0.70557 0.61782 0.0
C256 C 0.89355 0.66158 0.47991 0.0
C257 C 0.88902 0.67459 0.44823 0.0
C258 C 0.87287 0.65971 0.50848 0.0
C259 C 0.84674 0.67016 0.50586 0.0
C260 C 0.8412 0.68172 0.47381 0.0
C261 C 0.86228 0.68419 0.44542 0.0
C262 C 0.77144 0.66103 0.56396 0.0
C263 C 0.79035 0.67882 0.59384 0.0
C264 C 0.78955 0.65756 0.53561 0.0
C265 C 0.82686 0.67119 0.53675 0.0
C266 C 0.8455 0.68772 0.56712 0.0
C267 C 0.82752 0.69176 0.5952 0.0
H268 H 0.16181 0.85505 0.75004 0.0
H269 H 0.25733 0.91072 0.81233 0.0
H270 H 0.1291 0.81754 0.79922 0.0
H271 H 0.22434 0.87348 0.8617 0.0
H272 H 0.13367 0.83543 0.94641 0.0
H273 H 0.17169 0.86849 0.89767 0.0
H274 H 0.12878 0.76992 0.83997 0.0
H275 H 0.09106 0.73662 0.88899 0.0
C276 C 0.17593 0.85906 0.77414 0.0
C277 C 0.21218 0.88592 0.77725 0.0
C278 C 0.15721 0.83746 0.80227 0.0
C279 C 0.17411 0.84261 0.83437 0.0
C280 C 0.21055 0.86901 0.83734 0.0
C281 C 0.22947 0.8902 0.80902 0.0
C282 C 0.13265 0.82071 0.9235 0.0
C283 C 0.10928 0.78338 0.9216 0.0
C284 C 0.15456 0.83964 0.89563 0.0
C285 C 0.15317 0.82183 0.86494 0.0
C286 C 0.13029 0.7844 0.86321 0.0
C287 C 0.10884 0.76533 0.89135 0.0
H288 H 0.45363 0.05629 0.29533 0.0
H289 H 0.3953 0.94452 0.26676 0.0
H290 H 0.50985 0.05647 0.28996 0.0
H291 H 0.45165 0.94503 0.25826 0.0
H292 H 0.55041 0.94261 0.29943 0.0
H293 H 0.4947 0.94267 0.28949 0.0
H294 H 0.55537 0.05546 0.26248 0.0
H295 H 0.61078 0.05558 0.27564 0.0
C296 C 0.45301 0.03208 0.28657 0.0
C297 C 0.42019 1.00035 0.2817 0.0
C298 C 0.4854 0.0321 0.28328 0.0
C299 C 0.4858 1.00056 0.27408 0.0
C300 C 0.45275 0.96957 0.26653 0.0
C301 C 0.42034 0.96931 0.27091 0.0
C302 C 0.55168 0.96719 0.29081 0.0
C303 C 0.58475 0.99912 0.28857 0.0
C304 C 0.51964 0.96732 0.28486 0.0
C305 C 0.51999 0.99926 0.27555 0.0
C306 C 0.55356 0.03057 0.27075 0.0
C307 C 0.58549 0.03063 0.27783 0.0
H308 H 0.55075 0.60176 0.65565 0.0
H309 H 0.61036 0.5582 0.60591 0.0
H310 H 0.49494 0.54698 0.64341 0.0
H311 H 0.55397 0.50308 0.59309 0.0
H312 H 0.39566 0.45036 0.60854 0.0
H313 H 0.45204 0.50693 0.60083 0.0
H314 H 0.5114 0.45437 0.63004 0.0
H315 H 0.45547 0.39809 0.6371 0.0
C316 C 0.55189 0.58068 0.64152 0.0
C317 C 0.58502 0.58412 0.63214 0.0
C318 C 0.51977 0.54933 0.63418 0.0
C319 C 0.51994 0.52055 0.61737 0.0
C320 C 0.55299 0.52467 0.60639 0.0
C321 C 0.58525 0.55625 0.6136 0.0
C322 C 0.4208 0.45076 0.6125 0.0
C323 C 0.42111 0.41991 0.62388 0.0
C324 C 0.45307 0.48318 0.60827 0.0
C325 C 0.48622 0.48526 0.61518 0.0
C326 C 0.48645 0.45373 0.62421 0.0
C327 C 0.45429 0.42147 0.62855 0.0
H328 H 0.95237 0.54126 0.98369 0.0
H329 H 0.05633 0.60436 0.93614 0.0
H330 H 0.95356 0.48665 0.97106 0.0
H331 H 0.05737 0.54915 0.92301 0.0
H332 H 0.06533 0.45102 0.96778 0.0
H333 H 0.06403 0.50643 0.95976 0.0
H334 H 0.95308 0.44541 0.92794 0.0
H335 H 0.95419 0.38967 0.9366 0.0
C336 C 0.97526 0.54343 0.96995 0.0
C337 C 0.00447 0.57718 0.96128 0.0
C338 C 0.97578 0.512 0.96239 0.0
C339 C 0.0056 0.51347 0.94607 0.0
C340 C 0.03413 0.54715 0.93585 0.0
C341 C 0.03348 0.57873 0.94324 0.0
C342 C 0.04086 0.44939 0.95831 0.0
C343 C 0.00967 0.4159 0.95338 0.0
C344 C 0.0402 0.48125 0.95347 0.0
C345 C 0.00831 0.48036 0.94366 0.0
C346 C 0.97791 0.44695 0.93607 0.0
C347 C 0.9786 0.41502 0.94083 0.0
H348 H 0.05755 0.60566 0.39859 0.0
H349 H 0.95048 0.56301 0.4394 0.0
H350 H 0.0552 0.54909 0.41049 0.0
H351 H 0.94834 0.50619 0.45199 0.0
H352 H 0.94072 0.40159 0.40633 0.0
H353 H 0.94324 0.45877 0.41448 0.0
H354 H 0.05219 0.50517 0.45166 0.0
H355 H 0.04985 0.44773 0.44281 0.0
C356 C 0.03375 0.58442 0.41082 0.0
C357 C 0.004 0.58868 0.41762 0.0
C358 C 0.03253 0.552 0.41793 0.0
C359 C 0.00148 0.52294 0.43199 0.0
C360 C 0.9725 0.52791 0.44074 0.0
C361 C 0.97378 0.56051 0.4337 0.0
C362 C 0.96501 0.42376 0.4169 0.0
C363 C 0.99527 0.42025 0.42346 0.0
C364 C 0.96636 0.45656 0.42184 0.0
C365 C 0.99804 0.48673 0.43341 0.0
C366 C 0.02754 0.48257 0.44223 0.0
C367 C 0.02614 0.44962 0.43737 0.0
H368 H 0.60728 0.05795 0.7718 0.0
H369 H 0.54851 0.9519 0.72743 0.0
H370 H 0.55047 0.05596 0.78427 0.0
H371 H 0.49226 0.95005 0.73947 0.0
H372 H 0.39252 0.94756 0.77071 0.0
H373 H 0.44948 0.94934 0.78162 0.0
H374 H 0.50723 0.05874 0.74472 0.0
H375 H 0.45073 0.05709 0.7343 0.0
C376 C 0.58228 0.03398 0.76536 0.0
C377 C 0.58234 0.0053 0.74822 0.0
C378 C 0.54978 0.03287 0.77238 0.0
C379 C 0.51684 0.00292 0.76269 0.0
C380 C 0.51703 0.97336 0.74764 0.0
C381 C 0.54937 0.97458 0.74041 0.0
C382 C 0.41742 0.97225 0.76585 0.0
C383 C 0.41718 0.00199 0.75117 0.0
C384 C 0.45002 0.97323 0.77192 0.0
C385 C 0.48287 0.00406 0.76368 0.0
C386 C 0.48251 0.03468 0.75162 0.0
C387 C 0.45004 0.03361 0.74535 0.0
H388 H 0.4393 0.38917 0.10459 0.0
H389 H 0.38669 0.44977 0.0805 0.0
H390 H 0.49651 0.44513 0.10997 0.0
H391 H 0.44377 0.50543 0.08517 0.0
H392 H 0.55088 0.60372 0.10621 0.0
H393 H 0.49504 0.54819 0.11963 0.0
H394 H 0.53459 0.48701 0.06607 0.0
H395 H 0.59004 0.54192 0.05322 0.0
C396 C 0.43979 0.41441 0.10112 0.0
C397 C 0.40853 0.41498 0.09168 0.0
C398 C 0.4726 0.44648 0.10398 0.0
C399 C 0.47483 0.47976 0.09752 0.0
C400 C 0.44306 0.48036 0.09054 0.0
C401 C 0.41031 0.44835 0.08764 0.0
C402 C 0.54778 0.57831 0.09784 0.0
C403 C 0.57473 0.57725 0.0784 0.0
C404 C 0.51578 0.54654 0.10539 0.0
C405 C 0.5103 0.51312 0.09389 0.0
C406 C 0.53802 0.51212 0.07579 0.0
C407 C 0.56976 0.54374 0.06811 0.0
H408 H 0.03785 0.81059 0.36657 0.0
H409 H 0.10594 0.76675 0.39304 0.0
H410 H 0.08974 0.86451 0.34453 0.0
H411 H 0.15797 0.82115 0.37185 0.0
H412 H 0.2002 0.96937 0.33763 0.0
H413 H 0.1456 0.91745 0.35839 0.0
H414 H 0.18044 0.84722 0.31579 0.0
H415 H 0.23563 0.8992 0.29583 0.0
C416 C 0.06401 0.81281 0.36857 0.0
C417 C 0.06764 0.78413 0.38132 0.0
C418 C 0.09378 0.84374 0.35577 0.0
C419 C 0.12786 0.84676 0.35563 0.0
C420 C 0.13187 0.81917 0.37058 0.0
C421 C 0.10212 0.78819 0.38324 0.0
C422 C 0.19593 0.94285 0.33197 0.0
C423 C 0.2226 0.93851 0.31543 0.0
C424 C 0.16458 0.91304 0.344 0.0
C425 C 0.1591 0.87823 0.33957 0.0
C426 C 0.18441 0.87377 0.32059 0.0
C427 C 0.21582 0.90357 0.30866 0.0
H428 H 0.34964 0.25013 0.65835 0.0
H429 H 0.23457 0.19129 0.64478 0.0
H430 H 0.34853 0.19616 0.67668 0.0
H431 H 0.23354 0.13571 0.66034 0.0
H432 H 0.23696 0.04869 0.7243 0.0
H433 H 0.23718 0.10314 0.7056 0.0
H434 H 0.34376 0.14348 0.66355 0.0
H435 H 0.3445 0.09134 0.68496 0.0
C436 C 0.32415 0.22523 0.65794 0.0
C437 C 0.2922 0.22497 0.64994 0.0
C438 C 0.32346 0.19396 0.66849 0.0
C439 C 0.2909 0.16111 0.67021 0.0
C440 C 0.25906 0.1605 0.66026 0.0
C441 C 0.25965 0.19222 0.65069 0.0
C442 C 0.26066 0.06981 0.71184 0.0
C443 C 0.29096 0.06615 0.70679 0.0
C444 C 0.26064 0.10078 0.70051 0.0
C445 C 0.29052 0.12811 0.6829 0.0
C446 C 0.32062 0.12394 0.67785 0.0
C447 C 0.32107 0.09379 0.69016 0.0
H448 H 0.19183 0.21877 0.03929 0.0
H449 H 0.22592 0.32318 0.08349 0.0
H450 H 0.13673 0.21588 1.01896 0.0
H451 H 0.17084 0.32002 0.06329 0.0
H452 H 0.10184 0.32848 0.98096 0.0
H453 H 0.15222 0.32347 1.0027 0.0
H454 H 0.07952 0.215 0.03614 0.0
H455 H 0.0288 0.21976 1.01423 0.0
C456 C 0.18718 0.24065 0.04554 0.0
C457 C 0.21362 0.27149 0.06256 0.0
C458 C 0.15565 0.23901 0.03373 0.0
C459 C 0.15009 0.26819 0.03867 0.0
C460 C 0.17499 0.29757 0.05828 0.0
C461 C 0.20635 0.29916 0.07023 0.0
C462 C 0.09653 0.30325 0.99224 0.0
C463 C 0.06119 0.27469 0.99619 0.0
C464 C 0.12538 0.30056 1.00511 0.0
C465 C 0.11962 0.26921 1.02198 0.0
C466 C 0.08466 0.2396 0.02353 0.0
C467 C 0.05568 0.24233 1.01081 0.0
H468 H 0.96618 0.20096 0.36893 0.0
H469 H 0.89554 0.23967 0.4016 0.0
H470 H 0.9149 0.14639 0.3474 0.0
H471 H 0.84405 0.1844 0.38107 0.0
H472 H 0.76492 0.10527 0.30631 0.0
H473 H 0.81912 0.15849 0.32606 0.0
H474 H 0.86169 0.0918 0.36122 0.0
H475 H 0.80815 0.0388 0.34048 0.0
C476 C 0.93961 0.19746 0.37239 0.0
C477 C 0.93505 0.22493 0.38675 0.0
C478 C 0.91016 0.16611 0.35991 0.0
C479 C 0.87541 0.16133 0.36176 0.0
C480 C 0.87059 0.18771 0.37826 0.0
C481 C 0.90007 0.2192 0.39054 0.0
C482 C 0.7862 0.10203 0.31747 0.0
C483 C 0.782 0.0677 0.32202 0.0
C484 C 0.81706 0.1325 0.32931 0.0
C485 C 0.84435 0.12933 0.3461 0.0
C486 C 0.84122 0.09526 0.34849 0.0
C487 C 0.81048 0.06482 0.33644 0.0
H488 H 0.76138 0.8144 0.647 0.0
H489 H 0.64964 0.7495 0.67516 0.0
H490 H 0.76019 0.86826 0.66456 0.0
H491 H 0.64901 0.80239 0.69466 0.0
H492 H 0.64863 0.9067 0.70005 0.0
H493 H 0.64912 0.85387 0.68011 0.0
H494 H 0.75928 0.89913 0.7138 0.0
H495 H 0.7594 0.95354 0.73182 0.0
C496 C 0.73649 0.81167 0.65656 0.0
C497 C 0.70561 0.77766 0.65953 0.0
C498 C 0.73593 0.84247 0.6672 0.0
C499 C 0.70465 0.83982 0.68159 0.0
C500 C 0.6735 0.80583 0.68333 0.0
C501 C 0.67386 0.77528 0.67207 0.0
C502 C 0.67285 0.90527 0.70381 0.0
C503 C 0.70401 0.93443 0.71757 0.0
C504 C 0.67313 0.87476 0.6923 0.0
C505 C 0.70433 0.87211 0.69498 0.0
C506 C 0.73501 0.90054 0.71044 0.0
C507 C 0.73495 0.93152 0.72134 0.0
H508 H 0.74139 0.63816 0.03732 0.0
H509 H 0.80729 0.74929 0.06712 0.0
H510 H 0.79395 0.6375 1.01651 0.0
H511 H 0.86065 0.74807 0.04802 0.0
H512 H 0.94414 0.74894 0.97737 0.0
H513 H 0.88983 0.74794 0.99702 0.0
H514 H 0.84616 0.63755 0.0293 0.0
H515 H 0.8991 0.63798 1.00794 0.0
C516 C 0.7673 0.66221 0.04047 0.0
C517 C 0.77005 0.69386 0.0538 0.0
C518 C 0.79763 0.66183 0.02843 0.0
C519 C 0.8317 0.69288 0.03004 0.0
C520 C 0.83475 0.72393 0.0454 0.0
C521 C 0.80423 0.72449 0.05693 0.0
C522 C 0.9225 0.72423 0.98788 0.0
C523 C 0.92599 0.69355 0.99098 0.0
C524 C 0.89158 0.72381 0.99973 0.0
C525 C 0.8637 0.69285 1.01539 0.0
C526 C 0.86672 0.6618 1.01712 0.0
C527 C 0.89725 0.66204 1.00476 0.0
H528 H 0.31119 0.04678 0.44167 0.0
H529 H 0.36817 0.98896 0.42611 0.0
H530 H 0.30065 0.02711 0.50165 0.0
H531 H 0.35756 0.9693 0.48582 0.0
H532 H 0.36091 0.97466 0.60551 0.0
H533 H 0.37305 0.99243 0.54535 0.0
H534 H 0.26338 0.96788 0.53209 0.0
H535 H 0.25117 0.95013 0.59245 0.0
C536 C 0.32217 0.03058 0.45121 0.0
C537 C 0.34059 0.01951 0.42911 0.0
C538 C 0.31563 0.01883 0.48541 0.0
C539 C 0.32776 0.99615 0.49832 0.0
C540 C 0.34782 0.98669 0.47669 0.0
C541 C 0.35399 0.99807 0.44248 0.0
C542 C 0.33911 0.9722 0.58958 0.0
C543 C 0.30505 0.96092 0.60382 0.0
C544 C 0.34614 0.98254 0.55511 0.0
C545 C 0.31937 0.9822 0.53412 0.0
C546 C 0.28476 0.9691 0.54783 0.0
C547 C 0.2776 0.95834 0.58226 0.0
H548 H 0.3174 0.35672 0.95246 0.0
H549 H 0.34184 0.27263 0.93096 0.0
H550 H 0.31115 0.36394 0.89137 0.0
H551 H 0.33616 0.2806 0.86924 0.0
H552 H 0.36331 0.339 0.76331 0.0
H553 H 0.36976 0.33229 0.82446 0.0
H554 H 0.26701 0.32403 0.84298 0.0
H555 H 0.25992 0.33004 0.78117 0.0
C556 C 0.32187 0.33999 0.93472 0.0
C557 C 0.33031 0.31412 0.94673 0.0
C558 C 0.31793 0.34399 0.89969 0.0
C559 C 0.32291 0.32271 0.87562 0.0
C560 C 0.33221 0.29741 0.88734 0.0
C561 C 0.33553 0.29289 0.92261 0.0
C562 C 0.34208 0.33609 0.78028 0.0
C563 C 0.31105 0.33519 0.76719 0.0
C564 C 0.34574 0.33188 0.81534 0.0
C565 C 0.3188 0.32732 0.83839 0.0
C566 C 0.28822 0.32752 0.82567 0.0
C567 C 0.2842 0.33106 0.79035 0.0
H568 H 0.04877 0.30761 0.26832 0.0
H569 H 0.01048 0.38273 0.27927 0.0
H570 H 0.03119 0.29949 0.20775 0.0
H571 H 0.99313 0.37473 0.21882 0.0
H572 H 1.00119 0.37329 0.09897 0.0
H573 H 0.01924 0.38484 0.15917 0.0
H574 H 0.9702 0.27083 0.17733 0.0
H575 H 0.95192 0.25918 0.11701 0.0
C576 C 0.03755 0.32314 0.2576 0.0
C577 C 0.03111 0.34589 0.27857 0.0
C578 C 0.02694 0.31804 0.22308 0.0
C579 C 0.0102 0.33601 0.20873 0.0
C580 C 0.00586 0.36045 0.22916 0.0
C581 C 0.01595 0.36514 0.26374 0.0
C582 C 0.99354 0.35063 0.11598 0.0
C583 C 0.97502 0.3153 0.10323 0.0
C584 C 0.00402 0.35728 0.15042 0.0
C585 C 0.99669 0.32878 0.1728 0.0
C586 C 0.97677 0.29336 0.16048 0.0
C587 C 0.96579 0.28666 0.1261 0.0
H588 H 0.72511 0.98312 0.43666 0.0
H589 H 0.62085 0.97391 0.44282 0.0
H590 H 0.73859 0.00645 0.49454 0.0
H591 H 0.6322 0.99353 0.50242 0.0
H592 H 0.66791 0.05763 0.59907 0.0
H593 H 0.65878 0.03923 0.5391 0.0
H594 H 0.73502 0.0019 0.55089 0.0
H595 H 0.74649 0.02395 0.60916 0.0
C596 C 0.7044 0.9846 0.45116 0.0
C597 C 0.67175 0.97622 0.4355 0.0
C598 C 0.71208 0.99812 0.48462 0.0
C599 C 0.68676 0.00249 0.50391 0.0
C600 C 0.65314 0.99197 0.48854 0.0
C601 C 0.64609 0.97981 0.45452 0.0
C602 C 0.68358 0.0467 0.58816 0.0
C603 C 0.7084 0.04289 0.60851 0.0
C604 C 0.67777 0.03521 0.55391 0.0
C605 C 0.69546 0.01807 0.53956 0.0
C606 C 0.72114 0.0154 0.56003 0.0
C607 C 0.72792 0.02819 0.59376 0.0
H608 H 0.61967 0.6635 0.93189 0.0
H609 H 0.72938 0.74809 0.94486 0.0
H610 H 0.63212 0.65611 0.87244 0.0
H611 H 0.74306 0.73888 0.88674 0.0
H612 H 0.75288 0.73143 0.77126 0.0
H613 H 0.74145 0.74294 0.82943 0.0
H614 H 0.6573 0.63185 0.83887 0.0
H615 H 0.667 0.62168 0.77936 0.0
C616 C 0.64635 0.68089 0.92175 0.0
C617 C 0.67338 0.70669 0.94285 0.0
C618 C 0.65387 0.67614 0.88782 0.0
C619 C 0.68899 0.69617 0.87447 0.0
C620 C 0.71559 0.72306 0.89542 0.0
C621 C 0.70773 0.72855 0.92895 0.0
C622 C 0.73255 0.70927 0.78613 0.0
C623 C 0.71102 0.67557 0.77086 0.0
C624 C 0.72577 0.71587 0.81969 0.0
C625 C 0.69786 0.68861 0.83927 0.0
C626 C 0.67811 0.65409 0.82455 0.0
C627 C 0.68417 0.64787 0.7906 0.0
H628 H 0.97774 0.72412 0.27048 0.0
H629 H 0.9671 0.61914 0.2659 0.0
H630 H 1.00033 0.73629 0.21229 0.0
H631 H 0.98607 0.62926 0.20609 0.0
H632 H 0.05108 0.66349 0.10994 0.0
H633 H 0.03242 0.65536 0.16982 0.0
H634 H 0.99542 0.73162 0.15583 0.0
H635 H 0.01763 0.74207 0.09758 0.0
C636 C 0.97867 0.70294 0.25628 0.0
C637 C 0.97021 0.67051 0.2725 0.0
C638 C 0.99181 0.70989 0.22266 0.0
C639 C 0.99574 0.68405 0.20381 0.0
C640 C 0.98489 0.65058 0.21966 0.0
C641 C 0.97308 0.64423 0.25379 0.0
C642 C 0.04016 0.67939 0.12032 0.0
C643 C 0.03645 0.70388 0.09935 0.0
C644 C 0.02852 0.67414 0.15451 0.0
C645 C 0.01138 0.69212 0.1682 0.0
C646 C 0.00887 0.71752 0.14715 0.0
C647 C 0.02177 0.72371 0.11345 0.0
loop_
_geom_bond_atom_site_label_1
_geom_bond_atom_site_label_2
_geom_bond_distance
_geom_bond_site_symmetry_2
_ccdc_geom_bond_type
O0 Cd1 2.223 . S
O0 C8 1.315 1_545 S
Cd1 O0 2.223 . S
Cd1 O4 2.297 . S
Cd1 O5 2.439 . S
Cd1 O11 2.240 . S
Cd2 O3 2.240 . S
Cd2 O10 2.223 . S
Cd2 O12 2.297 . S
Cd2 O13 2.439 1_565 S
O3 Cd2 2.240 . S
O3 C8 1.279 . S
O4 Cd1 2.297 . S
O4 C6 1.247 . S
O5 Cd1 2.439 . S
O5 C6 1.208 . S
C6 O4 1.247 . S
C6 O5 1.208 . S
C7 O12 1.247 1_545 S
C7 O13 1.208 . S
C8 O0 1.315 1_565 S
C8 O3 1.279 . S
C9 O10 1.315 1_545 S
C9 O11 1.279 . S
O10 Cd2 2.223 . S
O10 C9 1.315 1_565 S
O11 Cd1 2.240 . S
O11 C9 1.279 . S
O12 Cd2 2.297 . S
O12 C7 1.247 1_565 S
O13 Cd2 2.439 1_545 S
O13 C7 1.208 . S
O14 Cd15 2.223 . S
O14 C22 1.315 . S
Cd15 O14 2.223 . S
Cd15 O18 2.297 . S
Cd15 O19 2.439 . S
Cd15 O25 2.240 . S
Cd16 O17 2.240 . S
Cd16 O24 2.223 . S
Cd16 O26 2.297 . S
Cd16 O27 2.439 . S
O17 Cd16 2.240 . S
O17 C22 1.279 . S
O18 Cd15 2.297 . S
O18 C20 1.247 . S
O19 Cd15 2.439 . S
O19 C20 1.208 . S
C20 O18 1.247 . S
C20 O19 1.208 . S
C21 O26 1.247 . S
C21 O27 1.208 . S
C22 O14 1.315 . S
C22 O17 1.279 . S
C23 O24 1.315 . S
C23 O25 1.279 . S
O24 Cd16 2.223 . S
O24 C23 1.315 . S
O25 Cd15 2.240 . S
O25 C23 1.279 . S
O26 Cd16 2.297 . S
O26 C21 1.247 . S
O27 Cd16 2.439 . S
O27 C21 1.208 . S
O28 Cd29 2.223 1_554 S
O28 C36 1.315 1_654 S
Cd29 O28 2.223 1_556 S
Cd29 O32 2.297 . S
Cd29 O33 2.439 . S
Cd29 O39 2.240 1_556 S
Cd30 O31 2.240 . S
Cd30 O38 2.223 1_556 S
Cd30 O40 2.297 1_556 S
Cd30 O41 2.439 1_455 S
O31 Cd30 2.240 . S
O31 C36 1.279 . S
O32 Cd29 2.297 . S
O32 C34 1.247 . S
O33 Cd29 2.439 . S
O33 C34 1.208 . S
C34 O32 1.247 . S
C34 O33 1.208 . S
C35 O40 1.247 1_656 S
C35 O41 1.208 . S
C36 O28 1.315 1_456 S
C36 O31 1.279 . S
C37 O38 1.315 1_655 S
C37 O39 1.279 . S
O38 Cd30 2.223 1_554 S
O38 C37 1.315 1_455 S
O39 Cd29 2.240 1_554 S
O39 C37 1.279 . S
O40 Cd30 2.297 1_554 S
O40 C35 1.247 1_454 S
O41 Cd30 2.439 1_655 S
O41 C35 1.208 . S
O42 Cd43 2.223 . S
O42 C50 1.315 1_565 S
Cd43 O42 2.223 . S
Cd43 O46 2.297 . S
Cd43 O47 2.439 . S
Cd43 O53 2.240 . S
Cd44 O45 2.240 . S
Cd44 O52 2.223 . S
Cd44 O54 2.297 . S
Cd44 O55 2.439 1_545 S
O45 Cd44 2.240 . S
O45 C50 1.279 . S
O46 Cd43 2.297 . S
O46 C48 1.247 . S
O47 Cd43 2.439 . S
O47 C48 1.208 . S
C48 O46 1.247 . S
C48 O47 1.208 . S
C49 O54 1.247 1_565 S
C49 O55 1.208 . S
C50 O42 1.315 1_545 S
C50 O45 1.279 . S
C51 O52 1.315 1_565 S
C51 O53 1.279 . S
O52 Cd44 2.223 . S
O52 C51 1.315 1_545 S
O53 Cd43 2.240 . S
O53 C51 1.279 . S
O54 Cd44 2.297 . S
O54 C49 1.247 1_545 S
O55 Cd44 2.439 1_565 S
O55 C49 1.208 . S
O56 Cd57 2.223 . S
O56 C64 1.315 . S
Cd57 O56 2.223 . S
Cd57 O60 2.297 . S
Cd57 O61 2.439 . S
Cd57 O67 2.240 . S
Cd58 O59 2.240 . S
Cd58 O66 2.223 . S
Cd58 O68 2.297 . S
Cd58 O69 2.439 . S
O59 Cd58 2.240 . S
O59 C64 1.279 . S
O60 Cd57 2.297 . S
O60 C62 1.247 . S
O61 Cd57 2.439 . S
O61 C62 1.208 . S
C62 O60 1.247 . S
C62 O61 1.208 . S
C63 O68 1.247 . S
C63 O69 1.208 . S
C64 O56 1.315 . S
C64 O59 1.279 . S
C65 O66 1.315 . S
C65 O67 1.279 . S
O66 Cd58 2.223 . S
O66 C65 1.315 . S
O67 Cd57 2.240 . S
O67 C65 1.279 . S
O68 Cd58 2.297 . S
O68 C63 1.247 . S
O69 Cd58 2.439 . S
O69 C63 1.208 . S
O70 Cd71 2.223 1_554 S
O70 C78 1.315 1_454 S
Cd71 O70 2.223 1_556 S
Cd71 O74 2.297 . S
Cd71 O75 2.439 . S
Cd71 O81 2.240 1_556 S
Cd72 O73 2.240 . S
Cd72 O80 2.223 1_556 S
Cd72 O82 2.297 1_556 S
Cd72 O83 2.439 1_655 S
O73 Cd72 2.240 . S
O73 C78 1.279 . S
O74 Cd71 2.297 . S
O74 C76 1.247 . S
O75 Cd71 2.439 . S
O75 C76 1.208 . S
C76 O74 1.247 . S
C76 O75 1.208 . S
C77 O82 1.247 1_456 S
C77 O83 1.208 . S
C78 O70 1.315 1_656 S
C78 O73 1.279 . S
C79 O80 1.315 1_455 S
C79 O81 1.279 . S
O80 Cd72 2.223 1_554 S
O80 C79 1.315 1_655 S
O81 Cd71 2.240 1_554 S
O81 C79 1.279 . S
O82 Cd72 2.297 1_554 S
O82 C77 1.247 1_654 S
O83 Cd72 2.439 1_455 S
O83 C77 1.208 . S
O84 Cd85 2.223 . S
O84 C92 1.315 1_655 S
Cd85 O84 2.223 . S
Cd85 O88 2.297 . S
Cd85 O89 2.439 . S
Cd85 O95 2.240 . S
Cd86 O87 2.240 . S
Cd86 O94 2.223 . S
Cd86 O96 2.297 . S
Cd86 O97 2.439 1_455 S
O87 Cd86 2.240 . S
O87 C92 1.279 . S
O88 Cd85 2.297 . S
O88 C90 1.247 . S
O89 Cd85 2.439 . S
O89 C90 1.208 . S
C90 O88 1.247 . S
C90 O89 1.208 . S
C91 O96 1.247 1_655 S
C91 O97 1.208 . S
C92 O84 1.315 1_455 S
C92 O87 1.279 . S
C93 O94 1.315 1_655 S
C93 O95 1.279 . S
O94 Cd86 2.223 . S
O94 C93 1.315 1_455 S
O95 Cd85 2.240 . S
O95 C93 1.279 . S
O96 Cd86 2.297 . S
O96 C91 1.247 1_455 S
O97 Cd86 2.439 1_655 S
O97 C91 1.208 . S
O98 Cd99 2.223 . S
O98 C106 1.315 1_565 S
Cd99 O98 2.223 . S
Cd99 O102 2.297 . S
Cd99 O103 2.439 . S
Cd99 O109 2.240 . S
Cd100 O101 2.240 . S
Cd100 O108 2.223 . S
Cd100 O110 2.297 . S
Cd100 O111 2.439 1_545 S
O101 Cd100 2.240 . S
O101 C106 1.279 . S
O102 Cd99 2.297 . S
O102 C104 1.247 . S
O103 Cd99 2.439 . S
O103 C104 1.208 . S
C104 O102 1.247 . S
C104 O103 1.208 . S
C105 O110 1.247 1_565 S
C105 O111 1.208 . S
C106 O98 1.315 1_545 S
C106 O101 1.279 . S
C107 O108 1.315 1_565 S
C107 O109 1.279 . S
O108 Cd100 2.223 . S
O108 C107 1.315 1_545 S
O109 Cd99 2.240 . S
O109 C107 1.279 . S
O110 Cd100 2.297 . S
O110 C105 1.247 1_545 S
O111 Cd100 2.439 1_565 S
O111 C105 1.208 . S
O112 Cd113 2.222 1_556 S
O112 C120 1.315 1_556 S
Cd113 O112 2.222 1_554 S
Cd113 O116 2.302 . S
Cd113 O117 2.444 . S
Cd113 O123 2.236 1_554 S
Cd114 O115 2.241 1_556 S
Cd114 O122 2.220 . S
Cd114 O124 2.297 . S
Cd114 O125 2.440 1_556 S
O115 Cd114 2.241 1_554 S
O115 C120 1.279 . S
O116 Cd113 2.302 . S
O116 C118 1.247 . S
O117 Cd113 2.444 . S
O117 C118 1.208 . S
C118 O116 1.247 . S
C118 O117 1.208 . S
C119 O124 1.247 1_554 S
C119 O125 1.208 . S
C120 O112 1.315 1_554 S
C120 O115 1.279 . S
C121 O122 1.315 . S
C121 O123 1.279 . S
O122 Cd114 2.220 . S
O122 C121 1.315 . S
O123 Cd113 2.236 1_556 S
O123 C121 1.279 . S
O124 Cd114 2.297 . S
O124 C119 1.247 1_556 S
O125 Cd114 2.440 1_554 S
O125 C119 1.208 . S
O126 Cd127 2.223 . S
O126 C134 1.315 1_455 S
Cd127 O126 2.223 . S
Cd127 O130 2.297 . S
Cd127 O131 2.439 . S
Cd127 O137 2.240 . S
Cd128 O129 2.240 . S
Cd128 O136 2.223 . S
Cd128 O138 2.297 . S
Cd128 O139 2.439 1_655 S
O129 Cd128 2.240 . S
O129 C134 1.279 . S
O130 Cd127 2.297 . S
O130 C132 1.247 . S
O131 Cd127 2.439 . S
O131 C132 1.208 . S
C132 O130 1.247 . S
C132 O131 1.208 . S
C133 O138 1.247 1_455 S
C133 O139 1.208 . S
C134 O126 1.315 1_655 S
C134 O129 1.279 . S
C135 O136 1.315 1_455 S
C135 O137 1.279 . S
O136 Cd128 2.223 . S
O136 C135 1.315 1_655 S
O137 Cd127 2.240 . S
O137 C135 1.279 . S
O138 Cd128 2.297 . S
O138 C133 1.247 1_655 S
O139 Cd128 2.439 1_455 S
O139 C133 1.208 . S
O140 Cd141 2.223 . S
O140 C148 1.315 1_545 S
Cd141 O140 2.223 . S
Cd141 O144 2.297 . S
Cd141 O145 2.439 . S
Cd141 O151 2.240 . S
Cd142 O143 2.240 . S
Cd142 O150 2.223 . S
Cd142 O152 2.297 . S
Cd142 O153 2.439 1_565 S
O143 Cd142 2.240 . S
O143 C148 1.279 . S
O144 Cd141 2.297 . S
O144 C146 1.247 . S
O145 Cd141 2.439 . S
O145 C146 1.208 . S
C146 O144 1.247 . S
C146 O145 1.208 . S
C147 O152 1.247 1_545 S
C147 O153 1.208 . S
C148 O140 1.315 1_565 S
C148 O143 1.279 . S
C149 O150 1.315 1_545 S
C149 O151 1.279 . S
O150 Cd142 2.223 . S
O150 C149 1.315 1_565 S
O151 Cd141 2.240 . S
O151 C149 1.279 . S
O152 Cd142 2.297 . S
O152 C147 1.247 1_565 S
O153 Cd142 2.439 1_545 S
O153 C147 1.208 . S
O154 Cd155 2.222 1_556 S
O154 C162 1.315 1_556 S
Cd155 O154 2.222 1_554 S
Cd155 O158 2.302 . S
Cd155 O159 2.444 . S
Cd155 O165 2.236 1_554 S
Cd156 O157 2.241 1_556 S
Cd156 O164 2.220 . S
Cd156 O166 2.297 . S
Cd156 O167 2.440 1_556 S
O157 Cd156 2.241 1_554 S
O157 C162 1.279 . S
O158 Cd155 2.302 . S
O158 C160 1.247 . S
O159 Cd155 2.444 . S
O159 C160 1.208 . S
C160 O158 1.247 . S
C160 O159 1.208 . S
C161 O166 1.247 1_554 S
C161 O167 1.208 . S
C162 O154 1.315 1_554 S
C162 O157 1.279 . S
C163 O164 1.315 . S
C163 O165 1.279 . S
O164 Cd156 2.220 . S
O164 C163 1.315 . S
O165 Cd155 2.236 1_556 S
O165 C163 1.279 . S
O166 Cd156 2.297 . S
O166 C161 1.247 1_556 S
O167 Cd156 2.440 1_554 S
O167 C161 1.208 . S
H168 C176 0.950 . S
H169 C181 0.950 . S
H170 C178 0.950 . S
H171 C180 0.950 . S
H172 C182 0.950 . S
H173 C184 0.950 . S
H174 C186 0.950 . S
H175 C187 0.950 . S
C176 H168 0.950 . S
C176 C177 1.386 . S
C176 C178 1.391 . S
C177 C176 1.386 . S
C177 C181 1.393 . S
C178 H170 0.950 . S
C178 C176 1.391 . S
C178 C179 1.400 . S
C179 C178 1.400 . S
C179 C180 1.398 . S
C179 C185 1.491 . S
C180 H171 0.950 . S
C180 C179 1.398 . S
C180 C181 1.391 . S
C181 H169 0.950 . S
C181 C177 1.393 . S
C181 C180 1.391 . S
C182 H172 0.950 . S
C182 C183 1.386 . S
C182 C184 1.391 . S
C183 C182 1.386 . S
C183 C187 1.393 . S
C184 H173 0.950 . S
C184 C182 1.391 . S
C184 C185 1.400 . S
C185 C179 1.491 . S
C185 C184 1.400 . S
C185 C186 1.398 . S
C186 H174 0.950 . S
C186 C185 1.398 . S
C186 C187 1.391 . S
C187 H175 0.950 . S
C187 C183 1.393 . S
C187 C186 1.391 . S
H188 C196 0.950 . S
H189 C201 0.950 . S
H190 C198 0.950 . S
H191 C200 0.950 . S
H192 C202 0.950 . S
H193 C204 0.950 . S
H194 C206 0.950 . S
H195 C207 0.950 . S
C196 H188 0.950 . S
C196 C197 1.386 . S
C196 C198 1.391 . S
C197 C196 1.386 . S
C197 C201 1.393 . S
C198 H190 0.950 . S
C198 C196 1.391 . S
C198 C199 1.400 . S
C199 C198 1.400 . S
C199 C200 1.398 . S
C199 C205 1.491 . S
C200 H191 0.950 . S
C200 C199 1.398 . S
C200 C201 1.391 . S
C201 H189 0.950 . S
C201 C197 1.393 . S
C201 C200 1.391 . S
C202 H192 0.950 . S
C202 C203 1.386 . S
C202 C204 1.391 . S
C203 C202 1.386 . S
C203 C207 1.393 . S
C204 H193 0.950 . S
C204 C202 1.391 . S
C204 C205 1.400 . S
C205 C199 1.491 . S
C205 C204 1.400 . S
C205 C206 1.398 . S
C206 H194 0.950 . S
C206 C205 1.398 . S
C206 C207 1.391 . S
C207 H195 0.950 . S
C207 C203 1.393 . S
C207 C206 1.391 . S
H208 C216 0.950 . S
H209 C221 0.950 . S
H210 C218 0.950 . S
H211 C220 0.950 . S
H212 C222 0.950 . S
H213 C224 0.950 . S
H214 C226 0.950 . S
H215 C227 0.950 . S
C216 H208 0.950 . S
C216 C217 1.386 . S
C216 C218 1.391 . S
C217 C216 1.386 . S
C217 C221 1.393 . S
C218 H210 0.950 . S
C218 C216 1.391 . S
C218 C219 1.400 . S
C219 C218 1.400 . S
C219 C220 1.398 . S
C219 C225 1.491 . S
C220 H211 0.950 . S
C220 C219 1.398 . S
C220 C221 1.391 . S
C221 H209 0.950 . S
C221 C217 1.393 . S
C221 C220 1.391 . S
C222 H212 0.950 . S
C222 C223 1.386 . S
C222 C224 1.391 . S
C223 C222 1.386 . S
C223 C227 1.393 . S
C224 H213 0.950 . S
C224 C222 1.391 . S
C224 C225 1.400 . S
C225 C219 1.491 . S
C225 C224 1.400 . S
C225 C226 1.398 . S
C226 H214 0.950 . S
C226 C225 1.398 . S
C226 C227 1.391 . S
C227 H215 0.950 . S
C227 C223 1.393 . S
C227 C226 1.391 . S
H228 C236 0.950 . S
H229 C241 0.950 . S
H230 C238 0.950 . S
H231 C240 0.950 . S
H232 C242 0.950 . S
H233 C244 0.950 . S
H234 C246 0.950 . S
H235 C247 0.950 . S
C236 H228 0.950 . S
C236 C237 1.386 . S
C236 C238 1.391 . S
C237 C236 1.386 . S
C237 C241 1.393 . S
C238 H230 0.950 . S
C238 C236 1.391 . S
C238 C239 1.400 . S
C239 C238 1.400 . S
C239 C240 1.398 . S
C239 C245 1.491 . S
C240 H231 0.950 . S
C240 C239 1.398 . S
C240 C241 1.391 . S
C241 H229 0.950 . S
C241 C237 1.393 . S
C241 C240 1.391 . S
C242 H232 0.950 . S
C242 C243 1.386 . S
C242 C244 1.391 . S
C243 C242 1.386 . S
C243 C247 1.393 . S
C244 H233 0.950 . S
C244 C242 1.391 . S
C244 C245 1.400 . S
C245 C239 1.491 . S
C245 C244 1.400 . S
C245 C246 1.398 . S
C246 H234 0.950 . S
C246 C245 1.398 . S
C246 C247 1.391 . S
C247 H235 0.950 . S
C247 C243 1.393 . S
C247 C246 1.391 . S
H248 C256 0.950 . S
H249 C261 0.950 . S
H250 C258 0.950 . S
H251 C260 0.950 . S
H252 C262 0.950 . S
H253 C264 0.950 . S
H254 C266 0.950 . S
H255 C267 0.950 . S
C256 H248 0.950 . S
C256 C257 1.386 . S
C256 C258 1.391 . S
C257 C256 1.386 . S
C257 C261 1.393 . S
C258 H250 0.950 . S
C258 C256 1.391 . S
C258 C259 1.400 . S
C259 C258 1.400 . S
C259 C260 1.398 . S
C259 C265 1.491 . S
C260 H251 0.950 . S
C260 C259 1.398 . S
C260 C261 1.391 . S
C261 H249 0.950 . S
C261 C257 1.393 . S
C261 C260 1.391 . S
C262 H252 0.950 . S
C262 C263 1.386 . S
C262 C264 1.391 . S
C263 C262 1.386 . S
C263 C267 1.393 . S
C264 H253 0.950 . S
C264 C262 1.391 . S
C264 C265 1.400 . S
C265 C259 1.491 . S
C265 C264 1.400 . S
C265 C266 1.398 . S
C266 H254 0.950 . S
C266 C265 1.398 . S
C266 C267 1.391 . S
C267 H255 0.950 . S
C267 C263 1.393 . S
C267 C266 1.391 . S
H268 C276 0.950 . S
H269 C281 0.950 . S
H270 C278 0.950 . S
H271 C280 0.950 . S
H272 C282 0.950 . S
H273 C284 0.950 . S
H274 C286 0.950 . S
H275 C287 0.950 . S
C276 H268 0.950 . S
C276 C277 1.386 . S
C276 C278 1.391 . S
C277 C276 1.386 . S
C277 C281 1.393 . S
C278 H270 0.950 . S
C278 C276 1.391 . S
C278 C279 1.400 . S
C279 C278 1.400 . S
C279 C280 1.398 . S
C279 C285 1.491 . S
C280 H271 0.950 . S
C280 C279 1.398 . S
C280 C281 1.391 . S
C281 H269 0.950 . S
C281 C277 1.393 . S
C281 C280 1.391 . S
C282 H272 0.950 . S
C282 C283 1.386 . S
C282 C284 1.391 . S
C283 C282 1.386 . S
C283 C287 1.393 . S
C284 H273 0.950 . S
C284 C282 1.391 . S
C284 C285 1.400 . S
C285 C279 1.491 . S
C285 C284 1.400 . S
C285 C286 1.398 . S
C286 H274 0.950 . S
C286 C285 1.398 . S
C286 C287 1.391 . S
C287 H275 0.950 . S
C287 C283 1.393 . S
C287 C286 1.391 . S
H288 C296 0.950 . S
H289 C301 0.950 . S
H290 C298 0.950 . S
H291 C300 0.950 . S
H292 C302 0.950 . S
H293 C304 0.950 . S
H294 C306 0.950 . S
H295 C307 0.950 . S
C296 H288 0.950 . S
C296 C297 1.386 . S
C296 C298 1.391 . S
C297 C296 1.386 . S
C297 C301 1.393 1_545 S
C298 H290 0.950 . S
C298 C296 1.391 . S
C298 C299 1.400 . S
C299 C298 1.400 . S
C299 C300 1.398 1_545 S
C299 C305 1.491 1_545 S
C300 H291 0.950 . S
C300 C299 1.398 1_565 S
C300 C301 1.391 . S
C301 H289 0.950 . S
C301 C297 1.393 1_565 S
C301 C300 1.391 . S
C302 H292 0.950 . S
C302 C303 1.386 . S
C302 C304 1.391 . S
C303 C302 1.386 . S
C303 C307 1.393 1_565 S
C304 H293 0.950 . S
C304 C302 1.391 . S
C304 C305 1.400 . S
C305 C299 1.491 1_565 S
C305 C304 1.400 . S
C305 C306 1.398 1_565 S
C306 H294 0.950 . S
C306 C305 1.398 1_545 S
C306 C307 1.391 . S
C307 H295 0.950 . S
C307 C303 1.393 1_545 S
C307 C306 1.391 . S
H308 C316 0.950 . S
H309 C321 0.950 . S
H310 C318 0.950 . S
H311 C320 0.950 . S
H312 C322 0.950 . S
H313 C324 0.950 . S
H314 C326 0.950 . S
H315 C327 0.950 . S
C316 H308 0.950 . S
C316 C317 1.386 . S
C316 C318 1.391 . S
C317 C316 1.386 . S
C317 C321 1.393 . S
C318 H310 0.950 . S
C318 C316 1.391 . S
C318 C319 1.400 . S
C319 C318 1.400 . S
C319 C320 1.398 . S
C319 C325 1.491 . S
C320 H311 0.950 . S
C320 C319 1.398 . S
C320 C321 1.391 . S
C321 H309 0.950 . S
C321 C317 1.393 . S
C321 C320 1.391 . S
C322 H312 0.950 . S
C322 C323 1.386 . S
C322 C324 1.391 . S
C323 C322 1.386 . S
C323 C327 1.393 . S
C324 H313 0.950 . S
C324 C322 1.391 . S
C324 C325 1.400 . S
C325 C319 1.491 . S
C325 C324 1.400 . S
C325 C326 1.398 . S
C326 H314 0.950 . S
C326 C325 1.398 . S
C326 C327 1.391 . S
C327 H315 0.950 . S
C327 C323 1.393 . S
C327 C326 1.391 . S
H328 C336 0.950 . S
H329 C341 0.950 . S
H330 C338 0.950 . S
H331 C340 0.959 . S
H332 C342 0.950 . S
H333 C344 0.950 . S
H334 C346 0.950 . S
H335 C347 0.950 . S
C336 H328 0.950 . S
C336 C337 1.386 1_655 S
C336 C338 1.391 . S
C337 C336 1.386 1_455 S
C337 C341 1.393 1_556 S
C338 H330 0.950 . S
C338 C336 1.391 . S
C338 C339 1.400 1_655 S
C339 C338 1.400 1_455 S
C339 C340 1.390 1_556 S
C339 C345 1.491 1_455 S
C340 H331 0.959 . S
C340 C339 1.390 1_554 S
C340 C341 1.391 . S
C341 H329 0.950 . S
C341 C337 1.393 1_554 S
C341 C340 1.391 . S
C342 H332 0.950 . S
C342 C343 1.386 1_454 S
C342 C344 1.391 . S
C343 C342 1.386 1_656 S
C343 C347 1.393 . S
C344 H333 0.950 . S
C344 C342 1.391 . S
C344 C345 1.400 1_454 S
C345 C339 1.491 1_655 S
C345 C344 1.400 1_656 S
C345 C346 1.398 . S
C346 H334 0.950 . S
C346 C345 1.398 . S
C346 C347 1.391 . S
C347 H335 0.950 . S
C347 C343 1.393 . S
C347 C346 1.391 . S
H348 C356 0.950 . S
H349 C361 0.950 . S
H350 C358 0.950 . S
H351 C360 0.950 . S
H352 C362 0.950 . S
H353 C364 0.950 . S
H354 C366 0.950 . S
H355 C367 0.950 . S
C356 H348 0.950 . S
C356 C357 1.386 1_455 S
C356 C358 1.391 . S
C357 C356 1.386 1_655 S
C357 C361 1.393 . S
C358 H350 0.950 . S
C358 C356 1.391 . S
C358 C359 1.400 1_455 S
C359 C358 1.400 1_655 S
C359 C360 1.398 . S
C359 C365 1.491 1_655 S
C360 H351 0.950 . S
C360 C359 1.398 . S
C360 C361 1.391 . S
C361 H349 0.950 . S
C361 C357 1.393 . S
C361 C360 1.391 . S
C362 H352 0.950 . S
C362 C363 1.386 1_655 S
C362 C364 1.391 . S
C363 C362 1.386 1_455 S
C363 C367 1.393 . S
C364 H353 0.950 . S
C364 C362 1.391 . S
C364 C365 1.400 1_655 S
C365 C359 1.491 1_455 S
C365 C364 1.400 1_455 S
C365 C366 1.398 . S
C366 H354 0.950 . S
C366 C365 1.398 . S
C366 C367 1.391 . S
C367 H355 0.950 . S
C367 C363 1.393 . S
C367 C366 1.391 . S
H368 C376 0.950 . S
H369 C381 0.950 . S
H370 C378 0.950 . S
H371 C380 0.950 . S
H372 C382 0.950 . S
H373 C384 0.950 . S
H374 C386 0.950 . S
H375 C387 0.950 . S
C376 H368 0.950 . S
C376 C377 1.386 . S
C376 C378 1.391 . S
C377 C376 1.386 . S
C377 C381 1.393 1_545 S
C378 H370 0.950 . S
C378 C376 1.391 . S
C378 C379 1.400 . S
C379 C378 1.400 . S
C379 C380 1.398 1_545 S
C379 C385 1.491 1_545 S
C380 H371 0.950 . S
C380 C379 1.398 1_565 S
C380 C381 1.391 . S
C381 H369 0.950 . S
C381 C377 1.393 1_565 S
C381 C380 1.391 . S
C382 H372 0.950 . S
C382 C383 1.386 . S
C382 C384 1.391 . S
C383 C382 1.386 . S
C383 C387 1.393 1_565 S
C384 H373 0.950 . S
C384 C382 1.391 . S
C384 C385 1.400 . S
C385 C379 1.491 1_565 S
C385 C384 1.400 . S
C385 C386 1.398 1_565 S
C386 H374 0.950 . S
C386 C385 1.398 1_545 S
C386 C387 1.391 . S
C387 H375 0.950 . S
C387 C383 1.393 1_545 S
C387 C386 1.391 . S
H388 C396 0.950 . S
H389 C401 0.950 . S
H390 C398 0.950 . S
H391 C400 0.950 . S
H392 C402 0.950 . S
H393 C404 0.950 . S
H394 C406 0.950 . S
H395 C407 0.950 . S
C396 H388 0.950 . S
C396 C397 1.386 1_556 S
C396 C398 1.391 . S
C397 C396 1.386 1_554 S
C397 C401 1.393 . S
C398 H390 0.950 . S
C398 C396 1.391 . S
C398 C399 1.400 1_556 S
C399 C398 1.400 1_554 S
C399 C400 1.398 . S
C399 C405 1.491 . S
C400 H391 0.950 . S
C400 C399 1.398 . S
C400 C401 1.391 . S
C401 H389 0.950 . S
C401 C397 1.393 . S
C401 C400 1.391 . S
C402 H392 0.950 . S
C402 C403 1.386 . S
C402 C404 1.391 . S
C403 C402 1.386 . S
C403 C407 1.393 1_554 S
C404 H393 0.950 . S
C404 C402 1.391 . S
C404 C405 1.400 . S
C405 C399 1.491 . S
C405 C404 1.400 . S
C405 C406 1.398 1_554 S
C406 H394 0.950 . S
C406 C405 1.398 1_556 S
C406 C407 1.391 . S
C407 H395 0.950 . S
C407 C403 1.393 1_556 S
C407 C406 1.391 . S
H408 C416 0.950 . S
H409 C421 0.950 . S
H410 C418 0.950 . S
H411 C420 0.950 . S
H412 C422 0.950 . S
H413 C424 0.950 . S
H414 C426 0.950 . S
H415 C427 0.950 . S
C416 H408 0.950 . S
C416 C417 1.386 . S
C416 C418 1.391 . S
C417 C416 1.386 . S
C417 C421 1.393 . S
C418 H410 0.950 . S
C418 C416 1.391 . S
C418 C419 1.400 . S
C419 C418 1.400 . S
C419 C420 1.398 . S
C419 C425 1.491 . S
C420 H411 0.950 . S
C420 C419 1.398 . S
C420 C421 1.391 . S
C421 H409 0.950 . S
C421 C417 1.393 . S
C421 C420 1.391 . S
C422 H412 0.950 . S
C422 C423 1.386 . S
C422 C424 1.391 . S
C423 C422 1.386 . S
C423 C427 1.393 . S
C424 H413 0.950 . S
C424 C422 1.391 . S
C424 C425 1.400 . S
C425 C419 1.491 . S
C425 C424 1.400 . S
C425 C426 1.398 . S
C426 H414 0.950 . S
C426 C425 1.398 . S
C426 C427 1.391 . S
C427 H415 0.950 . S
C427 C423 1.393 . S
C427 C426 1.391 . S
H428 C436 0.950 . S
H429 C441 0.950 . S
H430 C438 0.950 . S
H431 C440 0.950 . S
H432 C442 0.950 . S
H433 C444 0.950 . S
H434 C446 0.950 . S
H435 C447 0.950 . S
C436 H428 0.950 . S
C436 C437 1.386 . S
C436 C438 1.391 . S
C437 C436 1.386 . S
C437 C441 1.393 . S
C438 H430 0.950 . S
C438 C436 1.391 . S
C438 C439 1.400 . S
C439 C438 1.400 . S
C439 C440 1.398 . S
C439 C445 1.491 . S
C440 H431 0.950 . S
C440 C439 1.398 . S
C440 C441 1.391 . S
C441 H429 0.950 . S
C441 C437 1.393 . S
C441 C440 1.391 . S
C442 H432 0.950 . S
C442 C443 1.386 . S
C442 C444 1.391 . S
C443 C442 1.386 . S
C443 C447 1.393 . S
C444 H433 0.950 . S
C444 C442 1.391 . S
C444 C445 1.400 . S
C445 C439 1.491 . S
C445 C444 1.400 . S
C445 C446 1.398 . S
C446 H434 0.950 . S
C446 C445 1.398 . S
C446 C447 1.391 . S
C447 H435 0.950 . S
C447 C443 1.393 . S
C447 C446 1.391 . S
H448 C456 0.950 . S
H449 C461 0.950 . S
H450 C458 0.950 . S
H451 C460 0.950 . S
H452 C462 0.950 . S
H453 C464 0.950 . S
H454 C466 0.950 . S
H455 C467 0.959 . S
C456 H448 0.950 . S
C456 C457 1.386 . S
C456 C458 1.391 . S
C457 C456 1.386 . S
C457 C461 1.393 1_554 S
C458 H450 0.950 . S
C458 C456 1.391 . S
C458 C459 1.409 . S
C459 C458 1.409 . S
C459 C460 1.393 1_554 S
C459 C465 1.488 1_554 S
C460 H451 0.950 . S
C460 C459 1.393 1_556 S
C460 C461 1.391 . S
C461 H449 0.950 . S
C461 C457 1.393 1_556 S
C461 C460 1.391 . S
C462 H452 0.950 . S
C462 C463 1.386 . S
C462 C464 1.391 . S
C463 C462 1.386 . S
C463 C467 1.382 1_556 S
C464 H453 0.950 . S
C464 C462 1.391 . S
C464 C465 1.400 . S
C465 C459 1.488 1_556 S
C465 C464 1.400 . S
C465 C466 1.398 1_556 S
C466 H454 0.950 . S
C466 C465 1.398 1_554 S
C466 C467 1.394 . S
C467 H455 0.959 . S
C467 C463 1.382 1_554 S
C467 C466 1.394 . S
H468 C476 0.950 . S
H469 C481 0.950 . S
H470 C478 0.950 . S
H471 C480 0.950 . S
H472 C482 0.950 . S
H473 C484 0.950 . S
H474 C486 0.950 . S
H475 C487 0.950 . S
C476 H468 0.950 . S
C476 C477 1.386 . S
C476 C478 1.391 . S
C477 C476 1.386 . S
C477 C481 1.393 . S
C478 H470 0.950 . S
C478 C476 1.391 . S
C478 C479 1.400 . S
C479 C478 1.400 . S
C479 C480 1.398 . S
C479 C485 1.491 . S
C480 H471 0.950 . S
C480 C479 1.398 . S
C480 C481 1.391 . S
C481 H469 0.950 . S
C481 C477 1.393 . S
C481 C480 1.391 . S
C482 H472 0.950 . S
C482 C483 1.386 . S
C482 C484 1.391 . S
C483 C482 1.386 . S
C483 C487 1.393 . S
C484 H473 0.950 . S
C484 C482 1.391 . S
C484 C485 1.400 . S
C485 C479 1.491 . S
C485 C484 1.400 . S
C485 C486 1.398 . S
C486 H474 0.950 . S
C486 C485 1.398 . S
C486 C487 1.391 . S
C487 H475 0.950 . S
C487 C483 1.393 . S
C487 C486 1.391 . S
H488 C496 0.950 . S
H489 C501 0.950 . S
H490 C498 0.950 . S
H491 C500 0.950 . S
H492 C502 0.950 . S
H493 C504 0.950 . S
H494 C506 0.950 . S
H495 C507 0.950 . S
C496 H488 0.950 . S
C496 C497 1.386 . S
C496 C498 1.391 . S
C497 C496 1.386 . S
C497 C501 1.393 . S
C498 H490 0.950 . S
C498 C496 1.391 . S
C498 C499 1.400 . S
C499 C498 1.400 . S
C499 C500 1.398 . S
C499 C505 1.491 . S
C500 H491 0.950 . S
C500 C499 1.398 . S
C500 C501 1.391 . S
C501 H489 0.950 . S
C501 C497 1.393 . S
C501 C500 1.391 . S
C502 H492 0.950 . S
C502 C503 1.386 . S
C502 C504 1.391 . S
C503 C502 1.386 . S
C503 C507 1.393 . S
C504 H493 0.950 . S
C504 C502 1.391 . S
C504 C505 1.400 . S
C505 C499 1.491 . S
C505 C504 1.400 . S
C505 C506 1.398 . S
C506 H494 0.950 . S
C506 C505 1.398 . S
C506 C507 1.391 . S
C507 H495 0.950 . S
C507 C503 1.393 . S
C507 C506 1.391 . S
H508 C516 0.950 . S
H509 C521 0.950 . S
H510 C518 0.950 . S
H511 C520 0.950 . S
H512 C522 0.950 . S
H513 C524 0.950 . S
H514 C526 0.950 . S
H515 C527 0.950 . S
C516 H508 0.950 . S
C516 C517 1.386 1_556 S
C516 C518 1.391 . S
C517 C516 1.386 1_554 S
C517 C521 1.393 . S
C518 H510 0.950 . S
C518 C516 1.391 . S
C518 C519 1.403 1_556 S
C519 C518 1.403 1_554 S
C519 C520 1.395 . S
C519 C525 1.491 1_554 S
C520 H511 0.950 . S
C520 C519 1.395 . S
C520 C521 1.391 . S
C521 H509 0.950 . S
C521 C517 1.393 . S
C521 C520 1.391 . S
C522 H512 0.950 . S
C522 C523 1.386 1_554 S
C522 C524 1.391 . S
C523 C522 1.386 1_556 S
C523 C527 1.393 . S
C524 H513 0.950 . S
C524 C522 1.391 . S
C524 C525 1.400 1_554 S
C525 C519 1.491 1_556 S
C525 C524 1.400 1_556 S
C525 C526 1.398 . S
C526 H514 0.950 . S
C526 C525 1.398 . S
C526 C527 1.391 . S
C527 H515 0.950 . S
C527 C523 1.393 . S
C527 C526 1.391 . S
H528 C536 0.950 . S
H529 C541 0.950 . S
H530 C538 0.950 . S
H531 C540 0.950 . S
H532 C542 0.950 . S
H533 C544 0.950 . S
H534 C546 0.950 . S
H535 C547 0.950 . S
C536 H528 0.950 . S
C536 C537 1.386 . S
C536 C538 1.391 . S
C537 C536 1.386 . S
C537 C541 1.393 1_545 S
C538 H530 0.950 . S
C538 C536 1.391 . S
C538 C539 1.400 . S
C539 C538 1.400 . S
C539 C540 1.398 1_545 S
C539 C545 1.491 1_545 S
C540 H531 0.950 . S
C540 C539 1.398 1_565 S
C540 C541 1.391 . S
C541 H529 0.950 . S
C541 C537 1.393 1_565 S
C541 C540 1.391 . S
C542 H532 0.950 . S
C542 C543 1.386 . S
C542 C544 1.391 . S
C543 C542 1.386 . S
C543 C547 1.393 1_565 S
C544 H533 0.950 . S
C544 C542 1.391 . S
C544 C545 1.400 . S
C545 C539 1.491 1_565 S
C545 C544 1.400 . S
C545 C546 1.398 1_565 S
C546 H534 0.950 . S
C546 C545 1.398 1_545 S
C546 C547 1.391 . S
C547 H535 0.950 . S
C547 C543 1.393 1_545 S
C547 C546 1.391 . S
H548 C556 0.950 . S
H549 C561 0.950 . S
H550 C558 0.950 . S
H551 C560 0.950 . S
H552 C562 0.950 . S
H553 C564 0.950 . S
H554 C566 0.950 . S
H555 C567 0.950 . S
C556 H548 0.950 . S
C556 C557 1.386 . S
C556 C558 1.391 . S
C557 C556 1.386 . S
C557 C561 1.393 . S
C558 H550 0.950 . S
C558 C556 1.391 . S
C558 C559 1.400 . S
C559 C558 1.400 . S
C559 C560 1.398 . S
C559 C565 1.491 . S
C560 H551 0.950 . S
C560 C559 1.398 . S
C560 C561 1.391 . S
C561 H549 0.950 . S
C561 C557 1.393 . S
C561 C560 1.391 . S
C562 H552 0.950 . S
C562 C563 1.386 . S
C562 C564 1.391 . S
C563 C562 1.386 . S
C563 C567 1.393 . S
C564 H553 0.950 . S
C564 C562 1.391 . S
C564 C565 1.400 . S
C565 C559 1.491 . S
C565 C564 1.400 . S
C565 C566 1.398 . S
C566 H554 0.950 . S
C566 C565 1.398 . S
C566 C567 1.391 . S
C567 H555 0.950 . S
C567 C563 1.393 . S
C567 C566 1.391 . S
H568 C576 0.950 . S
H569 C581 0.950 . S
H570 C578 0.950 . S
H571 C580 0.950 . S
H572 C582 0.950 . S
H573 C584 0.950 . S
H574 C586 0.950 . S
H575 C587 0.950 . S
C576 H568 0.950 . S
C576 C577 1.386 . S
C576 C578 1.391 . S
C577 C576 1.386 . S
C577 C581 1.393 1_455 S
C578 H570 0.950 . S
C578 C576 1.391 . S
C578 C579 1.400 . S
C579 C578 1.400 . S
C579 C580 1.398 1_455 S
C579 C585 1.491 1_455 S
C580 H571 0.950 . S
C580 C579 1.398 1_655 S
C580 C581 1.391 . S
C581 H569 0.950 . S
C581 C577 1.393 1_655 S
C581 C580 1.391 . S
C582 H572 0.950 . S
C582 C583 1.386 . S
C582 C584 1.391 . S
C583 C582 1.386 . S
C583 C587 1.393 1_655 S
C584 H573 0.950 . S
C584 C582 1.391 . S
C584 C585 1.400 . S
C585 C579 1.491 1_655 S
C585 C584 1.400 . S
C585 C586 1.398 1_655 S
C586 H574 0.950 . S
C586 C585 1.398 1_455 S
C586 C587 1.391 . S
C587 H575 0.950 . S
C587 C583 1.393 1_455 S
C587 C586 1.391 . S
H588 C596 0.950 . S
H589 C601 0.950 . S
H590 C598 0.950 . S
H591 C600 0.950 . S
H592 C602 0.950 . S
H593 C604 0.950 . S
H594 C606 0.950 . S
H595 C607 0.950 . S
C596 H588 0.950 . S
C596 C597 1.386 . S
C596 C598 1.391 . S
C597 C596 1.386 . S
C597 C601 1.393 1_565 S
C598 H590 0.950 . S
C598 C596 1.391 . S
C598 C599 1.400 . S
C599 C598 1.400 . S
C599 C600 1.398 1_565 S
C599 C605 1.491 1_565 S
C600 H591 0.950 . S
C600 C599 1.398 1_545 S
C600 C601 1.391 . S
C601 H589 0.950 . S
C601 C597 1.393 1_545 S
C601 C600 1.391 . S
C602 H592 0.950 . S
C602 C603 1.386 . S
C602 C604 1.391 . S
C603 C602 1.386 . S
C603 C607 1.393 1_545 S
C604 H593 0.950 . S
C604 C602 1.391 . S
C604 C605 1.400 . S
C605 C599 1.491 1_545 S
C605 C604 1.400 . S
C605 C606 1.398 1_545 S
C606 H594 0.950 . S
C606 C605 1.398 1_565 S
C606 C607 1.391 . S
C607 H595 0.950 . S
C607 C603 1.393 1_565 S
C607 C606 1.391 . S
H608 C616 0.950 . S
H609 C621 0.950 . S
H610 C618 0.950 . S
H611 C620 0.950 . S
H612 C622 0.950 . S
H613 C624 0.950 . S
H614 C626 0.950 . S
H615 C627 0.950 . S
C616 H608 0.950 . S
C616 C617 1.386 . S
C616 C618 1.391 . S
C617 C616 1.386 . S
C617 C621 1.393 . S
C618 H610 0.950 . S
C618 C616 1.391 . S
C618 C619 1.400 . S
C619 C618 1.400 . S
C619 C620 1.398 . S
C619 C625 1.491 . S
C620 H611 0.950 . S
C620 C619 1.398 . S
C620 C621 1.391 . S
C621 H609 0.950 . S
C621 C617 1.393 . S
C621 C620 1.391 . S
C622 H612 0.950 . S
C622 C623 1.386 . S
C622 C624 1.391 . S
C623 C622 1.386 . S
C623 C627 1.393 . S
C624 H613 0.950 . S
C624 C622 1.391 . S
C624 C625 1.400 . S
C625 C619 1.491 . S
C625 C624 1.400 . S
C625 C626 1.398 . S
C626 H614 0.950 . S
C626 C625 1.398 . S
C626 C627 1.391 . S
C627 H615 0.950 . S
C627 C623 1.393 . S
C627 C626 1.391 . S
H628 C636 0.950 . S
H629 C641 0.950 . S
H630 C638 0.950 . S
H631 C640 0.933 1_455 S
H632 C642 0.950 . S
H633 C644 0.950 . S
H634 C646 0.933 1_655 S
H635 C647 0.950 . S
C636 H628 0.950 . S
C636 C637 1.386 . S
C636 C638 1.391 . S
C637 C636 1.386 . S
C637 C641 1.393 . S
C638 H630 0.950 . S
C638 C636 1.391 . S
C638 C639 1.400 . S
C639 C638 1.400 . S
C639 C640 1.411 . S
C639 C645 1.491 1_655 S
C640 H631 0.933 1_655 S
C640 C639 1.411 . S
C640 C641 1.395 . S
C641 H629 0.950 . S
C641 C637 1.393 . S
C641 C640 1.395 . S
C642 H632 0.950 . S
C642 C643 1.386 . S
C642 C644 1.391 . S
C643 C642 1.386 . S
C643 C647 1.393 . S
C644 H633 0.950 . S
C644 C642 1.391 . S
C644 C645 1.400 . S
C645 C639 1.491 1_455 S
C645 C644 1.400 . S
C645 C646 1.411 . S
C646 H634 0.933 1_455 S
C646 C645 1.411 . S
C646 C647 1.395 . S
C647 H635 0.950 . S
C647 C643 1.393 . S
C647 C646 1.395 . S
C177 C6 1.662 . S
C183 C118 1.664 . S
C197 C20 1.662 . S
C203 C132 1.665 . S
C217 C146 1.668 . S
C223 C34 1.664 . S
C237 C160 1.669 . S
C243 C48 1.664 . S
C257 C90 1.665 . S
C263 C62 1.670 . S
C277 C104 1.675 . S
C283 C76 1.672 . S
C297 C7 1.713 . S
C303 C49 1.715 . S
C317 C63 1.712 . S
C323 C21 1.715 . S
C337 C77 1.732 . S
C343 C35 1.728 . S
C357 C91 1.728 . S
C363 C133 1.724 . S
C377 C147 1.727 . S
C383 C105 1.731 . S
C397 C119 1.715 . S
C403 C161 1.719 . S
C417 C92 1.226 . S
C423 C8 1.233 . S
C437 C22 1.225 . S
C443 C106 1.232 . S
C457 C120 1.233 . S
C463 C36 1.230 . S
C477 C134 1.232 . S
C483 C50 1.231 . S
C497 C64 1.233 . S
C503 C148 1.226 . S
C517 C162 1.225 . S
C523 C78 1.232 . S
C537 C9 1.069 . S
C543 C107 1.046 . S
C557 C121 1.054 . S
C563 C23 1.075 . S
C577 C135 1.065 . S
C583 C37 1.044 . S
C597 C51 1.053 . S
C603 C149 1.044 . S
C617 C163 1.074 . S
C623 C65 1.068 . S
C637 C93 1.048 . S
C643 C79 1.048 . S
