# Generated by pormake.
# Topology twf-e, (6)-cn, num edge types: 1
# Building blocks:
#     Node 0, Type 0, BuildingBlock: MIDCAF_clean_sbu_0, # of connection points: 6
#     Node 1, Type 0, BuildingBlock: MIDCAF_clean_sbu_0, # of connection points: 6
#     Node 2, Type 0, BuildingBlock: MIDCAF_clean_sbu_0, # of connection points: 6
#     Node 3, Type 0, BuildingBlock: MIDCAF_clean_sbu_0, # of connection points: 6
#     Node 4, Type 0, BuildingBlock: MIDCAF_clean_sbu_0, # of connection points: 6
#     Node 5, Type 0, BuildingBlock: MIDCAF_clean_sbu_0, # of connection points: 6
#     Node 6, Type 0, BuildingBlock: MIDCAF_clean_sbu_0, # of connection points: 6
#     Node 7, Type 0, BuildingBlock: MIDCAF_clean_sbu_0, # of connection points: 6
#     Node 8, Type 0, BuildingBlock: MIDCAF_clean_sbu_0, # of connection points: 6
#     Node 9, Type 0, BuildingBlock: MIDCAF_clean_sbu_0, # of connection points: 6
#     Node 10, Type 0, BuildingBlock: MIDCAF_clean_sbu_0, # of connection points: 6
#     Node 11, Type 0, BuildingBlock: MIDCAF_clean_sbu_0, # of connection points: 6
#     Node 12, Type 0, BuildingBlock: MIDCAF_clean_sbu_0, # of connection points: 6
#     Node 13, Type 0, BuildingBlock: MIDCAF_clean_sbu_0, # of connection points: 6
#     Node 14, Type 0, BuildingBlock: MIDCAF_clean_sbu_0, # of connection points: 6
#     Node 15, Type 0, BuildingBlock: MIDCAF_clean_sbu_0, # of connection points: 6
#     Node 16, Type 0, BuildingBlock: MIDCAF_clean_sbu_0, # of connection points: 6
#     Node 17, Type 0, BuildingBlock: MIDCAF_clean_sbu_0, # of connection points: 6
#     Node 18, Type 0, BuildingBlock: MIDCAF_clean_sbu_0, # of connection points: 6
#     Node 19, Type 0, BuildingBlock: MIDCAF_clean_sbu_0, # of connection points: 6
#     Node 20, Type 0, BuildingBlock: MIDCAF_clean_sbu_0, # of connection points: 6
#     Node 21, Type 0, BuildingBlock: MIDCAF_clean_sbu_0, # of connection points: 6
#     Node 22, Type 0, BuildingBlock: MIDCAF_clean_sbu_0, # of connection points: 6
#     Node 23, Type 0, BuildingBlock: MIDCAF_clean_sbu_0, # of connection points: 6
#     Node 24, Type 0, BuildingBlock: MIDCAF_clean_sbu_0, # of connection points: 6
#     Node 25, Type 0, BuildingBlock: MIDCAF_clean_sbu_0, # of connection points: 6
#     Node 26, Type 0, BuildingBlock: MIDCAF_clean_sbu_0, # of connection points: 6
#     Node 27, Type 0, BuildingBlock: MIDCAF_clean_sbu_0, # of connection points: 6
#     Node 28, Type 0, BuildingBlock: MIDCAF_clean_sbu_0, # of connection points: 6
#     Node 29, Type 0, BuildingBlock: MIDCAF_clean_sbu_0, # of connection points: 6
#     Node 30, Type 0, BuildingBlock: MIDCAF_clean_sbu_0, # of connection points: 6
#     Node 31, Type 0, BuildingBlock: MIDCAF_clean_sbu_0, # of connection points: 6
#     Node 32, Type 0, BuildingBlock: MIDCAF_clean_sbu_0, # of connection points: 6
#     Node 33, Type 0, BuildingBlock: MIDCAF_clean_sbu_0, # of connection points: 6
#     Node 34, Type 0, BuildingBlock: MIDCAF_clean_sbu_0, # of connection points: 6
#     Node 35, Type 0, BuildingBlock: MIDCAF_clean_sbu_0, # of connection points: 6
#     Node 36, Type 0, BuildingBlock: MIDCAF_clean_sbu_0, # of connection points: 6
#     Node 37, Type 0, BuildingBlock: MIDCAF_clean_sbu_0, # of connection points: 6
#     Node 38, Type 0, BuildingBlock: MIDCAF_clean_sbu_0, # of connection points: 6
#     Node 39, Type 0, BuildingBlock: MIDCAF_clean_sbu_0, # of connection points: 6
#     Node 40, Type 0, BuildingBlock: MIDCAF_clean_sbu_0, # of connection points: 6
#     Node 41, Type 0, BuildingBlock: MIDCAF_clean_sbu_0, # of connection points: 6
#     Node 42, Type 0, BuildingBlock: MIDCAF_clean_sbu_0, # of connection points: 6
#     Node 43, Type 0, BuildingBlock: MIDCAF_clean_sbu_0, # of connection points: 6
#     Node 44, Type 0, BuildingBlock: MIDCAF_clean_sbu_0, # of connection points: 6
#     Node 45, Type 0, BuildingBlock: MIDCAF_clean_sbu_0, # of connection points: 6
#     Node 46, Type 0, BuildingBlock: MIDCAF_clean_sbu_0, # of connection points: 6
#     Node 47, Type 0, BuildingBlock: MIDCAF_clean_sbu_0, # of connection points: 6
#     Edge 48, Type (0, 0), BuildingBlock: AJUNOK_clean_linker_0, # of connection points: 2
#     Edge 49, Type (0, 0), BuildingBlock: AJUNOK_clean_linker_0, # of connection points: 2
#     Edge 50, Type (0, 0), BuildingBlock: AJUNOK_clean_linker_0, # of connection points: 2
#     Edge 51, Type (0, 0), BuildingBlock: AJUNOK_clean_linker_0, # of connection points: 2
#     Edge 52, Type (0, 0), BuildingBlock: AJUNOK_clean_linker_0, # of connection points: 2
#     Edge 53, Type (0, 0), BuildingBlock: AJUNOK_clean_linker_0, # of connection points: 2
#     Edge 54, Type (0, 0), BuildingBlock: AJUNOK_clean_linker_0, # of connection points: 2
#     Edge 55, Type (0, 0), BuildingBlock: AJUNOK_clean_linker_0, # of connection points: 2
#     Edge 56, Type (0, 0), BuildingBlock: AJUNOK_clean_linker_0, # of connection points: 2
#     Edge 57, Type (0, 0), BuildingBlock: AJUNOK_clean_linker_0, # of connection points: 2
#     Edge 58, Type (0, 0), BuildingBlock: AJUNOK_clean_linker_0, # of connection points: 2
#     Edge 59, Type (0, 0), BuildingBlock: AJUNOK_clean_linker_0, # of connection points: 2
#     Edge 60, Type (0, 0), BuildingBlock: AJUNOK_clean_linker_0, # of connection points: 2
#     Edge 61, Type (0, 0), BuildingBlock: AJUNOK_clean_linker_0, # of connection points: 2
#     Edge 62, Type (0, 0), BuildingBlock: AJUNOK_clean_linker_0, # of connection points: 2
#     Edge 63, Type (0, 0), BuildingBlock: AJUNOK_clean_linker_0, # of connection points: 2
#     Edge 64, Type (0, 0), BuildingBlock: AJUNOK_clean_linker_0, # of connection points: 2
#     Edge 65, Type (0, 0), BuildingBlock: AJUNOK_clean_linker_0, # of connection points: 2
#     Edge 66, Type (0, 0), BuildingBlock: AJUNOK_clean_linker_0, # of connection points: 2
#     Edge 67, Type (0, 0), BuildingBlock: AJUNOK_clean_linker_0, # of connection points: 2
#     Edge 68, Type (0, 0), BuildingBlock: AJUNOK_clean_linker_0, # of connection points: 2
#     Edge 69, Type (0, 0), BuildingBlock: AJUNOK_clean_linker_0, # of connection points: 2
#     Edge 70, Type (0, 0), BuildingBlock: AJUNOK_clean_linker_0, # of connection points: 2
#     Edge 71, Type (0, 0), BuildingBlock: AJUNOK_clean_linker_0, # of connection points: 2
#     Edge 72, Type (0, 0), BuildingBlock: AJUNOK_clean_linker_0, # of connection points: 2
#     Edge 73, Type (0, 0), BuildingBlock: AJUNOK_clean_linker_0, # of connection points: 2
#     Edge 74, Type (0, 0), BuildingBlock: AJUNOK_clean_linker_0, # of connection points: 2
#     Edge 75, Type (0, 0), BuildingBlock: AJUNOK_clean_linker_0, # of connection points: 2
#     Edge 76, Type (0, 0), BuildingBlock: AJUNOK_clean_linker_0, # of connection points: 2
#     Edge 77, Type (0, 0), BuildingBlock: AJUNOK_clean_linker_0, # of connection points: 2
#     Edge 78, Type (0, 0), BuildingBlock: AJUNOK_clean_linker_0, # of connection points: 2
#     Edge 79, Type (0, 0), BuildingBlock: AJUNOK_clean_linker_0, # of connection points: 2
#     Edge 80, Type (0, 0), BuildingBlock: AJUNOK_clean_linker_0, # of connection points: 2
#     Edge 81, Type (0, 0), BuildingBlock: AJUNOK_clean_linker_0, # of connection points: 2
#     Edge 82, Type (0, 0), BuildingBlock: AJUNOK_clean_linker_0, # of connection points: 2
#     Edge 83, Type (0, 0), BuildingBlock: AJUNOK_clean_linker_0, # of connection points: 2
#     Edge 84, Type (0, 0), BuildingBlock: AJUNOK_clean_linker_0, # of connection points: 2
#     Edge 85, Type (0, 0), BuildingBlock: AJUNOK_clean_linker_0, # of connection points: 2
#     Edge 86, Type (0, 0), BuildingBlock: AJUNOK_clean_linker_0, # of connection points: 2
#     Edge 87, Type (0, 0), BuildingBlock: AJUNOK_clean_linker_0, # of connection points: 2
#     Edge 88, Type (0, 0), BuildingBlock: AJUNOK_clean_linker_0, # of connection points: 2
#     Edge 89, Type (0, 0), BuildingBlock: AJUNOK_clean_linker_0, # of connection points: 2
#     Edge 90, Type (0, 0), BuildingBlock: AJUNOK_clean_linker_0, # of connection points: 2
#     Edge 91, Type (0, 0), BuildingBlock: AJUNOK_clean_linker_0, # of connection points: 2
#     Edge 92, Type (0, 0), BuildingBlock: AJUNOK_clean_linker_0, # of connection points: 2
#     Edge 93, Type (0, 0), BuildingBlock: AJUNOK_clean_linker_0, # of connection points: 2
#     Edge 94, Type (0, 0), BuildingBlock: AJUNOK_clean_linker_0, # of connection points: 2
#     Edge 95, Type (0, 0), BuildingBlock: AJUNOK_clean_linker_0, # of connection points: 2
#     Edge 96, Type (0, 0), BuildingBlock: AJUNOK_clean_linker_0, # of connection points: 2
#     Edge 97, Type (0, 0), BuildingBlock: AJUNOK_clean_linker_0, # of connection points: 2
#     Edge 98, Type (0, 0), BuildingBlock: AJUNOK_clean_linker_0, # of connection points: 2
#     Edge 99, Type (0, 0), BuildingBlock: AJUNOK_clean_linker_0, # of connection points: 2
#     Edge 100, Type (0, 0), BuildingBlock: AJUNOK_clean_linker_0, # of connection points: 2
#     Edge 101, Type (0, 0), BuildingBlock: AJUNOK_clean_linker_0, # of connection points: 2
#     Edge 102, Type (0, 0), BuildingBlock: AJUNOK_clean_linker_0, # of connection points: 2
#     Edge 103, Type (0, 0), BuildingBlock: AJUNOK_clean_linker_0, # of connection points: 2
#     Edge 104, Type (0, 0), BuildingBlock: AJUNOK_clean_linker_0, # of connection points: 2
#     Edge 105, Type (0, 0), BuildingBlock: AJUNOK_clean_linker_0, # of connection points: 2
#     Edge 106, Type (0, 0), BuildingBlock: AJUNOK_clean_linker_0, # of connection points: 2
#     Edge 107, Type (0, 0), BuildingBlock: AJUNOK_clean_linker_0, # of connection points: 2
#     Edge 108, Type (0, 0), BuildingBlock: AJUNOK_clean_linker_0, # of connection points: 2
#     Edge 109, Type (0, 0), BuildingBlock: AJUNOK_clean_linker_0, # of connection points: 2
#     Edge 110, Type (0, 0), BuildingBlock: AJUNOK_clean_linker_0, # of connection points: 2
#     Edge 111, Type (0, 0), BuildingBlock: AJUNOK_clean_linker_0, # of connection points: 2
#     Edge 112, Type (0, 0), BuildingBlock: AJUNOK_clean_linker_0, # of connection points: 2
#     Edge 113, Type (0, 0), BuildingBlock: AJUNOK_clean_linker_0, # of connection points: 2
#     Edge 114, Type (0, 0), BuildingBlock: AJUNOK_clean_linker_0, # of connection points: 2
#     Edge 115, Type (0, 0), BuildingBlock: AJUNOK_clean_linker_0, # of connection points: 2
#     Edge 116, Type (0, 0), BuildingBlock: AJUNOK_clean_linker_0, # of connection points: 2
#     Edge 117, Type (0, 0), BuildingBlock: AJUNOK_clean_linker_0, # of connection points: 2
#     Edge 118, Type (0, 0), BuildingBlock: AJUNOK_clean_linker_0, # of connection points: 2
#     Edge 119, Type (0, 0), BuildingBlock: AJUNOK_clean_linker_0, # of connection points: 2
#     Edge 120, Type (0, 0), BuildingBlock: AJUNOK_clean_linker_0, # of connection points: 2
#     Edge 121, Type (0, 0), BuildingBlock: AJUNOK_clean_linker_0, # of connection points: 2
#     Edge 122, Type (0, 0), BuildingBlock: AJUNOK_clean_linker_0, # of connection points: 2
#     Edge 123, Type (0, 0), BuildingBlock: AJUNOK_clean_linker_0, # of connection points: 2
#     Edge 124, Type (0, 0), BuildingBlock: AJUNOK_clean_linker_0, # of connection points: 2
#     Edge 125, Type (0, 0), BuildingBlock: AJUNOK_clean_linker_0, # of connection points: 2
#     Edge 126, Type (0, 0), BuildingBlock: AJUNOK_clean_linker_0, # of connection points: 2
#     Edge 127, Type (0, 0), BuildingBlock: AJUNOK_clean_linker_0, # of connection points: 2
#     Edge 128, Type (0, 0), BuildingBlock: AJUNOK_clean_linker_0, # of connection points: 2
#     Edge 129, Type (0, 0), BuildingBlock: AJUNOK_clean_linker_0, # of connection points: 2
#     Edge 130, Type (0, 0), BuildingBlock: AJUNOK_clean_linker_0, # of connection points: 2
#     Edge 131, Type (0, 0), BuildingBlock: AJUNOK_clean_linker_0, # of connection points: 2
#     Edge 132, Type (0, 0), BuildingBlock: AJUNOK_clean_linker_0, # of connection points: 2
#     Edge 133, Type (0, 0), BuildingBlock: AJUNOK_clean_linker_0, # of connection points: 2
#     Edge 134, Type (0, 0), BuildingBlock: AJUNOK_clean_linker_0, # of connection points: 2
#     Edge 135, Type (0, 0), BuildingBlock: AJUNOK_clean_linker_0, # of connection points: 2
#     Edge 136, Type (0, 0), BuildingBlock: AJUNOK_clean_linker_0, # of connection points: 2
#     Edge 137, Type (0, 0), BuildingBlock: AJUNOK_clean_linker_0, # of connection points: 2
#     Edge 138, Type (0, 0), BuildingBlock: AJUNOK_clean_linker_0, # of connection points: 2
#     Edge 139, Type (0, 0), BuildingBlock: AJUNOK_clean_linker_0, # of connection points: 2
#     Edge 140, Type (0, 0), BuildingBlock: AJUNOK_clean_linker_0, # of connection points: 2
#     Edge 141, Type (0, 0), BuildingBlock: AJUNOK_clean_linker_0, # of connection points: 2
#     Edge 142, Type (0, 0), BuildingBlock: AJUNOK_clean_linker_0, # of connection points: 2
#     Edge 143, Type (0, 0), BuildingBlock: AJUNOK_clean_linker_0, # of connection points: 2
#     Edge 144, Type (0, 0), BuildingBlock: AJUNOK_clean_linker_0, # of connection points: 2
#     Edge 145, Type (0, 0), BuildingBlock: AJUNOK_clean_linker_0, # of connection points: 2
#     Edge 146, Type (0, 0), BuildingBlock: AJUNOK_clean_linker_0, # of connection points: 2
#     Edge 147, Type (0, 0), BuildingBlock: AJUNOK_clean_linker_0, # of connection points: 2
#     Edge 148, Type (0, 0), BuildingBlock: AJUNOK_clean_linker_0, # of connection points: 2
#     Edge 149, Type (0, 0), BuildingBlock: AJUNOK_clean_linker_0, # of connection points: 2
#     Edge 150, Type (0, 0), BuildingBlock: AJUNOK_clean_linker_0, # of connection points: 2
#     Edge 151, Type (0, 0), BuildingBlock: AJUNOK_clean_linker_0, # of connection points: 2
#     Edge 152, Type (0, 0), BuildingBlock: AJUNOK_clean_linker_0, # of connection points: 2
#     Edge 153, Type (0, 0), BuildingBlock: AJUNOK_clean_linker_0, # of connection points: 2
#     Edge 154, Type (0, 0), BuildingBlock: AJUNOK_clean_linker_0, # of connection points: 2
#     Edge 155, Type (0, 0), BuildingBlock: AJUNOK_clean_linker_0, # of connection points: 2
#     Edge 156, Type (0, 0), BuildingBlock: AJUNOK_clean_linker_0, # of connection points: 2
#     Edge 157, Type (0, 0), BuildingBlock: AJUNOK_clean_linker_0, # of connection points: 2
#     Edge 158, Type (0, 0), BuildingBlock: AJUNOK_clean_linker_0, # of connection points: 2
#     Edge 159, Type (0, 0), BuildingBlock: AJUNOK_clean_linker_0, # of connection points: 2
#     Edge 160, Type (0, 0), BuildingBlock: AJUNOK_clean_linker_0, # of connection points: 2
#     Edge 161, Type (0, 0), BuildingBlock: AJUNOK_clean_linker_0, # of connection points: 2
#     Edge 162, Type (0, 0), BuildingBlock: AJUNOK_clean_linker_0, # of connection points: 2
#     Edge 163, Type (0, 0), BuildingBlock: AJUNOK_clean_linker_0, # of connection points: 2
#     Edge 164, Type (0, 0), BuildingBlock: AJUNOK_clean_linker_0, # of connection points: 2
#     Edge 165, Type (0, 0), BuildingBlock: AJUNOK_clean_linker_0, # of connection points: 2
#     Edge 166, Type (0, 0), BuildingBlock: AJUNOK_clean_linker_0, # of connection points: 2
#     Edge 167, Type (0, 0), BuildingBlock: AJUNOK_clean_linker_0, # of connection points: 2
#     Edge 168, Type (0, 0), BuildingBlock: AJUNOK_clean_linker_0, # of connection points: 2
#     Edge 169, Type (0, 0), BuildingBlock: AJUNOK_clean_linker_0, # of connection points: 2
#     Edge 170, Type (0, 0), BuildingBlock: AJUNOK_clean_linker_0, # of connection points: 2
#     Edge 171, Type (0, 0), BuildingBlock: AJUNOK_clean_linker_0, # of connection points: 2
#     Edge 172, Type (0, 0), BuildingBlock: AJUNOK_clean_linker_0, # of connection points: 2
#     Edge 173, Type (0, 0), BuildingBlock: AJUNOK_clean_linker_0, # of connection points: 2
#     Edge 174, Type (0, 0), BuildingBlock: AJUNOK_clean_linker_0, # of connection points: 2
#     Edge 175, Type (0, 0), BuildingBlock: AJUNOK_clean_linker_0, # of connection points: 2
#     Edge 176, Type (0, 0), BuildingBlock: AJUNOK_clean_linker_0, # of connection points: 2
#     Edge 177, Type (0, 0), BuildingBlock: AJUNOK_clean_linker_0, # of connection points: 2
#     Edge 178, Type (0, 0), BuildingBlock: AJUNOK_clean_linker_0, # of connection points: 2
#     Edge 179, Type (0, 0), BuildingBlock: AJUNOK_clean_linker_0, # of connection points: 2
#     Edge 180, Type (0, 0), BuildingBlock: AJUNOK_clean_linker_0, # of connection points: 2
#     Edge 181, Type (0, 0), BuildingBlock: AJUNOK_clean_linker_0, # of connection points: 2
#     Edge 182, Type (0, 0), BuildingBlock: AJUNOK_clean_linker_0, # of connection points: 2
#     Edge 183, Type (0, 0), BuildingBlock: AJUNOK_clean_linker_0, # of connection points: 2
#     Edge 184, Type (0, 0), BuildingBlock: AJUNOK_clean_linker_0, # of connection points: 2
#     Edge 185, Type (0, 0), BuildingBlock: AJUNOK_clean_linker_0, # of connection points: 2
#     Edge 186, Type (0, 0), BuildingBlock: AJUNOK_clean_linker_0, # of connection points: 2
#     Edge 187, Type (0, 0), BuildingBlock: AJUNOK_clean_linker_0, # of connection points: 2
#     Edge 188, Type (0, 0), BuildingBlock: AJUNOK_clean_linker_0, # of connection points: 2
#     Edge 189, Type (0, 0), BuildingBlock: AJUNOK_clean_linker_0, # of connection points: 2
#     Edge 190, Type (0, 0), BuildingBlock: AJUNOK_clean_linker_0, # of connection points: 2
#     Edge 191, Type (0, 0), BuildingBlock: AJUNOK_clean_linker_0, # of connection points: 2
# Relax obj value: 0.392
# Max RMSD: 0.172
# Mean RMSD: 0.172
data_MOF--net-twf-e--node1-MIDCAF_clean_sbu_0--edge1-AJUNOK_clean_linker_0
_symmetry_space_group_name_H-M    P1
_symmetry_Int_Tables_number       1
_symmetry_cell_setting            triclinic
loop_
_symmetry_equiv_pos_as_xyz
'x, y, z'
_cell_length_a     44.291304
_cell_length_b     44.312734
_cell_length_c     44.296049
_cell_angle_alpha  90.011676
_cell_angle_beta   89.964504
_cell_angle_gamma 90.046974
loop_
_atom_site_label
_atom_site_type_symbol
_atom_site_fract_x
_atom_site_fract_y
_atom_site_fract_z
_atom_type_partial_charge
Zn0 Zn 0.05088 0.19261 0.35698 0.0
Zn1 Zn 0.92402 0.18371 0.39703 0.0
Zn2 Zn 0.99561 0.19332 0.36973 0.0
C3 C 0.94373 0.22392 0.35251 0.0
C4 C 0.97 0.20461 0.44045 0.0
O5 O 0.00821 0.14707 0.35499 0.0
O6 O 0.05609 0.15148 0.34223 0.0
C7 C 0.02705 0.23745 0.32023 0.0
O8 O 0.97138 0.22748 0.34544 0.0
O9 O 0.93558 0.19696 0.35524 0.0
O10 O 0.94184 0.20198 0.43585 0.0
O11 O 0.98923 0.20131 0.41872 0.0
O12 O 0.05149 0.22439 0.32651 0.0
O13 O 0.00237 0.22916 0.33365 0.0
O14 O 0.0193 0.20992 0.4086 0.0
O15 O 0.06738 0.20498 0.39682 0.0
C16 C 0.04724 0.21355 0.41505 0.0
O17 O 0.97699 0.14676 0.36411 0.0
O18 O 0.93505 0.14004 0.39217 0.0
C19 C 0.0328 0.13534 0.34486 0.0
C20 C 0.95595 0.12977 0.37532 0.0
Zn21 Zn 0.82726 0.03979 0.36595 0.0
Zn22 Zn 0.85859 0.9433 0.41243 0.0
Zn23 Zn 0.836 0.98802 0.38663 0.0
C24 C 0.81043 0.92275 0.3765 0.0
C25 C 0.83558 0.97313 0.46016 0.0
O26 O 0.87742 0.01117 0.36767 0.0
O27 O 0.86352 0.05293 0.34456 0.0
C28 C 0.78442 0.00247 0.33818 0.0
O29 O 0.80697 0.95106 0.37063 0.0
O30 O 0.83411 0.91403 0.38973 0.0
O31 O 0.84844 0.94824 0.45545 0.0
O32 O 0.82943 0.99048 0.43747 0.0
O33 O 0.79244 0.02951 0.34155 0.0
O34 O 0.79874 0.98116 0.35216 0.0
O35 O 0.81583 0.01553 0.42169 0.0
O36 O 0.81609 0.06172 0.40276 0.0
C37 C 0.80943 0.04375 0.42375 0.0
O38 O 0.88456 0.98074 0.37372 0.0
O39 O 0.90135 0.94431 0.40327 0.0
C40 C 0.88423 0.03529 0.3527 0.0
C41 C 0.90615 0.96344 0.38285 0.0
Zn42 Zn 0.98296 0.8298 0.35845 0.0
Zn43 Zn 0.08207 0.86331 0.40185 0.0
Zn44 Zn 0.03738 0.83814 0.37603 0.0
C45 C 0.10055 0.8101 0.36923 0.0
C46 C 0.04791 0.84534 0.44892 0.0
O47 O 0.01463 0.87991 0.3588 0.0
O48 O 0.96906 0.86844 0.34223 0.0
C49 C 0.02082 0.78909 0.32673 0.0
O50 O 0.07357 0.80979 0.35828 0.0
O51 O 0.10792 0.83014 0.38812 0.0
O52 O 0.06902 0.86387 0.44442 0.0
O53 O 0.03513 0.83211 0.42633 0.0
O54 O 0.99401 0.79798 0.33013 0.0
O55 O 0.04263 0.80164 0.34151 0.0
O56 O 0.01124 0.81593 0.41207 0.0
O57 O 0.96419 0.81403 0.39548 0.0
C58 C 0.98353 0.80771 0.41534 0.0
O59 O 0.04522 0.88628 0.3612 0.0
O60 O 0.08772 0.90178 0.38234 0.0
C61 C 0.98907 0.888 0.34731 0.0
C62 C 0.06593 0.90649 0.36477 0.0
Zn63 Zn 0.19 0.98452 0.35198 0.0
Zn64 Zn 0.16311 0.07543 0.40543 0.0
Zn65 Zn 0.18376 0.03257 0.37807 0.0
C66 C 0.20701 0.09848 0.36999 0.0
C67 C 0.18894 0.04445 0.45033 0.0
O68 O 0.14238 0.01548 0.35405 0.0
O69 O 0.15598 0.97822 0.32427 0.0
C70 C 0.23812 0.02 0.33307 0.0
O71 O 0.21384 0.07038 0.36728 0.0
O72 O 0.18026 0.10541 0.37678 0.0
O73 O 0.18138 0.07149 0.44589 0.0
O74 O 0.18976 0.02596 0.42776 0.0
O75 O 0.22869 0.99322 0.33373 0.0
O76 O 0.22322 0.04099 0.34687 0.0
O77 O 0.19947 0.99926 0.41155 0.0
O78 O 0.19385 0.95672 0.38634 0.0
C79 C 0.20151 0.97029 0.41015 0.0
O80 O 0.13513 0.04392 0.36684 0.0
O81 O 0.11901 0.07187 0.40474 0.0
C82 C 0.13543 0.99502 0.33443 0.0
C83 C 0.11355 0.0582 0.38044 0.0
Zn84 Zn 0.0508 0.82663 0.67762 0.0
Zn85 Zn 0.96366 0.85034 0.61555 0.0
Zn86 Zn 0.00648 0.83131 0.64451 0.0
C87 C 0.94341 0.79932 0.64501 0.0
C88 C 0.00267 0.83451 0.57109 0.0
O89 O 0.01919 0.8747 0.6681 0.0
O90 O 0.06045 0.8661 0.69437 0.0
C91 C 0.01598 0.77892 0.69493 0.0
O92 O 0.9718 0.79629 0.65042 0.0
O93 O 0.93365 0.82447 0.63618 0.0
O94 O 0.97534 0.84208 0.57318 0.0
O95 O 0.01849 0.83037 0.5952 0.0
O96 O 0.03739 0.79504 0.70449 0.0
O97 O 1.0001 0.78823 0.6722 0.0
O98 O 0.04259 0.82046 0.61279 0.0
O99 O 0.0781 0.81044 0.64621 0.0
C100 C 0.06903 0.81044 0.61923 0.0
O101 O 0.98727 0.87638 0.66086 0.0
O102 O 0.9569 0.89233 0.62466 0.0
C103 C 0.04126 0.88456 0.68447 0.0
C104 C 0.96868 0.8963 0.65018 0.0
Zn105 Zn 0.20221 0.05161 0.69237 0.0
Zn106 Zn 0.16149 0.95479 0.61007 0.0
Zn107 Zn 0.19019 0.98607 0.64182 0.0
C108 C 0.20817 0.91842 0.63203 0.0
C109 C 0.18464 0.99791 0.57213 0.0
O110 O 0.15136 0.01354 0.66071 0.0
O111 O 0.15781 0.05663 0.68695 0.0
C112 C 0.22706 0.98948 0.68919 0.0
O113 O 0.21304 0.94176 0.64879 0.0
O114 O 0.18703 0.91921 0.61302 0.0
O115 O 0.16455 0.97779 0.57288 0.0
O116 O 0.19955 0.00441 0.59621 0.0
O117 O 0.20865 0.01001 0.68363 0.0
O118 O 0.22407 0.96606 0.67282 0.0
O119 O 0.21858 0.02088 0.62006 0.0
O120 O 0.22846 0.05692 0.65462 0.0
C121 C 0.23335 0.04443 0.6291 0.0
O122 O 0.14231 0.98168 0.65858 0.0
O123 O 0.1218 0.94952 0.62664 0.0
C124 C 0.14076 0.03751 0.67394 0.0
C125 C 0.1197 0.96535 0.65011 0.0
Zn126 Zn 0.96315 0.19271 0.68526 0.0
Zn127 Zn 0.05942 0.16097 0.59873 0.0
Zn128 Zn 0.02693 0.18196 0.63429 0.0
C129 C 0.09558 0.20192 0.62838 0.0
C130 C 0.01835 0.18639 0.5615 0.0
O131 O 0.00649 0.14088 0.65766 0.0
O132 O 0.96616 0.14816 0.68774 0.0
C133 C 0.02461 0.22308 0.68055 0.0
O134 O 0.07013 0.20777 0.64142 0.0
O135 O 0.09701 0.18036 0.60996 0.0
O136 O 0.04358 0.17349 0.56012 0.0
O137 O 0.00693 0.19224 0.58771 0.0
O138 O 0.00295 0.20567 0.67653 0.0
O139 O 0.04711 0.21796 0.66343 0.0
O140 O 0.98677 0.2024 0.61381 0.0
O141 O 0.94679 0.20698 0.64546 0.0
C142 C 0.95923 0.21021 0.6197 0.0
O143 O 0.03747 0.1339 0.64611 0.0
O144 O 0.06115 0.11809 0.60541 0.0
C145 C 0.98498 0.13068 0.67492 0.0
C146 C 0.05166 0.11293 0.63166 0.0
Zn147 Zn 0.84925 0.05694 0.62776 0.0
Zn148 Zn 0.82759 0.97581 0.69369 0.0
Zn149 Zn 0.83294 0.01539 0.65746 0.0
C150 C 0.80025 0.95808 0.63865 0.0
C151 C 0.78707 0.01228 0.7151 0.0
O152 O 0.88173 0.02979 0.66788 0.0
O153 O 0.89241 0.05998 0.62979 0.0
C154 C 0.83087 0.01756 0.58424 0.0
O155 O 0.81566 0.98044 0.62848 0.0
O156 O 0.8004 0.95247 0.66657 0.0
O157 O 0.8065 0.99507 0.72666 0.0
O158 O 0.79217 0.02349 0.68854 0.0
O159 O 0.83655 0.04535 0.58663 0.0
O160 O 0.82874 0.00146 0.60849 0.0
O161 O 0.79997 0.05192 0.66562 0.0
O162 O 0.82839 0.08938 0.65044 0.0
C163 C 0.8033 0.08028 0.66017 0.0
O164 O 0.87675 0.00034 0.67865 0.0
O165 O 0.86666 0.95817 0.70294 0.0
C166 C 0.90086 0.04639 0.65317 0.0
C167 C 0.88586 0.9766 0.69299 0.0
Zn168 Zn 0.36658 0.04664 0.19567 0.0
Zn169 Zn 0.41385 0.92386 0.18372 0.0
Zn170 Zn 0.38259 0.99266 0.19678 0.0
C171 C 0.36821 0.93876 0.22449 0.0
C172 C 0.45503 0.97226 0.20626 0.0
O173 O 0.36823 0.00524 0.15022 0.0
O174 O 0.35528 0.05312 0.15379 0.0
C175 C 0.32944 0.02012 0.2389 0.0
O176 O 0.36009 0.96575 0.23015 0.0
O177 O 0.37117 0.93283 0.197 0.0
O178 O 0.45159 0.94421 0.20141 0.0
O179 O 0.43232 0.99058 0.20506 0.0
O180 O 0.33378 0.04433 0.22468 0.0
O181 O 0.3455 0.99655 0.23235 0.0
O182 O 0.41898 0.01812 0.21552 0.0
O183 O 0.40346 0.06537 0.21244 0.0
C184 C 0.42256 0.04623 0.22125 0.0
O185 O 0.37785 0.97392 0.14992 0.0
O186 O 0.40835 0.93439 0.14047 0.0
C187 C 0.35864 0.02977 0.13793 0.0
C188 C 0.38944 0.9541 0.13171 0.0
Zn189 Zn 0.98682 0.35608 0.18575 0.0
Zn190 Zn 0.07942 0.40847 0.15359 0.0
Zn191 Zn 0.0371 0.38141 0.17935 0.0
C192 C 0.10355 0.37579 0.20299 0.0
C193 C 0.04603 0.4544 0.17699 0.0
O194 O 0.01424 0.36285 0.13756 0.0
O195 O 0.97344 0.33658 0.14867 0.0
C196 C 0.02579 0.33135 0.2291 0.0
O197 O 0.07602 0.36698 0.20698 0.0
O198 O 0.11002 0.39163 0.18027 0.0
O199 O 0.06916 0.45066 0.16089 0.0
O200 O 0.03134 0.4312 0.18674 0.0
O201 O 0.9994 0.33061 0.21861 0.0
O202 O 0.04602 0.34852 0.21691 0.0
O203 O 0.00687 0.41483 0.19996 0.0
O204 O 0.96318 0.39069 0.20012 0.0
C205 C 0.97862 0.41367 0.20666 0.0
O206 O 0.04525 0.36761 0.13093 0.0
O207 O 0.08142 0.39616 0.11177 0.0
C208 C 0.99089 0.34747 0.12905 0.0
C209 C 0.06263 0.3751 0.10869 0.0
Zn210 Zn 0.60755 0.04113 0.15369 0.0
Zn211 Zn 0.68863 0.99597 0.1844 0.0
Zn212 Zn 0.64714 0.0304 0.19252 0.0
C213 C 0.65043 0.97854 0.23206 0.0
C214 C 0.71127 0.0174 0.23182 0.0
O215 O 0.66661 0.0638 0.16123 0.0
O216 O 0.63891 0.04935 0.12234 0.0
C217 C 0.57995 0.00588 0.19057 0.0
O218 O 0.65145 0.00739 0.23362 0.0
O219 O 0.66175 0.9656 0.20913 0.0
O220 O 0.72399 0.0102 0.20735 0.0
O221 O 0.68298 0.02489 0.23119 0.0
O222 O 0.58387 0.00341 0.16239 0.0
O223 O 0.59979 0.02019 0.20611 0.0
O224 O 0.63985 0.07944 0.19313 0.0
O225 O 0.59377 0.07861 0.17512 0.0
C226 C 0.61429 0.09255 0.18921 0.0
O227 O 0.64485 0.00038 0.1526 0.0
O228 O 0.6919 0.99155 0.14026 0.0
C229 C 0.66185 0.06317 0.1325 0.0
C230 C 0.66428 0.99045 0.13361 0.0
Zn231 Zn 0.04608 0.67553 0.18627 0.0
Zn232 Zn 0.93882 0.60137 0.16159 0.0
Zn233 Zn 0.99941 0.64866 0.18511 0.0
C234 C 0.94364 0.65027 0.21041 0.0
C235 C 0.99231 0.57213 0.18714 0.0
O236 O 0.01329 0.66354 0.13889 0.0
O237 O 0.06054 0.67776 0.14484 0.0
C238 C 0.01384 0.70868 0.2239 0.0
O239 O 0.96558 0.66759 0.21731 0.0
O240 O 0.94849 0.63462 0.18753 0.0
O241 O 0.96659 0.56902 0.17487 0.0
O242 O 0.00486 0.5983 0.19149 0.0
O243 O 0.03388 0.71348 0.20429 0.0
O244 O 0.99738 0.68459 0.22175 0.0
O245 O 0.02909 0.61505 0.20459 0.0
O246 O 0.06523 0.64743 0.21567 0.0
C247 C 0.05362 0.62159 0.21855 0.0
O248 O 0.98149 0.65423 0.13757 0.0
O249 O 0.9473 0.62002 0.12152 0.0
C250 C 0.03861 0.67239 0.12756 0.0
C251 C 0.9639 0.64302 0.11692 0.0
Zn252 Zn 0.33437 0.98126 0.82807 0.0
Zn253 Zn 0.37965 0.07805 0.85078 0.0
Zn254 Zn 0.36085 0.02659 0.83478 0.0
C255 C 0.34888 0.08735 0.79821 0.0
C256 C 0.43141 0.0451 0.8348 0.0
O257 O 0.34175 0.00624 0.87775 0.0
O258 O 0.3321 0.95895 0.86552 0.0
C259 C 0.30342 0.01334 0.79294 0.0
O260 O 0.34532 0.05856 0.80042 0.0
O261 O 0.35662 0.10224 0.8212 0.0
O262 O 0.4237 0.07124 0.8431 0.0
O263 O 0.41088 0.02483 0.8304 0.0
O264 O 0.29537 0.99711 0.8148 0.0
O265 O 0.32871 0.02774 0.79483 0.0
O266 O 0.39667 0.99861 0.81734 0.0
O267 O 0.36346 0.96801 0.79624 0.0
C268 C 0.39023 0.97754 0.79848 0.0
O269 O 0.347 0.03626 0.88272 0.0
O270 O 0.36763 0.08056 0.89301 0.0
C271 C 0.33384 0.97919 0.8854 0.0
C272 C 0.35239 0.05806 0.9013 0.0
Zn273 Zn 0.92118 0.38707 0.83913 0.0
Zn274 Zn 0.04433 0.34745 0.8211 0.0
Zn275 Zn 0.99256 0.36558 0.82353 0.0
C276 C 0.04186 0.40573 0.79629 0.0
C277 C 0.01813 0.31111 0.77926 0.0
O278 O 0.97964 0.36012 0.87173 0.0
O279 O 0.93555 0.38334 0.88137 0.0
C280 C 0.96336 0.43419 0.81418 0.0
O281 O 0.01419 0.40405 0.8044 0.0
O282 O 0.06001 0.38465 0.80228 0.0
O283 O 0.04283 0.31433 0.7929 0.0
O284 O 0.99533 0.32774 0.78723 0.0
O285 O 0.93658 0.42636 0.82085 0.0
O286 O 0.98528 0.41486 0.81409 0.0
O287 O 0.96572 0.34021 0.79222 0.0
O288 O 0.92798 0.3458 0.82169 0.0
C289 C 0.93767 0.34617 0.79506 0.0
O290 O 0.01143 0.35361 0.86962 0.0
O291 O 0.05753 0.33694 0.86133 0.0
C292 C 0.95907 0.36959 0.89021 0.0
C293 C 0.03681 0.34334 0.87966 0.0
Zn294 Zn 0.59951 0.96764 0.85714 0.0
Zn295 Zn 0.66111 0.05754 0.83884 0.0
Zn296 Zn 0.62992 0.01038 0.84225 0.0
C297 C 0.60417 0.07351 0.81945 0.0
C298 C 0.68298 0.02056 0.79315 0.0
O299 O 0.64022 0.99319 0.88956 0.0
O300 O 0.60144 0.9639 0.90053 0.0
C301 C 0.55664 0.00566 0.83675 0.0
O302 O 0.59942 0.0457 0.8263 0.0
O303 O 0.62962 0.08522 0.82446 0.0
O304 O 0.68755 0.04547 0.80606 0.0
O305 O 0.66265 0.00221 0.80348 0.0
O306 O 0.55877 0.97786 0.84234 0.0
O307 O 0.58077 0.02205 0.83638 0.0
O308 O 0.63913 0.97443 0.8086 0.0
O309 O 0.62343 0.93629 0.83596 0.0
C310 C 0.63376 0.94594 0.81131 0.0
O311 O 0.65008 0.0243 0.88715 0.0
O312 O 0.67783 0.06481 0.87913 0.0
C313 C 0.62596 0.97586 0.90833 0.0
C314 C 0.66664 0.04608 0.8974 0.0
Zn315 Zn 0.04175 0.59648 0.84791 0.0
Zn316 Zn 0.96603 0.66947 0.82843 0.0
Zn317 Zn 0.00644 0.6318 0.82967 0.0
C318 C 0.93814 0.61625 0.8173 0.0
C319 C 0.99961 0.67935 0.77612 0.0
O320 O 0.02642 0.64034 0.87584 0.0
O321 O 0.04308 0.59646 0.89239 0.0
C322 C 0.00297 0.55891 0.82075 0.0
O323 O 0.96585 0.6076 0.81819 0.0
O324 O 0.93099 0.64234 0.82608 0.0
O325 O 0.97534 0.68638 0.78911 0.0
O326 O 0.01772 0.66022 0.78872 0.0
O327 O 0.03071 0.55841 0.8269 0.0
O328 O 0.9883 0.58404 0.8232 0.0
O329 O 0.0432 0.63501 0.79659 0.0
O330 O 0.07534 0.62145 0.83141 0.0
C331 C 0.07037 0.6286 0.80438 0.0
O332 O 0.99849 0.65755 0.87306 0.0
O333 O 0.96879 0.6961 0.86371 0.0
C334 C 0.03936 0.62437 0.89662 0.0
C335 C 0.98401 0.68109 0.88243 0.0
Zn336 Zn 0.1789 0.39388 0.94564 0.0
Zn337 Zn 0.18775 0.345 0.04636 0.0
Zn338 Zn 0.18939 0.36869 0.99505 0.0
C339 C 0.2065 0.4025 0.05675 0.0
C340 C 0.23598 0.31762 0.01642 0.0
O341 O 0.14182 0.36047 0.97728 0.0
O342 O 0.13479 0.39514 0.9422 0.0
C343 C 0.20151 0.43965 0.98047 0.0
O344 O 0.204 0.40241 0.0278 0.0
O345 O 0.19756 0.38023 0.07206 0.0
O346 O 0.22153 0.31814 0.04088 0.0
O347 O 0.22753 0.33475 0.99432 0.0
O348 O 0.19837 0.43384 0.95275 0.0
O349 O 0.19772 0.41828 0.99998 0.0
O350 O 0.22444 0.35361 0.96397 0.0
O351 O 0.19956 0.36123 0.92209 0.0
C352 C 0.22409 0.35485 0.93495 0.0
O353 O 0.14409 0.34894 0.00672 0.0
O354 O 0.1486 0.32549 0.0503 0.0
C355 C 0.12438 0.37407 0.95816 0.0
C356 C 0.13229 0.33336 0.02841 0.0
Zn357 Zn 0.19011 0.6725 0.97161 0.0
Zn358 Zn 0.1624 0.60506 0.05249 0.0
Zn359 Zn 0.18605 0.63793 0.01622 0.0
C360 C 0.20283 0.6444 0.08335 0.0
C361 C 0.19412 0.5644 0.01977 0.0
O362 O 0.1423 0.65195 0.99558 0.0
O363 O 0.15003 0.67867 0.95434 0.0
C364 C 0.22634 0.6988 0.01273 0.0
O365 O 0.20995 0.65323 0.05658 0.0
O366 O 0.18096 0.62647 0.08674 0.0
O367 O 0.17912 0.56562 0.04387 0.0
O368 O 0.19907 0.58908 0.00494 0.0
O369 O 0.21019 0.70643 0.99061 0.0
O370 O 0.22148 0.67341 0.02632 0.0
O371 O 0.21161 0.61073 0.98492 0.0
O372 O 0.21877 0.6457 0.94991 0.0
C373 C 0.22461 0.61999 0.96067 0.0
O374 O 0.13575 0.64611 0.02743 0.0
O375 O 0.11845 0.6068 0.05261 0.0
C376 C 0.132 0.66562 0.97202 0.0
C377 C 0.11383 0.63246 0.04138 0.0
Zn378 Zn 0.3578 0.18367 0.97754 0.0
Zn379 Zn 0.41103 0.16198 0.07247 0.0
Zn380 Zn 0.37849 0.17764 0.0299 0.0
C381 C 0.36948 0.2038 0.09478 0.0
C382 C 0.45221 0.18784 0.03861 0.0
O383 O 0.35555 0.13538 0.01362 0.0
O384 O 0.33227 0.14819 0.97162 0.0
C385 C 0.3336 0.23017 0.0142 0.0
O386 O 0.36355 0.20747 0.06653 0.0
O387 O 0.38439 0.18094 0.10289 0.0
O388 O 0.4512 0.18112 0.06622 0.0
O389 O 0.42795 0.18626 0.02259 0.0
O390 O 0.33699 0.22103 0.98749 0.0
O391 O 0.34566 0.21542 0.03631 0.0
O392 O 0.41034 0.19629 0.99761 0.0
O393 O 0.39312 0.1909 0.9511 0.0
C394 C 0.41317 0.2003 0.969 0.0
O395 O 0.37058 0.12887 0.04075 0.0
O396 O 0.40979 0.11771 0.06927 0.0
C397 C 0.33806 0.12854 0.99133 0.0
C398 C 0.3865 0.10926 0.05529 0.0
Zn399 Zn 0.85813 0.42001 0.05733 0.0
Zn400 Zn 0.83282 0.34522 0.98065 0.0
Zn401 Zn 0.83699 0.385 0.01925 0.0
C402 C 0.80745 0.39959 0.95801 0.0
C403 C 0.79131 0.32825 0.01936 0.0
O404 O 0.88433 0.37306 0.03413 0.0
O405 O 0.89908 0.4083 0.06621 0.0
C406 C 0.84017 0.45795 0.01327 0.0
O407 O 0.8206 0.41106 0.98121 0.0
O408 O 0.80791 0.37141 0.95376 0.0
O409 O 0.81007 0.31516 0.00251 0.0
O410 O 0.79688 0.35519 0.02908 0.0
O411 O 0.85362 0.45906 0.03823 0.0
O412 O 0.83165 0.4324 0.00216 0.0
O413 O 0.80573 0.3775 0.05786 0.0
O414 O 0.8285 0.40996 0.08799 0.0
C415 C 0.80736 0.39148 0.0834 0.0
O416 O 0.88073 0.3637 0.0041 0.0
O417 O 0.87228 0.33299 0.9659 0.0
C418 C 0.90447 0.38433 0.05202 0.0
C419 C 0.89074 0.34636 0.98286 0.0
Zn420 Zn 0.66982 0.82925 0.98612 0.0
Zn421 Zn 0.61264 0.84359 0.07297 0.0
Zn422 Zn 0.63981 0.83075 0.02927 0.0
C423 C 0.65588 0.8096 0.09365 0.0
C424 C 0.57008 0.81489 0.04384 0.0
O425 O 0.65304 0.87671 0.01177 0.0
O426 O 0.66759 0.86772 0.96507 0.0
C427 C 0.70364 0.79831 0.02155 0.0
O428 O 0.65711 0.8021 0.06568 0.0
O429 O 0.64838 0.83628 0.09962 0.0
O430 O 0.57639 0.81722 0.07153 0.0
O431 O 0.59112 0.81938 0.02405 0.0
O432 O 0.70887 0.82028 0.00434 0.0
O433 O 0.67741 0.7966 0.0342 0.0
O434 O 0.60921 0.80802 0.99855 0.0
O435 O 0.6473 0.79387 0.96988 0.0
C436 C 0.6201 0.79088 0.97785 0.0
O437 O 0.64346 0.87966 0.0425 0.0
O438 O 0.60274 0.8863 0.07037 0.0
C439 C 0.66094 0.8864 0.98543 0.0
C440 C 0.62603 0.89713 0.05818 0.0
Zn441 Zn 0.857 0.63075 0.93904 0.0
Zn442 Zn 0.82591 0.66321 0.04168 0.0
Zn443 Zn 0.83409 0.64954 0.98684 0.0
C444 C 0.80732 0.60555 0.03907 0.0
C445 C 0.78338 0.6957 0.00705 0.0
O446 O 0.88287 0.66372 0.98007 0.0
O447 O 0.89455 0.65157 0.9331 0.0
C448 C 0.84148 0.57946 0.9688 0.0
O449 O 0.81339 0.61126 0.01122 0.0
O450 O 0.81465 0.62407 0.05937 0.0
O451 O 0.7912 0.68927 0.03362 0.0
O452 O 0.79746 0.6841 0.98426 0.0
O453 O 0.85912 0.58704 0.94778 0.0
O454 O 0.82834 0.59986 0.98481 0.0
O455 O 0.80283 0.66824 0.95286 0.0
O456 O 0.82333 0.6439 0.91461 0.0
C457 C 0.802 0.65956 0.92502 0.0
O458 O 0.87591 0.66689 0.01008 0.0
O459 O 0.86319 0.68265 0.0556 0.0
C460 C 0.90159 0.66383 0.95771 0.0
C461 C 0.88321 0.67869 0.03579 0.0
Zn462 Zn 0.40837 0.85844 0.9644 0.0
Zn463 Zn 0.33452 0.82524 0.03509 0.0
Zn464 Zn 0.37368 0.83024 0.996 0.0
C465 C 0.38583 0.78751 0.04715 0.0
C466 C 0.31181 0.79449 0.99546 0.0
O467 O 0.36009 0.87929 0.98492 0.0
O468 O 0.39576 0.89927 0.95626 0.0
C469 C 0.44669 0.83418 0.00481 0.0
O470 O 0.39904 0.806 0.02907 0.0
O471 O 0.3576 0.78936 0.05118 0.0
O472 O 0.30198 0.81949 0.00475 0.0
O473 O 0.3401 0.79272 0.98916 0.0
O474 O 0.44656 0.8545 0.98497 0.0
O475 O 0.42165 0.82107 0.01217 0.0
O476 O 0.36555 0.80566 0.95397 0.0
O477 O 0.40193 0.83017 0.93074 0.0
C478 C 0.3822 0.80961 0.93052 0.0
O479 O 0.35885 0.87337 0.01687 0.0
O480 O 0.33455 0.86241 0.05888 0.0
C481 C 0.37047 0.90159 0.96894 0.0
C482 C 0.34714 0.88169 0.04219 0.0
Zn483 Zn 0.62069 0.17688 0.96804 0.0
Zn484 Zn 0.66524 0.20529 0.05635 0.0
Zn485 Zn 0.6461 0.19519 0.00916 0.0
C486 C 0.61009 0.21102 0.06968 0.0
C487 C 0.68472 0.25283 0.02317 0.0
O488 O 0.65889 0.14671 0.9995 0.0
O489 O 0.61692 0.13367 0.97663 0.0
C490 C 0.57446 0.20184 0.99399 0.0
O491 O 0.61164 0.21009 0.0407 0.0
O492 O 0.63166 0.20126 0.08539 0.0
O493 O 0.67594 0.24722 0.04958 0.0
O494 O 0.67728 0.23451 0.00172 0.0
O495 O 0.58128 0.19792 0.96665 0.0
O496 O 0.59553 0.20038 0.01409 0.0
O497 O 0.65548 0.22518 0.9704 0.0
O498 O 0.65289 0.18804 0.93851 0.0
C499 C 0.65451 0.21606 0.94287 0.0
O500 O 0.67162 0.15581 0.02916 0.0
O501 O 0.70004 0.17878 0.06246 0.0
C502 C 0.64217 0.12616 0.98724 0.0
C503 C 0.69185 0.15455 0.05018 0.0
Zn504 Zn 0.54468 0.69059 0.84747 0.0
Zn505 Zn 0.44967 0.66435 0.89831 0.0
Zn506 Zn 0.49472 0.68355 0.87372 0.0
C507 C 0.42893 0.71159 0.86549 0.0
C508 C 0.48165 0.68606 0.94604 0.0
O509 O 0.51357 0.64185 0.85085 0.0
O510 O 0.55319 0.65445 0.82353 0.0
C511 C 0.50701 0.73645 0.82649 0.0
O512 O 0.45762 0.71525 0.86171 0.0
O513 O 0.41938 0.68639 0.87459 0.0
O514 O 0.45515 0.67753 0.94031 0.0
O515 O 0.50062 0.68915 0.92403 0.0
O516 O 0.5339 0.72726 0.82605 0.0
O517 O 0.48683 0.72223 0.84211 0.0
O518 O 0.52693 0.69998 0.90717 0.0
O519 O 0.5705 0.69815 0.88276 0.0
C520 C 0.55567 0.70435 0.90623 0.0
O521 O 0.48411 0.63526 0.86117 0.0
O522 O 0.44921 0.62085 0.89367 0.0
C523 C 0.53553 0.6343 0.83305 0.0
C524 C 0.46665 0.61461 0.87218 0.0
Zn525 Zn 0.35739 0.44706 0.90586 0.0
Zn526 Zn 0.33779 0.53258 0.83954 0.0
Zn527 Zn 0.34066 0.49075 0.87638 0.0
C528 C 0.31571 0.55317 0.89612 0.0
C529 C 0.29257 0.49552 0.8219 0.0
O530 O 0.38918 0.47631 0.8679 0.0
O531 O 0.40172 0.44723 0.90627 0.0
C532 C 0.32999 0.48453 0.94734 0.0
O533 O 0.32427 0.52699 0.90513 0.0
O534 O 0.32003 0.56113 0.8691 0.0
O535 O 0.30747 0.51775 0.8124 0.0
O536 O 0.30136 0.48088 0.84553 0.0
O537 O 0.33767 0.45724 0.94479 0.0
O538 O 0.3316 0.50227 0.92433 0.0
O539 O 0.30893 0.45366 0.86738 0.0
O540 O 0.33849 0.41593 0.8793 0.0
C541 C 0.31284 0.42513 0.87123 0.0
O542 O 0.38482 0.5057 0.85543 0.0
O543 O 0.37705 0.54196 0.82235 0.0
C544 C 0.40917 0.4606 0.88232 0.0
C545 C 0.39525 0.52542 0.83654 0.0
Zn546 Zn 0.47574 0.32319 0.8619 0.0
Zn547 Zn 0.59585 0.33833 0.91629 0.0
Zn548 Zn 0.52916 0.32256 0.87604 0.0
C549 C 0.58343 0.29706 0.86736 0.0
C550 C 0.54492 0.31427 0.95068 0.0
O551 O 0.51539 0.36879 0.86113 0.0
O552 O 0.46896 0.36303 0.84441 0.0
C553 C 0.50311 0.2775 0.82715 0.0
O554 O 0.55886 0.28947 0.85453 0.0
O555 O 0.58417 0.32401 0.87578 0.0
O556 O 0.57275 0.32098 0.95194 0.0
O557 O 0.5302 0.3149 0.92549 0.0
O558 O 0.47823 0.2895 0.83386 0.0
O559 O 0.52774 0.28743 0.83929 0.0
O560 O 0.50249 0.30257 0.91124 0.0
O561 O 0.455 0.31139 0.89957 0.0
C562 C 0.47428 0.29936 0.91667 0.0
O563 O 0.54606 0.37011 0.87269 0.0
O564 O 0.58374 0.38083 0.90532 0.0
C565 C 0.49129 0.37997 0.84927 0.0
C566 C 0.56472 0.38888 0.88527 0.0
Zn567 Zn 0.65647 0.55614 0.90957 0.0
Zn568 Zn 0.69222 0.48783 0.83399 0.0
Zn569 Zn 0.68665 0.52607 0.87564 0.0
C570 C 0.72414 0.47075 0.88831 0.0
C571 C 0.72928 0.52933 0.81672 0.0
O572 O 0.63856 0.53719 0.85943 0.0
O573 O 0.61617 0.56351 0.89534 0.0
C574 C 0.68053 0.5165 0.94849 0.0
O575 O 0.70882 0.49191 0.90078 0.0
O576 O 0.72232 0.46579 0.86025 0.0
O577 O 0.7085 0.51546 0.80308 0.0
O578 O 0.72622 0.53487 0.84508 0.0
O579 O 0.65953 0.53558 0.94774 0.0
O580 O 0.69466 0.50968 0.92387 0.0
O581 O 0.71002 0.56936 0.86972 0.0
O582 O 0.68302 0.59127 0.90517 0.0
C583 C 0.7044 0.59246 0.88641 0.0
O584 O 0.64435 0.50403 0.85942 0.0
O585 O 0.65348 0.46733 0.82719 0.0
C586 C 0.61549 0.55229 0.86928 0.0
C587 C 0.63507 0.48127 0.84378 0.0
Zn588 Zn 0.44538 0.35554 0.1064 0.0
Zn589 Zn 0.52004 0.33461 0.18128 0.0
Zn590 Zn 0.48407 0.33683 0.13991 0.0
C591 C 0.53921 0.30134 0.12879 0.0
C592 C 0.48158 0.29806 0.20231 0.0
O593 O 0.4722 0.3853 0.14911 0.0
O594 O 0.44136 0.39867 0.11233 0.0
C595 C 0.48527 0.3306 0.0665 0.0
O596 O 0.51928 0.31696 0.11484 0.0
O597 O 0.54204 0.30323 0.15707 0.0
O598 O 0.4954 0.31965 0.21458 0.0
O599 O 0.47509 0.29962 0.17391 0.0
O600 O 0.45968 0.34293 0.06667 0.0
O601 O 0.49896 0.32599 0.09185 0.0
O602 O 0.44508 0.30732 0.15121 0.0
O603 O 0.41232 0.33137 0.12274 0.0
C604 C 0.41822 0.30971 0.1402 0.0
O605 O 0.50373 0.38153 0.15595 0.0
O606 O 0.54095 0.37267 0.18764 0.0
C607 C 0.45555 0.40533 0.136 0.0
C608 C 0.5263 0.39113 0.17181 0.0
Zn609 Zn 0.69122 0.54993 0.15868 0.0
Zn610 Zn 0.66996 0.44784 0.11812 0.0
Zn611 Zn 0.686 0.49526 0.14353 0.0
C612 C 0.71174 0.43262 0.15872 0.0
C613 C 0.69463 0.47621 0.0721 0.0
O614 O 0.64284 0.51281 0.16383 0.0
O615 O 0.65195 0.56052 0.17484 0.0
C616 C 0.7327 0.5159 0.19337 0.0
O617 O 0.71715 0.46107 0.16013 0.0
O618 O 0.68491 0.42456 0.154 0.0
O619 O 0.69086 0.44867 0.07819 0.0
O620 O 0.6926 0.49593 0.09351 0.0
O621 O 0.72153 0.54168 0.18915 0.0
O622 O 0.72316 0.493 0.17796 0.0
O623 O 0.70562 0.52228 0.107 0.0
O624 O 0.70696 0.5698 0.12201 0.0
C625 C 0.71326 0.54994 0.10263 0.0
O626 O 0.63706 0.48327 0.15273 0.0
O627 O 0.62608 0.45203 0.11551 0.0
C628 C 0.63404 0.53843 0.17459 0.0
C629 C 0.61756 0.46732 0.1379 0.0
Zn630 Zn 0.56277 0.66534 0.11257 0.0
Zn631 Zn 0.47913 0.692 0.17962 0.0
Zn632 Zn 0.52269 0.68741 0.14398 0.0
C633 C 0.4599 0.71003 0.12129 0.0
C634 C 0.51614 0.7386 0.19624 0.0
O635 O 0.53662 0.64 0.15779 0.0
O636 O 0.56823 0.62338 0.12299 0.0
C637 C 0.52418 0.68517 0.0701 0.0
O638 O 0.48709 0.70289 0.11402 0.0
O639 O 0.45103 0.70657 0.14813 0.0
O640 O 0.49284 0.72467 0.20473 0.0
O641 O 0.53227 0.72802 0.17421 0.0
O642 O 0.5498 0.67299 0.07143 0.0
O643 O 0.51017 0.69224 0.09471 0.0
O644 O 0.56068 0.71812 0.15427 0.0
O645 O 0.59392 0.69248 0.12756 0.0
C646 C 0.58778 0.71481 0.14406 0.0
O647 O 0.50473 0.64454 0.16436 0.0
O648 O 0.46889 0.65295 0.19775 0.0
C649 C 0.55392 0.61902 0.14712 0.0
C650 C 0.48406 0.63446 0.18235 0.0
Zn651 Zn 0.34539 0.57291 0.10844 0.0
Zn652 Zn 0.31659 0.49091 0.18131 0.0
Zn653 Zn 0.32461 0.53395 0.14107 0.0
C654 C 0.28501 0.48038 0.12547 0.0
C655 C 0.28863 0.53369 0.20053 0.0
O656 O 0.37282 0.54572 0.15348 0.0
O657 O 0.38814 0.57643 0.11728 0.0
C658 C 0.32291 0.53265 0.06794 0.0
O659 O 0.30474 0.49858 0.11433 0.0
O660 O 0.28262 0.47727 0.15383 0.0
O661 O 0.31438 0.52605 0.20958 0.0
O662 O 0.28623 0.54078 0.17256 0.0
O663 O 0.33451 0.5586 0.06794 0.0
O664 O 0.31798 0.51894 0.09315 0.0
O665 O 0.29566 0.57314 0.15182 0.0
O666 O 0.32136 0.60582 0.12475 0.0
C667 C 0.2994 0.60024 0.14194 0.0
O668 O 0.36718 0.51527 0.16045 0.0
O669 O 0.35535 0.47053 0.1791 0.0
C670 C 0.39353 0.56246 0.14141 0.0
C671 C 0.37514 0.48928 0.17092 0.0
Zn672 Zn 0.90909 0.46223 0.66664 0.0
Zn673 Zn 0.82865 0.52919 0.68789 0.0
Zn674 Zn 0.87657 0.49804 0.68839 0.0
C675 C 0.88139 0.55473 0.71999 0.0
C676 C 0.81625 0.49367 0.72912 0.0
O677 O 0.86565 0.48209 0.64041 0.0
O678 O 0.90628 0.45922 0.62297 0.0
C679 C 0.94893 0.50305 0.69302 0.0
O680 O 0.89777 0.53553 0.70591 0.0
O681 O 0.85295 0.55507 0.71694 0.0
O682 O 0.80256 0.49645 0.70433 0.0
O683 O 0.84526 0.49253 0.72832 0.0
O684 O 0.94798 0.47719 0.68125 0.0
O685 O 0.92381 0.51727 0.69721 0.0
O686 O 0.87297 0.45989 0.71984 0.0
O687 O 0.89086 0.42705 0.68762 0.0
C688 C 0.88148 0.43289 0.71384 0.0
O689 O 0.85787 0.51459 0.64371 0.0
O690 O 0.81952 0.54594 0.64814 0.0
C691 C 0.87957 0.46793 0.61889 0.0
C692 C 0.83879 0.53313 0.63163 0.0
Zn693 Zn 0.56551 0.90154 0.67282 0.0
Zn694 Zn 0.46202 0.8586 0.68801 0.0
Zn695 Zn 0.51522 0.87835 0.68665 0.0
C696 C 0.45679 0.91589 0.70803 0.0
C697 C 0.49532 0.82827 0.73352 0.0
O698 O 0.53001 0.86524 0.64005 0.0
O699 O 0.56907 0.89454 0.62973 0.0
C700 C 0.53135 0.95029 0.68906 0.0
O701 O 0.48524 0.91422 0.70243 0.0
O702 O 0.43946 0.89436 0.70136 0.0
O703 O 0.47025 0.83016 0.7203 0.0
O704 O 0.51737 0.84546 0.72508 0.0
O705 O 0.55874 0.94439 0.68398 0.0
O706 O 0.51197 0.92851 0.69047 0.0
O707 O 0.54725 0.86569 0.72248 0.0
O708 O 0.59003 0.87482 0.69926 0.0
C709 C 0.57614 0.86931 0.72346 0.0
O710 O 0.50005 0.85626 0.64278 0.0
O711 O 0.45318 0.84061 0.64896 0.0
C712 C 0.55051 0.87467 0.62156 0.0
C713 C 0.47601 0.8434 0.63225 0.0
Zn714 Zn 0.1624 0.47408 0.68937 0.0
Zn715 Zn 0.11397 0.59549 0.68078 0.0
Zn716 Zn 0.14451 0.5259 0.69149 0.0
C717 C 0.15898 0.57799 0.72149 0.0
C718 C 0.07262 0.54876 0.704 0.0
O719 O 0.15934 0.51317 0.64474 0.0
O720 O 0.18182 0.46934 0.65019 0.0
C721 C 0.19463 0.49667 0.73685 0.0
O722 O 0.16832 0.55105 0.72492 0.0
O723 O 0.15608 0.58615 0.69453 0.0
O724 O 0.07643 0.57689 0.70014 0.0
O725 O 0.09488 0.53003 0.70096 0.0
O726 O 0.18938 0.47214 0.72355 0.0
O727 O 0.1811 0.52101 0.72784 0.0
O728 O 0.1071 0.50016 0.70675 0.0
O729 O 0.1231 0.45414 0.69675 0.0
C730 C 0.10303 0.47156 0.70699 0.0
O731 O 0.14939 0.5446 0.64544 0.0
O732 O 0.11837 0.58402 0.63739 0.0
C733 C 0.17372 0.49063 0.63323 0.0
C734 C 0.13706 0.56442 0.62788 0.0
Zn735 Zn 0.44878 0.11617 0.65819 0.0
Zn736 Zn 0.52243 0.18877 0.69075 0.0
Zn737 Zn 0.48821 0.14567 0.68286 0.0
C738 C 0.53714 0.13571 0.72685 0.0
C739 C 0.47953 0.20469 0.72169 0.0
O740 O 0.48106 0.15749 0.63394 0.0
O741 O 0.4498 0.1236 0.61501 0.0
C742 C 0.48973 0.07453 0.68363 0.0
O743 O 0.52183 0.12103 0.70706 0.0
O744 O 0.53865 0.16418 0.72523 0.0
O745 O 0.48901 0.21755 0.69817 0.0
O746 O 0.47547 0.17598 0.72078 0.0
O747 O 0.46446 0.07644 0.6706 0.0
O748 O 0.50416 0.0988 0.69056 0.0
O749 O 0.44738 0.15177 0.71046 0.0
O750 O 0.41335 0.13232 0.68009 0.0
C751 C 0.41997 0.14366 0.70533 0.0
O752 O 0.50992 0.16707 0.64185 0.0
O753 O 0.54782 0.19633 0.65554 0.0
C754 C 0.46624 0.14647 0.61134 0.0
C755 C 0.53306 0.18351 0.6349 0.0
Zn756 Zn 0.85217 0.47972 0.3219 0.0
Zn757 Zn 0.90564 0.57042 0.35572 0.0
Zn758 Zn 0.87903 0.52872 0.33067 0.0
C759 C 0.87772 0.59392 0.30339 0.0
C760 C 0.9521 0.53609 0.33568 0.0
O761 O 0.86068 0.50696 0.37305 0.0
O762 O 0.84355 0.46172 0.36104 0.0
C763 C 0.82344 0.52058 0.28579 0.0
O764 O 0.86701 0.56694 0.30064 0.0
O765 O 0.89274 0.60065 0.3266 0.0
O766 O 0.94797 0.55892 0.35205 0.0
O767 O 0.92901 0.5218 0.32497 0.0
O768 O 0.81871 0.49598 0.29918 0.0
O769 O 0.84624 0.53731 0.29304 0.0
O770 O 0.91246 0.49947 0.3095 0.0
O771 O 0.88339 0.46102 0.29625 0.0
C772 C 0.90834 0.47462 0.29505 0.0
O773 O 0.86361 0.53788 0.3793 0.0
O774 O 0.89127 0.5758 0.39629 0.0
C775 C 0.84982 0.481 0.38095 0.0
C776 C 0.87057 0.55685 0.40047 0.0
Zn777 Zn 0.47996 0.91717 0.34725 0.0
Zn778 Zn 0.56457 0.85102 0.33381 0.0
Zn779 Zn 0.51994 0.88495 0.3328 0.0
C780 C 0.58725 0.9071 0.31963 0.0
C781 C 0.53239 0.83465 0.28225 0.0
O782 O 0.49606 0.87402 0.37684 0.0
O783 O 0.47451 0.91665 0.39111 0.0
C784 C 0.51886 0.95831 0.32886 0.0
O785 O 0.55914 0.91357 0.32353 0.0
O786 O 0.59647 0.88073 0.32492 0.0
O787 O 0.55452 0.82753 0.29857 0.0
O788 O 0.51429 0.85586 0.29096 0.0
O789 O 0.49048 0.95683 0.32983 0.0
O790 O 0.53462 0.93385 0.33135 0.0
O791 O 0.48653 0.87978 0.29643 0.0
O792 O 0.44947 0.89126 0.32692 0.0
C793 C 0.45815 0.88386 0.30091 0.0
O794 O 0.52581 0.86015 0.37664 0.0
O795 O 0.56519 0.83024 0.37259 0.0
C796 C 0.47995 0.88919 0.396 0.0
C797 C 0.5443 0.84103 0.38857 0.0
Zn798 Zn 0.11441 0.45004 0.35043 0.0
Zn799 Zn 0.17202 0.5422 0.33024 0.0
Zn800 Zn 0.1464 0.49135 0.33303 0.0
C801 C 0.11716 0.55416 0.30867 0.0
C802 C 0.19468 0.50511 0.28315 0.0
O803 O 0.15608 0.47786 0.38133 0.0
O804 O 0.11872 0.44722 0.3937 0.0
C805 C 0.07299 0.48717 0.32851 0.0
O806 O 0.11626 0.52547 0.3133 0.0
O807 O 0.13904 0.56962 0.31828 0.0
O808 O 0.1958 0.53077 0.29533 0.0
O809 O 0.17835 0.48391 0.29474 0.0
O810 O 0.07353 0.45988 0.33641 0.0
O811 O 0.09786 0.50209 0.3264 0.0
O812 O 0.15956 0.45351 0.30276 0.0
O813 O 0.13592 0.41845 0.32885 0.0
C814 C 0.15171 0.42565 0.30632 0.0
O815 O 0.16587 0.50831 0.37693 0.0
O816 O 0.19233 0.54962 0.36863 0.0
C817 C 0.14243 0.46104 0.40094 0.0
C818 C 0.18179 0.53063 0.38699 0.0
Zn819 Zn 0.58549 0.13761 0.3435 0.0
Zn820 Zn 0.47615 0.16415 0.33378 0.0
Zn821 Zn 0.53092 0.15337 0.33313 0.0
C822 C 0.4792 0.10593 0.31742 0.0
C823 C 0.49774 0.19883 0.28638 0.0
O824 O 0.54629 0.16823 0.37943 0.0
O825 O 0.59577 0.16167 0.37911 0.0
C826 C 0.55653 0.08368 0.33555 0.0
O827 O 0.50715 0.11318 0.31982 0.0
O828 O 0.45893 0.12388 0.32607 0.0
O829 O 0.47381 0.19098 0.29953 0.0
O830 O 0.52327 0.18762 0.29531 0.0
O831 O 0.58082 0.09259 0.34756 0.0
O832 O 0.53659 0.10332 0.32744 0.0
O833 O 0.55387 0.17272 0.29365 0.0
O834 O 0.59792 0.15151 0.30323 0.0
C835 C 0.58068 0.16514 0.28509 0.0
O836 O 0.51493 0.17023 0.37878 0.0
O837 O 0.46752 0.18369 0.37184 0.0
C838 C 0.57235 0.17116 0.39216 0.0
C839 C 0.4899 0.1812 0.38913 0.0
Zn840 Zn 0.66157 0.91049 0.46697 0.0
Zn841 Zn 0.69011 0.83552 0.54131 0.0
Zn842 Zn 0.68576 0.87632 0.50276 0.0
C843 C 0.71876 0.89001 0.56182 0.0
C844 C 0.72937 0.81812 0.49877 0.0
O845 O 0.63761 0.86448 0.48999 0.0
O846 O 0.6194 0.90088 0.46132 0.0
C847 C 0.68398 0.94987 0.50855 0.0
O848 O 0.70579 0.90209 0.53886 0.0
O849 O 0.71594 0.86206 0.56662 0.0
O850 O 0.71242 0.80606 0.51816 0.0
O851 O 0.7242 0.84535 0.48965 0.0
O852 O 0.6692 0.94968 0.4843 0.0
O853 O 0.69297 0.92456 0.52 0.0
O854 O 0.7134 0.86762 0.46207 0.0
O855 O 0.68773 0.89896 0.43337 0.0
C856 C 0.70922 0.88058 0.43633 0.0
O857 O 0.64284 0.85555 0.52038 0.0
O858 O 0.65075 0.82338 0.55744 0.0
C859 C 0.61584 0.87586 0.47421 0.0
C860 C 0.63251 0.83783 0.54116 0.0
Zn861 Zn 0.70065 0.16163 0.48206 0.0
Zn862 Zn 0.67074 0.12295 0.58368 0.0
Zn863 Zn 0.68953 0.14596 0.53412 0.0
C864 C 0.71986 0.15735 0.59747 0.0
C865 C 0.68898 0.07336 0.55344 0.0
O866 O 0.6491 0.16816 0.512 0.0
O867 O 0.66673 0.18662 0.46934 0.0
C868 C 0.74522 0.18905 0.51675 0.0
O869 O 0.72147 0.16096 0.56864 0.0
O870 O 0.69454 0.15153 0.60911 0.0
O871 O 0.68201 0.07945 0.58038 0.0
O872 O 0.69223 0.09515 0.53424 0.0
O873 O 0.7384 0.18281 0.48989 0.0
O874 O 0.72878 0.17872 0.53865 0.0
O875 O 0.70721 0.10849 0.50816 0.0
O876 O 0.70715 0.1235 0.46066 0.0
C877 C 0.71327 0.10381 0.48019 0.0
O878 O 0.64187 0.16003 0.54185 0.0
O879 O 0.62769 0.13108 0.57995 0.0
C880 C 0.64489 0.18286 0.48716 0.0
C881 C 0.62135 0.15047 0.56019 0.0
Zn882 Zn 0.90191 0.67142 0.57395 0.0
Zn883 Zn 0.86424 0.69203 0.46736 0.0
Zn884 Zn 0.87719 0.68665 0.52272 0.0
C885 C 0.92077 0.71186 0.4687 0.0
C886 C 0.82899 0.73463 0.49989 0.0
O887 O 0.86572 0.63877 0.53539 0.0
O888 O 0.89865 0.62752 0.57113 0.0
C889 C 0.94955 0.69091 0.54229 0.0
O890 O 0.91501 0.70507 0.49636 0.0
O891 O 0.90211 0.70553 0.4482 0.0
O892 O 0.83492 0.7241 0.47414 0.0
O893 O 0.84285 0.72435 0.52345 0.0
O894 O 0.94392 0.68761 0.57005 0.0
O895 O 0.92759 0.69063 0.52303 0.0
O896 O 0.86013 0.71977 0.55444 0.0
O897 O 0.86745 0.69245 0.59471 0.0
C898 C 0.86318 0.71811 0.58326 0.0
O899 O 0.85589 0.644 0.5055 0.0
O900 O 0.84649 0.65301 0.45744 0.0
C901 C 0.87772 0.61945 0.55367 0.0
C902 C 0.84535 0.63539 0.47973 0.0
Zn903 Zn 0.3261 0.84872 0.47289 0.0
Zn904 Zn 0.35476 0.90068 0.56075 0.0
Zn905 Zn 0.33311 0.87306 0.51815 0.0
C906 C 0.30611 0.8643 0.58196 0.0
C907 C 0.33592 0.94647 0.52521 0.0
O908 O 0.37625 0.85846 0.49643 0.0
O909 O 0.36258 0.85452 0.44872 0.0
C910 C 0.29892 0.81158 0.50749 0.0
O911 O 0.30482 0.8549 0.55448 0.0
O912 O 0.3261 0.88319 0.58933 0.0
O913 O 0.34923 0.94296 0.55005 0.0
O914 O 0.32677 0.92309 0.51023 0.0
O915 O 0.32058 0.80804 0.48939 0.0
O916 O 0.29698 0.83687 0.52187 0.0
O917 O 0.30726 0.90639 0.49209 0.0
O918 O 0.28818 0.87082 0.46335 0.0
C919 C 0.28644 0.89716 0.47399 0.0
O920 O 0.38254 0.86025 0.5272 0.0
O921 O 0.39629 0.88869 0.56579 0.0
C922 C 0.38318 0.85513 0.46834 0.0
C923 C 0.40263 0.86862 0.54677 0.0
Zn924 Zn 0.16034 0.33012 0.48135 0.0
Zn925 Zn 0.12057 0.3509 0.58303 0.0
Zn926 Zn 0.14204 0.33344 0.53376 0.0
C927 C 0.15948 0.30254 0.59492 0.0
C928 C 0.0705 0.32947 0.55434 0.0
O929 O 0.15935 0.37705 0.51357 0.0
O930 O 0.1804 0.3672 0.46957 0.0
C931 C 0.19076 0.28436 0.51109 0.0
O932 O 0.16248 0.3023 0.56596 0.0
O933 O 0.14662 0.32465 0.60743 0.0
O934 O 0.07749 0.3398 0.57989 0.0
O935 O 0.09145 0.32527 0.53441 0.0
O936 O 0.18685 0.29615 0.48562 0.0
O937 O 0.1771 0.29569 0.53439 0.0
O938 O 0.10566 0.31374 0.50736 0.0
O939 O 0.12275 0.31864 0.46074 0.0
C940 C 0.10296 0.30908 0.47884 0.0
O941 O 0.15232 0.38272 0.54367 0.0
O942 O 0.12757 0.394 0.58548 0.0
C943 C 0.17326 0.3861 0.4895 0.0
C944 C 0.14414 0.40212 0.5639 0.0
Zn945 Zn 0.35558 0.1181 0.44985 0.0
Zn946 Zn 0.33613 0.17061 0.5447 0.0
Zn947 Zn 0.33663 0.14397 0.49558 0.0
C948 C 0.3185 0.11206 0.55763 0.0
C949 C 0.28774 0.1948 0.51316 0.0
O950 O 0.38464 0.15611 0.48069 0.0
O951 O 0.39834 0.12524 0.444 0.0
C952 C 0.33592 0.07119 0.4843 0.0
O953 O 0.32177 0.10975 0.5288 0.0
O954 O 0.32577 0.13625 0.57074 0.0
O955 O 0.30216 0.19618 0.53755 0.0
O956 O 0.29692 0.1767 0.49203 0.0
O957 O 0.34564 0.07609 0.45807 0.0
O958 O 0.33138 0.09371 0.50233 0.0
O959 O 0.30336 0.15728 0.46106 0.0
O960 O 0.32831 0.13881 0.42218 0.0
C961 C 0.30515 0.15169 0.43251 0.0
O962 O 0.38034 0.16585 0.51025 0.0
O963 O 0.37386 0.19182 0.55216 0.0
C964 C 0.40471 0.14649 0.46167 0.0
C965 C 0.39114 0.18272 0.53153 0.0
Zn966 Zn 0.91186 0.35344 0.46598 0.0
Zn967 Zn 0.82748 0.32269 0.5408 0.0
Zn968 Zn 0.87639 0.33283 0.50004 0.0
C969 C 0.88611 0.29438 0.55448 0.0
C970 C 0.81963 0.29329 0.49333 0.0
O971 O 0.86488 0.38053 0.48388 0.0
O972 O 0.90759 0.39704 0.46425 0.0
C973 C 0.9486 0.33022 0.50892 0.0
O974 O 0.89831 0.31546 0.53871 0.0
O975 O 0.85763 0.29139 0.55555 0.0
O976 O 0.80812 0.31832 0.50019 0.0
O977 O 0.84831 0.29286 0.48933 0.0
O978 O 0.95082 0.33883 0.48195 0.0
O979 O 0.92232 0.32818 0.5213 0.0
O980 O 0.87514 0.30091 0.46194 0.0
O981 O 0.89498 0.33295 0.42994 0.0
C982 C 0.88497 0.30688 0.43533 0.0
O983 O 0.8526 0.37465 0.51338 0.0
O984 O 0.83006 0.36393 0.5567 0.0
C985 C 0.8804 0.40178 0.471 0.0
C986 C 0.83978 0.38322 0.53811 0.0
Zn987 Zn 0.1133 0.66133 0.45492 0.0
Zn988 Zn 0.1825 0.69381 0.52837 0.0
Zn989 Zn 0.14579 0.68592 0.48989 0.0
C990 C 0.13263 0.73049 0.53934 0.0
C991 C 0.2078 0.71958 0.48492 0.0
O992 O 0.15823 0.63645 0.48118 0.0
O993 O 0.12494 0.62044 0.44777 0.0
C994 C 0.07287 0.68251 0.49648 0.0
O995 O 0.12004 0.70993 0.52318 0.0
O996 O 0.16098 0.73114 0.54237 0.0
O997 O 0.21604 0.69637 0.49906 0.0
O998 O 0.17954 0.72227 0.47858 0.0
O999 O 0.07401 0.66591 0.47346 0.0
O1000 O 0.09762 0.69408 0.50682 0.0
O1001 O 0.15577 0.7116 0.4483 0.0
O1002 O 0.12206 0.68741 0.42107 0.0
C1003 C 0.14156 0.70798 0.42319 0.0
O1004 O 0.16334 0.64386 0.51073 0.0
O1005 O 0.18189 0.65837 0.55457 0.0
C1006 C 0.14778 0.6154 0.46379 0.0
C1007 C 0.17335 0.63747 0.5373 0.0
C1008 C 0.98627 0.21728 0.52476 0.0
C1009 C 0.00243 0.19086 0.53213 0.0
C1010 C 0.97536 0.22215 0.49504 0.0
C1011 C 0.98117 0.20113 0.47181 0.0
H1012 H 0.98297 0.23463 0.5416 0.0
H1013 H 0.96303 0.24264 0.49006 0.0
S1014 S 0.01955 0.12732 0.47987 0.0
N1015 N 0.02091 0.14238 0.5139 0.0
N1016 N 0.00199 0.15233 0.45867 0.0
C1017 C 0.99653 0.17454 0.47919 0.0
C1018 C 0.00676 0.16922 0.50914 0.0
C1019 C 0.82644 0.02429 0.52842 0.0
C1020 C 0.82856 0.00451 0.55326 0.0
C1021 C 0.82816 0.01378 0.49868 0.0
C1022 C 0.83062 0.983 0.49201 0.0
H1023 H 0.82483 0.04844 0.53184 0.0
H1024 H 0.82952 0.03013 0.48086 0.0
S1025 S 0.83783 0.92137 0.54852 0.0
N1026 N 0.83539 0.95239 0.56901 0.0
N1027 N 0.83515 0.93239 0.51302 0.0
C1028 C 0.83203 0.9627 0.51657 0.0
C1029 C 0.83167 0.9735 0.5471 0.0
C1030 C 0.02312 0.86406 0.52847 0.0
C1031 C 0.01679 0.83568 0.54104 0.0
C1032 C 0.03325 0.86679 0.49865 0.0
C1033 C 0.03673 0.84127 0.48008 0.0
H1034 H 0.01985 0.88436 0.54172 0.0
H1035 H 0.03789 0.88914 0.48986 0.0
S1036 S 0.0247 0.76193 0.50285 0.0
N1037 N 0.01595 0.7815 0.53337 0.0
N1038 N 0.03457 0.78669 0.47682 0.0
C1039 C 0.03071 0.81273 0.49245 0.0
C1040 C 0.02086 0.80992 0.5231 0.0
C1041 C 0.1905 0.99162 0.5173 0.0
C1042 C 0.19112 0.01112 0.54231 0.0
C1043 C 0.19037 0.00271 0.4879 0.0
C1044 C 0.19271 0.03366 0.48187 0.0
H1045 H 0.18826 0.96746 0.52048 0.0
H1046 H 0.18633 0.98687 0.46996 0.0
S1047 S 0.1938 0.09458 0.53968 0.0
N1048 N 0.19148 0.06311 0.55951 0.0
N1049 N 0.19547 0.0841 0.50391 0.0
C1050 C 0.19424 0.05359 0.5068 0.0
C1051 C 0.19259 0.04227 0.53703 0.0
C1052 C 0.54056 0.97475 0.21751 0.0
C1053 C 0.54878 0.00111 0.20185 0.0
C1054 C 0.50991 0.96655 0.22089 0.0
C1055 C 0.48647 0.98433 0.20855 0.0
H1056 H 0.55787 0.95948 0.22554 0.0
H1057 H 0.50459 0.94538 0.23191 0.0
S1058 S 0.49684 0.05561 0.16554 0.0
N1059 N 0.53138 0.04542 0.175 0.0
N1060 N 0.47439 0.0296 0.17993 0.0
C1061 C 0.49466 0.01136 0.19393 0.0
C1062 C 0.52565 0.01979 0.1909 0.0
C1063 C 0.00508 0.52231 0.21029 0.0
C1064 C 0.01063 0.54469 0.1885 0.0
C1065 C 0.01754 0.49326 0.20719 0.0
C1066 C 0.03496 0.48559 0.18174 0.0
H1067 H 0.99037 0.527 0.22927 0.0
H1068 H 0.01322 0.47666 0.22456 0.0
S1069 S 0.05596 0.53703 0.11874 0.0
N1070 N 0.03514 0.55796 0.14145 0.0
N1071 N 0.05773 0.5035 0.13486 0.0
C1072 C 0.04112 0.50828 0.16025 0.0
C1073 C 0.02896 0.53775 0.16374 0.0
C1074 C 0.5028 0.9996 0.82182 0.0
C1075 C 0.52603 0.01855 0.83231 0.0
C1076 C 0.47274 0.00911 0.82142 0.0
C1077 C 0.46415 0.03766 0.83183 0.0
H1078 H 0.50765 0.97674 0.81481 0.0
H1079 H 0.4559 0.99354 0.81379 0.0
S1080 S 0.51649 0.09676 0.86062 0.0
N1081 N 0.53862 0.06785 0.85275 0.0
N1082 N 0.482 0.08591 0.85152 0.0
C1083 C 0.48733 0.05752 0.84123 0.0
C1084 C 0.51821 0.04784 0.84163 0.0
C1085 C 0.99793 0.51021 0.79207 0.0
C1086 C 0.98799 0.52938 0.8155 0.0
C1087 C 0.98876 0.47971 0.7906 0.0
C1088 C 0.96995 0.46716 0.81289 0.0
H1089 H 0.01369 0.51858 0.77535 0.0
H1090 H 0.99683 0.46573 0.77228 0.0
S1091 S 0.93804 0.50775 0.87901 0.0
N1092 N 0.95834 0.53353 0.8613 0.0
N1093 N 0.94117 0.47664 0.85871 0.0
C1094 C 0.95921 0.48641 0.83587 0.0
C1095 C 0.96844 0.5173 0.83729 0.0
C1096 C 0.20101 0.50964 0.02982 0.0
C1097 C 0.20289 0.53369 0.00903 0.0
C1098 C 0.20161 0.47956 0.02048 0.0
C1099 C 0.20592 0.47165 0.99015 0.0
H1100 H 0.19688 0.51394 0.05355 0.0
H1101 H 0.19638 0.46262 0.03703 0.0
S1102 S 0.21518 0.52559 0.92659 0.0
N1103 N 0.21 0.5473 0.95644 0.0
N1104 N 0.2147 0.49059 0.93928 0.0
C1105 C 0.21025 0.49537 0.96926 0.0
C1106 C 0.20816 0.52632 0.97862 0.0
C1107 C 0.53231 0.21676 0.02911 0.0
C1108 C 0.54203 0.20219 0.00269 0.0
C1109 C 0.50275 0.21313 0.04003 0.0
C1110 C 0.48169 0.195 0.02462 0.0
H1111 H 0.5477 0.23078 0.0416 0.0
H1112 H 0.49651 0.22408 0.061 0.0
S1113 S 0.49553 0.15188 0.95426 0.0
N1114 N 0.52776 0.16933 0.96098 0.0
N1115 N 0.4725 0.16229 0.98164 0.0
C1116 C 0.49069 0.18122 0.99755 0.0
C1117 C 0.52074 0.18493 0.98648 0.0
C1118 C 0.86551 0.52963 0.97669 0.0
C1119 C 0.83917 0.54729 0.97689 0.0
C1120 C 0.86502 0.49971 0.98662 0.0
C1121 C 0.83806 0.48623 0.99641 0.0
H1122 H 0.88696 0.53938 0.97007 0.0
H1123 H 0.8861 0.48736 0.98776 0.0
S1124 S 0.76244 0.52127 0.99712 0.0
N1125 N 0.78493 0.54829 0.9847 0.0
N1126 N 0.78408 0.49163 0.00362 0.0
C1127 C 0.8113 0.503 0.9953 0.0
C1128 C 0.81183 0.53369 0.98542 0.0
C1129 C 0.53068 0.82202 0.00471 0.0
C1130 C 0.53781 0.81404 0.03446 0.0
C1131 C 0.50095 0.82607 0.99539 0.0
C1132 C 0.47671 0.82451 0.01588 0.0
H1133 H 0.54829 0.82763 0.98887 0.0
H1134 H 0.49712 0.83225 0.97203 0.0
S1135 S 0.48294 0.80957 0.09793 0.0
N1136 N 0.51781 0.80595 0.08518 0.0
N1137 N 0.46199 0.81802 0.06825 0.0
C1138 C 0.4832 0.81766 0.04612 0.0
C1139 C 0.51368 0.81161 0.05532 0.0
C1140 C 0.52084 0.69576 0.98578 0.0
C1141 C 0.49071 0.68962 0.97834 0.0
C1142 C 0.53075 0.69643 0.0157 0.0
C1143 C 0.51112 0.68977 0.03975 0.0
H1144 H 0.53739 0.69849 0.96842 0.0
H1145 H 0.55446 0.70081 0.01993 0.0
S1146 S 0.43028 0.66932 0.03327 0.0
N1147 N 0.44092 0.67654 0.99828 0.0
N1148 N 0.4606 0.67449 0.05429 0.0
C1149 C 0.48093 0.68313 0.03301 0.0
C1150 C 0.47047 0.68374 0.00243 0.0
C1151 C 0.29888 0.50511 0.99038 0.0
C1152 C 0.32691 0.4965 0.97811 0.0
C1153 C 0.29682 0.51516 0.02057 0.0
C1154 C 0.32274 0.51654 0.03896 0.0
H1155 H 0.27871 0.50435 0.97659 0.0
H1156 H 0.27525 0.52281 0.02918 0.0
S1157 S 0.40073 0.49577 0.01716 0.0
N1158 N 0.38047 0.48929 0.98659 0.0
N1159 N 0.3767 0.50821 0.04282 0.0
C1160 C 0.35049 0.50734 0.02689 0.0
C1161 C 0.35255 0.49726 0.99655 0.0
C1162 C 0.53486 0.29688 0.00411 0.0
C1163 C 0.52751 0.3151 0.97914 0.0
C1164 C 0.52054 0.30117 0.03228 0.0
C1165 C 0.49943 0.32451 0.0366 0.0
H1166 H 0.55183 0.27944 0.00188 0.0
H1167 H 0.52594 0.28619 0.05073 0.0
S1168 S 0.47282 0.37836 0.97787 0.0
N1169 N 0.49743 0.35671 0.96025 0.0
N1170 N 0.47163 0.36563 0.01284 0.0
C1171 C 0.49167 0.34241 0.01142 0.0
C1172 C 0.50557 0.33758 0.98285 0.0
C1173 C 0.68579 0.52553 0.00318 0.0
C1174 C 0.68928 0.50543 0.9788 0.0
C1175 C 0.68901 0.51608 0.03299 0.0
C1176 C 0.69653 0.48615 0.04009 0.0
H1177 H 0.6794 0.54882 0.99928 0.0
H1178 H 0.68369 0.53217 0.05049 0.0
S1179 S 0.70846 0.42434 0.9848 0.0
N1180 N 0.70051 0.45404 0.96367 0.0
N1181 N 0.70808 0.4363 0.02009 0.0
C1182 C 0.70124 0.46588 0.01594 0.0
C1183 C 0.69742 0.47552 0.98524 0.0
C1184 C 0.00493 0.49859 0.68958 0.0
C1185 C 0.97978 0.5156 0.69941 0.0
C1186 C 0.03446 0.5092 0.69223 0.0
C1187 C 0.04103 0.53695 0.70591 0.0
H1188 H 0.00199 0.47704 0.67842 0.0
H1189 H 0.05209 0.496 0.68177 0.0
S1190 S 0.98434 0.59002 0.73768 0.0
N1191 N 0.96386 0.56183 0.7243 0.0
N1192 N 0.01993 0.5812 0.73073 0.0
C1193 C 0.01643 0.55406 0.7169 0.0
C1194 C 0.98583 0.54347 0.7135 0.0
C1195 C 0.49095 0.98952 0.68942 0.0
C1196 C 0.52167 0.98234 0.69182 0.0
C1197 C 0.48109 0.0194 0.68882 0.0
C1198 C 0.50157 0.04375 0.68949 0.0
H1199 H 0.47432 0.97204 0.68632 0.0
H1200 H 0.45706 0.02332 0.68648 0.0
S1201 S 0.58481 0.0376 0.6959 0.0
N1202 N 0.5728 0.00232 0.69644 0.0
N1203 N 0.55428 0.05869 0.69259 0.0
C1204 C 0.53246 0.03714 0.69231 0.0
C1205 C 0.54249 0.00645 0.69395 0.0
C1206 C 0.98902 0.4967 0.31893 0.0
C1207 C 0.98355 0.52569 0.33034 0.0
C1208 C 0.01829 0.48521 0.31629 0.0
C1209 C 0.04341 0.50214 0.32566 0.0
H1210 H 0.97052 0.48208 0.31375 0.0
H1211 H 0.02112 0.46229 0.3082 0.0
S1212 S 0.04178 0.57877 0.35937 0.0
N1213 N 0.00622 0.57136 0.35116 0.0
N1214 N 0.06099 0.54878 0.34852 0.0
C1215 C 0.03854 0.53131 0.33706 0.0
C1216 C 0.00869 0.54329 0.33898 0.0
C1217 C 0.53129 0.04052 0.30882 0.0
C1218 C 0.55055 0.05074 0.3319 0.0
C1219 C 0.52201 0.01026 0.30722 0.0
C1220 C 0.53276 0.98872 0.32787 0.0
H1221 H 0.52317 0.05609 0.29195 0.0
H1222 H 0.50598 0.00373 0.28992 0.0
S1223 S 0.58745 0.00241 0.3896 0.0
N1224 N 0.58246 0.03597 0.37413 0.0
N1225 N 0.56614 0.97882 0.3701 0.0
C1226 C 0.55402 0.99796 0.34946 0.0
C1227 C 0.56283 0.02899 0.35162 0.0
C1228 C 0.69045 0.00495 0.50214 0.0
C1229 C 0.69008 0.98008 0.52194 0.0
C1230 C 0.6902 0.03456 0.51275 0.0
C1231 C 0.69154 0.04122 0.54361 0.0
H1232 H 0.68922 0.00163 0.47794 0.0
H1233 H 0.68704 0.05227 0.49645 0.0
S1234 S 0.69039 0.98455 0.60552 0.0
N1235 N 0.68897 0.9641 0.57436 0.0
N1236 N 0.69251 0.0201 0.59443 0.0
C1237 C 0.6922 0.01661 0.56396 0.0
C1238 C 0.69083 0.98606 0.55309 0.0
C1239 C 0.01715 0.68214 0.49086 0.0
C1240 C 0.0423 0.68793 0.50952 0.0
C1241 C 0.98764 0.6838 0.50169 0.0
C1242 C 0.98139 0.69219 0.53153 0.0
H1243 H 0.02015 0.6754 0.46756 0.0
H1244 H 0.96965 0.67708 0.48666 0.0
S1245 S 0.03851 0.7091 0.59041 0.0
N1246 N 0.05881 0.70137 0.56005 0.0
N1247 N 0.00282 0.70614 0.58012 0.0
C1248 C 0.00611 0.69844 0.55064 0.0
C1249 C 0.03659 0.69609 0.53968 0.0
C1250 C 0.33186 0.00177 0.5345 0.0
C1251 C 0.33262 0.97768 0.51375 0.0
C1252 C 0.33252 0.03184 0.52484 0.0
C1253 C 0.3325 0.03923 0.49406 0.0
H1254 H 0.33189 0.99741 0.55857 0.0
H1255 H 0.33455 0.04927 0.54169 0.0
S1256 S 0.33655 0.9844 0.43046 0.0
N1257 N 0.33664 0.96317 0.46106 0.0
N1258 N 0.33387 0.01952 0.44258 0.0
C1259 C 0.33294 0.01524 0.47296 0.0
C1260 C 0.33392 0.98458 0.48289 0.0
C1261 C 0.02877 0.30615 0.52365 0.0
C1262 C 0.03786 0.32566 0.54687 0.0
C1263 C 0.99902 0.30605 0.51283 0.0
C1264 C 0.97688 0.32482 0.52562 0.0
H1265 H 0.04487 0.29132 0.51337 0.0
H1266 H 0.9936 0.29205 0.49353 0.0
S1267 S 0.98739 0.37739 0.58967 0.0
N1268 N 0.02112 0.36243 0.58431 0.0
N1269 N 0.96508 0.3616 0.56434 0.0
C1270 C 0.98485 0.3427 0.55044 0.0
C1271 C 0.01531 0.34316 0.56115 0.0
C1272 C 0.00546 0.28453 0.29714 0.0
C1273 C 0.02841 0.26281 0.2981 0.0
C1274 C 0.00668 0.30847 0.27647 0.0
C1275 C 0.03074 0.31169 0.25568 0.0
H1276 H 0.98624 0.2829 0.31219 0.0
H1277 H 0.98776 0.32396 0.2758 0.0
S1278 S 0.09739 0.26199 0.24969 0.0
N1279 N 0.07708 0.24711 0.27721 0.0
N1280 N 0.07853 0.29197 0.23817 0.0
C1281 C 0.05448 0.29106 0.2572 0.0
C1282 C 0.05344 0.26662 0.27835 0.0
C1283 C 0.73623 0.01875 0.31445 0.0
C1284 C 0.76042 0.9979 0.3152 0.0
C1285 C 0.71968 0.02435 0.28789 0.0
C1286 C 0.72702 0.00973 0.26075 0.0
H1287 H 0.73146 0.03248 0.33413 0.0
H1288 H 0.70216 0.04139 0.28825 0.0
S1289 S 0.78451 0.94894 0.25205 0.0
N1290 N 0.788 0.95977 0.28754 0.0
N1291 N 0.75714 0.96973 0.23767 0.0
C1292 C 0.74942 0.98687 0.26192 0.0
C1293 C 0.76598 0.98103 0.28911 0.0
C1294 C 0.03762 0.77309 0.27581 0.0
C1295 C 0.02488 0.76538 0.30366 0.0
C1296 C 0.03266 0.75517 0.25014 0.0
C1297 C 0.01486 0.72856 0.25114 0.0
H1298 H 0.05001 0.79406 0.27339 0.0
H1299 H 0.04283 0.76253 0.22914 0.0
S1300 S 0.97772 0.6979 0.3196 0.0
N1301 N 0.99406 0.72935 0.33123 0.0
N1302 N 0.98598 0.69487 0.28336 0.0
C1303 C 0.00274 0.7202 0.27921 0.0
C1304 C 0.00751 0.73872 0.3053 0.0
C1305 C 0.30754 0.00025 0.28766 0.0
C1306 C 0.30679 0.02122 0.26396 0.0
C1307 C 0.28696 0.00214 0.31178 0.0
C1308 C 0.2647 0.02501 0.31329 0.0
H1309 H 0.32396 0.98214 0.28751 0.0
H1310 H 0.28756 0.98461 0.32883 0.0
S1311 S 0.25323 0.0859 0.25748 0.0
N1312 N 0.28205 0.06641 0.24414 0.0
N1313 N 0.24352 0.06918 0.28932 0.0
C1314 C 0.26433 0.0467 0.29043 0.0
C1315 C 0.28521 0.04489 0.26579 0.0
C1316 C 0.03418 0.71202 0.74586 0.0
C1317 C 0.00656 0.69698 0.74843 0.0
C1318 C 0.03706 0.73737 0.72702 0.0
C1319 C 0.01246 0.74885 0.70996 0.0
H1320 H 0.05288 0.70591 0.76039 0.0
H1321 H 0.05859 0.74898 0.7271 0.0
S1322 S 0.93708 0.71324 0.70413 0.0
N1323 N 0.95543 0.6921 0.72875 0.0
N1324 N 0.96103 0.73982 0.69354 0.0
C1325 C 0.9857 0.73201 0.70993 0.0
C1326 C 0.98275 0.7061 0.72911 0.0
C1327 C 0.27962 0.03021 0.74395 0.0
C1328 C 0.28821 0.00711 0.76369 0.0
C1329 C 0.26108 0.02391 0.7189 0.0
C1330 C 0.25083 0.9943 0.71243 0.0
H1331 H 0.28595 0.05335 0.74868 0.0
H1332 H 0.25407 0.04266 0.70502 0.0
S1333 S 0.27041 0.9254 0.75526 0.0
N1334 N 0.28789 0.95291 0.77332 0.0
N1335 N 0.25268 0.94164 0.72682 0.0
C1336 C 0.26096 0.97087 0.73092 0.0
C1337 C 0.27971 0.97716 0.75639 0.0
C1338 C 0.04519 0.27327 0.74687 0.0
C1339 C 0.0181 0.2891 0.75346 0.0
C1340 C 0.0475 0.25296 0.72269 0.0
C1341 C 0.02287 0.24724 0.70385 0.0
H1342 H 0.06514 0.27633 0.76066 0.0
H1343 H 0.06844 0.24079 0.7195 0.0
S1344 S 0.94715 0.28301 0.70951 0.0
N1345 N 0.96634 0.29798 0.73777 0.0
N1346 N 0.97051 0.25942 0.69252 0.0
C1347 C 0.99567 0.26289 0.70972 0.0
C1348 C 0.99334 0.2839 0.73435 0.0
C1349 C 0.74967 0.98949 0.75104 0.0
C1350 C 0.75712 0.01327 0.73083 0.0
C1351 C 0.72334 0.98987 0.76876 0.0
C1352 C 0.70323 0.0141 0.76719 0.0
H1353 H 0.76488 0.9706 0.75406 0.0
H1354 H 0.72001 0.97228 0.78543 0.0
S1355 S 0.70916 0.07976 0.71516 0.0
N1356 N 0.73984 0.05983 0.70794 0.0
N1357 N 0.6906 0.06104 0.7416 0.0
C1358 C 0.70907 0.03689 0.74552 0.0
C1359 C 0.73586 0.03636 0.72724 0.0
C1360 C 0.29111 0.25612 0.04068 0.0
C1361 C 0.31291 0.25622 0.01788 0.0
C1362 C 0.26655 0.27604 0.03958 0.0
C1363 C 0.26268 0.29708 0.01569 0.0
H1364 H 0.29203 0.23942 0.05852 0.0
H1365 H 0.24998 0.27426 0.05749 0.0
S1366 S 0.31603 0.30889 0.95241 0.0
N1367 N 0.3309 0.28091 0.97204 0.0
N1368 N 0.28469 0.31832 0.97027 0.0
C1369 C 0.28523 0.29841 0.99357 0.0
C1370 C 0.31034 0.27811 0.99469 0.0
C1371 C 0.29577 0.73999 0.98729 0.0
C1372 C 0.29368 0.76705 0.00369 0.0
C1373 C 0.27613 0.71561 0.99344 0.0
C1374 C 0.25407 0.7171 0.01652 0.0
H1375 H 0.31133 0.73829 0.96849 0.0
H1376 H 0.27655 0.69633 0.97839 0.0
S1377 S 0.24325 0.78024 0.06988 0.0
N1378 N 0.27068 0.79173 0.04738 0.0
N1379 N 0.23378 0.74629 0.05783 0.0
C1380 C 0.25358 0.74285 0.03465 0.0
C1381 C 0.27339 0.76766 0.02853 0.0
C1382 C 0.7465 0.30749 0.04715 0.0
C1383 C 0.76082 0.3146 0.02002 0.0
C1384 C 0.72038 0.28957 0.04734 0.0
C1385 C 0.70819 0.27689 0.02047 0.0
H1386 H 0.75642 0.3143 0.06843 0.0
H1387 H 0.71088 0.28413 0.0692 0.0
S1388 S 0.73639 0.29125 0.94314 0.0
N1389 N 0.75952 0.31045 0.96519 0.0
N1390 N 0.71185 0.27485 0.96593 0.0
C1391 C 0.72172 0.28497 0.9931 0.0
C1392 C 0.74772 0.30412 0.99282 0.0
C1393 C 0.73317 0.71734 0.02001 0.0
C1394 C 0.76094 0.72017 0.00459 0.0
C1395 C 0.71513 0.74268 0.02667 0.0
C1396 C 0.72464 0.77201 0.01901 0.0
H1397 H 0.72578 0.69536 0.0278 0.0
H1398 H 0.6936 0.7392 0.03774 0.0
S1399 S 0.79701 0.7915 0.98054 0.0
N1400 N 0.79752 0.75435 0.98284 0.0
N1401 N 0.76483 0.8021 0.99607 0.0
C1402 C 0.75276 0.77498 0.00394 0.0
C1403 C 0.77052 0.74911 0.99649 0.0
C1404 C 0.52219 0.78548 0.80333 0.0
C1405 C 0.5004 0.76234 0.80648 0.0
C1406 C 0.5207 0.8068 0.77986 0.0
C1407 C 0.49734 0.80574 0.75852 0.0
H1408 H 0.54122 0.7865 0.81867 0.0
H1409 H 0.53806 0.82396 0.77829 0.0
S1410 S 0.43481 0.74912 0.75669 0.0
N1411 N 0.45514 0.73946 0.78632 0.0
N1412 N 0.45153 0.77921 0.74245 0.0
C1413 C 0.475 0.78291 0.76191 0.0
C1414 C 0.47668 0.76133 0.7858 0.0
C1415 C 0.23645 0.4701 0.76415 0.0
C1416 C 0.21713 0.49555 0.76189 0.0
C1417 C 0.25908 0.46812 0.78623 0.0
C1418 C 0.26301 0.49125 0.80729 0.0
H1419 H 0.23508 0.45196 0.74782 0.0
H1420 H 0.27485 0.44945 0.78545 0.0
S1421 S 0.21671 0.56079 0.81417 0.0
N1422 N 0.20223 0.54306 0.78474 0.0
N1423 N 0.24447 0.53917 0.82648 0.0
C1424 C 0.24273 0.51581 0.80666 0.0
C1425 C 0.21994 0.51808 0.78391 0.0
C1426 C 0.46789 0.21953 0.77522 0.0
C1427 C 0.48786 0.21922 0.75077 0.0
C1428 C 0.47454 0.23649 0.80119 0.0
C1429 C 0.50161 0.25338 0.8039 0.0
H1430 H 0.44637 0.208 0.77366 0.0
H1431 H 0.4575 0.2377 0.8187 0.0
S1432 S 0.5641 0.25479 0.74857 0.0
N1433 N 0.53791 0.23359 0.73259 0.0
N1434 N 0.55013 0.26509 0.78156 0.0
C1435 C 0.52297 0.25084 0.78084 0.0
C1436 C 0.5161 0.23394 0.75419 0.0
C1437 C 0.77709 0.50172 0.80591 0.0
C1438 C 0.75922 0.52787 0.80171 0.0
C1439 C 0.79745 0.49148 0.78346 0.0
C1440 C 0.80044 0.50699 0.75594 0.0
H1441 H 0.7732 0.48749 0.82542 0.0
H1442 H 0.80907 0.47024 0.78674 0.0
S1443 S 0.76258 0.57933 0.73613 0.0
N1444 N 0.74875 0.57067 0.76964 0.0
N1445 N 0.7868 0.55227 0.72784 0.0
C1446 C 0.78475 0.53466 0.75288 0.0
C1447 C 0.76422 0.54489 0.77563 0.0
C1448 C 0.46526 0.2346 0.25679 0.0
C1449 C 0.49424 0.2218 0.26184 0.0
C1450 C 0.46056 0.25799 0.23597 0.0
C1451 C 0.48428 0.26884 0.21826 0.0
H1452 H 0.44593 0.22744 0.26995 0.0
H1453 H 0.43849 0.26844 0.23466 0.0
S1454 S 0.56425 0.24357 0.22155 0.0
N1455 N 0.54696 0.22254 0.247 0.0
N1456 N 0.53783 0.26526 0.20676 0.0
C1457 C 0.5131 0.25575 0.22219 0.0
C1458 C 0.51814 0.2325 0.24407 0.0
C1459 C 0.75112 0.53055 0.24403 0.0
C1460 C 0.7564 0.51469 0.21688 0.0
C1461 C 0.77419 0.53575 0.26506 0.0
C1462 C 0.80376 0.52594 0.25959 0.0
H1463 H 0.72875 0.53908 0.24908 0.0
H1464 H 0.76854 0.5463 0.2864 0.0
S1465 S 0.83009 0.48445 0.19167 0.0
N1466 N 0.7938 0.49028 0.18522 0.0
N1467 N 0.83727 0.49955 0.22506 0.0
C1468 C 0.80957 0.51053 0.23232 0.0
C1469 C 0.78592 0.505 0.21092 0.0
C1470 C 0.49678 0.78447 0.22279 0.0
C1471 C 0.52188 0.76779 0.2119 0.0
C1472 C 0.50009 0.80827 0.24356 0.0
C1473 C 0.5287 0.81643 0.25416 0.0
H1474 H 0.47406 0.77792 0.21651 0.0
H1475 H 0.48007 0.81871 0.25295 0.0
S1476 S 0.60202 0.78371 0.22885 0.0
N1477 N 0.5763 0.76343 0.21107 0.0
N1478 N 0.58309 0.80914 0.24847 0.0
C1479 C 0.55417 0.802 0.24102 0.0
C1480 C 0.55067 0.77745 0.2203 0.0
C1481 C 0.23318 0.53369 0.21419 0.0
C1482 C 0.26214 0.52133 0.21757 0.0
C1483 C 0.20924 0.52444 0.23297 0.0
C1484 C 0.21319 0.50225 0.25557 0.0
H1485 H 0.22944 0.55192 0.19837 0.0
H1486 H 0.18814 0.53676 0.23171 0.0
S1487 S 0.28242 0.45789 0.2691 0.0
N1488 N 0.29177 0.48159 0.2419 0.0
N1489 N 0.24677 0.46516 0.27713 0.0
C1490 C 0.24095 0.48746 0.25691 0.0
C1491 C 0.26543 0.49684 0.23802 0.0
C1492 C 0.7838 0.80769 0.50839 0.0
C1493 C 0.75718 0.80102 0.49209 0.0
C1494 C 0.80678 0.78588 0.51246 0.0
C1495 C 0.80362 0.75657 0.50067 0.0
H1496 H 0.78612 0.82937 0.51947 0.0
H1497 H 0.82705 0.792 0.5247 0.0
S1498 S 0.73821 0.72774 0.45672 0.0
N1499 N 0.72927 0.76307 0.46443 0.0
N1500 N 0.77185 0.72233 0.47179 0.0
C1501 C 0.77729 0.74996 0.48402 0.0
C1502 C 0.75428 0.77206 0.47979 0.0
C1503 C 0.81172 0.2366 0.49335 0.0
C1504 C 0.80328 0.26538 0.50367 0.0
C1505 C 0.79477 0.21076 0.50108 0.0
C1506 C 0.76908 0.21242 0.52003 0.0
H1507 H 0.83054 0.23421 0.4779 0.0
H1508 H 0.80055 0.18953 0.49039 0.0
S1509 S 0.74007 0.2813 0.55715 0.0
N1510 N 0.76917 0.29315 0.53708 0.0
N1511 N 0.73806 0.24457 0.55134 0.0
C1512 C 0.76204 0.24047 0.53263 0.0
C1513 C 0.77884 0.26691 0.52444 0.0
C1514 C 0.26035 0.73852 0.48651 0.0
C1515 C 0.22935 0.74542 0.4862 0.0
C1516 C 0.28202 0.75952 0.49579 0.0
C1517 C 0.27409 0.7889 0.50499 0.0
H1518 H 0.26799 0.71609 0.48043 0.0
H1519 H 0.30551 0.75271 0.49524 0.0
S1520 S 0.19603 0.81929 0.50754 0.0
N1521 N 0.19162 0.78407 0.49602 0.0
N1522 N 0.23275 0.8243 0.51206 0.0
C1523 C 0.24319 0.79655 0.50437 0.0
C1524 C 0.22082 0.77478 0.49513 0.0
C1525 C 0.22698 0.25033 0.53877 0.0
C1526 C 0.21229 0.25838 0.51205 0.0
C1527 C 0.25026 0.22886 0.5386 0.0
C1528 C 0.26052 0.21475 0.51163 0.0
H1529 H 0.2214 0.26154 0.55976 0.0
H1530 H 0.26092 0.22402 0.56006 0.0
S1531 S 0.22799 0.22626 0.43564 0.0
N1532 N 0.20785 0.24837 0.45786 0.0
N1533 N 0.25298 0.20982 0.45779 0.0
C1534 C 0.24535 0.22182 0.48492 0.0
C1535 C 0.22104 0.24317 0.48509 0.0
C1536 C 0.03587 0.08909 0.37426 0.0
C1537 C 0.038 0.10257 0.34563 0.0
C1538 C 0.05891 0.07003 0.38456 0.0
C1539 C 0.08386 0.06324 0.36605 0.0
H1540 H 0.01984 0.09759 0.39068 0.0
H1541 H 0.05918 0.06394 0.40826 0.0
S1542 S 0.09177 0.08217 0.28505 0.0
N1543 N 0.06093 0.10007 0.29598 0.0
N1544 N 0.10383 0.06343 0.31493 0.0
C1545 C 0.08212 0.07075 0.33532 0.0
C1546 C 0.05888 0.09048 0.32504 0.0
C1547 C 0.94229 0.09276 0.33615 0.0
C1548 C 0.95266 0.09822 0.36558 0.0
C1549 C 0.92364 0.06787 0.33005 0.0
C1550 C 0.91517 0.04779 0.35322 0.0
H1551 H 0.94489 0.10991 0.3189 0.0
H1552 H 0.9125 0.06677 0.30831 0.0
S1553 S 0.94461 0.04772 0.43156 0.0
N1554 N 0.95929 0.07829 0.41606 0.0
N1555 N 0.9248 0.03117 0.40466 0.0
C1556 C 0.93016 0.05009 0.38112 0.0
C1557 C 0.94872 0.07564 0.38738 0.0
C1558 C 0.9566 0.92928 0.32828 0.0
C1559 C 0.9794 0.91982 0.34829 0.0
C1560 C 0.93477 0.95026 0.33751 0.0
C1561 C 0.93519 0.96172 0.36705 0.0
H1562 H 0.95302 0.91726 0.30728 0.0
H1563 H 0.91497 0.95333 0.32347 0.0
S1564 S 0.99543 0.95209 0.42386 0.0
N1565 N 0.00523 0.92966 0.39577 0.0
N1566 N 0.96432 0.96921 0.41266 0.0
C1567 C 0.96118 0.9574 0.38451 0.0
C1568 C 0.98338 0.93613 0.37525 0.0
C1569 C 0.08626 0.98525 0.3588 0.0
C1570 C 0.10401 0.98365 0.33247 0.0
C1571 C 0.0673 0.96139 0.36688 0.0
C1572 C 0.0655 0.93545 0.34882 0.0
H1573 H 0.09093 0.00175 0.37608 0.0
H1574 H 0.05845 0.96107 0.38968 0.0
S1575 S 0.09696 0.9262 0.27212 0.0
N1576 N 0.11051 0.95891 0.28389 0.0
N1577 N 0.07507 0.91361 0.2996 0.0
C1578 C 0.07749 0.93672 0.31961 0.0
C1579 C 0.09676 0.96114 0.31122 0.0
C1580 C 0.09371 0.94875 0.69621 0.0
C1581 C 0.09171 0.96241 0.66774 0.0
C1582 C 0.07278 0.92645 0.7047 0.0
C1583 C 0.04988 0.91701 0.68458 0.0
H1584 H 0.11396 0.95148 0.70966 0.0
H1585 H 0.07741 0.91348 0.7249 0.0
S1586 S 0.03007 0.95468 0.61228 0.0
N1587 N 0.06017 0.9728 0.62448 0.0
N1588 N 0.02278 0.92911 0.63831 0.0
C1589 C 0.04452 0.93511 0.659 0.0
C1590 C 0.06499 0.95863 0.65127 0.0
C1591 C 0.07133 0.08607 0.67672 0.0
C1592 C 0.06199 0.08488 0.64643 0.0
C1593 C 0.09481 0.06746 0.68703 0.0
C1594 C 0.1094 0.04711 0.6674 0.0
H1595 H 0.06339 0.10398 0.69136 0.0
H1596 H 0.10366 0.07128 0.70951 0.0
S1597 S 0.08788 0.03109 0.5879 0.0
N1598 N 0.06396 0.05729 0.5991 0.0
N1599 N 0.10937 0.02405 0.61746 0.0
C1600 C 0.0971 0.04283 0.6384 0.0
C1601 C 0.07278 0.0612 0.62827 0.0
C1602 C 0.95784 0.08717 0.69801 0.0
C1603 C 0.976 0.09831 0.67421 0.0
C1604 C 0.93573 0.06497 0.69281 0.0
C1605 C 0.93177 0.05289 0.66383 0.0
H1606 H 0.95772 0.09864 0.71963 0.0
H1607 H 0.91914 0.06062 0.71026 0.0
S1608 S 0.97965 0.06631 0.59675 0.0
N1609 N 0.99215 0.09035 0.62227 0.0
N1610 N 0.95306 0.04661 0.61384 0.0
C1611 C 0.9539 0.05898 0.64194 0.0
C1612 C 0.97546 0.0824 0.6467 0.0
C1613 C 0.95251 0.94967 0.65074 0.0
C1614 C 0.95972 0.92349 0.66717 0.0
C1615 C 0.93183 0.97067 0.66194 0.0
C1616 C 0.91731 0.96584 0.68974 0.0
H1617 H 0.96009 0.95215 0.62761 0.0
H1618 H 0.92407 0.98803 0.64665 0.0
S1619 S 0.93555 0.90583 0.74513 0.0
N1620 N 0.95657 0.89772 0.71539 0.0
N1621 N 0.91721 0.93713 0.73653 0.0
C1622 C 0.92826 0.94257 0.70844 0.0
C1623 C 0.94964 0.92129 0.69707 0.0
C1624 C 0.3373 0.05344 0.0925 0.0
C1625 C 0.35955 0.03453 0.10506 0.0
C1626 C 0.34499 0.07526 0.07084 0.0
C1627 C 0.37512 0.07856 0.06149 0.0
H1628 H 0.31518 0.05472 0.10289 0.0
H1629 H 0.32844 0.09234 0.06522 0.0
S1630 S 0.43868 0.02735 0.07906 0.0
N1631 N 0.41053 0.01505 0.1002 0.0
N1632 N 0.42481 0.05563 0.05918 0.0
C1633 C 0.39572 0.05567 0.06897 0.0
C1634 C 0.38789 0.0335 0.09091 0.0
C1635 C 0.95622 0.33019 0.08851 0.0
C1636 C 0.9791 0.35026 0.09791 0.0
C1637 C 0.9335 0.33968 0.06861 0.0
C1638 C 0.93345 0.36933 0.05756 0.0
H1639 H 0.95351 0.3086 0.09968 0.0
H1640 H 0.91397 0.3253 0.06534 0.0
S1641 S 0.99303 0.427 0.06697 0.0
N1642 N 0.00357 0.39874 0.08875 0.0
N1643 N 0.96174 0.41556 0.05035 0.0
C1644 C 0.9591 0.38726 0.06198 0.0
C1645 C 0.98191 0.37795 0.08251 0.0
C1646 C 0.62364 0.96919 0.10113 0.0
C1647 C 0.65453 0.97439 0.10602 0.0
C1648 C 0.61406 0.94641 0.08159 0.0
C1649 C 0.63509 0.92807 0.06643 0.0
H1650 H 0.60676 0.98084 0.11434 0.0
H1651 H 0.59016 0.94119 0.08081 0.0
S1652 S 0.71781 0.94035 0.06277 0.0
N1653 N 0.70561 0.9654 0.08752 0.0
N1654 N 0.68748 0.92214 0.05104 0.0
C1655 C 0.66562 0.9366 0.06698 0.0
C1656 C 0.67542 0.9599 0.08688 0.0
C1657 C 0.04077 0.64109 0.08152 0.0
C1658 C 0.0454 0.66937 0.09507 0.0
C1659 C 0.06065 0.63058 0.05919 0.0
C1660 C 0.08551 0.64815 0.04978 0.0
H1661 H 0.02481 0.62527 0.0912 0.0
H1662 H 0.05892 0.60717 0.05233 0.0
S1663 S 0.10012 0.72774 0.0707 0.0
N1664 N 0.0711 0.71764 0.09187 0.0
N1665 N 0.10817 0.69811 0.04955 0.0
C1666 C 0.08645 0.67851 0.0588 0.0
C1667 C 0.0664 0.68908 0.08172 0.0
C1668 C 0.3583 0.97633 0.9353 0.0
C1669 C 0.33319 0.96956 0.9172 0.0
C1670 C 0.36783 0.95596 0.9575 0.0
C1671 C 0.35238 0.92854 0.96208 0.0
H1672 H 0.37324 0.99475 0.9293 0.0
H1673 H 0.38969 0.95957 0.96791 0.0
S1674 S 0.27947 0.90639 0.92802 0.0
N1675 N 0.2886 0.93826 0.91092 0.0
N1676 N 0.30649 0.90005 0.95291 0.0
C1677 C 0.32407 0.92481 0.94853 0.0
C1678 C 0.31448 0.94539 0.92577 0.0
C1679 C 0.08944 0.33288 0.94304 0.0
C1680 C 0.09358 0.3632 0.95126 0.0
C1681 C 0.06601 0.32463 0.92331 0.0
C1682 C 0.04605 0.34645 0.91153 0.0
H1683 H 0.10658 0.3163 0.94844 0.0
H1684 H 0.06617 0.30204 0.91396 0.0
S1685 S 0.04206 0.42675 0.93422 0.0
N1686 N 0.0718 0.41343 0.95232 0.0
N1687 N 0.02774 0.39789 0.91546 0.0
C1688 C 0.04677 0.37549 0.92413 0.0
C1689 C 0.07079 0.38397 0.94386 0.0
C1690 C 0.68281 0.09522 0.96406 0.0
C1691 C 0.6541 0.09649 0.97749 0.0
C1692 C 0.68876 0.07468 0.94059 0.0
C1693 C 0.66616 0.05491 0.92983 0.0
H1694 H 0.69928 0.11273 0.96865 0.0
H1695 H 0.70983 0.07694 0.92835 0.0
S1696 S 0.59036 0.04413 0.96411 0.0
N1697 N 0.60585 0.0715 0.98406 0.0
N1698 N 0.6161 0.03421 0.93907 0.0
C1699 C 0.63927 0.05276 0.94668 0.0
C1700 C 0.63354 0.07324 0.97089 0.0
C1701 C 0.97722 0.65925 0.93375 0.0
C1702 C 0.97688 0.68496 0.91503 0.0
C1703 C 0.95541 0.65546 0.95634 0.0
C1704 C 0.93206 0.67661 0.95967 0.0
H1705 H 0.99053 0.63974 0.92795 0.0
H1706 H 0.95316 0.63331 0.96649 0.0
S1707 S 0.93045 0.75339 0.92735 0.0
N1708 N 0.9591 0.73671 0.91025 0.0
N1709 N 0.91678 0.72837 0.95141 0.0
C1710 C 0.93625 0.70515 0.94683 0.0
C1711 C 0.95897 0.7095 0.92439 0.0
C1712 C 0.08579 0.36292 0.03043 0.0
C1713 C 0.09944 0.3345 0.03414 0.0
C1714 C 0.06791 0.37498 0.05345 0.0
C1715 C 0.06261 0.35846 0.07999 0.0
H1716 H 0.09373 0.37842 0.01334 0.0
H1717 H 0.06242 0.3988 0.05256 0.0
S1718 S 0.07995 0.27788 0.09238 0.0
N1719 N 0.09653 0.28625 0.06 0.0
N1720 N 0.06253 0.30896 0.10339 0.0
C1721 C 0.06916 0.32757 0.07993 0.0
C1722 C 0.0875 0.31533 0.05649 0.0
C1723 C 0.08817 0.63129 0.9656 0.0
C1724 C 0.10078 0.66016 0.96167 0.0
C1725 C 0.06526 0.62087 0.94647 0.0
C1726 C 0.0542 0.639 0.92284 0.0
H1727 H 0.09827 0.61535 0.98112 0.0
H1728 H 0.05827 0.59753 0.94844 0.0
S1729 S 0.07411 0.71924 0.90893 0.0
N1730 N 0.09629 0.70883 0.93699 0.0
N1731 N 0.05332 0.68939 0.90084 0.0
C1732 C 0.06358 0.66935 0.92165 0.0
C1733 C 0.08696 0.6799 0.94112 0.0
C1734 C 0.35858 0.0783 0.98054 0.0
C1735 C 0.3329 0.09685 0.98244 0.0
C1736 C 0.36273 0.05937 0.95553 0.0
C1737 C 0.34103 0.05816 0.93242 0.0
H1738 H 0.37788 0.08244 0.99494 0.0
H1739 H 0.38489 0.04964 0.95194 0.0
S1740 S 0.26499 0.09224 0.93403 0.0
N1741 N 0.28172 0.10523 0.96473 0.0
N1742 N 0.28957 0.06937 0.91779 0.0
C1743 C 0.31269 0.07097 0.93787 0.0
C1744 C 0.3085 0.09036 0.9632 0.0
C1745 C 0.95256 0.33143 0.92964 0.0
C1746 C 0.95973 0.36137 0.92227 0.0
C1747 C 0.93388 0.32516 0.95444 0.0
C1748 C 0.92229 0.34875 0.97234 0.0
H1749 H 0.95701 0.3135 0.9136 0.0
H1750 H 0.9248 0.30256 0.95668 0.0
S1751 S 0.94462 0.42929 0.96836 0.0
N1752 N 0.96151 0.41333 0.93921 0.0
N1753 N 0.92696 0.40172 0.98616 0.0
C1754 C 0.93503 0.37764 0.96896 0.0
C1755 C 0.95371 0.38398 0.94357 0.0
C1756 C 0.66915 0.95447 0.93651 0.0
C1757 C 0.63944 0.96548 0.93693 0.0
C1758 C 0.67776 0.93093 0.95588 0.0
C1759 C 0.65705 0.91821 0.97643 0.0
H1760 H 0.68444 0.96101 0.91856 0.0
H1761 H 0.69957 0.92042 0.95244 0.0
S1762 S 0.57908 0.94481 0.99103 0.0
N1763 N 0.59155 0.96669 0.96358 0.0
N1764 N 0.60737 0.92208 0.99932 0.0
C1765 C 0.62894 0.93232 0.98008 0.0
C1766 C 0.62026 0.95627 0.96049 0.0
C1767 C 0.95332 0.64323 0.06216 0.0
C1768 C 0.9581 0.65979 0.08883 0.0
C1769 C 0.93225 0.65295 0.04068 0.0
C1770 C 0.91497 0.67907 0.04584 0.0
H1771 H 0.96274 0.62077 0.0599 0.0
H1772 H 0.9262 0.63748 0.02272 0.0
S1773 S 0.92687 0.73512 0.10667 0.0
N1774 N 0.95041 0.7074 0.11482 0.0
N1775 N 0.91 0.72525 0.0749 0.0
C1776 C 0.92382 0.69846 0.06932 0.0
C1777 C 0.94573 0.68885 0.09084 0.0
C1778 C 0.34555 0.94311 0.09945 0.0
C1779 C 0.37653 0.94952 0.1015 0.0
C1780 C 0.33464 0.92395 0.07676 0.0
C1781 C 0.35434 0.91145 0.0552 0.0
H1782 H 0.33047 0.94929 0.11771 0.0
H1783 H 0.31148 0.91618 0.07818 0.0
S1784 S 0.43563 0.92919 0.04601 0.0
N1785 N 0.42538 0.94755 0.07679 0.0
N1786 N 0.40475 0.9126 0.03334 0.0
C1787 C 0.38419 0.92221 0.054 0.0
C1788 C 0.39539 0.94106 0.0775 0.0
C1789 C 0.68171 0.09977 0.05846 0.0
C1790 C 0.69651 0.12619 0.06766 0.0
C1791 C 0.6735 0.07765 0.07943 0.0
C1792 C 0.67959 0.0812 0.11052 0.0
H1793 H 0.67375 0.09738 0.0356 0.0
H1794 H 0.65995 0.05892 0.07143 0.0
S1795 S 0.72752 0.14065 0.14447 0.0
N1796 N 0.72471 0.15024 0.10856 0.0
N1797 N 0.70808 0.10906 0.1481 0.0
C1798 C 0.69868 0.10486 0.11921 0.0
C1799 C 0.70757 0.12722 0.09768 0.0
C1800 C 0.54045 0.58395 0.857 0.0
C1801 C 0.54629 0.60258 0.83194 0.0
C1802 C 0.5611 0.5619 0.86592 0.0
C1803 C 0.5887 0.55854 0.85068 0.0
H1804 H 0.52277 0.58935 0.87282 0.0
H1805 H 0.55768 0.55104 0.88759 0.0
S1806 S 0.60946 0.59334 0.7777 0.0
N1807 N 0.57702 0.60934 0.78684 0.0
N1808 N 0.61686 0.5689 0.80486 0.0
C1809 C 0.59203 0.5725 0.82251 0.0
C1810 C 0.57054 0.59453 0.81291 0.0
C1811 C 0.43999 0.5358 0.86797 0.0
C1812 C 0.42683 0.53612 0.83907 0.0
C1813 C 0.45791 0.55993 0.87762 0.0
C1814 C 0.46367 0.58451 0.85842 0.0
H1815 H 0.43249 0.51991 0.88493 0.0
H1816 H 0.46379 0.56127 0.90133 0.0
S1817 S 0.44559 0.58909 0.77709 0.0
N1818 N 0.42907 0.55768 0.78863 0.0
N1819 N 0.46309 0.60309 0.8069 0.0
C1820 C 0.45646 0.58163 0.82778 0.0
C1821 C 0.43801 0.55712 0.81796 0.0
C1822 C 0.46292 0.44581 0.88883 0.0
C1823 C 0.43916 0.4537 0.86923 0.0
C1824 C 0.48567 0.42583 0.87957 0.0
C1825 C 0.48464 0.41255 0.85076 0.0
H1826 H 0.46187 0.45206 0.91246 0.0
H1827 H 0.50078 0.41698 0.89664 0.0
S1828 S 0.43371 0.43412 0.78816 0.0
N1829 N 0.4212 0.45358 0.81741 0.0
N1830 N 0.46342 0.4152 0.80038 0.0
C1831 C 0.46467 0.42491 0.82944 0.0
C1832 C 0.4418 0.44564 0.83869 0.0
C1833 C 0.57582 0.42145 0.84148 0.0
C1834 C 0.56892 0.41916 0.87235 0.0
C1835 C 0.59418 0.44494 0.83084 0.0
C1836 C 0.60567 0.46693 0.85073 0.0
H1837 H 0.57055 0.40299 0.82631 0.0
H1838 H 0.6022 0.44387 0.80775 0.0
S1839 S 0.58531 0.4757 0.93158 0.0
N1840 N 0.5685 0.44415 0.92102 0.0
N1841 N 0.6023 0.48884 0.90111 0.0
C1842 C 0.5942 0.4677 0.8804 0.0
C1843 C 0.57597 0.44352 0.89125 0.0
C1844 C 0.56026 0.43282 0.18827 0.0
C1845 C 0.53968 0.42142 0.16679 0.0
C1846 C 0.58349 0.45266 0.17978 0.0
C1847 C 0.58687 0.46139 0.14951 0.0
H1848 H 0.56059 0.42368 0.21096 0.0
H1849 H 0.60101 0.45777 0.19606 0.0
S1850 S 0.53376 0.44569 0.08688 0.0
N1851 N 0.52022 0.42626 0.11566 0.0
N1852 N 0.5638 0.46353 0.09989 0.0
C1853 C 0.56355 0.45438 0.12918 0.0
C1854 C 0.53986 0.43432 0.13779 0.0
C1855 C 0.5623 0.56416 0.1452 0.0
C1856 C 0.55906 0.5903 0.16295 0.0
C1857 C 0.58334 0.54193 0.15297 0.0
C1858 C 0.60182 0.54566 0.17845 0.0
H1859 H 0.55208 0.56312 0.12299 0.0
H1860 H 0.5888 0.52516 0.13608 0.0
S1861 S 0.59329 0.60391 0.23776 0.0
N1862 N 0.56902 0.61395 0.21129 0.0
N1863 N 0.60886 0.57217 0.2259 0.0
C1864 C 0.59385 0.56809 0.19948 0.0
C1865 C 0.57232 0.59067 0.19162 0.0
C1866 C 0.42433 0.57559 0.18635 0.0
C1867 C 0.42307 0.56719 0.15584 0.0
C1868 C 0.44807 0.59375 0.19697 0.0
C1869 C 0.47091 0.60403 0.17725 0.0
H1870 H 0.40514 0.57157 0.201 0.0
H1871 H 0.44629 0.60298 0.21956 0.0
S1872 S 0.48192 0.57928 0.09775 0.0
N1873 N 0.44992 0.56346 0.10831 0.0
N1874 N 0.49415 0.59769 0.12769 0.0
C1875 C 0.47243 0.59092 0.14826 0.0
C1876 C 0.44839 0.5725 0.13762 0.0
C1877 C 0.4169 0.45658 0.18838 0.0
C1878 C 0.40635 0.47829 0.16771 0.0
C1879 C 0.43836 0.43506 0.17964 0.0
C1880 C 0.44938 0.4347 0.14995 0.0
H1881 H 0.40583 0.45387 0.21004 0.0
H1882 H 0.44277 0.41626 0.19465 0.0
S1883 S 0.43604 0.49164 0.0906 0.0
N1884 N 0.41365 0.50178 0.11861 0.0
N1885 N 0.45462 0.46181 0.10279 0.0
C1886 C 0.44329 0.4594 0.13121 0.0
C1887 C 0.42137 0.48117 0.13991 0.0
C1888 C 0.87369 0.54412 0.58904 0.0
C1889 C 0.84416 0.54501 0.60076 0.0
C1890 C 0.88363 0.56615 0.56868 0.0
C1891 C 0.86431 0.58949 0.55925 0.0
H1892 H 0.89042 0.52909 0.59857 0.0
H1893 H 0.90752 0.56719 0.56345 0.0
S1894 S 0.78231 0.59483 0.57432 0.0
N1895 N 0.79365 0.56575 0.59471 0.0
N1896 N 0.81256 0.60719 0.55633 0.0
C1897 C 0.83349 0.58703 0.56608 0.0
C1898 C 0.82333 0.56472 0.58701 0.0
C1899 C 0.45698 0.87099 0.55669 0.0
C1900 C 0.4315 0.85277 0.55114 0.0
C1901 C 0.4766 0.86446 0.58069 0.0
C1902 C 0.47117 0.83944 0.59945 0.0
H1903 H 0.45865 0.89299 0.54612 0.0
H1904 H 0.4925 0.88174 0.58748 0.0
S1905 S 0.41552 0.77858 0.58571 0.0
N1906 N 0.40801 0.80411 0.5596 0.0
N1907 N 0.44489 0.79163 0.60467 0.0
C1908 C 0.45022 0.81774 0.5895 0.0
C1909 C 0.43036 0.8244 0.56504 0.0
C1910 C 0.18559 0.43869 0.57114 0.0
C1911 C 0.15513 0.43349 0.56423 0.0
C1912 C 0.19387 0.46354 0.58905 0.0
C1913 C 0.17172 0.48323 0.60076 0.0
H1914 H 0.20222 0.42127 0.5669 0.0
H1915 H 0.21659 0.46411 0.59811 0.0
S1916 S 0.09113 0.48516 0.57871 0.0
N1917 N 0.10464 0.4545 0.56241 0.0
N1918 N 0.12013 0.50108 0.59588 0.0
C1919 C 0.14273 0.48191 0.58802 0.0
C1920 C 0.13429 0.45664 0.57 0.0
C1921 C 0.54431 0.15435 0.58846 0.0
C1922 C 0.54631 0.18179 0.60432 0.0
C1923 C 0.56679 0.14609 0.56788 0.0
C1924 C 0.59174 0.165 0.56274 0.0
H1925 H 0.52804 0.13733 0.59498 0.0
H1926 H 0.56704 0.12306 0.55962 0.0
S1927 S 0.60113 0.24334 0.5899 0.0
N1928 N 0.57025 0.23113 0.60694 0.0
N1929 N 0.61262 0.21531 0.56815 0.0
C1930 C 0.5906 0.19466 0.57362 0.0
C1931 C 0.56784 0.20309 0.59476 0.0
C1932 C 0.83805 0.42793 0.44542 0.0
C1933 C 0.86629 0.42977 0.45969 0.0
C1934 C 0.83053 0.44799 0.42208 0.0
C1935 C 0.8509 0.47056 0.41264 0.0
H1936 H 0.82346 0.40869 0.44941 0.0
H1937 H 0.81022 0.44366 0.40915 0.0
S1938 S 0.92414 0.48917 0.44871 0.0
N1939 N 0.91148 0.45975 0.46774 0.0
N1940 N 0.89798 0.49671 0.42329 0.0
C1941 C 0.87699 0.47538 0.43003 0.0
C1942 C 0.88449 0.45512 0.45386 0.0
C1943 C 0.54255 0.86647 0.43821 0.0
C1944 C 0.54842 0.83991 0.42178 0.0
C1945 C 0.56202 0.87581 0.46115 0.0
C1946 C 0.58794 0.85897 0.46793 0.0
H1947 H 0.52676 0.88302 0.43013 0.0
H1948 H 0.55958 0.89856 0.46982 0.0
S1949 S 0.60457 0.7814 0.44209 0.0
N1950 N 0.57481 0.79178 0.42214 0.0
N1951 N 0.61225 0.80999 0.46477 0.0
C1952 C 0.58968 0.82929 0.45719 0.0
C1953 C 0.56949 0.81952 0.43408 0.0
C1954 C 0.20049 0.56145 0.42999 0.0
C1955 C 0.17914 0.54054 0.41886 0.0
C1956 C 0.19192 0.58401 0.45058 0.0
C1957 C 0.16202 0.5856 0.46089 0.0
H1958 H 0.22249 0.56322 0.41941 0.0
H1959 H 0.20729 0.60261 0.45464 0.0
S1960 S 0.10019 0.53187 0.4462 0.0
N1961 N 0.12824 0.52038 0.42459 0.0
N1962 N 0.11393 0.56031 0.46581 0.0
C1963 C 0.14281 0.56113 0.45532 0.0
C1964 C 0.15082 0.53915 0.43335 0.0
C1965 C 0.4839 0.15241 0.43536 0.0
C1966 C 0.48279 0.18096 0.4216 0.0
C1967 C 0.45969 0.14228 0.45304 0.0
C1968 C 0.43454 0.16091 0.45835 0.0
H1969 H 0.50015 0.13581 0.42775 0.0
H1970 H 0.45886 0.11862 0.45916 0.0
S1971 S 0.42761 0.24147 0.438 0.0
N1972 N 0.45958 0.23054 0.42217 0.0
N1973 N 0.41444 0.21177 0.45633 0.0
C1974 C 0.43668 0.19147 0.45059 0.0
C1975 C 0.46114 0.20162 0.43221 0.0
C1976 C 0.56445 0.87821 0.56819 0.0
C1977 C 0.55623 0.85977 0.59258 0.0
C1978 C 0.58643 0.86878 0.54764 0.0
C1979 C 0.60074 0.84062 0.55107 0.0
H1980 H 0.55726 0.90158 0.56759 0.0
H1981 H 0.59517 0.88549 0.53214 0.0
S1982 S 0.57849 0.78026 0.60453 0.0
N1983 N 0.55729 0.80942 0.61404 0.0
N1984 N 0.59874 0.79137 0.57522 0.0
C1985 C 0.58826 0.81996 0.5717 0.0
C1986 C 0.56571 0.82961 0.59255 0.0
C1987 C 0.59248 0.20849 0.42807 0.0
C1988 C 0.57593 0.18187 0.42342 0.0
C1989 C 0.61122 0.21171 0.45339 0.0
C1990 C 0.61443 0.18809 0.47444 0.0
H1991 H 0.59412 0.22508 0.41017 0.0
H1992 H 0.62659 0.23075 0.45402 0.0
S1993 S 0.56974 0.11738 0.47614 0.0
N1994 N 0.55892 0.1345 0.44486 0.0
N1995 N 0.5943 0.14029 0.49232 0.0
C1996 C 0.59404 0.16381 0.47265 0.0
C1997 C 0.57483 0.16065 0.44692 0.0
C1998 C 0.87092 0.56166 0.45555 0.0
C1999 C 0.85367 0.55926 0.42896 0.0
C2000 C 0.8639 0.58337 0.47746 0.0
C2001 C 0.83971 0.60331 0.47291 0.0
H2002 H 0.89273 0.55073 0.45693 0.0
H2003 H 0.88067 0.58808 0.4946 0.0
S2004 S 0.78113 0.59734 0.41367 0.0
N2005 N 0.80635 0.57145 0.40445 0.0
N2006 N 0.79324 0.61264 0.44547 0.0
C2007 C 0.81866 0.59618 0.45026 0.0
C2008 C 0.82568 0.57388 0.42812 0.0
C2009 C 0.43182 0.8824 0.46521 0.0
C2010 C 0.41465 0.85676 0.458 0.0
C2011 C 0.45605 0.89118 0.44681 0.0
C2012 C 0.46408 0.87419 0.42116 0.0
H2013 H 0.42444 0.89756 0.48293 0.0
H2014 H 0.46672 0.91278 0.45106 0.0
S2015 S 0.43056 0.80128 0.39756 0.0
N2016 N 0.41031 0.81179 0.42706 0.0
N2017 N 0.45659 0.82762 0.3931 0.0
C2018 C 0.44983 0.84625 0.41651 0.0
C2019 C 0.42476 0.83772 0.43479 0.0
C2020 C 0.18477 0.44707 0.43479 0.0
C2021 C 0.15454 0.4559 0.43145 0.0
C2022 C 0.1932 0.42813 0.45874 0.0
C2023 C 0.17158 0.41782 0.47973 0.0
H2024 H 0.20083 0.4511 0.41677 0.0
H2025 H 0.21543 0.41794 0.45814 0.0
S2026 S 0.09209 0.44318 0.48562 0.0
N2027 N 0.10508 0.4595 0.45477 0.0
N2028 N 0.12092 0.42441 0.4998 0.0
C2029 C 0.14305 0.43163 0.47979 0.0
C2030 C 0.1344 0.45046 0.45533 0.0
C2031 C 0.43886 0.15481 0.53446 0.0
C2032 C 0.42382 0.18256 0.53801 0.0
C2033 C 0.45906 0.14479 0.55646 0.0
C2034 C 0.46452 0.16231 0.58228 0.0
H2035 H 0.431 0.13827 0.51834 0.0
H2036 H 0.46618 0.12139 0.55581 0.0
S2037 S 0.44246 0.24194 0.59372 0.0
N2038 N 0.42464 0.23154 0.56264 0.0
N2039 N 0.46256 0.21243 0.60439 0.0
C2040 C 0.45587 0.19272 0.58187 0.0
C2041 C 0.43536 0.20301 0.55936 0.0
C2042 C 0.87168 0.42858 0.54528 0.0
C2043 C 0.84349 0.4145 0.54906 0.0
C2044 C 0.88175 0.45024 0.56592 0.0
C2045 C 0.86403 0.4583 0.59103 0.0
H2046 H 0.88782 0.42006 0.52908 0.0
H2047 H 0.90495 0.45788 0.56424 0.0
S2048 S 0.78495 0.43507 0.6052 0.0
N2049 N 0.79524 0.41551 0.57516 0.0
N2050 N 0.8143 0.45626 0.61417 0.0
C2051 C 0.83395 0.44835 0.59198 0.0
C2052 C 0.82368 0.42623 0.57093 0.0
C2053 C 0.17954 0.57686 0.59457 0.0
C2054 C 0.14894 0.56904 0.59738 0.0
C2055 C 0.18897 0.5963 0.57152 0.0
C2056 C 0.16817 0.60749 0.55037 0.0
H2057 H 0.19527 0.57163 0.61255 0.0
H2058 H 0.2117 0.60534 0.57235 0.0
S2059 S 0.08764 0.58596 0.5433 0.0
N2060 N 0.09947 0.56834 0.57394 0.0
N2061 N 0.1174 0.60389 0.52975 0.0
C2062 C 0.13887 0.59535 0.54993 0.0
C2063 C 0.12913 0.57624 0.57381 0.0
C2064 C 0.05468 0.26729 0.42394 0.0
C2065 C 0.05521 0.23785 0.43567 0.0
C2066 C 0.06774 0.29125 0.43962 0.0
C2067 C 0.08182 0.28639 0.46747 0.0
H2068 H 0.04579 0.27147 0.40153 0.0
H2069 H 0.06855 0.31327 0.42901 0.0
S2070 S 0.08778 0.21351 0.5084 0.0
N2071 N 0.06938 0.20507 0.47705 0.0
N2072 N 0.09447 0.25018 0.50691 0.0
C2073 C 0.08119 0.2572 0.48017 0.0
C2074 C 0.06777 0.23279 0.4641 0.0
C2075 C 0.73234 0.05871 0.45308 0.0
C2076 C 0.73738 0.08283 0.47284 0.0
C2077 C 0.75671 0.04354 0.44006 0.0
C2078 C 0.78645 0.05346 0.44506 0.0
H2079 H 0.7096 0.05263 0.44643 0.0
H2080 H 0.75215 0.02587 0.42376 0.0
S2081 S 0.81108 0.11564 0.49498 0.0
N2082 N 0.77395 0.11481 0.49841 0.0
N2083 N 0.8197 0.08838 0.47104 0.0
C2084 C 0.79176 0.07707 0.46526 0.0
C2085 C 0.76712 0.09128 0.47991 0.0
C2086 C 0.95416 0.78858 0.45892 0.0
C2087 C 0.97585 0.78361 0.43647 0.0
C2088 C 0.93869 0.76425 0.47188 0.0
C2089 C 0.94391 0.7345 0.46205 0.0
H2090 H 0.94754 0.81138 0.4648 0.0
H2091 H 0.92041 0.769 0.48743 0.0
S2092 S 1.00021 0.70985 0.40557 0.0
N2093 N 0.0041 0.7469 0.40711 0.0
N2094 N 0.97325 0.70132 0.42992 0.0
C2095 C 0.96672 0.72919 0.44089 0.0
C2096 C 0.98326 0.75381 0.42856 0.0
C2097 C 0.24224 0.96607 0.44902 0.0
C2098 C 0.21794 0.95292 0.43335 0.0
C2099 C 0.26289 0.94811 0.46493 0.0
C2100 C 0.26092 0.91651 0.4642 0.0
H2101 H 0.24626 0.99016 0.44772 0.0
H2102 H 0.28113 0.95898 0.47654 0.0
S2103 S 0.19603 0.87231 0.43471 0.0
N2104 N 0.18877 0.90738 0.42463 0.0
N2105 N 0.22847 0.87351 0.45297 0.0
C2106 C 0.23469 0.90353 0.4517 0.0
C2107 C 0.21316 0.9218 0.43643 0.0
C2108 C 0.09401 0.76246 0.60717 0.0
C2109 C 0.08539 0.79146 0.59761 0.0
C2110 C 0.10858 0.74259 0.58764 0.0
C2111 C 0.1147 0.75092 0.55783 0.0
H2112 H 0.08909 0.75487 0.62991 0.0
H2113 H 0.11513 0.72052 0.59591 0.0
S2114 S 0.10176 0.82578 0.52324 0.0
N2115 N 0.08707 0.82873 0.55746 0.0
N2116 N 0.11454 0.79086 0.52033 0.0
C2117 C 0.1072 0.78009 0.54808 0.0
C2118 C 0.09231 0.8005 0.56808 0.0
C2119 C 0.25971 0.0536 0.57928 0.0
C2120 C 0.25857 0.05698 0.6108 0.0
C2121 C 0.28021 0.07033 0.56177 0.0
C2122 C 0.30191 0.08911 0.57547 0.0
H2123 H 0.24402 0.03892 0.56797 0.0
H2124 H 0.27827 0.0694 0.53741 0.0
S2125 S 0.31585 0.09656 0.65777 0.0
N2126 N 0.28551 0.0751 0.65525 0.0
N2127 N 0.32556 0.10426 0.62264 0.0
C2128 C 0.30384 0.08904 0.60714 0.0
C2129 C 0.28206 0.0733 0.62478 0.0
C2130 C 0.95329 0.258 0.59233 0.0
C2131 C 0.94281 0.22869 0.59808 0.0
C2132 C 0.93477 0.27917 0.57811 0.0
C2133 C 0.90534 0.2716 0.56909 0.0
H2134 H 0.97531 0.26509 0.60035 0.0
H2135 H 0.94307 0.30191 0.57538 0.0
S2136 S 0.86857 0.19665 0.57719 0.0
N2137 N 0.90211 0.19246 0.59295 0.0
N2138 N 0.86738 0.23188 0.56511 0.0
C2139 C 0.89509 0.24186 0.57377 0.0
C2140 C 0.91387 0.22046 0.58854 0.0
C2141 C 0.77032 0.95192 0.59105 0.0
C2142 C 0.78037 0.94014 0.61876 0.0
C2143 C 0.75061 0.93555 0.57254 0.0
C2144 C 0.73872 0.90766 0.58193 0.0
H2145 H 0.77749 0.97404 0.58363 0.0
H2146 H 0.7446 0.94494 0.5508 0.0
S2147 S 0.75662 0.86758 0.65345 0.0
N2148 N 0.77706 0.89867 0.65465 0.0
N2149 N 0.73792 0.86927 0.62133 0.0
C2150 C 0.748 0.89598 0.61 0.0
C2151 C 0.76907 0.912 0.62817 0.0
C2152 C 0.46118 0.08191 0.23923 0.0
C2153 C 0.44457 0.05547 0.24388 0.0
C2154 C 0.47469 0.09656 0.26354 0.0
C2155 C 0.47118 0.0856 0.29309 0.0
H2156 H 0.46194 0.09238 0.21714 0.0
H2157 H 0.48586 0.11797 0.25959 0.0
S2158 S 0.43238 0.01577 0.31663 0.0
N2159 N 0.42779 0.01724 0.27964 0.0
N2160 N 0.45238 0.04593 0.32567 0.0
C2161 C 0.45632 0.05831 0.29789 0.0
C2162 C 0.4433 0.04282 0.27302 0.0
C2163 C 0.95096 0.45993 0.22311 0.0
C2164 C 0.9664 0.43324 0.23017 0.0
C2165 C 0.93392 0.47485 0.24528 0.0
C2166 C 0.93128 0.46278 0.27455 0.0
H2167 H 0.95106 0.46852 0.20021 0.0
H2168 H 0.92125 0.49481 0.23904 0.0
S2169 S 0.96821 0.39402 0.304 0.0
N2170 N 0.97949 0.39633 0.26853 0.0
N2171 N 0.94589 0.42335 0.30956 0.0
C2172 C 0.94714 0.43654 0.28188 0.0
C2173 C 0.96521 0.42204 0.25978 0.0
C2174 C 0.60994 0.97156 0.2691 0.0
C2175 C 0.63739 0.96162 0.25712 0.0
C2176 C 0.59484 0.95466 0.29079 0.0
C2177 C 0.60711 0.92793 0.30253 0.0
H2178 H 0.59904 0.9916 0.26031 0.0
H2179 H 0.57248 0.96167 0.29652 0.0
S2180 S 0.6817 0.89534 0.28169 0.0
N2181 N 0.67827 0.92538 0.2599 0.0
N2182 N 0.65078 0.89422 0.30256 0.0
C2183 C 0.63608 0.91913 0.29238 0.0
C2184 C 0.65099 0.93584 0.26922 0.0
C2185 C 0.06944 0.61345 0.27129 0.0
C2186 C 0.06583 0.60169 0.24201 0.0
C2187 C 0.0846 0.59715 0.29363 0.0
C2188 C 0.09586 0.56822 0.28762 0.0
H2189 H 0.06149 0.63596 0.27661 0.0
H2190 H 0.08847 0.60764 0.31537 0.0
S2191 S 0.09468 0.52853 0.21406 0.0
N2192 N 0.07667 0.56054 0.20766 0.0
N2193 N 0.10351 0.52883 0.25025 0.0
C2194 C 0.09159 0.55579 0.25873 0.0
C2195 C 0.07691 0.5728 0.23571 0.0
C2196 C 0.40684 0.973 0.74555 0.0
C2197 C 0.41218 0.96682 0.77624 0.0
C2198 C 0.42314 0.95816 0.7229 0.0
C2199 C 0.44582 0.93747 0.73044 0.0
H2200 H 0.38874 0.98809 0.73904 0.0
H2201 H 0.41704 0.96176 0.6995 0.0
S2202 S 0.46801 0.91306 0.80726 0.0
N2203 N 0.44066 0.93776 0.81289 0.0
N2204 N 0.47314 0.91168 0.77035 0.0
C2205 C 0.45233 0.9322 0.76102 0.0
C2206 C 0.43494 0.94636 0.784 0.0
C2207 C 0.05821 0.45564 0.77643 0.0
C2208 C 0.05024 0.4255 0.77154 0.0
C2209 C 0.07198 0.47225 0.75334 0.0
C2210 C 0.07893 0.45859 0.72544 0.0
H2211 H 0.05537 0.46578 0.79851 0.0
H2212 H 0.07977 0.49486 0.75836 0.0
S2213 S 0.0585 0.38141 0.70092 0.0
N2214 N 0.04684 0.38361 0.73627 0.0
N2215 N 0.07315 0.41477 0.69302 0.0
C2216 C 0.06861 0.42932 0.71967 0.0
C2217 C 0.05441 0.41263 0.7429 0.0
C2218 C 0.56253 0.07467 0.78146 0.0
C2219 C 0.58252 0.09034 0.80057 0.0
C2220 C 0.54707 0.08963 0.7583 0.0
C2221 C 0.55189 0.12049 0.75272 0.0
H2222 H 0.55984 0.05048 0.78337 0.0
H2223 H 0.53169 0.07675 0.74443 0.0
S2224 S 0.59782 0.17265 0.80003 0.0
N2225 N 0.60262 0.13915 0.8155 0.0
N2226 N 0.57503 0.16704 0.77116 0.0
C2227 C 0.57019 0.13678 0.77313 0.0
C2228 C 0.58521 0.12171 0.79715 0.0
C2229 C 0.9207 0.56914 0.79323 0.0
C2230 C 0.91753 0.60032 0.79693 0.0
C2231 C 0.90933 0.55463 0.76778 0.0
C2232 C 0.89404 0.571 0.74544 0.0
H2233 H 0.93298 0.55617 0.80956 0.0
H2234 H 0.91273 0.53052 0.76544 0.0
S2235 S 0.87576 0.65234 0.7461 0.0
N2236 N 0.89542 0.64681 0.77727 0.0
N2237 N 0.873 0.61897 0.72974 0.0
C2238 C 0.88842 0.60169 0.74985 0.0
C2239 C 0.90033 0.61656 0.77564 0.0
C2240 C 0.21607 0.43696 0.10004 0.0
C2241 C 0.22491 0.42558 0.07185 0.0
C2242 C 0.23539 0.45563 0.11665 0.0
C2243 C 0.26437 0.46311 0.10586 0.0
H2244 H 0.19434 0.43091 0.10953 0.0
H2245 H 0.22778 0.46373 0.13845 0.0
S2246 S 0.29898 0.43649 0.03444 0.0
N2247 N 0.26457 0.42218 0.03408 0.0
N2248 N 0.30147 0.45615 0.06603 0.0
C2249 C 0.27339 0.45191 0.07761 0.0
C2250 C 0.25349 0.43336 0.06044 0.0
C2251 C 0.24554 0.5972 0.91441 0.0
C2252 C 0.24769 0.6018 0.94559 0.0
C2253 C 0.2681 0.58174 0.89887 0.0
C2254 C 0.29388 0.57077 0.91386 0.0
H2255 H 0.22608 0.60532 0.90201 0.0
H2256 H 0.26506 0.57797 0.8749 0.0
S2257 S 0.31319 0.5834 0.99409 0.0
N2258 N 0.27907 0.59801 0.99038 0.0
N2259 N 0.32215 0.5692 0.96074 0.0
C2260 C 0.29694 0.5763 0.94486 0.0
C2261 C 0.27367 0.59187 0.96083 0.0
C2262 C 0.43883 0.24935 0.97503 0.0
C2263 C 0.43533 0.22235 0.95847 0.0
C2264 C 0.45307 0.27446 0.96224 0.0
C2265 C 0.46504 0.27258 0.93314 0.0
H2266 H 0.42832 0.25194 0.99698 0.0
H2267 H 0.45334 0.29564 0.97444 0.0
S2268 S 0.46642 0.20574 0.88284 0.0
N2269 N 0.44747 0.19448 0.91293 0.0
N2270 N 0.4762 0.24108 0.88958 0.0
C2271 C 0.46426 0.24495 0.9176 0.0
C2272 C 0.44888 0.21984 0.93013 0.0
C2273 C 0.75981 0.40587 0.92953 0.0
C2274 C 0.7877 0.41804 0.93879 0.0
C2275 C 0.73917 0.42316 0.91313 0.0
C2276 C 0.74564 0.45323 0.90598 0.0
H2277 H 0.7535 0.38305 0.93569 0.0
H2278 H 0.71779 0.41321 0.9066 0.0
S2279 S 0.81814 0.49294 0.91763 0.0
N2280 N 0.82279 0.45995 0.93443 0.0
N2281 N 0.78323 0.49301 0.90455 0.0
C2282 C 0.77395 0.46518 0.91348 0.0
C2283 C 0.7952 0.44743 0.92979 0.0
C2284 C 0.57246 0.77184 0.95446 0.0
C2285 C 0.60225 0.76668 0.96369 0.0
C2286 C 0.55663 0.75027 0.93775 0.0
C2287 C 0.57047 0.72312 0.92906 0.0
H2288 H 0.56206 0.7934 0.958 0.0
H2289 H 0.53413 0.75576 0.92987 0.0
S2290 S 0.64755 0.69774 0.94889 0.0
N2291 N 0.6444 0.7314 0.96464 0.0
N2292 N 0.61498 0.69136 0.93187 0.0
C2293 C 0.59994 0.71718 0.93878 0.0
C2294 C 0.61581 0.73887 0.95637 0.0
C2295 C 0.75325 0.59642 0.04458 0.0
C2296 C 0.78274 0.58484 0.04643 0.0
C2297 C 0.72962 0.58329 0.06086 0.0
C2298 C 0.73468 0.55762 0.07858 0.0
H2299 H 0.74905 0.61749 0.03286 0.0
H2300 H 0.70784 0.59441 0.06124 0.0
S2301 S 0.80669 0.51574 0.08648 0.0
N2302 N 0.81521 0.54478 0.06465 0.0
N2303 N 0.77021 0.51864 0.09384 0.0
C2304 C 0.76332 0.54389 0.07788 0.0
C2305 C 0.78765 0.55797 0.06219 0.0
C2306 C 0.43328 0.75814 0.05587 0.0
C2307 C 0.40324 0.76443 0.06386 0.0
C2308 C 0.45146 0.73983 0.07405 0.0
C2309 C 0.43962 0.72539 0.09971 0.0
H2310 H 0.44329 0.76838 0.03608 0.0
H2311 H 0.47517 0.73793 0.06847 0.0
S2312 S 0.3602 0.72874 0.12647 0.0
N2313 N 0.36128 0.75164 0.09714 0.0
N2314 N 0.39463 0.71498 0.12958 0.0
C2315 C 0.4087 0.72896 0.10612 0.0
C2316 C 0.39059 0.74871 0.08844 0.0
C2317 C 0.57295 0.22617 0.10887 0.0
C2318 C 0.59017 0.23327 0.08335 0.0
C2319 C 0.55615 0.24859 0.12338 0.0
C2320 C 0.5566 0.27855 0.11286 0.0
H2321 H 0.5726 0.20335 0.11765 0.0
H2322 H 0.54276 0.24251 0.14295 0.0
S2323 S 0.60115 0.30904 0.04924 0.0
N2324 N 0.60842 0.2725 0.04933 0.0
N2325 N 0.57726 0.31468 0.07733 0.0
C2326 C 0.57433 0.28604 0.08794 0.0
C2327 C 0.59108 0.26329 0.07295 0.0
C2328 C 0.89955 0.7635 0.64625 0.0
C2329 C 0.92601 0.77408 0.63227 0.0
C2330 C 0.87805 0.74667 0.62984 0.0
C2331 C 0.88122 0.74184 0.59847 0.0
H2332 H 0.89528 0.76861 0.66978 0.0
H2333 H 0.85883 0.7373 0.64172 0.0
S2334 S 0.94523 0.76805 0.5511 0.0
N2335 N 0.95402 0.77901 0.58554 0.0
N2336 N 0.91236 0.7508 0.55411 0.0
C2337 C 0.90709 0.75352 0.58422 0.0
C2338 C 0.92975 0.76867 0.60125 0.0
C2339 C 0.22644 0.87317 0.60382 0.0
C2340 C 0.2301 0.89315 0.62857 0.0
C2341 C 0.25115 0.85812 0.59102 0.0
C2342 C 0.28012 0.86201 0.60305 0.0
H2343 H 0.20521 0.87195 0.59174 0.0
H2344 H 0.24811 0.84703 0.56946 0.0
S2345 S 0.29865 0.89928 0.67588 0.0
N2346 N 0.26281 0.90767 0.67 0.0
N2347 N 0.30878 0.87738 0.64747 0.0
C2348 C 0.28241 0.87568 0.63185 0.0
C2349 C 0.25754 0.89208 0.64417 0.0
C2350 C 0.14207 0.22172 0.60374 0.0
C2351 C 0.1215 0.22323 0.62816 0.0
C2352 C 0.15975 0.24655 0.59558 0.0
C2353 C 0.15796 0.27359 0.6119 0.0
H2354 H 0.1421 0.20262 0.58847 0.0
H2355 H 0.1714 0.24569 0.57415 0.0
S2356 S 0.11872 0.28381 0.68554 0.0
N2357 N 0.10761 0.25027 0.67364 0.0
N2358 N 0.14275 0.29627 0.65987 0.0
C2359 C 0.14293 0.27273 0.64017 0.0
C2360 C 0.12385 0.24784 0.64777 0.0
C2361 C 0.76902 0.12552 0.66008 0.0
C2362 C 0.7779 0.0977 0.64759 0.0
C2363 C 0.75157 0.14619 0.64319 0.0
C2364 C 0.74465 0.14079 0.61255 0.0
H2365 H 0.77578 0.13138 0.68283 0.0
H2366 H 0.74336 0.16644 0.65413 0.0
S2367 S 0.76497 0.07217 0.56891 0.0
N2368 N 0.77811 0.06579 0.60314 0.0
N2369 N 0.74939 0.10594 0.57043 0.0
C2370 C 0.7546 0.11353 0.59971 0.0
C2371 C 0.77011 0.09171 0.61745 0.0
C2372 C 0.89703 0.24566 0.37613 0.0
C2373 C 0.92885 0.24585 0.37304 0.0
C2374 C 0.88219 0.2643 0.39728 0.0
C2375 C 0.89888 0.28308 0.41651 0.0
H2376 H 0.8835 0.2311 0.36187 0.0
H2377 H 0.85776 0.26448 0.39814 0.0
S2378 S 0.98233 0.29029 0.41958 0.0
N2379 N 0.97622 0.26597 0.39207 0.0
N2380 N 0.94868 0.29949 0.43244 0.0
C2381 C 0.93062 0.2826 0.4143 0.0
C2382 C 0.94556 0.26448 0.39239 0.0
C2383 C 0.78605 0.8781 0.40069 0.0
C2384 C 0.78387 0.90234 0.37985 0.0
C2385 C 0.76082 0.86794 0.41693 0.0
C2386 C 0.73235 0.88064 0.41187 0.0
H2387 H 0.80786 0.86951 0.40762 0.0
H2388 H 0.76431 0.85242 0.4355 0.0
S2389 S 0.71273 0.93403 0.34985 0.0
N2390 N 0.74989 0.93168 0.34868 0.0
N2391 N 0.70196 0.91094 0.37707 0.0
C2392 C 0.72902 0.89987 0.38643 0.0
C2393 C 0.75493 0.9111 0.37083 0.0
C2394 C 0.10758 0.75504 0.36198 0.0
C2395 C 0.12047 0.7832 0.36825 0.0
C2396 C 0.11808 0.72917 0.3767 0.0
C2397 C 0.14126 0.73087 0.39871 0.0
H2398 H 0.08691 0.75343 0.349 0.0
H2399 H 0.10524 0.7086 0.37352 0.0
S2400 S 0.19139 0.79628 0.41131 0.0
N2401 N 0.16498 0.80898 0.38824 0.0
N2402 N 0.18318 0.76051 0.4176 0.0
C2403 C 0.15817 0.75743 0.40014 0.0
C2404 C 0.14819 0.78359 0.38424 0.0
C2405 C 0.24966 0.14538 0.42669 0.0
C2406 C 0.2779 0.14964 0.41299 0.0
C2407 C 0.22618 0.13098 0.41125 0.0
C2408 C 0.23016 0.11944 0.38178 0.0
H2409 H 0.24646 0.15029 0.45042 0.0
H2410 H 0.20553 0.12654 0.42361 0.0
S2411 S 0.29749 0.12964 0.33365 0.0
N2412 N 0.30657 0.14593 0.36596 0.0
N2413 N 0.26278 0.11672 0.33808 0.0
C2414 C 0.25717 0.12572 0.36684 0.0
C2415 C 0.28082 0.14155 0.3821 0.0
C2416 C 0.63503 0.90014 0.77771 0.0
C2417 C 0.62263 0.92844 0.78519 0.0
C2418 C 0.61913 0.87961 0.75914 0.0
C2419 C 0.58934 0.88561 0.74956 0.0
H2420 H 0.65698 0.89382 0.7864 0.0
H2421 H 0.63022 0.859 0.75208 0.0
S2422 S 0.54605 0.95555 0.76523 0.0
N2423 N 0.57907 0.96129 0.78142 0.0
N2424 N 0.54797 0.92153 0.75024 0.0
C2425 C 0.57644 0.9133 0.75813 0.0
C2426 C 0.59335 0.93493 0.77493 0.0
C2427 C 0.10382 0.63293 0.75839 0.0
C2428 C 0.09213 0.61602 0.78239 0.0
C2429 C 0.12623 0.62066 0.73946 0.0
C2430 C 0.13726 0.59093 0.74358 0.0
H2431 H 0.09609 0.65581 0.75459 0.0
H2432 H 0.13482 0.63449 0.72121 0.0
S2433 S 0.11215 0.53696 0.80254 0.0
N2434 N 0.09241 0.56783 0.80888 0.0
N2435 N 0.13357 0.54483 0.77314 0.0
C2436 C 0.12529 0.57381 0.76738 0.0
C2437 C 0.10286 0.5863 0.78667 0.0
C2438 C 0.35558 0.12917 0.76051 0.0
C2439 C 0.36209 0.09948 0.7701 0.0
C2440 C 0.37471 0.1445 0.74009 0.0
C2441 C 0.40187 0.1313 0.73034 0.0
H2442 H 0.33602 0.1408 0.76946 0.0
H2443 H 0.36848 0.16678 0.73223 0.0
S2444 S 0.42979 0.05467 0.7492 0.0
N2445 N 0.39741 0.05755 0.76738 0.0
N2446 N 0.43409 0.08705 0.73133 0.0
C2447 C 0.40856 0.10183 0.73987 0.0
C2448 C 0.38853 0.08576 0.75913 0.0
C2449 C 0.89201 0.3739 0.77567 0.0
C2450 C 0.92358 0.36881 0.77451 0.0
C2451 C 0.87788 0.39574 0.75725 0.0
C2452 C 0.89503 0.41359 0.73754 0.0
H2453 H 0.87803 0.36051 0.79062 0.0
H2454 H 0.85354 0.39803 0.75785 0.0
S2455 S 0.97818 0.41127 0.7272 0.0
N2456 N 0.97124 0.38453 0.75215 0.0
N2457 N 0.94511 0.42618 0.7192 0.0
C2458 C 0.92658 0.40949 0.73707 0.0
C2459 C 0.94077 0.3869 0.75498 0.0
C2460 C 0.62833 0.13582 0.22319 0.0
C2461 C 0.60656 0.12111 0.20543 0.0
C2462 C 0.61974 0.15613 0.24598 0.0
C2463 C 0.58899 0.16153 0.25271 0.0
H2464 H 0.65193 0.12965 0.22137 0.0
H2465 H 0.63712 0.16428 0.26115 0.0
S2466 S 0.52406 0.13678 0.206 0.0
N2467 N 0.5536 0.12037 0.19033 0.0
N2468 N 0.53747 0.15654 0.23459 0.0
C2469 C 0.56751 0.15095 0.2319 0.0
C2470 C 0.5763 0.13098 0.20805 0.0
C2471 C 0.91622 0.65532 0.2599 0.0
C2472 C 0.9179 0.64264 0.23098 0.0
C2473 C 0.89825 0.64207 0.28242 0.0
C2474 C 0.88219 0.61482 0.27729 0.0
H2475 H 0.93052 0.67419 0.26588 0.0
H2476 H 0.89986 0.65142 0.30497 0.0
S2477 S 0.87004 0.57947 0.20258 0.0
N2478 N 0.89412 0.60718 0.19605 0.0
N2479 N 0.86275 0.58081 0.2391 0.0
C2480 C 0.87987 0.60488 0.24739 0.0
C2481 C 0.89732 0.61905 0.22411 0.0
C2482 C 0.41119 0.94115 0.26073 0.0
C2483 C 0.39033 0.92378 0.24454 0.0
C2484 C 0.43513 0.92759 0.27615 0.0
C2485 C 0.43873 0.89599 0.27685 0.0
H2486 H 0.40942 0.96544 0.26084 0.0
H2487 H 0.45026 0.94199 0.28884 0.0
S2488 S 0.39008 0.84022 0.23826 0.0
N2489 N 0.37529 0.87324 0.22915 0.0
N2490 N 0.41926 0.84763 0.26033 0.0
C2491 C 0.4181 0.87823 0.26084 0.0
C2492 C 0.39413 0.89216 0.24423 0.0
C2493 C 0.1174 0.3665 0.25685 0.0
C2494 C 0.12585 0.37669 0.22817 0.0
C2495 C 0.13029 0.37919 0.28277 0.0
C2496 C 0.15101 0.40361 0.28093 0.0
H2497 H 0.09851 0.35119 0.2595 0.0
H2498 H 0.12083 0.37234 0.30426 0.0
S2499 S 0.18968 0.42912 0.21148 0.0
N2500 N 0.16428 0.40451 0.19965 0.0
N2501 N 0.18596 0.43044 0.24854 0.0
C2502 C 0.16354 0.40993 0.25269 0.0
C2503 C 0.15154 0.39588 0.22624 0.0
C2504 C 0.74609 0.65653 0.92405 0.0
C2505 C 0.77325 0.65715 0.90786 0.0
C2506 C 0.72232 0.63787 0.9147 0.0
C2507 C 0.72504 0.61885 0.88909 0.0
H2508 H 0.74447 0.66727 0.94597 0.0
H2509 H 0.70302 0.63612 0.92963 0.0
S2510 S 0.78659 0.62195 0.8327 0.0
N2511 N 0.79742 0.64528 0.85971 0.0
N2512 N 0.75344 0.60861 0.8434 0.0
C2513 C 0.74976 0.62346 0.86999 0.0
C2514 C 0.77354 0.64336 0.87894 0.0
C2515 C 0.78888 0.40545 0.13474 0.0
C2516 C 0.78289 0.39173 0.10644 0.0
C2517 C 0.76564 0.41663 0.1531 0.0
C2518 C 0.73538 0.41325 0.1447 0.0
H2519 H 0.8119 0.41013 0.14159 0.0
H2520 H 0.77146 0.42954 0.17303 0.0
S2521 S 0.70721 0.37339 0.07609 0.0
N2522 N 0.74429 0.37275 0.07271 0.0
N2523 N 0.70045 0.39012 0.10867 0.0
C2524 C 0.72897 0.39587 0.11852 0.0
C2525 C 0.75274 0.3859 0.09907 0.0
C2526 C 0.61694 0.79279 0.13058 0.0
C2527 C 0.64436 0.7868 0.11526 0.0
C2528 C 0.59995 0.76965 0.14378 0.0
C2529 C 0.6102 0.73976 0.14321 0.0
H2530 H 0.60677 0.815 0.1297 0.0
H2531 H 0.57732 0.77486 0.15144 0.0
S2532 S 0.68439 0.71373 0.11337 0.0
N2533 N 0.68323 0.74996 0.10469 0.0
N2534 N 0.65279 0.7066 0.1319 0.0
C2535 C 0.63972 0.73435 0.13196 0.0
C2536 C 0.65637 0.75776 0.11727 0.0
C2537 C 0.22036 0.62534 0.13323 0.0
C2538 C 0.22433 0.646 0.10909 0.0
C2539 C 0.24519 0.61339 0.1487 0.0
C2540 C 0.27449 0.62275 0.14139 0.0
H2541 H 0.19863 0.61489 0.13733 0.0
H2542 H 0.24163 0.59409 0.16327 0.0
S2543 S 0.29448 0.68807 0.09243 0.0
N2544 N 0.258 0.68292 0.08678 0.0
N2545 N 0.30445 0.66283 0.11799 0.0
C2546 C 0.27753 0.64905 0.12336 0.0
C2547 C 0.25243 0.66011 0.10649 0.0
C2548 C 0.36029 0.25837 0.10572 0.0
C2549 C 0.36988 0.23003 0.11591 0.0
C2550 C 0.37287 0.28486 0.11759 0.0
C2551 C 0.39647 0.28397 0.13923 0.0
H2552 H 0.3455 0.26015 0.08633 0.0
H2553 H 0.3665 0.3059 0.10691 0.0
S2554 S 0.42073 0.21613 0.18139 0.0
N2555 N 0.39658 0.20327 0.15611 0.0
N2556 N 0.42232 0.25296 0.17604 0.0
C2557 C 0.40231 0.25624 0.1531 0.0
C2558 C 0.38839 0.22928 0.14204 0.0
C2559 C 0.26046 0.39651 0.93096 0.0
C2560 C 0.25043 0.36855 0.91981 0.0
C2561 C 0.27824 0.41575 0.91338 0.0
C2562 C 0.28788 0.40743 0.88431 0.0
H2563 H 0.25325 0.40437 0.95298 0.0
H2564 H 0.28528 0.43706 0.92307 0.0
S2565 S 0.26942 0.33596 0.84513 0.0
N2566 N 0.25114 0.33355 0.87761 0.0
N2567 N 0.28762 0.36856 0.8457 0.0
C2568 C 0.27909 0.37908 0.8732 0.0
C2569 C 0.25963 0.35995 0.89065 0.0
C2570 C 0.64616 0.26636 0.91753 0.0
C2571 C 0.63956 0.23551 0.91969 0.0
C2572 C 0.62922 0.28544 0.8987 0.0
C2573 C 0.60392 0.27487 0.8823 0.0
H2574 H 0.66413 0.27602 0.93089 0.0
H2575 H 0.6355 0.30903 0.89789 0.0
S2576 S 0.57751 0.19558 0.87892 0.0
N2577 N 0.60682 0.19473 0.90188 0.0
N2578 N 0.57427 0.23106 0.86815 0.0
C2579 C 0.59772 0.24386 0.88327 0.0
C2580 C 0.61555 0.22417 0.90166 0.0
C2581 C 0.37289 0.758 0.90931 0.0
C2582 C 0.38431 0.78724 0.90549 0.0
C2583 C 0.38457 0.73385 0.89246 0.0
C2584 C 0.40885 0.73786 0.87191 0.0
H2585 H 0.3571 0.75316 0.92736 0.0
H2586 H 0.37672 0.71145 0.89833 0.0
S2587 S 0.43901 0.81146 0.84634 0.0
N2588 N 0.41463 0.82013 0.87318 0.0
N2589 N 0.43816 0.77433 0.84363 0.0
C2590 C 0.41708 0.7675 0.86478 0.0
C2591 C 0.40437 0.79228 0.88105 0.0
loop_
_geom_bond_atom_site_label_1
_geom_bond_atom_site_label_2
_geom_bond_distance
_geom_bond_site_symmetry_2
_ccdc_geom_bond_type
Zn0 O6 1.920 . S
Zn0 O12 1.898 . S
Zn0 O15 1.905 . S
Zn1 O9 1.905 . S
Zn1 O10 1.898 . S
Zn1 O18 1.920 . S
Zn2 O5 2.080 . S
Zn2 O8 2.114 1_455 S
Zn2 O11 2.120 . S
Zn2 O13 2.120 . S
Zn2 O14 2.114 . S
Zn2 O17 2.080 1_455 S
C3 O8 1.166 . S
C3 O9 1.182 . S
C4 O10 1.167 . S
C4 O11 1.299 1_655 S
O5 Zn2 2.080 . S
O5 C19 1.305 . S
O6 Zn0 1.920 . S
O6 C19 1.234 . S
C7 O12 1.167 . S
C7 O13 1.299 . S
O8 Zn2 2.114 1_655 S
O8 C3 1.166 . S
O9 Zn1 1.905 . S
O9 C3 1.182 . S
O10 Zn1 1.898 . S
O10 C4 1.167 . S
O11 Zn2 2.120 . S
O11 C4 1.299 1_455 S
O12 Zn0 1.898 . S
O12 C7 1.167 . S
O13 Zn2 2.120 . S
O13 C7 1.299 . S
O14 Zn2 2.114 . S
O14 C16 1.166 . S
O15 Zn0 1.905 . S
O15 C16 1.182 . S
C16 O14 1.166 . S
C16 O15 1.182 . S
O17 Zn2 2.080 1_655 S
O17 C20 1.305 . S
O18 Zn1 1.920 . S
O18 C20 1.234 . S
C19 O5 1.305 . S
C19 O6 1.234 . S
C20 O17 1.305 . S
C20 O18 1.234 . S
Zn21 O27 1.920 . S
Zn21 O33 1.898 . S
Zn21 O36 1.905 . S
Zn22 O30 1.905 . S
Zn22 O31 1.898 . S
Zn22 O39 1.920 . S
Zn23 O26 2.080 . S
Zn23 O29 2.114 1_545 S
Zn23 O32 2.120 . S
Zn23 O34 2.120 . S
Zn23 O35 2.114 . S
Zn23 O38 2.080 1_545 S
C24 O29 1.166 . S
C24 O30 1.182 . S
C25 O31 1.167 . S
C25 O32 1.299 1_565 S
O26 Zn23 2.080 . S
O26 C40 1.305 . S
O27 Zn21 1.920 . S
O27 C40 1.234 . S
C28 O33 1.167 . S
C28 O34 1.299 . S
O29 Zn23 2.114 1_565 S
O29 C24 1.166 . S
O30 Zn22 1.905 . S
O30 C24 1.182 . S
O31 Zn22 1.898 . S
O31 C25 1.167 . S
O32 Zn23 2.120 . S
O32 C25 1.299 1_545 S
O33 Zn21 1.898 . S
O33 C28 1.167 . S
O34 Zn23 2.120 . S
O34 C28 1.299 . S
O35 Zn23 2.114 . S
O35 C37 1.166 . S
O36 Zn21 1.905 . S
O36 C37 1.182 . S
C37 O35 1.166 . S
C37 O36 1.182 . S
O38 Zn23 2.080 1_565 S
O38 C41 1.305 . S
O39 Zn22 1.920 . S
O39 C41 1.234 . S
C40 O26 1.305 . S
C40 O27 1.234 . S
C41 O38 1.305 . S
C41 O39 1.234 . S
Zn42 O48 1.920 . S
Zn42 O54 1.898 . S
Zn42 O57 1.905 . S
Zn43 O51 1.905 . S
Zn43 O52 1.898 . S
Zn43 O60 1.920 . S
Zn44 O47 2.080 1_455 S
Zn44 O50 2.114 . S
Zn44 O53 2.120 . S
Zn44 O55 2.120 . S
Zn44 O56 2.114 1_455 S
Zn44 O59 2.080 . S
C45 O50 1.166 . S
C45 O51 1.182 . S
C46 O52 1.167 . S
C46 O53 1.299 . S
O47 Zn44 2.080 1_655 S
O47 C61 1.305 . S
O48 Zn42 1.920 . S
O48 C61 1.234 . S
C49 O54 1.167 1_455 S
C49 O55 1.299 . S
O50 Zn44 2.114 . S
O50 C45 1.166 . S
O51 Zn43 1.905 . S
O51 C45 1.182 . S
O52 Zn43 1.898 . S
O52 C46 1.167 . S
O53 Zn44 2.120 . S
O53 C46 1.299 . S
O54 Zn42 1.898 . S
O54 C49 1.167 1_655 S
O55 Zn44 2.120 . S
O55 C49 1.299 . S
O56 Zn44 2.114 1_655 S
O56 C58 1.166 . S
O57 Zn42 1.905 . S
O57 C58 1.182 . S
C58 O56 1.166 . S
C58 O57 1.182 . S
O59 Zn44 2.080 . S
O59 C62 1.305 . S
O60 Zn43 1.920 . S
O60 C62 1.234 . S
C61 O47 1.305 . S
C61 O48 1.234 . S
C62 O59 1.305 . S
C62 O60 1.234 . S
Zn63 O69 1.920 . S
Zn63 O75 1.898 . S
Zn63 O78 1.905 . S
Zn64 O72 1.905 . S
Zn64 O73 1.898 . S
Zn64 O81 1.920 . S
Zn65 O68 2.080 1_545 S
Zn65 O71 2.114 . S
Zn65 O74 2.120 . S
Zn65 O76 2.120 . S
Zn65 O77 2.114 1_545 S
Zn65 O80 2.080 . S
C66 O71 1.166 . S
C66 O72 1.182 . S
C67 O73 1.167 . S
C67 O74 1.299 . S
O68 Zn65 2.080 1_565 S
O68 C82 1.305 . S
O69 Zn63 1.920 . S
O69 C82 1.234 . S
C70 O75 1.167 1_545 S
C70 O76 1.299 . S
O71 Zn65 2.114 . S
O71 C66 1.166 . S
O72 Zn64 1.905 . S
O72 C66 1.182 . S
O73 Zn64 1.898 . S
O73 C67 1.167 . S
O74 Zn65 2.120 . S
O74 C67 1.299 . S
O75 Zn63 1.898 . S
O75 C70 1.167 1_565 S
O76 Zn65 2.120 . S
O76 C70 1.299 . S
O77 Zn65 2.114 1_565 S
O77 C79 1.166 . S
O78 Zn63 1.905 . S
O78 C79 1.182 . S
C79 O77 1.166 . S
C79 O78 1.182 . S
O80 Zn65 2.080 . S
O80 C83 1.305 . S
O81 Zn64 1.920 . S
O81 C83 1.234 . S
C82 O68 1.305 . S
C82 O69 1.234 . S
C83 O80 1.305 . S
C83 O81 1.234 . S
Zn84 O90 1.920 . S
Zn84 O96 1.898 . S
Zn84 O99 1.905 . S
Zn85 O93 1.905 . S
Zn85 O94 1.898 . S
Zn85 O102 1.920 . S
Zn86 O89 2.080 . S
Zn86 O92 2.114 1_455 S
Zn86 O95 2.120 . S
Zn86 O97 2.120 . S
Zn86 O98 2.114 . S
Zn86 O101 2.080 1_455 S
C87 O92 1.166 . S
C87 O93 1.182 . S
C88 O94 1.167 . S
C88 O95 1.299 1_655 S
O89 Zn86 2.080 . S
O89 C103 1.305 . S
O90 Zn84 1.920 . S
O90 C103 1.234 . S
C91 O96 1.167 . S
C91 O97 1.299 . S
O92 Zn86 2.114 1_655 S
O92 C87 1.166 . S
O93 Zn85 1.905 . S
O93 C87 1.182 . S
O94 Zn85 1.898 . S
O94 C88 1.167 . S
O95 Zn86 2.120 . S
O95 C88 1.299 1_455 S
O96 Zn84 1.898 . S
O96 C91 1.167 . S
O97 Zn86 2.120 . S
O97 C91 1.299 . S
O98 Zn86 2.114 . S
O98 C100 1.166 . S
O99 Zn84 1.905 . S
O99 C100 1.182 . S
C100 O98 1.166 . S
C100 O99 1.182 . S
O101 Zn86 2.080 1_655 S
O101 C104 1.305 . S
O102 Zn85 1.920 . S
O102 C104 1.234 . S
C103 O89 1.305 . S
C103 O90 1.234 . S
C104 O101 1.305 . S
C104 O102 1.234 . S
Zn105 O111 1.920 . S
Zn105 O117 1.898 . S
Zn105 O120 1.905 . S
Zn106 O114 1.905 . S
Zn106 O115 1.898 . S
Zn106 O123 1.920 . S
Zn107 O110 2.080 . S
Zn107 O113 2.114 1_545 S
Zn107 O116 2.120 . S
Zn107 O118 2.120 . S
Zn107 O119 2.114 . S
Zn107 O122 2.080 1_545 S
C108 O113 1.166 . S
C108 O114 1.182 . S
C109 O115 1.167 . S
C109 O116 1.299 1_565 S
O110 Zn107 2.080 . S
O110 C124 1.305 . S
O111 Zn105 1.920 . S
O111 C124 1.234 . S
C112 O117 1.167 . S
C112 O118 1.299 . S
O113 Zn107 2.114 1_565 S
O113 C108 1.166 . S
O114 Zn106 1.905 . S
O114 C108 1.182 . S
O115 Zn106 1.898 . S
O115 C109 1.167 . S
O116 Zn107 2.120 . S
O116 C109 1.299 1_545 S
O117 Zn105 1.898 . S
O117 C112 1.167 . S
O118 Zn107 2.120 . S
O118 C112 1.299 . S
O119 Zn107 2.114 . S
O119 C121 1.166 . S
O120 Zn105 1.905 . S
O120 C121 1.182 . S
C121 O119 1.166 . S
C121 O120 1.182 . S
O122 Zn107 2.080 1_565 S
O122 C125 1.305 . S
O123 Zn106 1.920 . S
O123 C125 1.234 . S
C124 O110 1.305 . S
C124 O111 1.234 . S
C125 O122 1.305 . S
C125 O123 1.234 . S
Zn126 O132 1.920 . S
Zn126 O138 1.898 . S
Zn126 O141 1.905 . S
Zn127 O135 1.905 . S
Zn127 O136 1.898 . S
Zn127 O144 1.920 . S
Zn128 O131 2.080 1_455 S
Zn128 O134 2.114 . S
Zn128 O137 2.120 . S
Zn128 O139 2.120 . S
Zn128 O140 2.114 1_455 S
Zn128 O143 2.080 . S
C129 O134 1.166 . S
C129 O135 1.182 . S
C130 O136 1.167 . S
C130 O137 1.299 . S
O131 Zn128 2.080 1_655 S
O131 C145 1.305 . S
O132 Zn126 1.920 . S
O132 C145 1.234 . S
C133 O138 1.167 1_455 S
C133 O139 1.299 . S
O134 Zn128 2.114 . S
O134 C129 1.166 . S
O135 Zn127 1.905 . S
O135 C129 1.182 . S
O136 Zn127 1.898 . S
O136 C130 1.167 . S
O137 Zn128 2.120 . S
O137 C130 1.299 . S
O138 Zn126 1.898 . S
O138 C133 1.167 1_655 S
O139 Zn128 2.120 . S
O139 C133 1.299 . S
O140 Zn128 2.114 1_655 S
O140 C142 1.166 . S
O141 Zn126 1.905 . S
O141 C142 1.182 . S
C142 O140 1.166 . S
C142 O141 1.182 . S
O143 Zn128 2.080 . S
O143 C146 1.305 . S
O144 Zn127 1.920 . S
O144 C146 1.234 . S
C145 O131 1.305 . S
C145 O132 1.234 . S
C146 O143 1.305 . S
C146 O144 1.234 . S
Zn147 O153 1.920 . S
Zn147 O159 1.898 . S
Zn147 O162 1.905 . S
Zn148 O156 1.905 . S
Zn148 O157 1.898 . S
Zn148 O165 1.920 . S
Zn149 O152 2.080 . S
Zn149 O155 2.114 1_545 S
Zn149 O158 2.120 . S
Zn149 O160 2.120 . S
Zn149 O161 2.114 . S
Zn149 O164 2.080 1_545 S
C150 O155 1.166 . S
C150 O156 1.182 . S
C151 O157 1.167 1_545 S
C151 O158 1.299 . S
O152 Zn149 2.080 . S
O152 C166 1.305 . S
O153 Zn147 1.920 . S
O153 C166 1.234 . S
C154 O159 1.167 . S
C154 O160 1.299 . S
O155 Zn149 2.114 1_565 S
O155 C150 1.166 . S
O156 Zn148 1.905 . S
O156 C150 1.182 . S
O157 Zn148 1.898 . S
O157 C151 1.167 1_565 S
O158 Zn149 2.120 . S
O158 C151 1.299 . S
O159 Zn147 1.898 . S
O159 C154 1.167 . S
O160 Zn149 2.120 . S
O160 C154 1.299 . S
O161 Zn149 2.114 . S
O161 C163 1.166 . S
O162 Zn147 1.905 . S
O162 C163 1.182 . S
C163 O161 1.166 . S
C163 O162 1.182 . S
O164 Zn149 2.080 1_565 S
O164 C167 1.305 . S
O165 Zn148 1.920 . S
O165 C167 1.234 . S
C166 O152 1.305 . S
C166 O153 1.234 . S
C167 O164 1.305 . S
C167 O165 1.234 . S
Zn168 O174 1.920 . S
Zn168 O180 1.898 . S
Zn168 O183 1.905 . S
Zn169 O177 1.905 . S
Zn169 O178 1.898 . S
Zn169 O186 1.920 . S
Zn170 O173 2.080 . S
Zn170 O176 2.114 1_545 S
Zn170 O179 2.120 . S
Zn170 O181 2.120 . S
Zn170 O182 2.114 . S
Zn170 O185 2.080 1_545 S
C171 O176 1.166 . S
C171 O177 1.182 . S
C172 O178 1.167 . S
C172 O179 1.299 1_565 S
O173 Zn170 2.080 . S
O173 C187 1.305 . S
O174 Zn168 1.920 . S
O174 C187 1.234 . S
C175 O180 1.167 . S
C175 O181 1.299 . S
O176 Zn170 2.114 1_565 S
O176 C171 1.166 . S
O177 Zn169 1.905 . S
O177 C171 1.182 . S
O178 Zn169 1.898 . S
O178 C172 1.167 . S
O179 Zn170 2.120 . S
O179 C172 1.299 1_545 S
O180 Zn168 1.898 . S
O180 C175 1.167 . S
O181 Zn170 2.120 . S
O181 C175 1.299 . S
O182 Zn170 2.114 . S
O182 C184 1.166 . S
O183 Zn168 1.905 . S
O183 C184 1.182 . S
C184 O182 1.166 . S
C184 O183 1.182 . S
O185 Zn170 2.080 1_565 S
O185 C188 1.305 . S
O186 Zn169 1.920 . S
O186 C188 1.234 . S
C187 O173 1.305 . S
C187 O174 1.234 . S
C188 O185 1.305 . S
C188 O186 1.234 . S
Zn189 O195 1.920 . S
Zn189 O201 1.898 . S
Zn189 O204 1.905 . S
Zn190 O198 1.905 . S
Zn190 O199 1.898 . S
Zn190 O207 1.920 . S
Zn191 O194 2.080 1_455 S
Zn191 O197 2.114 . S
Zn191 O200 2.120 . S
Zn191 O202 2.120 . S
Zn191 O203 2.114 1_455 S
Zn191 O206 2.080 . S
C192 O197 1.166 . S
C192 O198 1.182 . S
C193 O199 1.167 . S
C193 O200 1.299 . S
O194 Zn191 2.080 1_655 S
O194 C208 1.305 . S
O195 Zn189 1.920 . S
O195 C208 1.234 . S
C196 O201 1.167 1_455 S
C196 O202 1.299 . S
O197 Zn191 2.114 . S
O197 C192 1.166 . S
O198 Zn190 1.905 . S
O198 C192 1.182 . S
O199 Zn190 1.898 . S
O199 C193 1.167 . S
O200 Zn191 2.120 . S
O200 C193 1.299 . S
O201 Zn189 1.898 . S
O201 C196 1.167 1_655 S
O202 Zn191 2.120 . S
O202 C196 1.299 . S
O203 Zn191 2.114 1_655 S
O203 C205 1.166 . S
O204 Zn189 1.905 . S
O204 C205 1.182 . S
C205 O203 1.166 . S
C205 O204 1.182 . S
O206 Zn191 2.080 . S
O206 C209 1.305 . S
O207 Zn190 1.920 . S
O207 C209 1.234 . S
C208 O194 1.305 . S
C208 O195 1.234 . S
C209 O206 1.305 . S
C209 O207 1.234 . S
Zn210 O216 1.920 . S
Zn210 O222 1.898 . S
Zn210 O225 1.905 . S
Zn211 O219 1.905 . S
Zn211 O220 1.898 . S
Zn211 O228 1.920 . S
Zn212 O215 2.080 . S
Zn212 O218 2.114 1_545 S
Zn212 O221 2.120 . S
Zn212 O223 2.120 . S
Zn212 O224 2.114 . S
Zn212 O227 2.080 1_545 S
C213 O218 1.166 . S
C213 O219 1.182 . S
C214 O220 1.167 1_545 S
C214 O221 1.299 . S
O215 Zn212 2.080 . S
O215 C229 1.305 . S
O216 Zn210 1.920 . S
O216 C229 1.234 . S
C217 O222 1.167 . S
C217 O223 1.299 . S
O218 Zn212 2.114 1_565 S
O218 C213 1.166 . S
O219 Zn211 1.905 . S
O219 C213 1.182 . S
O220 Zn211 1.898 . S
O220 C214 1.167 1_565 S
O221 Zn212 2.120 . S
O221 C214 1.299 . S
O222 Zn210 1.898 . S
O222 C217 1.167 . S
O223 Zn212 2.120 . S
O223 C217 1.299 . S
O224 Zn212 2.114 . S
O224 C226 1.166 . S
O225 Zn210 1.905 . S
O225 C226 1.182 . S
C226 O224 1.166 . S
C226 O225 1.182 . S
O227 Zn212 2.080 1_565 S
O227 C230 1.305 . S
O228 Zn211 1.920 . S
O228 C230 1.234 . S
C229 O215 1.305 . S
C229 O216 1.234 . S
C230 O227 1.305 . S
C230 O228 1.234 . S
Zn231 O237 1.920 . S
Zn231 O243 1.898 . S
Zn231 O246 1.905 . S
Zn232 O240 1.905 . S
Zn232 O241 1.898 . S
Zn232 O249 1.920 . S
Zn233 O236 2.080 . S
Zn233 O239 2.114 1_455 S
Zn233 O242 2.120 . S
Zn233 O244 2.120 . S
Zn233 O245 2.114 . S
Zn233 O248 2.080 1_455 S
C234 O239 1.166 . S
C234 O240 1.182 . S
C235 O241 1.167 . S
C235 O242 1.299 1_655 S
O236 Zn233 2.080 . S
O236 C250 1.305 . S
O237 Zn231 1.920 . S
O237 C250 1.234 . S
C238 O243 1.167 . S
C238 O244 1.299 . S
O239 Zn233 2.114 1_655 S
O239 C234 1.166 . S
O240 Zn232 1.905 . S
O240 C234 1.182 . S
O241 Zn232 1.898 . S
O241 C235 1.167 . S
O242 Zn233 2.120 . S
O242 C235 1.299 1_455 S
O243 Zn231 1.898 . S
O243 C238 1.167 . S
O244 Zn233 2.120 . S
O244 C238 1.299 . S
O245 Zn233 2.114 . S
O245 C247 1.166 . S
O246 Zn231 1.905 . S
O246 C247 1.182 . S
C247 O245 1.166 . S
C247 O246 1.182 . S
O248 Zn233 2.080 1_655 S
O248 C251 1.305 . S
O249 Zn232 1.920 . S
O249 C251 1.234 . S
C250 O236 1.305 . S
C250 O237 1.234 . S
C251 O248 1.305 . S
C251 O249 1.234 . S
Zn252 O258 1.920 . S
Zn252 O264 1.898 . S
Zn252 O267 1.905 . S
Zn253 O261 1.905 . S
Zn253 O262 1.898 . S
Zn253 O270 1.920 . S
Zn254 O257 2.080 1_545 S
Zn254 O260 2.114 . S
Zn254 O263 2.120 . S
Zn254 O265 2.120 . S
Zn254 O266 2.114 1_545 S
Zn254 O269 2.080 . S
C255 O260 1.166 . S
C255 O261 1.182 . S
C256 O262 1.167 . S
C256 O263 1.299 . S
O257 Zn254 2.080 1_565 S
O257 C271 1.305 . S
O258 Zn252 1.920 . S
O258 C271 1.234 . S
C259 O264 1.167 1_545 S
C259 O265 1.299 . S
O260 Zn254 2.114 . S
O260 C255 1.166 . S
O261 Zn253 1.905 . S
O261 C255 1.182 . S
O262 Zn253 1.898 . S
O262 C256 1.167 . S
O263 Zn254 2.120 . S
O263 C256 1.299 . S
O264 Zn252 1.898 . S
O264 C259 1.167 1_565 S
O265 Zn254 2.120 . S
O265 C259 1.299 . S
O266 Zn254 2.114 1_565 S
O266 C268 1.166 . S
O267 Zn252 1.905 . S
O267 C268 1.182 . S
C268 O266 1.166 . S
C268 O267 1.182 . S
O269 Zn254 2.080 . S
O269 C272 1.305 . S
O270 Zn253 1.920 . S
O270 C272 1.234 . S
C271 O257 1.305 . S
C271 O258 1.234 . S
C272 O269 1.305 . S
C272 O270 1.234 . S
Zn273 O279 1.920 . S
Zn273 O285 1.898 . S
Zn273 O288 1.905 . S
Zn274 O282 1.905 . S
Zn274 O283 1.898 . S
Zn274 O291 1.920 . S
Zn275 O278 2.080 1_455 S
Zn275 O281 2.114 . S
Zn275 O284 2.120 . S
Zn275 O286 2.120 . S
Zn275 O287 2.114 1_455 S
Zn275 O290 2.080 . S
C276 O281 1.166 . S
C276 O282 1.182 . S
C277 O283 1.167 . S
C277 O284 1.299 . S
O278 Zn275 2.080 1_655 S
O278 C292 1.305 . S
O279 Zn273 1.920 . S
O279 C292 1.234 . S
C280 O285 1.167 . S
C280 O286 1.299 1_655 S
O281 Zn275 2.114 . S
O281 C276 1.166 . S
O282 Zn274 1.905 . S
O282 C276 1.182 . S
O283 Zn274 1.898 . S
O283 C277 1.167 . S
O284 Zn275 2.120 . S
O284 C277 1.299 . S
O285 Zn273 1.898 . S
O285 C280 1.167 . S
O286 Zn275 2.120 . S
O286 C280 1.299 1_455 S
O287 Zn275 2.114 1_655 S
O287 C289 1.166 . S
O288 Zn273 1.905 . S
O288 C289 1.182 . S
C289 O287 1.166 . S
C289 O288 1.182 . S
O290 Zn275 2.080 . S
O290 C293 1.305 . S
O291 Zn274 1.920 . S
O291 C293 1.234 . S
C292 O278 1.305 . S
C292 O279 1.234 . S
C293 O290 1.305 . S
C293 O291 1.234 . S
Zn294 O300 1.920 . S
Zn294 O306 1.898 . S
Zn294 O309 1.905 . S
Zn295 O303 1.905 . S
Zn295 O304 1.898 . S
Zn295 O312 1.920 . S
Zn296 O299 2.080 1_545 S
Zn296 O302 2.114 . S
Zn296 O305 2.120 . S
Zn296 O307 2.120 . S
Zn296 O308 2.114 1_545 S
Zn296 O311 2.080 . S
C297 O302 1.166 . S
C297 O303 1.182 . S
C298 O304 1.167 . S
C298 O305 1.299 . S
O299 Zn296 2.080 1_565 S
O299 C313 1.305 . S
O300 Zn294 1.920 . S
O300 C313 1.234 . S
C301 O306 1.167 . S
C301 O307 1.299 1_565 S
O302 Zn296 2.114 . S
O302 C297 1.166 . S
O303 Zn295 1.905 . S
O303 C297 1.182 . S
O304 Zn295 1.898 . S
O304 C298 1.167 . S
O305 Zn296 2.120 . S
O305 C298 1.299 . S
O306 Zn294 1.898 . S
O306 C301 1.167 . S
O307 Zn296 2.120 . S
O307 C301 1.299 1_545 S
O308 Zn296 2.114 1_565 S
O308 C310 1.166 . S
O309 Zn294 1.905 . S
O309 C310 1.182 . S
C310 O308 1.166 . S
C310 O309 1.182 . S
O311 Zn296 2.080 . S
O311 C314 1.305 . S
O312 Zn295 1.920 . S
O312 C314 1.234 . S
C313 O299 1.305 . S
C313 O300 1.234 . S
C314 O311 1.305 . S
C314 O312 1.234 . S
Zn315 O321 1.920 . S
Zn315 O327 1.898 . S
Zn315 O330 1.905 . S
Zn316 O324 1.905 . S
Zn316 O325 1.898 . S
Zn316 O333 1.920 . S
Zn317 O320 2.080 . S
Zn317 O323 2.114 1_455 S
Zn317 O326 2.120 . S
Zn317 O328 2.120 . S
Zn317 O329 2.114 . S
Zn317 O332 2.080 1_455 S
C318 O323 1.166 . S
C318 O324 1.182 . S
C319 O325 1.167 1_455 S
C319 O326 1.299 . S
O320 Zn317 2.080 . S
O320 C334 1.305 . S
O321 Zn315 1.920 . S
O321 C334 1.234 . S
C322 O327 1.167 . S
C322 O328 1.299 . S
O323 Zn317 2.114 1_655 S
O323 C318 1.166 . S
O324 Zn316 1.905 . S
O324 C318 1.182 . S
O325 Zn316 1.898 . S
O325 C319 1.167 1_655 S
O326 Zn317 2.120 . S
O326 C319 1.299 . S
O327 Zn315 1.898 . S
O327 C322 1.167 . S
O328 Zn317 2.120 . S
O328 C322 1.299 . S
O329 Zn317 2.114 . S
O329 C331 1.166 . S
O330 Zn315 1.905 . S
O330 C331 1.182 . S
C331 O329 1.166 . S
C331 O330 1.182 . S
O332 Zn317 2.080 1_655 S
O332 C335 1.305 . S
O333 Zn316 1.920 . S
O333 C335 1.234 . S
C334 O320 1.305 . S
C334 O321 1.234 . S
C335 O332 1.305 . S
C335 O333 1.234 . S
Zn336 O342 1.920 . S
Zn336 O348 1.898 . S
Zn336 O351 1.905 . S
Zn337 O345 1.905 . S
Zn337 O346 1.898 . S
Zn337 O354 1.920 . S
Zn338 O341 2.080 1_554 S
Zn338 O344 2.114 . S
Zn338 O347 2.120 . S
Zn338 O349 2.120 . S
Zn338 O350 2.114 1_554 S
Zn338 O353 2.080 . S
C339 O344 1.166 . S
C339 O345 1.182 . S
C340 O346 1.167 . S
C340 O347 1.299 . S
O341 Zn338 2.080 1_556 S
O341 C355 1.305 . S
O342 Zn336 1.920 . S
O342 C355 1.234 . S
C343 O348 1.167 . S
C343 O349 1.299 1_556 S
O344 Zn338 2.114 . S
O344 C339 1.166 . S
O345 Zn337 1.905 . S
O345 C339 1.182 . S
O346 Zn337 1.898 . S
O346 C340 1.167 . S
O347 Zn338 2.120 . S
O347 C340 1.299 . S
O348 Zn336 1.898 . S
O348 C343 1.167 . S
O349 Zn338 2.120 . S
O349 C343 1.299 1_554 S
O350 Zn338 2.114 1_556 S
O350 C352 1.166 . S
O351 Zn336 1.905 . S
O351 C352 1.182 . S
C352 O350 1.166 . S
C352 O351 1.182 . S
O353 Zn338 2.080 . S
O353 C356 1.305 . S
O354 Zn337 1.920 . S
O354 C356 1.234 . S
C355 O341 1.305 . S
C355 O342 1.234 . S
C356 O353 1.305 . S
C356 O354 1.234 . S
Zn357 O363 1.920 . S
Zn357 O369 1.898 . S
Zn357 O372 1.905 . S
Zn358 O366 1.905 . S
Zn358 O367 1.898 . S
Zn358 O375 1.920 . S
Zn359 O362 2.080 1_554 S
Zn359 O365 2.114 . S
Zn359 O368 2.120 . S
Zn359 O370 2.120 . S
Zn359 O371 2.114 1_554 S
Zn359 O374 2.080 . S
C360 O365 1.166 . S
C360 O366 1.182 . S
C361 O367 1.167 . S
C361 O368 1.299 . S
O362 Zn359 2.080 1_556 S
O362 C376 1.305 . S
O363 Zn357 1.920 . S
O363 C376 1.234 . S
C364 O369 1.167 1_554 S
C364 O370 1.299 . S
O365 Zn359 2.114 . S
O365 C360 1.166 . S
O366 Zn358 1.905 . S
O366 C360 1.182 . S
O367 Zn358 1.898 . S
O367 C361 1.167 . S
O368 Zn359 2.120 . S
O368 C361 1.299 . S
O369 Zn357 1.898 . S
O369 C364 1.167 1_556 S
O370 Zn359 2.120 . S
O370 C364 1.299 . S
O371 Zn359 2.114 1_556 S
O371 C373 1.166 . S
O372 Zn357 1.905 . S
O372 C373 1.182 . S
C373 O371 1.166 . S
C373 O372 1.182 . S
O374 Zn359 2.080 . S
O374 C377 1.305 . S
O375 Zn358 1.920 . S
O375 C377 1.234 . S
C376 O362 1.305 . S
C376 O363 1.234 . S
C377 O374 1.305 . S
C377 O375 1.234 . S
Zn378 O384 1.920 . S
Zn378 O390 1.898 . S
Zn378 O393 1.905 . S
Zn379 O387 1.905 . S
Zn379 O388 1.898 . S
Zn379 O396 1.920 . S
Zn380 O383 2.080 1_554 S
Zn380 O386 2.114 . S
Zn380 O389 2.120 . S
Zn380 O391 2.120 . S
Zn380 O392 2.114 1_554 S
Zn380 O395 2.080 . S
C381 O386 1.166 . S
C381 O387 1.182 . S
C382 O388 1.167 . S
C382 O389 1.299 . S
O383 Zn380 2.080 1_556 S
O383 C397 1.305 . S
O384 Zn378 1.920 . S
O384 C397 1.234 . S
C385 O390 1.167 1_554 S
C385 O391 1.299 . S
O386 Zn380 2.114 . S
O386 C381 1.166 . S
O387 Zn379 1.905 . S
O387 C381 1.182 . S
O388 Zn379 1.898 . S
O388 C382 1.167 . S
O389 Zn380 2.120 . S
O389 C382 1.299 . S
O390 Zn378 1.898 . S
O390 C385 1.167 1_556 S
O391 Zn380 2.120 . S
O391 C385 1.299 . S
O392 Zn380 2.114 1_556 S
O392 C394 1.166 . S
O393 Zn378 1.905 . S
O393 C394 1.182 . S
C394 O392 1.166 . S
C394 O393 1.182 . S
O395 Zn380 2.080 . S
O395 C398 1.305 . S
O396 Zn379 1.920 . S
O396 C398 1.234 . S
C397 O383 1.305 . S
C397 O384 1.234 . S
C398 O395 1.305 . S
C398 O396 1.234 . S
Zn399 O405 1.920 . S
Zn399 O411 1.898 . S
Zn399 O414 1.905 . S
Zn400 O408 1.905 . S
Zn400 O409 1.898 . S
Zn400 O417 1.920 . S
Zn401 O404 2.080 . S
Zn401 O407 2.114 1_554 S
Zn401 O410 2.120 . S
Zn401 O412 2.120 . S
Zn401 O413 2.114 . S
Zn401 O416 2.080 1_554 S
C402 O407 1.166 . S
C402 O408 1.182 . S
C403 O409 1.167 1_554 S
C403 O410 1.299 . S
O404 Zn401 2.080 . S
O404 C418 1.305 . S
O405 Zn399 1.920 . S
O405 C418 1.234 . S
C406 O411 1.167 . S
C406 O412 1.299 . S
O407 Zn401 2.114 1_556 S
O407 C402 1.166 . S
O408 Zn400 1.905 . S
O408 C402 1.182 . S
O409 Zn400 1.898 . S
O409 C403 1.167 1_556 S
O410 Zn401 2.120 . S
O410 C403 1.299 . S
O411 Zn399 1.898 . S
O411 C406 1.167 . S
O412 Zn401 2.120 . S
O412 C406 1.299 . S
O413 Zn401 2.114 . S
O413 C415 1.166 . S
O414 Zn399 1.905 . S
O414 C415 1.182 . S
C415 O413 1.166 . S
C415 O414 1.182 . S
O416 Zn401 2.080 1_556 S
O416 C419 1.305 . S
O417 Zn400 1.920 . S
O417 C419 1.234 . S
C418 O404 1.305 . S
C418 O405 1.234 . S
C419 O416 1.305 . S
C419 O417 1.234 . S
Zn420 O426 1.920 . S
Zn420 O432 1.898 . S
Zn420 O435 1.905 . S
Zn421 O429 1.905 . S
Zn421 O430 1.898 . S
Zn421 O438 1.920 . S
Zn422 O425 2.080 1_554 S
Zn422 O428 2.114 . S
Zn422 O431 2.120 . S
Zn422 O433 2.120 . S
Zn422 O434 2.114 1_554 S
Zn422 O437 2.080 . S
C423 O428 1.166 . S
C423 O429 1.182 . S
C424 O430 1.167 . S
C424 O431 1.299 . S
O425 Zn422 2.080 1_556 S
O425 C439 1.305 . S
O426 Zn420 1.920 . S
O426 C439 1.234 . S
C427 O432 1.167 1_554 S
C427 O433 1.299 . S
O428 Zn422 2.114 . S
O428 C423 1.166 . S
O429 Zn421 1.905 . S
O429 C423 1.182 . S
O430 Zn421 1.898 . S
O430 C424 1.167 . S
O431 Zn422 2.120 . S
O431 C424 1.299 . S
O432 Zn420 1.898 . S
O432 C427 1.167 1_556 S
O433 Zn422 2.120 . S
O433 C427 1.299 . S
O434 Zn422 2.114 1_556 S
O434 C436 1.166 . S
O435 Zn420 1.905 . S
O435 C436 1.182 . S
C436 O434 1.166 . S
C436 O435 1.182 . S
O437 Zn422 2.080 . S
O437 C440 1.305 . S
O438 Zn421 1.920 . S
O438 C440 1.234 . S
C439 O425 1.305 . S
C439 O426 1.234 . S
C440 O437 1.305 . S
C440 O438 1.234 . S
Zn441 O447 1.920 . S
Zn441 O453 1.898 . S
Zn441 O456 1.905 . S
Zn442 O450 1.905 . S
Zn442 O451 1.898 . S
Zn442 O459 1.920 . S
Zn443 O446 2.080 1_554 S
Zn443 O449 2.114 . S
Zn443 O452 2.120 . S
Zn443 O454 2.120 . S
Zn443 O455 2.114 1_554 S
Zn443 O458 2.080 . S
C444 O449 1.166 . S
C444 O450 1.182 . S
C445 O451 1.167 . S
C445 O452 1.299 . S
O446 Zn443 2.080 1_556 S
O446 C460 1.305 . S
O447 Zn441 1.920 . S
O447 C460 1.234 . S
C448 O453 1.167 . S
C448 O454 1.299 1_556 S
O449 Zn443 2.114 . S
O449 C444 1.166 . S
O450 Zn442 1.905 . S
O450 C444 1.182 . S
O451 Zn442 1.898 . S
O451 C445 1.167 . S
O452 Zn443 2.120 . S
O452 C445 1.299 . S
O453 Zn441 1.898 . S
O453 C448 1.167 . S
O454 Zn443 2.120 . S
O454 C448 1.299 1_554 S
O455 Zn443 2.114 1_556 S
O455 C457 1.166 . S
O456 Zn441 1.905 . S
O456 C457 1.182 . S
C457 O455 1.166 . S
C457 O456 1.182 . S
O458 Zn443 2.080 . S
O458 C461 1.305 . S
O459 Zn442 1.920 . S
O459 C461 1.234 . S
C460 O446 1.305 . S
C460 O447 1.234 . S
C461 O458 1.305 . S
C461 O459 1.234 . S
Zn462 O468 1.920 . S
Zn462 O474 1.898 . S
Zn462 O477 1.905 . S
Zn463 O471 1.905 . S
Zn463 O472 1.898 . S
Zn463 O480 1.920 . S
Zn464 O467 2.080 1_554 S
Zn464 O470 2.114 . S
Zn464 O473 2.120 . S
Zn464 O475 2.120 . S
Zn464 O476 2.114 1_554 S
Zn464 O479 2.080 . S
C465 O470 1.166 . S
C465 O471 1.182 . S
C466 O472 1.167 . S
C466 O473 1.299 . S
O467 Zn464 2.080 1_556 S
O467 C481 1.305 . S
O468 Zn462 1.920 . S
O468 C481 1.234 . S
C469 O474 1.167 . S
C469 O475 1.299 1_556 S
O470 Zn464 2.114 . S
O470 C465 1.166 . S
O471 Zn463 1.905 . S
O471 C465 1.182 . S
O472 Zn463 1.898 . S
O472 C466 1.167 . S
O473 Zn464 2.120 . S
O473 C466 1.299 . S
O474 Zn462 1.898 . S
O474 C469 1.167 . S
O475 Zn464 2.120 . S
O475 C469 1.299 1_554 S
O476 Zn464 2.114 1_556 S
O476 C478 1.166 . S
O477 Zn462 1.905 . S
O477 C478 1.182 . S
C478 O476 1.166 . S
C478 O477 1.182 . S
O479 Zn464 2.080 . S
O479 C482 1.305 . S
O480 Zn463 1.920 . S
O480 C482 1.234 . S
C481 O467 1.305 . S
C481 O468 1.234 . S
C482 O479 1.305 . S
C482 O480 1.234 . S
Zn483 O489 1.920 . S
Zn483 O495 1.898 . S
Zn483 O498 1.905 . S
Zn484 O492 1.905 . S
Zn484 O493 1.898 . S
Zn484 O501 1.920 . S
Zn485 O488 2.080 1_554 S
Zn485 O491 2.114 . S
Zn485 O494 2.120 . S
Zn485 O496 2.120 . S
Zn485 O497 2.114 1_554 S
Zn485 O500 2.080 . S
C486 O491 1.166 . S
C486 O492 1.182 . S
C487 O493 1.167 . S
C487 O494 1.299 . S
O488 Zn485 2.080 1_556 S
O488 C502 1.305 . S
O489 Zn483 1.920 . S
O489 C502 1.234 . S
C490 O495 1.167 . S
C490 O496 1.299 1_556 S
O491 Zn485 2.114 . S
O491 C486 1.166 . S
O492 Zn484 1.905 . S
O492 C486 1.182 . S
O493 Zn484 1.898 . S
O493 C487 1.167 . S
O494 Zn485 2.120 . S
O494 C487 1.299 . S
O495 Zn483 1.898 . S
O495 C490 1.167 . S
O496 Zn485 2.120 . S
O496 C490 1.299 1_554 S
O497 Zn485 2.114 1_556 S
O497 C499 1.166 . S
O498 Zn483 1.905 . S
O498 C499 1.182 . S
C499 O497 1.166 . S
C499 O498 1.182 . S
O500 Zn485 2.080 . S
O500 C503 1.305 . S
O501 Zn484 1.920 . S
O501 C503 1.234 . S
C502 O488 1.305 . S
C502 O489 1.234 . S
C503 O500 1.305 . S
C503 O501 1.234 . S
Zn504 O510 1.920 . S
Zn504 O516 1.898 . S
Zn504 O519 1.905 . S
Zn505 O513 1.905 . S
Zn505 O514 1.898 . S
Zn505 O522 1.920 . S
Zn506 O509 2.080 . S
Zn506 O512 2.114 . S
Zn506 O515 2.120 . S
Zn506 O517 2.120 . S
Zn506 O518 2.114 . S
Zn506 O521 2.080 . S
C507 O512 1.166 . S
C507 O513 1.182 . S
C508 O514 1.167 . S
C508 O515 1.299 . S
O509 Zn506 2.080 . S
O509 C523 1.305 . S
O510 Zn504 1.920 . S
O510 C523 1.234 . S
C511 O516 1.167 . S
C511 O517 1.299 . S
O512 Zn506 2.114 . S
O512 C507 1.166 . S
O513 Zn505 1.905 . S
O513 C507 1.182 . S
O514 Zn505 1.898 . S
O514 C508 1.167 . S
O515 Zn506 2.120 . S
O515 C508 1.299 . S
O516 Zn504 1.898 . S
O516 C511 1.167 . S
O517 Zn506 2.120 . S
O517 C511 1.299 . S
O518 Zn506 2.114 . S
O518 C520 1.166 . S
O519 Zn504 1.905 . S
O519 C520 1.182 . S
C520 O518 1.166 . S
C520 O519 1.182 . S
O521 Zn506 2.080 . S
O521 C524 1.305 . S
O522 Zn505 1.920 . S
O522 C524 1.234 . S
C523 O509 1.305 . S
C523 O510 1.234 . S
C524 O521 1.305 . S
C524 O522 1.234 . S
Zn525 O531 1.920 . S
Zn525 O537 1.898 . S
Zn525 O540 1.905 . S
Zn526 O534 1.905 . S
Zn526 O535 1.898 . S
Zn526 O543 1.920 . S
Zn527 O530 2.080 . S
Zn527 O533 2.114 . S
Zn527 O536 2.120 . S
Zn527 O538 2.120 . S
Zn527 O539 2.114 . S
Zn527 O542 2.080 . S
C528 O533 1.166 . S
C528 O534 1.182 . S
C529 O535 1.167 . S
C529 O536 1.299 . S
O530 Zn527 2.080 . S
O530 C544 1.305 . S
O531 Zn525 1.920 . S
O531 C544 1.234 . S
C532 O537 1.167 . S
C532 O538 1.299 . S
O533 Zn527 2.114 . S
O533 C528 1.166 . S
O534 Zn526 1.905 . S
O534 C528 1.182 . S
O535 Zn526 1.898 . S
O535 C529 1.167 . S
O536 Zn527 2.120 . S
O536 C529 1.299 . S
O537 Zn525 1.898 . S
O537 C532 1.167 . S
O538 Zn527 2.120 . S
O538 C532 1.299 . S
O539 Zn527 2.114 . S
O539 C541 1.166 . S
O540 Zn525 1.905 . S
O540 C541 1.182 . S
C541 O539 1.166 . S
C541 O540 1.182 . S
O542 Zn527 2.080 . S
O542 C545 1.305 . S
O543 Zn526 1.920 . S
O543 C545 1.234 . S
C544 O530 1.305 . S
C544 O531 1.234 . S
C545 O542 1.305 . S
C545 O543 1.234 . S
Zn546 O552 1.920 . S
Zn546 O558 1.898 . S
Zn546 O561 1.905 . S
Zn547 O555 1.905 . S
Zn547 O556 1.898 . S
Zn547 O564 1.920 . S
Zn548 O551 2.080 . S
Zn548 O554 2.114 . S
Zn548 O557 2.120 . S
Zn548 O559 2.120 . S
Zn548 O560 2.114 . S
Zn548 O563 2.080 . S
C549 O554 1.166 . S
C549 O555 1.182 . S
C550 O556 1.167 . S
C550 O557 1.299 . S
O551 Zn548 2.080 . S
O551 C565 1.305 . S
O552 Zn546 1.920 . S
O552 C565 1.234 . S
C553 O558 1.167 . S
C553 O559 1.299 . S
O554 Zn548 2.114 . S
O554 C549 1.166 . S
O555 Zn547 1.905 . S
O555 C549 1.182 . S
O556 Zn547 1.898 . S
O556 C550 1.167 . S
O557 Zn548 2.120 . S
O557 C550 1.299 . S
O558 Zn546 1.898 . S
O558 C553 1.167 . S
O559 Zn548 2.120 . S
O559 C553 1.299 . S
O560 Zn548 2.114 . S
O560 C562 1.166 . S
O561 Zn546 1.905 . S
O561 C562 1.182 . S
C562 O560 1.166 . S
C562 O561 1.182 . S
O563 Zn548 2.080 . S
O563 C566 1.305 . S
O564 Zn547 1.920 . S
O564 C566 1.234 . S
C565 O551 1.305 . S
C565 O552 1.234 . S
C566 O563 1.305 . S
C566 O564 1.234 . S
Zn567 O573 1.920 . S
Zn567 O579 1.898 . S
Zn567 O582 1.905 . S
Zn568 O576 1.905 . S
Zn568 O577 1.898 . S
Zn568 O585 1.920 . S
Zn569 O572 2.080 . S
Zn569 O575 2.114 . S
Zn569 O578 2.120 . S
Zn569 O580 2.120 . S
Zn569 O581 2.114 . S
Zn569 O584 2.080 . S
C570 O575 1.166 . S
C570 O576 1.182 . S
C571 O577 1.167 . S
C571 O578 1.299 . S
O572 Zn569 2.080 . S
O572 C586 1.305 . S
O573 Zn567 1.920 . S
O573 C586 1.234 . S
C574 O579 1.167 . S
C574 O580 1.299 . S
O575 Zn569 2.114 . S
O575 C570 1.166 . S
O576 Zn568 1.905 . S
O576 C570 1.182 . S
O577 Zn568 1.898 . S
O577 C571 1.167 . S
O578 Zn569 2.120 . S
O578 C571 1.299 . S
O579 Zn567 1.898 . S
O579 C574 1.167 . S
O580 Zn569 2.120 . S
O580 C574 1.299 . S
O581 Zn569 2.114 . S
O581 C583 1.166 . S
O582 Zn567 1.905 . S
O582 C583 1.182 . S
C583 O581 1.166 . S
C583 O582 1.182 . S
O584 Zn569 2.080 . S
O584 C587 1.305 . S
O585 Zn568 1.920 . S
O585 C587 1.234 . S
C586 O572 1.305 . S
C586 O573 1.234 . S
C587 O584 1.305 . S
C587 O585 1.234 . S
Zn588 O594 1.920 . S
Zn588 O600 1.898 . S
Zn588 O603 1.905 . S
Zn589 O597 1.905 . S
Zn589 O598 1.898 . S
Zn589 O606 1.920 . S
Zn590 O593 2.080 . S
Zn590 O596 2.114 . S
Zn590 O599 2.120 . S
Zn590 O601 2.120 . S
Zn590 O602 2.114 . S
Zn590 O605 2.080 . S
C591 O596 1.166 . S
C591 O597 1.182 . S
C592 O598 1.167 . S
C592 O599 1.299 . S
O593 Zn590 2.080 . S
O593 C607 1.305 . S
O594 Zn588 1.920 . S
O594 C607 1.234 . S
C595 O600 1.167 . S
C595 O601 1.299 . S
O596 Zn590 2.114 . S
O596 C591 1.166 . S
O597 Zn589 1.905 . S
O597 C591 1.182 . S
O598 Zn589 1.898 . S
O598 C592 1.167 . S
O599 Zn590 2.120 . S
O599 C592 1.299 . S
O600 Zn588 1.898 . S
O600 C595 1.167 . S
O601 Zn590 2.120 . S
O601 C595 1.299 . S
O602 Zn590 2.114 . S
O602 C604 1.166 . S
O603 Zn588 1.905 . S
O603 C604 1.182 . S
C604 O602 1.166 . S
C604 O603 1.182 . S
O605 Zn590 2.080 . S
O605 C608 1.305 . S
O606 Zn589 1.920 . S
O606 C608 1.234 . S
C607 O593 1.305 . S
C607 O594 1.234 . S
C608 O605 1.305 . S
C608 O606 1.234 . S
Zn609 O615 1.920 . S
Zn609 O621 1.898 . S
Zn609 O624 1.905 . S
Zn610 O618 1.905 . S
Zn610 O619 1.898 . S
Zn610 O627 1.920 . S
Zn611 O614 2.080 . S
Zn611 O617 2.114 . S
Zn611 O620 2.120 . S
Zn611 O622 2.120 . S
Zn611 O623 2.114 . S
Zn611 O626 2.080 . S
C612 O617 1.166 . S
C612 O618 1.182 . S
C613 O619 1.167 . S
C613 O620 1.299 . S
O614 Zn611 2.080 . S
O614 C628 1.305 . S
O615 Zn609 1.920 . S
O615 C628 1.234 . S
C616 O621 1.167 . S
C616 O622 1.299 . S
O617 Zn611 2.114 . S
O617 C612 1.166 . S
O618 Zn610 1.905 . S
O618 C612 1.182 . S
O619 Zn610 1.898 . S
O619 C613 1.167 . S
O620 Zn611 2.120 . S
O620 C613 1.299 . S
O621 Zn609 1.898 . S
O621 C616 1.167 . S
O622 Zn611 2.120 . S
O622 C616 1.299 . S
O623 Zn611 2.114 . S
O623 C625 1.166 . S
O624 Zn609 1.905 . S
O624 C625 1.182 . S
C625 O623 1.166 . S
C625 O624 1.182 . S
O626 Zn611 2.080 . S
O626 C629 1.305 . S
O627 Zn610 1.920 . S
O627 C629 1.234 . S
C628 O614 1.305 . S
C628 O615 1.234 . S
C629 O626 1.305 . S
C629 O627 1.234 . S
Zn630 O636 1.920 . S
Zn630 O642 1.898 . S
Zn630 O645 1.905 . S
Zn631 O639 1.905 . S
Zn631 O640 1.898 . S
Zn631 O648 1.920 . S
Zn632 O635 2.080 . S
Zn632 O638 2.114 . S
Zn632 O641 2.120 . S
Zn632 O643 2.120 . S
Zn632 O644 2.114 . S
Zn632 O647 2.080 . S
C633 O638 1.166 . S
C633 O639 1.182 . S
C634 O640 1.167 . S
C634 O641 1.299 . S
O635 Zn632 2.080 . S
O635 C649 1.305 . S
O636 Zn630 1.920 . S
O636 C649 1.234 . S
C637 O642 1.167 . S
C637 O643 1.299 . S
O638 Zn632 2.114 . S
O638 C633 1.166 . S
O639 Zn631 1.905 . S
O639 C633 1.182 . S
O640 Zn631 1.898 . S
O640 C634 1.167 . S
O641 Zn632 2.120 . S
O641 C634 1.299 . S
O642 Zn630 1.898 . S
O642 C637 1.167 . S
O643 Zn632 2.120 . S
O643 C637 1.299 . S
O644 Zn632 2.114 . S
O644 C646 1.166 . S
O645 Zn630 1.905 . S
O645 C646 1.182 . S
C646 O644 1.166 . S
C646 O645 1.182 . S
O647 Zn632 2.080 . S
O647 C650 1.305 . S
O648 Zn631 1.920 . S
O648 C650 1.234 . S
C649 O635 1.305 . S
C649 O636 1.234 . S
C650 O647 1.305 . S
C650 O648 1.234 . S
Zn651 O657 1.920 . S
Zn651 O663 1.898 . S
Zn651 O666 1.905 . S
Zn652 O660 1.905 . S
Zn652 O661 1.898 . S
Zn652 O669 1.920 . S
Zn653 O656 2.080 . S
Zn653 O659 2.114 . S
Zn653 O662 2.120 . S
Zn653 O664 2.120 . S
Zn653 O665 2.114 . S
Zn653 O668 2.080 . S
C654 O659 1.166 . S
C654 O660 1.182 . S
C655 O661 1.167 . S
C655 O662 1.299 . S
O656 Zn653 2.080 . S
O656 C670 1.305 . S
O657 Zn651 1.920 . S
O657 C670 1.234 . S
C658 O663 1.167 . S
C658 O664 1.299 . S
O659 Zn653 2.114 . S
O659 C654 1.166 . S
O660 Zn652 1.905 . S
O660 C654 1.182 . S
O661 Zn652 1.898 . S
O661 C655 1.167 . S
O662 Zn653 2.120 . S
O662 C655 1.299 . S
O663 Zn651 1.898 . S
O663 C658 1.167 . S
O664 Zn653 2.120 . S
O664 C658 1.299 . S
O665 Zn653 2.114 . S
O665 C667 1.166 . S
O666 Zn651 1.905 . S
O666 C667 1.182 . S
C667 O665 1.166 . S
C667 O666 1.182 . S
O668 Zn653 2.080 . S
O668 C671 1.305 . S
O669 Zn652 1.920 . S
O669 C671 1.234 . S
C670 O656 1.305 . S
C670 O657 1.234 . S
C671 O668 1.305 . S
C671 O669 1.234 . S
Zn672 O678 1.920 . S
Zn672 O684 1.898 . S
Zn672 O687 1.905 . S
Zn673 O681 1.905 . S
Zn673 O682 1.898 . S
Zn673 O690 1.920 . S
Zn674 O677 2.080 . S
Zn674 O680 2.114 . S
Zn674 O683 2.120 . S
Zn674 O685 2.120 . S
Zn674 O686 2.114 . S
Zn674 O689 2.080 . S
C675 O680 1.166 . S
C675 O681 1.182 . S
C676 O682 1.167 . S
C676 O683 1.299 . S
O677 Zn674 2.080 . S
O677 C691 1.305 . S
O678 Zn672 1.920 . S
O678 C691 1.234 . S
C679 O684 1.167 . S
C679 O685 1.299 . S
O680 Zn674 2.114 . S
O680 C675 1.166 . S
O681 Zn673 1.905 . S
O681 C675 1.182 . S
O682 Zn673 1.898 . S
O682 C676 1.167 . S
O683 Zn674 2.120 . S
O683 C676 1.299 . S
O684 Zn672 1.898 . S
O684 C679 1.167 . S
O685 Zn674 2.120 . S
O685 C679 1.299 . S
O686 Zn674 2.114 . S
O686 C688 1.166 . S
O687 Zn672 1.905 . S
O687 C688 1.182 . S
C688 O686 1.166 . S
C688 O687 1.182 . S
O689 Zn674 2.080 . S
O689 C692 1.305 . S
O690 Zn673 1.920 . S
O690 C692 1.234 . S
C691 O677 1.305 . S
C691 O678 1.234 . S
C692 O689 1.305 . S
C692 O690 1.234 . S
Zn693 O699 1.920 . S
Zn693 O705 1.898 . S
Zn693 O708 1.905 . S
Zn694 O702 1.905 . S
Zn694 O703 1.898 . S
Zn694 O711 1.920 . S
Zn695 O698 2.080 . S
Zn695 O701 2.114 . S
Zn695 O704 2.120 . S
Zn695 O706 2.120 . S
Zn695 O707 2.114 . S
Zn695 O710 2.080 . S
C696 O701 1.166 . S
C696 O702 1.182 . S
C697 O703 1.167 . S
C697 O704 1.299 . S
O698 Zn695 2.080 . S
O698 C712 1.305 . S
O699 Zn693 1.920 . S
O699 C712 1.234 . S
C700 O705 1.167 . S
C700 O706 1.299 . S
O701 Zn695 2.114 . S
O701 C696 1.166 . S
O702 Zn694 1.905 . S
O702 C696 1.182 . S
O703 Zn694 1.898 . S
O703 C697 1.167 . S
O704 Zn695 2.120 . S
O704 C697 1.299 . S
O705 Zn693 1.898 . S
O705 C700 1.167 . S
O706 Zn695 2.120 . S
O706 C700 1.299 . S
O707 Zn695 2.114 . S
O707 C709 1.166 . S
O708 Zn693 1.905 . S
O708 C709 1.182 . S
C709 O707 1.166 . S
C709 O708 1.182 . S
O710 Zn695 2.080 . S
O710 C713 1.305 . S
O711 Zn694 1.920 . S
O711 C713 1.234 . S
C712 O698 1.305 . S
C712 O699 1.234 . S
C713 O710 1.305 . S
C713 O711 1.234 . S
Zn714 O720 1.920 . S
Zn714 O726 1.898 . S
Zn714 O729 1.905 . S
Zn715 O723 1.905 . S
Zn715 O724 1.898 . S
Zn715 O732 1.920 . S
Zn716 O719 2.080 . S
Zn716 O722 2.114 . S
Zn716 O725 2.120 . S
Zn716 O727 2.120 . S
Zn716 O728 2.114 . S
Zn716 O731 2.080 . S
C717 O722 1.166 . S
C717 O723 1.182 . S
C718 O724 1.167 . S
C718 O725 1.299 . S
O719 Zn716 2.080 . S
O719 C733 1.305 . S
O720 Zn714 1.920 . S
O720 C733 1.234 . S
C721 O726 1.167 . S
C721 O727 1.299 . S
O722 Zn716 2.114 . S
O722 C717 1.166 . S
O723 Zn715 1.905 . S
O723 C717 1.182 . S
O724 Zn715 1.898 . S
O724 C718 1.167 . S
O725 Zn716 2.120 . S
O725 C718 1.299 . S
O726 Zn714 1.898 . S
O726 C721 1.167 . S
O727 Zn716 2.120 . S
O727 C721 1.299 . S
O728 Zn716 2.114 . S
O728 C730 1.166 . S
O729 Zn714 1.905 . S
O729 C730 1.182 . S
C730 O728 1.166 . S
C730 O729 1.182 . S
O731 Zn716 2.080 . S
O731 C734 1.305 . S
O732 Zn715 1.920 . S
O732 C734 1.234 . S
C733 O719 1.305 . S
C733 O720 1.234 . S
C734 O731 1.305 . S
C734 O732 1.234 . S
Zn735 O741 1.920 . S
Zn735 O747 1.898 . S
Zn735 O750 1.905 . S
Zn736 O744 1.905 . S
Zn736 O745 1.898 . S
Zn736 O753 1.920 . S
Zn737 O740 2.080 . S
Zn737 O743 2.114 . S
Zn737 O746 2.120 . S
Zn737 O748 2.120 . S
Zn737 O749 2.114 . S
Zn737 O752 2.080 . S
C738 O743 1.166 . S
C738 O744 1.182 . S
C739 O745 1.167 . S
C739 O746 1.299 . S
O740 Zn737 2.080 . S
O740 C754 1.305 . S
O741 Zn735 1.920 . S
O741 C754 1.234 . S
C742 O747 1.167 . S
C742 O748 1.299 . S
O743 Zn737 2.114 . S
O743 C738 1.166 . S
O744 Zn736 1.905 . S
O744 C738 1.182 . S
O745 Zn736 1.898 . S
O745 C739 1.167 . S
O746 Zn737 2.120 . S
O746 C739 1.299 . S
O747 Zn735 1.898 . S
O747 C742 1.167 . S
O748 Zn737 2.120 . S
O748 C742 1.299 . S
O749 Zn737 2.114 . S
O749 C751 1.166 . S
O750 Zn735 1.905 . S
O750 C751 1.182 . S
C751 O749 1.166 . S
C751 O750 1.182 . S
O752 Zn737 2.080 . S
O752 C755 1.305 . S
O753 Zn736 1.920 . S
O753 C755 1.234 . S
C754 O740 1.305 . S
C754 O741 1.234 . S
C755 O752 1.305 . S
C755 O753 1.234 . S
Zn756 O762 1.920 . S
Zn756 O768 1.898 . S
Zn756 O771 1.905 . S
Zn757 O765 1.905 . S
Zn757 O766 1.898 . S
Zn757 O774 1.920 . S
Zn758 O761 2.080 . S
Zn758 O764 2.114 . S
Zn758 O767 2.120 . S
Zn758 O769 2.120 . S
Zn758 O770 2.114 . S
Zn758 O773 2.080 . S
C759 O764 1.166 . S
C759 O765 1.182 . S
C760 O766 1.167 . S
C760 O767 1.299 . S
O761 Zn758 2.080 . S
O761 C775 1.305 . S
O762 Zn756 1.920 . S
O762 C775 1.234 . S
C763 O768 1.167 . S
C763 O769 1.299 . S
O764 Zn758 2.114 . S
O764 C759 1.166 . S
O765 Zn757 1.905 . S
O765 C759 1.182 . S
O766 Zn757 1.898 . S
O766 C760 1.167 . S
O767 Zn758 2.120 . S
O767 C760 1.299 . S
O768 Zn756 1.898 . S
O768 C763 1.167 . S
O769 Zn758 2.120 . S
O769 C763 1.299 . S
O770 Zn758 2.114 . S
O770 C772 1.166 . S
O771 Zn756 1.905 . S
O771 C772 1.182 . S
C772 O770 1.166 . S
C772 O771 1.182 . S
O773 Zn758 2.080 . S
O773 C776 1.305 . S
O774 Zn757 1.920 . S
O774 C776 1.234 . S
C775 O761 1.305 . S
C775 O762 1.234 . S
C776 O773 1.305 . S
C776 O774 1.234 . S
Zn777 O783 1.920 . S
Zn777 O789 1.898 . S
Zn777 O792 1.905 . S
Zn778 O786 1.905 . S
Zn778 O787 1.898 . S
Zn778 O795 1.920 . S
Zn779 O782 2.080 . S
Zn779 O785 2.114 . S
Zn779 O788 2.120 . S
Zn779 O790 2.120 . S
Zn779 O791 2.114 . S
Zn779 O794 2.080 . S
C780 O785 1.166 . S
C780 O786 1.182 . S
C781 O787 1.167 . S
C781 O788 1.299 . S
O782 Zn779 2.080 . S
O782 C796 1.305 . S
O783 Zn777 1.920 . S
O783 C796 1.234 . S
C784 O789 1.167 . S
C784 O790 1.299 . S
O785 Zn779 2.114 . S
O785 C780 1.166 . S
O786 Zn778 1.905 . S
O786 C780 1.182 . S
O787 Zn778 1.898 . S
O787 C781 1.167 . S
O788 Zn779 2.120 . S
O788 C781 1.299 . S
O789 Zn777 1.898 . S
O789 C784 1.167 . S
O790 Zn779 2.120 . S
O790 C784 1.299 . S
O791 Zn779 2.114 . S
O791 C793 1.166 . S
O792 Zn777 1.905 . S
O792 C793 1.182 . S
C793 O791 1.166 . S
C793 O792 1.182 . S
O794 Zn779 2.080 . S
O794 C797 1.305 . S
O795 Zn778 1.920 . S
O795 C797 1.234 . S
C796 O782 1.305 . S
C796 O783 1.234 . S
C797 O794 1.305 . S
C797 O795 1.234 . S
Zn798 O804 1.920 . S
Zn798 O810 1.898 . S
Zn798 O813 1.905 . S
Zn799 O807 1.905 . S
Zn799 O808 1.898 . S
Zn799 O816 1.920 . S
Zn800 O803 2.080 . S
Zn800 O806 2.114 . S
Zn800 O809 2.120 . S
Zn800 O811 2.120 . S
Zn800 O812 2.114 . S
Zn800 O815 2.080 . S
C801 O806 1.166 . S
C801 O807 1.182 . S
C802 O808 1.167 . S
C802 O809 1.299 . S
O803 Zn800 2.080 . S
O803 C817 1.305 . S
O804 Zn798 1.920 . S
O804 C817 1.234 . S
C805 O810 1.167 . S
C805 O811 1.299 . S
O806 Zn800 2.114 . S
O806 C801 1.166 . S
O807 Zn799 1.905 . S
O807 C801 1.182 . S
O808 Zn799 1.898 . S
O808 C802 1.167 . S
O809 Zn800 2.120 . S
O809 C802 1.299 . S
O810 Zn798 1.898 . S
O810 C805 1.167 . S
O811 Zn800 2.120 . S
O811 C805 1.299 . S
O812 Zn800 2.114 . S
O812 C814 1.166 . S
O813 Zn798 1.905 . S
O813 C814 1.182 . S
C814 O812 1.166 . S
C814 O813 1.182 . S
O815 Zn800 2.080 . S
O815 C818 1.305 . S
O816 Zn799 1.920 . S
O816 C818 1.234 . S
C817 O803 1.305 . S
C817 O804 1.234 . S
C818 O815 1.305 . S
C818 O816 1.234 . S
Zn819 O825 1.920 . S
Zn819 O831 1.898 . S
Zn819 O834 1.905 . S
Zn820 O828 1.905 . S
Zn820 O829 1.898 . S
Zn820 O837 1.920 . S
Zn821 O824 2.080 . S
Zn821 O827 2.114 . S
Zn821 O830 2.120 . S
Zn821 O832 2.120 . S
Zn821 O833 2.114 . S
Zn821 O836 2.080 . S
C822 O827 1.166 . S
C822 O828 1.182 . S
C823 O829 1.167 . S
C823 O830 1.299 . S
O824 Zn821 2.080 . S
O824 C838 1.305 . S
O825 Zn819 1.920 . S
O825 C838 1.234 . S
C826 O831 1.167 . S
C826 O832 1.299 . S
O827 Zn821 2.114 . S
O827 C822 1.166 . S
O828 Zn820 1.905 . S
O828 C822 1.182 . S
O829 Zn820 1.898 . S
O829 C823 1.167 . S
O830 Zn821 2.120 . S
O830 C823 1.299 . S
O831 Zn819 1.898 . S
O831 C826 1.167 . S
O832 Zn821 2.120 . S
O832 C826 1.299 . S
O833 Zn821 2.114 . S
O833 C835 1.166 . S
O834 Zn819 1.905 . S
O834 C835 1.182 . S
C835 O833 1.166 . S
C835 O834 1.182 . S
O836 Zn821 2.080 . S
O836 C839 1.305 . S
O837 Zn820 1.920 . S
O837 C839 1.234 . S
C838 O824 1.305 . S
C838 O825 1.234 . S
C839 O836 1.305 . S
C839 O837 1.234 . S
Zn840 O846 1.920 . S
Zn840 O852 1.898 . S
Zn840 O855 1.905 . S
Zn841 O849 1.905 . S
Zn841 O850 1.898 . S
Zn841 O858 1.920 . S
Zn842 O845 2.080 . S
Zn842 O848 2.114 . S
Zn842 O851 2.120 . S
Zn842 O853 2.120 . S
Zn842 O854 2.114 . S
Zn842 O857 2.080 . S
C843 O848 1.166 . S
C843 O849 1.182 . S
C844 O850 1.167 . S
C844 O851 1.299 . S
O845 Zn842 2.080 . S
O845 C859 1.305 . S
O846 Zn840 1.920 . S
O846 C859 1.234 . S
C847 O852 1.167 . S
C847 O853 1.299 . S
O848 Zn842 2.114 . S
O848 C843 1.166 . S
O849 Zn841 1.905 . S
O849 C843 1.182 . S
O850 Zn841 1.898 . S
O850 C844 1.167 . S
O851 Zn842 2.120 . S
O851 C844 1.299 . S
O852 Zn840 1.898 . S
O852 C847 1.167 . S
O853 Zn842 2.120 . S
O853 C847 1.299 . S
O854 Zn842 2.114 . S
O854 C856 1.166 . S
O855 Zn840 1.905 . S
O855 C856 1.182 . S
C856 O854 1.166 . S
C856 O855 1.182 . S
O857 Zn842 2.080 . S
O857 C860 1.305 . S
O858 Zn841 1.920 . S
O858 C860 1.234 . S
C859 O845 1.305 . S
C859 O846 1.234 . S
C860 O857 1.305 . S
C860 O858 1.234 . S
Zn861 O867 1.920 . S
Zn861 O873 1.898 . S
Zn861 O876 1.905 . S
Zn862 O870 1.905 . S
Zn862 O871 1.898 . S
Zn862 O879 1.920 . S
Zn863 O866 2.080 . S
Zn863 O869 2.114 . S
Zn863 O872 2.120 . S
Zn863 O874 2.120 . S
Zn863 O875 2.114 . S
Zn863 O878 2.080 . S
C864 O869 1.166 . S
C864 O870 1.182 . S
C865 O871 1.167 . S
C865 O872 1.299 . S
O866 Zn863 2.080 . S
O866 C880 1.305 . S
O867 Zn861 1.920 . S
O867 C880 1.234 . S
C868 O873 1.167 . S
C868 O874 1.299 . S
O869 Zn863 2.114 . S
O869 C864 1.166 . S
O870 Zn862 1.905 . S
O870 C864 1.182 . S
O871 Zn862 1.898 . S
O871 C865 1.167 . S
O872 Zn863 2.120 . S
O872 C865 1.299 . S
O873 Zn861 1.898 . S
O873 C868 1.167 . S
O874 Zn863 2.120 . S
O874 C868 1.299 . S
O875 Zn863 2.114 . S
O875 C877 1.166 . S
O876 Zn861 1.905 . S
O876 C877 1.182 . S
C877 O875 1.166 . S
C877 O876 1.182 . S
O878 Zn863 2.080 . S
O878 C881 1.305 . S
O879 Zn862 1.920 . S
O879 C881 1.234 . S
C880 O866 1.305 . S
C880 O867 1.234 . S
C881 O878 1.305 . S
C881 O879 1.234 . S
Zn882 O888 1.920 . S
Zn882 O894 1.898 . S
Zn882 O897 1.905 . S
Zn883 O891 1.905 . S
Zn883 O892 1.898 . S
Zn883 O900 1.920 . S
Zn884 O887 2.080 . S
Zn884 O890 2.114 . S
Zn884 O893 2.120 . S
Zn884 O895 2.120 . S
Zn884 O896 2.114 . S
Zn884 O899 2.080 . S
C885 O890 1.166 . S
C885 O891 1.182 . S
C886 O892 1.167 . S
C886 O893 1.299 . S
O887 Zn884 2.080 . S
O887 C901 1.305 . S
O888 Zn882 1.920 . S
O888 C901 1.234 . S
C889 O894 1.167 . S
C889 O895 1.299 . S
O890 Zn884 2.114 . S
O890 C885 1.166 . S
O891 Zn883 1.905 . S
O891 C885 1.182 . S
O892 Zn883 1.898 . S
O892 C886 1.167 . S
O893 Zn884 2.120 . S
O893 C886 1.299 . S
O894 Zn882 1.898 . S
O894 C889 1.167 . S
O895 Zn884 2.120 . S
O895 C889 1.299 . S
O896 Zn884 2.114 . S
O896 C898 1.166 . S
O897 Zn882 1.905 . S
O897 C898 1.182 . S
C898 O896 1.166 . S
C898 O897 1.182 . S
O899 Zn884 2.080 . S
O899 C902 1.305 . S
O900 Zn883 1.920 . S
O900 C902 1.234 . S
C901 O887 1.305 . S
C901 O888 1.234 . S
C902 O899 1.305 . S
C902 O900 1.234 . S
Zn903 O909 1.920 . S
Zn903 O915 1.898 . S
Zn903 O918 1.905 . S
Zn904 O912 1.905 . S
Zn904 O913 1.898 . S
Zn904 O921 1.920 . S
Zn905 O908 2.080 . S
Zn905 O911 2.114 . S
Zn905 O914 2.120 . S
Zn905 O916 2.120 . S
Zn905 O917 2.114 . S
Zn905 O920 2.080 . S
C906 O911 1.166 . S
C906 O912 1.182 . S
C907 O913 1.167 . S
C907 O914 1.299 . S
O908 Zn905 2.080 . S
O908 C922 1.305 . S
O909 Zn903 1.920 . S
O909 C922 1.234 . S
C910 O915 1.167 . S
C910 O916 1.299 . S
O911 Zn905 2.114 . S
O911 C906 1.166 . S
O912 Zn904 1.905 . S
O912 C906 1.182 . S
O913 Zn904 1.898 . S
O913 C907 1.167 . S
O914 Zn905 2.120 . S
O914 C907 1.299 . S
O915 Zn903 1.898 . S
O915 C910 1.167 . S
O916 Zn905 2.120 . S
O916 C910 1.299 . S
O917 Zn905 2.114 . S
O917 C919 1.166 . S
O918 Zn903 1.905 . S
O918 C919 1.182 . S
C919 O917 1.166 . S
C919 O918 1.182 . S
O920 Zn905 2.080 . S
O920 C923 1.305 . S
O921 Zn904 1.920 . S
O921 C923 1.234 . S
C922 O908 1.305 . S
C922 O909 1.234 . S
C923 O920 1.305 . S
C923 O921 1.234 . S
Zn924 O930 1.920 . S
Zn924 O936 1.898 . S
Zn924 O939 1.905 . S
Zn925 O933 1.905 . S
Zn925 O934 1.898 . S
Zn925 O942 1.920 . S
Zn926 O929 2.080 . S
Zn926 O932 2.114 . S
Zn926 O935 2.120 . S
Zn926 O937 2.120 . S
Zn926 O938 2.114 . S
Zn926 O941 2.080 . S
C927 O932 1.166 . S
C927 O933 1.182 . S
C928 O934 1.167 . S
C928 O935 1.299 . S
O929 Zn926 2.080 . S
O929 C943 1.305 . S
O930 Zn924 1.920 . S
O930 C943 1.234 . S
C931 O936 1.167 . S
C931 O937 1.299 . S
O932 Zn926 2.114 . S
O932 C927 1.166 . S
O933 Zn925 1.905 . S
O933 C927 1.182 . S
O934 Zn925 1.898 . S
O934 C928 1.167 . S
O935 Zn926 2.120 . S
O935 C928 1.299 . S
O936 Zn924 1.898 . S
O936 C931 1.167 . S
O937 Zn926 2.120 . S
O937 C931 1.299 . S
O938 Zn926 2.114 . S
O938 C940 1.166 . S
O939 Zn924 1.905 . S
O939 C940 1.182 . S
C940 O938 1.166 . S
C940 O939 1.182 . S
O941 Zn926 2.080 . S
O941 C944 1.305 . S
O942 Zn925 1.920 . S
O942 C944 1.234 . S
C943 O929 1.305 . S
C943 O930 1.234 . S
C944 O941 1.305 . S
C944 O942 1.234 . S
Zn945 O951 1.920 . S
Zn945 O957 1.898 . S
Zn945 O960 1.905 . S
Zn946 O954 1.905 . S
Zn946 O955 1.898 . S
Zn946 O963 1.920 . S
Zn947 O950 2.080 . S
Zn947 O953 2.114 . S
Zn947 O956 2.120 . S
Zn947 O958 2.120 . S
Zn947 O959 2.114 . S
Zn947 O962 2.080 . S
C948 O953 1.166 . S
C948 O954 1.182 . S
C949 O955 1.167 . S
C949 O956 1.299 . S
O950 Zn947 2.080 . S
O950 C964 1.305 . S
O951 Zn945 1.920 . S
O951 C964 1.234 . S
C952 O957 1.167 . S
C952 O958 1.299 . S
O953 Zn947 2.114 . S
O953 C948 1.166 . S
O954 Zn946 1.905 . S
O954 C948 1.182 . S
O955 Zn946 1.898 . S
O955 C949 1.167 . S
O956 Zn947 2.120 . S
O956 C949 1.299 . S
O957 Zn945 1.898 . S
O957 C952 1.167 . S
O958 Zn947 2.120 . S
O958 C952 1.299 . S
O959 Zn947 2.114 . S
O959 C961 1.166 . S
O960 Zn945 1.905 . S
O960 C961 1.182 . S
C961 O959 1.166 . S
C961 O960 1.182 . S
O962 Zn947 2.080 . S
O962 C965 1.305 . S
O963 Zn946 1.920 . S
O963 C965 1.234 . S
C964 O950 1.305 . S
C964 O951 1.234 . S
C965 O962 1.305 . S
C965 O963 1.234 . S
Zn966 O972 1.920 . S
Zn966 O978 1.898 . S
Zn966 O981 1.905 . S
Zn967 O975 1.905 . S
Zn967 O976 1.898 . S
Zn967 O984 1.920 . S
Zn968 O971 2.080 . S
Zn968 O974 2.114 . S
Zn968 O977 2.120 . S
Zn968 O979 2.120 . S
Zn968 O980 2.114 . S
Zn968 O983 2.080 . S
C969 O974 1.166 . S
C969 O975 1.182 . S
C970 O976 1.167 . S
C970 O977 1.299 . S
O971 Zn968 2.080 . S
O971 C985 1.305 . S
O972 Zn966 1.920 . S
O972 C985 1.234 . S
C973 O978 1.167 . S
C973 O979 1.299 . S
O974 Zn968 2.114 . S
O974 C969 1.166 . S
O975 Zn967 1.905 . S
O975 C969 1.182 . S
O976 Zn967 1.898 . S
O976 C970 1.167 . S
O977 Zn968 2.120 . S
O977 C970 1.299 . S
O978 Zn966 1.898 . S
O978 C973 1.167 . S
O979 Zn968 2.120 . S
O979 C973 1.299 . S
O980 Zn968 2.114 . S
O980 C982 1.166 . S
O981 Zn966 1.905 . S
O981 C982 1.182 . S
C982 O980 1.166 . S
C982 O981 1.182 . S
O983 Zn968 2.080 . S
O983 C986 1.305 . S
O984 Zn967 1.920 . S
O984 C986 1.234 . S
C985 O971 1.305 . S
C985 O972 1.234 . S
C986 O983 1.305 . S
C986 O984 1.234 . S
Zn987 O993 1.920 . S
Zn987 O999 1.898 . S
Zn987 O1002 1.905 . S
Zn988 O996 1.905 . S
Zn988 O997 1.898 . S
Zn988 O1005 1.920 . S
Zn989 O992 2.080 . S
Zn989 O995 2.114 . S
Zn989 O998 2.120 . S
Zn989 O1000 2.120 . S
Zn989 O1001 2.114 . S
Zn989 O1004 2.080 . S
C990 O995 1.166 . S
C990 O996 1.182 . S
C991 O997 1.167 . S
C991 O998 1.299 . S
O992 Zn989 2.080 . S
O992 C1006 1.305 . S
O993 Zn987 1.920 . S
O993 C1006 1.234 . S
C994 O999 1.167 . S
C994 O1000 1.299 . S
O995 Zn989 2.114 . S
O995 C990 1.166 . S
O996 Zn988 1.905 . S
O996 C990 1.182 . S
O997 Zn988 1.898 . S
O997 C991 1.167 . S
O998 Zn989 2.120 . S
O998 C991 1.299 . S
O999 Zn987 1.898 . S
O999 C994 1.167 . S
O1000 Zn989 2.120 . S
O1000 C994 1.299 . S
O1001 Zn989 2.114 . S
O1001 C1003 1.166 . S
O1002 Zn987 1.905 . S
O1002 C1003 1.182 . S
C1003 O1001 1.166 . S
C1003 O1002 1.182 . S
O1004 Zn989 2.080 . S
O1004 C1007 1.305 . S
O1005 Zn988 1.920 . S
O1005 C1007 1.234 . S
C1006 O992 1.305 . S
C1006 O993 1.234 . S
C1007 O1004 1.305 . S
C1007 O1005 1.234 . S
C1008 C1009 1.369 1_655 S
C1008 C1010 1.419 . S
C1008 H1012 0.930 . S
C1009 C1008 1.369 1_455 S
C1009 C1018 1.429 . S
C1010 C1008 1.419 . S
C1010 C1011 1.363 1_655 S
C1010 H1013 0.929 . S
C1011 C1010 1.363 1_455 S
C1011 C1017 1.428 . S
H1012 C1008 0.930 . S
H1013 C1010 0.929 . S
S1014 N1015 1.613 . S
S1014 N1016 1.610 . S
N1015 S1014 1.613 . S
N1015 C1018 1.350 . S
N1016 S1014 1.610 . S
N1016 C1017 1.351 . S
C1017 C1011 1.428 . S
C1017 N1016 1.351 . S
C1017 C1018 1.434 . S
C1018 C1009 1.429 . S
C1018 N1015 1.350 . S
C1018 C1017 1.434 . S
C1019 C1020 1.369 . S
C1019 C1021 1.419 . S
C1019 H1023 0.930 . S
C1020 C1019 1.369 . S
C1020 C1029 1.429 1_545 S
C1021 C1019 1.419 . S
C1021 C1022 1.363 . S
C1021 H1024 0.929 . S
C1022 C1021 1.363 . S
C1022 C1028 1.428 1_545 S
H1023 C1019 0.930 . S
H1024 C1021 0.929 . S
S1025 N1026 1.613 . S
S1025 N1027 1.610 . S
N1026 S1025 1.613 . S
N1026 C1029 1.350 . S
N1027 S1025 1.610 . S
N1027 C1028 1.351 . S
C1028 C1022 1.428 1_565 S
C1028 N1027 1.351 . S
C1028 C1029 1.434 . S
C1029 C1020 1.429 1_565 S
C1029 N1026 1.350 . S
C1029 C1028 1.434 . S
C1030 C1031 1.369 . S
C1030 C1032 1.419 . S
C1030 H1034 0.930 . S
C1031 C1030 1.369 . S
C1031 C1040 1.430 . S
C1032 C1030 1.419 . S
C1032 C1033 1.363 . S
C1032 H1035 0.929 . S
C1033 C1032 1.363 . S
C1033 C1039 1.428 . S
H1034 C1030 0.930 . S
H1035 C1032 0.929 . S
S1036 N1037 1.613 . S
S1036 N1038 1.610 . S
N1037 S1036 1.613 . S
N1037 C1040 1.348 1_655 S
N1038 S1036 1.610 . S
N1038 C1039 1.351 1_655 S
C1039 C1033 1.428 . S
C1039 N1038 1.351 1_455 S
C1039 C1040 1.435 . S
C1040 C1031 1.430 . S
C1040 N1037 1.348 1_455 S
C1040 C1039 1.435 . S
C1041 C1042 1.369 1_565 S
C1041 C1043 1.419 . S
C1041 H1045 0.930 . S
C1042 C1041 1.369 1_545 S
C1042 C1051 1.429 . S
C1043 C1041 1.419 . S
C1043 C1044 1.363 1_565 S
C1043 H1046 0.929 . S
C1044 C1043 1.363 1_545 S
C1044 C1050 1.428 . S
H1045 C1041 0.930 . S
H1046 C1043 0.929 . S
S1047 N1048 1.613 . S
S1047 N1049 1.610 . S
N1048 S1047 1.613 . S
N1048 C1051 1.350 . S
N1049 S1047 1.610 . S
N1049 C1050 1.351 . S
C1050 C1044 1.428 . S
C1050 N1049 1.351 . S
C1050 C1051 1.434 . S
C1051 C1042 1.429 . S
C1051 N1048 1.350 . S
C1051 C1050 1.434 . S
C1052 C1053 1.369 1_565 S
C1052 C1054 1.419 . S
C1052 H1056 0.930 . S
C1053 C1052 1.369 1_545 S
C1053 C1062 1.429 . S
C1054 C1052 1.419 . S
C1054 C1055 1.363 1_565 S
C1054 H1057 0.929 . S
C1055 C1054 1.363 1_545 S
C1055 C1061 1.428 . S
H1056 C1052 0.930 . S
H1057 C1054 0.929 . S
S1058 N1059 1.613 . S
S1058 N1060 1.610 . S
N1059 S1058 1.613 . S
N1059 C1062 1.350 . S
N1060 S1058 1.610 . S
N1060 C1061 1.351 . S
C1061 C1055 1.428 . S
C1061 N1060 1.351 . S
C1061 C1062 1.434 . S
C1062 C1053 1.429 . S
C1062 N1059 1.350 . S
C1062 C1061 1.434 . S
C1063 C1064 1.369 . S
C1063 C1065 1.419 . S
C1063 H1067 0.930 1_455 S
C1064 C1063 1.369 . S
C1064 C1073 1.429 . S
C1065 C1063 1.419 . S
C1065 C1066 1.363 . S
C1065 H1068 0.929 1_455 S
C1066 C1065 1.363 . S
C1066 C1072 1.428 . S
H1067 C1063 0.930 1_655 S
H1068 C1065 0.929 1_655 S
S1069 N1070 1.613 . S
S1069 N1071 1.610 . S
N1070 S1069 1.613 . S
N1070 C1073 1.350 . S
N1071 S1069 1.610 . S
N1071 C1072 1.351 . S
C1072 C1066 1.428 . S
C1072 N1071 1.351 . S
C1072 C1073 1.434 . S
C1073 C1064 1.429 . S
C1073 N1070 1.350 . S
C1073 C1072 1.434 . S
C1074 C1075 1.369 1_565 S
C1074 C1076 1.419 . S
C1074 H1078 0.930 . S
C1075 C1074 1.369 1_545 S
C1075 C1084 1.429 . S
C1076 C1074 1.419 . S
C1076 C1077 1.363 1_565 S
C1076 H1079 0.929 . S
C1077 C1076 1.363 1_545 S
C1077 C1083 1.428 . S
H1078 C1074 0.930 . S
H1079 C1076 0.929 . S
S1080 N1081 1.613 . S
S1080 N1082 1.610 . S
N1081 S1080 1.613 . S
N1081 C1084 1.350 . S
N1082 S1080 1.610 . S
N1082 C1083 1.351 . S
C1083 C1077 1.428 . S
C1083 N1082 1.351 . S
C1083 C1084 1.434 . S
C1084 C1075 1.429 . S
C1084 N1081 1.350 . S
C1084 C1083 1.434 . S
C1085 C1086 1.369 . S
C1085 C1087 1.419 . S
C1085 H1089 0.930 . S
C1086 C1085 1.369 . S
C1086 C1095 1.429 . S
C1087 C1085 1.419 . S
C1087 C1088 1.363 . S
C1087 H1090 0.929 . S
C1088 C1087 1.363 . S
C1088 C1094 1.428 . S
H1089 C1085 0.930 . S
H1090 C1087 0.929 . S
S1091 N1092 1.613 . S
S1091 N1093 1.610 . S
N1092 S1091 1.613 . S
N1092 C1095 1.350 . S
N1093 S1091 1.610 . S
N1093 C1094 1.351 . S
C1094 C1088 1.428 . S
C1094 N1093 1.351 . S
C1094 C1095 1.434 . S
C1095 C1086 1.429 . S
C1095 N1092 1.350 . S
C1095 C1094 1.434 . S
C1096 C1097 1.369 . S
C1096 C1098 1.419 . S
C1096 H1100 0.930 . S
C1097 C1096 1.369 . S
C1097 C1106 1.429 1_554 S
C1098 C1096 1.419 . S
C1098 C1099 1.363 . S
C1098 H1101 0.929 . S
C1099 C1098 1.363 . S
C1099 C1105 1.428 1_554 S
H1100 C1096 0.930 . S
H1101 C1098 0.929 . S
S1102 N1103 1.613 . S
S1102 N1104 1.610 . S
N1103 S1102 1.613 . S
N1103 C1106 1.350 . S
N1104 S1102 1.610 . S
N1104 C1105 1.351 . S
C1105 C1099 1.428 1_556 S
C1105 N1104 1.351 . S
C1105 C1106 1.434 . S
C1106 C1097 1.429 1_556 S
C1106 N1103 1.350 . S
C1106 C1105 1.434 . S
C1107 C1108 1.369 . S
C1107 C1109 1.419 . S
C1107 H1111 0.930 . S
C1108 C1107 1.369 . S
C1108 C1117 1.429 . S
C1109 C1107 1.419 . S
C1109 C1110 1.363 . S
C1109 H1112 0.929 . S
C1110 C1109 1.363 . S
C1110 C1116 1.428 . S
H1111 C1107 0.930 . S
H1112 C1109 0.929 . S
S1113 N1114 1.613 . S
S1113 N1115 1.610 . S
N1114 S1113 1.613 . S
N1114 C1117 1.350 . S
N1115 S1113 1.610 . S
N1115 C1116 1.351 . S
C1116 C1110 1.428 . S
C1116 N1115 1.351 . S
C1116 C1117 1.434 . S
C1117 C1108 1.429 . S
C1117 N1114 1.350 . S
C1117 C1116 1.434 . S
C1118 C1119 1.369 1_556 S
C1118 C1120 1.419 . S
C1118 H1122 0.930 . S
C1119 C1118 1.369 1_554 S
C1119 C1128 1.429 . S
C1120 C1118 1.419 . S
C1120 C1121 1.363 1_556 S
C1120 H1123 0.929 . S
C1121 C1120 1.363 1_554 S
C1121 C1127 1.428 . S
H1122 C1118 0.930 . S
H1123 C1120 0.929 . S
S1124 N1125 1.613 . S
S1124 N1126 1.610 . S
N1125 S1124 1.613 . S
N1125 C1128 1.350 . S
N1126 S1124 1.610 . S
N1126 C1127 1.351 . S
C1127 C1121 1.428 . S
C1127 N1126 1.351 . S
C1127 C1128 1.434 . S
C1128 C1119 1.429 . S
C1128 N1125 1.350 . S
C1128 C1127 1.434 . S
C1129 C1130 1.369 1_556 S
C1129 C1131 1.419 . S
C1129 H1133 0.930 . S
C1130 C1129 1.369 1_554 S
C1130 C1139 1.429 . S
C1131 C1129 1.419 . S
C1131 C1132 1.363 1_556 S
C1131 H1134 0.929 . S
C1132 C1131 1.363 1_554 S
C1132 C1138 1.428 . S
H1133 C1129 0.930 . S
H1134 C1131 0.929 . S
S1135 N1136 1.613 . S
S1135 N1137 1.610 . S
N1136 S1135 1.613 . S
N1136 C1139 1.350 . S
N1137 S1135 1.610 . S
N1137 C1138 1.351 . S
C1138 C1132 1.428 . S
C1138 N1137 1.351 . S
C1138 C1139 1.434 . S
C1139 C1130 1.429 . S
C1139 N1136 1.350 . S
C1139 C1138 1.434 . S
C1140 C1141 1.369 . S
C1140 C1142 1.419 1_556 S
C1140 H1144 0.930 . S
C1141 C1140 1.369 . S
C1141 C1150 1.429 . S
C1142 C1140 1.419 1_554 S
C1142 C1143 1.363 . S
C1142 H1145 0.929 . S
C1143 C1142 1.363 . S
C1143 C1149 1.428 . S
H1144 C1140 0.930 . S
H1145 C1142 0.929 . S
S1146 N1147 1.613 1_554 S
S1146 N1148 1.610 . S
N1147 S1146 1.613 1_556 S
N1147 C1150 1.350 . S
N1148 S1146 1.610 . S
N1148 C1149 1.351 . S
C1149 C1143 1.428 . S
C1149 N1148 1.351 . S
C1149 C1150 1.434 1_554 S
C1150 C1141 1.429 . S
C1150 N1147 1.350 . S
C1150 C1149 1.434 1_556 S
C1151 C1152 1.369 . S
C1151 C1153 1.419 1_556 S
C1151 H1155 0.930 . S
C1152 C1151 1.369 . S
C1152 C1161 1.429 . S
C1153 C1151 1.419 1_554 S
C1153 C1154 1.363 . S
C1153 H1156 0.929 . S
C1154 C1153 1.363 . S
C1154 C1160 1.428 . S
H1155 C1151 0.930 . S
H1156 C1153 0.929 . S
S1157 N1158 1.613 1_554 S
S1157 N1159 1.610 . S
N1158 S1157 1.613 1_556 S
N1158 C1161 1.350 . S
N1159 S1157 1.610 . S
N1159 C1160 1.351 . S
C1160 C1154 1.428 . S
C1160 N1159 1.351 . S
C1160 C1161 1.434 1_554 S
C1161 C1152 1.429 . S
C1161 N1158 1.350 . S
C1161 C1160 1.434 1_556 S
C1162 C1163 1.369 . S
C1162 C1164 1.419 1_556 S
C1162 H1166 0.930 . S
C1163 C1162 1.369 . S
C1163 C1172 1.429 . S
C1164 C1162 1.419 1_554 S
C1164 C1165 1.363 . S
C1164 H1167 0.929 . S
C1165 C1164 1.363 . S
C1165 C1171 1.428 . S
H1166 C1162 0.930 . S
H1167 C1164 0.929 . S
S1168 N1169 1.613 1_554 S
S1168 N1170 1.610 . S
N1169 S1168 1.613 1_556 S
N1169 C1172 1.350 . S
N1170 S1168 1.610 . S
N1170 C1171 1.351 . S
C1171 C1165 1.428 . S
C1171 N1170 1.351 . S
C1171 C1172 1.434 1_554 S
C1172 C1163 1.429 . S
C1172 N1169 1.350 . S
C1172 C1171 1.434 1_556 S
C1173 C1174 1.369 . S
C1173 C1175 1.419 1_556 S
C1173 H1177 0.930 . S
C1174 C1173 1.369 . S
C1174 C1183 1.429 . S
C1175 C1173 1.419 1_554 S
C1175 C1176 1.363 . S
C1175 H1178 0.929 . S
C1176 C1175 1.363 . S
C1176 C1182 1.428 . S
H1177 C1173 0.930 . S
H1178 C1175 0.929 . S
S1179 N1180 1.613 1_554 S
S1179 N1181 1.610 . S
N1180 S1179 1.613 1_556 S
N1180 C1183 1.350 . S
N1181 S1179 1.610 . S
N1181 C1182 1.351 . S
C1182 C1176 1.428 . S
C1182 N1181 1.351 . S
C1182 C1183 1.434 1_554 S
C1183 C1174 1.429 . S
C1183 N1180 1.350 . S
C1183 C1182 1.434 1_556 S
C1184 C1185 1.369 . S
C1184 C1186 1.419 1_655 S
C1184 H1188 0.930 . S
C1185 C1184 1.369 . S
C1185 C1194 1.429 . S
C1186 C1184 1.419 1_455 S
C1186 C1187 1.363 . S
C1186 H1189 0.929 . S
C1187 C1186 1.363 . S
C1187 C1193 1.428 . S
H1188 C1184 0.930 . S
H1189 C1186 0.929 . S
S1190 N1191 1.613 1_455 S
S1190 N1192 1.610 . S
N1191 S1190 1.613 1_655 S
N1191 C1194 1.350 . S
N1192 S1190 1.610 . S
N1192 C1193 1.351 . S
C1193 C1187 1.428 . S
C1193 N1192 1.351 . S
C1193 C1194 1.434 1_455 S
C1194 C1185 1.429 . S
C1194 N1191 1.350 . S
C1194 C1193 1.434 1_655 S
C1195 C1196 1.369 . S
C1195 C1197 1.419 1_565 S
C1195 H1199 0.930 . S
C1196 C1195 1.369 . S
C1196 C1205 1.429 . S
C1197 C1195 1.419 1_545 S
C1197 C1198 1.363 . S
C1197 H1200 0.929 . S
C1198 C1197 1.363 . S
C1198 C1204 1.428 . S
H1199 C1195 0.930 . S
H1200 C1197 0.929 . S
S1201 N1202 1.613 1_545 S
S1201 N1203 1.610 . S
N1202 S1201 1.613 1_565 S
N1202 C1205 1.350 . S
N1203 S1201 1.610 . S
N1203 C1204 1.351 . S
C1204 C1198 1.428 . S
C1204 N1203 1.351 . S
C1204 C1205 1.434 1_545 S
C1205 C1196 1.429 . S
C1205 N1202 1.350 . S
C1205 C1204 1.434 1_565 S
C1206 C1207 1.369 . S
C1206 C1208 1.419 1_655 S
C1206 H1210 0.930 . S
C1207 C1206 1.369 . S
C1207 C1216 1.429 . S
C1208 C1206 1.419 1_455 S
C1208 C1209 1.363 . S
C1208 H1211 0.929 . S
C1209 C1208 1.363 . S
C1209 C1215 1.428 . S
H1210 C1206 0.930 . S
H1211 C1208 0.929 . S
S1212 N1213 1.613 1_455 S
S1212 N1214 1.610 . S
N1213 S1212 1.613 1_655 S
N1213 C1216 1.350 . S
N1214 S1212 1.610 . S
N1214 C1215 1.351 . S
C1215 C1209 1.428 . S
C1215 N1214 1.351 . S
C1215 C1216 1.434 1_455 S
C1216 C1207 1.429 . S
C1216 N1213 1.350 . S
C1216 C1215 1.434 1_655 S
C1217 C1218 1.369 . S
C1217 C1219 1.419 1_545 S
C1217 H1221 0.930 . S
C1218 C1217 1.369 . S
C1218 C1227 1.429 . S
C1219 C1217 1.419 1_565 S
C1219 C1220 1.363 . S
C1219 H1222 0.929 . S
C1220 C1219 1.363 . S
C1220 C1226 1.428 . S
H1221 C1217 0.930 . S
H1222 C1219 0.929 . S
S1223 N1224 1.613 . S
S1223 N1225 1.610 1_545 S
N1224 S1223 1.613 . S
N1224 C1227 1.350 . S
N1225 S1223 1.610 1_565 S
N1225 C1226 1.351 . S
C1226 C1220 1.428 . S
C1226 N1225 1.351 . S
C1226 C1227 1.434 1_565 S
C1227 C1218 1.429 . S
C1227 N1224 1.350 . S
C1227 C1226 1.434 1_545 S
C1228 C1229 1.369 . S
C1228 C1230 1.419 1_565 S
C1228 H1232 0.930 . S
C1229 C1228 1.369 . S
C1229 C1238 1.429 . S
C1230 C1228 1.419 1_545 S
C1230 C1231 1.363 . S
C1230 H1233 0.929 . S
C1231 C1230 1.363 . S
C1231 C1237 1.428 . S
H1232 C1228 0.930 . S
H1233 C1230 0.929 . S
S1234 N1235 1.613 1_545 S
S1234 N1236 1.610 . S
N1235 S1234 1.613 1_565 S
N1235 C1238 1.350 . S
N1236 S1234 1.610 . S
N1236 C1237 1.351 . S
C1237 C1231 1.428 . S
C1237 N1236 1.351 . S
C1237 C1238 1.434 1_545 S
C1238 C1229 1.429 . S
C1238 N1235 1.350 . S
C1238 C1237 1.434 1_565 S
C1239 C1240 1.369 . S
C1239 C1241 1.419 1_455 S
C1239 H1243 0.930 . S
C1240 C1239 1.369 . S
C1240 C1249 1.429 . S
C1241 C1239 1.419 1_655 S
C1241 C1242 1.363 . S
C1241 H1244 0.929 . S
C1242 C1241 1.363 . S
C1242 C1248 1.428 . S
H1243 C1239 0.930 . S
H1244 C1241 0.929 . S
S1245 N1246 1.613 . S
S1245 N1247 1.610 1_455 S
N1246 S1245 1.613 . S
N1246 C1249 1.350 . S
N1247 S1245 1.610 1_655 S
N1247 C1248 1.351 . S
C1248 C1242 1.428 . S
C1248 N1247 1.351 . S
C1248 C1249 1.434 1_655 S
C1249 C1240 1.429 . S
C1249 N1246 1.350 . S
C1249 C1248 1.434 1_455 S
C1250 C1251 1.369 . S
C1250 C1252 1.419 1_565 S
C1250 H1254 0.930 . S
C1251 C1250 1.369 . S
C1251 C1260 1.429 . S
C1252 C1250 1.419 1_545 S
C1252 C1253 1.363 . S
C1252 H1255 0.929 . S
C1253 C1252 1.363 . S
C1253 C1259 1.428 . S
H1254 C1250 0.930 . S
H1255 C1252 0.929 . S
S1256 N1257 1.613 1_545 S
S1256 N1258 1.610 . S
N1257 S1256 1.613 1_565 S
N1257 C1260 1.350 . S
N1258 S1256 1.610 . S
N1258 C1259 1.351 . S
C1259 C1253 1.428 . S
C1259 N1258 1.351 . S
C1259 C1260 1.434 1_545 S
C1260 C1251 1.429 . S
C1260 N1257 1.350 . S
C1260 C1259 1.434 1_565 S
C1261 C1262 1.369 . S
C1261 C1263 1.419 1_455 S
C1261 H1265 0.930 . S
C1262 C1261 1.369 . S
C1262 C1271 1.429 . S
C1263 C1261 1.419 1_655 S
C1263 C1264 1.363 . S
C1263 H1266 0.929 . S
C1264 C1263 1.363 . S
C1264 C1270 1.428 . S
H1265 C1261 0.930 . S
H1266 C1263 0.929 . S
S1267 N1268 1.613 . S
S1267 N1269 1.610 1_455 S
N1268 S1267 1.613 . S
N1268 C1271 1.350 . S
N1269 S1267 1.610 1_655 S
N1269 C1270 1.351 . S
C1270 C1264 1.428 . S
C1270 N1269 1.351 . S
C1270 C1271 1.434 1_655 S
C1271 C1262 1.429 . S
C1271 N1268 1.350 . S
C1271 C1270 1.434 1_455 S
C1272 C1273 1.369 1_655 S
C1272 C1274 1.419 . S
C1272 H1276 0.930 . S
C1273 C1272 1.369 1_455 S
C1273 C1282 1.429 . S
C1274 C1272 1.419 . S
C1274 C1275 1.363 1_655 S
C1274 H1277 0.929 . S
C1275 C1274 1.363 1_455 S
C1275 C1281 1.428 . S
H1276 C1272 0.930 . S
H1277 C1274 0.929 . S
S1278 N1279 1.613 . S
S1278 N1280 1.610 . S
N1279 S1278 1.613 . S
N1279 C1282 1.350 . S
N1280 S1278 1.610 . S
N1280 C1281 1.351 . S
C1281 C1275 1.428 . S
C1281 N1280 1.351 . S
C1281 C1282 1.434 . S
C1282 C1273 1.429 . S
C1282 N1279 1.350 . S
C1282 C1281 1.434 . S
C1283 C1284 1.369 1_565 S
C1283 C1285 1.419 . S
C1283 H1287 0.930 . S
C1284 C1283 1.369 1_545 S
C1284 C1293 1.429 . S
C1285 C1283 1.419 . S
C1285 C1286 1.363 1_565 S
C1285 H1288 0.929 . S
C1286 C1285 1.363 1_545 S
C1286 C1292 1.428 . S
H1287 C1283 0.930 . S
H1288 C1285 0.929 . S
S1289 N1290 1.613 . S
S1289 N1291 1.610 . S
N1290 S1289 1.613 . S
N1290 C1293 1.350 . S
N1291 S1289 1.610 . S
N1291 C1292 1.351 . S
C1292 C1286 1.428 . S
C1292 N1291 1.351 . S
C1292 C1293 1.434 . S
C1293 C1284 1.429 . S
C1293 N1290 1.350 . S
C1293 C1292 1.434 . S
C1294 C1295 1.369 . S
C1294 C1296 1.419 . S
C1294 H1298 0.930 . S
C1295 C1294 1.369 . S
C1295 C1304 1.429 1_455 S
C1296 C1294 1.419 . S
C1296 C1297 1.363 . S
C1296 H1299 0.929 . S
C1297 C1296 1.363 . S
C1297 C1303 1.428 1_455 S
H1298 C1294 0.930 . S
H1299 C1296 0.929 . S
S1300 N1301 1.613 . S
S1300 N1302 1.610 . S
N1301 S1300 1.613 . S
N1301 C1304 1.350 . S
N1302 S1300 1.610 . S
N1302 C1303 1.351 . S
C1303 C1297 1.428 1_655 S
C1303 N1302 1.351 . S
C1303 C1304 1.434 . S
C1304 C1295 1.429 1_655 S
C1304 N1301 1.350 . S
C1304 C1303 1.434 . S
C1305 C1306 1.369 . S
C1305 C1307 1.419 . S
C1305 H1309 0.930 . S
C1306 C1305 1.369 . S
C1306 C1315 1.429 . S
C1307 C1305 1.419 . S
C1307 C1308 1.363 . S
C1307 H1310 0.929 . S
C1308 C1307 1.363 . S
C1308 C1314 1.428 . S
H1309 C1305 0.930 . S
H1310 C1307 0.929 . S
S1311 N1312 1.613 . S
S1311 N1313 1.610 . S
N1312 S1311 1.613 . S
N1312 C1315 1.350 . S
N1313 S1311 1.610 . S
N1313 C1314 1.351 . S
C1314 C1308 1.428 . S
C1314 N1313 1.351 . S
C1314 C1315 1.434 . S
C1315 C1306 1.429 . S
C1315 N1312 1.350 . S
C1315 C1314 1.434 . S
C1316 C1317 1.369 . S
C1316 C1318 1.419 . S
C1316 H1320 0.930 . S
C1317 C1316 1.369 . S
C1317 C1326 1.429 1_455 S
C1318 C1316 1.419 . S
C1318 C1319 1.363 . S
C1318 H1321 0.929 . S
C1319 C1318 1.363 . S
C1319 C1325 1.428 1_455 S
H1320 C1316 0.930 . S
H1321 C1318 0.929 . S
S1322 N1323 1.613 . S
S1322 N1324 1.610 . S
N1323 S1322 1.613 . S
N1323 C1326 1.350 . S
N1324 S1322 1.610 . S
N1324 C1325 1.351 . S
C1325 C1319 1.428 1_655 S
C1325 N1324 1.351 . S
C1325 C1326 1.434 . S
C1326 C1317 1.429 1_655 S
C1326 N1323 1.350 . S
C1326 C1325 1.434 . S
C1327 C1328 1.369 . S
C1327 C1329 1.419 . S
C1327 H1331 0.930 . S
C1328 C1327 1.369 . S
C1328 C1337 1.429 1_545 S
C1329 C1327 1.419 . S
C1329 C1330 1.363 . S
C1329 H1332 0.929 . S
C1330 C1329 1.363 . S
C1330 C1336 1.428 1_545 S
H1331 C1327 0.930 . S
H1332 C1329 0.929 . S
S1333 N1334 1.613 . S
S1333 N1335 1.610 . S
N1334 S1333 1.613 . S
N1334 C1337 1.350 . S
N1335 S1333 1.610 . S
N1335 C1336 1.351 . S
C1336 C1330 1.428 1_565 S
C1336 N1335 1.351 . S
C1336 C1337 1.434 . S
C1337 C1328 1.429 1_565 S
C1337 N1334 1.350 . S
C1337 C1336 1.434 . S
C1338 C1339 1.369 . S
C1338 C1340 1.419 . S
C1338 H1342 0.930 . S
C1339 C1338 1.369 . S
C1339 C1348 1.429 1_455 S
C1340 C1338 1.419 . S
C1340 C1341 1.363 . S
C1340 H1343 0.929 . S
C1341 C1340 1.363 . S
C1341 C1347 1.428 1_455 S
H1342 C1338 0.930 . S
H1343 C1340 0.929 . S
S1344 N1345 1.613 . S
S1344 N1346 1.610 . S
N1345 S1344 1.613 . S
N1345 C1348 1.350 . S
N1346 S1344 1.610 . S
N1346 C1347 1.351 . S
C1347 C1341 1.428 1_655 S
C1347 N1346 1.351 . S
C1347 C1348 1.434 . S
C1348 C1339 1.429 1_655 S
C1348 N1345 1.350 . S
C1348 C1347 1.434 . S
C1349 C1350 1.369 1_565 S
C1349 C1351 1.419 . S
C1349 H1353 0.930 . S
C1350 C1349 1.369 1_545 S
C1350 C1359 1.429 . S
C1351 C1349 1.419 . S
C1351 C1352 1.363 1_565 S
C1351 H1354 0.929 . S
C1352 C1351 1.363 1_545 S
C1352 C1358 1.428 . S
H1353 C1349 0.930 . S
H1354 C1351 0.929 . S
S1355 N1356 1.613 . S
S1355 N1357 1.610 . S
N1356 S1355 1.613 . S
N1356 C1359 1.350 . S
N1357 S1355 1.610 . S
N1357 C1358 1.351 . S
C1358 C1352 1.428 . S
C1358 N1357 1.351 . S
C1358 C1359 1.434 . S
C1359 C1350 1.429 . S
C1359 N1356 1.350 . S
C1359 C1358 1.434 . S
C1360 C1361 1.369 . S
C1360 C1362 1.419 . S
C1360 H1364 0.930 . S
C1361 C1360 1.369 . S
C1361 C1370 1.429 1_554 S
C1362 C1360 1.419 . S
C1362 C1363 1.363 . S
C1362 H1365 0.929 . S
C1363 C1362 1.363 . S
C1363 C1369 1.428 1_554 S
H1364 C1360 0.930 . S
H1365 C1362 0.929 . S
S1366 N1367 1.613 . S
S1366 N1368 1.610 . S
N1367 S1366 1.613 . S
N1367 C1370 1.350 . S
N1368 S1366 1.610 . S
N1368 C1369 1.351 . S
C1369 C1363 1.428 1_556 S
C1369 N1368 1.351 . S
C1369 C1370 1.434 . S
C1370 C1361 1.429 1_556 S
C1370 N1367 1.350 . S
C1370 C1369 1.434 . S
C1371 C1372 1.369 1_556 S
C1371 C1373 1.419 . S
C1371 H1375 0.930 . S
C1372 C1371 1.369 1_554 S
C1372 C1381 1.429 . S
C1373 C1371 1.419 . S
C1373 C1374 1.363 1_556 S
C1373 H1376 0.929 . S
C1374 C1373 1.363 1_554 S
C1374 C1380 1.428 . S
H1375 C1371 0.930 . S
H1376 C1373 0.929 . S
S1377 N1378 1.613 . S
S1377 N1379 1.610 . S
N1378 S1377 1.613 . S
N1378 C1381 1.350 . S
N1379 S1377 1.610 . S
N1379 C1380 1.351 . S
C1380 C1374 1.428 . S
C1380 N1379 1.351 . S
C1380 C1381 1.434 . S
C1381 C1372 1.429 . S
C1381 N1378 1.350 . S
C1381 C1380 1.434 . S
C1382 C1383 1.369 . S
C1382 C1384 1.419 . S
C1382 H1386 0.930 . S
C1383 C1382 1.369 . S
C1383 C1392 1.429 1_554 S
C1384 C1382 1.419 . S
C1384 C1385 1.363 . S
C1384 H1387 0.929 . S
C1385 C1384 1.363 . S
C1385 C1391 1.428 1_554 S
H1386 C1382 0.930 . S
H1387 C1384 0.929 . S
S1388 N1389 1.613 . S
S1388 N1390 1.610 . S
N1389 S1388 1.613 . S
N1389 C1392 1.350 . S
N1390 S1388 1.610 . S
N1390 C1391 1.351 . S
C1391 C1385 1.428 1_556 S
C1391 N1390 1.351 . S
C1391 C1392 1.434 . S
C1392 C1383 1.429 1_556 S
C1392 N1389 1.350 . S
C1392 C1391 1.434 . S
C1393 C1394 1.369 . S
C1393 C1395 1.419 . S
C1393 H1397 0.930 1_554 S
C1394 C1393 1.369 . S
C1394 C1403 1.429 . S
C1395 C1393 1.419 . S
C1395 C1396 1.363 . S
C1395 H1398 0.929 . S
C1396 C1395 1.363 . S
C1396 C1402 1.428 . S
H1397 C1393 0.930 1_556 S
H1398 C1395 0.929 . S
S1399 N1400 1.613 . S
S1399 N1401 1.610 . S
N1400 S1399 1.613 . S
N1400 C1403 1.350 . S
N1401 S1399 1.610 . S
N1401 C1402 1.351 . S
C1402 C1396 1.428 . S
C1402 N1401 1.351 . S
C1402 C1403 1.434 . S
C1403 C1394 1.429 . S
C1403 N1400 1.350 . S
C1403 C1402 1.434 . S
C1404 C1405 1.369 . S
C1404 C1406 1.419 . S
C1404 H1408 0.930 . S
C1405 C1404 1.369 . S
C1405 C1414 1.429 . S
C1406 C1404 1.419 . S
C1406 C1407 1.363 . S
C1406 H1409 0.929 . S
C1407 C1406 1.363 . S
C1407 C1413 1.428 . S
H1408 C1404 0.930 . S
H1409 C1406 0.929 . S
S1410 N1411 1.613 . S
S1410 N1412 1.610 . S
N1411 S1410 1.613 . S
N1411 C1414 1.350 . S
N1412 S1410 1.610 . S
N1412 C1413 1.351 . S
C1413 C1407 1.428 . S
C1413 N1412 1.351 . S
C1413 C1414 1.434 . S
C1414 C1405 1.429 . S
C1414 N1411 1.350 . S
C1414 C1413 1.434 . S
C1415 C1416 1.369 . S
C1415 C1417 1.419 . S
C1415 H1419 0.930 . S
C1416 C1415 1.369 . S
C1416 C1425 1.429 . S
C1417 C1415 1.419 . S
C1417 C1418 1.363 . S
C1417 H1420 0.929 . S
C1418 C1417 1.363 . S
C1418 C1424 1.428 . S
H1419 C1415 0.930 . S
H1420 C1417 0.929 . S
S1421 N1422 1.613 . S
S1421 N1423 1.610 . S
N1422 S1421 1.613 . S
N1422 C1425 1.350 . S
N1423 S1421 1.610 . S
N1423 C1424 1.351 . S
C1424 C1418 1.428 . S
C1424 N1423 1.351 . S
C1424 C1425 1.434 . S
C1425 C1416 1.429 . S
C1425 N1422 1.350 . S
C1425 C1424 1.434 . S
C1426 C1427 1.369 . S
C1426 C1428 1.419 . S
C1426 H1430 0.930 . S
C1427 C1426 1.369 . S
C1427 C1436 1.429 . S
C1428 C1426 1.419 . S
C1428 C1429 1.363 . S
C1428 H1431 0.929 . S
C1429 C1428 1.363 . S
C1429 C1435 1.428 . S
H1430 C1426 0.930 . S
H1431 C1428 0.929 . S
S1432 N1433 1.613 . S
S1432 N1434 1.610 . S
N1433 S1432 1.613 . S
N1433 C1436 1.350 . S
N1434 S1432 1.610 . S
N1434 C1435 1.351 . S
C1435 C1429 1.428 . S
C1435 N1434 1.351 . S
C1435 C1436 1.434 . S
C1436 C1427 1.429 . S
C1436 N1433 1.350 . S
C1436 C1435 1.434 . S
C1437 C1438 1.369 . S
C1437 C1439 1.419 . S
C1437 H1441 0.930 . S
C1438 C1437 1.369 . S
C1438 C1447 1.429 . S
C1439 C1437 1.419 . S
C1439 C1440 1.363 . S
C1439 H1442 0.929 . S
C1440 C1439 1.363 . S
C1440 C1446 1.428 . S
H1441 C1437 0.930 . S
H1442 C1439 0.929 . S
S1443 N1444 1.613 . S
S1443 N1445 1.610 . S
N1444 S1443 1.613 . S
N1444 C1447 1.350 . S
N1445 S1443 1.610 . S
N1445 C1446 1.351 . S
C1446 C1440 1.428 . S
C1446 N1445 1.351 . S
C1446 C1447 1.434 . S
C1447 C1438 1.429 . S
C1447 N1444 1.350 . S
C1447 C1446 1.434 . S
C1448 C1449 1.369 . S
C1448 C1450 1.419 . S
C1448 H1452 0.930 . S
C1449 C1448 1.369 . S
C1449 C1458 1.429 . S
C1450 C1448 1.419 . S
C1450 C1451 1.363 . S
C1450 H1453 0.929 . S
C1451 C1450 1.363 . S
C1451 C1457 1.428 . S
H1452 C1448 0.930 . S
H1453 C1450 0.929 . S
S1454 N1455 1.613 . S
S1454 N1456 1.610 . S
N1455 S1454 1.613 . S
N1455 C1458 1.350 . S
N1456 S1454 1.610 . S
N1456 C1457 1.351 . S
C1457 C1451 1.428 . S
C1457 N1456 1.351 . S
C1457 C1458 1.434 . S
C1458 C1449 1.429 . S
C1458 N1455 1.350 . S
C1458 C1457 1.434 . S
C1459 C1460 1.369 . S
C1459 C1461 1.419 . S
C1459 H1463 0.930 . S
C1460 C1459 1.369 . S
C1460 C1469 1.429 . S
C1461 C1459 1.419 . S
C1461 C1462 1.363 . S
C1461 H1464 0.929 . S
C1462 C1461 1.363 . S
C1462 C1468 1.428 . S
H1463 C1459 0.930 . S
H1464 C1461 0.929 . S
S1465 N1466 1.613 . S
S1465 N1467 1.610 . S
N1466 S1465 1.613 . S
N1466 C1469 1.350 . S
N1467 S1465 1.610 . S
N1467 C1468 1.351 . S
C1468 C1462 1.428 . S
C1468 N1467 1.351 . S
C1468 C1469 1.434 . S
C1469 C1460 1.429 . S
C1469 N1466 1.350 . S
C1469 C1468 1.434 . S
C1470 C1471 1.369 . S
C1470 C1472 1.419 . S
C1470 H1474 0.930 . S
C1471 C1470 1.369 . S
C1471 C1480 1.429 . S
C1472 C1470 1.419 . S
C1472 C1473 1.363 . S
C1472 H1475 0.929 . S
C1473 C1472 1.363 . S
C1473 C1479 1.428 . S
H1474 C1470 0.930 . S
H1475 C1472 0.929 . S
S1476 N1477 1.613 . S
S1476 N1478 1.610 . S
N1477 S1476 1.613 . S
N1477 C1480 1.350 . S
N1478 S1476 1.610 . S
N1478 C1479 1.351 . S
C1479 C1473 1.428 . S
C1479 N1478 1.351 . S
C1479 C1480 1.434 . S
C1480 C1471 1.429 . S
C1480 N1477 1.350 . S
C1480 C1479 1.434 . S
C1481 C1482 1.369 . S
C1481 C1483 1.419 . S
C1481 H1485 0.930 . S
C1482 C1481 1.369 . S
C1482 C1491 1.429 . S
C1483 C1481 1.419 . S
C1483 C1484 1.363 . S
C1483 H1486 0.929 . S
C1484 C1483 1.363 . S
C1484 C1490 1.428 . S
H1485 C1481 0.930 . S
H1486 C1483 0.929 . S
S1487 N1488 1.613 . S
S1487 N1489 1.610 . S
N1488 S1487 1.613 . S
N1488 C1491 1.350 . S
N1489 S1487 1.610 . S
N1489 C1490 1.351 . S
C1490 C1484 1.428 . S
C1490 N1489 1.351 . S
C1490 C1491 1.434 . S
C1491 C1482 1.429 . S
C1491 N1488 1.350 . S
C1491 C1490 1.434 . S
C1492 C1493 1.369 . S
C1492 C1494 1.419 . S
C1492 H1496 0.930 . S
C1493 C1492 1.369 . S
C1493 C1502 1.429 . S
C1494 C1492 1.419 . S
C1494 C1495 1.363 . S
C1494 H1497 0.929 . S
C1495 C1494 1.363 . S
C1495 C1501 1.428 . S
H1496 C1492 0.930 . S
H1497 C1494 0.929 . S
S1498 N1499 1.613 . S
S1498 N1500 1.610 . S
N1499 S1498 1.613 . S
N1499 C1502 1.350 . S
N1500 S1498 1.610 . S
N1500 C1501 1.351 . S
C1501 C1495 1.428 . S
C1501 N1500 1.351 . S
C1501 C1502 1.434 . S
C1502 C1493 1.429 . S
C1502 N1499 1.350 . S
C1502 C1501 1.434 . S
C1503 C1504 1.369 . S
C1503 C1505 1.419 . S
C1503 H1507 0.930 . S
C1504 C1503 1.369 . S
C1504 C1513 1.429 . S
C1505 C1503 1.419 . S
C1505 C1506 1.363 . S
C1505 H1508 0.929 . S
C1506 C1505 1.363 . S
C1506 C1512 1.428 . S
H1507 C1503 0.930 . S
H1508 C1505 0.929 . S
S1509 N1510 1.613 . S
S1509 N1511 1.610 . S
N1510 S1509 1.613 . S
N1510 C1513 1.350 . S
N1511 S1509 1.610 . S
N1511 C1512 1.351 . S
C1512 C1506 1.428 . S
C1512 N1511 1.351 . S
C1512 C1513 1.434 . S
C1513 C1504 1.429 . S
C1513 N1510 1.350 . S
C1513 C1512 1.434 . S
C1514 C1515 1.369 . S
C1514 C1516 1.419 . S
C1514 H1518 0.930 . S
C1515 C1514 1.369 . S
C1515 C1524 1.429 . S
C1516 C1514 1.419 . S
C1516 C1517 1.363 . S
C1516 H1519 0.929 . S
C1517 C1516 1.363 . S
C1517 C1523 1.428 . S
H1518 C1514 0.930 . S
H1519 C1516 0.929 . S
S1520 N1521 1.613 . S
S1520 N1522 1.610 . S
N1521 S1520 1.613 . S
N1521 C1524 1.350 . S
N1522 S1520 1.610 . S
N1522 C1523 1.351 . S
C1523 C1517 1.428 . S
C1523 N1522 1.351 . S
C1523 C1524 1.434 . S
C1524 C1515 1.429 . S
C1524 N1521 1.350 . S
C1524 C1523 1.434 . S
C1525 C1526 1.369 . S
C1525 C1527 1.419 . S
C1525 H1529 0.930 . S
C1526 C1525 1.369 . S
C1526 C1535 1.429 . S
C1527 C1525 1.419 . S
C1527 C1528 1.363 . S
C1527 H1530 0.929 . S
C1528 C1527 1.363 . S
C1528 C1534 1.428 . S
H1529 C1525 0.930 . S
H1530 C1527 0.929 . S
S1531 N1532 1.613 . S
S1531 N1533 1.610 . S
N1532 S1531 1.613 . S
N1532 C1535 1.350 . S
N1533 S1531 1.610 . S
N1533 C1534 1.351 . S
C1534 C1528 1.428 . S
C1534 N1533 1.351 . S
C1534 C1535 1.434 . S
C1535 C1526 1.429 . S
C1535 N1532 1.350 . S
C1535 C1534 1.434 . S
C1536 C1537 1.369 . S
C1536 C1538 1.419 . S
C1536 H1540 0.930 . S
C1537 C1536 1.369 . S
C1537 C1546 1.429 . S
C1538 C1536 1.419 . S
C1538 C1539 1.363 . S
C1538 H1541 0.929 . S
C1539 C1538 1.363 . S
C1539 C1545 1.428 . S
H1540 C1536 0.930 . S
H1541 C1538 0.929 . S
S1542 N1543 1.613 . S
S1542 N1544 1.610 . S
N1543 S1542 1.613 . S
N1543 C1546 1.350 . S
N1544 S1542 1.610 . S
N1544 C1545 1.351 . S
C1545 C1539 1.428 . S
C1545 N1544 1.351 . S
C1545 C1546 1.434 . S
C1546 C1537 1.429 . S
C1546 N1543 1.350 . S
C1546 C1545 1.434 . S
C1547 C1548 1.369 . S
C1547 C1549 1.419 . S
C1547 H1551 0.930 . S
C1548 C1547 1.369 . S
C1548 C1557 1.429 . S
C1549 C1547 1.419 . S
C1549 C1550 1.363 . S
C1549 H1552 0.929 . S
C1550 C1549 1.363 . S
C1550 C1556 1.428 . S
H1551 C1547 0.930 . S
H1552 C1549 0.929 . S
S1553 N1554 1.613 . S
S1553 N1555 1.610 . S
N1554 S1553 1.613 . S
N1554 C1557 1.350 . S
N1555 S1553 1.610 . S
N1555 C1556 1.351 . S
C1556 C1550 1.428 . S
C1556 N1555 1.351 . S
C1556 C1557 1.434 . S
C1557 C1548 1.429 . S
C1557 N1554 1.350 . S
C1557 C1556 1.434 . S
C1558 C1559 1.369 . S
C1558 C1560 1.419 . S
C1558 H1562 0.930 . S
C1559 C1558 1.369 . S
C1559 C1568 1.429 . S
C1560 C1558 1.419 . S
C1560 C1561 1.363 . S
C1560 H1563 0.929 . S
C1561 C1560 1.363 . S
C1561 C1567 1.428 . S
H1562 C1558 0.930 . S
H1563 C1560 0.929 . S
S1564 N1565 1.613 . S
S1564 N1566 1.610 . S
N1565 S1564 1.613 . S
N1565 C1568 1.350 . S
N1566 S1564 1.610 . S
N1566 C1567 1.351 . S
C1567 C1561 1.428 . S
C1567 N1566 1.351 . S
C1567 C1568 1.434 . S
C1568 C1559 1.429 . S
C1568 N1565 1.350 . S
C1568 C1567 1.434 . S
C1569 C1570 1.369 . S
C1569 C1571 1.419 . S
C1569 H1573 0.930 . S
C1570 C1569 1.369 . S
C1570 C1579 1.429 . S
C1571 C1569 1.419 . S
C1571 C1572 1.363 . S
C1571 H1574 0.929 . S
C1572 C1571 1.363 . S
C1572 C1578 1.428 . S
H1573 C1569 0.930 . S
H1574 C1571 0.929 . S
S1575 N1576 1.613 . S
S1575 N1577 1.610 . S
N1576 S1575 1.613 . S
N1576 C1579 1.350 . S
N1577 S1575 1.610 . S
N1577 C1578 1.351 . S
C1578 C1572 1.428 . S
C1578 N1577 1.351 . S
C1578 C1579 1.434 . S
C1579 C1570 1.429 . S
C1579 N1576 1.350 . S
C1579 C1578 1.434 . S
C1580 C1581 1.369 . S
C1580 C1582 1.419 . S
C1580 H1584 0.930 . S
C1581 C1580 1.369 . S
C1581 C1590 1.429 . S
C1582 C1580 1.419 . S
C1582 C1583 1.363 . S
C1582 H1585 0.929 . S
C1583 C1582 1.363 . S
C1583 C1589 1.428 . S
H1584 C1580 0.930 . S
H1585 C1582 0.929 . S
S1586 N1587 1.613 . S
S1586 N1588 1.610 . S
N1587 S1586 1.613 . S
N1587 C1590 1.350 . S
N1588 S1586 1.610 . S
N1588 C1589 1.351 . S
C1589 C1583 1.428 . S
C1589 N1588 1.351 . S
C1589 C1590 1.434 . S
C1590 C1581 1.429 . S
C1590 N1587 1.350 . S
C1590 C1589 1.434 . S
C1591 C1592 1.369 . S
C1591 C1593 1.419 . S
C1591 H1595 0.930 . S
C1592 C1591 1.369 . S
C1592 C1601 1.429 . S
C1593 C1591 1.419 . S
C1593 C1594 1.363 . S
C1593 H1596 0.929 . S
C1594 C1593 1.363 . S
C1594 C1600 1.428 . S
H1595 C1591 0.930 . S
H1596 C1593 0.929 . S
S1597 N1598 1.613 . S
S1597 N1599 1.610 . S
N1598 S1597 1.613 . S
N1598 C1601 1.350 . S
N1599 S1597 1.610 . S
N1599 C1600 1.351 . S
C1600 C1594 1.428 . S
C1600 N1599 1.351 . S
C1600 C1601 1.434 . S
C1601 C1592 1.429 . S
C1601 N1598 1.350 . S
C1601 C1600 1.434 . S
C1602 C1603 1.369 . S
C1602 C1604 1.419 . S
C1602 H1606 0.930 . S
C1603 C1602 1.369 . S
C1603 C1612 1.429 . S
C1604 C1602 1.419 . S
C1604 C1605 1.363 . S
C1604 H1607 0.929 . S
C1605 C1604 1.363 . S
C1605 C1611 1.428 . S
H1606 C1602 0.930 . S
H1607 C1604 0.929 . S
S1608 N1609 1.613 . S
S1608 N1610 1.610 . S
N1609 S1608 1.613 . S
N1609 C1612 1.350 . S
N1610 S1608 1.610 . S
N1610 C1611 1.351 . S
C1611 C1605 1.428 . S
C1611 N1610 1.351 . S
C1611 C1612 1.434 . S
C1612 C1603 1.429 . S
C1612 N1609 1.350 . S
C1612 C1611 1.434 . S
C1613 C1614 1.369 . S
C1613 C1615 1.419 . S
C1613 H1617 0.930 . S
C1614 C1613 1.369 . S
C1614 C1623 1.429 . S
C1615 C1613 1.419 . S
C1615 C1616 1.363 . S
C1615 H1618 0.929 . S
C1616 C1615 1.363 . S
C1616 C1622 1.428 . S
H1617 C1613 0.930 . S
H1618 C1615 0.929 . S
S1619 N1620 1.613 . S
S1619 N1621 1.610 . S
N1620 S1619 1.613 . S
N1620 C1623 1.350 . S
N1621 S1619 1.610 . S
N1621 C1622 1.351 . S
C1622 C1616 1.428 . S
C1622 N1621 1.351 . S
C1622 C1623 1.434 . S
C1623 C1614 1.429 . S
C1623 N1620 1.350 . S
C1623 C1622 1.434 . S
C1624 C1625 1.369 . S
C1624 C1626 1.419 . S
C1624 H1628 0.930 . S
C1625 C1624 1.369 . S
C1625 C1634 1.429 . S
C1626 C1624 1.419 . S
C1626 C1627 1.363 . S
C1626 H1629 0.929 . S
C1627 C1626 1.363 . S
C1627 C1633 1.428 . S
H1628 C1624 0.930 . S
H1629 C1626 0.929 . S
S1630 N1631 1.613 . S
S1630 N1632 1.610 . S
N1631 S1630 1.613 . S
N1631 C1634 1.350 . S
N1632 S1630 1.610 . S
N1632 C1633 1.351 . S
C1633 C1627 1.428 . S
C1633 N1632 1.351 . S
C1633 C1634 1.434 . S
C1634 C1625 1.429 . S
C1634 N1631 1.350 . S
C1634 C1633 1.434 . S
C1635 C1636 1.369 . S
C1635 C1637 1.419 . S
C1635 H1639 0.930 . S
C1636 C1635 1.369 . S
C1636 C1645 1.429 . S
C1637 C1635 1.419 . S
C1637 C1638 1.363 . S
C1637 H1640 0.929 . S
C1638 C1637 1.363 . S
C1638 C1644 1.428 . S
H1639 C1635 0.930 . S
H1640 C1637 0.929 . S
S1641 N1642 1.613 . S
S1641 N1643 1.610 . S
N1642 S1641 1.613 . S
N1642 C1645 1.350 . S
N1643 S1641 1.610 . S
N1643 C1644 1.351 . S
C1644 C1638 1.428 . S
C1644 N1643 1.351 . S
C1644 C1645 1.434 . S
C1645 C1636 1.429 . S
C1645 N1642 1.350 . S
C1645 C1644 1.434 . S
C1646 C1647 1.369 . S
C1646 C1648 1.419 . S
C1646 H1650 0.930 . S
C1647 C1646 1.369 . S
C1647 C1656 1.429 . S
C1648 C1646 1.419 . S
C1648 C1649 1.363 . S
C1648 H1651 0.929 . S
C1649 C1648 1.363 . S
C1649 C1655 1.428 . S
H1650 C1646 0.930 . S
H1651 C1648 0.929 . S
S1652 N1653 1.613 . S
S1652 N1654 1.610 . S
N1653 S1652 1.613 . S
N1653 C1656 1.350 . S
N1654 S1652 1.610 . S
N1654 C1655 1.351 . S
C1655 C1649 1.428 . S
C1655 N1654 1.351 . S
C1655 C1656 1.434 . S
C1656 C1647 1.429 . S
C1656 N1653 1.350 . S
C1656 C1655 1.434 . S
C1657 C1658 1.369 . S
C1657 C1659 1.419 . S
C1657 H1661 0.930 . S
C1658 C1657 1.369 . S
C1658 C1667 1.429 . S
C1659 C1657 1.419 . S
C1659 C1660 1.363 . S
C1659 H1662 0.929 . S
C1660 C1659 1.363 . S
C1660 C1666 1.428 . S
H1661 C1657 0.930 . S
H1662 C1659 0.929 . S
S1663 N1664 1.613 . S
S1663 N1665 1.610 . S
N1664 S1663 1.613 . S
N1664 C1667 1.350 . S
N1665 S1663 1.610 . S
N1665 C1666 1.351 . S
C1666 C1660 1.428 . S
C1666 N1665 1.351 . S
C1666 C1667 1.434 . S
C1667 C1658 1.429 . S
C1667 N1664 1.350 . S
C1667 C1666 1.434 . S
C1668 C1669 1.369 . S
C1668 C1670 1.419 . S
C1668 H1672 0.930 . S
C1669 C1668 1.369 . S
C1669 C1678 1.429 . S
C1670 C1668 1.419 . S
C1670 C1671 1.363 . S
C1670 H1673 0.929 . S
C1671 C1670 1.363 . S
C1671 C1677 1.428 . S
H1672 C1668 0.930 . S
H1673 C1670 0.929 . S
S1674 N1675 1.613 . S
S1674 N1676 1.610 . S
N1675 S1674 1.613 . S
N1675 C1678 1.350 . S
N1676 S1674 1.610 . S
N1676 C1677 1.351 . S
C1677 C1671 1.428 . S
C1677 N1676 1.351 . S
C1677 C1678 1.434 . S
C1678 C1669 1.429 . S
C1678 N1675 1.350 . S
C1678 C1677 1.434 . S
C1679 C1680 1.369 . S
C1679 C1681 1.419 . S
C1679 H1683 0.930 . S
C1680 C1679 1.369 . S
C1680 C1689 1.429 . S
C1681 C1679 1.419 . S
C1681 C1682 1.363 . S
C1681 H1684 0.929 . S
C1682 C1681 1.363 . S
C1682 C1688 1.428 . S
H1683 C1679 0.930 . S
H1684 C1681 0.929 . S
S1685 N1686 1.613 . S
S1685 N1687 1.610 . S
N1686 S1685 1.613 . S
N1686 C1689 1.350 . S
N1687 S1685 1.610 . S
N1687 C1688 1.351 . S
C1688 C1682 1.428 . S
C1688 N1687 1.351 . S
C1688 C1689 1.434 . S
C1689 C1680 1.429 . S
C1689 N1686 1.350 . S
C1689 C1688 1.434 . S
C1690 C1691 1.369 . S
C1690 C1692 1.419 . S
C1690 H1694 0.930 . S
C1691 C1690 1.369 . S
C1691 C1700 1.429 . S
C1692 C1690 1.419 . S
C1692 C1693 1.363 . S
C1692 H1695 0.929 . S
C1693 C1692 1.363 . S
C1693 C1699 1.428 . S
H1694 C1690 0.930 . S
H1695 C1692 0.929 . S
S1696 N1697 1.613 . S
S1696 N1698 1.610 . S
N1697 S1696 1.613 . S
N1697 C1700 1.350 . S
N1698 S1696 1.610 . S
N1698 C1699 1.351 . S
C1699 C1693 1.428 . S
C1699 N1698 1.351 . S
C1699 C1700 1.434 . S
C1700 C1691 1.429 . S
C1700 N1697 1.350 . S
C1700 C1699 1.434 . S
C1701 C1702 1.369 . S
C1701 C1703 1.419 . S
C1701 H1705 0.930 . S
C1702 C1701 1.369 . S
C1702 C1711 1.429 . S
C1703 C1701 1.419 . S
C1703 C1704 1.363 . S
C1703 H1706 0.929 . S
C1704 C1703 1.363 . S
C1704 C1710 1.428 . S
H1705 C1701 0.930 . S
H1706 C1703 0.929 . S
S1707 N1708 1.613 . S
S1707 N1709 1.610 . S
N1708 S1707 1.613 . S
N1708 C1711 1.350 . S
N1709 S1707 1.610 . S
N1709 C1710 1.351 . S
C1710 C1704 1.428 . S
C1710 N1709 1.351 . S
C1710 C1711 1.434 . S
C1711 C1702 1.429 . S
C1711 N1708 1.350 . S
C1711 C1710 1.434 . S
C1712 C1713 1.369 . S
C1712 C1714 1.419 . S
C1712 H1716 0.930 . S
C1713 C1712 1.369 . S
C1713 C1722 1.429 . S
C1714 C1712 1.419 . S
C1714 C1715 1.363 . S
C1714 H1717 0.929 . S
C1715 C1714 1.363 . S
C1715 C1721 1.428 . S
H1716 C1712 0.930 . S
H1717 C1714 0.929 . S
S1718 N1719 1.613 . S
S1718 N1720 1.610 . S
N1719 S1718 1.613 . S
N1719 C1722 1.350 . S
N1720 S1718 1.610 . S
N1720 C1721 1.351 . S
C1721 C1715 1.428 . S
C1721 N1720 1.351 . S
C1721 C1722 1.434 . S
C1722 C1713 1.429 . S
C1722 N1719 1.350 . S
C1722 C1721 1.434 . S
C1723 C1724 1.369 . S
C1723 C1725 1.419 . S
C1723 H1727 0.930 . S
C1724 C1723 1.369 . S
C1724 C1733 1.429 . S
C1725 C1723 1.419 . S
C1725 C1726 1.363 . S
C1725 H1728 0.929 . S
C1726 C1725 1.363 . S
C1726 C1732 1.428 . S
H1727 C1723 0.930 . S
H1728 C1725 0.929 . S
S1729 N1730 1.613 . S
S1729 N1731 1.610 . S
N1730 S1729 1.613 . S
N1730 C1733 1.350 . S
N1731 S1729 1.610 . S
N1731 C1732 1.351 . S
C1732 C1726 1.428 . S
C1732 N1731 1.351 . S
C1732 C1733 1.434 . S
C1733 C1724 1.429 . S
C1733 N1730 1.350 . S
C1733 C1732 1.434 . S
C1734 C1735 1.369 . S
C1734 C1736 1.419 . S
C1734 H1738 0.930 . S
C1735 C1734 1.369 . S
C1735 C1744 1.429 . S
C1736 C1734 1.419 . S
C1736 C1737 1.363 . S
C1736 H1739 0.929 . S
C1737 C1736 1.363 . S
C1737 C1743 1.428 . S
H1738 C1734 0.930 . S
H1739 C1736 0.929 . S
S1740 N1741 1.613 . S
S1740 N1742 1.610 . S
N1741 S1740 1.613 . S
N1741 C1744 1.350 . S
N1742 S1740 1.610 . S
N1742 C1743 1.351 . S
C1743 C1737 1.428 . S
C1743 N1742 1.351 . S
C1743 C1744 1.434 . S
C1744 C1735 1.429 . S
C1744 N1741 1.350 . S
C1744 C1743 1.434 . S
C1745 C1746 1.369 . S
C1745 C1747 1.419 . S
C1745 H1749 0.930 . S
C1746 C1745 1.369 . S
C1746 C1755 1.429 . S
C1747 C1745 1.419 . S
C1747 C1748 1.363 . S
C1747 H1750 0.929 . S
C1748 C1747 1.363 . S
C1748 C1754 1.428 . S
H1749 C1745 0.930 . S
H1750 C1747 0.929 . S
S1751 N1752 1.613 . S
S1751 N1753 1.610 . S
N1752 S1751 1.613 . S
N1752 C1755 1.350 . S
N1753 S1751 1.610 . S
N1753 C1754 1.351 . S
C1754 C1748 1.428 . S
C1754 N1753 1.351 . S
C1754 C1755 1.434 . S
C1755 C1746 1.429 . S
C1755 N1752 1.350 . S
C1755 C1754 1.434 . S
C1756 C1757 1.369 . S
C1756 C1758 1.419 . S
C1756 H1760 0.930 . S
C1757 C1756 1.369 . S
C1757 C1766 1.429 . S
C1758 C1756 1.419 . S
C1758 C1759 1.363 . S
C1758 H1761 0.929 . S
C1759 C1758 1.363 . S
C1759 C1765 1.428 . S
H1760 C1756 0.930 . S
H1761 C1758 0.929 . S
S1762 N1763 1.613 . S
S1762 N1764 1.610 . S
N1763 S1762 1.613 . S
N1763 C1766 1.350 . S
N1764 S1762 1.610 . S
N1764 C1765 1.351 . S
C1765 C1759 1.428 . S
C1765 N1764 1.351 . S
C1765 C1766 1.434 . S
C1766 C1757 1.429 . S
C1766 N1763 1.350 . S
C1766 C1765 1.434 . S
C1767 C1768 1.369 . S
C1767 C1769 1.419 . S
C1767 H1771 0.930 . S
C1768 C1767 1.369 . S
C1768 C1777 1.429 . S
C1769 C1767 1.419 . S
C1769 C1770 1.363 . S
C1769 H1772 0.929 . S
C1770 C1769 1.363 . S
C1770 C1776 1.428 . S
H1771 C1767 0.930 . S
H1772 C1769 0.929 . S
S1773 N1774 1.613 . S
S1773 N1775 1.610 . S
N1774 S1773 1.613 . S
N1774 C1777 1.350 . S
N1775 S1773 1.610 . S
N1775 C1776 1.351 . S
C1776 C1770 1.428 . S
C1776 N1775 1.351 . S
C1776 C1777 1.434 . S
C1777 C1768 1.429 . S
C1777 N1774 1.350 . S
C1777 C1776 1.434 . S
C1778 C1779 1.369 . S
C1778 C1780 1.419 . S
C1778 H1782 0.930 . S
C1779 C1778 1.369 . S
C1779 C1788 1.429 . S
C1780 C1778 1.419 . S
C1780 C1781 1.363 . S
C1780 H1783 0.929 . S
C1781 C1780 1.363 . S
C1781 C1787 1.428 . S
H1782 C1778 0.930 . S
H1783 C1780 0.929 . S
S1784 N1785 1.613 . S
S1784 N1786 1.610 . S
N1785 S1784 1.613 . S
N1785 C1788 1.350 . S
N1786 S1784 1.610 . S
N1786 C1787 1.351 . S
C1787 C1781 1.428 . S
C1787 N1786 1.351 . S
C1787 C1788 1.434 . S
C1788 C1779 1.429 . S
C1788 N1785 1.350 . S
C1788 C1787 1.434 . S
C1789 C1790 1.369 . S
C1789 C1791 1.419 . S
C1789 H1793 0.930 . S
C1790 C1789 1.369 . S
C1790 C1799 1.429 . S
C1791 C1789 1.419 . S
C1791 C1792 1.363 . S
C1791 H1794 0.929 . S
C1792 C1791 1.363 . S
C1792 C1798 1.428 . S
H1793 C1789 0.930 . S
H1794 C1791 0.929 . S
S1795 N1796 1.613 . S
S1795 N1797 1.610 . S
N1796 S1795 1.613 . S
N1796 C1799 1.350 . S
N1797 S1795 1.610 . S
N1797 C1798 1.351 . S
C1798 C1792 1.428 . S
C1798 N1797 1.351 . S
C1798 C1799 1.434 . S
C1799 C1790 1.429 . S
C1799 N1796 1.350 . S
C1799 C1798 1.434 . S
C1800 C1801 1.369 . S
C1800 C1802 1.419 . S
C1800 H1804 0.930 . S
C1801 C1800 1.369 . S
C1801 C1810 1.429 . S
C1802 C1800 1.419 . S
C1802 C1803 1.363 . S
C1802 H1805 0.929 . S
C1803 C1802 1.363 . S
C1803 C1809 1.428 . S
H1804 C1800 0.930 . S
H1805 C1802 0.929 . S
S1806 N1807 1.613 . S
S1806 N1808 1.610 . S
N1807 S1806 1.613 . S
N1807 C1810 1.350 . S
N1808 S1806 1.610 . S
N1808 C1809 1.351 . S
C1809 C1803 1.428 . S
C1809 N1808 1.351 . S
C1809 C1810 1.434 . S
C1810 C1801 1.429 . S
C1810 N1807 1.350 . S
C1810 C1809 1.434 . S
C1811 C1812 1.369 . S
C1811 C1813 1.419 . S
C1811 H1815 0.930 . S
C1812 C1811 1.369 . S
C1812 C1821 1.429 . S
C1813 C1811 1.419 . S
C1813 C1814 1.363 . S
C1813 H1816 0.929 . S
C1814 C1813 1.363 . S
C1814 C1820 1.428 . S
H1815 C1811 0.930 . S
H1816 C1813 0.929 . S
S1817 N1818 1.613 . S
S1817 N1819 1.610 . S
N1818 S1817 1.613 . S
N1818 C1821 1.350 . S
N1819 S1817 1.610 . S
N1819 C1820 1.351 . S
C1820 C1814 1.428 . S
C1820 N1819 1.351 . S
C1820 C1821 1.434 . S
C1821 C1812 1.429 . S
C1821 N1818 1.350 . S
C1821 C1820 1.434 . S
C1822 C1823 1.369 . S
C1822 C1824 1.419 . S
C1822 H1826 0.930 . S
C1823 C1822 1.369 . S
C1823 C1832 1.429 . S
C1824 C1822 1.419 . S
C1824 C1825 1.363 . S
C1824 H1827 0.929 . S
C1825 C1824 1.363 . S
C1825 C1831 1.428 . S
H1826 C1822 0.930 . S
H1827 C1824 0.929 . S
S1828 N1829 1.613 . S
S1828 N1830 1.610 . S
N1829 S1828 1.613 . S
N1829 C1832 1.350 . S
N1830 S1828 1.610 . S
N1830 C1831 1.351 . S
C1831 C1825 1.428 . S
C1831 N1830 1.351 . S
C1831 C1832 1.434 . S
C1832 C1823 1.429 . S
C1832 N1829 1.350 . S
C1832 C1831 1.434 . S
C1833 C1834 1.369 . S
C1833 C1835 1.419 . S
C1833 H1837 0.930 . S
C1834 C1833 1.369 . S
C1834 C1843 1.429 . S
C1835 C1833 1.419 . S
C1835 C1836 1.363 . S
C1835 H1838 0.929 . S
C1836 C1835 1.363 . S
C1836 C1842 1.428 . S
H1837 C1833 0.930 . S
H1838 C1835 0.929 . S
S1839 N1840 1.613 . S
S1839 N1841 1.610 . S
N1840 S1839 1.613 . S
N1840 C1843 1.350 . S
N1841 S1839 1.610 . S
N1841 C1842 1.351 . S
C1842 C1836 1.428 . S
C1842 N1841 1.351 . S
C1842 C1843 1.434 . S
C1843 C1834 1.429 . S
C1843 N1840 1.350 . S
C1843 C1842 1.434 . S
C1844 C1845 1.369 . S
C1844 C1846 1.419 . S
C1844 H1848 0.930 . S
C1845 C1844 1.369 . S
C1845 C1854 1.429 . S
C1846 C1844 1.419 . S
C1846 C1847 1.363 . S
C1846 H1849 0.929 . S
C1847 C1846 1.363 . S
C1847 C1853 1.428 . S
H1848 C1844 0.930 . S
H1849 C1846 0.929 . S
S1850 N1851 1.613 . S
S1850 N1852 1.610 . S
N1851 S1850 1.613 . S
N1851 C1854 1.350 . S
N1852 S1850 1.610 . S
N1852 C1853 1.351 . S
C1853 C1847 1.428 . S
C1853 N1852 1.351 . S
C1853 C1854 1.434 . S
C1854 C1845 1.429 . S
C1854 N1851 1.350 . S
C1854 C1853 1.434 . S
C1855 C1856 1.369 . S
C1855 C1857 1.419 . S
C1855 H1859 0.930 . S
C1856 C1855 1.369 . S
C1856 C1865 1.429 . S
C1857 C1855 1.419 . S
C1857 C1858 1.363 . S
C1857 H1860 0.929 . S
C1858 C1857 1.363 . S
C1858 C1864 1.428 . S
H1859 C1855 0.930 . S
H1860 C1857 0.929 . S
S1861 N1862 1.613 . S
S1861 N1863 1.610 . S
N1862 S1861 1.613 . S
N1862 C1865 1.350 . S
N1863 S1861 1.610 . S
N1863 C1864 1.351 . S
C1864 C1858 1.428 . S
C1864 N1863 1.351 . S
C1864 C1865 1.434 . S
C1865 C1856 1.429 . S
C1865 N1862 1.350 . S
C1865 C1864 1.434 . S
C1866 C1867 1.369 . S
C1866 C1868 1.419 . S
C1866 H1870 0.930 . S
C1867 C1866 1.369 . S
C1867 C1876 1.429 . S
C1868 C1866 1.419 . S
C1868 C1869 1.363 . S
C1868 H1871 0.929 . S
C1869 C1868 1.363 . S
C1869 C1875 1.428 . S
H1870 C1866 0.930 . S
H1871 C1868 0.929 . S
S1872 N1873 1.613 . S
S1872 N1874 1.610 . S
N1873 S1872 1.613 . S
N1873 C1876 1.350 . S
N1874 S1872 1.610 . S
N1874 C1875 1.351 . S
C1875 C1869 1.428 . S
C1875 N1874 1.351 . S
C1875 C1876 1.434 . S
C1876 C1867 1.429 . S
C1876 N1873 1.350 . S
C1876 C1875 1.434 . S
C1877 C1878 1.369 . S
C1877 C1879 1.419 . S
C1877 H1881 0.930 . S
C1878 C1877 1.369 . S
C1878 C1887 1.429 . S
C1879 C1877 1.419 . S
C1879 C1880 1.363 . S
C1879 H1882 0.929 . S
C1880 C1879 1.363 . S
C1880 C1886 1.428 . S
H1881 C1877 0.930 . S
H1882 C1879 0.929 . S
S1883 N1884 1.613 . S
S1883 N1885 1.610 . S
N1884 S1883 1.613 . S
N1884 C1887 1.350 . S
N1885 S1883 1.610 . S
N1885 C1886 1.351 . S
C1886 C1880 1.428 . S
C1886 N1885 1.351 . S
C1886 C1887 1.434 . S
C1887 C1878 1.429 . S
C1887 N1884 1.350 . S
C1887 C1886 1.434 . S
C1888 C1889 1.369 . S
C1888 C1890 1.419 . S
C1888 H1892 0.930 . S
C1889 C1888 1.369 . S
C1889 C1898 1.429 . S
C1890 C1888 1.419 . S
C1890 C1891 1.363 . S
C1890 H1893 0.929 . S
C1891 C1890 1.363 . S
C1891 C1897 1.428 . S
H1892 C1888 0.930 . S
H1893 C1890 0.929 . S
S1894 N1895 1.613 . S
S1894 N1896 1.610 . S
N1895 S1894 1.613 . S
N1895 C1898 1.350 . S
N1896 S1894 1.610 . S
N1896 C1897 1.351 . S
C1897 C1891 1.428 . S
C1897 N1896 1.351 . S
C1897 C1898 1.434 . S
C1898 C1889 1.429 . S
C1898 N1895 1.350 . S
C1898 C1897 1.434 . S
C1899 C1900 1.369 . S
C1899 C1901 1.419 . S
C1899 H1903 0.930 . S
C1900 C1899 1.369 . S
C1900 C1909 1.429 . S
C1901 C1899 1.419 . S
C1901 C1902 1.363 . S
C1901 H1904 0.929 . S
C1902 C1901 1.363 . S
C1902 C1908 1.428 . S
H1903 C1899 0.930 . S
H1904 C1901 0.929 . S
S1905 N1906 1.613 . S
S1905 N1907 1.610 . S
N1906 S1905 1.613 . S
N1906 C1909 1.350 . S
N1907 S1905 1.610 . S
N1907 C1908 1.351 . S
C1908 C1902 1.428 . S
C1908 N1907 1.351 . S
C1908 C1909 1.434 . S
C1909 C1900 1.429 . S
C1909 N1906 1.350 . S
C1909 C1908 1.434 . S
C1910 C1911 1.369 . S
C1910 C1912 1.419 . S
C1910 H1914 0.930 . S
C1911 C1910 1.369 . S
C1911 C1920 1.429 . S
C1912 C1910 1.419 . S
C1912 C1913 1.363 . S
C1912 H1915 0.929 . S
C1913 C1912 1.363 . S
C1913 C1919 1.428 . S
H1914 C1910 0.930 . S
H1915 C1912 0.929 . S
S1916 N1917 1.613 . S
S1916 N1918 1.610 . S
N1917 S1916 1.613 . S
N1917 C1920 1.350 . S
N1918 S1916 1.610 . S
N1918 C1919 1.351 . S
C1919 C1913 1.428 . S
C1919 N1918 1.351 . S
C1919 C1920 1.434 . S
C1920 C1911 1.429 . S
C1920 N1917 1.350 . S
C1920 C1919 1.434 . S
C1921 C1922 1.369 . S
C1921 C1923 1.419 . S
C1921 H1925 0.930 . S
C1922 C1921 1.369 . S
C1922 C1931 1.429 . S
C1923 C1921 1.419 . S
C1923 C1924 1.363 . S
C1923 H1926 0.929 . S
C1924 C1923 1.363 . S
C1924 C1930 1.428 . S
H1925 C1921 0.930 . S
H1926 C1923 0.929 . S
S1927 N1928 1.613 . S
S1927 N1929 1.610 . S
N1928 S1927 1.613 . S
N1928 C1931 1.350 . S
N1929 S1927 1.610 . S
N1929 C1930 1.351 . S
C1930 C1924 1.428 . S
C1930 N1929 1.351 . S
C1930 C1931 1.434 . S
C1931 C1922 1.429 . S
C1931 N1928 1.350 . S
C1931 C1930 1.434 . S
C1932 C1933 1.369 . S
C1932 C1934 1.419 . S
C1932 H1936 0.930 . S
C1933 C1932 1.369 . S
C1933 C1942 1.429 . S
C1934 C1932 1.419 . S
C1934 C1935 1.363 . S
C1934 H1937 0.929 . S
C1935 C1934 1.363 . S
C1935 C1941 1.428 . S
H1936 C1932 0.930 . S
H1937 C1934 0.929 . S
S1938 N1939 1.613 . S
S1938 N1940 1.610 . S
N1939 S1938 1.613 . S
N1939 C1942 1.350 . S
N1940 S1938 1.610 . S
N1940 C1941 1.351 . S
C1941 C1935 1.428 . S
C1941 N1940 1.351 . S
C1941 C1942 1.434 . S
C1942 C1933 1.429 . S
C1942 N1939 1.350 . S
C1942 C1941 1.434 . S
C1943 C1944 1.369 . S
C1943 C1945 1.419 . S
C1943 H1947 0.930 . S
C1944 C1943 1.369 . S
C1944 C1953 1.429 . S
C1945 C1943 1.419 . S
C1945 C1946 1.363 . S
C1945 H1948 0.929 . S
C1946 C1945 1.363 . S
C1946 C1952 1.428 . S
H1947 C1943 0.930 . S
H1948 C1945 0.929 . S
S1949 N1950 1.613 . S
S1949 N1951 1.610 . S
N1950 S1949 1.613 . S
N1950 C1953 1.350 . S
N1951 S1949 1.610 . S
N1951 C1952 1.351 . S
C1952 C1946 1.428 . S
C1952 N1951 1.351 . S
C1952 C1953 1.434 . S
C1953 C1944 1.429 . S
C1953 N1950 1.350 . S
C1953 C1952 1.434 . S
C1954 C1955 1.369 . S
C1954 C1956 1.419 . S
C1954 H1958 0.930 . S
C1955 C1954 1.369 . S
C1955 C1964 1.429 . S
C1956 C1954 1.419 . S
C1956 C1957 1.363 . S
C1956 H1959 0.929 . S
C1957 C1956 1.363 . S
C1957 C1963 1.428 . S
H1958 C1954 0.930 . S
H1959 C1956 0.929 . S
S1960 N1961 1.613 . S
S1960 N1962 1.610 . S
N1961 S1960 1.613 . S
N1961 C1964 1.350 . S
N1962 S1960 1.610 . S
N1962 C1963 1.351 . S
C1963 C1957 1.428 . S
C1963 N1962 1.351 . S
C1963 C1964 1.434 . S
C1964 C1955 1.429 . S
C1964 N1961 1.350 . S
C1964 C1963 1.434 . S
C1965 C1966 1.369 . S
C1965 C1967 1.419 . S
C1965 H1969 0.930 . S
C1966 C1965 1.369 . S
C1966 C1975 1.429 . S
C1967 C1965 1.419 . S
C1967 C1968 1.363 . S
C1967 H1970 0.929 . S
C1968 C1967 1.363 . S
C1968 C1974 1.428 . S
H1969 C1965 0.930 . S
H1970 C1967 0.929 . S
S1971 N1972 1.613 . S
S1971 N1973 1.610 . S
N1972 S1971 1.613 . S
N1972 C1975 1.350 . S
N1973 S1971 1.610 . S
N1973 C1974 1.351 . S
C1974 C1968 1.428 . S
C1974 N1973 1.351 . S
C1974 C1975 1.434 . S
C1975 C1966 1.429 . S
C1975 N1972 1.350 . S
C1975 C1974 1.434 . S
C1976 C1977 1.369 . S
C1976 C1978 1.419 . S
C1976 H1980 0.930 . S
C1977 C1976 1.369 . S
C1977 C1986 1.429 . S
C1978 C1976 1.419 . S
C1978 C1979 1.363 . S
C1978 H1981 0.929 . S
C1979 C1978 1.363 . S
C1979 C1985 1.428 . S
H1980 C1976 0.930 . S
H1981 C1978 0.929 . S
S1982 N1983 1.613 . S
S1982 N1984 1.610 . S
N1983 S1982 1.613 . S
N1983 C1986 1.350 . S
N1984 S1982 1.610 . S
N1984 C1985 1.351 . S
C1985 C1979 1.428 . S
C1985 N1984 1.351 . S
C1985 C1986 1.434 . S
C1986 C1977 1.429 . S
C1986 N1983 1.350 . S
C1986 C1985 1.434 . S
C1987 C1988 1.369 . S
C1987 C1989 1.419 . S
C1987 H1991 0.930 . S
C1988 C1987 1.369 . S
C1988 C1997 1.429 . S
C1989 C1987 1.419 . S
C1989 C1990 1.363 . S
C1989 H1992 0.929 . S
C1990 C1989 1.363 . S
C1990 C1996 1.428 . S
H1991 C1987 0.930 . S
H1992 C1989 0.929 . S
S1993 N1994 1.613 . S
S1993 N1995 1.610 . S
N1994 S1993 1.613 . S
N1994 C1997 1.350 . S
N1995 S1993 1.610 . S
N1995 C1996 1.351 . S
C1996 C1990 1.428 . S
C1996 N1995 1.351 . S
C1996 C1997 1.434 . S
C1997 C1988 1.429 . S
C1997 N1994 1.350 . S
C1997 C1996 1.434 . S
C1998 C1999 1.369 . S
C1998 C2000 1.419 . S
C1998 H2002 0.930 . S
C1999 C1998 1.369 . S
C1999 C2008 1.429 . S
C2000 C1998 1.419 . S
C2000 C2001 1.363 . S
C2000 H2003 0.929 . S
C2001 C2000 1.363 . S
C2001 C2007 1.428 . S
H2002 C1998 0.930 . S
H2003 C2000 0.929 . S
S2004 N2005 1.613 . S
S2004 N2006 1.610 . S
N2005 S2004 1.613 . S
N2005 C2008 1.350 . S
N2006 S2004 1.610 . S
N2006 C2007 1.351 . S
C2007 C2001 1.428 . S
C2007 N2006 1.351 . S
C2007 C2008 1.434 . S
C2008 C1999 1.429 . S
C2008 N2005 1.350 . S
C2008 C2007 1.434 . S
C2009 C2010 1.369 . S
C2009 C2011 1.419 . S
C2009 H2013 0.930 . S
C2010 C2009 1.369 . S
C2010 C2019 1.429 . S
C2011 C2009 1.419 . S
C2011 C2012 1.363 . S
C2011 H2014 0.929 . S
C2012 C2011 1.363 . S
C2012 C2018 1.428 . S
H2013 C2009 0.930 . S
H2014 C2011 0.929 . S
S2015 N2016 1.613 . S
S2015 N2017 1.610 . S
N2016 S2015 1.613 . S
N2016 C2019 1.350 . S
N2017 S2015 1.610 . S
N2017 C2018 1.351 . S
C2018 C2012 1.428 . S
C2018 N2017 1.351 . S
C2018 C2019 1.434 . S
C2019 C2010 1.429 . S
C2019 N2016 1.350 . S
C2019 C2018 1.434 . S
C2020 C2021 1.369 . S
C2020 C2022 1.419 . S
C2020 H2024 0.930 . S
C2021 C2020 1.369 . S
C2021 C2030 1.429 . S
C2022 C2020 1.419 . S
C2022 C2023 1.363 . S
C2022 H2025 0.929 . S
C2023 C2022 1.363 . S
C2023 C2029 1.428 . S
H2024 C2020 0.930 . S
H2025 C2022 0.929 . S
S2026 N2027 1.613 . S
S2026 N2028 1.610 . S
N2027 S2026 1.613 . S
N2027 C2030 1.350 . S
N2028 S2026 1.610 . S
N2028 C2029 1.351 . S
C2029 C2023 1.428 . S
C2029 N2028 1.351 . S
C2029 C2030 1.434 . S
C2030 C2021 1.429 . S
C2030 N2027 1.350 . S
C2030 C2029 1.434 . S
C2031 C2032 1.369 . S
C2031 C2033 1.419 . S
C2031 H2035 0.930 . S
C2032 C2031 1.369 . S
C2032 C2041 1.429 . S
C2033 C2031 1.419 . S
C2033 C2034 1.363 . S
C2033 H2036 0.929 . S
C2034 C2033 1.363 . S
C2034 C2040 1.428 . S
H2035 C2031 0.930 . S
H2036 C2033 0.929 . S
S2037 N2038 1.613 . S
S2037 N2039 1.610 . S
N2038 S2037 1.613 . S
N2038 C2041 1.350 . S
N2039 S2037 1.610 . S
N2039 C2040 1.351 . S
C2040 C2034 1.428 . S
C2040 N2039 1.351 . S
C2040 C2041 1.434 . S
C2041 C2032 1.429 . S
C2041 N2038 1.350 . S
C2041 C2040 1.434 . S
C2042 C2043 1.369 . S
C2042 C2044 1.419 . S
C2042 H2046 0.930 . S
C2043 C2042 1.369 . S
C2043 C2052 1.429 . S
C2044 C2042 1.419 . S
C2044 C2045 1.363 . S
C2044 H2047 0.929 . S
C2045 C2044 1.363 . S
C2045 C2051 1.428 . S
H2046 C2042 0.930 . S
H2047 C2044 0.929 . S
S2048 N2049 1.613 . S
S2048 N2050 1.610 . S
N2049 S2048 1.613 . S
N2049 C2052 1.350 . S
N2050 S2048 1.610 . S
N2050 C2051 1.351 . S
C2051 C2045 1.428 . S
C2051 N2050 1.351 . S
C2051 C2052 1.434 . S
C2052 C2043 1.429 . S
C2052 N2049 1.350 . S
C2052 C2051 1.434 . S
C2053 C2054 1.369 . S
C2053 C2055 1.419 . S
C2053 H2057 0.930 . S
C2054 C2053 1.369 . S
C2054 C2063 1.429 . S
C2055 C2053 1.419 . S
C2055 C2056 1.363 . S
C2055 H2058 0.929 . S
C2056 C2055 1.363 . S
C2056 C2062 1.428 . S
H2057 C2053 0.930 . S
H2058 C2055 0.929 . S
S2059 N2060 1.613 . S
S2059 N2061 1.610 . S
N2060 S2059 1.613 . S
N2060 C2063 1.350 . S
N2061 S2059 1.610 . S
N2061 C2062 1.351 . S
C2062 C2056 1.428 . S
C2062 N2061 1.351 . S
C2062 C2063 1.434 . S
C2063 C2054 1.429 . S
C2063 N2060 1.350 . S
C2063 C2062 1.434 . S
C2064 C2065 1.369 . S
C2064 C2066 1.419 . S
C2064 H2068 0.930 . S
C2065 C2064 1.369 . S
C2065 C2074 1.429 . S
C2066 C2064 1.419 . S
C2066 C2067 1.363 . S
C2066 H2069 0.929 . S
C2067 C2066 1.363 . S
C2067 C2073 1.428 . S
H2068 C2064 0.930 . S
H2069 C2066 0.929 . S
S2070 N2071 1.613 . S
S2070 N2072 1.610 . S
N2071 S2070 1.613 . S
N2071 C2074 1.350 . S
N2072 S2070 1.610 . S
N2072 C2073 1.351 . S
C2073 C2067 1.428 . S
C2073 N2072 1.351 . S
C2073 C2074 1.434 . S
C2074 C2065 1.429 . S
C2074 N2071 1.350 . S
C2074 C2073 1.434 . S
C2075 C2076 1.369 . S
C2075 C2077 1.419 . S
C2075 H2079 0.930 . S
C2076 C2075 1.369 . S
C2076 C2085 1.429 . S
C2077 C2075 1.419 . S
C2077 C2078 1.363 . S
C2077 H2080 0.929 . S
C2078 C2077 1.363 . S
C2078 C2084 1.428 . S
H2079 C2075 0.930 . S
H2080 C2077 0.929 . S
S2081 N2082 1.613 . S
S2081 N2083 1.610 . S
N2082 S2081 1.613 . S
N2082 C2085 1.350 . S
N2083 S2081 1.610 . S
N2083 C2084 1.351 . S
C2084 C2078 1.428 . S
C2084 N2083 1.351 . S
C2084 C2085 1.434 . S
C2085 C2076 1.429 . S
C2085 N2082 1.350 . S
C2085 C2084 1.434 . S
C2086 C2087 1.369 . S
C2086 C2088 1.419 . S
C2086 H2090 0.930 . S
C2087 C2086 1.369 . S
C2087 C2096 1.429 . S
C2088 C2086 1.419 . S
C2088 C2089 1.363 . S
C2088 H2091 0.929 . S
C2089 C2088 1.363 . S
C2089 C2095 1.428 . S
H2090 C2086 0.930 . S
H2091 C2088 0.929 . S
S2092 N2093 1.613 . S
S2092 N2094 1.610 . S
N2093 S2092 1.613 . S
N2093 C2096 1.350 . S
N2094 S2092 1.610 . S
N2094 C2095 1.351 . S
C2095 C2089 1.428 . S
C2095 N2094 1.351 . S
C2095 C2096 1.434 . S
C2096 C2087 1.429 . S
C2096 N2093 1.350 . S
C2096 C2095 1.434 . S
C2097 C2098 1.369 . S
C2097 C2099 1.419 . S
C2097 H2101 0.930 . S
C2098 C2097 1.369 . S
C2098 C2107 1.429 . S
C2099 C2097 1.419 . S
C2099 C2100 1.363 . S
C2099 H2102 0.929 . S
C2100 C2099 1.363 . S
C2100 C2106 1.428 . S
H2101 C2097 0.930 . S
H2102 C2099 0.929 . S
S2103 N2104 1.613 . S
S2103 N2105 1.610 . S
N2104 S2103 1.613 . S
N2104 C2107 1.350 . S
N2105 S2103 1.610 . S
N2105 C2106 1.351 . S
C2106 C2100 1.428 . S
C2106 N2105 1.351 . S
C2106 C2107 1.434 . S
C2107 C2098 1.429 . S
C2107 N2104 1.350 . S
C2107 C2106 1.434 . S
C2108 C2109 1.369 . S
C2108 C2110 1.419 . S
C2108 H2112 0.930 . S
C2109 C2108 1.369 . S
C2109 C2118 1.429 . S
C2110 C2108 1.419 . S
C2110 C2111 1.363 . S
C2110 H2113 0.929 . S
C2111 C2110 1.363 . S
C2111 C2117 1.428 . S
H2112 C2108 0.930 . S
H2113 C2110 0.929 . S
S2114 N2115 1.613 . S
S2114 N2116 1.610 . S
N2115 S2114 1.613 . S
N2115 C2118 1.350 . S
N2116 S2114 1.610 . S
N2116 C2117 1.351 . S
C2117 C2111 1.428 . S
C2117 N2116 1.351 . S
C2117 C2118 1.434 . S
C2118 C2109 1.429 . S
C2118 N2115 1.350 . S
C2118 C2117 1.434 . S
C2119 C2120 1.369 . S
C2119 C2121 1.419 . S
C2119 H2123 0.930 . S
C2120 C2119 1.369 . S
C2120 C2129 1.429 . S
C2121 C2119 1.419 . S
C2121 C2122 1.363 . S
C2121 H2124 0.929 . S
C2122 C2121 1.363 . S
C2122 C2128 1.428 . S
H2123 C2119 0.930 . S
H2124 C2121 0.929 . S
S2125 N2126 1.613 . S
S2125 N2127 1.610 . S
N2126 S2125 1.613 . S
N2126 C2129 1.350 . S
N2127 S2125 1.610 . S
N2127 C2128 1.351 . S
C2128 C2122 1.428 . S
C2128 N2127 1.351 . S
C2128 C2129 1.434 . S
C2129 C2120 1.429 . S
C2129 N2126 1.350 . S
C2129 C2128 1.434 . S
C2130 C2131 1.369 . S
C2130 C2132 1.419 . S
C2130 H2134 0.930 . S
C2131 C2130 1.369 . S
C2131 C2140 1.429 . S
C2132 C2130 1.419 . S
C2132 C2133 1.363 . S
C2132 H2135 0.929 . S
C2133 C2132 1.363 . S
C2133 C2139 1.428 . S
H2134 C2130 0.930 . S
H2135 C2132 0.929 . S
S2136 N2137 1.613 . S
S2136 N2138 1.610 . S
N2137 S2136 1.613 . S
N2137 C2140 1.350 . S
N2138 S2136 1.610 . S
N2138 C2139 1.351 . S
C2139 C2133 1.428 . S
C2139 N2138 1.351 . S
C2139 C2140 1.434 . S
C2140 C2131 1.429 . S
C2140 N2137 1.350 . S
C2140 C2139 1.434 . S
C2141 C2142 1.369 . S
C2141 C2143 1.419 . S
C2141 H2145 0.930 . S
C2142 C2141 1.369 . S
C2142 C2151 1.429 . S
C2143 C2141 1.419 . S
C2143 C2144 1.363 . S
C2143 H2146 0.929 . S
C2144 C2143 1.363 . S
C2144 C2150 1.428 . S
H2145 C2141 0.930 . S
H2146 C2143 0.929 . S
S2147 N2148 1.613 . S
S2147 N2149 1.610 . S
N2148 S2147 1.613 . S
N2148 C2151 1.350 . S
N2149 S2147 1.610 . S
N2149 C2150 1.351 . S
C2150 C2144 1.428 . S
C2150 N2149 1.351 . S
C2150 C2151 1.434 . S
C2151 C2142 1.429 . S
C2151 N2148 1.350 . S
C2151 C2150 1.434 . S
C2152 C2153 1.369 . S
C2152 C2154 1.419 . S
C2152 H2156 0.930 . S
C2153 C2152 1.369 . S
C2153 C2162 1.429 . S
C2154 C2152 1.419 . S
C2154 C2155 1.363 . S
C2154 H2157 0.929 . S
C2155 C2154 1.363 . S
C2155 C2161 1.428 . S
H2156 C2152 0.930 . S
H2157 C2154 0.929 . S
S2158 N2159 1.613 . S
S2158 N2160 1.610 . S
N2159 S2158 1.613 . S
N2159 C2162 1.350 . S
N2160 S2158 1.610 . S
N2160 C2161 1.351 . S
C2161 C2155 1.428 . S
C2161 N2160 1.351 . S
C2161 C2162 1.434 . S
C2162 C2153 1.429 . S
C2162 N2159 1.350 . S
C2162 C2161 1.434 . S
C2163 C2164 1.369 . S
C2163 C2165 1.419 . S
C2163 H2167 0.930 . S
C2164 C2163 1.369 . S
C2164 C2173 1.429 . S
C2165 C2163 1.419 . S
C2165 C2166 1.363 . S
C2165 H2168 0.929 . S
C2166 C2165 1.363 . S
C2166 C2172 1.428 . S
H2167 C2163 0.930 . S
H2168 C2165 0.929 . S
S2169 N2170 1.613 . S
S2169 N2171 1.610 . S
N2170 S2169 1.613 . S
N2170 C2173 1.350 . S
N2171 S2169 1.610 . S
N2171 C2172 1.351 . S
C2172 C2166 1.428 . S
C2172 N2171 1.351 . S
C2172 C2173 1.434 . S
C2173 C2164 1.429 . S
C2173 N2170 1.350 . S
C2173 C2172 1.434 . S
C2174 C2175 1.369 . S
C2174 C2176 1.419 . S
C2174 H2178 0.930 . S
C2175 C2174 1.369 . S
C2175 C2184 1.429 . S
C2176 C2174 1.419 . S
C2176 C2177 1.363 . S
C2176 H2179 0.929 . S
C2177 C2176 1.363 . S
C2177 C2183 1.428 . S
H2178 C2174 0.930 . S
H2179 C2176 0.929 . S
S2180 N2181 1.613 . S
S2180 N2182 1.610 . S
N2181 S2180 1.613 . S
N2181 C2184 1.350 . S
N2182 S2180 1.610 . S
N2182 C2183 1.351 . S
C2183 C2177 1.428 . S
C2183 N2182 1.351 . S
C2183 C2184 1.434 . S
C2184 C2175 1.429 . S
C2184 N2181 1.350 . S
C2184 C2183 1.434 . S
C2185 C2186 1.369 . S
C2185 C2187 1.419 . S
C2185 H2189 0.930 . S
C2186 C2185 1.369 . S
C2186 C2195 1.429 . S
C2187 C2185 1.419 . S
C2187 C2188 1.363 . S
C2187 H2190 0.929 . S
C2188 C2187 1.363 . S
C2188 C2194 1.428 . S
H2189 C2185 0.930 . S
H2190 C2187 0.929 . S
S2191 N2192 1.613 . S
S2191 N2193 1.610 . S
N2192 S2191 1.613 . S
N2192 C2195 1.350 . S
N2193 S2191 1.610 . S
N2193 C2194 1.351 . S
C2194 C2188 1.428 . S
C2194 N2193 1.351 . S
C2194 C2195 1.434 . S
C2195 C2186 1.429 . S
C2195 N2192 1.350 . S
C2195 C2194 1.434 . S
C2196 C2197 1.369 . S
C2196 C2198 1.419 . S
C2196 H2200 0.930 . S
C2197 C2196 1.369 . S
C2197 C2206 1.429 . S
C2198 C2196 1.419 . S
C2198 C2199 1.363 . S
C2198 H2201 0.929 . S
C2199 C2198 1.363 . S
C2199 C2205 1.428 . S
H2200 C2196 0.930 . S
H2201 C2198 0.929 . S
S2202 N2203 1.613 . S
S2202 N2204 1.610 . S
N2203 S2202 1.613 . S
N2203 C2206 1.350 . S
N2204 S2202 1.610 . S
N2204 C2205 1.351 . S
C2205 C2199 1.428 . S
C2205 N2204 1.351 . S
C2205 C2206 1.434 . S
C2206 C2197 1.429 . S
C2206 N2203 1.350 . S
C2206 C2205 1.434 . S
C2207 C2208 1.369 . S
C2207 C2209 1.419 . S
C2207 H2211 0.930 . S
C2208 C2207 1.369 . S
C2208 C2217 1.429 . S
C2209 C2207 1.419 . S
C2209 C2210 1.363 . S
C2209 H2212 0.929 . S
C2210 C2209 1.363 . S
C2210 C2216 1.428 . S
H2211 C2207 0.930 . S
H2212 C2209 0.929 . S
S2213 N2214 1.613 . S
S2213 N2215 1.610 . S
N2214 S2213 1.613 . S
N2214 C2217 1.350 . S
N2215 S2213 1.610 . S
N2215 C2216 1.351 . S
C2216 C2210 1.428 . S
C2216 N2215 1.351 . S
C2216 C2217 1.434 . S
C2217 C2208 1.429 . S
C2217 N2214 1.350 . S
C2217 C2216 1.434 . S
C2218 C2219 1.369 . S
C2218 C2220 1.419 . S
C2218 H2222 0.930 . S
C2219 C2218 1.369 . S
C2219 C2228 1.429 . S
C2220 C2218 1.419 . S
C2220 C2221 1.363 . S
C2220 H2223 0.929 . S
C2221 C2220 1.363 . S
C2221 C2227 1.428 . S
H2222 C2218 0.930 . S
H2223 C2220 0.929 . S
S2224 N2225 1.613 . S
S2224 N2226 1.610 . S
N2225 S2224 1.613 . S
N2225 C2228 1.350 . S
N2226 S2224 1.610 . S
N2226 C2227 1.351 . S
C2227 C2221 1.428 . S
C2227 N2226 1.351 . S
C2227 C2228 1.434 . S
C2228 C2219 1.429 . S
C2228 N2225 1.350 . S
C2228 C2227 1.434 . S
C2229 C2230 1.369 . S
C2229 C2231 1.419 . S
C2229 H2233 0.930 . S
C2230 C2229 1.369 . S
C2230 C2239 1.429 . S
C2231 C2229 1.419 . S
C2231 C2232 1.363 . S
C2231 H2234 0.929 . S
C2232 C2231 1.363 . S
C2232 C2238 1.428 . S
H2233 C2229 0.930 . S
H2234 C2231 0.929 . S
S2235 N2236 1.613 . S
S2235 N2237 1.610 . S
N2236 S2235 1.613 . S
N2236 C2239 1.350 . S
N2237 S2235 1.610 . S
N2237 C2238 1.351 . S
C2238 C2232 1.428 . S
C2238 N2237 1.351 . S
C2238 C2239 1.434 . S
C2239 C2230 1.429 . S
C2239 N2236 1.350 . S
C2239 C2238 1.434 . S
C2240 C2241 1.369 . S
C2240 C2242 1.419 . S
C2240 H2244 0.930 . S
C2241 C2240 1.369 . S
C2241 C2250 1.429 . S
C2242 C2240 1.419 . S
C2242 C2243 1.363 . S
C2242 H2245 0.929 . S
C2243 C2242 1.363 . S
C2243 C2249 1.428 . S
H2244 C2240 0.930 . S
H2245 C2242 0.929 . S
S2246 N2247 1.613 . S
S2246 N2248 1.610 . S
N2247 S2246 1.613 . S
N2247 C2250 1.350 . S
N2248 S2246 1.610 . S
N2248 C2249 1.351 . S
C2249 C2243 1.428 . S
C2249 N2248 1.351 . S
C2249 C2250 1.434 . S
C2250 C2241 1.429 . S
C2250 N2247 1.350 . S
C2250 C2249 1.434 . S
C2251 C2252 1.369 . S
C2251 C2253 1.419 . S
C2251 H2255 0.930 . S
C2252 C2251 1.369 . S
C2252 C2261 1.429 . S
C2253 C2251 1.419 . S
C2253 C2254 1.363 . S
C2253 H2256 0.929 . S
C2254 C2253 1.363 . S
C2254 C2260 1.428 . S
H2255 C2251 0.930 . S
H2256 C2253 0.929 . S
S2257 N2258 1.613 . S
S2257 N2259 1.610 . S
N2258 S2257 1.613 . S
N2258 C2261 1.350 . S
N2259 S2257 1.610 . S
N2259 C2260 1.351 . S
C2260 C2254 1.428 . S
C2260 N2259 1.351 . S
C2260 C2261 1.434 . S
C2261 C2252 1.429 . S
C2261 N2258 1.350 . S
C2261 C2260 1.434 . S
C2262 C2263 1.369 . S
C2262 C2264 1.419 . S
C2262 H2266 0.930 . S
C2263 C2262 1.369 . S
C2263 C2272 1.429 . S
C2264 C2262 1.419 . S
C2264 C2265 1.363 . S
C2264 H2267 0.929 . S
C2265 C2264 1.363 . S
C2265 C2271 1.428 . S
H2266 C2262 0.930 . S
H2267 C2264 0.929 . S
S2268 N2269 1.613 . S
S2268 N2270 1.610 . S
N2269 S2268 1.613 . S
N2269 C2272 1.350 . S
N2270 S2268 1.610 . S
N2270 C2271 1.351 . S
C2271 C2265 1.428 . S
C2271 N2270 1.351 . S
C2271 C2272 1.434 . S
C2272 C2263 1.429 . S
C2272 N2269 1.350 . S
C2272 C2271 1.434 . S
C2273 C2274 1.369 . S
C2273 C2275 1.419 . S
C2273 H2277 0.930 . S
C2274 C2273 1.369 . S
C2274 C2283 1.429 . S
C2275 C2273 1.419 . S
C2275 C2276 1.363 . S
C2275 H2278 0.929 . S
C2276 C2275 1.363 . S
C2276 C2282 1.428 . S
H2277 C2273 0.930 . S
H2278 C2275 0.929 . S
S2279 N2280 1.613 . S
S2279 N2281 1.610 . S
N2280 S2279 1.613 . S
N2280 C2283 1.350 . S
N2281 S2279 1.610 . S
N2281 C2282 1.351 . S
C2282 C2276 1.428 . S
C2282 N2281 1.351 . S
C2282 C2283 1.434 . S
C2283 C2274 1.429 . S
C2283 N2280 1.350 . S
C2283 C2282 1.434 . S
C2284 C2285 1.369 . S
C2284 C2286 1.419 . S
C2284 H2288 0.930 . S
C2285 C2284 1.369 . S
C2285 C2294 1.429 . S
C2286 C2284 1.419 . S
C2286 C2287 1.363 . S
C2286 H2289 0.929 . S
C2287 C2286 1.363 . S
C2287 C2293 1.428 . S
H2288 C2284 0.930 . S
H2289 C2286 0.929 . S
S2290 N2291 1.613 . S
S2290 N2292 1.610 . S
N2291 S2290 1.613 . S
N2291 C2294 1.350 . S
N2292 S2290 1.610 . S
N2292 C2293 1.351 . S
C2293 C2287 1.428 . S
C2293 N2292 1.351 . S
C2293 C2294 1.434 . S
C2294 C2285 1.429 . S
C2294 N2291 1.350 . S
C2294 C2293 1.434 . S
C2295 C2296 1.369 . S
C2295 C2297 1.419 . S
C2295 H2299 0.930 . S
C2296 C2295 1.369 . S
C2296 C2305 1.429 . S
C2297 C2295 1.419 . S
C2297 C2298 1.363 . S
C2297 H2300 0.929 . S
C2298 C2297 1.363 . S
C2298 C2304 1.428 . S
H2299 C2295 0.930 . S
H2300 C2297 0.929 . S
S2301 N2302 1.613 . S
S2301 N2303 1.610 . S
N2302 S2301 1.613 . S
N2302 C2305 1.350 . S
N2303 S2301 1.610 . S
N2303 C2304 1.351 . S
C2304 C2298 1.428 . S
C2304 N2303 1.351 . S
C2304 C2305 1.434 . S
C2305 C2296 1.429 . S
C2305 N2302 1.350 . S
C2305 C2304 1.434 . S
C2306 C2307 1.369 . S
C2306 C2308 1.419 . S
C2306 H2310 0.930 . S
C2307 C2306 1.369 . S
C2307 C2316 1.429 . S
C2308 C2306 1.419 . S
C2308 C2309 1.363 . S
C2308 H2311 0.929 . S
C2309 C2308 1.363 . S
C2309 C2315 1.428 . S
H2310 C2306 0.930 . S
H2311 C2308 0.929 . S
S2312 N2313 1.613 . S
S2312 N2314 1.610 . S
N2313 S2312 1.613 . S
N2313 C2316 1.350 . S
N2314 S2312 1.610 . S
N2314 C2315 1.351 . S
C2315 C2309 1.428 . S
C2315 N2314 1.351 . S
C2315 C2316 1.434 . S
C2316 C2307 1.429 . S
C2316 N2313 1.350 . S
C2316 C2315 1.434 . S
C2317 C2318 1.369 . S
C2317 C2319 1.419 . S
C2317 H2321 0.930 . S
C2318 C2317 1.369 . S
C2318 C2327 1.429 . S
C2319 C2317 1.419 . S
C2319 C2320 1.363 . S
C2319 H2322 0.929 . S
C2320 C2319 1.363 . S
C2320 C2326 1.428 . S
H2321 C2317 0.930 . S
H2322 C2319 0.929 . S
S2323 N2324 1.613 . S
S2323 N2325 1.610 . S
N2324 S2323 1.613 . S
N2324 C2327 1.350 . S
N2325 S2323 1.610 . S
N2325 C2326 1.351 . S
C2326 C2320 1.428 . S
C2326 N2325 1.351 . S
C2326 C2327 1.434 . S
C2327 C2318 1.429 . S
C2327 N2324 1.350 . S
C2327 C2326 1.434 . S
C2328 C2329 1.369 . S
C2328 C2330 1.419 . S
C2328 H2332 0.930 . S
C2329 C2328 1.369 . S
C2329 C2338 1.429 . S
C2330 C2328 1.419 . S
C2330 C2331 1.363 . S
C2330 H2333 0.929 . S
C2331 C2330 1.363 . S
C2331 C2337 1.428 . S
H2332 C2328 0.930 . S
H2333 C2330 0.929 . S
S2334 N2335 1.613 . S
S2334 N2336 1.610 . S
N2335 S2334 1.613 . S
N2335 C2338 1.350 . S
N2336 S2334 1.610 . S
N2336 C2337 1.351 . S
C2337 C2331 1.428 . S
C2337 N2336 1.351 . S
C2337 C2338 1.434 . S
C2338 C2329 1.429 . S
C2338 N2335 1.350 . S
C2338 C2337 1.434 . S
C2339 C2340 1.369 . S
C2339 C2341 1.419 . S
C2339 H2343 0.930 . S
C2340 C2339 1.369 . S
C2340 C2349 1.429 . S
C2341 C2339 1.419 . S
C2341 C2342 1.363 . S
C2341 H2344 0.929 . S
C2342 C2341 1.363 . S
C2342 C2348 1.428 . S
H2343 C2339 0.930 . S
H2344 C2341 0.929 . S
S2345 N2346 1.613 . S
S2345 N2347 1.610 . S
N2346 S2345 1.613 . S
N2346 C2349 1.350 . S
N2347 S2345 1.610 . S
N2347 C2348 1.351 . S
C2348 C2342 1.428 . S
C2348 N2347 1.351 . S
C2348 C2349 1.434 . S
C2349 C2340 1.429 . S
C2349 N2346 1.350 . S
C2349 C2348 1.434 . S
C2350 C2351 1.369 . S
C2350 C2352 1.419 . S
C2350 H2354 0.930 . S
C2351 C2350 1.369 . S
C2351 C2360 1.429 . S
C2352 C2350 1.419 . S
C2352 C2353 1.363 . S
C2352 H2355 0.929 . S
C2353 C2352 1.363 . S
C2353 C2359 1.428 . S
H2354 C2350 0.930 . S
H2355 C2352 0.929 . S
S2356 N2357 1.613 . S
S2356 N2358 1.610 . S
N2357 S2356 1.613 . S
N2357 C2360 1.350 . S
N2358 S2356 1.610 . S
N2358 C2359 1.351 . S
C2359 C2353 1.428 . S
C2359 N2358 1.351 . S
C2359 C2360 1.434 . S
C2360 C2351 1.429 . S
C2360 N2357 1.350 . S
C2360 C2359 1.434 . S
C2361 C2362 1.369 . S
C2361 C2363 1.419 . S
C2361 H2365 0.930 . S
C2362 C2361 1.369 . S
C2362 C2371 1.429 . S
C2363 C2361 1.419 . S
C2363 C2364 1.363 . S
C2363 H2366 0.929 . S
C2364 C2363 1.363 . S
C2364 C2370 1.428 . S
H2365 C2361 0.930 . S
H2366 C2363 0.929 . S
S2367 N2368 1.613 . S
S2367 N2369 1.610 . S
N2368 S2367 1.613 . S
N2368 C2371 1.350 . S
N2369 S2367 1.610 . S
N2369 C2370 1.351 . S
C2370 C2364 1.428 . S
C2370 N2369 1.351 . S
C2370 C2371 1.434 . S
C2371 C2362 1.429 . S
C2371 N2368 1.350 . S
C2371 C2370 1.434 . S
C2372 C2373 1.369 . S
C2372 C2374 1.419 . S
C2372 H2376 0.930 . S
C2373 C2372 1.369 . S
C2373 C2382 1.429 . S
C2374 C2372 1.419 . S
C2374 C2375 1.363 . S
C2374 H2377 0.929 . S
C2375 C2374 1.363 . S
C2375 C2381 1.428 . S
H2376 C2372 0.930 . S
H2377 C2374 0.929 . S
S2378 N2379 1.613 . S
S2378 N2380 1.610 . S
N2379 S2378 1.613 . S
N2379 C2382 1.350 . S
N2380 S2378 1.610 . S
N2380 C2381 1.351 . S
C2381 C2375 1.428 . S
C2381 N2380 1.351 . S
C2381 C2382 1.434 . S
C2382 C2373 1.429 . S
C2382 N2379 1.350 . S
C2382 C2381 1.434 . S
C2383 C2384 1.369 . S
C2383 C2385 1.419 . S
C2383 H2387 0.930 . S
C2384 C2383 1.369 . S
C2384 C2393 1.429 . S
C2385 C2383 1.419 . S
C2385 C2386 1.363 . S
C2385 H2388 0.929 . S
C2386 C2385 1.363 . S
C2386 C2392 1.428 . S
H2387 C2383 0.930 . S
H2388 C2385 0.929 . S
S2389 N2390 1.613 . S
S2389 N2391 1.610 . S
N2390 S2389 1.613 . S
N2390 C2393 1.350 . S
N2391 S2389 1.610 . S
N2391 C2392 1.351 . S
C2392 C2386 1.428 . S
C2392 N2391 1.351 . S
C2392 C2393 1.434 . S
C2393 C2384 1.429 . S
C2393 N2390 1.350 . S
C2393 C2392 1.434 . S
C2394 C2395 1.369 . S
C2394 C2396 1.419 . S
C2394 H2398 0.930 . S
C2395 C2394 1.369 . S
C2395 C2404 1.429 . S
C2396 C2394 1.419 . S
C2396 C2397 1.363 . S
C2396 H2399 0.929 . S
C2397 C2396 1.363 . S
C2397 C2403 1.428 . S
H2398 C2394 0.930 . S
H2399 C2396 0.929 . S
S2400 N2401 1.613 . S
S2400 N2402 1.610 . S
N2401 S2400 1.613 . S
N2401 C2404 1.350 . S
N2402 S2400 1.610 . S
N2402 C2403 1.351 . S
C2403 C2397 1.428 . S
C2403 N2402 1.351 . S
C2403 C2404 1.434 . S
C2404 C2395 1.429 . S
C2404 N2401 1.350 . S
C2404 C2403 1.434 . S
C2405 C2406 1.369 . S
C2405 C2407 1.419 . S
C2405 H2409 0.930 . S
C2406 C2405 1.369 . S
C2406 C2415 1.429 . S
C2407 C2405 1.419 . S
C2407 C2408 1.363 . S
C2407 H2410 0.929 . S
C2408 C2407 1.363 . S
C2408 C2414 1.428 . S
H2409 C2405 0.930 . S
H2410 C2407 0.929 . S
S2411 N2412 1.613 . S
S2411 N2413 1.610 . S
N2412 S2411 1.613 . S
N2412 C2415 1.350 . S
N2413 S2411 1.610 . S
N2413 C2414 1.351 . S
C2414 C2408 1.428 . S
C2414 N2413 1.351 . S
C2414 C2415 1.434 . S
C2415 C2406 1.429 . S
C2415 N2412 1.350 . S
C2415 C2414 1.434 . S
C2416 C2417 1.369 . S
C2416 C2418 1.419 . S
C2416 H2420 0.930 . S
C2417 C2416 1.369 . S
C2417 C2426 1.429 . S
C2418 C2416 1.419 . S
C2418 C2419 1.363 . S
C2418 H2421 0.929 . S
C2419 C2418 1.363 . S
C2419 C2425 1.428 . S
H2420 C2416 0.930 . S
H2421 C2418 0.929 . S
S2422 N2423 1.613 . S
S2422 N2424 1.610 . S
N2423 S2422 1.613 . S
N2423 C2426 1.350 . S
N2424 S2422 1.610 . S
N2424 C2425 1.351 . S
C2425 C2419 1.428 . S
C2425 N2424 1.351 . S
C2425 C2426 1.434 . S
C2426 C2417 1.429 . S
C2426 N2423 1.350 . S
C2426 C2425 1.434 . S
C2427 C2428 1.369 . S
C2427 C2429 1.419 . S
C2427 H2431 0.930 . S
C2428 C2427 1.369 . S
C2428 C2437 1.429 . S
C2429 C2427 1.419 . S
C2429 C2430 1.363 . S
C2429 H2432 0.929 . S
C2430 C2429 1.363 . S
C2430 C2436 1.428 . S
H2431 C2427 0.930 . S
H2432 C2429 0.929 . S
S2433 N2434 1.613 . S
S2433 N2435 1.610 . S
N2434 S2433 1.613 . S
N2434 C2437 1.350 . S
N2435 S2433 1.610 . S
N2435 C2436 1.351 . S
C2436 C2430 1.428 . S
C2436 N2435 1.351 . S
C2436 C2437 1.434 . S
C2437 C2428 1.429 . S
C2437 N2434 1.350 . S
C2437 C2436 1.434 . S
C2438 C2439 1.369 . S
C2438 C2440 1.419 . S
C2438 H2442 0.930 . S
C2439 C2438 1.369 . S
C2439 C2448 1.429 . S
C2440 C2438 1.419 . S
C2440 C2441 1.363 . S
C2440 H2443 0.929 . S
C2441 C2440 1.363 . S
C2441 C2447 1.428 . S
H2442 C2438 0.930 . S
H2443 C2440 0.929 . S
S2444 N2445 1.613 . S
S2444 N2446 1.610 . S
N2445 S2444 1.613 . S
N2445 C2448 1.350 . S
N2446 S2444 1.610 . S
N2446 C2447 1.351 . S
C2447 C2441 1.428 . S
C2447 N2446 1.351 . S
C2447 C2448 1.434 . S
C2448 C2439 1.429 . S
C2448 N2445 1.350 . S
C2448 C2447 1.434 . S
C2449 C2450 1.369 . S
C2449 C2451 1.419 . S
C2449 H2453 0.930 . S
C2450 C2449 1.369 . S
C2450 C2459 1.429 . S
C2451 C2449 1.419 . S
C2451 C2452 1.363 . S
C2451 H2454 0.929 . S
C2452 C2451 1.363 . S
C2452 C2458 1.428 . S
H2453 C2449 0.930 . S
H2454 C2451 0.929 . S
S2455 N2456 1.613 . S
S2455 N2457 1.610 . S
N2456 S2455 1.613 . S
N2456 C2459 1.350 . S
N2457 S2455 1.610 . S
N2457 C2458 1.351 . S
C2458 C2452 1.428 . S
C2458 N2457 1.351 . S
C2458 C2459 1.434 . S
C2459 C2450 1.429 . S
C2459 N2456 1.350 . S
C2459 C2458 1.434 . S
C2460 C2461 1.369 . S
C2460 C2462 1.419 . S
C2460 H2464 0.930 . S
C2461 C2460 1.369 . S
C2461 C2470 1.429 . S
C2462 C2460 1.419 . S
C2462 C2463 1.363 . S
C2462 H2465 0.929 . S
C2463 C2462 1.363 . S
C2463 C2469 1.428 . S
H2464 C2460 0.930 . S
H2465 C2462 0.929 . S
S2466 N2467 1.613 . S
S2466 N2468 1.610 . S
N2467 S2466 1.613 . S
N2467 C2470 1.350 . S
N2468 S2466 1.610 . S
N2468 C2469 1.351 . S
C2469 C2463 1.428 . S
C2469 N2468 1.351 . S
C2469 C2470 1.434 . S
C2470 C2461 1.429 . S
C2470 N2467 1.350 . S
C2470 C2469 1.434 . S
C2471 C2472 1.369 . S
C2471 C2473 1.419 . S
C2471 H2475 0.930 . S
C2472 C2471 1.369 . S
C2472 C2481 1.429 . S
C2473 C2471 1.419 . S
C2473 C2474 1.363 . S
C2473 H2476 0.929 . S
C2474 C2473 1.363 . S
C2474 C2480 1.428 . S
H2475 C2471 0.930 . S
H2476 C2473 0.929 . S
S2477 N2478 1.613 . S
S2477 N2479 1.610 . S
N2478 S2477 1.613 . S
N2478 C2481 1.350 . S
N2479 S2477 1.610 . S
N2479 C2480 1.351 . S
C2480 C2474 1.428 . S
C2480 N2479 1.351 . S
C2480 C2481 1.434 . S
C2481 C2472 1.429 . S
C2481 N2478 1.350 . S
C2481 C2480 1.434 . S
C2482 C2483 1.369 . S
C2482 C2484 1.419 . S
C2482 H2486 0.930 . S
C2483 C2482 1.369 . S
C2483 C2492 1.429 . S
C2484 C2482 1.419 . S
C2484 C2485 1.363 . S
C2484 H2487 0.929 . S
C2485 C2484 1.363 . S
C2485 C2491 1.428 . S
H2486 C2482 0.930 . S
H2487 C2484 0.929 . S
S2488 N2489 1.613 . S
S2488 N2490 1.610 . S
N2489 S2488 1.613 . S
N2489 C2492 1.350 . S
N2490 S2488 1.610 . S
N2490 C2491 1.351 . S
C2491 C2485 1.428 . S
C2491 N2490 1.351 . S
C2491 C2492 1.434 . S
C2492 C2483 1.429 . S
C2492 N2489 1.350 . S
C2492 C2491 1.434 . S
C2493 C2494 1.369 . S
C2493 C2495 1.419 . S
C2493 H2497 0.930 . S
C2494 C2493 1.369 . S
C2494 C2503 1.429 . S
C2495 C2493 1.419 . S
C2495 C2496 1.363 . S
C2495 H2498 0.929 . S
C2496 C2495 1.363 . S
C2496 C2502 1.428 . S
H2497 C2493 0.930 . S
H2498 C2495 0.929 . S
S2499 N2500 1.613 . S
S2499 N2501 1.610 . S
N2500 S2499 1.613 . S
N2500 C2503 1.350 . S
N2501 S2499 1.610 . S
N2501 C2502 1.351 . S
C2502 C2496 1.428 . S
C2502 N2501 1.351 . S
C2502 C2503 1.434 . S
C2503 C2494 1.429 . S
C2503 N2500 1.350 . S
C2503 C2502 1.434 . S
C2504 C2505 1.369 . S
C2504 C2506 1.419 . S
C2504 H2508 0.930 . S
C2505 C2504 1.369 . S
C2505 C2514 1.429 . S
C2506 C2504 1.419 . S
C2506 C2507 1.363 . S
C2506 H2509 0.929 . S
C2507 C2506 1.363 . S
C2507 C2513 1.428 . S
H2508 C2504 0.930 . S
H2509 C2506 0.929 . S
S2510 N2511 1.613 . S
S2510 N2512 1.610 . S
N2511 S2510 1.613 . S
N2511 C2514 1.350 . S
N2512 S2510 1.610 . S
N2512 C2513 1.351 . S
C2513 C2507 1.428 . S
C2513 N2512 1.351 . S
C2513 C2514 1.434 . S
C2514 C2505 1.429 . S
C2514 N2511 1.350 . S
C2514 C2513 1.434 . S
C2515 C2516 1.369 . S
C2515 C2517 1.419 . S
C2515 H2519 0.930 . S
C2516 C2515 1.369 . S
C2516 C2525 1.429 . S
C2517 C2515 1.419 . S
C2517 C2518 1.363 . S
C2517 H2520 0.929 . S
C2518 C2517 1.363 . S
C2518 C2524 1.428 . S
H2519 C2515 0.930 . S
H2520 C2517 0.929 . S
S2521 N2522 1.613 . S
S2521 N2523 1.610 . S
N2522 S2521 1.613 . S
N2522 C2525 1.350 . S
N2523 S2521 1.610 . S
N2523 C2524 1.351 . S
C2524 C2518 1.428 . S
C2524 N2523 1.351 . S
C2524 C2525 1.434 . S
C2525 C2516 1.429 . S
C2525 N2522 1.350 . S
C2525 C2524 1.434 . S
C2526 C2527 1.369 . S
C2526 C2528 1.419 . S
C2526 H2530 0.930 . S
C2527 C2526 1.369 . S
C2527 C2536 1.429 . S
C2528 C2526 1.419 . S
C2528 C2529 1.363 . S
C2528 H2531 0.929 . S
C2529 C2528 1.363 . S
C2529 C2535 1.428 . S
H2530 C2526 0.930 . S
H2531 C2528 0.929 . S
S2532 N2533 1.613 . S
S2532 N2534 1.610 . S
N2533 S2532 1.613 . S
N2533 C2536 1.350 . S
N2534 S2532 1.610 . S
N2534 C2535 1.351 . S
C2535 C2529 1.428 . S
C2535 N2534 1.351 . S
C2535 C2536 1.434 . S
C2536 C2527 1.429 . S
C2536 N2533 1.350 . S
C2536 C2535 1.434 . S
C2537 C2538 1.369 . S
C2537 C2539 1.419 . S
C2537 H2541 0.930 . S
C2538 C2537 1.369 . S
C2538 C2547 1.429 . S
C2539 C2537 1.419 . S
C2539 C2540 1.363 . S
C2539 H2542 0.929 . S
C2540 C2539 1.363 . S
C2540 C2546 1.428 . S
H2541 C2537 0.930 . S
H2542 C2539 0.929 . S
S2543 N2544 1.613 . S
S2543 N2545 1.610 . S
N2544 S2543 1.613 . S
N2544 C2547 1.350 . S
N2545 S2543 1.610 . S
N2545 C2546 1.351 . S
C2546 C2540 1.428 . S
C2546 N2545 1.351 . S
C2546 C2547 1.434 . S
C2547 C2538 1.429 . S
C2547 N2544 1.350 . S
C2547 C2546 1.434 . S
C2548 C2549 1.369 . S
C2548 C2550 1.419 . S
C2548 H2552 0.930 . S
C2549 C2548 1.369 . S
C2549 C2558 1.429 . S
C2550 C2548 1.419 . S
C2550 C2551 1.363 . S
C2550 H2553 0.929 . S
C2551 C2550 1.363 . S
C2551 C2557 1.428 . S
H2552 C2548 0.930 . S
H2553 C2550 0.929 . S
S2554 N2555 1.613 . S
S2554 N2556 1.610 . S
N2555 S2554 1.613 . S
N2555 C2558 1.350 . S
N2556 S2554 1.610 . S
N2556 C2557 1.351 . S
C2557 C2551 1.428 . S
C2557 N2556 1.351 . S
C2557 C2558 1.434 . S
C2558 C2549 1.429 . S
C2558 N2555 1.350 . S
C2558 C2557 1.434 . S
C2559 C2560 1.369 . S
C2559 C2561 1.419 . S
C2559 H2563 0.930 . S
C2560 C2559 1.369 . S
C2560 C2569 1.429 . S
C2561 C2559 1.419 . S
C2561 C2562 1.363 . S
C2561 H2564 0.929 . S
C2562 C2561 1.363 . S
C2562 C2568 1.428 . S
H2563 C2559 0.930 . S
H2564 C2561 0.929 . S
S2565 N2566 1.613 . S
S2565 N2567 1.610 . S
N2566 S2565 1.613 . S
N2566 C2569 1.350 . S
N2567 S2565 1.610 . S
N2567 C2568 1.351 . S
C2568 C2562 1.428 . S
C2568 N2567 1.351 . S
C2568 C2569 1.434 . S
C2569 C2560 1.429 . S
C2569 N2566 1.350 . S
C2569 C2568 1.434 . S
C2570 C2571 1.369 . S
C2570 C2572 1.419 . S
C2570 H2574 0.930 . S
C2571 C2570 1.369 . S
C2571 C2580 1.429 . S
C2572 C2570 1.419 . S
C2572 C2573 1.363 . S
C2572 H2575 0.929 . S
C2573 C2572 1.363 . S
C2573 C2579 1.428 . S
H2574 C2570 0.930 . S
H2575 C2572 0.929 . S
S2576 N2577 1.613 . S
S2576 N2578 1.610 . S
N2577 S2576 1.613 . S
N2577 C2580 1.350 . S
N2578 S2576 1.610 . S
N2578 C2579 1.351 . S
C2579 C2573 1.428 . S
C2579 N2578 1.351 . S
C2579 C2580 1.434 . S
C2580 C2571 1.429 . S
C2580 N2577 1.350 . S
C2580 C2579 1.434 . S
C2581 C2582 1.369 . S
C2581 C2583 1.419 . S
C2581 H2585 0.930 . S
C2582 C2581 1.369 . S
C2582 C2591 1.429 . S
C2583 C2581 1.419 . S
C2583 C2584 1.363 . S
C2583 H2586 0.929 . S
C2584 C2583 1.363 . S
C2584 C2590 1.428 . S
H2585 C2581 0.930 . S
H2586 C2583 0.929 . S
S2587 N2588 1.613 . S
S2587 N2589 1.610 . S
N2588 S2587 1.613 . S
N2588 C2591 1.350 . S
N2589 S2587 1.610 . S
N2589 C2590 1.351 . S
C2590 C2584 1.428 . S
C2590 N2589 1.351 . S
C2590 C2591 1.434 . S
C2591 C2582 1.429 . S
C2591 N2588 1.350 . S
C2591 C2590 1.434 . S
C1009 C130 1.424 . S
C1011 C4 1.434 1_455 S
C1020 C154 1.435 . S
C1022 C25 1.425 1_545 S
C1031 C88 1.430 1_455 S
C1033 C46 1.429 . S
C1042 C109 1.435 1_545 S
C1044 C67 1.424 . S
C1053 C217 1.428 . S
C1055 C172 1.431 1_545 S
C1064 C235 1.428 1_455 S
C1066 C193 1.429 . S
C1075 C301 1.435 1_545 S
C1077 C256 1.425 . S
C1086 C322 1.425 . S
C1088 C280 1.431 1_455 S
C1097 C361 1.435 . S
C1099 C343 1.425 1_554 S
C1108 C490 1.426 1_554 S
C1110 C382 1.430 . S
C1119 C448 1.434 1_554 S
C1121 C406 1.426 . S
C1130 C424 1.423 . S
C1132 C469 1.433 1_554 S
C1141 C508 1.426 . S
C1143 C637 1.432 . S
C1152 C532 1.425 . S
C1154 C658 1.431 . S
C1163 C550 1.427 . S
C1165 C595 1.430 . S
C1174 C574 1.435 . S
C1176 C613 1.424 . S
C1185 C679 1.434 . S
C1187 C718 1.426 . S
C1196 C700 1.426 . S
C1198 C742 1.432 . S
C1207 C760 1.423 . S
C1209 C805 1.434 . S
C1218 C826 1.424 . S
C1220 C784 1.432 . S
C1229 C847 1.435 . S
C1231 C865 1.424 . S
C1240 C994 1.432 . S
C1242 C889 1.426 . S
C1251 C907 1.435 . S
C1253 C952 1.424 . S
C1262 C928 1.425 . S
C1264 C973 1.431 . S
C1273 C7 1.478 . S
C1275 C196 1.491 . S
C1284 C28 1.480 . S
C1286 C214 1.490 . S
C1295 C49 1.481 . S
C1297 C238 1.489 . S
C1306 C175 1.483 . S
C1308 C70 1.487 . S
C1317 C319 1.484 . S
C1319 C91 1.487 . S
C1328 C259 1.480 . S
C1330 C112 1.490 . S
C1339 C277 1.492 . S
C1341 C133 1.480 . S
C1350 C151 1.492 . S
C1352 C298 1.481 . S
C1361 C385 1.479 . S
C1363 C340 1.491 . S
C1372 C466 1.479 . S
C1374 C364 1.491 . S
C1383 C403 1.479 . S
C1385 C487 1.491 . S
C1394 C445 1.481 . S
C1396 C427 1.489 . S
C1405 C511 1.490 . S
C1407 C697 1.482 . S
C1416 C721 1.492 . S
C1418 C529 1.481 . S
C1427 C739 1.484 . S
C1429 C553 1.487 . S
C1438 C571 1.493 . S
C1440 C676 1.480 . S
C1449 C823 1.489 . S
C1451 C592 1.482 . S
C1460 C616 1.492 . S
C1462 C763 1.481 . S
C1471 C634 1.492 . S
C1473 C781 1.481 . S
C1482 C655 1.479 . S
C1484 C802 1.490 . S
C1493 C844 1.482 . S
C1495 C886 1.488 . S
C1504 C970 1.482 . S
C1506 C868 1.488 . S
C1515 C991 1.487 . S
C1517 C910 1.485 . S
C1526 C931 1.480 . S
C1528 C949 1.490 . S
C1537 C19 1.407 . S
C1539 C83 1.389 . S
C1548 C20 1.384 . S
C1550 C40 1.410 . S
C1559 C61 1.416 . S
C1561 C41 1.391 . S
C1570 C82 1.405 . S
C1572 C62 1.386 . S
C1581 C125 1.396 . S
C1583 C103 1.416 . S
C1592 C146 1.388 . S
C1594 C124 1.413 . S
C1603 C145 1.404 . S
C1605 C166 1.383 . S
C1614 C104 1.394 . S
C1616 C167 1.413 . S
C1625 C187 1.407 . S
C1627 C398 1.384 . S
C1636 C208 1.414 . S
C1638 C418 1.389 . S
C1647 C230 1.404 . S
C1649 C440 1.384 . S
C1658 C250 1.407 . S
C1660 C377 1.388 . S
C1669 C271 1.414 . S
C1671 C481 1.394 . S
C1680 C355 1.396 . S
C1682 C293 1.416 . S
C1691 C502 1.390 . S
C1693 C314 1.414 . S
C1702 C335 1.416 . S
C1704 C460 1.395 . S
C1713 C356 1.415 . S
C1715 C209 1.394 . S
C1724 C376 1.404 . S
C1726 C334 1.385 . S
C1735 C397 1.409 . S
C1737 C272 1.390 . S
C1746 C292 1.391 . S
C1748 C419 1.415 . S
C1757 C313 1.391 . S
C1759 C439 1.415 . S
C1768 C251 1.391 . S
C1770 C461 1.410 . S
C1779 C188 1.395 . S
C1781 C482 1.416 . S
C1790 C503 1.404 . S
C1792 C229 1.384 . S
C1801 C523 1.407 . S
C1803 C586 1.388 . S
C1812 C545 1.407 . S
C1814 C524 1.388 . S
C1823 C544 1.387 . S
C1825 C565 1.407 . S
C1834 C566 1.384 . S
C1836 C587 1.410 . S
C1845 C608 1.412 . S
C1847 C629 1.387 . S
C1856 C649 1.383 . S
C1858 C628 1.406 . S
C1867 C670 1.387 . S
C1869 C650 1.412 . S
C1878 C671 1.417 . S
C1880 C607 1.391 . S
C1889 C692 1.416 . S
C1891 C901 1.394 . S
C1900 C923 1.387 . S
C1902 C713 1.408 . S
C1911 C944 1.382 . S
C1913 C733 1.408 . S
C1922 C755 1.415 . S
C1924 C881 1.394 . S
C1933 C985 1.396 . S
C1935 C775 1.415 . S
C1944 C797 1.415 . S
C1946 C859 1.394 . S
C1955 C818 1.414 . S
C1957 C1006 1.388 . S
C1966 C839 1.405 . S
C1968 C964 1.387 . S
C1977 C712 1.383 . S
C1979 C860 1.406 . S
C1988 C838 1.387 . S
C1990 C880 1.412 . S
C1999 C776 1.387 . S
C2001 C902 1.407 . S
C2010 C922 1.409 . S
C2012 C796 1.390 . S
C2021 C817 1.394 . S
C2023 C943 1.416 . S
C2032 C965 1.404 . S
C2034 C754 1.385 . S
C2043 C986 1.410 . S
C2045 C691 1.391 . S
C2054 C734 1.386 . S
C2056 C1007 1.412 . S
C2065 C16 1.145 . S
C2067 C940 1.141 . S
C2076 C877 1.132 . S
C2078 C37 1.136 . S
C2087 C58 1.137 . S
C2089 C885 1.142 . S
C2098 C79 1.141 . S
C2100 C919 1.136 . S
C2109 C100 1.145 . S
C2111 C990 1.142 . S
C2120 C121 1.137 . S
C2122 C948 1.134 . S
C2131 C142 1.140 . S
C2133 C969 1.135 . S
C2142 C150 1.134 . S
C2144 C843 1.134 . S
C2153 C184 1.136 . S
C2155 C822 1.141 . S
C2164 C205 1.135 . S
C2166 C772 1.141 . S
C2175 C213 1.134 . S
C2177 C780 1.134 . S
C2186 C247 1.145 . S
C2188 C801 1.141 . S
C2197 C268 1.145 . S
C2199 C696 1.142 . S
C2208 C276 1.133 . S
C2210 C730 1.139 . S
C2219 C297 1.136 . S
C2221 C738 1.134 . S
C2230 C318 1.135 . S
C2232 C675 1.140 . S
C2241 C339 1.139 . S
C2243 C654 1.143 . S
C2252 C373 1.141 . S
C2254 C528 1.143 . S
C2263 C394 1.145 . S
C2265 C562 1.142 . S
C2274 C402 1.144 . S
C2276 C570 1.139 . S
C2285 C436 1.133 . S
C2287 C520 1.135 . S
C2296 C444 1.145 . S
C2298 C625 1.141 . S
C2307 C465 1.137 . S
C2309 C633 1.134 . S
C2318 C486 1.140 . S
C2320 C591 1.143 . S
C2329 C87 1.051 . S
C2331 C898 1.041 . S
C2340 C108 1.052 . S
C2342 C906 1.040 . S
C2351 C129 1.052 . S
C2353 C927 1.041 . S
C2362 C163 1.044 . S
C2364 C864 1.045 . S
C2373 C3 1.039 . S
C2375 C982 1.049 . S
C2384 C24 1.061 . S
C2386 C856 1.043 . S
C2395 C45 1.053 . S
C2397 C1003 1.056 . S
C2406 C961 1.051 . S
C2408 C66 1.057 . S
C2417 C310 1.045 . S
C2419 C709 1.044 . S
C2428 C331 1.038 . S
C2430 C717 1.050 . S
C2439 C255 1.042 . S
C2441 C751 1.046 . S
C2450 C289 1.039 . S
C2452 C688 1.049 . S
C2461 C226 1.038 . S
C2463 C835 1.055 . S
C2472 C234 1.039 . S
C2474 C759 1.049 . S
C2483 C171 1.060 . S
C2485 C793 1.050 . S
C2494 C192 1.038 . S
C2496 C814 1.057 . S
C2505 C457 1.046 . S
C2507 C583 1.058 . S
C2516 C415 1.056 . S
C2518 C612 1.040 . S
C2527 C423 1.061 . S
C2529 C646 1.044 . S
C2538 C360 1.054 . S
C2540 C667 1.040 . S
C2549 C381 1.057 . S
C2551 C604 1.053 . S
C2560 C352 1.060 . S
C2562 C541 1.050 . S
C2571 C499 1.038 . S
C2573 C549 1.055 . S
C2582 C478 1.038 . S
C2584 C507 1.056 . S
