# Generated by pormake.
# Topology why, (6)-cn, num edge types: 1
# Building blocks:
#     Node 0, Type 0, BuildingBlock: VOLQOD_clean_sbu_1, # of connection points: 6
#     Node 1, Type 0, BuildingBlock: VOLQOD_clean_sbu_1, # of connection points: 6
#     Node 2, Type 0, BuildingBlock: VOLQOD_clean_sbu_1, # of connection points: 6
#     Node 3, Type 0, BuildingBlock: VOLQOD_clean_sbu_1, # of connection points: 6
#     Node 4, Type 0, BuildingBlock: VOLQOD_clean_sbu_1, # of connection points: 6
#     Node 5, Type 0, BuildingBlock: VOLQOD_clean_sbu_1, # of connection points: 6
#     Node 6, Type 0, BuildingBlock: VOLQOD_clean_sbu_1, # of connection points: 6
#     Node 7, Type 0, BuildingBlock: VOLQOD_clean_sbu_1, # of connection points: 6
#     Node 8, Type 0, BuildingBlock: VOLQOD_clean_sbu_1, # of connection points: 6
#     Node 9, Type 0, BuildingBlock: VOLQOD_clean_sbu_1, # of connection points: 6
#     Node 10, Type 0, BuildingBlock: VOLQOD_clean_sbu_1, # of connection points: 6
#     Node 11, Type 0, BuildingBlock: VOLQOD_clean_sbu_1, # of connection points: 6
#     Node 12, Type 0, BuildingBlock: VOLQOD_clean_sbu_1, # of connection points: 6
#     Node 13, Type 0, BuildingBlock: VOLQOD_clean_sbu_1, # of connection points: 6
#     Node 14, Type 0, BuildingBlock: VOLQOD_clean_sbu_1, # of connection points: 6
#     Node 15, Type 0, BuildingBlock: VOLQOD_clean_sbu_1, # of connection points: 6
#     Edge 16, Type (0, 0), BuildingBlock: ZUJKAS_clean_linker_0, # of connection points: 2
#     Edge 17, Type (0, 0), BuildingBlock: ZUJKAS_clean_linker_0, # of connection points: 2
#     Edge 18, Type (0, 0), BuildingBlock: ZUJKAS_clean_linker_0, # of connection points: 2
#     Edge 19, Type (0, 0), BuildingBlock: ZUJKAS_clean_linker_0, # of connection points: 2
#     Edge 20, Type (0, 0), BuildingBlock: ZUJKAS_clean_linker_0, # of connection points: 2
#     Edge 21, Type (0, 0), BuildingBlock: ZUJKAS_clean_linker_0, # of connection points: 2
#     Edge 22, Type (0, 0), BuildingBlock: ZUJKAS_clean_linker_0, # of connection points: 2
#     Edge 23, Type (0, 0), BuildingBlock: ZUJKAS_clean_linker_0, # of connection points: 2
#     Edge 24, Type (0, 0), BuildingBlock: ZUJKAS_clean_linker_0, # of connection points: 2
#     Edge 25, Type (0, 0), BuildingBlock: ZUJKAS_clean_linker_0, # of connection points: 2
#     Edge 26, Type (0, 0), BuildingBlock: ZUJKAS_clean_linker_0, # of connection points: 2
#     Edge 27, Type (0, 0), BuildingBlock: ZUJKAS_clean_linker_0, # of connection points: 2
#     Edge 28, Type (0, 0), BuildingBlock: ZUJKAS_clean_linker_0, # of connection points: 2
#     Edge 29, Type (0, 0), BuildingBlock: ZUJKAS_clean_linker_0, # of connection points: 2
#     Edge 30, Type (0, 0), BuildingBlock: ZUJKAS_clean_linker_0, # of connection points: 2
#     Edge 31, Type (0, 0), BuildingBlock: ZUJKAS_clean_linker_0, # of connection points: 2
#     Edge 32, Type (0, 0), BuildingBlock: ZUJKAS_clean_linker_0, # of connection points: 2
#     Edge 33, Type (0, 0), BuildingBlock: ZUJKAS_clean_linker_0, # of connection points: 2
#     Edge 34, Type (0, 0), BuildingBlock: ZUJKAS_clean_linker_0, # of connection points: 2
#     Edge 35, Type (0, 0), BuildingBlock: ZUJKAS_clean_linker_0, # of connection points: 2
#     Edge 36, Type (0, 0), BuildingBlock: ZUJKAS_clean_linker_0, # of connection points: 2
#     Edge 37, Type (0, 0), BuildingBlock: ZUJKAS_clean_linker_0, # of connection points: 2
#     Edge 38, Type (0, 0), BuildingBlock: ZUJKAS_clean_linker_0, # of connection points: 2
#     Edge 39, Type (0, 0), BuildingBlock: ZUJKAS_clean_linker_0, # of connection points: 2
#     Edge 40, Type (0, 0), BuildingBlock: ZUJKAS_clean_linker_0, # of connection points: 2
#     Edge 41, Type (0, 0), BuildingBlock: ZUJKAS_clean_linker_0, # of connection points: 2
#     Edge 42, Type (0, 0), BuildingBlock: ZUJKAS_clean_linker_0, # of connection points: 2
#     Edge 43, Type (0, 0), BuildingBlock: ZUJKAS_clean_linker_0, # of connection points: 2
#     Edge 44, Type (0, 0), BuildingBlock: ZUJKAS_clean_linker_0, # of connection points: 2
#     Edge 45, Type (0, 0), BuildingBlock: ZUJKAS_clean_linker_0, # of connection points: 2
#     Edge 46, Type (0, 0), BuildingBlock: ZUJKAS_clean_linker_0, # of connection points: 2
#     Edge 47, Type (0, 0), BuildingBlock: ZUJKAS_clean_linker_0, # of connection points: 2
#     Edge 48, Type (0, 0), BuildingBlock: ZUJKAS_clean_linker_0, # of connection points: 2
#     Edge 49, Type (0, 0), BuildingBlock: ZUJKAS_clean_linker_0, # of connection points: 2
#     Edge 50, Type (0, 0), BuildingBlock: ZUJKAS_clean_linker_0, # of connection points: 2
#     Edge 51, Type (0, 0), BuildingBlock: ZUJKAS_clean_linker_0, # of connection points: 2
#     Edge 52, Type (0, 0), BuildingBlock: ZUJKAS_clean_linker_0, # of connection points: 2
#     Edge 53, Type (0, 0), BuildingBlock: ZUJKAS_clean_linker_0, # of connection points: 2
#     Edge 54, Type (0, 0), BuildingBlock: ZUJKAS_clean_linker_0, # of connection points: 2
#     Edge 55, Type (0, 0), BuildingBlock: ZUJKAS_clean_linker_0, # of connection points: 2
#     Edge 56, Type (0, 0), BuildingBlock: ZUJKAS_clean_linker_0, # of connection points: 2
#     Edge 57, Type (0, 0), BuildingBlock: ZUJKAS_clean_linker_0, # of connection points: 2
#     Edge 58, Type (0, 0), BuildingBlock: ZUJKAS_clean_linker_0, # of connection points: 2
#     Edge 59, Type (0, 0), BuildingBlock: ZUJKAS_clean_linker_0, # of connection points: 2
#     Edge 60, Type (0, 0), BuildingBlock: ZUJKAS_clean_linker_0, # of connection points: 2
#     Edge 61, Type (0, 0), BuildingBlock: ZUJKAS_clean_linker_0, # of connection points: 2
#     Edge 62, Type (0, 0), BuildingBlock: ZUJKAS_clean_linker_0, # of connection points: 2
#     Edge 63, Type (0, 0), BuildingBlock: ZUJKAS_clean_linker_0, # of connection points: 2
# Relax obj value: 0.320
# Max RMSD: 0.187
# Mean RMSD: 0.187
data_MOF--net-why--node1-VOLQOD_clean_sbu_1--edge1-ZUJKAS_clean_linker_0
_symmetry_space_group_name_H-M    P1
_symmetry_Int_Tables_number       1
_symmetry_cell_setting            triclinic
loop_
_symmetry_equiv_pos_as_xyz
'x, y, z'
_cell_length_a     61.788706
_cell_length_b     61.699177
_cell_length_c     40.552101
_cell_angle_alpha  90.075268
_cell_angle_beta   90.092705
_cell_angle_gamma 90.011867
loop_
_atom_site_label
_atom_site_type_symbol
_atom_site_fract_x
_atom_site_fract_y
_atom_site_fract_z
_atom_type_partial_charge
O0 O 0.35616 0.22195 0.99359 0.0
Zn1 Zn 0.3497 0.1908 0.00305 0.0
O2 O 0.35524 0.1845 0.04936 0.0
Zn3 Zn 0.37631 0.16112 0.05279 0.0
Zn4 Zn 0.36601 0.21042 0.072 0.0
Zn5 Zn 0.32842 0.17527 0.06974 0.0
O6 O 0.36357 0.13488 0.07435 0.0
O7 O 0.32944 0.14416 0.08354 0.0
O8 O 0.36823 0.17258 0.97318 0.0
O9 O 0.38676 0.15201 0.00804 0.0
O10 O 0.40248 0.17048 0.0784 0.0
O11 O 0.39616 0.20525 0.08878 0.0
O12 O 0.34755 0.21804 0.1114 0.0
O13 O 0.31859 0.18568 0.99095 0.0
O14 O 0.32226 0.19253 0.10993 0.0
O15 O 0.30334 0.17847 0.03923 0.0
C16 C 0.36273 0.23802 0.01061 0.0
C17 C 0.34465 0.13031 0.08455 0.0
C18 C 0.40834 0.18863 0.0904 0.0
C19 C 0.38219 0.15786 0.97877 0.0
C20 C 0.33084 0.20899 0.12352 0.0
C21 C 0.30193 0.18181 0.00839 0.0
O22 O 0.36706 0.2361 0.0412 0.0
O23 O 0.54532 0.58554 0.21535 0.0
Zn24 Zn 0.57049 0.58753 0.24615 0.0
O25 O 0.56052 0.5945 0.29049 0.0
Zn26 Zn 0.57477 0.62081 0.30556 0.0
Zn27 Zn 0.52895 0.5986 0.29131 0.0
Zn28 Zn 0.56857 0.57078 0.31933 0.0
O29 O 0.59252 0.61541 0.34589 0.0
O30 O 0.58778 0.58045 0.35622 0.0
O31 O 0.59052 0.61037 0.22872 0.0
O32 O 0.59374 0.63359 0.27025 0.0
O33 O 0.55313 0.6436 0.31694 0.0
O34 O 0.52123 0.6297 0.30283 0.0
O35 O 0.51462 0.57839 0.32437 0.0
O36 O 0.58544 0.55868 0.24401 0.0
O37 O 0.5425 0.55793 0.3395 0.0
O38 O 0.58344 0.54679 0.29541 0.0
C39 C 0.52493 0.58733 0.21868 0.0
C40 C 0.59596 0.59874 0.36355 0.0
C41 C 0.53274 0.64533 0.31366 0.0
C42 C 0.59828 0.62772 0.24096 0.0
C43 C 0.52246 0.56244 0.34039 0.0
C44 C 0.58908 0.54417 0.26557 0.0
O45 O 0.51646 0.59206 0.24641 0.0
O46 O 0.15661 0.77566 0.49357 0.0
Zn47 Zn 0.1573 0.80469 0.51549 0.0
O48 O 0.14884 0.80232 0.56155 0.0
Zn49 Zn 0.12397 0.821 0.57002 0.0
Zn50 Zn 0.1422 0.77209 0.5727 0.0
Zn51 Zn 0.17273 0.81218 0.58829 0.0
O52 O 0.13063 0.8439 0.60381 0.0
O53 O 0.16427 0.83604 0.61857 0.0
O54 O 0.13623 0.82299 0.49063 0.0
O55 O 0.11321 0.83513 0.52827 0.0
O56 O 0.09949 0.80352 0.58793 0.0
O57 O 0.11152 0.7696 0.58895 0.0
O58 O 0.16192 0.76069 0.60887 0.0
O59 O 0.18662 0.81829 0.50986 0.0
O60 O 0.18414 0.78861 0.61595 0.0
O61 O 0.19691 0.82352 0.56161 0.0
C62 C 0.15071 0.75683 0.50265 0.0
C63 C 0.14725 0.84739 0.62161 0.0
C64 C 0.09664 0.7835 0.59399 0.0
C65 C 0.11969 0.8341 0.49851 0.0
C66 C 0.1783 0.7694 0.62268 0.0
C67 C 0.20035 0.82509 0.53088 0.0
O68 O 0.14463 0.75314 0.53216 0.0
O69 O 0.9399 0.38415 0.73471 0.0
Zn70 Zn 0.91241 0.38853 0.75936 0.0
O71 O 0.91702 0.38389 0.80615 0.0
Zn72 Zn 0.89676 0.36179 0.82159 0.0
Zn73 Zn 0.94695 0.37498 0.81491 0.0
Zn74 Zn 0.91171 0.41111 0.82851 0.0
O75 O 0.87815 0.37374 0.85793 0.0
O76 O 0.88863 0.40805 0.8622 0.0
O77 O 0.89041 0.36815 0.74119 0.0
O78 O 0.87776 0.3504 0.78459 0.0
O79 O 0.9129 0.33604 0.83937 0.0
O80 O 0.94755 0.34473 0.83326 0.0
O81 O 0.96199 0.39487 0.84763 0.0
O82 O 0.90217 0.41853 0.74925 0.0
O83 O 0.93768 0.42109 0.85254 0.0
O84 O 0.90309 0.4348 0.79796 0.0
C85 C 0.95912 0.37904 0.74285 0.0
C86 C 0.87684 0.39235 0.87146 0.0
C87 C 0.93291 0.33141 0.84206 0.0
C88 C 0.87763 0.35429 0.75373 0.0
C89 C 0.95613 0.41316 0.85916 0.0
C90 C 0.89963 0.43527 0.7671 0.0
O91 O 0.96419 0.3751 0.77272 0.0
O92 O 0.64248 0.80725 0.00996 0.0
Zn93 Zn 0.64019 0.83458 0.98288 0.0
O94 O 0.63873 0.82791 0.93593 0.0
Zn95 Zn 0.6132 0.84141 0.91682 0.0
Zn96 Zn 0.63741 0.7966 0.92913 0.0
Zn97 Zn 0.66429 0.83934 0.9144 0.0
O98 O 0.62073 0.86082 0.8792 0.0
O99 O 0.65659 0.85991 0.87821 0.0
O100 O 0.61421 0.85148 -0.00272 0.0
O101 O 0.59706 0.85894 0.95052 0.0
O102 O 0.59224 0.81912 0.90097 0.0
O103 O 0.60765 0.7876 0.91321 0.0
O104 O 0.66049 0.78646 0.89716 0.0
O105 O 0.66586 0.85331 0.99331 0.0
O106 O 0.68114 0.81579 0.89327 0.0
O107 O 0.68349 0.85529 0.94577 0.0
C108 C 0.64368 0.7873 0.00199 0.0
C109 C 0.63867 0.86672 0.8668 0.0
C110 C 0.59172 0.79854 0.90217 0.0
C111 C 0.59894 0.86077 0.98166 0.0
C112 C 0.67746 0.79598 0.88671 0.0
C113 C 0.68173 0.85999 0.97617 0.0
O114 O 0.64243 0.78125 0.97201 0.0
O115 O 0.47624 0.42925 0.75284 0.0
Zn116 Zn 0.44504 0.42773 0.74023 0.0
O117 O 0.44244 0.41517 0.69639 0.0
Zn118 Zn 0.42955 0.38656 0.69956 0.0
Zn119 Zn 0.4707 0.41368 0.67489 0.0
Zn120 Zn 0.4237 0.43321 0.67029 0.0
O121 O 0.40019 0.38561 0.67858 0.0
O122 O 0.39525 0.41934 0.66132 0.0
O123 O 0.43105 0.40869 0.77445 0.0
O124 O 0.42486 0.37822 0.74678 0.0
O125 O 0.44789 0.36446 0.67681 0.0
O126 O 0.47567 0.38347 0.65761 0.0
O127 O 0.4723 0.4339 0.63527 0.0
O128 O 0.43193 0.45754 0.74262 0.0
O129 O 0.43738 0.4409 0.62784 0.0
O130 O 0.41773 0.46107 0.69264 0.0
C131 C 0.49404 0.42513 0.73839 0.0
C132 C 0.38843 0.40012 0.66538 0.0
C133 C 0.46549 0.36564 0.66063 0.0
C134 C 0.42491 0.38899 0.77359 0.0
C135 C 0.45689 0.44185 0.61813 0.0
C136 C 0.4217 0.46858 0.72115 0.0
O137 O 0.49456 0.41921 0.70824 0.0
O138 O 0.83618 0.19019 0.50463 0.0
Zn139 Zn 0.8431 0.16291 0.48027 0.0
O140 O 0.85655 0.16939 0.43831 0.0
Zn141 Zn 0.88594 0.1583 0.43882 0.0
Zn142 Zn 0.85676 0.20081 0.43034 0.0
Zn143 Zn 0.84046 0.15464 0.4038 0.0
O144 O 0.89152 0.13908 0.40005 0.0
O145 O 0.8594 0.13596 0.37604 0.0
O146 O 0.86242 0.14494 0.50907 0.0
O147 O 0.89261 0.14148 0.48007 0.0
O148 O 0.90704 0.18227 0.43346 0.0
O149 O 0.88725 0.21101 0.42006 0.0
O150 O 0.83738 0.20866 0.39153 0.0
O151 O 0.81593 0.14588 0.47416 0.0
O152 O 0.82716 0.17615 0.37389 0.0
O153 O 0.81593 0.13693 0.4212 0.0
C154 C 0.83845 0.21028 0.49846 0.0
C155 C 0.8795 0.13168 0.37721 0.0
C156 C 0.90558 0.20185 0.42395 0.0
C157 C 0.88151 0.13755 0.5058 0.0
C158 C 0.82689 0.19667 0.37144 0.0
C159 C 0.80762 0.13589 0.44978 0.0
O160 O 0.84635 0.21679 0.47114 0.0
O161 O 0.01119 0.57772 0.24955 0.0
Zn162 Zn 0.04181 0.5804 0.23439 0.0
O163 O 0.04322 0.58353 0.18676 0.0
Zn164 Zn 0.05674 0.61126 0.17594 0.0
Zn165 Zn 0.01404 0.58178 0.16776 0.0
Zn166 Zn 0.06086 0.56021 0.16937 0.0
O167 O 0.08261 0.60717 0.14669 0.0
O168 O 0.08592 0.57144 0.14372 0.0
O169 O 0.05477 0.606 0.25692 0.0
O170 O 0.06703 0.62707 0.21684 0.0
O171 O 0.03571 0.63023 0.15191 0.0
O172 O 0.00673 0.60952 0.14404 0.0
O173 O 0.01158 0.55678 0.1354 0.0
O174 O 0.05917 0.55516 0.25075 0.0
O175 O 0.04397 0.54138 0.13919 0.0
O176 O 0.07312 0.54166 0.20477 0.0
C177 C 0.99292 0.57738 0.23501 0.0
C178 C 0.09245 0.59035 0.13645 0.0
C179 C 0.01674 0.6274 0.14035 0.0
C180 C 0.06467 0.62292 0.24739 0.0
C181 C 0.02495 0.54196 0.12729 0.0
C182 C 0.07114 0.54153 0.23593 0.0
O183 O 0.99151 0.57859 0.20369 0.0
O184 O 0.81639 0.71108 0.49231 0.0
Zn185 Zn 0.81879 0.681 0.51042 0.0
O186 O 0.83152 0.68155 0.55437 0.0
Zn187 Zn 0.85929 0.66668 0.5535 0.0
Zn188 Zn 0.83542 0.71154 0.56918 0.0
Zn189 Zn 0.81239 0.66646 0.58457 0.0
O190 O 0.85968 0.64147 0.58439 0.0
O191 O 0.82668 0.64112 0.60578 0.0
O192 O 0.83718 0.66389 0.47874 0.0
O193 O 0.86602 0.655 0.50841 0.0
O194 O 0.88306 0.68632 0.56833 0.0
O195 O 0.86637 0.71677 0.58266 0.0
O196 O 0.81654 0.71828 0.60862 0.0
O197 O 0.78944 0.66715 0.51067 0.0
O198 O 0.80217 0.68618 0.61997 0.0
O199 O 0.78604 0.65533 0.56201 0.0
C200 C 0.82116 0.72983 0.50325 0.0
C201 C 0.84559 0.6332 0.60338 0.0
C202 C 0.8835 0.70541 0.58021 0.0
C203 C 0.85556 0.65474 0.48133 0.0
C204 C 0.8046 0.70619 0.62641 0.0
C205 C 0.77883 0.65715 0.53281 0.0
O206 O 0.82875 0.73247 0.53223 0.0
O207 O 0.03647 0.06625 0.74344 0.0
Zn208 Zn 0.06575 0.07316 0.7617 0.0
O209 O 0.0637 0.08431 0.80639 0.0
Zn210 Zn 0.0718 0.11473 0.80663 0.0
Zn211 Zn 0.03403 0.08107 0.82232 0.0
Zn212 Zn 0.08351 0.0682 0.83452 0.0
O213 O 0.09648 0.12012 0.83742 0.0
O214 O 0.10518 0.08756 0.85648 0.0
O215 O 0.07893 0.09501 0.73145 0.0
O216 O 0.08162 0.12481 0.76183 0.0
O217 O 0.04745 0.13306 0.82298 0.0
O218 O 0.02242 0.10958 0.83944 0.0
O219 O 0.03261 0.05859 0.85832 0.0
O220 O 0.08467 0.04695 0.75946 0.0
O221 O 0.06724 0.05178 0.86882 0.0
O222 O 0.09978 0.04571 0.80908 0.0
C223 C 0.01743 0.06675 0.75537 0.0
C224 C 0.10821 0.10793 0.85529 0.0
C225 C 0.02935 0.12895 0.83657 0.0
C226 C 0.08409 0.11485 0.73456 0.0
C227 C 0.04725 0.0488 0.87472 0.0
C228 C 0.09793 0.03856 0.7798 0.0
O229 O 0.01412 0.07207 0.7853 0.0
O230 O 0.67384 0.28556 0.98082 0.0
Zn231 Zn 0.66757 0.31229 0.00742 0.0
O232 O 0.65708 0.30508 0.0511 0.0
Zn233 Zn 0.6272 0.31492 0.0561 0.0
Zn234 Zn 0.65968 0.27378 0.05801 0.0
Zn235 Zn 0.67468 0.32001 0.08328 0.0
O236 O 0.62452 0.33756 0.09192 0.0
O237 O 0.6572 0.33744 0.1145 0.0
O238 O 0.64494 0.3284 0.9823 0.0
O239 O 0.61565 0.32827 0.0139 0.0
O240 O 0.60875 0.28989 0.07038 0.0
O241 O 0.63147 0.26208 0.07522 0.0
O242 O 0.68332 0.26659 0.09128 0.0
O243 O 0.69334 0.33199 0.00918 0.0
O244 O 0.69235 0.2994 0.10904 0.0
O245 O 0.69526 0.34052 0.06223 0.0
C246 C 0.67154 0.26539 0.98645 0.0
C247 C 0.63771 0.34394 0.11405 0.0
C248 C 0.61262 0.27024 0.07806 0.0
C249 C 0.62518 0.3332 0.98707 0.0
C250 C 0.69458 0.27895 0.10982 0.0
C251 C 0.70159 0.34293 0.03269 0.0
O252 O 0.66575 0.25853 0.01475 0.0
O253 O 0.42782 0.90824 0.22008 0.0
Zn254 Zn 0.40354 0.90498 0.25249 0.0
O255 O 0.4144 0.90552 0.29734 0.0
Zn256 Zn 0.40508 0.87961 0.32029 0.0
Zn257 Zn 0.446 0.90644 0.2976 0.0
Zn258 Zn 0.40261 0.93096 0.31928 0.0
O259 O 0.39022 0.88717 0.36212 0.0
O260 O 0.38482 0.9227 0.35867 0.0
O261 O 0.38716 0.87778 0.24348 0.0
O262 O 0.38492 0.86161 0.29223 0.0
O263 O 0.42991 0.86032 0.33112 0.0
O264 O 0.45873 0.87752 0.3116 0.0
O265 O 0.45667 0.93037 0.32783 0.0
O266 O 0.38278 0.92916 0.24397 0.0
O267 O 0.42654 0.94922 0.33662 0.0
O268 O 0.38391 0.94899 0.28957 0.0
C269 C 0.44805 0.91156 0.22344 0.0
C270 C 0.38256 0.90474 0.37361 0.0
C271 C 0.45009 0.8611 0.32534 0.0
C272 C 0.38013 0.86258 0.26171 0.0
C273 C 0.44686 0.94675 0.33992 0.0
C274 C 0.37689 0.94562 0.26052 0.0
O275 O 0.45696 0.91199 0.25179 0.0
O276 O 0.15943 0.27617 0.5046 0.0
Zn277 Zn 0.15921 0.30679 0.48936 0.0
O278 O 0.15789 0.30822 0.44163 0.0
Zn279 Zn 0.13195 0.32375 0.42892 0.0
Zn280 Zn 0.15709 0.2788 0.42297 0.0
Zn281 Zn 0.18303 0.32429 0.42588 0.0
O282 O 0.13894 0.34931 0.40161 0.0
O283 O 0.17479 0.35157 0.40158 0.0
O284 O 0.13393 0.32133 0.5102 0.0
O285 O 0.11501 0.33418 0.46811 0.0
O286 O 0.11234 0.30516 0.40258 0.0
O287 O 0.12889 0.27335 0.3985 0.0
O288 O 0.18238 0.27443 0.39204 0.0
O289 O 0.18539 0.32144 0.50741 0.0
O290 O 0.20006 0.30578 0.39531 0.0
O291 O 0.20261 0.33306 0.46287 0.0
C292 C 0.15912 0.25779 0.49039 0.0
C293 C 0.15631 0.3588 0.39322 0.0
C294 C 0.11283 0.28569 0.39244 0.0
C295 C 0.11781 0.33175 0.49896 0.0
C296 C 0.19816 0.28665 0.38394 0.0
C297 C 0.20124 0.33109 0.494 0.0
O298 O 0.15847 0.25619 0.45907 0.0
O299 O 0.95293 0.89193 0.24962 0.0
Zn300 Zn 0.92481 0.89828 0.22776 0.0
O301 O 0.92573 0.8886 0.18231 0.0
Zn302 Zn 0.90405 0.86625 0.17591 0.0
Zn303 Zn 0.95457 0.87783 0.17119 0.0
Zn304 Zn 0.91887 0.9129 0.15406 0.0
O305 O 0.87991 0.87696 0.14736 0.0
O306 O 0.88888 0.9109 0.13561 0.0
O307 O 0.90188 0.88303 0.25404 0.0
O308 O 0.89024 0.85796 0.21897 0.0
O309 O 0.91711 0.8397 0.15546 0.0
O310 O 0.95234 0.84702 0.15518 0.0
O311 O 0.96773 0.895 0.13372 0.0
O312 O 0.92122 0.93042 0.23091 0.0
O313 O 0.93983 0.91492 0.11716 0.0
O314 O 0.92119 0.94084 0.17857 0.0
C315 C 0.97123 0.88465 0.24056 0.0
C316 C 0.87562 0.89517 0.13418 0.0
C317 C 0.93657 0.83424 0.14935 0.0
C318 C 0.89013 0.86662 0.24749 0.0
C319 C 0.95909 0.90813 0.11334 0.0
C320 C 0.92126 0.94527 0.20917 0.0
O321 O 0.97458 0.87871 0.21087 0.0
O322 O 0.32926 0.69206 0.02642 0.0
Zn323 Zn 0.33142 0.66843 0.9928 0.0
O324 O 0.33311 0.6805 0.94863 0.0
Zn325 Zn 0.35962 0.67107 0.9276 0.0
Zn326 Zn 0.33258 0.71237 0.95016 0.0
Zn327 Zn 0.30881 0.66926 0.92344 0.0
O328 O 0.35369 0.65691 0.88463 0.0
O329 O 0.31801 0.65275 0.88308 0.0
O330 O 0.35733 0.65029 0.00269 0.0
O331 O 0.37637 0.65035 0.95633 0.0
O332 O 0.37881 0.69596 0.91773 0.0
O333 O 0.36119 0.72527 0.93486 0.0
O334 O 0.30814 0.72411 0.92167 0.0
O335 O 0.30532 0.64956 -0.00106 0.0
O336 O 0.2908 0.6937 0.90833 0.0
O337 O 0.28952 0.65022 0.94992 0.0
C338 C 0.32746 0.71257 0.02461 0.0
C339 C 0.33662 0.6503 0.87032 0.0
C340 C 0.37772 0.71631 0.92194 0.0
C341 C 0.37356 0.64406 0.98591 0.0
C342 C 0.29228 0.71423 0.90822 0.0
C343 C 0.29011 0.64384 0.97966 0.0
O344 O 0.32797 0.72239 -0.00303 0.0
O345 O 0.54497 0.09807 0.72732 0.0
Zn346 Zn 0.57375 0.09774 0.70466 0.0
O347 O 0.57064 0.10511 0.6583 0.0
Zn348 Zn 0.58888 0.13011 0.64797 0.0
Zn349 Zn 0.54022 0.11095 0.64767 0.0
Zn350 Zn 0.58021 0.08064 0.63241 0.0
O351 O 0.60991 0.12339 0.61134 0.0
O352 O 0.60172 0.08936 0.5989 0.0
O353 O 0.59304 0.11905 0.72776 0.0
O354 O 0.60523 0.14071 0.68827 0.0
O355 O 0.57037 0.15464 0.63216 0.0
O356 O 0.53685 0.14154 0.63136 0.0
O357 O 0.52859 0.09029 0.61284 0.0
O358 O 0.58734 0.06848 0.71084 0.0
O359 O 0.55607 0.06745 0.60752 0.0
O360 O 0.5938 0.05761 0.65969 0.0
C361 C 0.52582 0.10271 0.71806 0.0
C362 C 0.61243 0.10654 0.59358 0.0
C363 C 0.55022 0.15694 0.62659 0.0
C364 C 0.60476 0.13486 0.71841 0.0
C365 C 0.53688 0.0732 0.60051 0.0
C366 C 0.59504 0.05472 0.69062 0.0
O367 O 0.52171 0.1081 0.68838 0.0
H368 H 0.42846 0.22587 0.11 0.0
H369 H 0.46671 0.23065 0.12246 0.0
H370 H 0.4768 0.16169 0.11421 0.0
H371 H 0.43848 0.15672 0.1008 0.0
H372 H 0.49652 0.2146 0.16845 0.0
H373 H 0.51441 0.18622 0.04062 0.0
H374 H 0.48722 0.19199 0.05402 0.0
H375 H 0.50056 0.16766 0.06735 0.0
C376 C 0.43868 0.21163 0.11132 0.0
C377 C 0.43051 0.19096 0.10367 0.0
C378 C 0.46055 0.21439 0.11861 0.0
C379 C 0.47462 0.19657 0.11858 0.0
C380 C 0.46624 0.17569 0.11365 0.0
H381 H 0.61202 0.22615 0.08656 0.0
H382 H 0.58133 0.20382 0.10416 0.0
C383 C 0.44435 0.1729 0.10606 0.0
C384 C 0.49818 0.20053 0.11986 0.0
H385 H 0.54227 0.20312 0.06954 0.0
C386 C 0.50672 0.21166 0.14715 0.0
C387 C 0.51145 0.19654 0.09207 0.0
C388 C 0.50303 0.18507 0.06172 0.0
C389 C 0.52772 0.22022 0.14644 0.0
C390 C 0.5403 0.21772 0.11763 0.0
C391 C 0.53249 0.205 0.09154 0.0
C392 C 0.55976 0.23099 0.1116 0.0
C393 C 0.53592 0.23271 0.1759 0.0
C394 C 0.55767 0.25358 0.10983 0.0
C395 C 0.57497 0.26632 0.09946 0.0
C396 C 0.59474 0.25668 0.0906 0.0
C397 C 0.597 0.23405 0.09323 0.0
C398 C 0.57955 0.22128 0.1034 0.0
H399 H 0.52818 0.22697 0.19901 0.0
H400 H 0.55376 0.23127 0.17841 0.0
H401 H 0.5318 0.2501 0.17284 0.0
H402 H 0.54234 0.26134 0.11523 0.0
H403 H 0.57271 0.28369 0.09787 0.0
H404 H 0.49853 0.66408 0.28206 0.0
H405 H 0.48584 0.70147 0.28815 0.0
H406 H 0.53121 0.7114 0.3678 0.0
H407 H 0.54478 0.67451 0.36043 0.0
H408 H 0.46762 0.72417 0.33379 0.0
H409 H 0.54804 0.76047 0.31038 0.0
H410 H 0.5429 0.73192 0.30518 0.0
H411 H 0.54845 0.74291 0.34553 0.0
C412 C 0.50564 0.67423 0.30102 0.0
C413 C 0.52277 0.66655 0.32053 0.0
C414 C 0.49844 0.6956 0.30444 0.0
C415 C 0.50804 0.7095 0.32776 0.0
C416 C 0.52416 0.70131 0.34875 0.0
H417 H 0.44577 0.83246 0.37575 0.0
H418 H 0.4617 0.79625 0.37944 0.0
C419 C 0.53172 0.68015 0.34479 0.0
C420 C 0.50133 0.73259 0.3298 0.0
H421 H 0.52064 0.78448 0.32934 0.0
C422 C 0.47922 0.73736 0.3327 0.0
C423 C 0.51643 0.74984 0.32773 0.0
C424 C 0.54023 0.74605 0.32166 0.0
C425 C 0.47175 0.75881 0.33365 0.0
C426 C 0.48693 0.77605 0.33326 0.0
C427 C 0.50904 0.77129 0.33024 0.0
C428 C 0.48008 0.79911 0.33421 0.0
C429 C 0.44761 0.76268 0.33377 0.0
C430 C 0.48659 0.81344 0.3092 0.0
C431 C 0.47815 0.83445 0.30779 0.0
C432 C 0.46283 0.84129 0.3311 0.0
C433 C 0.45742 0.82746 0.3573 0.0
C434 C 0.46628 0.80669 0.35918 0.0
H435 H 0.43861 0.74848 0.32388 0.0
H436 H 0.44212 0.76536 0.35948 0.0
H437 H 0.44325 0.77711 0.31885 0.0
H438 H 0.4974 0.80806 0.28984 0.0
H439 H 0.48247 0.84477 0.28723 0.0
H440 H 0.08069 0.74216 0.59444 0.0
H441 H 0.04324 0.73117 0.60426 0.0
H442 H 0.02646 0.79714 0.62843 0.0
H443 H 0.06373 0.80841 0.618 0.0
H444 H 0.01353 0.73515 0.65743 0.0
H445 H 0.98902 0.78331 0.54748 0.0
H446 H 0.01695 0.77753 0.55695 0.0
H447 H 0.00269 0.79819 0.57939 0.0
C448 C 0.06912 0.75428 0.60234 0.0
C449 C 0.07505 0.77622 0.60482 0.0
C450 C 0.04776 0.74796 0.60801 0.0
C451 C 0.03209 0.76345 0.6164 0.0
C452 C 0.03829 0.78506 0.62129 0.0
H453 H 0.89188 0.7465 0.60262 0.0
H454 H 0.92707 0.76171 0.61804 0.0
C455 C 0.05958 0.79144 0.61534 0.0
C456 C 0.00904 0.75727 0.61695 0.0
H457 H 0.96177 0.76389 0.57463 0.0
C458 C 0.00212 0.74156 0.63958 0.0
C459 C 0.99427 0.76571 0.59356 0.0
C460 C 0.00106 0.78198 0.56776 0.0
C461 C 0.9808 0.73374 0.63902 0.0
C462 C 0.96628 0.74169 0.61494 0.0
C463 C 0.97298 0.75796 0.59315 0.0
C464 C 0.94475 0.73196 0.60957 0.0
C465 C 0.97409 0.71688 0.66388 0.0
C466 C 0.94316 0.71026 0.59962 0.0
C467 C 0.92319 0.70157 0.59063 0.0
C468 C 0.90443 0.71448 0.59122 0.0
C469 C 0.90602 0.73614 0.60185 0.0
C470 C 0.92606 0.74484 0.61078 0.0
H471 H 0.98442 0.71752 0.68631 0.0
H472 H 0.95692 0.71903 0.67125 0.0
H473 H 0.97587 0.70054 0.65275 0.0
H474 H 0.95749 0.70023 0.59775 0.0
H475 H 0.92256 0.68483 0.58262 0.0
H476 H 0.97379 0.315 0.84808 0.0
H477 H 0.98403 0.27777 0.86075 0.0
H478 H 0.91696 0.26106 0.87531 0.0
H479 H 0.90641 0.29828 0.86212 0.0
H480 H 0.97634 0.25008 0.91576 0.0
H481 H 0.93678 0.22058 0.80038 0.0
H482 H 0.9416 0.249 0.80792 0.0
H483 H 0.92018 0.23522 0.82916 0.0
C484 C 0.96118 0.30352 0.85429 0.0
C485 C 0.93925 0.30957 0.8536 0.0
C486 C 0.96708 0.28226 0.86166 0.0
C487 C 0.95122 0.26665 0.86847 0.0
C488 C 0.9294 0.27283 0.86957 0.0
H489 H 0.98652 0.12876 0.85463 0.0
H490 H 0.96441 0.16014 0.87043 0.0
C491 C 0.92344 0.29412 0.86211 0.0
C492 C 0.95771 0.24372 0.87187 0.0
H493 H 0.95832 0.19598 0.82935 0.0
C494 C 0.97209 0.23809 0.89726 0.0
C495 C 0.95198 0.22811 0.84779 0.0
C496 C 0.9369 0.23343 0.81961 0.0
C497 C 0.98184 0.21759 0.89816 0.0
C498 C 0.9773 0.20255 0.87276 0.0
C499 C 0.96174 0.2076 0.84877 0.0
C500 C 0.9908 0.1831 0.86753 0.0
C501 C -0.00247 0.21248 0.9256 0.0
C502 C 0.01287 0.18571 0.86063 0.0
C503 C 0.02542 0.16799 0.85137 0.0
C504 C 0.01615 0.14725 0.84872 0.0
C505 C 0.99414 0.14452 0.85653 0.0
C506 C 0.9815 0.16238 0.8656 0.0
H507 H 0.99366 0.22187 0.94823 0.0
H508 H -0.00256 0.19493 0.93163 0.0
H509 H 0.01412 0.21705 0.91776 0.0
H510 H 0.02024 0.20164 0.86118 0.0
H511 H 0.04233 0.17067 0.84565 0.0
H512 H 0.56095 0.81095 0.8579 0.0
H513 H 0.5239 0.79722 0.85373 0.0
H514 H 0.53813 0.74933 0.92817 0.0
H515 H 0.57548 0.76223 0.93103 0.0
H516 H 0.51209 0.73288 0.88473 0.0
H517 H 0.47984 0.81327 0.92083 0.0
H518 H 0.4948 0.81421 0.88302 0.0
H519 H 0.50838 0.80729 0.92093 0.0
C520 C 0.55625 0.79718 0.87282 0.0
C521 C 0.57099 0.78773 0.89495 0.0
C522 C 0.53502 0.78954 0.87074 0.0
C523 C 0.528 0.7728 0.89154 0.0
C524 C 0.5431 0.76244 0.91212 0.0
H525 H 0.39787 0.7472 0.95891 0.0
H526 H 0.43414 0.76208 0.94924 0.0
C527 C 0.56448 0.76974 0.91363 0.0
C528 C 0.50482 0.76657 0.89296 0.0
H529 H 0.454 0.78654 0.90624 0.0
C530 C 0.49939 0.74462 0.88943 0.0
C531 C 0.48828 0.78185 0.89982 0.0
C532 C 0.49311 0.80542 0.90673 0.0
C533 C 0.47796 0.73746 0.8927 0.0
C534 C 0.4613 0.75285 0.89811 0.0
C535 C 0.46671 0.77482 0.90157 0.0
C536 C 0.43833 0.7463 0.90188 0.0
C537 C 0.47365 0.71337 0.89169 0.0
C538 C 0.42822 0.73345 0.87778 0.0
C539 C 0.40782 0.72461 0.88366 0.0
C540 C 0.39684 0.72918 0.91313 0.0
C541 C 0.40603 0.74361 0.93592 0.0
C542 C 0.42675 0.752 0.93044 0.0
H543 H 0.48844 0.70387 0.89756 0.0
H544 H 0.46078 0.70872 0.90941 0.0
H545 H 0.46836 0.70871 0.86651 0.0
H546 H 0.43647 0.72952 0.85501 0.0
H547 H 0.4009 0.71362 0.86564 0.0
H548 H 0.50502 0.36029 0.63126 0.0
H549 H 0.52086 0.32646 0.61103 0.0
H550 H 0.46243 0.2922 0.63663 0.0
H551 H 0.4464 0.3258 0.65669 0.0
H552 H 0.52679 0.29085 0.65276 0.0
H553 H 0.47681 0.26821 0.54455 0.0
H554 H 0.47786 0.29552 0.56068 0.0
H555 H 0.46111 0.27542 0.58013 0.0
C556 C 0.4954 0.34563 0.63209 0.0
C557 C 0.4745 0.34571 0.64581 0.0
C558 C 0.50446 0.32636 0.62042 0.0
C559 C 0.49267 0.30696 0.6219 0.0
C560 C 0.47159 0.30711 0.63459 0.0
H561 H 0.50848 0.1715 0.62835 0.0
H562 H 0.49608 0.20874 0.62072 0.0
C563 C 0.46255 0.32631 0.64638 0.0
C564 C 0.50322 0.2861 0.61431 0.0
H565 H 0.49717 0.23946 0.56998 0.0
C566 C 0.52066 0.27974 0.6342 0.0
C567 C 0.495 0.27171 0.59023 0.0
C568 C 0.47678 0.27812 0.56745 0.0
C569 C 0.52933 0.25884 0.63202 0.0
C570 C 0.52066 0.24414 0.60865 0.0
C571 C 0.50378 0.25081 0.58779 0.0
C572 C 0.52766 0.22127 0.60776 0.0
C573 C 0.54681 0.2523 0.65614 0.0
C574 C 0.54933 0.21589 0.60166 0.0
C575 C 0.55653 0.1947 0.60644 0.0
C576 C 0.54207 0.1785 0.61688 0.0
C577 C 0.52004 0.18363 0.62048 0.0
C578 C 0.51291 0.20489 0.61605 0.0
H579 H 0.54829 0.26396 0.67693 0.0
H580 H 0.54352 0.23596 0.66645 0.0
H581 H 0.5626 0.25173 0.6432 0.0
H582 H 0.56083 0.22826 0.59451 0.0
H583 H 0.57354 0.19116 0.60294 0.0
H584 H 0.91013 0.2426 0.39723 0.0
H585 H 0.94378 0.25953 0.37787 0.0
H586 H 0.97989 0.20356 0.40983 0.0
H587 H 0.94678 0.18662 0.42914 0.0
H588 H 0.98196 0.26817 0.41611 0.0
H589 H -0.00115 0.21193 0.31283 0.0
H590 H 0.97234 0.21465 0.33116 0.0
H591 H 0.9927 0.19824 0.35072 0.0
C592 C 0.92526 0.23396 0.40024 0.0
C593 C 0.92573 0.21321 0.41459 0.0
C594 C 0.94439 0.24359 0.38899 0.0
C595 C 0.96413 0.23248 0.39164 0.0
C596 C 0.9647 0.2121 0.40672 0.0
H597 H 0.09838 0.24389 0.3944 0.0
H598 H 0.06103 0.23214 0.38523 0.0
C599 C 0.94573 0.20255 0.41805 0.0
C600 C 0.98459 0.24242 0.3806 0.0
H601 H 0.02934 0.23207 0.33392 0.0
C602 C 0.99217 0.26067 0.39758 0.0
C603 C -0.00224 0.23245 0.35646 0.0
C604 C 0.98993 0.21335 0.3365 0.0
C605 C 0.01327 0.26835 0.39279 0.0
C606 C 0.02687 0.25771 0.36978 0.0
C607 C 0.01886 0.24016 0.3515 0.0
C608 C 0.05006 0.26327 0.36719 0.0
C609 C 0.02127 0.28684 0.41401 0.0
C610 C 0.05645 0.28419 0.358 0.0
C611 C 0.07768 0.29098 0.36352 0.0
C612 C 0.09285 0.27682 0.37782 0.0
C613 C 0.08703 0.25514 0.38339 0.0
C614 C 0.06569 0.24843 0.37823 0.0
H615 H 0.01008 0.29044 0.43473 0.0
H616 H 0.03749 0.28313 0.42439 0.0
H617 H 0.02269 0.30167 0.39873 0.0
H618 H 0.04469 0.2957 0.34873 0.0
H619 H 0.08185 0.30772 0.35857 0.0
H620 H 0.97408 0.63026 0.1221 0.0
H621 H 0.95455 0.66303 0.10581 0.0
H622 H 0.01421 0.6993 0.10864 0.0
H623 H 0.03385 0.66677 0.12437 0.0
H624 H 0.95309 0.69716 0.14766 0.0
H625 H 0.98524 0.72507 0.02824 0.0
H626 H 0.98853 0.69752 0.04253 0.0
H627 H 0.0068 0.71849 0.05611 0.0
C628 C 0.98314 0.64508 0.11835 0.0
C629 C 0.00549 0.64597 0.12495 0.0
C630 C 0.97195 0.66376 0.10896 0.0
C631 C 0.98296 0.68353 0.10566 0.0
C632 C 0.00545 0.68413 0.11026 0.0
H633 H 0.97601 0.81548 0.1388 0.0
H634 H 0.98331 0.77829 0.12171 0.0
C635 C 0.01663 0.66552 0.11967 0.0
C636 C 0.97085 0.70414 0.10329 0.0
H637 H 0.9718 0.75335 0.06513 0.0
C638 C 0.95664 0.70928 0.12908 0.0
C639 C 0.97557 0.71987 0.07904 0.0
C640 C 0.98971 0.71485 0.04974 0.0
C641 C 0.94848 0.7303 0.13292 0.0
C642 C 0.95442 0.74645 0.10992 0.0
C643 C 0.9674 0.74093 0.08281 0.0
C644 C 0.9496 0.76954 0.11605 0.0
C645 C 0.93495 0.73543 0.16292 0.0
C646 C 0.92821 0.77703 0.11773 0.0
C647 C 0.92394 0.79825 0.12785 0.0
C648 C 0.94103 0.81234 0.13617 0.0
C649 C 0.96246 0.80504 0.13282 0.0
C650 C 0.96669 0.78382 0.12288 0.0
H651 H 0.93483 0.72191 0.18099 0.0
H652 H 0.94108 0.75022 0.17548 0.0
H653 H 0.91801 0.73854 0.15517 0.0
H654 H 0.91483 0.76631 0.11206 0.0
H655 H 0.90725 0.80345 0.12977 0.0
H656 H 0.11309 0.15021 0.87365 0.0
H657 H 0.14403 0.16648 0.90206 0.0
H658 H 0.1753 0.10399 0.90591 0.0
H659 H 0.1441 0.08747 0.87875 0.0
H660 H 0.17944 0.12486 0.96261 0.0
H661 H 0.20117 0.18012 0.85995 0.0
H662 H 0.17421 0.18408 0.87516 0.0
H663 H 0.1813 0.15891 0.85549 0.0
C664 C 0.12655 0.13995 0.88067 0.0
C665 C 0.12629 0.1176 0.87384 0.0
C666 C 0.14425 0.14929 0.89666 0.0
C667 C 0.16214 0.13652 0.90535 0.0
C668 C 0.16168 0.11414 0.89924 0.0
H669 H 0.29361 0.17131 0.94434 0.0
H670 H 0.25842 0.16256 0.92016 0.0
C671 C 0.14385 0.10472 0.88376 0.0
C672 C 0.18143 0.14632 0.92091 0.0
H673 H 0.22136 0.18373 0.9093 0.0
C674 C 0.1886 0.13776 0.95102 0.0
C675 C 0.19344 0.16298 0.90544 0.0
C676 C 0.18729 0.17193 0.87208 0.0
C677 C 0.2077 0.1451 0.96588 0.0
C678 C 0.21947 0.16209 0.9508 0.0
C679 C 0.21213 0.1709 0.92094 0.0
C680 C 0.24025 0.16982 0.96445 0.0
C681 C 0.21552 0.13391 -0.00321 0.0
C682 C 0.24155 0.17757 -0.00309 0.0
C683 C 0.26164 0.18217 0.01094 0.0
C684 C 0.28066 0.17962 0.99241 0.0
C685 C 0.27919 0.17338 0.95918 0.0
C686 C 0.25912 0.16838 0.94536 0.0
H687 H 0.20787 0.11774 -6e-05 0.0
H688 H 0.23335 0.13174 -0.00355 0.0
H689 H 0.21123 0.1439 0.01858 0.0
H690 H 0.22709 0.17944 0.01169 0.0
H691 H 0.26232 0.18731 0.03648 0.0
H692 H 0.65938 0.35656 0.16941 0.0
H693 H 0.65172 0.38793 0.20411 0.0
H694 H 0.59416 0.40108 0.14725 0.0
H695 H 0.6015 0.36949 0.1126 0.0
H696 H 0.65085 0.42895 0.17889 0.0
H697 H 0.57349 0.41034 0.24173 0.0
H698 H 0.58999 0.38968 0.22264 0.0
H699 H 0.57229 0.4062 0.19794 0.0
C700 C 0.64484 0.36585 0.16466 0.0
C701 C 0.63113 0.36067 0.13806 0.0
C702 C 0.6405 0.38374 0.18456 0.0
C703 C 0.62235 0.39672 0.17832 0.0
C704 C 0.60804 0.39101 0.15283 0.0
H705 H 0.6014 0.53178 0.20361 0.0
H706 H 0.61195 0.49554 0.18563 0.0
C707 C 0.61231 0.37302 0.13296 0.0
C708 C 0.61981 0.41754 0.19582 0.0
H709 H 0.58408 0.44777 0.2403 0.0
C710 C 0.63638 0.43298 0.19273 0.0
C711 C 0.60104 0.42262 0.21408 0.0
C712 C 0.58328 0.40626 0.21962 0.0
C713 C 0.63429 0.45374 0.20632 0.0
C714 C 0.61498 0.45922 0.22293 0.0
C715 C 0.5988 0.44351 0.22726 0.0
C716 C 0.61071 0.48148 0.23445 0.0
C717 C 0.65264 0.46967 0.20252 0.0
C718 C 0.60659 0.4855 0.26786 0.0
C719 C 0.60048 0.50618 0.27824 0.0
C720 C 0.59821 0.52311 0.25527 0.0
C721 C 0.60305 0.51914 0.22194 0.0
C722 C 0.60917 0.49846 0.21162 0.0
H723 H 0.66827 0.46129 0.198 0.0
H724 H 0.64931 0.48032 0.18108 0.0
H725 H 0.65431 0.48004 0.22478 0.0
H726 H 0.60765 0.47253 0.28577 0.0
H727 H 0.59688 0.50867 0.3041 0.0
H728 H 0.34718 0.92922 0.38789 0.0
H729 H 0.31912 0.91996 0.42778 0.0
H730 H 0.3592 0.86836 0.46567 0.0
H731 H 0.38692 0.87703 0.42495 0.0
H732 H 0.32272 0.85376 0.43893 0.0
H733 H 0.30307 0.92092 0.52442 0.0
H734 H 0.3044 0.92971 0.48232 0.0
H735 H 0.32839 0.91955 0.50224 0.0
C736 C 0.35031 0.91646 0.40559 0.0
C737 C 0.36891 0.90351 0.40307 0.0
C738 C 0.33434 0.91128 0.42855 0.0
C739 C 0.3371 0.89345 0.44961 0.0
C740 C 0.35679 0.88215 0.44954 0.0
H741 H 0.23444 0.83795 0.56893 0.0
H742 H 0.2679 0.85514 0.55074 0.0
C743 C 0.37254 0.88704 0.42623 0.0
C744 C 0.31812 0.88366 0.46571 0.0
H745 H 0.2749 0.89434 0.51526 0.0
C746 C 0.31249 0.86253 0.45611 0.0
C747 C 0.30478 0.89515 0.48791 0.0
C748 C 0.31058 0.91752 0.50008 0.0
C749 C 0.29356 0.85274 0.46742 0.0
C750 C 0.27965 0.86462 0.48823 0.0
C751 C 0.28555 0.88548 0.49882 0.0
C752 C 0.25894 0.85545 0.4992 0.0
C753 C 0.28858 0.82979 0.45683 0.0
C754 C 0.24284 0.85023 0.4761 0.0
C755 C 0.22377 0.84022 0.48628 0.0
C756 C 0.22049 0.83551 0.51977 0.0
C757 C 0.23651 0.84126 0.5429 0.0
C758 C 0.25558 0.85118 0.53266 0.0
H759 H 0.30332 0.82118 0.44821 0.0
H760 H 0.28129 0.8204 0.47735 0.0
H761 H 0.27683 0.83013 0.43612 0.0
H762 H 0.24513 0.85375 0.45017 0.0
H763 H 0.21163 0.83622 0.46795 0.0
H764 H 0.81784 0.60395 0.63051 0.0
H765 H 0.82714 0.57089 0.66031 0.0
H766 H 0.89504 0.58582 0.65012 0.0
H767 H 0.88589 0.61851 0.61914 0.0
H768 H 0.88716 0.54502 0.63455 0.0
H769 H 0.84741 0.56365 0.75353 0.0
H770 H 0.82889 0.56508 0.71952 0.0
H771 H 0.85121 0.58381 0.72188 0.0
C772 C 0.83475 0.60028 0.63487 0.0
C773 C 0.85116 0.61379 0.6226 0.0
C774 C 0.84002 0.58147 0.65209 0.0
C775 C 0.86175 0.57616 0.65797 0.0
C776 C 0.87816 0.58972 0.64594 0.0
H777 H 0.90463 0.47597 0.79201 0.0
H778 H 0.89573 0.51021 0.76511 0.0
C779 C 0.87292 0.60835 0.62826 0.0
C780 C 0.86743 0.55587 0.6751 0.0
H781 H 0.8583 0.52687 0.74519 0.0
C782 C 0.88101 0.54111 0.65887 0.0
C783 C 0.85957 0.55098 0.70697 0.0
C784 C 0.84616 0.56683 0.72663 0.0
C785 C 0.88675 0.52139 0.67345 0.0
C786 C 0.87802 0.51603 0.70461 0.0
C787 C 0.8647 0.53093 0.72108 0.0
C788 C 0.88289 0.49524 0.7209 0.0
C789 C 0.90244 0.50676 0.6556 0.0
C790 C 0.87823 0.47553 0.70514 0.0
C791 C 0.8836 0.45596 0.7202 0.0
C792 C 0.89325 0.45583 0.75159 0.0
C793 C 0.89719 0.47558 0.7678 0.0
C794 C 0.89213 0.49514 0.7525 0.0
H795 H 0.9124 0.51592 0.63758 0.0
H796 H 0.91345 0.49843 0.67315 0.0
H797 H 0.89324 0.49426 0.64173 0.0
H798 H 0.87051 0.47528 0.68115 0.0
H799 H 0.88013 0.44095 0.70735 0.0
H800 H 0.67868 0.88427 0.03234 0.0
H801 H 0.708 0.90327 0.0609 0.0
H802 H 0.7527 0.88266 0.98535 0.0
H803 H 0.72339 0.86471 0.95605 0.0
H804 H 0.73994 0.88519 0.08817 0.0
H805 H 0.77496 0.94186 -0.0011 0.0
H806 H 0.74873 0.92965 0.99235 0.0
H807 H 0.77309 0.91597 0.97919 0.0
C808 C 0.6947 0.88421 0.02155 0.0
C809 C 0.69883 0.87294 0.9921 0.0
C810 C 0.7114 0.89516 0.03777 0.0
C811 C 0.73251 0.89477 0.02501 0.0
C812 C 0.73645 0.88394 -0.00487 0.0
H813 H 0.84698 0.86391 0.11587 0.0
H814 H 0.81099 0.86884 0.09267 0.0
C815 C 0.71972 0.87339 0.97859 0.0
C816 C 0.75101 0.90247 0.04509 0.0
H817 H 0.80127 0.92465 0.0372 0.0
C818 C 0.75306 0.89441 0.0773 0.0
C819 C 0.76798 0.91502 0.03154 0.0
C820 C 0.76589 0.9263 -0.00128 0.0
C821 C 0.77242 0.89659 0.09486 0.0
C822 C 0.79038 0.9064 0.07932 0.0
C823 C 0.78766 0.91652 0.04865 0.0
C824 C 0.81245 0.90392 0.0927 0.0
C825 C 0.77371 0.88753 0.12936 0.0
C826 C 0.82562 0.922 0.0988 0.0
C827 C 0.84646 0.9192 0.11158 0.0
C828 C 0.85434 0.89828 0.1184 0.0
C829 C 0.84129 0.88024 0.11131 0.0
C830 C 0.82063 0.88304 0.09831 0.0
H831 H 0.75773 0.88842 0.1418 0.0
H832 H 0.77843 0.87019 0.12813 0.0
H833 H 0.7858 0.89636 0.14458 0.0
H834 H 0.81966 0.93822 0.09416 0.0
H835 H 0.85617 0.93342 0.11678 0.0
H836 H 0.31623 0.61276 0.85475 0.0
H837 H 0.32909 0.58613 0.81461 0.0
H838 H 0.37527 0.63256 0.77753 0.0
H839 H 0.36328 0.65879 0.819 0.0
H840 H 0.33753 0.57984 0.74914 0.0
H841 H 0.41369 0.58828 0.82166 0.0
H842 H 0.38898 0.60164 0.83343 0.0
H843 H 0.40527 0.61236 0.8005 0.0
C844 C 0.32861 0.61747 0.83728 0.0
C845 C 0.33918 0.63748 0.84022 0.0
C846 C 0.33594 0.6023 0.81436 0.0
C847 C 0.3536 0.60722 0.79395 0.0
C848 C 0.36205 0.62831 0.79381 0.0
H849 H 0.40927 0.50032 0.67852 0.0
H850 H 0.39368 0.53557 0.69218 0.0
C851 C 0.35516 0.64326 0.81731 0.0
C852 C 0.36535 0.5894 0.77765 0.0
H853 H 0.41272 0.56116 0.78158 0.0
C854 C 0.35406 0.57584 0.75582 0.0
C855 C 0.38681 0.58411 0.78705 0.0
C856 C 0.39937 0.59721 0.81214 0.0
C857 C 0.36342 0.55666 0.74395 0.0
C858 C 0.38479 0.55137 0.75358 0.0
C859 C 0.39635 0.56538 0.77428 0.0
C860 C 0.39492 0.53051 0.74493 0.0
C861 C 0.34995 0.54171 0.72273 0.0
C862 C 0.40161 0.51644 0.77016 0.0
C863 C 0.41091 0.4965 0.76251 0.0
C864 C 0.41348 0.49027 0.72947 0.0
C865 C 0.40722 0.50461 0.70424 0.0
C866 C 0.39818 0.52467 0.71194 0.0
H867 H 0.33244 0.54574 0.72396 0.0
H868 H 0.35517 0.54324 0.69668 0.0
H869 H 0.35212 0.52456 0.73033 0.0
H870 H 0.39931 0.52077 0.79583 0.0
H871 H 0.41554 0.48576 0.78242 0.0
H872 H 0.61706 0.0764 0.54477 0.0
H873 H 0.64587 0.0743 0.50369 0.0
H874 H 0.67307 0.13389 0.54102 0.0
H875 H 0.64411 0.13641 0.58175 0.0
H876 H 0.67353 0.13013 0.47132 0.0
H877 H 0.70686 0.05693 0.5341 0.0
H878 H 0.67939 0.05583 0.51951 0.0
H879 H 0.68635 0.0736 0.55297 0.0
C880 C 0.62907 0.08918 0.54405 0.0
C881 C 0.62855 0.10642 0.56684 0.0
C882 C 0.64548 0.08792 0.52056 0.0
C883 C 0.66169 0.10374 0.51977 0.0
C884 C 0.66063 0.12151 0.54136 0.0
H885 H 0.78799 0.12633 0.50792 0.0
H886 H 0.7515 0.11258 0.51575 0.0
C887 C 0.64414 0.12289 0.56468 0.0
C888 C 0.68088 0.10119 0.49862 0.0
H889 H 0.72901 0.07429 0.49579 0.0
C890 C 0.6855 0.11762 0.47587 0.0
C891 C 0.69627 0.0847 0.50469 0.0
C892 C 0.69215 0.06677 0.52922 0.0
C893 C 0.70596 0.11916 0.46124 0.0
C894 C 0.72192 0.10365 0.4694 0.0
C895 C 0.7166 0.08606 0.48966 0.0
C896 C 0.745 0.10818 0.46369 0.0
C897 C 0.71095 0.13846 0.4397 0.0
C898 C 0.75363 0.10949 0.43183 0.0
C899 C 0.77457 0.1175 0.42721 0.0
C900 C 0.78701 0.12428 0.45446 0.0
C901 C 0.77874 0.12151 0.4864 0.0
C902 C 0.75793 0.11353 0.49094 0.0
H903 H 0.69709 0.14986 0.43786 0.0
H904 H 0.72515 0.14741 0.4496 0.0
H905 H 0.71507 0.13283 0.41449 0.0
H906 H 0.7439 0.10517 0.41057 0.0
H907 H 0.78058 0.1193 0.40229 0.0
H908 H 0.12493 0.36931 0.34984 0.0
H909 H 0.11777 0.40482 0.3261 0.0
H910 H 0.17547 0.43014 0.37224 0.0
H911 H 0.18307 0.39416 0.39566 0.0
H912 H 0.11152 0.44073 0.36928 0.0
H913 H 0.17627 0.45496 0.27615 0.0
H914 H 0.16935 0.42803 0.29002 0.0
H915 H 0.18389 0.44601 0.31682 0.0
C916 C 0.13634 0.38232 0.35439 0.0
C917 C 0.15443 0.37914 0.37474 0.0
C918 C 0.13224 0.40255 0.34085 0.0
C919 C 0.14604 0.42002 0.34764 0.0
C920 C 0.16478 0.41674 0.36655 0.0
H921 H 0.08275 0.54408 0.30084 0.0
H922 H 0.10464 0.51809 0.33201 0.0
C923 C 0.16908 0.39626 0.37986 0.0
C924 C 0.13923 0.44182 0.33725 0.0
H925 H 0.14804 0.48043 0.27888 0.0
C926 C 0.11964 0.4497 0.3499 0.0
C927 C 0.15002 0.45329 0.31213 0.0
C928 C 0.17102 0.44523 0.29774 0.0
C929 C 0.10961 0.46793 0.33634 0.0
C930 C 0.1199 0.47893 0.31012 0.0
C931 C 0.14026 0.47191 0.29901 0.0
C932 C 0.1085 0.49582 0.29114 0.0
C933 C 0.08739 0.47422 0.34858 0.0
C934 C 0.10405 0.49217 0.25768 0.0
C935 C 0.09187 0.50704 0.23978 0.0
C936 C 0.08374 0.52574 0.25515 0.0
C937 C 0.08848 0.52957 0.28856 0.0
C938 C 0.101 0.51481 0.30635 0.0
H939 H 0.08006 0.46141 0.36424 0.0
H940 H 0.08865 0.4892 0.36361 0.0
H941 H 0.07629 0.47747 0.32761 0.0
H942 H 0.10964 0.47754 0.24555 0.0
H943 H 0.08854 0.50372 0.21402 0.0
H944 H 0.61707 0.6348 0.38521 0.0
H945 H 0.64381 0.6371 0.42912 0.0
H946 H 0.63396 0.56957 0.45204 0.0
H947 H 0.60728 0.5669 0.40747 0.0
H948 H 0.64362 0.62776 0.49763 0.0
H949 H 0.6981 0.57342 0.42531 0.0
H950 H 0.674 0.58496 0.40738 0.0
H951 H 0.67186 0.56336 0.4368 0.0
C952 C 0.62037 0.62044 0.39972 0.0
C953 C 0.61036 0.60056 0.39244 0.0
C954 C 0.63555 0.62184 0.42498 0.0
C955 C 0.64096 0.60344 0.44348 0.0
C956 C 0.63013 0.58385 0.43767 0.0
H957 H 0.752 0.63395 0.5733 0.0
H958 H 0.71761 0.61671 0.55858 0.0
C959 C 0.61494 0.58239 0.41221 0.0
C960 C 0.6596 0.60474 0.46603 0.0
H961 H 0.71367 0.5939 0.46747 0.0
C962 C 0.65886 0.6199 0.49182 0.0
C963 C 0.67936 0.59442 0.45813 0.0
C964 C 0.68108 0.57819 0.43034 0.0
C965 C 0.6778 0.62644 0.50806 0.0
C966 C 0.69774 0.61735 0.49829 0.0
C967 C 0.69822 0.60079 0.47464 0.0
C968 C 0.71843 0.62733 0.50782 0.0
C969 C 0.67667 0.6443 0.53345 0.0
C970 C 0.73014 0.6388 0.48398 0.0
C971 C 0.7497 0.64862 0.49215 0.0
C972 C 0.7579 0.64706 0.52437 0.0
C973 C 0.74608 0.6355 0.54827 0.0
C974 C 0.72645 0.62566 0.54 0.0
H975 H 0.65993 0.65048 0.53688 0.0
H976 H 0.68267 0.63817 0.5575 0.0
H977 H 0.68725 0.658 0.52601 0.0
H978 H 0.72405 0.64025 0.459 0.0
H979 H 0.75839 0.65736 0.47318 0.0
H980 H 0.12219 0.01167 0.81877 0.0
H981 H 0.14069 0.97835 0.80193 0.0
H982 H 0.12103 0.98936 0.70122 0.0
H983 H 0.10267 0.02256 0.71761 0.0
H984 H 0.11874 0.94373 0.77332 0.0
H985 H 0.18453 0.97154 0.69164 0.0
H986 H 0.17164 0.98917 0.72135 0.0
H987 H 0.15937 0.9845 0.68164 0.0
C988 C 0.12215 0.00719 0.79294 0.0
C989 C 0.11085 0.01965 0.76952 0.0
C990 C 0.13276 0.98821 0.78341 0.0
C991 C 0.13248 0.98166 0.75032 0.0
C992 C 0.12185 0.99445 0.72678 0.0
H993 H 0.11286 0.87238 0.64 0.0
H994 H 0.11298 0.90278 0.67852 0.0
C995 C 0.11116 0.0133 0.73625 0.0
C996 C 0.1407 0.9602 0.74055 0.0
H997 H 0.16976 0.9357 0.67976 0.0
C998 C 0.13037 0.94185 0.75351 0.0
C999 C 0.15612 0.9578 0.71514 0.0
C1000 C 0.16872 0.97682 0.7019 0.0
C1001 C 0.13351 0.92137 0.73944 0.0
C1002 C 0.1471 0.91942 0.71164 0.0
C1003 C 0.15906 0.93737 0.7008 0.0
C1004 C 0.14695 0.89983 0.6909 0.0
C1005 C 0.12147 0.90221 0.75338 0.0
C1006 C 0.1661 0.88838 0.68488 0.0
C1007 C 0.16611 0.87104 0.66276 0.0
C1008 C 0.14701 0.86512 0.64603 0.0
C1009 C 0.12782 0.87654 0.65244 0.0
C1010 C 0.12781 0.89377 0.67467 0.0
H1011 H 0.1177 0.90464 0.77991 0.0
H1012 H 0.10592 0.90025 0.73997 0.0
H1013 H 0.13095 0.88703 0.75056 0.0
H1014 H 0.18105 0.89304 0.69696 0.0
H1015 H 0.18119 0.86258 0.65832 0.0
H1016 H 0.7212 0.35036 0.97371 0.0
H1017 H 0.75208 0.3737 0.96303 0.0
H1018 H 0.75226 0.39466 0.06458 0.0
H1019 H 0.7214 0.37088 0.07583 0.0
H1020 H 0.76014 0.41896 0.97221 0.0
H1021 H 0.81205 0.36644 0.05175 0.0
H1022 H 0.78529 0.35775 0.03987 0.0
H1023 H 0.78857 0.37947 0.06893 0.0
C1024 C 0.72762 0.36004 0.99377 0.0
C1025 C 0.71909 0.35848 0.02572 0.0
C1026 C 0.74517 0.37352 0.98758 0.0
C1027 C 0.75447 0.38575 0.0131 0.0
C1028 C 0.74539 0.38514 0.04469 0.0
H1029 H 0.87012 0.42957 0.90702 0.0
H1030 H 0.8436 0.43534 0.95103 0.0
C1031 C 0.72782 0.37152 0.05101 0.0
C1032 C 0.77505 0.39693 0.00647 0.0
H1033 H 0.82881 0.38498 0.00865 0.0
C1034 C 0.77533 0.4123 0.98102 0.0
C1035 C 0.79475 0.38834 0.01849 0.0
C1036 C 0.79535 0.37207 0.04625 0.0
C1037 C 0.79448 0.41685 0.96396 0.0
C1038 C 0.81362 0.40589 0.97313 0.0
C1039 C 0.81392 0.3931 0.00166 0.0
C1040 C 0.83111 0.40263 0.94909 0.0
C1041 C 0.79358 0.43116 0.93384 0.0
C1042 C 0.83296 0.38225 0.93401 0.0
C1043 C 0.84796 0.37885 0.90903 0.0
C1044 C 0.86139 0.39584 0.89862 0.0
C1045 C 0.85986 0.41618 0.91433 0.0
C1046 C 0.84479 0.41954 0.93947 0.0
H1047 H 0.77731 0.43842 0.9301 0.0
H1048 H 0.80556 0.44447 0.93629 0.0
H1049 H 0.79786 0.4216 0.91156 0.0
H1050 H 0.82237 0.36904 0.94108 0.0
H1051 H 0.84877 0.363 0.89759 0.0
H1052 H 0.37365 0.98855 0.27508 0.0
H1053 H 0.35509 0.01618 0.24298 0.0
H1054 H 0.32901 0.96678 0.17868 0.0
H1055 H 0.34855 0.93909 0.20988 0.0
H1056 H 0.34763 0.99504 0.14382 0.0
H1057 H 0.29677 0.04067 0.23014 0.0
H1058 H 0.32327 0.03897 0.24775 0.0
H1059 H 0.30784 0.01451 0.24076 0.0
C1060 C 0.36354 0.98353 0.25459 0.0
C1061 C 0.36272 0.96175 0.24471 0.0
C1062 C 0.35268 -0.00067 0.23644 0.0
C1063 C 0.34032 0.99358 0.20866 0.0
C1064 C 0.33838 0.97161 0.20007 0.0
H1065 H 0.30563 0.113 0.10301 0.0
H1066 H 0.29915 0.07748 0.128 0.0
C1067 C 0.3496 0.95583 0.21782 0.0
C1068 C 0.33277 0.01067 0.18577 0.0
H1069 H 0.31364 0.06246 0.18557 0.0
C1070 C 0.33957 0.0095 0.15277 0.0
C1071 C 0.32172 0.02938 0.19688 0.0
C1072 C 0.31178 0.03078 0.23076 0.0
C1073 C 0.33769 0.02735 0.13174 0.0
C1074 C 0.32949 0.04704 0.14439 0.0
C1075 C 0.32052 0.04751 0.17616 0.0
C1076 C 0.33279 0.06777 0.12693 0.0
C1077 C 0.34541 0.02518 0.09661 0.0
C1078 C 0.35385 0.0741 0.11836 0.0
C1079 C 0.35761 0.09423 0.10401 0.0
C1080 C 0.34039 0.10862 0.09843 0.0
C1081 C 0.31925 0.10226 0.107 0.0
C1082 C 0.31549 0.08199 0.1212 0.0
H1083 H 0.34285 0.00842 0.08734 0.0
H1084 H 0.33694 0.03667 0.07995 0.0
H1085 H 0.36305 0.02853 0.09561 0.0
H1086 H 0.36754 0.06367 0.12356 0.0
H1087 H 0.3741 0.09867 0.09799 0.0
H1088 H 0.19813 0.34224 0.55885 0.0
H1089 H 0.2263 0.35817 0.59367 0.0
H1090 H 0.27094 0.35597 0.51196 0.0
H1091 H 0.24264 0.34093 0.4767 0.0
H1092 H 0.26337 0.34224 0.61279 0.0
H1093 H 0.27949 0.41689 0.54227 0.0
H1094 H 0.25629 0.39996 0.53409 0.0
H1095 H 0.28221 0.39364 0.51611 0.0
C1096 C 0.21393 0.34531 0.54829 0.0
C1097 C 0.21822 0.34048 0.51506 0.0
C1098 C 0.22995 0.35443 0.56816 0.0
C1099 C 0.25054 0.35869 0.55518 0.0
C1100 C 0.25494 0.35351 0.52216 0.0
H1101 H 0.37315 0.36028 0.64824 0.0
H1102 H 0.33747 0.3516 0.62601 0.0
C1103 C 0.23883 0.34474 0.50212 0.0
C1104 C 0.26785 0.36738 0.57653 0.0
H1105 H 0.3083 0.40482 0.57832 0.0
C1106 C 0.27298 0.35616 0.60559 0.0
C1107 C 0.27999 0.38589 0.56762 0.0
C1108 C 0.27402 0.39991 0.53851 0.0
C1109 C 0.29077 0.36219 0.62495 0.0
C1110 C 0.30416 0.37937 0.61421 0.0
C1111 C 0.29825 0.39139 0.58625 0.0
C1112 C 0.32507 0.38435 0.63019 0.0
C1113 C 0.29504 0.35 0.65654 0.0
C1114 C 0.33015 0.40574 0.63908 0.0
C1115 C 0.35073 0.41083 0.65085 0.0
C1116 C 0.36647 0.39456 0.65426 0.0
C1117 C 0.36123 0.37308 0.64613 0.0
C1118 C 0.34078 0.36807 0.63375 0.0
H1119 H 0.27974 0.34373 0.66726 0.0
H1120 H 0.30555 0.33585 0.65121 0.0
H1121 H 0.30319 0.36038 0.67518 0.0
H1122 H 0.31829 0.41855 0.63635 0.0
H1123 H 0.35435 0.42752 0.65716 0.0
H1124 H 0.92206 0.12889 0.3596 0.0
H1125 H 0.93791 0.10501 0.31789 0.0
H1126 H 0.87446 0.07927 0.29619 0.0
H1127 H 0.85853 0.10362 0.33655 0.0
H1128 H 0.93942 0.06379 0.31985 0.0
H1129 H 0.8969 0.08382 0.20521 0.0
H1130 H 0.89625 0.10165 0.24056 0.0
H1131 H 0.87677 0.07997 0.23631 0.0
C1132 C 0.9115 0.11833 0.34552 0.0
C1133 C 0.88908 0.118 0.35135 0.0
C1134 C 0.92055 0.10484 0.32159 0.0
C1135 C 0.90733 0.09072 0.30334 0.0
C1136 C 0.88491 0.09061 0.30896 0.0
H1137 H 0.91315 0.96147 0.27033 0.0
H1138 H 0.91555 -0.00095 0.28819 0.0
C1139 C 0.87584 0.10432 0.33243 0.0
C1140 C 0.91692 0.07383 0.28204 0.0
H1141 H 0.90516 0.04461 0.21305 0.0
C1142 C 0.93244 0.05999 0.29597 0.0
C1143 C 0.90851 0.06916 0.25035 0.0
C1144 C 0.89389 0.08467 0.23219 0.0
C1145 C 0.9377 0.04028 0.28093 0.0
C1146 C 0.92657 0.03407 0.25195 0.0
C1147 C 0.91316 0.04908 0.2359 0.0
C1148 C 0.92612 0.01131 0.2408 0.0
C1149 C 0.95432 0.02588 0.29714 0.0
C1150 C 0.9303 0.00588 0.20785 0.0
C1151 C 0.92844 0.9844 0.19735 0.0
C1152 C 0.9224 0.96808 0.21973 0.0
C1153 C 0.91805 0.97364 0.25261 0.0
C1154 C 0.91968 0.99508 0.26294 0.0
H1155 H 0.96708 0.03575 0.30936 0.0
H1156 H 0.94637 0.01602 0.31652 0.0
H1157 H 0.96211 0.01482 0.27908 0.0
H1158 H 0.93499 0.01824 0.1903 0.0
H1159 H 0.93195 0.98056 0.17185 0.0
H1160 H 0.10745 0.62688 0.10617 0.0
H1161 H 0.1415 0.6312 0.07637 0.0
H1162 H 0.15687 0.56397 0.09386 0.0
H1163 H 0.1226 0.55932 0.12281 0.0
H1164 H 0.1812 0.6261 0.10209 0.0
H1165 H 0.17026 0.56963 -0.00324 0.0
H1166 H 0.1481 0.5781 0.0227 0.0
H1167 H 0.16632 0.55719 0.03628 0.0
C1168 C 0.11795 0.61295 0.10332 0.0
C1169 C 0.11236 0.59277 0.11682 0.0
C1170 C 0.13737 0.61544 0.08629 0.0
C1171 C 0.15155 0.59784 0.08261 0.0
C1172 C 0.14591 0.57761 0.09574 0.0
H1173 H 0.28739 0.62286 0.03893 0.0
H1174 H 0.25477 0.60772 0.06407 0.0
C1175 C 0.12638 0.57504 0.11246 0.0
C1176 C 0.17289 0.60115 0.06713 0.0
H1177 H 0.20548 0.5844 0.00423 0.0
C1178 C 0.18652 0.617 0.08067 0.0
C1179 C 0.17967 0.58926 0.03915 0.0
C1180 C 0.16525 0.57273 0.02265 0.0
C1181 C 0.20669 0.62159 0.06673 0.0
C1182 C 0.21368 0.60943 0.03913 0.0
C1183 C 0.20015 0.59341 0.02572 0.0
C1184 C 0.23414 0.61459 0.02218 0.0
C1185 C 0.21989 0.63998 0.08096 0.0
C1186 C 0.23355 0.62208 0.98958 0.0
C1187 C 0.25217 0.6304 0.97498 0.0
C1188 C 0.27164 0.63151 0.9929 0.0
C1189 C 0.27254 0.62254 0.02472 0.0
C1190 C 0.25393 0.61396 0.03915 0.0
H1191 H 0.20998 0.6508 0.09682 0.0
H1192 H 0.23314 0.63324 0.09634 0.0
H1193 H 0.22725 0.64989 0.06107 0.0
H1194 H 0.21842 0.62256 0.97603 0.0
H1195 H 0.25096 0.63704 0.95034 0.0
H1196 H 0.61888 0.02514 0.65597 0.0
H1197 H 0.63444 0.99129 0.67649 0.0
H1198 H 0.60977 0.00537 0.77365 0.0
H1199 H 0.59462 0.03941 0.75367 0.0
H1200 H 0.65185 0.98944 0.7739 0.0
H1201 H 0.59689 0.93853 0.69695 0.0
H1202 H 0.61383 0.95754 0.67554 0.0
H1203 H 0.59275 0.96726 0.70215 0.0
C1204 C 0.61684 0.02106 0.68175 0.0
C1205 C 0.60532 0.03482 0.70317 0.0
C1206 C 0.62571 0.00172 0.69335 0.0
C1207 C 0.62295 -0.00423 0.72639 0.0
C1208 C 0.61204 0.00975 0.74801 0.0
H1209 H 0.60404 0.88841 0.84149 0.0
H1210 H 0.60452 0.91763 0.80128 0.0
C1211 C 0.60334 0.02914 0.73654 0.0
C1212 C 0.63043 0.97458 0.73864 0.0
H1213 H 0.61821 0.92072 0.73619 0.0
C1214 C 0.64486 0.97431 0.76535 0.0
C1215 C 0.6212 0.95498 0.72721 0.0
C1216 C 0.6052 0.95445 0.69903 0.0
C1217 C 0.64917 0.95512 0.78253 0.0
C1218 C 0.6391 0.93569 0.77208 0.0
C1219 C 0.6259 0.9357 0.74393 0.0
C1220 C 0.6391 0.91623 0.79308 0.0
C1221 C 0.66311 0.95612 0.81312 0.0
C1222 C 0.65835 0.90541 0.80105 0.0
C1223 C 0.65818 0.8888 0.8244 0.0
C1224 C 0.63871 0.88269 0.83979 0.0
C1225 C 0.61933 0.8928 0.83028 0.0
C1226 C 0.61955 0.90945 0.80719 0.0
H1227 H 0.66695 0.97304 0.82045 0.0
H1228 H 0.65491 0.94799 0.83409 0.0
H1229 H 0.67858 0.94753 0.80846 0.0
H1230 H 0.67353 0.9102 0.78991 0.0
H1231 H 0.67336 0.88112 0.83092 0.0
H1232 H 0.37644 0.1654 0.91275 0.0
H1233 H 0.3982 0.15134 0.86719 0.0
H1234 H 0.43647 0.11415 0.93577 0.0
H1235 H 0.41493 0.12812 0.98154 0.0
H1236 H 0.46008 0.14232 0.89316 0.0
H1237 H 0.40219 0.09022 0.82414 0.0
H1238 H 0.3926 0.11688 0.83453 0.0
H1239 H 0.39814 0.09774 0.86677 0.0
C1240 C 0.38929 0.154 0.91815 0.0
C1241 C 0.39401 0.14798 0.95084 0.0
C1242 C 0.4016 0.14587 0.89204 0.0
C1243 C 0.41875 0.13156 0.89818 0.0
C1244 C 0.42317 0.12508 0.93061 0.0
H1245 H 0.5268 0.08632 0.78056 0.0
H1246 H 0.49979 0.09117 0.82381 0.0
C1247 C 0.41086 0.13313 0.95671 0.0
C1248 C 0.43343 0.12504 0.87125 0.0
H1249 H 0.43591 0.09753 0.79827 0.0
C1250 C 0.45488 0.13238 0.87253 0.0
C1251 C 0.42643 0.11227 0.84432 0.0
C1252 C 0.40363 0.10364 0.84231 0.0
C1253 C 0.46952 0.12761 0.84723 0.0
C1254 C 0.46262 0.11469 0.82035 0.0
C1255 C 0.44114 0.10732 0.81904 0.0
C1256 C 0.4775 0.10918 0.7931 0.0
C1257 C 0.49206 0.13702 0.84908 0.0
C1258 C 0.47334 0.11671 0.7611 0.0
C1259 C 0.48865 0.11377 0.73617 0.0
C1260 C 0.50838 0.1033 0.74296 0.0
C1261 C 0.51191 0.09473 0.77464 0.0
C1262 C 0.49653 0.09753 0.79942 0.0
H1263 H 0.49296 0.15088 0.86654 0.0
H1264 H 0.50344 0.12436 0.85785 0.0
H1265 H 0.49757 0.1426 0.82446 0.0
H1266 H 0.45865 0.12563 0.75575 0.0
H1267 H 0.4854 0.12048 0.712 0.0
H1268 H 0.61398 0.61932 0.17929 0.0
H1269 H 0.6293 0.64534 0.14052 0.0
H1270 H 0.62582 0.69543 0.21461 0.0
H1271 H 0.61083 0.66946 0.25379 0.0
H1272 H 0.60544 0.68047 0.12149 0.0
H1273 H 0.68435 0.70762 0.17217 0.0
H1274 H 0.67115 0.68304 0.18558 0.0
H1275 H 0.66252 0.70889 0.20127 0.0
C1276 C 0.61694 0.63574 0.18763 0.0
C1277 C 0.61097 0.64237 0.21954 0.0
C1278 C 0.62575 0.65057 0.16545 0.0
C1279 C 0.62881 0.67227 0.17475 0.0
C1280 C 0.624 0.67867 0.20712 0.0
H1281 H 0.64064 0.79284 0.06895 0.0
H1282 H 0.63945 0.76447 0.11107 0.0
C1283 C 0.61528 0.66381 0.22942 0.0
C1284 C 0.63398 0.68868 0.1494 0.0
H1285 H 0.66898 0.7294 0.12926 0.0
C1286 C 0.61949 0.69098 0.12297 0.0
C1287 C 0.65216 0.70253 0.15168 0.0
C1288 C 0.66856 0.70032 0.17905 0.0
C1289 C 0.62242 0.70702 0.09904 0.0
C1290 C 0.64056 0.72091 0.10129 0.0
C1291 C 0.65514 0.71863 0.12763 0.0
C1292 C 0.6442 0.73811 0.07662 0.0
C1293 C 0.60572 0.70938 0.07204 0.0
C1294 C 0.64794 0.73264 0.04357 0.0
C1295 C 0.64846 0.74872 0.01946 0.0
C1296 C 0.64542 0.77061 0.02803 0.0
C1297 C 0.64291 0.77613 0.06149 0.0
C1298 C 0.64229 0.75997 0.0856 0.0
H1299 H 0.59041 0.70084 0.07812 0.0
H1300 H 0.60201 0.72673 0.06743 0.0
H1301 H 0.61217 0.70231 0.04888 0.0
H1302 H 0.64976 0.71583 0.0363 0.0
H1303 H 0.65072 0.74391 0.994 0.0
H1304 H 0.96955 0.89741 0.30485 0.0
H1305 H -0.00295 0.89275 0.34726 0.0
H1306 H 0.03965 0.86307 0.27622 0.0
H1307 H 0.01213 0.86776 0.23315 0.0
H1308 H 0.01382 0.85141 0.36526 0.0
H1309 H 0.07817 0.90858 0.325 0.0
H1310 H 0.05049 0.91066 0.31089 0.0
H1311 H 0.06801 0.89025 0.29411 0.0
C1312 C 0.98481 0.89005 0.298 0.0
C1313 C 0.98859 0.88284 0.26556 0.0
C1314 C 0.00052 0.88746 0.32233 0.0
C1315 C 0.02038 0.87776 0.31476 0.0
C1316 C 0.02449 0.87092 0.28235 0.0
H1317 H 0.12729 0.83281 0.43219 0.0
H1318 H 0.10351 0.84539 0.38816 0.0
C1319 C 0.00872 0.87349 0.25786 0.0
C1320 C 0.03595 0.87333 0.34154 0.0
H1321 H 0.08632 0.88585 0.37045 0.0
C1322 C 0.02964 0.859 0.36654 0.0
C1323 C 0.05654 0.88324 0.34288 0.0
C1324 C 0.06376 0.89918 0.31696 0.0
C1325 C 0.04354 0.85401 0.39274 0.0
C1326 C 0.0641 0.86404 0.39431 0.0
C1327 C 0.07045 0.87837 0.36925 0.0
C1328 C 0.07954 0.85896 0.42104 0.0
C1329 C 0.0363 0.83758 0.418 0.0
C1330 C 0.07426 0.86315 0.45409 0.0
C1331 C 0.08775 0.85584 0.47943 0.0
C1332 C 0.10682 0.8444 0.47204 0.0
C1333 C 0.11265 0.84143 0.4388 0.0
C1334 C 0.09912 0.84865 0.41355 0.0
H1335 H 0.02248 0.82769 0.40894 0.0
H1336 H 0.04976 0.8265 0.42472 0.0
H1337 H 0.03101 0.84616 0.44066 0.0
H1338 H 0.05939 0.87149 0.46028 0.0
H1339 H 0.08288 0.85859 0.50473 0.0
H1340 H 0.84779 0.25373 0.50006 0.0
H1341 H 0.84414 0.27824 0.54721 0.0
H1342 H 0.81383 0.22735 0.60338 0.0
H1343 H 0.81758 0.20264 0.55666 0.0
H1344 H 0.80785 0.29171 0.58917 0.0
H1345 H 0.87011 0.2424 0.65451 0.0
H1346 H 0.86524 0.2398 0.61081 0.0
H1347 H 0.84661 0.2282 0.63977 0.0
C1348 C 0.84002 0.24783 0.52222 0.0
C1349 C 0.83333 0.22611 0.52477 0.0
C1350 C 0.83789 0.26188 0.5491 0.0
C1351 C 0.82903 0.25445 0.57884 0.0
C1352 C 0.821 0.23325 0.58075 0.0
H1353 H 0.85363 0.31802 0.76813 0.0
H1354 H 0.83556 0.29394 0.72865 0.0
C1355 C 0.82319 0.21918 0.55399 0.0
C1356 C 0.83021 0.26821 0.60864 0.0
H1357 H 0.85795 0.27379 0.6809 0.0
C1358 C 0.81858 0.28772 0.60947 0.0
C1359 C 0.8441 0.26282 0.63515 0.0
C1360 C 0.85738 0.24226 0.63514 0.0
C1361 C 0.821 0.30235 0.63577 0.0
C1362 C 0.83578 0.29747 0.6614 0.0
C1363 C 0.84656 0.27747 0.6613 0.0
C1364 C 0.84266 0.31382 0.68606 0.0
C1365 C 0.80798 0.32302 0.63558 0.0
C1366 C 0.85227 0.33313 0.6753 0.0
C1367 C 0.86258 0.34685 0.69768 0.0
C1368 C 0.8637 0.34144 0.73132 0.0
C1369 C 0.85307 0.32265 0.74239 0.0
C1370 C 0.84273 0.30889 0.71988 0.0
H1371 H 0.79235 0.32073 0.62244 0.0
H1372 H 0.80464 0.32883 0.661 0.0
H1373 H 0.81717 0.33575 0.62231 0.0
H1374 H 0.85292 0.33703 0.64928 0.0
H1375 H 0.87051 0.36122 0.68828 0.0
H1376 H 0.55987 0.87599 0.95969 0.0
H1377 H 0.53163 0.89365 0.99244 0.0
H1378 H 0.57287 0.8912 0.07825 0.0
H1379 H 0.60112 0.87365 0.04592 0.0
H1380 H 0.51353 0.87313 0.04798 0.0
H1381 H 0.54781 0.95307 0.08142 0.0
H1382 H 0.55747 0.93735 0.04678 0.0
H1383 H 0.56645 0.93117 0.08794 0.0
C1384 C 0.56307 0.87957 0.98539 0.0
C1385 C 0.58267 0.87329 0.00029 0.0
C1386 C 0.54695 0.88969 0.00398 0.0
C1387 C 0.55034 0.89399 0.03755 0.0
C1388 C 0.57015 0.88844 0.05218 0.0
H1389 H 0.49217 0.91169 0.22025 0.0
H1390 H 0.51457 0.9112 0.17084 0.0
C1391 C 0.58618 0.8782 0.03373 0.0
C1392 C 0.53242 0.90161 0.05856 0.0
H1393 H 0.52007 0.93905 0.11747 0.0
C1394 C 0.5146 0.88781 0.06265 0.0
C1395 C 0.53402 0.92074 0.07755 0.0
C1396 C 0.55238 0.93655 0.07301 0.0
C1397 C 0.49912 0.89176 0.08713 0.0
C1398 C 0.50135 0.91032 0.10741 0.0
C1399 C 0.51846 0.92483 0.10191 0.0
C1400 C 0.48763 0.91346 0.13683 0.0
C1401 C 0.48146 0.87523 0.09257 0.0
C1402 C 0.46511 0.91555 0.13403 0.0
C1403 C 0.45219 0.91556 0.16227 0.0
C1404 C 0.46167 0.91377 0.19373 0.0
C1405 C 0.48434 0.91298 0.19642 0.0
C1406 C 0.49718 0.91277 0.1682 0.0
H1407 H 0.48452 0.85992 0.07891 0.0
H1408 H 0.47985 0.87136 0.11919 0.0
H1409 H 0.46581 0.88194 0.08388 0.0
H1410 H 0.45749 0.91655 0.11001 0.0
H1411 H 0.43479 0.9165 0.15939 0.0
H1412 H 0.42733 0.40438 0.83709 0.0
H1413 H 0.41515 0.38612 0.88751 0.0
H1414 H 0.3934 0.33163 0.82968 0.0
H1415 H 0.40548 0.34951 0.77938 0.0
H1416 H 0.36284 0.35224 0.88253 0.0
H1417 H 0.4453 0.32724 0.92397 0.0
H1418 H 0.44047 0.35449 0.90967 0.0
H1419 H 0.43976 0.33242 0.88095 0.0
C1420 C 0.41991 0.38853 0.83511 0.0
C1421 C 0.41745 0.37836 0.80421 0.0
C1422 C 0.41299 0.37817 0.8639 0.0
C1423 C 0.40345 0.3576 0.86211 0.0
C1424 C 0.40073 0.34755 0.8314 0.0
H1425 H 0.35136 0.24875 0.9478 0.0
H1426 H 0.35958 0.28199 0.9183 0.0
C1427 C 0.40773 0.35777 0.80272 0.0
C1428 C 0.39655 0.34599 0.89204 0.0
H1429 H 0.41558 0.31096 0.95014 0.0
C1430 C 0.37433 0.34357 0.89787 0.0
C1431 C 0.41165 0.33497 0.91208 0.0
C1432 C 0.43567 0.33727 0.90658 0.0
C1433 C 0.36675 0.3293 0.92211 0.0
C1434 C 0.38182 0.31682 0.94025 0.0
C1435 C 0.40407 0.32049 0.93608 0.0
C1436 C 0.375 0.29781 0.95983 0.0
C1437 C 0.34268 0.32715 0.92723 0.0
C1438 C 0.38121 0.29551 0.99294 0.0
C1439 C 0.37666 0.27633 0.00996 0.0
C1440 C 0.36607 0.25907 0.99392 0.0
C1441 C 0.35953 0.26168 0.96094 0.0
C1442 C 0.36402 0.2808 0.94408 0.0
H1443 H 0.33421 0.34254 0.92123 0.0
H1444 H 0.33627 0.31443 0.9105 0.0
H1445 H 0.33881 0.32256 0.95303 0.0
H1446 H 0.38992 0.30839 0.00538 0.0
H1447 H 0.38196 0.27481 0.03532 0.0
H1448 H 0.01845 0.06061 0.68871 0.0
H1449 H 0.98841 0.06463 0.65037 0.0
H1450 H 0.944 0.0704 0.73184 0.0
H1451 H 0.97416 0.06704 0.77068 0.0
H1452 H 0.94865 0.04562 0.6372 0.0
H1453 H 0.93945 0.12928 0.68729 0.0
H1454 H 0.962 0.11219 0.69814 0.0
H1455 H 0.93589 0.10764 0.71634 0.0
C1456 C 0.00227 0.06231 0.69862 0.0
C1457 C -0.00121 0.06406 0.7328 0.0
C1458 C 0.98508 0.06453 0.6766 0.0
C1459 C 0.9641 0.06838 0.6883 0.0
C1460 C 0.9602 0.06797 0.72237 0.0
H1461 H 0.86374 0.12817 0.5659 0.0
H1462 H 0.88025 0.10785 0.61111 0.0
C1463 C 0.97745 0.06596 0.74451 0.0
C1464 C 0.94719 0.07544 0.66479 0.0
H1465 H 0.919 0.1203 0.64083 0.0
C1466 C 0.94187 0.06182 0.63823 0.0
C1467 C 0.93847 0.09665 0.66616 0.0
C1468 C 0.9443 0.1124 0.69332 0.0
C1469 C 0.92862 0.06912 0.61239 0.0
C1470 C 0.92073 0.09061 0.61313 0.0
C1471 C 0.9251 0.10382 0.64047 0.0
C1472 C 0.90969 0.10055 0.58457 0.0
C1473 C 0.92355 0.05397 0.58421 0.0
C1474 C 0.92086 0.10321 0.55476 0.0
C1475 C 0.91158 0.11494 0.52895 0.0
C1476 C 0.89097 0.1243 0.53257 0.0
C1477 C 0.87965 0.12121 0.56228 0.0
C1478 C 0.88899 0.10953 0.58811 0.0
H1479 H 0.92506 0.03674 0.59179 0.0
H1480 H 0.90696 0.05677 0.57456 0.0
H1481 H 0.9352 0.05689 0.56389 0.0
H1482 H 0.93708 0.09683 0.55184 0.0
H1483 H 0.92074 0.11698 0.50641 0.0
H1484 H 0.1617 0.75901 0.43743 0.0
H1485 H 0.15009 0.73451 0.39356 0.0
H1486 H 0.12177 0.69182 0.46566 0.0
H1487 H 0.13306 0.71635 0.50987 0.0
H1488 H 0.15518 0.68874 0.37995 0.0
H1489 H 0.07039 0.71284 0.40751 0.0
H1490 H 0.09345 0.72741 0.42355 0.0
H1491 H 0.08533 0.70221 0.44193 0.0
C1492 C 0.15337 0.74421 0.44412 0.0
C1493 C 0.14795 0.73985 0.47717 0.0
C1494 C 0.14678 0.73022 0.41896 0.0
C1495 C 0.13469 0.71167 0.42642 0.0
C1496 C 0.13078 0.70632 0.45948 0.0
H1497 H 0.0613 0.61941 0.31418 0.0
H1498 H 0.07921 0.64128 0.35612 0.0
C1499 C 0.13734 0.7203 0.4847 0.0
C1500 C 0.12452 0.69909 0.39954 0.0
H1501 H 0.07536 0.68595 0.36675 0.0
C1502 C 0.13775 0.6881 0.37696 0.0
C1503 C 0.10178 0.69859 0.39561 0.0
C1504 C 0.08686 0.71103 0.41821 0.0
C1505 C 0.12873 0.67603 0.35095 0.0
C1506 C 0.10597 0.67534 0.34731 0.0
C1507 C 0.0928 0.68654 0.3697 0.0
C1508 C 0.09532 0.66233 0.32132 0.0
C1509 C 0.14354 0.6637 0.32811 0.0
C1510 C 0.09815 0.66721 0.28781 0.0
C1511 C 0.08787 0.65471 0.26359 0.0
C1512 C 0.07455 0.6372 0.27261 0.0
C1513 C 0.07147 0.63272 0.30629 0.0
C1514 C 0.08172 0.64518 0.33036 0.0
H1515 H 0.16016 0.6622 0.33838 0.0
H1516 H 0.13709 0.64721 0.32317 0.0
H1517 H 0.14462 0.6724 0.30424 0.0
H1518 H 0.10827 0.68068 0.28041 0.0
H1519 H 0.09055 0.65862 0.23789 0.0
H1520 H 0.83992 0.65347 0.418 0.0
H1521 H 0.85588 0.63499 0.3704 0.0
H1522 H 0.90814 0.61203 0.43166 0.0
H1523 H 0.89237 0.63025 0.47929 0.0
H1524 H 0.8973 0.64279 0.34487 0.0
H1525 H 0.88866 0.55708 0.38254 0.0
H1526 H 0.87318 0.57872 0.40112 0.0
H1527 H 0.90056 0.57364 0.41416 0.0
C1528 C 0.85472 0.64434 0.42142 0.0
C1529 C 0.86487 0.64335 0.45249 0.0
C1530 C 0.86376 0.63376 0.39421 0.0
C1531 C 0.88293 0.62182 0.3977 0.0
C1532 C 0.89304 0.62073 0.42864 0.0
H1533 H 0.98985 0.57161 0.30147 0.0
H1534 H 0.95892 0.57971 0.33646 0.0
C1535 C 0.8841 0.63135 0.45578 0.0
C1536 C 0.89351 0.61189 0.36869 0.0
H1537 H 0.91597 0.5646 0.34165 0.0
C1538 C 0.90098 0.62561 0.34365 0.0
C1539 C 0.89815 0.58948 0.36722 0.0
C1540 C 0.88953 0.57383 0.39255 0.0
C1541 C 0.91444 0.6178 0.31846 0.0
C1542 C 0.92015 0.59558 0.31809 0.0
C1543 C 0.91157 0.58162 0.34203 0.0
C1544 C 0.93733 0.58731 0.29605 0.0
C1545 C 0.92363 0.63367 0.29387 0.0
C1546 C 0.93515 0.588 0.26161 0.0
C1547 C 0.95292 0.58346 0.24139 0.0
C1548 C 0.97309 0.57813 0.2554 0.0
C1549 C 0.97465 0.57591 0.28984 0.0
C1550 C 0.95695 0.58045 0.30992 0.0
H1551 H 0.92028 0.65077 0.30081 0.0
H1552 H 0.94142 0.63155 0.29161 0.0
H1553 H 0.91631 0.63064 0.26929 0.0
H1554 H 0.91999 0.59289 0.25044 0.0
H1555 H 0.95113 0.58518 0.21495 0.0
H1556 H 0.08772 0.10032 0.67104 0.0
H1557 H 0.10485 0.11878 0.62454 0.0
H1558 H 0.11972 0.17333 0.68714 0.0
H1559 H 0.10267 0.1551 0.73383 0.0
H1560 H 0.09315 0.16082 0.5991 0.0
H1561 H 0.17829 0.15734 0.64221 0.0
H1562 H 0.15742 0.13968 0.65807 0.0
H1563 H 0.15954 0.16714 0.67259 0.0
C1564 C 0.09467 0.11624 0.67498 0.0
C1565 C 0.09386 0.12624 0.70619 0.0
C1566 C 0.10447 0.1267 0.64839 0.0
C1567 C 0.11384 0.14718 0.65266 0.0
C1568 C 0.11292 0.15731 0.68361 0.0
H1569 H 0.16307 0.2554 0.55715 0.0
H1570 H 0.15453 0.22473 0.59236 0.0
C1571 C 0.10301 0.14694 0.71017 0.0
C1572 C 0.12366 0.1586 0.62447 0.0
H1573 H 0.1704 0.18282 0.59934 0.0
C1574 C 0.11012 0.16532 0.59869 0.0
C1575 C 0.14581 0.16425 0.62413 0.0
C1576 C 0.16119 0.15657 0.65057 0.0
C1577 C 0.11783 0.17892 0.57364 0.0
C1578 C 0.13979 0.18547 0.57416 0.0
C1579 C 0.15359 0.17772 0.599 0.0
C1580 C 0.14786 0.20268 0.55206 0.0
C1581 C 0.1021 0.18728 0.54813 0.0
C1582 C 0.14774 0.2002 0.51765 0.0
C1583 C 0.15249 0.21785 0.49727 0.0
C1584 C 0.1575 0.23817 0.51113 0.0
C1585 C 0.15902 0.24008 0.54562 0.0
C1586 C 0.15423 0.22252 0.56584 0.0
H1587 H 0.08503 0.18353 0.55458 0.0
H1588 H 0.10374 0.2051 0.54527 0.0
H1589 H 0.10567 0.17964 0.52396 0.0
H1590 H 0.14326 0.18485 0.50659 0.0
H1591 H 0.15134 0.21581 0.4708 0.0
H1592 H 0.53135 0.403 0.72454 0.0
H1593 H 0.5584 0.39119 0.76484 0.0
H1594 H 0.52784 0.43031 0.83957 0.0
H1595 H 0.50079 0.44228 0.79959 0.0
H1596 H 0.57617 0.42707 0.84226 0.0
H1597 H 0.53161 0.34866 0.83603 0.0
H1598 H 0.54132 0.35945 0.7976 0.0
H1599 H 0.52054 0.37355 0.81985 0.0
C1600 C 0.53082 0.40972 0.74921 0.0
C1601 C 0.5137 0.42328 0.75904 0.0
C1602 C 0.54622 0.40285 0.77223 0.0
C1603 C 0.54477 0.40958 0.80521 0.0
C1604 C 0.5291 0.42486 0.81423 0.0
H1605 H 0.58207 0.34398 0.98488 0.0
H1606 H 0.5631 0.36363 0.941 0.0
C1607 C 0.51365 0.43165 0.79134 0.0
C1608 C 0.55743 0.39857 0.83116 0.0
H1609 H 0.56096 0.35069 0.87289 0.0
C1610 C 0.57302 0.41033 0.84887 0.0
C1611 C 0.55284 0.37689 0.84006 0.0
C1612 C 0.53557 0.36385 0.82264 0.0
C1613 C 0.58436 0.40082 0.87517 0.0
C1614 C 0.57997 0.37904 0.88373 0.0
C1615 C 0.56428 0.36737 0.86614 0.0
C1616 C 0.59157 0.36791 0.91072 0.0
C1617 C 0.60064 0.41421 0.89404 0.0
C1618 C 0.61375 0.36366 0.90791 0.0
C1619 C 0.62458 0.35238 0.93273 0.0
C1620 C 0.61342 0.34509 0.96088 0.0
C1621 C 0.59115 0.34939 0.96359 0.0
C1622 C 0.5803 0.36061 0.9386 0.0
H1623 H 0.59867 0.43182 0.88921 0.0
H1624 H 0.59916 0.41131 0.92097 0.0
H1625 H 0.61722 0.40943 0.88643 0.0
H1626 H 0.62263 0.36882 0.88629 0.0
H1627 H 0.64174 0.34936 0.92976 0.0
H1628 H 0.32696 0.75666 0.03134 0.0
H1629 H 0.3273 0.77747 0.08255 0.0
H1630 H 0.32365 0.71831 0.13878 0.0
H1631 H 0.32361 0.69723 0.08767 0.0
H1632 H 0.29853 0.77907 0.13824 0.0
H1633 H 0.38045 0.74706 0.16966 0.0
H1634 H 0.36886 0.7439 0.12908 0.0
H1635 H 0.35924 0.72764 0.16267 0.0
C1636 C 0.32603 0.74803 0.05454 0.0
C1637 C 0.32559 0.72527 0.05541 0.0
C1638 C 0.32613 0.75996 0.08377 0.0
C1639 C 0.32577 0.74936 0.11434 0.0
C1640 C 0.32425 0.72672 0.11537 0.0
H1641 H 0.36961 0.82278 0.28728 0.0
H1642 H 0.35097 0.79308 0.25871 0.0
C1643 C 0.32423 0.71474 0.08613 0.0
C1644 C 0.32873 0.76217 0.14476 0.0
H1645 H 0.36718 0.77555 0.20162 0.0
C1646 C 0.31333 0.77806 0.15258 0.0
C1647 C 0.34797 0.7606 0.16357 0.0
C1648 C 0.36519 0.744 0.15588 0.0
C1649 C 0.31727 0.79331 0.17752 0.0
C1650 C 0.33725 0.79279 0.19452 0.0
C1651 C 0.35188 0.77588 0.18848 0.0
C1652 C 0.34499 0.81142 0.21418 0.0
C1653 C 0.3004 0.81035 0.18454 0.0
C1654 C 0.34764 0.83152 0.19863 0.0
C1655 C 0.35836 0.84835 0.21464 0.0
C1656 C 0.36676 0.8454 0.24654 0.0
C1657 C 0.3633 0.82554 0.26271 0.0
C1658 C 0.35263 0.80859 0.2465 0.0
H1659 H 0.28387 0.80413 0.17928 0.0
H1660 H 0.30113 0.81588 0.21059 0.0
H1661 H 0.30322 0.82452 0.16829 0.0
H1662 H 0.34237 0.83388 0.17339 0.0
H1663 H 0.36064 0.86348 0.20156 0.0
H1664 H 0.07913 0.35144 0.48487 0.0
H1665 H 0.05209 0.36448 0.52427 0.0
H1666 H 0.09329 0.34516 0.60499 0.0
H1667 H 0.12041 0.33229 0.56609 0.0
H1668 H 0.03204 0.33804 0.57181 0.0
H1669 H 0.07505 0.40699 0.63037 0.0
H1670 H 0.08317 0.3956 0.59124 0.0
H1671 H 0.09067 0.38247 0.62914 0.0
C1672 C 0.08255 0.35022 0.511 0.0
C1673 C 0.1019 0.34079 0.52235 0.0
C1674 C 0.06711 0.35769 0.53342 0.0
C1675 C 0.07091 0.35605 0.56742 0.0
C1676 C 0.09031 0.34698 0.5788 0.0
H1677 H 0.00126 0.36582 0.74908 0.0
H1678 H 0.02798 0.36173 0.70504 0.0
C1679 C 0.10569 0.33946 0.55649 0.0
C1680 C 0.05392 0.36205 0.5912 0.0
H1681 H 0.04411 0.39324 0.65905 0.0
C1682 C 0.0345 0.35032 0.59062 0.0
C1683 C 0.05735 0.378 0.6157 0.0
C1684 C 0.07761 0.39164 0.61655 0.0
C1685 C 0.01865 0.35353 0.61478 0.0
C1686 C 0.02229 0.36914 0.63973 0.0
C1687 C 0.0415 0.38124 0.63988 0.0
C1688 C 0.00649 0.37271 0.66635 0.0
C1689 C -0.00145 0.33962 0.61415 0.0
C1690 C 0.98579 0.38061 0.65907 0.0
C1691 C 0.97049 0.38287 0.68403 0.0
C1692 C 0.9757 0.3774 0.71678 0.0
C1693 C -0.0033 0.37008 0.72411 0.0
C1694 C 0.01199 0.36778 0.69904 0.0
H1695 H 0.00046 0.32526 0.59786 0.0
H1696 H 0.99439 0.33395 0.63934 0.0
H1697 H 0.98476 0.34935 0.60474 0.0
H1698 H 0.98142 0.38485 0.63401 0.0
H1699 H 0.95453 0.38877 0.67756 0.0
H1700 H 0.86031 0.8341 0.24161 0.0
H1701 H 0.84152 0.81519 0.28598 0.0
H1702 H 0.87177 0.8572 0.35758 0.0
H1703 H 0.89034 0.87651 0.31335 0.0
H1704 H 0.86347 0.79328 0.33366 0.0
H1705 H 0.80981 0.8545 0.39146 0.0
H1706 H 0.82144 0.85809 0.35099 0.0
H1707 H 0.83739 0.86324 0.3873 0.0
C1708 C 0.8627 0.83959 0.26673 0.0
C1709 C 0.87696 0.85672 0.27394 0.0
C1710 C 0.85188 0.8288 0.29205 0.0
C1711 C 0.85507 0.83494 0.32503 0.0
C1712 C 0.86869 0.85252 0.33226 0.0
H1713 H 0.83969 0.76991 0.51071 0.0
H1714 H 0.84466 0.79725 0.46769 0.0
C1715 C 0.87944 0.86341 0.30692 0.0
C1716 C 0.84639 0.82125 0.35186 0.0
H1717 H 0.81586 0.82185 0.42205 0.0
C1718 C 0.85283 0.79947 0.35273 0.0
C1719 C 0.83272 0.82946 0.3769 0.0
C1720 C 0.82476 0.85256 0.37655 0.0
C1721 C 0.84636 0.78573 0.3783 0.0
C1722 C 0.83276 0.79391 0.4034 0.0
C1723 C 0.8262 0.81567 0.4026 0.0
C1724 C 0.82592 0.77996 0.43104 0.0
C1725 C 0.85465 0.7627 0.37874 0.0
C1726 C 0.8129 0.76178 0.425 0.0
C1727 C 0.81015 0.74608 0.44935 0.0
C1728 C 0.82028 0.7484 0.48025 0.0
C1729 C 0.83175 0.76759 0.48714 0.0
C1730 C 0.83459 0.78325 0.46263 0.0
H1731 H 0.86849 0.76036 0.36163 0.0
H1732 H 0.85987 0.75801 0.40396 0.0
H1733 H 0.84147 0.75157 0.37103 0.0
H1734 H 0.80586 0.75916 0.40083 0.0
H1735 H 0.80097 0.73164 0.44339 0.0
H1736 H 0.3733 0.62909 0.04907 0.0
H1737 H 0.40202 0.60981 0.07767 0.0
H1738 H 0.43942 0.60744 0.98801 0.0
H1739 H 0.41081 0.62733 0.95906 0.0
H1740 H 0.42335 0.57024 0.06848 0.0
H1741 H 0.47838 0.64107 0.05154 0.0
H1742 H 0.44987 0.64261 0.04234 0.0
H1743 H 0.4678 0.62849 0.01493 0.0
C1744 C 0.38751 0.62434 0.03522 0.0
C1745 C 0.38993 0.63011 0.0019 0.0
C1746 C 0.40387 0.61319 0.05161 0.0
C1747 C 0.42293 0.60751 0.03506 0.0
C1748 C 0.42494 0.61204 0.00131 0.0
H1749 H 0.53751 0.58016 0.15494 0.0
H1750 H 0.51454 0.57925 0.10587 0.0
C1751 C 0.40857 0.62336 0.98484 0.0
C1752 C 0.44119 0.59877 0.05442 0.0
H1753 H 0.48924 0.61429 0.08848 0.0
C1754 C 0.438 0.5796 0.07238 0.0
C1755 C 0.4603 0.61101 0.05931 0.0
C1756 C 0.46437 0.63201 0.04124 0.0
C1757 C 0.45281 0.57305 0.0966 0.0
C1758 C 0.47108 0.58614 0.10309 0.0
C1759 C 0.47513 0.60436 0.08341 0.0
C1760 C 0.4846 0.58311 0.13276 0.0
C1761 C 0.44839 0.55263 0.11586 0.0
C1762 C 0.47529 0.58547 0.16409 0.0
C1763 C 0.48833 0.58617 0.19218 0.0
C1764 C 0.51094 0.58463 0.18937 0.0
C1765 C 0.52015 0.58147 0.15799 0.0
C1766 C 0.50708 0.58084 0.12991 0.0
H1767 H 0.43849 0.54103 0.10126 0.0
H1768 H 0.46368 0.54456 0.12337 0.0
H1769 H 0.43917 0.55681 0.13845 0.0
H1770 H 0.458 0.58777 0.16672 0.0
H1771 H 0.48072 0.58858 0.21594 0.0
H1772 H 0.68617 0.2735 0.92399 0.0
H1773 H 0.68206 0.25035 0.87546 0.0
H1774 H 0.65523 0.19975 0.93616 0.0
H1775 H 0.65957 0.22261 0.985 0.0
H1776 H 0.68293 0.18448 0.88483 0.0
H1777 H 0.62044 0.24205 0.83906 0.0
H1778 H 0.64656 0.25367 0.84718 0.0
H1779 H 0.63078 0.24304 0.88065 0.0
C1780 C 0.67976 0.2573 0.92718 0.0
C1781 C 0.67289 0.25004 0.95836 0.0
C1782 C 0.67734 0.24413 0.89936 0.0
C1783 C 0.66787 0.22356 0.90215 0.0
C1784 C 0.66244 0.21565 0.93349 0.0
H1785 H 0.60905 0.12554 0.78394 0.0
H1786 H 0.62757 0.14678 0.82608 0.0
C1787 C 0.66495 0.22876 0.96139 0.0
C1788 C 0.66188 0.21104 0.87231 0.0
H1789 H 0.6277 0.21161 0.80609 0.0
C1790 C 0.67098 0.19044 0.86745 0.0
C1791 C 0.64626 0.21889 0.84972 0.0
C1792 C 0.63527 0.24053 0.85441 0.0
C1793 C 0.66471 0.17739 0.84067 0.0
C1794 C 0.64869 0.18503 0.81859 0.0
C1795 C 0.64005 0.20585 0.82297 0.0
C1796 C 0.63935 0.17118 0.79229 0.0
C1797 C 0.67525 0.15553 0.8363 0.0
C1798 C 0.63957 0.17798 0.75927 0.0
C1799 C 0.62882 0.16593 0.735 0.0
C1800 C 0.61746 0.14696 0.74343 0.0
C1801 C 0.61763 0.14004 0.7765 0.0
C1802 C 0.6284 0.15206 0.80065 0.0
H1803 H 0.6914 0.15495 0.84836 0.0
H1804 H 0.66494 0.14295 0.84791 0.0
H1805 H 0.67715 0.15143 0.80979 0.0
H1806 H 0.64777 0.19282 0.75238 0.0
H1807 H 0.629 0.17174 0.70982 0.0
H1808 H 0.34088 0.24649 0.1568 0.0
H1809 H 0.32313 0.26075 0.20638 0.0
H1810 H 0.28079 0.20519 0.20812 0.0
H1811 H 0.29831 0.19078 0.15916 0.0
H1812 H 0.27837 0.27038 0.21093 0.0
H1813 H 0.30277 0.20914 0.3036 0.0
H1814 H 0.31686 0.21265 0.26496 0.0
H1815 H 0.29207 0.19738 0.26649 0.0
C1816 C 0.32794 0.23722 0.16798 0.0
C1817 C 0.32098 0.21753 0.15402 0.0
C1818 C 0.31787 0.24537 0.19625 0.0
C1819 C 0.30095 0.23379 0.21109 0.0
C1820 C 0.29415 0.21409 0.19741 0.0
H1821 H 0.19871 0.24817 0.35005 0.0
H1822 H 0.22554 0.23625 0.30953 0.0
C1823 C 0.30409 0.206 0.16921 0.0
C1824 C 0.28903 0.24291 0.23931 0.0
H1825 H 0.27172 0.23086 0.31696 0.0
C1826 C 0.27719 0.26201 0.23437 0.0
C1827 C 0.28752 0.2318 0.26967 0.0
C1828 C 0.30065 0.21171 0.27668 0.0
C1829 C 0.26296 0.26975 0.25851 0.0
C1830 C 0.2609 0.25822 0.28844 0.0
C1831 C 0.2733 0.23953 0.29383 0.0
C1832 C 0.24541 0.26499 0.31403 0.0
C1833 C 0.24955 0.28964 0.25124 0.0
C1834 C 0.24805 0.28485 0.33023 0.0
C1835 C 0.23278 0.29173 0.3532 0.0
C1836 C 0.21466 0.27877 0.36051 0.0
C1837 C 0.21241 0.25855 0.34487 0.0
C1838 C 0.22772 0.25171 0.3218 0.0
H1839 H 0.24973 0.29386 0.22462 0.0
H1840 H 0.2325 0.28719 0.25905 0.0
H1841 H 0.25617 0.30361 0.26525 0.0
H1842 H 0.26184 0.29511 0.32489 0.0
H1843 H 0.23515 0.30731 0.36502 0.0
H1844 H 0.5285 0.52032 0.35589 0.0
H1845 H 0.51045 0.49973 0.39895 0.0
H1846 H 0.46774 0.55367 0.41755 0.0
H1847 H 0.48593 0.57459 0.37405 0.0
H1848 H 0.4915 0.53904 0.47293 0.0
H1849 H 0.4513 0.47043 0.40951 0.0
H1850 H 0.47869 0.4744 0.39615 0.0
H1851 H 0.45882 0.49509 0.38842 0.0
C1852 C 0.51493 0.52765 0.36861 0.0
C1853 C 0.50868 0.54909 0.36187 0.0
C1854 C 0.50452 0.51579 0.39302 0.0
C1855 C 0.48767 0.52512 0.41118 0.0
C1856 C 0.48063 0.54618 0.40351 0.0
H1857 H 0.4274 0.45507 0.57248 0.0
H1858 H 0.43389 0.47575 0.52237 0.0
C1859 C 0.49095 0.55805 0.37868 0.0
C1860 C 0.47972 0.51381 0.44081 0.0
H1861 H 0.45988 0.46521 0.46695 0.0
C1862 C 0.48421 0.52306 0.47168 0.0
C1863 C 0.47026 0.49299 0.439 0.0
C1864 C 0.46429 0.48272 0.40646 0.0
C1865 C 0.48037 0.51159 0.50089 0.0
C1866 C 0.47208 0.49028 0.49899 0.0
C1867 C 0.46663 0.48142 0.4682 0.0
C1868 C 0.46859 0.47709 0.52881 0.0
C1869 C 0.48535 0.52228 0.53352 0.0
C1870 C 0.48609 0.47062 0.54862 0.0
C1871 C 0.48249 0.4587 0.57742 0.0
C1872 C 0.46131 0.45315 0.58673 0.0
C1873 C 0.44393 0.45922 0.56622 0.0
C1874 C 0.44756 0.47101 0.53751 0.0
H1875 H 0.48679 0.54016 0.5311 0.0
H1876 H 0.4726 0.51857 0.55195 0.0
H1877 H 0.50096 0.51596 0.54308 0.0
H1878 H 0.5025 0.47492 0.54189 0.0
H1879 H 0.4962 0.45421 0.59261 0.0
H1880 H 0.21992 0.77525 0.64134 0.0
H1881 H 0.23599 0.76513 0.69406 0.0
H1882 H 0.17798 0.73013 0.71969 0.0
H1883 H 0.16173 0.74011 0.66654 0.0
H1884 H 0.21464 0.77868 0.75412 0.0
H1885 H 0.22917 0.68965 0.7473 0.0
H1886 H 0.22649 0.70624 0.71086 0.0
H1887 H 0.203 0.69936 0.73455 0.0
C1888 C 0.2108 0.7649 0.65781 0.0
C1889 C 0.18954 0.75857 0.65006 0.0
C1890 C 0.21996 0.75922 0.68791 0.0
C1891 C 0.20807 0.74709 0.7107 0.0
C1892 C 0.18741 0.73941 0.70219 0.0
H1893 H 0.24965 0.70518 0.90361 0.0
H1894 H 0.22536 0.71678 0.85951 0.0
C1895 C 0.17821 0.74502 0.67184 0.0
C1896 C 0.21667 0.74439 0.74432 0.0
H1897 H 0.23792 0.70719 0.79704 0.0
C1898 C 0.21961 0.76304 0.76371 0.0
C1899 C 0.22293 0.72397 0.75658 0.0
C1900 C 0.22041 0.70361 0.7363 0.0
C1901 C 0.22909 0.76184 0.79506 0.0
C1902 C 0.23602 0.74151 0.80692 0.0
C1903 C 0.23249 0.72278 0.78786 0.0
C1904 C 0.24827 0.73916 0.83798 0.0
C1905 C 0.23166 0.7823 0.81509 0.0
C1906 C 0.26874 0.74884 0.84145 0.0
C1907 C 0.28256 0.74245 0.86697 0.0
C1908 C 0.27612 0.72605 0.88875 0.0
C1909 C 0.25496 0.71782 0.88693 0.0
C1910 C 0.24111 0.72437 0.86176 0.0
H1911 H 0.21981 0.79488 0.80744 0.0
H1912 H 0.2296 0.77906 0.84183 0.0
H1913 H 0.24814 0.78895 0.81118 0.0
H1914 H 0.2747 0.76002 0.82301 0.0
H1915 H 0.2989 0.74881 0.86772 0.0
H1916 H 0.04547 0.50386 0.11407 0.0
H1917 H 0.03871 0.47916 0.06801 0.0
H1918 H 0.98512 0.51884 0.03658 0.0
H1919 H 0.99163 0.54371 0.08276 0.0
H1920 H -0.0054 0.45781 0.04846 0.0
H1921 H 0.03269 0.51356 0.95771 0.0
H1922 H 0.03905 0.51433 0.00123 0.0
H1923 H 0.01395 0.52533 0.9866 0.0
C1924 C 0.03209 0.50725 0.09758 0.0
C1925 C 0.01915 0.52582 0.10189 0.0
C1926 C 0.02828 0.49311 0.07136 0.0
C1927 C 0.01164 0.49743 0.04892 0.0
C1928 C -0.00183 0.51545 0.0537 0.0
H1929 H 0.95286 0.45554 0.87599 0.0
H1930 H 0.97094 0.47408 0.92115 0.0
C1931 C 0.00183 0.52954 0.08012 0.0
C1932 C 0.0087 0.48346 0.01983 0.0
H1933 H 0.01383 0.48323 0.93619 0.0
C1934 C -0.00098 0.46312 0.02389 0.0
C1935 C 0.01477 0.49055 0.9881 0.0
C1936 C 0.02584 0.51208 0.98292 0.0
C1937 C 0.99399 0.45012 -0.00347 0.0
C1938 C -0.00072 0.4576 0.96455 0.0
C1939 C 0.00994 0.47752 0.96077 0.0
C1940 C 0.99093 0.4467 0.93471 0.0
C1941 C 0.98191 0.42916 0.00191 0.0
C1942 C -0.00319 0.42537 0.92658 0.0
C1943 C 0.98637 0.41458 0.90064 0.0
C1944 C 0.96996 0.42508 0.88268 0.0
C1945 C 0.96522 0.44689 0.88965 0.0
C1946 C 0.9756 0.45757 0.91538 0.0
H1947 H 0.97615 0.42745 0.02772 0.0
H1948 H 0.96773 0.4281 0.98512 0.0
H1949 H 0.99277 0.41531 -0.00362 0.0
H1950 H 0.00892 0.41687 0.94093 0.0
H1951 H 0.9904 0.39781 0.89571 0.0
H1952 H 0.67384 0.755 0.86059 0.0
H1953 H 0.69767 0.73822 0.81953 0.0
H1954 H 0.73919 0.79436 0.82215 0.0
H1955 H 0.71573 0.81123 0.86293 0.0
H1956 H 0.72203 0.78129 0.75768 0.0
H1957 H 0.76167 0.71442 0.82732 0.0
H1958 H 0.73279 0.71716 0.83152 0.0
H1959 H 0.75024 0.73791 0.84749 0.0
C1960 C 0.68822 0.76361 0.85282 0.0
C1961 C 0.69277 0.78452 0.86483 0.0
C1962 C 0.70183 0.75398 0.82949 0.0
C1963 C 0.72014 0.7651 0.81805 0.0
C1964 C 0.72511 0.78557 0.83081 0.0
H1965 H 0.80922 0.74654 0.65412 0.0
H1966 H 0.78958 0.7612 0.70159 0.0
C1967 C 0.71163 0.79517 0.85408 0.0
C1968 C 0.73314 0.75636 0.79071 0.0
H1969 H 0.76868 0.71637 0.7701 0.0
C1970 C 0.73231 0.76713 0.76032 0.0
C1971 C 0.74638 0.7379 0.79447 0.0
C1972 C 0.74804 0.72616 0.82697 0.0
C1973 C 0.74417 0.75969 0.73319 0.0
C1974 C 0.7576 0.7413 0.73694 0.0
C1975 C 0.75845 0.73055 0.76743 0.0
C1976 C 0.77016 0.73241 0.7091 0.0
C1977 C 0.74173 0.7712 0.70056 0.0
C1978 C 0.76615 0.71122 0.69833 0.0
C1979 C 0.77744 0.70275 0.67158 0.0
C1980 C 0.79299 0.71535 0.65502 0.0
C1981 C 0.79721 0.73652 0.66615 0.0
C1982 C 0.78596 0.74494 0.69316 0.0
H1983 H 0.72688 0.78135 0.6998 0.0
H1984 H 0.75585 0.78201 0.69672 0.0
H1985 H 0.74111 0.75944 0.67983 0.0
H1986 H 0.75404 0.70131 0.71038 0.0
H1987 H 0.77379 0.68638 0.66369 0.0
H1988 H 0.72443 0.30108 0.14591 0.0
H1989 H 0.74854 0.28704 0.18823 0.0
H1990 H 0.72446 0.22241 0.17082 0.0
H1991 H 0.70017 0.23633 0.12785 0.0
H1992 H 0.73458 0.26538 0.24526 0.0
H1993 H 0.79106 0.21529 0.17059 0.0
H1994 H 0.77385 0.23578 0.15258 0.0
H1995 H 0.76277 0.20996 0.16404 0.0
C1996 C 0.72431 0.28382 0.15076 0.0
C1997 C 0.71027 0.26981 0.13358 0.0
C1998 C 0.73815 0.27586 0.17498 0.0
C1999 C 0.73834 0.25373 0.18246 0.0
C2000 C 0.72474 0.23953 0.16498 0.0
H2001 H 0.79998 0.17557 0.32906 0.0
H2002 H 0.77909 0.1907 0.28382 0.0
C2003 C 0.71083 0.24751 0.14056 0.0
C2004 C 0.75191 0.24592 0.20995 0.0
H2005 H 0.79435 0.21285 0.22872 0.0
C2006 C 0.74773 0.25397 0.2417 0.0
C2007 C 0.76903 0.23112 0.20503 0.0
C2008 C 0.77464 0.22262 0.1712 0.0
C2009 C 0.75995 0.24719 0.26894 0.0
C2010 C 0.777 0.23228 0.26407 0.0
C2011 C 0.78129 0.22437 0.23226 0.0
C2012 C 0.78977 0.22365 0.2919 0.0
C2013 C 0.75411 0.25551 0.30279 0.0
C2014 C 0.80276 0.23725 0.31145 0.0
C2015 C 0.81477 0.22866 0.33766 0.0
C2016 C 0.81404 0.20632 0.34442 0.0
C2017 C 0.801 0.19285 0.32459 0.0
C2018 C 0.78904 0.20143 0.29863 0.0
H2019 H 0.7378 0.2631 0.30317 0.0
H2020 H 0.75448 0.24221 0.32119 0.0
H2021 H 0.76609 0.26794 0.31047 0.0
H2022 H 0.80376 0.25443 0.30626 0.0
H2023 H 0.82473 0.23942 0.35234 0.0
H2024 H 0.07405 0.02583 0.91546 0.0
H2025 H 0.06404 -0.00284 0.95402 0.0
H2026 H -0.00325 0.00619 0.92929 0.0
H2027 H 0.00652 0.03479 0.89044 0.0
H2028 H 0.03589 -0.00029 0.00881 0.0
H2029 H 0.00699 0.94057 0.91564 0.0
H2030 H 0.02371 0.96358 0.90519 0.0
H2031 H -0.00491 0.96697 0.91131 0.0
C2032 C 0.0571 0.02178 0.91822 0.0
C2033 C 0.04107 0.03254 0.89972 0.0
C2034 C 0.05146 0.00536 0.94021 0.0
C2035 C 0.02975 -0.00068 0.94388 0.0
C2036 C 0.01366 0.01035 0.92615 0.0
H2037 H 0.94384 0.93033 0.06036 0.0
H2038 H 0.96474 0.94904 0.01835 0.0
C2039 C 0.01926 0.0268 0.90419 0.0
C2040 C 0.02372 0.98194 0.96702 0.0
H2041 H -0.00386 0.93418 0.97158 0.0
C2042 C 0.02756 0.98515 0.00075 0.0
C2043 C 0.01309 0.96293 0.95619 0.0
C2044 C 0.00965 0.95815 0.92007 0.0
C2045 C 0.01964 0.97053 0.02425 0.0
C2046 C 0.00793 0.95213 0.01349 0.0
C2047 C 0.00516 0.94832 0.97965 0.0
C2048 C -0.00416 0.9385 0.03692 0.0
C2049 C 0.02265 0.97556 0.06041 0.0
C2050 C 0.00646 0.92585 0.06068 0.0
C2051 C 0.99451 0.91508 0.08493 0.0
C2052 C 0.97183 0.91694 0.08567 0.0
C2053 C 0.9613 0.92876 0.06074 0.0
C2054 C 0.9732 0.93939 0.0366 0.0
H2055 H 0.02963 0.99194 0.06452 0.0
H2056 H 0.00694 0.97453 0.07357 0.0
H2057 H 0.03375 0.96345 0.07151 0.0
H2058 H 0.02396 0.92479 0.06096 0.0
H2059 H 0.00306 0.90602 0.10374 0.0
H2060 H 0.54734 0.03315 0.5777 0.0
H2061 H 0.53091 0.01354 0.53204 0.0
H2062 H 0.4831 0.06396 0.5212 0.0
H2063 H 0.49975 0.0841 0.56693 0.0
H2064 H 0.48887 -0.00192 0.52306 0.0
H2065 H 0.51137 0.05978 0.42914 0.0
H2066 H 0.52281 0.05961 0.47013 0.0
H2067 H 0.49582 0.06949 0.46355 0.0
C2068 C 0.53325 0.0401 0.56582 0.0
C2069 C 0.52499 0.06033 0.57569 0.0
C2070 C 0.52388 0.02882 0.53974 0.0
C2071 C 0.5061 0.03753 0.52294 0.0
C2072 C 0.49711 0.05723 0.53355 0.0
H2073 H 0.4336 0.98704 0.35827 0.0
H2074 H 0.44928 0.00997 0.40114 0.0
C2075 C 0.50651 0.06859 0.55982 0.0
C2076 C 0.49747 0.02592 0.49394 0.0
H2077 H 0.49225 0.02901 0.41026 0.0
C2078 C 0.48955 0.00483 0.49839 0.0
C2079 C 0.49857 0.03481 0.46185 0.0
C2080 C 0.50775 0.0571 0.45565 0.0
C2081 C 0.48258 0.99235 0.47154 0.0
C2082 C 0.4839 0.00115 0.43945 0.0
C2083 C 0.49152 0.02234 0.43496 0.0
C2084 C 0.47646 0.98878 0.41047 0.0
C2085 C 0.47361 0.96996 0.47771 0.0
C2086 C 0.48715 0.96976 0.4007 0.0
C2087 C 0.47827 0.95659 0.3761 0.0
C2088 C 0.45853 0.96228 0.36116 0.0
C2089 C 0.44869 0.98209 0.3696 0.0
C2090 C 0.45763 0.99525 0.39401 0.0
H2091 H 0.46979 0.96731 0.50416 0.0
H2092 H 0.45871 0.96723 0.46293 0.0
H2093 H 0.48576 0.95769 0.47011 0.0
H2094 H 0.5019 0.96473 0.41297 0.0
H2095 H 0.48623 0.94146 0.37007 0.0
loop_
_geom_bond_atom_site_label_1
_geom_bond_atom_site_label_2
_geom_bond_distance
_geom_bond_site_symmetry_2
_ccdc_geom_bond_type
O0 Zn1 1.953 . S
O0 C16 1.225 . S
Zn1 O0 1.953 . S
Zn1 O2 1.949 1_556 S
Zn1 O8 1.919 . S
Zn1 O13 1.924 . S
O2 Zn1 1.949 1_554 S
O2 Zn3 1.923 . S
O2 Zn4 1.950 . S
O2 Zn5 1.945 . S
Zn3 O2 1.923 . S
Zn3 O6 1.933 . S
Zn3 O9 1.941 . S
Zn3 O10 1.965 . S
Zn4 O2 1.950 . S
Zn4 O11 1.938 . S
Zn4 O12 1.906 . S
Zn4 O22 1.953 . S
Zn5 O2 1.945 . S
Zn5 O7 1.932 . S
Zn5 O14 1.977 . S
Zn5 O15 1.910 . S
O6 Zn3 1.933 . S
O6 C17 1.226 . S
O7 Zn5 1.932 . S
O7 C17 1.307 . S
O8 Zn1 1.919 . S
O8 C19 1.253 . S
O9 Zn3 1.941 . S
O9 C19 1.283 1_554 S
O10 Zn3 1.965 . S
O10 C18 1.303 . S
O11 Zn4 1.938 . S
O11 C18 1.247 . S
O12 Zn4 1.906 . S
O12 C20 1.304 . S
O13 Zn1 1.924 . S
O13 C21 1.311 . S
O14 Zn5 1.977 . S
O14 C20 1.272 . S
O15 Zn5 1.910 . S
O15 C21 1.231 1_554 S
C16 O0 1.225 . S
C16 O22 1.298 1_556 S
C17 O6 1.226 . S
C17 O7 1.307 . S
C18 O10 1.303 . S
C18 O11 1.247 . S
C19 O8 1.253 . S
C19 O9 1.283 1_556 S
C20 O12 1.304 . S
C20 O14 1.272 . S
C21 O13 1.311 . S
C21 O15 1.231 1_556 S
O22 Zn4 1.953 . S
O22 C16 1.298 1_554 S
O23 Zn24 1.953 . S
O23 C39 1.225 . S
Zn24 O23 1.953 . S
Zn24 O25 1.949 . S
Zn24 O31 1.919 . S
Zn24 O36 1.924 . S
O25 Zn24 1.949 . S
O25 Zn26 1.923 . S
O25 Zn27 1.950 . S
O25 Zn28 1.945 . S
Zn26 O25 1.923 . S
Zn26 O29 1.933 . S
Zn26 O32 1.941 . S
Zn26 O33 1.965 . S
Zn27 O25 1.950 . S
Zn27 O34 1.938 . S
Zn27 O35 1.906 . S
Zn27 O45 1.953 . S
Zn28 O25 1.945 . S
Zn28 O30 1.932 . S
Zn28 O37 1.977 . S
Zn28 O38 1.910 . S
O29 Zn26 1.933 . S
O29 C40 1.226 . S
O30 Zn28 1.932 . S
O30 C40 1.307 . S
O31 Zn24 1.919 . S
O31 C42 1.253 . S
O32 Zn26 1.941 . S
O32 C42 1.283 . S
O33 Zn26 1.965 . S
O33 C41 1.303 . S
O34 Zn27 1.938 . S
O34 C41 1.247 . S
O35 Zn27 1.906 . S
O35 C43 1.304 . S
O36 Zn24 1.924 . S
O36 C44 1.311 . S
O37 Zn28 1.977 . S
O37 C43 1.272 . S
O38 Zn28 1.910 . S
O38 C44 1.231 . S
C39 O23 1.225 . S
C39 O45 1.298 . S
C40 O29 1.226 . S
C40 O30 1.307 . S
C41 O33 1.303 . S
C41 O34 1.247 . S
C42 O31 1.253 . S
C42 O32 1.283 . S
C43 O35 1.304 . S
C43 O37 1.272 . S
C44 O36 1.311 . S
C44 O38 1.231 . S
O45 Zn27 1.953 . S
O45 C39 1.298 . S
O46 Zn47 1.953 . S
O46 C62 1.225 . S
Zn47 O46 1.953 . S
Zn47 O48 1.949 . S
Zn47 O54 1.919 . S
Zn47 O59 1.924 . S
O48 Zn47 1.949 . S
O48 Zn49 1.923 . S
O48 Zn50 1.950 . S
O48 Zn51 1.945 . S
Zn49 O48 1.923 . S
Zn49 O52 1.933 . S
Zn49 O55 1.941 . S
Zn49 O56 1.965 . S
Zn50 O48 1.950 . S
Zn50 O57 1.938 . S
Zn50 O58 1.906 . S
Zn50 O68 1.953 . S
Zn51 O48 1.945 . S
Zn51 O53 1.932 . S
Zn51 O60 1.977 . S
Zn51 O61 1.910 . S
O52 Zn49 1.933 . S
O52 C63 1.226 . S
O53 Zn51 1.932 . S
O53 C63 1.307 . S
O54 Zn47 1.919 . S
O54 C65 1.253 . S
O55 Zn49 1.941 . S
O55 C65 1.283 . S
O56 Zn49 1.965 . S
O56 C64 1.303 . S
O57 Zn50 1.938 . S
O57 C64 1.247 . S
O58 Zn50 1.906 . S
O58 C66 1.304 . S
O59 Zn47 1.924 . S
O59 C67 1.311 . S
O60 Zn51 1.977 . S
O60 C66 1.272 . S
O61 Zn51 1.910 . S
O61 C67 1.231 . S
C62 O46 1.225 . S
C62 O68 1.298 . S
C63 O52 1.226 . S
C63 O53 1.307 . S
C64 O56 1.303 . S
C64 O57 1.247 . S
C65 O54 1.253 . S
C65 O55 1.283 . S
C66 O58 1.304 . S
C66 O60 1.272 . S
C67 O59 1.311 . S
C67 O61 1.231 . S
O68 Zn50 1.953 . S
O68 C62 1.298 . S
O69 Zn70 1.953 . S
O69 C85 1.225 . S
Zn70 O69 1.953 . S
Zn70 O71 1.949 . S
Zn70 O77 1.919 . S
Zn70 O82 1.924 . S
O71 Zn70 1.949 . S
O71 Zn72 1.923 . S
O71 Zn73 1.950 . S
O71 Zn74 1.945 . S
Zn72 O71 1.923 . S
Zn72 O75 1.933 . S
Zn72 O78 1.941 . S
Zn72 O79 1.965 . S
Zn73 O71 1.950 . S
Zn73 O80 1.938 . S
Zn73 O81 1.906 . S
Zn73 O91 1.953 . S
Zn74 O71 1.945 . S
Zn74 O76 1.932 . S
Zn74 O83 1.977 . S
Zn74 O84 1.910 . S
O75 Zn72 1.933 . S
O75 C86 1.226 . S
O76 Zn74 1.932 . S
O76 C86 1.307 . S
O77 Zn70 1.919 . S
O77 C88 1.253 . S
O78 Zn72 1.941 . S
O78 C88 1.283 . S
O79 Zn72 1.965 . S
O79 C87 1.303 . S
O80 Zn73 1.938 . S
O80 C87 1.247 . S
O81 Zn73 1.906 . S
O81 C89 1.304 . S
O82 Zn70 1.924 . S
O82 C90 1.311 . S
O83 Zn74 1.977 . S
O83 C89 1.272 . S
O84 Zn74 1.910 . S
O84 C90 1.231 . S
C85 O69 1.225 . S
C85 O91 1.298 . S
C86 O75 1.226 . S
C86 O76 1.307 . S
C87 O79 1.303 . S
C87 O80 1.247 . S
C88 O77 1.253 . S
C88 O78 1.283 . S
C89 O81 1.304 . S
C89 O83 1.272 . S
C90 O82 1.311 . S
C90 O84 1.231 . S
O91 Zn73 1.953 . S
O91 C85 1.298 . S
O92 Zn93 1.953 . S
O92 C108 1.225 . S
Zn93 O92 1.953 . S
Zn93 O94 1.949 1_554 S
Zn93 O100 1.919 . S
Zn93 O105 1.924 . S
O94 Zn93 1.949 1_556 S
O94 Zn95 1.923 . S
O94 Zn96 1.950 . S
O94 Zn97 1.945 . S
Zn95 O94 1.923 . S
Zn95 O98 1.933 . S
Zn95 O101 1.941 . S
Zn95 O102 1.965 . S
Zn96 O94 1.950 . S
Zn96 O103 1.938 . S
Zn96 O104 1.906 . S
Zn96 O114 1.953 . S
Zn97 O94 1.945 . S
Zn97 O99 1.932 . S
Zn97 O106 1.977 . S
Zn97 O107 1.910 . S
O98 Zn95 1.933 . S
O98 C109 1.226 . S
O99 Zn97 1.932 . S
O99 C109 1.307 . S
O100 Zn93 1.919 . S
O100 C111 1.253 . S
O101 Zn95 1.941 . S
O101 C111 1.283 1_556 S
O102 Zn95 1.965 . S
O102 C110 1.303 . S
O103 Zn96 1.938 . S
O103 C110 1.247 . S
O104 Zn96 1.906 . S
O104 C112 1.304 . S
O105 Zn93 1.924 . S
O105 C113 1.311 . S
O106 Zn97 1.977 . S
O106 C112 1.272 . S
O107 Zn97 1.910 . S
O107 C113 1.231 1_556 S
C108 O92 1.225 . S
C108 O114 1.298 1_554 S
C109 O98 1.226 . S
C109 O99 1.307 . S
C110 O102 1.303 . S
C110 O103 1.247 . S
C111 O100 1.253 . S
C111 O101 1.283 1_554 S
C112 O104 1.304 . S
C112 O106 1.272 . S
C113 O105 1.311 . S
C113 O107 1.231 1_554 S
O114 Zn96 1.953 . S
O114 C108 1.298 1_556 S
O115 Zn116 1.953 . S
O115 C131 1.225 . S
Zn116 O115 1.953 . S
Zn116 O117 1.949 . S
Zn116 O123 1.919 . S
Zn116 O128 1.924 . S
O117 Zn116 1.949 . S
O117 Zn118 1.923 . S
O117 Zn119 1.950 . S
O117 Zn120 1.945 . S
Zn118 O117 1.923 . S
Zn118 O121 1.933 . S
Zn118 O124 1.941 . S
Zn118 O125 1.965 . S
Zn119 O117 1.950 . S
Zn119 O126 1.938 . S
Zn119 O127 1.906 . S
Zn119 O137 1.953 . S
Zn120 O117 1.945 . S
Zn120 O122 1.932 . S
Zn120 O129 1.977 . S
Zn120 O130 1.910 . S
O121 Zn118 1.933 . S
O121 C132 1.226 . S
O122 Zn120 1.932 . S
O122 C132 1.307 . S
O123 Zn116 1.919 . S
O123 C134 1.253 . S
O124 Zn118 1.941 . S
O124 C134 1.283 . S
O125 Zn118 1.965 . S
O125 C133 1.303 . S
O126 Zn119 1.938 . S
O126 C133 1.247 . S
O127 Zn119 1.906 . S
O127 C135 1.304 . S
O128 Zn116 1.924 . S
O128 C136 1.311 . S
O129 Zn120 1.977 . S
O129 C135 1.272 . S
O130 Zn120 1.910 . S
O130 C136 1.231 . S
C131 O115 1.225 . S
C131 O137 1.298 . S
C132 O121 1.226 . S
C132 O122 1.307 . S
C133 O125 1.303 . S
C133 O126 1.247 . S
C134 O123 1.253 . S
C134 O124 1.283 . S
C135 O127 1.304 . S
C135 O129 1.272 . S
C136 O128 1.311 . S
C136 O130 1.231 . S
O137 Zn119 1.953 . S
O137 C131 1.298 . S
O138 Zn139 1.953 . S
O138 C154 1.225 . S
Zn139 O138 1.953 . S
Zn139 O140 1.949 . S
Zn139 O146 1.919 . S
Zn139 O151 1.924 . S
O140 Zn139 1.949 . S
O140 Zn141 1.923 . S
O140 Zn142 1.950 . S
O140 Zn143 1.945 . S
Zn141 O140 1.923 . S
Zn141 O144 1.933 . S
Zn141 O147 1.941 . S
Zn141 O148 1.965 . S
Zn142 O140 1.950 . S
Zn142 O149 1.938 . S
Zn142 O150 1.906 . S
Zn142 O160 1.953 . S
Zn143 O140 1.945 . S
Zn143 O145 1.932 . S
Zn143 O152 1.977 . S
Zn143 O153 1.910 . S
O144 Zn141 1.933 . S
O144 C155 1.226 . S
O145 Zn143 1.932 . S
O145 C155 1.307 . S
O146 Zn139 1.919 . S
O146 C157 1.253 . S
O147 Zn141 1.941 . S
O147 C157 1.283 . S
O148 Zn141 1.965 . S
O148 C156 1.303 . S
O149 Zn142 1.938 . S
O149 C156 1.247 . S
O150 Zn142 1.906 . S
O150 C158 1.304 . S
O151 Zn139 1.924 . S
O151 C159 1.311 . S
O152 Zn143 1.977 . S
O152 C158 1.272 . S
O153 Zn143 1.910 . S
O153 C159 1.231 . S
C154 O138 1.225 . S
C154 O160 1.298 . S
C155 O144 1.226 . S
C155 O145 1.307 . S
C156 O148 1.303 . S
C156 O149 1.247 . S
C157 O146 1.253 . S
C157 O147 1.283 . S
C158 O150 1.304 . S
C158 O152 1.272 . S
C159 O151 1.311 . S
C159 O153 1.231 . S
O160 Zn142 1.953 . S
O160 C154 1.298 . S
O161 Zn162 1.953 . S
O161 C177 1.225 . S
Zn162 O161 1.953 . S
Zn162 O163 1.949 . S
Zn162 O169 1.919 . S
Zn162 O174 1.924 . S
O163 Zn162 1.949 . S
O163 Zn164 1.923 . S
O163 Zn165 1.950 . S
O163 Zn166 1.945 . S
Zn164 O163 1.923 . S
Zn164 O167 1.933 . S
Zn164 O170 1.941 . S
Zn164 O171 1.965 . S
Zn165 O163 1.950 . S
Zn165 O172 1.938 . S
Zn165 O173 1.906 . S
Zn165 O183 1.953 . S
Zn166 O163 1.945 . S
Zn166 O168 1.932 . S
Zn166 O175 1.977 . S
Zn166 O176 1.910 . S
O167 Zn164 1.933 . S
O167 C178 1.226 . S
O168 Zn166 1.932 . S
O168 C178 1.307 . S
O169 Zn162 1.919 . S
O169 C180 1.253 . S
O170 Zn164 1.941 . S
O170 C180 1.283 . S
O171 Zn164 1.965 . S
O171 C179 1.303 . S
O172 Zn165 1.938 . S
O172 C179 1.247 . S
O173 Zn165 1.906 . S
O173 C181 1.304 . S
O174 Zn162 1.924 . S
O174 C182 1.311 . S
O175 Zn166 1.977 . S
O175 C181 1.272 . S
O176 Zn166 1.910 . S
O176 C182 1.231 . S
C177 O161 1.225 . S
C177 O183 1.298 . S
C178 O167 1.226 . S
C178 O168 1.307 . S
C179 O171 1.303 . S
C179 O172 1.247 . S
C180 O169 1.253 . S
C180 O170 1.283 . S
C181 O173 1.304 . S
C181 O175 1.272 . S
C182 O174 1.311 . S
C182 O176 1.231 . S
O183 Zn165 1.953 . S
O183 C177 1.298 . S
O184 Zn185 1.953 . S
O184 C200 1.225 . S
Zn185 O184 1.953 . S
Zn185 O186 1.949 . S
Zn185 O192 1.919 . S
Zn185 O197 1.924 . S
O186 Zn185 1.949 . S
O186 Zn187 1.923 . S
O186 Zn188 1.950 . S
O186 Zn189 1.945 . S
Zn187 O186 1.923 . S
Zn187 O190 1.933 . S
Zn187 O193 1.941 . S
Zn187 O194 1.965 . S
Zn188 O186 1.950 . S
Zn188 O195 1.938 . S
Zn188 O196 1.906 . S
Zn188 O206 1.953 . S
Zn189 O186 1.945 . S
Zn189 O191 1.932 . S
Zn189 O198 1.977 . S
Zn189 O199 1.910 . S
O190 Zn187 1.933 . S
O190 C201 1.226 . S
O191 Zn189 1.932 . S
O191 C201 1.307 . S
O192 Zn185 1.919 . S
O192 C203 1.253 . S
O193 Zn187 1.941 . S
O193 C203 1.283 . S
O194 Zn187 1.965 . S
O194 C202 1.303 . S
O195 Zn188 1.938 . S
O195 C202 1.247 . S
O196 Zn188 1.906 . S
O196 C204 1.304 . S
O197 Zn185 1.924 . S
O197 C205 1.311 . S
O198 Zn189 1.977 . S
O198 C204 1.272 . S
O199 Zn189 1.910 . S
O199 C205 1.231 . S
C200 O184 1.225 . S
C200 O206 1.298 . S
C201 O190 1.226 . S
C201 O191 1.307 . S
C202 O194 1.303 . S
C202 O195 1.247 . S
C203 O192 1.253 . S
C203 O193 1.283 . S
C204 O196 1.304 . S
C204 O198 1.272 . S
C205 O197 1.311 . S
C205 O199 1.231 . S
O206 Zn188 1.953 . S
O206 C200 1.298 . S
O207 Zn208 1.953 . S
O207 C223 1.225 . S
Zn208 O207 1.953 . S
Zn208 O209 1.949 . S
Zn208 O215 1.919 . S
Zn208 O220 1.924 . S
O209 Zn208 1.949 . S
O209 Zn210 1.923 . S
O209 Zn211 1.950 . S
O209 Zn212 1.945 . S
Zn210 O209 1.923 . S
Zn210 O213 1.933 . S
Zn210 O216 1.941 . S
Zn210 O217 1.965 . S
Zn211 O209 1.950 . S
Zn211 O218 1.938 . S
Zn211 O219 1.906 . S
Zn211 O229 1.953 . S
Zn212 O209 1.945 . S
Zn212 O214 1.932 . S
Zn212 O221 1.977 . S
Zn212 O222 1.910 . S
O213 Zn210 1.933 . S
O213 C224 1.226 . S
O214 Zn212 1.932 . S
O214 C224 1.307 . S
O215 Zn208 1.919 . S
O215 C226 1.253 . S
O216 Zn210 1.941 . S
O216 C226 1.283 . S
O217 Zn210 1.965 . S
O217 C225 1.303 . S
O218 Zn211 1.938 . S
O218 C225 1.247 . S
O219 Zn211 1.906 . S
O219 C227 1.304 . S
O220 Zn208 1.924 . S
O220 C228 1.311 . S
O221 Zn212 1.977 . S
O221 C227 1.272 . S
O222 Zn212 1.910 . S
O222 C228 1.231 . S
C223 O207 1.225 . S
C223 O229 1.298 . S
C224 O213 1.226 . S
C224 O214 1.307 . S
C225 O217 1.303 . S
C225 O218 1.247 . S
C226 O215 1.253 . S
C226 O216 1.283 . S
C227 O219 1.304 . S
C227 O221 1.272 . S
C228 O220 1.311 . S
C228 O222 1.231 . S
O229 Zn211 1.953 . S
O229 C223 1.298 . S
O230 Zn231 1.953 . S
O230 C246 1.225 . S
Zn231 O230 1.953 . S
Zn231 O232 1.949 1_556 S
Zn231 O238 1.919 . S
Zn231 O243 1.924 . S
O232 Zn231 1.949 1_554 S
O232 Zn233 1.923 . S
O232 Zn234 1.950 . S
O232 Zn235 1.945 . S
Zn233 O232 1.923 . S
Zn233 O236 1.933 . S
Zn233 O239 1.941 . S
Zn233 O240 1.965 . S
Zn234 O232 1.950 . S
Zn234 O241 1.938 . S
Zn234 O242 1.906 . S
Zn234 O252 1.953 . S
Zn235 O232 1.945 . S
Zn235 O237 1.932 . S
Zn235 O244 1.977 . S
Zn235 O245 1.910 . S
O236 Zn233 1.933 . S
O236 C247 1.226 . S
O237 Zn235 1.932 . S
O237 C247 1.307 . S
O238 Zn231 1.919 . S
O238 C249 1.253 . S
O239 Zn233 1.941 . S
O239 C249 1.283 1_554 S
O240 Zn233 1.965 . S
O240 C248 1.303 . S
O241 Zn234 1.938 . S
O241 C248 1.247 . S
O242 Zn234 1.906 . S
O242 C250 1.304 . S
O243 Zn231 1.924 . S
O243 C251 1.311 . S
O244 Zn235 1.977 . S
O244 C250 1.272 . S
O245 Zn235 1.910 . S
O245 C251 1.231 1_554 S
C246 O230 1.225 . S
C246 O252 1.298 1_556 S
C247 O236 1.226 . S
C247 O237 1.307 . S
C248 O240 1.303 . S
C248 O241 1.247 . S
C249 O238 1.253 . S
C249 O239 1.283 1_556 S
C250 O242 1.304 . S
C250 O244 1.272 . S
C251 O243 1.311 . S
C251 O245 1.231 1_556 S
O252 Zn234 1.953 . S
O252 C246 1.298 1_554 S
O253 Zn254 1.953 . S
O253 C269 1.225 . S
Zn254 O253 1.953 . S
Zn254 O255 1.949 . S
Zn254 O261 1.919 . S
Zn254 O266 1.924 . S
O255 Zn254 1.949 . S
O255 Zn256 1.923 . S
O255 Zn257 1.950 . S
O255 Zn258 1.945 . S
Zn256 O255 1.923 . S
Zn256 O259 1.933 . S
Zn256 O262 1.941 . S
Zn256 O263 1.965 . S
Zn257 O255 1.950 . S
Zn257 O264 1.938 . S
Zn257 O265 1.906 . S
Zn257 O275 1.953 . S
Zn258 O255 1.945 . S
Zn258 O260 1.932 . S
Zn258 O267 1.977 . S
Zn258 O268 1.910 . S
O259 Zn256 1.933 . S
O259 C270 1.226 . S
O260 Zn258 1.932 . S
O260 C270 1.307 . S
O261 Zn254 1.919 . S
O261 C272 1.253 . S
O262 Zn256 1.941 . S
O262 C272 1.283 . S
O263 Zn256 1.965 . S
O263 C271 1.303 . S
O264 Zn257 1.938 . S
O264 C271 1.247 . S
O265 Zn257 1.906 . S
O265 C273 1.304 . S
O266 Zn254 1.924 . S
O266 C274 1.311 . S
O267 Zn258 1.977 . S
O267 C273 1.272 . S
O268 Zn258 1.910 . S
O268 C274 1.231 . S
C269 O253 1.225 . S
C269 O275 1.298 . S
C270 O259 1.226 . S
C270 O260 1.307 . S
C271 O263 1.303 . S
C271 O264 1.247 . S
C272 O261 1.253 . S
C272 O262 1.283 . S
C273 O265 1.304 . S
C273 O267 1.272 . S
C274 O266 1.311 . S
C274 O268 1.231 . S
O275 Zn257 1.953 . S
O275 C269 1.298 . S
O276 Zn277 1.953 . S
O276 C292 1.225 . S
Zn277 O276 1.953 . S
Zn277 O278 1.949 . S
Zn277 O284 1.919 . S
Zn277 O289 1.924 . S
O278 Zn277 1.949 . S
O278 Zn279 1.923 . S
O278 Zn280 1.950 . S
O278 Zn281 1.945 . S
Zn279 O278 1.923 . S
Zn279 O282 1.933 . S
Zn279 O285 1.941 . S
Zn279 O286 1.965 . S
Zn280 O278 1.950 . S
Zn280 O287 1.938 . S
Zn280 O288 1.906 . S
Zn280 O298 1.953 . S
Zn281 O278 1.945 . S
Zn281 O283 1.932 . S
Zn281 O290 1.977 . S
Zn281 O291 1.910 . S
O282 Zn279 1.933 . S
O282 C293 1.226 . S
O283 Zn281 1.932 . S
O283 C293 1.307 . S
O284 Zn277 1.919 . S
O284 C295 1.253 . S
O285 Zn279 1.941 . S
O285 C295 1.283 . S
O286 Zn279 1.965 . S
O286 C294 1.303 . S
O287 Zn280 1.938 . S
O287 C294 1.247 . S
O288 Zn280 1.906 . S
O288 C296 1.304 . S
O289 Zn277 1.924 . S
O289 C297 1.311 . S
O290 Zn281 1.977 . S
O290 C296 1.272 . S
O291 Zn281 1.910 . S
O291 C297 1.231 . S
C292 O276 1.225 . S
C292 O298 1.298 . S
C293 O282 1.226 . S
C293 O283 1.307 . S
C294 O286 1.303 . S
C294 O287 1.247 . S
C295 O284 1.253 . S
C295 O285 1.283 . S
C296 O288 1.304 . S
C296 O290 1.272 . S
C297 O289 1.311 . S
C297 O291 1.231 . S
O298 Zn280 1.953 . S
O298 C292 1.298 . S
O299 Zn300 1.953 . S
O299 C315 1.225 . S
Zn300 O299 1.953 . S
Zn300 O301 1.949 . S
Zn300 O307 1.919 . S
Zn300 O312 1.924 . S
O301 Zn300 1.949 . S
O301 Zn302 1.923 . S
O301 Zn303 1.950 . S
O301 Zn304 1.945 . S
Zn302 O301 1.923 . S
Zn302 O305 1.933 . S
Zn302 O308 1.941 . S
Zn302 O309 1.965 . S
Zn303 O301 1.950 . S
Zn303 O310 1.938 . S
Zn303 O311 1.906 . S
Zn303 O321 1.953 . S
Zn304 O301 1.945 . S
Zn304 O306 1.932 . S
Zn304 O313 1.977 . S
Zn304 O314 1.910 . S
O305 Zn302 1.933 . S
O305 C316 1.226 . S
O306 Zn304 1.932 . S
O306 C316 1.307 . S
O307 Zn300 1.919 . S
O307 C318 1.253 . S
O308 Zn302 1.941 . S
O308 C318 1.283 . S
O309 Zn302 1.965 . S
O309 C317 1.303 . S
O310 Zn303 1.938 . S
O310 C317 1.247 . S
O311 Zn303 1.906 . S
O311 C319 1.304 . S
O312 Zn300 1.924 . S
O312 C320 1.311 . S
O313 Zn304 1.977 . S
O313 C319 1.272 . S
O314 Zn304 1.910 . S
O314 C320 1.231 . S
C315 O299 1.225 . S
C315 O321 1.298 . S
C316 O305 1.226 . S
C316 O306 1.307 . S
C317 O309 1.303 . S
C317 O310 1.247 . S
C318 O307 1.253 . S
C318 O308 1.283 . S
C319 O311 1.304 . S
C319 O313 1.272 . S
C320 O312 1.311 . S
C320 O314 1.231 . S
O321 Zn303 1.953 . S
O321 C315 1.298 . S
O322 Zn323 1.953 . S
O322 C338 1.225 . S
Zn323 O322 1.953 . S
Zn323 O324 1.949 1_554 S
Zn323 O330 1.919 . S
Zn323 O335 1.924 . S
O324 Zn323 1.949 1_556 S
O324 Zn325 1.923 . S
O324 Zn326 1.950 . S
O324 Zn327 1.945 . S
Zn325 O324 1.923 . S
Zn325 O328 1.933 . S
Zn325 O331 1.941 . S
Zn325 O332 1.965 . S
Zn326 O324 1.950 . S
Zn326 O333 1.938 . S
Zn326 O334 1.906 . S
Zn326 O344 1.953 . S
Zn327 O324 1.945 . S
Zn327 O329 1.932 . S
Zn327 O336 1.977 . S
Zn327 O337 1.910 . S
O328 Zn325 1.933 . S
O328 C339 1.226 . S
O329 Zn327 1.932 . S
O329 C339 1.307 . S
O330 Zn323 1.919 . S
O330 C341 1.253 . S
O331 Zn325 1.941 . S
O331 C341 1.283 1_556 S
O332 Zn325 1.965 . S
O332 C340 1.303 . S
O333 Zn326 1.938 . S
O333 C340 1.247 . S
O334 Zn326 1.906 . S
O334 C342 1.304 . S
O335 Zn323 1.924 . S
O335 C343 1.311 . S
O336 Zn327 1.977 . S
O336 C342 1.272 . S
O337 Zn327 1.910 . S
O337 C343 1.231 1_556 S
C338 O322 1.225 . S
C338 O344 1.298 1_554 S
C339 O328 1.226 . S
C339 O329 1.307 . S
C340 O332 1.303 . S
C340 O333 1.247 . S
C341 O330 1.253 . S
C341 O331 1.283 1_554 S
C342 O334 1.304 . S
C342 O336 1.272 . S
C343 O335 1.311 . S
C343 O337 1.231 1_554 S
O344 Zn326 1.953 . S
O344 C338 1.298 1_556 S
O345 Zn346 1.953 . S
O345 C361 1.225 . S
Zn346 O345 1.953 . S
Zn346 O347 1.949 . S
Zn346 O353 1.919 . S
Zn346 O358 1.924 . S
O347 Zn346 1.949 . S
O347 Zn348 1.923 . S
O347 Zn349 1.950 . S
O347 Zn350 1.945 . S
Zn348 O347 1.923 . S
Zn348 O351 1.933 . S
Zn348 O354 1.941 . S
Zn348 O355 1.965 . S
Zn349 O347 1.950 . S
Zn349 O356 1.938 . S
Zn349 O357 1.906 . S
Zn349 O367 1.953 . S
Zn350 O347 1.945 . S
Zn350 O352 1.932 . S
Zn350 O359 1.977 . S
Zn350 O360 1.910 . S
O351 Zn348 1.933 . S
O351 C362 1.226 . S
O352 Zn350 1.932 . S
O352 C362 1.307 . S
O353 Zn346 1.919 . S
O353 C364 1.253 . S
O354 Zn348 1.941 . S
O354 C364 1.283 . S
O355 Zn348 1.965 . S
O355 C363 1.303 . S
O356 Zn349 1.938 . S
O356 C363 1.247 . S
O357 Zn349 1.906 . S
O357 C365 1.304 . S
O358 Zn346 1.924 . S
O358 C366 1.311 . S
O359 Zn350 1.977 . S
O359 C365 1.272 . S
O360 Zn350 1.910 . S
O360 C366 1.231 . S
C361 O345 1.225 . S
C361 O367 1.298 . S
C362 O351 1.226 . S
C362 O352 1.307 . S
C363 O355 1.303 . S
C363 O356 1.247 . S
C364 O353 1.253 . S
C364 O354 1.283 . S
C365 O357 1.304 . S
C365 O359 1.272 . S
C366 O358 1.311 . S
C366 O360 1.231 . S
O367 Zn349 1.953 . S
O367 C361 1.298 . S
H368 C376 0.929 . S
H369 C378 0.930 . S
H370 C380 0.930 . S
H371 C383 0.929 . S
H372 C386 0.930 . S
H373 C388 0.960 . S
H374 C388 0.960 . S
H375 C388 0.960 . S
C376 H368 0.929 . S
C376 C377 1.377 . S
C376 C378 1.384 . S
C377 C376 1.377 . S
C377 C383 1.390 . S
C378 H369 0.930 . S
C378 C376 1.384 . S
C378 C379 1.372 . S
C379 C378 1.372 . S
C379 C380 1.400 . S
C379 C384 1.490 . S
C380 H370 0.930 . S
C380 C379 1.400 . S
C380 C383 1.386 . S
H381 C397 0.930 . S
H382 C398 0.931 . S
C383 H371 0.929 . S
C383 C377 1.390 . S
C383 C380 1.386 . S
C384 C379 1.490 . S
C384 C386 1.395 . S
C384 C387 1.403 . S
H385 C391 0.930 . S
C386 H372 0.930 . S
C386 C384 1.395 . S
C386 C389 1.403 . S
C387 C384 1.403 . S
C387 C388 1.524 . S
C387 C391 1.400 . S
C388 H373 0.960 . S
C388 H374 0.960 . S
C388 H375 0.960 . S
C388 C387 1.524 . S
C389 C386 1.403 . S
C389 C390 1.392 . S
C389 C393 1.495 . S
C390 C389 1.392 . S
C390 C391 1.385 . S
C390 C392 1.478 . S
C391 H385 0.930 . S
C391 C387 1.400 . S
C391 C390 1.385 . S
C392 C390 1.478 . S
C392 C394 1.381 . S
C392 C398 1.383 . S
C393 C389 1.495 . S
C393 H399 0.959 . S
C393 H400 0.961 . S
C393 H401 0.960 . S
C394 C392 1.381 . S
C394 C395 1.394 . S
C394 H402 0.930 . S
C395 C394 1.394 . S
C395 C396 1.383 . S
C395 H403 0.929 . S
C396 C395 1.383 . S
C396 C397 1.377 . S
C397 H381 0.930 . S
C397 C396 1.377 . S
C397 C398 1.379 . S
C398 H382 0.931 . S
C398 C392 1.383 . S
C398 C397 1.379 . S
H399 C393 0.959 . S
H400 C393 0.961 . S
H401 C393 0.960 . S
H402 C394 0.930 . S
H403 C395 0.929 . S
H404 C412 0.929 . S
H405 C414 0.930 . S
H406 C416 0.930 . S
H407 C419 0.929 . S
H408 C422 0.930 . S
H409 C424 0.960 . S
H410 C424 0.960 . S
H411 C424 0.960 . S
C412 H404 0.929 . S
C412 C413 1.377 . S
C412 C414 1.384 . S
C413 C412 1.377 . S
C413 C419 1.390 . S
C414 H405 0.930 . S
C414 C412 1.384 . S
C414 C415 1.372 . S
C415 C414 1.372 . S
C415 C416 1.400 . S
C415 C420 1.490 . S
C416 H406 0.930 . S
C416 C415 1.400 . S
C416 C419 1.386 . S
H417 C433 0.930 . S
H418 C434 0.931 . S
C419 H407 0.929 . S
C419 C413 1.390 . S
C419 C416 1.386 . S
C420 C415 1.490 . S
C420 C422 1.395 . S
C420 C423 1.403 . S
H421 C427 0.930 . S
C422 H408 0.930 . S
C422 C420 1.395 . S
C422 C425 1.403 . S
C423 C420 1.403 . S
C423 C424 1.524 . S
C423 C427 1.400 . S
C424 H409 0.960 . S
C424 H410 0.960 . S
C424 H411 0.960 . S
C424 C423 1.524 . S
C425 C422 1.403 . S
C425 C426 1.392 . S
C425 C429 1.495 . S
C426 C425 1.392 . S
C426 C427 1.385 . S
C426 C428 1.478 . S
C427 H421 0.930 . S
C427 C423 1.400 . S
C427 C426 1.385 . S
C428 C426 1.478 . S
C428 C430 1.381 . S
C428 C434 1.383 . S
C429 C425 1.495 . S
C429 H435 0.959 . S
C429 H436 0.961 . S
C429 H437 0.960 . S
C430 C428 1.381 . S
C430 C431 1.394 . S
C430 H438 0.930 . S
C431 C430 1.394 . S
C431 C432 1.383 . S
C431 H439 0.929 . S
C432 C431 1.383 . S
C432 C433 1.377 . S
C433 H417 0.930 . S
C433 C432 1.377 . S
C433 C434 1.379 . S
C434 H418 0.931 . S
C434 C428 1.383 . S
C434 C433 1.379 . S
H435 C429 0.959 . S
H436 C429 0.961 . S
H437 C429 0.960 . S
H438 C430 0.930 . S
H439 C431 0.929 . S
H440 C448 0.929 . S
H441 C450 0.930 . S
H442 C452 0.930 . S
H443 C455 0.929 . S
H444 C458 0.930 . S
H445 C460 0.960 1_655 S
H446 C460 0.960 . S
H447 C460 0.960 . S
C448 H440 0.929 . S
C448 C449 1.377 . S
C448 C450 1.384 . S
C449 C448 1.377 . S
C449 C455 1.390 . S
C450 H441 0.930 . S
C450 C448 1.384 . S
C450 C451 1.372 . S
C451 C450 1.372 . S
C451 C452 1.400 . S
C451 C456 1.490 . S
C452 H442 0.930 . S
C452 C451 1.400 . S
C452 C455 1.386 . S
H453 C469 0.930 . S
H454 C470 0.931 . S
C455 H443 0.929 . S
C455 C449 1.390 . S
C455 C452 1.386 . S
C456 C451 1.490 . S
C456 C458 1.395 . S
C456 C459 1.403 . S
H457 C463 0.930 . S
C458 H444 0.930 . S
C458 C456 1.395 . S
C458 C461 1.358 1_455 S
C459 C456 1.403 . S
C459 C460 1.524 . S
C459 C463 1.400 1_455 S
C460 H445 0.960 1_455 S
C460 H446 0.960 . S
C460 H447 0.960 . S
C460 C459 1.524 . S
C461 C458 1.358 1_655 S
C461 C462 1.435 . S
C461 C465 1.498 . S
C462 C461 1.435 . S
C462 C463 1.385 . S
C462 C464 1.478 . S
C463 H457 0.930 . S
C463 C459 1.400 1_655 S
C463 C462 1.385 . S
C464 C462 1.478 . S
C464 C466 1.381 . S
C464 C470 1.383 . S
C465 C461 1.498 . S
C465 H471 0.959 1_655 S
C465 H472 0.961 . S
C465 H473 0.960 . S
C466 C464 1.381 . S
C466 C467 1.394 . S
C466 H474 0.930 . S
C467 C466 1.394 . S
C467 C468 1.383 . S
C467 H475 0.929 . S
C468 C467 1.383 . S
C468 C469 1.377 . S
C469 H453 0.930 . S
C469 C468 1.377 . S
C469 C470 1.379 . S
C470 H454 0.931 . S
C470 C464 1.383 . S
C470 C469 1.379 . S
H471 C465 0.959 1_455 S
H472 C465 0.961 . S
H473 C465 0.960 . S
H474 C466 0.930 . S
H475 C467 0.929 . S
H476 C484 0.929 . S
H477 C486 0.930 . S
H478 C488 0.930 . S
H479 C491 0.929 . S
H480 C494 0.930 . S
H481 C496 0.960 . S
H482 C496 0.960 . S
H483 C496 0.960 . S
C484 H476 0.929 . S
C484 C485 1.377 . S
C484 C486 1.384 . S
C485 C484 1.377 . S
C485 C491 1.390 . S
C486 H477 0.930 . S
C486 C484 1.384 . S
C486 C487 1.372 . S
C487 C486 1.372 . S
C487 C488 1.400 . S
C487 C492 1.490 . S
C488 H478 0.930 . S
C488 C487 1.400 . S
C488 C491 1.386 . S
H489 C505 0.930 . S
H490 C506 0.931 . S
C491 H479 0.929 . S
C491 C485 1.390 . S
C491 C488 1.386 . S
C492 C487 1.490 . S
C492 C494 1.395 1_655 S
C492 C495 1.403 . S
H493 C499 0.930 . S
C494 H480 0.930 . S
C494 C492 1.395 1_455 S
C494 C497 1.403 . S
C495 C492 1.403 . S
C495 C496 1.524 . S
C495 C499 1.400 . S
C496 H481 0.960 . S
C496 H482 0.960 . S
C496 H483 0.960 . S
C496 C495 1.524 . S
C497 C494 1.403 . S
C497 C498 1.392 . S
C497 C501 1.495 . S
C498 C497 1.392 . S
C498 C499 1.385 1_455 S
C498 C500 1.478 . S
C499 H493 0.930 . S
C499 C495 1.400 . S
C499 C498 1.385 1_655 S
C500 C498 1.478 . S
C500 C502 1.381 . S
C500 C506 1.383 . S
C501 C497 1.495 . S
C501 H507 0.959 . S
C501 H508 0.961 . S
C501 H509 0.960 . S
C502 C500 1.381 . S
C502 C503 1.394 . S
C502 H510 0.930 . S
C503 C502 1.394 . S
C503 C504 1.383 . S
C503 H511 0.929 . S
C504 C503 1.383 . S
C504 C505 1.377 . S
C505 H489 0.930 . S
C505 C504 1.377 . S
C505 C506 1.379 . S
C506 H490 0.931 . S
C506 C500 1.383 . S
C506 C505 1.379 . S
H507 C501 0.959 . S
H508 C501 0.961 . S
H509 C501 0.960 . S
H510 C502 0.930 . S
H511 C503 0.929 . S
H512 C520 0.929 . S
H513 C522 0.930 . S
H514 C524 0.930 . S
H515 C527 0.929 . S
H516 C530 0.930 . S
H517 C532 0.960 . S
H518 C532 0.960 . S
H519 C532 0.960 . S
C520 H512 0.929 . S
C520 C521 1.377 . S
C520 C522 1.384 . S
C521 C520 1.377 . S
C521 C527 1.390 . S
C522 H513 0.930 . S
C522 C520 1.384 . S
C522 C523 1.372 . S
C523 C522 1.372 . S
C523 C524 1.400 . S
C523 C528 1.490 . S
C524 H514 0.930 . S
C524 C523 1.400 . S
C524 C527 1.386 . S
H525 C541 0.930 . S
H526 C542 0.931 . S
C527 H515 0.929 . S
C527 C521 1.390 . S
C527 C524 1.386 . S
C528 C523 1.490 . S
C528 C530 1.395 . S
C528 C531 1.403 . S
H529 C535 0.930 . S
C530 H516 0.930 . S
C530 C528 1.395 . S
C530 C533 1.403 . S
C531 C528 1.403 . S
C531 C532 1.524 . S
C531 C535 1.400 . S
C532 H517 0.960 . S
C532 H518 0.960 . S
C532 H519 0.960 . S
C532 C531 1.524 . S
C533 C530 1.403 . S
C533 C534 1.392 . S
C533 C537 1.495 . S
C534 C533 1.392 . S
C534 C535 1.385 . S
C534 C536 1.478 . S
C535 H529 0.930 . S
C535 C531 1.400 . S
C535 C534 1.385 . S
C536 C534 1.478 . S
C536 C538 1.381 . S
C536 C542 1.383 . S
C537 C533 1.495 . S
C537 H543 0.959 . S
C537 H544 0.961 . S
C537 H545 0.960 . S
C538 C536 1.381 . S
C538 C539 1.394 . S
C538 H546 0.930 . S
C539 C538 1.394 . S
C539 C540 1.383 . S
C539 H547 0.929 . S
C540 C539 1.383 . S
C540 C541 1.377 . S
C541 H525 0.930 . S
C541 C540 1.377 . S
C541 C542 1.379 . S
C542 H526 0.931 . S
C542 C536 1.383 . S
C542 C541 1.379 . S
H543 C537 0.959 . S
H544 C537 0.961 . S
H545 C537 0.960 . S
H546 C538 0.930 . S
H547 C539 0.929 . S
H548 C556 0.929 . S
H549 C558 0.930 . S
H550 C560 0.930 . S
H551 C563 0.929 . S
H552 C566 0.930 . S
H553 C568 0.960 . S
H554 C568 0.960 . S
H555 C568 0.960 . S
C556 H548 0.929 . S
C556 C557 1.377 . S
C556 C558 1.384 . S
C557 C556 1.377 . S
C557 C563 1.390 . S
C558 H549 0.930 . S
C558 C556 1.384 . S
C558 C559 1.372 . S
C559 C558 1.372 . S
C559 C560 1.400 . S
C559 C564 1.490 . S
C560 H550 0.930 . S
C560 C559 1.400 . S
C560 C563 1.386 . S
H561 C577 0.930 . S
H562 C578 0.931 . S
C563 H551 0.929 . S
C563 C557 1.390 . S
C563 C560 1.386 . S
C564 C559 1.490 . S
C564 C566 1.395 . S
C564 C567 1.403 . S
H565 C571 0.930 . S
C566 H552 0.930 . S
C566 C564 1.395 . S
C566 C569 1.403 . S
C567 C564 1.403 . S
C567 C568 1.524 . S
C567 C571 1.400 . S
C568 H553 0.960 . S
C568 H554 0.960 . S
C568 H555 0.960 . S
C568 C567 1.524 . S
C569 C566 1.403 . S
C569 C570 1.392 . S
C569 C573 1.495 . S
C570 C569 1.392 . S
C570 C571 1.385 . S
C570 C572 1.478 . S
C571 H565 0.930 . S
C571 C567 1.400 . S
C571 C570 1.385 . S
C572 C570 1.478 . S
C572 C574 1.381 . S
C572 C578 1.383 . S
C573 C569 1.495 . S
C573 H579 0.959 . S
C573 H580 0.961 . S
C573 H581 0.960 . S
C574 C572 1.381 . S
C574 C575 1.394 . S
C574 H582 0.930 . S
C575 C574 1.394 . S
C575 C576 1.383 . S
C575 H583 0.929 . S
C576 C575 1.383 . S
C576 C577 1.377 . S
C577 H561 0.930 . S
C577 C576 1.377 . S
C577 C578 1.379 . S
C578 H562 0.931 . S
C578 C572 1.383 . S
C578 C577 1.379 . S
H579 C573 0.959 . S
H580 C573 0.961 . S
H581 C573 0.960 . S
H582 C574 0.930 . S
H583 C575 0.929 . S
H584 C592 0.929 . S
H585 C594 0.930 . S
H586 C596 0.930 . S
H587 C599 0.929 . S
H588 C602 0.930 . S
H589 C604 0.960 1_455 S
H590 C604 0.960 . S
H591 C604 0.960 . S
C592 H584 0.929 . S
C592 C593 1.377 . S
C592 C594 1.384 . S
C593 C592 1.377 . S
C593 C599 1.390 . S
C594 H585 0.930 . S
C594 C592 1.384 . S
C594 C595 1.372 . S
C595 C594 1.372 . S
C595 C596 1.400 . S
C595 C600 1.490 . S
C596 H586 0.930 . S
C596 C595 1.400 . S
C596 C599 1.386 . S
H597 C613 0.930 . S
H598 C614 0.931 . S
C599 H587 0.929 . S
C599 C593 1.390 . S
C599 C596 1.386 . S
C600 C595 1.490 . S
C600 C602 1.395 . S
C600 C603 1.403 . S
H601 C607 0.930 . S
C602 H588 0.930 . S
C602 C600 1.395 . S
C602 C605 1.403 1_655 S
C603 C600 1.403 . S
C603 C604 1.524 . S
C603 C607 1.400 1_655 S
C604 H589 0.960 1_655 S
C604 H590 0.960 . S
C604 H591 0.960 . S
C604 C603 1.524 . S
C605 C602 1.403 1_455 S
C605 C606 1.392 . S
C605 C609 1.495 . S
C606 C605 1.392 . S
C606 C607 1.385 . S
C606 C608 1.478 . S
C607 H601 0.930 . S
C607 C603 1.400 1_455 S
C607 C606 1.385 . S
C608 C606 1.478 . S
C608 C610 1.381 . S
C608 C614 1.383 . S
C609 C605 1.495 . S
C609 H615 0.959 1_455 S
C609 H616 0.961 . S
C609 H617 0.960 . S
C610 C608 1.381 . S
C610 C611 1.394 . S
C610 H618 0.930 . S
C611 C610 1.394 . S
C611 C612 1.383 . S
C611 H619 0.929 . S
C612 C611 1.383 . S
C612 C613 1.377 . S
C613 H597 0.930 . S
C613 C612 1.377 . S
C613 C614 1.379 . S
C614 H598 0.931 . S
C614 C608 1.383 . S
C614 C613 1.379 . S
H615 C609 0.959 1_655 S
H616 C609 0.961 . S
H617 C609 0.960 . S
H618 C610 0.930 . S
H619 C611 0.929 . S
H620 C628 0.929 . S
H621 C630 0.930 1_655 S
H622 C632 0.930 . S
H623 C635 0.929 . S
H624 C638 0.930 . S
H625 C640 0.960 . S
H626 C640 0.960 . S
H627 C640 0.960 . S
C628 H620 0.929 . S
C628 C629 1.377 . S
C628 C630 1.384 . S
C629 C628 1.377 . S
C629 C635 1.390 . S
C630 H621 0.930 1_455 S
C630 C628 1.384 . S
C630 C631 1.372 . S
C631 C630 1.372 . S
C631 C632 1.400 . S
C631 C636 1.490 . S
C632 H622 0.930 . S
C632 C631 1.400 . S
C632 C635 1.386 . S
H633 C649 0.930 . S
H634 C650 0.931 1_455 S
C635 H623 0.929 . S
C635 C629 1.390 . S
C635 C632 1.386 . S
C636 C631 1.490 . S
C636 C638 1.395 1_455 S
C636 C639 1.403 . S
H637 C643 0.930 . S
C638 H624 0.930 . S
C638 C636 1.395 1_655 S
C638 C641 1.403 . S
C639 C636 1.403 . S
C639 C640 1.524 . S
C639 C643 1.400 . S
C640 H625 0.960 . S
C640 H626 0.960 . S
C640 H627 0.960 . S
C640 C639 1.524 . S
C641 C638 1.403 . S
C641 C642 1.392 . S
C641 C645 1.495 . S
C642 C641 1.392 . S
C642 C643 1.385 1_655 S
C642 C644 1.478 . S
C643 H637 0.930 . S
C643 C639 1.400 . S
C643 C642 1.385 1_455 S
C644 C642 1.478 . S
C644 C646 1.381 . S
C644 C650 1.383 . S
C645 C641 1.495 . S
C645 H651 0.959 . S
C645 H652 0.961 . S
C645 H653 0.960 . S
C646 C644 1.381 . S
C646 C647 1.394 . S
C646 H654 0.930 . S
C647 C646 1.394 . S
C647 C648 1.383 . S
C647 H655 0.929 . S
C648 C647 1.383 . S
C648 C649 1.377 . S
C649 H633 0.930 . S
C649 C648 1.377 . S
C649 C650 1.379 . S
C650 H634 0.931 1_655 S
C650 C644 1.383 . S
C650 C649 1.379 . S
H651 C645 0.959 . S
H652 C645 0.961 . S
H653 C645 0.960 . S
H654 C646 0.930 . S
H655 C647 0.929 . S
H656 C664 0.929 . S
H657 C666 0.930 . S
H658 C668 0.930 . S
H659 C671 0.929 . S
H660 C674 0.930 . S
H661 C676 0.960 . S
H662 C676 0.960 . S
H663 C676 0.960 . S
C664 H656 0.929 . S
C664 C665 1.377 . S
C664 C666 1.384 . S
C665 C664 1.377 . S
C665 C671 1.390 . S
C666 H657 0.930 . S
C666 C664 1.384 . S
C666 C667 1.372 . S
C667 C666 1.372 . S
C667 C668 1.400 . S
C667 C672 1.490 . S
C668 H658 0.930 . S
C668 C667 1.400 . S
C668 C671 1.386 . S
H669 C685 0.930 . S
H670 C686 0.931 . S
C671 H659 0.929 . S
C671 C665 1.390 . S
C671 C668 1.386 . S
C672 C667 1.490 . S
C672 C674 1.395 . S
C672 C675 1.403 . S
H673 C679 0.930 . S
C674 H660 0.930 . S
C674 C672 1.395 . S
C674 C677 1.403 . S
C675 C672 1.403 . S
C675 C676 1.524 . S
C675 C679 1.400 . S
C676 H661 0.960 . S
C676 H662 0.960 . S
C676 H663 0.960 . S
C676 C675 1.524 . S
C677 C674 1.403 . S
C677 C678 1.392 . S
C677 C681 1.495 . S
C678 C677 1.392 . S
C678 C679 1.385 . S
C678 C680 1.478 . S
C679 H673 0.930 . S
C679 C675 1.400 . S
C679 C678 1.385 . S
C680 C678 1.478 . S
C680 C682 1.381 . S
C680 C686 1.383 . S
C681 C677 1.495 . S
C681 H687 0.959 . S
C681 H688 0.961 . S
C681 H689 0.960 . S
C682 C680 1.381 . S
C682 C683 1.394 1_556 S
C682 H690 0.929 1_556 S
C683 C682 1.394 1_554 S
C683 C684 1.383 1_554 S
C683 H691 0.929 . S
C684 C683 1.383 1_556 S
C684 C685 1.377 . S
C685 H669 0.930 . S
C685 C684 1.377 . S
C685 C686 1.379 . S
C686 H670 0.931 . S
C686 C680 1.383 . S
C686 C685 1.379 . S
H687 C681 0.959 . S
H688 C681 0.961 . S
H689 C681 0.960 . S
H690 C682 0.929 1_554 S
H691 C683 0.929 . S
H692 C700 0.929 . S
H693 C702 0.930 . S
H694 C704 0.930 . S
H695 C707 0.929 . S
H696 C710 0.930 . S
H697 C712 0.960 . S
H698 C712 0.960 . S
H699 C712 0.960 . S
C700 H692 0.929 . S
C700 C701 1.377 . S
C700 C702 1.384 . S
C701 C700 1.377 . S
C701 C707 1.390 . S
C702 H693 0.930 . S
C702 C700 1.384 . S
C702 C703 1.372 . S
C703 C702 1.372 . S
C703 C704 1.400 . S
C703 C708 1.490 . S
C704 H694 0.930 . S
C704 C703 1.400 . S
C704 C707 1.386 . S
H705 C721 0.930 . S
H706 C722 0.931 . S
C707 H695 0.929 . S
C707 C701 1.390 . S
C707 C704 1.386 . S
C708 C703 1.490 . S
C708 C710 1.395 . S
C708 C711 1.403 . S
H709 C715 0.930 . S
C710 H696 0.930 . S
C710 C708 1.395 . S
C710 C713 1.403 . S
C711 C708 1.403 . S
C711 C712 1.524 . S
C711 C715 1.400 . S
C712 H697 0.960 . S
C712 H698 0.960 . S
C712 H699 0.960 . S
C712 C711 1.524 . S
C713 C710 1.403 . S
C713 C714 1.392 . S
C713 C717 1.495 . S
C714 C713 1.392 . S
C714 C715 1.385 . S
C714 C716 1.478 . S
C715 H709 0.930 . S
C715 C711 1.400 . S
C715 C714 1.385 . S
C716 C714 1.478 . S
C716 C718 1.381 . S
C716 C722 1.383 . S
C717 C713 1.495 . S
C717 H723 0.959 . S
C717 H724 0.961 . S
C717 H725 0.960 . S
C718 C716 1.381 . S
C718 C719 1.394 . S
C718 H726 0.930 . S
C719 C718 1.394 . S
C719 C720 1.383 . S
C719 H727 0.929 . S
C720 C719 1.383 . S
C720 C721 1.377 . S
C721 H705 0.930 . S
C721 C720 1.377 . S
C721 C722 1.379 . S
C722 H706 0.931 . S
C722 C716 1.383 . S
C722 C721 1.379 . S
H723 C717 0.959 . S
H724 C717 0.961 . S
H725 C717 0.960 . S
H726 C718 0.930 . S
H727 C719 0.929 . S
H728 C736 0.929 . S
H729 C738 0.930 . S
H730 C740 0.930 . S
H731 C743 0.929 . S
H732 C746 0.930 . S
H733 C748 0.960 . S
H734 C748 0.960 . S
H735 C748 0.960 . S
C736 H728 0.929 . S
C736 C737 1.377 . S
C736 C738 1.384 . S
C737 C736 1.377 . S
C737 C743 1.390 . S
C738 H729 0.930 . S
C738 C736 1.384 . S
C738 C739 1.372 . S
C739 C738 1.372 . S
C739 C740 1.400 . S
C739 C744 1.490 . S
C740 H730 0.930 . S
C740 C739 1.400 . S
C740 C743 1.386 . S
H741 C757 0.930 . S
H742 C758 0.931 . S
C743 H731 0.929 . S
C743 C737 1.390 . S
C743 C740 1.386 . S
C744 C739 1.490 . S
C744 C746 1.395 . S
C744 C747 1.403 . S
H745 C751 0.930 . S
C746 H732 0.930 . S
C746 C744 1.395 . S
C746 C749 1.403 . S
C747 C744 1.403 . S
C747 C748 1.524 . S
C747 C751 1.400 . S
C748 H733 0.960 . S
C748 H734 0.960 . S
C748 H735 0.960 . S
C748 C747 1.524 . S
C749 C746 1.403 . S
C749 C750 1.392 . S
C749 C753 1.495 . S
C750 C749 1.392 . S
C750 C751 1.385 . S
C750 C752 1.478 . S
C751 H745 0.930 . S
C751 C747 1.400 . S
C751 C750 1.385 . S
C752 C750 1.478 . S
C752 C754 1.381 . S
C752 C758 1.383 . S
C753 C749 1.495 . S
C753 H759 0.959 . S
C753 H760 0.961 . S
C753 H761 0.960 . S
C754 C752 1.381 . S
C754 C755 1.394 . S
C754 H762 0.930 . S
C755 C754 1.394 . S
C755 C756 1.383 . S
C755 H763 0.929 . S
C756 C755 1.383 . S
C756 C757 1.377 . S
C757 H741 0.930 . S
C757 C756 1.377 . S
C757 C758 1.379 . S
C758 H742 0.931 . S
C758 C752 1.383 . S
C758 C757 1.379 . S
H759 C753 0.959 . S
H760 C753 0.961 . S
H761 C753 0.960 . S
H762 C754 0.930 . S
H763 C755 0.929 . S
H764 C772 0.929 . S
H765 C774 0.930 . S
H766 C776 0.930 . S
H767 C779 0.929 . S
H768 C782 0.930 . S
H769 C784 0.960 . S
H770 C784 0.960 . S
H771 C784 0.960 . S
C772 H764 0.929 . S
C772 C773 1.377 . S
C772 C774 1.384 . S
C773 C772 1.377 . S
C773 C779 1.390 . S
C774 H765 0.930 . S
C774 C772 1.384 . S
C774 C775 1.372 . S
C775 C774 1.372 . S
C775 C776 1.400 . S
C775 C780 1.490 . S
C776 H766 0.930 . S
C776 C775 1.400 . S
C776 C779 1.386 . S
H777 C793 0.930 . S
H778 C794 0.931 . S
C779 H767 0.929 . S
C779 C773 1.390 . S
C779 C776 1.386 . S
C780 C775 1.490 . S
C780 C782 1.395 . S
C780 C783 1.403 . S
H781 C787 0.930 . S
C782 H768 0.930 . S
C782 C780 1.395 . S
C782 C785 1.403 . S
C783 C780 1.403 . S
C783 C784 1.524 . S
C783 C787 1.400 . S
C784 H769 0.960 . S
C784 H770 0.960 . S
C784 H771 0.960 . S
C784 C783 1.524 . S
C785 C782 1.403 . S
C785 C786 1.392 . S
C785 C789 1.495 . S
C786 C785 1.392 . S
C786 C787 1.385 . S
C786 C788 1.478 . S
C787 H781 0.930 . S
C787 C783 1.400 . S
C787 C786 1.385 . S
C788 C786 1.478 . S
C788 C790 1.381 . S
C788 C794 1.383 . S
C789 C785 1.495 . S
C789 H795 0.959 . S
C789 H796 0.961 . S
C789 H797 0.960 . S
C790 C788 1.381 . S
C790 C791 1.394 . S
C790 H798 0.930 . S
C791 C790 1.394 . S
C791 C792 1.383 . S
C791 H799 0.929 . S
C792 C791 1.383 . S
C792 C793 1.377 . S
C793 H777 0.930 . S
C793 C792 1.377 . S
C793 C794 1.379 . S
C794 H778 0.931 . S
C794 C788 1.383 . S
C794 C793 1.379 . S
H795 C789 0.959 . S
H796 C789 0.961 . S
H797 C789 0.960 . S
H798 C790 0.930 . S
H799 C791 0.929 . S
H800 C808 0.929 . S
H801 C810 0.930 . S
H802 C812 0.930 . S
H803 C815 0.929 . S
H804 C818 0.930 . S
H805 C820 0.960 . S
H806 C820 0.960 . S
H807 C820 0.960 . S
C808 H800 0.929 . S
C808 C809 1.377 . S
C808 C810 1.384 . S
C809 C808 1.377 . S
C809 C815 1.390 1_554 S
C810 H801 0.930 . S
C810 C808 1.384 . S
C810 C811 1.372 . S
C811 C810 1.372 . S
C811 C812 1.400 . S
C811 C816 1.490 . S
C812 H802 0.930 . S
C812 C811 1.400 . S
C812 C815 1.386 1_554 S
H813 C829 0.930 . S
H814 C830 0.931 . S
C815 H803 0.929 . S
C815 C809 1.390 1_556 S
C815 C812 1.386 1_556 S
C816 C811 1.490 . S
C816 C818 1.395 . S
C816 C819 1.403 . S
H817 C823 0.930 . S
C818 H804 0.930 . S
C818 C816 1.395 . S
C818 C821 1.403 . S
C819 C816 1.403 . S
C819 C820 1.524 . S
C819 C823 1.400 . S
C820 H805 0.960 . S
C820 H806 0.960 . S
C820 H807 0.960 . S
C820 C819 1.524 . S
C821 C818 1.403 . S
C821 C822 1.392 . S
C821 C825 1.495 . S
C822 C821 1.392 . S
C822 C823 1.385 . S
C822 C824 1.478 . S
C823 H817 0.930 . S
C823 C819 1.400 . S
C823 C822 1.385 . S
C824 C822 1.478 . S
C824 C826 1.381 . S
C824 C830 1.383 . S
C825 C821 1.495 . S
C825 H831 0.959 . S
C825 H832 0.961 . S
C825 H833 0.960 . S
C826 C824 1.381 . S
C826 C827 1.394 . S
C826 H834 0.930 . S
C827 C826 1.394 . S
C827 C828 1.383 . S
C827 H835 0.929 . S
C828 C827 1.383 . S
C828 C829 1.377 . S
C829 H813 0.930 . S
C829 C828 1.377 . S
C829 C830 1.379 . S
C830 H814 0.931 . S
C830 C824 1.383 . S
C830 C829 1.379 . S
H831 C825 0.959 . S
H832 C825 0.961 . S
H833 C825 0.960 . S
H834 C826 0.930 . S
H835 C827 0.929 . S
H836 C844 0.929 . S
H837 C846 0.930 . S
H838 C848 0.930 . S
H839 C851 0.929 . S
H840 C854 0.930 . S
H841 C856 0.960 . S
H842 C856 0.960 . S
H843 C856 0.960 . S
C844 H836 0.929 . S
C844 C845 1.377 . S
C844 C846 1.384 . S
C845 C844 1.377 . S
C845 C851 1.390 . S
C846 H837 0.930 . S
C846 C844 1.384 . S
C846 C847 1.372 . S
C847 C846 1.372 . S
C847 C848 1.400 . S
C847 C852 1.490 . S
C848 H838 0.930 . S
C848 C847 1.400 . S
C848 C851 1.386 . S
H849 C865 0.930 . S
H850 C866 0.931 . S
C851 H839 0.929 . S
C851 C845 1.390 . S
C851 C848 1.386 . S
C852 C847 1.490 . S
C852 C854 1.395 . S
C852 C855 1.403 . S
H853 C859 0.930 . S
C854 H840 0.930 . S
C854 C852 1.395 . S
C854 C857 1.403 . S
C855 C852 1.403 . S
C855 C856 1.524 . S
C855 C859 1.400 . S
C856 H841 0.960 . S
C856 H842 0.960 . S
C856 H843 0.960 . S
C856 C855 1.524 . S
C857 C854 1.403 . S
C857 C858 1.392 . S
C857 C861 1.495 . S
C858 C857 1.392 . S
C858 C859 1.385 . S
C858 C860 1.478 . S
C859 H853 0.930 . S
C859 C855 1.400 . S
C859 C858 1.385 . S
C860 C858 1.478 . S
C860 C862 1.381 . S
C860 C866 1.383 . S
C861 C857 1.495 . S
C861 H867 0.959 . S
C861 H868 0.961 . S
C861 H869 0.960 . S
C862 C860 1.381 . S
C862 C863 1.394 . S
C862 H870 0.930 . S
C863 C862 1.394 . S
C863 C864 1.383 . S
C863 H871 0.929 . S
C864 C863 1.383 . S
C864 C865 1.377 . S
C865 H849 0.930 . S
C865 C864 1.377 . S
C865 C866 1.379 . S
C866 H850 0.931 . S
C866 C860 1.383 . S
C866 C865 1.379 . S
H867 C861 0.959 . S
H868 C861 0.961 . S
H869 C861 0.960 . S
H870 C862 0.930 . S
H871 C863 0.929 . S
H872 C880 0.929 . S
H873 C882 0.930 . S
H874 C884 0.930 . S
H875 C887 0.929 . S
H876 C890 0.930 . S
H877 C892 0.960 . S
H878 C892 0.960 . S
H879 C892 0.960 . S
C880 H872 0.929 . S
C880 C881 1.377 . S
C880 C882 1.384 . S
C881 C880 1.377 . S
C881 C887 1.390 . S
C882 H873 0.930 . S
C882 C880 1.384 . S
C882 C883 1.372 . S
C883 C882 1.372 . S
C883 C884 1.400 . S
C883 C888 1.490 . S
C884 H874 0.930 . S
C884 C883 1.400 . S
C884 C887 1.386 . S
H885 C901 0.930 . S
H886 C902 0.931 . S
C887 H875 0.929 . S
C887 C881 1.390 . S
C887 C884 1.386 . S
C888 C883 1.490 . S
C888 C890 1.395 . S
C888 C891 1.403 . S
H889 C895 0.930 . S
C890 H876 0.930 . S
C890 C888 1.395 . S
C890 C893 1.403 . S
C891 C888 1.403 . S
C891 C892 1.524 . S
C891 C895 1.400 . S
C892 H877 0.960 . S
C892 H878 0.960 . S
C892 H879 0.960 . S
C892 C891 1.524 . S
C893 C890 1.403 . S
C893 C894 1.392 . S
C893 C897 1.495 . S
C894 C893 1.392 . S
C894 C895 1.385 . S
C894 C896 1.478 . S
C895 H889 0.930 . S
C895 C891 1.400 . S
C895 C894 1.385 . S
C896 C894 1.478 . S
C896 C898 1.381 . S
C896 C902 1.383 . S
C897 C893 1.495 . S
C897 H903 0.959 . S
C897 H904 0.961 . S
C897 H905 0.960 . S
C898 C896 1.381 . S
C898 C899 1.394 . S
C898 H906 0.930 . S
C899 C898 1.394 . S
C899 C900 1.383 . S
C899 H907 0.929 . S
C900 C899 1.383 . S
C900 C901 1.377 . S
C901 H885 0.930 . S
C901 C900 1.377 . S
C901 C902 1.379 . S
C902 H886 0.931 . S
C902 C896 1.383 . S
C902 C901 1.379 . S
H903 C897 0.959 . S
H904 C897 0.961 . S
H905 C897 0.960 . S
H906 C898 0.930 . S
H907 C899 0.929 . S
H908 C916 0.929 . S
H909 C918 0.930 . S
H910 C920 0.930 . S
H911 C923 0.929 . S
H912 C926 0.930 . S
H913 C928 0.960 . S
H914 C928 0.960 . S
H915 C928 0.960 . S
C916 H908 0.929 . S
C916 C917 1.377 . S
C916 C918 1.384 . S
C917 C916 1.377 . S
C917 C923 1.390 . S
C918 H909 0.930 . S
C918 C916 1.384 . S
C918 C919 1.372 . S
C919 C918 1.372 . S
C919 C920 1.400 . S
C919 C924 1.490 . S
C920 H910 0.930 . S
C920 C919 1.400 . S
C920 C923 1.386 . S
H921 C937 0.930 . S
H922 C938 0.931 . S
C923 H911 0.929 . S
C923 C917 1.390 . S
C923 C920 1.386 . S
C924 C919 1.490 . S
C924 C926 1.395 . S
C924 C927 1.403 . S
H925 C931 0.930 . S
C926 H912 0.930 . S
C926 C924 1.395 . S
C926 C929 1.403 . S
C927 C924 1.403 . S
C927 C928 1.524 . S
C927 C931 1.400 . S
C928 H913 0.960 . S
C928 H914 0.960 . S
C928 H915 0.960 . S
C928 C927 1.524 . S
C929 C926 1.403 . S
C929 C930 1.392 . S
C929 C933 1.495 . S
C930 C929 1.392 . S
C930 C931 1.385 . S
C930 C932 1.478 . S
C931 H925 0.930 . S
C931 C927 1.400 . S
C931 C930 1.385 . S
C932 C930 1.478 . S
C932 C934 1.381 . S
C932 C938 1.383 . S
C933 C929 1.495 . S
C933 H939 0.959 . S
C933 H940 0.961 . S
C933 H941 0.960 . S
C934 C932 1.381 . S
C934 C935 1.394 . S
C934 H942 0.930 . S
C935 C934 1.394 . S
C935 C936 1.383 . S
C935 H943 0.929 . S
C936 C935 1.383 . S
C936 C937 1.377 . S
C937 H921 0.930 . S
C937 C936 1.377 . S
C937 C938 1.379 . S
C938 H922 0.931 . S
C938 C932 1.383 . S
C938 C937 1.379 . S
H939 C933 0.959 . S
H940 C933 0.961 . S
H941 C933 0.960 . S
H942 C934 0.930 . S
H943 C935 0.929 . S
H944 C952 0.929 . S
H945 C954 0.930 . S
H946 C956 0.930 . S
H947 C959 0.929 . S
H948 C962 0.930 . S
H949 C964 0.960 . S
H950 C964 0.960 . S
H951 C964 0.960 . S
C952 H944 0.929 . S
C952 C953 1.377 . S
C952 C954 1.384 . S
C953 C952 1.377 . S
C953 C959 1.390 . S
C954 H945 0.930 . S
C954 C952 1.384 . S
C954 C955 1.372 . S
C955 C954 1.372 . S
C955 C956 1.400 . S
C955 C960 1.490 . S
C956 H946 0.930 . S
C956 C955 1.400 . S
C956 C959 1.386 . S
H957 C973 0.930 . S
H958 C974 0.931 . S
C959 H947 0.929 . S
C959 C953 1.390 . S
C959 C956 1.386 . S
C960 C955 1.490 . S
C960 C962 1.395 . S
C960 C963 1.403 . S
H961 C967 0.930 . S
C962 H948 0.930 . S
C962 C960 1.395 . S
C962 C965 1.403 . S
C963 C960 1.403 . S
C963 C964 1.524 . S
C963 C967 1.400 . S
C964 H949 0.960 . S
C964 H950 0.960 . S
C964 H951 0.960 . S
C964 C963 1.524 . S
C965 C962 1.403 . S
C965 C966 1.392 . S
C965 C969 1.495 . S
C966 C965 1.392 . S
C966 C967 1.385 . S
C966 C968 1.478 . S
C967 H961 0.930 . S
C967 C963 1.400 . S
C967 C966 1.385 . S
C968 C966 1.478 . S
C968 C970 1.381 . S
C968 C974 1.383 . S
C969 C965 1.495 . S
C969 H975 0.959 . S
C969 H976 0.961 . S
C969 H977 0.960 . S
C970 C968 1.381 . S
C970 C971 1.394 . S
C970 H978 0.930 . S
C971 C970 1.394 . S
C971 C972 1.383 . S
C971 H979 0.929 . S
C972 C971 1.383 . S
C972 C973 1.377 . S
C973 H957 0.930 . S
C973 C972 1.377 . S
C973 C974 1.379 . S
C974 H958 0.931 . S
C974 C968 1.383 . S
C974 C973 1.379 . S
H975 C969 0.959 . S
H976 C969 0.961 . S
H977 C969 0.960 . S
H978 C970 0.930 . S
H979 C971 0.929 . S
H980 C988 0.929 . S
H981 C990 0.930 . S
H982 C992 0.930 . S
H983 C995 0.929 . S
H984 C998 0.930 . S
H985 C1000 0.960 . S
H986 C1000 0.960 1_545 S
H987 C1000 0.960 1_545 S
C988 H980 0.929 . S
C988 C989 1.377 . S
C988 C990 1.384 . S
C989 C988 1.377 . S
C989 C995 1.390 . S
C990 H981 0.930 . S
C990 C988 1.384 . S
C990 C991 1.385 . S
C991 C990 1.385 . S
C991 C992 1.411 . S
C991 C996 1.466 1_545 S
C992 H982 0.930 . S
C992 C991 1.411 . S
C992 C995 1.386 . S
H993 C1009 0.930 . S
H994 C1010 0.931 . S
C995 H983 0.929 . S
C995 C989 1.390 . S
C995 C992 1.386 . S
C996 C991 1.466 1_565 S
C996 C998 1.395 . S
C996 C999 1.403 . S
H997 C1003 0.930 . S
C998 H984 0.930 . S
C998 C996 1.395 . S
C998 C1001 1.403 . S
C999 C996 1.403 . S
C999 C1000 1.524 . S
C999 C1003 1.400 . S
C1000 H985 0.960 . S
C1000 H986 0.960 1_565 S
C1000 H987 0.960 1_565 S
C1000 C999 1.524 . S
C1001 C998 1.403 . S
C1001 C1002 1.392 . S
C1001 C1005 1.495 . S
C1002 C1001 1.392 . S
C1002 C1003 1.385 . S
C1002 C1004 1.478 . S
C1003 H997 0.930 . S
C1003 C999 1.400 . S
C1003 C1002 1.385 . S
C1004 C1002 1.478 . S
C1004 C1006 1.381 . S
C1004 C1010 1.383 . S
C1005 C1001 1.495 . S
C1005 H1011 0.959 . S
C1005 H1012 0.961 . S
C1005 H1013 0.960 . S
C1006 C1004 1.381 . S
C1006 C1007 1.394 . S
C1006 H1014 0.930 . S
C1007 C1006 1.394 . S
C1007 C1008 1.383 . S
C1007 H1015 0.929 . S
C1008 C1007 1.383 . S
C1008 C1009 1.377 . S
C1009 H993 0.930 . S
C1009 C1008 1.377 . S
C1009 C1010 1.379 . S
C1010 H994 0.931 . S
C1010 C1004 1.383 . S
C1010 C1009 1.379 . S
H1011 C1005 0.959 . S
H1012 C1005 0.961 . S
H1013 C1005 0.960 . S
H1014 C1006 0.930 . S
H1015 C1007 0.929 . S
H1016 C1024 0.929 . S
H1017 C1026 0.930 . S
H1018 C1028 0.930 . S
H1019 C1031 0.929 1_554 S
H1020 C1034 0.930 . S
H1021 C1036 0.960 . S
H1022 C1036 0.960 . S
H1023 C1036 0.965 . S
C1024 H1016 0.929 . S
C1024 C1025 1.377 . S
C1024 C1026 1.384 . S
C1025 C1024 1.377 . S
C1025 C1031 1.390 . S
C1026 H1017 0.930 . S
C1026 C1024 1.384 . S
C1026 C1027 1.372 . S
C1027 C1026 1.372 . S
C1027 C1028 1.400 . S
C1027 C1032 1.490 . S
C1028 H1018 0.930 . S
C1028 C1027 1.400 . S
C1028 C1031 1.386 . S
H1029 C1045 0.930 . S
H1030 C1046 0.931 . S
C1031 H1019 0.929 1_556 S
C1031 C1025 1.390 . S
C1031 C1028 1.386 . S
C1032 C1027 1.490 . S
C1032 C1034 1.395 . S
C1032 C1035 1.403 . S
H1033 C1039 0.930 . S
C1034 H1020 0.930 . S
C1034 C1032 1.395 . S
C1034 C1037 1.403 . S
C1035 C1032 1.403 . S
C1035 C1036 1.524 . S
C1035 C1039 1.400 . S
C1036 H1021 0.960 . S
C1036 H1022 0.960 . S
C1036 H1023 0.965 . S
C1036 C1035 1.524 . S
C1037 C1034 1.403 . S
C1037 C1038 1.392 . S
C1037 C1041 1.495 . S
C1038 C1037 1.392 . S
C1038 C1039 1.385 . S
C1038 C1040 1.478 . S
C1039 H1033 0.930 . S
C1039 C1035 1.400 . S
C1039 C1038 1.385 . S
C1040 C1038 1.478 . S
C1040 C1042 1.381 . S
C1040 C1046 1.383 . S
C1041 C1037 1.495 . S
C1041 H1047 0.959 . S
C1041 H1048 0.961 . S
C1041 H1049 0.960 . S
C1042 C1040 1.381 . S
C1042 C1043 1.394 . S
C1042 H1050 0.930 . S
C1043 C1042 1.394 . S
C1043 C1044 1.383 . S
C1043 H1051 0.929 . S
C1044 C1043 1.383 . S
C1044 C1045 1.377 . S
C1045 H1029 0.930 . S
C1045 C1044 1.377 . S
C1045 C1046 1.379 . S
C1046 H1030 0.931 . S
C1046 C1040 1.383 . S
C1046 C1045 1.379 . S
H1047 C1041 0.959 . S
H1048 C1041 0.961 . S
H1049 C1041 0.960 . S
H1050 C1042 0.930 . S
H1051 C1043 0.929 . S
H1052 C1060 0.929 . S
H1053 C1062 0.953 . S
H1054 C1064 0.930 . S
H1055 C1067 0.929 . S
H1056 C1070 0.930 . S
H1057 C1072 0.960 . S
H1058 C1072 0.960 . S
H1059 C1072 0.960 . S
C1060 H1052 0.929 . S
C1060 C1061 1.377 . S
C1060 C1062 1.361 1_565 S
C1061 C1060 1.377 . S
C1061 C1067 1.390 . S
C1062 H1053 0.953 . S
C1062 C1060 1.361 1_545 S
C1062 C1063 1.372 . S
C1063 C1062 1.372 . S
C1063 C1064 1.390 1_545 S
C1063 C1068 1.499 . S
C1064 H1054 0.930 . S
C1064 C1063 1.390 1_565 S
C1064 C1067 1.386 . S
H1065 C1081 0.930 . S
H1066 C1082 0.931 . S
C1067 H1055 0.929 . S
C1067 C1061 1.390 . S
C1067 C1064 1.386 . S
C1068 C1063 1.499 . S
C1068 C1070 1.395 . S
C1068 C1071 1.403 . S
H1069 C1075 0.930 . S
C1070 H1056 0.930 . S
C1070 C1068 1.395 . S
C1070 C1073 1.403 . S
C1071 C1068 1.403 . S
C1071 C1072 1.524 . S
C1071 C1075 1.400 . S
C1072 H1057 0.960 . S
C1072 H1058 0.960 . S
C1072 H1059 0.960 . S
C1072 C1071 1.524 . S
C1073 C1070 1.403 . S
C1073 C1074 1.392 . S
C1073 C1077 1.495 . S
C1074 C1073 1.392 . S
C1074 C1075 1.385 . S
C1074 C1076 1.478 . S
C1075 H1069 0.930 . S
C1075 C1071 1.400 . S
C1075 C1074 1.385 . S
C1076 C1074 1.478 . S
C1076 C1078 1.381 . S
C1076 C1082 1.383 . S
C1077 C1073 1.495 . S
C1077 H1083 0.959 . S
C1077 H1084 0.961 . S
C1077 H1085 0.960 . S
C1078 C1076 1.381 . S
C1078 C1079 1.394 . S
C1078 H1086 0.930 . S
C1079 C1078 1.394 . S
C1079 C1080 1.383 . S
C1079 H1087 0.929 . S
C1080 C1079 1.383 . S
C1080 C1081 1.377 . S
C1081 H1065 0.930 . S
C1081 C1080 1.377 . S
C1081 C1082 1.379 . S
C1082 H1066 0.931 . S
C1082 C1076 1.383 . S
C1082 C1081 1.379 . S
H1083 C1077 0.959 . S
H1084 C1077 0.961 . S
H1085 C1077 0.960 . S
H1086 C1078 0.930 . S
H1087 C1079 0.929 . S
H1088 C1096 0.929 . S
H1089 C1098 0.930 . S
H1090 C1100 0.930 . S
H1091 C1103 0.929 . S
H1092 C1106 0.930 . S
H1093 C1108 0.960 . S
H1094 C1108 0.960 . S
H1095 C1108 0.960 . S
C1096 H1088 0.929 . S
C1096 C1097 1.377 . S
C1096 C1098 1.384 . S
C1097 C1096 1.377 . S
C1097 C1103 1.390 . S
C1098 H1089 0.930 . S
C1098 C1096 1.384 . S
C1098 C1099 1.372 . S
C1099 C1098 1.372 . S
C1099 C1100 1.400 . S
C1099 C1104 1.490 . S
C1100 H1090 0.930 . S
C1100 C1099 1.400 . S
C1100 C1103 1.386 . S
H1101 C1117 0.930 . S
H1102 C1118 0.931 . S
C1103 H1091 0.929 . S
C1103 C1097 1.390 . S
C1103 C1100 1.386 . S
C1104 C1099 1.490 . S
C1104 C1106 1.395 . S
C1104 C1107 1.403 . S
H1105 C1111 0.930 . S
C1106 H1092 0.930 . S
C1106 C1104 1.395 . S
C1106 C1109 1.403 . S
C1107 C1104 1.403 . S
C1107 C1108 1.524 . S
C1107 C1111 1.400 . S
C1108 H1093 0.960 . S
C1108 H1094 0.960 . S
C1108 H1095 0.960 . S
C1108 C1107 1.524 . S
C1109 C1106 1.403 . S
C1109 C1110 1.392 . S
C1109 C1113 1.495 . S
C1110 C1109 1.392 . S
C1110 C1111 1.385 . S
C1110 C1112 1.478 . S
C1111 H1105 0.930 . S
C1111 C1107 1.400 . S
C1111 C1110 1.385 . S
C1112 C1110 1.478 . S
C1112 C1114 1.381 . S
C1112 C1118 1.383 . S
C1113 C1109 1.495 . S
C1113 H1119 0.959 . S
C1113 H1120 0.961 . S
C1113 H1121 0.960 . S
C1114 C1112 1.381 . S
C1114 C1115 1.394 . S
C1114 H1122 0.930 . S
C1115 C1114 1.394 . S
C1115 C1116 1.383 . S
C1115 H1123 0.929 . S
C1116 C1115 1.383 . S
C1116 C1117 1.377 . S
C1117 H1101 0.930 . S
C1117 C1116 1.377 . S
C1117 C1118 1.379 . S
C1118 H1102 0.931 . S
C1118 C1112 1.383 . S
C1118 C1117 1.379 . S
H1119 C1113 0.959 . S
H1120 C1113 0.961 . S
H1121 C1113 0.960 . S
H1122 C1114 0.930 . S
H1123 C1115 0.929 . S
H1124 C1132 0.929 . S
H1125 C1134 0.930 . S
H1126 C1136 0.930 . S
H1127 C1139 0.929 . S
H1128 C1142 0.930 . S
H1129 C1144 0.960 . S
H1130 C1144 0.960 . S
H1131 C1144 0.960 . S
C1132 H1124 0.929 . S
C1132 C1133 1.377 . S
C1132 C1134 1.384 . S
C1133 C1132 1.377 . S
C1133 C1139 1.390 . S
C1134 H1125 0.930 . S
C1134 C1132 1.384 . S
C1134 C1135 1.372 . S
C1135 C1134 1.372 . S
C1135 C1136 1.400 . S
C1135 C1140 1.490 . S
C1136 H1126 0.930 . S
C1136 C1135 1.400 . S
C1136 C1139 1.386 . S
H1137 C1153 0.930 . S
H1138 C1154 0.931 . S
C1139 H1127 0.929 . S
C1139 C1133 1.390 . S
C1139 C1136 1.386 . S
C1140 C1135 1.490 . S
C1140 C1142 1.395 . S
C1140 C1143 1.403 . S
H1141 C1147 0.930 . S
C1142 H1128 0.930 . S
C1142 C1140 1.395 . S
C1142 C1145 1.403 . S
C1143 C1140 1.403 . S
C1143 C1144 1.524 . S
C1143 C1147 1.400 . S
C1144 H1129 0.960 . S
C1144 H1130 0.960 . S
C1144 H1131 0.960 . S
C1144 C1143 1.524 . S
C1145 C1142 1.403 . S
C1145 C1146 1.392 . S
C1145 C1149 1.495 . S
C1146 C1145 1.392 . S
C1146 C1147 1.385 . S
C1146 C1148 1.478 . S
C1147 H1141 0.930 . S
C1147 C1143 1.400 . S
C1147 C1146 1.385 . S
C1148 C1146 1.478 . S
C1148 C1150 1.382 . S
C1148 C1154 1.383 1_545 S
C1149 C1145 1.495 . S
C1149 H1155 0.959 . S
C1149 H1156 0.961 . S
C1149 H1157 0.960 . S
C1150 C1148 1.382 . S
C1150 C1151 1.370 1_545 S
C1150 H1158 0.954 . S
C1151 C1150 1.370 1_565 S
C1151 C1152 1.383 . S
C1151 H1159 0.929 . S
C1152 C1151 1.383 . S
C1152 C1153 1.377 . S
C1153 H1137 0.930 . S
C1153 C1152 1.377 . S
C1153 C1154 1.379 . S
C1154 H1138 0.931 . S
C1154 C1148 1.383 1_565 S
C1154 C1153 1.379 . S
H1155 C1149 0.959 . S
H1156 C1149 0.961 . S
H1157 C1149 0.960 . S
H1158 C1150 0.954 . S
H1159 C1151 0.929 . S
H1160 C1168 0.929 . S
H1161 C1170 0.930 . S
H1162 C1172 0.930 . S
H1163 C1175 0.929 . S
H1164 C1178 0.930 . S
H1165 C1180 0.960 . S
H1166 C1180 0.960 . S
H1167 C1180 0.960 . S
C1168 H1160 0.929 . S
C1168 C1169 1.377 . S
C1168 C1170 1.384 . S
C1169 C1168 1.377 . S
C1169 C1175 1.390 . S
C1170 H1161 0.930 . S
C1170 C1168 1.384 . S
C1170 C1171 1.372 . S
C1171 C1170 1.372 . S
C1171 C1172 1.400 . S
C1171 C1176 1.490 . S
C1172 H1162 0.930 . S
C1172 C1171 1.400 . S
C1172 C1175 1.386 . S
H1173 C1189 0.930 . S
H1174 C1190 0.931 . S
C1175 H1163 0.929 . S
C1175 C1169 1.390 . S
C1175 C1172 1.386 . S
C1176 C1171 1.490 . S
C1176 C1178 1.395 . S
C1176 C1179 1.403 . S
H1177 C1183 0.930 . S
C1178 H1164 0.930 . S
C1178 C1176 1.395 . S
C1178 C1181 1.403 . S
C1179 C1176 1.403 . S
C1179 C1180 1.524 . S
C1179 C1183 1.400 . S
C1180 H1165 0.960 . S
C1180 H1166 0.960 . S
C1180 H1167 0.960 . S
C1180 C1179 1.524 . S
C1181 C1178 1.403 . S
C1181 C1182 1.392 . S
C1181 C1185 1.495 . S
C1182 C1181 1.392 . S
C1182 C1183 1.385 . S
C1182 C1184 1.478 . S
C1183 H1177 0.930 . S
C1183 C1179 1.400 . S
C1183 C1182 1.385 . S
C1184 C1182 1.478 . S
C1184 C1186 1.381 . S
C1184 C1190 1.383 . S
C1185 C1181 1.495 . S
C1185 H1191 0.959 . S
C1185 H1192 0.961 . S
C1185 H1193 0.960 . S
C1186 C1184 1.381 . S
C1186 C1187 1.394 1_554 S
C1186 H1194 0.930 1_554 S
C1187 C1186 1.394 1_556 S
C1187 C1188 1.383 1_556 S
C1187 H1195 0.929 . S
C1188 C1187 1.383 1_554 S
C1188 C1189 1.377 . S
C1189 H1173 0.930 . S
C1189 C1188 1.377 . S
C1189 C1190 1.379 . S
C1190 H1174 0.931 . S
C1190 C1184 1.383 . S
C1190 C1189 1.379 . S
H1191 C1185 0.959 . S
H1192 C1185 0.961 . S
H1193 C1185 0.960 . S
H1194 C1186 0.930 1_556 S
H1195 C1187 0.929 . S
H1196 C1204 0.929 . S
H1197 C1206 0.930 . S
H1198 C1208 0.930 1_565 S
H1199 C1211 0.929 . S
H1200 C1214 0.930 . S
H1201 C1216 0.960 . S
H1202 C1216 0.960 . S
H1203 C1216 0.960 . S
C1204 H1196 0.929 . S
C1204 C1205 1.377 . S
C1204 C1206 1.384 . S
C1205 C1204 1.377 . S
C1205 C1211 1.390 . S
C1206 H1197 0.930 . S
C1206 C1204 1.384 . S
C1206 C1207 1.394 . S
C1207 C1206 1.394 . S
C1207 C1208 1.405 . S
C1207 C1212 1.464 1_545 S
C1208 H1198 0.930 1_545 S
C1208 C1207 1.405 . S
C1208 C1211 1.386 . S
H1209 C1225 0.930 . S
H1210 C1226 0.931 . S
C1211 H1199 0.929 . S
C1211 C1205 1.390 . S
C1211 C1208 1.386 . S
C1212 C1207 1.464 1_565 S
C1212 C1214 1.395 . S
C1212 C1215 1.403 . S
H1213 C1219 0.930 . S
C1214 H1200 0.930 . S
C1214 C1212 1.395 . S
C1214 C1217 1.403 . S
C1215 C1212 1.403 . S
C1215 C1216 1.524 . S
C1215 C1219 1.400 . S
C1216 H1201 0.960 . S
C1216 H1202 0.960 . S
C1216 H1203 0.960 . S
C1216 C1215 1.524 . S
C1217 C1214 1.403 . S
C1217 C1218 1.392 . S
C1217 C1221 1.495 . S
C1218 C1217 1.392 . S
C1218 C1219 1.385 . S
C1218 C1220 1.478 . S
C1219 H1213 0.930 . S
C1219 C1215 1.400 . S
C1219 C1218 1.385 . S
C1220 C1218 1.478 . S
C1220 C1222 1.381 . S
C1220 C1226 1.383 . S
C1221 C1217 1.495 . S
C1221 H1227 0.959 . S
C1221 H1228 0.961 . S
C1221 H1229 0.960 . S
C1222 C1220 1.381 . S
C1222 C1223 1.394 . S
C1222 H1230 0.930 . S
C1223 C1222 1.394 . S
C1223 C1224 1.383 . S
C1223 H1231 0.929 . S
C1224 C1223 1.383 . S
C1224 C1225 1.377 . S
C1225 H1209 0.930 . S
C1225 C1224 1.377 . S
C1225 C1226 1.379 . S
C1226 H1210 0.931 . S
C1226 C1220 1.383 . S
C1226 C1225 1.379 . S
H1227 C1221 0.959 . S
H1228 C1221 0.961 . S
H1229 C1221 0.960 . S
H1230 C1222 0.930 . S
H1231 C1223 0.929 . S
H1232 C1240 0.929 . S
H1233 C1242 0.930 . S
H1234 C1244 0.930 . S
H1235 C1247 0.929 . S
H1236 C1250 0.930 . S
H1237 C1252 0.960 . S
H1238 C1252 0.960 . S
H1239 C1252 0.960 . S
C1240 H1232 0.929 . S
C1240 C1241 1.377 . S
C1240 C1242 1.384 . S
C1241 C1240 1.377 . S
C1241 C1247 1.390 . S
C1242 H1233 0.930 . S
C1242 C1240 1.384 . S
C1242 C1243 1.372 . S
C1243 C1242 1.372 . S
C1243 C1244 1.400 . S
C1243 C1248 1.490 . S
C1244 H1234 0.930 . S
C1244 C1243 1.400 . S
C1244 C1247 1.386 . S
H1245 C1261 0.930 . S
H1246 C1262 0.931 . S
C1247 H1235 0.929 . S
C1247 C1241 1.390 . S
C1247 C1244 1.386 . S
C1248 C1243 1.490 . S
C1248 C1250 1.395 . S
C1248 C1251 1.403 . S
H1249 C1255 0.930 . S
C1250 H1236 0.930 . S
C1250 C1248 1.395 . S
C1250 C1253 1.403 . S
C1251 C1248 1.403 . S
C1251 C1252 1.524 . S
C1251 C1255 1.400 . S
C1252 H1237 0.960 . S
C1252 H1238 0.960 . S
C1252 H1239 0.960 . S
C1252 C1251 1.524 . S
C1253 C1250 1.403 . S
C1253 C1254 1.392 . S
C1253 C1257 1.495 . S
C1254 C1253 1.392 . S
C1254 C1255 1.385 . S
C1254 C1256 1.478 . S
C1255 H1249 0.930 . S
C1255 C1251 1.400 . S
C1255 C1254 1.385 . S
C1256 C1254 1.478 . S
C1256 C1258 1.381 . S
C1256 C1262 1.383 . S
C1257 C1253 1.495 . S
C1257 H1263 0.959 . S
C1257 H1264 0.961 . S
C1257 H1265 0.960 . S
C1258 C1256 1.381 . S
C1258 C1259 1.394 . S
C1258 H1266 0.930 . S
C1259 C1258 1.394 . S
C1259 C1260 1.383 . S
C1259 H1267 0.929 . S
C1260 C1259 1.383 . S
C1260 C1261 1.377 . S
C1261 H1245 0.930 . S
C1261 C1260 1.377 . S
C1261 C1262 1.379 . S
C1262 H1246 0.931 . S
C1262 C1256 1.383 . S
C1262 C1261 1.379 . S
H1263 C1257 0.959 . S
H1264 C1257 0.961 . S
H1265 C1257 0.960 . S
H1266 C1258 0.930 . S
H1267 C1259 0.929 . S
H1268 C1276 0.929 . S
H1269 C1278 0.930 . S
H1270 C1280 0.930 . S
H1271 C1283 0.929 . S
H1272 C1286 0.930 . S
H1273 C1288 0.960 . S
H1274 C1288 0.960 . S
H1275 C1288 0.960 . S
C1276 H1268 0.929 . S
C1276 C1277 1.377 . S
C1276 C1278 1.384 . S
C1277 C1276 1.377 . S
C1277 C1283 1.390 . S
C1278 H1269 0.930 . S
C1278 C1276 1.384 . S
C1278 C1279 1.372 . S
C1279 C1278 1.372 . S
C1279 C1280 1.400 . S
C1279 C1284 1.490 . S
C1280 H1270 0.930 . S
C1280 C1279 1.400 . S
C1280 C1283 1.386 . S
H1281 C1297 0.930 . S
H1282 C1298 0.931 . S
C1283 H1271 0.929 . S
C1283 C1277 1.390 . S
C1283 C1280 1.386 . S
C1284 C1279 1.490 . S
C1284 C1286 1.395 . S
C1284 C1287 1.403 . S
H1285 C1291 0.930 . S
C1286 H1272 0.930 . S
C1286 C1284 1.395 . S
C1286 C1289 1.403 . S
C1287 C1284 1.403 . S
C1287 C1288 1.524 . S
C1287 C1291 1.400 . S
C1288 H1273 0.960 . S
C1288 H1274 0.960 . S
C1288 H1275 0.960 . S
C1288 C1287 1.524 . S
C1289 C1286 1.403 . S
C1289 C1290 1.392 . S
C1289 C1293 1.495 . S
C1290 C1289 1.392 . S
C1290 C1291 1.385 . S
C1290 C1292 1.478 . S
C1291 H1285 0.930 . S
C1291 C1287 1.400 . S
C1291 C1290 1.385 . S
C1292 C1290 1.478 . S
C1292 C1294 1.381 . S
C1292 C1298 1.383 . S
C1293 C1289 1.495 . S
C1293 H1299 0.959 . S
C1293 H1300 0.961 . S
C1293 H1301 0.960 . S
C1294 C1292 1.381 . S
C1294 C1295 1.394 . S
C1294 H1302 0.930 . S
C1295 C1294 1.394 . S
C1295 C1296 1.383 . S
C1295 H1303 0.929 1_554 S
C1296 C1295 1.383 . S
C1296 C1297 1.377 . S
C1297 H1281 0.930 . S
C1297 C1296 1.377 . S
C1297 C1298 1.379 . S
C1298 H1282 0.931 . S
C1298 C1292 1.383 . S
C1298 C1297 1.379 . S
H1299 C1293 0.959 . S
H1300 C1293 0.961 . S
H1301 C1293 0.960 . S
H1302 C1294 0.930 . S
H1303 C1295 0.929 1_556 S
H1304 C1312 0.929 . S
H1305 C1314 0.930 . S
H1306 C1316 0.930 . S
H1307 C1319 0.929 . S
H1308 C1322 0.930 . S
H1309 C1324 0.960 . S
H1310 C1324 0.960 . S
H1311 C1324 0.960 . S
C1312 H1304 0.929 . S
C1312 C1313 1.377 . S
C1312 C1314 1.384 . S
C1313 C1312 1.377 . S
C1313 C1319 1.390 1_655 S
C1314 H1305 0.930 . S
C1314 C1312 1.384 . S
C1314 C1315 1.372 1_655 S
C1315 C1314 1.372 1_455 S
C1315 C1316 1.400 . S
C1315 C1320 1.490 . S
C1316 H1306 0.930 . S
C1316 C1315 1.400 . S
C1316 C1319 1.386 . S
H1317 C1333 0.930 . S
H1318 C1334 0.931 . S
C1319 H1307 0.929 . S
C1319 C1313 1.390 1_455 S
C1319 C1316 1.386 . S
C1320 C1315 1.490 . S
C1320 C1322 1.395 . S
C1320 C1323 1.403 . S
H1321 C1327 0.930 . S
C1322 H1308 0.930 . S
C1322 C1320 1.395 . S
C1322 C1325 1.403 . S
C1323 C1320 1.403 . S
C1323 C1324 1.524 . S
C1323 C1327 1.400 . S
C1324 H1309 0.960 . S
C1324 H1310 0.960 . S
C1324 H1311 0.960 . S
C1324 C1323 1.524 . S
C1325 C1322 1.403 . S
C1325 C1326 1.392 . S
C1325 C1329 1.495 . S
C1326 C1325 1.392 . S
C1326 C1327 1.385 . S
C1326 C1328 1.478 . S
C1327 H1321 0.930 . S
C1327 C1323 1.400 . S
C1327 C1326 1.385 . S
C1328 C1326 1.478 . S
C1328 C1330 1.381 . S
C1328 C1334 1.383 . S
C1329 C1325 1.495 . S
C1329 H1335 0.959 . S
C1329 H1336 0.961 . S
C1329 H1337 0.960 . S
C1330 C1328 1.381 . S
C1330 C1331 1.394 . S
C1330 H1338 0.930 . S
C1331 C1330 1.394 . S
C1331 C1332 1.383 . S
C1331 H1339 0.929 . S
C1332 C1331 1.383 . S
C1332 C1333 1.377 . S
C1333 H1317 0.930 . S
C1333 C1332 1.377 . S
C1333 C1334 1.379 . S
C1334 H1318 0.931 . S
C1334 C1328 1.383 . S
C1334 C1333 1.379 . S
H1335 C1329 0.959 . S
H1336 C1329 0.961 . S
H1337 C1329 0.960 . S
H1338 C1330 0.930 . S
H1339 C1331 0.929 . S
H1340 C1348 0.929 . S
H1341 C1350 0.930 . S
H1342 C1352 0.930 . S
H1343 C1355 0.929 . S
H1344 C1358 0.930 . S
H1345 C1360 0.960 . S
H1346 C1360 0.960 . S
H1347 C1360 0.960 . S
C1348 H1340 0.929 . S
C1348 C1349 1.377 . S
C1348 C1350 1.384 . S
C1349 C1348 1.377 . S
C1349 C1355 1.390 . S
C1350 H1341 0.930 . S
C1350 C1348 1.384 . S
C1350 C1351 1.372 . S
C1351 C1350 1.372 . S
C1351 C1352 1.400 . S
C1351 C1356 1.490 . S
C1352 H1342 0.930 . S
C1352 C1351 1.400 . S
C1352 C1355 1.386 . S
H1353 C1369 0.930 . S
H1354 C1370 0.931 . S
C1355 H1343 0.929 . S
C1355 C1349 1.390 . S
C1355 C1352 1.386 . S
C1356 C1351 1.490 . S
C1356 C1358 1.395 . S
C1356 C1359 1.403 . S
H1357 C1363 0.930 . S
C1358 H1344 0.930 . S
C1358 C1356 1.395 . S
C1358 C1361 1.403 . S
C1359 C1356 1.403 . S
C1359 C1360 1.524 . S
C1359 C1363 1.400 . S
C1360 H1345 0.960 . S
C1360 H1346 0.960 . S
C1360 H1347 0.960 . S
C1360 C1359 1.524 . S
C1361 C1358 1.403 . S
C1361 C1362 1.392 . S
C1361 C1365 1.495 . S
C1362 C1361 1.392 . S
C1362 C1363 1.385 . S
C1362 C1364 1.478 . S
C1363 H1357 0.930 . S
C1363 C1359 1.400 . S
C1363 C1362 1.385 . S
C1364 C1362 1.478 . S
C1364 C1366 1.381 . S
C1364 C1370 1.383 . S
C1365 C1361 1.495 . S
C1365 H1371 0.959 . S
C1365 H1372 0.961 . S
C1365 H1373 0.960 . S
C1366 C1364 1.381 . S
C1366 C1367 1.394 . S
C1366 H1374 0.930 . S
C1367 C1366 1.394 . S
C1367 C1368 1.383 . S
C1367 H1375 0.929 . S
C1368 C1367 1.383 . S
C1368 C1369 1.377 . S
C1369 H1353 0.930 . S
C1369 C1368 1.377 . S
C1369 C1370 1.379 . S
C1370 H1354 0.931 . S
C1370 C1364 1.383 . S
C1370 C1369 1.379 . S
H1371 C1365 0.959 . S
H1372 C1365 0.961 . S
H1373 C1365 0.960 . S
H1374 C1366 0.930 . S
H1375 C1367 0.929 . S
H1376 C1384 0.929 1_556 S
H1377 C1386 0.930 . S
H1378 C1388 0.930 . S
H1379 C1391 0.929 . S
H1380 C1394 0.930 . S
H1381 C1396 0.960 . S
H1382 C1396 0.960 . S
H1383 C1396 0.960 . S
C1384 H1376 0.929 1_554 S
C1384 C1385 1.377 . S
C1384 C1386 1.384 . S
C1385 C1384 1.377 . S
C1385 C1391 1.390 . S
C1386 H1377 0.930 . S
C1386 C1384 1.384 . S
C1386 C1387 1.372 . S
C1387 C1386 1.372 . S
C1387 C1388 1.400 . S
C1387 C1392 1.490 . S
C1388 H1378 0.930 . S
C1388 C1387 1.400 . S
C1388 C1391 1.386 . S
H1389 C1405 0.930 . S
H1390 C1406 0.931 . S
C1391 H1379 0.929 . S
C1391 C1385 1.390 . S
C1391 C1388 1.386 . S
C1392 C1387 1.490 . S
C1392 C1394 1.395 . S
C1392 C1395 1.403 . S
H1393 C1399 0.930 . S
C1394 H1380 0.930 . S
C1394 C1392 1.395 . S
C1394 C1397 1.403 . S
C1395 C1392 1.403 . S
C1395 C1396 1.524 . S
C1395 C1399 1.400 . S
C1396 H1381 0.960 . S
C1396 H1382 0.960 . S
C1396 H1383 0.960 . S
C1396 C1395 1.524 . S
C1397 C1394 1.403 . S
C1397 C1398 1.392 . S
C1397 C1401 1.495 . S
C1398 C1397 1.392 . S
C1398 C1399 1.385 . S
C1398 C1400 1.478 . S
C1399 H1393 0.930 . S
C1399 C1395 1.400 . S
C1399 C1398 1.385 . S
C1400 C1398 1.478 . S
C1400 C1402 1.381 . S
C1400 C1406 1.383 . S
C1401 C1397 1.495 . S
C1401 H1407 0.959 . S
C1401 H1408 0.961 . S
C1401 H1409 0.960 . S
C1402 C1400 1.381 . S
C1402 C1403 1.394 . S
C1402 H1410 0.930 . S
C1403 C1402 1.394 . S
C1403 C1404 1.383 . S
C1403 H1411 0.929 . S
C1404 C1403 1.383 . S
C1404 C1405 1.377 . S
C1405 H1389 0.930 . S
C1405 C1404 1.377 . S
C1405 C1406 1.379 . S
C1406 H1390 0.931 . S
C1406 C1400 1.383 . S
C1406 C1405 1.379 . S
H1407 C1401 0.959 . S
H1408 C1401 0.961 . S
H1409 C1401 0.960 . S
H1410 C1402 0.930 . S
H1411 C1403 0.929 . S
H1412 C1420 0.929 . S
H1413 C1422 0.930 . S
H1414 C1424 0.930 . S
H1415 C1427 0.929 . S
H1416 C1430 0.930 . S
H1417 C1432 0.960 . S
H1418 C1432 0.960 . S
H1419 C1432 0.960 . S
C1420 H1412 0.929 . S
C1420 C1421 1.377 . S
C1420 C1422 1.384 . S
C1421 C1420 1.377 . S
C1421 C1427 1.390 . S
C1422 H1413 0.930 . S
C1422 C1420 1.384 . S
C1422 C1423 1.372 . S
C1423 C1422 1.372 . S
C1423 C1424 1.400 . S
C1423 C1428 1.490 . S
C1424 H1414 0.930 . S
C1424 C1423 1.400 . S
C1424 C1427 1.386 . S
H1425 C1441 0.930 . S
H1426 C1442 0.931 . S
C1427 H1415 0.929 . S
C1427 C1421 1.390 . S
C1427 C1424 1.386 . S
C1428 C1423 1.490 . S
C1428 C1430 1.395 . S
C1428 C1431 1.403 . S
H1429 C1435 0.930 . S
C1430 H1416 0.930 . S
C1430 C1428 1.395 . S
C1430 C1433 1.403 . S
C1431 C1428 1.403 . S
C1431 C1432 1.524 . S
C1431 C1435 1.400 . S
C1432 H1417 0.960 . S
C1432 H1418 0.960 . S
C1432 H1419 0.960 . S
C1432 C1431 1.524 . S
C1433 C1430 1.403 . S
C1433 C1434 1.392 . S
C1433 C1437 1.495 . S
C1434 C1433 1.392 . S
C1434 C1435 1.385 . S
C1434 C1436 1.478 . S
C1435 H1429 0.930 . S
C1435 C1431 1.400 . S
C1435 C1434 1.385 . S
C1436 C1434 1.478 . S
C1436 C1438 1.381 . S
C1436 C1442 1.383 . S
C1437 C1433 1.495 . S
C1437 H1443 0.959 . S
C1437 H1444 0.961 . S
C1437 H1445 0.960 . S
C1438 C1436 1.381 . S
C1438 C1439 1.394 . S
C1438 H1446 0.930 . S
C1439 C1438 1.394 . S
C1439 C1440 1.383 . S
C1439 H1447 0.929 . S
C1440 C1439 1.383 . S
C1440 C1441 1.377 . S
C1441 H1425 0.930 . S
C1441 C1440 1.377 . S
C1441 C1442 1.379 . S
C1442 H1426 0.931 . S
C1442 C1436 1.383 . S
C1442 C1441 1.379 . S
H1443 C1437 0.959 . S
H1444 C1437 0.961 . S
H1445 C1437 0.960 . S
H1446 C1438 0.930 . S
H1447 C1439 0.929 . S
H1448 C1456 0.929 . S
H1449 C1458 0.930 . S
H1450 C1460 0.930 . S
H1451 C1463 0.929 . S
H1452 C1466 0.930 . S
H1453 C1468 0.960 . S
H1454 C1468 0.960 . S
H1455 C1468 0.960 . S
C1456 H1448 0.929 . S
C1456 C1457 1.377 . S
C1456 C1458 1.384 . S
C1457 C1456 1.377 . S
C1457 C1463 1.390 1_455 S
C1458 H1449 0.930 . S
C1458 C1456 1.384 . S
C1458 C1459 1.372 1_455 S
C1459 C1458 1.372 1_655 S
C1459 C1460 1.400 . S
C1459 C1464 1.490 . S
C1460 H1450 0.930 . S
C1460 C1459 1.400 . S
C1460 C1463 1.386 . S
H1461 C1477 0.930 . S
H1462 C1478 0.931 . S
C1463 H1451 0.929 . S
C1463 C1457 1.390 1_655 S
C1463 C1460 1.386 . S
C1464 C1459 1.490 . S
C1464 C1466 1.395 . S
C1464 C1467 1.403 . S
H1465 C1471 0.930 . S
C1466 H1452 0.930 . S
C1466 C1464 1.395 . S
C1466 C1469 1.403 . S
C1467 C1464 1.403 . S
C1467 C1468 1.524 . S
C1467 C1471 1.400 . S
C1468 H1453 0.960 . S
C1468 H1454 0.960 . S
C1468 H1455 0.960 . S
C1468 C1467 1.524 . S
C1469 C1466 1.403 . S
C1469 C1470 1.392 . S
C1469 C1473 1.495 . S
C1470 C1469 1.392 . S
C1470 C1471 1.385 . S
C1470 C1472 1.478 . S
C1471 H1465 0.930 . S
C1471 C1467 1.400 . S
C1471 C1470 1.385 . S
C1472 C1470 1.478 . S
C1472 C1474 1.381 . S
C1472 C1478 1.383 . S
C1473 C1469 1.495 . S
C1473 H1479 0.959 . S
C1473 H1480 0.961 . S
C1473 H1481 0.960 . S
C1474 C1472 1.381 . S
C1474 C1475 1.394 . S
C1474 H1482 0.930 . S
C1475 C1474 1.394 . S
C1475 C1476 1.383 . S
C1475 H1483 0.929 . S
C1476 C1475 1.383 . S
C1476 C1477 1.377 . S
C1477 H1461 0.930 . S
C1477 C1476 1.377 . S
C1477 C1478 1.379 . S
C1478 H1462 0.931 . S
C1478 C1472 1.383 . S
C1478 C1477 1.379 . S
H1479 C1473 0.959 . S
H1480 C1473 0.961 . S
H1481 C1473 0.960 . S
H1482 C1474 0.930 . S
H1483 C1475 0.929 . S
H1484 C1492 0.929 . S
H1485 C1494 0.930 . S
H1486 C1496 0.930 . S
H1487 C1499 0.929 . S
H1488 C1502 0.930 . S
H1489 C1504 0.960 . S
H1490 C1504 0.960 . S
H1491 C1504 0.960 . S
C1492 H1484 0.929 . S
C1492 C1493 1.377 . S
C1492 C1494 1.384 . S
C1493 C1492 1.377 . S
C1493 C1499 1.390 . S
C1494 H1485 0.930 . S
C1494 C1492 1.384 . S
C1494 C1495 1.372 . S
C1495 C1494 1.372 . S
C1495 C1496 1.400 . S
C1495 C1500 1.490 . S
C1496 H1486 0.930 . S
C1496 C1495 1.400 . S
C1496 C1499 1.386 . S
H1497 C1513 0.930 . S
H1498 C1514 0.931 . S
C1499 H1487 0.929 . S
C1499 C1493 1.390 . S
C1499 C1496 1.386 . S
C1500 C1495 1.490 . S
C1500 C1502 1.395 . S
C1500 C1503 1.403 . S
H1501 C1507 0.930 . S
C1502 H1488 0.930 . S
C1502 C1500 1.395 . S
C1502 C1505 1.403 . S
C1503 C1500 1.403 . S
C1503 C1504 1.524 . S
C1503 C1507 1.400 . S
C1504 H1489 0.960 . S
C1504 H1490 0.960 . S
C1504 H1491 0.960 . S
C1504 C1503 1.524 . S
C1505 C1502 1.403 . S
C1505 C1506 1.392 . S
C1505 C1509 1.495 . S
C1506 C1505 1.392 . S
C1506 C1507 1.385 . S
C1506 C1508 1.478 . S
C1507 H1501 0.930 . S
C1507 C1503 1.400 . S
C1507 C1506 1.385 . S
C1508 C1506 1.478 . S
C1508 C1510 1.381 . S
C1508 C1514 1.383 . S
C1509 C1505 1.495 . S
C1509 H1515 0.959 . S
C1509 H1516 0.961 . S
C1509 H1517 0.960 . S
C1510 C1508 1.381 . S
C1510 C1511 1.394 . S
C1510 H1518 0.930 . S
C1511 C1510 1.394 . S
C1511 C1512 1.383 . S
C1511 H1519 0.929 . S
C1512 C1511 1.383 . S
C1512 C1513 1.377 . S
C1513 H1497 0.930 . S
C1513 C1512 1.377 . S
C1513 C1514 1.379 . S
C1514 H1498 0.931 . S
C1514 C1508 1.383 . S
C1514 C1513 1.379 . S
H1515 C1509 0.959 . S
H1516 C1509 0.961 . S
H1517 C1509 0.960 . S
H1518 C1510 0.930 . S
H1519 C1511 0.929 . S
H1520 C1528 0.929 . S
H1521 C1530 0.930 . S
H1522 C1532 0.930 . S
H1523 C1535 0.929 . S
H1524 C1538 0.930 . S
H1525 C1540 0.960 . S
H1526 C1540 0.960 . S
H1527 C1540 0.960 . S
C1528 H1520 0.929 . S
C1528 C1529 1.377 . S
C1528 C1530 1.384 . S
C1529 C1528 1.377 . S
C1529 C1535 1.390 . S
C1530 H1521 0.930 . S
C1530 C1528 1.384 . S
C1530 C1531 1.372 . S
C1531 C1530 1.372 . S
C1531 C1532 1.400 . S
C1531 C1536 1.490 . S
C1532 H1522 0.930 . S
C1532 C1531 1.400 . S
C1532 C1535 1.386 . S
H1533 C1549 0.930 . S
H1534 C1550 0.931 . S
C1535 H1523 0.929 . S
C1535 C1529 1.390 . S
C1535 C1532 1.386 . S
C1536 C1531 1.490 . S
C1536 C1538 1.395 . S
C1536 C1539 1.403 . S
H1537 C1543 0.930 . S
C1538 H1524 0.930 . S
C1538 C1536 1.395 . S
C1538 C1541 1.403 . S
C1539 C1536 1.403 . S
C1539 C1540 1.524 . S
C1539 C1543 1.400 . S
C1540 H1525 0.960 . S
C1540 H1526 0.960 . S
C1540 H1527 0.960 . S
C1540 C1539 1.524 . S
C1541 C1538 1.403 . S
C1541 C1542 1.392 . S
C1541 C1545 1.495 . S
C1542 C1541 1.392 . S
C1542 C1543 1.385 . S
C1542 C1544 1.478 . S
C1543 H1537 0.930 . S
C1543 C1539 1.400 . S
C1543 C1542 1.385 . S
C1544 C1542 1.478 . S
C1544 C1546 1.381 . S
C1544 C1550 1.383 . S
C1545 C1541 1.495 . S
C1545 H1551 0.959 . S
C1545 H1552 0.961 . S
C1545 H1553 0.960 . S
C1546 C1544 1.381 . S
C1546 C1547 1.394 . S
C1546 H1554 0.930 . S
C1547 C1546 1.394 . S
C1547 C1548 1.383 1_655 S
C1547 H1555 0.929 . S
C1548 C1547 1.383 1_455 S
C1548 C1549 1.377 . S
C1549 H1533 0.930 . S
C1549 C1548 1.377 . S
C1549 C1550 1.379 1_455 S
C1550 H1534 0.931 . S
C1550 C1544 1.383 . S
C1550 C1549 1.379 1_655 S
H1551 C1545 0.959 . S
H1552 C1545 0.961 . S
H1553 C1545 0.960 . S
H1554 C1546 0.930 . S
H1555 C1547 0.929 . S
H1556 C1564 0.929 . S
H1557 C1566 0.930 . S
H1558 C1568 0.930 . S
H1559 C1571 0.929 . S
H1560 C1574 0.930 . S
H1561 C1576 0.960 . S
H1562 C1576 0.960 . S
H1563 C1576 0.960 . S
C1564 H1556 0.929 . S
C1564 C1565 1.377 . S
C1564 C1566 1.384 . S
C1565 C1564 1.377 . S
C1565 C1571 1.390 . S
C1566 H1557 0.930 . S
C1566 C1564 1.384 . S
C1566 C1567 1.372 . S
C1567 C1566 1.372 . S
C1567 C1568 1.400 . S
C1567 C1572 1.490 . S
C1568 H1558 0.930 . S
C1568 C1567 1.400 . S
C1568 C1571 1.386 . S
H1569 C1585 0.930 . S
H1570 C1586 0.931 . S
C1571 H1559 0.929 . S
C1571 C1565 1.390 . S
C1571 C1568 1.386 . S
C1572 C1567 1.490 . S
C1572 C1574 1.395 . S
C1572 C1575 1.403 . S
H1573 C1579 0.930 . S
C1574 H1560 0.930 . S
C1574 C1572 1.395 . S
C1574 C1577 1.403 . S
C1575 C1572 1.403 . S
C1575 C1576 1.524 . S
C1575 C1579 1.400 . S
C1576 H1561 0.960 . S
C1576 H1562 0.960 . S
C1576 H1563 0.960 . S
C1576 C1575 1.524 . S
C1577 C1574 1.403 . S
C1577 C1578 1.392 . S
C1577 C1581 1.495 . S
C1578 C1577 1.392 . S
C1578 C1579 1.385 . S
C1578 C1580 1.478 . S
C1579 H1573 0.930 . S
C1579 C1575 1.400 . S
C1579 C1578 1.385 . S
C1580 C1578 1.478 . S
C1580 C1582 1.381 . S
C1580 C1586 1.383 . S
C1581 C1577 1.495 . S
C1581 H1587 0.959 . S
C1581 H1588 0.961 . S
C1581 H1589 0.960 . S
C1582 C1580 1.381 . S
C1582 C1583 1.394 . S
C1582 H1590 0.930 . S
C1583 C1582 1.394 . S
C1583 C1584 1.383 . S
C1583 H1591 0.929 . S
C1584 C1583 1.383 . S
C1584 C1585 1.377 . S
C1585 H1569 0.930 . S
C1585 C1584 1.377 . S
C1585 C1586 1.379 . S
C1586 H1570 0.931 . S
C1586 C1580 1.383 . S
C1586 C1585 1.379 . S
H1587 C1581 0.959 . S
H1588 C1581 0.961 . S
H1589 C1581 0.960 . S
H1590 C1582 0.930 . S
H1591 C1583 0.929 . S
H1592 C1600 0.929 . S
H1593 C1602 0.930 . S
H1594 C1604 0.930 . S
H1595 C1607 0.929 . S
H1596 C1610 0.930 . S
H1597 C1612 0.960 . S
H1598 C1612 0.960 . S
H1599 C1612 0.960 . S
C1600 H1592 0.929 . S
C1600 C1601 1.377 . S
C1600 C1602 1.384 . S
C1601 C1600 1.377 . S
C1601 C1607 1.390 . S
C1602 H1593 0.930 . S
C1602 C1600 1.384 . S
C1602 C1603 1.372 . S
C1603 C1602 1.372 . S
C1603 C1604 1.400 . S
C1603 C1608 1.490 . S
C1604 H1594 0.930 . S
C1604 C1603 1.400 . S
C1604 C1607 1.386 . S
H1605 C1621 0.930 . S
H1606 C1622 0.931 . S
C1607 H1595 0.929 . S
C1607 C1601 1.390 . S
C1607 C1604 1.386 . S
C1608 C1603 1.490 . S
C1608 C1610 1.395 . S
C1608 C1611 1.403 . S
H1609 C1615 0.930 . S
C1610 H1596 0.930 . S
C1610 C1608 1.395 . S
C1610 C1613 1.403 . S
C1611 C1608 1.403 . S
C1611 C1612 1.524 . S
C1611 C1615 1.400 . S
C1612 H1597 0.960 . S
C1612 H1598 0.960 . S
C1612 H1599 0.960 . S
C1612 C1611 1.524 . S
C1613 C1610 1.403 . S
C1613 C1614 1.392 . S
C1613 C1617 1.495 . S
C1614 C1613 1.392 . S
C1614 C1615 1.385 . S
C1614 C1616 1.478 . S
C1615 H1609 0.930 . S
C1615 C1611 1.400 . S
C1615 C1614 1.385 . S
C1616 C1614 1.478 . S
C1616 C1618 1.381 . S
C1616 C1622 1.383 . S
C1617 C1613 1.495 . S
C1617 H1623 0.959 . S
C1617 H1624 0.961 . S
C1617 H1625 0.960 . S
C1618 C1616 1.381 . S
C1618 C1619 1.394 . S
C1618 H1626 0.930 . S
C1619 C1618 1.394 . S
C1619 C1620 1.383 . S
C1619 H1627 0.929 . S
C1620 C1619 1.383 . S
C1620 C1621 1.377 . S
C1621 H1605 0.930 . S
C1621 C1620 1.377 . S
C1621 C1622 1.379 . S
C1622 H1606 0.931 . S
C1622 C1616 1.383 . S
C1622 C1621 1.379 . S
H1623 C1617 0.959 . S
H1624 C1617 0.961 . S
H1625 C1617 0.960 . S
H1626 C1618 0.930 . S
H1627 C1619 0.929 . S
H1628 C1636 0.929 . S
H1629 C1638 0.930 . S
H1630 C1640 0.930 . S
H1631 C1643 0.929 . S
H1632 C1646 0.930 . S
H1633 C1648 0.960 . S
H1634 C1648 0.960 . S
H1635 C1648 0.960 . S
C1636 H1628 0.929 . S
C1636 C1637 1.377 . S
C1636 C1638 1.384 . S
C1637 C1636 1.377 . S
C1637 C1643 1.390 . S
C1638 H1629 0.930 . S
C1638 C1636 1.384 . S
C1638 C1639 1.372 . S
C1639 C1638 1.372 . S
C1639 C1640 1.400 . S
C1639 C1644 1.490 . S
C1640 H1630 0.930 . S
C1640 C1639 1.400 . S
C1640 C1643 1.386 . S
H1641 C1657 0.930 . S
H1642 C1658 0.931 . S
C1643 H1631 0.929 . S
C1643 C1637 1.390 . S
C1643 C1640 1.386 . S
C1644 C1639 1.490 . S
C1644 C1646 1.395 . S
C1644 C1647 1.403 . S
H1645 C1651 0.930 . S
C1646 H1632 0.930 . S
C1646 C1644 1.395 . S
C1646 C1649 1.403 . S
C1647 C1644 1.403 . S
C1647 C1648 1.524 . S
C1647 C1651 1.400 . S
C1648 H1633 0.960 . S
C1648 H1634 0.960 . S
C1648 H1635 0.960 . S
C1648 C1647 1.524 . S
C1649 C1646 1.403 . S
C1649 C1650 1.392 . S
C1649 C1653 1.495 . S
C1650 C1649 1.392 . S
C1650 C1651 1.385 . S
C1650 C1652 1.478 . S
C1651 H1645 0.930 . S
C1651 C1647 1.400 . S
C1651 C1650 1.385 . S
C1652 C1650 1.478 . S
C1652 C1654 1.381 . S
C1652 C1658 1.383 . S
C1653 C1649 1.495 . S
C1653 H1659 0.959 . S
C1653 H1660 0.961 . S
C1653 H1661 0.960 . S
C1654 C1652 1.381 . S
C1654 C1655 1.394 . S
C1654 H1662 0.930 . S
C1655 C1654 1.394 . S
C1655 C1656 1.383 . S
C1655 H1663 0.929 . S
C1656 C1655 1.383 . S
C1656 C1657 1.377 . S
C1657 H1641 0.930 . S
C1657 C1656 1.377 . S
C1657 C1658 1.379 . S
C1658 H1642 0.931 . S
C1658 C1652 1.383 . S
C1658 C1657 1.379 . S
H1659 C1653 0.959 . S
H1660 C1653 0.961 . S
H1661 C1653 0.960 . S
H1662 C1654 0.930 . S
H1663 C1655 0.929 . S
H1664 C1672 0.929 . S
H1665 C1674 0.930 . S
H1666 C1676 0.930 . S
H1667 C1679 0.929 . S
H1668 C1682 0.930 . S
H1669 C1684 0.960 . S
H1670 C1684 0.960 . S
H1671 C1684 0.960 . S
C1672 H1664 0.929 . S
C1672 C1673 1.377 . S
C1672 C1674 1.384 . S
C1673 C1672 1.377 . S
C1673 C1679 1.390 . S
C1674 H1665 0.930 . S
C1674 C1672 1.384 . S
C1674 C1675 1.372 . S
C1675 C1674 1.372 . S
C1675 C1676 1.400 . S
C1675 C1680 1.490 . S
C1676 H1666 0.930 . S
C1676 C1675 1.400 . S
C1676 C1679 1.386 . S
H1677 C1693 0.930 . S
H1678 C1694 0.931 . S
C1679 H1667 0.929 . S
C1679 C1673 1.390 . S
C1679 C1676 1.386 . S
C1680 C1675 1.490 . S
C1680 C1682 1.395 . S
C1680 C1683 1.403 . S
H1681 C1687 0.930 . S
C1682 H1668 0.930 . S
C1682 C1680 1.395 . S
C1682 C1685 1.403 . S
C1683 C1680 1.403 . S
C1683 C1684 1.524 . S
C1683 C1687 1.400 . S
C1684 H1669 0.960 . S
C1684 H1670 0.960 . S
C1684 H1671 0.960 . S
C1684 C1683 1.524 . S
C1685 C1682 1.403 . S
C1685 C1686 1.392 . S
C1685 C1689 1.495 . S
C1686 C1685 1.392 . S
C1686 C1687 1.385 . S
C1686 C1688 1.478 . S
C1687 H1681 0.930 . S
C1687 C1683 1.400 . S
C1687 C1686 1.385 . S
C1688 C1686 1.478 . S
C1688 C1690 1.381 . S
C1688 C1694 1.383 . S
C1689 C1685 1.495 . S
C1689 H1695 0.959 . S
C1689 H1696 0.961 . S
C1689 H1697 0.960 . S
C1690 C1688 1.381 . S
C1690 C1691 1.394 1_455 S
C1690 H1698 0.930 . S
C1691 C1690 1.394 1_655 S
C1691 C1692 1.383 . S
C1691 H1699 0.929 . S
C1692 C1691 1.383 . S
C1692 C1693 1.377 1_655 S
C1693 H1677 0.930 . S
C1693 C1692 1.377 1_455 S
C1693 C1694 1.379 . S
C1694 H1678 0.931 . S
C1694 C1688 1.383 . S
C1694 C1693 1.379 . S
H1695 C1689 0.959 . S
H1696 C1689 0.961 . S
H1697 C1689 0.960 . S
H1698 C1690 0.930 . S
H1699 C1691 0.929 . S
H1700 C1708 0.929 . S
H1701 C1710 0.930 . S
H1702 C1712 0.930 . S
H1703 C1715 0.929 . S
H1704 C1718 0.930 . S
H1705 C1720 0.960 . S
H1706 C1720 0.960 . S
H1707 C1720 0.960 . S
C1708 H1700 0.929 . S
C1708 C1709 1.377 . S
C1708 C1710 1.384 . S
C1709 C1708 1.377 . S
C1709 C1715 1.390 . S
C1710 H1701 0.930 . S
C1710 C1708 1.384 . S
C1710 C1711 1.372 . S
C1711 C1710 1.372 . S
C1711 C1712 1.400 . S
C1711 C1716 1.490 . S
C1712 H1702 0.930 . S
C1712 C1711 1.400 . S
C1712 C1715 1.386 . S
H1713 C1729 0.930 . S
H1714 C1730 0.931 . S
C1715 H1703 0.929 . S
C1715 C1709 1.390 . S
C1715 C1712 1.386 . S
C1716 C1711 1.490 . S
C1716 C1718 1.395 . S
C1716 C1719 1.403 . S
H1717 C1723 0.930 . S
C1718 H1704 0.930 . S
C1718 C1716 1.395 . S
C1718 C1721 1.403 . S
C1719 C1716 1.403 . S
C1719 C1720 1.524 . S
C1719 C1723 1.400 . S
C1720 H1705 0.960 . S
C1720 H1706 0.960 . S
C1720 H1707 0.960 . S
C1720 C1719 1.524 . S
C1721 C1718 1.403 . S
C1721 C1722 1.392 . S
C1721 C1725 1.495 . S
C1722 C1721 1.392 . S
C1722 C1723 1.385 . S
C1722 C1724 1.478 . S
C1723 H1717 0.930 . S
C1723 C1719 1.400 . S
C1723 C1722 1.385 . S
C1724 C1722 1.478 . S
C1724 C1726 1.381 . S
C1724 C1730 1.383 . S
C1725 C1721 1.495 . S
C1725 H1731 0.959 . S
C1725 H1732 0.961 . S
C1725 H1733 0.960 . S
C1726 C1724 1.381 . S
C1726 C1727 1.394 . S
C1726 H1734 0.930 . S
C1727 C1726 1.394 . S
C1727 C1728 1.383 . S
C1727 H1735 0.929 . S
C1728 C1727 1.383 . S
C1728 C1729 1.377 . S
C1729 H1713 0.930 . S
C1729 C1728 1.377 . S
C1729 C1730 1.379 . S
C1730 H1714 0.931 . S
C1730 C1724 1.383 . S
C1730 C1729 1.379 . S
H1731 C1725 0.959 . S
H1732 C1725 0.961 . S
H1733 C1725 0.960 . S
H1734 C1726 0.930 . S
H1735 C1727 0.929 . S
H1736 C1744 0.929 . S
H1737 C1746 0.930 . S
H1738 C1748 0.930 . S
H1739 C1751 0.929 . S
H1740 C1754 0.930 . S
H1741 C1756 0.960 . S
H1742 C1756 0.960 . S
H1743 C1756 0.960 . S
C1744 H1736 0.929 . S
C1744 C1745 1.377 . S
C1744 C1746 1.384 . S
C1745 C1744 1.377 . S
C1745 C1751 1.390 . S
C1746 H1737 0.930 . S
C1746 C1744 1.384 . S
C1746 C1747 1.372 . S
C1747 C1746 1.372 . S
C1747 C1748 1.400 . S
C1747 C1752 1.490 . S
C1748 H1738 0.930 . S
C1748 C1747 1.400 . S
C1748 C1751 1.386 . S
H1749 C1765 0.930 . S
H1750 C1766 0.931 . S
C1751 H1739 0.929 . S
C1751 C1745 1.390 . S
C1751 C1748 1.386 . S
C1752 C1747 1.490 . S
C1752 C1754 1.395 . S
C1752 C1755 1.403 . S
H1753 C1759 0.930 . S
C1754 H1740 0.930 . S
C1754 C1752 1.395 . S
C1754 C1757 1.403 . S
C1755 C1752 1.403 . S
C1755 C1756 1.524 . S
C1755 C1759 1.400 . S
C1756 H1741 0.960 . S
C1756 H1742 0.960 . S
C1756 H1743 0.960 . S
C1756 C1755 1.524 . S
C1757 C1754 1.403 . S
C1757 C1758 1.392 . S
C1757 C1761 1.495 . S
C1758 C1757 1.392 . S
C1758 C1759 1.385 . S
C1758 C1760 1.478 . S
C1759 H1753 0.930 . S
C1759 C1755 1.400 . S
C1759 C1758 1.385 . S
C1760 C1758 1.478 . S
C1760 C1762 1.381 . S
C1760 C1766 1.383 . S
C1761 C1757 1.495 . S
C1761 H1767 0.959 . S
C1761 H1768 0.961 . S
C1761 H1769 0.960 . S
C1762 C1760 1.381 . S
C1762 C1763 1.394 . S
C1762 H1770 0.930 . S
C1763 C1762 1.394 . S
C1763 C1764 1.383 . S
C1763 H1771 0.929 . S
C1764 C1763 1.383 . S
C1764 C1765 1.377 . S
C1765 H1749 0.930 . S
C1765 C1764 1.377 . S
C1765 C1766 1.379 . S
C1766 H1750 0.931 . S
C1766 C1760 1.383 . S
C1766 C1765 1.379 . S
H1767 C1761 0.959 . S
H1768 C1761 0.961 . S
H1769 C1761 0.960 . S
H1770 C1762 0.930 . S
H1771 C1763 0.929 . S
H1772 C1780 0.929 . S
H1773 C1782 0.930 . S
H1774 C1784 0.930 . S
H1775 C1787 0.929 . S
H1776 C1790 0.930 . S
H1777 C1792 0.960 . S
H1778 C1792 0.960 . S
H1779 C1792 0.960 . S
C1780 H1772 0.929 . S
C1780 C1781 1.377 . S
C1780 C1782 1.384 . S
C1781 C1780 1.377 . S
C1781 C1787 1.390 . S
C1782 H1773 0.930 . S
C1782 C1780 1.384 . S
C1782 C1783 1.372 . S
C1783 C1782 1.372 . S
C1783 C1784 1.400 . S
C1783 C1788 1.490 . S
C1784 H1774 0.930 . S
C1784 C1783 1.400 . S
C1784 C1787 1.386 . S
H1785 C1801 0.930 . S
H1786 C1802 0.931 . S
C1787 H1775 0.929 . S
C1787 C1781 1.390 . S
C1787 C1784 1.386 . S
C1788 C1783 1.490 . S
C1788 C1790 1.395 . S
C1788 C1791 1.403 . S
H1789 C1795 0.930 . S
C1790 H1776 0.930 . S
C1790 C1788 1.395 . S
C1790 C1793 1.403 . S
C1791 C1788 1.403 . S
C1791 C1792 1.524 . S
C1791 C1795 1.400 . S
C1792 H1777 0.960 . S
C1792 H1778 0.960 . S
C1792 H1779 0.960 . S
C1792 C1791 1.524 . S
C1793 C1790 1.403 . S
C1793 C1794 1.392 . S
C1793 C1797 1.495 . S
C1794 C1793 1.392 . S
C1794 C1795 1.385 . S
C1794 C1796 1.478 . S
C1795 H1789 0.930 . S
C1795 C1791 1.400 . S
C1795 C1794 1.385 . S
C1796 C1794 1.478 . S
C1796 C1798 1.381 . S
C1796 C1802 1.383 . S
C1797 C1793 1.495 . S
C1797 H1803 0.959 . S
C1797 H1804 0.961 . S
C1797 H1805 0.960 . S
C1798 C1796 1.381 . S
C1798 C1799 1.394 . S
C1798 H1806 0.930 . S
C1799 C1798 1.394 . S
C1799 C1800 1.383 . S
C1799 H1807 0.929 . S
C1800 C1799 1.383 . S
C1800 C1801 1.377 . S
C1801 H1785 0.930 . S
C1801 C1800 1.377 . S
C1801 C1802 1.379 . S
C1802 H1786 0.931 . S
C1802 C1796 1.383 . S
C1802 C1801 1.379 . S
H1803 C1797 0.959 . S
H1804 C1797 0.961 . S
H1805 C1797 0.960 . S
H1806 C1798 0.930 . S
H1807 C1799 0.929 . S
H1808 C1816 0.929 . S
H1809 C1818 0.930 . S
H1810 C1820 0.930 . S
H1811 C1823 0.929 . S
H1812 C1826 0.930 . S
H1813 C1828 0.960 . S
H1814 C1828 0.960 . S
H1815 C1828 0.960 . S
C1816 H1808 0.929 . S
C1816 C1817 1.377 . S
C1816 C1818 1.384 . S
C1817 C1816 1.377 . S
C1817 C1823 1.390 . S
C1818 H1809 0.930 . S
C1818 C1816 1.384 . S
C1818 C1819 1.372 . S
C1819 C1818 1.372 . S
C1819 C1820 1.400 . S
C1819 C1824 1.490 . S
C1820 H1810 0.930 . S
C1820 C1819 1.400 . S
C1820 C1823 1.386 . S
H1821 C1837 0.930 . S
H1822 C1838 0.931 . S
C1823 H1811 0.929 . S
C1823 C1817 1.390 . S
C1823 C1820 1.386 . S
C1824 C1819 1.490 . S
C1824 C1826 1.395 . S
C1824 C1827 1.403 . S
H1825 C1831 0.930 . S
C1826 H1812 0.930 . S
C1826 C1824 1.395 . S
C1826 C1829 1.403 . S
C1827 C1824 1.403 . S
C1827 C1828 1.524 . S
C1827 C1831 1.400 . S
C1828 H1813 0.960 . S
C1828 H1814 0.960 . S
C1828 H1815 0.960 . S
C1828 C1827 1.524 . S
C1829 C1826 1.403 . S
C1829 C1830 1.392 . S
C1829 C1833 1.495 . S
C1830 C1829 1.392 . S
C1830 C1831 1.385 . S
C1830 C1832 1.478 . S
C1831 H1825 0.930 . S
C1831 C1827 1.400 . S
C1831 C1830 1.385 . S
C1832 C1830 1.478 . S
C1832 C1834 1.381 . S
C1832 C1838 1.383 . S
C1833 C1829 1.495 . S
C1833 H1839 0.959 . S
C1833 H1840 0.961 . S
C1833 H1841 0.960 . S
C1834 C1832 1.381 . S
C1834 C1835 1.394 . S
C1834 H1842 0.930 . S
C1835 C1834 1.394 . S
C1835 C1836 1.383 . S
C1835 H1843 0.929 . S
C1836 C1835 1.383 . S
C1836 C1837 1.377 . S
C1837 H1821 0.930 . S
C1837 C1836 1.377 . S
C1837 C1838 1.379 . S
C1838 H1822 0.931 . S
C1838 C1832 1.383 . S
C1838 C1837 1.379 . S
H1839 C1833 0.959 . S
H1840 C1833 0.961 . S
H1841 C1833 0.960 . S
H1842 C1834 0.930 . S
H1843 C1835 0.929 . S
H1844 C1852 0.929 . S
H1845 C1854 0.930 . S
H1846 C1856 0.930 . S
H1847 C1859 0.929 . S
H1848 C1862 0.930 . S
H1849 C1864 0.960 . S
H1850 C1864 0.960 . S
H1851 C1864 0.960 . S
C1852 H1844 0.929 . S
C1852 C1853 1.377 . S
C1852 C1854 1.384 . S
C1853 C1852 1.377 . S
C1853 C1859 1.390 . S
C1854 H1845 0.930 . S
C1854 C1852 1.384 . S
C1854 C1855 1.372 . S
C1855 C1854 1.372 . S
C1855 C1856 1.400 . S
C1855 C1860 1.490 . S
C1856 H1846 0.930 . S
C1856 C1855 1.400 . S
C1856 C1859 1.386 . S
H1857 C1873 0.930 . S
H1858 C1874 0.931 . S
C1859 H1847 0.929 . S
C1859 C1853 1.390 . S
C1859 C1856 1.386 . S
C1860 C1855 1.490 . S
C1860 C1862 1.395 . S
C1860 C1863 1.403 . S
H1861 C1867 0.930 . S
C1862 H1848 0.930 . S
C1862 C1860 1.395 . S
C1862 C1865 1.403 . S
C1863 C1860 1.403 . S
C1863 C1864 1.524 . S
C1863 C1867 1.400 . S
C1864 H1849 0.960 . S
C1864 H1850 0.960 . S
C1864 H1851 0.960 . S
C1864 C1863 1.524 . S
C1865 C1862 1.403 . S
C1865 C1866 1.392 . S
C1865 C1869 1.495 . S
C1866 C1865 1.392 . S
C1866 C1867 1.385 . S
C1866 C1868 1.478 . S
C1867 H1861 0.930 . S
C1867 C1863 1.400 . S
C1867 C1866 1.385 . S
C1868 C1866 1.478 . S
C1868 C1870 1.381 . S
C1868 C1874 1.383 . S
C1869 C1865 1.495 . S
C1869 H1875 0.959 . S
C1869 H1876 0.961 . S
C1869 H1877 0.960 . S
C1870 C1868 1.381 . S
C1870 C1871 1.394 . S
C1870 H1878 0.930 . S
C1871 C1870 1.394 . S
C1871 C1872 1.383 . S
C1871 H1879 0.929 . S
C1872 C1871 1.383 . S
C1872 C1873 1.377 . S
C1873 H1857 0.930 . S
C1873 C1872 1.377 . S
C1873 C1874 1.379 . S
C1874 H1858 0.931 . S
C1874 C1868 1.383 . S
C1874 C1873 1.379 . S
H1875 C1869 0.959 . S
H1876 C1869 0.961 . S
H1877 C1869 0.960 . S
H1878 C1870 0.930 . S
H1879 C1871 0.929 . S
H1880 C1888 0.929 . S
H1881 C1890 0.930 . S
H1882 C1892 0.930 . S
H1883 C1895 0.929 . S
H1884 C1898 0.930 . S
H1885 C1900 0.960 . S
H1886 C1900 0.960 . S
H1887 C1900 0.960 . S
C1888 H1880 0.929 . S
C1888 C1889 1.377 . S
C1888 C1890 1.384 . S
C1889 C1888 1.377 . S
C1889 C1895 1.390 . S
C1890 H1881 0.930 . S
C1890 C1888 1.384 . S
C1890 C1891 1.372 . S
C1891 C1890 1.372 . S
C1891 C1892 1.400 . S
C1891 C1896 1.490 . S
C1892 H1882 0.930 . S
C1892 C1891 1.400 . S
C1892 C1895 1.386 . S
H1893 C1909 0.930 . S
H1894 C1910 0.931 . S
C1895 H1883 0.929 . S
C1895 C1889 1.390 . S
C1895 C1892 1.386 . S
C1896 C1891 1.490 . S
C1896 C1898 1.395 . S
C1896 C1899 1.403 . S
H1897 C1903 0.930 . S
C1898 H1884 0.930 . S
C1898 C1896 1.395 . S
C1898 C1901 1.403 . S
C1899 C1896 1.403 . S
C1899 C1900 1.524 . S
C1899 C1903 1.400 . S
C1900 H1885 0.960 . S
C1900 H1886 0.960 . S
C1900 H1887 0.960 . S
C1900 C1899 1.524 . S
C1901 C1898 1.403 . S
C1901 C1902 1.392 . S
C1901 C1905 1.495 . S
C1902 C1901 1.392 . S
C1902 C1903 1.385 . S
C1902 C1904 1.478 . S
C1903 H1897 0.930 . S
C1903 C1899 1.400 . S
C1903 C1902 1.385 . S
C1904 C1902 1.478 . S
C1904 C1906 1.381 . S
C1904 C1910 1.383 . S
C1905 C1901 1.495 . S
C1905 H1911 0.959 . S
C1905 H1912 0.961 . S
C1905 H1913 0.960 . S
C1906 C1904 1.381 . S
C1906 C1907 1.394 . S
C1906 H1914 0.930 . S
C1907 C1906 1.394 . S
C1907 C1908 1.383 . S
C1907 H1915 0.929 . S
C1908 C1907 1.383 . S
C1908 C1909 1.377 . S
C1909 H1893 0.930 . S
C1909 C1908 1.377 . S
C1909 C1910 1.379 . S
C1910 H1894 0.931 . S
C1910 C1904 1.383 . S
C1910 C1909 1.379 . S
H1911 C1905 0.959 . S
H1912 C1905 0.961 . S
H1913 C1905 0.960 . S
H1914 C1906 0.930 . S
H1915 C1907 0.929 . S
H1916 C1924 0.929 . S
H1917 C1926 0.930 . S
H1918 C1928 0.930 1_655 S
H1919 C1931 0.929 . S
H1920 C1934 0.930 . S
H1921 C1936 0.960 . S
H1922 C1936 0.960 . S
H1923 C1936 0.960 . S
C1924 H1916 0.929 . S
C1924 C1925 1.377 . S
C1924 C1926 1.384 . S
C1925 C1924 1.377 . S
C1925 C1931 1.390 . S
C1926 H1917 0.930 . S
C1926 C1924 1.384 . S
C1926 C1927 1.372 . S
C1927 C1926 1.372 . S
C1927 C1928 1.400 . S
C1927 C1932 1.490 . S
C1928 H1918 0.930 1_455 S
C1928 C1927 1.400 . S
C1928 C1931 1.386 . S
H1929 C1945 0.930 . S
H1930 C1946 0.931 . S
C1931 H1919 0.929 . S
C1931 C1925 1.390 . S
C1931 C1928 1.386 . S
C1932 C1927 1.490 . S
C1932 C1934 1.395 . S
C1932 C1935 1.403 1_554 S
H1933 C1939 0.930 . S
C1934 H1920 0.930 . S
C1934 C1932 1.395 . S
C1934 C1937 1.403 1_455 S
C1935 C1932 1.403 1_556 S
C1935 C1936 1.524 . S
C1935 C1939 1.400 1_455 S
C1936 H1921 0.960 . S
C1936 H1922 0.960 . S
C1936 H1923 0.960 . S
C1936 C1935 1.524 . S
C1937 C1934 1.403 1_655 S
C1937 C1938 1.392 1_554 S
C1937 C1941 1.495 . S
C1938 C1937 1.392 1_556 S
C1938 C1939 1.385 . S
C1938 C1940 1.478 . S
C1939 H1933 0.930 . S
C1939 C1935 1.400 1_655 S
C1939 C1938 1.385 . S
C1940 C1938 1.478 . S
C1940 C1942 1.381 . S
C1940 C1946 1.383 . S
C1941 C1937 1.495 . S
C1941 H1947 0.959 . S
C1941 H1948 0.961 . S
C1941 H1949 0.960 . S
C1942 C1940 1.381 . S
C1942 C1943 1.394 . S
C1942 H1950 0.930 1_655 S
C1943 C1942 1.394 . S
C1943 C1944 1.383 . S
C1943 H1951 0.929 . S
C1944 C1943 1.383 . S
C1944 C1945 1.377 . S
C1945 H1929 0.930 . S
C1945 C1944 1.377 . S
C1945 C1946 1.379 . S
C1946 H1930 0.931 . S
C1946 C1940 1.383 . S
C1946 C1945 1.379 . S
H1947 C1941 0.959 . S
H1948 C1941 0.961 . S
H1949 C1941 0.960 . S
H1950 C1942 0.930 1_455 S
H1951 C1943 0.929 . S
H1952 C1960 0.929 . S
H1953 C1962 0.930 . S
H1954 C1964 0.930 . S
H1955 C1967 0.929 . S
H1956 C1970 0.930 . S
H1957 C1972 0.960 . S
H1958 C1972 0.960 . S
H1959 C1972 0.960 . S
C1960 H1952 0.929 . S
C1960 C1961 1.377 . S
C1960 C1962 1.384 . S
C1961 C1960 1.377 . S
C1961 C1967 1.390 . S
C1962 H1953 0.930 . S
C1962 C1960 1.384 . S
C1962 C1963 1.372 . S
C1963 C1962 1.372 . S
C1963 C1964 1.400 . S
C1963 C1968 1.490 . S
C1964 H1954 0.930 . S
C1964 C1963 1.400 . S
C1964 C1967 1.386 . S
H1965 C1981 0.930 . S
H1966 C1982 0.931 . S
C1967 H1955 0.929 . S
C1967 C1961 1.390 . S
C1967 C1964 1.386 . S
C1968 C1963 1.490 . S
C1968 C1970 1.395 . S
C1968 C1971 1.403 . S
H1969 C1975 0.930 . S
C1970 H1956 0.930 . S
C1970 C1968 1.395 . S
C1970 C1973 1.403 . S
C1971 C1968 1.403 . S
C1971 C1972 1.524 . S
C1971 C1975 1.400 . S
C1972 H1957 0.960 . S
C1972 H1958 0.960 . S
C1972 H1959 0.960 . S
C1972 C1971 1.524 . S
C1973 C1970 1.403 . S
C1973 C1974 1.392 . S
C1973 C1977 1.495 . S
C1974 C1973 1.392 . S
C1974 C1975 1.385 . S
C1974 C1976 1.478 . S
C1975 H1969 0.930 . S
C1975 C1971 1.400 . S
C1975 C1974 1.385 . S
C1976 C1974 1.478 . S
C1976 C1978 1.381 . S
C1976 C1982 1.383 . S
C1977 C1973 1.495 . S
C1977 H1983 0.959 . S
C1977 H1984 0.961 . S
C1977 H1985 0.960 . S
C1978 C1976 1.381 . S
C1978 C1979 1.394 . S
C1978 H1986 0.930 . S
C1979 C1978 1.394 . S
C1979 C1980 1.383 . S
C1979 H1987 0.929 . S
C1980 C1979 1.383 . S
C1980 C1981 1.377 . S
C1981 H1965 0.930 . S
C1981 C1980 1.377 . S
C1981 C1982 1.379 . S
C1982 H1966 0.931 . S
C1982 C1976 1.383 . S
C1982 C1981 1.379 . S
H1983 C1977 0.959 . S
H1984 C1977 0.961 . S
H1985 C1977 0.960 . S
H1986 C1978 0.930 . S
H1987 C1979 0.929 . S
H1988 C1996 0.929 . S
H1989 C1998 0.930 . S
H1990 C2000 0.930 . S
H1991 C2003 0.929 . S
H1992 C2006 0.930 . S
H1993 C2008 0.960 . S
H1994 C2008 0.960 . S
H1995 C2008 0.960 . S
C1996 H1988 0.929 . S
C1996 C1997 1.377 . S
C1996 C1998 1.384 . S
C1997 C1996 1.377 . S
C1997 C2003 1.390 . S
C1998 H1989 0.930 . S
C1998 C1996 1.384 . S
C1998 C1999 1.372 . S
C1999 C1998 1.372 . S
C1999 C2000 1.400 . S
C1999 C2004 1.490 . S
C2000 H1990 0.930 . S
C2000 C1999 1.400 . S
C2000 C2003 1.386 . S
H2001 C2017 0.930 . S
H2002 C2018 0.931 . S
C2003 H1991 0.929 . S
C2003 C1997 1.390 . S
C2003 C2000 1.386 . S
C2004 C1999 1.490 . S
C2004 C2006 1.395 . S
C2004 C2007 1.403 . S
H2005 C2011 0.930 . S
C2006 H1992 0.930 . S
C2006 C2004 1.395 . S
C2006 C2009 1.403 . S
C2007 C2004 1.403 . S
C2007 C2008 1.524 . S
C2007 C2011 1.400 . S
C2008 H1993 0.960 . S
C2008 H1994 0.960 . S
C2008 H1995 0.960 . S
C2008 C2007 1.524 . S
C2009 C2006 1.403 . S
C2009 C2010 1.392 . S
C2009 C2013 1.495 . S
C2010 C2009 1.392 . S
C2010 C2011 1.385 . S
C2010 C2012 1.478 . S
C2011 H2005 0.930 . S
C2011 C2007 1.400 . S
C2011 C2010 1.385 . S
C2012 C2010 1.478 . S
C2012 C2014 1.381 . S
C2012 C2018 1.383 . S
C2013 C2009 1.495 . S
C2013 H2019 0.959 . S
C2013 H2020 0.961 . S
C2013 H2021 0.960 . S
C2014 C2012 1.381 . S
C2014 C2015 1.394 . S
C2014 H2022 0.930 . S
C2015 C2014 1.394 . S
C2015 C2016 1.383 . S
C2015 H2023 0.929 . S
C2016 C2015 1.383 . S
C2016 C2017 1.377 . S
C2017 H2001 0.930 . S
C2017 C2016 1.377 . S
C2017 C2018 1.379 . S
C2018 H2002 0.931 . S
C2018 C2012 1.383 . S
C2018 C2017 1.379 . S
H2019 C2013 0.959 . S
H2020 C2013 0.961 . S
H2021 C2013 0.960 . S
H2022 C2014 0.930 . S
H2023 C2015 0.929 . S
H2024 C2032 0.929 . S
H2025 C2034 0.930 . S
H2026 C2036 0.930 1_655 S
H2027 C2039 0.929 . S
H2028 C2042 0.930 . S
H2029 C2044 0.960 1_655 S
H2030 C2044 0.960 . S
H2031 C2044 0.960 1_655 S
C2032 H2024 0.929 . S
C2032 C2033 1.377 . S
C2032 C2034 1.384 . S
C2033 C2032 1.377 . S
C2033 C2039 1.390 . S
C2034 H2025 0.930 . S
C2034 C2032 1.384 . S
C2034 C2035 1.372 . S
C2035 C2034 1.372 . S
C2035 C2036 1.400 . S
C2035 C2040 1.490 . S
C2036 H2026 0.930 1_455 S
C2036 C2035 1.400 . S
C2036 C2039 1.386 . S
H2037 C2053 0.930 . S
H2038 C2054 0.931 . S
C2039 H2027 0.929 . S
C2039 C2033 1.390 . S
C2039 C2036 1.386 . S
C2040 C2035 1.490 . S
C2040 C2042 1.395 1_556 S
C2040 C2043 1.403 1_545 S
H2041 C2047 0.930 . S
C2042 H2028 0.930 . S
C2042 C2040 1.395 1_554 S
C2042 C2045 1.414 . S
C2043 C2040 1.403 1_565 S
C2043 C2044 1.524 . S
C2043 C2047 1.400 1_455 S
C2044 H2029 0.960 1_455 S
C2044 H2030 0.960 . S
C2044 H2031 0.960 1_455 S
C2044 C2043 1.524 . S
C2045 C2042 1.414 . S
C2045 C2046 1.382 1_445 S
C2045 C2049 1.495 1_455 S
C2046 C2045 1.382 1_665 S
C2046 C2047 1.385 1_554 S
C2046 C2048 1.478 . S
C2047 H2041 0.930 . S
C2047 C2043 1.400 1_655 S
C2047 C2046 1.385 1_556 S
C2048 C2046 1.478 . S
C2048 C2050 1.381 . S
C2048 C2054 1.383 . S
C2049 C2045 1.495 1_655 S
C2049 H2055 0.959 1_655 S
C2049 H2056 0.962 . S
C2049 H2057 0.959 1_655 S
C2050 C2048 1.381 . S
C2050 C2051 1.394 . S
C2050 H2058 0.930 1_655 S
C2051 C2050 1.394 . S
C2051 C2052 1.383 . S
C2051 H2059 0.929 . S
C2052 C2051 1.383 . S
C2052 C2053 1.377 . S
C2053 H2037 0.930 . S
C2053 C2052 1.377 . S
C2053 C2054 1.379 . S
C2054 H2038 0.931 . S
C2054 C2048 1.383 . S
C2054 C2053 1.379 . S
H2055 C2049 0.959 1_455 S
H2056 C2049 0.962 . S
H2057 C2049 0.959 1_455 S
H2058 C2050 0.930 1_455 S
H2059 C2051 0.929 . S
H2060 C2068 0.929 . S
H2061 C2070 0.930 . S
H2062 C2072 0.930 . S
H2063 C2075 0.929 . S
H2064 C2078 0.930 . S
H2065 C2080 0.960 . S
H2066 C2080 0.960 . S
H2067 C2080 0.960 . S
C2068 H2060 0.929 . S
C2068 C2069 1.377 . S
C2068 C2070 1.384 . S
C2069 C2068 1.377 . S
C2069 C2075 1.390 . S
C2070 H2061 0.930 . S
C2070 C2068 1.384 . S
C2070 C2071 1.372 . S
C2071 C2070 1.372 . S
C2071 C2072 1.400 . S
C2071 C2076 1.490 . S
C2072 H2062 0.930 . S
C2072 C2071 1.400 . S
C2072 C2075 1.386 . S
H2073 C2089 0.930 . S
H2074 C2090 0.931 . S
C2075 H2063 0.929 . S
C2075 C2069 1.390 . S
C2075 C2072 1.386 . S
C2076 C2071 1.490 . S
C2076 C2078 1.395 1_545 S
C2076 C2079 1.403 . S
H2077 C2083 0.930 . S
C2078 H2064 0.930 . S
C2078 C2076 1.395 1_565 S
C2078 C2081 1.403 . S
C2079 C2076 1.403 . S
C2079 C2080 1.524 . S
C2079 C2083 1.400 . S
C2080 H2065 0.960 . S
C2080 H2066 0.960 . S
C2080 H2067 0.960 . S
C2080 C2079 1.524 . S
C2081 C2078 1.403 . S
C2081 C2082 1.392 . S
C2081 C2085 1.495 . S
C2082 C2081 1.392 . S
C2082 C2083 1.385 1_565 S
C2082 C2084 1.478 . S
C2083 H2077 0.930 . S
C2083 C2079 1.400 . S
C2083 C2082 1.385 1_545 S
C2084 C2082 1.478 . S
C2084 C2086 1.381 . S
C2084 C2090 1.383 . S
C2085 C2081 1.495 . S
C2085 H2091 0.959 . S
C2085 H2092 0.961 . S
C2085 H2093 0.960 . S
C2086 C2084 1.381 . S
C2086 C2087 1.394 . S
C2086 H2094 0.930 . S
C2087 C2086 1.394 . S
C2087 C2088 1.383 . S
C2087 H2095 0.929 . S
C2088 C2087 1.383 . S
C2088 C2089 1.377 . S
C2089 H2073 0.930 . S
C2089 C2088 1.377 . S
C2089 C2090 1.379 . S
C2090 H2074 0.931 . S
C2090 C2084 1.383 . S
C2090 C2089 1.379 . S
H2091 C2085 0.959 . S
H2092 C2085 0.961 . S
H2093 C2085 0.960 . S
H2094 C2086 0.930 . S
H2095 C2087 0.929 . S
C377 C18 1.219 . S
C396 C248 1.206 . S
C413 C41 1.218 . S
C432 C271 1.208 . S
C449 C64 1.218 . S
C468 C202 1.207 . S
C485 C87 1.218 . S
C504 C225 1.208 . S
C521 C110 1.215 . S
C540 C340 1.207 . S
C557 C133 1.216 . S
C576 C363 1.208 . S
C593 C156 1.215 . S
C612 C294 1.206 . S
C629 C179 1.217 . S
C648 C317 1.218 . S
C665 C224 0.951 . S
C684 C21 0.918 . S
C701 C247 0.954 . S
C720 C44 0.930 . S
C737 C270 0.956 . S
C756 C67 0.955 . S
C773 C201 0.954 . S
C792 C90 0.971 . S
C809 C113 0.943 . S
C828 C316 0.932 . S
C845 C339 0.948 . S
C864 C136 0.925 . S
C881 C362 0.955 . S
C900 C159 0.948 . S
C917 C293 0.952 . S
C936 C182 0.968 . S
C953 C40 0.949 . S
C972 C205 0.958 . S
C989 C228 0.941 . S
C1008 C63 0.954 . S
C1025 C251 0.952 . S
C1044 C86 0.949 . S
C1061 C274 0.945 . S
C1080 C17 0.932 . S
C1097 C297 0.942 . S
C1116 C132 0.932 . S
C1133 C155 0.955 . S
C1152 C320 0.971 . S
C1169 C178 0.956 . S
C1188 C343 0.964 . S
C1205 C366 0.943 . S
C1224 C109 0.954 . S
C1241 C19 0.820 . S
C1260 C361 0.799 . S
C1277 C42 0.831 . S
C1296 C108 0.813 . S
C1313 C315 0.841 . S
C1332 C65 0.787 . S
C1349 C154 0.835 . S
C1368 C88 0.880 . S
C1385 C111 0.828 . S
C1404 C269 0.804 . S
C1421 C134 0.823 . S
C1440 C16 0.849 . S
C1457 C223 0.828 . S
C1476 C157 0.868 . S
C1493 C62 0.830 . S
C1512 C180 0.838 . S
C1529 C203 0.833 . S
C1548 C177 0.853 . S
C1565 C226 0.832 . S
C1584 C292 0.817 . S
C1601 C131 0.829 . S
C1620 C249 0.844 . S
C1637 C338 0.837 . S
C1656 C272 0.880 . S
C1673 C295 0.816 . S
C1692 C85 0.834 . S
C1709 C318 0.834 . S
C1728 C200 0.806 . S
C1745 C341 0.816 . S
C1764 C39 0.863 . S
C1781 C246 0.832 . S
C1800 C364 0.871 . S
C1817 C20 2.178 . S
C1836 C296 2.182 . S
C1853 C43 2.173 . S
C1872 C135 2.166 . S
C1889 C66 2.173 . S
C1908 C342 2.163 . S
C1925 C181 2.178 . S
C1944 C89 2.184 . S
C1961 C112 2.176 . S
C1980 C204 2.159 . S
C1997 C250 2.173 . S
C2016 C158 2.171 . S
C2033 C227 2.175 . S
C2052 C319 2.159 . S
C2069 C365 2.178 . S
C2088 C273 2.185 . S
