# Generated by pormake.
# Topology snk, (6)-cn, num edge types: 1
# Building blocks:
#     Node 0, Type 0, BuildingBlock: KUMBUR_clean_sbu_0, # of connection points: 6
#     Node 1, Type 0, BuildingBlock: KUMBUR_clean_sbu_0, # of connection points: 6
#     Node 2, Type 0, BuildingBlock: KUMBUR_clean_sbu_0, # of connection points: 6
#     Node 3, Type 0, BuildingBlock: KUMBUR_clean_sbu_0, # of connection points: 6
#     Node 4, Type 0, BuildingBlock: KUMBUR_clean_sbu_0, # of connection points: 6
#     Node 5, Type 0, BuildingBlock: KUMBUR_clean_sbu_0, # of connection points: 6
#     Node 6, Type 0, BuildingBlock: KUMBUR_clean_sbu_0, # of connection points: 6
#     Node 7, Type 0, BuildingBlock: KUMBUR_clean_sbu_0, # of connection points: 6
#     Edge 8, Type (0, 0), BuildingBlock: EZIPEK_clean_linker_0, # of connection points: 2
#     Edge 9, Type (0, 0), BuildingBlock: EZIPEK_clean_linker_0, # of connection points: 2
#     Edge 10, Type (0, 0), BuildingBlock: EZIPEK_clean_linker_0, # of connection points: 2
#     Edge 11, Type (0, 0), BuildingBlock: EZIPEK_clean_linker_0, # of connection points: 2
#     Edge 12, Type (0, 0), BuildingBlock: EZIPEK_clean_linker_0, # of connection points: 2
#     Edge 13, Type (0, 0), BuildingBlock: EZIPEK_clean_linker_0, # of connection points: 2
#     Edge 14, Type (0, 0), BuildingBlock: EZIPEK_clean_linker_0, # of connection points: 2
#     Edge 15, Type (0, 0), BuildingBlock: EZIPEK_clean_linker_0, # of connection points: 2
#     Edge 16, Type (0, 0), BuildingBlock: EZIPEK_clean_linker_0, # of connection points: 2
#     Edge 17, Type (0, 0), BuildingBlock: EZIPEK_clean_linker_0, # of connection points: 2
#     Edge 18, Type (0, 0), BuildingBlock: EZIPEK_clean_linker_0, # of connection points: 2
#     Edge 19, Type (0, 0), BuildingBlock: EZIPEK_clean_linker_0, # of connection points: 2
#     Edge 20, Type (0, 0), BuildingBlock: EZIPEK_clean_linker_0, # of connection points: 2
#     Edge 21, Type (0, 0), BuildingBlock: EZIPEK_clean_linker_0, # of connection points: 2
#     Edge 22, Type (0, 0), BuildingBlock: EZIPEK_clean_linker_0, # of connection points: 2
#     Edge 23, Type (0, 0), BuildingBlock: EZIPEK_clean_linker_0, # of connection points: 2
#     Edge 24, Type (0, 0), BuildingBlock: EZIPEK_clean_linker_0, # of connection points: 2
#     Edge 25, Type (0, 0), BuildingBlock: EZIPEK_clean_linker_0, # of connection points: 2
#     Edge 26, Type (0, 0), BuildingBlock: EZIPEK_clean_linker_0, # of connection points: 2
#     Edge 27, Type (0, 0), BuildingBlock: EZIPEK_clean_linker_0, # of connection points: 2
#     Edge 28, Type (0, 0), BuildingBlock: EZIPEK_clean_linker_0, # of connection points: 2
#     Edge 29, Type (0, 0), BuildingBlock: EZIPEK_clean_linker_0, # of connection points: 2
#     Edge 30, Type (0, 0), BuildingBlock: EZIPEK_clean_linker_0, # of connection points: 2
#     Edge 31, Type (0, 0), BuildingBlock: EZIPEK_clean_linker_0, # of connection points: 2
# Relax obj value: 0.002
# Max RMSD: 0.037
# Mean RMSD: 0.036
data_MOF--net-snk--node1-KUMBUR_clean_sbu_0--edge1-EZIPEK_clean_linker_0
_symmetry_space_group_name_H-M    P1
_symmetry_Int_Tables_number       1
_symmetry_cell_setting            triclinic
loop_
_symmetry_equiv_pos_as_xyz
'x, y, z'
_cell_length_a     26.804817
_cell_length_b     26.869163
_cell_length_c     20.046916
_cell_angle_alpha  88.623224
_cell_angle_beta   88.118824
_cell_angle_gamma 89.869525
loop_
_atom_site_label
_atom_site_type_symbol
_atom_site_fract_x
_atom_site_fract_y
_atom_site_fract_z
_atom_type_partial_charge
Tb0 Tb 0.01832 0.97058 0.46399 0.0
C1 C 0.97085 0.14199 0.6612 0.0
C2 C 0.05085 0.17401 0.69224 0.0
C3 C 0.97522 0.21919 0.72197 0.0
C4 C 0.02186 0.13726 0.66244 0.0
C5 C 0.94671 0.18289 0.69136 0.0
C6 C 0.02723 0.21489 0.72215 0.0
C7 C 0.8681 0.149 0.6591 0.0
N8 N 0.94473 0.10547 0.63262 0.0
C9 C 0.89365 0.10842 0.6318 0.0
C10 C 0.89468 0.18592 0.69019 0.0
Tb11 Tb 0.98846 0.03372 0.60884 0.0
N12 N 0.0429 0.0958 0.63634 0.0
C13 C 0.09333 0.08921 0.63908 0.0
C14 C 0.10264 0.1682 0.69197 0.0
C15 C 0.12398 0.12559 0.66495 0.0
H16 H 0.87215 0.07859 0.61272 0.0
H17 H 0.16395 0.11994 0.66588 0.0
H18 H 0.04883 0.24349 0.74515 0.0
H19 H 0.82778 0.15083 0.65822 0.0
H20 H 0.11029 0.05558 0.62287 0.0
H21 H 0.85845 0.87782 0.36917 0.0
H22 H 0.12628 0.19582 0.71356 0.0
H23 H 0.13617 0.92734 0.48969 0.0
H24 H 0.90246 0.94178 0.42962 0.0
H25 H 0.19008 0.86392 0.43941 0.0
H26 H 0.95762 0.25145 0.74395 0.0
H27 H 0.90717 0.81161 0.3132 0.0
H28 H 0.99153 0.77592 0.28261 0.0
H29 H 0.87484 0.21684 0.71247 0.0
H30 H 0.08231 0.77476 0.29785 0.0
N31 N 0.97268 0.90652 0.42361 0.0
C32 C 0.92269 0.90984 0.41381 0.0
C33 C 0.92583 0.83771 0.34433 0.0
C34 C 0.97753 0.83605 0.35108 0.0
C35 C 0.8982 0.87469 0.37632 0.0
C36 C 0.99976 0.87039 0.39326 0.0
H37 H 0.15601 0.80518 0.35967 0.0
N38 N 0.06972 0.9031 0.44343 0.0
C39 C 0.15085 0.86518 0.42829 0.0
C40 C 0.05031 0.86904 0.40281 0.0
C41 C 0.11965 0.90111 0.45711 0.0
C42 C 0.1316 0.83228 0.38304 0.0
C43 C 0.08073 0.83385 0.36977 0.0
O44 O 0.06867 0.99876 0.39021 0.0
O45 O 0.03103 0.04206 0.51299 0.0
O46 O 0.95388 0.07783 0.52826 0.0
O47 O 0.94848 0.01514 0.45119 0.0
O48 O 0.09033 0.0019 0.48369 0.0
O49 O 0.99311 0.98366 0.36572 0.0
O50 O 0.93881 0.01561 0.68891 0.0
O51 O 0.97457 0.9643 0.55806 0.0
O52 O 0.04394 0.92043 0.54497 0.0
O53 O 0.05289 0.98118 0.62379 0.0
O54 O 0.91505 0.99903 0.59909 0.0
O55 O 0.0181 0.01859 0.70355 0.0
C56 C 0.0788 0.04527 0.50431 0.0
C57 C 0.05677 0.97162 0.28162 0.0
C58 C 0.05503 0.96122 0.16153 0.0
C59 C 0.03545 0.98261 0.22014 0.0
C60 C 0.09423 0.92669 0.16498 0.0
C61 C 0.09886 0.94021 0.2831 0.0
C62 C 0.1164 0.9167 0.22567 0.0
C63 C 0.9348 0.05946 0.47376 0.0
C64 C 0.03748 0.99601 0.34258 0.0
C65 C 0.05939 0.8014 0.32472 0.0
C66 C 0.00774 0.80203 0.31608 0.0
C67 C 0.9274 0.95875 0.56969 0.0
C68 C 0.96437 0.03703 0.79628 0.0
C69 C 0.98577 0.01678 0.85361 0.0
C70 C 0.97699 0.03878 0.91567 0.0
C71 C 0.94754 0.08186 0.92017 0.0
C72 C 0.93244 0.07834 0.80232 0.0
C73 C 0.92494 0.10124 0.86358 0.0
C74 C 0.06265 0.9354 0.60183 0.0
C75 C 0.97396 0.01273 0.73201 0.0
H76 H 0.00478 0.00889 0.21744 0.0
H77 H 0.10909 0.90947 0.1202 0.0
H78 H 0.11881 0.93423 0.32832 0.0
H79 H 0.14809 0.89176 0.22793 0.0
H80 H 0.00898 0.98376 0.85025 0.0
H81 H 0.94095 0.09945 0.96774 0.0
H82 H 0.91256 0.09251 0.76039 0.0
H83 H 0.90094 0.13354 0.86734 0.0
Tb84 Tb 0.28471 0.73799 0.73884 0.0
C85 C 0.08071 0.73429 0.86518 0.0
C86 C 0.04786 0.81575 0.83745 0.0
C87 C 0.99415 0.74302 0.83587 0.0
C88 C 0.08836 0.78463 0.85249 0.0
C89 C 0.0331 0.71321 0.8594 0.0
C90 C 0.00124 0.79448 0.82736 0.0
C91 C 0.06431 0.63786 0.91148 0.0
N92 N 0.11946 0.70669 0.8874 0.0
C93 C 0.11107 0.66046 0.91586 0.0
C94 C 0.02563 0.66373 0.8808 0.0
Tb95 Tb 0.19531 0.7455 0.87853 0.0
N96 N 0.13452 0.80362 0.86077 0.0
C97 C 0.14096 0.85404 0.86377 0.0
C98 C 0.05495 0.86733 0.83559 0.0
C99 C 0.10142 0.88659 0.85061 0.0
H100 H 0.14084 0.64008 0.93913 0.0
H101 H 0.107 0.92646 0.85135 0.0
H102 H 0.96992 0.81816 0.81726 0.0
H103 H 0.05827 0.60042 0.9312 0.0
H104 H 0.17648 0.86979 0.87487 0.0
H105 H 0.3748 0.5589 0.7746 0.0
H106 H 0.02447 0.8925 0.8248 0.0
H107 H 0.33226 0.84734 0.69154 0.0
H108 H 0.30456 0.615 0.75198 0.0
H109 H 0.41565 0.88581 0.67773 0.0
H110 H 0.95757 0.72734 0.8288 0.0
H111 H 0.4596 0.59335 0.78627 0.0
H112 H 0.51641 0.66765 0.77779 0.0
H113 H 0.98955 0.6461 0.8771 0.0
H114 H 0.52771 0.75578 0.74487 0.0
N115 N 0.34791 0.68132 0.75433 0.0
C116 C 0.34097 0.63087 0.75752 0.0
C117 C 0.42869 0.61808 0.77615 0.0
C118 C 0.4363 0.66917 0.76648 0.0
C119 C 0.38095 0.59864 0.76976 0.0
C120 C 0.39477 0.69991 0.7541 0.0
H121 H 0.49097 0.83719 0.70578 0.0
N122 N 0.36017 0.77724 0.72555 0.0
C123 C 0.41211 0.84739 0.69469 0.0
C124 C 0.40128 0.74938 0.73715 0.0
C125 C 0.36491 0.82543 0.70254 0.0
C126 C 0.45458 0.81975 0.71011 0.0
C127 C 0.44945 0.77001 0.73151 0.0
O128 O 0.28217 0.76648 0.63987 0.0
O129 O 0.21181 0.76563 0.77447 0.0
O130 O 0.16649 0.69157 0.80973 0.0
O131 O 0.23667 0.67229 0.74249 0.0
O132 O 0.24872 0.80713 0.70346 0.0
O133 O 0.2866 0.68741 0.65977 0.0
O134 O 0.23305 0.74032 0.97001 0.0
O135 O 0.26659 0.71668 0.84306 0.0
O136 O 0.31616 0.78453 0.81426 0.0
O137 O 0.24313 0.81169 0.86461 0.0
O138 O 0.22368 0.67211 0.90703 0.0
O139 O 0.16221 0.77577 0.96555 0.0
C140 C 0.20746 0.8047 0.73768 0.0
C141 C 0.31374 0.71696 0.55107 0.0
C142 C 0.3149 0.71346 0.42898 0.0
C143 C 0.28879 0.72003 0.49023 0.0
C144 C 0.36647 0.70408 0.42917 0.0
C145 C 0.36523 0.70766 0.55034 0.0
C146 C 0.3914 0.70134 0.48951 0.0
C147 C 0.18958 0.66609 0.76215 0.0
C148 C 0.28444 0.72258 0.61401 0.0
C149 C 0.4906 0.7405 0.74823 0.0
C150 C 0.4841 0.69026 0.76651 0.0
C151 C 0.26606 0.67478 0.87461 0.0
C152 C 0.18224 0.73677 0.06943 0.0
C153 C 0.21521 0.73694 0.12308 0.0
C154 C 0.19994 0.71786 0.18682 0.0
C155 C 0.15162 0.69822 0.19599 0.0
C156 C 0.13425 0.71653 0.08006 0.0
C157 C 0.11922 0.69732 0.14289 0.0
C158 C 0.29231 0.81276 0.85827 0.0
C159 C 0.19725 0.76067 1.00433 0.0
H160 H 0.24892 0.72697 0.49045 0.0
H161 H 0.38729 0.69863 0.38268 0.0
H162 H 0.38503 0.70503 0.59655 0.0
H163 H 0.4311 0.69388 0.48912 0.0
H164 H 0.25228 0.7526 0.11569 0.0
H165 H 0.13903 0.68349 0.24445 0.0
H166 H 0.10802 0.71616 0.04015 0.0
H167 H 0.08208 0.68204 0.15062 0.0
Tb168 Tb 0.5015 0.96081 0.09435 0.0
C169 C 0.50238 0.16263 0.96742 0.0
C170 C 0.42283 0.19355 1.00783 0.0
C171 C 0.49532 0.24728 1.00447 0.0
C172 C 0.45322 0.1545 0.98463 0.0
C173 C 0.52403 0.20956 0.97472 0.0
C174 C 0.44482 0.23924 1.0215 0.0
C175 C 0.59834 0.17844 0.91806 0.0
N176 N 0.52874 0.12405 0.9421 0.0
C177 C 0.57527 0.13194 0.91346 0.0
C178 C 0.57313 0.21703 0.95064 0.0
Tb179 Tb 0.49192 0.04695 0.95428 0.0
N180 N 0.43437 0.1092 0.97261 0.0
C181 C 0.38383 0.10346 0.97018 0.0
C182 C 0.37128 0.1862 1.01278 0.0
C183 C 0.35153 0.14162 0.99098 0.0
H184 H 0.59566 0.10165 0.89079 0.0
H185 H 0.31155 0.13616 0.99142 0.0
H186 H 0.42251 0.26966 0.04061 0.0
H187 H 0.63583 0.18421 0.89766 0.0
H188 H 0.36799 0.06942 0.95306 0.0
H189 H 0.67874 0.87036 0.04381 0.0
H190 H 0.34652 0.2155 1.02981 0.0
H191 H 0.39735 0.91043 0.16434 0.0
H192 H 0.62322 0.94071 0.07109 0.0
H193 H 0.35491 0.82918 0.16343 0.0
H194 H 0.51036 0.2838 1.00991 0.0
H195 H 0.64318 0.78601 0.03223 0.0
H196 H 0.5673 0.73087 0.03995 0.0
H197 H 0.59131 0.25268 0.95511 0.0
H198 H 0.47692 0.72092 0.06141 0.0
N199 N 0.55708 0.89735 0.07489 0.0
C200 C 0.6074 0.90431 0.0669 0.0
C201 C 0.61892 0.81688 0.045 0.0
C202 C 0.56764 0.80978 0.0562 0.0
C203 C 0.63904 0.86435 0.05143 0.0
C204 C 0.53792 0.85093 0.07338 0.0
H205 H 0.39752 0.75696 0.11211 0.0
N206 N 0.46311 0.88499 0.11266 0.0
C207 C 0.39238 0.83313 0.14217 0.0
C208 C 0.48851 0.84471 0.09114 0.0
C209 C 0.41672 0.87919 0.14272 0.0
C210 C 0.41648 0.79248 0.11316 0.0
C211 C 0.46579 0.79766 0.08902 0.0
O212 O 0.47527 0.97143 0.19323 0.0
O213 O 0.47368 0.03295 0.06023 0.0
O214 O 0.54388 0.0797 1.02082 0.0
O215 O 0.56577 0.01232 0.08895 0.0
O216 O 0.42927 0.99114 0.12425 0.0
O217 O 0.55345 0.9608 0.17134 0.0
O218 O 0.52114 0.03653 0.85677 0.0
O219 O 0.51885 0.97366 0.98775 0.0
O220 O 0.44505 0.9311 1.03119 0.0
O221 O 0.42554 0.99939 0.96188 0.0
O222 O 0.56334 0.01438 0.92414 0.0
O223 O 0.44296 0.04962 0.87368 0.0
C224 C 0.43164 0.03309 0.09256 0.0
C225 C 0.52372 0.9444 0.28325 0.0
C226 C 0.51968 0.95122 0.40465 0.0
C227 C 0.51596 0.97299 0.3406 0.0
C228 C 0.53136 0.90038 0.41091 0.0
C229 C 0.53504 0.89359 0.29014 0.0
C230 C 0.53888 0.87178 0.3539 0.0
C231 C 0.57059 0.05935 0.06815 0.0
C232 C 0.51944 0.9692 0.21753 0.0
C233 C 0.49375 0.7573 0.06519 0.0
C234 C 0.54501 0.76312 0.05124 0.0
C235 C 0.5603 0.9715 0.95391 0.0
C236 C 0.47797 0.06915 0.76535 0.0
C237 C 0.48459 0.04253 0.70611 0.0
C238 C 0.48708 0.06753 0.64374 0.0
C239 C 0.48243 0.11961 0.64109 0.0
C240 C 0.4733 0.12113 0.76207 0.0
C241 C 0.47534 0.14616 0.69998 0.0
C242 C 0.41752 0.95392 0.98634 0.0
C243 C 0.47829 0.04135 0.82937 0.0
H244 H 0.50707 0.01229 0.33547 0.0
H245 H 0.53451 0.88293 0.45983 0.0
H246 H 0.54086 0.87099 0.24649 0.0
H247 H 0.54769 0.83257 0.35917 0.0
H248 H 0.48857 0.00234 0.7085 0.0
H249 H 0.4844 0.13959 0.59358 0.0
H250 H 0.4685 0.14221 0.80725 0.0
H251 H 0.4718 0.1863 0.69751 0.0
Tb252 Tb 0.28825 0.26069 0.35784 0.0
C253 C 0.1166 0.25216 0.14134 0.0
C254 C 0.08435 0.16859 0.13627 0.0
C255 C 0.04752 0.23519 0.06968 0.0
C256 C 0.11812 0.20311 0.1613 0.0
C257 C 0.08032 0.26944 0.09699 0.0
C258 C 0.04977 0.18467 0.08899 0.0
C259 C 0.1102 0.35277 0.11322 0.0
N260 N 0.14988 0.28319 0.1678 0.0
C261 C 0.14667 0.33339 0.15505 0.0
C262 C 0.07756 0.32056 0.08281 0.0
Tb263 Tb 0.21803 0.24408 0.21255 0.0
N264 N 0.15295 0.18946 0.20565 0.0
C265 C 0.15482 0.1414 0.22895 0.0
C266 C 0.08558 0.11952 0.16104 0.0
C267 C 0.12059 0.10604 0.20836 0.0
H268 H 0.17231 0.35885 0.17653 0.0
H269 H 0.12237 0.06802 0.22728 0.0
H270 H 0.02362 0.15872 0.06885 0.0
H271 H 0.10786 0.3925 0.10363 0.0
H272 H 0.18427 0.12943 0.26037 0.0
H273 H 0.37961 0.43892 0.33563 0.0
H274 H 0.05933 0.09214 0.14472 0.0
H275 H 0.33326 0.14687 0.39687 0.0
H276 H 0.3129 0.37826 0.31898 0.0
H277 H 0.40775 0.11236 0.44877 0.0
H278 H 0.01962 0.24754 0.03502 0.0
H279 H 0.45628 0.41219 0.39215 0.0
H280 H 0.50422 0.34355 0.44905 0.0
H281 H 0.0498 0.33562 0.04982 0.0
H282 H 0.51179 0.25461 0.47999 0.0
N283 N 0.3529 0.31655 0.35699 0.0
C284 C 0.34704 0.36554 0.33965 0.0
C285 C 0.42764 0.38513 0.38252 0.0
C286 C 0.43285 0.33525 0.40255 0.0
C287 C 0.38459 0.40026 0.35041 0.0
C288 C 0.39467 0.30149 0.38797 0.0
H289 H 0.47694 0.1678 0.47744 0.0
N290 N 0.36 0.22184 0.39279 0.0
C291 C 0.40543 0.15191 0.43774 0.0
C292 C 0.39843 0.25217 0.40646 0.0
C293 C 0.36306 0.1719 0.4081 0.0
C294 C 0.44436 0.18328 0.45396 0.0
C295 C 0.44109 0.23419 0.43871 0.0
O296 O 0.27571 0.24275 0.46053 0.0
O297 O 0.21976 0.22774 0.32092 0.0
O298 O 0.17178 0.29157 0.27907 0.0
O299 O 0.23618 0.32301 0.33932 0.0
O300 O 0.25639 0.19058 0.39404 0.0
O301 O 0.26643 0.31771 0.4219 0.0
O302 O 0.24305 0.26239 0.11399 0.0
O303 O 0.28545 0.27734 0.25116 0.0
O304 O 0.33152 0.21223 0.28911 0.0
O305 O 0.26549 0.1797 0.23508 0.0
O306 O 0.25041 0.31468 0.17726 0.0
O307 O 0.23624 0.18599 0.14764 0.0
C308 C 0.21757 0.1883 0.3589 0.0
C309 C 0.28566 0.30908 0.53641 0.0
C310 C 0.28468 0.31014 0.65842 0.0
C311 C 0.27152 0.28746 0.59892 0.0
C312 C 0.31179 0.3547 0.65508 0.0
C313 C 0.314 0.35313 0.53427 0.0
C314 C 0.32677 0.37576 0.59331 0.0
C315 C 0.18851 0.32368 0.32285 0.0
C316 C 0.26537 0.28875 0.47497 0.0
C317 C 0.4789 0.26759 0.45473 0.0
C318 C 0.47464 0.31818 0.43704 0.0
C319 C 0.2883 0.31708 0.21426 0.0
C320 C 0.22416 0.20374 0.03223 0.0
C321 C 0.24072 0.22924 0.97337 0.0
C322 C 0.22109 0.21749 0.91144 0.0
C323 C 0.1841 0.18087 0.90871 0.0
C324 C 0.18849 0.16578 1.0279 0.0
C325 C 0.16796 0.15523 0.96676 0.0
C326 C 0.3135 0.17883 0.24833 0.0
C327 C 0.24575 0.21605 0.09684 0.0
H328 H 0.24915 0.25385 0.60139 0.0
H329 H 0.32088 0.3733 0.70041 0.0
H330 H 0.32505 0.37097 0.48712 0.0
H331 H 0.34754 0.41028 0.59111 0.0
H332 H 0.26905 0.25785 0.97553 0.0
H333 H 0.16823 0.17179 0.8615 0.0
H334 H 0.17652 0.14404 0.07155 0.0
H335 H 0.13965 0.12685 0.96433 0.0
Tb336 Tb 0.80447 0.25197 0.19243 0.0
C337 C 0.60094 0.25502 0.32491 0.0
C338 C 0.57263 0.33842 0.30082 0.0
C339 C 0.51487 0.26934 0.29643 0.0
C340 C 0.61113 0.30446 0.31514 0.0
C341 C 0.55231 0.2367 0.31844 0.0
C342 C 0.52503 0.32029 0.28769 0.0
C343 C 0.58112 0.15752 0.36229 0.0
N344 N 0.63879 0.22535 0.34463 0.0
C345 C 0.62906 0.17756 0.36685 0.0
C346 C 0.54285 0.18687 0.33642 0.0
Tb347 Tb 0.71814 0.25836 0.33427 0.0
N348 N 0.6578 0.31969 0.32769 0.0
C349 C 0.66598 0.36906 0.33856 0.0
C350 C 0.58238 0.38927 0.30471 0.0
C351 C 0.62867 0.40455 0.32656 0.0
H352 H 0.65888 0.15406 0.38445 0.0
H353 H 0.63592 0.44369 0.33336 0.0
H354 H 0.49511 0.34561 0.2751 0.0
H355 H 0.57389 0.11928 0.37784 0.0
H356 H 0.70123 0.38191 0.35587 0.0
H357 H 0.88763 0.06882 0.21368 0.0
H358 H 0.55368 0.41667 0.29486 0.0
H359 H 0.85852 0.36125 0.14923 0.0
H360 H 0.81956 0.12882 0.19468 0.0
H361 H 0.94157 0.39901 0.16039 0.0
H362 H 0.47726 0.25653 0.29038 0.0
H363 H 0.97283 0.09949 0.23389 0.0
H364 H 0.02866 0.17349 0.252 0.0
H365 H 0.50593 0.17119 0.33284 0.0
H366 H 0.04301 0.26355 0.23785 0.0
N367 N 0.86561 0.19257 0.20078 0.0
C368 C 0.85656 0.14255 0.20143 0.0
C369 C 0.94329 0.12573 0.22293 0.0
C370 C 0.95246 0.17697 0.21989 0.0
C371 C 0.89522 0.10838 0.21207 0.0
C372 C 0.91289 0.20938 0.20491 0.0
H373 H 0.01171 0.34796 0.20065 0.0
N374 N 0.8817 0.28892 0.18221 0.0
C375 C 0.9362 0.35976 0.17093 0.0
C376 C 0.92104 0.25965 0.19711 0.0
C377 C 0.88923 0.33802 0.16436 0.0
C378 C 0.97576 0.33082 0.19369 0.0
C379 C 0.96859 0.27985 0.20591 0.0
O380 O 0.79889 0.28577 0.09735 0.0
O381 O 0.73259 0.27959 0.22951 0.0
O382 O 0.68373 0.21139 0.26302 0.0
O383 O 0.75022 0.19005 0.1914 0.0
O384 O 0.77476 0.32582 0.16874 0.0
O385 O 0.80274 0.20599 0.10866 0.0
O386 O 0.71803 0.22614 0.43134 0.0
O387 O 0.79002 0.22845 0.29655 0.0
O388 O 0.83661 0.2983 0.26729 0.0
O389 O 0.76525 0.32434 0.32537 0.0
O390 O 0.74819 0.18519 0.35966 0.0
O391 O 0.73423 0.3037 0.41503 0.0
C392 C 0.73254 0.32249 0.20049 0.0
C393 C 0.82866 0.24238 1.00392 0.0
C394 C 0.82984 0.25107 0.88259 0.0
C395 C 0.80342 0.24932 0.94412 0.0
C396 C 0.88192 0.24553 0.88124 0.0
C397 C 0.88073 0.2369 1.00214 0.0
C398 C 0.90719 0.23835 0.94076 0.0
C399 C 0.70312 0.18574 0.21344 0.0
C400 C 0.79941 0.24366 0.06694 0.0
C401 C 0.00688 0.24856 0.22774 0.0
C402 C 0.9989 0.19718 0.23454 0.0
C403 C 0.79039 0.18604 0.32747 0.0
C404 C 0.70676 0.27849 0.52396 0.0
C405 C 0.73525 0.27183 0.58112 0.0
C406 C 0.71492 0.28274 0.64451 0.0
C407 C 0.66572 0.30053 0.65034 0.0
C408 C 0.65759 0.29607 0.53027 0.0
C409 C 0.63722 0.307 0.59343 0.0
C410 C 0.81316 0.32745 0.30989 0.0
C411 C 0.73013 0.26744 0.45881 0.0
H412 H 0.76318 0.25398 0.94542 0.0
H413 H 0.90279 0.24679 0.83428 0.0
H414 H 0.90075 0.23194 0.0479 0.0
H415 H 0.94738 0.23415 0.93932 0.0
H416 H 0.77332 0.25822 0.57638 0.0
H417 H 0.64942 0.30915 0.69884 0.0
H418 H 0.63522 0.30138 0.48659 0.0
H419 H 0.59922 0.32048 0.59833 0.0
Tb420 Tb 0.77483 0.75976 0.84045 0.0
C421 C 0.60123 0.74733 0.64298 0.0
C422 C 0.56802 0.66361 0.6452 0.0
C423 C 0.52211 0.73067 0.59153 0.0
C424 C 0.60538 0.69786 0.66155 0.0
C425 C 0.55925 0.76454 0.60843 0.0
C426 C 0.5265 0.68024 0.60985 0.0
C427 C 0.59356 0.84737 0.61004 0.0
N428 N 0.63874 0.77845 0.6582 0.0
C429 C 0.63517 0.82833 0.64249 0.0
C430 C 0.55576 0.81526 0.59211 0.0
Tb431 Tb 0.71013 0.7403 0.69574 0.0
N432 N 0.64715 0.68294 0.69292 0.0
C433 C 0.65456 0.63359 0.70634 0.0
C434 C 0.5741 0.6135 0.66353 0.0
C435 C 0.61773 0.59841 0.69423 0.0
H436 H 0.66408 0.85398 0.65499 0.0
H437 H 0.62405 0.55939 0.70573 0.0
H438 H 0.49754 0.65449 0.59671 0.0
H439 H 0.59103 0.88679 0.59806 0.0
H440 H 0.69011 0.62082 0.72182 0.0
H441 H 0.84276 0.94916 0.80838 0.0
H442 H 0.54623 0.58607 0.65224 0.0
H443 H 0.83319 0.65727 0.89456 0.0
H444 H 0.78785 0.87915 0.78736 0.0
H445 H 0.9016 0.63822 0.96967 0.0
H446 H 0.48966 0.7432 0.56498 0.0
H447 H 0.91359 0.93783 0.88312 0.0
H448 H 0.96052 0.88185 0.96181 0.0
H449 H 0.52382 0.83002 0.56638 0.0
H450 H 0.97503 0.79751 1.00834 0.0
N451 N 0.82914 0.82605 0.844 0.0
C452 C 0.81936 0.87247 0.81793 0.0
C453 C 0.89008 0.90647 0.87287 0.0
C454 C 0.89881 0.85962 0.90183 0.0
C455 C 0.85029 0.91286 0.83044 0.0
C456 C 0.86823 0.81956 0.88453 0.0
H457 H 0.95398 0.70609 1.01031 0.0
N458 N 0.84772 0.7353 0.88876 0.0
C459 C 0.89509 0.67626 0.95313 0.0
C460 C 0.87716 0.77246 0.9091 0.0
C461 C 0.85654 0.68729 0.90969 0.0
C462 C 0.92441 0.71466 0.97626 0.0
C463 C 0.91585 0.76355 0.95395 0.0
O464 O 0.75678 0.73434 0.9388 0.0
O465 O 0.70818 0.72357 0.80274 0.0
O466 O 0.66002 0.78371 0.76247 0.0
O467 O 0.72275 0.82117 0.81769 0.0
O468 O 0.75094 0.68346 0.86575 0.0
O469 O 0.7447 0.81072 0.9089 0.0
O470 O 0.71208 0.75563 0.5922 0.0
O471 O 0.77996 0.77267 0.73113 0.0
O472 O 0.82433 0.71208 0.77884 0.0
O473 O 0.76247 0.67763 0.7156 0.0
O474 O 0.74129 0.81326 0.66608 0.0
O475 O 0.73945 0.68596 0.63173 0.0
C476 C 0.71015 0.68151 0.83438 0.0
C477 C 0.76351 0.79427 1.02241 0.0
C478 C 0.76807 0.7822 0.14315 0.0
C479 C 0.75049 0.76729 0.08144 0.0
C480 C 0.7992 0.82395 0.14556 0.0
C481 C 0.7938 0.83672 1.02604 0.0
C482 C 0.81188 0.85108 0.08721 0.0
C483 C 0.67511 0.81874 0.80279 0.0
C484 C 0.74372 0.77839 0.95839 0.0
C485 C 0.94515 0.80353 0.97393 0.0
C486 C 0.93691 0.85151 0.94742 0.0
C487 C 0.78321 0.81263 0.69473 0.0
C488 C 0.71566 0.68745 0.51842 0.0
C489 C 0.72643 0.70956 0.45533 0.0
C490 C 0.71731 0.68382 0.39683 0.0
C491 C 0.69748 0.63557 0.40169 0.0
C492 C 0.69482 0.63948 0.52244 0.0
C493 C 0.68579 0.61379 0.46424 0.0
C494 C 0.80892 0.67806 0.73703 0.0
C495 C 0.73219 0.71289 0.57816 0.0
H496 H 0.72642 0.73501 0.07953 0.0
H497 H 0.81314 0.83581 0.19275 0.0
H498 H 0.8032 0.85913 0.98192 0.0
H499 H 0.8354 0.88365 0.08945 0.0
H500 H 0.74314 0.7463 0.45163 0.0
H501 H 0.69104 0.61492 0.35704 0.0
H502 H 0.68677 0.62128 0.57027 0.0
H503 H 0.67031 0.57662 0.46767 0.0
Tb504 Tb 0.49403 0.46663 0.96152 0.0
C505 C 0.49016 0.64649 0.16528 0.0
C506 C 0.57059 0.68688 0.16497 0.0
C507 C 0.49938 0.72455 0.22271 0.0
C508 C 0.53973 0.64744 0.14619 0.0
C509 C 0.46896 0.68532 0.20304 0.0
C510 C 0.5502 0.72528 0.20378 0.0
C511 C 0.39019 0.64228 0.20178 0.0
N512 N 0.46306 0.60654 0.14834 0.0
C513 C 0.41357 0.60376 0.16682 0.0
C514 C 0.4181 0.68308 0.22062 0.0
Tb515 Tb 0.50798 0.53924 0.11101 0.0
N516 N 0.55828 0.60817 0.11217 0.0
C517 C 0.60782 0.60669 0.0943 0.0
C518 C 0.62096 0.68623 0.1445 0.0
C519 C 0.63955 0.64611 0.10838 0.0
H520 H 0.39212 0.57147 0.1559 0.0
H521 H 0.67868 0.64465 0.09338 0.0
H522 H 0.57318 0.75601 0.21839 0.0
H523 H 0.35098 0.63977 0.2158 0.0
H524 H 0.62332 0.57428 0.07131 0.0
H525 H 0.32891 0.35298 0.98018 0.0
H526 H 0.64572 0.71619 0.1567 0.0
H527 H 0.61092 0.43989 0.91189 0.0
H528 H 0.38197 0.42397 1.00564 0.0
H529 H 0.65406 0.37471 0.84825 0.0
H530 H 0.48392 0.75464 0.25196 0.0
H531 H 0.36279 0.28611 0.90891 0.0
H532 H 0.43594 0.25109 0.84311 0.0
H533 H 0.40016 0.71233 0.24902 0.0
H534 H 0.52487 0.25645 0.80843 0.0
N535 N 0.44748 0.39489 0.95966 0.0
C536 C 0.39846 0.39323 0.98022 0.0
C537 C 0.38687 0.31615 0.92314 0.0
C538 C 0.43695 0.31806 0.90143 0.0
C539 C 0.36777 0.35358 0.96372 0.0
C540 C 0.46666 0.3579 0.92191 0.0
H541 H 0.60719 0.30113 0.81298 0.0
N542 N 0.54127 0.40227 0.91898 0.0
C543 C 0.61501 0.37048 0.86274 0.0
C544 C 0.51569 0.36159 0.90108 0.0
C545 C 0.59047 0.40732 0.89962 0.0
C546 C 0.58847 0.32912 0.84275 0.0
C547 C 0.53789 0.32461 0.86106 0.0
O548 O 0.50597 0.49633 0.8641 0.0
O549 O 0.52934 0.53089 1.00648 0.0
O550 O 0.45542 0.57827 0.04217 0.0
O551 O 0.42715 0.50801 0.99123 0.0
O552 O 0.55445 0.51171 0.91498 0.0
O553 O 0.43255 0.47404 0.89899 0.0
O554 O 0.4918 0.51819 0.21128 0.0
O555 O 0.47362 0.47461 0.06745 0.0
O556 O 0.54678 0.42562 1.02426 0.0
O557 O 0.57269 0.49002 0.09014 0.0
O558 O 0.44681 0.49591 0.15814 0.0
O559 O 0.56791 0.52797 0.17513 0.0
C560 C 0.56027 0.54474 0.95918 0.0
C561 C 0.45366 0.46479 0.78347 0.0
C562 C 0.46857 0.46444 0.66271 0.0
C563 C 0.47379 0.48722 0.72446 0.0
C564 C 0.44515 0.41792 0.66055 0.0
C565 C 0.42863 0.4191 0.7799 0.0
C566 C 0.4258 0.39519 0.71911 0.0
C567 C 0.42376 0.55618 1.0017 0.0
C568 C 0.46009 0.48928 0.84782 0.0
C569 C 0.50868 0.28496 0.8398 0.0
C570 C 0.4581 0.28189 0.85954 0.0
C571 C 0.44253 0.46171 0.11528 0.0
C572 C 0.54882 0.54603 0.28913 0.0
C573 C 0.52974 0.52707 0.35077 0.0
C574 C 0.53746 0.55271 0.40988 0.0
C575 C 0.56281 0.59832 0.40692 0.0
C576 C 0.57666 0.59026 0.2878 0.0
C577 C 0.58215 0.617 0.34592 0.0
C578 C 0.57676 0.44328 0.06977 0.0
C579 C 0.53846 0.51952 0.22731 0.0
H580 H 0.4931 0.52252 0.72627 0.0
H581 H 0.4419 0.39932 0.61354 0.0
H582 H 0.41133 0.40175 0.82385 0.0
H583 H 0.40825 0.35905 0.7174 0.0
H584 H 0.50919 0.49232 0.35295 0.0
H585 H 0.56844 0.61881 0.45196 0.0
H586 H 0.59438 0.60415 0.24215 0.0
H587 H 0.60215 0.65193 0.34371 0.0
Tb588 Tb 0.00159 0.45389 0.60463 0.0
C589 C 0.00669 0.6574 0.44874 0.0
C590 C 0.92687 0.6943 0.47704 0.0
C591 C 1.00026 0.74653 0.46282 0.0
C592 C 0.95736 0.6521 0.46713 0.0
C593 C 0.02877 0.70483 0.4446 0.0
C594 C 0.94887 0.74168 0.47633 0.0
C595 C 0.10563 0.66561 0.4077 0.0
N596 N 0.03382 0.61564 0.43815 0.0
C597 C 0.08213 0.61934 0.41392 0.0
C598 C 0.07934 0.70826 0.42565 0.0
Tb599 Tb 0.99566 0.541 0.4646 0.0
N600 N 0.93918 0.60539 0.47469 0.0
C601 C 0.88904 0.5985 0.48522 0.0
C602 C 0.87569 0.68733 0.48919 0.0
C603 C 0.8566 0.63908 0.49248 0.0
H604 H 0.10379 0.58695 0.40127 0.0
H605 H 0.81713 0.63296 0.50235 0.0
H606 H 0.92677 0.77448 0.48731 0.0
H607 H 0.14449 0.66814 0.39146 0.0
H608 H 0.87393 0.56191 0.49119 0.0
H609 H 0.18539 0.3722 0.5752 0.0
H610 H 0.85083 0.71871 0.49672 0.0
H611 H 0.89138 0.40061 0.64236 0.0
H612 H 0.12522 0.43939 0.60043 0.0
H613 H 0.85338 0.31799 0.62791 0.0
H614 H 0.01746 0.78257 0.46613 0.0
H615 H 0.15512 0.28685 0.55678 0.0
H616 H 0.08251 0.22787 0.55429 0.0
H617 H 0.09887 0.74313 0.42635 0.0
H618 H 0.9913 0.21456 0.56085 0.0
N619 N 0.06137 0.39366 0.59097 0.0
C620 C 0.11149 0.40264 0.59109 0.0
C621 C 0.1286 0.31634 0.56738 0.0
C622 C 0.07732 0.3068 0.57199 0.0
C623 C 0.14578 0.36441 0.57792 0.0
C624 C 0.04447 0.34655 0.58536 0.0
H625 H 0.90534 0.2486 0.58633 0.0
N626 N 0.9642 0.37724 0.61015 0.0
C627 C 0.89305 0.32319 0.61906 0.0
C628 C 0.99411 0.338 0.59544 0.0
C629 C 0.91478 0.36981 0.62738 0.0
C630 C 0.92261 0.2838 0.59655 0.0
C631 C 0.97418 0.29029 0.58743 0.0
O632 O 0.96717 0.45907 0.70005 0.0
O633 O 0.97481 0.527 0.56993 0.0
O634 O 0.04314 0.57549 0.53678 0.0
O635 O 0.06368 0.50753 0.6058 0.0
O636 O 0.92953 0.48547 0.6321 0.0
O637 O 0.04627 0.4455 0.6893 0.0
O638 O 0.02328 0.52601 0.36723 0.0
O639 O 0.02426 0.46988 0.50136 0.0
O640 O 0.95837 0.42095 0.52761 0.0
O641 O 0.93043 0.49222 0.47467 0.0
O642 O 0.07026 0.5125 0.4422 0.0
O643 O 0.94461 0.53368 0.38761 0.0
C644 C 0.93282 0.52813 0.60195 0.0
C645 C 0.00503 0.42071 0.79275 0.0
C646 C 0.99421 0.418 0.91442 0.0
C647 C 1.00035 0.44515 0.85395 0.0
C648 C 0.99281 0.36577 0.91321 0.0
C649 C 0.0037 0.36856 0.79219 0.0
C650 C 0.99768 0.34128 0.85235 0.0
C651 C 0.06699 0.55539 0.588 0.0
C652 C 0.0084 0.45132 0.73088 0.0
C653 C 0.00614 0.25121 0.56897 0.0
C654 C 0.05785 0.259 0.56395 0.0
C655 C 0.06741 0.47031 0.47295 0.0
C656 C 0.97367 0.54665 0.27511 0.0
C657 C 0.97897 0.51573 0.21948 0.0
C658 C 0.97321 0.53523 0.15438 0.0
C659 C 0.96213 0.58601 0.14545 0.0
C660 C 0.96281 0.59732 0.2653 0.0
C661 C 0.95706 0.61681 0.20064 0.0
C662 C 0.92911 0.44354 0.48496 0.0
C663 C 0.97921 0.52464 0.34246 0.0
H664 H 1.00077 0.48548 0.85464 0.0
H665 H 0.98774 0.3441 0.95917 0.0
H666 H 0.00682 0.34911 0.74553 0.0
H667 H 0.99646 0.30102 0.8518 0.0
H668 H 0.98737 0.4765 0.22675 0.0
H669 H 0.95758 0.60176 0.09575 0.0
H670 H 0.95867 0.62163 0.30749 0.0
H671 H 0.9486 0.65593 0.19324 0.0
C672 C 0.16211 0.07482 0.45078 0.0
C673 C 0.11206 0.08759 0.47155 0.0
C674 C 0.1295 0.17109 0.41644 0.0
C675 C 0.17545 0.15391 0.38657 0.0
N676 N 0.23163 0.08445 0.37246 0.0
N677 N 0.05073 0.15279 0.47694 0.0
C678 C 0.18963 0.10408 0.40211 0.0
C679 C 0.09621 0.13703 0.4542 0.0
N680 N 0.18617 0.03651 0.48207 0.0
N681 N 0.11967 0.22078 0.41384 0.0
H682 H 0.02914 0.13216 0.51144 0.0
H683 H 0.03386 0.18536 0.45989 0.0
H684 H 0.14543 0.24624 0.39379 0.0
H685 H 0.08823 0.23732 0.43535 0.0
H686 H 0.22407 0.02884 0.47473 0.0
H687 H 0.1706 0.01703 0.52246 0.0
H688 H 0.23948 0.0464 0.37351 0.0
H689 H 0.25704 0.10543 0.34346 0.0
C690 C 0.1425 0.91907 0.66711 0.0
C691 C 0.09706 0.9007 0.64172 0.0
C692 C 0.11861 0.81783 0.69146 0.0
C693 C 0.16325 0.83725 0.71794 0.0
N694 N 0.20991 0.91003 0.74425 0.0
N695 N 0.03933 0.83188 0.63832 0.0
C696 C 0.17234 0.88903 0.70998 0.0
C697 C 0.08449 0.84982 0.65635 0.0
N698 N 0.16002 0.96416 0.64527 0.0
N699 N 0.10903 0.76832 0.69854 0.0
H700 H 0.01467 0.85189 0.60908 0.0
H701 H 0.02442 0.7981 0.65575 0.0
H702 H 0.12931 0.74579 0.73012 0.0
H703 H 0.08209 0.7495 0.67277 0.0
H704 H 0.19528 0.97789 0.65504 0.0
H705 H 0.14157 0.98459 0.60972 0.0
H706 H 0.21478 0.94833 0.74747 0.0
H707 H 0.23285 0.88943 0.77565 0.0
C708 C 0.3024 0.87786 0.95152 0.0
C709 C 0.32237 0.84838 0.89783 0.0
C710 C 0.39727 0.89916 0.89515 0.0
C711 C 0.38111 0.92338 0.95325 0.0
N712 N 0.32373 0.92466 0.04827 0.0
N713 N 0.40316 0.81604 0.86047 0.0
C714 C 0.33517 0.90974 0.98499 0.0
C715 C 0.37381 0.85468 0.8802 0.0
N716 N 0.25371 0.8755 0.97313 0.0
N717 N 0.43772 0.91514 0.85764 0.0
H718 H 0.39145 0.7793 0.86371 0.0
H719 H 0.44164 0.81985 0.8528 0.0
H720 H 0.45819 0.9465 0.8689 0.0
H721 H 0.44883 0.89791 0.81346 0.0
H722 H 0.23767 0.90215 1.00421 0.0
H723 H 0.22883 0.8483 0.96093 0.0
H724 H 0.29301 0.91119 0.07635 0.0
H725 H 0.34782 0.94619 0.07517 0.0
C726 C 0.35159 0.0752 0.12663 0.0
C727 C 0.40455 0.07547 0.12596 0.0
C728 C 0.40015 0.14153 0.20958 0.0
C729 C 0.34661 0.1401 0.21275 0.0
N730 N 0.27715 0.08434 0.19458 0.0
N731 N 0.47369 0.0906 0.19696 0.0
C732 C 0.32379 0.10114 0.17667 0.0
C733 C 0.42743 0.10337 0.1759 0.0
N734 N 0.3271 0.04776 0.0816 0.0
N735 N 0.42661 0.17835 0.23766 0.0
H736 H 0.49584 0.06383 0.17389 0.0
H737 H 0.4888 0.10525 0.23961 0.0
H738 H 0.41177 0.20718 0.26501 0.0
H739 H 0.46494 0.18197 0.22881 0.0
H740 H 0.2888 0.0508 0.07477 0.0
H741 H 0.3457 0.02619 0.04633 0.0
H742 H 0.2606 0.05364 0.17354 0.0
H743 H 0.25852 0.0949 0.23786 0.0
C744 C 0.91058 0.88336 0.65289 0.0
C745 C 0.89826 0.91169 0.59399 0.0
C746 C 0.82139 0.86069 0.59253 0.0
C747 C 0.82859 0.83889 0.65709 0.0
N748 N 0.89554 0.81066 0.72427 0.0
N749 N 0.83088 0.93263 0.52098 0.0
C750 C 0.87754 0.84498 0.6808 0.0
C751 C 0.85056 0.90177 0.56797 0.0
N752 N 0.95134 0.89606 0.68734 0.0
N753 N 0.79185 0.83738 0.54919 0.0
H754 H 0.84977 0.96345 0.50182 0.0
H755 H 0.79413 0.92963 0.5059 0.0
H756 H 0.78236 0.8004 0.55769 0.0
H757 H 0.78731 0.84987 0.50007 0.0
H758 H 0.9584 0.88136 0.73468 0.0
H759 H 0.9763 0.92327 0.67027 0.0
H760 H 0.93374 0.80458 0.72662 0.0
H761 H 0.87329 0.78314 0.7466 0.0
C762 C 0.84762 0.08159 0.43339 0.0
C763 C 0.89941 0.09116 0.43312 0.0
C764 C 0.88318 0.16651 0.36455 0.0
C765 C 0.83232 0.1522 0.3547 0.0
N766 N 0.77306 0.08406 0.36996 0.0
N767 N 0.96768 0.13778 0.38456 0.0
C768 C 0.81712 0.10567 0.38537 0.0
C769 C 0.91748 0.13208 0.3942 0.0
N770 N 0.82614 0.05302 0.4832 0.0
N771 N 0.8991 0.21308 0.34853 0.0
H772 H 0.99281 0.10991 0.39803 0.0
H773 H 0.98401 0.16768 0.35852 0.0
H774 H 0.87657 0.23805 0.32451 0.0
H775 H 0.93325 0.22734 0.36253 0.0
H776 H 0.78762 0.04813 0.48892 0.0
H777 H 0.84652 0.04042 0.52345 0.0
H778 H 0.76286 0.04857 0.38772 0.0
H779 H 0.74941 0.09887 0.3345 0.0
C780 C 0.68334 0.10417 0.16089 0.0
C781 C 0.66866 0.15316 0.17748 0.0
C782 C 0.58781 0.13965 0.12632 0.0
C783 C 0.60502 0.09253 0.10347 0.0
N784 N 0.67412 0.0361 0.08639 0.0
N785 N 0.60765 0.21987 0.1696 0.0
C786 C 0.65415 0.07653 0.1173 0.0
C787 C 0.62109 0.17153 0.15849 0.0
N788 N 0.72372 0.0827 0.1897 0.0
N789 N 0.53919 0.15381 0.11929 0.0
H790 H 0.62992 0.24577 0.19166 0.0
H791 H 0.57552 0.23675 0.15241 0.0
H792 H 0.51252 0.13275 0.09682 0.0
H793 H 0.5228 0.18471 0.14116 0.0
H794 H 0.7331 0.04527 0.18482 0.0
H795 H 0.74422 0.10071 0.22488 0.0
H796 H 0.71154 0.02588 0.08912 0.0
H797 H 0.65472 0.01632 0.0519 0.0
C798 C 0.5916 0.84587 0.86205 0.0
C799 C 0.63999 0.85728 0.83406 0.0
C800 C 0.63646 0.93798 0.89052 0.0
C801 C 0.58772 0.92801 0.91899 0.0
N802 N 0.51978 0.86946 0.93068 0.0
N803 N 0.69518 0.92364 0.79889 0.0
C804 C 0.56546 0.8812 0.90379 0.0
C805 C 0.65854 0.90598 0.8421 0.0
N806 N 0.56911 0.80241 0.8461 0.0
N807 N 0.66316 0.97781 0.91079 0.0
H808 H 0.70806 0.90337 0.75801 0.0
H809 H 0.70734 0.96048 0.79775 0.0
H810 H 0.6497 0.00279 0.94577 0.0
H811 H 0.70078 0.9831 0.89771 0.0
H812 H 0.53242 0.79285 0.85842 0.0
H813 H 0.58621 0.77536 0.81746 0.0
H814 H 0.50377 0.8343 0.93227 0.0
H815 H 0.49875 0.89462 0.9568 0.0
C816 C 0.64724 0.56669 0.9198 0.0
C817 C 0.60094 0.58427 0.94608 0.0
C818 C 0.627 0.66885 0.9036 0.0
C819 C 0.66828 0.64888 0.86649 0.0
N820 N 0.71295 0.57482 0.83576 0.0
N821 N 0.54831 0.65481 0.96478 0.0
C822 C 0.67694 0.59671 0.87425 0.0
C823 C 0.59114 0.63618 0.93786 0.0
N824 N 0.66363 0.52078 0.93967 0.0
N825 N 0.624 0.71898 0.91082 0.0
H826 H 0.52636 0.63383 0.99861 0.0
H827 H 0.53415 0.68957 0.95118 0.0
H828 H 0.65186 0.74333 0.89371 0.0
H829 H 0.59564 0.73654 0.93745 0.0
H830 H 0.69936 0.50737 0.92847 0.0
H831 H 0.64311 0.49856 0.97374 0.0
H832 H 0.71778 0.53643 0.83287 0.0
H833 H 0.73373 0.59542 0.80076 0.0
C834 C 0.66092 0.33025 0.12075 0.0
C835 C 0.68941 0.35089 0.17161 0.0
C836 C 0.65775 0.43295 0.13449 0.0
C837 C 0.61835 0.41065 0.09903 0.0
N838 N 0.58252 0.33132 0.06751 0.0
N839 N 0.71623 0.4258 0.22333 0.0
C840 C 0.6199 0.35746 0.09458 0.0
C841 C 0.6875 0.40339 0.17797 0.0
N842 N 0.67468 0.2861 0.0933 0.0
N843 N 0.6712 0.48116 0.12121 0.0
H844 H 0.73945 0.40559 0.25436 0.0
H845 H 0.71264 0.46326 0.23509 0.0
H846 H 0.65802 0.50108 0.08065 0.0
H847 H 0.70175 0.49819 0.14193 0.0
H848 H 0.65928 0.27314 0.04986 0.0
H849 H 0.70327 0.26397 0.11153 0.0
H850 H 0.5827 0.29263 0.06687 0.0
H851 H 0.54906 0.34635 0.05294 0.0
C852 C 0.86151 0.43617 0.40067 0.0
C853 C 0.89736 0.41305 0.44227 0.0
C854 C 0.86718 0.33382 0.40653 0.0
C855 C 0.84287 0.35727 0.35317 0.0
N856 N 0.82935 0.43341 0.29004 0.0
N857 N 0.94628 0.3362 0.45478 0.0
C858 C 0.84409 0.40946 0.34659 0.0
C859 C 0.90391 0.36062 0.43761 0.0
N860 N 0.83991 0.48033 0.41628 0.0
N861 N 0.85514 0.28709 0.42906 0.0
H862 H 0.97901 0.35391 0.46652 0.0
H863 H 0.95078 0.29814 0.44678 0.0
H864 H 0.8262 0.26685 0.40956 0.0
H865 H 0.87186 0.27079 0.47052 0.0
H866 H 0.81291 0.49712 0.3868 0.0
H867 H 0.84157 0.49355 0.46446 0.0
H868 H 0.83162 0.47205 0.28397 0.0
H869 H 0.82142 0.41389 0.2473 0.0
C870 C 0.83721 0.5905 0.71429 0.0
C871 C 0.84511 0.64202 0.70608 0.0
C872 C 0.91845 0.62144 0.63645 0.0
C873 C 0.9021 0.57098 0.63064 0.0
N874 N 0.8319 0.51505 0.65371 0.0
N875 N 0.89059 0.70691 0.64573 0.0
C876 C 0.85658 0.55813 0.66545 0.0
C877 C 0.88468 0.65783 0.66231 0.0
N878 N 0.81811 0.5715 0.77289 0.0
N879 N 0.96672 0.6341 0.6251 0.0
H880 H 0.86341 0.73314 0.65798 0.0
H881 H 0.91939 0.72008 0.61394 0.0
H882 H 0.99315 0.60658 0.6226 0.0
H883 H 0.98042 0.6698 0.63239 0.0
H884 H 0.8146 0.53322 0.78205 0.0
H885 H 0.81331 0.59414 0.81423 0.0
H886 H 0.79827 0.50604 0.67889 0.0
H887 H 0.84165 0.49222 0.61395 0.0
C888 C 0.31848 0.40318 0.1774 0.0
C889 C 0.33099 0.35229 0.19141 0.0
C890 C 0.4172 0.37096 0.14649 0.0
C891 C 0.4036 0.4209 0.12924 0.0
N892 N 0.33892 0.48293 0.12463 0.0
N893 N 0.39027 0.28609 0.17432 0.0
C894 C 0.35356 0.43619 0.14402 0.0
C895 C 0.37995 0.33575 0.17187 0.0
N896 N 0.27267 0.42086 0.19764 0.0
N897 N 0.46621 0.35762 0.14069 0.0
H898 H 0.36294 0.25968 0.18589 0.0
H899 H 0.42424 0.27063 0.15914 0.0
H900 H 0.49367 0.38293 0.12477 0.0
H901 H 0.4802 0.32318 0.15588 0.0
H902 H 0.26375 0.45847 0.20044 0.0
H903 H 0.24391 0.39833 0.21662 0.0
H904 H 0.30208 0.49518 0.12477 0.0
H905 H 0.36322 0.50848 0.10154 0.0
C906 C 0.33694 0.56385 0.94663 0.0
C907 C 0.38305 0.58542 0.96621 0.0
C908 C 0.35105 0.66656 0.92891 0.0
C909 C 0.30903 0.64471 0.90029 0.0
N910 N 0.26888 0.56877 0.87017 0.0
N911 N 0.43848 0.65289 0.93668 0.0
C912 C 0.30412 0.59216 0.90569 0.0
C913 C 0.39137 0.63583 0.94716 0.0
N914 N 0.32261 0.51744 0.9681 0.0
N915 N 0.35252 0.71578 0.94226 0.0
H916 H 0.46695 0.62709 0.92914 0.0
H917 H 0.44612 0.68938 0.9204 0.0
H918 H 0.32242 0.73925 0.9348 0.0
H919 H 0.38198 0.7312 0.96763 0.0
H920 H 0.28698 0.50333 0.96136 0.0
H921 H 0.34357 0.4948 0.99836 0.0
H922 H 0.2669 0.5302 0.86649 0.0
H923 H 0.24598 0.58809 0.83757 0.0
C924 C 0.15093 0.65598 0.6525 0.0
C925 C 0.15824 0.63738 0.71839 0.0
C926 C 0.09341 0.5759 0.70364 0.0
C927 C 0.09322 0.58847 0.63466 0.0
N928 N 0.09067 0.66397 0.56882 0.0
N929 N 0.13764 0.57726 0.80627 0.0
C930 C 0.11411 0.63459 0.61406 0.0
C931 C 0.1298 0.59665 0.74402 0.0
N932 N 0.17593 0.69683 0.62782 0.0
N933 N 0.05329 0.55203 0.73261 0.0
H934 H 0.16332 0.59229 0.83792 0.0
H935 H 0.12102 0.54429 0.82417 0.0
H936 H 0.02124 0.54604 0.70582 0.0
H937 H 0.04854 0.5465 0.78405 0.0
H938 H 0.17768 0.70648 0.57706 0.0
H939 H 0.19407 0.72123 0.65807 0.0
H940 H 0.10139 0.70045 0.55695 0.0
H941 H 0.05396 0.65727 0.55784 0.0
C942 C 0.17606 0.40372 0.38858 0.0
C943 C 0.15428 0.36182 0.35755 0.0
C944 C 0.07255 0.39531 0.39618 0.0
C945 C 0.09556 0.42828 0.44034 0.0
N946 N 0.17259 0.46282 0.47758 0.0
N947 N 0.07652 0.31637 0.34311 0.0
C948 C 0.14839 0.43126 0.43707 0.0
C949 C 0.10111 0.35692 0.36488 0.0
N950 N 0.22131 0.42148 0.36638 0.0
N951 N 0.02473 0.40336 0.37762 0.0
H952 H 0.09345 0.28654 0.31986 0.0
H953 H 0.03866 0.3104 0.35434 0.0
H954 H 0.00301 0.43231 0.39576 0.0
H955 H 0.00854 0.38401 0.33935 0.0
H956 H 0.23737 0.45389 0.38343 0.0
H957 H 0.2383 0.40912 0.32288 0.0
H958 H 0.21116 0.46179 0.48287 0.0
H959 H 0.15405 0.48704 0.50989 0.0
C960 C 0.04918 0.02224 0.98896 0.0
C961 C 0.99785 0.01606 0.97655 0.0
C962 C 0.98696 0.96548 0.07922 0.0
C963 C 0.03636 0.97748 0.09593 0.0
N964 N 0.11339 0.02188 0.0708 0.0
N965 N 0.91628 0.98486 1.01106 0.0
C966 C 0.06746 0.00662 0.0516 0.0
C967 C 0.96622 0.98849 1.02202 0.0
N968 N 0.08057 0.04302 0.94095 0.0
N969 N 0.96059 0.93077 0.1168 0.0
H970 H 0.89982 0.99935 0.96837 0.0
H971 H 0.89049 0.97017 0.04615 0.0
H972 H 0.975 0.91277 0.15869 0.0
H973 H 0.9265 0.91634 0.10311 0.0
H974 H 0.1193 0.04115 0.94323 0.0
H975 H 0.06831 0.05878 0.89636 0.0
H976 H 0.13513 0.04788 0.04377 0.0
H977 H 0.12812 0.01235 0.11684 0.0
C978 C 0.27429 0.66992 0.33462 0.0
C979 C 0.28795 0.71503 0.36463 0.0
C980 C 0.24547 0.76282 0.27662 0.0
C981 C 0.23388 0.71769 0.24488 0.0
N982 N 0.246 0.62919 0.2359 0.0
N983 N 0.29433 0.80444 0.35874 0.0
C984 C 0.25091 0.67149 0.27172 0.0
C985 C 0.27592 0.76152 0.33383 0.0
N986 N 0.28223 0.6255 0.36732 0.0
N987 N 0.22553 0.8067 0.25395 0.0
H988 H 0.3159 0.80491 0.4011 0.0
H989 H 0.29165 0.83908 0.33473 0.0
H990 H 0.20294 0.80923 0.21265 0.0
H991 H 0.22797 0.84008 0.27894 0.0
H992 H 0.26796 0.59175 0.3521 0.0
H993 H 0.29993 0.6227 0.41283 0.0
H994 H 0.26205 0.5952 0.24915 0.0
H995 H 0.22996 0.6291 0.18918 0.0
C996 C 0.45402 0.02366 0.54452 0.0
C997 C 0.49547 0.03896 0.5813 0.0
C998 C 0.55283 0.00052 0.49903 0.0
C999 C 0.51131 0.98182 0.46531 0.0
N1000 N 0.42246 0.97035 0.45925 0.0
N1001 N 0.58407 0.03809 0.59842 0.0
C1002 C 0.46187 0.99213 0.48886 0.0
C1003 C 0.54484 0.02628 0.55986 0.0
N1004 N 0.40718 0.03989 0.56236 0.0
N1005 N 0.59988 0.99497 0.47167 0.0
H1006 H 0.58 0.05877 0.64165 0.0
H1007 H 0.6202 0.02481 0.59019 0.0
H1008 H 0.6072 0.9758 0.42777 0.0
H1009 H 0.63127 0.01242 0.48936 0.0
H1010 H 0.37607 0.03502 0.5335 0.0
H1011 H 0.3998 0.06154 0.60405 0.0
H1012 H 0.38589 0.97166 0.4782 0.0
H1013 H 0.42671 0.94769 0.41791 0.0
C1014 C 0.21418 0.28623 0.82508 0.0
C1015 C 0.23929 0.24307 0.84867 0.0
C1016 C 0.29762 0.24759 0.7516 0.0
C1017 C 0.26953 0.28772 0.72472 0.0
N1018 N 0.19963 0.34411 0.73293 0.0
N1019 N 0.30122 0.17893 0.83211 0.0
C1020 C 0.22748 0.30687 0.76084 0.0
C1021 C 0.28016 0.22281 0.8114 0.0
N1022 N 0.17823 0.30795 0.8648 0.0
N1023 N 0.34176 0.23413 0.72086 0.0
H1024 H 0.28971 0.15998 0.87589 0.0
H1025 H 0.32748 0.1593 0.80374 0.0
H1026 H 0.35541 0.25103 0.67657 0.0
H1027 H 0.36689 0.20913 0.74179 0.0
H1028 H 0.162 0.3423 0.85401 0.0
H1029 H 0.16687 0.29324 0.91147 0.0
H1030 H 0.16504 0.35552 0.75215 0.0
H1031 H 0.20994 0.36208 0.688 0.0
C1032 C 0.79762 0.30787 0.79183 0.0
C1033 C 0.80247 0.25905 0.8197 0.0
C1034 C 0.74809 0.22636 0.73478 0.0
C1035 C 0.74517 0.2747 0.70494 0.0
N1036 N 0.77199 0.36027 0.6985 0.0
N1037 N 0.78948 0.17069 0.8126 0.0
C1038 C 0.77133 0.31517 0.73168 0.0
C1039 C 0.77969 0.21795 0.78967 0.0
N1040 N 0.81705 0.34738 0.82401 0.0
N1041 N 0.7194 0.18879 0.71182 0.0
H1042 H 0.81169 0.1632 0.85341 0.0
H1043 H 0.77903 0.13876 0.78825 0.0
H1044 H 0.69651 0.19326 0.67101 0.0
H1045 H 0.71535 0.15422 0.7359 0.0
H1046 H 0.81023 0.38441 0.81084 0.0
H1047 H 0.83772 0.34332 0.86701 0.0
H1048 H 0.79475 0.38979 0.71075 0.0
H1049 H 0.75243 0.36715 0.65508 0.0
C1050 C 0.69606 0.74346 0.30347 0.0
C1051 C 0.72915 0.70737 0.33024 0.0
C1052 C 0.78409 0.71573 0.23008 0.0
C1053 C 0.75329 0.75479 0.20603 0.0
N1054 N 0.68223 0.80908 0.22051 0.0
N1055 N 0.80715 0.66257 0.32375 0.0
C1056 C 0.7098 0.76953 0.24293 0.0
C1057 C 0.77377 0.69423 0.29465 0.0
N1058 N 0.65108 0.75199 0.33546 0.0
N1059 N 0.82273 0.69868 0.19057 0.0
H1060 H 0.80036 0.64521 0.37021 0.0
H1061 H 0.84298 0.65601 0.30428 0.0
H1062 H 0.83203 0.71428 0.14365 0.0
H1063 H 0.84332 0.66685 0.20179 0.0
H1064 H 0.62309 0.77432 0.31599 0.0
H1065 H 0.64009 0.73402 0.38024 0.0
H1066 H 0.65315 0.82531 0.24797 0.0
H1067 H 0.69018 0.82785 0.17529 0.0
C1068 C 0.53295 0.47223 0.56904 0.0
C1069 C 0.48769 0.48907 0.59977 0.0
C1070 C 0.47435 0.5468 0.50512 0.0
C1071 C 0.52035 0.53109 0.47551 0.0
N1072 N 0.59723 0.4848 0.48204 0.0
N1073 N 0.41852 0.54674 0.60288 0.0
C1074 C 0.55074 0.4954 0.50828 0.0
C1075 C 0.45943 0.52783 0.5696 0.0
N1076 N 0.55854 0.43359 0.5977 0.0
N1077 N 0.44411 0.57846 0.47034 0.0
H1078 H 0.40459 0.53196 0.64828 0.0
H1079 H 0.4001 0.57906 0.58789 0.0
H1080 H 0.45424 0.59383 0.42357 0.0
H1081 H 0.40761 0.58697 0.48536 0.0
H1082 H 0.58829 0.41536 0.57421 0.0
H1083 H 0.54852 0.41781 0.64425 0.0
H1084 H 0.6236 0.46334 0.50662 0.0
H1085 H 0.61113 0.50033 0.43702 0.0
C1086 C 0.03217 0.46411 1.00826 0.0
C1087 C 0.98901 0.44485 0.9788 0.0
C1088 C 0.93625 0.47964 0.06919 0.0
C1089 C 0.97892 0.50264 0.09516 0.0
N1090 N 0.06682 0.52128 0.0866 0.0
N1091 N 0.89949 0.43744 0.97686 0.0
C1092 C 0.02677 0.49596 0.06399 0.0
C1093 C 0.94089 0.45324 1.00834 0.0
N1094 N 0.07842 0.45094 0.9837 0.0
N1095 N 0.89148 0.48209 0.10373 0.0
H1096 H 0.90142 0.41713 0.93314 0.0
H1097 H 0.86317 0.44707 0.99131 0.0
H1098 H 0.88654 0.50178 0.1477 0.0
H1099 H 0.86021 0.46152 0.09212 0.0
H1100 H 0.11154 0.45947 1.00655 0.0
H1101 H 0.08372 0.42784 0.94296 0.0
H1102 H 0.10146 0.5229 0.06164 0.0
H1103 H 0.06462 0.54369 0.12837 0.0
loop_
_geom_bond_atom_site_label_1
_geom_bond_atom_site_label_2
_geom_bond_distance
_geom_bond_site_symmetry_2
_ccdc_geom_bond_type
Tb0 N31 2.650 1_455 S
Tb0 N38 2.600 1_455 S
Tb0 O44 2.551 . S
Tb0 O45 2.613 1_565 S
Tb0 O47 2.312 1_465 S
Tb0 O48 2.559 1_565 S
Tb0 O49 2.411 1_455 S
Tb0 O51 2.358 1_455 S
Tb0 O52 2.429 . S
Tb0 C64 2.835 . S
C1 C4 1.432 . S
C1 C5 1.414 . S
C1 N8 1.359 . S
C2 C4 1.417 . S
C2 C6 1.432 . S
C2 C14 1.410 . S
C3 C5 1.444 . S
C3 C6 1.317 . S
C3 H26 0.929 . S
C4 C1 1.432 . S
C4 C2 1.417 . S
C4 N12 1.360 . S
C5 C1 1.414 . S
C5 C3 1.444 . S
C5 C10 1.385 . S
C6 C2 1.432 . S
C6 C3 1.317 . S
C6 H18 0.930 . S
C7 C9 1.392 . S
C7 C10 1.370 1_655 S
C7 H19 0.931 . S
N8 C1 1.359 . S
N8 C9 1.327 1_455 S
N8 Tb11 2.600 1_455 S
C9 C7 1.392 . S
C9 N8 1.327 1_655 S
C9 H16 0.930 . S
C10 C5 1.385 . S
C10 C7 1.370 1_455 S
C10 H29 0.930 . S
Tb11 N8 2.600 1_655 S
Tb11 N12 2.655 1_655 S
Tb11 O45 2.360 1_655 S
Tb11 O46 2.425 . S
Tb11 O50 2.548 . S
Tb11 O51 2.611 1_545 S
Tb11 O53 2.316 1_645 S
Tb11 O54 2.556 1_545 S
Tb11 O55 2.412 1_655 S
Tb11 C75 2.834 . S
N12 C4 1.360 . S
N12 Tb11 2.655 1_455 S
N12 C13 1.305 . S
C13 N12 1.305 . S
C13 C15 1.407 . S
C13 H20 0.930 . S
C14 C2 1.410 . S
C14 C15 1.345 . S
C14 H22 0.930 . S
C15 C13 1.407 . S
C15 C14 1.345 . S
C15 H17 0.930 . S
H16 C9 0.930 . S
H17 C15 0.930 . S
H18 C6 0.930 . S
H19 C7 0.931 . S
H20 C13 0.930 . S
H21 C35 0.930 . S
H22 C14 0.930 . S
H23 C41 0.930 . S
H24 C32 0.930 . S
H25 C39 0.931 . S
H26 C3 0.929 . S
H27 C33 0.930 . S
H28 C66 0.930 . S
H29 C10 0.930 . S
H30 C65 0.929 . S
N31 Tb0 2.650 1_655 S
N31 C32 1.305 . S
N31 C36 1.360 . S
C32 H24 0.930 . S
C32 N31 1.305 . S
C32 C35 1.407 . S
C33 H27 0.930 . S
C33 C34 1.410 . S
C33 C35 1.345 . S
C34 C33 1.410 . S
C34 C36 1.417 . S
C34 C66 1.432 . S
C35 H21 0.930 . S
C35 C32 1.407 . S
C35 C33 1.345 . S
C36 N31 1.360 . S
C36 C34 1.417 . S
C36 C40 1.432 . S
H37 C42 0.930 . S
N38 Tb0 2.600 1_655 S
N38 C40 1.359 . S
N38 C41 1.327 1_655 S
C39 H25 0.931 . S
C39 C41 1.392 . S
C39 C42 1.370 1_455 S
C40 C36 1.432 . S
C40 N38 1.359 . S
C40 C43 1.414 . S
C41 H23 0.930 . S
C41 N38 1.327 1_455 S
C41 C39 1.392 . S
C42 H37 0.930 . S
C42 C39 1.370 1_655 S
C42 C43 1.385 . S
C43 C40 1.414 . S
C43 C42 1.385 . S
C43 C65 1.444 . S
O44 Tb0 2.551 . S
O44 C64 1.251 . S
O45 Tb0 2.613 1_545 S
O45 Tb11 2.360 1_455 S
O45 C56 1.283 . S
O46 Tb11 2.425 . S
O46 C63 1.262 . S
O47 Tb0 2.312 1_645 S
O47 C63 1.260 . S
O48 Tb0 2.559 1_545 S
O48 C56 1.243 . S
O49 Tb0 2.411 1_655 S
O49 C64 1.256 1_655 S
O50 Tb11 2.548 . S
O50 C75 1.251 . S
O51 Tb0 2.358 1_655 S
O51 Tb11 2.611 1_565 S
O51 C67 1.283 . S
O52 Tb0 2.429 . S
O52 C74 1.262 . S
O53 Tb11 2.316 1_465 S
O53 C74 1.260 . S
O54 Tb11 2.556 1_565 S
O54 C67 1.243 . S
O55 Tb11 2.412 1_455 S
O55 C75 1.256 1_455 S
C56 O45 1.283 . S
C56 O48 1.243 . S
C57 C59 1.382 . S
C57 C61 1.393 . S
C57 C64 1.500 . S
C58 C59 1.400 . S
C58 C60 1.384 . S
C59 C57 1.382 . S
C59 C58 1.400 . S
C59 H76 0.930 1_455 S
C60 C58 1.384 . S
C60 C62 1.392 . S
C60 H77 0.931 . S
C61 C57 1.393 . S
C61 C62 1.401 . S
C61 H78 0.930 . S
C62 C60 1.392 . S
C62 C61 1.401 . S
C62 H79 0.930 . S
C63 O46 1.262 . S
C63 O47 1.260 . S
C64 Tb0 2.835 . S
C64 O44 1.251 . S
C64 O49 1.256 1_455 S
C64 C57 1.500 . S
C65 H30 0.929 . S
C65 C43 1.444 . S
C65 C66 1.317 . S
C66 H28 0.930 . S
C66 C34 1.432 . S
C66 C65 1.317 . S
C67 O51 1.283 . S
C67 O54 1.243 . S
C68 C69 1.382 . S
C68 C72 1.393 . S
C68 C75 1.500 . S
C69 C68 1.382 . S
C69 C70 1.400 . S
C69 H80 0.930 1_655 S
C70 C69 1.400 . S
C70 C71 1.384 . S
C71 C70 1.384 . S
C71 C73 1.392 . S
C71 H81 0.931 . S
C72 C68 1.393 . S
C72 C73 1.401 . S
C72 H82 0.930 . S
C73 C71 1.392 . S
C73 C72 1.401 . S
C73 H83 0.930 . S
C74 O52 1.262 . S
C74 O53 1.260 . S
C75 Tb11 2.834 . S
C75 O50 1.251 . S
C75 O55 1.256 1_655 S
C75 C68 1.500 . S
H76 C59 0.930 1_655 S
H77 C60 0.931 . S
H78 C61 0.930 . S
H79 C62 0.930 . S
H80 C69 0.930 1_455 S
H81 C71 0.931 . S
H82 C72 0.930 . S
H83 C73 0.930 . S
Tb84 N115 2.660 . S
Tb84 N122 2.600 . S
Tb84 O128 2.546 . S
Tb84 O129 2.610 . S
Tb84 O131 2.320 . S
Tb84 O132 2.552 . S
Tb84 O133 2.413 . S
Tb84 O135 2.362 . S
Tb84 O136 2.421 . S
Tb84 C148 2.833 . S
C85 C88 1.432 . S
C85 C89 1.414 . S
C85 N92 1.359 . S
C86 C88 1.417 . S
C86 C90 1.432 . S
C86 C98 1.410 . S
C87 C89 1.444 . S
C87 C90 1.317 . S
C87 H110 0.929 1_455 S
C88 C85 1.432 . S
C88 C86 1.417 . S
C88 N96 1.360 . S
C89 C85 1.414 . S
C89 C87 1.444 . S
C89 C94 1.385 . S
C90 C86 1.432 . S
C90 C87 1.317 . S
C90 H102 0.930 . S
C91 C93 1.392 . S
C91 C94 1.370 . S
C91 H103 0.931 . S
N92 C85 1.359 . S
N92 C93 1.327 . S
N92 Tb95 2.600 . S
C93 C91 1.392 . S
C93 N92 1.327 . S
C93 H100 0.930 . S
C94 C89 1.385 . S
C94 C91 1.370 . S
C94 H113 0.930 1_455 S
Tb95 N92 2.600 . S
Tb95 N96 2.660 . S
Tb95 O129 2.362 . S
Tb95 O130 2.421 . S
Tb95 O134 2.546 . S
Tb95 O135 2.610 . S
Tb95 O137 2.320 . S
Tb95 O138 2.552 . S
Tb95 O139 2.413 . S
Tb95 C159 2.833 . S
N96 C88 1.360 . S
N96 Tb95 2.660 . S
N96 C97 1.305 . S
C97 N96 1.305 . S
C97 C99 1.407 . S
C97 H104 0.930 . S
C98 C86 1.410 . S
C98 C99 1.345 . S
C98 H106 0.930 . S
C99 C97 1.407 . S
C99 C98 1.345 . S
C99 H101 0.930 . S
H100 C93 0.930 . S
H101 C99 0.930 . S
H102 C90 0.930 . S
H103 C91 0.931 . S
H104 C97 0.930 . S
H105 C119 0.930 . S
H106 C98 0.930 . S
H107 C125 0.930 . S
H108 C116 0.930 . S
H109 C123 0.931 . S
H110 C87 0.929 1_655 S
H111 C117 0.930 . S
H112 C150 0.930 . S
H113 C94 0.930 1_655 S
H114 C149 0.929 . S
N115 Tb84 2.660 . S
N115 C116 1.305 . S
N115 C120 1.360 . S
C116 H108 0.930 . S
C116 N115 1.305 . S
C116 C119 1.407 . S
C117 H111 0.930 . S
C117 C118 1.410 . S
C117 C119 1.345 . S
C118 C117 1.410 . S
C118 C120 1.417 . S
C118 C150 1.432 . S
C119 H105 0.930 . S
C119 C116 1.407 . S
C119 C117 1.345 . S
C120 N115 1.360 . S
C120 C118 1.417 . S
C120 C124 1.432 . S
H121 C126 0.930 . S
N122 Tb84 2.600 . S
N122 C124 1.359 . S
N122 C125 1.327 . S
C123 H109 0.931 . S
C123 C125 1.392 . S
C123 C126 1.370 . S
C124 C120 1.432 . S
C124 N122 1.359 . S
C124 C127 1.414 . S
C125 H107 0.930 . S
C125 N122 1.327 . S
C125 C123 1.392 . S
C126 H121 0.930 . S
C126 C123 1.370 . S
C126 C127 1.385 . S
C127 C124 1.414 . S
C127 C126 1.385 . S
C127 C149 1.444 . S
O128 Tb84 2.546 . S
O128 C148 1.251 . S
O129 Tb84 2.610 . S
O129 Tb95 2.362 . S
O129 C140 1.283 . S
O130 Tb95 2.421 . S
O130 C147 1.262 . S
O131 Tb84 2.320 . S
O131 C147 1.260 . S
O132 Tb84 2.552 . S
O132 C140 1.243 . S
O133 Tb84 2.413 . S
O133 C148 1.256 . S
O134 Tb95 2.546 . S
O134 C159 1.251 . S
O135 Tb84 2.362 . S
O135 Tb95 2.610 . S
O135 C151 1.283 . S
O136 Tb84 2.421 . S
O136 C158 1.262 . S
O137 Tb95 2.320 . S
O137 C158 1.260 . S
O138 Tb95 2.552 . S
O138 C151 1.243 . S
O139 Tb95 2.413 . S
O139 C159 1.256 . S
C140 O129 1.283 . S
C140 O132 1.243 . S
C141 C143 1.382 . S
C141 C145 1.393 . S
C141 C148 1.500 . S
C142 C143 1.400 . S
C142 C144 1.384 . S
C143 C141 1.382 . S
C143 C142 1.400 . S
C143 H160 0.930 . S
C144 C142 1.384 . S
C144 C146 1.392 . S
C144 H161 0.931 . S
C145 C141 1.393 . S
C145 C146 1.401 . S
C145 H162 0.930 . S
C146 C144 1.392 . S
C146 C145 1.401 . S
C146 H163 0.930 . S
C147 O130 1.262 . S
C147 O131 1.260 . S
C148 Tb84 2.833 . S
C148 O128 1.251 . S
C148 O133 1.256 . S
C148 C141 1.500 . S
C149 H114 0.929 . S
C149 C127 1.444 . S
C149 C150 1.317 . S
C150 H112 0.930 . S
C150 C118 1.432 . S
C150 C149 1.317 . S
C151 O135 1.283 . S
C151 O138 1.243 . S
C152 C153 1.382 . S
C152 C156 1.393 . S
C152 C159 1.500 1_554 S
C153 C152 1.382 . S
C153 C154 1.400 . S
C153 H164 0.930 . S
C154 C153 1.400 . S
C154 C155 1.384 . S
C155 C154 1.384 . S
C155 C157 1.392 . S
C155 H165 0.931 . S
C156 C152 1.393 . S
C156 C157 1.401 . S
C156 H166 0.930 . S
C157 C155 1.392 . S
C157 C156 1.401 . S
C157 H167 0.930 . S
C158 O136 1.262 . S
C158 O137 1.260 . S
C159 Tb95 2.833 . S
C159 O134 1.251 . S
C159 O139 1.256 . S
C159 C152 1.500 1_556 S
H160 C143 0.930 . S
H161 C144 0.931 . S
H162 C145 0.930 . S
H163 C146 0.930 . S
H164 C153 0.930 . S
H165 C155 0.931 . S
H166 C156 0.930 . S
H167 C157 0.930 . S
Tb168 N199 2.660 . S
Tb168 N206 2.600 . S
Tb168 O212 2.546 . S
Tb168 O213 2.610 1_565 S
Tb168 O215 2.320 1_565 S
Tb168 O216 2.552 1_565 S
Tb168 O217 2.413 . S
Tb168 O219 2.362 1_554 S
Tb168 O220 2.421 . S
Tb168 C232 2.833 . S
C169 C172 1.432 . S
C169 C173 1.414 . S
C169 N176 1.359 . S
C170 C172 1.417 . S
C170 C174 1.432 . S
C170 C182 1.410 . S
C171 C173 1.444 . S
C171 C174 1.317 . S
C171 H194 0.929 . S
C172 C169 1.432 . S
C172 C170 1.417 . S
C172 N180 1.360 . S
C173 C169 1.414 . S
C173 C171 1.444 . S
C173 C178 1.385 . S
C174 C170 1.432 . S
C174 C171 1.317 . S
C174 H186 0.930 . S
C175 C177 1.392 . S
C175 C178 1.370 . S
C175 H187 0.931 . S
N176 C169 1.359 . S
N176 C177 1.327 . S
N176 Tb179 2.600 . S
C177 C175 1.392 . S
C177 N176 1.327 . S
C177 H184 0.930 . S
C178 C173 1.385 . S
C178 C175 1.370 . S
C178 H197 0.930 . S
Tb179 N176 2.600 . S
Tb179 N180 2.660 . S
Tb179 O213 2.362 1_556 S
Tb179 O214 2.421 . S
Tb179 O218 2.546 . S
Tb179 O219 2.610 1_545 S
Tb179 O221 2.320 1_545 S
Tb179 O222 2.552 1_545 S
Tb179 O223 2.413 . S
Tb179 C243 2.833 . S
N180 C172 1.360 . S
N180 Tb179 2.660 . S
N180 C181 1.305 . S
C181 N180 1.305 . S
C181 C183 1.407 . S
C181 H188 0.930 . S
C182 C170 1.410 . S
C182 C183 1.345 . S
C182 H190 0.930 . S
C183 C181 1.407 . S
C183 C182 1.345 . S
C183 H185 0.930 . S
H184 C177 0.930 . S
H185 C183 0.930 . S
H186 C174 0.930 . S
H187 C175 0.931 . S
H188 C181 0.930 . S
H189 C203 0.930 . S
H190 C182 0.930 . S
H191 C209 0.930 . S
H192 C200 0.930 . S
H193 C207 0.931 . S
H194 C171 0.929 . S
H195 C201 0.930 . S
H196 C234 0.930 . S
H197 C178 0.930 . S
H198 C233 0.929 . S
N199 Tb168 2.660 . S
N199 C200 1.305 . S
N199 C204 1.360 . S
C200 H192 0.930 . S
C200 N199 1.305 . S
C200 C203 1.407 . S
C201 H195 0.930 . S
C201 C202 1.410 . S
C201 C203 1.345 . S
C202 C201 1.410 . S
C202 C204 1.417 . S
C202 C234 1.432 . S
C203 H189 0.930 . S
C203 C200 1.407 . S
C203 C201 1.345 . S
C204 N199 1.360 . S
C204 C202 1.417 . S
C204 C208 1.432 . S
H205 C210 0.930 . S
N206 Tb168 2.600 . S
N206 C208 1.359 . S
N206 C209 1.327 . S
C207 H193 0.931 . S
C207 C209 1.392 . S
C207 C210 1.370 . S
C208 C204 1.432 . S
C208 N206 1.359 . S
C208 C211 1.414 . S
C209 H191 0.930 . S
C209 N206 1.327 . S
C209 C207 1.392 . S
C210 H205 0.930 . S
C210 C207 1.370 . S
C210 C211 1.385 . S
C211 C208 1.414 . S
C211 C210 1.385 . S
C211 C233 1.444 . S
O212 Tb168 2.546 . S
O212 C232 1.251 . S
O213 Tb168 2.610 1_545 S
O213 Tb179 2.362 1_554 S
O213 C224 1.283 . S
O214 Tb179 2.421 . S
O214 C231 1.262 1_556 S
O215 Tb168 2.320 1_545 S
O215 C231 1.260 . S
O216 Tb168 2.552 1_545 S
O216 C224 1.243 . S
O217 Tb168 2.413 . S
O217 C232 1.256 . S
O218 Tb179 2.546 . S
O218 C243 1.251 . S
O219 Tb168 2.362 1_556 S
O219 Tb179 2.610 1_565 S
O219 C235 1.283 . S
O220 Tb168 2.421 . S
O220 C242 1.262 1_554 S
O221 Tb179 2.320 1_565 S
O221 C242 1.260 . S
O222 Tb179 2.552 1_565 S
O222 C235 1.243 . S
O223 Tb179 2.413 . S
O223 C243 1.256 . S
C224 O213 1.283 . S
C224 O216 1.243 . S
C225 C227 1.382 . S
C225 C229 1.393 . S
C225 C232 1.500 . S
C226 C227 1.400 . S
C226 C228 1.384 . S
C227 C225 1.382 . S
C227 C226 1.400 . S
C227 H244 0.934 . S
C228 C226 1.384 . S
C228 C230 1.392 . S
C228 H245 0.931 . S
C229 C225 1.393 . S
C229 C230 1.401 . S
C229 H246 0.930 . S
C230 C228 1.392 . S
C230 C229 1.401 . S
C230 H247 0.930 . S
C231 O214 1.262 1_554 S
C231 O215 1.260 . S
C232 Tb168 2.833 . S
C232 O212 1.251 . S
C232 O217 1.256 . S
C232 C225 1.500 . S
C233 H198 0.929 . S
C233 C211 1.444 . S
C233 C234 1.317 . S
C234 H196 0.930 . S
C234 C202 1.432 . S
C234 C233 1.317 . S
C235 O219 1.283 . S
C235 O222 1.243 . S
C236 C237 1.382 . S
C236 C240 1.393 . S
C236 C243 1.500 . S
C237 C236 1.382 . S
C237 C238 1.400 . S
C237 H248 0.938 . S
C238 C237 1.400 . S
C238 C239 1.384 . S
C239 C238 1.384 . S
C239 C241 1.392 . S
C239 H249 0.931 . S
C240 C236 1.393 . S
C240 C241 1.401 . S
C240 H250 0.930 . S
C241 C239 1.392 . S
C241 C240 1.401 . S
C241 H251 0.930 . S
C242 O220 1.262 1_556 S
C242 O221 1.260 . S
C243 Tb179 2.833 . S
C243 O218 1.251 . S
C243 O223 1.256 . S
C243 C236 1.500 . S
H244 C227 0.934 . S
H245 C228 0.931 . S
H246 C229 0.930 . S
H247 C230 0.930 . S
H248 C237 0.938 . S
H249 C239 0.931 . S
H250 C240 0.930 . S
H251 C241 0.930 . S
Tb252 N283 2.660 . S
Tb252 N290 2.600 . S
Tb252 O296 2.546 . S
Tb252 O297 2.610 . S
Tb252 O299 2.320 . S
Tb252 O300 2.552 . S
Tb252 O301 2.413 . S
Tb252 O303 2.362 . S
Tb252 O304 2.421 . S
Tb252 C316 2.833 . S
C253 C256 1.432 . S
C253 C257 1.414 . S
C253 N260 1.359 . S
C254 C256 1.417 . S
C254 C258 1.432 . S
C254 C266 1.410 . S
C255 C257 1.444 . S
C255 C258 1.317 . S
C255 H278 0.929 1_455 S
C256 C253 1.432 . S
C256 C254 1.417 . S
C256 N264 1.360 . S
C257 C253 1.414 . S
C257 C255 1.444 . S
C257 C262 1.385 . S
C258 C254 1.432 . S
C258 C255 1.317 . S
C258 H270 0.930 . S
C259 C261 1.392 . S
C259 C262 1.370 . S
C259 H271 0.931 . S
N260 C253 1.359 . S
N260 C261 1.327 . S
N260 Tb263 2.600 . S
C261 C259 1.392 . S
C261 N260 1.327 . S
C261 H268 0.930 . S
C262 C257 1.385 . S
C262 C259 1.370 . S
C262 H281 0.930 1_455 S
Tb263 N260 2.600 . S
Tb263 N264 2.660 . S
Tb263 O297 2.362 . S
Tb263 O298 2.421 . S
Tb263 O302 2.546 . S
Tb263 O303 2.610 . S
Tb263 O305 2.320 . S
Tb263 O306 2.552 . S
Tb263 O307 2.413 . S
Tb263 C327 2.833 . S
N264 C256 1.360 . S
N264 Tb263 2.660 . S
N264 C265 1.305 . S
C265 N264 1.305 . S
C265 C267 1.407 . S
C265 H272 0.930 . S
C266 C254 1.410 . S
C266 C267 1.345 . S
C266 H274 0.930 . S
C267 C265 1.407 . S
C267 C266 1.345 . S
C267 H269 0.930 . S
H268 C261 0.930 . S
H269 C267 0.930 . S
H270 C258 0.930 . S
H271 C259 0.931 . S
H272 C265 0.930 . S
H273 C287 0.930 . S
H274 C266 0.930 . S
H275 C293 0.930 . S
H276 C284 0.930 . S
H277 C291 0.931 . S
H278 C255 0.929 1_655 S
H279 C285 0.930 . S
H280 C318 0.930 . S
H281 C262 0.930 1_655 S
H282 C317 0.929 . S
N283 Tb252 2.660 . S
N283 C284 1.305 . S
N283 C288 1.360 . S
C284 H276 0.930 . S
C284 N283 1.305 . S
C284 C287 1.407 . S
C285 H279 0.930 . S
C285 C286 1.410 . S
C285 C287 1.345 . S
C286 C285 1.410 . S
C286 C288 1.417 . S
C286 C318 1.432 . S
C287 H273 0.930 . S
C287 C284 1.407 . S
C287 C285 1.345 . S
C288 N283 1.360 . S
C288 C286 1.417 . S
C288 C292 1.432 . S
H289 C294 0.930 . S
N290 Tb252 2.600 . S
N290 C292 1.359 . S
N290 C293 1.327 . S
C291 H277 0.931 . S
C291 C293 1.392 . S
C291 C294 1.370 . S
C292 C288 1.432 . S
C292 N290 1.359 . S
C292 C295 1.414 . S
C293 H275 0.930 . S
C293 N290 1.327 . S
C293 C291 1.392 . S
C294 H289 0.930 . S
C294 C291 1.370 . S
C294 C295 1.385 . S
C295 C292 1.414 . S
C295 C294 1.385 . S
C295 C317 1.444 . S
O296 Tb252 2.546 . S
O296 C316 1.251 . S
O297 Tb252 2.610 . S
O297 Tb263 2.362 . S
O297 C308 1.283 . S
O298 Tb263 2.421 . S
O298 C315 1.262 . S
O299 Tb252 2.320 . S
O299 C315 1.260 . S
O300 Tb252 2.552 . S
O300 C308 1.243 . S
O301 Tb252 2.413 . S
O301 C316 1.256 . S
O302 Tb263 2.546 . S
O302 C327 1.251 . S
O303 Tb252 2.362 . S
O303 Tb263 2.610 . S
O303 C319 1.283 . S
O304 Tb252 2.421 . S
O304 C326 1.262 . S
O305 Tb263 2.320 . S
O305 C326 1.260 . S
O306 Tb263 2.552 . S
O306 C319 1.243 . S
O307 Tb263 2.413 . S
O307 C327 1.256 . S
C308 O297 1.283 . S
C308 O300 1.243 . S
C309 C311 1.382 . S
C309 C313 1.393 . S
C309 C316 1.500 . S
C310 C311 1.400 . S
C310 C312 1.384 . S
C311 C309 1.382 . S
C311 C310 1.400 . S
C311 H328 0.930 . S
C312 C310 1.384 . S
C312 C314 1.392 . S
C312 H329 0.931 . S
C313 C309 1.393 . S
C313 C314 1.401 . S
C313 H330 0.930 . S
C314 C312 1.392 . S
C314 C313 1.401 . S
C314 H331 0.930 . S
C315 O298 1.262 . S
C315 O299 1.260 . S
C316 Tb252 2.833 . S
C316 O296 1.251 . S
C316 O301 1.256 . S
C316 C309 1.500 . S
C317 H282 0.929 . S
C317 C295 1.444 . S
C317 C318 1.317 . S
C318 H280 0.930 . S
C318 C286 1.432 . S
C318 C317 1.317 . S
C319 O303 1.283 . S
C319 O306 1.243 . S
C320 C321 1.382 . S
C320 C324 1.393 . S
C320 C327 1.500 1_556 S
C321 C320 1.382 . S
C321 C322 1.400 . S
C321 H332 0.930 . S
C322 C321 1.400 . S
C322 C323 1.384 . S
C323 C322 1.384 . S
C323 C325 1.392 . S
C323 H333 0.931 . S
C324 C320 1.393 . S
C324 C325 1.401 . S
C324 H334 0.930 . S
C325 C323 1.392 . S
C325 C324 1.401 . S
C325 H335 0.930 . S
C326 O304 1.262 . S
C326 O305 1.260 . S
C327 Tb263 2.833 . S
C327 O302 1.251 . S
C327 O307 1.256 . S
C327 C320 1.500 1_554 S
H328 C311 0.930 . S
H329 C312 0.931 . S
H330 C313 0.930 . S
H331 C314 0.930 . S
H332 C321 0.930 . S
H333 C323 0.931 . S
H334 C324 0.930 . S
H335 C325 0.930 . S
Tb336 N367 2.660 . S
Tb336 N374 2.600 . S
Tb336 O380 2.546 . S
Tb336 O381 2.610 . S
Tb336 O383 2.320 . S
Tb336 O384 2.552 . S
Tb336 O385 2.413 . S
Tb336 O387 2.362 . S
Tb336 O388 2.421 . S
Tb336 C400 2.833 . S
C337 C340 1.432 . S
C337 C341 1.414 . S
C337 N344 1.359 . S
C338 C340 1.417 . S
C338 C342 1.432 . S
C338 C350 1.410 . S
C339 C341 1.444 . S
C339 C342 1.317 . S
C339 H362 0.929 . S
C340 C337 1.432 . S
C340 C338 1.417 . S
C340 N348 1.360 . S
C341 C337 1.414 . S
C341 C339 1.444 . S
C341 C346 1.385 . S
C342 C338 1.432 . S
C342 C339 1.317 . S
C342 H354 0.930 . S
C343 C345 1.392 . S
C343 C346 1.370 . S
C343 H355 0.931 . S
N344 C337 1.359 . S
N344 C345 1.327 . S
N344 Tb347 2.600 . S
C345 C343 1.392 . S
C345 N344 1.327 . S
C345 H352 0.930 . S
C346 C341 1.385 . S
C346 C343 1.370 . S
C346 H365 0.930 . S
Tb347 N344 2.600 . S
Tb347 N348 2.660 . S
Tb347 O381 2.362 . S
Tb347 O382 2.421 . S
Tb347 O386 2.546 . S
Tb347 O387 2.610 . S
Tb347 O389 2.320 . S
Tb347 O390 2.552 . S
Tb347 O391 2.413 . S
Tb347 C411 2.833 . S
N348 C340 1.360 . S
N348 Tb347 2.660 . S
N348 C349 1.305 . S
C349 N348 1.305 . S
C349 C351 1.407 . S
C349 H356 0.930 . S
C350 C338 1.410 . S
C350 C351 1.345 . S
C350 H358 0.930 . S
C351 C349 1.407 . S
C351 C350 1.345 . S
C351 H353 0.930 . S
H352 C345 0.930 . S
H353 C351 0.930 . S
H354 C342 0.930 . S
H355 C343 0.931 . S
H356 C349 0.930 . S
H357 C371 0.930 . S
H358 C350 0.930 . S
H359 C377 0.930 . S
H360 C368 0.930 . S
H361 C375 0.931 . S
H362 C339 0.929 . S
H363 C369 0.930 . S
H364 C402 0.930 . S
H365 C346 0.930 . S
H366 C401 0.929 1_455 S
N367 Tb336 2.660 . S
N367 C368 1.305 . S
N367 C372 1.360 . S
C368 H360 0.930 . S
C368 N367 1.305 . S
C368 C371 1.407 . S
C369 H363 0.930 . S
C369 C370 1.410 . S
C369 C371 1.345 . S
C370 C369 1.410 . S
C370 C372 1.417 . S
C370 C402 1.432 . S
C371 H357 0.930 . S
C371 C368 1.407 . S
C371 C369 1.345 . S
C372 N367 1.360 . S
C372 C370 1.417 . S
C372 C376 1.432 . S
H373 C378 0.930 1_455 S
N374 Tb336 2.600 . S
N374 C376 1.359 . S
N374 C377 1.327 . S
C375 H361 0.931 . S
C375 C377 1.392 . S
C375 C378 1.370 . S
C376 C372 1.432 . S
C376 N374 1.359 . S
C376 C379 1.414 . S
C377 H359 0.930 . S
C377 N374 1.327 . S
C377 C375 1.392 . S
C378 H373 0.930 1_655 S
C378 C375 1.370 . S
C378 C379 1.385 . S
C379 C376 1.414 . S
C379 C378 1.385 . S
C379 C401 1.444 . S
O380 Tb336 2.546 . S
O380 C400 1.251 . S
O381 Tb336 2.610 . S
O381 Tb347 2.362 . S
O381 C392 1.283 . S
O382 Tb347 2.421 . S
O382 C399 1.262 . S
O383 Tb336 2.320 . S
O383 C399 1.260 . S
O384 Tb336 2.552 . S
O384 C392 1.243 . S
O385 Tb336 2.413 . S
O385 C400 1.256 . S
O386 Tb347 2.546 . S
O386 C411 1.251 . S
O387 Tb336 2.362 . S
O387 Tb347 2.610 . S
O387 C403 1.283 . S
O388 Tb336 2.421 . S
O388 C410 1.262 . S
O389 Tb347 2.320 . S
O389 C410 1.260 . S
O390 Tb347 2.552 . S
O390 C403 1.243 . S
O391 Tb347 2.413 . S
O391 C411 1.256 . S
C392 O381 1.283 . S
C392 O384 1.243 . S
C393 C395 1.382 . S
C393 C397 1.393 . S
C393 C400 1.500 1_556 S
C394 C395 1.400 . S
C394 C396 1.384 . S
C395 C393 1.382 . S
C395 C394 1.400 . S
C395 H412 0.930 . S
C396 C394 1.384 . S
C396 C398 1.392 . S
C396 H413 0.931 . S
C397 C393 1.393 . S
C397 C398 1.401 . S
C397 H414 0.930 . S
C398 C396 1.392 . S
C398 C397 1.401 . S
C398 H415 0.930 . S
C399 O382 1.262 . S
C399 O383 1.260 . S
C400 Tb336 2.833 . S
C400 O380 1.251 . S
C400 O385 1.256 . S
C400 C393 1.500 1_554 S
C401 H366 0.929 1_655 S
C401 C379 1.444 . S
C401 C402 1.317 . S
C402 H364 0.930 . S
C402 C370 1.432 . S
C402 C401 1.317 . S
C403 O387 1.283 . S
C403 O390 1.243 . S
C404 C405 1.382 . S
C404 C408 1.393 . S
C404 C411 1.500 . S
C405 C404 1.382 . S
C405 C406 1.400 . S
C405 H416 0.930 . S
C406 C405 1.400 . S
C406 C407 1.384 . S
C407 C406 1.384 . S
C407 C409 1.392 . S
C407 H417 0.931 . S
C408 C404 1.393 . S
C408 C409 1.401 . S
C408 H418 0.930 . S
C409 C407 1.392 . S
C409 C408 1.401 . S
C409 H419 0.930 . S
C410 O388 1.262 . S
C410 O389 1.260 . S
C411 Tb347 2.833 . S
C411 O386 1.251 . S
C411 O391 1.256 . S
C411 C404 1.500 . S
H412 C395 0.930 . S
H413 C396 0.931 . S
H414 C397 0.930 . S
H415 C398 0.930 . S
H416 C405 0.930 . S
H417 C407 0.931 . S
H418 C408 0.930 . S
H419 C409 0.930 . S
Tb420 N451 2.660 . S
Tb420 N458 2.600 . S
Tb420 O464 2.546 . S
Tb420 O465 2.610 . S
Tb420 O467 2.320 . S
Tb420 O468 2.552 . S
Tb420 O469 2.413 . S
Tb420 O471 2.362 . S
Tb420 O472 2.421 . S
Tb420 C484 2.833 . S
C421 C424 1.432 . S
C421 C425 1.414 . S
C421 N428 1.359 . S
C422 C424 1.417 . S
C422 C426 1.432 . S
C422 C434 1.410 . S
C423 C425 1.444 . S
C423 C426 1.317 . S
C423 H446 0.929 . S
C424 C421 1.432 . S
C424 C422 1.417 . S
C424 N432 1.360 . S
C425 C421 1.414 . S
C425 C423 1.444 . S
C425 C430 1.385 . S
C426 C422 1.432 . S
C426 C423 1.317 . S
C426 H438 0.930 . S
C427 C429 1.392 . S
C427 C430 1.370 . S
C427 H439 0.931 . S
N428 C421 1.359 . S
N428 C429 1.327 . S
N428 Tb431 2.600 . S
C429 C427 1.392 . S
C429 N428 1.327 . S
C429 H436 0.930 . S
C430 C425 1.385 . S
C430 C427 1.370 . S
C430 H449 0.930 . S
Tb431 N428 2.600 . S
Tb431 N432 2.660 . S
Tb431 O465 2.362 . S
Tb431 O466 2.421 . S
Tb431 O470 2.546 . S
Tb431 O471 2.610 . S
Tb431 O473 2.320 . S
Tb431 O474 2.552 . S
Tb431 O475 2.413 . S
Tb431 C495 2.833 . S
N432 C424 1.360 . S
N432 Tb431 2.660 . S
N432 C433 1.305 . S
C433 N432 1.305 . S
C433 C435 1.407 . S
C433 H440 0.930 . S
C434 C422 1.410 . S
C434 C435 1.345 . S
C434 H442 0.930 . S
C435 C433 1.407 . S
C435 C434 1.345 . S
C435 H437 0.930 . S
H436 C429 0.930 . S
H437 C435 0.930 . S
H438 C426 0.930 . S
H439 C427 0.931 . S
H440 C433 0.930 . S
H441 C455 0.930 . S
H442 C434 0.930 . S
H443 C461 0.930 . S
H444 C452 0.930 . S
H445 C459 0.931 . S
H446 C423 0.929 . S
H447 C453 0.930 . S
H448 C486 0.930 . S
H449 C430 0.930 . S
H450 C485 0.929 1_455 S
N451 Tb420 2.660 . S
N451 C452 1.305 . S
N451 C456 1.360 . S
C452 H444 0.930 . S
C452 N451 1.305 . S
C452 C455 1.407 . S
C453 H447 0.930 . S
C453 C454 1.410 . S
C453 C455 1.345 . S
C454 C453 1.410 . S
C454 C456 1.417 . S
C454 C486 1.432 . S
C455 H441 0.930 . S
C455 C452 1.407 . S
C455 C453 1.345 . S
C456 N451 1.360 . S
C456 C454 1.417 . S
C456 C460 1.432 . S
H457 C462 0.930 1_455 S
N458 Tb420 2.600 . S
N458 C460 1.359 . S
N458 C461 1.327 . S
C459 H445 0.931 . S
C459 C461 1.392 . S
C459 C462 1.370 . S
C460 C456 1.432 . S
C460 N458 1.359 . S
C460 C463 1.414 . S
C461 H443 0.930 . S
C461 N458 1.327 . S
C461 C459 1.392 . S
C462 H457 0.930 1_655 S
C462 C459 1.370 . S
C462 C463 1.385 . S
C463 C460 1.414 . S
C463 C462 1.385 . S
C463 C485 1.444 . S
O464 Tb420 2.546 . S
O464 C484 1.251 . S
O465 Tb420 2.610 . S
O465 Tb431 2.362 . S
O465 C476 1.283 . S
O466 Tb431 2.421 . S
O466 C483 1.262 . S
O467 Tb420 2.320 . S
O467 C483 1.260 . S
O468 Tb420 2.552 . S
O468 C476 1.243 . S
O469 Tb420 2.413 . S
O469 C484 1.256 . S
O470 Tb431 2.546 . S
O470 C495 1.251 . S
O471 Tb420 2.362 . S
O471 Tb431 2.610 . S
O471 C487 1.283 . S
O472 Tb420 2.421 . S
O472 C494 1.262 . S
O473 Tb431 2.320 . S
O473 C494 1.260 . S
O474 Tb431 2.552 . S
O474 C487 1.243 . S
O475 Tb431 2.413 . S
O475 C495 1.256 . S
C476 O465 1.283 . S
C476 O468 1.243 . S
C477 C479 1.382 . S
C477 C481 1.393 . S
C477 C484 1.500 1_554 S
C478 C479 1.400 . S
C478 C480 1.384 . S
C479 C477 1.382 . S
C479 C478 1.400 . S
C479 H496 0.930 . S
C480 C478 1.384 . S
C480 C482 1.392 . S
C480 H497 0.931 . S
C481 C477 1.393 . S
C481 C482 1.401 . S
C481 H498 0.930 . S
C482 C480 1.392 . S
C482 C481 1.401 . S
C482 H499 0.930 . S
C483 O466 1.262 . S
C483 O467 1.260 . S
C484 Tb420 2.833 . S
C484 O464 1.251 . S
C484 O469 1.256 . S
C484 C477 1.500 1_556 S
C485 H450 0.929 1_655 S
C485 C463 1.444 . S
C485 C486 1.317 . S
C486 H448 0.930 . S
C486 C454 1.432 . S
C486 C485 1.317 . S
C487 O471 1.283 . S
C487 O474 1.243 . S
C488 C489 1.382 . S
C488 C492 1.393 . S
C488 C495 1.500 . S
C489 C488 1.382 . S
C489 C490 1.400 . S
C489 H500 0.930 . S
C490 C489 1.400 . S
C490 C491 1.384 . S
C491 C490 1.384 . S
C491 C493 1.392 . S
C491 H501 0.931 . S
C492 C488 1.393 . S
C492 C493 1.401 . S
C492 H502 0.930 . S
C493 C491 1.392 . S
C493 C492 1.401 . S
C493 H503 0.930 . S
C494 O472 1.262 . S
C494 O473 1.260 . S
C495 Tb431 2.833 . S
C495 O470 1.251 . S
C495 O475 1.256 . S
C495 C488 1.500 . S
H496 C479 0.930 . S
H497 C480 0.931 . S
H498 C481 0.930 . S
H499 C482 0.930 . S
H500 C489 0.930 . S
H501 C491 0.931 . S
H502 C492 0.930 . S
H503 C493 0.930 . S
Tb504 N535 2.660 . S
Tb504 N542 2.600 . S
Tb504 O548 2.546 . S
Tb504 O549 2.610 . S
Tb504 O551 2.320 . S
Tb504 O552 2.552 . S
Tb504 O553 2.413 . S
Tb504 O555 2.362 1_556 S
Tb504 O556 2.421 . S
Tb504 C568 2.833 . S
C505 C508 1.432 . S
C505 C509 1.414 . S
C505 N512 1.359 . S
C506 C508 1.417 . S
C506 C510 1.432 . S
C506 C518 1.410 . S
C507 C509 1.444 . S
C507 C510 1.317 . S
C507 H530 0.929 . S
C508 C505 1.432 . S
C508 C506 1.417 . S
C508 N516 1.360 . S
C509 C505 1.414 . S
C509 C507 1.444 . S
C509 C514 1.385 . S
C510 C506 1.432 . S
C510 C507 1.317 . S
C510 H522 0.930 . S
C511 C513 1.392 . S
C511 C514 1.370 . S
C511 H523 0.931 . S
N512 C505 1.359 . S
N512 C513 1.327 . S
N512 Tb515 2.600 . S
C513 C511 1.392 . S
C513 N512 1.327 . S
C513 H520 0.930 . S
C514 C509 1.385 . S
C514 C511 1.370 . S
C514 H533 0.930 . S
Tb515 N512 2.600 . S
Tb515 N516 2.660 . S
Tb515 O549 2.362 1_554 S
Tb515 O550 2.421 . S
Tb515 O554 2.546 . S
Tb515 O555 2.610 . S
Tb515 O557 2.320 . S
Tb515 O558 2.552 . S
Tb515 O559 2.413 . S
Tb515 C579 2.833 . S
N516 C508 1.360 . S
N516 Tb515 2.660 . S
N516 C517 1.305 . S
C517 N516 1.305 . S
C517 C519 1.407 . S
C517 H524 0.930 . S
C518 C506 1.410 . S
C518 C519 1.345 . S
C518 H526 0.930 . S
C519 C517 1.407 . S
C519 C518 1.345 . S
C519 H521 0.930 . S
H520 C513 0.930 . S
H521 C519 0.930 . S
H522 C510 0.930 . S
H523 C511 0.931 . S
H524 C517 0.930 . S
H525 C539 0.930 . S
H526 C518 0.930 . S
H527 C545 0.930 . S
H528 C536 0.930 . S
H529 C543 0.931 . S
H530 C507 0.929 . S
H531 C537 0.930 . S
H532 C570 0.930 . S
H533 C514 0.930 . S
H534 C569 0.929 . S
N535 Tb504 2.660 . S
N535 C536 1.305 . S
N535 C540 1.360 . S
C536 H528 0.930 . S
C536 N535 1.305 . S
C536 C539 1.407 . S
C537 H531 0.930 . S
C537 C538 1.410 . S
C537 C539 1.345 . S
C538 C537 1.410 . S
C538 C540 1.417 . S
C538 C570 1.432 . S
C539 H525 0.930 . S
C539 C536 1.407 . S
C539 C537 1.345 . S
C540 N535 1.360 . S
C540 C538 1.417 . S
C540 C544 1.432 . S
H541 C546 0.930 . S
N542 Tb504 2.600 . S
N542 C544 1.359 . S
N542 C545 1.327 . S
C543 H529 0.931 . S
C543 C545 1.392 . S
C543 C546 1.370 . S
C544 C540 1.432 . S
C544 N542 1.359 . S
C544 C547 1.414 . S
C545 H527 0.930 . S
C545 N542 1.327 . S
C545 C543 1.392 . S
C546 H541 0.930 . S
C546 C543 1.370 . S
C546 C547 1.385 . S
C547 C544 1.414 . S
C547 C546 1.385 . S
C547 C569 1.444 . S
O548 Tb504 2.546 . S
O548 C568 1.251 . S
O549 Tb504 2.610 . S
O549 Tb515 2.362 1_556 S
O549 C560 1.283 . S
O550 Tb515 2.421 . S
O550 C567 1.262 1_554 S
O551 Tb504 2.320 . S
O551 C567 1.260 . S
O552 Tb504 2.552 . S
O552 C560 1.243 . S
O553 Tb504 2.413 . S
O553 C568 1.256 . S
O554 Tb515 2.546 . S
O554 C579 1.251 . S
O555 Tb504 2.362 1_554 S
O555 Tb515 2.610 . S
O555 C571 1.283 . S
O556 Tb504 2.421 . S
O556 C578 1.262 1_556 S
O557 Tb515 2.320 . S
O557 C578 1.260 . S
O558 Tb515 2.552 . S
O558 C571 1.243 . S
O559 Tb515 2.413 . S
O559 C579 1.256 . S
C560 O549 1.283 . S
C560 O552 1.243 . S
C561 C563 1.382 . S
C561 C565 1.393 . S
C561 C568 1.500 . S
C562 C563 1.400 . S
C562 C564 1.384 . S
C563 C561 1.382 . S
C563 C562 1.400 . S
C563 H580 0.930 . S
C564 C562 1.384 . S
C564 C566 1.392 . S
C564 H581 0.931 . S
C565 C561 1.393 . S
C565 C566 1.401 . S
C565 H582 0.930 . S
C566 C564 1.392 . S
C566 C565 1.401 . S
C566 H583 0.930 . S
C567 O550 1.262 1_556 S
C567 O551 1.260 . S
C568 Tb504 2.833 . S
C568 O548 1.251 . S
C568 O553 1.256 . S
C568 C561 1.500 . S
C569 H534 0.929 . S
C569 C547 1.444 . S
C569 C570 1.317 . S
C570 H532 0.930 . S
C570 C538 1.432 . S
C570 C569 1.317 . S
C571 O555 1.283 . S
C571 O558 1.243 . S
C572 C573 1.382 . S
C572 C576 1.393 . S
C572 C579 1.500 . S
C573 C572 1.382 . S
C573 C574 1.400 . S
C573 H584 0.930 . S
C574 C573 1.400 . S
C574 C575 1.384 . S
C575 C574 1.384 . S
C575 C577 1.392 . S
C575 H585 0.931 . S
C576 C572 1.393 . S
C576 C577 1.401 . S
C576 H586 0.930 . S
C577 C575 1.392 . S
C577 C576 1.401 . S
C577 H587 0.930 . S
C578 O556 1.262 1_554 S
C578 O557 1.260 . S
C579 Tb515 2.833 . S
C579 O554 1.251 . S
C579 O559 1.256 . S
C579 C572 1.500 . S
H580 C563 0.930 . S
H581 C564 0.931 . S
H582 C565 0.930 . S
H583 C566 0.930 . S
H584 C573 0.930 . S
H585 C575 0.931 . S
H586 C576 0.930 . S
H587 C577 0.930 . S
Tb588 N619 2.655 1_655 S
Tb588 N626 2.600 1_655 S
Tb588 O632 2.548 . S
Tb588 O633 2.611 . S
Tb588 O635 2.316 1_655 S
Tb588 O636 2.556 . S
Tb588 O637 2.412 1_655 S
Tb588 O639 2.360 1_655 S
Tb588 O640 2.425 . S
Tb588 C652 2.834 . S
C589 C592 1.432 . S
C589 C593 1.414 . S
C589 N596 1.359 . S
C590 C592 1.417 . S
C590 C594 1.432 . S
C590 C602 1.410 . S
C591 C593 1.444 . S
C591 C594 1.317 . S
C591 H614 0.929 . S
C592 C589 1.432 . S
C592 C590 1.417 . S
C592 N600 1.360 . S
C593 C589 1.414 . S
C593 C591 1.444 . S
C593 C598 1.385 . S
C594 C590 1.432 . S
C594 C591 1.317 . S
C594 H606 0.930 . S
C595 C597 1.392 . S
C595 C598 1.370 1_455 S
C595 H607 0.931 . S
N596 C589 1.359 . S
N596 C597 1.327 1_655 S
N596 Tb599 2.600 1_655 S
C597 C595 1.392 . S
C597 N596 1.327 1_455 S
C597 H604 0.930 . S
C598 C593 1.385 . S
C598 C595 1.370 1_655 S
C598 H617 0.930 . S
Tb599 N596 2.600 1_455 S
Tb599 N600 2.650 1_455 S
Tb599 O633 2.358 1_455 S
Tb599 O634 2.429 . S
Tb599 O638 2.551 . S
Tb599 O639 2.613 . S
Tb599 O641 2.313 1_455 S
Tb599 O642 2.559 . S
Tb599 O643 2.411 1_455 S
Tb599 C663 2.834 . S
N600 C592 1.360 . S
N600 Tb599 2.650 1_655 S
N600 C601 1.305 . S
C601 N600 1.305 . S
C601 C603 1.407 . S
C601 H608 0.930 . S
C602 C590 1.410 . S
C602 C603 1.345 . S
C602 H610 0.930 . S
C603 C601 1.407 . S
C603 C602 1.345 . S
C603 H605 0.930 . S
H604 C597 0.930 . S
H605 C603 0.930 . S
H606 C594 0.930 . S
H607 C595 0.931 . S
H608 C601 0.930 . S
H609 C623 0.930 . S
H610 C602 0.930 . S
H611 C629 0.930 . S
H612 C620 0.930 . S
H613 C627 0.931 . S
H614 C591 0.929 . S
H615 C621 0.930 . S
H616 C654 0.930 . S
H617 C598 0.930 . S
H618 C653 0.929 . S
N619 Tb588 2.655 1_455 S
N619 C620 1.305 . S
N619 C624 1.360 . S
C620 H612 0.930 . S
C620 N619 1.305 . S
C620 C623 1.407 . S
C621 H615 0.930 . S
C621 C622 1.410 . S
C621 C623 1.345 . S
C622 C621 1.410 . S
C622 C624 1.417 . S
C622 C654 1.432 . S
C623 H609 0.930 . S
C623 C620 1.407 . S
C623 C621 1.345 . S
C624 N619 1.360 . S
C624 C622 1.417 . S
C624 C628 1.432 . S
H625 C630 0.930 . S
N626 Tb588 2.600 1_455 S
N626 C628 1.359 . S
N626 C629 1.327 1_455 S
C627 H613 0.931 . S
C627 C629 1.392 . S
C627 C630 1.370 1_655 S
C628 C624 1.432 . S
C628 N626 1.359 . S
C628 C631 1.414 . S
C629 H611 0.930 . S
C629 N626 1.327 1_655 S
C629 C627 1.392 . S
C630 H625 0.930 . S
C630 C627 1.370 1_455 S
C630 C631 1.385 . S
C631 C628 1.414 . S
C631 C630 1.385 . S
C631 C653 1.444 . S
O632 Tb588 2.548 . S
O632 C652 1.251 . S
O633 Tb588 2.611 . S
O633 Tb599 2.358 1_655 S
O633 C644 1.283 . S
O634 Tb599 2.429 . S
O634 C651 1.262 . S
O635 Tb588 2.316 1_455 S
O635 C651 1.260 . S
O636 Tb588 2.556 . S
O636 C644 1.243 . S
O637 Tb588 2.412 1_455 S
O637 C652 1.256 1_455 S
O638 Tb599 2.551 . S
O638 C663 1.251 . S
O639 Tb588 2.360 1_455 S
O639 Tb599 2.613 . S
O639 C655 1.283 . S
O640 Tb588 2.425 . S
O640 C662 1.262 . S
O641 Tb599 2.313 1_655 S
O641 C662 1.260 . S
O642 Tb599 2.559 . S
O642 C655 1.243 . S
O643 Tb599 2.411 1_655 S
O643 C663 1.256 1_655 S
C644 O633 1.283 . S
C644 O636 1.243 . S
C645 C647 1.382 . S
C645 C649 1.393 . S
C645 C652 1.500 . S
C646 C647 1.400 . S
C646 C648 1.384 . S
C647 C645 1.382 . S
C647 C646 1.400 . S
C647 H664 0.930 1_655 S
C648 C646 1.384 . S
C648 C650 1.392 . S
C648 H665 0.931 . S
C649 C645 1.393 . S
C649 C650 1.401 . S
C649 H666 0.930 . S
C650 C648 1.392 . S
C650 C649 1.401 . S
C650 H667 0.930 . S
C651 O634 1.262 . S
C651 O635 1.260 . S
C652 Tb588 2.834 . S
C652 O632 1.251 . S
C652 O637 1.256 1_655 S
C652 C645 1.500 . S
C653 H618 0.929 . S
C653 C631 1.444 . S
C653 C654 1.317 . S
C654 H616 0.930 . S
C654 C622 1.432 . S
C654 C653 1.317 . S
C655 O639 1.283 . S
C655 O642 1.243 . S
C656 C657 1.382 . S
C656 C660 1.393 . S
C656 C663 1.500 . S
C657 C656 1.382 . S
C657 C658 1.400 . S
C657 H668 0.930 1_455 S
C658 C657 1.400 . S
C658 C659 1.384 . S
C659 C658 1.384 . S
C659 C661 1.392 . S
C659 H669 0.931 . S
C660 C656 1.393 . S
C660 C661 1.401 . S
C660 H670 0.930 . S
C661 C659 1.392 . S
C661 C660 1.401 . S
C661 H671 0.930 . S
C662 O640 1.262 . S
C662 O641 1.260 . S
C663 Tb599 2.834 . S
C663 O638 1.251 . S
C663 O643 1.256 1_455 S
C663 C656 1.500 . S
H664 C647 0.930 1_455 S
H665 C648 0.931 . S
H666 C649 0.930 . S
H667 C650 0.930 . S
H668 C657 0.930 1_655 S
H669 C659 0.931 . S
H670 C660 0.930 . S
H671 C661 0.930 . S
C672 C673 1.363 . S
C672 C678 1.379 . S
C672 N680 1.356 . S
C673 C672 1.363 . S
C673 C679 1.363 . S
C674 C675 1.363 . S
C674 C679 1.379 . S
C674 N681 1.356 . S
C675 C674 1.363 . S
C675 C678 1.363 . S
N676 C678 1.356 . S
N676 H688 0.984 . S
N676 H689 0.985 . S
N677 C679 1.356 . S
N677 H682 0.984 . S
N677 H683 0.985 . S
C678 C672 1.379 . S
C678 C675 1.363 . S
C678 N676 1.356 . S
C679 C673 1.363 . S
C679 C674 1.379 . S
C679 N677 1.356 . S
N680 C672 1.356 . S
N680 H686 0.984 . S
N680 H687 0.984 . S
N681 C674 1.356 . S
N681 H684 0.984 . S
N681 H685 0.985 . S
H682 N677 0.984 . S
H683 N677 0.985 . S
H684 N681 0.984 . S
H685 N681 0.985 . S
H686 N680 0.984 . S
H687 N680 0.984 . S
H688 N676 0.984 . S
H689 N676 0.985 . S
C690 C691 1.363 . S
C690 C696 1.379 . S
C690 N698 1.356 . S
C691 C690 1.363 . S
C691 C697 1.363 . S
C692 C693 1.363 . S
C692 C697 1.379 . S
C692 N699 1.356 . S
C693 C692 1.363 . S
C693 C696 1.363 . S
N694 C696 1.356 . S
N694 H706 0.984 . S
N694 H707 0.985 . S
N695 C697 1.356 . S
N695 H700 0.984 . S
N695 H701 0.985 . S
C696 C690 1.379 . S
C696 C693 1.363 . S
C696 N694 1.356 . S
C697 C691 1.363 . S
C697 C692 1.379 . S
C697 N695 1.356 . S
N698 C690 1.356 . S
N698 H704 0.984 . S
N698 H705 0.984 . S
N699 C692 1.356 . S
N699 H702 0.984 . S
N699 H703 0.985 . S
H700 N695 0.984 . S
H701 N695 0.985 . S
H702 N699 0.984 . S
H703 N699 0.985 . S
H704 N698 0.984 . S
H705 N698 0.984 . S
H706 N694 0.984 . S
H707 N694 0.985 . S
C708 C709 1.363 . S
C708 C714 1.379 . S
C708 N716 1.356 . S
C709 C708 1.363 . S
C709 C715 1.363 . S
C710 C711 1.363 . S
C710 C715 1.379 . S
C710 N717 1.356 . S
C711 C710 1.363 . S
C711 C714 1.363 . S
N712 C714 1.356 . S
N712 H724 0.984 . S
N712 H725 0.985 . S
N713 C715 1.356 . S
N713 H718 0.984 . S
N713 H719 0.985 . S
C714 C708 1.379 . S
C714 C711 1.363 . S
C714 N712 1.356 . S
C715 C709 1.363 . S
C715 C710 1.379 . S
C715 N713 1.356 . S
N716 C708 1.356 . S
N716 H722 0.984 . S
N716 H723 0.984 . S
N717 C710 1.356 . S
N717 H720 0.984 . S
N717 H721 0.985 . S
H718 N713 0.984 . S
H719 N713 0.985 . S
H720 N717 0.984 . S
H721 N717 0.985 . S
H722 N716 0.984 . S
H723 N716 0.984 . S
H724 N712 0.984 . S
H725 N712 0.985 . S
C726 C727 1.363 . S
C726 C732 1.379 . S
C726 N734 1.356 . S
C727 C726 1.363 . S
C727 C733 1.363 . S
C728 C729 1.363 . S
C728 C733 1.379 . S
C728 N735 1.356 . S
C729 C728 1.363 . S
C729 C732 1.363 . S
N730 C732 1.356 . S
N730 H742 0.984 . S
N730 H743 0.985 . S
N731 C733 1.356 . S
N731 H736 0.984 . S
N731 H737 0.985 . S
C732 C726 1.379 . S
C732 C729 1.363 . S
C732 N730 1.356 . S
C733 C727 1.363 . S
C733 C728 1.379 . S
C733 N731 1.356 . S
N734 C726 1.356 . S
N734 H740 0.984 . S
N734 H741 0.984 . S
N735 C728 1.356 . S
N735 H738 0.984 . S
N735 H739 0.985 . S
H736 N731 0.984 . S
H737 N731 0.985 . S
H738 N735 0.984 . S
H739 N735 0.985 . S
H740 N734 0.984 . S
H741 N734 0.984 . S
H742 N730 0.984 . S
H743 N730 0.985 . S
C744 C745 1.363 . S
C744 C750 1.379 . S
C744 N752 1.356 . S
C745 C744 1.363 . S
C745 C751 1.363 . S
C746 C747 1.363 . S
C746 C751 1.379 . S
C746 N753 1.356 . S
C747 C746 1.363 . S
C747 C750 1.363 . S
N748 C750 1.356 . S
N748 H760 0.984 . S
N748 H761 0.985 . S
N749 C751 1.356 . S
N749 H754 0.984 . S
N749 H755 0.985 . S
C750 C744 1.379 . S
C750 C747 1.363 . S
C750 N748 1.356 . S
C751 C745 1.363 . S
C751 C746 1.379 . S
C751 N749 1.356 . S
N752 C744 1.356 . S
N752 H758 0.984 . S
N752 H759 0.984 . S
N753 C746 1.356 . S
N753 H756 0.984 . S
N753 H757 0.985 . S
H754 N749 0.984 . S
H755 N749 0.985 . S
H756 N753 0.984 . S
H757 N753 0.985 . S
H758 N752 0.984 . S
H759 N752 0.984 . S
H760 N748 0.984 . S
H761 N748 0.985 . S
C762 C763 1.363 . S
C762 C768 1.379 . S
C762 N770 1.356 . S
C763 C762 1.363 . S
C763 C769 1.363 . S
C764 C765 1.363 . S
C764 C769 1.379 . S
C764 N771 1.356 . S
C765 C764 1.363 . S
C765 C768 1.363 . S
N766 C768 1.356 . S
N766 H778 0.984 . S
N766 H779 0.985 . S
N767 C769 1.356 . S
N767 H772 0.984 . S
N767 H773 0.985 . S
C768 C762 1.379 . S
C768 C765 1.363 . S
C768 N766 1.356 . S
C769 C763 1.363 . S
C769 C764 1.379 . S
C769 N767 1.356 . S
N770 C762 1.356 . S
N770 H776 0.984 . S
N770 H777 0.984 . S
N771 C764 1.356 . S
N771 H774 0.984 . S
N771 H775 0.985 . S
H772 N767 0.984 . S
H773 N767 0.985 . S
H774 N771 0.984 . S
H775 N771 0.985 . S
H776 N770 0.984 . S
H777 N770 0.984 . S
H778 N766 0.984 . S
H779 N766 0.985 . S
C780 C781 1.363 . S
C780 C786 1.379 . S
C780 N788 1.356 . S
C781 C780 1.363 . S
C781 C787 1.363 . S
C782 C783 1.363 . S
C782 C787 1.379 . S
C782 N789 1.356 . S
C783 C782 1.363 . S
C783 C786 1.363 . S
N784 C786 1.356 . S
N784 H796 0.984 . S
N784 H797 0.985 . S
N785 C787 1.356 . S
N785 H790 0.984 . S
N785 H791 0.985 . S
C786 C780 1.379 . S
C786 C783 1.363 . S
C786 N784 1.356 . S
C787 C781 1.363 . S
C787 C782 1.379 . S
C787 N785 1.356 . S
N788 C780 1.356 . S
N788 H794 0.984 . S
N788 H795 0.984 . S
N789 C782 1.356 . S
N789 H792 0.984 . S
N789 H793 0.985 . S
H790 N785 0.984 . S
H791 N785 0.985 . S
H792 N789 0.984 . S
H793 N789 0.985 . S
H794 N788 0.984 . S
H795 N788 0.984 . S
H796 N784 0.984 . S
H797 N784 0.985 . S
C798 C799 1.363 . S
C798 C804 1.379 . S
C798 N806 1.356 . S
C799 C798 1.363 . S
C799 C805 1.363 . S
C800 C801 1.363 . S
C800 C805 1.379 . S
C800 N807 1.356 . S
C801 C800 1.363 . S
C801 C804 1.363 . S
N802 C804 1.356 . S
N802 H814 0.984 . S
N802 H815 0.985 . S
N803 C805 1.356 . S
N803 H808 0.984 . S
N803 H809 0.985 . S
C804 C798 1.379 . S
C804 C801 1.363 . S
C804 N802 1.356 . S
C805 C799 1.363 . S
C805 C800 1.379 . S
C805 N803 1.356 . S
N806 C798 1.356 . S
N806 H812 0.984 . S
N806 H813 0.984 . S
N807 C800 1.356 . S
N807 H810 0.984 . S
N807 H811 0.985 . S
H808 N803 0.984 . S
H809 N803 0.985 . S
H810 N807 0.984 . S
H811 N807 0.985 . S
H812 N806 0.984 . S
H813 N806 0.984 . S
H814 N802 0.984 . S
H815 N802 0.985 . S
C816 C817 1.363 . S
C816 C822 1.379 . S
C816 N824 1.356 . S
C817 C816 1.363 . S
C817 C823 1.363 . S
C818 C819 1.363 . S
C818 C823 1.379 . S
C818 N825 1.356 . S
C819 C818 1.363 . S
C819 C822 1.363 . S
N820 C822 1.356 . S
N820 H832 0.984 . S
N820 H833 0.985 . S
N821 C823 1.356 . S
N821 H826 0.984 . S
N821 H827 0.985 . S
C822 C816 1.379 . S
C822 C819 1.363 . S
C822 N820 1.356 . S
C823 C817 1.363 . S
C823 C818 1.379 . S
C823 N821 1.356 . S
N824 C816 1.356 . S
N824 H830 0.984 . S
N824 H831 0.984 . S
N825 C818 1.356 . S
N825 H828 0.984 . S
N825 H829 0.985 . S
H826 N821 0.984 . S
H827 N821 0.985 . S
H828 N825 0.984 . S
H829 N825 0.985 . S
H830 N824 0.984 . S
H831 N824 0.984 . S
H832 N820 0.984 . S
H833 N820 0.985 . S
C834 C835 1.363 . S
C834 C840 1.379 . S
C834 N842 1.356 . S
C835 C834 1.363 . S
C835 C841 1.363 . S
C836 C837 1.363 . S
C836 C841 1.379 . S
C836 N843 1.356 . S
C837 C836 1.363 . S
C837 C840 1.363 . S
N838 C840 1.356 . S
N838 H850 0.984 . S
N838 H851 0.985 . S
N839 C841 1.356 . S
N839 H844 0.984 . S
N839 H845 0.985 . S
C840 C834 1.379 . S
C840 C837 1.363 . S
C840 N838 1.356 . S
C841 C835 1.363 . S
C841 C836 1.379 . S
C841 N839 1.356 . S
N842 C834 1.356 . S
N842 H848 0.984 . S
N842 H849 0.984 . S
N843 C836 1.356 . S
N843 H846 0.984 . S
N843 H847 0.985 . S
H844 N839 0.984 . S
H845 N839 0.985 . S
H846 N843 0.984 . S
H847 N843 0.985 . S
H848 N842 0.984 . S
H849 N842 0.984 . S
H850 N838 0.984 . S
H851 N838 0.985 . S
C852 C853 1.363 . S
C852 C858 1.379 . S
C852 N860 1.356 . S
C853 C852 1.363 . S
C853 C859 1.363 . S
C854 C855 1.363 . S
C854 C859 1.379 . S
C854 N861 1.356 . S
C855 C854 1.363 . S
C855 C858 1.363 . S
N856 C858 1.356 . S
N856 H868 0.984 . S
N856 H869 0.985 . S
N857 C859 1.356 . S
N857 H862 0.984 . S
N857 H863 0.985 . S
C858 C852 1.379 . S
C858 C855 1.363 . S
C858 N856 1.356 . S
C859 C853 1.363 . S
C859 C854 1.379 . S
C859 N857 1.356 . S
N860 C852 1.356 . S
N860 H866 0.984 . S
N860 H867 0.984 . S
N861 C854 1.356 . S
N861 H864 0.984 . S
N861 H865 0.985 . S
H862 N857 0.984 . S
H863 N857 0.985 . S
H864 N861 0.984 . S
H865 N861 0.985 . S
H866 N860 0.984 . S
H867 N860 0.984 . S
H868 N856 0.984 . S
H869 N856 0.985 . S
C870 C871 1.363 . S
C870 C876 1.379 . S
C870 N878 1.356 . S
C871 C870 1.363 . S
C871 C877 1.363 . S
C872 C873 1.363 . S
C872 C877 1.379 . S
C872 N879 1.356 . S
C873 C872 1.363 . S
C873 C876 1.363 . S
N874 C876 1.356 . S
N874 H886 0.984 . S
N874 H887 0.985 . S
N875 C877 1.356 . S
N875 H880 0.984 . S
N875 H881 0.985 . S
C876 C870 1.379 . S
C876 C873 1.363 . S
C876 N874 1.356 . S
C877 C871 1.363 . S
C877 C872 1.379 . S
C877 N875 1.356 . S
N878 C870 1.356 . S
N878 H884 0.984 . S
N878 H885 0.984 . S
N879 C872 1.356 . S
N879 H882 0.984 . S
N879 H883 0.985 . S
H880 N875 0.984 . S
H881 N875 0.985 . S
H882 N879 0.984 . S
H883 N879 0.985 . S
H884 N878 0.984 . S
H885 N878 0.984 . S
H886 N874 0.984 . S
H887 N874 0.985 . S
C888 C889 1.363 . S
C888 C894 1.379 . S
C888 N896 1.356 . S
C889 C888 1.363 . S
C889 C895 1.363 . S
C890 C891 1.363 . S
C890 C895 1.379 . S
C890 N897 1.356 . S
C891 C890 1.363 . S
C891 C894 1.363 . S
N892 C894 1.356 . S
N892 H904 0.984 . S
N892 H905 0.985 . S
N893 C895 1.356 . S
N893 H898 0.984 . S
N893 H899 0.985 . S
C894 C888 1.379 . S
C894 C891 1.363 . S
C894 N892 1.356 . S
C895 C889 1.363 . S
C895 C890 1.379 . S
C895 N893 1.356 . S
N896 C888 1.356 . S
N896 H902 0.984 . S
N896 H903 0.984 . S
N897 C890 1.356 . S
N897 H900 0.984 . S
N897 H901 0.979 1_554 S
H898 N893 0.984 . S
H899 N893 0.985 . S
H900 N897 0.984 . S
H901 N897 0.979 1_556 S
H902 N896 0.984 . S
H903 N896 0.984 . S
H904 N892 0.984 . S
H905 N892 0.985 . S
C906 C907 1.363 . S
C906 C912 1.379 . S
C906 N914 1.356 . S
C907 C906 1.363 . S
C907 C913 1.363 . S
C908 C909 1.363 . S
C908 C913 1.379 . S
C908 N915 1.356 . S
C909 C908 1.363 . S
C909 C912 1.363 . S
N910 C912 1.356 . S
N910 H922 0.984 . S
N910 H923 0.985 . S
N911 C913 1.356 . S
N911 H916 0.984 . S
N911 H917 0.985 . S
C912 C906 1.379 . S
C912 C909 1.363 . S
C912 N910 1.356 . S
C913 C907 1.363 . S
C913 C908 1.379 . S
C913 N911 1.356 . S
N914 C906 1.356 . S
N914 H920 0.984 . S
N914 H921 0.984 . S
N915 C908 1.356 . S
N915 H918 0.984 . S
N915 H919 0.985 . S
H916 N911 0.984 . S
H917 N911 0.985 . S
H918 N915 0.984 . S
H919 N915 0.985 . S
H920 N914 0.984 . S
H921 N914 0.984 . S
H922 N910 0.984 . S
H923 N910 0.985 . S
C924 C925 1.363 . S
C924 C930 1.379 . S
C924 N932 1.356 . S
C925 C924 1.363 . S
C925 C931 1.363 . S
C926 C927 1.363 . S
C926 C931 1.379 . S
C926 N933 1.356 . S
C927 C926 1.363 . S
C927 C930 1.363 . S
N928 C930 1.356 . S
N928 H940 0.984 . S
N928 H941 0.985 . S
N929 C931 1.356 . S
N929 H934 0.984 . S
N929 H935 0.985 . S
C930 C924 1.379 . S
C930 C927 1.363 . S
C930 N928 1.356 . S
C931 C925 1.363 . S
C931 C926 1.379 . S
C931 N929 1.356 . S
N932 C924 1.356 . S
N932 H938 0.984 . S
N932 H939 0.984 . S
N933 C926 1.356 . S
N933 H936 0.984 . S
N933 H937 0.985 . S
H934 N929 0.984 . S
H935 N929 0.985 . S
H936 N933 0.984 . S
H937 N933 0.985 . S
H938 N932 0.984 . S
H939 N932 0.984 . S
H940 N928 0.984 . S
H941 N928 0.985 . S
C942 C943 1.363 . S
C942 C948 1.379 . S
C942 N950 1.356 . S
C943 C942 1.363 . S
C943 C949 1.363 . S
C944 C945 1.363 . S
C944 C949 1.379 . S
C944 N951 1.356 . S
C945 C944 1.363 . S
C945 C948 1.363 . S
N946 C948 1.356 . S
N946 H958 0.984 . S
N946 H959 0.985 . S
N947 C949 1.356 . S
N947 H952 0.984 . S
N947 H953 0.985 . S
C948 C942 1.379 . S
C948 C945 1.363 . S
C948 N946 1.356 . S
C949 C943 1.363 . S
C949 C944 1.379 . S
C949 N947 1.356 . S
N950 C942 1.356 . S
N950 H956 0.984 . S
N950 H957 0.984 . S
N951 C944 1.356 . S
N951 H954 0.984 . S
N951 H955 0.985 . S
H952 N947 0.984 . S
H953 N947 0.985 . S
H954 N951 0.984 . S
H955 N951 0.985 . S
H956 N950 0.984 . S
H957 N950 0.984 . S
H958 N946 0.984 . S
H959 N946 0.985 . S
C960 C961 1.363 1_455 S
C960 C966 1.379 1_556 S
C960 N968 1.356 . S
C961 C960 1.363 1_655 S
C961 C967 1.363 1_545 S
C962 C963 1.363 1_655 S
C962 C967 1.379 1_554 S
C962 N969 1.356 . S
C963 C962 1.363 1_455 S
C963 C966 1.363 1_565 S
N964 C966 1.356 . S
N964 H976 0.984 . S
N964 H977 0.985 . S
N965 C967 1.356 . S
N965 H970 0.984 . S
N965 H971 0.985 . S
C966 C960 1.379 1_554 S
C966 C963 1.363 1_545 S
C966 N964 1.356 . S
C967 C961 1.363 1_565 S
C967 C962 1.379 1_556 S
C967 N965 1.356 . S
N968 C960 1.356 . S
N968 H974 0.984 . S
N968 H975 0.984 . S
N969 C962 1.356 . S
N969 H972 0.984 . S
N969 H973 0.985 . S
H970 N965 0.984 . S
H971 N965 0.985 . S
H972 N969 0.984 . S
H973 N969 0.985 . S
H974 N968 0.984 . S
H975 N968 0.984 . S
H976 N964 0.984 . S
H977 N964 0.985 . S
C978 C979 1.363 . S
C978 C984 1.379 . S
C978 N986 1.356 . S
C979 C978 1.363 . S
C979 C985 1.363 . S
C980 C981 1.363 . S
C980 C985 1.379 . S
C980 N987 1.356 . S
C981 C980 1.363 . S
C981 C984 1.363 . S
N982 C984 1.356 . S
N982 H994 0.984 . S
N982 H995 0.985 . S
N983 C985 1.356 . S
N983 H988 0.984 . S
N983 H989 0.985 . S
C984 C978 1.379 . S
C984 C981 1.363 . S
C984 N982 1.356 . S
C985 C979 1.363 . S
C985 C980 1.379 . S
C985 N983 1.356 . S
N986 C978 1.356 . S
N986 H992 0.984 . S
N986 H993 0.984 . S
N987 C980 1.356 . S
N987 H990 0.984 . S
N987 H991 0.985 . S
H988 N983 0.984 . S
H989 N983 0.985 . S
H990 N987 0.984 . S
H991 N987 0.985 . S
H992 N986 0.984 . S
H993 N986 0.984 . S
H994 N982 0.984 . S
H995 N982 0.985 . S
C996 C997 1.363 . S
C996 C1002 1.379 . S
C996 N1004 1.356 . S
C997 C996 1.363 . S
C997 C1003 1.363 1_545 S
C998 C999 1.363 . S
C998 C1003 1.379 . S
C998 N1005 1.356 . S
C999 C998 1.363 . S
C999 C1002 1.363 1_565 S
N1000 C1002 1.356 . S
N1000 H1012 0.984 . S
N1000 H1013 0.985 . S
N1001 C1003 1.356 . S
N1001 H1006 0.984 . S
N1001 H1007 0.985 . S
C1002 C996 1.379 . S
C1002 C999 1.363 1_545 S
C1002 N1000 1.356 . S
C1003 C997 1.363 1_565 S
C1003 C998 1.379 . S
C1003 N1001 1.356 . S
N1004 C996 1.356 . S
N1004 H1010 0.984 . S
N1004 H1011 0.984 . S
N1005 C998 1.356 . S
N1005 H1008 0.984 . S
N1005 H1009 0.985 . S
H1006 N1001 0.984 . S
H1007 N1001 0.985 . S
H1008 N1005 0.984 . S
H1009 N1005 0.985 . S
H1010 N1004 0.984 . S
H1011 N1004 0.984 . S
H1012 N1000 0.984 . S
H1013 N1000 0.985 . S
C1014 C1015 1.363 . S
C1014 C1020 1.379 . S
C1014 N1022 1.356 . S
C1015 C1014 1.363 . S
C1015 C1021 1.363 . S
C1016 C1017 1.363 . S
C1016 C1021 1.379 . S
C1016 N1023 1.356 . S
C1017 C1016 1.363 . S
C1017 C1020 1.363 . S
N1018 C1020 1.356 . S
N1018 H1030 0.984 . S
N1018 H1031 0.985 . S
N1019 C1021 1.356 . S
N1019 H1024 0.984 . S
N1019 H1025 0.985 . S
C1020 C1014 1.379 . S
C1020 C1017 1.363 . S
C1020 N1018 1.356 . S
C1021 C1015 1.363 . S
C1021 C1016 1.379 . S
C1021 N1019 1.356 . S
N1022 C1014 1.356 . S
N1022 H1028 0.984 . S
N1022 H1029 0.984 . S
N1023 C1016 1.356 . S
N1023 H1026 0.984 . S
N1023 H1027 0.985 . S
H1024 N1019 0.984 . S
H1025 N1019 0.985 . S
H1026 N1023 0.984 . S
H1027 N1023 0.985 . S
H1028 N1022 0.984 . S
H1029 N1022 0.984 . S
H1030 N1018 0.984 . S
H1031 N1018 0.985 . S
C1032 C1033 1.363 . S
C1032 C1038 1.379 . S
C1032 N1040 1.356 . S
C1033 C1032 1.363 . S
C1033 C1039 1.363 . S
C1034 C1035 1.363 . S
C1034 C1039 1.379 . S
C1034 N1041 1.356 . S
C1035 C1034 1.363 . S
C1035 C1038 1.363 . S
N1036 C1038 1.356 . S
N1036 H1048 0.984 . S
N1036 H1049 0.985 . S
N1037 C1039 1.356 . S
N1037 H1042 0.984 . S
N1037 H1043 0.985 . S
C1038 C1032 1.379 . S
C1038 C1035 1.363 . S
C1038 N1036 1.356 . S
C1039 C1033 1.363 . S
C1039 C1034 1.379 . S
C1039 N1037 1.356 . S
N1040 C1032 1.356 . S
N1040 H1046 0.984 . S
N1040 H1047 0.984 . S
N1041 C1034 1.356 . S
N1041 H1044 0.984 . S
N1041 H1045 0.985 . S
H1042 N1037 0.984 . S
H1043 N1037 0.985 . S
H1044 N1041 0.984 . S
H1045 N1041 0.985 . S
H1046 N1040 0.984 . S
H1047 N1040 0.984 . S
H1048 N1036 0.984 . S
H1049 N1036 0.985 . S
C1050 C1051 1.363 . S
C1050 C1056 1.379 . S
C1050 N1058 1.356 . S
C1051 C1050 1.363 . S
C1051 C1057 1.363 . S
C1052 C1053 1.363 . S
C1052 C1057 1.379 . S
C1052 N1059 1.356 . S
C1053 C1052 1.363 . S
C1053 C1056 1.363 . S
N1054 C1056 1.356 . S
N1054 H1066 0.984 . S
N1054 H1067 0.985 . S
N1055 C1057 1.356 . S
N1055 H1060 0.984 . S
N1055 H1061 0.985 . S
C1056 C1050 1.379 . S
C1056 C1053 1.363 . S
C1056 N1054 1.356 . S
C1057 C1051 1.363 . S
C1057 C1052 1.379 . S
C1057 N1055 1.356 . S
N1058 C1050 1.356 . S
N1058 H1064 0.984 . S
N1058 H1065 0.984 . S
N1059 C1052 1.356 . S
N1059 H1062 0.984 . S
N1059 H1063 0.985 . S
H1060 N1055 0.984 . S
H1061 N1055 0.985 . S
H1062 N1059 0.984 . S
H1063 N1059 0.985 . S
H1064 N1058 0.984 . S
H1065 N1058 0.984 . S
H1066 N1054 0.984 . S
H1067 N1054 0.985 . S
C1068 C1069 1.363 . S
C1068 C1074 1.379 . S
C1068 N1076 1.356 . S
C1069 C1068 1.363 . S
C1069 C1075 1.363 . S
C1070 C1071 1.363 . S
C1070 C1075 1.379 . S
C1070 N1077 1.356 . S
C1071 C1070 1.363 . S
C1071 C1074 1.363 . S
N1072 C1074 1.356 . S
N1072 H1084 0.984 . S
N1072 H1085 0.985 . S
N1073 C1075 1.356 . S
N1073 H1078 0.984 . S
N1073 H1079 0.985 . S
C1074 C1068 1.379 . S
C1074 C1071 1.363 . S
C1074 N1072 1.356 . S
C1075 C1069 1.363 . S
C1075 C1070 1.379 . S
C1075 N1073 1.356 . S
N1076 C1068 1.356 . S
N1076 H1082 0.984 . S
N1076 H1083 0.984 . S
N1077 C1070 1.356 . S
N1077 H1080 0.984 . S
N1077 H1081 0.985 . S
H1078 N1073 0.984 . S
H1079 N1073 0.985 . S
H1080 N1077 0.984 . S
H1081 N1077 0.985 . S
H1082 N1076 0.984 . S
H1083 N1076 0.984 . S
H1084 N1072 0.984 . S
H1085 N1072 0.985 . S
C1086 C1087 1.363 1_455 S
C1086 C1092 1.379 1_556 S
C1086 N1094 1.356 . S
C1087 C1086 1.363 1_655 S
C1087 C1093 1.363 . S
C1088 C1089 1.363 1_655 S
C1088 C1093 1.379 1_554 S
C1088 N1095 1.356 . S
C1089 C1088 1.363 1_455 S
C1089 C1092 1.363 . S
N1090 C1092 1.356 . S
N1090 H1102 0.984 . S
N1090 H1103 0.985 . S
N1091 C1093 1.356 . S
N1091 H1096 0.984 . S
N1091 H1097 0.985 . S
C1092 C1086 1.379 1_554 S
C1092 C1089 1.363 . S
C1092 N1090 1.356 . S
C1093 C1087 1.363 . S
C1093 C1088 1.379 1_556 S
C1093 N1091 1.356 . S
N1094 C1086 1.356 . S
N1094 H1100 0.984 . S
N1094 H1101 0.984 . S
N1095 C1088 1.356 . S
N1095 H1098 0.984 . S
N1095 H1099 0.985 . S
H1096 N1091 0.984 . S
H1097 N1091 0.985 . S
H1098 N1095 0.984 . S
H1099 N1095 0.985 . S
H1100 N1094 0.984 . S
H1101 N1094 0.984 . S
H1102 N1090 0.984 . S
H1103 N1090 0.985 . S
C673 C56 1.566 . S
C675 C308 1.563 . S
C691 C74 1.473 . S
C693 C140 1.434 . S
C709 C158 1.344 . S
C711 C242 1.347 . S
C727 C224 1.435 . S
C729 C326 1.471 . S
C745 C67 1.566 . S
C747 C487 1.569 . S
C763 C63 1.474 . S
C765 C403 1.435 . S
C781 C399 1.344 . S
C783 C231 1.341 . S
C799 C483 1.473 . S
C801 C235 1.437 . S
C817 C560 1.566 . S
C819 C476 1.566 . S
C835 C392 1.434 . S
C837 C578 1.472 . S
C853 C662 1.344 . S
C855 C410 1.346 . S
C871 C494 1.474 . S
C873 C644 1.436 . S
C889 C319 1.566 . S
C891 C571 1.566 . S
C907 C567 1.474 . S
C909 C151 1.435 . S
C925 C147 1.344 . S
C927 C651 1.343 . S
C943 C315 1.474 . S
C945 C655 1.433 . S
C961 C70 1.381 . S
C963 C58 1.381 . S
C979 C142 1.362 . S
C981 C154 1.362 . S
C997 C238 1.362 . S
C999 C226 1.362 . S
C1015 C322 1.381 . S
C1017 C310 1.381 . S
C1033 C394 1.362 . S
C1035 C406 1.362 . S
C1051 C490 1.381 . S
C1053 C478 1.381 . S
C1069 C562 1.381 . S
C1071 C574 1.381 . S
C1087 C646 1.362 . S
C1089 C658 1.362 . S
