# Generated by pormake.
# Topology wjf, (4)-cn, num edge types: 1
# Building blocks:
#     Node 0, Type 0, BuildingBlock: UXUYUI_clean_sbu_0, # of connection points: 4
#     Node 1, Type 0, BuildingBlock: UXUYUI_clean_sbu_0, # of connection points: 4
#     Node 2, Type 0, BuildingBlock: UXUYUI_clean_sbu_0, # of connection points: 4
#     Node 3, Type 0, BuildingBlock: UXUYUI_clean_sbu_0, # of connection points: 4
#     Node 4, Type 0, BuildingBlock: UXUYUI_clean_sbu_0, # of connection points: 4
#     Node 5, Type 0, BuildingBlock: UXUYUI_clean_sbu_0, # of connection points: 4
#     Node 6, Type 0, BuildingBlock: UXUYUI_clean_sbu_0, # of connection points: 4
#     Node 7, Type 0, BuildingBlock: UXUYUI_clean_sbu_0, # of connection points: 4
#     Node 8, Type 0, BuildingBlock: UXUYUI_clean_sbu_0, # of connection points: 4
#     Node 9, Type 0, BuildingBlock: UXUYUI_clean_sbu_0, # of connection points: 4
#     Node 10, Type 0, BuildingBlock: UXUYUI_clean_sbu_0, # of connection points: 4
#     Node 11, Type 0, BuildingBlock: UXUYUI_clean_sbu_0, # of connection points: 4
#     Edge 12, Type (0, 0), BuildingBlock: XUDNAN_clean_linker_2, # of connection points: 2
#     Edge 13, Type (0, 0), BuildingBlock: XUDNAN_clean_linker_2, # of connection points: 2
#     Edge 14, Type (0, 0), BuildingBlock: XUDNAN_clean_linker_2, # of connection points: 2
#     Edge 15, Type (0, 0), BuildingBlock: XUDNAN_clean_linker_2, # of connection points: 2
#     Edge 16, Type (0, 0), BuildingBlock: XUDNAN_clean_linker_2, # of connection points: 2
#     Edge 17, Type (0, 0), BuildingBlock: XUDNAN_clean_linker_2, # of connection points: 2
#     Edge 18, Type (0, 0), BuildingBlock: XUDNAN_clean_linker_2, # of connection points: 2
#     Edge 19, Type (0, 0), BuildingBlock: XUDNAN_clean_linker_2, # of connection points: 2
#     Edge 20, Type (0, 0), BuildingBlock: XUDNAN_clean_linker_2, # of connection points: 2
#     Edge 21, Type (0, 0), BuildingBlock: XUDNAN_clean_linker_2, # of connection points: 2
#     Edge 22, Type (0, 0), BuildingBlock: XUDNAN_clean_linker_2, # of connection points: 2
#     Edge 23, Type (0, 0), BuildingBlock: XUDNAN_clean_linker_2, # of connection points: 2
#     Edge 24, Type (0, 0), BuildingBlock: XUDNAN_clean_linker_2, # of connection points: 2
#     Edge 25, Type (0, 0), BuildingBlock: XUDNAN_clean_linker_2, # of connection points: 2
#     Edge 26, Type (0, 0), BuildingBlock: XUDNAN_clean_linker_2, # of connection points: 2
#     Edge 27, Type (0, 0), BuildingBlock: XUDNAN_clean_linker_2, # of connection points: 2
#     Edge 28, Type (0, 0), BuildingBlock: XUDNAN_clean_linker_2, # of connection points: 2
#     Edge 29, Type (0, 0), BuildingBlock: XUDNAN_clean_linker_2, # of connection points: 2
#     Edge 30, Type (0, 0), BuildingBlock: XUDNAN_clean_linker_2, # of connection points: 2
#     Edge 31, Type (0, 0), BuildingBlock: XUDNAN_clean_linker_2, # of connection points: 2
#     Edge 32, Type (0, 0), BuildingBlock: XUDNAN_clean_linker_2, # of connection points: 2
#     Edge 33, Type (0, 0), BuildingBlock: XUDNAN_clean_linker_2, # of connection points: 2
#     Edge 34, Type (0, 0), BuildingBlock: XUDNAN_clean_linker_2, # of connection points: 2
#     Edge 35, Type (0, 0), BuildingBlock: XUDNAN_clean_linker_2, # of connection points: 2
# Relax obj value: 0.355
# Max RMSD: 0.304
# Mean RMSD: 0.304
data_MOF--net-wjf--node1-UXUYUI_clean_sbu_0--edge1-XUDNAN_clean_linker_2
_symmetry_space_group_name_H-M    P1
_symmetry_Int_Tables_number       1
_symmetry_cell_setting            triclinic
loop_
_symmetry_equiv_pos_as_xyz
'x, y, z'
_cell_length_a     73.151135
_cell_length_b     73.133414
_cell_length_c     39.112848
_cell_angle_alpha  89.966203
_cell_angle_beta   90.033906
_cell_angle_gamma 119.97877
loop_
_atom_site_label
_atom_site_type_symbol
_atom_site_fract_x
_atom_site_fract_y
_atom_site_fract_z
_atom_type_partial_charge
Li0 Li 0.31469 0.38359 0.05437 0.0
Li1 Li 0.32374 0.36267 0.09166 0.0
Li2 Li 0.35083 0.39091 0.05696 0.0
Li3 Li 0.32325 0.35776 0.03145 0.0
C4 C 0.348 0.41026 0.11245 0.0
N5 N 0.37815 0.44448 0.14883 0.0
C6 C 0.35718 0.40713 0.1416 0.0
C7 C 0.35411 0.43078 0.10188 0.0
C8 C 0.37238 0.42464 0.15965 0.0
C9 C 0.36941 0.44788 0.12057 0.0
C10 C 0.28353 0.33876 0.0811 0.0
C11 C 0.26425 0.30466 0.10814 0.0
N12 N 0.25225 0.3112 0.12491 0.0
C13 C 0.271 0.34516 0.09851 0.0
C14 C 0.28013 0.31835 0.08583 0.0
C15 C 0.25526 0.33098 0.12057 0.0
C16 C 0.28126 0.38269 0.02215 0.0
N17 N 0.29593 0.3938 0.04641 0.0
C18 C 0.28094 0.41586 0.05574 0.0
C19 C 0.29615 0.41016 0.06324 0.0
C20 C 0.26553 0.40458 0.03067 0.0
C21 C 0.26611 0.38803 0.01345 0.0
H22 H 0.28138 0.36959 0.00954 0.0
H23 H 0.30786 0.41853 0.08278 0.0
C24 C 0.3279 0.33832 0.14354 0.0
N25 N 0.31922 0.35043 0.13559 0.0
C26 C 0.33014 0.33428 0.17769 0.0
C27 C 0.31309 0.35397 0.19447 0.0
C28 C 0.31104 0.35751 0.16 0.0
C29 C 0.32349 0.34296 0.20343 0.0
H30 H 0.33465 0.33331 0.12362 0.0
H31 H 0.3047 0.36753 0.15284 0.0
C32 C 0.32926 0.39789 0.99225 0.0
N33 N 0.31863 0.41933 0.94535 0.0
C34 C 0.31677 0.38732 0.96389 0.0
C35 C 0.33638 0.41938 -0.00335 0.0
C36 C 0.31157 0.39843 0.94048 0.0
C37 C 0.33081 0.42993 0.9727 0.0
C38 C 0.35332 0.35023 0.04843 0.0
C39 C 0.37261 0.36028 0.03111 0.0
C40 C 0.34147 0.3282 0.04902 0.0
C41 C 0.37968 0.34807 0.01449 0.0
C42 C 0.34908 0.31655 0.03204 0.0
N43 N 0.36787 0.32664 0.01528 0.0
C44 C 0.39338 0.41353 0.07972 0.0
C45 C 0.3871 0.42371 0.0254 0.0
C46 C 0.41503 0.42763 0.07665 0.0
N47 N 0.37994 0.41188 0.05428 0.0
C48 C 0.4086 0.43785 0.02115 0.0
C49 C 0.4229 0.43977 0.0468 0.0
H50 H 0.38736 0.40343 0.10192 0.0
H51 H 0.37621 0.42173 0.00518 0.0
C52 C 0.29597 0.32519 0.98746 0.0
N53 N 0.31653 0.33991 0.99307 0.0
C54 C 0.28907 0.31769 0.95439 0.0
C55 C 0.32492 0.3395 0.93434 0.0
C56 C 0.33115 0.34651 0.96771 0.0
C57 C 0.30352 0.32569 0.92737 0.0
H58 H 0.28459 0.32087 0.00788 0.0
H59 H 0.34715 0.3589 0.97267 0.0
O60 O 0.33312 0.39335 0.09436 0.0
O61 O 0.29916 0.35246 0.0597 0.0
O62 O 0.33429 0.38723 0.01578 0.0
O63 O 0.34608 0.36189 0.0648 0.0
H64 H 0.35285 0.39139 0.14999 0.0
H65 H 0.34715 0.43349 0.07942 0.0
H66 H 0.37967 0.42245 0.18217 0.0
H67 H 0.37433 0.46385 0.11261 0.0
H68 H 0.26148 0.28884 0.11216 0.0
H69 H 0.27348 0.36093 0.09521 0.0
H70 H 0.28973 0.3132 0.07253 0.0
H71 H 0.24547 0.33572 0.1343 0.0
H72 H 0.28095 0.42856 0.06994 0.0
H73 H 0.25494 0.37917 0.99341 0.0
H74 H 0.33866 0.32614 0.18398 0.0
H75 H 0.30828 0.36128 0.21388 0.0
H76 H 0.31086 0.37066 0.96018 0.0
H77 H 0.34599 0.4278 0.01848 0.0
H78 H 0.30184 0.39042 0.91853 0.0
H79 H 0.33615 0.44654 0.97589 0.0
H80 H 0.38198 0.37732 0.03036 0.0
H81 H 0.32649 0.32019 0.06225 0.0
H82 H 0.39456 0.35563 0.00092 0.0
H83 H 0.34005 0.29948 0.03218 0.0
H84 H 0.42557 0.4284 0.09678 0.0
H85 H 0.41401 0.44701 -0.00219 0.0
H86 H 0.2724 0.30731 0.94956 0.0
H87 H 0.33633 0.34618 0.91379 0.0
Li88 Li 0.96028 0.32862 0.44265 0.0
Li89 Li 0.92894 0.31862 0.40525 0.0
Li90 Li 0.96319 0.33018 0.38065 0.0
Li91 Li 0.95585 0.3553 0.40765 0.0
C92 C 0.95027 0.29054 0.39609 0.0
N93 N 0.95867 0.26166 0.36495 0.0
C94 C 0.93657 0.27687 0.37118 0.0
C95 C 0.96818 0.28949 0.40532 0.0
C96 C 0.94111 0.26238 0.3557 0.0
C97 C 0.97217 0.27478 0.38923 0.0
C98 C 0.92008 0.33087 0.46403 0.0
C99 C 0.8875 0.33098 0.47251 0.0
N100 N 0.88246 0.31688 0.49848 0.0
C101 C 0.91472 0.31656 0.49101 0.0
C102 C 0.90651 0.33832 0.45488 0.0
C103 C 0.89557 0.30961 0.50804 0.0
C104 C 0.98753 0.34025 0.49795 0.0
N105 N 0.97094 0.32345 0.48285 0.0
C106 C 0.97243 0.29977 0.52334 0.0
C107 C 0.96315 0.30348 0.49493 0.0
C108 C 0.99001 0.3168 0.53883 0.0
C109 C 0.99743 0.33726 0.52604 0.0
H110 H 0.99321 0.35594 0.48781 0.0
H111 H 0.94994 0.29045 0.48217 0.0
C112 C 0.88968 0.29608 0.37079 0.0
N113 N 0.90036 0.29747 0.40003 0.0
C114 C 0.8711 0.27742 0.36286 0.0
C115 C 0.87443 0.2625 0.41609 0.0
C116 C 0.89291 0.28137 0.42293 0.0
C117 C 0.86378 0.26006 0.38506 0.0
H118 H 0.89639 0.30878 0.35237 0.0
H119 H 0.90217 0.28258 0.44525 0.0
C120 C 0.00067 0.36517 0.40053 0.0
N121 N 0.0401 0.39118 0.37277 0.0
C122 C 0.00264 0.37573 0.36979 0.0
C123 C 0.01875 0.36772 0.41707 0.0
C124 C 0.02271 0.38883 0.35618 0.0
C125 C 0.03855 0.38098 0.40266 0.0
C126 C 0.93777 0.34971 0.34443 0.0
C127 C 0.94963 0.35779 0.31454 0.0
C128 C 0.9214 0.35374 0.35156 0.0
C129 C 0.94501 0.36995 0.29244 0.0
C130 C 0.91729 0.36598 0.32883 0.0
N131 N 0.92908 0.37378 0.3 0.0
C132 C 0.9651 0.31788 0.31464 0.0
C133 C 0.9965 0.32781 0.34582 0.0
C134 C 0.97394 0.31487 0.28522 0.0
N135 N 0.97665 0.32488 0.34376 0.0
C136 C 0.00603 0.32503 0.3169 0.0
C137 C 0.99485 0.31893 0.28589 0.0
H138 H 0.94917 0.3152 0.31407 0.0
H139 H 0.00506 0.33263 0.36968 0.0
C140 C 0.96202 0.39123 0.44194 0.0
N141 N 0.96237 0.38405 0.41003 0.0
C142 C 0.96904 0.41259 0.44742 0.0
C143 C 0.97599 0.41875 0.3869 0.0
C144 C 0.96899 0.3973 0.38263 0.0
C145 C 0.97648 0.42671 0.41974 0.0
H146 H 0.9569 0.38044 0.46337 0.0
H147 H 0.96964 0.39152 0.35761 0.0
O148 O 0.94638 0.30515 0.41093 0.0
O149 O 0.93862 0.33766 0.44679 0.0
O150 O 0.98115 0.35202 0.41401 0.0
O151 O 0.942 0.33767 0.36631 0.0
H152 H 0.92268 0.27757 0.36369 0.0
H153 H 0.97902 0.3001 0.42438 0.0
H154 H 0.9307 0.25175 0.33627 0.0
H155 H 0.98603 0.27386 0.39596 0.0
H156 H 0.87678 0.33653 0.4656 0.0
H157 H 0.92514 0.31075 0.4985 0.0
H158 H 0.91064 0.3497 0.43447 0.0
H159 H 0.89113 0.29842 0.52883 0.0
H160 H 0.96626 0.28381 0.53268 0.0
H161 H 0.01067 0.35082 0.53781 0.0
H162 H 0.86352 0.27605 0.33844 0.0
H163 H 0.86923 0.2495 0.43393 0.0
H164 H 0.98881 0.37349 0.35628 0.0
H165 H 0.01752 0.35943 0.44062 0.0
H166 H 0.02444 0.39704 0.33233 0.0
H167 H 0.05267 0.38311 0.41518 0.0
H168 H 0.96242 0.35494 0.3086 0.0
H169 H 0.91194 0.34742 0.37435 0.0
H170 H 0.95413 0.37639 0.26933 0.0
H171 H 0.90469 0.36926 0.33408 0.0
H172 H 0.96479 0.3104 0.26183 0.0
H173 H 0.02207 0.32803 0.31858 0.0
H174 H 0.969 0.41808 0.47312 0.0
H175 H 0.98186 0.42915 0.36494 0.0
Li176 Li 0.6311 0.9526 0.77043 0.0
Li177 Li 0.60917 0.9256 0.72994 0.0
Li178 Li 0.63737 0.95814 0.70916 0.0
Li179 Li 0.60525 0.95664 0.73162 0.0
C180 C 0.6592 0.94058 0.7455 0.0
N181 N 0.69912 0.94756 0.76037 0.0
C182 C 0.66304 0.92369 0.74636 0.0
C183 C 0.67566 0.96101 0.75212 0.0
C184 C 0.68333 0.92754 0.75393 0.0
C185 C 0.69572 0.96423 0.75961 0.0
C186 C 0.58253 0.91772 0.77911 0.0
C187 C 0.54626 0.89067 0.77093 0.0
N188 N 0.54817 0.8794 0.79698 0.0
C189 C 0.58414 0.90595 0.80589 0.0
C190 C 0.56345 0.91012 0.76154 0.0
C191 C 0.56657 0.88658 0.81451 0.0
C192 C 0.64555 0.9754 0.83156 0.0
N193 N 0.6435 0.95837 0.81434 0.0
C194 C 0.65963 0.94996 0.86014 0.0
C195 C 0.65008 0.94556 0.82802 0.0
C196 C 0.66184 0.96736 0.87888 0.0
C197 C 0.65458 0.98013 0.86409 0.0
H198 H 0.63993 0.98515 0.82013 0.0
H199 H 0.64792 0.93188 0.814 0.0
C200 C 0.58085 0.88574 0.69847 0.0
N201 N 0.59498 0.89572 0.72409 0.0
C202 C 0.57352 0.86442 0.69183 0.0
C203 C 0.59387 0.86365 0.74001 0.0
C204 C 0.60123 0.88508 0.74515 0.0
C205 C 0.58033 0.8533 0.71249 0.0
H206 H 0.57592 0.8945 0.68233 0.0
H207 H 0.61249 0.89346 0.7653 0.0
C208 C 0.64806 0.99826 0.73526 0.0
N209 N 0.67346 0.04061 0.7201 0.0
C210 C 0.64167 0.00789 0.71085 0.0
C211 C 0.66716 0.01033 0.75254 0.0
C212 C 0.65479 0.02926 0.70336 0.0
C213 C 0.67983 0.03167 0.74437 0.0
C214 C 0.60819 0.93376 0.65983 0.0
C215 C 0.62002 0.9237 0.65527 0.0
C216 C 0.59698 0.93548 0.63227 0.0
C217 C 0.62045 0.91558 0.62316 0.0
C218 C 0.59778 0.92711 0.60057 0.0
N219 N 0.60941 0.91743 0.5967 0.0
C220 C 0.67117 0.96311 0.66556 0.0
C221 C 0.65386 0.98182 0.64933 0.0
C222 C 0.68179 0.96778 0.63436 0.0
N223 N 0.65727 0.96989 0.67232 0.0
C224 C 0.6642 0.98693 0.61786 0.0
C225 C 0.67787 0.9793 0.60969 0.0
H226 H 0.67295 0.95272 0.68299 0.0
H227 H 0.64187 0.98596 0.65424 0.0
C228 C 0.57805 0.97049 0.75747 0.0
N229 N 0.58666 0.9677 0.72854 0.0
C230 C 0.56495 0.97931 0.75568 0.0
C231 C 0.56974 0.98202 0.69437 0.0
C232 C 0.58262 0.97305 0.69733 0.0
C233 C 0.56082 0.98541 0.72382 0.0
H234 H 0.58157 0.96608 0.78197 0.0
H235 H 0.5897 0.97065 0.67477 0.0
O236 O 0.63932 0.93697 0.73876 0.0
O237 O 0.59967 0.9364 0.76962 0.0
O238 O 0.63528 0.97739 0.74323 0.0
O239 O 0.60797 0.94239 0.69078 0.0
H240 H 0.65047 0.90776 0.74128 0.0
H241 H 0.67294 0.97419 0.75126 0.0
H242 H 0.68653 0.91462 0.75472 0.0
H243 H 0.7086 0.97997 0.76479 0.0
H244 H 0.53143 0.88451 0.75745 0.0
H245 H 0.59886 0.91164 0.81961 0.0
H246 H 0.56205 0.91905 0.74063 0.0
H247 H 0.56759 0.87723 0.83507 0.0
H248 H 0.66513 0.93975 0.87013 0.0
H249 H 0.65533 0.99337 0.87772 0.0
H250 H 0.56307 0.85681 0.67036 0.0
H251 H 0.59954 0.85551 0.75622 0.0
H252 H 0.62682 0.99892 0.6976 0.0
H253 H 0.6721 0.00338 0.77232 0.0
H254 H 0.65011 0.03684 0.68427 0.0
H255 H 0.69469 0.04116 0.75745 0.0
H256 H 0.62884 0.92223 0.67622 0.0
H257 H 0.58778 0.94324 0.63531 0.0
H258 H 0.62959 0.90783 0.61927 0.0
H259 H 0.58918 0.92834 0.57903 0.0
H260 H 0.69209 0.96148 0.62889 0.0
H261 H 0.66028 0.99537 0.59917 0.0
H262 H 0.55853 0.98178 0.77904 0.0
H263 H 0.56675 0.98622 0.66926 0.0
Li264 Li 0.6716 0.62623 0.10193 0.0
Li265 Li 0.68145 0.61115 0.05459 0.0
Li266 Li 0.66846 0.63639 0.04468 0.0
Li267 Li 0.64374 0.59965 0.06221 0.0
C268 C 0.71194 0.65619 0.08412 0.0
N269 N 0.74771 0.68667 0.11691 0.0
C270 C 0.72889 0.65285 0.09013 0.0
C271 C 0.71327 0.6751 0.09444 0.0
C272 C 0.74683 0.66844 0.10681 0.0
C273 C 0.73145 0.69028 0.11111 0.0
C274 C 0.66754 0.58135 0.10719 0.0
C275 C 0.66184 0.54592 0.10882 0.0
N276 N 0.67663 0.55182 0.13388 0.0
C277 C 0.68253 0.58702 0.13318 0.0
C278 C 0.65695 0.56059 0.09512 0.0
C279 C 0.68696 0.57188 0.14627 0.0
C280 C 0.65991 0.63628 0.16275 0.0
N281 N 0.6765 0.63599 0.14778 0.0
C282 C 0.69741 0.65031 0.19819 0.0
C283 C 0.695 0.64262 0.16481 0.0
C284 C 0.68046 0.65076 0.21413 0.0
C285 C 0.66155 0.64365 0.196 0.0
H286 H 0.64533 0.63076 0.1488 0.0
H287 H 0.70785 0.64187 0.15268 0.0
C288 C 0.70643 0.61141 0.00281 0.0
N289 N 0.70146 0.6046 0.0356 0.0
C290 C 0.72271 0.61052 0.986 0.0
C291 C 0.72855 0.59535 0.03684 0.0
C292 C 0.71191 0.59635 0.05266 0.0
C293 C 0.73445 0.603 0.00332 0.0
H294 H 0.69823 0.61833 0.99004 0.0
H295 H 0.70809 0.59149 0.07894 0.0
C296 C 0.6378 0.63876 0.0776 0.0
N297 N 0.61998 0.6641 0.07012 0.0
C298 C 0.61764 0.63053 0.06351 0.0
C299 C 0.64878 0.65979 0.08833 0.0
C300 C 0.60893 0.64362 0.05982 0.0
C301 C 0.63954 0.67237 0.0842 0.0
C302 C 0.65364 0.59577 0.99397 0.0
C303 C 0.64783 0.60099 0.96302 0.0
C304 C 0.65218 0.57609 -0.00223 0.0
C305 C 0.64042 0.58629 0.93641 0.0
C306 C 0.6447 0.56182 0.97056 0.0
N307 N 0.63901 0.56717 0.94071 0.0
C308 C 0.69187 0.67351 0.00689 0.0
C309 C 0.65512 0.65492 -0.0047 0.0
C310 C 0.69568 0.68606 0.97792 0.0
N311 N 0.67195 0.65789 0.01423 0.0
C312 C 0.65818 0.66716 0.96627 0.0
C313 C 0.6788 0.68217 0.95634 0.0
H314 H 0.70502 0.67508 0.02178 0.0
H315 H 0.63958 0.64192 0.00101 0.0
C316 C 0.60645 0.56216 0.08234 0.0
N317 N 0.61563 0.57692 0.05732 0.0
C318 C 0.58574 0.54551 0.07842 0.0
C319 C 0.58444 0.55969 0.0232 0.0
C320 C 0.60501 0.57612 0.02832 0.0
C321 C 0.57456 0.54406 0.04836 0.0
H322 H 0.61522 0.56332 0.10529 0.0
H323 H 0.61248 0.58836 0.00926 0.0
O324 O 0.69433 0.64116 0.06762 0.0
O325 O 0.66274 0.59586 0.09449 0.0
O326 O 0.6466 0.6262 0.08133 0.0
O327 O 0.66082 0.60995 0.02032 0.0
H328 H 0.72817 0.63835 0.08215 0.0
H329 H 0.7004 0.67803 0.08961 0.0
H330 H 0.76003 0.66605 0.11175 0.0
H331 H 0.73265 0.70496 0.11938 0.0
H332 H 0.65382 0.52981 0.09964 0.0
H333 H 0.69077 0.60297 0.14295 0.0
H334 H 0.64495 0.55581 0.07556 0.0
H335 H 0.69862 0.57607 0.16624 0.0
H336 H 0.71215 0.65545 0.21158 0.0
H337 H 0.64818 0.64391 0.20736 0.0
H338 H 0.72647 0.61628 0.95998 0.0
H339 H 0.73735 0.58966 0.05127 0.0
H340 H 0.60884 0.61423 0.05539 0.0
H341 H 0.66425 0.66629 0.09975 0.0
H342 H 0.59339 0.63749 0.04879 0.0
H343 H 0.6479 0.68871 0.09225 0.0
H344 H 0.64897 0.61622 0.95964 0.0
H345 H 0.65688 0.57195 0.02138 0.0
H346 H 0.6358 0.59009 0.91234 0.0
H347 H 0.64346 0.54651 0.97315 0.0
H348 H 0.71181 0.69724 0.97085 0.0
H349 H 0.64476 0.66376 0.95026 0.0
H350 H 0.57867 0.53373 0.09837 0.0
H351 H 0.57623 0.55937 -5e-05 0.0
Li352 Li 0.06788 0.68577 0.38926 0.0
Li353 Li 0.04296 0.67694 0.43587 0.0
Li354 Li 0.04246 0.6488 0.40137 0.0
Li355 Li 0.03104 0.672 0.378 0.0
C356 C 0.08252 0.67589 0.45135 0.0
N357 N 0.11726 0.68884 0.49322 0.0
C358 C 0.08999 0.6943 0.47073 0.0
C359 C 0.09258 0.66396 0.45347 0.0
C360 C 0.10761 0.70062 0.4917 0.0
C361 C 0.11017 0.67081 0.47471 0.0
C362 C 0.04105 0.71051 0.40653 0.0
C363 C 0.01094 0.71287 0.42558 0.0
N364 N 0.02141 0.73385 0.41813 0.0
C365 C 0.05149 0.73207 0.399 0.0
C366 C 0.02058 0.7008 0.41987 0.0
C367 C 0.0413 0.7436 0.40508 0.0
C368 C 0.09373 0.70831 0.33611 0.0
N369 N 0.0945 0.70573 0.37037 0.0
C370 C 0.12998 0.73457 0.37251 0.0
C371 C 0.11223 0.7183 0.38871 0.0
C372 C 0.12938 0.73786 0.33717 0.0
C373 C 0.11111 0.72403 0.31887 0.0
H374 H 0.07929 0.69859 0.3222 0.0
H375 H 0.11241 0.71637 0.41599 0.0
C376 C 0.02595 0.66536 0.49987 0.0
N377 N 0.03802 0.68281 0.48077 0.0
C378 C 0.02054 0.66734 0.53318 0.0
C379 C 0.04007 0.70532 0.52664 0.0
C380 C 0.04515 0.70259 0.4933 0.0
C381 C 0.02768 0.68751 0.54702 0.0
H382 H 0.02045 0.64986 0.48903 0.0
H383 H 0.05477 0.7162 0.47746 0.0
C384 C 0.06117 0.65636 0.33765 0.0
N385 N 0.08413 0.64291 0.29983 0.0
C386 C 0.05589 0.65035 0.30354 0.0
C387 C 0.07815 0.65558 0.35252 0.0
C388 C 0.06769 0.64358 0.28485 0.0
C389 C 0.08955 0.64873 0.33297 0.0
C390 C -0.00024 0.63427 0.40558 0.0
C391 C 0.99819 0.62629 0.37254 0.0
C392 C 0.98267 0.6242 0.42796 0.0
C393 C 0.97953 0.60834 0.3625 0.0
C394 C 0.96427 0.60628 0.41694 0.0
N395 N 0.96309 0.59878 0.38472 0.0
C396 C 0.03688 0.61378 0.43722 0.0
C397 C 0.03376 0.60802 0.37736 0.0
C398 C 0.03245 0.59314 0.44301 0.0
N399 N 0.03747 0.62077 0.40486 0.0
C400 C 0.02947 0.5873 0.38194 0.0
C401 C 0.0287 0.57955 0.41516 0.0
H402 H 0.03958 0.62422 0.45859 0.0
H403 H 0.0339 0.6138 0.35189 0.0
C404 C 0.02289 0.68322 0.31618 0.0
N405 N 0.01328 0.67484 0.34641 0.0
C406 C 0.01156 0.68528 0.28943 0.0
C407 C 0.98074 0.67087 0.32593 0.0
C408 C 0.99276 0.66905 0.35212 0.0
C409 C 0.99008 0.67872 0.29386 0.0
H410 H 0.03928 0.68774 0.31263 0.0
H411 H 0.98561 0.66262 0.37665 0.0
O412 O 0.06504 0.66913 0.43119 0.0
O413 O 0.05086 0.69908 0.40049 0.0
O414 O 0.0497 0.663 0.35613 0.0
O415 O 0.01787 0.65177 0.41626 0.0
H416 H 0.08248 0.70379 0.46918 0.0
H417 H 0.08682 0.64952 0.43892 0.0
H418 H 0.11365 0.71491 0.50669 0.0
H419 H 0.11815 0.66175 0.47654 0.0
H420 H 0.99512 0.70557 0.43594 0.0
H421 H 0.06731 0.7398 0.38857 0.0
H422 H 0.01222 0.68414 0.42585 0.0
H423 H 0.0492 0.76031 0.3994 0.0
H424 H 0.1436 0.74501 0.38778 0.0
H425 H 0.10999 0.72564 0.29154 0.0
H426 H 0.01067 0.6532 0.54785 0.0
H427 H 0.046 0.72113 0.5365 0.0
H428 H 0.04279 0.65089 0.29169 0.0
H429 H 0.08252 0.66026 0.37878 0.0
H430 H 0.06377 0.63885 0.25843 0.0
H431 H 0.10273 0.64805 0.34415 0.0
H432 H 0.01116 0.63383 0.35475 0.0
H433 H 0.98363 0.63018 0.4536 0.0
H434 H 0.97811 0.602 0.33703 0.0
H435 H 0.95092 0.59833 0.43402 0.0
H436 H 0.03157 0.58782 0.4691 0.0
H437 H 0.02688 0.57751 0.35966 0.0
H438 H 0.01935 0.69093 0.26501 0.0
H439 H 0.96425 0.66568 0.33041 0.0
Li440 Li 0.38557 0.06692 0.72689 0.0
Li441 Li 0.36643 0.03855 0.7684 0.0
Li442 Li 0.39516 0.03932 0.73224 0.0
Li443 Li 0.36029 0.0308 0.70849 0.0
C444 C 0.41548 0.07245 0.78338 0.0
N445 N 0.45333 0.09795 0.81618 0.0
C446 C 0.41579 0.07635 0.8184 0.0
C447 C 0.43439 0.08142 0.76506 0.0
C448 C 0.43509 0.08934 0.83451 0.0
C449 C 0.45337 0.09428 0.7821 0.0
C450 C 0.3384 0.05086 0.74978 0.0
C451 C 0.30377 0.03284 0.77537 0.0
N452 N 0.30524 0.0518 0.7819 0.0
C453 C 0.33953 0.07016 0.7566 0.0
C454 C 0.32034 0.03203 0.75908 0.0
C455 C 0.32261 0.0703 0.7729 0.0
C456 C 0.38311 0.09918 0.69386 0.0
N457 N 0.39452 0.09569 0.71777 0.0
C458 C 0.41403 0.13245 0.73116 0.0
C459 C 0.40986 0.11182 0.7362 0.0
C460 C 0.40222 0.13645 0.70702 0.0
C461 C 0.38681 0.11953 0.68786 0.0
H462 H 0.3705 0.08597 0.68044 0.0
H463 H 0.41842 0.10868 0.75559 0.0
C464 C 0.34828 0.01508 0.82904 0.0
N465 N 0.35452 0.03361 0.8126 0.0
C466 C 0.33971 0.01191 0.86187 0.0
C467 C 0.34319 0.04652 0.85921 0.0
C468 C 0.35257 0.04937 0.82725 0.0
C469 C 0.33692 0.02774 0.87753 0.0
H470 H 0.35033 0.00294 0.81689 0.0
H471 H 0.35825 0.06419 0.81399 0.0
C472 C 0.39664 0.06346 0.66275 0.0
N473 N 0.412 0.09119 0.60826 0.0
C474 C 0.38287 0.06314 0.63765 0.0
C475 C 0.41825 0.07778 0.65997 0.0
C476 C 0.39093 0.0773 0.61034 0.0
C477 C 0.4257 0.09171 0.63228 0.0
C478 C 0.35575 0.9947 0.73149 0.0
C479 C 0.36617 0.98668 0.71202 0.0
C480 C 0.33414 0.98215 0.73779 0.0
C481 C 0.35469 0.96625 0.69877 0.0
C482 C 0.32322 0.96181 0.72407 0.0
N483 N 0.33363 0.95435 0.70499 0.0
C484 C 0.42602 0.03023 0.75908 0.0
C485 C 0.42669 0.03488 0.69902 0.0
C486 C 0.44346 0.02725 0.75725 0.0
N487 N 0.41815 0.0341 0.7302 0.0
C488 C 0.44413 0.03207 0.69603 0.0
C489 C 0.45288 0.02836 0.7254 0.0
H490 H 0.41892 0.02976 0.78356 0.0
H491 H 0.41997 0.03778 0.67645 0.0
C492 C 0.32412 0.02036 0.66989 0.0
N493 N 0.34022 0.01627 0.67352 0.0
C494 C 0.31235 0.01493 0.63983 0.0
C495 C 0.33305 -5e-05 0.61856 0.0
C496 C 0.34454 0.00581 0.64901 0.0
C497 C 0.3173 0.00532 0.61326 0.0
H498 H 0.32142 0.02931 0.68906 0.0
H499 H 0.35795 0.00351 0.65194 0.0
O500 O 0.3967 0.05973 0.76733 0.0
O501 O 0.35494 0.05041 0.73424 0.0
O502 O 0.38905 0.04978 0.68981 0.0
O503 O 0.36668 0.0147 0.74444 0.0
H504 H 0.40127 0.06946 0.83295 0.0
H505 H 0.43441 0.07849 0.73801 0.0
H506 H 0.43558 0.09255 0.86159 0.0
H507 H 0.46814 0.10134 0.76824 0.0
H508 H 0.28976 0.0184 0.78287 0.0
H509 H 0.3534 0.08489 0.74974 0.0
H510 H 0.31922 0.01698 0.75395 0.0
H511 H 0.32331 0.08512 0.7785 0.0
H512 H 0.42611 0.14509 0.74637 0.0
H513 H 0.37705 0.12185 0.6695 0.0
H514 H 0.33587 0.99738 0.8749 0.0
H515 H 0.34108 0.05911 0.86929 0.0
H516 H 0.3661 0.05228 0.63937 0.0
H517 H 0.42918 0.07815 0.67893 0.0
H518 H 0.38043 0.07729 0.59084 0.0
H519 H 0.44238 0.10292 0.62988 0.0
H520 H 0.3829 0.99617 0.70696 0.0
H521 H 0.3259 0.98804 0.75313 0.0
H522 H 0.36252 0.95987 0.6835 0.0
H523 H 0.30647 0.95193 0.72863 0.0
H524 H 0.44979 0.02457 0.78056 0.0
H525 H 0.45063 0.03268 0.6709 0.0
H526 H 0.30035 0.01935 0.6366 0.0
H527 H 0.33761 0.9929 0.59837 0.0
Li528 Li 0.63783 0.67932 0.61797 0.0
Li529 Li 0.60217 0.6485 0.60082 0.0
Li530 Li 0.62768 0.67523 0.55774 0.0
Li531 Li 0.61024 0.68451 0.59935 0.0
C532 C 0.639 0.64198 0.59445 0.0
N533 N 0.65413 0.61495 0.60896 0.0
C534 C 0.63105 0.62823 0.62234 0.0
C535 C 0.65469 0.64202 0.574 0.0
C536 C 0.63888 0.61466 0.62922 0.0
C537 C 0.66213 0.62824 0.58177 0.0
C538 C 0.59858 0.67226 0.66319 0.0
C539 C 0.56533 0.66492 0.6878 0.0
N540 N 0.57579 0.68154 0.70944 0.0
C541 C 0.60897 0.6892 0.6858 0.0
C542 C 0.57657 0.65999 0.66423 0.0
C543 C 0.59718 0.69367 0.70891 0.0
C544 C 0.66576 0.70782 0.66492 0.0
N545 N 0.66037 0.68902 0.64994 0.0
C546 C 0.68078 0.68257 0.69058 0.0
C547 C 0.66862 0.67703 0.66092 0.0
C548 C 0.68427 0.7005 0.70905 0.0
C549 C 0.67775 0.71392 0.69482 0.0
H550 H 0.65925 0.71722 0.65523 0.0
H551 H 0.66471 0.66249 0.64822 0.0
C552 C 0.57702 0.60591 0.5806 0.0
N553 N 0.58258 0.61927 0.60769 0.0
C554 C 0.56372 0.5842 0.58521 0.0
C555 C 0.56184 0.59052 0.64539 0.0
C556 C 0.57537 0.61202 0.63969 0.0
C557 C 0.55598 0.57618 0.61804 0.0
H558 H 0.58328 0.61211 0.55551 0.0
H559 H 0.58045 0.62288 0.66097 0.0
C560 C 0.66104 0.71336 0.57613 0.0
N561 N 0.70271 0.73753 0.55609 0.0
C562 C 0.66959 0.73487 0.56925 0.0
C563 C 0.67374 0.70417 0.57278 0.0
C564 C 0.69067 0.74682 0.55917 0.0
C565 C 0.69474 0.71664 0.56264 0.0
C566 C 0.58283 0.66793 0.54819 0.0
C567 C 0.59033 0.68663 0.52957 0.0
C568 C 0.56113 0.65447 0.55208 0.0
C569 C 0.57589 0.69175 0.51554 0.0
C570 C 0.5472 0.66014 0.53759 0.0
N571 N 0.55481 0.67852 0.51982 0.0
C572 C 0.6363 0.6592 0.50013 0.0
C573 C 0.647 0.6955 0.49484 0.0
C574 C 0.64455 0.65927 0.46806 0.0
N575 N 0.63786 0.67716 0.51292 0.0
C576 C 0.65547 0.69629 0.46251 0.0
C577 C 0.65431 0.67799 0.4488 0.0
H578 H 0.62884 0.64486 0.51512 0.0
H579 H 0.64781 0.70951 0.50558 0.0
C580 C 0.61322 0.72317 0.61382 0.0
N581 N 0.5987 0.70251 0.60878 0.0
C582 C 0.60694 0.73735 0.62464 0.0
C583 C 0.57078 0.70878 0.62506 0.0
C584 C 0.57774 0.69519 0.61363 0.0
C585 C 0.58552 0.73011 0.63094 0.0
H586 H 0.6298 0.72853 0.61061 0.0
H587 H 0.56647 0.67866 0.61001 0.0
O588 O 0.63124 0.65509 0.58681 0.0
O589 O 0.60985 0.66771 0.64018 0.0
O590 O 0.64029 0.70151 0.58562 0.0
O591 O 0.59669 0.66272 0.56233 0.0
H592 H 0.61931 0.62833 0.63893 0.0
H593 H 0.66112 0.65262 0.55241 0.0
H594 H 0.63292 0.60399 0.65078 0.0
H595 H 0.67428 0.62812 0.56617 0.0
H596 H 0.5483 0.65564 0.68869 0.0
H597 H 0.62594 0.69887 0.68548 0.0
H598 H 0.56818 0.6471 0.64646 0.0
H599 H 0.60504 0.70679 0.72644 0.0
H600 H 0.68589 0.67202 0.70052 0.0
H601 H 0.68007 0.72786 0.7083 0.0
H602 H 0.55997 0.57381 0.56341 0.0
H603 H 0.55609 0.58525 0.67106 0.0
H604 H 0.65999 0.74226 0.57145 0.0
H605 H 0.66753 0.68762 0.57791 0.0
H606 H 0.69746 0.76346 0.55372 0.0
H607 H 0.70471 0.7097 0.55994 0.0
H608 H 0.60711 0.69717 0.52634 0.0
H609 H 0.55514 0.6399 0.56637 0.0
H610 H 0.58143 0.70626 0.50128 0.0
H611 H 0.53035 0.64995 0.54054 0.0
H612 H 0.64351 0.64486 0.45863 0.0
H613 H 0.66259 0.71095 0.44825 0.0
H614 H 0.61881 0.75364 0.6294 0.0
H615 H 0.55412 0.70265 0.6297 0.0
Li616 Li 0.95517 0.59942 0.92247 0.0
Li617 Li 0.96026 0.63124 0.95101 0.0
Li618 Li 0.92729 0.60872 0.92143 0.0
Li619 Li 0.95908 0.63088 0.88999 0.0
C620 C 0.92866 0.59948 0.99138 0.0
N621 N 0.90891 0.59721 0.05275 0.0
C622 C 0.92237 0.61421 -0.00094 0.0
C623 C 0.92494 0.58364 0.01499 0.0
C624 C 0.91242 0.6128 0.03021 0.0
C625 C 0.91491 0.58274 0.04585 0.0
C626 C 0.99903 0.63871 0.93632 0.0
C627 C 0.03277 0.66977 0.94707 0.0
N628 N 0.03723 0.6588 0.9705 0.0
C629 C 0.00406 0.62772 0.96027 0.0
C630 C 0.01359 0.65988 0.92945 0.0
C631 C 0.02339 0.63816 0.97738 0.0
C632 C 0.96731 0.57197 0.89279 0.0
N633 N 0.96217 0.57777 0.92267 0.0
C634 C 0.97178 0.55603 0.95457 0.0
C635 C 0.96375 0.56976 0.95315 0.0
C636 C 0.97804 0.5504 0.92428 0.0
C637 C 0.9752 0.55806 0.89297 0.0
H638 H 0.96598 0.57874 0.86896 0.0
H639 H 0.95968 0.57481 0.97649 0.0
C640 C 0.9687 0.66407 -0.00163 0.0
N641 N 0.97059 0.64677 0.99223 0.0
C642 C 0.96866 0.67056 0.03193 0.0
C643 C 0.9738 0.64212 0.05178 0.0
C644 C 0.97407 0.63638 0.01795 0.0
C645 C 0.97014 0.65879 0.05892 0.0
H646 H 0.96524 0.67163 0.97771 0.0
H647 H 0.97474 0.62225 0.01247 0.0
C648 C 0.92126 0.5836 0.86913 0.0
N649 N 0.8848 0.54994 0.84344 0.0
C650 C 0.91268 0.58571 0.83847 0.0
C651 C 0.91138 0.5644 0.88671 0.0
C652 C 0.89421 0.56849 0.82591 0.0
C653 C 0.89294 0.54756 0.8733 0.0
C654 C 0.94798 0.65916 0.91052 0.0
C655 C 0.93137 0.66249 0.90158 0.0
C656 C 0.96876 0.67576 0.90782 0.0
C657 C 0.93587 0.6823 0.88953 0.0
C658 C 0.97263 0.69533 0.89561 0.0
N659 N 0.95624 0.69816 0.88676 0.0
C660 C 0.88418 0.58753 0.94591 0.0
C661 C 0.89153 0.60677 0.8942 0.0
C662 C 0.86458 0.58638 0.9484 0.0
N663 N 0.8977 0.59883 0.92027 0.0
C664 C 0.87188 0.60547 0.8951 0.0
C665 C 0.85865 0.5964 0.92362 0.0
H666 H 0.88903 0.58059 0.96572 0.0
H667 H 0.90248 0.61539 0.87382 0.0
C668 C 0.98948 0.65224 0.83944 0.0
N669 N 0.96945 0.64632 0.84909 0.0
C670 C 0.99722 0.66234 0.80822 0.0
C671 C 0.96371 0.66045 0.79778 0.0
C672 C 0.95656 0.65027 0.82919 0.0
C673 C 0.98415 0.66624 0.78673 0.0
H674 H 0.99922 0.64859 0.85559 0.0
H675 H 0.94057 0.64502 0.83737 0.0
O676 O 0.93912 0.60096 0.96156 0.0
O677 O 0.98017 0.62867 0.91922 0.0
O678 O 0.93902 0.60038 0.88229 0.0
O679 O 0.94392 0.63975 0.92182 0.0
H680 H 0.92512 0.62662 0.9812 0.0
H681 H 0.92978 0.57218 0.00958 0.0
H682 H 0.90753 0.62411 0.03649 0.0
H683 H 0.91193 0.57056 0.06435 0.0
H684 H 0.04415 0.68615 0.94203 0.0
H685 H 0.99308 0.61136 0.9659 0.0
H686 H 0.01027 0.66858 0.91051 0.0
H687 H 0.02739 0.62984 -0.00387 0.0
H688 H 0.97356 0.55028 0.97916 0.0
H689 H 0.97998 0.55416 0.86913 0.0
H690 H 0.96566 0.68341 0.03677 0.0
H691 H 0.97497 0.63272 0.07219 0.0
H692 H 0.92014 0.60053 0.82468 0.0
H693 H 0.91776 0.5626 0.91064 0.0
H694 H 0.88733 0.56989 0.80226 0.0
H695 H 0.88505 0.53262 0.88668 0.0
H696 H 0.91517 0.65001 0.9041 0.0
H697 H 0.98174 0.67351 0.91505 0.0
H698 H 0.92316 0.68507 0.88243 0.0
H699 H 0.98866 0.70826 0.89322 0.0
H700 H 0.85496 0.57902 0.97076 0.0
H701 H 0.86769 0.61263 0.87458 0.0
H702 H 0.0131 0.66664 0.80058 0.0
H703 H 0.95307 0.6629 0.78167 0.0
Li704 Li 0.3272 0.96521 0.27591 0.0
Li705 Li 0.35395 0.95738 0.25305 0.0
Li706 Li 0.32868 0.96145 0.21407 0.0
Li707 Li 0.31685 0.93008 0.24944 0.0
C708 C 0.36097 0.00376 0.25248 0.0
N709 N 0.38111 0.04626 0.26838 0.0
C710 C 0.38001 0.01309 0.27052 0.0
C711 C 0.35229 0.01613 0.2422 0.0
C712 C 0.38992 0.03458 0.2784 0.0
C713 C 0.36267 0.03756 0.25059 0.0
C714 C 0.34218 0.93887 0.31866 0.0
C715 C 0.3543 0.91754 0.34684 0.0
N716 N 0.35937 0.93013 0.37492 0.0
C717 C 0.34733 0.95149 0.3479 0.0
C718 C 0.34551 0.92165 0.31818 0.0
C719 C 0.35607 0.94685 0.37604 0.0
C720 C 0.29985 0.96373 0.32495 0.0
N721 N 0.31934 0.97703 0.31207 0.0
C722 C 0.32592 0.00218 0.35608 0.0
C723 C 0.33228 0.99611 0.32665 0.0
C724 C 0.30628 0.98829 0.37078 0.0
C725 C 0.29296 0.96905 0.3545 0.0
H726 H 0.29003 0.94855 0.31301 0.0
H727 H 0.3479 0.00619 0.31667 0.0
C728 C 0.39202 0.96015 0.23093 0.0
N729 N 0.38203 0.96255 0.2584 0.0
C730 C 0.41272 0.96408 0.23395 0.0
C731 C 0.41241 0.97289 0.29342 0.0
C732 C 0.39184 0.96897 0.28917 0.0
C733 C 0.42311 0.97045 0.2656 0.0
H734 H 0.38394 0.95525 0.20663 0.0
H735 H 0.38389 0.97149 0.31031 0.0
C736 C 0.28821 0.95161 0.2337 0.0
N737 N 0.25677 0.95922 0.21146 0.0
C738 C 0.26965 0.93527 0.2196 0.0
C739 C 0.29064 0.97172 0.237 0.0
C740 C 0.25398 0.93946 0.20837 0.0
C741 C 0.2746 0.97528 0.22547 0.0
C742 C 0.33655 0.92277 0.19695 0.0
C743 C 0.32717 0.91649 0.16475 0.0
C744 C 0.34424 0.91103 0.21344 0.0
C745 C 0.32531 0.89828 0.14981 0.0
C746 C 0.3421 0.89293 0.19766 0.0
N747 N 0.33273 0.88697 0.16645 0.0
C748 C 0.33936 0.99085 0.16127 0.0
C749 C 0.30671 0.95926 0.1535 0.0
C750 C 0.33612 0.99939 0.13163 0.0
N751 N 0.32457 0.9713 0.17187 0.0
C752 C 0.30274 0.96722 0.12372 0.0
C753 C 0.31747 0.98766 0.11266 0.0
H754 H 0.35366 -0.00016 0.17593 0.0
H755 H 0.29546 0.94354 0.16216 0.0
C756 C 0.29074 0.89212 0.28382 0.0
N757 N 0.29624 0.90123 0.25242 0.0
C758 C 0.27268 0.87238 0.28775 0.0
C759 C 0.26691 0.87144 0.22674 0.0
C760 C 0.28496 0.89125 0.22404 0.0
C761 C 0.26015 0.86207 0.25908 0.0
H762 H 0.2996 0.90074 0.30609 0.0
H763 H 0.28921 0.89919 0.19962 0.0
O764 O 0.35116 0.98277 0.24432 0.0
O765 O 0.3335 0.94312 0.29096 0.0
O766 O 0.30384 0.94785 0.24435 0.0
O767 O 0.33842 0.94048 0.21202 0.0
H768 H 0.38707 0.00386 0.27844 0.0
H769 H 0.33776 0.00931 0.22775 0.0
H770 H 0.40462 0.04196 0.29246 0.0
H771 H 0.3561 0.04729 0.24287 0.0
H772 H 0.35703 0.90431 0.34679 0.0
H773 H 0.34475 0.96481 0.34878 0.0
H774 H 0.34126 0.91151 0.29602 0.0
H775 H 0.36024 0.95654 0.39877 0.0
H776 H 0.33679 0.01695 0.36841 0.0
H777 H 0.27775 0.95793 0.36529 0.0
H778 H 0.42044 0.96199 0.21191 0.0
H779 H 0.42002 0.97822 0.31806 0.0
H780 H 0.26747 0.91957 0.21707 0.0
H781 H 0.3047 0.98442 0.24844 0.0
H782 H 0.2396 0.927 0.19716 0.0
H783 H 0.27632 0.99081 0.22771 0.0
H784 H 0.32125 0.9255 0.15158 0.0
H785 H 0.35185 0.9159 0.2381 0.0
H786 H 0.31796 0.89315 0.125 0.0
H787 H 0.34791 0.88365 0.21019 0.0
H788 H 0.34826 0.01491 0.12344 0.0
H789 H 0.28824 0.95759 0.10976 0.0
H790 H 0.26788 0.86594 0.31324 0.0
H791 H 0.25781 0.86398 0.20394 0.0
Li792 Li 0.361 0.32657 0.6127 0.0
Li793 Li 0.39739 0.3543 0.60244 0.0
Li794 Li 0.37598 0.33089 0.5556 0.0
Li795 Li 0.38856 0.31809 0.60119 0.0
C796 C 0.367 0.36658 0.59419 0.0
N797 N 0.35883 0.39727 0.61847 0.0
C798 C 0.36647 0.36965 0.62934 0.0
C799 C 0.36324 0.37905 0.57137 0.0
C800 C 0.36235 0.38525 0.64113 0.0
C801 C 0.35918 0.39451 0.58414 0.0
C802 C 0.39759 0.34374 0.66909 0.0
C803 C 0.43086 0.36352 0.6986 0.0
N804 N 0.42049 0.36465 0.72665 0.0
C805 C 0.38729 0.34519 0.69822 0.0
C806 C 0.41957 0.35306 0.66927 0.0
C807 C 0.39914 0.35579 0.72705 0.0
C808 C 0.3353 0.30617 0.66685 0.0
N809 N 0.33648 0.31799 0.63933 0.0
C810 C 0.30709 0.32071 0.65921 0.0
C811 C 0.32221 0.32445 0.63417 0.0
C812 C 0.30692 0.31042 0.68976 0.0
C813 C 0.32072 0.30232 0.69261 0.0
H814 H 0.34679 0.3011 0.66996 0.0
H815 H 0.32328 0.3335 0.61162 0.0
C816 C 0.4335 0.39269 0.58651 0.0
N817 N 0.41866 0.38303 0.61128 0.0
C818 C 0.44963 0.4136 0.59056 0.0
C819 C 0.43496 0.41428 0.64556 0.0
C820 C 0.41893 0.3935 0.64021 0.0
C821 C 0.45059 0.42455 0.62057 0.0
H822 H 0.43281 0.38412 0.56357 0.0
H823 H 0.40686 0.38573 0.6594 0.0
C824 C 0.33939 0.29337 0.56818 0.0
N825 N 0.29901 0.27146 0.54154 0.0
C826 C 0.32869 0.27133 0.56676 0.0
C827 C 0.32947 0.30426 0.55618 0.0
C828 C 0.30831 0.26054 0.55316 0.0
C829 C 0.30908 0.2929 0.54277 0.0
C830 C 0.41883 0.33291 0.55863 0.0
C831 C 0.41204 0.31614 0.53564 0.0
C832 C 0.43875 0.34142 0.57372 0.0
C833 C 0.42527 0.30798 0.52836 0.0
C834 C 0.45152 0.33282 0.56577 0.0
N835 N 0.44456 0.31641 0.54347 0.0
C836 C 0.37723 0.35121 0.49664 0.0
C837 C 0.36208 0.31441 0.48744 0.0
C838 C 0.37436 0.35439 0.46249 0.0
N839 N 0.37101 0.33152 0.50842 0.0
C840 C 0.35902 0.31689 0.45279 0.0
C841 C 0.36529 0.33715 0.43993 0.0
H842 H 0.38447 0.36449 0.51396 0.0
H843 H 0.35742 0.29891 0.49755 0.0
C844 C 0.41209 0.30283 0.63742 0.0
N845 N 0.39689 0.298 0.61347 0.0
C846 C 0.41578 0.2872 0.65039 0.0
C847 C 0.38884 0.26204 0.61254 0.0
C848 C 0.38567 0.2782 0.60031 0.0
C849 C 0.40367 0.26636 0.63863 0.0
H850 H 0.42097 0.31862 0.6473 0.0
H851 H 0.37373 0.27479 0.58118 0.0
O852 O 0.37088 0.3513 0.58202 0.0
O853 O 0.38621 0.3335 0.64052 0.0
O854 O 0.3594 0.30406 0.58138 0.0
O855 O 0.40578 0.34056 0.56701 0.0
H856 H 0.36912 0.36003 0.64736 0.0
H857 H 0.36337 0.37678 0.54406 0.0
H858 H 0.3619 0.38777 0.66829 0.0
H859 H 0.35627 0.40428 0.56675 0.0
H860 H 0.44788 0.3709 0.69895 0.0
H861 H 0.37035 0.33835 0.6986 0.0
H862 H 0.4279 0.35275 0.64668 0.0
H863 H 0.39135 0.35701 0.74971 0.0
H864 H 0.29649 0.32685 0.6555 0.0
H865 H 0.32158 0.29457 0.71564 0.0
H866 H 0.46146 0.42099 0.57075 0.0
H867 H 0.43504 0.42231 0.66887 0.0
H868 H 0.33604 0.26261 0.57609 0.0
H869 H 0.33736 0.32127 0.55701 0.0
H870 H 0.29988 0.24348 0.55188 0.0
H871 H 0.30126 0.30113 0.53332 0.0
H872 H 0.39659 0.30929 0.52396 0.0
H873 H 0.44424 0.35445 0.5915 0.0
H874 H 0.42018 0.2949 0.5108 0.0
H875 H 0.46694 0.33917 0.57738 0.0
H876 H 0.37908 0.37023 0.45395 0.0
H877 H 0.35216 0.3032 0.43622 0.0
H878 H 0.42767 0.29131 0.67001 0.0
H879 H 0.37909 0.24617 0.60282 0.0
Li880 Li 0.04101 0.39207 0.90894 0.0
Li881 Li 0.03331 0.35849 0.93804 0.0
Li882 Li 0.06876 0.38308 0.91806 0.0
Li883 Li 0.04157 0.36189 0.87804 0.0
C884 C 0.06624 0.39911 0.97712 0.0
N885 N 0.0965 0.42132 0.0262 0.0
C886 C 0.06833 0.38861 0.00543 0.0
C887 C 0.0795 0.4209 0.97379 0.0
C888 C 0.08372 0.40013 0.02997 0.0
C889 C 0.09473 0.43184 -0.00113 0.0
C890 C 0.99668 0.3517 0.91086 0.0
C891 C 0.96271 0.3199 0.91309 0.0
N892 N 0.9553 0.33001 0.93304 0.0
C893 C 0.98869 0.36183 0.93112 0.0
C894 C 0.98357 0.33061 0.90154 0.0
C895 C 0.96775 0.35057 0.9422 0.0
C896 C 0.03184 0.42267 0.87983 0.0
N897 N 0.0345 0.4141 0.90896 0.0
C898 C 0.02957 0.43822 0.94335 0.0
C899 C 0.03317 0.42132 0.94031 0.0
C900 C 0.02726 0.44781 0.91383 0.0
C901 C 0.02813 0.43967 0.88169 0.0
H902 H 0.033 0.41657 0.85523 0.0
H903 H 0.03505 0.414 0.96303 0.0
C904 C 0.02277 0.32583 0.98613 0.0
N905 N 0.01969 0.34204 0.97696 0.0
C906 C 0.02033 0.31928 0.02018 0.0
C907 C 0.01034 0.34534 0.03404 0.0
C908 C 0.01279 0.35126 -0.00024 0.0
C909 C 0.01502 0.32983 0.04458 0.0
H910 H 0.02917 0.31941 0.96801 0.0
H911 H 0.0115 0.36478 0.99214 0.0
C912 C 0.07946 0.40909 0.86108 0.0
N913 N 0.11509 0.44192 0.83165 0.0
C914 C 0.09187 0.40487 0.8389 0.0
C915 C 0.0851 0.43 0.86818 0.0
C916 C 0.10985 0.4217 0.82433 0.0
C917 C 0.10319 0.44638 0.85306 0.0
C918 C 0.0512 0.33349 0.90426 0.0
C919 C 0.06914 0.33176 0.89861 0.0
C920 C 0.03119 0.31609 0.89839 0.0
C921 C 0.06674 0.31262 0.88696 0.0
C922 C 0.02945 0.29723 0.88672 0.0
N923 N 0.04712 0.29591 0.88129 0.0
C924 C 0.09922 0.38006 0.95373 0.0
C925 C 0.11435 0.41214 0.9227 0.0
C926 C 0.1188 0.38518 0.96724 0.0
N927 N 0.09733 0.39338 0.93171 0.0
C928 C 0.1344 0.41774 0.93511 0.0
C929 C 0.13685 0.40408 0.95754 0.0
H930 H 0.08535 0.3655 0.96121 0.0
H931 H 0.11254 0.42286 0.90608 0.0
C932 C 0.01868 0.34213 0.81803 0.0
N933 N 0.03675 0.34784 0.8356 0.0
C934 C 0.01578 0.33319 0.78555 0.0
C935 C 0.04975 0.33535 0.79068 0.0
C936 C 0.05215 0.34462 0.82268 0.0
C937 C 0.03159 0.32994 0.77122 0.0
H938 H 0.00683 0.34516 0.82879 0.0
H939 H 0.06653 0.34967 0.83695 0.0
O940 O 0.05156 0.38806 0.95243 0.0
O941 O 0.01712 0.36249 0.89967 0.0
O942 O 0.06158 0.39285 0.87506 0.0
O943 O 0.05324 0.3522 0.91511 0.0
H944 H 0.0584 0.37171 0.00822 0.0
H945 H 0.07819 0.42922 0.95189 0.0
H946 H 0.08557 0.39219 0.05193 0.0
H947 H 0.10517 0.4487 -0.00344 0.0
H948 H 0.95238 0.30357 0.9061 0.0
H949 H 0.99858 0.37816 0.93842 0.0
H950 H 0.98936 0.32264 0.88532 0.0
H951 H 0.9614 0.35818 0.95806 0.0
H952 H 0.02856 0.44369 0.96862 0.0
H953 H 0.02649 0.44668 0.85833 0.0
H954 H 0.02443 0.30754 0.02783 0.0
H955 H 0.00659 0.354 0.05256 0.0
H956 H 0.08768 0.3888 0.83304 0.0
H957 H 0.07575 0.43356 0.88538 0.0
H958 H 0.11964 0.41868 0.80718 0.0
H959 H 0.10779 0.46263 0.85842 0.0
H960 H 0.08475 0.34511 0.90286 0.0
H961 H 0.01718 0.31717 0.90281 0.0
H962 H 0.08049 0.31107 0.88235 0.0
H963 H 0.01406 0.28366 0.88199 0.0
H964 H 0.1197 0.37441 0.98525 0.0
H965 H 0.14782 0.43245 0.92676 0.0
H966 H 0.00173 0.32977 0.77135 0.0
H967 H 0.06225 0.33293 0.781 0.0
Li968 Li 0.64673 0.04389 0.25066 0.0
Li969 Li 0.67155 0.03247 0.27485 0.0
Li970 Li 0.68447 0.06876 0.25531 0.0
Li971 Li 0.67353 0.04068 0.21401 0.0
C972 C 0.66705 0.06586 0.31967 0.0
N973 N 0.67394 0.09219 0.37471 0.0
C974 C 0.67336 0.06179 0.35114 0.0
C975 C 0.66412 0.08325 0.31623 0.0
C976 C 0.67679 0.0753 0.37866 0.0
C977 C 0.66774 0.09641 0.34434 0.0
C978 C 0.63787 0.9973 0.24796 0.0
C979 C 0.63474 0.96289 0.25026 0.0
N980 N 0.61535 0.95496 0.26479 0.0
C981 C 0.61788 0.9888 0.26283 0.0
C982 C 0.64636 0.98424 0.24151 0.0
C983 C 0.60675 0.96736 0.27117 0.0
C984 C 0.60565 0.03077 0.22641 0.0
N985 N 0.61867 0.03841 0.25395 0.0
C986 C 0.58989 0.03223 0.29014 0.0
C987 C 0.61133 0.03961 0.28527 0.0
C988 C 0.57584 0.02332 0.26258 0.0
C989 C 0.58402 0.02315 0.23014 0.0
H990 H 0.61194 0.02967 0.20195 0.0
H991 H 0.62198 0.04543 0.30683 0.0
C992 C 0.69688 0.02725 0.32111 0.0
N993 N 0.67659 0.01761 0.30979 0.0
C994 C 0.70211 0.01995 0.35035 0.0
C995 C 0.66567 0.99215 0.35468 0.0
C996 C 0.66104 0.00029 0.32577 0.0
C997 C 0.68631 0.00239 0.36763 0.0
H998 H 0.70882 0.04131 0.30844 0.0
H999 H 0.64491 0.9934 0.31726 0.0
C1000 C 0.66955 0.0823 0.20184 0.0
N1001 N 0.67653 0.12031 0.17555 0.0
C1002 C 0.68415 0.09213 0.1755 0.0
C1003 C 0.65828 0.09162 0.21452 0.0
C1004 C 0.68749 0.11138 0.16259 0.0
C1005 C 0.66212 0.11091 0.20101 0.0
C1006 C 0.71285 0.04961 0.2329 0.0
C1007 C 0.73037 0.06804 0.22092 0.0
C1008 C 0.71218 0.03026 0.22964 0.0
C1009 C 0.74687 0.06674 0.20536 0.0
C1010 C 0.72897 0.02961 0.21387 0.0
N1011 N 0.74582 0.04771 0.20214 0.0
C1012 C 0.71637 0.09335 0.29654 0.0
C1013 C 0.71358 0.11515 0.25449 0.0
C1014 C 0.73419 0.11044 0.31036 0.0
N1015 N 0.70648 0.09587 0.2691 0.0
C1016 C 0.73181 0.13278 0.26715 0.0
C1017 C 0.74258 0.13041 0.29511 0.0
H1018 H 0.71058 0.07781 0.30734 0.0
H1019 H 0.70561 0.11686 0.23258 0.0
C1020 C 0.66332 0.01211 0.16089 0.0
N1021 N 0.67816 0.03179 0.17089 0.0
C1022 C 0.66612 0.00334 0.13121 0.0
C1023 C 0.69912 0.03561 0.12159 0.0
C1024 C 0.69568 0.04377 0.15168 0.0
C1025 C 0.68435 0.01498 0.11138 0.0
H1026 H 0.64929 0.00313 0.17609 0.0
H1027 H 0.70709 0.05953 0.15991 0.0
O1028 O 0.66357 0.05275 0.2925 0.0
O1029 O 0.64894 0.01822 0.23934 0.0
O1030 O 0.66575 0.06326 0.21429 0.0
O1031 O 0.69648 0.05054 0.24789 0.0
H1032 H 0.67556 0.04832 0.35432 0.0
H1033 H 0.6592 0.08659 0.29208 0.0
H1034 H 0.68168 0.07234 0.40316 0.0
H1035 H 0.66561 0.10997 0.34201 0.0
H1036 H 0.64113 0.95261 0.24547 0.0
H1037 H 0.61104 0.99863 0.26804 0.0
H1038 H 0.66175 0.99053 0.22988 0.0
H1039 H 0.5913 0.96059 0.28277 0.0
H1040 H 0.5843 0.03296 0.31546 0.0
H1041 H 0.57372 0.01624 0.20829 0.0
H1042 H 0.71812 0.02835 0.36005 0.0
H1043 H 0.65305 0.97884 0.36799 0.0
H1044 H 0.69284 0.08499 0.16522 0.0
H1045 H 0.6466 0.08397 0.2344 0.0
H1046 H 0.69881 0.11923 0.1423 0.0
H1047 H 0.65358 0.11836 0.21066 0.0
H1048 H 0.73112 0.08314 0.22337 0.0
H1049 H 0.69879 0.01591 0.2391 0.0
H1050 H 0.76049 0.08084 0.19578 0.0
H1051 H 0.72862 0.01473 0.21097 0.0
H1052 H 0.7415 0.10785 0.3325 0.0
H1053 H 0.73776 0.14787 0.25448 0.0
H1054 H 0.65399 0.98765 0.12369 0.0
H1055 H 0.7133 0.04516 0.10683 0.0
H1056 H 0.30687 0.3157 0.25816 0.0
H1057 H 0.35975 0.37547 0.22566 0.0
H1058 H 0.37648 0.37995 0.28227 0.0
H1059 H 0.30515 0.33206 0.34557 0.0
H1060 H 0.29835 0.30684 0.36397 0.0
H1061 H 0.29043 0.30826 0.32088 0.0
H1062 H 0.30908 0.28826 0.29929 0.0
H1063 H 0.31724 0.28698 0.34227 0.0
H1064 H 0.33664 0.29856 0.30876 0.0
H1065 H 0.38808 0.37751 0.34033 0.0
H1066 H 0.39303 0.36984 0.3997 0.0
H1067 H 0.33193 0.31233 0.39698 0.0
C1068 C 0.3219 0.3297 0.26329 0.0
C1069 C 0.3322 0.34529 0.23798 0.0
C1070 C 0.3518 0.36346 0.24508 0.0
C1071 C 0.36139 0.36609 0.27698 0.0
C1072 C 0.35105 0.35041 0.30144 0.0
C1073 C 0.33167 0.33267 0.29527 0.0
C1074 C 0.32399 0.31848 0.32651 0.0
C1075 C 0.30325 0.31629 0.34003 0.0
C1076 C 0.32161 0.29678 0.31873 0.0
C1077 C 0.34214 0.33103 0.35098 0.0
C1078 C 0.35759 0.3493 0.33576 0.0
C1079 C 0.37601 0.36339 0.35276 0.0
C1080 C 0.3786 0.35893 0.38657 0.0
C1081 C 0.36275 0.34065 0.40326 0.0
C1082 C 0.34439 0.32639 0.38494 0.0
H1083 H 0.97119 0.29489 0.59704 0.0
H1084 H 0.03213 0.33256 0.54865 0.0
H1085 H 0.04984 0.33308 0.60259 0.0
H1086 H 0.9823 0.32165 0.66918 0.0
H1087 H 0.96817 0.29998 0.69843 0.0
H1088 H 0.96015 0.29722 0.65451 0.0
H1089 H 0.96417 0.26412 0.64854 0.0
H1090 H 0.97204 0.26664 0.6928 0.0
H1091 H 0.98879 0.26568 0.65992 0.0
H1092 H 0.06055 0.33677 0.66268 0.0
H1093 H 0.06367 0.34327 0.72442 0.0
H1094 H 0.99601 0.30192 0.73547 0.0
C1095 C 0.98824 0.30239 0.59753 0.0
C1096 C 0.00035 0.31362 0.56886 0.0
C1097 C 0.02263 0.32391 0.57049 0.0
C1098 C 0.0328 0.32411 0.6009 0.0
C1099 C 0.02045 0.31375 0.62931 0.0
C1100 C 0.99863 0.3028 0.62782 0.0
C1101 C 0.98909 0.29578 0.6631 0.0
C1102 C 0.97407 0.30418 0.67179 0.0
C1103 C 0.97786 0.27162 0.66627 0.0
C1104 C 0.00888 0.30614 0.6848 0.0
C1105 C 0.0268 0.31582 0.66473 0.0
C1106 C 0.04672 0.32866 0.67875 0.0
C1107 C 0.04832 0.33221 0.71405 0.0
C1108 C 0.03009 0.32302 0.73507 0.0
C1109 C 0.01025 0.30921 0.7202 0.0
H1110 H 0.6851 0.00575 0.91125 0.0
H1111 H 0.65737 0.93825 0.92757 0.0
H1112 H 0.66778 0.94471 0.98792 0.0
H1113 H 0.72795 0.02382 0.97846 0.0
H1114 H 0.72418 0.04548 0.9906 0.0
H1115 H 0.71989 0.03636 0.94692 0.0
H1116 H 0.68206 0.03089 0.94908 0.0
H1117 H 0.68623 0.03996 0.99255 0.0
H1118 H 0.66417 0.01441 0.98206 0.0
H1119 H 0.67513 0.9573 0.04755 0.0
H1120 H 0.67701 0.97484 0.10226 0.0
H1121 H 0.69734 0.03386 0.04866 0.0
C1122 C 0.68149 0.99231 0.9273 0.0
C1123 C 0.67048 0.97148 0.91429 0.0
C1124 C 0.66623 0.95441 0.93638 0.0
C1125 C 0.67207 0.95792 0.97089 0.0
C1126 C 0.68215 0.97856 0.98308 0.0
C1127 C 0.68688 0.9955 0.96195 0.0
C1128 C 0.69481 0.0157 0.98228 0.0
C1129 C 0.71809 0.03126 0.97408 0.0
C1130 C 0.68098 0.02581 0.97613 0.0
C1131 C 0.69235 0.00718 0.0183 0.0
C1132 C 0.68576 0.98586 0.01809 0.0
C1133 C 0.68061 0.97404 0.04808 0.0
C1134 C 0.68154 0.9841 0.07898 0.0
C1135 C 0.6872 0.00566 0.07961 0.0
C1136 C 0.69335 0.01747 0.04899 0.0
H1137 H 0.65188 0.63124 0.26485 0.0
H1138 H 0.71238 0.68672 0.24352 0.0
H1139 H 0.71305 0.69988 0.30224 0.0
H1140 H 0.63023 0.65675 0.312 0.0
H1141 H 0.61655 0.63541 0.34197 0.0
H1142 H 0.62175 0.62998 0.29932 0.0
H1143 H 0.64102 0.61118 0.32384 0.0
H1144 H 0.63576 0.61642 0.36662 0.0
H1145 H 0.66247 0.62501 0.35356 0.0
H1146 H 0.70554 0.70765 0.36269 0.0
H1147 H 0.69162 0.70835 0.42012 0.0
H1148 H 0.63589 0.64782 0.39956 0.0
C1149 C 0.66532 0.64613 0.27258 0.0
C1150 C 0.68202 0.65806 0.24978 0.0
C1151 C 0.69949 0.67732 0.26084 0.0
C1152 C 0.69994 0.68493 0.294 0.0
C1153 C 0.6829 0.67293 0.31564 0.0
C1154 C 0.66604 0.65385 0.30537 0.0
C1155 C 0.64947 0.64405 0.33291 0.0
C1156 C 0.62825 0.64141 0.32082 0.0
C1157 C 0.64705 0.62292 0.34494 0.0
C1158 C 0.6594 0.66075 0.36021 0.0
C1159 C 0.6787 0.67729 0.34998 0.0
C1160 C 0.69051 0.69471 0.371 0.0
C1161 C 0.68241 0.69505 0.40342 0.0
C1162 C 0.66274 0.67808 0.41435 0.0
C1163 C 0.65115 0.66085 0.39223 0.0
H1164 H 0.00287 0.65289 0.74109 0.0
H1165 H 0.98048 0.69734 0.75318 0.0
H1166 H 0.99102 0.70944 0.69341 0.0
H1167 H 0.04812 0.68542 0.6875 0.0
H1168 H 0.04443 0.66333 0.66193 0.0
H1169 H 0.03625 0.65939 0.70602 0.0
H1170 H 0.99843 0.63103 0.68776 0.0
H1171 H 0.00646 0.63493 0.64364 0.0
H1172 H 0.98442 0.63777 0.65692 0.0
H1173 H 0.00323 0.7156 0.6312 0.0
H1174 H 0.01444 0.71415 0.57194 0.0
H1175 H 0.02862 0.66554 0.60255 0.0
C1176 C 0.00058 0.66549 0.73143 0.0
C1177 C 0.99116 0.67442 0.75176 0.0
C1178 C 0.98776 0.69037 0.73789 0.0
C1179 C 0.99376 0.69737 0.70412 0.0
C1180 C 0.00301 0.68814 0.68471 0.0
C1181 C 0.00631 0.67249 0.69794 0.0
C1182 C 0.01539 0.66419 0.67158 0.0
C1183 C 0.03736 0.66834 0.68241 0.0
C1184 C 0.00027 0.64059 0.66457 0.0
C1185 C 0.01671 0.67758 0.64131 0.0
C1186 C 0.00963 0.6914 0.64924 0.0
C1187 C 0.00893 0.70493 0.62479 0.0
C1188 C 0.01541 0.70407 0.5913 0.0
C1189 C 0.02231 0.68968 0.5827 0.0
C1190 C 0.0232 0.67655 0.60826 0.0
H1191 H 0.30121 0.96712 0.05196 0.0
H1192 H 0.32679 0.02831 0.1009 0.0
H1193 H 0.32813 0.04454 0.04516 0.0
H1194 H 0.33156 0.98168 0.9841 0.0
H1195 H 0.31239 0.96544 0.9524 0.0
H1196 H 0.30828 0.95747 -0.00359 0.0
H1197 H 0.27202 0.95563 -0.00396 0.0
H1198 H 0.27578 0.96324 0.9516 0.0
H1199 H 0.27024 0.97822 0.98226 0.0
H1200 H 0.33573 0.05509 0.9851 0.0
H1201 H 0.3457 0.05911 0.92499 0.0
H1202 H 0.31071 0.9908 0.91289 0.0
C1203 C 0.30617 0.98375 0.05119 0.0
C1204 C 0.31414 0.99649 0.08068 0.0
C1205 C 0.32099 0.01831 0.0785 0.0
C1206 C 0.32157 0.02764 0.04701 0.0
C1207 C 0.3147 0.01485 0.01809 0.0
C1208 C 0.30656 0.99326 0.01995 0.0
C1209 C 0.30251 0.98353 0.98459 0.0
C1210 C 0.31441 0.97133 0.97908 0.0
C1211 C 0.27872 0.96932 0.97825 0.0
C1212 C 0.31151 0.00324 0.96275 0.0
C1213 C 0.31806 0.02107 0.98258 0.0
C1214 C 0.32982 0.04125 0.969 0.0
C1215 C 0.33535 0.04333 0.93442 0.0
C1216 C 0.32888 0.0253 0.91334 0.0
C1217 C 0.31616 0.00502 0.92783 0.0
H1218 H 0.15109 0.37639 0.96915 0.0
H1219 H 0.17076 0.44305 0.97441 0.0
H1220 H 0.20596 0.4508 -0.00547 0.0
H1221 H 0.17765 0.37546 0.04656 0.0
H1222 H 0.18406 0.35644 0.02956 0.0
H1223 H 0.1607 0.3565 0.01517 0.0
H1224 H 0.17352 0.36009 0.95243 0.0
H1225 H 0.19697 0.36017 0.96662 0.0
H1226 H 0.19916 0.38163 0.94089 0.0
H1227 H 0.23962 0.45102 0.0127 0.0
H1228 H 0.26808 0.44355 0.02802 0.0
H1229 H 0.22427 0.37647 0.01554 0.0
C1230 C 0.16258 0.39262 0.97505 0.0
C1231 C 0.15804 0.40908 0.97018 0.0
C1232 C 0.17388 0.43015 0.97742 0.0
C1233 C 0.19389 0.43471 0.98913 0.0
C1234 C 0.1977 0.418 0.99378 0.0
C1235 C 0.18238 0.39738 0.98717 0.0
C1236 C 0.19022 0.38218 -0.00572 0.0
C1237 C 0.1774 0.36674 0.02311 0.0
C1238 C 0.18995 0.37033 0.96161 0.0
C1239 C 0.21247 0.39746 0.0056 0.0
C1240 C 0.21661 0.41807 0.0051 0.0
C1241 C 0.23647 0.4349 0.0135 0.0
C1242 C 0.2525 0.4305 0.02238 0.0
C1243 C 0.2485 0.40942 0.02288 0.0
C1244 C 0.22807 0.3928 0.01484 0.0
H1245 H 0.8256 0.2487 0.35401 0.0
H1246 H 0.8649 0.22359 0.38983 0.0
H1247 H 0.83863 0.18833 0.36911 0.0
H1248 H 0.77565 0.20328 0.37628 0.0
H1249 H 0.76207 0.20494 0.33897 0.0
H1250 H 0.78407 0.22848 0.35629 0.0
H1251 H 0.80265 0.23655 0.29733 0.0
H1252 H 0.78075 0.21294 0.27989 0.0
H1253 H 0.8071 0.21695 0.27717 0.0
H1254 H 0.80942 0.15645 0.34313 0.0
H1255 H 0.77684 0.12828 0.31761 0.0
H1256 H 0.75477 0.17282 0.30071 0.0
C1257 C 0.82859 0.23573 0.3575 0.0
C1258 C 0.84717 0.23882 0.37387 0.0
C1259 C 0.85058 0.2215 0.37801 0.0
C1260 C 0.83586 0.20145 0.36602 0.0
C1261 C 0.81779 0.19894 0.34995 0.0
C1262 C 0.81393 0.21547 0.34587 0.0
C1263 C 0.79291 0.20814 0.32821 0.0
C1264 C 0.77778 0.2114 0.35133 0.0
C1265 C 0.79605 0.21931 0.29359 0.0
C1266 C 0.78554 0.18489 0.32342 0.0
C1267 C 0.80035 0.1801 0.33575 0.0
C1268 C 0.79753 0.15989 0.3338 0.0
C1269 C 0.77884 0.14395 0.31948 0.0
C1270 C 0.76291 0.14813 0.30783 0.0
C1271 C 0.76655 0.16904 0.30937 0.0
H1272 H 0.59197 0.84112 0.65504 0.0
H1273 H 0.55851 0.81747 0.75068 0.0
H1274 H 0.553 0.78187 0.73735 0.0
H1275 H 0.56183 0.79305 0.6033 0.0
H1276 H 0.58508 0.79666 0.58139 0.0
H1277 H 0.58377 0.81927 0.59641 0.0
H1278 H 0.61843 0.83179 0.63046 0.0
H1279 H 0.61982 0.80923 0.61567 0.0
H1280 H 0.62012 0.81416 0.66087 0.0
H1281 H 0.553 0.7495 0.71471 0.0
H1282 H 0.5608 0.72371 0.68702 0.0
H1283 H 0.59612 0.76947 0.60796 0.0
C1284 C 0.58299 0.82825 0.67265 0.0
C1285 C 0.5752 0.83169 0.70346 0.0
C1286 C 0.56425 0.81486 0.7267 0.0
C1287 C 0.56105 0.79468 0.7193 0.0
C1288 C 0.56916 0.7918 0.68877 0.0
C1289 C 0.58004 0.80819 0.66594 0.0
C1290 C 0.58903 0.80161 0.63671 0.0
C1291 C 0.57934 0.80271 0.60242 0.0
C1292 C 0.61328 0.81499 0.63591 0.0
C1293 C 0.58174 0.77903 0.64678 0.0
C1294 C 0.56999 0.77352 0.67656 0.0
C1295 C 0.56203 0.75359 0.69124 0.0
C1296 C 0.56644 0.73903 0.67531 0.0
C1297 C 0.57896 0.74464 0.64537 0.0
C1298 C 0.58648 0.76481 0.63082 0.0
H1299 H 0.74884 0.57449 0.00502 0.0
H1300 H 0.76398 0.63612 0.96605 0.0
H1301 H 0.796 0.63989 0.93904 0.0
H1302 H 0.8023 0.58871 0.0252 0.0
H1303 H 0.79924 0.56357 0.01294 0.0
H1304 H 0.77683 0.56511 0.02827 0.0
H1305 H 0.75634 0.547 0.97286 0.0
H1306 H 0.77871 0.54545 0.95733 0.0
H1307 H 0.76776 0.55824 0.93192 0.0
H1308 H 0.8269 0.63807 0.9186 0.0
H1309 H 0.85556 0.631 0.90597 0.0
H1310 H 0.8206 0.5699 0.95613 0.0
C1311 C 0.75891 0.58875 0.9908 0.0
C1312 C 0.75369 0.60487 0.98724 0.0
C1313 C 0.76731 0.62332 0.96845 0.0
C1314 C 0.78563 0.62569 0.95316 0.0
C1315 C 0.79022 0.6095 0.95691 0.0
C1316 C 0.77735 0.5914 0.97527 0.0
C1317 C 0.7864 0.57672 0.97595 0.0
C1318 C 0.7915 0.57334 0.01278 0.0
C1319 C 0.7714 0.5556 0.95846 0.0
C1320 C 0.80636 0.58949 0.95519 0.0
C1321 C 0.80817 0.60832 0.94455 0.0
C1322 C 0.82555 0.62322 0.92627 0.0
C1323 C 0.84168 0.61888 0.91886 0.0
C1324 C 0.84033 0.59966 0.92936 0.0
C1325 C 0.82224 0.58473 0.94761 0.0
H1326 H 0.17231 0.75589 0.34844 0.0
H1327 H 0.12624 0.76229 0.28707 0.0
H1328 H 0.1549 0.79294 0.25788 0.0
H1329 H 0.20632 0.81133 0.36118 0.0
H1330 H 0.23034 0.81018 0.35936 0.0
H1331 H 0.20628 0.78763 0.37395 0.0
H1332 H 0.21026 0.76442 0.32782 0.0
H1333 H 0.23431 0.78693 0.31301 0.0
H1334 H 0.21293 0.77221 0.28354 0.0
H1335 H 0.18792 0.8235 0.2368 0.0
H1336 H 0.2236 0.85341 0.22678 0.0
H1337 H 0.24875 0.82817 0.30223 0.0
C1338 C 0.16823 0.76372 0.32887 0.0
C1339 C 0.14695 0.75634 0.3197 0.0
C1340 C 0.14238 0.76714 0.29393 0.0
C1341 C 0.15855 0.7847 0.2773 0.0
C1342 C 0.17927 0.79145 0.28684 0.0
C1343 C 0.18421 0.78144 0.31213 0.0
C1344 C 0.2078 0.79265 0.31852 0.0
C1345 C 0.21298 0.80094 0.35544 0.0
C1346 C 0.21685 0.77819 0.31022 0.0
C1347 C 0.21525 0.81058 0.29302 0.0
C1348 C 0.19851 0.80944 0.27488 0.0
C1349 C 0.20123 0.82448 0.25055 0.0
C1350 C 0.22161 0.84132 0.24484 0.0
C1351 C 0.23906 0.84304 0.26339 0.0
C1352 C 0.23576 0.8273 0.28762 0.0
H1353 H 0.40316 0.157 0.64768 0.0
H1354 H 0.40679 0.16395 0.75808 0.0
H1355 H 0.40911 0.19866 0.75235 0.0
H1356 H 0.43909 0.21243 0.62759 0.0
H1357 H 0.42407 0.21216 0.59086 0.0
H1358 H 0.42396 0.18842 0.60357 0.0
H1359 H 0.38312 0.16864 0.607 0.0
H1360 H 0.38309 0.19231 0.59443 0.0
H1361 H 0.37034 0.17907 0.63358 0.0
H1362 H 0.40912 0.23157 0.7349 0.0
H1363 H 0.40727 0.26081 0.70689 0.0
H1364 H 0.4037 0.23257 0.60771 0.0
C1365 C 0.40455 0.16588 0.67063 0.0
C1366 C 0.40495 0.15785 0.70332 0.0
C1367 C 0.40685 0.16997 0.73275 0.0
C1368 C 0.40804 0.18963 0.72977 0.0
C1369 C 0.40741 0.19698 0.69719 0.0
C1370 C 0.4058 0.18554 0.66812 0.0
C1371 C 0.40493 0.1968 0.63618 0.0
C1372 C 0.42416 0.20281 0.6132 0.0
C1373 C 0.38413 0.1834 0.61666 0.0
C1374 C 0.40587 0.21617 0.6519 0.0
C1375 C 0.40745 0.21601 0.6871 0.0
C1376 C 0.40814 0.232 0.70733 0.0
C1377 C 0.40721 0.2486 0.69115 0.0
C1378 C 0.40555 0.24909 0.65508 0.0
C1379 C 0.40492 0.23262 0.63531 0.0
H1380 H 0.28919 0.28109 0.74151 0.0
H1381 H 0.30019 0.34258 0.70916 0.0
H1382 H 0.29162 0.34904 0.76671 0.0
H1383 H 0.24903 0.27186 0.81366 0.0
H1384 H 0.2607 0.26023 0.84014 0.0
H1385 H 0.25968 0.25681 0.79437 0.0
H1386 H 0.3001 0.27186 0.79367 0.0
H1387 H 0.3014 0.27581 0.83905 0.0
H1388 H 0.31724 0.29776 0.81115 0.0
H1389 H 0.29245 0.35365 0.82861 0.0
H1390 H 0.30038 0.3549 0.8902 0.0
H1391 H 0.29102 0.29166 0.88497 0.0
C1392 C 0.28906 0.2956 0.74621 0.0
C1393 C 0.29547 0.31131 0.72061 0.0
C1394 C 0.29498 0.33004 0.72785 0.0
C1395 C 0.2902 0.33394 0.76073 0.0
C1396 C 0.28582 0.31894 0.78612 0.0
C1397 C 0.2848 0.29991 0.77917 0.0
C1398 C 0.28361 0.2882 0.81188 0.0
C1399 C 0.26196 0.26808 0.8152 0.0
C1400 C 0.30167 0.28314 0.81404 0.0
C1401 C 0.28614 0.30447 0.8382 0.0
C1402 C 0.28662 0.32176 0.82278 0.0
C1403 C 0.29138 0.33994 0.84111 0.0
C1404 C 0.29602 0.34059 0.87592 0.0
C1405 C 0.29601 0.32327 0.89192 0.0
C1406 C 0.29058 0.30483 0.87315 0.0
H1407 H 0.97844 0.29086 0.23273 0.0
H1408 H 0.03453 0.34815 0.2652 0.0
H1409 H 0.04882 0.35322 0.20688 0.0
H1410 H 0.00532 0.27556 0.16285 0.0
H1411 H 0.98246 0.26634 0.13573 0.0
H1412 H 0.97936 0.26385 0.18154 0.0
H1413 H 0.95868 0.28404 0.17965 0.0
H1414 H 0.96201 0.28698 0.13414 0.0
H1415 H 0.97086 0.31 0.16075 0.0
H1416 H 0.05312 0.35691 0.14446 0.0
H1417 H 0.04816 0.35754 0.08206 0.0
H1418 H 0.98924 0.29831 0.08862 0.0
C1419 C 0.99405 0.30407 0.22776 0.0
C1420 C 0.0054 0.31907 0.25349 0.0
C1421 C 0.02572 0.33623 0.24609 0.0
C1422 C 0.03395 0.33928 0.21295 0.0
C1423 C 0.02179 0.3249 0.18766 0.0
C1424 C 0.00243 0.30737 0.19476 0.0
C1425 C 0.99125 0.29594 0.16229 0.0
C1426 C 0.9895 0.27413 0.1605 0.0
C1427 C 0.96943 0.29416 0.15904 0.0
C1428 C 0.00655 0.31073 0.13576 0.0
C1429 C 0.02432 0.32703 0.151 0.0
C1430 C 0.03963 0.34392 0.13216 0.0
C1431 C 0.03663 0.34424 0.09691 0.0
C1432 C 0.01846 0.32787 0.08103 0.0
C1433 C 0.00343 0.31073 0.10043 0.0
H1434 H 0.6946 0.01377 0.5673 0.0
H1435 H 0.67677 0.94765 0.57141 0.0
H1436 H 0.68295 0.94799 0.50945 0.0
H1437 H 0.66848 0.01114 0.49476 0.0
H1438 H 0.68772 0.03624 0.47702 0.0
H1439 H 0.68643 0.03223 0.52245 0.0
H1440 H 0.7259 0.0427 0.52348 0.0
H1441 H 0.72738 0.04692 0.4779 0.0
H1442 H 0.73506 0.02911 0.4961 0.0
H1443 H 0.68334 0.95324 0.44657 0.0
H1444 H 0.68076 0.96413 0.38755 0.0
H1445 H 0.69988 0.02709 0.42387 0.0
C1446 C 0.69267 0.99958 0.55526 0.0
C1447 C 0.68541 0.98076 0.57414 0.0
C1448 C 0.68276 0.96237 0.55755 0.0
C1449 C 0.68617 0.96239 0.52233 0.0
C1450 C 0.69256 0.981 0.50417 0.0
C1451 C 0.69618 0.9994 0.52016 0.0
C1452 C 0.70087 0.01664 0.4944 0.0
C1453 C 0.68492 0.0245 0.49734 0.0
C1454 C 0.72366 0.03492 0.4982 0.0
C1455 C 0.69802 0.00469 0.46144 0.0
C1456 C 0.69348 0.98422 0.46757 0.0
C1457 C 0.68757 0.96941 0.44131 0.0
C1458 C 0.68605 0.97564 0.408 0.0
C1459 C 0.6906 0.99649 0.40142 0.0
C1460 C 0.69705 0.01126 0.42831 0.0
H1461 H 0.66781 0.66935 0.75594 0.0
H1462 H 0.71222 0.73626 0.74498 0.0
H1463 H 0.71663 0.73939 0.80809 0.0
H1464 H 0.64181 0.67397 0.82622 0.0
H1465 H 0.63716 0.64986 0.84639 0.0
H1466 H 0.63966 0.65248 0.80065 0.0
H1467 H 0.67006 0.64392 0.80162 0.0
H1468 H 0.66729 0.64069 0.84731 0.0
H1469 H 0.69255 0.65897 0.82895 0.0
H1470 H 0.71437 0.73476 0.87358 0.0
H1471 H 0.70589 0.72283 0.93396 0.0
H1472 H 0.66191 0.65949 0.89882 0.0
C1473 C 0.67908 0.68455 0.76661 0.0
C1474 C 0.69005 0.70248 0.74563 0.0
C1475 C 0.70389 0.72228 0.76073 0.0
C1476 C 0.70644 0.72419 0.79645 0.0
C1477 C 0.69486 0.70617 0.81644 0.0
C1478 C 0.68154 0.68673 0.80186 0.0
C1479 C 0.66962 0.67 0.82842 0.0
C1480 C 0.64565 0.66107 0.82521 0.0
C1481 C 0.67523 0.65236 0.82646 0.0
C1482 C 0.67822 0.68297 0.86043 0.0
C1483 C 0.69286 0.70376 0.85331 0.0
C1484 C 0.7029 0.71851 0.87936 0.0
C1485 C 0.69797 0.71165 0.91348 0.0
C1486 C 0.68294 0.69036 0.92094 0.0
C1487 C 0.67301 0.676 0.89395 0.0
H1488 H 0.00109 0.70715 0.24143 0.0
H1489 H 0.95079 0.64662 0.27709 0.0
H1490 H 0.93495 0.63912 0.21988 0.0
H1491 H 0.96886 0.71504 0.16851 0.0
H1492 H 0.99196 0.72626 0.14164 0.0
H1493 H 0.99468 0.73069 0.18719 0.0
H1494 H 0.02038 0.71606 0.18907 0.0
H1495 H 0.01738 0.71103 0.144 0.0
H1496 H 0.01173 0.68981 0.1733 0.0
H1497 H 0.9313 0.6329 0.15855 0.0
H1498 H 0.93816 0.63002 0.09769 0.0
H1499 H 0.99109 0.69388 0.09913 0.0
C1500 C 0.98623 0.69273 0.23745 0.0
C1501 C 0.97724 0.67745 0.26365 0.0
C1502 C 0.95784 0.65874 0.25765 0.0
C1503 C 0.94873 0.6543 0.22506 0.0
C1504 C 0.95908 0.66882 0.19892 0.0
C1505 C 0.97717 0.68797 0.20487 0.0
C1506 C 0.9874 0.69902 0.17161 0.0
C1507 C 0.98561 0.71893 0.16696 0.0
C1508 C 0.01057 0.70425 0.16939 0.0
C1509 C 0.97355 0.68212 0.14621 0.0
C1510 C 0.95689 0.66515 0.16247 0.0
C1511 C 0.94376 0.64637 0.14534 0.0
C1512 C 0.94789 0.64477 0.11093 0.0
C1513 C 0.96501 0.66181 0.09406 0.0
C1514 C 0.97763 0.68089 0.11156 0.0
H1515 H 0.29481 0.96212 0.42529 0.0
H1516 H 0.30798 0.02442 0.39432 0.0
H1517 H 0.30513 0.03301 0.4546 0.0
H1518 H 0.25929 0.95527 0.50078 0.0
H1519 H 0.27057 0.94241 0.52519 0.0
H1520 H 0.26831 0.93941 0.47936 0.0
H1521 H 0.30842 0.95282 0.47528 0.0
H1522 H 0.31085 0.95603 0.52084 0.0
H1523 H 0.32687 0.97814 0.49335 0.0
H1524 H 0.30646 0.03665 0.51792 0.0
H1525 H 0.31447 0.03621 0.57903 0.0
H1526 H 0.30194 0.97192 0.56889 0.0
C1527 C 0.29614 0.97722 0.43109 0.0
C1528 C 0.30116 0.99249 0.40532 0.0
C1529 C 0.30384 0.01247 0.41383 0.0
C1530 C 0.30212 0.01739 0.4479 0.0
C1531 C 0.29777 0.00216 0.47296 0.0
C1532 C 0.2948 0.98245 0.46492 0.0
C1533 C 0.29372 0.97014 0.4967 0.0
C1534 C 0.27166 0.95065 0.50074 0.0
C1535 C 0.311 0.96394 0.49651 0.0
C1536 C 0.29777 0.98643 0.52384 0.0
C1537 C 0.29936 0.00453 0.50973 0.0
C1538 C 0.30477 0.02241 0.52936 0.0
C1539 C 0.30923 0.02198 0.56408 0.0
C1540 C 0.30859 0.00393 0.57863 0.0
C1541 C 0.30229 0.9858 0.5584 0.0
H1542 H 0.45254 0.46738 0.09245 0.0
H1543 H 0.44529 0.44307 0.98912 0.0
H1544 H 0.48346 0.46613 0.97928 0.0
H1545 H 0.49069 0.52076 0.0723 0.0
H1546 H 0.50566 0.5253 0.11112 0.0
H1547 H 0.47785 0.50633 0.11062 0.0
H1548 H 0.48558 0.47746 0.13267 0.0
H1549 H 0.51343 0.49635 0.13319 0.0
H1550 H 0.50368 0.47212 0.10944 0.0
H1551 H 0.52192 0.49227 0.97984 0.0
H1552 H 0.55859 0.52043 0.9906 0.0
H1553 H 0.54132 0.52797 0.0936 0.0
C1554 C 0.45906 0.46678 0.06789 0.0
C1555 C 0.44595 0.45351 0.04147 0.0
C1556 C 0.45499 0.45334 0.00954 0.0
C1557 C 0.47667 0.46626 0.00379 0.0
C1558 C 0.48912 0.47926 0.03023 0.0
C1559 C 0.4807 0.47967 0.06165 0.0
C1560 C 0.49756 0.49562 0.08531 0.0
C1561 C 0.49264 0.51303 0.09542 0.0
C1562 C 0.50022 0.48473 0.11702 0.0
C1563 C 0.51672 0.50413 0.06218 0.0
C1564 C 0.51146 0.49442 0.03057 0.0
C1565 C 0.52627 0.49997 0.00451 0.0
C1566 C 0.54701 0.51603 0.0108 0.0
C1567 C 0.55277 0.52637 0.04289 0.0
C1568 C 0.53742 0.52015 0.06898 0.0
H1569 H 0.0008 0.54386 0.37941 0.0
H1570 H 0.04536 0.56495 0.46386 0.0
H1571 H 0.03603 0.52814 0.47506 0.0
H1572 H 0.96135 0.49576 0.41672 0.0
H1573 H 0.95503 0.48088 0.3775 0.0
H1574 H 0.96494 0.5089 0.3762 0.0
H1575 H 0.99532 0.51385 0.3362 0.0
H1576 H 0.98542 0.48582 0.33718 0.0
H1577 H 0.01236 0.50389 0.34921 0.0
H1578 H 0.02153 0.48907 0.47782 0.0
H1579 H 0.00434 0.4505 0.46969 0.0
H1580 H 0.97032 0.45494 0.38208 0.0
C1581 C 0.00883 0.54085 0.4 0.0
C1582 C 0.02371 0.5574 0.42092 0.0
C1583 C 0.03358 0.55258 0.44789 0.0
C1584 C 0.0285 0.53171 0.45435 0.0
C1585 C 0.01364 0.51582 0.43345 0.0
C1586 C 0.0041 0.52013 0.40662 0.0
C1587 C 0.98891 0.50016 0.38766 0.0
C1588 C 0.96622 0.4962 0.38966 0.0
C1589 C 0.99593 0.50098 0.35036 0.0
C1590 C 0.99136 0.48394 0.40815 0.0
C1591 C 0.00561 0.4933 0.43456 0.0
C1592 C 0.01035 0.48155 0.45721 0.0
C1593 C 0.0004 0.45965 0.45254 0.0
C1594 C 0.98596 0.44974 0.42534 0.0
C1595 C 0.98139 0.46211 0.40296 0.0
H1596 H 0.52355 0.97447 0.75713 0.0
H1597 H 0.56837 0.01946 0.6846 0.0
H1598 H 0.54623 0.03597 0.67871 0.0
H1599 H 0.47717 0.96725 0.71541 0.0
H1600 H 0.46313 0.96533 0.75432 0.0
H1601 H 0.4829 0.95753 0.75398 0.0
H1602 H 0.50262 0.98351 0.80356 0.0
H1603 H 0.48289 0.99139 0.80406 0.0
H1604 H 0.51034 0.01097 0.79894 0.0
H1605 H 0.51891 0.04701 0.67938 0.0
H1606 H 0.48799 0.05171 0.68621 0.0
H1607 H 0.46068 0.99957 0.75821 0.0
C1608 C 0.52883 0.98796 0.74034 0.0
C1609 C 0.54768 0.99563 0.72122 0.0
C1610 C 0.55387 0.01313 0.69914 0.0
C1611 C 0.54147 0.02271 0.6958 0.0
C1612 C 0.52292 0.01466 0.71476 0.0
C1613 C 0.5166 0.9977 0.73663 0.0
C1614 C 0.49564 0.99176 0.75327 0.0
C1615 C 0.47871 0.96913 0.74366 0.0
C1616 C 0.49802 0.99458 0.79227 0.0
C1617 C 0.49109 0.00792 0.7371 0.0
C1618 C 0.50709 0.02101 0.71508 0.0
C1619 C 0.50629 0.03687 0.69657 0.0
C1620 C 0.48859 0.03932 0.70046 0.0
C1621 C 0.47185 0.02596 0.72263 0.0
C1622 C 0.4733 0.01018 0.74137 0.0
H1623 H 0.52533 0.54649 0.57547 0.0
H1624 H 0.55554 0.55321 0.67401 0.0
H1625 H 0.53195 0.51537 0.68515 0.0
H1626 H 0.4731 0.50907 0.60035 0.0
H1627 H 0.46675 0.49396 0.56138 0.0
H1628 H 0.486 0.52169 0.56092 0.0
H1629 H 0.5136 0.51346 0.53457 0.0
H1630 H 0.4944 0.4857 0.53482 0.0
H1631 H 0.51946 0.49512 0.55585 0.0
H1632 H 0.50419 0.47711 0.68682 0.0
H1633 H 0.47538 0.44049 0.6772 0.0
H1634 H 0.46469 0.45803 0.57634 0.0
C1635 C 0.52724 0.54003 0.59922 0.0
C1636 C 0.54222 0.55306 0.62401 0.0
C1637 C 0.54389 0.54381 0.65491 0.0
C1638 C 0.53067 0.52224 0.6614 0.0
C1639 C 0.51599 0.50997 0.63659 0.0
C1640 C 0.51433 0.51845 0.60597 0.0
C1641 C 0.49731 0.50171 0.58351 0.0
C1642 C 0.47975 0.50692 0.57612 0.0
C1643 C 0.50676 0.49883 0.55022 0.0
C1644 C 0.4895 0.48256 0.6065 0.0
C1645 C 0.50044 0.48771 0.63706 0.0
C1646 C 0.49562 0.47285 0.66289 0.0
C1647 C 0.47919 0.45215 0.65729 0.0
C1648 C 0.46792 0.44648 0.62603 0.0
C1649 C 0.47325 0.46191 0.60031 0.0
H1650 H 0.97028 0.51586 0.88542 0.0
H1651 H 0.01032 0.55687 0.9664 0.0
H1652 H 0.02861 0.53629 0.96977 0.0
H1653 H 0.9639 0.4681 0.92076 0.0
H1654 H 0.96435 0.45665 0.88018 0.0
H1655 H 0.95518 0.47534 0.88259 0.0
H1656 H 0.9827 0.49863 0.83696 0.0
H1657 H 0.99201 0.48004 0.83451 0.0
H1658 H 0.01023 0.50738 0.84395 0.0
H1659 H 0.0419 0.51111 0.9657 0.0
H1660 H 0.04843 0.48155 0.95635 0.0
H1661 H 0.9994 0.456 0.87882 0.0
C1662 C 0.98303 0.52057 0.90359 0.0
C1663 C 0.98888 0.53789 0.92574 0.0
C1664 C 0.00546 0.54349 0.9495 0.0
C1665 C 0.01604 0.53202 0.95141 0.0
C1666 C 0.00983 0.51496 0.92942 0.0
C1667 C 0.99368 0.50914 0.90605 0.0
C1668 C 0.98951 0.48949 0.88661 0.0
C1669 C 0.96689 0.47132 0.89293 0.0
C1670 C 0.99388 0.49418 0.84823 0.0
C1671 C 0.0057 0.48507 0.90302 0.0
C1672 C 0.01736 0.50011 0.9274 0.0
C1673 C 0.03289 0.49922 0.94668 0.0
C1674 C 0.03639 0.48231 0.94132 0.0
C1675 C 0.02433 0.4664 0.91704 0.0
C1676 C 0.009 0.46803 0.89729 0.0
H1677 H 0.546 0.02499 0.22168 0.0
H1678 H 0.55335 0.99809 0.31613 0.0
H1679 H 0.51503 0.98084 0.32615 0.0
H1680 H 0.506 0.03545 0.25162 0.0
H1681 H 0.49158 0.02852 0.21188 0.0
H1682 H 0.51962 0.03852 0.21176 0.0
H1683 H 0.51381 0.00527 0.17892 0.0
H1684 H 0.48573 0.99512 0.17904 0.0
H1685 H 0.49629 0.97947 0.19637 0.0
H1686 H 0.47621 0.9671 0.32671 0.0
H1687 H 0.43917 0.958 0.31793 0.0
H1688 H 0.45673 0.99327 0.22278 0.0
C1689 C 0.53952 0.01534 0.24432 0.0
C1690 C 0.55272 0.01304 0.26826 0.0
C1691 C 0.54363 0.00042 0.29775 0.0
C1692 C 0.52185 0.9904 0.30353 0.0
C1693 C 0.50932 0.99306 0.27953 0.0
C1694 C 0.51777 0.00519 0.2505 0.0
C1695 C 0.50077 0.00574 0.22911 0.0
C1696 C 0.50473 0.02841 0.22592 0.0
C1697 C 0.49905 0.9958 0.19377 0.0
C1698 C 0.48151 0.99214 0.2508 0.0
C1699 C 0.4868 0.98495 0.27972 0.0
C1700 C 0.47183 0.97258 0.30412 0.0
C1701 C 0.45088 0.96758 0.299 0.0
C1702 C 0.44511 0.97492 0.26969 0.0
C1703 C 0.46064 0.98719 0.24517 0.0
loop_
_geom_bond_atom_site_label_1
_geom_bond_atom_site_label_2
_geom_bond_distance
_geom_bond_site_symmetry_2
_ccdc_geom_bond_type
Li0 N17 1.990 . S
Li0 O60 1.956 . S
Li0 O61 1.970 . S
Li0 O62 1.961 . S
Li1 N25 1.990 . S
Li1 O60 1.970 . S
Li1 O61 1.956 . S
Li1 O63 1.961 . S
Li2 N47 1.990 . S
Li2 O60 1.961 . S
Li2 O62 1.956 . S
Li2 O63 1.970 . S
Li3 N53 1.990 1_554 S
Li3 O61 1.961 . S
Li3 O62 1.970 . S
Li3 O63 1.956 . S
C4 C6 1.348 . S
C4 C7 1.356 . S
C4 O60 1.325 . S
N5 C8 1.314 . S
N5 C9 1.279 . S
C6 C4 1.348 . S
C6 C8 1.353 . S
C6 H64 0.929 . S
C7 C4 1.356 . S
C7 C9 1.358 . S
C7 H65 0.930 . S
C8 N5 1.314 . S
C8 C6 1.353 . S
C8 H66 0.930 . S
C9 N5 1.279 . S
C9 C7 1.358 . S
C9 H67 0.930 . S
C10 C13 1.348 . S
C10 C14 1.356 . S
C10 O61 1.325 . S
C11 N12 1.279 . S
C11 C14 1.358 . S
C11 H68 0.930 . S
N12 C11 1.279 . S
N12 C15 1.314 . S
C13 C10 1.348 . S
C13 C15 1.353 . S
C13 H69 0.929 . S
C14 C10 1.356 . S
C14 C11 1.358 . S
C14 H70 0.930 . S
C15 N12 1.314 . S
C15 C13 1.353 . S
C15 H71 0.930 . S
C16 N17 1.314 . S
C16 C21 1.353 . S
C16 H22 0.930 . S
N17 Li0 1.990 . S
N17 C16 1.314 . S
N17 C19 1.279 . S
C18 C19 1.358 . S
C18 C20 1.356 . S
C18 H72 0.930 . S
C19 N17 1.279 . S
C19 C18 1.358 . S
C19 H23 0.930 . S
C20 C18 1.356 . S
C20 C21 1.348 . S
C21 C16 1.353 . S
C21 C20 1.348 . S
C21 H73 0.902 1_554 S
H22 C16 0.930 . S
H23 C19 0.930 . S
C24 N25 1.314 . S
C24 C26 1.353 . S
C24 H30 0.930 . S
N25 Li1 1.990 . S
N25 C24 1.314 . S
N25 C28 1.279 . S
C26 C24 1.353 . S
C26 C29 1.348 . S
C26 H74 0.929 . S
C27 C28 1.358 . S
C27 C29 1.356 . S
C27 H75 0.930 . S
C28 N25 1.279 . S
C28 C27 1.358 . S
C28 H31 0.930 . S
C29 C26 1.348 . S
C29 C27 1.356 . S
H30 C24 0.930 . S
H31 C28 0.930 . S
C32 C34 1.348 . S
C32 C35 1.356 . S
C32 O62 1.325 1_556 S
N33 C36 1.314 . S
N33 C37 1.279 . S
C34 C32 1.348 . S
C34 C36 1.353 . S
C34 H76 0.929 . S
C35 C32 1.356 . S
C35 C37 1.358 . S
C35 H77 0.930 1_556 S
C36 N33 1.314 . S
C36 C34 1.353 . S
C36 H78 0.930 . S
C37 N33 1.279 . S
C37 C35 1.358 . S
C37 H79 0.930 . S
C38 C39 1.348 . S
C38 C40 1.356 . S
C38 O63 1.325 . S
C39 C38 1.348 . S
C39 C41 1.353 . S
C39 H80 0.929 . S
C40 C38 1.356 . S
C40 C42 1.358 . S
C40 H81 0.930 . S
C41 C39 1.353 . S
C41 N43 1.314 . S
C41 H82 0.930 . S
C42 C40 1.358 . S
C42 N43 1.279 . S
C42 H83 0.930 . S
N43 C41 1.314 . S
N43 C42 1.279 . S
C44 C46 1.353 . S
C44 N47 1.314 . S
C44 H50 0.930 . S
C45 N47 1.279 . S
C45 C48 1.358 . S
C45 H51 0.930 . S
C46 C44 1.353 . S
C46 C49 1.348 . S
C46 H84 0.929 . S
N47 Li2 1.990 . S
N47 C44 1.314 . S
N47 C45 1.279 . S
C48 C45 1.358 . S
C48 C49 1.356 . S
C48 H85 0.930 . S
C49 C46 1.348 . S
C49 C48 1.356 . S
H50 C44 0.930 . S
H51 C45 0.930 . S
C52 N53 1.314 . S
C52 C54 1.353 . S
C52 H58 0.930 . S
N53 Li3 1.990 1_556 S
N53 C52 1.314 . S
N53 C56 1.279 . S
C54 C52 1.353 . S
C54 C57 1.348 . S
C54 H86 0.929 . S
C55 C56 1.358 . S
C55 C57 1.356 . S
C55 H87 0.930 . S
C56 N53 1.279 . S
C56 C55 1.358 . S
C56 H59 0.930 . S
C57 C54 1.348 . S
C57 C55 1.356 . S
H58 C52 0.930 . S
H59 C56 0.930 . S
O60 Li0 1.956 . S
O60 Li1 1.970 . S
O60 Li2 1.961 . S
O60 C4 1.325 . S
O61 Li0 1.970 . S
O61 Li1 1.956 . S
O61 Li3 1.961 . S
O61 C10 1.325 . S
O62 Li0 1.961 . S
O62 Li2 1.956 . S
O62 Li3 1.970 . S
O62 C32 1.325 1_554 S
O63 Li1 1.961 . S
O63 Li2 1.970 . S
O63 Li3 1.956 . S
O63 C38 1.325 . S
H64 C6 0.929 . S
H65 C7 0.930 . S
H66 C8 0.930 . S
H67 C9 0.930 . S
H68 C11 0.930 . S
H69 C13 0.929 . S
H70 C14 0.930 . S
H71 C15 0.930 . S
H72 C18 0.930 . S
H73 C21 0.902 1_556 S
H74 C26 0.929 . S
H75 C27 0.930 . S
H76 C34 0.929 . S
H77 C35 0.930 1_554 S
H78 C36 0.930 . S
H79 C37 0.930 . S
H80 C39 0.929 . S
H81 C40 0.930 . S
H82 C41 0.930 . S
H83 C42 0.930 . S
H84 C46 0.929 . S
H85 C48 0.930 . S
H86 C54 0.929 . S
H87 C55 0.930 . S
Li88 N105 1.990 . S
Li88 O148 1.956 . S
Li88 O149 1.970 . S
Li88 O150 1.961 . S
Li89 N113 1.990 . S
Li89 O148 1.970 . S
Li89 O149 1.956 . S
Li89 O151 1.961 . S
Li90 N135 1.990 . S
Li90 O148 1.961 . S
Li90 O150 1.956 . S
Li90 O151 1.970 . S
Li91 N141 1.990 . S
Li91 O149 1.961 . S
Li91 O150 1.970 . S
Li91 O151 1.956 . S
C92 C94 1.348 . S
C92 C95 1.356 . S
C92 O148 1.325 . S
N93 C96 1.314 . S
N93 C97 1.279 . S
C94 C92 1.348 . S
C94 C96 1.353 . S
C94 H152 0.929 . S
C95 C92 1.356 . S
C95 C97 1.358 . S
C95 H153 0.930 . S
C96 N93 1.314 . S
C96 C94 1.353 . S
C96 H154 0.930 . S
C97 N93 1.279 . S
C97 C95 1.358 . S
C97 H155 0.930 . S
C98 C101 1.348 . S
C98 C102 1.356 . S
C98 O149 1.325 . S
C99 N100 1.279 . S
C99 C102 1.358 . S
C99 H156 0.930 . S
N100 C99 1.279 . S
N100 C103 1.314 . S
C101 C98 1.348 . S
C101 C103 1.353 . S
C101 H157 0.929 . S
C102 C98 1.356 . S
C102 C99 1.358 . S
C102 H158 0.930 . S
C103 N100 1.314 . S
C103 C101 1.353 . S
C103 H159 0.930 . S
C104 N105 1.314 . S
C104 C109 1.353 1_655 S
C104 H110 0.930 . S
N105 Li88 1.990 . S
N105 C104 1.314 . S
N105 C107 1.279 . S
C106 C107 1.358 . S
C106 C108 1.362 . S
C106 H160 0.930 . S
C107 N105 1.279 . S
C107 C106 1.358 . S
C107 H111 0.930 . S
C108 C106 1.362 . S
C108 C109 1.367 1_655 S
C109 C104 1.353 1_455 S
C109 C108 1.367 1_455 S
C109 H161 0.929 . S
H110 C104 0.930 . S
H111 C107 0.930 . S
C112 N113 1.314 . S
C112 C114 1.353 . S
C112 H118 0.930 . S
N113 Li89 1.990 . S
N113 C112 1.314 . S
N113 C116 1.279 . S
C114 C112 1.353 . S
C114 C117 1.348 . S
C114 H162 0.929 . S
C115 C116 1.358 . S
C115 C117 1.356 . S
C115 H163 0.930 . S
C116 N113 1.279 . S
C116 C115 1.358 . S
C116 H119 0.930 . S
C117 C114 1.348 . S
C117 C115 1.356 . S
H118 C112 0.930 . S
H119 C116 0.930 . S
C120 C122 1.348 . S
C120 C123 1.356 . S
C120 O150 1.325 1_455 S
N121 C124 1.314 . S
N121 C125 1.279 . S
C122 C120 1.348 . S
C122 C124 1.353 . S
C122 H164 0.880 1_455 S
C123 C120 1.356 . S
C123 C125 1.358 . S
C123 H165 0.930 . S
C124 N121 1.314 . S
C124 C122 1.353 . S
C124 H166 0.930 . S
C125 N121 1.279 . S
C125 C123 1.358 . S
C125 H167 0.930 . S
C126 C127 1.348 . S
C126 C128 1.356 . S
C126 O151 1.325 . S
C127 C126 1.348 . S
C127 C129 1.353 . S
C127 H168 0.929 . S
C128 C126 1.356 . S
C128 C130 1.358 . S
C128 H169 0.930 . S
C129 C127 1.353 . S
C129 N131 1.314 . S
C129 H170 0.930 . S
C130 C128 1.358 . S
C130 N131 1.279 . S
C130 H171 0.930 . S
N131 C129 1.314 . S
N131 C130 1.279 . S
C132 C134 1.353 . S
C132 N135 1.314 . S
C132 H138 0.930 . S
C133 N135 1.279 1_455 S
C133 C136 1.358 . S
C133 H139 0.930 . S
C134 C132 1.353 . S
C134 C137 1.348 1_655 S
C134 H172 0.929 . S
N135 Li90 1.990 . S
N135 C132 1.314 . S
N135 C133 1.279 1_655 S
C136 C133 1.358 . S
C136 C137 1.356 . S
C136 H173 0.930 . S
C137 C134 1.348 1_455 S
C137 C136 1.356 . S
H138 C132 0.930 . S
H139 C133 0.930 . S
C140 N141 1.314 . S
C140 C142 1.353 . S
C140 H146 0.930 . S
N141 Li91 1.990 . S
N141 C140 1.314 . S
N141 C144 1.279 . S
C142 C140 1.353 . S
C142 C145 1.348 . S
C142 H174 0.929 . S
C143 C144 1.358 . S
C143 C145 1.356 . S
C143 H175 0.930 . S
C144 N141 1.279 . S
C144 C143 1.358 . S
C144 H147 0.930 . S
C145 C142 1.348 . S
C145 C143 1.356 . S
H146 C140 0.930 . S
H147 C144 0.930 . S
O148 Li88 1.956 . S
O148 Li89 1.970 . S
O148 Li90 1.961 . S
O148 C92 1.325 . S
O149 Li88 1.970 . S
O149 Li89 1.956 . S
O149 Li91 1.961 . S
O149 C98 1.325 . S
O150 Li88 1.961 . S
O150 Li90 1.956 . S
O150 Li91 1.970 . S
O150 C120 1.325 1_655 S
O151 Li89 1.961 . S
O151 Li90 1.970 . S
O151 Li91 1.956 . S
O151 C126 1.325 . S
H152 C94 0.929 . S
H153 C95 0.930 . S
H154 C96 0.930 . S
H155 C97 0.930 . S
H156 C99 0.930 . S
H157 C101 0.929 . S
H158 C102 0.930 . S
H159 C103 0.930 . S
H160 C106 0.930 . S
H161 C109 0.929 . S
H162 C114 0.929 . S
H163 C115 0.930 . S
H164 C122 0.880 1_655 S
H165 C123 0.930 . S
H166 C124 0.930 . S
H167 C125 0.930 . S
H168 C127 0.929 . S
H169 C128 0.930 . S
H170 C129 0.930 . S
H171 C130 0.930 . S
H172 C134 0.929 . S
H173 C136 0.930 . S
H174 C142 0.929 . S
H175 C143 0.930 . S
Li176 N193 1.990 . S
Li176 O236 1.956 . S
Li176 O237 1.970 . S
Li176 O238 1.961 . S
Li177 N201 1.990 . S
Li177 O236 1.970 . S
Li177 O237 1.956 . S
Li177 O239 1.961 . S
Li178 N223 1.990 . S
Li178 O236 1.961 . S
Li178 O238 1.956 . S
Li178 O239 1.970 . S
Li179 N229 1.990 . S
Li179 O237 1.961 . S
Li179 O238 1.970 . S
Li179 O239 1.956 . S
C180 C182 1.348 . S
C180 C183 1.356 . S
C180 O236 1.325 . S
N181 C184 1.314 . S
N181 C185 1.279 . S
C182 C180 1.348 . S
C182 C184 1.353 . S
C182 H240 0.929 . S
C183 C180 1.356 . S
C183 C185 1.358 . S
C183 H241 0.930 . S
C184 N181 1.314 . S
C184 C182 1.353 . S
C184 H242 0.930 . S
C185 N181 1.279 . S
C185 C183 1.358 . S
C185 H243 0.930 . S
C186 C189 1.348 . S
C186 C190 1.356 . S
C186 O237 1.325 . S
C187 N188 1.279 . S
C187 C190 1.358 . S
C187 H244 0.930 . S
N188 C187 1.279 . S
N188 C191 1.314 . S
C189 C186 1.348 . S
C189 C191 1.353 . S
C189 H245 0.929 . S
C190 C186 1.356 . S
C190 C187 1.358 . S
C190 H246 0.930 . S
C191 N188 1.314 . S
C191 C189 1.353 . S
C191 H247 0.930 . S
C192 N193 1.314 . S
C192 C197 1.353 1_565 S
C192 H198 0.930 . S
N193 Li176 1.990 . S
N193 C192 1.314 . S
N193 C195 1.279 . S
C194 C195 1.358 . S
C194 C196 1.394 . S
C194 H248 0.930 . S
C195 N193 1.279 . S
C195 C194 1.358 . S
C195 H199 0.930 . S
C196 C194 1.394 . S
C196 C197 1.318 1_565 S
C197 C192 1.353 1_545 S
C197 C196 1.318 1_545 S
C197 H249 0.929 . S
H198 C192 0.930 . S
H199 C195 0.930 . S
C200 N201 1.314 . S
C200 C202 1.353 . S
C200 H206 0.930 . S
N201 Li177 1.990 . S
N201 C200 1.314 . S
N201 C204 1.279 . S
C202 C200 1.353 . S
C202 C205 1.348 . S
C202 H250 0.929 . S
C203 C204 1.358 . S
C203 C205 1.356 . S
C203 H251 0.930 . S
C204 N201 1.279 . S
C204 C203 1.358 . S
C204 H207 0.930 . S
C205 C202 1.348 . S
C205 C203 1.356 . S
H206 C200 0.930 . S
H207 C204 0.930 . S
C208 C210 1.348 . S
C208 C211 1.356 . S
C208 O238 1.325 1_545 S
N209 C212 1.314 . S
N209 C213 1.279 . S
C210 C208 1.348 . S
C210 C212 1.353 . S
C210 H252 0.916 1_545 S
C211 C208 1.356 . S
C211 C213 1.358 . S
C211 H253 0.930 . S
C212 N209 1.314 . S
C212 C210 1.353 . S
C212 H254 0.930 . S
C213 N209 1.279 . S
C213 C211 1.358 . S
C213 H255 0.930 . S
C214 C215 1.348 . S
C214 C216 1.356 . S
C214 O239 1.325 . S
C215 C214 1.348 . S
C215 C217 1.353 . S
C215 H256 0.929 . S
C216 C214 1.356 . S
C216 C218 1.358 . S
C216 H257 0.930 . S
C217 C215 1.353 . S
C217 N219 1.314 . S
C217 H258 0.930 . S
C218 C216 1.358 . S
C218 N219 1.279 . S
C218 H259 0.930 . S
N219 C217 1.314 . S
N219 C218 1.279 . S
C220 C222 1.353 . S
C220 N223 1.314 . S
C220 H226 0.930 . S
C221 N223 1.279 1_545 S
C221 C224 1.358 . S
C221 H227 0.930 . S
C222 C220 1.353 . S
C222 C225 1.348 1_565 S
C222 H260 0.929 . S
N223 Li178 1.990 . S
N223 C220 1.314 . S
N223 C221 1.279 1_565 S
C224 C221 1.358 . S
C224 C225 1.356 . S
C224 H261 0.930 . S
C225 C222 1.348 1_545 S
C225 C224 1.356 . S
H226 C220 0.930 . S
H227 C221 0.930 . S
C228 N229 1.314 . S
C228 C230 1.353 . S
C228 H234 0.930 . S
N229 Li179 1.990 . S
N229 C228 1.314 . S
N229 C232 1.279 . S
C230 C228 1.353 . S
C230 C233 1.348 . S
C230 H262 0.929 . S
C231 C232 1.358 . S
C231 C233 1.356 . S
C231 H263 0.930 . S
C232 N229 1.279 . S
C232 C231 1.358 . S
C232 H235 0.930 . S
C233 C230 1.348 . S
C233 C231 1.356 . S
H234 C228 0.930 . S
H235 C232 0.930 . S
O236 Li176 1.956 . S
O236 Li177 1.970 . S
O236 Li178 1.961 . S
O236 C180 1.325 . S
O237 Li176 1.970 . S
O237 Li177 1.956 . S
O237 Li179 1.961 . S
O237 C186 1.325 . S
O238 Li176 1.961 . S
O238 Li178 1.956 . S
O238 Li179 1.970 . S
O238 C208 1.325 1_565 S
O239 Li177 1.961 . S
O239 Li178 1.970 . S
O239 Li179 1.956 . S
O239 C214 1.325 . S
H240 C182 0.929 . S
H241 C183 0.930 . S
H242 C184 0.930 . S
H243 C185 0.930 . S
H244 C187 0.930 . S
H245 C189 0.929 . S
H246 C190 0.930 . S
H247 C191 0.930 . S
H248 C194 0.930 . S
H249 C197 0.929 . S
H250 C202 0.929 . S
H251 C203 0.930 . S
H252 C210 0.916 1_565 S
H253 C211 0.930 . S
H254 C212 0.930 . S
H255 C213 0.930 . S
H256 C215 0.929 . S
H257 C216 0.930 . S
H258 C217 0.930 . S
H259 C218 0.930 . S
H260 C222 0.929 . S
H261 C224 0.930 . S
H262 C230 0.929 . S
H263 C231 0.930 . S
Li264 N281 1.990 . S
Li264 O324 1.956 . S
Li264 O325 1.970 . S
Li264 O326 1.961 . S
Li265 N289 1.990 . S
Li265 O324 1.970 . S
Li265 O325 1.956 . S
Li265 O327 1.961 . S
Li266 N311 1.990 1_554 S
Li266 O324 1.961 . S
Li266 O326 1.956 . S
Li266 O327 1.970 . S
Li267 N317 1.990 . S
Li267 O325 1.961 . S
Li267 O326 1.970 . S
Li267 O327 1.956 . S
C268 C270 1.348 . S
C268 C271 1.356 . S
C268 O324 1.325 . S
N269 C272 1.314 . S
N269 C273 1.279 . S
C270 C268 1.348 . S
C270 C272 1.353 . S
C270 H328 0.929 . S
C271 C268 1.356 . S
C271 C273 1.358 . S
C271 H329 0.930 . S
C272 N269 1.314 . S
C272 C270 1.353 . S
C272 H330 0.930 . S
C273 N269 1.279 . S
C273 C271 1.358 . S
C273 H331 0.930 . S
C274 C277 1.348 . S
C274 C278 1.356 . S
C274 O325 1.325 . S
C275 N276 1.279 . S
C275 C278 1.358 . S
C275 H332 0.930 . S
N276 C275 1.279 . S
N276 C279 1.314 . S
C277 C274 1.348 . S
C277 C279 1.353 . S
C277 H333 0.929 . S
C278 C274 1.356 . S
C278 C275 1.358 . S
C278 H334 0.930 . S
C279 N276 1.314 . S
C279 C277 1.353 . S
C279 H335 0.930 . S
C280 N281 1.314 . S
C280 C285 1.353 . S
C280 H286 0.930 . S
N281 Li264 1.990 . S
N281 C280 1.314 . S
N281 C283 1.279 . S
C282 C283 1.358 . S
C282 C284 1.356 . S
C282 H336 0.930 . S
C283 N281 1.279 . S
C283 C282 1.358 . S
C283 H287 0.930 . S
C284 C282 1.356 . S
C284 C285 1.348 . S
C285 C280 1.353 . S
C285 C284 1.348 . S
C285 H337 0.929 . S
H286 C280 0.930 . S
H287 C283 0.930 . S
C288 N289 1.314 . S
C288 C290 1.353 . S
C288 H294 0.930 . S
N289 Li265 1.990 . S
N289 C288 1.314 . S
N289 C292 1.279 . S
C290 C288 1.353 . S
C290 C293 1.348 . S
C290 H338 0.902 1_554 S
C291 C292 1.358 . S
C291 C293 1.356 . S
C291 H339 0.930 . S
C292 N289 1.279 . S
C292 C291 1.358 . S
C292 H295 0.930 . S
C293 C290 1.348 . S
C293 C291 1.356 . S
H294 C288 0.930 . S
H295 C292 0.930 . S
C296 C298 1.348 . S
C296 C299 1.356 . S
C296 O326 1.325 . S
N297 C300 1.314 . S
N297 C301 1.279 . S
C298 C296 1.348 . S
C298 C300 1.353 . S
C298 H340 0.929 . S
C299 C296 1.356 . S
C299 C301 1.358 . S
C299 H341 0.930 . S
C300 N297 1.314 . S
C300 C298 1.353 . S
C300 H342 0.930 . S
C301 N297 1.279 . S
C301 C299 1.358 . S
C301 H343 0.930 . S
C302 C303 1.348 . S
C302 C304 1.356 . S
C302 O327 1.325 1_556 S
C303 C302 1.348 . S
C303 C305 1.353 . S
C303 H344 0.929 . S
C304 C302 1.356 . S
C304 C306 1.358 . S
C304 H345 0.930 1_556 S
C305 C303 1.353 . S
C305 N307 1.314 . S
C305 H346 0.930 . S
C306 C304 1.358 . S
C306 N307 1.279 . S
C306 H347 0.930 . S
N307 C305 1.314 . S
N307 C306 1.279 . S
C308 C310 1.353 . S
C308 N311 1.314 . S
C308 H314 0.930 . S
C309 N311 1.279 . S
C309 C312 1.358 . S
C309 H315 0.930 . S
C310 C308 1.353 . S
C310 C313 1.348 . S
C310 H348 0.929 . S
N311 Li266 1.990 1_556 S
N311 C308 1.314 . S
N311 C309 1.279 . S
C312 C309 1.358 . S
C312 C313 1.356 . S
C312 H349 0.930 . S
C313 C310 1.348 . S
C313 C312 1.356 . S
H314 C308 0.930 . S
H315 C309 0.930 . S
C316 N317 1.314 . S
C316 C318 1.353 . S
C316 H322 0.930 . S
N317 Li267 1.990 . S
N317 C316 1.314 . S
N317 C320 1.279 . S
C318 C316 1.353 . S
C318 C321 1.348 . S
C318 H350 0.929 . S
C319 C320 1.358 . S
C319 C321 1.356 . S
C319 H351 0.930 . S
C320 N317 1.279 . S
C320 C319 1.358 . S
C320 H323 0.930 . S
C321 C318 1.348 . S
C321 C319 1.356 . S
H322 C316 0.930 . S
H323 C320 0.930 . S
O324 Li264 1.956 . S
O324 Li265 1.970 . S
O324 Li266 1.961 . S
O324 C268 1.325 . S
O325 Li264 1.970 . S
O325 Li265 1.956 . S
O325 Li267 1.961 . S
O325 C274 1.325 . S
O326 Li264 1.961 . S
O326 Li266 1.956 . S
O326 Li267 1.970 . S
O326 C296 1.325 . S
O327 Li265 1.961 . S
O327 Li266 1.970 . S
O327 Li267 1.956 . S
O327 C302 1.325 1_554 S
H328 C270 0.929 . S
H329 C271 0.930 . S
H330 C272 0.930 . S
H331 C273 0.930 . S
H332 C275 0.930 . S
H333 C277 0.929 . S
H334 C278 0.930 . S
H335 C279 0.930 . S
H336 C282 0.930 . S
H337 C285 0.929 . S
H338 C290 0.902 1_556 S
H339 C291 0.930 . S
H340 C298 0.929 . S
H341 C299 0.930 . S
H342 C300 0.930 . S
H343 C301 0.930 . S
H344 C303 0.929 . S
H345 C304 0.930 1_554 S
H346 C305 0.930 . S
H347 C306 0.930 . S
H348 C310 0.929 . S
H349 C312 0.930 . S
H350 C318 0.929 . S
H351 C319 0.930 . S
Li352 N369 1.990 . S
Li352 O412 1.956 . S
Li352 O413 1.970 . S
Li352 O414 1.961 . S
Li353 N377 1.990 . S
Li353 O412 1.970 . S
Li353 O413 1.956 . S
Li353 O415 1.961 . S
Li354 N399 1.990 . S
Li354 O412 1.961 . S
Li354 O414 1.956 . S
Li354 O415 1.970 . S
Li355 N405 1.990 . S
Li355 O413 1.961 . S
Li355 O414 1.970 . S
Li355 O415 1.956 . S
C356 C358 1.348 . S
C356 C359 1.356 . S
C356 O412 1.325 . S
N357 C360 1.314 . S
N357 C361 1.279 . S
C358 C356 1.348 . S
C358 C360 1.353 . S
C358 H416 0.929 . S
C359 C356 1.356 . S
C359 C361 1.358 . S
C359 H417 0.930 . S
C360 N357 1.314 . S
C360 C358 1.353 . S
C360 H418 0.930 . S
C361 N357 1.279 . S
C361 C359 1.358 . S
C361 H419 0.930 . S
C362 C365 1.348 . S
C362 C366 1.356 . S
C362 O413 1.325 . S
C363 N364 1.279 . S
C363 C366 1.358 . S
C363 H420 0.930 . S
N364 C363 1.279 . S
N364 C367 1.314 . S
C365 C362 1.348 . S
C365 C367 1.353 . S
C365 H421 0.929 . S
C366 C362 1.356 . S
C366 C363 1.358 . S
C366 H422 0.930 . S
C367 N364 1.314 . S
C367 C365 1.353 . S
C367 H423 0.930 . S
C368 N369 1.314 . S
C368 C373 1.353 . S
C368 H374 0.930 . S
N369 Li352 1.990 . S
N369 C368 1.314 . S
N369 C371 1.279 . S
C370 C371 1.358 . S
C370 C372 1.356 . S
C370 H424 0.930 . S
C371 N369 1.279 . S
C371 C370 1.358 . S
C371 H375 0.930 . S
C372 C370 1.356 . S
C372 C373 1.348 . S
C373 C368 1.353 . S
C373 C372 1.348 . S
C373 H425 0.929 . S
H374 C368 0.930 . S
H375 C371 0.930 . S
C376 N377 1.314 . S
C376 C378 1.353 1_455 S
C376 H382 0.930 . S
N377 Li353 1.990 . S
N377 C376 1.314 . S
N377 C380 1.279 . S
C378 C376 1.353 1_655 S
C378 C381 1.367 1_655 S
C378 H426 0.929 . S
C379 C380 1.358 . S
C379 C381 1.362 . S
C379 H427 0.930 . S
C380 N377 1.279 . S
C380 C379 1.358 . S
C380 H383 0.930 . S
C381 C378 1.367 1_455 S
C381 C379 1.362 . S
H382 C376 0.930 . S
H383 C380 0.930 . S
C384 C386 1.348 . S
C384 C387 1.356 . S
C384 O414 1.325 . S
N385 C388 1.314 . S
N385 C389 1.279 . S
C386 C384 1.348 . S
C386 C388 1.353 . S
C386 H428 0.929 . S
C387 C384 1.356 . S
C387 C389 1.358 . S
C387 H429 0.930 . S
C388 N385 1.314 . S
C388 C386 1.353 . S
C388 H430 0.930 . S
C389 N385 1.279 . S
C389 C387 1.358 . S
C389 H431 0.930 . S
C390 C391 1.348 . S
C390 C392 1.356 . S
C390 O415 1.325 1_655 S
C391 C390 1.348 . S
C391 C393 1.353 . S
C391 H432 0.880 1_655 S
C392 C390 1.356 . S
C392 C394 1.358 . S
C392 H433 0.930 . S
C393 C391 1.353 . S
C393 N395 1.314 . S
C393 H434 0.930 . S
C394 C392 1.358 . S
C394 N395 1.279 . S
C394 H435 0.930 . S
N395 C393 1.314 . S
N395 C394 1.279 . S
C396 C398 1.353 . S
C396 N399 1.314 . S
C396 H402 0.930 . S
C397 N399 1.279 . S
C397 C400 1.358 . S
C397 H403 0.930 . S
C398 C396 1.353 . S
C398 C401 1.348 . S
C398 H436 0.929 . S
N399 Li354 1.990 . S
N399 C396 1.314 . S
N399 C397 1.279 . S
C400 C397 1.358 . S
C400 C401 1.356 . S
C400 H437 0.930 . S
C401 C398 1.348 . S
C401 C400 1.356 . S
H402 C396 0.930 . S
H403 C397 0.930 . S
C404 N405 1.314 . S
C404 C406 1.353 . S
C404 H410 0.930 . S
N405 Li355 1.990 . S
N405 C404 1.314 . S
N405 C408 1.279 1_455 S
C406 C404 1.353 . S
C406 C409 1.348 1_455 S
C406 H438 0.929 . S
C407 C408 1.358 . S
C407 C409 1.356 . S
C407 H439 0.930 . S
C408 N405 1.279 1_655 S
C408 C407 1.358 . S
C408 H411 0.930 . S
C409 C406 1.348 1_655 S
C409 C407 1.356 . S
H410 C404 0.930 . S
H411 C408 0.930 . S
O412 Li352 1.956 . S
O412 Li353 1.970 . S
O412 Li354 1.961 . S
O412 C356 1.325 . S
O413 Li352 1.970 . S
O413 Li353 1.956 . S
O413 Li355 1.961 . S
O413 C362 1.325 . S
O414 Li352 1.961 . S
O414 Li354 1.956 . S
O414 Li355 1.970 . S
O414 C384 1.325 . S
O415 Li353 1.961 . S
O415 Li354 1.970 . S
O415 Li355 1.956 . S
O415 C390 1.325 1_455 S
H416 C358 0.929 . S
H417 C359 0.930 . S
H418 C360 0.930 . S
H419 C361 0.930 . S
H420 C363 0.930 . S
H421 C365 0.929 . S
H422 C366 0.930 . S
H423 C367 0.930 . S
H424 C370 0.930 . S
H425 C373 0.929 . S
H426 C378 0.929 . S
H427 C379 0.930 . S
H428 C386 0.929 . S
H429 C387 0.930 . S
H430 C388 0.930 . S
H431 C389 0.930 . S
H432 C391 0.880 1_455 S
H433 C392 0.930 . S
H434 C393 0.930 . S
H435 C394 0.930 . S
H436 C398 0.929 . S
H437 C400 0.930 . S
H438 C406 0.929 . S
H439 C407 0.930 . S
Li440 N457 1.990 . S
Li440 O500 1.956 . S
Li440 O501 1.970 . S
Li440 O502 1.961 . S
Li441 N465 1.990 . S
Li441 O500 1.970 . S
Li441 O501 1.956 . S
Li441 O503 1.961 . S
Li442 N487 1.990 . S
Li442 O500 1.961 . S
Li442 O502 1.956 . S
Li442 O503 1.970 . S
Li443 N493 1.990 . S
Li443 O501 1.961 . S
Li443 O502 1.970 . S
Li443 O503 1.956 . S
C444 C446 1.348 . S
C444 C447 1.356 . S
C444 O500 1.325 . S
N445 C448 1.314 . S
N445 C449 1.279 . S
C446 C444 1.348 . S
C446 C448 1.353 . S
C446 H504 0.929 . S
C447 C444 1.356 . S
C447 C449 1.358 . S
C447 H505 0.930 . S
C448 N445 1.314 . S
C448 C446 1.353 . S
C448 H506 0.930 . S
C449 N445 1.279 . S
C449 C447 1.358 . S
C449 H507 0.930 . S
C450 C453 1.348 . S
C450 C454 1.356 . S
C450 O501 1.325 . S
C451 N452 1.279 . S
C451 C454 1.358 . S
C451 H508 0.930 . S
N452 C451 1.279 . S
N452 C455 1.314 . S
C453 C450 1.348 . S
C453 C455 1.353 . S
C453 H509 0.929 . S
C454 C450 1.356 . S
C454 C451 1.358 . S
C454 H510 0.930 . S
C455 N452 1.314 . S
C455 C453 1.353 . S
C455 H511 0.930 . S
C456 N457 1.314 . S
C456 C461 1.353 . S
C456 H462 0.930 . S
N457 Li440 1.990 . S
N457 C456 1.314 . S
N457 C459 1.279 . S
C458 C459 1.358 . S
C458 C460 1.356 . S
C458 H512 0.930 . S
C459 N457 1.279 . S
C459 C458 1.358 . S
C459 H463 0.930 . S
C460 C458 1.356 . S
C460 C461 1.348 . S
C461 C456 1.353 . S
C461 C460 1.348 . S
C461 H513 0.929 . S
H462 C456 0.930 . S
H463 C459 0.930 . S
C464 N465 1.314 . S
C464 C466 1.353 1_545 S
C464 H470 0.930 . S
N465 Li441 1.990 . S
N465 C464 1.314 . S
N465 C468 1.279 . S
C466 C464 1.353 1_565 S
C466 C469 1.318 1_565 S
C466 H514 0.929 . S
C467 C468 1.358 . S
C467 C469 1.394 . S
C467 H515 0.930 . S
C468 N465 1.279 . S
C468 C467 1.358 . S
C468 H471 0.930 . S
C469 C466 1.318 1_545 S
C469 C467 1.394 . S
H470 C464 0.930 . S
H471 C468 0.930 . S
C472 C474 1.348 . S
C472 C475 1.356 . S
C472 O502 1.325 . S
N473 C476 1.314 . S
N473 C477 1.279 . S
C474 C472 1.348 . S
C474 C476 1.353 . S
C474 H516 0.929 . S
C475 C472 1.356 . S
C475 C477 1.358 . S
C475 H517 0.930 . S
C476 N473 1.314 . S
C476 C474 1.353 . S
C476 H518 0.930 . S
C477 N473 1.279 . S
C477 C475 1.358 . S
C477 H519 0.930 . S
C478 C479 1.348 . S
C478 C480 1.356 . S
C478 O503 1.325 1_565 S
C479 C478 1.348 . S
C479 C481 1.353 . S
C479 H520 0.916 1_565 S
C480 C478 1.356 . S
C480 C482 1.358 . S
C480 H521 0.930 . S
C481 C479 1.353 . S
C481 N483 1.314 . S
C481 H522 0.930 . S
C482 C480 1.358 . S
C482 N483 1.279 . S
C482 H523 0.930 . S
N483 C481 1.314 . S
N483 C482 1.279 . S
C484 C486 1.353 . S
C484 N487 1.314 . S
C484 H490 0.930 . S
C485 N487 1.279 . S
C485 C488 1.358 . S
C485 H491 0.930 . S
C486 C484 1.353 . S
C486 C489 1.348 . S
C486 H524 0.929 . S
N487 Li442 1.990 . S
N487 C484 1.314 . S
N487 C485 1.279 . S
C488 C485 1.358 . S
C488 C489 1.356 . S
C488 H525 0.930 . S
C489 C486 1.348 . S
C489 C488 1.356 . S
H490 C484 0.930 . S
H491 C485 0.930 . S
C492 N493 1.314 . S
C492 C494 1.353 . S
C492 H498 0.930 . S
N493 Li443 1.990 . S
N493 C492 1.314 . S
N493 C496 1.279 1_545 S
C494 C492 1.353 . S
C494 C497 1.348 1_545 S
C494 H526 0.929 . S
C495 C496 1.358 . S
C495 C497 1.356 . S
C495 H527 0.930 . S
C496 N493 1.279 1_565 S
C496 C495 1.358 . S
C496 H499 0.930 . S
C497 C494 1.348 1_565 S
C497 C495 1.356 . S
H498 C492 0.930 . S
H499 C496 0.930 . S
O500 Li440 1.956 . S
O500 Li441 1.970 . S
O500 Li442 1.961 . S
O500 C444 1.325 . S
O501 Li440 1.970 . S
O501 Li441 1.956 . S
O501 Li443 1.961 . S
O501 C450 1.325 . S
O502 Li440 1.961 . S
O502 Li442 1.956 . S
O502 Li443 1.970 . S
O502 C472 1.325 . S
O503 Li441 1.961 . S
O503 Li442 1.970 . S
O503 Li443 1.956 . S
O503 C478 1.325 1_545 S
H504 C446 0.929 . S
H505 C447 0.930 . S
H506 C448 0.930 . S
H507 C449 0.930 . S
H508 C451 0.930 . S
H509 C453 0.929 . S
H510 C454 0.930 . S
H511 C455 0.930 . S
H512 C458 0.930 . S
H513 C461 0.929 . S
H514 C466 0.929 . S
H515 C467 0.930 . S
H516 C474 0.929 . S
H517 C475 0.930 . S
H518 C476 0.930 . S
H519 C477 0.930 . S
H520 C479 0.916 1_545 S
H521 C480 0.930 . S
H522 C481 0.930 . S
H523 C482 0.930 . S
H524 C486 0.929 . S
H525 C488 0.930 . S
H526 C494 0.929 . S
H527 C495 0.930 . S
Li528 N545 1.990 . S
Li528 O588 1.956 . S
Li528 O589 1.970 . S
Li528 O590 1.961 . S
Li529 N553 1.990 . S
Li529 O588 1.970 . S
Li529 O589 1.956 . S
Li529 O591 1.961 . S
Li530 N575 1.990 . S
Li530 O588 1.961 . S
Li530 O590 1.956 . S
Li530 O591 1.970 . S
Li531 N581 1.990 . S
Li531 O589 1.961 . S
Li531 O590 1.970 . S
Li531 O591 1.956 . S
C532 C534 1.348 . S
C532 C535 1.356 . S
C532 O588 1.325 . S
N533 C536 1.314 . S
N533 C537 1.279 . S
C534 C532 1.348 . S
C534 C536 1.353 . S
C534 H592 0.929 . S
C535 C532 1.356 . S
C535 C537 1.358 . S
C535 H593 0.930 . S
C536 N533 1.314 . S
C536 C534 1.353 . S
C536 H594 0.930 . S
C537 N533 1.279 . S
C537 C535 1.358 . S
C537 H595 0.930 . S
C538 C541 1.348 . S
C538 C542 1.356 . S
C538 O589 1.325 . S
C539 N540 1.279 . S
C539 C542 1.358 . S
C539 H596 0.930 . S
N540 C539 1.279 . S
N540 C543 1.314 . S
C541 C538 1.348 . S
C541 C543 1.353 . S
C541 H597 0.929 . S
C542 C538 1.356 . S
C542 C539 1.358 . S
C542 H598 0.930 . S
C543 N540 1.314 . S
C543 C541 1.353 . S
C543 H599 0.930 . S
C544 N545 1.314 . S
C544 C549 1.353 . S
C544 H550 0.930 . S
N545 Li528 1.990 . S
N545 C544 1.314 . S
N545 C547 1.279 . S
C546 C547 1.358 . S
C546 C548 1.356 . S
C546 H600 0.930 . S
C547 N545 1.279 . S
C547 C546 1.358 . S
C547 H551 0.930 . S
C548 C546 1.356 . S
C548 C549 1.348 . S
C549 C544 1.353 . S
C549 C548 1.348 . S
C549 H601 0.929 . S
H550 C544 0.930 . S
H551 C547 0.930 . S
C552 N553 1.314 . S
C552 C554 1.353 . S
C552 H558 0.930 . S
N553 Li529 1.990 . S
N553 C552 1.314 . S
N553 C556 1.279 . S
C554 C552 1.353 . S
C554 C557 1.348 . S
C554 H602 0.929 . S
C555 C556 1.358 . S
C555 C557 1.356 . S
C555 H603 0.930 . S
C556 N553 1.279 . S
C556 C555 1.358 . S
C556 H559 0.930 . S
C557 C554 1.348 . S
C557 C555 1.356 . S
H558 C552 0.930 . S
H559 C556 0.930 . S
C560 C562 1.348 . S
C560 C563 1.356 . S
C560 O590 1.325 . S
N561 C564 1.314 . S
N561 C565 1.279 . S
C562 C560 1.348 . S
C562 C564 1.353 . S
C562 H604 0.929 . S
C563 C560 1.356 . S
C563 C565 1.358 . S
C563 H605 0.930 . S
C564 N561 1.314 . S
C564 C562 1.353 . S
C564 H606 0.930 . S
C565 N561 1.279 . S
C565 C563 1.358 . S
C565 H607 0.930 . S
C566 C567 1.348 . S
C566 C568 1.356 . S
C566 O591 1.325 . S
C567 C566 1.348 . S
C567 C569 1.353 . S
C567 H608 0.929 . S
C568 C566 1.356 . S
C568 C570 1.358 . S
C568 H609 0.930 . S
C569 C567 1.353 . S
C569 N571 1.314 . S
C569 H610 0.930 . S
C570 C568 1.358 . S
C570 N571 1.279 . S
C570 H611 0.930 . S
N571 C569 1.314 . S
N571 C570 1.279 . S
C572 C574 1.353 . S
C572 N575 1.314 . S
C572 H578 0.930 . S
C573 N575 1.279 . S
C573 C576 1.358 . S
C573 H579 0.930 . S
C574 C572 1.353 . S
C574 C577 1.348 . S
C574 H612 0.929 . S
N575 Li530 1.990 . S
N575 C572 1.314 . S
N575 C573 1.279 . S
C576 C573 1.358 . S
C576 C577 1.356 . S
C576 H613 0.930 . S
C577 C574 1.348 . S
C577 C576 1.356 . S
H578 C572 0.930 . S
H579 C573 0.930 . S
C580 N581 1.314 . S
C580 C582 1.353 . S
C580 H586 0.930 . S
N581 Li531 1.990 . S
N581 C580 1.314 . S
N581 C584 1.279 . S
C582 C580 1.353 . S
C582 C585 1.348 . S
C582 H614 0.929 . S
C583 C584 1.358 . S
C583 C585 1.356 . S
C583 H615 0.930 . S
C584 N581 1.279 . S
C584 C583 1.358 . S
C584 H587 0.930 . S
C585 C582 1.348 . S
C585 C583 1.356 . S
H586 C580 0.930 . S
H587 C584 0.930 . S
O588 Li528 1.956 . S
O588 Li529 1.970 . S
O588 Li530 1.961 . S
O588 C532 1.325 . S
O589 Li528 1.970 . S
O589 Li529 1.956 . S
O589 Li531 1.961 . S
O589 C538 1.325 . S
O590 Li528 1.961 . S
O590 Li530 1.956 . S
O590 Li531 1.970 . S
O590 C560 1.325 . S
O591 Li529 1.961 . S
O591 Li530 1.970 . S
O591 Li531 1.956 . S
O591 C566 1.325 . S
H592 C534 0.929 . S
H593 C535 0.930 . S
H594 C536 0.930 . S
H595 C537 0.930 . S
H596 C539 0.930 . S
H597 C541 0.929 . S
H598 C542 0.930 . S
H599 C543 0.930 . S
H600 C546 0.930 . S
H601 C549 0.929 . S
H602 C554 0.929 . S
H603 C555 0.930 . S
H604 C562 0.929 . S
H605 C563 0.930 . S
H606 C564 0.930 . S
H607 C565 0.930 . S
H608 C567 0.929 . S
H609 C568 0.930 . S
H610 C569 0.930 . S
H611 C570 0.930 . S
H612 C574 0.929 . S
H613 C576 0.930 . S
H614 C582 0.929 . S
H615 C583 0.930 . S
Li616 N633 1.990 . S
Li616 O676 1.956 . S
Li616 O677 1.970 . S
Li616 O678 1.961 . S
Li617 N641 1.990 1_556 S
Li617 O676 1.970 . S
Li617 O677 1.956 . S
Li617 O679 1.961 . S
Li618 N663 1.990 . S
Li618 O676 1.961 . S
Li618 O678 1.956 . S
Li618 O679 1.970 . S
Li619 N669 1.990 . S
Li619 O677 1.961 . S
Li619 O678 1.970 . S
Li619 O679 1.956 . S
C620 C622 1.348 . S
C620 C623 1.356 . S
C620 O676 1.325 1_554 S
N621 C624 1.314 . S
N621 C625 1.279 . S
C622 C620 1.348 . S
C622 C624 1.353 . S
C622 H680 0.929 . S
C623 C620 1.356 . S
C623 C625 1.358 . S
C623 H681 0.930 1_554 S
C624 N621 1.314 . S
C624 C622 1.353 . S
C624 H682 0.930 . S
C625 N621 1.279 . S
C625 C623 1.358 . S
C625 H683 0.930 . S
C626 C629 1.348 . S
C626 C630 1.356 . S
C626 O677 1.325 1_455 S
C627 N628 1.279 . S
C627 C630 1.358 . S
C627 H684 0.930 . S
N628 C627 1.279 . S
N628 C631 1.314 . S
C629 C626 1.348 . S
C629 C631 1.353 . S
C629 H685 0.916 1_455 S
C630 C626 1.356 . S
C630 C627 1.358 . S
C630 H686 0.930 . S
C631 N628 1.314 . S
C631 C629 1.353 . S
C631 H687 0.930 . S
C632 N633 1.314 . S
C632 C637 1.353 . S
C632 H638 0.930 . S
N633 Li616 1.990 . S
N633 C632 1.314 . S
N633 C635 1.279 . S
C634 C635 1.358 . S
C634 C636 1.356 . S
C634 H688 0.930 . S
C635 N633 1.279 . S
C635 C634 1.358 . S
C635 H639 0.930 . S
C636 C634 1.356 . S
C636 C637 1.348 . S
C637 C632 1.353 . S
C637 C636 1.348 . S
C637 H689 0.929 . S
H638 C632 0.930 . S
H639 C635 0.930 . S
C640 N641 1.314 . S
C640 C642 1.353 . S
C640 H646 0.930 . S
N641 Li617 1.990 1_554 S
N641 C640 1.314 . S
N641 C644 1.279 1_655 S
C642 C640 1.353 . S
C642 C645 1.348 1_655 S
C642 H690 0.929 . S
C643 C644 1.358 . S
C643 C645 1.356 . S
C643 H691 0.930 . S
C644 N641 1.279 1_455 S
C644 C643 1.358 . S
C644 H647 0.930 . S
C645 C642 1.348 1_455 S
C645 C643 1.356 . S
H646 C640 0.930 . S
H647 C644 0.930 . S
C648 C650 1.348 . S
C648 C651 1.356 . S
C648 O678 1.325 . S
N649 C652 1.314 . S
N649 C653 1.279 . S
C650 C648 1.348 . S
C650 C652 1.353 . S
C650 H692 0.929 . S
C651 C648 1.356 . S
C651 C653 1.358 . S
C651 H693 0.930 . S
C652 N649 1.314 . S
C652 C650 1.353 . S
C652 H694 0.930 . S
C653 N649 1.279 . S
C653 C651 1.358 . S
C653 H695 0.930 . S
C654 C655 1.348 . S
C654 C656 1.356 . S
C654 O679 1.325 . S
C655 C654 1.348 . S
C655 C657 1.353 . S
C655 H696 0.929 . S
C656 C654 1.356 . S
C656 C658 1.358 . S
C656 H697 0.930 . S
C657 C655 1.353 . S
C657 N659 1.314 . S
C657 H698 0.930 . S
C658 C656 1.358 . S
C658 N659 1.279 . S
C658 H699 0.930 . S
N659 C657 1.314 . S
N659 C658 1.279 . S
C660 C662 1.353 . S
C660 N663 1.314 . S
C660 H666 0.930 . S
C661 N663 1.279 . S
C661 C664 1.358 . S
C661 H667 0.930 . S
C662 C660 1.353 . S
C662 C665 1.348 . S
C662 H700 0.902 1_556 S
N663 Li618 1.990 . S
N663 C660 1.314 . S
N663 C661 1.279 . S
C664 C661 1.358 . S
C664 C665 1.356 . S
C664 H701 0.930 . S
C665 C662 1.348 . S
C665 C664 1.356 . S
H666 C660 0.930 . S
H667 C661 0.930 . S
C668 N669 1.314 . S
C668 C670 1.353 1_655 S
C668 H674 0.930 . S
N669 Li619 1.990 . S
N669 C668 1.314 . S
N669 C672 1.279 . S
C670 C668 1.353 1_455 S
C670 C673 1.318 1_455 S
C670 H702 0.929 . S
C671 C672 1.358 . S
C671 C673 1.394 . S
C671 H703 0.930 . S
C672 N669 1.279 . S
C672 C671 1.358 . S
C672 H675 0.930 . S
C673 C670 1.318 1_655 S
C673 C671 1.394 . S
H674 C668 0.930 . S
H675 C672 0.930 . S
O676 Li616 1.956 . S
O676 Li617 1.970 . S
O676 Li618 1.961 . S
O676 C620 1.325 1_556 S
O677 Li616 1.970 . S
O677 Li617 1.956 . S
O677 Li619 1.961 . S
O677 C626 1.325 1_655 S
O678 Li616 1.961 . S
O678 Li618 1.956 . S
O678 Li619 1.970 . S
O678 C648 1.325 . S
O679 Li617 1.961 . S
O679 Li618 1.970 . S
O679 Li619 1.956 . S
O679 C654 1.325 . S
H680 C622 0.929 . S
H681 C623 0.930 1_556 S
H682 C624 0.930 . S
H683 C625 0.930 . S
H684 C627 0.930 . S
H685 C629 0.916 1_655 S
H686 C630 0.930 . S
H687 C631 0.930 . S
H688 C634 0.930 . S
H689 C637 0.929 . S
H690 C642 0.929 . S
H691 C643 0.930 . S
H692 C650 0.929 . S
H693 C651 0.930 . S
H694 C652 0.930 . S
H695 C653 0.930 . S
H696 C655 0.929 . S
H697 C656 0.930 . S
H698 C657 0.930 . S
H699 C658 0.930 . S
H700 C662 0.902 1_554 S
H701 C664 0.930 . S
H702 C670 0.929 . S
H703 C671 0.930 . S
Li704 N721 1.990 . S
Li704 O764 1.956 . S
Li704 O765 1.970 . S
Li704 O766 1.961 . S
Li705 N729 1.990 . S
Li705 O764 1.970 . S
Li705 O765 1.956 . S
Li705 O767 1.961 . S
Li706 N751 1.990 . S
Li706 O764 1.961 . S
Li706 O766 1.956 . S
Li706 O767 1.970 . S
Li707 N757 1.990 . S
Li707 O765 1.961 . S
Li707 O766 1.970 . S
Li707 O767 1.956 . S
C708 C710 1.348 . S
C708 C711 1.356 . S
C708 O764 1.325 1_545 S
N709 C712 1.314 . S
N709 C713 1.279 . S
C710 C708 1.348 . S
C710 C712 1.353 . S
C710 H768 0.880 1_545 S
C711 C708 1.356 . S
C711 C713 1.358 . S
C711 H769 0.930 . S
C712 N709 1.314 . S
C712 C710 1.353 . S
C712 H770 0.930 . S
C713 N709 1.279 . S
C713 C711 1.358 . S
C713 H771 0.930 . S
C714 C717 1.348 . S
C714 C718 1.356 . S
C714 O765 1.325 . S
C715 N716 1.279 . S
C715 C718 1.358 . S
C715 H772 0.930 . S
N716 C715 1.279 . S
N716 C719 1.314 . S
C717 C714 1.348 . S
C717 C719 1.353 . S
C717 H773 0.929 . S
C718 C714 1.356 . S
C718 C715 1.358 . S
C718 H774 0.930 . S
C719 N716 1.314 . S
C719 C717 1.353 . S
C719 H775 0.930 . S
C720 N721 1.314 . S
C720 C725 1.353 . S
C720 H726 0.930 . S
N721 Li704 1.990 . S
N721 C720 1.314 . S
N721 C723 1.279 1_565 S
C722 C723 1.358 . S
C722 C724 1.356 . S
C722 H776 0.930 . S
C723 N721 1.279 1_545 S
C723 C722 1.358 . S
C723 H727 0.930 . S
C724 C722 1.356 . S
C724 C725 1.348 1_545 S
C725 C720 1.353 . S
C725 C724 1.348 1_565 S
C725 H777 0.929 . S
H726 C720 0.930 . S
H727 C723 0.930 . S
C728 N729 1.314 . S
C728 C730 1.353 . S
C728 H734 0.930 . S
N729 Li705 1.990 . S
N729 C728 1.314 . S
N729 C732 1.279 . S
C730 C728 1.353 . S
C730 C733 1.348 . S
C730 H778 0.929 . S
C731 C732 1.358 . S
C731 C733 1.356 . S
C731 H779 0.930 . S
C732 N729 1.279 . S
C732 C731 1.358 . S
C732 H735 0.930 . S
C733 C730 1.348 . S
C733 C731 1.356 . S
H734 C728 0.930 . S
H735 C732 0.930 . S
C736 C738 1.348 . S
C736 C739 1.356 . S
C736 O766 1.325 . S
N737 C740 1.314 . S
N737 C741 1.279 . S
C738 C736 1.348 . S
C738 C740 1.353 . S
C738 H780 0.929 . S
C739 C736 1.356 . S
C739 C741 1.358 . S
C739 H781 0.930 . S
C740 N737 1.314 . S
C740 C738 1.353 . S
C740 H782 0.930 . S
C741 N737 1.279 . S
C741 C739 1.358 . S
C741 H783 0.930 . S
C742 C743 1.348 . S
C742 C744 1.356 . S
C742 O767 1.325 . S
C743 C742 1.348 . S
C743 C745 1.353 . S
C743 H784 0.929 . S
C744 C742 1.356 . S
C744 C746 1.358 . S
C744 H785 0.930 . S
C745 C743 1.353 . S
C745 N747 1.314 . S
C745 H786 0.930 . S
C746 C744 1.358 . S
C746 N747 1.279 . S
C746 H787 0.930 . S
N747 C745 1.314 . S
N747 C746 1.279 . S
C748 C750 1.353 1_565 S
C748 N751 1.314 . S
C748 H754 0.930 . S
C749 N751 1.279 . S
C749 C752 1.358 . S
C749 H755 0.930 . S
C750 C748 1.353 1_545 S
C750 C753 1.367 1_545 S
C750 H788 0.929 . S
N751 Li706 1.990 . S
N751 C748 1.314 . S
N751 C749 1.279 . S
C752 C749 1.358 . S
C752 C753 1.362 . S
C752 H789 0.930 . S
C753 C750 1.367 1_565 S
C753 C752 1.362 . S
H754 C748 0.930 . S
H755 C749 0.930 . S
C756 N757 1.314 . S
C756 C758 1.353 . S
C756 H762 0.930 . S
N757 Li707 1.990 . S
N757 C756 1.314 . S
N757 C760 1.279 . S
C758 C756 1.353 . S
C758 C761 1.348 . S
C758 H790 0.929 . S
C759 C760 1.358 . S
C759 C761 1.356 . S
C759 H791 0.930 . S
C760 N757 1.279 . S
C760 C759 1.358 . S
C760 H763 0.930 . S
C761 C758 1.348 . S
C761 C759 1.356 . S
H762 C756 0.930 . S
H763 C760 0.930 . S
O764 Li704 1.956 . S
O764 Li705 1.970 . S
O764 Li706 1.961 . S
O764 C708 1.325 1_565 S
O765 Li704 1.970 . S
O765 Li705 1.956 . S
O765 Li707 1.961 . S
O765 C714 1.325 . S
O766 Li704 1.961 . S
O766 Li706 1.956 . S
O766 Li707 1.970 . S
O766 C736 1.325 . S
O767 Li705 1.961 . S
O767 Li706 1.970 . S
O767 Li707 1.956 . S
O767 C742 1.325 . S
H768 C710 0.880 1_565 S
H769 C711 0.930 . S
H770 C712 0.930 . S
H771 C713 0.930 . S
H772 C715 0.930 . S
H773 C717 0.929 . S
H774 C718 0.930 . S
H775 C719 0.930 . S
H776 C722 0.930 . S
H777 C725 0.929 . S
H778 C730 0.929 . S
H779 C731 0.930 . S
H780 C738 0.929 . S
H781 C739 0.930 . S
H782 C740 0.930 . S
H783 C741 0.930 . S
H784 C743 0.929 . S
H785 C744 0.930 . S
H786 C745 0.930 . S
H787 C746 0.930 . S
H788 C750 0.929 . S
H789 C752 0.930 . S
H790 C758 0.929 . S
H791 C759 0.930 . S
Li792 N809 1.990 . S
Li792 O852 1.956 . S
Li792 O853 1.970 . S
Li792 O854 1.961 . S
Li793 N817 1.990 . S
Li793 O852 1.970 . S
Li793 O853 1.956 . S
Li793 O855 1.961 . S
Li794 N839 1.990 . S
Li794 O852 1.961 . S
Li794 O854 1.956 . S
Li794 O855 1.970 . S
Li795 N845 1.990 . S
Li795 O853 1.961 . S
Li795 O854 1.970 . S
Li795 O855 1.956 . S
C796 C798 1.348 . S
C796 C799 1.356 . S
C796 O852 1.325 . S
N797 C800 1.314 . S
N797 C801 1.279 . S
C798 C796 1.348 . S
C798 C800 1.353 . S
C798 H856 0.929 . S
C799 C796 1.356 . S
C799 C801 1.358 . S
C799 H857 0.930 . S
C800 N797 1.314 . S
C800 C798 1.353 . S
C800 H858 0.930 . S
C801 N797 1.279 . S
C801 C799 1.358 . S
C801 H859 0.930 . S
C802 C805 1.348 . S
C802 C806 1.356 . S
C802 O853 1.325 . S
C803 N804 1.279 . S
C803 C806 1.358 . S
C803 H860 0.930 . S
N804 C803 1.279 . S
N804 C807 1.314 . S
C805 C802 1.348 . S
C805 C807 1.353 . S
C805 H861 0.929 . S
C806 C802 1.356 . S
C806 C803 1.358 . S
C806 H862 0.930 . S
C807 N804 1.314 . S
C807 C805 1.353 . S
C807 H863 0.930 . S
C808 N809 1.314 . S
C808 C813 1.353 . S
C808 H814 0.930 . S
N809 Li792 1.990 . S
N809 C808 1.314 . S
N809 C811 1.279 . S
C810 C811 1.358 . S
C810 C812 1.356 . S
C810 H864 0.930 . S
C811 N809 1.279 . S
C811 C810 1.358 . S
C811 H815 0.930 . S
C812 C810 1.356 . S
C812 C813 1.348 . S
C813 C808 1.353 . S
C813 C812 1.348 . S
C813 H865 0.929 . S
H814 C808 0.930 . S
H815 C811 0.930 . S
C816 N817 1.314 . S
C816 C818 1.353 . S
C816 H822 0.930 . S
N817 Li793 1.990 . S
N817 C816 1.314 . S
N817 C820 1.279 . S
C818 C816 1.353 . S
C818 C821 1.348 . S
C818 H866 0.929 . S
C819 C820 1.358 . S
C819 C821 1.356 . S
C819 H867 0.930 . S
C820 N817 1.279 . S
C820 C819 1.358 . S
C820 H823 0.930 . S
C821 C818 1.348 . S
C821 C819 1.356 . S
H822 C816 0.930 . S
H823 C820 0.930 . S
C824 C826 1.348 . S
C824 C827 1.356 . S
C824 O854 1.325 . S
N825 C828 1.314 . S
N825 C829 1.279 . S
C826 C824 1.348 . S
C826 C828 1.353 . S
C826 H868 0.929 . S
C827 C824 1.356 . S
C827 C829 1.358 . S
C827 H869 0.930 . S
C828 N825 1.314 . S
C828 C826 1.353 . S
C828 H870 0.930 . S
C829 N825 1.279 . S
C829 C827 1.358 . S
C829 H871 0.930 . S
C830 C831 1.348 . S
C830 C832 1.356 . S
C830 O855 1.325 . S
C831 C830 1.348 . S
C831 C833 1.353 . S
C831 H872 0.929 . S
C832 C830 1.356 . S
C832 C834 1.358 . S
C832 H873 0.930 . S
C833 C831 1.353 . S
C833 N835 1.314 . S
C833 H874 0.930 . S
C834 C832 1.358 . S
C834 N835 1.279 . S
C834 H875 0.930 . S
N835 C833 1.314 . S
N835 C834 1.279 . S
C836 C838 1.353 . S
C836 N839 1.314 . S
C836 H842 0.930 . S
C837 N839 1.279 . S
C837 C840 1.358 . S
C837 H843 0.930 . S
C838 C836 1.353 . S
C838 C841 1.348 . S
C838 H876 0.929 . S
N839 Li794 1.990 . S
N839 C836 1.314 . S
N839 C837 1.279 . S
C840 C837 1.358 . S
C840 C841 1.356 . S
C840 H877 0.930 . S
C841 C838 1.348 . S
C841 C840 1.356 . S
H842 C836 0.930 . S
H843 C837 0.930 . S
C844 N845 1.314 . S
C844 C846 1.353 . S
C844 H850 0.930 . S
N845 Li795 1.990 . S
N845 C844 1.314 . S
N845 C848 1.279 . S
C846 C844 1.353 . S
C846 C849 1.348 . S
C846 H878 0.929 . S
C847 C848 1.358 . S
C847 C849 1.356 . S
C847 H879 0.930 . S
C848 N845 1.279 . S
C848 C847 1.358 . S
C848 H851 0.930 . S
C849 C846 1.348 . S
C849 C847 1.356 . S
H850 C844 0.930 . S
H851 C848 0.930 . S
O852 Li792 1.956 . S
O852 Li793 1.970 . S
O852 Li794 1.961 . S
O852 C796 1.325 . S
O853 Li792 1.970 . S
O853 Li793 1.956 . S
O853 Li795 1.961 . S
O853 C802 1.325 . S
O854 Li792 1.961 . S
O854 Li794 1.956 . S
O854 Li795 1.970 . S
O854 C824 1.325 . S
O855 Li793 1.961 . S
O855 Li794 1.970 . S
O855 Li795 1.956 . S
O855 C830 1.325 . S
H856 C798 0.929 . S
H857 C799 0.930 . S
H858 C800 0.930 . S
H859 C801 0.930 . S
H860 C803 0.930 . S
H861 C805 0.929 . S
H862 C806 0.930 . S
H863 C807 0.930 . S
H864 C810 0.930 . S
H865 C813 0.929 . S
H866 C818 0.929 . S
H867 C819 0.930 . S
H868 C826 0.929 . S
H869 C827 0.930 . S
H870 C828 0.930 . S
H871 C829 0.930 . S
H872 C831 0.929 . S
H873 C832 0.930 . S
H874 C833 0.930 . S
H875 C834 0.930 . S
H876 C838 0.929 . S
H877 C840 0.930 . S
H878 C846 0.929 . S
H879 C847 0.930 . S
Li880 N897 1.990 . S
Li880 O940 1.956 . S
Li880 O941 1.970 . S
Li880 O942 1.961 . S
Li881 N905 1.990 1_556 S
Li881 O940 1.970 . S
Li881 O941 1.956 . S
Li881 O943 1.961 . S
Li882 N927 1.990 . S
Li882 O940 1.961 . S
Li882 O942 1.956 . S
Li882 O943 1.970 . S
Li883 N933 1.990 . S
Li883 O941 1.961 . S
Li883 O942 1.970 . S
Li883 O943 1.956 . S
C884 C886 1.348 . S
C884 C887 1.356 . S
C884 O940 1.325 1_554 S
N885 C888 1.314 . S
N885 C889 1.279 . S
C886 C884 1.348 . S
C886 C888 1.353 . S
C886 H944 0.929 . S
C887 C884 1.356 . S
C887 C889 1.358 . S
C887 H945 0.930 1_554 S
C888 N885 1.314 . S
C888 C886 1.353 . S
C888 H946 0.930 . S
C889 N885 1.279 . S
C889 C887 1.358 . S
C889 H947 0.930 . S
C890 C893 1.348 . S
C890 C894 1.356 . S
C890 O941 1.325 1_655 S
C891 N892 1.279 . S
C891 C894 1.358 . S
C891 H948 0.930 . S
N892 C891 1.279 . S
N892 C895 1.314 . S
C893 C890 1.348 . S
C893 C895 1.353 . S
C893 H949 0.916 1_655 S
C894 C890 1.356 . S
C894 C891 1.358 . S
C894 H950 0.930 . S
C895 N892 1.314 . S
C895 C893 1.353 . S
C895 H951 0.930 . S
C896 N897 1.314 . S
C896 C901 1.353 . S
C896 H902 0.930 . S
N897 Li880 1.990 . S
N897 C896 1.314 . S
N897 C899 1.279 . S
C898 C899 1.358 . S
C898 C900 1.356 . S
C898 H952 0.930 . S
C899 N897 1.279 . S
C899 C898 1.358 . S
C899 H903 0.930 . S
C900 C898 1.356 . S
C900 C901 1.348 . S
C901 C896 1.353 . S
C901 C900 1.348 . S
C901 H953 0.929 . S
H902 C896 0.930 . S
H903 C899 0.930 . S
C904 N905 1.314 . S
C904 C906 1.353 . S
C904 H910 0.930 . S
N905 Li881 1.990 1_554 S
N905 C904 1.314 . S
N905 C908 1.279 1_455 S
C906 C904 1.353 . S
C906 C909 1.348 1_455 S
C906 H954 0.929 . S
C907 C908 1.358 . S
C907 C909 1.356 . S
C907 H955 0.930 . S
C908 N905 1.279 1_655 S
C908 C907 1.358 . S
C908 H911 0.930 . S
C909 C906 1.348 1_655 S
C909 C907 1.356 . S
H910 C904 0.930 . S
H911 C908 0.930 . S
C912 C914 1.348 . S
C912 C915 1.356 . S
C912 O942 1.325 . S
N913 C916 1.314 . S
N913 C917 1.279 . S
C914 C912 1.348 . S
C914 C916 1.353 . S
C914 H956 0.929 . S
C915 C912 1.356 . S
C915 C917 1.358 . S
C915 H957 0.930 . S
C916 N913 1.314 . S
C916 C914 1.353 . S
C916 H958 0.930 . S
C917 N913 1.279 . S
C917 C915 1.358 . S
C917 H959 0.930 . S
C918 C919 1.348 . S
C918 C920 1.356 . S
C918 O943 1.325 . S
C919 C918 1.348 . S
C919 C921 1.353 . S
C919 H960 0.929 . S
C920 C918 1.356 . S
C920 C922 1.358 . S
C920 H961 0.930 . S
C921 C919 1.353 . S
C921 N923 1.314 . S
C921 H962 0.930 . S
C922 C920 1.358 . S
C922 N923 1.279 . S
C922 H963 0.930 . S
N923 C921 1.314 . S
N923 C922 1.279 . S
C924 C926 1.353 . S
C924 N927 1.314 . S
C924 H930 0.930 . S
C925 N927 1.279 . S
C925 C928 1.358 . S
C925 H931 0.930 . S
C926 C924 1.353 . S
C926 C929 1.348 . S
C926 H964 0.902 1_556 S
N927 Li882 1.990 . S
N927 C924 1.314 . S
N927 C925 1.279 . S
C928 C925 1.358 . S
C928 C929 1.356 . S
C928 H965 0.930 . S
C929 C926 1.348 . S
C929 C928 1.356 . S
H930 C924 0.930 . S
H931 C925 0.930 . S
C932 N933 1.314 . S
C932 C934 1.353 1_455 S
C932 H938 0.930 . S
N933 Li883 1.990 . S
N933 C932 1.314 . S
N933 C936 1.279 . S
C934 C932 1.353 1_655 S
C934 C937 1.318 1_655 S
C934 H966 0.929 . S
C935 C936 1.358 . S
C935 C937 1.394 . S
C935 H967 0.930 . S
C936 N933 1.279 . S
C936 C935 1.358 . S
C936 H939 0.930 . S
C937 C934 1.318 1_455 S
C937 C935 1.394 . S
H938 C932 0.930 . S
H939 C936 0.930 . S
O940 Li880 1.956 . S
O940 Li881 1.970 . S
O940 Li882 1.961 . S
O940 C884 1.325 1_556 S
O941 Li880 1.970 . S
O941 Li881 1.956 . S
O941 Li883 1.961 . S
O941 C890 1.325 1_455 S
O942 Li880 1.961 . S
O942 Li882 1.956 . S
O942 Li883 1.970 . S
O942 C912 1.325 . S
O943 Li881 1.961 . S
O943 Li882 1.970 . S
O943 Li883 1.956 . S
O943 C918 1.325 . S
H944 C886 0.929 . S
H945 C887 0.930 1_556 S
H946 C888 0.930 . S
H947 C889 0.930 . S
H948 C891 0.930 . S
H949 C893 0.916 1_455 S
H950 C894 0.930 . S
H951 C895 0.930 . S
H952 C898 0.930 . S
H953 C901 0.929 . S
H954 C906 0.929 . S
H955 C907 0.930 . S
H956 C914 0.929 . S
H957 C915 0.930 . S
H958 C916 0.930 . S
H959 C917 0.930 . S
H960 C919 0.929 . S
H961 C920 0.930 . S
H962 C921 0.930 . S
H963 C922 0.930 . S
H964 C926 0.902 1_554 S
H965 C928 0.930 . S
H966 C934 0.929 . S
H967 C935 0.930 . S
Li968 N985 1.990 . S
Li968 O1028 1.956 . S
Li968 O1029 1.970 . S
Li968 O1030 1.961 . S
Li969 N993 1.990 . S
Li969 O1028 1.970 . S
Li969 O1029 1.956 . S
Li969 O1031 1.961 . S
Li970 N1015 1.990 . S
Li970 O1028 1.961 . S
Li970 O1030 1.956 . S
Li970 O1031 1.970 . S
Li971 N1021 1.990 . S
Li971 O1029 1.961 . S
Li971 O1030 1.970 . S
Li971 O1031 1.956 . S
C972 C974 1.348 . S
C972 C975 1.356 . S
C972 O1028 1.325 . S
N973 C976 1.314 . S
N973 C977 1.279 . S
C974 C972 1.348 . S
C974 C976 1.353 . S
C974 H1032 0.929 . S
C975 C972 1.356 . S
C975 C977 1.358 . S
C975 H1033 0.930 . S
C976 N973 1.314 . S
C976 C974 1.353 . S
C976 H1034 0.930 . S
C977 N973 1.279 . S
C977 C975 1.358 . S
C977 H1035 0.930 . S
C978 C981 1.348 . S
C978 C982 1.356 . S
C978 O1029 1.325 1_565 S
C979 N980 1.279 . S
C979 C982 1.358 . S
C979 H1036 0.930 . S
N980 C979 1.279 . S
N980 C983 1.314 . S
C981 C978 1.348 . S
C981 C983 1.353 . S
C981 H1037 0.880 1_565 S
C982 C978 1.356 . S
C982 C979 1.358 . S
C982 H1038 0.930 . S
C983 N980 1.314 . S
C983 C981 1.353 . S
C983 H1039 0.930 . S
C984 N985 1.314 . S
C984 C989 1.353 . S
C984 H990 0.930 . S
N985 Li968 1.990 . S
N985 C984 1.314 . S
N985 C987 1.279 . S
C986 C987 1.358 . S
C986 C988 1.356 . S
C986 H1040 0.930 . S
C987 N985 1.279 . S
C987 C986 1.358 . S
C987 H991 0.930 . S
C988 C986 1.356 . S
C988 C989 1.348 . S
C989 C984 1.353 . S
C989 C988 1.348 . S
C989 H1041 0.929 . S
H990 C984 0.930 . S
H991 C987 0.930 . S
C992 N993 1.314 . S
C992 C994 1.353 . S
C992 H998 0.930 . S
N993 Li969 1.990 . S
N993 C992 1.314 . S
N993 C996 1.279 1_545 S
C994 C992 1.353 . S
C994 C997 1.348 1_545 S
C994 H1042 0.929 . S
C995 C996 1.358 . S
C995 C997 1.356 . S
C995 H1043 0.930 . S
C996 N993 1.279 1_565 S
C996 C995 1.358 . S
C996 H999 0.930 . S
C997 C994 1.348 1_565 S
C997 C995 1.356 . S
H998 C992 0.930 . S
H999 C996 0.930 . S
C1000 C1002 1.348 . S
C1000 C1003 1.356 . S
C1000 O1030 1.325 . S
N1001 C1004 1.314 . S
N1001 C1005 1.279 . S
C1002 C1000 1.348 . S
C1002 C1004 1.353 . S
C1002 H1044 0.929 . S
C1003 C1000 1.356 . S
C1003 C1005 1.358 . S
C1003 H1045 0.930 . S
C1004 N1001 1.314 . S
C1004 C1002 1.353 . S
C1004 H1046 0.930 . S
C1005 N1001 1.279 . S
C1005 C1003 1.358 . S
C1005 H1047 0.930 . S
C1006 C1007 1.348 . S
C1006 C1008 1.356 . S
C1006 O1031 1.325 . S
C1007 C1006 1.348 . S
C1007 C1009 1.353 . S
C1007 H1048 0.929 . S
C1008 C1006 1.356 . S
C1008 C1010 1.358 . S
C1008 H1049 0.930 . S
C1009 C1007 1.353 . S
C1009 N1011 1.314 . S
C1009 H1050 0.930 . S
C1010 C1008 1.358 . S
C1010 N1011 1.279 . S
C1010 H1051 0.930 . S
N1011 C1009 1.314 . S
N1011 C1010 1.279 . S
C1012 C1014 1.353 . S
C1012 N1015 1.314 . S
C1012 H1018 0.930 . S
C1013 N1015 1.279 . S
C1013 C1016 1.358 . S
C1013 H1019 0.930 . S
C1014 C1012 1.353 . S
C1014 C1017 1.348 . S
C1014 H1052 0.929 . S
N1015 Li970 1.990 . S
N1015 C1012 1.314 . S
N1015 C1013 1.279 . S
C1016 C1013 1.358 . S
C1016 C1017 1.356 . S
C1016 H1053 0.930 . S
C1017 C1014 1.348 . S
C1017 C1016 1.356 . S
H1018 C1012 0.930 . S
H1019 C1013 0.930 . S
C1020 N1021 1.314 . S
C1020 C1022 1.353 1_545 S
C1020 H1026 0.930 . S
N1021 Li971 1.990 . S
N1021 C1020 1.314 . S
N1021 C1024 1.279 . S
C1022 C1020 1.353 1_565 S
C1022 C1025 1.367 1_565 S
C1022 H1054 0.929 . S
C1023 C1024 1.358 . S
C1023 C1025 1.362 . S
C1023 H1055 0.930 . S
C1024 N1021 1.279 . S
C1024 C1023 1.358 . S
C1024 H1027 0.930 . S
C1025 C1022 1.367 1_545 S
C1025 C1023 1.362 . S
H1026 C1020 0.930 . S
H1027 C1024 0.930 . S
O1028 Li968 1.956 . S
O1028 Li969 1.970 . S
O1028 Li970 1.961 . S
O1028 C972 1.325 . S
O1029 Li968 1.970 . S
O1029 Li969 1.956 . S
O1029 Li971 1.961 . S
O1029 C978 1.325 1_545 S
O1030 Li968 1.961 . S
O1030 Li970 1.956 . S
O1030 Li971 1.970 . S
O1030 C1000 1.325 . S
O1031 Li969 1.961 . S
O1031 Li970 1.970 . S
O1031 Li971 1.956 . S
O1031 C1006 1.325 . S
H1032 C974 0.929 . S
H1033 C975 0.930 . S
H1034 C976 0.930 . S
H1035 C977 0.930 . S
H1036 C979 0.930 . S
H1037 C981 0.880 1_545 S
H1038 C982 0.930 . S
H1039 C983 0.930 . S
H1040 C986 0.930 . S
H1041 C989 0.929 . S
H1042 C994 0.929 . S
H1043 C995 0.930 . S
H1044 C1002 0.929 . S
H1045 C1003 0.930 . S
H1046 C1004 0.930 . S
H1047 C1005 0.930 . S
H1048 C1007 0.929 . S
H1049 C1008 0.930 . S
H1050 C1009 0.930 . S
H1051 C1010 0.930 . S
H1052 C1014 0.929 . S
H1053 C1016 0.930 . S
H1054 C1022 0.929 . S
H1055 C1023 0.930 . S
H1056 C1068 0.930 . S
H1057 C1070 0.930 . S
H1058 C1071 0.930 . S
H1059 C1075 0.959 . S
H1060 C1075 0.959 . S
H1061 C1075 0.961 . S
H1062 C1076 0.960 . S
H1063 C1076 0.961 . S
H1064 C1076 0.959 . S
H1065 C1079 0.929 . S
H1066 C1080 0.931 . S
H1067 C1082 0.930 . S
C1068 H1056 0.930 . S
C1068 C1069 1.399 . S
C1068 C1073 1.399 . S
C1069 C1068 1.399 . S
C1069 C1070 1.376 . S
C1070 H1057 0.930 . S
C1070 C1069 1.376 . S
C1070 C1071 1.388 . S
C1071 H1058 0.930 . S
C1071 C1070 1.388 . S
C1071 C1072 1.390 . S
C1072 C1071 1.390 . S
C1072 C1073 1.394 . S
C1072 C1078 1.465 . S
C1073 C1068 1.399 . S
C1073 C1072 1.394 . S
C1073 C1074 1.516 . S
C1074 C1073 1.516 . S
C1074 C1075 1.502 . S
C1074 C1076 1.561 . S
C1074 C1077 1.526 . S
C1075 H1059 0.959 . S
C1075 H1060 0.959 . S
C1075 H1061 0.961 . S
C1075 C1074 1.502 . S
C1076 H1062 0.960 . S
C1076 H1063 0.961 . S
C1076 H1064 0.959 . S
C1076 C1074 1.561 . S
C1077 C1074 1.526 . S
C1077 C1078 1.396 . S
C1077 C1082 1.390 . S
C1078 C1072 1.465 . S
C1078 C1077 1.396 . S
C1078 C1079 1.399 . S
C1079 H1065 0.929 . S
C1079 C1078 1.399 . S
C1079 C1080 1.385 . S
C1080 H1066 0.931 . S
C1080 C1079 1.385 . S
C1080 C1081 1.389 . S
C1081 C1080 1.389 . S
C1081 C1082 1.387 . S
C1082 H1067 0.930 . S
C1082 C1077 1.390 . S
C1082 C1081 1.387 . S
H1083 C1095 0.930 . S
H1084 C1097 0.930 . S
H1085 C1098 0.930 . S
H1086 C1102 0.959 . S
H1087 C1102 0.959 . S
H1088 C1102 0.961 . S
H1089 C1103 0.960 . S
H1090 C1103 0.961 . S
H1091 C1103 0.959 1_455 S
H1092 C1106 0.929 . S
H1093 C1107 0.931 . S
H1094 C1109 0.930 . S
C1095 H1083 0.930 . S
C1095 C1096 1.399 1_655 S
C1095 C1100 1.399 . S
C1096 C1095 1.399 1_455 S
C1096 C1097 1.376 . S
C1097 H1084 0.930 . S
C1097 C1096 1.376 . S
C1097 C1098 1.388 . S
C1098 H1085 0.930 . S
C1098 C1097 1.388 . S
C1098 C1099 1.390 . S
C1099 C1098 1.390 . S
C1099 C1100 1.394 1_455 S
C1099 C1105 1.465 . S
C1100 C1095 1.399 . S
C1100 C1099 1.394 1_655 S
C1100 C1101 1.516 . S
C1101 C1100 1.516 . S
C1101 C1102 1.502 . S
C1101 C1103 1.561 . S
C1101 C1104 1.526 . S
C1102 H1086 0.959 . S
C1102 H1087 0.959 . S
C1102 H1088 0.961 . S
C1102 C1101 1.502 . S
C1103 H1089 0.960 . S
C1103 H1090 0.961 . S
C1103 H1091 0.959 1_655 S
C1103 C1101 1.561 . S
C1104 C1101 1.526 . S
C1104 C1105 1.396 1_655 S
C1104 C1109 1.390 . S
C1105 C1099 1.465 . S
C1105 C1104 1.396 1_455 S
C1105 C1106 1.399 . S
C1106 H1092 0.929 . S
C1106 C1105 1.399 . S
C1106 C1107 1.385 . S
C1107 H1093 0.931 . S
C1107 C1106 1.385 . S
C1107 C1108 1.389 1_455 S
C1108 C1107 1.389 1_655 S
C1108 C1109 1.387 . S
C1109 H1094 0.930 . S
C1109 C1104 1.390 . S
C1109 C1108 1.387 . S
H1110 C1122 0.930 . S
H1111 C1124 0.930 . S
H1112 C1125 0.930 . S
H1113 C1129 0.959 . S
H1114 C1129 0.959 . S
H1115 C1129 0.961 1_556 S
H1116 C1130 0.960 1_556 S
H1117 C1130 0.961 . S
H1118 C1130 0.959 . S
H1119 C1133 0.929 . S
H1120 C1134 0.931 . S
H1121 C1136 0.930 . S
C1122 H1110 0.930 . S
C1122 C1123 1.399 . S
C1122 C1127 1.399 . S
C1123 C1122 1.399 . S
C1123 C1124 1.376 1_545 S
C1124 H1111 0.930 . S
C1124 C1123 1.376 1_565 S
C1124 C1125 1.388 . S
C1125 H1112 0.930 . S
C1125 C1124 1.388 . S
C1125 C1126 1.390 . S
C1126 C1125 1.390 . S
C1126 C1127 1.394 1_565 S
C1126 C1132 1.465 1_556 S
C1127 C1122 1.399 . S
C1127 C1126 1.394 1_545 S
C1127 C1128 1.516 1_556 S
C1128 C1127 1.516 1_554 S
C1128 C1129 1.502 . S
C1128 C1130 1.561 . S
C1128 C1131 1.526 . S
C1129 H1113 0.959 . S
C1129 H1114 0.959 . S
C1129 H1115 0.961 1_554 S
C1129 C1128 1.502 . S
C1130 H1116 0.960 1_554 S
C1130 H1117 0.961 . S
C1130 H1118 0.959 . S
C1130 C1128 1.561 . S
C1131 C1128 1.526 . S
C1131 C1132 1.396 1_545 S
C1131 C1136 1.390 . S
C1132 C1126 1.465 1_554 S
C1132 C1131 1.396 1_565 S
C1132 C1133 1.399 . S
C1133 H1119 0.929 . S
C1133 C1132 1.399 . S
C1133 C1134 1.385 . S
C1134 H1120 0.931 . S
C1134 C1133 1.385 . S
C1134 C1135 1.389 . S
C1135 C1134 1.389 . S
C1135 C1136 1.387 1_565 S
C1136 H1121 0.930 . S
C1136 C1131 1.390 . S
C1136 C1135 1.387 1_545 S
H1137 C1149 0.930 . S
H1138 C1151 0.930 . S
H1139 C1152 0.930 . S
H1140 C1156 0.959 . S
H1141 C1156 0.959 . S
H1142 C1156 0.961 . S
H1143 C1157 0.960 . S
H1144 C1157 0.961 . S
H1145 C1157 0.959 . S
H1146 C1160 0.929 . S
H1147 C1161 0.931 . S
H1148 C1163 0.930 . S
C1149 H1137 0.930 . S
C1149 C1150 1.399 . S
C1149 C1154 1.399 . S
C1150 C1149 1.399 . S
C1150 C1151 1.376 . S
C1151 H1138 0.930 . S
C1151 C1150 1.376 . S
C1151 C1152 1.388 . S
C1152 H1139 0.930 . S
C1152 C1151 1.388 . S
C1152 C1153 1.390 . S
C1153 C1152 1.390 . S
C1153 C1154 1.394 . S
C1153 C1159 1.465 . S
C1154 C1149 1.399 . S
C1154 C1153 1.394 . S
C1154 C1155 1.516 . S
C1155 C1154 1.516 . S
C1155 C1156 1.502 . S
C1155 C1157 1.561 . S
C1155 C1158 1.526 . S
C1156 H1140 0.959 . S
C1156 H1141 0.959 . S
C1156 H1142 0.961 . S
C1156 C1155 1.502 . S
C1157 H1143 0.960 . S
C1157 H1144 0.961 . S
C1157 H1145 0.959 . S
C1157 C1155 1.561 . S
C1158 C1155 1.526 . S
C1158 C1159 1.396 . S
C1158 C1163 1.390 . S
C1159 C1153 1.465 . S
C1159 C1158 1.396 . S
C1159 C1160 1.399 . S
C1160 H1146 0.929 . S
C1160 C1159 1.399 . S
C1160 C1161 1.385 . S
C1161 H1147 0.931 . S
C1161 C1160 1.385 . S
C1161 C1162 1.389 . S
C1162 C1161 1.389 . S
C1162 C1163 1.387 . S
C1163 H1148 0.930 . S
C1163 C1158 1.390 . S
C1163 C1162 1.387 . S
H1164 C1176 0.947 . S
H1165 C1178 0.930 . S
H1166 C1179 0.930 . S
H1167 C1183 0.959 . S
H1168 C1183 0.959 . S
H1169 C1183 0.961 . S
H1170 C1184 0.960 . S
H1171 C1184 0.961 . S
H1172 C1184 0.959 . S
H1173 C1187 0.931 1_455 S
H1174 C1188 0.952 1_455 S
H1175 C1190 0.930 . S
C1176 H1164 0.947 . S
C1176 C1177 1.403 1_655 S
C1176 C1181 1.401 . S
C1177 C1176 1.403 1_455 S
C1177 C1178 1.376 . S
C1178 H1165 0.930 . S
C1178 C1177 1.376 . S
C1178 C1179 1.388 . S
C1179 H1166 0.930 . S
C1179 C1178 1.388 . S
C1179 C1180 1.400 1_455 S
C1180 C1179 1.400 1_655 S
C1180 C1181 1.380 . S
C1180 C1186 1.467 . S
C1181 C1176 1.401 . S
C1181 C1180 1.380 . S
C1181 C1182 1.516 . S
C1182 C1181 1.516 . S
C1182 C1183 1.502 1_655 S
C1182 C1184 1.561 . S
C1182 C1185 1.526 . S
C1183 H1167 0.959 . S
C1183 H1168 0.959 . S
C1183 H1169 0.961 . S
C1183 C1182 1.502 1_455 S
C1184 H1170 0.960 . S
C1184 H1171 0.961 . S
C1184 H1172 0.959 . S
C1184 C1182 1.561 . S
C1185 C1182 1.526 . S
C1185 C1186 1.396 . S
C1185 C1190 1.390 . S
C1186 C1180 1.467 . S
C1186 C1185 1.396 . S
C1186 C1187 1.397 . S
C1187 H1173 0.931 1_655 S
C1187 C1186 1.397 . S
C1187 C1188 1.390 . S
C1188 H1174 0.952 1_655 S
C1188 C1187 1.390 . S
C1188 C1189 1.370 . S
C1189 C1188 1.370 . S
C1189 C1190 1.387 . S
C1190 H1175 0.930 . S
C1190 C1185 1.390 . S
C1190 C1189 1.387 . S
H1191 C1203 0.930 . S
H1192 C1205 0.930 . S
H1193 C1206 0.930 . S
H1194 C1210 0.956 1_556 S
H1195 C1210 0.959 1_556 S
H1196 C1210 0.961 . S
H1197 C1211 0.960 . S
H1198 C1211 0.961 1_556 S
H1199 C1211 0.959 . S
H1200 C1214 0.929 . S
H1201 C1215 0.931 . S
H1202 C1217 0.930 . S
C1203 H1191 0.930 . S
C1203 C1204 1.399 1_565 S
C1203 C1208 1.399 . S
C1204 C1203 1.399 1_545 S
C1204 C1205 1.376 . S
C1205 H1192 0.930 . S
C1205 C1204 1.376 . S
C1205 C1206 1.388 . S
C1206 H1193 0.930 . S
C1206 C1205 1.388 . S
C1206 C1207 1.390 . S
C1207 C1206 1.390 . S
C1207 C1208 1.394 1_545 S
C1207 C1213 1.465 1_554 S
C1208 C1203 1.399 . S
C1208 C1207 1.394 1_565 S
C1208 C1209 1.516 . S
C1209 C1208 1.516 . S
C1209 C1210 1.502 . S
C1209 C1211 1.561 . S
C1209 C1212 1.526 1_554 S
C1210 H1194 0.956 1_554 S
C1210 H1195 0.959 1_554 S
C1210 H1196 0.961 . S
C1210 C1209 1.502 . S
C1211 H1197 0.960 . S
C1211 H1198 0.961 1_554 S
C1211 H1199 0.959 . S
C1211 C1209 1.561 . S
C1212 C1209 1.526 1_556 S
C1212 C1213 1.396 1_565 S
C1212 C1217 1.390 . S
C1213 C1207 1.465 1_556 S
C1213 C1212 1.396 1_545 S
C1213 C1214 1.399 . S
C1214 H1200 0.929 . S
C1214 C1213 1.399 . S
C1214 C1215 1.385 . S
C1215 H1201 0.931 . S
C1215 C1214 1.385 . S
C1215 C1216 1.329 1_545 S
C1216 C1215 1.329 1_565 S
C1216 C1217 1.433 . S
C1217 H1202 0.930 . S
C1217 C1212 1.390 . S
C1217 C1216 1.433 . S
H1218 C1230 0.930 . S
H1219 C1232 0.930 . S
H1220 C1233 0.930 . S
H1221 C1237 0.959 . S
H1222 C1237 0.959 . S
H1223 C1237 0.961 . S
H1224 C1238 0.960 . S
H1225 C1238 0.961 . S
H1226 C1238 0.959 . S
H1227 C1241 0.929 1_556 S
H1228 C1242 0.931 . S
H1229 C1244 0.930 . S
C1230 H1218 0.930 . S
C1230 C1231 1.399 . S
C1230 C1235 1.399 . S
C1231 C1230 1.399 . S
C1231 C1232 1.376 . S
C1232 H1219 0.930 . S
C1232 C1231 1.376 . S
C1232 C1233 1.388 . S
C1233 H1220 0.930 . S
C1233 C1232 1.388 . S
C1233 C1234 1.390 . S
C1234 C1233 1.390 . S
C1234 C1235 1.394 . S
C1234 C1240 1.465 1_556 S
C1235 C1230 1.399 . S
C1235 C1234 1.394 . S
C1235 C1236 1.516 1_556 S
C1236 C1235 1.516 1_554 S
C1236 C1237 1.502 . S
C1236 C1238 1.561 1_554 S
C1236 C1239 1.526 . S
C1237 H1221 0.959 . S
C1237 H1222 0.959 . S
C1237 H1223 0.961 . S
C1237 C1236 1.502 . S
C1238 H1224 0.960 . S
C1238 H1225 0.961 . S
C1238 H1226 0.959 . S
C1238 C1236 1.561 1_556 S
C1239 C1236 1.526 . S
C1239 C1240 1.396 . S
C1239 C1244 1.390 . S
C1240 C1234 1.465 1_554 S
C1240 C1239 1.396 . S
C1240 C1241 1.399 . S
C1241 H1227 0.929 1_554 S
C1241 C1240 1.399 . S
C1241 C1242 1.385 . S
C1242 H1228 0.931 . S
C1242 C1241 1.385 . S
C1242 C1243 1.389 . S
C1243 C1242 1.389 . S
C1243 C1244 1.387 . S
C1244 H1229 0.930 . S
C1244 C1239 1.390 . S
C1244 C1243 1.387 . S
H1245 C1257 0.930 . S
H1246 C1259 0.930 . S
H1247 C1260 0.930 . S
H1248 C1264 0.959 . S
H1249 C1264 0.959 . S
H1250 C1264 0.961 . S
H1251 C1265 0.960 . S
H1252 C1265 0.961 . S
H1253 C1265 0.959 . S
H1254 C1268 0.929 . S
H1255 C1269 0.931 . S
H1256 C1271 0.930 . S
C1257 H1245 0.930 . S
C1257 C1258 1.399 . S
C1257 C1262 1.399 . S
C1258 C1257 1.399 . S
C1258 C1259 1.376 . S
C1259 H1246 0.930 . S
C1259 C1258 1.376 . S
C1259 C1260 1.388 . S
C1260 H1247 0.930 . S
C1260 C1259 1.388 . S
C1260 C1261 1.390 . S
C1261 C1260 1.390 . S
C1261 C1262 1.394 . S
C1261 C1267 1.465 . S
C1262 C1257 1.399 . S
C1262 C1261 1.394 . S
C1262 C1263 1.516 . S
C1263 C1262 1.516 . S
C1263 C1264 1.502 . S
C1263 C1265 1.561 . S
C1263 C1266 1.526 . S
C1264 H1248 0.959 . S
C1264 H1249 0.959 . S
C1264 H1250 0.961 . S
C1264 C1263 1.502 . S
C1265 H1251 0.960 . S
C1265 H1252 0.961 . S
C1265 H1253 0.959 . S
C1265 C1263 1.561 . S
C1266 C1263 1.526 . S
C1266 C1267 1.396 . S
C1266 C1271 1.390 . S
C1267 C1261 1.465 . S
C1267 C1266 1.396 . S
C1267 C1268 1.399 . S
C1268 H1254 0.929 . S
C1268 C1267 1.399 . S
C1268 C1269 1.385 . S
C1269 H1255 0.931 . S
C1269 C1268 1.385 . S
C1269 C1270 1.389 . S
C1270 C1269 1.389 . S
C1270 C1271 1.387 . S
C1271 H1256 0.930 . S
C1271 C1266 1.390 . S
C1271 C1270 1.387 . S
H1272 C1284 0.930 . S
H1273 C1286 0.930 . S
H1274 C1287 0.930 . S
H1275 C1291 0.959 . S
H1276 C1291 0.959 . S
H1277 C1291 0.961 . S
H1278 C1292 0.960 . S
H1279 C1292 0.961 . S
H1280 C1292 0.959 . S
H1281 C1295 0.929 . S
H1282 C1296 0.931 . S
H1283 C1298 0.930 . S
C1284 H1272 0.930 . S
C1284 C1285 1.399 . S
C1284 C1289 1.399 . S
C1285 C1284 1.399 . S
C1285 C1286 1.376 . S
C1286 H1273 0.930 . S
C1286 C1285 1.376 . S
C1286 C1287 1.388 . S
C1287 H1274 0.930 . S
C1287 C1286 1.388 . S
C1287 C1288 1.390 . S
C1288 C1287 1.390 . S
C1288 C1289 1.394 . S
C1288 C1294 1.465 . S
C1289 C1284 1.399 . S
C1289 C1288 1.394 . S
C1289 C1290 1.516 . S
C1290 C1289 1.516 . S
C1290 C1291 1.502 . S
C1290 C1292 1.561 . S
C1290 C1293 1.526 . S
C1291 H1275 0.959 . S
C1291 H1276 0.959 . S
C1291 H1277 0.961 . S
C1291 C1290 1.502 . S
C1292 H1278 0.960 . S
C1292 H1279 0.961 . S
C1292 H1280 0.959 . S
C1292 C1290 1.561 . S
C1293 C1290 1.526 . S
C1293 C1294 1.396 . S
C1293 C1298 1.390 . S
C1294 C1288 1.465 . S
C1294 C1293 1.396 . S
C1294 C1295 1.399 . S
C1295 H1281 0.929 . S
C1295 C1294 1.399 . S
C1295 C1296 1.385 . S
C1296 H1282 0.931 . S
C1296 C1295 1.385 . S
C1296 C1297 1.389 . S
C1297 C1296 1.389 . S
C1297 C1298 1.387 . S
C1298 H1283 0.930 . S
C1298 C1293 1.390 . S
C1298 C1297 1.387 . S
H1299 C1311 0.930 . S
H1300 C1313 0.930 . S
H1301 C1314 0.930 . S
H1302 C1318 0.959 . S
H1303 C1318 0.959 . S
H1304 C1318 0.961 . S
H1305 C1319 0.960 1_554 S
H1306 C1319 0.961 . S
H1307 C1319 0.959 . S
H1308 C1322 0.929 . S
H1309 C1323 0.931 . S
H1310 C1325 0.930 . S
C1311 H1299 0.930 . S
C1311 C1312 1.399 . S
C1311 C1316 1.399 . S
C1312 C1311 1.399 . S
C1312 C1313 1.376 . S
C1313 H1300 0.930 . S
C1313 C1312 1.376 . S
C1313 C1314 1.388 1_554 S
C1314 H1301 0.930 . S
C1314 C1313 1.388 1_556 S
C1314 C1315 1.390 . S
C1315 C1314 1.390 . S
C1315 C1316 1.394 1_556 S
C1315 C1321 1.465 . S
C1316 C1311 1.399 . S
C1316 C1315 1.394 1_554 S
C1316 C1317 1.516 . S
C1317 C1316 1.516 . S
C1317 C1318 1.502 . S
C1317 C1319 1.561 1_554 S
C1317 C1320 1.526 1_554 S
C1318 H1302 0.959 . S
C1318 H1303 0.959 . S
C1318 H1304 0.961 . S
C1318 C1317 1.502 . S
C1319 H1305 0.960 1_556 S
C1319 H1306 0.961 . S
C1319 H1307 0.959 . S
C1319 C1317 1.561 1_556 S
C1320 C1317 1.526 1_556 S
C1320 C1321 1.396 . S
C1320 C1325 1.390 . S
C1321 C1315 1.465 . S
C1321 C1320 1.396 . S
C1321 C1322 1.399 . S
C1322 H1308 0.929 . S
C1322 C1321 1.399 . S
C1322 C1323 1.385 . S
C1323 H1309 0.931 . S
C1323 C1322 1.385 . S
C1323 C1324 1.389 . S
C1324 C1323 1.389 . S
C1324 C1325 1.387 . S
C1325 H1310 0.930 . S
C1325 C1320 1.390 . S
C1325 C1324 1.387 . S
H1326 C1338 0.930 . S
H1327 C1340 0.930 . S
H1328 C1341 0.930 . S
H1329 C1345 0.959 . S
H1330 C1345 0.959 . S
H1331 C1345 0.961 . S
H1332 C1346 0.960 . S
H1333 C1346 0.961 . S
H1334 C1346 0.959 . S
H1335 C1349 0.929 . S
H1336 C1350 0.931 . S
H1337 C1352 0.930 . S
C1338 H1326 0.930 . S
C1338 C1339 1.399 . S
C1338 C1343 1.399 . S
C1339 C1338 1.399 . S
C1339 C1340 1.376 . S
C1340 H1327 0.930 . S
C1340 C1339 1.376 . S
C1340 C1341 1.388 . S
C1341 H1328 0.930 . S
C1341 C1340 1.388 . S
C1341 C1342 1.390 . S
C1342 C1341 1.390 . S
C1342 C1343 1.394 . S
C1342 C1348 1.465 . S
C1343 C1338 1.399 . S
C1343 C1342 1.394 . S
C1343 C1344 1.516 . S
C1344 C1343 1.516 . S
C1344 C1345 1.502 . S
C1344 C1346 1.561 . S
C1344 C1347 1.526 . S
C1345 H1329 0.959 . S
C1345 H1330 0.959 . S
C1345 H1331 0.961 . S
C1345 C1344 1.502 . S
C1346 H1332 0.960 . S
C1346 H1333 0.961 . S
C1346 H1334 0.959 . S
C1346 C1344 1.561 . S
C1347 C1344 1.526 . S
C1347 C1348 1.396 . S
C1347 C1352 1.390 . S
C1348 C1342 1.465 . S
C1348 C1347 1.396 . S
C1348 C1349 1.399 . S
C1349 H1335 0.929 . S
C1349 C1348 1.399 . S
C1349 C1350 1.385 . S
C1350 H1336 0.931 . S
C1350 C1349 1.385 . S
C1350 C1351 1.389 . S
C1351 C1350 1.389 . S
C1351 C1352 1.387 . S
C1352 H1337 0.930 . S
C1352 C1347 1.390 . S
C1352 C1351 1.387 . S
H1353 C1365 0.930 . S
H1354 C1367 0.930 . S
H1355 C1368 0.930 . S
H1356 C1372 0.959 . S
H1357 C1372 0.959 . S
H1358 C1372 0.961 . S
H1359 C1373 0.960 . S
H1360 C1373 0.961 . S
H1361 C1373 0.959 . S
H1362 C1376 0.929 . S
H1363 C1377 0.931 . S
H1364 C1379 0.930 . S
C1365 H1353 0.930 . S
C1365 C1366 1.399 . S
C1365 C1370 1.399 . S
C1366 C1365 1.399 . S
C1366 C1367 1.376 . S
C1367 H1354 0.930 . S
C1367 C1366 1.376 . S
C1367 C1368 1.388 . S
C1368 H1355 0.930 . S
C1368 C1367 1.388 . S
C1368 C1369 1.390 . S
C1369 C1368 1.390 . S
C1369 C1370 1.394 . S
C1369 C1375 1.465 . S
C1370 C1365 1.399 . S
C1370 C1369 1.394 . S
C1370 C1371 1.516 . S
C1371 C1370 1.516 . S
C1371 C1372 1.502 . S
C1371 C1373 1.561 . S
C1371 C1374 1.526 . S
C1372 H1356 0.959 . S
C1372 H1357 0.959 . S
C1372 H1358 0.961 . S
C1372 C1371 1.502 . S
C1373 H1359 0.960 . S
C1373 H1360 0.961 . S
C1373 H1361 0.959 . S
C1373 C1371 1.561 . S
C1374 C1371 1.526 . S
C1374 C1375 1.396 . S
C1374 C1379 1.390 . S
C1375 C1369 1.465 . S
C1375 C1374 1.396 . S
C1375 C1376 1.399 . S
C1376 H1362 0.929 . S
C1376 C1375 1.399 . S
C1376 C1377 1.385 . S
C1377 H1363 0.931 . S
C1377 C1376 1.385 . S
C1377 C1378 1.389 . S
C1378 C1377 1.389 . S
C1378 C1379 1.387 . S
C1379 H1364 0.930 . S
C1379 C1374 1.390 . S
C1379 C1378 1.387 . S
H1380 C1392 0.930 . S
H1381 C1394 0.930 . S
H1382 C1395 0.930 . S
H1383 C1399 0.959 . S
H1384 C1399 0.959 . S
H1385 C1399 0.961 . S
H1386 C1400 0.960 . S
H1387 C1400 0.961 . S
H1388 C1400 0.959 . S
H1389 C1403 0.929 . S
H1390 C1404 0.931 . S
H1391 C1406 0.930 . S
C1392 H1380 0.930 . S
C1392 C1393 1.399 . S
C1392 C1397 1.399 . S
C1393 C1392 1.399 . S
C1393 C1394 1.376 . S
C1394 H1381 0.930 . S
C1394 C1393 1.376 . S
C1394 C1395 1.388 . S
C1395 H1382 0.930 . S
C1395 C1394 1.388 . S
C1395 C1396 1.390 . S
C1396 C1395 1.390 . S
C1396 C1397 1.394 . S
C1396 C1402 1.465 . S
C1397 C1392 1.399 . S
C1397 C1396 1.394 . S
C1397 C1398 1.516 . S
C1398 C1397 1.516 . S
C1398 C1399 1.502 . S
C1398 C1400 1.561 . S
C1398 C1401 1.526 . S
C1399 H1383 0.959 . S
C1399 H1384 0.959 . S
C1399 H1385 0.961 . S
C1399 C1398 1.502 . S
C1400 H1386 0.960 . S
C1400 H1387 0.961 . S
C1400 H1388 0.959 . S
C1400 C1398 1.561 . S
C1401 C1398 1.526 . S
C1401 C1402 1.396 . S
C1401 C1406 1.390 . S
C1402 C1396 1.465 . S
C1402 C1401 1.396 . S
C1402 C1403 1.399 . S
C1403 H1389 0.929 . S
C1403 C1402 1.399 . S
C1403 C1404 1.385 . S
C1404 H1390 0.931 . S
C1404 C1403 1.385 . S
C1404 C1405 1.389 . S
C1405 C1404 1.389 . S
C1405 C1406 1.387 . S
C1406 H1391 0.930 . S
C1406 C1401 1.390 . S
C1406 C1405 1.387 . S
H1407 C1419 0.930 . S
H1408 C1421 0.930 . S
H1409 C1422 0.930 . S
H1410 C1426 0.959 . S
H1411 C1426 0.959 1_655 S
H1412 C1426 0.961 . S
H1413 C1427 0.960 . S
H1414 C1427 0.961 . S
H1415 C1427 0.959 . S
H1416 C1430 0.929 . S
H1417 C1431 0.931 . S
H1418 C1433 0.930 . S
C1419 H1407 0.930 . S
C1419 C1420 1.399 . S
C1419 C1424 1.399 . S
C1420 C1419 1.399 . S
C1420 C1421 1.376 . S
C1421 H1408 0.930 . S
C1421 C1420 1.376 . S
C1421 C1422 1.388 . S
C1422 H1409 0.930 . S
C1422 C1421 1.388 . S
C1422 C1423 1.390 . S
C1423 C1422 1.390 . S
C1423 C1424 1.394 . S
C1423 C1429 1.465 1_455 S
C1424 C1419 1.399 . S
C1424 C1423 1.394 . S
C1424 C1425 1.516 1_455 S
C1425 C1424 1.516 1_655 S
C1425 C1426 1.502 1_655 S
C1425 C1427 1.561 . S
C1425 C1428 1.526 . S
C1426 H1410 0.959 . S
C1426 H1411 0.959 1_455 S
C1426 H1412 0.961 . S
C1426 C1425 1.502 1_455 S
C1427 H1413 0.960 . S
C1427 H1414 0.961 . S
C1427 H1415 0.959 . S
C1427 C1425 1.561 . S
C1428 C1425 1.526 . S
C1428 C1429 1.396 . S
C1428 C1433 1.390 . S
C1429 C1423 1.465 1_655 S
C1429 C1428 1.396 . S
C1429 C1430 1.399 . S
C1430 H1416 0.929 . S
C1430 C1429 1.399 . S
C1430 C1431 1.385 . S
C1431 H1417 0.931 . S
C1431 C1430 1.385 . S
C1431 C1432 1.389 . S
C1432 C1431 1.389 . S
C1432 C1433 1.387 . S
C1433 H1418 0.930 . S
C1433 C1428 1.390 . S
C1433 C1432 1.387 . S
H1434 C1446 0.930 . S
H1435 C1448 0.930 . S
H1436 C1449 0.930 . S
H1437 C1453 0.959 . S
H1438 C1453 0.959 . S
H1439 C1453 0.961 . S
H1440 C1454 0.960 . S
H1441 C1454 0.961 . S
H1442 C1454 0.959 . S
H1443 C1457 0.929 . S
H1444 C1458 0.931 . S
H1445 C1460 0.930 1_545 S
C1446 H1434 0.930 . S
C1446 C1447 1.399 . S
C1446 C1451 1.399 . S
C1447 C1446 1.399 . S
C1447 C1448 1.376 1_545 S
C1448 H1435 0.930 . S
C1448 C1447 1.376 1_565 S
C1448 C1449 1.388 . S
C1449 H1436 0.930 . S
C1449 C1448 1.388 . S
C1449 C1450 1.390 . S
C1450 C1449 1.390 . S
C1450 C1451 1.394 1_565 S
C1450 C1456 1.465 . S
C1451 C1446 1.399 . S
C1451 C1450 1.394 1_545 S
C1451 C1452 1.516 . S
C1452 C1451 1.516 . S
C1452 C1453 1.502 . S
C1452 C1454 1.561 . S
C1452 C1455 1.526 . S
C1453 H1437 0.959 . S
C1453 H1438 0.959 . S
C1453 H1439 0.961 . S
C1453 C1452 1.502 . S
C1454 H1440 0.960 . S
C1454 H1441 0.961 . S
C1454 H1442 0.959 . S
C1454 C1452 1.561 . S
C1455 C1452 1.526 . S
C1455 C1456 1.396 1_545 S
C1455 C1460 1.390 1_545 S
C1456 C1450 1.465 . S
C1456 C1455 1.396 1_565 S
C1456 C1457 1.399 . S
C1457 H1443 0.929 . S
C1457 C1456 1.399 . S
C1457 C1458 1.385 . S
C1458 H1444 0.931 . S
C1458 C1457 1.385 . S
C1458 C1459 1.389 . S
C1459 C1458 1.389 . S
C1459 C1460 1.387 . S
C1460 H1445 0.930 1_565 S
C1460 C1455 1.390 1_565 S
C1460 C1459 1.387 . S
H1461 C1473 0.930 . S
H1462 C1475 0.930 . S
H1463 C1476 0.930 . S
H1464 C1480 0.959 . S
H1465 C1480 0.959 . S
H1466 C1480 0.961 . S
H1467 C1481 0.960 . S
H1468 C1481 0.961 . S
H1469 C1481 0.959 . S
H1470 C1484 0.929 . S
H1471 C1485 0.931 . S
H1472 C1487 0.930 . S
C1473 H1461 0.930 . S
C1473 C1474 1.399 . S
C1473 C1478 1.399 . S
C1474 C1473 1.399 . S
C1474 C1475 1.376 . S
C1475 H1462 0.930 . S
C1475 C1474 1.376 . S
C1475 C1476 1.388 . S
C1476 H1463 0.930 . S
C1476 C1475 1.388 . S
C1476 C1477 1.390 . S
C1477 C1476 1.390 . S
C1477 C1478 1.394 . S
C1477 C1483 1.465 . S
C1478 C1473 1.399 . S
C1478 C1477 1.394 . S
C1478 C1479 1.516 . S
C1479 C1478 1.516 . S
C1479 C1480 1.502 . S
C1479 C1481 1.561 . S
C1479 C1482 1.526 . S
C1480 H1464 0.959 . S
C1480 H1465 0.959 . S
C1480 H1466 0.961 . S
C1480 C1479 1.502 . S
C1481 H1467 0.960 . S
C1481 H1468 0.961 . S
C1481 H1469 0.959 . S
C1481 C1479 1.561 . S
C1482 C1479 1.526 . S
C1482 C1483 1.396 . S
C1482 C1487 1.390 . S
C1483 C1477 1.465 . S
C1483 C1482 1.396 . S
C1483 C1484 1.399 . S
C1484 H1470 0.929 . S
C1484 C1483 1.399 . S
C1484 C1485 1.385 . S
C1485 H1471 0.931 . S
C1485 C1484 1.385 . S
C1485 C1486 1.389 . S
C1486 C1485 1.389 . S
C1486 C1487 1.387 . S
C1487 H1472 0.930 . S
C1487 C1482 1.390 . S
C1487 C1486 1.387 . S
H1488 C1500 0.930 . S
H1489 C1502 0.930 . S
H1490 C1503 0.930 . S
H1491 C1507 0.974 . S
H1492 C1507 0.955 1_455 S
H1493 C1507 0.969 . S
H1494 C1508 0.960 . S
H1495 C1508 0.961 . S
H1496 C1508 0.959 . S
H1497 C1511 0.929 1_655 S
H1498 C1512 0.931 . S
H1499 C1514 0.930 . S
C1500 H1488 0.930 . S
C1500 C1501 1.399 . S
C1500 C1505 1.399 . S
C1501 C1500 1.399 . S
C1501 C1502 1.376 . S
C1502 H1489 0.930 . S
C1502 C1501 1.376 . S
C1502 C1503 1.388 . S
C1503 H1490 0.930 . S
C1503 C1502 1.388 . S
C1503 C1504 1.390 . S
C1504 C1503 1.390 . S
C1504 C1505 1.394 . S
C1504 C1510 1.465 1_655 S
C1505 C1500 1.399 . S
C1505 C1504 1.394 . S
C1505 C1506 1.516 1_655 S
C1506 C1505 1.516 1_455 S
C1506 C1507 1.485 1_455 S
C1506 C1508 1.561 . S
C1506 C1509 1.526 . S
C1507 H1491 0.974 . S
C1507 H1492 0.955 1_655 S
C1507 H1493 0.969 . S
C1507 C1506 1.485 1_655 S
C1508 H1494 0.960 . S
C1508 H1495 0.961 . S
C1508 H1496 0.959 . S
C1508 C1506 1.561 . S
C1509 C1506 1.526 . S
C1509 C1510 1.396 . S
C1509 C1514 1.390 . S
C1510 C1504 1.465 1_455 S
C1510 C1509 1.396 . S
C1510 C1511 1.399 . S
C1511 H1497 0.929 1_455 S
C1511 C1510 1.399 . S
C1511 C1512 1.385 . S
C1512 H1498 0.931 . S
C1512 C1511 1.385 . S
C1512 C1513 1.389 . S
C1513 C1512 1.389 . S
C1513 C1514 1.387 . S
C1514 H1499 0.930 . S
C1514 C1509 1.390 . S
C1514 C1513 1.387 . S
H1515 C1527 0.930 1_565 S
H1516 C1529 0.930 . S
H1517 C1530 0.930 . S
H1518 C1534 0.959 . S
H1519 C1534 0.959 . S
H1520 C1534 0.961 . S
H1521 C1535 0.960 . S
H1522 C1535 0.961 . S
H1523 C1535 0.959 . S
H1524 C1538 0.929 . S
H1525 C1539 0.931 . S
H1526 C1541 0.930 . S
C1527 H1515 0.930 1_545 S
C1527 C1528 1.399 . S
C1527 C1532 1.399 1_545 S
C1528 C1527 1.399 . S
C1528 C1529 1.376 . S
C1529 H1516 0.930 . S
C1529 C1528 1.376 . S
C1529 C1530 1.388 . S
C1530 H1517 0.930 . S
C1530 C1529 1.388 . S
C1530 C1531 1.390 . S
C1531 C1530 1.390 . S
C1531 C1532 1.394 1_545 S
C1531 C1537 1.465 . S
C1532 C1527 1.399 1_565 S
C1532 C1531 1.394 1_565 S
C1532 C1533 1.516 . S
C1533 C1532 1.516 . S
C1533 C1534 1.502 . S
C1533 C1535 1.561 . S
C1533 C1536 1.526 . S
C1534 H1518 0.959 . S
C1534 H1519 0.959 . S
C1534 H1520 0.961 . S
C1534 C1533 1.502 . S
C1535 H1521 0.960 . S
C1535 H1522 0.961 . S
C1535 H1523 0.959 . S
C1535 C1533 1.561 . S
C1536 C1533 1.526 . S
C1536 C1537 1.396 1_565 S
C1536 C1541 1.390 . S
C1537 C1531 1.465 . S
C1537 C1536 1.396 1_545 S
C1537 C1538 1.399 . S
C1538 H1524 0.929 . S
C1538 C1537 1.399 . S
C1538 C1539 1.385 . S
C1539 H1525 0.931 . S
C1539 C1538 1.385 . S
C1539 C1540 1.389 1_545 S
C1540 C1539 1.389 1_565 S
C1540 C1541 1.387 . S
C1541 H1526 0.930 . S
C1541 C1536 1.390 . S
C1541 C1540 1.387 . S
H1542 C1554 0.930 . S
H1543 C1556 0.930 . S
H1544 C1557 0.930 1_556 S
H1545 C1561 0.959 . S
H1546 C1561 0.959 . S
H1547 C1561 0.961 . S
H1548 C1562 0.960 . S
H1549 C1562 0.961 . S
H1550 C1562 0.959 . S
H1551 C1565 0.929 1_556 S
H1552 C1566 0.931 . S
H1553 C1568 0.930 . S
C1554 H1542 0.930 . S
C1554 C1555 1.399 . S
C1554 C1559 1.399 . S
C1555 C1554 1.399 . S
C1555 C1556 1.376 . S
C1556 H1543 0.930 . S
C1556 C1555 1.376 . S
C1556 C1557 1.388 . S
C1557 H1544 0.930 1_554 S
C1557 C1556 1.388 . S
C1557 C1558 1.390 . S
C1558 C1557 1.390 . S
C1558 C1559 1.394 . S
C1558 C1564 1.465 . S
C1559 C1554 1.399 . S
C1559 C1558 1.394 . S
C1559 C1560 1.516 . S
C1560 C1559 1.516 . S
C1560 C1561 1.502 . S
C1560 C1562 1.561 . S
C1560 C1563 1.526 . S
C1561 H1545 0.959 . S
C1561 H1546 0.959 . S
C1561 H1547 0.961 . S
C1561 C1560 1.502 . S
C1562 H1548 0.960 . S
C1562 H1549 0.961 . S
C1562 H1550 0.959 . S
C1562 C1560 1.561 . S
C1563 C1560 1.526 . S
C1563 C1564 1.396 . S
C1563 C1568 1.390 . S
C1564 C1558 1.465 . S
C1564 C1563 1.396 . S
C1564 C1565 1.399 . S
C1565 H1551 0.929 1_554 S
C1565 C1564 1.399 . S
C1565 C1566 1.385 . S
C1566 H1552 0.931 . S
C1566 C1565 1.385 . S
C1566 C1567 1.389 . S
C1567 C1566 1.389 . S
C1567 C1568 1.387 . S
C1568 H1553 0.930 . S
C1568 C1563 1.390 . S
C1568 C1567 1.387 . S
H1569 C1581 0.930 . S
H1570 C1583 0.930 . S
H1571 C1584 0.930 . S
H1572 C1588 0.959 . S
H1573 C1588 0.959 . S
H1574 C1588 0.961 . S
H1575 C1589 0.960 . S
H1576 C1589 0.961 1_655 S
H1577 C1589 0.959 . S
H1578 C1592 0.912 1_455 S
H1579 C1593 0.931 . S
H1580 C1595 0.930 . S
C1581 H1569 0.930 . S
C1581 C1582 1.399 . S
C1581 C1586 1.399 . S
C1582 C1581 1.399 . S
C1582 C1583 1.376 . S
C1583 H1570 0.930 . S
C1583 C1582 1.376 . S
C1583 C1584 1.388 . S
C1584 H1571 0.930 . S
C1584 C1583 1.388 . S
C1584 C1585 1.390 . S
C1585 C1584 1.390 . S
C1585 C1586 1.394 . S
C1585 C1591 1.465 1_455 S
C1586 C1581 1.399 . S
C1586 C1585 1.394 . S
C1586 C1587 1.516 1_455 S
C1587 C1586 1.516 1_655 S
C1587 C1588 1.502 . S
C1587 C1589 1.561 1_655 S
C1587 C1590 1.526 . S
C1588 H1572 0.959 . S
C1588 H1573 0.959 . S
C1588 H1574 0.961 . S
C1588 C1587 1.502 . S
C1589 H1575 0.960 . S
C1589 H1576 0.961 1_455 S
C1589 H1577 0.959 . S
C1589 C1587 1.561 1_455 S
C1590 C1587 1.526 . S
C1590 C1591 1.396 . S
C1590 C1595 1.390 . S
C1591 C1585 1.465 1_655 S
C1591 C1590 1.396 . S
C1591 C1592 1.399 . S
C1592 H1578 0.912 1_655 S
C1592 C1591 1.399 . S
C1592 C1593 1.385 . S
C1593 H1579 0.931 . S
C1593 C1592 1.385 . S
C1593 C1594 1.389 . S
C1594 C1593 1.389 . S
C1594 C1595 1.387 . S
C1595 H1580 0.930 . S
C1595 C1590 1.390 . S
C1595 C1594 1.387 . S
H1596 C1608 0.930 . S
H1597 C1610 0.930 . S
H1598 C1611 0.930 . S
H1599 C1615 0.959 . S
H1600 C1615 0.959 . S
H1601 C1615 0.961 . S
H1602 C1616 0.960 . S
H1603 C1616 0.961 . S
H1604 C1616 0.941 1_545 S
H1605 C1619 0.929 . S
H1606 C1620 0.931 . S
H1607 C1622 0.930 . S
C1608 H1596 0.930 . S
C1608 C1609 1.399 . S
C1608 C1613 1.399 . S
C1609 C1608 1.399 . S
C1609 C1610 1.376 . S
C1610 H1597 0.930 . S
C1610 C1609 1.376 . S
C1610 C1611 1.388 1_565 S
C1611 H1598 0.930 . S
C1611 C1610 1.388 1_545 S
C1611 C1612 1.378 . S
C1612 C1611 1.378 . S
C1612 C1613 1.376 1_545 S
C1612 C1618 1.494 . S
C1613 C1608 1.399 . S
C1613 C1612 1.376 1_565 S
C1613 C1614 1.516 . S
C1614 C1613 1.516 . S
C1614 C1615 1.502 . S
C1614 C1616 1.561 . S
C1614 C1617 1.526 1_565 S
C1615 H1599 0.959 . S
C1615 H1600 0.959 . S
C1615 H1601 0.961 . S
C1615 C1614 1.502 . S
C1616 H1602 0.960 . S
C1616 H1603 0.961 . S
C1616 H1604 0.941 1_565 S
C1616 C1614 1.561 . S
C1617 C1614 1.526 1_545 S
C1617 C1618 1.396 . S
C1617 C1622 1.390 . S
C1618 C1612 1.494 . S
C1618 C1617 1.396 . S
C1618 C1619 1.399 . S
C1619 H1605 0.929 . S
C1619 C1618 1.399 . S
C1619 C1620 1.385 . S
C1620 H1606 0.931 . S
C1620 C1619 1.385 . S
C1620 C1621 1.389 . S
C1621 C1620 1.389 . S
C1621 C1622 1.387 . S
C1622 H1607 0.930 . S
C1622 C1617 1.390 . S
C1622 C1621 1.387 . S
H1623 C1635 0.930 . S
H1624 C1637 0.930 . S
H1625 C1638 0.930 . S
H1626 C1642 0.959 . S
H1627 C1642 0.959 . S
H1628 C1642 0.961 . S
H1629 C1643 0.960 . S
H1630 C1643 0.961 . S
H1631 C1643 0.959 . S
H1632 C1646 0.929 . S
H1633 C1647 0.931 . S
H1634 C1649 0.930 . S
C1635 H1623 0.930 . S
C1635 C1636 1.399 . S
C1635 C1640 1.399 . S
C1636 C1635 1.399 . S
C1636 C1637 1.376 . S
C1637 H1624 0.930 . S
C1637 C1636 1.376 . S
C1637 C1638 1.388 . S
C1638 H1625 0.930 . S
C1638 C1637 1.388 . S
C1638 C1639 1.390 . S
C1639 C1638 1.390 . S
C1639 C1640 1.394 . S
C1639 C1645 1.465 . S
C1640 C1635 1.399 . S
C1640 C1639 1.394 . S
C1640 C1641 1.516 . S
C1641 C1640 1.516 . S
C1641 C1642 1.502 . S
C1641 C1643 1.561 . S
C1641 C1644 1.526 . S
C1642 H1626 0.959 . S
C1642 H1627 0.959 . S
C1642 H1628 0.961 . S
C1642 C1641 1.502 . S
C1643 H1629 0.960 . S
C1643 H1630 0.961 . S
C1643 H1631 0.959 . S
C1643 C1641 1.561 . S
C1644 C1641 1.526 . S
C1644 C1645 1.396 . S
C1644 C1649 1.390 . S
C1645 C1639 1.465 . S
C1645 C1644 1.396 . S
C1645 C1646 1.399 . S
C1646 H1632 0.929 . S
C1646 C1645 1.399 . S
C1646 C1647 1.385 . S
C1647 H1633 0.931 . S
C1647 C1646 1.385 . S
C1647 C1648 1.389 . S
C1648 C1647 1.389 . S
C1648 C1649 1.387 . S
C1649 H1634 0.930 . S
C1649 C1644 1.390 . S
C1649 C1648 1.387 . S
H1650 C1662 0.930 . S
H1651 C1664 0.930 . S
H1652 C1665 0.930 1_455 S
H1653 C1669 0.959 . S
H1654 C1669 0.959 . S
H1655 C1669 0.961 . S
H1656 C1670 0.960 . S
H1657 C1670 0.995 . S
H1658 C1670 0.959 1_455 S
H1659 C1673 0.929 . S
H1660 C1674 0.931 . S
H1661 C1676 0.930 . S
C1662 H1650 0.930 . S
C1662 C1663 1.399 . S
C1662 C1667 1.399 . S
C1663 C1662 1.399 . S
C1663 C1664 1.376 . S
C1664 H1651 0.930 . S
C1664 C1663 1.376 . S
C1664 C1665 1.388 . S
C1665 H1652 0.930 1_655 S
C1665 C1664 1.388 . S
C1665 C1666 1.402 . S
C1666 C1665 1.402 . S
C1666 C1667 1.408 . S
C1666 C1672 1.439 1_655 S
C1667 C1662 1.399 . S
C1667 C1666 1.408 . S
C1667 C1668 1.516 . S
C1668 C1667 1.516 . S
C1668 C1669 1.502 . S
C1668 C1670 1.561 . S
C1668 C1671 1.526 1_655 S
C1669 H1653 0.959 . S
C1669 H1654 0.959 . S
C1669 H1655 0.961 . S
C1669 C1668 1.502 . S
C1670 H1656 0.960 . S
C1670 H1657 0.995 . S
C1670 H1658 0.959 1_655 S
C1670 C1668 1.561 . S
C1671 C1668 1.526 1_455 S
C1671 C1672 1.396 . S
C1671 C1676 1.390 . S
C1672 C1666 1.439 1_455 S
C1672 C1671 1.396 . S
C1672 C1673 1.399 . S
C1673 H1659 0.929 . S
C1673 C1672 1.399 . S
C1673 C1674 1.385 . S
C1674 H1660 0.931 . S
C1674 C1673 1.385 . S
C1674 C1675 1.389 . S
C1675 C1674 1.389 . S
C1675 C1676 1.387 . S
C1676 H1661 0.930 . S
C1676 C1671 1.390 . S
C1676 C1675 1.387 . S
H1677 C1689 0.930 . S
H1678 C1691 0.930 . S
H1679 C1692 0.911 1_565 S
H1680 C1696 0.959 . S
H1681 C1696 0.959 . S
H1682 C1696 0.961 . S
H1683 C1697 0.960 1_545 S
H1684 C1697 0.961 . S
H1685 C1697 0.959 . S
H1686 C1700 0.929 . S
H1687 C1701 0.931 . S
H1688 C1703 0.930 . S
C1689 H1677 0.930 . S
C1689 C1690 1.399 . S
C1689 C1694 1.399 . S
C1690 C1689 1.399 . S
C1690 C1691 1.376 . S
C1691 H1678 0.930 . S
C1691 C1690 1.376 . S
C1691 C1692 1.388 . S
C1692 H1679 0.911 1_545 S
C1692 C1691 1.388 . S
C1692 C1693 1.390 . S
C1693 C1692 1.390 . S
C1693 C1694 1.394 . S
C1693 C1699 1.465 1_545 S
C1694 C1689 1.399 . S
C1694 C1693 1.394 . S
C1694 C1695 1.516 . S
C1695 C1694 1.516 . S
C1695 C1696 1.502 . S
C1695 C1697 1.561 1_545 S
C1695 C1698 1.526 1_545 S
C1696 H1680 0.959 . S
C1696 H1681 0.959 . S
C1696 H1682 0.961 . S
C1696 C1695 1.502 . S
C1697 H1683 0.960 1_565 S
C1697 H1684 0.961 . S
C1697 H1685 0.959 . S
C1697 C1695 1.561 1_565 S
C1698 C1695 1.526 1_565 S
C1698 C1699 1.396 . S
C1698 C1703 1.390 . S
C1699 C1693 1.465 1_565 S
C1699 C1698 1.396 . S
C1699 C1700 1.399 . S
C1700 H1686 0.929 . S
C1700 C1699 1.399 . S
C1700 C1701 1.385 . S
C1701 H1687 0.931 . S
C1701 C1700 1.385 . S
C1701 C1702 1.389 . S
C1702 C1701 1.389 . S
C1702 C1703 1.387 . S
C1703 H1688 0.930 . S
C1703 C1698 1.390 . S
C1703 C1702 1.387 . S
C1069 C29 1.578 . S
C1081 C841 1.561 . S
C1096 C108 1.593 1_455 S
C1108 C937 1.548 1_655 S
C1123 C196 1.547 1_545 S
C1135 C1025 1.593 1_565 S
C1150 C284 1.598 . S
C1162 C577 1.602 . S
C1177 C673 1.596 1_455 S
C1189 C381 1.594 1_655 S
C1204 C753 1.606 1_545 S
C1216 C469 1.577 1_565 S
C1231 C929 1.318 . S
C1243 C20 1.291 . S
C1258 C117 1.301 . S
C1270 C1017 1.263 . S
C1285 C205 1.319 . S
C1297 C585 1.265 . S
C1312 C293 1.262 . S
C1324 C665 1.299 . S
C1339 C372 1.261 . S
C1351 C761 1.304 . S
C1366 C460 1.303 . S
C1378 C849 1.262 . S
C1393 C812 0.732 . S
C1405 C57 0.762 . S
C1420 C137 0.734 . S
C1432 C909 0.759 . S
C1447 C225 0.725 . S
C1459 C997 0.908 . S
C1474 C548 0.876 . S
C1486 C313 0.844 . S
C1501 C409 0.749 . S
C1513 C645 0.744 . S
C1528 C724 0.867 . S
C1540 C497 0.685 . S
C1555 C49 1.623 . S
C1567 C321 1.662 . S
C1582 C401 1.681 . S
C1594 C145 1.631 . S
C1609 C233 1.608 . S
C1621 C489 1.684 . S
C1636 C557 1.617 . S
C1648 C821 1.669 . S
C1663 C636 1.611 . S
C1675 C900 1.678 . S
C1690 C988 1.618 . S
C1702 C733 1.668 . S
