# Generated by pormake.
# Topology snz, (6)-cn, num edge types: 1
# Building blocks:
#     Node 0, Type 0, BuildingBlock: BETFEN_clean_sbu_0, # of connection points: 6
#     Node 1, Type 0, BuildingBlock: BETFEN_clean_sbu_0, # of connection points: 6
#     Node 2, Type 0, BuildingBlock: BETFEN_clean_sbu_0, # of connection points: 6
#     Node 3, Type 0, BuildingBlock: BETFEN_clean_sbu_0, # of connection points: 6
#     Node 4, Type 0, BuildingBlock: BETFEN_clean_sbu_0, # of connection points: 6
#     Node 5, Type 0, BuildingBlock: BETFEN_clean_sbu_0, # of connection points: 6
#     Node 6, Type 0, BuildingBlock: BETFEN_clean_sbu_0, # of connection points: 6
#     Node 7, Type 0, BuildingBlock: BETFEN_clean_sbu_0, # of connection points: 6
#     Node 8, Type 0, BuildingBlock: BETFEN_clean_sbu_0, # of connection points: 6
#     Edge 9, Type (0, 0), BuildingBlock: XUDNAN_clean_linker_2, # of connection points: 2
#     Edge 10, Type (0, 0), BuildingBlock: XUDNAN_clean_linker_2, # of connection points: 2
#     Edge 11, Type (0, 0), BuildingBlock: XUDNAN_clean_linker_2, # of connection points: 2
#     Edge 12, Type (0, 0), BuildingBlock: XUDNAN_clean_linker_2, # of connection points: 2
#     Edge 13, Type (0, 0), BuildingBlock: XUDNAN_clean_linker_2, # of connection points: 2
#     Edge 14, Type (0, 0), BuildingBlock: XUDNAN_clean_linker_2, # of connection points: 2
#     Edge 15, Type (0, 0), BuildingBlock: XUDNAN_clean_linker_2, # of connection points: 2
#     Edge 16, Type (0, 0), BuildingBlock: XUDNAN_clean_linker_2, # of connection points: 2
#     Edge 17, Type (0, 0), BuildingBlock: XUDNAN_clean_linker_2, # of connection points: 2
#     Edge 18, Type (0, 0), BuildingBlock: XUDNAN_clean_linker_2, # of connection points: 2
#     Edge 19, Type (0, 0), BuildingBlock: XUDNAN_clean_linker_2, # of connection points: 2
#     Edge 20, Type (0, 0), BuildingBlock: XUDNAN_clean_linker_2, # of connection points: 2
#     Edge 21, Type (0, 0), BuildingBlock: XUDNAN_clean_linker_2, # of connection points: 2
#     Edge 22, Type (0, 0), BuildingBlock: XUDNAN_clean_linker_2, # of connection points: 2
#     Edge 23, Type (0, 0), BuildingBlock: XUDNAN_clean_linker_2, # of connection points: 2
#     Edge 24, Type (0, 0), BuildingBlock: XUDNAN_clean_linker_2, # of connection points: 2
#     Edge 25, Type (0, 0), BuildingBlock: XUDNAN_clean_linker_2, # of connection points: 2
#     Edge 26, Type (0, 0), BuildingBlock: XUDNAN_clean_linker_2, # of connection points: 2
#     Edge 27, Type (0, 0), BuildingBlock: XUDNAN_clean_linker_2, # of connection points: 2
#     Edge 28, Type (0, 0), BuildingBlock: XUDNAN_clean_linker_2, # of connection points: 2
#     Edge 29, Type (0, 0), BuildingBlock: XUDNAN_clean_linker_2, # of connection points: 2
#     Edge 30, Type (0, 0), BuildingBlock: XUDNAN_clean_linker_2, # of connection points: 2
#     Edge 31, Type (0, 0), BuildingBlock: XUDNAN_clean_linker_2, # of connection points: 2
#     Edge 32, Type (0, 0), BuildingBlock: XUDNAN_clean_linker_2, # of connection points: 2
#     Edge 33, Type (0, 0), BuildingBlock: XUDNAN_clean_linker_2, # of connection points: 2
#     Edge 34, Type (0, 0), BuildingBlock: XUDNAN_clean_linker_2, # of connection points: 2
#     Edge 35, Type (0, 0), BuildingBlock: XUDNAN_clean_linker_2, # of connection points: 2
# Relax obj value: 0.437
# Max RMSD: 0.270
# Mean RMSD: 0.177
data_MOF--net-snz--node1-BETFEN_clean_sbu_0--edge1-XUDNAN_clean_linker_2
_symmetry_space_group_name_H-M    P1
_symmetry_Int_Tables_number       1
_symmetry_cell_setting            triclinic
loop_
_symmetry_equiv_pos_as_xyz
'x, y, z'
_cell_length_a     68.223982
_cell_length_b     55.236607
_cell_length_c     16.088218
_cell_angle_alpha  95.973054
_cell_angle_beta   97.326882
_cell_angle_gamma 121.11873
loop_
_atom_site_label
_atom_site_type_symbol
_atom_site_fract_x
_atom_site_fract_y
_atom_site_fract_z
_atom_type_partial_charge
Pr0 Pr 0.12112 0.48956 0.21818 0.0
Pr1 Pr 0.08867 0.49866 0.22096 0.0
C2 C 0.14662 0.4666 0.26073 0.0
C3 C 0.15981 0.45315 0.28772 0.0
C4 C 0.17862 0.45687 0.25151 0.0
C5 C 0.19002 0.44269 0.27449 0.0
C6 C 0.18292 0.42452 0.33444 0.0
C7 C 0.16445 0.42146 0.37204 0.0
C8 C 0.15305 0.43553 0.34893 0.0
C9 C 0.11454 0.50059 1.04869 0.0
C10 C 0.06739 0.43075 0.15228 0.0
C11 C 0.05804 0.51628 0.20919 0.0
C12 C 0.05312 0.53818 0.18541 0.0
C13 C 0.05554 0.55944 0.24966 0.0
C14 C 0.04828 0.57806 0.22969 0.0
C15 C 0.03832 0.57581 0.14495 0.0
C16 C 0.03643 0.55498 0.08036 0.0
C17 C 0.04368 0.53634 0.10036 0.0
C18 C 0.10021 0.49096 0.39304 0.0
C19 C 0.14135 0.55765 0.26291 0.0
O20 O 0.12686 0.45903 0.28363 0.0
O21 O 0.15342 0.48651 0.21424 0.0
O22 O 0.09761 0.48634 0.08744 0.0
O23 O 0.13445 0.51046 0.10095 0.0
O24 O 0.06124 0.44883 0.17618 0.0
O25 O 0.0898 0.44098 0.15876 0.0
O26 O 0.05742 0.49803 0.1489 0.0
O27 O 0.07412 0.52392 0.27704 0.0
O28 O 0.11458 0.50615 0.34784 0.0
O29 O 0.07934 0.47676 0.34446 0.0
O30 O 0.14736 0.53909 0.27687 0.0
O31 O 0.11935 0.54722 0.22758 0.0
H32 H 0.18429 0.47036 0.2044 0.0
H33 H 0.20438 0.44591 0.24499 0.0
H34 H 0.15827 0.40744 0.41756 0.0
H35 H 0.13866 0.43224 0.37837 0.0
H36 H 0.0625 0.56123 0.31597 0.0
H37 H 0.05026 0.59404 0.28089 0.0
H38 H 0.02855 0.55231 1.01455 0.0
H39 H 0.04124 0.51997 1.04941 0.0
Pr40 Pr 0.63136 0.50376 1.05538 0.0
Pr41 Pr 0.59716 0.51064 1.02939 0.0
C42 C 0.67309 0.50768 1.06118 0.0
C43 C 0.69734 0.52679 1.04778 0.0
C44 C 0.71643 0.54007 0.11801 0.0
C45 C 0.73949 0.55704 0.10694 0.0
C46 C 0.74423 0.56118 1.02509 0.0
C47 C 0.7251 0.54777 0.95459 0.0
C48 C 0.70197 0.53082 0.96575 0.0
C49 C 0.61623 0.50191 0.2186 0.0
C50 C 0.6447 0.57202 0.08439 0.0
C51 C 0.55512 0.50418 1.03144 0.0
C52 C 0.53888 0.4902 0.08819 0.0
C53 C 0.51768 0.489 0.08071 0.0
C54 C 0.50267 0.47594 0.13631 0.0
C55 C 0.5086 0.46376 0.20017 0.0
C56 C 0.52976 0.46469 0.20599 0.0
C57 C 0.54476 0.47794 0.15122 0.0
C58 C 0.61241 0.51545 0.86697 0.0
C59 C 0.58231 0.44285 1.0121 0.0
O60 O 0.65575 0.49438 0.99477 0.0
O61 O 0.66735 0.51624 0.12707 0.0
O62 O 0.61859 0.51954 0.16872 0.0
O63 O 0.62007 0.48324 0.18043 0.0
O64 O 0.62253 0.56013 0.08631 0.0
O65 O 0.65189 0.55475 1.06126 0.0
O66 O 0.57503 0.52774 1.06842 0.0
O67 O 0.55785 0.48697 0.97932 0.0
O68 O 0.61079 0.4969 0.91293 0.0
O69 O 0.6076 0.53237 0.90924 0.0
O70 O 0.60392 0.45345 1.00282 0.0
O71 O 0.57695 0.46145 1.03954 0.0
H72 H 0.71355 0.53706 0.18183 0.0
H73 H 0.75367 0.56652 0.16272 0.0
H74 H 0.72796 0.55063 0.8907 0.0
H75 H 0.68775 0.52081 0.90997 0.0
H76 H 0.51285 0.4984 1.03257 0.0
H77 H 0.48671 0.47598 0.13043 0.0
H78 H 0.53481 0.45513 0.25295 0.0
H79 H 0.56109 0.47873 0.15851 0.0
Pr80 Pr 0.59335 0.04678 0.89792 0.0
Pr81 Pr 0.63357 0.09494 0.94823 0.0
C82 C 0.54836 1.00198 0.87236 0.0
C83 C 0.53213 0.98461 0.92516 0.0
C84 C 0.51354 0.95629 0.88937 0.0
C85 C 0.49708 0.94027 0.93688 0.0
C86 C 0.49883 0.95237 1.02104 0.0
C87 C 0.51772 0.98066 1.05719 0.0
C88 C 0.53428 0.99658 1.00987 0.0
C89 C 0.61043 0.06319 0.7414 0.0
C90 C 0.5901 0.10452 0.92358 0.0
C91 C 0.67969 0.13558 0.95469 0.0
C92 C 0.70167 0.13653 0.94571 0.0
C93 C 0.72076 0.16116 0.92749 0.0
C94 C 0.74143 0.1621 0.91823 0.0
C95 C 0.74368 0.1385 0.92801 0.0
C96 C 0.7244 0.11379 0.94533 0.0
C97 C 0.7037 0.11277 0.95307 0.0
C98 C 0.61685 0.08334 0.1058 0.0
C99 C 0.63336 0.0358 0.9618 0.0
O100 O 0.5547 0.02895 0.88275 0.0
O101 O 0.56561 0.9985 0.86454 0.0
O102 O 0.61127 0.07965 0.80611 0.0
O103 O 0.60214 0.03785 0.76053 0.0
O104 O 0.61299 0.11871 0.92931 0.0
O105 O 0.57882 0.07672 0.92236 0.0
O106 O 0.66318 0.12475 0.88606 0.0
O107 O 0.67116 0.12748 1.02195 0.0
O108 O 0.61453 0.06407 1.04518 0.0
O109 O 0.62623 0.10794 0.08046 0.0
O110 O 0.61114 0.02456 0.96048 0.0
O111 O 0.64497 0.06113 0.94095 0.0
H112 H 0.51152 0.94671 0.82408 0.0
H113 H 0.48264 0.91864 0.90692 0.0
H114 H 0.51974 0.99046 0.12217 0.0
H115 H 0.54858 0.01839 1.03904 0.0
H116 H 0.7197 0.17978 0.92048 0.0
H117 H 0.75584 0.18154 0.90516 0.0
H118 H 0.72518 0.09497 0.95186 0.0
H119 H 0.68919 0.09328 0.96425 0.0
Pr120 Pr 0.78645 0.85187 0.29714 0.0
Pr121 Pr 0.74933 0.85254 0.29524 0.0
C122 C 0.82125 0.84123 0.30621 0.0
C123 C 0.82813 0.82171 0.3349 0.0
C124 C 0.84725 0.8224 0.30934 0.0
C125 C 0.85409 0.80392 0.33453 0.0
C126 C 0.84195 0.78433 0.38609 0.0
C127 C 0.8226 0.78358 0.41113 0.0
C128 C 0.81573 0.8021 0.38565 0.0
C129 C 0.77552 0.86133 0.12735 0.0
C130 C 0.7389 0.78768 0.26912 0.0
C131 C 0.71414 0.86259 0.26348 0.0
C132 C 0.70882 0.88391 0.23562 0.0
C133 C 0.71649 0.91005 0.29074 0.0
C134 C 0.71043 0.92926 0.26509 0.0
C135 C 0.69651 0.92298 0.18354 0.0
C136 C 0.68868 0.89669 0.12874 0.0
C137 C 0.69472 0.87743 0.15451 0.0
C138 C 0.76202 0.84727 0.46962 0.0
C139 C 0.8003 0.91672 0.34858 0.0
O140 O 0.82095 0.85914 0.36476 0.0
O141 O 0.8037 0.83015 0.24117 0.0
O142 O 0.76057 0.84297 0.16556 0.0
O143 O 0.79517 0.87717 0.18298 0.0
O144 O 0.7285 0.80137 0.24894 0.0
O145 O 0.7612 0.80347 0.30584 0.0
O146 O 0.7182 0.84803 0.20688 0.0
O147 O 0.72731 0.86934 0.33876 0.0
O148 O 0.77615 0.86342 0.42501 0.0
O149 O 0.74114 0.83162 0.42057 0.0
O150 O 0.80914 0.90081 0.35624 0.0
O151 O 0.77765 0.9037 0.31569 0.0
H152 H 0.85689 0.83722 0.26948 0.0
H153 H 0.86879 0.80481 0.31275 0.0
H154 H 0.81298 0.76903 0.45156 0.0
H155 H 0.80083 0.80119 0.4057 0.0
H156 H 0.72707 0.91566 0.35415 0.0
H157 H 0.71648 0.94897 0.30994 0.0
H158 H 0.67815 0.89113 1.06529 0.0
H159 H 0.68827 0.85733 0.11085 0.0
Pr160 Pr 0.27988 0.83907 0.49591 0.0
Pr161 Pr 0.24179 0.83515 0.4591 0.0
C162 C 0.32467 0.85251 0.51343 0.0
C163 C 0.34225 0.85945 0.4599 0.0
C164 C 0.35745 0.84961 0.47232 0.0
C165 C 0.37441 0.85622 0.42301 0.0
C166 C 0.37658 0.87295 0.36038 0.0
C167 C 0.3613 0.88283 0.34812 0.0
C168 C 0.34423 0.87604 0.3971 0.0
C169 C 0.26273 0.82962 0.65405 0.0
C170 C 0.28524 0.9013 0.52256 0.0
C171 C 0.19635 0.8203 0.43411 0.0
C172 C 0.17488 0.81208 0.46775 0.0
C173 C 0.16119 0.8229 0.43917 0.0
C174 C 0.13951 0.81327 0.46147 0.0
C175 C 0.13084 0.79253 0.51355 0.0
C176 C 0.1447 0.78181 0.54276 0.0
C177 C 0.16645 0.79145 0.52006 0.0
C178 C 0.2587 0.84139 0.2991 0.0
C179 C 0.23852 0.7734 0.43083 0.0
O180 O 0.31905 0.87143 0.53045 0.0
O181 O 0.30663 0.82608 0.49715 0.0
O182 O 0.26113 0.84614 0.6063 0.0
O183 O 0.27106 0.81644 0.61483 0.0
O184 O 0.26327 0.88455 0.52828 0.0
O185 O 0.29518 0.88837 0.4927 0.0
O186 O 0.21405 0.84703 0.45272 0.0
O187 O 0.20282 0.8019 0.42734 0.0
O188 O 0.25973 0.82597 0.35162 0.0
O189 O 0.25025 0.85549 0.33244 0.0
O190 O 0.2602 0.79085 0.42444 0.0
O191 O 0.22776 0.78548 0.45974 0.0
H192 H 0.35626 0.83686 0.52051 0.0
H193 H 0.38603 0.84851 0.43469 0.0
H194 H 0.36232 0.89544 0.29974 0.0
H195 H 0.33258 0.88374 0.38584 0.0
H196 H 0.16702 0.83837 0.39746 0.0
H197 H 0.1293 0.8217 0.43605 0.0
H198 H 0.13882 0.76609 0.58359 0.0
H199 H 0.17652 0.78247 0.54247 0.0
Pr200 Pr 0.23947 0.25161 0.57618 0.0
Pr201 Pr 0.28168 0.2957 0.62735 0.0
C202 C 0.1924 0.21571 0.56809 0.0
C203 C 0.17001 0.21517 0.56725 0.0
C204 C 0.15249 0.20344 0.49198 0.0
C205 C 0.13055 0.20005 0.49251 0.0
C206 C 0.12509 0.20798 0.56861 0.0
C207 C 0.14291 0.22043 0.64355 0.0
C208 C 0.1649 0.22389 0.64292 0.0
C209 C 0.25613 0.26086 0.41781 0.0
C210 C 0.24696 0.31434 0.5627 0.0
C211 C 0.32817 0.33628 0.66161 0.0
C212 C 0.34707 0.35144 0.61525 0.0
C213 C 0.36754 0.37754 0.65713 0.0
C214 C 0.38674 0.39058 0.61808 0.0
C215 C 0.38591 0.37769 0.53631 0.0
C216 C 0.36497 0.35203 0.4931 0.0
C217 C 0.34573 0.33901 0.53224 0.0
C218 C 0.26337 0.28057 0.78259 0.0
C219 C 0.27942 0.23558 0.59498 0.0
O220 O 0.20837 0.22784 0.63865 0.0
O221 O 0.20165 0.21984 0.50066 0.0
O222 O 0.26079 0.28122 0.47992 0.0
O223 O 0.24457 0.23624 0.44205 0.0
O224 O 0.26797 0.32061 0.55889 0.0
O225 O 0.23308 0.29021 0.58669 0.0
O226 O 0.31945 0.30871 0.65489 0.0
O227 O 0.31224 0.34275 0.65914 0.0
O228 O 0.26133 0.26339 0.71716 0.0
O229 O 0.27316 0.30611 0.76403 0.0
O230 O 0.25722 0.22439 0.59952 0.0
O231 O 0.29163 0.26245 0.58679 0.0
H232 H 0.15556 0.19628 0.43254 0.0
H233 H 0.11777 0.19095 0.4327 0.0
H234 H 0.13966 0.22662 0.70384 0.0
H235 H 0.17771 0.23278 0.70265 0.0
H236 H 0.36892 0.38749 0.7211 0.0
H237 H 0.40236 0.41065 0.65256 0.0
H238 H 0.36372 0.34141 0.43037 0.0
H239 H 0.33005 0.3188 0.49874 0.0
Pr240 Pr 0.43972 0.17265 0.70214 0.0
Pr241 Pr 0.42995 0.17093 0.84413 0.0
C242 C 0.44766 0.18437 0.54954 0.0
C243 C 0.4583 0.21456 0.53945 0.0
C244 C 0.47576 0.22664 0.49225 0.0
C245 C 0.48796 0.25633 0.49354 0.0
C246 C 0.48307 0.27448 0.54286 0.0
C247 C 0.46584 0.26233 0.59116 0.0
C248 C 0.45364 0.23273 0.5896 0.0
C249 C 0.46904 0.22955 0.80634 0.0
C250 C 0.39669 0.18092 0.71743 0.0
C251 C 0.43335 0.1846 1.01209 0.0
C252 C 0.44526 0.2145 1.05995 0.0
C253 C 0.43579 0.22187 0.12267 0.0
C254 C 0.44609 0.25081 0.1616 0.0
C255 C 0.46589 0.27306 0.13751 0.0
C256 C 0.47511 0.26538 1.07394 0.0
C257 C 0.46494 0.23651 1.03582 0.0
C258 C 0.39652 0.11433 0.7471 0.0
C259 C 0.4709 0.1576 0.81547 0.0
O260 O 0.42656 0.17206 0.56458 0.0
O261 O 0.46138 0.17985 0.60051 0.0
O262 O 0.44711 0.21347 0.79602 0.0
O263 O 0.47684 0.21513 0.7711 0.0
O264 O 0.40969 0.1925 0.79486 0.0
O265 O 0.40184 0.16554 0.66766 0.0
O266 O 0.41431 0.17601 0.95618 0.0
O267 O 0.44687 0.17734 0.9819 0.0
O268 O 0.41817 0.12806 0.7439 0.0
O269 O 0.39235 0.12973 0.79922 0.0
O270 O 0.45864 0.1484 0.73692 0.0
O271 O 0.46598 0.17239 0.86912 0.0
H272 H 0.48008 0.21321 0.45508 0.0
H273 H 0.50076 0.26492 0.45381 0.0
H274 H 0.46162 0.27567 0.62938 0.0
H275 H 0.44072 0.22412 0.62888 0.0
H276 H 0.42045 0.20529 0.14152 0.0
H277 H 0.43886 0.25548 0.21246 0.0
H278 H 0.49033 0.28161 1.05386 0.0
H279 H 0.47247 0.23142 0.9868 0.0
Pr280 Pr 0.93829 0.15954 0.78783 0.0
Pr281 Pr 0.93037 0.18855 0.69836 0.0
C282 C 0.94308 0.12922 0.89946 0.0
C283 C 0.94559 0.11261 0.96044 0.0
C284 C 0.96785 0.11782 0.99137 0.0
C285 C 0.9734 0.11471 1.0746 0.0
C286 C 0.95696 0.10803 0.12678 0.0
C287 C 0.93318 0.09402 0.08623 0.0
C288 C 0.92761 0.09778 1.00391 0.0
C289 C 0.91146 0.12198 0.62823 0.0
C290 C 0.88972 0.15912 0.79605 0.0
C291 C 0.93181 0.2248 0.59673 0.0
C292 C 0.95385 0.24984 0.58768 0.0
C293 C 0.95486 0.26387 0.51948 0.0
C294 C 0.97573 0.27784 0.48999 0.0
C295 C 0.99383 0.27342 0.52028 0.0
C296 C 0.99499 0.26733 0.60302 0.0
C297 C 0.97475 0.25497 0.63591 0.0
C298 C 0.95644 0.2249 0.86041 0.0
C299 C 0.9779 0.18839 0.6861 0.0
O300 O 0.93486 0.14553 0.91568 0.0
O301 O 0.94972 0.12958 0.82703 0.0
O302 O 0.9063 0.13805 0.66925 0.0
O303 O 0.932 0.12815 0.66332 0.0
O304 O 0.89231 0.16591 0.72096 0.0
O305 O 0.907 0.1589 0.84271 0.0
O306 O 0.92905 0.20004 0.56734 0.0
O307 O 0.9271 0.22603 0.67221 0.0
O308 O 0.96217 0.20994 0.81694 0.0
O309 O 0.93534 0.21727 0.82731 0.0
O310 O 0.97665 0.18541 0.7651 0.0
O311 O 0.95926 0.18493 0.6374 0.0
H312 H 0.9818 0.12839 0.95721 0.0
H313 H 0.99169 0.1239 0.10281 0.0
H314 H 0.91988 0.08711 0.12422 0.0
H315 H 0.91008 0.09272 0.97955 0.0
H316 H 0.93917 0.2615 0.4839 0.0
H317 H 0.97556 0.2863 0.43234 0.0
H318 H 1.0095 0.26651 0.63495 0.0
H319 H 0.97462 0.24561 0.69195 0.0
Pr320 Pr 0.92825 0.65102 0.71931 0.0
Pr321 Pr 0.94825 0.70691 0.81933 0.0
C322 C 0.90635 0.5977 0.62235 0.0
C323 C 0.91618 0.58376 0.57535 0.0
C324 C 0.90515 0.56974 0.49001 0.0
C325 C 0.91885 0.57214 0.42997 0.0
C326 C 0.94341 0.58997 0.45564 0.0
C327 C 0.95359 0.59634 0.5427 0.0
C328 C 0.93997 0.5937 0.60304 0.0
C329 C 0.96454 0.66336 0.85351 0.0
C330 C 0.97853 0.70149 0.68923 0.0
C331 C 0.96888 0.7569 0.93353 0.0
C332 C 0.9748 0.76283 1.02745 0.0
C333 C 0.99841 0.77687 1.06943 0.0
C334 C 1.00424 0.77156 0.14899 0.0
C335 C 0.98645 0.75222 0.18703 0.0
C336 C 0.96299 0.74236 0.15107 0.0
C337 C 0.95724 0.74774 1.07218 0.0
C338 C 0.92365 0.7012 0.65663 0.0
C339 C 0.89848 0.65694 0.85876 0.0
O340 O 0.90809 0.61985 0.59303 0.0
O341 O 0.91206 0.60276 0.70582 0.0
O342 O 0.94869 0.66835 0.86212 0.0
O343 O 0.96261 0.65368 0.77433 0.0
O344 O 0.98048 0.71295 0.76771 0.0
O345 O 0.95806 0.67909 0.64633 0.0
O346 O 0.9805 0.74757 0.89764 0.0
O347 O 0.94661 0.74238 0.89654 0.0
O348 O 0.9164 0.68281 0.70371 0.0
O349 O 0.94467 0.72247 0.69144 0.0
O350 O 0.89757 0.64067 0.79057 0.0
O351 O 0.91725 0.68296 0.88919 0.0
H352 H 0.88673 0.56141 0.46751 0.0
H353 H 0.91058 0.56609 0.36274 0.0
H354 H 0.9725 0.60917 0.56415 0.0
H355 H 0.94879 0.60384 0.66917 0.0
H356 H 1.01228 0.78908 1.03646 0.0
H357 H 1.02249 0.7803 0.17635 0.0
H358 H 0.94858 0.72745 0.17762 0.0
H359 H 0.93886 0.73703 1.04222 0.0
H360 H 0.07705 0.46987 0.88982 0.0
H361 H 0.15138 0.53395 0.97811 0.0
H362 H 0.15534 0.5377 0.83001 0.0
H363 H 0.0824 0.43467 0.69307 0.0
H364 H 0.0564 0.42871 0.62622 0.0
H365 H 0.05846 0.43055 0.73984 0.0
H366 H 0.05009 0.47113 0.74992 0.0
H367 H 0.04796 0.46936 0.63628 0.0
H368 H 0.06823 0.50313 0.70983 0.0
H369 H 0.15257 0.53496 0.66636 0.0
H370 H 0.14267 0.52653 0.50852 0.0
H371 H 0.07013 0.4647 0.51139 0.0
C372 C 0.09418 0.48488 0.87854 0.0
C373 C 0.11396 0.50165 0.95057 0.0
C374 C 0.13574 0.5206 0.92816 0.0
C375 C 0.13828 0.52298 0.84245 0.0
C376 C 0.11891 0.50634 0.77423 0.0
C377 C 0.09714 0.48763 0.7909 0.0
C378 C 0.07935 0.47236 0.70358 0.0
C379 C 0.0685 0.43962 0.68988 0.0
C380 C 0.06026 0.4794 0.69968 0.0
C381 C 0.09445 0.48532 0.63644 0.0
C382 C 0.1173 0.5049 0.67953 0.0
C383 C 0.13463 0.51964 0.63289 0.0
C384 C 0.12878 0.51463 0.5417 0.0
C385 C 0.10556 0.49489 0.49342 0.0
C386 C 0.08818 0.48003 0.54362 0.0
H387 H 0.61422 0.47687 0.72748 0.0
H388 H 0.61264 0.55452 0.77663 0.0
H389 H 0.61296 0.55849 0.62653 0.0
H390 H 0.65315 0.50134 0.57158 0.0
H391 H 0.63845 0.46661 0.50081 0.0
H392 H 0.63794 0.46881 0.61308 0.0
H393 H 0.59277 0.4377 0.57546 0.0
H394 H 0.59317 0.43545 0.4631 0.0
H395 H 0.57692 0.44887 0.50821 0.0
H396 H 0.61297 0.55504 0.46437 0.0
H397 H 0.61386 0.54489 0.3122 0.0
H398 H 0.61618 0.46997 0.35254 0.0
C399 C 0.61399 0.4948 0.7072 0.0
C400 C 0.61331 0.5154 0.76894 0.0
C401 C 0.61305 0.53815 0.73498 0.0
C402 C 0.61324 0.54071 0.64791 0.0
C403 C 0.61377 0.52043 0.5898 0.0
C404 C 0.61423 0.49784 0.61794 0.0
C405 C 0.61494 0.47931 0.53992 0.0
C406 C 0.63746 0.47898 0.5574 0.0
C407 C 0.59316 0.44849 0.52055 0.0
C408 C 0.61484 0.49496 0.4648 0.0
C409 C 0.61406 0.51864 0.49598 0.0
C410 C 0.61365 0.5365 0.44035 0.0
C411 C 0.61416 0.53049 0.3524 0.0
C412 C 0.61517 0.50662 0.31611 0.0
C413 C 0.61545 0.48856 0.3753 0.0
H414 H 0.60328 0.02788 0.57845 0.0
H415 H 0.62201 0.11409 0.68715 0.0
H416 H 0.62494 0.12668 0.54435 0.0
H417 H 0.64211 0.0495 0.42261 0.0
H418 H 0.62186 0.0188 0.33821 0.0
H419 H 0.62101 0.01584 0.44846 0.0
H420 H 0.5773 0.99877 0.41773 0.0
H421 H 0.57804 1.00172 0.30741 0.0
H422 H 0.56834 0.02072 0.37089 0.0
H423 H 0.6257 0.13083 0.3844 0.0
H424 H 0.62512 0.12685 0.23073 0.0
H425 H 0.60644 0.03821 0.21065 0.0
C426 C 0.60806 0.04951 0.57274 0.0
C427 C 0.61238 0.06988 0.64842 0.0
C428 C 0.61852 0.09773 0.63387 0.0
C429 C 0.62024 0.10517 0.55142 0.0
C430 C 0.61587 0.08486 0.47946 0.0
C431 C 0.60993 0.05747 0.48913 0.0
C432 C 0.60627 0.03994 0.39986 0.0
C433 C 0.62385 0.03044 0.40244 0.0
C434 C 0.58098 0.01371 0.37235 0.0
C435 C 0.61103 0.06156 0.33872 0.0
C436 C 0.61648 0.08732 0.38718 0.0
C437 C 0.62147 0.11064 0.34715 0.0
C438 C 0.62108 0.10806 0.25778 0.0
C439 C 0.6158 0.08234 0.20352 0.0
C440 C 0.61059 0.05852 0.24686 0.0
H441 H 0.7328 0.81804 0.58786 0.0
H442 H 0.80308 0.88773 0.5864 0.0
H443 H 0.81252 0.89779 0.74445 0.0
H444 H 0.72581 0.85301 0.78055 0.0
H445 H 0.71025 0.82064 0.82238 0.0
H446 H 0.7084 0.81836 0.70871 0.0
H447 H 0.72259 0.7832 0.70533 0.0
H448 H 0.72443 0.78533 0.81896 0.0
H449 H 0.74972 0.79363 0.77502 0.0
H450 H 0.81489 0.90175 0.90834 0.0
H451 H 0.81096 0.89832 1.05654 0.0
H452 H 0.73945 0.8251 0.9672 0.0
C453 C 0.75027 0.83544 0.62044 0.0
C454 C 0.76714 0.85202 0.57041 0.0
C455 C 0.7896 0.87442 0.61928 0.0
C456 C 0.79517 0.88039 0.71066 0.0
C457 C 0.77835 0.86393 0.75707 0.0
C458 C 0.75628 0.84169 0.71354 0.0
C459 C 0.74168 0.82725 0.78069 0.0
C460 C 0.72025 0.82996 0.77257 0.0
C461 C 0.73414 0.79545 0.76929 0.0
C462 C 0.75884 0.84473 0.86835 0.0
C463 C 0.77986 0.86587 0.85194 0.0
C464 C 0.79845 0.88508 0.92055 0.0
C465 C 0.79593 0.88286 1.00638 0.0
C466 C 0.77497 0.86144 1.02864 0.0
C467 C 0.75597 0.84197 0.95613 0.0
H468 H 0.25358 0.86193 0.78721 0.0
H469 H 0.27024 0.7962 0.74895 0.0
H470 H 0.27129 0.793 0.89988 0.0
H471 H 0.28999 0.89714 1.00593 0.0
H472 H 0.26949 0.90366 1.04775 0.0
H473 H 0.26984 0.9016 0.93538 0.0
H474 H 0.2259 0.86156 0.89782 0.0
H475 H 0.22543 0.86355 1.01009 0.0
H476 H 0.21583 0.82959 0.94271 0.0
H477 H 0.2715 0.79641 1.06126 0.0
H478 H 0.26935 0.80525 0.21254 0.0
H479 H 0.25167 0.86793 0.16105 0.0
C480 C 0.25738 0.84676 0.81011 0.0
C481 C 0.26192 0.82934 0.75152 0.0
C482 C 0.26675 0.81006 0.78842 0.0
C483 C 0.26741 0.80799 0.87589 0.0
C484 C 0.2631 0.8252 0.93102 0.0
C485 C 0.25802 0.84421 0.8997 0.0
C486 C 0.25387 0.85985 0.97495 0.0
C487 C 0.27186 0.89251 0.99199 0.0
C488 C 0.22876 0.85326 0.9552 0.0
C489 C 0.2575 0.84681 1.05227 0.0
C490 C 0.26289 0.82686 1.02455 0.0
C491 C 0.26721 0.81199 0.08274 0.0
C492 C 0.26596 0.81723 0.17 0.0
C493 C 0.26031 0.83731 0.20259 0.0
C494 C 0.25605 0.85233 0.14088 0.0
H495 H 0.27263 0.31681 0.94666 0.0
H496 H 0.2489 0.2288 0.83536 0.0
H497 H 0.24539 0.21614 0.97789 0.0
H498 H 0.30658 0.32107 0.15212 0.0
H499 H 0.2986 0.34182 0.21723 0.0
H500 H 0.29934 0.3447 0.10687 0.0
H501 H 0.25649 0.3312 0.07878 0.0
H502 H 0.25562 0.32826 0.18906 0.0
H503 H 0.23424 0.29826 0.10458 0.0
H504 H 0.24438 0.212 0.13767 0.0
H505 H 0.24525 0.21624 0.2916 0.0
H506 H 0.26947 0.30682 0.31452 0.0
C507 C 0.26662 0.29477 0.95175 0.0
C508 C 0.26106 0.2739 0.87542 0.0
C509 C 0.25335 0.24553 0.88915 0.0
C510 C 0.25129 0.23805 0.97144 0.0
C511 C 0.25687 0.25884 1.04404 0.0
C512 C 0.26436 0.28675 1.03519 0.0
C513 C 0.26911 0.30473 0.12508 0.0
C514 C 0.29495 0.32957 0.15191 0.0
C515 C 0.25291 0.31632 0.12432 0.0
C516 C 0.26326 0.28278 0.18563 0.0
C517 C 0.25623 0.25644 0.13632 0.0
C518 C 0.24986 0.23267 0.17561 0.0
C519 C 0.25044 0.2354 0.26511 0.0
C520 C 0.25734 0.26174 0.32021 0.0
C521 C 0.26401 0.28602 0.27766 0.0
H522 H 0.45983 0.30097 0.51296 0.0
H523 H 0.52889 0.31532 0.54491 0.0
H524 H 0.53988 0.35129 0.45468 0.0
H525 H 0.44014 0.28657 0.35577 0.0
H526 H 0.42933 0.30776 0.3154 0.0
H527 H 0.43392 0.308 0.42731 0.0
H528 H 0.46028 0.36305 0.45854 0.0
H529 H 0.4558 0.36279 0.34548 0.0
H530 H 0.48504 0.38098 0.4093 0.0
H531 H 0.53357 0.35009 0.30696 0.0
H532 H 0.51352 0.31324 0.17804 0.0
H533 H 0.44752 0.30172 0.20993 0.0
C534 C 0.47775 0.31356 0.50547 0.0
C535 C 0.49318 0.30473 0.5318 0.0
C536 C 0.51654 0.3212 0.52261 0.0
C537 C 0.52294 0.342 0.47169 0.0
C538 C 0.50559 0.34543 0.42872 0.0
C539 C 0.48383 0.33365 0.45137 0.0
C540 C 0.46646 0.3334 0.38167 0.0
C541 C 0.441 0.30729 0.36924 0.0
C542 C 0.46697 0.36172 0.39982 0.0
C543 C 0.47795 0.33336 0.30703 0.0
C544 C 0.50183 0.34513 0.33689 0.0
C545 C 0.51504 0.34095 0.2841 0.0
C546 C 0.50333 0.31953 0.20989 0.0
C547 C 0.47861 0.30332 0.18722 0.0
C548 C 0.46639 0.31318 0.22933 0.0
H549 H 0.97443 0.25128 0.34809 0.0
H550 H 0.03059 0.26353 0.54485 0.0
H551 H 0.02736 0.22056 0.46561 0.0
H552 H 0.93951 0.18262 0.34445 0.0
H553 H 0.92653 0.17128 0.23166 0.0
H554 H 0.9378 0.20757 0.28473 0.0
H555 H 0.96584 0.22913 0.18102 0.0
H556 H 0.95333 0.19294 0.12305 0.0
H557 H 0.98459 0.21616 0.1616 0.0
H558 H 1.01301 0.17067 0.37206 0.0
H559 H 0.99213 0.12386 0.26808 0.0
H560 H 0.94236 0.14424 0.15662 0.0
C561 C 0.98691 0.2462 0.37463 0.0
C562 C 1.00173 0.26023 0.45669 0.0
C563 C 1.01807 0.2525 0.48453 0.0
C564 C 1.01637 0.22794 0.43995 0.0
C565 C 0.9987 0.21192 0.36674 0.0
C566 C 0.98473 0.22135 0.3333 0.0
C567 C 0.96493 0.199 0.26138 0.0
C568 C 0.9408 0.18959 0.2819 0.0
C569 C 0.96733 0.20995 0.17678 0.0
C570 C 0.96949 0.17513 0.26088 0.0
C571 C 0.98928 0.18288 0.32011 0.0
C572 C 0.99725 0.16424 0.32651 0.0
C573 C 0.98517 0.1376 0.26815 0.0
C574 C 0.96518 0.12988 0.20589 0.0
C575 C 0.95696 0.14865 0.2052 0.0
H576 H 0.93149 0.62806 0.43262 0.0
H577 H 0.98252 0.60691 0.3845 0.0
H578 H 1.00376 0.65189 0.32701 0.0
H579 H 0.93017 0.65678 0.24374 0.0
H580 H 0.92554 0.68331 0.29613 0.0
H581 H 0.91506 0.64961 0.33096 0.0
H582 H 0.93876 0.67765 0.48599 0.0
H583 H 0.94854 0.71094 0.44903 0.0
H584 H 0.96968 0.70437 0.50142 0.0
H585 H 1.01666 0.69731 0.26376 0.0
H586 H 1.01892 0.73648 0.19666 0.0
H587 H 0.96337 0.73126 0.31449 0.0
C588 C 0.94694 0.63258 0.40864 0.0
C589 C 0.95508 0.61376 0.41015 0.0
C590 C 0.97577 0.62081 0.38131 0.0
C591 C 0.98795 0.64632 0.3496 0.0
C592 C 0.97953 0.66466 0.35048 0.0
C593 C 0.95943 0.65792 0.37935 0.0
C594 C 0.9531 0.68008 0.37069 0.0
C595 C 0.9296 0.66665 0.30655 0.0
C596 C 0.95247 0.69404 0.45708 0.0
C597 C 0.97332 0.70117 0.3353 0.0
C598 C 0.98811 0.69172 0.32181 0.0
C599 C 1.00562 0.70537 0.27633 0.0
C600 C 1.007 0.728 0.23944 0.0
C601 C 0.99118 0.737 0.24982 0.0
C602 C 0.97556 0.72483 0.30441 0.0
H603 H 0.22906 0.34604 0.62472 0.0
H604 H 0.24375 0.31575 0.39565 0.0
H605 H 0.22927 0.34065 0.3128 0.0
H606 H 0.17637 0.34159 0.52529 0.0
H607 H 0.18321 0.37464 0.59058 0.0
H608 H 0.19417 0.35382 0.6319 0.0
H609 H 0.23653 0.39865 0.66319 0.0
H610 H 0.2257 0.41958 0.6217 0.0
H611 H 0.24774 0.417 0.57793 0.0
H612 H 0.21311 0.36843 0.25431 0.0
H613 H 0.19648 0.39772 0.2235 0.0
H614 H 0.19374 0.41262 0.49105 0.0
C615 C 0.229 0.34457 0.55704 0.0
C616 C 0.23737 0.32891 0.51608 0.0
C617 C 0.23741 0.32772 0.42784 0.0
C618 C 0.22921 0.34175 0.38032 0.0
C619 C 0.22126 0.35729 0.42225 0.0
C620 C 0.22119 0.35898 0.50864 0.0
C621 C 0.2124 0.37803 0.538 0.0
C622 C 0.19021 0.36099 0.57352 0.0
C623 C 0.23174 0.4049 0.60413 0.0
C624 C 0.20703 0.38609 0.45434 0.0
C625 C 0.21242 0.37399 0.38861 0.0
C626 C 0.20897 0.3782 0.3054 0.0
C627 C 0.19966 0.3951 0.28864 0.0
C628 C 0.19387 0.40774 0.35469 0.0
C629 C 0.19776 0.40315 0.43879 0.0
H630 H 0.63607 0.61661 0.10793 0.0
H631 H 0.69249 0.60103 0.12288 0.0
H632 H 0.72134 0.65314 0.17313 0.0
H633 H 0.66687 0.68409 1.02996 0.0
H634 H 0.65525 0.70138 0.08971 0.0
H635 H 0.63859 0.66266 1.05612 0.0
H636 H 0.63612 0.65728 0.21284 0.0
H637 H 0.65287 0.69599 0.24696 0.0
H638 H 0.66271 0.67487 0.29401 0.0
H639 H 0.7444 0.7065 0.22758 0.0
H640 H 0.76078 0.7583 0.27017 0.0
H641 H 0.69078 0.74284 0.21391 0.0
C642 C 0.65451 0.62418 0.12155 0.0
C643 C 0.66183 0.60427 0.11121 0.0
C644 C 0.68621 0.61542 0.12962 0.0
C645 C 0.70283 0.64516 0.15869 0.0
C646 C 0.69509 0.66406 0.16857 0.0
C647 C 0.67155 0.65418 0.14961 0.0
C648 C 0.66829 0.67964 0.164 0.0
C649 C 0.65655 0.68208 0.07993 0.0
C650 C 0.65415 0.67676 0.23359 0.0
C651 C 0.69365 0.70526 0.19427 0.0
C652 C 0.70866 0.69544 0.19713 0.0
C653 C 0.73278 0.71438 0.22491 0.0
C654 C 0.74194 0.74402 0.24949 0.0
C655 C 0.72729 0.75525 0.24579 0.0
C656 C 0.70262 0.7353 0.21753 0.0
H657 H 0.47732 0.97119 0.11973 0.0
H658 H 0.47944 0.89567 1.03308 0.0
H659 H 0.44875 0.86738 0.11123 0.0
H660 H 0.46812 0.95783 0.33192 0.0
H661 H 0.44857 0.97056 0.33336 0.0
H662 H 0.47111 0.98502 0.27233 0.0
H663 H 0.43972 0.97091 0.13623 0.0
H664 H 0.41707 0.95629 0.19673 0.0
H665 H 0.41534 0.93401 0.10236 0.0
H666 H 0.41769 0.84721 0.19815 0.0
H667 H 0.38794 0.83631 0.28551 0.0
H668 H 0.40576 0.92484 0.31538 0.0
C669 C 0.47152 0.94879 0.118 0.0
C670 C 0.48082 0.93564 1.07028 0.0
C671 C 0.47244 0.90613 1.06851 0.0
C672 C 0.45509 0.88993 0.11303 0.0
C673 C 0.44619 0.90348 0.1589 0.0
C674 C 0.45408 0.93223 0.16165 0.0
C675 C 0.44122 0.94142 0.21421 0.0
C676 C 0.45827 0.96511 0.29261 0.0
C677 C 0.42753 0.95123 0.15907 0.0
C678 C 0.42482 0.91331 0.24035 0.0
C679 C 0.42807 0.89176 0.20814 0.0
C680 C 0.41504 0.86394 0.2239 0.0
C681 C 0.39825 0.85799 0.27394 0.0
C682 C 0.39451 0.87969 0.30748 0.0
C683 C 0.40802 0.9077 0.29005 0.0
H684 H 0.54534 0.08125 0.83089 0.0
H685 H 0.60325 0.15975 0.99749 0.0
H686 H 0.5791 0.18142 0.98972 0.0
H687 H 0.52703 0.11759 0.69283 0.0
H688 H 0.49631 0.0901 0.67554 0.0
H689 H 0.51794 0.0808 0.69651 0.0
H690 H 0.5007 0.05894 0.8238 0.0
H691 H 0.4791 0.06829 0.8035 0.0
H692 H 0.49815 0.08083 0.90765 0.0
H693 H 0.54676 0.19302 0.97103 0.0
H694 H 0.51208 0.19616 0.9291 0.0
H695 H 0.47647 0.11217 0.76147 0.0
C696 C 0.55299 0.10305 0.86575 0.0
C697 C 0.57628 0.11869 0.91566 0.0
C698 C 0.58559 0.1473 0.95897 0.0
C699 C 0.57189 0.15972 0.95509 0.0
C700 C 0.54895 0.1436 0.90589 0.0
C701 C 0.53977 0.11605 0.86053 0.0
C702 C 0.51505 0.1037 0.80925 0.0
C703 C 0.51403 0.09769 0.71281 0.0
C704 C 0.4972 0.07631 0.83777 0.0
C705 C 0.51148 0.12835 0.83355 0.0
C706 C 0.53113 0.15101 0.89048 0.0
C707 C 0.53151 0.17552 0.92557 0.0
C708 C 0.5116 0.17707 0.90155 0.0
C709 C 0.49148 0.15461 0.84126 0.0
C710 C 0.49161 0.12994 0.80676 0.0
H711 H 1.00427 0.26733 0.87298 0.0
H712 H 0.94436 0.24764 0.9847 0.0
H713 H 0.96655 0.29672 1.07275 0.0
H714 H 0.04996 0.31518 1.07093 0.0
H715 H 0.06969 0.34019 1.01315 0.0
H716 H 0.04999 0.30266 0.96291 0.0
H717 H 0.03349 0.31723 0.83746 0.0
H718 H 0.05302 0.35477 0.88752 0.0
H719 H 1.02189 0.33949 0.85939 0.0
H720 H 0.99314 0.34906 0.13856 0.0
H721 H 1.02401 0.40056 0.18829 0.0
H722 H 0.06883 0.38881 1.04258 0.0
C723 C 0.99614 0.27313 0.91796 0.0
C724 C 0.97248 0.25319 0.9225 0.0
C725 C 0.96238 0.26218 0.98033 0.0
C726 C 0.97487 0.29018 1.03061 0.0
C727 C 0.99775 0.30952 1.02325 0.0
C728 C 1.00853 0.30143 0.96936 0.0
C729 C 0.03318 0.32723 0.97259 0.0
C730 C 0.05181 0.32093 1.00694 0.0
C731 C 0.03553 0.33514 0.88396 0.0
C732 C 0.03433 0.35092 1.03574 0.0
C733 C 1.01354 0.34005 1.06344 0.0
C734 C 1.00961 0.35769 0.11818 0.0
C735 C 0.02731 0.3871 0.14596 0.0
C736 C 0.04908 0.39905 0.12044 0.0
C737 C 0.05258 0.38044 1.06455 0.0
H738 H 0.85442 0.60728 0.80171 0.0
H739 H 0.89531 0.68254 1.00792 0.0
H740 H 0.86067 0.66616 1.0726 0.0
H741 H 0.80103 0.60606 0.78111 0.0
H742 H 0.78226 0.56726 0.75947 0.0
H743 H 0.81043 0.58425 0.7306 0.0
H744 H 0.82184 0.55521 0.81942 0.0
H745 H 0.79365 0.538 0.84822 0.0
H746 H 0.82006 0.55695 0.93052 0.0
H747 H 0.82114 0.64206 0.11368 0.0
H748 H 0.78018 0.6121 0.12868 0.0
H749 H 0.76465 0.55218 0.89627 0.0
C750 C 0.85619 0.62025 0.86084 0.0
C751 C 0.87777 0.64627 0.89965 0.0
C752 C 0.87911 0.66258 0.97672 0.0
C753 C 0.85947 0.65344 1.01405 0.0
C754 C 0.83847 0.62789 0.97372 0.0
C755 C 0.83671 0.61148 0.89889 0.0
C756 C 0.81197 0.5851 0.86785 0.0
C757 C 0.80077 0.58572 0.77952 0.0
C758 C 0.81189 0.55716 0.86645 0.0
C759 C 0.80006 0.58928 0.93664 0.0
C760 C 0.81569 0.61406 0.99722 0.0
C761 C 0.80881 0.62253 1.0668 0.0
C762 C 0.78545 0.60521 0.075 0.0
C763 C 0.769 0.57956 1.01407 0.0
C764 C 0.77658 0.57171 0.94373 0.0
H765 H 0.99908 0.65383 0.83888 0.0
H766 H 0.95998 0.66125 1.0215 0.0
H767 H 0.97803 0.6441 0.1245 0.0
H768 H 0.99124 0.58961 0.87115 0.0
H769 H 1.01987 0.5979 0.85938 0.0
H770 H 1.00716 0.61534 0.80721 0.0
H771 H 0.04339 0.66554 0.88205 0.0
H772 H 0.05647 0.64829 0.93374 0.0
H773 H 0.05268 0.67392 0.99691 0.0
H774 H 0.9956 0.61839 0.19616 0.0
H775 H 1.01353 0.59106 0.23623 0.0
H776 H 0.04126 0.60136 1.00528 0.0
C777 C 0.99476 0.65258 0.90143 0.0
C778 C 0.97813 0.65879 0.92233 0.0
C779 C 0.97279 0.65673 1.0045 0.0
C780 C 0.98291 0.64692 1.06313 0.0
C781 C 0.99845 0.63963 1.03861 0.0
C782 C 1.00463 0.64288 0.9601 0.0
C783 C 1.02028 0.63169 0.94575 0.0
C784 C 1.00895 0.60718 0.8662 0.0
C785 C 0.04465 0.65633 0.93926 0.0
C786 C 1.02134 0.62056 1.02709 0.0
C787 C 1.00885 0.62554 0.08035 0.0
C788 C 1.00603 0.61525 0.15627 0.0
C789 C 1.01628 0.5997 0.17841 0.0
C790 C 0.02902 0.5942 0.12431 0.0
C791 C 0.03168 0.60514 1.04815 0.0
H792 H 0.58346 0.39449 0.94037 0.0
H793 H 0.53728 0.4182 1.03207 0.0
H794 H 0.50448 0.3677 0.98936 0.0
H795 H 0.54071 0.34008 0.75652 0.0
H796 H 0.5502 0.31534 0.7666 0.0
H797 H 0.57074 0.35354 0.80487 0.0
H798 H 0.5804 0.34442 0.95497 0.0
H799 H 0.55995 0.30619 0.91682 0.0
H800 H 0.55697 0.32461 1.00895 0.0
H801 H 0.47538 0.31479 0.92983 0.0
H802 H 0.45318 0.2625 0.86988 0.0
H803 H 0.51691 0.26998 0.82021 0.0
C804 C 0.56651 0.38902 0.95213 0.0
C805 C 0.56332 0.41094 0.99003 0.0
C806 C 0.54059 0.40238 1.00346 0.0
C807 C 0.52163 0.37351 0.97907 0.0
C808 C 0.52521 0.35267 0.94107 0.0
C809 C 0.54711 0.35986 0.92835 0.0
C810 C 0.54586 0.33273 0.88666 0.0
C811 C 0.55227 0.33561 0.79844 0.0
C812 C 0.56174 0.32663 0.94535 0.0
C813 C 0.51997 0.30946 0.878 0.0
C814 C 0.50842 0.32166 0.90917 0.0
C815 C 0.48435 0.30503 0.90597 0.0
C816 C 0.47181 0.27518 0.87157 0.0
C817 C 0.48314 0.2617 0.84106 0.0
C818 C 0.50765 0.27936 0.84392 0.0
H819 H 0.85562 0.16908 0.73017 0.0
H820 H 0.87546 0.13643 0.93729 0.0
H821 H 0.84058 0.12753 0.99289 0.0
H822 H 0.83521 0.20618 0.85529 0.0
H823 H 0.81146 0.19791 0.77015 0.0
H824 H 0.83754 0.20086 0.74538 0.0
H825 H 0.81246 0.14949 0.65108 0.0
H826 H 0.78629 0.14639 0.67533 0.0
H827 H 0.7929 0.11967 0.69638 0.0
H828 H 0.80267 0.12148 1.02485 0.0
H829 H 0.76639 0.12055 1.03362 0.0
H830 H 0.77176 0.15889 0.80899 0.0
C831 C 0.8526 0.1599 0.78701 0.0
C832 C 0.86837 0.1533 0.82893 0.0
C833 C 0.86375 0.14164 0.90372 0.0
C834 C 0.84391 0.13648 0.93581 0.0
C835 C 0.82879 0.14332 0.89309 0.0
C836 C 0.833 0.15493 0.8205 0.0
C837 C 0.81433 0.16099 0.78764 0.0
C838 C 0.8253 0.19341 0.78976 0.0
C839 C 0.80069 0.14307 0.69725 0.0
C840 C 0.79888 0.15093 0.85278 0.0
C841 C 0.80745 0.14061 0.91276 0.0
C842 C 0.79591 0.12959 0.97819 0.0
C843 C 0.77518 0.12903 0.98244 0.0
C844 C 0.76602 0.13964 0.92217 0.0
C845 C 0.77829 0.15088 0.85673 0.0
H846 H 0.61786 0.9778 0.95476 0.0
H847 H 0.67737 0.06473 1.05883 0.0
H848 H 0.69989 0.04544 0.12138 0.0
H849 H 0.62518 0.94817 0.13824 0.0
H850 H 0.61663 0.9138 0.0764 0.0
H851 H 0.60518 0.93422 1.03573 0.0
H852 H 0.62063 0.93273 0.89763 0.0
H853 H 0.63214 0.9123 0.93791 0.0
H854 H 0.65121 0.94565 0.90566 0.0
H855 H 0.71617 0.01735 0.17449 0.0
H856 H 0.72512 0.982 0.21685 0.0
H857 H 0.65498 0.91219 0.08574 0.0
C858 C 0.63569 0.99268 0.99012 0.0
C859 C 0.64621 0.02292 0.99848 0.0
C860 C 0.66939 0.04163 1.04699 0.0
C861 C 0.68223 0.03082 0.08423 0.0
C862 C 0.67164 1.00106 1.07359 0.0
C863 C 0.64888 0.98215 1.02811 0.0
C864 C 0.64173 0.95108 1.02836 0.0
C865 C 0.62095 0.93593 1.07231 0.0
C866 C 0.63609 0.93446 0.93694 0.0
C867 C 0.66399 0.95563 0.08113 0.0
C868 C 0.68096 0.98469 0.10636 0.0
C869 C 0.70298 0.99451 0.15549 0.0
C870 C 0.70784 0.97417 0.17985 0.0
C871 C 0.69078 0.94414 0.15564 0.0
C872 C 0.66855 0.93489 0.10504 0.0
H873 H 0.19075 0.72908 0.3896 0.0
H874 H 0.26051 0.74411 0.41861 0.0
H875 H 0.24339 0.69172 0.37981 0.0
H876 H 0.16362 0.66232 0.47037 0.0
H877 H 0.13628 0.64503 0.39336 0.0
H878 H 0.15378 0.68379 0.42571 0.0
H879 H 0.1543 0.68842 0.26758 0.0
H880 H 0.13683 0.64967 0.23481 0.0
H881 H 0.16455 0.67017 0.20389 0.0
H882 H 0.21901 0.63729 0.34104 0.0
H883 H 0.18914 0.58513 0.29831 0.0
H884 H 0.13423 0.60336 0.2846 0.0
C885 C 0.20241 0.72131 0.38825 0.0
C886 C 0.22717 0.7411 0.40803 0.0
C887 C 0.24162 0.72976 0.40407 0.0
C888 C 0.23201 0.69986 0.38207 0.0
C889 C 0.2077 0.68102 0.36268 0.0
C890 C 0.19301 0.69123 0.36475 0.0
C891 C 0.16743 0.66604 0.33826 0.0
C892 C 0.15452 0.6642 0.41129 0.0
C893 C 0.15505 0.66874 0.25626 0.0
C894 C 0.17009 0.64021 0.32191 0.0
C895 C 0.19354 0.64949 0.33703 0.0
C896 C 0.2006 0.62987 0.32855 0.0
C897 C 0.18342 0.60012 0.30421 0.0
C898 C 0.15917 0.58975 0.28722 0.0
C899 C 0.15255 0.61036 0.29606 0.0
H900 H 0.46005 0.43183 0.17169 0.0
H901 H 0.52256 0.4672 0.37102 0.0
H902 H 0.49793 0.44658 0.47485 0.0
H903 H 0.4276 0.447 0.30166 0.0
H904 H 0.39979 0.41442 0.25312 0.0
H905 H 0.42221 0.43006 0.19215 0.0
H906 H 0.42004 0.38167 0.1599 0.0
H907 H 0.39759 0.36591 0.22085 0.0
H908 H 0.42389 0.36551 0.24726 0.0
H909 H 0.46692 0.42392 0.55901 0.0
H910 H 0.43142 0.40144 0.61876 0.0
H911 H 0.38867 0.38243 0.36778 0.0
C912 C 0.4686 0.43533 0.23717 0.0
C913 C 0.49337 0.45101 0.26247 0.0
C914 C 0.5037 0.4548 0.349 0.0
C915 C 0.48984 0.44329 0.40888 0.0
C916 C 0.46559 0.42809 0.38181 0.0
C917 C 0.455 0.42408 0.29814 0.0
C918 C 0.42853 0.4077 0.28682 0.0
C919 C 0.41898 0.42589 0.25668 0.0
C920 C 0.41683 0.37846 0.22505 0.0
C921 C 0.42598 0.40372 0.37761 0.0
C922 C 0.4476 0.4154 0.43103 0.0
C923 C 0.44989 0.41478 0.51788 0.0
C924 C 0.42959 0.40216 0.55137 0.0
C925 C 0.40718 0.39042 0.49843 0.0
C926 C 0.40546 0.39102 0.41004 0.0
H927 H 0.93477 0.74801 0.58389 0.0
H928 H 0.87634 0.66384 0.59676 0.0
H929 H 0.84889 0.67431 0.51758 0.0
H930 H 0.90845 0.78548 0.6271 0.0
H931 H 0.92088 0.81027 0.55659 0.0
H932 H 0.93609 0.79446 0.60129 0.0
H933 H 0.93681 0.77458 0.44929 0.0
H934 H 0.92184 0.79067 0.40393 0.0
H935 H 0.90978 0.75261 0.37057 0.0
H936 H 0.82762 0.69652 0.45214 0.0
H937 H 0.81451 0.72754 0.40079 0.0
H938 H 0.88708 0.79775 0.43666 0.0
C939 C 0.91625 0.73144 0.56798 0.0
C940 C 0.90767 0.70506 0.59622 0.0
C941 C 0.88329 0.68412 0.57525 0.0
C942 C 0.86757 0.68991 0.53044 0.0
C943 C 0.87655 0.71668 0.50669 0.0
C944 C 0.90037 0.73697 0.52397 0.0
C945 C 0.90549 0.76491 0.49792 0.0
C946 C 0.91848 0.79026 0.57534 0.0
C947 C 0.9193 0.77105 0.42615 0.0
C948 C 0.88083 0.75753 0.46558 0.0
C949 C 0.86436 0.72953 0.47021 0.0
C950 C 0.8404 0.71838 0.44747 0.0
C951 C 0.83311 0.73628 0.41917 0.0
C952 C 0.84971 0.76514 0.41436 0.0
C953 C 0.87388 0.77567 0.43776 0.0
H954 H 0.39946 0.06655 0.67912 0.0
H955 H 0.35003 0.09092 0.72461 0.0
H956 H 0.31733 0.04082 0.66997 0.0
H957 H 0.36209 1.01191 0.48136 0.0
H958 H 0.3705 0.98701 0.50598 0.0
H959 H 0.39063 0.02523 0.54566 0.0
H960 H 0.39417 0.01645 0.70005 0.0
H961 H 0.37402 0.97822 0.66081 0.0
H962 H 0.36805 0.99717 0.74171 0.0
H963 H 0.28923 0.98759 0.61643 0.0
H964 H 0.26787 0.93491 0.56441 0.0
H965 H 0.33361 0.94196 0.54891 0.0
C966 C 0.38175 0.06136 0.67661 0.0
C967 C 0.37761 0.08321 0.70687 0.0
C968 C 0.35399 0.07501 0.70279 0.0
C969 C 0.33511 0.04639 0.67148 0.0
C970 C 0.33965 0.0254 0.64366 0.0
C971 C 0.36233 0.03235 0.64541 0.0
C972 C 0.36189 1.00494 0.61294 0.0
C973 C 0.37187 1.00743 0.53165 0.0
C974 C 0.37534 0.99884 0.68306 0.0
C975 C 0.33558 0.98181 0.59324 0.0
C976 C 0.32318 0.9943 0.61171 0.0
C977 C 0.2988 0.97764 0.60129 0.0
C978 C 0.28672 0.94753 0.57158 0.0
C979 C 0.29875 0.93382 0.5516 0.0
C980 C 0.32366 0.95152 0.56253 0.0
H981 H 1.026 0.2274 0.74032 0.0
H982 H 0.9739 0.15111 0.5509 0.0
H983 H 1.0054 0.14799 0.49991 0.0
H984 H 0.0681 0.257 0.59477 0.0
H985 H 0.09335 0.27262 0.68117 0.0
H986 H 0.06664 0.26905 0.70095 0.0
H987 H 0.06654 0.24049 0.819 0.0
H988 H 0.09301 0.24359 0.79861 0.0
H989 H 0.0673 0.20849 0.79284 0.0
H990 H 0.04284 0.15165 0.47455 0.0
H991 H 0.08254 0.16248 0.47251 0.0
H992 H 0.11155 0.23915 0.66994 0.0
C993 C 1.02131 0.21035 0.68716 0.0
C994 C 0.99739 0.18942 0.64962 0.0
C995 C 0.99201 0.1675 0.58013 0.0
C996 C 1.00985 0.16555 0.5508 0.0
C997 C 0.03324 0.18635 0.58924 0.0
C998 C 0.03904 0.20871 0.65478 0.0
C999 C 0.06561 0.2285 0.68374 0.0
C1000 C 0.07392 0.25858 0.66401 0.0
C1001 C 0.07357 0.23036 0.77923 0.0
C1002 C 0.07382 0.21297 0.62768 0.0
C1003 C 0.05481 0.18887 0.57298 0.0
C1004 C 0.05782 0.17073 0.51635 0.0
C1005 C 0.08068 0.17728 0.51528 0.0
C1006 C 0.10073 0.20197 0.57018 0.0
C1007 C 0.09693 0.22 0.62713 0.0
H1008 H 0.39264 0.22809 0.75411 0.0
H1009 H 0.35389 0.13938 0.61666 0.0
H1010 H 0.31899 0.14225 0.57434 0.0
H1011 H 0.34553 0.2288 0.82987 0.0
H1012 H 0.35458 0.26445 0.81196 0.0
H1013 H 0.37601 0.25491 0.83417 0.0
H1014 H 0.38963 0.26921 0.69421 0.0
H1015 H 0.36833 0.27894 0.67185 0.0
H1016 H 0.36845 0.25306 0.59417 0.0
H1017 H 0.28684 0.15482 0.5533 0.0
H1018 H 0.26353 0.17764 0.53975 0.0
H1019 H 0.3247 0.25917 0.67805 0.0
C1020 C 0.37678 0.20925 0.71526 0.0
C1021 C 0.37601 0.18337 0.68944 0.0
C1022 C 0.35498 0.15943 0.6373 0.0
C1023 C 0.33498 0.16084 0.61326 0.0
C1024 C 0.33624 0.18662 0.63999 0.0
C1025 C 0.35685 0.21059 0.68844 0.0
C1026 C 0.35418 0.23626 0.70455 0.0
C1027 C 0.35779 0.24671 0.80086 0.0
C1028 C 0.37115 0.26082 0.66376 0.0
C1029 C 0.32884 0.223 0.65902 0.0
C1030 C 0.31856 0.19422 0.6231 0.0
C1031 C 0.29492 0.17745 0.58052 0.0
C1032 C 0.28169 0.19051 0.57338 0.0
C1033 C 0.29219 0.22027 0.60695 0.0
C1034 C 0.3161 0.23644 0.65058 0.0
H1035 H 0.79829 0.95888 0.4547 0.0
H1036 H 0.84054 0.94729 0.29487 0.0
H1037 H 0.87115 0.9991 0.33899 0.0
H1038 H 0.81608 0.03334 0.42611 0.0
H1039 H 0.81733 0.0455 0.53618 0.0
H1040 H 0.79723 1.00808 0.48552 0.0
H1041 H 0.81512 0.99295 0.60532 0.0
H1042 H 0.83525 0.0303 0.65615 0.0
H1043 H 0.84622 1.00777 0.6277 0.0
H1044 H 0.89874 0.05081 0.4073 0.0
H1045 H 0.92223 0.09941 0.49879 0.0
H1046 H 0.86393 0.08041 0.61975 0.0
C1047 C 0.81371 0.96752 0.42731 0.0
C1048 C 0.81674 0.94895 0.36951 0.0
C1049 C 0.83762 0.96098 0.33798 0.0
C1050 C 0.85516 0.99048 0.3628 0.0
C1051 C 0.85193 1.00812 0.42048 0.0
C1052 C 0.8318 0.99724 0.45277 0.0
C1053 C 0.83389 0.02091 0.5191 0.0
C1054 C 0.815 0.02733 0.48997 0.0
C1055 C 0.83254 1.01247 0.60729 0.0
C1056 C 0.85835 0.04653 0.5193 0.0
C1057 C 0.86823 0.03846 0.4612 0.0
C1058 C 0.89103 0.05745 0.45208 0.0
C1059 C 0.90427 0.08515 0.50431 0.0
C1060 C 0.89491 0.09418 0.56524 0.0
C1061 C 0.8714 0.07459 0.57197 0.0
H1062 H 1.00552 0.68271 0.62519 0.0
H1063 H 0.99819 0.75614 0.66868 0.0
H1064 H 0.03522 0.78637 0.62299 0.0
H1065 H 0.06676 0.72238 0.70938 0.0
H1066 H 0.07349 0.70268 0.63401 0.0
H1067 H 0.04494 0.68532 0.65982 0.0
H1068 H 1.02554 0.67267 0.50003 0.0
H1069 H 0.05395 0.68976 0.47302 0.0
H1070 H 0.03418 0.70097 0.43917 0.0
H1071 H 0.07417 0.80989 0.58543 0.0
H1072 H 0.11256 0.82531 0.55162 0.0
H1073 H 0.09642 0.73756 0.53172 0.0
C1074 C 1.0115 0.70494 0.62264 0.0
C1075 C 0.99886 0.71709 0.64904 0.0
C1076 C 1.00753 0.74645 0.64773 0.0
C1077 C 0.02855 0.76379 0.62201 0.0
C1078 C 0.04101 0.7516 0.59857 0.0
C1079 C 0.03287 0.72286 0.59812 0.0
C1080 C 0.05076 0.71605 0.5754 0.0
C1081 C 0.0595 0.70602 0.64905 0.0
C1082 C 0.04048 0.69352 0.49187 0.0
C1083 C 0.07012 0.74543 0.56386 0.0
C1084 C 0.06397 0.7655 0.57742 0.0
C1085 C 0.07904 0.79427 0.57323 0.0
C1086 C 0.10085 0.8028 0.55346 0.0
C1087 C 0.10764 0.78272 0.53746 0.0
C1088 C 0.09196 0.75359 0.54357 0.0
loop_
_geom_bond_atom_site_label_1
_geom_bond_atom_site_label_2
_geom_bond_distance
_geom_bond_site_symmetry_2
_ccdc_geom_bond_type
Pr0 C2 2.880 . S
Pr0 O20 2.562 . S
Pr0 O21 2.490 . S
Pr0 O22 2.695 1_554 S
Pr0 O23 2.512 1_554 S
Pr0 O25 2.437 . S
Pr0 O28 2.436 . S
Pr0 O30 2.438 . S
Pr1 C11 2.880 . S
Pr1 O22 2.436 1_554 S
Pr1 O24 2.438 . S
Pr1 O26 2.562 1_554 S
Pr1 O27 2.490 1_455 S
Pr1 O28 2.695 . S
Pr1 O29 2.512 . S
Pr1 O31 2.437 . S
C2 Pr0 2.880 . S
C2 C3 1.491 . S
C2 O20 1.254 . S
C2 O21 1.225 . S
C3 C2 1.491 . S
C3 C4 1.392 . S
C3 C8 1.356 . S
C4 C3 1.392 . S
C4 C5 1.368 . S
C4 H32 0.929 . S
C5 C4 1.368 . S
C5 C6 1.386 . S
C5 H33 0.929 . S
C6 C5 1.386 . S
C6 C7 1.373 . S
C7 C6 1.373 . S
C7 C8 1.409 . S
C7 H34 0.931 . S
C8 C3 1.356 . S
C8 C7 1.409 . S
C8 H35 0.930 . S
C9 O22 1.270 . S
C9 O23 1.248 . S
C10 O24 1.267 . S
C10 O25 1.278 . S
C11 Pr1 2.880 . S
C11 C12 1.491 1_455 S
C11 O26 1.254 1_554 S
C11 O27 1.225 1_455 S
C12 C11 1.491 1_655 S
C12 C13 1.392 . S
C12 C17 1.356 1_654 S
C13 C12 1.392 . S
C13 C14 1.368 . S
C13 H36 0.929 . S
C14 C13 1.368 . S
C14 C15 1.375 1_554 S
C14 H37 0.929 . S
C15 C14 1.375 1_556 S
C15 C16 1.382 . S
C16 C15 1.382 . S
C16 C17 1.409 1_655 S
C16 H38 0.929 1_655 S
C17 C12 1.356 1_456 S
C17 C16 1.409 1_455 S
C17 H39 0.930 . S
C18 O28 1.270 . S
C18 O29 1.248 . S
C19 O30 1.267 . S
C19 O31 1.278 . S
O20 Pr0 2.562 . S
O20 C2 1.254 . S
O21 Pr0 2.490 . S
O21 C2 1.225 . S
O22 Pr0 2.695 1_556 S
O22 Pr1 2.436 1_556 S
O22 C9 1.270 . S
O23 Pr0 2.512 1_556 S
O23 C9 1.248 . S
O24 Pr1 2.438 . S
O24 C10 1.267 . S
O25 Pr0 2.437 . S
O25 C10 1.278 . S
O26 Pr1 2.562 1_556 S
O26 C11 1.254 1_556 S
O27 Pr1 2.490 1_655 S
O27 C11 1.225 1_655 S
O28 Pr0 2.436 . S
O28 Pr1 2.695 . S
O28 C18 1.270 . S
O29 Pr1 2.512 . S
O29 C18 1.248 . S
O30 Pr0 2.438 . S
O30 C19 1.267 . S
O31 Pr1 2.437 . S
O31 C19 1.278 . S
H32 C4 0.929 . S
H33 C5 0.929 . S
H34 C7 0.931 . S
H35 C8 0.930 . S
H36 C13 0.929 . S
H37 C14 0.929 . S
H38 C16 0.929 1_455 S
H39 C17 0.930 . S
Pr40 C42 2.880 . S
Pr40 O60 2.562 . S
Pr40 O61 2.490 . S
Pr40 O62 2.695 . S
Pr40 O63 2.512 . S
Pr40 O65 2.437 . S
Pr40 O68 2.436 . S
Pr40 O70 2.438 . S
Pr41 C51 2.880 . S
Pr41 O62 2.436 . S
Pr41 O64 2.438 . S
Pr41 O66 2.562 . S
Pr41 O67 2.490 . S
Pr41 O68 2.695 . S
Pr41 O69 2.512 1_554 S
Pr41 O71 2.437 . S
C42 Pr40 2.880 . S
C42 C43 1.491 . S
C42 O60 1.254 . S
C42 O61 1.225 . S
C43 C42 1.491 . S
C43 C44 1.392 . S
C43 C48 1.356 . S
C44 C43 1.392 . S
C44 C45 1.368 . S
C44 H72 0.929 . S
C45 C44 1.368 . S
C45 C46 1.386 . S
C45 H73 0.929 . S
C46 C45 1.386 . S
C46 C47 1.373 . S
C47 C46 1.373 . S
C47 C48 1.409 . S
C47 H74 0.931 . S
C48 C43 1.356 . S
C48 C47 1.409 . S
C48 H75 0.930 . S
C49 O62 1.270 . S
C49 O63 1.248 . S
C50 O64 1.267 . S
C50 O65 1.278 . S
C51 Pr41 2.880 . S
C51 C52 1.491 . S
C51 O66 1.254 . S
C51 O67 1.225 . S
C52 C51 1.491 . S
C52 C53 1.392 . S
C52 C57 1.356 . S
C53 C52 1.392 . S
C53 C54 1.368 . S
C53 H76 0.929 . S
C54 C53 1.368 . S
C54 C55 1.386 . S
C54 H77 0.929 . S
C55 C54 1.386 . S
C55 C56 1.373 . S
C56 C55 1.373 . S
C56 C57 1.409 . S
C56 H78 0.931 . S
C57 C52 1.356 . S
C57 C56 1.409 . S
C57 H79 0.930 . S
C58 O68 1.270 1_556 S
C58 O69 1.248 . S
C59 O70 1.267 . S
C59 O71 1.278 . S
O60 Pr40 2.562 . S
O60 C42 1.254 . S
O61 Pr40 2.490 . S
O61 C42 1.225 . S
O62 Pr40 2.695 . S
O62 Pr41 2.436 . S
O62 C49 1.270 . S
O63 Pr40 2.512 . S
O63 C49 1.248 . S
O64 Pr41 2.438 . S
O64 C50 1.267 . S
O65 Pr40 2.437 . S
O65 C50 1.278 . S
O66 Pr41 2.562 . S
O66 C51 1.254 . S
O67 Pr41 2.490 . S
O67 C51 1.225 . S
O68 Pr40 2.436 . S
O68 Pr41 2.695 . S
O68 C58 1.270 1_554 S
O69 Pr41 2.512 1_556 S
O69 C58 1.248 . S
O70 Pr40 2.438 . S
O70 C59 1.267 . S
O71 Pr41 2.437 . S
O71 C59 1.278 . S
H72 C44 0.929 . S
H73 C45 0.929 . S
H74 C47 0.931 . S
H75 C48 0.930 . S
H76 C53 0.929 . S
H77 C54 0.929 . S
H78 C56 0.931 . S
H79 C57 0.930 . S
Pr80 C82 2.880 . S
Pr80 O100 2.562 . S
Pr80 O101 2.490 . S
Pr80 O102 2.695 . S
Pr80 O103 2.512 . S
Pr80 O105 2.437 . S
Pr80 O108 2.436 . S
Pr80 O110 2.438 . S
Pr81 C91 2.880 . S
Pr81 O102 2.436 . S
Pr81 O104 2.438 . S
Pr81 O106 2.562 . S
Pr81 O107 2.490 . S
Pr81 O108 2.695 . S
Pr81 O109 2.512 . S
Pr81 O111 2.437 . S
C82 Pr80 2.880 . S
C82 C83 1.491 . S
C82 O100 1.254 . S
C82 O101 1.225 . S
C83 C82 1.491 . S
C83 C84 1.392 . S
C83 C88 1.356 . S
C84 C83 1.392 . S
C84 C85 1.368 . S
C84 H112 0.929 . S
C85 C84 1.368 . S
C85 C86 1.386 . S
C85 H113 0.929 . S
C86 C85 1.386 . S
C86 C87 1.373 . S
C87 C86 1.373 . S
C87 C88 1.409 . S
C87 H114 0.931 . S
C88 C83 1.356 . S
C88 C87 1.409 . S
C88 H115 0.930 . S
C89 O102 1.270 . S
C89 O103 1.248 . S
C90 O104 1.267 . S
C90 O105 1.278 . S
C91 Pr81 2.880 . S
C91 C92 1.491 . S
C91 O106 1.254 . S
C91 O107 1.225 . S
C92 C91 1.491 . S
C92 C93 1.392 . S
C92 C97 1.356 . S
C93 C92 1.392 . S
C93 C94 1.368 . S
C93 H116 0.929 . S
C94 C93 1.368 . S
C94 C95 1.386 . S
C94 H117 0.929 . S
C95 C94 1.386 . S
C95 C96 1.373 . S
C96 C95 1.373 . S
C96 C97 1.409 . S
C96 H118 0.931 . S
C97 C92 1.356 . S
C97 C96 1.409 . S
C97 H119 0.930 . S
C98 O108 1.270 . S
C98 O109 1.248 . S
C99 O110 1.267 . S
C99 O111 1.278 . S
O100 Pr80 2.562 . S
O100 C82 1.254 . S
O101 Pr80 2.490 . S
O101 C82 1.225 . S
O102 Pr80 2.695 . S
O102 Pr81 2.436 . S
O102 C89 1.270 . S
O103 Pr80 2.512 . S
O103 C89 1.248 . S
O104 Pr81 2.438 . S
O104 C90 1.267 . S
O105 Pr80 2.437 . S
O105 C90 1.278 . S
O106 Pr81 2.562 . S
O106 C91 1.254 . S
O107 Pr81 2.490 . S
O107 C91 1.225 . S
O108 Pr80 2.436 . S
O108 Pr81 2.695 . S
O108 C98 1.270 . S
O109 Pr81 2.512 . S
O109 C98 1.248 . S
O110 Pr80 2.438 . S
O110 C99 1.267 . S
O111 Pr81 2.437 . S
O111 C99 1.278 . S
H112 C84 0.929 . S
H113 C85 0.929 . S
H114 C87 0.931 . S
H115 C88 0.930 . S
H116 C93 0.929 . S
H117 C94 0.929 . S
H118 C96 0.931 . S
H119 C97 0.930 . S
Pr120 C122 2.880 . S
Pr120 O140 2.562 . S
Pr120 O141 2.490 . S
Pr120 O142 2.695 . S
Pr120 O143 2.512 . S
Pr120 O145 2.437 . S
Pr120 O148 2.436 . S
Pr120 O150 2.438 . S
Pr121 C131 2.880 . S
Pr121 O142 2.436 . S
Pr121 O144 2.438 . S
Pr121 O146 2.562 . S
Pr121 O147 2.490 . S
Pr121 O148 2.695 . S
Pr121 O149 2.512 . S
Pr121 O151 2.437 . S
C122 Pr120 2.880 . S
C122 C123 1.491 . S
C122 O140 1.254 . S
C122 O141 1.225 . S
C123 C122 1.491 . S
C123 C124 1.392 . S
C123 C128 1.356 . S
C124 C123 1.392 . S
C124 C125 1.368 . S
C124 H152 0.929 . S
C125 C124 1.368 . S
C125 C126 1.386 . S
C125 H153 0.929 . S
C126 C125 1.386 . S
C126 C127 1.373 . S
C127 C126 1.373 . S
C127 C128 1.409 . S
C127 H154 0.931 . S
C128 C123 1.356 . S
C128 C127 1.409 . S
C128 H155 0.930 . S
C129 O142 1.270 . S
C129 O143 1.248 . S
C130 O144 1.267 . S
C130 O145 1.278 . S
C131 Pr121 2.880 . S
C131 C132 1.491 . S
C131 O146 1.254 . S
C131 O147 1.225 . S
C132 C131 1.491 . S
C132 C133 1.392 . S
C132 C137 1.356 . S
C133 C132 1.392 . S
C133 C134 1.368 . S
C133 H156 0.929 . S
C134 C133 1.368 . S
C134 C135 1.386 . S
C134 H157 0.929 . S
C135 C134 1.386 . S
C135 C136 1.373 . S
C136 C135 1.373 . S
C136 C137 1.409 . S
C136 H158 0.931 . S
C137 C132 1.356 . S
C137 C136 1.409 . S
C137 H159 0.930 . S
C138 O148 1.270 . S
C138 O149 1.248 . S
C139 O150 1.267 . S
C139 O151 1.278 . S
O140 Pr120 2.562 . S
O140 C122 1.254 . S
O141 Pr120 2.490 . S
O141 C122 1.225 . S
O142 Pr120 2.695 . S
O142 Pr121 2.436 . S
O142 C129 1.270 . S
O143 Pr120 2.512 . S
O143 C129 1.248 . S
O144 Pr121 2.438 . S
O144 C130 1.267 . S
O145 Pr120 2.437 . S
O145 C130 1.278 . S
O146 Pr121 2.562 . S
O146 C131 1.254 . S
O147 Pr121 2.490 . S
O147 C131 1.225 . S
O148 Pr120 2.436 . S
O148 Pr121 2.695 . S
O148 C138 1.270 . S
O149 Pr121 2.512 . S
O149 C138 1.248 . S
O150 Pr120 2.438 . S
O150 C139 1.267 . S
O151 Pr121 2.437 . S
O151 C139 1.278 . S
H152 C124 0.929 . S
H153 C125 0.929 . S
H154 C127 0.931 . S
H155 C128 0.930 . S
H156 C133 0.929 . S
H157 C134 0.929 . S
H158 C136 0.931 . S
H159 C137 0.930 . S
Pr160 C162 2.880 . S
Pr160 O180 2.562 . S
Pr160 O181 2.490 . S
Pr160 O182 2.695 . S
Pr160 O183 2.512 . S
Pr160 O185 2.437 . S
Pr160 O188 2.436 . S
Pr160 O190 2.438 . S
Pr161 C171 2.880 . S
Pr161 O182 2.436 . S
Pr161 O184 2.438 . S
Pr161 O186 2.562 . S
Pr161 O187 2.490 . S
Pr161 O188 2.695 . S
Pr161 O189 2.512 . S
Pr161 O191 2.437 . S
C162 Pr160 2.880 . S
C162 C163 1.491 . S
C162 O180 1.254 . S
C162 O181 1.225 . S
C163 C162 1.491 . S
C163 C164 1.392 . S
C163 C168 1.356 . S
C164 C163 1.392 . S
C164 C165 1.368 . S
C164 H192 0.929 . S
C165 C164 1.368 . S
C165 C166 1.386 . S
C165 H193 0.929 . S
C166 C165 1.386 . S
C166 C167 1.373 . S
C167 C166 1.373 . S
C167 C168 1.409 . S
C167 H194 0.931 . S
C168 C163 1.356 . S
C168 C167 1.409 . S
C168 H195 0.930 . S
C169 O182 1.270 . S
C169 O183 1.248 . S
C170 O184 1.267 . S
C170 O185 1.278 . S
C171 Pr161 2.880 . S
C171 C172 1.491 . S
C171 O186 1.254 . S
C171 O187 1.225 . S
C172 C171 1.491 . S
C172 C173 1.392 . S
C172 C177 1.356 . S
C173 C172 1.392 . S
C173 C174 1.368 . S
C173 H196 0.929 . S
C174 C173 1.368 . S
C174 C175 1.386 . S
C174 H197 0.929 . S
C175 C174 1.386 . S
C175 C176 1.373 . S
C176 C175 1.373 . S
C176 C177 1.409 . S
C176 H198 0.931 . S
C177 C172 1.356 . S
C177 C176 1.409 . S
C177 H199 0.930 . S
C178 O188 1.270 . S
C178 O189 1.248 . S
C179 O190 1.267 . S
C179 O191 1.278 . S
O180 Pr160 2.562 . S
O180 C162 1.254 . S
O181 Pr160 2.490 . S
O181 C162 1.225 . S
O182 Pr160 2.695 . S
O182 Pr161 2.436 . S
O182 C169 1.270 . S
O183 Pr160 2.512 . S
O183 C169 1.248 . S
O184 Pr161 2.438 . S
O184 C170 1.267 . S
O185 Pr160 2.437 . S
O185 C170 1.278 . S
O186 Pr161 2.562 . S
O186 C171 1.254 . S
O187 Pr161 2.490 . S
O187 C171 1.225 . S
O188 Pr160 2.436 . S
O188 Pr161 2.695 . S
O188 C178 1.270 . S
O189 Pr161 2.512 . S
O189 C178 1.248 . S
O190 Pr160 2.438 . S
O190 C179 1.267 . S
O191 Pr161 2.437 . S
O191 C179 1.278 . S
H192 C164 0.929 . S
H193 C165 0.929 . S
H194 C167 0.931 . S
H195 C168 0.930 . S
H196 C173 0.929 . S
H197 C174 0.929 . S
H198 C176 0.931 . S
H199 C177 0.930 . S
Pr200 C202 2.880 . S
Pr200 O220 2.562 . S
Pr200 O221 2.490 . S
Pr200 O222 2.695 . S
Pr200 O223 2.512 . S
Pr200 O225 2.437 . S
Pr200 O228 2.436 . S
Pr200 O230 2.438 . S
Pr201 C211 2.880 . S
Pr201 O222 2.436 . S
Pr201 O224 2.438 . S
Pr201 O226 2.562 . S
Pr201 O227 2.490 . S
Pr201 O228 2.695 . S
Pr201 O229 2.512 . S
Pr201 O231 2.437 . S
C202 Pr200 2.880 . S
C202 C203 1.491 . S
C202 O220 1.254 . S
C202 O221 1.225 . S
C203 C202 1.491 . S
C203 C204 1.392 . S
C203 C208 1.356 . S
C204 C203 1.392 . S
C204 C205 1.368 . S
C204 H232 0.929 . S
C205 C204 1.368 . S
C205 C206 1.386 . S
C205 H233 0.929 . S
C206 C205 1.386 . S
C206 C207 1.373 . S
C207 C206 1.373 . S
C207 C208 1.409 . S
C207 H234 0.931 . S
C208 C203 1.356 . S
C208 C207 1.409 . S
C208 H235 0.930 . S
C209 O222 1.270 . S
C209 O223 1.248 . S
C210 O224 1.267 . S
C210 O225 1.278 . S
C211 Pr201 2.880 . S
C211 C212 1.491 . S
C211 O226 1.254 . S
C211 O227 1.225 . S
C212 C211 1.491 . S
C212 C213 1.392 . S
C212 C217 1.356 . S
C213 C212 1.392 . S
C213 C214 1.368 . S
C213 H236 0.929 . S
C214 C213 1.368 . S
C214 C215 1.386 . S
C214 H237 0.929 . S
C215 C214 1.386 . S
C215 C216 1.373 . S
C216 C215 1.373 . S
C216 C217 1.409 . S
C216 H238 0.931 . S
C217 C212 1.356 . S
C217 C216 1.409 . S
C217 H239 0.930 . S
C218 O228 1.270 . S
C218 O229 1.248 . S
C219 O230 1.267 . S
C219 O231 1.278 . S
O220 Pr200 2.562 . S
O220 C202 1.254 . S
O221 Pr200 2.490 . S
O221 C202 1.225 . S
O222 Pr200 2.695 . S
O222 Pr201 2.436 . S
O222 C209 1.270 . S
O223 Pr200 2.512 . S
O223 C209 1.248 . S
O224 Pr201 2.438 . S
O224 C210 1.267 . S
O225 Pr200 2.437 . S
O225 C210 1.278 . S
O226 Pr201 2.562 . S
O226 C211 1.254 . S
O227 Pr201 2.490 . S
O227 C211 1.225 . S
O228 Pr200 2.436 . S
O228 Pr201 2.695 . S
O228 C218 1.270 . S
O229 Pr201 2.512 . S
O229 C218 1.248 . S
O230 Pr200 2.438 . S
O230 C219 1.267 . S
O231 Pr201 2.437 . S
O231 C219 1.278 . S
H232 C204 0.929 . S
H233 C205 0.929 . S
H234 C207 0.931 . S
H235 C208 0.930 . S
H236 C213 0.929 . S
H237 C214 0.929 . S
H238 C216 0.931 . S
H239 C217 0.930 . S
Pr240 C242 2.880 . S
Pr240 O260 2.562 . S
Pr240 O261 2.490 . S
Pr240 O262 2.695 . S
Pr240 O263 2.512 . S
Pr240 O265 2.437 . S
Pr240 O268 2.436 . S
Pr240 O270 2.438 . S
Pr241 C251 2.880 . S
Pr241 O262 2.436 . S
Pr241 O264 2.438 . S
Pr241 O266 2.562 . S
Pr241 O267 2.490 . S
Pr241 O268 2.695 . S
Pr241 O269 2.512 . S
Pr241 O271 2.437 . S
C242 Pr240 2.880 . S
C242 C243 1.491 . S
C242 O260 1.254 . S
C242 O261 1.225 . S
C243 C242 1.491 . S
C243 C244 1.392 . S
C243 C248 1.356 . S
C244 C243 1.392 . S
C244 C245 1.368 . S
C244 H272 0.929 . S
C245 C244 1.368 . S
C245 C246 1.386 . S
C245 H273 0.929 . S
C246 C245 1.386 . S
C246 C247 1.373 . S
C247 C246 1.373 . S
C247 C248 1.409 . S
C247 H274 0.931 . S
C248 C243 1.356 . S
C248 C247 1.409 . S
C248 H275 0.930 . S
C249 O262 1.270 . S
C249 O263 1.248 . S
C250 O264 1.267 . S
C250 O265 1.278 . S
C251 Pr241 2.880 . S
C251 C252 1.491 1_556 S
C251 O266 1.254 . S
C251 O267 1.225 . S
C252 C251 1.491 1_554 S
C252 C253 1.392 . S
C252 C257 1.356 . S
C253 C252 1.392 . S
C253 C254 1.368 . S
C253 H276 0.930 . S
C254 C253 1.368 . S
C254 C255 1.386 . S
C254 H277 0.929 . S
C255 C254 1.386 . S
C255 C256 1.373 . S
C256 C255 1.373 . S
C256 C257 1.409 . S
C256 H278 0.931 . S
C257 C252 1.356 . S
C257 C256 1.409 . S
C257 H279 0.930 . S
C258 O268 1.270 . S
C258 O269 1.248 . S
C259 O270 1.267 . S
C259 O271 1.278 . S
O260 Pr240 2.562 . S
O260 C242 1.254 . S
O261 Pr240 2.490 . S
O261 C242 1.225 . S
O262 Pr240 2.695 . S
O262 Pr241 2.436 . S
O262 C249 1.270 . S
O263 Pr240 2.512 . S
O263 C249 1.248 . S
O264 Pr241 2.438 . S
O264 C250 1.267 . S
O265 Pr240 2.437 . S
O265 C250 1.278 . S
O266 Pr241 2.562 . S
O266 C251 1.254 . S
O267 Pr241 2.490 . S
O267 C251 1.225 . S
O268 Pr240 2.436 . S
O268 Pr241 2.695 . S
O268 C258 1.270 . S
O269 Pr241 2.512 . S
O269 C258 1.248 . S
O270 Pr240 2.438 . S
O270 C259 1.267 . S
O271 Pr241 2.437 . S
O271 C259 1.278 . S
H272 C244 0.929 . S
H273 C245 0.929 . S
H274 C247 0.931 . S
H275 C248 0.930 . S
H276 C253 0.930 . S
H277 C254 0.929 . S
H278 C256 0.931 . S
H279 C257 0.930 . S
Pr280 C282 2.880 . S
Pr280 O300 2.562 . S
Pr280 O301 2.490 . S
Pr280 O302 2.695 . S
Pr280 O303 2.512 . S
Pr280 O305 2.437 . S
Pr280 O308 2.436 . S
Pr280 O310 2.438 . S
Pr281 C291 2.880 . S
Pr281 O302 2.436 . S
Pr281 O304 2.438 . S
Pr281 O306 2.562 . S
Pr281 O307 2.490 . S
Pr281 O308 2.695 . S
Pr281 O309 2.512 . S
Pr281 O311 2.437 . S
C282 Pr280 2.880 . S
C282 C283 1.491 1_556 S
C282 O300 1.254 . S
C282 O301 1.225 . S
C283 C282 1.491 1_554 S
C283 C284 1.392 . S
C283 C288 1.356 . S
C284 C283 1.392 . S
C284 C285 1.368 . S
C284 H312 0.929 . S
C285 C284 1.368 . S
C285 C286 1.386 . S
C285 H313 0.929 . S
C286 C285 1.386 . S
C286 C287 1.373 . S
C287 C286 1.373 . S
C287 C288 1.409 . S
C287 H314 0.931 . S
C288 C283 1.356 . S
C288 C287 1.409 . S
C288 H315 0.930 . S
C289 O302 1.270 . S
C289 O303 1.248 . S
C290 O304 1.267 . S
C290 O305 1.278 . S
C291 Pr281 2.880 . S
C291 C292 1.491 . S
C291 O306 1.254 . S
C291 O307 1.225 . S
C292 C291 1.491 . S
C292 C293 1.392 . S
C292 C297 1.356 . S
C293 C292 1.392 . S
C293 C294 1.368 . S
C293 H316 0.929 . S
C294 C293 1.368 . S
C294 C295 1.386 . S
C294 H317 0.929 . S
C295 C294 1.386 . S
C295 C296 1.373 . S
C296 C295 1.373 . S
C296 C297 1.409 . S
C296 H318 0.931 . S
C297 C292 1.356 . S
C297 C296 1.409 . S
C297 H319 0.930 . S
C298 O308 1.270 . S
C298 O309 1.248 . S
C299 O310 1.267 . S
C299 O311 1.278 . S
O300 Pr280 2.562 . S
O300 C282 1.254 . S
O301 Pr280 2.490 . S
O301 C282 1.225 . S
O302 Pr280 2.695 . S
O302 Pr281 2.436 . S
O302 C289 1.270 . S
O303 Pr280 2.512 . S
O303 C289 1.248 . S
O304 Pr281 2.438 . S
O304 C290 1.267 . S
O305 Pr280 2.437 . S
O305 C290 1.278 . S
O306 Pr281 2.562 . S
O306 C291 1.254 . S
O307 Pr281 2.490 . S
O307 C291 1.225 . S
O308 Pr280 2.436 . S
O308 Pr281 2.695 . S
O308 C298 1.270 . S
O309 Pr281 2.512 . S
O309 C298 1.248 . S
O310 Pr280 2.438 . S
O310 C299 1.267 . S
O311 Pr281 2.437 . S
O311 C299 1.278 . S
H312 C284 0.929 . S
H313 C285 0.929 . S
H314 C287 0.931 . S
H315 C288 0.930 . S
H316 C293 0.929 . S
H317 C294 0.929 . S
H318 C296 0.931 . S
H319 C297 0.930 . S
Pr320 C322 2.880 . S
Pr320 O340 2.562 . S
Pr320 O341 2.490 . S
Pr320 O342 2.695 . S
Pr320 O343 2.512 . S
Pr320 O345 2.437 . S
Pr320 O348 2.436 . S
Pr320 O350 2.438 . S
Pr321 C331 2.880 . S
Pr321 O342 2.436 . S
Pr321 O344 2.438 . S
Pr321 O346 2.562 . S
Pr321 O347 2.490 . S
Pr321 O348 2.695 . S
Pr321 O349 2.512 . S
Pr321 O351 2.437 . S
C322 Pr320 2.880 . S
C322 C323 1.491 . S
C322 O340 1.254 . S
C322 O341 1.225 . S
C323 C322 1.491 . S
C323 C324 1.392 . S
C323 C328 1.356 . S
C324 C323 1.392 . S
C324 C325 1.368 . S
C324 H352 0.929 . S
C325 C324 1.368 . S
C325 C326 1.386 . S
C325 H353 0.929 . S
C326 C325 1.386 . S
C326 C327 1.373 . S
C327 C326 1.373 . S
C327 C328 1.409 . S
C327 H354 0.931 . S
C328 C323 1.356 . S
C328 C327 1.409 . S
C328 H355 0.930 . S
C329 O342 1.270 . S
C329 O343 1.248 . S
C330 O344 1.267 . S
C330 O345 1.278 . S
C331 Pr321 2.880 . S
C331 C332 1.491 1_556 S
C331 O346 1.254 . S
C331 O347 1.225 . S
C332 C331 1.491 1_554 S
C332 C333 1.392 . S
C332 C337 1.356 . S
C333 C332 1.392 . S
C333 C334 1.368 . S
C333 H356 0.929 . S
C334 C333 1.368 . S
C334 C335 1.386 . S
C334 H357 0.929 . S
C335 C334 1.386 . S
C335 C336 1.373 . S
C336 C335 1.373 . S
C336 C337 1.409 . S
C336 H358 0.931 . S
C337 C332 1.356 . S
C337 C336 1.409 . S
C337 H359 0.930 . S
C338 O348 1.270 . S
C338 O349 1.248 . S
C339 O350 1.267 . S
C339 O351 1.278 . S
O340 Pr320 2.562 . S
O340 C322 1.254 . S
O341 Pr320 2.490 . S
O341 C322 1.225 . S
O342 Pr320 2.695 . S
O342 Pr321 2.436 . S
O342 C329 1.270 . S
O343 Pr320 2.512 . S
O343 C329 1.248 . S
O344 Pr321 2.438 . S
O344 C330 1.267 . S
O345 Pr320 2.437 . S
O345 C330 1.278 . S
O346 Pr321 2.562 . S
O346 C331 1.254 . S
O347 Pr321 2.490 . S
O347 C331 1.225 . S
O348 Pr320 2.436 . S
O348 Pr321 2.695 . S
O348 C338 1.270 . S
O349 Pr321 2.512 . S
O349 C338 1.248 . S
O350 Pr320 2.438 . S
O350 C339 1.267 . S
O351 Pr321 2.437 . S
O351 C339 1.278 . S
H352 C324 0.929 . S
H353 C325 0.929 . S
H354 C327 0.931 . S
H355 C328 0.930 . S
H356 C333 0.929 . S
H357 C334 0.929 . S
H358 C336 0.931 . S
H359 C337 0.930 . S
H360 C372 0.930 . S
H361 C374 0.930 . S
H362 C375 0.930 . S
H363 C379 0.959 . S
H364 C379 0.959 . S
H365 C379 0.961 . S
H366 C380 0.960 . S
H367 C380 0.961 . S
H368 C380 0.916 1_655 S
H369 C383 0.929 . S
H370 C384 0.931 . S
H371 C386 0.930 . S
C372 H360 0.930 . S
C372 C373 1.399 . S
C372 C377 1.399 . S
C373 C372 1.399 . S
C373 C374 1.376 . S
C374 H361 0.930 . S
C374 C373 1.376 . S
C374 C375 1.388 . S
C375 H362 0.930 . S
C375 C374 1.388 . S
C375 C376 1.390 . S
C376 C375 1.390 . S
C376 C377 1.394 . S
C376 C382 1.465 . S
C377 C372 1.399 . S
C377 C376 1.394 . S
C377 C378 1.516 . S
C378 C377 1.516 . S
C378 C379 1.502 . S
C378 C380 1.561 . S
C378 C381 1.526 . S
C379 H363 0.959 . S
C379 H364 0.959 . S
C379 H365 0.961 . S
C379 C378 1.502 . S
C380 H366 0.960 . S
C380 H367 0.961 . S
C380 H368 0.916 1_455 S
C380 C378 1.561 . S
C381 C378 1.526 . S
C381 C382 1.396 . S
C381 C386 1.390 . S
C382 C376 1.465 . S
C382 C381 1.396 . S
C382 C383 1.399 . S
C383 H369 0.929 . S
C383 C382 1.399 . S
C383 C384 1.385 . S
C384 H370 0.931 . S
C384 C383 1.385 . S
C384 C385 1.389 . S
C385 C384 1.389 . S
C385 C386 1.387 . S
C386 H371 0.930 . S
C386 C381 1.390 . S
C386 C385 1.387 . S
H387 C399 0.930 . S
H388 C401 0.930 . S
H389 C402 0.930 . S
H390 C406 0.959 . S
H391 C406 0.959 . S
H392 C406 0.961 . S
H393 C407 0.960 . S
H394 C407 0.961 . S
H395 C407 0.959 . S
H396 C410 0.929 . S
H397 C411 0.931 . S
H398 C413 0.930 . S
C399 H387 0.930 . S
C399 C400 1.399 . S
C399 C404 1.399 . S
C400 C399 1.399 . S
C400 C401 1.376 . S
C401 H388 0.930 . S
C401 C400 1.376 . S
C401 C402 1.388 . S
C402 H389 0.930 . S
C402 C401 1.388 . S
C402 C403 1.390 . S
C403 C402 1.390 . S
C403 C404 1.394 . S
C403 C409 1.465 . S
C404 C399 1.399 . S
C404 C403 1.394 . S
C404 C405 1.516 . S
C405 C404 1.516 . S
C405 C406 1.502 . S
C405 C407 1.561 . S
C405 C408 1.526 . S
C406 H390 0.959 . S
C406 H391 0.959 . S
C406 H392 0.961 . S
C406 C405 1.502 . S
C407 H393 0.960 . S
C407 H394 0.961 . S
C407 H395 0.959 . S
C407 C405 1.561 . S
C408 C405 1.526 . S
C408 C409 1.396 . S
C408 C413 1.390 . S
C409 C403 1.465 . S
C409 C408 1.396 . S
C409 C410 1.399 . S
C410 H396 0.929 . S
C410 C409 1.399 . S
C410 C411 1.385 . S
C411 H397 0.931 . S
C411 C410 1.385 . S
C411 C412 1.389 . S
C412 C411 1.389 . S
C412 C413 1.387 . S
C413 H398 0.930 . S
C413 C408 1.390 . S
C413 C412 1.387 . S
H414 C426 0.930 . S
H415 C428 0.930 . S
H416 C429 0.930 . S
H417 C433 0.959 . S
H418 C433 0.959 . S
H419 C433 0.961 . S
H420 C434 0.960 . S
H421 C434 0.961 . S
H422 C434 0.959 . S
H423 C437 0.929 . S
H424 C438 0.931 . S
H425 C440 0.930 . S
C426 H414 0.930 . S
C426 C427 1.399 . S
C426 C431 1.399 . S
C427 C426 1.399 . S
C427 C428 1.376 . S
C428 H415 0.930 . S
C428 C427 1.376 . S
C428 C429 1.388 . S
C429 H416 0.930 . S
C429 C428 1.388 . S
C429 C430 1.390 . S
C430 C429 1.390 . S
C430 C431 1.394 . S
C430 C436 1.465 . S
C431 C426 1.399 . S
C431 C430 1.394 . S
C431 C432 1.516 . S
C432 C431 1.516 . S
C432 C433 1.502 . S
C432 C434 1.561 . S
C432 C435 1.526 . S
C433 H417 0.959 . S
C433 H418 0.959 . S
C433 H419 0.961 . S
C433 C432 1.502 . S
C434 H420 0.960 . S
C434 H421 0.961 . S
C434 H422 0.959 . S
C434 C432 1.561 . S
C435 C432 1.526 . S
C435 C436 1.396 . S
C435 C440 1.390 . S
C436 C430 1.465 . S
C436 C435 1.396 . S
C436 C437 1.399 . S
C437 H423 0.929 . S
C437 C436 1.399 . S
C437 C438 1.385 . S
C438 H424 0.931 . S
C438 C437 1.385 . S
C438 C439 1.389 . S
C439 C438 1.389 . S
C439 C440 1.387 . S
C440 H425 0.930 . S
C440 C435 1.390 . S
C440 C439 1.387 . S
H441 C453 0.930 . S
H442 C455 0.930 . S
H443 C456 0.930 . S
H444 C460 0.959 . S
H445 C460 0.959 . S
H446 C460 0.961 . S
H447 C461 0.960 . S
H448 C461 0.961 . S
H449 C461 0.959 . S
H450 C464 0.929 . S
H451 C465 0.931 . S
H452 C467 0.930 . S
C453 H441 0.930 . S
C453 C454 1.399 . S
C453 C458 1.399 . S
C454 C453 1.399 . S
C454 C455 1.376 . S
C455 H442 0.930 . S
C455 C454 1.376 . S
C455 C456 1.388 . S
C456 H443 0.930 . S
C456 C455 1.388 . S
C456 C457 1.390 . S
C457 C456 1.390 . S
C457 C458 1.394 . S
C457 C463 1.465 . S
C458 C453 1.399 . S
C458 C457 1.394 . S
C458 C459 1.516 . S
C459 C458 1.516 . S
C459 C460 1.502 . S
C459 C461 1.561 . S
C459 C462 1.526 . S
C460 H444 0.959 . S
C460 H445 0.959 . S
C460 H446 0.961 . S
C460 C459 1.502 . S
C461 H447 0.960 . S
C461 H448 0.961 . S
C461 H449 0.959 . S
C461 C459 1.561 . S
C462 C459 1.526 . S
C462 C463 1.396 . S
C462 C467 1.390 . S
C463 C457 1.465 . S
C463 C462 1.396 . S
C463 C464 1.399 . S
C464 H450 0.929 . S
C464 C463 1.399 . S
C464 C465 1.385 1_556 S
C465 H451 0.931 . S
C465 C464 1.385 1_554 S
C465 C466 1.389 . S
C466 C465 1.389 . S
C466 C467 1.387 1_554 S
C467 H452 0.930 . S
C467 C462 1.390 . S
C467 C466 1.387 1_556 S
H468 C480 0.930 . S
H469 C482 0.930 . S
H470 C483 0.930 . S
H471 C487 0.959 . S
H472 C487 0.959 . S
H473 C487 0.961 . S
H474 C488 0.960 . S
H475 C488 0.961 . S
H476 C488 0.959 . S
H477 C491 0.929 . S
H478 C492 0.931 . S
H479 C494 0.930 . S
C480 H468 0.930 . S
C480 C481 1.399 . S
C480 C485 1.399 . S
C481 C480 1.399 . S
C481 C482 1.376 . S
C482 H469 0.930 . S
C482 C481 1.376 . S
C482 C483 1.388 . S
C483 H470 0.930 . S
C483 C482 1.388 . S
C483 C484 1.390 . S
C484 C483 1.390 . S
C484 C485 1.394 . S
C484 C490 1.465 . S
C485 C480 1.399 . S
C485 C484 1.394 . S
C485 C486 1.516 . S
C486 C485 1.516 . S
C486 C487 1.502 . S
C486 C488 1.561 . S
C486 C489 1.526 . S
C487 H471 0.959 . S
C487 H472 0.959 . S
C487 H473 0.961 . S
C487 C486 1.502 . S
C488 H474 0.960 . S
C488 H475 0.961 . S
C488 H476 0.959 . S
C488 C486 1.561 . S
C489 C486 1.526 . S
C489 C490 1.396 . S
C489 C494 1.390 . S
C490 C484 1.465 . S
C490 C489 1.396 . S
C490 C491 1.399 . S
C491 H477 0.929 . S
C491 C490 1.399 . S
C491 C492 1.385 . S
C492 H478 0.931 . S
C492 C491 1.385 . S
C492 C493 1.389 . S
C493 C492 1.389 . S
C493 C494 1.387 . S
C494 H479 0.930 . S
C494 C489 1.390 . S
C494 C493 1.387 . S
H495 C507 0.930 . S
H496 C509 0.930 . S
H497 C510 0.930 . S
H498 C514 0.959 . S
H499 C514 0.959 . S
H500 C514 0.961 . S
H501 C515 0.960 . S
H502 C515 0.961 . S
H503 C515 0.959 . S
H504 C518 0.929 . S
H505 C519 0.931 . S
H506 C521 0.930 . S
C507 H495 0.930 . S
C507 C508 1.399 . S
C507 C512 1.399 . S
C508 C507 1.399 . S
C508 C509 1.376 . S
C509 H496 0.930 . S
C509 C508 1.376 . S
C509 C510 1.388 . S
C510 H497 0.930 . S
C510 C509 1.388 . S
C510 C511 1.390 . S
C511 C510 1.390 . S
C511 C512 1.394 . S
C511 C517 1.465 . S
C512 C507 1.399 . S
C512 C511 1.394 . S
C512 C513 1.516 . S
C513 C512 1.516 . S
C513 C514 1.502 . S
C513 C515 1.561 . S
C513 C516 1.526 . S
C514 H498 0.959 . S
C514 H499 0.959 . S
C514 H500 0.961 . S
C514 C513 1.502 . S
C515 H501 0.960 . S
C515 H502 0.961 . S
C515 H503 0.959 . S
C515 C513 1.561 . S
C516 C513 1.526 . S
C516 C517 1.396 . S
C516 C521 1.390 . S
C517 C511 1.465 . S
C517 C516 1.396 . S
C517 C518 1.399 . S
C518 H504 0.929 . S
C518 C517 1.399 . S
C518 C519 1.385 . S
C519 H505 0.931 . S
C519 C518 1.385 . S
C519 C520 1.389 . S
C520 C519 1.389 . S
C520 C521 1.387 . S
C521 H506 0.930 . S
C521 C516 1.390 . S
C521 C520 1.387 . S
H522 C534 0.930 . S
H523 C536 0.930 . S
H524 C537 0.930 . S
H525 C541 0.959 . S
H526 C541 0.959 . S
H527 C541 0.961 . S
H528 C542 0.960 . S
H529 C542 0.961 . S
H530 C542 0.959 . S
H531 C545 0.929 . S
H532 C546 0.931 . S
H533 C548 0.930 . S
C534 H522 0.930 . S
C534 C535 1.399 . S
C534 C539 1.399 . S
C535 C534 1.399 . S
C535 C536 1.376 . S
C536 H523 0.930 . S
C536 C535 1.376 . S
C536 C537 1.388 . S
C537 H524 0.930 . S
C537 C536 1.388 . S
C537 C538 1.390 . S
C538 C537 1.390 . S
C538 C539 1.394 . S
C538 C544 1.465 . S
C539 C534 1.399 . S
C539 C538 1.394 . S
C539 C540 1.516 . S
C540 C539 1.516 . S
C540 C541 1.502 . S
C540 C542 1.561 . S
C540 C543 1.526 . S
C541 H525 0.959 . S
C541 H526 0.959 . S
C541 H527 0.961 . S
C541 C540 1.502 . S
C542 H528 0.960 . S
C542 H529 0.961 . S
C542 H530 0.959 . S
C542 C540 1.561 . S
C543 C540 1.526 . S
C543 C544 1.396 . S
C543 C548 1.390 . S
C544 C538 1.465 . S
C544 C543 1.396 . S
C544 C545 1.399 . S
C545 H531 0.929 . S
C545 C544 1.399 . S
C545 C546 1.385 . S
C546 H532 0.931 . S
C546 C545 1.385 . S
C546 C547 1.389 . S
C547 C546 1.389 . S
C547 C548 1.387 . S
C548 H533 0.930 . S
C548 C543 1.390 . S
C548 C547 1.387 . S
H549 C561 0.930 . S
H550 C563 0.930 . S
H551 C564 0.930 . S
H552 C568 0.959 . S
H553 C568 0.959 . S
H554 C568 0.961 . S
H555 C569 0.960 . S
H556 C569 0.961 . S
H557 C569 0.959 . S
H558 C572 0.929 . S
H559 C573 0.931 . S
H560 C575 0.930 . S
C561 H549 0.930 . S
C561 C562 1.399 . S
C561 C566 1.399 . S
C562 C561 1.399 . S
C562 C563 1.376 . S
C563 H550 0.930 . S
C563 C562 1.376 . S
C563 C564 1.388 . S
C564 H551 0.930 . S
C564 C563 1.388 . S
C564 C565 1.390 . S
C565 C564 1.390 . S
C565 C566 1.394 . S
C565 C571 1.465 . S
C566 C561 1.399 . S
C566 C565 1.394 . S
C566 C567 1.516 . S
C567 C566 1.516 . S
C567 C568 1.502 . S
C567 C569 1.561 . S
C567 C570 1.526 . S
C568 H552 0.959 . S
C568 H553 0.959 . S
C568 H554 0.961 . S
C568 C567 1.502 . S
C569 H555 0.960 . S
C569 H556 0.961 . S
C569 H557 0.959 . S
C569 C567 1.561 . S
C570 C567 1.526 . S
C570 C571 1.396 . S
C570 C575 1.390 . S
C571 C565 1.465 . S
C571 C570 1.396 . S
C571 C572 1.399 . S
C572 H558 0.929 . S
C572 C571 1.399 . S
C572 C573 1.385 . S
C573 H559 0.931 . S
C573 C572 1.385 . S
C573 C574 1.389 . S
C574 C573 1.389 . S
C574 C575 1.387 . S
C575 H560 0.930 . S
C575 C570 1.390 . S
C575 C574 1.387 . S
H576 C588 0.930 . S
H577 C590 0.930 . S
H578 C591 0.930 . S
H579 C595 0.959 . S
H580 C595 0.959 . S
H581 C595 0.961 . S
H582 C596 0.960 . S
H583 C596 0.961 . S
H584 C596 0.959 . S
H585 C599 0.929 . S
H586 C600 0.931 . S
H587 C602 0.930 . S
C588 H576 0.930 . S
C588 C589 1.399 . S
C588 C593 1.399 . S
C589 C588 1.399 . S
C589 C590 1.376 . S
C590 H577 0.930 . S
C590 C589 1.376 . S
C590 C591 1.388 . S
C591 H578 0.930 . S
C591 C590 1.388 . S
C591 C592 1.390 . S
C592 C591 1.390 . S
C592 C593 1.394 . S
C592 C598 1.465 . S
C593 C588 1.399 . S
C593 C592 1.394 . S
C593 C594 1.516 . S
C594 C593 1.516 . S
C594 C595 1.502 . S
C594 C596 1.561 . S
C594 C597 1.526 . S
C595 H579 0.959 . S
C595 H580 0.959 . S
C595 H581 0.961 . S
C595 C594 1.502 . S
C596 H582 0.960 . S
C596 H583 0.961 . S
C596 H584 0.959 . S
C596 C594 1.561 . S
C597 C594 1.526 . S
C597 C598 1.396 . S
C597 C602 1.390 . S
C598 C592 1.465 . S
C598 C597 1.396 . S
C598 C599 1.399 . S
C599 H585 0.929 . S
C599 C598 1.399 . S
C599 C600 1.385 . S
C600 H586 0.931 . S
C600 C599 1.385 . S
C600 C601 1.389 . S
C601 C600 1.389 . S
C601 C602 1.387 . S
C602 H587 0.930 . S
C602 C597 1.390 . S
C602 C601 1.387 . S
H603 C615 0.930 . S
H604 C617 0.930 . S
H605 C618 0.930 . S
H606 C622 0.959 . S
H607 C622 0.959 . S
H608 C622 0.961 . S
H609 C623 0.960 . S
H610 C623 0.961 . S
H611 C623 0.959 . S
H612 C626 0.929 . S
H613 C627 0.931 . S
H614 C629 0.930 . S
C615 H603 0.930 . S
C615 C616 1.399 . S
C615 C620 1.399 . S
C616 C615 1.399 . S
C616 C617 1.376 . S
C617 H604 0.930 . S
C617 C616 1.376 . S
C617 C618 1.388 . S
C618 H605 0.930 . S
C618 C617 1.388 . S
C618 C619 1.390 . S
C619 C618 1.390 . S
C619 C620 1.394 . S
C619 C625 1.465 . S
C620 C615 1.399 . S
C620 C619 1.394 . S
C620 C621 1.516 . S
C621 C620 1.516 . S
C621 C622 1.502 . S
C621 C623 1.561 . S
C621 C624 1.526 . S
C622 H606 0.959 . S
C622 H607 0.959 . S
C622 H608 0.961 . S
C622 C621 1.502 . S
C623 H609 0.960 . S
C623 H610 0.961 . S
C623 H611 0.959 . S
C623 C621 1.561 . S
C624 C621 1.526 . S
C624 C625 1.396 . S
C624 C629 1.390 . S
C625 C619 1.465 . S
C625 C624 1.396 . S
C625 C626 1.399 . S
C626 H612 0.929 . S
C626 C625 1.399 . S
C626 C627 1.385 . S
C627 H613 0.931 . S
C627 C626 1.385 . S
C627 C628 1.389 . S
C628 C627 1.389 . S
C628 C629 1.387 . S
C629 H614 0.930 . S
C629 C624 1.390 . S
C629 C628 1.387 . S
H630 C642 0.930 . S
H631 C644 0.930 . S
H632 C645 0.930 . S
H633 C649 0.959 . S
H634 C649 0.959 . S
H635 C649 0.961 . S
H636 C650 0.960 . S
H637 C650 0.961 . S
H638 C650 0.959 . S
H639 C653 0.929 . S
H640 C654 0.931 . S
H641 C656 0.930 . S
C642 H630 0.930 . S
C642 C643 1.399 . S
C642 C647 1.399 . S
C643 C642 1.399 . S
C643 C644 1.376 . S
C644 H631 0.930 . S
C644 C643 1.376 . S
C644 C645 1.388 . S
C645 H632 0.930 . S
C645 C644 1.388 . S
C645 C646 1.390 . S
C646 C645 1.390 . S
C646 C647 1.394 . S
C646 C652 1.465 . S
C647 C642 1.399 . S
C647 C646 1.394 . S
C647 C648 1.516 . S
C648 C647 1.516 . S
C648 C649 1.502 . S
C648 C650 1.561 . S
C648 C651 1.526 . S
C649 H633 0.959 . S
C649 H634 0.959 . S
C649 H635 0.961 . S
C649 C648 1.502 . S
C650 H636 0.960 . S
C650 H637 0.961 . S
C650 H638 0.959 . S
C650 C648 1.561 . S
C651 C648 1.526 . S
C651 C652 1.396 . S
C651 C656 1.390 . S
C652 C646 1.465 . S
C652 C651 1.396 . S
C652 C653 1.399 . S
C653 H639 0.929 . S
C653 C652 1.399 . S
C653 C654 1.385 . S
C654 H640 0.931 . S
C654 C653 1.385 . S
C654 C655 1.389 . S
C655 C654 1.389 . S
C655 C656 1.387 . S
C656 H641 0.930 . S
C656 C651 1.390 . S
C656 C655 1.387 . S
H657 C669 0.930 . S
H658 C671 0.930 . S
H659 C672 0.930 . S
H660 C676 0.959 . S
H661 C676 0.959 . S
H662 C676 0.961 . S
H663 C677 0.960 . S
H664 C677 0.961 . S
H665 C677 0.959 . S
H666 C680 0.929 . S
H667 C681 0.931 . S
H668 C683 0.930 . S
C669 H657 0.930 . S
C669 C670 1.399 . S
C669 C674 1.399 . S
C670 C669 1.399 . S
C670 C671 1.376 1_545 S
C671 H658 0.930 . S
C671 C670 1.376 1_565 S
C671 C672 1.388 . S
C672 H659 0.930 . S
C672 C671 1.388 . S
C672 C673 1.390 . S
C673 C672 1.390 . S
C673 C674 1.394 1_565 S
C673 C679 1.465 . S
C674 C669 1.399 . S
C674 C673 1.394 1_545 S
C674 C675 1.516 . S
C675 C674 1.516 . S
C675 C676 1.502 . S
C675 C677 1.561 . S
C675 C678 1.526 1_545 S
C676 H660 0.959 . S
C676 H661 0.959 . S
C676 H662 0.961 . S
C676 C675 1.502 . S
C677 H663 0.960 . S
C677 H664 0.961 . S
C677 H665 0.959 . S
C677 C675 1.561 . S
C678 C675 1.526 1_565 S
C678 C679 1.396 . S
C678 C683 1.390 . S
C679 C673 1.465 . S
C679 C678 1.396 . S
C679 C680 1.399 . S
C680 H666 0.929 . S
C680 C679 1.399 . S
C680 C681 1.385 . S
C681 H667 0.931 . S
C681 C680 1.385 . S
C681 C682 1.389 . S
C682 C681 1.389 . S
C682 C683 1.387 . S
C683 H668 0.930 . S
C683 C678 1.390 . S
C683 C682 1.387 . S
H684 C696 0.930 . S
H685 C698 0.930 . S
H686 C699 0.930 . S
H687 C703 0.959 . S
H688 C703 0.959 . S
H689 C703 0.961 . S
H690 C704 0.960 . S
H691 C704 0.961 . S
H692 C704 0.969 . S
H693 C707 0.929 1_554 S
H694 C708 0.931 . S
H695 C710 0.930 . S
C696 H684 0.930 . S
C696 C697 1.399 . S
C696 C701 1.399 1_554 S
C697 C696 1.399 . S
C697 C698 1.376 . S
C698 H685 0.930 . S
C698 C697 1.376 . S
C698 C699 1.388 . S
C699 H686 0.930 . S
C699 C698 1.388 . S
C699 C700 1.390 . S
C700 C699 1.390 . S
C700 C701 1.394 1_554 S
C700 C706 1.465 1_554 S
C701 C696 1.399 1_556 S
C701 C700 1.394 1_556 S
C701 C702 1.516 . S
C702 C701 1.516 . S
C702 C703 1.502 . S
C702 C704 1.561 . S
C702 C705 1.526 . S
C703 H687 0.959 . S
C703 H688 0.959 . S
C703 H689 0.961 . S
C703 C702 1.502 . S
C704 H690 0.960 . S
C704 H691 0.961 . S
C704 H692 0.969 . S
C704 C702 1.561 . S
C705 C702 1.526 . S
C705 C706 1.396 . S
C705 C710 1.390 . S
C706 C700 1.465 1_556 S
C706 C705 1.396 . S
C706 C707 1.399 . S
C707 H693 0.929 1_556 S
C707 C706 1.399 . S
C707 C708 1.385 . S
C708 H694 0.931 . S
C708 C707 1.385 . S
C708 C709 1.389 . S
C709 C708 1.389 . S
C709 C710 1.387 . S
C710 H695 0.930 . S
C710 C705 1.390 . S
C710 C709 1.387 . S
H711 C723 0.930 . S
H712 C725 0.930 . S
H713 C726 0.930 . S
H714 C730 0.959 . S
H715 C730 0.959 . S
H716 C730 0.961 . S
H717 C731 0.960 . S
H718 C731 0.961 . S
H719 C731 0.959 . S
H720 C734 0.929 . S
H721 C735 0.931 . S
H722 C737 0.930 . S
C723 H711 0.930 . S
C723 C724 1.399 . S
C723 C728 1.399 . S
C724 C723 1.399 . S
C724 C725 1.376 . S
C725 H712 0.930 . S
C725 C724 1.376 . S
C725 C726 1.388 . S
C726 H713 0.930 . S
C726 C725 1.388 . S
C726 C727 1.390 . S
C727 C726 1.390 . S
C727 C728 1.394 . S
C727 C733 1.465 . S
C728 C723 1.399 . S
C728 C727 1.394 . S
C728 C729 1.516 . S
C729 C728 1.516 . S
C729 C730 1.502 1_655 S
C729 C731 1.561 . S
C729 C732 1.526 . S
C730 H714 0.959 . S
C730 H715 0.959 . S
C730 H716 0.961 . S
C730 C729 1.502 1_455 S
C731 H717 0.960 . S
C731 H718 0.961 . S
C731 H719 0.959 . S
C731 C729 1.561 . S
C732 C729 1.526 . S
C732 C733 1.396 . S
C732 C737 1.390 1_655 S
C733 C727 1.465 . S
C733 C732 1.396 . S
C733 C734 1.399 1_556 S
C734 H720 0.929 . S
C734 C733 1.399 1_554 S
C734 C735 1.385 . S
C735 H721 0.931 . S
C735 C734 1.385 . S
C735 C736 1.389 1_655 S
C736 C735 1.389 1_455 S
C736 C737 1.387 1_554 S
C737 H722 0.930 . S
C737 C732 1.390 1_455 S
C737 C736 1.387 1_556 S
H738 C750 0.930 . S
H739 C752 0.930 . S
H740 C753 0.930 . S
H741 C757 0.959 . S
H742 C757 0.959 . S
H743 C757 0.961 . S
H744 C758 0.960 . S
H745 C758 0.961 . S
H746 C758 0.959 . S
H747 C761 0.929 . S
H748 C762 0.931 . S
H749 C764 0.930 . S
C750 H738 0.930 . S
C750 C751 1.399 . S
C750 C755 1.399 . S
C751 C750 1.399 . S
C751 C752 1.376 . S
C752 H739 0.930 . S
C752 C751 1.376 . S
C752 C753 1.388 . S
C753 H740 0.930 . S
C753 C752 1.388 . S
C753 C754 1.390 . S
C754 C753 1.390 . S
C754 C755 1.394 . S
C754 C760 1.465 1_556 S
C755 C750 1.399 . S
C755 C754 1.394 . S
C755 C756 1.516 . S
C756 C755 1.516 . S
C756 C757 1.502 . S
C756 C758 1.561 . S
C756 C759 1.526 . S
C757 H741 0.959 . S
C757 H742 0.959 . S
C757 H743 0.961 . S
C757 C756 1.502 . S
C758 H744 0.960 . S
C758 H745 0.961 . S
C758 H746 0.959 . S
C758 C756 1.561 . S
C759 C756 1.526 . S
C759 C760 1.396 1_556 S
C759 C764 1.390 1_556 S
C760 C754 1.465 1_554 S
C760 C759 1.396 1_554 S
C760 C761 1.399 . S
C761 H747 0.929 . S
C761 C760 1.399 . S
C761 C762 1.385 . S
C762 H748 0.931 . S
C762 C761 1.385 . S
C762 C763 1.389 . S
C763 C762 1.389 . S
C763 C764 1.387 . S
C764 H749 0.930 . S
C764 C759 1.390 1_554 S
C764 C763 1.387 . S
H765 C777 0.930 . S
H766 C779 0.930 . S
H767 C780 0.930 . S
H768 C784 0.959 . S
H769 C784 0.959 1_455 S
H770 C784 0.946 . S
H771 C785 0.960 . S
H772 C785 0.961 1_554 S
H773 C785 0.959 . S
H774 C788 0.929 . S
H775 C789 0.931 . S
H776 C791 0.930 1_554 S
C777 H765 0.930 . S
C777 C778 1.399 . S
C777 C782 1.399 . S
C778 C777 1.399 . S
C778 C779 1.376 . S
C779 H766 0.930 . S
C779 C778 1.376 . S
C779 C780 1.388 . S
C780 H767 0.930 . S
C780 C779 1.388 . S
C780 C781 1.390 . S
C781 C780 1.390 . S
C781 C782 1.394 . S
C781 C787 1.465 . S
C782 C777 1.399 . S
C782 C781 1.394 . S
C782 C783 1.516 . S
C783 C782 1.516 . S
C783 C784 1.502 . S
C783 C785 1.561 . S
C783 C786 1.526 . S
C784 H768 0.959 . S
C784 H769 0.959 1_655 S
C784 H770 0.946 . S
C784 C783 1.502 . S
C785 H771 0.960 . S
C785 H772 0.961 1_556 S
C785 H773 0.959 . S
C785 C783 1.561 . S
C786 C783 1.526 . S
C786 C787 1.396 . S
C786 C791 1.390 . S
C787 C781 1.465 . S
C787 C786 1.396 . S
C787 C788 1.399 . S
C788 H774 0.929 . S
C788 C787 1.399 . S
C788 C789 1.385 . S
C789 H775 0.931 . S
C789 C788 1.385 . S
C789 C790 1.389 . S
C790 C789 1.389 . S
C790 C791 1.387 . S
C791 H776 0.930 1_556 S
C791 C786 1.390 . S
C791 C790 1.387 . S
H792 C804 0.930 . S
H793 C806 0.930 . S
H794 C807 0.930 . S
H795 C811 0.959 1_556 S
H796 C811 0.959 . S
H797 C811 0.961 . S
H798 C812 0.960 . S
H799 C812 0.961 . S
H800 C812 0.959 . S
H801 C815 0.929 . S
H802 C816 0.931 . S
H803 C818 0.930 . S
C804 H792 0.930 . S
C804 C805 1.399 . S
C804 C809 1.399 1_554 S
C805 C804 1.399 . S
C805 C806 1.376 1_554 S
C806 H793 0.930 . S
C806 C805 1.376 1_556 S
C806 C807 1.388 . S
C807 H794 0.930 . S
C807 C806 1.388 . S
C807 C808 1.390 . S
C808 C807 1.390 . S
C808 C809 1.394 . S
C808 C814 1.465 . S
C809 C804 1.399 1_556 S
C809 C808 1.394 . S
C809 C810 1.516 . S
C810 C809 1.516 . S
C810 C811 1.502 1_556 S
C810 C812 1.561 1_556 S
C810 C813 1.526 . S
C811 H795 0.959 1_554 S
C811 H796 0.959 . S
C811 H797 0.961 . S
C811 C810 1.502 1_554 S
C812 H798 0.960 . S
C812 H799 0.961 . S
C812 H800 0.959 . S
C812 C810 1.561 1_554 S
C813 C810 1.526 . S
C813 C814 1.396 . S
C813 C818 1.390 . S
C814 C808 1.465 . S
C814 C813 1.396 . S
C814 C815 1.399 . S
C815 H801 0.929 . S
C815 C814 1.399 . S
C815 C816 1.385 . S
C816 H802 0.931 . S
C816 C815 1.385 . S
C816 C817 1.389 . S
C817 C816 1.389 . S
C817 C818 1.387 . S
C818 H803 0.930 . S
C818 C813 1.390 . S
C818 C817 1.387 . S
H819 C831 0.930 . S
H820 C833 0.930 . S
H821 C834 0.930 . S
H822 C838 0.959 . S
H823 C838 0.959 . S
H824 C838 0.961 . S
H825 C839 0.960 . S
H826 C839 0.961 . S
H827 C839 0.959 . S
H828 C842 0.929 1_556 S
H829 C843 0.931 . S
H830 C845 0.930 . S
C831 H819 0.930 . S
C831 C832 1.399 . S
C831 C836 1.399 . S
C832 C831 1.399 . S
C832 C833 1.376 . S
C833 H820 0.930 . S
C833 C832 1.376 . S
C833 C834 1.388 . S
C834 H821 0.930 . S
C834 C833 1.388 . S
C834 C835 1.390 . S
C835 C834 1.390 . S
C835 C836 1.394 . S
C835 C841 1.465 . S
C836 C831 1.399 . S
C836 C835 1.394 . S
C836 C837 1.516 . S
C837 C836 1.516 . S
C837 C838 1.502 1_556 S
C837 C839 1.561 . S
C837 C840 1.526 1_556 S
C838 H822 0.959 . S
C838 H823 0.959 . S
C838 H824 0.961 . S
C838 C837 1.502 1_554 S
C839 H825 0.960 . S
C839 H826 0.961 . S
C839 H827 0.959 . S
C839 C837 1.561 . S
C840 C837 1.526 1_554 S
C840 C841 1.396 1_554 S
C840 C845 1.390 . S
C841 C835 1.465 . S
C841 C840 1.396 1_556 S
C841 C842 1.399 1_556 S
C842 H828 0.929 1_554 S
C842 C841 1.399 1_554 S
C842 C843 1.385 . S
C843 H829 0.931 . S
C843 C842 1.385 . S
C843 C844 1.389 . S
C844 C843 1.389 . S
C844 C845 1.387 . S
C845 H830 0.930 . S
C845 C840 1.390 . S
C845 C844 1.387 . S
H846 C858 0.930 . S
H847 C860 0.930 . S
H848 C861 0.930 . S
H849 C865 0.959 . S
H850 C865 0.959 . S
H851 C865 0.961 . S
H852 C866 0.960 . S
H853 C866 0.990 . S
H854 C866 0.959 . S
H855 C869 0.929 . S
H856 C870 0.931 . S
H857 C872 0.930 . S
C858 H846 0.930 . S
C858 C859 1.399 . S
C858 C863 1.399 . S
C859 C858 1.399 . S
C859 C860 1.376 . S
C860 H847 0.930 . S
C860 C859 1.376 . S
C860 C861 1.388 . S
C861 H848 0.930 . S
C861 C860 1.388 . S
C861 C862 1.390 . S
C862 C861 1.390 . S
C862 C863 1.394 . S
C862 C868 1.465 . S
C863 C858 1.399 . S
C863 C862 1.394 . S
C863 C864 1.516 . S
C864 C863 1.516 . S
C864 C865 1.502 1_545 S
C864 C866 1.561 . S
C864 C867 1.526 . S
C865 H849 0.959 . S
C865 H850 0.959 . S
C865 H851 0.961 . S
C865 C864 1.502 1_565 S
C866 H852 0.960 . S
C866 H853 0.990 . S
C866 H854 0.959 . S
C866 C864 1.561 . S
C867 C864 1.526 . S
C867 C868 1.396 . S
C867 C872 1.390 1_545 S
C868 C862 1.465 . S
C868 C867 1.396 . S
C868 C869 1.399 . S
C869 H855 0.929 . S
C869 C868 1.399 . S
C869 C870 1.385 . S
C870 H856 0.931 . S
C870 C869 1.385 . S
C870 C871 1.389 1_545 S
C871 C870 1.389 1_565 S
C871 C872 1.387 . S
C872 H857 0.930 . S
C872 C867 1.390 1_565 S
C872 C871 1.387 . S
H873 C885 0.930 . S
H874 C887 0.930 . S
H875 C888 0.930 . S
H876 C892 0.959 . S
H877 C892 0.959 1_556 S
H878 C892 0.961 . S
H879 C893 0.961 . S
H880 C893 0.961 1_556 S
H881 C893 0.959 . S
H882 C896 0.929 . S
H883 C897 0.931 . S
H884 C899 0.930 . S
C885 H873 0.930 . S
C885 C886 1.399 . S
C885 C890 1.399 . S
C886 C885 1.399 . S
C886 C887 1.376 . S
C887 H874 0.930 . S
C887 C886 1.376 . S
C887 C888 1.388 . S
C888 H875 0.930 . S
C888 C887 1.388 . S
C888 C889 1.390 . S
C889 C888 1.390 . S
C889 C890 1.394 . S
C889 C895 1.465 . S
C890 C885 1.399 . S
C890 C889 1.394 . S
C890 C891 1.516 . S
C891 C890 1.516 . S
C891 C892 1.502 . S
C891 C893 1.561 . S
C891 C894 1.526 . S
C892 H876 0.959 . S
C892 H877 0.959 1_554 S
C892 H878 0.961 . S
C892 C891 1.502 . S
C893 H879 0.961 . S
C893 H880 0.961 1_554 S
C893 H881 0.959 . S
C893 C891 1.561 . S
C894 C891 1.526 . S
C894 C895 1.396 . S
C894 C899 1.390 . S
C895 C889 1.465 . S
C895 C894 1.396 . S
C895 C896 1.399 . S
C896 H882 0.929 . S
C896 C895 1.399 . S
C896 C897 1.385 . S
C897 H883 0.931 . S
C897 C896 1.385 . S
C897 C898 1.389 . S
C898 C897 1.389 . S
C898 C899 1.387 . S
C899 H884 0.930 . S
C899 C894 1.390 . S
C899 C898 1.387 . S
H900 C912 0.930 . S
H901 C914 0.930 . S
H902 C915 0.930 . S
H903 C919 0.959 . S
H904 C919 0.959 . S
H905 C919 0.961 1_556 S
H906 C920 0.960 . S
H907 C920 0.961 . S
H908 C920 0.959 . S
H909 C923 0.929 . S
H910 C924 0.931 . S
H911 C926 0.930 . S
C912 H900 0.930 . S
C912 C913 1.399 . S
C912 C917 1.399 . S
C913 C912 1.399 . S
C913 C914 1.376 . S
C914 H901 0.930 . S
C914 C913 1.376 . S
C914 C915 1.388 . S
C915 H902 0.930 . S
C915 C914 1.388 . S
C915 C916 1.390 . S
C916 C915 1.390 . S
C916 C917 1.394 . S
C916 C922 1.465 . S
C917 C912 1.399 . S
C917 C916 1.394 . S
C917 C918 1.516 . S
C918 C917 1.516 . S
C918 C919 1.502 . S
C918 C920 1.561 . S
C918 C921 1.526 . S
C919 H903 0.959 . S
C919 H904 0.959 . S
C919 H905 0.961 1_554 S
C919 C918 1.502 . S
C920 H906 0.960 . S
C920 H907 0.961 . S
C920 H908 0.959 . S
C920 C918 1.561 . S
C921 C918 1.526 . S
C921 C922 1.396 . S
C921 C926 1.390 . S
C922 C916 1.465 . S
C922 C921 1.396 . S
C922 C923 1.399 . S
C923 H909 0.929 . S
C923 C922 1.399 . S
C923 C924 1.385 . S
C924 H910 0.931 . S
C924 C923 1.385 . S
C924 C925 1.389 . S
C925 C924 1.389 . S
C925 C926 1.387 . S
C926 H911 0.930 . S
C926 C921 1.390 . S
C926 C925 1.387 . S
H927 C939 0.930 . S
H928 C941 0.930 . S
H929 C942 0.930 . S
H930 C946 0.959 . S
H931 C946 0.959 . S
H932 C946 0.961 . S
H933 C947 0.960 . S
H934 C947 0.961 . S
H935 C947 0.959 . S
H936 C950 0.929 . S
H937 C951 0.931 . S
H938 C953 0.930 . S
C939 H927 0.930 . S
C939 C940 1.399 . S
C939 C944 1.399 . S
C940 C939 1.399 . S
C940 C941 1.376 . S
C941 H928 0.930 . S
C941 C940 1.376 . S
C941 C942 1.388 . S
C942 H929 0.930 . S
C942 C941 1.388 . S
C942 C943 1.390 . S
C943 C942 1.390 . S
C943 C944 1.394 . S
C943 C949 1.465 . S
C944 C939 1.399 . S
C944 C943 1.394 . S
C944 C945 1.516 . S
C945 C944 1.516 . S
C945 C946 1.502 . S
C945 C947 1.561 . S
C945 C948 1.526 . S
C946 H930 0.959 . S
C946 H931 0.959 . S
C946 H932 0.961 . S
C946 C945 1.502 . S
C947 H933 0.960 . S
C947 H934 0.961 . S
C947 H935 0.959 . S
C947 C945 1.561 . S
C948 C945 1.526 . S
C948 C949 1.396 . S
C948 C953 1.390 . S
C949 C943 1.465 . S
C949 C948 1.396 . S
C949 C950 1.399 . S
C950 H936 0.929 . S
C950 C949 1.399 . S
C950 C951 1.385 . S
C951 H937 0.931 . S
C951 C950 1.385 . S
C951 C952 1.389 . S
C952 C951 1.389 . S
C952 C953 1.387 . S
C953 H938 0.930 . S
C953 C948 1.390 . S
C953 C952 1.387 . S
H954 C966 0.930 . S
H955 C968 0.930 . S
H956 C969 0.930 . S
H957 C973 0.959 . S
H958 C973 0.959 . S
H959 C973 0.961 . S
H960 C974 0.960 1_545 S
H961 C974 0.961 . S
H962 C974 0.958 1_545 S
H963 C977 0.929 . S
H964 C978 0.931 . S
H965 C980 0.930 . S
C966 H954 0.930 . S
C966 C967 1.399 . S
C966 C971 1.399 . S
C967 C966 1.399 . S
C967 C968 1.376 . S
C968 H955 0.930 . S
C968 C967 1.376 . S
C968 C969 1.388 . S
C969 H956 0.930 . S
C969 C968 1.388 . S
C969 C970 1.390 . S
C970 C969 1.390 . S
C970 C971 1.394 . S
C970 C976 1.465 . S
C971 C966 1.399 . S
C971 C970 1.394 . S
C971 C972 1.516 1_545 S
C972 C971 1.516 1_565 S
C972 C973 1.502 . S
C972 C974 1.561 . S
C972 C975 1.526 . S
C973 H957 0.959 . S
C973 H958 0.959 . S
C973 H959 0.961 . S
C973 C972 1.502 . S
C974 H960 0.960 1_565 S
C974 H961 0.961 . S
C974 H962 0.958 1_565 S
C974 C972 1.561 . S
C975 C972 1.526 . S
C975 C976 1.396 1_565 S
C975 C980 1.390 . S
C976 C970 1.465 . S
C976 C975 1.396 1_545 S
C976 C977 1.399 . S
C977 H963 0.929 . S
C977 C976 1.399 . S
C977 C978 1.385 1_545 S
C978 H964 0.931 . S
C978 C977 1.385 1_565 S
C978 C979 1.389 . S
C979 C978 1.389 . S
C979 C980 1.387 . S
C980 H965 0.930 . S
C980 C975 1.390 . S
C980 C979 1.387 . S
H981 C993 0.930 . S
H982 C995 0.930 . S
H983 C996 0.930 . S
H984 C1000 0.959 . S
H985 C1000 0.947 1_455 S
H986 C1000 0.961 . S
H987 C1001 0.960 . S
H988 C1001 0.961 . S
H989 C1001 0.959 . S
H990 C1004 0.929 . S
H991 C1005 0.931 . S
H992 C1007 0.930 . S
C993 H981 0.930 . S
C993 C994 1.399 . S
C993 C998 1.399 . S
C994 C993 1.399 . S
C994 C995 1.376 . S
C995 H982 0.930 . S
C995 C994 1.376 . S
C995 C996 1.388 . S
C996 H983 0.930 . S
C996 C995 1.388 . S
C996 C997 1.394 . S
C997 C996 1.394 . S
C997 C998 1.404 . S
C997 C1003 1.452 1_655 S
C998 C993 1.399 . S
C998 C997 1.404 . S
C998 C999 1.516 1_655 S
C999 C998 1.516 1_455 S
C999 C1000 1.502 1_455 S
C999 C1001 1.561 . S
C999 C1002 1.526 . S
C1000 H984 0.959 . S
C1000 H985 0.947 1_655 S
C1000 H986 0.961 . S
C1000 C999 1.502 1_655 S
C1001 H987 0.960 . S
C1001 H988 0.961 . S
C1001 H989 0.959 . S
C1001 C999 1.561 . S
C1002 C999 1.526 . S
C1002 C1003 1.396 . S
C1002 C1007 1.390 . S
C1003 C997 1.452 1_455 S
C1003 C1002 1.396 . S
C1003 C1004 1.399 . S
C1004 H990 0.929 . S
C1004 C1003 1.399 . S
C1004 C1005 1.385 . S
C1005 H991 0.931 . S
C1005 C1004 1.385 . S
C1005 C1006 1.389 . S
C1006 C1005 1.389 . S
C1006 C1007 1.387 . S
C1007 H992 0.930 . S
C1007 C1002 1.390 . S
C1007 C1006 1.387 . S
H1008 C1020 0.930 . S
H1009 C1022 0.930 . S
H1010 C1023 0.930 . S
H1011 C1027 0.959 . S
H1012 C1027 0.959 . S
H1013 C1027 0.961 . S
H1014 C1028 0.960 . S
H1015 C1028 0.961 . S
H1016 C1028 0.959 . S
H1017 C1031 0.929 . S
H1018 C1032 0.931 . S
H1019 C1034 0.930 . S
C1020 H1008 0.930 . S
C1020 C1021 1.399 . S
C1020 C1025 1.399 . S
C1021 C1020 1.399 . S
C1021 C1022 1.376 . S
C1022 H1009 0.930 . S
C1022 C1021 1.376 . S
C1022 C1023 1.388 . S
C1023 H1010 0.930 . S
C1023 C1022 1.388 . S
C1023 C1024 1.390 . S
C1024 C1023 1.390 . S
C1024 C1025 1.394 . S
C1024 C1030 1.465 . S
C1025 C1020 1.399 . S
C1025 C1024 1.394 . S
C1025 C1026 1.516 . S
C1026 C1025 1.516 . S
C1026 C1027 1.502 . S
C1026 C1028 1.561 . S
C1026 C1029 1.526 . S
C1027 H1011 0.959 . S
C1027 H1012 0.959 . S
C1027 H1013 0.961 . S
C1027 C1026 1.502 . S
C1028 H1014 0.960 . S
C1028 H1015 0.961 . S
C1028 H1016 0.959 . S
C1028 C1026 1.561 . S
C1029 C1026 1.526 . S
C1029 C1030 1.396 . S
C1029 C1034 1.390 . S
C1030 C1024 1.465 . S
C1030 C1029 1.396 . S
C1030 C1031 1.399 . S
C1031 H1017 0.929 . S
C1031 C1030 1.399 . S
C1031 C1032 1.385 . S
C1032 H1018 0.931 . S
C1032 C1031 1.385 . S
C1032 C1033 1.389 . S
C1033 C1032 1.389 . S
C1033 C1034 1.387 . S
C1034 H1019 0.930 . S
C1034 C1029 1.390 . S
C1034 C1033 1.387 . S
H1035 C1047 0.930 . S
H1036 C1049 0.930 . S
H1037 C1050 0.930 . S
H1038 C1054 0.959 . S
H1039 C1054 0.959 . S
H1040 C1054 0.961 1_565 S
H1041 C1055 0.966 . S
H1042 C1055 0.959 1_545 S
H1043 C1055 0.960 1_545 S
H1044 C1058 0.929 . S
H1045 C1059 0.931 . S
H1046 C1061 0.930 . S
C1047 H1035 0.930 . S
C1047 C1048 1.399 . S
C1047 C1052 1.399 . S
C1048 C1047 1.399 . S
C1048 C1049 1.376 . S
C1049 H1036 0.930 . S
C1049 C1048 1.376 . S
C1049 C1050 1.388 1_565 S
C1050 H1037 0.930 . S
C1050 C1049 1.388 1_545 S
C1050 C1051 1.390 . S
C1051 C1050 1.390 . S
C1051 C1052 1.394 1_545 S
C1051 C1057 1.465 . S
C1052 C1047 1.399 . S
C1052 C1051 1.394 1_565 S
C1052 C1053 1.516 1_565 S
C1053 C1052 1.516 1_545 S
C1053 C1054 1.502 . S
C1053 C1055 1.557 1_545 S
C1053 C1056 1.526 . S
C1054 H1038 0.959 . S
C1054 H1039 0.959 . S
C1054 H1040 0.961 1_545 S
C1054 C1053 1.502 . S
C1055 H1041 0.966 . S
C1055 H1042 0.959 1_565 S
C1055 H1043 0.960 1_565 S
C1055 C1053 1.557 1_565 S
C1056 C1053 1.526 . S
C1056 C1057 1.396 . S
C1056 C1061 1.390 . S
C1057 C1051 1.465 . S
C1057 C1056 1.396 . S
C1057 C1058 1.399 . S
C1058 H1044 0.929 . S
C1058 C1057 1.399 . S
C1058 C1059 1.385 . S
C1059 H1045 0.931 . S
C1059 C1058 1.385 . S
C1059 C1060 1.389 . S
C1060 C1059 1.389 . S
C1060 C1061 1.387 . S
C1061 H1046 0.930 . S
C1061 C1056 1.390 . S
C1061 C1060 1.387 . S
H1062 C1074 0.930 . S
H1063 C1076 0.930 . S
H1064 C1077 0.930 1_455 S
H1065 C1081 0.959 1_455 S
H1066 C1081 0.959 . S
H1067 C1081 0.961 . S
H1068 C1082 0.960 . S
H1069 C1082 0.961 . S
H1070 C1082 0.959 . S
H1071 C1085 0.929 . S
H1072 C1086 0.931 . S
H1073 C1088 0.930 . S
C1074 H1062 0.930 . S
C1074 C1075 1.399 . S
C1074 C1079 1.399 . S
C1075 C1074 1.399 . S
C1075 C1076 1.376 . S
C1076 H1063 0.930 . S
C1076 C1075 1.376 . S
C1076 C1077 1.388 . S
C1077 H1064 0.930 1_655 S
C1077 C1076 1.388 . S
C1077 C1078 1.390 . S
C1078 C1077 1.390 . S
C1078 C1079 1.394 . S
C1078 C1084 1.465 1_655 S
C1079 C1074 1.399 . S
C1079 C1078 1.394 . S
C1079 C1080 1.516 . S
C1080 C1079 1.516 . S
C1080 C1081 1.502 . S
C1080 C1082 1.561 . S
C1080 C1083 1.526 1_655 S
C1081 H1065 0.959 1_655 S
C1081 H1066 0.959 . S
C1081 H1067 0.961 . S
C1081 C1080 1.502 . S
C1082 H1068 0.960 . S
C1082 H1069 0.961 . S
C1082 H1070 0.959 . S
C1082 C1080 1.561 . S
C1083 C1080 1.526 1_455 S
C1083 C1084 1.396 . S
C1083 C1088 1.390 . S
C1084 C1078 1.465 1_455 S
C1084 C1083 1.396 . S
C1084 C1085 1.399 . S
C1085 H1071 0.929 . S
C1085 C1084 1.399 . S
C1085 C1086 1.385 . S
C1086 H1072 0.931 . S
C1086 C1085 1.385 . S
C1086 C1087 1.389 . S
C1087 C1086 1.389 . S
C1087 C1088 1.387 . S
C1088 H1073 0.930 . S
C1088 C1083 1.390 . S
C1088 C1087 1.387 . S
C373 C9 3.370 . S
C385 C18 3.354 . S
C400 C58 3.435 . S
C412 C49 3.446 . S
C427 C89 3.483 1_556 S
C439 C98 3.478 . S
C454 C138 3.372 . S
C466 C129 3.351 . S
C481 C169 3.445 . S
C493 C178 3.440 1_556 S
C508 C218 3.489 . S
C520 C209 3.474 1_556 S
C535 C246 2.493 . S
C547 C255 2.568 . S
C562 C295 2.794 . S
C574 C286 2.846 . S
C589 C326 1.933 . S
C601 C335 1.839 . S
C616 C210 1.703 . S
C628 C6 1.755 . S
C643 C50 2.743 . S
C655 C130 2.749 . S
C670 C86 1.231 . S
C682 C166 1.202 . S
C697 C90 2.982 . S
C709 C259 3.111 . S
C724 C298 1.177 . S
C736 C10 1.177 . S
C751 C339 1.936 . S
C763 C46 1.872 . S
C778 C329 0.826 . S
C790 C15 0.806 . S
C805 C59 2.160 . S
C817 C249 2.242 . S
C832 C290 2.927 . S
C844 C95 2.724 . S
C859 C99 1.724 . S
C871 C135 1.760 . S
C886 C179 2.727 . S
C898 C19 2.747 . S
C913 C55 1.194 . S
C925 C215 1.235 . S
C940 C338 0.856 . S
C952 C126 0.783 . S
C967 C258 2.230 . S
C979 C170 2.217 . S
C994 C299 2.927 . S
C1006 C206 2.745 . S
C1021 C250 3.112 . S
C1033 C219 2.980 . S
C1048 C139 1.167 . S
C1060 C289 1.186 . S
C1075 C330 1.968 . S
C1087 C175 1.821 . S
