# Generated by pormake.
# Topology ukx, (4)-cn, num edge types: 1
# Building blocks:
#     Node 0, Type 0, BuildingBlock: GALJAG_clean_sbu_0, # of connection points: 4
#     Node 1, Type 0, BuildingBlock: GALJAG_clean_sbu_0, # of connection points: 4
#     Node 2, Type 0, BuildingBlock: GALJAG_clean_sbu_0, # of connection points: 4
#     Node 3, Type 0, BuildingBlock: GALJAG_clean_sbu_0, # of connection points: 4
#     Node 4, Type 0, BuildingBlock: GALJAG_clean_sbu_0, # of connection points: 4
#     Node 5, Type 0, BuildingBlock: GALJAG_clean_sbu_0, # of connection points: 4
#     Node 6, Type 0, BuildingBlock: GALJAG_clean_sbu_0, # of connection points: 4
#     Node 7, Type 0, BuildingBlock: GALJAG_clean_sbu_0, # of connection points: 4
#     Node 8, Type 0, BuildingBlock: GALJAG_clean_sbu_0, # of connection points: 4
#     Node 9, Type 0, BuildingBlock: GALJAG_clean_sbu_0, # of connection points: 4
#     Node 10, Type 0, BuildingBlock: GALJAG_clean_sbu_0, # of connection points: 4
#     Node 11, Type 0, BuildingBlock: GALJAG_clean_sbu_0, # of connection points: 4
#     Node 12, Type 0, BuildingBlock: GALJAG_clean_sbu_0, # of connection points: 4
#     Node 13, Type 0, BuildingBlock: GALJAG_clean_sbu_0, # of connection points: 4
#     Node 14, Type 0, BuildingBlock: GALJAG_clean_sbu_0, # of connection points: 4
#     Node 15, Type 0, BuildingBlock: GALJAG_clean_sbu_0, # of connection points: 4
#     Node 16, Type 0, BuildingBlock: GALJAG_clean_sbu_0, # of connection points: 4
#     Node 17, Type 0, BuildingBlock: GALJAG_clean_sbu_0, # of connection points: 4
#     Node 18, Type 0, BuildingBlock: GALJAG_clean_sbu_0, # of connection points: 4
#     Node 19, Type 0, BuildingBlock: GALJAG_clean_sbu_0, # of connection points: 4
#     Node 20, Type 0, BuildingBlock: GALJAG_clean_sbu_0, # of connection points: 4
#     Node 21, Type 0, BuildingBlock: GALJAG_clean_sbu_0, # of connection points: 4
#     Node 22, Type 0, BuildingBlock: GALJAG_clean_sbu_0, # of connection points: 4
#     Node 23, Type 0, BuildingBlock: GALJAG_clean_sbu_0, # of connection points: 4
#     Node 24, Type 0, BuildingBlock: GALJAG_clean_sbu_0, # of connection points: 4
#     Node 25, Type 0, BuildingBlock: GALJAG_clean_sbu_0, # of connection points: 4
#     Node 26, Type 0, BuildingBlock: GALJAG_clean_sbu_0, # of connection points: 4
#     Node 27, Type 0, BuildingBlock: GALJAG_clean_sbu_0, # of connection points: 4
#     Node 28, Type 0, BuildingBlock: GALJAG_clean_sbu_0, # of connection points: 4
#     Node 29, Type 0, BuildingBlock: GALJAG_clean_sbu_0, # of connection points: 4
#     Node 30, Type 0, BuildingBlock: GALJAG_clean_sbu_0, # of connection points: 4
#     Node 31, Type 0, BuildingBlock: GALJAG_clean_sbu_0, # of connection points: 4
#     Node 32, Type 0, BuildingBlock: GALJAG_clean_sbu_0, # of connection points: 4
#     Node 33, Type 0, BuildingBlock: GALJAG_clean_sbu_0, # of connection points: 4
#     Node 34, Type 0, BuildingBlock: GALJAG_clean_sbu_0, # of connection points: 4
#     Node 35, Type 0, BuildingBlock: GALJAG_clean_sbu_0, # of connection points: 4
#     Node 36, Type 0, BuildingBlock: GALJAG_clean_sbu_0, # of connection points: 4
#     Node 37, Type 0, BuildingBlock: GALJAG_clean_sbu_0, # of connection points: 4
#     Node 38, Type 0, BuildingBlock: GALJAG_clean_sbu_0, # of connection points: 4
#     Node 39, Type 0, BuildingBlock: GALJAG_clean_sbu_0, # of connection points: 4
#     Node 40, Type 0, BuildingBlock: GALJAG_clean_sbu_0, # of connection points: 4
#     Node 41, Type 0, BuildingBlock: GALJAG_clean_sbu_0, # of connection points: 4
#     Node 42, Type 0, BuildingBlock: GALJAG_clean_sbu_0, # of connection points: 4
#     Node 43, Type 0, BuildingBlock: GALJAG_clean_sbu_0, # of connection points: 4
#     Node 44, Type 0, BuildingBlock: GALJAG_clean_sbu_0, # of connection points: 4
#     Node 45, Type 0, BuildingBlock: GALJAG_clean_sbu_0, # of connection points: 4
#     Node 46, Type 0, BuildingBlock: GALJAG_clean_sbu_0, # of connection points: 4
#     Node 47, Type 0, BuildingBlock: GALJAG_clean_sbu_0, # of connection points: 4
#     Node 48, Type 0, BuildingBlock: GALJAG_clean_sbu_0, # of connection points: 4
#     Node 49, Type 0, BuildingBlock: GALJAG_clean_sbu_0, # of connection points: 4
#     Node 50, Type 0, BuildingBlock: GALJAG_clean_sbu_0, # of connection points: 4
#     Node 51, Type 0, BuildingBlock: GALJAG_clean_sbu_0, # of connection points: 4
#     Node 52, Type 0, BuildingBlock: GALJAG_clean_sbu_0, # of connection points: 4
#     Node 53, Type 0, BuildingBlock: GALJAG_clean_sbu_0, # of connection points: 4
#     Node 54, Type 0, BuildingBlock: GALJAG_clean_sbu_0, # of connection points: 4
#     Node 55, Type 0, BuildingBlock: GALJAG_clean_sbu_0, # of connection points: 4
#     Node 56, Type 0, BuildingBlock: GALJAG_clean_sbu_0, # of connection points: 4
#     Node 57, Type 0, BuildingBlock: GALJAG_clean_sbu_0, # of connection points: 4
#     Node 58, Type 0, BuildingBlock: GALJAG_clean_sbu_0, # of connection points: 4
#     Node 59, Type 0, BuildingBlock: GALJAG_clean_sbu_0, # of connection points: 4
#     Node 60, Type 0, BuildingBlock: GALJAG_clean_sbu_0, # of connection points: 4
#     Node 61, Type 0, BuildingBlock: GALJAG_clean_sbu_0, # of connection points: 4
#     Node 62, Type 0, BuildingBlock: GALJAG_clean_sbu_0, # of connection points: 4
#     Node 63, Type 0, BuildingBlock: GALJAG_clean_sbu_0, # of connection points: 4
#     Node 64, Type 0, BuildingBlock: GALJAG_clean_sbu_0, # of connection points: 4
#     Node 65, Type 0, BuildingBlock: GALJAG_clean_sbu_0, # of connection points: 4
#     Node 66, Type 0, BuildingBlock: GALJAG_clean_sbu_0, # of connection points: 4
#     Node 67, Type 0, BuildingBlock: GALJAG_clean_sbu_0, # of connection points: 4
#     Node 68, Type 0, BuildingBlock: GALJAG_clean_sbu_0, # of connection points: 4
#     Node 69, Type 0, BuildingBlock: GALJAG_clean_sbu_0, # of connection points: 4
#     Node 70, Type 0, BuildingBlock: GALJAG_clean_sbu_0, # of connection points: 4
#     Node 71, Type 0, BuildingBlock: GALJAG_clean_sbu_0, # of connection points: 4
#     Node 72, Type 0, BuildingBlock: GALJAG_clean_sbu_0, # of connection points: 4
#     Node 73, Type 0, BuildingBlock: GALJAG_clean_sbu_0, # of connection points: 4
#     Node 74, Type 0, BuildingBlock: GALJAG_clean_sbu_0, # of connection points: 4
#     Node 75, Type 0, BuildingBlock: GALJAG_clean_sbu_0, # of connection points: 4
#     Node 76, Type 0, BuildingBlock: GALJAG_clean_sbu_0, # of connection points: 4
#     Node 77, Type 0, BuildingBlock: GALJAG_clean_sbu_0, # of connection points: 4
#     Node 78, Type 0, BuildingBlock: GALJAG_clean_sbu_0, # of connection points: 4
#     Node 79, Type 0, BuildingBlock: GALJAG_clean_sbu_0, # of connection points: 4
#     Node 80, Type 0, BuildingBlock: GALJAG_clean_sbu_0, # of connection points: 4
#     Node 81, Type 0, BuildingBlock: GALJAG_clean_sbu_0, # of connection points: 4
#     Node 82, Type 0, BuildingBlock: GALJAG_clean_sbu_0, # of connection points: 4
#     Node 83, Type 0, BuildingBlock: GALJAG_clean_sbu_0, # of connection points: 4
#     Node 84, Type 0, BuildingBlock: GALJAG_clean_sbu_0, # of connection points: 4
#     Node 85, Type 0, BuildingBlock: GALJAG_clean_sbu_0, # of connection points: 4
#     Node 86, Type 0, BuildingBlock: GALJAG_clean_sbu_0, # of connection points: 4
#     Node 87, Type 0, BuildingBlock: GALJAG_clean_sbu_0, # of connection points: 4
#     Node 88, Type 0, BuildingBlock: GALJAG_clean_sbu_0, # of connection points: 4
#     Node 89, Type 0, BuildingBlock: GALJAG_clean_sbu_0, # of connection points: 4
#     Node 90, Type 0, BuildingBlock: GALJAG_clean_sbu_0, # of connection points: 4
#     Node 91, Type 0, BuildingBlock: GALJAG_clean_sbu_0, # of connection points: 4
#     Node 92, Type 0, BuildingBlock: GALJAG_clean_sbu_0, # of connection points: 4
#     Node 93, Type 0, BuildingBlock: GALJAG_clean_sbu_0, # of connection points: 4
#     Node 94, Type 0, BuildingBlock: GALJAG_clean_sbu_0, # of connection points: 4
#     Node 95, Type 0, BuildingBlock: GALJAG_clean_sbu_0, # of connection points: 4
#     Edge 96, Type (0, 0), BuildingBlock: XIVTED_clean_linker_0, # of connection points: 2
#     Edge 97, Type (0, 0), BuildingBlock: XIVTED_clean_linker_0, # of connection points: 2
#     Edge 98, Type (0, 0), BuildingBlock: XIVTED_clean_linker_0, # of connection points: 2
#     Edge 99, Type (0, 0), BuildingBlock: XIVTED_clean_linker_0, # of connection points: 2
#     Edge 100, Type (0, 0), BuildingBlock: XIVTED_clean_linker_0, # of connection points: 2
#     Edge 101, Type (0, 0), BuildingBlock: XIVTED_clean_linker_0, # of connection points: 2
#     Edge 102, Type (0, 0), BuildingBlock: XIVTED_clean_linker_0, # of connection points: 2
#     Edge 103, Type (0, 0), BuildingBlock: XIVTED_clean_linker_0, # of connection points: 2
#     Edge 104, Type (0, 0), BuildingBlock: XIVTED_clean_linker_0, # of connection points: 2
#     Edge 105, Type (0, 0), BuildingBlock: XIVTED_clean_linker_0, # of connection points: 2
#     Edge 106, Type (0, 0), BuildingBlock: XIVTED_clean_linker_0, # of connection points: 2
#     Edge 107, Type (0, 0), BuildingBlock: XIVTED_clean_linker_0, # of connection points: 2
#     Edge 108, Type (0, 0), BuildingBlock: XIVTED_clean_linker_0, # of connection points: 2
#     Edge 109, Type (0, 0), BuildingBlock: XIVTED_clean_linker_0, # of connection points: 2
#     Edge 110, Type (0, 0), BuildingBlock: XIVTED_clean_linker_0, # of connection points: 2
#     Edge 111, Type (0, 0), BuildingBlock: XIVTED_clean_linker_0, # of connection points: 2
#     Edge 112, Type (0, 0), BuildingBlock: XIVTED_clean_linker_0, # of connection points: 2
#     Edge 113, Type (0, 0), BuildingBlock: XIVTED_clean_linker_0, # of connection points: 2
#     Edge 114, Type (0, 0), BuildingBlock: XIVTED_clean_linker_0, # of connection points: 2
#     Edge 115, Type (0, 0), BuildingBlock: XIVTED_clean_linker_0, # of connection points: 2
#     Edge 116, Type (0, 0), BuildingBlock: XIVTED_clean_linker_0, # of connection points: 2
#     Edge 117, Type (0, 0), BuildingBlock: XIVTED_clean_linker_0, # of connection points: 2
#     Edge 118, Type (0, 0), BuildingBlock: XIVTED_clean_linker_0, # of connection points: 2
#     Edge 119, Type (0, 0), BuildingBlock: XIVTED_clean_linker_0, # of connection points: 2
#     Edge 120, Type (0, 0), BuildingBlock: XIVTED_clean_linker_0, # of connection points: 2
#     Edge 121, Type (0, 0), BuildingBlock: XIVTED_clean_linker_0, # of connection points: 2
#     Edge 122, Type (0, 0), BuildingBlock: XIVTED_clean_linker_0, # of connection points: 2
#     Edge 123, Type (0, 0), BuildingBlock: XIVTED_clean_linker_0, # of connection points: 2
#     Edge 124, Type (0, 0), BuildingBlock: XIVTED_clean_linker_0, # of connection points: 2
#     Edge 125, Type (0, 0), BuildingBlock: XIVTED_clean_linker_0, # of connection points: 2
#     Edge 126, Type (0, 0), BuildingBlock: XIVTED_clean_linker_0, # of connection points: 2
#     Edge 127, Type (0, 0), BuildingBlock: XIVTED_clean_linker_0, # of connection points: 2
#     Edge 128, Type (0, 0), BuildingBlock: XIVTED_clean_linker_0, # of connection points: 2
#     Edge 129, Type (0, 0), BuildingBlock: XIVTED_clean_linker_0, # of connection points: 2
#     Edge 130, Type (0, 0), BuildingBlock: XIVTED_clean_linker_0, # of connection points: 2
#     Edge 131, Type (0, 0), BuildingBlock: XIVTED_clean_linker_0, # of connection points: 2
#     Edge 132, Type (0, 0), BuildingBlock: XIVTED_clean_linker_0, # of connection points: 2
#     Edge 133, Type (0, 0), BuildingBlock: XIVTED_clean_linker_0, # of connection points: 2
#     Edge 134, Type (0, 0), BuildingBlock: XIVTED_clean_linker_0, # of connection points: 2
#     Edge 135, Type (0, 0), BuildingBlock: XIVTED_clean_linker_0, # of connection points: 2
#     Edge 136, Type (0, 0), BuildingBlock: XIVTED_clean_linker_0, # of connection points: 2
#     Edge 137, Type (0, 0), BuildingBlock: XIVTED_clean_linker_0, # of connection points: 2
#     Edge 138, Type (0, 0), BuildingBlock: XIVTED_clean_linker_0, # of connection points: 2
#     Edge 139, Type (0, 0), BuildingBlock: XIVTED_clean_linker_0, # of connection points: 2
#     Edge 140, Type (0, 0), BuildingBlock: XIVTED_clean_linker_0, # of connection points: 2
#     Edge 141, Type (0, 0), BuildingBlock: XIVTED_clean_linker_0, # of connection points: 2
#     Edge 142, Type (0, 0), BuildingBlock: XIVTED_clean_linker_0, # of connection points: 2
#     Edge 143, Type (0, 0), BuildingBlock: XIVTED_clean_linker_0, # of connection points: 2
#     Edge 144, Type (0, 0), BuildingBlock: XIVTED_clean_linker_0, # of connection points: 2
#     Edge 145, Type (0, 0), BuildingBlock: XIVTED_clean_linker_0, # of connection points: 2
#     Edge 146, Type (0, 0), BuildingBlock: XIVTED_clean_linker_0, # of connection points: 2
#     Edge 147, Type (0, 0), BuildingBlock: XIVTED_clean_linker_0, # of connection points: 2
#     Edge 148, Type (0, 0), BuildingBlock: XIVTED_clean_linker_0, # of connection points: 2
#     Edge 149, Type (0, 0), BuildingBlock: XIVTED_clean_linker_0, # of connection points: 2
#     Edge 150, Type (0, 0), BuildingBlock: XIVTED_clean_linker_0, # of connection points: 2
#     Edge 151, Type (0, 0), BuildingBlock: XIVTED_clean_linker_0, # of connection points: 2
#     Edge 152, Type (0, 0), BuildingBlock: XIVTED_clean_linker_0, # of connection points: 2
#     Edge 153, Type (0, 0), BuildingBlock: XIVTED_clean_linker_0, # of connection points: 2
#     Edge 154, Type (0, 0), BuildingBlock: XIVTED_clean_linker_0, # of connection points: 2
#     Edge 155, Type (0, 0), BuildingBlock: XIVTED_clean_linker_0, # of connection points: 2
#     Edge 156, Type (0, 0), BuildingBlock: XIVTED_clean_linker_0, # of connection points: 2
#     Edge 157, Type (0, 0), BuildingBlock: XIVTED_clean_linker_0, # of connection points: 2
#     Edge 158, Type (0, 0), BuildingBlock: XIVTED_clean_linker_0, # of connection points: 2
#     Edge 159, Type (0, 0), BuildingBlock: XIVTED_clean_linker_0, # of connection points: 2
#     Edge 160, Type (0, 0), BuildingBlock: XIVTED_clean_linker_0, # of connection points: 2
#     Edge 161, Type (0, 0), BuildingBlock: XIVTED_clean_linker_0, # of connection points: 2
#     Edge 162, Type (0, 0), BuildingBlock: XIVTED_clean_linker_0, # of connection points: 2
#     Edge 163, Type (0, 0), BuildingBlock: XIVTED_clean_linker_0, # of connection points: 2
#     Edge 164, Type (0, 0), BuildingBlock: XIVTED_clean_linker_0, # of connection points: 2
#     Edge 165, Type (0, 0), BuildingBlock: XIVTED_clean_linker_0, # of connection points: 2
#     Edge 166, Type (0, 0), BuildingBlock: XIVTED_clean_linker_0, # of connection points: 2
#     Edge 167, Type (0, 0), BuildingBlock: XIVTED_clean_linker_0, # of connection points: 2
#     Edge 168, Type (0, 0), BuildingBlock: XIVTED_clean_linker_0, # of connection points: 2
#     Edge 169, Type (0, 0), BuildingBlock: XIVTED_clean_linker_0, # of connection points: 2
#     Edge 170, Type (0, 0), BuildingBlock: XIVTED_clean_linker_0, # of connection points: 2
#     Edge 171, Type (0, 0), BuildingBlock: XIVTED_clean_linker_0, # of connection points: 2
#     Edge 172, Type (0, 0), BuildingBlock: XIVTED_clean_linker_0, # of connection points: 2
#     Edge 173, Type (0, 0), BuildingBlock: XIVTED_clean_linker_0, # of connection points: 2
#     Edge 174, Type (0, 0), BuildingBlock: XIVTED_clean_linker_0, # of connection points: 2
#     Edge 175, Type (0, 0), BuildingBlock: XIVTED_clean_linker_0, # of connection points: 2
#     Edge 176, Type (0, 0), BuildingBlock: XIVTED_clean_linker_0, # of connection points: 2
#     Edge 177, Type (0, 0), BuildingBlock: XIVTED_clean_linker_0, # of connection points: 2
#     Edge 178, Type (0, 0), BuildingBlock: XIVTED_clean_linker_0, # of connection points: 2
#     Edge 179, Type (0, 0), BuildingBlock: XIVTED_clean_linker_0, # of connection points: 2
#     Edge 180, Type (0, 0), BuildingBlock: XIVTED_clean_linker_0, # of connection points: 2
#     Edge 181, Type (0, 0), BuildingBlock: XIVTED_clean_linker_0, # of connection points: 2
#     Edge 182, Type (0, 0), BuildingBlock: XIVTED_clean_linker_0, # of connection points: 2
#     Edge 183, Type (0, 0), BuildingBlock: XIVTED_clean_linker_0, # of connection points: 2
#     Edge 184, Type (0, 0), BuildingBlock: XIVTED_clean_linker_0, # of connection points: 2
#     Edge 185, Type (0, 0), BuildingBlock: XIVTED_clean_linker_0, # of connection points: 2
#     Edge 186, Type (0, 0), BuildingBlock: XIVTED_clean_linker_0, # of connection points: 2
#     Edge 187, Type (0, 0), BuildingBlock: XIVTED_clean_linker_0, # of connection points: 2
#     Edge 188, Type (0, 0), BuildingBlock: XIVTED_clean_linker_0, # of connection points: 2
#     Edge 189, Type (0, 0), BuildingBlock: XIVTED_clean_linker_0, # of connection points: 2
#     Edge 190, Type (0, 0), BuildingBlock: XIVTED_clean_linker_0, # of connection points: 2
#     Edge 191, Type (0, 0), BuildingBlock: XIVTED_clean_linker_0, # of connection points: 2
#     Edge 192, Type (0, 0), BuildingBlock: XIVTED_clean_linker_0, # of connection points: 2
#     Edge 193, Type (0, 0), BuildingBlock: XIVTED_clean_linker_0, # of connection points: 2
#     Edge 194, Type (0, 0), BuildingBlock: XIVTED_clean_linker_0, # of connection points: 2
#     Edge 195, Type (0, 0), BuildingBlock: XIVTED_clean_linker_0, # of connection points: 2
#     Edge 196, Type (0, 0), BuildingBlock: XIVTED_clean_linker_0, # of connection points: 2
#     Edge 197, Type (0, 0), BuildingBlock: XIVTED_clean_linker_0, # of connection points: 2
#     Edge 198, Type (0, 0), BuildingBlock: XIVTED_clean_linker_0, # of connection points: 2
#     Edge 199, Type (0, 0), BuildingBlock: XIVTED_clean_linker_0, # of connection points: 2
#     Edge 200, Type (0, 0), BuildingBlock: XIVTED_clean_linker_0, # of connection points: 2
#     Edge 201, Type (0, 0), BuildingBlock: XIVTED_clean_linker_0, # of connection points: 2
#     Edge 202, Type (0, 0), BuildingBlock: XIVTED_clean_linker_0, # of connection points: 2
#     Edge 203, Type (0, 0), BuildingBlock: XIVTED_clean_linker_0, # of connection points: 2
#     Edge 204, Type (0, 0), BuildingBlock: XIVTED_clean_linker_0, # of connection points: 2
#     Edge 205, Type (0, 0), BuildingBlock: XIVTED_clean_linker_0, # of connection points: 2
#     Edge 206, Type (0, 0), BuildingBlock: XIVTED_clean_linker_0, # of connection points: 2
#     Edge 207, Type (0, 0), BuildingBlock: XIVTED_clean_linker_0, # of connection points: 2
#     Edge 208, Type (0, 0), BuildingBlock: XIVTED_clean_linker_0, # of connection points: 2
#     Edge 209, Type (0, 0), BuildingBlock: XIVTED_clean_linker_0, # of connection points: 2
#     Edge 210, Type (0, 0), BuildingBlock: XIVTED_clean_linker_0, # of connection points: 2
#     Edge 211, Type (0, 0), BuildingBlock: XIVTED_clean_linker_0, # of connection points: 2
#     Edge 212, Type (0, 0), BuildingBlock: XIVTED_clean_linker_0, # of connection points: 2
#     Edge 213, Type (0, 0), BuildingBlock: XIVTED_clean_linker_0, # of connection points: 2
#     Edge 214, Type (0, 0), BuildingBlock: XIVTED_clean_linker_0, # of connection points: 2
#     Edge 215, Type (0, 0), BuildingBlock: XIVTED_clean_linker_0, # of connection points: 2
#     Edge 216, Type (0, 0), BuildingBlock: XIVTED_clean_linker_0, # of connection points: 2
#     Edge 217, Type (0, 0), BuildingBlock: XIVTED_clean_linker_0, # of connection points: 2
#     Edge 218, Type (0, 0), BuildingBlock: XIVTED_clean_linker_0, # of connection points: 2
#     Edge 219, Type (0, 0), BuildingBlock: XIVTED_clean_linker_0, # of connection points: 2
#     Edge 220, Type (0, 0), BuildingBlock: XIVTED_clean_linker_0, # of connection points: 2
#     Edge 221, Type (0, 0), BuildingBlock: XIVTED_clean_linker_0, # of connection points: 2
#     Edge 222, Type (0, 0), BuildingBlock: XIVTED_clean_linker_0, # of connection points: 2
#     Edge 223, Type (0, 0), BuildingBlock: XIVTED_clean_linker_0, # of connection points: 2
#     Edge 224, Type (0, 0), BuildingBlock: XIVTED_clean_linker_0, # of connection points: 2
#     Edge 225, Type (0, 0), BuildingBlock: XIVTED_clean_linker_0, # of connection points: 2
#     Edge 226, Type (0, 0), BuildingBlock: XIVTED_clean_linker_0, # of connection points: 2
#     Edge 227, Type (0, 0), BuildingBlock: XIVTED_clean_linker_0, # of connection points: 2
#     Edge 228, Type (0, 0), BuildingBlock: XIVTED_clean_linker_0, # of connection points: 2
#     Edge 229, Type (0, 0), BuildingBlock: XIVTED_clean_linker_0, # of connection points: 2
#     Edge 230, Type (0, 0), BuildingBlock: XIVTED_clean_linker_0, # of connection points: 2
#     Edge 231, Type (0, 0), BuildingBlock: XIVTED_clean_linker_0, # of connection points: 2
#     Edge 232, Type (0, 0), BuildingBlock: XIVTED_clean_linker_0, # of connection points: 2
#     Edge 233, Type (0, 0), BuildingBlock: XIVTED_clean_linker_0, # of connection points: 2
#     Edge 234, Type (0, 0), BuildingBlock: XIVTED_clean_linker_0, # of connection points: 2
#     Edge 235, Type (0, 0), BuildingBlock: XIVTED_clean_linker_0, # of connection points: 2
#     Edge 236, Type (0, 0), BuildingBlock: XIVTED_clean_linker_0, # of connection points: 2
#     Edge 237, Type (0, 0), BuildingBlock: XIVTED_clean_linker_0, # of connection points: 2
#     Edge 238, Type (0, 0), BuildingBlock: XIVTED_clean_linker_0, # of connection points: 2
#     Edge 239, Type (0, 0), BuildingBlock: XIVTED_clean_linker_0, # of connection points: 2
#     Edge 240, Type (0, 0), BuildingBlock: XIVTED_clean_linker_0, # of connection points: 2
#     Edge 241, Type (0, 0), BuildingBlock: XIVTED_clean_linker_0, # of connection points: 2
#     Edge 242, Type (0, 0), BuildingBlock: XIVTED_clean_linker_0, # of connection points: 2
#     Edge 243, Type (0, 0), BuildingBlock: XIVTED_clean_linker_0, # of connection points: 2
#     Edge 244, Type (0, 0), BuildingBlock: XIVTED_clean_linker_0, # of connection points: 2
#     Edge 245, Type (0, 0), BuildingBlock: XIVTED_clean_linker_0, # of connection points: 2
#     Edge 246, Type (0, 0), BuildingBlock: XIVTED_clean_linker_0, # of connection points: 2
#     Edge 247, Type (0, 0), BuildingBlock: XIVTED_clean_linker_0, # of connection points: 2
#     Edge 248, Type (0, 0), BuildingBlock: XIVTED_clean_linker_0, # of connection points: 2
#     Edge 249, Type (0, 0), BuildingBlock: XIVTED_clean_linker_0, # of connection points: 2
#     Edge 250, Type (0, 0), BuildingBlock: XIVTED_clean_linker_0, # of connection points: 2
#     Edge 251, Type (0, 0), BuildingBlock: XIVTED_clean_linker_0, # of connection points: 2
#     Edge 252, Type (0, 0), BuildingBlock: XIVTED_clean_linker_0, # of connection points: 2
#     Edge 253, Type (0, 0), BuildingBlock: XIVTED_clean_linker_0, # of connection points: 2
#     Edge 254, Type (0, 0), BuildingBlock: XIVTED_clean_linker_0, # of connection points: 2
#     Edge 255, Type (0, 0), BuildingBlock: XIVTED_clean_linker_0, # of connection points: 2
#     Edge 256, Type (0, 0), BuildingBlock: XIVTED_clean_linker_0, # of connection points: 2
#     Edge 257, Type (0, 0), BuildingBlock: XIVTED_clean_linker_0, # of connection points: 2
#     Edge 258, Type (0, 0), BuildingBlock: XIVTED_clean_linker_0, # of connection points: 2
#     Edge 259, Type (0, 0), BuildingBlock: XIVTED_clean_linker_0, # of connection points: 2
#     Edge 260, Type (0, 0), BuildingBlock: XIVTED_clean_linker_0, # of connection points: 2
#     Edge 261, Type (0, 0), BuildingBlock: XIVTED_clean_linker_0, # of connection points: 2
#     Edge 262, Type (0, 0), BuildingBlock: XIVTED_clean_linker_0, # of connection points: 2
#     Edge 263, Type (0, 0), BuildingBlock: XIVTED_clean_linker_0, # of connection points: 2
#     Edge 264, Type (0, 0), BuildingBlock: XIVTED_clean_linker_0, # of connection points: 2
#     Edge 265, Type (0, 0), BuildingBlock: XIVTED_clean_linker_0, # of connection points: 2
#     Edge 266, Type (0, 0), BuildingBlock: XIVTED_clean_linker_0, # of connection points: 2
#     Edge 267, Type (0, 0), BuildingBlock: XIVTED_clean_linker_0, # of connection points: 2
#     Edge 268, Type (0, 0), BuildingBlock: XIVTED_clean_linker_0, # of connection points: 2
#     Edge 269, Type (0, 0), BuildingBlock: XIVTED_clean_linker_0, # of connection points: 2
#     Edge 270, Type (0, 0), BuildingBlock: XIVTED_clean_linker_0, # of connection points: 2
#     Edge 271, Type (0, 0), BuildingBlock: XIVTED_clean_linker_0, # of connection points: 2
#     Edge 272, Type (0, 0), BuildingBlock: XIVTED_clean_linker_0, # of connection points: 2
#     Edge 273, Type (0, 0), BuildingBlock: XIVTED_clean_linker_0, # of connection points: 2
#     Edge 274, Type (0, 0), BuildingBlock: XIVTED_clean_linker_0, # of connection points: 2
#     Edge 275, Type (0, 0), BuildingBlock: XIVTED_clean_linker_0, # of connection points: 2
#     Edge 276, Type (0, 0), BuildingBlock: XIVTED_clean_linker_0, # of connection points: 2
#     Edge 277, Type (0, 0), BuildingBlock: XIVTED_clean_linker_0, # of connection points: 2
#     Edge 278, Type (0, 0), BuildingBlock: XIVTED_clean_linker_0, # of connection points: 2
#     Edge 279, Type (0, 0), BuildingBlock: XIVTED_clean_linker_0, # of connection points: 2
#     Edge 280, Type (0, 0), BuildingBlock: XIVTED_clean_linker_0, # of connection points: 2
#     Edge 281, Type (0, 0), BuildingBlock: XIVTED_clean_linker_0, # of connection points: 2
#     Edge 282, Type (0, 0), BuildingBlock: XIVTED_clean_linker_0, # of connection points: 2
#     Edge 283, Type (0, 0), BuildingBlock: XIVTED_clean_linker_0, # of connection points: 2
#     Edge 284, Type (0, 0), BuildingBlock: XIVTED_clean_linker_0, # of connection points: 2
#     Edge 285, Type (0, 0), BuildingBlock: XIVTED_clean_linker_0, # of connection points: 2
#     Edge 286, Type (0, 0), BuildingBlock: XIVTED_clean_linker_0, # of connection points: 2
#     Edge 287, Type (0, 0), BuildingBlock: XIVTED_clean_linker_0, # of connection points: 2
# Relax obj value: 0.225
# Max RMSD: 0.135
# Mean RMSD: 0.135
data_MOF--net-ukx--node1-GALJAG_clean_sbu_0--edge1-XIVTED_clean_linker_0
_symmetry_space_group_name_H-M    P1
_symmetry_Int_Tables_number       1
_symmetry_cell_setting            triclinic
loop_
_symmetry_equiv_pos_as_xyz
'x, y, z'
_cell_length_a     79.867337
_cell_length_b     79.840974
_cell_length_c     79.897125
_cell_angle_alpha  89.989344
_cell_angle_beta   90.006297
_cell_angle_gamma 89.988942
loop_
_atom_site_label
_atom_site_type_symbol
_atom_site_fract_x
_atom_site_fract_y
_atom_site_fract_z
_atom_type_partial_charge
In0 In 0.04761 0.14507 0.32135 0.0
O1 O 0.05836 0.12235 0.33478 0.0
O2 O 0.07057 0.13103 0.31267 0.0
C3 C 0.02297 0.14534 0.34472 0.0
C4 C 0.06429 0.17431 0.32518 0.0
C5 C 0.03452 0.1384 0.29104 0.0
O6 O 0.02057 0.14116 0.32973 0.0
O7 O 0.03792 0.14897 0.34813 0.0
O8 O 0.03724 0.15325 0.29583 0.0
O9 O 0.03854 0.12722 0.30141 0.0
C10 C 0.07023 0.12051 0.32446 0.0
O11 O 0.04962 0.17375 0.31931 0.0
O12 O 0.07062 0.16022 0.3283 0.0
In13 In 0.09753 0.79842 0.57587 0.0
O14 O 0.07057 0.80627 0.57056 0.0
O15 O 0.08434 0.82004 0.58874 0.0
C16 C 0.10593 0.78075 0.54844 0.0
C17 C 0.12256 0.82068 0.5765 0.0
C18 C 0.09059 0.77606 0.60016 0.0
O19 O 0.09449 0.79166 0.54819 0.0
O20 O 0.11277 0.77863 0.56249 0.0
O21 O 0.10411 0.78425 0.59994 0.0
O22 O 0.08095 0.77884 0.58799 0.0
C23 C 0.07059 0.8179 0.5813 0.0
O24 O 0.12122 0.8091 0.5872 0.0
O25 O 0.11129 0.82094 0.56542 0.0
In26 In 0.44734 0.84132 0.82052 0.0
O27 O 0.43736 0.81436 0.81803 0.0
O28 O 0.43207 0.82817 0.84019 0.0
C29 C 0.45985 0.84925 0.79043 0.0
C30 C 0.42282 0.86407 0.82016 0.0
C31 C 0.47522 0.83966 0.83946 0.0
O32 O 0.45491 0.83454 0.79372 0.0
O33 O 0.45844 0.85963 0.80224 0.0
O34 O 0.46294 0.84876 0.84348 0.0
O35 O 0.47343 0.83167 0.82598 0.0
C36 C 0.4304 0.81464 0.83226 0.0
O37 O 0.43589 0.86589 0.82892 0.0
O38 O 0.42221 0.85077 0.8116 0.0
In39 In 0.40265 0.19472 0.07157 0.0
O40 O 0.43121 0.19747 0.07218 0.0
O41 O 0.42092 0.17352 0.07721 0.0
C42 C 0.39505 0.20594 0.04059 0.0
C43 C 0.38045 0.17016 0.07696 0.0
C44 C 0.39959 0.21961 0.09437 0.0
O45 O 0.41001 0.20457 0.04554 0.0
O46 O 0.38423 0.20131 0.05106 0.0
O47 O 0.40455 0.20514 0.09823 0.0
O48 O 0.39595 0.22143 0.07914 0.0
C49 C 0.43388 0.18245 0.07632 0.0
O50 O 0.3805 0.18355 0.08539 0.0
O51 O 0.39165 0.16917 0.06584 0.0
In52 In 0.04505 0.84976 0.16559 0.0
O53 O 0.05913 0.82498 0.16955 0.0
O54 O 0.06296 0.83869 0.14696 0.0
C55 C 0.02821 0.85657 0.19384 0.0
C56 C 0.06731 0.87473 0.16621 0.0
C57 C 0.02024 0.8424 0.14405 0.0
O58 O 0.03643 0.84312 0.19215 0.0
O59 O 0.02848 0.86621 0.18136 0.0
O60 O 0.02776 0.85633 0.14368 0.0
O61 O 0.02495 0.83258 0.15548 0.0
C62 C 0.06635 0.8258 0.15545 0.0
O63 O 0.05526 0.87441 0.15593 0.0
O64 O 0.06791 0.86256 0.1763 0.0
In65 In 0.39528 0.79693 0.42203 0.0
O66 O 0.37252 0.80899 0.40993 0.0
O67 O 0.38448 0.82191 0.42998 0.0
C68 C 0.39195 0.77331 0.39798 0.0
C69 C 0.42619 0.80933 0.4164 0.0
C70 C 0.39028 0.78383 0.45272 0.0
O71 O 0.38806 0.77079 0.41305 0.0
O72 O 0.39698 0.78793 0.39487 0.0
O73 O 0.37853 0.78789 0.44304 0.0
O74 O 0.40477 0.7866 0.44706 0.0
C75 C 0.37286 0.82175 0.41927 0.0
O76 O 0.42355 0.79404 0.41937 0.0
O77 O 0.41336 0.81849 0.41714 0.0
In78 In 0.44678 0.149 0.67513 0.0
O79 O 0.4515 0.17716 0.6759 0.0
O80 O 0.42643 0.16891 0.67289 0.0
C81 C 0.45802 0.13811 0.70505 0.0
C82 C 0.42158 0.12816 0.66761 0.0
C83 C 0.47104 0.14881 0.65157 0.0
O84 O 0.45447 0.15329 0.70239 0.0
O85 O 0.45564 0.12855 0.69276 0.0
O86 O 0.47366 0.14484 0.66661 0.0
O87 O 0.45605 0.15249 0.64824 0.0
C88 C 0.4364 0.18113 0.67357 0.0
O89 O 0.43533 0.12801 0.65982 0.0
O90 O 0.42057 0.13881 0.67924 0.0
In91 In 0.10151 0.19842 0.91906 0.0
O92 O 0.12416 0.18611 0.90705 0.0
O93 O 0.11218 0.17346 0.92725 0.0
C94 C 0.10519 0.22291 0.89604 0.0
C95 C 0.07027 0.18727 0.91265 0.0
C96 C 0.10783 0.20999 0.95002 0.0
O97 O 0.10208 0.20796 0.89202 0.0
O98 O 0.10679 0.22537 0.91153 0.0
O99 O 0.09338 0.2052 0.94573 0.0
O100 O 0.11879 0.20896 0.93875 0.0
C101 C 0.12387 0.17353 0.91663 0.0
O102 O 0.07328 0.20227 0.91659 0.0
O103 O 0.08288 0.17779 0.91267 0.0
In104 In 0.32033 0.04683 0.14617 0.0
O105 O 0.31791 0.05898 0.17218 0.0
O106 O 0.34103 0.06087 0.15898 0.0
C107 C 0.28934 0.0358 0.13889 0.0
C108 C 0.32474 0.07119 0.12363 0.0
C109 C 0.33853 0.01865 0.15005 0.0
O110 O 0.29321 0.04061 0.15345 0.0
O111 O 0.30101 0.03655 0.12834 0.0
O112 O 0.33799 0.02641 0.1363 0.0
O113 O 0.32949 0.02473 0.16144 0.0
C114 C 0.33289 0.0642 0.17209 0.0
O115 O 0.33256 0.05744 0.12291 0.0
O116 O 0.31443 0.07247 0.13556 0.0
In117 In 0.19514 0.07829 0.39479 0.0
O118 O 0.18238 0.07465 0.42024 0.0
O119 O 0.17722 0.09677 0.40616 0.0
C120 C 0.21256 0.04994 0.38975 0.0
C121 C 0.17157 0.07624 0.37114 0.0
C122 C 0.21919 0.10159 0.39887 0.0
O123 O 0.2063 0.05339 0.40386 0.0
O124 O 0.21 0.06068 0.37851 0.0
O125 O 0.21196 0.09947 0.38498 0.0
O126 O 0.21465 0.09173 0.4103 0.0
C127 C 0.17477 0.08855 0.41943 0.0
O128 O 0.18366 0.08641 0.37022 0.0
O129 O 0.17153 0.06692 0.38393 0.0
In130 In 0.17246 0.94687 0.64285 0.0
O131 O 0.17389 0.93579 0.66948 0.0
O132 O 0.15045 0.93638 0.6568 0.0
C133 C 0.20326 0.95781 0.6354 0.0
C134 C 0.17145 0.92118 0.62144 0.0
C135 C 0.15552 0.97598 0.64321 0.0
O136 O 0.19919 0.95404 0.65026 0.0
O137 O 0.19187 0.95595 0.62462 0.0
O138 O 0.15091 0.96377 0.63427 0.0
O139 O 0.16871 0.97356 0.65153 0.0
C140 C 0.15838 0.9325 0.66986 0.0
O141 O 0.16377 0.93476 0.61867 0.0
O142 O 0.1796 0.92066 0.63498 0.0
In143 In 0.30114 0.91776 0.88883 0.0
O144 O 0.31079 0.90655 0.86462 0.0
O145 O 0.32477 0.92636 0.87588 0.0
C146 C 0.2748 0.89805 0.89621 0.0
C147 C 0.32132 0.90682 0.91339 0.0
C148 C 0.28714 0.94738 0.88141 0.0
O149 O 0.2824 0.89701 0.88238 0.0
O150 O 0.28012 0.90934 0.90588 0.0
O151 O 0.29501 0.94511 0.89496 0.0
O152 O 0.2862 0.93474 0.87202 0.0
C153 C 0.32353 0.91594 0.86405 0.0
O154 O 0.31473 0.92124 0.91391 0.0
O155 O 0.31795 0.89841 0.90046 0.0
In156 In 0.32772 0.94976 0.35132 0.0
O157 O 0.34079 0.93609 0.37247 0.0
O158 O 0.31658 0.92757 0.36516 0.0
C159 C 0.35249 0.97209 0.34522 0.0
C160 C 0.33055 0.93066 0.32378 0.0
C161 C 0.30042 0.96759 0.36005 0.0
O162 O 0.34973 0.96638 0.35968 0.0
O163 O 0.34267 0.96681 0.33411 0.0
O164 O 0.30088 0.95872 0.347 0.0
O165 O 0.31374 0.96764 0.36847 0.0
C166 C 0.32907 0.92569 0.37466 0.0
O167 O 0.32045 0.94283 0.32462 0.0
O168 O 0.33888 0.92796 0.33693 0.0
In169 In 0.2982 0.07124 0.59257 0.0
O170 O 0.30968 0.08732 0.61309 0.0
O171 O 0.32239 0.06498 0.6059 0.0
C172 C 0.27318 0.09414 0.59251 0.0
C173 C 0.31247 0.07306 0.56195 0.0
C174 C 0.28654 0.04097 0.60182 0.0
O175 O 0.27124 0.07929 0.59745 0.0
O176 O 0.28784 0.09761 0.58785 0.0
O177 O 0.28942 0.04456 0.58669 0.0
O178 O 0.28963 0.05254 0.61207 0.0
C179 C 0.32215 0.07779 0.61514 0.0
O180 O 0.2972 0.06947 0.56392 0.0
O181 O 0.32052 0.07499 0.57535 0.0
In182 In 0.17389 0.0465 0.85264 0.0
O183 O 0.16608 0.05813 0.87736 0.0
O184 O 0.18169 0.07235 0.86099 0.0
C185 C 0.15658 0.01765 0.85213 0.0
C186 C 0.15908 0.06141 0.82631 0.0
C187 C 0.20483 0.03479 0.85792 0.0
O188 O 0.15249 0.02964 0.8616 0.0
O189 O 0.16944 0.02016 0.84333 0.0
O190 O 0.20029 0.04026 0.84375 0.0
O191 O 0.19383 0.03547 0.86924 0.0
C192 C 0.17381 0.07169 0.87466 0.0
O193 O 0.17452 0.05786 0.82615 0.0
O194 O 0.15152 0.05752 0.83959 0.0
In195 In 0.19115 0.92512 0.0974 0.0
O196 O 0.18006 0.91491 0.12145 0.0
O197 O 0.16627 0.93342 0.10789 0.0
C198 C 0.21917 0.90676 0.09339 0.0
C199 C 0.17391 0.91434 0.07054 0.0
C200 C 0.20354 0.95483 0.10686 0.0
O201 O 0.20762 0.90226 0.10321 0.0
O202 O 0.21662 0.92045 0.08597 0.0
O203 O 0.19741 0.95263 0.09241 0.0
O204 O 0.20336 0.94212 0.11625 0.0
C205 C 0.167 0.92384 0.12047 0.0
O206 O 0.18115 0.92844 0.07056 0.0
O207 O 0.17533 0.90612 0.08392 0.0
In208 In 0.14419 0.32176 0.04809 0.0
O209 O 0.17222 0.32436 0.04322 0.0
O210 O 0.16378 0.32679 0.06828 0.0
C211 C 0.13645 0.29104 0.03655 0.0
C212 C 0.12258 0.32523 0.07339 0.0
C213 C 0.13983 0.34543 0.02437 0.0
O214 O 0.15141 0.29534 0.03934 0.0
O215 O 0.1257 0.30213 0.03962 0.0
O216 O 0.14314 0.34899 0.03938 0.0
O217 O 0.13847 0.32998 0.02141 0.0
C218 C 0.17594 0.32743 0.05825 0.0
O219 O 0.12202 0.33429 0.06045 0.0
O220 O 0.13425 0.31457 0.07368 0.0
In221 In 0.63864 0.16699 0.94626 0.0
O222 O 0.66544 0.16804 0.93573 0.0
O223 O 0.65261 0.14472 0.93594 0.0
C224 C 0.63432 0.19803 0.9582 0.0
C225 C 0.61691 0.1681 0.92075 0.0
C226 C 0.63661 0.14891 0.97462 0.0
O227 O 0.64854 0.1928 0.95352 0.0
O228 O 0.62251 0.18764 0.9567 0.0
O229 O 0.62896 0.14469 0.96145 0.0
O230 O 0.64502 0.16222 0.97349 0.0
C231 C 0.66579 0.15258 0.93234 0.0
O232 O 0.6136 0.16068 0.93431 0.0
O233 O 0.63115 0.17489 0.92012 0.0
In234 In 0.07113 0.39091 0.19977 0.0
O235 O 0.07057 0.41778 0.18911 0.0
O236 O 0.0937 0.40463 0.19012 0.0
C237 C 0.03972 0.38595 0.21041 0.0
C238 C 0.07169 0.36953 0.17406 0.0
C239 C 0.08854 0.38877 0.22852 0.0
O240 O 0.04532 0.40049 0.20747 0.0
O241 O 0.04991 0.37416 0.20782 0.0
O242 O 0.09279 0.38084 0.21555 0.0
O243 O 0.07538 0.39737 0.22708 0.0
C244 C 0.08615 0.41792 0.18624 0.0
O245 O 0.07846 0.3662 0.18796 0.0
O246 O 0.06451 0.3836 0.17325 0.0
In247 In 0.85365 0.82558 0.44366 0.0
O248 O 0.87791 0.83584 0.43308 0.0
O249 O 0.86625 0.81526 0.42057 0.0
C250 C 0.84639 0.84655 0.46901 0.0
C251 C 0.82944 0.8358 0.4227 0.0
C252 C 0.86105 0.79692 0.45954 0.0
O253 O 0.8603 0.84708 0.46147 0.0
O254 O 0.83657 0.83522 0.46407 0.0
O255 O 0.8472 0.79888 0.4521 0.0
O256 O 0.87073 0.80937 0.45907 0.0
C257 C 0.87823 0.8256 0.42099 0.0
O258 O 0.82876 0.82162 0.42981 0.0
O259 O 0.8423 0.84433 0.42603 0.0
In260 In 0.91808 0.09323 0.1984 0.0
O261 O 0.9229 0.06679 0.188 0.0
O262 O 0.90119 0.08011 0.18004 0.0
C263 C 0.94718 0.1035 0.21189 0.0
C264 C 0.91412 0.11694 0.17512 0.0
C265 C 0.89802 0.08654 0.2247 0.0
O266 O 0.94603 0.08971 0.2042 0.0
O267 O 0.93375 0.1117 0.21289 0.0
O268 O 0.89673 0.09988 0.21633 0.0
O269 O 0.90963 0.07691 0.22007 0.0
C270 C 0.90968 0.06683 0.17924 0.0
O271 O 0.90485 0.11598 0.18791 0.0
O272 O 0.92555 0.10602 0.17422 0.0
In273 In 0.35333 0.66436 0.54382 0.0
O274 O 0.32478 0.66701 0.54705 0.0
O275 O 0.33756 0.6485 0.56119 0.0
C276 C 0.36163 0.6946 0.53188 0.0
C277 C 0.37484 0.66494 0.5695 0.0
C278 C 0.35483 0.64356 0.5172 0.0
O279 O 0.34709 0.6915 0.53739 0.0
O280 O 0.37175 0.68247 0.5324 0.0
O281 O 0.35937 0.639 0.53161 0.0
O282 O 0.3498 0.65847 0.51627 0.0
C283 C 0.32379 0.65526 0.5576 0.0
O284 O 0.37671 0.65517 0.55719 0.0
O285 O 0.36218 0.67438 0.56875 0.0
In286 In 0.07046 0.60035 0.29465 0.0
O287 O 0.07245 0.57196 0.29188 0.0
O288 O 0.07451 0.58215 0.31631 0.0
C289 C 0.03965 0.60767 0.28301 0.0
C290 C 0.07538 0.62298 0.31887 0.0
C291 C 0.09398 0.60211 0.2704 0.0
O292 O 0.04417 0.59281 0.28598 0.0
O293 O 0.0506 0.61862 0.28596 0.0
O294 O 0.07864 0.60469 0.26767 0.0
O295 O 0.09755 0.59911 0.28547 0.0
C296 C 0.07509 0.56928 0.30721 0.0
O297 O 0.08416 0.62266 0.30573 0.0
O298 O 0.06414 0.6119 0.31972 0.0
In299 In 0.4146 0.39246 0.79228 0.0
O300 O 0.4194 0.41807 0.80447 0.0
O301 O 0.39625 0.40559 0.80903 0.0
C302 C 0.44387 0.38385 0.77813 0.0
C303 C 0.41147 0.36881 0.81581 0.0
C304 C 0.39472 0.39995 0.76607 0.0
O305 O 0.44205 0.39751 0.78592 0.0
O306 O 0.43099 0.37476 0.77749 0.0
O307 O 0.39352 0.38618 0.77377 0.0
O308 O 0.40622 0.40943 0.7712 0.0
C309 C 0.40519 0.41837 0.81149 0.0
O310 O 0.40234 0.36912 0.80288 0.0
O311 O 0.42241 0.3802 0.81659 0.0
In312 In 0.9483 0.85598 0.67117 0.0
O313 O 0.93617 0.83003 0.67345 0.0
O314 O 0.93273 0.84404 0.65098 0.0
C315 C 0.96194 0.86155 0.70141 0.0
C316 C 0.92392 0.87889 0.67031 0.0
C317 C 0.97481 0.85249 0.65065 0.0
O318 O 0.95572 0.84751 0.69757 0.0
O319 O 0.96141 0.87242 0.69 0.0
O320 O 0.96731 0.86632 0.65227 0.0
O321 O 0.96936 0.84084 0.65977 0.0
C322 C 0.92993 0.83065 0.65888 0.0
O323 O 0.93678 0.87989 0.66114 0.0
O324 O 0.92357 0.86648 0.6801 0.0
In325 In 0.89583 0.19751 0.42094 0.0
O326 O 0.87127 0.18571 0.4131 0.0
O327 O 0.88726 0.1719 0.42949 0.0
C328 C 0.89497 0.22498 0.4013 0.0
C329 C 0.92355 0.18191 0.4096 0.0
C330 C 0.88851 0.20946 0.45142 0.0
O331 O 0.88805 0.21145 0.39707 0.0
O332 O 0.9022 0.22463 0.4153 0.0
O333 O 0.90325 0.20512 0.44755 0.0
O334 O 0.87776 0.20768 0.44 0.0
C335 C 0.87371 0.17242 0.42135 0.0
O336 O 0.92358 0.18984 0.4233 0.0
O337 O 0.90978 0.18199 0.40196 0.0
In338 In 0.55357 0.15684 0.1735 0.0
O339 O 0.56185 0.18392 0.17888 0.0
O340 O 0.5762 0.16926 0.16198 0.0
C341 C 0.53627 0.15532 0.20261 0.0
C342 C 0.57391 0.13011 0.17239 0.0
C343 C 0.53216 0.15766 0.14721 0.0
O344 O 0.54936 0.147 0.19993 0.0
O345 O 0.53216 0.16499 0.19084 0.0
O346 O 0.53217 0.14578 0.15765 0.0
O347 O 0.54296 0.16879 0.14997 0.0
C348 C 0.57416 0.18324 0.16895 0.0
O349 O 0.561 0.13123 0.16329 0.0
O350 O 0.57634 0.14237 0.18206 0.0
In351 In 0.6043 0.79551 0.9186 0.0
O352 O 0.57739 0.80596 0.91988 0.0
O353 O 0.5908 0.80742 0.89695 0.0
C354 C 0.61049 0.78495 0.94982 0.0
C355 C 0.62678 0.8203 0.91783 0.0
C356 C 0.60411 0.76649 0.90142 0.0
O357 O 0.59595 0.78932 0.94524 0.0
O358 O 0.62165 0.78598 0.93869 0.0
O359 O 0.61248 0.779 0.89662 0.0
O360 O 0.59621 0.76855 0.91492 0.0
C361 C 0.57739 0.81039 0.90467 0.0
O362 O 0.62904 0.80662 0.9102 0.0
O363 O 0.61319 0.82139 0.92584 0.0
In364 In 0.94737 0.1495 0.82079 0.0
O365 O 0.93641 0.17575 0.81657 0.0
O366 O 0.92909 0.16194 0.83821 0.0
C367 C 0.96263 0.14049 0.79226 0.0
C368 C 0.92352 0.12607 0.82143 0.0
C369 C 0.97286 0.15571 0.84196 0.0
O370 O 0.9551 0.15437 0.7936 0.0
O371 O 0.96264 0.13158 0.80528 0.0
O372 O 0.96461 0.14222 0.84257 0.0
O373 O 0.96854 0.16563 0.83047 0.0
C374 C 0.92793 0.17536 0.82997 0.0
O375 O 0.93537 0.12636 0.83194 0.0
O376 O 0.92388 0.13751 0.81051 0.0
In377 In 0.59773 0.19856 0.57342 0.0
O378 O 0.62162 0.18619 0.5824 0.0
O379 O 0.60656 0.17317 0.56455 0.0
C380 C 0.59824 0.22646 0.59248 0.0
C381 C 0.56995 0.18316 0.58491 0.0
C382 C 0.60547 0.20999 0.54286 0.0
O383 O 0.60577 0.21325 0.59674 0.0
O384 O 0.59062 0.22559 0.5787 0.0
O385 O 0.59081 0.20517 0.54648 0.0
O386 O 0.61597 0.20899 0.55461 0.0
C387 C 0.61955 0.17321 0.57358 0.0
O388 O 0.56987 0.19123 0.5713 0.0
O389 O 0.58381 0.18298 0.59239 0.0
In390 In 0.54681 0.84914 0.32275 0.0
O391 O 0.55758 0.87336 0.33279 0.0
O392 O 0.57092 0.86065 0.3134 0.0
C393 C 0.5209 0.84329 0.34347 0.0
C394 C 0.5661 0.82392 0.33374 0.0
C395 C 0.53168 0.85609 0.29361 0.0
O396 O 0.52906 0.85685 0.34397 0.0
O397 O 0.52544 0.83322 0.33221 0.0
O398 O 0.53841 0.84201 0.2963 0.0
O399 O 0.5326 0.86636 0.30553 0.0
C400 C 0.57026 0.87297 0.32331 0.0
O401 O 0.5598 0.82372 0.31919 0.0
O402 O 0.563 0.8369 0.34218 0.0
In403 In 0.89277 0.79644 0.06788 0.0
O404 O 0.92095 0.79261 0.07072 0.0
O405 O 0.91162 0.81744 0.07224 0.0
C406 C 0.88592 0.7854 0.03673 0.0
C407 C 0.87059 0.82106 0.07339 0.0
C408 C 0.89073 0.77177 0.09093 0.0
O409 O 0.90045 0.78986 0.04107 0.0
O410 O 0.875 0.78663 0.04802 0.0
O411 O 0.89345 0.78683 0.09483 0.0
O412 O 0.88858 0.76926 0.07549 0.0
C413 C 0.92412 0.80788 0.07324 0.0
O414 O 0.87035 0.80749 0.0815 0.0
O415 O 0.88187 0.82206 0.06238 0.0
In416 In 0.67374 0.9486 0.85229 0.0
O417 O 0.66651 0.93633 0.87684 0.0
O418 O 0.68071 0.92203 0.85931 0.0
C419 C 0.65613 0.97726 0.85464 0.0
C420 C 0.65891 0.93547 0.82496 0.0
C421 C 0.70505 0.9595 0.85742 0.0
O422 O 0.65187 0.96414 0.86234 0.0
O423 O 0.66939 0.976 0.84617 0.0
O424 O 0.69961 0.95634 0.84288 0.0
O425 O 0.69475 0.95703 0.86913 0.0
C426 C 0.67354 0.92258 0.87339 0.0
O427 O 0.67448 0.93837 0.82528 0.0
O428 O 0.65126 0.93907 0.83825 0.0
In429 In 0.79629 0.91958 0.59697 0.0
O430 O 0.79301 0.91762 0.56864 0.0
O431 O 0.81746 0.91447 0.57859 0.0
C432 C 0.78367 0.95015 0.60359 0.0
C433 C 0.82124 0.91769 0.61927 0.0
C434 C 0.77306 0.89517 0.60026 0.0
O435 O 0.78703 0.94555 0.58884 0.0
O436 O 0.7866 0.93938 0.6147 0.0
O437 O 0.78814 0.89207 0.59679 0.0
O438 O 0.76984 0.91047 0.60244 0.0
C439 C 0.80821 0.91437 0.56581 0.0
O440 O 0.82131 0.92796 0.60726 0.0
O441 O 0.80862 0.90818 0.61992 0.0
In442 In 0.82379 0.04448 0.35541 0.0
O443 O 0.82654 0.04016 0.32736 0.0
O444 O 0.82914 0.06506 0.33635 0.0
C445 C 0.79275 0.03273 0.36125 0.0
C446 C 0.82705 0.06955 0.37746 0.0
C447 C 0.84748 0.02056 0.35878 0.0
O448 O 0.79765 0.03656 0.34674 0.0
O449 O 0.80343 0.03488 0.37263 0.0
O450 O 0.83215 0.01786 0.36142 0.0
O451 O 0.85096 0.03548 0.35497 0.0
C452 C 0.82972 0.05526 0.32399 0.0
O453 O 0.83584 0.05642 0.37821 0.0
O454 O 0.81669 0.07001 0.36554 0.0
In455 In 0.68875 0.073 0.09838 0.0
O456 O 0.68091 0.08402 0.12346 0.0
O457 O 0.66721 0.06321 0.11395 0.0
C458 C 0.71405 0.09335 0.08955 0.0
C459 C 0.66782 0.08318 0.07404 0.0
C460 C 0.70546 0.04432 0.10338 0.0
O461 O 0.70645 0.09506 0.10335 0.0
O462 O 0.70887 0.08146 0.0805 0.0
O463 O 0.69188 0.04459 0.09527 0.0
O464 O 0.71035 0.05825 0.10891 0.0
C465 C 0.66881 0.074 0.12537 0.0
O466 O 0.67565 0.06943 0.07302 0.0
O467 O 0.67029 0.09124 0.08736 0.0
In468 In 0.67099 0.04679 0.6431 0.0
O469 O 0.65693 0.05793 0.6211 0.0
O470 O 0.67712 0.07195 0.63149 0.0
C471 C 0.64784 0.02219 0.64156 0.0
C472 C 0.66662 0.05867 0.67441 0.0
C473 C 0.70169 0.03532 0.63518 0.0
O474 O 0.66312 0.01979 0.63844 0.0
O475 O 0.64409 0.03712 0.64503 0.0
O476 O 0.69772 0.03895 0.65004 0.0
O477 O 0.69028 0.03761 0.62455 0.0
C478 C 0.66574 0.07105 0.62056 0.0
O479 O 0.66986 0.0435 0.67142 0.0
O480 O 0.66651 0.068 0.66169 0.0
In481 In 0.70019 0.91474 0.39028 0.0
O482 O 0.6876 0.90772 0.36575 0.0
O483 O 0.67331 0.92105 0.3839 0.0
C484 C 0.72895 0.89735 0.38731 0.0
C485 C 0.6884 0.90068 0.41858 0.0
C486 C 0.71044 0.94625 0.38509 0.0
O487 O 0.71545 0.89241 0.38075 0.0
O488 O 0.72797 0.91113 0.39495 0.0
O489 O 0.70713 0.94082 0.3996 0.0
O490 O 0.70853 0.93578 0.37341 0.0
C491 C 0.67379 0.91437 0.36959 0.0
O492 O 0.69109 0.91625 0.41757 0.0
O493 O 0.69146 0.89257 0.40542 0.0
In494 In 0.81701 0.94619 0.14824 0.0
O495 O 0.83158 0.93345 0.12749 0.0
O496 O 0.81069 0.92049 0.13786 0.0
C497 C 0.8414 0.96959 0.14715 0.0
C498 C 0.81936 0.93614 0.18045 0.0
C499 C 0.78806 0.95898 0.1365 0.0
O500 O 0.84452 0.95431 0.14971 0.0
O501 O 0.82613 0.97293 0.14493 0.0
O502 O 0.78945 0.95409 0.15149 0.0
O503 O 0.80102 0.95713 0.12776 0.0
C504 C 0.82251 0.92049 0.12738 0.0
O505 O 0.81725 0.95127 0.1764 0.0
O506 O 0.81921 0.92604 0.16834 0.0
In507 In 0.79799 0.07641 0.89028 0.0
O508 O 0.81067 0.07446 0.91609 0.0
O509 O 0.81033 0.09797 0.90351 0.0
C510 C 0.78757 0.04549 0.88256 0.0
C511 C 0.82174 0.07899 0.86688 0.0
C512 C 0.76855 0.09232 0.89425 0.0
O513 O 0.79321 0.04899 0.89696 0.0
O514 O 0.78727 0.05753 0.87234 0.0
O515 O 0.77929 0.09715 0.88369 0.0
O516 O 0.77258 0.07942 0.90243 0.0
C517 C 0.81468 0.0898 0.91628 0.0
O518 O 0.80799 0.0868 0.86579 0.0
O519 O 0.82334 0.06988 0.8797 0.0
In520 In 0.84685 0.67384 0.93904 0.0
O521 O 0.87101 0.66219 0.92991 0.0
O522 O 0.85892 0.68016 0.9142 0.0
C523 C 0.84166 0.65593 0.9672 0.0
C524 C 0.82003 0.66403 0.92106 0.0
C525 C 0.85657 0.7038 0.95074 0.0
O526 O 0.85158 0.65107 0.95591 0.0
O527 O 0.83463 0.66976 0.96432 0.0
O528 O 0.84225 0.70168 0.94429 0.0
O529 O 0.86572 0.69094 0.95113 0.0
C530 C 0.87104 0.67018 0.91624 0.0
O531 O 0.82041 0.67811 0.9283 0.0
O532 O 0.83306 0.65532 0.92282 0.0
In533 In 0.3474 0.82731 0.0443 0.0
O534 O 0.32011 0.82676 0.05368 0.0
O535 O 0.33364 0.84969 0.05448 0.0
C536 C 0.35331 0.796 0.03395 0.0
C537 C 0.36792 0.8267 0.0707 0.0
C538 C 0.35034 0.84453 0.01552 0.0
O539 O 0.33859 0.80109 0.03691 0.0
O540 O 0.36472 0.8067 0.03614 0.0
O541 O 0.35797 0.84884 0.02866 0.0
O542 O 0.34151 0.83151 0.01688 0.0
C543 C 0.3201 0.84217 0.05739 0.0
O544 O 0.37158 0.83444 0.05739 0.0
O545 O 0.35388 0.81946 0.07066 0.0
In546 In 0.91974 0.59115 0.79623 0.0
O547 O 0.90784 0.61445 0.80709 0.0
O548 O 0.92929 0.6043 0.81945 0.0
C549 C 0.89886 0.58505 0.77038 0.0
C550 C 0.91094 0.56585 0.81662 0.0
C551 C 0.94881 0.60005 0.78185 0.0
O552 O 0.89839 0.59855 0.77858 0.0
O553 O 0.91004 0.5749 0.77498 0.0
O554 O 0.94713 0.58602 0.789 0.0
O555 O 0.93587 0.60906 0.78167 0.0
C556 C 0.91813 0.61553 0.81908 0.0
O557 O 0.92413 0.56519 0.80786 0.0
O558 O 0.9026 0.57917 0.81512 0.0
In559 In 0.1449 0.17271 0.54717 0.0
O560 O 0.17279 0.17542 0.55415 0.0
O561 O 0.15955 0.15373 0.56208 0.0
C562 C 0.13685 0.20294 0.535 0.0
C563 C 0.12318 0.17283 0.57261 0.0
C564 C 0.14398 0.15302 0.51977 0.0
O565 O 0.15168 0.19946 0.53942 0.0
O566 O 0.12637 0.19128 0.53693 0.0
O567 O 0.13732 0.14868 0.5334 0.0
O568 O 0.15094 0.16717 0.52 0.0
C569 C 0.17323 0.16156 0.5618 0.0
O570 O 0.1206 0.1647 0.55928 0.0
O571 O 0.13674 0.18097 0.57304 0.0
In572 In 0.07565 0.89394 0.79899 0.0
O573 O 0.08469 0.86915 0.80953 0.0
O574 O 0.06784 0.88389 0.82417 0.0
C575 C 0.09275 0.89718 0.77017 0.0
C576 C 0.08949 0.91948 0.81598 0.0
C577 C 0.04497 0.88731 0.7873 0.0
O578 O 0.0969 0.88658 0.78116 0.0
O579 O 0.07995 0.90575 0.77364 0.0
O580 O 0.04877 0.90162 0.793 0.0
O581 O 0.05659 0.87661 0.78763 0.0
C582 C 0.07653 0.87072 0.82301 0.0
O583 O 0.07425 0.91983 0.81162 0.0
O584 O 0.09731 0.90644 0.81179 0.0
In585 In 0.63798 0.32653 0.44981 0.0
O586 O 0.61383 0.33454 0.4371 0.0
O587 O 0.63114 0.31963 0.42326 0.0
C588 C 0.63598 0.34319 0.47903 0.0
C589 C 0.6656 0.34127 0.43725 0.0
C590 C 0.63208 0.2951 0.45989 0.0
O591 O 0.62819 0.34797 0.46614 0.0
O592 O 0.64434 0.32991 0.47724 0.0
O593 O 0.64673 0.30017 0.45661 0.0
O594 O 0.62064 0.30585 0.458 0.0
C595 C 0.61727 0.32722 0.4235 0.0
O596 O 0.66518 0.3257 0.44019 0.0
O597 O 0.65224 0.34898 0.44049 0.0
In598 In 0.91824 0.40002 0.69935 0.0
O599 O 0.90709 0.37648 0.68818 0.0
O600 O 0.92883 0.38685 0.67657 0.0
C601 C 0.89495 0.40729 0.72272 0.0
C602 C 0.91234 0.42529 0.67789 0.0
C603 C 0.94557 0.39085 0.7168 0.0
O604 O 0.89494 0.39362 0.71481 0.0
O605 O 0.90683 0.41702 0.7191 0.0
O606 O 0.94481 0.40476 0.70929 0.0
O607 O 0.9326 0.38196 0.71566 0.0
C608 C 0.91777 0.37554 0.67652 0.0
O609 O 0.92475 0.42553 0.68775 0.0
O610 O 0.90327 0.41241 0.67891 0.0
In611 In 0.56951 0.59833 0.19918 0.0
O612 O 0.58215 0.62116 0.18779 0.0
O613 O 0.56284 0.60915 0.17384 0.0
C614 C 0.59275 0.6 0.2237 0.0
C615 C 0.57469 0.56701 0.18761 0.0
C616 C 0.53869 0.60578 0.21059 0.0
O617 O 0.59662 0.59765 0.20858 0.0
O618 O 0.57732 0.602 0.22631 0.0
O619 O 0.5425 0.59122 0.20573 0.0
O620 O 0.55035 0.61634 0.20964 0.0
C621 C 0.57342 0.62085 0.17461 0.0
O622 O 0.57089 0.56998 0.20265 0.0
O623 O 0.57507 0.57974 0.17829 0.0
In624 In 0.54518 0.64268 0.82809 0.0
O625 O 0.55881 0.66774 0.82408 0.0
O626 O 0.56247 0.65434 0.84689 0.0
C627 C 0.52874 0.63535 0.79971 0.0
C628 C 0.56832 0.61855 0.8281 0.0
C629 C 0.52032 0.64947 0.84976 0.0
O630 O 0.53599 0.64929 0.8017 0.0
O631 O 0.52978 0.62545 0.81195 0.0
O632 O 0.52808 0.63568 0.85002 0.0
O633 O 0.5247 0.65937 0.83827 0.0
C634 C 0.56575 0.66721 0.83835 0.0
O635 O 0.55589 0.61834 0.83791 0.0
O636 O 0.5688 0.63077 0.81806 0.0
In637 In 0.60355 0.29813 0.07194 0.0
O638 O 0.57559 0.29282 0.07435 0.0
O639 O 0.58348 0.3182 0.07497 0.0
C640 C 0.61126 0.28429 0.0422 0.0
C641 C 0.62437 0.32437 0.07386 0.0
C642 C 0.60742 0.27649 0.09764 0.0
O643 O 0.59641 0.28805 0.04608 0.0
O644 O 0.62201 0.28747 0.05328 0.0
O645 O 0.60294 0.29147 0.09974 0.0
O646 O 0.61033 0.27253 0.08264 0.0
C647 C 0.57151 0.30798 0.07614 0.0
O648 O 0.62513 0.31217 0.08389 0.0
O649 O 0.61306 0.32332 0.06289 0.0
In650 In 0.94117 0.35056 0.32412 0.0
O651 O 0.93063 0.37416 0.33578 0.0
O652 O 0.91759 0.36336 0.31509 0.0
C653 C 0.96728 0.34331 0.34418 0.0
C654 C 0.92152 0.32524 0.33428 0.0
C655 C 0.95556 0.3589 0.29497 0.0
O656 O 0.95945 0.35702 0.34528 0.0
O657 O 0.96231 0.33373 0.33266 0.0
O658 O 0.94763 0.3453 0.2967 0.0
O659 O 0.95637 0.36789 0.3079 0.0
C660 C 0.91823 0.37484 0.32595 0.0
O661 O 0.92876 0.32491 0.32018 0.0
O662 O 0.92391 0.3384 0.34268 0.0
In663 In 0.89701 0.70115 0.57592 0.0
O664 O 0.9244 0.69252 0.57317 0.0
O665 O 0.9106 0.6848 0.59455 0.0
C666 C 0.88929 0.71398 0.5459 0.0
C667 C 0.87419 0.67665 0.57578 0.0
C668 C 0.8986 0.72892 0.59502 0.0
O669 O 0.90335 0.70722 0.54876 0.0
O670 O 0.8793 0.71414 0.55814 0.0
O671 O 0.88964 0.71653 0.59904 0.0
O672 O 0.90657 0.72724 0.58152 0.0
C673 C 0.92428 0.68439 0.58674 0.0
O674 O 0.87317 0.68904 0.58559 0.0
O675 O 0.88659 0.67682 0.56597 0.0
In676 In 0.54995 0.35298 0.66799 0.0
O677 O 0.56266 0.37688 0.6595 0.0
O678 O 0.57309 0.36372 0.68031 0.0
C679 C 0.52538 0.34916 0.64526 0.0
C680 C 0.56958 0.32801 0.65703 0.0
C681 C 0.53286 0.35821 0.69644 0.0
O682 O 0.53249 0.36312 0.64747 0.0
O683 O 0.53029 0.33758 0.65477 0.0
O684 O 0.53957 0.34422 0.69328 0.0
O685 O 0.53471 0.36921 0.68529 0.0
C686 C 0.57403 0.3761 0.6705 0.0
O687 O 0.5621 0.32713 0.67098 0.0
O688 O 0.56747 0.34155 0.64915 0.0
In689 In 0.90071 0.29527 0.92463 0.0
O690 O 0.87873 0.30626 0.91048 0.0
O691 O 0.88992 0.32109 0.92963 0.0
C692 C 0.89801 0.27121 0.90104 0.0
C693 C 0.9323 0.30662 0.92026 0.0
C694 C 0.89231 0.28393 0.95536 0.0
O695 O 0.8955 0.26844 0.91637 0.0
O696 O 0.90166 0.28617 0.89756 0.0
O697 O 0.90737 0.28619 0.95112 0.0
O698 O 0.88176 0.28751 0.94424 0.0
C699 C 0.87875 0.31987 0.91851 0.0
O700 O 0.92889 0.2913 0.92202 0.0
O701 O 0.9199 0.31629 0.92166 0.0
In702 In 0.94582 0.64837 0.16844 0.0
O703 O 0.93665 0.62405 0.15706 0.0
O704 O 0.92149 0.63595 0.17561 0.0
C705 C 0.97436 0.65361 0.15125 0.0
C706 C 0.92722 0.67432 0.15755 0.0
C707 C 0.95717 0.63927 0.19867 0.0
O708 O 0.96346 0.64326 0.14638 0.0
O709 O 0.97089 0.66106 0.16471 0.0
O710 O 0.9508 0.65358 0.19618 0.0
O711 O 0.95779 0.62988 0.18599 0.0
C712 C 0.92332 0.62383 0.16561 0.0
O713 O 0.93408 0.67451 0.17183 0.0
O714 O 0.92976 0.66122 0.14916 0.0
In715 In 0.59988 0.69619 0.41938 0.0
O716 O 0.62546 0.68738 0.41059 0.0
O717 O 0.61272 0.67269 0.42881 0.0
C718 C 0.59601 0.7228 0.39924 0.0
C719 C 0.57339 0.67878 0.40776 0.0
C720 C 0.60498 0.71182 0.4486 0.0
O721 O 0.60676 0.71158 0.3962 0.0
O722 O 0.5873 0.72045 0.41221 0.0
O723 O 0.59527 0.69934 0.4476 0.0
O724 O 0.61206 0.71602 0.43515 0.0
C725 C 0.62548 0.67443 0.41966 0.0
O726 O 0.5729 0.68626 0.4217 0.0
O727 O 0.58719 0.6798 0.40022 0.0
In728 In 0.82717 0.5452 0.63809 0.0
O729 O 0.82881 0.53986 0.66609 0.0
O730 O 0.83153 0.56508 0.65814 0.0
C731 C 0.79689 0.5325 0.63034 0.0
C732 C 0.83033 0.57127 0.61723 0.0
C733 C 0.85169 0.52211 0.63484 0.0
O734 O 0.801 0.53594 0.64521 0.0
O735 O 0.80794 0.53564 0.61956 0.0
O736 O 0.85463 0.53706 0.63897 0.0
O737 O 0.83653 0.51901 0.63178 0.0
C738 C 0.83176 0.55484 0.67015 0.0
O739 O 0.83947 0.55841 0.61618 0.0
O740 O 0.81962 0.57097 0.62884 0.0
In741 In 0.69617 0.57451 0.89837 0.0
O742 O 0.70016 0.57908 0.9263 0.0
O743 O 0.67532 0.58038 0.91698 0.0
C744 C 0.70782 0.54323 0.89336 0.0
C745 C 0.67088 0.57655 0.87645 0.0
C746 C 0.72025 0.5977 0.89312 0.0
O747 O 0.70555 0.54903 0.90789 0.0
O748 O 0.70417 0.55314 0.88166 0.0
O749 O 0.70536 0.60162 0.89658 0.0
O750 O 0.72283 0.58218 0.89184 0.0
C751 C 0.68495 0.58204 0.92936 0.0
O752 O 0.68386 0.58552 0.87521 0.0
O753 O 0.67066 0.56672 0.88882 0.0
In754 In 0.67075 0.44974 0.14543 0.0
O755 O 0.67686 0.44248 0.1724 0.0
O756 O 0.65806 0.42863 0.15956 0.0
C757 C 0.69849 0.46569 0.1349 0.0
C758 C 0.6681 0.4268 0.12125 0.0
C759 C 0.64756 0.47329 0.1524 0.0
O760 O 0.69862 0.45624 0.14756 0.0
O761 O 0.68442 0.46735 0.128 0.0
O762 O 0.64706 0.46469 0.13917 0.0
O763 O 0.6599 0.47032 0.16176 0.0
C764 C 0.66601 0.43098 0.173 0.0
O765 O 0.65779 0.43869 0.12284 0.0
O766 O 0.67977 0.42648 0.13192 0.0
In767 In 0.79637 0.42392 0.40138 0.0
O768 O 0.80765 0.42828 0.42759 0.0
O769 O 0.81275 0.4054 0.41495 0.0
C770 C 0.78394 0.45357 0.39163 0.0
C771 C 0.81941 0.42165 0.37725 0.0
C772 C 0.76854 0.40541 0.40616 0.0
O773 O 0.78988 0.45149 0.40617 0.0
O774 O 0.78429 0.44081 0.38235 0.0
O775 O 0.77999 0.40091 0.39626 0.0
O776 O 0.77112 0.41917 0.41344 0.0
C777 C 0.8149 0.41419 0.42785 0.0
O778 O 0.80614 0.413 0.37712 0.0
O779 O 0.82097 0.43146 0.38956 0.0
In780 In 0.81983 0.44644 0.85152 0.0
O781 O 0.83438 0.43345 0.87214 0.0
O782 O 0.81361 0.42055 0.86148 0.0
C783 C 0.84393 0.46998 0.85399 0.0
C784 C 0.82328 0.43706 0.81923 0.0
C785 C 0.78977 0.45826 0.86124 0.0
O786 O 0.84712 0.45491 0.85051 0.0
O787 O 0.82867 0.47306 0.85664 0.0
O788 O 0.79283 0.45447 0.8462 0.0
O789 O 0.80177 0.45596 0.8712 0.0
C790 C 0.82546 0.42041 0.87194 0.0
O791 O 0.82145 0.45213 0.82358 0.0
O792 O 0.82241 0.42667 0.83106 0.0
In793 In 0.79562 0.57833 0.09786 0.0
O794 O 0.80828 0.58429 0.12254 0.0
O795 O 0.82261 0.57195 0.10371 0.0
C796 C 0.76736 0.59619 0.10239 0.0
C797 C 0.80766 0.59301 0.06998 0.0
C798 C 0.78442 0.54697 0.10208 0.0
O799 O 0.78119 0.60072 0.10852 0.0
O800 O 0.76776 0.5826 0.09438 0.0
O801 O 0.78577 0.55348 0.08769 0.0
O802 O 0.78898 0.55619 0.11406 0.0
C803 C 0.82217 0.57804 0.11828 0.0
O804 O 0.8056 0.57732 0.0708 0.0
O805 O 0.80372 0.60088 0.08304 0.0
In806 In 0.66996 0.54896 0.34986 0.0
O807 O 0.66073 0.5608 0.37399 0.0
O808 O 0.67968 0.57352 0.36007 0.0
C809 C 0.65065 0.5213 0.34815 0.0
C810 C 0.65905 0.56565 0.3226 0.0
C811 C 0.69991 0.53618 0.35795 0.0
O812 O 0.64644 0.53389 0.35673 0.0
O813 O 0.66445 0.5227 0.34065 0.0
O814 O 0.6972 0.54268 0.34374 0.0
O815 O 0.68756 0.53619 0.36781 0.0
C816 C 0.67029 0.57338 0.37279 0.0
O817 O 0.67261 0.55747 0.32241 0.0
O818 O 0.65137 0.56537 0.33636 0.0
In819 In 0.69771 0.41606 0.60077 0.0
O820 O 0.68844 0.40671 0.62594 0.0
O821 O 0.67554 0.4271 0.61447 0.0
C822 C 0.72298 0.39486 0.59385 0.0
C823 C 0.67589 0.40489 0.57773 0.0
C824 C 0.71373 0.44524 0.60537 0.0
O825 O 0.71599 0.39521 0.60803 0.0
O826 O 0.71748 0.40539 0.58346 0.0
O827 O 0.7047 0.44269 0.59262 0.0
O828 O 0.71475 0.43308 0.61538 0.0
C829 C 0.67656 0.41715 0.62672 0.0
O830 O 0.68301 0.41899 0.57627 0.0
O831 O 0.67962 0.39686 0.5908 0.0
In832 In 0.64815 0.82125 0.55019 0.0
O833 O 0.6252 0.83457 0.56011 0.0
O834 O 0.63474 0.81375 0.57398 0.0
C835 C 0.65582 0.83992 0.52319 0.0
C836 C 0.67499 0.82852 0.56919 0.0
C837 C 0.63571 0.79359 0.53575 0.0
O838 O 0.64513 0.84464 0.53384 0.0
O839 O 0.66253 0.82595 0.52625 0.0
O840 O 0.64898 0.79303 0.54443 0.0
O841 O 0.62906 0.80787 0.53463 0.0
C842 C 0.62388 0.82522 0.57283 0.0
O843 O 0.6744 0.81522 0.56058 0.0
O844 O 0.66216 0.83765 0.56823 0.0
In845 In 0.14728 0.67088 0.4455 0.0
O846 O 0.17526 0.66807 0.45018 0.0
O847 O 0.16704 0.6692 0.42494 0.0
C848 C 0.14036 0.70028 0.4607 0.0
C849 C 0.1263 0.669 0.41947 0.0
C850 C 0.14324 0.64393 0.46556 0.0
O851 O 0.15503 0.6945 0.4599 0.0
O852 O 0.12942 0.69141 0.45366 0.0
O853 O 0.14922 0.64292 0.45102 0.0
O854 O 0.1388 0.65847 0.46985 0.0
C855 C 0.17912 0.66716 0.4349 0.0
O856 O 0.12472 0.65995 0.43234 0.0
O857 O 0.13854 0.67902 0.41972 0.0
In858 In 0.57307 0.89722 0.69707 0.0
O859 O 0.58447 0.87386 0.68561 0.0
O860 O 0.56477 0.88624 0.67239 0.0
C861 C 0.59146 0.90179 0.72499 0.0
C862 C 0.58277 0.92425 0.67946 0.0
C863 C 0.54365 0.8869 0.70947 0.0
O864 O 0.59586 0.89166 0.71367 0.0
O865 O 0.57783 0.90928 0.72226 0.0
O866 O 0.54544 0.90138 0.70325 0.0
O867 O 0.55665 0.87792 0.70945 0.0
C868 C 0.57518 0.87434 0.67277 0.0
O869 O 0.56871 0.92381 0.68675 0.0
O870 O 0.59155 0.91126 0.68114 0.0
In871 In 0.3459 0.31966 0.94704 0.0
O872 O 0.31782 0.321 0.95281 0.0
O873 O 0.32535 0.32247 0.92742 0.0
C874 C 0.35592 0.2899 0.95951 0.0
C875 C 0.3656 0.32363 0.92012 0.0
C876 C 0.34947 0.34402 0.97027 0.0
O877 O 0.34069 0.29303 0.95655 0.0
O878 O 0.36585 0.30166 0.95608 0.0
O879 O 0.34529 0.34712 0.95537 0.0
O880 O 0.35224 0.32877 0.97328 0.0
C881 C 0.31347 0.32303 0.93777 0.0
O882 O 0.36599 0.33357 0.93242 0.0
O883 O 0.35531 0.31171 0.92147 0.0
In884 In 0.41355 0.59967 0.69913 0.0
O885 O 0.41876 0.57377 0.68784 0.0
O886 O 0.397 0.58711 0.68 0.0
C887 C 0.44184 0.60679 0.71606 0.0
C888 C 0.41399 0.62334 0.67542 0.0
C889 C 0.39031 0.59495 0.7232 0.0
O890 O 0.43955 0.5927 0.70926 0.0
O891 O 0.42989 0.61695 0.71447 0.0
O892 O 0.39238 0.60896 0.71618 0.0
O893 O 0.40015 0.58361 0.71839 0.0
C894 C 0.40571 0.57397 0.67884 0.0
O895 O 0.40312 0.62303 0.68692 0.0
O896 O 0.42474 0.61175 0.67601 0.0
In897 In 0.84615 0.17006 0.04659 0.0
O898 O 0.86932 0.15956 0.05928 0.0
O899 O 0.85218 0.17366 0.07408 0.0
C900 C 0.84829 0.15408 0.01704 0.0
C901 C 0.81659 0.15728 0.05666 0.0
C902 C 0.85486 0.20119 0.03727 0.0
O903 O 0.85518 0.14847 0.03013 0.0
O904 O 0.84078 0.16788 0.01883 0.0
O905 O 0.83972 0.19711 0.03957 0.0
O906 O 0.86534 0.1897 0.03997 0.0
C907 C 0.86568 0.16548 0.07348 0.0
O908 O 0.81942 0.17286 0.05732 0.0
O909 O 0.82855 0.1486 0.0512 0.0
In910 In 0.57516 0.09635 0.79733 0.0
O911 O 0.57309 0.07143 0.81156 0.0
O912 O 0.59506 0.08631 0.8145 0.0
C913 C 0.54545 0.1023 0.7829 0.0
C914 C 0.57451 0.12145 0.81938 0.0
C915 C 0.59571 0.09025 0.77136 0.0
O916 O 0.54843 0.08851 0.79012 0.0
O917 O 0.55747 0.11251 0.78267 0.0
O918 O 0.59588 0.10404 0.7791 0.0
O919 O 0.58486 0.07993 0.77637 0.0
C920 C 0.58741 0.07301 0.81821 0.0
O921 O 0.58427 0.12145 0.80691 0.0
O922 O 0.5651 0.10879 0.82062 0.0
In923 In 0.91733 0.89853 0.29714 0.0
O924 O 0.92331 0.92432 0.30833 0.0
O925 O 0.90222 0.91078 0.31753 0.0
C926 C 0.94389 0.8896 0.27855 0.0
C927 C 0.9193 0.87433 0.32017 0.0
C928 C 0.89319 0.90541 0.27459 0.0
O929 O 0.94351 0.90338 0.28634 0.0
O930 O 0.93088 0.8808 0.2799 0.0
O931 O 0.89333 0.89192 0.28284 0.0
O932 O 0.90536 0.91504 0.27741 0.0
C933 C 0.91092 0.92394 0.31822 0.0
O934 O 0.90799 0.87455 0.30907 0.0
O935 O 0.92963 0.88629 0.31953 0.0
In936 In 0.44779 0.34725 0.16579 0.0
O937 O 0.43738 0.32113 0.17166 0.0
O938 O 0.42943 0.33347 0.14937 0.0
C939 C 0.46364 0.35711 0.19378 0.0
C940 C 0.42397 0.37077 0.16431 0.0
C941 C 0.47283 0.34027 0.1443 0.0
O942 O 0.45567 0.34345 0.19309 0.0
O943 O 0.46369 0.36548 0.18042 0.0
O944 O 0.4643 0.35354 0.14314 0.0
O945 O 0.46901 0.33096 0.15645 0.0
C946 C 0.4287 0.32054 0.15841 0.0
O947 O 0.4361 0.37035 0.15414 0.0
O948 O 0.42399 0.35938 0.1753 0.0
In949 In 0.39442 0.69563 0.9259 0.0
O950 O 0.42279 0.69915 0.92486 0.0
O951 O 0.41324 0.67449 0.92236 0.0
C952 C 0.3857 0.70819 0.95587 0.0
C953 C 0.37264 0.67046 0.92202 0.0
C954 C 0.39273 0.71941 0.90189 0.0
O955 O 0.40066 0.70432 0.95249 0.0
O956 O 0.37539 0.70569 0.94421 0.0
O957 O 0.39589 0.70429 0.8986 0.0
O958 O 0.38994 0.72237 0.91712 0.0
C959 C 0.4259 0.68389 0.92222 0.0
O960 O 0.37309 0.68281 0.91214 0.0
O961 O 0.38318 0.67087 0.93377 0.0
In962 In 0.04757 0.64977 0.67503 0.0
O963 O 0.06739 0.67028 0.6736 0.0
O964 O 0.04191 0.67776 0.6738 0.0
C965 C 0.0363 0.63928 0.70507 0.0
C966 C 0.07382 0.6301 0.668 0.0
C967 C 0.02349 0.64795 0.65133 0.0
O968 O 0.03832 0.65459 0.70173 0.0
O969 O 0.04028 0.62942 0.69345 0.0
O970 O 0.03836 0.6521 0.64799 0.0
O971 O 0.02097 0.64419 0.66644 0.0
C972 C 0.05703 0.68214 0.67261 0.0
O973 O 0.07428 0.64116 0.67927 0.0
O974 O 0.06004 0.62888 0.66032 0.0
In975 In 0.09531 0.29486 0.41732 0.0
O976 O 0.06693 0.29158 0.41605 0.0
O977 O 0.07676 0.31615 0.41342 0.0
C978 C 0.10303 0.28184 0.44744 0.0
C979 C 0.11748 0.31992 0.41475 0.0
C980 C 0.09706 0.27217 0.39225 0.0
O981 O 0.08818 0.28569 0.44358 0.0
O982 O 0.11369 0.28439 0.43613 0.0
O983 O 0.10028 0.26855 0.40727 0.0
O984 O 0.09347 0.28733 0.38976 0.0
C985 C 0.06401 0.30686 0.41326 0.0
O986 O 0.11786 0.30731 0.40521 0.0
O987 O 0.10585 0.31989 0.42543 0.0
In988 In 0.44368 0.64665 0.32386 0.0
O989 O 0.4333 0.62217 0.33377 0.0
O990 O 0.4188 0.63574 0.31586 0.0
C991 C 0.4712 0.64888 0.34339 0.0
C992 C 0.4267 0.67442 0.33289 0.0
C993 C 0.45545 0.6374 0.29384 0.0
O994 O 0.45803 0.64166 0.34824 0.0
O995 O 0.47048 0.65484 0.32882 0.0
O996 O 0.44998 0.65206 0.29642 0.0
O997 O 0.45503 0.62777 0.30634 0.0
C998 C 0.42009 0.62295 0.32509 0.0
O999 O 0.43555 0.67405 0.31978 0.0
O1000 O 0.42647 0.66095 0.34108 0.0
In1001 In 0.1064 0.69844 0.07581 0.0
O1002 O 0.13051 0.686 0.08437 0.0
O1003 O 0.11339 0.6717 0.0697 0.0
C1004 C 0.10725 0.72753 0.09281 0.0
C1005 C 0.0782 0.68578 0.08921 0.0
C1006 C 0.11364 0.70862 0.04472 0.0
O1007 O 0.11479 0.71461 0.09795 0.0
O1008 O 0.09973 0.72583 0.07904 0.0
O1009 O 0.09887 0.70476 0.04899 0.0
O1010 O 0.12452 0.70724 0.0561 0.0
C1011 C 0.12717 0.67219 0.07741 0.0
O1012 O 0.07929 0.68885 0.07371 0.0
O1013 O 0.09122 0.68895 0.09752 0.0
In1014 In 0.05103 0.34792 0.82513 0.0
O1015 O 0.06344 0.37124 0.83559 0.0
O1016 O 0.07401 0.36006 0.81375 0.0
C1017 C 0.02741 0.34087 0.84822 0.0
C1018 C 0.07121 0.32191 0.83209 0.0
C1019 C 0.03301 0.35633 0.79798 0.0
O1020 O 0.03517 0.35466 0.8482 0.0
O1021 O 0.03129 0.33107 0.83649 0.0
O1022 O 0.04129 0.34285 0.79867 0.0
O1023 O 0.03385 0.36534 0.8109 0.0
C1024 C 0.07488 0.37151 0.82463 0.0
O1025 O 0.06204 0.32206 0.81916 0.0
O1026 O 0.07032 0.33488 0.84105 0.0
In1027 In 0.39902 0.29702 0.57682 0.0
O1028 O 0.37614 0.31007 0.58728 0.0
O1029 O 0.38697 0.3198 0.56488 0.0
C1030 C 0.4054 0.27634 0.6027 0.0
C1031 C 0.42691 0.31553 0.5802 0.0
C1032 C 0.38873 0.27714 0.55159 0.0
O1033 O 0.39203 0.28476 0.60182 0.0
O1034 O 0.41522 0.27817 0.59049 0.0
O1035 O 0.4008 0.28722 0.54985 0.0
O1036 O 0.38223 0.27703 0.56594 0.0
C1037 C 0.37572 0.32108 0.57592 0.0
O1038 O 0.42611 0.30333 0.57012 0.0
O1039 O 0.41357 0.31857 0.58807 0.0
In1040 In 0.16483 0.44655 0.3501 0.0
O1041 O 0.15456 0.43565 0.37422 0.0
O1042 O 0.17529 0.42344 0.3625 0.0
C1043 C 0.14452 0.47251 0.34317 0.0
C1044 C 0.15324 0.42569 0.32647 0.0
C1045 C 0.19412 0.4616 0.35647 0.0
O1046 O 0.1443 0.46531 0.35727 0.0
O1047 O 0.15527 0.46696 0.33304 0.0
O1048 O 0.19142 0.45424 0.3427 0.0
O1049 O 0.18206 0.46146 0.36665 0.0
C1050 C 0.16483 0.42357 0.37436 0.0
O1051 O 0.16764 0.43227 0.32529 0.0
O1052 O 0.14517 0.42955 0.33946 0.0
In1053 In 0.29887 0.41968 0.09472 0.0
O1054 O 0.31061 0.40868 0.11808 0.0
O1055 O 0.32292 0.42928 0.10628 0.0
C1056 C 0.27348 0.39808 0.08925 0.0
C1057 C 0.31803 0.411 0.06843 0.0
C1058 C 0.28378 0.44849 0.10352 0.0
O1059 O 0.28205 0.39773 0.10252 0.0
O1060 O 0.27744 0.40951 0.07913 0.0
O1061 O 0.291 0.44683 0.08954 0.0
O1062 O 0.28404 0.43566 0.1127 0.0
C1063 C 0.32291 0.41866 0.11802 0.0
O1064 O 0.30923 0.42419 0.06829 0.0
O1065 O 0.31727 0.40262 0.08179 0.0
In1066 In 0.3209 0.54551 0.85078 0.0
O1067 O 0.31374 0.55034 0.82332 0.0
O1068 O 0.33286 0.56521 0.83434 0.0
C1069 C 0.29414 0.53106 0.86503 0.0
C1070 C 0.32504 0.56919 0.87394 0.0
C1071 C 0.34146 0.51933 0.84541 0.0
O1072 O 0.2928 0.53934 0.85157 0.0
O1073 O 0.30871 0.53044 0.87106 0.0
O1074 O 0.34655 0.53254 0.85245 0.0
O1075 O 0.32632 0.51955 0.84102 0.0
C1076 C 0.32447 0.56183 0.82145 0.0
O1077 O 0.33476 0.55674 0.87271 0.0
O1078 O 0.31317 0.56962 0.86346 0.0
In1079 In 0.19377 0.57201 0.58859 0.0
O1080 O 0.18419 0.58827 0.60997 0.0
O1081 O 0.17016 0.56659 0.60316 0.0
C1082 C 0.21929 0.59439 0.58728 0.0
C1083 C 0.17671 0.57418 0.5595 0.0
C1084 C 0.20539 0.5412 0.59599 0.0
O1085 O 0.22043 0.58051 0.59467 0.0
O1086 O 0.20518 0.59719 0.58083 0.0
O1087 O 0.20382 0.54619 0.58107 0.0
O1088 O 0.20091 0.55161 0.60692 0.0
C1089 C 0.17144 0.57924 0.61254 0.0
O1090 O 0.19167 0.56908 0.56008 0.0
O1091 O 0.17035 0.57747 0.57353 0.0
In1092 In 0.17161 0.54576 0.1478 0.0
O1093 O 0.16178 0.5562 0.12333 0.0
O1094 O 0.18035 0.57019 0.1366 0.0
C1095 C 0.15256 0.51826 0.15212 0.0
C1096 C 0.16095 0.56436 0.1738 0.0
C1097 C 0.20126 0.53252 0.13929 0.0
O1098 O 0.14864 0.52958 0.1418 0.0
O1099 O 0.16602 0.52079 0.15996 0.0
O1100 O 0.19874 0.53861 0.1537 0.0
O1101 O 0.18892 0.53318 0.12946 0.0
C1102 C 0.17083 0.5692 0.124 0.0
O1103 O 0.17501 0.55705 0.17413 0.0
O1104 O 0.15266 0.56223 0.16057 0.0
In1105 In 0.19324 0.41708 0.902 0.0
O1106 O 0.1859 0.4055 0.87692 0.0
O1107 O 0.17308 0.42741 0.88488 0.0
C1108 C 0.21465 0.3919 0.90878 0.0
C1109 C 0.17136 0.41143 0.92703 0.0
C1110 C 0.21204 0.44503 0.89914 0.0
O1111 O 0.21022 0.39541 0.89398 0.0
O1112 O 0.20833 0.40111 0.91997 0.0
O1113 O 0.19653 0.44568 0.90188 0.0
O1114 O 0.21796 0.43048 0.89804 0.0
C1115 C 0.17459 0.41615 0.87394 0.0
O1116 O 0.18277 0.42233 0.92816 0.0
O1117 O 0.17082 0.40385 0.9132 0.0
In1118 In 0.32243 0.45013 0.63784 0.0
O1119 O 0.32381 0.45305 0.66631 0.0
O1120 O 0.32652 0.42866 0.6562 0.0
C1121 C 0.29173 0.46112 0.62934 0.0
C1122 C 0.32764 0.42527 0.61594 0.0
C1123 C 0.34499 0.47532 0.63623 0.0
O1124 O 0.29564 0.45816 0.64438 0.0
O1125 O 0.30322 0.45853 0.61888 0.0
O1126 O 0.34916 0.46044 0.63947 0.0
O1127 O 0.32963 0.47733 0.63324 0.0
C1128 C 0.32667 0.43776 0.66906 0.0
O1129 O 0.33688 0.43812 0.61637 0.0
O1130 O 0.3159 0.42509 0.6265 0.0
In1131 In 0.29789 0.57192 0.39355 0.0
O1132 O 0.30843 0.58298 0.36971 0.0
O1133 O 0.32048 0.56144 0.38001 0.0
C1134 C 0.27344 0.59401 0.40085 0.0
C1135 C 0.31923 0.58029 0.41819 0.0
C1136 C 0.28135 0.54362 0.38606 0.0
O1137 O 0.28093 0.59412 0.38693 0.0
O1138 O 0.27794 0.58253 0.41069 0.0
O1139 O 0.28933 0.54522 0.39963 0.0
O1140 O 0.28163 0.55624 0.37661 0.0
C1141 C 0.3202 0.57243 0.36863 0.0
O1142 O 0.31073 0.56692 0.41881 0.0
O1143 O 0.31709 0.58895 0.40517 0.0
In1144 In 0.34732 0.1676 0.44595 0.0
O1145 O 0.37146 0.15601 0.43628 0.0
O1146 O 0.36067 0.17614 0.42247 0.0
C1147 C 0.34709 0.13968 0.46514 0.0
C1148 C 0.31785 0.16752 0.42938 0.0
C1149 C 0.35184 0.19543 0.46467 0.0
O1150 O 0.35757 0.15132 0.46726 0.0
O1151 O 0.33718 0.14193 0.4531 0.0
O1152 O 0.35964 0.19289 0.45122 0.0
O1153 O 0.34143 0.18419 0.46842 0.0
C1154 C 0.37228 0.16548 0.42363 0.0
O1155 O 0.31954 0.17424 0.44357 0.0
O1156 O 0.33114 0.16157 0.42333 0.0
In1157 In 0.85402 0.32482 0.54803 0.0
O1158 O 0.82566 0.32545 0.54431 0.0
O1159 O 0.8351 0.3298 0.56876 0.0
C1160 C 0.86125 0.2945 0.53525 0.0
C1161 C 0.87599 0.32782 0.57329 0.0
C1162 C 0.85589 0.3488 0.52418 0.0
O1163 O 0.84685 0.29808 0.54074 0.0
O1164 O 0.87183 0.30617 0.53627 0.0
O1165 O 0.85211 0.35206 0.53914 0.0
O1166 O 0.85927 0.33363 0.52143 0.0
C1167 C 0.82247 0.32907 0.55935 0.0
O1168 O 0.87563 0.33799 0.56118 0.0
O1169 O 0.86536 0.31617 0.57253 0.0
In1170 In 0.42365 0.0996 0.29632 0.0
O1171 O 0.41077 0.12106 0.30965 0.0
O1172 O 0.43289 0.11075 0.32064 0.0
C1173 C 0.40232 0.09584 0.27045 0.0
C1174 C 0.41931 0.06981 0.3117 0.0
C1175 C 0.45068 0.11359 0.28207 0.0
O1176 O 0.39793 0.10308 0.2838 0.0
O1177 O 0.4172 0.0906 0.27033 0.0
O1178 O 0.45156 0.09967 0.28963 0.0
O1179 O 0.43635 0.12021 0.28189 0.0
C1180 C 0.42116 0.12134 0.32161 0.0
O1181 O 0.42979 0.07163 0.3 0.0
O1182 O 0.4115 0.0829 0.31567 0.0
In1183 In 0.64393 0.67403 0.05158 0.0
O1184 O 0.66909 0.67733 0.06517 0.0
O1185 O 0.6557 0.65438 0.06789 0.0
C1186 C 0.63648 0.70365 0.03754 0.0
C1187 C 0.61977 0.67224 0.07462 0.0
C1188 C 0.65066 0.65427 0.02511 0.0
O1189 O 0.65045 0.7011 0.04456 0.0
O1190 O 0.62662 0.69134 0.03759 0.0
O1191 O 0.63701 0.65326 0.03303 0.0
O1192 O 0.66047 0.66554 0.0302 0.0
C1193 C 0.66858 0.66277 0.07148 0.0
O1194 O 0.61967 0.66326 0.06157 0.0
O1195 O 0.63189 0.68235 0.07578 0.0
In1196 In 0.57604 0.39489 0.29523 0.0
O1197 O 0.57291 0.42075 0.30748 0.0
O1198 O 0.59527 0.40684 0.31193 0.0
C1199 C 0.54693 0.38881 0.27945 0.0
C1200 C 0.57526 0.37192 0.31954 0.0
C1201 C 0.59805 0.39805 0.26991 0.0
O1202 O 0.5505 0.40325 0.28489 0.0
O1203 O 0.55796 0.37784 0.28192 0.0
O1204 O 0.59594 0.3843 0.27742 0.0
O1205 O 0.58876 0.40983 0.2748 0.0
C1206 C 0.58716 0.42016 0.31444 0.0
O1207 O 0.58545 0.37114 0.30745 0.0
O1208 O 0.56536 0.38427 0.31925 0.0
In1209 In 0.14852 0.82218 0.94801 0.0
O1210 O 0.12554 0.83399 0.93614 0.0
O1211 O 0.13789 0.81433 0.92296 0.0
C1212 C 0.14496 0.84568 0.9721 0.0
C1213 C 0.17943 0.82849 0.93587 0.0
C1214 C 0.14255 0.79121 0.95993 0.0
O1215 O 0.14781 0.84941 0.95703 0.0
O1216 O 0.14349 0.83022 0.97488 0.0
O1217 O 0.15719 0.79617 0.95659 0.0
O1218 O 0.1312 0.80182 0.95725 0.0
C1219 C 0.12601 0.82475 0.92331 0.0
O1220 O 0.17678 0.82543 0.95113 0.0
O1221 O 0.16666 0.82758 0.92667 0.0
In1222 In 0.41323 0.89147 0.19834 0.0
O1223 O 0.4173 0.91879 0.19117 0.0
O1224 O 0.39858 0.90499 0.17808 0.0
C1225 C 0.44222 0.8839 0.21373 0.0
C1226 C 0.41216 0.86818 0.17437 0.0
C1227 C 0.39033 0.89561 0.22281 0.0
O1228 O 0.44046 0.8972 0.20538 0.0
O1229 O 0.42938 0.87481 0.21454 0.0
O1230 O 0.39295 0.8815 0.21621 0.0
O1231 O 0.39941 0.90727 0.21737 0.0
C1232 C 0.40583 0.91886 0.18025 0.0
O1233 O 0.4012 0.86917 0.18573 0.0
O1234 O 0.42365 0.87903 0.1751 0.0
In1235 In 0.07727 0.10114 0.69713 0.0
O1236 O 0.08669 0.12603 0.68726 0.0
O1237 O 0.0698 0.11187 0.67209 0.0
C1238 C 0.09459 0.09785 0.72582 0.0
C1239 C 0.09037 0.07539 0.67976 0.0
C1240 C 0.04667 0.10833 0.70881 0.0
O1241 O 0.09889 0.10813 0.7146 0.0
O1242 O 0.08152 0.08959 0.72265 0.0
O1243 O 0.0504 0.09374 0.70382 0.0
O1244 O 0.0583 0.11897 0.70783 0.0
C1245 C 0.07856 0.12495 0.67371 0.0
O1246 O 0.07515 0.0754 0.6842 0.0
O1247 O 0.09852 0.0882 0.68403 0.0
H1248 H 0.09436 0.17766 0.34088 0.0
H1249 H 0.08146 0.27467 0.36189 0.0
H1250 H 0.05276 0.20659 0.32206 0.0
H1251 H 0.1095 0.24035 0.39279 0.0
H1252 H 0.0761 0.25186 0.34202 0.0
H1253 H 0.10534 0.20278 0.35439 0.0
C1254 C 0.08769 0.18938 0.33932 0.0
C1255 C 0.07249 0.19001 0.33051 0.0
C1256 C 0.08362 0.24942 0.35304 0.0
C1257 C 0.08499 0.21876 0.34602 0.0
C1258 C 0.08675 0.26241 0.36433 0.0
C1259 C 0.09581 0.25931 0.37905 0.0
C1260 C 0.08981 0.23332 0.35643 0.0
C1261 C 0.10233 0.24322 0.38165 0.0
C1262 C 0.09394 0.20368 0.34711 0.0
C1263 C 0.06444 0.20554 0.32884 0.0
N1264 N 0.09914 0.2308 0.37048 0.0
N1265 N 0.07071 0.21931 0.33669 0.0
H1266 H -0.00293 0.87518 0.63754 0.0
H1267 H 0.03834 0.80802 0.57613 0.0
H1268 H 0.98237 0.82324 0.63535 0.0
H1269 H 0.06791 0.84662 0.59968 0.0
H1270 H 0.01354 0.81859 0.59074 0.0
H1271 H 0.01951 0.86924 0.61716 0.0
C1272 C -0.00148 0.8626 0.63268 0.0
C1273 C 0.98809 0.84961 0.63822 0.0
C1274 C 0.02542 0.82491 0.59242 0.0
C1275 C 0.01307 0.84294 0.61478 0.0
C1276 C 0.03952 0.81899 0.58402 0.0
C1277 C 0.05518 0.82636 0.58689 0.0
C1278 C 0.027 0.83843 0.60354 0.0
C1279 C 0.05605 0.84051 0.59729 0.0
C1280 C 0.01123 0.85924 0.62111 0.0
C1281 C 0.99034 0.83353 0.63155 0.0
N1282 N 0.04214 0.84604 0.60538 0.0
N1283 N 0.00255 0.83066 0.62013 0.0
H1284 H 0.38385 0.75211 0.90556 0.0
H1285 H 0.43026 0.78171 0.82197 0.0
H1286 H 0.40494 0.71748 0.86987 0.0
H1287 H 0.41045 0.81492 0.85968 0.0
H1288 H 0.41774 0.75789 0.83693 0.0
H1289 H 0.38986 0.7751 0.88644 0.0
C1290 C 0.38957 0.74933 0.89358 0.0
C1291 C 0.39406 0.73291 0.88935 0.0
C1292 C 0.41599 0.77043 0.8418 0.0
C1293 C 0.40125 0.75922 0.86744 0.0
C1294 C 0.4231 0.78399 0.83325 0.0
C1295 C 0.42155 0.80025 0.83973 0.0
C1296 C 0.40726 0.77324 0.85683 0.0
C1297 C 0.41214 0.80256 0.85436 0.0
C1298 C 0.39304 0.76248 0.88266 0.0
C1299 C 0.40135 0.73 0.87363 0.0
N1300 N 0.40547 0.78922 0.86246 0.0
N1301 N 0.40493 0.74308 0.8633 0.0
H1302 H 0.53022 0.18233 0.12373 0.0
H1303 H 0.44178 0.15151 0.08862 0.0
H1304 H 0.506 0.13669 0.13955 0.0
H1305 H 0.46332 0.19992 0.078 0.0
H1306 H 0.46754 0.14353 0.1031 0.0
H1307 H 0.50816 0.18658 0.10303 0.0
C1308 C 0.52033 0.1731 0.12273 0.0
C1309 C 0.51983 0.15923 0.13351 0.0
C1310 C 0.46673 0.15581 0.09741 0.0
C1311 C 0.49447 0.16406 0.10984 0.0
C1312 C 0.45205 0.16036 0.08907 0.0
C1313 C 0.45035 0.17647 0.08226 0.0
C1314 C 0.47978 0.16748 0.09897 0.0
C1315 C 0.46406 0.1874 0.08317 0.0
C1316 C 0.50773 0.17555 0.11091 0.0
C1317 C 0.50679 0.14762 0.13157 0.0
N1318 N 0.47814 0.18277 0.09155 0.0
N1319 N 0.49453 0.15038 0.12007 0.0
H1320 H 0.07327 0.79477 0.16887 0.0
H1321 H 0.10094 0.75884 0.08125 0.0
H1322 H 0.08286 0.82593 0.12578 0.0
H1323 H 0.10985 0.73123 0.12679 0.0
H1324 H 0.09469 0.78371 0.09782 0.0
H1325 H 0.08716 0.77135 0.15452 0.0
C1326 C 0.07852 0.79675 0.15654 0.0
C1327 C 0.07672 0.81222 0.1484 0.0
C1328 C 0.09825 0.77231 0.10424 0.0
C1329 C 0.09237 0.78561 0.13194 0.0
C1330 C 0.10179 0.75811 0.09477 0.0
C1331 C 0.10585 0.74302 0.1027 0.0
C1332 C 0.09838 0.7713 0.12179 0.0
C1333 C 0.10681 0.74271 0.12024 0.0
C1334 C 0.08644 0.78341 0.14837 0.0
C1335 C 0.08378 0.81415 0.13244 0.0
N1336 N 0.1028 0.7566 0.12926 0.0
N1337 N 0.09107 0.80096 0.12466 0.0
H1338 H 0.43514 0.84167 0.40925 0.0
H1339 H 0.50837 0.81237 0.34971 0.0
H1340 H 0.4536 0.79088 0.40788 0.0
H1341 H 0.50406 0.86395 0.36528 0.0
H1342 H 0.48721 0.80463 0.37025 0.0
H1343 H 0.4597 0.85067 0.39318 0.0
C1344 C 0.44452 0.83247 0.40585 0.0
C1345 C 0.44229 0.81548 0.40976 0.0
C1346 C 0.49093 0.81764 0.36926 0.0
C1347 C 0.47009 0.82561 0.39116 0.0
C1348 C 0.5029 0.82209 0.35744 0.0
C1349 C 0.50786 0.83884 0.35574 0.0
C1350 C 0.48362 0.83005 0.37932 0.0
C1351 C 0.5005 0.85089 0.36619 0.0
C1352 C 0.45849 0.83762 0.39667 0.0
C1353 C 0.45479 0.80409 0.40507 0.0
N1354 N 0.48858 0.84629 0.37747 0.0
N1355 N 0.46802 0.80932 0.39578 0.0
H1356 H 0.38386 0.26238 0.62552 0.0
H1357 H 0.45652 0.20818 0.6681 0.0
H1358 H 0.43603 0.26477 0.61176 0.0
H1359 H 0.4047 0.19285 0.66786 0.0
H1360 H 0.44853 0.23425 0.6542 0.0
H1361 H 0.39094 0.24171 0.64723 0.0
C1362 C 0.3968 0.2587 0.62722 0.0
C1363 C 0.40937 0.26506 0.61673 0.0
C1364 C 0.43888 0.2253 0.65746 0.0
C1365 C 0.41753 0.24181 0.64153 0.0
C1366 C 0.44341 0.21047 0.66548 0.0
C1367 C 0.43128 0.19825 0.66889 0.0
C1368 C 0.42211 0.22793 0.65288 0.0
C1369 C 0.41447 0.20189 0.66527 0.0
C1370 C 0.40082 0.24694 0.63955 0.0
C1371 C 0.42595 0.25997 0.61944 0.0
N1372 N 0.41038 0.21635 0.65725 0.0
N1373 N 0.42954 0.24861 0.63153 0.0
H1374 H 0.05999 0.15534 0.90568 0.0
H1375 H 0.98603 0.1865 0.84782 0.0
H1376 H 0.04358 0.20681 0.90412 0.0
H1377 H 0.98953 0.13498 0.86378 0.0
H1378 H 0.00795 0.19391 0.86773 0.0
H1379 H 0.03475 0.14717 0.89028 0.0
C1380 C 0.05093 0.16488 0.90234 0.0
C1381 C 0.0539 0.18179 0.90607 0.0
C1382 C 0.00387 0.18099 0.86697 0.0
C1383 C 0.02528 0.17259 0.88822 0.0
C1384 C 0.99145 0.17673 0.85552 0.0
C1385 C 0.98606 0.16008 0.85409 0.0
C1386 C 0.01119 0.16848 0.8769 0.0
C1387 C 0.99339 0.14796 0.86448 0.0
C1388 C 0.03656 0.1602 0.89355 0.0
C1389 C 0.04179 0.19364 0.90147 0.0
N1390 N 0.00575 0.15237 0.87536 0.0
N1391 N 0.02813 0.18884 0.89256 0.0
H1392 H 0.32084 0.0686 0.20417 0.0
H1393 H 0.41163 0.08901 0.23864 0.0
H1394 H 0.3638 0.07807 0.1728 0.0
H1395 H 0.36789 0.09746 0.26918 0.0
H1396 H 0.39364 0.08396 0.21464 0.0
H1397 H 0.33693 0.0787 0.22846 0.0
C1398 C 0.33353 0.07303 0.20236 0.0
C1399 C 0.34108 0.07232 0.18652 0.0
C1400 C 0.3879 0.08705 0.22653 0.0
C1401 C 0.35946 0.08362 0.21405 0.0
C1402 C 0.39819 0.08985 0.24027 0.0
C1403 C 0.39121 0.0936 0.2559 0.0
C1404 C 0.37044 0.08772 0.22842 0.0
C1405 C 0.37372 0.09462 0.25728 0.0
C1406 C 0.34268 0.07876 0.21619 0.0
C1407 C 0.35753 0.0782 0.18482 0.0
N1408 N 0.36385 0.0915 0.24371 0.0
N1409 N 0.3662 0.08341 0.19842 0.0
H1410 H 0.14093 0.11886 0.51811 0.0
H1411 H 0.15722 0.11766 0.41949 0.0
H1412 H 0.14802 0.16284 0.48755 0.0
H1413 H 0.17097 0.07623 0.45138 0.0
H1414 H 0.14583 0.13224 0.44372 0.0
H1415 H 0.14461 0.10129 0.49305 0.0
C1416 C 0.143 0.12479 0.50609 0.0
C1417 C 0.14434 0.14227 0.50483 0.0
C1418 C 0.15115 0.11987 0.44539 0.0
C1419 C 0.14829 0.12243 0.47636 0.0
C1420 C 0.15761 0.11151 0.43157 0.0
C1421 C 0.1653 0.09583 0.4335 0.0
C1422 C 0.15234 0.11252 0.46129 0.0
C1423 C 0.16528 0.08838 0.44941 0.0
C1424 C 0.14514 0.11479 0.49188 0.0
C1425 C 0.14707 0.14939 0.48905 0.0
N1426 N 0.15907 0.0969 0.4628 0.0
N1427 N 0.14898 0.13944 0.47544 0.0
H1428 H 0.17168 0.92143 0.6998 0.0
H1429 H 0.08197 0.91244 0.74186 0.0
H1430 H 0.12507 0.92712 0.67304 0.0
H1431 H 0.1255 0.88897 0.76361 0.0
H1432 H 0.09838 0.91944 0.71715 0.0
H1433 H 0.15589 0.91081 0.72408 0.0
C1434 C 0.15819 0.92037 0.69901 0.0
C1435 C 0.14965 0.92526 0.68445 0.0
C1436 C 0.10436 0.91263 0.72724 0.0
C1437 C 0.13165 0.91333 0.71199 0.0
C1438 C 0.09499 0.90866 0.74136 0.0
C1439 C 0.10241 0.90012 0.75474 0.0
C1440 C 0.12138 0.90829 0.72657 0.0
C1441 C 0.11933 0.8955 0.75346 0.0
C1442 C 0.14921 0.91428 0.71281 0.0
C1443 C 0.13217 0.92359 0.68403 0.0
N1444 N 0.12835 0.89982 0.73965 0.0
N1445 N 0.12378 0.9179 0.69761 0.0
H1446 H 0.33634 0.87633 0.91411 0.0
H1447 H 0.35698 0.87798 0.01188 0.0
H1448 H 0.32739 0.92003 0.94463 0.0
H1449 H 0.34418 0.83353 0.98399 0.0
H1450 H 0.35389 0.89461 0.98612 0.0
H1451 H 0.34754 0.86186 0.9385 0.0
C1452 C 0.33697 0.88299 0.92591 0.0
C1453 C 0.33067 0.89932 0.92743 0.0
C1454 C 0.35199 0.88119 0.98567 0.0
C1455 C 0.34345 0.88276 0.9554 0.0
C1456 C 0.35382 0.87171 0.00027 0.0
C1457 C 0.35069 0.85442 -1e-05 0.0
C1458 C 0.34734 0.87319 0.97073 0.0
C1459 C 0.34655 0.84686 0.98473 0.0
C1460 C 0.34332 0.87469 0.93982 0.0
C1461 C 0.33198 0.90738 0.94298 0.0
N1462 N 0.34497 0.8563 0.97071 0.0
N1463 N 0.33808 0.89893 0.95648 0.0
H1464 H 0.34761 0.90131 0.31963 0.0
H1465 H 0.37374 0.92449 0.22894 0.0
H1466 H 0.32243 0.94038 0.29208 0.0
H1467 H 0.37841 0.87354 0.24627 0.0
H1468 H 0.35478 0.93042 0.25215 0.0
H1469 H 0.35857 0.89018 0.29325 0.0
C1470 C 0.34412 0.90733 0.30799 0.0
C1471 C 0.33429 0.9219 0.308 0.0
C1472 C 0.35973 0.91787 0.25076 0.0
C1473 C 0.347 0.90947 0.27797 0.0
C1474 C 0.37063 0.91452 0.2376 0.0
C1475 C 0.37771 0.89857 0.23586 0.0
C1476 C 0.35625 0.9053 0.26251 0.0
C1477 C 0.3732 0.88602 0.24728 0.0
C1478 C 0.35034 0.90096 0.29297 0.0
C1479 C 0.33005 0.92918 0.29261 0.0
N1480 N 0.36297 0.88974 0.26038 0.0
N1481 N 0.33673 0.9231 0.27821 0.0
H1482 H 0.2972 0.07272 0.53123 0.0
H1483 H 0.36664 0.13198 0.49221 0.0
H1484 H 0.34429 0.08351 0.55541 0.0
H1485 H 0.32293 0.11552 0.46507 0.0
H1486 H 0.36047 0.11136 0.51397 0.0
H1487 H 0.30802 0.08511 0.5054 0.0
C1488 C 0.30993 0.07739 0.531 0.0
C1489 C 0.31978 0.07731 0.54553 0.0
C1490 C 0.35236 0.11207 0.50314 0.0
C1491 C 0.33216 0.09174 0.51616 0.0
C1492 C 0.3559 0.12384 0.49071 0.0
C1493 C 0.34516 0.1256 0.47695 0.0
C1494 C 0.33787 0.10214 0.50187 0.0
C1495 C 0.33146 0.11468 0.47557 0.0
C1496 C 0.3161 0.08451 0.51627 0.0
C1497 C 0.3362 0.08349 0.54453 0.0
N1498 N 0.32806 0.10359 0.48801 0.0
N1499 N 0.34178 0.09069 0.53018 0.0
H1500 H 0.12574 0.0673 0.82404 0.0
H1501 H 0.12736 0.10612 0.73198 0.0
H1502 H 0.17177 0.07258 0.79621 0.0
H1503 H 0.08411 0.08274 0.75438 0.0
H1504 H 0.14378 0.09887 0.75702 0.0
H1505 H 0.1103 0.07818 0.80018 0.0
C1506 C 0.13263 0.07083 0.81291 0.0
C1507 C 0.15006 0.0689 0.81204 0.0
C1508 C 0.13067 0.09545 0.75643 0.0
C1509 C 0.13238 0.08142 0.78462 0.0
C1510 C 0.1213 0.09964 0.74224 0.0
C1511 C 0.1044 0.09496 0.74116 0.0
C1512 C 0.12294 0.08678 0.76963 0.0
C1513 C 0.09713 0.08651 0.75469 0.0
C1514 C 0.12378 0.07701 0.79927 0.0
C1515 C 0.15831 0.07378 0.79732 0.0
N1516 N 0.10644 0.08272 0.76837 0.0
N1517 N 0.14937 0.07981 0.78411 0.0
H1518 H 0.15289 0.8877 0.07007 0.0
H1519 H 0.1541 0.87875 0.97055 0.0
H1520 H 0.17579 0.92429 0.03759 0.0
H1521 H 0.13619 0.84089 0.00467 0.0
H1522 H 0.15773 0.89794 0.99426 0.0
H1523 H 0.14213 0.87302 0.04566 0.0
C1524 C 0.1555 0.89275 0.05776 0.0
C1525 C 0.16543 0.9071 0.05582 0.0
C1526 C 0.1528 0.88551 0.9965 0.0
C1527 C 0.15331 0.89019 0.02771 0.0
C1528 C 0.15068 0.87458 0.98299 0.0
C1529 C 0.145 0.85816 0.98571 0.0
C1530 C 0.14916 0.87995 0.01279 0.0
C1531 C 0.14076 0.85338 0.00204 0.0
C1532 C 0.14936 0.88434 0.0438 0.0
C1533 C 0.16825 0.9132 0.0396 0.0
N1534 N 0.14305 0.86417 0.01496 0.0
N1535 N 0.16241 0.90456 0.0261 0.0
H1536 H 0.25766 0.37634 0.11068 0.0
H1537 H 0.20209 0.33571 0.03792 0.0
H1538 H 0.25948 0.3917 0.05893 0.0
H1539 H 0.1873 0.33432 0.08986 0.0
H1540 H 0.22736 0.35104 0.04586 0.0
H1541 H 0.23544 0.35626 0.10354 0.0
C1542 C 0.25342 0.37544 0.09784 0.0
C1543 C 0.26027 0.38577 0.0854 0.0
C1544 C 0.21867 0.34721 0.05553 0.0
C1545 C 0.23525 0.36275 0.07714 0.0
C1546 C 0.20432 0.33835 0.05104 0.0
C1547 C 0.19253 0.33389 0.06324 0.0
C1548 C 0.22131 0.35152 0.07237 0.0
C1549 C 0.19604 0.33764 0.08005 0.0
C1550 C 0.24079 0.364 0.09378 0.0
C1551 C 0.25441 0.38408 0.06894 0.0
N1552 N 0.21009 0.34637 0.08413 0.0
N1553 N 0.24227 0.37278 0.06528 0.0
H1554 H 0.66985 0.11913 0.92793 0.0
H1555 H 0.7604 0.12465 0.88586 0.0
H1556 H 0.69501 0.16635 0.92029 0.0
H1557 H 0.7411 0.08061 0.91051 0.0
H1558 H 0.73484 0.13987 0.89385 0.0
H1559 H 0.69426 0.10458 0.91691 0.0
C1560 C 0.68051 0.12646 0.92387 0.0
C1561 C 0.68046 0.14398 0.92513 0.0
C1562 C 0.73622 0.12686 0.8974 0.0
C1563 C 0.70848 0.12735 0.91241 0.0
C1564 C 0.75071 0.11816 0.89278 0.0
C1565 C 0.75283 0.10138 0.89759 0.0
C1566 C 0.72375 0.11859 0.90664 0.0
C1567 C 0.73998 0.09356 0.90662 0.0
C1568 C 0.69446 0.11813 0.9176 0.0
C1569 C 0.69462 0.15282 0.91962 0.0
N1570 N 0.726 0.10221 0.91083 0.0
N1571 N 0.70811 0.14439 0.91348 0.0
H1572 H 0.1196 0.42037 0.18139 0.0
H1573 H 0.11954 0.51302 0.1439 0.0
H1574 H 0.07373 0.44839 0.17555 0.0
H1575 H 0.16207 0.48962 0.16764 0.0
H1576 H 0.10253 0.48826 0.1509 0.0
H1577 H 0.13532 0.44443 0.17148 0.0
C1578 C 0.1128 0.4316 0.17796 0.0
C1579 C 0.09533 0.43244 0.17943 0.0
C1580 C 0.1156 0.4886 0.1545 0.0
C1581 C 0.11336 0.46013 0.16803 0.0
C1582 C 0.12531 0.50263 0.15045 0.0
C1583 C 0.1422 0.50332 0.15525 0.0
C1584 C 0.123 0.47517 0.16312 0.0
C1585 C 0.14908 0.48962 0.16378 0.0
C1586 C 0.12181 0.44536 0.17233 0.0
C1587 C 0.08721 0.4473 0.17469 0.0
N1588 N 0.13947 0.47612 0.16739 0.0
N1589 N 0.09632 0.46065 0.1692 0.0
H1590 H 0.73201 0.8634 0.38358 0.0
H1591 H 0.82952 0.86527 0.40576 0.0
H1592 H 0.76077 0.90835 0.39192 0.0
H1593 H 0.79813 0.82265 0.4167 0.0
H1594 H 0.80568 0.87922 0.39284 0.0
H1595 H 0.75745 0.84666 0.38829 0.0
C1596 C 0.74374 0.86973 0.38606 0.0
C1597 C 0.74435 0.88724 0.38751 0.0
C1598 C 0.80404 0.86674 0.39789 0.0
C1599 C 0.77326 0.86832 0.39276 0.0
C1600 C 0.81764 0.85873 0.40525 0.0
C1601 C 0.81571 0.84288 0.41257 0.0
C1602 C 0.78835 0.85886 0.39782 0.0
C1603 C 0.80008 0.83494 0.41134 0.0
C1604 C 0.75817 0.8602 0.38882 0.0
C1605 C 0.75978 0.89487 0.39084 0.0
N1606 N 0.78689 0.84311 0.40426 0.0
N1607 N 0.77361 0.88536 0.3934 0.0
H1608 H 0.88594 0.06641 0.15502 0.0
H1609 H 0.87364 0.96723 0.1588 0.0
H1610 H 0.9188 0.0338 0.18285 0.0
H1611 H 0.83831 0.00205 0.13739 0.0
H1612 H 0.89335 0.99044 0.16309 0.0
H1613 H 0.87181 0.04199 0.14351 0.0
C1614 C 0.89033 0.05406 0.15853 0.0
C1615 C 0.90339 0.05209 0.17008 0.0
C1616 C 0.88137 0.99293 0.15726 0.0
C1617 C 0.88705 0.02401 0.15717 0.0
C1618 C 0.87015 0.97971 0.15477 0.0
C1619 C 0.85427 0.9828 0.14791 0.0
C1620 C 0.87665 0.00927 0.15274 0.0
C1621 C 0.85035 -0.00084 0.1429 0.0
C1622 C 0.88222 0.0401 0.15198 0.0
C1623 C 0.90871 0.03582 0.17404 0.0
N1624 N 0.86141 0.01177 0.14552 0.0
N1625 N 0.90032 0.02235 0.16778 0.0
H1626 H 0.22093 0.62338 0.56899 0.0
H1627 H 0.3197 0.63247 0.58251 0.0
H1628 H 0.25046 0.59126 0.60087 0.0
H1629 H 0.29168 0.66346 0.54825 0.0
H1630 H 0.29367 0.61969 0.5919 0.0
H1631 H 0.24584 0.64049 0.5637 0.0
C1632 C 0.23261 0.62004 0.57502 0.0
C1633 C 0.23369 0.60581 0.58529 0.0
C1634 C 0.29314 0.62937 0.58242 0.0
C1635 C 0.26218 0.62525 0.57925 0.0
C1636 C 0.30802 0.63669 0.57705 0.0
C1637 C 0.30784 0.64894 0.56447 0.0
C1638 C 0.27792 0.63421 0.57507 0.0
C1639 C 0.29235 0.65401 0.55794 0.0
C1640 C 0.24682 0.62979 0.57197 0.0
C1641 C 0.2491 0.60206 0.59279 0.0
N1642 N 0.27798 0.64649 0.56321 0.0
N1643 N 0.26275 0.61165 0.58954 0.0
H1644 H 0.08142 0.56027 0.33967 0.0
H1645 H 0.1382 0.48398 0.31184 0.0
H1646 H 0.08321 0.54154 0.28904 0.0
H1647 H 0.12363 0.49098 0.36338 0.0
H1648 H 0.11849 0.50573 0.30355 0.0
H1649 H 0.09654 0.53527 0.34909 0.0
C1650 C 0.08471 0.55075 0.33059 0.0
C1651 C 0.08119 0.55302 0.31353 0.0
C1652 C 0.1195 0.50247 0.31667 0.0
C1653 C 0.09871 0.52467 0.32415 0.0
C1654 C 0.13085 0.49014 0.32143 0.0
C1655 C 0.13262 0.48577 0.33834 0.0
C1656 C 0.10997 0.51071 0.32891 0.0
C1657 C 0.12267 0.49405 0.35021 0.0
C1658 C 0.09337 0.53652 0.33598 0.0
C1659 C 0.08573 0.54032 0.3023 0.0
N1660 N 0.11185 0.50628 0.34529 0.0
N1661 N 0.09448 0.52681 0.30778 0.0
H1662 H 0.33089 0.48772 0.83959 0.0
H1663 H 0.41854 0.45012 0.8139 0.0
H1664 H 0.37587 0.5171 0.84526 0.0
H1665 H 0.37624 0.42008 0.82903 0.0
H1666 H 0.40412 0.47512 0.82474 0.0
H1667 H 0.3479 0.46304 0.83436 0.0
C1668 C 0.3444 0.48895 0.83976 0.0
C1669 C 0.35201 0.50445 0.84279 0.0
C1670 C 0.39819 0.46298 0.82591 0.0
C1671 C 0.37164 0.4762 0.83673 0.0
C1672 C 0.4064 0.44874 0.81977 0.0
C1673 C 0.39844 0.43308 0.82037 0.0
C1674 C 0.38194 0.46141 0.83247 0.0
C1675 C 0.38273 0.43195 0.82809 0.0
C1676 C 0.35412 0.47483 0.83688 0.0
C1677 C 0.36957 0.50532 0.84297 0.0
N1678 N 0.37492 0.44594 0.83362 0.0
N1679 N 0.37886 0.49137 0.83977 0.0
H1680 H 0.89257 0.73265 0.62864 0.0
H1681 H 0.91697 0.82961 0.62751 0.0
H1682 H 0.90803 0.75979 0.58458 0.0
H1683 H 0.92368 0.79922 0.6717 0.0
H1684 H 0.9064 0.80519 0.61264 0.0
H1685 H 0.89732 0.75808 0.64547 0.0
C1686 C 0.89676 0.744 0.62252 0.0
C1687 C 0.90003 0.74417 0.60526 0.0
C1688 C 0.91004 0.80389 0.62563 0.0
C1689 C 0.90521 0.77307 0.62421 0.0
C1690 C 0.91603 0.81783 0.63416 0.0
C1691 C 0.92142 0.81638 0.6508 0.0
C1692 C 0.90934 0.78835 0.63379 0.0
C1693 C 0.91977 0.80081 0.65882 0.0
C1694 C 0.89952 0.75842 0.63209 0.0
C1695 C 0.9055 0.75911 0.59788 0.0
N1696 N 0.91397 0.7873 0.65018 0.0
N1697 N 0.90789 0.77296 0.60739 0.0
H1698 H 0.02401 0.15892 0.37623 0.0
H1699 H 0.92428 0.16025 0.38351 0.0
H1700 H 0.99029 0.13667 0.34037 0.0
H1701 H 0.95655 0.18466 0.41929 0.0
H1702 H 0.94874 0.14849 0.36975 0.0
H1703 H 1e-05 0.16541 0.39425 0.0
C1704 C 0.01159 0.15519 0.37227 0.0
C1705 C 0.00909 0.14739 0.35673 0.0
C1706 C 0.95055 0.15631 0.38067 0.0
C1707 C 0.98167 0.15483 0.37717 0.0
C1708 C 0.93656 0.16305 0.38854 0.0
C1709 C 0.93842 0.1736 0.40244 0.0
C1710 C 0.96662 0.16024 0.38661 0.0
C1711 C 0.95461 0.17665 0.40853 0.0
C1712 C -0.00209 0.15894 0.38253 0.0
C1713 C 0.99277 0.14282 0.35219 0.0
N1714 N 0.96815 0.17014 0.40045 0.0
N1715 N 0.97969 0.14672 0.3623 0.0
H1716 H 0.56822 0.21633 0.17624 0.0
H1717 H 0.62038 0.24489 0.09714 0.0
H1718 H 0.60168 0.18386 0.14895 0.0
H1719 H 0.59434 0.27979 0.1291 0.0
H1720 H 0.61655 0.22313 0.11823 0.0
H1721 H 0.5805 0.24049 0.16184 0.0
C1722 C 0.57841 0.21433 0.16753 0.0
C1723 C 0.58375 0.19808 0.16356 0.0
C1724 C 0.61188 0.2356 0.12079 0.0
C1725 C 0.59763 0.22551 0.14688 0.0
C1726 C 0.61406 0.24802 0.10872 0.0
C1727 C 0.60748 0.26408 0.11131 0.0
C1728 C 0.6028 0.23919 0.13543 0.0
C1729 C 0.59951 0.26752 0.12658 0.0
C1730 C 0.58538 0.22811 0.15926 0.0
C1731 C 0.59701 0.19617 0.1522 0.0
N1732 N 0.59713 0.25508 0.13797 0.0
N1733 N 0.6033 0.20969 0.14406 0.0
H1734 H 0.57554 0.81966 0.87211 0.0
H1735 H 0.4793 0.84671 0.87288 0.0
H1736 H 0.546 0.81748 0.9173 0.0
H1737 H 0.50568 0.82866 0.82935 0.0
H1738 H 0.50463 0.84171 0.88979 0.0
H1739 H 0.55101 0.82914 0.85679 0.0
C1740 C 0.56389 0.82129 0.87886 0.0
C1741 C 0.56275 0.81758 0.89598 0.0
C1742 C 0.50482 0.83896 0.87652 0.0
C1743 C 0.53454 0.82846 0.87842 0.0
C1744 C 0.49046 0.84187 0.86688 0.0
C1745 C 0.49044 0.838 0.84974 0.0
C1746 C 0.51923 0.83247 0.86881 0.0
C1747 C 0.50514 0.8317 0.84254 0.0
C1748 C 0.54987 0.82667 0.87007 0.0
C1749 C 0.54735 0.82008 0.90407 0.0
N1750 N 0.51893 0.82917 0.8521 0.0
N1751 N 0.53375 0.82531 0.89518 0.0
H1752 H 0.9297 0.20825 0.81999 0.0
H1753 H 0.88759 0.23895 0.90494 0.0
H1754 H 0.90585 0.17557 0.85578 0.0
H1755 H 0.90853 0.27286 0.86848 0.0
H1756 H 0.89074 0.21602 0.88503 0.0
H1757 H 0.91856 0.23248 0.83524 0.0
C1758 C 0.92184 0.20618 0.83084 0.0
C1759 C 0.91889 0.18993 0.83679 0.0
C1760 C 0.89449 0.22849 0.88126 0.0
C1761 C 0.9063 0.21744 0.85435 0.0
C1762 C 0.8927 0.24158 0.89265 0.0
C1763 C 0.898 0.25776 0.8884 0.0
C1764 C 0.90184 0.23155 0.86557 0.0
C1765 C 0.90439 0.26053 0.87228 0.0
C1766 C 0.91554 0.21999 0.83958 0.0
C1767 C 0.90863 0.18791 0.8509 0.0
N1768 N 0.90636 0.24749 0.8615 0.0
N1769 N 0.90289 0.20149 0.8593 0.0
H1770 H 0.46969 0.1622 0.61999 0.0
H1771 H 0.56926 0.16112 0.6107 0.0
H1772 H 0.50363 0.13957 0.65541 0.0
H1773 H 0.53686 0.18673 0.57586 0.0
H1774 H 0.5448 0.14984 0.62486 0.0
H1775 H 0.49346 0.16804 0.60146 0.0
C1776 C 0.48211 0.15825 0.62375 0.0
C1777 C 0.48475 0.15053 0.63931 0.0
C1778 C 0.54296 0.15783 0.61406 0.0
C1779 C 0.51191 0.15722 0.61829 0.0
C1780 C 0.55695 0.16428 0.60595 0.0
C1781 C 0.55506 0.17503 0.59221 0.0
C1782 C 0.52688 0.16225 0.60851 0.0
C1783 C 0.53883 0.17854 0.58648 0.0
C1784 C 0.49566 0.16163 0.6132 0.0
C1785 C 0.50105 0.14567 0.64359 0.0
N1786 N 0.52531 0.17231 0.5948 0.0
N1787 N 0.51401 0.14921 0.63319 0.0
H1788 H 0.57198 0.79266 0.32026 0.0
H1789 H 0.58363 0.75269 0.40915 0.0
H1790 H 0.57939 0.82221 0.3649 0.0
H1791 H 0.60369 0.72719 0.36598 0.0
H1792 H 0.57945 0.7777 0.39217 0.0
H1793 H 0.58196 0.76782 0.33558 0.0
C1794 C 0.57597 0.79398 0.33314 0.0
C1795 C 0.57466 0.80944 0.3414 0.0
C1796 C 0.58488 0.76668 0.3864 0.0
C1797 C 0.5857 0.78127 0.35889 0.0
C1798 C 0.58716 0.75239 0.39606 0.0
C1799 C 0.59398 0.73792 0.38891 0.0
C1800 C 0.5891 0.76642 0.36936 0.0
C1801 C 0.59844 0.73819 0.37191 0.0
C1802 C 0.58165 0.77984 0.34184 0.0
C1803 C 0.58 0.8105 0.35809 0.0
N1804 N 0.59571 0.75221 0.36258 0.0
N1805 N 0.58502 0.79656 0.36635 0.0
H1806 H 0.93432 0.84012 0.07881 0.0
H1807 H 0.00817 0.81116 0.13815 0.0
H1808 H 0.95086 0.7888 0.0826 0.0
H1809 H 0.00322 0.86247 0.12191 0.0
H1810 H 0.98672 0.80298 0.11805 0.0
H1811 H 0.95936 0.84898 0.09414 0.0
C1812 C 0.94337 0.83075 0.0826 0.0
C1813 C 0.94047 0.81369 0.07956 0.0
C1814 C 0.99038 0.81602 0.11878 0.0
C1815 C 0.96887 0.82368 0.09732 0.0
C1816 C 0.00254 0.82072 0.13034 0.0
C1817 C 0.00737 0.83753 0.13176 0.0
C1818 C 0.98277 0.82825 0.10871 0.0
C1819 C -0.00022 0.84937 0.12122 0.0
C1820 C 0.95763 0.83582 0.09137 0.0
C1821 C 0.95258 0.80208 0.08473 0.0
N1822 N 0.9877 0.84453 0.11023 0.0
N1823 N 0.96613 0.80727 0.09358 0.0
H1824 H 0.67173 0.92464 0.79475 0.0
H1825 H 0.58127 0.91734 0.75339 0.0
H1826 H 0.62539 0.93153 0.82169 0.0
H1827 H 0.62453 0.8942 0.73078 0.0
H1828 H 0.59809 0.92438 0.77779 0.0
H1829 H 0.65555 0.91497 0.77034 0.0
C1830 C 0.6582 0.92406 0.79554 0.0
C1831 C 0.64987 0.92895 0.81021 0.0
C1832 C 0.60393 0.91767 0.76757 0.0
C1833 C 0.63143 0.9181 0.78252 0.0
C1834 C 0.59433 0.91368 0.75361 0.0
C1835 C 0.60153 0.90517 0.74008 0.0
C1836 C 0.62097 0.91335 0.76796 0.0
C1837 C 0.61851 0.90071 0.74103 0.0
C1838 C 0.64901 0.91851 0.78167 0.0
C1839 C 0.63235 0.92793 0.81063 0.0
N1840 N 0.62775 0.90499 0.75471 0.0
N1841 N 0.62374 0.92273 0.79698 0.0
H1842 H 0.86648 0.86811 0.48674 0.0
H1843 H 0.7896 0.90657 0.53824 0.0
H1844 H 0.81508 0.85254 0.48081 0.0
H1845 H 0.84052 0.90825 0.55626 0.0
H1846 H 0.79934 0.89212 0.51308 0.0
H1847 H 0.85758 0.88769 0.50877 0.0
C1848 C 0.85334 0.86886 0.49003 0.0
C1849 C 0.84151 0.8586 0.48211 0.0
C1850 C 0.8084 0.89583 0.52246 0.0
C1851 C 0.83127 0.88104 0.5069 0.0
C1852 C 0.80287 0.90418 0.53676 0.0
C1853 C 0.81426 0.90845 0.5494 0.0
C1854 C 0.82544 0.89183 0.52077 0.0
C1855 C 0.83132 0.90504 0.54684 0.0
C1856 C 0.84829 0.88001 0.50256 0.0
C1857 C 0.82464 0.8601 0.48675 0.0
N1858 N 0.8364 0.89681 0.53284 0.0
N1859 N 0.82003 0.87111 0.49883 0.0
H1860 H 0.83577 0.08716 0.31296 0.0
H1861 H 0.89375 0.05595 0.239 0.0
H1862 H 0.83879 0.03537 0.2978 0.0
H1863 H 0.87603 0.10695 0.2414 0.0
H1864 H 0.87461 0.0485 0.2616 0.0
H1865 H 0.85083 0.09516 0.28746 0.0
C1866 C 0.83936 0.07751 0.30413 0.0
C1867 C 0.83613 0.06057 0.30751 0.0
C1868 C 0.87482 0.06131 0.25713 0.0
C1869 C 0.85359 0.06958 0.27861 0.0
C1870 C 0.88583 0.06559 0.24432 0.0
C1871 C 0.88651 0.08211 0.23841 0.0
C1872 C 0.86459 0.07368 0.26428 0.0
C1873 C 0.87588 0.09408 0.24565 0.0
C1874 C 0.84796 0.08208 0.28961 0.0
C1875 C 0.84105 0.04857 0.29568 0.0
N1876 N 0.86544 0.08966 0.25836 0.0
N1877 N 0.84975 0.05329 0.28187 0.0
H1878 H 0.64212 0.15953 0.00636 0.0
H1879 H 0.66296 0.07054 0.04236 0.0
H1880 H 0.63171 0.11509 0.97751 0.0
H1881 H 0.65118 0.11283 0.07389 0.0
H1882 H 0.65126 0.08578 0.01832 0.0
H1883 H 0.64555 0.14221 0.03129 0.0
C1884 C 0.64038 0.14611 0.00535 0.0
C1885 C 0.63671 0.13867 0.98992 0.0
C1886 C 0.65097 0.09154 0.03059 0.0
C1887 C 0.64089 0.11874 0.01828 0.0
C1888 C 0.65763 0.08287 0.04428 0.0
C1889 C 0.65825 0.09055 0.06006 0.0
C1890 C 0.64517 0.10802 0.03276 0.0
C1891 C 0.65116 0.10652 0.0619 0.0
C1892 C 0.64227 0.13623 0.01958 0.0
C1893 C 0.63452 0.12125 0.98925 0.0
N1894 N 0.64517 0.11483 0.04836 0.0
N1895 N 0.63695 0.11178 0.00321 0.0
H1896 H 0.65943 0.09072 0.68424 0.0
H1897 H 0.60257 0.05937 0.75886 0.0
H1898 H 0.65923 0.03957 0.70171 0.0
H1899 H 0.61656 0.11134 0.75399 0.0
H1900 H 0.62279 0.05214 0.73718 0.0
H1901 H 0.64397 0.09903 0.7094 0.0
C1902 C 0.65642 0.0813 0.69353 0.0
C1903 C 0.66048 0.06441 0.69085 0.0
C1904 C 0.62153 0.06512 0.7409 0.0
C1905 C 0.64255 0.07375 0.71935 0.0
C1906 C 0.60989 0.06928 0.75317 0.0
C1907 C 0.60782 0.08599 0.75811 0.0
C1908 C 0.63102 0.0778 0.73328 0.0
C1909 C 0.61775 0.09831 0.75046 0.0
C1910 C 0.64758 0.08605 0.70784 0.0
C1911 C 0.65629 0.05272 0.70326 0.0
N1912 N 0.62884 0.09399 0.73827 0.0
N1913 N 0.64732 0.05757 0.71684 0.0
H1914 H 0.68631 0.86722 0.42394 0.0
H1915 H 0.64759 0.87252 0.51575 0.0
H1916 H 0.67762 0.91475 0.44818 0.0
H1917 H 0.67372 0.82938 0.49631 0.0
H1918 H 0.65502 0.88806 0.4902 0.0
H1919 H 0.67786 0.8529 0.44943 0.0
C1920 C 0.68256 0.87466 0.43464 0.0
C1921 C 0.68272 0.89221 0.43398 0.0
C1922 C 0.65912 0.8752 0.49161 0.0
C1923 C 0.673 0.87582 0.46328 0.0
C1924 C 0.65486 0.86634 0.50611 0.0
C1925 C 0.66007 0.84966 0.5081 0.0
C1926 C 0.6684 0.86719 0.47901 0.0
C1927 C 0.66948 0.84223 0.49531 0.0
C1928 C 0.6778 0.86646 0.44922 0.0
C1929 C 0.67772 0.90119 0.44823 0.0
N1930 N 0.67326 0.85101 0.48129 0.0
N1931 N 0.67301 0.89288 0.46236 0.0
H1932 H 0.824 0.90438 0.19244 0.0
H1933 H 0.88618 0.93627 0.2621 0.0
H1934 H 0.82821 0.95639 0.2065 0.0
H1935 H 0.86954 0.88489 0.2604 0.0
H1936 H 0.86456 0.9437 0.24186 0.0
H1937 H 0.83946 0.89661 0.21773 0.0
C1938 C 0.82784 0.91413 0.20105 0.0
C1939 C 0.82499 0.93107 0.1973 0.0
C1940 C 0.8655 0.93082 0.24601 0.0
C1941 C 0.84296 0.9223 0.22598 0.0
C1942 C 0.87793 0.92655 0.25746 0.0
C1943 C 0.87973 0.90991 0.26278 0.0
C1944 C 0.85495 0.91833 0.23957 0.0
C1945 C 0.86859 0.89785 0.25653 0.0
C1946 C 0.83671 0.90969 0.21545 0.0
C1947 C 0.83022 0.94319 0.20887 0.0
N1948 N 0.85678 0.90226 0.24505 0.0
N1949 N 0.83923 0.93859 0.22254 0.0
H1950 H 0.84085 0.16607 0.98612 0.0
H1951 H 0.82389 0.07634 0.94669 0.0
H1952 H 0.85329 0.12047 0.01229 0.0
H1953 H 0.82448 0.12226 0.91818 0.0
H1954 H 0.83544 0.09165 0.97075 0.0
H1955 H 0.83564 0.14982 0.96083 0.0
C1956 C 0.84268 0.15262 0.98645 0.0
C1957 C 0.84742 0.14457 0.00128 0.0
C1958 C 0.83321 0.09829 0.95914 0.0
C1959 C 0.84119 0.1258 0.97248 0.0
C1960 C 0.82661 0.08957 0.94545 0.0
C1961 C 0.82306 0.09809 0.93051 0.0
C1962 C 0.83612 0.11561 0.95783 0.0
C1963 C 0.82685 0.11521 0.92951 0.0
C1964 C 0.83971 0.14333 0.97202 0.0
C1965 C 0.84966 0.12713 0.00106 0.0
N1966 N 0.83301 0.12342 0.94302 0.0
N1967 N 0.84628 0.11826 0.98691 0.0
H1968 H 0.71939 0.63089 0.90184 0.0
H1969 H 0.819 0.63756 0.89985 0.0
H1970 H 0.75247 0.59241 0.8833 0.0
H1971 H 0.78743 0.67503 0.92258 0.0
H1972 H 0.79423 0.62361 0.88889 0.0
H1973 H 0.74347 0.64969 0.90484 0.0
C1974 C 0.73167 0.62651 0.89812 0.0
C1975 C 0.734 0.61002 0.8925 0.0
C1976 C 0.79266 0.63498 0.89611 0.0
C1977 C 0.76152 0.63136 0.89597 0.0
C1978 C 0.80682 0.64297 0.90236 0.0
C1979 C 0.80522 0.65733 0.91232 0.0
C1980 C 0.77671 0.64126 0.90001 0.0
C1981 C 0.78916 0.66391 0.91502 0.0
C1982 C 0.74541 0.63722 0.89989 0.0
C1983 C 0.75015 0.60497 0.88785 0.0
N1984 N 0.77546 0.65567 0.9091 0.0
N1985 N 0.76329 0.61554 0.88983 0.0
H1986 H 0.22457 0.87343 0.10017 0.0
H1987 H 0.31747 0.87549 0.06324 0.0
H1988 H 0.24808 0.91727 0.07908 0.0
H1989 H 0.28955 0.82938 0.06724 0.0
H1990 H 0.29334 0.89079 0.07368 0.0
H1991 H 0.24949 0.8569 0.09261 0.0
C1992 C 0.23503 0.87958 0.09411 0.0
C1993 C 0.23431 0.8967 0.09018 0.0
C1994 C 0.29244 0.87732 0.07231 0.0
C1995 C 0.26264 0.87804 0.08165 0.0
C1996 C 0.30625 0.86855 0.06637 0.0
C1997 C 0.30547 0.85114 0.06425 0.0
C1998 C 0.2777 0.86866 0.07629 0.0
C1999 C 0.2906 0.84282 0.0686 0.0
C2000 C 0.24915 0.87015 0.08973 0.0
C2001 C 0.2481 0.90408 0.08226 0.0
N2002 N 0.27723 0.85169 0.07442 0.0
N2003 N 0.26169 0.89472 0.07829 0.0
H2004 H 0.87634 0.46757 0.84307 0.0
H2005 H 0.88657 0.56684 0.84024 0.0
H2006 H 0.84041 0.50277 0.86282 0.0
H2007 H 0.9207 0.53285 0.8158 0.0
H2008 H 0.8728 0.54311 0.85352 0.0
H2009 H 0.89569 0.49079 0.8378 0.0
C2010 C 0.87264 0.48015 0.84656 0.0
C2011 C 0.85668 0.48332 0.85319 0.0
C2012 C 0.88342 0.54079 0.84542 0.0
C2013 C 0.87866 0.50985 0.84715 0.0
C2014 C 0.89131 0.55435 0.83784 0.0
C2015 C 0.90462 0.55175 0.82672 0.0
C2016 C 0.88874 0.52446 0.8417 0.0
C2017 C 0.91039 0.53535 0.82422 0.0
C2018 C 0.88367 0.49338 0.84351 0.0
C2019 C 0.85253 0.4998 0.85752 0.0
N2020 N 0.90223 0.52225 0.83146 0.0
N2021 N 0.86339 0.51247 0.85427 0.0
H2022 H 0.20592 0.17182 0.55791 0.0
H2023 H 0.24123 0.08989 0.60362 0.0
H2024 H 0.17532 0.13456 0.58229 0.0
H2025 H 0.27304 0.12534 0.57813 0.0
H2026 H 0.21735 0.10827 0.59878 0.0
H2027 H 0.23105 0.15715 0.56795 0.0
C2028 C 0.2045 0.1607 0.56554 0.0
C2029 C 0.18855 0.15428 0.56914 0.0
C2030 C 0.22956 0.11214 0.59434 0.0
C2031 C 0.21708 0.13748 0.58058 0.0
C2032 C 0.24321 0.10164 0.59712 0.0
C2033 C 0.25909 0.10604 0.59114 0.0
C2034 C 0.23175 0.12713 0.58537 0.0
C2035 C 0.26096 0.12145 0.58288 0.0
C2036 C 0.21882 0.15231 0.57122 0.0
C2037 C 0.18738 0.13985 0.57907 0.0
N2038 N 0.2474 0.13139 0.58008 0.0
N2039 N 0.20143 0.1319 0.58433 0.0
H2040 H 0.07684 0.9502 0.8255 0.0
H2041 H 0.16735 0.98742 0.84119 0.0
H2042 H 0.12189 0.92032 0.82596 0.0
H2043 H 0.12319 0.01311 0.85871 0.0
H2044 H 0.15036 0.96281 0.83515 0.0
H2045 H 0.09285 0.97369 0.83742 0.0
C2046 C 0.09002 0.94854 0.82826 0.0
C2047 C 0.09811 0.93339 0.82456 0.0
C2048 C 0.14436 0.97373 0.8405 0.0
C2049 C 0.11637 0.96002 0.83801 0.0
C2050 C 0.15406 0.98778 0.84392 0.0
C2051 C 0.14662 0.00225 0.85041 0.0
C2052 C 0.127 0.97426 0.84325 0.0
C2053 C 0.12937 0.0021 0.85376 0.0
C2054 C 0.09911 0.9619 0.83508 0.0
C2055 C 0.11517 0.93183 0.82843 0.0
N2056 N 0.12004 0.98836 0.8499 0.0
N2057 N 0.12374 0.94502 0.83477 0.0
H2058 H 0.66913 0.37479 0.43325 0.0
H2059 H 0.76262 0.3725 0.39808 0.0
H2060 H 0.69604 0.32827 0.42733 0.0
H2061 H 0.73996 0.41562 0.42145 0.0
H2062 H 0.73731 0.35616 0.40455 0.0
H2063 H 0.69394 0.39003 0.42444 0.0
C2064 C 0.68027 0.36775 0.43002 0.0
C2065 C 0.68056 0.35022 0.43113 0.0
C2066 C 0.73793 0.3692 0.40821 0.0
C2067 C 0.70911 0.36769 0.42099 0.0
C2068 C 0.75229 0.37853 0.40448 0.0
C2069 C 0.75335 0.3954 0.40929 0.0
C2070 C 0.72453 0.37695 0.41655 0.0
C2071 C 0.73969 0.40263 0.41758 0.0
C2072 C 0.69446 0.37649 0.42503 0.0
C2073 C 0.69534 0.34179 0.42672 0.0
N2074 N 0.72585 0.39338 0.4209 0.0
N2075 N 0.7091 0.35063 0.42183 0.0
H2076 H 0.88332 0.52405 0.64794 0.0
H2077 H 0.8906 0.4247 0.65182 0.0
H2078 H 0.84882 0.48972 0.62452 0.0
H2079 H 0.92322 0.45791 0.67919 0.0
H2080 H 0.87919 0.44866 0.63679 0.0
H2081 H 0.90182 0.50047 0.65451 0.0
C2082 C 0.87982 0.5116 0.64386 0.0
C2083 C 0.86441 0.50876 0.6359 0.0
C2084 C 0.88899 0.45075 0.64592 0.0
C2085 C 0.88538 0.4818 0.64346 0.0
C2086 C 0.89551 0.43706 0.6545 0.0
C2087 C 0.90766 0.4394 0.66695 0.0
C2088 C 0.89447 0.46696 0.64995 0.0
C2089 C 0.91376 0.45562 0.66977 0.0
C2090 C 0.89034 0.49814 0.64767 0.0
C2091 C 0.86048 0.49242 0.63087 0.0
N2092 N 0.90688 0.46887 0.66152 0.0
N2093 N 0.8708 0.47954 0.63491 0.0
H2094 H 0.58283 0.54004 0.20692 0.0
H2095 H 0.62417 0.48803 0.13205 0.0
H2096 H 0.58128 0.55685 0.1556 0.0
H2097 H 0.64119 0.48604 0.18327 0.0
H2098 H 0.60308 0.50891 0.14027 0.0
H2099 H 0.59837 0.5152 0.19798 0.0
C2100 C 0.58544 0.53832 0.19372 0.0
C2101 C 0.58094 0.55058 0.18199 0.0
C2102 C 0.61139 0.50378 0.14967 0.0
C2103 C 0.59876 0.52233 0.17175 0.0
C2104 C 0.62339 0.49192 0.14502 0.0
C2105 C 0.63451 0.48549 0.15699 0.0
C2106 C 0.61037 0.50893 0.16645 0.0
C2107 C 0.63298 0.49086 0.17362 0.0
C2108 C 0.59441 0.52422 0.18866 0.0
C2109 C 0.58466 0.54774 0.16505 0.0
N2110 N 0.62112 0.50226 0.17787 0.0
N2111 N 0.59349 0.53394 0.16043 0.0
H2112 H 0.5963 0.73553 0.91293 0.0
H2113 H 0.57223 0.69835 0.82489 0.0
H2114 H 0.60793 0.76242 0.86758 0.0
H2115 H 0.58158 0.66762 0.86836 0.0
H2116 H 0.58519 0.72218 0.83949 0.0
H2117 H 0.59046 0.71056 0.89636 0.0
C2118 C 0.59779 0.73609 0.89947 0.0
C2119 C 0.60255 0.75099 0.89158 0.0
C2120 C 0.58462 0.71012 0.84566 0.0
C2121 C 0.5956 0.7226 0.87247 0.0
C2122 C 0.57724 0.69655 0.83736 0.0
C2123 C 0.57563 0.68108 0.84552 0.0
C2124 C 0.59018 0.70813 0.86224 0.0
C2125 C 0.58235 0.67939 0.86166 0.0
C2126 C 0.59451 0.72184 0.89 0.0
C2127 C 0.60433 0.75109 0.8741 0.0
N2128 N 0.5891 0.69279 0.86956 0.0
N2129 N 0.60058 0.73714 0.86505 0.0
H2130 H 0.48677 0.30955 0.14003 0.0
H2131 H 0.55935 0.33981 0.07995 0.0
H2132 H 0.48854 0.36011 0.12101 0.0
H2133 H 0.54574 0.28785 0.08598 0.0
H2134 H 0.53357 0.34791 0.09445 0.0
H2135 H 0.50879 0.30165 0.12044 0.0
C2136 C 0.49182 0.319 0.1317 0.0
C2137 C 0.48595 0.33554 0.13221 0.0
C2138 C 0.5361 0.33476 0.09234 0.0
C2139 C 0.5112 0.32658 0.10975 0.0
C2140 C 0.55078 0.33012 0.08405 0.0
C2141 C 0.55473 0.31313 0.08189 0.0
C2142 C 0.52549 0.32229 0.09873 0.0
C2143 C 0.54321 0.30109 0.08744 0.0
C2144 C 0.50431 0.31445 0.12043 0.0
C2145 C 0.4928 0.34723 0.12103 0.0
N2146 N 0.52924 0.3059 0.09583 0.0
N2147 N 0.50523 0.34257 0.11035 0.0
H2148 H 0.91873 0.2932 0.32184 0.0
H2149 H 0.89921 0.25714 0.41125 0.0
H2150 H 0.90469 0.32431 0.36374 0.0
H2151 H 0.8913 0.22689 0.36723 0.0
H2152 H 0.90173 0.28187 0.39353 0.0
H2153 H 0.90866 0.26855 0.33731 0.0
C2154 C 0.91323 0.29488 0.33412 0.0
C2155 C 0.91276 0.31075 0.34164 0.0
C2156 C 0.89924 0.26987 0.38771 0.0
C2157 C 0.90155 0.28279 0.35936 0.0
C2158 C 0.89789 0.25576 0.39783 0.0
C2159 C 0.89513 0.24001 0.39065 0.0
C2160 C 0.8982 0.26819 0.37025 0.0
C2161 C 0.89343 0.23888 0.3732 0.0
C2162 C 0.90752 0.28084 0.34293 0.0
C2163 C 0.90551 0.31227 0.35755 0.0
N2164 N 0.89526 0.25279 0.36351 0.0
N2165 N 0.90045 0.29844 0.36598 0.0
H2166 H 0.02453 0.66094 0.61958 0.0
H2167 H 0.92486 0.66243 0.61266 0.0
H2168 H 0.991 0.63844 0.65545 0.0
H2169 H 0.95717 0.68649 0.57667 0.0
H2170 H 0.9493 0.65022 0.62613 0.0
H2171 H 0.00053 0.66699 0.60144 0.0
C2172 C 0.01216 0.65702 0.6235 0.0
C2173 C 0.0097 0.64934 0.63911 0.0
C2174 C 0.95111 0.65804 0.61521 0.0
C2175 C 0.98225 0.65631 0.61854 0.0
C2176 C 0.93714 0.66504 0.60751 0.0
C2177 C 0.93903 0.67565 0.59365 0.0
C2178 C 0.96717 0.66179 0.60915 0.0
C2179 C 0.9552 0.67845 0.5874 0.0
C2180 C -0.00154 0.66053 0.61317 0.0
C2181 C 0.99343 0.64452 0.64359 0.0
N2182 N 0.96871 0.67171 0.59533 0.0
N2183 N 0.98033 0.64823 0.63343 0.0
H2184 H 0.58511 0.32741 0.6268 0.0
H2185 H 0.60316 0.22904 0.62634 0.0
H2186 H 0.57388 0.2961 0.6694 0.0
H2187 H 0.59199 0.25827 0.58231 0.0
H2188 H 0.59962 0.25437 0.64356 0.0
H2189 H 0.59549 0.30291 0.61188 0.0
C2190 C 0.58507 0.31541 0.63313 0.0
C2191 C 0.5784 0.31373 0.64928 0.0
C2192 C 0.59813 0.25519 0.63011 0.0
C2193 C 0.59024 0.28564 0.6322 0.0
C2194 C 0.6002 0.24083 0.6203 0.0
C2195 C 0.59773 0.24163 0.60293 0.0
C2196 C 0.59393 0.27041 0.62237 0.0
C2197 C 0.59385 0.25712 0.59569 0.0
C2198 C 0.59094 0.30143 0.62456 0.0
C2199 C 0.5788 0.29789 0.6569 0.0
N2200 N 0.59208 0.27091 0.60544 0.0
N2201 N 0.58448 0.28436 0.64821 0.0
H2202 H 0.01587 0.30966 0.85506 0.0
H2203 H 0.94264 0.33891 0.91492 0.0
H2204 H 0.01099 0.36114 0.87071 0.0
H2205 H 0.95912 0.28758 0.91104 0.0
H2206 H 0.96769 0.34777 0.89958 0.0
H2207 H 0.99491 0.30162 0.87569 0.0
C2208 C 0.01037 0.31929 0.86288 0.0
C2209 C 0.01506 0.33611 0.8611 0.0
C2210 C 0.96595 0.3346 0.90235 0.0
C2211 C 0.99096 0.32699 0.88477 0.0
C2212 C 0.95169 0.32954 0.91114 0.0
C2213 C 0.94873 0.31247 0.91412 0.0
C2214 C 0.97716 0.32247 0.89633 0.0
C2215 C 0.96085 0.30086 0.90894 0.0
C2216 C -0.00152 0.31467 0.87475 0.0
C2217 C 0.00766 0.34804 0.87167 0.0
N2218 N 0.9744 0.30605 0.90008 0.0
N2219 N 0.9958 0.34327 0.88296 0.0
H2220 H 0.90672 0.67376 0.13053 0.0
H2221 H 0.90041 0.77325 0.1238 0.0
H2222 H 0.92635 0.70709 0.16822 0.0
H2223 H 0.88374 0.73878 0.0857 0.0
H2224 H 0.90591 0.74948 0.14242 0.0
H2225 H 0.89409 0.69758 0.11634 0.0
C2226 C 0.90823 0.68613 0.13591 0.0
C2227 C 0.91778 0.68851 0.15044 0.0
C2228 C 0.90084 0.74715 0.13007 0.0
C2229 C 0.90348 0.71595 0.13412 0.0
C2230 C 0.89765 0.7607 0.11946 0.0
C2231 C 0.89179 0.75794 0.10313 0.0
C2232 C 0.89811 0.73077 0.12427 0.0
C2233 C 0.88841 0.74146 0.09813 0.0
C2234 C 0.90101 0.69974 0.1278 0.0
C2235 C 0.91915 0.70475 0.15698 0.0
N2236 N 0.89176 0.72851 0.10861 0.0
N2237 N 0.91227 0.71794 0.14863 0.0
H2238 H 0.47366 0.6464 0.37756 0.0
H2239 H 0.57213 0.66362 0.37738 0.0
H2240 H 0.50291 0.65538 0.33306 0.0
H2241 H 0.54121 0.67607 0.41992 0.0
H2242 H 0.54735 0.65386 0.36255 0.0
H2243 H 0.49888 0.65117 0.39463 0.0
C2244 C 0.48541 0.64921 0.37141 0.0
C2245 C 0.48625 0.65061 0.35392 0.0
C2246 C 0.54599 0.6586 0.37518 0.0
C2247 C 0.51494 0.65581 0.37321 0.0
C2248 C 0.56013 0.66412 0.3837 0.0
C2249 C 0.55869 0.67085 0.39985 0.0
C2250 C 0.53025 0.6597 0.38286 0.0
C2251 C 0.54283 0.67107 0.40743 0.0
C2252 C 0.49972 0.65197 0.38113 0.0
C2253 C 0.50172 0.65431 0.34652 0.0
N2254 N 0.52915 0.66566 0.39881 0.0
N2255 N 0.51545 0.65675 0.3562 0.0
H2256 H 0.87771 0.60645 0.75385 0.0
H2257 H 0.83946 0.53405 0.69614 0.0
H2258 H 0.89298 0.55466 0.75615 0.0
H2259 H 0.83799 0.58628 0.68229 0.0
H2260 H 0.85392 0.54164 0.72201 0.0
H2261 H 0.85847 0.59937 0.73092 0.0
C2262 C 0.87696 0.5936 0.74956 0.0
C2263 C 0.88703 0.58113 0.75676 0.0
C2264 C 0.85025 0.55146 0.71339 0.0
C2265 C 0.86497 0.57296 0.73088 0.0
C2266 C 0.8419 0.54715 0.69869 0.0
C2267 C 0.83766 0.55955 0.687 0.0
C2268 C 0.8543 0.56829 0.71648 0.0
C2269 C 0.84114 0.57633 0.69094 0.0
C2270 C 0.86601 0.58958 0.73652 0.0
C2271 C 0.88555 0.56467 0.75082 0.0
N2272 N 0.84937 0.58022 0.70532 0.0
N2273 N 0.87472 0.56106 0.73824 0.0
H2274 H 0.65277 0.58793 0.93954 0.0
H2275 H 0.68152 0.64999 0.01146 0.0
H2276 H 0.70419 0.59327 0.95522 0.0
H2277 H 0.63073 0.63184 0.0083 0.0
H2278 H 0.68968 0.63022 0.98969 0.0
H2279 H 0.64396 0.60429 0.96396 0.0
C2280 C 0.66217 0.59231 0.94827 0.0
C2281 C 0.67924 0.58933 0.94534 0.0
C2282 C 0.67676 0.63049 0.99378 0.0
C2283 C 0.6693 0.60827 0.973 0.0
C2284 C 0.67206 0.64187 0.00612 0.0
C2285 C 0.65541 0.6426 0.01161 0.0
C2286 C 0.66468 0.61989 0.98669 0.0
C2287 C 0.6437 0.63169 0.00436 0.0
C2288 C 0.65714 0.60166 0.96217 0.0
C2289 C 0.69091 0.5953 0.95701 0.0
N2290 N 0.64854 0.62083 0.99215 0.0
N2291 N 0.68574 0.60468 0.97021 0.0
H2292 H 0.6113 0.37493 0.24823 0.0
H2293 H 0.6719 0.44163 0.20487 0.0
H2294 H 0.61395 0.42701 0.26235 0.0
H2295 H 0.6481 0.40211 0.17677 0.0
H2296 H 0.65806 0.43141 0.23026 0.0
H2297 H 0.63168 0.38044 0.22572 0.0
C2298 C 0.61631 0.38744 0.24668 0.0
C2299 C 0.61084 0.40061 0.25693 0.0
C2300 C 0.65617 0.4248 0.21857 0.0
C2301 C 0.63426 0.40681 0.2318 0.0
C2302 C 0.66413 0.43053 0.20414 0.0
C2303 C 0.66094 0.4228 0.18872 0.0
C2304 C 0.64518 0.41112 0.21756 0.0
C2305 C 0.65071 0.40851 0.18842 0.0
C2306 C 0.62788 0.39056 0.23391 0.0
C2307 C 0.61769 0.41659 0.25452 0.0
N2308 N 0.64305 0.40317 0.20264 0.0
N2309 N 0.62907 0.41925 0.24222 0.0
H2310 H 0.81548 0.42586 0.46028 0.0
H2311 H 0.86576 0.34519 0.49176 0.0
H2312 H 0.83617 0.38776 0.42807 0.0
H2313 H 0.84239 0.38035 0.52546 0.0
H2314 H 0.8592 0.36368 0.46839 0.0
H2315 H 0.8291 0.4123 0.48434 0.0
C2316 C 0.82308 0.41481 0.45825 0.0
C2317 C 0.82454 0.40777 0.44224 0.0
C2318 C 0.85565 0.36749 0.4809 0.0
C2319 C 0.84008 0.39227 0.46951 0.0
C2320 C 0.85944 0.35694 0.49426 0.0
C2321 C 0.85444 0.36116 0.51052 0.0
C2322 C 0.84661 0.38232 0.48378 0.0
C2323 C 0.84639 0.37659 0.51307 0.0
C2324 C 0.83081 0.40706 0.47196 0.0
C2325 C 0.83453 0.39347 0.44025 0.0
N2326 N 0.84251 0.38653 0.49979 0.0
N2327 N 0.8418 0.38614 0.45372 0.0
H2328 H 0.88863 0.4381 0.73581 0.0
H2329 H 0.82768 0.40551 0.80661 0.0
H2330 H 0.87182 0.38678 0.73765 0.0
H2331 H 0.83269 0.45776 0.79374 0.0
H2332 H 0.8428 0.39808 0.78101 0.0
H2333 H 0.86784 0.4454 0.75695 0.0
C2334 C 0.88052 0.42837 0.74066 0.0
C2335 C 0.88202 0.41179 0.7351 0.0
C2336 C 0.84032 0.41115 0.78364 0.0
C2337 C 0.85821 0.42004 0.75934 0.0
C2338 C 0.83165 0.4154 0.79822 0.0
C2339 C 0.82908 0.43228 0.80236 0.0
C2340 C 0.84665 0.4239 0.77332 0.0
C2341 C 0.83448 0.44459 0.79106 0.0
C2342 C 0.86857 0.43257 0.75265 0.0
C2343 C 0.87109 0.3997 0.74168 0.0
N2344 N 0.84325 0.44017 0.77719 0.0
N2345 N 0.85975 0.40403 0.75362 0.0
H2346 H 0.81011 0.62657 0.06564 0.0
H2347 H 0.84959 0.62312 0.97388 0.0
H2348 H 0.81932 0.57971 0.04032 0.0
H2349 H 0.82552 0.66659 0.99513 0.0
H2350 H 0.84221 0.60714 -0.00085 0.0
H2351 H 0.81956 0.64157 0.04093 0.0
C2352 C 0.81417 0.61941 0.05486 0.0
C2353 C 0.81384 0.60185 0.05499 0.0
C2354 C 0.8386 0.62018 -0.00177 0.0
C2355 C 0.82472 0.61904 0.02656 0.0
C2356 C 0.84286 0.6293 0.9839 0.0
C2357 C 0.83811 0.64617 0.98245 0.0
C2358 C 0.82977 0.6281 0.0112 0.0
C2359 C 0.82936 0.65359 0.99571 0.0
C2360 C 0.81953 0.62801 0.04073 0.0
C2361 C 0.8193 0.59326 0.04067 0.0
N2362 N 0.82551 0.64452 0.00952 0.0
N2363 N 0.82454 0.60196 0.02697 0.0
H2364 H 0.62529 0.58905 0.22241 0.0
H2365 H 0.63297 0.5874 0.32212 0.0
H2366 H 0.58782 0.60784 0.25648 0.0
H2367 H 0.6687 0.56325 0.28959 0.0
H2368 H 0.6189 0.59901 0.29775 0.0
H2369 H 0.64377 0.5835 0.24631 0.0
C2370 C 0.62107 0.59226 0.23489 0.0
C2371 C 0.60495 0.59877 0.23752 0.0
C2372 C 0.62989 0.59129 0.29588 0.0
C2373 C 0.62592 0.59241 0.26481 0.0
C2374 C 0.63795 0.58465 0.30981 0.0
C2375 C 0.6519 0.57417 0.30785 0.0
C2376 C 0.6357 0.58734 0.27978 0.0
C2377 C 0.65791 0.5712 0.29162 0.0
C2378 C 0.63158 0.58902 0.24851 0.0
C2379 C 0.60009 0.60267 0.25391 0.0
N2380 N 0.64964 0.5776 0.27814 0.0
N2381 N 0.61048 0.59932 0.26692 0.0
H2382 H 0.63099 0.37688 0.48299 0.0
H2383 H 0.6603 0.37466 0.57858 0.0
H2384 H 0.64324 0.33187 0.51024 0.0
H2385 H 0.66745 0.41793 0.54698 0.0
H2386 H 0.64629 0.36043 0.55552 0.0
H2387 H 0.6369 0.3934 0.50829 0.0
C2388 C 0.63457 0.37047 0.49439 0.0
C2389 C 0.63677 0.35304 0.49457 0.0
C2390 C 0.65075 0.37311 0.55368 0.0
C2391 C 0.64341 0.37171 0.52334 0.0
C2392 C 0.65872 0.38127 0.56684 0.0
C2393 C 0.66528 0.39741 0.56459 0.0
C2394 C 0.64926 0.38114 0.53814 0.0
C2395 C 0.66271 0.40542 0.54916 0.0
C2396 C 0.63802 0.37989 0.50874 0.0
C2397 C 0.64153 0.34531 0.50957 0.0
N2398 N 0.65503 0.39712 0.53641 0.0
N2399 N 0.64475 0.35471 0.52334 0.0
H2400 H 0.77504 0.86289 0.58873 0.0
H2401 H 0.67597 0.85149 0.59408 0.0
H2402 H 0.74097 0.89823 0.6113 0.0
H2403 H 0.7078 0.8188 0.56519 0.0
H2404 H 0.70069 0.86496 0.60572 0.0
H2405 H 0.75168 0.84329 0.58496 0.0
C2406 C 0.76271 0.86639 0.59316 0.0
C2407 C 0.75985 0.88227 0.60015 0.0
C2408 C 0.70235 0.85471 0.597 0.0
C2409 C 0.7332 0.86 0.59588 0.0
C2410 C 0.68822 0.84698 0.59038 0.0
C2411 C 0.68988 0.83419 0.57848 0.0
C2412 C 0.71831 0.8498 0.59152 0.0
C2413 C 0.70602 0.82869 0.57428 0.0
C2414 C 0.7494 0.85523 0.59096 0.0
C2415 C 0.74368 0.88619 0.60568 0.0
N2416 N 0.71967 0.83674 0.58059 0.0
N2417 N 0.73095 0.8752 0.6033 0.0
H2418 H 0.26116 0.60001 0.43198 0.0
H2419 H 0.19021 0.66279 0.40275 0.0
H2420 H 0.2574 0.61692 0.38082 0.0
H2421 H 0.2052 0.65675 0.4543 0.0
H2422 H 0.21495 0.64689 0.39406 0.0
H2423 H 0.24042 0.62085 0.44012 0.0
C2424 C 0.25594 0.60812 0.42244 0.0
C2425 C 0.26089 0.60667 0.40568 0.0
C2426 C 0.21297 0.64931 0.40724 0.0
C2427 C 0.23712 0.63061 0.41492 0.0
C2428 C 0.19889 0.65844 0.41221 0.0
C2429 C 0.19558 0.66095 0.42928 0.0
C2430 C 0.22363 0.6425 0.41946 0.0
C2431 C 0.20722 0.65503 0.44101 0.0
C2432 C 0.24419 0.62011 0.42712 0.0
C2433 C 0.25385 0.61761 0.39387 0.0
N2434 N 0.22059 0.64585 0.43589 0.0
N2435 N 0.24216 0.62904 0.39869 0.0
H2436 H 0.5711 0.95671 0.67988 0.0
H2437 H 0.65235 0.98983 0.63185 0.0
H2438 H 0.60925 0.92512 0.65831 0.0
H2439 H 0.61603 0.02286 0.65441 0.0
H2440 H 0.63404 0.96613 0.63768 0.0
H2441 H 0.58474 0.9812 0.66714 0.0
C2442 C 0.58218 0.95492 0.67227 0.0
C2443 C 0.58921 0.93894 0.67031 0.0
C2444 C 0.62994 0.97856 0.64122 0.0
C2445 C 0.60481 0.9667 0.6558 0.0
C2446 C 0.6404 0.9921 0.63786 0.0
C2447 C 0.63577 0.00827 0.64283 0.0
C2448 C 0.6148 0.98116 0.6498 0.0
C2449 C 0.6201 0.01054 0.65045 0.0
C2450 C 0.58997 0.96887 0.66504 0.0
C2451 C 0.60355 0.93726 0.66033 0.0
N2452 N 0.61024 -0.00292 0.65393 0.0
N2453 N 0.61092 0.95096 0.65357 0.0
H2454 H 0.30131 0.32815 0.9062 0.0
H2455 H 0.22322 0.38022 0.93966 0.0
H2456 H 0.28712 0.33068 0.95824 0.0
H2457 H 0.23387 0.37338 0.88717 0.0
H2458 H 0.24503 0.35993 0.94647 0.0
H2459 H 0.27512 0.34209 0.89868 0.0
C2460 C 0.29253 0.33137 0.91603 0.0
C2461 C 0.29646 0.32841 0.93289 0.0
C2462 C 0.24252 0.36272 0.93345 0.0
C2463 C 0.26659 0.3446 0.9244 0.0
C2464 C 0.23009 0.37434 0.92955 0.0
C2465 C 0.22686 0.37861 0.91283 0.0
C2466 C 0.25194 0.3554 0.92053 0.0
C2467 C 0.23603 0.37051 0.90023 0.0
C2468 C 0.2776 0.33937 0.91173 0.0
C2469 C 0.28462 0.3328 0.94509 0.0
N2470 N 0.2483 0.35942 0.90435 0.0
N2471 N 0.27033 0.34089 0.94062 0.0
H2472 H 0.33938 0.50781 0.62745 0.0
H2473 H 0.41823 0.5419 0.67847 0.0
H2474 H 0.3768 0.4754 0.6491 0.0
H2475 H 0.3801 0.57323 0.65646 0.0
H2476 H 0.40582 0.51755 0.66442 0.0
H2477 H 0.3567 0.53198 0.63434 0.0
C2478 C 0.35138 0.50577 0.63345 0.0
C2479 C 0.35659 0.48961 0.63787 0.0
C2480 C 0.40032 0.5298 0.6625 0.0
C2481 C 0.37641 0.51727 0.64607 0.0
C2482 C 0.40742 0.54369 0.67048 0.0
C2483 C 0.40004 0.55954 0.66878 0.0
C2484 C 0.38577 0.53185 0.65279 0.0
C2485 C 0.38607 0.56119 0.65828 0.0
C2486 C 0.36126 0.51959 0.63742 0.0
C2487 C 0.37229 0.48768 0.64554 0.0
N2488 N 0.37931 0.54751 0.65082 0.0
N2489 N 0.38156 0.50138 0.64962 0.0
H2490 H 0.7339 0.08912 0.06235 0.0
H2491 H 0.7909 0.17017 0.07594 0.0
H2492 H 0.72646 0.12175 0.10478 0.0
H2493 H 0.80596 0.12633 0.04816 0.0
H2494 H 0.76489 0.15553 0.08399 0.0
H2495 H 0.75793 0.10585 0.05401 0.0
C2496 C 0.7373 0.09986 0.0699 0.0
C2497 C 0.72825 0.10398 0.08435 0.0
C2498 C 0.77394 0.14921 0.07613 0.0
C2499 C 0.75583 0.12327 0.07482 0.0
C2500 C 0.78869 0.15755 0.07149 0.0
C2501 C 0.80058 0.1494 0.06143 0.0
C2502 C 0.77107 0.13283 0.07036 0.0
C2503 C 0.79719 0.13305 0.05601 0.0
C2504 C 0.75106 0.10939 0.06515 0.0
C2505 C 0.73321 0.1181 0.0936 0.0
N2506 N 0.78276 0.12536 0.06049 0.0
N2507 N 0.74672 0.12729 0.08868 0.0
H2508 H 0.66616 0.00898 0.84762 0.0
H2509 H 0.57569 0.0415 0.82595 0.0
H2510 H 0.62237 0.97984 0.85987 0.0
H2511 H 0.61793 0.07446 0.83306 0.0
H2512 H 0.59181 0.01874 0.83898 0.0
H2513 H 0.6483 0.03328 0.84271 0.0
C2514 C 0.65277 0.00779 0.84949 0.0
C2515 C 0.64568 0.99243 0.85408 0.0
C2516 C 0.59739 0.03105 0.83792 0.0
C2517 C 0.62512 0.02005 0.84815 0.0
C2518 C 0.58822 0.04401 0.83049 0.0
C2519 C 0.59559 0.0598 0.82822 0.0
C2520 C 0.61404 0.03394 0.84287 0.0
C2521 C 0.61183 0.06242 0.83436 0.0
C2522 C 0.64258 0.02166 0.84672 0.0
C2523 C 0.62829 0.99153 0.85637 0.0
N2524 N 0.62059 0.04957 0.84117 0.0
N2525 N 0.61851 0.0051 0.85308 0.0
H2526 H 0.8437 0.98832 0.36931 0.0
H2527 H 0.9223 0.95641 0.31719 0.0
H2528 H 0.87933 0.0217 0.34622 0.0
H2529 H 0.88744 0.92405 0.34279 0.0
H2530 H 0.90968 0.98059 0.33134 0.0
H2531 H 0.86237 0.96484 0.36357 0.0
C2532 C 0.85559 0.99073 0.36326 0.0
C2533 C 0.85989 0.00691 0.35803 0.0
C2534 C 0.90499 0.96816 0.33406 0.0
C2535 C 0.88123 0.98007 0.35112 0.0
C2536 C 0.91222 0.95437 0.32602 0.0
C2537 C 0.90571 0.93827 0.32863 0.0
C2538 C 0.89117 0.96574 0.34471 0.0
C2539 C 0.89267 0.93629 0.34022 0.0
C2540 C 0.86626 0.97732 0.35995 0.0
C2541 C 0.87551 0.00937 0.35035 0.0
N2542 N 0.88571 0.94987 0.34766 0.0
N2543 N 0.88551 0.99603 0.34686 0.0
H2544 H 0.43126 0.28848 0.17063 0.0
H2545 H 0.387 0.25094 0.08943 0.0
H2546 H 0.40642 0.31805 0.13285 0.0
H2547 H 0.41198 0.22039 0.12633 0.0
H2548 H 0.39006 0.27515 0.10777 0.0
H2549 H 0.42037 0.26301 0.15734 0.0
C2550 C 0.42324 0.28962 0.15975 0.0
C2551 C 0.41991 0.30535 0.15267 0.0
C2552 C 0.39473 0.26313 0.11198 0.0
C2553 C 0.40759 0.2764 0.13737 0.0
C2554 C 0.39297 0.2493 0.1015 0.0
C2555 C 0.39944 0.23371 0.10629 0.0
C2556 C 0.40319 0.26142 0.12731 0.0
C2557 C 0.40693 0.23225 0.12212 0.0
C2558 C 0.4171 0.2751 0.15213 0.0
C2559 C 0.40948 0.30615 0.13858 0.0
N2560 N 0.40881 0.246 0.13199 0.0
N2561 N 0.40385 0.29188 0.13129 0.0
H2562 H 0.43595 0.65161 0.91671 0.0
H2563 H 0.50836 0.68064 0.85612 0.0
H2564 H 0.45298 0.7028 0.91354 0.0
H2565 H 0.50398 0.62925 0.87227 0.0
H2566 H 0.48766 0.68874 0.87701 0.0
H2567 H 0.46081 0.6427 0.90114 0.0
C2568 C 0.4451 0.66093 0.91305 0.0
C2569 C 0.44235 0.67799 0.91626 0.0
C2570 C 0.49128 0.6757 0.87609 0.0
C2571 C 0.47052 0.66794 0.89819 0.0
C2572 C 0.50299 0.67105 0.86406 0.0
C2573 C 0.50775 0.65423 0.86239 0.0
C2574 C 0.48405 0.66342 0.88637 0.0
C2575 C 0.50056 0.64235 0.87313 0.0
C2576 C 0.45925 0.65584 0.90414 0.0
C2577 C 0.45458 0.68953 0.91126 0.0
N2578 N 0.48889 0.64714 0.88458 0.0
N2579 N 0.468 0.68433 0.90222 0.0
H2580 H 0.03665 0.70808 0.6637 0.0
H2581 H 0.11101 0.76226 0.62409 0.0
H2582 H 0.08873 0.69452 0.66865 0.0
H2583 H 0.05975 0.76351 0.60708 0.0
H2584 H 0.10295 0.74184 0.64567 0.0
H2585 H 0.045 0.73345 0.64878 0.0
C2586 C 0.04986 0.71064 0.66199 0.0
C2587 C 0.06202 0.69909 0.6672 0.0
C2588 C 0.09348 0.74672 0.63727 0.0
C2589 C 0.07161 0.72794 0.65 0.0
C2590 C 0.09807 0.75832 0.62498 0.0
C2591 C 0.08606 0.76436 0.61369 0.0
C2592 C 0.07675 0.7414 0.63836 0.0
C2593 C 0.06944 0.75897 0.6154 0.0
C2594 C 0.0546 0.72505 0.65337 0.0
C2595 C 0.07896 0.70304 0.66468 0.0
N2596 N 0.06529 0.74778 0.62748 0.0
N2597 N 0.08327 0.71707 0.65606 0.0
H2598 H 0.05413 0.33928 0.40825 0.0
H2599 H 0.97991 0.31207 0.34875 0.0
H2600 H 0.03686 0.28824 0.40415 0.0
H2601 H 0.98455 0.36286 0.36659 0.0
H2602 H 0.00156 0.30341 0.36844 0.0
H2603 H 0.02908 0.34863 0.39321 0.0
C2604 C 0.0449 0.33008 0.40447 0.0
C2605 C 0.04761 0.31295 0.40733 0.0
C2606 C -0.0022 0.31644 0.36814 0.0
C2607 C 0.01922 0.32351 0.38986 0.0
C2608 C 0.98554 0.32142 0.3568 0.0
C2609 C 0.98054 0.33823 0.35598 0.0
C2610 C 0.00533 0.32838 0.37858 0.0
C2611 C 0.98812 0.34978 0.36682 0.0
C2612 C 0.03065 0.33543 0.39587 0.0
C2613 C 0.03529 0.30156 0.40218 0.0
N2614 N 0.0003 0.34467 0.3776 0.0
N2615 N 0.02175 0.30702 0.39345 0.0
H2616 H 0.37951 0.74169 0.40112 0.0
H2617 H 0.4302 0.70702 0.32228 0.0
H2618 H 0.40619 0.77376 0.3668 0.0
H2619 H 0.40362 0.67614 0.35773 0.0
H2620 H 0.4182 0.73201 0.33563 0.0
H2621 H 0.38461 0.71801 0.38255 0.0
C2622 C 0.38624 0.74378 0.38953 0.0
C2623 C 0.3926 0.75965 0.38557 0.0
C2624 C 0.41484 0.71974 0.34032 0.0
C2625 C 0.39876 0.73254 0.36434 0.0
C2626 C 0.42165 0.7055 0.33269 0.0
C2627 C 0.41806 0.68954 0.33907 0.0
C2628 C 0.40437 0.7179 0.35437 0.0
C2629 C 0.4069 0.68823 0.35256 0.0
C2630 C 0.3892 0.73025 0.37893 0.0
C2631 C 0.40115 0.76169 0.37035 0.0
N2632 N 0.40059 0.70221 0.35983 0.0
N2633 N 0.4042 0.74822 0.36038 0.0
H2634 H 0.00197 0.66971 0.16269 0.0
H2635 H 0.04854 0.6755 0.07481 0.0
H2636 H 0.98195 0.64565 0.11867 0.0
H2637 H 0.07307 0.68206 0.1225 0.0
H2638 H 0.02309 0.66639 0.08965 0.0
H2639 H 0.0273 0.67652 0.14716 0.0
C2640 C 0.00295 0.66583 0.14974 0.0
C2641 C 0.98989 0.6571 0.14194 0.0
C2642 C 0.03412 0.66974 0.09679 0.0
C2643 C 0.01882 0.66498 0.12401 0.0
C2644 C 0.04859 0.67496 0.08835 0.0
C2645 C 0.06288 0.67959 0.09745 0.0
C2646 C 0.03401 0.66941 0.11438 0.0
C2647 C 0.06233 0.67864 0.11497 0.0
C2648 C 0.01743 0.66967 0.14088 0.0
C2649 C 0.99181 0.65235 0.12513 0.0
N2650 N 0.04812 0.67378 0.12284 0.0
N2651 N 0.006 0.65646 0.11663 0.0
H2652 H 0.11605 0.25482 0.90102 0.0
H2653 H 0.06969 0.28969 0.82011 0.0
H2654 H 0.0941 0.22268 0.86358 0.0
H2655 H 0.09444 0.32057 0.85686 0.0
H2656 H 0.08217 0.26481 0.83314 0.0
H2657 H 0.11202 0.27874 0.88251 0.0
C2658 C 0.11057 0.25278 0.88878 0.0
C2659 C 0.1052 0.23682 0.88389 0.0
C2660 C 0.08509 0.27706 0.83817 0.0
C2661 C 0.10027 0.26419 0.86268 0.0
C2662 C 0.07801 0.29125 0.8307 0.0
C2663 C 0.08085 0.30715 0.8376 0.0
C2664 C 0.09499 0.27888 0.85261 0.0
C2665 C 0.09173 0.30851 0.8513 0.0
C2666 C 0.10827 0.26644 0.87819 0.0
C2667 C 0.09832 0.23483 0.86785 0.0
N2668 N 0.09823 0.29455 0.85847 0.0
N2669 N 0.09579 0.24843 0.8579 0.0
H2670 H 0.51886 0.31986 0.6296 0.0
H2671 H 0.43097 0.34532 0.5964 0.0
H2672 H 0.50316 0.37151 0.63147 0.0
H2673 H 0.45875 0.30446 0.57456 0.0
H2674 H 0.45688 0.35584 0.60896 0.0
H2675 H 0.49661 0.31405 0.6095 0.0
C2676 C 0.51073 0.33 0.62568 0.0
C2677 C 0.51267 0.34614 0.63228 0.0
C2678 C 0.45736 0.3448 0.6011 0.0
C2679 C 0.48712 0.33956 0.60942 0.0
C2680 C 0.4426 0.33878 0.59395 0.0
C2681 C 0.44274 0.32391 0.58459 0.0
C2682 C 0.47222 0.33563 0.59917 0.0
C2683 C 0.45811 0.31594 0.58174 0.0
C2684 C 0.49814 0.32671 0.61411 0.0
C2685 C 0.50197 0.35889 0.62667 0.0
N2686 N 0.4722 0.3217 0.58932 0.0
N2687 N 0.48939 0.35526 0.61576 0.0
H2688 H 0.12314 0.41004 0.32765 0.0
H2689 H 0.12223 0.38323 0.23141 0.0
H2690 H 0.16549 0.41822 0.2951 0.0
H2691 H 0.0783 0.39607 0.26007 0.0
H2692 H 0.13958 0.38845 0.25631 0.0
H2693 H 0.10822 0.39687 0.30457 0.0
C2694 C 0.1294 0.40887 0.31568 0.0
C2695 C 0.14548 0.41549 0.31318 0.0
C2696 C 0.12612 0.38987 0.25714 0.0
C2697 C 0.1284 0.40043 0.28672 0.0
C2698 C 0.11623 0.38681 0.24303 0.0
C2699 C 0.09886 0.38935 0.24375 0.0
C2700 C 0.11847 0.39517 0.27204 0.0
C2701 C 0.09167 0.3941 0.259 0.0
C2702 C 0.12085 0.40138 0.30252 0.0
C2703 C 0.15304 0.41342 0.29747 0.0
N2704 N 0.10151 0.39689 0.27254 0.0
N2705 N 0.14435 0.4062 0.28471 0.0
H2706 H 0.33798 0.37634 0.96861 0.0
H2707 H 0.34156 0.38647 0.06785 0.0
H2708 H 0.36044 0.34063 0.00237 0.0
H2709 H 0.31518 0.42085 0.03559 0.0
H2710 H 0.35322 0.37269 0.0433 0.0
H2711 H 0.33404 0.39564 0.99215 0.0
C2712 C 0.34234 0.37269 0.98092 0.0
C2713 C 0.34936 0.3568 0.98361 0.0
C2714 C 0.34505 0.38336 0.04153 0.0
C2715 C 0.34484 0.37871 0.01052 0.0
C2716 C 0.3384 0.39126 0.05556 0.0
C2717 C 0.32721 0.40466 0.05372 0.0
C2718 C 0.34033 0.38876 0.02548 0.0
C2719 C 0.3237 0.41048 0.03753 0.0
C2720 C 0.34005 0.38368 0.99434 0.0
C2721 C 0.35481 0.35269 -0.00022 0.0
N2722 N 0.33004 0.40231 0.02398 0.0
N2723 N 0.35229 0.36351 0.01263 0.0
H2724 H 0.3199 0.54826 0.7904 0.0
H2725 H 0.37499 0.6177 0.74379 0.0
H2726 H 0.33944 0.59185 0.81559 0.0
H2727 H 0.37613 0.56514 0.73133 0.0
H2728 H 0.35478 0.61153 0.7662 0.0
H2729 H 0.33293 0.55797 0.76431 0.0
C2730 C 0.32652 0.56009 0.79031 0.0
C2731 C 0.32878 0.56921 0.80513 0.0
C2732 C 0.35934 0.60143 0.75839 0.0
C2733 C 0.34361 0.58031 0.77555 0.0
C2734 C 0.37082 0.60492 0.74566 0.0
C2735 C 0.37735 0.59185 0.73592 0.0
C2736 C 0.35413 0.58484 0.76105 0.0
C2737 C 0.37156 0.57552 0.73876 0.0
C2738 C 0.33405 0.56555 0.77551 0.0
C2739 C 0.33757 0.58441 0.80442 0.0
N2740 N 0.36027 0.57246 0.75109 0.0
N2741 N 0.34479 0.58945 0.78988 0.0
H2742 H 0.18843 0.57114 0.52737 0.0
H2743 H 0.12757 0.64158 0.49584 0.0
H2744 H 0.14575 0.58798 0.55589 0.0
H2745 H 0.15985 0.61424 0.46225 0.0
H2746 H 0.13218 0.62015 0.51717 0.0
H2747 H 0.17654 0.58444 0.50245 0.0
C2748 C 0.17639 0.57731 0.5283 0.0
C2749 C 0.1682 0.57872 0.54375 0.0
C2750 C 0.13802 0.61865 0.50504 0.0
C2751 C 0.15469 0.59418 0.51547 0.0
C2752 C 0.1354 0.6309 0.49287 0.0
C2753 C 0.14351 0.62975 0.47737 0.0
C2754 C 0.1491 0.60536 0.50177 0.0
C2755 C 0.15345 0.61563 0.47411 0.0
C2756 C 0.16961 0.58492 0.51409 0.0
C2757 C 0.15259 0.58679 0.54426 0.0
N2758 N 0.15624 0.60413 0.48634 0.0
N2759 N 0.1465 0.5945 0.5304 0.0
H2760 H 0.12656 0.59154 0.27233 0.0
H2761 H 0.13465 0.58578 0.17299 0.0
H2762 H 0.08947 0.60954 0.23741 0.0
H2763 H 0.17113 0.56459 0.20672 0.0
H2764 H 0.12052 0.5987 0.19666 0.0
H2765 H 0.14539 0.58568 0.24883 0.0
C2766 C 0.12249 0.59451 0.25974 0.0
C2767 C 0.10637 0.60085 0.25677 0.0
C2768 C 0.13169 0.59137 0.19895 0.0
C2769 C 0.12775 0.59412 0.22991 0.0
C2770 C 0.13978 0.58398 0.18542 0.0
C2771 C 0.15394 0.57392 0.18795 0.0
C2772 C 0.13767 0.58855 0.21522 0.0
C2773 C 0.16017 0.57219 0.20427 0.0
C2774 C 0.13322 0.59112 0.24635 0.0
C2775 C 0.10173 0.60449 0.24025 0.0
N2776 N 0.15184 0.57925 0.21737 0.0
N2777 N 0.11231 0.60093 0.22745 0.0
H2778 H 0.14865 0.37848 0.02627 0.0
H2779 H 0.14594 0.38872 0.92706 0.0
H2780 H 0.12987 0.34116 0.99202 0.0
H2781 H 0.17393 0.42136 0.95976 0.0
H2782 H 0.13346 0.37534 0.9515 0.0
H2783 H 0.15168 0.39803 0.00283 0.0
C2784 C 0.14489 0.37451 0.01387 0.0
C2785 C 0.13925 0.35812 0.011 0.0
C2786 C 0.14212 0.38561 0.95335 0.0
C2787 C 0.14267 0.38033 0.98423 0.0
C2788 C 0.14922 0.39329 0.93939 0.0
C2789 C 0.16121 0.40595 0.94143 0.0
C2790 C 0.14714 0.39056 0.96944 0.0
C2791 C 0.16486 0.41151 0.95767 0.0
C2792 C 0.14665 0.38565 0.00051 0.0
C2793 C 0.13448 0.35362 0.99473 0.0
N2794 N 0.15805 0.40358 0.97111 0.0
N2795 N 0.13646 0.36462 0.98192 0.0
H2796 H 0.33177 0.40521 0.67845 0.0
H2797 H 0.3902 0.43136 0.7539 0.0
H2798 H 0.33553 0.45598 0.69656 0.0
H2799 H 0.37256 0.3806 0.7482 0.0
H2800 H 0.3708 0.44032 0.73212 0.0
H2801 H 0.34654 0.39549 0.70351 0.0
C2802 C 0.33542 0.41427 0.68786 0.0
C2803 C 0.33254 0.43144 0.6854 0.0
C2804 C 0.37108 0.42723 0.73567 0.0
C2805 C 0.3497 0.42046 0.71382 0.0
C2806 C 0.38225 0.42208 0.74801 0.0
C2807 C 0.38305 0.40519 0.75275 0.0
C2808 C 0.36078 0.41538 0.72779 0.0
C2809 C 0.37235 0.39373 0.74484 0.0
C2810 C 0.34387 0.40872 0.70212 0.0
C2811 C 0.33753 0.44265 0.69795 0.0
N2812 N 0.36173 0.39901 0.73259 0.0
N2813 N 0.3461 0.43698 0.7115 0.0
H2814 H 0.35314 0.60924 0.51697 0.0
H2815 H 0.3404 0.60685 0.4178 0.0
H2816 H 0.35509 0.65231 0.48443 0.0
H2817 H 0.32125 0.56828 0.45043 0.0
H2818 H 0.35336 0.62043 0.44181 0.0
H2819 H 0.34845 0.5913 0.49236 0.0
C2820 C 0.35289 0.61485 0.50463 0.0
C2821 C 0.35433 0.63226 0.50266 0.0
C2822 C 0.3465 0.60888 0.44372 0.0
C2823 C 0.34915 0.61196 0.47469 0.0
C2824 C 0.33913 0.60109 0.43001 0.0
C2825 C 0.32949 0.58658 0.43219 0.0
C2826 C 0.3442 0.60217 0.45977 0.0
C2827 C 0.32846 0.57955 0.44826 0.0
C2828 C 0.35015 0.60465 0.49065 0.0
C2829 C 0.35386 0.63896 0.48647 0.0
N2830 N 0.33554 0.58756 0.46154 0.0
N2831 N 0.35126 0.62881 0.47312 0.0
H2832 H 0.31112 0.15549 0.39809 0.0
H2833 H 0.22736 0.1155 0.42868 0.0
H2834 H 0.28718 0.17036 0.44416 0.0
H2835 H 0.23923 0.11771 0.37607 0.0
H2836 H 0.24913 0.13615 0.43424 0.0
H2837 H 0.28478 0.14283 0.38886 0.0
C2838 C 0.3002 0.15645 0.40608 0.0
C2839 C 0.30135 0.16376 0.42201 0.0
C2840 C 0.24687 0.13231 0.42144 0.0
C2841 C 0.27142 0.14903 0.41171 0.0
C2842 C 0.23455 0.12041 0.41828 0.0
C2843 C 0.23168 0.1148 0.40192 0.0
C2844 C 0.25669 0.13836 0.40819 0.0
C2845 C 0.24117 0.1217 0.38887 0.0
C2846 C 0.28519 0.14921 0.40081 0.0
C2847 C 0.28685 0.16474 0.43184 0.0
N2848 N 0.2535 0.13295 0.39232 0.0
N2849 N 0.27256 0.15711 0.42668 0.0
H2850 H 0.79483 0.33495 0.54012 0.0
H2851 H 0.74153 0.37505 0.6149 0.0
H2852 H 0.81223 0.33604 0.59125 0.0
H2853 H 0.73457 0.38729 0.56276 0.0
H2854 H 0.76421 0.35583 0.60699 0.0
H2855 H 0.76896 0.34874 0.54896 0.0
C2856 C 0.79307 0.3378 0.55325 0.0
C2857 C 0.80574 0.33452 0.56495 0.0
C2858 C 0.75763 0.36268 0.59731 0.0
C2859 C 0.77629 0.35039 0.57511 0.0
C2860 C 0.74473 0.37362 0.60181 0.0
C2861 C 0.73632 0.38287 0.58947 0.0
C2862 C 0.76193 0.36085 0.58035 0.0
C2863 C 0.74087 0.38053 0.57268 0.0
C2864 C 0.77836 0.34577 0.55827 0.0
C2865 C 0.80281 0.33849 0.58181 0.0
N2866 N 0.75337 0.36976 0.56861 0.0
N2867 N 0.78842 0.34635 0.58639 0.0
H2868 H 0.36626 0.97885 0.31485 0.0
H2869 H 0.406 0.06391 0.34241 0.0
H2870 H 0.36914 0.99281 0.36692 0.0
H2871 H 0.42159 0.03884 0.29723 0.0
H2872 H 0.39311 0.03789 0.35211 0.0
H2873 H 0.38678 0.00055 0.30816 0.0
C2874 C 0.37132 0.98643 0.32489 0.0
C2875 C 0.36589 0.9842 0.34143 0.0
C2876 C 0.39965 0.03796 0.34024 0.0
C2877 C 0.38924 0.0091 0.33386 0.0
C2878 C 0.40699 0.05279 0.3347 0.0
C2879 C 0.41475 0.05348 0.31897 0.0
C2880 C 0.39969 0.02386 0.32976 0.0
C2881 C 0.41573 0.03878 0.30945 0.0
C2882 C 0.38311 -0.00128 0.32109 0.0
C2883 C 0.37296 0.99421 0.354 0.0
N2884 N 0.40795 0.02461 0.31484 0.0
N2885 N 0.38408 0.00645 0.34992 0.0
H2886 H 0.70019 0.67536 0.07711 0.0
H2887 H 0.73519 0.5858 0.09926 0.0
H2888 H 0.66859 0.63272 0.0873 0.0
H2889 H 0.76512 0.63018 0.10635 0.0
H2890 H 0.71042 0.60333 0.09601 0.0
H2891 H 0.72403 0.65999 0.08904 0.0
C2892 C 0.69821 0.66291 0.08212 0.0
C2893 C 0.68248 0.65519 0.08098 0.0
C2894 C 0.72233 0.60929 0.09853 0.0
C2895 C 0.70955 0.63758 0.09441 0.0
C2896 C 0.73647 0.59927 0.10036 0.0
C2897 C 0.75216 0.6066 0.10298 0.0
C2898 C 0.72396 0.62681 0.09893 0.0
C2899 C 0.75318 0.62409 0.10436 0.0
C2900 C 0.7118 0.65416 0.08892 0.0
C2901 C 0.68056 0.63907 0.08769 0.0
N2902 N 0.73928 0.63367 0.102 0.0
N2903 N 0.69397 0.63072 0.09389 0.0
H2904 H 0.61666 0.51824 0.35239 0.0
H2905 H 0.6175 0.42086 0.32968 0.0
H2906 H 0.66104 0.49006 0.33999 0.0
H2907 H 0.5744 0.45187 0.31951 0.0
H2908 H 0.63204 0.44517 0.34091 0.0
H2909 H 0.59966 0.49302 0.34711 0.0
C2910 C 0.62281 0.5067 0.34878 0.0
C2911 C 0.64023 0.50617 0.34651 0.0
C2912 C 0.61934 0.44664 0.33637 0.0
C2913 C 0.62105 0.47751 0.34073 0.0
C2914 C 0.611 0.43276 0.33 0.0
C2915 C 0.59479 0.4344 0.32343 0.0
C2916 C 0.61145 0.46232 0.33627 0.0
C2917 C 0.58694 0.45012 0.32434 0.0
C2918 C 0.61313 0.49241 0.34571 0.0
C2919 C 0.64763 0.491 0.34175 0.0
N2920 N 0.59542 0.46357 0.33052 0.0
N2921 N 0.63801 0.47728 0.33905 0.0
H2922 H 0.20657 0.83806 0.95428 0.0
H2923 H 0.25713 0.87603 0.87661 0.0
H2924 H 0.18866 0.83443 0.90344 0.0
H2925 H 0.26241 0.89328 0.92752 0.0
H2926 H 0.23528 0.85646 0.88592 0.0
H2927 H 0.23103 0.85346 0.94422 0.0
C2928 C 0.20794 0.84024 0.94096 0.0
C2929 C 0.19552 0.8351 0.92968 0.0
C2930 C 0.24128 0.86453 0.89501 0.0
C2931 C 0.22335 0.85281 0.91813 0.0
C2932 C 0.25369 0.87569 0.88972 0.0
C2933 C 0.26145 0.88637 0.9013 0.0
C2934 C 0.23687 0.86391 0.91202 0.0
C2935 C 0.25662 0.88539 0.91815 0.0
C2936 C 0.22183 0.84914 0.93525 0.0
C2937 C 0.19791 0.83828 0.91256 0.0
N2938 N 0.24468 0.87433 0.92301 0.0
N2939 N 0.21152 0.84705 0.90729 0.0
H2940 H 0.38643 0.92213 0.15225 0.0
H2941 H 0.35129 0.00888 0.17988 0.0
H2942 H 0.4101 0.95078 0.19144 0.0
H2943 H 0.35154 0.99632 0.12736 0.0
H2944 H 0.37043 0.98562 0.18527 0.0
H2945 H 0.37166 0.94751 0.1431 0.0
C2946 C 0.38875 0.93383 0.15871 0.0
C2947 C 0.39943 0.9344 0.17265 0.0
C2948 C 0.36637 0.98801 0.17255 0.0
C2949 C 0.38232 0.96314 0.16259 0.0
C2950 C 0.35534 0.00115 0.16949 0.0
C2951 C 0.34981 0.00441 0.15317 0.0
C2952 C 0.37158 0.9778 0.15927 0.0
C2953 C 0.35555 0.99415 0.14012 0.0
C2954 C 0.38034 0.94825 0.15349 0.0
C2955 C 0.402 0.94983 0.18062 0.0
N2956 N 0.36599 0.98109 0.14348 0.0
N2957 N 0.39322 0.96353 0.17569 0.0
H2958 H 0.0771 0.04482 0.67057 0.0
H2959 H 0.1669 0.00632 0.65322 0.0
H2960 H 0.12258 0.07399 0.66923 0.0
H2961 H 0.12197 0.98076 0.6376 0.0
H2962 H 0.15034 0.0312 0.65934 0.0
H2963 H 0.09255 0.02101 0.65855 0.0
C2964 C 0.09025 0.04627 0.66759 0.0
C2965 C 0.09862 0.06132 0.67107 0.0
C2966 C 0.14407 0.02025 0.65438 0.0
C2967 C 0.11627 0.0343 0.65752 0.0
C2968 C 0.15353 0.00604 0.65092 0.0
C2969 C 0.14575 0.99152 0.64494 0.0
C2970 C 0.12662 0.01985 0.6522 0.0
C2971 C 0.1284 0.99179 0.64214 0.0
C2972 C 0.09903 0.03272 0.66072 0.0
C2973 C 0.11564 0.06257 0.66693 0.0
N2974 N 0.11932 0.0057 0.64603 0.0
N2975 N 0.12391 0.04921 0.66055 0.0
H2976 H 0.09622 0.11363 0.30341 0.0
H2977 H 0.1698 0.09311 0.34157 0.0
H2978 H 0.07496 0.09943 0.351 0.0
H2979 H 0.14107 0.06113 0.37428 0.0
H2980 H 0.14459 0.09905 0.32563 0.0
H2981 H 0.12112 0.09716 0.30993 0.0
C2982 C 0.09676 0.10693 0.31519 0.0
C2983 C 0.08377 0.10826 0.32692 0.0
C2984 C 0.1438 0.09023 0.33588 0.0
C2985 C 0.11238 0.08992 0.3347 0.0
C2986 C 0.15823 0.08696 0.34509 0.0
C2987 C 0.15742 0.07685 0.35939 0.0
C2988 C 0.12844 0.08342 0.34113 0.0
C2989 C 0.14217 0.06914 0.3634 0.0
C2990 C 0.11104 0.09765 0.31897 0.0
C2991 C 0.08487 0.099 0.34177 0.0
N2992 N 0.12816 0.07291 0.35454 0.0
N2993 N 0.0991 0.09042 0.34537 0.0
H2994 H 0.12481 0.84953 0.55829 0.0
H2995 H 0.18541 0.89032 0.62579 0.0
H2996 H 0.14858 0.82241 0.59854 0.0
H2997 H 0.15371 0.91853 0.59232 0.0
H2998 H 0.1786 0.86484 0.61035 0.0
H2999 H 0.14193 0.87399 0.56506 0.0
C3000 C 0.13388 0.84862 0.56833 0.0
C3001 C 0.13504 0.83411 0.57815 0.0
C3002 C 0.17335 0.87665 0.60621 0.0
C3003 C 0.15451 0.86195 0.58597 0.0
C3004 C 0.17723 0.89119 0.61502 0.0
C3005 C 0.16978 0.90644 0.61053 0.0
C3006 C 0.1619 0.87741 0.59291 0.0
C3007 C 0.15947 0.90693 0.59635 0.0
C3008 C 0.14361 0.86258 0.5722 0.0
C3009 C 0.14709 0.8335 0.59088 0.0
N3010 N 0.15561 0.89254 0.58817 0.0
N3011 N 0.1562 0.84734 0.5946 0.0
H3012 H 0.35338 0.93245 0.86232 0.0
H3013 H 0.39238 0.8612 0.80492 0.0
H3014 H 0.32468 0.89345 0.83832 0.0
H3015 H 0.42106 0.89362 0.83727 0.0
H3016 H 0.36758 0.87829 0.81027 0.0
H3017 H 0.37793 0.92385 0.84626 0.0
C3018 C 0.35216 0.92229 0.85341 0.0
C3019 C 0.33713 0.91335 0.85191 0.0
C3020 C 0.37936 0.88182 0.81597 0.0
C3021 C 0.36511 0.90341 0.83367 0.0
C3022 C 0.39351 0.87208 0.81293 0.0
C3023 C 0.40865 0.87581 0.82099 0.0
C3024 C 0.38041 0.89533 0.82716 0.0
C3025 C 0.40952 0.89015 0.83106 0.0
C3026 C 0.36618 0.91738 0.84428 0.0
C3027 C 0.33615 0.90046 0.84005 0.0
N3028 N 0.3955 0.89927 0.83407 0.0
N3029 N 0.35006 0.89567 0.83157 0.0
H3030 H 0.35391 0.17016 0.09845 0.0
H3031 H 0.3456 0.07134 0.09657 0.0
H3032 H 0.38061 0.13874 0.06353 0.0
H3033 H 0.31357 0.10339 0.12601 0.0
H3034 H 0.35611 0.09595 0.08179 0.0
H3035 H 0.33671 0.14617 0.1064 0.0
C3036 C 0.35603 0.15823 0.09234 0.0
C3037 C 0.36884 0.15632 0.08051 0.0
C3038 C 0.34659 0.0976 0.0913 0.0
C3039 C 0.34932 0.12883 0.08959 0.0
C3040 C 0.34058 0.08354 0.09972 0.0
C3041 C 0.32891 0.0854 0.11268 0.0
C3042 C 0.34101 0.11359 0.09604 0.0
C3043 C 0.32271 0.10145 0.1162 0.0
C3044 C 0.34618 0.14455 0.09684 0.0
C3045 C 0.37096 0.14067 0.07284 0.0
N3046 N 0.32904 0.11498 0.1081 0.0
N3047 N 0.36144 0.12745 0.07769 0.0
H3048 H 0.13675 0.93963 0.1192 0.0
H3049 H 0.09674 0.87515 0.18355 0.0
H3050 H 0.16502 0.90375 0.14809 0.0
H3051 H 0.06887 0.90229 0.14604 0.0
H3052 H 0.12138 0.89209 0.17707 0.0
H3053 H 0.11178 0.93251 0.13534 0.0
C3054 C 0.13776 0.93047 0.12915 0.0
C3055 C 0.15284 0.92195 0.13208 0.0
C3056 C 0.10978 0.89455 0.17049 0.0
C3057 C 0.12439 0.91376 0.1505 0.0
C3058 C 0.09571 0.88492 0.1742 0.0
C3059 C 0.08091 0.88709 0.16502 0.0
C3060 C 0.10897 0.90638 0.15752 0.0
C3061 C 0.08017 0.90002 0.15318 0.0
C3062 C 0.12351 0.92642 0.13834 0.0
C3063 C 0.15354 0.91037 0.14525 0.0
N3064 N 0.09412 0.90903 0.14957 0.0
N3065 N 0.13942 0.90641 0.15382 0.0
H3066 H 0.34628 0.82413 0.39792 0.0
H3067 H 0.3082 0.89871 0.37753 0.0
H3068 H 0.37407 0.85207 0.43488 0.0
H3069 H 0.35391 0.91972 0.39726 0.0
H3070 H 0.31411 0.87262 0.39244 0.0
H3071 H 0.33093 0.84949 0.39071 0.0
C3072 C 0.34886 0.83554 0.40478 0.0
C3073 C 0.3616 0.83611 0.41682 0.0
C3074 C 0.32283 0.88294 0.39352 0.0
C3075 C 0.34396 0.86515 0.40885 0.0
C3076 C 0.31938 0.89788 0.38517 0.0
C3077 C 0.33082 0.91119 0.38587 0.0
C3078 C 0.33786 0.88138 0.40252 0.0
C3079 C 0.34495 0.90961 0.39613 0.0
C3080 C 0.33996 0.85002 0.40079 0.0
C3081 C 0.36443 0.85117 0.42539 0.0
N3082 N 0.34817 0.89486 0.40392 0.0
N3083 N 0.35591 0.86519 0.42099 0.0
H3084 H 0.42168 0.10229 0.64538 0.0
H3085 H 0.3507 0.05982 0.62042 0.0
H3086 H 0.38928 0.12999 0.67859 0.0
H3087 H 0.32546 0.10528 0.63525 0.0
H3088 H 0.37535 0.06872 0.63613 0.0
H3089 H 0.39748 0.08684 0.63511 0.0
C3090 C 0.40948 0.10489 0.65072 0.0
C3091 C 0.40742 0.11747 0.66276 0.0
C3092 C 0.36447 0.07679 0.63587 0.0
C3093 C 0.37968 0.09968 0.6513 0.0
C3094 C 0.35034 0.07165 0.62705 0.0
C3095 C 0.33618 0.08202 0.62628 0.0
C3096 C 0.36443 0.09246 0.64384 0.0
C3097 C 0.33624 0.09705 0.63533 0.0
C3098 C 0.39567 0.09593 0.64499 0.0
C3099 C 0.39137 0.12038 0.66926 0.0
N3100 N 0.35024 0.1019 0.64364 0.0
N3101 N 0.37804 0.11173 0.66324 0.0
H3102 H 0.18814 0.10239 0.8706 0.0
H3103 H 0.12403 0.1442 0.93414 0.0
H3104 H 0.15524 0.07458 0.90324 0.0
H3105 H 0.15029 0.17086 0.89515 0.0
H3106 H 0.14109 0.11948 0.92834 0.0
H3107 H 0.18036 0.12812 0.88513 0.0
C3108 C 0.17952 0.10167 0.88104 0.0
C3109 C 0.17199 0.08644 0.8855 0.0
C3110 C 0.14328 0.13081 0.92122 0.0
C3111 C 0.16295 0.11577 0.90201 0.0
C3112 C 0.13355 0.14491 0.92451 0.0
C3113 C 0.13555 0.15943 0.91484 0.0
C3114 C 0.15503 0.13129 0.90817 0.0
C3115 C 0.14818 0.15979 0.90268 0.0
C3116 C 0.17506 0.11635 0.8893 0.0
C3117 C 0.1611 0.08614 0.89924 0.0
N3118 N 0.15731 0.14582 0.89953 0.0
N3119 N 0.15666 0.10067 0.90685 0.0
H3120 H 0.05896 0.37442 0.14278 0.0
H3121 H 0.12255 0.3089 0.10342 0.0
H3122 H 0.08912 0.34022 0.17181 0.0
H3123 H 0.09617 0.34674 0.07523 0.0
H3124 H 0.10532 0.31552 0.12781 0.0
H3125 H 0.06705 0.35951 0.11738 0.0
C3126 C 0.06706 0.36359 0.14382 0.0
C3127 C 0.07372 0.35876 0.15931 0.0
C3128 C 0.10315 0.32221 0.11622 0.0
C3129 C 0.08316 0.34181 0.13039 0.0
C3130 C 0.11299 0.31846 0.10232 0.0
C3131 C 0.11099 0.32756 0.08746 0.0
C3132 C 0.09131 0.33518 0.11519 0.0
C3133 C 0.0983 0.33965 0.08659 0.0
C3134 C 0.07169 0.35509 0.12933 0.0
C3135 C 0.08395 0.34451 0.16004 0.0
N3136 N 0.08907 0.34327 0.10036 0.0
N3137 N 0.08861 0.33669 0.14571 0.0
H3138 H 0.58618 0.15325 0.91841 0.0
H3139 H 0.59417 0.14942 0.82024 0.0
H3140 H 0.62242 0.18129 0.88977 0.0
H3141 H 0.55708 0.12235 0.8487 0.0
H3142 H 0.59987 0.16677 0.84473 0.0
H3143 H 0.57075 0.14749 0.89267 0.0
C3144 C 0.59072 0.15844 0.90673 0.0
C3145 C 0.60581 0.16735 0.90609 0.0
C3146 C 0.59025 0.15725 0.84555 0.0
C3147 C 0.5884 0.16069 0.87665 0.0
C3148 C 0.58701 0.14735 0.83156 0.0
C3149 C 0.57548 0.13417 0.83265 0.0
C3150 C 0.58206 0.15374 0.86071 0.0
C3151 C 0.56633 0.13218 0.84748 0.0
C3152 C 0.58191 0.15517 0.89204 0.0
C3153 C 0.61101 0.17404 0.89073 0.0
N3154 N 0.57007 0.14164 0.86107 0.0
N3155 N 0.60248 0.17029 0.87654 0.0
H3156 H 0.93789 0.87517 0.34881 0.0
H3157 H 0.8788 0.80776 0.39189 0.0
H3158 H 0.90043 0.84599 0.32303 0.0
H3159 H 0.90476 0.84705 0.4184 0.0
H3160 H 0.89445 0.81489 0.36662 0.0
H3161 H 0.93339 0.85819 0.3739 0.0
C3162 C 0.92899 0.86495 0.34832 0.0
C3163 C 0.91921 0.86219 0.33401 0.0
C3164 C 0.89697 0.82171 0.37807 0.0
C3165 C 0.91405 0.84282 0.36252 0.0
C3166 C 0.88807 0.81764 0.3925 0.0
C3167 C 0.89021 0.82715 0.4071 0.0
C3168 C 0.90802 0.83536 0.3783 0.0
C3169 C 0.90252 0.83965 0.40727 0.0
C3170 C 0.92642 0.8553 0.36263 0.0
C3171 C 0.90798 0.84872 0.33395 0.0
N3172 N 0.91079 0.84361 0.39297 0.0
N3173 N 0.90552 0.83966 0.34811 0.0
H3174 H 0.89086 0.14196 0.17434 0.0
H3175 H 0.89545 0.14875 0.07533 0.0
H3176 H 0.92909 0.11821 0.14443 0.0
H3177 H 0.85918 0.17495 0.10562 0.0
H3178 H 0.91054 0.14086 0.10073 0.0
H3179 H 0.88184 0.15774 0.14978 0.0
C3180 C 0.89752 0.14027 0.16265 0.0
C3181 C 0.91054 0.12858 0.1613 0.0
C3182 C 0.8994 0.14851 0.10182 0.0
C3183 C 0.90018 0.14638 0.13314 0.0
C3184 C 0.89077 0.15298 0.08733 0.0
C3185 C 0.87592 0.16227 0.08844 0.0
C3186 C 0.89301 0.15325 0.11751 0.0
C3187 C 0.87048 0.16759 0.10425 0.0
C3188 C 0.89236 0.14927 0.14863 0.0
C3189 C 0.91886 0.12698 0.14594 0.0
N3190 N 0.87892 0.16282 0.1182 0.0
N3191 N 0.91336 0.13559 0.13236 0.0
H3192 H 0.39293 0.64996 0.67192 0.0
H3193 H 0.37435 0.68578 0.59655 0.0
H3194 H 0.43228 0.62301 0.64656 0.0
H3195 H 0.3996 0.6424 0.57653 0.0
H3196 H 0.38842 0.68129 0.62327 0.0
H3197 H 0.38724 0.66532 0.64632 0.0
C3198 C 0.40067 0.64761 0.66104 0.0
C3199 C 0.41288 0.63503 0.66124 0.0
C3200 C 0.39086 0.6727 0.61309 0.0
C3201 C 0.40664 0.65271 0.63181 0.0
C3202 C 0.38295 0.67536 0.59778 0.0
C3203 C 0.38547 0.66414 0.58451 0.0
C3204 C 0.40108 0.65853 0.61517 0.0
C3205 C 0.39706 0.65114 0.58658 0.0
C3206 C 0.39753 0.65653 0.64639 0.0
C3207 C 0.42261 0.63251 0.64685 0.0
N3208 N 0.40424 0.64852 0.60175 0.0
N3209 N 0.41903 0.64103 0.63259 0.0
H3210 H 0.05966 0.62437 0.34912 0.0
H3211 H 0.13031 0.6828 0.38844 0.0
H3212 H 0.09927 0.64739 0.32046 0.0
H3213 H 0.09763 0.6507 0.41712 0.0
H3214 H 0.11433 0.67596 0.36322 0.0
H3215 H 0.0687 0.64012 0.37369 0.0
C3216 C 0.07011 0.63293 0.34794 0.0
C3217 C 0.07897 0.63435 0.33287 0.0
C3218 C 0.11052 0.67062 0.37509 0.0
C3219 C 0.08939 0.65229 0.36087 0.0
C3220 C 0.11961 0.67452 0.38946 0.0
C3221 C 0.11544 0.66703 0.40477 0.0
C3222 C 0.0972 0.6592 0.37612 0.0
C3223 C 0.10141 0.65652 0.40548 0.0
C3224 C 0.07526 0.6419 0.36197 0.0
C3225 C 0.09228 0.64576 0.33195 0.0
N3226 N 0.09289 0.65276 0.39129 0.0
N3227 N 0.09725 0.65415 0.34586 0.0
H3228 H 0.38863 0.34341 0.81742 0.0
H3229 H 0.36551 0.30495 0.89149 0.0
H3230 H 0.4264 0.36884 0.8465 0.0
H3231 H 0.38827 0.34847 0.91402 0.0
H3232 H 0.37969 0.3115 0.86521 0.0
H3233 H 0.37974 0.32851 0.84248 0.0
C3234 C 0.39533 0.34552 0.82902 0.0
C3235 C 0.40814 0.35747 0.82995 0.0
C3236 C 0.38151 0.31968 0.87585 0.0
C3237 C 0.39819 0.34036 0.85871 0.0
C3238 C 0.37354 0.31586 0.8909 0.0
C3239 C 0.37548 0.32639 0.90482 0.0
C3240 C 0.39137 0.33421 0.87474 0.0
C3241 C 0.38624 0.34018 0.90349 0.0
C3242 C 0.39033 0.33691 0.84335 0.0
C3243 C 0.41638 0.35978 0.84528 0.0
N3244 N 0.39369 0.34377 0.88866 0.0
N3245 N 0.41105 0.35153 0.85914 0.0
H3246 H 0.92151 0.90656 0.65036 0.0
H3247 H 0.82335 0.89805 0.64716 0.0
H3248 H 0.89309 0.87598 0.68467 0.0
H3249 H 0.85111 0.93416 0.61808 0.0
H3250 H 0.8482 0.8932 0.66428 0.0
H3251 H 0.89569 0.92054 0.6419 0.0
C3252 C 0.90987 0.90303 0.65636 0.0
C3253 C 0.90933 0.88986 0.66793 0.0
C3254 C 0.8488 0.90238 0.65433 0.0
C3255 C 0.87977 0.90554 0.65815 0.0
C3256 C 0.83464 0.90509 0.64451 0.0
C3257 C 0.83534 0.91625 0.631 0.0
C3258 C 0.86379 0.91073 0.65041 0.0
C3259 C 0.85015 0.92525 0.62824 0.0
C3260 C 0.89512 0.911 0.65152 0.0
C3261 C 0.89399 0.88591 0.67548 0.0
N3262 N 0.8639 0.92209 0.6377 0.0
N3263 N 0.87974 0.89349 0.6702 0.0
H3264 H 0.84805 0.07141 0.40434 0.0
H3265 H 0.84393 0.17033 0.40471 0.0
H3266 H 0.81205 0.1002 0.37611 0.0
H3267 H 0.87806 0.14145 0.43507 0.0
H3268 H 0.82832 0.14479 0.39852 0.0
H3269 H 0.85544 0.0966 0.41999 0.0
C3270 C 0.84154 0.083 0.40161 0.0
C3271 C 0.8297 0.08386 0.3887 0.0
C3272 C 0.83906 0.14407 0.40677 0.0
C3273 C 0.83816 0.1127 0.40639 0.0
C3274 C 0.84796 0.15864 0.4103 0.0
C3275 C 0.86249 0.15788 0.4201 0.0
C3276 C 0.84488 0.12865 0.41294 0.0
C3277 C 0.86707 0.14251 0.42722 0.0
C3278 C 0.84574 0.09737 0.41056 0.0
C3279 C 0.82146 0.09909 0.38581 0.0
N3280 N 0.85845 0.12842 0.42325 0.0
N3281 N 0.82605 0.113 0.3944 0.0
H3282 H 0.64029 0.05572 0.13014 0.0
H3283 H 0.57213 0.10254 0.15218 0.0
H3284 H 0.66752 0.09817 0.14955 0.0
H3285 H 0.60405 0.12719 0.18812 0.0
H3286 H 0.59501 0.0836 0.1453 0.0
H3287 H 0.6159 0.06425 0.14648 0.0
C3288 C 0.64121 0.0667 0.13805 0.0
C3289 C 0.65576 0.07655 0.13814 0.0
C3290 C 0.59691 0.09272 0.15513 0.0
C3291 C 0.6278 0.08668 0.15636 0.0
C3292 C 0.58384 0.10366 0.15894 0.0
C3293 C 0.58631 0.1166 0.17052 0.0
C3294 C 0.61257 0.09486 0.1629 0.0
C3295 C 0.60169 0.11749 0.17895 0.0
C3296 C 0.62721 0.07167 0.14722 0.0
C3297 C 0.65642 0.09043 0.14886 0.0
N3298 N 0.61437 0.10701 0.17471 0.0
N3299 N 0.64251 0.09524 0.15734 0.0
H3300 H 0.62489 0.85054 0.93356 0.0
H3301 H 0.68729 0.89169 0.86848 0.0
H3302 H 0.65483 0.82246 0.89843 0.0
H3303 H 0.65639 0.91975 0.90279 0.0
H3304 H 0.68055 0.8661 0.88377 0.0
H3305 H 0.64117 0.87555 0.92704 0.0
C3306 C 0.63507 0.8496 0.92465 0.0
C3307 C 0.6383 0.83455 0.91621 0.0
C3308 C 0.67546 0.87788 0.88813 0.0
C3309 C 0.65684 0.86309 0.90858 0.0
C3310 C 0.67929 0.89249 0.87941 0.0
C3311 C 0.67205 0.90775 0.88418 0.0
C3312 C 0.66418 0.87858 0.9016 0.0
C3313 C 0.66199 0.90816 0.89854 0.0
C3314 C 0.64437 0.86387 0.92094 0.0
C3315 C 0.65177 0.83392 0.905 0.0
N3316 N 0.65811 0.89372 0.90659 0.0
N3317 N 0.66038 0.84809 0.90128 0.0
H3318 H 0.82258 0.09979 0.83973 0.0
H3319 H 0.89573 0.12423 0.80156 0.0
H3320 H 0.85252 0.06432 0.86739 0.0
H3321 H 0.91882 0.10173 0.84492 0.0
H3322 H 0.87012 0.10864 0.80745 0.0
H3323 H 0.84725 0.10772 0.82373 0.0
C3324 C 0.83429 0.09337 0.84212 0.0
C3325 C 0.83561 0.08161 0.85507 0.0
C3326 C 0.88074 0.10713 0.81572 0.0
C3327 C 0.86393 0.09037 0.83665 0.0
C3328 C 0.89543 0.11589 0.81225 0.0
C3329 C 0.90923 0.11458 0.82304 0.0
C3330 C 0.87985 0.09719 0.8302 0.0
C3331 C 0.90834 0.10335 0.83648 0.0
C3332 C 0.84841 0.09779 0.83286 0.0
C3333 C 0.85103 0.07363 0.85765 0.0
N3334 N 0.89379 0.09526 0.83981 0.0
N3335 N 0.86467 0.07838 0.84873 0.0
H3336 H 0.6179 0.14406 0.55578 0.0
H3337 H 0.64199 0.07207 0.59608 0.0
H3338 H 0.64574 0.16865 0.59501 0.0
H3339 H 0.68139 0.10136 0.61864 0.0
H3340 H 0.63367 0.09632 0.57972 0.0
H3341 H 0.63252 0.11801 0.56211 0.0
C3342 C 0.62718 0.14398 0.56567 0.0
C3343 C 0.63032 0.15837 0.57521 0.0
C3344 C 0.64448 0.09742 0.58779 0.0
C3345 C 0.64659 0.12852 0.58298 0.0
C3346 C 0.64912 0.08355 0.59729 0.0
C3347 C 0.66222 0.08482 0.60887 0.0
C3348 C 0.65304 0.11266 0.58993 0.0
C3349 C 0.67109 0.09993 0.60996 0.0
C3350 C 0.6354 0.12904 0.56941 0.0
C3351 C 0.64273 0.15773 0.58758 0.0
N3352 N 0.66614 0.11336 0.6008 0.0
N3353 N 0.65024 0.14295 0.59128 0.0
H3354 H 0.67114 0.8996 0.33885 0.0
H3355 H 0.57219 0.90012 0.34399 0.0
H3356 H 0.64271 0.92706 0.37569 0.0
H3357 H 0.60041 0.87227 0.30728 0.0
H3358 H 0.59756 0.91541 0.35144 0.0
H3359 H 0.64537 0.89465 0.32314 0.0
C3360 C 0.6595 0.90478 0.3435 0.0
C3361 C 0.65894 0.91341 0.35876 0.0
C3362 C 0.59816 0.90617 0.34154 0.0
C3363 C 0.62948 0.90775 0.34096 0.0
C3364 C 0.58367 0.89745 0.33728 0.0
C3365 C 0.58434 0.88465 0.3253 0.0
C3366 C 0.61341 0.90187 0.3339 0.0
C3367 C 0.59944 0.88186 0.31681 0.0
C3368 C 0.6448 0.90198 0.33452 0.0
C3369 C 0.64361 0.92007 0.36412 0.0
N3370 N 0.61349 0.89018 0.32151 0.0
N3371 N 0.62943 0.91687 0.35536 0.0
H3372 H 0.87142 0.85253 0.06019 0.0
H3373 H 0.80841 0.88936 0.12848 0.0
H3374 H 0.84525 0.82205 0.09634 0.0
H3375 H 0.84469 0.91896 0.10151 0.0
H3376 H 0.81673 0.86481 0.11211 0.0
H3377 H 0.85636 0.8771 0.07044 0.0
C3378 C 0.86231 0.85097 0.07011 0.0
C3379 C 0.85974 0.83532 0.07763 0.0
C3380 C 0.82272 0.87673 0.10967 0.0
C3381 C 0.84259 0.86331 0.08942 0.0
C3382 C 0.81798 0.89072 0.11898 0.0
C3383 C 0.82607 0.9061 0.11648 0.0
C3384 C 0.83555 0.87823 0.09776 0.0
C3385 C 0.83831 0.90725 0.10396 0.0
C3386 C 0.85377 0.865 0.07598 0.0
C3387 C 0.84772 0.83396 0.09035 0.0
N3388 N 0.84277 0.89345 0.09513 0.0
N3389 N 0.8397 0.84784 0.09599 0.0
H3390 H 0.93739 0.61918 0.84713 0.0
H3391 H 0.89791 0.64911 0.91741 0.0
H3392 H 0.89452 0.64006 0.82169 0.0
H3393 H 0.87153 0.68295 0.88457 0.0
H3394 H 0.91429 0.63927 0.89374 0.0
H3395 H 0.93116 0.63671 0.87138 0.0
C3396 C 0.92672 0.62755 0.84663 0.0
C3397 C 0.91618 0.62788 0.8326 0.0
C3398 C 0.90537 0.64925 0.8917 0.0
C3399 C 0.90865 0.64753 0.86041 0.0
C3400 C 0.89589 0.65478 0.90526 0.0
C3401 C 0.88319 0.66664 0.90286 0.0
C3402 C 0.90203 0.65563 0.87564 0.0
C3403 C 0.88109 0.67362 0.8869 0.0
C3404 C 0.92307 0.63744 0.86054 0.0
C3405 C 0.90277 0.63918 0.83241 0.0
N3406 N 0.89019 0.66776 0.87381 0.0
N3407 N 0.89926 0.64841 0.84622 0.0
H3408 H 0.36247 0.81118 0.10057 0.0
H3409 H 0.43092 0.86718 0.14583 0.0
H3410 H 0.39765 0.84312 0.0748 0.0
H3411 H 0.38966 0.8428 0.17078 0.0
H3412 H 0.42432 0.85157 0.12035 0.0
H3413 H 0.37778 0.81581 0.12659 0.0
C3414 C 0.37357 0.81898 0.10035 0.0
C3415 C 0.37859 0.82715 0.08566 0.0
C3416 C 0.41691 0.84941 0.1315 0.0
C3417 C 0.39606 0.83254 0.11531 0.0
C3418 C 0.42068 0.85829 0.14603 0.0
C3419 C 0.41053 0.85655 0.16024 0.0
C3420 C 0.4029 0.8388 0.13127 0.0
C3421 C 0.39756 0.84474 0.15995 0.0
C3422 C 0.38231 0.82159 0.11519 0.0
C3423 C 0.3932 0.83686 0.08597 0.0
N3424 N 0.39395 0.83649 0.14558 0.0
N3425 N 0.40129 0.83953 0.10066 0.0
H3426 H 0.09295 0.15708 0.57442 0.0
H3427 H 0.09816 0.15299 0.67314 0.0
H3428 H 0.12823 0.18536 0.60399 0.0
H3429 H 0.06314 0.12467 0.64329 0.0
H3430 H 0.1048 0.17004 0.64863 0.0
H3431 H 0.07744 0.15037 0.59985 0.0
C3432 C 0.09727 0.1621 0.58625 0.0
C3433 C 0.11209 0.17143 0.58721 0.0
C3434 C 0.09545 0.16028 0.64751 0.0
C3435 C 0.09458 0.16366 0.61633 0.0
C3436 C 0.09167 0.15056 0.66149 0.0
C3437 C 0.08041 0.13717 0.66008 0.0
C3438 C 0.088 0.15645 0.63204 0.0
C3439 C 0.07216 0.13468 0.64481 0.0
C3440 C 0.08841 0.15828 0.60077 0.0
C3441 C 0.117 0.17787 0.60277 0.0
N3442 N 0.07633 0.14405 0.63128 0.0
N3443 N 0.10844 0.17359 0.6168 0.0
H3444 H 0.12659 0.80855 0.89326 0.0
H3445 H 0.06144 0.8725 0.85355 0.0
H3446 H 0.09904 0.84564 0.9213 0.0
H3447 H 0.09628 0.84283 0.8248 0.0
H3448 H 0.06919 0.85679 0.87858 0.0
H3449 H 0.10984 0.81524 0.86855 0.0
C3450 C 0.11684 0.81793 0.89427 0.0
C3451 C 0.1144 0.82684 0.90919 0.0
C3452 C 0.07493 0.85353 0.86675 0.0
C3453 C 0.09527 0.83452 0.88108 0.0
C3454 C 0.0705 0.86246 0.85245 0.0
C3455 C 0.07855 0.85919 0.83721 0.0
C3456 C 0.08753 0.84132 0.86575 0.0
C3457 C 0.09001 0.84592 0.83641 0.0
C3458 C 0.10729 0.82173 0.88018 0.0
C3459 C 0.1015 0.8387 0.90992 0.0
N3460 N 0.09438 0.83762 0.85058 0.0
N3461 N 0.09254 0.84236 0.89597 0.0
H3462 H 0.55761 0.37342 0.34878 0.0
H3463 H 0.62187 0.31206 0.39331 0.0
H3464 H 0.59526 0.34446 0.323 0.0
H3465 H 0.58862 0.34554 0.41965 0.0
H3466 H 0.60697 0.31816 0.36735 0.0
H3467 H 0.5635 0.35769 0.37435 0.0
C3468 C 0.56689 0.36353 0.34843 0.0
C3469 C 0.57626 0.36046 0.33391 0.0
C3470 C 0.60276 0.32398 0.37885 0.0
C3471 C 0.58311 0.34258 0.36304 0.0
C3472 C 0.61127 0.32052 0.39366 0.0
C3473 C 0.60668 0.32863 0.40852 0.0
C3474 C 0.5897 0.33575 0.37892 0.0
C3475 C 0.59271 0.33925 0.40836 0.0
C3476 C 0.57026 0.35458 0.36303 0.0
C3477 C 0.58798 0.34741 0.33405 0.0
N3478 N 0.58486 0.34273 0.3937 0.0
N3479 N 0.59127 0.33911 0.34849 0.0
H3480 H 0.87791 0.30825 0.60123 0.0
H3481 H 0.89669 0.34876 0.67461 0.0
H3482 H 0.89852 0.35294 0.57888 0.0
H3483 H 0.93469 0.37531 0.64686 0.0
H3484 H 0.89012 0.33259 0.64966 0.0
H3485 H 0.89232 0.31501 0.62732 0.0
C3486 C 0.88558 0.31943 0.60179 0.0
C3487 C 0.88671 0.3303 0.58805 0.0
C3488 C 0.90031 0.3415 0.6491 0.0
C3489 C 0.90279 0.33834 0.61792 0.0
C3490 C 0.90395 0.35086 0.66335 0.0
C3491 C 0.91609 0.3635 0.6627 0.0
C3492 C 0.90879 0.34495 0.63408 0.0
C3493 C 0.92514 0.36573 0.64783 0.0
C3494 C 0.89367 0.32335 0.61674 0.0
C3495 C 0.89707 0.3444 0.5893 0.0
N3496 N 0.92105 0.35679 0.63397 0.0
N3497 N 0.90457 0.34813 0.60409 0.0
H3498 H 0.59242 0.65172 0.07522 0.0
H3499 H 0.59394 0.64819 0.1738 0.0
H3500 H 0.6207 0.68619 0.10574 0.0
H3501 H 0.55912 0.61996 0.14364 0.0
H3502 H 0.60102 0.66505 0.1493 0.0
H3503 H 0.57692 0.64293 0.10004 0.0
C3504 C 0.59514 0.65766 0.0871 0.0
C3505 C 0.60806 0.66944 0.08854 0.0
C3506 C 0.59164 0.65535 0.14808 0.0
C3507 C 0.59063 0.65928 0.11698 0.0
C3508 C 0.58765 0.64569 0.16205 0.0
C3509 C 0.57618 0.63249 0.16062 0.0
C3510 C 0.58426 0.65159 0.13256 0.0
C3511 C 0.56821 0.62989 0.1452 0.0
C3512 C 0.5863 0.65264 0.10128 0.0
C3513 C 0.61097 0.67689 0.10416 0.0
N3514 N 0.5726 0.63919 0.13168 0.0
N3515 N 0.60254 0.67145 0.11786 0.0
H3516 H 0.66872 0.59564 0.84816 0.0
H3517 H 0.57026 0.59098 0.84823 0.0
H3518 H 0.64049 0.56119 0.87875 0.0
H3519 H 0.5987 0.61997 0.81259 0.0
H3520 H 0.59577 0.57606 0.85599 0.0
H3521 H 0.64357 0.60113 0.83168 0.0
C3522 C 0.65727 0.58908 0.85126 0.0
C3523 C 0.65655 0.57823 0.86502 0.0
C3524 C 0.5964 0.58545 0.84624 0.0
C3525 C 0.62775 0.5845 0.84636 0.0
C3526 C 0.58182 0.59395 0.8418 0.0
C3527 C 0.5825 0.60696 0.83004 0.0
C3528 C 0.61173 0.59021 0.83904 0.0
C3529 C 0.59772 0.61019 0.82192 0.0
C3530 C 0.64292 0.59216 0.84182 0.0
C3531 C 0.64149 0.56986 0.86838 0.0
N3532 N 0.61183 0.6021 0.82683 0.0
N3533 N 0.62759 0.57338 0.85928 0.0
H3534 H 0.64512 0.42552 0.09609 0.0
H3535 H 0.62359 0.35306 0.05525 0.0
H3536 H 0.68519 0.3973 0.11885 0.0
H3537 H 0.64909 0.32968 0.09677 0.0
H3538 H 0.63812 0.37926 0.06146 0.0
H3539 H 0.63768 0.4011 0.07951 0.0
C3540 C 0.65261 0.41427 0.09727 0.0
C3541 C 0.6656 0.4133 0.10901 0.0
C3542 C 0.64051 0.36842 0.06924 0.0
C3543 C 0.65736 0.38531 0.08993 0.0
C3544 C 0.63234 0.35344 0.06561 0.0
C3545 C 0.63483 0.33937 0.07581 0.0
C3546 C 0.65106 0.36929 0.08327 0.0
C3547 C 0.64655 0.34036 0.08882 0.0
C3548 C 0.64848 0.40033 0.08766 0.0
C3549 C 0.67497 0.39849 0.11003 0.0
N3550 N 0.65409 0.35517 0.09232 0.0
N3551 N 0.67043 0.38493 0.10086 0.0
H3552 H 0.81907 0.40148 0.3497 0.0
H3553 H 0.88979 0.37806 0.30722 0.0
H3554 H 0.85026 0.43631 0.37678 0.0
H3555 H 0.91519 0.39871 0.35019 0.0
H3556 H 0.8648 0.39397 0.31469 0.0
H3557 H 0.84289 0.39406 0.3323 0.0
C3558 C 0.83087 0.40786 0.35169 0.0
C3559 C 0.8328 0.41931 0.36484 0.0
C3560 C 0.8758 0.39501 0.32253 0.0
C3561 C 0.86017 0.41111 0.34481 0.0
C3562 C 0.89013 0.38607 0.31815 0.0
C3563 C 0.90438 0.38673 0.32839 0.0
C3564 C 0.87572 0.40445 0.33737 0.0
C3565 C 0.90433 0.39759 0.34216 0.0
C3566 C 0.8445 0.40375 0.34162 0.0
C3567 C 0.84831 0.42726 0.36687 0.0
N3568 N 0.8901 0.40583 0.3464 0.0
N3569 N 0.8615 0.42277 0.35717 0.0
H3570 H 0.87286 0.64953 0.55508 0.0
H3571 H 0.8517 0.57449 0.59085 0.0
H3572 H 0.85016 0.67061 0.59932 0.0
H3573 H 0.81488 0.60169 0.61954 0.0
H3574 H 0.85882 0.60014 0.57615 0.0
H3575 H 0.85815 0.62329 0.56034 0.0
C3576 C 0.86468 0.64864 0.56585 0.0
C3577 C 0.86305 0.66205 0.57705 0.0
C3578 C 0.84879 0.60051 0.58522 0.0
C3579 C 0.84675 0.63192 0.58355 0.0
C3580 C 0.84486 0.58583 0.59377 0.0
C3581 C 0.83287 0.58606 0.60656 0.0
C3582 C 0.84068 0.61553 0.58956 0.0
C3583 C 0.82433 0.60104 0.60985 0.0
C3584 C 0.85642 0.63359 0.56896 0.0
C3585 C 0.85198 0.66043 0.59056 0.0
N3586 N 0.82862 0.61527 0.6016 0.0
N3587 N 0.84444 0.64551 0.59359 0.0
H3588 H 0.60123 0.3755 0.69127 0.0
H3589 H 0.67488 0.39588 0.65342 0.0
H3590 H 0.57987 0.40248 0.64961 0.0
H3591 H 0.6483 0.43617 0.62914 0.0
H3592 H 0.65024 0.39014 0.6703 0.0
H3593 H 0.62758 0.39041 0.68705 0.0
C3594 C 0.60205 0.38471 0.68135 0.0
C3595 C 0.58857 0.38741 0.67042 0.0
C3596 C 0.64989 0.40066 0.66178 0.0
C3597 C 0.61875 0.40404 0.66515 0.0
C3598 C 0.66399 0.40384 0.65201 0.0
C3599 C 0.66346 0.41625 0.63963 0.0
C3600 C 0.63516 0.40993 0.65902 0.0
C3601 C 0.64911 0.42628 0.63837 0.0
C3602 C 0.61715 0.3931 0.67884 0.0
C3603 C 0.59012 0.39975 0.65806 0.0
N3604 N 0.63537 0.42264 0.64767 0.0
N3605 N 0.60506 0.40741 0.65558 0.0
H3606 H 0.8532 0.31975 0.89591 0.0
H3607 H 0.80903 0.3904 0.87269 0.0
H3608 H 0.87834 0.35136 0.93179 0.0
H3609 H 0.85097 0.41676 0.8943 0.0
H3610 H 0.81809 0.36491 0.88692 0.0
H3611 H 0.83653 0.34361 0.88695 0.0
C3612 C 0.85496 0.33168 0.90213 0.0
C3613 C 0.86725 0.33366 0.91449 0.0
C3614 C 0.8254 0.37621 0.88846 0.0
C3615 C 0.84799 0.36103 0.90456 0.0
C3616 C 0.82012 0.39081 0.88048 0.0
C3617 C 0.82949 0.40557 0.88206 0.0
C3618 C 0.84024 0.37642 0.8979 0.0
C3619 C 0.84355 0.40555 0.89254 0.0
C3620 C 0.84529 0.3453 0.89713 0.0
C3621 C 0.86905 0.34935 0.92214 0.0
N3622 N 0.8486 0.39112 0.89995 0.0
N3623 N 0.85968 0.36251 0.91686 0.0
H3624 H 0.92302 0.598 0.14317 0.0
H3625 H 0.82442 0.5905 0.15001 0.0
H3626 H 0.89329 0.62159 0.18163 0.0
H3627 H 0.8539 0.56788 0.11078 0.0
H3628 H 0.8501 0.59631 0.16552 0.0
H3629 H 0.89873 0.58127 0.13511 0.0
C3630 C 0.91146 0.59943 0.15011 0.0
C3631 C 0.90999 0.61146 0.1628 0.0
C3632 C 0.85095 0.58984 0.15364 0.0
C3633 C 0.88219 0.59255 0.15357 0.0
C3634 C 0.83629 0.58654 0.14478 0.0
C3635 C 0.83713 0.57907 0.12894 0.0
C3636 C 0.8665 0.58578 0.14649 0.0
C3637 C 0.85276 0.57394 0.12285 0.0
C3638 C 0.89759 0.58989 0.1455 0.0
C3639 C 0.89483 0.61267 0.17155 0.0
N3640 N 0.86689 0.57766 0.13151 0.0
N3641 N 0.88141 0.60354 0.16657 0.0
H3642 H 0.65273 0.67408 0.39907 0.0
H3643 H 0.68995 0.60136 0.37319 0.0
H3644 H 0.62656 0.64431 0.43576 0.0
H3645 H 0.6485 0.57793 0.39871 0.0
H3646 H 0.68503 0.6269 0.38919 0.0
H3647 H 0.66914 0.64969 0.39134 0.0
C3648 C 0.6508 0.66249 0.40584 0.0
C3649 C 0.63806 0.6611 0.41782 0.0
C3650 C 0.67694 0.61624 0.39128 0.0
C3651 C 0.65692 0.633 0.4092 0.0
C3652 C 0.67986 0.60159 0.38225 0.0
C3653 C 0.6693 0.58771 0.38432 0.0
C3654 C 0.66317 0.61705 0.4022 0.0
C3655 C 0.65671 0.58848 0.3965 0.0
C3656 C 0.66029 0.64849 0.40151 0.0
C3657 C 0.63611 0.64583 0.42626 0.0
N3658 N 0.65383 0.60302 0.40479 0.0
N3659 N 0.64519 0.63227 0.42154 0.0
H3660 H 0.55706 0.87328 0.64383 0.0
H3661 H 0.59868 0.84826 0.57288 0.0
H3662 H 0.59854 0.84961 0.66914 0.0
H3663 H 0.62185 0.81018 0.60344 0.0
H3664 H 0.5822 0.85714 0.59688 0.0
H3665 H 0.56398 0.85766 0.61851 0.0
C3666 C 0.56757 0.8647 0.64407 0.0
C3667 C 0.57752 0.86302 0.65844 0.0
C3668 C 0.59042 0.84647 0.59828 0.0
C3669 C 0.58584 0.84557 0.62942 0.0
C3670 C 0.59997 0.8415 0.58457 0.0
C3671 C 0.61176 0.82862 0.58627 0.0
C3672 C 0.59278 0.83853 0.61382 0.0
C3673 C 0.61296 0.82027 0.60166 0.0
C3674 C 0.57162 0.85591 0.62956 0.0
C3675 C 0.59074 0.85149 0.65822 0.0
N3676 N 0.60382 0.82559 0.61495 0.0
N3677 N 0.59466 0.84335 0.64383 0.0
H3678 H 0.35299 0.43483 0.11687 0.0
H3679 H 0.39426 0.37071 0.18118 0.0
H3680 H 0.32536 0.39795 0.1451 0.0
H3681 H 0.42158 0.39731 0.14289 0.0
H3682 H 0.36927 0.38697 0.1742 0.0
H3683 H 0.37822 0.42749 0.13259 0.0
C3684 C 0.35216 0.42542 0.12661 0.0
C3685 C 0.33719 0.41671 0.12948 0.0
C3686 C 0.38082 0.38944 0.16753 0.0
C3687 C 0.36591 0.40828 0.1474 0.0
C3688 C 0.39508 0.3802 0.17152 0.0
C3689 C 0.40987 0.38246 0.16234 0.0
C3690 C 0.38143 0.40101 0.15433 0.0
C3691 C 0.41031 0.395 0.15006 0.0
C3692 C 0.36656 0.42123 0.13553 0.0
C3693 C 0.33675 0.40475 0.14232 0.0
N3694 N 0.39621 0.40368 0.14626 0.0
N3695 N 0.35098 0.40072 0.15068 0.0
H3696 H 0.37063 0.64193 0.94071 0.0
H3697 H 0.34777 0.57 0.89934 0.0
H3698 H 0.34967 0.66603 0.89711 0.0
H3699 H 0.30995 0.59983 0.87483 0.0
H3700 H 0.35626 0.59445 0.9154 0.0
H3701 H 0.35533 0.61643 0.93363 0.0
C3702 C 0.36272 0.64187 0.92969 0.0
C3703 C 0.36171 0.65593 0.91922 0.0
C3704 C 0.34573 0.59559 0.90695 0.0
C3705 C 0.34459 0.62676 0.91083 0.0
C3706 C 0.341 0.58163 0.89764 0.0
C3707 C 0.3283 0.58299 0.88564 0.0
C3708 C 0.33775 0.61101 0.9041 0.0
C3709 C 0.3199 0.59831 0.88391 0.0
C3710 C 0.35412 0.62726 0.92558 0.0
C3711 C 0.35103 0.65533 0.90532 0.0
N3712 N 0.32501 0.61185 0.89281 0.0
N3713 N 0.34301 0.64088 0.90141 0.0
H3714 H 0.14151 0.56366 0.61733 0.0
H3715 H 0.10616 0.63486 0.67793 0.0
H3716 H 0.1711 0.60549 0.63455 0.0
H3717 H 0.07504 0.60281 0.64753 0.0
H3718 H 0.13094 0.62002 0.66765 0.0
H3719 H 0.11804 0.57371 0.63414 0.0
C3720 C 0.14314 0.57484 0.62484 0.0
C3721 C 0.15816 0.58392 0.62439 0.0
C3722 C 0.11866 0.61614 0.66339 0.0
C3723 C 0.13141 0.59545 0.64356 0.0
C3724 C 0.10454 0.62455 0.66927 0.0
C3725 C 0.08859 0.62014 0.66338 0.0
C3726 C 0.11674 0.60317 0.65171 0.0
C3727 C 0.08715 0.6067 0.65221 0.0
C3728 C 0.12973 0.58058 0.63437 0.0
C3729 C 0.15965 0.59824 0.63443 0.0
N3730 N 0.10108 0.59873 0.64665 0.0
N3731 N 0.14635 0.60367 0.64353 0.0
H3732 H 0.18488 0.39597 0.37655 0.0
H3733 H 0.14422 0.32254 0.39366 0.0
H3734 H 0.14065 0.41844 0.39798 0.0
H3735 H 0.11673 0.34972 0.4314 0.0
H3736 H 0.16057 0.3476 0.38793 0.0
H3737 H 0.17806 0.36973 0.39064 0.0
C3738 C 0.17383 0.39542 0.3844 0.0
C3739 C 0.16303 0.40921 0.38575 0.0
C3740 C 0.15138 0.34802 0.39787 0.0
C3741 C 0.15482 0.37913 0.40133 0.0
C3742 C 0.14189 0.33372 0.40099 0.0
C3743 C 0.12898 0.33417 0.41284 0.0
C3744 C 0.14783 0.36288 0.40663 0.0
C3745 C 0.12648 0.34892 0.42203 0.0
C3746 C 0.16984 0.38037 0.39227 0.0
C3747 C 0.14913 0.40798 0.39636 0.0
N3748 N 0.13562 0.36281 0.41851 0.0
N3749 N 0.14526 0.39307 0.40354 0.0
H3750 H 0.34807 0.55284 0.36523 0.0
H3751 H 0.41969 0.59462 0.34418 0.0
H3752 H 0.32373 0.59649 0.34467 0.0
H3753 H 0.38964 0.62329 0.30962 0.0
H3754 H 0.39557 0.57712 0.35027 0.0
H3755 H 0.37337 0.55997 0.34967 0.0
C3756 C 0.34801 0.56383 0.35728 0.0
C3757 C 0.334 0.57439 0.35661 0.0
C3758 C 0.39428 0.58682 0.34092 0.0
C3759 C 0.36303 0.58301 0.33935 0.0
C3760 C 0.40808 0.59696 0.33758 0.0
C3761 C 0.40653 0.61058 0.32664 0.0
C3762 C 0.37882 0.59043 0.33327 0.0
C3763 C 0.39127 0.61303 0.31834 0.0
C3764 C 0.36253 0.56802 0.34855 0.0
C3765 C 0.33441 0.58823 0.34583 0.0
N3766 N 0.3779 0.60325 0.32208 0.0
N3767 N 0.34882 0.5923 0.33783 0.0
H3768 H 0.15059 0.57072 0.09648 0.0
H3769 H 0.15697 0.66963 0.09402 0.0
H3770 H 0.18681 0.59937 0.12454 0.0
H3771 H 0.12152 0.64085 0.06512 0.0
H3772 H 0.17196 0.64382 0.10073 0.0
H3773 H 0.14385 0.59574 0.08026 0.0
C3774 C 0.15732 0.58222 0.09902 0.0
C3775 C 0.16898 0.58312 0.11209 0.0
C3776 C 0.16105 0.64317 0.0927 0.0
C3777 C 0.16123 0.61178 0.09379 0.0
C3778 C 0.15249 0.6579 0.0889 0.0
C3779 C 0.1378 0.65728 0.07933 0.0
C3780 C 0.15474 0.62775 0.08702 0.0
C3781 C 0.13265 0.64182 0.07279 0.0
C3782 C 0.15347 0.59651 0.08977 0.0
C3783 C 0.17752 0.59823 0.11474 0.0
N3784 N 0.14097 0.62761 0.07699 0.0
N3785 N 0.17325 0.61207 0.10586 0.0
H3786 H 0.17448 0.3926 0.8491 0.0
H3787 H 0.10352 0.37097 0.8059 0.0
H3788 H 0.14644 0.43461 0.86831 0.0
H3789 H 0.0794 0.39758 0.84625 0.0
H3790 H 0.12955 0.38589 0.81201 0.0
H3791 H 0.15078 0.3853 0.83134 0.0
C3792 C 0.16351 0.40058 0.84919 0.0
C3793 C 0.16229 0.41404 0.86037 0.0
C3794 C 0.11855 0.38851 0.81948 0.0
C3795 C 0.13511 0.40586 0.84005 0.0
C3796 C 0.10364 0.38013 0.81589 0.0
C3797 C 0.08944 0.38276 0.82589 0.0
C3798 C 0.11918 0.39949 0.8332 0.0
C3799 C 0.09018 0.39494 0.83848 0.0
C3800 C 0.14998 0.39648 0.83894 0.0
C3801 C 0.14781 0.42399 0.85999 0.0
N3802 N 0.10489 0.40271 0.84192 0.0
N3803 N 0.13462 0.41945 0.85031 0.0
H3804 H 0.35188 0.42224 0.59192 0.0
H3805 H 0.3475 0.32429 0.59477 0.0
H3806 H 0.3113 0.39537 0.6154 0.0
H3807 H 0.37841 0.35078 0.55926 0.0
H3808 H 0.33203 0.3501 0.6001 0.0
H3809 H 0.36002 0.39654 0.57739 0.0
C3810 C 0.34454 0.41099 0.59381 0.0
C3811 C 0.33112 0.4108 0.6051 0.0
C3812 C 0.34198 0.35022 0.59089 0.0
C3813 C 0.34038 0.38142 0.58871 0.0
C3814 C 0.35082 0.3355 0.58789 0.0
C3815 C 0.36438 0.33554 0.57678 0.0
C3816 C 0.34701 0.36512 0.583 0.0
C3817 C 0.3681 0.35031 0.56804 0.0
C3818 C 0.34914 0.39634 0.58548 0.0
C3819 C 0.3219 0.39598 0.60698 0.0
N3820 N 0.35967 0.36464 0.5716 0.0
N3821 N 0.32688 0.38179 0.5991 0.0
H3822 H 0.43972 0.12167 0.35034 0.0
H3823 H 0.39817 0.14313 0.42281 0.0
H3824 H 0.39715 0.1451 0.32668 0.0
H3825 H 0.3741 0.1818 0.39372 0.0
H3826 H 0.41476 0.13548 0.39841 0.0
H3827 H 0.43278 0.13607 0.37641 0.0
C3828 C 0.42899 0.12996 0.35061 0.0
C3829 C 0.41874 0.13192 0.33648 0.0
C3830 C 0.4063 0.14601 0.39745 0.0
C3831 C 0.41048 0.14803 0.36629 0.0
C3832 C 0.39671 0.15029 0.41139 0.0
C3833 C 0.38461 0.16294 0.41018 0.0
C3834 C 0.40365 0.15443 0.38221 0.0
C3835 C 0.3832 0.17184 0.39512 0.0
C3836 C 0.42494 0.13805 0.36554 0.0
C3837 C 0.40519 0.14301 0.3374 0.0
N3838 N 0.39237 0.16718 0.38161 0.0
N3839 N 0.40134 0.15052 0.35213 0.0
H3840 H 0.03206 0.10782 0.27624 0.0
H3841 H 0.95392 0.13515 0.22228 0.0
H3842 H 0.01665 0.1593 0.27056 0.0
H3843 H 0.97572 0.08581 0.2192 0.0
H3844 H 0.97831 0.14473 0.23789 0.0
H3845 H 0.01346 0.09996 0.25332 0.0
C3846 C 0.02494 0.11752 0.26997 0.0
C3847 C 0.02568 0.1342 0.27542 0.0
C3848 C 0.97791 0.13186 0.23364 0.0
C3849 C 0.00421 0.12527 0.24936 0.0
C3850 C 0.96395 0.12636 0.22479 0.0
C3851 C 0.96274 0.1096 0.21968 0.0
C3852 C 0.99065 0.12045 0.23767 0.0
C3853 C 0.97615 0.0988 0.22305 0.0
C3854 C 0.01433 0.11302 0.25687 0.0
C3855 C 0.01634 0.14628 0.26679 0.0
N3856 N 0.98947 0.10435 0.23208 0.0
N3857 N 0.00575 0.14153 0.25435 0.0
H3858 H 0.11039 0.71651 0.46128 0.0
H3859 H 0.09177 0.78085 0.51718 0.0
H3860 H 0.15995 0.71765 0.48274 0.0
H3861 H 0.13221 0.75925 0.5458 0.0
H3862 H 0.10049 0.76418 0.49298 0.0
H3863 H 0.10175 0.73846 0.48061 0.0
C3864 C 0.11955 0.72166 0.46985 0.0
C3865 C 0.13588 0.71523 0.4705 0.0
C3866 C 0.10734 0.76295 0.5046 0.0
C3867 C 0.12615 0.74049 0.49258 0.0
C3868 C 0.10244 0.77254 0.51837 0.0
C3869 C 0.11113 0.7712 0.53356 0.0
C3870 C 0.12103 0.75197 0.50612 0.0
C3871 C 0.12501 0.76048 0.53439 0.0
C3872 C 0.11464 0.73431 0.48081 0.0
C3873 C 0.14724 0.72228 0.48185 0.0
N3874 N 0.12951 0.75126 0.52086 0.0
N3875 N 0.14208 0.73436 0.49265 0.0
H3876 H 0.51623 0.90546 0.71842 0.0
H3877 H 0.47374 0.82866 0.76676 0.0
H3878 H 0.53548 0.85496 0.71799 0.0
H3879 H 0.46448 0.88065 0.77823 0.0
H3880 H 0.49116 0.83742 0.74302 0.0
H3881 H 0.49204 0.89568 0.7346 0.0
C3882 C 0.51522 0.89229 0.72151 0.0
C3883 C 0.52795 0.88104 0.71714 0.0
C3884 C 0.48509 0.84688 0.7506 0.0
C3885 C 0.50045 0.8698 0.7355 0.0
C3886 C 0.47512 0.84189 0.76408 0.0
C3887 C 0.46794 0.85397 0.77457 0.0
C3888 C 0.48772 0.86404 0.74762 0.0
C3889 C 0.47005 0.87095 0.77057 0.0
C3890 C 0.50146 0.88672 0.73075 0.0
C3891 C 0.52603 0.86408 0.72136 0.0
N3892 N 0.47987 0.87549 0.75749 0.0
N3893 N 0.51261 0.859 0.73043 0.0
H3894 H 0.33701 0.264 0.97176 0.0
H3895 H 0.41524 0.2224 0.01824 0.0
H3896 H 0.38811 0.28047 0.96567 0.0
H3897 H 0.3638 0.20853 0.02721 0.0
H3898 H 0.40603 0.24006 0.99493 0.0
H3899 H 0.34705 0.24012 0.98817 0.0
C3900 C 0.35035 0.26246 0.97369 0.0
C3901 C 0.36173 0.27433 0.96757 0.0
C3902 C 0.39678 0.23296 0.00185 0.0
C3903 C 0.3733 0.24716 0.98635 0.0
C3904 C 0.40205 0.22284 0.01511 0.0
C3905 C 0.39024 0.21421 0.02479 0.0
C3906 C 0.37959 0.23446 -0.00166 0.0
C3907 C 0.37331 0.21516 0.02018 0.0
C3908 C 0.35608 0.24886 0.98307 0.0
C3909 C 0.37889 0.27171 0.97035 0.0
N3910 N 0.36847 0.22528 0.00742 0.0
N3911 N 0.38414 0.2585 0.97968 0.0
H3912 H 0.95016 0.85802 0.26766 0.0
H3913 H 0.01918 0.83588 0.21973 0.0
H3914 H 0.97023 0.90818 0.26667 0.0
H3915 H 0.01521 0.88686 0.20222 0.0
H3916 H 0.00067 0.84293 0.2432 0.0
H3917 H 0.97287 0.8488 0.24951 0.0
C3918 C 0.9595 0.86706 0.26376 0.0
C3919 C 0.95831 0.88391 0.26857 0.0
C3920 C 0.00381 0.85253 0.23417 0.0
C3921 C 0.98449 0.87338 0.248 0.0
C3922 C 0.01447 0.84855 0.22089 0.0
C3923 C 0.01844 0.86073 0.20891 0.0
C3924 C -0.0028 0.86881 0.23541 0.0
C3925 C 0.0122 0.87702 0.21105 0.0
C3926 C 0.97258 0.86173 0.25356 0.0
C3927 C 0.97073 0.89508 0.26321 0.0
N3928 N 0.00184 0.88058 0.22402 0.0
N3929 N 0.98319 0.88966 0.25296 0.0
H3930 H 0.41304 0.76797 0.47285 0.0
H3931 H 0.34128 0.72123 0.52455 0.0
H3932 H 0.36032 0.77891 0.46822 0.0
H3933 H 0.39268 0.70473 0.52214 0.0
H3934 H 0.34901 0.74646 0.50894 0.0
H3935 H 0.4067 0.74899 0.49607 0.0
C3936 C 0.40017 0.76661 0.47693 0.0
C3937 C 0.38715 0.77477 0.46847 0.0
C3938 C 0.35863 0.73741 0.51201 0.0
C3939 C 0.3798 0.75308 0.49483 0.0
C3940 C 0.35422 0.72303 0.52093 0.0
C3941 C 0.36631 0.71079 0.52438 0.0
C3942 C 0.37524 0.7395 0.50658 0.0
C3943 C 0.38292 0.71377 0.51951 0.0
C3944 C 0.39655 0.75574 0.49012 0.0
C3945 C 0.37071 0.77265 0.47427 0.0
N3946 N 0.38687 0.72775 0.51071 0.0
N3947 N 0.36748 0.76185 0.48698 0.0
H3948 H 0.46923 0.15696 0.73129 0.0
H3949 H 0.52082 0.08109 0.77157 0.0
H3950 H 0.46576 0.10596 0.71371 0.0
H3951 H 0.5334 0.13336 0.7769 0.0
H3952 H 0.49551 0.08923 0.75597 0.0
H3953 H 0.48734 0.14748 0.75407 0.0
C3954 C 0.47203 0.14373 0.73241 0.0
C3955 C 0.46627 0.13226 0.72046 0.0
C3956 C 0.50374 0.09887 0.76078 0.0
C3957 C 0.48702 0.12137 0.74633 0.0
C3958 C 0.51811 0.09424 0.76966 0.0
C3959 C 0.52927 0.10658 0.77522 0.0
C3960 C 0.50053 0.11593 0.75774 0.0
C3961 C 0.52524 0.12346 0.77254 0.0
C3962 C 0.48241 0.13833 0.74536 0.0
C3963 C 0.47017 0.11524 0.72255 0.0
N3964 N 0.51125 0.12763 0.76391 0.0
N3965 N 0.4805 0.11032 0.73513 0.0
H3966 H 0.08638 0.21556 0.97625 0.0
H3967 H 0.10507 0.27876 0.03191 0.0
H3968 H 0.13797 0.22112 0.96122 0.0
H3969 H 0.15707 0.2672 0.023 0.0
H3970 H 0.09702 0.25527 0.0145 0.0
H3971 H 0.09253 0.23104 0.00188 0.0
C3972 C 0.09901 0.22003 0.97839 0.0
C3973 C 0.11159 0.21745 0.96645 0.0
C3974 C 0.1102 0.25739 0.01668 0.0
C3975 C 0.11866 0.23566 0.99539 0.0
C3976 C 0.11481 0.27098 0.02657 0.0
C3977 C 0.13176 0.27506 0.02867 0.0
C3978 C 0.12266 0.24781 0.00878 0.0
C3979 C 0.14386 0.26455 0.02156 0.0
C3980 C 0.10251 0.22903 0.99296 0.0
C3981 C 0.12781 0.22314 0.96996 0.0
N3982 N 0.13906 0.25157 0.01167 0.0
N3983 N 0.13083 0.23215 0.98401 0.0
H3984 H 0.27628 0.03165 0.10779 0.0
H3985 H 0.21135 0.96426 0.1386 0.0
H3986 H 0.26535 0.02331 0.16 0.0
H3987 H 0.2142 0.98092 0.08732 0.0
H3988 H 0.22865 0.98797 0.14703 0.0
H3989 H 0.25143 0.0156 0.10024 0.0
C3990 C 0.26848 0.02661 0.11768 0.0
C3991 C 0.27297 0.02855 0.13453 0.0
C3992 C 0.22528 0.98664 0.13397 0.0
C3993 C 0.24464 0.00999 0.126 0.0
C3994 C 0.21544 0.97307 0.12914 0.0
C3995 C 0.21159 0.97052 0.11221 0.0
C3996 C 0.23156 -0.00244 0.12172 0.0
C3997 C 0.21702 0.98239 0.10049 0.0
C3998 C 0.25427 0.01749 0.11336 0.0
C3999 C 0.26236 0.02197 0.14685 0.0
N4000 N 0.22701 0.99526 0.10543 0.0
N4001 N 0.24882 0.0127 0.14233 0.0
H4002 H 0.22929 0.03036 0.41243 0.0
H4003 H 0.27246 0.97427 0.34153 0.0
H4004 H 0.21932 0.03583 0.35964 0.0
H4005 H 0.29468 0.98288 0.39001 0.0
H4006 H 0.24872 0.9919 0.34966 0.0
H4007 H 0.24917 0.00777 0.40595 0.0
C4008 C 0.2311 0.02662 0.39953 0.0
C4009 C 0.22286 0.03502 0.38652 0.0
C4010 C 0.25875 0.98982 0.35854 0.0
C4011 C 0.24532 0.00936 0.37907 0.0
C4012 C 0.27227 0.97977 0.35392 0.0
C4013 C 0.2856 0.97732 0.36506 0.0
C4014 C 0.25853 -0.00272 0.37445 0.0
C4015 C 0.28471 0.98464 0.38099 0.0
C4016 C 0.24246 0.01383 0.39584 0.0
C4017 C 0.22561 0.02976 0.37001 0.0
N4018 N 0.27141 0.99435 0.38522 0.0
N4019 N 0.23666 0.01729 0.36674 0.0
H4020 H 0.21658 0.96093 0.60429 0.0
H4021 H 0.28135 0.03005 0.63372 0.0
H4022 H 0.22655 0.97212 0.65616 0.0
H4023 H 0.27386 0.01596 0.58212 0.0
H4024 H 0.26472 0.00594 0.64245 0.0
H4025 H 0.24076 0.97771 0.59625 0.0
C4026 C 0.22404 0.96675 0.61401 0.0
C4027 C 0.21944 0.96539 0.63089 0.0
C4028 C 0.2669 0.00796 0.62923 0.0
C4029 C 0.247 0.98482 0.62178 0.0
C4030 C 0.27638 0.02173 0.62423 0.0
C4031 C 0.27873 0.02513 0.60716 0.0
C4032 C 0.25959 -0.00239 0.61706 0.0
C4033 C 0.27219 0.01387 0.59541 0.0
C4034 C 0.23786 0.97632 0.60941 0.0
C4035 C 0.22962 0.97298 0.643 0.0
N4036 N 0.26269 0.00074 0.60057 0.0
N4037 N 0.24279 0.98264 0.63818 0.0
H4038 H 0.22892 0.02693 0.83481 0.0
H4039 H 0.276 0.95671 0.85073 0.0
H4040 H 0.21756 0.02367 0.88752 0.0
H4041 H 0.27983 0.97411 0.9017 0.0
H4042 H 0.25972 0.98144 0.84371 0.0
H4043 H 0.25327 0.0089 0.83931 0.0
C4044 C 0.23165 0.02254 0.84735 0.0
C4045 C 0.22102 0.02643 0.86075 0.0
C4046 C 0.26451 0.98021 0.85632 0.0
C4047 C 0.24844 0.00544 0.86591 0.0
C4048 C 0.27364 0.96594 0.86039 0.0
C4049 C 0.2791 0.96333 0.87685 0.0
C4050 C 0.26069 0.99191 0.86886 0.0
C4051 C 0.27578 0.97567 0.88887 0.0
C4052 C 0.24544 0.0121 0.84989 0.0
C4053 C 0.22527 0.02067 0.87678 0.0
N4054 N 0.26648 0.98932 0.8847 0.0
N4055 N 0.23855 0.01029 0.87889 0.0
H4056 H 0.64246 0.27608 0.03124 0.0
H4057 H 0.65781 0.22195 0.96561 0.0
H4058 H 0.59027 0.27275 0.0177 0.0
H4059 H 0.60496 0.2113 0.96921 0.0
H4060 H 0.65357 0.24705 0.98255 0.0
H4061 H 0.64956 0.2585 0.00752 0.0
C4062 C 0.63251 0.2719 0.02302 0.0
C4063 C 0.61573 0.27569 0.02653 0.0
C4064 C 0.6429 0.2392 0.97978 0.0
C4065 C 0.62376 0.2557 -0.00099 0.0
C4066 C 0.64531 0.22496 0.96993 0.0
C4067 C 0.63178 0.21437 0.96635 0.0
C4068 C 0.62687 0.24266 0.98624 0.0
C4069 C 0.6158 0.21897 0.97195 0.0
C4070 C 0.63659 0.26194 0.0093 0.0
C4071 C 0.60336 0.27 0.01549 0.0
N4072 N 0.61382 0.23267 0.98178 0.0
N4073 N 0.60761 0.26007 0.00236 0.0
H4074 H 0.02348 0.35613 0.21334 0.0
H4075 H 0.96675 0.38989 0.2866 0.0
H4076 H 0.01884 0.4086 0.22536 0.0
H4077 H 0.96328 0.33934 0.26785 0.0
H4078 H 0.98343 0.39756 0.26225 0.0
H4079 H -0.0009 0.35022 0.23075 0.0
C4080 C 0.01713 0.36645 0.21944 0.0
C4081 C 0.02331 0.38284 0.21817 0.0
C4082 C 0.97885 0.38484 0.26329 0.0
C4083 C 0.99558 0.37615 0.23828 0.0
C4084 C 0.96939 0.38043 0.27724 0.0
C4085 C 0.96389 0.36389 0.27932 0.0
C4086 C 0.98309 0.37254 0.25148 0.0
C4087 C 0.96743 0.35219 0.26674 0.0
C4088 C 0.0032 0.36307 0.22936 0.0
C4089 C 0.01454 0.39577 0.22615 0.0
N4090 N 0.97707 0.35668 0.25346 0.0
N4091 N 0.00127 0.3921 0.23613 0.0
H4092 H 0.89224 0.78723 0.46871 0.0
H4093 H 0.90981 0.71938 0.51898 0.0
H4094 H 0.84047 0.77203 0.4713 0.0
H4095 H 0.85932 0.72731 0.53652 0.0
H4096 H 0.90349 0.73633 0.49426 0.0
H4097 H 0.89982 0.76383 0.48664 0.0
C4098 C 0.8825 0.77874 0.47285 0.0
C4099 C 0.8657 0.78159 0.46864 0.0
C4100 C 0.89382 0.73441 0.50355 0.0
C4101 C 0.8743 0.75456 0.48902 0.0
C4102 C 0.89738 0.72461 0.51757 0.0
C4103 C 0.88517 0.72227 0.52995 0.0
C4104 C 0.87798 0.74195 0.50202 0.0
C4105 C 0.86918 0.72908 0.52739 0.0
C4106 C 0.88686 0.76523 0.48294 0.0
C4107 C 0.85357 0.77023 0.47429 0.0
N4108 N 0.86608 0.73875 0.51377 0.0
N4109 N 0.85808 0.75735 0.48449 0.0
H4110 H 0.96442 0.6076 0.20867 0.0
H4111 H 0.02604 0.63871 0.27922 0.0
H4112 H 0.9668 0.65904 0.22499 0.0
H4113 H 0.01677 0.5865 0.26883 0.0
H4114 H 0.00177 0.64616 0.26221 0.0
H4115 H 0.98067 0.59929 0.23312 0.0
C4116 C 0.9682 0.61713 0.21756 0.0
C4117 C 0.96454 0.63406 0.21472 0.0
C4118 C 0.00485 0.63306 0.26386 0.0
C4119 C 0.98333 0.62469 0.24261 0.0
C4120 C 0.01872 0.6288 0.27354 0.0
C4121 C 0.02354 0.61198 0.27516 0.0
C4122 C 0.9959 0.62042 0.25555 0.0
C4123 C 0.01355 0.59963 0.26774 0.0
C4124 C 0.97745 0.61237 0.23154 0.0
C4125 C 0.96951 0.64587 0.2267 0.0
N4126 N 0.00035 0.60411 0.258 0.0
N4127 N 0.97895 0.64099 0.24 0.0
H4128 H 0.45245 0.35314 0.7661 0.0
H4129 H 0.52497 0.38854 0.70955 0.0
H4130 H 0.47068 0.4038 0.77063 0.0
H4131 H 0.51809 0.33555 0.71755 0.0
H4132 H 0.5058 0.39429 0.7326 0.0
H4133 H 0.4769 0.34613 0.74912 0.0
C4134 C 0.46171 0.36274 0.76365 0.0
C4135 C 0.45949 0.37912 0.76957 0.0
C4136 C 0.50864 0.3814 0.7295 0.0
C4137 C 0.48735 0.37124 0.75008 0.0
C4138 C 0.51952 0.37811 0.7163 0.0
C4139 C 0.52292 0.36155 0.71158 0.0
C4140 C 0.50085 0.36803 0.73782 0.0
C4141 C 0.5157 0.34849 0.7208 0.0
C4142 C 0.47569 0.35871 0.75402 0.0
C4143 C 0.4719 0.39105 0.7662 0.0
N4144 N 0.50475 0.35201 0.73335 0.0
N4145 N 0.4852 0.38694 0.75643 0.0
H4146 H 0.97188 0.8391 0.72538 0.0
H4147 H 0.02083 0.90943 0.77714 0.0
H4148 H 0.97027 0.89195 0.71417 0.0
H4149 H 0.0325 0.8567 0.77915 0.0
H4150 H 0.99655 0.90301 0.75952 0.0
H4151 H 0.98853 0.84532 0.75043 0.0
C4152 C 0.97482 0.85201 0.72834 0.0
C4153 C 0.97 0.86501 0.7176 0.0
C4154 C 0.00429 0.89283 0.76405 0.0
C4155 C 0.98886 0.8722 0.74608 0.0
C4156 C 0.01808 0.89649 0.77414 0.0
C4157 C 0.0288 0.8836 0.77931 0.0
C4158 C 0.00123 0.87618 0.75923 0.0
C4159 C 0.02467 0.86703 0.77516 0.0
C4160 C 0.98432 0.85555 0.74258 0.0
C4161 C 0.97401 0.88154 0.72201 0.0
N4162 N 0.01131 0.8638 0.7652 0.0
N4163 N 0.98334 0.88465 0.73584 0.0
H4164 H 0.84048 0.26771 0.53006 0.0
H4165 H 0.85736 0.21521 0.46376 0.0
H4166 H 0.89111 0.28475 0.52197 0.0
H4167 H 0.90967 0.22224 0.47523 0.0
H4168 H 0.84998 0.23252 0.48759 0.0
H4169 H 0.84659 0.24274 0.51349 0.0
C4170 C 0.85289 0.26615 0.52481 0.0
C4171 C 0.86519 0.27846 0.52704 0.0
C4172 C 0.86307 0.22991 0.48535 0.0
C4173 C 0.87215 0.25027 0.50762 0.0
C4174 C 0.8673 0.22012 0.47158 0.0
C4175 C 0.88415 0.21745 0.46745 0.0
C4176 C 0.87582 0.23719 0.49504 0.0
C4177 C 0.89652 0.22406 0.47798 0.0
C4178 C 0.85634 0.25197 0.5152 0.0
C4179 C 0.88116 0.2757 0.52029 0.0
N4180 N 0.8921 0.2339 0.49114 0.0
N4181 N 0.88413 0.26197 0.51073 0.0
H4182 H 0.48279 0.10168 0.27877 0.0
H4183 H 0.50684 0.17079 0.21077 0.0
H4184 H 0.45093 0.14322 0.2653 0.0
H4185 H 0.54108 0.1325 0.22758 0.0
H4186 H 0.48722 0.16238 0.23267 0.0
H4187 H 0.5053 0.114 0.26193 0.0
C4188 C 0.48059 0.11345 0.2724 0.0
C4189 C 0.46495 0.12136 0.27328 0.0
C4190 C 0.49911 0.15594 0.23172 0.0
C4191 C 0.4905 0.13547 0.254 0.0
C4192 C 0.51033 0.16078 0.21924 0.0
C4193 C 0.52552 0.15223 0.21729 0.0
C4194 C 0.50306 0.14235 0.24219 0.0
C4195 C 0.52943 0.13936 0.22861 0.0
C4196 C 0.49343 0.12049 0.26281 0.0
C4197 C 0.46276 0.13662 0.26485 0.0
N4198 N 0.51818 0.13467 0.24046 0.0
N4199 N 0.47534 0.1431 0.25545 0.0
H4200 H 0.6055 0.71419 0.02832 0.0
H4201 H 0.64106 0.77993 0.96398 0.0
H4202 H 0.65753 0.72864 0.02701 0.0
H4203 H 0.58824 0.77326 0.9731 0.0
H4204 H 0.64722 0.76374 0.98913 0.0
H4205 H 0.59866 0.73798 0.01046 0.0
C4206 C 0.61547 0.72253 0.02442 0.0
C4207 C 0.63214 0.71934 0.02889 0.0
C4208 C 0.63427 0.76603 0.98582 0.0
C4209 C 0.62444 0.74648 0.00829 0.0
C4210 C 0.63075 0.77524 0.97144 0.0
C4211 C 0.61412 0.77768 0.96635 0.0
C4212 C 0.62107 0.75897 0.99501 0.0
C4213 C 0.60123 0.77153 0.97654 0.0
C4214 C 0.61154 0.73614 0.01426 0.0
C4215 C 0.64453 0.73062 0.0237 0.0
N4216 N 0.60499 0.76218 0.99026 0.0
N4217 N 0.64047 0.74355 0.0134 0.0
H4218 H 0.97287 0.10901 0.78449 0.0
H4219 H 0.03336 0.13934 0.71301 0.0
H4220 H 0.97201 0.1595 0.76527 0.0
H4221 H 0.02364 0.08709 0.72272 0.0
H4222 H 0.00931 0.14681 0.73028 0.0
H4223 H 0.9898 0.10042 0.7606 0.0
C4224 C 0.97615 0.11826 0.77513 0.0
C4225 C 0.97128 0.13504 0.77694 0.0
C4226 C 0.01222 0.13369 0.72842 0.0
C4227 C 0.99074 0.12533 0.74963 0.0
C4228 C 0.02597 0.12942 0.71859 0.0
C4229 C 0.03057 0.11259 0.71667 0.0
C4230 C 0.00323 0.12104 0.73664 0.0
C4231 C 0.02053 0.10022 0.724 0.0
C4232 C 0.98573 0.11333 0.76145 0.0
C4233 C 0.97564 0.14647 0.76437 0.0
N4234 N 0.00747 0.10471 0.73395 0.0
N4235 N 0.98539 0.14145 0.75135 0.0
H4236 H 0.63666 0.21683 0.53101 0.0
H4237 H 0.60167 0.28019 0.46362 0.0
H4238 H 0.58435 0.22069 0.51806 0.0
H4239 H 0.65435 0.27241 0.47272 0.0
H4240 H 0.5954 0.25519 0.47998 0.0
H4241 H 0.64372 0.23365 0.50654 0.0
C4242 C 0.62667 0.22104 0.52286 0.0
C4243 C 0.60987 0.21766 0.5267 0.0
C4244 C 0.60835 0.25876 0.47819 0.0
C4245 C 0.61783 0.23706 0.49878 0.0
C4246 C 0.61194 0.27305 0.46886 0.0
C4247 C 0.62853 0.27851 0.4671 0.0
C4248 C 0.62144 0.25002 0.48601 0.0
C4249 C 0.64137 0.2687 0.47394 0.0
C4250 C 0.63071 0.23062 0.50886 0.0
C4251 C 0.59745 0.22319 0.51562 0.0
N4252 N 0.63753 0.25507 0.48337 0.0
N4253 N 0.60166 0.23289 0.5023 0.0
H4254 H 0.52388 0.88695 0.28169 0.0
H4255 H 0.45104 0.85314 0.22524 0.0
H4256 H 0.51794 0.83433 0.27102 0.0
H4257 H 0.46897 0.90396 0.22128 0.0
H4258 H 0.47596 0.84584 0.24134 0.0
H4259 H 0.50467 0.89353 0.25885 0.0
C4260 C 0.51869 0.8768 0.27435 0.0
C4261 C 0.52228 0.86007 0.27831 0.0
C4262 C 0.47458 0.85853 0.23677 0.0
C4263 C 0.50016 0.86748 0.2524 0.0
C4264 C 0.46031 0.86273 0.22769 0.0
C4265 C 0.4579 0.87922 0.22215 0.0
C4266 C 0.48634 0.87099 0.24062 0.0
C4267 C 0.47035 0.89113 0.22545 0.0
C4268 C 0.50778 0.88056 0.2613 0.0
C4269 C 0.51539 0.84738 0.26837 0.0
N4270 N 0.48396 0.88684 0.23473 0.0
N4271 N 0.50437 0.85133 0.25603 0.0
H4272 H 0.90769 0.77867 0.01111 0.0
H4273 H 0.88823 0.71285 0.95911 0.0
H4274 H 0.85559 0.77509 0.02499 0.0
H4275 H 0.83714 0.73027 0.96072 0.0
H4276 H 0.8966 0.73633 0.97652 0.0
H4277 H 0.90168 0.76263 0.98575 0.0
C4278 C 0.89497 0.77458 0.00876 0.0
C4279 C 0.88219 0.77785 0.02032 0.0
C4280 C 0.88365 0.73545 0.97267 0.0
C4281 C 0.8753 0.75909 0.99168 0.0
C4282 C 0.87883 0.72189 0.96284 0.0
C4283 C 0.86195 0.71957 0.95863 0.0
C4284 C 0.87144 0.74671 0.97848 0.0
C4285 C 0.85028 0.73163 0.96375 0.0
C4286 C 0.89157 0.76527 0.99436 0.0
C4287 C 0.86588 0.77255 0.01653 0.0
N4288 N 0.8552 0.74453 0.97372 0.0
N4289 N 0.86293 0.76327 0.00262 0.0
H4290 H 0.72068 0.96344 0.88744 0.0
H4291 H 0.78012 0.03379 0.85149 0.0
H4292 H 0.72661 0.9734 0.8347 0.0
H4293 H 0.77867 0.01995 0.90367 0.0
H4294 H 0.7641 0.00874 0.84464 0.0
H4295 H 0.74519 0.98072 0.89321 0.0
C4296 C 0.72733 0.96907 0.87704 0.0
C4297 C 0.72147 0.96726 0.86059 0.0
C4298 C 0.76748 0.011 0.85757 0.0
C4299 C 0.74938 0.98723 0.86711 0.0
C4300 C 0.77661 0.02532 0.86149 0.0
C4301 C 0.78044 0.02906 0.87821 0.0
C4302 C 0.76192 0.00047 0.87049 0.0
C4303 C 0.77581 0.01758 0.89064 0.0
C4304 C 0.74133 0.97892 0.88034 0.0
C4305 C 0.73063 0.97463 0.84757 0.0
N4306 N 0.76651 0.00393 0.88656 0.0
N4307 N 0.74398 0.98455 0.85114 0.0
H4308 H 0.77096 0.97359 0.58199 0.0
H4309 H 0.72621 0.02357 0.65607 0.0
H4310 H 0.7785 0.96341 0.6345 0.0
H4311 H 0.71337 0.02881 0.60386 0.0
H4312 H 0.75017 0.00621 0.64807 0.0
H4313 H 0.75455 -0.0016 0.58952 0.0
C4314 C 0.76936 0.97672 0.59508 0.0
C4315 C 0.7758 0.96632 0.60765 0.0
C4316 C 0.74224 0.01136 0.63835 0.0
C4317 C 0.7571 0.99451 0.61636 0.0
C4318 C 0.72861 0.0213 0.64292 0.0
C4319 C 0.71767 0.02734 0.63062 0.0
C4320 C 0.74486 0.00747 0.62139 0.0
C4321 C 0.72138 0.02415 0.61375 0.0
C4322 C 0.75999 0.99084 0.59939 0.0
C4323 C 0.7735 0.97097 0.62442 0.0
N4324 N 0.73455 0.01425 0.60964 0.0
N4325 N 0.76417 0.98463 0.6283 0.0
H4326 H 0.72094 0.96933 0.40814 0.0
H4327 H 0.76943 0.02194 0.33859 0.0
H4328 H 0.71637 0.96102 0.35496 0.0
H4329 H 0.77916 0.02534 0.39161 0.0
H4330 H 0.74488 0.0046 0.34456 0.0
H4331 H 0.73709 0.99474 0.40242 0.0
C4332 C 0.7231 0.97302 0.39527 0.0
C4333 C 0.71764 0.96293 0.382 0.0
C4334 C 0.75225 0.00936 0.3549 0.0
C4335 C 0.73611 0.99181 0.37537 0.0
C4336 C 0.76622 0.01927 0.35149 0.0
C4337 C 0.77648 0.02476 0.36462 0.0
C4338 C 0.74859 0.00493 0.37153 0.0
C4339 C 0.77172 0.02109 0.38111 0.0
C4340 C 0.73233 0.98749 0.392 0.0
C4341 C 0.72062 0.96832 0.36556 0.0
N4342 N 0.75823 0.01121 0.38409 0.0
N4343 N 0.72986 0.98228 0.3627 0.0
H4344 H 0.73783 0.04089 0.09507 0.0
H4345 H 0.75783 0.96497 0.15204 0.0
H4346 H 0.69641 0.01415 0.11698 0.0
H4347 H 0.78479 0.97337 0.10596 0.0
H4348 H 0.73537 0.98344 0.1417 0.0
H4349 H 0.75614 0.01714 0.10122 0.0
C4350 C 0.73261 0.02986 0.10101 0.0
C4351 C 0.7157 0.02927 0.10546 0.0
C4352 C 0.74609 0.98091 0.1338 0.0
C4353 C 0.73652 0.00239 0.11295 0.0
C4354 C 0.75889 0.97047 0.13969 0.0
C4355 C 0.77326 0.96785 0.12992 0.0
C4356 C 0.74797 0.98893 0.11828 0.0
C4357 C 0.77402 0.97519 0.11399 0.0
C4358 C 0.74299 0.01634 0.10447 0.0
C4359 C 0.70943 0.01485 0.11325 0.0
N4360 N 0.76171 0.98564 0.1088 0.0
N4361 N 0.71996 0.00198 0.11708 0.0
H4362 H 0.40587 0.71975 0.98105 0.0
H4363 H 0.33144 0.77269 0.02143 0.0
H4364 H 0.35409 0.7156 0.96619 0.0
H4365 H 0.38389 0.7814 0.03104 0.0
H4366 H 0.33887 0.74709 0.00624 0.0
H4367 H 0.39734 0.73756 0.00447 0.0
C4368 C 0.39269 0.72237 0.98289 0.0
C4369 C 0.38069 0.71651 0.97152 0.0
C4370 C 0.34873 0.75448 0.0119 0.0
C4371 C 0.37086 0.73688 -0.0019 0.0
C4372 C 0.34448 0.76906 0.02058 0.0
C4373 C 0.35711 0.77929 0.02717 0.0
C4374 C 0.36569 0.75021 0.00986 0.0
C4375 C 0.3738 0.77399 0.02585 0.0
C4376 C 0.38782 0.73254 0.99622 0.0
C4377 C 0.36377 0.72013 0.97453 0.0
N4378 N 0.37763 0.75992 0.01717 0.0
N4379 N 0.35936 0.73027 0.98741 0.0
H4380 H 0.95755 0.63207 0.77501 0.0
H4381 H 0.03214 0.60698 0.71547 0.0
H4382 H 0.97573 0.58132 0.77144 0.0
H4383 H 0.02092 0.65804 0.72918 0.0
H4384 H 0.0136 0.59719 0.73775 0.0
H4385 H 0.98225 0.64179 0.76006 0.0
C4386 C 0.96685 0.62297 0.77114 0.0
C4387 C 0.96453 0.60585 0.77422 0.0
C4388 C 0.01543 0.61053 0.73609 0.0
C4389 C 0.99282 0.61686 0.75696 0.0
C4390 C 0.026 0.61613 0.72338 0.0
C4391 C 0.02783 0.63335 0.72034 0.0
C4392 C 0.00648 0.62225 0.74565 0.0
C4393 C 0.01972 0.64465 0.73101 0.0
C4394 C 0.981 0.62854 0.76268 0.0
C4395 C 0.97704 0.59462 0.76917 0.0
N4396 N 0.00917 0.6389 0.74303 0.0
N4397 N 0.99057 0.6003 0.76052 0.0
H4398 H 0.08227 0.2704 0.47224 0.0
H4399 H 0.15757 0.22687 0.52178 0.0
H4400 H 0.13442 0.27586 0.45922 0.0
H4401 H 0.10545 0.21447 0.52874 0.0
H4402 H 0.14923 0.24997 0.50339 0.0
H4403 H 0.09056 0.25483 0.49734 0.0
C4404 C 0.09546 0.26849 0.47478 0.0
C4405 C 0.10768 0.27414 0.46354 0.0
C4406 C 0.13962 0.24234 0.50915 0.0
C4407 C 0.11724 0.25644 0.4921 0.0
C4408 C 0.14438 0.22923 0.51969 0.0
C4409 C 0.13218 0.21862 0.52652 0.0
C4410 C 0.12257 0.24481 0.5055 0.0
C4411 C 0.11526 0.22222 0.52349 0.0
C4412 C 0.10019 0.25961 0.48907 0.0
C4413 C 0.12459 0.27147 0.46745 0.0
N4414 N 0.11095 0.2349 0.51304 0.0
N4415 N 0.12887 0.26267 0.48133 0.0
H4416 H 0.95271 0.35909 0.72657 0.0
H4417 H 0.02375 0.33688 0.77131 0.0
H4418 H 0.9717 0.40963 0.72881 0.0
H4419 H 0.01859 0.38661 0.79184 0.0
H4420 H 0.0043 0.34456 0.74885 0.0
H4421 H 0.97595 0.34981 0.74402 0.0
C4422 C 0.96192 0.36821 0.7306 0.0
C4423 C 0.9603 0.38516 0.72631 0.0
C4424 C 0.00739 0.35374 0.75832 0.0
C4425 C 0.98706 0.37459 0.74611 0.0
C4426 C 0.01857 0.34942 0.77104 0.0
C4427 C 0.02253 0.36105 0.78356 0.0
C4428 C 0.00021 0.36982 0.75817 0.0
C4429 C 0.01564 0.37719 0.78254 0.0
C4430 C 0.9753 0.36285 0.7404 0.0
C4431 C 0.97255 0.39644 0.73183 0.0
N4432 N 0.00477 0.3811 0.77008 0.0
N4433 N 0.98532 0.39099 0.74171 0.0
H4434 H 0.46208 0.60555 0.28407 0.0
H4435 H 0.51242 0.58478 0.21747 0.0
H4436 H 0.46605 0.65685 0.26762 0.0
H4437 H 0.528 0.63641 0.22099 0.0
H4438 H 0.48747 0.59156 0.23386 0.0
H4439 H 0.4785 0.59674 0.26008 0.0
C4440 C 0.46613 0.61493 0.27515 0.0
C4441 C 0.46291 0.63197 0.2779 0.0
C4442 C 0.49637 0.6014 0.23113 0.0
C4443 C 0.48157 0.62198 0.25013 0.0
C4444 C 0.51052 0.59755 0.22162 0.0
C4445 C 0.52246 0.60997 0.21827 0.0
C4446 C 0.49433 0.61773 0.23743 0.0
C4447 C 0.51926 0.62638 0.22362 0.0
C4448 C 0.47538 0.60987 0.26128 0.0
C4449 C 0.46836 0.6436 0.26596 0.0
N4450 N 0.50559 0.62975 0.23312 0.0
N4451 N 0.47773 0.63841 0.25274 0.0
H4452 H 0.51914 0.60428 0.7898 0.0
H4453 H 0.45197 0.63787 0.72557 0.0
H4454 H 0.51612 0.65634 0.77566 0.0
H4455 H 0.46612 0.58578 0.72816 0.0
H4456 H 0.47577 0.64498 0.74337 0.0
H4457 H 0.50032 0.59717 0.76682 0.0
C4458 C 0.51462 0.6142 0.78172 0.0
C4459 C 0.51902 0.63094 0.78469 0.0
C4460 C 0.47381 0.63202 0.7399 0.0
C4461 C 0.49734 0.62293 0.75851 0.0
C4462 C 0.46018 0.62793 0.72981 0.0
C4463 C 0.45701 0.61118 0.72557 0.0
C4464 C 0.48417 0.61922 0.74602 0.0
C4465 C 0.46811 0.59883 0.73124 0.0
C4466 C 0.50393 0.61013 0.76858 0.0
C4467 C 0.51295 0.64329 0.7738 0.0
N4468 N 0.48109 0.60307 0.74139 0.0
N4469 N 0.50219 0.63906 0.76131 0.0
H4470 H 0.91241 0.27025 0.97958 0.0
H4471 H 0.8349 0.22603 0.0245 0.0
H4472 H 0.86067 0.27985 0.96734 0.0
H4473 H 0.88659 0.213 0.03334 0.0
H4474 H 0.84418 0.25018 0.00804 0.0
H4475 H 0.90325 0.25365 0.00367 0.0
C4476 C 0.89914 0.26908 0.98213 0.0
C4477 C 0.88727 0.27617 0.97133 0.0
C4478 C 0.85349 0.24218 0.0138 0.0
C4479 C 0.8767 0.25717 -0.0013 0.0
C4480 C 0.84819 0.22844 0.02324 0.0
C4481 C 0.86 0.21738 0.03002 0.0
C4482 C 0.8707 0.24479 0.01114 0.0
C4483 C 0.87707 0.2211 0.02809 0.0
C4484 C 0.89391 0.25959 0.99585 0.0
C4485 C 0.87023 0.27438 0.97523 0.0
N4486 N 0.88191 0.23436 0.01865 0.0
N4487 N 0.86545 0.26488 0.98848 0.0
H4488 H 0.60003 0.7449 0.45032 0.0
H4489 H 0.64818 0.76142 0.53328 0.0
H4490 H 0.61411 0.70237 0.48041 0.0
H4491 H 0.60771 0.79321 0.51668 0.0
H4492 H 0.63816 0.73944 0.51406 0.0
H4493 H 0.60526 0.76328 0.47414 0.0
C4494 C 0.60408 0.73947 0.46208 0.0
C4495 C 0.60659 0.72222 0.46358 0.0
C4496 C 0.63137 0.75114 0.51495 0.0
C4497 C 0.61299 0.74309 0.49069 0.0
C4498 C 0.63708 0.76367 0.52582 0.0
C4499 C 0.62892 0.77923 0.52635 0.0
C4500 C 0.61763 0.75445 0.50448 0.0
C4501 C 0.61455 0.7815 0.51651 0.0
C4502 C 0.60701 0.74991 0.47565 0.0
C4503 C 0.61192 0.71567 0.47897 0.0
N4504 N 0.60954 0.76937 0.50579 0.0
N4505 N 0.61527 0.72621 0.49198 0.0
H4506 H 0.71823 0.47185 0.58403 0.0
H4507 H 0.78467 0.52613 0.59915 0.0
H4508 H 0.72956 0.45454 0.63394 0.0
H4509 H 0.77381 0.51875 0.65153 0.0
H4510 H 0.76144 0.50773 0.59198 0.0
H4511 H 0.73522 0.49688 0.58926 0.0
C4512 C 0.72428 0.47335 0.59607 0.0
C4513 C 0.72279 0.461 0.60846 0.0
C4514 C 0.76374 0.5105 0.60503 0.0
C4515 C 0.74237 0.48931 0.61445 0.0
C4516 C 0.77712 0.52092 0.60914 0.0
C4517 C 0.78124 0.52381 0.62596 0.0
C4518 C 0.75448 0.50285 0.61787 0.0
C4519 C 0.77109 0.51677 0.6384 0.0
C4520 C 0.73407 0.48756 0.59902 0.0
C4521 C 0.73064 0.46362 0.62393 0.0
N4522 N 0.75835 0.50637 0.6341 0.0
N4523 N 0.74014 0.47745 0.62646 0.0
H4524 H 0.72316 0.52205 0.91559 0.0
H4525 H 0.76328 0.46797 0.8418 0.0
H4526 H 0.71022 0.52728 0.86341 0.0
H4527 H 0.78062 0.46686 0.89295 0.0
H4528 H 0.73944 0.48506 0.8506 0.0
H4529 H 0.73985 0.49726 0.90859 0.0
C4530 C 0.72361 0.5178 0.90272 0.0
C4531 C 0.71558 0.52685 0.89001 0.0
C4532 C 0.74834 0.48089 0.85994 0.0
C4533 C 0.73462 0.4987 0.88191 0.0
C4534 C 0.76192 0.47112 0.85491 0.0
C4535 C 0.77406 0.46628 0.86662 0.0
C4536 C 0.74697 0.48587 0.87676 0.0
C4537 C 0.77165 0.47056 0.88348 0.0
C4538 C 0.73315 0.5037 0.89872 0.0
C4539 C 0.71646 0.5208 0.87355 0.0
N4540 N 0.75849 0.4803 0.88802 0.0
N4541 N 0.72598 0.50721 0.86995 0.0
H4542 H 0.78445 0.5286 0.13077 0.0
H4543 H 0.70229 0.48073 0.10465 0.0
H4544 H 0.7649 0.52905 0.08043 0.0
H4545 H 0.72871 0.47009 0.15055 0.0
H4546 H 0.7263 0.49679 0.09482 0.0
H4547 H 0.76591 0.50525 0.1375 0.0
C4548 C 0.77646 0.52355 0.12104 0.0
C4549 C 0.77599 0.53088 0.1051 0.0
C4550 C 0.72697 0.4908 0.10696 0.0
C4551 C 0.75457 0.50442 0.11277 0.0
C4552 C 0.71322 0.48172 0.11262 0.0
C4553 C 0.71347 0.47431 0.12853 0.0
C4554 C 0.74097 0.49271 0.11739 0.0
C4555 C 0.72799 0.47575 0.13826 0.0
C4556 C 0.76588 0.51023 0.12489 0.0
C4557 C 0.76555 0.52381 0.09291 0.0
N4558 N 0.74111 0.48502 0.13263 0.0
N4559 N 0.75499 0.51114 0.0971 0.0
H4560 H 0.77722 0.4628 0.35964 0.0
H4561 H 0.72698 0.52965 0.33785 0.0
H4562 H 0.77236 0.47967 0.4107 0.0
H4563 H 0.70914 0.52449 0.38857 0.0
H4564 H 0.75169 0.51307 0.34525 0.0
H4565 H 0.76021 0.48632 0.35045 0.0
C4566 C 0.77284 0.47171 0.36889 0.0
C4567 C 0.77604 0.46924 0.38597 0.0
C4568 C 0.74234 0.51551 0.35474 0.0
C4569 C 0.75667 0.49639 0.37553 0.0
C4570 C 0.72832 0.5251 0.35055 0.0
C4571 C 0.71585 0.52809 0.36253 0.0
C4572 C 0.74376 0.50884 0.37098 0.0
C4573 C 0.71832 0.52217 0.37887 0.0
C4574 C 0.76325 0.48528 0.36361 0.0
C4575 C 0.77013 0.48114 0.39742 0.0
N4576 N 0.73192 0.5127 0.38259 0.0
N4577 N 0.76041 0.49405 0.39202 0.0
H4578 H 0.53314 0.35816 0.2746 0.0
H4579 H 0.47613 0.38822 0.19984 0.0
H4580 H 0.52596 0.41043 0.26295 0.0
H4581 H 0.47189 0.33897 0.22168 0.0
H4582 H 0.49353 0.39692 0.22341 0.0
H4583 H 0.50989 0.35107 0.25613 0.0
C4584 C 0.52651 0.36817 0.26826 0.0
C4585 C 0.53154 0.38489 0.27012 0.0
C4586 C 0.48862 0.38428 0.22318 0.0
C4587 C 0.50509 0.37685 0.24881 0.0
C4588 C 0.47877 0.37927 0.20969 0.0
C4589 C 0.47276 0.36279 0.20875 0.0
C4590 C 0.49272 0.37263 0.23567 0.0
C4591 C 0.47638 0.35176 0.22191 0.0
C4592 C 0.51321 0.36411 0.25777 0.0
C4593 C 0.52247 0.39738 0.26178 0.0
N4594 N 0.48635 0.35682 0.23473 0.0
N4595 N 0.50981 0.39308 0.25124 0.0
H4596 H 0.09217 0.71879 0.01999 0.0
H4597 H 0.16473 0.76824 0.97247 0.0
H4598 H 0.14467 0.71496 0.03219 0.0
H4599 H 0.11194 0.7773 0.96534 0.0
H4600 H 0.15785 0.74366 0.98946 0.0
H4601 H 0.09951 0.73508 0.99509 0.0
C4602 C 0.10525 0.72113 0.01726 0.0
C4603 C 0.11782 0.71584 0.02829 0.0
C4604 C 0.14779 0.7509 0.98396 0.0
C4605 C 0.1263 0.73448 1e-05 0.0
C4606 C 0.15172 0.76489 0.97425 0.0
C4607 C 0.13888 0.77496 0.9678 0.0
C4608 C 0.13092 0.74703 0.9872 0.0
C4609 C 0.12222 0.77001 0.97035 0.0
C4610 C 0.10944 0.73045 0.00309 0.0
C4611 C 0.13457 0.71908 0.02413 0.0
N4612 N 0.11871 0.75651 0.98004 0.0
N4613 N 0.13832 0.72838 0.01043 0.0
H4614 H 0.36204 0.2561 0.55278 0.0
H4615 H 0.37556 0.2198 0.46054 0.0
H4616 H 0.4009 0.27368 0.51962 0.0
H4617 H 0.33711 0.2029 0.49452 0.0
H4618 H 0.3838 0.24113 0.48095 0.0
H4619 H 0.35172 0.23786 0.53068 0.0
C4620 C 0.36841 0.25612 0.54081 0.0
C4621 C 0.38242 0.26633 0.53804 0.0
C4622 C 0.37347 0.23285 0.48387 0.0
C4623 C 0.37063 0.24544 0.51261 0.0
C4624 C 0.36873 0.22072 0.47222 0.0
C4625 C 0.3557 0.20953 0.47592 0.0
C4626 C 0.36513 0.23373 0.49932 0.0
C4627 C 0.34727 0.21123 0.4912 0.0
C4628 C 0.36247 0.24572 0.52817 0.0
C4629 C 0.3901 0.26593 0.52227 0.0
N4630 N 0.35221 0.22303 0.50238 0.0
N4631 N 0.38415 0.25557 0.51013 0.0
H4632 H 0.27086 0.51837 0.40675 0.0
H4633 H 0.21834 0.47249 0.33477 0.0
H4634 H 0.27016 0.53462 0.35524 0.0
H4635 H 0.20558 0.47042 0.38721 0.0
H4636 H 0.24277 0.4898 0.34181 0.0
H4637 H 0.25219 0.49512 0.39927 0.0
C4638 C 0.26696 0.51689 0.39385 0.0
C4639 C 0.2718 0.52851 0.38163 0.0
C4640 C 0.2347 0.48535 0.35176 0.0
C4641 C 0.25071 0.50206 0.37301 0.0
C4642 C 0.22083 0.47548 0.34776 0.0
C4643 C 0.20987 0.47028 0.36042 0.0
C4644 C 0.23764 0.4898 0.36852 0.0
C4645 C 0.21363 0.47441 0.37706 0.0
C4646 C 0.25632 0.50369 0.3896 0.0
C4647 C 0.26649 0.52604 0.36507 0.0
N4648 N 0.22717 0.48401 0.38064 0.0
N4649 N 0.25614 0.51312 0.36125 0.0
H4650 H 0.22586 0.52004 0.15967 0.0
H4651 H 0.27368 0.47488 0.08403 0.0
H4652 H 0.21202 0.52568 0.10777 0.0
H4653 H 0.27432 0.45709 0.13503 0.0
H4654 H 0.25662 0.49883 0.093 0.0
H4655 H 0.24942 0.50228 0.15106 0.0
C4656 C 0.22797 0.51779 0.14647 0.0
C4657 C 0.2169 0.52408 0.13441 0.0
C4658 C 0.26069 0.48976 0.10223 0.0
C4659 C 0.24366 0.50394 0.12453 0.0
C4660 C 0.27042 0.47615 0.09713 0.0
C4661 C 0.27516 0.46391 0.10878 0.0
C4662 C 0.2559 0.49117 0.11909 0.0
C4663 C 0.27069 0.46614 0.12561 0.0
C4664 C 0.24134 0.50762 0.14157 0.0
C4665 C 0.22017 0.52084 0.11746 0.0
N4666 N 0.26123 0.47946 0.13026 0.0
N4667 N 0.2332 0.51088 0.11302 0.0
H4668 H 0.29563 0.5118 0.89291 0.0
H4669 H 0.20263 0.47606 0.88782 0.0
H4670 H 0.26138 0.52833 0.85448 0.0
H4671 H 0.24534 0.44763 0.90473 0.0
H4672 H 0.22142 0.49968 0.8813 0.0
H4673 H 0.27422 0.49292 0.90355 0.0
C4674 C 0.28351 0.51162 0.88682 0.0
C4675 C 0.28034 0.52146 0.87262 0.0
C4676 C 0.22655 0.4883 0.8866 0.0
C4677 C 0.2558 0.49986 0.88481 0.0
C4678 C 0.2159 0.47492 0.89039 0.0
C4679 C 0.22255 0.45994 0.89672 0.0
C4680 C 0.24379 0.48668 0.88959 0.0
C4681 C 0.23978 0.45895 0.89975 0.0
C4682 C 0.27133 0.50081 0.89289 0.0
C4683 C 0.26435 0.52081 0.86536 0.0
N4684 N 0.24981 0.47216 0.89618 0.0
N4685 N 0.25263 0.51003 0.87147 0.0
H4686 H 0.2082 0.52745 0.62706 0.0
H4687 H 0.27992 0.46521 0.59767 0.0
H4688 H 0.22144 0.519 0.57539 0.0
H4689 H 0.26684 0.47359 0.6494 0.0
H4690 H 0.25516 0.48088 0.58912 0.0
H4691 H 0.22593 0.50393 0.63519 0.0
C4692 C 0.21465 0.52047 0.61739 0.0
C4693 C 0.2136 0.52532 0.60055 0.0
C4694 C 0.25755 0.47913 0.60234 0.0
C4695 C 0.23404 0.49853 0.60978 0.0
C4696 C 0.2717 0.47019 0.60724 0.0
C4697 C 0.27555 0.46837 0.62427 0.0
C4698 C 0.24728 0.48645 0.61457 0.0
C4699 C 0.26439 0.47487 0.63614 0.0
C4700 C 0.22478 0.50704 0.62205 0.0
C4701 C 0.22205 0.51575 0.58853 0.0
N4702 N 0.25086 0.48386 0.63105 0.0
N4703 N 0.23214 0.50295 0.59341 0.0
loop_
_geom_bond_atom_site_label_1
_geom_bond_atom_site_label_2
_geom_bond_distance
_geom_bond_site_symmetry_2
_ccdc_geom_bond_type
In0 O1 2.294 . S
In0 O2 2.326 . S
In0 O6 2.266 . S
In0 O7 2.326 . S
In0 O8 2.266 . S
In0 O9 2.326 . S
In0 O11 2.294 . S
In0 O12 2.326 . S
O1 In0 2.294 . S
O1 C10 1.240 . S
O2 In0 2.326 . S
O2 C10 1.252 . S
C3 O6 1.252 . S
C3 O7 1.260 . S
C4 O11 1.240 . S
C4 O12 1.252 . S
C5 O8 1.252 . S
C5 O9 1.260 . S
O6 In0 2.266 . S
O6 C3 1.252 . S
O7 In0 2.326 . S
O7 C3 1.260 . S
O8 In0 2.266 . S
O8 C5 1.252 . S
O9 In0 2.326 . S
O9 C5 1.260 . S
C10 O1 1.240 . S
C10 O2 1.252 . S
O11 In0 2.294 . S
O11 C4 1.240 . S
O12 In0 2.326 . S
O12 C4 1.252 . S
In13 O14 2.294 . S
In13 O15 2.326 . S
In13 O19 2.266 . S
In13 O20 2.326 . S
In13 O21 2.266 . S
In13 O22 2.326 . S
In13 O24 2.294 . S
In13 O25 2.326 . S
O14 In13 2.294 . S
O14 C23 1.240 . S
O15 In13 2.326 . S
O15 C23 1.252 . S
C16 O19 1.252 . S
C16 O20 1.260 . S
C17 O24 1.240 . S
C17 O25 1.252 . S
C18 O21 1.252 . S
C18 O22 1.260 . S
O19 In13 2.266 . S
O19 C16 1.252 . S
O20 In13 2.326 . S
O20 C16 1.260 . S
O21 In13 2.266 . S
O21 C18 1.252 . S
O22 In13 2.326 . S
O22 C18 1.260 . S
C23 O14 1.240 . S
C23 O15 1.252 . S
O24 In13 2.294 . S
O24 C17 1.240 . S
O25 In13 2.326 . S
O25 C17 1.252 . S
In26 O27 2.294 . S
In26 O28 2.326 . S
In26 O32 2.266 . S
In26 O33 2.326 . S
In26 O34 2.266 . S
In26 O35 2.326 . S
In26 O37 2.294 . S
In26 O38 2.326 . S
O27 In26 2.294 . S
O27 C36 1.240 . S
O28 In26 2.326 . S
O28 C36 1.252 . S
C29 O32 1.252 . S
C29 O33 1.260 . S
C30 O37 1.240 . S
C30 O38 1.252 . S
C31 O34 1.252 . S
C31 O35 1.260 . S
O32 In26 2.266 . S
O32 C29 1.252 . S
O33 In26 2.326 . S
O33 C29 1.260 . S
O34 In26 2.266 . S
O34 C31 1.252 . S
O35 In26 2.326 . S
O35 C31 1.260 . S
C36 O27 1.240 . S
C36 O28 1.252 . S
O37 In26 2.294 . S
O37 C30 1.240 . S
O38 In26 2.326 . S
O38 C30 1.252 . S
In39 O40 2.294 . S
In39 O41 2.326 . S
In39 O45 2.266 . S
In39 O46 2.326 . S
In39 O47 2.266 . S
In39 O48 2.326 . S
In39 O50 2.294 . S
In39 O51 2.326 . S
O40 In39 2.294 . S
O40 C49 1.240 . S
O41 In39 2.326 . S
O41 C49 1.252 . S
C42 O45 1.252 . S
C42 O46 1.260 . S
C43 O50 1.240 . S
C43 O51 1.252 . S
C44 O47 1.252 . S
C44 O48 1.260 . S
O45 In39 2.266 . S
O45 C42 1.252 . S
O46 In39 2.326 . S
O46 C42 1.260 . S
O47 In39 2.266 . S
O47 C44 1.252 . S
O48 In39 2.326 . S
O48 C44 1.260 . S
C49 O40 1.240 . S
C49 O41 1.252 . S
O50 In39 2.294 . S
O50 C43 1.240 . S
O51 In39 2.326 . S
O51 C43 1.252 . S
In52 O53 2.294 . S
In52 O54 2.326 . S
In52 O58 2.266 . S
In52 O59 2.326 . S
In52 O60 2.266 . S
In52 O61 2.326 . S
In52 O63 2.294 . S
In52 O64 2.326 . S
O53 In52 2.294 . S
O53 C62 1.240 . S
O54 In52 2.326 . S
O54 C62 1.252 . S
C55 O58 1.252 . S
C55 O59 1.260 . S
C56 O63 1.240 . S
C56 O64 1.252 . S
C57 O60 1.252 . S
C57 O61 1.260 . S
O58 In52 2.266 . S
O58 C55 1.252 . S
O59 In52 2.326 . S
O59 C55 1.260 . S
O60 In52 2.266 . S
O60 C57 1.252 . S
O61 In52 2.326 . S
O61 C57 1.260 . S
C62 O53 1.240 . S
C62 O54 1.252 . S
O63 In52 2.294 . S
O63 C56 1.240 . S
O64 In52 2.326 . S
O64 C56 1.252 . S
In65 O66 2.294 . S
In65 O67 2.326 . S
In65 O71 2.266 . S
In65 O72 2.326 . S
In65 O73 2.266 . S
In65 O74 2.326 . S
In65 O76 2.294 . S
In65 O77 2.326 . S
O66 In65 2.294 . S
O66 C75 1.240 . S
O67 In65 2.326 . S
O67 C75 1.252 . S
C68 O71 1.252 . S
C68 O72 1.260 . S
C69 O76 1.240 . S
C69 O77 1.252 . S
C70 O73 1.252 . S
C70 O74 1.260 . S
O71 In65 2.266 . S
O71 C68 1.252 . S
O72 In65 2.326 . S
O72 C68 1.260 . S
O73 In65 2.266 . S
O73 C70 1.252 . S
O74 In65 2.326 . S
O74 C70 1.260 . S
C75 O66 1.240 . S
C75 O67 1.252 . S
O76 In65 2.294 . S
O76 C69 1.240 . S
O77 In65 2.326 . S
O77 C69 1.252 . S
In78 O79 2.294 . S
In78 O80 2.326 . S
In78 O84 2.266 . S
In78 O85 2.326 . S
In78 O86 2.266 . S
In78 O87 2.326 . S
In78 O89 2.294 . S
In78 O90 2.326 . S
O79 In78 2.294 . S
O79 C88 1.240 . S
O80 In78 2.326 . S
O80 C88 1.252 . S
C81 O84 1.252 . S
C81 O85 1.260 . S
C82 O89 1.240 . S
C82 O90 1.252 . S
C83 O86 1.252 . S
C83 O87 1.260 . S
O84 In78 2.266 . S
O84 C81 1.252 . S
O85 In78 2.326 . S
O85 C81 1.260 . S
O86 In78 2.266 . S
O86 C83 1.252 . S
O87 In78 2.326 . S
O87 C83 1.260 . S
C88 O79 1.240 . S
C88 O80 1.252 . S
O89 In78 2.294 . S
O89 C82 1.240 . S
O90 In78 2.326 . S
O90 C82 1.252 . S
In91 O92 2.294 . S
In91 O93 2.326 . S
In91 O97 2.266 . S
In91 O98 2.326 . S
In91 O99 2.266 . S
In91 O100 2.326 . S
In91 O102 2.294 . S
In91 O103 2.326 . S
O92 In91 2.294 . S
O92 C101 1.240 . S
O93 In91 2.326 . S
O93 C101 1.252 . S
C94 O97 1.252 . S
C94 O98 1.260 . S
C95 O102 1.240 . S
C95 O103 1.252 . S
C96 O99 1.252 . S
C96 O100 1.260 . S
O97 In91 2.266 . S
O97 C94 1.252 . S
O98 In91 2.326 . S
O98 C94 1.260 . S
O99 In91 2.266 . S
O99 C96 1.252 . S
O100 In91 2.326 . S
O100 C96 1.260 . S
C101 O92 1.240 . S
C101 O93 1.252 . S
O102 In91 2.294 . S
O102 C95 1.240 . S
O103 In91 2.326 . S
O103 C95 1.252 . S
In104 O105 2.294 . S
In104 O106 2.326 . S
In104 O110 2.266 . S
In104 O111 2.326 . S
In104 O112 2.266 . S
In104 O113 2.326 . S
In104 O115 2.294 . S
In104 O116 2.326 . S
O105 In104 2.294 . S
O105 C114 1.240 . S
O106 In104 2.326 . S
O106 C114 1.252 . S
C107 O110 1.252 . S
C107 O111 1.260 . S
C108 O115 1.240 . S
C108 O116 1.252 . S
C109 O112 1.252 . S
C109 O113 1.260 . S
O110 In104 2.266 . S
O110 C107 1.252 . S
O111 In104 2.326 . S
O111 C107 1.260 . S
O112 In104 2.266 . S
O112 C109 1.252 . S
O113 In104 2.326 . S
O113 C109 1.260 . S
C114 O105 1.240 . S
C114 O106 1.252 . S
O115 In104 2.294 . S
O115 C108 1.240 . S
O116 In104 2.326 . S
O116 C108 1.252 . S
In117 O118 2.294 . S
In117 O119 2.326 . S
In117 O123 2.266 . S
In117 O124 2.326 . S
In117 O125 2.266 . S
In117 O126 2.326 . S
In117 O128 2.294 . S
In117 O129 2.326 . S
O118 In117 2.294 . S
O118 C127 1.240 . S
O119 In117 2.326 . S
O119 C127 1.252 . S
C120 O123 1.252 . S
C120 O124 1.260 . S
C121 O128 1.240 . S
C121 O129 1.252 . S
C122 O125 1.252 . S
C122 O126 1.260 . S
O123 In117 2.266 . S
O123 C120 1.252 . S
O124 In117 2.326 . S
O124 C120 1.260 . S
O125 In117 2.266 . S
O125 C122 1.252 . S
O126 In117 2.326 . S
O126 C122 1.260 . S
C127 O118 1.240 . S
C127 O119 1.252 . S
O128 In117 2.294 . S
O128 C121 1.240 . S
O129 In117 2.326 . S
O129 C121 1.252 . S
In130 O131 2.294 . S
In130 O132 2.326 . S
In130 O136 2.266 . S
In130 O137 2.326 . S
In130 O138 2.266 . S
In130 O139 2.326 . S
In130 O141 2.294 . S
In130 O142 2.326 . S
O131 In130 2.294 . S
O131 C140 1.240 . S
O132 In130 2.326 . S
O132 C140 1.252 . S
C133 O136 1.252 . S
C133 O137 1.260 . S
C134 O141 1.240 . S
C134 O142 1.252 . S
C135 O138 1.252 . S
C135 O139 1.260 . S
O136 In130 2.266 . S
O136 C133 1.252 . S
O137 In130 2.326 . S
O137 C133 1.260 . S
O138 In130 2.266 . S
O138 C135 1.252 . S
O139 In130 2.326 . S
O139 C135 1.260 . S
C140 O131 1.240 . S
C140 O132 1.252 . S
O141 In130 2.294 . S
O141 C134 1.240 . S
O142 In130 2.326 . S
O142 C134 1.252 . S
In143 O144 2.294 . S
In143 O145 2.326 . S
In143 O149 2.266 . S
In143 O150 2.326 . S
In143 O151 2.266 . S
In143 O152 2.326 . S
In143 O154 2.294 . S
In143 O155 2.326 . S
O144 In143 2.294 . S
O144 C153 1.240 . S
O145 In143 2.326 . S
O145 C153 1.252 . S
C146 O149 1.252 . S
C146 O150 1.260 . S
C147 O154 1.240 . S
C147 O155 1.252 . S
C148 O151 1.252 . S
C148 O152 1.260 . S
O149 In143 2.266 . S
O149 C146 1.252 . S
O150 In143 2.326 . S
O150 C146 1.260 . S
O151 In143 2.266 . S
O151 C148 1.252 . S
O152 In143 2.326 . S
O152 C148 1.260 . S
C153 O144 1.240 . S
C153 O145 1.252 . S
O154 In143 2.294 . S
O154 C147 1.240 . S
O155 In143 2.326 . S
O155 C147 1.252 . S
In156 O157 2.294 . S
In156 O158 2.326 . S
In156 O162 2.266 . S
In156 O163 2.326 . S
In156 O164 2.266 . S
In156 O165 2.326 . S
In156 O167 2.294 . S
In156 O168 2.326 . S
O157 In156 2.294 . S
O157 C166 1.240 . S
O158 In156 2.326 . S
O158 C166 1.252 . S
C159 O162 1.252 . S
C159 O163 1.260 . S
C160 O167 1.240 . S
C160 O168 1.252 . S
C161 O164 1.252 . S
C161 O165 1.260 . S
O162 In156 2.266 . S
O162 C159 1.252 . S
O163 In156 2.326 . S
O163 C159 1.260 . S
O164 In156 2.266 . S
O164 C161 1.252 . S
O165 In156 2.326 . S
O165 C161 1.260 . S
C166 O157 1.240 . S
C166 O158 1.252 . S
O167 In156 2.294 . S
O167 C160 1.240 . S
O168 In156 2.326 . S
O168 C160 1.252 . S
In169 O170 2.294 . S
In169 O171 2.326 . S
In169 O175 2.266 . S
In169 O176 2.326 . S
In169 O177 2.266 . S
In169 O178 2.326 . S
In169 O180 2.294 . S
In169 O181 2.326 . S
O170 In169 2.294 . S
O170 C179 1.240 . S
O171 In169 2.326 . S
O171 C179 1.252 . S
C172 O175 1.252 . S
C172 O176 1.260 . S
C173 O180 1.240 . S
C173 O181 1.252 . S
C174 O177 1.252 . S
C174 O178 1.260 . S
O175 In169 2.266 . S
O175 C172 1.252 . S
O176 In169 2.326 . S
O176 C172 1.260 . S
O177 In169 2.266 . S
O177 C174 1.252 . S
O178 In169 2.326 . S
O178 C174 1.260 . S
C179 O170 1.240 . S
C179 O171 1.252 . S
O180 In169 2.294 . S
O180 C173 1.240 . S
O181 In169 2.326 . S
O181 C173 1.252 . S
In182 O183 2.294 . S
In182 O184 2.326 . S
In182 O188 2.266 . S
In182 O189 2.326 . S
In182 O190 2.266 . S
In182 O191 2.326 . S
In182 O193 2.294 . S
In182 O194 2.326 . S
O183 In182 2.294 . S
O183 C192 1.240 . S
O184 In182 2.326 . S
O184 C192 1.252 . S
C185 O188 1.252 . S
C185 O189 1.260 . S
C186 O193 1.240 . S
C186 O194 1.252 . S
C187 O190 1.252 . S
C187 O191 1.260 . S
O188 In182 2.266 . S
O188 C185 1.252 . S
O189 In182 2.326 . S
O189 C185 1.260 . S
O190 In182 2.266 . S
O190 C187 1.252 . S
O191 In182 2.326 . S
O191 C187 1.260 . S
C192 O183 1.240 . S
C192 O184 1.252 . S
O193 In182 2.294 . S
O193 C186 1.240 . S
O194 In182 2.326 . S
O194 C186 1.252 . S
In195 O196 2.294 . S
In195 O197 2.326 . S
In195 O201 2.266 . S
In195 O202 2.326 . S
In195 O203 2.266 . S
In195 O204 2.326 . S
In195 O206 2.294 . S
In195 O207 2.326 . S
O196 In195 2.294 . S
O196 C205 1.240 . S
O197 In195 2.326 . S
O197 C205 1.252 . S
C198 O201 1.252 . S
C198 O202 1.260 . S
C199 O206 1.240 . S
C199 O207 1.252 . S
C200 O203 1.252 . S
C200 O204 1.260 . S
O201 In195 2.266 . S
O201 C198 1.252 . S
O202 In195 2.326 . S
O202 C198 1.260 . S
O203 In195 2.266 . S
O203 C200 1.252 . S
O204 In195 2.326 . S
O204 C200 1.260 . S
C205 O196 1.240 . S
C205 O197 1.252 . S
O206 In195 2.294 . S
O206 C199 1.240 . S
O207 In195 2.326 . S
O207 C199 1.252 . S
In208 O209 2.294 . S
In208 O210 2.326 . S
In208 O214 2.266 . S
In208 O215 2.326 . S
In208 O216 2.266 . S
In208 O217 2.326 . S
In208 O219 2.294 . S
In208 O220 2.326 . S
O209 In208 2.294 . S
O209 C218 1.240 . S
O210 In208 2.326 . S
O210 C218 1.252 . S
C211 O214 1.252 . S
C211 O215 1.260 . S
C212 O219 1.240 . S
C212 O220 1.252 . S
C213 O216 1.252 . S
C213 O217 1.260 . S
O214 In208 2.266 . S
O214 C211 1.252 . S
O215 In208 2.326 . S
O215 C211 1.260 . S
O216 In208 2.266 . S
O216 C213 1.252 . S
O217 In208 2.326 . S
O217 C213 1.260 . S
C218 O209 1.240 . S
C218 O210 1.252 . S
O219 In208 2.294 . S
O219 C212 1.240 . S
O220 In208 2.326 . S
O220 C212 1.252 . S
In221 O222 2.294 . S
In221 O223 2.326 . S
In221 O227 2.266 . S
In221 O228 2.326 . S
In221 O229 2.266 . S
In221 O230 2.326 . S
In221 O232 2.294 . S
In221 O233 2.326 . S
O222 In221 2.294 . S
O222 C231 1.240 . S
O223 In221 2.326 . S
O223 C231 1.252 . S
C224 O227 1.252 . S
C224 O228 1.260 . S
C225 O232 1.240 . S
C225 O233 1.252 . S
C226 O229 1.252 . S
C226 O230 1.260 . S
O227 In221 2.266 . S
O227 C224 1.252 . S
O228 In221 2.326 . S
O228 C224 1.260 . S
O229 In221 2.266 . S
O229 C226 1.252 . S
O230 In221 2.326 . S
O230 C226 1.260 . S
C231 O222 1.240 . S
C231 O223 1.252 . S
O232 In221 2.294 . S
O232 C225 1.240 . S
O233 In221 2.326 . S
O233 C225 1.252 . S
In234 O235 2.294 . S
In234 O236 2.326 . S
In234 O240 2.266 . S
In234 O241 2.326 . S
In234 O242 2.266 . S
In234 O243 2.326 . S
In234 O245 2.294 . S
In234 O246 2.326 . S
O235 In234 2.294 . S
O235 C244 1.240 . S
O236 In234 2.326 . S
O236 C244 1.252 . S
C237 O240 1.252 . S
C237 O241 1.260 . S
C238 O245 1.240 . S
C238 O246 1.252 . S
C239 O242 1.252 . S
C239 O243 1.260 . S
O240 In234 2.266 . S
O240 C237 1.252 . S
O241 In234 2.326 . S
O241 C237 1.260 . S
O242 In234 2.266 . S
O242 C239 1.252 . S
O243 In234 2.326 . S
O243 C239 1.260 . S
C244 O235 1.240 . S
C244 O236 1.252 . S
O245 In234 2.294 . S
O245 C238 1.240 . S
O246 In234 2.326 . S
O246 C238 1.252 . S
In247 O248 2.294 . S
In247 O249 2.326 . S
In247 O253 2.266 . S
In247 O254 2.326 . S
In247 O255 2.266 . S
In247 O256 2.326 . S
In247 O258 2.294 . S
In247 O259 2.326 . S
O248 In247 2.294 . S
O248 C257 1.240 . S
O249 In247 2.326 . S
O249 C257 1.252 . S
C250 O253 1.252 . S
C250 O254 1.260 . S
C251 O258 1.240 . S
C251 O259 1.252 . S
C252 O255 1.252 . S
C252 O256 1.260 . S
O253 In247 2.266 . S
O253 C250 1.252 . S
O254 In247 2.326 . S
O254 C250 1.260 . S
O255 In247 2.266 . S
O255 C252 1.252 . S
O256 In247 2.326 . S
O256 C252 1.260 . S
C257 O248 1.240 . S
C257 O249 1.252 . S
O258 In247 2.294 . S
O258 C251 1.240 . S
O259 In247 2.326 . S
O259 C251 1.252 . S
In260 O261 2.294 . S
In260 O262 2.326 . S
In260 O266 2.266 . S
In260 O267 2.326 . S
In260 O268 2.266 . S
In260 O269 2.326 . S
In260 O271 2.294 . S
In260 O272 2.326 . S
O261 In260 2.294 . S
O261 C270 1.240 . S
O262 In260 2.326 . S
O262 C270 1.252 . S
C263 O266 1.252 . S
C263 O267 1.260 . S
C264 O271 1.240 . S
C264 O272 1.252 . S
C265 O268 1.252 . S
C265 O269 1.260 . S
O266 In260 2.266 . S
O266 C263 1.252 . S
O267 In260 2.326 . S
O267 C263 1.260 . S
O268 In260 2.266 . S
O268 C265 1.252 . S
O269 In260 2.326 . S
O269 C265 1.260 . S
C270 O261 1.240 . S
C270 O262 1.252 . S
O271 In260 2.294 . S
O271 C264 1.240 . S
O272 In260 2.326 . S
O272 C264 1.252 . S
In273 O274 2.294 . S
In273 O275 2.326 . S
In273 O279 2.266 . S
In273 O280 2.326 . S
In273 O281 2.266 . S
In273 O282 2.326 . S
In273 O284 2.294 . S
In273 O285 2.326 . S
O274 In273 2.294 . S
O274 C283 1.240 . S
O275 In273 2.326 . S
O275 C283 1.252 . S
C276 O279 1.252 . S
C276 O280 1.260 . S
C277 O284 1.240 . S
C277 O285 1.252 . S
C278 O281 1.252 . S
C278 O282 1.260 . S
O279 In273 2.266 . S
O279 C276 1.252 . S
O280 In273 2.326 . S
O280 C276 1.260 . S
O281 In273 2.266 . S
O281 C278 1.252 . S
O282 In273 2.326 . S
O282 C278 1.260 . S
C283 O274 1.240 . S
C283 O275 1.252 . S
O284 In273 2.294 . S
O284 C277 1.240 . S
O285 In273 2.326 . S
O285 C277 1.252 . S
In286 O287 2.294 . S
In286 O288 2.326 . S
In286 O292 2.266 . S
In286 O293 2.326 . S
In286 O294 2.266 . S
In286 O295 2.326 . S
In286 O297 2.294 . S
In286 O298 2.326 . S
O287 In286 2.294 . S
O287 C296 1.240 . S
O288 In286 2.326 . S
O288 C296 1.252 . S
C289 O292 1.252 . S
C289 O293 1.260 . S
C290 O297 1.240 . S
C290 O298 1.252 . S
C291 O294 1.252 . S
C291 O295 1.260 . S
O292 In286 2.266 . S
O292 C289 1.252 . S
O293 In286 2.326 . S
O293 C289 1.260 . S
O294 In286 2.266 . S
O294 C291 1.252 . S
O295 In286 2.326 . S
O295 C291 1.260 . S
C296 O287 1.240 . S
C296 O288 1.252 . S
O297 In286 2.294 . S
O297 C290 1.240 . S
O298 In286 2.326 . S
O298 C290 1.252 . S
In299 O300 2.294 . S
In299 O301 2.326 . S
In299 O305 2.266 . S
In299 O306 2.326 . S
In299 O307 2.266 . S
In299 O308 2.326 . S
In299 O310 2.294 . S
In299 O311 2.326 . S
O300 In299 2.294 . S
O300 C309 1.240 . S
O301 In299 2.326 . S
O301 C309 1.252 . S
C302 O305 1.252 . S
C302 O306 1.260 . S
C303 O310 1.240 . S
C303 O311 1.252 . S
C304 O307 1.252 . S
C304 O308 1.260 . S
O305 In299 2.266 . S
O305 C302 1.252 . S
O306 In299 2.326 . S
O306 C302 1.260 . S
O307 In299 2.266 . S
O307 C304 1.252 . S
O308 In299 2.326 . S
O308 C304 1.260 . S
C309 O300 1.240 . S
C309 O301 1.252 . S
O310 In299 2.294 . S
O310 C303 1.240 . S
O311 In299 2.326 . S
O311 C303 1.252 . S
In312 O313 2.294 . S
In312 O314 2.326 . S
In312 O318 2.266 . S
In312 O319 2.326 . S
In312 O320 2.266 . S
In312 O321 2.326 . S
In312 O323 2.294 . S
In312 O324 2.326 . S
O313 In312 2.294 . S
O313 C322 1.240 . S
O314 In312 2.326 . S
O314 C322 1.252 . S
C315 O318 1.252 . S
C315 O319 1.260 . S
C316 O323 1.240 . S
C316 O324 1.252 . S
C317 O320 1.252 . S
C317 O321 1.260 . S
O318 In312 2.266 . S
O318 C315 1.252 . S
O319 In312 2.326 . S
O319 C315 1.260 . S
O320 In312 2.266 . S
O320 C317 1.252 . S
O321 In312 2.326 . S
O321 C317 1.260 . S
C322 O313 1.240 . S
C322 O314 1.252 . S
O323 In312 2.294 . S
O323 C316 1.240 . S
O324 In312 2.326 . S
O324 C316 1.252 . S
In325 O326 2.294 . S
In325 O327 2.326 . S
In325 O331 2.266 . S
In325 O332 2.326 . S
In325 O333 2.266 . S
In325 O334 2.326 . S
In325 O336 2.294 . S
In325 O337 2.326 . S
O326 In325 2.294 . S
O326 C335 1.240 . S
O327 In325 2.326 . S
O327 C335 1.252 . S
C328 O331 1.252 . S
C328 O332 1.260 . S
C329 O336 1.240 . S
C329 O337 1.252 . S
C330 O333 1.252 . S
C330 O334 1.260 . S
O331 In325 2.266 . S
O331 C328 1.252 . S
O332 In325 2.326 . S
O332 C328 1.260 . S
O333 In325 2.266 . S
O333 C330 1.252 . S
O334 In325 2.326 . S
O334 C330 1.260 . S
C335 O326 1.240 . S
C335 O327 1.252 . S
O336 In325 2.294 . S
O336 C329 1.240 . S
O337 In325 2.326 . S
O337 C329 1.252 . S
In338 O339 2.294 . S
In338 O340 2.326 . S
In338 O344 2.266 . S
In338 O345 2.326 . S
In338 O346 2.266 . S
In338 O347 2.326 . S
In338 O349 2.294 . S
In338 O350 2.326 . S
O339 In338 2.294 . S
O339 C348 1.240 . S
O340 In338 2.326 . S
O340 C348 1.252 . S
C341 O344 1.252 . S
C341 O345 1.260 . S
C342 O349 1.240 . S
C342 O350 1.252 . S
C343 O346 1.252 . S
C343 O347 1.260 . S
O344 In338 2.266 . S
O344 C341 1.252 . S
O345 In338 2.326 . S
O345 C341 1.260 . S
O346 In338 2.266 . S
O346 C343 1.252 . S
O347 In338 2.326 . S
O347 C343 1.260 . S
C348 O339 1.240 . S
C348 O340 1.252 . S
O349 In338 2.294 . S
O349 C342 1.240 . S
O350 In338 2.326 . S
O350 C342 1.252 . S
In351 O352 2.294 . S
In351 O353 2.326 . S
In351 O357 2.266 . S
In351 O358 2.326 . S
In351 O359 2.266 . S
In351 O360 2.326 . S
In351 O362 2.294 . S
In351 O363 2.326 . S
O352 In351 2.294 . S
O352 C361 1.240 . S
O353 In351 2.326 . S
O353 C361 1.252 . S
C354 O357 1.252 . S
C354 O358 1.260 . S
C355 O362 1.240 . S
C355 O363 1.252 . S
C356 O359 1.252 . S
C356 O360 1.260 . S
O357 In351 2.266 . S
O357 C354 1.252 . S
O358 In351 2.326 . S
O358 C354 1.260 . S
O359 In351 2.266 . S
O359 C356 1.252 . S
O360 In351 2.326 . S
O360 C356 1.260 . S
C361 O352 1.240 . S
C361 O353 1.252 . S
O362 In351 2.294 . S
O362 C355 1.240 . S
O363 In351 2.326 . S
O363 C355 1.252 . S
In364 O365 2.294 . S
In364 O366 2.326 . S
In364 O370 2.266 . S
In364 O371 2.326 . S
In364 O372 2.266 . S
In364 O373 2.326 . S
In364 O375 2.294 . S
In364 O376 2.326 . S
O365 In364 2.294 . S
O365 C374 1.240 . S
O366 In364 2.326 . S
O366 C374 1.252 . S
C367 O370 1.252 . S
C367 O371 1.260 . S
C368 O375 1.240 . S
C368 O376 1.252 . S
C369 O372 1.252 . S
C369 O373 1.260 . S
O370 In364 2.266 . S
O370 C367 1.252 . S
O371 In364 2.326 . S
O371 C367 1.260 . S
O372 In364 2.266 . S
O372 C369 1.252 . S
O373 In364 2.326 . S
O373 C369 1.260 . S
C374 O365 1.240 . S
C374 O366 1.252 . S
O375 In364 2.294 . S
O375 C368 1.240 . S
O376 In364 2.326 . S
O376 C368 1.252 . S
In377 O378 2.294 . S
In377 O379 2.326 . S
In377 O383 2.266 . S
In377 O384 2.326 . S
In377 O385 2.266 . S
In377 O386 2.326 . S
In377 O388 2.294 . S
In377 O389 2.326 . S
O378 In377 2.294 . S
O378 C387 1.240 . S
O379 In377 2.326 . S
O379 C387 1.252 . S
C380 O383 1.252 . S
C380 O384 1.260 . S
C381 O388 1.240 . S
C381 O389 1.252 . S
C382 O385 1.252 . S
C382 O386 1.260 . S
O383 In377 2.266 . S
O383 C380 1.252 . S
O384 In377 2.326 . S
O384 C380 1.260 . S
O385 In377 2.266 . S
O385 C382 1.252 . S
O386 In377 2.326 . S
O386 C382 1.260 . S
C387 O378 1.240 . S
C387 O379 1.252 . S
O388 In377 2.294 . S
O388 C381 1.240 . S
O389 In377 2.326 . S
O389 C381 1.252 . S
In390 O391 2.294 . S
In390 O392 2.326 . S
In390 O396 2.266 . S
In390 O397 2.326 . S
In390 O398 2.266 . S
In390 O399 2.326 . S
In390 O401 2.294 . S
In390 O402 2.326 . S
O391 In390 2.294 . S
O391 C400 1.240 . S
O392 In390 2.326 . S
O392 C400 1.252 . S
C393 O396 1.252 . S
C393 O397 1.260 . S
C394 O401 1.240 . S
C394 O402 1.252 . S
C395 O398 1.252 . S
C395 O399 1.260 . S
O396 In390 2.266 . S
O396 C393 1.252 . S
O397 In390 2.326 . S
O397 C393 1.260 . S
O398 In390 2.266 . S
O398 C395 1.252 . S
O399 In390 2.326 . S
O399 C395 1.260 . S
C400 O391 1.240 . S
C400 O392 1.252 . S
O401 In390 2.294 . S
O401 C394 1.240 . S
O402 In390 2.326 . S
O402 C394 1.252 . S
In403 O404 2.294 . S
In403 O405 2.326 . S
In403 O409 2.266 . S
In403 O410 2.326 . S
In403 O411 2.266 . S
In403 O412 2.326 . S
In403 O414 2.294 . S
In403 O415 2.326 . S
O404 In403 2.294 . S
O404 C413 1.240 . S
O405 In403 2.326 . S
O405 C413 1.252 . S
C406 O409 1.252 . S
C406 O410 1.260 . S
C407 O414 1.240 . S
C407 O415 1.252 . S
C408 O411 1.252 . S
C408 O412 1.260 . S
O409 In403 2.266 . S
O409 C406 1.252 . S
O410 In403 2.326 . S
O410 C406 1.260 . S
O411 In403 2.266 . S
O411 C408 1.252 . S
O412 In403 2.326 . S
O412 C408 1.260 . S
C413 O404 1.240 . S
C413 O405 1.252 . S
O414 In403 2.294 . S
O414 C407 1.240 . S
O415 In403 2.326 . S
O415 C407 1.252 . S
In416 O417 2.294 . S
In416 O418 2.326 . S
In416 O422 2.266 . S
In416 O423 2.326 . S
In416 O424 2.266 . S
In416 O425 2.326 . S
In416 O427 2.294 . S
In416 O428 2.326 . S
O417 In416 2.294 . S
O417 C426 1.240 . S
O418 In416 2.326 . S
O418 C426 1.252 . S
C419 O422 1.252 . S
C419 O423 1.260 . S
C420 O427 1.240 . S
C420 O428 1.252 . S
C421 O424 1.252 . S
C421 O425 1.260 . S
O422 In416 2.266 . S
O422 C419 1.252 . S
O423 In416 2.326 . S
O423 C419 1.260 . S
O424 In416 2.266 . S
O424 C421 1.252 . S
O425 In416 2.326 . S
O425 C421 1.260 . S
C426 O417 1.240 . S
C426 O418 1.252 . S
O427 In416 2.294 . S
O427 C420 1.240 . S
O428 In416 2.326 . S
O428 C420 1.252 . S
In429 O430 2.294 . S
In429 O431 2.326 . S
In429 O435 2.266 . S
In429 O436 2.326 . S
In429 O437 2.266 . S
In429 O438 2.326 . S
In429 O440 2.294 . S
In429 O441 2.326 . S
O430 In429 2.294 . S
O430 C439 1.240 . S
O431 In429 2.326 . S
O431 C439 1.252 . S
C432 O435 1.252 . S
C432 O436 1.260 . S
C433 O440 1.240 . S
C433 O441 1.252 . S
C434 O437 1.252 . S
C434 O438 1.260 . S
O435 In429 2.266 . S
O435 C432 1.252 . S
O436 In429 2.326 . S
O436 C432 1.260 . S
O437 In429 2.266 . S
O437 C434 1.252 . S
O438 In429 2.326 . S
O438 C434 1.260 . S
C439 O430 1.240 . S
C439 O431 1.252 . S
O440 In429 2.294 . S
O440 C433 1.240 . S
O441 In429 2.326 . S
O441 C433 1.252 . S
In442 O443 2.294 . S
In442 O444 2.326 . S
In442 O448 2.266 . S
In442 O449 2.326 . S
In442 O450 2.266 . S
In442 O451 2.326 . S
In442 O453 2.294 . S
In442 O454 2.326 . S
O443 In442 2.294 . S
O443 C452 1.240 . S
O444 In442 2.326 . S
O444 C452 1.252 . S
C445 O448 1.252 . S
C445 O449 1.260 . S
C446 O453 1.240 . S
C446 O454 1.252 . S
C447 O450 1.252 . S
C447 O451 1.260 . S
O448 In442 2.266 . S
O448 C445 1.252 . S
O449 In442 2.326 . S
O449 C445 1.260 . S
O450 In442 2.266 . S
O450 C447 1.252 . S
O451 In442 2.326 . S
O451 C447 1.260 . S
C452 O443 1.240 . S
C452 O444 1.252 . S
O453 In442 2.294 . S
O453 C446 1.240 . S
O454 In442 2.326 . S
O454 C446 1.252 . S
In455 O456 2.294 . S
In455 O457 2.326 . S
In455 O461 2.266 . S
In455 O462 2.326 . S
In455 O463 2.266 . S
In455 O464 2.326 . S
In455 O466 2.294 . S
In455 O467 2.326 . S
O456 In455 2.294 . S
O456 C465 1.240 . S
O457 In455 2.326 . S
O457 C465 1.252 . S
C458 O461 1.252 . S
C458 O462 1.260 . S
C459 O466 1.240 . S
C459 O467 1.252 . S
C460 O463 1.252 . S
C460 O464 1.260 . S
O461 In455 2.266 . S
O461 C458 1.252 . S
O462 In455 2.326 . S
O462 C458 1.260 . S
O463 In455 2.266 . S
O463 C460 1.252 . S
O464 In455 2.326 . S
O464 C460 1.260 . S
C465 O456 1.240 . S
C465 O457 1.252 . S
O466 In455 2.294 . S
O466 C459 1.240 . S
O467 In455 2.326 . S
O467 C459 1.252 . S
In468 O469 2.294 . S
In468 O470 2.326 . S
In468 O474 2.266 . S
In468 O475 2.326 . S
In468 O476 2.266 . S
In468 O477 2.326 . S
In468 O479 2.294 . S
In468 O480 2.326 . S
O469 In468 2.294 . S
O469 C478 1.240 . S
O470 In468 2.326 . S
O470 C478 1.252 . S
C471 O474 1.252 . S
C471 O475 1.260 . S
C472 O479 1.240 . S
C472 O480 1.252 . S
C473 O476 1.252 . S
C473 O477 1.260 . S
O474 In468 2.266 . S
O474 C471 1.252 . S
O475 In468 2.326 . S
O475 C471 1.260 . S
O476 In468 2.266 . S
O476 C473 1.252 . S
O477 In468 2.326 . S
O477 C473 1.260 . S
C478 O469 1.240 . S
C478 O470 1.252 . S
O479 In468 2.294 . S
O479 C472 1.240 . S
O480 In468 2.326 . S
O480 C472 1.252 . S
In481 O482 2.294 . S
In481 O483 2.326 . S
In481 O487 2.266 . S
In481 O488 2.326 . S
In481 O489 2.266 . S
In481 O490 2.326 . S
In481 O492 2.294 . S
In481 O493 2.326 . S
O482 In481 2.294 . S
O482 C491 1.240 . S
O483 In481 2.326 . S
O483 C491 1.252 . S
C484 O487 1.252 . S
C484 O488 1.260 . S
C485 O492 1.240 . S
C485 O493 1.252 . S
C486 O489 1.252 . S
C486 O490 1.260 . S
O487 In481 2.266 . S
O487 C484 1.252 . S
O488 In481 2.326 . S
O488 C484 1.260 . S
O489 In481 2.266 . S
O489 C486 1.252 . S
O490 In481 2.326 . S
O490 C486 1.260 . S
C491 O482 1.240 . S
C491 O483 1.252 . S
O492 In481 2.294 . S
O492 C485 1.240 . S
O493 In481 2.326 . S
O493 C485 1.252 . S
In494 O495 2.294 . S
In494 O496 2.326 . S
In494 O500 2.266 . S
In494 O501 2.326 . S
In494 O502 2.266 . S
In494 O503 2.326 . S
In494 O505 2.294 . S
In494 O506 2.326 . S
O495 In494 2.294 . S
O495 C504 1.240 . S
O496 In494 2.326 . S
O496 C504 1.252 . S
C497 O500 1.252 . S
C497 O501 1.260 . S
C498 O505 1.240 . S
C498 O506 1.252 . S
C499 O502 1.252 . S
C499 O503 1.260 . S
O500 In494 2.266 . S
O500 C497 1.252 . S
O501 In494 2.326 . S
O501 C497 1.260 . S
O502 In494 2.266 . S
O502 C499 1.252 . S
O503 In494 2.326 . S
O503 C499 1.260 . S
C504 O495 1.240 . S
C504 O496 1.252 . S
O505 In494 2.294 . S
O505 C498 1.240 . S
O506 In494 2.326 . S
O506 C498 1.252 . S
In507 O508 2.294 . S
In507 O509 2.326 . S
In507 O513 2.266 . S
In507 O514 2.326 . S
In507 O515 2.266 . S
In507 O516 2.326 . S
In507 O518 2.294 . S
In507 O519 2.326 . S
O508 In507 2.294 . S
O508 C517 1.240 . S
O509 In507 2.326 . S
O509 C517 1.252 . S
C510 O513 1.252 . S
C510 O514 1.260 . S
C511 O518 1.240 . S
C511 O519 1.252 . S
C512 O515 1.252 . S
C512 O516 1.260 . S
O513 In507 2.266 . S
O513 C510 1.252 . S
O514 In507 2.326 . S
O514 C510 1.260 . S
O515 In507 2.266 . S
O515 C512 1.252 . S
O516 In507 2.326 . S
O516 C512 1.260 . S
C517 O508 1.240 . S
C517 O509 1.252 . S
O518 In507 2.294 . S
O518 C511 1.240 . S
O519 In507 2.326 . S
O519 C511 1.252 . S
In520 O521 2.294 . S
In520 O522 2.326 . S
In520 O526 2.266 . S
In520 O527 2.326 . S
In520 O528 2.266 . S
In520 O529 2.326 . S
In520 O531 2.294 . S
In520 O532 2.326 . S
O521 In520 2.294 . S
O521 C530 1.240 . S
O522 In520 2.326 . S
O522 C530 1.252 . S
C523 O526 1.252 . S
C523 O527 1.260 . S
C524 O531 1.240 . S
C524 O532 1.252 . S
C525 O528 1.252 . S
C525 O529 1.260 . S
O526 In520 2.266 . S
O526 C523 1.252 . S
O527 In520 2.326 . S
O527 C523 1.260 . S
O528 In520 2.266 . S
O528 C525 1.252 . S
O529 In520 2.326 . S
O529 C525 1.260 . S
C530 O521 1.240 . S
C530 O522 1.252 . S
O531 In520 2.294 . S
O531 C524 1.240 . S
O532 In520 2.326 . S
O532 C524 1.252 . S
In533 O534 2.294 . S
In533 O535 2.326 . S
In533 O539 2.266 . S
In533 O540 2.326 . S
In533 O541 2.266 . S
In533 O542 2.326 . S
In533 O544 2.294 . S
In533 O545 2.326 . S
O534 In533 2.294 . S
O534 C543 1.240 . S
O535 In533 2.326 . S
O535 C543 1.252 . S
C536 O539 1.252 . S
C536 O540 1.260 . S
C537 O544 1.240 . S
C537 O545 1.252 . S
C538 O541 1.252 . S
C538 O542 1.260 . S
O539 In533 2.266 . S
O539 C536 1.252 . S
O540 In533 2.326 . S
O540 C536 1.260 . S
O541 In533 2.266 . S
O541 C538 1.252 . S
O542 In533 2.326 . S
O542 C538 1.260 . S
C543 O534 1.240 . S
C543 O535 1.252 . S
O544 In533 2.294 . S
O544 C537 1.240 . S
O545 In533 2.326 . S
O545 C537 1.252 . S
In546 O547 2.294 . S
In546 O548 2.326 . S
In546 O552 2.266 . S
In546 O553 2.326 . S
In546 O554 2.266 . S
In546 O555 2.326 . S
In546 O557 2.294 . S
In546 O558 2.326 . S
O547 In546 2.294 . S
O547 C556 1.240 . S
O548 In546 2.326 . S
O548 C556 1.252 . S
C549 O552 1.252 . S
C549 O553 1.260 . S
C550 O557 1.240 . S
C550 O558 1.252 . S
C551 O554 1.252 . S
C551 O555 1.260 . S
O552 In546 2.266 . S
O552 C549 1.252 . S
O553 In546 2.326 . S
O553 C549 1.260 . S
O554 In546 2.266 . S
O554 C551 1.252 . S
O555 In546 2.326 . S
O555 C551 1.260 . S
C556 O547 1.240 . S
C556 O548 1.252 . S
O557 In546 2.294 . S
O557 C550 1.240 . S
O558 In546 2.326 . S
O558 C550 1.252 . S
In559 O560 2.294 . S
In559 O561 2.326 . S
In559 O565 2.266 . S
In559 O566 2.326 . S
In559 O567 2.266 . S
In559 O568 2.326 . S
In559 O570 2.294 . S
In559 O571 2.326 . S
O560 In559 2.294 . S
O560 C569 1.240 . S
O561 In559 2.326 . S
O561 C569 1.252 . S
C562 O565 1.252 . S
C562 O566 1.260 . S
C563 O570 1.240 . S
C563 O571 1.252 . S
C564 O567 1.252 . S
C564 O568 1.260 . S
O565 In559 2.266 . S
O565 C562 1.252 . S
O566 In559 2.326 . S
O566 C562 1.260 . S
O567 In559 2.266 . S
O567 C564 1.252 . S
O568 In559 2.326 . S
O568 C564 1.260 . S
C569 O560 1.240 . S
C569 O561 1.252 . S
O570 In559 2.294 . S
O570 C563 1.240 . S
O571 In559 2.326 . S
O571 C563 1.252 . S
In572 O573 2.294 . S
In572 O574 2.326 . S
In572 O578 2.266 . S
In572 O579 2.326 . S
In572 O580 2.266 . S
In572 O581 2.326 . S
In572 O583 2.294 . S
In572 O584 2.326 . S
O573 In572 2.294 . S
O573 C582 1.240 . S
O574 In572 2.326 . S
O574 C582 1.252 . S
C575 O578 1.252 . S
C575 O579 1.260 . S
C576 O583 1.240 . S
C576 O584 1.252 . S
C577 O580 1.252 . S
C577 O581 1.260 . S
O578 In572 2.266 . S
O578 C575 1.252 . S
O579 In572 2.326 . S
O579 C575 1.260 . S
O580 In572 2.266 . S
O580 C577 1.252 . S
O581 In572 2.326 . S
O581 C577 1.260 . S
C582 O573 1.240 . S
C582 O574 1.252 . S
O583 In572 2.294 . S
O583 C576 1.240 . S
O584 In572 2.326 . S
O584 C576 1.252 . S
In585 O586 2.294 . S
In585 O587 2.326 . S
In585 O591 2.266 . S
In585 O592 2.326 . S
In585 O593 2.266 . S
In585 O594 2.326 . S
In585 O596 2.294 . S
In585 O597 2.326 . S
O586 In585 2.294 . S
O586 C595 1.240 . S
O587 In585 2.326 . S
O587 C595 1.252 . S
C588 O591 1.252 . S
C588 O592 1.260 . S
C589 O596 1.240 . S
C589 O597 1.252 . S
C590 O593 1.252 . S
C590 O594 1.260 . S
O591 In585 2.266 . S
O591 C588 1.252 . S
O592 In585 2.326 . S
O592 C588 1.260 . S
O593 In585 2.266 . S
O593 C590 1.252 . S
O594 In585 2.326 . S
O594 C590 1.260 . S
C595 O586 1.240 . S
C595 O587 1.252 . S
O596 In585 2.294 . S
O596 C589 1.240 . S
O597 In585 2.326 . S
O597 C589 1.252 . S
In598 O599 2.294 . S
In598 O600 2.326 . S
In598 O604 2.266 . S
In598 O605 2.326 . S
In598 O606 2.266 . S
In598 O607 2.326 . S
In598 O609 2.294 . S
In598 O610 2.326 . S
O599 In598 2.294 . S
O599 C608 1.240 . S
O600 In598 2.326 . S
O600 C608 1.252 . S
C601 O604 1.252 . S
C601 O605 1.260 . S
C602 O609 1.240 . S
C602 O610 1.252 . S
C603 O606 1.252 . S
C603 O607 1.260 . S
O604 In598 2.266 . S
O604 C601 1.252 . S
O605 In598 2.326 . S
O605 C601 1.260 . S
O606 In598 2.266 . S
O606 C603 1.252 . S
O607 In598 2.326 . S
O607 C603 1.260 . S
C608 O599 1.240 . S
C608 O600 1.252 . S
O609 In598 2.294 . S
O609 C602 1.240 . S
O610 In598 2.326 . S
O610 C602 1.252 . S
In611 O612 2.294 . S
In611 O613 2.326 . S
In611 O617 2.266 . S
In611 O618 2.326 . S
In611 O619 2.266 . S
In611 O620 2.326 . S
In611 O622 2.294 . S
In611 O623 2.326 . S
O612 In611 2.294 . S
O612 C621 1.240 . S
O613 In611 2.326 . S
O613 C621 1.252 . S
C614 O617 1.252 . S
C614 O618 1.260 . S
C615 O622 1.240 . S
C615 O623 1.252 . S
C616 O619 1.252 . S
C616 O620 1.260 . S
O617 In611 2.266 . S
O617 C614 1.252 . S
O618 In611 2.326 . S
O618 C614 1.260 . S
O619 In611 2.266 . S
O619 C616 1.252 . S
O620 In611 2.326 . S
O620 C616 1.260 . S
C621 O612 1.240 . S
C621 O613 1.252 . S
O622 In611 2.294 . S
O622 C615 1.240 . S
O623 In611 2.326 . S
O623 C615 1.252 . S
In624 O625 2.294 . S
In624 O626 2.326 . S
In624 O630 2.266 . S
In624 O631 2.326 . S
In624 O632 2.266 . S
In624 O633 2.326 . S
In624 O635 2.294 . S
In624 O636 2.326 . S
O625 In624 2.294 . S
O625 C634 1.240 . S
O626 In624 2.326 . S
O626 C634 1.252 . S
C627 O630 1.252 . S
C627 O631 1.260 . S
C628 O635 1.240 . S
C628 O636 1.252 . S
C629 O632 1.252 . S
C629 O633 1.260 . S
O630 In624 2.266 . S
O630 C627 1.252 . S
O631 In624 2.326 . S
O631 C627 1.260 . S
O632 In624 2.266 . S
O632 C629 1.252 . S
O633 In624 2.326 . S
O633 C629 1.260 . S
C634 O625 1.240 . S
C634 O626 1.252 . S
O635 In624 2.294 . S
O635 C628 1.240 . S
O636 In624 2.326 . S
O636 C628 1.252 . S
In637 O638 2.294 . S
In637 O639 2.326 . S
In637 O643 2.266 . S
In637 O644 2.326 . S
In637 O645 2.266 . S
In637 O646 2.326 . S
In637 O648 2.294 . S
In637 O649 2.326 . S
O638 In637 2.294 . S
O638 C647 1.240 . S
O639 In637 2.326 . S
O639 C647 1.252 . S
C640 O643 1.252 . S
C640 O644 1.260 . S
C641 O648 1.240 . S
C641 O649 1.252 . S
C642 O645 1.252 . S
C642 O646 1.260 . S
O643 In637 2.266 . S
O643 C640 1.252 . S
O644 In637 2.326 . S
O644 C640 1.260 . S
O645 In637 2.266 . S
O645 C642 1.252 . S
O646 In637 2.326 . S
O646 C642 1.260 . S
C647 O638 1.240 . S
C647 O639 1.252 . S
O648 In637 2.294 . S
O648 C641 1.240 . S
O649 In637 2.326 . S
O649 C641 1.252 . S
In650 O651 2.294 . S
In650 O652 2.326 . S
In650 O656 2.266 . S
In650 O657 2.326 . S
In650 O658 2.266 . S
In650 O659 2.326 . S
In650 O661 2.294 . S
In650 O662 2.326 . S
O651 In650 2.294 . S
O651 C660 1.240 . S
O652 In650 2.326 . S
O652 C660 1.252 . S
C653 O656 1.252 . S
C653 O657 1.260 . S
C654 O661 1.240 . S
C654 O662 1.252 . S
C655 O658 1.252 . S
C655 O659 1.260 . S
O656 In650 2.266 . S
O656 C653 1.252 . S
O657 In650 2.326 . S
O657 C653 1.260 . S
O658 In650 2.266 . S
O658 C655 1.252 . S
O659 In650 2.326 . S
O659 C655 1.260 . S
C660 O651 1.240 . S
C660 O652 1.252 . S
O661 In650 2.294 . S
O661 C654 1.240 . S
O662 In650 2.326 . S
O662 C654 1.252 . S
In663 O664 2.294 . S
In663 O665 2.326 . S
In663 O669 2.266 . S
In663 O670 2.326 . S
In663 O671 2.266 . S
In663 O672 2.326 . S
In663 O674 2.294 . S
In663 O675 2.326 . S
O664 In663 2.294 . S
O664 C673 1.240 . S
O665 In663 2.326 . S
O665 C673 1.252 . S
C666 O669 1.252 . S
C666 O670 1.260 . S
C667 O674 1.240 . S
C667 O675 1.252 . S
C668 O671 1.252 . S
C668 O672 1.260 . S
O669 In663 2.266 . S
O669 C666 1.252 . S
O670 In663 2.326 . S
O670 C666 1.260 . S
O671 In663 2.266 . S
O671 C668 1.252 . S
O672 In663 2.326 . S
O672 C668 1.260 . S
C673 O664 1.240 . S
C673 O665 1.252 . S
O674 In663 2.294 . S
O674 C667 1.240 . S
O675 In663 2.326 . S
O675 C667 1.252 . S
In676 O677 2.294 . S
In676 O678 2.326 . S
In676 O682 2.266 . S
In676 O683 2.326 . S
In676 O684 2.266 . S
In676 O685 2.326 . S
In676 O687 2.294 . S
In676 O688 2.326 . S
O677 In676 2.294 . S
O677 C686 1.240 . S
O678 In676 2.326 . S
O678 C686 1.252 . S
C679 O682 1.252 . S
C679 O683 1.260 . S
C680 O687 1.240 . S
C680 O688 1.252 . S
C681 O684 1.252 . S
C681 O685 1.260 . S
O682 In676 2.266 . S
O682 C679 1.252 . S
O683 In676 2.326 . S
O683 C679 1.260 . S
O684 In676 2.266 . S
O684 C681 1.252 . S
O685 In676 2.326 . S
O685 C681 1.260 . S
C686 O677 1.240 . S
C686 O678 1.252 . S
O687 In676 2.294 . S
O687 C680 1.240 . S
O688 In676 2.326 . S
O688 C680 1.252 . S
In689 O690 2.294 . S
In689 O691 2.326 . S
In689 O695 2.266 . S
In689 O696 2.326 . S
In689 O697 2.266 . S
In689 O698 2.326 . S
In689 O700 2.294 . S
In689 O701 2.326 . S
O690 In689 2.294 . S
O690 C699 1.240 . S
O691 In689 2.326 . S
O691 C699 1.252 . S
C692 O695 1.252 . S
C692 O696 1.260 . S
C693 O700 1.240 . S
C693 O701 1.252 . S
C694 O697 1.252 . S
C694 O698 1.260 . S
O695 In689 2.266 . S
O695 C692 1.252 . S
O696 In689 2.326 . S
O696 C692 1.260 . S
O697 In689 2.266 . S
O697 C694 1.252 . S
O698 In689 2.326 . S
O698 C694 1.260 . S
C699 O690 1.240 . S
C699 O691 1.252 . S
O700 In689 2.294 . S
O700 C693 1.240 . S
O701 In689 2.326 . S
O701 C693 1.252 . S
In702 O703 2.294 . S
In702 O704 2.326 . S
In702 O708 2.266 . S
In702 O709 2.326 . S
In702 O710 2.266 . S
In702 O711 2.326 . S
In702 O713 2.294 . S
In702 O714 2.326 . S
O703 In702 2.294 . S
O703 C712 1.240 . S
O704 In702 2.326 . S
O704 C712 1.252 . S
C705 O708 1.252 . S
C705 O709 1.260 . S
C706 O713 1.240 . S
C706 O714 1.252 . S
C707 O710 1.252 . S
C707 O711 1.260 . S
O708 In702 2.266 . S
O708 C705 1.252 . S
O709 In702 2.326 . S
O709 C705 1.260 . S
O710 In702 2.266 . S
O710 C707 1.252 . S
O711 In702 2.326 . S
O711 C707 1.260 . S
C712 O703 1.240 . S
C712 O704 1.252 . S
O713 In702 2.294 . S
O713 C706 1.240 . S
O714 In702 2.326 . S
O714 C706 1.252 . S
In715 O716 2.294 . S
In715 O717 2.326 . S
In715 O721 2.266 . S
In715 O722 2.326 . S
In715 O723 2.266 . S
In715 O724 2.326 . S
In715 O726 2.294 . S
In715 O727 2.326 . S
O716 In715 2.294 . S
O716 C725 1.240 . S
O717 In715 2.326 . S
O717 C725 1.252 . S
C718 O721 1.252 . S
C718 O722 1.260 . S
C719 O726 1.240 . S
C719 O727 1.252 . S
C720 O723 1.252 . S
C720 O724 1.260 . S
O721 In715 2.266 . S
O721 C718 1.252 . S
O722 In715 2.326 . S
O722 C718 1.260 . S
O723 In715 2.266 . S
O723 C720 1.252 . S
O724 In715 2.326 . S
O724 C720 1.260 . S
C725 O716 1.240 . S
C725 O717 1.252 . S
O726 In715 2.294 . S
O726 C719 1.240 . S
O727 In715 2.326 . S
O727 C719 1.252 . S
In728 O729 2.294 . S
In728 O730 2.326 . S
In728 O734 2.266 . S
In728 O735 2.326 . S
In728 O736 2.266 . S
In728 O737 2.326 . S
In728 O739 2.294 . S
In728 O740 2.326 . S
O729 In728 2.294 . S
O729 C738 1.240 . S
O730 In728 2.326 . S
O730 C738 1.252 . S
C731 O734 1.252 . S
C731 O735 1.260 . S
C732 O739 1.240 . S
C732 O740 1.252 . S
C733 O736 1.252 . S
C733 O737 1.260 . S
O734 In728 2.266 . S
O734 C731 1.252 . S
O735 In728 2.326 . S
O735 C731 1.260 . S
O736 In728 2.266 . S
O736 C733 1.252 . S
O737 In728 2.326 . S
O737 C733 1.260 . S
C738 O729 1.240 . S
C738 O730 1.252 . S
O739 In728 2.294 . S
O739 C732 1.240 . S
O740 In728 2.326 . S
O740 C732 1.252 . S
In741 O742 2.294 . S
In741 O743 2.326 . S
In741 O747 2.266 . S
In741 O748 2.326 . S
In741 O749 2.266 . S
In741 O750 2.326 . S
In741 O752 2.294 . S
In741 O753 2.326 . S
O742 In741 2.294 . S
O742 C751 1.240 . S
O743 In741 2.326 . S
O743 C751 1.252 . S
C744 O747 1.252 . S
C744 O748 1.260 . S
C745 O752 1.240 . S
C745 O753 1.252 . S
C746 O749 1.252 . S
C746 O750 1.260 . S
O747 In741 2.266 . S
O747 C744 1.252 . S
O748 In741 2.326 . S
O748 C744 1.260 . S
O749 In741 2.266 . S
O749 C746 1.252 . S
O750 In741 2.326 . S
O750 C746 1.260 . S
C751 O742 1.240 . S
C751 O743 1.252 . S
O752 In741 2.294 . S
O752 C745 1.240 . S
O753 In741 2.326 . S
O753 C745 1.252 . S
In754 O755 2.294 . S
In754 O756 2.326 . S
In754 O760 2.266 . S
In754 O761 2.326 . S
In754 O762 2.266 . S
In754 O763 2.326 . S
In754 O765 2.294 . S
In754 O766 2.326 . S
O755 In754 2.294 . S
O755 C764 1.240 . S
O756 In754 2.326 . S
O756 C764 1.252 . S
C757 O760 1.252 . S
C757 O761 1.260 . S
C758 O765 1.240 . S
C758 O766 1.252 . S
C759 O762 1.252 . S
C759 O763 1.260 . S
O760 In754 2.266 . S
O760 C757 1.252 . S
O761 In754 2.326 . S
O761 C757 1.260 . S
O762 In754 2.266 . S
O762 C759 1.252 . S
O763 In754 2.326 . S
O763 C759 1.260 . S
C764 O755 1.240 . S
C764 O756 1.252 . S
O765 In754 2.294 . S
O765 C758 1.240 . S
O766 In754 2.326 . S
O766 C758 1.252 . S
In767 O768 2.294 . S
In767 O769 2.326 . S
In767 O773 2.266 . S
In767 O774 2.326 . S
In767 O775 2.266 . S
In767 O776 2.326 . S
In767 O778 2.294 . S
In767 O779 2.326 . S
O768 In767 2.294 . S
O768 C777 1.240 . S
O769 In767 2.326 . S
O769 C777 1.252 . S
C770 O773 1.252 . S
C770 O774 1.260 . S
C771 O778 1.240 . S
C771 O779 1.252 . S
C772 O775 1.252 . S
C772 O776 1.260 . S
O773 In767 2.266 . S
O773 C770 1.252 . S
O774 In767 2.326 . S
O774 C770 1.260 . S
O775 In767 2.266 . S
O775 C772 1.252 . S
O776 In767 2.326 . S
O776 C772 1.260 . S
C777 O768 1.240 . S
C777 O769 1.252 . S
O778 In767 2.294 . S
O778 C771 1.240 . S
O779 In767 2.326 . S
O779 C771 1.252 . S
In780 O781 2.294 . S
In780 O782 2.326 . S
In780 O786 2.266 . S
In780 O787 2.326 . S
In780 O788 2.266 . S
In780 O789 2.326 . S
In780 O791 2.294 . S
In780 O792 2.326 . S
O781 In780 2.294 . S
O781 C790 1.240 . S
O782 In780 2.326 . S
O782 C790 1.252 . S
C783 O786 1.252 . S
C783 O787 1.260 . S
C784 O791 1.240 . S
C784 O792 1.252 . S
C785 O788 1.252 . S
C785 O789 1.260 . S
O786 In780 2.266 . S
O786 C783 1.252 . S
O787 In780 2.326 . S
O787 C783 1.260 . S
O788 In780 2.266 . S
O788 C785 1.252 . S
O789 In780 2.326 . S
O789 C785 1.260 . S
C790 O781 1.240 . S
C790 O782 1.252 . S
O791 In780 2.294 . S
O791 C784 1.240 . S
O792 In780 2.326 . S
O792 C784 1.252 . S
In793 O794 2.294 . S
In793 O795 2.326 . S
In793 O799 2.266 . S
In793 O800 2.326 . S
In793 O801 2.266 . S
In793 O802 2.326 . S
In793 O804 2.294 . S
In793 O805 2.326 . S
O794 In793 2.294 . S
O794 C803 1.240 . S
O795 In793 2.326 . S
O795 C803 1.252 . S
C796 O799 1.252 . S
C796 O800 1.260 . S
C797 O804 1.240 . S
C797 O805 1.252 . S
C798 O801 1.252 . S
C798 O802 1.260 . S
O799 In793 2.266 . S
O799 C796 1.252 . S
O800 In793 2.326 . S
O800 C796 1.260 . S
O801 In793 2.266 . S
O801 C798 1.252 . S
O802 In793 2.326 . S
O802 C798 1.260 . S
C803 O794 1.240 . S
C803 O795 1.252 . S
O804 In793 2.294 . S
O804 C797 1.240 . S
O805 In793 2.326 . S
O805 C797 1.252 . S
In806 O807 2.294 . S
In806 O808 2.326 . S
In806 O812 2.266 . S
In806 O813 2.326 . S
In806 O814 2.266 . S
In806 O815 2.326 . S
In806 O817 2.294 . S
In806 O818 2.326 . S
O807 In806 2.294 . S
O807 C816 1.240 . S
O808 In806 2.326 . S
O808 C816 1.252 . S
C809 O812 1.252 . S
C809 O813 1.260 . S
C810 O817 1.240 . S
C810 O818 1.252 . S
C811 O814 1.252 . S
C811 O815 1.260 . S
O812 In806 2.266 . S
O812 C809 1.252 . S
O813 In806 2.326 . S
O813 C809 1.260 . S
O814 In806 2.266 . S
O814 C811 1.252 . S
O815 In806 2.326 . S
O815 C811 1.260 . S
C816 O807 1.240 . S
C816 O808 1.252 . S
O817 In806 2.294 . S
O817 C810 1.240 . S
O818 In806 2.326 . S
O818 C810 1.252 . S
In819 O820 2.294 . S
In819 O821 2.326 . S
In819 O825 2.266 . S
In819 O826 2.326 . S
In819 O827 2.266 . S
In819 O828 2.326 . S
In819 O830 2.294 . S
In819 O831 2.326 . S
O820 In819 2.294 . S
O820 C829 1.240 . S
O821 In819 2.326 . S
O821 C829 1.252 . S
C822 O825 1.252 . S
C822 O826 1.260 . S
C823 O830 1.240 . S
C823 O831 1.252 . S
C824 O827 1.252 . S
C824 O828 1.260 . S
O825 In819 2.266 . S
O825 C822 1.252 . S
O826 In819 2.326 . S
O826 C822 1.260 . S
O827 In819 2.266 . S
O827 C824 1.252 . S
O828 In819 2.326 . S
O828 C824 1.260 . S
C829 O820 1.240 . S
C829 O821 1.252 . S
O830 In819 2.294 . S
O830 C823 1.240 . S
O831 In819 2.326 . S
O831 C823 1.252 . S
In832 O833 2.294 . S
In832 O834 2.326 . S
In832 O838 2.266 . S
In832 O839 2.326 . S
In832 O840 2.266 . S
In832 O841 2.326 . S
In832 O843 2.294 . S
In832 O844 2.326 . S
O833 In832 2.294 . S
O833 C842 1.240 . S
O834 In832 2.326 . S
O834 C842 1.252 . S
C835 O838 1.252 . S
C835 O839 1.260 . S
C836 O843 1.240 . S
C836 O844 1.252 . S
C837 O840 1.252 . S
C837 O841 1.260 . S
O838 In832 2.266 . S
O838 C835 1.252 . S
O839 In832 2.326 . S
O839 C835 1.260 . S
O840 In832 2.266 . S
O840 C837 1.252 . S
O841 In832 2.326 . S
O841 C837 1.260 . S
C842 O833 1.240 . S
C842 O834 1.252 . S
O843 In832 2.294 . S
O843 C836 1.240 . S
O844 In832 2.326 . S
O844 C836 1.252 . S
In845 O846 2.294 . S
In845 O847 2.326 . S
In845 O851 2.266 . S
In845 O852 2.326 . S
In845 O853 2.266 . S
In845 O854 2.326 . S
In845 O856 2.294 . S
In845 O857 2.326 . S
O846 In845 2.294 . S
O846 C855 1.240 . S
O847 In845 2.326 . S
O847 C855 1.252 . S
C848 O851 1.252 . S
C848 O852 1.260 . S
C849 O856 1.240 . S
C849 O857 1.252 . S
C850 O853 1.252 . S
C850 O854 1.260 . S
O851 In845 2.266 . S
O851 C848 1.252 . S
O852 In845 2.326 . S
O852 C848 1.260 . S
O853 In845 2.266 . S
O853 C850 1.252 . S
O854 In845 2.326 . S
O854 C850 1.260 . S
C855 O846 1.240 . S
C855 O847 1.252 . S
O856 In845 2.294 . S
O856 C849 1.240 . S
O857 In845 2.326 . S
O857 C849 1.252 . S
In858 O859 2.294 . S
In858 O860 2.326 . S
In858 O864 2.266 . S
In858 O865 2.326 . S
In858 O866 2.266 . S
In858 O867 2.326 . S
In858 O869 2.294 . S
In858 O870 2.326 . S
O859 In858 2.294 . S
O859 C868 1.240 . S
O860 In858 2.326 . S
O860 C868 1.252 . S
C861 O864 1.252 . S
C861 O865 1.260 . S
C862 O869 1.240 . S
C862 O870 1.252 . S
C863 O866 1.252 . S
C863 O867 1.260 . S
O864 In858 2.266 . S
O864 C861 1.252 . S
O865 In858 2.326 . S
O865 C861 1.260 . S
O866 In858 2.266 . S
O866 C863 1.252 . S
O867 In858 2.326 . S
O867 C863 1.260 . S
C868 O859 1.240 . S
C868 O860 1.252 . S
O869 In858 2.294 . S
O869 C862 1.240 . S
O870 In858 2.326 . S
O870 C862 1.252 . S
In871 O872 2.294 . S
In871 O873 2.326 . S
In871 O877 2.266 . S
In871 O878 2.326 . S
In871 O879 2.266 . S
In871 O880 2.326 . S
In871 O882 2.294 . S
In871 O883 2.326 . S
O872 In871 2.294 . S
O872 C881 1.240 . S
O873 In871 2.326 . S
O873 C881 1.252 . S
C874 O877 1.252 . S
C874 O878 1.260 . S
C875 O882 1.240 . S
C875 O883 1.252 . S
C876 O879 1.252 . S
C876 O880 1.260 . S
O877 In871 2.266 . S
O877 C874 1.252 . S
O878 In871 2.326 . S
O878 C874 1.260 . S
O879 In871 2.266 . S
O879 C876 1.252 . S
O880 In871 2.326 . S
O880 C876 1.260 . S
C881 O872 1.240 . S
C881 O873 1.252 . S
O882 In871 2.294 . S
O882 C875 1.240 . S
O883 In871 2.326 . S
O883 C875 1.252 . S
In884 O885 2.294 . S
In884 O886 2.326 . S
In884 O890 2.266 . S
In884 O891 2.326 . S
In884 O892 2.266 . S
In884 O893 2.326 . S
In884 O895 2.294 . S
In884 O896 2.326 . S
O885 In884 2.294 . S
O885 C894 1.240 . S
O886 In884 2.326 . S
O886 C894 1.252 . S
C887 O890 1.252 . S
C887 O891 1.260 . S
C888 O895 1.240 . S
C888 O896 1.252 . S
C889 O892 1.252 . S
C889 O893 1.260 . S
O890 In884 2.266 . S
O890 C887 1.252 . S
O891 In884 2.326 . S
O891 C887 1.260 . S
O892 In884 2.266 . S
O892 C889 1.252 . S
O893 In884 2.326 . S
O893 C889 1.260 . S
C894 O885 1.240 . S
C894 O886 1.252 . S
O895 In884 2.294 . S
O895 C888 1.240 . S
O896 In884 2.326 . S
O896 C888 1.252 . S
In897 O898 2.294 . S
In897 O899 2.326 . S
In897 O903 2.266 . S
In897 O904 2.326 . S
In897 O905 2.266 . S
In897 O906 2.326 . S
In897 O908 2.294 . S
In897 O909 2.326 . S
O898 In897 2.294 . S
O898 C907 1.240 . S
O899 In897 2.326 . S
O899 C907 1.252 . S
C900 O903 1.252 . S
C900 O904 1.260 . S
C901 O908 1.240 . S
C901 O909 1.252 . S
C902 O905 1.252 . S
C902 O906 1.260 . S
O903 In897 2.266 . S
O903 C900 1.252 . S
O904 In897 2.326 . S
O904 C900 1.260 . S
O905 In897 2.266 . S
O905 C902 1.252 . S
O906 In897 2.326 . S
O906 C902 1.260 . S
C907 O898 1.240 . S
C907 O899 1.252 . S
O908 In897 2.294 . S
O908 C901 1.240 . S
O909 In897 2.326 . S
O909 C901 1.252 . S
In910 O911 2.294 . S
In910 O912 2.326 . S
In910 O916 2.266 . S
In910 O917 2.326 . S
In910 O918 2.266 . S
In910 O919 2.326 . S
In910 O921 2.294 . S
In910 O922 2.326 . S
O911 In910 2.294 . S
O911 C920 1.240 . S
O912 In910 2.326 . S
O912 C920 1.252 . S
C913 O916 1.252 . S
C913 O917 1.260 . S
C914 O921 1.240 . S
C914 O922 1.252 . S
C915 O918 1.252 . S
C915 O919 1.260 . S
O916 In910 2.266 . S
O916 C913 1.252 . S
O917 In910 2.326 . S
O917 C913 1.260 . S
O918 In910 2.266 . S
O918 C915 1.252 . S
O919 In910 2.326 . S
O919 C915 1.260 . S
C920 O911 1.240 . S
C920 O912 1.252 . S
O921 In910 2.294 . S
O921 C914 1.240 . S
O922 In910 2.326 . S
O922 C914 1.252 . S
In923 O924 2.294 . S
In923 O925 2.326 . S
In923 O929 2.266 . S
In923 O930 2.326 . S
In923 O931 2.266 . S
In923 O932 2.326 . S
In923 O934 2.294 . S
In923 O935 2.326 . S
O924 In923 2.294 . S
O924 C933 1.240 . S
O925 In923 2.326 . S
O925 C933 1.252 . S
C926 O929 1.252 . S
C926 O930 1.260 . S
C927 O934 1.240 . S
C927 O935 1.252 . S
C928 O931 1.252 . S
C928 O932 1.260 . S
O929 In923 2.266 . S
O929 C926 1.252 . S
O930 In923 2.326 . S
O930 C926 1.260 . S
O931 In923 2.266 . S
O931 C928 1.252 . S
O932 In923 2.326 . S
O932 C928 1.260 . S
C933 O924 1.240 . S
C933 O925 1.252 . S
O934 In923 2.294 . S
O934 C927 1.240 . S
O935 In923 2.326 . S
O935 C927 1.252 . S
In936 O937 2.294 . S
In936 O938 2.326 . S
In936 O942 2.266 . S
In936 O943 2.326 . S
In936 O944 2.266 . S
In936 O945 2.326 . S
In936 O947 2.294 . S
In936 O948 2.326 . S
O937 In936 2.294 . S
O937 C946 1.240 . S
O938 In936 2.326 . S
O938 C946 1.252 . S
C939 O942 1.252 . S
C939 O943 1.260 . S
C940 O947 1.240 . S
C940 O948 1.252 . S
C941 O944 1.252 . S
C941 O945 1.260 . S
O942 In936 2.266 . S
O942 C939 1.252 . S
O943 In936 2.326 . S
O943 C939 1.260 . S
O944 In936 2.266 . S
O944 C941 1.252 . S
O945 In936 2.326 . S
O945 C941 1.260 . S
C946 O937 1.240 . S
C946 O938 1.252 . S
O947 In936 2.294 . S
O947 C940 1.240 . S
O948 In936 2.326 . S
O948 C940 1.252 . S
In949 O950 2.294 . S
In949 O951 2.326 . S
In949 O955 2.266 . S
In949 O956 2.326 . S
In949 O957 2.266 . S
In949 O958 2.326 . S
In949 O960 2.294 . S
In949 O961 2.326 . S
O950 In949 2.294 . S
O950 C959 1.240 . S
O951 In949 2.326 . S
O951 C959 1.252 . S
C952 O955 1.252 . S
C952 O956 1.260 . S
C953 O960 1.240 . S
C953 O961 1.252 . S
C954 O957 1.252 . S
C954 O958 1.260 . S
O955 In949 2.266 . S
O955 C952 1.252 . S
O956 In949 2.326 . S
O956 C952 1.260 . S
O957 In949 2.266 . S
O957 C954 1.252 . S
O958 In949 2.326 . S
O958 C954 1.260 . S
C959 O950 1.240 . S
C959 O951 1.252 . S
O960 In949 2.294 . S
O960 C953 1.240 . S
O961 In949 2.326 . S
O961 C953 1.252 . S
In962 O963 2.294 . S
In962 O964 2.326 . S
In962 O968 2.266 . S
In962 O969 2.326 . S
In962 O970 2.266 . S
In962 O971 2.326 . S
In962 O973 2.294 . S
In962 O974 2.326 . S
O963 In962 2.294 . S
O963 C972 1.240 . S
O964 In962 2.326 . S
O964 C972 1.252 . S
C965 O968 1.252 . S
C965 O969 1.260 . S
C966 O973 1.240 . S
C966 O974 1.252 . S
C967 O970 1.252 . S
C967 O971 1.260 . S
O968 In962 2.266 . S
O968 C965 1.252 . S
O969 In962 2.326 . S
O969 C965 1.260 . S
O970 In962 2.266 . S
O970 C967 1.252 . S
O971 In962 2.326 . S
O971 C967 1.260 . S
C972 O963 1.240 . S
C972 O964 1.252 . S
O973 In962 2.294 . S
O973 C966 1.240 . S
O974 In962 2.326 . S
O974 C966 1.252 . S
In975 O976 2.294 . S
In975 O977 2.326 . S
In975 O981 2.266 . S
In975 O982 2.326 . S
In975 O983 2.266 . S
In975 O984 2.326 . S
In975 O986 2.294 . S
In975 O987 2.326 . S
O976 In975 2.294 . S
O976 C985 1.240 . S
O977 In975 2.326 . S
O977 C985 1.252 . S
C978 O981 1.252 . S
C978 O982 1.260 . S
C979 O986 1.240 . S
C979 O987 1.252 . S
C980 O983 1.252 . S
C980 O984 1.260 . S
O981 In975 2.266 . S
O981 C978 1.252 . S
O982 In975 2.326 . S
O982 C978 1.260 . S
O983 In975 2.266 . S
O983 C980 1.252 . S
O984 In975 2.326 . S
O984 C980 1.260 . S
C985 O976 1.240 . S
C985 O977 1.252 . S
O986 In975 2.294 . S
O986 C979 1.240 . S
O987 In975 2.326 . S
O987 C979 1.252 . S
In988 O989 2.294 . S
In988 O990 2.326 . S
In988 O994 2.266 . S
In988 O995 2.326 . S
In988 O996 2.266 . S
In988 O997 2.326 . S
In988 O999 2.294 . S
In988 O1000 2.326 . S
O989 In988 2.294 . S
O989 C998 1.240 . S
O990 In988 2.326 . S
O990 C998 1.252 . S
C991 O994 1.252 . S
C991 O995 1.260 . S
C992 O999 1.240 . S
C992 O1000 1.252 . S
C993 O996 1.252 . S
C993 O997 1.260 . S
O994 In988 2.266 . S
O994 C991 1.252 . S
O995 In988 2.326 . S
O995 C991 1.260 . S
O996 In988 2.266 . S
O996 C993 1.252 . S
O997 In988 2.326 . S
O997 C993 1.260 . S
C998 O989 1.240 . S
C998 O990 1.252 . S
O999 In988 2.294 . S
O999 C992 1.240 . S
O1000 In988 2.326 . S
O1000 C992 1.252 . S
In1001 O1002 2.294 . S
In1001 O1003 2.326 . S
In1001 O1007 2.266 . S
In1001 O1008 2.326 . S
In1001 O1009 2.266 . S
In1001 O1010 2.326 . S
In1001 O1012 2.294 . S
In1001 O1013 2.326 . S
O1002 In1001 2.294 . S
O1002 C1011 1.240 . S
O1003 In1001 2.326 . S
O1003 C1011 1.252 . S
C1004 O1007 1.252 . S
C1004 O1008 1.260 . S
C1005 O1012 1.240 . S
C1005 O1013 1.252 . S
C1006 O1009 1.252 . S
C1006 O1010 1.260 . S
O1007 In1001 2.266 . S
O1007 C1004 1.252 . S
O1008 In1001 2.326 . S
O1008 C1004 1.260 . S
O1009 In1001 2.266 . S
O1009 C1006 1.252 . S
O1010 In1001 2.326 . S
O1010 C1006 1.260 . S
C1011 O1002 1.240 . S
C1011 O1003 1.252 . S
O1012 In1001 2.294 . S
O1012 C1005 1.240 . S
O1013 In1001 2.326 . S
O1013 C1005 1.252 . S
In1014 O1015 2.294 . S
In1014 O1016 2.326 . S
In1014 O1020 2.266 . S
In1014 O1021 2.326 . S
In1014 O1022 2.266 . S
In1014 O1023 2.326 . S
In1014 O1025 2.294 . S
In1014 O1026 2.326 . S
O1015 In1014 2.294 . S
O1015 C1024 1.240 . S
O1016 In1014 2.326 . S
O1016 C1024 1.252 . S
C1017 O1020 1.252 . S
C1017 O1021 1.260 . S
C1018 O1025 1.240 . S
C1018 O1026 1.252 . S
C1019 O1022 1.252 . S
C1019 O1023 1.260 . S
O1020 In1014 2.266 . S
O1020 C1017 1.252 . S
O1021 In1014 2.326 . S
O1021 C1017 1.260 . S
O1022 In1014 2.266 . S
O1022 C1019 1.252 . S
O1023 In1014 2.326 . S
O1023 C1019 1.260 . S
C1024 O1015 1.240 . S
C1024 O1016 1.252 . S
O1025 In1014 2.294 . S
O1025 C1018 1.240 . S
O1026 In1014 2.326 . S
O1026 C1018 1.252 . S
In1027 O1028 2.294 . S
In1027 O1029 2.326 . S
In1027 O1033 2.266 . S
In1027 O1034 2.326 . S
In1027 O1035 2.266 . S
In1027 O1036 2.326 . S
In1027 O1038 2.294 . S
In1027 O1039 2.326 . S
O1028 In1027 2.294 . S
O1028 C1037 1.240 . S
O1029 In1027 2.326 . S
O1029 C1037 1.252 . S
C1030 O1033 1.252 . S
C1030 O1034 1.260 . S
C1031 O1038 1.240 . S
C1031 O1039 1.252 . S
C1032 O1035 1.252 . S
C1032 O1036 1.260 . S
O1033 In1027 2.266 . S
O1033 C1030 1.252 . S
O1034 In1027 2.326 . S
O1034 C1030 1.260 . S
O1035 In1027 2.266 . S
O1035 C1032 1.252 . S
O1036 In1027 2.326 . S
O1036 C1032 1.260 . S
C1037 O1028 1.240 . S
C1037 O1029 1.252 . S
O1038 In1027 2.294 . S
O1038 C1031 1.240 . S
O1039 In1027 2.326 . S
O1039 C1031 1.252 . S
In1040 O1041 2.294 . S
In1040 O1042 2.326 . S
In1040 O1046 2.266 . S
In1040 O1047 2.326 . S
In1040 O1048 2.266 . S
In1040 O1049 2.326 . S
In1040 O1051 2.294 . S
In1040 O1052 2.326 . S
O1041 In1040 2.294 . S
O1041 C1050 1.240 . S
O1042 In1040 2.326 . S
O1042 C1050 1.252 . S
C1043 O1046 1.252 . S
C1043 O1047 1.260 . S
C1044 O1051 1.240 . S
C1044 O1052 1.252 . S
C1045 O1048 1.252 . S
C1045 O1049 1.260 . S
O1046 In1040 2.266 . S
O1046 C1043 1.252 . S
O1047 In1040 2.326 . S
O1047 C1043 1.260 . S
O1048 In1040 2.266 . S
O1048 C1045 1.252 . S
O1049 In1040 2.326 . S
O1049 C1045 1.260 . S
C1050 O1041 1.240 . S
C1050 O1042 1.252 . S
O1051 In1040 2.294 . S
O1051 C1044 1.240 . S
O1052 In1040 2.326 . S
O1052 C1044 1.252 . S
In1053 O1054 2.294 . S
In1053 O1055 2.326 . S
In1053 O1059 2.266 . S
In1053 O1060 2.326 . S
In1053 O1061 2.266 . S
In1053 O1062 2.326 . S
In1053 O1064 2.294 . S
In1053 O1065 2.326 . S
O1054 In1053 2.294 . S
O1054 C1063 1.240 . S
O1055 In1053 2.326 . S
O1055 C1063 1.252 . S
C1056 O1059 1.252 . S
C1056 O1060 1.260 . S
C1057 O1064 1.240 . S
C1057 O1065 1.252 . S
C1058 O1061 1.252 . S
C1058 O1062 1.260 . S
O1059 In1053 2.266 . S
O1059 C1056 1.252 . S
O1060 In1053 2.326 . S
O1060 C1056 1.260 . S
O1061 In1053 2.266 . S
O1061 C1058 1.252 . S
O1062 In1053 2.326 . S
O1062 C1058 1.260 . S
C1063 O1054 1.240 . S
C1063 O1055 1.252 . S
O1064 In1053 2.294 . S
O1064 C1057 1.240 . S
O1065 In1053 2.326 . S
O1065 C1057 1.252 . S
In1066 O1067 2.294 . S
In1066 O1068 2.326 . S
In1066 O1072 2.266 . S
In1066 O1073 2.326 . S
In1066 O1074 2.266 . S
In1066 O1075 2.326 . S
In1066 O1077 2.294 . S
In1066 O1078 2.326 . S
O1067 In1066 2.294 . S
O1067 C1076 1.240 . S
O1068 In1066 2.326 . S
O1068 C1076 1.252 . S
C1069 O1072 1.252 . S
C1069 O1073 1.260 . S
C1070 O1077 1.240 . S
C1070 O1078 1.252 . S
C1071 O1074 1.252 . S
C1071 O1075 1.260 . S
O1072 In1066 2.266 . S
O1072 C1069 1.252 . S
O1073 In1066 2.326 . S
O1073 C1069 1.260 . S
O1074 In1066 2.266 . S
O1074 C1071 1.252 . S
O1075 In1066 2.326 . S
O1075 C1071 1.260 . S
C1076 O1067 1.240 . S
C1076 O1068 1.252 . S
O1077 In1066 2.294 . S
O1077 C1070 1.240 . S
O1078 In1066 2.326 . S
O1078 C1070 1.252 . S
In1079 O1080 2.294 . S
In1079 O1081 2.326 . S
In1079 O1085 2.266 . S
In1079 O1086 2.326 . S
In1079 O1087 2.266 . S
In1079 O1088 2.326 . S
In1079 O1090 2.294 . S
In1079 O1091 2.326 . S
O1080 In1079 2.294 . S
O1080 C1089 1.240 . S
O1081 In1079 2.326 . S
O1081 C1089 1.252 . S
C1082 O1085 1.252 . S
C1082 O1086 1.260 . S
C1083 O1090 1.240 . S
C1083 O1091 1.252 . S
C1084 O1087 1.252 . S
C1084 O1088 1.260 . S
O1085 In1079 2.266 . S
O1085 C1082 1.252 . S
O1086 In1079 2.326 . S
O1086 C1082 1.260 . S
O1087 In1079 2.266 . S
O1087 C1084 1.252 . S
O1088 In1079 2.326 . S
O1088 C1084 1.260 . S
C1089 O1080 1.240 . S
C1089 O1081 1.252 . S
O1090 In1079 2.294 . S
O1090 C1083 1.240 . S
O1091 In1079 2.326 . S
O1091 C1083 1.252 . S
In1092 O1093 2.294 . S
In1092 O1094 2.326 . S
In1092 O1098 2.266 . S
In1092 O1099 2.326 . S
In1092 O1100 2.266 . S
In1092 O1101 2.326 . S
In1092 O1103 2.294 . S
In1092 O1104 2.326 . S
O1093 In1092 2.294 . S
O1093 C1102 1.240 . S
O1094 In1092 2.326 . S
O1094 C1102 1.252 . S
C1095 O1098 1.252 . S
C1095 O1099 1.260 . S
C1096 O1103 1.240 . S
C1096 O1104 1.252 . S
C1097 O1100 1.252 . S
C1097 O1101 1.260 . S
O1098 In1092 2.266 . S
O1098 C1095 1.252 . S
O1099 In1092 2.326 . S
O1099 C1095 1.260 . S
O1100 In1092 2.266 . S
O1100 C1097 1.252 . S
O1101 In1092 2.326 . S
O1101 C1097 1.260 . S
C1102 O1093 1.240 . S
C1102 O1094 1.252 . S
O1103 In1092 2.294 . S
O1103 C1096 1.240 . S
O1104 In1092 2.326 . S
O1104 C1096 1.252 . S
In1105 O1106 2.294 . S
In1105 O1107 2.326 . S
In1105 O1111 2.266 . S
In1105 O1112 2.326 . S
In1105 O1113 2.266 . S
In1105 O1114 2.326 . S
In1105 O1116 2.294 . S
In1105 O1117 2.326 . S
O1106 In1105 2.294 . S
O1106 C1115 1.240 . S
O1107 In1105 2.326 . S
O1107 C1115 1.252 . S
C1108 O1111 1.252 . S
C1108 O1112 1.260 . S
C1109 O1116 1.240 . S
C1109 O1117 1.252 . S
C1110 O1113 1.252 . S
C1110 O1114 1.260 . S
O1111 In1105 2.266 . S
O1111 C1108 1.252 . S
O1112 In1105 2.326 . S
O1112 C1108 1.260 . S
O1113 In1105 2.266 . S
O1113 C1110 1.252 . S
O1114 In1105 2.326 . S
O1114 C1110 1.260 . S
C1115 O1106 1.240 . S
C1115 O1107 1.252 . S
O1116 In1105 2.294 . S
O1116 C1109 1.240 . S
O1117 In1105 2.326 . S
O1117 C1109 1.252 . S
In1118 O1119 2.294 . S
In1118 O1120 2.326 . S
In1118 O1124 2.266 . S
In1118 O1125 2.326 . S
In1118 O1126 2.266 . S
In1118 O1127 2.326 . S
In1118 O1129 2.294 . S
In1118 O1130 2.326 . S
O1119 In1118 2.294 . S
O1119 C1128 1.240 . S
O1120 In1118 2.326 . S
O1120 C1128 1.252 . S
C1121 O1124 1.252 . S
C1121 O1125 1.260 . S
C1122 O1129 1.240 . S
C1122 O1130 1.252 . S
C1123 O1126 1.252 . S
C1123 O1127 1.260 . S
O1124 In1118 2.266 . S
O1124 C1121 1.252 . S
O1125 In1118 2.326 . S
O1125 C1121 1.260 . S
O1126 In1118 2.266 . S
O1126 C1123 1.252 . S
O1127 In1118 2.326 . S
O1127 C1123 1.260 . S
C1128 O1119 1.240 . S
C1128 O1120 1.252 . S
O1129 In1118 2.294 . S
O1129 C1122 1.240 . S
O1130 In1118 2.326 . S
O1130 C1122 1.252 . S
In1131 O1132 2.294 . S
In1131 O1133 2.326 . S
In1131 O1137 2.266 . S
In1131 O1138 2.326 . S
In1131 O1139 2.266 . S
In1131 O1140 2.326 . S
In1131 O1142 2.294 . S
In1131 O1143 2.326 . S
O1132 In1131 2.294 . S
O1132 C1141 1.240 . S
O1133 In1131 2.326 . S
O1133 C1141 1.252 . S
C1134 O1137 1.252 . S
C1134 O1138 1.260 . S
C1135 O1142 1.240 . S
C1135 O1143 1.252 . S
C1136 O1139 1.252 . S
C1136 O1140 1.260 . S
O1137 In1131 2.266 . S
O1137 C1134 1.252 . S
O1138 In1131 2.326 . S
O1138 C1134 1.260 . S
O1139 In1131 2.266 . S
O1139 C1136 1.252 . S
O1140 In1131 2.326 . S
O1140 C1136 1.260 . S
C1141 O1132 1.240 . S
C1141 O1133 1.252 . S
O1142 In1131 2.294 . S
O1142 C1135 1.240 . S
O1143 In1131 2.326 . S
O1143 C1135 1.252 . S
In1144 O1145 2.294 . S
In1144 O1146 2.326 . S
In1144 O1150 2.266 . S
In1144 O1151 2.326 . S
In1144 O1152 2.266 . S
In1144 O1153 2.326 . S
In1144 O1155 2.294 . S
In1144 O1156 2.326 . S
O1145 In1144 2.294 . S
O1145 C1154 1.240 . S
O1146 In1144 2.326 . S
O1146 C1154 1.252 . S
C1147 O1150 1.252 . S
C1147 O1151 1.260 . S
C1148 O1155 1.240 . S
C1148 O1156 1.252 . S
C1149 O1152 1.252 . S
C1149 O1153 1.260 . S
O1150 In1144 2.266 . S
O1150 C1147 1.252 . S
O1151 In1144 2.326 . S
O1151 C1147 1.260 . S
O1152 In1144 2.266 . S
O1152 C1149 1.252 . S
O1153 In1144 2.326 . S
O1153 C1149 1.260 . S
C1154 O1145 1.240 . S
C1154 O1146 1.252 . S
O1155 In1144 2.294 . S
O1155 C1148 1.240 . S
O1156 In1144 2.326 . S
O1156 C1148 1.252 . S
In1157 O1158 2.294 . S
In1157 O1159 2.326 . S
In1157 O1163 2.266 . S
In1157 O1164 2.326 . S
In1157 O1165 2.266 . S
In1157 O1166 2.326 . S
In1157 O1168 2.294 . S
In1157 O1169 2.326 . S
O1158 In1157 2.294 . S
O1158 C1167 1.240 . S
O1159 In1157 2.326 . S
O1159 C1167 1.252 . S
C1160 O1163 1.252 . S
C1160 O1164 1.260 . S
C1161 O1168 1.240 . S
C1161 O1169 1.252 . S
C1162 O1165 1.252 . S
C1162 O1166 1.260 . S
O1163 In1157 2.266 . S
O1163 C1160 1.252 . S
O1164 In1157 2.326 . S
O1164 C1160 1.260 . S
O1165 In1157 2.266 . S
O1165 C1162 1.252 . S
O1166 In1157 2.326 . S
O1166 C1162 1.260 . S
C1167 O1158 1.240 . S
C1167 O1159 1.252 . S
O1168 In1157 2.294 . S
O1168 C1161 1.240 . S
O1169 In1157 2.326 . S
O1169 C1161 1.252 . S
In1170 O1171 2.294 . S
In1170 O1172 2.326 . S
In1170 O1176 2.266 . S
In1170 O1177 2.326 . S
In1170 O1178 2.266 . S
In1170 O1179 2.326 . S
In1170 O1181 2.294 . S
In1170 O1182 2.326 . S
O1171 In1170 2.294 . S
O1171 C1180 1.240 . S
O1172 In1170 2.326 . S
O1172 C1180 1.252 . S
C1173 O1176 1.252 . S
C1173 O1177 1.260 . S
C1174 O1181 1.240 . S
C1174 O1182 1.252 . S
C1175 O1178 1.252 . S
C1175 O1179 1.260 . S
O1176 In1170 2.266 . S
O1176 C1173 1.252 . S
O1177 In1170 2.326 . S
O1177 C1173 1.260 . S
O1178 In1170 2.266 . S
O1178 C1175 1.252 . S
O1179 In1170 2.326 . S
O1179 C1175 1.260 . S
C1180 O1171 1.240 . S
C1180 O1172 1.252 . S
O1181 In1170 2.294 . S
O1181 C1174 1.240 . S
O1182 In1170 2.326 . S
O1182 C1174 1.252 . S
In1183 O1184 2.294 . S
In1183 O1185 2.326 . S
In1183 O1189 2.266 . S
In1183 O1190 2.326 . S
In1183 O1191 2.266 . S
In1183 O1192 2.326 . S
In1183 O1194 2.294 . S
In1183 O1195 2.326 . S
O1184 In1183 2.294 . S
O1184 C1193 1.240 . S
O1185 In1183 2.326 . S
O1185 C1193 1.252 . S
C1186 O1189 1.252 . S
C1186 O1190 1.260 . S
C1187 O1194 1.240 . S
C1187 O1195 1.252 . S
C1188 O1191 1.252 . S
C1188 O1192 1.260 . S
O1189 In1183 2.266 . S
O1189 C1186 1.252 . S
O1190 In1183 2.326 . S
O1190 C1186 1.260 . S
O1191 In1183 2.266 . S
O1191 C1188 1.252 . S
O1192 In1183 2.326 . S
O1192 C1188 1.260 . S
C1193 O1184 1.240 . S
C1193 O1185 1.252 . S
O1194 In1183 2.294 . S
O1194 C1187 1.240 . S
O1195 In1183 2.326 . S
O1195 C1187 1.252 . S
In1196 O1197 2.294 . S
In1196 O1198 2.326 . S
In1196 O1202 2.266 . S
In1196 O1203 2.326 . S
In1196 O1204 2.266 . S
In1196 O1205 2.326 . S
In1196 O1207 2.294 . S
In1196 O1208 2.326 . S
O1197 In1196 2.294 . S
O1197 C1206 1.240 . S
O1198 In1196 2.326 . S
O1198 C1206 1.252 . S
C1199 O1202 1.252 . S
C1199 O1203 1.260 . S
C1200 O1207 1.240 . S
C1200 O1208 1.252 . S
C1201 O1204 1.252 . S
C1201 O1205 1.260 . S
O1202 In1196 2.266 . S
O1202 C1199 1.252 . S
O1203 In1196 2.326 . S
O1203 C1199 1.260 . S
O1204 In1196 2.266 . S
O1204 C1201 1.252 . S
O1205 In1196 2.326 . S
O1205 C1201 1.260 . S
C1206 O1197 1.240 . S
C1206 O1198 1.252 . S
O1207 In1196 2.294 . S
O1207 C1200 1.240 . S
O1208 In1196 2.326 . S
O1208 C1200 1.252 . S
In1209 O1210 2.294 . S
In1209 O1211 2.326 . S
In1209 O1215 2.266 . S
In1209 O1216 2.326 . S
In1209 O1217 2.266 . S
In1209 O1218 2.326 . S
In1209 O1220 2.294 . S
In1209 O1221 2.326 . S
O1210 In1209 2.294 . S
O1210 C1219 1.240 . S
O1211 In1209 2.326 . S
O1211 C1219 1.252 . S
C1212 O1215 1.252 . S
C1212 O1216 1.260 . S
C1213 O1220 1.240 . S
C1213 O1221 1.252 . S
C1214 O1217 1.252 . S
C1214 O1218 1.260 . S
O1215 In1209 2.266 . S
O1215 C1212 1.252 . S
O1216 In1209 2.326 . S
O1216 C1212 1.260 . S
O1217 In1209 2.266 . S
O1217 C1214 1.252 . S
O1218 In1209 2.326 . S
O1218 C1214 1.260 . S
C1219 O1210 1.240 . S
C1219 O1211 1.252 . S
O1220 In1209 2.294 . S
O1220 C1213 1.240 . S
O1221 In1209 2.326 . S
O1221 C1213 1.252 . S
In1222 O1223 2.294 . S
In1222 O1224 2.326 . S
In1222 O1228 2.266 . S
In1222 O1229 2.326 . S
In1222 O1230 2.266 . S
In1222 O1231 2.326 . S
In1222 O1233 2.294 . S
In1222 O1234 2.326 . S
O1223 In1222 2.294 . S
O1223 C1232 1.240 . S
O1224 In1222 2.326 . S
O1224 C1232 1.252 . S
C1225 O1228 1.252 . S
C1225 O1229 1.260 . S
C1226 O1233 1.240 . S
C1226 O1234 1.252 . S
C1227 O1230 1.252 . S
C1227 O1231 1.260 . S
O1228 In1222 2.266 . S
O1228 C1225 1.252 . S
O1229 In1222 2.326 . S
O1229 C1225 1.260 . S
O1230 In1222 2.266 . S
O1230 C1227 1.252 . S
O1231 In1222 2.326 . S
O1231 C1227 1.260 . S
C1232 O1223 1.240 . S
C1232 O1224 1.252 . S
O1233 In1222 2.294 . S
O1233 C1226 1.240 . S
O1234 In1222 2.326 . S
O1234 C1226 1.252 . S
In1235 O1236 2.294 . S
In1235 O1237 2.326 . S
In1235 O1241 2.266 . S
In1235 O1242 2.326 . S
In1235 O1243 2.266 . S
In1235 O1244 2.326 . S
In1235 O1246 2.294 . S
In1235 O1247 2.326 . S
O1236 In1235 2.294 . S
O1236 C1245 1.240 . S
O1237 In1235 2.326 . S
O1237 C1245 1.252 . S
C1238 O1241 1.252 . S
C1238 O1242 1.260 . S
C1239 O1246 1.240 . S
C1239 O1247 1.252 . S
C1240 O1243 1.252 . S
C1240 O1244 1.260 . S
O1241 In1235 2.266 . S
O1241 C1238 1.252 . S
O1242 In1235 2.326 . S
O1242 C1238 1.260 . S
O1243 In1235 2.266 . S
O1243 C1240 1.252 . S
O1244 In1235 2.326 . S
O1244 C1240 1.260 . S
C1245 O1236 1.240 . S
C1245 O1237 1.252 . S
O1246 In1235 2.294 . S
O1246 C1239 1.240 . S
O1247 In1235 2.326 . S
O1247 C1239 1.252 . S
H1248 C1254 0.930 . S
H1249 C1258 0.930 . S
H1250 C1263 0.929 . S
H1251 C1261 0.929 . S
H1252 C1256 0.929 . S
H1253 C1262 0.929 . S
C1254 H1248 0.930 . S
C1254 C1255 1.367 . S
C1254 C1262 1.378 . S
C1255 C1254 1.367 . S
C1255 C1263 1.433 . S
C1256 H1252 0.929 . S
C1256 C1258 1.378 . S
C1256 C1260 1.350 . S
C1257 C1260 1.463 . S
C1257 C1262 1.350 . S
C1257 N1265 1.427 . S
C1258 H1249 0.930 . S
C1258 C1256 1.378 . S
C1258 C1259 1.367 . S
C1259 C1258 1.367 . S
C1259 C1261 1.433 . S
C1260 C1256 1.350 . S
C1260 C1257 1.463 . S
C1260 N1264 1.427 . S
C1261 H1251 0.929 . S
C1261 C1259 1.433 . S
C1261 N1264 1.384 . S
C1262 H1253 0.929 . S
C1262 C1254 1.378 . S
C1262 C1257 1.350 . S
C1263 H1250 0.929 . S
C1263 C1255 1.433 . S
C1263 N1265 1.384 . S
N1264 C1260 1.427 . S
N1264 C1261 1.384 . S
N1265 C1257 1.427 . S
N1265 C1263 1.384 . S
H1266 C1272 0.930 . S
H1267 C1276 0.930 . S
H1268 C1281 0.929 1_655 S
H1269 C1279 0.929 . S
H1270 C1274 0.929 . S
H1271 C1280 0.929 . S
C1272 H1266 0.930 . S
C1272 C1273 1.342 1_455 S
C1272 C1280 1.378 . S
C1273 C1272 1.342 1_655 S
C1273 C1281 1.425 1_655 S
C1274 H1270 0.929 . S
C1274 C1276 1.378 . S
C1274 C1278 1.350 . S
C1275 C1278 1.463 . S
C1275 C1280 1.350 . S
C1275 N1283 1.427 . S
C1276 H1267 0.930 . S
C1276 C1274 1.378 . S
C1276 C1277 1.367 . S
C1277 C1276 1.367 . S
C1277 C1279 1.433 . S
C1278 C1274 1.350 . S
C1278 C1275 1.463 . S
C1278 N1282 1.427 . S
C1279 H1269 0.929 . S
C1279 C1277 1.433 . S
C1279 N1282 1.384 . S
C1280 H1271 0.929 . S
C1280 C1272 1.378 . S
C1280 C1275 1.350 . S
C1281 H1268 0.929 1_455 S
C1281 C1273 1.425 1_455 S
C1281 N1283 1.384 . S
N1282 C1278 1.427 . S
N1282 C1279 1.384 . S
N1283 C1275 1.427 . S
N1283 C1281 1.384 . S
H1284 C1290 0.930 . S
H1285 C1294 0.930 . S
H1286 C1299 0.929 . S
H1287 C1297 0.929 . S
H1288 C1292 0.929 . S
H1289 C1298 0.929 . S
C1290 H1284 0.930 . S
C1290 C1291 1.367 . S
C1290 C1298 1.378 . S
C1291 C1290 1.367 . S
C1291 C1299 1.433 . S
C1292 H1288 0.929 . S
C1292 C1294 1.378 . S
C1292 C1296 1.350 . S
C1293 C1296 1.463 . S
C1293 C1298 1.350 . S
C1293 N1301 1.427 . S
C1294 H1285 0.930 . S
C1294 C1292 1.378 . S
C1294 C1295 1.367 . S
C1295 C1294 1.367 . S
C1295 C1297 1.433 . S
C1296 C1292 1.350 . S
C1296 C1293 1.463 . S
C1296 N1300 1.427 . S
C1297 H1287 0.929 . S
C1297 C1295 1.433 . S
C1297 N1300 1.384 . S
C1298 H1289 0.929 . S
C1298 C1290 1.378 . S
C1298 C1293 1.350 . S
C1299 H1286 0.929 . S
C1299 C1291 1.433 . S
C1299 N1301 1.384 . S
N1300 C1296 1.427 . S
N1300 C1297 1.384 . S
N1301 C1293 1.427 . S
N1301 C1299 1.384 . S
H1302 C1308 0.930 . S
H1303 C1312 0.930 . S
H1304 C1317 0.929 . S
H1305 C1315 0.929 . S
H1306 C1310 0.929 . S
H1307 C1316 0.929 . S
C1308 H1302 0.930 . S
C1308 C1309 1.367 . S
C1308 C1316 1.378 . S
C1309 C1308 1.367 . S
C1309 C1317 1.433 . S
C1310 H1306 0.929 . S
C1310 C1312 1.378 . S
C1310 C1314 1.350 . S
C1311 C1314 1.463 . S
C1311 C1316 1.350 . S
C1311 N1319 1.427 . S
C1312 H1303 0.930 . S
C1312 C1310 1.378 . S
C1312 C1313 1.367 . S
C1313 C1312 1.367 . S
C1313 C1315 1.433 . S
C1314 C1310 1.350 . S
C1314 C1311 1.463 . S
C1314 N1318 1.427 . S
C1315 H1305 0.929 . S
C1315 C1313 1.433 . S
C1315 N1318 1.384 . S
C1316 H1307 0.929 . S
C1316 C1308 1.378 . S
C1316 C1311 1.350 . S
C1317 H1304 0.929 . S
C1317 C1309 1.433 . S
C1317 N1319 1.384 . S
N1318 C1314 1.427 . S
N1318 C1315 1.384 . S
N1319 C1311 1.427 . S
N1319 C1317 1.384 . S
H1320 C1326 0.930 . S
H1321 C1330 0.930 . S
H1322 C1335 0.929 . S
H1323 C1333 0.929 . S
H1324 C1328 0.929 . S
H1325 C1334 0.929 . S
C1326 H1320 0.930 . S
C1326 C1327 1.367 . S
C1326 C1334 1.378 . S
C1327 C1326 1.367 . S
C1327 C1335 1.433 . S
C1328 H1324 0.929 . S
C1328 C1330 1.378 . S
C1328 C1332 1.350 . S
C1329 C1332 1.463 . S
C1329 C1334 1.350 . S
C1329 N1337 1.427 . S
C1330 H1321 0.930 . S
C1330 C1328 1.378 . S
C1330 C1331 1.367 . S
C1331 C1330 1.367 . S
C1331 C1333 1.433 . S
C1332 C1328 1.350 . S
C1332 C1329 1.463 . S
C1332 N1336 1.427 . S
C1333 H1323 0.929 . S
C1333 C1331 1.433 . S
C1333 N1336 1.384 . S
C1334 H1325 0.929 . S
C1334 C1326 1.378 . S
C1334 C1329 1.350 . S
C1335 H1322 0.929 . S
C1335 C1327 1.433 . S
C1335 N1337 1.384 . S
N1336 C1332 1.427 . S
N1336 C1333 1.384 . S
N1337 C1329 1.427 . S
N1337 C1335 1.384 . S
H1338 C1344 0.930 . S
H1339 C1348 0.930 . S
H1340 C1353 0.929 . S
H1341 C1351 0.929 . S
H1342 C1346 0.929 . S
H1343 C1352 0.929 . S
C1344 H1338 0.930 . S
C1344 C1345 1.367 . S
C1344 C1352 1.378 . S
C1345 C1344 1.367 . S
C1345 C1353 1.433 . S
C1346 H1342 0.929 . S
C1346 C1348 1.378 . S
C1346 C1350 1.350 . S
C1347 C1350 1.463 . S
C1347 C1352 1.350 . S
C1347 N1355 1.427 . S
C1348 H1339 0.930 . S
C1348 C1346 1.378 . S
C1348 C1349 1.367 . S
C1349 C1348 1.367 . S
C1349 C1351 1.433 . S
C1350 C1346 1.350 . S
C1350 C1347 1.463 . S
C1350 N1354 1.427 . S
C1351 H1341 0.929 . S
C1351 C1349 1.433 . S
C1351 N1354 1.384 . S
C1352 H1343 0.929 . S
C1352 C1344 1.378 . S
C1352 C1347 1.350 . S
C1353 H1340 0.929 . S
C1353 C1345 1.433 . S
C1353 N1355 1.384 . S
N1354 C1350 1.427 . S
N1354 C1351 1.384 . S
N1355 C1347 1.427 . S
N1355 C1353 1.384 . S
H1356 C1362 0.930 . S
H1357 C1366 0.930 . S
H1358 C1371 0.929 . S
H1359 C1369 0.929 . S
H1360 C1364 0.929 . S
H1361 C1370 0.929 . S
C1362 H1356 0.930 . S
C1362 C1363 1.367 . S
C1362 C1370 1.378 . S
C1363 C1362 1.367 . S
C1363 C1371 1.433 . S
C1364 H1360 0.929 . S
C1364 C1366 1.378 . S
C1364 C1368 1.350 . S
C1365 C1368 1.463 . S
C1365 C1370 1.350 . S
C1365 N1373 1.427 . S
C1366 H1357 0.930 . S
C1366 C1364 1.378 . S
C1366 C1367 1.367 . S
C1367 C1366 1.367 . S
C1367 C1369 1.433 . S
C1368 C1364 1.350 . S
C1368 C1365 1.463 . S
C1368 N1372 1.427 . S
C1369 H1359 0.929 . S
C1369 C1367 1.433 . S
C1369 N1372 1.384 . S
C1370 H1361 0.929 . S
C1370 C1362 1.378 . S
C1370 C1365 1.350 . S
C1371 H1358 0.929 . S
C1371 C1363 1.433 . S
C1371 N1373 1.384 . S
N1372 C1368 1.427 . S
N1372 C1369 1.384 . S
N1373 C1365 1.427 . S
N1373 C1371 1.384 . S
H1374 C1380 0.930 . S
H1375 C1384 0.894 1_655 S
H1376 C1389 0.929 . S
H1377 C1387 0.929 . S
H1378 C1382 0.929 . S
H1379 C1388 0.929 . S
C1380 H1374 0.930 . S
C1380 C1381 1.367 . S
C1380 C1388 1.378 . S
C1381 C1380 1.367 . S
C1381 C1389 1.433 . S
C1382 H1378 0.929 . S
C1382 C1384 1.421 . S
C1382 C1386 1.350 . S
C1383 C1386 1.463 . S
C1383 C1388 1.350 . S
C1383 N1391 1.427 . S
C1384 H1375 0.894 1_455 S
C1384 C1382 1.421 . S
C1384 C1385 1.360 1_455 S
C1385 C1384 1.360 1_655 S
C1385 C1387 1.394 1_655 S
C1386 C1382 1.350 . S
C1386 C1383 1.463 . S
C1386 N1390 1.427 . S
C1387 H1377 0.929 . S
C1387 C1385 1.394 1_455 S
C1387 N1390 1.384 . S
C1388 H1379 0.929 . S
C1388 C1380 1.378 . S
C1388 C1383 1.350 . S
C1389 H1376 0.929 . S
C1389 C1381 1.433 . S
C1389 N1391 1.384 . S
N1390 C1386 1.427 . S
N1390 C1387 1.384 . S
N1391 C1383 1.427 . S
N1391 C1389 1.384 . S
H1392 C1398 0.930 . S
H1393 C1402 0.930 . S
H1394 C1407 0.929 . S
H1395 C1405 0.929 . S
H1396 C1400 0.929 . S
H1397 C1406 0.929 . S
C1398 H1392 0.930 . S
C1398 C1399 1.367 . S
C1398 C1406 1.378 . S
C1399 C1398 1.367 . S
C1399 C1407 1.433 . S
C1400 H1396 0.929 . S
C1400 C1402 1.378 . S
C1400 C1404 1.350 . S
C1401 C1404 1.463 . S
C1401 C1406 1.350 . S
C1401 N1409 1.427 . S
C1402 H1393 0.930 . S
C1402 C1400 1.378 . S
C1402 C1403 1.367 . S
C1403 C1402 1.367 . S
C1403 C1405 1.433 . S
C1404 C1400 1.350 . S
C1404 C1401 1.463 . S
C1404 N1408 1.427 . S
C1405 H1395 0.929 . S
C1405 C1403 1.433 . S
C1405 N1408 1.384 . S
C1406 H1397 0.929 . S
C1406 C1398 1.378 . S
C1406 C1401 1.350 . S
C1407 H1394 0.929 . S
C1407 C1399 1.433 . S
C1407 N1409 1.384 . S
N1408 C1404 1.427 . S
N1408 C1405 1.384 . S
N1409 C1401 1.427 . S
N1409 C1407 1.384 . S
H1410 C1416 0.930 . S
H1411 C1420 0.930 . S
H1412 C1425 0.929 . S
H1413 C1423 0.929 . S
H1414 C1418 0.929 . S
H1415 C1424 0.929 . S
C1416 H1410 0.930 . S
C1416 C1417 1.367 . S
C1416 C1424 1.378 . S
C1417 C1416 1.367 . S
C1417 C1425 1.433 . S
C1418 H1414 0.929 . S
C1418 C1420 1.378 . S
C1418 C1422 1.350 . S
C1419 C1422 1.463 . S
C1419 C1424 1.350 . S
C1419 N1427 1.427 . S
C1420 H1411 0.930 . S
C1420 C1418 1.378 . S
C1420 C1421 1.367 . S
C1421 C1420 1.367 . S
C1421 C1423 1.433 . S
C1422 C1418 1.350 . S
C1422 C1419 1.463 . S
C1422 N1426 1.427 . S
C1423 H1413 0.929 . S
C1423 C1421 1.433 . S
C1423 N1426 1.384 . S
C1424 H1415 0.929 . S
C1424 C1416 1.378 . S
C1424 C1419 1.350 . S
C1425 H1412 0.929 . S
C1425 C1417 1.433 . S
C1425 N1427 1.384 . S
N1426 C1422 1.427 . S
N1426 C1423 1.384 . S
N1427 C1419 1.427 . S
N1427 C1425 1.384 . S
H1428 C1434 0.930 . S
H1429 C1438 0.930 . S
H1430 C1443 0.929 . S
H1431 C1441 0.929 . S
H1432 C1436 0.929 . S
H1433 C1442 0.929 . S
C1434 H1428 0.930 . S
C1434 C1435 1.367 . S
C1434 C1442 1.378 . S
C1435 C1434 1.367 . S
C1435 C1443 1.433 . S
C1436 H1432 0.929 . S
C1436 C1438 1.378 . S
C1436 C1440 1.350 . S
C1437 C1440 1.463 . S
C1437 C1442 1.350 . S
C1437 N1445 1.427 . S
C1438 H1429 0.930 . S
C1438 C1436 1.378 . S
C1438 C1439 1.367 . S
C1439 C1438 1.367 . S
C1439 C1441 1.433 . S
C1440 C1436 1.350 . S
C1440 C1437 1.463 . S
C1440 N1444 1.427 . S
C1441 H1431 0.929 . S
C1441 C1439 1.433 . S
C1441 N1444 1.384 . S
C1442 H1433 0.929 . S
C1442 C1434 1.378 . S
C1442 C1437 1.350 . S
C1443 H1430 0.929 . S
C1443 C1435 1.433 . S
C1443 N1445 1.384 . S
N1444 C1440 1.427 . S
N1444 C1441 1.384 . S
N1445 C1437 1.427 . S
N1445 C1443 1.384 . S
H1446 C1452 0.930 . S
H1447 C1456 0.930 . S
H1448 C1461 0.929 . S
H1449 C1459 0.929 . S
H1450 C1454 0.929 . S
H1451 C1460 0.929 . S
C1452 H1446 0.930 . S
C1452 C1453 1.367 . S
C1452 C1460 1.378 . S
C1453 C1452 1.367 . S
C1453 C1461 1.433 . S
C1454 H1450 0.929 . S
C1454 C1456 1.378 1_556 S
C1454 C1458 1.350 . S
C1455 C1458 1.463 . S
C1455 C1460 1.350 . S
C1455 N1463 1.427 . S
C1456 H1447 0.930 . S
C1456 C1454 1.378 1_554 S
C1456 C1457 1.379 . S
C1457 C1456 1.379 . S
C1457 C1459 1.371 1_554 S
C1458 C1454 1.350 . S
C1458 C1455 1.463 . S
C1458 N1462 1.427 . S
C1459 H1449 0.929 . S
C1459 C1457 1.371 1_556 S
C1459 N1462 1.384 . S
C1460 H1451 0.929 . S
C1460 C1452 1.378 . S
C1460 C1455 1.350 . S
C1461 H1448 0.929 . S
C1461 C1453 1.433 . S
C1461 N1463 1.384 . S
N1462 C1458 1.427 . S
N1462 C1459 1.384 . S
N1463 C1455 1.427 . S
N1463 C1461 1.384 . S
H1464 C1470 0.930 . S
H1465 C1474 0.930 . S
H1466 C1479 0.929 . S
H1467 C1477 0.929 . S
H1468 C1472 0.929 . S
H1469 C1478 0.929 . S
C1470 H1464 0.930 . S
C1470 C1471 1.367 . S
C1470 C1478 1.378 . S
C1471 C1470 1.367 . S
C1471 C1479 1.433 . S
C1472 H1468 0.929 . S
C1472 C1474 1.378 . S
C1472 C1476 1.350 . S
C1473 C1476 1.463 . S
C1473 C1478 1.350 . S
C1473 N1481 1.427 . S
C1474 H1465 0.930 . S
C1474 C1472 1.378 . S
C1474 C1475 1.367 . S
C1475 C1474 1.367 . S
C1475 C1477 1.433 . S
C1476 C1472 1.350 . S
C1476 C1473 1.463 . S
C1476 N1480 1.427 . S
C1477 H1467 0.929 . S
C1477 C1475 1.433 . S
C1477 N1480 1.384 . S
C1478 H1469 0.929 . S
C1478 C1470 1.378 . S
C1478 C1473 1.350 . S
C1479 H1466 0.929 . S
C1479 C1471 1.433 . S
C1479 N1481 1.384 . S
N1480 C1476 1.427 . S
N1480 C1477 1.384 . S
N1481 C1473 1.427 . S
N1481 C1479 1.384 . S
H1482 C1488 0.930 . S
H1483 C1492 0.930 . S
H1484 C1497 0.929 . S
H1485 C1495 0.929 . S
H1486 C1490 0.929 . S
H1487 C1496 0.929 . S
C1488 H1482 0.930 . S
C1488 C1489 1.367 . S
C1488 C1496 1.378 . S
C1489 C1488 1.367 . S
C1489 C1497 1.433 . S
C1490 H1486 0.929 . S
C1490 C1492 1.378 . S
C1490 C1494 1.350 . S
C1491 C1494 1.463 . S
C1491 C1496 1.350 . S
C1491 N1499 1.427 . S
C1492 H1483 0.930 . S
C1492 C1490 1.378 . S
C1492 C1493 1.367 . S
C1493 C1492 1.367 . S
C1493 C1495 1.433 . S
C1494 C1490 1.350 . S
C1494 C1491 1.463 . S
C1494 N1498 1.427 . S
C1495 H1485 0.929 . S
C1495 C1493 1.433 . S
C1495 N1498 1.384 . S
C1496 H1487 0.929 . S
C1496 C1488 1.378 . S
C1496 C1491 1.350 . S
C1497 H1484 0.929 . S
C1497 C1489 1.433 . S
C1497 N1499 1.384 . S
N1498 C1494 1.427 . S
N1498 C1495 1.384 . S
N1499 C1491 1.427 . S
N1499 C1497 1.384 . S
H1500 C1506 0.930 . S
H1501 C1510 0.930 . S
H1502 C1515 0.929 . S
H1503 C1513 0.929 . S
H1504 C1508 0.929 . S
H1505 C1514 0.929 . S
C1506 H1500 0.930 . S
C1506 C1507 1.367 . S
C1506 C1514 1.378 . S
C1507 C1506 1.367 . S
C1507 C1515 1.433 . S
C1508 H1504 0.929 . S
C1508 C1510 1.378 . S
C1508 C1512 1.350 . S
C1509 C1512 1.463 . S
C1509 C1514 1.350 . S
C1509 N1517 1.427 . S
C1510 H1501 0.930 . S
C1510 C1508 1.378 . S
C1510 C1511 1.367 . S
C1511 C1510 1.367 . S
C1511 C1513 1.433 . S
C1512 C1508 1.350 . S
C1512 C1509 1.463 . S
C1512 N1516 1.427 . S
C1513 H1503 0.929 . S
C1513 C1511 1.433 . S
C1513 N1516 1.384 . S
C1514 H1505 0.929 . S
C1514 C1506 1.378 . S
C1514 C1509 1.350 . S
C1515 H1502 0.929 . S
C1515 C1507 1.433 . S
C1515 N1517 1.384 . S
N1516 C1512 1.427 . S
N1516 C1513 1.384 . S
N1517 C1509 1.427 . S
N1517 C1515 1.384 . S
H1518 C1524 0.930 . S
H1519 C1528 0.957 . S
H1520 C1533 0.929 . S
H1521 C1531 0.929 . S
H1522 C1526 0.929 . S
H1523 C1532 0.929 . S
C1524 H1518 0.930 . S
C1524 C1525 1.367 . S
C1524 C1532 1.378 . S
C1525 C1524 1.367 . S
C1525 C1533 1.433 . S
C1526 H1522 0.929 . S
C1526 C1528 1.351 1_554 S
C1526 C1530 1.350 . S
C1527 C1530 1.463 . S
C1527 C1532 1.350 . S
C1527 N1535 1.427 . S
C1528 H1519 0.957 . S
C1528 C1526 1.351 1_556 S
C1528 C1529 1.366 . S
C1529 C1528 1.366 . S
C1529 C1531 1.388 1_556 S
C1530 C1526 1.350 . S
C1530 C1527 1.463 . S
C1530 N1534 1.427 . S
C1531 H1521 0.929 . S
C1531 C1529 1.388 1_554 S
C1531 N1534 1.384 . S
C1532 H1523 0.929 . S
C1532 C1524 1.378 . S
C1532 C1527 1.350 . S
C1533 H1520 0.929 . S
C1533 C1525 1.433 . S
C1533 N1535 1.384 . S
N1534 C1530 1.427 . S
N1534 C1531 1.384 . S
N1535 C1527 1.427 . S
N1535 C1533 1.384 . S
H1536 C1542 0.930 . S
H1537 C1546 0.930 . S
H1538 C1551 0.929 . S
H1539 C1549 0.929 . S
H1540 C1544 0.929 . S
H1541 C1550 0.929 . S
C1542 H1536 0.930 . S
C1542 C1543 1.367 . S
C1542 C1550 1.378 . S
C1543 C1542 1.367 . S
C1543 C1551 1.433 . S
C1544 H1540 0.929 . S
C1544 C1546 1.378 . S
C1544 C1548 1.350 . S
C1545 C1548 1.463 . S
C1545 C1550 1.350 . S
C1545 N1553 1.427 . S
C1546 H1537 0.930 . S
C1546 C1544 1.378 . S
C1546 C1547 1.367 . S
C1547 C1546 1.367 . S
C1547 C1549 1.433 . S
C1548 C1544 1.350 . S
C1548 C1545 1.463 . S
C1548 N1552 1.427 . S
C1549 H1539 0.929 . S
C1549 C1547 1.433 . S
C1549 N1552 1.384 . S
C1550 H1541 0.929 . S
C1550 C1542 1.378 . S
C1550 C1545 1.350 . S
C1551 H1538 0.929 . S
C1551 C1543 1.433 . S
C1551 N1553 1.384 . S
N1552 C1548 1.427 . S
N1552 C1549 1.384 . S
N1553 C1545 1.427 . S
N1553 C1551 1.384 . S
H1554 C1560 0.930 . S
H1555 C1564 0.930 . S
H1556 C1569 0.929 . S
H1557 C1567 0.929 . S
H1558 C1562 0.929 . S
H1559 C1568 0.929 . S
C1560 H1554 0.930 . S
C1560 C1561 1.367 . S
C1560 C1568 1.378 . S
C1561 C1560 1.367 . S
C1561 C1569 1.433 . S
C1562 H1558 0.929 . S
C1562 C1564 1.378 . S
C1562 C1566 1.350 . S
C1563 C1566 1.463 . S
C1563 C1568 1.350 . S
C1563 N1571 1.427 . S
C1564 H1555 0.930 . S
C1564 C1562 1.378 . S
C1564 C1565 1.367 . S
C1565 C1564 1.367 . S
C1565 C1567 1.433 . S
C1566 C1562 1.350 . S
C1566 C1563 1.463 . S
C1566 N1570 1.427 . S
C1567 H1557 0.929 . S
C1567 C1565 1.433 . S
C1567 N1570 1.384 . S
C1568 H1559 0.929 . S
C1568 C1560 1.378 . S
C1568 C1563 1.350 . S
C1569 H1556 0.929 . S
C1569 C1561 1.433 . S
C1569 N1571 1.384 . S
N1570 C1566 1.427 . S
N1570 C1567 1.384 . S
N1571 C1563 1.427 . S
N1571 C1569 1.384 . S
H1572 C1578 0.930 . S
H1573 C1582 0.930 . S
H1574 C1587 0.929 . S
H1575 C1585 0.929 . S
H1576 C1580 0.929 . S
H1577 C1586 0.929 . S
C1578 H1572 0.930 . S
C1578 C1579 1.367 . S
C1578 C1586 1.378 . S
C1579 C1578 1.367 . S
C1579 C1587 1.433 . S
C1580 H1576 0.929 . S
C1580 C1582 1.378 . S
C1580 C1584 1.350 . S
C1581 C1584 1.463 . S
C1581 C1586 1.350 . S
C1581 N1589 1.427 . S
C1582 H1573 0.930 . S
C1582 C1580 1.378 . S
C1582 C1583 1.367 . S
C1583 C1582 1.367 . S
C1583 C1585 1.433 . S
C1584 C1580 1.350 . S
C1584 C1581 1.463 . S
C1584 N1588 1.427 . S
C1585 H1575 0.929 . S
C1585 C1583 1.433 . S
C1585 N1588 1.384 . S
C1586 H1577 0.929 . S
C1586 C1578 1.378 . S
C1586 C1581 1.350 . S
C1587 H1574 0.929 . S
C1587 C1579 1.433 . S
C1587 N1589 1.384 . S
N1588 C1584 1.427 . S
N1588 C1585 1.384 . S
N1589 C1581 1.427 . S
N1589 C1587 1.384 . S
H1590 C1596 0.930 . S
H1591 C1600 0.930 . S
H1592 C1605 0.929 . S
H1593 C1603 0.929 . S
H1594 C1598 0.929 . S
H1595 C1604 0.929 . S
C1596 H1590 0.930 . S
C1596 C1597 1.367 . S
C1596 C1604 1.378 . S
C1597 C1596 1.367 . S
C1597 C1605 1.433 . S
C1598 H1594 0.929 . S
C1598 C1600 1.378 . S
C1598 C1602 1.350 . S
C1599 C1602 1.463 . S
C1599 C1604 1.350 . S
C1599 N1607 1.427 . S
C1600 H1591 0.930 . S
C1600 C1598 1.378 . S
C1600 C1601 1.367 . S
C1601 C1600 1.367 . S
C1601 C1603 1.433 . S
C1602 C1598 1.350 . S
C1602 C1599 1.463 . S
C1602 N1606 1.427 . S
C1603 H1593 0.929 . S
C1603 C1601 1.433 . S
C1603 N1606 1.384 . S
C1604 H1595 0.929 . S
C1604 C1596 1.378 . S
C1604 C1599 1.350 . S
C1605 H1592 0.929 . S
C1605 C1597 1.433 . S
C1605 N1607 1.384 . S
N1606 C1602 1.427 . S
N1606 C1603 1.384 . S
N1607 C1599 1.427 . S
N1607 C1605 1.384 . S
H1608 C1614 0.930 . S
H1609 C1618 0.930 . S
H1610 C1623 0.929 . S
H1611 C1621 0.929 1_565 S
H1612 C1616 0.929 . S
H1613 C1622 0.929 . S
C1614 H1608 0.930 . S
C1614 C1615 1.367 . S
C1614 C1622 1.378 . S
C1615 C1614 1.367 . S
C1615 C1623 1.433 . S
C1616 H1612 0.929 . S
C1616 C1618 1.378 . S
C1616 C1620 1.350 . S
C1617 C1620 1.463 . S
C1617 C1622 1.350 . S
C1617 N1625 1.427 . S
C1618 H1609 0.930 . S
C1618 C1616 1.378 . S
C1618 C1619 1.342 1_545 S
C1619 C1618 1.342 1_565 S
C1619 C1621 1.425 1_565 S
C1620 C1616 1.350 . S
C1620 C1617 1.463 . S
C1620 N1624 1.427 . S
C1621 H1611 0.929 1_545 S
C1621 C1619 1.425 1_545 S
C1621 N1624 1.384 . S
C1622 H1613 0.929 . S
C1622 C1614 1.378 . S
C1622 C1617 1.350 . S
C1623 H1610 0.929 . S
C1623 C1615 1.433 . S
C1623 N1625 1.384 . S
N1624 C1620 1.427 . S
N1624 C1621 1.384 . S
N1625 C1617 1.427 . S
N1625 C1623 1.384 . S
H1626 C1632 0.930 . S
H1627 C1636 0.930 . S
H1628 C1641 0.929 . S
H1629 C1639 0.929 . S
H1630 C1634 0.929 . S
H1631 C1640 0.929 . S
C1632 H1626 0.930 . S
C1632 C1633 1.367 . S
C1632 C1640 1.378 . S
C1633 C1632 1.367 . S
C1633 C1641 1.433 . S
C1634 H1630 0.929 . S
C1634 C1636 1.378 . S
C1634 C1638 1.350 . S
C1635 C1638 1.463 . S
C1635 C1640 1.350 . S
C1635 N1643 1.427 . S
C1636 H1627 0.930 . S
C1636 C1634 1.378 . S
C1636 C1637 1.367 . S
C1637 C1636 1.367 . S
C1637 C1639 1.433 . S
C1638 C1634 1.350 . S
C1638 C1635 1.463 . S
C1638 N1642 1.427 . S
C1639 H1629 0.929 . S
C1639 C1637 1.433 . S
C1639 N1642 1.384 . S
C1640 H1631 0.929 . S
C1640 C1632 1.378 . S
C1640 C1635 1.350 . S
C1641 H1628 0.929 . S
C1641 C1633 1.433 . S
C1641 N1643 1.384 . S
N1642 C1638 1.427 . S
N1642 C1639 1.384 . S
N1643 C1635 1.427 . S
N1643 C1641 1.384 . S
H1644 C1650 0.930 . S
H1645 C1654 0.930 . S
H1646 C1659 0.929 . S
H1647 C1657 0.929 . S
H1648 C1652 0.929 . S
H1649 C1658 0.929 . S
C1650 H1644 0.930 . S
C1650 C1651 1.367 . S
C1650 C1658 1.378 . S
C1651 C1650 1.367 . S
C1651 C1659 1.433 . S
C1652 H1648 0.929 . S
C1652 C1654 1.378 . S
C1652 C1656 1.350 . S
C1653 C1656 1.463 . S
C1653 C1658 1.350 . S
C1653 N1661 1.427 . S
C1654 H1645 0.930 . S
C1654 C1652 1.378 . S
C1654 C1655 1.367 . S
C1655 C1654 1.367 . S
C1655 C1657 1.433 . S
C1656 C1652 1.350 . S
C1656 C1653 1.463 . S
C1656 N1660 1.427 . S
C1657 H1647 0.929 . S
C1657 C1655 1.433 . S
C1657 N1660 1.384 . S
C1658 H1649 0.929 . S
C1658 C1650 1.378 . S
C1658 C1653 1.350 . S
C1659 H1646 0.929 . S
C1659 C1651 1.433 . S
C1659 N1661 1.384 . S
N1660 C1656 1.427 . S
N1660 C1657 1.384 . S
N1661 C1653 1.427 . S
N1661 C1659 1.384 . S
H1662 C1668 0.930 . S
H1663 C1672 0.930 . S
H1664 C1677 0.929 . S
H1665 C1675 0.929 . S
H1666 C1670 0.929 . S
H1667 C1676 0.929 . S
C1668 H1662 0.930 . S
C1668 C1669 1.367 . S
C1668 C1676 1.378 . S
C1669 C1668 1.367 . S
C1669 C1677 1.433 . S
C1670 H1666 0.929 . S
C1670 C1672 1.378 . S
C1670 C1674 1.350 . S
C1671 C1674 1.463 . S
C1671 C1676 1.350 . S
C1671 N1679 1.427 . S
C1672 H1663 0.930 . S
C1672 C1670 1.378 . S
C1672 C1673 1.367 . S
C1673 C1672 1.367 . S
C1673 C1675 1.433 . S
C1674 C1670 1.350 . S
C1674 C1671 1.463 . S
C1674 N1678 1.427 . S
C1675 H1665 0.929 . S
C1675 C1673 1.433 . S
C1675 N1678 1.384 . S
C1676 H1667 0.929 . S
C1676 C1668 1.378 . S
C1676 C1671 1.350 . S
C1677 H1664 0.929 . S
C1677 C1669 1.433 . S
C1677 N1679 1.384 . S
N1678 C1674 1.427 . S
N1678 C1675 1.384 . S
N1679 C1671 1.427 . S
N1679 C1677 1.384 . S
H1680 C1686 0.930 . S
H1681 C1690 0.930 . S
H1682 C1695 0.929 . S
H1683 C1693 0.929 . S
H1684 C1688 0.929 . S
H1685 C1694 0.929 . S
C1686 H1680 0.930 . S
C1686 C1687 1.367 . S
C1686 C1694 1.378 . S
C1687 C1686 1.367 . S
C1687 C1695 1.433 . S
C1688 H1684 0.929 . S
C1688 C1690 1.378 . S
C1688 C1692 1.350 . S
C1689 C1692 1.463 . S
C1689 C1694 1.350 . S
C1689 N1697 1.427 . S
C1690 H1681 0.930 . S
C1690 C1688 1.378 . S
C1690 C1691 1.367 . S
C1691 C1690 1.367 . S
C1691 C1693 1.433 . S
C1692 C1688 1.350 . S
C1692 C1689 1.463 . S
C1692 N1696 1.427 . S
C1693 H1683 0.929 . S
C1693 C1691 1.433 . S
C1693 N1696 1.384 . S
C1694 H1685 0.929 . S
C1694 C1686 1.378 . S
C1694 C1689 1.350 . S
C1695 H1682 0.929 . S
C1695 C1687 1.433 . S
C1695 N1697 1.384 . S
N1696 C1692 1.427 . S
N1696 C1693 1.384 . S
N1697 C1689 1.427 . S
N1697 C1695 1.384 . S
H1698 C1704 0.930 . S
H1699 C1708 0.930 . S
H1700 C1713 0.929 . S
H1701 C1711 0.929 . S
H1702 C1706 0.929 . S
H1703 C1712 0.929 . S
C1704 H1698 0.930 . S
C1704 C1705 1.376 . S
C1704 C1712 1.378 1_455 S
C1705 C1704 1.376 . S
C1705 C1713 1.375 1_455 S
C1706 H1702 0.929 . S
C1706 C1708 1.378 . S
C1706 C1710 1.350 . S
C1707 C1710 1.463 . S
C1707 C1712 1.350 . S
C1707 N1715 1.427 . S
C1708 H1699 0.930 . S
C1708 C1706 1.378 . S
C1708 C1709 1.367 . S
C1709 C1708 1.367 . S
C1709 C1711 1.433 . S
C1710 C1706 1.350 . S
C1710 C1707 1.463 . S
C1710 N1714 1.427 . S
C1711 H1701 0.929 . S
C1711 C1709 1.433 . S
C1711 N1714 1.384 . S
C1712 H1703 0.929 . S
C1712 C1704 1.378 1_655 S
C1712 C1707 1.350 . S
C1713 H1700 0.929 . S
C1713 C1705 1.375 1_655 S
C1713 N1715 1.384 . S
N1714 C1710 1.427 . S
N1714 C1711 1.384 . S
N1715 C1707 1.427 . S
N1715 C1713 1.384 . S
H1716 C1722 0.930 . S
H1717 C1726 0.930 . S
H1718 C1731 0.929 . S
H1719 C1729 0.929 . S
H1720 C1724 0.929 . S
H1721 C1730 0.929 . S
C1722 H1716 0.930 . S
C1722 C1723 1.367 . S
C1722 C1730 1.378 . S
C1723 C1722 1.367 . S
C1723 C1731 1.433 . S
C1724 H1720 0.929 . S
C1724 C1726 1.378 . S
C1724 C1728 1.350 . S
C1725 C1728 1.463 . S
C1725 C1730 1.350 . S
C1725 N1733 1.427 . S
C1726 H1717 0.930 . S
C1726 C1724 1.378 . S
C1726 C1727 1.367 . S
C1727 C1726 1.367 . S
C1727 C1729 1.433 . S
C1728 C1724 1.350 . S
C1728 C1725 1.463 . S
C1728 N1732 1.427 . S
C1729 H1719 0.929 . S
C1729 C1727 1.433 . S
C1729 N1732 1.384 . S
C1730 H1721 0.929 . S
C1730 C1722 1.378 . S
C1730 C1725 1.350 . S
C1731 H1718 0.929 . S
C1731 C1723 1.433 . S
C1731 N1733 1.384 . S
N1732 C1728 1.427 . S
N1732 C1729 1.384 . S
N1733 C1725 1.427 . S
N1733 C1731 1.384 . S
H1734 C1740 0.930 . S
H1735 C1744 0.930 . S
H1736 C1749 0.929 . S
H1737 C1747 0.929 . S
H1738 C1742 0.929 . S
H1739 C1748 0.929 . S
C1740 H1734 0.930 . S
C1740 C1741 1.367 . S
C1740 C1748 1.378 . S
C1741 C1740 1.367 . S
C1741 C1749 1.433 . S
C1742 H1738 0.929 . S
C1742 C1744 1.378 . S
C1742 C1746 1.350 . S
C1743 C1746 1.463 . S
C1743 C1748 1.350 . S
C1743 N1751 1.427 . S
C1744 H1735 0.930 . S
C1744 C1742 1.378 . S
C1744 C1745 1.367 . S
C1745 C1744 1.367 . S
C1745 C1747 1.433 . S
C1746 C1742 1.350 . S
C1746 C1743 1.463 . S
C1746 N1750 1.427 . S
C1747 H1737 0.929 . S
C1747 C1745 1.433 . S
C1747 N1750 1.384 . S
C1748 H1739 0.929 . S
C1748 C1740 1.378 . S
C1748 C1743 1.350 . S
C1749 H1736 0.929 . S
C1749 C1741 1.433 . S
C1749 N1751 1.384 . S
N1750 C1746 1.427 . S
N1750 C1747 1.384 . S
N1751 C1743 1.427 . S
N1751 C1749 1.384 . S
H1752 C1758 0.930 . S
H1753 C1762 0.930 . S
H1754 C1767 0.929 . S
H1755 C1765 0.929 . S
H1756 C1760 0.929 . S
H1757 C1766 0.929 . S
C1758 H1752 0.930 . S
C1758 C1759 1.367 . S
C1758 C1766 1.378 . S
C1759 C1758 1.367 . S
C1759 C1767 1.433 . S
C1760 H1756 0.929 . S
C1760 C1762 1.378 . S
C1760 C1764 1.350 . S
C1761 C1764 1.463 . S
C1761 C1766 1.350 . S
C1761 N1769 1.427 . S
C1762 H1753 0.930 . S
C1762 C1760 1.378 . S
C1762 C1763 1.367 . S
C1763 C1762 1.367 . S
C1763 C1765 1.433 . S
C1764 C1760 1.350 . S
C1764 C1761 1.463 . S
C1764 N1768 1.427 . S
C1765 H1755 0.929 . S
C1765 C1763 1.433 . S
C1765 N1768 1.384 . S
C1766 H1757 0.929 . S
C1766 C1758 1.378 . S
C1766 C1761 1.350 . S
C1767 H1754 0.929 . S
C1767 C1759 1.433 . S
C1767 N1769 1.384 . S
N1768 C1764 1.427 . S
N1768 C1765 1.384 . S
N1769 C1761 1.427 . S
N1769 C1767 1.384 . S
H1770 C1776 0.930 . S
H1771 C1780 0.930 . S
H1772 C1785 0.929 . S
H1773 C1783 0.929 . S
H1774 C1778 0.929 . S
H1775 C1784 0.929 . S
C1776 H1770 0.930 . S
C1776 C1777 1.367 . S
C1776 C1784 1.378 . S
C1777 C1776 1.367 . S
C1777 C1785 1.433 . S
C1778 H1774 0.929 . S
C1778 C1780 1.378 . S
C1778 C1782 1.350 . S
C1779 C1782 1.463 . S
C1779 C1784 1.350 . S
C1779 N1787 1.427 . S
C1780 H1771 0.930 . S
C1780 C1778 1.378 . S
C1780 C1781 1.367 . S
C1781 C1780 1.367 . S
C1781 C1783 1.433 . S
C1782 C1778 1.350 . S
C1782 C1779 1.463 . S
C1782 N1786 1.427 . S
C1783 H1773 0.929 . S
C1783 C1781 1.433 . S
C1783 N1786 1.384 . S
C1784 H1775 0.929 . S
C1784 C1776 1.378 . S
C1784 C1779 1.350 . S
C1785 H1772 0.929 . S
C1785 C1777 1.433 . S
C1785 N1787 1.384 . S
N1786 C1782 1.427 . S
N1786 C1783 1.384 . S
N1787 C1779 1.427 . S
N1787 C1785 1.384 . S
H1788 C1794 0.930 . S
H1789 C1798 0.930 . S
H1790 C1803 0.929 . S
H1791 C1801 0.929 . S
H1792 C1796 0.929 . S
H1793 C1802 0.929 . S
C1794 H1788 0.930 . S
C1794 C1795 1.367 . S
C1794 C1802 1.378 . S
C1795 C1794 1.367 . S
C1795 C1803 1.433 . S
C1796 H1792 0.929 . S
C1796 C1798 1.378 . S
C1796 C1800 1.350 . S
C1797 C1800 1.463 . S
C1797 C1802 1.350 . S
C1797 N1805 1.427 . S
C1798 H1789 0.930 . S
C1798 C1796 1.378 . S
C1798 C1799 1.367 . S
C1799 C1798 1.367 . S
C1799 C1801 1.433 . S
C1800 C1796 1.350 . S
C1800 C1797 1.463 . S
C1800 N1804 1.427 . S
C1801 H1791 0.929 . S
C1801 C1799 1.433 . S
C1801 N1804 1.384 . S
C1802 H1793 0.929 . S
C1802 C1794 1.378 . S
C1802 C1797 1.350 . S
C1803 H1790 0.929 . S
C1803 C1795 1.433 . S
C1803 N1805 1.384 . S
N1804 C1800 1.427 . S
N1804 C1801 1.384 . S
N1805 C1797 1.427 . S
N1805 C1803 1.384 . S
H1806 C1812 0.930 . S
H1807 C1816 0.930 1_455 S
H1808 C1821 0.929 . S
H1809 C1819 0.929 . S
H1810 C1814 0.929 . S
H1811 C1820 0.929 . S
C1812 H1806 0.930 . S
C1812 C1813 1.367 . S
C1812 C1820 1.378 . S
C1813 C1812 1.367 . S
C1813 C1821 1.433 . S
C1814 H1810 0.929 . S
C1814 C1816 1.378 . S
C1814 C1818 1.350 . S
C1815 C1818 1.463 . S
C1815 C1820 1.350 . S
C1815 N1823 1.427 . S
C1816 H1807 0.930 1_655 S
C1816 C1814 1.378 . S
C1816 C1817 1.356 1_655 S
C1817 C1816 1.356 1_455 S
C1817 C1819 1.403 1_455 S
C1818 C1814 1.350 . S
C1818 C1815 1.463 . S
C1818 N1822 1.427 . S
C1819 H1809 0.929 . S
C1819 C1817 1.403 1_655 S
C1819 N1822 1.384 . S
C1820 H1811 0.929 . S
C1820 C1812 1.378 . S
C1820 C1815 1.350 . S
C1821 H1808 0.929 . S
C1821 C1813 1.433 . S
C1821 N1823 1.384 . S
N1822 C1818 1.427 . S
N1822 C1819 1.384 . S
N1823 C1815 1.427 . S
N1823 C1821 1.384 . S
H1824 C1830 0.930 . S
H1825 C1834 0.930 . S
H1826 C1839 0.929 . S
H1827 C1837 0.929 . S
H1828 C1832 0.929 . S
H1829 C1838 0.929 . S
C1830 H1824 0.930 . S
C1830 C1831 1.367 . S
C1830 C1838 1.378 . S
C1831 C1830 1.367 . S
C1831 C1839 1.433 . S
C1832 H1828 0.929 . S
C1832 C1834 1.378 . S
C1832 C1836 1.350 . S
C1833 C1836 1.463 . S
C1833 C1838 1.350 . S
C1833 N1841 1.427 . S
C1834 H1825 0.930 . S
C1834 C1832 1.378 . S
C1834 C1835 1.367 . S
C1835 C1834 1.367 . S
C1835 C1837 1.433 . S
C1836 C1832 1.350 . S
C1836 C1833 1.463 . S
C1836 N1840 1.427 . S
C1837 H1827 0.929 . S
C1837 C1835 1.433 . S
C1837 N1840 1.384 . S
C1838 H1829 0.929 . S
C1838 C1830 1.378 . S
C1838 C1833 1.350 . S
C1839 H1826 0.929 . S
C1839 C1831 1.433 . S
C1839 N1841 1.384 . S
N1840 C1836 1.427 . S
N1840 C1837 1.384 . S
N1841 C1833 1.427 . S
N1841 C1839 1.384 . S
H1842 C1848 0.930 . S
H1843 C1852 0.930 . S
H1844 C1857 0.929 . S
H1845 C1855 0.929 . S
H1846 C1850 0.929 . S
H1847 C1856 0.929 . S
C1848 H1842 0.930 . S
C1848 C1849 1.367 . S
C1848 C1856 1.378 . S
C1849 C1848 1.367 . S
C1849 C1857 1.433 . S
C1850 H1846 0.929 . S
C1850 C1852 1.378 . S
C1850 C1854 1.350 . S
C1851 C1854 1.463 . S
C1851 C1856 1.350 . S
C1851 N1859 1.427 . S
C1852 H1843 0.930 . S
C1852 C1850 1.378 . S
C1852 C1853 1.367 . S
C1853 C1852 1.367 . S
C1853 C1855 1.433 . S
C1854 C1850 1.350 . S
C1854 C1851 1.463 . S
C1854 N1858 1.427 . S
C1855 H1845 0.929 . S
C1855 C1853 1.433 . S
C1855 N1858 1.384 . S
C1856 H1847 0.929 . S
C1856 C1848 1.378 . S
C1856 C1851 1.350 . S
C1857 H1844 0.929 . S
C1857 C1849 1.433 . S
C1857 N1859 1.384 . S
N1858 C1854 1.427 . S
N1858 C1855 1.384 . S
N1859 C1851 1.427 . S
N1859 C1857 1.384 . S
H1860 C1866 0.930 . S
H1861 C1870 0.930 . S
H1862 C1875 0.929 . S
H1863 C1873 0.929 . S
H1864 C1868 0.929 . S
H1865 C1874 0.929 . S
C1866 H1860 0.930 . S
C1866 C1867 1.367 . S
C1866 C1874 1.378 . S
C1867 C1866 1.367 . S
C1867 C1875 1.433 . S
C1868 H1864 0.929 . S
C1868 C1870 1.378 . S
C1868 C1872 1.350 . S
C1869 C1872 1.463 . S
C1869 C1874 1.350 . S
C1869 N1877 1.427 . S
C1870 H1861 0.930 . S
C1870 C1868 1.378 . S
C1870 C1871 1.367 . S
C1871 C1870 1.367 . S
C1871 C1873 1.433 . S
C1872 C1868 1.350 . S
C1872 C1869 1.463 . S
C1872 N1876 1.427 . S
C1873 H1863 0.929 . S
C1873 C1871 1.433 . S
C1873 N1876 1.384 . S
C1874 H1865 0.929 . S
C1874 C1866 1.378 . S
C1874 C1869 1.350 . S
C1875 H1862 0.929 . S
C1875 C1867 1.433 . S
C1875 N1877 1.384 . S
N1876 C1872 1.427 . S
N1876 C1873 1.384 . S
N1877 C1869 1.427 . S
N1877 C1875 1.384 . S
H1878 C1884 0.930 . S
H1879 C1888 0.930 . S
H1880 C1893 0.929 . S
H1881 C1891 0.929 . S
H1882 C1886 0.929 . S
H1883 C1892 0.929 . S
C1884 H1878 0.930 . S
C1884 C1885 1.335 1_554 S
C1884 C1892 1.378 . S
C1885 C1884 1.335 1_556 S
C1885 C1893 1.440 . S
C1886 H1882 0.929 . S
C1886 C1888 1.378 . S
C1886 C1890 1.350 . S
C1887 C1890 1.463 . S
C1887 C1892 1.350 . S
C1887 N1895 1.427 . S
C1888 H1879 0.930 . S
C1888 C1886 1.378 . S
C1888 C1889 1.367 . S
C1889 C1888 1.367 . S
C1889 C1891 1.433 . S
C1890 C1886 1.350 . S
C1890 C1887 1.463 . S
C1890 N1894 1.427 . S
C1891 H1881 0.929 . S
C1891 C1889 1.433 . S
C1891 N1894 1.384 . S
C1892 H1883 0.929 . S
C1892 C1884 1.378 . S
C1892 C1887 1.350 . S
C1893 H1880 0.929 . S
C1893 C1885 1.440 . S
C1893 N1895 1.384 1_556 S
N1894 C1890 1.427 . S
N1894 C1891 1.384 . S
N1895 C1887 1.427 . S
N1895 C1893 1.384 1_554 S
H1896 C1902 0.930 . S
H1897 C1906 0.930 . S
H1898 C1911 0.929 . S
H1899 C1909 0.929 . S
H1900 C1904 0.929 . S
H1901 C1910 0.929 . S
C1902 H1896 0.930 . S
C1902 C1903 1.367 . S
C1902 C1910 1.378 . S
C1903 C1902 1.367 . S
C1903 C1911 1.433 . S
C1904 H1900 0.929 . S
C1904 C1906 1.378 . S
C1904 C1908 1.350 . S
C1905 C1908 1.463 . S
C1905 C1910 1.350 . S
C1905 N1913 1.427 . S
C1906 H1897 0.930 . S
C1906 C1904 1.378 . S
C1906 C1907 1.367 . S
C1907 C1906 1.367 . S
C1907 C1909 1.433 . S
C1908 C1904 1.350 . S
C1908 C1905 1.463 . S
C1908 N1912 1.427 . S
C1909 H1899 0.929 . S
C1909 C1907 1.433 . S
C1909 N1912 1.384 . S
C1910 H1901 0.929 . S
C1910 C1902 1.378 . S
C1910 C1905 1.350 . S
C1911 H1898 0.929 . S
C1911 C1903 1.433 . S
C1911 N1913 1.384 . S
N1912 C1908 1.427 . S
N1912 C1909 1.384 . S
N1913 C1905 1.427 . S
N1913 C1911 1.384 . S
H1914 C1920 0.930 . S
H1915 C1924 0.930 . S
H1916 C1929 0.929 . S
H1917 C1927 0.929 . S
H1918 C1922 0.929 . S
H1919 C1928 0.929 . S
C1920 H1914 0.930 . S
C1920 C1921 1.367 . S
C1920 C1928 1.378 . S
C1921 C1920 1.367 . S
C1921 C1929 1.433 . S
C1922 H1918 0.929 . S
C1922 C1924 1.378 . S
C1922 C1926 1.350 . S
C1923 C1926 1.463 . S
C1923 C1928 1.350 . S
C1923 N1931 1.427 . S
C1924 H1915 0.930 . S
C1924 C1922 1.378 . S
C1924 C1925 1.367 . S
C1925 C1924 1.367 . S
C1925 C1927 1.433 . S
C1926 C1922 1.350 . S
C1926 C1923 1.463 . S
C1926 N1930 1.427 . S
C1927 H1917 0.929 . S
C1927 C1925 1.433 . S
C1927 N1930 1.384 . S
C1928 H1919 0.929 . S
C1928 C1920 1.378 . S
C1928 C1923 1.350 . S
C1929 H1916 0.929 . S
C1929 C1921 1.433 . S
C1929 N1931 1.384 . S
N1930 C1926 1.427 . S
N1930 C1927 1.384 . S
N1931 C1923 1.427 . S
N1931 C1929 1.384 . S
H1932 C1938 0.930 . S
H1933 C1942 0.930 . S
H1934 C1947 0.929 . S
H1935 C1945 0.929 . S
H1936 C1940 0.929 . S
H1937 C1946 0.929 . S
C1938 H1932 0.930 . S
C1938 C1939 1.367 . S
C1938 C1946 1.378 . S
C1939 C1938 1.367 . S
C1939 C1947 1.433 . S
C1940 H1936 0.929 . S
C1940 C1942 1.378 . S
C1940 C1944 1.350 . S
C1941 C1944 1.463 . S
C1941 C1946 1.350 . S
C1941 N1949 1.427 . S
C1942 H1933 0.930 . S
C1942 C1940 1.378 . S
C1942 C1943 1.367 . S
C1943 C1942 1.367 . S
C1943 C1945 1.433 . S
C1944 C1940 1.350 . S
C1944 C1941 1.463 . S
C1944 N1948 1.427 . S
C1945 H1935 0.929 . S
C1945 C1943 1.433 . S
C1945 N1948 1.384 . S
C1946 H1937 0.929 . S
C1946 C1938 1.378 . S
C1946 C1941 1.350 . S
C1947 H1934 0.929 . S
C1947 C1939 1.433 . S
C1947 N1949 1.384 . S
N1948 C1944 1.427 . S
N1948 C1945 1.384 . S
N1949 C1941 1.427 . S
N1949 C1947 1.384 . S
H1950 C1956 0.930 . S
H1951 C1960 0.930 . S
H1952 C1965 0.929 . S
H1953 C1963 0.929 . S
H1954 C1958 0.929 . S
H1955 C1964 0.929 . S
C1956 H1950 0.930 . S
C1956 C1957 1.336 1_556 S
C1956 C1964 1.378 . S
C1957 C1956 1.336 1_554 S
C1957 C1965 1.439 . S
C1958 H1954 0.929 . S
C1958 C1960 1.378 . S
C1958 C1962 1.350 . S
C1959 C1962 1.463 . S
C1959 C1964 1.350 . S
C1959 N1967 1.427 . S
C1960 H1951 0.930 . S
C1960 C1958 1.378 . S
C1960 C1961 1.367 . S
C1961 C1960 1.367 . S
C1961 C1963 1.433 . S
C1962 C1958 1.350 . S
C1962 C1959 1.463 . S
C1962 N1966 1.427 . S
C1963 H1953 0.929 . S
C1963 C1961 1.433 . S
C1963 N1966 1.384 . S
C1964 H1955 0.929 . S
C1964 C1956 1.378 . S
C1964 C1959 1.350 . S
C1965 H1952 0.929 . S
C1965 C1957 1.439 . S
C1965 N1967 1.384 1_554 S
N1966 C1962 1.427 . S
N1966 C1963 1.384 . S
N1967 C1959 1.427 . S
N1967 C1965 1.384 1_556 S
H1968 C1974 0.930 . S
H1969 C1978 0.930 . S
H1970 C1983 0.929 . S
H1971 C1981 0.929 . S
H1972 C1976 0.929 . S
H1973 C1982 0.929 . S
C1974 H1968 0.930 . S
C1974 C1975 1.367 . S
C1974 C1982 1.378 . S
C1975 C1974 1.367 . S
C1975 C1983 1.433 . S
C1976 H1972 0.929 . S
C1976 C1978 1.378 . S
C1976 C1980 1.350 . S
C1977 C1980 1.463 . S
C1977 C1982 1.350 . S
C1977 N1985 1.427 . S
C1978 H1969 0.930 . S
C1978 C1976 1.378 . S
C1978 C1979 1.367 . S
C1979 C1978 1.367 . S
C1979 C1981 1.433 . S
C1980 C1976 1.350 . S
C1980 C1977 1.463 . S
C1980 N1984 1.427 . S
C1981 H1971 0.929 . S
C1981 C1979 1.433 . S
C1981 N1984 1.384 . S
C1982 H1973 0.929 . S
C1982 C1974 1.378 . S
C1982 C1977 1.350 . S
C1983 H1970 0.929 . S
C1983 C1975 1.433 . S
C1983 N1985 1.384 . S
N1984 C1980 1.427 . S
N1984 C1981 1.384 . S
N1985 C1977 1.427 . S
N1985 C1983 1.384 . S
H1986 C1992 0.930 . S
H1987 C1996 0.930 . S
H1988 C2001 0.929 . S
H1989 C1999 0.929 . S
H1990 C1994 0.929 . S
H1991 C2000 0.929 . S
C1992 H1986 0.930 . S
C1992 C1993 1.367 . S
C1992 C2000 1.378 . S
C1993 C1992 1.367 . S
C1993 C2001 1.433 . S
C1994 H1990 0.929 . S
C1994 C1996 1.378 . S
C1994 C1998 1.350 . S
C1995 C1998 1.463 . S
C1995 C2000 1.350 . S
C1995 N2003 1.427 . S
C1996 H1987 0.930 . S
C1996 C1994 1.378 . S
C1996 C1997 1.367 . S
C1997 C1996 1.367 . S
C1997 C1999 1.433 . S
C1998 C1994 1.350 . S
C1998 C1995 1.463 . S
C1998 N2002 1.427 . S
C1999 H1989 0.929 . S
C1999 C1997 1.433 . S
C1999 N2002 1.384 . S
C2000 H1991 0.929 . S
C2000 C1992 1.378 . S
C2000 C1995 1.350 . S
C2001 H1988 0.929 . S
C2001 C1993 1.433 . S
C2001 N2003 1.384 . S
N2002 C1998 1.427 . S
N2002 C1999 1.384 . S
N2003 C1995 1.427 . S
N2003 C2001 1.384 . S
H2004 C2010 0.930 . S
H2005 C2014 0.930 . S
H2006 C2019 0.929 . S
H2007 C2017 0.929 . S
H2008 C2012 0.929 . S
H2009 C2018 0.929 . S
C2010 H2004 0.930 . S
C2010 C2011 1.367 . S
C2010 C2018 1.378 . S
C2011 C2010 1.367 . S
C2011 C2019 1.433 . S
C2012 H2008 0.929 . S
C2012 C2014 1.378 . S
C2012 C2016 1.350 . S
C2013 C2016 1.463 . S
C2013 C2018 1.350 . S
C2013 N2021 1.427 . S
C2014 H2005 0.930 . S
C2014 C2012 1.378 . S
C2014 C2015 1.367 . S
C2015 C2014 1.367 . S
C2015 C2017 1.433 . S
C2016 C2012 1.350 . S
C2016 C2013 1.463 . S
C2016 N2020 1.427 . S
C2017 H2007 0.929 . S
C2017 C2015 1.433 . S
C2017 N2020 1.384 . S
C2018 H2009 0.929 . S
C2018 C2010 1.378 . S
C2018 C2013 1.350 . S
C2019 H2006 0.929 . S
C2019 C2011 1.433 . S
C2019 N2021 1.384 . S
N2020 C2016 1.427 . S
N2020 C2017 1.384 . S
N2021 C2013 1.427 . S
N2021 C2019 1.384 . S
H2022 C2028 0.930 . S
H2023 C2032 0.930 . S
H2024 C2037 0.929 . S
H2025 C2035 0.929 . S
H2026 C2030 0.929 . S
H2027 C2036 0.929 . S
C2028 H2022 0.930 . S
C2028 C2029 1.367 . S
C2028 C2036 1.378 . S
C2029 C2028 1.367 . S
C2029 C2037 1.433 . S
C2030 H2026 0.929 . S
C2030 C2032 1.378 . S
C2030 C2034 1.350 . S
C2031 C2034 1.463 . S
C2031 C2036 1.350 . S
C2031 N2039 1.427 . S
C2032 H2023 0.930 . S
C2032 C2030 1.378 . S
C2032 C2033 1.367 . S
C2033 C2032 1.367 . S
C2033 C2035 1.433 . S
C2034 C2030 1.350 . S
C2034 C2031 1.463 . S
C2034 N2038 1.427 . S
C2035 H2025 0.929 . S
C2035 C2033 1.433 . S
C2035 N2038 1.384 . S
C2036 H2027 0.929 . S
C2036 C2028 1.378 . S
C2036 C2031 1.350 . S
C2037 H2024 0.929 . S
C2037 C2029 1.433 . S
C2037 N2039 1.384 . S
N2038 C2034 1.427 . S
N2038 C2035 1.384 . S
N2039 C2031 1.427 . S
N2039 C2037 1.384 . S
H2040 C2046 0.930 . S
H2041 C2050 0.930 . S
H2042 C2055 0.929 . S
H2043 C2053 0.929 . S
H2044 C2048 0.929 . S
H2045 C2054 0.929 . S
C2046 H2040 0.930 . S
C2046 C2047 1.367 . S
C2046 C2054 1.378 . S
C2047 C2046 1.367 . S
C2047 C2055 1.433 . S
C2048 H2044 0.929 . S
C2048 C2050 1.378 . S
C2048 C2052 1.350 . S
C2049 C2052 1.463 . S
C2049 C2054 1.350 . S
C2049 N2057 1.427 . S
C2050 H2041 0.930 . S
C2050 C2048 1.378 . S
C2050 C2051 1.335 1_565 S
C2051 C2050 1.335 1_545 S
C2051 C2053 1.440 . S
C2052 C2048 1.350 . S
C2052 C2049 1.463 . S
C2052 N2056 1.427 . S
C2053 H2043 0.929 . S
C2053 C2051 1.440 . S
C2053 N2056 1.384 1_545 S
C2054 H2045 0.929 . S
C2054 C2046 1.378 . S
C2054 C2049 1.350 . S
C2055 H2042 0.929 . S
C2055 C2047 1.433 . S
C2055 N2057 1.384 . S
N2056 C2052 1.427 . S
N2056 C2053 1.384 1_565 S
N2057 C2049 1.427 . S
N2057 C2055 1.384 . S
H2058 C2064 0.930 . S
H2059 C2068 0.930 . S
H2060 C2073 0.929 . S
H2061 C2071 0.929 . S
H2062 C2066 0.929 . S
H2063 C2072 0.929 . S
C2064 H2058 0.930 . S
C2064 C2065 1.367 . S
C2064 C2072 1.378 . S
C2065 C2064 1.367 . S
C2065 C2073 1.433 . S
C2066 H2062 0.929 . S
C2066 C2068 1.378 . S
C2066 C2070 1.350 . S
C2067 C2070 1.463 . S
C2067 C2072 1.350 . S
C2067 N2075 1.427 . S
C2068 H2059 0.930 . S
C2068 C2066 1.378 . S
C2068 C2069 1.367 . S
C2069 C2068 1.367 . S
C2069 C2071 1.433 . S
C2070 C2066 1.350 . S
C2070 C2067 1.463 . S
C2070 N2074 1.427 . S
C2071 H2061 0.929 . S
C2071 C2069 1.433 . S
C2071 N2074 1.384 . S
C2072 H2063 0.929 . S
C2072 C2064 1.378 . S
C2072 C2067 1.350 . S
C2073 H2060 0.929 . S
C2073 C2065 1.433 . S
C2073 N2075 1.384 . S
N2074 C2070 1.427 . S
N2074 C2071 1.384 . S
N2075 C2067 1.427 . S
N2075 C2073 1.384 . S
H2076 C2082 0.930 . S
H2077 C2086 0.930 . S
H2078 C2091 0.929 . S
H2079 C2089 0.929 . S
H2080 C2084 0.929 . S
H2081 C2090 0.929 . S
C2082 H2076 0.930 . S
C2082 C2083 1.367 . S
C2082 C2090 1.378 . S
C2083 C2082 1.367 . S
C2083 C2091 1.433 . S
C2084 H2080 0.929 . S
C2084 C2086 1.378 . S
C2084 C2088 1.350 . S
C2085 C2088 1.463 . S
C2085 C2090 1.350 . S
C2085 N2093 1.427 . S
C2086 H2077 0.930 . S
C2086 C2084 1.378 . S
C2086 C2087 1.367 . S
C2087 C2086 1.367 . S
C2087 C2089 1.433 . S
C2088 C2084 1.350 . S
C2088 C2085 1.463 . S
C2088 N2092 1.427 . S
C2089 H2079 0.929 . S
C2089 C2087 1.433 . S
C2089 N2092 1.384 . S
C2090 H2081 0.929 . S
C2090 C2082 1.378 . S
C2090 C2085 1.350 . S
C2091 H2078 0.929 . S
C2091 C2083 1.433 . S
C2091 N2093 1.384 . S
N2092 C2088 1.427 . S
N2092 C2089 1.384 . S
N2093 C2085 1.427 . S
N2093 C2091 1.384 . S
H2094 C2100 0.930 . S
H2095 C2104 0.930 . S
H2096 C2109 0.929 . S
H2097 C2107 0.929 . S
H2098 C2102 0.929 . S
H2099 C2108 0.929 . S
C2100 H2094 0.930 . S
C2100 C2101 1.367 . S
C2100 C2108 1.378 . S
C2101 C2100 1.367 . S
C2101 C2109 1.433 . S
C2102 H2098 0.929 . S
C2102 C2104 1.378 . S
C2102 C2106 1.350 . S
C2103 C2106 1.463 . S
C2103 C2108 1.350 . S
C2103 N2111 1.427 . S
C2104 H2095 0.930 . S
C2104 C2102 1.378 . S
C2104 C2105 1.367 . S
C2105 C2104 1.367 . S
C2105 C2107 1.433 . S
C2106 C2102 1.350 . S
C2106 C2103 1.463 . S
C2106 N2110 1.427 . S
C2107 H2097 0.929 . S
C2107 C2105 1.433 . S
C2107 N2110 1.384 . S
C2108 H2099 0.929 . S
C2108 C2100 1.378 . S
C2108 C2103 1.350 . S
C2109 H2096 0.929 . S
C2109 C2101 1.433 . S
C2109 N2111 1.384 . S
N2110 C2106 1.427 . S
N2110 C2107 1.384 . S
N2111 C2103 1.427 . S
N2111 C2109 1.384 . S
H2112 C2118 0.930 . S
H2113 C2122 0.930 . S
H2114 C2127 0.929 . S
H2115 C2125 0.929 . S
H2116 C2120 0.929 . S
H2117 C2126 0.929 . S
C2118 H2112 0.930 . S
C2118 C2119 1.367 . S
C2118 C2126 1.378 . S
C2119 C2118 1.367 . S
C2119 C2127 1.433 . S
C2120 H2116 0.929 . S
C2120 C2122 1.378 . S
C2120 C2124 1.350 . S
C2121 C2124 1.463 . S
C2121 C2126 1.350 . S
C2121 N2129 1.427 . S
C2122 H2113 0.930 . S
C2122 C2120 1.378 . S
C2122 C2123 1.367 . S
C2123 C2122 1.367 . S
C2123 C2125 1.433 . S
C2124 C2120 1.350 . S
C2124 C2121 1.463 . S
C2124 N2128 1.427 . S
C2125 H2115 0.929 . S
C2125 C2123 1.433 . S
C2125 N2128 1.384 . S
C2126 H2117 0.929 . S
C2126 C2118 1.378 . S
C2126 C2121 1.350 . S
C2127 H2114 0.929 . S
C2127 C2119 1.433 . S
C2127 N2129 1.384 . S
N2128 C2124 1.427 . S
N2128 C2125 1.384 . S
N2129 C2121 1.427 . S
N2129 C2127 1.384 . S
H2130 C2136 0.930 . S
H2131 C2140 0.930 . S
H2132 C2145 0.929 . S
H2133 C2143 0.929 . S
H2134 C2138 0.929 . S
H2135 C2144 0.929 . S
C2136 H2130 0.930 . S
C2136 C2137 1.367 . S
C2136 C2144 1.378 . S
C2137 C2136 1.367 . S
C2137 C2145 1.433 . S
C2138 H2134 0.929 . S
C2138 C2140 1.378 . S
C2138 C2142 1.350 . S
C2139 C2142 1.463 . S
C2139 C2144 1.350 . S
C2139 N2147 1.427 . S
C2140 H2131 0.930 . S
C2140 C2138 1.378 . S
C2140 C2141 1.367 . S
C2141 C2140 1.367 . S
C2141 C2143 1.433 . S
C2142 C2138 1.350 . S
C2142 C2139 1.463 . S
C2142 N2146 1.427 . S
C2143 H2133 0.929 . S
C2143 C2141 1.433 . S
C2143 N2146 1.384 . S
C2144 H2135 0.929 . S
C2144 C2136 1.378 . S
C2144 C2139 1.350 . S
C2145 H2132 0.929 . S
C2145 C2137 1.433 . S
C2145 N2147 1.384 . S
N2146 C2142 1.427 . S
N2146 C2143 1.384 . S
N2147 C2139 1.427 . S
N2147 C2145 1.384 . S
H2148 C2154 0.930 . S
H2149 C2158 0.930 . S
H2150 C2163 0.929 . S
H2151 C2161 0.929 . S
H2152 C2156 0.929 . S
H2153 C2162 0.929 . S
C2154 H2148 0.930 . S
C2154 C2155 1.367 . S
C2154 C2162 1.378 . S
C2155 C2154 1.367 . S
C2155 C2163 1.433 . S
C2156 H2152 0.929 . S
C2156 C2158 1.378 . S
C2156 C2160 1.350 . S
C2157 C2160 1.463 . S
C2157 C2162 1.350 . S
C2157 N2165 1.427 . S
C2158 H2149 0.930 . S
C2158 C2156 1.378 . S
C2158 C2159 1.367 . S
C2159 C2158 1.367 . S
C2159 C2161 1.433 . S
C2160 C2156 1.350 . S
C2160 C2157 1.463 . S
C2160 N2164 1.427 . S
C2161 H2151 0.929 . S
C2161 C2159 1.433 . S
C2161 N2164 1.384 . S
C2162 H2153 0.929 . S
C2162 C2154 1.378 . S
C2162 C2157 1.350 . S
C2163 H2150 0.929 . S
C2163 C2155 1.433 . S
C2163 N2165 1.384 . S
N2164 C2160 1.427 . S
N2164 C2161 1.384 . S
N2165 C2157 1.427 . S
N2165 C2163 1.384 . S
H2166 C2172 0.930 1_455 S
H2167 C2176 0.930 . S
H2168 C2181 0.929 . S
H2169 C2179 0.929 . S
H2170 C2174 0.929 . S
H2171 C2180 0.929 . S
C2172 H2166 0.930 1_655 S
C2172 C2173 1.352 1_655 S
C2172 C2180 1.378 . S
C2173 C2172 1.352 1_455 S
C2173 C2181 1.409 1_455 S
C2174 H2170 0.929 . S
C2174 C2176 1.378 . S
C2174 C2178 1.350 . S
C2175 C2178 1.463 . S
C2175 C2180 1.350 . S
C2175 N2183 1.427 . S
C2176 H2167 0.930 . S
C2176 C2174 1.378 . S
C2176 C2177 1.367 . S
C2177 C2176 1.367 . S
C2177 C2179 1.433 . S
C2178 C2174 1.350 . S
C2178 C2175 1.463 . S
C2178 N2182 1.427 . S
C2179 H2169 0.929 . S
C2179 C2177 1.433 . S
C2179 N2182 1.384 . S
C2180 H2171 0.929 . S
C2180 C2172 1.378 . S
C2180 C2175 1.350 . S
C2181 H2168 0.929 . S
C2181 C2173 1.409 1_655 S
C2181 N2183 1.384 . S
N2182 C2178 1.427 . S
N2182 C2179 1.384 . S
N2183 C2175 1.427 . S
N2183 C2181 1.384 . S
H2184 C2190 0.930 . S
H2185 C2194 0.930 . S
H2186 C2199 0.929 . S
H2187 C2197 0.929 . S
H2188 C2192 0.929 . S
H2189 C2198 0.929 . S
C2190 H2184 0.930 . S
C2190 C2191 1.367 . S
C2190 C2198 1.378 . S
C2191 C2190 1.367 . S
C2191 C2199 1.433 . S
C2192 H2188 0.929 . S
C2192 C2194 1.378 . S
C2192 C2196 1.350 . S
C2193 C2196 1.463 . S
C2193 C2198 1.350 . S
C2193 N2201 1.427 . S
C2194 H2185 0.930 . S
C2194 C2192 1.378 . S
C2194 C2195 1.367 . S
C2195 C2194 1.367 . S
C2195 C2197 1.433 . S
C2196 C2192 1.350 . S
C2196 C2193 1.463 . S
C2196 N2200 1.427 . S
C2197 H2187 0.929 . S
C2197 C2195 1.433 . S
C2197 N2200 1.384 . S
C2198 H2189 0.929 . S
C2198 C2190 1.378 . S
C2198 C2193 1.350 . S
C2199 H2186 0.929 . S
C2199 C2191 1.433 . S
C2199 N2201 1.384 . S
N2200 C2196 1.427 . S
N2200 C2197 1.384 . S
N2201 C2193 1.427 . S
N2201 C2199 1.384 . S
H2202 C2208 0.930 . S
H2203 C2212 0.930 . S
H2204 C2217 0.929 . S
H2205 C2215 0.929 . S
H2206 C2210 0.929 . S
H2207 C2216 0.929 . S
C2208 H2202 0.930 . S
C2208 C2209 1.375 . S
C2208 C2216 1.378 1_455 S
C2209 C2208 1.375 . S
C2209 C2217 1.377 1_455 S
C2210 H2206 0.929 . S
C2210 C2212 1.378 . S
C2210 C2214 1.350 . S
C2211 C2214 1.463 . S
C2211 C2216 1.350 . S
C2211 N2219 1.427 . S
C2212 H2203 0.930 . S
C2212 C2210 1.378 . S
C2212 C2213 1.367 . S
C2213 C2212 1.367 . S
C2213 C2215 1.433 . S
C2214 C2210 1.350 . S
C2214 C2211 1.463 . S
C2214 N2218 1.427 . S
C2215 H2205 0.929 . S
C2215 C2213 1.433 . S
C2215 N2218 1.384 . S
C2216 H2207 0.929 . S
C2216 C2208 1.378 1_655 S
C2216 C2211 1.350 . S
C2217 H2204 0.929 . S
C2217 C2209 1.377 1_655 S
C2217 N2219 1.384 . S
N2218 C2214 1.427 . S
N2218 C2215 1.384 . S
N2219 C2211 1.427 . S
N2219 C2217 1.384 . S
H2220 C2226 0.930 . S
H2221 C2230 0.930 . S
H2222 C2235 0.929 . S
H2223 C2233 0.929 . S
H2224 C2228 0.929 . S
H2225 C2234 0.929 . S
C2226 H2220 0.930 . S
C2226 C2227 1.367 . S
C2226 C2234 1.378 . S
C2227 C2226 1.367 . S
C2227 C2235 1.433 . S
C2228 H2224 0.929 . S
C2228 C2230 1.378 . S
C2228 C2232 1.350 . S
C2229 C2232 1.463 . S
C2229 C2234 1.350 . S
C2229 N2237 1.427 . S
C2230 H2221 0.930 . S
C2230 C2228 1.378 . S
C2230 C2231 1.367 . S
C2231 C2230 1.367 . S
C2231 C2233 1.433 . S
C2232 C2228 1.350 . S
C2232 C2229 1.463 . S
C2232 N2236 1.427 . S
C2233 H2223 0.929 . S
C2233 C2231 1.433 . S
C2233 N2236 1.384 . S
C2234 H2225 0.929 . S
C2234 C2226 1.378 . S
C2234 C2229 1.350 . S
C2235 H2222 0.929 . S
C2235 C2227 1.433 . S
C2235 N2237 1.384 . S
N2236 C2232 1.427 . S
N2236 C2233 1.384 . S
N2237 C2229 1.427 . S
N2237 C2235 1.384 . S
H2238 C2244 0.930 . S
H2239 C2248 0.930 . S
H2240 C2253 0.929 . S
H2241 C2251 0.929 . S
H2242 C2246 0.929 . S
H2243 C2252 0.929 . S
C2244 H2238 0.930 . S
C2244 C2245 1.367 . S
C2244 C2252 1.378 . S
C2245 C2244 1.367 . S
C2245 C2253 1.433 . S
C2246 H2242 0.929 . S
C2246 C2248 1.378 . S
C2246 C2250 1.350 . S
C2247 C2250 1.463 . S
C2247 C2252 1.350 . S
C2247 N2255 1.427 . S
C2248 H2239 0.930 . S
C2248 C2246 1.378 . S
C2248 C2249 1.367 . S
C2249 C2248 1.367 . S
C2249 C2251 1.433 . S
C2250 C2246 1.350 . S
C2250 C2247 1.463 . S
C2250 N2254 1.427 . S
C2251 H2241 0.929 . S
C2251 C2249 1.433 . S
C2251 N2254 1.384 . S
C2252 H2243 0.929 . S
C2252 C2244 1.378 . S
C2252 C2247 1.350 . S
C2253 H2240 0.929 . S
C2253 C2245 1.433 . S
C2253 N2255 1.384 . S
N2254 C2250 1.427 . S
N2254 C2251 1.384 . S
N2255 C2247 1.427 . S
N2255 C2253 1.384 . S
H2256 C2262 0.930 . S
H2257 C2266 0.930 . S
H2258 C2271 0.929 . S
H2259 C2269 0.929 . S
H2260 C2264 0.929 . S
H2261 C2270 0.929 . S
C2262 H2256 0.930 . S
C2262 C2263 1.367 . S
C2262 C2270 1.378 . S
C2263 C2262 1.367 . S
C2263 C2271 1.433 . S
C2264 H2260 0.929 . S
C2264 C2266 1.378 . S
C2264 C2268 1.350 . S
C2265 C2268 1.463 . S
C2265 C2270 1.350 . S
C2265 N2273 1.427 . S
C2266 H2257 0.930 . S
C2266 C2264 1.378 . S
C2266 C2267 1.367 . S
C2267 C2266 1.367 . S
C2267 C2269 1.433 . S
C2268 C2264 1.350 . S
C2268 C2265 1.463 . S
C2268 N2272 1.427 . S
C2269 H2259 0.929 . S
C2269 C2267 1.433 . S
C2269 N2272 1.384 . S
C2270 H2261 0.929 . S
C2270 C2262 1.378 . S
C2270 C2265 1.350 . S
C2271 H2258 0.929 . S
C2271 C2263 1.433 . S
C2271 N2273 1.384 . S
N2272 C2268 1.427 . S
N2272 C2269 1.384 . S
N2273 C2265 1.427 . S
N2273 C2271 1.384 . S
H2274 C2280 0.930 . S
H2275 C2284 0.930 1_554 S
H2276 C2289 0.929 . S
H2277 C2287 0.929 . S
H2278 C2282 0.929 . S
H2279 C2288 0.929 . S
C2280 H2274 0.930 . S
C2280 C2281 1.367 . S
C2280 C2288 1.378 . S
C2281 C2280 1.367 . S
C2281 C2289 1.433 . S
C2282 H2278 0.929 . S
C2282 C2284 1.378 . S
C2282 C2286 1.350 . S
C2283 C2286 1.463 . S
C2283 C2288 1.350 . S
C2283 N2291 1.427 . S
C2284 H2275 0.930 1_556 S
C2284 C2282 1.378 . S
C2284 C2285 1.360 1_556 S
C2285 C2284 1.360 1_554 S
C2285 C2287 1.398 1_554 S
C2286 C2282 1.350 . S
C2286 C2283 1.463 . S
C2286 N2290 1.427 . S
C2287 H2277 0.929 . S
C2287 C2285 1.398 1_556 S
C2287 N2290 1.384 . S
C2288 H2279 0.929 . S
C2288 C2280 1.378 . S
C2288 C2283 1.350 . S
C2289 H2276 0.929 . S
C2289 C2281 1.433 . S
C2289 N2291 1.384 . S
N2290 C2286 1.427 . S
N2290 C2287 1.384 . S
N2291 C2283 1.427 . S
N2291 C2289 1.384 . S
H2292 C2298 0.930 . S
H2293 C2302 0.930 . S
H2294 C2307 0.929 . S
H2295 C2305 0.929 . S
H2296 C2300 0.929 . S
H2297 C2306 0.929 . S
C2298 H2292 0.930 . S
C2298 C2299 1.367 . S
C2298 C2306 1.378 . S
C2299 C2298 1.367 . S
C2299 C2307 1.433 . S
C2300 H2296 0.929 . S
C2300 C2302 1.378 . S
C2300 C2304 1.350 . S
C2301 C2304 1.463 . S
C2301 C2306 1.350 . S
C2301 N2309 1.427 . S
C2302 H2293 0.930 . S
C2302 C2300 1.378 . S
C2302 C2303 1.367 . S
C2303 C2302 1.367 . S
C2303 C2305 1.433 . S
C2304 C2300 1.350 . S
C2304 C2301 1.463 . S
C2304 N2308 1.427 . S
C2305 H2295 0.929 . S
C2305 C2303 1.433 . S
C2305 N2308 1.384 . S
C2306 H2297 0.929 . S
C2306 C2298 1.378 . S
C2306 C2301 1.350 . S
C2307 H2294 0.929 . S
C2307 C2299 1.433 . S
C2307 N2309 1.384 . S
N2308 C2304 1.427 . S
N2308 C2305 1.384 . S
N2309 C2301 1.427 . S
N2309 C2307 1.384 . S
H2310 C2316 0.930 . S
H2311 C2320 0.930 . S
H2312 C2325 0.929 . S
H2313 C2323 0.929 . S
H2314 C2318 0.929 . S
H2315 C2324 0.929 . S
C2316 H2310 0.930 . S
C2316 C2317 1.367 . S
C2316 C2324 1.378 . S
C2317 C2316 1.367 . S
C2317 C2325 1.433 . S
C2318 H2314 0.929 . S
C2318 C2320 1.378 . S
C2318 C2322 1.350 . S
C2319 C2322 1.463 . S
C2319 C2324 1.350 . S
C2319 N2327 1.427 . S
C2320 H2311 0.930 . S
C2320 C2318 1.378 . S
C2320 C2321 1.367 . S
C2321 C2320 1.367 . S
C2321 C2323 1.433 . S
C2322 C2318 1.350 . S
C2322 C2319 1.463 . S
C2322 N2326 1.427 . S
C2323 H2313 0.929 . S
C2323 C2321 1.433 . S
C2323 N2326 1.384 . S
C2324 H2315 0.929 . S
C2324 C2316 1.378 . S
C2324 C2319 1.350 . S
C2325 H2312 0.929 . S
C2325 C2317 1.433 . S
C2325 N2327 1.384 . S
N2326 C2322 1.427 . S
N2326 C2323 1.384 . S
N2327 C2319 1.427 . S
N2327 C2325 1.384 . S
H2328 C2334 0.930 . S
H2329 C2338 0.930 . S
H2330 C2343 0.929 . S
H2331 C2341 0.929 . S
H2332 C2336 0.929 . S
H2333 C2342 0.929 . S
C2334 H2328 0.930 . S
C2334 C2335 1.367 . S
C2334 C2342 1.378 . S
C2335 C2334 1.367 . S
C2335 C2343 1.433 . S
C2336 H2332 0.929 . S
C2336 C2338 1.378 . S
C2336 C2340 1.350 . S
C2337 C2340 1.463 . S
C2337 C2342 1.350 . S
C2337 N2345 1.427 . S
C2338 H2329 0.930 . S
C2338 C2336 1.378 . S
C2338 C2339 1.367 . S
C2339 C2338 1.367 . S
C2339 C2341 1.433 . S
C2340 C2336 1.350 . S
C2340 C2337 1.463 . S
C2340 N2344 1.427 . S
C2341 H2331 0.929 . S
C2341 C2339 1.433 . S
C2341 N2344 1.384 . S
C2342 H2333 0.929 . S
C2342 C2334 1.378 . S
C2342 C2337 1.350 . S
C2343 H2330 0.929 . S
C2343 C2335 1.433 . S
C2343 N2345 1.384 . S
N2344 C2340 1.427 . S
N2344 C2341 1.384 . S
N2345 C2337 1.427 . S
N2345 C2343 1.384 . S
H2346 C2352 0.930 . S
H2347 C2356 0.930 . S
H2348 C2361 0.929 . S
H2349 C2359 0.929 . S
H2350 C2354 0.929 . S
H2351 C2360 0.929 . S
C2352 H2346 0.930 . S
C2352 C2353 1.367 . S
C2352 C2360 1.378 . S
C2353 C2352 1.367 . S
C2353 C2361 1.433 . S
C2354 H2350 0.929 . S
C2354 C2356 1.378 1_554 S
C2354 C2358 1.350 . S
C2355 C2358 1.463 . S
C2355 C2360 1.350 . S
C2355 N2363 1.427 . S
C2356 H2347 0.930 . S
C2356 C2354 1.378 1_556 S
C2356 C2357 1.379 . S
C2357 C2356 1.379 . S
C2357 C2359 1.370 1_556 S
C2358 C2354 1.350 . S
C2358 C2355 1.463 . S
C2358 N2362 1.427 . S
C2359 H2349 0.929 . S
C2359 C2357 1.370 1_554 S
C2359 N2362 1.384 . S
C2360 H2351 0.929 . S
C2360 C2352 1.378 . S
C2360 C2355 1.350 . S
C2361 H2348 0.929 . S
C2361 C2353 1.433 . S
C2361 N2363 1.384 . S
N2362 C2358 1.427 . S
N2362 C2359 1.384 . S
N2363 C2355 1.427 . S
N2363 C2361 1.384 . S
H2364 C2370 0.930 . S
H2365 C2374 0.930 . S
H2366 C2379 0.929 . S
H2367 C2377 0.929 . S
H2368 C2372 0.929 . S
H2369 C2378 0.929 . S
C2370 H2364 0.930 . S
C2370 C2371 1.367 . S
C2370 C2378 1.378 . S
C2371 C2370 1.367 . S
C2371 C2379 1.433 . S
C2372 H2368 0.929 . S
C2372 C2374 1.378 . S
C2372 C2376 1.350 . S
C2373 C2376 1.463 . S
C2373 C2378 1.350 . S
C2373 N2381 1.427 . S
C2374 H2365 0.930 . S
C2374 C2372 1.378 . S
C2374 C2375 1.367 . S
C2375 C2374 1.367 . S
C2375 C2377 1.433 . S
C2376 C2372 1.350 . S
C2376 C2373 1.463 . S
C2376 N2380 1.427 . S
C2377 H2367 0.929 . S
C2377 C2375 1.433 . S
C2377 N2380 1.384 . S
C2378 H2369 0.929 . S
C2378 C2370 1.378 . S
C2378 C2373 1.350 . S
C2379 H2366 0.929 . S
C2379 C2371 1.433 . S
C2379 N2381 1.384 . S
N2380 C2376 1.427 . S
N2380 C2377 1.384 . S
N2381 C2373 1.427 . S
N2381 C2379 1.384 . S
H2382 C2388 0.930 . S
H2383 C2392 0.930 . S
H2384 C2397 0.929 . S
H2385 C2395 0.929 . S
H2386 C2390 0.929 . S
H2387 C2396 0.929 . S
C2388 H2382 0.930 . S
C2388 C2389 1.367 . S
C2388 C2396 1.378 . S
C2389 C2388 1.367 . S
C2389 C2397 1.433 . S
C2390 H2386 0.929 . S
C2390 C2392 1.378 . S
C2390 C2394 1.350 . S
C2391 C2394 1.463 . S
C2391 C2396 1.350 . S
C2391 N2399 1.427 . S
C2392 H2383 0.930 . S
C2392 C2390 1.378 . S
C2392 C2393 1.367 . S
C2393 C2392 1.367 . S
C2393 C2395 1.433 . S
C2394 C2390 1.350 . S
C2394 C2391 1.463 . S
C2394 N2398 1.427 . S
C2395 H2385 0.929 . S
C2395 C2393 1.433 . S
C2395 N2398 1.384 . S
C2396 H2387 0.929 . S
C2396 C2388 1.378 . S
C2396 C2391 1.350 . S
C2397 H2384 0.929 . S
C2397 C2389 1.433 . S
C2397 N2399 1.384 . S
N2398 C2394 1.427 . S
N2398 C2395 1.384 . S
N2399 C2391 1.427 . S
N2399 C2397 1.384 . S
H2400 C2406 0.930 . S
H2401 C2410 0.930 . S
H2402 C2415 0.929 . S
H2403 C2413 0.929 . S
H2404 C2408 0.929 . S
H2405 C2414 0.929 . S
C2406 H2400 0.930 . S
C2406 C2407 1.367 . S
C2406 C2414 1.378 . S
C2407 C2406 1.367 . S
C2407 C2415 1.433 . S
C2408 H2404 0.929 . S
C2408 C2410 1.378 . S
C2408 C2412 1.350 . S
C2409 C2412 1.463 . S
C2409 C2414 1.350 . S
C2409 N2417 1.427 . S
C2410 H2401 0.930 . S
C2410 C2408 1.378 . S
C2410 C2411 1.367 . S
C2411 C2410 1.367 . S
C2411 C2413 1.433 . S
C2412 C2408 1.350 . S
C2412 C2409 1.463 . S
C2412 N2416 1.427 . S
C2413 H2403 0.929 . S
C2413 C2411 1.433 . S
C2413 N2416 1.384 . S
C2414 H2405 0.929 . S
C2414 C2406 1.378 . S
C2414 C2409 1.350 . S
C2415 H2402 0.929 . S
C2415 C2407 1.433 . S
C2415 N2417 1.384 . S
N2416 C2412 1.427 . S
N2416 C2413 1.384 . S
N2417 C2409 1.427 . S
N2417 C2415 1.384 . S
H2418 C2424 0.930 . S
H2419 C2428 0.930 . S
H2420 C2433 0.929 . S
H2421 C2431 0.929 . S
H2422 C2426 0.929 . S
H2423 C2432 0.929 . S
C2424 H2418 0.930 . S
C2424 C2425 1.367 . S
C2424 C2432 1.378 . S
C2425 C2424 1.367 . S
C2425 C2433 1.433 . S
C2426 H2422 0.929 . S
C2426 C2428 1.378 . S
C2426 C2430 1.350 . S
C2427 C2430 1.463 . S
C2427 C2432 1.350 . S
C2427 N2435 1.427 . S
C2428 H2419 0.930 . S
C2428 C2426 1.378 . S
C2428 C2429 1.367 . S
C2429 C2428 1.367 . S
C2429 C2431 1.433 . S
C2430 C2426 1.350 . S
C2430 C2427 1.463 . S
C2430 N2434 1.427 . S
C2431 H2421 0.929 . S
C2431 C2429 1.433 . S
C2431 N2434 1.384 . S
C2432 H2423 0.929 . S
C2432 C2424 1.378 . S
C2432 C2427 1.350 . S
C2433 H2420 0.929 . S
C2433 C2425 1.433 . S
C2433 N2435 1.384 . S
N2434 C2430 1.427 . S
N2434 C2431 1.384 . S
N2435 C2427 1.427 . S
N2435 C2433 1.384 . S
H2436 C2442 0.930 . S
H2437 C2446 0.930 . S
H2438 C2451 0.929 . S
H2439 C2449 0.929 . S
H2440 C2444 0.929 . S
H2441 C2450 0.929 . S
C2442 H2436 0.930 . S
C2442 C2443 1.367 . S
C2442 C2450 1.378 . S
C2443 C2442 1.367 . S
C2443 C2451 1.433 . S
C2444 H2440 0.929 . S
C2444 C2446 1.378 . S
C2444 C2448 1.350 . S
C2445 C2448 1.463 . S
C2445 C2450 1.350 . S
C2445 N2453 1.427 . S
C2446 H2437 0.930 . S
C2446 C2444 1.378 . S
C2446 C2447 1.336 1_565 S
C2447 C2446 1.336 1_545 S
C2447 C2449 1.439 . S
C2448 C2444 1.350 . S
C2448 C2445 1.463 . S
C2448 N2452 1.427 . S
C2449 H2439 0.929 . S
C2449 C2447 1.439 . S
C2449 N2452 1.384 1_545 S
C2450 H2441 0.929 . S
C2450 C2442 1.378 . S
C2450 C2445 1.350 . S
C2451 H2438 0.929 . S
C2451 C2443 1.433 . S
C2451 N2453 1.384 . S
N2452 C2448 1.427 . S
N2452 C2449 1.384 1_565 S
N2453 C2445 1.427 . S
N2453 C2451 1.384 . S
H2454 C2460 0.930 . S
H2455 C2464 0.930 . S
H2456 C2469 0.929 . S
H2457 C2467 0.929 . S
H2458 C2462 0.929 . S
H2459 C2468 0.929 . S
C2460 H2454 0.930 . S
C2460 C2461 1.367 . S
C2460 C2468 1.378 . S
C2461 C2460 1.367 . S
C2461 C2469 1.433 . S
C2462 H2458 0.929 . S
C2462 C2464 1.378 . S
C2462 C2466 1.350 . S
C2463 C2466 1.463 . S
C2463 C2468 1.350 . S
C2463 N2471 1.427 . S
C2464 H2455 0.930 . S
C2464 C2462 1.378 . S
C2464 C2465 1.367 . S
C2465 C2464 1.367 . S
C2465 C2467 1.433 . S
C2466 C2462 1.350 . S
C2466 C2463 1.463 . S
C2466 N2470 1.427 . S
C2467 H2457 0.929 . S
C2467 C2465 1.433 . S
C2467 N2470 1.384 . S
C2468 H2459 0.929 . S
C2468 C2460 1.378 . S
C2468 C2463 1.350 . S
C2469 H2456 0.929 . S
C2469 C2461 1.433 . S
C2469 N2471 1.384 . S
N2470 C2466 1.427 . S
N2470 C2467 1.384 . S
N2471 C2463 1.427 . S
N2471 C2469 1.384 . S
H2472 C2478 0.930 . S
H2473 C2482 0.930 . S
H2474 C2487 0.929 . S
H2475 C2485 0.929 . S
H2476 C2480 0.929 . S
H2477 C2486 0.929 . S
C2478 H2472 0.930 . S
C2478 C2479 1.367 . S
C2478 C2486 1.378 . S
C2479 C2478 1.367 . S
C2479 C2487 1.433 . S
C2480 H2476 0.929 . S
C2480 C2482 1.378 . S
C2480 C2484 1.350 . S
C2481 C2484 1.463 . S
C2481 C2486 1.350 . S
C2481 N2489 1.427 . S
C2482 H2473 0.930 . S
C2482 C2480 1.378 . S
C2482 C2483 1.367 . S
C2483 C2482 1.367 . S
C2483 C2485 1.433 . S
C2484 C2480 1.350 . S
C2484 C2481 1.463 . S
C2484 N2488 1.427 . S
C2485 H2475 0.929 . S
C2485 C2483 1.433 . S
C2485 N2488 1.384 . S
C2486 H2477 0.929 . S
C2486 C2478 1.378 . S
C2486 C2481 1.350 . S
C2487 H2474 0.929 . S
C2487 C2479 1.433 . S
C2487 N2489 1.384 . S
N2488 C2484 1.427 . S
N2488 C2485 1.384 . S
N2489 C2481 1.427 . S
N2489 C2487 1.384 . S
H2490 C2496 0.930 . S
H2491 C2500 0.930 . S
H2492 C2505 0.929 . S
H2493 C2503 0.929 . S
H2494 C2498 0.929 . S
H2495 C2504 0.929 . S
C2496 H2490 0.930 . S
C2496 C2497 1.367 . S
C2496 C2504 1.378 . S
C2497 C2496 1.367 . S
C2497 C2505 1.433 . S
C2498 H2494 0.929 . S
C2498 C2500 1.378 . S
C2498 C2502 1.350 . S
C2499 C2502 1.463 . S
C2499 C2504 1.350 . S
C2499 N2507 1.427 . S
C2500 H2491 0.930 . S
C2500 C2498 1.378 . S
C2500 C2501 1.367 . S
C2501 C2500 1.367 . S
C2501 C2503 1.433 . S
C2502 C2498 1.350 . S
C2502 C2499 1.463 . S
C2502 N2506 1.427 . S
C2503 H2493 0.929 . S
C2503 C2501 1.433 . S
C2503 N2506 1.384 . S
C2504 H2495 0.929 . S
C2504 C2496 1.378 . S
C2504 C2499 1.350 . S
C2505 H2492 0.929 . S
C2505 C2497 1.433 . S
C2505 N2507 1.384 . S
N2506 C2502 1.427 . S
N2506 C2503 1.384 . S
N2507 C2499 1.427 . S
N2507 C2505 1.384 . S
H2508 C2514 0.930 . S
H2509 C2518 0.930 . S
H2510 C2523 0.929 . S
H2511 C2521 0.929 . S
H2512 C2516 0.929 . S
H2513 C2522 0.929 . S
C2514 H2508 0.930 . S
C2514 C2515 1.336 1_545 S
C2514 C2522 1.378 . S
C2515 C2514 1.336 1_565 S
C2515 C2523 1.439 . S
C2516 H2512 0.929 . S
C2516 C2518 1.378 . S
C2516 C2520 1.350 . S
C2517 C2520 1.463 . S
C2517 C2522 1.350 . S
C2517 N2525 1.427 . S
C2518 H2509 0.930 . S
C2518 C2516 1.378 . S
C2518 C2519 1.367 . S
C2519 C2518 1.367 . S
C2519 C2521 1.433 . S
C2520 C2516 1.350 . S
C2520 C2517 1.463 . S
C2520 N2524 1.427 . S
C2521 H2511 0.929 . S
C2521 C2519 1.433 . S
C2521 N2524 1.384 . S
C2522 H2513 0.929 . S
C2522 C2514 1.378 . S
C2522 C2517 1.350 . S
C2523 H2510 0.929 . S
C2523 C2515 1.439 . S
C2523 N2525 1.384 1_565 S
N2524 C2520 1.427 . S
N2524 C2521 1.384 . S
N2525 C2517 1.427 . S
N2525 C2523 1.384 1_545 S
H2526 C2532 0.930 . S
H2527 C2536 0.930 . S
H2528 C2541 0.929 . S
H2529 C2539 0.929 . S
H2530 C2534 0.929 . S
H2531 C2540 0.929 . S
C2532 H2526 0.930 . S
C2532 C2533 1.335 1_565 S
C2532 C2540 1.378 . S
C2533 C2532 1.335 1_545 S
C2533 C2541 1.440 . S
C2534 H2530 0.929 . S
C2534 C2536 1.378 . S
C2534 C2538 1.350 . S
C2535 C2538 1.463 . S
C2535 C2540 1.350 . S
C2535 N2543 1.427 . S
C2536 H2527 0.930 . S
C2536 C2534 1.378 . S
C2536 C2537 1.367 . S
C2537 C2536 1.367 . S
C2537 C2539 1.433 . S
C2538 C2534 1.350 . S
C2538 C2535 1.463 . S
C2538 N2542 1.427 . S
C2539 H2529 0.929 . S
C2539 C2537 1.433 . S
C2539 N2542 1.384 . S
C2540 H2531 0.929 . S
C2540 C2532 1.378 . S
C2540 C2535 1.350 . S
C2541 H2528 0.929 . S
C2541 C2533 1.440 . S
C2541 N2543 1.384 1_545 S
N2542 C2538 1.427 . S
N2542 C2539 1.384 . S
N2543 C2535 1.427 . S
N2543 C2541 1.384 1_565 S
H2544 C2550 0.930 . S
H2545 C2554 0.930 . S
H2546 C2559 0.929 . S
H2547 C2557 0.929 . S
H2548 C2552 0.929 . S
H2549 C2558 0.929 . S
C2550 H2544 0.930 . S
C2550 C2551 1.367 . S
C2550 C2558 1.378 . S
C2551 C2550 1.367 . S
C2551 C2559 1.433 . S
C2552 H2548 0.929 . S
C2552 C2554 1.378 . S
C2552 C2556 1.350 . S
C2553 C2556 1.463 . S
C2553 C2558 1.350 . S
C2553 N2561 1.427 . S
C2554 H2545 0.930 . S
C2554 C2552 1.378 . S
C2554 C2555 1.367 . S
C2555 C2554 1.367 . S
C2555 C2557 1.433 . S
C2556 C2552 1.350 . S
C2556 C2553 1.463 . S
C2556 N2560 1.427 . S
C2557 H2547 0.929 . S
C2557 C2555 1.433 . S
C2557 N2560 1.384 . S
C2558 H2549 0.929 . S
C2558 C2550 1.378 . S
C2558 C2553 1.350 . S
C2559 H2546 0.929 . S
C2559 C2551 1.433 . S
C2559 N2561 1.384 . S
N2560 C2556 1.427 . S
N2560 C2557 1.384 . S
N2561 C2553 1.427 . S
N2561 C2559 1.384 . S
H2562 C2568 0.930 . S
H2563 C2572 0.930 . S
H2564 C2577 0.929 . S
H2565 C2575 0.929 . S
H2566 C2570 0.929 . S
H2567 C2576 0.929 . S
C2568 H2562 0.930 . S
C2568 C2569 1.367 . S
C2568 C2576 1.378 . S
C2569 C2568 1.367 . S
C2569 C2577 1.433 . S
C2570 H2566 0.929 . S
C2570 C2572 1.378 . S
C2570 C2574 1.350 . S
C2571 C2574 1.463 . S
C2571 C2576 1.350 . S
C2571 N2579 1.427 . S
C2572 H2563 0.930 . S
C2572 C2570 1.378 . S
C2572 C2573 1.367 . S
C2573 C2572 1.367 . S
C2573 C2575 1.433 . S
C2574 C2570 1.350 . S
C2574 C2571 1.463 . S
C2574 N2578 1.427 . S
C2575 H2565 0.929 . S
C2575 C2573 1.433 . S
C2575 N2578 1.384 . S
C2576 H2567 0.929 . S
C2576 C2568 1.378 . S
C2576 C2571 1.350 . S
C2577 H2564 0.929 . S
C2577 C2569 1.433 . S
C2577 N2579 1.384 . S
N2578 C2574 1.427 . S
N2578 C2575 1.384 . S
N2579 C2571 1.427 . S
N2579 C2577 1.384 . S
H2580 C2586 0.930 . S
H2581 C2590 0.930 . S
H2582 C2595 0.929 . S
H2583 C2593 0.929 . S
H2584 C2588 0.929 . S
H2585 C2594 0.929 . S
C2586 H2580 0.930 . S
C2586 C2587 1.367 . S
C2586 C2594 1.378 . S
C2587 C2586 1.367 . S
C2587 C2595 1.433 . S
C2588 H2584 0.929 . S
C2588 C2590 1.378 . S
C2588 C2592 1.350 . S
C2589 C2592 1.463 . S
C2589 C2594 1.350 . S
C2589 N2597 1.427 . S
C2590 H2581 0.930 . S
C2590 C2588 1.378 . S
C2590 C2591 1.367 . S
C2591 C2590 1.367 . S
C2591 C2593 1.433 . S
C2592 C2588 1.350 . S
C2592 C2589 1.463 . S
C2592 N2596 1.427 . S
C2593 H2583 0.929 . S
C2593 C2591 1.433 . S
C2593 N2596 1.384 . S
C2594 H2585 0.929 . S
C2594 C2586 1.378 . S
C2594 C2589 1.350 . S
C2595 H2582 0.929 . S
C2595 C2587 1.433 . S
C2595 N2597 1.384 . S
N2596 C2592 1.427 . S
N2596 C2593 1.384 . S
N2597 C2589 1.427 . S
N2597 C2595 1.384 . S
H2598 C2604 0.930 . S
H2599 C2608 0.930 1_655 S
H2600 C2613 0.929 . S
H2601 C2611 0.929 . S
H2602 C2606 0.929 . S
H2603 C2612 0.929 . S
C2604 H2598 0.930 . S
C2604 C2605 1.367 . S
C2604 C2612 1.378 . S
C2605 C2604 1.367 . S
C2605 C2613 1.433 . S
C2606 H2602 0.929 . S
C2606 C2608 1.378 . S
C2606 C2610 1.350 . S
C2607 C2610 1.463 . S
C2607 C2612 1.350 . S
C2607 N2615 1.427 . S
C2608 H2599 0.930 1_455 S
C2608 C2606 1.378 . S
C2608 C2609 1.361 1_455 S
C2609 C2608 1.361 1_655 S
C2609 C2611 1.396 1_655 S
C2610 C2606 1.350 . S
C2610 C2607 1.463 . S
C2610 N2614 1.427 . S
C2611 H2601 0.929 . S
C2611 C2609 1.396 1_455 S
C2611 N2614 1.384 . S
C2612 H2603 0.929 . S
C2612 C2604 1.378 . S
C2612 C2607 1.350 . S
C2613 H2600 0.929 . S
C2613 C2605 1.433 . S
C2613 N2615 1.384 . S
N2614 C2610 1.427 . S
N2614 C2611 1.384 . S
N2615 C2607 1.427 . S
N2615 C2613 1.384 . S
H2616 C2622 0.930 . S
H2617 C2626 0.930 . S
H2618 C2631 0.929 . S
H2619 C2629 0.929 . S
H2620 C2624 0.929 . S
H2621 C2630 0.929 . S
C2622 H2616 0.930 . S
C2622 C2623 1.367 . S
C2622 C2630 1.378 . S
C2623 C2622 1.367 . S
C2623 C2631 1.433 . S
C2624 H2620 0.929 . S
C2624 C2626 1.378 . S
C2624 C2628 1.350 . S
C2625 C2628 1.463 . S
C2625 C2630 1.350 . S
C2625 N2633 1.427 . S
C2626 H2617 0.930 . S
C2626 C2624 1.378 . S
C2626 C2627 1.367 . S
C2627 C2626 1.367 . S
C2627 C2629 1.433 . S
C2628 C2624 1.350 . S
C2628 C2625 1.463 . S
C2628 N2632 1.427 . S
C2629 H2619 0.929 . S
C2629 C2627 1.433 . S
C2629 N2632 1.384 . S
C2630 H2621 0.929 . S
C2630 C2622 1.378 . S
C2630 C2625 1.350 . S
C2631 H2618 0.929 . S
C2631 C2623 1.433 . S
C2631 N2633 1.384 . S
N2632 C2628 1.427 . S
N2632 C2629 1.384 . S
N2633 C2625 1.427 . S
N2633 C2631 1.384 . S
H2634 C2640 0.930 . S
H2635 C2644 0.930 . S
H2636 C2649 0.957 . S
H2637 C2647 0.929 . S
H2638 C2642 0.929 . S
H2639 C2648 0.929 . S
C2640 H2634 0.930 . S
C2640 C2641 1.347 1_455 S
C2640 C2648 1.378 . S
C2641 C2640 1.347 1_655 S
C2641 C2649 1.416 1_655 S
C2642 H2638 0.929 . S
C2642 C2644 1.378 . S
C2642 C2646 1.350 . S
C2643 C2646 1.463 . S
C2643 C2648 1.350 . S
C2643 N2651 1.427 . S
C2644 H2635 0.930 . S
C2644 C2642 1.378 . S
C2644 C2645 1.367 . S
C2645 C2644 1.367 . S
C2645 C2647 1.433 . S
C2646 C2642 1.350 . S
C2646 C2643 1.463 . S
C2646 N2650 1.427 . S
C2647 H2637 0.929 . S
C2647 C2645 1.433 . S
C2647 N2650 1.384 . S
C2648 H2639 0.929 . S
C2648 C2640 1.378 . S
C2648 C2643 1.350 . S
C2649 H2636 0.957 . S
C2649 C2641 1.416 1_455 S
C2649 N2651 1.384 . S
N2650 C2646 1.427 . S
N2650 C2647 1.384 . S
N2651 C2643 1.427 . S
N2651 C2649 1.384 . S
H2652 C2658 0.930 . S
H2653 C2662 0.930 . S
H2654 C2667 0.929 . S
H2655 C2665 0.929 . S
H2656 C2660 0.929 . S
H2657 C2666 0.929 . S
C2658 H2652 0.930 . S
C2658 C2659 1.367 . S
C2658 C2666 1.378 . S
C2659 C2658 1.367 . S
C2659 C2667 1.433 . S
C2660 H2656 0.929 . S
C2660 C2662 1.378 . S
C2660 C2664 1.350 . S
C2661 C2664 1.463 . S
C2661 C2666 1.350 . S
C2661 N2669 1.427 . S
C2662 H2653 0.930 . S
C2662 C2660 1.378 . S
C2662 C2663 1.367 . S
C2663 C2662 1.367 . S
C2663 C2665 1.433 . S
C2664 C2660 1.350 . S
C2664 C2661 1.463 . S
C2664 N2668 1.427 . S
C2665 H2655 0.929 . S
C2665 C2663 1.433 . S
C2665 N2668 1.384 . S
C2666 H2657 0.929 . S
C2666 C2658 1.378 . S
C2666 C2661 1.350 . S
C2667 H2654 0.929 . S
C2667 C2659 1.433 . S
C2667 N2669 1.384 . S
N2668 C2664 1.427 . S
N2668 C2665 1.384 . S
N2669 C2661 1.427 . S
N2669 C2667 1.384 . S
H2670 C2676 0.930 . S
H2671 C2680 0.930 . S
H2672 C2685 0.929 . S
H2673 C2683 0.929 . S
H2674 C2678 0.929 . S
H2675 C2684 0.929 . S
C2676 H2670 0.930 . S
C2676 C2677 1.367 . S
C2676 C2684 1.378 . S
C2677 C2676 1.367 . S
C2677 C2685 1.433 . S
C2678 H2674 0.929 . S
C2678 C2680 1.378 . S
C2678 C2682 1.350 . S
C2679 C2682 1.463 . S
C2679 C2684 1.350 . S
C2679 N2687 1.427 . S
C2680 H2671 0.930 . S
C2680 C2678 1.378 . S
C2680 C2681 1.367 . S
C2681 C2680 1.367 . S
C2681 C2683 1.433 . S
C2682 C2678 1.350 . S
C2682 C2679 1.463 . S
C2682 N2686 1.427 . S
C2683 H2673 0.929 . S
C2683 C2681 1.433 . S
C2683 N2686 1.384 . S
C2684 H2675 0.929 . S
C2684 C2676 1.378 . S
C2684 C2679 1.350 . S
C2685 H2672 0.929 . S
C2685 C2677 1.433 . S
C2685 N2687 1.384 . S
N2686 C2682 1.427 . S
N2686 C2683 1.384 . S
N2687 C2679 1.427 . S
N2687 C2685 1.384 . S
H2688 C2694 0.930 . S
H2689 C2698 0.930 . S
H2690 C2703 0.929 . S
H2691 C2701 0.929 . S
H2692 C2696 0.929 . S
H2693 C2702 0.929 . S
C2694 H2688 0.930 . S
C2694 C2695 1.367 . S
C2694 C2702 1.378 . S
C2695 C2694 1.367 . S
C2695 C2703 1.433 . S
C2696 H2692 0.929 . S
C2696 C2698 1.378 . S
C2696 C2700 1.350 . S
C2697 C2700 1.463 . S
C2697 C2702 1.350 . S
C2697 N2705 1.427 . S
C2698 H2689 0.930 . S
C2698 C2696 1.378 . S
C2698 C2699 1.367 . S
C2699 C2698 1.367 . S
C2699 C2701 1.433 . S
C2700 C2696 1.350 . S
C2700 C2697 1.463 . S
C2700 N2704 1.427 . S
C2701 H2691 0.929 . S
C2701 C2699 1.433 . S
C2701 N2704 1.384 . S
C2702 H2693 0.929 . S
C2702 C2694 1.378 . S
C2702 C2697 1.350 . S
C2703 H2690 0.929 . S
C2703 C2695 1.433 . S
C2703 N2705 1.384 . S
N2704 C2700 1.427 . S
N2704 C2701 1.384 . S
N2705 C2697 1.427 . S
N2705 C2703 1.384 . S
H2706 C2712 0.930 1_556 S
H2707 C2716 0.930 . S
H2708 C2721 0.929 . S
H2709 C2719 0.929 . S
H2710 C2714 0.929 . S
H2711 C2720 0.929 . S
C2712 H2706 0.930 1_554 S
C2712 C2713 1.355 1_554 S
C2712 C2720 1.378 . S
C2713 C2712 1.355 1_556 S
C2713 C2721 1.405 1_556 S
C2714 H2710 0.929 . S
C2714 C2716 1.378 . S
C2714 C2718 1.350 . S
C2715 C2718 1.463 . S
C2715 C2720 1.350 . S
C2715 N2723 1.427 . S
C2716 H2707 0.930 . S
C2716 C2714 1.378 . S
C2716 C2717 1.367 . S
C2717 C2716 1.367 . S
C2717 C2719 1.433 . S
C2718 C2714 1.350 . S
C2718 C2715 1.463 . S
C2718 N2722 1.427 . S
C2719 H2709 0.929 . S
C2719 C2717 1.433 . S
C2719 N2722 1.384 . S
C2720 H2711 0.929 . S
C2720 C2712 1.378 . S
C2720 C2715 1.350 . S
C2721 H2708 0.929 . S
C2721 C2713 1.405 1_554 S
C2721 N2723 1.384 . S
N2722 C2718 1.427 . S
N2722 C2719 1.384 . S
N2723 C2715 1.427 . S
N2723 C2721 1.384 . S
H2724 C2730 0.930 . S
H2725 C2734 0.930 . S
H2726 C2739 0.929 . S
H2727 C2737 0.929 . S
H2728 C2732 0.929 . S
H2729 C2738 0.929 . S
C2730 H2724 0.930 . S
C2730 C2731 1.367 . S
C2730 C2738 1.378 . S
C2731 C2730 1.367 . S
C2731 C2739 1.433 . S
C2732 H2728 0.929 . S
C2732 C2734 1.378 . S
C2732 C2736 1.350 . S
C2733 C2736 1.463 . S
C2733 C2738 1.350 . S
C2733 N2741 1.427 . S
C2734 H2725 0.930 . S
C2734 C2732 1.378 . S
C2734 C2735 1.367 . S
C2735 C2734 1.367 . S
C2735 C2737 1.433 . S
C2736 C2732 1.350 . S
C2736 C2733 1.463 . S
C2736 N2740 1.427 . S
C2737 H2727 0.929 . S
C2737 C2735 1.433 . S
C2737 N2740 1.384 . S
C2738 H2729 0.929 . S
C2738 C2730 1.378 . S
C2738 C2733 1.350 . S
C2739 H2726 0.929 . S
C2739 C2731 1.433 . S
C2739 N2741 1.384 . S
N2740 C2736 1.427 . S
N2740 C2737 1.384 . S
N2741 C2733 1.427 . S
N2741 C2739 1.384 . S
H2742 C2748 0.930 . S
H2743 C2752 0.930 . S
H2744 C2757 0.929 . S
H2745 C2755 0.929 . S
H2746 C2750 0.929 . S
H2747 C2756 0.929 . S
C2748 H2742 0.930 . S
C2748 C2749 1.367 . S
C2748 C2756 1.378 . S
C2749 C2748 1.367 . S
C2749 C2757 1.433 . S
C2750 H2746 0.929 . S
C2750 C2752 1.378 . S
C2750 C2754 1.350 . S
C2751 C2754 1.463 . S
C2751 C2756 1.350 . S
C2751 N2759 1.427 . S
C2752 H2743 0.930 . S
C2752 C2750 1.378 . S
C2752 C2753 1.367 . S
C2753 C2752 1.367 . S
C2753 C2755 1.433 . S
C2754 C2750 1.350 . S
C2754 C2751 1.463 . S
C2754 N2758 1.427 . S
C2755 H2745 0.929 . S
C2755 C2753 1.433 . S
C2755 N2758 1.384 . S
C2756 H2747 0.929 . S
C2756 C2748 1.378 . S
C2756 C2751 1.350 . S
C2757 H2744 0.929 . S
C2757 C2749 1.433 . S
C2757 N2759 1.384 . S
N2758 C2754 1.427 . S
N2758 C2755 1.384 . S
N2759 C2751 1.427 . S
N2759 C2757 1.384 . S
H2760 C2766 0.930 . S
H2761 C2770 0.930 . S
H2762 C2775 0.929 . S
H2763 C2773 0.929 . S
H2764 C2768 0.929 . S
H2765 C2774 0.929 . S
C2766 H2760 0.930 . S
C2766 C2767 1.367 . S
C2766 C2774 1.378 . S
C2767 C2766 1.367 . S
C2767 C2775 1.433 . S
C2768 H2764 0.929 . S
C2768 C2770 1.378 . S
C2768 C2772 1.350 . S
C2769 C2772 1.463 . S
C2769 C2774 1.350 . S
C2769 N2777 1.427 . S
C2770 H2761 0.930 . S
C2770 C2768 1.378 . S
C2770 C2771 1.367 . S
C2771 C2770 1.367 . S
C2771 C2773 1.433 . S
C2772 C2768 1.350 . S
C2772 C2769 1.463 . S
C2772 N2776 1.427 . S
C2773 H2763 0.929 . S
C2773 C2771 1.433 . S
C2773 N2776 1.384 . S
C2774 H2765 0.929 . S
C2774 C2766 1.378 . S
C2774 C2769 1.350 . S
C2775 H2762 0.929 . S
C2775 C2767 1.433 . S
C2775 N2777 1.384 . S
N2776 C2772 1.427 . S
N2776 C2773 1.384 . S
N2777 C2769 1.427 . S
N2777 C2775 1.384 . S
H2778 C2784 0.925 1_554 S
H2779 C2788 0.930 . S
H2780 C2793 0.929 . S
H2781 C2791 0.929 . S
H2782 C2786 0.929 . S
H2783 C2792 0.929 . S
C2784 H2778 0.925 1_556 S
C2784 C2785 1.364 1_556 S
C2784 C2792 1.384 . S
C2785 C2784 1.364 1_554 S
C2785 C2793 1.391 1_554 S
C2786 H2782 0.929 . S
C2786 C2788 1.378 . S
C2786 C2790 1.350 . S
C2787 C2790 1.463 . S
C2787 C2792 1.350 . S
C2787 N2795 1.427 . S
C2788 H2779 0.930 . S
C2788 C2786 1.378 . S
C2788 C2789 1.367 . S
C2789 C2788 1.367 . S
C2789 C2791 1.433 . S
C2790 C2786 1.350 . S
C2790 C2787 1.463 . S
C2790 N2794 1.427 . S
C2791 H2781 0.929 . S
C2791 C2789 1.433 . S
C2791 N2794 1.384 . S
C2792 H2783 0.929 . S
C2792 C2784 1.384 . S
C2792 C2787 1.350 . S
C2793 H2780 0.929 . S
C2793 C2785 1.391 1_556 S
C2793 N2795 1.384 . S
N2794 C2790 1.427 . S
N2794 C2791 1.384 . S
N2795 C2787 1.427 . S
N2795 C2793 1.384 . S
H2796 C2802 0.930 . S
H2797 C2806 0.930 . S
H2798 C2811 0.929 . S
H2799 C2809 0.929 . S
H2800 C2804 0.929 . S
H2801 C2810 0.929 . S
C2802 H2796 0.930 . S
C2802 C2803 1.367 . S
C2802 C2810 1.378 . S
C2803 C2802 1.367 . S
C2803 C2811 1.433 . S
C2804 H2800 0.929 . S
C2804 C2806 1.378 . S
C2804 C2808 1.350 . S
C2805 C2808 1.463 . S
C2805 C2810 1.350 . S
C2805 N2813 1.427 . S
C2806 H2797 0.930 . S
C2806 C2804 1.378 . S
C2806 C2807 1.367 . S
C2807 C2806 1.367 . S
C2807 C2809 1.433 . S
C2808 C2804 1.350 . S
C2808 C2805 1.463 . S
C2808 N2812 1.427 . S
C2809 H2799 0.929 . S
C2809 C2807 1.433 . S
C2809 N2812 1.384 . S
C2810 H2801 0.929 . S
C2810 C2802 1.378 . S
C2810 C2805 1.350 . S
C2811 H2798 0.929 . S
C2811 C2803 1.433 . S
C2811 N2813 1.384 . S
N2812 C2808 1.427 . S
N2812 C2809 1.384 . S
N2813 C2805 1.427 . S
N2813 C2811 1.384 . S
H2814 C2820 0.930 . S
H2815 C2824 0.930 . S
H2816 C2829 0.929 . S
H2817 C2827 0.929 . S
H2818 C2822 0.929 . S
H2819 C2828 0.929 . S
C2820 H2814 0.930 . S
C2820 C2821 1.367 . S
C2820 C2828 1.378 . S
C2821 C2820 1.367 . S
C2821 C2829 1.433 . S
C2822 H2818 0.929 . S
C2822 C2824 1.378 . S
C2822 C2826 1.350 . S
C2823 C2826 1.463 . S
C2823 C2828 1.350 . S
C2823 N2831 1.427 . S
C2824 H2815 0.930 . S
C2824 C2822 1.378 . S
C2824 C2825 1.367 . S
C2825 C2824 1.367 . S
C2825 C2827 1.433 . S
C2826 C2822 1.350 . S
C2826 C2823 1.463 . S
C2826 N2830 1.427 . S
C2827 H2817 0.929 . S
C2827 C2825 1.433 . S
C2827 N2830 1.384 . S
C2828 H2819 0.929 . S
C2828 C2820 1.378 . S
C2828 C2823 1.350 . S
C2829 H2816 0.929 . S
C2829 C2821 1.433 . S
C2829 N2831 1.384 . S
N2830 C2826 1.427 . S
N2830 C2827 1.384 . S
N2831 C2823 1.427 . S
N2831 C2829 1.384 . S
H2832 C2838 0.930 . S
H2833 C2842 0.930 . S
H2834 C2847 0.929 . S
H2835 C2845 0.929 . S
H2836 C2840 0.929 . S
H2837 C2846 0.929 . S
C2838 H2832 0.930 . S
C2838 C2839 1.367 . S
C2838 C2846 1.378 . S
C2839 C2838 1.367 . S
C2839 C2847 1.433 . S
C2840 H2836 0.929 . S
C2840 C2842 1.378 . S
C2840 C2844 1.350 . S
C2841 C2844 1.463 . S
C2841 C2846 1.350 . S
C2841 N2849 1.427 . S
C2842 H2833 0.930 . S
C2842 C2840 1.378 . S
C2842 C2843 1.367 . S
C2843 C2842 1.367 . S
C2843 C2845 1.433 . S
C2844 C2840 1.350 . S
C2844 C2841 1.463 . S
C2844 N2848 1.427 . S
C2845 H2835 0.929 . S
C2845 C2843 1.433 . S
C2845 N2848 1.384 . S
C2846 H2837 0.929 . S
C2846 C2838 1.378 . S
C2846 C2841 1.350 . S
C2847 H2834 0.929 . S
C2847 C2839 1.433 . S
C2847 N2849 1.384 . S
N2848 C2844 1.427 . S
N2848 C2845 1.384 . S
N2849 C2841 1.427 . S
N2849 C2847 1.384 . S
H2850 C2856 0.930 . S
H2851 C2860 0.930 . S
H2852 C2865 0.929 . S
H2853 C2863 0.929 . S
H2854 C2858 0.929 . S
H2855 C2864 0.929 . S
C2856 H2850 0.930 . S
C2856 C2857 1.367 . S
C2856 C2864 1.378 . S
C2857 C2856 1.367 . S
C2857 C2865 1.433 . S
C2858 H2854 0.929 . S
C2858 C2860 1.378 . S
C2858 C2862 1.350 . S
C2859 C2862 1.463 . S
C2859 C2864 1.350 . S
C2859 N2867 1.427 . S
C2860 H2851 0.930 . S
C2860 C2858 1.378 . S
C2860 C2861 1.367 . S
C2861 C2860 1.367 . S
C2861 C2863 1.433 . S
C2862 C2858 1.350 . S
C2862 C2859 1.463 . S
C2862 N2866 1.427 . S
C2863 H2853 0.929 . S
C2863 C2861 1.433 . S
C2863 N2866 1.384 . S
C2864 H2855 0.929 . S
C2864 C2856 1.378 . S
C2864 C2859 1.350 . S
C2865 H2852 0.929 . S
C2865 C2857 1.433 . S
C2865 N2867 1.384 . S
N2866 C2862 1.427 . S
N2866 C2863 1.384 . S
N2867 C2859 1.427 . S
N2867 C2865 1.384 . S
H2868 C2874 0.919 1_565 S
H2869 C2878 0.930 . S
H2870 C2883 0.929 . S
H2871 C2881 0.929 . S
H2872 C2876 0.929 . S
H2873 C2882 0.929 . S
C2874 H2868 0.919 1_545 S
C2874 C2875 1.364 1_545 S
C2874 C2882 1.391 . S
C2875 C2874 1.364 1_565 S
C2875 C2883 1.392 1_565 S
C2876 H2872 0.929 . S
C2876 C2878 1.378 . S
C2876 C2880 1.350 . S
C2877 C2880 1.463 . S
C2877 C2882 1.350 . S
C2877 N2885 1.427 . S
C2878 H2869 0.930 . S
C2878 C2876 1.378 . S
C2878 C2879 1.367 . S
C2879 C2878 1.367 . S
C2879 C2881 1.433 . S
C2880 C2876 1.350 . S
C2880 C2877 1.463 . S
C2880 N2884 1.427 . S
C2881 H2871 0.929 . S
C2881 C2879 1.433 . S
C2881 N2884 1.384 . S
C2882 H2873 0.929 . S
C2882 C2874 1.391 . S
C2882 C2877 1.350 . S
C2883 H2870 0.929 . S
C2883 C2875 1.392 1_545 S
C2883 N2885 1.384 . S
N2884 C2880 1.427 . S
N2884 C2881 1.384 . S
N2885 C2877 1.427 . S
N2885 C2883 1.384 . S
H2886 C2892 0.930 . S
H2887 C2896 0.930 . S
H2888 C2901 0.929 . S
H2889 C2899 0.929 . S
H2890 C2894 0.929 . S
H2891 C2900 0.929 . S
C2892 H2886 0.930 . S
C2892 C2893 1.367 . S
C2892 C2900 1.378 . S
C2893 C2892 1.367 . S
C2893 C2901 1.433 . S
C2894 H2890 0.929 . S
C2894 C2896 1.378 . S
C2894 C2898 1.350 . S
C2895 C2898 1.463 . S
C2895 C2900 1.350 . S
C2895 N2903 1.427 . S
C2896 H2887 0.930 . S
C2896 C2894 1.378 . S
C2896 C2897 1.367 . S
C2897 C2896 1.367 . S
C2897 C2899 1.433 . S
C2898 C2894 1.350 . S
C2898 C2895 1.463 . S
C2898 N2902 1.427 . S
C2899 H2889 0.929 . S
C2899 C2897 1.433 . S
C2899 N2902 1.384 . S
C2900 H2891 0.929 . S
C2900 C2892 1.378 . S
C2900 C2895 1.350 . S
C2901 H2888 0.929 . S
C2901 C2893 1.433 . S
C2901 N2903 1.384 . S
N2902 C2898 1.427 . S
N2902 C2899 1.384 . S
N2903 C2895 1.427 . S
N2903 C2901 1.384 . S
H2904 C2910 0.930 . S
H2905 C2914 0.930 . S
H2906 C2919 0.929 . S
H2907 C2917 0.929 . S
H2908 C2912 0.929 . S
H2909 C2918 0.929 . S
C2910 H2904 0.930 . S
C2910 C2911 1.367 . S
C2910 C2918 1.378 . S
C2911 C2910 1.367 . S
C2911 C2919 1.433 . S
C2912 H2908 0.929 . S
C2912 C2914 1.378 . S
C2912 C2916 1.350 . S
C2913 C2916 1.463 . S
C2913 C2918 1.350 . S
C2913 N2921 1.427 . S
C2914 H2905 0.930 . S
C2914 C2912 1.378 . S
C2914 C2915 1.367 . S
C2915 C2914 1.367 . S
C2915 C2917 1.433 . S
C2916 C2912 1.350 . S
C2916 C2913 1.463 . S
C2916 N2920 1.427 . S
C2917 H2907 0.929 . S
C2917 C2915 1.433 . S
C2917 N2920 1.384 . S
C2918 H2909 0.929 . S
C2918 C2910 1.378 . S
C2918 C2913 1.350 . S
C2919 H2906 0.929 . S
C2919 C2911 1.433 . S
C2919 N2921 1.384 . S
N2920 C2916 1.427 . S
N2920 C2917 1.384 . S
N2921 C2913 1.427 . S
N2921 C2919 1.384 . S
H2922 C2928 0.930 . S
H2923 C2932 0.930 . S
H2924 C2937 0.929 . S
H2925 C2935 0.929 . S
H2926 C2930 0.929 . S
H2927 C2936 0.929 . S
C2928 H2922 0.930 . S
C2928 C2929 1.367 . S
C2928 C2936 1.378 . S
C2929 C2928 1.367 . S
C2929 C2937 1.433 . S
C2930 H2926 0.929 . S
C2930 C2932 1.378 . S
C2930 C2934 1.350 . S
C2931 C2934 1.463 . S
C2931 C2936 1.350 . S
C2931 N2939 1.427 . S
C2932 H2923 0.930 . S
C2932 C2930 1.378 . S
C2932 C2933 1.367 . S
C2933 C2932 1.367 . S
C2933 C2935 1.433 . S
C2934 C2930 1.350 . S
C2934 C2931 1.463 . S
C2934 N2938 1.427 . S
C2935 H2925 0.929 . S
C2935 C2933 1.433 . S
C2935 N2938 1.384 . S
C2936 H2927 0.929 . S
C2936 C2928 1.378 . S
C2936 C2931 1.350 . S
C2937 H2924 0.929 . S
C2937 C2929 1.433 . S
C2937 N2939 1.384 . S
N2938 C2934 1.427 . S
N2938 C2935 1.384 . S
N2939 C2931 1.427 . S
N2939 C2937 1.384 . S
H2940 C2946 0.930 . S
H2941 C2950 0.930 . S
H2942 C2955 0.929 . S
H2943 C2953 0.929 . S
H2944 C2948 0.929 . S
H2945 C2954 0.929 . S
C2946 H2940 0.930 . S
C2946 C2947 1.367 . S
C2946 C2954 1.378 . S
C2947 C2946 1.367 . S
C2947 C2955 1.433 . S
C2948 H2944 0.929 . S
C2948 C2950 1.378 1_565 S
C2948 C2952 1.350 . S
C2949 C2952 1.463 . S
C2949 C2954 1.350 . S
C2949 N2957 1.427 . S
C2950 H2941 0.930 . S
C2950 C2948 1.378 1_545 S
C2950 C2951 1.371 . S
C2951 C2950 1.371 . S
C2951 C2953 1.381 1_545 S
C2952 C2948 1.350 . S
C2952 C2949 1.463 . S
C2952 N2956 1.427 . S
C2953 H2943 0.929 . S
C2953 C2951 1.381 1_565 S
C2953 N2956 1.384 . S
C2954 H2945 0.929 . S
C2954 C2946 1.378 . S
C2954 C2949 1.350 . S
C2955 H2942 0.929 . S
C2955 C2947 1.433 . S
C2955 N2957 1.384 . S
N2956 C2952 1.427 . S
N2956 C2953 1.384 . S
N2957 C2949 1.427 . S
N2957 C2955 1.384 . S
H2958 C2964 0.930 . S
H2959 C2968 0.930 . S
H2960 C2973 0.929 . S
H2961 C2971 0.929 . S
H2962 C2966 0.929 . S
H2963 C2972 0.929 . S
C2964 H2958 0.930 . S
C2964 C2965 1.367 . S
C2964 C2972 1.378 . S
C2965 C2964 1.367 . S
C2965 C2973 1.433 . S
C2966 H2962 0.929 . S
C2966 C2968 1.378 . S
C2966 C2970 1.350 . S
C2967 C2970 1.463 . S
C2967 C2972 1.350 . S
C2967 N2975 1.427 . S
C2968 H2959 0.930 . S
C2968 C2966 1.378 . S
C2968 C2969 1.335 1_545 S
C2969 C2968 1.335 1_565 S
C2969 C2971 1.440 . S
C2970 C2966 1.350 . S
C2970 C2967 1.463 . S
C2970 N2974 1.427 . S
C2971 H2961 0.929 . S
C2971 C2969 1.440 . S
C2971 N2974 1.384 1_565 S
C2972 H2963 0.929 . S
C2972 C2964 1.378 . S
C2972 C2967 1.350 . S
C2973 H2960 0.929 . S
C2973 C2965 1.433 . S
C2973 N2975 1.384 . S
N2974 C2970 1.427 . S
N2974 C2971 1.384 1_545 S
N2975 C2967 1.427 . S
N2975 C2973 1.384 . S
H2976 C2982 0.930 . S
H2977 C2986 0.930 . S
H2978 C2991 0.929 . S
H2979 C2989 0.929 . S
H2980 C2984 0.929 . S
H2981 C2990 0.929 . S
C2982 H2976 0.930 . S
C2982 C2983 1.367 . S
C2982 C2990 1.378 . S
C2983 C2982 1.367 . S
C2983 C2991 1.433 . S
C2984 H2980 0.929 . S
C2984 C2986 1.378 . S
C2984 C2988 1.350 . S
C2985 C2988 1.463 . S
C2985 C2990 1.350 . S
C2985 N2993 1.427 . S
C2986 H2977 0.930 . S
C2986 C2984 1.378 . S
C2986 C2987 1.367 . S
C2987 C2986 1.367 . S
C2987 C2989 1.433 . S
C2988 C2984 1.350 . S
C2988 C2985 1.463 . S
C2988 N2992 1.427 . S
C2989 H2979 0.929 . S
C2989 C2987 1.433 . S
C2989 N2992 1.384 . S
C2990 H2981 0.929 . S
C2990 C2982 1.378 . S
C2990 C2985 1.350 . S
C2991 H2978 0.929 . S
C2991 C2983 1.433 . S
C2991 N2993 1.384 . S
N2992 C2988 1.427 . S
N2992 C2989 1.384 . S
N2993 C2985 1.427 . S
N2993 C2991 1.384 . S
H2994 C3000 0.930 . S
H2995 C3004 0.930 . S
H2996 C3009 0.929 . S
H2997 C3007 0.929 . S
H2998 C3002 0.929 . S
H2999 C3008 0.929 . S
C3000 H2994 0.930 . S
C3000 C3001 1.367 . S
C3000 C3008 1.378 . S
C3001 C3000 1.367 . S
C3001 C3009 1.433 . S
C3002 H2998 0.929 . S
C3002 C3004 1.378 . S
C3002 C3006 1.350 . S
C3003 C3006 1.463 . S
C3003 C3008 1.350 . S
C3003 N3011 1.427 . S
C3004 H2995 0.930 . S
C3004 C3002 1.378 . S
C3004 C3005 1.367 . S
C3005 C3004 1.367 . S
C3005 C3007 1.433 . S
C3006 C3002 1.350 . S
C3006 C3003 1.463 . S
C3006 N3010 1.427 . S
C3007 H2997 0.929 . S
C3007 C3005 1.433 . S
C3007 N3010 1.384 . S
C3008 H2999 0.929 . S
C3008 C3000 1.378 . S
C3008 C3003 1.350 . S
C3009 H2996 0.929 . S
C3009 C3001 1.433 . S
C3009 N3011 1.384 . S
N3010 C3006 1.427 . S
N3010 C3007 1.384 . S
N3011 C3003 1.427 . S
N3011 C3009 1.384 . S
H3012 C3018 0.930 . S
H3013 C3022 0.930 . S
H3014 C3027 0.929 . S
H3015 C3025 0.929 . S
H3016 C3020 0.929 . S
H3017 C3026 0.929 . S
C3018 H3012 0.930 . S
C3018 C3019 1.367 . S
C3018 C3026 1.378 . S
C3019 C3018 1.367 . S
C3019 C3027 1.433 . S
C3020 H3016 0.929 . S
C3020 C3022 1.378 . S
C3020 C3024 1.350 . S
C3021 C3024 1.463 . S
C3021 C3026 1.350 . S
C3021 N3029 1.427 . S
C3022 H3013 0.930 . S
C3022 C3020 1.378 . S
C3022 C3023 1.367 . S
C3023 C3022 1.367 . S
C3023 C3025 1.433 . S
C3024 C3020 1.350 . S
C3024 C3021 1.463 . S
C3024 N3028 1.427 . S
C3025 H3015 0.929 . S
C3025 C3023 1.433 . S
C3025 N3028 1.384 . S
C3026 H3017 0.929 . S
C3026 C3018 1.378 . S
C3026 C3021 1.350 . S
C3027 H3014 0.929 . S
C3027 C3019 1.433 . S
C3027 N3029 1.384 . S
N3028 C3024 1.427 . S
N3028 C3025 1.384 . S
N3029 C3021 1.427 . S
N3029 C3027 1.384 . S
H3030 C3036 0.930 . S
H3031 C3040 0.930 . S
H3032 C3045 0.929 . S
H3033 C3043 0.929 . S
H3034 C3038 0.929 . S
H3035 C3044 0.929 . S
C3036 H3030 0.930 . S
C3036 C3037 1.367 . S
C3036 C3044 1.378 . S
C3037 C3036 1.367 . S
C3037 C3045 1.433 . S
C3038 H3034 0.929 . S
C3038 C3040 1.378 . S
C3038 C3042 1.350 . S
C3039 C3042 1.463 . S
C3039 C3044 1.350 . S
C3039 N3047 1.427 . S
C3040 H3031 0.930 . S
C3040 C3038 1.378 . S
C3040 C3041 1.367 . S
C3041 C3040 1.367 . S
C3041 C3043 1.433 . S
C3042 C3038 1.350 . S
C3042 C3039 1.463 . S
C3042 N3046 1.427 . S
C3043 H3033 0.929 . S
C3043 C3041 1.433 . S
C3043 N3046 1.384 . S
C3044 H3035 0.929 . S
C3044 C3036 1.378 . S
C3044 C3039 1.350 . S
C3045 H3032 0.929 . S
C3045 C3037 1.433 . S
C3045 N3047 1.384 . S
N3046 C3042 1.427 . S
N3046 C3043 1.384 . S
N3047 C3039 1.427 . S
N3047 C3045 1.384 . S
H3048 C3054 0.930 . S
H3049 C3058 0.930 . S
H3050 C3063 0.929 . S
H3051 C3061 0.929 . S
H3052 C3056 0.929 . S
H3053 C3062 0.929 . S
C3054 H3048 0.930 . S
C3054 C3055 1.367 . S
C3054 C3062 1.378 . S
C3055 C3054 1.367 . S
C3055 C3063 1.433 . S
C3056 H3052 0.929 . S
C3056 C3058 1.378 . S
C3056 C3060 1.350 . S
C3057 C3060 1.463 . S
C3057 C3062 1.350 . S
C3057 N3065 1.427 . S
C3058 H3049 0.930 . S
C3058 C3056 1.378 . S
C3058 C3059 1.367 . S
C3059 C3058 1.367 . S
C3059 C3061 1.433 . S
C3060 C3056 1.350 . S
C3060 C3057 1.463 . S
C3060 N3064 1.427 . S
C3061 H3051 0.929 . S
C3061 C3059 1.433 . S
C3061 N3064 1.384 . S
C3062 H3053 0.929 . S
C3062 C3054 1.378 . S
C3062 C3057 1.350 . S
C3063 H3050 0.929 . S
C3063 C3055 1.433 . S
C3063 N3065 1.384 . S
N3064 C3060 1.427 . S
N3064 C3061 1.384 . S
N3065 C3057 1.427 . S
N3065 C3063 1.384 . S
H3066 C3072 0.930 . S
H3067 C3076 0.930 . S
H3068 C3081 0.929 . S
H3069 C3079 0.929 . S
H3070 C3074 0.929 . S
H3071 C3080 0.929 . S
C3072 H3066 0.930 . S
C3072 C3073 1.367 . S
C3072 C3080 1.378 . S
C3073 C3072 1.367 . S
C3073 C3081 1.433 . S
C3074 H3070 0.929 . S
C3074 C3076 1.378 . S
C3074 C3078 1.350 . S
C3075 C3078 1.463 . S
C3075 C3080 1.350 . S
C3075 N3083 1.427 . S
C3076 H3067 0.930 . S
C3076 C3074 1.378 . S
C3076 C3077 1.367 . S
C3077 C3076 1.367 . S
C3077 C3079 1.433 . S
C3078 C3074 1.350 . S
C3078 C3075 1.463 . S
C3078 N3082 1.427 . S
C3079 H3069 0.929 . S
C3079 C3077 1.433 . S
C3079 N3082 1.384 . S
C3080 H3071 0.929 . S
C3080 C3072 1.378 . S
C3080 C3075 1.350 . S
C3081 H3068 0.929 . S
C3081 C3073 1.433 . S
C3081 N3083 1.384 . S
N3082 C3078 1.427 . S
N3082 C3079 1.384 . S
N3083 C3075 1.427 . S
N3083 C3081 1.384 . S
H3084 C3090 0.930 . S
H3085 C3094 0.930 . S
H3086 C3099 0.929 . S
H3087 C3097 0.929 . S
H3088 C3092 0.929 . S
H3089 C3098 0.929 . S
C3090 H3084 0.930 . S
C3090 C3091 1.367 . S
C3090 C3098 1.378 . S
C3091 C3090 1.367 . S
C3091 C3099 1.433 . S
C3092 H3088 0.929 . S
C3092 C3094 1.378 . S
C3092 C3096 1.350 . S
C3093 C3096 1.463 . S
C3093 C3098 1.350 . S
C3093 N3101 1.427 . S
C3094 H3085 0.930 . S
C3094 C3092 1.378 . S
C3094 C3095 1.367 . S
C3095 C3094 1.367 . S
C3095 C3097 1.433 . S
C3096 C3092 1.350 . S
C3096 C3093 1.463 . S
C3096 N3100 1.427 . S
C3097 H3087 0.929 . S
C3097 C3095 1.433 . S
C3097 N3100 1.384 . S
C3098 H3089 0.929 . S
C3098 C3090 1.378 . S
C3098 C3093 1.350 . S
C3099 H3086 0.929 . S
C3099 C3091 1.433 . S
C3099 N3101 1.384 . S
N3100 C3096 1.427 . S
N3100 C3097 1.384 . S
N3101 C3093 1.427 . S
N3101 C3099 1.384 . S
H3102 C3108 0.930 . S
H3103 C3112 0.930 . S
H3104 C3117 0.929 . S
H3105 C3115 0.929 . S
H3106 C3110 0.929 . S
H3107 C3116 0.929 . S
C3108 H3102 0.930 . S
C3108 C3109 1.367 . S
C3108 C3116 1.378 . S
C3109 C3108 1.367 . S
C3109 C3117 1.433 . S
C3110 H3106 0.929 . S
C3110 C3112 1.378 . S
C3110 C3114 1.350 . S
C3111 C3114 1.463 . S
C3111 C3116 1.350 . S
C3111 N3119 1.427 . S
C3112 H3103 0.930 . S
C3112 C3110 1.378 . S
C3112 C3113 1.367 . S
C3113 C3112 1.367 . S
C3113 C3115 1.433 . S
C3114 C3110 1.350 . S
C3114 C3111 1.463 . S
C3114 N3118 1.427 . S
C3115 H3105 0.929 . S
C3115 C3113 1.433 . S
C3115 N3118 1.384 . S
C3116 H3107 0.929 . S
C3116 C3108 1.378 . S
C3116 C3111 1.350 . S
C3117 H3104 0.929 . S
C3117 C3109 1.433 . S
C3117 N3119 1.384 . S
N3118 C3114 1.427 . S
N3118 C3115 1.384 . S
N3119 C3111 1.427 . S
N3119 C3117 1.384 . S
H3120 C3126 0.930 . S
H3121 C3130 0.930 . S
H3122 C3135 0.929 . S
H3123 C3133 0.929 . S
H3124 C3128 0.929 . S
H3125 C3134 0.929 . S
C3126 H3120 0.930 . S
C3126 C3127 1.367 . S
C3126 C3134 1.378 . S
C3127 C3126 1.367 . S
C3127 C3135 1.433 . S
C3128 H3124 0.929 . S
C3128 C3130 1.378 . S
C3128 C3132 1.350 . S
C3129 C3132 1.463 . S
C3129 C3134 1.350 . S
C3129 N3137 1.427 . S
C3130 H3121 0.930 . S
C3130 C3128 1.378 . S
C3130 C3131 1.367 . S
C3131 C3130 1.367 . S
C3131 C3133 1.433 . S
C3132 C3128 1.350 . S
C3132 C3129 1.463 . S
C3132 N3136 1.427 . S
C3133 H3123 0.929 . S
C3133 C3131 1.433 . S
C3133 N3136 1.384 . S
C3134 H3125 0.929 . S
C3134 C3126 1.378 . S
C3134 C3129 1.350 . S
C3135 H3122 0.929 . S
C3135 C3127 1.433 . S
C3135 N3137 1.384 . S
N3136 C3132 1.427 . S
N3136 C3133 1.384 . S
N3137 C3129 1.427 . S
N3137 C3135 1.384 . S
H3138 C3144 0.930 . S
H3139 C3148 0.930 . S
H3140 C3153 0.929 . S
H3141 C3151 0.929 . S
H3142 C3146 0.929 . S
H3143 C3152 0.929 . S
C3144 H3138 0.930 . S
C3144 C3145 1.367 . S
C3144 C3152 1.378 . S
C3145 C3144 1.367 . S
C3145 C3153 1.433 . S
C3146 H3142 0.929 . S
C3146 C3148 1.378 . S
C3146 C3150 1.350 . S
C3147 C3150 1.463 . S
C3147 C3152 1.350 . S
C3147 N3155 1.427 . S
C3148 H3139 0.930 . S
C3148 C3146 1.378 . S
C3148 C3149 1.367 . S
C3149 C3148 1.367 . S
C3149 C3151 1.433 . S
C3150 C3146 1.350 . S
C3150 C3147 1.463 . S
C3150 N3154 1.427 . S
C3151 H3141 0.929 . S
C3151 C3149 1.433 . S
C3151 N3154 1.384 . S
C3152 H3143 0.929 . S
C3152 C3144 1.378 . S
C3152 C3147 1.350 . S
C3153 H3140 0.929 . S
C3153 C3145 1.433 . S
C3153 N3155 1.384 . S
N3154 C3150 1.427 . S
N3154 C3151 1.384 . S
N3155 C3147 1.427 . S
N3155 C3153 1.384 . S
H3156 C3162 0.930 . S
H3157 C3166 0.930 . S
H3158 C3171 0.929 . S
H3159 C3169 0.929 . S
H3160 C3164 0.929 . S
H3161 C3170 0.929 . S
C3162 H3156 0.930 . S
C3162 C3163 1.367 . S
C3162 C3170 1.378 . S
C3163 C3162 1.367 . S
C3163 C3171 1.433 . S
C3164 H3160 0.929 . S
C3164 C3166 1.378 . S
C3164 C3168 1.350 . S
C3165 C3168 1.463 . S
C3165 C3170 1.350 . S
C3165 N3173 1.427 . S
C3166 H3157 0.930 . S
C3166 C3164 1.378 . S
C3166 C3167 1.367 . S
C3167 C3166 1.367 . S
C3167 C3169 1.433 . S
C3168 C3164 1.350 . S
C3168 C3165 1.463 . S
C3168 N3172 1.427 . S
C3169 H3159 0.929 . S
C3169 C3167 1.433 . S
C3169 N3172 1.384 . S
C3170 H3161 0.929 . S
C3170 C3162 1.378 . S
C3170 C3165 1.350 . S
C3171 H3158 0.929 . S
C3171 C3163 1.433 . S
C3171 N3173 1.384 . S
N3172 C3168 1.427 . S
N3172 C3169 1.384 . S
N3173 C3165 1.427 . S
N3173 C3171 1.384 . S
H3174 C3180 0.930 . S
H3175 C3184 0.930 . S
H3176 C3189 0.929 . S
H3177 C3187 0.929 . S
H3178 C3182 0.929 . S
H3179 C3188 0.929 . S
C3180 H3174 0.930 . S
C3180 C3181 1.367 . S
C3180 C3188 1.378 . S
C3181 C3180 1.367 . S
C3181 C3189 1.433 . S
C3182 H3178 0.929 . S
C3182 C3184 1.378 . S
C3182 C3186 1.350 . S
C3183 C3186 1.463 . S
C3183 C3188 1.350 . S
C3183 N3191 1.427 . S
C3184 H3175 0.930 . S
C3184 C3182 1.378 . S
C3184 C3185 1.367 . S
C3185 C3184 1.367 . S
C3185 C3187 1.433 . S
C3186 C3182 1.350 . S
C3186 C3183 1.463 . S
C3186 N3190 1.427 . S
C3187 H3177 0.929 . S
C3187 C3185 1.433 . S
C3187 N3190 1.384 . S
C3188 H3179 0.929 . S
C3188 C3180 1.378 . S
C3188 C3183 1.350 . S
C3189 H3176 0.929 . S
C3189 C3181 1.433 . S
C3189 N3191 1.384 . S
N3190 C3186 1.427 . S
N3190 C3187 1.384 . S
N3191 C3183 1.427 . S
N3191 C3189 1.384 . S
H3192 C3198 0.930 . S
H3193 C3202 0.930 . S
H3194 C3207 0.929 . S
H3195 C3205 0.929 . S
H3196 C3200 0.929 . S
H3197 C3206 0.929 . S
C3198 H3192 0.930 . S
C3198 C3199 1.367 . S
C3198 C3206 1.378 . S
C3199 C3198 1.367 . S
C3199 C3207 1.433 . S
C3200 H3196 0.929 . S
C3200 C3202 1.378 . S
C3200 C3204 1.350 . S
C3201 C3204 1.463 . S
C3201 C3206 1.350 . S
C3201 N3209 1.427 . S
C3202 H3193 0.930 . S
C3202 C3200 1.378 . S
C3202 C3203 1.367 . S
C3203 C3202 1.367 . S
C3203 C3205 1.433 . S
C3204 C3200 1.350 . S
C3204 C3201 1.463 . S
C3204 N3208 1.427 . S
C3205 H3195 0.929 . S
C3205 C3203 1.433 . S
C3205 N3208 1.384 . S
C3206 H3197 0.929 . S
C3206 C3198 1.378 . S
C3206 C3201 1.350 . S
C3207 H3194 0.929 . S
C3207 C3199 1.433 . S
C3207 N3209 1.384 . S
N3208 C3204 1.427 . S
N3208 C3205 1.384 . S
N3209 C3201 1.427 . S
N3209 C3207 1.384 . S
H3210 C3216 0.930 . S
H3211 C3220 0.930 . S
H3212 C3225 0.929 . S
H3213 C3223 0.929 . S
H3214 C3218 0.929 . S
H3215 C3224 0.929 . S
C3216 H3210 0.930 . S
C3216 C3217 1.367 . S
C3216 C3224 1.378 . S
C3217 C3216 1.367 . S
C3217 C3225 1.433 . S
C3218 H3214 0.929 . S
C3218 C3220 1.378 . S
C3218 C3222 1.350 . S
C3219 C3222 1.463 . S
C3219 C3224 1.350 . S
C3219 N3227 1.427 . S
C3220 H3211 0.930 . S
C3220 C3218 1.378 . S
C3220 C3221 1.367 . S
C3221 C3220 1.367 . S
C3221 C3223 1.433 . S
C3222 C3218 1.350 . S
C3222 C3219 1.463 . S
C3222 N3226 1.427 . S
C3223 H3213 0.929 . S
C3223 C3221 1.433 . S
C3223 N3226 1.384 . S
C3224 H3215 0.929 . S
C3224 C3216 1.378 . S
C3224 C3219 1.350 . S
C3225 H3212 0.929 . S
C3225 C3217 1.433 . S
C3225 N3227 1.384 . S
N3226 C3222 1.427 . S
N3226 C3223 1.384 . S
N3227 C3219 1.427 . S
N3227 C3225 1.384 . S
H3228 C3234 0.930 . S
H3229 C3238 0.930 . S
H3230 C3243 0.929 . S
H3231 C3241 0.929 . S
H3232 C3236 0.929 . S
H3233 C3242 0.929 . S
C3234 H3228 0.930 . S
C3234 C3235 1.367 . S
C3234 C3242 1.378 . S
C3235 C3234 1.367 . S
C3235 C3243 1.433 . S
C3236 H3232 0.929 . S
C3236 C3238 1.378 . S
C3236 C3240 1.350 . S
C3237 C3240 1.463 . S
C3237 C3242 1.350 . S
C3237 N3245 1.427 . S
C3238 H3229 0.930 . S
C3238 C3236 1.378 . S
C3238 C3239 1.367 . S
C3239 C3238 1.367 . S
C3239 C3241 1.433 . S
C3240 C3236 1.350 . S
C3240 C3237 1.463 . S
C3240 N3244 1.427 . S
C3241 H3231 0.929 . S
C3241 C3239 1.433 . S
C3241 N3244 1.384 . S
C3242 H3233 0.929 . S
C3242 C3234 1.378 . S
C3242 C3237 1.350 . S
C3243 H3230 0.929 . S
C3243 C3235 1.433 . S
C3243 N3245 1.384 . S
N3244 C3240 1.427 . S
N3244 C3241 1.384 . S
N3245 C3237 1.427 . S
N3245 C3243 1.384 . S
H3246 C3252 0.930 . S
H3247 C3256 0.930 . S
H3248 C3261 0.929 . S
H3249 C3259 0.929 . S
H3250 C3254 0.929 . S
H3251 C3260 0.929 . S
C3252 H3246 0.930 . S
C3252 C3253 1.367 . S
C3252 C3260 1.378 . S
C3253 C3252 1.367 . S
C3253 C3261 1.433 . S
C3254 H3250 0.929 . S
C3254 C3256 1.378 . S
C3254 C3258 1.350 . S
C3255 C3258 1.463 . S
C3255 C3260 1.350 . S
C3255 N3263 1.427 . S
C3256 H3247 0.930 . S
C3256 C3254 1.378 . S
C3256 C3257 1.367 . S
C3257 C3256 1.367 . S
C3257 C3259 1.433 . S
C3258 C3254 1.350 . S
C3258 C3255 1.463 . S
C3258 N3262 1.427 . S
C3259 H3249 0.929 . S
C3259 C3257 1.433 . S
C3259 N3262 1.384 . S
C3260 H3251 0.929 . S
C3260 C3252 1.378 . S
C3260 C3255 1.350 . S
C3261 H3248 0.929 . S
C3261 C3253 1.433 . S
C3261 N3263 1.384 . S
N3262 C3258 1.427 . S
N3262 C3259 1.384 . S
N3263 C3255 1.427 . S
N3263 C3261 1.384 . S
H3264 C3270 0.930 . S
H3265 C3274 0.930 . S
H3266 C3279 0.929 . S
H3267 C3277 0.929 . S
H3268 C3272 0.929 . S
H3269 C3278 0.929 . S
C3270 H3264 0.930 . S
C3270 C3271 1.367 . S
C3270 C3278 1.378 . S
C3271 C3270 1.367 . S
C3271 C3279 1.433 . S
C3272 H3268 0.929 . S
C3272 C3274 1.378 . S
C3272 C3276 1.350 . S
C3273 C3276 1.463 . S
C3273 C3278 1.350 . S
C3273 N3281 1.427 . S
C3274 H3265 0.930 . S
C3274 C3272 1.378 . S
C3274 C3275 1.367 . S
C3275 C3274 1.367 . S
C3275 C3277 1.433 . S
C3276 C3272 1.350 . S
C3276 C3273 1.463 . S
C3276 N3280 1.427 . S
C3277 H3267 0.929 . S
C3277 C3275 1.433 . S
C3277 N3280 1.384 . S
C3278 H3269 0.929 . S
C3278 C3270 1.378 . S
C3278 C3273 1.350 . S
C3279 H3266 0.929 . S
C3279 C3271 1.433 . S
C3279 N3281 1.384 . S
N3280 C3276 1.427 . S
N3280 C3277 1.384 . S
N3281 C3273 1.427 . S
N3281 C3279 1.384 . S
H3282 C3288 0.930 . S
H3283 C3292 0.930 . S
H3284 C3297 0.929 . S
H3285 C3295 0.929 . S
H3286 C3290 0.929 . S
H3287 C3296 0.929 . S
C3288 H3282 0.930 . S
C3288 C3289 1.367 . S
C3288 C3296 1.378 . S
C3289 C3288 1.367 . S
C3289 C3297 1.433 . S
C3290 H3286 0.929 . S
C3290 C3292 1.378 . S
C3290 C3294 1.350 . S
C3291 C3294 1.463 . S
C3291 C3296 1.350 . S
C3291 N3299 1.427 . S
C3292 H3283 0.930 . S
C3292 C3290 1.378 . S
C3292 C3293 1.367 . S
C3293 C3292 1.367 . S
C3293 C3295 1.433 . S
C3294 C3290 1.350 . S
C3294 C3291 1.463 . S
C3294 N3298 1.427 . S
C3295 H3285 0.929 . S
C3295 C3293 1.433 . S
C3295 N3298 1.384 . S
C3296 H3287 0.929 . S
C3296 C3288 1.378 . S
C3296 C3291 1.350 . S
C3297 H3284 0.929 . S
C3297 C3289 1.433 . S
C3297 N3299 1.384 . S
N3298 C3294 1.427 . S
N3298 C3295 1.384 . S
N3299 C3291 1.427 . S
N3299 C3297 1.384 . S
H3300 C3306 0.930 . S
H3301 C3310 0.930 . S
H3302 C3315 0.929 . S
H3303 C3313 0.929 . S
H3304 C3308 0.929 . S
H3305 C3314 0.929 . S
C3306 H3300 0.930 . S
C3306 C3307 1.367 . S
C3306 C3314 1.378 . S
C3307 C3306 1.367 . S
C3307 C3315 1.433 . S
C3308 H3304 0.929 . S
C3308 C3310 1.378 . S
C3308 C3312 1.350 . S
C3309 C3312 1.463 . S
C3309 C3314 1.350 . S
C3309 N3317 1.427 . S
C3310 H3301 0.930 . S
C3310 C3308 1.378 . S
C3310 C3311 1.367 . S
C3311 C3310 1.367 . S
C3311 C3313 1.433 . S
C3312 C3308 1.350 . S
C3312 C3309 1.463 . S
C3312 N3316 1.427 . S
C3313 H3303 0.929 . S
C3313 C3311 1.433 . S
C3313 N3316 1.384 . S
C3314 H3305 0.929 . S
C3314 C3306 1.378 . S
C3314 C3309 1.350 . S
C3315 H3302 0.929 . S
C3315 C3307 1.433 . S
C3315 N3317 1.384 . S
N3316 C3312 1.427 . S
N3316 C3313 1.384 . S
N3317 C3309 1.427 . S
N3317 C3315 1.384 . S
H3318 C3324 0.930 . S
H3319 C3328 0.930 . S
H3320 C3333 0.929 . S
H3321 C3331 0.929 . S
H3322 C3326 0.929 . S
H3323 C3332 0.929 . S
C3324 H3318 0.930 . S
C3324 C3325 1.367 . S
C3324 C3332 1.378 . S
C3325 C3324 1.367 . S
C3325 C3333 1.433 . S
C3326 H3322 0.929 . S
C3326 C3328 1.378 . S
C3326 C3330 1.350 . S
C3327 C3330 1.463 . S
C3327 C3332 1.350 . S
C3327 N3335 1.427 . S
C3328 H3319 0.930 . S
C3328 C3326 1.378 . S
C3328 C3329 1.367 . S
C3329 C3328 1.367 . S
C3329 C3331 1.433 . S
C3330 C3326 1.350 . S
C3330 C3327 1.463 . S
C3330 N3334 1.427 . S
C3331 H3321 0.929 . S
C3331 C3329 1.433 . S
C3331 N3334 1.384 . S
C3332 H3323 0.929 . S
C3332 C3324 1.378 . S
C3332 C3327 1.350 . S
C3333 H3320 0.929 . S
C3333 C3325 1.433 . S
C3333 N3335 1.384 . S
N3334 C3330 1.427 . S
N3334 C3331 1.384 . S
N3335 C3327 1.427 . S
N3335 C3333 1.384 . S
H3336 C3342 0.930 . S
H3337 C3346 0.930 . S
H3338 C3351 0.929 . S
H3339 C3349 0.929 . S
H3340 C3344 0.929 . S
H3341 C3350 0.929 . S
C3342 H3336 0.930 . S
C3342 C3343 1.367 . S
C3342 C3350 1.378 . S
C3343 C3342 1.367 . S
C3343 C3351 1.433 . S
C3344 H3340 0.929 . S
C3344 C3346 1.378 . S
C3344 C3348 1.350 . S
C3345 C3348 1.463 . S
C3345 C3350 1.350 . S
C3345 N3353 1.427 . S
C3346 H3337 0.930 . S
C3346 C3344 1.378 . S
C3346 C3347 1.367 . S
C3347 C3346 1.367 . S
C3347 C3349 1.433 . S
C3348 C3344 1.350 . S
C3348 C3345 1.463 . S
C3348 N3352 1.427 . S
C3349 H3339 0.929 . S
C3349 C3347 1.433 . S
C3349 N3352 1.384 . S
C3350 H3341 0.929 . S
C3350 C3342 1.378 . S
C3350 C3345 1.350 . S
C3351 H3338 0.929 . S
C3351 C3343 1.433 . S
C3351 N3353 1.384 . S
N3352 C3348 1.427 . S
N3352 C3349 1.384 . S
N3353 C3345 1.427 . S
N3353 C3351 1.384 . S
H3354 C3360 0.930 . S
H3355 C3364 0.930 . S
H3356 C3369 0.929 . S
H3357 C3367 0.929 . S
H3358 C3362 0.929 . S
H3359 C3368 0.929 . S
C3360 H3354 0.930 . S
C3360 C3361 1.367 . S
C3360 C3368 1.378 . S
C3361 C3360 1.367 . S
C3361 C3369 1.433 . S
C3362 H3358 0.929 . S
C3362 C3364 1.378 . S
C3362 C3366 1.350 . S
C3363 C3366 1.463 . S
C3363 C3368 1.350 . S
C3363 N3371 1.427 . S
C3364 H3355 0.930 . S
C3364 C3362 1.378 . S
C3364 C3365 1.367 . S
C3365 C3364 1.367 . S
C3365 C3367 1.433 . S
C3366 C3362 1.350 . S
C3366 C3363 1.463 . S
C3366 N3370 1.427 . S
C3367 H3357 0.929 . S
C3367 C3365 1.433 . S
C3367 N3370 1.384 . S
C3368 H3359 0.929 . S
C3368 C3360 1.378 . S
C3368 C3363 1.350 . S
C3369 H3356 0.929 . S
C3369 C3361 1.433 . S
C3369 N3371 1.384 . S
N3370 C3366 1.427 . S
N3370 C3367 1.384 . S
N3371 C3363 1.427 . S
N3371 C3369 1.384 . S
H3372 C3378 0.930 . S
H3373 C3382 0.930 . S
H3374 C3387 0.929 . S
H3375 C3385 0.929 . S
H3376 C3380 0.929 . S
H3377 C3386 0.929 . S
C3378 H3372 0.930 . S
C3378 C3379 1.367 . S
C3378 C3386 1.378 . S
C3379 C3378 1.367 . S
C3379 C3387 1.433 . S
C3380 H3376 0.929 . S
C3380 C3382 1.378 . S
C3380 C3384 1.350 . S
C3381 C3384 1.463 . S
C3381 C3386 1.350 . S
C3381 N3389 1.427 . S
C3382 H3373 0.930 . S
C3382 C3380 1.378 . S
C3382 C3383 1.367 . S
C3383 C3382 1.367 . S
C3383 C3385 1.433 . S
C3384 C3380 1.350 . S
C3384 C3381 1.463 . S
C3384 N3388 1.427 . S
C3385 H3375 0.929 . S
C3385 C3383 1.433 . S
C3385 N3388 1.384 . S
C3386 H3377 0.929 . S
C3386 C3378 1.378 . S
C3386 C3381 1.350 . S
C3387 H3374 0.929 . S
C3387 C3379 1.433 . S
C3387 N3389 1.384 . S
N3388 C3384 1.427 . S
N3388 C3385 1.384 . S
N3389 C3381 1.427 . S
N3389 C3387 1.384 . S
H3390 C3396 0.930 . S
H3391 C3400 0.930 . S
H3392 C3405 0.929 . S
H3393 C3403 0.929 . S
H3394 C3398 0.929 . S
H3395 C3404 0.929 . S
C3396 H3390 0.930 . S
C3396 C3397 1.367 . S
C3396 C3404 1.378 . S
C3397 C3396 1.367 . S
C3397 C3405 1.433 . S
C3398 H3394 0.929 . S
C3398 C3400 1.378 . S
C3398 C3402 1.350 . S
C3399 C3402 1.463 . S
C3399 C3404 1.350 . S
C3399 N3407 1.427 . S
C3400 H3391 0.930 . S
C3400 C3398 1.378 . S
C3400 C3401 1.367 . S
C3401 C3400 1.367 . S
C3401 C3403 1.433 . S
C3402 C3398 1.350 . S
C3402 C3399 1.463 . S
C3402 N3406 1.427 . S
C3403 H3393 0.929 . S
C3403 C3401 1.433 . S
C3403 N3406 1.384 . S
C3404 H3395 0.929 . S
C3404 C3396 1.378 . S
C3404 C3399 1.350 . S
C3405 H3392 0.929 . S
C3405 C3397 1.433 . S
C3405 N3407 1.384 . S
N3406 C3402 1.427 . S
N3406 C3403 1.384 . S
N3407 C3399 1.427 . S
N3407 C3405 1.384 . S
H3408 C3414 0.930 . S
H3409 C3418 0.930 . S
H3410 C3423 0.929 . S
H3411 C3421 0.929 . S
H3412 C3416 0.929 . S
H3413 C3422 0.929 . S
C3414 H3408 0.930 . S
C3414 C3415 1.367 . S
C3414 C3422 1.378 . S
C3415 C3414 1.367 . S
C3415 C3423 1.433 . S
C3416 H3412 0.929 . S
C3416 C3418 1.378 . S
C3416 C3420 1.350 . S
C3417 C3420 1.463 . S
C3417 C3422 1.350 . S
C3417 N3425 1.427 . S
C3418 H3409 0.930 . S
C3418 C3416 1.378 . S
C3418 C3419 1.367 . S
C3419 C3418 1.367 . S
C3419 C3421 1.433 . S
C3420 C3416 1.350 . S
C3420 C3417 1.463 . S
C3420 N3424 1.427 . S
C3421 H3411 0.929 . S
C3421 C3419 1.433 . S
C3421 N3424 1.384 . S
C3422 H3413 0.929 . S
C3422 C3414 1.378 . S
C3422 C3417 1.350 . S
C3423 H3410 0.929 . S
C3423 C3415 1.433 . S
C3423 N3425 1.384 . S
N3424 C3420 1.427 . S
N3424 C3421 1.384 . S
N3425 C3417 1.427 . S
N3425 C3423 1.384 . S
H3426 C3432 0.930 . S
H3427 C3436 0.930 . S
H3428 C3441 0.929 . S
H3429 C3439 0.929 . S
H3430 C3434 0.929 . S
H3431 C3440 0.929 . S
C3432 H3426 0.930 . S
C3432 C3433 1.367 . S
C3432 C3440 1.378 . S
C3433 C3432 1.367 . S
C3433 C3441 1.433 . S
C3434 H3430 0.929 . S
C3434 C3436 1.378 . S
C3434 C3438 1.350 . S
C3435 C3438 1.463 . S
C3435 C3440 1.350 . S
C3435 N3443 1.427 . S
C3436 H3427 0.930 . S
C3436 C3434 1.378 . S
C3436 C3437 1.367 . S
C3437 C3436 1.367 . S
C3437 C3439 1.433 . S
C3438 C3434 1.350 . S
C3438 C3435 1.463 . S
C3438 N3442 1.427 . S
C3439 H3429 0.929 . S
C3439 C3437 1.433 . S
C3439 N3442 1.384 . S
C3440 H3431 0.929 . S
C3440 C3432 1.378 . S
C3440 C3435 1.350 . S
C3441 H3428 0.929 . S
C3441 C3433 1.433 . S
C3441 N3443 1.384 . S
N3442 C3438 1.427 . S
N3442 C3439 1.384 . S
N3443 C3435 1.427 . S
N3443 C3441 1.384 . S
H3444 C3450 0.930 . S
H3445 C3454 0.930 . S
H3446 C3459 0.929 . S
H3447 C3457 0.929 . S
H3448 C3452 0.929 . S
H3449 C3458 0.929 . S
C3450 H3444 0.930 . S
C3450 C3451 1.367 . S
C3450 C3458 1.378 . S
C3451 C3450 1.367 . S
C3451 C3459 1.433 . S
C3452 H3448 0.929 . S
C3452 C3454 1.378 . S
C3452 C3456 1.350 . S
C3453 C3456 1.463 . S
C3453 C3458 1.350 . S
C3453 N3461 1.427 . S
C3454 H3445 0.930 . S
C3454 C3452 1.378 . S
C3454 C3455 1.367 . S
C3455 C3454 1.367 . S
C3455 C3457 1.433 . S
C3456 C3452 1.350 . S
C3456 C3453 1.463 . S
C3456 N3460 1.427 . S
C3457 H3447 0.929 . S
C3457 C3455 1.433 . S
C3457 N3460 1.384 . S
C3458 H3449 0.929 . S
C3458 C3450 1.378 . S
C3458 C3453 1.350 . S
C3459 H3446 0.929 . S
C3459 C3451 1.433 . S
C3459 N3461 1.384 . S
N3460 C3456 1.427 . S
N3460 C3457 1.384 . S
N3461 C3453 1.427 . S
N3461 C3459 1.384 . S
H3462 C3468 0.930 . S
H3463 C3472 0.930 . S
H3464 C3477 0.929 . S
H3465 C3475 0.929 . S
H3466 C3470 0.929 . S
H3467 C3476 0.929 . S
C3468 H3462 0.930 . S
C3468 C3469 1.367 . S
C3468 C3476 1.378 . S
C3469 C3468 1.367 . S
C3469 C3477 1.433 . S
C3470 H3466 0.929 . S
C3470 C3472 1.378 . S
C3470 C3474 1.350 . S
C3471 C3474 1.463 . S
C3471 C3476 1.350 . S
C3471 N3479 1.427 . S
C3472 H3463 0.930 . S
C3472 C3470 1.378 . S
C3472 C3473 1.367 . S
C3473 C3472 1.367 . S
C3473 C3475 1.433 . S
C3474 C3470 1.350 . S
C3474 C3471 1.463 . S
C3474 N3478 1.427 . S
C3475 H3465 0.929 . S
C3475 C3473 1.433 . S
C3475 N3478 1.384 . S
C3476 H3467 0.929 . S
C3476 C3468 1.378 . S
C3476 C3471 1.350 . S
C3477 H3464 0.929 . S
C3477 C3469 1.433 . S
C3477 N3479 1.384 . S
N3478 C3474 1.427 . S
N3478 C3475 1.384 . S
N3479 C3471 1.427 . S
N3479 C3477 1.384 . S
H3480 C3486 0.930 . S
H3481 C3490 0.930 . S
H3482 C3495 0.929 . S
H3483 C3493 0.929 . S
H3484 C3488 0.929 . S
H3485 C3494 0.929 . S
C3486 H3480 0.930 . S
C3486 C3487 1.367 . S
C3486 C3494 1.378 . S
C3487 C3486 1.367 . S
C3487 C3495 1.433 . S
C3488 H3484 0.929 . S
C3488 C3490 1.378 . S
C3488 C3492 1.350 . S
C3489 C3492 1.463 . S
C3489 C3494 1.350 . S
C3489 N3497 1.427 . S
C3490 H3481 0.930 . S
C3490 C3488 1.378 . S
C3490 C3491 1.367 . S
C3491 C3490 1.367 . S
C3491 C3493 1.433 . S
C3492 C3488 1.350 . S
C3492 C3489 1.463 . S
C3492 N3496 1.427 . S
C3493 H3483 0.929 . S
C3493 C3491 1.433 . S
C3493 N3496 1.384 . S
C3494 H3485 0.929 . S
C3494 C3486 1.378 . S
C3494 C3489 1.350 . S
C3495 H3482 0.929 . S
C3495 C3487 1.433 . S
C3495 N3497 1.384 . S
N3496 C3492 1.427 . S
N3496 C3493 1.384 . S
N3497 C3489 1.427 . S
N3497 C3495 1.384 . S
H3498 C3504 0.930 . S
H3499 C3508 0.930 . S
H3500 C3513 0.929 . S
H3501 C3511 0.929 . S
H3502 C3506 0.929 . S
H3503 C3512 0.929 . S
C3504 H3498 0.930 . S
C3504 C3505 1.367 . S
C3504 C3512 1.378 . S
C3505 C3504 1.367 . S
C3505 C3513 1.433 . S
C3506 H3502 0.929 . S
C3506 C3508 1.378 . S
C3506 C3510 1.350 . S
C3507 C3510 1.463 . S
C3507 C3512 1.350 . S
C3507 N3515 1.427 . S
C3508 H3499 0.930 . S
C3508 C3506 1.378 . S
C3508 C3509 1.367 . S
C3509 C3508 1.367 . S
C3509 C3511 1.433 . S
C3510 C3506 1.350 . S
C3510 C3507 1.463 . S
C3510 N3514 1.427 . S
C3511 H3501 0.929 . S
C3511 C3509 1.433 . S
C3511 N3514 1.384 . S
C3512 H3503 0.929 . S
C3512 C3504 1.378 . S
C3512 C3507 1.350 . S
C3513 H3500 0.929 . S
C3513 C3505 1.433 . S
C3513 N3515 1.384 . S
N3514 C3510 1.427 . S
N3514 C3511 1.384 . S
N3515 C3507 1.427 . S
N3515 C3513 1.384 . S
H3516 C3522 0.930 . S
H3517 C3526 0.930 . S
H3518 C3531 0.929 . S
H3519 C3529 0.929 . S
H3520 C3524 0.929 . S
H3521 C3530 0.929 . S
C3522 H3516 0.930 . S
C3522 C3523 1.367 . S
C3522 C3530 1.378 . S
C3523 C3522 1.367 . S
C3523 C3531 1.433 . S
C3524 H3520 0.929 . S
C3524 C3526 1.378 . S
C3524 C3528 1.350 . S
C3525 C3528 1.463 . S
C3525 C3530 1.350 . S
C3525 N3533 1.427 . S
C3526 H3517 0.930 . S
C3526 C3524 1.378 . S
C3526 C3527 1.367 . S
C3527 C3526 1.367 . S
C3527 C3529 1.433 . S
C3528 C3524 1.350 . S
C3528 C3525 1.463 . S
C3528 N3532 1.427 . S
C3529 H3519 0.929 . S
C3529 C3527 1.433 . S
C3529 N3532 1.384 . S
C3530 H3521 0.929 . S
C3530 C3522 1.378 . S
C3530 C3525 1.350 . S
C3531 H3518 0.929 . S
C3531 C3523 1.433 . S
C3531 N3533 1.384 . S
N3532 C3528 1.427 . S
N3532 C3529 1.384 . S
N3533 C3525 1.427 . S
N3533 C3531 1.384 . S
H3534 C3540 0.930 . S
H3535 C3544 0.930 . S
H3536 C3549 0.929 . S
H3537 C3547 0.929 . S
H3538 C3542 0.929 . S
H3539 C3548 0.929 . S
C3540 H3534 0.930 . S
C3540 C3541 1.367 . S
C3540 C3548 1.378 . S
C3541 C3540 1.367 . S
C3541 C3549 1.433 . S
C3542 H3538 0.929 . S
C3542 C3544 1.378 . S
C3542 C3546 1.350 . S
C3543 C3546 1.463 . S
C3543 C3548 1.350 . S
C3543 N3551 1.427 . S
C3544 H3535 0.930 . S
C3544 C3542 1.378 . S
C3544 C3545 1.367 . S
C3545 C3544 1.367 . S
C3545 C3547 1.433 . S
C3546 C3542 1.350 . S
C3546 C3543 1.463 . S
C3546 N3550 1.427 . S
C3547 H3537 0.929 . S
C3547 C3545 1.433 . S
C3547 N3550 1.384 . S
C3548 H3539 0.929 . S
C3548 C3540 1.378 . S
C3548 C3543 1.350 . S
C3549 H3536 0.929 . S
C3549 C3541 1.433 . S
C3549 N3551 1.384 . S
N3550 C3546 1.427 . S
N3550 C3547 1.384 . S
N3551 C3543 1.427 . S
N3551 C3549 1.384 . S
H3552 C3558 0.930 . S
H3553 C3562 0.930 . S
H3554 C3567 0.929 . S
H3555 C3565 0.929 . S
H3556 C3560 0.929 . S
H3557 C3566 0.929 . S
C3558 H3552 0.930 . S
C3558 C3559 1.367 . S
C3558 C3566 1.378 . S
C3559 C3558 1.367 . S
C3559 C3567 1.433 . S
C3560 H3556 0.929 . S
C3560 C3562 1.378 . S
C3560 C3564 1.350 . S
C3561 C3564 1.463 . S
C3561 C3566 1.350 . S
C3561 N3569 1.427 . S
C3562 H3553 0.930 . S
C3562 C3560 1.378 . S
C3562 C3563 1.367 . S
C3563 C3562 1.367 . S
C3563 C3565 1.433 . S
C3564 C3560 1.350 . S
C3564 C3561 1.463 . S
C3564 N3568 1.427 . S
C3565 H3555 0.929 . S
C3565 C3563 1.433 . S
C3565 N3568 1.384 . S
C3566 H3557 0.929 . S
C3566 C3558 1.378 . S
C3566 C3561 1.350 . S
C3567 H3554 0.929 . S
C3567 C3559 1.433 . S
C3567 N3569 1.384 . S
N3568 C3564 1.427 . S
N3568 C3565 1.384 . S
N3569 C3561 1.427 . S
N3569 C3567 1.384 . S
H3570 C3576 0.930 . S
H3571 C3580 0.930 . S
H3572 C3585 0.929 . S
H3573 C3583 0.929 . S
H3574 C3578 0.929 . S
H3575 C3584 0.929 . S
C3576 H3570 0.930 . S
C3576 C3577 1.367 . S
C3576 C3584 1.378 . S
C3577 C3576 1.367 . S
C3577 C3585 1.433 . S
C3578 H3574 0.929 . S
C3578 C3580 1.378 . S
C3578 C3582 1.350 . S
C3579 C3582 1.463 . S
C3579 C3584 1.350 . S
C3579 N3587 1.427 . S
C3580 H3571 0.930 . S
C3580 C3578 1.378 . S
C3580 C3581 1.367 . S
C3581 C3580 1.367 . S
C3581 C3583 1.433 . S
C3582 C3578 1.350 . S
C3582 C3579 1.463 . S
C3582 N3586 1.427 . S
C3583 H3573 0.929 . S
C3583 C3581 1.433 . S
C3583 N3586 1.384 . S
C3584 H3575 0.929 . S
C3584 C3576 1.378 . S
C3584 C3579 1.350 . S
C3585 H3572 0.929 . S
C3585 C3577 1.433 . S
C3585 N3587 1.384 . S
N3586 C3582 1.427 . S
N3586 C3583 1.384 . S
N3587 C3579 1.427 . S
N3587 C3585 1.384 . S
H3588 C3594 0.930 . S
H3589 C3598 0.930 . S
H3590 C3603 0.929 . S
H3591 C3601 0.929 . S
H3592 C3596 0.929 . S
H3593 C3602 0.929 . S
C3594 H3588 0.930 . S
C3594 C3595 1.367 . S
C3594 C3602 1.378 . S
C3595 C3594 1.367 . S
C3595 C3603 1.433 . S
C3596 H3592 0.929 . S
C3596 C3598 1.378 . S
C3596 C3600 1.350 . S
C3597 C3600 1.463 . S
C3597 C3602 1.350 . S
C3597 N3605 1.427 . S
C3598 H3589 0.930 . S
C3598 C3596 1.378 . S
C3598 C3599 1.367 . S
C3599 C3598 1.367 . S
C3599 C3601 1.433 . S
C3600 C3596 1.350 . S
C3600 C3597 1.463 . S
C3600 N3604 1.427 . S
C3601 H3591 0.929 . S
C3601 C3599 1.433 . S
C3601 N3604 1.384 . S
C3602 H3593 0.929 . S
C3602 C3594 1.378 . S
C3602 C3597 1.350 . S
C3603 H3590 0.929 . S
C3603 C3595 1.433 . S
C3603 N3605 1.384 . S
N3604 C3600 1.427 . S
N3604 C3601 1.384 . S
N3605 C3597 1.427 . S
N3605 C3603 1.384 . S
H3606 C3612 0.930 . S
H3607 C3616 0.930 . S
H3608 C3621 0.929 . S
H3609 C3619 0.929 . S
H3610 C3614 0.929 . S
H3611 C3620 0.929 . S
C3612 H3606 0.930 . S
C3612 C3613 1.367 . S
C3612 C3620 1.378 . S
C3613 C3612 1.367 . S
C3613 C3621 1.433 . S
C3614 H3610 0.929 . S
C3614 C3616 1.378 . S
C3614 C3618 1.350 . S
C3615 C3618 1.463 . S
C3615 C3620 1.350 . S
C3615 N3623 1.427 . S
C3616 H3607 0.930 . S
C3616 C3614 1.378 . S
C3616 C3617 1.367 . S
C3617 C3616 1.367 . S
C3617 C3619 1.433 . S
C3618 C3614 1.350 . S
C3618 C3615 1.463 . S
C3618 N3622 1.427 . S
C3619 H3609 0.929 . S
C3619 C3617 1.433 . S
C3619 N3622 1.384 . S
C3620 H3611 0.929 . S
C3620 C3612 1.378 . S
C3620 C3615 1.350 . S
C3621 H3608 0.929 . S
C3621 C3613 1.433 . S
C3621 N3623 1.384 . S
N3622 C3618 1.427 . S
N3622 C3619 1.384 . S
N3623 C3615 1.427 . S
N3623 C3621 1.384 . S
H3624 C3630 0.930 . S
H3625 C3634 0.930 . S
H3626 C3639 0.929 . S
H3627 C3637 0.929 . S
H3628 C3632 0.929 . S
H3629 C3638 0.929 . S
C3630 H3624 0.930 . S
C3630 C3631 1.367 . S
C3630 C3638 1.378 . S
C3631 C3630 1.367 . S
C3631 C3639 1.433 . S
C3632 H3628 0.929 . S
C3632 C3634 1.378 . S
C3632 C3636 1.350 . S
C3633 C3636 1.463 . S
C3633 C3638 1.350 . S
C3633 N3641 1.427 . S
C3634 H3625 0.930 . S
C3634 C3632 1.378 . S
C3634 C3635 1.367 . S
C3635 C3634 1.367 . S
C3635 C3637 1.433 . S
C3636 C3632 1.350 . S
C3636 C3633 1.463 . S
C3636 N3640 1.427 . S
C3637 H3627 0.929 . S
C3637 C3635 1.433 . S
C3637 N3640 1.384 . S
C3638 H3629 0.929 . S
C3638 C3630 1.378 . S
C3638 C3633 1.350 . S
C3639 H3626 0.929 . S
C3639 C3631 1.433 . S
C3639 N3641 1.384 . S
N3640 C3636 1.427 . S
N3640 C3637 1.384 . S
N3641 C3633 1.427 . S
N3641 C3639 1.384 . S
H3642 C3648 0.930 . S
H3643 C3652 0.930 . S
H3644 C3657 0.929 . S
H3645 C3655 0.929 . S
H3646 C3650 0.929 . S
H3647 C3656 0.929 . S
C3648 H3642 0.930 . S
C3648 C3649 1.367 . S
C3648 C3656 1.378 . S
C3649 C3648 1.367 . S
C3649 C3657 1.433 . S
C3650 H3646 0.929 . S
C3650 C3652 1.378 . S
C3650 C3654 1.350 . S
C3651 C3654 1.463 . S
C3651 C3656 1.350 . S
C3651 N3659 1.427 . S
C3652 H3643 0.930 . S
C3652 C3650 1.378 . S
C3652 C3653 1.367 . S
C3653 C3652 1.367 . S
C3653 C3655 1.433 . S
C3654 C3650 1.350 . S
C3654 C3651 1.463 . S
C3654 N3658 1.427 . S
C3655 H3645 0.929 . S
C3655 C3653 1.433 . S
C3655 N3658 1.384 . S
C3656 H3647 0.929 . S
C3656 C3648 1.378 . S
C3656 C3651 1.350 . S
C3657 H3644 0.929 . S
C3657 C3649 1.433 . S
C3657 N3659 1.384 . S
N3658 C3654 1.427 . S
N3658 C3655 1.384 . S
N3659 C3651 1.427 . S
N3659 C3657 1.384 . S
H3660 C3666 0.930 . S
H3661 C3670 0.930 . S
H3662 C3675 0.929 . S
H3663 C3673 0.929 . S
H3664 C3668 0.929 . S
H3665 C3674 0.929 . S
C3666 H3660 0.930 . S
C3666 C3667 1.367 . S
C3666 C3674 1.378 . S
C3667 C3666 1.367 . S
C3667 C3675 1.433 . S
C3668 H3664 0.929 . S
C3668 C3670 1.378 . S
C3668 C3672 1.350 . S
C3669 C3672 1.463 . S
C3669 C3674 1.350 . S
C3669 N3677 1.427 . S
C3670 H3661 0.930 . S
C3670 C3668 1.378 . S
C3670 C3671 1.367 . S
C3671 C3670 1.367 . S
C3671 C3673 1.433 . S
C3672 C3668 1.350 . S
C3672 C3669 1.463 . S
C3672 N3676 1.427 . S
C3673 H3663 0.929 . S
C3673 C3671 1.433 . S
C3673 N3676 1.384 . S
C3674 H3665 0.929 . S
C3674 C3666 1.378 . S
C3674 C3669 1.350 . S
C3675 H3662 0.929 . S
C3675 C3667 1.433 . S
C3675 N3677 1.384 . S
N3676 C3672 1.427 . S
N3676 C3673 1.384 . S
N3677 C3669 1.427 . S
N3677 C3675 1.384 . S
H3678 C3684 0.930 . S
H3679 C3688 0.930 . S
H3680 C3693 0.929 . S
H3681 C3691 0.929 . S
H3682 C3686 0.929 . S
H3683 C3692 0.929 . S
C3684 H3678 0.930 . S
C3684 C3685 1.367 . S
C3684 C3692 1.378 . S
C3685 C3684 1.367 . S
C3685 C3693 1.433 . S
C3686 H3682 0.929 . S
C3686 C3688 1.378 . S
C3686 C3690 1.350 . S
C3687 C3690 1.463 . S
C3687 C3692 1.350 . S
C3687 N3695 1.427 . S
C3688 H3679 0.930 . S
C3688 C3686 1.378 . S
C3688 C3689 1.367 . S
C3689 C3688 1.367 . S
C3689 C3691 1.433 . S
C3690 C3686 1.350 . S
C3690 C3687 1.463 . S
C3690 N3694 1.427 . S
C3691 H3681 0.929 . S
C3691 C3689 1.433 . S
C3691 N3694 1.384 . S
C3692 H3683 0.929 . S
C3692 C3684 1.378 . S
C3692 C3687 1.350 . S
C3693 H3680 0.929 . S
C3693 C3685 1.433 . S
C3693 N3695 1.384 . S
N3694 C3690 1.427 . S
N3694 C3691 1.384 . S
N3695 C3687 1.427 . S
N3695 C3693 1.384 . S
H3696 C3702 0.930 . S
H3697 C3706 0.930 . S
H3698 C3711 0.929 . S
H3699 C3709 0.929 . S
H3700 C3704 0.929 . S
H3701 C3710 0.929 . S
C3702 H3696 0.930 . S
C3702 C3703 1.367 . S
C3702 C3710 1.378 . S
C3703 C3702 1.367 . S
C3703 C3711 1.433 . S
C3704 H3700 0.929 . S
C3704 C3706 1.378 . S
C3704 C3708 1.350 . S
C3705 C3708 1.463 . S
C3705 C3710 1.350 . S
C3705 N3713 1.427 . S
C3706 H3697 0.930 . S
C3706 C3704 1.378 . S
C3706 C3707 1.367 . S
C3707 C3706 1.367 . S
C3707 C3709 1.433 . S
C3708 C3704 1.350 . S
C3708 C3705 1.463 . S
C3708 N3712 1.427 . S
C3709 H3699 0.929 . S
C3709 C3707 1.433 . S
C3709 N3712 1.384 . S
C3710 H3701 0.929 . S
C3710 C3702 1.378 . S
C3710 C3705 1.350 . S
C3711 H3698 0.929 . S
C3711 C3703 1.433 . S
C3711 N3713 1.384 . S
N3712 C3708 1.427 . S
N3712 C3709 1.384 . S
N3713 C3705 1.427 . S
N3713 C3711 1.384 . S
H3714 C3720 0.930 . S
H3715 C3724 0.930 . S
H3716 C3729 0.929 . S
H3717 C3727 0.929 . S
H3718 C3722 0.929 . S
H3719 C3728 0.929 . S
C3720 H3714 0.930 . S
C3720 C3721 1.367 . S
C3720 C3728 1.378 . S
C3721 C3720 1.367 . S
C3721 C3729 1.433 . S
C3722 H3718 0.929 . S
C3722 C3724 1.378 . S
C3722 C3726 1.350 . S
C3723 C3726 1.463 . S
C3723 C3728 1.350 . S
C3723 N3731 1.427 . S
C3724 H3715 0.930 . S
C3724 C3722 1.378 . S
C3724 C3725 1.367 . S
C3725 C3724 1.367 . S
C3725 C3727 1.433 . S
C3726 C3722 1.350 . S
C3726 C3723 1.463 . S
C3726 N3730 1.427 . S
C3727 H3717 0.929 . S
C3727 C3725 1.433 . S
C3727 N3730 1.384 . S
C3728 H3719 0.929 . S
C3728 C3720 1.378 . S
C3728 C3723 1.350 . S
C3729 H3716 0.929 . S
C3729 C3721 1.433 . S
C3729 N3731 1.384 . S
N3730 C3726 1.427 . S
N3730 C3727 1.384 . S
N3731 C3723 1.427 . S
N3731 C3729 1.384 . S
H3732 C3738 0.930 . S
H3733 C3742 0.930 . S
H3734 C3747 0.929 . S
H3735 C3745 0.929 . S
H3736 C3740 0.929 . S
H3737 C3746 0.929 . S
C3738 H3732 0.930 . S
C3738 C3739 1.367 . S
C3738 C3746 1.378 . S
C3739 C3738 1.367 . S
C3739 C3747 1.433 . S
C3740 H3736 0.929 . S
C3740 C3742 1.378 . S
C3740 C3744 1.350 . S
C3741 C3744 1.463 . S
C3741 C3746 1.350 . S
C3741 N3749 1.427 . S
C3742 H3733 0.930 . S
C3742 C3740 1.378 . S
C3742 C3743 1.367 . S
C3743 C3742 1.367 . S
C3743 C3745 1.433 . S
C3744 C3740 1.350 . S
C3744 C3741 1.463 . S
C3744 N3748 1.427 . S
C3745 H3735 0.929 . S
C3745 C3743 1.433 . S
C3745 N3748 1.384 . S
C3746 H3737 0.929 . S
C3746 C3738 1.378 . S
C3746 C3741 1.350 . S
C3747 H3734 0.929 . S
C3747 C3739 1.433 . S
C3747 N3749 1.384 . S
N3748 C3744 1.427 . S
N3748 C3745 1.384 . S
N3749 C3741 1.427 . S
N3749 C3747 1.384 . S
H3750 C3756 0.930 . S
H3751 C3760 0.930 . S
H3752 C3765 0.929 . S
H3753 C3763 0.929 . S
H3754 C3758 0.929 . S
H3755 C3764 0.929 . S
C3756 H3750 0.930 . S
C3756 C3757 1.367 . S
C3756 C3764 1.378 . S
C3757 C3756 1.367 . S
C3757 C3765 1.433 . S
C3758 H3754 0.929 . S
C3758 C3760 1.378 . S
C3758 C3762 1.350 . S
C3759 C3762 1.463 . S
C3759 C3764 1.350 . S
C3759 N3767 1.427 . S
C3760 H3751 0.930 . S
C3760 C3758 1.378 . S
C3760 C3761 1.367 . S
C3761 C3760 1.367 . S
C3761 C3763 1.433 . S
C3762 C3758 1.350 . S
C3762 C3759 1.463 . S
C3762 N3766 1.427 . S
C3763 H3753 0.929 . S
C3763 C3761 1.433 . S
C3763 N3766 1.384 . S
C3764 H3755 0.929 . S
C3764 C3756 1.378 . S
C3764 C3759 1.350 . S
C3765 H3752 0.929 . S
C3765 C3757 1.433 . S
C3765 N3767 1.384 . S
N3766 C3762 1.427 . S
N3766 C3763 1.384 . S
N3767 C3759 1.427 . S
N3767 C3765 1.384 . S
H3768 C3774 0.930 . S
H3769 C3778 0.930 . S
H3770 C3783 0.929 . S
H3771 C3781 0.929 . S
H3772 C3776 0.929 . S
H3773 C3782 0.929 . S
C3774 H3768 0.930 . S
C3774 C3775 1.367 . S
C3774 C3782 1.378 . S
C3775 C3774 1.367 . S
C3775 C3783 1.433 . S
C3776 H3772 0.929 . S
C3776 C3778 1.378 . S
C3776 C3780 1.350 . S
C3777 C3780 1.463 . S
C3777 C3782 1.350 . S
C3777 N3785 1.427 . S
C3778 H3769 0.930 . S
C3778 C3776 1.378 . S
C3778 C3779 1.367 . S
C3779 C3778 1.367 . S
C3779 C3781 1.433 . S
C3780 C3776 1.350 . S
C3780 C3777 1.463 . S
C3780 N3784 1.427 . S
C3781 H3771 0.929 . S
C3781 C3779 1.433 . S
C3781 N3784 1.384 . S
C3782 H3773 0.929 . S
C3782 C3774 1.378 . S
C3782 C3777 1.350 . S
C3783 H3770 0.929 . S
C3783 C3775 1.433 . S
C3783 N3785 1.384 . S
N3784 C3780 1.427 . S
N3784 C3781 1.384 . S
N3785 C3777 1.427 . S
N3785 C3783 1.384 . S
H3786 C3792 0.930 . S
H3787 C3796 0.930 . S
H3788 C3801 0.929 . S
H3789 C3799 0.929 . S
H3790 C3794 0.929 . S
H3791 C3800 0.929 . S
C3792 H3786 0.930 . S
C3792 C3793 1.367 . S
C3792 C3800 1.378 . S
C3793 C3792 1.367 . S
C3793 C3801 1.433 . S
C3794 H3790 0.929 . S
C3794 C3796 1.378 . S
C3794 C3798 1.350 . S
C3795 C3798 1.463 . S
C3795 C3800 1.350 . S
C3795 N3803 1.427 . S
C3796 H3787 0.930 . S
C3796 C3794 1.378 . S
C3796 C3797 1.367 . S
C3797 C3796 1.367 . S
C3797 C3799 1.433 . S
C3798 C3794 1.350 . S
C3798 C3795 1.463 . S
C3798 N3802 1.427 . S
C3799 H3789 0.929 . S
C3799 C3797 1.433 . S
C3799 N3802 1.384 . S
C3800 H3791 0.929 . S
C3800 C3792 1.378 . S
C3800 C3795 1.350 . S
C3801 H3788 0.929 . S
C3801 C3793 1.433 . S
C3801 N3803 1.384 . S
N3802 C3798 1.427 . S
N3802 C3799 1.384 . S
N3803 C3795 1.427 . S
N3803 C3801 1.384 . S
H3804 C3810 0.930 . S
H3805 C3814 0.930 . S
H3806 C3819 0.929 . S
H3807 C3817 0.929 . S
H3808 C3812 0.929 . S
H3809 C3818 0.929 . S
C3810 H3804 0.930 . S
C3810 C3811 1.367 . S
C3810 C3818 1.378 . S
C3811 C3810 1.367 . S
C3811 C3819 1.433 . S
C3812 H3808 0.929 . S
C3812 C3814 1.378 . S
C3812 C3816 1.350 . S
C3813 C3816 1.463 . S
C3813 C3818 1.350 . S
C3813 N3821 1.427 . S
C3814 H3805 0.930 . S
C3814 C3812 1.378 . S
C3814 C3815 1.367 . S
C3815 C3814 1.367 . S
C3815 C3817 1.433 . S
C3816 C3812 1.350 . S
C3816 C3813 1.463 . S
C3816 N3820 1.427 . S
C3817 H3807 0.929 . S
C3817 C3815 1.433 . S
C3817 N3820 1.384 . S
C3818 H3809 0.929 . S
C3818 C3810 1.378 . S
C3818 C3813 1.350 . S
C3819 H3806 0.929 . S
C3819 C3811 1.433 . S
C3819 N3821 1.384 . S
N3820 C3816 1.427 . S
N3820 C3817 1.384 . S
N3821 C3813 1.427 . S
N3821 C3819 1.384 . S
H3822 C3828 0.930 . S
H3823 C3832 0.930 . S
H3824 C3837 0.929 . S
H3825 C3835 0.929 . S
H3826 C3830 0.929 . S
H3827 C3836 0.929 . S
C3828 H3822 0.930 . S
C3828 C3829 1.367 . S
C3828 C3836 1.378 . S
C3829 C3828 1.367 . S
C3829 C3837 1.433 . S
C3830 H3826 0.929 . S
C3830 C3832 1.378 . S
C3830 C3834 1.350 . S
C3831 C3834 1.463 . S
C3831 C3836 1.350 . S
C3831 N3839 1.427 . S
C3832 H3823 0.930 . S
C3832 C3830 1.378 . S
C3832 C3833 1.367 . S
C3833 C3832 1.367 . S
C3833 C3835 1.433 . S
C3834 C3830 1.350 . S
C3834 C3831 1.463 . S
C3834 N3838 1.427 . S
C3835 H3825 0.929 . S
C3835 C3833 1.433 . S
C3835 N3838 1.384 . S
C3836 H3827 0.929 . S
C3836 C3828 1.378 . S
C3836 C3831 1.350 . S
C3837 H3824 0.929 . S
C3837 C3829 1.433 . S
C3837 N3839 1.384 . S
N3838 C3834 1.427 . S
N3838 C3835 1.384 . S
N3839 C3831 1.427 . S
N3839 C3837 1.384 . S
H3840 C3846 0.930 . S
H3841 C3850 0.930 . S
H3842 C3855 0.929 . S
H3843 C3853 0.929 . S
H3844 C3848 0.929 . S
H3845 C3854 0.921 1_655 S
C3846 H3840 0.930 . S
C3846 C3847 1.367 . S
C3846 C3854 1.378 . S
C3847 C3846 1.367 . S
C3847 C3855 1.433 . S
C3848 H3844 0.929 . S
C3848 C3850 1.378 . S
C3848 C3852 1.350 . S
C3849 C3852 1.463 . S
C3849 C3854 1.350 1_655 S
C3849 N3857 1.427 . S
C3850 H3841 0.930 . S
C3850 C3848 1.378 . S
C3850 C3851 1.367 . S
C3851 C3850 1.367 . S
C3851 C3853 1.433 . S
C3852 C3848 1.350 . S
C3852 C3849 1.463 . S
C3852 N3856 1.427 . S
C3853 H3843 0.929 . S
C3853 C3851 1.433 . S
C3853 N3856 1.384 . S
C3854 H3845 0.921 1_455 S
C3854 C3846 1.378 . S
C3854 C3849 1.350 1_455 S
C3855 H3842 0.929 . S
C3855 C3847 1.433 . S
C3855 N3857 1.384 1_455 S
N3856 C3852 1.427 . S
N3856 C3853 1.384 . S
N3857 C3849 1.427 . S
N3857 C3855 1.384 1_655 S
H3858 C3864 0.930 . S
H3859 C3868 0.930 . S
H3860 C3873 0.929 . S
H3861 C3871 0.929 . S
H3862 C3866 0.929 . S
H3863 C3872 0.929 . S
C3864 H3858 0.930 . S
C3864 C3865 1.367 . S
C3864 C3872 1.378 . S
C3865 C3864 1.367 . S
C3865 C3873 1.433 . S
C3866 H3862 0.929 . S
C3866 C3868 1.378 . S
C3866 C3870 1.350 . S
C3867 C3870 1.463 . S
C3867 C3872 1.350 . S
C3867 N3875 1.427 . S
C3868 H3859 0.930 . S
C3868 C3866 1.378 . S
C3868 C3869 1.367 . S
C3869 C3868 1.367 . S
C3869 C3871 1.433 . S
C3870 C3866 1.350 . S
C3870 C3867 1.463 . S
C3870 N3874 1.427 . S
C3871 H3861 0.929 . S
C3871 C3869 1.433 . S
C3871 N3874 1.384 . S
C3872 H3863 0.929 . S
C3872 C3864 1.378 . S
C3872 C3867 1.350 . S
C3873 H3860 0.929 . S
C3873 C3865 1.433 . S
C3873 N3875 1.384 . S
N3874 C3870 1.427 . S
N3874 C3871 1.384 . S
N3875 C3867 1.427 . S
N3875 C3873 1.384 . S
H3876 C3882 0.930 . S
H3877 C3886 0.930 . S
H3878 C3891 0.929 . S
H3879 C3889 0.929 . S
H3880 C3884 0.929 . S
H3881 C3890 0.929 . S
C3882 H3876 0.930 . S
C3882 C3883 1.367 . S
C3882 C3890 1.378 . S
C3883 C3882 1.367 . S
C3883 C3891 1.433 . S
C3884 H3880 0.929 . S
C3884 C3886 1.378 . S
C3884 C3888 1.350 . S
C3885 C3888 1.463 . S
C3885 C3890 1.350 . S
C3885 N3893 1.427 . S
C3886 H3877 0.930 . S
C3886 C3884 1.378 . S
C3886 C3887 1.367 . S
C3887 C3886 1.367 . S
C3887 C3889 1.433 . S
C3888 C3884 1.350 . S
C3888 C3885 1.463 . S
C3888 N3892 1.427 . S
C3889 H3879 0.929 . S
C3889 C3887 1.433 . S
C3889 N3892 1.384 . S
C3890 H3881 0.929 . S
C3890 C3882 1.378 . S
C3890 C3885 1.350 . S
C3891 H3878 0.929 . S
C3891 C3883 1.433 . S
C3891 N3893 1.384 . S
N3892 C3888 1.427 . S
N3892 C3889 1.384 . S
N3893 C3885 1.427 . S
N3893 C3891 1.384 . S
H3894 C3900 0.930 . S
H3895 C3904 0.930 . S
H3896 C3909 0.929 . S
H3897 C3907 0.929 . S
H3898 C3902 0.929 . S
H3899 C3908 0.912 1_554 S
C3900 H3894 0.930 . S
C3900 C3901 1.367 . S
C3900 C3908 1.426 . S
C3901 C3900 1.367 . S
C3901 C3909 1.433 . S
C3902 H3898 0.929 . S
C3902 C3904 1.378 . S
C3902 C3906 1.350 . S
C3903 C3906 1.463 . S
C3903 C3908 1.324 1_554 S
C3903 N3911 1.427 . S
C3904 H3895 0.930 . S
C3904 C3902 1.378 . S
C3904 C3905 1.367 . S
C3905 C3904 1.367 . S
C3905 C3907 1.433 . S
C3906 C3902 1.350 . S
C3906 C3903 1.463 . S
C3906 N3910 1.427 . S
C3907 H3897 0.929 . S
C3907 C3905 1.433 . S
C3907 N3910 1.384 . S
C3908 H3899 0.912 1_556 S
C3908 C3900 1.426 . S
C3908 C3903 1.324 1_556 S
C3909 H3896 0.929 . S
C3909 C3901 1.433 . S
C3909 N3911 1.384 1_556 S
N3910 C3906 1.427 . S
N3910 C3907 1.384 . S
N3911 C3903 1.427 . S
N3911 C3909 1.384 1_554 S
H3912 C3918 0.930 . S
H3913 C3922 0.930 . S
H3914 C3927 0.929 . S
H3915 C3925 0.929 1_655 S
H3916 C3920 0.929 . S
H3917 C3926 0.929 . S
C3918 H3912 0.930 . S
C3918 C3919 1.367 . S
C3918 C3926 1.378 . S
C3919 C3918 1.367 . S
C3919 C3927 1.433 . S
C3920 H3916 0.929 . S
C3920 C3922 1.378 . S
C3920 C3924 1.350 1_455 S
C3921 C3924 1.463 . S
C3921 C3926 1.350 . S
C3921 N3929 1.427 . S
C3922 H3913 0.930 . S
C3922 C3920 1.378 . S
C3922 C3923 1.367 . S
C3923 C3922 1.367 . S
C3923 C3925 1.433 . S
C3924 C3920 1.350 1_655 S
C3924 C3921 1.463 . S
C3924 N3928 1.427 . S
C3925 H3915 0.929 1_455 S
C3925 C3923 1.433 . S
C3925 N3928 1.384 1_455 S
C3926 H3917 0.929 . S
C3926 C3918 1.378 . S
C3926 C3921 1.350 . S
C3927 H3914 0.929 . S
C3927 C3919 1.433 . S
C3927 N3929 1.384 . S
N3928 C3924 1.427 . S
N3928 C3925 1.384 1_655 S
N3929 C3921 1.427 . S
N3929 C3927 1.384 . S
H3930 C3936 0.930 . S
H3931 C3940 0.930 . S
H3932 C3945 0.929 . S
H3933 C3943 0.929 . S
H3934 C3938 0.929 . S
H3935 C3944 0.929 . S
C3936 H3930 0.930 . S
C3936 C3937 1.367 . S
C3936 C3944 1.378 . S
C3937 C3936 1.367 . S
C3937 C3945 1.433 . S
C3938 H3934 0.929 . S
C3938 C3940 1.378 . S
C3938 C3942 1.350 . S
C3939 C3942 1.463 . S
C3939 C3944 1.350 . S
C3939 N3947 1.427 . S
C3940 H3931 0.930 . S
C3940 C3938 1.378 . S
C3940 C3941 1.367 . S
C3941 C3940 1.367 . S
C3941 C3943 1.433 . S
C3942 C3938 1.350 . S
C3942 C3939 1.463 . S
C3942 N3946 1.427 . S
C3943 H3933 0.929 . S
C3943 C3941 1.433 . S
C3943 N3946 1.384 . S
C3944 H3935 0.929 . S
C3944 C3936 1.378 . S
C3944 C3939 1.350 . S
C3945 H3932 0.929 . S
C3945 C3937 1.433 . S
C3945 N3947 1.384 . S
N3946 C3942 1.427 . S
N3946 C3943 1.384 . S
N3947 C3939 1.427 . S
N3947 C3945 1.384 . S
H3948 C3954 0.930 . S
H3949 C3958 0.930 . S
H3950 C3963 0.929 . S
H3951 C3961 0.929 . S
H3952 C3956 0.929 . S
H3953 C3962 0.929 . S
C3954 H3948 0.930 . S
C3954 C3955 1.367 . S
C3954 C3962 1.378 . S
C3955 C3954 1.367 . S
C3955 C3963 1.433 . S
C3956 H3952 0.929 . S
C3956 C3958 1.378 . S
C3956 C3960 1.350 . S
C3957 C3960 1.463 . S
C3957 C3962 1.350 . S
C3957 N3965 1.427 . S
C3958 H3949 0.930 . S
C3958 C3956 1.378 . S
C3958 C3959 1.367 . S
C3959 C3958 1.367 . S
C3959 C3961 1.433 . S
C3960 C3956 1.350 . S
C3960 C3957 1.463 . S
C3960 N3964 1.427 . S
C3961 H3951 0.929 . S
C3961 C3959 1.433 . S
C3961 N3964 1.384 . S
C3962 H3953 0.929 . S
C3962 C3954 1.378 . S
C3962 C3957 1.350 . S
C3963 H3950 0.929 . S
C3963 C3955 1.433 . S
C3963 N3965 1.384 . S
N3964 C3960 1.427 . S
N3964 C3961 1.384 . S
N3965 C3957 1.427 . S
N3965 C3963 1.384 . S
H3966 C3972 0.930 . S
H3967 C3976 0.919 1_556 S
H3968 C3981 0.929 . S
H3969 C3979 0.929 . S
H3970 C3974 0.929 . S
H3971 C3980 0.929 . S
C3972 H3966 0.930 . S
C3972 C3973 1.367 . S
C3972 C3980 1.378 . S
C3973 C3972 1.367 . S
C3973 C3981 1.433 . S
C3974 H3970 0.929 . S
C3974 C3976 1.378 1_556 S
C3974 C3978 1.350 . S
C3975 C3978 1.463 . S
C3975 C3980 1.350 . S
C3975 N3983 1.427 . S
C3976 H3967 0.919 1_554 S
C3976 C3974 1.378 1_554 S
C3976 C3977 1.367 . S
C3977 C3976 1.367 . S
C3977 C3979 1.433 . S
C3978 C3974 1.350 . S
C3978 C3975 1.463 . S
C3978 N3982 1.427 1_556 S
C3979 H3969 0.929 . S
C3979 C3977 1.433 . S
C3979 N3982 1.384 . S
C3980 H3971 0.929 . S
C3980 C3972 1.378 . S
C3980 C3975 1.350 . S
C3981 H3968 0.929 . S
C3981 C3973 1.433 . S
C3981 N3983 1.384 . S
N3982 C3978 1.427 1_554 S
N3982 C3979 1.384 . S
N3983 C3975 1.427 . S
N3983 C3981 1.384 . S
H3984 C3990 0.930 . S
H3985 C3994 0.930 . S
H3986 C3999 0.929 . S
H3987 C3997 0.929 . S
H3988 C3992 0.929 . S
H3989 C3998 0.935 . S
C3990 H3984 0.930 . S
C3990 C3991 1.367 . S
C3990 C3998 1.378 . S
C3991 C3990 1.367 . S
C3991 C3999 1.433 . S
C3992 H3988 0.929 . S
C3992 C3994 1.378 . S
C3992 C3996 1.350 . S
C3993 C3996 1.463 . S
C3993 C3998 1.350 1_565 S
C3993 N4001 1.427 . S
C3994 H3985 0.930 . S
C3994 C3992 1.378 . S
C3994 C3995 1.367 . S
C3995 C3994 1.367 . S
C3995 C3997 1.433 . S
C3996 C3992 1.350 . S
C3996 C3993 1.463 . S
C3996 N4000 1.427 . S
C3997 H3987 0.929 . S
C3997 C3995 1.433 . S
C3997 N4000 1.384 . S
C3998 H3989 0.935 . S
C3998 C3990 1.378 . S
C3998 C3993 1.350 1_545 S
C3999 H3986 0.929 . S
C3999 C3991 1.433 . S
C3999 N4001 1.384 1_545 S
N4000 C3996 1.427 . S
N4000 C3997 1.384 . S
N4001 C3993 1.427 . S
N4001 C3999 1.384 1_565 S
H4002 C4008 0.930 . S
H4003 C4012 0.930 . S
H4004 C4017 0.929 . S
H4005 C4015 0.929 . S
H4006 C4010 0.926 . S
H4007 C4016 0.929 . S
C4008 H4002 0.930 . S
C4008 C4009 1.367 . S
C4008 C4016 1.378 . S
C4009 C4008 1.367 . S
C4009 C4017 1.433 . S
C4010 H4006 0.926 . S
C4010 C4012 1.383 1_545 S
C4010 C4014 1.347 . S
C4011 C4014 1.463 . S
C4011 C4016 1.350 . S
C4011 N4019 1.427 . S
C4012 H4003 0.930 . S
C4012 C4010 1.383 1_565 S
C4012 C4013 1.367 . S
C4013 C4012 1.367 . S
C4013 C4015 1.433 . S
C4014 C4010 1.347 . S
C4014 C4011 1.463 . S
C4014 N4018 1.438 . S
C4015 H4005 0.929 . S
C4015 C4013 1.433 . S
C4015 N4018 1.361 1_565 S
C4016 H4007 0.929 . S
C4016 C4008 1.378 . S
C4016 C4011 1.350 . S
C4017 H4004 0.929 . S
C4017 C4009 1.433 . S
C4017 N4019 1.384 . S
N4018 C4014 1.438 . S
N4018 C4015 1.361 1_545 S
N4019 C4011 1.427 . S
N4019 C4017 1.384 . S
H4020 C4026 0.930 . S
H4021 C4030 0.930 . S
H4022 C4035 0.929 . S
H4023 C4033 0.929 . S
H4024 C4028 0.929 . S
H4025 C4034 0.932 . S
C4026 H4020 0.930 . S
C4026 C4027 1.367 . S
C4026 C4034 1.370 1_565 S
C4027 C4026 1.367 . S
C4027 C4035 1.433 . S
C4028 H4024 0.929 . S
C4028 C4030 1.378 . S
C4028 C4032 1.350 . S
C4029 C4032 1.463 . S
C4029 C4034 1.354 . S
C4029 N4037 1.432 . S
C4030 H4021 0.930 . S
C4030 C4028 1.378 . S
C4030 C4031 1.367 . S
C4031 C4030 1.367 . S
C4031 C4033 1.433 . S
C4032 C4028 1.350 . S
C4032 C4029 1.463 . S
C4032 N4036 1.427 . S
C4033 H4023 0.929 . S
C4033 C4031 1.433 . S
C4033 N4036 1.384 . S
C4034 H4025 0.932 . S
C4034 C4026 1.370 1_545 S
C4034 C4029 1.354 . S
C4035 H4022 0.929 . S
C4035 C4027 1.433 . S
C4035 N4037 1.374 1_565 S
N4036 C4032 1.427 . S
N4036 C4033 1.384 . S
N4037 C4029 1.432 . S
N4037 C4035 1.374 1_545 S
H4038 C4044 0.930 . S
H4039 C4048 0.930 . S
H4040 C4053 0.929 1_565 S
H4041 C4051 0.929 . S
H4042 C4046 0.929 . S
H4043 C4052 0.929 . S
C4044 H4038 0.930 . S
C4044 C4045 1.367 . S
C4044 C4052 1.378 . S
C4045 C4044 1.367 . S
C4045 C4053 1.433 . S
C4046 H4042 0.929 . S
C4046 C4048 1.378 . S
C4046 C4050 1.350 . S
C4047 C4050 1.463 . S
C4047 C4052 1.350 1_565 S
C4047 N4055 1.427 . S
C4048 H4039 0.930 . S
C4048 C4046 1.378 . S
C4048 C4049 1.367 . S
C4049 C4048 1.367 . S
C4049 C4051 1.433 . S
C4050 C4046 1.350 . S
C4050 C4047 1.463 . S
C4050 N4054 1.427 . S
C4051 H4041 0.929 . S
C4051 C4049 1.433 . S
C4051 N4054 1.384 . S
C4052 H4043 0.929 . S
C4052 C4044 1.378 . S
C4052 C4047 1.350 1_545 S
C4053 H4040 0.929 1_545 S
C4053 C4045 1.433 . S
C4053 N4055 1.384 1_545 S
N4054 C4050 1.427 . S
N4054 C4051 1.384 . S
N4055 C4047 1.427 . S
N4055 C4053 1.384 1_565 S
H4056 C4062 0.930 . S
H4057 C4066 0.930 . S
H4058 C4071 0.929 . S
H4059 C4069 0.927 1_554 S
H4060 C4064 0.929 . S
H4061 C4070 0.929 . S
C4062 H4056 0.930 . S
C4062 C4063 1.367 . S
C4062 C4070 1.378 . S
C4063 C4062 1.367 . S
C4063 C4071 1.433 . S
C4064 H4060 0.929 . S
C4064 C4066 1.378 . S
C4064 C4068 1.350 1_556 S
C4065 C4068 1.463 . S
C4065 C4070 1.350 . S
C4065 N4073 1.427 . S
C4066 H4057 0.930 . S
C4066 C4064 1.378 . S
C4066 C4067 1.367 . S
C4067 C4066 1.367 . S
C4067 C4069 1.433 . S
C4068 C4064 1.350 1_554 S
C4068 C4065 1.463 . S
C4068 N4072 1.427 . S
C4069 H4059 0.927 1_556 S
C4069 C4067 1.433 . S
C4069 N4072 1.384 1_556 S
C4070 H4061 0.929 . S
C4070 C4062 1.378 . S
C4070 C4065 1.350 . S
C4071 H4058 0.929 . S
C4071 C4063 1.433 . S
C4071 N4073 1.384 . S
N4072 C4068 1.427 . S
N4072 C4069 1.384 1_554 S
N4073 C4065 1.427 . S
N4073 C4071 1.384 . S
H4074 C4080 0.930 . S
H4075 C4084 0.930 . S
H4076 C4089 0.929 . S
H4077 C4087 0.929 . S
H4078 C4082 0.957 . S
H4079 C4088 0.929 . S
C4080 H4074 0.930 . S
C4080 C4081 1.367 . S
C4080 C4088 1.378 . S
C4081 C4080 1.367 . S
C4081 C4089 1.433 . S
C4082 H4078 0.957 . S
C4082 C4084 1.331 1_455 S
C4082 C4086 1.372 . S
C4083 C4086 1.463 . S
C4083 C4088 1.350 . S
C4083 N4091 1.427 . S
C4084 H4075 0.930 . S
C4084 C4082 1.331 1_655 S
C4084 C4085 1.367 . S
C4085 C4084 1.367 . S
C4085 C4087 1.433 . S
C4086 C4082 1.372 . S
C4086 C4083 1.463 . S
C4086 N4090 1.417 1_455 S
C4087 H4077 0.929 . S
C4087 C4085 1.433 . S
C4087 N4090 1.404 . S
C4088 H4079 0.929 . S
C4088 C4080 1.378 . S
C4088 C4083 1.350 . S
C4089 H4076 0.929 . S
C4089 C4081 1.433 . S
C4089 N4091 1.384 . S
N4090 C4086 1.417 1_655 S
N4090 C4087 1.404 . S
N4091 C4083 1.427 . S
N4091 C4089 1.384 . S
H4092 C4098 0.930 . S
H4093 C4102 0.930 . S
H4094 C4107 0.929 . S
H4095 C4105 0.929 . S
H4096 C4100 0.929 . S
H4097 C4106 0.929 . S
C4098 H4092 0.930 . S
C4098 C4099 1.367 . S
C4098 C4106 1.378 . S
C4099 C4098 1.367 . S
C4099 C4107 1.433 . S
C4100 H4096 0.929 . S
C4100 C4102 1.378 . S
C4100 C4104 1.350 . S
C4101 C4104 1.463 . S
C4101 C4106 1.350 . S
C4101 N4109 1.427 . S
C4102 H4093 0.930 . S
C4102 C4100 1.378 . S
C4102 C4103 1.367 . S
C4103 C4102 1.367 . S
C4103 C4105 1.433 . S
C4104 C4100 1.350 . S
C4104 C4101 1.463 . S
C4104 N4108 1.427 . S
C4105 H4095 0.929 . S
C4105 C4103 1.433 . S
C4105 N4108 1.384 . S
C4106 H4097 0.929 . S
C4106 C4098 1.378 . S
C4106 C4101 1.350 . S
C4107 H4094 0.929 . S
C4107 C4099 1.433 . S
C4107 N4109 1.384 . S
N4108 C4104 1.427 . S
N4108 C4105 1.384 . S
N4109 C4101 1.427 . S
N4109 C4107 1.384 . S
H4110 C4116 0.930 . S
H4111 C4120 0.930 . S
H4112 C4125 0.929 . S
H4113 C4123 0.929 . S
H4114 C4118 0.929 . S
H4115 C4124 0.929 . S
C4116 H4110 0.930 . S
C4116 C4117 1.367 . S
C4116 C4124 1.378 1_655 S
C4117 C4116 1.367 . S
C4117 C4125 1.433 . S
C4118 H4114 0.929 . S
C4118 C4120 1.378 . S
C4118 C4122 1.350 . S
C4119 C4122 1.463 . S
C4119 C4124 1.350 . S
C4119 N4127 1.427 1_455 S
C4120 H4111 0.930 . S
C4120 C4118 1.378 . S
C4120 C4121 1.367 . S
C4121 C4120 1.367 . S
C4121 C4123 1.433 . S
C4122 C4118 1.350 . S
C4122 C4119 1.463 . S
C4122 N4126 1.427 . S
C4123 H4113 0.929 . S
C4123 C4121 1.433 . S
C4123 N4126 1.384 . S
C4124 H4115 0.929 . S
C4124 C4116 1.378 1_455 S
C4124 C4119 1.350 . S
C4125 H4112 0.929 . S
C4125 C4117 1.433 . S
C4125 N4127 1.384 . S
N4126 C4122 1.427 . S
N4126 C4123 1.384 . S
N4127 C4119 1.427 1_655 S
N4127 C4125 1.384 . S
H4128 C4134 0.930 . S
H4129 C4138 0.930 . S
H4130 C4143 0.929 . S
H4131 C4141 0.929 . S
H4132 C4136 0.929 . S
H4133 C4142 0.929 . S
C4134 H4128 0.930 . S
C4134 C4135 1.367 . S
C4134 C4142 1.378 . S
C4135 C4134 1.367 . S
C4135 C4143 1.433 . S
C4136 H4132 0.929 . S
C4136 C4138 1.378 . S
C4136 C4140 1.350 . S
C4137 C4140 1.463 . S
C4137 C4142 1.350 . S
C4137 N4145 1.427 . S
C4138 H4129 0.930 . S
C4138 C4136 1.378 . S
C4138 C4139 1.367 . S
C4139 C4138 1.367 . S
C4139 C4141 1.433 . S
C4140 C4136 1.350 . S
C4140 C4137 1.463 . S
C4140 N4144 1.427 . S
C4141 H4131 0.929 . S
C4141 C4139 1.433 . S
C4141 N4144 1.384 . S
C4142 H4133 0.929 . S
C4142 C4134 1.378 . S
C4142 C4137 1.350 . S
C4143 H4130 0.929 . S
C4143 C4135 1.433 . S
C4143 N4145 1.384 . S
N4144 C4140 1.427 . S
N4144 C4141 1.384 . S
N4145 C4137 1.427 . S
N4145 C4143 1.384 . S
H4146 C4152 0.930 . S
H4147 C4156 0.930 . S
H4148 C4161 0.929 . S
H4149 C4159 0.929 . S
H4150 C4154 0.929 . S
H4151 C4160 0.929 . S
C4152 H4146 0.930 . S
C4152 C4153 1.367 . S
C4152 C4160 1.378 1_655 S
C4153 C4152 1.367 . S
C4153 C4161 1.433 . S
C4154 H4150 0.929 . S
C4154 C4156 1.378 . S
C4154 C4158 1.350 . S
C4155 C4158 1.463 . S
C4155 C4160 1.350 . S
C4155 N4163 1.427 1_455 S
C4156 H4147 0.930 . S
C4156 C4154 1.378 . S
C4156 C4157 1.367 . S
C4157 C4156 1.367 . S
C4157 C4159 1.433 . S
C4158 C4154 1.350 . S
C4158 C4155 1.463 . S
C4158 N4162 1.427 . S
C4159 H4149 0.929 . S
C4159 C4157 1.433 . S
C4159 N4162 1.384 . S
C4160 H4151 0.929 . S
C4160 C4152 1.378 1_455 S
C4160 C4155 1.350 . S
C4161 H4148 0.929 . S
C4161 C4153 1.433 . S
C4161 N4163 1.384 . S
N4162 C4158 1.427 . S
N4162 C4159 1.384 . S
N4163 C4155 1.427 1_655 S
N4163 C4161 1.384 . S
H4164 C4170 0.930 . S
H4165 C4174 0.930 . S
H4166 C4179 0.929 . S
H4167 C4177 0.929 . S
H4168 C4172 0.929 . S
H4169 C4178 0.929 . S
C4170 H4164 0.930 . S
C4170 C4171 1.367 . S
C4170 C4178 1.378 . S
C4171 C4170 1.367 . S
C4171 C4179 1.433 . S
C4172 H4168 0.929 . S
C4172 C4174 1.378 . S
C4172 C4176 1.350 . S
C4173 C4176 1.463 . S
C4173 C4178 1.350 . S
C4173 N4181 1.427 . S
C4174 H4165 0.930 . S
C4174 C4172 1.378 . S
C4174 C4175 1.367 . S
C4175 C4174 1.367 . S
C4175 C4177 1.433 . S
C4176 C4172 1.350 . S
C4176 C4173 1.463 . S
C4176 N4180 1.427 . S
C4177 H4167 0.929 . S
C4177 C4175 1.433 . S
C4177 N4180 1.384 . S
C4178 H4169 0.929 . S
C4178 C4170 1.378 . S
C4178 C4173 1.350 . S
C4179 H4166 0.929 . S
C4179 C4171 1.433 . S
C4179 N4181 1.384 . S
N4180 C4176 1.427 . S
N4180 C4177 1.384 . S
N4181 C4173 1.427 . S
N4181 C4179 1.384 . S
H4182 C4188 0.930 . S
H4183 C4192 0.930 . S
H4184 C4197 0.929 . S
H4185 C4195 0.929 . S
H4186 C4190 0.929 . S
H4187 C4196 0.929 . S
C4188 H4182 0.930 . S
C4188 C4189 1.367 . S
C4188 C4196 1.378 . S
C4189 C4188 1.367 . S
C4189 C4197 1.433 . S
C4190 H4186 0.929 . S
C4190 C4192 1.378 . S
C4190 C4194 1.350 . S
C4191 C4194 1.463 . S
C4191 C4196 1.350 . S
C4191 N4199 1.427 . S
C4192 H4183 0.930 . S
C4192 C4190 1.378 . S
C4192 C4193 1.367 . S
C4193 C4192 1.367 . S
C4193 C4195 1.433 . S
C4194 C4190 1.350 . S
C4194 C4191 1.463 . S
C4194 N4198 1.427 . S
C4195 H4185 0.929 . S
C4195 C4193 1.433 . S
C4195 N4198 1.384 . S
C4196 H4187 0.929 . S
C4196 C4188 1.378 . S
C4196 C4191 1.350 . S
C4197 H4184 0.929 . S
C4197 C4189 1.433 . S
C4197 N4199 1.384 . S
N4198 C4194 1.427 . S
N4198 C4195 1.384 . S
N4199 C4191 1.427 . S
N4199 C4197 1.384 . S
H4200 C4206 0.943 . S
H4201 C4210 0.930 . S
H4202 C4215 0.929 . S
H4203 C4213 0.929 . S
H4204 C4208 0.929 . S
H4205 C4214 0.929 . S
C4206 H4200 0.943 . S
C4206 C4207 1.367 . S
C4206 C4214 1.378 1_554 S
C4207 C4206 1.367 . S
C4207 C4215 1.433 . S
C4208 H4204 0.929 . S
C4208 C4210 1.378 . S
C4208 C4212 1.350 . S
C4209 C4212 1.463 . S
C4209 C4214 1.350 . S
C4209 N4217 1.427 1_556 S
C4210 H4201 0.930 . S
C4210 C4208 1.378 . S
C4210 C4211 1.367 . S
C4211 C4210 1.367 . S
C4211 C4213 1.433 . S
C4212 C4208 1.350 . S
C4212 C4209 1.463 . S
C4212 N4216 1.427 . S
C4213 H4203 0.929 . S
C4213 C4211 1.433 . S
C4213 N4216 1.384 . S
C4214 H4205 0.929 . S
C4214 C4206 1.378 1_556 S
C4214 C4209 1.350 . S
C4215 H4202 0.929 . S
C4215 C4207 1.433 . S
C4215 N4217 1.384 . S
N4216 C4212 1.427 . S
N4216 C4213 1.384 . S
N4217 C4209 1.427 1_554 S
N4217 C4215 1.384 . S
H4218 C4224 0.930 . S
H4219 C4228 0.930 . S
H4220 C4233 0.929 . S
H4221 C4231 0.929 . S
H4222 C4226 0.929 . S
H4223 C4232 0.929 . S
C4224 H4218 0.930 . S
C4224 C4225 1.367 . S
C4224 C4232 1.378 . S
C4225 C4224 1.367 . S
C4225 C4233 1.433 . S
C4226 H4222 0.929 . S
C4226 C4228 1.378 . S
C4226 C4230 1.350 . S
C4227 C4230 1.463 . S
C4227 C4232 1.350 1_455 S
C4227 N4235 1.427 . S
C4228 H4219 0.930 . S
C4228 C4226 1.378 . S
C4228 C4229 1.367 . S
C4229 C4228 1.367 . S
C4229 C4231 1.433 . S
C4230 C4226 1.350 . S
C4230 C4227 1.463 . S
C4230 N4234 1.427 . S
C4231 H4221 0.929 . S
C4231 C4229 1.433 . S
C4231 N4234 1.384 . S
C4232 H4223 0.929 . S
C4232 C4224 1.378 . S
C4232 C4227 1.350 1_655 S
C4233 H4220 0.929 . S
C4233 C4225 1.433 . S
C4233 N4235 1.384 1_655 S
N4234 C4230 1.427 . S
N4234 C4231 1.384 . S
N4235 C4227 1.427 . S
N4235 C4233 1.384 1_455 S
H4236 C4242 0.930 . S
H4237 C4246 0.930 . S
H4238 C4251 0.929 . S
H4239 C4249 0.929 . S
H4240 C4244 0.929 . S
H4241 C4250 0.929 . S
C4242 H4236 0.930 . S
C4242 C4243 1.367 . S
C4242 C4250 1.378 . S
C4243 C4242 1.367 . S
C4243 C4251 1.433 . S
C4244 H4240 0.929 . S
C4244 C4246 1.378 . S
C4244 C4248 1.350 . S
C4245 C4248 1.463 . S
C4245 C4250 1.350 . S
C4245 N4253 1.427 . S
C4246 H4237 0.930 . S
C4246 C4244 1.378 . S
C4246 C4247 1.367 . S
C4247 C4246 1.367 . S
C4247 C4249 1.433 . S
C4248 C4244 1.350 . S
C4248 C4245 1.463 . S
C4248 N4252 1.427 . S
C4249 H4239 0.929 . S
C4249 C4247 1.433 . S
C4249 N4252 1.384 . S
C4250 H4241 0.929 . S
C4250 C4242 1.378 . S
C4250 C4245 1.350 . S
C4251 H4238 0.929 . S
C4251 C4243 1.433 . S
C4251 N4253 1.384 . S
N4252 C4248 1.427 . S
N4252 C4249 1.384 . S
N4253 C4245 1.427 . S
N4253 C4251 1.384 . S
H4254 C4260 0.930 . S
H4255 C4264 0.930 . S
H4256 C4269 0.929 . S
H4257 C4267 0.929 . S
H4258 C4262 0.929 . S
H4259 C4268 0.929 . S
C4260 H4254 0.930 . S
C4260 C4261 1.367 . S
C4260 C4268 1.378 . S
C4261 C4260 1.367 . S
C4261 C4269 1.433 . S
C4262 H4258 0.929 . S
C4262 C4264 1.378 . S
C4262 C4266 1.350 . S
C4263 C4266 1.463 . S
C4263 C4268 1.350 . S
C4263 N4271 1.427 . S
C4264 H4255 0.930 . S
C4264 C4262 1.378 . S
C4264 C4265 1.367 . S
C4265 C4264 1.367 . S
C4265 C4267 1.433 . S
C4266 C4262 1.350 . S
C4266 C4263 1.463 . S
C4266 N4270 1.427 . S
C4267 H4257 0.929 . S
C4267 C4265 1.433 . S
C4267 N4270 1.384 . S
C4268 H4259 0.929 . S
C4268 C4260 1.378 . S
C4268 C4263 1.350 . S
C4269 H4256 0.929 . S
C4269 C4261 1.433 . S
C4269 N4271 1.384 . S
N4270 C4266 1.427 . S
N4270 C4267 1.384 . S
N4271 C4263 1.427 . S
N4271 C4269 1.384 . S
H4272 C4278 0.930 . S
H4273 C4282 0.930 1_554 S
H4274 C4287 0.929 . S
H4275 C4285 0.929 . S
H4276 C4280 0.929 . S
H4277 C4286 0.929 . S
C4278 H4272 0.930 . S
C4278 C4279 1.367 . S
C4278 C4286 1.378 . S
C4279 C4278 1.367 . S
C4279 C4287 1.433 . S
C4280 H4276 0.929 . S
C4280 C4282 1.378 1_554 S
C4280 C4284 1.350 . S
C4281 C4284 1.463 . S
C4281 C4286 1.350 . S
C4281 N4289 1.427 . S
C4282 H4273 0.930 1_556 S
C4282 C4280 1.378 1_556 S
C4282 C4283 1.367 . S
C4283 C4282 1.367 . S
C4283 C4285 1.433 . S
C4284 C4280 1.350 . S
C4284 C4281 1.463 . S
C4284 N4288 1.427 1_554 S
C4285 H4275 0.929 . S
C4285 C4283 1.433 . S
C4285 N4288 1.384 . S
C4286 H4277 0.929 . S
C4286 C4278 1.378 . S
C4286 C4281 1.350 . S
C4287 H4274 0.929 . S
C4287 C4279 1.433 . S
C4287 N4289 1.384 . S
N4288 C4284 1.427 1_556 S
N4288 C4285 1.384 . S
N4289 C4281 1.427 . S
N4289 C4287 1.384 . S
H4290 C4296 0.930 . S
H4291 C4300 0.930 . S
H4292 C4305 0.929 . S
H4293 C4303 0.929 . S
H4294 C4298 0.929 . S
H4295 C4304 0.929 . S
C4296 H4290 0.930 . S
C4296 C4297 1.367 . S
C4296 C4304 1.378 . S
C4297 C4296 1.367 . S
C4297 C4305 1.433 . S
C4298 H4294 0.929 . S
C4298 C4300 1.378 . S
C4298 C4302 1.350 . S
C4299 C4302 1.463 . S
C4299 C4304 1.350 1_545 S
C4299 N4307 1.427 . S
C4300 H4291 0.930 . S
C4300 C4298 1.378 . S
C4300 C4301 1.367 . S
C4301 C4300 1.367 . S
C4301 C4303 1.433 . S
C4302 C4298 1.350 . S
C4302 C4299 1.463 . S
C4302 N4306 1.427 . S
C4303 H4293 0.929 . S
C4303 C4301 1.433 . S
C4303 N4306 1.384 . S
C4304 H4295 0.929 . S
C4304 C4296 1.378 . S
C4304 C4299 1.350 1_565 S
C4305 H4292 0.929 . S
C4305 C4297 1.433 . S
C4305 N4307 1.384 1_565 S
N4306 C4302 1.427 . S
N4306 C4303 1.384 . S
N4307 C4299 1.427 . S
N4307 C4305 1.384 1_545 S
H4308 C4314 0.930 . S
H4309 C4318 0.930 . S
H4310 C4323 0.929 . S
H4311 C4321 0.929 . S
H4312 C4316 0.929 . S
H4313 C4322 0.929 . S
C4314 H4308 0.930 . S
C4314 C4315 1.367 . S
C4314 C4322 1.378 . S
C4315 C4314 1.367 . S
C4315 C4323 1.433 . S
C4316 H4312 0.929 . S
C4316 C4318 1.378 1_565 S
C4316 C4320 1.350 . S
C4317 C4320 1.463 . S
C4317 C4322 1.350 . S
C4317 N4325 1.427 . S
C4318 H4309 0.930 . S
C4318 C4316 1.378 1_545 S
C4318 C4319 1.367 . S
C4319 C4318 1.367 . S
C4319 C4321 1.433 . S
C4320 C4316 1.350 . S
C4320 C4317 1.463 . S
C4320 N4324 1.427 1_565 S
C4321 H4311 0.929 . S
C4321 C4319 1.433 . S
C4321 N4324 1.384 . S
C4322 H4313 0.929 . S
C4322 C4314 1.378 . S
C4322 C4317 1.350 . S
C4323 H4310 0.929 . S
C4323 C4315 1.433 . S
C4323 N4325 1.384 . S
N4324 C4320 1.427 1_545 S
N4324 C4321 1.384 . S
N4325 C4317 1.427 . S
N4325 C4323 1.384 . S
H4326 C4332 0.930 . S
H4327 C4336 0.930 . S
H4328 C4341 0.929 . S
H4329 C4339 0.929 . S
H4330 C4334 0.929 . S
H4331 C4340 0.929 . S
C4332 H4326 0.930 . S
C4332 C4333 1.367 . S
C4332 C4340 1.378 . S
C4333 C4332 1.367 . S
C4333 C4341 1.433 . S
C4334 H4330 0.929 . S
C4334 C4336 1.378 1_565 S
C4334 C4338 1.350 . S
C4335 C4338 1.463 . S
C4335 C4340 1.350 . S
C4335 N4343 1.427 . S
C4336 H4327 0.930 . S
C4336 C4334 1.378 1_545 S
C4336 C4337 1.367 . S
C4337 C4336 1.367 . S
C4337 C4339 1.433 . S
C4338 C4334 1.350 . S
C4338 C4335 1.463 . S
C4338 N4342 1.427 1_565 S
C4339 H4329 0.929 . S
C4339 C4337 1.433 . S
C4339 N4342 1.384 . S
C4340 H4331 0.929 . S
C4340 C4332 1.378 . S
C4340 C4335 1.350 . S
C4341 H4328 0.929 . S
C4341 C4333 1.433 . S
C4341 N4343 1.384 . S
N4342 C4338 1.427 1_545 S
N4342 C4339 1.384 . S
N4343 C4335 1.427 . S
N4343 C4341 1.384 . S
H4344 C4350 0.930 . S
H4345 C4354 0.930 . S
H4346 C4359 0.929 . S
H4347 C4357 0.929 . S
H4348 C4352 0.929 . S
H4349 C4358 0.929 . S
C4350 H4344 0.930 . S
C4350 C4351 1.367 . S
C4350 C4358 1.378 . S
C4351 C4350 1.367 . S
C4351 C4359 1.433 . S
C4352 H4348 0.929 . S
C4352 C4354 1.378 . S
C4352 C4356 1.350 1_565 S
C4353 C4356 1.463 . S
C4353 C4358 1.350 . S
C4353 N4361 1.427 . S
C4354 H4345 0.930 . S
C4354 C4352 1.378 . S
C4354 C4355 1.367 . S
C4355 C4354 1.367 . S
C4355 C4357 1.433 . S
C4356 C4352 1.350 1_545 S
C4356 C4353 1.463 . S
C4356 N4360 1.427 . S
C4357 H4347 0.929 . S
C4357 C4355 1.433 . S
C4357 N4360 1.384 1_565 S
C4358 H4349 0.929 . S
C4358 C4350 1.378 . S
C4358 C4353 1.350 . S
C4359 H4346 0.929 . S
C4359 C4351 1.433 . S
C4359 N4361 1.384 . S
N4360 C4356 1.427 . S
N4360 C4357 1.384 1_545 S
N4361 C4353 1.427 . S
N4361 C4359 1.384 . S
H4362 C4368 0.930 . S
H4363 C4372 0.930 . S
H4364 C4377 0.929 . S
H4365 C4375 0.929 . S
H4366 C4370 0.929 . S
H4367 C4376 0.929 . S
C4368 H4362 0.930 . S
C4368 C4369 1.367 . S
C4368 C4376 1.378 . S
C4369 C4368 1.367 . S
C4369 C4377 1.433 . S
C4370 H4366 0.929 . S
C4370 C4372 1.378 1_556 S
C4370 C4374 1.350 . S
C4371 C4374 1.463 . S
C4371 C4376 1.350 . S
C4371 N4379 1.427 . S
C4372 H4363 0.930 . S
C4372 C4370 1.378 1_554 S
C4372 C4373 1.367 . S
C4373 C4372 1.367 . S
C4373 C4375 1.433 . S
C4374 C4370 1.350 . S
C4374 C4371 1.463 . S
C4374 N4378 1.427 1_556 S
C4375 H4365 0.929 . S
C4375 C4373 1.433 . S
C4375 N4378 1.384 . S
C4376 H4367 0.929 . S
C4376 C4368 1.378 . S
C4376 C4371 1.350 . S
C4377 H4364 0.929 . S
C4377 C4369 1.433 . S
C4377 N4379 1.384 . S
N4378 C4374 1.427 1_554 S
N4378 C4375 1.384 . S
N4379 C4371 1.427 . S
N4379 C4377 1.384 . S
H4380 C4386 0.930 . S
H4381 C4390 0.930 . S
H4382 C4395 0.929 . S
H4383 C4393 0.929 . S
H4384 C4388 0.929 . S
H4385 C4394 0.929 . S
C4386 H4380 0.930 . S
C4386 C4387 1.367 . S
C4386 C4394 1.378 . S
C4387 C4386 1.367 . S
C4387 C4395 1.433 . S
C4388 H4384 0.929 . S
C4388 C4390 1.378 1_655 S
C4388 C4392 1.350 . S
C4389 C4392 1.463 . S
C4389 C4394 1.350 . S
C4389 N4397 1.427 . S
C4390 H4381 0.930 . S
C4390 C4388 1.378 1_455 S
C4390 C4391 1.367 . S
C4391 C4390 1.367 . S
C4391 C4393 1.433 . S
C4392 C4388 1.350 . S
C4392 C4389 1.463 . S
C4392 N4396 1.427 1_655 S
C4393 H4383 0.929 . S
C4393 C4391 1.433 . S
C4393 N4396 1.384 . S
C4394 H4385 0.929 . S
C4394 C4386 1.378 . S
C4394 C4389 1.350 . S
C4395 H4382 0.929 . S
C4395 C4387 1.433 . S
C4395 N4397 1.384 . S
N4396 C4392 1.427 1_455 S
N4396 C4393 1.384 . S
N4397 C4389 1.427 . S
N4397 C4395 1.384 . S
H4398 C4404 0.930 . S
H4399 C4408 0.930 . S
H4400 C4413 0.929 . S
H4401 C4411 0.929 . S
H4402 C4406 0.929 . S
H4403 C4412 0.929 . S
C4404 H4398 0.930 . S
C4404 C4405 1.367 . S
C4404 C4412 1.378 . S
C4405 C4404 1.367 . S
C4405 C4413 1.433 . S
C4406 H4402 0.929 . S
C4406 C4408 1.378 . S
C4406 C4410 1.350 . S
C4407 C4410 1.463 . S
C4407 C4412 1.350 . S
C4407 N4415 1.427 . S
C4408 H4399 0.930 . S
C4408 C4406 1.378 . S
C4408 C4409 1.367 . S
C4409 C4408 1.367 . S
C4409 C4411 1.433 . S
C4410 C4406 1.350 . S
C4410 C4407 1.463 . S
C4410 N4414 1.427 . S
C4411 H4401 0.929 . S
C4411 C4409 1.433 . S
C4411 N4414 1.384 . S
C4412 H4403 0.929 . S
C4412 C4404 1.378 . S
C4412 C4407 1.350 . S
C4413 H4400 0.929 . S
C4413 C4405 1.433 . S
C4413 N4415 1.384 . S
N4414 C4410 1.427 . S
N4414 C4411 1.384 . S
N4415 C4407 1.427 . S
N4415 C4413 1.384 . S
H4416 C4422 0.930 . S
H4417 C4426 0.930 . S
H4418 C4431 0.929 . S
H4419 C4429 0.928 . S
H4420 C4424 0.929 . S
H4421 C4430 0.929 . S
C4422 H4416 0.930 . S
C4422 C4423 1.367 . S
C4422 C4430 1.378 . S
C4423 C4422 1.367 . S
C4423 C4431 1.433 . S
C4424 H4420 0.929 . S
C4424 C4426 1.378 . S
C4424 C4428 1.350 1_455 S
C4425 C4428 1.463 . S
C4425 C4430 1.350 . S
C4425 N4433 1.427 . S
C4426 H4417 0.930 . S
C4426 C4424 1.378 . S
C4426 C4427 1.367 . S
C4427 C4426 1.367 . S
C4427 C4429 1.433 . S
C4428 C4424 1.350 1_655 S
C4428 C4425 1.463 . S
C4428 N4432 1.427 . S
C4429 H4419 0.928 . S
C4429 C4427 1.433 . S
C4429 N4432 1.384 1_455 S
C4430 H4421 0.929 . S
C4430 C4422 1.378 . S
C4430 C4425 1.350 . S
C4431 H4418 0.929 . S
C4431 C4423 1.433 . S
C4431 N4433 1.384 . S
N4432 C4428 1.427 . S
N4432 C4429 1.384 1_655 S
N4433 C4425 1.427 . S
N4433 C4431 1.384 . S
H4434 C4440 0.930 . S
H4435 C4444 0.930 . S
H4436 C4449 0.929 . S
H4437 C4447 0.929 . S
H4438 C4442 0.929 . S
H4439 C4448 0.929 . S
C4440 H4434 0.930 . S
C4440 C4441 1.367 . S
C4440 C4448 1.378 . S
C4441 C4440 1.367 . S
C4441 C4449 1.433 . S
C4442 H4438 0.929 . S
C4442 C4444 1.378 . S
C4442 C4446 1.350 . S
C4443 C4446 1.463 . S
C4443 C4448 1.350 . S
C4443 N4451 1.427 . S
C4444 H4435 0.930 . S
C4444 C4442 1.378 . S
C4444 C4445 1.367 . S
C4445 C4444 1.367 . S
C4445 C4447 1.433 . S
C4446 C4442 1.350 . S
C4446 C4443 1.463 . S
C4446 N4450 1.427 . S
C4447 H4437 0.929 . S
C4447 C4445 1.433 . S
C4447 N4450 1.384 . S
C4448 H4439 0.929 . S
C4448 C4440 1.378 . S
C4448 C4443 1.350 . S
C4449 H4436 0.929 . S
C4449 C4441 1.433 . S
C4449 N4451 1.384 . S
N4450 C4446 1.427 . S
N4450 C4447 1.384 . S
N4451 C4443 1.427 . S
N4451 C4449 1.384 . S
H4452 C4458 0.930 . S
H4453 C4462 0.930 . S
H4454 C4467 0.929 . S
H4455 C4465 0.929 . S
H4456 C4460 0.929 . S
H4457 C4466 0.929 . S
C4458 H4452 0.930 . S
C4458 C4459 1.367 . S
C4458 C4466 1.378 . S
C4459 C4458 1.367 . S
C4459 C4467 1.433 . S
C4460 H4456 0.929 . S
C4460 C4462 1.378 . S
C4460 C4464 1.350 . S
C4461 C4464 1.463 . S
C4461 C4466 1.350 . S
C4461 N4469 1.427 . S
C4462 H4453 0.930 . S
C4462 C4460 1.378 . S
C4462 C4463 1.367 . S
C4463 C4462 1.367 . S
C4463 C4465 1.433 . S
C4464 C4460 1.350 . S
C4464 C4461 1.463 . S
C4464 N4468 1.427 . S
C4465 H4455 0.929 . S
C4465 C4463 1.433 . S
C4465 N4468 1.384 . S
C4466 H4457 0.929 . S
C4466 C4458 1.378 . S
C4466 C4461 1.350 . S
C4467 H4454 0.929 . S
C4467 C4459 1.433 . S
C4467 N4469 1.384 . S
N4468 C4464 1.427 . S
N4468 C4465 1.384 . S
N4469 C4461 1.427 . S
N4469 C4467 1.384 . S
H4470 C4476 0.930 . S
H4471 C4480 0.930 . S
H4472 C4485 0.929 . S
H4473 C4483 0.929 . S
H4474 C4478 0.929 . S
H4475 C4484 0.929 . S
C4476 H4470 0.930 . S
C4476 C4477 1.367 . S
C4476 C4484 1.378 . S
C4477 C4476 1.367 . S
C4477 C4485 1.433 . S
C4478 H4474 0.929 . S
C4478 C4480 1.378 . S
C4478 C4482 1.350 1_554 S
C4479 C4482 1.463 . S
C4479 C4484 1.350 . S
C4479 N4487 1.427 . S
C4480 H4471 0.930 . S
C4480 C4478 1.378 . S
C4480 C4481 1.367 . S
C4481 C4480 1.367 . S
C4481 C4483 1.433 . S
C4482 C4478 1.350 1_556 S
C4482 C4479 1.463 . S
C4482 N4486 1.427 . S
C4483 H4473 0.929 . S
C4483 C4481 1.433 . S
C4483 N4486 1.384 1_554 S
C4484 H4475 0.929 . S
C4484 C4476 1.378 . S
C4484 C4479 1.350 . S
C4485 H4472 0.929 . S
C4485 C4477 1.433 . S
C4485 N4487 1.384 . S
N4486 C4482 1.427 . S
N4486 C4483 1.384 1_556 S
N4487 C4479 1.427 . S
N4487 C4485 1.384 . S
H4488 C4494 0.930 . S
H4489 C4498 0.930 . S
H4490 C4503 0.929 . S
H4491 C4501 0.929 . S
H4492 C4496 0.929 . S
H4493 C4502 0.929 . S
C4494 H4488 0.930 . S
C4494 C4495 1.367 . S
C4494 C4502 1.378 . S
C4495 C4494 1.367 . S
C4495 C4503 1.433 . S
C4496 H4492 0.929 . S
C4496 C4498 1.378 . S
C4496 C4500 1.350 . S
C4497 C4500 1.463 . S
C4497 C4502 1.350 . S
C4497 N4505 1.427 . S
C4498 H4489 0.930 . S
C4498 C4496 1.378 . S
C4498 C4499 1.367 . S
C4499 C4498 1.367 . S
C4499 C4501 1.433 . S
C4500 C4496 1.350 . S
C4500 C4497 1.463 . S
C4500 N4504 1.427 . S
C4501 H4491 0.929 . S
C4501 C4499 1.433 . S
C4501 N4504 1.384 . S
C4502 H4493 0.929 . S
C4502 C4494 1.378 . S
C4502 C4497 1.350 . S
C4503 H4490 0.929 . S
C4503 C4495 1.433 . S
C4503 N4505 1.384 . S
N4504 C4500 1.427 . S
N4504 C4501 1.384 . S
N4505 C4497 1.427 . S
N4505 C4503 1.384 . S
H4506 C4512 0.930 . S
H4507 C4516 0.930 . S
H4508 C4521 0.929 . S
H4509 C4519 0.929 . S
H4510 C4514 0.929 . S
H4511 C4520 0.929 . S
C4512 H4506 0.930 . S
C4512 C4513 1.367 . S
C4512 C4520 1.378 . S
C4513 C4512 1.367 . S
C4513 C4521 1.433 . S
C4514 H4510 0.929 . S
C4514 C4516 1.378 . S
C4514 C4518 1.350 . S
C4515 C4518 1.463 . S
C4515 C4520 1.350 . S
C4515 N4523 1.427 . S
C4516 H4507 0.930 . S
C4516 C4514 1.378 . S
C4516 C4517 1.367 . S
C4517 C4516 1.367 . S
C4517 C4519 1.433 . S
C4518 C4514 1.350 . S
C4518 C4515 1.463 . S
C4518 N4522 1.427 . S
C4519 H4509 0.929 . S
C4519 C4517 1.433 . S
C4519 N4522 1.384 . S
C4520 H4511 0.929 . S
C4520 C4512 1.378 . S
C4520 C4515 1.350 . S
C4521 H4508 0.929 . S
C4521 C4513 1.433 . S
C4521 N4523 1.384 . S
N4522 C4518 1.427 . S
N4522 C4519 1.384 . S
N4523 C4515 1.427 . S
N4523 C4521 1.384 . S
H4524 C4530 0.930 . S
H4525 C4534 0.930 . S
H4526 C4539 0.929 . S
H4527 C4537 0.929 . S
H4528 C4532 0.929 . S
H4529 C4538 0.929 . S
C4530 H4524 0.930 . S
C4530 C4531 1.367 . S
C4530 C4538 1.378 . S
C4531 C4530 1.367 . S
C4531 C4539 1.433 . S
C4532 H4528 0.929 . S
C4532 C4534 1.378 . S
C4532 C4536 1.350 . S
C4533 C4536 1.463 . S
C4533 C4538 1.350 . S
C4533 N4541 1.427 . S
C4534 H4525 0.930 . S
C4534 C4532 1.378 . S
C4534 C4535 1.367 . S
C4535 C4534 1.367 . S
C4535 C4537 1.433 . S
C4536 C4532 1.350 . S
C4536 C4533 1.463 . S
C4536 N4540 1.427 . S
C4537 H4527 0.929 . S
C4537 C4535 1.433 . S
C4537 N4540 1.384 . S
C4538 H4529 0.929 . S
C4538 C4530 1.378 . S
C4538 C4533 1.350 . S
C4539 H4526 0.929 . S
C4539 C4531 1.433 . S
C4539 N4541 1.384 . S
N4540 C4536 1.427 . S
N4540 C4537 1.384 . S
N4541 C4533 1.427 . S
N4541 C4539 1.384 . S
H4542 C4548 0.930 . S
H4543 C4552 0.930 . S
H4544 C4557 0.929 . S
H4545 C4555 0.929 . S
H4546 C4550 0.929 . S
H4547 C4556 0.929 . S
C4548 H4542 0.930 . S
C4548 C4549 1.367 . S
C4548 C4556 1.378 . S
C4549 C4548 1.367 . S
C4549 C4557 1.433 . S
C4550 H4546 0.929 . S
C4550 C4552 1.378 . S
C4550 C4554 1.350 . S
C4551 C4554 1.463 . S
C4551 C4556 1.350 . S
C4551 N4559 1.427 . S
C4552 H4543 0.930 . S
C4552 C4550 1.378 . S
C4552 C4553 1.367 . S
C4553 C4552 1.367 . S
C4553 C4555 1.433 . S
C4554 C4550 1.350 . S
C4554 C4551 1.463 . S
C4554 N4558 1.427 . S
C4555 H4545 0.929 . S
C4555 C4553 1.433 . S
C4555 N4558 1.384 . S
C4556 H4547 0.929 . S
C4556 C4548 1.378 . S
C4556 C4551 1.350 . S
C4557 H4544 0.929 . S
C4557 C4549 1.433 . S
C4557 N4559 1.384 . S
N4558 C4554 1.427 . S
N4558 C4555 1.384 . S
N4559 C4551 1.427 . S
N4559 C4557 1.384 . S
H4560 C4566 0.930 . S
H4561 C4570 0.930 . S
H4562 C4575 0.929 . S
H4563 C4573 0.929 . S
H4564 C4568 0.929 . S
H4565 C4574 0.929 . S
C4566 H4560 0.930 . S
C4566 C4567 1.367 . S
C4566 C4574 1.378 . S
C4567 C4566 1.367 . S
C4567 C4575 1.433 . S
C4568 H4564 0.929 . S
C4568 C4570 1.378 . S
C4568 C4572 1.350 . S
C4569 C4572 1.463 . S
C4569 C4574 1.350 . S
C4569 N4577 1.427 . S
C4570 H4561 0.930 . S
C4570 C4568 1.378 . S
C4570 C4571 1.367 . S
C4571 C4570 1.367 . S
C4571 C4573 1.433 . S
C4572 C4568 1.350 . S
C4572 C4569 1.463 . S
C4572 N4576 1.427 . S
C4573 H4563 0.929 . S
C4573 C4571 1.433 . S
C4573 N4576 1.384 . S
C4574 H4565 0.929 . S
C4574 C4566 1.378 . S
C4574 C4569 1.350 . S
C4575 H4562 0.929 . S
C4575 C4567 1.433 . S
C4575 N4577 1.384 . S
N4576 C4572 1.427 . S
N4576 C4573 1.384 . S
N4577 C4569 1.427 . S
N4577 C4575 1.384 . S
H4578 C4584 0.930 . S
H4579 C4588 0.930 . S
H4580 C4593 0.929 . S
H4581 C4591 0.929 . S
H4582 C4586 0.929 . S
H4583 C4592 0.929 . S
C4584 H4578 0.930 . S
C4584 C4585 1.367 . S
C4584 C4592 1.378 . S
C4585 C4584 1.367 . S
C4585 C4593 1.433 . S
C4586 H4582 0.929 . S
C4586 C4588 1.378 . S
C4586 C4590 1.350 . S
C4587 C4590 1.463 . S
C4587 C4592 1.350 . S
C4587 N4595 1.427 . S
C4588 H4579 0.930 . S
C4588 C4586 1.378 . S
C4588 C4589 1.367 . S
C4589 C4588 1.367 . S
C4589 C4591 1.433 . S
C4590 C4586 1.350 . S
C4590 C4587 1.463 . S
C4590 N4594 1.427 . S
C4591 H4581 0.929 . S
C4591 C4589 1.433 . S
C4591 N4594 1.384 . S
C4592 H4583 0.929 . S
C4592 C4584 1.378 . S
C4592 C4587 1.350 . S
C4593 H4580 0.929 . S
C4593 C4585 1.433 . S
C4593 N4595 1.384 . S
N4594 C4590 1.427 . S
N4594 C4591 1.384 . S
N4595 C4587 1.427 . S
N4595 C4593 1.384 . S
H4596 C4602 0.930 . S
H4597 C4606 0.930 . S
H4598 C4611 0.929 . S
H4599 C4609 0.929 . S
H4600 C4604 0.929 . S
H4601 C4610 0.929 . S
C4602 H4596 0.930 . S
C4602 C4603 1.367 . S
C4602 C4610 1.378 . S
C4603 C4602 1.367 . S
C4603 C4611 1.433 . S
C4604 H4600 0.929 . S
C4604 C4606 1.378 1_554 S
C4604 C4608 1.350 . S
C4605 C4608 1.463 . S
C4605 C4610 1.350 . S
C4605 N4613 1.427 . S
C4606 H4597 0.930 . S
C4606 C4604 1.378 1_556 S
C4606 C4607 1.367 . S
C4607 C4606 1.367 . S
C4607 C4609 1.433 . S
C4608 C4604 1.350 . S
C4608 C4605 1.463 . S
C4608 N4612 1.427 1_554 S
C4609 H4599 0.929 . S
C4609 C4607 1.433 . S
C4609 N4612 1.384 . S
C4610 H4601 0.929 . S
C4610 C4602 1.378 . S
C4610 C4605 1.350 . S
C4611 H4598 0.929 . S
C4611 C4603 1.433 . S
C4611 N4613 1.384 . S
N4612 C4608 1.427 1_556 S
N4612 C4609 1.384 . S
N4613 C4605 1.427 . S
N4613 C4611 1.384 . S
H4614 C4620 0.930 . S
H4615 C4624 0.930 . S
H4616 C4629 0.929 . S
H4617 C4627 0.929 . S
H4618 C4622 0.929 . S
H4619 C4628 0.929 . S
C4620 H4614 0.930 . S
C4620 C4621 1.367 . S
C4620 C4628 1.378 . S
C4621 C4620 1.367 . S
C4621 C4629 1.433 . S
C4622 H4618 0.929 . S
C4622 C4624 1.378 . S
C4622 C4626 1.350 . S
C4623 C4626 1.463 . S
C4623 C4628 1.350 . S
C4623 N4631 1.427 . S
C4624 H4615 0.930 . S
C4624 C4622 1.378 . S
C4624 C4625 1.367 . S
C4625 C4624 1.367 . S
C4625 C4627 1.433 . S
C4626 C4622 1.350 . S
C4626 C4623 1.463 . S
C4626 N4630 1.427 . S
C4627 H4617 0.929 . S
C4627 C4625 1.433 . S
C4627 N4630 1.384 . S
C4628 H4619 0.929 . S
C4628 C4620 1.378 . S
C4628 C4623 1.350 . S
C4629 H4616 0.929 . S
C4629 C4621 1.433 . S
C4629 N4631 1.384 . S
N4630 C4626 1.427 . S
N4630 C4627 1.384 . S
N4631 C4623 1.427 . S
N4631 C4629 1.384 . S
H4632 C4638 0.930 . S
H4633 C4642 0.930 . S
H4634 C4647 0.929 . S
H4635 C4645 0.929 . S
H4636 C4640 0.929 . S
H4637 C4646 0.929 . S
C4638 H4632 0.930 . S
C4638 C4639 1.367 . S
C4638 C4646 1.378 . S
C4639 C4638 1.367 . S
C4639 C4647 1.433 . S
C4640 H4636 0.929 . S
C4640 C4642 1.378 . S
C4640 C4644 1.350 . S
C4641 C4644 1.463 . S
C4641 C4646 1.350 . S
C4641 N4649 1.427 . S
C4642 H4633 0.930 . S
C4642 C4640 1.378 . S
C4642 C4643 1.367 . S
C4643 C4642 1.367 . S
C4643 C4645 1.433 . S
C4644 C4640 1.350 . S
C4644 C4641 1.463 . S
C4644 N4648 1.427 . S
C4645 H4635 0.929 . S
C4645 C4643 1.433 . S
C4645 N4648 1.384 . S
C4646 H4637 0.929 . S
C4646 C4638 1.378 . S
C4646 C4641 1.350 . S
C4647 H4634 0.929 . S
C4647 C4639 1.433 . S
C4647 N4649 1.384 . S
N4648 C4644 1.427 . S
N4648 C4645 1.384 . S
N4649 C4641 1.427 . S
N4649 C4647 1.384 . S
H4650 C4656 0.930 . S
H4651 C4660 0.930 . S
H4652 C4665 0.929 . S
H4653 C4663 0.929 . S
H4654 C4658 0.929 . S
H4655 C4664 0.929 . S
C4656 H4650 0.930 . S
C4656 C4657 1.367 . S
C4656 C4664 1.378 . S
C4657 C4656 1.367 . S
C4657 C4665 1.433 . S
C4658 H4654 0.929 . S
C4658 C4660 1.378 . S
C4658 C4662 1.350 . S
C4659 C4662 1.463 . S
C4659 C4664 1.350 . S
C4659 N4667 1.427 . S
C4660 H4651 0.930 . S
C4660 C4658 1.378 . S
C4660 C4661 1.367 . S
C4661 C4660 1.367 . S
C4661 C4663 1.433 . S
C4662 C4658 1.350 . S
C4662 C4659 1.463 . S
C4662 N4666 1.427 . S
C4663 H4653 0.929 . S
C4663 C4661 1.433 . S
C4663 N4666 1.384 . S
C4664 H4655 0.929 . S
C4664 C4656 1.378 . S
C4664 C4659 1.350 . S
C4665 H4652 0.929 . S
C4665 C4657 1.433 . S
C4665 N4667 1.384 . S
N4666 C4662 1.427 . S
N4666 C4663 1.384 . S
N4667 C4659 1.427 . S
N4667 C4665 1.384 . S
H4668 C4674 0.930 . S
H4669 C4678 0.930 . S
H4670 C4683 0.929 . S
H4671 C4681 0.929 . S
H4672 C4676 0.929 . S
H4673 C4682 0.929 . S
C4674 H4668 0.930 . S
C4674 C4675 1.367 . S
C4674 C4682 1.378 . S
C4675 C4674 1.367 . S
C4675 C4683 1.433 . S
C4676 H4672 0.929 . S
C4676 C4678 1.378 . S
C4676 C4680 1.350 . S
C4677 C4680 1.463 . S
C4677 C4682 1.350 . S
C4677 N4685 1.427 . S
C4678 H4669 0.930 . S
C4678 C4676 1.378 . S
C4678 C4679 1.367 . S
C4679 C4678 1.367 . S
C4679 C4681 1.433 . S
C4680 C4676 1.350 . S
C4680 C4677 1.463 . S
C4680 N4684 1.427 . S
C4681 H4671 0.929 . S
C4681 C4679 1.433 . S
C4681 N4684 1.384 . S
C4682 H4673 0.929 . S
C4682 C4674 1.378 . S
C4682 C4677 1.350 . S
C4683 H4670 0.929 . S
C4683 C4675 1.433 . S
C4683 N4685 1.384 . S
N4684 C4680 1.427 . S
N4684 C4681 1.384 . S
N4685 C4677 1.427 . S
N4685 C4683 1.384 . S
H4686 C4692 0.930 . S
H4687 C4696 0.930 . S
H4688 C4701 0.929 . S
H4689 C4699 0.929 . S
H4690 C4694 0.929 . S
H4691 C4700 0.929 . S
C4692 H4686 0.930 . S
C4692 C4693 1.367 . S
C4692 C4700 1.378 . S
C4693 C4692 1.367 . S
C4693 C4701 1.433 . S
C4694 H4690 0.929 . S
C4694 C4696 1.378 . S
C4694 C4698 1.350 . S
C4695 C4698 1.463 . S
C4695 C4700 1.350 . S
C4695 N4703 1.427 . S
C4696 H4687 0.930 . S
C4696 C4694 1.378 . S
C4696 C4697 1.367 . S
C4697 C4696 1.367 . S
C4697 C4699 1.433 . S
C4698 C4694 1.350 . S
C4698 C4695 1.463 . S
C4698 N4702 1.427 . S
C4699 H4689 0.929 . S
C4699 C4697 1.433 . S
C4699 N4702 1.384 . S
C4700 H4691 0.929 . S
C4700 C4692 1.378 . S
C4700 C4695 1.350 . S
C4701 H4688 0.929 . S
C4701 C4693 1.433 . S
C4701 N4703 1.384 . S
N4702 C4698 1.427 . S
N4702 C4699 1.384 . S
N4703 C4695 1.427 . S
N4703 C4701 1.384 . S
C1255 C4 1.240 . S
C1259 C980 1.233 . S
C1273 C317 1.282 . S
C1277 C23 1.234 . S
C1291 C954 1.236 . S
C1295 C36 1.243 . S
C1309 C343 1.233 . S
C1313 C49 1.239 . S
C1327 C62 1.243 . S
C1331 C1004 1.240 . S
C1345 C69 1.238 . S
C1349 C393 1.233 . S
C1363 C1030 1.243 . S
C1367 C88 1.239 . S
C1381 C95 1.241 . S
C1385 C369 1.285 . S
C1399 C114 1.243 . S
C1403 C1173 1.236 . S
C1417 C564 1.242 . S
C1421 C127 1.234 . S
C1435 C140 1.240 . S
C1439 C575 1.242 . S
C1453 C147 1.235 . S
C1457 C538 1.293 . S
C1471 C160 1.237 . S
C1475 C1227 1.233 . S
C1489 C173 1.239 . S
C1493 C1147 1.243 . S
C1507 C186 1.233 . S
C1511 C1238 1.242 . S
C1525 C199 1.233 . S
C1529 C1212 1.292 . S
C1543 C1056 1.243 . S
C1547 C218 1.235 . S
C1561 C231 1.233 . S
C1565 C512 1.237 . S
C1579 C244 1.233 . S
C1583 C1095 1.238 . S
C1597 C484 1.240 . S
C1601 C251 1.233 . S
C1615 C270 1.234 . S
C1619 C497 1.282 . S
C1633 C1082 1.233 . S
C1637 C283 1.240 . S
C1651 C296 1.241 . S
C1655 C1043 1.233 . S
C1669 C1071 1.234 . S
C1673 C309 1.242 . S
C1687 C668 1.240 . S
C1691 C322 1.233 . S
C1705 C3 1.291 . S
C1709 C329 1.237 . S
C1723 C348 1.241 . S
C1727 C642 1.242 . S
C1741 C361 1.235 . S
C1745 C31 1.235 . S
C1759 C374 1.237 . S
C1763 C692 1.243 . S
C1777 C83 1.234 . S
C1781 C381 1.236 . S
C1795 C394 1.243 . S
C1799 C718 1.236 . S
C1813 C413 1.241 . S
C1817 C57 1.283 . S
C1831 C420 1.243 . S
C1835 C861 1.238 . S
C1849 C250 1.243 . S
C1853 C439 1.236 . S
C1867 C452 1.238 . S
C1871 C265 1.233 . S
C1885 C226 1.272 . S
C1889 C459 1.240 . S
C1903 C472 1.237 . S
C1907 C915 1.233 . S
C1921 C485 1.233 . S
C1925 C835 1.241 . S
C1939 C498 1.239 . S
C1943 C928 1.233 . S
C1957 C900 1.271 . S
C1961 C517 1.242 . S
C1975 C746 1.236 . S
C1979 C524 1.234 . S
C1993 C198 1.241 . S
C1997 C543 1.233 . S
C2011 C783 1.241 . S
C2015 C550 1.233 . S
C2029 C569 1.238 . S
C2033 C172 1.243 . S
C2047 C576 1.241 . S
C2051 C185 1.271 . S
C2065 C589 1.235 . S
C2069 C772 1.235 . S
C2083 C733 1.234 . S
C2087 C602 1.235 . S
C2101 C615 1.234 . S
C2105 C759 1.242 . S
C2119 C356 1.241 . S
C2123 C634 1.242 . S
C2137 C941 1.233 . S
C2141 C647 1.239 . S
C2155 C654 1.240 . S
C2159 C328 1.242 . S
C2173 C967 1.288 . S
C2177 C673 1.233 . S
C2191 C680 1.233 . S
C2195 C380 1.240 . S
C2209 C1017 1.290 . S
C2213 C693 1.238 . S
C2227 C706 1.235 . S
C2231 C408 1.234 . S
C2245 C991 1.235 . S
C2249 C719 1.235 . S
C2263 C549 1.242 . S
C2267 C738 1.234 . S
C2281 C751 1.241 . S
C2285 C1188 1.284 . S
C2299 C1201 1.243 . S
C2303 C764 1.237 . S
C2317 C777 1.243 . S
C2321 C1162 1.240 . S
C2335 C601 1.233 . S
C2339 C784 1.240 . S
C2353 C797 1.235 . S
C2357 C523 1.293 . S
C2371 C614 1.237 . S
C2375 C810 1.233 . S
C2389 C588 1.235 . S
C2393 C823 1.234 . S
C2407 C434 1.238 . S
C2411 C836 1.233 . S
C2425 C1134 1.233 . S
C2429 C855 1.239 . S
C2443 C862 1.239 . S
C2447 C471 1.273 . S
C2461 C881 1.239 . S
C2465 C1108 1.233 . S
C2479 C1123 1.234 . S
C2483 C894 1.242 . S
C2497 C458 1.234 . S
C2501 C901 1.242 . S
C2515 C419 1.271 . S
C2519 C920 1.242 . S
C2533 C447 1.273 . S
C2537 C933 1.239 . S
C2551 C946 1.243 . S
C2555 C44 1.236 . S
C2569 C959 1.239 . S
C2573 C629 1.233 . S
C2587 C972 1.235 . S
C2591 C18 1.243 . S
C2605 C985 1.241 . S
C2609 C653 1.285 . S
C2623 C68 1.243 . S
C2627 C992 1.239 . S
C2641 C705 1.279 . S
C2645 C1005 1.243 . S
C2659 C94 1.239 . S
C2663 C1018 1.243 . S
C2677 C679 1.233 . S
C2681 C1031 1.240 . S
C2695 C1044 1.234 . S
C2699 C239 1.242 . S
C2713 C876 1.288 . S
C2717 C1057 1.233 . S
C2731 C1076 1.237 . S
C2735 C889 1.243 . S
C2749 C1083 1.241 . S
C2753 C850 1.242 . S
C2767 C291 1.234 . S
C2771 C1096 1.236 . S
C2785 C213 1.291 . S
C2789 C1109 1.233 . S
C2803 C1128 1.239 . S
C2807 C304 1.233 . S
C2821 C278 1.242 . S
C2825 C1135 1.233 . S
C2839 C1148 1.236 . S
C2843 C122 1.234 . S
C2857 C1167 1.240 . S
C2861 C822 1.243 . S
C2875 C159 1.286 . S
C2879 C1174 1.240 . S
C2893 C1193 1.242 . S
C2897 C796 1.240 . S
C2911 C809 1.241 . S
C2915 C1206 1.233 . S
C2929 C1213 1.237 . S
C2933 C146 1.243 . S
C2947 C1232 1.239 . S
C2951 C109 1.289 . S
C2965 C1239 1.240 . S
C2969 C135 1.272 . S
C2983 C10 1.216 . S
C2987 C121 1.205 . S
C3001 C17 1.205 . S
C3005 C134 1.207 . S
C3019 C153 1.205 . S
C3023 C30 1.208 . S
C3037 C43 1.209 . S
C3041 C108 1.214 . S
C3055 C205 1.211 . S
C3059 C56 1.203 . S
C3073 C75 1.203 . S
C3077 C166 1.214 . S
C3091 C82 1.205 . S
C3095 C179 1.216 . S
C3109 C192 1.206 . S
C3113 C101 1.207 . S
C3127 C238 1.204 . S
C3131 C212 1.210 . S
C3145 C225 1.211 . S
C3149 C914 1.213 . S
C3163 C927 1.204 . S
C3167 C257 1.208 . S
C3181 C264 1.209 . S
C3185 C907 1.215 . S
C3199 C888 1.203 . S
C3203 C277 1.214 . S
C3217 C290 1.205 . S
C3221 C849 1.208 . S
C3235 C303 1.203 . S
C3239 C875 1.214 . S
C3253 C316 1.206 . S
C3257 C433 1.216 . S
C3271 C446 1.216 . S
C3275 C335 1.206 . S
C3289 C465 1.214 . S
C3293 C342 1.203 . S
C3307 C355 1.210 . S
C3311 C426 1.204 . S
C3325 C511 1.203 . S
C3329 C368 1.214 . S
C3343 C387 1.214 . S
C3347 C478 1.203 . S
C3361 C491 1.207 . S
C3365 C400 1.215 . S
C3379 C407 1.208 . S
C3383 C504 1.205 . S
C3397 C556 1.216 . S
C3401 C530 1.205 . S
C3415 C537 1.212 . S
C3419 C1226 1.203 . S
C3433 C563 1.206 . S
C3437 C1245 1.216 . S
C3451 C1219 1.205 . S
C3455 C582 1.208 . S
C3469 C1200 1.204 . S
C3473 C595 1.209 . S
C3487 C1161 1.215 . S
C3491 C608 1.204 . S
C3505 C1187 1.215 . S
C3509 C621 1.208 . S
C3523 C745 1.209 . S
C3527 C628 1.215 . S
C3541 C758 1.203 . S
C3545 C641 1.213 . S
C3559 C771 1.205 . S
C3563 C660 1.216 . S
C3577 C667 1.213 . S
C3581 C732 1.203 . S
C3595 C686 1.214 . S
C3599 C829 1.203 . S
C3613 C699 1.203 . S
C3617 C790 1.212 . S
C3631 C712 1.213 . S
C3635 C803 1.212 . S
C3649 C725 1.203 . S
C3653 C816 1.215 . S
C3667 C868 1.213 . S
C3671 C842 1.203 . S
C3685 C1063 1.209 . S
C3689 C940 1.204 . S
C3703 C953 1.214 . S
C3707 C1070 1.203 . S
C3721 C1089 1.213 . S
C3725 C966 1.203 . S
C3739 C1050 1.216 . S
C3743 C979 1.206 . S
C3757 C1141 1.216 . S
C3761 C998 1.205 . S
C3775 C1102 1.213 . S
C3779 C1011 1.212 . S
C3793 C1115 1.203 . S
C3797 C1024 1.213 . S
C3811 C1122 1.215 . S
C3815 C1037 1.208 . S
C3829 C1180 1.216 . S
C3833 C1154 1.207 . S
C3847 C5 1.485 . S
C3851 C263 1.484 . S
C3865 C848 1.476 . S
C3869 C16 1.483 . S
C3883 C863 1.483 . S
C3887 C29 1.476 . S
C3901 C874 1.478 . S
C3905 C42 1.477 . S
C3919 C926 1.478 . S
C3923 C55 1.486 . S
C3937 C70 1.476 . S
C3941 C276 1.483 . S
C3955 C81 1.481 . S
C3959 C913 1.476 . S
C3973 C96 1.486 . S
C3977 C211 1.478 . S
C3991 C107 1.485 . S
C3995 C200 1.484 . S
C4009 C120 1.477 . S
C4013 C161 1.478 . S
C4027 C133 1.484 . S
C4031 C174 1.485 . S
C4045 C187 1.485 . S
C4049 C148 1.476 . S
C4063 C640 1.476 . S
C4067 C224 1.484 . S
C4081 C237 1.485 . S
C4085 C655 1.484 . S
C4099 C252 1.476 . S
C4103 C666 1.485 . S
C4117 C707 1.483 . S
C4121 C289 1.486 . S
C4135 C302 1.483 . S
C4139 C681 1.486 . S
C4153 C315 1.477 . S
C4157 C577 1.478 . S
C4171 C1160 1.483 . S
C4175 C330 1.476 . S
C4189 C1175 1.486 . S
C4193 C341 1.480 . S
C4207 C1186 1.479 . S
C4211 C354 1.486 . S
C4225 C367 1.486 . S
C4229 C1240 1.482 . S
C4243 C382 1.486 . S
C4247 C590 1.480 . S
C4261 C395 1.486 . S
C4265 C1225 1.480 . S
C4279 C406 1.485 . S
C4283 C525 1.477 . S
C4297 C421 1.486 . S
C4301 C510 1.482 . S
C4315 C432 1.479 . S
C4319 C473 1.476 . S
C4333 C486 1.481 . S
C4337 C445 1.476 . S
C4351 C460 1.476 . S
C4355 C499 1.483 . S
C4369 C952 1.481 . S
C4373 C536 1.476 . S
C4387 C551 1.486 . S
C4391 C965 1.481 . S
C4405 C978 1.481 . S
C4409 C562 1.476 . S
C4423 C603 1.476 . S
C4427 C1019 1.484 . S
C4441 C993 1.476 . S
C4445 C616 1.484 . S
C4459 C627 1.480 . S
C4463 C887 1.486 . S
C4477 C694 1.476 . S
C4481 C902 1.482 . S
C4495 C720 1.476 . S
C4499 C837 1.483 . S
C4513 C824 1.484 . S
C4517 C731 1.476 . S
C4531 C744 1.476 . S
C4535 C785 1.481 . S
C4549 C798 1.483 . S
C4553 C757 1.485 . S
C4567 C770 1.477 . S
C4571 C811 1.485 . S
C4585 C1199 1.486 . S
C4589 C939 1.481 . S
C4603 C1006 1.482 . S
C4607 C1214 1.476 . S
C4621 C1032 1.479 . S
C4625 C1149 1.486 . S
C4639 C1136 1.477 . S
C4643 C1045 1.478 . S
C4657 C1097 1.476 . S
C4661 C1058 1.481 . S
C4675 C1069 1.476 . S
C4679 C1110 1.482 . S
C4693 C1084 1.486 . S
C4697 C1121 1.483 . S
