# Generated by pormake.
# Topology una, (4)-cn, num edge types: 1
# Building blocks:
#     Node 0, Type 0, BuildingBlock: QUQFOY_clean_sbu_3, # of connection points: 4
#     Node 1, Type 0, BuildingBlock: QUQFOY_clean_sbu_3, # of connection points: 4
#     Node 2, Type 0, BuildingBlock: QUQFOY_clean_sbu_3, # of connection points: 4
#     Node 3, Type 0, BuildingBlock: QUQFOY_clean_sbu_3, # of connection points: 4
#     Node 4, Type 0, BuildingBlock: QUQFOY_clean_sbu_3, # of connection points: 4
#     Node 5, Type 0, BuildingBlock: QUQFOY_clean_sbu_3, # of connection points: 4
#     Node 6, Type 0, BuildingBlock: QUQFOY_clean_sbu_3, # of connection points: 4
#     Node 7, Type 0, BuildingBlock: QUQFOY_clean_sbu_3, # of connection points: 4
#     Node 8, Type 0, BuildingBlock: QUQFOY_clean_sbu_3, # of connection points: 4
#     Node 9, Type 0, BuildingBlock: QUQFOY_clean_sbu_3, # of connection points: 4
#     Node 10, Type 0, BuildingBlock: QUQFOY_clean_sbu_3, # of connection points: 4
#     Node 11, Type 0, BuildingBlock: QUQFOY_clean_sbu_3, # of connection points: 4
#     Edge 12, Type (0, 0), BuildingBlock: KIFKEQ_clean_linker_1, # of connection points: 2
#     Edge 13, Type (0, 0), BuildingBlock: KIFKEQ_clean_linker_1, # of connection points: 2
#     Edge 14, Type (0, 0), BuildingBlock: KIFKEQ_clean_linker_1, # of connection points: 2
#     Edge 15, Type (0, 0), BuildingBlock: KIFKEQ_clean_linker_1, # of connection points: 2
#     Edge 16, Type (0, 0), BuildingBlock: KIFKEQ_clean_linker_1, # of connection points: 2
#     Edge 17, Type (0, 0), BuildingBlock: KIFKEQ_clean_linker_1, # of connection points: 2
#     Edge 18, Type (0, 0), BuildingBlock: KIFKEQ_clean_linker_1, # of connection points: 2
#     Edge 19, Type (0, 0), BuildingBlock: KIFKEQ_clean_linker_1, # of connection points: 2
#     Edge 20, Type (0, 0), BuildingBlock: KIFKEQ_clean_linker_1, # of connection points: 2
#     Edge 21, Type (0, 0), BuildingBlock: KIFKEQ_clean_linker_1, # of connection points: 2
#     Edge 22, Type (0, 0), BuildingBlock: KIFKEQ_clean_linker_1, # of connection points: 2
#     Edge 23, Type (0, 0), BuildingBlock: KIFKEQ_clean_linker_1, # of connection points: 2
#     Edge 24, Type (0, 0), BuildingBlock: KIFKEQ_clean_linker_1, # of connection points: 2
#     Edge 25, Type (0, 0), BuildingBlock: KIFKEQ_clean_linker_1, # of connection points: 2
#     Edge 26, Type (0, 0), BuildingBlock: KIFKEQ_clean_linker_1, # of connection points: 2
#     Edge 27, Type (0, 0), BuildingBlock: KIFKEQ_clean_linker_1, # of connection points: 2
#     Edge 28, Type (0, 0), BuildingBlock: KIFKEQ_clean_linker_1, # of connection points: 2
#     Edge 29, Type (0, 0), BuildingBlock: KIFKEQ_clean_linker_1, # of connection points: 2
#     Edge 30, Type (0, 0), BuildingBlock: KIFKEQ_clean_linker_1, # of connection points: 2
#     Edge 31, Type (0, 0), BuildingBlock: KIFKEQ_clean_linker_1, # of connection points: 2
#     Edge 32, Type (0, 0), BuildingBlock: KIFKEQ_clean_linker_1, # of connection points: 2
#     Edge 33, Type (0, 0), BuildingBlock: KIFKEQ_clean_linker_1, # of connection points: 2
#     Edge 34, Type (0, 0), BuildingBlock: KIFKEQ_clean_linker_1, # of connection points: 2
#     Edge 35, Type (0, 0), BuildingBlock: KIFKEQ_clean_linker_1, # of connection points: 2
# Relax obj value: 0.026
# Max RMSD: 0.045
# Mean RMSD: 0.045
data_MOF--net-una--node1-QUQFOY_clean_sbu_3--edge1-KIFKEQ_clean_linker_1
_symmetry_space_group_name_H-M    P1
_symmetry_Int_Tables_number       1
_symmetry_cell_setting            triclinic
loop_
_symmetry_equiv_pos_as_xyz
'x, y, z'
_cell_length_a     60.430208
_cell_length_b     60.480596
_cell_length_c     23.007683
_cell_angle_alpha  89.956685
_cell_angle_beta   90.062463
_cell_angle_gamma 119.91588
loop_
_atom_site_label
_atom_site_type_symbol
_atom_site_fract_x
_atom_site_fract_y
_atom_site_fract_z
_atom_type_partial_charge
C0 C 0.17161 0.46959 0.93907 0.0
O1 O 0.178 0.4909 0.96279 0.0
Cd2 Cd 0.15761 0.49431 0.04696 0.0
O3 O 0.15217 0.44913 0.957 0.0
Cd4 Cd 0.1165 0.4343 0.0291 0.0
C5 C 0.16255 0.44794 0.12779 0.0
O6 O 0.11381 0.47249 0.02035 0.0
O7 O 0.09317 0.44918 0.09333 0.0
O8 O 0.09153 0.41157 0.94488 0.0
C9 C 0.09879 0.4686 0.06217 0.0
O10 O 0.1696 0.47093 0.11415 0.0
C11 C 0.07582 0.39134 0.97124 0.0
O12 O 0.14297 0.42939 0.10431 0.0
O13 O 0.07948 0.3904 0.02544 0.0
C14 C 0.70158 0.17695 0.12857 0.0
O15 O 0.68768 0.18394 0.15507 0.0
Cd16 Cd 0.65897 0.15989 0.23094 0.0
O17 O 0.70022 0.15573 0.14073 0.0
Cd18 Cd 0.67588 0.11865 0.20683 0.0
C19 C 0.70324 0.15744 0.32202 0.0
O20 O 0.63547 0.11751 0.19503 0.0
O21 O 0.63643 0.09509 0.26639 0.0
O22 O 0.67381 0.09426 0.12143 0.0
C23 C 0.62341 0.10163 0.2349 0.0
O24 O 0.68711 0.16464 0.31147 0.0
C25 C 0.67763 0.07795 0.14738 0.0
O26 O 0.70513 0.14167 0.28853 0.0
O27 O 0.6818 0.08103 0.20179 0.0
C28 C 0.52303 0.70354 0.29823 0.0
O29 O 0.5019 0.68871 0.32273 0.0
Cd30 Cd 0.49724 0.65966 0.39752 0.0
O31 O 0.54312 0.70267 0.31117 0.0
Cd32 Cd 0.55653 0.67811 0.37504 0.0
C33 C 0.54342 0.70431 0.48995 0.0
O34 O 0.51779 0.63772 0.36178 0.0
O35 O 0.54118 0.63824 0.43271 0.0
O36 O 0.57859 0.6773 0.28808 0.0
C37 C 0.52166 0.62542 0.40105 0.0
O38 O 0.52031 0.68833 0.47724 0.0
C39 C 0.59883 0.68078 0.31285 0.0
O40 O 0.56167 0.70624 0.45842 0.0
O41 O 0.60019 0.68429 0.36757 0.0
C42 C 0.81229 0.52183 0.43708 0.0
O43 O 0.80529 0.50077 0.46275 0.0
Cd44 Cd 0.82746 0.49667 0.54369 0.0
O45 O 0.83264 0.54197 0.45249 0.0
Cd46 Cd 0.86857 0.55589 0.52288 0.0
C47 C 0.82611 0.54281 0.63124 0.0
O48 O 0.87082 0.51726 0.51388 0.0
O49 O 0.89208 0.54087 0.58597 0.0
O50 O 0.89341 0.57824 0.43823 0.0
C51 C 0.88608 0.52123 0.55534 0.0
O52 O 0.81939 0.51969 0.61984 0.0
C53 C 0.90909 0.59867 0.46398 0.0
O54 O 0.84317 0.56096 0.60083 0.0
O55 O 0.90554 0.59988 0.51813 0.0
C56 C 0.28865 0.8168 0.60529 0.0
O57 O 0.30494 0.8111 0.62401 0.0
Cd58 Cd 0.32924 0.82988 0.7088 0.0
O59 O 0.28683 0.83514 0.62767 0.0
Cd60 Cd 0.3091 0.87042 0.7 0.0
C61 C 0.27941 0.82363 0.7983 0.0
O62 O 0.35028 0.87397 0.68702 0.0
O63 O 0.34769 0.89298 0.76325 0.0
O64 O 0.31021 0.89555 0.61735 0.0
C65 C 0.36148 0.88809 0.73014 0.0
O66 O 0.29548 0.81722 0.7812 0.0
C67 C 0.30597 0.91121 0.64483 0.0
O68 O 0.27931 0.84299 0.7765 0.0
O69 O 0.302 0.90747 0.69923 0.0
C70 C 0.46089 0.28524 0.79141 0.0
O71 O 0.48187 0.2992 0.8175 0.0
Cd72 Cd 0.48617 0.32697 0.89511 0.0
O73 O 0.4409 0.28619 0.80486 0.0
Cd74 Cd 0.42761 0.30973 0.87223 0.0
C75 C 0.43966 0.28155 0.98499 0.0
O76 O 0.46657 0.35004 0.86016 0.0
O77 O 0.44353 0.34927 0.93195 0.0
O78 O 0.40523 0.31128 0.78644 0.0
C79 C 0.46293 0.36219 0.90007 0.0
O80 O 0.46291 0.29765 0.97392 0.0
C81 C 0.38511 0.30765 0.81197 0.0
O82 O 0.42178 0.28011 0.95281 0.0
O83 O 0.38403 0.30387 0.86656 0.0
C84 C 0.52101 0.81512 0.97554 0.0
O85 O 0.4998 0.80752 0.94994 0.0
Cd86 Cd 0.49623 0.82688 0.86409 0.0
O87 O 0.54111 0.83517 0.95842 0.0
Cd88 Cd 0.55497 0.87043 0.88534 0.0
C89 C 0.5452 0.82506 0.78778 0.0
O90 O 0.51531 0.87052 0.89131 0.0
O91 O 0.53884 0.89228 0.81961 0.0
O92 O 0.57629 0.89605 0.96998 0.0
C93 C 0.51888 0.88554 0.84965 0.0
O94 O 0.52176 0.8165 0.79974 0.0
C95 C 0.59642 0.91237 0.94425 0.0
O96 O 0.56265 0.84524 0.81184 0.0
O97 O 0.59797 0.90884 0.89025 0.0
C98 C 0.70133 0.52288 0.11067 0.0
O99 O 0.68733 0.50203 0.08426 0.0
Cd100 Cd 0.65852 0.49776 0.0088 0.0
O101 O 0.69999 0.54277 0.09861 0.0
Cd102 Cd 0.67572 0.55605 0.03354 0.0
C103 C 0.70277 0.54445 0.91778 0.0
O104 O 0.6355 0.51697 0.04633 0.0
O105 O 0.63565 0.54033 0.97585 0.0
O106 O 0.67465 0.57812 0.12033 0.0
C107 C 0.62299 0.5208 0.00751 0.0
O108 O 0.68669 0.52117 0.92845 0.0
C109 C 0.67815 0.59832 0.0954 0.0
O110 O 0.70466 0.56213 0.9512 0.0
O111 O 0.68165 0.59959 0.04069 0.0
C112 C 0.16876 0.6982 0.30041 0.0
O113 O 0.1739 0.68152 0.2818 0.0
Cd114 Cd 0.15377 0.65624 0.19898 0.0
O115 O 0.15034 0.70017 0.27886 0.0
Cd116 Cd 0.11431 0.67783 0.20829 0.0
C117 C 0.1601 0.70532 0.10676 0.0
O118 O 0.10995 0.63641 0.22274 0.0
O119 O 0.0906 0.63887 0.14687 0.0
O120 O 0.08994 0.67776 0.2914 0.0
C121 C 0.09539 0.62509 0.18029 0.0
O122 O 0.16603 0.68892 0.12409 0.0
C123 C 0.07424 0.68203 0.26398 0.0
O124 O 0.14151 0.70649 0.12985 0.0
O125 O 0.07772 0.68566 0.20945 0.0
C126 C 0.46155 0.17464 0.46443 0.0
O127 O 0.48254 0.18183 0.4383 0.0
Cd128 Cd 0.48709 0.15879 0.35996 0.0
O129 O 0.44166 0.15373 0.45076 0.0
Cd130 Cd 0.42861 0.11716 0.38291 0.0
C131 C 0.44015 0.15752 0.27079 0.0
O132 O 0.46784 0.11599 0.39326 0.0
O133 O 0.4445 0.09401 0.3215 0.0
O134 O 0.40687 0.09267 0.4685 0.0
C135 C 0.46412 0.10047 0.35266 0.0
O136 O 0.46346 0.16474 0.28167 0.0
C137 C 0.38656 0.07642 0.44318 0.0
O138 O 0.42238 0.14102 0.30295 0.0
O139 O 0.38509 0.07952 0.38889 0.0
C140 C 0.28646 0.46891 0.62275 0.0
O141 O 0.30207 0.49021 0.6 0.0
Cd142 Cd 0.33012 0.49445 0.52338 0.0
O143 O 0.28621 0.44852 0.60744 0.0
Cd144 Cd 0.30941 0.43423 0.54156 0.0
C145 C 0.28333 0.44997 0.43091 0.0
O146 O 0.35061 0.47185 0.5552 0.0
O147 O 0.34883 0.44872 0.4826 0.0
O148 O 0.30942 0.41109 0.62722 0.0
C149 C 0.36231 0.46783 0.51479 0.0
O150 O 0.29982 0.47268 0.44529 0.0
C151 C 0.30508 0.39077 0.60155 0.0
O152 O 0.2813 0.43097 0.45962 0.0
O153 O 0.30151 0.38993 0.54687 0.0
C154 C 0.81253 0.28911 0.80309 0.0
O155 O 0.80542 0.30315 0.7776 0.0
Cd156 Cd 0.82739 0.32951 0.69681 0.0
O157 O 0.83293 0.28939 0.78758 0.0
Cd158 Cd 0.86864 0.31169 0.71687 0.0
C159 C 0.82619 0.28234 0.60862 0.0
O160 O 0.8708 0.35257 0.72636 0.0
O161 O 0.89173 0.35008 0.6537 0.0
O162 O 0.89401 0.31412 0.80061 0.0
C163 C 0.88591 0.36378 0.68467 0.0
O164 O 0.81935 0.29866 0.62015 0.0
C165 C 0.90965 0.30955 0.77398 0.0
O166 O 0.84333 0.2813 0.63896 0.0
O167 O 0.90581 0.3049 0.71984 0.0
H168 H 0.14927 0.41223 0.21534 0.0
H169 H 0.21379 0.4735 0.12745 0.0
H170 H 0.17844 0.40972 0.28644 0.0
H171 H 0.24268 0.47023 0.19543 0.0
H172 H 0.28219 0.48718 0.36742 0.0
H173 H 0.25232 0.48316 0.29324 0.0
H174 H 0.21367 0.40105 0.30863 0.0
H175 H 0.24363 0.40514 0.38591 0.0
C176 C 0.16966 0.42477 0.21068 0.0
C177 C 0.1793 0.44347 0.16692 0.0
C178 C 0.18636 0.42327 0.25105 0.0
C179 C 0.21289 0.44019 0.24746 0.0
C180 C 0.22236 0.45749 0.20083 0.0
C181 C 0.2058 0.45932 0.16166 0.0
C182 C 0.26752 0.46815 0.35511 0.0
C183 C 0.26551 0.44647 0.38266 0.0
C184 C 0.25037 0.46584 0.31197 0.0
C185 C 0.23075 0.44175 0.29413 0.0
C186 C 0.22855 0.4199 0.32145 0.0
C187 C 0.24581 0.42223 0.36535 0.0
H188 H 0.79497 0.28448 0.52677 0.0
H189 H 0.82496 0.23679 0.58638 0.0
H190 H 0.7664 0.25108 0.46104 0.0
H191 H 0.79591 0.20296 0.51939 0.0
H192 H 0.75173 0.16458 0.33599 0.0
H193 H 0.7841 0.19352 0.40584 0.0
H194 H 0.72791 0.20773 0.48632 0.0
H195 H 0.69594 0.17929 0.41727 0.0
C196 C 0.79567 0.26694 0.52553 0.0
C197 C 0.81202 0.26321 0.56261 0.0
C198 C 0.77918 0.24774 0.48792 0.0
C199 C 0.77853 0.22423 0.4861 0.0
C200 C 0.79594 0.22088 0.52028 0.0
C201 C 0.81256 0.24024 0.55846 0.0
C202 C 0.74621 0.17341 0.3696 0.0
C203 C 0.7214 0.17001 0.37055 0.0
C204 C 0.76473 0.18997 0.40941 0.0
C205 C 0.75861 0.20328 0.45051 0.0
C206 C 0.7333 0.19818 0.4542 0.0
C207 C 0.71496 0.18181 0.41473 0.0
H208 H 0.58793 0.74838 0.51991 0.0
H209 H 0.50937 0.70008 0.57201 0.0
H210 H 0.59326 0.77872 0.59713 0.0
H211 H 0.51438 0.7302 0.64652 0.0
H212 H 0.52912 0.7754 0.80293 0.0
H213 H 0.5338 0.74655 0.73726 0.0
H214 H 0.57908 0.80951 0.6215 0.0
H215 H 0.57541 0.83879 0.68991 0.0
C216 C 0.57194 0.74408 0.54811 0.0
C217 C 0.54823 0.72177 0.5397 0.0
C218 C 0.57492 0.76155 0.59196 0.0
C219 C 0.55431 0.75689 0.62836 0.0
C220 C 0.53088 0.73429 0.62038 0.0
C221 C 0.52793 0.717 0.57703 0.0
C222 C 0.54047 0.78312 0.76392 0.0
C223 C 0.55163 0.80916 0.7509 0.0
C224 C 0.54305 0.7666 0.72607 0.0
C225 C 0.55625 0.77555 0.67325 0.0
C226 C 0.56881 0.80198 0.66182 0.0
C227 C 0.56665 0.81872 0.7007 0.0
H228 H 0.79542 0.50964 0.71375 0.0
H229 H 0.82422 0.58685 0.6528 0.0
H230 H 0.76672 0.51431 0.77949 0.0
H231 H 0.79503 0.59146 0.7198 0.0
H232 H 0.75099 0.58599 0.90296 0.0
H233 H 0.78342 0.58946 0.83321 0.0
H234 H 0.72777 0.51847 0.75445 0.0
H235 H 0.69574 0.51491 0.82336 0.0
C236 C 0.79583 0.52775 0.71469 0.0
C237 C 0.81189 0.54774 0.67724 0.0
C238 C 0.77926 0.53036 0.75232 0.0
C239 C 0.77823 0.55303 0.75378 0.0
C240 C 0.79536 0.57372 0.7192 0.0
C241 C 0.81205 0.57107 0.68102 0.0
C242 C 0.74559 0.5715 0.86976 0.0
C243 C 0.72093 0.54995 0.86926 0.0
C244 C 0.76415 0.57348 0.83 0.0
C245 C 0.75822 0.55393 0.7894 0.0
C246 C 0.73303 0.53353 0.78617 0.0
C247 C 0.71465 0.53154 0.82557 0.0
H248 H 0.24983 0.83499 0.87055 0.0
H249 H 0.26455 0.77443 0.82297 0.0
H250 H 0.21962 0.8072 0.94519 0.0
H251 H 0.23416 0.7468 0.89479 0.0
H252 H 0.20668 0.71476 0.07064 0.0
H253 H 0.234 0.74434 -0.00256 0.0
H254 H 0.17832 0.7679 0.96546 0.0
H255 H 0.15086 0.7384 0.04149 0.0
C256 C 0.24648 0.81576 0.87567 0.0
C257 C 0.26 0.80711 0.84166 0.0
C258 C 0.22909 0.7998 0.91812 0.0
C259 C 0.22481 0.7749 0.92681 0.0
C260 C 0.23752 0.76608 0.89074 0.0
C261 C 0.25497 0.78197 0.84925 0.0
C262 C 0.20004 0.7261 0.0481 0.0
C263 C 0.17632 0.72387 0.06151 0.0
C264 C 0.21576 0.74308 0.00574 0.0
C265 C 0.2082 0.7582 0.97458 0.0
C266 C 0.18474 0.75654 0.98868 0.0
C267 C 0.16895 0.73955 0.03193 0.0
H268 H 0.3972 0.1619 0.25424 0.0
H269 H 0.47102 0.18354 0.18056 0.0
H270 H 0.39286 0.19092 0.18606 0.0
H271 H 0.46663 0.21211 0.11351 0.0
H272 H 0.39669 0.23448 0.00258 0.0
H273 H 0.39257 0.20126 0.07083 0.0
H274 H 0.46682 0.25354 0.14154 0.0
H275 H 0.47099 0.28637 0.07444 0.0
C276 C 0.41218 0.17235 0.22278 0.0
C277 C 0.43464 0.17074 0.22345 0.0
C278 C 0.4097 0.18895 0.18395 0.0
C279 C 0.42968 0.20414 0.14554 0.0
C280 C 0.45119 0.20105 0.14358 0.0
C281 C 0.45365 0.1846 0.18195 0.0
C282 C 0.41183 0.23899 0.03365 0.0
C283 C 0.43435 0.26293 0.03244 0.0
C284 C 0.40948 0.21998 0.07253 0.0
C285 C 0.42964 0.22471 0.11043 0.0
C286 C 0.45123 0.2492 0.11187 0.0
C287 C 0.45356 0.26804 0.07346 0.0
H288 H 0.07561 0.47159 0.16211 0.0
H289 H 0.10618 0.50945 -0.00183 0.0
H290 H 0.06839 0.50643 0.19128 0.0
H291 H 0.09933 0.54416 0.02739 0.0
H292 H 0.10265 0.59201 0.24652 0.0
H293 H 0.09761 0.55109 0.21768 0.0
H294 H 0.06813 0.55737 0.0511 0.0
H295 H 0.07356 0.59873 0.0798 0.0
C296 C 0.08048 0.48716 0.13208 0.0
C297 C 0.09173 0.48794 0.07816 0.0
C298 C 0.07644 0.50713 0.14882 0.0
C299 C 0.08338 0.5281 0.11173 0.0
C300 C 0.09348 0.52818 0.05673 0.0
C301 C 0.09763 0.50836 0.0402 0.0
C302 C 0.09475 0.58452 0.20401 0.0
C303 C 0.08885 0.59876 0.16509 0.0
C304 C 0.09165 0.56093 0.18767 0.0
C305 C 0.08262 0.55104 0.13196 0.0
C306 C 0.07544 0.56466 0.09409 0.0
C307 C 0.07845 0.58828 0.11056 0.0
H308 H 0.59098 0.11057 0.17025 0.0
H309 H 0.59634 0.07817 0.33346 0.0
H310 H 0.54965 0.10476 0.19888 0.0
H311 H 0.55469 0.07218 0.36205 0.0
H312 H 0.46855 0.07875 0.25187 0.0
H313 H 0.50451 0.07336 0.22246 0.0
H314 H 0.54081 0.10319 0.38822 0.0
H315 H 0.50502 0.10841 0.4176 0.0
C316 C 0.58314 0.10184 0.21193 0.0
C317 C 0.59704 0.09509 0.24989 0.0
C318 C 0.55934 0.09832 0.22813 0.0
C319 C 0.54895 0.0881 0.28282 0.0
C320 C 0.56235 0.08032 0.31983 0.0
C321 C 0.58612 0.08367 0.3034 0.0
C322 C 0.48403 0.08376 0.28228 0.0
C323 C 0.4841 0.09424 0.3368 0.0
C324 C 0.50465 0.08077 0.26538 0.0
C325 C 0.52553 0.08795 0.30295 0.0
C326 C 0.52492 0.09723 0.35851 0.0
C327 C 0.50448 0.10041 0.37516 0.0
H328 H 0.38879 0.47165 0.41501 0.0
H329 H 0.39567 0.50792 0.58097 0.0
H330 H 0.43065 0.5069 0.3867 0.0
H331 H 0.4372 0.54304 0.55266 0.0
H332 H 0.51781 0.59793 0.49915 0.0
H333 H 0.48199 0.55634 0.52702 0.0
H334 H 0.44495 0.55211 0.36341 0.0
H335 H 0.48062 0.59336 0.33551 0.0
C336 C 0.39939 0.48692 0.44573 0.0
C337 C 0.38883 0.48718 0.49992 0.0
C338 C 0.42329 0.50713 0.42947 0.0
C339 C 0.43715 0.5278 0.46735 0.0
C340 C 0.42714 0.5273 0.52271 0.0
C341 C 0.40323 0.50725 0.53874 0.0
C342 C 0.5022 0.58789 0.46882 0.0
C343 C 0.50187 0.59902 0.41545 0.0
C344 C 0.48168 0.56415 0.48484 0.0
C345 C 0.4606 0.55102 0.44752 0.0
C346 C 0.46099 0.56159 0.39289 0.0
C347 C 0.48135 0.58534 0.37712 0.0
H348 H 0.87802 0.4797 0.49305 0.0
H349 H 0.9084 0.51808 0.65659 0.0
H350 H 0.88351 0.44437 0.52491 0.0
H351 H 0.91414 0.48263 0.68843 0.0
H352 H 0.87778 0.39724 0.74701 0.0
H353 H 0.88337 0.4381 0.7153 0.0
H354 H 0.91422 0.43051 0.55209 0.0
H355 H 0.90837 0.38928 0.58375 0.0
C356 C 0.88624 0.48076 0.53554 0.0
C357 C 0.8925 0.50154 0.57259 0.0
C358 C 0.88959 0.46059 0.5536 0.0
C359 C 0.89916 0.46064 0.60929 0.0
C360 C 0.90648 0.48194 0.64547 0.0
C361 C 0.90328 0.50227 0.62719 0.0
C362 C 0.88607 0.40442 0.70463 0.0
C363 C 0.89235 0.3899 0.66759 0.0
C364 C 0.88947 0.42796 0.68666 0.0
C365 C 0.89914 0.4375 0.63109 0.0
C366 C 0.90648 0.42351 0.59495 0.0
C367 C 0.90322 0.39997 0.61313 0.0
H368 H 0.39475 0.88114 0.66398 0.0
H369 H 0.38733 0.90873 0.83188 0.0
H370 H 0.43559 0.8859 0.69318 0.0
H371 H 0.42858 0.91382 0.86098 0.0
H372 H 0.47711 0.87627 0.91243 0.0
H373 H 0.44195 0.88247 0.88311 0.0
H374 H 0.48025 0.91538 0.72087 0.0
H375 H 0.51558 0.90888 0.75016 0.0
C376 C 0.40205 0.88862 0.70687 0.0
C377 C 0.38767 0.89425 0.74593 0.0
C378 C 0.42559 0.89155 0.72342 0.0
C379 C 0.43527 0.90009 0.7795 0.0
C380 C 0.42146 0.9069 0.81767 0.0
C381 C 0.3979 0.90408 0.80097 0.0
C382 C 0.47821 0.88509 0.87071 0.0
C383 C 0.49899 0.89183 0.8333 0.0
C384 C 0.45813 0.88886 0.85415 0.0
C385 C 0.45827 0.89938 0.79963 0.0
C386 C 0.47951 0.90702 0.76297 0.0
C387 C 0.49975 0.90337 0.77977 0.0
H388 H 0.46808 0.3892 -0.00015 0.0
H389 H 0.50285 0.39472 0.83255 0.0
H390 H 0.50411 0.43086 0.02676 0.0
H391 H 0.5387 0.43602 0.85941 0.0
H392 H 0.59119 0.48014 0.07422 0.0
H393 H 0.54949 0.44466 0.04811 0.0
H394 H 0.55281 0.48108 0.88424 0.0
H395 H 0.59484 0.51672 0.91033 0.0
C396 C 0.48319 0.39947 0.96855 0.0
C397 C 0.48279 0.38859 0.91436 0.0
C398 C 0.50384 0.42324 0.984 0.0
C399 C 0.52429 0.43667 0.94528 0.0
C400 C 0.52315 0.42632 0.88999 0.0
C401 C 0.50269 0.40253 0.8748 0.0
C402 C 0.58289 0.48078 0.03293 0.0
C403 C 0.59642 0.50108 -0.00598 0.0
C404 C 0.55888 0.46053 0.01819 0.0
C405 C 0.5479 0.46002 0.96402 0.0
C406 C 0.56092 0.48086 0.92609 0.0
C407 C 0.58492 0.50128 0.94109 0.0
H408 H 0.27523 0.50608 0.64916 0.0
H409 H 0.25658 0.4295 0.69631 0.0
H410 H 0.24611 0.50517 0.7229 0.0
H411 H 0.22792 0.42891 0.77184 0.0
H412 H 0.16136 0.42928 0.86755 0.0
H413 H 0.18802 0.42828 0.78895 0.0
H414 H 0.24462 0.50655 0.82612 0.0
H415 H 0.21784 0.50781 0.90283 0.0
C416 C 0.26502 0.48908 0.67555 0.0
C417 C 0.26836 0.46793 0.66718 0.0
C418 C 0.24838 0.4886 0.71804 0.0
C419 C 0.23487 0.46707 0.75369 0.0
C420 C 0.23787 0.4457 0.74473 0.0
C421 C 0.25439 0.4461 0.70173 0.0
C422 C 0.17946 0.44627 0.85868 0.0
C423 C 0.1874 0.46866 0.89119 0.0
C424 C 0.19479 0.44566 0.81391 0.0
C425 C 0.21839 0.46738 0.80106 0.0
C426 C 0.22633 0.48964 0.83399 0.0
C427 C 0.21099 0.49032 0.87827 0.0
H428 H 0.72974 0.1661 0.05236 0.0
H429 H 0.71339 0.22549 0.10125 0.0
H430 H 0.7572 0.19308 0.97406 0.0
H431 H 0.74122 0.25255 0.02429 0.0
H432 H 0.82319 0.25912 0.87405 0.0
H433 H 0.79741 0.23219 0.95436 0.0
H434 H 0.7405 0.25388 0.91983 0.0
H435 H 0.76637 0.28114 0.84091 0.0
C436 C 0.73216 0.18496 0.04674 0.0
C437 C 0.71919 0.19355 0.08272 0.0
C438 C 0.74799 0.20047 0.00208 0.0
C439 C 0.75122 0.22488 0.99267 0.0
C440 C 0.73873 0.23364 0.02961 0.0
C441 C 0.72286 0.21815 0.07395 0.0
C442 C 0.80518 0.25814 0.88368 0.0
C443 C 0.79691 0.27239 0.85123 0.0
C444 C 0.79036 0.24261 0.92949 0.0
C445 C 0.76698 0.24101 0.94369 0.0
C446 C 0.75864 0.25506 0.91077 0.0
C447 C 0.77344 0.27059 0.86524 0.0
H448 H 0.56209 0.73257 0.22302 0.0
H449 H 0.4864 0.71584 0.27359 0.0
H450 H 0.56248 0.76083 0.14664 0.0
H451 H 0.48712 0.74449 0.19873 0.0
H452 H 0.5618 0.8265 0.04689 0.0
H453 H 0.5633 0.80102 0.12773 0.0
H454 H 0.48473 0.74401 0.09468 0.0
H455 H 0.48299 0.76953 0.01552 0.0
C456 C 0.54566 0.73511 0.21824 0.0
C457 C 0.5241 0.72174 0.25393 0.0
C458 C 0.54595 0.75141 0.17472 0.0
C459 C 0.52474 0.75472 0.16631 0.0
C460 C 0.50355 0.74194 0.20326 0.0
C461 C 0.50318 0.72557 0.24635 0.0
C462 C 0.54484 0.80857 0.05713 0.0
C463 C 0.52224 0.80011 0.02492 0.0
C464 C 0.54575 0.79393 0.1032 0.0
C465 C 0.5241 0.77056 0.11781 0.0
C466 C 0.5016 0.76214 0.08535 0.0
C467 C 0.50066 0.77676 0.03965 0.0
H468 H 0.7661 0.48367 0.39951 0.0
H469 H 0.82296 0.56219 0.36538 0.0
H470 H 0.74021 0.48493 0.32021 0.0
H471 H 0.79719 0.5632 0.28474 0.0
H472 H 0.72969 0.5619 0.18647 0.0
H473 H 0.7571 0.56231 0.26494 0.0
H474 H 0.74073 0.48668 0.21568 0.0
H475 H 0.71292 0.48598 0.13849 0.0
C476 C 0.77317 0.50118 0.37488 0.0
C477 C 0.79665 0.52282 0.38874 0.0
C478 C 0.75837 0.50184 0.32913 0.0
C479 C 0.76672 0.5241 0.29588 0.0
C480 C 0.79012 0.54583 0.30989 0.0
C481 C 0.80494 0.5452 0.3559 0.0
C482 C 0.73202 0.5454 0.19231 0.0
C483 C 0.71895 0.52382 0.15652 0.0
C484 C 0.74783 0.54569 0.23708 0.0
C485 C 0.75094 0.52445 0.24681 0.0
C486 C 0.73834 0.50315 0.21009 0.0
C487 C 0.72248 0.50281 0.16561 0.0
H488 H 0.17433 0.74461 0.32965 0.0
H489 H 0.19937 0.69132 0.37597 0.0
H490 H 0.20352 0.77475 0.40168 0.0
H491 H 0.22757 0.72075 0.44918 0.0
H492 H 0.29584 0.78726 0.52737 0.0
H493 H 0.26645 0.75971 0.45322 0.0
H494 H 0.21222 0.78307 0.50349 0.0
H495 H 0.24232 0.81162 0.57641 0.0
C496 C 0.18581 0.73922 0.35576 0.0
C497 C 0.18477 0.71574 0.34681 0.0
C498 C 0.20247 0.75643 0.39713 0.0
C499 C 0.21817 0.75033 0.4307 0.0
C500 C 0.21633 0.72641 0.42299 0.0
C501 C 0.2 0.70943 0.38127 0.0
C502 C 0.27771 0.78664 0.5224 0.0
C503 C 0.27129 0.80144 0.55797 0.0
C504 C 0.26075 0.77068 0.48015 0.0
C505 C 0.23675 0.7688 0.47304 0.0
C506 C 0.2306 0.78416 0.50756 0.0
C507 C 0.24779 0.80046 0.54945 0.0
H508 H 0.42109 0.2562 0.71775 0.0
H509 H 0.49849 0.27538 0.75895 0.0
H510 H 0.42047 0.22924 0.63806 0.0
H511 H 0.4976 0.24809 0.68056 0.0
H512 H 0.42168 0.16354 0.53812 0.0
H513 H 0.42072 0.18965 0.61791 0.0
H514 H 0.49761 0.24828 0.57577 0.0
H515 H 0.49883 0.2221 0.49728 0.0
C516 C 0.43789 0.25453 0.71011 0.0
C517 C 0.4599 0.26808 0.74446 0.0
C518 C 0.43748 0.239 0.66464 0.0
C519 C 0.45905 0.23668 0.65273 0.0
C520 C 0.48084 0.24986 0.68784 0.0
C521 C 0.48129 0.26541 0.73304 0.0
C522 C 0.43835 0.18202 0.54587 0.0
C523 C 0.4604 0.19065 0.51158 0.0
C524 C 0.43775 0.19702 0.59139 0.0
C525 C 0.45915 0.22095 0.60342 0.0
C526 C 0.48098 0.22972 0.56839 0.0
C527 C 0.48162 0.21474 0.52315 0.0
H528 H 0.06522 0.38854 0.85565 0.0
H529 H 0.03445 0.34931 0.01809 0.0
H530 H 0.0246 0.36149 0.80834 0.0
H531 H -0.00632 0.32153 0.97011 0.0
H532 H 0.92051 0.31723 0.88946 0.0
H533 H 0.96107 0.33007 0.93647 0.0
H534 H 0.99151 0.3208 0.77421 0.0
H535 H 0.9508 0.30852 0.72653 0.0
C536 C 0.04994 0.37366 0.88098 0.0
C537 C 0.05293 0.37137 0.94089 0.0
C538 C 0.02663 0.35794 0.85364 0.0
C539 C 0.0057 0.33947 0.8855 0.0
C540 C 0.00929 0.33587 0.94452 0.0
C541 C 0.03268 0.35168 0.97196 0.0
C542 C 0.93567 0.31744 0.86393 0.0
C543 C 0.93256 0.31227 0.80401 0.0
C544 C 0.95894 0.32461 0.89111 0.0
C545 C 0.97972 0.32675 0.85906 0.0
C546 C 0.97602 0.31975 0.79996 0.0
C547 C 0.95266 0.31257 0.77269 0.0
H548 H 0.59808 0.92264 0.05979 0.0
H549 H 0.638 0.95461 0.89864 0.0
H550 H 0.62448 0.96312 0.10821 0.0
H551 H 0.66506 -0.00476 0.94773 0.0
H552 H 0.66971 0.06795 0.03152 0.0
H553 H 0.65644 0.02766 0.98285 0.0
H554 H 0.66528 -0.00424 0.14346 0.0
H555 H 0.678 0.03616 0.19278 0.0
C556 C 0.61293 0.93818 0.03495 0.0
C557 C 0.61569 0.93551 0.97513 0.0
C558 C 0.62827 0.9614 0.06293 0.0
C559 C 0.64679 0.98258 0.03183 0.0
C560 C 0.6507 0.97942 0.97278 0.0
C561 C 0.6353 0.9561 0.9447 0.0
C562 C 0.6693 0.05252 0.05632 0.0
C563 C 0.67452 0.05514 0.11626 0.0
C564 C 0.66187 0.0294 0.0282 0.0
C565 C 0.6595 0.00831 0.05931 0.0
C566 C 0.66649 0.0115 0.11843 0.0
C567 C 0.67392 0.03469 0.14664 0.0
H568 H 0.67827 0.64088 0.05322 0.0
H569 H 0.67156 0.59984 0.21201 0.0
H570 H 0.6664 0.66851 0.1059 0.0
H571 H 0.65905 0.62673 0.26399 0.0
H572 H 0.64095 0.67992 0.35487 0.0
H573 H 0.66783 0.6671 0.30207 0.0
H574 H 0.62645 0.66104 0.144 0.0
H575 H 0.60033 0.6745 0.1961 0.0
C576 C 0.67471 0.63804 0.0995 0.0
C577 C 0.67551 0.61795 0.12824 0.0
C578 C 0.66775 0.65377 0.12966 0.0
C579 C 0.66143 0.64969 0.18912 0.0
C580 C 0.66399 0.63068 0.21846 0.0
C581 C 0.67098 0.61505 0.18843 0.0
C582 C 0.63808 0.67647 0.30856 0.0
C583 C 0.61828 0.67787 0.27987 0.0
C584 C 0.65336 0.66895 0.27833 0.0
C585 C 0.64911 0.66266 0.21886 0.0
C586 C 0.6305 0.66591 0.18954 0.0
C587 C 0.61532 0.67345 0.21964 0.0
H588 H 0.06439 0.67678 0.38001 0.0
H589 H 0.03231 0.68133 0.21562 0.0
H590 H 0.02387 0.66345 0.42736 0.0
H591 H 0.9916 0.66863 0.26362 0.0
H592 H 0.91959 0.60053 0.34856 0.0
H593 H 0.95973 0.62814 0.30024 0.0
H594 H 0.99018 0.67019 0.45993 0.0
H595 H 0.94992 0.64182 0.50901 0.0
C596 C 0.04884 0.67561 0.35419 0.0
C597 C 0.05144 0.67967 0.29382 0.0
C598 C 0.02556 0.66814 0.38156 0.0
C599 C 0.00427 0.6646 0.34927 0.0
C600 C 0.00748 0.6707 0.28962 0.0
C601 C 0.03085 0.67815 0.26214 0.0
C602 C 0.93465 0.61595 0.37323 0.0
C603 C 0.9317 0.6187 0.43292 0.0
C604 C 0.9577 0.63201 0.34527 0.0
C605 C 0.97839 0.6513 0.37623 0.0
C606 C 0.97479 0.65524 0.43499 0.0
C607 C 0.95167 0.63908 0.46309 0.0
H608 H 0.34362 0.03496 0.39945 0.0
H609 H 0.38568 0.06627 0.55868 0.0
H610 H 0.31622 -0.00537 0.44929 0.0
H611 H 0.35904 0.02606 0.60774 0.0
H612 H 0.31134 0.92127 0.52892 0.0
H613 H 0.32416 0.96167 0.48154 0.0
H614 H 0.31894 0.99366 0.64543 0.0
H615 H 0.30672 0.95307 0.69345 0.0
C616 C 0.34673 0.0334 0.44528 0.0
C617 C 0.36705 0.05369 0.47486 0.0
C618 C 0.33114 0.01025 0.4738 0.0
C619 C 0.3356 0.00691 0.53241 0.0
C620 C 0.3548 0.02788 0.56284 0.0
C621 C 0.37029 0.05097 0.53445 0.0
C622 C 0.31243 0.93674 0.55479 0.0
C623 C 0.30843 0.93408 0.61517 0.0
C624 C 0.31959 0.95995 0.52741 0.0
C625 C 0.3229 0.98111 0.55968 0.0
C626 C 0.31701 0.97788 0.61943 0.0
C627 C 0.30985 0.95458 0.64692 0.0
H628 H 0.31109 0.38802 0.71803 0.0
H629 H 0.30433 0.34823 0.55735 0.0
H630 H 0.32353 0.3607 0.76839 0.0
H631 H 0.31612 0.32013 0.60841 0.0
H632 H 0.38307 0.3146 0.69567 0.0
H633 H 0.35633 0.3278 0.6453 0.0
H634 H 0.31538 0.3203 0.80474 0.0
H635 H 0.34289 0.30774 0.85583 0.0
C636 C 0.3116 0.37296 0.6937 0.0
C637 C 0.30716 0.37059 0.63344 0.0
C638 C 0.31855 0.35708 0.7228 0.0
C639 C 0.32117 0.33835 0.69242 0.0
C640 C 0.31476 0.33468 0.63294 0.0
C641 C 0.30783 0.35066 0.60372 0.0
C642 C 0.36806 0.31528 0.71988 0.0
C643 C 0.3654 0.31054 0.78001 0.0
C644 C 0.3525 0.32266 0.69077 0.0
C645 C 0.33382 0.32542 0.72099 0.0
C646 C 0.32989 0.31881 0.78033 0.0
C647 C 0.34555 0.31146 0.80957 0.0
loop_
_geom_bond_atom_site_label_1
_geom_bond_atom_site_label_2
_geom_bond_distance
_geom_bond_site_symmetry_2
_ccdc_geom_bond_type
C0 O1 1.306 . S
C0 O3 1.160 . S
O1 C0 1.306 . S
O1 Cd2 2.228 1_556 S
Cd2 O1 2.228 1_554 S
Cd2 O6 2.273 . S
Cd2 O10 2.277 . S
O3 C0 1.160 . S
O3 Cd4 2.203 1_556 S
Cd4 O3 2.203 1_554 S
Cd4 O6 2.411 . S
Cd4 O7 2.333 . S
Cd4 O8 2.352 1_554 S
Cd4 O12 2.277 . S
Cd4 O13 2.356 . S
C5 O10 1.209 . S
C5 O12 1.226 . S
O6 Cd2 2.273 . S
O6 Cd4 2.411 . S
O6 C9 1.320 . S
O7 Cd4 2.333 . S
O7 C9 1.214 . S
O8 Cd4 2.352 1_556 S
O8 C11 1.258 . S
C9 O6 1.320 . S
C9 O7 1.214 . S
O10 Cd2 2.277 . S
O10 C5 1.209 . S
C11 O8 1.258 . S
C11 O13 1.282 1_556 S
O12 Cd4 2.277 . S
O12 C5 1.226 . S
O13 Cd4 2.356 . S
O13 C11 1.282 1_554 S
C14 O15 1.306 . S
C14 O17 1.160 . S
O15 C14 1.306 . S
O15 Cd16 2.228 . S
Cd16 O15 2.228 . S
Cd16 O20 2.273 . S
Cd16 O24 2.277 . S
O17 C14 1.160 . S
O17 Cd18 2.203 . S
Cd18 O17 2.203 . S
Cd18 O20 2.411 . S
Cd18 O21 2.333 . S
Cd18 O22 2.352 . S
Cd18 O26 2.277 . S
Cd18 O27 2.356 . S
C19 O24 1.209 . S
C19 O26 1.226 . S
O20 Cd16 2.273 . S
O20 Cd18 2.411 . S
O20 C23 1.320 . S
O21 Cd18 2.333 . S
O21 C23 1.214 . S
O22 Cd18 2.352 . S
O22 C25 1.258 . S
C23 O20 1.320 . S
C23 O21 1.214 . S
O24 Cd16 2.277 . S
O24 C19 1.209 . S
C25 O22 1.258 . S
C25 O27 1.282 . S
O26 Cd18 2.277 . S
O26 C19 1.226 . S
O27 Cd18 2.356 . S
O27 C25 1.282 . S
C28 O29 1.306 . S
C28 O31 1.160 . S
O29 C28 1.306 . S
O29 Cd30 2.228 . S
Cd30 O29 2.228 . S
Cd30 O34 2.273 . S
Cd30 O38 2.277 . S
O31 C28 1.160 . S
O31 Cd32 2.203 . S
Cd32 O31 2.203 . S
Cd32 O34 2.411 . S
Cd32 O35 2.333 . S
Cd32 O36 2.352 . S
Cd32 O40 2.277 . S
Cd32 O41 2.356 . S
C33 O38 1.209 . S
C33 O40 1.226 . S
O34 Cd30 2.273 . S
O34 Cd32 2.411 . S
O34 C37 1.320 . S
O35 Cd32 2.333 . S
O35 C37 1.214 . S
O36 Cd32 2.352 . S
O36 C39 1.258 . S
C37 O34 1.320 . S
C37 O35 1.214 . S
O38 Cd30 2.277 . S
O38 C33 1.209 . S
C39 O36 1.258 . S
C39 O41 1.282 . S
O40 Cd32 2.277 . S
O40 C33 1.226 . S
O41 Cd32 2.356 . S
O41 C39 1.282 . S
C42 O43 1.306 . S
C42 O45 1.160 . S
O43 C42 1.306 . S
O43 Cd44 2.228 . S
Cd44 O43 2.228 . S
Cd44 O48 2.273 . S
Cd44 O52 2.277 . S
O45 C42 1.160 . S
O45 Cd46 2.203 . S
Cd46 O45 2.203 . S
Cd46 O48 2.411 . S
Cd46 O49 2.333 . S
Cd46 O50 2.352 . S
Cd46 O54 2.277 . S
Cd46 O55 2.356 . S
C47 O52 1.209 . S
C47 O54 1.226 . S
O48 Cd44 2.273 . S
O48 Cd46 2.411 . S
O48 C51 1.320 . S
O49 Cd46 2.333 . S
O49 C51 1.214 . S
O50 Cd46 2.352 . S
O50 C53 1.258 . S
C51 O48 1.320 . S
C51 O49 1.214 . S
O52 Cd44 2.277 . S
O52 C47 1.209 . S
C53 O50 1.258 . S
C53 O55 1.282 . S
O54 Cd46 2.277 . S
O54 C47 1.226 . S
O55 Cd46 2.356 . S
O55 C53 1.282 . S
C56 O57 1.306 . S
C56 O59 1.160 . S
O57 C56 1.306 . S
O57 Cd58 2.228 . S
Cd58 O57 2.228 . S
Cd58 O62 2.273 . S
Cd58 O66 2.277 . S
O59 C56 1.160 . S
O59 Cd60 2.203 . S
Cd60 O59 2.203 . S
Cd60 O62 2.411 . S
Cd60 O63 2.333 . S
Cd60 O64 2.352 . S
Cd60 O68 2.277 . S
Cd60 O69 2.356 . S
C61 O66 1.209 . S
C61 O68 1.226 . S
O62 Cd58 2.273 . S
O62 Cd60 2.411 . S
O62 C65 1.320 . S
O63 Cd60 2.333 . S
O63 C65 1.214 . S
O64 Cd60 2.352 . S
O64 C67 1.258 . S
C65 O62 1.320 . S
C65 O63 1.214 . S
O66 Cd58 2.277 . S
O66 C61 1.209 . S
C67 O64 1.258 . S
C67 O69 1.282 . S
O68 Cd60 2.277 . S
O68 C61 1.226 . S
O69 Cd60 2.356 . S
O69 C67 1.282 . S
C70 O71 1.306 . S
C70 O73 1.160 . S
O71 C70 1.306 . S
O71 Cd72 2.228 . S
Cd72 O71 2.228 . S
Cd72 O76 2.273 . S
Cd72 O80 2.277 . S
O73 C70 1.160 . S
O73 Cd74 2.203 . S
Cd74 O73 2.203 . S
Cd74 O76 2.411 . S
Cd74 O77 2.333 . S
Cd74 O78 2.352 . S
Cd74 O82 2.277 . S
Cd74 O83 2.356 . S
C75 O80 1.209 . S
C75 O82 1.226 . S
O76 Cd72 2.273 . S
O76 Cd74 2.411 . S
O76 C79 1.320 . S
O77 Cd74 2.333 . S
O77 C79 1.214 . S
O78 Cd74 2.352 . S
O78 C81 1.258 . S
C79 O76 1.320 . S
C79 O77 1.214 . S
O80 Cd72 2.277 . S
O80 C75 1.209 . S
C81 O78 1.258 . S
C81 O83 1.282 . S
O82 Cd74 2.277 . S
O82 C75 1.226 . S
O83 Cd74 2.356 . S
O83 C81 1.282 . S
C84 O85 1.306 . S
C84 O87 1.160 . S
O85 C84 1.306 . S
O85 Cd86 2.228 . S
Cd86 O85 2.228 . S
Cd86 O90 2.273 . S
Cd86 O94 2.277 . S
O87 C84 1.160 . S
O87 Cd88 2.203 . S
Cd88 O87 2.203 . S
Cd88 O90 2.411 . S
Cd88 O91 2.333 . S
Cd88 O92 2.352 . S
Cd88 O96 2.277 . S
Cd88 O97 2.356 . S
C89 O94 1.209 . S
C89 O96 1.226 . S
O90 Cd86 2.273 . S
O90 Cd88 2.411 . S
O90 C93 1.320 . S
O91 Cd88 2.333 . S
O91 C93 1.214 . S
O92 Cd88 2.352 . S
O92 C95 1.258 . S
C93 O90 1.320 . S
C93 O91 1.214 . S
O94 Cd86 2.277 . S
O94 C89 1.209 . S
C95 O92 1.258 . S
C95 O97 1.282 . S
O96 Cd88 2.277 . S
O96 C89 1.226 . S
O97 Cd88 2.356 . S
O97 C95 1.282 . S
C98 O99 1.306 . S
C98 O101 1.160 . S
O99 C98 1.306 . S
O99 Cd100 2.228 . S
Cd100 O99 2.228 . S
Cd100 O104 2.273 . S
Cd100 O108 2.277 1_554 S
O101 C98 1.160 . S
O101 Cd102 2.203 . S
Cd102 O101 2.203 . S
Cd102 O104 2.411 . S
Cd102 O105 2.333 1_554 S
Cd102 O106 2.352 . S
Cd102 O110 2.277 1_554 S
Cd102 O111 2.356 . S
C103 O108 1.209 . S
C103 O110 1.226 . S
O104 Cd100 2.273 . S
O104 Cd102 2.411 . S
O104 C107 1.320 . S
O105 Cd102 2.333 1_556 S
O105 C107 1.214 1_556 S
O106 Cd102 2.352 . S
O106 C109 1.258 . S
C107 O104 1.320 . S
C107 O105 1.214 1_554 S
O108 Cd100 2.277 1_556 S
O108 C103 1.209 . S
C109 O106 1.258 . S
C109 O111 1.282 . S
O110 Cd102 2.277 1_556 S
O110 C103 1.226 . S
O111 Cd102 2.356 . S
O111 C109 1.282 . S
C112 O113 1.306 . S
C112 O115 1.160 . S
O113 C112 1.306 . S
O113 Cd114 2.228 . S
Cd114 O113 2.228 . S
Cd114 O118 2.273 . S
Cd114 O122 2.277 . S
O115 C112 1.160 . S
O115 Cd116 2.203 . S
Cd116 O115 2.203 . S
Cd116 O118 2.411 . S
Cd116 O119 2.333 . S
Cd116 O120 2.352 . S
Cd116 O124 2.277 . S
Cd116 O125 2.356 . S
C117 O122 1.209 . S
C117 O124 1.226 . S
O118 Cd114 2.273 . S
O118 Cd116 2.411 . S
O118 C121 1.320 . S
O119 Cd116 2.333 . S
O119 C121 1.214 . S
O120 Cd116 2.352 . S
O120 C123 1.258 . S
C121 O118 1.320 . S
C121 O119 1.214 . S
O122 Cd114 2.277 . S
O122 C117 1.209 . S
C123 O120 1.258 . S
C123 O125 1.282 . S
O124 Cd116 2.277 . S
O124 C117 1.226 . S
O125 Cd116 2.356 . S
O125 C123 1.282 . S
C126 O127 1.306 . S
C126 O129 1.160 . S
O127 C126 1.306 . S
O127 Cd128 2.228 . S
Cd128 O127 2.228 . S
Cd128 O132 2.273 . S
Cd128 O136 2.277 . S
O129 C126 1.160 . S
O129 Cd130 2.203 . S
Cd130 O129 2.203 . S
Cd130 O132 2.411 . S
Cd130 O133 2.333 . S
Cd130 O134 2.352 . S
Cd130 O138 2.277 . S
Cd130 O139 2.356 . S
C131 O136 1.209 . S
C131 O138 1.226 . S
O132 Cd128 2.273 . S
O132 Cd130 2.411 . S
O132 C135 1.320 . S
O133 Cd130 2.333 . S
O133 C135 1.214 . S
O134 Cd130 2.352 . S
O134 C137 1.258 . S
C135 O132 1.320 . S
C135 O133 1.214 . S
O136 Cd128 2.277 . S
O136 C131 1.209 . S
C137 O134 1.258 . S
C137 O139 1.282 . S
O138 Cd130 2.277 . S
O138 C131 1.226 . S
O139 Cd130 2.356 . S
O139 C137 1.282 . S
C140 O141 1.306 . S
C140 O143 1.160 . S
O141 C140 1.306 . S
O141 Cd142 2.228 . S
Cd142 O141 2.228 . S
Cd142 O146 2.273 . S
Cd142 O150 2.277 . S
O143 C140 1.160 . S
O143 Cd144 2.203 . S
Cd144 O143 2.203 . S
Cd144 O146 2.411 . S
Cd144 O147 2.333 . S
Cd144 O148 2.352 . S
Cd144 O152 2.277 . S
Cd144 O153 2.356 . S
C145 O150 1.209 . S
C145 O152 1.226 . S
O146 Cd142 2.273 . S
O146 Cd144 2.411 . S
O146 C149 1.320 . S
O147 Cd144 2.333 . S
O147 C149 1.214 . S
O148 Cd144 2.352 . S
O148 C151 1.258 . S
C149 O146 1.320 . S
C149 O147 1.214 . S
O150 Cd142 2.277 . S
O150 C145 1.209 . S
C151 O148 1.258 . S
C151 O153 1.282 . S
O152 Cd144 2.277 . S
O152 C145 1.226 . S
O153 Cd144 2.356 . S
O153 C151 1.282 . S
C154 O155 1.306 . S
C154 O157 1.160 . S
O155 C154 1.306 . S
O155 Cd156 2.228 . S
Cd156 O155 2.228 . S
Cd156 O160 2.273 . S
Cd156 O164 2.277 . S
O157 C154 1.160 . S
O157 Cd158 2.203 . S
Cd158 O157 2.203 . S
Cd158 O160 2.411 . S
Cd158 O161 2.333 . S
Cd158 O162 2.352 . S
Cd158 O166 2.277 . S
Cd158 O167 2.356 . S
C159 O164 1.209 . S
C159 O166 1.226 . S
O160 Cd156 2.273 . S
O160 Cd158 2.411 . S
O160 C163 1.320 . S
O161 Cd158 2.333 . S
O161 C163 1.214 . S
O162 Cd158 2.352 . S
O162 C165 1.258 . S
C163 O160 1.320 . S
C163 O161 1.214 . S
O164 Cd156 2.277 . S
O164 C159 1.209 . S
C165 O162 1.258 . S
C165 O167 1.282 . S
O166 Cd158 2.277 . S
O166 C159 1.226 . S
O167 Cd158 2.356 . S
O167 C165 1.282 . S
H168 C176 0.950 . S
H169 C181 0.950 . S
H170 C178 0.950 . S
H171 C180 0.950 . S
H172 C182 0.950 . S
H173 C184 0.950 . S
H174 C186 0.950 . S
H175 C187 0.950 . S
C176 H168 0.950 . S
C176 C177 1.386 . S
C176 C178 1.391 . S
C177 C176 1.386 . S
C177 C181 1.393 . S
C178 H170 0.950 . S
C178 C176 1.391 . S
C178 C179 1.400 . S
C179 C178 1.400 . S
C179 C180 1.398 . S
C179 C185 1.491 . S
C180 H171 0.950 . S
C180 C179 1.398 . S
C180 C181 1.391 . S
C181 H169 0.950 . S
C181 C177 1.393 . S
C181 C180 1.391 . S
C182 H172 0.950 . S
C182 C183 1.386 . S
C182 C184 1.391 . S
C183 C182 1.386 . S
C183 C187 1.393 . S
C184 H173 0.950 . S
C184 C182 1.391 . S
C184 C185 1.400 . S
C185 C179 1.491 . S
C185 C184 1.400 . S
C185 C186 1.398 . S
C186 H174 0.950 . S
C186 C185 1.398 . S
C186 C187 1.391 . S
C187 H175 0.950 . S
C187 C183 1.393 . S
C187 C186 1.391 . S
H188 C196 0.950 . S
H189 C201 0.950 . S
H190 C198 0.950 . S
H191 C200 0.950 . S
H192 C202 0.950 . S
H193 C204 0.950 . S
H194 C206 0.950 . S
H195 C207 0.950 . S
C196 H188 0.950 . S
C196 C197 1.386 . S
C196 C198 1.391 . S
C197 C196 1.386 . S
C197 C201 1.393 . S
C198 H190 0.950 . S
C198 C196 1.391 . S
C198 C199 1.400 . S
C199 C198 1.400 . S
C199 C200 1.398 . S
C199 C205 1.491 . S
C200 H191 0.950 . S
C200 C199 1.398 . S
C200 C201 1.391 . S
C201 H189 0.950 . S
C201 C197 1.393 . S
C201 C200 1.391 . S
C202 H192 0.950 . S
C202 C203 1.386 . S
C202 C204 1.391 . S
C203 C202 1.386 . S
C203 C207 1.393 . S
C204 H193 0.950 . S
C204 C202 1.391 . S
C204 C205 1.400 . S
C205 C199 1.491 . S
C205 C204 1.400 . S
C205 C206 1.398 . S
C206 H194 0.950 . S
C206 C205 1.398 . S
C206 C207 1.391 . S
C207 H195 0.950 . S
C207 C203 1.393 . S
C207 C206 1.391 . S
H208 C216 0.950 . S
H209 C221 0.950 . S
H210 C218 0.950 . S
H211 C220 0.950 . S
H212 C222 0.950 . S
H213 C224 0.950 . S
H214 C226 0.950 . S
H215 C227 0.950 . S
C216 H208 0.950 . S
C216 C217 1.386 . S
C216 C218 1.391 . S
C217 C216 1.386 . S
C217 C221 1.393 . S
C218 H210 0.950 . S
C218 C216 1.391 . S
C218 C219 1.400 . S
C219 C218 1.400 . S
C219 C220 1.398 . S
C219 C225 1.491 . S
C220 H211 0.950 . S
C220 C219 1.398 . S
C220 C221 1.391 . S
C221 H209 0.950 . S
C221 C217 1.393 . S
C221 C220 1.391 . S
C222 H212 0.950 . S
C222 C223 1.386 . S
C222 C224 1.391 . S
C223 C222 1.386 . S
C223 C227 1.393 . S
C224 H213 0.950 . S
C224 C222 1.391 . S
C224 C225 1.400 . S
C225 C219 1.491 . S
C225 C224 1.400 . S
C225 C226 1.398 . S
C226 H214 0.950 . S
C226 C225 1.398 . S
C226 C227 1.391 . S
C227 H215 0.950 . S
C227 C223 1.393 . S
C227 C226 1.391 . S
H228 C236 0.950 . S
H229 C241 0.950 . S
H230 C238 0.950 . S
H231 C240 0.950 . S
H232 C242 0.950 . S
H233 C244 0.950 . S
H234 C246 0.950 . S
H235 C247 0.950 . S
C236 H228 0.950 . S
C236 C237 1.386 . S
C236 C238 1.391 . S
C237 C236 1.386 . S
C237 C241 1.393 . S
C238 H230 0.950 . S
C238 C236 1.391 . S
C238 C239 1.400 . S
C239 C238 1.400 . S
C239 C240 1.398 . S
C239 C245 1.491 . S
C240 H231 0.950 . S
C240 C239 1.398 . S
C240 C241 1.391 . S
C241 H229 0.950 . S
C241 C237 1.393 . S
C241 C240 1.391 . S
C242 H232 0.950 . S
C242 C243 1.386 . S
C242 C244 1.391 . S
C243 C242 1.386 . S
C243 C247 1.393 . S
C244 H233 0.950 . S
C244 C242 1.391 . S
C244 C245 1.400 . S
C245 C239 1.491 . S
C245 C244 1.400 . S
C245 C246 1.398 . S
C246 H234 0.950 . S
C246 C245 1.398 . S
C246 C247 1.391 . S
C247 H235 0.950 . S
C247 C243 1.393 . S
C247 C246 1.391 . S
H248 C256 0.950 . S
H249 C261 0.950 . S
H250 C258 0.950 . S
H251 C260 0.950 . S
H252 C262 0.950 . S
H253 C264 0.950 1_556 S
H254 C266 0.950 1_556 S
H255 C267 0.950 . S
C256 H248 0.950 . S
C256 C257 1.386 . S
C256 C258 1.391 . S
C257 C256 1.386 . S
C257 C261 1.393 . S
C258 H250 0.950 . S
C258 C256 1.391 . S
C258 C259 1.400 . S
C259 C258 1.400 . S
C259 C260 1.398 . S
C259 C265 1.491 . S
C260 H251 0.950 . S
C260 C259 1.398 . S
C260 C261 1.391 . S
C261 H249 0.950 . S
C261 C257 1.393 . S
C261 C260 1.391 . S
C262 H252 0.950 . S
C262 C263 1.386 . S
C262 C264 1.391 . S
C263 C262 1.386 . S
C263 C267 1.393 . S
C264 H253 0.950 1_554 S
C264 C262 1.391 . S
C264 C265 1.400 1_554 S
C265 C259 1.491 . S
C265 C264 1.400 1_556 S
C265 C266 1.398 1_556 S
C266 H254 0.950 1_554 S
C266 C265 1.398 1_554 S
C266 C267 1.391 . S
C267 H255 0.950 . S
C267 C263 1.393 . S
C267 C266 1.391 . S
H268 C276 0.950 . S
H269 C281 0.950 . S
H270 C278 0.950 . S
H271 C280 0.950 . S
H272 C282 0.950 . S
H273 C284 0.950 . S
H274 C286 0.950 . S
H275 C287 0.950 . S
C276 H268 0.950 . S
C276 C277 1.386 . S
C276 C278 1.391 . S
C277 C276 1.386 . S
C277 C281 1.393 . S
C278 H270 0.950 . S
C278 C276 1.391 . S
C278 C279 1.400 . S
C279 C278 1.400 . S
C279 C280 1.398 . S
C279 C285 1.491 . S
C280 H271 0.950 . S
C280 C279 1.398 . S
C280 C281 1.391 . S
C281 H269 0.950 . S
C281 C277 1.393 . S
C281 C280 1.391 . S
C282 H272 0.950 . S
C282 C283 1.386 . S
C282 C284 1.391 . S
C283 C282 1.386 . S
C283 C287 1.393 . S
C284 H273 0.950 . S
C284 C282 1.391 . S
C284 C285 1.400 . S
C285 C279 1.491 . S
C285 C284 1.400 . S
C285 C286 1.398 . S
C286 H274 0.950 . S
C286 C285 1.398 . S
C286 C287 1.391 . S
C287 H275 0.950 . S
C287 C283 1.393 . S
C287 C286 1.391 . S
H288 C296 0.950 . S
H289 C301 0.950 . S
H290 C298 0.950 . S
H291 C300 0.950 . S
H292 C302 0.950 . S
H293 C304 0.950 . S
H294 C306 0.950 . S
H295 C307 0.950 . S
C296 H288 0.950 . S
C296 C297 1.386 . S
C296 C298 1.391 . S
C297 C296 1.386 . S
C297 C301 1.393 . S
C298 H290 0.950 . S
C298 C296 1.391 . S
C298 C299 1.400 . S
C299 C298 1.400 . S
C299 C300 1.398 . S
C299 C305 1.491 . S
C300 H291 0.950 . S
C300 C299 1.398 . S
C300 C301 1.391 . S
C301 H289 0.950 . S
C301 C297 1.393 . S
C301 C300 1.391 . S
C302 H292 0.950 . S
C302 C303 1.386 . S
C302 C304 1.391 . S
C303 C302 1.386 . S
C303 C307 1.393 . S
C304 H293 0.950 . S
C304 C302 1.391 . S
C304 C305 1.400 . S
C305 C299 1.491 . S
C305 C304 1.400 . S
C305 C306 1.398 . S
C306 H294 0.950 . S
C306 C305 1.398 . S
C306 C307 1.391 . S
C307 H295 0.950 . S
C307 C303 1.393 . S
C307 C306 1.391 . S
H308 C316 0.950 . S
H309 C321 0.950 . S
H310 C318 0.950 . S
H311 C320 0.950 . S
H312 C322 0.950 . S
H313 C324 0.950 . S
H314 C326 0.950 . S
H315 C327 0.950 . S
C316 H308 0.950 . S
C316 C317 1.386 . S
C316 C318 1.391 . S
C317 C316 1.386 . S
C317 C321 1.393 . S
C318 H310 0.950 . S
C318 C316 1.391 . S
C318 C319 1.400 . S
C319 C318 1.400 . S
C319 C320 1.398 . S
C319 C325 1.491 . S
C320 H311 0.950 . S
C320 C319 1.398 . S
C320 C321 1.391 . S
C321 H309 0.950 . S
C321 C317 1.393 . S
C321 C320 1.391 . S
C322 H312 0.950 . S
C322 C323 1.386 . S
C322 C324 1.391 . S
C323 C322 1.386 . S
C323 C327 1.393 . S
C324 H313 0.950 . S
C324 C322 1.391 . S
C324 C325 1.400 . S
C325 C319 1.491 . S
C325 C324 1.400 . S
C325 C326 1.398 . S
C326 H314 0.950 . S
C326 C325 1.398 . S
C326 C327 1.391 . S
C327 H315 0.950 . S
C327 C323 1.393 . S
C327 C326 1.391 . S
H328 C336 0.950 . S
H329 C341 0.950 . S
H330 C338 0.950 . S
H331 C340 0.950 . S
H332 C342 0.950 . S
H333 C344 0.950 . S
H334 C346 0.950 . S
H335 C347 0.950 . S
C336 H328 0.950 . S
C336 C337 1.386 . S
C336 C338 1.391 . S
C337 C336 1.386 . S
C337 C341 1.393 . S
C338 H330 0.950 . S
C338 C336 1.391 . S
C338 C339 1.400 . S
C339 C338 1.400 . S
C339 C340 1.398 . S
C339 C345 1.491 . S
C340 H331 0.950 . S
C340 C339 1.398 . S
C340 C341 1.391 . S
C341 H329 0.950 . S
C341 C337 1.393 . S
C341 C340 1.391 . S
C342 H332 0.950 . S
C342 C343 1.386 . S
C342 C344 1.391 . S
C343 C342 1.386 . S
C343 C347 1.393 . S
C344 H333 0.950 . S
C344 C342 1.391 . S
C344 C345 1.400 . S
C345 C339 1.491 . S
C345 C344 1.400 . S
C345 C346 1.398 . S
C346 H334 0.950 . S
C346 C345 1.398 . S
C346 C347 1.391 . S
C347 H335 0.950 . S
C347 C343 1.393 . S
C347 C346 1.391 . S
H348 C356 0.950 . S
H349 C361 0.950 . S
H350 C358 0.950 . S
H351 C360 0.950 . S
H352 C362 0.950 . S
H353 C364 0.950 . S
H354 C366 0.950 . S
H355 C367 0.950 . S
C356 H348 0.950 . S
C356 C357 1.386 . S
C356 C358 1.391 . S
C357 C356 1.386 . S
C357 C361 1.393 . S
C358 H350 0.950 . S
C358 C356 1.391 . S
C358 C359 1.400 . S
C359 C358 1.400 . S
C359 C360 1.398 . S
C359 C365 1.491 . S
C360 H351 0.950 . S
C360 C359 1.398 . S
C360 C361 1.391 . S
C361 H349 0.950 . S
C361 C357 1.393 . S
C361 C360 1.391 . S
C362 H352 0.950 . S
C362 C363 1.386 . S
C362 C364 1.391 . S
C363 C362 1.386 . S
C363 C367 1.393 . S
C364 H353 0.950 . S
C364 C362 1.391 . S
C364 C365 1.400 . S
C365 C359 1.491 . S
C365 C364 1.400 . S
C365 C366 1.398 . S
C366 H354 0.950 . S
C366 C365 1.398 . S
C366 C367 1.391 . S
C367 H355 0.950 . S
C367 C363 1.393 . S
C367 C366 1.391 . S
H368 C376 0.950 . S
H369 C381 0.950 . S
H370 C378 0.950 . S
H371 C380 0.950 . S
H372 C382 0.950 . S
H373 C384 0.950 . S
H374 C386 0.950 . S
H375 C387 0.950 . S
C376 H368 0.950 . S
C376 C377 1.386 . S
C376 C378 1.391 . S
C377 C376 1.386 . S
C377 C381 1.393 . S
C378 H370 0.950 . S
C378 C376 1.391 . S
C378 C379 1.400 . S
C379 C378 1.400 . S
C379 C380 1.398 . S
C379 C385 1.491 . S
C380 H371 0.950 . S
C380 C379 1.398 . S
C380 C381 1.391 . S
C381 H369 0.950 . S
C381 C377 1.393 . S
C381 C380 1.391 . S
C382 H372 0.950 . S
C382 C383 1.386 . S
C382 C384 1.391 . S
C383 C382 1.386 . S
C383 C387 1.393 . S
C384 H373 0.950 . S
C384 C382 1.391 . S
C384 C385 1.400 . S
C385 C379 1.491 . S
C385 C384 1.400 . S
C385 C386 1.398 . S
C386 H374 0.950 . S
C386 C385 1.398 . S
C386 C387 1.391 . S
C387 H375 0.950 . S
C387 C383 1.393 . S
C387 C386 1.391 . S
H388 C396 0.950 . S
H389 C401 0.950 . S
H390 C398 0.950 . S
H391 C400 0.950 . S
H392 C402 0.950 . S
H393 C404 0.947 1_554 S
H394 C406 0.950 . S
H395 C407 0.950 . S
C396 H388 0.950 . S
C396 C397 1.386 . S
C396 C398 1.391 . S
C397 C396 1.386 . S
C397 C401 1.393 . S
C398 H390 0.950 . S
C398 C396 1.391 . S
C398 C399 1.400 . S
C399 C398 1.400 . S
C399 C400 1.398 . S
C399 C405 1.491 . S
C400 H391 0.950 . S
C400 C399 1.398 . S
C400 C401 1.391 . S
C401 H389 0.950 . S
C401 C397 1.393 . S
C401 C400 1.391 . S
C402 H392 0.950 . S
C402 C403 1.386 1_554 S
C402 C404 1.389 1_554 S
C403 C402 1.386 1_556 S
C403 C407 1.393 . S
C404 H393 0.947 1_556 S
C404 C402 1.389 1_556 S
C404 C405 1.405 . S
C405 C399 1.491 . S
C405 C404 1.405 . S
C405 C406 1.398 . S
C406 H394 0.950 . S
C406 C405 1.398 . S
C406 C407 1.391 . S
C407 H395 0.950 . S
C407 C403 1.393 . S
C407 C406 1.391 . S
H408 C416 0.950 . S
H409 C421 0.950 . S
H410 C418 0.950 . S
H411 C420 0.950 . S
H412 C422 0.950 . S
H413 C424 0.950 . S
H414 C426 0.950 . S
H415 C427 0.950 . S
C416 H408 0.950 . S
C416 C417 1.386 . S
C416 C418 1.391 . S
C417 C416 1.386 . S
C417 C421 1.393 . S
C418 H410 0.950 . S
C418 C416 1.391 . S
C418 C419 1.400 . S
C419 C418 1.400 . S
C419 C420 1.398 . S
C419 C425 1.491 . S
C420 H411 0.950 . S
C420 C419 1.398 . S
C420 C421 1.391 . S
C421 H409 0.950 . S
C421 C417 1.393 . S
C421 C420 1.391 . S
C422 H412 0.950 . S
C422 C423 1.386 . S
C422 C424 1.391 . S
C423 C422 1.386 . S
C423 C427 1.393 . S
C424 H413 0.950 . S
C424 C422 1.391 . S
C424 C425 1.400 . S
C425 C419 1.491 . S
C425 C424 1.400 . S
C425 C426 1.398 . S
C426 H414 0.950 . S
C426 C425 1.398 . S
C426 C427 1.391 . S
C427 H415 0.950 . S
C427 C423 1.393 . S
C427 C426 1.391 . S
H428 C436 0.950 . S
H429 C441 0.950 . S
H430 C438 0.950 . S
H431 C440 0.950 . S
H432 C442 0.950 . S
H433 C444 0.950 . S
H434 C446 0.950 . S
H435 C447 0.950 . S
C436 H428 0.950 . S
C436 C437 1.386 . S
C436 C438 1.391 1_554 S
C437 C436 1.386 . S
C437 C441 1.393 . S
C438 H430 0.950 . S
C438 C436 1.391 1_556 S
C438 C439 1.400 . S
C439 C438 1.400 . S
C439 C440 1.398 1_556 S
C439 C445 1.491 . S
C440 H431 0.950 . S
C440 C439 1.398 1_554 S
C440 C441 1.391 . S
C441 H429 0.950 . S
C441 C437 1.393 . S
C441 C440 1.391 . S
C442 H432 0.950 . S
C442 C443 1.386 . S
C442 C444 1.391 . S
C443 C442 1.386 . S
C443 C447 1.393 . S
C444 H433 0.950 . S
C444 C442 1.391 . S
C444 C445 1.400 . S
C445 C439 1.491 . S
C445 C444 1.400 . S
C445 C446 1.398 . S
C446 H434 0.950 . S
C446 C445 1.398 . S
C446 C447 1.391 . S
C447 H435 0.950 . S
C447 C443 1.393 . S
C447 C446 1.391 . S
H448 C456 0.950 . S
H449 C461 0.950 . S
H450 C458 0.950 . S
H451 C460 0.950 . S
H452 C462 0.950 . S
H453 C464 0.950 . S
H454 C466 0.950 . S
H455 C467 0.950 1_556 S
C456 H448 0.950 . S
C456 C457 1.386 . S
C456 C458 1.391 . S
C457 C456 1.386 . S
C457 C461 1.393 . S
C458 H450 0.950 . S
C458 C456 1.391 . S
C458 C459 1.400 . S
C459 C458 1.400 . S
C459 C460 1.398 . S
C459 C465 1.491 . S
C460 H451 0.950 . S
C460 C459 1.398 . S
C460 C461 1.391 . S
C461 H449 0.950 . S
C461 C457 1.393 . S
C461 C460 1.391 . S
C462 H452 0.950 . S
C462 C463 1.386 . S
C462 C464 1.391 . S
C463 C462 1.386 . S
C463 C467 1.393 . S
C464 H453 0.950 . S
C464 C462 1.391 . S
C464 C465 1.400 . S
C465 C459 1.491 . S
C465 C464 1.400 . S
C465 C466 1.398 . S
C466 H454 0.950 . S
C466 C465 1.398 . S
C466 C467 1.391 . S
C467 H455 0.950 1_554 S
C467 C463 1.393 . S
C467 C466 1.391 . S
H468 C476 0.950 . S
H469 C481 0.950 . S
H470 C478 0.950 . S
H471 C480 0.950 . S
H472 C482 0.950 . S
H473 C484 0.950 . S
H474 C486 0.950 . S
H475 C487 0.950 . S
C476 H468 0.950 . S
C476 C477 1.386 . S
C476 C478 1.391 . S
C477 C476 1.386 . S
C477 C481 1.393 . S
C478 H470 0.950 . S
C478 C476 1.391 . S
C478 C479 1.400 . S
C479 C478 1.400 . S
C479 C480 1.398 . S
C479 C485 1.491 . S
C480 H471 0.950 . S
C480 C479 1.398 . S
C480 C481 1.391 . S
C481 H469 0.950 . S
C481 C477 1.393 . S
C481 C480 1.391 . S
C482 H472 0.950 . S
C482 C483 1.386 . S
C482 C484 1.391 . S
C483 C482 1.386 . S
C483 C487 1.393 . S
C484 H473 0.950 . S
C484 C482 1.391 . S
C484 C485 1.400 . S
C485 C479 1.491 . S
C485 C484 1.400 . S
C485 C486 1.398 . S
C486 H474 0.950 . S
C486 C485 1.398 . S
C486 C487 1.391 . S
C487 H475 0.950 . S
C487 C483 1.393 . S
C487 C486 1.391 . S
H488 C496 0.950 . S
H489 C501 0.950 . S
H490 C498 0.950 . S
H491 C500 0.950 . S
H492 C502 0.950 . S
H493 C504 0.950 . S
H494 C506 0.950 . S
H495 C507 0.950 . S
C496 H488 0.950 . S
C496 C497 1.386 . S
C496 C498 1.391 . S
C497 C496 1.386 . S
C497 C501 1.393 . S
C498 H490 0.950 . S
C498 C496 1.391 . S
C498 C499 1.400 . S
C499 C498 1.400 . S
C499 C500 1.398 . S
C499 C505 1.491 . S
C500 H491 0.950 . S
C500 C499 1.398 . S
C500 C501 1.391 . S
C501 H489 0.950 . S
C501 C497 1.393 . S
C501 C500 1.391 . S
C502 H492 0.950 . S
C502 C503 1.386 . S
C502 C504 1.391 . S
C503 C502 1.386 . S
C503 C507 1.393 . S
C504 H493 0.950 . S
C504 C502 1.391 . S
C504 C505 1.400 . S
C505 C499 1.491 . S
C505 C504 1.400 . S
C505 C506 1.398 . S
C506 H494 0.950 . S
C506 C505 1.398 . S
C506 C507 1.391 . S
C507 H495 0.950 . S
C507 C503 1.393 . S
C507 C506 1.391 . S
H508 C516 0.950 . S
H509 C521 0.950 . S
H510 C518 0.950 . S
H511 C520 0.950 . S
H512 C522 0.950 . S
H513 C524 0.950 . S
H514 C526 0.950 . S
H515 C527 0.950 . S
C516 H508 0.950 . S
C516 C517 1.386 . S
C516 C518 1.391 . S
C517 C516 1.386 . S
C517 C521 1.393 . S
C518 H510 0.950 . S
C518 C516 1.391 . S
C518 C519 1.400 . S
C519 C518 1.400 . S
C519 C520 1.398 . S
C519 C525 1.491 . S
C520 H511 0.950 . S
C520 C519 1.398 . S
C520 C521 1.391 . S
C521 H509 0.950 . S
C521 C517 1.393 . S
C521 C520 1.391 . S
C522 H512 0.950 . S
C522 C523 1.386 . S
C522 C524 1.391 . S
C523 C522 1.386 . S
C523 C527 1.393 . S
C524 H513 0.950 . S
C524 C522 1.391 . S
C524 C525 1.400 . S
C525 C519 1.491 . S
C525 C524 1.400 . S
C525 C526 1.398 . S
C526 H514 0.950 . S
C526 C525 1.398 . S
C526 C527 1.391 . S
C527 H515 0.950 . S
C527 C523 1.393 . S
C527 C526 1.391 . S
H528 C536 0.950 . S
H529 C541 0.950 1_554 S
H530 C538 0.950 . S
H531 C540 0.950 . S
H532 C542 0.950 . S
H533 C544 0.950 . S
H534 C546 0.950 . S
H535 C547 0.950 . S
C536 H528 0.950 . S
C536 C537 1.386 . S
C536 C538 1.391 . S
C537 C536 1.386 . S
C537 C541 1.393 . S
C538 H530 0.950 . S
C538 C536 1.391 . S
C538 C539 1.400 . S
C539 C538 1.400 . S
C539 C540 1.398 . S
C539 C545 1.491 1_455 S
C540 H531 0.950 . S
C540 C539 1.398 . S
C540 C541 1.391 . S
C541 H529 0.950 1_556 S
C541 C537 1.393 . S
C541 C540 1.391 . S
C542 H532 0.950 . S
C542 C543 1.386 . S
C542 C544 1.391 . S
C543 C542 1.386 . S
C543 C547 1.393 . S
C544 H533 0.950 . S
C544 C542 1.391 . S
C544 C545 1.400 . S
C545 C539 1.491 1_655 S
C545 C544 1.400 . S
C545 C546 1.398 . S
C546 H534 0.950 . S
C546 C545 1.398 . S
C546 C547 1.391 . S
C547 H535 0.950 . S
C547 C543 1.393 . S
C547 C546 1.391 . S
H548 C556 0.950 . S
H549 C561 0.950 . S
H550 C558 0.950 . S
H551 C560 0.950 1_545 S
H552 C562 0.950 . S
H553 C564 0.950 1_556 S
H554 C566 0.950 1_565 S
H555 C567 0.950 . S
C556 H548 0.950 . S
C556 C557 1.386 1_554 S
C556 C558 1.391 . S
C557 C556 1.386 1_556 S
C557 C561 1.393 . S
C558 H550 0.950 . S
C558 C556 1.391 . S
C558 C559 1.400 . S
C559 C558 1.400 . S
C559 C560 1.398 1_554 S
C559 C565 1.491 1_565 S
C560 H551 0.950 1_565 S
C560 C559 1.398 1_556 S
C560 C561 1.391 . S
C561 H549 0.950 . S
C561 C557 1.393 . S
C561 C560 1.391 . S
C562 H552 0.950 . S
C562 C563 1.386 . S
C562 C564 1.391 . S
C563 C562 1.386 . S
C563 C567 1.393 . S
C564 H553 0.950 1_554 S
C564 C562 1.391 . S
C564 C565 1.400 . S
C565 C559 1.491 1_545 S
C565 C564 1.400 . S
C565 C566 1.398 . S
C566 H554 0.950 1_545 S
C566 C565 1.398 . S
C566 C567 1.391 . S
C567 H555 0.950 . S
C567 C563 1.393 . S
C567 C566 1.391 . S
H568 C576 0.950 . S
H569 C581 0.950 . S
H570 C578 0.950 . S
H571 C580 0.950 . S
H572 C582 0.950 . S
H573 C584 0.950 . S
H574 C586 0.950 . S
H575 C587 0.950 . S
C576 H568 0.950 . S
C576 C577 1.386 . S
C576 C578 1.391 . S
C577 C576 1.386 . S
C577 C581 1.393 . S
C578 H570 0.950 . S
C578 C576 1.391 . S
C578 C579 1.400 . S
C579 C578 1.400 . S
C579 C580 1.398 . S
C579 C585 1.491 . S
C580 H571 0.950 . S
C580 C579 1.398 . S
C580 C581 1.391 . S
C581 H569 0.950 . S
C581 C577 1.393 . S
C581 C580 1.391 . S
C582 H572 0.950 . S
C582 C583 1.386 . S
C582 C584 1.391 . S
C583 C582 1.386 . S
C583 C587 1.393 . S
C584 H573 0.950 . S
C584 C582 1.391 . S
C584 C585 1.400 . S
C585 C579 1.491 . S
C585 C584 1.400 . S
C585 C586 1.398 . S
C586 H574 0.950 . S
C586 C585 1.398 . S
C586 C587 1.391 . S
C587 H575 0.950 . S
C587 C583 1.393 . S
C587 C586 1.391 . S
H588 C596 0.950 . S
H589 C601 0.950 . S
H590 C598 0.950 . S
H591 C600 0.950 1_655 S
H592 C602 0.950 . S
H593 C604 0.950 . S
H594 C606 0.950 1_455 S
H595 C607 0.950 . S
C596 H588 0.950 . S
C596 C597 1.386 . S
C596 C598 1.391 . S
C597 C596 1.386 . S
C597 C601 1.393 . S
C598 H590 0.950 . S
C598 C596 1.391 . S
C598 C599 1.400 . S
C599 C598 1.400 . S
C599 C600 1.398 . S
C599 C605 1.491 1_455 S
C600 H591 0.950 1_455 S
C600 C599 1.398 . S
C600 C601 1.391 . S
C601 H589 0.950 . S
C601 C597 1.393 . S
C601 C600 1.391 . S
C602 H592 0.950 . S
C602 C603 1.386 . S
C602 C604 1.391 . S
C603 C602 1.386 . S
C603 C607 1.393 . S
C604 H593 0.950 . S
C604 C602 1.391 . S
C604 C605 1.400 . S
C605 C599 1.491 1_655 S
C605 C604 1.400 . S
C605 C606 1.398 . S
C606 H594 0.950 1_655 S
C606 C605 1.398 . S
C606 C607 1.391 . S
C607 H595 0.950 . S
C607 C603 1.393 . S
C607 C606 1.391 . S
H608 C616 0.950 . S
H609 C621 0.950 . S
H610 C618 0.950 . S
H611 C620 0.950 . S
H612 C622 0.950 . S
H613 C624 0.950 . S
H614 C626 0.950 . S
H615 C627 0.950 . S
C616 H608 0.950 . S
C616 C617 1.386 . S
C616 C618 1.391 . S
C617 C616 1.386 . S
C617 C621 1.393 . S
C618 H610 0.950 . S
C618 C616 1.391 . S
C618 C619 1.400 . S
C619 C618 1.400 . S
C619 C620 1.398 . S
C619 C625 1.491 1_545 S
C620 H611 0.950 . S
C620 C619 1.398 . S
C620 C621 1.391 . S
C621 H609 0.950 . S
C621 C617 1.393 . S
C621 C620 1.391 . S
C622 H612 0.950 . S
C622 C623 1.386 . S
C622 C624 1.391 . S
C623 C622 1.386 . S
C623 C627 1.393 . S
C624 H613 0.950 . S
C624 C622 1.391 . S
C624 C625 1.400 . S
C625 C619 1.491 1_565 S
C625 C624 1.400 . S
C625 C626 1.398 . S
C626 H614 0.950 . S
C626 C625 1.398 . S
C626 C627 1.391 . S
C627 H615 0.950 . S
C627 C623 1.393 . S
C627 C626 1.391 . S
H628 C636 0.950 . S
H629 C641 0.950 . S
H630 C638 0.950 . S
H631 C640 0.950 . S
H632 C642 0.950 . S
H633 C644 0.950 . S
H634 C646 0.950 . S
H635 C647 0.950 . S
C636 H628 0.950 . S
C636 C637 1.386 . S
C636 C638 1.391 . S
C637 C636 1.386 . S
C637 C641 1.393 . S
C638 H630 0.950 . S
C638 C636 1.391 . S
C638 C639 1.400 . S
C639 C638 1.400 . S
C639 C640 1.398 . S
C639 C645 1.491 . S
C640 H631 0.950 . S
C640 C639 1.398 . S
C640 C641 1.391 . S
C641 H629 0.950 . S
C641 C637 1.393 . S
C641 C640 1.391 . S
C642 H632 0.950 . S
C642 C643 1.386 . S
C642 C644 1.391 . S
C643 C642 1.386 . S
C643 C647 1.393 . S
C644 H633 0.950 . S
C644 C642 1.391 . S
C644 C645 1.400 . S
C645 C639 1.491 . S
C645 C644 1.400 . S
C645 C646 1.398 . S
C646 H634 0.950 . S
C646 C645 1.398 . S
C646 C647 1.391 . S
C647 H635 0.950 . S
C647 C643 1.393 . S
C647 C646 1.391 . S
C177 C5 1.517 . S
C183 C145 1.516 . S
C197 C159 1.516 . S
C203 C19 1.524 . S
C217 C33 1.515 . S
C223 C89 1.518 . S
C237 C47 1.516 . S
C243 C103 1.524 . S
C257 C61 1.516 . S
C263 C117 1.517 . S
C277 C131 1.515 . S
C283 C75 1.518 1_554 S
C297 C9 1.601 . S
C303 C121 1.597 . S
C317 C23 1.597 . S
C323 C135 1.597 . S
C337 C149 1.599 . S
C343 C37 1.595 . S
C357 C51 1.595 . S
C363 C163 1.600 . S
C377 C65 1.595 . S
C383 C93 1.600 . S
C397 C79 1.598 . S
C403 C107 1.600 1_556 S
C417 C140 1.271 . S
C423 C0 1.278 . S
C437 C14 1.273 . S
C443 C154 1.283 . S
C457 C28 1.273 . S
C463 C84 1.282 1_554 S
C477 C42 1.272 . S
C483 C98 1.276 . S
C497 C112 1.276 . S
C503 C56 1.282 . S
C517 C70 1.272 . S
C523 C126 1.282 . S
C537 C11 1.411 . S
C543 C165 1.409 . S
C557 C95 1.411 . S
C563 C25 1.407 . S
C577 C109 1.405 . S
C583 C39 1.410 . S
C597 C123 1.411 . S
C603 C53 1.408 . S
C617 C137 1.410 . S
C623 C67 1.411 . S
C637 C151 1.411 . S
C643 C81 1.407 . S
