# Generated by pormake.
# Topology snw, (6)-cn, num edge types: 1
# Building blocks:
#     Node 0, Type 0, BuildingBlock: OJICUG_clean_sbu_0, # of connection points: 6
#     Node 1, Type 0, BuildingBlock: OJICUG_clean_sbu_0, # of connection points: 6
#     Node 2, Type 0, BuildingBlock: OJICUG_clean_sbu_0, # of connection points: 6
#     Node 3, Type 0, BuildingBlock: OJICUG_clean_sbu_0, # of connection points: 6
#     Node 4, Type 0, BuildingBlock: OJICUG_clean_sbu_0, # of connection points: 6
#     Node 5, Type 0, BuildingBlock: OJICUG_clean_sbu_0, # of connection points: 6
#     Node 6, Type 0, BuildingBlock: OJICUG_clean_sbu_0, # of connection points: 6
#     Node 7, Type 0, BuildingBlock: OJICUG_clean_sbu_0, # of connection points: 6
#     Edge 8, Type (0, 0), BuildingBlock: CIFDUS_clean_linker_0, # of connection points: 2
#     Edge 9, Type (0, 0), BuildingBlock: CIFDUS_clean_linker_0, # of connection points: 2
#     Edge 10, Type (0, 0), BuildingBlock: CIFDUS_clean_linker_0, # of connection points: 2
#     Edge 11, Type (0, 0), BuildingBlock: CIFDUS_clean_linker_0, # of connection points: 2
#     Edge 12, Type (0, 0), BuildingBlock: CIFDUS_clean_linker_0, # of connection points: 2
#     Edge 13, Type (0, 0), BuildingBlock: CIFDUS_clean_linker_0, # of connection points: 2
#     Edge 14, Type (0, 0), BuildingBlock: CIFDUS_clean_linker_0, # of connection points: 2
#     Edge 15, Type (0, 0), BuildingBlock: CIFDUS_clean_linker_0, # of connection points: 2
#     Edge 16, Type (0, 0), BuildingBlock: CIFDUS_clean_linker_0, # of connection points: 2
#     Edge 17, Type (0, 0), BuildingBlock: CIFDUS_clean_linker_0, # of connection points: 2
#     Edge 18, Type (0, 0), BuildingBlock: CIFDUS_clean_linker_0, # of connection points: 2
#     Edge 19, Type (0, 0), BuildingBlock: CIFDUS_clean_linker_0, # of connection points: 2
#     Edge 20, Type (0, 0), BuildingBlock: CIFDUS_clean_linker_0, # of connection points: 2
#     Edge 21, Type (0, 0), BuildingBlock: CIFDUS_clean_linker_0, # of connection points: 2
#     Edge 22, Type (0, 0), BuildingBlock: CIFDUS_clean_linker_0, # of connection points: 2
#     Edge 23, Type (0, 0), BuildingBlock: CIFDUS_clean_linker_0, # of connection points: 2
#     Edge 24, Type (0, 0), BuildingBlock: CIFDUS_clean_linker_0, # of connection points: 2
#     Edge 25, Type (0, 0), BuildingBlock: CIFDUS_clean_linker_0, # of connection points: 2
#     Edge 26, Type (0, 0), BuildingBlock: CIFDUS_clean_linker_0, # of connection points: 2
#     Edge 27, Type (0, 0), BuildingBlock: CIFDUS_clean_linker_0, # of connection points: 2
#     Edge 28, Type (0, 0), BuildingBlock: CIFDUS_clean_linker_0, # of connection points: 2
#     Edge 29, Type (0, 0), BuildingBlock: CIFDUS_clean_linker_0, # of connection points: 2
#     Edge 30, Type (0, 0), BuildingBlock: CIFDUS_clean_linker_0, # of connection points: 2
#     Edge 31, Type (0, 0), BuildingBlock: CIFDUS_clean_linker_0, # of connection points: 2
# Relax obj value: 0.000
# Max RMSD: 0.008
# Mean RMSD: 0.008
data_MOF--net-snw--node1-OJICUG_clean_sbu_0--edge1-CIFDUS_clean_linker_0
_symmetry_space_group_name_H-M    P1
_symmetry_Int_Tables_number       1
_symmetry_cell_setting            triclinic
loop_
_symmetry_equiv_pos_as_xyz
'x, y, z'
_cell_length_a     19.477156
_cell_length_b     19.484837
_cell_length_c     65.316379
_cell_angle_alpha  90.682521
_cell_angle_beta   89.482504
_cell_angle_gamma 90.377266
loop_
_atom_site_label
_atom_site_type_symbol
_atom_site_fract_x
_atom_site_fract_y
_atom_site_fract_z
_atom_type_partial_charge
Sc0 Sc 0.10709 0.23972 0.06761 0.0
Sc1 Sc 0.92629 0.23967 0.06938 0.0
Sc2 Sc 0.02134 0.25069 0.11514 0.0
O3 O 0.01814 0.24338 0.08405 0.0
C4 C 0.14651 0.15108 0.10648 0.0
C5 C 0.01618 0.13219 0.04276 0.0
C6 C 0.90107 0.14104 0.10743 0.0
C7 C 0.01341 0.33726 0.04027 0.0
C8 C 0.14026 0.35424 0.1015 0.0
C9 C 0.89256 0.34421 0.10644 0.0
O10 O 0.15494 0.16768 0.08786 0.0
O11 O 0.95939 0.15951 0.04809 0.0
O12 O 0.94672 0.16922 0.11863 0.0
O13 O 0.07045 0.31142 0.04541 0.0
O14 O 0.09621 0.33295 0.11452 0.0
O15 O 0.87998 0.31864 0.08881 0.0
O16 O 0.14954 0.32576 0.0841 0.0
O17 O 0.95631 0.31868 0.04814 0.0
O18 O 0.94287 0.32562 0.1171 0.0
O19 O 0.07365 0.15385 0.04933 0.0
O20 O 0.10025 0.1766 0.11789 0.0
O21 O 0.88852 0.16027 0.08928 0.0
Sc22 Sc 0.01296 0.82342 0.3168 0.0
Sc23 Sc 0.01714 0.64328 0.31894 0.0
Sc24 Sc 0.01221 0.74045 0.3647 0.0
O25 O 0.01403 0.73585 0.33353 0.0
C26 C 0.12037 0.85927 0.35225 0.0
C27 C 0.12079 0.72867 0.29165 0.0
C28 C 0.10908 0.61167 0.35804 0.0
C29 C 0.91546 0.72806 0.2902 0.0
C30 C 0.91607 0.86698 0.35468 0.0
C31 C 0.90406 0.61949 0.35383 0.0
O32 O 0.09435 0.86712 0.33465 0.0
O33 O 0.10185 0.67299 0.29994 0.0
O34 O 0.08567 0.66123 0.36858 0.0
O35 O 0.93187 0.78702 0.29721 0.0
O36 O 0.93908 0.8207 0.36612 0.0
O37 O 0.93213 0.60646 0.33659 0.0
O38 O 0.93563 0.87384 0.33613 0.0
O39 O 0.94414 0.67326 0.29604 0.0
O40 O 0.92701 0.66557 0.36622 0.0
O41 O 0.09138 0.78584 0.29544 0.0
O42 O 0.09685 0.8158 0.36518 0.0
O43 O 0.0902 0.59925 0.33979 0.0
Sc44 Sc 0.55383 0.74749 0.56824 0.0
Sc45 Sc 0.37363 0.74594 0.57276 0.0
Sc46 Sc 0.47645 0.74748 0.61726 0.0
O47 O 0.46784 0.74705 0.58612 0.0
C48 C 0.59756 0.64509 0.60372 0.0
C49 C 0.45822 0.64314 0.54334 0.0
C50 C 0.35101 0.64331 0.61011 0.0
C51 C 0.45631 0.84876 0.54378 0.0
C52 C 0.5956 0.85234 0.6041 0.0
C53 C 0.34826 0.84811 0.61103 0.0
O54 O 0.60277 0.66919 0.58578 0.0
O55 O 0.40217 0.6667 0.55067 0.0
O56 O 0.40003 0.66771 0.62076 0.0
O57 O 0.51467 0.82498 0.54841 0.0
O58 O 0.5537 0.82801 0.61727 0.0
O59 O 0.33374 0.8247 0.59328 0.0
O60 O 0.60075 0.8286 0.58595 0.0
O61 O 0.4005 0.82617 0.55149 0.0
O62 O 0.39847 0.82577 0.62137 0.0
O63 O 0.51655 0.6669 0.54847 0.0
O64 O 0.55472 0.66819 0.61692 0.0
O65 O 0.33608 0.6658 0.5925 0.0
Sc66 Sc 0.46995 0.31637 0.822 0.0
Sc67 Sc 0.46763 0.13625 0.8241 0.0
Sc68 Sc 0.46657 0.23324 0.86942 0.0
O69 O 0.46781 0.22874 0.83841 0.0
C70 C 0.57387 0.34711 0.85904 0.0
C71 C 0.57255 0.2217 0.7961 0.0
C72 C 0.56217 0.10384 0.86141 0.0
C73 C 0.36743 0.22061 0.79587 0.0
C74 C 0.37356 0.36189 0.85868 0.0
C75 C 0.36098 0.11608 0.86144 0.0
O76 O 0.54517 0.36297 0.84226 0.0
O77 O 0.54392 0.16618 0.80178 0.0
O78 O 0.5314 0.14614 0.87309 0.0
O79 O 0.39489 0.27854 0.80017 0.0
O80 O 0.4022 0.32141 0.87094 0.0
O81 O 0.39161 0.09601 0.84513 0.0
O82 O 0.38658 0.36194 0.83955 0.0
O83 O 0.38586 0.16506 0.80417 0.0
O84 O 0.37772 0.17 0.87126 0.0
O85 O 0.55374 0.28039 0.80277 0.0
O86 O 0.55521 0.29647 0.86977 0.0
O87 O 0.55001 0.09839 0.8424 0.0
Sc88 Sc 0.96672 0.73304 0.88404 0.0
Sc89 Sc 0.05351 0.73177 0.93094 0.0
Sc90 Sc 0.87288 0.73435 0.93016 0.0
O91 O 0.96439 0.73302 0.91511 0.0
C92 C 0.84979 0.83935 0.89331 0.0
C93 C 0.09509 0.82784 0.89446 0.0
C94 C 0.96163 0.83557 0.95809 0.0
C95 C 0.08321 0.62735 0.8932 0.0
C96 C 0.83687 0.6385 0.89251 0.0
C97 C 0.95984 0.63027 0.95711 0.0
O98 O 0.90131 0.82011 0.88275 0.0
O99 O 0.09822 0.81377 0.91336 0.0
O100 O 0.90488 0.81594 0.95046 0.0
O101 O 0.03251 0.64607 0.8826 0.0
O102 O 0.83104 0.65291 0.91146 0.0
O103 O 0.01798 0.64977 0.95022 0.0
O104 O 0.88082 0.66629 0.88087 0.0
O105 O 0.09855 0.6554 0.91035 0.0
O106 O 0.90367 0.65752 0.95176 0.0
O107 O 0.05289 0.79977 0.88233 0.0
O108 O 0.83189 0.81118 0.91006 0.0
O109 O 0.01882 0.80845 0.95305 0.0
Sc110 Sc 0.5106 0.74055 0.13253 0.0
Sc111 Sc 0.52032 0.84414 0.17698 0.0
Sc112 Sc 0.51954 0.6641 0.18116 0.0
O113 O 0.51695 0.74953 0.16355 0.0
C114 C 0.40683 0.62402 0.14777 0.0
C115 C 0.41672 0.87035 0.14022 0.0
C116 C 0.42004 0.76441 0.20721 0.0
C117 C 0.62021 0.86185 0.13844 0.0
C118 C 0.60977 0.61663 0.14234 0.0
C119 C 0.62542 0.76067 0.20476 0.0
O120 O 0.42833 0.66614 0.13437 0.0
O121 O 0.44234 0.88605 0.1575 0.0
O122 O 0.44539 0.70571 0.20295 0.0
O123 O 0.59236 0.81441 0.12772 0.0
O124 O 0.59323 0.61194 0.1612 0.0
O125 O 0.59892 0.81574 0.19832 0.0
O126 O 0.58442 0.66092 0.13064 0.0
O127 O 0.60039 0.87742 0.15651 0.0
O128 O 0.60414 0.70151 0.19926 0.0
O129 O 0.43546 0.81848 0.12984 0.0
O130 O 0.43472 0.61775 0.16517 0.0
O131 O 0.44046 0.81913 0.1986 0.0
Sc132 Sc 0.51126 0.24058 0.38552 0.0
Sc133 Sc 0.6012 0.23769 0.43204 0.0
Sc134 Sc 0.42076 0.24262 0.43266 0.0
O135 O 0.51103 0.24031 0.4167 0.0
C136 C 0.38424 0.33795 0.39474 0.0
C137 C 0.63164 0.34822 0.39741 0.0
C138 C 0.5113 0.34239 0.45989 0.0
C139 C 0.63838 0.14293 0.39297 0.0
C140 C 0.39046 0.13309 0.39698 0.0
C141 C 0.51049 0.13718 0.45876 0.0
O142 O 0.43238 0.31484 0.38359 0.0
O143 O 0.64166 0.32119 0.41472 0.0
O144 O 0.45378 0.32533 0.45229 0.0
O145 O 0.59016 0.16609 0.38228 0.0
O146 O 0.38035 0.15964 0.41462 0.0
O147 O 0.56771 0.15449 0.45083 0.0
O148 O 0.43518 0.15652 0.3843 0.0
O149 O 0.64859 0.16278 0.41136 0.0
O150 O 0.45436 0.16674 0.45447 0.0
O151 O 0.58722 0.32489 0.38469 0.0
O152 O 0.37379 0.3181 0.41301 0.0
O153 O 0.56726 0.31301 0.45473 0.0
Sc154 Sc 0.95681 0.24739 0.63785 0.0
Sc155 Sc 0.97529 0.34392 0.68355 0.0
Sc156 Sc 0.97392 0.16352 0.68532 0.0
O157 O 0.96873 0.25153 0.66887 0.0
C158 C 0.85934 0.12435 0.6521 0.0
C159 C 0.86051 0.37455 0.65014 0.0
C160 C 0.87838 0.25839 0.71385 0.0
C161 C 0.06543 0.36994 0.64325 0.0
C162 C 0.06377 0.12478 0.64558 0.0
C163 C 0.08352 0.25804 0.70887 0.0
O164 O 0.87615 0.17095 0.63949 0.0
O165 O 0.89073 0.38587 0.66701 0.0
O166 O 0.89858 0.1997 0.70752 0.0
O167 O 0.03653 0.32306 0.6326 0.0
O168 O 0.04942 0.11858 0.66456 0.0
O169 O 0.0602 0.31405 0.70216 0.0
O170 O 0.03371 0.16784 0.6342 0.0
O171 O 0.04892 0.38287 0.66177 0.0
O172 O 0.05749 0.19997 0.70419 0.0
O173 O 0.87836 0.32657 0.6378 0.0
O174 O 0.8906 0.11555 0.66887 0.0
O175 O 0.90236 0.31429 0.70681 0.0
H176 H 0.90367 0.40221 0.02345 0.0
H177 H 0.12532 0.39415 0.02131 0.0
H178 H 0.12786 0.48253 0.99533 0.0
H179 H 0.06806 0.56277 0.9734 0.0
H180 H 0.84655 0.57197 0.97535 0.0
H181 H 0.84348 0.48239 0.00114 0.0
C182 C 0.95258 0.41971 0.01732 0.0
C183 C 0.01414 0.39128 0.02442 0.0
C184 C 0.95389 0.4708 0.0023 0.0
C185 C 0.07699 0.41479 0.01621 0.0
C186 C 0.07861 0.46547 0.0013 0.0
C187 C 0.01896 0.54523 0.97938 0.0
C188 C 0.95769 0.57441 0.97239 0.0
C189 C 0.01745 0.49387 0.99426 0.0
C190 C 0.89465 0.5507 0.98041 0.0
C191 C 0.89278 0.49941 0.9952 0.0
H192 H 0.68925 0.65627 0.22441 0.0
H193 H 0.6884 0.87716 0.21939 0.0
H194 H 0.77721 0.88643 0.24534 0.0
H195 H 0.85412 0.83234 0.26982 0.0
H196 H 0.85501 0.61146 0.27481 0.0
H197 H 0.76715 0.60212 0.24857 0.0
C198 C 0.70858 0.70652 0.22889 0.0
C199 C 0.68179 0.76586 0.2199 0.0
C200 C 0.75958 0.71166 0.24392 0.0
C201 C 0.70773 0.83047 0.226 0.0
C202 C 0.75858 0.83592 0.2409 0.0
C203 C 0.83508 0.78209 0.26523 0.0
C204 C 0.86132 0.72277 0.27438 0.0
C205 C 0.7846 0.77691 0.25005 0.0
C206 C 0.83605 0.65812 0.26807 0.0
C207 C 0.78569 0.65263 0.25304 0.0
H208 H 0.56667 0.57613 0.52578 0.0
H209 H 0.34496 0.58157 0.52616 0.0
H210 H 0.34209 0.48967 0.50043 0.0
H211 H 0.4023 0.40834 0.47768 0.0
H212 H 0.62403 0.40282 0.47753 0.0
H213 H 0.62672 0.49438 0.50331 0.0
C214 C 0.51755 0.55739 0.52029 0.0
C215 C 0.45609 0.58618 0.52796 0.0
C216 C 0.5162 0.50451 0.50548 0.0
C217 C 0.39312 0.56065 0.52061 0.0
C218 C 0.39141 0.50806 0.50585 0.0
C219 C 0.45134 0.4271 0.48322 0.0
C220 C 0.51289 0.39845 0.47556 0.0
C221 C 0.45262 0.47973 0.49814 0.0
C222 C 0.57579 0.42356 0.48309 0.0
C223 C 0.57743 0.47605 0.49786 0.0
H224 H 0.64767 0.32686 0.77962 0.0
H225 H 0.62717 0.10594 0.77845 0.0
H226 H 0.72011 0.0977 0.75338 0.0
H227 H 0.80645 0.15281 0.73133 0.0
H228 H 0.82649 0.37378 0.7324 0.0
H229 H 0.7349 0.38186 0.7579 0.0
C230 C 0.66346 0.27683 0.77393 0.0
C231 C 0.62999 0.21724 0.78098 0.0
C232 C 0.7171 0.27224 0.75943 0.0
C233 C 0.6516 0.15289 0.77336 0.0
C234 C 0.70492 0.14799 0.75898 0.0
C235 C 0.79107 0.20278 0.73717 0.0
C236 C 0.82365 0.26248 0.72985 0.0
C237 C 0.73794 0.20731 0.75185 0.0
C238 C 0.80257 0.32676 0.73765 0.0
C239 C 0.75001 0.33157 0.75228 0.0
H240 H 0.32226 0.32311 0.77124 0.0
H241 H 0.28937 0.10902 0.78505 0.0
H242 H 0.20125 0.10115 0.75892 0.0
H243 H 0.13227 0.15481 0.73241 0.0
H244 H 0.16412 0.36902 0.71869 0.0
H245 H 0.254 0.37654 0.74438 0.0
C246 C 0.29577 0.27473 0.7686 0.0
C247 C 0.31266 0.21688 0.7802 0.0
C248 C 0.245 0.27031 0.75346 0.0
C249 C 0.27774 0.15455 0.77641 0.0
C250 C 0.22723 0.14986 0.76142 0.0
C251 C 0.15914 0.20308 0.7349 0.0
C252 C 0.14118 0.26119 0.72358 0.0
C253 C 0.21043 0.20736 0.74985 0.0
C254 C 0.17653 0.32338 0.72717 0.0
C255 C 0.22799 0.32784 0.74191 0.0
H256 H 0.36503 0.66183 0.23039 0.0
H257 H 0.34831 0.879 0.21908 0.0
H258 H 0.25546 0.88762 0.24424 0.0
H259 H 0.17763 0.83339 0.26929 0.0
H260 H 0.19547 0.61605 0.28039 0.0
H261 H 0.28886 0.60822 0.25559 0.0
C262 C 0.34124 0.71115 0.2334 0.0
C263 C 0.36394 0.76953 0.22275 0.0
C264 C 0.28774 0.71594 0.24791 0.0
C265 C 0.33222 0.83299 0.22698 0.0
C266 C 0.27892 0.83808 0.2414 0.0
C267 C 0.20197 0.78433 0.26634 0.0
C268 C 0.17897 0.72552 0.27676 0.0
C269 C 0.25608 0.77986 0.25194 0.0
C270 C 0.21156 0.66239 0.27266 0.0
C271 C 0.2652 0.65767 0.25842 0.0
H272 H 0.40112 0.08571 0.48057 0.0
H273 H 0.61976 0.06198 0.47124 0.0
H274 H 0.62169 0.97202 0.49664 0.0
H275 H 0.56269 0.90053 0.52158 0.0
H276 H 0.3442 0.92189 0.53127 0.0
H277 H 0.34124 0.01235 0.50567 0.0
C278 C 0.44918 0.06081 0.48405 0.0
C279 C 0.51016 0.08104 0.47394 0.0
C280 C 0.45019 0.00873 0.49878 0.0
C281 C 0.57191 0.0479 0.47871 0.0
C282 C 0.57322 -0.0037 0.49329 0.0
C283 C 0.51426 0.92488 0.51819 0.0
C284 C 0.45381 0.90429 0.52843 0.0
C285 C 0.51281 0.97649 0.50345 0.0
C286 C 0.39162 0.93655 0.52366 0.0
C287 C 0.38984 0.98833 0.50901 0.0
H288 H 0.90751 0.07782 0.02159 0.0
H289 H 0.12577 0.05482 0.03023 0.0
H290 H 0.12818 0.96198 0.00499 0.0
H291 H 0.0692 0.88785 0.98006 0.0
H292 H 0.85103 0.9107 0.97128 0.0
H293 H 0.84821 0.00269 0.99685 0.0
C294 C 0.9556 0.05239 0.01804 0.0
C295 C 0.01629 0.07377 0.02787 0.0
C296 C 0.95691 -0.00109 0.00336 0.0
C297 C 0.07811 0.03996 0.02295 0.0
C298 C 0.07967 0.98668 0.00846 0.0
C299 C 0.02097 0.91288 0.98369 0.0
C300 C 0.96053 0.89204 0.97364 0.0
C301 C 0.0195 0.96592 0.99849 0.0
C302 C 0.89854 0.92531 0.97869 0.0
C303 C 0.89675 0.97809 0.99336 0.0
H304 H 0.33978 0.9679 0.1595 0.0
H305 H 0.37936 0.87536 0.10018 0.0
H306 H 0.29974 0.95422 0.08442 0.0
H307 H 0.2205 0.05126 0.08727 0.0
H308 H 0.17791 0.14098 0.14675 0.0
H309 H 0.25704 0.0616 0.16257 0.0
C310 C 0.33088 0.96495 0.14314 0.0
C311 C 0.36564 0.91607 0.13108 0.0
C312 C 0.28462 0.01009 0.13414 0.0
C313 C 0.35306 0.91239 0.10989 0.0
C314 C 0.30773 0.95764 0.1008 0.0
C315 C 0.22871 0.05339 0.10368 0.0
C316 C 0.19373 0.10193 0.11579 0.0
C317 C 0.27358 0.007 0.11275 0.0
C318 C 0.20411 0.10374 0.13708 0.0
C319 C 0.24945 0.05853 0.14616 0.0
H320 H 0.17178 0.89221 0.39024 0.0
H321 H 0.20298 0.92961 0.32581 0.0
H322 H 0.29248 0.01331 0.33359 0.0
H323 H 0.35699 0.08305 0.35874 0.0
H324 H 0.32384 0.04735 0.42317 0.0
H325 H 0.24159 0.95657 0.41531 0.0
C326 C 0.19872 0.918 0.3779 0.0
C327 C 0.17974 0.90476 0.3575 0.0
C328 C 0.25004 0.96726 0.38245 0.0
C329 C 0.21552 0.93909 0.34173 0.0
C330 C 0.26704 0.98716 0.34612 0.0
C331 C 0.33247 0.0548 0.37104 0.0
C332 C 0.34638 0.07287 0.3915 0.0
C333 C 0.28396 0.00278 0.36645 0.0
C334 C 0.31372 0.0355 0.40723 0.0
C335 C 0.26649 0.98327 0.40278 0.0
H336 H 0.16253 0.04919 0.66459 0.0
H337 H 0.08261 0.09524 0.6049 0.0
H338 H 0.16367 0.0155 0.58902 0.0
H339 H 0.25518 0.92982 0.59198 0.0
H340 H 0.33818 0.8864 0.65145 0.0
H341 H 0.25862 0.9679 0.66734 0.0
C342 C 0.16287 0.04193 0.6481 0.0
C343 C 0.11593 0.07821 0.63604 0.0
C344 C 0.21037 -0.00374 0.63895 0.0
C345 C 0.11795 0.06839 0.61465 0.0
C346 C 0.1643 0.02252 0.60551 0.0
C347 C 0.25614 0.93826 0.60841 0.0
C348 C 0.30267 0.9014 0.62045 0.0
C349 C 0.21044 0.98576 0.6175 0.0
C350 C 0.30328 0.91387 0.64173 0.0
C351 C 0.25749 0.96042 0.65087 0.0
H352 H 0.1534 0.93852 0.91315 0.0
H353 H 0.14423 0.82712 0.85569 0.0
H354 H 0.22329 0.90871 0.84008 0.0
H355 H 0.29635 0.00975 0.84285 0.0
H356 H 0.30501 0.12365 0.89993 0.0
H357 H 0.22377 0.04361 0.91547 0.0
C358 C 0.1691 0.93223 0.89726 0.0
C359 C 0.14354 0.87716 0.88559 0.0
C360 C 0.21383 0.97987 0.88826 0.0
C361 C 0.16323 0.86959 0.86493 0.0
C362 C 0.20838 0.91606 0.85599 0.0
C363 C 0.2803 0.0173 0.85866 0.0
C364 C 0.30698 0.0721 0.87022 0.0
C365 C 0.23402 0.97123 0.86752 0.0
C366 C 0.28508 0.08174 0.89065 0.0
C367 C 0.23896 0.03583 0.89961 0.0
H368 H 0.74877 0.91015 0.91301 0.0
H369 H 0.85217 0.88958 0.85448 0.0
H370 H 0.77259 0.97018 0.83946 0.0
H371 H 0.67017 0.04219 0.84247 0.0
H372 H 0.5686 0.06483 0.90116 0.0
H373 H 0.65091 0.98752 0.91653 0.0
C374 C 0.75417 0.92356 0.897 0.0
C375 C 0.80593 0.89339 0.88488 0.0
C376 C 0.70828 0.9699 0.88842 0.0
C377 C 0.81274 0.912 0.8642 0.0
C378 C 0.76706 0.95786 0.85553 0.0
C379 C 0.66612 0.03007 0.85861 0.0
C380 C 0.6132 0.05853 0.87061 0.0
C381 C 0.71401 0.98625 0.86742 0.0
C382 C 0.60904 0.04345 0.89159 0.0
C383 C 0.65596 -0.00079 0.9004 0.0
H384 H 0.80867 0.09577 0.61422 0.0
H385 H 0.78432 0.04296 0.67788 0.0
H386 H 0.69763 0.95699 0.66882 0.0
H387 H 0.63288 0.89256 0.64264 0.0
H388 H 0.66196 0.94194 0.57887 0.0
H389 H 0.74223 0.03338 0.58819 0.0
C390 C 0.78388 0.06602 0.62615 0.0
C391 C 0.80312 0.07587 0.64669 0.0
C392 C 0.73509 0.0156 0.62081 0.0
C393 C 0.77084 0.03626 0.66192 0.0
C394 C 0.72119 0.98704 0.65676 0.0
C395 C 0.65631 0.92371 0.6308 0.0
C396 C 0.64148 0.91012 0.61009 0.0
C397 C 0.70356 0.97559 0.63623 0.0
C398 C 0.67278 0.95079 0.59493 0.0
C399 C 0.71867 0.00326 0.60024 0.0
H400 H 0.82077 0.94895 0.33638 0.0
H401 H 0.90412 0.89702 0.39519 0.0
H402 H 0.82684 0.97711 0.4122 0.0
H403 H 0.73499 0.06219 0.41074 0.0
H404 H 0.64832 0.11191 0.35219 0.0
H405 H 0.72666 0.03291 0.33501 0.0
C406 C 0.822 0.95535 0.35289 0.0
C407 C 0.8681 0.91673 0.3644 0.0
C408 C 0.77649 0.00118 0.36278 0.0
C409 C 0.86874 0.92547 0.38586 0.0
C410 C 0.82464 0.97152 0.39569 0.0
C411 C 0.7332 0.05576 0.39424 0.0
C412 C 0.68567 0.09314 0.38289 0.0
C413 C 0.77813 0.00959 0.38434 0.0
C414 C 0.68404 0.08369 0.36145 0.0
C415 C 0.72906 0.03855 0.35151 0.0
H416 H 0.71509 0.93908 0.15845 0.0
H417 H 0.65045 0.87833 0.0978 0.0
H418 H 0.73455 0.95705 0.08277 0.0
H419 H 0.8205 0.04888 0.08697 0.0
H420 H 0.88554 0.10827 0.14774 0.0
H421 H 0.80732 0.02385 0.16257 0.0
C422 C 0.71962 0.94273 0.14193 0.0
C423 C 0.67598 0.90354 0.12927 0.0
C424 C 0.76788 0.98804 0.13341 0.0
C425 C 0.68334 0.908 0.1079 0.0
C426 C 0.73119 0.95323 0.09929 0.0
C427 C 0.81784 0.04316 0.10346 0.0
C428 C 0.85826 0.0855 0.11622 0.0
C429 C 0.77277 -0.00555 0.11192 0.0
C430 C 0.85495 0.07657 0.13754 0.0
C431 C 0.81005 0.02843 0.14606 0.0
H432 H 0.81444 0.40618 0.61196 0.0
H433 H 0.7795 0.44938 0.67614 0.0
H434 H 0.69274 0.53388 0.66764 0.0
H435 H 0.63071 0.60037 0.64197 0.0
H436 H 0.66964 0.56097 0.57775 0.0
H437 H 0.75019 0.47071 0.58628 0.0
C438 C 0.78724 0.43348 0.62408 0.0
C439 C 0.8037 0.42136 0.64465 0.0
C440 C 0.73824 0.48338 0.61908 0.0
C441 C 0.76831 0.45787 0.66016 0.0
C442 C 0.71857 0.50632 0.65532 0.0
C443 C 0.65639 0.57172 0.62983 0.0
C444 C 0.6441 0.58797 0.60925 0.0
C445 C 0.70377 0.52031 0.63483 0.0
C446 C 0.67833 0.55026 0.59375 0.0
C447 C 0.72445 0.49835 0.5986 0.0
H448 H 0.77851 0.52837 0.91057 0.0
H449 H 0.79159 0.63675 0.85342 0.0
H450 H 0.71337 0.55408 0.83754 0.0
H451 H 0.63901 0.45302 0.84022 0.0
H452 H 0.62897 0.34269 0.89722 0.0
H453 H 0.70906 0.42359 0.91267 0.0
C454 C 0.76393 0.53379 0.89467 0.0
C455 C 0.79 0.58838 0.8832 0.0
C456 C 0.71996 0.48564 0.88556 0.0
C457 C 0.77195 0.59469 0.86252 0.0
C458 C 0.7273 0.54762 0.85343 0.0
C459 C 0.65464 0.44643 0.85597 0.0
C460 C 0.62757 0.39232 0.86753 0.0
C461 C 0.70077 0.49307 0.86484 0.0
C462 C 0.64891 0.38403 0.8879 0.0
C463 C 0.69451 0.43042 0.89685 0.0
H464 H 0.70894 0.54184 0.16099 0.0
H465 H 0.61878 0.58046 0.10214 0.0
H466 H 0.69766 0.50019 0.08574 0.0
H467 H 0.79257 0.41851 0.08792 0.0
H468 H 0.88548 0.38294 0.14661 0.0
H469 H 0.80586 0.4622 0.16303 0.0
C470 C 0.70653 0.53246 0.14461 0.0
C471 C 0.65812 0.56714 0.13287 0.0
C472 C 0.75282 0.4868 0.13512 0.0
C473 C 0.65595 0.55485 0.11158 0.0
C474 C 0.70095 0.50877 0.10213 0.0
C475 C 0.79544 0.42819 0.10428 0.0
C476 C 0.84504 0.39472 0.11591 0.0
C477 C 0.74973 0.47449 0.11373 0.0
C478 C 0.84816 0.40821 0.13715 0.0
C479 C 0.80241 0.45344 0.14665 0.0
H480 H 0.85315 0.58662 0.39191 0.0
H481 H 0.81693 0.55585 0.32737 0.0
H482 H 0.72582 0.47365 0.33486 0.0
H483 H 0.66252 0.40204 0.35962 0.0
H484 H 0.70051 0.43112 0.42416 0.0
H485 H 0.78325 0.52163 0.41678 0.0
C486 C 0.82456 0.56277 0.37953 0.0
C487 C 0.8427 0.57704 0.35914 0.0
C488 C 0.77247 0.51422 0.3839 0.0
C489 C 0.80497 0.54529 0.34326 0.0
C490 C 0.7526 0.49809 0.3475 0.0
C491 C 0.68817 0.42882 0.37206 0.0
C492 C 0.67563 0.40876 0.39237 0.0
C493 C 0.73689 0.48077 0.36775 0.0
C494 C 0.70963 0.44439 0.4083 0.0
C495 C 0.75714 0.49651 0.40414 0.0
H496 H 0.29621 0.42815 0.41361 0.0
H497 H 0.36558 0.35725 0.35408 0.0
H498 H 0.28707 0.4349 0.33752 0.0
H499 H 0.19772 0.52238 0.33966 0.0
H500 H 0.13057 0.59707 0.39896 0.0
H501 H 0.20893 0.51902 0.41572 0.0
C502 C 0.29405 0.42977 0.39704 0.0
C503 C 0.33677 0.3869 0.38519 0.0
C504 C 0.24911 0.47534 0.38747 0.0
C505 C 0.33368 0.38998 0.36367 0.0
C506 C 0.28857 0.43426 0.35411 0.0
C507 C 0.20022 0.52155 0.35624 0.0
C508 C 0.15824 0.56536 0.36798 0.0
C509 C 0.24594 0.47708 0.36583 0.0
C510 C 0.16258 0.56408 0.38949 0.0
C511 C 0.20725 0.51928 0.39914 0.0
H512 H 0.1727 0.40066 0.13966 0.0
H513 H 0.20879 0.4395 0.07551 0.0
H514 H 0.29051 0.53035 0.08426 0.0
H515 H 0.35751 0.59316 0.10996 0.0
H516 H 0.32602 0.55048 0.1741 0.0
H517 H 0.23648 0.4671 0.16549 0.0
C518 C 0.19781 0.4296 0.12761 0.0
C519 C 0.18495 0.4131 0.10698 0.0
C520 C 0.24593 0.48079 0.13273 0.0
C521 C 0.21827 0.45075 0.09153 0.0
C522 C 0.26497 0.50277 0.0965 0.0
C523 C 0.33055 0.56624 0.12209 0.0
C524 C 0.34875 0.57783 0.14262 0.0
C525 C 0.28012 0.51736 0.11703 0.0
C526 C 0.31347 0.54214 0.15813 0.0
C527 C 0.26219 0.49446 0.15324 0.0
H528 H 0.19357 0.56754 0.9109 0.0
H529 H 0.07611 0.56788 0.85511 0.0
H530 H 0.15628 0.48767 0.83921 0.0
H531 H 0.26167 0.41868 0.84078 0.0
H532 H 0.37639 0.41625 0.89698 0.0
H533 H 0.2959 0.49618 0.91288 0.0
C534 C 0.18518 0.54986 0.89531 0.0
C535 C 0.12893 0.57411 0.88428 0.0
C536 C 0.23144 0.5036 0.88618 0.0
C537 C 0.1189 0.55018 0.86407 0.0
C538 C 0.16492 0.50443 0.85486 0.0
C539 C 0.26904 0.43602 0.85645 0.0
C540 C 0.32485 0.41177 0.86764 0.0
C541 C 0.22178 0.48124 0.8657 0.0
C542 C 0.33351 0.43395 0.88805 0.0
C543 C 0.28757 0.4797 0.89718 0.0
H544 H 0.16531 0.44367 0.66234 0.0
H545 H 0.08675 0.39277 0.60244 0.0
H546 H 0.17022 0.47077 0.58677 0.0
H547 H 0.26131 0.55804 0.59029 0.0
H548 H 0.34128 0.60643 0.65025 0.0
H549 H 0.26173 0.52436 0.66562 0.0
C550 C 0.16654 0.44947 0.64584 0.0
C551 C 0.11934 0.41302 0.63361 0.0
C552 C 0.21485 0.49402 0.63693 0.0
C553 C 0.12244 0.42025 0.61222 0.0
C554 C 0.17 0.46503 0.60325 0.0
C555 C 0.26161 0.55042 0.60671 0.0
C556 C 0.30686 0.58895 0.61909 0.0
C557 C 0.21581 0.5029 0.61549 0.0
C558 C 0.30709 0.57762 0.64032 0.0
C559 C 0.26139 0.53085 0.64916 0.0
loop_
_geom_bond_atom_site_label_1
_geom_bond_atom_site_label_2
_geom_bond_distance
_geom_bond_site_symmetry_2
_ccdc_geom_bond_type
Sc0 O3 2.025 . S
Sc0 O10 2.105 . S
Sc0 O13 2.105 . S
Sc0 O16 2.105 . S
Sc0 O19 2.105 . S
Sc1 O3 2.025 1_655 S
Sc1 O11 2.105 . S
Sc1 O15 2.105 . S
Sc1 O17 2.105 . S
Sc1 O21 2.105 . S
Sc2 O3 2.025 . S
Sc2 O12 2.105 1_455 S
Sc2 O14 2.105 . S
Sc2 O18 2.105 1_455 S
Sc2 O20 2.105 . S
O3 Sc0 2.025 . S
O3 Sc1 2.025 1_455 S
O3 Sc2 2.025 . S
C4 O10 1.268 . S
C4 O20 1.268 . S
C5 O11 1.268 1_455 S
C5 O19 1.268 . S
C6 O12 1.268 . S
C6 O21 1.268 . S
C7 O13 1.268 . S
C7 O17 1.268 1_455 S
C8 O14 1.268 . S
C8 O16 1.268 . S
C9 O15 1.268 . S
C9 O18 1.268 . S
O10 Sc0 2.105 . S
O10 C4 1.268 . S
O11 Sc1 2.105 . S
O11 C5 1.268 1_655 S
O12 Sc2 2.105 1_655 S
O12 C6 1.268 . S
O13 Sc0 2.105 . S
O13 C7 1.268 . S
O14 Sc2 2.105 . S
O14 C8 1.268 . S
O15 Sc1 2.105 . S
O15 C9 1.268 . S
O16 Sc0 2.105 . S
O16 C8 1.268 . S
O17 Sc1 2.105 . S
O17 C7 1.268 1_655 S
O18 Sc2 2.105 1_655 S
O18 C9 1.268 . S
O19 Sc0 2.105 . S
O19 C5 1.268 . S
O20 Sc2 2.105 . S
O20 C4 1.268 . S
O21 Sc1 2.105 . S
O21 C6 1.268 . S
Sc22 O25 2.025 . S
Sc22 O32 2.105 . S
Sc22 O35 2.105 1_455 S
Sc22 O38 2.105 1_455 S
Sc22 O41 2.105 . S
Sc23 O25 2.025 . S
Sc23 O33 2.105 . S
Sc23 O37 2.105 1_455 S
Sc23 O39 2.105 1_455 S
Sc23 O43 2.105 . S
Sc24 O25 2.025 . S
Sc24 O34 2.105 . S
Sc24 O36 2.105 1_455 S
Sc24 O40 2.105 1_455 S
Sc24 O42 2.105 . S
O25 Sc22 2.025 . S
O25 Sc23 2.025 . S
O25 Sc24 2.025 . S
C26 O32 1.268 . S
C26 O42 1.268 . S
C27 O33 1.268 . S
C27 O41 1.268 . S
C28 O34 1.268 . S
C28 O43 1.268 . S
C29 O35 1.268 . S
C29 O39 1.268 . S
C30 O36 1.268 . S
C30 O38 1.268 . S
C31 O37 1.268 . S
C31 O40 1.268 . S
O32 Sc22 2.105 . S
O32 C26 1.268 . S
O33 Sc23 2.105 . S
O33 C27 1.268 . S
O34 Sc24 2.105 . S
O34 C28 1.268 . S
O35 Sc22 2.105 1_655 S
O35 C29 1.268 . S
O36 Sc24 2.105 1_655 S
O36 C30 1.268 . S
O37 Sc23 2.105 1_655 S
O37 C31 1.268 . S
O38 Sc22 2.105 1_655 S
O38 C30 1.268 . S
O39 Sc23 2.105 1_655 S
O39 C29 1.268 . S
O40 Sc24 2.105 1_655 S
O40 C31 1.268 . S
O41 Sc22 2.105 . S
O41 C27 1.268 . S
O42 Sc24 2.105 . S
O42 C26 1.268 . S
O43 Sc23 2.105 . S
O43 C28 1.268 . S
Sc44 O47 2.025 . S
Sc44 O54 2.105 . S
Sc44 O57 2.105 . S
Sc44 O60 2.105 . S
Sc44 O63 2.105 . S
Sc45 O47 2.025 . S
Sc45 O55 2.105 . S
Sc45 O59 2.105 . S
Sc45 O61 2.105 . S
Sc45 O65 2.105 . S
Sc46 O47 2.025 . S
Sc46 O56 2.105 . S
Sc46 O58 2.105 . S
Sc46 O62 2.105 . S
Sc46 O64 2.105 . S
O47 Sc44 2.025 . S
O47 Sc45 2.025 . S
O47 Sc46 2.025 . S
C48 O54 1.268 . S
C48 O64 1.268 . S
C49 O55 1.268 . S
C49 O63 1.268 . S
C50 O56 1.268 . S
C50 O65 1.268 . S
C51 O57 1.268 . S
C51 O61 1.268 . S
C52 O58 1.268 . S
C52 O60 1.268 . S
C53 O59 1.268 . S
C53 O62 1.268 . S
O54 Sc44 2.105 . S
O54 C48 1.268 . S
O55 Sc45 2.105 . S
O55 C49 1.268 . S
O56 Sc46 2.105 . S
O56 C50 1.268 . S
O57 Sc44 2.105 . S
O57 C51 1.268 . S
O58 Sc46 2.105 . S
O58 C52 1.268 . S
O59 Sc45 2.105 . S
O59 C53 1.268 . S
O60 Sc44 2.105 . S
O60 C52 1.268 . S
O61 Sc45 2.105 . S
O61 C51 1.268 . S
O62 Sc46 2.105 . S
O62 C53 1.268 . S
O63 Sc44 2.105 . S
O63 C49 1.268 . S
O64 Sc46 2.105 . S
O64 C48 1.268 . S
O65 Sc45 2.105 . S
O65 C50 1.268 . S
Sc66 O69 2.025 . S
Sc66 O76 2.105 . S
Sc66 O79 2.105 . S
Sc66 O82 2.105 . S
Sc66 O85 2.105 . S
Sc67 O69 2.025 . S
Sc67 O77 2.105 . S
Sc67 O81 2.105 . S
Sc67 O83 2.105 . S
Sc67 O87 2.105 . S
Sc68 O69 2.025 . S
Sc68 O78 2.105 . S
Sc68 O80 2.105 . S
Sc68 O84 2.105 . S
Sc68 O86 2.105 . S
O69 Sc66 2.025 . S
O69 Sc67 2.025 . S
O69 Sc68 2.025 . S
C70 O76 1.268 . S
C70 O86 1.268 . S
C71 O77 1.268 . S
C71 O85 1.268 . S
C72 O78 1.268 . S
C72 O87 1.268 . S
C73 O79 1.268 . S
C73 O83 1.268 . S
C74 O80 1.268 . S
C74 O82 1.268 . S
C75 O81 1.268 . S
C75 O84 1.268 . S
O76 Sc66 2.105 . S
O76 C70 1.268 . S
O77 Sc67 2.105 . S
O77 C71 1.268 . S
O78 Sc68 2.105 . S
O78 C72 1.268 . S
O79 Sc66 2.105 . S
O79 C73 1.268 . S
O80 Sc68 2.105 . S
O80 C74 1.268 . S
O81 Sc67 2.105 . S
O81 C75 1.268 . S
O82 Sc66 2.105 . S
O82 C74 1.268 . S
O83 Sc67 2.105 . S
O83 C73 1.268 . S
O84 Sc68 2.105 . S
O84 C75 1.268 . S
O85 Sc66 2.105 . S
O85 C71 1.268 . S
O86 Sc68 2.105 . S
O86 C70 1.268 . S
O87 Sc67 2.105 . S
O87 C72 1.268 . S
Sc88 O91 2.025 . S
Sc88 O98 2.105 1_455 S
Sc88 O101 2.105 . S
Sc88 O104 2.105 1_455 S
Sc88 O107 2.105 . S
Sc89 O91 2.025 . S
Sc89 O99 2.105 . S
Sc89 O103 2.105 . S
Sc89 O105 2.105 . S
Sc89 O109 2.105 . S
Sc90 O91 2.025 1_655 S
Sc90 O100 2.105 . S
Sc90 O102 2.105 . S
Sc90 O106 2.105 . S
Sc90 O108 2.105 . S
O91 Sc88 2.025 . S
O91 Sc89 2.025 . S
O91 Sc90 2.025 1_455 S
C92 O98 1.268 . S
C92 O108 1.268 . S
C93 O99 1.268 . S
C93 O107 1.268 . S
C94 O100 1.268 1_455 S
C94 O109 1.268 . S
C95 O101 1.268 . S
C95 O105 1.268 . S
C96 O102 1.268 . S
C96 O104 1.268 . S
C97 O103 1.268 . S
C97 O106 1.268 1_455 S
O98 Sc88 2.105 1_655 S
O98 C92 1.268 . S
O99 Sc89 2.105 . S
O99 C93 1.268 . S
O100 Sc90 2.105 . S
O100 C94 1.268 1_655 S
O101 Sc88 2.105 . S
O101 C95 1.268 . S
O102 Sc90 2.105 . S
O102 C96 1.268 . S
O103 Sc89 2.105 . S
O103 C97 1.268 . S
O104 Sc88 2.105 1_655 S
O104 C96 1.268 . S
O105 Sc89 2.105 . S
O105 C95 1.268 . S
O106 Sc90 2.105 . S
O106 C97 1.268 1_655 S
O107 Sc88 2.105 . S
O107 C93 1.268 . S
O108 Sc90 2.105 . S
O108 C92 1.268 . S
O109 Sc89 2.105 . S
O109 C94 1.268 . S
Sc110 O113 2.025 . S
Sc110 O120 2.105 . S
Sc110 O123 2.105 . S
Sc110 O126 2.105 . S
Sc110 O129 2.105 . S
Sc111 O113 2.025 . S
Sc111 O121 2.105 . S
Sc111 O125 2.105 . S
Sc111 O127 2.105 . S
Sc111 O131 2.105 . S
Sc112 O113 2.025 . S
Sc112 O122 2.105 . S
Sc112 O124 2.105 . S
Sc112 O128 2.105 . S
Sc112 O130 2.105 . S
O113 Sc110 2.025 . S
O113 Sc111 2.025 . S
O113 Sc112 2.025 . S
C114 O120 1.268 . S
C114 O130 1.268 . S
C115 O121 1.268 . S
C115 O129 1.268 . S
C116 O122 1.268 . S
C116 O131 1.268 . S
C117 O123 1.268 . S
C117 O127 1.268 . S
C118 O124 1.268 . S
C118 O126 1.268 . S
C119 O125 1.268 . S
C119 O128 1.268 . S
O120 Sc110 2.105 . S
O120 C114 1.268 . S
O121 Sc111 2.105 . S
O121 C115 1.268 . S
O122 Sc112 2.105 . S
O122 C116 1.268 . S
O123 Sc110 2.105 . S
O123 C117 1.268 . S
O124 Sc112 2.105 . S
O124 C118 1.268 . S
O125 Sc111 2.105 . S
O125 C119 1.268 . S
O126 Sc110 2.105 . S
O126 C118 1.268 . S
O127 Sc111 2.105 . S
O127 C117 1.268 . S
O128 Sc112 2.105 . S
O128 C119 1.268 . S
O129 Sc110 2.105 . S
O129 C115 1.268 . S
O130 Sc112 2.105 . S
O130 C114 1.268 . S
O131 Sc111 2.105 . S
O131 C116 1.268 . S
Sc132 O135 2.025 . S
Sc132 O142 2.105 . S
Sc132 O145 2.105 . S
Sc132 O148 2.105 . S
Sc132 O151 2.105 . S
Sc133 O135 2.025 . S
Sc133 O143 2.105 . S
Sc133 O147 2.105 . S
Sc133 O149 2.105 . S
Sc133 O153 2.105 . S
Sc134 O135 2.025 . S
Sc134 O144 2.105 . S
Sc134 O146 2.105 . S
Sc134 O150 2.105 . S
Sc134 O152 2.105 . S
O135 Sc132 2.025 . S
O135 Sc133 2.025 . S
O135 Sc134 2.025 . S
C136 O142 1.268 . S
C136 O152 1.268 . S
C137 O143 1.268 . S
C137 O151 1.268 . S
C138 O144 1.268 . S
C138 O153 1.268 . S
C139 O145 1.268 . S
C139 O149 1.268 . S
C140 O146 1.268 . S
C140 O148 1.268 . S
C141 O147 1.268 . S
C141 O150 1.268 . S
O142 Sc132 2.105 . S
O142 C136 1.268 . S
O143 Sc133 2.105 . S
O143 C137 1.268 . S
O144 Sc134 2.105 . S
O144 C138 1.268 . S
O145 Sc132 2.105 . S
O145 C139 1.268 . S
O146 Sc134 2.105 . S
O146 C140 1.268 . S
O147 Sc133 2.105 . S
O147 C141 1.268 . S
O148 Sc132 2.105 . S
O148 C140 1.268 . S
O149 Sc133 2.105 . S
O149 C139 1.268 . S
O150 Sc134 2.105 . S
O150 C141 1.268 . S
O151 Sc132 2.105 . S
O151 C137 1.268 . S
O152 Sc134 2.105 . S
O152 C136 1.268 . S
O153 Sc133 2.105 . S
O153 C138 1.268 . S
Sc154 O157 2.025 . S
Sc154 O164 2.105 1_455 S
Sc154 O167 2.105 . S
Sc154 O170 2.105 . S
Sc154 O173 2.105 1_455 S
Sc155 O157 2.025 . S
Sc155 O165 2.105 1_455 S
Sc155 O169 2.105 . S
Sc155 O171 2.105 . S
Sc155 O175 2.105 1_455 S
Sc156 O157 2.025 . S
Sc156 O166 2.105 1_455 S
Sc156 O168 2.105 . S
Sc156 O172 2.105 . S
Sc156 O174 2.105 1_455 S
O157 Sc154 2.025 . S
O157 Sc155 2.025 . S
O157 Sc156 2.025 . S
C158 O164 1.268 . S
C158 O174 1.268 . S
C159 O165 1.268 . S
C159 O173 1.268 . S
C160 O166 1.268 . S
C160 O175 1.268 . S
C161 O167 1.268 . S
C161 O171 1.268 . S
C162 O168 1.268 . S
C162 O170 1.268 . S
C163 O169 1.268 . S
C163 O172 1.268 . S
O164 Sc154 2.105 1_655 S
O164 C158 1.268 . S
O165 Sc155 2.105 1_655 S
O165 C159 1.268 . S
O166 Sc156 2.105 1_655 S
O166 C160 1.268 . S
O167 Sc154 2.105 . S
O167 C161 1.268 . S
O168 Sc156 2.105 . S
O168 C162 1.268 . S
O169 Sc155 2.105 . S
O169 C163 1.268 . S
O170 Sc154 2.105 . S
O170 C162 1.268 . S
O171 Sc155 2.105 . S
O171 C161 1.268 . S
O172 Sc156 2.105 . S
O172 C163 1.268 . S
O173 Sc154 2.105 1_655 S
O173 C159 1.268 . S
O174 Sc156 2.105 1_655 S
O174 C158 1.268 . S
O175 Sc155 2.105 1_655 S
O175 C160 1.268 . S
H176 C182 0.930 . S
H177 C185 0.930 . S
H178 C186 0.930 . S
H179 C187 0.930 . S
H180 C190 0.930 . S
H181 C191 0.930 . S
C182 H176 0.930 . S
C182 C183 1.355 1_655 S
C182 C184 1.415 1_554 S
C183 C182 1.355 1_455 S
C183 C185 1.419 . S
C184 C182 1.415 1_556 S
C184 C189 1.425 1_656 S
C184 C191 1.409 . S
C185 H177 0.930 . S
C185 C183 1.419 . S
C185 C186 1.362 . S
C186 H178 0.930 . S
C186 C185 1.362 . S
C186 C189 1.409 . S
C187 H179 0.930 . S
C187 C188 1.355 1_455 S
C187 C189 1.415 1_556 S
C188 C187 1.355 1_655 S
C188 C190 1.419 . S
C189 C184 1.425 1_454 S
C189 C186 1.409 . S
C189 C187 1.415 1_554 S
C190 H180 0.930 . S
C190 C188 1.419 . S
C190 C191 1.362 . S
C191 H181 0.930 . S
C191 C184 1.409 . S
C191 C190 1.362 . S
H192 C198 0.930 . S
H193 C201 0.930 . S
H194 C202 0.930 . S
H195 C203 0.930 . S
H196 C206 0.930 . S
H197 C207 0.930 . S
C198 H192 0.930 . S
C198 C199 1.355 . S
C198 C200 1.415 . S
C199 C198 1.355 . S
C199 C201 1.419 . S
C200 C198 1.415 . S
C200 C205 1.425 . S
C200 C207 1.409 . S
C201 H193 0.930 . S
C201 C199 1.419 . S
C201 C202 1.362 . S
C202 H194 0.930 . S
C202 C201 1.362 . S
C202 C205 1.409 . S
C203 H195 0.930 . S
C203 C204 1.355 . S
C203 C205 1.415 . S
C204 C203 1.355 . S
C204 C206 1.419 . S
C205 C200 1.425 . S
C205 C202 1.409 . S
C205 C203 1.415 . S
C206 H196 0.930 . S
C206 C204 1.419 . S
C206 C207 1.362 . S
C207 H197 0.930 . S
C207 C200 1.409 . S
C207 C206 1.362 . S
H208 C214 0.930 . S
H209 C217 0.930 . S
H210 C218 0.930 . S
H211 C219 0.930 . S
H212 C222 0.930 . S
H213 C223 0.930 . S
C214 H208 0.930 . S
C214 C215 1.355 . S
C214 C216 1.415 . S
C215 C214 1.355 . S
C215 C217 1.419 . S
C216 C214 1.415 . S
C216 C221 1.425 . S
C216 C223 1.409 . S
C217 H209 0.930 . S
C217 C215 1.419 . S
C217 C218 1.362 . S
C218 H210 0.930 . S
C218 C217 1.362 . S
C218 C221 1.409 . S
C219 H211 0.930 . S
C219 C220 1.355 . S
C219 C221 1.415 . S
C220 C219 1.355 . S
C220 C222 1.419 . S
C221 C216 1.425 . S
C221 C218 1.409 . S
C221 C219 1.415 . S
C222 H212 0.930 . S
C222 C220 1.419 . S
C222 C223 1.362 . S
C223 H213 0.930 . S
C223 C216 1.409 . S
C223 C222 1.362 . S
H224 C230 0.930 . S
H225 C233 0.930 . S
H226 C234 0.930 . S
H227 C235 0.930 . S
H228 C238 0.930 . S
H229 C239 0.930 . S
C230 H224 0.930 . S
C230 C231 1.355 . S
C230 C232 1.415 . S
C231 C230 1.355 . S
C231 C233 1.419 . S
C232 C230 1.415 . S
C232 C237 1.425 . S
C232 C239 1.409 . S
C233 H225 0.930 . S
C233 C231 1.419 . S
C233 C234 1.362 . S
C234 H226 0.930 . S
C234 C233 1.362 . S
C234 C237 1.409 . S
C235 H227 0.930 . S
C235 C236 1.355 . S
C235 C237 1.415 . S
C236 C235 1.355 . S
C236 C238 1.419 . S
C237 C232 1.425 . S
C237 C234 1.409 . S
C237 C235 1.415 . S
C238 H228 0.930 . S
C238 C236 1.419 . S
C238 C239 1.362 . S
C239 H229 0.930 . S
C239 C232 1.409 . S
C239 C238 1.362 . S
H240 C246 0.930 . S
H241 C249 0.930 . S
H242 C250 0.930 . S
H243 C251 0.930 . S
H244 C254 0.930 . S
H245 C255 0.930 . S
C246 H240 0.930 . S
C246 C247 1.355 . S
C246 C248 1.415 . S
C247 C246 1.355 . S
C247 C249 1.419 . S
C248 C246 1.415 . S
C248 C253 1.425 . S
C248 C255 1.409 . S
C249 H241 0.930 . S
C249 C247 1.419 . S
C249 C250 1.362 . S
C250 H242 0.930 . S
C250 C249 1.362 . S
C250 C253 1.409 . S
C251 H243 0.930 . S
C251 C252 1.355 . S
C251 C253 1.415 . S
C252 C251 1.355 . S
C252 C254 1.419 . S
C253 C248 1.425 . S
C253 C250 1.409 . S
C253 C251 1.415 . S
C254 H244 0.930 . S
C254 C252 1.419 . S
C254 C255 1.362 . S
C255 H245 0.930 . S
C255 C248 1.409 . S
C255 C254 1.362 . S
H256 C262 0.930 . S
H257 C265 0.930 . S
H258 C266 0.930 . S
H259 C267 0.930 . S
H260 C270 0.930 . S
H261 C271 0.930 . S
C262 H256 0.930 . S
C262 C263 1.355 . S
C262 C264 1.415 . S
C263 C262 1.355 . S
C263 C265 1.419 . S
C264 C262 1.415 . S
C264 C269 1.425 . S
C264 C271 1.409 . S
C265 H257 0.930 . S
C265 C263 1.419 . S
C265 C266 1.362 . S
C266 H258 0.930 . S
C266 C265 1.362 . S
C266 C269 1.409 . S
C267 H259 0.930 . S
C267 C268 1.355 . S
C267 C269 1.415 . S
C268 C267 1.355 . S
C268 C270 1.419 . S
C269 C264 1.425 . S
C269 C266 1.409 . S
C269 C267 1.415 . S
C270 H260 0.930 . S
C270 C268 1.419 . S
C270 C271 1.362 . S
C271 H261 0.930 . S
C271 C264 1.409 . S
C271 C270 1.362 . S
H272 C278 0.930 . S
H273 C281 0.930 . S
H274 C282 0.930 . S
H275 C283 0.930 . S
H276 C286 0.930 . S
H277 C287 0.930 . S
C278 H272 0.930 . S
C278 C279 1.355 . S
C278 C280 1.415 . S
C279 C278 1.355 . S
C279 C281 1.419 . S
C280 C278 1.415 . S
C280 C285 1.425 1_545 S
C280 C287 1.409 . S
C281 H273 0.930 . S
C281 C279 1.419 . S
C281 C282 1.362 1_545 S
C282 H274 0.930 . S
C282 C281 1.362 1_565 S
C282 C285 1.409 . S
C283 H275 0.930 . S
C283 C284 1.355 . S
C283 C285 1.415 . S
C284 C283 1.355 . S
C284 C286 1.419 . S
C285 C280 1.425 1_565 S
C285 C282 1.409 . S
C285 C283 1.415 . S
C286 H276 0.930 . S
C286 C284 1.419 . S
C286 C287 1.362 1_565 S
C287 H277 0.930 . S
C287 C280 1.409 . S
C287 C286 1.362 1_545 S
H288 C294 0.930 1_565 S
H289 C297 0.930 . S
H290 C298 0.930 . S
H291 C299 0.930 1_545 S
H292 C302 0.930 . S
H293 C303 0.930 . S
C294 H288 0.930 1_545 S
C294 C295 1.355 1_655 S
C294 C296 1.415 1_545 S
C295 C294 1.355 1_455 S
C295 C297 1.419 . S
C296 C294 1.415 1_565 S
C296 C301 1.425 1_664 S
C296 C303 1.409 . S
C297 H289 0.930 . S
C297 C295 1.419 . S
C297 C298 1.362 1_554 S
C298 H290 0.930 . S
C298 C297 1.362 1_556 S
C298 C301 1.409 . S
C299 H291 0.930 1_565 S
C299 C300 1.355 1_455 S
C299 C301 1.415 1_565 S
C300 C299 1.355 1_655 S
C300 C302 1.419 . S
C301 C296 1.425 1_446 S
C301 C298 1.409 . S
C301 C299 1.415 1_545 S
C302 H292 0.930 . S
C302 C300 1.419 . S
C302 C303 1.362 1_556 S
C303 H293 0.930 . S
C303 C296 1.409 . S
C303 C302 1.362 1_554 S
H304 C310 0.930 . S
H305 C313 0.930 . S
H306 C314 0.930 . S
H307 C315 0.930 . S
H308 C318 0.930 . S
H309 C319 0.930 . S
C310 H304 0.930 . S
C310 C311 1.355 . S
C310 C312 1.419 . S
C311 C310 1.355 . S
C311 C313 1.419 . S
C312 C310 1.419 . S
C312 C317 1.425 . S
C312 C319 1.405 1_565 S
C313 H305 0.930 . S
C313 C311 1.419 . S
C313 C314 1.362 . S
C314 H306 0.930 . S
C314 C313 1.362 . S
C314 C317 1.409 . S
C315 H307 0.930 . S
C315 C316 1.355 . S
C315 C317 1.415 1_545 S
C316 C315 1.355 . S
C316 C318 1.419 . S
C317 C312 1.425 . S
C317 C314 1.409 . S
C317 C315 1.415 1_565 S
C318 H308 0.930 . S
C318 C316 1.419 . S
C318 C319 1.362 . S
C319 H309 0.930 . S
C319 C312 1.405 1_545 S
C319 C318 1.362 . S
H320 C326 0.930 . S
H321 C329 0.930 . S
H322 C330 0.930 . S
H323 C331 0.930 . S
H324 C334 0.930 . S
H325 C335 0.930 . S
C326 H320 0.930 . S
C326 C327 1.355 . S
C326 C328 1.415 . S
C327 C326 1.355 . S
C327 C329 1.419 . S
C328 C326 1.415 . S
C328 C333 1.425 1_565 S
C328 C335 1.409 1_565 S
C329 H321 0.930 . S
C329 C327 1.419 . S
C329 C330 1.362 . S
C330 H322 0.930 . S
C330 C329 1.362 . S
C330 C333 1.409 1_565 S
C331 H323 0.930 . S
C331 C332 1.355 . S
C331 C333 1.415 . S
C332 C331 1.355 . S
C332 C334 1.419 . S
C333 C328 1.425 1_545 S
C333 C330 1.409 1_545 S
C333 C331 1.415 . S
C334 H324 0.930 . S
C334 C332 1.419 . S
C334 C335 1.362 . S
C335 H325 0.930 . S
C335 C328 1.409 1_545 S
C335 C334 1.362 . S
H336 C342 0.930 . S
H337 C345 0.930 . S
H338 C346 0.930 . S
H339 C347 0.930 . S
H340 C350 0.930 . S
H341 C351 0.930 . S
C342 H336 0.930 . S
C342 C343 1.355 . S
C342 C344 1.415 . S
C343 C342 1.355 . S
C343 C345 1.419 . S
C344 C342 1.415 . S
C344 C349 1.425 1_545 S
C344 C351 1.409 1_545 S
C345 H337 0.930 . S
C345 C343 1.419 . S
C345 C346 1.362 . S
C346 H338 0.930 . S
C346 C345 1.362 . S
C346 C349 1.409 1_545 S
C347 H339 0.930 . S
C347 C348 1.355 . S
C347 C349 1.415 . S
C348 C347 1.355 . S
C348 C350 1.419 . S
C349 C344 1.425 1_565 S
C349 C346 1.409 1_565 S
C349 C347 1.415 . S
C350 H340 0.930 . S
C350 C348 1.419 . S
C350 C351 1.362 . S
C351 H341 0.930 . S
C351 C344 1.409 1_565 S
C351 C350 1.362 . S
H352 C358 0.930 . S
H353 C361 0.930 . S
H354 C362 0.930 . S
H355 C363 0.930 . S
H356 C366 0.930 . S
H357 C367 0.930 . S
C358 H352 0.930 . S
C358 C359 1.355 . S
C358 C360 1.415 1_565 S
C359 C358 1.355 . S
C359 C361 1.419 . S
C360 C358 1.415 1_545 S
C360 C365 1.425 1_545 S
C360 C367 1.409 . S
C361 H353 0.930 . S
C361 C359 1.419 . S
C361 C362 1.362 . S
C362 H354 0.930 . S
C362 C361 1.362 . S
C362 C365 1.409 . S
C363 H355 0.930 . S
C363 C364 1.355 . S
C363 C365 1.415 1_545 S
C364 C363 1.355 . S
C364 C366 1.419 . S
C365 C360 1.425 1_565 S
C365 C362 1.409 . S
C365 C363 1.415 1_565 S
C366 H356 0.930 . S
C366 C364 1.419 . S
C366 C367 1.362 . S
C367 H357 0.930 . S
C367 C360 1.409 . S
C367 C366 1.362 . S
H368 C374 0.930 . S
H369 C377 0.930 . S
H370 C378 0.930 . S
H371 C379 0.930 . S
H372 C382 0.930 . S
H373 C383 0.930 . S
C374 H368 0.930 . S
C374 C375 1.355 . S
C374 C376 1.415 . S
C375 C374 1.355 . S
C375 C377 1.419 . S
C376 C374 1.415 . S
C376 C381 1.425 1_565 S
C376 C383 1.409 . S
C377 H369 0.930 . S
C377 C375 1.419 . S
C377 C378 1.362 1_565 S
C378 H370 0.930 . S
C378 C377 1.362 1_545 S
C378 C381 1.409 . S
C379 H371 0.930 . S
C379 C380 1.355 . S
C379 C381 1.415 . S
C380 C379 1.355 . S
C380 C382 1.419 . S
C381 C376 1.425 1_545 S
C381 C378 1.409 . S
C381 C379 1.415 . S
C382 H372 0.930 . S
C382 C380 1.419 . S
C382 C383 1.362 1_545 S
C383 H373 0.930 . S
C383 C376 1.409 . S
C383 C382 1.362 1_565 S
H384 C390 0.930 . S
H385 C393 0.930 . S
H386 C394 0.930 . S
H387 C395 0.930 . S
H388 C398 0.930 . S
H389 C399 0.930 . S
C390 H384 0.930 . S
C390 C391 1.355 . S
C390 C392 1.415 . S
C391 C390 1.355 . S
C391 C393 1.419 . S
C392 C390 1.415 . S
C392 C397 1.425 1_545 S
C392 C399 1.409 . S
C393 H385 0.930 . S
C393 C391 1.419 . S
C393 C394 1.362 1_545 S
C394 H386 0.930 . S
C394 C393 1.362 1_565 S
C394 C397 1.409 . S
C395 H387 0.930 . S
C395 C396 1.355 . S
C395 C397 1.415 . S
C396 C395 1.355 . S
C396 C398 1.419 . S
C397 C392 1.425 1_565 S
C397 C394 1.409 . S
C397 C395 1.415 . S
C398 H388 0.930 . S
C398 C396 1.419 . S
C398 C399 1.362 1_565 S
C399 H389 0.930 . S
C399 C392 1.409 . S
C399 C398 1.362 1_545 S
H400 C406 0.930 . S
H401 C409 0.930 . S
H402 C410 0.930 . S
H403 C411 0.930 . S
H404 C414 0.930 . S
H405 C415 0.930 . S
C406 H400 0.930 . S
C406 C407 1.355 . S
C406 C408 1.415 . S
C407 C406 1.355 . S
C407 C409 1.419 . S
C408 C406 1.415 . S
C408 C413 1.425 1_565 S
C408 C415 1.409 . S
C409 H401 0.930 . S
C409 C407 1.419 . S
C409 C410 1.362 1_565 S
C410 H402 0.930 . S
C410 C409 1.362 1_545 S
C410 C413 1.409 . S
C411 H403 0.930 . S
C411 C412 1.355 . S
C411 C413 1.415 . S
C412 C411 1.355 . S
C412 C414 1.419 . S
C413 C408 1.425 1_545 S
C413 C410 1.409 . S
C413 C411 1.415 . S
C414 H404 0.930 . S
C414 C412 1.419 . S
C414 C415 1.362 1_545 S
C415 H405 0.930 . S
C415 C408 1.409 . S
C415 C414 1.362 1_565 S
H416 C422 0.930 . S
H417 C425 0.930 . S
H418 C426 0.930 . S
H419 C427 0.930 . S
H420 C430 0.930 . S
H421 C431 0.930 . S
C422 H416 0.930 . S
C422 C423 1.355 . S
C422 C424 1.415 . S
C423 C422 1.355 . S
C423 C425 1.419 . S
C424 C422 1.415 . S
C424 C429 1.425 1_565 S
C424 C431 1.409 . S
C425 H417 0.930 . S
C425 C423 1.419 . S
C425 C426 1.362 1_565 S
C426 H418 0.930 . S
C426 C425 1.362 1_545 S
C426 C429 1.409 . S
C427 H419 0.930 . S
C427 C428 1.355 . S
C427 C429 1.415 . S
C428 C427 1.355 . S
C428 C430 1.419 . S
C429 C424 1.425 1_545 S
C429 C426 1.409 . S
C429 C427 1.415 . S
C430 H420 0.930 . S
C430 C428 1.419 . S
C430 C431 1.362 1_545 S
C431 H421 0.930 . S
C431 C424 1.409 . S
C431 C430 1.362 1_565 S
H432 C438 0.930 . S
H433 C441 0.930 . S
H434 C442 0.930 . S
H435 C443 0.930 . S
H436 C446 0.930 . S
H437 C447 0.930 . S
C438 H432 0.930 . S
C438 C439 1.355 . S
C438 C440 1.415 . S
C439 C438 1.355 . S
C439 C441 1.419 . S
C440 C438 1.415 . S
C440 C445 1.425 . S
C440 C447 1.409 . S
C441 H433 0.930 . S
C441 C439 1.419 . S
C441 C442 1.362 . S
C442 H434 0.930 . S
C442 C441 1.362 . S
C442 C445 1.409 . S
C443 H435 0.930 . S
C443 C444 1.355 . S
C443 C445 1.415 . S
C444 C443 1.355 . S
C444 C446 1.419 . S
C445 C440 1.425 . S
C445 C442 1.409 . S
C445 C443 1.415 . S
C446 H436 0.930 . S
C446 C444 1.419 . S
C446 C447 1.362 . S
C447 H437 0.930 . S
C447 C440 1.409 . S
C447 C446 1.362 . S
H448 C454 0.930 . S
H449 C457 0.930 . S
H450 C458 0.930 . S
H451 C459 0.930 . S
H452 C462 0.930 . S
H453 C463 0.930 . S
C454 H448 0.930 . S
C454 C455 1.355 . S
C454 C456 1.415 . S
C455 C454 1.355 . S
C455 C457 1.419 . S
C456 C454 1.415 . S
C456 C461 1.425 . S
C456 C463 1.409 . S
C457 H449 0.930 . S
C457 C455 1.419 . S
C457 C458 1.362 . S
C458 H450 0.930 . S
C458 C457 1.362 . S
C458 C461 1.409 . S
C459 H451 0.930 . S
C459 C460 1.355 . S
C459 C461 1.415 . S
C460 C459 1.355 . S
C460 C462 1.419 . S
C461 C456 1.425 . S
C461 C458 1.409 . S
C461 C459 1.415 . S
C462 H452 0.930 . S
C462 C460 1.419 . S
C462 C463 1.362 . S
C463 H453 0.930 . S
C463 C456 1.409 . S
C463 C462 1.362 . S
H464 C470 0.930 . S
H465 C473 0.930 . S
H466 C474 0.930 . S
H467 C475 0.930 . S
H468 C478 0.930 . S
H469 C479 0.930 . S
C470 H464 0.930 . S
C470 C471 1.355 . S
C470 C472 1.415 . S
C471 C470 1.355 . S
C471 C473 1.419 . S
C472 C470 1.415 . S
C472 C477 1.425 . S
C472 C479 1.409 . S
C473 H465 0.930 . S
C473 C471 1.419 . S
C473 C474 1.362 . S
C474 H466 0.930 . S
C474 C473 1.362 . S
C474 C477 1.409 . S
C475 H467 0.930 . S
C475 C476 1.355 . S
C475 C477 1.415 . S
C476 C475 1.355 . S
C476 C478 1.419 . S
C477 C472 1.425 . S
C477 C474 1.409 . S
C477 C475 1.415 . S
C478 H468 0.930 . S
C478 C476 1.419 . S
C478 C479 1.362 . S
C479 H469 0.930 . S
C479 C472 1.409 . S
C479 C478 1.362 . S
H480 C486 0.930 . S
H481 C489 0.930 . S
H482 C490 0.930 . S
H483 C491 0.930 . S
H484 C494 0.930 . S
H485 C495 0.930 . S
C486 H480 0.930 . S
C486 C487 1.355 . S
C486 C488 1.415 . S
C487 C486 1.355 . S
C487 C489 1.419 . S
C488 C486 1.415 . S
C488 C493 1.425 . S
C488 C495 1.409 . S
C489 H481 0.930 . S
C489 C487 1.419 . S
C489 C490 1.362 . S
C490 H482 0.930 . S
C490 C489 1.362 . S
C490 C493 1.409 . S
C491 H483 0.930 . S
C491 C492 1.355 . S
C491 C493 1.415 . S
C492 C491 1.355 . S
C492 C494 1.419 . S
C493 C488 1.425 . S
C493 C490 1.409 . S
C493 C491 1.415 . S
C494 H484 0.930 . S
C494 C492 1.419 . S
C494 C495 1.362 . S
C495 H485 0.930 . S
C495 C488 1.409 . S
C495 C494 1.362 . S
H496 C502 0.930 . S
H497 C505 0.930 . S
H498 C506 0.930 . S
H499 C507 0.930 . S
H500 C510 0.930 . S
H501 C511 0.930 . S
C502 H496 0.930 . S
C502 C503 1.355 . S
C502 C504 1.415 . S
C503 C502 1.355 . S
C503 C505 1.419 . S
C504 C502 1.415 . S
C504 C509 1.425 . S
C504 C511 1.409 . S
C505 H497 0.930 . S
C505 C503 1.419 . S
C505 C506 1.362 . S
C506 H498 0.930 . S
C506 C505 1.362 . S
C506 C509 1.409 . S
C507 H499 0.930 . S
C507 C508 1.355 . S
C507 C509 1.415 . S
C508 C507 1.355 . S
C508 C510 1.419 . S
C509 C504 1.425 . S
C509 C506 1.409 . S
C509 C507 1.415 . S
C510 H500 0.930 . S
C510 C508 1.419 . S
C510 C511 1.362 . S
C511 H501 0.930 . S
C511 C504 1.409 . S
C511 C510 1.362 . S
H512 C518 0.930 . S
H513 C521 0.930 . S
H514 C522 0.930 . S
H515 C523 0.930 . S
H516 C526 0.930 . S
H517 C527 0.930 . S
C518 H512 0.930 . S
C518 C519 1.355 . S
C518 C520 1.415 . S
C519 C518 1.355 . S
C519 C521 1.419 . S
C520 C518 1.415 . S
C520 C525 1.425 . S
C520 C527 1.409 . S
C521 H513 0.930 . S
C521 C519 1.419 . S
C521 C522 1.362 . S
C522 H514 0.930 . S
C522 C521 1.362 . S
C522 C525 1.409 . S
C523 H515 0.930 . S
C523 C524 1.355 . S
C523 C525 1.415 . S
C524 C523 1.355 . S
C524 C526 1.419 . S
C525 C520 1.425 . S
C525 C522 1.409 . S
C525 C523 1.415 . S
C526 H516 0.930 . S
C526 C524 1.419 . S
C526 C527 1.362 . S
C527 H517 0.930 . S
C527 C520 1.409 . S
C527 C526 1.362 . S
H528 C534 0.930 . S
H529 C537 0.930 . S
H530 C538 0.930 . S
H531 C539 0.930 . S
H532 C542 0.930 . S
H533 C543 0.930 . S
C534 H528 0.930 . S
C534 C535 1.355 . S
C534 C536 1.415 . S
C535 C534 1.355 . S
C535 C537 1.419 . S
C536 C534 1.415 . S
C536 C541 1.425 . S
C536 C543 1.409 . S
C537 H529 0.930 . S
C537 C535 1.419 . S
C537 C538 1.362 . S
C538 H530 0.930 . S
C538 C537 1.362 . S
C538 C541 1.409 . S
C539 H531 0.930 . S
C539 C540 1.355 . S
C539 C541 1.415 . S
C540 C539 1.355 . S
C540 C542 1.419 . S
C541 C536 1.425 . S
C541 C538 1.409 . S
C541 C539 1.415 . S
C542 H532 0.930 . S
C542 C540 1.419 . S
C542 C543 1.362 . S
C543 H533 0.930 . S
C543 C536 1.409 . S
C543 C542 1.362 . S
H544 C550 0.930 . S
H545 C553 0.930 . S
H546 C554 0.930 . S
H547 C555 0.930 . S
H548 C558 0.930 . S
H549 C559 0.930 . S
C550 H544 0.930 . S
C550 C551 1.355 . S
C550 C552 1.415 . S
C551 C550 1.355 . S
C551 C553 1.419 . S
C552 C550 1.415 . S
C552 C557 1.425 . S
C552 C559 1.409 . S
C553 H545 0.930 . S
C553 C551 1.419 . S
C553 C554 1.362 . S
C554 H546 0.930 . S
C554 C553 1.362 . S
C554 C557 1.409 . S
C555 H547 0.930 . S
C555 C556 1.355 . S
C555 C557 1.415 . S
C556 C555 1.355 . S
C556 C558 1.419 . S
C557 C552 1.425 . S
C557 C554 1.409 . S
C557 C555 1.415 . S
C558 H548 0.930 . S
C558 C556 1.419 . S
C558 C559 1.362 . S
C559 H549 0.930 . S
C559 C552 1.409 . S
C559 C558 1.362 . S
C183 C7 1.474 . S
C188 C97 1.474 1_655 S
C199 C119 1.474 . S
C204 C29 1.475 . S
C215 C49 1.439 . S
C220 C138 1.439 . S
C231 C71 1.437 . S
C236 C160 1.438 . S
C247 C73 1.481 . S
C252 C163 1.480 . S
C263 C116 1.480 . S
C268 C27 1.479 . S
C279 C141 1.479 . S
C284 C51 1.479 . S
C295 C5 1.440 . S
C300 C94 1.440 1_655 S
C311 C115 1.490 . S
C316 C4 1.475 . S
C327 C26 1.497 . S
C332 C140 1.497 . S
C343 C162 1.487 . S
C348 C53 1.478 . S
C359 C93 1.489 . S
C364 C75 1.476 . S
C375 C92 1.500 . S
C380 C72 1.471 . S
C391 C158 1.470 . S
C396 C52 1.513 . S
C407 C30 1.468 . S
C412 C139 1.509 . S
C423 C117 1.477 . S
C428 C6 1.513 . S
C439 C159 1.510 . S
C444 C48 1.482 . S
C455 C96 1.508 . S
C460 C70 1.469 . S
C471 C118 1.491 . S
C476 C9 1.476 . S
C487 C31 1.471 . S
C492 C137 1.513 . S
C503 C136 1.504 . S
C508 C28 1.467 . S
C519 C8 1.500 . S
C524 C114 1.494 . S
C535 C95 1.508 . S
C540 C74 1.466 . S
C551 C161 1.469 . S
C556 C50 1.510 . S
