# Generated by pormake.
# Topology ukt, (4)-cn, num edge types: 1
# Building blocks:
#     Node 0, Type 0, BuildingBlock: UXUYUI_clean_sbu_0, # of connection points: 4
#     Node 1, Type 0, BuildingBlock: UXUYUI_clean_sbu_0, # of connection points: 4
#     Node 2, Type 0, BuildingBlock: UXUYUI_clean_sbu_0, # of connection points: 4
#     Node 3, Type 0, BuildingBlock: UXUYUI_clean_sbu_0, # of connection points: 4
#     Node 4, Type 0, BuildingBlock: UXUYUI_clean_sbu_0, # of connection points: 4
#     Node 5, Type 0, BuildingBlock: UXUYUI_clean_sbu_0, # of connection points: 4
#     Node 6, Type 0, BuildingBlock: UXUYUI_clean_sbu_0, # of connection points: 4
#     Node 7, Type 0, BuildingBlock: UXUYUI_clean_sbu_0, # of connection points: 4
#     Node 8, Type 0, BuildingBlock: UXUYUI_clean_sbu_0, # of connection points: 4
#     Node 9, Type 0, BuildingBlock: UXUYUI_clean_sbu_0, # of connection points: 4
#     Node 10, Type 0, BuildingBlock: UXUYUI_clean_sbu_0, # of connection points: 4
#     Node 11, Type 0, BuildingBlock: UXUYUI_clean_sbu_0, # of connection points: 4
#     Node 12, Type 0, BuildingBlock: UXUYUI_clean_sbu_0, # of connection points: 4
#     Node 13, Type 0, BuildingBlock: UXUYUI_clean_sbu_0, # of connection points: 4
#     Node 14, Type 0, BuildingBlock: UXUYUI_clean_sbu_0, # of connection points: 4
#     Node 15, Type 0, BuildingBlock: UXUYUI_clean_sbu_0, # of connection points: 4
#     Edge 16, Type (0, 0), BuildingBlock: XUDNAN_clean_linker_2, # of connection points: 2
#     Edge 17, Type (0, 0), BuildingBlock: XUDNAN_clean_linker_2, # of connection points: 2
#     Edge 18, Type (0, 0), BuildingBlock: XUDNAN_clean_linker_2, # of connection points: 2
#     Edge 19, Type (0, 0), BuildingBlock: XUDNAN_clean_linker_2, # of connection points: 2
#     Edge 20, Type (0, 0), BuildingBlock: XUDNAN_clean_linker_2, # of connection points: 2
#     Edge 21, Type (0, 0), BuildingBlock: XUDNAN_clean_linker_2, # of connection points: 2
#     Edge 22, Type (0, 0), BuildingBlock: XUDNAN_clean_linker_2, # of connection points: 2
#     Edge 23, Type (0, 0), BuildingBlock: XUDNAN_clean_linker_2, # of connection points: 2
#     Edge 24, Type (0, 0), BuildingBlock: XUDNAN_clean_linker_2, # of connection points: 2
#     Edge 25, Type (0, 0), BuildingBlock: XUDNAN_clean_linker_2, # of connection points: 2
#     Edge 26, Type (0, 0), BuildingBlock: XUDNAN_clean_linker_2, # of connection points: 2
#     Edge 27, Type (0, 0), BuildingBlock: XUDNAN_clean_linker_2, # of connection points: 2
#     Edge 28, Type (0, 0), BuildingBlock: XUDNAN_clean_linker_2, # of connection points: 2
#     Edge 29, Type (0, 0), BuildingBlock: XUDNAN_clean_linker_2, # of connection points: 2
#     Edge 30, Type (0, 0), BuildingBlock: XUDNAN_clean_linker_2, # of connection points: 2
#     Edge 31, Type (0, 0), BuildingBlock: XUDNAN_clean_linker_2, # of connection points: 2
#     Edge 32, Type (0, 0), BuildingBlock: XUDNAN_clean_linker_2, # of connection points: 2
#     Edge 33, Type (0, 0), BuildingBlock: XUDNAN_clean_linker_2, # of connection points: 2
#     Edge 34, Type (0, 0), BuildingBlock: XUDNAN_clean_linker_2, # of connection points: 2
#     Edge 35, Type (0, 0), BuildingBlock: XUDNAN_clean_linker_2, # of connection points: 2
#     Edge 36, Type (0, 0), BuildingBlock: XUDNAN_clean_linker_2, # of connection points: 2
#     Edge 37, Type (0, 0), BuildingBlock: XUDNAN_clean_linker_2, # of connection points: 2
#     Edge 38, Type (0, 0), BuildingBlock: XUDNAN_clean_linker_2, # of connection points: 2
#     Edge 39, Type (0, 0), BuildingBlock: XUDNAN_clean_linker_2, # of connection points: 2
#     Edge 40, Type (0, 0), BuildingBlock: XUDNAN_clean_linker_2, # of connection points: 2
#     Edge 41, Type (0, 0), BuildingBlock: XUDNAN_clean_linker_2, # of connection points: 2
#     Edge 42, Type (0, 0), BuildingBlock: XUDNAN_clean_linker_2, # of connection points: 2
#     Edge 43, Type (0, 0), BuildingBlock: XUDNAN_clean_linker_2, # of connection points: 2
#     Edge 44, Type (0, 0), BuildingBlock: XUDNAN_clean_linker_2, # of connection points: 2
#     Edge 45, Type (0, 0), BuildingBlock: XUDNAN_clean_linker_2, # of connection points: 2
#     Edge 46, Type (0, 0), BuildingBlock: XUDNAN_clean_linker_2, # of connection points: 2
#     Edge 47, Type (0, 0), BuildingBlock: XUDNAN_clean_linker_2, # of connection points: 2
# Relax obj value: 0.433
# Max RMSD: 0.238
# Mean RMSD: 0.238
data_MOF--net-ukt--node1-UXUYUI_clean_sbu_0--edge1-XUDNAN_clean_linker_2
_symmetry_space_group_name_H-M    P1
_symmetry_Int_Tables_number       1
_symmetry_cell_setting            triclinic
loop_
_symmetry_equiv_pos_as_xyz
'x, y, z'
_cell_length_a     60.548933
_cell_length_b     60.543383
_cell_length_c     54.566635
_cell_angle_alpha  90.009774
_cell_angle_beta   90.005314
_cell_angle_gamma 89.973733
loop_
_atom_site_label
_atom_site_type_symbol
_atom_site_fract_x
_atom_site_fract_y
_atom_site_fract_z
_atom_type_partial_charge
Li0 Li 0.55257 0.14855 0.11708 0.0
Li1 Li 0.55111 0.11852 0.08698 0.0
Li2 Li 0.58633 0.13278 0.10192 0.0
Li3 Li 0.5626 0.15478 0.07455 0.0
C4 C 0.57427 0.10293 0.13476 0.0
N5 N 0.59905 0.07309 0.16146 0.0
C6 C 0.57326 0.08039 0.12933 0.0
C7 C 0.58775 0.11028 0.1539 0.0
C8 C 0.58594 0.06557 0.14302 0.0
C9 C 0.6002 0.09494 0.16714 0.0
C10 C 0.51281 0.13796 0.08441 0.0
C11 C 0.48488 0.1216 0.05864 0.0
N12 N 0.47152 0.11928 0.07851 0.0
C13 C 0.49881 0.13541 0.10458 0.0
C14 C 0.50581 0.13104 0.06123 0.0
C15 C 0.47799 0.12595 0.10121 0.0
C16 C 0.52719 0.18154 0.13888 0.0
N17 N 0.53928 0.16324 0.14417 0.0
C18 C 0.53686 0.17084 0.18703 0.0
C19 C 0.54376 0.15738 0.16768 0.0
C20 C 0.52539 0.19057 0.18207 0.0
C21 C 0.52014 0.19555 0.15759 0.0
H22 H 0.52405 0.18585 0.11995 0.0
H23 H 0.55338 0.14272 0.17137 0.0
C24 C 0.54526 0.0834 0.05485 0.0
N25 N 0.53726 0.09202 0.07605 0.0
C26 C 0.53664 0.06389 0.04542 0.0
C27 C 0.512 0.06188 0.0802 0.0
C28 C 0.52103 0.08168 0.0889 0.0
C29 C 0.5198 0.05286 0.0581 0.0
H30 H 0.55865 0.09144 0.04542 0.0
H31 H 0.51526 0.08867 0.10598 0.0
C32 C 0.5803 0.18229 0.11872 0.0
N33 N 0.58076 0.21853 0.14949 0.0
C34 C 0.57069 0.20217 0.11124 0.0
C35 C 0.59035 0.1809 0.14173 0.0
C36 C 0.57108 0.2203 0.12708 0.0
C37 C 0.59033 0.19938 0.15706 0.0
C38 C 0.58675 0.13093 0.04563 0.0
C39 C 0.60899 0.13701 0.04421 0.0
C40 C 0.57391 0.13067 0.02431 0.0
C41 C 0.61801 0.14273 0.02152 0.0
C42 C 0.58353 0.13656 0.00198 0.0
N43 N 0.60519 0.14242 0.00105 0.0
C44 C 0.62142 0.10308 0.10201 0.0
C45 C 0.63194 0.13986 0.11141 0.0
C46 C 0.64346 0.0967 0.10009 0.0
N47 N 0.61612 0.12439 0.10722 0.0
C48 C 0.65425 0.13428 0.1092 0.0
C49 C 0.66014 0.11258 0.10284 0.0
H50 H 0.60853 0.09139 0.09768 0.0
H51 H 0.62724 0.15683 0.11471 0.0
C52 C 0.54631 0.17762 0.03261 0.0
N53 N 0.56328 0.17577 0.04877 0.0
C54 C 0.54775 0.19237 0.01301 0.0
C55 C 0.58384 0.20339 0.02754 0.0
C56 C 0.5818 0.18825 0.04664 0.0
C57 C 0.56673 0.20553 0.01025 0.0
H58 H 0.53182 0.16741 0.03472 0.0
H59 H 0.59503 0.18637 0.0598 0.0
O60 O 0.5621 0.11772 0.12145 0.0
O61 O 0.53337 0.14693 0.08738 0.0
O62 O 0.57951 0.16416 0.10378 0.0
O63 O 0.57742 0.12583 0.0678 0.0
H64 H 0.56296 0.0744 0.11458 0.0
H65 H 0.5888 0.12766 0.15829 0.0
H66 H 0.5854 0.04809 0.13894 0.0
H67 H 0.61081 0.10041 0.18188 0.0
H68 H 0.47931 0.11603 0.04085 0.0
H69 H 0.50401 0.1405 0.12268 0.0
H70 H 0.51656 0.13253 0.0455 0.0
H71 H 0.467 0.12383 0.11666 0.0
H72 H 0.54094 0.1661 0.20562 0.0
H73 H 0.51164 0.21067 0.15276 0.0
H74 H 0.54351 0.0572 0.02865 0.0
H75 H 0.49907 0.05378 0.09055 0.0
H76 H 0.5627 0.20349 0.09356 0.0
H77 H 0.59785 0.16563 0.1478 0.0
H78 H 0.56355 0.23574 0.12162 0.0
H79 H 0.59786 0.19848 0.17501 0.0
H80 H 0.61919 0.13752 0.06042 0.0
H81 H 0.55657 0.12642 0.02506 0.0
H82 H 0.63518 0.14752 0.0202 0.0
H83 H 0.57373 0.1366 0.9854 0.0
H84 H 0.64733 0.07995 0.09459 0.0
H85 H 0.66671 0.14699 0.11119 0.0
H86 H 0.53426 0.19325 2e-05 0.0
H87 H 0.59857 0.21347 0.02658 0.0
Li88 Li 0.35078 0.55185 0.11992 0.0
Li89 Li 0.38216 0.54183 0.09096 0.0
Li90 Li 0.37215 0.58007 0.09924 0.0
Li91 Li 0.34768 0.55696 0.0761 0.0
C92 C 0.39305 0.57156 0.13963 0.0
N93 N 0.41282 0.601 0.17146 0.0
C94 C 0.41601 0.57383 0.1399 0.0
C95 C 0.38014 0.58419 0.15559 0.0
C96 C 0.4257 0.58883 0.15613 0.0
C97 C 0.39045 0.599 0.17154 0.0
C98 C 0.33615 0.51536 0.08381 0.0
C99 C 0.32254 0.49348 0.0501 0.0
N100 N 0.30347 0.48985 0.06264 0.0
C101 C 0.3165 0.51125 0.09645 0.0
C102 C 0.3393 0.50624 0.06053 0.0
C103 C 0.30015 0.49837 0.08541 0.0
C104 C 0.31481 0.55291 0.1519 0.0
N105 N 0.33557 0.5448 0.14916 0.0
C106 C 0.33451 0.52889 0.18919 0.0
C107 C 0.34552 0.53285 0.16711 0.0
C108 C 0.31313 0.53744 0.1928 0.0
C109 C 0.30325 0.54946 0.17367 0.0
H110 H 0.30734 0.56231 0.13724 0.0
H111 H 0.3621 0.52666 0.16437 0.0
C112 C 0.42616 0.53397 0.0807 0.0
N113 N 0.40641 0.52359 0.08311 0.0
C114 C 0.4441 0.52293 0.07043 0.0
C115 C 0.42114 0.49051 0.06579 0.0
C116 C 0.40367 0.50214 0.07646 0.0
C117 C 0.44156 0.50111 0.06207 0.0
H118 H 0.42762 0.55121 0.08562 0.0
H119 H 0.3876 0.4945 0.07813 0.0
C120 C 0.32978 0.59663 0.0928 0.0
N121 N 0.31007 0.63386 0.07319 0.0
C122 C 0.33726 0.60537 0.07058 0.0
C123 C 0.31227 0.60687 0.10504 0.0
C124 C 0.32709 0.62418 0.06097 0.0
C125 C 0.30253 0.62567 0.09483 0.0
C126 C 0.38671 0.56591 0.04479 0.0
C127 C 0.39268 0.58581 0.03362 0.0
C128 C 0.38984 0.54604 0.03219 0.0
C129 C 0.40185 0.58548 0.01013 0.0
C130 C 0.39911 0.54639 0.00876 0.0
N131 N 0.40488 0.56594 0.9983 0.0
C132 C 0.40575 0.60984 0.09084 0.0
C133 C 0.37485 0.62658 0.10999 0.0
C134 C 0.41562 0.63035 0.08729 0.0
N135 N 0.38541 0.60843 0.10115 0.0
C136 C 0.38414 0.64751 0.10683 0.0
C137 C 0.40447 0.64962 0.09459 0.0
H138 H 0.41379 0.59505 0.08418 0.0
H139 H 0.35885 0.62493 0.11857 0.0
C140 C 0.30487 0.55466 0.05729 0.0
N141 N 0.32626 0.557 0.05021 0.0
C142 C 0.28785 0.55634 0.04018 0.0
C143 C 0.31508 0.56314 0.00874 0.0
C144 C 0.3316 0.56099 0.02641 0.0
C145 C 0.2928 0.56109 0.01556 0.0
H146 H 0.30101 0.552 0.0764 0.0
H147 H 0.34854 0.56334 0.02112 0.0
O148 O 0.38316 0.55752 0.12337 0.0
O149 O 0.3522 0.52822 0.0942 0.0
O150 O 0.33943 0.57819 0.10266 0.0
O151 O 0.37796 0.56597 0.06794 0.0
H152 H 0.42624 0.56421 0.12766 0.0
H153 H 0.36232 0.5828 0.15541 0.0
H154 H 0.44345 0.59082 0.1565 0.0
H155 H 0.38066 0.60897 0.18389 0.0
H156 H 0.32469 0.48646 0.03202 0.0
H157 H 0.31382 0.51806 0.11452 0.0
H158 H 0.35442 0.50913 0.05053 0.0
H159 H 0.28481 0.49518 0.09492 0.0
H160 H 0.34268 0.51931 0.20328 0.0
H161 H 0.28698 0.55667 0.17569 0.0
H162 H 0.45959 0.53166 0.06836 0.0
H163 H 0.41829 0.47384 0.05935 0.0
H164 H 0.35077 0.5978 0.06081 0.0
H165 H 0.30631 0.60043 0.12231 0.0
H166 H 0.33273 0.63109 0.0438 0.0
H167 H 0.28897 0.63375 0.10413 0.0
H168 H 0.39013 0.6014 0.0429 0.0
H169 H 0.38508 0.53052 0.04031 0.0
H170 H 0.40654 0.60077 0.0013 0.0
H171 H 0.40167 0.53112 0.99886 0.0
H172 H 0.43117 0.63111 0.07753 0.0
H173 H 0.37516 0.66191 0.1131 0.0
H174 H 0.27097 0.55432 0.04632 0.0
H175 H 0.31975 0.56726 0.99014 0.0
Li176 Li 0.9559 0.38272 0.0954 0.0
Li177 Li 0.94799 0.35024 0.12115 0.0
Li178 Li 0.94241 0.34694 0.07765 0.0
Li179 Li 0.91828 0.37022 0.10355 0.0
C180 C 0.98819 0.35294 0.07813 0.0
N181 N 0.02259 0.3534 0.0448 0.0
C182 C 0.00686 0.3398 0.082 0.0
C183 C 0.98707 0.36633 0.05732 0.0
C184 C 0.02406 0.34024 0.06493 0.0
C185 C 0.00461 0.36635 0.04069 0.0
C186 C 0.92851 0.39508 0.14244 0.0
C187 C 0.89808 0.40087 0.17025 0.0
N188 N 0.90369 0.42256 0.17208 0.0
C189 C 0.93413 0.41737 0.14484 0.0
C190 C 0.9105 0.3867 0.15546 0.0
C191 C 0.92132 0.43101 0.15982 0.0
C192 C 0.9563 0.42638 0.08482 0.0
N193 N 0.97084 0.40966 0.08866 0.0
C194 C 0.00102 0.43288 0.07709 0.0
C195 C 0.99296 0.41261 0.08563 0.0
C196 C 0.98616 0.45021 0.07248 0.0
C197 C 0.96362 0.44694 0.07694 0.0
H198 H 0.93883 0.42349 0.08728 0.0
H199 H 0.00424 0.39909 0.08898 0.0
C200 C 0.97305 0.31767 0.1447 0.0
N201 N 0.95732 0.33326 0.14874 0.0
C202 C 0.97711 0.30137 0.1622 0.0
C203 C 0.94981 0.3184 0.18844 0.0
C204 C 0.94624 0.33436 0.17038 0.0
C205 C 0.96486 0.30118 0.18404 0.0
H206 H 0.98131 0.31695 0.12718 0.0
H207 H 0.93363 0.34676 0.17301 0.0
C208 C 0.9173 0.38033 0.05334 0.0
N209 N 0.88619 0.38666 0.01694 0.0
C210 C 0.90165 0.36396 0.04836 0.0
C211 C 0.91719 0.39987 0.03971 0.0
C212 C 0.88603 0.36749 0.02993 0.0
C213 C 0.90133 0.40276 0.02139 0.0
C214 C 0.91607 0.32104 0.11938 0.0
C215 C 0.92821 0.30137 0.11897 0.0
C216 C 0.89872 0.32339 0.13608 0.0
C217 C 0.923 0.28454 0.1355 0.0
C218 C 0.89399 0.30616 0.15228 0.0
N219 N 0.90615 0.28727 0.15169 0.0
C220 C 0.95013 0.33476 0.02703 0.0
C221 C 0.93076 0.309 0.05161 0.0
C222 C 0.94792 0.32108 0.0065 0.0
N223 N 0.94186 0.32837 0.04915 0.0
C224 C 0.92794 0.29502 0.03161 0.0
C225 C 0.9365 0.30104 0.00869 0.0
H226 H 0.9578 0.35071 0.02499 0.0
H227 H 0.92345 0.30465 0.06893 0.0
C228 C 0.88846 0.4048 0.10047 0.0
N229 N 0.88932 0.38249 0.103 0.0
C230 C 0.86979 0.41481 0.09054 0.0
C231 C 0.85245 0.37893 0.08793 0.0
C232 C 0.87155 0.36954 0.09789 0.0
C233 C 0.85199 0.40167 0.08295 0.0
H234 H 0.90303 0.4146 0.10379 0.0
H235 H 0.87302 0.35178 0.09892 0.0
O236 O 0.97128 0.35272 0.09482 0.0
O237 O 0.94079 0.38152 0.12768 0.0
O238 O 0.93243 0.37742 0.0717 0.0
O239 O 0.92125 0.33795 0.10368 0.0
H240 H 0.00812 0.32939 0.09804 0.0
H241 H 0.97284 0.37669 0.05399 0.0
H242 H 0.03859 0.33015 0.06771 0.0
H243 H 0.00392 0.37666 0.02452 0.0
H244 H 0.88398 0.39463 0.18024 0.0
H245 H 0.9483 0.42405 0.13535 0.0
H246 H 0.90597 0.36952 0.15392 0.0
H247 H 0.92543 0.44831 0.16175 0.0
H248 H 0.01855 0.43494 0.07382 0.0
H249 H 0.95167 0.45986 0.07332 0.0
H250 H 0.98901 0.2885 0.15821 0.0
H251 H 0.93988 0.31873 0.20494 0.0
H252 H 0.90134 0.34881 0.05886 0.0
H253 H 0.92922 0.41269 0.04323 0.0
H254 H 0.87373 0.35503 0.02602 0.0
H255 H 0.90101 0.41783 0.01076 0.0
H256 H 0.94192 0.29932 0.10644 0.0
H257 H 0.88902 0.33835 0.13663 0.0
H258 H 0.93246 0.26938 0.13557 0.0
H259 H 0.88068 0.30782 0.16537 0.0
H260 H 0.95441 0.32642 0.98898 0.0
H261 H 0.91901 0.27967 0.03403 0.0
H262 H 0.87002 0.4324 0.08691 0.0
H263 H 0.83918 0.36824 0.08188 0.0
Li264 Li 0.1255 0.95444 0.07964 0.0
Li265 Li 0.15768 0.94468 0.10556 0.0
Li266 Li 0.1581 0.93789 0.06159 0.0
Li267 Li 0.13444 0.91707 0.08775 0.0
C268 C 0.15696 0.98788 0.08724 0.0
N269 N 0.15854 0.03041 0.1055 0.0
C270 C 0.14622 0.99308 0.10918 0.0
C271 C 0.16854 0.00428 0.07463 0.0
C272 C 0.14721 0.01469 0.1181 0.0
C273 C 0.16912 0.02569 0.08414 0.0
C274 C 0.11413 0.92669 0.1278 0.0
C275 C 0.11318 0.89717 0.15746 0.0
N276 N 0.09076 0.89842 0.15789 0.0
C277 C 0.09109 0.92777 0.12864 0.0
C278 C 0.1253 0.91135 0.1424 0.0
C279 C 0.07957 0.9133 0.14393 0.0
C280 C 0.08212 0.96112 0.06781 0.0
N281 N 0.10105 0.97271 0.07137 0.0
C282 C 0.08555 0.00425 0.05146 0.0
C283 C 0.10293 0.99408 0.06398 0.0
C284 C 0.06629 0.99217 0.04611 0.0
C285 C 0.06447 0.97053 0.05519 0.0
H286 H 0.08142 0.94391 0.07301 0.0
H287 H 0.11834 0.00279 0.06625 0.0
C288 C 0.19738 0.95978 0.12357 0.0
N289 N 0.1773 0.95258 0.13122 0.0
C290 C 0.21423 0.96359 0.14045 0.0
C291 C 0.18927 0.95302 0.17296 0.0
C292 C 0.17276 0.94965 0.1554 0.0
C293 C 0.21053 0.95961 0.1655 0.0
H294 H 0.20046 0.96196 0.10419 0.0
H295 H 0.15661 0.94401 0.16101 0.0
C296 C 0.12047 0.93712 0.03326 0.0
N297 N 0.10603 0.95203 0.98815 0.0
C298 C 0.10563 0.92452 0.01952 0.0
C299 C 0.12802 0.9573 0.02401 0.0
C300 C 0.09853 0.93233 0.99676 0.0
C301 C 0.1205 0.96455 0.00119 0.0
C302 C 0.17667 0.89906 0.0788 0.0
C303 C 0.16624 0.88724 0.06008 0.0
C304 C 0.1972 0.89201 0.08752 0.0
C305 C 0.17651 0.86849 0.05044 0.0
C306 C 0.20694 0.87318 0.07739 0.0
N307 N 0.19648 0.86191 0.05921 0.0
C308 C 0.19516 0.95038 0.03426 0.0
C309 C 0.17294 0.92331 0.01481 0.0
C310 C 0.21041 0.94957 0.0151 0.0
N311 N 0.17702 0.93719 0.03387 0.0
C312 C 0.18784 0.92182 0.99538 0.0
C313 C 0.20699 0.93488 0.99553 0.0
H314 H 0.19799 0.96118 0.04974 0.0
H315 H 0.15833 0.91306 0.01489 0.0
C316 C 0.09997 0.88822 0.08082 0.0
N317 N 0.12035 0.88914 0.0911 0.0
C318 C 0.089 0.86813 0.07866 0.0
C319 C 0.11973 0.85035 0.09899 0.0
C320 C 0.13013 0.8709 0.10079 0.0
C321 C 0.09914 0.84872 0.08718 0.0
H322 H 0.09264 0.90304 0.07332 0.0
H323 H 0.14633 0.87215 0.10903 0.0
O324 O 0.15639 0.96685 0.07809 0.0
O325 O 0.1257 0.94041 0.1126 0.0
O326 O 0.12702 0.92987 0.05589 0.0
O327 O 0.16709 0.91757 0.08851 0.0
H328 H 0.13721 0.98065 0.11926 0.0
H329 H 0.17695 0.00048 0.05763 0.0
H330 H 0.13898 0.01896 0.13504 0.0
H331 H 0.178 0.03856 0.07455 0.0
H332 H 0.1216 0.88509 0.16869 0.0
H333 H 0.0822 0.93966 0.11762 0.0
H334 H 0.14312 0.91009 0.1417 0.0
H335 H 0.06173 0.9139 0.14471 0.0
H336 H 0.08759 0.02106 0.04509 0.0
H337 H 0.05022 0.96037 0.05114 0.0
H338 H 0.23015 0.96914 0.13384 0.0
H339 H 0.18564 0.94959 0.19201 0.0
H340 H 0.09959 0.90889 0.02643 0.0
H341 H 0.13942 0.96737 0.03437 0.0
H342 H 0.08701 0.92275 0.98595 0.0
H343 H 0.12613 0.98017 0.99387 0.0
H344 H 0.15037 0.89242 0.05307 0.0
H345 H 0.20551 0.90103 0.10196 0.0
H346 H 0.1686 0.85918 0.03597 0.0
H347 H 0.22283 0.86754 0.08396 0.0
H348 H 0.22513 0.95969 0.01607 0.0
H349 H 0.18457 0.9104 0.98054 0.0
H350 H 0.07334 0.86769 0.0691 0.0
H351 H 0.12802 0.83581 0.10601 0.0
Li352 Li 0.58342 0.35686 0.40067 0.0
Li353 Li 0.5605 0.33585 0.42738 0.0
Li354 Li 0.55114 0.33912 0.384 0.0
Li355 Li 0.54855 0.37219 0.41359 0.0
C356 C 0.59206 0.31157 0.38801 0.0
N357 N 0.62248 0.28404 0.36576 0.0
C358 C 0.60493 0.29722 0.40214 0.0
C359 C 0.59444 0.31165 0.36254 0.0
C360 C 0.62029 0.28352 0.39056 0.0
C361 C 0.60995 0.29767 0.35164 0.0
C362 C 0.59057 0.36308 0.45122 0.0
C363 C 0.60928 0.37651 0.48732 0.0
N364 N 0.62475 0.36039 0.4847 0.0
C365 C 0.60662 0.3466 0.44898 0.0
C366 C 0.59187 0.37813 0.4706 0.0
C367 C 0.62378 0.34553 0.46604 0.0
C368 C 0.61517 0.38803 0.40503 0.0
N369 N 0.61283 0.36729 0.3959 0.0
C370 C 0.65192 0.36393 0.39091 0.0
C371 C 0.63058 0.35537 0.38818 0.0
C372 C 0.6547 0.38471 0.4019 0.0
C373 C 0.63602 0.39712 0.40816 0.0
H374 H 0.60083 0.39698 0.41139 0.0
H375 H 0.62843 0.33882 0.38128 0.0
C376 C 0.55654 0.29386 0.44769 0.0
N377 N 0.55934 0.31543 0.45381 0.0
C378 C 0.5555 0.27776 0.46589 0.0
C379 C 0.56068 0.3063 0.49639 0.0
C380 C 0.56108 0.32195 0.4776 0.0
C381 C 0.5578 0.28396 0.49051 0.0
H382 H 0.5551 0.28922 0.4286 0.0
H383 H 0.56281 0.33926 0.48201 0.0
C384 C 0.57252 0.3843 0.36462 0.0
N385 N 0.59788 0.41182 0.33563 0.0
C386 C 0.5738 0.40687 0.36987 0.0
C387 C 0.5838 0.37582 0.34436 0.0
C388 C 0.5868 0.42049 0.35507 0.0
C389 C 0.59663 0.38998 0.33 0.0
C390 C 0.51757 0.33447 0.42971 0.0
C391 C 0.50875 0.31354 0.42515 0.0
C392 C 0.51319 0.34504 0.45195 0.0
C393 C 0.4958 0.30342 0.44312 0.0
C394 C 0.50016 0.33436 0.46944 0.0
N395 N 0.49183 0.31394 0.4647 0.0
C396 C 0.53919 0.30084 0.36003 0.0
C397 C 0.53259 0.33291 0.33615 0.0
C398 C 0.53313 0.28726 0.34055 0.0
N399 N 0.53916 0.32315 0.35737 0.0
C400 C 0.52607 0.31991 0.31621 0.0
C401 C 0.52674 0.29677 0.3182 0.0
H402 H 0.54462 0.2936 0.37713 0.0
H403 H 0.53299 0.35072 0.33451 0.0
C404 C 0.54911 0.41312 0.43449 0.0
N405 N 0.535 0.39889 0.42333 0.0
C406 C 0.54145 0.43301 0.44399 0.0
C407 C 0.50484 0.42375 0.42953 0.0
C408 C 0.51321 0.40374 0.42055 0.0
C409 C 0.51906 0.43847 0.44171 0.0
H410 H 0.5664 0.40897 0.43601 0.0
H411 H 0.50236 0.39204 0.41164 0.0
O412 O 0.57676 0.32487 0.3991 0.0
O413 O 0.57386 0.36477 0.43438 0.0
O414 O 0.56016 0.37065 0.37916 0.0
O415 O 0.5309 0.34434 0.41276 0.0
H416 H 0.60302 0.2966 0.42185 0.0
H417 H 0.58436 0.32228 0.35127 0.0
H418 H 0.63043 0.27242 0.40128 0.0
H419 H 0.61199 0.29762 0.33194 0.0
H420 H 0.61048 0.38807 0.50238 0.0
H421 H 0.60597 0.33491 0.43411 0.0
H422 H 0.57954 0.39091 0.47278 0.0
H423 H 0.63635 0.33292 0.46441 0.0
H424 H 0.66606 0.35387 0.3861 0.0
H425 H 0.63759 0.41322 0.41666 0.0
H426 H 0.55341 0.26059 0.4608 0.0
H427 H 0.56245 0.31154 0.51527 0.0
H428 H 0.565 0.41378 0.3853 0.0
H429 H 0.58269 0.35853 0.33974 0.0
H430 H 0.58808 0.43794 0.35905 0.0
H431 H 0.60556 0.3836 0.31436 0.0
H432 H 0.51207 0.30513 0.40804 0.0
H433 H 0.52004 0.36119 0.45578 0.0
H434 H 0.48897 0.28716 0.43993 0.0
H435 H 0.49675 0.34227 0.48681 0.0
H436 H 0.53369 0.26949 0.34282 0.0
H437 H 0.52139 0.32779 0.29917 0.0
H438 H 0.55298 0.44411 0.45288 0.0
H439 H 0.48744 0.42748 0.42748 0.0
Li440 Li 0.13797 0.58819 0.40497 0.0
Li441 Li 0.1608 0.56563 0.43378 0.0
Li442 Li 0.15851 0.55764 0.39072 0.0
Li443 Li 0.12554 0.55101 0.41634 0.0
C444 C 0.18966 0.58755 0.39423 0.0
N445 N 0.22862 0.59106 0.36818 0.0
C446 C 0.20894 0.57766 0.40307 0.0
C447 C 0.19024 0.59945 0.37229 0.0
C448 C 0.22846 0.57957 0.38959 0.0
C449 C 0.2101 0.60098 0.35935 0.0
C450 C 0.12344 0.58772 0.45799 0.0
C451 C 0.10394 0.58894 0.49656 0.0
N452 N 0.1089 0.61076 0.49871 0.0
C453 C 0.1284 0.61016 0.46068 0.0
C454 C 0.11112 0.57702 0.47614 0.0
C455 C 0.12089 0.62151 0.48135 0.0
C456 C 0.10417 0.61943 0.40428 0.0
N457 N 0.12623 0.61698 0.40062 0.0
C458 C 0.13125 0.65607 0.39975 0.0
C459 C 0.13975 0.63469 0.39775 0.0
C460 C 0.10866 0.65911 0.4048 0.0
C461 C 0.09495 0.64044 0.40616 0.0
H462 H 0.09393 0.60502 0.40707 0.0
H463 H 0.15732 0.63224 0.39552 0.0
C464 C 0.19325 0.54881 0.46636 0.0
N465 N 0.17957 0.56619 0.46197 0.0
C466 C 0.2076 0.54913 0.48636 0.0
C467 C 0.19393 0.58543 0.49676 0.0
C468 C 0.1798 0.58437 0.47658 0.0
C469 C 0.20819 0.5677 0.50178 0.0
H470 H 0.19339 0.53483 0.45406 0.0
H471 H 0.16953 0.59835 0.47221 0.0
C472 C 0.11299 0.57541 0.36801 0.0
N473 N 0.08425 0.59914 0.33877 0.0
C474 C 0.09033 0.57107 0.36878 0.0
C475 C 0.12106 0.59162 0.35212 0.0
C476 C 0.07606 0.58329 0.35391 0.0
C477 C 0.10626 0.6035 0.33757 0.0
C478 C 0.15433 0.51952 0.43535 0.0
C479 C 0.16194 0.49841 0.42934 0.0
C480 C 0.14553 0.52346 0.45862 0.0
C481 C 0.16054 0.48154 0.44675 0.0
C482 C 0.14441 0.50616 0.47551 0.0
N483 N 0.15187 0.48573 0.46927 0.0
C484 C 0.19354 0.53321 0.37146 0.0
C485 C 0.17477 0.55473 0.34174 0.0
C486 C 0.21011 0.52804 0.35465 0.0
N487 N 0.17669 0.54682 0.36495 0.0
C488 C 0.19103 0.55004 0.32433 0.0
C489 C 0.20934 0.53704 0.33093 0.0
H490 H 0.19473 0.52733 0.39014 0.0
H491 H 0.16132 0.56568 0.33713 0.0
C492 C 0.08283 0.54867 0.43232 0.0
N493 N 0.09972 0.53535 0.42526 0.0
C494 C 0.06473 0.53995 0.44467 0.0
C495 C 0.08085 0.50359 0.44051 0.0
C496 C 0.09874 0.51308 0.42823 0.0
C497 C 0.06391 0.51721 0.44967 0.0
H498 H 0.08414 0.56634 0.42975 0.0
H499 H 0.11231 0.50282 0.42223 0.0
O500 O 0.17024 0.58525 0.40678 0.0
O501 O 0.13007 0.57645 0.43746 0.0
O502 O 0.12718 0.56373 0.38261 0.0
O503 O 0.1554 0.5361 0.41835 0.0
H504 H 0.20876 0.56833 0.41997 0.0
H505 H 0.17547 0.60715 0.36515 0.0
H506 H 0.24346 0.57183 0.3961 0.0
H507 H 0.21075 0.60996 0.34224 0.0
H508 H 0.09437 0.58084 0.51068 0.0
H509 H 0.13828 0.61868 0.44719 0.0
H510 H 0.10709 0.55969 0.47453 0.0
H511 H 0.12465 0.63886 0.48362 0.0
H512 H 0.14251 0.66994 0.39898 0.0
H513 H 0.07743 0.64201 0.40976 0.0
H514 H 0.21834 0.53511 0.48949 0.0
H515 H 0.19427 0.60034 0.50771 0.0
H516 H 0.08382 0.55838 0.38071 0.0
H517 H 0.13852 0.59529 0.35139 0.0
H518 H 0.05848 0.58017 0.35439 0.0
H519 H 0.11226 0.61625 0.32538 0.0
H520 H 0.16878 0.49509 0.41139 0.0
H521 H 0.13974 0.53969 0.46363 0.0
H522 H 0.16634 0.46511 0.44234 0.0
H523 H 0.13762 0.50899 0.49358 0.0
H524 H 0.22374 0.51768 0.36041 0.0
H525 H 0.18985 0.55753 0.30636 0.0
H526 H 0.05225 0.55116 0.45157 0.0
H527 H 0.08066 0.48592 0.44356 0.0
Li528 Li 0.92861 0.15776 0.43278 0.0
Li529 Li 0.90933 0.13144 0.40821 0.0
Li530 Li 0.94699 0.12489 0.41849 0.0
Li531 Li 0.93674 0.15415 0.38949 0.0
C532 C 0.92848 0.12173 0.46431 0.0
N533 N 0.94248 0.11072 0.51093 0.0
C534 C 0.91657 0.10649 0.47826 0.0
C535 C 0.94751 0.1314 0.47408 0.0
C536 C 0.92391 0.10114 0.50179 0.0
C537 C 0.95432 0.12561 0.49768 0.0
C538 C 0.88925 0.17276 0.41316 0.0
C539 C 0.86071 0.20055 0.41152 0.0
N540 N 0.85012 0.19045 0.43042 0.0
C541 C 0.87805 0.16266 0.43256 0.0
C542 C 0.8805 0.19185 0.40253 0.0
C543 C 0.85831 0.17184 0.44102 0.0
C544 C 0.93897 0.19691 0.45758 0.0
N545 N 0.9264 0.17839 0.45893 0.0
C546 C 0.90997 0.1908 0.49629 0.0
C547 C 0.91233 0.1749 0.47795 0.0
C548 C 0.92236 0.2104 0.49514 0.0
C549 C 0.93732 0.21314 0.47565 0.0
H550 H 0.95005 0.19919 0.44226 0.0
H551 H 0.90258 0.15997 0.47869 0.0
C552 C 0.88108 0.09624 0.41565 0.0
N553 N 0.88221 0.11612 0.40421 0.0
C554 C 0.86105 0.085 0.41708 0.0
C555 C 0.84395 0.11442 0.39383 0.0
C556 C 0.86442 0.125 0.39262 0.0
C557 C 0.84202 0.09444 0.40677 0.0
H558 H 0.89558 0.0896 0.42457 0.0
H559 H 0.86588 0.14074 0.38341 0.0
C560 C 0.9792 0.157 0.40807 0.0
N561 N 0.02145 0.15922 0.38907 0.0
C562 C 0.98649 0.14107 0.39137 0.0
C563 C 0.99341 0.17403 0.41513 0.0
C564 C 0.0079 0.14249 0.38197 0.0
C565 C 0.01471 0.17487 0.40532 0.0
C566 C 0.92106 0.11192 0.36774 0.0
C567 C 0.92023 0.08891 0.36603 0.0
C568 C 0.90867 0.12482 0.35154 0.0
C569 C 0.90692 0.07916 0.34813 0.0
C570 C 0.89557 0.11445 0.33389 0.0
N571 N 0.89496 0.09202 0.33257 0.0
C572 C 0.95769 0.08145 0.42816 0.0
C573 C 0.98602 0.10632 0.43988 0.0
C574 C 0.96864 0.06398 0.43951 0.0
N575 N 0.96639 0.10211 0.42873 0.0
C576 C 0.99755 0.08931 0.4515 0.0
C577 C 0.98861 0.0679 0.45185 0.0
H578 H 0.94165 0.0788 0.41998 0.0
H579 H 0.99215 0.12306 0.44099 0.0
C580 C 0.93744 0.19123 0.35896 0.0
N581 N 0.94474 0.1701 0.36095 0.0
C582 C 0.94177 0.20345 0.33782 0.0
C583 C 0.96176 0.17215 0.32153 0.0
C584 C 0.95672 0.16042 0.34284 0.0
C585 C 0.95402 0.19393 0.31862 0.0
H586 H 0.92792 0.19846 0.37368 0.0
H587 H 0.96218 0.1435 0.34484 0.0
O588 O 0.92165 0.12673 0.44104 0.0
O589 O 0.90863 0.16412 0.40444 0.0
O590 O 0.95825 0.15615 0.41746 0.0
O591 O 0.93349 0.12182 0.38556 0.0
H592 H 0.90183 0.09882 0.47094 0.0
H593 H 0.95702 0.14315 0.46356 0.0
H594 H 0.91487 0.08934 0.51278 0.0
H595 H 0.96904 0.13293 0.50544 0.0
H596 H 0.85377 0.21532 0.40346 0.0
H597 H 0.8844 0.1478 0.44095 0.0
H598 H 0.88887 0.19986 0.38744 0.0
H599 H 0.84949 0.16415 0.456 0.0
H600 H 0.89801 0.18804 0.51071 0.0
H601 H 0.94748 0.2278 0.47418 0.0
H602 H 0.86023 0.06977 0.42746 0.0
H603 H 0.82965 0.12212 0.38552 0.0
H604 H 0.97582 0.12771 0.38573 0.0
H605 H 0.98804 0.18648 0.42806 0.0
H606 H 0.01374 0.13028 0.36902 0.0
H607 H 0.02588 0.18797 0.41061 0.0
H608 H 0.92971 0.07867 0.37839 0.0
H609 H 0.90887 0.14265 0.35283 0.0
H610 H 0.90607 0.06137 0.34662 0.0
H611 H 0.8858 0.12422 0.32133 0.0
H612 H 0.96123 0.0477 0.43918 0.0
H613 H 0.01269 0.09313 0.46119 0.0
H614 H 0.93507 0.21998 0.33637 0.0
H615 H 0.97155 0.16417 0.30749 0.0
Li616 Li 0.33748 0.94226 0.42682 0.0
Li617 Li 0.36025 0.91661 0.40473 0.0
Li618 Li 0.37426 0.95357 0.41416 0.0
Li619 Li 0.34288 0.94722 0.38344 0.0
C620 C 0.37352 0.92623 0.4597 0.0
N621 N 0.38967 0.91853 0.50633 0.0
C622 C 0.37425 0.90474 0.46906 0.0
C623 C 0.38102 0.9438 0.47413 0.0
C624 C 0.38245 0.90119 0.49266 0.0
C625 C 0.38913 0.93956 0.49763 0.0
C626 C 0.31581 0.90477 0.40773 0.0
C627 C 0.28629 0.87864 0.40147 0.0
N628 N 0.29049 0.8697 0.42386 0.0
C629 C 0.31982 0.89532 0.43067 0.0
C630 C 0.2989 0.89639 0.39299 0.0
C631 C 0.30684 0.87762 0.4385 0.0
C632 C 0.29404 0.94351 0.44478 0.0
N633 N 0.31549 0.94443 0.45206 0.0
C634 C 0.30464 0.94324 0.49416 0.0
C635 C 0.32095 0.94502 0.47622 0.0
C636 C 0.28244 0.94099 0.48717 0.0
C637 C 0.27717 0.94185 0.46209 0.0
H638 H 0.2901 0.94331 0.42545 0.0
H639 H 0.33795 0.94615 0.4817 0.0
C640 C 0.39121 0.88421 0.41315 0.0
N641 N 0.37081 0.88708 0.40331 0.0
C642 C 0.39948 0.86305 0.41699 0.0
C643 C 0.36619 0.8481 0.39899 0.0
C644 C 0.35861 0.86966 0.39532 0.0
C645 C 0.38655 0.84464 0.41078 0.0
H646 H 0.4006 0.89842 0.41911 0.0
H647 H 0.34261 0.8724 0.38711 0.0
C648 C 0.33215 0.98417 0.42222 0.0
N649 N 0.30356 0.01065 0.44853 0.0
C650 C 0.31119 0.98899 0.41292 0.0
C651 C 0.33865 0.99292 0.44479 0.0
C652 C 0.29696 0.0024 0.42653 0.0
C653 C 0.32393 0.00625 0.45784 0.0
C654 C 0.38497 0.92349 0.36641 0.0
C655 C 0.40772 0.92004 0.36828 0.0
C656 C 0.37267 0.91153 0.34928 0.0
C657 C 0.41781 0.90449 0.35302 0.0
C658 C 0.38337 0.89613 0.33436 0.0
N659 N 0.40553 0.89295 0.33653 0.0
C660 C 0.41691 0.95456 0.43109 0.0
C661 C 0.40125 0.99033 0.42796 0.0
C662 C 0.43473 0.96278 0.44438 0.0
N663 N 0.40032 0.96821 0.42399 0.0
C664 C 0.41904 -0.00063 0.44085 0.0
C665 C 0.4357 0.9854 0.45012 0.0
H666 H 0.41543 0.93697 0.42807 0.0
H667 H 0.38765 0.00075 0.42229 0.0
C668 C 0.3075 0.95163 0.3512 0.0
N669 N 0.32949 0.95552 0.35353 0.0
C670 C 0.29701 0.95482 0.32871 0.0
C671 C 0.33189 0.9667 0.31165 0.0
C672 C 0.34173 0.9632 0.33449 0.0
C673 C 0.3093 0.96209 0.30839 0.0
H674 H 0.29826 0.94537 0.36667 0.0
H675 H 0.35925 0.96598 0.33689 0.0
O676 O 0.36609 0.92993 0.43632 0.0
O677 O 0.3282 0.92222 0.39964 0.0
O678 O 0.34605 0.97057 0.4095 0.0
O679 O 0.37466 0.93816 0.38162 0.0
H680 H 0.36857 0.89089 0.45825 0.0
H681 H 0.38038 0.96057 0.4674 0.0
H682 H 0.38311 0.88464 0.50009 0.0
H683 H 0.39495 0.95302 0.50896 0.0
H684 H 0.27316 0.87197 0.39024 0.0
H685 H 0.3327 0.90166 0.44238 0.0
H686 H 0.29559 0.90349 0.37516 0.0
H687 H 0.30976 0.87019 0.45624 0.0
H688 H 0.30953 0.94256 0.51323 0.0
H689 H 0.26024 0.94066 0.45585 0.0
H690 H 0.41547 0.86113 0.42564 0.0
H691 H 0.35568 0.83437 0.39393 0.0
H692 H 0.30591 0.98227 0.39551 0.0
H693 H 0.35479 0.98927 0.45226 0.0
H694 H 0.28064 0.00618 0.41964 0.0
H695 H 0.32868 0.01303 0.47541 0.0
H696 H 0.41745 0.92915 0.38149 0.0
H697 H 0.355 0.91391 0.34777 0.0
H698 H 0.4354 0.90156 0.35432 0.0
H699 H 0.37405 0.88666 0.3211 0.0
H700 H 0.4468 0.95119 0.45138 0.0
H701 H 0.41927 0.01698 0.44431 0.0
H702 H 0.27967 0.95071 0.32705 0.0
H703 H 0.34196 0.97259 0.2966 0.0
Li704 Li 0.44608 0.86572 0.91871 0.0
Li705 Li 0.409 0.85653 0.90589 0.0
Li706 Li 0.4309 0.83016 0.93014 0.0
Li707 Li 0.43928 0.83698 0.88621 0.0
C708 C 0.4206 0.87549 0.957 0.0
N709 N 0.42276 0.90899 0.99136 0.0
C710 C 0.40781 0.89456 0.95413 0.0
C711 C 0.43437 0.87343 0.97745 0.0
C712 C 0.40913 0.9113 0.97171 0.0
C713 C 0.43529 0.89057 0.99455 0.0
C714 C 0.42632 0.87942 0.86416 0.0
C715 C 0.40983 0.87734 0.82397 0.0
N716 N 0.41304 0.89942 0.82106 0.0
C717 C 0.42959 0.90206 0.86069 0.0
C718 C 0.41648 0.86694 0.8456 0.0
C719 C 0.4227 0.91187 0.83881 0.0
C720 C 0.4815 0.88566 0.94474 0.0
N721 N 0.46335 0.88964 0.93076 0.0
C722 C 0.46254 0.92733 0.94363 0.0
C723 C 0.45436 0.91017 0.92919 0.0
C724 C 0.48002 0.92319 0.95989 0.0
C725 C 0.49009 0.90229 0.95967 0.0
H726 H 0.48846 0.86928 0.94549 0.0
H727 H 0.43965 0.91273 0.91835 0.0
C728 C 0.36702 0.86204 0.92341 0.0
N729 N 0.3797 0.86818 0.90403 0.0
C730 C 0.34591 0.8707 0.92643 0.0
C731 C 0.35095 0.89183 0.88929 0.0
C732 C 0.37205 0.88263 0.88691 0.0
C733 C 0.33771 0.88605 0.90944 0.0
H734 H 0.37369 0.85097 0.93708 0.0
H735 H 0.38239 0.8876 0.87183 0.0
C736 C 0.47421 0.82154 0.92558 0.0
N737 N 0.50149 0.79092 0.94789 0.0
C738 C 0.48267 0.80378 0.91215 0.0
C739 C 0.47965 0.8237 0.95037 0.0
C740 C 0.49645 0.7885 0.92375 0.0
C741 C 0.49344 0.80804 0.96132 0.0
C742 C 0.3908 0.81695 0.89998 0.0
C743 C 0.38125 0.80629 0.92009 0.0
C744 C 0.37799 0.82101 0.87912 0.0
C745 C 0.35904 0.80011 0.91911 0.0
C746 C 0.35583 0.81461 0.87887 0.0
N747 N 0.34688 0.80439 0.89871 0.0
C748 C 0.42137 0.81383 0.9775 0.0
C749 C 0.43852 0.78797 0.95095 0.0
C750 C 0.42145 0.79851 0.99662 0.0
N751 N 0.43018 0.80844 0.95536 0.0
C752 C 0.43945 0.77236 0.96971 0.0
C753 C 0.43095 0.77768 0.99286 0.0
H754 H 0.41425 0.82999 0.9803 0.0
H755 H 0.44471 0.78387 0.93294 0.0
C756 C 0.47088 0.82444 0.8497 0.0
N757 N 0.44957 0.82258 0.85736 0.0
C758 C 0.47857 0.81142 0.83027 0.0
C759 C 0.44194 0.79593 0.82624 0.0
C760 C 0.43513 0.80875 0.84604 0.0
C761 C 0.46395 0.79693 0.81849 0.0
H762 H 0.48208 0.83534 0.8593 0.0
H763 H 0.41842 0.8073 0.85275 0.0
O764 O 0.41996 0.85913 0.93967 0.0
O765 O 0.43305 0.86958 0.88547 0.0
O766 O 0.46056 0.83661 0.91455 0.0
O767 O 0.41245 0.82352 0.90079 0.0
H768 H 0.39728 0.89664 0.93831 0.0
H769 H 0.44446 0.85887 0.97993 0.0
H770 H 0.39944 0.92619 0.96963 0.0
H771 H 0.44604 0.88927 0.01033 0.0
H772 H 0.4021 0.86786 0.80952 0.0
H773 H 0.4374 0.91197 0.87471 0.0
H774 H 0.41387 0.84947 0.8479 0.0
H775 H 0.42508 0.92939 0.83592 0.0
H776 H 0.4542 0.94316 0.94342 0.0
H777 H 0.50384 0.8986 0.97168 0.0
H778 H 0.33654 0.86615 0.94256 0.0
H779 H 0.34522 0.9036 0.87577 0.0
H780 H 0.47848 0.80163 0.89306 0.0
H781 H 0.47292 0.83702 0.96122 0.0
H782 H 0.50305 0.77465 0.91358 0.0
H783 H 0.49763 0.80944 0.98053 0.0
H784 H 0.39077 0.80293 0.93639 0.0
H785 H 0.38493 0.82927 0.86337 0.0
H786 H 0.35146 0.79195 0.93461 0.0
H787 H 0.34572 0.81782 0.86291 0.0
H788 H 0.4145 0.80297 0.01424 0.0
H789 H 0.4465 0.75622 0.96614 0.0
H790 H 0.49572 0.81238 0.82475 0.0
H791 H 0.43036 0.78469 0.81765 0.0
Li792 Li 0.64094 0.39958 0.90086 0.0
Li793 Li 0.62668 0.43575 0.91244 0.0
Li794 Li 0.65312 0.4312 0.87874 0.0
Li795 Li 0.6653 0.42661 0.92148 0.0
C796 C 0.61493 0.42622 0.85891 0.0
N797 N 0.60144 0.441 0.81344 0.0
C798 C 0.60398 0.44644 0.85672 0.0
C799 C 0.61897 0.41347 0.83804 0.0
C800 C 0.59728 0.45363 0.83355 0.0
C801 C 0.61205 0.42126 0.8152 0.0
C802 C 0.62461 0.41044 0.95324 0.0
C803 C 0.61267 0.42124 0.99366 0.0
N804 N 0.59457 0.4081 0.99128 0.0
C805 C 0.60603 0.39684 0.95129 0.0
C806 C 0.62809 0.42256 0.97468 0.0
C807 C 0.59099 0.39596 0.97069 0.0
C808 C 0.6409 0.35673 0.91933 0.0
N809 N 0.63235 0.36956 0.90126 0.0
C810 C 0.60643 0.3415 0.89047 0.0
C811 C 0.61576 0.3623 0.88655 0.0
C812 C 0.61424 0.32825 0.90977 0.0
C813 C 0.63214 0.33585 0.92383 0.0
H814 H 0.65369 0.36325 0.93113 0.0
H815 H 0.60902 0.3731 0.87266 0.0
C816 C 0.60007 0.46598 0.94078 0.0
N817 N 0.60033 0.44833 0.92537 0.0
C818 C 0.58119 0.47065 0.95457 0.0
C819 C 0.56289 0.43974 0.93522 0.0
C820 C 0.58199 0.43584 0.92165 0.0
C821 C 0.56263 0.45687 0.95252 0.0
H822 H 0.61479 0.4757 0.94344 0.0
H823 H 0.58274 0.42181 0.9094 0.0
C824 C 0.6807 0.38698 0.88985 0.0
N825 N 0.69731 0.34467 0.885 0.0
C826 C 0.69616 0.37895 0.90665 0.0
C827 C 0.67387 0.37355 0.87042 0.0
C828 C 0.70433 0.3575 0.90392 0.0
C829 C 0.68239 0.35219 0.86833 0.0
C830 C 0.66198 0.47222 0.91571 0.0
C831 C 0.67388 0.48721 0.90138 0.0
C832 C 0.66005 0.47578 0.94092 0.0
C833 C 0.68349 0.50563 0.91252 0.0
C834 C 0.66991 0.49439 0.95138 0.0
N835 N 0.68133 0.50881 0.93708 0.0
C836 C 0.65864 0.46226 0.83934 0.0
C837 C 0.67754 0.42813 0.83576 0.0
C838 C 0.66887 0.47012 0.81804 0.0
N839 N 0.66342 0.4417 0.84789 0.0
C840 C 0.68796 0.4352 0.81445 0.0
C841 C 0.68397 0.45656 0.80549 0.0
H842 H 0.64742 0.47277 0.84945 0.0
H843 H 0.68135 0.41205 0.8431 0.0
C844 C 0.69102 0.41525 0.96258 0.0
N845 N 0.6893 0.42969 0.94362 0.0
C846 C 0.70972 0.4154 0.97759 0.0
C847 C 0.72374 0.44627 0.95427 0.0
C848 C 0.70523 0.44494 0.93917 0.0
C849 C 0.72662 0.43096 0.97343 0.0
H850 H 0.67829 0.40298 0.96536 0.0
H851 H 0.70384 0.45584 0.92359 0.0
O852 O 0.62211 0.41918 0.88133 0.0
O853 O 0.63917 0.41207 0.93415 0.0
O854 O 0.67229 0.40785 0.89241 0.0
O855 O 0.65279 0.4539 0.90515 0.0
H856 H 0.60087 0.45656 0.8727 0.0
H857 H 0.62756 0.39784 0.83945 0.0
H858 H 0.58885 0.46928 0.83154 0.0
H859 H 0.61516 0.41163 0.79886 0.0
H860 H 0.61507 0.43066 0.0103 0.0
H861 H 0.60298 0.38741 0.9348 0.0
H862 H 0.64252 0.43293 0.97664 0.0
H863 H 0.57641 0.38571 0.96932 0.0
H864 H 0.5927 0.33621 0.87919 0.0
H865 H 0.63839 0.32641 0.9392 0.0
H866 H 0.58158 0.48401 0.96776 0.0
H867 H 0.5488 0.42892 0.93294 0.0
H868 H 0.70185 0.38914 0.92162 0.0
H869 H 0.6618 0.37943 0.85732 0.0
H870 H 0.71625 0.35106 0.91684 0.0
H871 H 0.67709 0.34157 0.85352 0.0
H872 H 0.6758 0.48459 0.8819 0.0
H873 H 0.65133 0.46412 0.95234 0.0
H874 H 0.69274 0.51736 0.90165 0.0
H875 H 0.66859 0.49729 0.97088 0.0
H876 H 0.66527 0.48667 0.81167 0.0
H877 H 0.69978 0.42433 0.80569 0.0
H878 H 0.71115 0.40289 0.99164 0.0
H879 H 0.73578 0.45903 0.95053 0.0
Li880 Li 0.06257 0.65686 0.88567 0.0
Li881 Li 0.06666 0.66572 0.93006 0.0
Li882 Li 0.09242 0.64022 0.90912 0.0
Li883 Li 0.05502 0.62872 0.91857 0.0
C884 C 0.10768 0.68177 0.90236 0.0
N885 N 0.14963 0.69984 0.9026 0.0
C886 C 0.1141 0.69609 0.92116 0.0
C887 C 0.12256 0.67688 0.88351 0.0
C888 C 0.13538 0.705 0.92099 0.0
C889 C 0.1437 0.6861 0.88402 0.0
C890 C 0.02335 0.67131 0.91975 0.0
C891 C 0.99862 0.6846 0.95114 0.0
N892 N 0.99176 0.70094 0.93581 0.0
C893 C 0.01604 0.68823 0.90431 0.0
C894 C 0.01454 0.66944 0.94334 0.0
C895 C 5e-05 0.70304 0.91277 0.0
C896 C 0.03436 0.66462 0.84445 0.0
N897 N 0.05415 0.66925 0.85506 0.0
C898 C 0.06248 0.69562 0.82388 0.0
C899 C 0.0682 0.68429 0.84517 0.0
C900 C 0.04192 0.6917 0.81284 0.0
C901 C 0.02779 0.67586 0.82325 0.0
H902 H 0.02342 0.65272 0.8529 0.0
H903 H 0.08368 0.68787 0.85414 0.0
C904 C 0.07506 0.6833 0.97657 0.0
N905 N 0.06466 0.68765 0.95501 0.0
C906 C 0.07486 0.69879 0.99548 0.0
C907 C 0.05316 0.723 0.96975 0.0
C908 C 0.05417 0.70721 0.95113 0.0
C909 C 0.06369 0.71884 0.99218 0.0
H910 H 0.08391 0.66795 0.97894 0.0
H911 H 0.04684 0.71069 0.93352 0.0
C912 C 0.0797 0.6142 0.86728 0.0
N913 N 0.09713 0.59237 0.82722 0.0
C914 C 0.07747 0.5913 0.86516 0.0
C915 C 0.09061 0.62601 0.84893 0.0
C916 C 0.08645 0.58056 0.8448 0.0
C917 C 0.09935 0.61468 0.82885 0.0
C918 C 0.07768 0.62329 0.96061 0.0
C919 C 0.09277 0.60586 0.96225 0.0
C920 C 0.06125 0.62554 0.97844 0.0
C921 C 0.09098 0.59081 0.98156 0.0
C922 C 0.05996 0.6101 0.9974 0.0
N923 N 0.07472 0.59319 0.99855 0.0
C924 C 0.13427 0.64033 0.92877 0.0
C925 C 0.13023 0.61226 0.89886 0.0
C926 C 0.15517 0.63258 0.93495 0.0
N927 N 0.12221 0.63014 0.91108 0.0
C928 C 0.15099 0.60366 0.90479 0.0
C929 C 0.16355 0.61356 0.92349 0.0
H930 H 0.12723 0.65398 0.93886 0.0
H931 H 0.1202 0.60394 0.88541 0.0
C932 C 0.01844 0.60681 0.9401 0.0
N933 N 0.03878 0.60401 0.9301 0.0
C934 C 0.00966 0.59059 0.95545 0.0
C935 C 0.0421 0.56826 0.94814 0.0
C936 C 0.05015 0.58481 0.93278 0.0
C937 C 0.02205 0.57149 0.9606 0.0
H938 H 0.00969 0.62217 0.9375 0.0
H939 H 0.06643 0.58321 0.92483 0.0
O940 O 0.08692 0.67275 0.90234 0.0
O941 O 0.03897 0.65664 0.91176 0.0
O942 O 0.07103 0.6249 0.88715 0.0
O943 O 0.0788 0.63788 0.94149 0.0
H944 H 0.10285 0.7003 0.93578 0.0
H945 H 0.11799 0.66588 0.86879 0.0
H946 H 0.14057 0.71602 0.93549 0.0
H947 H 0.15541 0.68229 0.86965 0.0
H948 H 0.99176 0.68341 0.96939 0.0
H949 H 0.02275 0.69008 0.88608 0.0
H950 H 0.02013 0.65662 0.95564 0.0
H951 H 0.99429 0.71624 0.90104 0.0
H952 H 0.0737 0.70794 0.81666 0.0
H953 H 0.0118 0.67238 0.81523 0.0
H954 H 0.08336 0.69517 0.01248 0.0
H955 H 0.04483 0.73855 0.96641 0.0
H956 H 0.06893 0.58191 0.87911 0.0
H957 H 0.09227 0.64371 0.85013 0.0
H958 H 0.08492 0.56283 0.84296 0.0
H959 H 0.10789 0.62363 0.81454 0.0
H960 H 0.10554 0.60376 0.94859 0.0
H961 H 0.04948 0.63894 0.97749 0.0
H962 H 0.10245 0.57716 0.98296 0.0
H963 H 0.04718 0.61152 0.01117 0.0
H964 H 0.16434 0.64106 0.94915 0.0
H965 H 0.1566 0.58878 0.8957 0.0
H966 H 0.99385 0.59351 0.96415 0.0
H967 H 0.05233 0.55393 0.95164 0.0
Li968 Li 0.86271 0.10214 0.91123 0.0
Li969 Li 0.8717 0.0645 0.92084 0.0
Li970 Li 0.84131 0.07424 0.89036 0.0
Li971 Li 0.83747 0.08083 0.9347 0.0
C972 C 0.88415 0.08815 0.86798 0.0
N973 N 0.90474 0.10563 0.82713 0.0
C974 C 0.90721 0.0884 0.86642 0.0
C975 C 0.87159 0.09657 0.84861 0.0
C976 C 0.9173 0.09739 0.84567 0.0
C977 C 0.8823 0.10539 0.82816 0.0
C978 C 0.88724 0.09488 0.95417 0.0
C979 C 0.90949 0.10388 0.98943 0.0
N980 N 0.92747 0.10596 0.97467 0.0
C981 C 0.90591 0.09719 0.93935 0.0
C982 C 0.889 0.0983 0.97941 0.0
C983 C 0.92611 0.10276 0.95004 0.0
C984 C 0.87139 0.14231 0.93195 0.0
N985 N 0.87471 0.13157 0.91041 0.0
C986 C 0.89415 0.16281 0.8943 0.0
C987 C 0.88572 0.14141 0.89158 0.0
C988 C 0.89095 0.17414 0.91649 0.0
C989 C 0.87936 0.16359 0.93541 0.0
H990 H 0.86259 0.13422 0.94666 0.0
H991 H 0.8881 0.13282 0.87451 0.0
C992 C 0.91148 0.04026 0.91424 0.0
N993 N 0.89526 0.04578 0.93029 0.0
C994 C 0.93151 0.03183 0.92289 0.0
C995 C 0.91714 0.03386 0.96417 0.0
C996 C 0.89736 0.04199 0.95472 0.0
C997 C 0.93486 0.02938 0.94828 0.0
H998 H 0.90935 0.04358 0.89492 0.0
H999 H 0.88428 0.04693 0.96706 0.0
C1000 C 0.8249 0.12255 0.90558 0.0
N1001 N 0.81619 0.16727 0.90223 0.0
C1002 C 0.81846 0.13443 0.92636 0.0
C1003 C 0.82674 0.1334 0.88306 0.0
C1004 C 0.81416 0.15703 0.9243 0.0
C1005 C 0.82232 0.15602 0.88176 0.0
C1006 C 0.8256 0.03994 0.92905 0.0
C1007 C 0.80398 0.04021 0.92011 0.0
C1008 C 0.83052 0.02825 0.95044 0.0
C1009 C 0.78753 0.02886 0.93289 0.0
C1010 C 0.8136 0.01712 0.9627 0.0
N1011 N 0.79263 0.01767 0.95375 0.0
C1012 C 0.83072 0.04737 0.84897 0.0
C1013 C 0.80757 0.07836 0.85584 0.0
C1014 C 0.81803 0.04111 0.82868 0.0
N1015 N 0.82526 0.06571 0.86201 0.0
C1016 C 0.7946 0.07286 0.83565 0.0
C1017 C 0.79972 0.05399 0.8218 0.0
H1018 H 0.84482 0.03756 0.85444 0.0
H1019 H 0.80337 0.09262 0.8668 0.0
C1020 C 0.82423 0.07595 0.98397 0.0
N1021 N 0.81708 0.08095 0.96102 0.0
C1022 C 0.80964 0.0769 0.00377 0.0
C1023 C 0.78065 0.08787 0.97579 0.0
C1024 C 0.79573 0.08652 0.95654 0.0
C1025 C 0.78762 0.08323 0.99981 0.0
H1026 H 0.8413 0.07141 0.98687 0.0
H1027 H 0.79052 0.09022 0.93802 0.0
O1028 O 0.87398 0.07914 0.88803 0.0
O1029 O 0.86732 0.08902 0.94418 0.0
O1030 O 0.82971 0.1005 0.90736 0.0
O1031 O 0.84176 0.05155 0.91725 0.0
H1032 H 0.91726 0.08175 0.88104 0.0
H1033 H 0.85379 0.09642 0.84934 0.0
H1034 H 0.93511 0.09777 0.84428 0.0
H1035 H 0.87277 0.11204 0.81311 0.0
H1036 H 0.91111 0.10654 0.00896 0.0
H1037 H 0.90482 0.09466 0.91982 0.0
H1038 H 0.8747 0.09661 0.99116 0.0
H1039 H 0.94069 0.10453 0.93877 0.0
H1040 H 0.90297 0.17044 0.87926 0.0
H1041 H 0.87687 0.17149 0.953 0.0
H1042 H 0.94453 0.02817 0.90991 0.0
H1043 H 0.91894 0.03259 0.98386 0.0
H1044 H 0.81723 0.12643 0.94402 0.0
H1045 H 0.83169 0.12452 0.86679 0.0
H1046 H 0.80935 0.16645 0.94027 0.0
H1047 H 0.82381 0.16463 0.86447 0.0
H1048 H 0.7999 0.04931 0.90364 0.0
H1049 H 0.84717 0.02798 0.95763 0.0
H1050 H 0.77068 0.02902 0.92628 0.0
H1051 H 0.81711 0.00811 0.97937 0.0
H1052 H 0.82256 0.02649 0.81841 0.0
H1053 H 0.78042 0.08301 0.83123 0.0
H1054 H 0.81564 0.07324 0.02203 0.0
H1055 H 0.76371 0.09246 0.97194 0.0
Li1056 Li 0.44167 0.65366 0.61212 0.0
Li1057 Li 0.43279 0.66138 0.56821 0.0
Li1058 Li 0.41423 0.6323 0.59218 0.0
Li1059 Li 0.45197 0.62635 0.5809 0.0
C1060 C 0.39235 0.66767 0.60383 0.0
N1061 N 0.34814 0.67121 0.61571 0.0
C1062 C 0.37704 0.67421 0.5861 0.0
C1063 C 0.38521 0.66308 0.62765 0.0
C1064 C 0.35474 0.67584 0.59245 0.0
C1065 C 0.36278 0.66497 0.63329 0.0
C1066 C 0.4808 0.66637 0.5936 0.0
C1067 C 0.51743 0.66273 0.61047 0.0
N1068 N 0.51732 0.6846 0.6162 0.0
C1069 C 0.48107 0.68882 0.59955 0.0
C1070 C 0.49911 0.65319 0.59903 0.0
C1071 C 0.49968 0.69772 0.61103 0.0
C1072 C 0.46899 0.66314 0.6539 0.0
N1073 N 0.45049 0.66878 0.64123 0.0
C1074 C 0.44348 0.69873 0.66861 0.0
C1075 C 0.43782 0.68619 0.64815 0.0
C1076 C 0.46288 0.69388 0.68177 0.0
C1077 C 0.47569 0.6757 0.67411 0.0
H1078 H 0.4788 0.64921 0.64797 0.0
H1079 H 0.42332 0.6905 0.63767 0.0
C1080 C 0.41256 0.67874 0.52654 0.0
N1081 N 0.4295 0.68189 0.54249 0.0
C1082 C 0.40907 0.69358 0.50737 0.0
C1083 C 0.44088 0.71433 0.52112 0.0
C1084 C 0.44375 0.69906 0.54001 0.0
C1085 C 0.42322 0.71179 0.50463 0.0
H1086 H 0.40162 0.66477 0.52889 0.0
H1087 H 0.45728 0.70094 0.55274 0.0
C1088 C 0.42837 0.60809 0.63058 0.0
N1089 N 0.40802 0.58167 0.66515 0.0
C1090 C 0.42247 0.58639 0.62476 0.0
C1091 C 0.42403 0.61631 0.65404 0.0
C1092 C 0.41216 0.57331 0.64247 0.0
C1093 C 0.4137 0.60271 0.67124 0.0
C1094 C 0.42741 0.6155 0.541 0.0
C1095 C 0.42187 0.59352 0.54584 0.0
C1096 C 0.43449 0.62153 0.51757 0.0
C1097 C 0.42367 0.57786 0.52714 0.0
C1098 C 0.43603 0.60539 0.49935 0.0
N1099 N 0.43064 0.58408 0.50447 0.0
C1100 C 0.37584 0.6189 0.57029 0.0
C1101 C 0.37436 0.61118 0.61281 0.0
C1102 C 0.35492 0.61006 0.56689 0.0
N1103 N 0.38541 0.6189 0.59281 0.0
C1104 C 0.35313 0.60226 0.61026 0.0
C1105 C 0.34336 0.60137 0.58694 0.0
H1106 H 0.3843 0.62615 0.55487 0.0
H1107 H 0.38171 0.61228 0.63077 0.0
C1108 C 0.47082 0.58382 0.57509 0.0
N1109 N 0.47153 0.60516 0.56743 0.0
C1110 C 0.47892 0.56703 0.56001 0.0
C1111 C 0.4899 0.59475 0.53053 0.0
C1112 C 0.48174 0.61099 0.54623 0.0
C1113 C 0.4876 0.5724 0.53688 0.0
H1114 H 0.46238 0.57967 0.5919 0.0
H1115 H 0.48168 0.62809 0.54048 0.0
O1116 O 0.41416 0.66533 0.59778 0.0
O1117 O 0.46263 0.65726 0.58272 0.0
O1118 O 0.43889 0.62101 0.61366 0.0
O1119 O 0.42603 0.63102 0.55917 0.0
H1120 H 0.38227 0.6778 0.56759 0.0
H1121 H 0.39681 0.65781 0.64155 0.0
H1122 H 0.34269 0.68075 0.57886 0.0
H1123 H 0.357 0.66132 0.65161 0.0
H1124 H 0.5317 0.65273 0.61485 0.0
H1125 H 0.4669 0.69918 0.59578 0.0
H1126 H 0.49912 0.63577 0.59461 0.0
H1127 H 0.50005 0.71503 0.61594 0.0
H1128 H 0.43256 0.71202 0.67398 0.0
H1129 H 0.49093 0.67136 0.68327 0.0
H1130 H 0.39513 0.69113 0.49525 0.0
H1131 H 0.45234 0.72797 0.51944 0.0
H1132 H 0.42559 0.57976 0.60669 0.0
H1133 H 0.42855 0.633 0.65894 0.0
H1134 H 0.4074 0.55654 0.63817 0.0
H1135 H 0.41019 0.60887 0.68944 0.0
H1136 H 0.41636 0.5886 0.56388 0.0
H1137 H 0.43896 0.63846 0.51357 0.0
H1138 H 0.41956 0.56077 0.53065 0.0
H1139 H 0.4416 0.60978 0.48115 0.0
H1140 H 0.34766 0.61045 0.54875 0.0
H1141 H 0.34452 0.59607 0.62624 0.0
H1142 H 0.47673 0.54998 0.56551 0.0
H1143 H 0.49671 0.59955 0.51296 0.0
Li1144 Li 0.85425 0.42006 0.5845 0.0
Li1145 Li 0.86708 0.45675 0.57623 0.0
Li1146 Li 0.83412 0.44997 0.60398 0.0
Li1147 Li 0.83254 0.4436 0.55901 0.0
C1148 C 0.87391 0.43121 0.62946 0.0
N1149 N 0.88995 0.41035 0.6709 0.0
C1150 C 0.89667 0.42854 0.63277 0.0
C1151 C 0.85936 0.42343 0.64737 0.0
C1152 C 0.90443 0.4179 0.6538 0.0
C1153 C 0.86777 0.4129 0.66815 0.0
C1154 C 0.88267 0.42592 0.54422 0.0
C1155 C 0.90839 0.41895 0.51132 0.0
N1156 N 0.92408 0.41331 0.52802 0.0
C1157 C 0.8991 0.42013 0.56102 0.0
C1158 C 0.88738 0.42541 0.51914 0.0
C1159 C 0.9199 0.41376 0.5525 0.0
C1160 C 0.85865 0.37976 0.56339 0.0
N1161 N 0.86288 0.38959 0.58526 0.0
C1162 C 0.881 0.35693 0.59968 0.0
C1163 C 0.87345 0.37852 0.60355 0.0
C1164 C 0.87756 0.34679 0.57681 0.0
C1165 C 0.86568 0.35832 0.55882 0.0
H1166 H 0.85027 0.3889 0.54913 0.0
H1167 H 0.87665 0.38649 0.62084 0.0
C1168 C 0.90954 0.47587 0.58441 0.0
N1169 N 0.89253 0.47335 0.56842 0.0
C1170 C 0.93027 0.48253 0.57588 0.0
C1171 C 0.91501 0.48511 0.53502 0.0
C1172 C 0.89468 0.47848 0.54432 0.0
C1173 C 0.93335 0.4865 0.5507 0.0
H1174 H 0.90737 0.47149 0.60346 0.0
H1175 H 0.88106 0.47564 0.53193 0.0
C1176 C 0.81296 0.40425 0.5876 0.0
N1177 N 0.79567 0.36214 0.59134 0.0
C1178 C 0.80577 0.39309 0.56664 0.0
C1179 C 0.81102 0.39411 0.61051 0.0
C1180 C 0.79718 0.37178 0.5689 0.0
C1181 C 0.80233 0.37279 0.61201 0.0
C1182 C 0.82488 0.4871 0.56517 0.0
C1183 C 0.80645 0.49601 0.57702 0.0
C1184 C 0.82971 0.49345 0.54113 0.0
C1185 C 0.79298 0.51096 0.56448 0.0
C1186 C 0.81581 0.50842 0.52921 0.0
N1187 N 0.79788 0.51678 0.54103 0.0
C1188 C 0.82374 0.46975 0.65073 0.0
C1189 C 0.79448 0.45361 0.62808 0.0
C1190 C 0.80927 0.47488 0.66992 0.0
N1191 N 0.81612 0.45905 0.63052 0.0
C1192 C 0.7795 0.45846 0.64667 0.0
C1193 C 0.78686 0.46894 0.66812 0.0
H1194 H 0.84108 0.47386 0.65213 0.0
H1195 H 0.78887 0.44534 0.61164 0.0
C1196 C 0.82014 0.43241 0.51122 0.0
N1197 N 0.8134 0.44343 0.53158 0.0
C1198 C 0.80552 0.42882 0.49187 0.0
C1199 C 0.77759 0.44887 0.5144 0.0
C1200 C 0.79263 0.45171 0.53348 0.0
C1201 C 0.78375 0.43671 0.4935 0.0
H1202 H 0.8365 0.42534 0.51059 0.0
H1203 H 0.78749 0.45983 0.55017 0.0
O1204 O 0.86599 0.44181 0.6091 0.0
O1205 O 0.86235 0.4329 0.5522 0.0
O1206 O 0.82173 0.42501 0.58571 0.0
O1207 O 0.83818 0.47236 0.57712 0.0
H1208 H 0.90826 0.43453 0.61926 0.0
H1209 H 0.84176 0.42548 0.6453 0.0
H1210 H 0.92199 0.41564 0.65652 0.0
H1211 H 0.85666 0.40676 0.68209 0.0
H1212 H 0.91225 0.41853 0.49197 0.0
H1213 H 0.89588 0.42065 0.58044 0.0
H1214 H 0.87506 0.43022 0.50582 0.0
H1215 H 0.93273 0.40925 0.56535 0.0
H1216 H 0.8901 0.34861 0.61405 0.0
H1217 H 0.86213 0.35099 0.54115 0.0
H1218 H 0.94392 0.48368 0.58864 0.0
H1219 H 0.91663 0.48756 0.51544 0.0
H1220 H 0.80703 0.40068 0.54877 0.0
H1221 H 0.81615 0.40259 0.62696 0.0
H1222 H 0.79173 0.36289 0.55279 0.0
H1223 H 0.80085 0.36471 0.62962 0.0
H1224 H 0.80257 0.49143 0.59568 0.0
H1225 H 0.84381 0.48663 0.53164 0.0
H1226 H 0.77862 0.51793 0.5734 0.0
H1227 H 0.81924 0.51334 0.51054 0.0
H1228 H 0.81567 0.48281 0.68623 0.0
H1229 H 0.76233 0.45395 0.64429 0.0
H1230 H 0.81093 0.41896 0.47645 0.0
H1231 H 0.76109 0.45555 0.51638 0.0
Li1232 Li 0.08786 0.8578 0.59048 0.0
Li1233 Li 0.05151 0.8722 0.58137 0.0
Li1234 Li 0.05527 0.83976 0.60822 0.0
Li1235 Li 0.06126 0.8374 0.56489 0.0
C1236 C 0.05505 0.88103 0.63201 0.0
N1237 N 0.03162 0.90263 0.66825 0.0
C1238 C 0.03214 0.88345 0.63 0.0
C1239 C 0.06604 0.88969 0.65237 0.0
C1240 C 0.0206 0.89443 0.64853 0.0
C1241 C 0.05389 0.9005 0.67054 0.0
C1242 C 0.077 0.8836 0.54296 0.0
C1243 C 0.06167 0.90659 0.51101 0.0
N1244 N 0.07903 0.92067 0.51334 0.0
C1245 C 0.09478 0.89824 0.54483 0.0
C1246 C 0.06042 0.88773 0.52571 0.0
C1247 C 0.09548 0.91689 0.52978 0.0
C1248 C 0.1328 0.85285 0.5818 0.0
N1249 N 0.11783 0.8657 0.59361 0.0
C1250 C 0.1445 0.89429 0.5991 0.0
C1251 C 0.12342 0.88565 0.60319 0.0
C1252 C 0.15983 0.88212 0.58519 0.0
C1253 C 0.15411 0.86066 0.57765 0.0
H1254 H 0.12774 0.83716 0.57416 0.0
H1255 H 0.11095 0.89564 0.61208 0.0
C1256 C 0.02005 0.90294 0.56122 0.0
N1257 N 0.03857 0.90024 0.57497 0.0
C1258 C 0.01534 0.92354 0.55087 0.0
C1259 C 0.04756 0.93843 0.57119 0.0
C1260 C 0.05169 0.91761 0.58098 0.0
C1261 C 0.02983 0.94133 0.55493 0.0
H1262 H 0.00995 0.88882 0.55668 0.0
H1263 H 0.06641 0.91487 0.59181 0.0
C1264 C 0.09459 0.816 0.60791 0.0
N1265 N 0.12238 0.79598 0.64139 0.0
C1266 C 0.10444 0.79572 0.6024 0.0
C1267 C 0.09896 0.82616 0.63042 0.0
C1268 C 0.11842 0.78585 0.61957 0.0
C1269 C 0.11302 0.81574 0.6471 0.0
C1270 C 0.01941 0.83183 0.5683 0.0
C1271 C 0.01291 0.8112 0.57725 0.0
C1272 C 0.01236 0.83859 0.54509 0.0
C1273 C -0.00024 0.79754 0.56267 0.0
C1274 C 0.99923 0.82445 0.53105 0.0
N1275 N 0.99327 0.80437 0.54005 0.0
C1276 C 0.03774 0.83052 0.65714 0.0
C1277 C 0.04806 0.80003 0.63247 0.0
C1278 C 0.03224 0.81638 0.67646 0.0
N1279 N 0.04559 0.82219 0.63566 0.0
C1280 C 0.04312 0.78536 0.65138 0.0
C1281 C 0.0352 0.79351 0.67375 0.0
H1282 H 0.03601 0.84806 0.65963 0.0
H1283 H 0.05411 0.79371 0.61519 0.0
C1284 C 0.05863 0.82504 0.51446 0.0
N1285 N 0.06017 0.81757 0.53788 0.0
C1286 C 0.06032 0.81035 0.49483 0.0
C1287 C 0.06501 0.78054 0.52383 0.0
C1288 C 0.0629 0.79577 0.54287 0.0
C1289 C 0.0641 0.78781 0.49934 0.0
H1290 H 0.05659 0.84242 0.51093 0.0
H1291 H 0.06418 0.79033 0.5617 0.0
O1292 O 0.06686 0.87086 0.61387 0.0
O1293 O 0.07589 0.86537 0.55788 0.0
O1294 O 0.08076 0.82574 0.59125 0.0
O1295 O 0.03273 0.84522 0.58209 0.0
H1296 H 0.02331 0.87681 0.61444 0.0
H1297 H 0.08378 0.88806 0.65409 0.0
H1298 H 0.00288 0.89637 0.64726 0.0
H1299 H 0.06218 0.90724 0.68643 0.0
H1300 H 0.04876 0.9101 0.49788 0.0
H1301 H 0.10797 0.89528 0.55767 0.0
H1302 H 0.04637 0.87687 0.52411 0.0
H1303 H 0.10911 0.92837 0.53116 0.0
H1304 H 0.14809 0.91096 0.60509 0.0
H1305 H 0.16555 0.8505 0.56736 0.0
H1306 H 0.00152 0.92503 0.53839 0.0
H1307 H 0.05886 0.9518 0.57522 0.0
H1308 H 0.10129 0.78768 0.58503 0.0
H1309 H 0.09155 0.84184 0.63506 0.0
H1310 H 0.12612 0.77014 0.61556 0.0
H1311 H 0.1165 0.82338 0.66461 0.0
H1312 H 0.01793 0.80578 0.59524 0.0
H1313 H 0.01723 0.85442 0.53779 0.0
H1314 H 0.9947 0.7815 0.56935 0.0
H1315 H 0.99384 0.82941 0.51297 0.0
H1316 H 0.02636 0.82329 0.69357 0.0
H1317 H 0.04544 0.7678 0.64853 0.0
H1318 H 0.0591 0.8167 0.47633 0.0
H1319 H 0.06827 0.76344 0.52834 0.0
Li1320 Li 0.66061 0.06169 0.56329 0.0
Li1321 Li 0.65678 0.05909 0.61047 0.0
Li1322 Li 0.62726 0.0481 0.58233 0.0
Li1323 Li 0.63534 0.08558 0.58712 0.0
C1324 C 0.65282 0.01322 0.5836 0.0
N1325 N 0.64205 0.96896 0.5812 0.0
C1326 C 0.64323 0.00275 0.60377 0.0
C1327 C 0.65705 0.0012 0.56224 0.0
C1328 C 0.63786 0.98035 0.60218 0.0
C1329 C 0.65146 0.97882 0.56139 0.0
C1330 C 0.67281 0.10555 0.59232 0.0
C1331 C 0.67686 0.13776 0.61791 0.0
N1332 N 0.68019 0.15031 0.59757 0.0
C1333 C 0.67636 0.11872 0.57168 0.0
C1334 C 0.67309 0.11509 0.61565 0.0
C1335 C 0.68002 0.14134 0.57471 0.0
C1336 C 0.67738 0.07406 0.51743 0.0
N1337 N 0.68029 0.06007 0.53662 0.0
C1338 C 0.71239 0.04456 0.51797 0.0
C1339 C 0.69725 0.0454 0.53724 0.0
C1340 C 0.71006 0.05907 0.49803 0.0
C1341 C 0.69216 0.07385 0.49782 0.0
H1342 H 0.66369 0.08556 0.51753 0.0
H1343 H 0.69919 0.03461 0.55289 0.0
C1344 C 0.66581 0.04078 0.6578 0.0
N1345 N 0.6737 0.05329 0.63906 0.0
C1346 C 0.67891 0.03681 0.67846 0.0
C1347 C 0.70788 0.05871 0.66007 0.0
C1348 C 0.69433 0.0621 0.63975 0.0
C1349 C 0.70022 0.04595 0.67979 0.0
H1350 H 0.64929 0.03405 0.6568 0.0
H1351 H 0.70027 0.07177 0.62445 0.0
C1352 C 0.61326 0.0676 0.54024 0.0
N1353 N 0.57812 0.06135 0.50868 0.0
C1354 C 0.59191 0.07368 0.54733 0.0
C1355 C 0.61678 0.05865 0.51695 0.0
C1356 C 0.57435 0.07027 0.53117 0.0
C1357 C 0.59879 0.05557 0.50129 0.0
C1358 C 0.61339 0.07771 0.6295 0.0
C1359 C 0.59144 0.08349 0.62474 0.0
C1360 C 0.62344 0.08482 0.65118 0.0
C1361 C 0.57999 0.0965 0.64164 0.0
C1362 C 0.6114 0.09776 0.66766 0.0
N1363 N 0.59012 0.10331 0.66257 0.0
C1364 C 0.58522 0.02926 0.59057 0.0
C1365 C 0.60265 0.01812 0.55375 0.0
C1366 C 0.56486 0.02167 0.58199 0.0
N1367 N 0.60327 0.02846 0.57584 0.0
C1368 C 0.58261 0.01072 0.54424 0.0
C1369 C 0.5631 0.01358 0.55787 0.0
H1370 H 0.58623 0.0373 0.6082 0.0
H1371 H 0.61723 0.01781 0.54233 0.0
C1372 C 0.61868 0.12196 0.56255 0.0
N1373 N 0.62325 0.11503 0.5857 0.0
C1374 C 0.60813 0.14204 0.55857 0.0
C1375 C 0.60853 0.14863 0.60224 0.0
C1376 C 0.61908 0.12824 0.60541 0.0
C1377 C 0.6026 0.15534 0.57859 0.0
H1378 H 0.62302 0.11179 0.54704 0.0
H1379 H 0.62373 0.12299 0.62356 0.0
O1380 O 0.65793 0.03519 0.58471 0.0
O1381 O 0.66847 0.08353 0.58968 0.0
O1382 O 0.63063 0.07041 0.55601 0.0
O1383 O 0.62478 0.06472 0.61334 0.0
H1384 H 0.63972 0.01189 0.62035 0.0
H1385 H 0.66435 0.00911 0.54642 0.0
H1386 H 0.63032 0.97205 0.6176 0.0
H1387 H 0.65454 0.96932 0.54495 0.0
H1388 H 0.67702 0.1454 0.63583 0.0
H1389 H 0.67604 0.1116 0.5535 0.0
H1390 H 0.67016 0.10514 0.63179 0.0
H1391 H 0.68267 0.15177 0.55889 0.0
H1392 H 0.72615 0.03317 0.51906 0.0
H1393 H 0.68971 0.08522 0.48273 0.0
H1394 H 0.67232 0.02703 0.69338 0.0
H1395 H 0.72431 0.06579 0.6602 0.0
H1396 H 0.58894 0.08077 0.56521 0.0
H1397 H 0.63318 0.05381 0.51119 0.0
H1398 H 0.55772 0.07467 0.53652 0.0
H1399 H 0.60124 0.04847 0.48329 0.0
H1400 H 0.58333 0.07806 0.60816 0.0
H1401 H 0.6404 0.08061 0.65518 0.0
H1402 H 0.56304 0.10118 0.63813 0.0
H1403 H 0.61901 0.10346 0.68444 0.0
H1404 H 0.55047 0.02344 0.59358 0.0
H1405 H 0.58229 0.00474 0.52555 0.0
H1406 H 0.60404 0.14704 0.54005 0.0
H1407 H 0.60472 0.1588 0.61801 0.0
H1408 H 0.60392 0.21706 0.98433 0.0
H1409 H 0.53386 0.2314 0.99061 0.0
H1410 H 0.53766 0.26065 0.95954 0.0
H1411 H 0.62061 0.27138 0.9834 0.0
H1412 H 0.64311 0.26749 0.96219 0.0
H1413 H 0.63416 0.24493 0.98114 0.0
H1414 H 0.62799 0.22085 0.94244 0.0
H1415 H 0.63691 0.24344 0.92332 0.0
H1416 H 0.61033 0.23084 0.91825 0.0
H1417 H 0.54981 0.29146 0.9323 0.0
H1418 H 0.56956 0.32241 0.91282 0.0
H1419 H 0.63192 0.28884 0.92508 0.0
C1420 C 0.58929 0.22616 0.97902 0.0
C1421 C 0.56856 0.22179 0.98992 0.0
C1422 C 0.54985 0.23405 0.98224 0.0
C1423 C 0.55185 0.25077 0.96461 0.0
C1424 C 0.57264 0.255 0.95474 0.0
C1425 C 0.59104 0.24302 0.96167 0.0
C1426 C 0.61189 0.25242 0.95049 0.0
C1427 C 0.6284 0.25948 0.9705 0.0
C1428 C 0.62239 0.2359 0.93255 0.0
C1429 C 0.60248 0.27216 0.93708 0.0
C1430 C 0.57975 0.27307 0.93927 0.0
C1431 C 0.56755 0.29071 0.93003 0.0
C1432 C 0.57892 0.30817 0.91886 0.0
C1433 C 0.60228 0.30797 0.91728 0.0
C1434 C 0.61406 0.2894 0.92593 0.0
H1435 H 0.17836 0.61114 0.97083 0.0
H1436 H 0.19593 0.59252 0.89647 0.0
H1437 H 0.2302 0.57522 0.91202 0.0
H1438 H 0.23288 0.62648 0.98921 0.0
H1439 H 0.22932 0.61655 0.0201 0.0
H1440 H 0.20582 0.62624 0.003 0.0
H1441 H 0.1861 0.58881 0.01039 0.0
H1442 H 0.20964 0.57892 0.02732 0.0
H1443 H 0.19955 0.56351 0.00137 0.0
H1444 H 0.26291 0.56024 0.93621 0.0
H1445 H 0.29177 0.55049 0.96635 0.0
H1446 H 0.25325 0.58189 0.02378 0.0
C1447 C 0.18947 0.60373 0.95764 0.0
C1448 C 0.18442 0.60333 0.93236 0.0
C1449 C 0.19927 0.59287 0.91595 0.0
C1450 C 0.21882 0.58306 0.9246 0.0
C1451 C 0.22327 0.58394 0.94966 0.0
C1452 C 0.20904 0.59415 0.96587 0.0
C1453 C 0.21782 0.59359 0.99178 0.0
C1454 C 0.2217 0.61711 0.00159 0.0
C1455 C 0.20235 0.58042 0.00871 0.0
C1456 C 0.23934 0.58154 0.98768 0.0
C1457 C 0.24216 0.57589 0.96335 0.0
C1458 C 0.2609 0.56467 0.95529 0.0
C1459 C 0.27726 0.55933 0.97255 0.0
C1460 C 0.27487 0.5654 0.99753 0.0
C1461 C 0.25552 0.57656 0.00501 0.0
H1462 H 0.87062 0.20892 0.93866 0.0
H1463 H 0.93244 0.18927 0.90504 0.0
H1464 H 0.94973 0.22393 0.91952 0.0
H1465 H 0.877 0.27043 0.93068 0.0
H1466 H 0.86476 0.27547 0.96027 0.0
H1467 H 0.85615 0.25198 0.94236 0.0
H1468 H 0.8654 0.22614 0.97883 0.0
H1469 H 0.8742 0.24941 0.99672 0.0
H1470 H 0.89281 0.2266 0.99175 0.0
H1471 H 0.96176 0.25741 0.94386 0.0
H1472 H 0.96726 0.28609 0.97573 0.0
H1473 H 0.89775 0.28267 0.99415 0.0
C1474 C 0.88764 0.21219 0.93378 0.0
C1475 C 0.9002 0.19647 0.92074 0.0
C1476 C 0.92243 0.20127 0.91472 0.0
C1477 C 0.93239 0.22089 0.92292 0.0
C1478 C 0.91978 0.23557 0.93684 0.0
C1479 C 0.89778 0.23151 0.94196 0.0
C1480 C 0.8885 0.24822 0.95978 0.0
C1481 C 0.87054 0.26237 0.94753 0.0
C1482 C 0.87973 0.23691 0.98314 0.0
C1483 C 0.90898 0.26165 0.96495 0.0
C1484 C 0.92677 0.25452 0.95115 0.0
C1485 C 0.94784 0.26342 0.95437 0.0
C1486 C 0.95083 0.27967 0.97247 0.0
C1487 C 0.93291 0.28647 0.98731 0.0
C1488 C 0.9117 0.27773 0.983 0.0
H1489 H 0.29942 0.86729 0.92612 0.0
H1490 H 0.32802 0.93004 0.90462 0.0
H1491 H 0.29461 0.94932 0.9193 0.0
H1492 H 0.24021 0.88196 0.91366 0.0
H1493 H 0.23099 0.86689 0.94024 0.0
H1494 H 0.2551 0.8578 0.92368 0.0
H1495 H 0.27799 0.85937 0.96379 0.0
H1496 H 0.25408 0.86859 0.9804 0.0
H1497 H 0.27904 0.88479 0.98098 0.0
H1498 H 0.26126 0.96213 0.94263 0.0
H1499 H 0.22986 0.96721 0.9711 0.0
H1500 H 0.22343 0.89614 0.97775 0.0
C1501 C 0.29842 0.88504 0.92396 0.0
C1502 C 0.31628 0.89716 0.91414 0.0
C1503 C 0.31439 0.92038 0.91168 0.0
C1504 C 0.29551 0.93148 0.92007 0.0
C1505 C 0.27858 0.9191 0.9306 0.0
C1506 C 0.27975 0.89634 0.93226 0.0
C1507 C 0.26045 0.88704 0.94653 0.0
C1508 C 0.24582 0.87257 0.93004 0.0
C1509 C 0.26837 0.87421 0.96926 0.0
C1510 C 0.24876 0.90818 0.95359 0.0
C1511 C 0.25927 0.92649 0.94397 0.0
C1512 C 0.25261 0.9479 0.94983 0.0
C1513 C 0.23489 0.95064 0.96613 0.0
C1514 C 0.22411 0.93207 0.97639 0.0
C1515 C 0.23097 0.91062 0.96966 0.0
H1516 H 0.59204 0.27338 0.52043 0.0
H1517 H 0.52482 0.25539 0.50225 0.0
H1518 H 0.52713 0.22344 0.53043 0.0
H1519 H 0.61253 0.22119 0.51782 0.0
H1520 H 0.63218 0.22386 0.54247 0.0
H1521 H 0.62364 0.2479 0.52567 0.0
H1522 H 0.61138 0.26669 0.56613 0.0
H1523 H 0.61992 0.2426 0.58311 0.0
H1524 H 0.59207 0.25282 0.58602 0.0
H1525 H 0.53843 0.19083 0.55484 0.0
H1526 H 0.55858 0.15869 0.5717 0.0
H1527 H 0.61895 0.19687 0.57321 0.0
C1528 C 0.5776 0.26313 0.52321 0.0
C1529 C 0.55811 0.26689 0.50972 0.0
C1530 C 0.53975 0.25278 0.51281 0.0
C1531 C 0.5409 0.23473 0.52884 0.0
C1532 C 0.56058 0.23105 0.54149 0.0
C1533 C 0.57864 0.24484 0.53885 0.0
C1534 C 0.59882 0.23545 0.55154 0.0
C1535 C 0.6179 0.23188 0.53328 0.0
C1536 C 0.60596 0.25028 0.57298 0.0
C1537 C 0.5896 0.21372 0.5607 0.0
C1538 C 0.56734 0.21179 0.55529 0.0
C1539 C 0.55568 0.19235 0.55975 0.0
C1540 C 0.56718 0.17423 0.56934 0.0
C1541 C 0.59004 0.17571 0.5742 0.0
C1542 C 0.60128 0.19577 0.57037 0.0
H1543 H 0.33045 0.57331 0.55084 0.0
H1544 H 0.30575 0.60981 0.61342 0.0
H1545 H 0.26745 0.60013 0.60162 0.0
H1546 H 0.29281 0.59228 0.51021 0.0
H1547 H 0.28997 0.56708 0.49288 0.0
H1548 H 0.31514 0.57258 0.50917 0.0
H1549 H 0.31131 0.53552 0.53258 0.0
H1550 H 0.28611 0.52978 0.51617 0.0
H1551 H 0.28626 0.52967 0.5492 0.0
H1552 H 0.23205 0.59194 0.57885 0.0
H1553 H 0.20288 0.58509 0.54804 0.0
H1554 H 0.25144 0.55511 0.49995 0.0
C1555 C 0.31699 0.57873 0.56244 0.0
C1556 C 0.32096 0.59224 0.58304 0.0
C1557 C 0.30301 0.59917 0.59776 0.0
C1558 C 0.28123 0.5938 0.59114 0.0
C1559 C 0.27783 0.58128 0.56999 0.0
C1560 C 0.2953 0.5736 0.55605 0.0
C1561 C 0.28744 0.56269 0.53271 0.0
C1562 C 0.29689 0.57437 0.50992 0.0
C1563 C 0.29311 0.53794 0.53268 0.0
C1564 C 0.26285 0.56632 0.53505 0.0
C1565 C 0.25753 0.57671 0.55683 0.0
C1566 C 0.23599 0.58342 0.56197 0.0
C1567 C 0.21957 0.57963 0.54428 0.0
C1568 C 0.22485 0.56941 0.52165 0.0
C1569 C 0.24672 0.56238 0.51731 0.0
H1570 H 0.89704 0.33394 0.53408 0.0
H1571 H 0.87904 0.30977 0.60622 0.0
H1572 H 0.89207 0.2724 0.59458 0.0
H1573 H 0.87735 0.28846 0.50166 0.0
H1574 H 0.89885 0.28901 0.47882 0.0
H1575 H 0.89086 0.31409 0.49409 0.0
H1576 H 0.93141 0.32035 0.50775 0.0
H1577 H 0.93953 0.29521 0.49253 0.0
H1578 H 0.9456 0.29901 0.52459 0.0
H1579 H 0.90425 0.23696 0.57336 0.0
H1580 H 0.91397 0.20685 0.54471 0.0
H1581 H 0.92158 0.25486 0.48622 0.0
C1582 C 0.89588 0.32085 0.54754 0.0
C1583 C 0.88689 0.32473 0.57102 0.0
C1584 C 0.88605 0.3072 0.58819 0.0
C1585 C 0.89336 0.28594 0.58171 0.0
C1586 C 0.90157 0.2826 0.5581 0.0
C1587 C 0.90291 0.29966 0.54135 0.0
C1588 C 0.91084 0.29169 0.51663 0.0
C1589 C 0.89343 0.29606 0.49663 0.0
C1590 C 0.93318 0.30219 0.51 0.0
C1591 C 0.91327 0.26732 0.52182 0.0
C1592 C 0.90816 0.26236 0.54588 0.0
C1593 C 0.90841 0.2407 0.55453 0.0
C1594 C 0.91379 0.2237 0.53806 0.0
C1595 C 0.9186 0.22844 0.51316 0.0
C1596 C 0.91852 0.25062 0.50519 0.0
H1597 H 0.17764 0.87784 0.53947 0.0
H1598 H 0.18786 0.91101 0.6091 0.0
H1599 H 0.22008 0.9306 0.59152 0.0
H1600 H 0.23544 0.86977 0.52512 0.0
H1601 H 0.23115 0.87415 0.49279 0.0
H1602 H 0.2093 0.86281 0.5113 0.0
H1603 H 0.18323 0.89417 0.49674 0.0
H1604 H 0.20509 0.9058 0.47849 0.0
H1605 H 0.19133 0.92255 0.50114 0.0
H1606 H 0.25083 0.94718 0.56539 0.0
H1607 H 0.27818 0.95794 0.53389 0.0
H1608 H 0.24789 0.9122 0.48264 0.0
C1609 C 0.18688 0.8888 0.55132 0.0
C1610 C 0.1803 0.8927 0.57579 0.0
C1611 C 0.19253 0.9078 0.59028 0.0
C1612 C 0.21086 0.91896 0.58047 0.0
C1613 C 0.21672 0.91479 0.55618 0.0
C1614 C 0.20515 0.89992 0.54192 0.0
C1615 C 0.21457 0.89834 0.51634 0.0
C1616 C 0.22313 0.87488 0.51109 0.0
C1617 C 0.19754 0.90566 0.49705 0.0
C1618 C 0.2333 0.91469 0.51833 0.0
C1619 C 0.23429 0.92412 0.54137 0.0
C1620 C 0.25026 0.93979 0.54734 0.0
C1621 C 0.26576 0.94575 0.52935 0.0
C1622 C 0.26518 0.93598 0.50572 0.0
C1623 C 0.2486 0.92034 0.5003 0.0
H1624 H 0.39599 0.7595 0.01676 0.0
H1625 H 0.46741 0.7585 0.01273 0.0
H1626 H 0.46851 0.72895 0.04412 0.0
H1627 H 0.39036 0.74557 0.08305 0.0
H1628 H 0.36682 0.72804 0.07752 0.0
H1629 H 0.37182 0.75159 0.05808 0.0
H1630 H 0.3715 0.72617 0.01982 0.0
H1631 H 0.36639 0.70266 0.0391 0.0
H1632 H 0.38983 0.70271 0.01874 0.0
H1633 H 0.46166 0.69744 0.07276 0.0
H1634 H 0.44752 0.66409 0.09349 0.0
H1635 H 0.38041 0.68435 0.07677 0.0
C1636 C 0.41182 0.75341 0.02307 0.0
C1637 C 0.43165 0.76132 0.01281 0.0
C1638 C 0.45212 0.75262 0.02069 0.0
C1639 C 0.45287 0.736 0.03856 0.0
C1640 C 0.43299 0.72825 0.04816 0.0
C1641 C 0.41283 0.73657 0.04057 0.0
C1642 C 0.39385 0.72355 0.05136 0.0
C1643 C 0.37989 0.73806 0.06853 0.0
C1644 C 0.37957 0.71315 0.03105 0.0
C1645 C 0.40647 0.70618 0.06558 0.0
C1646 C 0.429 0.70949 0.06398 0.0
C1647 C 0.44404 0.69478 0.07433 0.0
C1648 C 0.43585 0.67583 0.08595 0.0
C1649 C 0.41285 0.67157 0.08677 0.0
C1650 C 0.39804 0.68734 0.07701 0.0
H1651 H 0.73325 0.41659 0.02134 0.0
H1652 H 0.7683 0.44324 0.95826 0.0
H1653 H 0.8028 0.44221 0.98147 0.0
H1654 H 0.76614 0.44182 0.06938 0.0
H1655 H 0.76613 0.41744 0.08834 0.0
H1656 H 0.74322 0.42286 0.06813 0.0
H1657 H 0.74849 0.38451 0.04785 0.0
H1658 H 0.77132 0.37894 0.06806 0.0
H1659 H 0.77507 0.37722 0.03534 0.0
H1660 H 0.83384 0.43736 0.01036 0.0
H1661 H 0.86029 0.4253 0.0419 0.0
H1662 H 0.80658 0.39779 0.08477 0.0
C1663 C 0.74808 0.4222 0.01223 0.0
C1664 C 0.74758 0.43052 0.98793 0.0
C1665 C 0.76768 0.43766 0.97707 0.0
C1666 C 0.78757 0.43696 0.99006 0.0
C1667 C 0.78737 0.42865 0.01379 0.0
C1668 C 0.76826 0.42107 0.02469 0.0
C1669 C 0.77307 0.41104 0.04962 0.0
C1670 C 0.76145 0.42407 0.07007 0.0
C1671 C 0.76661 0.38647 0.05024 0.0
C1672 C 0.79791 0.41398 0.05081 0.0
C1673 C 0.80567 0.4246 0.03011 0.0
C1674 C 0.82798 0.42913 0.02671 0.0
C1675 C 0.84285 0.42232 0.04478 0.0
C1676 C 0.83542 0.41082 0.06583 0.0
C1677 C 0.81263 0.40668 0.06891 0.0
H1678 H 0.09991 0.73597 0.01465 0.0
H1679 H 0.02854 0.74067 0.0122 0.0
H1680 H 0.0297 0.77123 0.04236 0.0
H1681 H 0.1075 0.75154 0.08029 0.0
H1682 H 0.1319 0.76747 0.07354 0.0
H1683 H 0.12519 0.74361 0.05521 0.0
H1684 H 0.12627 0.76767 0.01591 0.0
H1685 H 0.13309 0.79147 0.03406 0.0
H1686 H 0.1093 0.7921 0.0142 0.0
H1687 H 0.03892 0.80338 0.0694 0.0
H1688 H 0.05537 0.83669 0.08804 0.0
H1689 H 0.12085 0.81191 0.07097 0.0
C1690 C 0.08453 0.74305 0.02106 0.0
C1691 C 0.06411 0.73589 0.01151 0.0
C1692 C 0.04431 0.74595 0.01953 0.0
C1693 C 0.04482 0.76315 0.03675 0.0
C1694 C 0.06529 0.77008 0.04561 0.0
C1695 C 0.08479 0.76041 0.03793 0.0
C1696 C 0.10469 0.77265 0.04776 0.0
C1697 C 0.11811 0.75794 0.06524 0.0
C1698 C 0.11917 0.7815 0.02673 0.0
C1699 C 0.09337 0.79117 0.06149 0.0
C1700 C 0.07065 0.78911 0.06054 0.0
C1701 C 0.05669 0.80506 0.07047 0.0
C1702 C 0.06618 0.82397 0.08091 0.0
C1703 C 0.0894 0.82692 0.08097 0.0
C1704 C 0.10309 0.80994 0.07178 0.0
H1705 H 0.68533 0.135 0.07014 0.0
H1706 H 0.68534 0.07708 0.11679 0.0
H1707 H 0.72065 0.06495 0.09818 0.0
H1708 H 0.70205 0.10827 0.01811 0.0
H1709 H 0.71891 0.13033 0.0062 0.0
H1710 H 0.6961 0.13655 0.02613 0.0
H1711 H 0.72227 0.15732 0.05581 0.0
H1712 H 0.7452 0.15145 0.03576 0.0
H1713 H 0.74643 0.14349 0.06757 0.0
H1714 H 0.75366 0.05726 0.07123 0.0
H1715 H 0.78126 0.05437 0.0379 0.0
H1716 H 0.75861 0.1169 0.00835 0.0
C1717 C 0.69324 0.12023 0.07712 0.0
C1718 C 0.68294 0.10717 0.09521 0.0
C1719 C 0.69321 0.08742 0.10314 0.0
C1720 C 0.71323 0.08045 0.09271 0.0
C1721 C 0.72264 0.0934 0.07433 0.0
C1722 C 0.71301 0.11294 0.0667 0.0
C1723 C 0.725 0.12262 0.04489 0.0
C1724 C 0.70959 0.12454 0.02252 0.0
C1725 C 0.73534 0.14505 0.05141 0.0
C1726 C 0.74251 0.10518 0.04097 0.0
C1727 C 0.74115 0.08863 0.05835 0.0
C1728 C 0.75506 0.07027 0.05773 0.0
C1729 C 0.77068 0.06877 0.03878 0.0
C1730 C 0.772 0.08539 0.02057 0.0
C1731 C 0.75786 0.10388 0.02194 0.0
H1732 H 0.42551 0.75662 0.50939 0.0
H1733 H 0.41072 0.70498 0.45674 0.0
H1734 H 0.40149 0.73338 0.42577 0.0
H1735 H 0.38234 0.79223 0.49289 0.0
H1736 H 0.39803 0.8172 0.49734 0.0
H1737 H 0.4048 0.7928 0.51458 0.0
H1738 H 0.44511 0.79465 0.49864 0.0
H1739 H 0.43845 0.81911 0.48134 0.0
H1740 H 0.45019 0.79544 0.4661 0.0
H1741 H 0.39198 0.76783 0.40132 0.0
H1742 H 0.38307 0.80522 0.3857 0.0
H1743 H 0.40431 0.83342 0.45492 0.0
C1744 C 0.4208 0.75124 0.49119 0.0
C1745 C 0.41895 0.7286 0.48543 0.0
C1746 C 0.41212 0.72227 0.46159 0.0
C1747 C 0.40698 0.73826 0.44385 0.0
C1748 C 0.40881 0.76047 0.45026 0.0
C1749 C 0.41563 0.76692 0.47336 0.0
C1750 C 0.41529 0.79174 0.47612 0.0
C1751 C 0.39915 0.7989 0.49643 0.0
C1752 C 0.43865 0.80076 0.48082 0.0
C1753 C 0.40698 0.7983 0.45106 0.0
C1754 C 0.40342 0.78011 0.4363 0.0
C1755 C 0.39489 0.7822 0.41265 0.0
C1756 C 0.38979 0.80345 0.40398 0.0
C1757 C 0.39324 0.82225 0.41897 0.0
C1758 C 0.40204 0.81948 0.44273 0.0
H1759 H 0.74034 0.42622 0.50109 0.0
H1760 H 0.78937 0.43256 0.44343 0.0
H1761 H 0.76194 0.41937 0.41319 0.0
H1762 H 0.71461 0.37793 0.47963 0.0
H1763 H 0.68715 0.38656 0.48805 0.0
H1764 H 0.71061 0.39666 0.50493 0.0
H1765 H 0.69862 0.43705 0.49627 0.0
H1766 H 0.67498 0.42707 0.47958 0.0
H1767 H 0.69408 0.4458 0.4651 0.0
H1768 H 0.72891 0.4037 0.38956 0.0
H1769 H 0.69265 0.3898 0.37463 0.0
H1770 H 0.66597 0.39615 0.44799 0.0
C1771 C 0.74531 0.42538 0.48206 0.0
C1772 C 0.76706 0.43053 0.47471 0.0
C1773 C 0.77288 0.4285 0.44962 0.0
C1774 C 0.75739 0.4211 0.43228 0.0
C1775 C 0.73615 0.41599 0.4403 0.0
C1776 C 0.7301 0.4183 0.46459 0.0
C1777 C 0.70632 0.41184 0.46874 0.0
C1778 C 0.70459 0.39207 0.48637 0.0
C1779 C 0.6927 0.43162 0.47796 0.0
C1780 C 0.69988 0.40543 0.443 0.0
C1781 C 0.71726 0.40773 0.42678 0.0
C1782 C 0.71514 0.40206 0.40207 0.0
C1783 C 0.69462 0.39414 0.39377 0.0
C1784 C 0.67662 0.39229 0.41015 0.0
C1785 C 0.67943 0.39784 0.43502 0.0
H1786 H 0.07961 0.66899 0.44151 0.0
H1787 H 0.11904 0.6994 0.38431 0.0
H1788 H 0.10842 0.73631 0.39972 0.0
H1789 H 0.03469 0.71138 0.44207 0.0
H1790 H 0.03172 0.7092 0.47485 0.0
H1791 H 0.04006 0.68545 0.45719 0.0
H1792 H 0.07485 0.68132 0.48449 0.0
H1793 H 0.0668 0.70513 0.50202 0.0
H1794 H 0.09356 0.70432 0.48757 0.0
H1795 H 0.09752 0.76942 0.42475 0.0
H1796 H 0.08677 0.79608 0.45665 0.0
H1797 H 0.05249 0.74393 0.4959 0.0
C1798 C 0.08538 0.68335 0.43158 0.0
C1799 C 0.10005 0.68127 0.41155 0.0
C1800 C 0.10786 0.70058 0.39974 0.0
C1801 C 0.10179 0.7216 0.40826 0.0
C1802 C 0.08771 0.723 0.42841 0.0
C1803 C 0.0794 0.70436 0.43973 0.0
C1804 C 0.06601 0.71022 0.46223 0.0
C1805 C 0.04167 0.70368 0.45887 0.0
C1806 C 0.07591 0.69962 0.48543 0.0
C1807 C 0.06877 0.73503 0.46238 0.0
C1808 C 0.08113 0.74213 0.4426 0.0
C1809 C 0.08737 0.76413 0.43998 0.0
C1810 C 0.08105 0.7792 0.4582 0.0
C1811 C 0.0686 0.77223 0.47882 0.0
C1812 C 0.06206 0.74988 0.4805 0.0
H1813 H 0.7288 0.09563 0.47744 0.0
H1814 H 0.73019 0.02404 0.47517 0.0
H1815 H 0.76137 0.02545 0.44595 0.0
H1816 H 0.74517 0.10515 0.41208 0.0
H1817 H 0.76169 0.12879 0.42028 0.0
H1818 H 0.73735 0.12211 0.43782 0.0
H1819 H 0.76084 0.12108 0.47754 0.0
H1820 H 0.78515 0.12773 0.46018 0.0
H1821 H 0.78466 0.10325 0.47897 0.0
H1822 H 0.79529 0.03464 0.42163 0.0
H1823 H 0.8296 0.05087 0.40489 0.0
H1824 H 0.80556 0.11638 0.42282 0.0
C1825 C 0.73515 0.08026 0.47015 0.0
C1826 C 0.72699 0.05973 0.47842 0.0
C1827 C 0.73626 0.03995 0.46911 0.0
C1828 C 0.75383 0.04059 0.45236 0.0
C1829 C 0.7618 0.06114 0.44499 0.0
C1830 C 0.75267 0.08062 0.4535 0.0
C1831 C 0.76565 0.10049 0.44484 0.0
C1832 C 0.75162 0.11499 0.42773 0.0
C1833 C 0.77461 0.1139 0.46668 0.0
C1834 C 0.78404 0.08913 0.43094 0.0
C1835 C 0.78135 0.06645 0.43088 0.0
C1836 C 0.79734 0.05239 0.42113 0.0
C1837 C 0.81678 0.06172 0.41175 0.0
C1838 C 0.82007 0.08487 0.41231 0.0
C1839 C 0.8032 0.09869 0.42146 0.0
H1840 H 0.48699 0.96755 0.95313 0.0
H1841 H 0.48636 0.91642 0.00881 0.0
H1842 H 0.49457 0.94436 0.04055 0.0
H1843 H 0.53189 0.99872 0.97844 0.0
H1844 H 0.52021 0.02511 0.97031 0.0
H1845 H 0.51394 0.00106 0.9522 0.0
H1846 H 0.4721 0.008 0.95884 0.0
H1847 H 0.47827 0.03198 0.97715 0.0
H1848 H 0.46143 0.01014 0.98959 0.0
H1849 H 0.50255 0.97801 0.06626 0.0
H1850 H 0.51279 0.01445 0.08343 0.0
H1851 H 0.50818 0.04335 0.01087 0.0
C1852 C 0.48858 0.96227 0.97201 0.0
C1853 C 0.48619 0.93985 0.97853 0.0
C1854 C 0.4885 0.9335 0.0034 0.0
C1855 C 0.49294 0.94925 0.02157 0.0
C1856 C 0.49505 0.97127 0.01455 0.0
C1857 C 0.49314 0.97775 0.99034 0.0
C1858 C 0.49677 0.00234 0.98755 0.0
C1859 C 0.5169 0.00708 0.97116 0.0
C1860 C 0.4759 0.01378 0.9777 0.0
C1861 C 0.50117 0.00864 0.01393 0.0
C1862 C 0.49988 0.99055 0.02928 0.0
C1863 C 0.50357 0.99232 0.05443 0.0
C1864 C 0.50921 0.01307 0.06405 0.0
C1865 C 0.51128 0.03165 0.04847 0.0
C1866 C 0.50684 0.02938 0.02318 0.0
H1867 H 0.46984 0.52002 0.02882 0.0
H1868 H 0.45388 0.4573 0.06318 0.0
H1869 H 0.48264 0.43907 0.03824 0.0
H1870 H 0.4808 0.49956 0.96915 0.0
H1871 H 0.50354 0.51807 0.96349 0.0
H1872 H 0.48164 0.52617 0.98394 0.0
H1873 H 0.51016 0.53319 0.01851 0.0
H1874 H 0.53217 0.52526 0.99812 0.0
H1875 H 0.52896 0.51145 0.02716 0.0
H1876 H 0.51265 0.42763 0.00892 0.0
H1877 H 0.54302 0.42411 0.97892 0.0
H1878 H 0.54031 0.49464 0.96524 0.0
C1879 C 0.47258 0.50252 0.03152 0.0
C1880 C 0.45955 0.49013 0.04807 0.0
C1881 C 0.46343 0.46713 0.05044 0.0
C1882 C 0.4798 0.45665 0.03644 0.0
C1883 C 0.49223 0.4694 0.02027 0.0
C1884 C 0.48894 0.49186 0.0179 0.0
C1885 C 0.50461 0.50186 0.99935 0.0
C1886 C 0.49188 0.51201 0.9777 0.0
C1887 C 0.51988 0.51895 0.01152 0.0
C1888 C 0.51726 0.48149 0.99159 0.0
C1889 C 0.50977 0.4629 0.00374 0.0
C1890 C 0.51867 0.44207 0.99933 0.0
C1891 C 0.53579 0.44021 0.98216 0.0
C1892 C 0.54388 0.4591 0.96974 0.0
C1893 C 0.53448 0.47997 0.97458 0.0
H1894 H 0.0261 0.5261 0.9623 0.0
H1895 H 0.00354 0.5825 0.00471 0.0
H1896 H 0.99401 0.55776 0.03891 0.0
H1897 H 0.98522 0.48787 0.98267 0.0
H1898 H 0.00392 0.46472 0.98385 0.0
H1899 H 0.00889 0.48694 0.96265 0.0
H1900 H 0.04806 0.49221 0.98092 0.0
H1901 H 0.04311 0.47014 0.00237 0.0
H1902 H 0.05114 0.49705 0.01334 0.0
H1903 H 0.98586 0.52699 0.06804 0.0
H1904 H 0.97876 0.49177 0.08967 0.0
H1905 H 0.00857 0.45567 0.02957 0.0
C1906 C 0.01926 0.53329 0.97881 0.0
C1907 C 0.01534 0.55626 0.98063 0.0
C1908 C 0.00619 0.56492 0.00255 0.0
C1909 C 0.00098 0.55103 0.02224 0.0
C1910 C 0.00521 0.52854 0.01989 0.0
C1911 C 0.01413 0.51969 0.99875 0.0
C1912 C 0.01677 0.49488 0.00086 0.0
C1913 C 0.00287 0.4829 0.98135 0.0
C1914 C 0.04123 0.48818 0.99928 0.0
C1915 C 0.00767 0.49116 0.02638 0.0
C1916 C 0.00116 0.51082 0.03705 0.0
C1917 C 0.99113 0.51151 0.06002 0.0
C1918 C 0.98721 0.49151 0.07217 0.0
C1919 C 0.99347 0.47119 0.06139 0.0
C1920 C 0.00418 0.47107 0.03843 0.0
H1921 H 0.02114 0.98631 0.04819 0.0
H1922 H 0.07275 0.01751 0.00505 0.0
H1923 H 0.04489 0.02987 0.97516 0.0
H1924 H 0.9905 0.96569 0.9969 0.0
H1925 H 0.96392 0.97017 0.01091 0.0
H1926 H 0.98772 0.96475 0.02978 0.0
H1927 H 0.98078 0.00104 0.05379 0.0
H1928 H 0.95686 0.00649 0.03512 0.0
H1929 H 0.97858 0.02675 0.0373 0.0
H1930 H 0.01156 0.03843 0.94961 0.0
H1931 H 0.97491 0.04373 0.93097 0.0
H1932 H 0.9454 0.00453 0.98907 0.0
C1933 C 0.02664 0.99575 0.03248 0.0
C1934 C 0.04919 0.00108 0.02919 0.0
C1935 C 0.05556 0.01363 0.0084 0.0
C1936 C 0.03988 0.02053 0.99113 0.0
C1937 C 0.0179 0.01465 0.99476 0.0
C1938 C 0.01125 0.00259 0.01493 0.0
C1939 C 0.98665 0.99814 0.01429 0.0
C1940 C 0.98193 0.97321 0.01288 0.0
C1941 C 0.97504 0.00874 0.03644 0.0
C1942 C 0.98049 0.00966 0.99063 0.0
C1943 C 0.99876 0.01906 0.97966 0.0
C1944 C 0.99715 0.03099 0.95792 0.0
C1945 C 0.97623 0.03369 0.94733 0.0
C1946 C 0.95716 0.02441 0.95837 0.0
C1947 C 0.95953 0.01198 0.98018 0.0
H1948 H 0.50895 0.5327 0.54321 0.0
H1949 H 0.47459 0.57234 0.48902 0.0
H1950 H 0.47791 0.54204 0.45903 0.0
H1951 H 0.54767 0.50772 0.50068 0.0
H1952 H 0.54751 0.4814 0.51611 0.0
H1953 H 0.54251 0.50636 0.53319 0.0
H1954 H 0.50547 0.49018 0.54882 0.0
H1955 H 0.51026 0.46525 0.5316 0.0
H1956 H 0.48519 0.48077 0.527 0.0
H1957 H 0.48336 0.50666 0.43552 0.0
H1958 H 0.49419 0.47011 0.41891 0.0
H1959 H 0.52594 0.45418 0.48792 0.0
C1960 C 0.50223 0.535 0.52499 0.0
C1961 C 0.49153 0.55486 0.51843 0.0
C1962 C 0.48306 0.55735 0.49437 0.0
C1963 C 0.48472 0.54017 0.47725 0.0
C1964 C 0.49507 0.52069 0.48441 0.0
C1965 C 0.50398 0.51812 0.50758 0.0
C1966 C 0.51465 0.49567 0.51046 0.0
C1967 C 0.53956 0.49793 0.51539 0.0
C1968 C 0.5032 0.48218 0.53067 0.0
C1969 C 0.51026 0.486 0.48535 0.0
C1970 C 0.49875 0.50058 0.47066 0.0
C1971 C 0.49249 0.49513 0.4468 0.0
C1972 C 0.49855 0.47435 0.43758 0.0
C1973 C 0.51092 0.45949 0.45213 0.0
C1974 C 0.51662 0.46536 0.47636 0.0
H1975 H 0.02004 0.52884 0.45156 0.0
H1976 H 0.06869 0.48604 0.48575 0.0
H1977 H 0.04083 0.47411 0.51596 0.0
H1978 H 0.9953 0.54729 0.50717 0.0
H1979 H 0.96768 0.5481 0.49487 0.0
H1980 H 0.99102 0.55229 0.47495 0.0
H1981 H 0.97782 0.52024 0.44704 0.0
H1982 H 0.9543 0.51612 0.46672 0.0
H1983 H 0.97271 0.49344 0.46028 0.0
H1984 H 0.00791 0.46771 0.54323 0.0
H1985 H 0.97169 0.46549 0.5638 0.0
H1986 H 0.94548 0.51429 0.51323 0.0
C1987 C 0.02487 0.51691 0.46535 0.0
C1988 C 0.04656 0.50832 0.46617 0.0
C1989 C 0.05208 0.49256 0.48441 0.0
C1990 C 0.03644 0.48586 0.50183 0.0
C1991 C 0.01539 0.49511 0.50083 0.0
C1992 C 0.00955 0.51018 0.48297 0.0
C1993 C 0.98595 0.51788 0.48609 0.0
C1994 C 0.98494 0.54287 0.49107 0.0
C1995 C 0.97187 0.51153 0.46371 0.0
C1996 C 0.9794 0.50476 0.50852 0.0
C1997 C 0.99661 0.49175 0.51679 0.0
C1998 C 0.99433 0.4779 0.537 0.0
C1999 C 0.97375 0.47694 0.54874 0.0
C2000 C 0.95574 0.48981 0.54024 0.0
C2001 C 0.95885 0.50415 0.52011 0.0
H2002 H 0.99215 0.96417 0.5421 0.0
H2003 H 0.06347 0.96452 0.53373 0.0
H2004 H 0.06081 0.99734 0.50726 0.0
H2005 H 0.97973 0.9789 0.48049 0.0
H2006 H 0.95647 0.99612 0.48828 0.0
H2007 H 0.96395 0.97334 0.50782 0.0
H2008 H 0.96706 -7e-05 0.5449 0.0
H2009 H 0.95945 0.02278 0.5255 0.0
H2010 H 0.98478 0.02379 0.54281 0.0
H2011 H 0.05043 0.02921 0.48032 0.0
H2012 H 0.03283 0.05842 0.45539 0.0
H2013 H 0.96841 0.03726 0.48125 0.0
C2014 C 0.0072 0.97121 0.53479 0.0
C2015 C 0.02802 0.96189 0.54025 0.0
C2016 C 0.04735 0.97163 0.5303 0.0
C2017 C 0.04603 0.99019 0.51507 0.0
C2018 C 0.02526 0.99884 0.50991 0.0
C2019 C 0.00619 0.98976 0.51953 0.0
C2020 C 0.9859 0.00201 0.5107 0.0
C2021 C 0.97062 0.98667 0.49594 0.0
C2022 C 0.97358 0.01277 0.53226 0.0
C2023 C 0.99656 0.01921 0.49441 0.0
C2024 C 0.01926 0.01715 0.49425 0.0
C2025 C 0.03265 0.03108 0.48038 0.0
C2026 C 0.02253 0.04765 0.46636 0.0
C2027 C -0.00073 0.05008 0.46628 0.0
C2028 C 0.98621 0.03563 0.48057 0.0
H2029 H 0.55076 0.98388 0.52176 0.0
H2030 H 0.52567 0.03825 0.56579 0.0
H2031 H 0.49054 0.03671 0.54338 0.0
H2032 H 0.52802 0.00349 0.46563 0.0
H2033 H 0.52185 0.97637 0.45385 0.0
H2034 H 0.54442 0.98009 0.47494 0.0
H2035 H 0.52746 0.95086 0.50408 0.0
H2036 H 0.50493 0.9469 0.48298 0.0
H2037 H 0.49937 0.95413 0.51443 0.0
H2038 H 0.45832 0.02997 0.51559 0.0
H2039 H 0.43118 0.01812 0.48476 0.0
H2040 H 0.47886 0.97123 0.45563 0.0
C2041 C 0.53793 0.99546 0.52683 0.0
C2042 C 0.5411 0.01098 0.54592 0.0
C2043 C 0.52363 0.0257 0.55186 0.0
C2044 C 0.50362 0.02517 0.539 0.0
C2045 C 0.50132 0.01004 0.51999 0.0
C2046 C 0.51799 0.99546 0.51388 0.0
C2047 C 0.51165 0.98152 0.49193 0.0
C2048 C 0.52743 0.98562 0.47031 0.0
C2049 C 0.5108 0.9569 0.49878 0.0
C2050 C 0.48881 0.99056 0.4867 0.0
C2051 C 0.48313 0.00689 0.50318 0.0
C2052 C 0.46265 0.01733 0.50242 0.0
C2053 C 0.44741 0.01063 0.48457 0.0
C2054 C 0.45278 0.99381 0.46746 0.0
C2055 C 0.47398 0.98395 0.46848 0.0
H2056 H 0.55169 0.26271 0.30084 0.0
H2057 H 0.49107 0.29886 0.2873 0.0
H2058 H 0.48306 0.27449 0.25187 0.0
H2059 H 0.56622 0.25544 0.23787 0.0
H2060 H 0.57776 0.22831 0.24243 0.0
H2061 H 0.57803 0.24807 0.26707 0.0
H2062 H 0.55755 0.22011 0.29496 0.0
H2063 H 0.5571 0.2003 0.27032 0.0
H2064 H 0.53167 0.20851 0.2849 0.0
H2065 H 0.48178 0.24573 0.21812 0.0
H2066 H 0.48846 0.21683 0.18705 0.0
H2067 H 0.55097 0.20105 0.22198 0.0
C2068 C 0.53661 0.26535 0.29054 0.0
C2069 C 0.52185 0.28248 0.29686 0.0
C2070 C 0.50256 0.28579 0.28267 0.0
C2071 C 0.49785 0.27198 0.26265 0.0
C2072 C 0.51272 0.25512 0.257 0.0
C2073 C 0.53182 0.25192 0.27042 0.0
C2074 C 0.5456 0.23331 0.25999 0.0
C2075 C 0.56824 0.2418 0.25132 0.0
C2076 C 0.54812 0.21444 0.27866 0.0
C2077 C 0.53127 0.22645 0.23861 0.0
C2078 C 0.5123 0.23909 0.23728 0.0
C2079 C 0.49664 0.23581 0.21893 0.0
C2080 C 0.50064 0.21942 0.20129 0.0
C2081 C 0.52026 0.20661 0.20196 0.0
C2082 C 0.53561 0.21018 0.22109 0.0
H2083 H 0.20823 0.53028 0.28099 0.0
H2084 H 0.25336 0.53858 0.34215 0.0
H2085 H 0.28495 0.53664 0.31376 0.0
H2086 H 0.24306 0.49284 0.24492 0.0
H2087 H 0.23515 0.50522 0.21619 0.0
H2088 H 0.21612 0.50519 0.24158 0.0
H2089 H 0.21265 0.54777 0.2385 0.0
H2090 H 0.23169 0.54794 0.21318 0.0
H2091 H 0.23722 0.56454 0.23991 0.0
H2092 H 0.31148 0.5368 0.27854 0.0
H2093 H 0.33104 0.53899 0.23899 0.0
H2094 H 0.26877 0.53026 0.20067 0.0
C2095 C 0.22476 0.53152 0.28845 0.0
C2096 C 0.22828 0.53434 0.31387 0.0
C2097 C 0.25021 0.53589 0.32285 0.0
C2098 C 0.26828 0.53495 0.30684 0.0
C2099 C 0.26421 0.53239 0.28189 0.0
C2100 C 0.243 0.53062 0.27273 0.0
C2101 C 0.24311 0.52907 0.24502 0.0
C2102 C 0.23381 0.50675 0.23643 0.0
C2103 C 0.23042 0.54849 0.23349 0.0
C2104 C 0.26766 0.53073 0.24004 0.0
C2105 C 0.27954 0.53247 0.26155 0.0
C2106 C 0.30239 0.53513 0.26157 0.0
C2107 C 0.31337 0.53622 0.23898 0.0
C2108 C 0.30151 0.53468 0.21663 0.0
C2109 C 0.27835 0.53164 0.21735 0.0
H2110 H 0.96647 0.30138 0.23449 0.0
H2111 H 0.96517 0.25758 0.17153 0.0
H2112 H 0.96445 0.22534 0.19912 0.0
H2113 H 0.00109 0.26602 0.27347 0.0
H2114 H 0.98619 0.27309 0.30098 0.0
H2115 H 0.98815 0.29273 0.27627 0.0
H2116 H 0.94546 0.29566 0.27495 0.0
H2117 H 0.94337 0.27597 0.29955 0.0
H2118 H 0.92923 0.27096 0.27102 0.0
H2119 H 0.96066 0.19809 0.23323 0.0
H2120 H 0.95545 0.17748 0.27165 0.0
H2121 H 0.96099 0.23874 0.31278 0.0
C2122 C 0.96626 0.28499 0.22655 0.0
C2123 C 0.9661 0.28198 0.20087 0.0
C2124 C 0.96575 0.26027 0.19115 0.0
C2125 C 0.96521 0.24185 0.20666 0.0
C2126 C 0.96518 0.24539 0.23186 0.0
C2127 C 0.96588 0.26638 0.24179 0.0
C2128 C 0.96504 0.26558 0.26952 0.0
C2129 C 0.98639 0.27491 0.28072 0.0
C2130 C 0.94456 0.27776 0.27933 0.0
C2131 C 0.96328 0.24089 0.27358 0.0
C2132 C 0.96343 0.22956 0.25162 0.0
C2133 C 0.96092 0.20673 0.25059 0.0
C2134 C 0.95812 0.19514 0.2726 0.0
C2135 C 0.95799 0.20635 0.29544 0.0
C2136 C 0.96083 0.22957 0.29575 0.0
H2137 H 0.26729 0.97622 0.29656 0.0
H2138 H 0.32747 0.95002 0.26439 0.0
H2139 H 0.30944 0.94912 0.22394 0.0
H2140 H 0.23068 0.94261 0.26307 0.0
H2141 H 0.20967 0.96346 0.25944 0.0
H2142 H 0.22789 0.96431 0.28549 0.0
H2143 H 0.23957 0.00418 0.27411 0.0
H2144 H 0.22129 0.0035 0.24806 0.0
H2145 H 0.25013 0.00979 0.24385 0.0
H2146 H 0.28417 0.9479 0.18787 0.0
H2147 H 0.25356 0.94716 0.15827 0.0
H2148 H 0.20955 0.97435 0.21347 0.0
C2149 C 0.27676 0.97044 0.281 0.0
C2150 C 0.2989 0.96334 0.28372 0.0
C2151 C 0.31067 0.95599 0.26278 0.0
C2152 C 0.30052 0.95527 0.23971 0.0
C2153 C 0.2786 0.96201 0.23781 0.0
C2154 C 0.26687 0.96957 0.25783 0.0
C2155 C 0.24317 0.97483 0.25098 0.0
C2156 C 0.2269 0.96044 0.26561 0.0
C2157 C 0.23826 -0.00045 0.25445 0.0
C2158 C 0.24331 0.96858 0.22409 0.0
C2159 C 0.26396 0.96138 0.21686 0.0
C2160 C 0.26801 0.95385 0.19319 0.0
C2161 C 0.25048 0.95364 0.17644 0.0
C2162 C 0.2291 0.96096 0.18334 0.0
C2163 C 0.22562 0.96861 0.20755 0.0
H2164 H 0.4538 0.79806 0.76995 0.0
H2165 H 0.48987 0.76078 0.82454 0.0
H2166 H 0.49689 0.73121 0.79407 0.0
H2167 H 0.42682 0.75475 0.74305 0.0
H2168 H 0.42868 0.76445 0.71189 0.0
H2169 H 0.42912 0.7839 0.73679 0.0
H2170 H 0.4664 0.79967 0.7214 0.0
H2171 H 0.46593 0.78046 0.69616 0.0
H2172 H 0.4894 0.78127 0.71647 0.0
H2173 H 0.49426 0.70339 0.7598 0.0
H2174 H 0.48553 0.68097 0.72346 0.0
H2175 H 0.45465 0.73824 0.68965 0.0
C2176 C 0.46379 0.78397 0.77512 0.0
C2177 C 0.47158 0.78162 0.79931 0.0
C2178 C 0.48416 0.76286 0.80587 0.0
C2179 C 0.48813 0.74603 0.78874 0.0
C2180 C 0.47973 0.74851 0.7651 0.0
C2181 C 0.46826 0.76726 0.75812 0.0
C2182 C 0.46001 0.7654 0.73203 0.0
C2183 C 0.43466 0.76722 0.7309 0.0
C2184 C 0.47111 0.78273 0.71554 0.0
C2185 C 0.46776 0.74231 0.72578 0.0
C2186 C 0.47912 0.73283 0.74503 0.0
C2187 C 0.48596 0.71086 0.74432 0.0
C2188 C 0.48098 0.69825 0.72343 0.0
C2189 C 0.46941 0.70766 0.70334 0.0
C2190 C 0.46322 0.7302 0.70459 0.0
H2191 H 0.75538 0.44057 0.68523 0.0
H2192 H 0.78341 0.50552 0.69793 0.0
H2193 H 0.75761 0.51101 0.73262 0.0
H2194 H 0.69825 0.4549 0.69984 0.0
H2195 H 0.69305 0.42866 0.71432 0.0
H2196 H 0.71282 0.43058 0.68973 0.0
H2197 H 0.74289 0.41333 0.71764 0.0
H2198 H 0.72323 0.41129 0.74224 0.0
H2199 H 0.74883 0.42588 0.74687 0.0
H2200 H 0.72966 0.50839 0.76725 0.0
H2201 H 0.70384 0.49701 0.80004 0.0
H2202 H 0.69375 0.43431 0.76323 0.0
C2203 C 0.75584 0.45616 0.69496 0.0
C2204 C 0.77129 0.4727 0.68873 0.0
C2205 C 0.77177 0.49257 0.70245 0.0
C2206 C 0.75706 0.49591 0.72203 0.0
C2207 C 0.74197 0.47923 0.72758 0.0
C2208 C 0.74133 0.45974 0.71442 0.0
C2209 C 0.72446 0.44387 0.72476 0.0
C2210 C 0.70605 0.43924 0.70604 0.0
C2211 C 0.73552 0.42233 0.73339 0.0
C2212 C 0.71596 0.45728 0.74612 0.0
C2213 C 0.72604 0.47773 0.74735 0.0
C2214 C 0.72149 0.49251 0.7663 0.0
C2215 C 0.70669 0.48598 0.78475 0.0
C2216 C 0.69676 0.46479 0.78417 0.0
C2217 C 0.70113 0.45058 0.76423 0.0
H2218 H 0.0624 0.76128 0.69132 0.0
H2219 H 0.99847 0.79178 0.70301 0.0
H2220 H 0.99175 0.76666 0.73808 0.0
H2221 H 0.04692 0.70493 0.70792 0.0
H2222 H 0.07281 0.69958 0.72312 0.0
H2223 H 0.0717 0.71871 0.69786 0.0
H2224 H 0.08908 0.74915 0.72514 0.0
H2225 H 0.0903 0.73012 0.75042 0.0
H2226 H 0.07617 0.75615 0.75389 0.0
H2227 H 0.99269 0.73883 0.77265 0.0
H2228 H 0.00243 0.71282 0.80593 0.0
H2229 H 0.06616 0.70141 0.77192 0.0
C2230 C 0.04684 0.7624 0.70104 0.0
C2231 C 0.03083 0.77826 0.6944 0.0
C2232 C 0.01091 0.77969 0.70788 0.0
C2233 C 0.00692 0.76542 0.72768 0.0
C2234 C 0.02309 0.74996 0.73379 0.0
C2235 C 0.04272 0.7485 0.72096 0.0
C2236 C 0.05807 0.73157 0.7322 0.0
C2237 C 0.06264 0.71257 0.7142 0.0
C2238 C 0.07967 0.7424 0.74093 0.0
C2239 C 0.04414 0.72391 0.75358 0.0
C2240 C 0.02389 0.73444 0.754 0.0
C2241 C 0.00845 0.73039 0.77241 0.0
C2242 C 0.01406 0.71551 0.79115 0.0
C2243 C 0.03501 0.70511 0.79144 0.0
C2244 C 0.05004 0.70917 0.77217 0.0
H2245 H 0.72513 0.07663 0.7041 0.0
H2246 H 0.70737 0.00722 0.7047 0.0
H2247 H 0.73177 0.0013 0.74051 0.0
H2248 H 0.7823 0.06964 0.72062 0.0
H2249 H 0.783 0.09402 0.73955 0.0
H2250 H 0.76434 0.09261 0.71389 0.0
H2251 H 0.73133 0.10096 0.74268 0.0
H2252 H 0.74988 0.10245 0.76842 0.0
H2253 H 0.72676 0.08372 0.76914 0.0
H2254 H 0.75864 0.00308 0.77609 0.0
H2255 H 0.7839 0.01288 0.81007 0.0
H2256 H 0.78365 0.08113 0.78587 0.0
C2257 C 0.7265 0.06014 0.71164 0.0
C2258 C 0.71444 0.04235 0.70157 0.0
C2259 C 0.71635 0.02111 0.71225 0.0
C2260 C 0.73026 0.01757 0.73247 0.0
C2261 C 0.74204 0.03547 0.74184 0.0
C2262 C 0.74016 0.05637 0.73185 0.0
C2263 C 0.75412 0.07295 0.74564 0.0
C2264 C 0.772 0.08288 0.72892 0.0
C2265 C 0.73965 0.09108 0.75715 0.0
C2266 C 0.76414 0.05815 0.76501 0.0
C2267 C 0.75713 0.03656 0.76243 0.0
C2268 C 0.76424 0.01994 0.77827 0.0
C2269 C 0.77868 0.02562 0.7974 0.0
C2270 C 0.78568 0.04775 0.80062 0.0
C2271 C 0.7784 0.06411 0.78402 0.0
loop_
_geom_bond_atom_site_label_1
_geom_bond_atom_site_label_2
_geom_bond_distance
_geom_bond_site_symmetry_2
_ccdc_geom_bond_type
Li0 N17 1.990 . S
Li0 O60 1.956 . S
Li0 O61 1.970 . S
Li0 O62 1.961 . S
Li1 N25 1.990 . S
Li1 O60 1.970 . S
Li1 O61 1.956 . S
Li1 O63 1.961 . S
Li2 N47 1.990 . S
Li2 O60 1.961 . S
Li2 O62 1.956 . S
Li2 O63 1.970 . S
Li3 N53 1.990 . S
Li3 O61 1.961 . S
Li3 O62 1.970 . S
Li3 O63 1.956 . S
C4 C6 1.348 . S
C4 C7 1.356 . S
C4 O60 1.325 . S
N5 C8 1.314 . S
N5 C9 1.279 . S
C6 C4 1.348 . S
C6 C8 1.353 . S
C6 H64 0.929 . S
C7 C4 1.356 . S
C7 C9 1.358 . S
C7 H65 0.930 . S
C8 N5 1.314 . S
C8 C6 1.353 . S
C8 H66 0.930 . S
C9 N5 1.279 . S
C9 C7 1.358 . S
C9 H67 0.930 . S
C10 C13 1.348 . S
C10 C14 1.356 . S
C10 O61 1.325 . S
C11 N12 1.279 . S
C11 C14 1.358 . S
C11 H68 0.930 . S
N12 C11 1.279 . S
N12 C15 1.314 . S
C13 C10 1.348 . S
C13 C15 1.353 . S
C13 H69 0.929 . S
C14 C10 1.356 . S
C14 C11 1.358 . S
C14 H70 0.930 . S
C15 N12 1.314 . S
C15 C13 1.353 . S
C15 H71 0.930 . S
C16 N17 1.314 . S
C16 C21 1.353 . S
C16 H22 0.930 . S
N17 Li0 1.990 . S
N17 C16 1.314 . S
N17 C19 1.279 . S
C18 C19 1.358 . S
C18 C20 1.356 . S
C18 H72 0.930 . S
C19 N17 1.279 . S
C19 C18 1.358 . S
C19 H23 0.930 . S
C20 C18 1.356 . S
C20 C21 1.348 . S
C21 C16 1.353 . S
C21 C20 1.348 . S
C21 H73 0.929 . S
H22 C16 0.930 . S
H23 C19 0.930 . S
C24 N25 1.314 . S
C24 C26 1.353 . S
C24 H30 0.930 . S
N25 Li1 1.990 . S
N25 C24 1.314 . S
N25 C28 1.279 . S
C26 C24 1.353 . S
C26 C29 1.348 . S
C26 H74 0.929 . S
C27 C28 1.358 . S
C27 C29 1.356 . S
C27 H75 0.930 . S
C28 N25 1.279 . S
C28 C27 1.358 . S
C28 H31 0.930 . S
C29 C26 1.348 . S
C29 C27 1.356 . S
H30 C24 0.930 . S
H31 C28 0.930 . S
C32 C34 1.348 . S
C32 C35 1.356 . S
C32 O62 1.325 . S
N33 C36 1.314 . S
N33 C37 1.279 . S
C34 C32 1.348 . S
C34 C36 1.353 . S
C34 H76 0.929 . S
C35 C32 1.356 . S
C35 C37 1.358 . S
C35 H77 0.930 . S
C36 N33 1.314 . S
C36 C34 1.353 . S
C36 H78 0.930 . S
C37 N33 1.279 . S
C37 C35 1.358 . S
C37 H79 0.930 . S
C38 C39 1.348 . S
C38 C40 1.356 . S
C38 O63 1.325 . S
C39 C38 1.348 . S
C39 C41 1.353 1_554 S
C39 H80 0.929 . S
C40 C38 1.356 . S
C40 C42 1.358 1_554 S
C40 H81 0.930 . S
C41 C39 1.353 1_556 S
C41 N43 1.314 . S
C41 H82 0.930 . S
C42 C40 1.358 1_556 S
C42 N43 1.279 . S
C42 H83 0.930 . S
N43 C41 1.314 . S
N43 C42 1.279 . S
C44 C46 1.353 . S
C44 N47 1.314 . S
C44 H50 0.930 . S
C45 N47 1.279 . S
C45 C48 1.358 . S
C45 H51 0.930 . S
C46 C44 1.353 . S
C46 C49 1.348 . S
C46 H84 0.929 . S
N47 Li2 1.990 . S
N47 C44 1.314 . S
N47 C45 1.279 . S
C48 C45 1.358 . S
C48 C49 1.356 . S
C48 H85 0.930 . S
C49 C46 1.348 . S
C49 C48 1.356 . S
H50 C44 0.930 . S
H51 C45 0.930 . S
C52 N53 1.314 . S
C52 C54 1.353 . S
C52 H58 0.930 . S
N53 Li3 1.990 . S
N53 C52 1.314 . S
N53 C56 1.279 . S
C54 C52 1.353 . S
C54 C57 1.348 . S
C54 H86 0.929 . S
C55 C56 1.358 . S
C55 C57 1.356 . S
C55 H87 0.930 1_554 S
C56 N53 1.279 . S
C56 C55 1.358 . S
C56 H59 0.930 . S
C57 C54 1.348 . S
C57 C55 1.356 . S
H58 C52 0.930 . S
H59 C56 0.930 . S
O60 Li0 1.956 . S
O60 Li1 1.970 . S
O60 Li2 1.961 . S
O60 C4 1.325 . S
O61 Li0 1.970 . S
O61 Li1 1.956 . S
O61 Li3 1.961 . S
O61 C10 1.325 . S
O62 Li0 1.961 . S
O62 Li2 1.956 . S
O62 Li3 1.970 . S
O62 C32 1.325 . S
O63 Li1 1.961 . S
O63 Li2 1.970 . S
O63 Li3 1.956 . S
O63 C38 1.325 . S
H64 C6 0.929 . S
H65 C7 0.930 . S
H66 C8 0.930 . S
H67 C9 0.930 . S
H68 C11 0.930 . S
H69 C13 0.929 . S
H70 C14 0.930 . S
H71 C15 0.930 . S
H72 C18 0.930 . S
H73 C21 0.929 . S
H74 C26 0.929 . S
H75 C27 0.930 . S
H76 C34 0.929 . S
H77 C35 0.930 . S
H78 C36 0.930 . S
H79 C37 0.930 . S
H80 C39 0.929 . S
H81 C40 0.930 . S
H82 C41 0.930 . S
H83 C42 0.930 . S
H84 C46 0.929 . S
H85 C48 0.930 . S
H86 C54 0.929 . S
H87 C55 0.930 1_556 S
Li88 N105 1.990 . S
Li88 O148 1.956 . S
Li88 O149 1.970 . S
Li88 O150 1.961 . S
Li89 N113 1.990 . S
Li89 O148 1.970 . S
Li89 O149 1.956 . S
Li89 O151 1.961 . S
Li90 N135 1.990 . S
Li90 O148 1.961 . S
Li90 O150 1.956 . S
Li90 O151 1.970 . S
Li91 N141 1.990 . S
Li91 O149 1.961 . S
Li91 O150 1.970 . S
Li91 O151 1.956 . S
C92 C94 1.348 . S
C92 C95 1.356 . S
C92 O148 1.325 . S
N93 C96 1.314 . S
N93 C97 1.279 . S
C94 C92 1.348 . S
C94 C96 1.353 . S
C94 H152 0.929 . S
C95 C92 1.356 . S
C95 C97 1.358 . S
C95 H153 0.930 . S
C96 N93 1.314 . S
C96 C94 1.353 . S
C96 H154 0.930 . S
C97 N93 1.279 . S
C97 C95 1.358 . S
C97 H155 0.930 . S
C98 C101 1.348 . S
C98 C102 1.356 . S
C98 O149 1.325 . S
C99 N100 1.279 . S
C99 C102 1.358 . S
C99 H156 0.930 . S
N100 C99 1.279 . S
N100 C103 1.314 . S
C101 C98 1.348 . S
C101 C103 1.353 . S
C101 H157 0.929 . S
C102 C98 1.356 . S
C102 C99 1.358 . S
C102 H158 0.930 . S
C103 N100 1.314 . S
C103 C101 1.353 . S
C103 H159 0.930 . S
C104 N105 1.314 . S
C104 C109 1.353 . S
C104 H110 0.930 . S
N105 Li88 1.990 . S
N105 C104 1.314 . S
N105 C107 1.279 . S
C106 C107 1.358 . S
C106 C108 1.356 . S
C106 H160 0.930 . S
C107 N105 1.279 . S
C107 C106 1.358 . S
C107 H111 0.930 . S
C108 C106 1.356 . S
C108 C109 1.348 . S
C109 C104 1.353 . S
C109 C108 1.348 . S
C109 H161 0.929 . S
H110 C104 0.930 . S
H111 C107 0.930 . S
C112 N113 1.314 . S
C112 C114 1.353 . S
C112 H118 0.930 . S
N113 Li89 1.990 . S
N113 C112 1.314 . S
N113 C116 1.279 . S
C114 C112 1.353 . S
C114 C117 1.348 . S
C114 H162 0.929 . S
C115 C116 1.358 . S
C115 C117 1.356 . S
C115 H163 0.930 . S
C116 N113 1.279 . S
C116 C115 1.358 . S
C116 H119 0.930 . S
C117 C114 1.348 . S
C117 C115 1.356 . S
H118 C112 0.930 . S
H119 C116 0.930 . S
C120 C122 1.348 . S
C120 C123 1.356 . S
C120 O150 1.325 . S
N121 C124 1.314 . S
N121 C125 1.279 . S
C122 C120 1.348 . S
C122 C124 1.353 . S
C122 H164 0.929 . S
C123 C120 1.356 . S
C123 C125 1.358 . S
C123 H165 0.930 . S
C124 N121 1.314 . S
C124 C122 1.353 . S
C124 H166 0.930 . S
C125 N121 1.279 . S
C125 C123 1.358 . S
C125 H167 0.930 . S
C126 C127 1.348 . S
C126 C128 1.356 . S
C126 O151 1.325 . S
C127 C126 1.348 . S
C127 C129 1.353 1_554 S
C127 H168 0.929 . S
C128 C126 1.356 . S
C128 C130 1.358 1_554 S
C128 H169 0.930 . S
C129 C127 1.353 1_556 S
C129 N131 1.314 . S
C129 H170 0.930 . S
C130 C128 1.358 1_556 S
C130 N131 1.279 . S
C130 H171 0.930 . S
N131 C129 1.314 . S
N131 C130 1.279 . S
C132 C134 1.353 . S
C132 N135 1.314 . S
C132 H138 0.930 . S
C133 N135 1.279 . S
C133 C136 1.358 . S
C133 H139 0.930 . S
C134 C132 1.353 . S
C134 C137 1.348 . S
C134 H172 0.929 . S
N135 Li90 1.990 . S
N135 C132 1.314 . S
N135 C133 1.279 . S
C136 C133 1.358 . S
C136 C137 1.356 . S
C136 H173 0.930 . S
C137 C134 1.348 . S
C137 C136 1.356 . S
H138 C132 0.930 . S
H139 C133 0.930 . S
C140 N141 1.314 . S
C140 C142 1.353 . S
C140 H146 0.930 . S
N141 Li91 1.990 . S
N141 C140 1.314 . S
N141 C144 1.279 . S
C142 C140 1.353 . S
C142 C145 1.348 . S
C142 H174 0.929 . S
C143 C144 1.358 . S
C143 C145 1.356 . S
C143 H175 0.930 1_554 S
C144 N141 1.279 . S
C144 C143 1.358 . S
C144 H147 0.930 . S
C145 C142 1.348 . S
C145 C143 1.356 . S
H146 C140 0.930 . S
H147 C144 0.930 . S
O148 Li88 1.956 . S
O148 Li89 1.970 . S
O148 Li90 1.961 . S
O148 C92 1.325 . S
O149 Li88 1.970 . S
O149 Li89 1.956 . S
O149 Li91 1.961 . S
O149 C98 1.325 . S
O150 Li88 1.961 . S
O150 Li90 1.956 . S
O150 Li91 1.970 . S
O150 C120 1.325 . S
O151 Li89 1.961 . S
O151 Li90 1.970 . S
O151 Li91 1.956 . S
O151 C126 1.325 . S
H152 C94 0.929 . S
H153 C95 0.930 . S
H154 C96 0.930 . S
H155 C97 0.930 . S
H156 C99 0.930 . S
H157 C101 0.929 . S
H158 C102 0.930 . S
H159 C103 0.930 . S
H160 C106 0.930 . S
H161 C109 0.929 . S
H162 C114 0.929 . S
H163 C115 0.930 . S
H164 C122 0.929 . S
H165 C123 0.930 . S
H166 C124 0.930 . S
H167 C125 0.930 . S
H168 C127 0.929 . S
H169 C128 0.930 . S
H170 C129 0.930 . S
H171 C130 0.930 . S
H172 C134 0.929 . S
H173 C136 0.930 . S
H174 C142 0.929 . S
H175 C143 0.930 1_556 S
Li176 N193 1.990 . S
Li176 O236 1.956 . S
Li176 O237 1.970 . S
Li176 O238 1.961 . S
Li177 N201 1.990 . S
Li177 O236 1.970 . S
Li177 O237 1.956 . S
Li177 O239 1.961 . S
Li178 N223 1.990 . S
Li178 O236 1.961 . S
Li178 O238 1.956 . S
Li178 O239 1.970 . S
Li179 N229 1.990 . S
Li179 O237 1.961 . S
Li179 O238 1.970 . S
Li179 O239 1.956 . S
C180 C182 1.348 . S
C180 C183 1.356 . S
C180 O236 1.325 . S
N181 C184 1.314 1_455 S
N181 C185 1.279 1_455 S
C182 C180 1.348 . S
C182 C184 1.353 . S
C182 H240 0.929 . S
C183 C180 1.356 . S
C183 C185 1.358 . S
C183 H241 0.930 . S
C184 N181 1.314 1_655 S
C184 C182 1.353 . S
C184 H242 0.930 . S
C185 N181 1.279 1_655 S
C185 C183 1.358 . S
C185 H243 0.930 1_655 S
C186 C189 1.348 . S
C186 C190 1.356 . S
C186 O237 1.325 . S
C187 N188 1.279 . S
C187 C190 1.358 . S
C187 H244 0.930 . S
N188 C187 1.279 . S
N188 C191 1.314 . S
C189 C186 1.348 . S
C189 C191 1.353 . S
C189 H245 0.929 . S
C190 C186 1.356 . S
C190 C187 1.358 . S
C190 H246 0.930 . S
C191 N188 1.314 . S
C191 C189 1.353 . S
C191 H247 0.930 . S
C192 N193 1.314 . S
C192 C197 1.353 . S
C192 H198 0.930 . S
N193 Li176 1.990 . S
N193 C192 1.314 . S
N193 C195 1.279 . S
C194 C195 1.358 . S
C194 C196 1.356 . S
C194 H248 0.930 1_655 S
C195 N193 1.279 . S
C195 C194 1.358 . S
C195 H199 0.930 . S
C196 C194 1.356 . S
C196 C197 1.348 . S
C197 C192 1.353 . S
C197 C196 1.348 . S
C197 H249 0.929 . S
H198 C192 0.930 . S
H199 C195 0.930 . S
C200 N201 1.314 . S
C200 C202 1.353 . S
C200 H206 0.930 . S
N201 Li177 1.990 . S
N201 C200 1.314 . S
N201 C204 1.279 . S
C202 C200 1.353 . S
C202 C205 1.348 . S
C202 H250 0.929 . S
C203 C204 1.358 . S
C203 C205 1.356 . S
C203 H251 0.930 . S
C204 N201 1.279 . S
C204 C203 1.358 . S
C204 H207 0.930 . S
C205 C202 1.348 . S
C205 C203 1.356 . S
H206 C200 0.930 . S
H207 C204 0.930 . S
C208 C210 1.348 . S
C208 C211 1.356 . S
C208 O238 1.325 . S
N209 C212 1.314 . S
N209 C213 1.279 . S
C210 C208 1.348 . S
C210 C212 1.353 1_554 S
C210 H252 0.929 . S
C211 C208 1.356 . S
C211 C213 1.358 1_554 S
C211 H253 0.930 . S
C212 N209 1.314 . S
C212 C210 1.353 1_556 S
C212 H254 0.930 . S
C213 N209 1.279 . S
C213 C211 1.358 1_556 S
C213 H255 0.930 . S
C214 C215 1.348 . S
C214 C216 1.356 . S
C214 O239 1.325 . S
C215 C214 1.348 . S
C215 C217 1.353 . S
C215 H256 0.929 . S
C216 C214 1.356 . S
C216 C218 1.358 . S
C216 H257 0.930 . S
C217 C215 1.353 . S
C217 N219 1.314 . S
C217 H258 0.930 . S
C218 C216 1.358 . S
C218 N219 1.279 . S
C218 H259 0.930 . S
N219 C217 1.314 . S
N219 C218 1.279 . S
C220 C222 1.353 . S
C220 N223 1.314 . S
C220 H226 0.930 . S
C221 N223 1.279 . S
C221 C224 1.358 . S
C221 H227 0.930 . S
C222 C220 1.353 . S
C222 C225 1.348 . S
C222 H260 0.929 . S
N223 Li178 1.990 . S
N223 C220 1.314 . S
N223 C221 1.279 . S
C224 C221 1.358 . S
C224 C225 1.356 . S
C224 H261 0.930 1_554 S
C225 C222 1.348 . S
C225 C224 1.356 . S
H226 C220 0.930 . S
H227 C221 0.930 . S
C228 N229 1.314 . S
C228 C230 1.353 . S
C228 H234 0.930 . S
N229 Li179 1.990 . S
N229 C228 1.314 . S
N229 C232 1.279 . S
C230 C228 1.353 . S
C230 C233 1.348 . S
C230 H262 0.929 . S
C231 C232 1.358 . S
C231 C233 1.356 . S
C231 H263 0.930 . S
C232 N229 1.279 . S
C232 C231 1.358 . S
C232 H235 0.930 . S
C233 C230 1.348 . S
C233 C231 1.356 . S
H234 C228 0.930 . S
H235 C232 0.930 . S
O236 Li176 1.956 . S
O236 Li177 1.970 . S
O236 Li178 1.961 . S
O236 C180 1.325 . S
O237 Li176 1.970 . S
O237 Li177 1.956 . S
O237 Li179 1.961 . S
O237 C186 1.325 . S
O238 Li176 1.961 . S
O238 Li178 1.956 . S
O238 Li179 1.970 . S
O238 C208 1.325 . S
O239 Li177 1.961 . S
O239 Li178 1.970 . S
O239 Li179 1.956 . S
O239 C214 1.325 . S
H240 C182 0.929 . S
H241 C183 0.930 . S
H242 C184 0.930 . S
H243 C185 0.930 1_455 S
H244 C187 0.930 . S
H245 C189 0.929 . S
H246 C190 0.930 . S
H247 C191 0.930 . S
H248 C194 0.930 1_455 S
H249 C197 0.929 . S
H250 C202 0.929 . S
H251 C203 0.930 . S
H252 C210 0.929 . S
H253 C211 0.930 . S
H254 C212 0.930 . S
H255 C213 0.930 . S
H256 C215 0.929 . S
H257 C216 0.930 . S
H258 C217 0.930 . S
H259 C218 0.930 . S
H260 C222 0.929 . S
H261 C224 0.930 1_556 S
H262 C230 0.929 . S
H263 C231 0.930 . S
Li264 N281 1.990 . S
Li264 O324 1.956 . S
Li264 O325 1.970 . S
Li264 O326 1.961 . S
Li265 N289 1.990 . S
Li265 O324 1.970 . S
Li265 O325 1.956 . S
Li265 O327 1.961 . S
Li266 N311 1.990 . S
Li266 O324 1.961 . S
Li266 O326 1.956 . S
Li266 O327 1.970 . S
Li267 N317 1.990 . S
Li267 O325 1.961 . S
Li267 O326 1.970 . S
Li267 O327 1.956 . S
C268 C270 1.348 . S
C268 C271 1.356 . S
C268 O324 1.325 . S
N269 C272 1.314 1_545 S
N269 C273 1.279 1_545 S
C270 C268 1.348 . S
C270 C272 1.353 . S
C270 H328 0.929 . S
C271 C268 1.356 . S
C271 C273 1.358 . S
C271 H329 0.930 . S
C272 N269 1.314 1_565 S
C272 C270 1.353 . S
C272 H330 0.930 . S
C273 N269 1.279 1_565 S
C273 C271 1.358 . S
C273 H331 0.930 1_565 S
C274 C277 1.348 . S
C274 C278 1.356 . S
C274 O325 1.325 . S
C275 N276 1.279 . S
C275 C278 1.358 . S
C275 H332 0.930 . S
N276 C275 1.279 . S
N276 C279 1.314 . S
C277 C274 1.348 . S
C277 C279 1.353 . S
C277 H333 0.929 . S
C278 C274 1.356 . S
C278 C275 1.358 . S
C278 H334 0.930 . S
C279 N276 1.314 . S
C279 C277 1.353 . S
C279 H335 0.930 . S
C280 N281 1.314 . S
C280 C285 1.353 . S
C280 H286 0.930 . S
N281 Li264 1.990 . S
N281 C280 1.314 . S
N281 C283 1.279 . S
C282 C283 1.358 . S
C282 C284 1.356 . S
C282 H336 0.930 1_565 S
C283 N281 1.279 . S
C283 C282 1.358 . S
C283 H287 0.930 . S
C284 C282 1.356 . S
C284 C285 1.348 . S
C285 C280 1.353 . S
C285 C284 1.348 . S
C285 H337 0.929 . S
H286 C280 0.930 . S
H287 C283 0.930 . S
C288 N289 1.314 . S
C288 C290 1.353 . S
C288 H294 0.930 . S
N289 Li265 1.990 . S
N289 C288 1.314 . S
N289 C292 1.279 . S
C290 C288 1.353 . S
C290 C293 1.348 . S
C290 H338 0.929 . S
C291 C292 1.358 . S
C291 C293 1.356 . S
C291 H339 0.930 . S
C292 N289 1.279 . S
C292 C291 1.358 . S
C292 H295 0.930 . S
C293 C290 1.348 . S
C293 C291 1.356 . S
H294 C288 0.930 . S
H295 C292 0.930 . S
C296 C298 1.348 . S
C296 C299 1.356 . S
C296 O326 1.325 . S
N297 C300 1.314 . S
N297 C301 1.279 . S
C298 C296 1.348 . S
C298 C300 1.353 1_554 S
C298 H340 0.929 . S
C299 C296 1.356 . S
C299 C301 1.358 1_554 S
C299 H341 0.930 . S
C300 N297 1.314 . S
C300 C298 1.353 1_556 S
C300 H342 0.930 . S
C301 N297 1.279 . S
C301 C299 1.358 1_556 S
C301 H343 0.930 . S
C302 C303 1.348 . S
C302 C304 1.356 . S
C302 O327 1.325 . S
C303 C302 1.348 . S
C303 C305 1.353 . S
C303 H344 0.929 . S
C304 C302 1.356 . S
C304 C306 1.358 . S
C304 H345 0.930 . S
C305 C303 1.353 . S
C305 N307 1.314 . S
C305 H346 0.930 . S
C306 C304 1.358 . S
C306 N307 1.279 . S
C306 H347 0.930 . S
N307 C305 1.314 . S
N307 C306 1.279 . S
C308 C310 1.353 . S
C308 N311 1.314 . S
C308 H314 0.930 . S
C309 N311 1.279 . S
C309 C312 1.358 . S
C309 H315 0.930 . S
C310 C308 1.353 . S
C310 C313 1.348 . S
C310 H348 0.929 . S
N311 Li266 1.990 . S
N311 C308 1.314 . S
N311 C309 1.279 . S
C312 C309 1.358 . S
C312 C313 1.356 . S
C312 H349 0.930 1_554 S
C313 C310 1.348 . S
C313 C312 1.356 . S
H314 C308 0.930 . S
H315 C309 0.930 . S
C316 N317 1.314 . S
C316 C318 1.353 . S
C316 H322 0.930 . S
N317 Li267 1.990 . S
N317 C316 1.314 . S
N317 C320 1.279 . S
C318 C316 1.353 . S
C318 C321 1.348 . S
C318 H350 0.929 . S
C319 C320 1.358 . S
C319 C321 1.356 . S
C319 H351 0.930 . S
C320 N317 1.279 . S
C320 C319 1.358 . S
C320 H323 0.930 . S
C321 C318 1.348 . S
C321 C319 1.356 . S
H322 C316 0.930 . S
H323 C320 0.930 . S
O324 Li264 1.956 . S
O324 Li265 1.970 . S
O324 Li266 1.961 . S
O324 C268 1.325 . S
O325 Li264 1.970 . S
O325 Li265 1.956 . S
O325 Li267 1.961 . S
O325 C274 1.325 . S
O326 Li264 1.961 . S
O326 Li266 1.956 . S
O326 Li267 1.970 . S
O326 C296 1.325 . S
O327 Li265 1.961 . S
O327 Li266 1.970 . S
O327 Li267 1.956 . S
O327 C302 1.325 . S
H328 C270 0.929 . S
H329 C271 0.930 . S
H330 C272 0.930 . S
H331 C273 0.930 1_545 S
H332 C275 0.930 . S
H333 C277 0.929 . S
H334 C278 0.930 . S
H335 C279 0.930 . S
H336 C282 0.930 1_545 S
H337 C285 0.929 . S
H338 C290 0.929 . S
H339 C291 0.930 . S
H340 C298 0.929 . S
H341 C299 0.930 . S
H342 C300 0.930 . S
H343 C301 0.930 . S
H344 C303 0.929 . S
H345 C304 0.930 . S
H346 C305 0.930 . S
H347 C306 0.930 . S
H348 C310 0.929 . S
H349 C312 0.930 1_556 S
H350 C318 0.929 . S
H351 C319 0.930 . S
Li352 N369 1.990 . S
Li352 O412 1.956 . S
Li352 O413 1.970 . S
Li352 O414 1.961 . S
Li353 N377 1.990 . S
Li353 O412 1.970 . S
Li353 O413 1.956 . S
Li353 O415 1.961 . S
Li354 N399 1.990 . S
Li354 O412 1.961 . S
Li354 O414 1.956 . S
Li354 O415 1.970 . S
Li355 N405 1.990 . S
Li355 O413 1.961 . S
Li355 O414 1.970 . S
Li355 O415 1.956 . S
C356 C358 1.348 . S
C356 C359 1.356 . S
C356 O412 1.325 . S
N357 C360 1.314 . S
N357 C361 1.279 . S
C358 C356 1.348 . S
C358 C360 1.353 . S
C358 H416 0.929 . S
C359 C356 1.356 . S
C359 C361 1.358 . S
C359 H417 0.930 . S
C360 N357 1.314 . S
C360 C358 1.353 . S
C360 H418 0.930 . S
C361 N357 1.279 . S
C361 C359 1.358 . S
C361 H419 0.930 . S
C362 C365 1.348 . S
C362 C366 1.356 . S
C362 O413 1.325 . S
C363 N364 1.279 . S
C363 C366 1.358 . S
C363 H420 0.930 . S
N364 C363 1.279 . S
N364 C367 1.314 . S
C365 C362 1.348 . S
C365 C367 1.353 . S
C365 H421 0.929 . S
C366 C362 1.356 . S
C366 C363 1.358 . S
C366 H422 0.930 . S
C367 N364 1.314 . S
C367 C365 1.353 . S
C367 H423 0.930 . S
C368 N369 1.314 . S
C368 C373 1.353 . S
C368 H374 0.930 . S
N369 Li352 1.990 . S
N369 C368 1.314 . S
N369 C371 1.279 . S
C370 C371 1.358 . S
C370 C372 1.356 . S
C370 H424 0.930 . S
C371 N369 1.279 . S
C371 C370 1.358 . S
C371 H375 0.930 . S
C372 C370 1.356 . S
C372 C373 1.348 . S
C373 C368 1.353 . S
C373 C372 1.348 . S
C373 H425 0.929 . S
H374 C368 0.930 . S
H375 C371 0.930 . S
C376 N377 1.314 . S
C376 C378 1.353 . S
C376 H382 0.930 . S
N377 Li353 1.990 . S
N377 C376 1.314 . S
N377 C380 1.279 . S
C378 C376 1.353 . S
C378 C381 1.348 . S
C378 H426 0.929 . S
C379 C380 1.358 . S
C379 C381 1.356 . S
C379 H427 0.930 . S
C380 N377 1.279 . S
C380 C379 1.358 . S
C380 H383 0.930 . S
C381 C378 1.348 . S
C381 C379 1.356 . S
H382 C376 0.930 . S
H383 C380 0.930 . S
C384 C386 1.348 . S
C384 C387 1.356 . S
C384 O414 1.325 . S
N385 C388 1.314 . S
N385 C389 1.279 . S
C386 C384 1.348 . S
C386 C388 1.353 . S
C386 H428 0.929 . S
C387 C384 1.356 . S
C387 C389 1.358 . S
C387 H429 0.930 . S
C388 N385 1.314 . S
C388 C386 1.353 . S
C388 H430 0.930 . S
C389 N385 1.279 . S
C389 C387 1.358 . S
C389 H431 0.930 . S
C390 C391 1.348 . S
C390 C392 1.356 . S
C390 O415 1.325 . S
C391 C390 1.348 . S
C391 C393 1.353 . S
C391 H432 0.929 . S
C392 C390 1.356 . S
C392 C394 1.358 . S
C392 H433 0.930 . S
C393 C391 1.353 . S
C393 N395 1.314 . S
C393 H434 0.930 . S
C394 C392 1.358 . S
C394 N395 1.279 . S
C394 H435 0.930 . S
N395 C393 1.314 . S
N395 C394 1.279 . S
C396 C398 1.353 . S
C396 N399 1.314 . S
C396 H402 0.930 . S
C397 N399 1.279 . S
C397 C400 1.358 . S
C397 H403 0.930 . S
C398 C396 1.353 . S
C398 C401 1.348 . S
C398 H436 0.929 . S
N399 Li354 1.990 . S
N399 C396 1.314 . S
N399 C397 1.279 . S
C400 C397 1.358 . S
C400 C401 1.356 . S
C400 H437 0.930 . S
C401 C398 1.348 . S
C401 C400 1.356 . S
H402 C396 0.930 . S
H403 C397 0.930 . S
C404 N405 1.314 . S
C404 C406 1.353 . S
C404 H410 0.930 . S
N405 Li355 1.990 . S
N405 C404 1.314 . S
N405 C408 1.279 . S
C406 C404 1.353 . S
C406 C409 1.348 . S
C406 H438 0.929 . S
C407 C408 1.358 . S
C407 C409 1.356 . S
C407 H439 0.930 . S
C408 N405 1.279 . S
C408 C407 1.358 . S
C408 H411 0.930 . S
C409 C406 1.348 . S
C409 C407 1.356 . S
H410 C404 0.930 . S
H411 C408 0.930 . S
O412 Li352 1.956 . S
O412 Li353 1.970 . S
O412 Li354 1.961 . S
O412 C356 1.325 . S
O413 Li352 1.970 . S
O413 Li353 1.956 . S
O413 Li355 1.961 . S
O413 C362 1.325 . S
O414 Li352 1.961 . S
O414 Li354 1.956 . S
O414 Li355 1.970 . S
O414 C384 1.325 . S
O415 Li353 1.961 . S
O415 Li354 1.970 . S
O415 Li355 1.956 . S
O415 C390 1.325 . S
H416 C358 0.929 . S
H417 C359 0.930 . S
H418 C360 0.930 . S
H419 C361 0.930 . S
H420 C363 0.930 . S
H421 C365 0.929 . S
H422 C366 0.930 . S
H423 C367 0.930 . S
H424 C370 0.930 . S
H425 C373 0.929 . S
H426 C378 0.929 . S
H427 C379 0.930 . S
H428 C386 0.929 . S
H429 C387 0.930 . S
H430 C388 0.930 . S
H431 C389 0.930 . S
H432 C391 0.929 . S
H433 C392 0.930 . S
H434 C393 0.930 . S
H435 C394 0.930 . S
H436 C398 0.929 . S
H437 C400 0.930 . S
H438 C406 0.929 . S
H439 C407 0.930 . S
Li440 N457 1.990 . S
Li440 O500 1.956 . S
Li440 O501 1.970 . S
Li440 O502 1.961 . S
Li441 N465 1.990 . S
Li441 O500 1.970 . S
Li441 O501 1.956 . S
Li441 O503 1.961 . S
Li442 N487 1.990 . S
Li442 O500 1.961 . S
Li442 O502 1.956 . S
Li442 O503 1.970 . S
Li443 N493 1.990 . S
Li443 O501 1.961 . S
Li443 O502 1.970 . S
Li443 O503 1.956 . S
C444 C446 1.348 . S
C444 C447 1.356 . S
C444 O500 1.325 . S
N445 C448 1.314 . S
N445 C449 1.279 . S
C446 C444 1.348 . S
C446 C448 1.353 . S
C446 H504 0.929 . S
C447 C444 1.356 . S
C447 C449 1.358 . S
C447 H505 0.930 . S
C448 N445 1.314 . S
C448 C446 1.353 . S
C448 H506 0.930 . S
C449 N445 1.279 . S
C449 C447 1.358 . S
C449 H507 0.930 . S
C450 C453 1.348 . S
C450 C454 1.356 . S
C450 O501 1.325 . S
C451 N452 1.279 . S
C451 C454 1.358 . S
C451 H508 0.930 . S
N452 C451 1.279 . S
N452 C455 1.314 . S
C453 C450 1.348 . S
C453 C455 1.353 . S
C453 H509 0.929 . S
C454 C450 1.356 . S
C454 C451 1.358 . S
C454 H510 0.930 . S
C455 N452 1.314 . S
C455 C453 1.353 . S
C455 H511 0.930 . S
C456 N457 1.314 . S
C456 C461 1.353 . S
C456 H462 0.930 . S
N457 Li440 1.990 . S
N457 C456 1.314 . S
N457 C459 1.279 . S
C458 C459 1.358 . S
C458 C460 1.356 . S
C458 H512 0.930 . S
C459 N457 1.279 . S
C459 C458 1.358 . S
C459 H463 0.930 . S
C460 C458 1.356 . S
C460 C461 1.348 . S
C461 C456 1.353 . S
C461 C460 1.348 . S
C461 H513 0.929 . S
H462 C456 0.930 . S
H463 C459 0.930 . S
C464 N465 1.314 . S
C464 C466 1.353 . S
C464 H470 0.930 . S
N465 Li441 1.990 . S
N465 C464 1.314 . S
N465 C468 1.279 . S
C466 C464 1.353 . S
C466 C469 1.348 . S
C466 H514 0.929 . S
C467 C468 1.358 . S
C467 C469 1.356 . S
C467 H515 0.930 . S
C468 N465 1.279 . S
C468 C467 1.358 . S
C468 H471 0.930 . S
C469 C466 1.348 . S
C469 C467 1.356 . S
H470 C464 0.930 . S
H471 C468 0.930 . S
C472 C474 1.348 . S
C472 C475 1.356 . S
C472 O502 1.325 . S
N473 C476 1.314 . S
N473 C477 1.279 . S
C474 C472 1.348 . S
C474 C476 1.353 . S
C474 H516 0.929 . S
C475 C472 1.356 . S
C475 C477 1.358 . S
C475 H517 0.930 . S
C476 N473 1.314 . S
C476 C474 1.353 . S
C476 H518 0.930 . S
C477 N473 1.279 . S
C477 C475 1.358 . S
C477 H519 0.930 . S
C478 C479 1.348 . S
C478 C480 1.356 . S
C478 O503 1.325 . S
C479 C478 1.348 . S
C479 C481 1.353 . S
C479 H520 0.929 . S
C480 C478 1.356 . S
C480 C482 1.358 . S
C480 H521 0.930 . S
C481 C479 1.353 . S
C481 N483 1.314 . S
C481 H522 0.930 . S
C482 C480 1.358 . S
C482 N483 1.279 . S
C482 H523 0.930 . S
N483 C481 1.314 . S
N483 C482 1.279 . S
C484 C486 1.353 . S
C484 N487 1.314 . S
C484 H490 0.930 . S
C485 N487 1.279 . S
C485 C488 1.358 . S
C485 H491 0.930 . S
C486 C484 1.353 . S
C486 C489 1.348 . S
C486 H524 0.929 . S
N487 Li442 1.990 . S
N487 C484 1.314 . S
N487 C485 1.279 . S
C488 C485 1.358 . S
C488 C489 1.356 . S
C488 H525 0.930 . S
C489 C486 1.348 . S
C489 C488 1.356 . S
H490 C484 0.930 . S
H491 C485 0.930 . S
C492 N493 1.314 . S
C492 C494 1.353 . S
C492 H498 0.930 . S
N493 Li443 1.990 . S
N493 C492 1.314 . S
N493 C496 1.279 . S
C494 C492 1.353 . S
C494 C497 1.348 . S
C494 H526 0.929 . S
C495 C496 1.358 . S
C495 C497 1.356 . S
C495 H527 0.930 . S
C496 N493 1.279 . S
C496 C495 1.358 . S
C496 H499 0.930 . S
C497 C494 1.348 . S
C497 C495 1.356 . S
H498 C492 0.930 . S
H499 C496 0.930 . S
O500 Li440 1.956 . S
O500 Li441 1.970 . S
O500 Li442 1.961 . S
O500 C444 1.325 . S
O501 Li440 1.970 . S
O501 Li441 1.956 . S
O501 Li443 1.961 . S
O501 C450 1.325 . S
O502 Li440 1.961 . S
O502 Li442 1.956 . S
O502 Li443 1.970 . S
O502 C472 1.325 . S
O503 Li441 1.961 . S
O503 Li442 1.970 . S
O503 Li443 1.956 . S
O503 C478 1.325 . S
H504 C446 0.929 . S
H505 C447 0.930 . S
H506 C448 0.930 . S
H507 C449 0.930 . S
H508 C451 0.930 . S
H509 C453 0.929 . S
H510 C454 0.930 . S
H511 C455 0.930 . S
H512 C458 0.930 . S
H513 C461 0.929 . S
H514 C466 0.929 . S
H515 C467 0.930 . S
H516 C474 0.929 . S
H517 C475 0.930 . S
H518 C476 0.930 . S
H519 C477 0.930 . S
H520 C479 0.929 . S
H521 C480 0.930 . S
H522 C481 0.930 . S
H523 C482 0.930 . S
H524 C486 0.929 . S
H525 C488 0.930 . S
H526 C494 0.929 . S
H527 C495 0.930 . S
Li528 N545 1.990 . S
Li528 O588 1.956 . S
Li528 O589 1.970 . S
Li528 O590 1.961 . S
Li529 N553 1.990 . S
Li529 O588 1.970 . S
Li529 O589 1.956 . S
Li529 O591 1.961 . S
Li530 N575 1.990 . S
Li530 O588 1.961 . S
Li530 O590 1.956 . S
Li530 O591 1.970 . S
Li531 N581 1.990 . S
Li531 O589 1.961 . S
Li531 O590 1.970 . S
Li531 O591 1.956 . S
C532 C534 1.348 . S
C532 C535 1.356 . S
C532 O588 1.325 . S
N533 C536 1.314 . S
N533 C537 1.279 . S
C534 C532 1.348 . S
C534 C536 1.353 . S
C534 H592 0.929 . S
C535 C532 1.356 . S
C535 C537 1.358 . S
C535 H593 0.930 . S
C536 N533 1.314 . S
C536 C534 1.353 . S
C536 H594 0.930 . S
C537 N533 1.279 . S
C537 C535 1.358 . S
C537 H595 0.930 . S
C538 C541 1.348 . S
C538 C542 1.356 . S
C538 O589 1.325 . S
C539 N540 1.279 . S
C539 C542 1.358 . S
C539 H596 0.930 . S
N540 C539 1.279 . S
N540 C543 1.314 . S
C541 C538 1.348 . S
C541 C543 1.353 . S
C541 H597 0.929 . S
C542 C538 1.356 . S
C542 C539 1.358 . S
C542 H598 0.930 . S
C543 N540 1.314 . S
C543 C541 1.353 . S
C543 H599 0.930 . S
C544 N545 1.314 . S
C544 C549 1.353 . S
C544 H550 0.930 . S
N545 Li528 1.990 . S
N545 C544 1.314 . S
N545 C547 1.279 . S
C546 C547 1.358 . S
C546 C548 1.356 . S
C546 H600 0.930 . S
C547 N545 1.279 . S
C547 C546 1.358 . S
C547 H551 0.930 . S
C548 C546 1.356 . S
C548 C549 1.348 . S
C549 C544 1.353 . S
C549 C548 1.348 . S
C549 H601 0.929 . S
H550 C544 0.930 . S
H551 C547 0.930 . S
C552 N553 1.314 . S
C552 C554 1.353 . S
C552 H558 0.930 . S
N553 Li529 1.990 . S
N553 C552 1.314 . S
N553 C556 1.279 . S
C554 C552 1.353 . S
C554 C557 1.348 . S
C554 H602 0.929 . S
C555 C556 1.358 . S
C555 C557 1.356 . S
C555 H603 0.930 . S
C556 N553 1.279 . S
C556 C555 1.358 . S
C556 H559 0.930 . S
C557 C554 1.348 . S
C557 C555 1.356 . S
H558 C552 0.930 . S
H559 C556 0.930 . S
C560 C562 1.348 . S
C560 C563 1.356 . S
C560 O590 1.325 . S
N561 C564 1.314 1_455 S
N561 C565 1.279 1_455 S
C562 C560 1.348 . S
C562 C564 1.353 . S
C562 H604 0.929 . S
C563 C560 1.356 . S
C563 C565 1.358 . S
C563 H605 0.930 . S
C564 N561 1.314 1_655 S
C564 C562 1.353 . S
C564 H606 0.930 . S
C565 N561 1.279 1_655 S
C565 C563 1.358 . S
C565 H607 0.930 1_655 S
C566 C567 1.348 . S
C566 C568 1.356 . S
C566 O591 1.325 . S
C567 C566 1.348 . S
C567 C569 1.353 . S
C567 H608 0.929 . S
C568 C566 1.356 . S
C568 C570 1.358 . S
C568 H609 0.930 . S
C569 C567 1.353 . S
C569 N571 1.314 . S
C569 H610 0.930 . S
C570 C568 1.358 . S
C570 N571 1.279 . S
C570 H611 0.930 . S
N571 C569 1.314 . S
N571 C570 1.279 . S
C572 C574 1.353 . S
C572 N575 1.314 . S
C572 H578 0.930 . S
C573 N575 1.279 . S
C573 C576 1.358 . S
C573 H579 0.930 . S
C574 C572 1.353 . S
C574 C577 1.348 . S
C574 H612 0.929 . S
N575 Li530 1.990 . S
N575 C572 1.314 . S
N575 C573 1.279 . S
C576 C573 1.358 . S
C576 C577 1.356 . S
C576 H613 0.930 1_655 S
C577 C574 1.348 . S
C577 C576 1.356 . S
H578 C572 0.930 . S
H579 C573 0.930 . S
C580 N581 1.314 . S
C580 C582 1.353 . S
C580 H586 0.930 . S
N581 Li531 1.990 . S
N581 C580 1.314 . S
N581 C584 1.279 . S
C582 C580 1.353 . S
C582 C585 1.348 . S
C582 H614 0.929 . S
C583 C584 1.358 . S
C583 C585 1.356 . S
C583 H615 0.930 . S
C584 N581 1.279 . S
C584 C583 1.358 . S
C584 H587 0.930 . S
C585 C582 1.348 . S
C585 C583 1.356 . S
H586 C580 0.930 . S
H587 C584 0.930 . S
O588 Li528 1.956 . S
O588 Li529 1.970 . S
O588 Li530 1.961 . S
O588 C532 1.325 . S
O589 Li528 1.970 . S
O589 Li529 1.956 . S
O589 Li531 1.961 . S
O589 C538 1.325 . S
O590 Li528 1.961 . S
O590 Li530 1.956 . S
O590 Li531 1.970 . S
O590 C560 1.325 . S
O591 Li529 1.961 . S
O591 Li530 1.970 . S
O591 Li531 1.956 . S
O591 C566 1.325 . S
H592 C534 0.929 . S
H593 C535 0.930 . S
H594 C536 0.930 . S
H595 C537 0.930 . S
H596 C539 0.930 . S
H597 C541 0.929 . S
H598 C542 0.930 . S
H599 C543 0.930 . S
H600 C546 0.930 . S
H601 C549 0.929 . S
H602 C554 0.929 . S
H603 C555 0.930 . S
H604 C562 0.929 . S
H605 C563 0.930 . S
H606 C564 0.930 . S
H607 C565 0.930 1_455 S
H608 C567 0.929 . S
H609 C568 0.930 . S
H610 C569 0.930 . S
H611 C570 0.930 . S
H612 C574 0.929 . S
H613 C576 0.930 1_455 S
H614 C582 0.929 . S
H615 C583 0.930 . S
Li616 N633 1.990 . S
Li616 O676 1.956 . S
Li616 O677 1.970 . S
Li616 O678 1.961 . S
Li617 N641 1.990 . S
Li617 O676 1.970 . S
Li617 O677 1.956 . S
Li617 O679 1.961 . S
Li618 N663 1.990 . S
Li618 O676 1.961 . S
Li618 O678 1.956 . S
Li618 O679 1.970 . S
Li619 N669 1.990 . S
Li619 O677 1.961 . S
Li619 O678 1.970 . S
Li619 O679 1.956 . S
C620 C622 1.348 . S
C620 C623 1.356 . S
C620 O676 1.325 . S
N621 C624 1.314 . S
N621 C625 1.279 . S
C622 C620 1.348 . S
C622 C624 1.353 . S
C622 H680 0.929 . S
C623 C620 1.356 . S
C623 C625 1.358 . S
C623 H681 0.930 . S
C624 N621 1.314 . S
C624 C622 1.353 . S
C624 H682 0.930 . S
C625 N621 1.279 . S
C625 C623 1.358 . S
C625 H683 0.930 . S
C626 C629 1.348 . S
C626 C630 1.356 . S
C626 O677 1.325 . S
C627 N628 1.279 . S
C627 C630 1.358 . S
C627 H684 0.930 . S
N628 C627 1.279 . S
N628 C631 1.314 . S
C629 C626 1.348 . S
C629 C631 1.353 . S
C629 H685 0.929 . S
C630 C626 1.356 . S
C630 C627 1.358 . S
C630 H686 0.930 . S
C631 N628 1.314 . S
C631 C629 1.353 . S
C631 H687 0.930 . S
C632 N633 1.314 . S
C632 C637 1.353 . S
C632 H638 0.930 . S
N633 Li616 1.990 . S
N633 C632 1.314 . S
N633 C635 1.279 . S
C634 C635 1.358 . S
C634 C636 1.356 . S
C634 H688 0.930 . S
C635 N633 1.279 . S
C635 C634 1.358 . S
C635 H639 0.930 . S
C636 C634 1.356 . S
C636 C637 1.348 . S
C637 C632 1.353 . S
C637 C636 1.348 . S
C637 H689 0.929 . S
H638 C632 0.930 . S
H639 C635 0.930 . S
C640 N641 1.314 . S
C640 C642 1.353 . S
C640 H646 0.930 . S
N641 Li617 1.990 . S
N641 C640 1.314 . S
N641 C644 1.279 . S
C642 C640 1.353 . S
C642 C645 1.348 . S
C642 H690 0.929 . S
C643 C644 1.358 . S
C643 C645 1.356 . S
C643 H691 0.930 . S
C644 N641 1.279 . S
C644 C643 1.358 . S
C644 H647 0.930 . S
C645 C642 1.348 . S
C645 C643 1.356 . S
H646 C640 0.930 . S
H647 C644 0.930 . S
C648 C650 1.348 . S
C648 C651 1.356 . S
C648 O678 1.325 . S
N649 C652 1.314 1_545 S
N649 C653 1.279 1_545 S
C650 C648 1.348 . S
C650 C652 1.353 . S
C650 H692 0.929 . S
C651 C648 1.356 . S
C651 C653 1.358 . S
C651 H693 0.930 . S
C652 N649 1.314 1_565 S
C652 C650 1.353 . S
C652 H694 0.930 . S
C653 N649 1.279 1_565 S
C653 C651 1.358 . S
C653 H695 0.930 1_565 S
C654 C655 1.348 . S
C654 C656 1.356 . S
C654 O679 1.325 . S
C655 C654 1.348 . S
C655 C657 1.353 . S
C655 H696 0.929 . S
C656 C654 1.356 . S
C656 C658 1.358 . S
C656 H697 0.930 . S
C657 C655 1.353 . S
C657 N659 1.314 . S
C657 H698 0.930 . S
C658 C656 1.358 . S
C658 N659 1.279 . S
C658 H699 0.930 . S
N659 C657 1.314 . S
N659 C658 1.279 . S
C660 C662 1.353 . S
C660 N663 1.314 . S
C660 H666 0.930 . S
C661 N663 1.279 . S
C661 C664 1.358 . S
C661 H667 0.930 . S
C662 C660 1.353 . S
C662 C665 1.348 . S
C662 H700 0.929 . S
N663 Li618 1.990 . S
N663 C660 1.314 . S
N663 C661 1.279 . S
C664 C661 1.358 . S
C664 C665 1.356 . S
C664 H701 0.930 1_565 S
C665 C662 1.348 . S
C665 C664 1.356 . S
H666 C660 0.930 . S
H667 C661 0.930 . S
C668 N669 1.314 . S
C668 C670 1.353 . S
C668 H674 0.930 . S
N669 Li619 1.990 . S
N669 C668 1.314 . S
N669 C672 1.279 . S
C670 C668 1.353 . S
C670 C673 1.348 . S
C670 H702 0.929 . S
C671 C672 1.358 . S
C671 C673 1.356 . S
C671 H703 0.930 . S
C672 N669 1.279 . S
C672 C671 1.358 . S
C672 H675 0.930 . S
C673 C670 1.348 . S
C673 C671 1.356 . S
H674 C668 0.930 . S
H675 C672 0.930 . S
O676 Li616 1.956 . S
O676 Li617 1.970 . S
O676 Li618 1.961 . S
O676 C620 1.325 . S
O677 Li616 1.970 . S
O677 Li617 1.956 . S
O677 Li619 1.961 . S
O677 C626 1.325 . S
O678 Li616 1.961 . S
O678 Li618 1.956 . S
O678 Li619 1.970 . S
O678 C648 1.325 . S
O679 Li617 1.961 . S
O679 Li618 1.970 . S
O679 Li619 1.956 . S
O679 C654 1.325 . S
H680 C622 0.929 . S
H681 C623 0.930 . S
H682 C624 0.930 . S
H683 C625 0.930 . S
H684 C627 0.930 . S
H685 C629 0.929 . S
H686 C630 0.930 . S
H687 C631 0.930 . S
H688 C634 0.930 . S
H689 C637 0.929 . S
H690 C642 0.929 . S
H691 C643 0.930 . S
H692 C650 0.929 . S
H693 C651 0.930 . S
H694 C652 0.930 . S
H695 C653 0.930 1_545 S
H696 C655 0.929 . S
H697 C656 0.930 . S
H698 C657 0.930 . S
H699 C658 0.930 . S
H700 C662 0.929 . S
H701 C664 0.930 1_545 S
H702 C670 0.929 . S
H703 C671 0.930 . S
Li704 N721 1.990 . S
Li704 O764 1.956 . S
Li704 O765 1.970 . S
Li704 O766 1.961 . S
Li705 N729 1.990 . S
Li705 O764 1.970 . S
Li705 O765 1.956 . S
Li705 O767 1.961 . S
Li706 N751 1.990 . S
Li706 O764 1.961 . S
Li706 O766 1.956 . S
Li706 O767 1.970 . S
Li707 N757 1.990 . S
Li707 O765 1.961 . S
Li707 O766 1.970 . S
Li707 O767 1.956 . S
C708 C710 1.348 . S
C708 C711 1.356 . S
C708 O764 1.325 . S
N709 C712 1.314 . S
N709 C713 1.279 . S
C710 C708 1.348 . S
C710 C712 1.353 1_556 S
C710 H768 0.929 . S
C711 C708 1.356 . S
C711 C713 1.358 1_556 S
C711 H769 0.930 . S
C712 N709 1.314 . S
C712 C710 1.353 1_554 S
C712 H770 0.930 . S
C713 N709 1.279 . S
C713 C711 1.358 1_554 S
C713 H771 0.930 . S
C714 C717 1.348 . S
C714 C718 1.356 . S
C714 O765 1.325 . S
C715 N716 1.279 . S
C715 C718 1.358 . S
C715 H772 0.930 . S
N716 C715 1.279 . S
N716 C719 1.314 . S
C717 C714 1.348 . S
C717 C719 1.353 . S
C717 H773 0.929 . S
C718 C714 1.356 . S
C718 C715 1.358 . S
C718 H774 0.930 . S
C719 N716 1.314 . S
C719 C717 1.353 . S
C719 H775 0.930 . S
C720 N721 1.314 . S
C720 C725 1.353 . S
C720 H726 0.930 . S
N721 Li704 1.990 . S
N721 C720 1.314 . S
N721 C723 1.279 . S
C722 C723 1.358 . S
C722 C724 1.356 . S
C722 H776 0.930 . S
C723 N721 1.279 . S
C723 C722 1.358 . S
C723 H727 0.930 . S
C724 C722 1.356 . S
C724 C725 1.348 . S
C725 C720 1.353 . S
C725 C724 1.348 . S
C725 H777 0.929 . S
H726 C720 0.930 . S
H727 C723 0.930 . S
C728 N729 1.314 . S
C728 C730 1.353 . S
C728 H734 0.930 . S
N729 Li705 1.990 . S
N729 C728 1.314 . S
N729 C732 1.279 . S
C730 C728 1.353 . S
C730 C733 1.348 . S
C730 H778 0.929 . S
C731 C732 1.358 . S
C731 C733 1.356 . S
C731 H779 0.930 . S
C732 N729 1.279 . S
C732 C731 1.358 . S
C732 H735 0.930 . S
C733 C730 1.348 . S
C733 C731 1.356 . S
H734 C728 0.930 . S
H735 C732 0.930 . S
C736 C738 1.348 . S
C736 C739 1.356 . S
C736 O766 1.325 . S
N737 C740 1.314 . S
N737 C741 1.279 . S
C738 C736 1.348 . S
C738 C740 1.353 . S
C738 H780 0.929 . S
C739 C736 1.356 . S
C739 C741 1.358 . S
C739 H781 0.930 . S
C740 N737 1.314 . S
C740 C738 1.353 . S
C740 H782 0.930 . S
C741 N737 1.279 . S
C741 C739 1.358 . S
C741 H783 0.930 . S
C742 C743 1.348 . S
C742 C744 1.356 . S
C742 O767 1.325 . S
C743 C742 1.348 . S
C743 C745 1.353 . S
C743 H784 0.929 . S
C744 C742 1.356 . S
C744 C746 1.358 . S
C744 H785 0.930 . S
C745 C743 1.353 . S
C745 N747 1.314 . S
C745 H786 0.930 . S
C746 C744 1.358 . S
C746 N747 1.279 . S
C746 H787 0.930 . S
N747 C745 1.314 . S
N747 C746 1.279 . S
C748 C750 1.353 . S
C748 N751 1.314 . S
C748 H754 0.930 . S
C749 N751 1.279 . S
C749 C752 1.358 . S
C749 H755 0.930 . S
C750 C748 1.353 . S
C750 C753 1.348 . S
C750 H788 0.929 1_556 S
N751 Li706 1.990 . S
N751 C748 1.314 . S
N751 C749 1.279 . S
C752 C749 1.358 . S
C752 C753 1.356 . S
C752 H789 0.930 . S
C753 C750 1.348 . S
C753 C752 1.356 . S
H754 C748 0.930 . S
H755 C749 0.930 . S
C756 N757 1.314 . S
C756 C758 1.353 . S
C756 H762 0.930 . S
N757 Li707 1.990 . S
N757 C756 1.314 . S
N757 C760 1.279 . S
C758 C756 1.353 . S
C758 C761 1.348 . S
C758 H790 0.929 . S
C759 C760 1.358 . S
C759 C761 1.356 . S
C759 H791 0.930 . S
C760 N757 1.279 . S
C760 C759 1.358 . S
C760 H763 0.930 . S
C761 C758 1.348 . S
C761 C759 1.356 . S
H762 C756 0.930 . S
H763 C760 0.930 . S
O764 Li704 1.956 . S
O764 Li705 1.970 . S
O764 Li706 1.961 . S
O764 C708 1.325 . S
O765 Li704 1.970 . S
O765 Li705 1.956 . S
O765 Li707 1.961 . S
O765 C714 1.325 . S
O766 Li704 1.961 . S
O766 Li706 1.956 . S
O766 Li707 1.970 . S
O766 C736 1.325 . S
O767 Li705 1.961 . S
O767 Li706 1.970 . S
O767 Li707 1.956 . S
O767 C742 1.325 . S
H768 C710 0.929 . S
H769 C711 0.930 . S
H770 C712 0.930 . S
H771 C713 0.930 . S
H772 C715 0.930 . S
H773 C717 0.929 . S
H774 C718 0.930 . S
H775 C719 0.930 . S
H776 C722 0.930 . S
H777 C725 0.929 . S
H778 C730 0.929 . S
H779 C731 0.930 . S
H780 C738 0.929 . S
H781 C739 0.930 . S
H782 C740 0.930 . S
H783 C741 0.930 . S
H784 C743 0.929 . S
H785 C744 0.930 . S
H786 C745 0.930 . S
H787 C746 0.930 . S
H788 C750 0.929 1_554 S
H789 C752 0.930 . S
H790 C758 0.929 . S
H791 C759 0.930 . S
Li792 N809 1.990 . S
Li792 O852 1.956 . S
Li792 O853 1.970 . S
Li792 O854 1.961 . S
Li793 N817 1.990 . S
Li793 O852 1.970 . S
Li793 O853 1.956 . S
Li793 O855 1.961 . S
Li794 N839 1.990 . S
Li794 O852 1.961 . S
Li794 O854 1.956 . S
Li794 O855 1.970 . S
Li795 N845 1.990 . S
Li795 O853 1.961 . S
Li795 O854 1.970 . S
Li795 O855 1.956 . S
C796 C798 1.348 . S
C796 C799 1.356 . S
C796 O852 1.325 . S
N797 C800 1.314 . S
N797 C801 1.279 . S
C798 C796 1.348 . S
C798 C800 1.353 . S
C798 H856 0.929 . S
C799 C796 1.356 . S
C799 C801 1.358 . S
C799 H857 0.930 . S
C800 N797 1.314 . S
C800 C798 1.353 . S
C800 H858 0.930 . S
C801 N797 1.279 . S
C801 C799 1.358 . S
C801 H859 0.930 . S
C802 C805 1.348 . S
C802 C806 1.356 . S
C802 O853 1.325 . S
C803 N804 1.279 . S
C803 C806 1.358 1_554 S
C803 H860 0.930 . S
N804 C803 1.279 . S
N804 C807 1.314 . S
C805 C802 1.348 . S
C805 C807 1.353 1_556 S
C805 H861 0.929 . S
C806 C802 1.356 . S
C806 C803 1.358 1_556 S
C806 H862 0.930 . S
C807 N804 1.314 . S
C807 C805 1.353 1_554 S
C807 H863 0.930 . S
C808 N809 1.314 . S
C808 C813 1.353 . S
C808 H814 0.930 . S
N809 Li792 1.990 . S
N809 C808 1.314 . S
N809 C811 1.279 . S
C810 C811 1.358 . S
C810 C812 1.356 . S
C810 H864 0.930 . S
C811 N809 1.279 . S
C811 C810 1.358 . S
C811 H815 0.930 . S
C812 C810 1.356 . S
C812 C813 1.348 . S
C813 C808 1.353 . S
C813 C812 1.348 . S
C813 H865 0.929 . S
H814 C808 0.930 . S
H815 C811 0.930 . S
C816 N817 1.314 . S
C816 C818 1.353 . S
C816 H822 0.930 . S
N817 Li793 1.990 . S
N817 C816 1.314 . S
N817 C820 1.279 . S
C818 C816 1.353 . S
C818 C821 1.348 . S
C818 H866 0.929 . S
C819 C820 1.358 . S
C819 C821 1.356 . S
C819 H867 0.930 . S
C820 N817 1.279 . S
C820 C819 1.358 . S
C820 H823 0.930 . S
C821 C818 1.348 . S
C821 C819 1.356 . S
H822 C816 0.930 . S
H823 C820 0.930 . S
C824 C826 1.348 . S
C824 C827 1.356 . S
C824 O854 1.325 . S
N825 C828 1.314 . S
N825 C829 1.279 . S
C826 C824 1.348 . S
C826 C828 1.353 . S
C826 H868 0.929 . S
C827 C824 1.356 . S
C827 C829 1.358 . S
C827 H869 0.930 . S
C828 N825 1.314 . S
C828 C826 1.353 . S
C828 H870 0.930 . S
C829 N825 1.279 . S
C829 C827 1.358 . S
C829 H871 0.930 . S
C830 C831 1.348 . S
C830 C832 1.356 . S
C830 O855 1.325 . S
C831 C830 1.348 . S
C831 C833 1.353 . S
C831 H872 0.929 . S
C832 C830 1.356 . S
C832 C834 1.358 . S
C832 H873 0.930 . S
C833 C831 1.353 . S
C833 N835 1.314 . S
C833 H874 0.930 . S
C834 C832 1.358 . S
C834 N835 1.279 . S
C834 H875 0.930 . S
N835 C833 1.314 . S
N835 C834 1.279 . S
C836 C838 1.353 . S
C836 N839 1.314 . S
C836 H842 0.930 . S
C837 N839 1.279 . S
C837 C840 1.358 . S
C837 H843 0.930 . S
C838 C836 1.353 . S
C838 C841 1.348 . S
C838 H876 0.929 . S
N839 Li794 1.990 . S
N839 C836 1.314 . S
N839 C837 1.279 . S
C840 C837 1.358 . S
C840 C841 1.356 . S
C840 H877 0.930 . S
C841 C838 1.348 . S
C841 C840 1.356 . S
H842 C836 0.930 . S
H843 C837 0.930 . S
C844 N845 1.314 . S
C844 C846 1.353 . S
C844 H850 0.930 . S
N845 Li795 1.990 . S
N845 C844 1.314 . S
N845 C848 1.279 . S
C846 C844 1.353 . S
C846 C849 1.348 . S
C846 H878 0.929 1_556 S
C847 C848 1.358 . S
C847 C849 1.356 . S
C847 H879 0.930 . S
C848 N845 1.279 . S
C848 C847 1.358 . S
C848 H851 0.930 . S
C849 C846 1.348 . S
C849 C847 1.356 . S
H850 C844 0.930 . S
H851 C848 0.930 . S
O852 Li792 1.956 . S
O852 Li793 1.970 . S
O852 Li794 1.961 . S
O852 C796 1.325 . S
O853 Li792 1.970 . S
O853 Li793 1.956 . S
O853 Li795 1.961 . S
O853 C802 1.325 . S
O854 Li792 1.961 . S
O854 Li794 1.956 . S
O854 Li795 1.970 . S
O854 C824 1.325 . S
O855 Li793 1.961 . S
O855 Li794 1.970 . S
O855 Li795 1.956 . S
O855 C830 1.325 . S
H856 C798 0.929 . S
H857 C799 0.930 . S
H858 C800 0.930 . S
H859 C801 0.930 . S
H860 C803 0.930 . S
H861 C805 0.929 . S
H862 C806 0.930 . S
H863 C807 0.930 . S
H864 C810 0.930 . S
H865 C813 0.929 . S
H866 C818 0.929 . S
H867 C819 0.930 . S
H868 C826 0.929 . S
H869 C827 0.930 . S
H870 C828 0.930 . S
H871 C829 0.930 . S
H872 C831 0.929 . S
H873 C832 0.930 . S
H874 C833 0.930 . S
H875 C834 0.930 . S
H876 C838 0.929 . S
H877 C840 0.930 . S
H878 C846 0.929 1_554 S
H879 C847 0.930 . S
Li880 N897 1.990 . S
Li880 O940 1.956 . S
Li880 O941 1.970 . S
Li880 O942 1.961 . S
Li881 N905 1.990 . S
Li881 O940 1.970 . S
Li881 O941 1.956 . S
Li881 O943 1.961 . S
Li882 N927 1.990 . S
Li882 O940 1.961 . S
Li882 O942 1.956 . S
Li882 O943 1.970 . S
Li883 N933 1.990 . S
Li883 O941 1.961 . S
Li883 O942 1.970 . S
Li883 O943 1.956 . S
C884 C886 1.348 . S
C884 C887 1.356 . S
C884 O940 1.325 . S
N885 C888 1.314 . S
N885 C889 1.279 . S
C886 C884 1.348 . S
C886 C888 1.353 . S
C886 H944 0.929 . S
C887 C884 1.356 . S
C887 C889 1.358 . S
C887 H945 0.930 . S
C888 N885 1.314 . S
C888 C886 1.353 . S
C888 H946 0.930 . S
C889 N885 1.279 . S
C889 C887 1.358 . S
C889 H947 0.930 . S
C890 C893 1.348 . S
C890 C894 1.356 . S
C890 O941 1.325 . S
C891 N892 1.279 . S
C891 C894 1.358 1_655 S
C891 H948 0.930 . S
N892 C891 1.279 . S
N892 C895 1.314 1_655 S
C893 C890 1.348 . S
C893 C895 1.353 . S
C893 H949 0.929 . S
C894 C890 1.356 . S
C894 C891 1.358 1_455 S
C894 H950 0.930 . S
C895 N892 1.314 1_455 S
C895 C893 1.353 . S
C895 H951 0.930 . S
C896 N897 1.314 . S
C896 C901 1.353 . S
C896 H902 0.930 . S
N897 Li880 1.990 . S
N897 C896 1.314 . S
N897 C899 1.279 . S
C898 C899 1.358 . S
C898 C900 1.356 . S
C898 H952 0.930 . S
C899 N897 1.279 . S
C899 C898 1.358 . S
C899 H903 0.930 . S
C900 C898 1.356 . S
C900 C901 1.348 . S
C901 C896 1.353 . S
C901 C900 1.348 . S
C901 H953 0.929 . S
H902 C896 0.930 . S
H903 C899 0.930 . S
C904 N905 1.314 . S
C904 C906 1.353 . S
C904 H910 0.930 . S
N905 Li881 1.990 . S
N905 C904 1.314 . S
N905 C908 1.279 . S
C906 C904 1.353 . S
C906 C909 1.348 . S
C906 H954 0.929 1_556 S
C907 C908 1.358 . S
C907 C909 1.356 . S
C907 H955 0.930 . S
C908 N905 1.279 . S
C908 C907 1.358 . S
C908 H911 0.930 . S
C909 C906 1.348 . S
C909 C907 1.356 . S
H910 C904 0.930 . S
H911 C908 0.930 . S
C912 C914 1.348 . S
C912 C915 1.356 . S
C912 O942 1.325 . S
N913 C916 1.314 . S
N913 C917 1.279 . S
C914 C912 1.348 . S
C914 C916 1.353 . S
C914 H956 0.929 . S
C915 C912 1.356 . S
C915 C917 1.358 . S
C915 H957 0.930 . S
C916 N913 1.314 . S
C916 C914 1.353 . S
C916 H958 0.930 . S
C917 N913 1.279 . S
C917 C915 1.358 . S
C917 H959 0.930 . S
C918 C919 1.348 . S
C918 C920 1.356 . S
C918 O943 1.325 . S
C919 C918 1.348 . S
C919 C921 1.353 1_556 S
C919 H960 0.929 . S
C920 C918 1.356 . S
C920 C922 1.358 1_556 S
C920 H961 0.930 . S
C921 C919 1.353 1_554 S
C921 N923 1.314 . S
C921 H962 0.930 . S
C922 C920 1.358 1_554 S
C922 N923 1.279 . S
C922 H963 0.930 . S
N923 C921 1.314 . S
N923 C922 1.279 . S
C924 C926 1.353 . S
C924 N927 1.314 . S
C924 H930 0.930 . S
C925 N927 1.279 . S
C925 C928 1.358 . S
C925 H931 0.930 . S
C926 C924 1.353 . S
C926 C929 1.348 . S
C926 H964 0.929 . S
N927 Li882 1.990 . S
N927 C924 1.314 . S
N927 C925 1.279 . S
C928 C925 1.358 . S
C928 C929 1.356 . S
C928 H965 0.930 . S
C929 C926 1.348 . S
C929 C928 1.356 . S
H930 C924 0.930 . S
H931 C925 0.930 . S
C932 N933 1.314 . S
C932 C934 1.353 . S
C932 H938 0.930 . S
N933 Li883 1.990 . S
N933 C932 1.314 . S
N933 C936 1.279 . S
C934 C932 1.353 . S
C934 C937 1.348 . S
C934 H966 0.929 1_455 S
C935 C936 1.358 . S
C935 C937 1.356 . S
C935 H967 0.930 . S
C936 N933 1.279 . S
C936 C935 1.358 . S
C936 H939 0.930 . S
C937 C934 1.348 . S
C937 C935 1.356 . S
H938 C932 0.930 . S
H939 C936 0.930 . S
O940 Li880 1.956 . S
O940 Li881 1.970 . S
O940 Li882 1.961 . S
O940 C884 1.325 . S
O941 Li880 1.970 . S
O941 Li881 1.956 . S
O941 Li883 1.961 . S
O941 C890 1.325 . S
O942 Li880 1.961 . S
O942 Li882 1.956 . S
O942 Li883 1.970 . S
O942 C912 1.325 . S
O943 Li881 1.961 . S
O943 Li882 1.970 . S
O943 Li883 1.956 . S
O943 C918 1.325 . S
H944 C886 0.929 . S
H945 C887 0.930 . S
H946 C888 0.930 . S
H947 C889 0.930 . S
H948 C891 0.930 . S
H949 C893 0.929 . S
H950 C894 0.930 . S
H951 C895 0.930 . S
H952 C898 0.930 . S
H953 C901 0.929 . S
H954 C906 0.929 1_554 S
H955 C907 0.930 . S
H956 C914 0.929 . S
H957 C915 0.930 . S
H958 C916 0.930 . S
H959 C917 0.930 . S
H960 C919 0.929 . S
H961 C920 0.930 . S
H962 C921 0.930 . S
H963 C922 0.930 . S
H964 C926 0.929 . S
H965 C928 0.930 . S
H966 C934 0.929 1_655 S
H967 C935 0.930 . S
Li968 N985 1.990 . S
Li968 O1028 1.956 . S
Li968 O1029 1.970 . S
Li968 O1030 1.961 . S
Li969 N993 1.990 . S
Li969 O1028 1.970 . S
Li969 O1029 1.956 . S
Li969 O1031 1.961 . S
Li970 N1015 1.990 . S
Li970 O1028 1.961 . S
Li970 O1030 1.956 . S
Li970 O1031 1.970 . S
Li971 N1021 1.990 . S
Li971 O1029 1.961 . S
Li971 O1030 1.970 . S
Li971 O1031 1.956 . S
C972 C974 1.348 . S
C972 C975 1.356 . S
C972 O1028 1.325 . S
N973 C976 1.314 . S
N973 C977 1.279 . S
C974 C972 1.348 . S
C974 C976 1.353 . S
C974 H1032 0.929 . S
C975 C972 1.356 . S
C975 C977 1.358 . S
C975 H1033 0.930 . S
C976 N973 1.314 . S
C976 C974 1.353 . S
C976 H1034 0.930 . S
C977 N973 1.279 . S
C977 C975 1.358 . S
C977 H1035 0.930 . S
C978 C981 1.348 . S
C978 C982 1.356 . S
C978 O1029 1.325 . S
C979 N980 1.279 . S
C979 C982 1.358 1_554 S
C979 H1036 0.930 . S
N980 C979 1.279 . S
N980 C983 1.314 . S
C981 C978 1.348 . S
C981 C983 1.353 1_556 S
C981 H1037 0.929 . S
C982 C978 1.356 . S
C982 C979 1.358 1_556 S
C982 H1038 0.930 . S
C983 N980 1.314 . S
C983 C981 1.353 1_554 S
C983 H1039 0.930 . S
C984 N985 1.314 . S
C984 C989 1.353 . S
C984 H990 0.930 . S
N985 Li968 1.990 . S
N985 C984 1.314 . S
N985 C987 1.279 . S
C986 C987 1.358 . S
C986 C988 1.356 . S
C986 H1040 0.930 . S
C987 N985 1.279 . S
C987 C986 1.358 . S
C987 H991 0.930 . S
C988 C986 1.356 . S
C988 C989 1.348 . S
C989 C984 1.353 . S
C989 C988 1.348 . S
C989 H1041 0.929 . S
H990 C984 0.930 . S
H991 C987 0.930 . S
C992 N993 1.314 . S
C992 C994 1.353 . S
C992 H998 0.930 . S
N993 Li969 1.990 . S
N993 C992 1.314 . S
N993 C996 1.279 . S
C994 C992 1.353 . S
C994 C997 1.348 . S
C994 H1042 0.929 1_545 S
C995 C996 1.358 . S
C995 C997 1.356 . S
C995 H1043 0.930 . S
C996 N993 1.279 . S
C996 C995 1.358 . S
C996 H999 0.930 . S
C997 C994 1.348 . S
C997 C995 1.356 . S
H998 C992 0.930 . S
H999 C996 0.930 . S
C1000 C1002 1.348 . S
C1000 C1003 1.356 . S
C1000 O1030 1.325 . S
N1001 C1004 1.314 . S
N1001 C1005 1.279 . S
C1002 C1000 1.348 . S
C1002 C1004 1.353 . S
C1002 H1044 0.929 . S
C1003 C1000 1.356 . S
C1003 C1005 1.358 . S
C1003 H1045 0.930 . S
C1004 N1001 1.314 . S
C1004 C1002 1.353 . S
C1004 H1046 0.930 . S
C1005 N1001 1.279 . S
C1005 C1003 1.358 . S
C1005 H1047 0.930 . S
C1006 C1007 1.348 . S
C1006 C1008 1.356 . S
C1006 O1031 1.325 . S
C1007 C1006 1.348 . S
C1007 C1009 1.353 . S
C1007 H1048 0.929 . S
C1008 C1006 1.356 . S
C1008 C1010 1.358 1_545 S
C1008 H1049 0.930 . S
C1009 C1007 1.353 . S
C1009 N1011 1.314 1_545 S
C1009 H1050 0.930 . S
C1010 C1008 1.358 1_565 S
C1010 N1011 1.279 . S
C1010 H1051 0.930 . S
N1011 C1009 1.314 1_565 S
N1011 C1010 1.279 . S
C1012 C1014 1.353 . S
C1012 N1015 1.314 . S
C1012 H1018 0.930 . S
C1013 N1015 1.279 . S
C1013 C1016 1.358 . S
C1013 H1019 0.930 . S
C1014 C1012 1.353 . S
C1014 C1017 1.348 . S
C1014 H1052 0.929 . S
N1015 Li970 1.990 . S
N1015 C1012 1.314 . S
N1015 C1013 1.279 . S
C1016 C1013 1.358 . S
C1016 C1017 1.356 . S
C1016 H1053 0.930 . S
C1017 C1014 1.348 . S
C1017 C1016 1.356 . S
H1018 C1012 0.930 . S
H1019 C1013 0.930 . S
C1020 N1021 1.314 . S
C1020 C1022 1.353 . S
C1020 H1026 0.930 . S
N1021 Li971 1.990 . S
N1021 C1020 1.314 . S
N1021 C1024 1.279 . S
C1022 C1020 1.353 . S
C1022 C1025 1.348 . S
C1022 H1054 0.929 1_556 S
C1023 C1024 1.358 . S
C1023 C1025 1.356 . S
C1023 H1055 0.930 . S
C1024 N1021 1.279 . S
C1024 C1023 1.358 . S
C1024 H1027 0.930 . S
C1025 C1022 1.348 . S
C1025 C1023 1.356 . S
H1026 C1020 0.930 . S
H1027 C1024 0.930 . S
O1028 Li968 1.956 . S
O1028 Li969 1.970 . S
O1028 Li970 1.961 . S
O1028 C972 1.325 . S
O1029 Li968 1.970 . S
O1029 Li969 1.956 . S
O1029 Li971 1.961 . S
O1029 C978 1.325 . S
O1030 Li968 1.961 . S
O1030 Li970 1.956 . S
O1030 Li971 1.970 . S
O1030 C1000 1.325 . S
O1031 Li969 1.961 . S
O1031 Li970 1.970 . S
O1031 Li971 1.956 . S
O1031 C1006 1.325 . S
H1032 C974 0.929 . S
H1033 C975 0.930 . S
H1034 C976 0.930 . S
H1035 C977 0.930 . S
H1036 C979 0.930 . S
H1037 C981 0.929 . S
H1038 C982 0.930 . S
H1039 C983 0.930 . S
H1040 C986 0.930 . S
H1041 C989 0.929 . S
H1042 C994 0.929 1_565 S
H1043 C995 0.930 . S
H1044 C1002 0.929 . S
H1045 C1003 0.930 . S
H1046 C1004 0.930 . S
H1047 C1005 0.930 . S
H1048 C1007 0.929 . S
H1049 C1008 0.930 . S
H1050 C1009 0.930 . S
H1051 C1010 0.930 . S
H1052 C1014 0.929 . S
H1053 C1016 0.930 . S
H1054 C1022 0.929 1_554 S
H1055 C1023 0.930 . S
Li1056 N1073 1.990 . S
Li1056 O1116 1.956 . S
Li1056 O1117 1.970 . S
Li1056 O1118 1.961 . S
Li1057 N1081 1.990 . S
Li1057 O1116 1.970 . S
Li1057 O1117 1.956 . S
Li1057 O1119 1.961 . S
Li1058 N1103 1.990 . S
Li1058 O1116 1.961 . S
Li1058 O1118 1.956 . S
Li1058 O1119 1.970 . S
Li1059 N1109 1.990 . S
Li1059 O1117 1.961 . S
Li1059 O1118 1.970 . S
Li1059 O1119 1.956 . S
C1060 C1062 1.348 . S
C1060 C1063 1.356 . S
C1060 O1116 1.325 . S
N1061 C1064 1.314 . S
N1061 C1065 1.279 . S
C1062 C1060 1.348 . S
C1062 C1064 1.353 . S
C1062 H1120 0.929 . S
C1063 C1060 1.356 . S
C1063 C1065 1.358 . S
C1063 H1121 0.930 . S
C1064 N1061 1.314 . S
C1064 C1062 1.353 . S
C1064 H1122 0.930 . S
C1065 N1061 1.279 . S
C1065 C1063 1.358 . S
C1065 H1123 0.930 . S
C1066 C1069 1.348 . S
C1066 C1070 1.356 . S
C1066 O1117 1.325 . S
C1067 N1068 1.279 . S
C1067 C1070 1.358 . S
C1067 H1124 0.930 . S
N1068 C1067 1.279 . S
N1068 C1071 1.314 . S
C1069 C1066 1.348 . S
C1069 C1071 1.353 . S
C1069 H1125 0.929 . S
C1070 C1066 1.356 . S
C1070 C1067 1.358 . S
C1070 H1126 0.930 . S
C1071 N1068 1.314 . S
C1071 C1069 1.353 . S
C1071 H1127 0.930 . S
C1072 N1073 1.314 . S
C1072 C1077 1.353 . S
C1072 H1078 0.930 . S
N1073 Li1056 1.990 . S
N1073 C1072 1.314 . S
N1073 C1075 1.279 . S
C1074 C1075 1.358 . S
C1074 C1076 1.356 . S
C1074 H1128 0.930 . S
C1075 N1073 1.279 . S
C1075 C1074 1.358 . S
C1075 H1079 0.930 . S
C1076 C1074 1.356 . S
C1076 C1077 1.348 . S
C1077 C1072 1.353 . S
C1077 C1076 1.348 . S
C1077 H1129 0.929 . S
H1078 C1072 0.930 . S
H1079 C1075 0.930 . S
C1080 N1081 1.314 . S
C1080 C1082 1.353 . S
C1080 H1086 0.930 . S
N1081 Li1057 1.990 . S
N1081 C1080 1.314 . S
N1081 C1084 1.279 . S
C1082 C1080 1.353 . S
C1082 C1085 1.348 . S
C1082 H1130 0.929 . S
C1083 C1084 1.358 . S
C1083 C1085 1.356 . S
C1083 H1131 0.930 . S
C1084 N1081 1.279 . S
C1084 C1083 1.358 . S
C1084 H1087 0.930 . S
C1085 C1082 1.348 . S
C1085 C1083 1.356 . S
H1086 C1080 0.930 . S
H1087 C1084 0.930 . S
C1088 C1090 1.348 . S
C1088 C1091 1.356 . S
C1088 O1118 1.325 . S
N1089 C1092 1.314 . S
N1089 C1093 1.279 . S
C1090 C1088 1.348 . S
C1090 C1092 1.353 . S
C1090 H1132 0.929 . S
C1091 C1088 1.356 . S
C1091 C1093 1.358 . S
C1091 H1133 0.930 . S
C1092 N1089 1.314 . S
C1092 C1090 1.353 . S
C1092 H1134 0.930 . S
C1093 N1089 1.279 . S
C1093 C1091 1.358 . S
C1093 H1135 0.930 . S
C1094 C1095 1.348 . S
C1094 C1096 1.356 . S
C1094 O1119 1.325 . S
C1095 C1094 1.348 . S
C1095 C1097 1.353 . S
C1095 H1136 0.929 . S
C1096 C1094 1.356 . S
C1096 C1098 1.358 . S
C1096 H1137 0.930 . S
C1097 C1095 1.353 . S
C1097 N1099 1.314 . S
C1097 H1138 0.930 . S
C1098 C1096 1.358 . S
C1098 N1099 1.279 . S
C1098 H1139 0.930 . S
N1099 C1097 1.314 . S
N1099 C1098 1.279 . S
C1100 C1102 1.353 . S
C1100 N1103 1.314 . S
C1100 H1106 0.930 . S
C1101 N1103 1.279 . S
C1101 C1104 1.358 . S
C1101 H1107 0.930 . S
C1102 C1100 1.353 . S
C1102 C1105 1.348 . S
C1102 H1140 0.929 . S
N1103 Li1058 1.990 . S
N1103 C1100 1.314 . S
N1103 C1101 1.279 . S
C1104 C1101 1.358 . S
C1104 C1105 1.356 . S
C1104 H1141 0.930 . S
C1105 C1102 1.348 . S
C1105 C1104 1.356 . S
H1106 C1100 0.930 . S
H1107 C1101 0.930 . S
C1108 N1109 1.314 . S
C1108 C1110 1.353 . S
C1108 H1114 0.930 . S
N1109 Li1059 1.990 . S
N1109 C1108 1.314 . S
N1109 C1112 1.279 . S
C1110 C1108 1.353 . S
C1110 C1113 1.348 . S
C1110 H1142 0.929 . S
C1111 C1112 1.358 . S
C1111 C1113 1.356 . S
C1111 H1143 0.930 . S
C1112 N1109 1.279 . S
C1112 C1111 1.358 . S
C1112 H1115 0.930 . S
C1113 C1110 1.348 . S
C1113 C1111 1.356 . S
H1114 C1108 0.930 . S
H1115 C1112 0.930 . S
O1116 Li1056 1.956 . S
O1116 Li1057 1.970 . S
O1116 Li1058 1.961 . S
O1116 C1060 1.325 . S
O1117 Li1056 1.970 . S
O1117 Li1057 1.956 . S
O1117 Li1059 1.961 . S
O1117 C1066 1.325 . S
O1118 Li1056 1.961 . S
O1118 Li1058 1.956 . S
O1118 Li1059 1.970 . S
O1118 C1088 1.325 . S
O1119 Li1057 1.961 . S
O1119 Li1058 1.970 . S
O1119 Li1059 1.956 . S
O1119 C1094 1.325 . S
H1120 C1062 0.929 . S
H1121 C1063 0.930 . S
H1122 C1064 0.930 . S
H1123 C1065 0.930 . S
H1124 C1067 0.930 . S
H1125 C1069 0.929 . S
H1126 C1070 0.930 . S
H1127 C1071 0.930 . S
H1128 C1074 0.930 . S
H1129 C1077 0.929 . S
H1130 C1082 0.929 . S
H1131 C1083 0.930 . S
H1132 C1090 0.929 . S
H1133 C1091 0.930 . S
H1134 C1092 0.930 . S
H1135 C1093 0.930 . S
H1136 C1095 0.929 . S
H1137 C1096 0.930 . S
H1138 C1097 0.930 . S
H1139 C1098 0.930 . S
H1140 C1102 0.929 . S
H1141 C1104 0.930 . S
H1142 C1110 0.929 . S
H1143 C1111 0.930 . S
Li1144 N1161 1.990 . S
Li1144 O1204 1.956 . S
Li1144 O1205 1.970 . S
Li1144 O1206 1.961 . S
Li1145 N1169 1.990 . S
Li1145 O1204 1.970 . S
Li1145 O1205 1.956 . S
Li1145 O1207 1.961 . S
Li1146 N1191 1.990 . S
Li1146 O1204 1.961 . S
Li1146 O1206 1.956 . S
Li1146 O1207 1.970 . S
Li1147 N1197 1.990 . S
Li1147 O1205 1.961 . S
Li1147 O1206 1.970 . S
Li1147 O1207 1.956 . S
C1148 C1150 1.348 . S
C1148 C1151 1.356 . S
C1148 O1204 1.325 . S
N1149 C1152 1.314 . S
N1149 C1153 1.279 . S
C1150 C1148 1.348 . S
C1150 C1152 1.353 . S
C1150 H1208 0.929 . S
C1151 C1148 1.356 . S
C1151 C1153 1.358 . S
C1151 H1209 0.930 . S
C1152 N1149 1.314 . S
C1152 C1150 1.353 . S
C1152 H1210 0.930 . S
C1153 N1149 1.279 . S
C1153 C1151 1.358 . S
C1153 H1211 0.930 . S
C1154 C1157 1.348 . S
C1154 C1158 1.356 . S
C1154 O1205 1.325 . S
C1155 N1156 1.279 . S
C1155 C1158 1.358 . S
C1155 H1212 0.930 . S
N1156 C1155 1.279 . S
N1156 C1159 1.314 . S
C1157 C1154 1.348 . S
C1157 C1159 1.353 . S
C1157 H1213 0.929 . S
C1158 C1154 1.356 . S
C1158 C1155 1.358 . S
C1158 H1214 0.930 . S
C1159 N1156 1.314 . S
C1159 C1157 1.353 . S
C1159 H1215 0.930 . S
C1160 N1161 1.314 . S
C1160 C1165 1.353 . S
C1160 H1166 0.930 . S
N1161 Li1144 1.990 . S
N1161 C1160 1.314 . S
N1161 C1163 1.279 . S
C1162 C1163 1.358 . S
C1162 C1164 1.356 . S
C1162 H1216 0.930 . S
C1163 N1161 1.279 . S
C1163 C1162 1.358 . S
C1163 H1167 0.930 . S
C1164 C1162 1.356 . S
C1164 C1165 1.348 . S
C1165 C1160 1.353 . S
C1165 C1164 1.348 . S
C1165 H1217 0.929 . S
H1166 C1160 0.930 . S
H1167 C1163 0.930 . S
C1168 N1169 1.314 . S
C1168 C1170 1.353 . S
C1168 H1174 0.930 . S
N1169 Li1145 1.990 . S
N1169 C1168 1.314 . S
N1169 C1172 1.279 . S
C1170 C1168 1.353 . S
C1170 C1173 1.348 . S
C1170 H1218 0.929 . S
C1171 C1172 1.358 . S
C1171 C1173 1.356 . S
C1171 H1219 0.930 . S
C1172 N1169 1.279 . S
C1172 C1171 1.358 . S
C1172 H1175 0.930 . S
C1173 C1170 1.348 . S
C1173 C1171 1.356 . S
H1174 C1168 0.930 . S
H1175 C1172 0.930 . S
C1176 C1178 1.348 . S
C1176 C1179 1.356 . S
C1176 O1206 1.325 . S
N1177 C1180 1.314 . S
N1177 C1181 1.279 . S
C1178 C1176 1.348 . S
C1178 C1180 1.353 . S
C1178 H1220 0.929 . S
C1179 C1176 1.356 . S
C1179 C1181 1.358 . S
C1179 H1221 0.930 . S
C1180 N1177 1.314 . S
C1180 C1178 1.353 . S
C1180 H1222 0.930 . S
C1181 N1177 1.279 . S
C1181 C1179 1.358 . S
C1181 H1223 0.930 . S
C1182 C1183 1.348 . S
C1182 C1184 1.356 . S
C1182 O1207 1.325 . S
C1183 C1182 1.348 . S
C1183 C1185 1.353 . S
C1183 H1224 0.929 . S
C1184 C1182 1.356 . S
C1184 C1186 1.358 . S
C1184 H1225 0.930 . S
C1185 C1183 1.353 . S
C1185 N1187 1.314 . S
C1185 H1226 0.930 . S
C1186 C1184 1.358 . S
C1186 N1187 1.279 . S
C1186 H1227 0.930 . S
N1187 C1185 1.314 . S
N1187 C1186 1.279 . S
C1188 C1190 1.353 . S
C1188 N1191 1.314 . S
C1188 H1194 0.930 . S
C1189 N1191 1.279 . S
C1189 C1192 1.358 . S
C1189 H1195 0.930 . S
C1190 C1188 1.353 . S
C1190 C1193 1.348 . S
C1190 H1228 0.929 . S
N1191 Li1146 1.990 . S
N1191 C1188 1.314 . S
N1191 C1189 1.279 . S
C1192 C1189 1.358 . S
C1192 C1193 1.356 . S
C1192 H1229 0.930 . S
C1193 C1190 1.348 . S
C1193 C1192 1.356 . S
H1194 C1188 0.930 . S
H1195 C1189 0.930 . S
C1196 N1197 1.314 . S
C1196 C1198 1.353 . S
C1196 H1202 0.930 . S
N1197 Li1147 1.990 . S
N1197 C1196 1.314 . S
N1197 C1200 1.279 . S
C1198 C1196 1.353 . S
C1198 C1201 1.348 . S
C1198 H1230 0.929 . S
C1199 C1200 1.358 . S
C1199 C1201 1.356 . S
C1199 H1231 0.930 . S
C1200 N1197 1.279 . S
C1200 C1199 1.358 . S
C1200 H1203 0.930 . S
C1201 C1198 1.348 . S
C1201 C1199 1.356 . S
H1202 C1196 0.930 . S
H1203 C1200 0.930 . S
O1204 Li1144 1.956 . S
O1204 Li1145 1.970 . S
O1204 Li1146 1.961 . S
O1204 C1148 1.325 . S
O1205 Li1144 1.970 . S
O1205 Li1145 1.956 . S
O1205 Li1147 1.961 . S
O1205 C1154 1.325 . S
O1206 Li1144 1.961 . S
O1206 Li1146 1.956 . S
O1206 Li1147 1.970 . S
O1206 C1176 1.325 . S
O1207 Li1145 1.961 . S
O1207 Li1146 1.970 . S
O1207 Li1147 1.956 . S
O1207 C1182 1.325 . S
H1208 C1150 0.929 . S
H1209 C1151 0.930 . S
H1210 C1152 0.930 . S
H1211 C1153 0.930 . S
H1212 C1155 0.930 . S
H1213 C1157 0.929 . S
H1214 C1158 0.930 . S
H1215 C1159 0.930 . S
H1216 C1162 0.930 . S
H1217 C1165 0.929 . S
H1218 C1170 0.929 . S
H1219 C1171 0.930 . S
H1220 C1178 0.929 . S
H1221 C1179 0.930 . S
H1222 C1180 0.930 . S
H1223 C1181 0.930 . S
H1224 C1183 0.929 . S
H1225 C1184 0.930 . S
H1226 C1185 0.930 . S
H1227 C1186 0.930 . S
H1228 C1190 0.929 . S
H1229 C1192 0.930 . S
H1230 C1198 0.929 . S
H1231 C1199 0.930 . S
Li1232 N1249 1.990 . S
Li1232 O1292 1.956 . S
Li1232 O1293 1.970 . S
Li1232 O1294 1.961 . S
Li1233 N1257 1.990 . S
Li1233 O1292 1.970 . S
Li1233 O1293 1.956 . S
Li1233 O1295 1.961 . S
Li1234 N1279 1.990 . S
Li1234 O1292 1.961 . S
Li1234 O1294 1.956 . S
Li1234 O1295 1.970 . S
Li1235 N1285 1.990 . S
Li1235 O1293 1.961 . S
Li1235 O1294 1.970 . S
Li1235 O1295 1.956 . S
C1236 C1238 1.348 . S
C1236 C1239 1.356 . S
C1236 O1292 1.325 . S
N1237 C1240 1.314 . S
N1237 C1241 1.279 . S
C1238 C1236 1.348 . S
C1238 C1240 1.353 . S
C1238 H1296 0.929 . S
C1239 C1236 1.356 . S
C1239 C1241 1.358 . S
C1239 H1297 0.930 . S
C1240 N1237 1.314 . S
C1240 C1238 1.353 . S
C1240 H1298 0.930 . S
C1241 N1237 1.279 . S
C1241 C1239 1.358 . S
C1241 H1299 0.930 . S
C1242 C1245 1.348 . S
C1242 C1246 1.356 . S
C1242 O1293 1.325 . S
C1243 N1244 1.279 . S
C1243 C1246 1.358 . S
C1243 H1300 0.930 . S
N1244 C1243 1.279 . S
N1244 C1247 1.314 . S
C1245 C1242 1.348 . S
C1245 C1247 1.353 . S
C1245 H1301 0.929 . S
C1246 C1242 1.356 . S
C1246 C1243 1.358 . S
C1246 H1302 0.930 . S
C1247 N1244 1.314 . S
C1247 C1245 1.353 . S
C1247 H1303 0.930 . S
C1248 N1249 1.314 . S
C1248 C1253 1.353 . S
C1248 H1254 0.930 . S
N1249 Li1232 1.990 . S
N1249 C1248 1.314 . S
N1249 C1251 1.279 . S
C1250 C1251 1.358 . S
C1250 C1252 1.356 . S
C1250 H1304 0.930 . S
C1251 N1249 1.279 . S
C1251 C1250 1.358 . S
C1251 H1255 0.930 . S
C1252 C1250 1.356 . S
C1252 C1253 1.348 . S
C1253 C1248 1.353 . S
C1253 C1252 1.348 . S
C1253 H1305 0.929 . S
H1254 C1248 0.930 . S
H1255 C1251 0.930 . S
C1256 N1257 1.314 . S
C1256 C1258 1.353 . S
C1256 H1262 0.930 . S
N1257 Li1233 1.990 . S
N1257 C1256 1.314 . S
N1257 C1260 1.279 . S
C1258 C1256 1.353 . S
C1258 C1261 1.348 . S
C1258 H1306 0.929 1_455 S
C1259 C1260 1.358 . S
C1259 C1261 1.356 . S
C1259 H1307 0.930 . S
C1260 N1257 1.279 . S
C1260 C1259 1.358 . S
C1260 H1263 0.930 . S
C1261 C1258 1.348 . S
C1261 C1259 1.356 . S
H1262 C1256 0.930 . S
H1263 C1260 0.930 . S
C1264 C1266 1.348 . S
C1264 C1267 1.356 . S
C1264 O1294 1.325 . S
N1265 C1268 1.314 . S
N1265 C1269 1.279 . S
C1266 C1264 1.348 . S
C1266 C1268 1.353 . S
C1266 H1308 0.929 . S
C1267 C1264 1.356 . S
C1267 C1269 1.358 . S
C1267 H1309 0.930 . S
C1268 N1265 1.314 . S
C1268 C1266 1.353 . S
C1268 H1310 0.930 . S
C1269 N1265 1.279 . S
C1269 C1267 1.358 . S
C1269 H1311 0.930 . S
C1270 C1271 1.348 . S
C1270 C1272 1.356 . S
C1270 O1295 1.325 . S
C1271 C1270 1.348 . S
C1271 C1273 1.353 . S
C1271 H1312 0.929 . S
C1272 C1270 1.356 . S
C1272 C1274 1.358 1_455 S
C1272 H1313 0.930 . S
C1273 C1271 1.353 . S
C1273 N1275 1.314 1_455 S
C1273 H1314 0.930 . S
C1274 C1272 1.358 1_655 S
C1274 N1275 1.279 . S
C1274 H1315 0.930 . S
N1275 C1273 1.314 1_655 S
N1275 C1274 1.279 . S
C1276 C1278 1.353 . S
C1276 N1279 1.314 . S
C1276 H1282 0.930 . S
C1277 N1279 1.279 . S
C1277 C1280 1.358 . S
C1277 H1283 0.930 . S
C1278 C1276 1.353 . S
C1278 C1281 1.348 . S
C1278 H1316 0.929 . S
N1279 Li1234 1.990 . S
N1279 C1276 1.314 . S
N1279 C1277 1.279 . S
C1280 C1277 1.358 . S
C1280 C1281 1.356 . S
C1280 H1317 0.930 . S
C1281 C1278 1.348 . S
C1281 C1280 1.356 . S
H1282 C1276 0.930 . S
H1283 C1277 0.930 . S
C1284 N1285 1.314 . S
C1284 C1286 1.353 . S
C1284 H1290 0.930 . S
N1285 Li1235 1.990 . S
N1285 C1284 1.314 . S
N1285 C1288 1.279 . S
C1286 C1284 1.353 . S
C1286 C1289 1.348 . S
C1286 H1318 0.929 . S
C1287 C1288 1.358 . S
C1287 C1289 1.356 . S
C1287 H1319 0.930 . S
C1288 N1285 1.279 . S
C1288 C1287 1.358 . S
C1288 H1291 0.930 . S
C1289 C1286 1.348 . S
C1289 C1287 1.356 . S
H1290 C1284 0.930 . S
H1291 C1288 0.930 . S
O1292 Li1232 1.956 . S
O1292 Li1233 1.970 . S
O1292 Li1234 1.961 . S
O1292 C1236 1.325 . S
O1293 Li1232 1.970 . S
O1293 Li1233 1.956 . S
O1293 Li1235 1.961 . S
O1293 C1242 1.325 . S
O1294 Li1232 1.961 . S
O1294 Li1234 1.956 . S
O1294 Li1235 1.970 . S
O1294 C1264 1.325 . S
O1295 Li1233 1.961 . S
O1295 Li1234 1.970 . S
O1295 Li1235 1.956 . S
O1295 C1270 1.325 . S
H1296 C1238 0.929 . S
H1297 C1239 0.930 . S
H1298 C1240 0.930 . S
H1299 C1241 0.930 . S
H1300 C1243 0.930 . S
H1301 C1245 0.929 . S
H1302 C1246 0.930 . S
H1303 C1247 0.930 . S
H1304 C1250 0.930 . S
H1305 C1253 0.929 . S
H1306 C1258 0.929 1_655 S
H1307 C1259 0.930 . S
H1308 C1266 0.929 . S
H1309 C1267 0.930 . S
H1310 C1268 0.930 . S
H1311 C1269 0.930 . S
H1312 C1271 0.929 . S
H1313 C1272 0.930 . S
H1314 C1273 0.930 . S
H1315 C1274 0.930 . S
H1316 C1278 0.929 . S
H1317 C1280 0.930 . S
H1318 C1286 0.929 . S
H1319 C1287 0.930 . S
Li1320 N1337 1.990 . S
Li1320 O1380 1.956 . S
Li1320 O1381 1.970 . S
Li1320 O1382 1.961 . S
Li1321 N1345 1.990 . S
Li1321 O1380 1.970 . S
Li1321 O1381 1.956 . S
Li1321 O1383 1.961 . S
Li1322 N1367 1.990 . S
Li1322 O1380 1.961 . S
Li1322 O1382 1.956 . S
Li1322 O1383 1.970 . S
Li1323 N1373 1.990 . S
Li1323 O1381 1.961 . S
Li1323 O1382 1.970 . S
Li1323 O1383 1.956 . S
C1324 C1326 1.348 . S
C1324 C1327 1.356 . S
C1324 O1380 1.325 . S
N1325 C1328 1.314 1_565 S
N1325 C1329 1.279 . S
C1326 C1324 1.348 . S
C1326 C1328 1.353 . S
C1326 H1384 0.929 . S
C1327 C1324 1.356 . S
C1327 C1329 1.358 1_545 S
C1327 H1385 0.930 . S
C1328 N1325 1.314 1_545 S
C1328 C1326 1.353 . S
C1328 H1386 0.930 . S
C1329 N1325 1.279 . S
C1329 C1327 1.358 1_565 S
C1329 H1387 0.930 . S
C1330 C1333 1.348 . S
C1330 C1334 1.356 . S
C1330 O1381 1.325 . S
C1331 N1332 1.279 . S
C1331 C1334 1.358 . S
C1331 H1388 0.930 . S
N1332 C1331 1.279 . S
N1332 C1335 1.314 . S
C1333 C1330 1.348 . S
C1333 C1335 1.353 . S
C1333 H1389 0.929 . S
C1334 C1330 1.356 . S
C1334 C1331 1.358 . S
C1334 H1390 0.930 . S
C1335 N1332 1.314 . S
C1335 C1333 1.353 . S
C1335 H1391 0.930 . S
C1336 N1337 1.314 . S
C1336 C1341 1.353 . S
C1336 H1342 0.930 . S
N1337 Li1320 1.990 . S
N1337 C1336 1.314 . S
N1337 C1339 1.279 . S
C1338 C1339 1.358 . S
C1338 C1340 1.356 . S
C1338 H1392 0.930 . S
C1339 N1337 1.279 . S
C1339 C1338 1.358 . S
C1339 H1343 0.930 . S
C1340 C1338 1.356 . S
C1340 C1341 1.348 . S
C1341 C1336 1.353 . S
C1341 C1340 1.348 . S
C1341 H1393 0.929 . S
H1342 C1336 0.930 . S
H1343 C1339 0.930 . S
C1344 N1345 1.314 . S
C1344 C1346 1.353 . S
C1344 H1350 0.930 . S
N1345 Li1321 1.990 . S
N1345 C1344 1.314 . S
N1345 C1348 1.279 . S
C1346 C1344 1.353 . S
C1346 C1349 1.348 . S
C1346 H1394 0.929 . S
C1347 C1348 1.358 . S
C1347 C1349 1.356 . S
C1347 H1395 0.930 . S
C1348 N1345 1.279 . S
C1348 C1347 1.358 . S
C1348 H1351 0.930 . S
C1349 C1346 1.348 . S
C1349 C1347 1.356 . S
H1350 C1344 0.930 . S
H1351 C1348 0.930 . S
C1352 C1354 1.348 . S
C1352 C1355 1.356 . S
C1352 O1382 1.325 . S
N1353 C1356 1.314 . S
N1353 C1357 1.279 . S
C1354 C1352 1.348 . S
C1354 C1356 1.353 . S
C1354 H1396 0.929 . S
C1355 C1352 1.356 . S
C1355 C1357 1.358 . S
C1355 H1397 0.930 . S
C1356 N1353 1.314 . S
C1356 C1354 1.353 . S
C1356 H1398 0.930 . S
C1357 N1353 1.279 . S
C1357 C1355 1.358 . S
C1357 H1399 0.930 . S
C1358 C1359 1.348 . S
C1358 C1360 1.356 . S
C1358 O1383 1.325 . S
C1359 C1358 1.348 . S
C1359 C1361 1.353 . S
C1359 H1400 0.929 . S
C1360 C1358 1.356 . S
C1360 C1362 1.358 . S
C1360 H1401 0.930 . S
C1361 C1359 1.353 . S
C1361 N1363 1.314 . S
C1361 H1402 0.930 . S
C1362 C1360 1.358 . S
C1362 N1363 1.279 . S
C1362 H1403 0.930 . S
N1363 C1361 1.314 . S
N1363 C1362 1.279 . S
C1364 C1366 1.353 . S
C1364 N1367 1.314 . S
C1364 H1370 0.930 . S
C1365 N1367 1.279 . S
C1365 C1368 1.358 . S
C1365 H1371 0.930 . S
C1366 C1364 1.353 . S
C1366 C1369 1.348 . S
C1366 H1404 0.929 1_545 S
N1367 Li1322 1.990 . S
N1367 C1364 1.314 . S
N1367 C1365 1.279 . S
C1368 C1365 1.358 . S
C1368 C1369 1.356 . S
C1368 H1405 0.930 . S
C1369 C1366 1.348 . S
C1369 C1368 1.356 . S
H1370 C1364 0.930 . S
H1371 C1365 0.930 . S
C1372 N1373 1.314 . S
C1372 C1374 1.353 . S
C1372 H1378 0.930 . S
N1373 Li1323 1.990 . S
N1373 C1372 1.314 . S
N1373 C1376 1.279 . S
C1374 C1372 1.353 . S
C1374 C1377 1.348 . S
C1374 H1406 0.929 . S
C1375 C1376 1.358 . S
C1375 C1377 1.356 . S
C1375 H1407 0.930 . S
C1376 N1373 1.279 . S
C1376 C1375 1.358 . S
C1376 H1379 0.930 . S
C1377 C1374 1.348 . S
C1377 C1375 1.356 . S
H1378 C1372 0.930 . S
H1379 C1376 0.930 . S
O1380 Li1320 1.956 . S
O1380 Li1321 1.970 . S
O1380 Li1322 1.961 . S
O1380 C1324 1.325 . S
O1381 Li1320 1.970 . S
O1381 Li1321 1.956 . S
O1381 Li1323 1.961 . S
O1381 C1330 1.325 . S
O1382 Li1320 1.961 . S
O1382 Li1322 1.956 . S
O1382 Li1323 1.970 . S
O1382 C1352 1.325 . S
O1383 Li1321 1.961 . S
O1383 Li1322 1.970 . S
O1383 Li1323 1.956 . S
O1383 C1358 1.325 . S
H1384 C1326 0.929 . S
H1385 C1327 0.930 . S
H1386 C1328 0.930 . S
H1387 C1329 0.930 . S
H1388 C1331 0.930 . S
H1389 C1333 0.929 . S
H1390 C1334 0.930 . S
H1391 C1335 0.930 . S
H1392 C1338 0.930 . S
H1393 C1341 0.929 . S
H1394 C1346 0.929 . S
H1395 C1347 0.930 . S
H1396 C1354 0.929 . S
H1397 C1355 0.930 . S
H1398 C1356 0.930 . S
H1399 C1357 0.930 . S
H1400 C1359 0.929 . S
H1401 C1360 0.930 . S
H1402 C1361 0.930 . S
H1403 C1362 0.930 . S
H1404 C1366 0.929 1_565 S
H1405 C1368 0.930 . S
H1406 C1374 0.929 . S
H1407 C1375 0.930 . S
H1408 C1420 0.930 . S
H1409 C1422 0.930 . S
H1410 C1423 0.930 . S
H1411 C1427 0.959 . S
H1412 C1427 0.959 . S
H1413 C1427 0.961 . S
H1414 C1428 0.960 . S
H1415 C1428 0.961 . S
H1416 C1428 0.959 . S
H1417 C1431 0.929 . S
H1418 C1432 0.931 . S
H1419 C1434 0.930 . S
C1420 H1408 0.930 . S
C1420 C1421 1.399 1_556 S
C1420 C1425 1.399 . S
C1421 C1420 1.399 1_554 S
C1421 C1422 1.376 . S
C1422 H1409 0.930 . S
C1422 C1421 1.376 . S
C1422 C1423 1.388 . S
C1423 H1410 0.930 . S
C1423 C1422 1.388 . S
C1423 C1424 1.390 1_554 S
C1424 C1423 1.390 1_556 S
C1424 C1425 1.394 . S
C1424 C1430 1.465 . S
C1425 C1420 1.399 . S
C1425 C1424 1.394 . S
C1425 C1426 1.516 . S
C1426 C1425 1.516 . S
C1426 C1427 1.502 . S
C1426 C1428 1.561 . S
C1426 C1429 1.526 . S
C1427 H1411 0.959 . S
C1427 H1412 0.959 . S
C1427 H1413 0.961 . S
C1427 C1426 1.502 . S
C1428 H1414 0.960 . S
C1428 H1415 0.961 . S
C1428 H1416 0.959 . S
C1428 C1426 1.561 . S
C1429 C1426 1.526 . S
C1429 C1430 1.396 . S
C1429 C1434 1.390 . S
C1430 C1424 1.465 . S
C1430 C1429 1.396 . S
C1430 C1431 1.399 . S
C1431 H1417 0.929 . S
C1431 C1430 1.399 . S
C1431 C1432 1.385 . S
C1432 H1418 0.931 . S
C1432 C1431 1.385 . S
C1432 C1433 1.389 . S
C1433 C1432 1.389 . S
C1433 C1434 1.387 . S
C1434 H1419 0.930 . S
C1434 C1429 1.390 . S
C1434 C1433 1.387 . S
H1435 C1447 0.930 . S
H1436 C1449 0.930 . S
H1437 C1450 0.930 . S
H1438 C1454 0.959 . S
H1439 C1454 0.959 . S
H1440 C1454 0.961 . S
H1441 C1455 0.960 . S
H1442 C1455 0.961 . S
H1443 C1455 0.959 . S
H1444 C1458 0.929 . S
H1445 C1459 0.927 1_554 S
H1446 C1461 0.930 . S
C1447 H1435 0.930 . S
C1447 C1448 1.399 . S
C1447 C1452 1.399 . S
C1448 C1447 1.399 . S
C1448 C1449 1.376 . S
C1449 H1436 0.930 . S
C1449 C1448 1.376 . S
C1449 C1450 1.388 . S
C1450 H1437 0.930 . S
C1450 C1449 1.388 . S
C1450 C1451 1.390 . S
C1451 C1450 1.390 . S
C1451 C1452 1.394 . S
C1451 C1457 1.465 . S
C1452 C1447 1.399 . S
C1452 C1451 1.394 . S
C1452 C1453 1.516 . S
C1453 C1452 1.516 . S
C1453 C1454 1.502 . S
C1453 C1455 1.561 1_556 S
C1453 C1456 1.526 . S
C1454 H1438 0.959 . S
C1454 H1439 0.959 . S
C1454 H1440 0.961 . S
C1454 C1453 1.502 . S
C1455 H1441 0.960 . S
C1455 H1442 0.961 . S
C1455 H1443 0.959 . S
C1455 C1453 1.561 1_554 S
C1456 C1453 1.526 . S
C1456 C1457 1.396 . S
C1456 C1461 1.390 1_556 S
C1457 C1451 1.465 . S
C1457 C1456 1.396 . S
C1457 C1458 1.399 . S
C1458 H1444 0.929 . S
C1458 C1457 1.399 . S
C1458 C1459 1.412 . S
C1459 H1445 0.927 1_556 S
C1459 C1458 1.412 . S
C1459 C1460 1.367 1_556 S
C1460 C1459 1.367 1_554 S
C1460 C1461 1.387 . S
C1461 H1446 0.930 . S
C1461 C1456 1.390 1_554 S
C1461 C1460 1.387 . S
H1462 C1474 0.930 . S
H1463 C1476 0.930 . S
H1464 C1477 0.969 . S
H1465 C1481 0.959 . S
H1466 C1481 0.959 . S
H1467 C1481 0.961 . S
H1468 C1482 0.960 . S
H1469 C1482 0.961 . S
H1470 C1482 0.959 . S
H1471 C1485 0.929 . S
H1472 C1486 0.931 . S
H1473 C1488 0.930 . S
C1474 H1462 0.930 . S
C1474 C1475 1.399 . S
C1474 C1479 1.399 . S
C1475 C1474 1.399 . S
C1475 C1476 1.376 . S
C1476 H1463 0.930 . S
C1476 C1475 1.376 . S
C1476 C1477 1.388 . S
C1477 H1464 0.969 . S
C1477 C1476 1.388 . S
C1477 C1478 1.390 . S
C1478 C1477 1.390 . S
C1478 C1479 1.394 . S
C1478 C1484 1.465 . S
C1479 C1474 1.399 . S
C1479 C1478 1.394 . S
C1479 C1480 1.516 . S
C1480 C1479 1.516 . S
C1480 C1481 1.502 . S
C1480 C1482 1.561 . S
C1480 C1483 1.526 . S
C1481 H1465 0.959 . S
C1481 H1466 0.959 . S
C1481 H1467 0.961 . S
C1481 C1480 1.502 . S
C1482 H1468 0.960 . S
C1482 H1469 0.961 . S
C1482 H1470 0.959 . S
C1482 C1480 1.561 . S
C1483 C1480 1.526 . S
C1483 C1484 1.396 . S
C1483 C1488 1.390 . S
C1484 C1478 1.465 . S
C1484 C1483 1.396 . S
C1484 C1485 1.399 1_556 S
C1485 H1471 0.929 . S
C1485 C1484 1.399 1_554 S
C1485 C1486 1.385 . S
C1486 H1472 0.931 . S
C1486 C1485 1.385 . S
C1486 C1487 1.389 . S
C1487 C1486 1.389 . S
C1487 C1488 1.387 1_554 S
C1488 H1473 0.930 . S
C1488 C1483 1.390 . S
C1488 C1487 1.387 1_556 S
H1489 C1501 0.930 . S
H1490 C1503 0.930 . S
H1491 C1504 0.930 . S
H1492 C1508 0.959 . S
H1493 C1508 0.959 . S
H1494 C1508 0.961 . S
H1495 C1509 0.960 . S
H1496 C1509 0.961 . S
H1497 C1509 0.959 . S
H1498 C1512 0.929 . S
H1499 C1513 0.931 . S
H1500 C1515 0.930 . S
C1501 H1489 0.930 . S
C1501 C1502 1.399 . S
C1501 C1506 1.399 . S
C1502 C1501 1.399 . S
C1502 C1503 1.376 . S
C1503 H1490 0.930 . S
C1503 C1502 1.376 . S
C1503 C1504 1.388 . S
C1504 H1491 0.930 . S
C1504 C1503 1.388 . S
C1504 C1505 1.390 . S
C1505 C1504 1.390 . S
C1505 C1506 1.394 . S
C1505 C1511 1.465 . S
C1506 C1501 1.399 . S
C1506 C1505 1.394 . S
C1506 C1507 1.516 . S
C1507 C1506 1.516 . S
C1507 C1508 1.502 . S
C1507 C1509 1.561 1_556 S
C1507 C1510 1.526 . S
C1508 H1492 0.959 . S
C1508 H1493 0.959 . S
C1508 H1494 0.961 . S
C1508 C1507 1.502 . S
C1509 H1495 0.960 . S
C1509 H1496 0.961 . S
C1509 H1497 0.959 . S
C1509 C1507 1.561 1_554 S
C1510 C1507 1.526 . S
C1510 C1511 1.396 . S
C1510 C1515 1.390 1_556 S
C1511 C1505 1.465 . S
C1511 C1510 1.396 . S
C1511 C1512 1.399 . S
C1512 H1498 0.929 . S
C1512 C1511 1.399 . S
C1512 C1513 1.385 1_556 S
C1513 H1499 0.931 . S
C1513 C1512 1.385 1_554 S
C1513 C1514 1.389 . S
C1514 C1513 1.389 . S
C1514 C1515 1.387 . S
C1515 H1500 0.930 . S
C1515 C1510 1.390 1_554 S
C1515 C1514 1.387 . S
H1516 C1528 0.930 . S
H1517 C1530 0.930 . S
H1518 C1531 0.930 . S
H1519 C1535 0.959 . S
H1520 C1535 0.959 . S
H1521 C1535 0.961 . S
H1522 C1536 0.960 . S
H1523 C1536 0.961 . S
H1524 C1536 0.959 . S
H1525 C1539 0.929 . S
H1526 C1540 0.931 . S
H1527 C1542 0.930 . S
C1528 H1516 0.930 . S
C1528 C1529 1.399 . S
C1528 C1533 1.399 . S
C1529 C1528 1.399 . S
C1529 C1530 1.376 . S
C1530 H1517 0.930 . S
C1530 C1529 1.376 . S
C1530 C1531 1.388 . S
C1531 H1518 0.930 . S
C1531 C1530 1.388 . S
C1531 C1532 1.390 . S
C1532 C1531 1.390 . S
C1532 C1533 1.394 . S
C1532 C1538 1.465 . S
C1533 C1528 1.399 . S
C1533 C1532 1.394 . S
C1533 C1534 1.516 . S
C1534 C1533 1.516 . S
C1534 C1535 1.502 . S
C1534 C1536 1.561 . S
C1534 C1537 1.526 . S
C1535 H1519 0.959 . S
C1535 H1520 0.959 . S
C1535 H1521 0.961 . S
C1535 C1534 1.502 . S
C1536 H1522 0.960 . S
C1536 H1523 0.961 . S
C1536 H1524 0.959 . S
C1536 C1534 1.561 . S
C1537 C1534 1.526 . S
C1537 C1538 1.396 . S
C1537 C1542 1.390 . S
C1538 C1532 1.465 . S
C1538 C1537 1.396 . S
C1538 C1539 1.399 . S
C1539 H1525 0.929 . S
C1539 C1538 1.399 . S
C1539 C1540 1.385 . S
C1540 H1526 0.931 . S
C1540 C1539 1.385 . S
C1540 C1541 1.389 . S
C1541 C1540 1.389 . S
C1541 C1542 1.387 . S
C1542 H1527 0.930 . S
C1542 C1537 1.390 . S
C1542 C1541 1.387 . S
H1543 C1555 0.930 . S
H1544 C1557 0.930 . S
H1545 C1558 0.930 . S
H1546 C1562 0.959 . S
H1547 C1562 0.959 . S
H1548 C1562 0.961 . S
H1549 C1563 0.960 . S
H1550 C1563 0.961 . S
H1551 C1563 0.959 . S
H1552 C1566 0.929 . S
H1553 C1567 0.931 . S
H1554 C1569 0.930 . S
C1555 H1543 0.930 . S
C1555 C1556 1.399 . S
C1555 C1560 1.399 . S
C1556 C1555 1.399 . S
C1556 C1557 1.376 . S
C1557 H1544 0.930 . S
C1557 C1556 1.376 . S
C1557 C1558 1.388 . S
C1558 H1545 0.930 . S
C1558 C1557 1.388 . S
C1558 C1559 1.390 . S
C1559 C1558 1.390 . S
C1559 C1560 1.394 . S
C1559 C1565 1.465 . S
C1560 C1555 1.399 . S
C1560 C1559 1.394 . S
C1560 C1561 1.516 . S
C1561 C1560 1.516 . S
C1561 C1562 1.502 . S
C1561 C1563 1.561 . S
C1561 C1564 1.526 . S
C1562 H1546 0.959 . S
C1562 H1547 0.959 . S
C1562 H1548 0.961 . S
C1562 C1561 1.502 . S
C1563 H1549 0.960 . S
C1563 H1550 0.961 . S
C1563 H1551 0.959 . S
C1563 C1561 1.561 . S
C1564 C1561 1.526 . S
C1564 C1565 1.396 . S
C1564 C1569 1.390 . S
C1565 C1559 1.465 . S
C1565 C1564 1.396 . S
C1565 C1566 1.399 . S
C1566 H1552 0.929 . S
C1566 C1565 1.399 . S
C1566 C1567 1.385 . S
C1567 H1553 0.931 . S
C1567 C1566 1.385 . S
C1567 C1568 1.389 . S
C1568 C1567 1.389 . S
C1568 C1569 1.387 . S
C1569 H1554 0.930 . S
C1569 C1564 1.390 . S
C1569 C1568 1.387 . S
H1570 C1582 0.930 . S
H1571 C1584 0.930 . S
H1572 C1585 0.930 . S
H1573 C1589 0.959 . S
H1574 C1589 0.959 . S
H1575 C1589 0.961 . S
H1576 C1590 0.960 . S
H1577 C1590 0.961 . S
H1578 C1590 0.959 . S
H1579 C1593 0.929 . S
H1580 C1594 0.931 . S
H1581 C1596 0.930 . S
C1582 H1570 0.930 . S
C1582 C1583 1.399 . S
C1582 C1587 1.399 . S
C1583 C1582 1.399 . S
C1583 C1584 1.376 . S
C1584 H1571 0.930 . S
C1584 C1583 1.376 . S
C1584 C1585 1.388 . S
C1585 H1572 0.930 . S
C1585 C1584 1.388 . S
C1585 C1586 1.390 . S
C1586 C1585 1.390 . S
C1586 C1587 1.394 . S
C1586 C1592 1.465 . S
C1587 C1582 1.399 . S
C1587 C1586 1.394 . S
C1587 C1588 1.516 . S
C1588 C1587 1.516 . S
C1588 C1589 1.502 . S
C1588 C1590 1.561 . S
C1588 C1591 1.526 . S
C1589 H1573 0.959 . S
C1589 H1574 0.959 . S
C1589 H1575 0.961 . S
C1589 C1588 1.502 . S
C1590 H1576 0.960 . S
C1590 H1577 0.961 . S
C1590 H1578 0.959 . S
C1590 C1588 1.561 . S
C1591 C1588 1.526 . S
C1591 C1592 1.396 . S
C1591 C1596 1.390 . S
C1592 C1586 1.465 . S
C1592 C1591 1.396 . S
C1592 C1593 1.399 . S
C1593 H1579 0.929 . S
C1593 C1592 1.399 . S
C1593 C1594 1.385 . S
C1594 H1580 0.931 . S
C1594 C1593 1.385 . S
C1594 C1595 1.389 . S
C1595 C1594 1.389 . S
C1595 C1596 1.387 . S
C1596 H1581 0.930 . S
C1596 C1591 1.390 . S
C1596 C1595 1.387 . S
H1597 C1609 0.930 . S
H1598 C1611 0.930 . S
H1599 C1612 0.930 . S
H1600 C1616 0.959 . S
H1601 C1616 0.959 . S
H1602 C1616 0.961 . S
H1603 C1617 0.960 . S
H1604 C1617 0.961 . S
H1605 C1617 0.959 . S
H1606 C1620 0.929 . S
H1607 C1621 0.931 . S
H1608 C1623 0.930 . S
C1609 H1597 0.930 . S
C1609 C1610 1.399 . S
C1609 C1614 1.399 . S
C1610 C1609 1.399 . S
C1610 C1611 1.376 . S
C1611 H1598 0.930 . S
C1611 C1610 1.376 . S
C1611 C1612 1.388 . S
C1612 H1599 0.930 . S
C1612 C1611 1.388 . S
C1612 C1613 1.390 . S
C1613 C1612 1.390 . S
C1613 C1614 1.394 . S
C1613 C1619 1.465 . S
C1614 C1609 1.399 . S
C1614 C1613 1.394 . S
C1614 C1615 1.516 . S
C1615 C1614 1.516 . S
C1615 C1616 1.502 . S
C1615 C1617 1.561 . S
C1615 C1618 1.526 . S
C1616 H1600 0.959 . S
C1616 H1601 0.959 . S
C1616 H1602 0.961 . S
C1616 C1615 1.502 . S
C1617 H1603 0.960 . S
C1617 H1604 0.961 . S
C1617 H1605 0.959 . S
C1617 C1615 1.561 . S
C1618 C1615 1.526 . S
C1618 C1619 1.396 . S
C1618 C1623 1.390 . S
C1619 C1613 1.465 . S
C1619 C1618 1.396 . S
C1619 C1620 1.399 . S
C1620 H1606 0.929 . S
C1620 C1619 1.399 . S
C1620 C1621 1.385 . S
C1621 H1607 0.931 . S
C1621 C1620 1.385 . S
C1621 C1622 1.389 . S
C1622 C1621 1.389 . S
C1622 C1623 1.387 . S
C1623 H1608 0.930 . S
C1623 C1618 1.390 . S
C1623 C1622 1.387 . S
H1624 C1636 0.930 . S
H1625 C1638 0.930 . S
H1626 C1639 0.930 . S
H1627 C1643 0.959 . S
H1628 C1643 0.959 . S
H1629 C1643 0.961 . S
H1630 C1644 0.960 1_556 S
H1631 C1644 0.961 . S
H1632 C1644 0.959 1_556 S
H1633 C1647 0.929 . S
H1634 C1648 0.931 . S
H1635 C1650 0.930 . S
C1636 H1624 0.930 . S
C1636 C1637 1.399 . S
C1636 C1641 1.399 1_556 S
C1637 C1636 1.399 . S
C1637 C1638 1.376 . S
C1638 H1625 0.930 . S
C1638 C1637 1.376 . S
C1638 C1639 1.388 1_556 S
C1639 H1626 0.930 . S
C1639 C1638 1.388 1_554 S
C1639 C1640 1.390 . S
C1640 C1639 1.390 . S
C1640 C1641 1.394 . S
C1640 C1646 1.465 . S
C1641 C1636 1.399 1_554 S
C1641 C1640 1.394 . S
C1641 C1642 1.516 . S
C1642 C1641 1.516 . S
C1642 C1643 1.502 . S
C1642 C1644 1.561 . S
C1642 C1645 1.526 . S
C1643 H1627 0.959 . S
C1643 H1628 0.959 . S
C1643 H1629 0.961 . S
C1643 C1642 1.502 . S
C1644 H1630 0.960 1_554 S
C1644 H1631 0.961 . S
C1644 H1632 0.959 1_554 S
C1644 C1642 1.561 . S
C1645 C1642 1.526 . S
C1645 C1646 1.396 . S
C1645 C1650 1.390 . S
C1646 C1640 1.465 . S
C1646 C1645 1.396 . S
C1646 C1647 1.399 . S
C1647 H1633 0.929 . S
C1647 C1646 1.399 . S
C1647 C1648 1.385 . S
C1648 H1634 0.931 . S
C1648 C1647 1.385 . S
C1648 C1649 1.389 . S
C1649 C1648 1.389 . S
C1649 C1650 1.387 . S
C1650 H1635 0.930 . S
C1650 C1645 1.390 . S
C1650 C1649 1.387 . S
H1651 C1663 0.930 . S
H1652 C1665 0.930 . S
H1653 C1666 0.930 . S
H1654 C1670 0.959 . S
H1655 C1670 0.959 . S
H1656 C1670 0.961 . S
H1657 C1671 0.960 . S
H1658 C1671 0.961 . S
H1659 C1671 0.959 . S
H1660 C1674 0.922 1_556 S
H1661 C1675 0.931 . S
H1662 C1677 0.930 . S
C1663 H1651 0.930 . S
C1663 C1664 1.399 1_554 S
C1663 C1668 1.399 . S
C1664 C1663 1.399 1_556 S
C1664 C1665 1.376 . S
C1665 H1652 0.930 . S
C1665 C1664 1.376 . S
C1665 C1666 1.388 . S
C1666 H1653 0.930 . S
C1666 C1665 1.388 . S
C1666 C1667 1.390 1_556 S
C1667 C1666 1.390 1_554 S
C1667 C1668 1.394 . S
C1667 C1673 1.465 . S
C1668 C1663 1.399 . S
C1668 C1667 1.394 . S
C1668 C1669 1.516 . S
C1669 C1668 1.516 . S
C1669 C1670 1.502 . S
C1669 C1671 1.561 . S
C1669 C1672 1.526 . S
C1670 H1654 0.959 . S
C1670 H1655 0.959 . S
C1670 H1656 0.961 . S
C1670 C1669 1.502 . S
C1671 H1657 0.960 . S
C1671 H1658 0.961 . S
C1671 H1659 0.959 . S
C1671 C1669 1.561 . S
C1672 C1669 1.526 . S
C1672 C1673 1.396 . S
C1672 C1677 1.390 . S
C1673 C1667 1.465 . S
C1673 C1672 1.396 . S
C1673 C1674 1.399 . S
C1674 H1660 0.922 1_554 S
C1674 C1673 1.399 . S
C1674 C1675 1.385 . S
C1675 H1661 0.931 . S
C1675 C1674 1.385 . S
C1675 C1676 1.389 . S
C1676 C1675 1.389 . S
C1676 C1677 1.387 . S
C1677 H1662 0.930 . S
C1677 C1672 1.390 . S
C1677 C1676 1.387 . S
H1678 C1690 0.930 . S
H1679 C1692 0.930 . S
H1680 C1693 0.930 . S
H1681 C1697 0.959 . S
H1682 C1697 0.959 . S
H1683 C1697 0.961 1_556 S
H1684 C1698 0.960 . S
H1685 C1698 0.961 . S
H1686 C1698 0.959 . S
H1687 C1701 0.929 . S
H1688 C1702 0.931 . S
H1689 C1704 0.930 . S
C1690 H1678 0.930 . S
C1690 C1691 1.399 . S
C1690 C1695 1.399 1_556 S
C1691 C1690 1.399 . S
C1691 C1692 1.376 1_556 S
C1692 H1679 0.930 . S
C1692 C1691 1.376 1_554 S
C1692 C1693 1.388 . S
C1693 H1680 0.930 . S
C1693 C1692 1.388 . S
C1693 C1694 1.390 . S
C1694 C1693 1.390 . S
C1694 C1695 1.394 . S
C1694 C1700 1.465 . S
C1695 C1690 1.399 1_554 S
C1695 C1694 1.394 . S
C1695 C1696 1.516 . S
C1696 C1695 1.516 . S
C1696 C1697 1.502 . S
C1696 C1698 1.561 1_554 S
C1696 C1699 1.526 . S
C1697 H1681 0.959 . S
C1697 H1682 0.959 . S
C1697 H1683 0.961 1_554 S
C1697 C1696 1.502 . S
C1698 H1684 0.960 . S
C1698 H1685 0.961 . S
C1698 H1686 0.959 . S
C1698 C1696 1.561 1_556 S
C1699 C1696 1.526 . S
C1699 C1700 1.396 . S
C1699 C1704 1.390 . S
C1700 C1694 1.465 . S
C1700 C1699 1.396 . S
C1700 C1701 1.399 . S
C1701 H1687 0.929 . S
C1701 C1700 1.399 . S
C1701 C1702 1.385 . S
C1702 H1688 0.931 . S
C1702 C1701 1.385 . S
C1702 C1703 1.389 . S
C1703 C1702 1.389 . S
C1703 C1704 1.387 . S
C1704 H1689 0.930 . S
C1704 C1699 1.390 . S
C1704 C1703 1.387 . S
H1705 C1717 0.930 . S
H1706 C1719 0.930 . S
H1707 C1720 0.930 . S
H1708 C1724 0.959 . S
H1709 C1724 0.959 . S
H1710 C1724 0.961 . S
H1711 C1725 0.960 . S
H1712 C1725 0.961 . S
H1713 C1725 0.959 1_554 S
H1714 C1728 0.929 . S
H1715 C1729 0.931 . S
H1716 C1731 0.930 . S
C1717 H1705 0.930 . S
C1717 C1718 1.399 . S
C1717 C1722 1.399 . S
C1718 C1717 1.399 . S
C1718 C1719 1.376 . S
C1719 H1706 0.930 . S
C1719 C1718 1.376 . S
C1719 C1720 1.388 . S
C1720 H1707 0.930 . S
C1720 C1719 1.388 . S
C1720 C1721 1.390 . S
C1721 C1720 1.390 . S
C1721 C1722 1.394 . S
C1721 C1727 1.465 . S
C1722 C1717 1.399 . S
C1722 C1721 1.394 . S
C1722 C1723 1.516 . S
C1723 C1722 1.516 . S
C1723 C1724 1.502 1_554 S
C1723 C1725 1.561 1_554 S
C1723 C1726 1.526 . S
C1724 H1708 0.959 . S
C1724 H1709 0.959 . S
C1724 H1710 0.961 . S
C1724 C1723 1.502 1_556 S
C1725 H1711 0.960 . S
C1725 H1712 0.961 . S
C1725 H1713 0.959 1_556 S
C1725 C1723 1.561 1_556 S
C1726 C1723 1.526 . S
C1726 C1727 1.396 . S
C1726 C1731 1.390 1_554 S
C1727 C1721 1.465 . S
C1727 C1726 1.396 . S
C1727 C1728 1.399 . S
C1728 H1714 0.929 . S
C1728 C1727 1.399 . S
C1728 C1729 1.385 . S
C1729 H1715 0.931 . S
C1729 C1728 1.385 . S
C1729 C1730 1.389 1_554 S
C1730 C1729 1.389 1_556 S
C1730 C1731 1.387 . S
C1731 H1716 0.930 . S
C1731 C1726 1.390 1_556 S
C1731 C1730 1.387 . S
H1732 C1744 0.930 . S
H1733 C1746 0.930 . S
H1734 C1747 0.930 . S
H1735 C1751 0.959 . S
H1736 C1751 0.959 . S
H1737 C1751 0.961 . S
H1738 C1752 0.960 . S
H1739 C1752 0.961 . S
H1740 C1752 0.959 . S
H1741 C1755 0.929 . S
H1742 C1756 0.931 . S
H1743 C1758 0.930 . S
C1744 H1732 0.930 . S
C1744 C1745 1.399 . S
C1744 C1749 1.399 . S
C1745 C1744 1.399 . S
C1745 C1746 1.376 . S
C1746 H1733 0.930 . S
C1746 C1745 1.376 . S
C1746 C1747 1.388 . S
C1747 H1734 0.930 . S
C1747 C1746 1.388 . S
C1747 C1748 1.390 . S
C1748 C1747 1.390 . S
C1748 C1749 1.394 . S
C1748 C1754 1.465 . S
C1749 C1744 1.399 . S
C1749 C1748 1.394 . S
C1749 C1750 1.516 . S
C1750 C1749 1.516 . S
C1750 C1751 1.502 . S
C1750 C1752 1.561 . S
C1750 C1753 1.526 . S
C1751 H1735 0.959 . S
C1751 H1736 0.959 . S
C1751 H1737 0.961 . S
C1751 C1750 1.502 . S
C1752 H1738 0.960 . S
C1752 H1739 0.961 . S
C1752 H1740 0.959 . S
C1752 C1750 1.561 . S
C1753 C1750 1.526 . S
C1753 C1754 1.396 . S
C1753 C1758 1.390 . S
C1754 C1748 1.465 . S
C1754 C1753 1.396 . S
C1754 C1755 1.399 . S
C1755 H1741 0.929 . S
C1755 C1754 1.399 . S
C1755 C1756 1.385 . S
C1756 H1742 0.931 . S
C1756 C1755 1.385 . S
C1756 C1757 1.389 . S
C1757 C1756 1.389 . S
C1757 C1758 1.387 . S
C1758 H1743 0.930 . S
C1758 C1753 1.390 . S
C1758 C1757 1.387 . S
H1759 C1771 0.930 . S
H1760 C1773 0.930 . S
H1761 C1774 0.930 . S
H1762 C1778 0.959 . S
H1763 C1778 0.959 . S
H1764 C1778 0.961 . S
H1765 C1779 0.960 . S
H1766 C1779 0.961 . S
H1767 C1779 0.959 . S
H1768 C1782 0.929 . S
H1769 C1783 0.931 . S
H1770 C1785 0.930 . S
C1771 H1759 0.930 . S
C1771 C1772 1.399 . S
C1771 C1776 1.399 . S
C1772 C1771 1.399 . S
C1772 C1773 1.376 . S
C1773 H1760 0.930 . S
C1773 C1772 1.376 . S
C1773 C1774 1.388 . S
C1774 H1761 0.930 . S
C1774 C1773 1.388 . S
C1774 C1775 1.390 . S
C1775 C1774 1.390 . S
C1775 C1776 1.394 . S
C1775 C1781 1.465 . S
C1776 C1771 1.399 . S
C1776 C1775 1.394 . S
C1776 C1777 1.516 . S
C1777 C1776 1.516 . S
C1777 C1778 1.502 . S
C1777 C1779 1.561 . S
C1777 C1780 1.526 . S
C1778 H1762 0.959 . S
C1778 H1763 0.959 . S
C1778 H1764 0.961 . S
C1778 C1777 1.502 . S
C1779 H1765 0.960 . S
C1779 H1766 0.961 . S
C1779 H1767 0.959 . S
C1779 C1777 1.561 . S
C1780 C1777 1.526 . S
C1780 C1781 1.396 . S
C1780 C1785 1.390 . S
C1781 C1775 1.465 . S
C1781 C1780 1.396 . S
C1781 C1782 1.399 . S
C1782 H1768 0.929 . S
C1782 C1781 1.399 . S
C1782 C1783 1.385 . S
C1783 H1769 0.931 . S
C1783 C1782 1.385 . S
C1783 C1784 1.389 . S
C1784 C1783 1.389 . S
C1784 C1785 1.387 . S
C1785 H1770 0.930 . S
C1785 C1780 1.390 . S
C1785 C1784 1.387 . S
H1786 C1798 0.930 . S
H1787 C1800 0.930 . S
H1788 C1801 0.930 . S
H1789 C1805 0.959 . S
H1790 C1805 0.959 . S
H1791 C1805 0.961 . S
H1792 C1806 0.960 . S
H1793 C1806 0.961 . S
H1794 C1806 0.959 . S
H1795 C1809 0.929 . S
H1796 C1810 0.931 . S
H1797 C1812 0.930 . S
C1798 H1786 0.930 . S
C1798 C1799 1.399 . S
C1798 C1803 1.399 . S
C1799 C1798 1.399 . S
C1799 C1800 1.376 . S
C1800 H1787 0.930 . S
C1800 C1799 1.376 . S
C1800 C1801 1.388 . S
C1801 H1788 0.930 . S
C1801 C1800 1.388 . S
C1801 C1802 1.390 . S
C1802 C1801 1.390 . S
C1802 C1803 1.394 . S
C1802 C1808 1.465 . S
C1803 C1798 1.399 . S
C1803 C1802 1.394 . S
C1803 C1804 1.516 . S
C1804 C1803 1.516 . S
C1804 C1805 1.502 . S
C1804 C1806 1.561 . S
C1804 C1807 1.526 . S
C1805 H1789 0.959 . S
C1805 H1790 0.959 . S
C1805 H1791 0.961 . S
C1805 C1804 1.502 . S
C1806 H1792 0.960 . S
C1806 H1793 0.961 . S
C1806 H1794 0.959 . S
C1806 C1804 1.561 . S
C1807 C1804 1.526 . S
C1807 C1808 1.396 . S
C1807 C1812 1.390 . S
C1808 C1802 1.465 . S
C1808 C1807 1.396 . S
C1808 C1809 1.399 . S
C1809 H1795 0.929 . S
C1809 C1808 1.399 . S
C1809 C1810 1.385 . S
C1810 H1796 0.931 . S
C1810 C1809 1.385 . S
C1810 C1811 1.389 . S
C1811 C1810 1.389 . S
C1811 C1812 1.387 . S
C1812 H1797 0.930 . S
C1812 C1807 1.390 . S
C1812 C1811 1.387 . S
H1813 C1825 0.930 . S
H1814 C1827 0.930 . S
H1815 C1828 0.930 . S
H1816 C1832 0.959 . S
H1817 C1832 0.959 . S
H1818 C1832 0.961 . S
H1819 C1833 0.960 . S
H1820 C1833 0.961 . S
H1821 C1833 0.959 . S
H1822 C1836 0.929 . S
H1823 C1837 0.931 . S
H1824 C1839 0.930 . S
C1825 H1813 0.930 . S
C1825 C1826 1.399 . S
C1825 C1830 1.399 . S
C1826 C1825 1.399 . S
C1826 C1827 1.376 . S
C1827 H1814 0.930 . S
C1827 C1826 1.376 . S
C1827 C1828 1.388 . S
C1828 H1815 0.930 . S
C1828 C1827 1.388 . S
C1828 C1829 1.390 . S
C1829 C1828 1.390 . S
C1829 C1830 1.394 . S
C1829 C1835 1.465 . S
C1830 C1825 1.399 . S
C1830 C1829 1.394 . S
C1830 C1831 1.516 . S
C1831 C1830 1.516 . S
C1831 C1832 1.502 . S
C1831 C1833 1.561 . S
C1831 C1834 1.526 . S
C1832 H1816 0.959 . S
C1832 H1817 0.959 . S
C1832 H1818 0.961 . S
C1832 C1831 1.502 . S
C1833 H1819 0.960 . S
C1833 H1820 0.961 . S
C1833 H1821 0.959 . S
C1833 C1831 1.561 . S
C1834 C1831 1.526 . S
C1834 C1835 1.396 . S
C1834 C1839 1.390 . S
C1835 C1829 1.465 . S
C1835 C1834 1.396 . S
C1835 C1836 1.399 . S
C1836 H1822 0.929 . S
C1836 C1835 1.399 . S
C1836 C1837 1.385 . S
C1837 H1823 0.931 . S
C1837 C1836 1.385 . S
C1837 C1838 1.389 . S
C1838 C1837 1.389 . S
C1838 C1839 1.387 . S
C1839 H1824 0.930 . S
C1839 C1834 1.390 . S
C1839 C1838 1.387 . S
H1840 C1852 0.930 . S
H1841 C1854 0.930 . S
H1842 C1855 0.930 . S
H1843 C1859 0.959 . S
H1844 C1859 0.959 . S
H1845 C1859 0.961 . S
H1846 C1860 0.960 . S
H1847 C1860 0.961 . S
H1848 C1860 0.959 . S
H1849 C1863 0.929 1_565 S
H1850 C1864 0.931 . S
H1851 C1866 0.930 . S
C1852 H1840 0.930 . S
C1852 C1853 1.399 . S
C1852 C1857 1.399 . S
C1853 C1852 1.399 . S
C1853 C1854 1.376 . S
C1854 H1841 0.930 . S
C1854 C1853 1.376 . S
C1854 C1855 1.388 1_556 S
C1855 H1842 0.930 . S
C1855 C1854 1.388 1_554 S
C1855 C1856 1.397 . S
C1856 C1855 1.397 . S
C1856 C1857 1.359 1_554 S
C1856 C1862 1.488 1_565 S
C1857 C1852 1.399 . S
C1857 C1856 1.359 1_556 S
C1857 C1858 1.516 1_565 S
C1858 C1857 1.516 1_545 S
C1858 C1859 1.502 . S
C1858 C1860 1.561 . S
C1858 C1861 1.526 1_556 S
C1859 H1843 0.959 . S
C1859 H1844 0.959 . S
C1859 H1845 0.961 . S
C1859 C1858 1.502 . S
C1860 H1846 0.960 . S
C1860 H1847 0.961 . S
C1860 H1848 0.959 . S
C1860 C1858 1.561 . S
C1861 C1858 1.526 1_554 S
C1861 C1862 1.396 . S
C1861 C1866 1.390 . S
C1862 C1856 1.488 1_545 S
C1862 C1861 1.396 . S
C1862 C1863 1.399 . S
C1863 H1849 0.929 1_545 S
C1863 C1862 1.399 . S
C1863 C1864 1.385 . S
C1864 H1850 0.931 . S
C1864 C1863 1.385 . S
C1864 C1865 1.389 . S
C1865 C1864 1.389 . S
C1865 C1866 1.387 . S
C1866 H1851 0.930 . S
C1866 C1861 1.390 . S
C1866 C1865 1.387 . S
H1867 C1879 0.930 . S
H1868 C1881 0.930 . S
H1869 C1882 0.930 . S
H1870 C1886 0.959 . S
H1871 C1886 0.959 . S
H1872 C1886 0.961 . S
H1873 C1887 0.960 . S
H1874 C1887 0.961 . S
H1875 C1887 0.959 . S
H1876 C1890 0.929 . S
H1877 C1891 0.931 . S
H1878 C1893 0.930 . S
C1879 H1867 0.930 . S
C1879 C1880 1.399 . S
C1879 C1884 1.399 . S
C1880 C1879 1.399 . S
C1880 C1881 1.376 . S
C1881 H1868 0.930 . S
C1881 C1880 1.376 . S
C1881 C1882 1.388 . S
C1882 H1869 0.930 . S
C1882 C1881 1.388 . S
C1882 C1883 1.390 . S
C1883 C1882 1.390 . S
C1883 C1884 1.394 . S
C1883 C1889 1.465 . S
C1884 C1879 1.399 . S
C1884 C1883 1.394 . S
C1884 C1885 1.516 1_554 S
C1885 C1884 1.516 1_556 S
C1885 C1886 1.502 . S
C1885 C1887 1.561 . S
C1885 C1888 1.526 . S
C1886 H1870 0.959 . S
C1886 H1871 0.959 . S
C1886 H1872 0.961 . S
C1886 C1885 1.502 . S
C1887 H1873 0.960 . S
C1887 H1874 0.961 . S
C1887 H1875 0.959 . S
C1887 C1885 1.561 . S
C1888 C1885 1.526 . S
C1888 C1889 1.396 1_556 S
C1888 C1893 1.390 . S
C1889 C1883 1.465 . S
C1889 C1888 1.396 1_554 S
C1889 C1890 1.399 . S
C1890 H1876 0.929 . S
C1890 C1889 1.399 . S
C1890 C1891 1.385 1_554 S
C1891 H1877 0.931 . S
C1891 C1890 1.385 1_556 S
C1891 C1892 1.389 . S
C1892 C1891 1.389 . S
C1892 C1893 1.387 . S
C1893 H1878 0.930 . S
C1893 C1888 1.390 . S
C1893 C1892 1.387 . S
H1894 C1906 0.936 . S
H1895 C1908 0.930 . S
H1896 C1909 0.930 . S
H1897 C1913 0.959 . S
H1898 C1913 0.959 . S
H1899 C1913 0.961 . S
H1900 C1914 0.960 . S
H1901 C1914 0.961 . S
H1902 C1914 0.959 . S
H1903 C1917 0.929 . S
H1904 C1918 0.931 . S
H1905 C1920 0.936 . S
C1906 H1894 0.936 . S
C1906 C1907 1.397 1_655 S
C1906 C1911 1.397 1_655 S
C1907 C1906 1.397 1_455 S
C1907 C1908 1.376 . S
C1908 H1895 0.930 . S
C1908 C1907 1.376 . S
C1908 C1909 1.388 1_556 S
C1909 H1896 0.930 . S
C1909 C1908 1.388 1_554 S
C1909 C1910 1.390 . S
C1910 C1909 1.390 . S
C1910 C1911 1.397 1_554 S
C1910 C1916 1.465 . S
C1911 C1906 1.397 1_455 S
C1911 C1910 1.397 1_556 S
C1911 C1912 1.516 . S
C1912 C1911 1.516 . S
C1912 C1913 1.498 1_455 S
C1912 C1914 1.566 . S
C1912 C1915 1.526 1_556 S
C1913 H1897 0.959 . S
C1913 H1898 0.959 . S
C1913 H1899 0.961 . S
C1913 C1912 1.498 1_655 S
C1914 H1900 0.960 . S
C1914 H1901 0.961 . S
C1914 H1902 0.959 . S
C1914 C1912 1.566 . S
C1915 C1912 1.526 1_554 S
C1915 C1916 1.398 . S
C1915 C1920 1.387 1_455 S
C1916 C1910 1.465 . S
C1916 C1915 1.398 . S
C1916 C1917 1.399 . S
C1917 H1903 0.929 . S
C1917 C1916 1.399 . S
C1917 C1918 1.385 . S
C1918 H1904 0.931 . S
C1918 C1917 1.385 . S
C1918 C1919 1.389 1_455 S
C1919 C1918 1.389 1_655 S
C1919 C1920 1.386 . S
C1920 H1905 0.936 . S
C1920 C1915 1.387 1_655 S
C1920 C1919 1.386 . S
H1921 C1933 0.930 . S
H1922 C1935 0.930 . S
H1923 C1936 0.930 . S
H1924 C1940 0.959 . S
H1925 C1940 0.959 . S
H1926 C1940 0.961 . S
H1927 C1941 0.960 1_455 S
H1928 C1941 0.961 . S
H1929 C1941 0.959 . S
H1930 C1944 0.929 . S
H1931 C1945 0.931 . S
H1932 C1947 0.930 . S
C1933 H1921 0.930 . S
C1933 C1934 1.399 1_565 S
C1933 C1938 1.399 . S
C1934 C1933 1.399 1_545 S
C1934 C1935 1.376 . S
C1935 H1922 0.930 . S
C1935 C1934 1.376 . S
C1935 C1936 1.388 . S
C1936 H1923 0.930 . S
C1936 C1935 1.388 . S
C1936 C1937 1.390 . S
C1937 C1936 1.390 . S
C1937 C1938 1.394 1_545 S
C1937 C1943 1.465 1_454 S
C1938 C1933 1.399 . S
C1938 C1937 1.394 1_565 S
C1938 C1939 1.516 1_554 S
C1939 C1938 1.516 1_556 S
C1939 C1940 1.502 . S
C1939 C1941 1.561 1_456 S
C1939 C1942 1.526 1_455 S
C1940 H1924 0.959 . S
C1940 H1925 0.959 . S
C1940 H1926 0.961 . S
C1940 C1939 1.502 . S
C1941 H1927 0.960 1_655 S
C1941 H1928 0.961 . S
C1941 H1929 0.959 . S
C1941 C1939 1.561 1_654 S
C1942 C1939 1.526 1_655 S
C1942 C1943 1.396 1_565 S
C1942 C1947 1.390 . S
C1943 C1937 1.465 1_656 S
C1943 C1942 1.396 1_545 S
C1943 C1944 1.399 . S
C1944 H1930 0.929 . S
C1944 C1943 1.399 . S
C1944 C1945 1.385 . S
C1945 H1931 0.931 . S
C1945 C1944 1.385 . S
C1945 C1946 1.389 . S
C1946 C1945 1.389 . S
C1946 C1947 1.387 1_545 S
C1947 H1932 0.930 . S
C1947 C1942 1.390 . S
C1947 C1946 1.387 1_565 S
H1948 C1960 0.930 . S
H1949 C1962 0.930 . S
H1950 C1963 0.930 . S
H1951 C1967 0.959 . S
H1952 C1967 0.959 . S
H1953 C1967 0.961 . S
H1954 C1968 0.960 . S
H1955 C1968 0.961 . S
H1956 C1968 0.959 . S
H1957 C1971 0.929 . S
H1958 C1972 0.931 . S
H1959 C1974 0.930 . S
C1960 H1948 0.930 . S
C1960 C1961 1.399 . S
C1960 C1965 1.399 . S
C1961 C1960 1.399 . S
C1961 C1962 1.376 . S
C1962 H1949 0.930 . S
C1962 C1961 1.376 . S
C1962 C1963 1.388 . S
C1963 H1950 0.930 . S
C1963 C1962 1.388 . S
C1963 C1964 1.390 . S
C1964 C1963 1.390 . S
C1964 C1965 1.394 . S
C1964 C1970 1.465 . S
C1965 C1960 1.399 . S
C1965 C1964 1.394 . S
C1965 C1966 1.516 . S
C1966 C1965 1.516 . S
C1966 C1967 1.502 . S
C1966 C1968 1.561 . S
C1966 C1969 1.526 . S
C1967 H1951 0.959 . S
C1967 H1952 0.959 . S
C1967 H1953 0.961 . S
C1967 C1966 1.502 . S
C1968 H1954 0.960 . S
C1968 H1955 0.961 . S
C1968 H1956 0.959 . S
C1968 C1966 1.561 . S
C1969 C1966 1.526 . S
C1969 C1970 1.396 . S
C1969 C1974 1.390 . S
C1970 C1964 1.465 . S
C1970 C1969 1.396 . S
C1970 C1971 1.399 . S
C1971 H1957 0.929 . S
C1971 C1970 1.399 . S
C1971 C1972 1.385 . S
C1972 H1958 0.931 . S
C1972 C1971 1.385 . S
C1972 C1973 1.389 . S
C1973 C1972 1.389 . S
C1973 C1974 1.387 . S
C1974 H1959 0.930 . S
C1974 C1969 1.390 . S
C1974 C1973 1.387 . S
H1975 C1987 0.930 . S
H1976 C1989 0.930 . S
H1977 C1990 0.930 . S
H1978 C1994 0.959 . S
H1979 C1994 0.959 . S
H1980 C1994 0.961 . S
H1981 C1995 0.960 . S
H1982 C1995 0.961 . S
H1983 C1995 0.959 . S
H1984 C1998 0.929 . S
H1985 C1999 0.931 . S
H1986 C2001 0.930 . S
C1987 H1975 0.930 . S
C1987 C1988 1.399 . S
C1987 C1992 1.399 . S
C1988 C1987 1.399 . S
C1988 C1989 1.376 . S
C1989 H1976 0.930 . S
C1989 C1988 1.376 . S
C1989 C1990 1.388 . S
C1990 H1977 0.930 . S
C1990 C1989 1.388 . S
C1990 C1991 1.390 . S
C1991 C1990 1.390 . S
C1991 C1992 1.394 . S
C1991 C1997 1.465 1_455 S
C1992 C1987 1.399 . S
C1992 C1991 1.394 . S
C1992 C1993 1.526 . S
C1993 C1992 1.526 . S
C1993 C1994 1.509 . S
C1993 C1995 1.553 1_455 S
C1993 C1996 1.515 1_455 S
C1994 H1978 0.959 . S
C1994 H1979 0.959 . S
C1994 H1980 0.961 . S
C1994 C1993 1.509 . S
C1995 H1981 0.960 . S
C1995 H1982 0.961 . S
C1995 H1983 0.959 . S
C1995 C1993 1.553 1_655 S
C1996 C1993 1.515 1_655 S
C1996 C1997 1.396 . S
C1996 C2001 1.390 . S
C1997 C1991 1.465 1_655 S
C1997 C1996 1.396 . S
C1997 C1998 1.399 . S
C1998 H1984 0.929 . S
C1998 C1997 1.399 . S
C1998 C1999 1.385 . S
C1999 H1985 0.931 . S
C1999 C1998 1.385 . S
C1999 C2000 1.389 . S
C2000 C1999 1.389 . S
C2000 C2001 1.387 . S
C2001 H1986 0.930 . S
C2001 C1996 1.390 . S
C2001 C2000 1.387 . S
H2002 C2014 0.930 . S
H2003 C2016 0.930 . S
H2004 C2017 0.930 . S
H2005 C2021 0.959 . S
H2006 C2021 0.959 . S
H2007 C2021 0.961 . S
H2008 C2022 0.962 . S
H2009 C2022 0.961 1_655 S
H2010 C2022 0.959 . S
H2011 C2025 0.929 1_565 S
H2012 C2026 0.931 . S
H2013 C2028 0.930 . S
C2014 H2002 0.930 . S
C2014 C2015 1.399 1_655 S
C2014 C2019 1.399 . S
C2015 C2014 1.399 1_455 S
C2015 C2016 1.376 . S
C2016 H2003 0.930 . S
C2016 C2015 1.376 . S
C2016 C2017 1.388 . S
C2017 H2004 0.930 . S
C2017 C2016 1.388 . S
C2017 C2018 1.390 . S
C2018 C2017 1.390 . S
C2018 C2019 1.394 1_455 S
C2018 C2024 1.465 1_565 S
C2019 C2014 1.399 . S
C2019 C2018 1.394 1_655 S
C2019 C2020 1.516 1_565 S
C2020 C2019 1.516 1_545 S
C2020 C2021 1.502 . S
C2020 C2022 1.561 1_655 S
C2020 C2023 1.526 . S
C2021 H2005 0.959 . S
C2021 H2006 0.959 . S
C2021 H2007 0.961 . S
C2021 C2020 1.502 . S
C2022 H2008 0.962 . S
C2022 H2009 0.961 1_455 S
C2022 H2010 0.959 . S
C2022 C2020 1.561 1_455 S
C2023 C2020 1.526 . S
C2023 C2024 1.396 1_655 S
C2023 C2028 1.390 . S
C2024 C2018 1.465 1_545 S
C2024 C2023 1.396 1_455 S
C2024 C2025 1.399 . S
C2025 H2011 0.929 1_545 S
C2025 C2024 1.399 . S
C2025 C2026 1.385 . S
C2026 H2012 0.931 . S
C2026 C2025 1.385 . S
C2026 C2027 1.408 . S
C2027 C2026 1.408 . S
C2027 C2028 1.374 1_455 S
C2028 H2013 0.930 . S
C2028 C2023 1.390 . S
C2028 C2027 1.374 1_655 S
H2029 C2041 0.930 . S
H2030 C2043 0.930 . S
H2031 C2044 0.930 . S
H2032 C2048 0.959 . S
H2033 C2048 0.959 . S
H2034 C2048 0.961 . S
H2035 C2049 0.960 . S
H2036 C2049 0.961 . S
H2037 C2049 0.959 . S
H2038 C2052 0.929 . S
H2039 C2053 0.931 . S
H2040 C2055 0.930 . S
C2041 H2029 0.930 . S
C2041 C2042 1.399 1_565 S
C2041 C2046 1.399 . S
C2042 C2041 1.399 1_545 S
C2042 C2043 1.376 . S
C2043 H2030 0.930 . S
C2043 C2042 1.376 . S
C2043 C2044 1.388 . S
C2044 H2031 0.930 . S
C2044 C2043 1.388 . S
C2044 C2045 1.390 . S
C2045 C2044 1.390 . S
C2045 C2046 1.394 1_545 S
C2045 C2051 1.465 . S
C2046 C2041 1.399 . S
C2046 C2045 1.394 1_565 S
C2046 C2047 1.516 . S
C2047 C2046 1.516 . S
C2047 C2048 1.502 . S
C2047 C2049 1.561 . S
C2047 C2050 1.526 . S
C2048 H2032 0.959 . S
C2048 H2033 0.959 . S
C2048 H2034 0.961 . S
C2048 C2047 1.502 . S
C2049 H2035 0.960 . S
C2049 H2036 0.961 . S
C2049 H2037 0.959 . S
C2049 C2047 1.561 . S
C2050 C2047 1.526 . S
C2050 C2051 1.396 1_565 S
C2050 C2055 1.390 . S
C2051 C2045 1.465 . S
C2051 C2050 1.396 1_545 S
C2051 C2052 1.399 . S
C2052 H2038 0.929 . S
C2052 C2051 1.399 . S
C2052 C2053 1.385 . S
C2053 H2039 0.931 . S
C2053 C2052 1.385 . S
C2053 C2054 1.389 . S
C2054 C2053 1.389 . S
C2054 C2055 1.387 1_545 S
C2055 H2040 0.930 . S
C2055 C2050 1.390 . S
C2055 C2054 1.387 1_565 S
H2056 C2068 0.930 . S
H2057 C2070 0.930 . S
H2058 C2071 0.930 . S
H2059 C2075 0.959 . S
H2060 C2075 0.959 . S
H2061 C2075 0.961 . S
H2062 C2076 0.960 . S
H2063 C2076 0.961 . S
H2064 C2076 0.959 . S
H2065 C2079 0.929 . S
H2066 C2080 0.931 . S
H2067 C2082 0.930 . S
C2068 H2056 0.930 . S
C2068 C2069 1.399 . S
C2068 C2073 1.399 . S
C2069 C2068 1.399 . S
C2069 C2070 1.376 . S
C2070 H2057 0.930 . S
C2070 C2069 1.376 . S
C2070 C2071 1.388 . S
C2071 H2058 0.930 . S
C2071 C2070 1.388 . S
C2071 C2072 1.390 . S
C2072 C2071 1.390 . S
C2072 C2073 1.394 . S
C2072 C2078 1.465 . S
C2073 C2068 1.399 . S
C2073 C2072 1.394 . S
C2073 C2074 1.516 . S
C2074 C2073 1.516 . S
C2074 C2075 1.502 . S
C2074 C2076 1.561 . S
C2074 C2077 1.526 . S
C2075 H2059 0.959 . S
C2075 H2060 0.959 . S
C2075 H2061 0.961 . S
C2075 C2074 1.502 . S
C2076 H2062 0.960 . S
C2076 H2063 0.961 . S
C2076 H2064 0.959 . S
C2076 C2074 1.561 . S
C2077 C2074 1.526 . S
C2077 C2078 1.396 . S
C2077 C2082 1.390 . S
C2078 C2072 1.465 . S
C2078 C2077 1.396 . S
C2078 C2079 1.399 . S
C2079 H2065 0.929 . S
C2079 C2078 1.399 . S
C2079 C2080 1.385 . S
C2080 H2066 0.931 . S
C2080 C2079 1.385 . S
C2080 C2081 1.389 . S
C2081 C2080 1.389 . S
C2081 C2082 1.387 . S
C2082 H2067 0.930 . S
C2082 C2077 1.390 . S
C2082 C2081 1.387 . S
H2083 C2095 0.930 . S
H2084 C2097 0.930 . S
H2085 C2098 0.930 . S
H2086 C2102 0.959 . S
H2087 C2102 0.959 . S
H2088 C2102 0.961 . S
H2089 C2103 0.960 . S
H2090 C2103 0.961 . S
H2091 C2103 0.959 . S
H2092 C2106 0.929 . S
H2093 C2107 0.931 . S
H2094 C2109 0.930 . S
C2095 H2083 0.930 . S
C2095 C2096 1.399 . S
C2095 C2100 1.399 . S
C2096 C2095 1.399 . S
C2096 C2097 1.376 . S
C2097 H2084 0.930 . S
C2097 C2096 1.376 . S
C2097 C2098 1.388 . S
C2098 H2085 0.930 . S
C2098 C2097 1.388 . S
C2098 C2099 1.390 . S
C2099 C2098 1.390 . S
C2099 C2100 1.394 . S
C2099 C2105 1.465 . S
C2100 C2095 1.399 . S
C2100 C2099 1.394 . S
C2100 C2101 1.516 . S
C2101 C2100 1.516 . S
C2101 C2102 1.502 . S
C2101 C2103 1.561 . S
C2101 C2104 1.526 . S
C2102 H2086 0.959 . S
C2102 H2087 0.959 . S
C2102 H2088 0.961 . S
C2102 C2101 1.502 . S
C2103 H2089 0.960 . S
C2103 H2090 0.961 . S
C2103 H2091 0.959 . S
C2103 C2101 1.561 . S
C2104 C2101 1.526 . S
C2104 C2105 1.396 . S
C2104 C2109 1.390 . S
C2105 C2099 1.465 . S
C2105 C2104 1.396 . S
C2105 C2106 1.399 . S
C2106 H2092 0.929 . S
C2106 C2105 1.399 . S
C2106 C2107 1.385 . S
C2107 H2093 0.931 . S
C2107 C2106 1.385 . S
C2107 C2108 1.389 . S
C2108 C2107 1.389 . S
C2108 C2109 1.387 . S
C2109 H2094 0.930 . S
C2109 C2104 1.390 . S
C2109 C2108 1.387 . S
H2110 C2122 0.930 . S
H2111 C2124 0.930 . S
H2112 C2125 0.930 . S
H2113 C2129 0.959 . S
H2114 C2129 0.959 . S
H2115 C2129 0.961 . S
H2116 C2130 0.960 . S
H2117 C2130 0.961 . S
H2118 C2130 0.959 . S
H2119 C2133 0.929 . S
H2120 C2134 0.931 . S
H2121 C2136 0.930 . S
C2122 H2110 0.930 . S
C2122 C2123 1.399 . S
C2122 C2127 1.399 . S
C2123 C2122 1.399 . S
C2123 C2124 1.376 . S
C2124 H2111 0.930 . S
C2124 C2123 1.376 . S
C2124 C2125 1.388 . S
C2125 H2112 0.930 . S
C2125 C2124 1.388 . S
C2125 C2126 1.390 . S
C2126 C2125 1.390 . S
C2126 C2127 1.394 . S
C2126 C2132 1.465 . S
C2127 C2122 1.399 . S
C2127 C2126 1.394 . S
C2127 C2128 1.516 . S
C2128 C2127 1.516 . S
C2128 C2129 1.502 . S
C2128 C2130 1.561 . S
C2128 C2131 1.526 . S
C2129 H2113 0.959 . S
C2129 H2114 0.959 . S
C2129 H2115 0.961 . S
C2129 C2128 1.502 . S
C2130 H2116 0.960 . S
C2130 H2117 0.961 . S
C2130 H2118 0.959 . S
C2130 C2128 1.561 . S
C2131 C2128 1.526 . S
C2131 C2132 1.396 . S
C2131 C2136 1.390 . S
C2132 C2126 1.465 . S
C2132 C2131 1.396 . S
C2132 C2133 1.399 . S
C2133 H2119 0.929 . S
C2133 C2132 1.399 . S
C2133 C2134 1.385 . S
C2134 H2120 0.931 . S
C2134 C2133 1.385 . S
C2134 C2135 1.389 . S
C2135 C2134 1.389 . S
C2135 C2136 1.387 . S
C2136 H2121 0.930 . S
C2136 C2131 1.390 . S
C2136 C2135 1.387 . S
H2137 C2149 0.930 . S
H2138 C2151 0.930 . S
H2139 C2152 0.930 . S
H2140 C2156 0.959 . S
H2141 C2156 0.959 . S
H2142 C2156 0.961 . S
H2143 C2157 0.960 . S
H2144 C2157 0.961 . S
H2145 C2157 0.959 . S
H2146 C2160 0.929 . S
H2147 C2161 0.931 . S
H2148 C2163 0.930 . S
C2149 H2137 0.930 . S
C2149 C2150 1.399 . S
C2149 C2154 1.399 . S
C2150 C2149 1.399 . S
C2150 C2151 1.376 . S
C2151 H2138 0.930 . S
C2151 C2150 1.376 . S
C2151 C2152 1.388 . S
C2152 H2139 0.930 . S
C2152 C2151 1.388 . S
C2152 C2153 1.390 . S
C2153 C2152 1.390 . S
C2153 C2154 1.394 . S
C2153 C2159 1.465 . S
C2154 C2149 1.399 . S
C2154 C2153 1.394 . S
C2154 C2155 1.516 . S
C2155 C2154 1.516 . S
C2155 C2156 1.502 . S
C2155 C2157 1.561 . S
C2155 C2158 1.526 . S
C2156 H2140 0.959 . S
C2156 H2141 0.959 . S
C2156 H2142 0.961 . S
C2156 C2155 1.502 . S
C2157 H2143 0.960 . S
C2157 H2144 0.961 . S
C2157 H2145 0.959 . S
C2157 C2155 1.561 . S
C2158 C2155 1.526 . S
C2158 C2159 1.396 . S
C2158 C2163 1.390 . S
C2159 C2153 1.465 . S
C2159 C2158 1.396 . S
C2159 C2160 1.399 . S
C2160 H2146 0.929 . S
C2160 C2159 1.399 . S
C2160 C2161 1.385 . S
C2161 H2147 0.931 . S
C2161 C2160 1.385 . S
C2161 C2162 1.389 . S
C2162 C2161 1.389 . S
C2162 C2163 1.387 . S
C2163 H2148 0.930 . S
C2163 C2158 1.390 . S
C2163 C2162 1.387 . S
H2164 C2176 0.930 . S
H2165 C2178 0.930 . S
H2166 C2179 0.930 . S
H2167 C2183 0.959 . S
H2168 C2183 0.959 . S
H2169 C2183 0.961 . S
H2170 C2184 0.960 . S
H2171 C2184 0.961 . S
H2172 C2184 0.959 . S
H2173 C2187 0.929 . S
H2174 C2188 0.931 . S
H2175 C2190 0.930 . S
C2176 H2164 0.930 . S
C2176 C2177 1.399 . S
C2176 C2181 1.399 . S
C2177 C2176 1.399 . S
C2177 C2178 1.376 . S
C2178 H2165 0.930 . S
C2178 C2177 1.376 . S
C2178 C2179 1.388 . S
C2179 H2166 0.930 . S
C2179 C2178 1.388 . S
C2179 C2180 1.390 . S
C2180 C2179 1.390 . S
C2180 C2181 1.394 . S
C2180 C2186 1.465 . S
C2181 C2176 1.399 . S
C2181 C2180 1.394 . S
C2181 C2182 1.516 . S
C2182 C2181 1.516 . S
C2182 C2183 1.502 . S
C2182 C2184 1.561 . S
C2182 C2185 1.526 . S
C2183 H2167 0.959 . S
C2183 H2168 0.959 . S
C2183 H2169 0.961 . S
C2183 C2182 1.502 . S
C2184 H2170 0.960 . S
C2184 H2171 0.961 . S
C2184 H2172 0.959 . S
C2184 C2182 1.561 . S
C2185 C2182 1.526 . S
C2185 C2186 1.396 . S
C2185 C2190 1.390 . S
C2186 C2180 1.465 . S
C2186 C2185 1.396 . S
C2186 C2187 1.399 . S
C2187 H2173 0.929 . S
C2187 C2186 1.399 . S
C2187 C2188 1.385 . S
C2188 H2174 0.931 . S
C2188 C2187 1.385 . S
C2188 C2189 1.389 . S
C2189 C2188 1.389 . S
C2189 C2190 1.387 . S
C2190 H2175 0.930 . S
C2190 C2185 1.390 . S
C2190 C2189 1.387 . S
H2191 C2203 0.930 . S
H2192 C2205 0.930 . S
H2193 C2206 0.930 . S
H2194 C2210 0.959 . S
H2195 C2210 0.959 . S
H2196 C2210 0.961 . S
H2197 C2211 0.960 . S
H2198 C2211 0.961 . S
H2199 C2211 0.959 . S
H2200 C2214 0.929 . S
H2201 C2215 0.931 . S
H2202 C2217 0.930 . S
C2203 H2191 0.930 . S
C2203 C2204 1.399 . S
C2203 C2208 1.399 . S
C2204 C2203 1.399 . S
C2204 C2205 1.376 . S
C2205 H2192 0.930 . S
C2205 C2204 1.376 . S
C2205 C2206 1.388 . S
C2206 H2193 0.930 . S
C2206 C2205 1.388 . S
C2206 C2207 1.390 . S
C2207 C2206 1.390 . S
C2207 C2208 1.394 . S
C2207 C2213 1.465 . S
C2208 C2203 1.399 . S
C2208 C2207 1.394 . S
C2208 C2209 1.516 . S
C2209 C2208 1.516 . S
C2209 C2210 1.502 . S
C2209 C2211 1.561 . S
C2209 C2212 1.526 . S
C2210 H2194 0.959 . S
C2210 H2195 0.959 . S
C2210 H2196 0.961 . S
C2210 C2209 1.502 . S
C2211 H2197 0.960 . S
C2211 H2198 0.961 . S
C2211 H2199 0.959 . S
C2211 C2209 1.561 . S
C2212 C2209 1.526 . S
C2212 C2213 1.396 . S
C2212 C2217 1.390 . S
C2213 C2207 1.465 . S
C2213 C2212 1.396 . S
C2213 C2214 1.399 . S
C2214 H2200 0.929 . S
C2214 C2213 1.399 . S
C2214 C2215 1.385 . S
C2215 H2201 0.931 . S
C2215 C2214 1.385 . S
C2215 C2216 1.389 . S
C2216 C2215 1.389 . S
C2216 C2217 1.387 . S
C2217 H2202 0.930 . S
C2217 C2212 1.390 . S
C2217 C2216 1.387 . S
H2218 C2230 0.930 . S
H2219 C2232 0.930 . S
H2220 C2233 0.930 . S
H2221 C2237 0.959 . S
H2222 C2237 0.959 . S
H2223 C2237 0.961 . S
H2224 C2238 0.960 . S
H2225 C2238 0.961 . S
H2226 C2238 0.959 . S
H2227 C2241 0.929 . S
H2228 C2242 0.931 . S
H2229 C2244 0.930 . S
C2230 H2218 0.930 . S
C2230 C2231 1.399 . S
C2230 C2235 1.399 . S
C2231 C2230 1.399 . S
C2231 C2232 1.376 . S
C2232 H2219 0.930 . S
C2232 C2231 1.376 . S
C2232 C2233 1.388 . S
C2233 H2220 0.930 . S
C2233 C2232 1.388 . S
C2233 C2234 1.390 . S
C2234 C2233 1.390 . S
C2234 C2235 1.394 . S
C2234 C2240 1.465 . S
C2235 C2230 1.399 . S
C2235 C2234 1.394 . S
C2235 C2236 1.516 . S
C2236 C2235 1.516 . S
C2236 C2237 1.502 . S
C2236 C2238 1.561 . S
C2236 C2239 1.526 . S
C2237 H2221 0.959 . S
C2237 H2222 0.959 . S
C2237 H2223 0.961 . S
C2237 C2236 1.502 . S
C2238 H2224 0.960 . S
C2238 H2225 0.961 . S
C2238 H2226 0.959 . S
C2238 C2236 1.561 . S
C2239 C2236 1.526 . S
C2239 C2240 1.396 . S
C2239 C2244 1.390 . S
C2240 C2234 1.465 . S
C2240 C2239 1.396 . S
C2240 C2241 1.399 . S
C2241 H2227 0.929 . S
C2241 C2240 1.399 . S
C2241 C2242 1.385 . S
C2242 H2228 0.931 . S
C2242 C2241 1.385 . S
C2242 C2243 1.389 . S
C2243 C2242 1.389 . S
C2243 C2244 1.387 . S
C2244 H2229 0.930 . S
C2244 C2239 1.390 . S
C2244 C2243 1.387 . S
H2245 C2257 0.930 . S
H2246 C2259 0.930 . S
H2247 C2260 0.930 . S
H2248 C2264 0.959 . S
H2249 C2264 0.959 . S
H2250 C2264 0.961 . S
H2251 C2265 0.960 . S
H2252 C2265 0.961 . S
H2253 C2265 0.959 . S
H2254 C2268 0.929 . S
H2255 C2269 0.931 . S
H2256 C2271 0.930 . S
C2257 H2245 0.930 . S
C2257 C2258 1.399 . S
C2257 C2262 1.399 . S
C2258 C2257 1.399 . S
C2258 C2259 1.376 . S
C2259 H2246 0.930 . S
C2259 C2258 1.376 . S
C2259 C2260 1.388 . S
C2260 H2247 0.930 . S
C2260 C2259 1.388 . S
C2260 C2261 1.390 . S
C2261 C2260 1.390 . S
C2261 C2262 1.394 . S
C2261 C2267 1.465 . S
C2262 C2257 1.399 . S
C2262 C2261 1.394 . S
C2262 C2263 1.516 . S
C2263 C2262 1.516 . S
C2263 C2264 1.502 . S
C2263 C2265 1.561 . S
C2263 C2266 1.526 . S
C2264 H2248 0.959 . S
C2264 H2249 0.959 . S
C2264 H2250 0.961 . S
C2264 C2263 1.502 . S
C2265 H2251 0.960 . S
C2265 H2252 0.961 . S
C2265 H2253 0.959 . S
C2265 C2263 1.561 . S
C2266 C2263 1.526 . S
C2266 C2267 1.396 . S
C2266 C2271 1.390 . S
C2267 C2261 1.465 . S
C2267 C2266 1.396 . S
C2267 C2268 1.399 . S
C2268 H2254 0.929 . S
C2268 C2267 1.399 . S
C2268 C2269 1.385 . S
C2269 H2255 0.931 . S
C2269 C2268 1.385 . S
C2269 C2270 1.389 . S
C2270 C2269 1.389 . S
C2270 C2271 1.387 . S
C2271 H2256 0.930 . S
C2271 C2266 1.390 . S
C2271 C2270 1.387 . S
C1421 C57 0.501 . S
C1433 C812 0.238 . S
C1448 C929 0.343 . S
C1460 C145 0.502 . S
C1475 C988 0.249 . S
C1487 C225 0.357 . S
C1502 C733 0.308 . S
C1514 C313 0.508 . S
C1529 C381 0.509 . S
C1541 C1377 0.265 . S
C1556 C1105 0.400 . S
C1568 C469 0.473 . S
C1583 C1164 0.464 . S
C1595 C548 0.324 . S
C1610 C1252 0.460 . S
C1622 C636 0.371 . S
C1637 C753 0.486 . S
C1649 C137 0.315 . S
C1664 C849 0.338 . S
C1676 C233 0.192 . S
C1691 C909 0.498 . S
C1703 C321 0.402 . S
C1718 C49 0.461 . S
C1730 C1025 0.403 . S
C1745 C1085 0.452 . S
C1757 C645 0.454 . S
C1772 C1201 0.398 . S
C1784 C372 0.458 . S
C1799 C460 0.331 . S
C1811 C1289 0.221 . S
C1826 C1340 0.485 . S
C1838 C557 0.312 . S
C1853 C724 1.715 . S
C1865 C29 1.797 . S
C1880 C117 1.789 . S
C1892 C821 1.722 . S
C1907 C937 1.720 . S
C1919 C196 1.791 . S
C1934 C284 1.807 1_545 S
C1946 C997 1.711 . S
C1961 C1113 1.710 . S
C1973 C409 1.807 . S
C1988 C497 1.808 . S
C2000 C1173 1.711 . S
C2015 C1261 1.711 . S
C2027 C577 1.790 1_455 S
C2042 C1369 1.738 . S
C2054 C665 1.794 1_545 S
C2069 C401 2.448 . S
C2081 C20 2.386 . S
C2096 C489 2.396 . S
C2108 C108 2.438 . S
C2123 C205 2.387 . S
C2135 C585 2.447 . S
C2150 C673 2.451 . S
C2162 C293 2.383 . S
C2177 C761 2.396 . S
C2189 C1076 2.446 . S
C2204 C1193 2.443 . S
C2216 C841 2.403 . S
C2231 C1281 2.444 . S
C2243 C900 2.401 . S
C2258 C1349 2.441 . S
C2270 C1017 2.407 . S
