# Generated by pormake.
# Topology uky, (4)-cn, num edge types: 1
# Building blocks:
#     Node 0, Type 0, BuildingBlock: QUQFOY_clean_sbu_3, # of connection points: 4
#     Node 1, Type 0, BuildingBlock: QUQFOY_clean_sbu_3, # of connection points: 4
#     Node 2, Type 0, BuildingBlock: QUQFOY_clean_sbu_3, # of connection points: 4
#     Node 3, Type 0, BuildingBlock: QUQFOY_clean_sbu_3, # of connection points: 4
#     Node 4, Type 0, BuildingBlock: QUQFOY_clean_sbu_3, # of connection points: 4
#     Node 5, Type 0, BuildingBlock: QUQFOY_clean_sbu_3, # of connection points: 4
#     Node 6, Type 0, BuildingBlock: QUQFOY_clean_sbu_3, # of connection points: 4
#     Node 7, Type 0, BuildingBlock: QUQFOY_clean_sbu_3, # of connection points: 4
#     Node 8, Type 0, BuildingBlock: QUQFOY_clean_sbu_3, # of connection points: 4
#     Node 9, Type 0, BuildingBlock: QUQFOY_clean_sbu_3, # of connection points: 4
#     Node 10, Type 0, BuildingBlock: QUQFOY_clean_sbu_3, # of connection points: 4
#     Node 11, Type 0, BuildingBlock: QUQFOY_clean_sbu_3, # of connection points: 4
#     Node 12, Type 0, BuildingBlock: QUQFOY_clean_sbu_3, # of connection points: 4
#     Node 13, Type 0, BuildingBlock: QUQFOY_clean_sbu_3, # of connection points: 4
#     Node 14, Type 0, BuildingBlock: QUQFOY_clean_sbu_3, # of connection points: 4
#     Node 15, Type 0, BuildingBlock: QUQFOY_clean_sbu_3, # of connection points: 4
#     Node 16, Type 0, BuildingBlock: QUQFOY_clean_sbu_3, # of connection points: 4
#     Node 17, Type 0, BuildingBlock: QUQFOY_clean_sbu_3, # of connection points: 4
#     Node 18, Type 0, BuildingBlock: QUQFOY_clean_sbu_3, # of connection points: 4
#     Node 19, Type 0, BuildingBlock: QUQFOY_clean_sbu_3, # of connection points: 4
#     Node 20, Type 0, BuildingBlock: QUQFOY_clean_sbu_3, # of connection points: 4
#     Node 21, Type 0, BuildingBlock: QUQFOY_clean_sbu_3, # of connection points: 4
#     Node 22, Type 0, BuildingBlock: QUQFOY_clean_sbu_3, # of connection points: 4
#     Node 23, Type 0, BuildingBlock: QUQFOY_clean_sbu_3, # of connection points: 4
#     Node 24, Type 0, BuildingBlock: QUQFOY_clean_sbu_3, # of connection points: 4
#     Node 25, Type 0, BuildingBlock: QUQFOY_clean_sbu_3, # of connection points: 4
#     Node 26, Type 0, BuildingBlock: QUQFOY_clean_sbu_3, # of connection points: 4
#     Node 27, Type 0, BuildingBlock: QUQFOY_clean_sbu_3, # of connection points: 4
#     Node 28, Type 0, BuildingBlock: QUQFOY_clean_sbu_3, # of connection points: 4
#     Node 29, Type 0, BuildingBlock: QUQFOY_clean_sbu_3, # of connection points: 4
#     Node 30, Type 0, BuildingBlock: QUQFOY_clean_sbu_3, # of connection points: 4
#     Node 31, Type 0, BuildingBlock: QUQFOY_clean_sbu_3, # of connection points: 4
#     Node 32, Type 0, BuildingBlock: QUQFOY_clean_sbu_3, # of connection points: 4
#     Node 33, Type 0, BuildingBlock: QUQFOY_clean_sbu_3, # of connection points: 4
#     Node 34, Type 0, BuildingBlock: QUQFOY_clean_sbu_3, # of connection points: 4
#     Node 35, Type 0, BuildingBlock: QUQFOY_clean_sbu_3, # of connection points: 4
#     Node 36, Type 0, BuildingBlock: QUQFOY_clean_sbu_3, # of connection points: 4
#     Node 37, Type 0, BuildingBlock: QUQFOY_clean_sbu_3, # of connection points: 4
#     Node 38, Type 0, BuildingBlock: QUQFOY_clean_sbu_3, # of connection points: 4
#     Node 39, Type 0, BuildingBlock: QUQFOY_clean_sbu_3, # of connection points: 4
#     Node 40, Type 0, BuildingBlock: QUQFOY_clean_sbu_3, # of connection points: 4
#     Node 41, Type 0, BuildingBlock: QUQFOY_clean_sbu_3, # of connection points: 4
#     Node 42, Type 0, BuildingBlock: QUQFOY_clean_sbu_3, # of connection points: 4
#     Node 43, Type 0, BuildingBlock: QUQFOY_clean_sbu_3, # of connection points: 4
#     Node 44, Type 0, BuildingBlock: QUQFOY_clean_sbu_3, # of connection points: 4
#     Node 45, Type 0, BuildingBlock: QUQFOY_clean_sbu_3, # of connection points: 4
#     Node 46, Type 0, BuildingBlock: QUQFOY_clean_sbu_3, # of connection points: 4
#     Node 47, Type 0, BuildingBlock: QUQFOY_clean_sbu_3, # of connection points: 4
#     Edge 48, Type (0, 0), BuildingBlock: XIVTED_clean_linker_0, # of connection points: 2
#     Edge 49, Type (0, 0), BuildingBlock: XIVTED_clean_linker_0, # of connection points: 2
#     Edge 50, Type (0, 0), BuildingBlock: XIVTED_clean_linker_0, # of connection points: 2
#     Edge 51, Type (0, 0), BuildingBlock: XIVTED_clean_linker_0, # of connection points: 2
#     Edge 52, Type (0, 0), BuildingBlock: XIVTED_clean_linker_0, # of connection points: 2
#     Edge 53, Type (0, 0), BuildingBlock: XIVTED_clean_linker_0, # of connection points: 2
#     Edge 54, Type (0, 0), BuildingBlock: XIVTED_clean_linker_0, # of connection points: 2
#     Edge 55, Type (0, 0), BuildingBlock: XIVTED_clean_linker_0, # of connection points: 2
#     Edge 56, Type (0, 0), BuildingBlock: XIVTED_clean_linker_0, # of connection points: 2
#     Edge 57, Type (0, 0), BuildingBlock: XIVTED_clean_linker_0, # of connection points: 2
#     Edge 58, Type (0, 0), BuildingBlock: XIVTED_clean_linker_0, # of connection points: 2
#     Edge 59, Type (0, 0), BuildingBlock: XIVTED_clean_linker_0, # of connection points: 2
#     Edge 60, Type (0, 0), BuildingBlock: XIVTED_clean_linker_0, # of connection points: 2
#     Edge 61, Type (0, 0), BuildingBlock: XIVTED_clean_linker_0, # of connection points: 2
#     Edge 62, Type (0, 0), BuildingBlock: XIVTED_clean_linker_0, # of connection points: 2
#     Edge 63, Type (0, 0), BuildingBlock: XIVTED_clean_linker_0, # of connection points: 2
#     Edge 64, Type (0, 0), BuildingBlock: XIVTED_clean_linker_0, # of connection points: 2
#     Edge 65, Type (0, 0), BuildingBlock: XIVTED_clean_linker_0, # of connection points: 2
#     Edge 66, Type (0, 0), BuildingBlock: XIVTED_clean_linker_0, # of connection points: 2
#     Edge 67, Type (0, 0), BuildingBlock: XIVTED_clean_linker_0, # of connection points: 2
#     Edge 68, Type (0, 0), BuildingBlock: XIVTED_clean_linker_0, # of connection points: 2
#     Edge 69, Type (0, 0), BuildingBlock: XIVTED_clean_linker_0, # of connection points: 2
#     Edge 70, Type (0, 0), BuildingBlock: XIVTED_clean_linker_0, # of connection points: 2
#     Edge 71, Type (0, 0), BuildingBlock: XIVTED_clean_linker_0, # of connection points: 2
#     Edge 72, Type (0, 0), BuildingBlock: XIVTED_clean_linker_0, # of connection points: 2
#     Edge 73, Type (0, 0), BuildingBlock: XIVTED_clean_linker_0, # of connection points: 2
#     Edge 74, Type (0, 0), BuildingBlock: XIVTED_clean_linker_0, # of connection points: 2
#     Edge 75, Type (0, 0), BuildingBlock: XIVTED_clean_linker_0, # of connection points: 2
#     Edge 76, Type (0, 0), BuildingBlock: XIVTED_clean_linker_0, # of connection points: 2
#     Edge 77, Type (0, 0), BuildingBlock: XIVTED_clean_linker_0, # of connection points: 2
#     Edge 78, Type (0, 0), BuildingBlock: XIVTED_clean_linker_0, # of connection points: 2
#     Edge 79, Type (0, 0), BuildingBlock: XIVTED_clean_linker_0, # of connection points: 2
#     Edge 80, Type (0, 0), BuildingBlock: XIVTED_clean_linker_0, # of connection points: 2
#     Edge 81, Type (0, 0), BuildingBlock: XIVTED_clean_linker_0, # of connection points: 2
#     Edge 82, Type (0, 0), BuildingBlock: XIVTED_clean_linker_0, # of connection points: 2
#     Edge 83, Type (0, 0), BuildingBlock: XIVTED_clean_linker_0, # of connection points: 2
#     Edge 84, Type (0, 0), BuildingBlock: XIVTED_clean_linker_0, # of connection points: 2
#     Edge 85, Type (0, 0), BuildingBlock: XIVTED_clean_linker_0, # of connection points: 2
#     Edge 86, Type (0, 0), BuildingBlock: XIVTED_clean_linker_0, # of connection points: 2
#     Edge 87, Type (0, 0), BuildingBlock: XIVTED_clean_linker_0, # of connection points: 2
#     Edge 88, Type (0, 0), BuildingBlock: XIVTED_clean_linker_0, # of connection points: 2
#     Edge 89, Type (0, 0), BuildingBlock: XIVTED_clean_linker_0, # of connection points: 2
#     Edge 90, Type (0, 0), BuildingBlock: XIVTED_clean_linker_0, # of connection points: 2
#     Edge 91, Type (0, 0), BuildingBlock: XIVTED_clean_linker_0, # of connection points: 2
#     Edge 92, Type (0, 0), BuildingBlock: XIVTED_clean_linker_0, # of connection points: 2
#     Edge 93, Type (0, 0), BuildingBlock: XIVTED_clean_linker_0, # of connection points: 2
#     Edge 94, Type (0, 0), BuildingBlock: XIVTED_clean_linker_0, # of connection points: 2
#     Edge 95, Type (0, 0), BuildingBlock: XIVTED_clean_linker_0, # of connection points: 2
#     Edge 96, Type (0, 0), BuildingBlock: XIVTED_clean_linker_0, # of connection points: 2
#     Edge 97, Type (0, 0), BuildingBlock: XIVTED_clean_linker_0, # of connection points: 2
#     Edge 98, Type (0, 0), BuildingBlock: XIVTED_clean_linker_0, # of connection points: 2
#     Edge 99, Type (0, 0), BuildingBlock: XIVTED_clean_linker_0, # of connection points: 2
#     Edge 100, Type (0, 0), BuildingBlock: XIVTED_clean_linker_0, # of connection points: 2
#     Edge 101, Type (0, 0), BuildingBlock: XIVTED_clean_linker_0, # of connection points: 2
#     Edge 102, Type (0, 0), BuildingBlock: XIVTED_clean_linker_0, # of connection points: 2
#     Edge 103, Type (0, 0), BuildingBlock: XIVTED_clean_linker_0, # of connection points: 2
#     Edge 104, Type (0, 0), BuildingBlock: XIVTED_clean_linker_0, # of connection points: 2
#     Edge 105, Type (0, 0), BuildingBlock: XIVTED_clean_linker_0, # of connection points: 2
#     Edge 106, Type (0, 0), BuildingBlock: XIVTED_clean_linker_0, # of connection points: 2
#     Edge 107, Type (0, 0), BuildingBlock: XIVTED_clean_linker_0, # of connection points: 2
#     Edge 108, Type (0, 0), BuildingBlock: XIVTED_clean_linker_0, # of connection points: 2
#     Edge 109, Type (0, 0), BuildingBlock: XIVTED_clean_linker_0, # of connection points: 2
#     Edge 110, Type (0, 0), BuildingBlock: XIVTED_clean_linker_0, # of connection points: 2
#     Edge 111, Type (0, 0), BuildingBlock: XIVTED_clean_linker_0, # of connection points: 2
#     Edge 112, Type (0, 0), BuildingBlock: XIVTED_clean_linker_0, # of connection points: 2
#     Edge 113, Type (0, 0), BuildingBlock: XIVTED_clean_linker_0, # of connection points: 2
#     Edge 114, Type (0, 0), BuildingBlock: XIVTED_clean_linker_0, # of connection points: 2
#     Edge 115, Type (0, 0), BuildingBlock: XIVTED_clean_linker_0, # of connection points: 2
#     Edge 116, Type (0, 0), BuildingBlock: XIVTED_clean_linker_0, # of connection points: 2
#     Edge 117, Type (0, 0), BuildingBlock: XIVTED_clean_linker_0, # of connection points: 2
#     Edge 118, Type (0, 0), BuildingBlock: XIVTED_clean_linker_0, # of connection points: 2
#     Edge 119, Type (0, 0), BuildingBlock: XIVTED_clean_linker_0, # of connection points: 2
#     Edge 120, Type (0, 0), BuildingBlock: XIVTED_clean_linker_0, # of connection points: 2
#     Edge 121, Type (0, 0), BuildingBlock: XIVTED_clean_linker_0, # of connection points: 2
#     Edge 122, Type (0, 0), BuildingBlock: XIVTED_clean_linker_0, # of connection points: 2
#     Edge 123, Type (0, 0), BuildingBlock: XIVTED_clean_linker_0, # of connection points: 2
#     Edge 124, Type (0, 0), BuildingBlock: XIVTED_clean_linker_0, # of connection points: 2
#     Edge 125, Type (0, 0), BuildingBlock: XIVTED_clean_linker_0, # of connection points: 2
#     Edge 126, Type (0, 0), BuildingBlock: XIVTED_clean_linker_0, # of connection points: 2
#     Edge 127, Type (0, 0), BuildingBlock: XIVTED_clean_linker_0, # of connection points: 2
#     Edge 128, Type (0, 0), BuildingBlock: XIVTED_clean_linker_0, # of connection points: 2
#     Edge 129, Type (0, 0), BuildingBlock: XIVTED_clean_linker_0, # of connection points: 2
#     Edge 130, Type (0, 0), BuildingBlock: XIVTED_clean_linker_0, # of connection points: 2
#     Edge 131, Type (0, 0), BuildingBlock: XIVTED_clean_linker_0, # of connection points: 2
#     Edge 132, Type (0, 0), BuildingBlock: XIVTED_clean_linker_0, # of connection points: 2
#     Edge 133, Type (0, 0), BuildingBlock: XIVTED_clean_linker_0, # of connection points: 2
#     Edge 134, Type (0, 0), BuildingBlock: XIVTED_clean_linker_0, # of connection points: 2
#     Edge 135, Type (0, 0), BuildingBlock: XIVTED_clean_linker_0, # of connection points: 2
#     Edge 136, Type (0, 0), BuildingBlock: XIVTED_clean_linker_0, # of connection points: 2
#     Edge 137, Type (0, 0), BuildingBlock: XIVTED_clean_linker_0, # of connection points: 2
#     Edge 138, Type (0, 0), BuildingBlock: XIVTED_clean_linker_0, # of connection points: 2
#     Edge 139, Type (0, 0), BuildingBlock: XIVTED_clean_linker_0, # of connection points: 2
#     Edge 140, Type (0, 0), BuildingBlock: XIVTED_clean_linker_0, # of connection points: 2
#     Edge 141, Type (0, 0), BuildingBlock: XIVTED_clean_linker_0, # of connection points: 2
#     Edge 142, Type (0, 0), BuildingBlock: XIVTED_clean_linker_0, # of connection points: 2
#     Edge 143, Type (0, 0), BuildingBlock: XIVTED_clean_linker_0, # of connection points: 2
# Relax obj value: 0.325
# Max RMSD: 0.256
# Mean RMSD: 0.256
data_MOF--net-uky--node1-QUQFOY_clean_sbu_3--edge1-XIVTED_clean_linker_0
_symmetry_space_group_name_H-M    P1
_symmetry_Int_Tables_number       1
_symmetry_cell_setting            triclinic
loop_
_symmetry_equiv_pos_as_xyz
'x, y, z'
_cell_length_a     67.631544
_cell_length_b     67.419857
_cell_length_c     67.145534
_cell_angle_alpha  90.171226
_cell_angle_beta   89.665549
_cell_angle_gamma 90.081532
loop_
_atom_site_label
_atom_site_type_symbol
_atom_site_fract_x
_atom_site_fract_y
_atom_site_fract_z
_atom_type_partial_charge
C0 C 0.16754 0.21762 0.3264 0.0
O1 O 0.17887 0.22317 0.34034 0.0
Cd2 Cd 0.19636 0.20008 0.36024 0.0
O3 O 0.16342 0.19926 0.32418 0.0
Cd4 Cd 0.1705 0.16768 0.3428 0.0
C5 C 0.21549 0.17005 0.32285 0.0
O6 O 0.17309 0.17955 0.37724 0.0
O7 O 0.18915 0.15279 0.37044 0.0
O8 O 0.13498 0.16168 0.34178 0.0
C9 C 0.18245 0.1646 0.38355 0.0
O10 O 0.21823 0.18264 0.33677 0.0
C11 C 0.13615 0.14303 0.3395 0.0
O12 O 0.19851 0.16231 0.32021 0.0
O13 O 0.15338 0.13576 0.33761 0.0
C14 C 0.93781 0.91797 0.57352 0.0
O15 O 0.93248 0.93069 0.58645 0.0
Cd16 Cd -0.0459 0.94889 0.6076 0.0
O17 O -0.04407 0.91288 0.57187 0.0
Cd18 Cd -0.0125 0.9205 0.59005 0.0
C19 C -0.01393 -0.03319 0.57142 0.0
O20 O -0.02653 0.92449 0.62347 0.0
O21 O 0.00327 0.93514 0.61972 0.0
O22 O -0.0062 0.88489 0.58917 0.0
C23 C -0.01106 0.93147 0.63139 0.0
O24 O -0.02682 -0.03005 0.58497 0.0
C25 C 0.01227 0.88637 0.58598 0.0
O26 O -0.0067 0.94955 0.56873 0.0
O27 O 0.01909 0.90373 0.58334 0.0
C28 C 0.23081 0.68838 0.82356 0.0
O29 O 0.2176 0.68429 0.83642 0.0
Cd30 Cd 0.20152 0.7075 0.85765 0.0
O31 O 0.23747 0.70605 0.82184 0.0
Cd32 Cd 0.23221 0.73856 0.8398 0.0
C33 C 0.18593 0.74013 0.82136 0.0
O34 O 0.22809 0.72448 0.87288 0.0
O35 O 0.21923 0.75496 0.87038 0.0
O36 O 0.26806 0.74295 0.8382 0.0
C37 C 0.22247 0.74019 0.88151 0.0
O38 O 0.18182 0.72774 0.83507 0.0
C39 C 0.26754 0.76153 0.83523 0.0
O40 O 0.20365 0.74603 0.8186 0.0
O41 O 0.25058 0.76925 0.83301 0.0
C42 C 0.46707 -0.02228 0.07325 0.0
O43 O 0.47117 -0.03606 0.08539 0.0
Cd44 Cd 0.44793 0.94753 0.10644 0.0
O45 O 0.44959 -0.01521 0.07239 0.0
Cd46 Cd 0.41757 -0.02016 0.091 0.0
C47 C 0.41382 0.93424 0.07058 0.0
O48 O 0.43159 -0.02659 0.12365 0.0
O49 O 0.40074 -0.03397 0.1208 0.0
O50 O 0.41623 0.01544 0.09444 0.0
C51 C 0.41563 -0.03188 0.13201 0.0
O52 O 0.42645 0.92941 0.0837 0.0
C53 C 0.39807 0.01741 0.09025 0.0
O54 O 0.4084 -0.04776 0.06863 0.0
O55 O 0.38896 0.00186 0.08467 0.0
C56 C 0.17272 0.6855 0.08352 0.0
O57 O 0.18639 0.68124 0.07119 0.0
Cd58 Cd 0.20358 0.70463 0.05094 0.0
O59 O 0.16599 0.70316 0.08471 0.0
Cd60 Cd 0.17123 0.73535 0.06659 0.0
C61 C 0.21596 0.73811 0.08811 0.0
O62 O 0.17876 0.72204 0.03369 0.0
O63 O 0.18627 0.75283 0.03793 0.0
O64 O 0.13592 0.73663 0.06217 0.0
C65 C 0.18461 0.73821 0.02613 0.0
O66 O 0.22095 0.72545 0.07489 0.0
C67 C 0.13371 0.75474 0.06687 0.0
O68 O 0.1981 0.74399 0.08966 0.0
O69 O 0.14895 0.76383 0.07317 0.0
C70 C 0.46472 0.92547 0.33608 0.0
O71 O 0.46923 0.939 0.32373 0.0
Cd72 Cd 0.44626 -0.04424 0.30295 0.0
O73 O 0.44706 0.91883 0.33714 0.0
Cd74 Cd 0.41523 0.92393 0.31875 0.0
C75 C 0.41226 -0.03055 0.33924 0.0
O76 O 0.42937 0.93015 0.28593 0.0
O77 O 0.39857 0.93766 0.28907 0.0
O78 O 0.41392 0.88827 0.31622 0.0
C79 C 0.41348 0.93558 0.27773 0.0
O80 O 0.42512 -0.02593 0.3261 0.0
C81 C 0.3957 0.88637 0.3204 0.0
O82 O 0.40637 0.95158 0.34111 0.0
O83 O 0.38647 0.90207 0.32535 0.0
C84 C 0.2338 0.21561 0.58411 0.0
O85 O 0.22199 0.22075 0.57047 0.0
Cd86 Cd 0.20455 0.19741 0.5507 0.0
O87 O 0.23826 0.19738 0.58642 0.0
Cd88 Cd 0.23083 0.16548 0.56826 0.0
C89 C 0.18569 0.16752 0.58808 0.0
O90 O 0.22845 0.17736 0.53396 0.0
O91 O 0.21255 0.1504 0.54018 0.0
O92 O 0.26621 0.15877 0.56904 0.0
C93 C 0.21931 0.16238 0.52731 0.0
O94 O 0.18269 0.17987 0.57409 0.0
C95 C 0.2646 0.14028 0.57214 0.0
O96 O 0.20281 0.1602 0.59072 0.0
O97 O 0.24721 0.13352 0.57454 0.0
C98 C 0.93968 -0.01248 0.83255 0.0
O99 O 0.93402 -0.02471 0.81934 0.0
Cd100 Cd -0.04462 -0.04364 0.79843 0.0
O101 O -0.04202 -0.00823 0.83446 0.0
Cd102 Cd -0.01033 -0.01639 0.81634 0.0
C103 C -0.01382 0.93743 0.83495 0.0
O104 O -0.02415 -0.01973 0.78295 0.0
O105 O 0.00534 -0.03108 0.78647 0.0
O106 O -0.00384 0.01912 0.81847 0.0
C107 C -0.00883 -0.02706 0.77491 0.0
O108 O -0.02679 0.9349 0.82147 0.0
C109 C 0.01469 0.01753 0.82079 0.0
O110 O -0.00571 -0.04568 0.83753 0.0
O111 O 0.02157 7e-05 0.82231 0.0
C112 C 0.32086 0.17898 0.22002 0.0
O113 O 0.33282 0.19305 0.22369 0.0
Cd114 Cd 0.35352 0.20901 0.1998 0.0
O115 O 0.32007 0.17125 0.20265 0.0
Cd116 Cd 0.33851 0.17518 0.17023 0.0
C117 C 0.31756 0.22017 0.16513 0.0
O118 O 0.37084 0.18292 0.184 0.0
O119 O 0.36774 0.18903 0.15272 0.0
O120 O 0.34223 0.13956 0.16979 0.0
C121 C 0.37895 0.18792 0.16775 0.0
O122 O 0.33054 0.22575 0.17763 0.0
C123 C 0.33798 0.13701 0.15158 0.0
O124 O 0.31588 0.20195 0.16025 0.0
O125 O 0.33235 0.15224 0.14203 0.0
C126 C -0.01915 0.07257 0.47003 0.0
O127 O -0.0319 0.08548 0.47507 0.0
Cd128 Cd -0.04888 0.10682 0.45278 0.0
O129 O -0.01329 0.07116 0.45196 0.0
Cd130 Cd -0.01932 0.08952 0.41998 0.0
C131 C 0.93451 0.0706 0.42025 0.0
O132 O -0.02377 0.12271 0.43403 0.0
O133 O -0.03342 0.11909 0.40376 0.0
O134 O 0.01644 0.08888 0.41485 0.0
C135 C -0.0302 0.13065 0.4183 0.0
O136 O 0.93091 0.08413 0.43306 0.0
C137 C 0.01574 0.08568 0.39622 0.0
O138 O -0.04804 0.06806 0.41342 0.0
O139 O -0.00128 0.08294 0.38877 0.0
C140 C 0.08294 0.73398 0.71832 0.0
O141 O 0.07019 0.72108 0.72342 0.0
Cd142 Cd 0.0488 0.70387 0.70129 0.0
O143 O 0.08427 0.73972 0.70025 0.0
Cd144 Cd 0.06576 0.73314 0.6684 0.0
C145 C 0.08431 0.6868 0.66815 0.0
O146 O 0.03288 0.72931 0.68322 0.0
O147 O 0.03563 0.71937 0.65287 0.0
O148 O 0.0678 0.76889 0.66293 0.0
C149 C 0.02448 0.72295 0.66767 0.0
O150 O 0.07104 0.68327 0.68122 0.0
C151 C 0.06999 0.76772 0.64417 0.0
O152 O 0.08678 0.70426 0.66135 0.0
O153 O 0.07144 0.75044 0.63675 0.0
C154 C 0.41853 0.83083 -0.03271 0.0
O155 O 0.43021 0.81728 -0.02709 0.0
Cd156 Cd 0.44813 0.7974 0.94983 0.0
O157 O 0.41445 0.83277 0.94887 0.0
Cd158 Cd 0.42223 0.81391 0.9173 0.0
C159 C 0.46703 0.83415 0.91919 0.0
O160 O 0.42482 0.7799 0.92985 0.0
O161 O 0.44093 0.78583 0.90277 0.0
O162 O 0.38677 0.81503 0.91116 0.0
C163 C 0.43414 0.77314 0.91492 0.0
O164 O 0.46996 0.82054 0.93196 0.0
C165 C 0.38813 0.81687 0.89241 0.0
O166 O 0.45001 0.83649 0.91154 0.0
O167 O 0.40544 0.8184 0.88512 0.0
C168 C 0.31781 0.72807 0.19174 0.0
O169 O 0.32969 0.71429 0.18685 0.0
Cd170 Cd 0.35112 0.69734 0.20918 0.0
O171 O 0.31748 0.73479 0.20953 0.0
Cd172 Cd 0.33635 0.72912 0.24102 0.0
C173 C 0.31598 0.68359 0.2441 0.0
O174 O 0.36869 0.72244 0.22626 0.0
O175 O 0.3657 0.71476 0.25726 0.0
O176 O 0.33997 0.76464 0.24286 0.0
C177 C 0.37686 0.71671 0.24215 0.0
O178 O 0.32886 0.67893 0.231 0.0
C179 C 0.33564 0.76646 0.26118 0.0
O180 O 0.31409 0.70149 0.24999 0.0
O181 O 0.33008 0.75084 0.27021 0.0
C182 C 0.4179 0.07344 0.44193 0.0
O183 O 0.43022 0.08669 0.43667 0.0
Cd184 Cd 0.44748 0.10793 0.45898 0.0
O185 O 0.41281 0.07158 0.46018 0.0
Cd186 Cd 0.4194 0.0896 0.49236 0.0
C187 C 0.46593 0.07192 0.49055 0.0
O188 O 0.42212 0.12284 0.47832 0.0
O189 O 0.43242 0.11998 0.50842 0.0
O190 O 0.38389 0.08623 0.49772 0.0
C191 C 0.42843 0.13124 0.49392 0.0
O192 O 0.46881 0.08549 0.47768 0.0
C193 C 0.38488 0.08389 0.51644 0.0
O194 O 0.44879 0.06904 0.49799 0.0
O195 O 0.40206 0.08302 0.52394 0.0
C196 C 0.08027 0.17444 0.69073 0.0
O197 O 0.06749 0.18748 0.68638 0.0
Cd198 Cd 0.04639 0.20398 0.7095 0.0
O199 O 0.08188 0.16815 0.70858 0.0
Cd200 Cd 0.06406 0.17386 0.74117 0.0
C201 C 0.08261 0.22034 0.74178 0.0
O202 O 0.03104 0.1778 0.72725 0.0
O203 O 0.03396 0.18687 0.75781 0.0
O204 O 0.06632 0.13801 0.74614 0.0
C205 C 0.02272 0.18364 0.74313 0.0
O206 O 0.06902 0.2242 0.72932 0.0
C207 C 0.0691 0.13902 0.7648 0.0
O208 O 0.08518 0.20271 0.74804 0.0
O209 O 0.07075 0.15624 0.77232 0.0
C210 C -0.024 0.8307 0.93554 0.0
O211 O -0.03753 0.81831 0.93136 0.0
Cd212 Cd 0.94592 0.7977 -0.04504 0.0
O213 O -0.01713 0.83183 0.95318 0.0
Cd214 Cd -0.02185 0.81363 -0.01451 0.0
C215 C 0.93303 0.8343 -0.01105 0.0
O216 O -0.02877 0.78078 -0.02802 0.0
O217 O -0.03613 0.78469 0.003 0.0
O218 O 0.01363 0.81031 -0.0136 0.0
C219 C -0.03435 0.77306 -0.01177 0.0
O220 O 0.92818 0.82103 -0.02367 0.0
C221 C 0.01574 0.81475 0.00465 0.0
O222 O 0.95093 0.83624 -0.0055 0.0
O223 O 0.0003 0.82029 0.01402 0.0
C224 C 0.21278 0.32013 0.17114 0.0
O225 O 0.21798 0.33279 0.18413 0.0
Cd226 Cd 0.19622 0.35389 0.20236 0.0
O227 O 0.19474 0.31872 0.1658 0.0
Cd228 Cd 0.16321 0.33715 0.17339 0.0
C229 C 0.1637 0.31815 0.21976 0.0
O230 O 0.17752 0.37023 0.1777 0.0
O231 O 0.14759 0.36686 0.18819 0.0
O232 O 0.15753 0.33669 0.13753 0.0
C233 C 0.16203 0.3783 0.18456 0.0
O234 O 0.17662 0.33149 0.22315 0.0
C235 C 0.13898 0.33404 0.13872 0.0
O236 O 0.15677 0.31565 0.20231 0.0
O237 O 0.13179 0.33143 0.15604 0.0
C238 C 0.71683 0.08091 0.73534 0.0
O239 O 0.72179 0.06781 0.72265 0.0
Cd240 Cd 0.69967 0.04649 0.70543 0.0
O241 O 0.69883 0.08264 0.74097 0.0
Cd242 Cd 0.66698 0.0643 0.73436 0.0
C243 C 0.668 0.08251 0.68768 0.0
O244 O 0.68097 0.03111 0.73097 0.0
O245 O 0.65122 0.03425 0.72032 0.0
O246 O 0.66073 0.06571 0.7702 0.0
C247 C 0.6655 0.02286 0.72444 0.0
O248 O 0.68068 0.06891 0.68437 0.0
C249 C 0.64223 0.06846 0.7688 0.0
O250 O 0.66098 0.08526 0.70512 0.0
O251 O 0.6354 0.07076 0.75138 0.0
C252 C 0.07192 0.46786 -0.01557 0.0
O253 O 0.08464 0.47257 -0.02871 0.0
Cd254 Cd 0.10544 0.44988 0.95397 0.0
O255 O 0.07035 0.44993 -0.00962 0.0
Cd256 Cd 0.08829 0.41775 -0.01606 0.0
C257 C 0.06909 0.41758 0.93771 0.0
O258 O 0.12126 0.43195 -0.02037 0.0
O259 O 0.11823 0.40166 -0.02998 0.0
O260 O 0.08633 0.41266 0.01994 0.0
C261 C 0.12951 0.41628 -0.0266 0.0
O262 O 0.0825 0.43031 0.93383 0.0
C263 C 0.08392 0.39401 0.01896 0.0
O264 O 0.06684 0.4109 -0.04469 0.0
O265 O 0.08233 0.38648 0.00168 0.0
C266 C 0.68539 0.82101 0.22864 0.0
O267 O 0.68171 0.83281 0.21443 0.0
Cd268 Cd 0.70533 0.8533 0.198 0.0
O269 O 0.70268 0.82014 0.23614 0.0
Cd270 Cd 0.73487 0.83839 0.23133 0.0
C271 C 0.73984 0.81735 0.18596 0.0
O272 O 0.72068 0.8707 0.22432 0.0
O273 O 0.75174 0.8682 0.21764 0.0
O274 O 0.73598 0.84212 0.26709 0.0
C275 C 0.73663 0.8792 0.21935 0.0
O276 O 0.72726 0.83028 0.18058 0.0
C277 C 0.75408 0.83769 0.26911 0.0
O278 O 0.74483 0.81581 0.20417 0.0
O279 O 0.76323 0.83192 0.25355 0.0
C280 C 0.83347 0.93944 -0.02086 0.0
O281 O 0.82203 0.93489 -0.0351 0.0
Cd282 Cd 0.80152 -0.04253 0.94732 0.0
O283 O 0.83381 -0.04292 -0.01389 0.0
Cd284 Cd 0.81491 -0.01141 -0.01967 0.0
C285 C 0.83687 -0.00724 0.93542 0.0
O286 O 0.78308 -0.02633 -0.02752 0.0
O287 O 0.78563 0.00472 -0.03457 0.0
O288 O 0.80978 -0.01005 0.01585 0.0
C289 C 0.77474 -0.01055 -0.03315 0.0
O290 O 0.8244 -0.02038 0.93011 0.0
C291 C 0.81393 0.00817 0.01809 0.0
O292 O 0.83796 -0.00162 0.95353 0.0
O293 O 0.82018 0.01736 0.00277 0.0
C294 C 0.18498 0.5814 0.67333 0.0
O295 O 0.18023 0.5687 0.68644 0.0
Cd296 Cd 0.20271 0.54787 0.70364 0.0
O297 O 0.20288 0.58295 0.66732 0.0
Cd298 Cd 0.23487 0.56498 0.67361 0.0
C299 C 0.23491 0.58429 0.71994 0.0
O300 O 0.22084 0.53187 0.67793 0.0
O301 O 0.25099 0.53516 0.6874 0.0
O302 O 0.24051 0.56663 0.63767 0.0
C303 C 0.23647 0.52374 0.68413 0.0
O304 O 0.2222 0.57087 0.72386 0.0
C305 C 0.25903 0.56948 0.63884 0.0
O306 O 0.24156 0.58649 0.70229 0.0
O307 O 0.26617 0.57143 0.65618 0.0
C308 C 0.07238 0.43495 0.42434 0.0
O309 O 0.08488 0.43043 0.4376 0.0
Cd310 Cd 0.10525 0.45342 0.45498 0.0
O311 O 0.07085 0.45281 0.41825 0.0
Cd312 Cd 0.08849 0.4851 0.42467 0.0
C313 C 0.06848 0.48551 0.47077 0.0
O314 O 0.12163 0.47157 0.4296 0.0
O315 O 0.11772 0.50187 0.43892 0.0
O316 O 0.08813 0.49027 0.38867 0.0
C317 C 0.12939 0.48748 0.43586 0.0
O318 O 0.08193 0.47298 0.47488 0.0
C319 C 0.08462 0.50875 0.38961 0.0
O320 O 0.06645 0.49192 0.45306 0.0
O321 O 0.08167 0.51604 0.40684 0.0
C322 C 0.3315 0.46619 0.92637 0.0
O323 O 0.31907 0.4705 0.93995 0.0
Cd324 Cd 0.2985 0.44739 -0.04314 0.0
O325 O 0.33279 0.44847 0.91965 0.0
Cd326 Cd 0.31452 0.41624 0.92527 0.0
C327 C 0.33499 0.41443 -0.02912 0.0
O328 O 0.2818 0.43055 0.93087 0.0
O329 O 0.28475 0.39997 0.93936 0.0
O330 O 0.31541 0.4118 0.88909 0.0
C331 C 0.27352 0.41474 0.9367 0.0
O332 O 0.32188 0.42718 -0.02436 0.0
C333 C 0.31773 0.39312 0.88961 0.0
O334 O 0.33654 0.40824 0.953 0.0
O335 O 0.31983 0.38534 0.90666 0.0
C336 C 0.66698 0.71603 0.82618 0.0
O337 O 0.67829 0.72161 0.84012 0.0
Cd338 Cd 0.69625 0.69853 0.85959 0.0
O339 O 0.66321 0.69765 0.82367 0.0
Cd340 Cd 0.67072 0.66594 0.84186 0.0
C341 C 0.71576 0.6689 0.82201 0.0
O342 O 0.67291 0.67783 0.87629 0.0
O343 O 0.68897 0.651 0.86984 0.0
O344 O 0.63526 0.65991 0.84024 0.0
C345 C 0.68216 0.66291 0.88281 0.0
O346 O 0.71834 0.68151 0.83595 0.0
C347 C 0.63646 0.64129 0.83785 0.0
O348 O 0.69888 0.66095 0.81939 0.0
O349 O 0.65372 0.63401 0.83627 0.0
C350 C 0.43968 0.41963 0.07232 0.0
O351 O 0.43461 0.43262 0.08509 0.0
Cd352 Cd 0.45657 0.45015 0.1064 0.0
O353 O 0.45766 0.41399 0.07091 0.0
Cd354 Cd 0.48939 0.42094 0.08912 0.0
C355 C 0.48897 0.4672 0.07021 0.0
O356 O 0.47508 0.4251 0.12237 0.0
O357 O 0.50511 0.43517 0.11902 0.0
O358 O 0.4952 0.3852 0.08761 0.0
C359 C 0.4906 0.43169 0.13051 0.0
O360 O 0.47612 0.47072 0.08371 0.0
C361 C 0.51377 0.38652 0.08504 0.0
O362 O 0.49584 0.44977 0.06772 0.0
O363 O 0.52089 0.40385 0.08305 0.0
C364 C 0.73269 0.19238 0.32246 0.0
O365 O 0.71978 0.18742 0.33533 0.0
Cd366 Cd 0.70254 0.20966 0.35675 0.0
O367 O 0.73833 0.21041 0.32093 0.0
Cd368 Cd 0.73151 0.24235 0.33929 0.0
C369 C 0.68524 0.24196 0.32093 0.0
O370 O 0.72808 0.22789 0.37241 0.0
O371 O 0.71801 0.258 0.36991 0.0
O372 O 0.76712 0.24792 0.33685 0.0
C373 C 0.72184 0.24338 0.38104 0.0
O374 O 0.68179 0.22917 0.33445 0.0
C375 C 0.76596 0.26659 0.33474 0.0
O376 O 0.70263 0.24878 0.31823 0.0
O377 O 0.74872 0.27391 0.33343 0.0
C378 C -0.03549 0.48041 0.5743 0.0
O379 O -0.03118 0.46696 0.58673 0.0
Cd380 Cd 0.94609 0.45002 0.60774 0.0
O381 O 0.94683 0.48694 0.57303 0.0
Cd382 Cd 0.91474 0.48095 0.59149 0.0
C383 C 0.91309 0.43505 0.57149 0.0
O384 O 0.92906 0.47587 0.62434 0.0
O385 O 0.89873 0.46673 0.62154 0.0
O386 O 0.91013 0.51694 0.59142 0.0
C387 C 0.91343 0.46978 0.63276 0.0
O388 O 0.92563 0.43072 0.58488 0.0
C389 C 0.89154 0.51633 0.58901 0.0
O390 O 0.90712 0.45284 0.56934 0.0
O391 O 0.88388 0.49933 0.58631 0.0
C392 C 0.6768 0.18632 0.58442 0.0
O393 O 0.6907 0.18236 0.57226 0.0
Cd394 Cd 0.70711 0.20603 0.55167 0.0
O395 O 0.66954 0.20377 0.58539 0.0
Cd396 Cd 0.67403 0.23598 0.56708 0.0
C397 C 0.71886 0.24036 0.58825 0.0
O398 O 0.68159 0.22228 0.53429 0.0
O399 O 0.68814 0.25336 0.53785 0.0
O400 O 0.63856 0.23621 0.5635 0.0
C401 C 0.68681 0.23848 0.52634 0.0
O402 O 0.72412 0.22775 0.57509 0.0
C403 C 0.63598 0.25438 0.56771 0.0
O404 O 0.70082 0.24563 0.58997 0.0
O405 O 0.65114 0.26407 0.57327 0.0
C406 C -0.03419 0.42286 0.83442 0.0
O407 O -0.03001 0.43607 0.82163 0.0
Cd408 Cd 0.94675 0.45248 0.80099 0.0
O409 O 0.94814 0.41633 0.83621 0.0
Cd410 Cd 0.91577 0.42172 0.81857 0.0
C411 C 0.91435 0.46781 0.83797 0.0
O412 O 0.9294 0.42635 0.78515 0.0
O413 O 0.89903 0.4351 0.78883 0.0
O414 O 0.91147 0.38576 0.82025 0.0
C415 C 0.91352 0.43212 0.77717 0.0
O416 O 0.92676 0.47204 0.82428 0.0
C417 C 0.89289 0.3863 0.82301 0.0
O418 O 0.90833 0.45005 0.84035 0.0
O419 O 0.88508 0.40332 0.82497 0.0
C420 C 0.73716 0.71423 0.08297 0.0
O421 O 0.72583 0.71986 0.06912 0.0
Cd422 Cd 0.7074 0.69709 0.04963 0.0
O423 O 0.74063 0.6958 0.08549 0.0
Cd424 Cd 0.7322 0.66421 0.0672 0.0
C425 C 0.68719 0.66782 0.08691 0.0
O426 O 0.73051 0.67617 0.03284 0.0
O427 O 0.71356 0.64985 0.03898 0.0
O428 O 0.76736 0.65666 0.06889 0.0
C429 C 0.72086 0.66154 0.02614 0.0
O430 O 0.68478 0.68042 0.07302 0.0
C431 C 0.76525 0.63812 0.07124 0.0
O432 O 0.70396 0.65973 0.08954 0.0
O433 O 0.74766 0.63166 0.07279 0.0
C434 C 0.43653 0.48326 0.33254 0.0
O435 O 0.43172 0.47023 0.31975 0.0
Cd436 Cd 0.45408 0.45291 0.29851 0.0
O437 O 0.45445 0.48908 0.334 0.0
Cd438 Cd 0.4865 0.48252 0.31584 0.0
C439 C 0.48625 0.4363 0.33477 0.0
O440 O 0.47254 0.47821 0.28264 0.0
O441 O 0.50262 0.46847 0.28587 0.0
O442 O 0.49145 0.51837 0.31758 0.0
C443 C 0.48816 0.47178 0.27444 0.0
O444 O 0.4736 0.4327 0.32124 0.0
C445 C 0.51007 0.51758 0.31971 0.0
O446 O 0.49297 0.45379 0.33735 0.0
O447 O 0.51767 0.50045 0.32135 0.0
C448 C 0.82283 0.67569 0.72054 0.0
O449 O 0.83548 0.68896 0.72478 0.0
Cd450 Cd 0.85672 0.70503 0.70152 0.0
O451 O 0.82159 0.66885 0.70282 0.0
Cd452 Cd 0.84002 0.67377 0.67043 0.0
C453 C 0.8207 0.71975 0.66837 0.0
O454 O 0.87294 0.67893 0.68438 0.0
O455 O 0.86967 0.68748 0.65374 0.0
O456 O 0.83882 0.63769 0.6665 0.0
C457 C 0.88105 0.68474 0.66839 0.0
O458 O 0.83413 0.72419 0.68085 0.0
C459 C 0.83652 0.63792 0.64775 0.0
O460 O 0.81835 0.70189 0.66254 0.0
O461 O 0.83457 0.6548 0.63966 0.0
C462 C 0.48357 0.57298 -0.03085 0.0
O463 O 0.47158 0.58654 -0.02573 0.0
Cd464 Cd 0.45437 0.60597 0.9506 0.0
O465 O 0.48831 0.57066 0.95087 0.0
Cd466 Cd 0.48134 0.58865 0.91883 0.0
C467 C 0.4364 0.56852 0.9203 0.0
O468 O 0.47837 0.62287 0.93077 0.0
O469 O 0.46307 0.61644 0.90348 0.0
O470 O 0.51691 0.58826 0.91277 0.0
C471 C 0.46951 0.62936 0.91558 0.0
O472 O 0.43305 0.58246 0.93273 0.0
C473 C 0.51586 0.58507 0.89418 0.0
O474 O 0.45367 0.566 0.91308 0.0
O475 O 0.49869 0.58241 0.88706 0.0
C476 C 0.58076 0.23561 0.21909 0.0
O477 O 0.56754 0.22331 0.22447 0.0
Cd478 Cd 0.54613 0.20588 0.20256 0.0
O479 O 0.58249 0.24064 0.20083 0.0
Cd480 Cd 0.56426 0.2335 0.16895 0.0
C481 C 0.58203 0.1869 0.17093 0.0
O482 O 0.53106 0.23093 0.1832 0.0
O483 O 0.53422 0.21959 0.15338 0.0
O484 O 0.56684 0.269 0.16225 0.0
C485 C 0.52285 0.22412 0.16774 0.0
O486 O 0.56847 0.18413 0.18389 0.0
C487 C 0.56933 0.26714 0.14359 0.0
O488 O 0.58483 0.204 0.16337 0.0
O489 O 0.57079 0.24959 0.13683 0.0
C490 C 0.91903 0.33243 0.46698 0.0
O491 O 0.93166 0.31952 0.47209 0.0
Cd492 Cd 0.94913 0.2981 0.44996 0.0
O493 O 0.91367 0.33393 0.44883 0.0
Cd494 Cd 0.92063 0.31551 0.41682 0.0
C495 C -0.03298 0.33384 0.41762 0.0
O496 O 0.92408 0.28239 0.43112 0.0
O497 O 0.93436 0.28538 0.40091 0.0
O498 O 0.88512 0.31768 0.41076 0.0
C499 C 0.93064 0.27409 0.4155 0.0
O500 O -0.02981 0.32046 0.43057 0.0
C501 C 0.88668 0.32023 0.3921 0.0
O502 O 0.94977 0.33641 0.41055 0.0
O503 O 0.90407 0.32179 0.38503 0.0
C504 C 0.82107 0.23434 0.69098 0.0
O505 O 0.83361 0.22139 0.68552 0.0
Cd506 Cd 0.85423 0.20303 0.70734 0.0
O507 O 0.8197 0.23958 0.70922 0.0
Cd508 Cd 0.83815 0.23197 0.74079 0.0
C509 C 0.81823 0.1862 0.74003 0.0
O510 O 0.87108 0.22744 0.72619 0.0
O511 O 0.86761 0.21696 0.75624 0.0
O512 O 0.83792 0.26765 0.747 0.0
C513 C 0.87907 0.22056 0.7417 0.0
O514 O 0.83139 0.18259 0.72686 0.0
C515 C 0.83519 0.26634 0.76567 0.0
O516 O 0.81625 0.20358 0.74726 0.0
O517 O 0.83252 0.24905 0.77267 0.0
C518 C 0.91999 0.57116 0.94178 0.0
O519 O 0.93279 0.58412 0.93701 0.0
Cd520 Cd 0.94965 0.60521 -0.0403 0.0
O521 O 0.9142 0.56935 -0.04017 0.0
Cd522 Cd 0.92037 0.58716 -0.00773 0.0
C523 C -0.03318 0.56905 -0.00826 0.0
O524 O 0.92363 0.62021 -0.02196 0.0
O525 O 0.93317 0.6177 0.00841 0.0
O526 O 0.88475 0.5843 -0.00231 0.0
C527 C 0.92955 0.62879 -0.00632 0.0
O528 O -0.02972 0.58259 -0.02102 0.0
C529 C 0.88581 0.58172 0.01637 0.0
O530 O 0.94943 0.56639 -0.00137 0.0
O531 O 0.90301 0.58044 0.02374 0.0
C532 C 0.57931 0.67332 0.18754 0.0
O533 O 0.56634 0.68612 0.18304 0.0
Cd534 Cd 0.54496 0.70241 0.20601 0.0
O535 O 0.58082 0.66707 0.20542 0.0
Cd536 Cd 0.56241 0.67258 0.23775 0.0
C537 C 0.58106 0.71897 0.23831 0.0
O538 O 0.52942 0.67633 0.22377 0.0
O539 O 0.53241 0.68611 0.25412 0.0
O540 O 0.56371 0.63673 0.24304 0.0
C541 C 0.52112 0.68238 0.23958 0.0
O542 O 0.56755 0.72275 0.22574 0.0
C543 C 0.56663 0.63781 0.26167 0.0
O544 O 0.58353 0.70139 0.24476 0.0
O545 O 0.56899 0.65505 0.26898 0.0
C546 C 0.47764 0.3333 0.43844 0.0
O547 O 0.46357 0.32156 0.43422 0.0
Cd548 Cd 0.44617 0.30142 0.45759 0.0
O549 O 0.48464 0.33398 0.45605 0.0
Cd550 Cd 0.47919 0.31553 0.48814 0.0
C551 C 0.43487 0.33801 0.49211 0.0
O552 O 0.4709 0.28322 0.47415 0.0
O553 O 0.4639 0.28683 0.50529 0.0
O554 O 0.5144 0.31004 0.48918 0.0
C555 C 0.46517 0.2754 0.4903 0.0
O556 O 0.42944 0.32519 0.47927 0.0
C557 C 0.51679 0.31472 0.50733 0.0
O558 O 0.45284 0.33902 0.49767 0.0
O559 O 0.50174 0.32143 0.51657 0.0
C560 C 0.7158 0.82049 0.67632 0.0
O561 O 0.72017 0.83262 0.69012 0.0
Cd562 Cd 0.69736 0.85325 0.70762 0.0
O563 O 0.69816 0.81944 0.6697 0.0
Cd564 Cd 0.66627 0.8378 0.67564 0.0
C565 C 0.66338 0.81723 0.72125 0.0
O566 O 0.68028 0.87041 0.68244 0.0
O567 O 0.64958 0.86704 0.69042 0.0
O568 O 0.6639 0.84154 0.63996 0.0
C569 C 0.66439 0.87841 0.68837 0.0
O570 O 0.67621 0.83025 0.72593 0.0
C571 C 0.64573 0.83704 0.63855 0.0
O572 O 0.65753 0.81541 0.70331 0.0
O573 O 0.63714 0.83125 0.65441 0.0
C574 C 0.2136 0.58085 0.23581 0.0
O575 O 0.21913 0.56817 0.22292 0.0
Cd576 Cd 0.19758 0.54684 0.20484 0.0
O577 O 0.19546 0.58206 0.24105 0.0
Cd578 Cd 0.16406 0.56345 0.23368 0.0
C579 C 0.16516 0.58243 0.18737 0.0
O580 O 0.17865 0.53049 0.22961 0.0
O581 O 0.14873 0.53346 0.21933 0.0
O582 O 0.15862 0.56524 0.26956 0.0
C583 C 0.16326 0.5222 0.22289 0.0
O584 O 0.17822 0.56921 0.18406 0.0
C585 C 0.13998 0.56708 0.26863 0.0
O586 O 0.15786 0.58483 0.20476 0.0
O587 O 0.13252 0.56847 0.25138 0.0
C588 C 0.57045 -0.03036 0.4822 0.0
O589 O 0.58306 -0.02599 0.46882 0.0
Cd590 Cd 0.60427 0.95089 0.45246 0.0
O591 O 0.56926 0.95198 0.48894 0.0
Cd592 Cd 0.58762 0.91989 0.48397 0.0
C593 C 0.56842 0.91727 0.43787 0.0
O594 O 0.6204 0.93386 0.47843 0.0
O595 O 0.61729 0.90311 0.47025 0.0
O596 O 0.58922 0.91785 0.51986 0.0
C597 C 0.62859 0.91791 0.47283 0.0
O598 O 0.58174 0.92994 0.43348 0.0
C599 C 0.58518 0.89951 0.52117 0.0
O600 O 0.56604 0.91143 0.45577 0.0
O601 O 0.58067 0.89064 0.50508 0.0
C602 C 0.18705 0.32223 0.73407 0.0
O603 O 0.18255 0.33463 0.72065 0.0
Cd604 Cd 0.20516 0.35559 0.70343 0.0
O605 O 0.20481 0.32094 0.74032 0.0
Cd606 Cd 0.23685 0.33902 0.73381 0.0
C607 C 0.23794 0.31948 0.68755 0.0
O608 O 0.22267 0.37197 0.7291 0.0
O609 O 0.25296 0.36883 0.71972 0.0
O610 O 0.24174 0.33786 0.76983 0.0
C611 C 0.23835 0.38017 0.72287 0.0
O612 O 0.22535 0.33289 0.68347 0.0
C613 C 0.26036 0.33559 0.76891 0.0
O614 O 0.24409 0.3172 0.7053 0.0
O615 O 0.26793 0.3336 0.75167 0.0
C616 C 0.3329 0.44133 0.48453 0.0
O617 O 0.32064 0.43572 0.47141 0.0
Cd618 Cd 0.29862 0.45686 0.45387 0.0
O619 O 0.33344 0.45941 0.49021 0.0
Cd620 Cd 0.31417 0.49042 0.48285 0.0
C621 C 0.33328 0.4903 0.43639 0.0
O622 O 0.28167 0.4749 0.47902 0.0
O623 O 0.28387 0.50501 0.46871 0.0
O624 O 0.31555 0.49652 0.51866 0.0
C625 C 0.273 0.49015 0.47246 0.0
O626 O 0.32027 0.47708 0.43288 0.0
C627 C 0.3173 0.51521 0.51729 0.0
O628 O 0.3355 0.49726 0.4539 0.0
O629 O 0.31883 0.52234 0.49986 0.0
C630 C 0.684 0.0823 0.18054 0.0
O631 O 0.68033 0.07017 0.19452 0.0
Cd632 Cd 0.70436 0.04977 0.21021 0.0
O633 O 0.70131 0.08341 0.17292 0.0
Cd634 Cd 0.73365 0.06555 0.17682 0.0
C635 C 0.73822 0.08633 0.22221 0.0
O636 O 0.72016 0.03279 0.18367 0.0
O637 O 0.75116 0.03613 0.19003 0.0
O638 O 0.73409 0.06281 0.14099 0.0
C639 C 0.73633 0.02472 0.1884 0.0
O640 O 0.72589 0.07306 0.22761 0.0
C641 C 0.75219 0.06717 0.13854 0.0
O642 O 0.74319 0.08816 0.20397 0.0
O643 O 0.7617 0.07238 0.15399 0.0
C644 C 0.57303 0.93578 0.92391 0.0
O645 O 0.5862 0.93135 0.93654 0.0
Cd646 Cd 0.6074 -0.04554 0.95264 0.0
O647 O 0.57122 -0.0464 0.91777 0.0
Cd648 Cd 0.58927 -0.01406 0.92318 0.0
C649 C 0.5712 -0.01363 -0.02998 0.0
O650 O 0.62259 -0.02757 0.9264 0.0
O651 O 0.61905 0.00255 0.93645 0.0
O652 O 0.58696 -0.00907 0.88722 0.0
C653 C 0.63061 -0.01171 0.93246 0.0
O654 O 0.58494 -0.02603 -0.02646 0.0
C655 C 0.58443 0.00956 0.88824 0.0
O656 O 0.56834 -0.00727 0.95242 0.0
O657 O 0.58277 0.01707 0.90554 0.0
C658 C 0.83203 -0.03345 0.42944 0.0
O659 O 0.82002 -0.02929 0.44345 0.0
Cd660 Cd 0.79897 0.94747 0.45983 0.0
O661 O 0.83271 0.94907 0.42211 0.0
Cd662 Cd 0.81395 0.91718 0.42678 0.0
C663 C 0.83433 0.91265 0.47216 0.0
O664 O 0.78162 0.93151 0.43385 0.0
O665 O 0.78432 0.90045 0.44071 0.0
O666 O 0.81085 0.91639 0.39102 0.0
C667 C 0.77327 0.91552 0.43904 0.0
O668 O 0.82143 0.92541 0.47739 0.0
C669 C 0.81471 0.89811 0.38873 0.0
O670 O 0.83618 0.9074 0.45398 0.0
O671 O 0.81985 0.88863 0.4042 0.0
H672 H 0.18472 0.14875 0.51153 0.0
H673 H 0.21695 0.15047 0.39883 0.0
H674 H 0.24154 0.17304 0.49515 0.0
H675 H 0.16043 0.17478 0.41611 0.0
H676 H 0.22625 0.14897 0.43416 0.0
H677 H 0.17541 0.14847 0.47614 0.0
C678 C 0.19529 0.15379 0.50045 0.0
C679 C 0.21389 0.16097 0.50614 0.0
C680 C 0.21179 0.15451 0.43012 0.0
C681 C 0.20354 0.16026 0.466 0.0
C682 C 0.20645 0.15529 0.41008 0.0
C683 C 0.18793 0.16282 0.40467 0.0
C684 C 0.19825 0.16067 0.44475 0.0
C685 C 0.17488 0.169 0.41975 0.0
C686 C 0.18994 0.15372 0.48039 0.0
C687 C 0.22702 0.16749 0.49129 0.0
N688 N 0.18021 0.16761 0.4392 0.0
N689 N 0.22167 0.1668 0.47181 0.0
H690 H -0.04219 0.93361 0.65737 0.0
H691 H 0.02294 -0.03882 0.75229 0.0
H692 H 0.02095 0.94241 0.65375 0.0
H693 H -0.03998 -0.02871 0.74927 0.0
H694 H 0.02273 0.95091 0.71722 0.0
H695 H -0.04145 0.94381 0.69231 0.0
C696 C -0.02815 0.93763 0.66395 0.0
C697 C -0.01065 0.93721 0.65264 0.0
C698 C 0.009 -0.04456 0.72426 0.0
C699 C -0.0097 0.94882 0.69263 0.0
C700 C 0.0091 -0.03875 0.74425 0.0
C701 C -0.00853 -0.0329 0.75369 0.0
C702 C -0.00889 -0.04477 0.71374 0.0
C703 C -0.02603 -0.03305 0.74257 0.0
C704 C -0.02776 0.94353 0.68387 0.0
C705 C 0.00711 0.94261 0.66193 0.0
N706 N -0.02579 -0.039 0.72323 0.0
N707 N 0.00715 0.94813 0.68143 0.0
H708 H 0.22184 0.70866 0.90677 0.0
H709 H 0.19394 0.77132 0.00421 0.0
H710 H 0.21197 0.77187 0.90518 0.0
H711 H 0.18895 0.70762 -0.00012 0.0
H712 H 0.20363 0.77239 -0.03108 0.0
H713 H 0.21309 0.70859 0.94201 0.0
C714 C 0.21787 0.72256 0.91385 0.0
C715 C 0.21756 0.7403 0.90299 0.0
C716 C 0.20039 0.75821 -0.02426 0.0
C717 C 0.20755 0.74032 0.94346 0.0
C718 C 0.19493 0.75758 -0.00414 0.0
C719 C 0.19063 0.73935 0.00497 0.0
C720 C 0.20176 0.74047 -0.0352 0.0
C721 C 0.19208 0.722 -0.00653 0.0
C722 C 0.21281 0.7225 0.93398 0.0
C723 C 0.21231 0.75786 0.91299 0.0
N724 N 0.19757 0.723 -0.02597 0.0
N725 N 0.20753 0.75745 0.93271 0.0
H726 H 0.38121 0.94446 0.25471 0.0
H727 H 0.44668 -0.03398 0.15755 0.0
H728 H 0.44466 0.93803 0.25198 0.0
H729 H 0.38323 -0.04055 0.15538 0.0
H730 H 0.44577 -0.04167 0.19296 0.0
H731 H 0.38119 -0.04757 0.21905 0.0
C732 C 0.39512 0.94475 0.24663 0.0
C733 C 0.41296 0.94057 0.25632 0.0
C734 C 0.43202 -0.04149 0.18477 0.0
C735 C 0.41305 0.94972 0.21569 0.0
C736 C 0.43253 -0.03705 0.16453 0.0
C737 C 0.415 -0.03667 0.15348 0.0
C738 C 0.41385 -0.04545 0.19416 0.0
C739 C 0.3971 -0.04077 0.16335 0.0
C740 C 0.39508 0.94924 0.2263 0.0
C741 C 0.43054 0.94111 0.24514 0.0
N742 N 0.39696 -0.04494 0.18318 0.0
N743 N 0.43014 0.94565 0.22547 0.0
H744 H 0.4967 0.22589 0.19879 0.0
H745 H 0.402 0.19533 0.13476 0.0
H746 H 0.5003 0.21203 0.13608 0.0
H747 H 0.40385 0.19381 0.19899 0.0
H748 H 0.43709 0.20472 0.13425 0.0
H749 H 0.46158 0.21763 0.19842 0.0
C750 C 0.49009 0.22116 0.18491 0.0
C751 C 0.50146 0.21957 0.16745 0.0
C752 C 0.42977 0.20231 0.14842 0.0
C753 C 0.46118 0.21013 0.16691 0.0
C754 C 0.40976 0.19701 0.14873 0.0
C755 C 0.40001 0.19377 0.16694 0.0
C756 C 0.43997 0.20457 0.16646 0.0
C757 C 0.41078 0.1961 0.1846 0.0
C758 C 0.47003 0.21638 0.18472 0.0
C759 C 0.49208 0.21336 0.14989 0.0
N760 N 0.43013 0.20142 0.18391 0.0
N761 N 0.47245 0.20889 0.15005 0.0
H762 H 0.9415 0.25117 0.38348 0.0
H763 H -0.03272 0.15649 0.44959 0.0
H764 H 0.93203 0.24866 0.44704 0.0
H765 H -0.04046 0.153 0.38592 0.0
H766 H -0.04251 0.19133 0.44869 0.0
H767 H 0.95102 0.21608 0.3838 0.0
C768 C 0.94141 0.24323 0.39748 0.0
C769 C 0.93598 0.25283 0.41526 0.0
C770 C -0.04209 0.18294 0.43492 0.0
C771 C 0.94699 0.21285 0.41575 0.0
C772 C -0.03643 0.16307 0.4354 0.0
C773 C -0.0358 0.15183 0.4178 0.0
C774 C -0.04696 0.19174 0.41667 0.0
C775 C -0.04081 0.16113 0.39984 0.0
C776 C 0.9468 0.22323 0.39764 0.0
C777 C 0.93608 0.24185 0.43298 0.0
N778 N -0.04612 0.18059 0.39972 0.0
N779 N 0.9416 0.22249 0.43279 0.0
H780 H -0.00088 0.72203 0.69943 0.0
H781 H 0.90355 0.69418 0.63566 0.0
H782 H 0.00148 0.71207 0.63593 0.0
H783 H 0.90666 0.68797 0.69952 0.0
H784 H 0.93855 0.70375 0.63511 0.0
H785 H -0.0358 0.71279 0.6994 0.0
C786 C -0.00773 0.71795 0.68546 0.0
C787 C 0.00323 0.71777 0.66766 0.0
C788 C 0.93155 0.70024 0.64922 0.0
C789 C -0.03678 0.70722 0.66752 0.0
C790 C 0.91159 0.69483 0.64955 0.0
C791 C 0.9022 0.69027 0.66766 0.0
C792 C 0.94209 0.70131 0.66716 0.0
C793 C 0.91332 0.69131 0.68521 0.0
C794 C -0.02765 0.7126 0.68547 0.0
C795 C -0.00642 0.71233 0.65 0.0
N796 N 0.93264 0.69681 0.68453 0.0
N797 N -0.02591 0.70732 0.65036 0.0
H798 H 0.4686 0.75702 0.90109 0.0
H799 H 0.43533 0.64526 0.90123 0.0
H800 H 0.41165 0.74132 0.92564 0.0
H801 H 0.49176 0.66131 0.92621 0.0
H802 H 0.42638 0.68063 0.90022 0.0
H803 H 0.47753 0.72164 0.90035 0.0
C804 C 0.45793 0.7461 0.90611 0.0
C805 C 0.4394 0.75198 0.9135 0.0
C806 C 0.44074 0.67631 0.90579 0.0
C807 C 0.4493 0.71184 0.91222 0.0
C808 C 0.44589 0.65625 0.90628 0.0
C809 C 0.46427 0.65048 0.91387 0.0
C810 C 0.45436 0.69059 0.91229 0.0
C811 C 0.4774 0.66524 0.92036 0.0
C812 C 0.46306 0.72604 0.90577 0.0
C813 C 0.42612 0.73732 0.91995 0.0
N814 N 0.47228 0.68469 0.91925 0.0
N815 N 0.43124 0.71784 0.91898 0.0
H816 H 0.49529 0.68229 0.20854 0.0
H817 H 0.39988 0.70809 0.27453 0.0
H818 H 0.49829 0.69273 0.27191 0.0
H819 H 0.40199 0.71292 0.21047 0.0
H820 H 0.43509 0.69935 0.27435 0.0
H821 H 0.46013 0.69024 0.20947 0.0
C822 C 0.48853 0.68622 0.22268 0.0
C823 C 0.49975 0.68691 0.24017 0.0
C824 C 0.42781 0.70234 0.26036 0.0
C825 C 0.45942 0.69598 0.24134 0.0
C826 C 0.40773 0.70727 0.26044 0.0
C827 C 0.39801 0.71125 0.24248 0.0
C828 C 0.43813 0.70119 0.24218 0.0
C829 C 0.40889 0.71002 0.22467 0.0
C830 C 0.46846 0.69082 0.22318 0.0
C831 C 0.49019 0.6921 0.25806 0.0
N832 N 0.42833 0.70505 0.22497 0.0
N833 N 0.47054 0.6964 0.2582 0.0
H834 H 0.45977 0.25013 0.45906 0.0
H835 H 0.43973 0.15421 0.52574 0.0
H836 H 0.45681 0.25273 0.52324 0.0
H837 H 0.42775 0.15707 0.46274 0.0
H838 H 0.4481 0.18963 0.52536 0.0
H839 H 0.45024 0.21527 0.4603 0.0
C840 C 0.4571 0.24336 0.47344 0.0
C841 C 0.45907 0.25435 0.49108 0.0
C842 C 0.44356 0.18249 0.51166 0.0
C843 C 0.44823 0.21433 0.49261 0.0
C844 C 0.43883 0.16229 0.51185 0.0
C845 C 0.43307 0.15268 0.49423 0.0
C846 C 0.44272 0.19305 0.49369 0.0
C847 C 0.43211 0.16386 0.47668 0.0
C848 C 0.4516 0.22345 0.47413 0.0
C849 C 0.45539 0.2448 0.50928 0.0
N850 N 0.43698 0.1834 0.47683 0.0
N851 N 0.45023 0.22527 0.50959 0.0
H852 H 0.90489 0.21939 0.71032 0.0
H853 H -0.00032 0.19309 0.77555 0.0
H854 H 0.90148 0.2096 0.77374 0.0
H855 H -0.00259 0.18587 0.71171 0.0
H856 H -0.03547 0.20206 0.77558 0.0
H857 H 0.9398 0.21023 0.71091 0.0
C858 C 0.9115 0.21535 0.72439 0.0
C859 C 0.90026 0.21522 0.74201 0.0
C860 C -0.02825 0.19845 0.7616 0.0
C861 C 0.94026 0.20478 0.7428 0.0
C862 C -0.00821 0.19338 0.76156 0.0
C863 C 0.00147 0.18874 0.7436 0.0
C864 C -0.03858 0.1991 0.74352 0.0
C865 C -0.00946 0.1893 0.72591 0.0
C866 C 0.93142 0.21005 0.72471 0.0
C867 C 0.9096 0.20982 0.75981 0.0
N868 N -0.02885 0.19449 0.72631 0.0
N869 N 0.9291 0.20488 0.75977 0.0
H870 H 0.94031 0.65225 0.02536 0.0
H871 H -0.03863 0.74709 -0.04264 0.0
H872 H 0.92962 0.65408 -0.03792 0.0
H873 H -0.0429 0.75084 0.02143 0.0
H874 H -0.04781 0.71216 -0.04093 0.0
H875 H 0.94877 0.68766 0.02454 0.0
C876 C 0.93972 0.6601 0.01132 0.0
C877 C 0.93429 0.65021 -0.00625 0.0
C878 C -0.0468 0.72061 -0.02722 0.0
C879 C 0.94403 0.69055 -0.0073 0.0
C880 C -0.0415 0.74056 -0.02818 0.0
C881 C -0.04002 0.7519 -0.01071 0.0
C882 C 0.94952 0.71181 -0.00864 0.0
C883 C -0.04393 0.74263 0.00759 0.0
C884 C 0.9445 0.68029 0.01088 0.0
C885 C 0.93372 0.66109 -0.02402 0.0
N886 N -0.04891 0.72307 0.00817 0.0
N887 N 0.93862 0.68061 -0.02409 0.0
H888 H 0.13004 0.40087 0.19541 0.0
H889 H 0.19461 0.49676 0.22115 0.0
H890 H 0.19319 0.40404 0.18631 0.0
H891 H 0.13148 0.49924 0.21244 0.0
H892 H 0.19415 0.46172 0.21176 0.0
H893 H 0.13004 0.43602 0.20487 0.0
C894 C 0.14389 0.40896 0.19541 0.0
C895 C 0.16164 0.39954 0.19007 0.0
C896 C 0.1804 0.46993 0.21188 0.0
C897 C 0.16176 0.43961 0.20099 0.0
C898 C 0.18063 0.48991 0.21731 0.0
C899 C 0.16305 0.50093 0.21754 0.0
C900 C 0.16242 0.46081 0.20686 0.0
C901 C 0.14538 0.4913 0.21239 0.0
C902 C 0.14387 0.42901 0.20075 0.0
C903 C 0.17916 0.41072 0.19027 0.0
N904 N 0.1455 0.47175 0.20732 0.0
N905 N 0.17879 0.43013 0.19574 0.0
H906 H 0.69636 -0.00312 0.7249 0.0
H907 H 0.63193 0.90127 0.69733 0.0
H908 H 0.63373 6e-05 0.71336 0.0
H909 H 0.69556 0.90372 0.69252 0.0
H910 H 0.63171 0.93653 0.70657 0.0
H911 H 0.69575 -0.03835 0.71658 0.0
C912 C 0.68245 -0.00985 0.72066 0.0
C913 C 0.66507 0.00143 0.71975 0.0
C914 C 0.64569 0.92931 0.70347 0.0
C915 C 0.66426 -0.03897 0.71027 0.0
C916 C 0.64583 0.90921 0.69826 0.0
C917 C 0.66379 0.89957 0.69414 0.0
C918 C 0.66365 0.93972 0.70477 0.0
C919 C 0.68137 0.91056 0.69551 0.0
C920 C 0.68212 -0.02997 0.71585 0.0
C921 C 0.64748 -0.0081 0.71416 0.0
N922 N 0.68085 0.93 0.70077 0.0
N923 N 0.6475 -0.02779 0.70966 0.0
H924 H 0.15517 0.44753 -0.02775 0.0
H925 H 0.2506 0.38246 0.94613 0.0
H926 H 0.15233 0.38422 -0.03704 0.0
H927 H 0.24815 0.44606 0.93953 0.0
H928 H 0.21542 0.38242 -0.04477 0.0
H929 H 0.1902 0.4469 -0.03662 0.0
C930 C 0.16193 0.43347 -0.03162 0.0
C931 C 0.1508 0.4159 -0.0317 0.0
C932 C 0.2226 0.39636 0.95175 0.0
C933 C 0.19097 0.41507 -0.04182 0.0
C934 C 0.24267 0.3964 0.94661 0.0
C935 C 0.2523 0.41429 0.94207 0.0
C936 C 0.2122 0.41437 0.95256 0.0
C937 C 0.24132 0.43192 0.94287 0.0
C938 C 0.18193 0.43314 -0.03675 0.0
C939 C 0.16036 0.39812 -0.03686 0.0
N940 N 0.2219 0.43152 0.9481 0.0
N941 N 0.17993 0.39814 -0.04166 0.0
H942 H 0.76911 0.00205 0.19647 0.0
H943 H 0.70519 0.90416 0.21673 0.0
H944 H 0.70566 -0.00137 0.19083 0.0
H945 H 0.76879 0.90297 0.21119 0.0
H946 H 0.70556 0.93944 0.20929 0.0
H947 H 0.76981 -0.0336 0.20387 0.0
C948 C 0.75535 -0.00617 0.19682 0.0
C949 C 0.7373 0.00332 0.19305 0.0
C950 C 0.71947 0.93151 0.20964 0.0
C951 C 0.73798 -0.0373 0.20151 0.0
C952 C 0.71927 0.91133 0.21393 0.0
C953 C 0.73699 0.90058 0.21455 0.0
C954 C 0.73754 0.94118 0.20606 0.0
C955 C 0.75479 0.9107 0.21079 0.0
C956 C 0.75576 -0.0265 0.20098 0.0
C957 C 0.71992 -0.00805 0.19363 0.0
N958 N 0.75462 0.93049 0.20675 0.0
N959 N 0.7207 -0.0277 0.19782 0.0
H960 H 0.65267 0.02078 0.94315 0.0
H961 H 0.75052 -0.04248 -0.0381 0.0
H962 H 0.65723 -0.04208 0.93168 0.0
H963 H 0.751 0.02145 -0.04124 0.0
H964 H 0.71565 -0.04244 0.95295 0.0
H965 H 0.68805 0.02156 0.95092 0.0
C966 C 0.66111 0.00716 0.94225 0.0
C967 C 0.652 -0.01076 0.9368 0.0
C968 C 0.72336 -0.0284 0.95414 0.0
C969 C 0.69235 -0.00998 0.94575 0.0
C970 C 0.74328 -0.02841 -0.04069 0.0
C971 C 0.75369 -0.01048 -0.03893 0.0
C972 C 0.71364 -0.01033 0.95089 0.0
C973 C 0.74353 0.00729 -0.0425 0.0
C974 C 0.68129 0.00763 0.94663 0.0
C975 C 0.66364 -0.02794 0.93581 0.0
N976 N 0.72401 0.00694 0.95267 0.0
N977 N 0.68316 -0.02714 0.94034 0.0
H978 H 0.27042 0.40295 0.71252 0.0
H979 H 0.20535 0.49798 0.68594 0.0
H980 H 0.20711 0.40562 0.72052 0.0
H981 H 0.26848 0.50113 0.69448 0.0
H982 H 0.20605 0.46306 0.69538 0.0
H983 H 0.27035 0.43802 0.7029 0.0
C984 C 0.25652 0.41091 0.71225 0.0
C985 C 0.23874 0.40137 0.71732 0.0
C986 C 0.21975 0.47138 0.69522 0.0
C987 C 0.23854 0.44133 0.70623 0.0
C988 C 0.21938 0.49131 0.68975 0.0
C989 C 0.23689 0.50249 0.68947 0.0
C990 C 0.23779 0.46246 0.70025 0.0
C991 C 0.25463 0.49306 0.69458 0.0
C992 C 0.2565 0.43091 0.70682 0.0
C993 C 0.22116 0.41238 0.71678 0.0
N994 N 0.25465 0.47355 0.69971 0.0
N995 N 0.2215 0.43173 0.71124 0.0
H996 H 0.24825 0.45812 0.47161 0.0
H997 H 0.15129 0.5203 0.44566 0.0
H998 H 0.24936 0.52137 0.46194 0.0
H999 H 0.1556 0.45683 0.43837 0.0
H1000 H 0.18633 0.52129 0.4548 0.0
H1001 H 0.21326 0.45765 0.46278 0.0
C1002 C 0.24112 0.47193 0.46767 0.0
C1003 C 0.25174 0.48981 0.46746 0.0
C1004 C 0.17958 0.50717 0.45116 0.0
C1005 C 0.21166 0.48938 0.45741 0.0
C1006 C 0.1596 0.50659 0.446 0.0
C1007 C 0.15053 0.48846 0.44125 0.0
C1008 C 0.19048 0.48946 0.4518 0.0
C1009 C 0.162 0.47114 0.44187 0.0
C1010 C 0.22116 0.47163 0.46257 0.0
C1011 C 0.24173 0.50725 0.46222 0.0
N1012 N 0.18134 0.47206 0.44714 0.0
N1013 N 0.22222 0.50661 0.45746 0.0
H1014 H 0.74367 0.67158 -0.00582 0.0
H1015 H 0.65988 0.67372 0.91495 0.0
H1016 H 0.68609 0.64882 0.01003 0.0
H1017 H 0.7164 0.64873 0.89871 0.0
H1018 H 0.66927 0.67181 0.95024 0.0
H1019 H 0.73424 0.67038 -0.04115 0.0
C1020 C 0.72908 0.66632 -0.00982 0.0
C1021 C 0.71564 0.66021 0.00491 0.0
C1022 C 0.67951 0.66669 0.93889 0.0
C1023 C 0.70469 0.65935 -0.03507 0.0
C1024 C 0.67423 0.66784 0.91885 0.0
C1025 C 0.68738 0.6613 0.90402 0.0
C1026 C 0.69829 0.6596 0.94398 0.0
C1027 C 0.70582 0.65378 0.90977 0.0
C1028 C 0.72377 0.66558 -0.02988 0.0
C1029 C 0.6969 0.65351 -0.00096 0.0
N1030 N 0.71088 0.6534 0.92933 0.0
N1031 N 0.69183 0.65354 -0.02053 0.0
H1032 H 0.45705 0.46949 0.24883 0.0
H1033 H 0.52245 0.44257 0.15313 0.0
H1034 H 0.52025 0.46125 0.25164 0.0
H1035 H 0.4593 0.43364 0.1563 0.0
H1036 H 0.5222 0.45243 0.18831 0.0
H1037 H 0.45784 0.45958 0.21383 0.0
C1038 C 0.47111 0.46565 0.24206 0.0
C1039 C 0.48861 0.46616 0.25316 0.0
C1040 C 0.50843 0.44825 0.18129 0.0
C1041 C 0.48962 0.45486 0.21307 0.0
C1042 C 0.50855 0.44267 0.16123 0.0
C1043 C 0.49087 0.43729 0.15179 0.0
C1044 C 0.49047 0.44867 0.19188 0.0
C1045 C 0.47328 0.43764 0.16299 0.0
C1046 C 0.47154 0.45991 0.2221 0.0
C1047 C 0.5064 0.46099 0.24362 0.0
N1048 N 0.47352 0.44333 0.1824 0.0
N1049 N 0.50647 0.45561 0.22408 0.0
H1050 H 0.71071 0.27489 0.40454 0.0
H1051 H 0.69164 0.20758 0.50052 0.0
H1052 H 0.72232 0.21199 0.40656 0.0
H1053 H 0.69456 0.27147 0.50366 0.0
H1054 H 0.70052 0.20911 0.46532 0.0
H1055 H 0.70252 0.27418 0.44019 0.0
C1056 C 0.71155 0.26095 0.41248 0.0
C1057 C 0.71717 0.24347 0.40257 0.0
C1058 C 0.69928 0.22281 0.47369 0.0
C1059 C 0.70775 0.24254 0.4432 0.0
C1060 C 0.69416 0.22195 0.49379 0.0
C1061 C 0.69238 0.23943 0.50505 0.0
C1062 C 0.70249 0.2413 0.46464 0.0
C1063 C 0.69584 0.25763 0.49553 0.0
C1064 C 0.70693 0.26058 0.4328 0.0
C1065 C 0.71807 0.22583 0.41358 0.0
N1066 N 0.70065 0.25811 0.47582 0.0
N1067 N 0.71332 0.22581 0.43325 0.0
H1068 H 0.94489 0.46766 0.65787 0.0
H1069 H 0.88108 0.4419 0.75492 0.0
H1070 H 0.88161 0.45949 0.65614 0.0
H1071 H 0.94433 0.43425 0.75085 0.0
H1072 H 0.88061 0.45104 0.71958 0.0
H1073 H 0.94462 0.45832 0.69293 0.0
C1074 C 0.93091 0.46393 0.66488 0.0
C1075 C 0.91324 0.46432 0.65406 0.0
C1076 C 0.89456 0.4473 0.72645 0.0
C1077 C 0.91283 0.45366 0.69428 0.0
C1078 C 0.89485 0.44213 0.74659 0.0
C1079 C 0.91278 0.43733 0.75583 0.0
C1080 C 0.91235 0.44786 0.71556 0.0
C1081 C 0.93017 0.43782 0.74435 0.0
C1082 C 0.93078 0.45853 0.6849 0.0
C1083 C 0.89558 0.45932 0.66393 0.0
N1084 N 0.92953 0.44308 0.72486 0.0
N1085 N 0.8958 0.45425 0.68354 0.0
H1086 H 0.74998 0.88313 0.44748 0.0
H1087 H 0.65439 0.94894 0.47145 0.0
H1088 H 0.74814 0.94691 0.44242 0.0
H1089 H 0.6514 0.88548 0.46332 0.0
H1090 H 0.68956 0.94798 0.46348 0.0
H1091 H 0.71458 0.88318 0.45583 0.0
C1092 C 0.74215 0.89712 0.44816 0.0
C1093 C 0.75201 0.91505 0.44425 0.0
C1094 C 0.68124 0.93425 0.46339 0.0
C1095 C 0.71168 0.91521 0.45383 0.0
C1096 C 0.66114 0.93477 0.46799 0.0
C1097 C 0.64993 0.91726 0.468 0.0
C1098 C 0.69032 0.91605 0.45889 0.0
C1099 C 0.6595 0.89934 0.46341 0.0
C1100 C 0.72197 0.89714 0.45286 0.0
C1101 C 0.74115 0.93274 0.44528 0.0
N1102 N 0.67919 0.89917 0.45907 0.0
N1103 N 0.72163 0.93237 0.45002 0.0
H1104 H 0.16683 0.32492 0.25959 0.0
H1105 H 0.15168 0.21142 0.28916 0.0
H1106 H 0.14847 0.2803 0.21734 0.0
H1107 H 0.16836 0.2579 0.33013 0.0
H1108 H 0.14579 0.23663 0.26359 0.0
H1109 H 0.16272 0.30104 0.28638 0.0
C1110 C 0.16171 0.31011 0.25597 0.0
C1111 C 0.15822 0.30454 0.23616 0.0
C1112 C 0.15046 0.24129 0.27827 0.0
C1113 C 0.15374 0.27686 0.26687 0.0
C1114 C 0.15376 0.22692 0.2929 0.0
C1115 C 0.16079 0.23252 0.31175 0.0
C1116 C 0.1542 0.26137 0.28258 0.0
C1117 C 0.16323 0.25282 0.31575 0.0
C1118 C 0.15936 0.29644 0.27131 0.0
C1119 C 0.15139 0.2852 0.23241 0.0
N1120 N 0.16013 0.26643 0.30126 0.0
N1121 N 0.14966 0.27194 0.2476 0.0
H1122 H 0.94339 0.90167 0.53622 0.0
H1123 H 0.82838 0.9105 0.51216 0.0
H1124 H 0.89792 0.91701 0.57889 0.0
H1125 H 0.87258 0.89967 0.46685 0.0
H1126 H 0.85334 0.90576 0.53765 0.0
H1127 H 0.91759 0.89421 0.51168 0.0
C1128 C 0.92801 0.9031 0.54055 0.0
C1129 C 0.9228 0.91027 0.55952 0.0
C1130 C 0.85762 0.90415 0.52217 0.0
C1131 C 0.89332 0.90181 0.53163 0.0
C1132 C 0.84333 0.90682 0.50759 0.0
C1133 C 0.84848 0.90577 0.48736 0.0
C1134 C 0.87736 0.90072 0.51654 0.0
C1135 C 0.86801 0.90069 0.4823 0.0
C1136 C 0.9133 0.89892 0.52652 0.0
C1137 C 0.90265 0.91185 0.56434 0.0
N1138 N 0.88187 0.89871 0.49681 0.0
N1139 N 0.8887 0.90784 0.55046 0.0
H1140 H 0.22817 0.64858 0.82938 0.0
H1141 H 0.25247 0.62097 0.71621 0.0
H1142 H 0.2481 0.69181 0.78643 0.0
H1143 H 0.22948 0.5801 0.75998 0.0
H1144 H 0.25642 0.64596 0.74253 0.0
H1145 H 0.23421 0.62238 0.80517 0.0
C1146 C 0.23401 0.65255 0.81487 0.0
C1147 C 0.23736 0.67246 0.80983 0.0
C1148 C 0.25077 0.63143 0.74637 0.0
C1149 C 0.2441 0.6424 0.78178 0.0
C1150 C 0.24858 0.61713 0.73138 0.0
C1151 C 0.24037 0.5985 0.73585 0.0
C1152 C 0.24477 0.62699 0.76594 0.0
C1153 C 0.2356 0.59434 0.75577 0.0
C1154 C 0.23747 0.63755 0.80101 0.0
C1155 C 0.24522 0.67666 0.7909 0.0
N1156 N 0.23771 0.60851 0.76999 0.0
N1157 N 0.24805 0.66177 0.77742 0.0
H1158 H 0.57698 -0.01772 0.00993 0.0
H1159 H 0.46304 -0.00197 0.03793 0.0
H1160 H 0.5336 0.00172 -0.03265 0.0
H1161 H 0.50685 -0.02696 0.07699 0.0
H1162 H 0.4893 0.00529 0.01358 0.0
H1163 H 0.55228 -0.01491 0.03628 0.0
C1164 C 0.56229 -0.01261 0.00615 0.0
C1165 C 0.55728 -0.00852 -0.01366 0.0
C1166 C 0.49315 -0.00156 0.0276 0.0
C1167 C 0.52871 -0.00554 0.01652 0.0
C1168 C 0.47819 -0.00565 0.04152 0.0
C1169 C 0.48273 -0.01534 0.0594 0.0
C1170 C 0.51274 -0.00709 0.03171 0.0
C1171 C 0.5026 -0.01976 0.06328 0.0
C1172 C 0.54815 -0.01104 0.02123 0.0
C1173 C 0.53808 -0.0017 -0.01759 0.0
N1174 N 0.51679 -0.01573 0.04952 0.0
N1175 N 0.52437 -0.00071 -0.00267 0.0
H1176 H 0.15267 0.68991 0.11911 0.0
H1177 H 0.17 0.57633 0.14755 0.0
H1178 H 0.17712 0.64553 0.07963 0.0
H1179 H 0.14908 0.61988 0.18989 0.0
H1180 H 0.16687 0.60065 0.12108 0.0
H1181 H 0.14578 0.66385 0.14369 0.0
C1182 C 0.15629 0.67467 0.11547 0.0
C1183 C 0.16574 0.66993 0.0974 0.0
C1184 C 0.16275 0.60491 0.1361 0.0
C1185 C 0.15794 0.64014 0.12537 0.0
C1186 C 0.16452 0.59098 0.15125 0.0
C1187 C 0.16007 0.59615 0.17102 0.0
C1188 C 0.15672 0.62432 0.1407 0.0
C1189 C 0.15277 0.6153 0.17486 0.0
C1190 C 0.15241 0.65983 0.12953 0.0
C1191 C 0.17009 0.64994 0.09347 0.0
N1192 N 0.15161 0.62882 0.15987 0.0
N1193 N 0.1663 0.63587 0.10738 0.0
H1194 H 0.57449 0.91813 0.39779 0.0
H1195 H 0.45991 0.90622 0.37193 0.0
H1196 H 0.5303 0.90338 0.44196 0.0
H1197 H 0.50465 0.92854 0.33172 0.0
H1198 H 0.48589 0.89857 0.39615 0.0
H1199 H 0.54966 0.91482 0.37191 0.0
C1200 C 0.55958 0.9139 0.40202 0.0
C1201 C 0.55439 0.91133 0.4221 0.0
C1202 C 0.48998 0.90491 0.38191 0.0
C1203 C 0.52569 0.90786 0.39247 0.0
C1204 C 0.47519 0.90922 0.36807 0.0
C1205 C 0.4801 0.91829 0.34989 0.0
C1206 C 0.50978 0.90956 0.37741 0.0
C1207 C 0.50013 0.92184 0.34566 0.0
C1208 C 0.54537 0.91207 0.38722 0.0
C1209 C 0.53491 0.90559 0.42666 0.0
N1210 N 0.51416 0.91759 0.35934 0.0
N1211 N 0.52114 0.90438 0.41196 0.0
H1212 H 0.24983 0.21053 0.6214 0.0
H1213 H 0.23613 0.32518 0.64747 0.0
H1214 H 0.23357 0.2557 0.57914 0.0
H1215 H 0.25267 0.28164 0.69128 0.0
H1216 H 0.24051 0.30041 0.6214 0.0
H1217 H 0.25616 0.23658 0.64619 0.0
C1218 C 0.24794 0.22591 0.61721 0.0
C1219 C 0.24087 0.23093 0.59826 0.0
C1220 C 0.24342 0.29624 0.63667 0.0
C1221 C 0.24797 0.26072 0.6265 0.0
C1222 C 0.24092 0.31043 0.65159 0.0
C1223 C 0.24378 0.3054 0.67162 0.0
C1224 C 0.24854 0.27673 0.64176 0.0
C1225 C 0.25022 0.28611 0.67603 0.0
C1226 C 0.25148 0.24077 0.63139 0.0
C1227 C 0.23869 0.25109 0.59366 0.0
N1228 N 0.25208 0.27236 0.66123 0.0
N1229 N 0.24203 0.26518 0.60771 0.0
H1230 H 0.87467 0.00677 0.94127 0.0
H1231 H 0.90028 -0.0081 0.8262 0.0
H1232 H 0.83213 -0.00584 0.89531 0.0
H1233 H 0.94499 0.00116 0.87085 0.0
H1234 H 0.87488 -0.0003 0.85077 0.0
H1235 H 0.90009 0.0116 0.91543 0.0
C1236 C 0.87058 0.00549 0.92575 0.0
C1237 C 0.85135 -0.00025 0.92041 0.0
C1238 C 0.89023 0.00027 0.85524 0.0
C1239 C 0.88025 0.00512 0.8909 0.0
C1240 C 0.90476 -0.00419 0.84117 0.0
C1241 C 0.92475 -0.00443 0.84657 0.0
C1242 C 0.89563 0.00421 0.87503 0.0
C1243 C 0.92972 0.00106 0.86611 0.0
C1244 C 0.8851 0.00813 0.91103 0.0
C1245 C 0.84684 -0.00176 0.90011 0.0
N1246 N 0.91521 0.00482 0.87977 0.0
N1247 N 0.8612 0.00069 0.88615 0.0
H1248 H 0.32464 0.1849 0.25993 0.0
H1249 H 0.21398 0.15218 0.28591 0.0
H1250 H 0.28563 0.15868 0.21652 0.0
H1251 H 0.25456 0.17881 0.3276 0.0
H1252 H 0.24091 0.15006 0.26134 0.0
H1253 H 0.30025 0.17832 0.2858 0.0
C1254 C 0.31097 0.17759 0.25585 0.0
C1255 C 0.30708 0.17257 0.23597 0.0
C1256 C 0.24394 0.15613 0.27596 0.0
C1257 C 0.27881 0.16515 0.26565 0.0
C1258 C 0.22859 0.15729 0.29001 0.0
C1259 C 0.23194 0.16593 0.30877 0.0
C1260 C 0.26273 0.16362 0.28075 0.0
C1261 C 0.25118 0.17229 0.31326 0.0
C1262 C 0.297 0.17382 0.27068 0.0
C1263 C 0.2892 0.16288 0.23166 0.0
N1264 N 0.26574 0.17115 0.29933 0.0
N1265 N 0.27557 0.15972 0.24635 0.0
H1266 H -0.01849 0.00639 0.5781 0.0
H1267 H -0.00104 0.03635 0.46442 0.0
H1268 H 0.002 -0.03521 0.53361 0.0
H1269 H -0.02224 0.07602 0.51035 0.0
H1270 H 0.0051 0.01114 0.48996 0.0
H1271 H -0.01484 0.03313 0.55412 0.0
C1272 C -0.01302 0.0029 0.5633 0.0
C1273 C -0.00879 -0.01672 0.55778 0.0
C1274 C -0.00064 0.02547 0.49443 0.0
C1275 C -0.00482 0.01392 0.53 0.0
C1276 C -0.00408 0.03989 0.47988 0.0
C1277 C -0.01242 0.05823 0.48522 0.0
C1278 C -0.00553 0.02951 0.51442 0.0
C1279 C -0.01607 0.062 0.50548 0.0
C1280 C -0.01093 0.01821 0.54958 0.0
C1281 C -0.00151 -0.02029 0.53847 0.0
N1282 N -0.01277 0.04773 0.51925 0.0
N1283 N -3e-05 -0.00515 0.52515 0.0
H1284 H 0.11949 0.75135 0.71279 0.0
H1285 H 0.14616 0.73861 0.82773 0.0
H1286 H 0.07855 0.73271 0.75861 0.0
H1287 H 0.18954 0.75432 0.78309 0.0
H1288 H 0.12018 0.74246 0.80314 0.0
H1289 H 0.14417 0.75825 0.73862 0.0
C1290 C 0.11557 0.74905 0.72827 0.0
C1291 C 0.09703 0.74117 0.73353 0.0
C1292 C 0.13534 0.7453 0.79869 0.0
C1293 C 0.12511 0.74896 0.76306 0.0
C1294 C 0.1502 0.74312 0.81278 0.0
C1295 C 0.17008 0.74587 0.8074 0.0
C1296 C 0.14032 0.75 0.77892 0.0
C1297 C 0.1744 0.75196 0.78785 0.0
C1298 C 0.12968 0.75291 0.743 0.0
C1299 C 0.09275 0.73846 0.75382 0.0
N1300 N 0.15965 0.75351 0.7742 0.0
N1301 N 0.10671 0.74219 0.76776 0.0
H1302 H 0.40349 0.86829 -0.03874 0.0
H1303 H 0.41209 0.89447 0.07682 0.0
H1304 H 0.41699 0.82626 0.00756 0.0
H1305 H 0.40111 0.93872 0.03196 0.0
H1306 H 0.40751 0.8686 0.05193 0.0
H1307 H 0.39655 0.89338 -0.01305 0.0
C1308 C 0.40464 0.86423 -0.0232 0.0
C1309 C 0.41112 0.84523 -0.01773 0.0
C1310 C 0.40584 0.88393 0.04749 0.0
C1311 C 0.40327 0.8738 0.01165 0.0
C1312 C 0.40842 0.89873 0.06174 0.0
C1313 C 0.40724 0.91878 0.0564 0.0
C1314 C 0.40235 0.88914 0.02758 0.0
C1315 C 0.40221 0.92342 0.03669 0.0
C1316 C 0.40074 0.87857 -0.00855 0.0
C1317 C 0.41234 0.84079 0.00262 0.0
N1318 N 0.40029 0.9087 0.02287 0.0
N1319 N 0.40865 0.85498 0.01651 0.0
H1320 H 0.285 0.75169 0.1975 0.0
H1321 H 0.21007 0.75287 0.12596 0.0
H1322 H 0.31824 0.72117 0.15172 0.0
H1323 H 0.25599 0.73612 0.08436 0.0
H1324 H 0.23486 0.75561 0.15211 0.0
H1325 H 0.26011 0.76036 0.17275 0.0
C1326 C 0.28711 0.7469 0.18222 0.0
C1327 C 0.30358 0.73538 0.17677 0.0
C1328 C 0.2397 0.75187 0.1372 0.0
C1329 C 0.27494 0.74489 0.14835 0.0
C1330 C 0.22546 0.75031 0.12221 0.0
C1331 C 0.23092 0.74399 0.10302 0.0
C1332 C 0.25955 0.74715 0.13285 0.0
C1333 C 0.25104 0.74074 0.09902 0.0
C1334 C 0.27276 0.75171 0.16808 0.0
C1335 C 0.30565 0.72978 0.15673 0.0
N1336 N 0.26452 0.74211 0.11383 0.0
N1337 N 0.29148 0.73448 0.14336 0.0
H1338 H 0.39744 -0.03514 0.37725 0.0
H1339 H 0.41667 0.07902 0.40185 0.0
H1340 H 0.41319 0.00942 0.33395 0.0
H1341 H 0.40275 0.03584 0.44713 0.0
H1342 H 0.40943 0.05444 0.37634 0.0
H1343 H 0.39335 -0.00888 0.40237 0.0
C1344 C 0.39961 -0.01982 0.37292 0.0
C1345 C 0.40596 -0.01505 0.35356 0.0
C1346 C 0.40773 0.05031 0.39183 0.0
C1347 C 0.40144 0.01494 0.38215 0.0
C1348 C 0.41189 0.06438 0.40643 0.0
C1349 C 0.41061 0.05939 0.42666 0.0
C1350 C 0.40252 0.03092 0.3974 0.0
C1351 C 0.40404 0.04027 0.4317 0.0
C1352 C 0.39738 -0.00486 0.38728 0.0
C1353 C 0.40859 0.00502 0.34877 0.0
N1354 N 0.40054 0.02659 0.41715 0.0
N1355 N 0.40652 0.01921 0.36299 0.0
H1356 H 0.07561 0.17751 0.65062 0.0
H1357 H 0.18776 0.14997 0.62499 0.0
H1358 H 0.11663 0.1565 0.69479 0.0
H1359 H 0.14639 0.17518 0.58344 0.0
H1360 H 0.16094 0.14702 0.64957 0.0
H1361 H 0.1002 0.17124 0.62481 0.0
C1362 C 0.08976 0.17138 0.65488 0.0
C1363 C 0.09416 0.16779 0.67495 0.0
C1364 C 0.15773 0.15297 0.63498 0.0
C1365 C 0.12262 0.16077 0.64535 0.0
C1366 C 0.17301 0.1546 0.62092 0.0
C1367 C 0.16938 0.16308 0.6022 0.0
C1368 C 0.13871 0.15978 0.63022 0.0
C1369 C 0.14997 0.16881 0.59775 0.0
C1370 C 0.10383 0.1678 0.6401 0.0
C1371 C 0.11266 0.15958 0.67951 0.0
N1372 N 0.13545 0.16719 0.61169 0.0
N1373 N 0.12635 0.1566 0.66484 0.0
H1374 H -0.02883 0.82713 0.89545 0.0
H1375 H 0.0038 0.93855 0.87186 0.0
H1376 H -0.00412 0.86614 0.93992 0.0
H1377 H -0.02234 0.8983 0.82936 0.0
H1378 H 0.0057 0.91125 0.89589 0.0
H1379 H -0.0218 0.85186 0.87009 0.0
C1380 C -0.02176 0.84086 0.89987 0.0
C1381 C -0.0173 0.84466 0.9199 0.0
C1382 C -0.00021 0.90838 0.8812 0.0
C1383 C -0.00937 0.87331 0.89082 0.0
C1384 C -0.00122 0.92393 0.86745 0.0
C1385 C -0.00968 0.92078 0.84865 0.0
C1386 C -0.00764 0.88958 0.87603 0.0
C1387 C -0.01596 0.90153 0.84376 0.0
C1388 C -0.01773 0.85502 0.88534 0.0
C1389 C -0.00789 0.86264 0.92466 0.0
N1390 N -0.01496 0.88677 0.85739 0.0
N1391 N -0.00448 0.87644 0.91026 0.0
H1392 H 0.20749 0.28292 0.15489 0.0
H1393 H 0.32296 0.25999 0.16204 0.0
H1394 H 0.25258 0.32569 0.16983 0.0
H1395 H 0.27917 0.21431 0.15298 0.0
H1396 H 0.29758 0.28507 0.1574 0.0
H1397 H 0.23353 0.25862 0.14718 0.0
C1398 C 0.22284 0.28731 0.15618 0.0
C1399 C 0.22789 0.30625 0.1633 0.0
C1400 C 0.29348 0.26958 0.15616 0.0
C1401 C 0.25762 0.27865 0.15455 0.0
C1402 C 0.30801 0.25524 0.15876 0.0
C1403 C 0.30311 0.23504 0.1582 0.0
C1404 C 0.27376 0.26376 0.15327 0.0
C1405 C 0.28355 0.22974 0.15363 0.0
C1406 C 0.23768 0.27343 0.15185 0.0
C1407 C 0.248 0.31117 0.16471 0.0
N1408 N 0.26947 0.24404 0.1517 0.0
N1409 N 0.26206 0.29743 0.16055 0.0
H1410 H 0.7567 0.07568 0.73478 0.0
H1411 H 0.78127 0.18949 0.75717 0.0
H1412 H 0.71195 0.11829 0.7514 0.0
H1413 H 0.82312 0.14641 0.73493 0.0
H1414 H 0.75674 0.16287 0.76111 0.0
H1415 H 0.78206 0.10047 0.74104 0.0
C1416 C 0.75221 0.09024 0.73996 0.0
C1417 C 0.73214 0.095 0.74228 0.0
C1418 C 0.77139 0.15925 0.75563 0.0
C1419 C 0.76124 0.1237 0.74926 0.0
C1420 C 0.78542 0.17441 0.75346 0.0
C1421 C 0.8042 0.1702 0.74546 0.0
C1422 C 0.77627 0.13979 0.74988 0.0
C1423 C 0.80875 0.15041 0.74088 0.0
C1424 C 0.76673 0.10443 0.74353 0.0
C1425 C 0.72725 0.11403 0.74932 0.0
N1426 N 0.79487 0.13603 0.74301 0.0
N1427 N 0.74171 0.12782 0.75228 0.0
H1428 H -0.03589 0.53204 0.0088 0.0
H1429 H 0.07689 0.50788 -0.01714 0.0
H1430 H 0.00643 0.57443 -0.01388 0.0
H1431 H 0.03529 0.46316 0.00204 0.0
H1432 H 0.05234 0.53333 -0.01021 0.0
H1433 H -0.00915 0.50771 0.01205 0.0
C1434 C -0.02094 0.53636 0.00485 0.0
C1435 C -0.01701 0.55522 -0.00309 0.0
C1436 C 0.04857 0.51799 -0.0073 0.0
C1437 C 0.01355 0.52749 0.00052 0.0
C1438 C 0.06262 0.50342 -0.01126 0.0
C1439 C 0.05805 0.48332 -0.0084 0.0
C1440 C 0.02962 0.51251 -0.00064 0.0
C1441 C 0.03939 0.47848 -0.00048 0.0
C1442 C -0.00571 0.52243 0.00663 0.0
C1443 C 0.00263 0.55999 -0.00797 0.0
N1444 N 0.02573 0.49296 0.00285 0.0
N1445 N 0.01709 0.54619 -0.00625 0.0
H1446 H 0.61806 0.71551 0.25488 0.0
H1447 H 0.64577 0.82637 0.22478 0.0
H1448 H 0.57657 0.75879 0.23306 0.0
H1449 H 0.68853 0.78536 0.24836 0.0
H1450 H 0.61955 0.80285 0.23238 0.0
H1451 H 0.64316 0.74169 0.25737 0.0
C1452 C 0.6141 0.73056 0.25099 0.0
C1453 C 0.59526 0.7349 0.24346 0.0
C1454 C 0.63462 0.79898 0.2361 0.0
C1455 C 0.6239 0.76482 0.24613 0.0
C1456 C 0.64963 0.81243 0.23172 0.0
C1457 C 0.66941 0.80771 0.23569 0.0
C1458 C 0.63934 0.78044 0.24426 0.0
C1459 C 0.67347 0.78954 0.24497 0.0
C1460 C 0.62847 0.74548 0.25234 0.0
C1461 C 0.59097 0.75466 0.23865 0.0
N1462 N 0.65858 0.7764 0.24868 0.0
N1463 N 0.60521 0.76879 0.23986 0.0
H1464 H 0.86892 0.94441 -0.00143 0.0
H1465 H 0.89323 0.82874 -0.0101 0.0
H1466 H 0.82881 0.89945 -0.0229 0.0
H1467 H 0.93798 0.87288 0.00159 0.0
H1468 H 0.86791 0.85416 -0.00682 0.0
H1469 H 0.89274 0.91824 0.00697 0.0
C1470 C 0.865 0.92904 -0.00406 0.0
C1471 C 0.84699 0.92409 -0.01313 0.0
C1472 C 0.88323 0.85831 -0.00471 0.0
C1473 C 0.87399 0.89423 -0.00351 0.0
C1474 C 0.89771 0.84377 -0.00653 0.0
C1475 C 0.91776 0.84877 -0.00485 0.0
C1476 C 0.88878 0.87813 -0.00145 0.0
C1477 C 0.92267 0.86843 7e-05 0.0
C1478 C 0.8786 0.91415 0.00068 0.0
C1479 C 0.84264 0.90398 -0.01621 0.0
N1480 N 0.90828 0.88252 0.00125 0.0
N1481 N 0.85606 0.88985 -0.01154 0.0
H1482 H 0.14508 0.57634 0.67482 0.0
H1483 H 0.1212 0.68964 0.65078 0.0
H1484 H 0.18978 0.61817 0.65613 0.0
H1485 H 0.07885 0.64705 0.673 0.0
H1486 H 0.14542 0.66281 0.64685 0.0
H1487 H 0.11975 0.60098 0.66824 0.0
C1488 C 0.14956 0.59068 0.66912 0.0
C1489 C 0.16962 0.5953 0.66631 0.0
C1490 C 0.13073 0.65933 0.65231 0.0
C1491 C 0.14057 0.62383 0.65895 0.0
C1492 C 0.11687 0.67462 0.65448 0.0
C1493 C 0.09806 0.67062 0.6625 0.0
C1494 C 0.12565 0.63996 0.65812 0.0
C1495 C 0.09326 0.65089 0.66704 0.0
C1496 C 0.13506 0.60478 0.66536 0.0
C1497 C 0.1745 0.61404 0.6586 0.0
N1498 N 0.107 0.63638 0.66496 0.0
N1499 N 0.16008 0.62776 0.65548 0.0
H1500 H -0.03518 0.37062 0.40002 0.0
H1501 H 0.07717 0.39493 0.42659 0.0
H1502 H 0.00648 0.32846 0.42362 0.0
H1503 H 0.03621 0.43939 0.40622 0.0
H1504 H 0.05266 0.36941 0.4198 0.0
H1505 H -0.00825 0.39482 0.39659 0.0
C1506 C -0.02034 0.36632 0.40414 0.0
C1507 C -0.01665 0.34757 0.41238 0.0
C1508 C 0.04902 0.38471 0.4166 0.0
C1509 C 0.01413 0.37516 0.40858 0.0
C1510 C 0.06305 0.39932 0.42048 0.0
C1511 C 0.05864 0.41937 0.41725 0.0
C1512 C 0.03025 0.39011 0.40964 0.0
C1513 C 0.04019 0.42412 0.40903 0.0
C1514 C -0.00499 0.38017 0.40225 0.0
C1515 C 0.00287 0.34282 0.41747 0.0
N1516 N 0.02653 0.4096 0.40579 0.0
N1517 N 0.01743 0.35656 0.41565 0.0
H1518 H 0.43909 0.53157 0.90286 0.0
H1519 H 0.32658 0.50612 0.92927 0.0
H1520 H 0.39691 0.57311 0.92738 0.0
H1521 H 0.36806 0.46201 0.90845 0.0
H1522 H 0.35113 0.53178 0.92315 0.0
H1523 H 0.41248 0.507 0.8996 0.0
C1524 C 0.42421 0.53564 0.90727 0.0
C1525 C 0.42028 0.55436 0.91564 0.0
C1526 C 0.35489 0.51654 0.91971 0.0
C1527 C 0.38985 0.52635 0.91199 0.0
C1528 C 0.34083 0.50184 0.9232 0.0
C1529 C 0.34535 0.48184 0.91962 0.0
C1530 C 0.3738 0.51128 0.9128 0.0
C1531 C 0.36398 0.47725 0.91149 0.0
C1532 C 0.40905 0.52158 0.90546 0.0
C1533 C 0.40072 0.5588 0.92109 0.0
N1534 N 0.37766 0.49184 0.90862 0.0
N1535 N 0.38632 0.54488 0.91931 0.0
H1536 H 0.66436 0.75596 0.83184 0.0
H1537 H 0.64858 0.77941 0.71658 0.0
H1538 H 0.65334 0.71039 0.78801 0.0
H1539 H 0.66383 0.82273 0.76138 0.0
H1540 H 0.64388 0.75465 0.74298 0.0
H1541 H 0.65764 0.7811 0.80688 0.0
C1542 C 0.6603 0.75123 0.81699 0.0
C1543 C 0.65971 0.73104 0.81194 0.0
C1544 C 0.64794 0.76967 0.74701 0.0
C1545 C 0.65224 0.75987 0.78305 0.0
C1546 C 0.65053 0.78382 0.73197 0.0
C1547 C 0.65689 0.80308 0.73679 0.0
C1548 C 0.65164 0.77492 0.76693 0.0
C1549 C 0.65923 0.80798 0.75695 0.0
C1550 C 0.65646 0.76562 0.80269 0.0
C1551 C 0.65407 0.72581 0.79251 0.0
N1552 N 0.65679 0.79398 0.77121 0.0
N1553 N 0.65087 0.74015 0.77865 0.0
H1554 H 0.44528 0.40056 0.03638 0.0
H1555 H 0.37021 0.39462 -0.03462 0.0
H1556 H 0.39964 0.42239 0.07585 0.0
H1557 H 0.33348 0.42113 0.01096 0.0
H1558 H 0.39625 0.39003 -0.01014 0.0
H1559 H 0.42023 0.39361 0.01135 0.0
C1560 C 0.42992 0.40356 0.0399 0.0
C1561 C 0.42461 0.41236 0.05813 0.0
C1562 C 0.38255 0.39677 -0.00533 0.0
C1563 C 0.3956 0.4045 0.02948 0.0
C1564 C 0.36754 0.39925 -0.01938 0.0
C1565 C 0.34973 0.40859 -0.01399 0.0
C1566 C 0.37971 0.40375 0.01427 0.0
C1567 C 0.34706 0.41416 0.00599 0.0
C1568 C 0.4155 0.39962 0.02551 0.0
C1569 C 0.4045 0.41591 0.06189 0.0
N1570 N 0.36191 0.41182 0.01926 0.0
N1571 N 0.39084 0.41215 0.04767 0.0
H1572 H 0.74918 0.19718 0.28514 0.0
H1573 H 0.74006 0.08126 0.26232 0.0
H1574 H 0.73289 0.15247 0.32809 0.0
H1575 H 0.75094 0.12471 0.21649 0.0
H1576 H 0.74453 0.10688 0.2875 0.0
H1577 H 0.75649 0.17078 0.26087 0.0
C1578 C 0.74749 0.18183 0.28957 0.0
C1579 C 0.74013 0.17701 0.30855 0.0
C1580 C 0.74619 0.11085 0.27197 0.0
C1581 C 0.74843 0.14686 0.28099 0.0
C1582 C 0.74368 0.09618 0.25756 0.0
C1583 C 0.74483 0.10092 0.23727 0.0
C1584 C 0.74959 0.13055 0.2661 0.0
C1585 C 0.74983 0.12045 0.23199 0.0
C1586 C 0.75159 0.16679 0.27571 0.0
C1587 C 0.73821 0.1569 0.31352 0.0
N1588 N 0.75168 0.13467 0.24632 0.0
N1589 N 0.74217 0.14263 0.2998 0.0
H1590 H 0.0042 0.47918 0.58015 0.0
H1591 H 0.03142 0.50187 0.46667 0.0
H1592 H -0.03932 0.49714 0.5371 0.0
H1593 H 0.07263 0.48134 0.51088 0.0
H1594 H 0.00628 0.50572 0.49291 0.0
H1595 H 0.0302 0.48561 0.55587 0.0
C1596 C 0.00012 0.48469 0.5656 0.0
C1597 C -0.01979 0.48737 0.56055 0.0
C1598 C 0.02092 0.50064 0.49687 0.0
C1599 C 0.01004 0.49451 0.53241 0.0
C1600 C 0.0353 0.49852 0.48192 0.0
C1601 C 0.05409 0.49101 0.48655 0.0
C1602 C 0.02543 0.4953 0.51654 0.0
C1603 C 0.05828 0.48689 0.50655 0.0
C1604 C 0.01501 0.48837 0.5517 0.0
C1605 C -0.02415 0.49481 0.54156 0.0
N1606 N 0.04404 0.48893 0.52072 0.0
N1607 N -0.00935 0.49783 0.52803 0.0
H1608 H 0.65591 0.19028 0.61958 0.0
H1609 H 0.67338 0.07659 0.64786 0.0
H1610 H 0.68237 0.14647 0.58077 0.0
H1611 H 0.65202 0.12 0.69013 0.0
H1612 H 0.67079 0.1011 0.62149 0.0
H1613 H 0.64883 0.16403 0.64391 0.0
C1614 C 0.65995 0.17513 0.61604 0.0
C1615 C 0.66999 0.1706 0.59822 0.0
C1616 C 0.66646 0.10528 0.63648 0.0
C1617 C 0.66195 0.14061 0.6259 0.0
C1618 C 0.66791 0.09124 0.65157 0.0
C1619 C 0.66318 0.09632 0.6713 0.0
C1620 C 0.66044 0.12469 0.6411 0.0
C1621 C 0.65592 0.11548 0.67514 0.0
C1622 C 0.65596 0.16018 0.62995 0.0
C1623 C 0.67487 0.15072 0.59441 0.0
N1624 N 0.65505 0.12909 0.66021 0.0
N1625 N 0.67094 0.13654 0.60817 0.0
H1626 H 0.03223 0.40048 0.94144 0.0
H1627 H 0.00556 0.42551 0.82863 0.0
H1628 H 0.07356 0.42283 0.89769 0.0
H1629 H -0.03791 0.40537 0.87132 0.0
H1630 H 0.03148 0.41923 0.85272 0.0
H1631 H 0.00738 0.39692 0.91517 0.0
C1632 C 0.0362 0.40429 0.92628 0.0
C1633 C 0.05493 0.41222 0.92181 0.0
C1634 C 0.01632 0.41597 0.85684 0.0
C1635 C 0.02659 0.40828 0.89178 0.0
C1636 C 0.00148 0.41957 0.84305 0.0
C1637 C -0.01842 0.41622 0.84806 0.0
C1638 C 0.01132 0.40919 0.87598 0.0
C1639 C -0.02277 0.40824 0.86689 0.0
C1640 C 0.02198 0.40234 0.91132 0.0
C1641 C 0.05924 0.41692 0.90191 0.0
N1642 N -0.00803 0.40527 0.8803 0.0
N1643 N 0.04516 0.41505 0.88772 0.0
H1644 H 0.75395 0.77953 0.19183 0.0
H1645 H 0.7417 0.7538 0.07654 0.0
H1646 H 0.74135 0.8221 0.14576 0.0
H1647 H 0.7497 0.70903 0.12155 0.0
H1648 H 0.74863 0.77934 0.10121 0.0
H1649 H 0.7593 0.75415 0.16604 0.0
C1650 C 0.75274 0.78365 0.1763 0.0
C1651 C 0.7469 0.80287 0.17093 0.0
C1652 C 0.74912 0.76394 0.10573 0.0
C1653 C 0.75288 0.77399 0.14147 0.0
C1654 C 0.74517 0.74933 0.09161 0.0
C1655 C 0.74481 0.72927 0.09707 0.0
C1656 C 0.75246 0.75857 0.12561 0.0
C1657 C 0.7497 0.72434 0.11675 0.0
C1658 C 0.75569 0.76913 0.1616 0.0
C1659 C 0.74552 0.80739 0.1506 0.0
N1660 N 0.753 0.73893 0.13043 0.0
N1661 N 0.74828 0.79303 0.13667 0.0
H1662 H 0.32737 0.48679 0.39647 0.0
H1663 H 0.44134 0.50174 0.36889 0.0
H1664 H 0.37073 0.50603 0.4393 0.0
H1665 H 0.39659 0.48108 0.32818 0.0
H1666 H 0.41531 0.50884 0.39356 0.0
H1667 H 0.3519 0.49038 0.37007 0.0
C1668 C 0.34202 0.49202 0.40029 0.0
C1669 C 0.34708 0.49585 0.42015 0.0
C1670 C 0.41121 0.50301 0.37911 0.0
C1671 C 0.37549 0.49968 0.38994 0.0
C1672 C 0.42605 0.49902 0.36501 0.0
C1673 C 0.42116 0.49052 0.34656 0.0
C1674 C 0.39141 0.49854 0.37463 0.0
C1675 C 0.40111 0.48732 0.34232 0.0
C1676 C 0.35607 0.49406 0.38519 0.0
C1677 C 0.36624 0.50283 0.42418 0.0
N1678 N 0.38705 0.49116 0.35628 0.0
N1679 N 0.37988 0.50421 0.40923 0.0
H1680 H 0.71453 0.65076 0.7852 0.0
H1681 H 0.82649 0.68048 0.76062 0.0
H1682 H 0.75476 0.678 0.82683 0.0
H1683 H 0.7868 0.65697 0.71631 0.0
H1684 H 0.80148 0.67467 0.78609 0.0
H1685 H 0.74169 0.64818 0.76093 0.0
C1686 C 0.7291 0.65593 0.78935 0.0
C1687 C 0.7323 0.66482 0.80802 0.0
C1688 C 0.79822 0.6706 0.77085 0.0
C1689 C 0.76337 0.66194 0.78035 0.0
C1690 C 0.81254 0.67391 0.75626 0.0
C1691 C 0.80866 0.66944 0.73623 0.0
C1692 C 0.77969 0.66293 0.76546 0.0
C1693 C 0.79039 0.66071 0.73155 0.0
C1694 C 0.74458 0.65451 0.77547 0.0
C1695 C 0.7515 0.67126 0.81257 0.0
N1696 N 0.77645 0.65797 0.74604 0.0
N1697 N 0.76621 0.66981 0.79882 0.0
H1698 H 0.50586 0.46434 0.03289 0.0
H1699 H 0.48295 0.57807 0.00942 0.0
H1700 H 0.48403 0.50695 0.07575 0.0
H1701 H 0.49971 0.53581 -0.03601 0.0
H1702 H 0.48941 0.55324 0.03476 0.0
H1703 H 0.50959 0.49117 0.00851 0.0
C1704 C 0.50219 0.47936 0.03729 0.0
C1705 C 0.49436 0.48337 0.05631 0.0
C1706 C 0.49189 0.54939 0.01928 0.0
C1707 C 0.49853 0.51403 0.02854 0.0
C1708 C 0.48821 0.5636 0.00477 0.0
C1709 C 0.49052 0.55893 -0.01549 0.0
C1710 C 0.49772 0.5302 0.01358 0.0
C1711 C 0.49763 0.54 -0.02057 0.0
C1712 C 0.50424 0.49465 0.02335 0.0
C1713 C 0.48985 0.5031 0.06119 0.0
N1714 N 0.50071 0.5262 -0.00614 0.0
N1715 N 0.49184 0.51762 0.04737 0.0
H1716 H 0.61741 0.25268 0.21324 0.0
H1717 H 0.64562 0.23845 0.32751 0.0
H1718 H 0.5767 0.23446 0.25945 0.0
H1719 H 0.68791 0.25714 0.28299 0.0
H1720 H 0.61926 0.24203 0.3033 0.0
H1721 H 0.64237 0.25934 0.23883 0.0
C1722 C 0.6136 0.25041 0.22876 0.0
C1723 C 0.59503 0.24272 0.23418 0.0
C1724 C 0.63426 0.24558 0.2988 0.0
C1725 C 0.62347 0.25021 0.26345 0.0
C1726 C 0.64934 0.24354 0.31267 0.0
C1727 C 0.66904 0.24726 0.30721 0.0
C1728 C 0.63885 0.25111 0.27915 0.0
C1729 C 0.67293 0.25404 0.28781 0.0
C1730 C 0.62787 0.25415 0.24335 0.0
C1731 C 0.5909 0.24008 0.25451 0.0
N1732 N 0.65799 0.25546 0.27436 0.0
N1733 N 0.60503 0.24363 0.26833 0.0
H1734 H 0.91383 0.39513 0.57723 0.0
H1735 H 0.90246 0.36939 0.46174 0.0
H1736 H 0.89938 0.43918 0.53318 0.0
H1737 H 0.91929 0.32768 0.5072 0.0
H1738 H 0.89553 0.39407 0.48787 0.0
H1739 H 0.90981 0.3693 0.5522 0.0
C1740 C 0.90956 0.39935 0.56231 0.0
C1741 C 0.9072 0.41936 0.55723 0.0
C1742 C 0.90047 0.37941 0.49209 0.0
C1743 C 0.90291 0.38978 0.52824 0.0
C1744 C 0.90435 0.36531 0.4772 0.0
C1745 C 0.91175 0.34655 0.48229 0.0
C1746 C 0.90392 0.37462 0.51214 0.0
C1747 C 0.91393 0.34205 0.50254 0.0
C1748 C 0.90728 0.38457 0.54797 0.0
C1749 C 0.90142 0.42392 0.53771 0.0
N1750 N 0.9102 0.356 0.51666 0.0
N1751 N 0.89979 0.40925 0.5238 0.0
H1752 H 0.82712 0.23696 0.65104 0.0
H1753 H 0.71327 0.25384 0.62666 0.0
H1754 H 0.78351 0.24919 0.69656 0.0
H1755 H 0.75871 0.24159 0.58299 0.0
H1756 H 0.73902 0.25816 0.65198 0.0
H1757 H 0.80282 0.24463 0.62566 0.0
C1758 C 0.81244 0.24149 0.65569 0.0
C1759 C 0.80725 0.24217 0.67593 0.0
C1760 C 0.74333 0.25488 0.63677 0.0
C1761 C 0.77907 0.25068 0.64683 0.0
C1762 C 0.72865 0.25252 0.6223 0.0
C1763 C 0.73386 0.24705 0.60276 0.0
C1764 C 0.76327 0.2518 0.63157 0.0
C1765 C 0.754 0.24548 0.59794 0.0
C1766 C 0.79852 0.24589 0.64118 0.0
C1767 C 0.78808 0.2484 0.6811 0.0
N1768 N 0.7679 0.24762 0.61225 0.0
N1769 N 0.77454 0.25209 0.66662 0.0
H1770 H 0.89831 0.4637 0.87553 0.0
H1771 H 0.92043 0.57703 0.90172 0.0
H1772 H 0.91772 0.50781 0.83323 0.0
H1773 H 0.90368 0.53393 0.94614 0.0
H1774 H 0.9136 0.55279 0.87577 0.0
H1775 H 0.89444 0.48992 0.90067 0.0
C1776 C 0.90139 0.47892 0.87141 0.0
C1777 C 0.90863 0.48354 0.85232 0.0
C1778 C 0.9112 0.54861 0.89116 0.0
C1779 C 0.90433 0.5135 0.88098 0.0
C1780 C 0.91511 0.56248 0.90602 0.0
C1781 C 0.91291 0.5574 0.92615 0.0
C1782 C 0.90528 0.52933 0.89638 0.0
C1783 C 0.90568 0.53841 0.93079 0.0
C1784 C 0.89926 0.49386 0.8858 0.0
C1785 C 0.91239 0.5035 0.84782 0.0
N1786 N 0.90242 0.52493 0.91601 0.0
N1787 N 0.91037 0.51766 0.86207 0.0
H1788 H 0.57563 0.67728 0.14739 0.0
H1789 H 0.68816 0.64934 0.12342 0.0
H1790 H 0.6157 0.65552 0.19208 0.0
H1791 H 0.64828 0.67722 0.0821 0.0
H1792 H 0.66084 0.64638 0.14744 0.0
H1793 H 0.60091 0.67184 0.12208 0.0
C1794 C 0.58972 0.67115 0.15187 0.0
C1795 C 0.59363 0.6671 0.17196 0.0
C1796 C 0.65807 0.65295 0.13303 0.0
C1797 C 0.62288 0.66103 0.14292 0.0
C1798 C 0.67363 0.6546 0.11929 0.0
C1799 C 0.67056 0.66375 0.10078 0.0
C1800 C 0.63932 0.66039 0.12815 0.0
C1801 C 0.65142 0.67027 0.09625 0.0
C1802 C 0.60419 0.66807 0.13738 0.0
C1803 C 0.61208 0.65893 0.17679 0.0
N1804 N 0.63661 0.66857 0.10986 0.0
N1805 N 0.62615 0.6564 0.16239 0.0
H1806 H 0.48261 0.39655 0.32855 0.0
H1807 H 0.49788 0.36853 0.44298 0.0
H1808 H 0.50131 0.43914 0.37272 0.0
H1809 H 0.47359 0.32948 0.39831 0.0
H1810 H 0.50519 0.39293 0.41684 0.0
H1811 H 0.48561 0.37029 0.3531 0.0
C1812 C 0.48759 0.40035 0.34339 0.0
C1813 C 0.49143 0.42013 0.34866 0.0
C1814 C 0.4985 0.3789 0.41277 0.0
C1815 C 0.49462 0.39004 0.37708 0.0
C1816 C 0.4944 0.36495 0.42766 0.0
C1817 C 0.48486 0.34705 0.42285 0.0
C1818 C 0.49315 0.37481 0.39298 0.0
C1819 C 0.48067 0.34319 0.40277 0.0
C1820 C 0.48927 0.38532 0.35745 0.0
C1821 C 0.4981 0.4241 0.36805 0.0
N1822 N 0.4847 0.35698 0.38865 0.0
N1823 N 0.49919 0.40922 0.38168 0.0
H1824 H 0.71145 0.78447 0.65728 0.0
H1825 H 0.8262 0.75974 0.66968 0.0
H1826 H 0.75563 0.82542 0.67871 0.0
H1827 H 0.78278 0.71541 0.65425 0.0
H1828 H 0.80114 0.78533 0.66618 0.0
H1829 H 0.73778 0.76046 0.64973 0.0
C1830 C 0.72668 0.78854 0.66007 0.0
C1831 C 0.73134 0.80685 0.66891 0.0
C1832 C 0.79707 0.77005 0.66332 0.0
C1833 C 0.76141 0.77957 0.66032 0.0
C1834 C 0.81142 0.75541 0.66529 0.0
C1835 C 0.80651 0.73537 0.66255 0.0
C1836 C 0.77752 0.76467 0.65884 0.0
C1837 C 0.78717 0.73068 0.6566 0.0
C1838 C 0.74168 0.77481 0.65583 0.0
C1839 C 0.75131 0.81136 0.67221 0.0
N1840 N 0.77326 0.74521 0.65526 0.0
N1841 N 0.76554 0.79779 0.66806 0.0
H1842 H 0.20747 0.6175 0.25306 0.0
H1843 H 0.32233 0.64385 0.24544 0.0
H1844 H 0.25358 0.57644 0.23626 0.0
H1845 H 0.27749 0.68792 0.25696 0.0
H1846 H 0.29756 0.61792 0.2493 0.0
H1847 H 0.2329 0.64225 0.2612 0.0
C1848 C 0.22292 0.61357 0.25142 0.0
C1849 C 0.22842 0.59499 0.24368 0.0
C1850 C 0.2931 0.63322 0.25125 0.0
C1851 C 0.25748 0.62312 0.25295 0.0
C1852 C 0.30728 0.64805 0.2491 0.0
C1853 C 0.3019 0.66807 0.25059 0.0
C1854 C 0.27324 0.63839 0.25461 0.0
C1855 C 0.28223 0.67265 0.25561 0.0
C1856 C 0.23741 0.62771 0.25601 0.0
C1857 C 0.24864 0.59068 0.24187 0.0
N1858 N 0.26849 0.65791 0.25708 0.0
N1859 N 0.26237 0.60466 0.2463 0.0
H1860 H 0.50529 0.0782 0.4843 0.0
H1861 H 0.53516 -0.0349 0.50246 0.0
H1862 H 0.46426 0.03457 0.50698 0.0
H1863 H 0.5736 0.00959 0.477 0.0
H1864 H 0.51047 -0.00904 0.50925 0.0
H1865 H 0.53186 0.05409 0.48688 0.0
C1866 C 0.5019 0.06358 0.49004 0.0
C1867 C 0.48245 0.05833 0.49518 0.0
C1868 C 0.52442 -0.00495 0.5024 0.0
C1869 C 0.5129 0.03041 0.49792 0.0
C1870 C 0.53854 -0.01969 0.49857 0.0
C1871 C 0.55638 -0.01486 0.4889 0.0
C1872 C 0.52826 0.01471 0.49658 0.0
C1873 C 0.55996 0.0051 0.48421 0.0
C1874 C 0.51711 0.04977 0.49149 0.0
C1875 C 0.47903 0.03922 0.50277 0.0
N1876 N 0.546 0.01906 0.48796 0.0
N1877 N 0.49406 0.02583 0.50364 0.0
H1878 H 0.19142 0.28621 0.75288 0.0
H1879 H 0.07709 0.26023 0.73871 0.0
H1880 H 0.14719 0.32694 0.7316 0.0
H1881 H 0.12026 0.21687 0.75674 0.0
H1882 H 0.10194 0.28614 0.74207 0.0
H1883 H 0.16514 0.26201 0.76007 0.0
C1884 C 0.17619 0.29019 0.75004 0.0
C1885 C 0.17152 0.30851 0.74136 0.0
C1886 C 0.106 0.27101 0.74552 0.0
C1887 C 0.14149 0.28099 0.74949 0.0
C1888 C 0.09177 0.25618 0.74362 0.0
C1889 C 0.09667 0.2363 0.74717 0.0
C1890 C 0.12543 0.26597 0.75076 0.0
C1891 C 0.11588 0.232 0.75375 0.0
C1892 C 0.16121 0.27636 0.75408 0.0
C1893 C 0.15154 0.31289 0.738 0.0
N1894 N 0.12968 0.24668 0.75503 0.0
N1895 N 0.13734 0.29921 0.74191 0.0
H1896 H 0.36746 0.44816 0.50512 0.0
H1897 H 0.44158 0.37573 0.50643 0.0
H1898 H 0.33131 0.4011 0.48118 0.0
H1899 H 0.3948 0.33466 0.49205 0.0
H1900 H 0.41708 0.40204 0.51018 0.0
H1901 H 0.39279 0.42375 0.51341 0.0
C1902 C 0.36479 0.43267 0.50177 0.0
C1903 C 0.34738 0.42674 0.49211 0.0
C1904 C 0.41199 0.38725 0.50668 0.0
C1905 C 0.37646 0.39863 0.50118 0.0
C1906 C 0.42608 0.37215 0.50458 0.0
C1907 C 0.42026 0.35304 0.49863 0.0
C1908 C 0.39194 0.38309 0.50288 0.0
C1909 C 0.40001 0.34924 0.49634 0.0
C1910 C 0.37938 0.41868 0.50635 0.0
C1911 C 0.34463 0.40646 0.48829 0.0
N1912 N 0.38668 0.36414 0.49824 0.0
N1913 N 0.35903 0.39325 0.49268 0.0
H1914 H 0.61859 0.18845 0.15269 0.0
H1915 H 0.64437 0.07824 0.18673 0.0
H1916 H 0.57692 0.14764 0.17923 0.0
H1917 H 0.68736 0.11727 0.15966 0.0
H1918 H 0.61859 0.10227 0.17967 0.0
H1919 H 0.64291 0.16154 0.15061 0.0
C1920 C 0.61442 0.17378 0.15775 0.0
C1921 C 0.59577 0.17037 0.16641 0.0
C1922 C 0.63361 0.10559 0.17508 0.0
C1923 C 0.62352 0.13963 0.1642 0.0
C1924 C 0.64838 0.09184 0.17914 0.0
C1925 C 0.66811 0.09585 0.17401 0.0
C1926 C 0.63855 0.12369 0.16602 0.0
C1927 C 0.67235 0.11362 0.16396 0.0
C1928 C 0.62834 0.15845 0.15663 0.0
C1929 C 0.59119 0.15106 0.17271 0.0
N1930 N 0.65772 0.12703 0.16053 0.0
N1931 N 0.60501 0.13652 0.17165 0.0
H1932 H 0.5775 0.89579 0.92721 0.0
H1933 H 0.46496 0.87077 0.90121 0.0
H1934 H 0.53633 0.94002 0.90673 0.0
H1935 H 0.50629 0.82956 0.92695 0.0
H1936 H 0.49179 0.89512 0.89791 0.0
H1937 H 0.55267 0.87029 0.92168 0.0
C1938 C 0.56326 0.90014 0.92135 0.0
C1939 C 0.55892 0.92014 0.91769 0.0
C1940 C 0.49499 0.88066 0.90406 0.0
C1941 C 0.53017 0.89087 0.91151 0.0
C1942 C 0.47971 0.86673 0.90589 0.0
C1943 C 0.48333 0.84816 0.91459 0.0
C1944 C 0.51401 0.87591 0.91088 0.0
C1945 C 0.50273 0.84375 0.92039 0.0
C1946 C 0.54904 0.88553 0.91821 0.0
C1947 C 0.54028 0.92479 0.90985 0.0
N1948 N 0.51725 0.85754 0.91855 0.0
N1949 N 0.52647 0.91029 0.90726 0.0
H1950 H 0.89487 0.07653 0.42417 0.0
H1951 H 0.86716 -0.03779 0.40885 0.0
H1952 H 0.93744 0.03269 0.40509 0.0
H1953 H 0.82848 0.00648 0.43437 0.0
H1954 H 0.89143 -0.01163 0.40146 0.0
H1955 H 0.86879 0.05179 0.42152 0.0
C1956 C 0.89871 0.06172 0.41917 0.0
C1957 C 0.91842 0.0566 0.41513 0.0
C1958 C 0.87751 -0.00767 0.40845 0.0
C1959 C 0.88855 0.02798 0.41236 0.0
C1960 C 0.86364 -0.02257 0.41262 0.0
C1961 C 0.84588 -0.01787 0.42249 0.0
C1962 C 0.87346 0.01203 0.41406 0.0
C1963 C 0.84209 0.0021 0.42702 0.0
C1964 C 0.88378 0.04756 0.4177 0.0
C1965 C 0.92244 0.03724 0.40845 0.0
N1966 N 0.85579 0.01623 0.42289 0.0
N1967 N 0.90766 0.02351 0.40757 0.0
H1968 H 0.01755 0.09413 0.35645 0.0
H1969 H 0.09811 0.15226 0.33003 0.0
H1970 H 0.05449 0.08299 0.40738 0.0
H1971 H 0.13384 0.10565 0.35484 0.0
H1972 H 0.06833 0.13381 0.33955 0.0
H1973 H 0.04693 0.10463 0.33763 0.0
C1974 C 0.03189 0.09345 0.36353 0.0
C1975 C 0.03358 0.08793 0.38359 0.0
C1976 C 0.08268 0.12734 0.34239 0.0
C1977 C 0.06706 0.10001 0.36223 0.0
C1978 C 0.09965 0.1379 0.33705 0.0
C1979 C 0.11841 0.13041 0.3416 0.0
C1980 C 0.08451 0.10942 0.35283 0.0
C1981 C 0.11963 0.11184 0.35091 0.0
C1982 C 0.04857 0.09962 0.35284 0.0
C1983 C 0.05252 0.08736 0.39202 0.0
N1984 N 0.10288 0.10219 0.35669 0.0
N1985 N 0.06854 0.09344 0.38132 0.0
H1986 H 0.05155 0.88619 0.59532 0.0
H1987 H 0.07842 0.80619 0.65387 0.0
H1988 H 0.00266 0.84711 0.58246 0.0
H1989 H 0.05615 0.76964 0.60616 0.0
H1990 H 0.06895 0.83577 0.63514 0.0
H1991 H 0.07094 0.85746 0.60608 0.0
C1992 C 0.04506 0.87152 0.5943 0.0
C1993 C 0.02538 0.86902 0.58824 0.0
C1994 C 0.06668 0.82129 0.62851 0.0
C1995 C 0.04736 0.83629 0.60062 0.0
C1996 C 0.07198 0.80443 0.63923 0.0
C1997 C 0.06807 0.78548 0.63152 0.0
C1998 C 0.05694 0.81915 0.6102 0.0
C1999 C 0.05954 0.78399 0.61256 0.0
C2000 C 0.05606 0.85521 0.60063 0.0
C2001 C 0.0177 0.8497 0.58726 0.0
N2002 N 0.05377 0.80062 0.60276 0.0
N2003 N 0.02868 0.83405 0.5935 0.0
H2004 H 0.35012 0.82699 0.9015 0.0
H2005 H 0.26982 0.80122 0.84334 0.0
H2006 H 0.38601 0.80095 0.85505 0.0
H2007 H 0.30618 0.74972 0.83245 0.0
H2008 H 0.29935 0.81959 0.85369 0.0
H2009 H 0.32041 0.81772 0.88299 0.0
C2010 C 0.35172 0.81974 0.88716 0.0
C2011 C 0.37049 0.81478 0.87974 0.0
C2012 C 0.30084 0.80435 0.84877 0.0
C2013 C 0.33667 0.80385 0.85866 0.0
C2014 C 0.28407 0.79391 0.84268 0.0
C2015 C 0.28554 0.77383 0.83729 0.0
C2016 C 0.3192 0.79468 0.84924 0.0
C2017 C 0.30437 0.76511 0.83673 0.0
C2018 C 0.33479 0.81455 0.87656 0.0
C2019 C 0.37178 0.8052 0.86118 0.0
N2020 N 0.32048 0.77557 0.84276 0.0
N2021 N 0.35506 0.79958 0.8515 0.0
H2022 H 0.35598 0.10487 0.16762 0.0
H2023 H 0.3595 0.028 0.08187 0.0
H2024 H 0.33054 0.12573 0.11269 0.0
H2025 H 0.41284 0.04943 0.10974 0.0
H2026 H 0.34173 0.05718 0.09528 0.0
H2027 H 0.36901 0.07606 0.14992 0.0
C2028 C 0.35275 0.10322 0.15193 0.0
C2029 C 0.34232 0.11788 0.14158 0.0
C2030 C 0.35739 0.05549 0.09808 0.0
C2031 C 0.35712 0.08479 0.12138 0.0
C2032 C 0.36753 0.03895 0.09046 0.0
C2033 C 0.38767 0.03622 0.09478 0.0
C2034 C 0.36743 0.06889 0.11043 0.0
C2035 C 0.39734 0.05083 0.10605 0.0
C2036 C 0.36029 0.08682 0.14186 0.0
C2037 C 0.33861 0.11482 0.12119 0.0
N2038 N 0.38705 0.06629 0.11381 0.0
N2039 N 0.34612 0.09857 0.11164 0.0
H2040 H 0.12266 0.79323 0.07602 0.0
H2041 H 0.04853 0.79757 -0.01127 0.0
H2042 H 0.10255 0.74012 0.0462 0.0
H2043 H 0.02587 0.82191 0.04388 0.0
H2044 H 0.07695 0.78464 0.00664 0.0
H2045 H 0.09389 0.81112 0.06242 0.0
C2046 C 0.11208 0.78527 0.06695 0.0
C2047 C 0.11507 0.76516 0.06216 0.0
C2048 C 0.06588 0.79312 0.01471 0.0
C2049 C 0.08289 0.78555 0.04629 0.0
C2050 C 0.0497 0.8006 0.00453 0.0
C2051 C 0.03464 0.81065 0.01486 0.0
C2052 C 0.06728 0.79597 0.0353 0.0
C2053 C 0.03709 0.81412 0.03538 0.0
C2054 C 0.09578 0.79548 0.05923 0.0
C2055 C 0.10094 0.75559 0.05028 0.0
N2056 N 0.05313 0.80666 0.04505 0.0
N2057 N 0.08572 0.76595 0.04245 0.0
H2058 H 0.41172 0.85254 0.30533 0.0
H2059 H 0.3274 0.7765 0.30033 0.0
H2060 H 0.35635 0.87687 0.32643 0.0
H2061 H 0.35408 0.79905 0.24634 0.0
H2062 H 0.34014 0.80582 0.31835 0.0
H2063 H 0.394 0.82355 0.29291 0.0
C2064 C 0.3959 0.85163 0.30779 0.0
C2065 C 0.38546 0.8673 0.31674 0.0
C2066 C 0.34279 0.80434 0.30249 0.0
C2067 C 0.36529 0.83402 0.30271 0.0
C2068 C 0.33557 0.78772 0.29221 0.0
C2069 C 0.33979 0.78526 0.27181 0.0
C2070 C 0.35458 0.81813 0.2923 0.0
C2071 C 0.35051 0.80023 0.26203 0.0
C2072 C 0.38585 0.83511 0.30062 0.0
C2073 C 0.36492 0.86517 0.3195 0.0
N2074 N 0.35787 0.81579 0.27245 0.0
N2075 N 0.35539 0.84882 0.31233 0.0
H2076 H 0.34708 0.07408 0.50627 0.0
H2077 H 0.26515 0.10082 0.56254 0.0
H2078 H 0.3818 0.09752 0.55462 0.0
H2079 H 0.30351 0.14993 0.57695 0.0
H2080 H 0.29425 0.08133 0.55267 0.0
H2081 H 0.31693 0.08292 0.52455 0.0
C2082 C 0.34833 0.0806 0.52097 0.0
C2083 C 0.36691 0.08509 0.52896 0.0
C2084 C 0.29625 0.09628 0.55826 0.0
C2085 C 0.33258 0.0955 0.54979 0.0
C2086 C 0.27972 0.10734 0.56407 0.0
C2087 C 0.28195 0.12711 0.57029 0.0
C2088 C 0.31509 0.10503 0.55895 0.0
C2089 C 0.30115 0.13482 0.57198 0.0
C2090 C 0.33113 0.08555 0.53145 0.0
C2091 C 0.36774 0.0937 0.548 0.0
N2092 N 0.317 0.1238 0.56622 0.0
N2093 N 0.35079 0.09914 0.55755 0.0
H2094 H 0.05757 0.13697 0.80374 0.0
H2095 H 0.05231 0.01873 0.80596 0.0
H2096 H 0.07635 0.10045 0.75429 0.0
H2097 H 0.00628 0.05606 0.83017 0.0
H2098 H 0.07063 0.04856 0.7958 0.0
H2099 H 0.04836 0.1069 0.82211 0.0
C2100 C 0.06029 0.12262 0.79698 0.0
C2101 C 0.06756 0.12115 0.7774 0.0
C2102 C 0.05674 0.05014 0.80377 0.0
C2103 C 0.05729 0.08691 0.79838 0.0
C2104 C 0.04636 0.0332 0.80969 0.0
C2105 C 0.02771 0.035 0.81878 0.0
C2106 C 0.04859 0.06893 0.80742 0.0
C2107 C 0.02056 0.05407 0.82307 0.0
C2108 C 0.05493 0.10553 0.80742 0.0
C2109 C 0.07063 0.1022 0.76929 0.0
N2110 N 0.03098 0.07034 0.81727 0.0
N2111 N 0.06539 0.08577 0.77979 0.0
H2112 H 0.10005 0.34485 0.13814 0.0
H2113 H 0.07582 0.4042 0.05757 0.0
H2114 H 0.14913 0.3305 0.09939 0.0
H2115 H 0.09704 0.35584 0.02112 0.0
H2116 H 0.08471 0.38541 0.08739 0.0
H2117 H 0.08149 0.35647 0.10914 0.0
C2118 C 0.10674 0.34369 0.12348 0.0
C2119 C 0.12624 0.33692 0.12116 0.0
C2120 C 0.08688 0.37869 0.07288 0.0
C2121 C 0.10521 0.35027 0.08812 0.0
C2122 C 0.08191 0.38943 0.05588 0.0
C2123 C 0.08567 0.38152 0.0369 0.0
C2124 C 0.09613 0.36014 0.07082 0.0
C2125 C 0.09377 0.3624 0.03551 0.0
C2126 C 0.09622 0.35051 0.10702 0.0
C2127 C 0.13421 0.33581 0.10184 0.0
N2128 N 0.09921 0.35255 0.05225 0.0
N2129 N 0.12368 0.34252 0.08605 0.0
H2130 H 0.6031 0.05829 0.76911 0.0
H2131 H 0.57666 -0.00057 0.84962 0.0
H2132 H 0.65162 0.07217 0.80822 0.0
H2133 H 0.59764 0.04772 0.88611 0.0
H2134 H 0.58621 0.01812 0.81983 0.0
H2135 H 0.58376 0.04709 0.79799 0.0
C2136 C 0.60951 0.05944 0.78381 0.0
C2137 C 0.62908 0.06594 0.78628 0.0
C2138 C 0.58818 0.02487 0.83434 0.0
C2139 C 0.60714 0.05306 0.81918 0.0
C2140 C 0.58282 0.01417 0.85132 0.0
C2141 C 0.58633 0.02208 0.87031 0.0
C2142 C 0.59758 0.04335 0.83643 0.0
C2143 C 0.59454 0.04117 0.87172 0.0
C2144 C 0.59854 0.05286 0.80022 0.0
C2145 C 0.63666 0.06706 0.80566 0.0
N2146 N 0.60038 0.05096 0.855 0.0
N2147 N 0.6257 0.06058 0.82139 0.0
H2148 H 0.79224 0.8281 0.28004 0.0
H2149 H 0.79801 0.91437 0.35593 0.0
H2150 H 0.73966 0.85815 0.30086 0.0
H2151 H 0.82091 0.85893 0.3781 0.0
H2152 H 0.78479 0.89685 0.32713 0.0
H2153 H 0.81016 0.84117 0.30925 0.0
C2154 C 0.7844 0.83711 0.29087 0.0
C2155 C 0.76444 0.84212 0.28797 0.0
C2156 C 0.79301 0.88863 0.33818 0.0
C2157 C 0.78487 0.85738 0.32065 0.0
C2158 C 0.80066 0.89858 0.35457 0.0
C2159 C 0.8104 0.88806 0.3696 0.0
C2160 C 0.79539 0.86808 0.33652 0.0
C2161 C 0.81337 0.86757 0.3669 0.0
C2162 C 0.79462 0.84453 0.30742 0.0
C2163 C 0.75501 0.85391 0.30242 0.0
N2164 N 0.80577 0.85813 0.35065 0.0
N2165 N 0.7654 0.86145 0.31789 0.0
H2166 H 0.73599 0.05057 0.10553 0.0
H2167 H 0.82321 0.04642 0.02986 0.0
H2168 H 0.79102 0.07438 0.12762 0.0
H2169 H 0.79226 -0.00637 0.04884 0.0
H2170 H 0.80949 0.06414 0.05911 0.0
H2171 H 0.75347 0.03797 0.07629 0.0
C2172 C 0.75167 0.05356 0.10406 0.0
C2173 C 0.7621 0.06335 0.1192 0.0
C2174 C 0.80605 0.04861 0.05684 0.0
C2175 C 0.78205 0.04904 0.08563 0.0
C2176 C 0.81383 0.0385 0.04027 0.0
C2177 C 0.80882 0.01853 0.03688 0.0
C2178 C 0.79282 0.03873 0.06956 0.0
C2179 C 0.79654 0.00898 0.0508 0.0
C2180 C 0.76161 0.04626 0.08742 0.0
C2181 C 0.78246 0.06678 0.11635 0.0
N2182 N 0.78868 0.01927 0.06629 0.0
N2183 N 0.79189 0.0595 0.09987 0.0
H2184 H 0.30247 0.55279 0.51862 0.0
H2185 H 0.29757 0.55773 0.63728 0.0
H2186 H 0.32545 0.50647 0.55611 0.0
H2187 H 0.24942 0.57656 0.59999 0.0
H2188 H 0.31636 0.54839 0.60732 0.0
H2189 H 0.29168 0.57091 0.54853 0.0
C2190 C 0.30576 0.54672 0.53315 0.0
C2191 C 0.31472 0.52805 0.53495 0.0
C2192 C 0.30186 0.55499 0.60576 0.0
C2193 C 0.30264 0.54872 0.56899 0.0
C2194 C 0.29118 0.56042 0.62278 0.0
C2195 C 0.27186 0.56777 0.62106 0.0
C2196 C 0.2933 0.55736 0.58695 0.0
C2197 C 0.26422 0.5708 0.60193 0.0
C2198 C 0.29949 0.55699 0.55013 0.0
C2199 C 0.31846 0.52076 0.55411 0.0
N2200 N 0.27494 0.5655 0.58558 0.0
N2201 N 0.31232 0.53109 0.57043 0.0
H2202 H 0.14938 0.5766 0.30696 0.0
H2203 H 0.09233 0.54853 0.38836 0.0
H2204 H 0.10291 0.5513 0.27122 0.0
H2205 H 0.08214 0.4978 0.35043 0.0
H2206 H 0.10228 0.56775 0.359 0.0
H2207 H 0.13137 0.56659 0.33706 0.0
C2208 C 0.13514 0.56938 0.30549 0.0
C2209 C 0.12757 0.56481 0.28663 0.0
C2210 C 0.0976 0.55249 0.35714 0.0
C2211 C 0.10711 0.55302 0.32087 0.0
C2212 C 0.09175 0.54156 0.37382 0.0
C2213 C 0.08666 0.52146 0.37182 0.0
C2214 C 0.09808 0.54329 0.33837 0.0
C2215 C 0.0862 0.51319 0.35263 0.0
C2216 C 0.12483 0.56376 0.32264 0.0
C2217 C 0.10915 0.55525 0.28551 0.0
N2218 N 0.09194 0.52412 0.33662 0.0
N2219 N 0.09978 0.54919 0.30241 0.0
H2220 H 0.32443 0.40373 0.85086 0.0
H2221 H 0.25031 0.32823 0.80769 0.0
H2222 H 0.30443 0.35499 0.8873 0.0
H2223 H 0.29815 0.34956 0.77075 0.0
H2224 H 0.2688 0.3385 0.83731 0.0
H2225 H 0.3143 0.38523 0.82109 0.0
C2226 C 0.31826 0.38898 0.85255 0.0
C2227 C 0.31522 0.38087 0.87153 0.0
C2228 C 0.2754 0.34053 0.82272 0.0
C2229 C 0.30312 0.35999 0.83772 0.0
C2230 C 0.26487 0.33471 0.80585 0.0
C2231 C 0.27272 0.33809 0.78679 0.0
C2232 C 0.29359 0.35036 0.82043 0.0
C2233 C 0.29162 0.34662 0.7852 0.0
C2234 C 0.31253 0.37845 0.83559 0.0
C2235 C 0.3071 0.36174 0.87292 0.0
N2236 N 0.30123 0.35291 0.8018 0.0
N2237 N 0.30089 0.35211 0.85625 0.0
H2238 H 0.51728 0.59396 0.85447 0.0
H2239 H 0.59861 0.65079 0.82795 0.0
H2240 H 0.55463 0.58132 0.90472 0.0
H2241 H 0.63382 0.60368 0.85258 0.0
H2242 H 0.56864 0.63248 0.83705 0.0
H2243 H 0.54665 0.60399 0.83535 0.0
C2244 C 0.53169 0.59286 0.86132 0.0
C2245 C 0.53353 0.58708 0.88129 0.0
C2246 C 0.58291 0.62585 0.83991 0.0
C2247 C 0.56699 0.59862 0.85963 0.0
C2248 C 0.6 0.63634 0.83482 0.0
C2249 C 0.61867 0.62869 0.83951 0.0
C2250 C 0.58453 0.60783 0.85022 0.0
C2251 C 0.61969 0.61 0.84858 0.0
C2252 C 0.54838 0.59876 0.85048 0.0
C2253 C 0.55255 0.58594 0.88944 0.0
N2254 N 0.60282 0.60042 0.85413 0.0
N2255 N 0.56856 0.59177 0.87861 0.0
H2256 H 0.55633 0.26752 0.10521 0.0
H2257 H 0.55186 0.38555 0.09811 0.0
H2258 H 0.57736 0.30605 0.15195 0.0
H2259 H 0.50456 0.34763 0.07794 0.0
H2260 H 0.57026 0.35606 0.10861 0.0
H2261 H 0.54651 0.29681 0.08606 0.0
C2262 C 0.55943 0.28214 0.11118 0.0
C2263 C 0.56752 0.28441 0.13025 0.0
C2264 C 0.55606 0.35425 0.10146 0.0
C2265 C 0.55654 0.31777 0.10839 0.0
C2266 C 0.54561 0.37101 0.09535 0.0
C2267 C 0.52661 0.36898 0.08729 0.0
C2268 C 0.54761 0.3354 0.09905 0.0
C2269 C 0.51911 0.34981 0.08423 0.0
C2270 C 0.5537 0.29878 0.1003 0.0
C2271 C 0.57103 0.30368 0.13736 0.0
N2272 N 0.52961 0.33372 0.0902 0.0
N2273 N 0.56543 0.31966 0.12645 0.0
H2274 H 0.76773 0.30464 0.34853 0.0
H2275 H 0.88557 0.3074 0.35355 0.0
H2276 H 0.80442 0.25703 0.32646 0.0
H2277 H 0.84814 0.32854 0.4013 0.0
H2278 H 0.85594 0.29815 0.33469 0.0
H2279 H 0.7976 0.32258 0.35882 0.0
C2280 C 0.78208 0.29823 0.34531 0.0
C2281 C 0.78366 0.27926 0.33679 0.0
C2282 C 0.85429 0.30524 0.34911 0.0
C2283 C 0.81766 0.29972 0.34831 0.0
C2284 C 0.87113 0.31062 0.35982 0.0
C2285 C 0.86924 0.31859 0.37907 0.0
C2286 C 0.83552 0.30828 0.35755 0.0
C2287 C 0.85019 0.32229 0.38657 0.0
C2288 C 0.79905 0.30841 0.35129 0.0
C2289 C 0.8026 0.27156 0.33313 0.0
N2290 N 0.83403 0.31702 0.37582 0.0
N2291 N 0.8189 0.28179 0.339 0.0
H2292 H 0.82887 0.59974 0.65905 0.0
H2293 H 0.85266 0.51796 0.60017 0.0
H2294 H 0.85029 0.63457 0.60964 0.0
H2295 H 0.9026 0.55527 0.58581 0.0
H2296 H 0.83459 0.54734 0.61186 0.0
H2297 H 0.83818 0.56948 0.64096 0.0
C2298 C 0.83513 0.60097 0.64421 0.0
C2299 C 0.83875 0.61964 0.63577 0.0
C2300 C 0.84941 0.54906 0.6059 0.0
C2301 C 0.84973 0.58523 0.61522 0.0
C2302 C 0.85965 0.53238 0.59904 0.0
C2303 C 0.87923 0.53419 0.5922 0.0
C2304 C 0.85873 0.56767 0.6056 0.0
C2305 C 0.8876 0.55322 0.59115 0.0
C2306 C 0.84035 0.58373 0.63388 0.0
C2307 C 0.84708 0.62045 0.61659 0.0
N2308 N 0.87731 0.56925 0.59785 0.0
N2309 N 0.85275 0.60349 0.60714 0.0
H2310 H 0.52897 0.32528 0.5452 0.0
H2311 H 0.60376 0.23766 0.55046 0.0
H2312 H 0.54676 0.29199 0.49307 0.0
H2313 H 0.62477 0.29331 0.57442 0.0
H2314 H 0.57493 0.2547 0.5373 0.0
H2315 H 0.55793 0.31191 0.56298 0.0
C2316 C 0.53906 0.31545 0.53742 0.0
C2317 C 0.53542 0.3097 0.51763 0.0
C2318 C 0.58574 0.26308 0.54571 0.0
C2319 C 0.56779 0.29408 0.53793 0.0
C2320 C 0.60215 0.2534 0.55334 0.0
C2321 C 0.61686 0.26411 0.56337 0.0
C2322 C 0.58374 0.28358 0.54839 0.0
C2323 C 0.61383 0.28452 0.56665 0.0
C2324 C 0.55547 0.30786 0.54757 0.0
C2325 C 0.54892 0.29686 0.50828 0.0
N2326 N 0.59757 0.2937 0.55906 0.0
N2327 N 0.56426 0.28922 0.51862 0.0
H2328 H 0.84585 0.26677 0.80486 0.0
H2329 H 0.90377 0.34802 0.83047 0.0
H2330 H 0.83135 0.30552 0.75607 0.0
H2331 H 0.85483 0.38341 0.81016 0.0
H2332 H 0.88558 0.318 0.82106 0.0
H2333 H 0.85693 0.29569 0.82408 0.0
C2334 C 0.84455 0.2814 0.79837 0.0
C2335 C 0.83789 0.28377 0.77876 0.0
C2336 C 0.8786 0.33231 0.81921 0.0
C2337 C 0.85059 0.31671 0.80056 0.0
C2338 C 0.889 0.34943 0.82448 0.0
C2339 C 0.88076 0.36818 0.82112 0.0
C2340 C 0.86007 0.33404 0.81004 0.0
C2341 C 0.86164 0.36921 0.81314 0.0
C2342 C 0.85105 0.29782 0.80927 0.0
C2343 C 0.83659 0.30305 0.77106 0.0
N2344 N 0.85213 0.35237 0.80738 0.0
N2345 N 0.84297 0.3188 0.78197 0.0
H2346 H 0.7658 0.60027 0.05673 0.0
H2347 H 0.88365 0.59354 0.05522 0.0
H2348 H 0.80364 0.64577 0.08097 0.0
H2349 H 0.84745 0.57402 0.00622 0.0
H2350 H 0.85362 0.60303 0.07354 0.0
H2351 H 0.79529 0.58116 0.04715 0.0
C2352 C 0.78029 0.60594 0.06057 0.0
C2353 C 0.78237 0.62468 0.06949 0.0
C2354 C 0.8523 0.59622 0.05897 0.0
C2355 C 0.81589 0.6029 0.05881 0.0
C2356 C 0.86937 0.59069 0.04856 0.0
C2357 C 0.86799 0.58318 0.0291 0.0
C2358 C 0.83378 0.5938 0.04999 0.0
C2359 C 0.84913 0.57995 0.02112 0.0
C2360 C 0.79704 0.59511 0.055 0.0
C2361 C 0.80145 0.63145 0.07397 0.0
N2362 N 0.83272 0.5854 0.03156 0.0
N2363 N 0.81752 0.6206 0.06849 0.0
H2364 H 0.55763 0.63679 0.30138 0.0
H2365 H 0.50002 0.55587 0.32844 0.0
H2366 H 0.5698 0.59871 0.25104 0.0
H2367 H 0.54758 0.52015 0.30482 0.0
H2368 H 0.51815 0.58579 0.31858 0.0
H2369 H 0.54711 0.60767 0.32054 0.0
C2370 C 0.55853 0.62226 0.29451 0.0
C2371 C 0.56436 0.62016 0.27451 0.0
C2372 C 0.52487 0.57142 0.31608 0.0
C2373 C 0.55227 0.58697 0.29625 0.0
C2374 C 0.5145 0.55436 0.32162 0.0
C2375 C 0.52237 0.53556 0.31749 0.0
C2376 C 0.54297 0.5696 0.30587 0.0
C2377 C 0.54109 0.5344 0.30842 0.0
C2378 C 0.55235 0.60572 0.30539 0.0
C2379 C 0.5652 0.60099 0.26634 0.0
N2380 N 0.55055 0.5512 0.30244 0.0
N2381 N 0.55912 0.58511 0.27723 0.0
H2382 H 0.59848 0.91481 0.55615 0.0
H2383 H 0.60656 0.82931 0.62987 0.0
H2384 H 0.58052 0.85956 0.52895 0.0
H2385 H 0.65972 0.85538 0.60535 0.0
H2386 H 0.58792 0.84251 0.6013 0.0
H2387 H 0.61104 0.89632 0.5846 0.0
C2388 C 0.59671 0.89884 0.55633 0.0
C2389 C 0.58863 0.8887 0.54 0.0
C2390 C 0.60373 0.84491 0.60217 0.0
C2391 C 0.6028 0.86764 0.57264 0.0
C2392 C 0.61437 0.83742 0.61836 0.0
C2393 C 0.63472 0.84134 0.62006 0.0
C2394 C 0.61354 0.85664 0.58802 0.0
C2395 C 0.64408 0.85203 0.60475 0.0
C2396 C 0.60393 0.88836 0.57255 0.0
C2397 C 0.58674 0.86794 0.54119 0.0
N2398 N 0.63334 0.85964 0.5896 0.0
N2399 N 0.59401 0.85798 0.55721 0.0
loop_
_geom_bond_atom_site_label_1
_geom_bond_atom_site_label_2
_geom_bond_distance
_geom_bond_site_symmetry_2
_ccdc_geom_bond_type
C0 O1 1.306 . S
C0 O3 1.160 . S
O1 C0 1.306 . S
O1 Cd2 2.228 . S
Cd2 O1 2.228 . S
Cd2 O6 2.273 . S
Cd2 O10 2.277 . S
O3 C0 1.160 . S
O3 Cd4 2.203 . S
Cd4 O3 2.203 . S
Cd4 O6 2.411 . S
Cd4 O7 2.333 . S
Cd4 O8 2.352 . S
Cd4 O12 2.277 . S
Cd4 O13 2.356 . S
C5 O10 1.209 . S
C5 O12 1.226 . S
O6 Cd2 2.273 . S
O6 Cd4 2.411 . S
O6 C9 1.320 . S
O7 Cd4 2.333 . S
O7 C9 1.214 . S
O8 Cd4 2.352 . S
O8 C11 1.258 . S
C9 O6 1.320 . S
C9 O7 1.214 . S
O10 Cd2 2.277 . S
O10 C5 1.209 . S
C11 O8 1.258 . S
C11 O13 1.282 . S
O12 Cd4 2.277 . S
O12 C5 1.226 . S
O13 Cd4 2.356 . S
O13 C11 1.282 . S
C14 O15 1.306 . S
C14 O17 1.160 1_655 S
O15 C14 1.306 . S
O15 Cd16 2.228 1_565 S
Cd16 O15 2.228 1_545 S
Cd16 O20 2.273 1_645 S
Cd16 O24 2.277 1_655 S
O17 C14 1.160 1_455 S
O17 Cd18 2.203 . S
Cd18 O17 2.203 . S
Cd18 O20 2.411 . S
Cd18 O21 2.333 . S
Cd18 O22 2.352 . S
Cd18 O26 2.277 . S
Cd18 O27 2.356 . S
C19 O24 1.209 . S
C19 O26 1.226 1_545 S
O20 Cd16 2.273 1_465 S
O20 Cd18 2.411 . S
O20 C23 1.320 . S
O21 Cd18 2.333 . S
O21 C23 1.214 . S
O22 Cd18 2.352 . S
O22 C25 1.258 . S
C23 O20 1.320 . S
C23 O21 1.214 . S
O24 Cd16 2.277 1_455 S
O24 C19 1.209 . S
C25 O22 1.258 . S
C25 O27 1.282 . S
O26 Cd18 2.277 . S
O26 C19 1.226 1_565 S
O27 Cd18 2.356 . S
O27 C25 1.282 . S
C28 O29 1.306 . S
C28 O31 1.160 . S
O29 C28 1.306 . S
O29 Cd30 2.228 . S
Cd30 O29 2.228 . S
Cd30 O34 2.273 . S
Cd30 O38 2.277 . S
O31 C28 1.160 . S
O31 Cd32 2.203 . S
Cd32 O31 2.203 . S
Cd32 O34 2.411 . S
Cd32 O35 2.333 . S
Cd32 O36 2.352 . S
Cd32 O40 2.277 . S
Cd32 O41 2.356 . S
C33 O38 1.209 . S
C33 O40 1.226 . S
O34 Cd30 2.273 . S
O34 Cd32 2.411 . S
O34 C37 1.320 . S
O35 Cd32 2.333 . S
O35 C37 1.214 . S
O36 Cd32 2.352 . S
O36 C39 1.258 . S
C37 O34 1.320 . S
C37 O35 1.214 . S
O38 Cd30 2.277 . S
O38 C33 1.209 . S
C39 O36 1.258 . S
C39 O41 1.282 . S
O40 Cd32 2.277 . S
O40 C33 1.226 . S
O41 Cd32 2.356 . S
O41 C39 1.282 . S
C42 O43 1.306 . S
C42 O45 1.160 . S
O43 C42 1.306 . S
O43 Cd44 2.228 1_545 S
Cd44 O43 2.228 1_565 S
Cd44 O48 2.273 1_565 S
Cd44 O52 2.277 . S
O45 C42 1.160 . S
O45 Cd46 2.203 . S
Cd46 O45 2.203 . S
Cd46 O48 2.411 . S
Cd46 O49 2.333 . S
Cd46 O50 2.352 . S
Cd46 O54 2.277 . S
Cd46 O55 2.356 . S
C47 O52 1.209 . S
C47 O54 1.226 1_565 S
O48 Cd44 2.273 1_545 S
O48 Cd46 2.411 . S
O48 C51 1.320 . S
O49 Cd46 2.333 . S
O49 C51 1.214 . S
O50 Cd46 2.352 . S
O50 C53 1.258 . S
C51 O48 1.320 . S
C51 O49 1.214 . S
O52 Cd44 2.277 . S
O52 C47 1.209 . S
C53 O50 1.258 . S
C53 O55 1.282 . S
O54 Cd46 2.277 . S
O54 C47 1.226 1_545 S
O55 Cd46 2.356 . S
O55 C53 1.282 . S
C56 O57 1.306 . S
C56 O59 1.160 . S
O57 C56 1.306 . S
O57 Cd58 2.228 . S
Cd58 O57 2.228 . S
Cd58 O62 2.273 . S
Cd58 O66 2.277 . S
O59 C56 1.160 . S
O59 Cd60 2.203 . S
Cd60 O59 2.203 . S
Cd60 O62 2.411 . S
Cd60 O63 2.333 . S
Cd60 O64 2.352 . S
Cd60 O68 2.277 . S
Cd60 O69 2.356 . S
C61 O66 1.209 . S
C61 O68 1.226 . S
O62 Cd58 2.273 . S
O62 Cd60 2.411 . S
O62 C65 1.320 . S
O63 Cd60 2.333 . S
O63 C65 1.214 . S
O64 Cd60 2.352 . S
O64 C67 1.258 . S
C65 O62 1.320 . S
C65 O63 1.214 . S
O66 Cd58 2.277 . S
O66 C61 1.209 . S
C67 O64 1.258 . S
C67 O69 1.282 . S
O68 Cd60 2.277 . S
O68 C61 1.226 . S
O69 Cd60 2.356 . S
O69 C67 1.282 . S
C70 O71 1.306 . S
C70 O73 1.160 . S
O71 C70 1.306 . S
O71 Cd72 2.228 1_565 S
Cd72 O71 2.228 1_545 S
Cd72 O76 2.273 1_545 S
Cd72 O80 2.277 . S
O73 C70 1.160 . S
O73 Cd74 2.203 . S
Cd74 O73 2.203 . S
Cd74 O76 2.411 . S
Cd74 O77 2.333 . S
Cd74 O78 2.352 . S
Cd74 O82 2.277 . S
Cd74 O83 2.356 . S
C75 O80 1.209 . S
C75 O82 1.226 1_545 S
O76 Cd72 2.273 1_565 S
O76 Cd74 2.411 . S
O76 C79 1.320 . S
O77 Cd74 2.333 . S
O77 C79 1.214 . S
O78 Cd74 2.352 . S
O78 C81 1.258 . S
C79 O76 1.320 . S
C79 O77 1.214 . S
O80 Cd72 2.277 . S
O80 C75 1.209 . S
C81 O78 1.258 . S
C81 O83 1.282 . S
O82 Cd74 2.277 . S
O82 C75 1.226 1_565 S
O83 Cd74 2.356 . S
O83 C81 1.282 . S
C84 O85 1.306 . S
C84 O87 1.160 . S
O85 C84 1.306 . S
O85 Cd86 2.228 . S
Cd86 O85 2.228 . S
Cd86 O90 2.273 . S
Cd86 O94 2.277 . S
O87 C84 1.160 . S
O87 Cd88 2.203 . S
Cd88 O87 2.203 . S
Cd88 O90 2.411 . S
Cd88 O91 2.333 . S
Cd88 O92 2.352 . S
Cd88 O96 2.277 . S
Cd88 O97 2.356 . S
C89 O94 1.209 . S
C89 O96 1.226 . S
O90 Cd86 2.273 . S
O90 Cd88 2.411 . S
O90 C93 1.320 . S
O91 Cd88 2.333 . S
O91 C93 1.214 . S
O92 Cd88 2.352 . S
O92 C95 1.258 . S
C93 O90 1.320 . S
C93 O91 1.214 . S
O94 Cd86 2.277 . S
O94 C89 1.209 . S
C95 O92 1.258 . S
C95 O97 1.282 . S
O96 Cd88 2.277 . S
O96 C89 1.226 . S
O97 Cd88 2.356 . S
O97 C95 1.282 . S
C98 O99 1.306 . S
C98 O101 1.160 1_655 S
O99 C98 1.306 . S
O99 Cd100 2.228 1_545 S
Cd100 O99 2.228 1_565 S
Cd100 O104 2.273 1_665 S
Cd100 O108 2.277 1_655 S
O101 C98 1.160 1_455 S
O101 Cd102 2.203 . S
Cd102 O101 2.203 . S
Cd102 O104 2.411 . S
Cd102 O105 2.333 . S
Cd102 O106 2.352 . S
Cd102 O110 2.277 . S
Cd102 O111 2.356 . S
C103 O108 1.209 . S
C103 O110 1.226 1_565 S
O104 Cd100 2.273 1_445 S
O104 Cd102 2.411 . S
O104 C107 1.320 . S
O105 Cd102 2.333 . S
O105 C107 1.214 . S
O106 Cd102 2.352 . S
O106 C109 1.258 . S
C107 O104 1.320 . S
C107 O105 1.214 . S
O108 Cd100 2.277 1_455 S
O108 C103 1.209 . S
C109 O106 1.258 . S
C109 O111 1.282 . S
O110 Cd102 2.277 . S
O110 C103 1.226 1_545 S
O111 Cd102 2.356 . S
O111 C109 1.282 . S
C112 O113 1.306 . S
C112 O115 1.160 . S
O113 C112 1.306 . S
O113 Cd114 2.228 . S
Cd114 O113 2.228 . S
Cd114 O118 2.273 . S
Cd114 O122 2.277 . S
O115 C112 1.160 . S
O115 Cd116 2.203 . S
Cd116 O115 2.203 . S
Cd116 O118 2.411 . S
Cd116 O119 2.333 . S
Cd116 O120 2.352 . S
Cd116 O124 2.277 . S
Cd116 O125 2.356 . S
C117 O122 1.209 . S
C117 O124 1.226 . S
O118 Cd114 2.273 . S
O118 Cd116 2.411 . S
O118 C121 1.320 . S
O119 Cd116 2.333 . S
O119 C121 1.214 . S
O120 Cd116 2.352 . S
O120 C123 1.258 . S
C121 O118 1.320 . S
C121 O119 1.214 . S
O122 Cd114 2.277 . S
O122 C117 1.209 . S
C123 O120 1.258 . S
C123 O125 1.282 . S
O124 Cd116 2.277 . S
O124 C117 1.226 . S
O125 Cd116 2.356 . S
O125 C123 1.282 . S
C126 O127 1.306 . S
C126 O129 1.160 . S
O127 C126 1.306 . S
O127 Cd128 2.228 1_455 S
Cd128 O127 2.228 1_655 S
Cd128 O132 2.273 1_655 S
Cd128 O136 2.277 . S
O129 C126 1.160 . S
O129 Cd130 2.203 . S
Cd130 O129 2.203 . S
Cd130 O132 2.411 . S
Cd130 O133 2.333 . S
Cd130 O134 2.352 . S
Cd130 O138 2.277 . S
Cd130 O139 2.356 . S
C131 O136 1.209 . S
C131 O138 1.226 1_655 S
O132 Cd128 2.273 1_455 S
O132 Cd130 2.411 . S
O132 C135 1.320 . S
O133 Cd130 2.333 . S
O133 C135 1.214 . S
O134 Cd130 2.352 . S
O134 C137 1.258 . S
C135 O132 1.320 . S
C135 O133 1.214 . S
O136 Cd128 2.277 . S
O136 C131 1.209 . S
C137 O134 1.258 . S
C137 O139 1.282 . S
O138 Cd130 2.277 . S
O138 C131 1.226 1_455 S
O139 Cd130 2.356 . S
O139 C137 1.282 . S
C140 O141 1.306 . S
C140 O143 1.160 . S
O141 C140 1.306 . S
O141 Cd142 2.228 . S
Cd142 O141 2.228 . S
Cd142 O146 2.273 . S
Cd142 O150 2.277 . S
O143 C140 1.160 . S
O143 Cd144 2.203 . S
Cd144 O143 2.203 . S
Cd144 O146 2.411 . S
Cd144 O147 2.333 . S
Cd144 O148 2.352 . S
Cd144 O152 2.277 . S
Cd144 O153 2.356 . S
C145 O150 1.209 . S
C145 O152 1.226 . S
O146 Cd142 2.273 . S
O146 Cd144 2.411 . S
O146 C149 1.320 . S
O147 Cd144 2.333 . S
O147 C149 1.214 . S
O148 Cd144 2.352 . S
O148 C151 1.258 . S
C149 O146 1.320 . S
C149 O147 1.214 . S
O150 Cd142 2.277 . S
O150 C145 1.209 . S
C151 O148 1.258 . S
C151 O153 1.282 . S
O152 Cd144 2.277 . S
O152 C145 1.226 . S
O153 Cd144 2.356 . S
O153 C151 1.282 . S
C154 O155 1.306 . S
C154 O157 1.160 1_554 S
O155 C154 1.306 . S
O155 Cd156 2.228 . S
Cd156 O155 2.228 . S
Cd156 O160 2.273 1_554 S
Cd156 O164 2.277 1_554 S
O157 C154 1.160 1_556 S
O157 Cd158 2.203 . S
Cd158 O157 2.203 . S
Cd158 O160 2.411 . S
Cd158 O161 2.333 . S
Cd158 O162 2.352 . S
Cd158 O166 2.277 . S
Cd158 O167 2.356 . S
C159 O164 1.209 . S
C159 O166 1.226 . S
O160 Cd156 2.273 1_556 S
O160 Cd158 2.411 . S
O160 C163 1.320 . S
O161 Cd158 2.333 . S
O161 C163 1.214 . S
O162 Cd158 2.352 . S
O162 C165 1.258 . S
C163 O160 1.320 . S
C163 O161 1.214 . S
O164 Cd156 2.277 1_556 S
O164 C159 1.209 . S
C165 O162 1.258 . S
C165 O167 1.282 . S
O166 Cd158 2.277 . S
O166 C159 1.226 . S
O167 Cd158 2.356 . S
O167 C165 1.282 . S
C168 O169 1.306 . S
C168 O171 1.160 . S
O169 C168 1.306 . S
O169 Cd170 2.228 . S
Cd170 O169 2.228 . S
Cd170 O174 2.273 . S
Cd170 O178 2.277 . S
O171 C168 1.160 . S
O171 Cd172 2.203 . S
Cd172 O171 2.203 . S
Cd172 O174 2.411 . S
Cd172 O175 2.333 . S
Cd172 O176 2.352 . S
Cd172 O180 2.277 . S
Cd172 O181 2.356 . S
C173 O178 1.209 . S
C173 O180 1.226 . S
O174 Cd170 2.273 . S
O174 Cd172 2.411 . S
O174 C177 1.320 . S
O175 Cd172 2.333 . S
O175 C177 1.214 . S
O176 Cd172 2.352 . S
O176 C179 1.258 . S
C177 O174 1.320 . S
C177 O175 1.214 . S
O178 Cd170 2.277 . S
O178 C173 1.209 . S
C179 O176 1.258 . S
C179 O181 1.282 . S
O180 Cd172 2.277 . S
O180 C173 1.226 . S
O181 Cd172 2.356 . S
O181 C179 1.282 . S
C182 O183 1.306 . S
C182 O185 1.160 . S
O183 C182 1.306 . S
O183 Cd184 2.228 . S
Cd184 O183 2.228 . S
Cd184 O188 2.273 . S
Cd184 O192 2.277 . S
O185 C182 1.160 . S
O185 Cd186 2.203 . S
Cd186 O185 2.203 . S
Cd186 O188 2.411 . S
Cd186 O189 2.333 . S
Cd186 O190 2.352 . S
Cd186 O194 2.277 . S
Cd186 O195 2.356 . S
C187 O192 1.209 . S
C187 O194 1.226 . S
O188 Cd184 2.273 . S
O188 Cd186 2.411 . S
O188 C191 1.320 . S
O189 Cd186 2.333 . S
O189 C191 1.214 . S
O190 Cd186 2.352 . S
O190 C193 1.258 . S
C191 O188 1.320 . S
C191 O189 1.214 . S
O192 Cd184 2.277 . S
O192 C187 1.209 . S
C193 O190 1.258 . S
C193 O195 1.282 . S
O194 Cd186 2.277 . S
O194 C187 1.226 . S
O195 Cd186 2.356 . S
O195 C193 1.282 . S
C196 O197 1.306 . S
C196 O199 1.160 . S
O197 C196 1.306 . S
O197 Cd198 2.228 . S
Cd198 O197 2.228 . S
Cd198 O202 2.273 . S
Cd198 O206 2.277 . S
O199 C196 1.160 . S
O199 Cd200 2.203 . S
Cd200 O199 2.203 . S
Cd200 O202 2.411 . S
Cd200 O203 2.333 . S
Cd200 O204 2.352 . S
Cd200 O208 2.277 . S
Cd200 O209 2.356 . S
C201 O206 1.209 . S
C201 O208 1.226 . S
O202 Cd198 2.273 . S
O202 Cd200 2.411 . S
O202 C205 1.320 . S
O203 Cd200 2.333 . S
O203 C205 1.214 . S
O204 Cd200 2.352 . S
O204 C207 1.258 . S
C205 O202 1.320 . S
C205 O203 1.214 . S
O206 Cd198 2.277 . S
O206 C201 1.209 . S
C207 O204 1.258 . S
C207 O209 1.282 . S
O208 Cd200 2.277 . S
O208 C201 1.226 . S
O209 Cd200 2.356 . S
O209 C207 1.282 . S
C210 O211 1.306 . S
C210 O213 1.160 1_556 S
O211 C210 1.306 . S
O211 Cd212 2.228 1_455 S
Cd212 O211 2.228 1_655 S
Cd212 O216 2.273 1_656 S
Cd212 O220 2.277 1_556 S
O213 C210 1.160 1_554 S
O213 Cd214 2.203 . S
Cd214 O213 2.203 . S
Cd214 O216 2.411 . S
Cd214 O217 2.333 . S
Cd214 O218 2.352 . S
Cd214 O222 2.277 . S
Cd214 O223 2.356 . S
C215 O220 1.209 . S
C215 O222 1.226 1_655 S
O216 Cd212 2.273 1_454 S
O216 Cd214 2.411 . S
O216 C219 1.320 . S
O217 Cd214 2.333 . S
O217 C219 1.214 . S
O218 Cd214 2.352 . S
O218 C221 1.258 . S
C219 O216 1.320 . S
C219 O217 1.214 . S
O220 Cd212 2.277 1_554 S
O220 C215 1.209 . S
C221 O218 1.258 . S
C221 O223 1.282 . S
O222 Cd214 2.277 . S
O222 C215 1.226 1_455 S
O223 Cd214 2.356 . S
O223 C221 1.282 . S
C224 O225 1.306 . S
C224 O227 1.160 . S
O225 C224 1.306 . S
O225 Cd226 2.228 . S
Cd226 O225 2.228 . S
Cd226 O230 2.273 . S
Cd226 O234 2.277 . S
O227 C224 1.160 . S
O227 Cd228 2.203 . S
Cd228 O227 2.203 . S
Cd228 O230 2.411 . S
Cd228 O231 2.333 . S
Cd228 O232 2.352 . S
Cd228 O236 2.277 . S
Cd228 O237 2.356 . S
C229 O234 1.209 . S
C229 O236 1.226 . S
O230 Cd226 2.273 . S
O230 Cd228 2.411 . S
O230 C233 1.320 . S
O231 Cd228 2.333 . S
O231 C233 1.214 . S
O232 Cd228 2.352 . S
O232 C235 1.258 . S
C233 O230 1.320 . S
C233 O231 1.214 . S
O234 Cd226 2.277 . S
O234 C229 1.209 . S
C235 O232 1.258 . S
C235 O237 1.282 . S
O236 Cd228 2.277 . S
O236 C229 1.226 . S
O237 Cd228 2.356 . S
O237 C235 1.282 . S
C238 O239 1.306 . S
C238 O241 1.160 . S
O239 C238 1.306 . S
O239 Cd240 2.228 . S
Cd240 O239 2.228 . S
Cd240 O244 2.273 . S
Cd240 O248 2.277 . S
O241 C238 1.160 . S
O241 Cd242 2.203 . S
Cd242 O241 2.203 . S
Cd242 O244 2.411 . S
Cd242 O245 2.333 . S
Cd242 O246 2.352 . S
Cd242 O250 2.277 . S
Cd242 O251 2.356 . S
C243 O248 1.209 . S
C243 O250 1.226 . S
O244 Cd240 2.273 . S
O244 Cd242 2.411 . S
O244 C247 1.320 . S
O245 Cd242 2.333 . S
O245 C247 1.214 . S
O246 Cd242 2.352 . S
O246 C249 1.258 . S
C247 O244 1.320 . S
C247 O245 1.214 . S
O248 Cd240 2.277 . S
O248 C243 1.209 . S
C249 O246 1.258 . S
C249 O251 1.282 . S
O250 Cd242 2.277 . S
O250 C243 1.226 . S
O251 Cd242 2.356 . S
O251 C249 1.282 . S
C252 O253 1.306 . S
C252 O255 1.160 . S
O253 C252 1.306 . S
O253 Cd254 2.228 1_554 S
Cd254 O253 2.228 1_556 S
Cd254 O258 2.273 1_556 S
Cd254 O262 2.277 . S
O255 C252 1.160 . S
O255 Cd256 2.203 . S
Cd256 O255 2.203 . S
Cd256 O258 2.411 . S
Cd256 O259 2.333 . S
Cd256 O260 2.352 . S
Cd256 O264 2.277 . S
Cd256 O265 2.356 . S
C257 O262 1.209 . S
C257 O264 1.226 1_556 S
O258 Cd254 2.273 1_554 S
O258 Cd256 2.411 . S
O258 C261 1.320 . S
O259 Cd256 2.333 . S
O259 C261 1.214 . S
O260 Cd256 2.352 . S
O260 C263 1.258 . S
C261 O258 1.320 . S
C261 O259 1.214 . S
O262 Cd254 2.277 . S
O262 C257 1.209 . S
C263 O260 1.258 . S
C263 O265 1.282 . S
O264 Cd256 2.277 . S
O264 C257 1.226 1_554 S
O265 Cd256 2.356 . S
O265 C263 1.282 . S
C266 O267 1.306 . S
C266 O269 1.160 . S
O267 C266 1.306 . S
O267 Cd268 2.228 . S
Cd268 O267 2.228 . S
Cd268 O272 2.273 . S
Cd268 O276 2.277 . S
O269 C266 1.160 . S
O269 Cd270 2.203 . S
Cd270 O269 2.203 . S
Cd270 O272 2.411 . S
Cd270 O273 2.333 . S
Cd270 O274 2.352 . S
Cd270 O278 2.277 . S
Cd270 O279 2.356 . S
C271 O276 1.209 . S
C271 O278 1.226 . S
O272 Cd268 2.273 . S
O272 Cd270 2.411 . S
O272 C275 1.320 . S
O273 Cd270 2.333 . S
O273 C275 1.214 . S
O274 Cd270 2.352 . S
O274 C277 1.258 . S
C275 O272 1.320 . S
C275 O273 1.214 . S
O276 Cd268 2.277 . S
O276 C271 1.209 . S
C277 O274 1.258 . S
C277 O279 1.282 . S
O278 Cd270 2.277 . S
O278 C271 1.226 . S
O279 Cd270 2.356 . S
O279 C277 1.282 . S
C280 O281 1.306 . S
C280 O283 1.160 1_565 S
O281 C280 1.306 . S
O281 Cd282 2.228 1_554 S
Cd282 O281 2.228 1_556 S
Cd282 O286 2.273 1_566 S
Cd282 O290 2.277 1_565 S
O283 C280 1.160 1_545 S
O283 Cd284 2.203 . S
Cd284 O283 2.203 . S
Cd284 O286 2.411 . S
Cd284 O287 2.333 . S
Cd284 O288 2.352 . S
Cd284 O292 2.277 . S
Cd284 O293 2.356 . S
C285 O290 1.209 . S
C285 O292 1.226 1_556 S
O286 Cd282 2.273 1_544 S
O286 Cd284 2.411 . S
O286 C289 1.320 . S
O287 Cd284 2.333 . S
O287 C289 1.214 . S
O288 Cd284 2.352 . S
O288 C291 1.258 . S
C289 O286 1.320 . S
C289 O287 1.214 . S
O290 Cd282 2.277 1_545 S
O290 C285 1.209 . S
C291 O288 1.258 . S
C291 O293 1.282 . S
O292 Cd284 2.277 . S
O292 C285 1.226 1_554 S
O293 Cd284 2.356 . S
O293 C291 1.282 . S
C294 O295 1.306 . S
C294 O297 1.160 . S
O295 C294 1.306 . S
O295 Cd296 2.228 . S
Cd296 O295 2.228 . S
Cd296 O300 2.273 . S
Cd296 O304 2.277 . S
O297 C294 1.160 . S
O297 Cd298 2.203 . S
Cd298 O297 2.203 . S
Cd298 O300 2.411 . S
Cd298 O301 2.333 . S
Cd298 O302 2.352 . S
Cd298 O306 2.277 . S
Cd298 O307 2.356 . S
C299 O304 1.209 . S
C299 O306 1.226 . S
O300 Cd296 2.273 . S
O300 Cd298 2.411 . S
O300 C303 1.320 . S
O301 Cd298 2.333 . S
O301 C303 1.214 . S
O302 Cd298 2.352 . S
O302 C305 1.258 . S
C303 O300 1.320 . S
C303 O301 1.214 . S
O304 Cd296 2.277 . S
O304 C299 1.209 . S
C305 O302 1.258 . S
C305 O307 1.282 . S
O306 Cd298 2.277 . S
O306 C299 1.226 . S
O307 Cd298 2.356 . S
O307 C305 1.282 . S
C308 O309 1.306 . S
C308 O311 1.160 . S
O309 C308 1.306 . S
O309 Cd310 2.228 . S
Cd310 O309 2.228 . S
Cd310 O314 2.273 . S
Cd310 O318 2.277 . S
O311 C308 1.160 . S
O311 Cd312 2.203 . S
Cd312 O311 2.203 . S
Cd312 O314 2.411 . S
Cd312 O315 2.333 . S
Cd312 O316 2.352 . S
Cd312 O320 2.277 . S
Cd312 O321 2.356 . S
C313 O318 1.209 . S
C313 O320 1.226 . S
O314 Cd310 2.273 . S
O314 Cd312 2.411 . S
O314 C317 1.320 . S
O315 Cd312 2.333 . S
O315 C317 1.214 . S
O316 Cd312 2.352 . S
O316 C319 1.258 . S
C317 O314 1.320 . S
C317 O315 1.214 . S
O318 Cd310 2.277 . S
O318 C313 1.209 . S
C319 O316 1.258 . S
C319 O321 1.282 . S
O320 Cd312 2.277 . S
O320 C313 1.226 . S
O321 Cd312 2.356 . S
O321 C319 1.282 . S
C322 O323 1.306 . S
C322 O325 1.160 . S
O323 C322 1.306 . S
O323 Cd324 2.228 1_556 S
Cd324 O323 2.228 1_554 S
Cd324 O328 2.273 1_554 S
Cd324 O332 2.277 . S
O325 C322 1.160 . S
O325 Cd326 2.203 . S
Cd326 O325 2.203 . S
Cd326 O328 2.411 . S
Cd326 O329 2.333 . S
Cd326 O330 2.352 . S
Cd326 O334 2.277 . S
Cd326 O335 2.356 . S
C327 O332 1.209 . S
C327 O334 1.226 1_554 S
O328 Cd324 2.273 1_556 S
O328 Cd326 2.411 . S
O328 C331 1.320 . S
O329 Cd326 2.333 . S
O329 C331 1.214 . S
O330 Cd326 2.352 . S
O330 C333 1.258 . S
C331 O328 1.320 . S
C331 O329 1.214 . S
O332 Cd324 2.277 . S
O332 C327 1.209 . S
C333 O330 1.258 . S
C333 O335 1.282 . S
O334 Cd326 2.277 . S
O334 C327 1.226 1_556 S
O335 Cd326 2.356 . S
O335 C333 1.282 . S
C336 O337 1.306 . S
C336 O339 1.160 . S
O337 C336 1.306 . S
O337 Cd338 2.228 . S
Cd338 O337 2.228 . S
Cd338 O342 2.273 . S
Cd338 O346 2.277 . S
O339 C336 1.160 . S
O339 Cd340 2.203 . S
Cd340 O339 2.203 . S
Cd340 O342 2.411 . S
Cd340 O343 2.333 . S
Cd340 O344 2.352 . S
Cd340 O348 2.277 . S
Cd340 O349 2.356 . S
C341 O346 1.209 . S
C341 O348 1.226 . S
O342 Cd338 2.273 . S
O342 Cd340 2.411 . S
O342 C345 1.320 . S
O343 Cd340 2.333 . S
O343 C345 1.214 . S
O344 Cd340 2.352 . S
O344 C347 1.258 . S
C345 O342 1.320 . S
C345 O343 1.214 . S
O346 Cd338 2.277 . S
O346 C341 1.209 . S
C347 O344 1.258 . S
C347 O349 1.282 . S
O348 Cd340 2.277 . S
O348 C341 1.226 . S
O349 Cd340 2.356 . S
O349 C347 1.282 . S
C350 O351 1.306 . S
C350 O353 1.160 . S
O351 C350 1.306 . S
O351 Cd352 2.228 . S
Cd352 O351 2.228 . S
Cd352 O356 2.273 . S
Cd352 O360 2.277 . S
O353 C350 1.160 . S
O353 Cd354 2.203 . S
Cd354 O353 2.203 . S
Cd354 O356 2.411 . S
Cd354 O357 2.333 . S
Cd354 O358 2.352 . S
Cd354 O362 2.277 . S
Cd354 O363 2.356 . S
C355 O360 1.209 . S
C355 O362 1.226 . S
O356 Cd352 2.273 . S
O356 Cd354 2.411 . S
O356 C359 1.320 . S
O357 Cd354 2.333 . S
O357 C359 1.214 . S
O358 Cd354 2.352 . S
O358 C361 1.258 . S
C359 O356 1.320 . S
C359 O357 1.214 . S
O360 Cd352 2.277 . S
O360 C355 1.209 . S
C361 O358 1.258 . S
C361 O363 1.282 . S
O362 Cd354 2.277 . S
O362 C355 1.226 . S
O363 Cd354 2.356 . S
O363 C361 1.282 . S
C364 O365 1.306 . S
C364 O367 1.160 . S
O365 C364 1.306 . S
O365 Cd366 2.228 . S
Cd366 O365 2.228 . S
Cd366 O370 2.273 . S
Cd366 O374 2.277 . S
O367 C364 1.160 . S
O367 Cd368 2.203 . S
Cd368 O367 2.203 . S
Cd368 O370 2.411 . S
Cd368 O371 2.333 . S
Cd368 O372 2.352 . S
Cd368 O376 2.277 . S
Cd368 O377 2.356 . S
C369 O374 1.209 . S
C369 O376 1.226 . S
O370 Cd366 2.273 . S
O370 Cd368 2.411 . S
O370 C373 1.320 . S
O371 Cd368 2.333 . S
O371 C373 1.214 . S
O372 Cd368 2.352 . S
O372 C375 1.258 . S
C373 O370 1.320 . S
C373 O371 1.214 . S
O374 Cd366 2.277 . S
O374 C369 1.209 . S
C375 O372 1.258 . S
C375 O377 1.282 . S
O376 Cd368 2.277 . S
O376 C369 1.226 . S
O377 Cd368 2.356 . S
O377 C375 1.282 . S
C378 O379 1.306 . S
C378 O381 1.160 1_455 S
O379 C378 1.306 . S
O379 Cd380 2.228 . S
Cd380 O379 2.228 . S
Cd380 O384 2.273 1_455 S
Cd380 O388 2.277 1_455 S
O381 C378 1.160 1_655 S
O381 Cd382 2.203 . S
Cd382 O381 2.203 . S
Cd382 O384 2.411 . S
Cd382 O385 2.333 . S
Cd382 O386 2.352 . S
Cd382 O390 2.277 . S
Cd382 O391 2.356 . S
C383 O388 1.209 . S
C383 O390 1.226 . S
O384 Cd380 2.273 1_655 S
O384 Cd382 2.411 . S
O384 C387 1.320 . S
O385 Cd382 2.333 . S
O385 C387 1.214 . S
O386 Cd382 2.352 . S
O386 C389 1.258 . S
C387 O384 1.320 . S
C387 O385 1.214 . S
O388 Cd380 2.277 1_655 S
O388 C383 1.209 . S
C389 O386 1.258 . S
C389 O391 1.282 . S
O390 Cd382 2.277 . S
O390 C383 1.226 . S
O391 Cd382 2.356 . S
O391 C389 1.282 . S
C392 O393 1.306 . S
C392 O395 1.160 . S
O393 C392 1.306 . S
O393 Cd394 2.228 . S
Cd394 O393 2.228 . S
Cd394 O398 2.273 . S
Cd394 O402 2.277 . S
O395 C392 1.160 . S
O395 Cd396 2.203 . S
Cd396 O395 2.203 . S
Cd396 O398 2.411 . S
Cd396 O399 2.333 . S
Cd396 O400 2.352 . S
Cd396 O404 2.277 . S
Cd396 O405 2.356 . S
C397 O402 1.209 . S
C397 O404 1.226 . S
O398 Cd394 2.273 . S
O398 Cd396 2.411 . S
O398 C401 1.320 . S
O399 Cd396 2.333 . S
O399 C401 1.214 . S
O400 Cd396 2.352 . S
O400 C403 1.258 . S
C401 O398 1.320 . S
C401 O399 1.214 . S
O402 Cd394 2.277 . S
O402 C397 1.209 . S
C403 O400 1.258 . S
C403 O405 1.282 . S
O404 Cd396 2.277 . S
O404 C397 1.226 . S
O405 Cd396 2.356 . S
O405 C403 1.282 . S
C406 O407 1.306 . S
C406 O409 1.160 1_455 S
O407 C406 1.306 . S
O407 Cd408 2.228 . S
Cd408 O407 2.228 . S
Cd408 O412 2.273 1_455 S
Cd408 O416 2.277 1_455 S
O409 C406 1.160 1_655 S
O409 Cd410 2.203 . S
Cd410 O409 2.203 . S
Cd410 O412 2.411 . S
Cd410 O413 2.333 . S
Cd410 O414 2.352 . S
Cd410 O418 2.277 . S
Cd410 O419 2.356 . S
C411 O416 1.209 . S
C411 O418 1.226 . S
O412 Cd408 2.273 1_655 S
O412 Cd410 2.411 . S
O412 C415 1.320 . S
O413 Cd410 2.333 . S
O413 C415 1.214 . S
O414 Cd410 2.352 . S
O414 C417 1.258 . S
C415 O412 1.320 . S
C415 O413 1.214 . S
O416 Cd408 2.277 1_655 S
O416 C411 1.209 . S
C417 O414 1.258 . S
C417 O419 1.282 . S
O418 Cd410 2.277 . S
O418 C411 1.226 . S
O419 Cd410 2.356 . S
O419 C417 1.282 . S
C420 O421 1.306 . S
C420 O423 1.160 . S
O421 C420 1.306 . S
O421 Cd422 2.228 . S
Cd422 O421 2.228 . S
Cd422 O426 2.273 . S
Cd422 O430 2.277 . S
O423 C420 1.160 . S
O423 Cd424 2.203 . S
Cd424 O423 2.203 . S
Cd424 O426 2.411 . S
Cd424 O427 2.333 . S
Cd424 O428 2.352 . S
Cd424 O432 2.277 . S
Cd424 O433 2.356 . S
C425 O430 1.209 . S
C425 O432 1.226 . S
O426 Cd422 2.273 . S
O426 Cd424 2.411 . S
O426 C429 1.320 . S
O427 Cd424 2.333 . S
O427 C429 1.214 . S
O428 Cd424 2.352 . S
O428 C431 1.258 . S
C429 O426 1.320 . S
C429 O427 1.214 . S
O430 Cd422 2.277 . S
O430 C425 1.209 . S
C431 O428 1.258 . S
C431 O433 1.282 . S
O432 Cd424 2.277 . S
O432 C425 1.226 . S
O433 Cd424 2.356 . S
O433 C431 1.282 . S
C434 O435 1.306 . S
C434 O437 1.160 . S
O435 C434 1.306 . S
O435 Cd436 2.228 . S
Cd436 O435 2.228 . S
Cd436 O440 2.273 . S
Cd436 O444 2.277 . S
O437 C434 1.160 . S
O437 Cd438 2.203 . S
Cd438 O437 2.203 . S
Cd438 O440 2.411 . S
Cd438 O441 2.333 . S
Cd438 O442 2.352 . S
Cd438 O446 2.277 . S
Cd438 O447 2.356 . S
C439 O444 1.209 . S
C439 O446 1.226 . S
O440 Cd436 2.273 . S
O440 Cd438 2.411 . S
O440 C443 1.320 . S
O441 Cd438 2.333 . S
O441 C443 1.214 . S
O442 Cd438 2.352 . S
O442 C445 1.258 . S
C443 O440 1.320 . S
C443 O441 1.214 . S
O444 Cd436 2.277 . S
O444 C439 1.209 . S
C445 O442 1.258 . S
C445 O447 1.282 . S
O446 Cd438 2.277 . S
O446 C439 1.226 . S
O447 Cd438 2.356 . S
O447 C445 1.282 . S
C448 O449 1.306 . S
C448 O451 1.160 . S
O449 C448 1.306 . S
O449 Cd450 2.228 . S
Cd450 O449 2.228 . S
Cd450 O454 2.273 . S
Cd450 O458 2.277 . S
O451 C448 1.160 . S
O451 Cd452 2.203 . S
Cd452 O451 2.203 . S
Cd452 O454 2.411 . S
Cd452 O455 2.333 . S
Cd452 O456 2.352 . S
Cd452 O460 2.277 . S
Cd452 O461 2.356 . S
C453 O458 1.209 . S
C453 O460 1.226 . S
O454 Cd450 2.273 . S
O454 Cd452 2.411 . S
O454 C457 1.320 . S
O455 Cd452 2.333 . S
O455 C457 1.214 . S
O456 Cd452 2.352 . S
O456 C459 1.258 . S
C457 O454 1.320 . S
C457 O455 1.214 . S
O458 Cd450 2.277 . S
O458 C453 1.209 . S
C459 O456 1.258 . S
C459 O461 1.282 . S
O460 Cd452 2.277 . S
O460 C453 1.226 . S
O461 Cd452 2.356 . S
O461 C459 1.282 . S
C462 O463 1.306 . S
C462 O465 1.160 1_554 S
O463 C462 1.306 . S
O463 Cd464 2.228 . S
Cd464 O463 2.228 . S
Cd464 O468 2.273 1_554 S
Cd464 O472 2.277 1_554 S
O465 C462 1.160 1_556 S
O465 Cd466 2.203 . S
Cd466 O465 2.203 . S
Cd466 O468 2.411 . S
Cd466 O469 2.333 . S
Cd466 O470 2.352 . S
Cd466 O474 2.277 . S
Cd466 O475 2.356 . S
C467 O472 1.209 . S
C467 O474 1.226 . S
O468 Cd464 2.273 1_556 S
O468 Cd466 2.411 . S
O468 C471 1.320 . S
O469 Cd466 2.333 . S
O469 C471 1.214 . S
O470 Cd466 2.352 . S
O470 C473 1.258 . S
C471 O468 1.320 . S
C471 O469 1.214 . S
O472 Cd464 2.277 1_556 S
O472 C467 1.209 . S
C473 O470 1.258 . S
C473 O475 1.282 . S
O474 Cd466 2.277 . S
O474 C467 1.226 . S
O475 Cd466 2.356 . S
O475 C473 1.282 . S
C476 O477 1.306 . S
C476 O479 1.160 . S
O477 C476 1.306 . S
O477 Cd478 2.228 . S
Cd478 O477 2.228 . S
Cd478 O482 2.273 . S
Cd478 O486 2.277 . S
O479 C476 1.160 . S
O479 Cd480 2.203 . S
Cd480 O479 2.203 . S
Cd480 O482 2.411 . S
Cd480 O483 2.333 . S
Cd480 O484 2.352 . S
Cd480 O488 2.277 . S
Cd480 O489 2.356 . S
C481 O486 1.209 . S
C481 O488 1.226 . S
O482 Cd478 2.273 . S
O482 Cd480 2.411 . S
O482 C485 1.320 . S
O483 Cd480 2.333 . S
O483 C485 1.214 . S
O484 Cd480 2.352 . S
O484 C487 1.258 . S
C485 O482 1.320 . S
C485 O483 1.214 . S
O486 Cd478 2.277 . S
O486 C481 1.209 . S
C487 O484 1.258 . S
C487 O489 1.282 . S
O488 Cd480 2.277 . S
O488 C481 1.226 . S
O489 Cd480 2.356 . S
O489 C487 1.282 . S
C490 O491 1.306 . S
C490 O493 1.160 . S
O491 C490 1.306 . S
O491 Cd492 2.228 1_655 S
Cd492 O491 2.228 1_455 S
Cd492 O496 2.273 1_455 S
Cd492 O500 2.277 . S
O493 C490 1.160 . S
O493 Cd494 2.203 . S
Cd494 O493 2.203 . S
Cd494 O496 2.411 . S
Cd494 O497 2.333 . S
Cd494 O498 2.352 . S
Cd494 O502 2.277 . S
Cd494 O503 2.356 . S
C495 O500 1.209 . S
C495 O502 1.226 1_455 S
O496 Cd492 2.273 1_655 S
O496 Cd494 2.411 . S
O496 C499 1.320 . S
O497 Cd494 2.333 . S
O497 C499 1.214 . S
O498 Cd494 2.352 . S
O498 C501 1.258 . S
C499 O496 1.320 . S
C499 O497 1.214 . S
O500 Cd492 2.277 . S
O500 C495 1.209 . S
C501 O498 1.258 . S
C501 O503 1.282 . S
O502 Cd494 2.277 . S
O502 C495 1.226 1_655 S
O503 Cd494 2.356 . S
O503 C501 1.282 . S
C504 O505 1.306 . S
C504 O507 1.160 . S
O505 C504 1.306 . S
O505 Cd506 2.228 . S
Cd506 O505 2.228 . S
Cd506 O510 2.273 . S
Cd506 O514 2.277 . S
O507 C504 1.160 . S
O507 Cd508 2.203 . S
Cd508 O507 2.203 . S
Cd508 O510 2.411 . S
Cd508 O511 2.333 . S
Cd508 O512 2.352 . S
Cd508 O516 2.277 . S
Cd508 O517 2.356 . S
C509 O514 1.209 . S
C509 O516 1.226 . S
O510 Cd506 2.273 . S
O510 Cd508 2.411 . S
O510 C513 1.320 . S
O511 Cd508 2.333 . S
O511 C513 1.214 . S
O512 Cd508 2.352 . S
O512 C515 1.258 . S
C513 O510 1.320 . S
C513 O511 1.214 . S
O514 Cd506 2.277 . S
O514 C509 1.209 . S
C515 O512 1.258 . S
C515 O517 1.282 . S
O516 Cd508 2.277 . S
O516 C509 1.226 . S
O517 Cd508 2.356 . S
O517 C515 1.282 . S
C518 O519 1.306 . S
C518 O521 1.160 1_556 S
O519 C518 1.306 . S
O519 Cd520 2.228 1_655 S
Cd520 O519 2.228 1_455 S
Cd520 O524 2.273 1_456 S
Cd520 O528 2.277 1_556 S
O521 C518 1.160 1_554 S
O521 Cd522 2.203 . S
Cd522 O521 2.203 . S
Cd522 O524 2.411 . S
Cd522 O525 2.333 . S
Cd522 O526 2.352 . S
Cd522 O530 2.277 . S
Cd522 O531 2.356 . S
C523 O528 1.209 . S
C523 O530 1.226 1_455 S
O524 Cd520 2.273 1_654 S
O524 Cd522 2.411 . S
O524 C527 1.320 . S
O525 Cd522 2.333 . S
O525 C527 1.214 . S
O526 Cd522 2.352 . S
O526 C529 1.258 . S
C527 O524 1.320 . S
C527 O525 1.214 . S
O528 Cd520 2.277 1_554 S
O528 C523 1.209 . S
C529 O526 1.258 . S
C529 O531 1.282 . S
O530 Cd522 2.277 . S
O530 C523 1.226 1_655 S
O531 Cd522 2.356 . S
O531 C529 1.282 . S
C532 O533 1.306 . S
C532 O535 1.160 . S
O533 C532 1.306 . S
O533 Cd534 2.228 . S
Cd534 O533 2.228 . S
Cd534 O538 2.273 . S
Cd534 O542 2.277 . S
O535 C532 1.160 . S
O535 Cd536 2.203 . S
Cd536 O535 2.203 . S
Cd536 O538 2.411 . S
Cd536 O539 2.333 . S
Cd536 O540 2.352 . S
Cd536 O544 2.277 . S
Cd536 O545 2.356 . S
C537 O542 1.209 . S
C537 O544 1.226 . S
O538 Cd534 2.273 . S
O538 Cd536 2.411 . S
O538 C541 1.320 . S
O539 Cd536 2.333 . S
O539 C541 1.214 . S
O540 Cd536 2.352 . S
O540 C543 1.258 . S
C541 O538 1.320 . S
C541 O539 1.214 . S
O542 Cd534 2.277 . S
O542 C537 1.209 . S
C543 O540 1.258 . S
C543 O545 1.282 . S
O544 Cd536 2.277 . S
O544 C537 1.226 . S
O545 Cd536 2.356 . S
O545 C543 1.282 . S
C546 O547 1.306 . S
C546 O549 1.160 . S
O547 C546 1.306 . S
O547 Cd548 2.228 . S
Cd548 O547 2.228 . S
Cd548 O552 2.273 . S
Cd548 O556 2.277 . S
O549 C546 1.160 . S
O549 Cd550 2.203 . S
Cd550 O549 2.203 . S
Cd550 O552 2.411 . S
Cd550 O553 2.333 . S
Cd550 O554 2.352 . S
Cd550 O558 2.277 . S
Cd550 O559 2.356 . S
C551 O556 1.209 . S
C551 O558 1.226 . S
O552 Cd548 2.273 . S
O552 Cd550 2.411 . S
O552 C555 1.320 . S
O553 Cd550 2.333 . S
O553 C555 1.214 . S
O554 Cd550 2.352 . S
O554 C557 1.258 . S
C555 O552 1.320 . S
C555 O553 1.214 . S
O556 Cd548 2.277 . S
O556 C551 1.209 . S
C557 O554 1.258 . S
C557 O559 1.282 . S
O558 Cd550 2.277 . S
O558 C551 1.226 . S
O559 Cd550 2.356 . S
O559 C557 1.282 . S
C560 O561 1.306 . S
C560 O563 1.160 . S
O561 C560 1.306 . S
O561 Cd562 2.228 . S
Cd562 O561 2.228 . S
Cd562 O566 2.273 . S
Cd562 O570 2.277 . S
O563 C560 1.160 . S
O563 Cd564 2.203 . S
Cd564 O563 2.203 . S
Cd564 O566 2.411 . S
Cd564 O567 2.333 . S
Cd564 O568 2.352 . S
Cd564 O572 2.277 . S
Cd564 O573 2.356 . S
C565 O570 1.209 . S
C565 O572 1.226 . S
O566 Cd562 2.273 . S
O566 Cd564 2.411 . S
O566 C569 1.320 . S
O567 Cd564 2.333 . S
O567 C569 1.214 . S
O568 Cd564 2.352 . S
O568 C571 1.258 . S
C569 O566 1.320 . S
C569 O567 1.214 . S
O570 Cd562 2.277 . S
O570 C565 1.209 . S
C571 O568 1.258 . S
C571 O573 1.282 . S
O572 Cd564 2.277 . S
O572 C565 1.226 . S
O573 Cd564 2.356 . S
O573 C571 1.282 . S
C574 O575 1.306 . S
C574 O577 1.160 . S
O575 C574 1.306 . S
O575 Cd576 2.228 . S
Cd576 O575 2.228 . S
Cd576 O580 2.273 . S
Cd576 O584 2.277 . S
O577 C574 1.160 . S
O577 Cd578 2.203 . S
Cd578 O577 2.203 . S
Cd578 O580 2.411 . S
Cd578 O581 2.333 . S
Cd578 O582 2.352 . S
Cd578 O586 2.277 . S
Cd578 O587 2.356 . S
C579 O584 1.209 . S
C579 O586 1.226 . S
O580 Cd576 2.273 . S
O580 Cd578 2.411 . S
O580 C583 1.320 . S
O581 Cd578 2.333 . S
O581 C583 1.214 . S
O582 Cd578 2.352 . S
O582 C585 1.258 . S
C583 O580 1.320 . S
C583 O581 1.214 . S
O584 Cd576 2.277 . S
O584 C579 1.209 . S
C585 O582 1.258 . S
C585 O587 1.282 . S
O586 Cd578 2.277 . S
O586 C579 1.226 . S
O587 Cd578 2.356 . S
O587 C585 1.282 . S
C588 O589 1.306 . S
C588 O591 1.160 1_545 S
O589 C588 1.306 . S
O589 Cd590 2.228 . S
Cd590 O589 2.228 . S
Cd590 O594 2.273 1_545 S
Cd590 O598 2.277 1_545 S
O591 C588 1.160 1_565 S
O591 Cd592 2.203 . S
Cd592 O591 2.203 . S
Cd592 O594 2.411 . S
Cd592 O595 2.333 . S
Cd592 O596 2.352 . S
Cd592 O600 2.277 . S
Cd592 O601 2.356 . S
C593 O598 1.209 . S
C593 O600 1.226 . S
O594 Cd590 2.273 1_565 S
O594 Cd592 2.411 . S
O594 C597 1.320 . S
O595 Cd592 2.333 . S
O595 C597 1.214 . S
O596 Cd592 2.352 . S
O596 C599 1.258 . S
C597 O594 1.320 . S
C597 O595 1.214 . S
O598 Cd590 2.277 1_565 S
O598 C593 1.209 . S
C599 O596 1.258 . S
C599 O601 1.282 . S
O600 Cd592 2.277 . S
O600 C593 1.226 . S
O601 Cd592 2.356 . S
O601 C599 1.282 . S
C602 O603 1.306 . S
C602 O605 1.160 . S
O603 C602 1.306 . S
O603 Cd604 2.228 . S
Cd604 O603 2.228 . S
Cd604 O608 2.273 . S
Cd604 O612 2.277 . S
O605 C602 1.160 . S
O605 Cd606 2.203 . S
Cd606 O605 2.203 . S
Cd606 O608 2.411 . S
Cd606 O609 2.333 . S
Cd606 O610 2.352 . S
Cd606 O614 2.277 . S
Cd606 O615 2.356 . S
C607 O612 1.209 . S
C607 O614 1.226 . S
O608 Cd604 2.273 . S
O608 Cd606 2.411 . S
O608 C611 1.320 . S
O609 Cd606 2.333 . S
O609 C611 1.214 . S
O610 Cd606 2.352 . S
O610 C613 1.258 . S
C611 O608 1.320 . S
C611 O609 1.214 . S
O612 Cd604 2.277 . S
O612 C607 1.209 . S
C613 O610 1.258 . S
C613 O615 1.282 . S
O614 Cd606 2.277 . S
O614 C607 1.226 . S
O615 Cd606 2.356 . S
O615 C613 1.282 . S
C616 O617 1.306 . S
C616 O619 1.160 . S
O617 C616 1.306 . S
O617 Cd618 2.228 . S
Cd618 O617 2.228 . S
Cd618 O622 2.273 . S
Cd618 O626 2.277 . S
O619 C616 1.160 . S
O619 Cd620 2.203 . S
Cd620 O619 2.203 . S
Cd620 O622 2.411 . S
Cd620 O623 2.333 . S
Cd620 O624 2.352 . S
Cd620 O628 2.277 . S
Cd620 O629 2.356 . S
C621 O626 1.209 . S
C621 O628 1.226 . S
O622 Cd618 2.273 . S
O622 Cd620 2.411 . S
O622 C625 1.320 . S
O623 Cd620 2.333 . S
O623 C625 1.214 . S
O624 Cd620 2.352 . S
O624 C627 1.258 . S
C625 O622 1.320 . S
C625 O623 1.214 . S
O626 Cd618 2.277 . S
O626 C621 1.209 . S
C627 O624 1.258 . S
C627 O629 1.282 . S
O628 Cd620 2.277 . S
O628 C621 1.226 . S
O629 Cd620 2.356 . S
O629 C627 1.282 . S
C630 O631 1.306 . S
C630 O633 1.160 . S
O631 C630 1.306 . S
O631 Cd632 2.228 . S
Cd632 O631 2.228 . S
Cd632 O636 2.273 . S
Cd632 O640 2.277 . S
O633 C630 1.160 . S
O633 Cd634 2.203 . S
Cd634 O633 2.203 . S
Cd634 O636 2.411 . S
Cd634 O637 2.333 . S
Cd634 O638 2.352 . S
Cd634 O642 2.277 . S
Cd634 O643 2.356 . S
C635 O640 1.209 . S
C635 O642 1.226 . S
O636 Cd632 2.273 . S
O636 Cd634 2.411 . S
O636 C639 1.320 . S
O637 Cd634 2.333 . S
O637 C639 1.214 . S
O638 Cd634 2.352 . S
O638 C641 1.258 . S
C639 O636 1.320 . S
C639 O637 1.214 . S
O640 Cd632 2.277 . S
O640 C635 1.209 . S
C641 O638 1.258 . S
C641 O643 1.282 . S
O642 Cd634 2.277 . S
O642 C635 1.226 . S
O643 Cd634 2.356 . S
O643 C641 1.282 . S
C644 O645 1.306 . S
C644 O647 1.160 1_565 S
O645 C644 1.306 . S
O645 Cd646 2.228 1_556 S
Cd646 O645 2.228 1_554 S
Cd646 O650 2.273 1_564 S
Cd646 O654 2.277 1_565 S
O647 C644 1.160 1_545 S
O647 Cd648 2.203 . S
Cd648 O647 2.203 . S
Cd648 O650 2.411 . S
Cd648 O651 2.333 . S
Cd648 O652 2.352 . S
Cd648 O656 2.277 . S
Cd648 O657 2.356 . S
C649 O654 1.209 . S
C649 O656 1.226 1_554 S
O650 Cd646 2.273 1_546 S
O650 Cd648 2.411 . S
O650 C653 1.320 . S
O651 Cd648 2.333 . S
O651 C653 1.214 . S
O652 Cd648 2.352 . S
O652 C655 1.258 . S
C653 O650 1.320 . S
C653 O651 1.214 . S
O654 Cd646 2.277 1_545 S
O654 C649 1.209 . S
C655 O652 1.258 . S
C655 O657 1.282 . S
O656 Cd648 2.277 . S
O656 C649 1.226 1_556 S
O657 Cd648 2.356 . S
O657 C655 1.282 . S
C658 O659 1.306 . S
C658 O661 1.160 1_545 S
O659 C658 1.306 . S
O659 Cd660 2.228 . S
Cd660 O659 2.228 . S
Cd660 O664 2.273 1_545 S
Cd660 O668 2.277 1_545 S
O661 C658 1.160 1_565 S
O661 Cd662 2.203 . S
Cd662 O661 2.203 . S
Cd662 O664 2.411 . S
Cd662 O665 2.333 . S
Cd662 O666 2.352 . S
Cd662 O670 2.277 . S
Cd662 O671 2.356 . S
C663 O668 1.209 . S
C663 O670 1.226 . S
O664 Cd660 2.273 1_565 S
O664 Cd662 2.411 . S
O664 C667 1.320 . S
O665 Cd662 2.333 . S
O665 C667 1.214 . S
O666 Cd662 2.352 . S
O666 C669 1.258 . S
C667 O664 1.320 . S
C667 O665 1.214 . S
O668 Cd660 2.277 1_565 S
O668 C663 1.209 . S
C669 O666 1.258 . S
C669 O671 1.282 . S
O670 Cd662 2.277 . S
O670 C663 1.226 . S
O671 Cd662 2.356 . S
O671 C669 1.282 . S
H672 C678 0.930 . S
H673 C682 0.930 . S
H674 C687 0.929 . S
H675 C685 0.929 . S
H676 C680 0.929 . S
H677 C686 0.929 . S
C678 H672 0.930 . S
C678 C679 1.367 . S
C678 C686 1.378 . S
C679 C678 1.367 . S
C679 C687 1.433 . S
C680 H676 0.929 . S
C680 C682 1.378 . S
C680 C684 1.350 . S
C681 C684 1.463 . S
C681 C686 1.350 . S
C681 N689 1.427 . S
C682 H673 0.930 . S
C682 C680 1.378 . S
C682 C683 1.367 . S
C683 C682 1.367 . S
C683 C685 1.433 . S
C684 C680 1.350 . S
C684 C681 1.463 . S
C684 N688 1.427 . S
C685 H675 0.929 . S
C685 C683 1.433 . S
C685 N688 1.384 . S
C686 H677 0.929 . S
C686 C678 1.378 . S
C686 C681 1.350 . S
C687 H674 0.929 . S
C687 C679 1.433 . S
C687 N689 1.384 . S
N688 C684 1.427 . S
N688 C685 1.384 . S
N689 C681 1.427 . S
N689 C687 1.384 . S
H690 C696 0.930 . S
H691 C700 0.930 . S
H692 C705 0.929 . S
H693 C703 0.929 . S
H694 C698 0.929 . S
H695 C704 0.929 . S
C696 H690 0.930 . S
C696 C697 1.367 . S
C696 C704 1.378 . S
C697 C696 1.367 . S
C697 C705 1.433 1_565 S
C698 H694 0.929 . S
C698 C700 1.378 . S
C698 C702 1.350 . S
C699 C702 1.463 1_565 S
C699 C704 1.350 . S
C699 N707 1.427 1_565 S
C700 H691 0.930 . S
C700 C698 1.378 . S
C700 C701 1.367 . S
C701 C700 1.367 . S
C701 C703 1.433 1_545 S
C702 C698 1.350 . S
C702 C699 1.463 1_545 S
C702 N706 1.427 1_545 S
C703 H693 0.929 . S
C703 C701 1.433 1_565 S
C703 N706 1.384 . S
C704 H695 0.929 . S
C704 C696 1.378 . S
C704 C699 1.350 . S
C705 H692 0.929 . S
C705 C697 1.433 1_545 S
C705 N707 1.384 . S
N706 C702 1.427 1_565 S
N706 C703 1.384 . S
N707 C699 1.427 1_545 S
N707 C705 1.384 . S
H708 C714 0.930 . S
H709 C718 0.930 . S
H710 C723 0.929 . S
H711 C721 0.929 . S
H712 C716 0.929 . S
H713 C722 0.929 . S
C714 H708 0.930 . S
C714 C715 1.367 . S
C714 C722 1.378 . S
C715 C714 1.367 . S
C715 C723 1.433 . S
C716 H712 0.929 . S
C716 C718 1.378 . S
C716 C720 1.350 . S
C717 C720 1.463 1_556 S
C717 C722 1.350 . S
C717 N725 1.427 . S
C718 H709 0.930 . S
C718 C716 1.378 . S
C718 C719 1.367 . S
C719 C718 1.367 . S
C719 C721 1.433 . S
C720 C716 1.350 . S
C720 C717 1.463 1_554 S
C720 N724 1.427 . S
C721 H711 0.929 . S
C721 C719 1.433 . S
C721 N724 1.384 . S
C722 H713 0.929 . S
C722 C714 1.378 . S
C722 C717 1.350 . S
C723 H710 0.929 . S
C723 C715 1.433 . S
C723 N725 1.384 . S
N724 C720 1.427 . S
N724 C721 1.384 . S
N725 C717 1.427 . S
N725 C723 1.384 . S
H726 C732 0.930 . S
H727 C736 0.930 . S
H728 C741 0.929 . S
H729 C739 0.929 . S
H730 C734 0.929 . S
H731 C740 0.929 . S
C732 H726 0.930 . S
C732 C733 1.367 . S
C732 C740 1.378 . S
C733 C732 1.367 . S
C733 C741 1.433 1_565 S
C734 H730 0.929 . S
C734 C736 1.378 . S
C734 C738 1.350 . S
C735 C738 1.463 1_565 S
C735 C740 1.350 . S
C735 N743 1.427 1_565 S
C736 H727 0.930 . S
C736 C734 1.378 . S
C736 C737 1.367 . S
C737 C736 1.367 . S
C737 C739 1.433 1_545 S
C738 C734 1.350 . S
C738 C735 1.463 1_545 S
C738 N742 1.427 1_545 S
C739 H729 0.929 . S
C739 C737 1.433 1_565 S
C739 N742 1.384 . S
C740 H731 0.929 . S
C740 C732 1.378 . S
C740 C735 1.350 . S
C741 H728 0.929 . S
C741 C733 1.433 1_545 S
C741 N743 1.384 . S
N742 C738 1.427 1_565 S
N742 C739 1.384 . S
N743 C735 1.427 1_545 S
N743 C741 1.384 . S
H744 C750 0.930 . S
H745 C754 0.930 . S
H746 C759 0.929 . S
H747 C757 0.929 . S
H748 C752 0.929 . S
H749 C758 0.929 . S
C750 H744 0.930 . S
C750 C751 1.367 . S
C750 C758 1.378 . S
C751 C750 1.367 . S
C751 C759 1.433 . S
C752 H748 0.929 . S
C752 C754 1.378 . S
C752 C756 1.350 . S
C753 C756 1.463 . S
C753 C758 1.350 . S
C753 N761 1.427 . S
C754 H745 0.930 . S
C754 C752 1.378 . S
C754 C755 1.367 . S
C755 C754 1.367 . S
C755 C757 1.433 . S
C756 C752 1.350 . S
C756 C753 1.463 . S
C756 N760 1.427 . S
C757 H747 0.929 . S
C757 C755 1.433 . S
C757 N760 1.384 . S
C758 H749 0.929 . S
C758 C750 1.378 . S
C758 C753 1.350 . S
C759 H746 0.929 . S
C759 C751 1.433 . S
C759 N761 1.384 . S
N760 C756 1.427 . S
N760 C757 1.384 . S
N761 C753 1.427 . S
N761 C759 1.384 . S
H762 C768 0.935 . S
H763 C772 0.935 . S
H764 C777 0.929 . S
H765 C775 0.929 . S
H766 C770 0.929 . S
H767 C776 0.929 . S
C768 H762 0.935 . S
C768 C769 1.361 1_455 S
C768 C776 1.380 . S
C769 C768 1.361 1_655 S
C769 C777 1.433 . S
C770 H766 0.929 . S
C770 C772 1.380 . S
C770 C774 1.346 1_655 S
C771 C774 1.460 1_655 S
C771 C776 1.346 1_655 S
C771 N779 1.435 . S
C772 H763 0.935 . S
C772 C770 1.380 . S
C772 C773 1.361 1_655 S
C773 C772 1.361 1_455 S
C773 C775 1.433 . S
C774 C770 1.346 1_455 S
C774 C771 1.460 1_455 S
C774 N778 1.435 . S
C775 H765 0.929 . S
C775 C773 1.433 . S
C775 N778 1.384 . S
C776 H767 0.929 . S
C776 C768 1.380 . S
C776 C771 1.346 1_455 S
C777 H764 0.929 . S
C777 C769 1.433 . S
C777 N779 1.384 . S
N778 C774 1.435 . S
N778 C775 1.384 . S
N779 C771 1.435 . S
N779 C777 1.384 . S
H780 C786 0.930 . S
H781 C790 0.930 . S
H782 C795 0.929 . S
H783 C793 0.929 . S
H784 C788 0.929 . S
H785 C794 0.929 . S
C786 H780 0.930 . S
C786 C787 1.367 . S
C786 C794 1.378 . S
C787 C786 1.367 . S
C787 C795 1.433 . S
C788 H784 0.929 . S
C788 C790 1.378 . S
C788 C792 1.350 . S
C789 C792 1.463 1_455 S
C789 C794 1.350 . S
C789 N797 1.427 . S
C790 H781 0.930 . S
C790 C788 1.378 . S
C790 C791 1.367 . S
C791 C790 1.367 . S
C791 C793 1.433 . S
C792 C788 1.350 . S
C792 C789 1.463 1_655 S
C792 N796 1.427 . S
C793 H783 0.929 . S
C793 C791 1.433 . S
C793 N796 1.384 . S
C794 H785 0.929 . S
C794 C786 1.378 . S
C794 C789 1.350 . S
C795 H782 0.929 . S
C795 C787 1.433 . S
C795 N797 1.384 . S
N796 C792 1.427 . S
N796 C793 1.384 . S
N797 C789 1.427 . S
N797 C795 1.384 . S
H798 C804 0.930 . S
H799 C808 0.930 . S
H800 C813 0.929 . S
H801 C811 0.929 . S
H802 C806 0.929 . S
H803 C812 0.929 . S
C804 H798 0.930 . S
C804 C805 1.367 . S
C804 C812 1.378 . S
C805 C804 1.367 . S
C805 C813 1.433 . S
C806 H802 0.929 . S
C806 C808 1.378 . S
C806 C810 1.350 . S
C807 C810 1.463 . S
C807 C812 1.350 . S
C807 N815 1.427 . S
C808 H799 0.930 . S
C808 C806 1.378 . S
C808 C809 1.367 . S
C809 C808 1.367 . S
C809 C811 1.433 . S
C810 C806 1.350 . S
C810 C807 1.463 . S
C810 N814 1.427 . S
C811 H801 0.929 . S
C811 C809 1.433 . S
C811 N814 1.384 . S
C812 H803 0.929 . S
C812 C804 1.378 . S
C812 C807 1.350 . S
C813 H800 0.929 . S
C813 C805 1.433 . S
C813 N815 1.384 . S
N814 C810 1.427 . S
N814 C811 1.384 . S
N815 C807 1.427 . S
N815 C813 1.384 . S
H816 C822 0.930 . S
H817 C826 0.930 . S
H818 C831 0.929 . S
H819 C829 0.929 . S
H820 C824 0.929 . S
H821 C830 0.929 . S
C822 H816 0.930 . S
C822 C823 1.367 . S
C822 C830 1.378 . S
C823 C822 1.367 . S
C823 C831 1.433 . S
C824 H820 0.929 . S
C824 C826 1.378 . S
C824 C828 1.350 . S
C825 C828 1.463 . S
C825 C830 1.350 . S
C825 N833 1.427 . S
C826 H817 0.930 . S
C826 C824 1.378 . S
C826 C827 1.367 . S
C827 C826 1.367 . S
C827 C829 1.433 . S
C828 C824 1.350 . S
C828 C825 1.463 . S
C828 N832 1.427 . S
C829 H819 0.929 . S
C829 C827 1.433 . S
C829 N832 1.384 . S
C830 H821 0.929 . S
C830 C822 1.378 . S
C830 C825 1.350 . S
C831 H818 0.929 . S
C831 C823 1.433 . S
C831 N833 1.384 . S
N832 C828 1.427 . S
N832 C829 1.384 . S
N833 C825 1.427 . S
N833 C831 1.384 . S
H834 C840 0.930 . S
H835 C844 0.930 . S
H836 C849 0.929 . S
H837 C847 0.929 . S
H838 C842 0.929 . S
H839 C848 0.929 . S
C840 H834 0.930 . S
C840 C841 1.367 . S
C840 C848 1.378 . S
C841 C840 1.367 . S
C841 C849 1.433 . S
C842 H838 0.929 . S
C842 C844 1.378 . S
C842 C846 1.350 . S
C843 C846 1.463 . S
C843 C848 1.350 . S
C843 N851 1.427 . S
C844 H835 0.930 . S
C844 C842 1.378 . S
C844 C845 1.367 . S
C845 C844 1.367 . S
C845 C847 1.433 . S
C846 C842 1.350 . S
C846 C843 1.463 . S
C846 N850 1.427 . S
C847 H837 0.929 . S
C847 C845 1.433 . S
C847 N850 1.384 . S
C848 H839 0.929 . S
C848 C840 1.378 . S
C848 C843 1.350 . S
C849 H836 0.929 . S
C849 C841 1.433 . S
C849 N851 1.384 . S
N850 C846 1.427 . S
N850 C847 1.384 . S
N851 C843 1.427 . S
N851 C849 1.384 . S
H852 C858 0.930 . S
H853 C862 0.930 . S
H854 C867 0.929 . S
H855 C865 0.929 . S
H856 C860 0.929 . S
H857 C866 0.929 . S
C858 H852 0.930 . S
C858 C859 1.367 . S
C858 C866 1.378 . S
C859 C858 1.367 . S
C859 C867 1.433 . S
C860 H856 0.929 . S
C860 C862 1.378 . S
C860 C864 1.350 . S
C861 C864 1.463 1_655 S
C861 C866 1.350 . S
C861 N869 1.427 . S
C862 H853 0.930 . S
C862 C860 1.378 . S
C862 C863 1.367 . S
C863 C862 1.367 . S
C863 C865 1.433 . S
C864 C860 1.350 . S
C864 C861 1.463 1_455 S
C864 N868 1.427 . S
C865 H855 0.929 . S
C865 C863 1.433 . S
C865 N868 1.384 . S
C866 H857 0.929 . S
C866 C858 1.378 . S
C866 C861 1.350 . S
C867 H854 0.929 . S
C867 C859 1.433 . S
C867 N869 1.384 . S
N868 C864 1.427 . S
N868 C865 1.384 . S
N869 C861 1.427 . S
N869 C867 1.384 . S
H870 C876 0.930 . S
H871 C880 0.930 . S
H872 C885 0.929 . S
H873 C883 0.929 . S
H874 C878 0.929 . S
H875 C884 0.929 . S
C876 H870 0.930 . S
C876 C877 1.367 . S
C876 C884 1.378 . S
C877 C876 1.367 . S
C877 C885 1.433 1_655 S
C878 H874 0.929 . S
C878 C880 1.378 . S
C878 C882 1.350 . S
C879 C882 1.463 1_655 S
C879 C884 1.350 . S
C879 N887 1.427 1_655 S
C880 H871 0.930 . S
C880 C878 1.378 . S
C880 C881 1.367 . S
C881 C880 1.367 . S
C881 C883 1.433 1_455 S
C882 C878 1.350 . S
C882 C879 1.463 1_455 S
C882 N886 1.427 1_455 S
C883 H873 0.929 . S
C883 C881 1.433 1_655 S
C883 N886 1.384 . S
C884 H875 0.929 . S
C884 C876 1.378 . S
C884 C879 1.350 . S
C885 H872 0.929 . S
C885 C877 1.433 1_455 S
C885 N887 1.384 . S
N886 C882 1.427 1_655 S
N886 C883 1.384 . S
N887 C879 1.427 1_455 S
N887 C885 1.384 . S
H888 C894 0.930 . S
H889 C898 0.930 . S
H890 C903 0.929 . S
H891 C901 0.929 . S
H892 C896 0.929 . S
H893 C902 0.929 . S
C894 H888 0.930 . S
C894 C895 1.367 . S
C894 C902 1.378 . S
C895 C894 1.367 . S
C895 C903 1.433 . S
C896 H892 0.929 . S
C896 C898 1.378 . S
C896 C900 1.350 . S
C897 C900 1.463 . S
C897 C902 1.350 . S
C897 N905 1.427 . S
C898 H889 0.930 . S
C898 C896 1.378 . S
C898 C899 1.367 . S
C899 C898 1.367 . S
C899 C901 1.433 . S
C900 C896 1.350 . S
C900 C897 1.463 . S
C900 N904 1.427 . S
C901 H891 0.929 . S
C901 C899 1.433 . S
C901 N904 1.384 . S
C902 H893 0.929 . S
C902 C894 1.378 . S
C902 C897 1.350 . S
C903 H890 0.929 . S
C903 C895 1.433 . S
C903 N905 1.384 . S
N904 C900 1.427 . S
N904 C901 1.384 . S
N905 C897 1.427 . S
N905 C903 1.384 . S
H906 C912 0.930 . S
H907 C916 0.930 . S
H908 C921 0.929 . S
H909 C919 0.929 . S
H910 C914 0.929 . S
H911 C920 0.929 . S
C912 H906 0.930 . S
C912 C913 1.367 . S
C912 C920 1.378 . S
C913 C912 1.367 . S
C913 C921 1.433 . S
C914 H910 0.929 . S
C914 C916 1.378 . S
C914 C918 1.350 . S
C915 C918 1.463 1_545 S
C915 C920 1.350 . S
C915 N923 1.427 . S
C916 H907 0.930 . S
C916 C914 1.378 . S
C916 C917 1.367 . S
C917 C916 1.367 . S
C917 C919 1.433 . S
C918 C914 1.350 . S
C918 C915 1.463 1_565 S
C918 N922 1.427 . S
C919 H909 0.929 . S
C919 C917 1.433 . S
C919 N922 1.384 . S
C920 H911 0.929 . S
C920 C912 1.378 . S
C920 C915 1.350 . S
C921 H908 0.929 . S
C921 C913 1.433 . S
C921 N923 1.384 . S
N922 C918 1.427 . S
N922 C919 1.384 . S
N923 C915 1.427 . S
N923 C921 1.384 . S
H924 C930 0.930 . S
H925 C934 0.930 . S
H926 C939 0.929 . S
H927 C937 0.929 . S
H928 C932 0.929 . S
H929 C938 0.929 . S
C930 H924 0.930 . S
C930 C931 1.367 . S
C930 C938 1.378 . S
C931 C930 1.367 . S
C931 C939 1.433 1_554 S
C932 H928 0.929 . S
C932 C934 1.378 . S
C932 C936 1.350 . S
C933 C936 1.463 1_554 S
C933 C938 1.350 . S
C933 N941 1.427 1_554 S
C934 H925 0.930 . S
C934 C932 1.378 . S
C934 C935 1.367 . S
C935 C934 1.367 . S
C935 C937 1.433 1_556 S
C936 C932 1.350 . S
C936 C933 1.463 1_556 S
C936 N940 1.427 1_556 S
C937 H927 0.929 . S
C937 C935 1.433 1_554 S
C937 N940 1.384 . S
C938 H929 0.929 . S
C938 C930 1.378 . S
C938 C933 1.350 . S
C939 H926 0.929 . S
C939 C931 1.433 1_556 S
C939 N941 1.384 . S
N940 C936 1.427 1_554 S
N940 C937 1.384 . S
N941 C933 1.427 1_556 S
N941 C939 1.384 . S
H942 C948 0.930 . S
H943 C952 0.930 . S
H944 C957 0.929 . S
H945 C955 0.929 . S
H946 C950 0.929 . S
H947 C956 0.929 . S
C948 H942 0.930 . S
C948 C949 1.367 . S
C948 C956 1.378 . S
C949 C948 1.367 . S
C949 C957 1.433 . S
C950 H946 0.929 . S
C950 C952 1.378 . S
C950 C954 1.350 . S
C951 C954 1.463 1_545 S
C951 C956 1.350 . S
C951 N959 1.427 . S
C952 H943 0.930 . S
C952 C950 1.378 . S
C952 C953 1.367 . S
C953 C952 1.367 . S
C953 C955 1.433 . S
C954 C950 1.350 . S
C954 C951 1.463 1_565 S
C954 N958 1.427 . S
C955 H945 0.929 . S
C955 C953 1.433 . S
C955 N958 1.384 . S
C956 H947 0.929 . S
C956 C948 1.378 . S
C956 C951 1.350 . S
C957 H944 0.929 . S
C957 C949 1.433 . S
C957 N959 1.384 . S
N958 C954 1.427 . S
N958 C955 1.384 . S
N959 C951 1.427 . S
N959 C957 1.384 . S
H960 C966 0.930 . S
H961 C970 0.918 1_565 S
H962 C975 0.905 1_565 S
H963 C973 0.929 . S
H964 C968 0.917 1_565 S
H965 C974 0.929 . S
C966 H960 0.930 . S
C966 C967 1.367 1_554 S
C966 C974 1.378 . S
C967 C966 1.367 1_556 S
C967 C975 1.433 . S
C968 H964 0.917 1_545 S
C968 C970 1.378 . S
C968 C972 1.341 1_556 S
C969 C972 1.461 1_556 S
C969 C974 1.341 1_556 S
C969 N977 1.438 . S
C970 H961 0.918 1_545 S
C970 C968 1.378 . S
C970 C971 1.367 1_556 S
C971 C970 1.367 1_554 S
C971 C973 1.433 . S
C972 C968 1.341 1_554 S
C972 C969 1.461 1_554 S
C972 N976 1.438 . S
C973 H963 0.929 . S
C973 C971 1.433 . S
C973 N976 1.384 . S
C974 H965 0.929 . S
C974 C966 1.378 . S
C974 C969 1.341 1_554 S
C975 H962 0.905 1_545 S
C975 C967 1.433 . S
C975 N977 1.384 . S
N976 C972 1.438 . S
N976 C973 1.384 . S
N977 C969 1.438 . S
N977 C975 1.384 . S
H978 C984 0.930 . S
H979 C988 0.930 . S
H980 C993 0.929 . S
H981 C991 0.929 . S
H982 C986 0.929 . S
H983 C992 0.929 . S
C984 H978 0.930 . S
C984 C985 1.367 . S
C984 C992 1.378 . S
C985 C984 1.367 . S
C985 C993 1.433 . S
C986 H982 0.929 . S
C986 C988 1.378 . S
C986 C990 1.350 . S
C987 C990 1.463 . S
C987 C992 1.350 . S
C987 N995 1.427 . S
C988 H979 0.930 . S
C988 C986 1.378 . S
C988 C989 1.367 . S
C989 C988 1.367 . S
C989 C991 1.433 . S
C990 C986 1.350 . S
C990 C987 1.463 . S
C990 N994 1.427 . S
C991 H981 0.929 . S
C991 C989 1.433 . S
C991 N994 1.384 . S
C992 H983 0.929 . S
C992 C984 1.378 . S
C992 C987 1.350 . S
C993 H980 0.929 . S
C993 C985 1.433 . S
C993 N995 1.384 . S
N994 C990 1.427 . S
N994 C991 1.384 . S
N995 C987 1.427 . S
N995 C993 1.384 . S
H996 C1002 0.930 . S
H997 C1006 0.930 . S
H998 C1011 0.929 . S
H999 C1009 0.929 . S
H1000 C1004 0.929 . S
H1001 C1010 0.929 . S
C1002 H996 0.930 . S
C1002 C1003 1.367 . S
C1002 C1010 1.378 . S
C1003 C1002 1.367 . S
C1003 C1011 1.433 . S
C1004 H1000 0.929 . S
C1004 C1006 1.378 . S
C1004 C1008 1.350 . S
C1005 C1008 1.463 . S
C1005 C1010 1.350 . S
C1005 N1013 1.427 . S
C1006 H997 0.930 . S
C1006 C1004 1.378 . S
C1006 C1007 1.367 . S
C1007 C1006 1.367 . S
C1007 C1009 1.433 . S
C1008 C1004 1.350 . S
C1008 C1005 1.463 . S
C1008 N1012 1.427 . S
C1009 H999 0.929 . S
C1009 C1007 1.433 . S
C1009 N1012 1.384 . S
C1010 H1001 0.929 . S
C1010 C1002 1.378 . S
C1010 C1005 1.350 . S
C1011 H998 0.929 . S
C1011 C1003 1.433 . S
C1011 N1013 1.384 . S
N1012 C1008 1.427 . S
N1012 C1009 1.384 . S
N1013 C1005 1.427 . S
N1013 C1011 1.384 . S
H1014 C1020 0.930 . S
H1015 C1024 0.930 . S
H1016 C1029 0.929 . S
H1017 C1027 0.929 . S
H1018 C1022 0.929 . S
H1019 C1028 0.929 . S
C1020 H1014 0.930 . S
C1020 C1021 1.367 . S
C1020 C1028 1.378 . S
C1021 C1020 1.367 . S
C1021 C1029 1.433 . S
C1022 H1018 0.929 . S
C1022 C1024 1.378 . S
C1022 C1026 1.350 . S
C1023 C1026 1.463 1_554 S
C1023 C1028 1.350 . S
C1023 N1031 1.427 . S
C1024 H1015 0.930 . S
C1024 C1022 1.378 . S
C1024 C1025 1.367 . S
C1025 C1024 1.367 . S
C1025 C1027 1.433 . S
C1026 C1022 1.350 . S
C1026 C1023 1.463 1_556 S
C1026 N1030 1.427 . S
C1027 H1017 0.929 . S
C1027 C1025 1.433 . S
C1027 N1030 1.384 . S
C1028 H1019 0.929 . S
C1028 C1020 1.378 . S
C1028 C1023 1.350 . S
C1029 H1016 0.929 . S
C1029 C1021 1.433 . S
C1029 N1031 1.384 . S
N1030 C1026 1.427 . S
N1030 C1027 1.384 . S
N1031 C1023 1.427 . S
N1031 C1029 1.384 . S
H1032 C1038 0.930 . S
H1033 C1042 0.930 . S
H1034 C1047 0.929 . S
H1035 C1045 0.929 . S
H1036 C1040 0.929 . S
H1037 C1046 0.929 . S
C1038 H1032 0.930 . S
C1038 C1039 1.367 . S
C1038 C1046 1.378 . S
C1039 C1038 1.367 . S
C1039 C1047 1.433 . S
C1040 H1036 0.929 . S
C1040 C1042 1.378 . S
C1040 C1044 1.350 . S
C1041 C1044 1.463 . S
C1041 C1046 1.350 . S
C1041 N1049 1.427 . S
C1042 H1033 0.930 . S
C1042 C1040 1.378 . S
C1042 C1043 1.367 . S
C1043 C1042 1.367 . S
C1043 C1045 1.433 . S
C1044 C1040 1.350 . S
C1044 C1041 1.463 . S
C1044 N1048 1.427 . S
C1045 H1035 0.929 . S
C1045 C1043 1.433 . S
C1045 N1048 1.384 . S
C1046 H1037 0.929 . S
C1046 C1038 1.378 . S
C1046 C1041 1.350 . S
C1047 H1034 0.929 . S
C1047 C1039 1.433 . S
C1047 N1049 1.384 . S
N1048 C1044 1.427 . S
N1048 C1045 1.384 . S
N1049 C1041 1.427 . S
N1049 C1047 1.384 . S
H1050 C1056 0.930 . S
H1051 C1060 0.930 . S
H1052 C1065 0.929 . S
H1053 C1063 0.929 . S
H1054 C1058 0.929 . S
H1055 C1064 0.929 . S
C1056 H1050 0.930 . S
C1056 C1057 1.367 . S
C1056 C1064 1.378 . S
C1057 C1056 1.367 . S
C1057 C1065 1.433 . S
C1058 H1054 0.929 . S
C1058 C1060 1.378 . S
C1058 C1062 1.350 . S
C1059 C1062 1.463 . S
C1059 C1064 1.350 . S
C1059 N1067 1.427 . S
C1060 H1051 0.930 . S
C1060 C1058 1.378 . S
C1060 C1061 1.367 . S
C1061 C1060 1.367 . S
C1061 C1063 1.433 . S
C1062 C1058 1.350 . S
C1062 C1059 1.463 . S
C1062 N1066 1.427 . S
C1063 H1053 0.929 . S
C1063 C1061 1.433 . S
C1063 N1066 1.384 . S
C1064 H1055 0.929 . S
C1064 C1056 1.378 . S
C1064 C1059 1.350 . S
C1065 H1052 0.929 . S
C1065 C1057 1.433 . S
C1065 N1067 1.384 . S
N1066 C1062 1.427 . S
N1066 C1063 1.384 . S
N1067 C1059 1.427 . S
N1067 C1065 1.384 . S
H1068 C1074 0.930 . S
H1069 C1078 0.930 . S
H1070 C1083 0.929 . S
H1071 C1081 0.929 . S
H1072 C1076 0.929 . S
H1073 C1082 0.929 . S
C1074 H1068 0.930 . S
C1074 C1075 1.367 . S
C1074 C1082 1.378 . S
C1075 C1074 1.367 . S
C1075 C1083 1.433 . S
C1076 H1072 0.929 . S
C1076 C1078 1.378 . S
C1076 C1080 1.350 . S
C1077 C1080 1.463 . S
C1077 C1082 1.350 . S
C1077 N1085 1.427 . S
C1078 H1069 0.930 . S
C1078 C1076 1.378 . S
C1078 C1079 1.367 . S
C1079 C1078 1.367 . S
C1079 C1081 1.433 . S
C1080 C1076 1.350 . S
C1080 C1077 1.463 . S
C1080 N1084 1.427 . S
C1081 H1071 0.929 . S
C1081 C1079 1.433 . S
C1081 N1084 1.384 . S
C1082 H1073 0.929 . S
C1082 C1074 1.378 . S
C1082 C1077 1.350 . S
C1083 H1070 0.929 . S
C1083 C1075 1.433 . S
C1083 N1085 1.384 . S
N1084 C1080 1.427 . S
N1084 C1081 1.384 . S
N1085 C1077 1.427 . S
N1085 C1083 1.384 . S
H1086 C1092 0.930 . S
H1087 C1096 0.930 1_545 S
H1088 C1101 0.929 1_545 S
H1089 C1099 0.929 . S
H1090 C1094 0.929 1_545 S
H1091 C1100 0.929 . S
C1092 H1086 0.930 . S
C1092 C1093 1.367 . S
C1092 C1100 1.378 . S
C1093 C1092 1.367 . S
C1093 C1101 1.433 . S
C1094 H1090 0.929 1_565 S
C1094 C1096 1.378 . S
C1094 C1098 1.350 . S
C1095 C1098 1.463 . S
C1095 C1100 1.350 . S
C1095 N1103 1.427 . S
C1096 H1087 0.930 1_565 S
C1096 C1094 1.378 . S
C1096 C1097 1.367 . S
C1097 C1096 1.367 . S
C1097 C1099 1.433 . S
C1098 C1094 1.350 . S
C1098 C1095 1.463 . S
C1098 N1102 1.427 . S
C1099 H1089 0.929 . S
C1099 C1097 1.433 . S
C1099 N1102 1.384 . S
C1100 H1091 0.929 . S
C1100 C1092 1.378 . S
C1100 C1095 1.350 . S
C1101 H1088 0.929 1_565 S
C1101 C1093 1.433 . S
C1101 N1103 1.384 . S
N1102 C1098 1.427 . S
N1102 C1099 1.384 . S
N1103 C1095 1.427 . S
N1103 C1101 1.384 . S
H1104 C1110 0.930 . S
H1105 C1114 0.930 . S
H1106 C1119 0.929 . S
H1107 C1117 0.929 . S
H1108 C1112 0.929 . S
H1109 C1118 0.929 . S
C1110 H1104 0.930 . S
C1110 C1111 1.367 . S
C1110 C1118 1.378 . S
C1111 C1110 1.367 . S
C1111 C1119 1.433 . S
C1112 H1108 0.929 . S
C1112 C1114 1.378 . S
C1112 C1116 1.350 . S
C1113 C1116 1.463 . S
C1113 C1118 1.350 . S
C1113 N1121 1.427 . S
C1114 H1105 0.930 . S
C1114 C1112 1.378 . S
C1114 C1115 1.367 . S
C1115 C1114 1.367 . S
C1115 C1117 1.433 . S
C1116 C1112 1.350 . S
C1116 C1113 1.463 . S
C1116 N1120 1.427 . S
C1117 H1107 0.929 . S
C1117 C1115 1.433 . S
C1117 N1120 1.384 . S
C1118 H1109 0.929 . S
C1118 C1110 1.378 . S
C1118 C1113 1.350 . S
C1119 H1106 0.929 . S
C1119 C1111 1.433 . S
C1119 N1121 1.384 . S
N1120 C1116 1.427 . S
N1120 C1117 1.384 . S
N1121 C1113 1.427 . S
N1121 C1119 1.384 . S
H1122 C1128 0.906 1_455 S
H1123 C1132 0.930 . S
H1124 C1137 0.929 . S
H1125 C1135 0.929 . S
H1126 C1130 0.929 . S
H1127 C1136 0.929 . S
C1128 H1122 0.906 1_655 S
C1128 C1129 1.367 . S
C1128 C1136 1.378 . S
C1129 C1128 1.367 . S
C1129 C1137 1.433 . S
C1130 H1126 0.929 . S
C1130 C1132 1.378 . S
C1130 C1134 1.350 . S
C1131 C1134 1.463 . S
C1131 C1136 1.350 . S
C1131 N1139 1.427 . S
C1132 H1123 0.930 . S
C1132 C1130 1.378 . S
C1132 C1133 1.367 . S
C1133 C1132 1.367 . S
C1133 C1135 1.433 . S
C1134 C1130 1.350 . S
C1134 C1131 1.463 . S
C1134 N1138 1.427 . S
C1135 H1125 0.929 . S
C1135 C1133 1.433 . S
C1135 N1138 1.384 . S
C1136 H1127 0.929 . S
C1136 C1128 1.378 . S
C1136 C1131 1.350 . S
C1137 H1124 0.929 . S
C1137 C1129 1.433 . S
C1137 N1139 1.384 . S
N1138 C1134 1.427 . S
N1138 C1135 1.384 . S
N1139 C1131 1.427 . S
N1139 C1137 1.384 . S
H1140 C1146 0.930 . S
H1141 C1150 0.930 . S
H1142 C1155 0.929 . S
H1143 C1153 0.929 . S
H1144 C1148 0.929 . S
H1145 C1154 0.929 . S
C1146 H1140 0.930 . S
C1146 C1147 1.367 . S
C1146 C1154 1.378 . S
C1147 C1146 1.367 . S
C1147 C1155 1.433 . S
C1148 H1144 0.929 . S
C1148 C1150 1.378 . S
C1148 C1152 1.350 . S
C1149 C1152 1.463 . S
C1149 C1154 1.350 . S
C1149 N1157 1.427 . S
C1150 H1141 0.930 . S
C1150 C1148 1.378 . S
C1150 C1151 1.367 . S
C1151 C1150 1.367 . S
C1151 C1153 1.433 . S
C1152 C1148 1.350 . S
C1152 C1149 1.463 . S
C1152 N1156 1.427 . S
C1153 H1143 0.929 . S
C1153 C1151 1.433 . S
C1153 N1156 1.384 . S
C1154 H1145 0.929 . S
C1154 C1146 1.378 . S
C1154 C1149 1.350 . S
C1155 H1142 0.929 . S
C1155 C1147 1.433 . S
C1155 N1157 1.384 . S
N1156 C1152 1.427 . S
N1156 C1153 1.384 . S
N1157 C1149 1.427 . S
N1157 C1155 1.384 . S
H1158 C1164 0.930 . S
H1159 C1168 0.930 . S
H1160 C1173 0.929 . S
H1161 C1171 0.929 . S
H1162 C1166 0.929 . S
H1163 C1172 0.929 . S
C1164 H1158 0.930 . S
C1164 C1165 1.367 . S
C1164 C1172 1.378 . S
C1165 C1164 1.367 . S
C1165 C1173 1.433 . S
C1166 H1162 0.929 . S
C1166 C1168 1.378 . S
C1166 C1170 1.350 . S
C1167 C1170 1.463 . S
C1167 C1172 1.350 . S
C1167 N1175 1.427 . S
C1168 H1159 0.930 . S
C1168 C1166 1.378 . S
C1168 C1169 1.367 . S
C1169 C1168 1.367 . S
C1169 C1171 1.433 . S
C1170 C1166 1.350 . S
C1170 C1167 1.463 . S
C1170 N1174 1.427 . S
C1171 H1161 0.929 . S
C1171 C1169 1.433 . S
C1171 N1174 1.384 . S
C1172 H1163 0.929 . S
C1172 C1164 1.378 . S
C1172 C1167 1.350 . S
C1173 H1160 0.929 . S
C1173 C1165 1.433 . S
C1173 N1175 1.384 . S
N1174 C1170 1.427 . S
N1174 C1171 1.384 . S
N1175 C1167 1.427 . S
N1175 C1173 1.384 . S
H1176 C1182 0.930 . S
H1177 C1186 0.930 . S
H1178 C1191 0.929 . S
H1179 C1189 0.929 . S
H1180 C1184 0.929 . S
H1181 C1190 0.929 . S
C1182 H1176 0.930 . S
C1182 C1183 1.367 . S
C1182 C1190 1.378 . S
C1183 C1182 1.367 . S
C1183 C1191 1.433 . S
C1184 H1180 0.929 . S
C1184 C1186 1.378 . S
C1184 C1188 1.350 . S
C1185 C1188 1.463 . S
C1185 C1190 1.350 . S
C1185 N1193 1.427 . S
C1186 H1177 0.930 . S
C1186 C1184 1.378 . S
C1186 C1187 1.367 . S
C1187 C1186 1.367 . S
C1187 C1189 1.433 . S
C1188 C1184 1.350 . S
C1188 C1185 1.463 . S
C1188 N1192 1.427 . S
C1189 H1179 0.929 . S
C1189 C1187 1.433 . S
C1189 N1192 1.384 . S
C1190 H1181 0.929 . S
C1190 C1182 1.378 . S
C1190 C1185 1.350 . S
C1191 H1178 0.929 . S
C1191 C1183 1.433 . S
C1191 N1193 1.384 . S
N1192 C1188 1.427 . S
N1192 C1189 1.384 . S
N1193 C1185 1.427 . S
N1193 C1191 1.384 . S
H1194 C1200 0.930 . S
H1195 C1204 0.930 . S
H1196 C1209 0.929 . S
H1197 C1207 0.929 . S
H1198 C1202 0.929 . S
H1199 C1208 0.929 . S
C1200 H1194 0.930 . S
C1200 C1201 1.367 . S
C1200 C1208 1.378 . S
C1201 C1200 1.367 . S
C1201 C1209 1.433 . S
C1202 H1198 0.929 . S
C1202 C1204 1.378 . S
C1202 C1206 1.350 . S
C1203 C1206 1.463 . S
C1203 C1208 1.350 . S
C1203 N1211 1.427 . S
C1204 H1195 0.930 . S
C1204 C1202 1.378 . S
C1204 C1205 1.367 . S
C1205 C1204 1.367 . S
C1205 C1207 1.433 . S
C1206 C1202 1.350 . S
C1206 C1203 1.463 . S
C1206 N1210 1.427 . S
C1207 H1197 0.929 . S
C1207 C1205 1.433 . S
C1207 N1210 1.384 . S
C1208 H1199 0.929 . S
C1208 C1200 1.378 . S
C1208 C1203 1.350 . S
C1209 H1196 0.929 . S
C1209 C1201 1.433 . S
C1209 N1211 1.384 . S
N1210 C1206 1.427 . S
N1210 C1207 1.384 . S
N1211 C1203 1.427 . S
N1211 C1209 1.384 . S
H1212 C1218 0.930 . S
H1213 C1222 0.930 . S
H1214 C1227 0.929 . S
H1215 C1225 0.929 . S
H1216 C1220 0.929 . S
H1217 C1226 0.929 . S
C1218 H1212 0.930 . S
C1218 C1219 1.367 . S
C1218 C1226 1.378 . S
C1219 C1218 1.367 . S
C1219 C1227 1.433 . S
C1220 H1216 0.929 . S
C1220 C1222 1.378 . S
C1220 C1224 1.350 . S
C1221 C1224 1.463 . S
C1221 C1226 1.350 . S
C1221 N1229 1.427 . S
C1222 H1213 0.930 . S
C1222 C1220 1.378 . S
C1222 C1223 1.367 . S
C1223 C1222 1.367 . S
C1223 C1225 1.433 . S
C1224 C1220 1.350 . S
C1224 C1221 1.463 . S
C1224 N1228 1.427 . S
C1225 H1215 0.929 . S
C1225 C1223 1.433 . S
C1225 N1228 1.384 . S
C1226 H1217 0.929 . S
C1226 C1218 1.378 . S
C1226 C1221 1.350 . S
C1227 H1214 0.929 . S
C1227 C1219 1.433 . S
C1227 N1229 1.384 . S
N1228 C1224 1.427 . S
N1228 C1225 1.384 . S
N1229 C1221 1.427 . S
N1229 C1227 1.384 . S
H1230 C1236 0.930 . S
H1231 C1240 0.930 . S
H1232 C1245 0.929 . S
H1233 C1243 0.929 . S
H1234 C1238 0.929 . S
H1235 C1244 0.929 . S
C1236 H1230 0.930 . S
C1236 C1237 1.367 . S
C1236 C1244 1.378 . S
C1237 C1236 1.367 . S
C1237 C1245 1.433 . S
C1238 H1234 0.929 . S
C1238 C1240 1.378 . S
C1238 C1242 1.350 . S
C1239 C1242 1.463 . S
C1239 C1244 1.350 . S
C1239 N1247 1.427 . S
C1240 H1231 0.930 . S
C1240 C1238 1.378 . S
C1240 C1241 1.367 . S
C1241 C1240 1.367 . S
C1241 C1243 1.433 . S
C1242 C1238 1.350 . S
C1242 C1239 1.463 . S
C1242 N1246 1.427 . S
C1243 H1233 0.929 . S
C1243 C1241 1.433 . S
C1243 N1246 1.384 . S
C1244 H1235 0.929 . S
C1244 C1236 1.378 . S
C1244 C1239 1.350 . S
C1245 H1232 0.929 . S
C1245 C1237 1.433 . S
C1245 N1247 1.384 . S
N1246 C1242 1.427 . S
N1246 C1243 1.384 . S
N1247 C1239 1.427 . S
N1247 C1245 1.384 . S
H1248 C1254 0.930 . S
H1249 C1258 0.930 . S
H1250 C1263 0.929 . S
H1251 C1261 0.929 . S
H1252 C1256 0.929 . S
H1253 C1262 0.929 . S
C1254 H1248 0.930 . S
C1254 C1255 1.367 . S
C1254 C1262 1.378 . S
C1255 C1254 1.367 . S
C1255 C1263 1.433 . S
C1256 H1252 0.929 . S
C1256 C1258 1.378 . S
C1256 C1260 1.350 . S
C1257 C1260 1.463 . S
C1257 C1262 1.350 . S
C1257 N1265 1.427 . S
C1258 H1249 0.930 . S
C1258 C1256 1.378 . S
C1258 C1259 1.367 . S
C1259 C1258 1.367 . S
C1259 C1261 1.433 . S
C1260 C1256 1.350 . S
C1260 C1257 1.463 . S
C1260 N1264 1.427 . S
C1261 H1251 0.929 . S
C1261 C1259 1.433 . S
C1261 N1264 1.384 . S
C1262 H1253 0.929 . S
C1262 C1254 1.378 . S
C1262 C1257 1.350 . S
C1263 H1250 0.929 . S
C1263 C1255 1.433 . S
C1263 N1265 1.384 . S
N1264 C1260 1.427 . S
N1264 C1261 1.384 . S
N1265 C1257 1.427 . S
N1265 C1263 1.384 . S
H1266 C1272 0.930 . S
H1267 C1276 0.930 . S
H1268 C1281 0.929 . S
H1269 C1279 0.929 . S
H1270 C1274 0.929 . S
H1271 C1280 0.929 . S
C1272 H1266 0.930 . S
C1272 C1273 1.367 . S
C1272 C1280 1.378 . S
C1273 C1272 1.367 . S
C1273 C1281 1.433 . S
C1274 H1270 0.929 . S
C1274 C1276 1.378 . S
C1274 C1278 1.350 . S
C1275 C1278 1.463 . S
C1275 C1280 1.350 . S
C1275 N1283 1.427 . S
C1276 H1267 0.930 . S
C1276 C1274 1.378 . S
C1276 C1277 1.367 . S
C1277 C1276 1.367 . S
C1277 C1279 1.433 . S
C1278 C1274 1.350 . S
C1278 C1275 1.463 . S
C1278 N1282 1.427 . S
C1279 H1269 0.929 . S
C1279 C1277 1.433 . S
C1279 N1282 1.384 . S
C1280 H1271 0.929 . S
C1280 C1272 1.378 . S
C1280 C1275 1.350 . S
C1281 H1268 0.929 . S
C1281 C1273 1.433 . S
C1281 N1283 1.384 . S
N1282 C1278 1.427 . S
N1282 C1279 1.384 . S
N1283 C1275 1.427 . S
N1283 C1281 1.384 . S
H1284 C1290 0.930 . S
H1285 C1294 0.930 . S
H1286 C1299 0.929 . S
H1287 C1297 0.929 . S
H1288 C1292 0.929 . S
H1289 C1298 0.929 . S
C1290 H1284 0.930 . S
C1290 C1291 1.367 . S
C1290 C1298 1.378 . S
C1291 C1290 1.367 . S
C1291 C1299 1.433 . S
C1292 H1288 0.929 . S
C1292 C1294 1.378 . S
C1292 C1296 1.350 . S
C1293 C1296 1.463 . S
C1293 C1298 1.350 . S
C1293 N1301 1.427 . S
C1294 H1285 0.930 . S
C1294 C1292 1.378 . S
C1294 C1295 1.367 . S
C1295 C1294 1.367 . S
C1295 C1297 1.433 . S
C1296 C1292 1.350 . S
C1296 C1293 1.463 . S
C1296 N1300 1.427 . S
C1297 H1287 0.929 . S
C1297 C1295 1.433 . S
C1297 N1300 1.384 . S
C1298 H1289 0.929 . S
C1298 C1290 1.378 . S
C1298 C1293 1.350 . S
C1299 H1286 0.929 . S
C1299 C1291 1.433 . S
C1299 N1301 1.384 . S
N1300 C1296 1.427 . S
N1300 C1297 1.384 . S
N1301 C1293 1.427 . S
N1301 C1299 1.384 . S
H1302 C1308 0.930 . S
H1303 C1312 0.930 . S
H1304 C1317 0.929 . S
H1305 C1315 0.929 . S
H1306 C1310 0.929 . S
H1307 C1316 0.929 . S
C1308 H1302 0.930 . S
C1308 C1309 1.367 . S
C1308 C1316 1.378 . S
C1309 C1308 1.367 . S
C1309 C1317 1.433 . S
C1310 H1306 0.929 . S
C1310 C1312 1.378 . S
C1310 C1314 1.350 . S
C1311 C1314 1.463 . S
C1311 C1316 1.350 . S
C1311 N1319 1.427 . S
C1312 H1303 0.930 . S
C1312 C1310 1.378 . S
C1312 C1313 1.367 . S
C1313 C1312 1.367 . S
C1313 C1315 1.433 . S
C1314 C1310 1.350 . S
C1314 C1311 1.463 . S
C1314 N1318 1.427 . S
C1315 H1305 0.929 . S
C1315 C1313 1.433 . S
C1315 N1318 1.384 . S
C1316 H1307 0.929 . S
C1316 C1308 1.378 . S
C1316 C1311 1.350 . S
C1317 H1304 0.929 . S
C1317 C1309 1.433 . S
C1317 N1319 1.384 . S
N1318 C1314 1.427 . S
N1318 C1315 1.384 . S
N1319 C1311 1.427 . S
N1319 C1317 1.384 . S
H1320 C1326 0.930 . S
H1321 C1330 0.930 . S
H1322 C1335 0.929 . S
H1323 C1333 0.929 . S
H1324 C1328 0.929 . S
H1325 C1334 0.929 . S
C1326 H1320 0.930 . S
C1326 C1327 1.367 . S
C1326 C1334 1.378 . S
C1327 C1326 1.367 . S
C1327 C1335 1.433 . S
C1328 H1324 0.929 . S
C1328 C1330 1.378 . S
C1328 C1332 1.350 . S
C1329 C1332 1.463 . S
C1329 C1334 1.350 . S
C1329 N1337 1.427 . S
C1330 H1321 0.930 . S
C1330 C1328 1.378 . S
C1330 C1331 1.367 . S
C1331 C1330 1.367 . S
C1331 C1333 1.433 . S
C1332 C1328 1.350 . S
C1332 C1329 1.463 . S
C1332 N1336 1.427 . S
C1333 H1323 0.929 . S
C1333 C1331 1.433 . S
C1333 N1336 1.384 . S
C1334 H1325 0.929 . S
C1334 C1326 1.378 . S
C1334 C1329 1.350 . S
C1335 H1322 0.929 . S
C1335 C1327 1.433 . S
C1335 N1337 1.384 . S
N1336 C1332 1.427 . S
N1336 C1333 1.384 . S
N1337 C1329 1.427 . S
N1337 C1335 1.384 . S
H1338 C1344 0.930 . S
H1339 C1348 0.930 . S
H1340 C1353 0.929 . S
H1341 C1351 0.929 . S
H1342 C1346 0.929 . S
H1343 C1352 0.929 . S
C1344 H1338 0.930 . S
C1344 C1345 1.367 . S
C1344 C1352 1.378 . S
C1345 C1344 1.367 . S
C1345 C1353 1.433 . S
C1346 H1342 0.929 . S
C1346 C1348 1.378 . S
C1346 C1350 1.350 . S
C1347 C1350 1.463 . S
C1347 C1352 1.350 . S
C1347 N1355 1.427 . S
C1348 H1339 0.930 . S
C1348 C1346 1.378 . S
C1348 C1349 1.367 . S
C1349 C1348 1.367 . S
C1349 C1351 1.433 . S
C1350 C1346 1.350 . S
C1350 C1347 1.463 . S
C1350 N1354 1.427 . S
C1351 H1341 0.929 . S
C1351 C1349 1.433 . S
C1351 N1354 1.384 . S
C1352 H1343 0.929 . S
C1352 C1344 1.378 . S
C1352 C1347 1.350 . S
C1353 H1340 0.929 . S
C1353 C1345 1.433 . S
C1353 N1355 1.384 . S
N1354 C1350 1.427 . S
N1354 C1351 1.384 . S
N1355 C1347 1.427 . S
N1355 C1353 1.384 . S
H1356 C1362 0.930 . S
H1357 C1366 0.930 . S
H1358 C1371 0.929 . S
H1359 C1369 0.929 . S
H1360 C1364 0.929 . S
H1361 C1370 0.929 . S
C1362 H1356 0.930 . S
C1362 C1363 1.367 . S
C1362 C1370 1.378 . S
C1363 C1362 1.367 . S
C1363 C1371 1.433 . S
C1364 H1360 0.929 . S
C1364 C1366 1.378 . S
C1364 C1368 1.350 . S
C1365 C1368 1.463 . S
C1365 C1370 1.350 . S
C1365 N1373 1.427 . S
C1366 H1357 0.930 . S
C1366 C1364 1.378 . S
C1366 C1367 1.367 . S
C1367 C1366 1.367 . S
C1367 C1369 1.433 . S
C1368 C1364 1.350 . S
C1368 C1365 1.463 . S
C1368 N1372 1.427 . S
C1369 H1359 0.929 . S
C1369 C1367 1.433 . S
C1369 N1372 1.384 . S
C1370 H1361 0.929 . S
C1370 C1362 1.378 . S
C1370 C1365 1.350 . S
C1371 H1358 0.929 . S
C1371 C1363 1.433 . S
C1371 N1373 1.384 . S
N1372 C1368 1.427 . S
N1372 C1369 1.384 . S
N1373 C1365 1.427 . S
N1373 C1371 1.384 . S
H1374 C1380 0.930 . S
H1375 C1384 0.930 . S
H1376 C1389 0.929 . S
H1377 C1387 0.929 . S
H1378 C1382 0.929 . S
H1379 C1388 0.929 . S
C1380 H1374 0.930 . S
C1380 C1381 1.367 . S
C1380 C1388 1.378 . S
C1381 C1380 1.367 . S
C1381 C1389 1.433 . S
C1382 H1378 0.929 . S
C1382 C1384 1.378 . S
C1382 C1386 1.350 . S
C1383 C1386 1.463 . S
C1383 C1388 1.350 . S
C1383 N1391 1.427 . S
C1384 H1375 0.930 . S
C1384 C1382 1.378 . S
C1384 C1385 1.367 . S
C1385 C1384 1.367 . S
C1385 C1387 1.433 . S
C1386 C1382 1.350 . S
C1386 C1383 1.463 . S
C1386 N1390 1.427 . S
C1387 H1377 0.929 . S
C1387 C1385 1.433 . S
C1387 N1390 1.384 . S
C1388 H1379 0.929 . S
C1388 C1380 1.378 . S
C1388 C1383 1.350 . S
C1389 H1376 0.929 . S
C1389 C1381 1.433 . S
C1389 N1391 1.384 . S
N1390 C1386 1.427 . S
N1390 C1387 1.384 . S
N1391 C1383 1.427 . S
N1391 C1389 1.384 . S
H1392 C1398 0.930 . S
H1393 C1402 0.930 . S
H1394 C1407 0.929 . S
H1395 C1405 0.929 . S
H1396 C1400 0.929 . S
H1397 C1406 0.929 . S
C1398 H1392 0.930 . S
C1398 C1399 1.367 . S
C1398 C1406 1.378 . S
C1399 C1398 1.367 . S
C1399 C1407 1.433 . S
C1400 H1396 0.929 . S
C1400 C1402 1.378 . S
C1400 C1404 1.350 . S
C1401 C1404 1.463 . S
C1401 C1406 1.350 . S
C1401 N1409 1.427 . S
C1402 H1393 0.930 . S
C1402 C1400 1.378 . S
C1402 C1403 1.367 . S
C1403 C1402 1.367 . S
C1403 C1405 1.433 . S
C1404 C1400 1.350 . S
C1404 C1401 1.463 . S
C1404 N1408 1.427 . S
C1405 H1395 0.929 . S
C1405 C1403 1.433 . S
C1405 N1408 1.384 . S
C1406 H1397 0.929 . S
C1406 C1398 1.378 . S
C1406 C1401 1.350 . S
C1407 H1394 0.929 . S
C1407 C1399 1.433 . S
C1407 N1409 1.384 . S
N1408 C1404 1.427 . S
N1408 C1405 1.384 . S
N1409 C1401 1.427 . S
N1409 C1407 1.384 . S
H1410 C1416 0.930 . S
H1411 C1420 0.930 . S
H1412 C1425 0.929 . S
H1413 C1423 0.929 . S
H1414 C1418 0.929 . S
H1415 C1424 0.929 . S
C1416 H1410 0.930 . S
C1416 C1417 1.367 . S
C1416 C1424 1.378 . S
C1417 C1416 1.367 . S
C1417 C1425 1.433 . S
C1418 H1414 0.929 . S
C1418 C1420 1.378 . S
C1418 C1422 1.350 . S
C1419 C1422 1.463 . S
C1419 C1424 1.350 . S
C1419 N1427 1.427 . S
C1420 H1411 0.930 . S
C1420 C1418 1.378 . S
C1420 C1421 1.367 . S
C1421 C1420 1.367 . S
C1421 C1423 1.433 . S
C1422 C1418 1.350 . S
C1422 C1419 1.463 . S
C1422 N1426 1.427 . S
C1423 H1413 0.929 . S
C1423 C1421 1.433 . S
C1423 N1426 1.384 . S
C1424 H1415 0.929 . S
C1424 C1416 1.378 . S
C1424 C1419 1.350 . S
C1425 H1412 0.929 . S
C1425 C1417 1.433 . S
C1425 N1427 1.384 . S
N1426 C1422 1.427 . S
N1426 C1423 1.384 . S
N1427 C1419 1.427 . S
N1427 C1425 1.384 . S
H1428 C1434 0.930 . S
H1429 C1438 0.930 . S
H1430 C1443 0.929 . S
H1431 C1441 0.929 . S
H1432 C1436 0.929 . S
H1433 C1442 0.929 . S
C1434 H1428 0.930 . S
C1434 C1435 1.367 . S
C1434 C1442 1.378 . S
C1435 C1434 1.367 . S
C1435 C1443 1.433 . S
C1436 H1432 0.929 . S
C1436 C1438 1.378 . S
C1436 C1440 1.350 . S
C1437 C1440 1.463 . S
C1437 C1442 1.350 . S
C1437 N1445 1.427 . S
C1438 H1429 0.930 . S
C1438 C1436 1.378 . S
C1438 C1439 1.367 . S
C1439 C1438 1.367 . S
C1439 C1441 1.433 . S
C1440 C1436 1.350 . S
C1440 C1437 1.463 . S
C1440 N1444 1.427 . S
C1441 H1431 0.929 . S
C1441 C1439 1.433 . S
C1441 N1444 1.384 . S
C1442 H1433 0.929 . S
C1442 C1434 1.378 . S
C1442 C1437 1.350 . S
C1443 H1430 0.929 . S
C1443 C1435 1.433 . S
C1443 N1445 1.384 . S
N1444 C1440 1.427 . S
N1444 C1441 1.384 . S
N1445 C1437 1.427 . S
N1445 C1443 1.384 . S
H1446 C1452 0.930 . S
H1447 C1456 0.930 . S
H1448 C1461 0.929 . S
H1449 C1459 0.929 . S
H1450 C1454 0.929 . S
H1451 C1460 0.929 . S
C1452 H1446 0.930 . S
C1452 C1453 1.367 . S
C1452 C1460 1.378 . S
C1453 C1452 1.367 . S
C1453 C1461 1.433 . S
C1454 H1450 0.929 . S
C1454 C1456 1.378 . S
C1454 C1458 1.350 . S
C1455 C1458 1.463 . S
C1455 C1460 1.350 . S
C1455 N1463 1.427 . S
C1456 H1447 0.930 . S
C1456 C1454 1.378 . S
C1456 C1457 1.367 . S
C1457 C1456 1.367 . S
C1457 C1459 1.433 . S
C1458 C1454 1.350 . S
C1458 C1455 1.463 . S
C1458 N1462 1.427 . S
C1459 H1449 0.929 . S
C1459 C1457 1.433 . S
C1459 N1462 1.384 . S
C1460 H1451 0.929 . S
C1460 C1452 1.378 . S
C1460 C1455 1.350 . S
C1461 H1448 0.929 . S
C1461 C1453 1.433 . S
C1461 N1463 1.384 . S
N1462 C1458 1.427 . S
N1462 C1459 1.384 . S
N1463 C1455 1.427 . S
N1463 C1461 1.384 . S
H1464 C1470 0.930 . S
H1465 C1474 0.930 . S
H1466 C1479 0.929 . S
H1467 C1477 0.929 . S
H1468 C1472 0.929 . S
H1469 C1478 0.929 . S
C1470 H1464 0.930 . S
C1470 C1471 1.367 . S
C1470 C1478 1.378 . S
C1471 C1470 1.367 . S
C1471 C1479 1.433 . S
C1472 H1468 0.929 . S
C1472 C1474 1.378 . S
C1472 C1476 1.350 . S
C1473 C1476 1.463 . S
C1473 C1478 1.350 . S
C1473 N1481 1.427 . S
C1474 H1465 0.930 . S
C1474 C1472 1.378 . S
C1474 C1475 1.367 . S
C1475 C1474 1.367 . S
C1475 C1477 1.433 . S
C1476 C1472 1.350 . S
C1476 C1473 1.463 . S
C1476 N1480 1.427 . S
C1477 H1467 0.929 . S
C1477 C1475 1.433 . S
C1477 N1480 1.384 . S
C1478 H1469 0.929 . S
C1478 C1470 1.378 . S
C1478 C1473 1.350 . S
C1479 H1466 0.929 . S
C1479 C1471 1.433 . S
C1479 N1481 1.384 . S
N1480 C1476 1.427 . S
N1480 C1477 1.384 . S
N1481 C1473 1.427 . S
N1481 C1479 1.384 . S
H1482 C1488 0.930 . S
H1483 C1492 0.930 . S
H1484 C1497 0.929 . S
H1485 C1495 0.929 . S
H1486 C1490 0.929 . S
H1487 C1496 0.929 . S
C1488 H1482 0.930 . S
C1488 C1489 1.367 . S
C1488 C1496 1.378 . S
C1489 C1488 1.367 . S
C1489 C1497 1.433 . S
C1490 H1486 0.929 . S
C1490 C1492 1.378 . S
C1490 C1494 1.350 . S
C1491 C1494 1.463 . S
C1491 C1496 1.350 . S
C1491 N1499 1.427 . S
C1492 H1483 0.930 . S
C1492 C1490 1.378 . S
C1492 C1493 1.367 . S
C1493 C1492 1.367 . S
C1493 C1495 1.433 . S
C1494 C1490 1.350 . S
C1494 C1491 1.463 . S
C1494 N1498 1.427 . S
C1495 H1485 0.929 . S
C1495 C1493 1.433 . S
C1495 N1498 1.384 . S
C1496 H1487 0.929 . S
C1496 C1488 1.378 . S
C1496 C1491 1.350 . S
C1497 H1484 0.929 . S
C1497 C1489 1.433 . S
C1497 N1499 1.384 . S
N1498 C1494 1.427 . S
N1498 C1495 1.384 . S
N1499 C1491 1.427 . S
N1499 C1497 1.384 . S
H1500 C1506 0.930 . S
H1501 C1510 0.930 . S
H1502 C1515 0.929 . S
H1503 C1513 0.929 . S
H1504 C1508 0.929 . S
H1505 C1514 0.929 . S
C1506 H1500 0.930 . S
C1506 C1507 1.367 . S
C1506 C1514 1.378 . S
C1507 C1506 1.367 . S
C1507 C1515 1.433 . S
C1508 H1504 0.929 . S
C1508 C1510 1.378 . S
C1508 C1512 1.350 . S
C1509 C1512 1.463 . S
C1509 C1514 1.350 . S
C1509 N1517 1.427 . S
C1510 H1501 0.930 . S
C1510 C1508 1.378 . S
C1510 C1511 1.367 . S
C1511 C1510 1.367 . S
C1511 C1513 1.433 . S
C1512 C1508 1.350 . S
C1512 C1509 1.463 . S
C1512 N1516 1.427 . S
C1513 H1503 0.929 . S
C1513 C1511 1.433 . S
C1513 N1516 1.384 . S
C1514 H1505 0.929 . S
C1514 C1506 1.378 . S
C1514 C1509 1.350 . S
C1515 H1502 0.929 . S
C1515 C1507 1.433 . S
C1515 N1517 1.384 . S
N1516 C1512 1.427 . S
N1516 C1513 1.384 . S
N1517 C1509 1.427 . S
N1517 C1515 1.384 . S
H1518 C1524 0.930 . S
H1519 C1528 0.930 . S
H1520 C1533 0.929 . S
H1521 C1531 0.929 . S
H1522 C1526 0.929 . S
H1523 C1532 0.929 . S
C1524 H1518 0.930 . S
C1524 C1525 1.367 . S
C1524 C1532 1.378 . S
C1525 C1524 1.367 . S
C1525 C1533 1.433 . S
C1526 H1522 0.929 . S
C1526 C1528 1.378 . S
C1526 C1530 1.350 . S
C1527 C1530 1.463 . S
C1527 C1532 1.350 . S
C1527 N1535 1.427 . S
C1528 H1519 0.930 . S
C1528 C1526 1.378 . S
C1528 C1529 1.367 . S
C1529 C1528 1.367 . S
C1529 C1531 1.433 . S
C1530 C1526 1.350 . S
C1530 C1527 1.463 . S
C1530 N1534 1.427 . S
C1531 H1521 0.929 . S
C1531 C1529 1.433 . S
C1531 N1534 1.384 . S
C1532 H1523 0.929 . S
C1532 C1524 1.378 . S
C1532 C1527 1.350 . S
C1533 H1520 0.929 . S
C1533 C1525 1.433 . S
C1533 N1535 1.384 . S
N1534 C1530 1.427 . S
N1534 C1531 1.384 . S
N1535 C1527 1.427 . S
N1535 C1533 1.384 . S
H1536 C1542 0.930 . S
H1537 C1546 0.930 . S
H1538 C1551 0.929 . S
H1539 C1549 0.929 . S
H1540 C1544 0.929 . S
H1541 C1550 0.929 . S
C1542 H1536 0.930 . S
C1542 C1543 1.367 . S
C1542 C1550 1.378 . S
C1543 C1542 1.367 . S
C1543 C1551 1.433 . S
C1544 H1540 0.929 . S
C1544 C1546 1.378 . S
C1544 C1548 1.350 . S
C1545 C1548 1.463 . S
C1545 C1550 1.350 . S
C1545 N1553 1.427 . S
C1546 H1537 0.930 . S
C1546 C1544 1.378 . S
C1546 C1547 1.367 . S
C1547 C1546 1.367 . S
C1547 C1549 1.433 . S
C1548 C1544 1.350 . S
C1548 C1545 1.463 . S
C1548 N1552 1.427 . S
C1549 H1539 0.929 . S
C1549 C1547 1.433 . S
C1549 N1552 1.384 . S
C1550 H1541 0.929 . S
C1550 C1542 1.378 . S
C1550 C1545 1.350 . S
C1551 H1538 0.929 . S
C1551 C1543 1.433 . S
C1551 N1553 1.384 . S
N1552 C1548 1.427 . S
N1552 C1549 1.384 . S
N1553 C1545 1.427 . S
N1553 C1551 1.384 . S
H1554 C1560 0.930 . S
H1555 C1564 0.930 . S
H1556 C1569 0.929 . S
H1557 C1567 0.929 . S
H1558 C1562 0.929 . S
H1559 C1568 0.929 . S
C1560 H1554 0.930 . S
C1560 C1561 1.367 . S
C1560 C1568 1.378 . S
C1561 C1560 1.367 . S
C1561 C1569 1.433 . S
C1562 H1558 0.929 . S
C1562 C1564 1.378 . S
C1562 C1566 1.350 . S
C1563 C1566 1.463 . S
C1563 C1568 1.350 . S
C1563 N1571 1.427 . S
C1564 H1555 0.930 . S
C1564 C1562 1.378 . S
C1564 C1565 1.367 . S
C1565 C1564 1.367 . S
C1565 C1567 1.433 . S
C1566 C1562 1.350 . S
C1566 C1563 1.463 . S
C1566 N1570 1.427 . S
C1567 H1557 0.929 . S
C1567 C1565 1.433 . S
C1567 N1570 1.384 . S
C1568 H1559 0.929 . S
C1568 C1560 1.378 . S
C1568 C1563 1.350 . S
C1569 H1556 0.929 . S
C1569 C1561 1.433 . S
C1569 N1571 1.384 . S
N1570 C1566 1.427 . S
N1570 C1567 1.384 . S
N1571 C1563 1.427 . S
N1571 C1569 1.384 . S
H1572 C1578 0.930 . S
H1573 C1582 0.930 . S
H1574 C1587 0.929 . S
H1575 C1585 0.929 . S
H1576 C1580 0.929 . S
H1577 C1586 0.929 . S
C1578 H1572 0.930 . S
C1578 C1579 1.367 . S
C1578 C1586 1.378 . S
C1579 C1578 1.367 . S
C1579 C1587 1.433 . S
C1580 H1576 0.929 . S
C1580 C1582 1.378 . S
C1580 C1584 1.350 . S
C1581 C1584 1.463 . S
C1581 C1586 1.350 . S
C1581 N1589 1.427 . S
C1582 H1573 0.930 . S
C1582 C1580 1.378 . S
C1582 C1583 1.367 . S
C1583 C1582 1.367 . S
C1583 C1585 1.433 . S
C1584 C1580 1.350 . S
C1584 C1581 1.463 . S
C1584 N1588 1.427 . S
C1585 H1575 0.929 . S
C1585 C1583 1.433 . S
C1585 N1588 1.384 . S
C1586 H1577 0.929 . S
C1586 C1578 1.378 . S
C1586 C1581 1.350 . S
C1587 H1574 0.929 . S
C1587 C1579 1.433 . S
C1587 N1589 1.384 . S
N1588 C1584 1.427 . S
N1588 C1585 1.384 . S
N1589 C1581 1.427 . S
N1589 C1587 1.384 . S
H1590 C1596 0.930 . S
H1591 C1600 0.930 . S
H1592 C1605 0.929 . S
H1593 C1603 0.929 . S
H1594 C1598 0.929 . S
H1595 C1604 0.929 . S
C1596 H1590 0.930 . S
C1596 C1597 1.367 . S
C1596 C1604 1.378 . S
C1597 C1596 1.367 . S
C1597 C1605 1.433 . S
C1598 H1594 0.929 . S
C1598 C1600 1.378 . S
C1598 C1602 1.350 . S
C1599 C1602 1.463 . S
C1599 C1604 1.350 . S
C1599 N1607 1.427 . S
C1600 H1591 0.930 . S
C1600 C1598 1.378 . S
C1600 C1601 1.367 . S
C1601 C1600 1.367 . S
C1601 C1603 1.433 . S
C1602 C1598 1.350 . S
C1602 C1599 1.463 . S
C1602 N1606 1.427 . S
C1603 H1593 0.929 . S
C1603 C1601 1.433 . S
C1603 N1606 1.384 . S
C1604 H1595 0.929 . S
C1604 C1596 1.378 . S
C1604 C1599 1.350 . S
C1605 H1592 0.929 . S
C1605 C1597 1.433 . S
C1605 N1607 1.384 . S
N1606 C1602 1.427 . S
N1606 C1603 1.384 . S
N1607 C1599 1.427 . S
N1607 C1605 1.384 . S
H1608 C1614 0.930 . S
H1609 C1618 0.930 . S
H1610 C1623 0.929 . S
H1611 C1621 0.929 . S
H1612 C1616 0.929 . S
H1613 C1622 0.929 . S
C1614 H1608 0.930 . S
C1614 C1615 1.367 . S
C1614 C1622 1.378 . S
C1615 C1614 1.367 . S
C1615 C1623 1.433 . S
C1616 H1612 0.929 . S
C1616 C1618 1.378 . S
C1616 C1620 1.350 . S
C1617 C1620 1.463 . S
C1617 C1622 1.350 . S
C1617 N1625 1.427 . S
C1618 H1609 0.930 . S
C1618 C1616 1.378 . S
C1618 C1619 1.367 . S
C1619 C1618 1.367 . S
C1619 C1621 1.433 . S
C1620 C1616 1.350 . S
C1620 C1617 1.463 . S
C1620 N1624 1.427 . S
C1621 H1611 0.929 . S
C1621 C1619 1.433 . S
C1621 N1624 1.384 . S
C1622 H1613 0.929 . S
C1622 C1614 1.378 . S
C1622 C1617 1.350 . S
C1623 H1610 0.929 . S
C1623 C1615 1.433 . S
C1623 N1625 1.384 . S
N1624 C1620 1.427 . S
N1624 C1621 1.384 . S
N1625 C1617 1.427 . S
N1625 C1623 1.384 . S
H1626 C1632 0.930 . S
H1627 C1636 0.930 . S
H1628 C1641 0.929 . S
H1629 C1639 0.929 . S
H1630 C1634 0.929 . S
H1631 C1640 0.929 . S
C1632 H1626 0.930 . S
C1632 C1633 1.367 . S
C1632 C1640 1.378 . S
C1633 C1632 1.367 . S
C1633 C1641 1.433 . S
C1634 H1630 0.929 . S
C1634 C1636 1.378 . S
C1634 C1638 1.350 . S
C1635 C1638 1.463 . S
C1635 C1640 1.350 . S
C1635 N1643 1.427 . S
C1636 H1627 0.930 . S
C1636 C1634 1.378 . S
C1636 C1637 1.367 . S
C1637 C1636 1.367 . S
C1637 C1639 1.433 . S
C1638 C1634 1.350 . S
C1638 C1635 1.463 . S
C1638 N1642 1.427 . S
C1639 H1629 0.929 . S
C1639 C1637 1.433 . S
C1639 N1642 1.384 . S
C1640 H1631 0.929 . S
C1640 C1632 1.378 . S
C1640 C1635 1.350 . S
C1641 H1628 0.929 . S
C1641 C1633 1.433 . S
C1641 N1643 1.384 . S
N1642 C1638 1.427 . S
N1642 C1639 1.384 . S
N1643 C1635 1.427 . S
N1643 C1641 1.384 . S
H1644 C1650 0.930 . S
H1645 C1654 0.930 . S
H1646 C1659 0.929 . S
H1647 C1657 0.929 . S
H1648 C1652 0.929 . S
H1649 C1658 0.929 . S
C1650 H1644 0.930 . S
C1650 C1651 1.367 . S
C1650 C1658 1.378 . S
C1651 C1650 1.367 . S
C1651 C1659 1.433 . S
C1652 H1648 0.929 . S
C1652 C1654 1.378 . S
C1652 C1656 1.350 . S
C1653 C1656 1.463 . S
C1653 C1658 1.350 . S
C1653 N1661 1.427 . S
C1654 H1645 0.930 . S
C1654 C1652 1.378 . S
C1654 C1655 1.367 . S
C1655 C1654 1.367 . S
C1655 C1657 1.433 . S
C1656 C1652 1.350 . S
C1656 C1653 1.463 . S
C1656 N1660 1.427 . S
C1657 H1647 0.929 . S
C1657 C1655 1.433 . S
C1657 N1660 1.384 . S
C1658 H1649 0.929 . S
C1658 C1650 1.378 . S
C1658 C1653 1.350 . S
C1659 H1646 0.929 . S
C1659 C1651 1.433 . S
C1659 N1661 1.384 . S
N1660 C1656 1.427 . S
N1660 C1657 1.384 . S
N1661 C1653 1.427 . S
N1661 C1659 1.384 . S
H1662 C1668 0.930 . S
H1663 C1672 0.930 . S
H1664 C1677 0.929 . S
H1665 C1675 0.929 . S
H1666 C1670 0.929 . S
H1667 C1676 0.929 . S
C1668 H1662 0.930 . S
C1668 C1669 1.367 . S
C1668 C1676 1.378 . S
C1669 C1668 1.367 . S
C1669 C1677 1.433 . S
C1670 H1666 0.929 . S
C1670 C1672 1.378 . S
C1670 C1674 1.350 . S
C1671 C1674 1.463 . S
C1671 C1676 1.350 . S
C1671 N1679 1.427 . S
C1672 H1663 0.930 . S
C1672 C1670 1.378 . S
C1672 C1673 1.367 . S
C1673 C1672 1.367 . S
C1673 C1675 1.433 . S
C1674 C1670 1.350 . S
C1674 C1671 1.463 . S
C1674 N1678 1.427 . S
C1675 H1665 0.929 . S
C1675 C1673 1.433 . S
C1675 N1678 1.384 . S
C1676 H1667 0.929 . S
C1676 C1668 1.378 . S
C1676 C1671 1.350 . S
C1677 H1664 0.929 . S
C1677 C1669 1.433 . S
C1677 N1679 1.384 . S
N1678 C1674 1.427 . S
N1678 C1675 1.384 . S
N1679 C1671 1.427 . S
N1679 C1677 1.384 . S
H1680 C1686 0.930 . S
H1681 C1690 0.930 . S
H1682 C1695 0.929 . S
H1683 C1693 0.929 . S
H1684 C1688 0.929 . S
H1685 C1694 0.929 . S
C1686 H1680 0.930 . S
C1686 C1687 1.367 . S
C1686 C1694 1.378 . S
C1687 C1686 1.367 . S
C1687 C1695 1.433 . S
C1688 H1684 0.929 . S
C1688 C1690 1.378 . S
C1688 C1692 1.350 . S
C1689 C1692 1.463 . S
C1689 C1694 1.350 . S
C1689 N1697 1.427 . S
C1690 H1681 0.930 . S
C1690 C1688 1.378 . S
C1690 C1691 1.367 . S
C1691 C1690 1.367 . S
C1691 C1693 1.433 . S
C1692 C1688 1.350 . S
C1692 C1689 1.463 . S
C1692 N1696 1.427 . S
C1693 H1683 0.929 . S
C1693 C1691 1.433 . S
C1693 N1696 1.384 . S
C1694 H1685 0.929 . S
C1694 C1686 1.378 . S
C1694 C1689 1.350 . S
C1695 H1682 0.929 . S
C1695 C1687 1.433 . S
C1695 N1697 1.384 . S
N1696 C1692 1.427 . S
N1696 C1693 1.384 . S
N1697 C1689 1.427 . S
N1697 C1695 1.384 . S
H1698 C1704 0.930 . S
H1699 C1708 0.930 . S
H1700 C1713 0.929 . S
H1701 C1711 0.929 . S
H1702 C1706 0.929 . S
H1703 C1712 0.929 . S
C1704 H1698 0.930 . S
C1704 C1705 1.367 . S
C1704 C1712 1.378 . S
C1705 C1704 1.367 . S
C1705 C1713 1.433 . S
C1706 H1702 0.929 . S
C1706 C1708 1.378 . S
C1706 C1710 1.350 . S
C1707 C1710 1.463 . S
C1707 C1712 1.350 . S
C1707 N1715 1.427 . S
C1708 H1699 0.930 . S
C1708 C1706 1.378 . S
C1708 C1709 1.367 . S
C1709 C1708 1.367 . S
C1709 C1711 1.433 . S
C1710 C1706 1.350 . S
C1710 C1707 1.463 . S
C1710 N1714 1.427 . S
C1711 H1701 0.929 . S
C1711 C1709 1.433 . S
C1711 N1714 1.384 . S
C1712 H1703 0.929 . S
C1712 C1704 1.378 . S
C1712 C1707 1.350 . S
C1713 H1700 0.929 . S
C1713 C1705 1.433 . S
C1713 N1715 1.384 . S
N1714 C1710 1.427 . S
N1714 C1711 1.384 . S
N1715 C1707 1.427 . S
N1715 C1713 1.384 . S
H1716 C1722 0.930 . S
H1717 C1726 0.930 . S
H1718 C1731 0.929 . S
H1719 C1729 0.929 . S
H1720 C1724 0.929 . S
H1721 C1730 0.929 . S
C1722 H1716 0.930 . S
C1722 C1723 1.367 . S
C1722 C1730 1.378 . S
C1723 C1722 1.367 . S
C1723 C1731 1.433 . S
C1724 H1720 0.929 . S
C1724 C1726 1.378 . S
C1724 C1728 1.350 . S
C1725 C1728 1.463 . S
C1725 C1730 1.350 . S
C1725 N1733 1.427 . S
C1726 H1717 0.930 . S
C1726 C1724 1.378 . S
C1726 C1727 1.367 . S
C1727 C1726 1.367 . S
C1727 C1729 1.433 . S
C1728 C1724 1.350 . S
C1728 C1725 1.463 . S
C1728 N1732 1.427 . S
C1729 H1719 0.929 . S
C1729 C1727 1.433 . S
C1729 N1732 1.384 . S
C1730 H1721 0.929 . S
C1730 C1722 1.378 . S
C1730 C1725 1.350 . S
C1731 H1718 0.929 . S
C1731 C1723 1.433 . S
C1731 N1733 1.384 . S
N1732 C1728 1.427 . S
N1732 C1729 1.384 . S
N1733 C1725 1.427 . S
N1733 C1731 1.384 . S
H1734 C1740 0.930 . S
H1735 C1744 0.930 . S
H1736 C1749 0.929 . S
H1737 C1747 0.929 . S
H1738 C1742 0.929 . S
H1739 C1748 0.929 . S
C1740 H1734 0.930 . S
C1740 C1741 1.367 . S
C1740 C1748 1.378 . S
C1741 C1740 1.367 . S
C1741 C1749 1.433 . S
C1742 H1738 0.929 . S
C1742 C1744 1.378 . S
C1742 C1746 1.350 . S
C1743 C1746 1.463 . S
C1743 C1748 1.350 . S
C1743 N1751 1.427 . S
C1744 H1735 0.930 . S
C1744 C1742 1.378 . S
C1744 C1745 1.367 . S
C1745 C1744 1.367 . S
C1745 C1747 1.433 . S
C1746 C1742 1.350 . S
C1746 C1743 1.463 . S
C1746 N1750 1.427 . S
C1747 H1737 0.929 . S
C1747 C1745 1.433 . S
C1747 N1750 1.384 . S
C1748 H1739 0.929 . S
C1748 C1740 1.378 . S
C1748 C1743 1.350 . S
C1749 H1736 0.929 . S
C1749 C1741 1.433 . S
C1749 N1751 1.384 . S
N1750 C1746 1.427 . S
N1750 C1747 1.384 . S
N1751 C1743 1.427 . S
N1751 C1749 1.384 . S
H1752 C1758 0.930 . S
H1753 C1762 0.930 . S
H1754 C1767 0.929 . S
H1755 C1765 0.929 . S
H1756 C1760 0.929 . S
H1757 C1766 0.929 . S
C1758 H1752 0.930 . S
C1758 C1759 1.367 . S
C1758 C1766 1.378 . S
C1759 C1758 1.367 . S
C1759 C1767 1.433 . S
C1760 H1756 0.929 . S
C1760 C1762 1.378 . S
C1760 C1764 1.350 . S
C1761 C1764 1.463 . S
C1761 C1766 1.350 . S
C1761 N1769 1.427 . S
C1762 H1753 0.930 . S
C1762 C1760 1.378 . S
C1762 C1763 1.367 . S
C1763 C1762 1.367 . S
C1763 C1765 1.433 . S
C1764 C1760 1.350 . S
C1764 C1761 1.463 . S
C1764 N1768 1.427 . S
C1765 H1755 0.929 . S
C1765 C1763 1.433 . S
C1765 N1768 1.384 . S
C1766 H1757 0.929 . S
C1766 C1758 1.378 . S
C1766 C1761 1.350 . S
C1767 H1754 0.929 . S
C1767 C1759 1.433 . S
C1767 N1769 1.384 . S
N1768 C1764 1.427 . S
N1768 C1765 1.384 . S
N1769 C1761 1.427 . S
N1769 C1767 1.384 . S
H1770 C1776 0.930 . S
H1771 C1780 0.930 . S
H1772 C1785 0.929 . S
H1773 C1783 0.911 1_554 S
H1774 C1778 0.929 . S
H1775 C1784 0.929 . S
C1776 H1770 0.930 . S
C1776 C1777 1.367 . S
C1776 C1784 1.378 . S
C1777 C1776 1.367 . S
C1777 C1785 1.433 . S
C1778 H1774 0.929 . S
C1778 C1780 1.378 . S
C1778 C1782 1.350 . S
C1779 C1782 1.463 . S
C1779 C1784 1.350 . S
C1779 N1787 1.427 . S
C1780 H1771 0.930 . S
C1780 C1778 1.378 . S
C1780 C1781 1.367 . S
C1781 C1780 1.367 . S
C1781 C1783 1.433 . S
C1782 C1778 1.350 . S
C1782 C1779 1.463 . S
C1782 N1786 1.427 . S
C1783 H1773 0.911 1_556 S
C1783 C1781 1.433 . S
C1783 N1786 1.384 . S
C1784 H1775 0.929 . S
C1784 C1776 1.378 . S
C1784 C1779 1.350 . S
C1785 H1772 0.929 . S
C1785 C1777 1.433 . S
C1785 N1787 1.384 . S
N1786 C1782 1.427 . S
N1786 C1783 1.384 . S
N1787 C1779 1.427 . S
N1787 C1785 1.384 . S
H1788 C1794 0.930 . S
H1789 C1798 0.930 . S
H1790 C1803 0.929 . S
H1791 C1801 0.929 . S
H1792 C1796 0.929 . S
H1793 C1802 0.929 . S
C1794 H1788 0.930 . S
C1794 C1795 1.367 . S
C1794 C1802 1.378 . S
C1795 C1794 1.367 . S
C1795 C1803 1.433 . S
C1796 H1792 0.929 . S
C1796 C1798 1.378 . S
C1796 C1800 1.350 . S
C1797 C1800 1.463 . S
C1797 C1802 1.350 . S
C1797 N1805 1.427 . S
C1798 H1789 0.930 . S
C1798 C1796 1.378 . S
C1798 C1799 1.367 . S
C1799 C1798 1.367 . S
C1799 C1801 1.433 . S
C1800 C1796 1.350 . S
C1800 C1797 1.463 . S
C1800 N1804 1.427 . S
C1801 H1791 0.929 . S
C1801 C1799 1.433 . S
C1801 N1804 1.384 . S
C1802 H1793 0.929 . S
C1802 C1794 1.378 . S
C1802 C1797 1.350 . S
C1803 H1790 0.929 . S
C1803 C1795 1.433 . S
C1803 N1805 1.384 . S
N1804 C1800 1.427 . S
N1804 C1801 1.384 . S
N1805 C1797 1.427 . S
N1805 C1803 1.384 . S
H1806 C1812 0.930 . S
H1807 C1816 0.930 . S
H1808 C1821 0.929 . S
H1809 C1819 0.929 . S
H1810 C1814 0.929 . S
H1811 C1820 0.929 . S
C1812 H1806 0.930 . S
C1812 C1813 1.367 . S
C1812 C1820 1.378 . S
C1813 C1812 1.367 . S
C1813 C1821 1.433 . S
C1814 H1810 0.929 . S
C1814 C1816 1.378 . S
C1814 C1818 1.350 . S
C1815 C1818 1.463 . S
C1815 C1820 1.350 . S
C1815 N1823 1.427 . S
C1816 H1807 0.930 . S
C1816 C1814 1.378 . S
C1816 C1817 1.367 . S
C1817 C1816 1.367 . S
C1817 C1819 1.433 . S
C1818 C1814 1.350 . S
C1818 C1815 1.463 . S
C1818 N1822 1.427 . S
C1819 H1809 0.929 . S
C1819 C1817 1.433 . S
C1819 N1822 1.384 . S
C1820 H1811 0.929 . S
C1820 C1812 1.378 . S
C1820 C1815 1.350 . S
C1821 H1808 0.929 . S
C1821 C1813 1.433 . S
C1821 N1823 1.384 . S
N1822 C1818 1.427 . S
N1822 C1819 1.384 . S
N1823 C1815 1.427 . S
N1823 C1821 1.384 . S
H1824 C1830 0.930 . S
H1825 C1834 0.930 . S
H1826 C1839 0.929 . S
H1827 C1837 0.929 . S
H1828 C1832 0.929 . S
H1829 C1838 0.929 . S
C1830 H1824 0.930 . S
C1830 C1831 1.367 . S
C1830 C1838 1.378 . S
C1831 C1830 1.367 . S
C1831 C1839 1.433 . S
C1832 H1828 0.929 . S
C1832 C1834 1.378 . S
C1832 C1836 1.350 . S
C1833 C1836 1.463 . S
C1833 C1838 1.350 . S
C1833 N1841 1.427 . S
C1834 H1825 0.930 . S
C1834 C1832 1.378 . S
C1834 C1835 1.367 . S
C1835 C1834 1.367 . S
C1835 C1837 1.433 . S
C1836 C1832 1.350 . S
C1836 C1833 1.463 . S
C1836 N1840 1.427 . S
C1837 H1827 0.929 . S
C1837 C1835 1.433 . S
C1837 N1840 1.384 . S
C1838 H1829 0.929 . S
C1838 C1830 1.378 . S
C1838 C1833 1.350 . S
C1839 H1826 0.929 . S
C1839 C1831 1.433 . S
C1839 N1841 1.384 . S
N1840 C1836 1.427 . S
N1840 C1837 1.384 . S
N1841 C1833 1.427 . S
N1841 C1839 1.384 . S
H1842 C1848 0.930 . S
H1843 C1852 0.930 . S
H1844 C1857 0.929 . S
H1845 C1855 0.929 . S
H1846 C1850 0.929 . S
H1847 C1856 0.929 . S
C1848 H1842 0.930 . S
C1848 C1849 1.367 . S
C1848 C1856 1.378 . S
C1849 C1848 1.367 . S
C1849 C1857 1.433 . S
C1850 H1846 0.929 . S
C1850 C1852 1.378 . S
C1850 C1854 1.350 . S
C1851 C1854 1.463 . S
C1851 C1856 1.350 . S
C1851 N1859 1.427 . S
C1852 H1843 0.930 . S
C1852 C1850 1.378 . S
C1852 C1853 1.367 . S
C1853 C1852 1.367 . S
C1853 C1855 1.433 . S
C1854 C1850 1.350 . S
C1854 C1851 1.463 . S
C1854 N1858 1.427 . S
C1855 H1845 0.929 . S
C1855 C1853 1.433 . S
C1855 N1858 1.384 . S
C1856 H1847 0.929 . S
C1856 C1848 1.378 . S
C1856 C1851 1.350 . S
C1857 H1844 0.929 . S
C1857 C1849 1.433 . S
C1857 N1859 1.384 . S
N1858 C1854 1.427 . S
N1858 C1855 1.384 . S
N1859 C1851 1.427 . S
N1859 C1857 1.384 . S
H1860 C1866 0.930 . S
H1861 C1870 0.930 . S
H1862 C1875 0.929 . S
H1863 C1873 0.929 . S
H1864 C1868 0.929 . S
H1865 C1874 0.929 . S
C1866 H1860 0.930 . S
C1866 C1867 1.367 . S
C1866 C1874 1.378 . S
C1867 C1866 1.367 . S
C1867 C1875 1.433 . S
C1868 H1864 0.929 . S
C1868 C1870 1.378 . S
C1868 C1872 1.350 . S
C1869 C1872 1.463 . S
C1869 C1874 1.350 . S
C1869 N1877 1.427 . S
C1870 H1861 0.930 . S
C1870 C1868 1.378 . S
C1870 C1871 1.367 . S
C1871 C1870 1.367 . S
C1871 C1873 1.433 . S
C1872 C1868 1.350 . S
C1872 C1869 1.463 . S
C1872 N1876 1.427 . S
C1873 H1863 0.929 . S
C1873 C1871 1.433 . S
C1873 N1876 1.384 . S
C1874 H1865 0.929 . S
C1874 C1866 1.378 . S
C1874 C1869 1.350 . S
C1875 H1862 0.929 . S
C1875 C1867 1.433 . S
C1875 N1877 1.384 . S
N1876 C1872 1.427 . S
N1876 C1873 1.384 . S
N1877 C1869 1.427 . S
N1877 C1875 1.384 . S
H1878 C1884 0.930 . S
H1879 C1888 0.930 . S
H1880 C1893 0.929 . S
H1881 C1891 0.929 . S
H1882 C1886 0.929 . S
H1883 C1892 0.929 . S
C1884 H1878 0.930 . S
C1884 C1885 1.367 . S
C1884 C1892 1.378 . S
C1885 C1884 1.367 . S
C1885 C1893 1.433 . S
C1886 H1882 0.929 . S
C1886 C1888 1.378 . S
C1886 C1890 1.350 . S
C1887 C1890 1.463 . S
C1887 C1892 1.350 . S
C1887 N1895 1.427 . S
C1888 H1879 0.930 . S
C1888 C1886 1.378 . S
C1888 C1889 1.367 . S
C1889 C1888 1.367 . S
C1889 C1891 1.433 . S
C1890 C1886 1.350 . S
C1890 C1887 1.463 . S
C1890 N1894 1.427 . S
C1891 H1881 0.929 . S
C1891 C1889 1.433 . S
C1891 N1894 1.384 . S
C1892 H1883 0.929 . S
C1892 C1884 1.378 . S
C1892 C1887 1.350 . S
C1893 H1880 0.929 . S
C1893 C1885 1.433 . S
C1893 N1895 1.384 . S
N1894 C1890 1.427 . S
N1894 C1891 1.384 . S
N1895 C1887 1.427 . S
N1895 C1893 1.384 . S
H1896 C1902 0.930 . S
H1897 C1906 0.930 . S
H1898 C1911 0.929 . S
H1899 C1909 0.929 . S
H1900 C1904 0.929 . S
H1901 C1910 0.929 . S
C1902 H1896 0.930 . S
C1902 C1903 1.367 . S
C1902 C1910 1.378 . S
C1903 C1902 1.367 . S
C1903 C1911 1.433 . S
C1904 H1900 0.929 . S
C1904 C1906 1.378 . S
C1904 C1908 1.350 . S
C1905 C1908 1.463 . S
C1905 C1910 1.350 . S
C1905 N1913 1.427 . S
C1906 H1897 0.930 . S
C1906 C1904 1.378 . S
C1906 C1907 1.367 . S
C1907 C1906 1.367 . S
C1907 C1909 1.433 . S
C1908 C1904 1.350 . S
C1908 C1905 1.463 . S
C1908 N1912 1.427 . S
C1909 H1899 0.929 . S
C1909 C1907 1.433 . S
C1909 N1912 1.384 . S
C1910 H1901 0.929 . S
C1910 C1902 1.378 . S
C1910 C1905 1.350 . S
C1911 H1898 0.929 . S
C1911 C1903 1.433 . S
C1911 N1913 1.384 . S
N1912 C1908 1.427 . S
N1912 C1909 1.384 . S
N1913 C1905 1.427 . S
N1913 C1911 1.384 . S
H1914 C1920 0.930 . S
H1915 C1924 0.930 . S
H1916 C1929 0.929 . S
H1917 C1927 0.929 . S
H1918 C1922 0.929 . S
H1919 C1928 0.929 . S
C1920 H1914 0.930 . S
C1920 C1921 1.367 . S
C1920 C1928 1.378 . S
C1921 C1920 1.367 . S
C1921 C1929 1.433 . S
C1922 H1918 0.929 . S
C1922 C1924 1.378 . S
C1922 C1926 1.350 . S
C1923 C1926 1.463 . S
C1923 C1928 1.350 . S
C1923 N1931 1.427 . S
C1924 H1915 0.930 . S
C1924 C1922 1.378 . S
C1924 C1925 1.367 . S
C1925 C1924 1.367 . S
C1925 C1927 1.433 . S
C1926 C1922 1.350 . S
C1926 C1923 1.463 . S
C1926 N1930 1.427 . S
C1927 H1917 0.929 . S
C1927 C1925 1.433 . S
C1927 N1930 1.384 . S
C1928 H1919 0.929 . S
C1928 C1920 1.378 . S
C1928 C1923 1.350 . S
C1929 H1916 0.929 . S
C1929 C1921 1.433 . S
C1929 N1931 1.384 . S
N1930 C1926 1.427 . S
N1930 C1927 1.384 . S
N1931 C1923 1.427 . S
N1931 C1929 1.384 . S
H1932 C1938 0.930 . S
H1933 C1942 0.930 . S
H1934 C1947 0.929 . S
H1935 C1945 0.929 . S
H1936 C1940 0.929 . S
H1937 C1946 0.929 . S
C1938 H1932 0.930 . S
C1938 C1939 1.367 . S
C1938 C1946 1.378 . S
C1939 C1938 1.367 . S
C1939 C1947 1.433 . S
C1940 H1936 0.929 . S
C1940 C1942 1.378 . S
C1940 C1944 1.350 . S
C1941 C1944 1.463 . S
C1941 C1946 1.350 . S
C1941 N1949 1.427 . S
C1942 H1933 0.930 . S
C1942 C1940 1.378 . S
C1942 C1943 1.367 . S
C1943 C1942 1.367 . S
C1943 C1945 1.433 . S
C1944 C1940 1.350 . S
C1944 C1941 1.463 . S
C1944 N1948 1.427 . S
C1945 H1935 0.929 . S
C1945 C1943 1.433 . S
C1945 N1948 1.384 . S
C1946 H1937 0.929 . S
C1946 C1938 1.378 . S
C1946 C1941 1.350 . S
C1947 H1934 0.929 . S
C1947 C1939 1.433 . S
C1947 N1949 1.384 . S
N1948 C1944 1.427 . S
N1948 C1945 1.384 . S
N1949 C1941 1.427 . S
N1949 C1947 1.384 . S
H1950 C1956 0.930 . S
H1951 C1960 0.930 . S
H1952 C1965 0.929 . S
H1953 C1963 0.929 . S
H1954 C1958 0.929 . S
H1955 C1964 0.929 . S
C1956 H1950 0.930 . S
C1956 C1957 1.367 . S
C1956 C1964 1.378 . S
C1957 C1956 1.367 . S
C1957 C1965 1.433 . S
C1958 H1954 0.929 . S
C1958 C1960 1.378 . S
C1958 C1962 1.350 . S
C1959 C1962 1.463 . S
C1959 C1964 1.350 . S
C1959 N1967 1.427 . S
C1960 H1951 0.930 . S
C1960 C1958 1.378 . S
C1960 C1961 1.367 . S
C1961 C1960 1.367 . S
C1961 C1963 1.433 . S
C1962 C1958 1.350 . S
C1962 C1959 1.463 . S
C1962 N1966 1.427 . S
C1963 H1953 0.929 . S
C1963 C1961 1.433 . S
C1963 N1966 1.384 . S
C1964 H1955 0.929 . S
C1964 C1956 1.378 . S
C1964 C1959 1.350 . S
C1965 H1952 0.929 . S
C1965 C1957 1.433 . S
C1965 N1967 1.384 . S
N1966 C1962 1.427 . S
N1966 C1963 1.384 . S
N1967 C1959 1.427 . S
N1967 C1965 1.384 . S
H1968 C1974 0.930 . S
H1969 C1978 0.930 . S
H1970 C1983 0.929 . S
H1971 C1981 0.929 . S
H1972 C1976 0.929 . S
H1973 C1982 0.929 . S
C1974 H1968 0.930 . S
C1974 C1975 1.367 . S
C1974 C1982 1.378 . S
C1975 C1974 1.367 . S
C1975 C1983 1.433 . S
C1976 H1972 0.929 . S
C1976 C1978 1.378 . S
C1976 C1980 1.350 . S
C1977 C1980 1.463 . S
C1977 C1982 1.350 . S
C1977 N1985 1.427 . S
C1978 H1969 0.930 . S
C1978 C1976 1.378 . S
C1978 C1979 1.367 . S
C1979 C1978 1.367 . S
C1979 C1981 1.433 . S
C1980 C1976 1.350 . S
C1980 C1977 1.463 . S
C1980 N1984 1.427 . S
C1981 H1971 0.929 . S
C1981 C1979 1.433 . S
C1981 N1984 1.384 . S
C1982 H1973 0.929 . S
C1982 C1974 1.378 . S
C1982 C1977 1.350 . S
C1983 H1970 0.929 . S
C1983 C1975 1.433 . S
C1983 N1985 1.384 . S
N1984 C1980 1.427 . S
N1984 C1981 1.384 . S
N1985 C1977 1.427 . S
N1985 C1983 1.384 . S
H1986 C1992 0.930 . S
H1987 C1996 0.930 . S
H1988 C2001 0.929 . S
H1989 C1999 0.929 . S
H1990 C1994 0.929 . S
H1991 C2000 0.929 . S
C1992 H1986 0.930 . S
C1992 C1993 1.367 . S
C1992 C2000 1.378 . S
C1993 C1992 1.367 . S
C1993 C2001 1.433 . S
C1994 H1990 0.929 . S
C1994 C1996 1.378 . S
C1994 C1998 1.350 . S
C1995 C1998 1.463 . S
C1995 C2000 1.350 . S
C1995 N2003 1.427 . S
C1996 H1987 0.930 . S
C1996 C1994 1.378 . S
C1996 C1997 1.367 . S
C1997 C1996 1.367 . S
C1997 C1999 1.433 . S
C1998 C1994 1.350 . S
C1998 C1995 1.463 . S
C1998 N2002 1.427 . S
C1999 H1989 0.929 . S
C1999 C1997 1.433 . S
C1999 N2002 1.384 . S
C2000 H1991 0.929 . S
C2000 C1992 1.378 . S
C2000 C1995 1.350 . S
C2001 H1988 0.929 . S
C2001 C1993 1.433 . S
C2001 N2003 1.384 . S
N2002 C1998 1.427 . S
N2002 C1999 1.384 . S
N2003 C1995 1.427 . S
N2003 C2001 1.384 . S
H2004 C2010 0.930 . S
H2005 C2014 0.930 . S
H2006 C2019 0.929 . S
H2007 C2017 0.929 . S
H2008 C2012 0.929 . S
H2009 C2018 0.929 . S
C2010 H2004 0.930 . S
C2010 C2011 1.367 . S
C2010 C2018 1.378 . S
C2011 C2010 1.367 . S
C2011 C2019 1.433 . S
C2012 H2008 0.929 . S
C2012 C2014 1.378 . S
C2012 C2016 1.350 . S
C2013 C2016 1.463 . S
C2013 C2018 1.350 . S
C2013 N2021 1.427 . S
C2014 H2005 0.930 . S
C2014 C2012 1.378 . S
C2014 C2015 1.367 . S
C2015 C2014 1.367 . S
C2015 C2017 1.433 . S
C2016 C2012 1.350 . S
C2016 C2013 1.463 . S
C2016 N2020 1.427 . S
C2017 H2007 0.929 . S
C2017 C2015 1.433 . S
C2017 N2020 1.384 . S
C2018 H2009 0.929 . S
C2018 C2010 1.378 . S
C2018 C2013 1.350 . S
C2019 H2006 0.929 . S
C2019 C2011 1.433 . S
C2019 N2021 1.384 . S
N2020 C2016 1.427 . S
N2020 C2017 1.384 . S
N2021 C2013 1.427 . S
N2021 C2019 1.384 . S
H2022 C2028 0.930 . S
H2023 C2032 0.930 . S
H2024 C2037 0.929 . S
H2025 C2035 0.929 . S
H2026 C2030 0.929 . S
H2027 C2036 0.929 . S
C2028 H2022 0.930 . S
C2028 C2029 1.367 . S
C2028 C2036 1.378 . S
C2029 C2028 1.367 . S
C2029 C2037 1.433 . S
C2030 H2026 0.929 . S
C2030 C2032 1.378 . S
C2030 C2034 1.350 . S
C2031 C2034 1.463 . S
C2031 C2036 1.350 . S
C2031 N2039 1.427 . S
C2032 H2023 0.930 . S
C2032 C2030 1.378 . S
C2032 C2033 1.367 . S
C2033 C2032 1.367 . S
C2033 C2035 1.433 . S
C2034 C2030 1.350 . S
C2034 C2031 1.463 . S
C2034 N2038 1.427 . S
C2035 H2025 0.929 . S
C2035 C2033 1.433 . S
C2035 N2038 1.384 . S
C2036 H2027 0.929 . S
C2036 C2028 1.378 . S
C2036 C2031 1.350 . S
C2037 H2024 0.929 . S
C2037 C2029 1.433 . S
C2037 N2039 1.384 . S
N2038 C2034 1.427 . S
N2038 C2035 1.384 . S
N2039 C2031 1.427 . S
N2039 C2037 1.384 . S
H2040 C2046 0.930 . S
H2041 C2050 0.930 . S
H2042 C2055 0.929 . S
H2043 C2053 0.929 . S
H2044 C2048 0.929 . S
H2045 C2054 0.929 . S
C2046 H2040 0.930 . S
C2046 C2047 1.367 . S
C2046 C2054 1.378 . S
C2047 C2046 1.367 . S
C2047 C2055 1.433 . S
C2048 H2044 0.929 . S
C2048 C2050 1.378 . S
C2048 C2052 1.350 . S
C2049 C2052 1.463 . S
C2049 C2054 1.350 . S
C2049 N2057 1.427 . S
C2050 H2041 0.930 . S
C2050 C2048 1.378 . S
C2050 C2051 1.367 . S
C2051 C2050 1.367 . S
C2051 C2053 1.433 . S
C2052 C2048 1.350 . S
C2052 C2049 1.463 . S
C2052 N2056 1.427 . S
C2053 H2043 0.929 . S
C2053 C2051 1.433 . S
C2053 N2056 1.384 . S
C2054 H2045 0.929 . S
C2054 C2046 1.378 . S
C2054 C2049 1.350 . S
C2055 H2042 0.929 . S
C2055 C2047 1.433 . S
C2055 N2057 1.384 . S
N2056 C2052 1.427 . S
N2056 C2053 1.384 . S
N2057 C2049 1.427 . S
N2057 C2055 1.384 . S
H2058 C2064 0.930 . S
H2059 C2068 0.930 . S
H2060 C2073 0.929 . S
H2061 C2071 0.929 . S
H2062 C2066 0.929 . S
H2063 C2072 0.929 . S
C2064 H2058 0.930 . S
C2064 C2065 1.367 . S
C2064 C2072 1.378 . S
C2065 C2064 1.367 . S
C2065 C2073 1.433 . S
C2066 H2062 0.929 . S
C2066 C2068 1.378 . S
C2066 C2070 1.350 . S
C2067 C2070 1.463 . S
C2067 C2072 1.350 . S
C2067 N2075 1.427 . S
C2068 H2059 0.930 . S
C2068 C2066 1.378 . S
C2068 C2069 1.367 . S
C2069 C2068 1.367 . S
C2069 C2071 1.433 . S
C2070 C2066 1.350 . S
C2070 C2067 1.463 . S
C2070 N2074 1.427 . S
C2071 H2061 0.929 . S
C2071 C2069 1.433 . S
C2071 N2074 1.384 . S
C2072 H2063 0.929 . S
C2072 C2064 1.378 . S
C2072 C2067 1.350 . S
C2073 H2060 0.929 . S
C2073 C2065 1.433 . S
C2073 N2075 1.384 . S
N2074 C2070 1.427 . S
N2074 C2071 1.384 . S
N2075 C2067 1.427 . S
N2075 C2073 1.384 . S
H2076 C2082 0.930 . S
H2077 C2086 0.930 . S
H2078 C2091 0.929 . S
H2079 C2089 0.929 . S
H2080 C2084 0.929 . S
H2081 C2090 0.929 . S
C2082 H2076 0.930 . S
C2082 C2083 1.367 . S
C2082 C2090 1.378 . S
C2083 C2082 1.367 . S
C2083 C2091 1.433 . S
C2084 H2080 0.929 . S
C2084 C2086 1.378 . S
C2084 C2088 1.350 . S
C2085 C2088 1.463 . S
C2085 C2090 1.350 . S
C2085 N2093 1.427 . S
C2086 H2077 0.930 . S
C2086 C2084 1.378 . S
C2086 C2087 1.367 . S
C2087 C2086 1.367 . S
C2087 C2089 1.433 . S
C2088 C2084 1.350 . S
C2088 C2085 1.463 . S
C2088 N2092 1.427 . S
C2089 H2079 0.929 . S
C2089 C2087 1.433 . S
C2089 N2092 1.384 . S
C2090 H2081 0.929 . S
C2090 C2082 1.378 . S
C2090 C2085 1.350 . S
C2091 H2078 0.929 . S
C2091 C2083 1.433 . S
C2091 N2093 1.384 . S
N2092 C2088 1.427 . S
N2092 C2089 1.384 . S
N2093 C2085 1.427 . S
N2093 C2091 1.384 . S
H2094 C2100 0.930 . S
H2095 C2104 0.930 . S
H2096 C2109 0.929 . S
H2097 C2107 0.929 . S
H2098 C2102 0.929 . S
H2099 C2108 0.929 . S
C2100 H2094 0.930 . S
C2100 C2101 1.367 . S
C2100 C2108 1.378 . S
C2101 C2100 1.367 . S
C2101 C2109 1.433 . S
C2102 H2098 0.929 . S
C2102 C2104 1.378 . S
C2102 C2106 1.350 . S
C2103 C2106 1.463 . S
C2103 C2108 1.350 . S
C2103 N2111 1.427 . S
C2104 H2095 0.930 . S
C2104 C2102 1.378 . S
C2104 C2105 1.367 . S
C2105 C2104 1.367 . S
C2105 C2107 1.433 . S
C2106 C2102 1.350 . S
C2106 C2103 1.463 . S
C2106 N2110 1.427 . S
C2107 H2097 0.929 . S
C2107 C2105 1.433 . S
C2107 N2110 1.384 . S
C2108 H2099 0.929 . S
C2108 C2100 1.378 . S
C2108 C2103 1.350 . S
C2109 H2096 0.929 . S
C2109 C2101 1.433 . S
C2109 N2111 1.384 . S
N2110 C2106 1.427 . S
N2110 C2107 1.384 . S
N2111 C2103 1.427 . S
N2111 C2109 1.384 . S
H2112 C2118 0.930 . S
H2113 C2122 0.930 . S
H2114 C2127 0.929 . S
H2115 C2125 0.929 . S
H2116 C2120 0.929 . S
H2117 C2126 0.929 . S
C2118 H2112 0.930 . S
C2118 C2119 1.367 . S
C2118 C2126 1.378 . S
C2119 C2118 1.367 . S
C2119 C2127 1.433 . S
C2120 H2116 0.929 . S
C2120 C2122 1.378 . S
C2120 C2124 1.350 . S
C2121 C2124 1.463 . S
C2121 C2126 1.350 . S
C2121 N2129 1.427 . S
C2122 H2113 0.930 . S
C2122 C2120 1.378 . S
C2122 C2123 1.367 . S
C2123 C2122 1.367 . S
C2123 C2125 1.433 . S
C2124 C2120 1.350 . S
C2124 C2121 1.463 . S
C2124 N2128 1.427 . S
C2125 H2115 0.929 . S
C2125 C2123 1.433 . S
C2125 N2128 1.384 . S
C2126 H2117 0.929 . S
C2126 C2118 1.378 . S
C2126 C2121 1.350 . S
C2127 H2114 0.929 . S
C2127 C2119 1.433 . S
C2127 N2129 1.384 . S
N2128 C2124 1.427 . S
N2128 C2125 1.384 . S
N2129 C2121 1.427 . S
N2129 C2127 1.384 . S
H2130 C2136 0.930 . S
H2131 C2140 0.930 . S
H2132 C2145 0.929 . S
H2133 C2143 0.929 . S
H2134 C2138 0.929 . S
H2135 C2144 0.929 . S
C2136 H2130 0.930 . S
C2136 C2137 1.367 . S
C2136 C2144 1.378 . S
C2137 C2136 1.367 . S
C2137 C2145 1.433 . S
C2138 H2134 0.929 . S
C2138 C2140 1.378 . S
C2138 C2142 1.350 . S
C2139 C2142 1.463 . S
C2139 C2144 1.350 . S
C2139 N2147 1.427 . S
C2140 H2131 0.930 . S
C2140 C2138 1.378 . S
C2140 C2141 1.367 . S
C2141 C2140 1.367 . S
C2141 C2143 1.433 . S
C2142 C2138 1.350 . S
C2142 C2139 1.463 . S
C2142 N2146 1.427 . S
C2143 H2133 0.929 . S
C2143 C2141 1.433 . S
C2143 N2146 1.384 . S
C2144 H2135 0.929 . S
C2144 C2136 1.378 . S
C2144 C2139 1.350 . S
C2145 H2132 0.929 . S
C2145 C2137 1.433 . S
C2145 N2147 1.384 . S
N2146 C2142 1.427 . S
N2146 C2143 1.384 . S
N2147 C2139 1.427 . S
N2147 C2145 1.384 . S
H2148 C2154 0.930 . S
H2149 C2158 0.930 . S
H2150 C2163 0.929 . S
H2151 C2161 0.929 . S
H2152 C2156 0.929 . S
H2153 C2162 0.929 . S
C2154 H2148 0.930 . S
C2154 C2155 1.367 . S
C2154 C2162 1.378 . S
C2155 C2154 1.367 . S
C2155 C2163 1.433 . S
C2156 H2152 0.929 . S
C2156 C2158 1.378 . S
C2156 C2160 1.350 . S
C2157 C2160 1.463 . S
C2157 C2162 1.350 . S
C2157 N2165 1.427 . S
C2158 H2149 0.930 . S
C2158 C2156 1.378 . S
C2158 C2159 1.367 . S
C2159 C2158 1.367 . S
C2159 C2161 1.433 . S
C2160 C2156 1.350 . S
C2160 C2157 1.463 . S
C2160 N2164 1.427 . S
C2161 H2151 0.929 . S
C2161 C2159 1.433 . S
C2161 N2164 1.384 . S
C2162 H2153 0.929 . S
C2162 C2154 1.378 . S
C2162 C2157 1.350 . S
C2163 H2150 0.929 . S
C2163 C2155 1.433 . S
C2163 N2165 1.384 . S
N2164 C2160 1.427 . S
N2164 C2161 1.384 . S
N2165 C2157 1.427 . S
N2165 C2163 1.384 . S
H2166 C2172 0.930 . S
H2167 C2176 0.930 . S
H2168 C2181 0.929 . S
H2169 C2179 0.929 . S
H2170 C2174 0.929 . S
H2171 C2180 0.929 . S
C2172 H2166 0.930 . S
C2172 C2173 1.367 . S
C2172 C2180 1.378 . S
C2173 C2172 1.367 . S
C2173 C2181 1.433 . S
C2174 H2170 0.929 . S
C2174 C2176 1.378 . S
C2174 C2178 1.350 . S
C2175 C2178 1.463 . S
C2175 C2180 1.350 . S
C2175 N2183 1.427 . S
C2176 H2167 0.930 . S
C2176 C2174 1.378 . S
C2176 C2177 1.367 . S
C2177 C2176 1.367 . S
C2177 C2179 1.433 . S
C2178 C2174 1.350 . S
C2178 C2175 1.463 . S
C2178 N2182 1.427 . S
C2179 H2169 0.929 . S
C2179 C2177 1.433 . S
C2179 N2182 1.384 . S
C2180 H2171 0.929 . S
C2180 C2172 1.378 . S
C2180 C2175 1.350 . S
C2181 H2168 0.929 . S
C2181 C2173 1.433 . S
C2181 N2183 1.384 . S
N2182 C2178 1.427 . S
N2182 C2179 1.384 . S
N2183 C2175 1.427 . S
N2183 C2181 1.384 . S
H2184 C2190 0.930 . S
H2185 C2194 0.930 . S
H2186 C2199 0.929 . S
H2187 C2197 0.929 . S
H2188 C2192 0.929 . S
H2189 C2198 0.929 . S
C2190 H2184 0.930 . S
C2190 C2191 1.367 . S
C2190 C2198 1.378 . S
C2191 C2190 1.367 . S
C2191 C2199 1.433 . S
C2192 H2188 0.929 . S
C2192 C2194 1.378 . S
C2192 C2196 1.350 . S
C2193 C2196 1.463 . S
C2193 C2198 1.350 . S
C2193 N2201 1.427 . S
C2194 H2185 0.930 . S
C2194 C2192 1.378 . S
C2194 C2195 1.367 . S
C2195 C2194 1.367 . S
C2195 C2197 1.433 . S
C2196 C2192 1.350 . S
C2196 C2193 1.463 . S
C2196 N2200 1.427 . S
C2197 H2187 0.929 . S
C2197 C2195 1.433 . S
C2197 N2200 1.384 . S
C2198 H2189 0.929 . S
C2198 C2190 1.378 . S
C2198 C2193 1.350 . S
C2199 H2186 0.929 . S
C2199 C2191 1.433 . S
C2199 N2201 1.384 . S
N2200 C2196 1.427 . S
N2200 C2197 1.384 . S
N2201 C2193 1.427 . S
N2201 C2199 1.384 . S
H2202 C2208 0.930 . S
H2203 C2212 0.930 . S
H2204 C2217 0.929 . S
H2205 C2215 0.929 . S
H2206 C2210 0.929 . S
H2207 C2216 0.929 . S
C2208 H2202 0.930 . S
C2208 C2209 1.367 . S
C2208 C2216 1.378 . S
C2209 C2208 1.367 . S
C2209 C2217 1.433 . S
C2210 H2206 0.929 . S
C2210 C2212 1.378 . S
C2210 C2214 1.350 . S
C2211 C2214 1.463 . S
C2211 C2216 1.350 . S
C2211 N2219 1.427 . S
C2212 H2203 0.930 . S
C2212 C2210 1.378 . S
C2212 C2213 1.367 . S
C2213 C2212 1.367 . S
C2213 C2215 1.433 . S
C2214 C2210 1.350 . S
C2214 C2211 1.463 . S
C2214 N2218 1.427 . S
C2215 H2205 0.929 . S
C2215 C2213 1.433 . S
C2215 N2218 1.384 . S
C2216 H2207 0.929 . S
C2216 C2208 1.378 . S
C2216 C2211 1.350 . S
C2217 H2204 0.929 . S
C2217 C2209 1.433 . S
C2217 N2219 1.384 . S
N2218 C2214 1.427 . S
N2218 C2215 1.384 . S
N2219 C2211 1.427 . S
N2219 C2217 1.384 . S
H2220 C2226 0.930 . S
H2221 C2230 0.930 . S
H2222 C2235 0.929 . S
H2223 C2233 0.929 . S
H2224 C2228 0.929 . S
H2225 C2234 0.929 . S
C2226 H2220 0.930 . S
C2226 C2227 1.367 . S
C2226 C2234 1.378 . S
C2227 C2226 1.367 . S
C2227 C2235 1.433 . S
C2228 H2224 0.929 . S
C2228 C2230 1.378 . S
C2228 C2232 1.350 . S
C2229 C2232 1.463 . S
C2229 C2234 1.350 . S
C2229 N2237 1.427 . S
C2230 H2221 0.930 . S
C2230 C2228 1.378 . S
C2230 C2231 1.367 . S
C2231 C2230 1.367 . S
C2231 C2233 1.433 . S
C2232 C2228 1.350 . S
C2232 C2229 1.463 . S
C2232 N2236 1.427 . S
C2233 H2223 0.929 . S
C2233 C2231 1.433 . S
C2233 N2236 1.384 . S
C2234 H2225 0.929 . S
C2234 C2226 1.378 . S
C2234 C2229 1.350 . S
C2235 H2222 0.929 . S
C2235 C2227 1.433 . S
C2235 N2237 1.384 . S
N2236 C2232 1.427 . S
N2236 C2233 1.384 . S
N2237 C2229 1.427 . S
N2237 C2235 1.384 . S
H2238 C2244 0.930 . S
H2239 C2248 0.930 . S
H2240 C2253 0.929 . S
H2241 C2251 0.929 . S
H2242 C2246 0.929 . S
H2243 C2252 0.929 . S
C2244 H2238 0.930 . S
C2244 C2245 1.367 . S
C2244 C2252 1.378 . S
C2245 C2244 1.367 . S
C2245 C2253 1.433 . S
C2246 H2242 0.929 . S
C2246 C2248 1.378 . S
C2246 C2250 1.350 . S
C2247 C2250 1.463 . S
C2247 C2252 1.350 . S
C2247 N2255 1.427 . S
C2248 H2239 0.930 . S
C2248 C2246 1.378 . S
C2248 C2249 1.367 . S
C2249 C2248 1.367 . S
C2249 C2251 1.433 . S
C2250 C2246 1.350 . S
C2250 C2247 1.463 . S
C2250 N2254 1.427 . S
C2251 H2241 0.929 . S
C2251 C2249 1.433 . S
C2251 N2254 1.384 . S
C2252 H2243 0.929 . S
C2252 C2244 1.378 . S
C2252 C2247 1.350 . S
C2253 H2240 0.929 . S
C2253 C2245 1.433 . S
C2253 N2255 1.384 . S
N2254 C2250 1.427 . S
N2254 C2251 1.384 . S
N2255 C2247 1.427 . S
N2255 C2253 1.384 . S
H2256 C2262 0.930 . S
H2257 C2266 0.930 . S
H2258 C2271 0.929 . S
H2259 C2269 0.929 . S
H2260 C2264 0.929 . S
H2261 C2270 0.929 . S
C2262 H2256 0.930 . S
C2262 C2263 1.367 . S
C2262 C2270 1.378 . S
C2263 C2262 1.367 . S
C2263 C2271 1.433 . S
C2264 H2260 0.929 . S
C2264 C2266 1.378 . S
C2264 C2268 1.350 . S
C2265 C2268 1.463 . S
C2265 C2270 1.350 . S
C2265 N2273 1.427 . S
C2266 H2257 0.930 . S
C2266 C2264 1.378 . S
C2266 C2267 1.367 . S
C2267 C2266 1.367 . S
C2267 C2269 1.433 . S
C2268 C2264 1.350 . S
C2268 C2265 1.463 . S
C2268 N2272 1.427 . S
C2269 H2259 0.929 . S
C2269 C2267 1.433 . S
C2269 N2272 1.384 . S
C2270 H2261 0.929 . S
C2270 C2262 1.378 . S
C2270 C2265 1.350 . S
C2271 H2258 0.929 . S
C2271 C2263 1.433 . S
C2271 N2273 1.384 . S
N2272 C2268 1.427 . S
N2272 C2269 1.384 . S
N2273 C2265 1.427 . S
N2273 C2271 1.384 . S
H2274 C2280 0.930 . S
H2275 C2284 0.930 . S
H2276 C2289 0.929 . S
H2277 C2287 0.929 . S
H2278 C2282 0.929 . S
H2279 C2288 0.929 . S
C2280 H2274 0.930 . S
C2280 C2281 1.367 . S
C2280 C2288 1.378 . S
C2281 C2280 1.367 . S
C2281 C2289 1.433 . S
C2282 H2278 0.929 . S
C2282 C2284 1.378 . S
C2282 C2286 1.350 . S
C2283 C2286 1.463 . S
C2283 C2288 1.350 . S
C2283 N2291 1.427 . S
C2284 H2275 0.930 . S
C2284 C2282 1.378 . S
C2284 C2285 1.367 . S
C2285 C2284 1.367 . S
C2285 C2287 1.433 . S
C2286 C2282 1.350 . S
C2286 C2283 1.463 . S
C2286 N2290 1.427 . S
C2287 H2277 0.929 . S
C2287 C2285 1.433 . S
C2287 N2290 1.384 . S
C2288 H2279 0.929 . S
C2288 C2280 1.378 . S
C2288 C2283 1.350 . S
C2289 H2276 0.929 . S
C2289 C2281 1.433 . S
C2289 N2291 1.384 . S
N2290 C2286 1.427 . S
N2290 C2287 1.384 . S
N2291 C2283 1.427 . S
N2291 C2289 1.384 . S
H2292 C2298 0.930 . S
H2293 C2302 0.930 . S
H2294 C2307 0.929 . S
H2295 C2305 0.929 . S
H2296 C2300 0.929 . S
H2297 C2306 0.929 . S
C2298 H2292 0.930 . S
C2298 C2299 1.367 . S
C2298 C2306 1.378 . S
C2299 C2298 1.367 . S
C2299 C2307 1.433 . S
C2300 H2296 0.929 . S
C2300 C2302 1.378 . S
C2300 C2304 1.350 . S
C2301 C2304 1.463 . S
C2301 C2306 1.350 . S
C2301 N2309 1.427 . S
C2302 H2293 0.930 . S
C2302 C2300 1.378 . S
C2302 C2303 1.367 . S
C2303 C2302 1.367 . S
C2303 C2305 1.433 . S
C2304 C2300 1.350 . S
C2304 C2301 1.463 . S
C2304 N2308 1.427 . S
C2305 H2295 0.929 . S
C2305 C2303 1.433 . S
C2305 N2308 1.384 . S
C2306 H2297 0.929 . S
C2306 C2298 1.378 . S
C2306 C2301 1.350 . S
C2307 H2294 0.929 . S
C2307 C2299 1.433 . S
C2307 N2309 1.384 . S
N2308 C2304 1.427 . S
N2308 C2305 1.384 . S
N2309 C2301 1.427 . S
N2309 C2307 1.384 . S
H2310 C2316 0.930 . S
H2311 C2320 0.930 . S
H2312 C2325 0.929 . S
H2313 C2323 0.929 . S
H2314 C2318 0.929 . S
H2315 C2324 0.929 . S
C2316 H2310 0.930 . S
C2316 C2317 1.367 . S
C2316 C2324 1.378 . S
C2317 C2316 1.367 . S
C2317 C2325 1.433 . S
C2318 H2314 0.929 . S
C2318 C2320 1.378 . S
C2318 C2322 1.350 . S
C2319 C2322 1.463 . S
C2319 C2324 1.350 . S
C2319 N2327 1.427 . S
C2320 H2311 0.930 . S
C2320 C2318 1.378 . S
C2320 C2321 1.367 . S
C2321 C2320 1.367 . S
C2321 C2323 1.433 . S
C2322 C2318 1.350 . S
C2322 C2319 1.463 . S
C2322 N2326 1.427 . S
C2323 H2313 0.929 . S
C2323 C2321 1.433 . S
C2323 N2326 1.384 . S
C2324 H2315 0.929 . S
C2324 C2316 1.378 . S
C2324 C2319 1.350 . S
C2325 H2312 0.929 . S
C2325 C2317 1.433 . S
C2325 N2327 1.384 . S
N2326 C2322 1.427 . S
N2326 C2323 1.384 . S
N2327 C2319 1.427 . S
N2327 C2325 1.384 . S
H2328 C2334 0.930 . S
H2329 C2338 0.930 . S
H2330 C2343 0.929 . S
H2331 C2341 0.929 . S
H2332 C2336 0.929 . S
H2333 C2342 0.929 . S
C2334 H2328 0.930 . S
C2334 C2335 1.367 . S
C2334 C2342 1.378 . S
C2335 C2334 1.367 . S
C2335 C2343 1.433 . S
C2336 H2332 0.929 . S
C2336 C2338 1.378 . S
C2336 C2340 1.350 . S
C2337 C2340 1.463 . S
C2337 C2342 1.350 . S
C2337 N2345 1.427 . S
C2338 H2329 0.930 . S
C2338 C2336 1.378 . S
C2338 C2339 1.367 . S
C2339 C2338 1.367 . S
C2339 C2341 1.433 . S
C2340 C2336 1.350 . S
C2340 C2337 1.463 . S
C2340 N2344 1.427 . S
C2341 H2331 0.929 . S
C2341 C2339 1.433 . S
C2341 N2344 1.384 . S
C2342 H2333 0.929 . S
C2342 C2334 1.378 . S
C2342 C2337 1.350 . S
C2343 H2330 0.929 . S
C2343 C2335 1.433 . S
C2343 N2345 1.384 . S
N2344 C2340 1.427 . S
N2344 C2341 1.384 . S
N2345 C2337 1.427 . S
N2345 C2343 1.384 . S
H2346 C2352 0.930 . S
H2347 C2356 0.930 . S
H2348 C2361 0.929 . S
H2349 C2359 0.929 . S
H2350 C2354 0.929 . S
H2351 C2360 0.929 . S
C2352 H2346 0.930 . S
C2352 C2353 1.367 . S
C2352 C2360 1.378 . S
C2353 C2352 1.367 . S
C2353 C2361 1.433 . S
C2354 H2350 0.929 . S
C2354 C2356 1.378 . S
C2354 C2358 1.350 . S
C2355 C2358 1.463 . S
C2355 C2360 1.350 . S
C2355 N2363 1.427 . S
C2356 H2347 0.930 . S
C2356 C2354 1.378 . S
C2356 C2357 1.367 . S
C2357 C2356 1.367 . S
C2357 C2359 1.433 . S
C2358 C2354 1.350 . S
C2358 C2355 1.463 . S
C2358 N2362 1.427 . S
C2359 H2349 0.929 . S
C2359 C2357 1.433 . S
C2359 N2362 1.384 . S
C2360 H2351 0.929 . S
C2360 C2352 1.378 . S
C2360 C2355 1.350 . S
C2361 H2348 0.929 . S
C2361 C2353 1.433 . S
C2361 N2363 1.384 . S
N2362 C2358 1.427 . S
N2362 C2359 1.384 . S
N2363 C2355 1.427 . S
N2363 C2361 1.384 . S
H2364 C2370 0.930 . S
H2365 C2374 0.930 . S
H2366 C2379 0.929 . S
H2367 C2377 0.929 . S
H2368 C2372 0.929 . S
H2369 C2378 0.929 . S
C2370 H2364 0.930 . S
C2370 C2371 1.367 . S
C2370 C2378 1.378 . S
C2371 C2370 1.367 . S
C2371 C2379 1.433 . S
C2372 H2368 0.929 . S
C2372 C2374 1.378 . S
C2372 C2376 1.350 . S
C2373 C2376 1.463 . S
C2373 C2378 1.350 . S
C2373 N2381 1.427 . S
C2374 H2365 0.930 . S
C2374 C2372 1.378 . S
C2374 C2375 1.367 . S
C2375 C2374 1.367 . S
C2375 C2377 1.433 . S
C2376 C2372 1.350 . S
C2376 C2373 1.463 . S
C2376 N2380 1.427 . S
C2377 H2367 0.929 . S
C2377 C2375 1.433 . S
C2377 N2380 1.384 . S
C2378 H2369 0.929 . S
C2378 C2370 1.378 . S
C2378 C2373 1.350 . S
C2379 H2366 0.929 . S
C2379 C2371 1.433 . S
C2379 N2381 1.384 . S
N2380 C2376 1.427 . S
N2380 C2377 1.384 . S
N2381 C2373 1.427 . S
N2381 C2379 1.384 . S
H2382 C2388 0.930 . S
H2383 C2392 0.930 . S
H2384 C2397 0.929 . S
H2385 C2395 0.929 . S
H2386 C2390 0.929 . S
H2387 C2396 0.929 . S
C2388 H2382 0.930 . S
C2388 C2389 1.367 . S
C2388 C2396 1.378 . S
C2389 C2388 1.367 . S
C2389 C2397 1.433 . S
C2390 H2386 0.929 . S
C2390 C2392 1.378 . S
C2390 C2394 1.350 . S
C2391 C2394 1.463 . S
C2391 C2396 1.350 . S
C2391 N2399 1.427 . S
C2392 H2383 0.930 . S
C2392 C2390 1.378 . S
C2392 C2393 1.367 . S
C2393 C2392 1.367 . S
C2393 C2395 1.433 . S
C2394 C2390 1.350 . S
C2394 C2391 1.463 . S
C2394 N2398 1.427 . S
C2395 H2385 0.929 . S
C2395 C2393 1.433 . S
C2395 N2398 1.384 . S
C2396 H2387 0.929 . S
C2396 C2388 1.378 . S
C2396 C2391 1.350 . S
C2397 H2384 0.929 . S
C2397 C2389 1.433 . S
C2397 N2399 1.384 . S
N2398 C2394 1.427 . S
N2398 C2395 1.384 . S
N2399 C2391 1.427 . S
N2399 C2397 1.384 . S
C679 C93 1.119 . S
C683 C9 1.120 . S
C697 C23 1.107 . S
C701 C107 1.104 . S
C715 C37 1.120 . S
C719 C65 1.118 . S
C733 C79 1.104 . S
C737 C51 1.106 . S
C751 C485 1.111 . S
C755 C121 1.106 . S
C769 C499 1.111 . S
C773 C135 1.116 . S
C787 C149 1.110 . S
C791 C457 1.106 . S
C805 C163 1.120 . S
C809 C471 1.119 . S
C823 C541 1.115 . S
C827 C177 1.109 . S
C841 C555 1.111 . S
C845 C191 1.106 . S
C859 C513 1.115 . S
C863 C205 1.110 . S
C877 C527 1.103 . S
C881 C219 1.106 . S
C895 C233 1.103 . S
C899 C583 1.105 . S
C913 C247 1.120 . S
C917 C569 1.118 . S
C931 C261 1.109 . S
C935 C331 1.105 . S
C949 C639 1.109 . S
C953 C275 1.114 . S
C967 C653 1.113 . S
C971 C289 1.117 . S
C985 C611 1.111 . S
C989 C303 1.116 . S
C1003 C625 1.111 . S
C1007 C317 1.106 . S
C1021 C429 1.104 . S
C1025 C345 1.104 . S
C1039 C443 1.120 . S
C1043 C359 1.118 . S
C1057 C373 1.117 . S
C1061 C401 1.120 . S
C1075 C387 1.120 . S
C1079 C415 1.118 . S
C1093 C667 1.107 . S
C1097 C597 1.112 . S
C1111 C229 1.153 . S
C1115 C0 1.149 . S
C1129 C14 1.155 . S
C1133 C663 1.149 . S
C1147 C28 1.149 . S
C1151 C299 1.151 . S
C1165 C649 1.152 . S
C1169 C42 1.152 . S
C1183 C56 1.155 . S
C1187 C579 1.148 . S
C1201 C593 1.153 . S
C1205 C70 1.149 . S
C1219 C84 1.149 . S
C1223 C607 1.153 . S
C1237 C285 1.137 . S
C1241 C98 1.161 . S
C1255 C112 1.162 . S
C1259 C5 1.137 . S
C1273 C19 1.153 . S
C1277 C126 1.151 . S
C1291 C140 1.150 . S
C1295 C33 1.153 . S
C1309 C154 1.149 . S
C1313 C47 1.153 . S
C1327 C168 1.162 . S
C1331 C61 1.137 . S
C1345 C75 1.138 . S
C1349 C182 1.160 . S
C1363 C196 1.157 . S
C1367 C89 1.141 . S
C1381 C210 1.151 . S
C1385 C103 1.149 . S
C1399 C224 1.150 . S
C1403 C117 1.153 . S
C1417 C238 1.155 . S
C1421 C509 1.144 . S
C1435 C523 1.142 . S
C1439 C252 1.156 . S
C1453 C537 1.152 . S
C1457 C266 1.149 . S
C1471 C280 1.149 . S
C1475 C215 1.153 . S
C1489 C294 1.149 . S
C1493 C145 1.152 . S
C1507 C495 1.150 . S
C1511 C308 1.150 . S
C1525 C467 1.152 . S
C1529 C322 1.149 . S
C1543 C336 1.153 . S
C1547 C565 1.146 . S
C1561 C350 1.149 . S
C1565 C327 1.153 . S
C1579 C364 1.158 . S
C1583 C635 1.144 . S
C1597 C378 1.161 . S
C1601 C313 1.137 . S
C1615 C392 1.158 . S
C1619 C243 1.144 . S
C1633 C257 1.151 . S
C1637 C406 1.150 . S
C1651 C271 1.141 . S
C1655 C420 1.157 . S
C1669 C621 1.153 . S
C1673 C434 1.150 . S
C1687 C341 1.137 . S
C1691 C448 1.162 . S
C1705 C355 1.149 . S
C1709 C462 1.151 . S
C1723 C476 1.161 . S
C1727 C369 1.140 . S
C1741 C383 1.140 . S
C1745 C490 1.161 . S
C1759 C504 1.161 . S
C1763 C397 1.138 . S
C1777 C411 1.140 . S
C1781 C518 1.158 . S
C1795 C532 1.149 . S
C1799 C425 1.152 . S
C1813 C439 1.146 . S
C1817 C546 1.157 . S
C1831 C560 1.149 . S
C1835 C453 1.153 . S
C1849 C574 1.150 . S
C1853 C173 1.153 . S
C1867 C187 1.139 . S
C1871 C588 1.161 . S
C1885 C602 1.153 . S
C1889 C201 1.151 . S
C1903 C616 1.162 . S
C1907 C551 1.138 . S
C1921 C481 1.141 . S
C1925 C630 1.157 . S
C1939 C644 1.161 . S
C1943 C159 1.137 . S
C1957 C131 1.140 . S
C1961 C658 1.161 . S
C1975 C137 0.645 . S
C1979 C11 0.640 . S
C1993 C25 0.652 . S
C1997 C151 0.646 . S
C2011 C165 0.652 . S
C2015 C39 0.657 . S
C2029 C123 0.646 . S
C2033 C53 0.653 . S
C2047 C67 0.653 . S
C2051 C221 0.647 . S
C2065 C81 0.642 . S
C2069 C179 0.648 . S
C2083 C193 0.649 . S
C2087 C95 0.655 . S
C2101 C207 0.640 . S
C2105 C109 0.642 . S
C2119 C235 0.652 . S
C2123 C263 0.645 . S
C2137 C249 0.653 . S
C2141 C655 0.646 . S
C2155 C277 0.652 . S
C2159 C669 0.645 . S
C2173 C641 0.644 . S
C2177 C291 0.650 . S
C2191 C627 0.642 . S
C2195 C305 0.640 . S
C2209 C585 0.641 . S
C2213 C319 0.646 . S
C2227 C333 0.657 . S
C2231 C613 0.654 . S
C2245 C473 0.647 . S
C2249 C347 0.641 . S
C2263 C487 0.644 . S
C2267 C361 0.640 . S
C2281 C375 0.643 . S
C2285 C501 0.640 . S
C2299 C459 0.644 . S
C2303 C389 0.650 . S
C2317 C557 0.650 . S
C2321 C403 0.644 . S
C2335 C515 0.646 . S
C2339 C417 0.641 . S
C2353 C431 0.640 . S
C2357 C529 0.645 . S
C2371 C543 0.655 . S
C2375 C445 0.649 . S
C2389 C599 0.650 . S
C2393 C571 0.655 . S
