# Generated by pormake.
# Topology wkt, (7)-cn, num edge types: 1
# Building blocks:
#     Node 0, Type 0, BuildingBlock: NUHQUE_clean_sbu_2, # of connection points: 7
#     Node 1, Type 0, BuildingBlock: NUHQUE_clean_sbu_2, # of connection points: 7
#     Node 2, Type 0, BuildingBlock: NUHQUE_clean_sbu_2, # of connection points: 7
#     Node 3, Type 0, BuildingBlock: NUHQUE_clean_sbu_2, # of connection points: 7
#     Node 4, Type 0, BuildingBlock: NUHQUE_clean_sbu_2, # of connection points: 7
#     Node 5, Type 0, BuildingBlock: NUHQUE_clean_sbu_2, # of connection points: 7
#     Node 6, Type 0, BuildingBlock: NUHQUE_clean_sbu_2, # of connection points: 7
#     Node 7, Type 0, BuildingBlock: NUHQUE_clean_sbu_2, # of connection points: 7
#     Node 8, Type 0, BuildingBlock: NUHQUE_clean_sbu_2, # of connection points: 7
#     Node 9, Type 0, BuildingBlock: NUHQUE_clean_sbu_2, # of connection points: 7
#     Node 10, Type 0, BuildingBlock: NUHQUE_clean_sbu_2, # of connection points: 7
#     Node 11, Type 0, BuildingBlock: NUHQUE_clean_sbu_2, # of connection points: 7
#     Edge 12, Type (0, 0), BuildingBlock: AJUNOK_clean_linker_0, # of connection points: 2
#     Edge 13, Type (0, 0), BuildingBlock: AJUNOK_clean_linker_0, # of connection points: 2
#     Edge 14, Type (0, 0), BuildingBlock: AJUNOK_clean_linker_0, # of connection points: 2
#     Edge 15, Type (0, 0), BuildingBlock: AJUNOK_clean_linker_0, # of connection points: 2
#     Edge 16, Type (0, 0), BuildingBlock: AJUNOK_clean_linker_0, # of connection points: 2
#     Edge 17, Type (0, 0), BuildingBlock: AJUNOK_clean_linker_0, # of connection points: 2
#     Edge 18, Type (0, 0), BuildingBlock: AJUNOK_clean_linker_0, # of connection points: 2
#     Edge 19, Type (0, 0), BuildingBlock: AJUNOK_clean_linker_0, # of connection points: 2
#     Edge 20, Type (0, 0), BuildingBlock: AJUNOK_clean_linker_0, # of connection points: 2
#     Edge 21, Type (0, 0), BuildingBlock: AJUNOK_clean_linker_0, # of connection points: 2
#     Edge 22, Type (0, 0), BuildingBlock: AJUNOK_clean_linker_0, # of connection points: 2
#     Edge 23, Type (0, 0), BuildingBlock: AJUNOK_clean_linker_0, # of connection points: 2
#     Edge 24, Type (0, 0), BuildingBlock: AJUNOK_clean_linker_0, # of connection points: 2
#     Edge 25, Type (0, 0), BuildingBlock: AJUNOK_clean_linker_0, # of connection points: 2
#     Edge 26, Type (0, 0), BuildingBlock: AJUNOK_clean_linker_0, # of connection points: 2
#     Edge 27, Type (0, 0), BuildingBlock: AJUNOK_clean_linker_0, # of connection points: 2
#     Edge 28, Type (0, 0), BuildingBlock: AJUNOK_clean_linker_0, # of connection points: 2
#     Edge 29, Type (0, 0), BuildingBlock: AJUNOK_clean_linker_0, # of connection points: 2
#     Edge 30, Type (0, 0), BuildingBlock: AJUNOK_clean_linker_0, # of connection points: 2
#     Edge 31, Type (0, 0), BuildingBlock: AJUNOK_clean_linker_0, # of connection points: 2
#     Edge 32, Type (0, 0), BuildingBlock: AJUNOK_clean_linker_0, # of connection points: 2
#     Edge 33, Type (0, 0), BuildingBlock: AJUNOK_clean_linker_0, # of connection points: 2
#     Edge 34, Type (0, 0), BuildingBlock: AJUNOK_clean_linker_0, # of connection points: 2
#     Edge 35, Type (0, 0), BuildingBlock: AJUNOK_clean_linker_0, # of connection points: 2
#     Edge 36, Type (0, 0), BuildingBlock: AJUNOK_clean_linker_0, # of connection points: 2
#     Edge 37, Type (0, 0), BuildingBlock: AJUNOK_clean_linker_0, # of connection points: 2
#     Edge 38, Type (0, 0), BuildingBlock: AJUNOK_clean_linker_0, # of connection points: 2
#     Edge 39, Type (0, 0), BuildingBlock: AJUNOK_clean_linker_0, # of connection points: 2
#     Edge 40, Type (0, 0), BuildingBlock: AJUNOK_clean_linker_0, # of connection points: 2
#     Edge 41, Type (0, 0), BuildingBlock: AJUNOK_clean_linker_0, # of connection points: 2
#     Edge 42, Type (0, 0), BuildingBlock: AJUNOK_clean_linker_0, # of connection points: 2
#     Edge 43, Type (0, 0), BuildingBlock: AJUNOK_clean_linker_0, # of connection points: 2
#     Edge 44, Type (0, 0), BuildingBlock: AJUNOK_clean_linker_0, # of connection points: 2
#     Edge 45, Type (0, 0), BuildingBlock: AJUNOK_clean_linker_0, # of connection points: 2
#     Edge 46, Type (0, 0), BuildingBlock: AJUNOK_clean_linker_0, # of connection points: 2
#     Edge 47, Type (0, 0), BuildingBlock: AJUNOK_clean_linker_0, # of connection points: 2
#     Edge 48, Type (0, 0), BuildingBlock: AJUNOK_clean_linker_0, # of connection points: 2
#     Edge 49, Type (0, 0), BuildingBlock: AJUNOK_clean_linker_0, # of connection points: 2
#     Edge 50, Type (0, 0), BuildingBlock: AJUNOK_clean_linker_0, # of connection points: 2
#     Edge 51, Type (0, 0), BuildingBlock: AJUNOK_clean_linker_0, # of connection points: 2
#     Edge 52, Type (0, 0), BuildingBlock: AJUNOK_clean_linker_0, # of connection points: 2
#     Edge 53, Type (0, 0), BuildingBlock: AJUNOK_clean_linker_0, # of connection points: 2
# Relax obj value: 0.310
# Max RMSD: 0.288
# Mean RMSD: 0.288
data_MOF--net-wkt--node1-NUHQUE_clean_sbu_2--edge1-AJUNOK_clean_linker_0
_symmetry_space_group_name_H-M    P1
_symmetry_Int_Tables_number       1
_symmetry_cell_setting            triclinic
loop_
_symmetry_equiv_pos_as_xyz
'x, y, z'
_cell_length_a     22.878893
_cell_length_b     22.94919
_cell_length_c     57.54757
_cell_angle_alpha  90.044642
_cell_angle_beta   89.887445
_cell_angle_gamma 119.43785
loop_
_atom_site_label
_atom_site_type_symbol
_atom_site_fract_x
_atom_site_fract_y
_atom_site_fract_z
_atom_type_partial_charge
O0 O 0.46456 0.56465 0.04544 0.0
Tb1 Tb 0.51236 0.62874 0.01495 0.0
Eu2 Eu 0.44043 0.48916 0.99017 0.0
C3 C 0.44915 0.59254 0.06288 0.0
O4 O 0.45614 0.65226 0.05953 0.0
C5 C 0.36394 0.57931 -0.00287 0.0
O6 O 0.46497 0.52954 0.9538 0.0
C7 C 0.38379 0.36068 0.99212 0.0
C8 C 0.49219 0.59422 0.95031 0.0
O9 O 0.50117 0.63383 0.96792 0.0
C10 C 0.60068 0.57185 -0.00513 0.0
C11 C 0.41263 0.31654 -0.00291 0.0
C12 C 0.41936 0.3016 0.02017 0.0
C13 C 0.45421 0.26774 0.02601 0.0
C14 C 0.48402 0.24893 0.00799 0.0
C15 C 0.47537 0.26127 0.98437 0.0
C16 C 0.43925 0.29466 0.97929 0.0
O17 O 0.42319 0.63218 0.00139 0.0
O18 O 0.35869 0.51922 -0.00412 0.0
O19 O 0.58465 0.68605 0.04168 0.0
O20 O 0.55442 0.73673 0.01792 0.0
C21 C 0.59287 0.74393 0.03558 0.0
O22 O 0.54805 0.51346 -0.00047 0.0
O23 O 0.59075 0.62351 0.99402 0.0
O24 O 0.401 0.3935 0.97227 0.0
O25 O 0.38396 0.39765 0.00971 0.0
H26 H 0.39851 0.31794 0.03402 0.0
H27 H 0.51235 0.22398 0.01222 0.0
H28 H 0.43479 0.30654 0.96137 0.0
O29 O 1.00963 0.40066 0.22339 0.0
Tb30 Tb 1.00875 0.46026 0.19386 0.0
Eu31 Eu 1.04962 0.41359 0.1482 0.0
C32 C 0.95511 0.37314 0.23649 0.0
O33 O 0.90375 0.38003 0.23007 0.0
C34 C 0.89514 0.32613 0.16631 0.0
O35 O 1.04169 0.41722 0.10987 0.0
C36 C 0.13379 0.3776 0.1619 0.0
C37 C 0.98676 0.41396 0.10181 0.0
O38 O 0.93639 0.39827 0.11611 0.0
C39 C 0.13917 0.56401 0.16453 0.0
C40 C 0.20683 0.41165 0.16553 0.0
C41 C 0.23065 0.41771 0.18812 0.0
C42 C 0.29939 0.44985 0.19287 0.0
C43 C 0.34582 0.47835 0.17428 0.0
C44 C 0.3221 0.4724 0.15106 0.0
C45 C 0.2525 0.43891 0.14709 0.0
O46 O 0.90929 0.3757 0.18126 0.0
O47 O 0.94287 0.32892 0.15283 0.0
O48 O 1.00676 0.51618 0.22381 0.0
O49 O 0.9592 0.52114 0.19286 0.0
C50 C 0.97342 0.54193 0.21429 0.0
O51 O 1.10895 0.52754 0.1462 0.0
O52 O 1.11458 0.53816 0.18521 0.0
O53 O 1.11241 0.36984 0.14027 0.0
O54 O 1.10015 0.39475 0.17647 0.0
H55 H 0.19497 0.39589 0.20231 0.0
H56 H 0.3992 0.50292 0.17771 0.0
H57 H 0.23396 0.43529 0.12953 0.0
O58 O 0.6614 0.94494 0.38126 0.0
Tb59 Tb 0.58979 0.92357 0.35265 0.0
Eu60 Eu 0.73054 0.98747 0.33152 0.0
C61 C 0.63869 0.90767 0.40023 0.0
O62 O 0.57748 0.85641 0.39997 0.0
C63 C 0.63952 0.82271 0.3361 0.0
O64 O 0.69633 0.98075 0.29452 0.0
C65 C 0.85863 1.05533 0.33624 0.0
C66 C 0.63227 0.94407 0.28963 0.0
O67 O 0.59024 0.909 0.30614 0.0
C68 C 0.64966 1.069 0.33433 0.0
C69 C 0.90016 0.12834 0.33991 0.0
C70 C 0.91009 0.15394 0.3625 0.0
C71 C 0.92739 0.22079 0.36673 0.0
C72 C 0.94249 0.26465 0.34754 0.0
C73 C 0.93719 0.24013 0.3246 0.0
C74 C 0.91701 0.17239 0.32113 0.0
O75 O 0.58631 0.83021 0.33964 0.0
O76 O 0.69972 0.8764 0.33587 0.0
O77 O 0.53243 0.93538 0.38065 0.0
O78 O 0.48149 0.85875 0.35583 0.0
C79 C 0.47435 0.88702 0.3744 0.0
O80 O 0.70627 1.07146 0.3405 0.0
O81 O 0.59714 1.0089 0.3322 0.0
O82 O 0.82971 1.03645 0.31574 0.0
O83 O 0.81796 1.02233 0.35359 0.0
H84 H 0.90015 0.12022 0.37701 0.0
H85 H 0.95503 0.31618 0.35033 0.0
H86 H 0.90966 0.15312 0.30352 0.0
O87 O 0.78438 0.60694 0.54628 0.0
Tb88 Tb 0.73043 0.5331 0.5189 0.0
Eu89 Eu 0.80189 0.66751 0.49162 0.0
C90 C 0.80675 0.58603 0.56381 0.0
O91 O 0.80025 0.52598 0.56229 0.0
C92 C 0.87734 0.57811 0.50072 0.0
O93 O 0.77873 0.62106 0.45614 0.0
C94 C 0.86272 0.79628 0.49105 0.0
C95 C 0.74797 0.55567 0.4541 0.0
O96 O 0.73469 0.51854 0.47271 0.0
C97 C 0.64152 0.58836 0.49829 0.0
C98 C 0.83808 0.84384 0.49598 0.0
C99 C 0.83546 0.86218 0.51896 0.0
C100 C 0.80386 0.89901 0.52488 0.0
C101 C 0.77583 0.92014 0.50705 0.0
C102 C 0.78006 0.90413 0.48342 0.0
C103 C 0.81131 0.86578 0.47835 0.0
O104 O 0.81796 0.52596 0.50548 0.0
O105 O 0.88269 0.63793 0.49873 0.0
O106 O 0.66641 0.48384 0.54857 0.0
O107 O 0.68623 0.42571 0.52441 0.0
C108 C 0.65404 0.42394 0.54331 0.0
O109 O 0.69569 0.64689 0.50121 0.0
O110 O 0.64879 0.53511 0.49909 0.0
O111 O 0.84044 0.76028 0.47196 0.0
O112 O 0.86402 0.76143 0.50904 0.0
H113 H 0.85616 0.84552 0.5327 0.0
H114 H 0.75213 0.94948 0.51155 0.0
H115 H 0.81224 0.85036 0.46062 0.0
O116 O 0.24883 0.74824 0.71702 0.0
Tb117 Tb 0.26865 0.69765 0.68784 0.0
Eu118 Eu 0.20706 0.76768 0.65721 0.0
C119 C 0.2888 0.76407 0.7354 0.0
O120 O 0.34087 0.7546 0.73412 0.0
C121 C 0.37077 0.84388 0.66821 0.0
O122 O 0.22907 0.73739 0.62256 0.0
C123 C 0.13701 0.82716 0.65406 0.0
C124 C 0.26344 0.70551 0.62121 0.0
O125 O 0.28976 0.69593 0.64004 0.0
C126 C 1.12548 0.60866 0.66662 0.0
C127 C 1.0646 0.79986 0.65902 0.0
C128 C 1.04312 0.79422 0.68211 0.0
C129 C 0.97533 0.7561 0.68818 0.0
C130 C 0.92727 0.72377 0.67044 0.0
C131 C 0.94778 0.73246 0.64681 0.0
C132 C 1.01646 0.77072 0.64142 0.0
O133 O 0.36264 0.78493 0.67475 0.0
O134 O 0.31707 0.84969 0.66374 0.0
O135 O 0.25821 0.62958 0.7158 0.0
O136 O 0.33469 0.65475 0.69064 0.0
C137 C 0.30664 0.61945 0.70916 0.0
O138 O 1.1209 0.66353 0.66836 0.0
O139 O 0.18623 0.61636 0.66778 0.0
O140 O 0.15203 0.80261 0.63575 0.0
O141 O 0.17443 0.83322 0.67228 0.0
H142 H 1.07989 0.81722 0.69584 0.0
H143 H 0.87472 0.6931 0.67489 0.0
H144 H 1.03266 0.77434 0.6235 0.0
O145 O 0.58951 0.21392 0.88185 0.0
Tb146 Tb 0.66035 0.23214 0.85313 0.0
Eu147 Eu 0.52526 0.16884 0.82706 0.0
C148 C 0.61301 0.25594 0.89967 0.0
O149 O 0.67382 0.30744 0.89785 0.0
C150 C 0.61496 0.33446 0.83432 0.0
O151 O 0.56896 0.17628 0.7918 0.0
C152 C 0.39664 0.09936 0.82711 0.0
C153 C 0.63241 0.21877 0.78804 0.0
O154 O 0.66896 0.26019 0.80441 0.0
C155 C 0.60627 0.08956 0.83252 0.0
C156 C 0.35296 1.02718 0.83207 0.0
C157 C 0.33855 1.00623 0.85514 0.0
C158 C 0.30404 0.93854 0.86118 0.0
C159 C 0.28355 0.88979 0.84331 0.0
C160 C 0.29692 0.90984 0.81954 0.0
C161 C 0.33148 0.97891 0.8144 0.0
O162 O 0.66649 0.32697 0.8408 0.0
O163 O 0.55576 0.28062 0.8307 0.0
O164 O 0.71167 0.21501 0.88172 0.0
O165 O 0.76835 0.29334 0.85786 0.0
C166 C 0.77138 0.26205 0.87629 0.0
O167 O 0.54788 0.08499 0.83721 0.0
O168 O 0.65838 0.15022 0.83209 0.0
O169 O 0.43181 0.1147 0.80773 0.0
O170 O 0.4313 0.13601 0.84499 0.0
H171 H 0.35564 1.04327 0.86891 0.0
H172 H 0.2565 0.83723 0.84785 0.0
H173 H 0.3444 0.99529 0.79654 0.0
O174 O 0.67206 0.75178 0.76943 0.0
Tb175 Tb 0.59687 0.70068 0.797 0.0
Eu176 Eu 0.72713 0.7697 0.82557 0.0
C177 C 0.65137 0.76946 0.75056 0.0
O178 O 0.59012 0.76069 0.75054 0.0
C179 C 0.63775 0.84628 0.81666 0.0
O180 O 0.68016 0.74142 0.86088 0.0
C181 C 0.85591 0.8299 0.82489 0.0
C182 C 0.61459 0.71266 0.86263 0.0
O183 O 0.57847 0.70591 0.84415 0.0
C184 C 0.64808 0.61007 0.81913 0.0
C185 C 0.9007 0.80249 0.81899 0.0
C186 C 0.91374 0.79615 0.79565 0.0
C187 C 0.94474 0.75924 0.7889 0.0
C188 C 0.96419 0.72849 0.80629 0.0
C189 C 0.95378 0.73668 0.83016 0.0
C190 C 0.92254 0.77429 0.83612 0.0
O191 O 0.58828 0.78856 0.80894 0.0
O192 O 0.69636 0.85107 0.82172 0.0
O193 O 0.54664 0.63442 0.7679 0.0
O194 O 0.48902 0.65594 0.79181 0.0
C195 C 0.48667 0.62226 0.77331 0.0
O196 O 0.70736 0.66341 0.81629 0.0
O197 O 0.59614 0.61975 0.81814 0.0
O198 O 0.82143 0.80835 0.84438 0.0
O199 O 0.81995 0.83255 0.80745 0.0
H200 H 0.89685 0.81782 0.78232 0.0
H201 H 0.9878 0.69936 0.80136 0.0
H202 H 0.91157 0.7782 0.85421 0.0
O203 O 0.99781 0.62163 0.93181 0.0
Tb204 Tb 0.97633 0.55355 0.96138 0.0
Eu205 Eu 1.04 0.68663 0.98911 0.0
C206 C 0.95625 0.59704 0.91396 0.0
O207 O 0.90322 0.53753 0.91631 0.0
C208 C 0.87475 0.60166 0.97947 0.0
O209 O 1.02971 0.63014 0.02196 0.0
C210 C 1.10942 0.81391 -0.00524 0.0
C211 C 0.98309 0.56735 0.02402 0.0
O212 O 0.93771 0.53907 0.00787 0.0
C213 C 1.11952 0.6093 0.981 0.0
C214 C 0.18196 0.85838 0.99045 0.0
C215 C 0.20462 0.87587 0.96761 0.0
C216 C 0.27283 0.90717 0.96192 0.0
C217 C 0.32026 0.92119 0.97992 0.0
C218 C 0.29813 0.90569 0.00336 0.0
C219 C 0.22909 0.87516 0.00829 0.0
O220 O 0.88118 0.55082 0.97159 0.0
O221 O 0.92895 0.65873 0.98495 0.0
O222 O 0.99167 0.49709 0.93411 0.0
O223 O 0.91426 0.44532 0.95891 0.0
C224 C 0.94468 0.43875 0.94078 0.0
O225 O 1.12347 0.6668 0.97557 0.0
O226 O 1.05837 0.55861 0.98308 0.0
O227 O 1.09358 0.7719 0.01228 0.0
O228 O 1.07302 0.78617 0.97606 0.0
H229 H 0.16837 0.86249 0.95368 0.0
H230 H 0.3731 0.94309 0.97579 0.0
H231 H 0.21189 0.86067 0.02603 0.0
O232 O 0.46353 0.95805 0.10416 0.0
Tb233 Tb 0.5237 0.94518 0.13137 0.0
Eu234 Eu 0.45593 1.00198 0.16405 0.0
C235 C 0.43658 0.90781 0.08916 0.0
O236 O 0.44438 0.85591 0.09359 0.0
C237 C 0.38384 0.83803 0.15438 0.0
O238 O 0.48462 0.98632 0.19963 0.0
C239 C 0.3919 1.06727 0.16083 0.0
C240 C 0.52143 0.95708 0.20105 0.0
O241 O 0.53489 0.93392 0.18215 0.0
C242 C 0.61735 0.08581 0.15529 0.0
C243 C 0.41767 0.13909 0.15573 0.0
C244 C 0.42196 0.15983 0.13263 0.0
C245 C 0.45624 0.22767 0.12648 0.0
C246 C 0.48761 0.27624 0.14422 0.0
C247 C 0.48142 0.25608 0.16789 0.0
C248 C 0.44574 0.1875 0.17325 0.0
O249 O 0.44106 0.84845 0.14483 0.0
O250 O 0.37772 0.88972 0.16138 0.0
O251 O 0.58306 0.96222 0.10015 0.0
O252 O 0.57116 0.88526 0.12339 0.0
C253 C 0.59877 0.91603 0.10404 0.0
O254 O 0.56256 0.09048 0.15755 0.0
O255 O 0.61006 1.02677 0.14999 0.0
O256 O 0.40845 1.05269 0.1811 0.0
O257 O 0.39664 1.03223 0.14344 0.0
H258 H 0.40024 0.1225 0.11902 0.0
H259 H 0.5155 0.32883 0.13973 0.0
H260 H 0.4433 0.17174 0.19115 0.0
O261 O 0.59868 0.41034 0.27025 0.0
Tb262 Tb 0.67022 0.46197 0.29861 0.0
Eu263 Eu 0.53434 0.39094 0.32514 0.0
C264 C 0.62087 0.38856 0.25285 0.0
O265 O 0.67933 0.39147 0.25535 0.0
C266 C 0.62351 0.31515 0.31751 0.0
O267 O 0.5792 0.41318 0.36083 0.0
C268 C 0.40584 0.33549 0.32626 0.0
C269 C 0.64445 0.44422 0.3639 0.0
O270 O 0.68461 0.46051 0.34592 0.0
C271 C 0.61401 0.55107 0.31901 0.0
C272 C 0.36395 0.36671 0.32109 0.0
C273 C 0.3559 0.38055 0.29802 0.0
C274 C 0.32456 0.41783 0.29227 0.0
C275 C 0.30308 0.44455 0.31049 0.0
C276 C 0.31056 0.43091 0.33409 0.0
C277 C 0.33984 0.39079 0.33896 0.0
O278 O 0.67574 0.37492 0.31325 0.0
O279 O 0.5628 0.30876 0.31835 0.0
O280 O 0.72331 0.52433 0.26886 0.0
O281 O 0.77855 0.50579 0.29452 0.0
C282 C 0.78265 0.53665 0.27511 0.0
O283 O 0.55551 0.4973 0.31547 0.0
O284 O 0.66703 0.54299 0.31852 0.0
O285 O 0.44238 0.3563 0.34526 0.0
O286 O 0.43873 0.32945 0.30842 0.0
H287 H 0.37614 0.36377 0.28414 0.0
H288 H 0.2803 0.47497 0.30637 0.0
H289 H 0.3478 0.38182 0.35688 0.0
O290 O 0.25081 0.53302 0.43682 0.0
Tb291 Tb 0.26553 0.60296 0.46526 0.0
Eu292 Eu 0.20375 0.46874 0.49548 0.0
C293 C 0.29764 0.55714 0.42044 0.0
O294 O 0.35113 0.61542 0.42427 0.0
C295 C 0.36728 0.55843 0.48519 0.0
O296 O 0.22365 0.51644 0.53084 0.0
C297 C 0.13331 0.34032 0.49717 0.0
C298 C 0.25844 0.58177 0.5331 0.0
O299 O 0.28364 0.61918 0.51458 0.0
C300 C 1.12275 0.54849 0.48701 0.0
C301 C 1.05995 0.2987 0.49329 0.0
C302 C 1.03508 0.28707 0.47053 0.0
C303 C 0.96756 0.26683 0.46577 0.0
C304 C 0.923 0.25264 0.48477 0.0
C305 C 0.94607 0.25773 0.50791 0.0
C306 C 1.01464 0.28119 0.51188 0.0
O307 O 0.35865 0.60956 0.47939 0.0
O308 O 0.31433 0.49858 0.4886 0.0
O309 O 0.25082 0.65278 0.4356 0.0
O310 O 0.32787 0.71052 0.45971 0.0
C311 C 0.29808 0.71252 0.44071 0.0
O312 O 1.11846 0.48942 0.48496 0.0
O313 O 0.18296 0.60111 0.48576 0.0
O314 O 0.15142 0.37756 0.51605 0.0
O315 O 0.16877 0.37269 0.47874 0.0
H316 H 1.06964 0.29707 0.45624 0.0
H317 H 0.87113 0.23896 0.48174 0.0
H318 H 1.03338 0.29013 0.52956 0.0
O319 O 0.78805 0.21349 0.6106 0.0
Tb320 Tb 0.73319 0.23165 0.63841 0.0
Eu321 Eu 0.80711 0.16695 0.66033 0.0
C322 C 0.80979 0.25817 0.59361 0.0
O323 O 0.802 0.31088 0.59613 0.0
C324 C 0.88121 0.33387 0.65448 0.0
O325 O 0.77606 0.17244 0.69674 0.0
C326 C 0.86953 0.09932 0.65786 0.0
C327 C 0.75736 0.21637 0.70195 0.0
O328 O 0.75951 0.25819 0.68613 0.0
C329 C 0.64617 0.08791 0.65704 0.0
C330 C 0.84566 1.02744 0.65352 0.0
C331 C 0.8405 1.00518 0.63064 0.0
C332 C 0.80881 0.93708 0.62522 0.0
C333 C 0.78325 0.88954 0.64349 0.0
C334 C 0.79155 0.91116 0.66703 0.0
C335 C 0.82243 0.98035 0.67163 0.0
O336 O 0.82131 0.32694 0.64997 0.0
O337 O 0.88706 0.27928 0.65649 0.0
O338 O 0.66766 0.21164 0.60884 0.0
O339 O 0.68389 0.29064 0.63181 0.0
C340 C 0.65261 0.25811 0.61315 0.0
O341 O 0.69972 0.08382 0.65103 0.0
O342 O 0.65508 0.14881 0.65931 0.0
O343 O 0.85253 0.11489 0.67782 0.0
O344 O 0.86413 0.13279 0.64013 0.0
H345 H 0.85907 1.04132 0.61659 0.0
H346 H 0.75806 0.83661 0.63946 0.0
H347 H 0.82539 0.99742 0.68938 0.0
C348 C 0.63297 0.79203 0.07439 0.0
C349 C 0.62114 0.80171 0.05112 0.0
C350 C 0.6337 0.83483 0.09174 0.0
C351 C 0.62393 0.88883 0.08611 0.0
H352 H 0.63413 0.74726 0.07963 0.0
H353 H 0.63541 0.8218 0.10973 0.0
S354 S 0.61164 0.94622 0.027 0.0
N355 N 0.61423 0.87636 0.02275 0.0
N356 N 0.61771 0.95856 0.05537 0.0
C357 C 0.62309 0.905 0.06259 0.0
C358 C 0.62118 0.86073 0.04498 0.0
C359 C 0.87801 0.56284 0.21984 0.0
C360 C 0.93817 0.56855 0.22821 0.0
C361 C 0.82972 0.56055 0.23532 0.0
C362 C 0.84054 0.56335 0.25945 0.0
H363 H 0.865 0.5528 0.20162 0.0
H364 H 0.78124 0.5494 0.22847 0.0
S365 S 0.99768 0.59844 0.28923 0.0
N366 N 1.0124 0.59302 0.26143 0.0
N367 N 0.92058 0.58689 0.29058 0.0
C368 C 0.90405 0.57877 0.26767 0.0
C369 C 0.95346 0.58204 0.25194 0.0
C370 C 0.31662 0.75084 0.4 0.0
C371 C 0.3275 0.76694 0.42374 0.0
C372 C 0.36078 0.7944 0.3833 0.0
C373 C 0.41612 0.85539 0.38996 0.0
H374 H 0.27828 0.70165 0.39442 0.0
H375 H 0.35508 0.77737 0.36545 0.0
S376 S 0.45194 0.92916 0.4491 0.0
N377 N 0.38721 0.85332 0.45258 0.0
N378 N 0.4694 0.93679 0.42102 0.0
C379 C 0.42092 0.87633 0.41319 0.0
C380 C 0.37665 0.83141 0.43023 0.0
C381 C 0.61998 0.38254 0.58327 0.0
C382 C 0.62674 0.36868 0.55993 0.0
C383 C 0.61974 0.34093 0.60097 0.0
C384 C 0.62522 0.28419 0.59564 0.0
H385 H 0.62235 0.42929 0.58811 0.0
H386 H 0.62209 0.3569 0.61883 0.0
S387 S 0.62256 0.21605 0.53692 0.0
N388 N 0.62357 0.28747 0.53213 0.0
N389 N 0.62116 0.20773 0.56544 0.0
C390 C 0.62061 0.26418 0.57229 0.0
C391 C 0.62193 0.30712 0.5543 0.0
C392 C 0.39919 0.59636 0.71691 0.0
C393 C 0.33864 0.59205 0.72422 0.0
C394 C 0.44461 0.59704 0.73319 0.0
C395 C 0.43056 0.59425 0.75706 0.0
H396 H 0.41469 0.60627 0.69888 0.0
H397 H 0.49372 0.60753 0.72714 0.0
S398 S 0.2698 0.55947 0.78411 0.0
N399 N 0.25946 0.56683 0.75608 0.0
N400 N 0.34635 0.57022 0.78683 0.0
C401 C 0.36619 0.57934 0.76422 0.0
C402 C 0.31948 0.57754 0.74764 0.0
C403 C 0.88837 0.34503 0.88547 0.0
C404 C 0.82768 0.28988 0.89252 0.0
C405 C 0.9325 0.38945 0.90191 0.0
C406 C 0.91602 0.3801 0.92566 0.0
H407 H 0.89851 0.35781 0.86723 0.0
H408 H 0.97533 0.43513 0.89575 0.0
S409 S 0.77352 0.23272 0.95298 0.0
N410 N 0.76156 0.21926 0.92475 0.0
N411 N 0.84401 0.30447 0.95571 0.0
C412 C 0.86111 0.31986 0.933 0.0
C413 C 0.81675 0.27398 0.91629 0.0
C414 C 0.61161 0.28114 0.9421 0.0
C415 C 0.57556 0.2468 0.922 0.0
C416 C 0.57897 0.28083 0.96289 0.0
C417 C 0.50866 0.24655 0.96455 0.0
H418 H 0.66588 0.3104 0.94165 0.0
H419 H 0.60895 0.31096 0.97733 0.0
S420 S 0.39051 0.14291 0.91813 0.0
N421 N 0.46531 0.17257 0.906 0.0
N422 N 0.40386 0.17291 0.94489 0.0
C423 C 0.47195 0.20906 0.94506 0.0
C424 C 0.50534 0.2088 0.9239 0.0
C425 C 0.35754 0.46231 0.11036 0.0
C426 C 0.3671 0.5019 0.13037 0.0
C427 C 0.38721 0.49108 0.08881 0.0
C428 C 0.42673 0.56078 0.08629 0.0
H429 H 0.32423 0.40873 0.11115 0.0
H430 H 0.37603 0.45883 0.07379 0.0
S431 S 0.47383 0.68613 0.13376 0.0
N432 N 0.42389 0.61391 0.14651 0.0
N433 N 0.47953 0.66813 0.10635 0.0
C434 C 0.43994 0.60049 0.10649 0.0
C435 C 0.41032 0.57107 0.12841 0.0
C436 C 1.00394 0.32944 0.29487 0.0
C437 C 0.94165 0.28 0.30363 0.0
C438 C 1.00877 0.3586 0.27283 0.0
C439 C 0.95135 0.33952 0.25899 0.0
H440 H 1.0493 0.34412 0.30477 0.0
H441 H 1.05756 0.3966 0.26669 0.0
S442 S 0.77701 0.21038 0.27394 0.0
N443 N 0.82215 0.21197 0.29651 0.0
N444 N 0.83055 0.26718 0.25574 0.0
C445 C 0.88893 0.29043 0.26778 0.0
C446 C 0.88425 0.2606 0.28991 0.0
C447 C 0.74705 0.94018 0.42136 0.0
C448 C 0.67872 0.92149 0.422 0.0
C449 C 0.78111 0.94 0.44174 0.0
C450 C 0.74837 0.92132 0.46359 0.0
H451 H 0.77332 0.95111 0.40488 0.0
H452 H 0.83285 0.95138 0.44014 0.0
S453 S 0.57312 0.88237 0.47505 0.0
N454 N 0.58227 0.8941 0.44668 0.0
N455 N 0.64588 0.8937 0.48473 0.0
C456 C 0.68183 0.90902 0.46467 0.0
C457 C 0.64712 0.90876 0.44393 0.0
C458 C 0.83866 0.59158 0.60575 0.0
C459 C 0.83529 0.62521 0.58565 0.0
C460 C 0.87034 0.62623 0.62618 0.0
C461 C 0.90057 0.69617 0.6274 0.0
H462 H 0.81806 0.53781 0.60561 0.0
H463 H 0.87449 0.59836 0.64067 0.0
S464 S 0.90104 0.8081 0.58077 0.0
N465 N 0.86072 0.73259 0.56914 0.0
N466 N 0.92146 0.79784 0.60739 0.0
C467 C 0.89502 0.73034 0.6079 0.0
C468 C 0.86199 0.6949 0.58711 0.0
C469 C 0.25543 0.83852 0.75767 0.0
C470 C 0.27728 0.79102 0.75761 0.0
C471 C 0.25714 0.87313 0.7782 0.0
C472 C 0.28021 0.86141 0.79961 0.0
H473 H 0.24072 0.85194 0.74155 0.0
H474 H 0.24297 0.91166 0.77706 0.0
S475 S 0.33116 0.73277 0.8094 0.0
N476 N 0.31419 0.72761 0.78135 0.0
N477 N 0.31707 0.792 0.81962 0.0
C478 C 0.29642 0.80971 0.80006 0.0
C479 C 0.29534 0.77503 0.77916 0.0
C480 C 1.00039 0.73701 0.8699 0.0
C481 C 0.96816 0.70175 0.84943 0.0
C482 C 1.00016 0.70343 0.89044 0.0
C483 C 0.96688 0.63317 0.89141 0.0
H484 H 1.02319 0.79102 0.87034 0.0
H485 H 1.02285 0.73257 0.90595 0.0
S486 S 0.88269 0.51766 0.84192 0.0
N487 N 0.90779 0.59283 0.83103 0.0
N488 N 0.90768 0.52976 0.86926 0.0
C489 C 0.93858 0.59762 0.87063 0.0
C490 C 0.93924 0.63181 0.84974 0.0
C491 C 0.4058 0.96798 0.05829 0.0
C492 C 0.40366 0.9092 0.06673 0.0
C493 C 0.37558 0.96847 0.03686 0.0
C494 C 0.34303 0.91053 0.02295 0.0
H495 H 0.43024 1.01365 0.06838 0.0
H496 H 0.3758 1.01382 0.03151 0.0
S497 S 0.32103 0.74345 0.03707 0.0
N498 N 0.36412 0.79098 0.05913 0.0
N499 N 0.30926 0.79312 0.0193 0.0
C500 C 0.34126 0.85208 0.03104 0.0
C501 C 0.37107 0.85112 0.05275 0.0
C502 C 0.51447 0.33115 0.22888 0.0
C503 C 0.58494 0.36498 0.23015 0.0
C504 C 0.48098 0.30041 0.20804 0.0
C505 C 0.51655 0.3034 0.18752 0.0
H506 H 0.48498 0.32513 0.24436 0.0
H507 H 0.42668 0.27123 0.20825 0.0
S508 S 0.70153 0.39392 0.18082 0.0
N509 N 0.6891 0.40559 0.2083 0.0
N510 N 0.62612 0.34812 0.1695 0.0
C511 C 0.58682 0.34119 0.18819 0.0
C512 C 0.62093 0.37174 0.20939 0.0
C513 C 0.25754 0.45432 0.39498 0.0
C514 C 0.29075 0.52431 0.39736 0.0
C515 C 0.26019 0.42415 0.37389 0.0
C516 C 0.29505 0.4627 0.35422 0.0
H517 H 0.23245 0.42272 0.4098 0.0
H518 H 0.23703 0.37013 0.37324 0.0
S519 S 0.38277 0.64787 0.35057 0.0
N520 N 0.35391 0.6312 0.37745 0.0
N521 N 0.35867 0.5746 0.33822 0.0
C522 C 0.32442 0.53252 0.35599 0.0
C523 C 0.32239 0.5632 0.37744 0.0
C524 C 0.84099 0.28922 0.5519 0.0
C525 C 0.8382 0.24991 0.57123 0.0
C526 C 0.87195 0.28803 0.53095 0.0
C527 C 0.90197 0.2478 0.52839 0.0
H528 H 0.82024 0.32259 0.55303 0.0
H529 H 0.87527 0.32137 0.51705 0.0
S530 S 0.90317 0.13034 0.57246 0.0
N531 N 0.86376 0.16533 0.58553 0.0
N532 N 0.92291 0.16387 0.54624 0.0
C533 C 0.89708 0.20595 0.5471 0.0
C534 C 0.86484 0.20664 0.56845 0.0
C535 C 0.69336 0.81513 0.68677 0.0
C536 C 0.76168 0.86355 0.68709 0.0
C537 C 0.65923 0.78293 0.70729 0.0
C538 C 0.69238 0.79588 0.72892 0.0
H539 H 0.66489 0.80534 0.67086 0.0
H540 H 0.60562 0.74914 0.70628 0.0
S541 S 0.87478 0.90605 0.73816 0.0
N542 N 0.86381 0.91476 0.71026 0.0
N543 N 0.79995 0.8524 0.74857 0.0
C544 C 0.76216 0.83855 0.72904 0.0
C545 C 0.79673 0.87268 0.70821 0.0
C546 C 0.57811 0.68734 0.92672 0.0
C547 C 0.52068 0.62357 0.92761 0.0
C548 C 0.60855 0.71591 0.90554 0.0
C549 C 0.58139 0.68235 0.8846 0.0
H550 H 0.6007 0.71483 0.94254 0.0
H551 H 0.65325 0.76471 0.90553 0.0
S552 S 0.43212 0.51441 0.87747 0.0
N553 N 0.43843 0.52735 0.90582 0.0
N554 N 0.49466 0.58215 0.86578 0.0
C555 C 0.52365 0.61895 0.88516 0.0
C556 C 0.49353 0.58917 0.90678 0.0
C557 C 0.92689 0.43467 0.07001 0.0
C558 C 0.98792 0.4457 0.0796 0.0
C559 C 0.92591 0.47395 0.05172 0.0
C560 C 0.98588 0.52615 0.04278 0.0
H561 H 0.87945 0.39689 0.0772 0.0
H562 H 0.87785 0.46482 0.04507 0.0
S563 S 0.15909 0.5702 0.05958 0.0
N564 N 1.11021 0.50833 0.07716 0.0
N565 N 1.10786 0.58293 0.04288 0.0
C566 C 1.04735 0.53573 0.05131 0.0
C567 C 1.0485 0.495 0.06968 0.0
C568 C 0.5126 0.93939 0.24367 0.0
C569 C 0.55078 0.95387 0.22328 0.0
C570 C 0.53941 0.93542 0.26501 0.0
C571 C 0.60584 0.94748 0.26671 0.0
H572 H 0.4614 0.93015 0.24308 0.0
H573 H 0.50807 0.9238 0.28035 0.0
S574 S 0.72751 0.99136 0.21831 0.0
N575 N 0.65847 0.98216 0.20588 0.0
N576 N 0.70976 0.97658 0.24626 0.0
C577 C 0.64501 0.96343 0.24646 0.0
C578 C 0.61715 0.96604 0.22463 0.0
C579 C 0.73298 0.52915 0.38924 0.0
C580 C 0.67244 0.4685 0.38706 0.0
C581 C 0.75757 0.5569 0.4111 0.0
C582 C 0.72317 0.52405 0.43141 0.0
H583 H 0.76038 0.55659 0.37396 0.0
H584 H 0.80359 0.60448 0.41208 0.0
S585 S 0.56401 0.36251 0.435 0.0
N586 N 0.57956 0.37556 0.40689 0.0
N587 N 0.62651 0.42697 0.44811 0.0
C588 C 0.66364 0.46234 0.42949 0.0
C589 C 0.63801 0.43475 0.40724 0.0
C590 C 0.27054 0.70747 0.57807 0.0
C591 C 0.2664 0.67484 0.59912 0.0
C592 C 0.27003 0.67768 0.55679 0.0
C593 C 0.26357 0.61349 0.55585 0.0
H594 H 0.2741 0.75634 0.57804 0.0
H595 H 0.27274 0.7044 0.54095 0.0
S596 S 0.2501 0.50684 0.60623 0.0
N597 N 0.25608 0.57531 0.61791 0.0
N598 N 0.25336 0.51843 0.57783 0.0
C599 C 0.2595 0.58037 0.57682 0.0
C600 C 0.26145 0.61134 0.5985 0.0
C601 C 0.7108 0.27676 0.75575 0.0
C602 C 0.66404 0.21667 0.76632 0.0
C603 C 0.74166 0.2761 0.7349 0.0
C604 C 0.72814 0.21534 0.72456 0.0
H605 H 0.72249 0.32446 0.76338 0.0
H606 H 0.77633 0.32335 0.72683 0.0
S607 S 0.61199 1.04454 0.74622 0.0
N608 N 0.60658 0.09502 0.76552 0.0
N609 N 0.66642 0.09374 0.72648 0.0
C610 C 0.68286 0.15488 0.73531 0.0
C611 C 0.65015 0.15555 0.75621 0.0
C612 C 0.51758 0.27621 0.08836 0.0
C613 C 0.45723 0.24381 0.10119 0.0
C614 C 0.51717 0.28099 0.0638 0.0
C615 C 0.45641 0.25295 0.05125 0.0
H616 H 0.56526 0.29673 0.09729 0.0
H617 H 0.5645 0.30792 0.05464 0.0
S618 S 0.28512 0.16283 0.07662 0.0
N619 N 0.33548 0.18447 0.09931 0.0
N620 N 0.33477 0.191 0.05369 0.0
C621 C 0.39614 0.22008 0.06399 0.0
C622 C 0.39655 0.21634 0.08874 0.0
C623 C 0.34043 0.49151 0.25708 0.0
C624 C 0.31678 0.42744 0.26691 0.0
C625 C 0.34021 0.50024 0.23271 0.0
C626 C 0.31779 0.44543 0.21739 0.0
H627 H 0.35954 0.53504 0.26824 0.0
H628 H 0.35558 0.54968 0.22589 0.0
S629 S 0.24891 0.2676 0.23413 0.0
N630 N 0.26709 0.30822 0.25908 0.0
N631 N 0.27115 0.32543 0.21383 0.0
C632 C 0.29518 0.38168 0.22705 0.0
C633 C 0.29328 0.37249 0.25159 0.0
C634 C 0.99222 0.30972 0.42445 0.0
C635 C 0.94707 0.26273 0.44072 0.0
C636 C 0.98321 0.29894 0.40035 0.0
C637 C 0.92762 0.24164 0.39144 0.0
H638 H 1.03725 0.35364 0.43036 0.0
H639 H 1.02227 0.33346 0.38876 0.0
S640 S 0.78487 0.11296 0.42596 0.0
N641 N 0.83893 0.16222 0.44569 0.0
N642 N 0.81897 0.14528 0.40056 0.0
C643 C 0.87754 0.19914 0.40736 0.0
C644 C 0.8878 0.2089 0.43192 0.0
C645 C 0.86269 0.94438 0.56252 0.0
C646 C 0.80187 0.91304 0.55013 0.0
C647 C 0.86386 0.94772 0.58684 0.0
C648 C 0.80428 0.91982 0.60003 0.0
H649 H 0.91006 0.96553 0.55328 0.0
H650 H 0.9121 0.97353 0.59546 0.0
S651 S 0.63157 0.83251 0.57618 0.0
N652 N 0.68023 0.85285 0.55292 0.0
N653 N 0.68246 0.86087 0.59881 0.0
C654 C 0.74295 0.88846 0.58794 0.0
C655 C 0.74175 0.88493 0.563 0.0
C656 C 0.98149 0.81405 0.75009 0.0
C657 C 0.9547 0.75486 0.76337 0.0
C658 C 0.98306 0.81283 0.72581 0.0
C659 C 0.95894 0.75247 0.71344 0.0
H660 H 1.00096 0.86216 0.75861 0.0
H661 H 1.00511 0.86007 0.71656 0.0
S662 S 0.88411 0.58311 0.73956 0.0
N663 N 0.90221 0.63357 0.76217 0.0
N664 N 0.90811 0.63162 0.71627 0.0
C665 C 0.93209 0.69265 0.72633 0.0
C666 C 0.92976 0.69382 0.7513 0.0
C667 C 0.31847 0.88978 0.92379 0.0
C668 C 0.28944 0.92154 0.93664 0.0
C669 C 0.31983 0.89141 0.89915 0.0
C670 C 0.29075 0.92348 0.88657 0.0
H671 H 0.33869 0.86218 0.9328 0.0
H672 H 0.34476 0.86861 0.88994 0.0
S673 S 0.20752 1.01281 0.91196 0.0
N674 N 0.23259 0.98718 0.93469 0.0
N675 N 0.23086 0.9861 0.88902 0.0
C676 C 0.2609 0.95432 0.89935 0.0
C677 C 0.26165 0.95477 0.92411 0.0
C678 C 0.74541 0.53147 0.98293 0.0
C679 C 0.80483 0.59466 0.98292 0.0
C680 C 0.68053 0.52431 0.98687 0.0
C681 C 0.67071 0.57994 0.99073 0.0
H682 H 0.74893 0.48662 0.98013 0.0
H683 H 0.63751 0.47439 0.98677 0.0
S684 S 0.80833 0.75704 0.99215 0.0
N685 N 0.84768 0.71428 0.98712 0.0
N686 N 0.72792 0.70107 0.99406 0.0
C687 C 0.72958 0.64335 0.99053 0.0
C688 C 0.79554 0.65058 0.98679 0.0
C689 C 0.27793 0.74957 0.17598 0.0
C690 C 0.32356 0.7667 0.15712 0.0
C691 C 0.22033 0.68467 0.17852 0.0
C692 C 0.20296 0.63302 0.16194 0.0
H693 H 0.28699 0.78679 0.18915 0.0
H694 H 0.18814 0.67545 0.19347 0.0
S695 S 0.30362 0.6504 0.10881 0.0
N696 N 0.34587 0.72427 0.12149 0.0
N697 N 0.23818 0.60519 0.12568 0.0
C698 C 0.24792 0.64959 0.14289 0.0
C699 C 0.30756 0.71509 0.14065 0.0
C700 C 0.5784 0.18758 0.31808 0.0
C701 C 0.63225 0.25343 0.32153 0.0
C702 C 0.58455 0.12942 0.32204 0.0
C703 C 0.64469 0.13286 0.33012 0.0
H704 H 0.53061 0.18061 0.31202 0.0
H705 H 0.54119 1.08097 0.31876 0.0
S706 S 0.80009 0.29235 0.34391 0.0
N707 N 0.7479 0.31731 0.33442 0.0
N708 N 0.75862 0.20978 0.34264 0.0
C709 C 0.69863 0.19842 0.33409 0.0
C710 C 0.6927 0.25773 0.32963 0.0
C711 C 0.44783 0.51591 0.49757 0.0
C712 C 0.43813 0.56761 0.48814 0.0
C713 C 0.51269 0.52275 0.50059 0.0
C714 C 0.5723 0.582 0.49461 0.0
H715 H 0.40471 0.46925 0.50282 0.0
H716 H 0.51605 0.48112 0.50799 0.0
S717 S 0.57686 0.7303 0.46693 0.0
N718 N 0.496 0.67909 0.47127 0.0
N719 N 0.6162 0.6919 0.47726 0.0
C720 C 0.56354 0.6337 0.48485 0.0
C721 C 0.49742 0.62658 0.48156 0.0
C722 C 0.9396 0.46375 0.65805 0.0
C723 C 0.94383 0.40402 0.65739 0.0
C724 C 0.99723 0.52866 0.661 0.0
C725 C 1.06329 0.5385 0.66336 0.0
H726 H 0.89097 0.46055 0.65639 0.0
H727 H 0.98968 0.57168 0.66142 0.0
S728 S 1.10442 0.40027 0.6623 0.0
N729 N 1.02213 0.36128 0.65913 0.0
N730 N 1.12801 0.48055 0.66439 0.0
C731 C 1.0682 0.47927 0.66253 0.0
C732 C 1.00968 0.41338 0.65965 0.0
C733 C 0.67786 0.96628 0.83154 0.0
C734 C 0.62826 0.90791 0.82015 0.0
C735 C 0.67091 1.02412 0.83517 0.0
C736 C 0.61343 1.02733 0.828 0.0
H737 H 0.72299 0.96754 0.83787 0.0
H738 H 0.71083 1.06654 0.84409 0.0
S739 S 0.47235 0.89363 0.79466 0.0
N740 N 0.52162 0.86137 0.79983 0.0
N741 N 0.50833 0.96802 0.80711 0.0
C742 C 0.56406 0.97017 0.81621 0.0
C743 C 0.57146 0.91149 0.81221 0.0
C744 C 0.6947 0.52866 0.82609 0.0
C745 C 0.63926 0.53969 0.82327 0.0
C746 C 0.6868 0.4635 0.82982 0.0
C747 C 0.62299 0.40481 0.83078 0.0
H748 H 0.74513 0.57091 0.82544 0.0
H749 H 0.73152 0.45914 0.83175 0.0
S750 S 0.46061 0.40449 0.82495 0.0
N751 N 0.51748 0.48417 0.8222 0.0
N752 N 0.50294 0.36422 0.82886 0.0
C753 C 0.56724 0.41534 0.82806 0.0
C754 C 0.57524 0.48153 0.82444 0.0
C755 C 0.24799 0.65541 0.98272 0.0
C756 C 0.18169 0.60149 0.98544 0.0
C757 C 0.30589 0.64841 0.98675 0.0
C758 C 0.3013 0.5869 0.99356 0.0
H759 H 0.25552 0.70385 0.97738 0.0
H760 H 0.35491 0.6918 0.98423 0.0
S761 S 0.14026 0.43022 0.00434 0.0
N762 N 1.11635 0.48435 -0.00364 0.0
N763 N 0.22308 0.47135 0.00354 0.0
C764 C 0.2353 0.53283 -0.00349 0.0
C765 C 0.17652 0.54004 0.99259 0.0
C766 C 0.76536 0.26284 0.17317 0.0
C767 C 0.8239 0.26472 0.16398 0.0
C768 C 0.69954 0.20623 0.17026 0.0
C769 C 0.68806 0.14709 0.15843 0.0
H770 H 0.77019 0.30586 0.18255 0.0
H771 H 0.65723 0.20881 0.17757 0.0
S772 S 0.82288 0.12373 0.13126 0.0
N773 N 0.86366 0.19965 0.14242 0.0
N774 N 0.74308 0.0955 0.13758 0.0
C775 C 0.74621 0.14816 0.14946 0.0
C776 C 0.81269 0.20583 0.15205 0.0
C777 C 0.57003 0.69423 0.32938 0.0
C778 C 0.63298 0.75315 0.33212 0.0
C779 C 0.56404 0.63001 0.3252 0.0
C780 C 0.62066 0.62037 0.32352 0.0
H781 H 0.52458 0.69766 0.33027 0.0
H782 H 0.51421 0.58743 0.32325 0.0
S783 S 0.79766 0.75684 0.32964 0.0
N784 N 0.75351 0.79548 0.33293 0.0
N785 N 0.74239 0.67738 0.32528 0.0
C786 C 0.68376 0.67879 0.32636 0.0
C787 C 0.68985 0.74393 0.33056 0.0
C788 C 0.99561 0.50059 0.49446 0.0
C789 C 1.06035 0.55628 0.49066 0.0
C790 C 0.93746 0.50759 0.49785 0.0
C791 C 0.94022 0.57071 0.49752 0.0
H792 H 0.98955 0.45073 0.49489 0.0
H793 H 0.88972 0.46276 0.50065 0.0
S794 S 1.09695 0.73319 0.48817 0.0
N795 N 1.12234 0.67729 0.48685 0.0
N796 N 1.01536 0.69034 0.49297 0.0
C797 C 1.00478 0.62668 0.49373 0.0
C798 C 1.06376 0.61956 0.49039 0.0
C799 C 0.45124 0.9702 0.66053 0.0
C800 C 0.44182 0.90561 0.66573 0.0
C801 C 0.51619 1.02796 0.65812 0.0
C802 C 0.57653 1.02521 0.66033 0.0
H803 H 0.40775 0.97661 0.65832 0.0
H804 H 0.51895 1.07534 0.65411 0.0
S805 S 0.58244 0.87046 0.67494 0.0
N806 N 0.50129 0.84475 0.67388 0.0
N807 N 0.62113 0.95118 0.6689 0.0
C808 C 0.568 0.96123 0.66564 0.0
C809 C 0.50187 0.90256 0.66844 0.0
loop_
_geom_bond_atom_site_label_1
_geom_bond_atom_site_label_2
_geom_bond_distance
_geom_bond_site_symmetry_2
_ccdc_geom_bond_type
O0 Tb1 2.292 . S
O0 C3 1.255 . S
Tb1 O0 2.292 . S
Tb1 O17 2.326 . S
Tb1 O19 2.500 . S
Tb1 O20 2.473 . S
Tb1 O23 2.324 . S
Eu2 O6 2.292 . S
Eu2 C7 2.852 . S
Eu2 O18 2.324 1_556 S
Eu2 O22 2.326 1_556 S
Eu2 O24 2.500 . S
Eu2 O25 2.473 1_556 S
C3 O0 1.255 . S
C3 O4 1.247 . S
O4 C3 1.247 . S
C5 O17 1.242 . S
C5 O18 1.258 . S
O6 Eu2 2.292 . S
O6 C8 1.255 . S
C7 Eu2 2.852 . S
C7 C11 1.498 1_556 S
C7 O24 1.273 . S
C7 O25 1.257 1_556 S
C8 O6 1.255 . S
C8 O9 1.247 . S
O9 C8 1.247 . S
C10 O22 1.242 . S
C10 O23 1.258 . S
C11 C7 1.498 1_554 S
C11 C12 1.395 . S
C11 C16 1.381 1_554 S
C12 C11 1.395 . S
C12 C13 1.404 . S
C12 H26 0.929 . S
C13 C12 1.404 . S
C13 C14 1.389 . S
C14 C13 1.389 . S
C14 C15 1.399 1_554 S
C14 H27 0.931 . S
C15 C14 1.399 1_556 S
C15 C16 1.390 . S
C16 C11 1.381 1_556 S
C16 C15 1.390 . S
C16 H28 0.929 . S
O17 Tb1 2.326 . S
O17 C5 1.242 . S
O18 Eu2 2.324 1_554 S
O18 C5 1.258 . S
O19 Tb1 2.500 . S
O19 C21 1.273 . S
O20 Tb1 2.473 . S
O20 C21 1.257 . S
C21 O19 1.273 . S
C21 O20 1.257 . S
O22 Eu2 2.326 1_554 S
O22 C10 1.242 . S
O23 Tb1 2.324 . S
O23 C10 1.258 . S
O24 Eu2 2.500 . S
O24 C7 1.273 . S
O25 Eu2 2.473 1_554 S
O25 C7 1.257 1_554 S
H26 C12 0.929 . S
H27 C14 0.931 . S
H28 C16 0.929 . S
O29 Tb30 2.292 . S
O29 C32 1.255 . S
Tb30 O29 2.292 . S
Tb30 O46 2.326 . S
Tb30 O48 2.500 . S
Tb30 O49 2.473 . S
Tb30 O52 2.324 . S
Eu31 O35 2.292 . S
Eu31 C36 2.852 . S
Eu31 O47 2.324 . S
Eu31 O51 2.326 . S
Eu31 O53 2.500 . S
Eu31 O54 2.473 . S
C32 O29 1.255 . S
C32 O33 1.247 . S
O33 C32 1.247 . S
C34 O46 1.242 . S
C34 O47 1.258 . S
O35 Eu31 2.292 . S
O35 C37 1.255 . S
C36 Eu31 2.852 . S
C36 C40 1.503 1_655 S
C36 O53 1.273 . S
C36 O54 1.257 . S
C37 O35 1.255 . S
C37 O38 1.247 . S
O38 C37 1.247 . S
C39 O51 1.242 . S
C39 O52 1.258 . S
C40 C36 1.503 1_455 S
C40 C41 1.379 . S
C40 C45 1.392 . S
C41 C40 1.379 . S
C41 C42 1.404 . S
C41 H55 0.929 . S
C42 C41 1.404 . S
C42 C43 1.389 . S
C43 C42 1.389 . S
C43 C44 1.399 . S
C43 H56 0.931 . S
C44 C43 1.399 . S
C44 C45 1.390 . S
C45 C40 1.392 . S
C45 C44 1.390 . S
C45 H57 0.929 . S
O46 Tb30 2.326 . S
O46 C34 1.242 . S
O47 Eu31 2.324 . S
O47 C34 1.258 . S
O48 Tb30 2.500 . S
O48 C50 1.273 . S
O49 Tb30 2.473 . S
O49 C50 1.257 . S
C50 O48 1.273 . S
C50 O49 1.257 . S
O51 Eu31 2.326 . S
O51 C39 1.242 . S
O52 Tb30 2.324 . S
O52 C39 1.258 . S
O53 Eu31 2.500 . S
O53 C36 1.273 . S
O54 Eu31 2.473 . S
O54 C36 1.257 . S
H55 C41 0.929 . S
H56 C43 0.931 . S
H57 C45 0.929 . S
O58 Tb59 2.292 . S
O58 C61 1.255 . S
Tb59 O58 2.292 . S
Tb59 O75 2.326 . S
Tb59 O77 2.500 . S
Tb59 O78 2.473 . S
Tb59 O81 2.324 . S
Eu60 O64 2.292 . S
Eu60 C65 2.852 . S
Eu60 O76 2.324 . S
Eu60 O80 2.326 . S
Eu60 O82 2.500 . S
Eu60 O83 2.473 . S
C61 O58 1.255 . S
C61 O62 1.247 . S
O62 C61 1.247 . S
C63 O75 1.242 . S
C63 O76 1.258 . S
O64 Eu60 2.292 . S
O64 C66 1.255 . S
C65 Eu60 2.852 . S
C65 C69 1.503 1_565 S
C65 O82 1.273 . S
C65 O83 1.257 . S
C66 O64 1.255 . S
C66 O67 1.247 . S
O67 C66 1.247 . S
C68 O80 1.242 . S
C68 O81 1.258 . S
C69 C65 1.503 1_545 S
C69 C70 1.379 . S
C69 C74 1.392 . S
C70 C69 1.379 . S
C70 C71 1.404 . S
C70 H84 0.929 . S
C71 C70 1.404 . S
C71 C72 1.389 . S
C72 C71 1.389 . S
C72 C73 1.399 . S
C72 H85 0.931 . S
C73 C72 1.399 . S
C73 C74 1.390 . S
C74 C69 1.392 . S
C74 C73 1.390 . S
C74 H86 0.929 . S
O75 Tb59 2.326 . S
O75 C63 1.242 . S
O76 Eu60 2.324 . S
O76 C63 1.258 . S
O77 Tb59 2.500 . S
O77 C79 1.273 . S
O78 Tb59 2.473 . S
O78 C79 1.257 . S
C79 O77 1.273 . S
C79 O78 1.257 . S
O80 Eu60 2.326 . S
O80 C68 1.242 . S
O81 Tb59 2.324 . S
O81 C68 1.258 . S
O82 Eu60 2.500 . S
O82 C65 1.273 . S
O83 Eu60 2.473 . S
O83 C65 1.257 . S
H84 C70 0.929 . S
H85 C72 0.931 . S
H86 C74 0.929 . S
O87 Tb88 2.292 . S
O87 C90 1.255 . S
Tb88 O87 2.292 . S
Tb88 O104 2.326 . S
Tb88 O106 2.500 . S
Tb88 O107 2.473 . S
Tb88 O110 2.324 . S
Eu89 O93 2.292 . S
Eu89 C94 2.852 . S
Eu89 O105 2.324 . S
Eu89 O109 2.326 . S
Eu89 O111 2.500 . S
Eu89 O112 2.473 . S
C90 O87 1.255 . S
C90 O91 1.247 . S
O91 C90 1.247 . S
C92 O104 1.242 . S
C92 O105 1.258 . S
O93 Eu89 2.292 . S
O93 C95 1.255 . S
C94 Eu89 2.852 . S
C94 C98 1.503 . S
C94 O111 1.273 . S
C94 O112 1.257 . S
C95 O93 1.255 . S
C95 O96 1.247 . S
O96 C95 1.247 . S
C97 O109 1.242 . S
C97 O110 1.258 . S
C98 C94 1.503 . S
C98 C99 1.379 . S
C98 C103 1.392 . S
C99 C98 1.379 . S
C99 C100 1.404 . S
C99 H113 0.929 . S
C100 C99 1.404 . S
C100 C101 1.389 . S
C101 C100 1.389 . S
C101 C102 1.399 . S
C101 H114 0.931 . S
C102 C101 1.399 . S
C102 C103 1.390 . S
C103 C98 1.392 . S
C103 C102 1.390 . S
C103 H115 0.929 . S
O104 Tb88 2.326 . S
O104 C92 1.242 . S
O105 Eu89 2.324 . S
O105 C92 1.258 . S
O106 Tb88 2.500 . S
O106 C108 1.273 . S
O107 Tb88 2.473 . S
O107 C108 1.257 . S
C108 O106 1.273 . S
C108 O107 1.257 . S
O109 Eu89 2.326 . S
O109 C97 1.242 . S
O110 Tb88 2.324 . S
O110 C97 1.258 . S
O111 Eu89 2.500 . S
O111 C94 1.273 . S
O112 Eu89 2.473 . S
O112 C94 1.257 . S
H113 C99 0.929 . S
H114 C101 0.931 . S
H115 C103 0.929 . S
O116 Tb117 2.292 . S
O116 C119 1.255 . S
Tb117 O116 2.292 . S
Tb117 O133 2.326 . S
Tb117 O135 2.500 . S
Tb117 O136 2.473 . S
Tb117 O139 2.324 . S
Eu118 O122 2.292 . S
Eu118 C123 2.852 . S
Eu118 O134 2.324 . S
Eu118 O138 2.326 . S
Eu118 O140 2.500 . S
Eu118 O141 2.473 . S
C119 O116 1.255 . S
C119 O120 1.247 . S
O120 C119 1.247 . S
C121 O133 1.242 . S
C121 O134 1.258 . S
O122 Eu118 2.292 . S
O122 C124 1.255 . S
C123 Eu118 2.852 . S
C123 C127 1.503 1_455 S
C123 O140 1.273 . S
C123 O141 1.257 . S
C124 O122 1.255 . S
C124 O125 1.247 . S
O125 C124 1.247 . S
C126 O138 1.242 . S
C126 O139 1.258 . S
C127 C123 1.503 1_655 S
C127 C128 1.379 . S
C127 C132 1.392 . S
C128 C127 1.379 . S
C128 C129 1.404 . S
C128 H142 0.929 . S
C129 C128 1.404 . S
C129 C130 1.389 . S
C130 C129 1.389 . S
C130 C131 1.399 . S
C130 H143 0.931 . S
C131 C130 1.399 . S
C131 C132 1.390 . S
C132 C127 1.392 . S
C132 C131 1.390 . S
C132 H144 0.929 . S
O133 Tb117 2.326 . S
O133 C121 1.242 . S
O134 Eu118 2.324 . S
O134 C121 1.258 . S
O135 Tb117 2.500 . S
O135 C137 1.273 . S
O136 Tb117 2.473 . S
O136 C137 1.257 . S
C137 O135 1.273 . S
C137 O136 1.257 . S
O138 Eu118 2.326 . S
O138 C126 1.242 . S
O139 Tb117 2.324 . S
O139 C126 1.258 . S
O140 Eu118 2.500 . S
O140 C123 1.273 . S
O141 Eu118 2.473 . S
O141 C123 1.257 . S
H142 C128 0.929 . S
H143 C130 0.931 . S
H144 C132 0.929 . S
O145 Tb146 2.292 . S
O145 C148 1.255 . S
Tb146 O145 2.292 . S
Tb146 O162 2.326 . S
Tb146 O164 2.500 . S
Tb146 O165 2.473 . S
Tb146 O168 2.324 . S
Eu147 O151 2.292 . S
Eu147 C152 2.852 . S
Eu147 O163 2.324 . S
Eu147 O167 2.326 . S
Eu147 O169 2.500 . S
Eu147 O170 2.473 . S
C148 O145 1.255 . S
C148 O149 1.247 . S
O149 C148 1.247 . S
C150 O162 1.242 . S
C150 O163 1.258 . S
O151 Eu147 2.292 . S
O151 C153 1.255 . S
C152 Eu147 2.852 . S
C152 C156 1.503 1_545 S
C152 O169 1.273 . S
C152 O170 1.257 . S
C153 O151 1.255 . S
C153 O154 1.247 . S
O154 C153 1.247 . S
C155 O167 1.242 . S
C155 O168 1.258 . S
C156 C152 1.503 1_565 S
C156 C157 1.379 . S
C156 C161 1.392 . S
C157 C156 1.379 . S
C157 C158 1.404 . S
C157 H171 0.929 . S
C158 C157 1.404 . S
C158 C159 1.389 . S
C159 C158 1.389 . S
C159 C160 1.399 . S
C159 H172 0.931 . S
C160 C159 1.399 . S
C160 C161 1.390 . S
C161 C156 1.392 . S
C161 C160 1.390 . S
C161 H173 0.929 . S
O162 Tb146 2.326 . S
O162 C150 1.242 . S
O163 Eu147 2.324 . S
O163 C150 1.258 . S
O164 Tb146 2.500 . S
O164 C166 1.273 . S
O165 Tb146 2.473 . S
O165 C166 1.257 . S
C166 O164 1.273 . S
C166 O165 1.257 . S
O167 Eu147 2.326 . S
O167 C155 1.242 . S
O168 Tb146 2.324 . S
O168 C155 1.258 . S
O169 Eu147 2.500 . S
O169 C152 1.273 . S
O170 Eu147 2.473 . S
O170 C152 1.257 . S
H171 C157 0.929 . S
H172 C159 0.931 . S
H173 C161 0.929 . S
O174 Tb175 2.292 . S
O174 C177 1.255 . S
Tb175 O174 2.292 . S
Tb175 O191 2.326 . S
Tb175 O193 2.500 . S
Tb175 O194 2.473 . S
Tb175 O197 2.324 . S
Eu176 O180 2.292 . S
Eu176 C181 2.852 . S
Eu176 O192 2.324 . S
Eu176 O196 2.326 . S
Eu176 O198 2.500 . S
Eu176 O199 2.473 . S
C177 O174 1.255 . S
C177 O178 1.247 . S
O178 C177 1.247 . S
C179 O191 1.242 . S
C179 O192 1.258 . S
O180 Eu176 2.292 . S
O180 C182 1.255 . S
C181 Eu176 2.852 . S
C181 C185 1.503 . S
C181 O198 1.273 . S
C181 O199 1.257 . S
C182 O180 1.255 . S
C182 O183 1.247 . S
O183 C182 1.247 . S
C184 O196 1.242 . S
C184 O197 1.258 . S
C185 C181 1.503 . S
C185 C186 1.379 . S
C185 C190 1.392 . S
C186 C185 1.379 . S
C186 C187 1.404 . S
C186 H200 0.929 . S
C187 C186 1.404 . S
C187 C188 1.389 . S
C188 C187 1.389 . S
C188 C189 1.399 . S
C188 H201 0.931 . S
C189 C188 1.399 . S
C189 C190 1.390 . S
C190 C185 1.392 . S
C190 C189 1.390 . S
C190 H202 0.929 . S
O191 Tb175 2.326 . S
O191 C179 1.242 . S
O192 Eu176 2.324 . S
O192 C179 1.258 . S
O193 Tb175 2.500 . S
O193 C195 1.273 . S
O194 Tb175 2.473 . S
O194 C195 1.257 . S
C195 O193 1.273 . S
C195 O194 1.257 . S
O196 Eu176 2.326 . S
O196 C184 1.242 . S
O197 Tb175 2.324 . S
O197 C184 1.258 . S
O198 Eu176 2.500 . S
O198 C181 1.273 . S
O199 Eu176 2.473 . S
O199 C181 1.257 . S
H200 C186 0.929 . S
H201 C188 0.931 . S
H202 C190 0.929 . S
O203 Tb204 2.292 . S
O203 C206 1.255 . S
Tb204 O203 2.292 . S
Tb204 O220 2.326 . S
Tb204 O222 2.500 . S
Tb204 O223 2.473 . S
Tb204 O226 2.324 . S
Eu205 O209 2.292 . S
Eu205 C210 2.852 . S
Eu205 O221 2.324 1_554 S
Eu205 O225 2.326 1_554 S
Eu205 O227 2.500 . S
Eu205 O228 2.473 1_554 S
C206 O203 1.255 . S
C206 O207 1.247 . S
O207 C206 1.247 . S
C208 O220 1.242 . S
C208 O221 1.258 . S
O209 Eu205 2.292 . S
O209 C211 1.255 . S
C210 Eu205 2.852 . S
C210 C214 1.503 1_654 S
C210 O227 1.273 . S
C210 O228 1.257 1_554 S
C211 O209 1.255 . S
C211 O212 1.247 . S
O212 C211 1.247 . S
C213 O225 1.242 . S
C213 O226 1.258 . S
C214 C210 1.503 1_456 S
C214 C215 1.379 . S
C214 C219 1.392 1_556 S
C215 C214 1.379 . S
C215 C216 1.404 . S
C215 H229 0.929 . S
C216 C215 1.404 . S
C216 C217 1.389 . S
C217 C216 1.389 . S
C217 C218 1.399 1_556 S
C217 H230 0.931 . S
C218 C217 1.399 1_554 S
C218 C219 1.390 . S
C219 C214 1.392 1_554 S
C219 C218 1.390 . S
C219 H231 0.929 . S
O220 Tb204 2.326 . S
O220 C208 1.242 . S
O221 Eu205 2.324 1_556 S
O221 C208 1.258 . S
O222 Tb204 2.500 . S
O222 C224 1.273 . S
O223 Tb204 2.473 . S
O223 C224 1.257 . S
C224 O222 1.273 . S
C224 O223 1.257 . S
O225 Eu205 2.326 1_556 S
O225 C213 1.242 . S
O226 Tb204 2.324 . S
O226 C213 1.258 . S
O227 Eu205 2.500 . S
O227 C210 1.273 . S
O228 Eu205 2.473 1_556 S
O228 C210 1.257 1_556 S
H229 C215 0.929 . S
H230 C217 0.931 . S
H231 C219 0.929 . S
O232 Tb233 2.292 . S
O232 C235 1.255 . S
Tb233 O232 2.292 . S
Tb233 O249 2.326 . S
Tb233 O251 2.500 . S
Tb233 O252 2.473 . S
Tb233 O255 2.324 . S
Eu234 O238 2.292 . S
Eu234 C239 2.852 . S
Eu234 O250 2.324 . S
Eu234 O254 2.326 . S
Eu234 O256 2.500 . S
Eu234 O257 2.473 . S
C235 O232 1.255 . S
C235 O236 1.247 . S
O236 C235 1.247 . S
C237 O249 1.242 . S
C237 O250 1.258 . S
O238 Eu234 2.292 . S
O238 C240 1.255 . S
C239 Eu234 2.852 . S
C239 C243 1.503 1_565 S
C239 O256 1.273 . S
C239 O257 1.257 . S
C240 O238 1.255 . S
C240 O241 1.247 . S
O241 C240 1.247 . S
C242 O254 1.242 . S
C242 O255 1.258 . S
C243 C239 1.503 1_545 S
C243 C244 1.379 . S
C243 C248 1.392 . S
C244 C243 1.379 . S
C244 C245 1.404 . S
C244 H258 0.929 . S
C245 C244 1.404 . S
C245 C246 1.389 . S
C246 C245 1.389 . S
C246 C247 1.399 . S
C246 H259 0.931 . S
C247 C246 1.399 . S
C247 C248 1.390 . S
C248 C243 1.392 . S
C248 C247 1.390 . S
C248 H260 0.929 . S
O249 Tb233 2.326 . S
O249 C237 1.242 . S
O250 Eu234 2.324 . S
O250 C237 1.258 . S
O251 Tb233 2.500 . S
O251 C253 1.273 . S
O252 Tb233 2.473 . S
O252 C253 1.257 . S
C253 O251 1.273 . S
C253 O252 1.257 . S
O254 Eu234 2.326 . S
O254 C242 1.242 . S
O255 Tb233 2.324 . S
O255 C242 1.258 . S
O256 Eu234 2.500 . S
O256 C239 1.273 . S
O257 Eu234 2.473 . S
O257 C239 1.257 . S
H258 C244 0.929 . S
H259 C246 0.931 . S
H260 C248 0.929 . S
O261 Tb262 2.292 . S
O261 C264 1.255 . S
Tb262 O261 2.292 . S
Tb262 O278 2.326 . S
Tb262 O280 2.500 . S
Tb262 O281 2.473 . S
Tb262 O284 2.324 . S
Eu263 O267 2.292 . S
Eu263 C268 2.852 . S
Eu263 O279 2.324 . S
Eu263 O283 2.326 . S
Eu263 O285 2.500 . S
Eu263 O286 2.473 . S
C264 O261 1.255 . S
C264 O265 1.247 . S
O265 C264 1.247 . S
C266 O278 1.242 . S
C266 O279 1.258 . S
O267 Eu263 2.292 . S
O267 C269 1.255 . S
C268 Eu263 2.852 . S
C268 C272 1.503 . S
C268 O285 1.273 . S
C268 O286 1.257 . S
C269 O267 1.255 . S
C269 O270 1.247 . S
O270 C269 1.247 . S
C271 O283 1.242 . S
C271 O284 1.258 . S
C272 C268 1.503 . S
C272 C273 1.379 . S
C272 C277 1.392 . S
C273 C272 1.379 . S
C273 C274 1.404 . S
C273 H287 0.929 . S
C274 C273 1.404 . S
C274 C275 1.389 . S
C275 C274 1.389 . S
C275 C276 1.399 . S
C275 H288 0.931 . S
C276 C275 1.399 . S
C276 C277 1.390 . S
C277 C272 1.392 . S
C277 C276 1.390 . S
C277 H289 0.929 . S
O278 Tb262 2.326 . S
O278 C266 1.242 . S
O279 Eu263 2.324 . S
O279 C266 1.258 . S
O280 Tb262 2.500 . S
O280 C282 1.273 . S
O281 Tb262 2.473 . S
O281 C282 1.257 . S
C282 O280 1.273 . S
C282 O281 1.257 . S
O283 Eu263 2.326 . S
O283 C271 1.242 . S
O284 Tb262 2.324 . S
O284 C271 1.258 . S
O285 Eu263 2.500 . S
O285 C268 1.273 . S
O286 Eu263 2.473 . S
O286 C268 1.257 . S
H287 C273 0.929 . S
H288 C275 0.931 . S
H289 C277 0.929 . S
O290 Tb291 2.292 . S
O290 C293 1.255 . S
Tb291 O290 2.292 . S
Tb291 O307 2.326 . S
Tb291 O309 2.500 . S
Tb291 O310 2.473 . S
Tb291 O313 2.324 . S
Eu292 O296 2.292 . S
Eu292 C297 2.852 . S
Eu292 O308 2.324 . S
Eu292 O312 2.326 . S
Eu292 O314 2.500 . S
Eu292 O315 2.473 . S
C293 O290 1.255 . S
C293 O294 1.247 . S
O294 C293 1.247 . S
C295 O307 1.242 . S
C295 O308 1.258 . S
O296 Eu292 2.292 . S
O296 C298 1.255 . S
C297 Eu292 2.852 . S
C297 C301 1.503 1_455 S
C297 O314 1.273 . S
C297 O315 1.257 . S
C298 O296 1.255 . S
C298 O299 1.247 . S
O299 C298 1.247 . S
C300 O312 1.242 . S
C300 O313 1.258 . S
C301 C297 1.503 1_655 S
C301 C302 1.379 . S
C301 C306 1.392 . S
C302 C301 1.379 . S
C302 C303 1.404 . S
C302 H316 0.929 . S
C303 C302 1.404 . S
C303 C304 1.389 . S
C304 C303 1.389 . S
C304 C305 1.399 . S
C304 H317 0.931 . S
C305 C304 1.399 . S
C305 C306 1.390 . S
C306 C301 1.392 . S
C306 C305 1.390 . S
C306 H318 0.929 . S
O307 Tb291 2.326 . S
O307 C295 1.242 . S
O308 Eu292 2.324 . S
O308 C295 1.258 . S
O309 Tb291 2.500 . S
O309 C311 1.273 . S
O310 Tb291 2.473 . S
O310 C311 1.257 . S
C311 O309 1.273 . S
C311 O310 1.257 . S
O312 Eu292 2.326 . S
O312 C300 1.242 . S
O313 Tb291 2.324 . S
O313 C300 1.258 . S
O314 Eu292 2.500 . S
O314 C297 1.273 . S
O315 Eu292 2.473 . S
O315 C297 1.257 . S
H316 C302 0.929 . S
H317 C304 0.931 . S
H318 C306 0.929 . S
O319 Tb320 2.292 . S
O319 C322 1.255 . S
Tb320 O319 2.292 . S
Tb320 O336 2.326 . S
Tb320 O338 2.500 . S
Tb320 O339 2.473 . S
Tb320 O342 2.324 . S
Eu321 O325 2.292 . S
Eu321 C326 2.852 . S
Eu321 O337 2.324 . S
Eu321 O341 2.326 . S
Eu321 O343 2.500 . S
Eu321 O344 2.473 . S
C322 O319 1.255 . S
C322 O323 1.247 . S
O323 C322 1.247 . S
C324 O336 1.242 . S
C324 O337 1.258 . S
O325 Eu321 2.292 . S
O325 C327 1.255 . S
C326 Eu321 2.852 . S
C326 C330 1.503 1_545 S
C326 O343 1.273 . S
C326 O344 1.257 . S
C327 O325 1.255 . S
C327 O328 1.247 . S
O328 C327 1.247 . S
C329 O341 1.242 . S
C329 O342 1.258 . S
C330 C326 1.503 1_565 S
C330 C331 1.379 . S
C330 C335 1.392 . S
C331 C330 1.379 . S
C331 C332 1.404 . S
C331 H345 0.929 . S
C332 C331 1.404 . S
C332 C333 1.389 . S
C333 C332 1.389 . S
C333 C334 1.399 . S
C333 H346 0.931 . S
C334 C333 1.399 . S
C334 C335 1.390 . S
C335 C330 1.392 . S
C335 C334 1.390 . S
C335 H347 0.929 . S
O336 Tb320 2.326 . S
O336 C324 1.242 . S
O337 Eu321 2.324 . S
O337 C324 1.258 . S
O338 Tb320 2.500 . S
O338 C340 1.273 . S
O339 Tb320 2.473 . S
O339 C340 1.257 . S
C340 O338 1.273 . S
C340 O339 1.257 . S
O341 Eu321 2.326 . S
O341 C329 1.242 . S
O342 Tb320 2.324 . S
O342 C329 1.258 . S
O343 Eu321 2.500 . S
O343 C326 1.273 . S
O344 Eu321 2.473 . S
O344 C326 1.257 . S
H345 C331 0.929 . S
H346 C333 0.931 . S
H347 C335 0.929 . S
C348 C349 1.369 . S
C348 C350 1.419 . S
C348 H352 0.930 . S
C349 C348 1.369 . S
C349 C358 1.429 . S
C350 C348 1.419 . S
C350 C351 1.363 . S
C350 H353 0.929 . S
C351 C350 1.363 . S
C351 C357 1.428 . S
H352 C348 0.930 . S
H353 C350 0.929 . S
S354 N355 1.613 . S
S354 N356 1.610 . S
N355 S354 1.613 . S
N355 C358 1.350 . S
N356 S354 1.610 . S
N356 C357 1.351 . S
C357 C351 1.428 . S
C357 N356 1.351 . S
C357 C358 1.434 . S
C358 C349 1.429 . S
C358 N355 1.350 . S
C358 C357 1.434 . S
C359 C360 1.369 . S
C359 C361 1.419 . S
C359 H363 0.930 . S
C360 C359 1.369 . S
C360 C369 1.429 . S
C361 C359 1.419 . S
C361 C362 1.363 . S
C361 H364 0.929 . S
C362 C361 1.363 . S
C362 C368 1.428 . S
H363 C359 0.930 . S
H364 C361 0.929 . S
S365 N366 1.613 . S
S365 N367 1.610 . S
N366 S365 1.613 . S
N366 C369 1.350 . S
N367 S365 1.610 . S
N367 C368 1.351 . S
C368 C362 1.428 . S
C368 N367 1.351 . S
C368 C369 1.434 . S
C369 C360 1.429 . S
C369 N366 1.350 . S
C369 C368 1.434 . S
C370 C371 1.369 . S
C370 C372 1.419 . S
C370 H374 0.930 . S
C371 C370 1.369 . S
C371 C380 1.429 . S
C372 C370 1.419 . S
C372 C373 1.363 . S
C372 H375 0.929 . S
C373 C372 1.363 . S
C373 C379 1.428 . S
H374 C370 0.930 . S
H375 C372 0.929 . S
S376 N377 1.613 . S
S376 N378 1.610 . S
N377 S376 1.613 . S
N377 C380 1.350 . S
N378 S376 1.610 . S
N378 C379 1.351 . S
C379 C373 1.428 . S
C379 N378 1.351 . S
C379 C380 1.434 . S
C380 C371 1.429 . S
C380 N377 1.350 . S
C380 C379 1.434 . S
C381 C382 1.369 . S
C381 C383 1.419 . S
C381 H385 0.930 . S
C382 C381 1.369 . S
C382 C391 1.429 . S
C383 C381 1.419 . S
C383 C384 1.363 . S
C383 H386 0.929 . S
C384 C383 1.363 . S
C384 C390 1.428 . S
H385 C381 0.930 . S
H386 C383 0.929 . S
S387 N388 1.613 . S
S387 N389 1.610 . S
N388 S387 1.613 . S
N388 C391 1.350 . S
N389 S387 1.610 . S
N389 C390 1.351 . S
C390 C384 1.428 . S
C390 N389 1.351 . S
C390 C391 1.434 . S
C391 C382 1.429 . S
C391 N388 1.350 . S
C391 C390 1.434 . S
C392 C393 1.369 . S
C392 C394 1.419 . S
C392 H396 0.930 . S
C393 C392 1.369 . S
C393 C402 1.429 . S
C394 C392 1.419 . S
C394 C395 1.363 . S
C394 H397 0.929 . S
C395 C394 1.363 . S
C395 C401 1.428 . S
H396 C392 0.930 . S
H397 C394 0.929 . S
S398 N399 1.613 . S
S398 N400 1.610 . S
N399 S398 1.613 . S
N399 C402 1.350 . S
N400 S398 1.610 . S
N400 C401 1.351 . S
C401 C395 1.428 . S
C401 N400 1.351 . S
C401 C402 1.434 . S
C402 C393 1.429 . S
C402 N399 1.350 . S
C402 C401 1.434 . S
C403 C404 1.369 . S
C403 C405 1.419 . S
C403 H407 0.930 . S
C404 C403 1.369 . S
C404 C413 1.429 . S
C405 C403 1.419 . S
C405 C406 1.363 . S
C405 H408 0.929 . S
C406 C405 1.363 . S
C406 C412 1.428 . S
H407 C403 0.930 . S
H408 C405 0.929 . S
S409 N410 1.613 . S
S409 N411 1.610 . S
N410 S409 1.613 . S
N410 C413 1.350 . S
N411 S409 1.610 . S
N411 C412 1.351 . S
C412 C406 1.428 . S
C412 N411 1.351 . S
C412 C413 1.434 . S
C413 C404 1.429 . S
C413 N410 1.350 . S
C413 C412 1.434 . S
C414 C415 1.369 . S
C414 C416 1.419 . S
C414 H418 0.930 . S
C415 C414 1.369 . S
C415 C424 1.429 . S
C416 C414 1.419 . S
C416 C417 1.363 . S
C416 H419 0.929 . S
C417 C416 1.363 . S
C417 C423 1.428 . S
H418 C414 0.930 . S
H419 C416 0.929 . S
S420 N421 1.613 . S
S420 N422 1.610 . S
N421 S420 1.613 . S
N421 C424 1.350 . S
N422 S420 1.610 . S
N422 C423 1.351 . S
C423 C417 1.428 . S
C423 N422 1.351 . S
C423 C424 1.434 . S
C424 C415 1.429 . S
C424 N421 1.350 . S
C424 C423 1.434 . S
C425 C426 1.369 . S
C425 C427 1.419 . S
C425 H429 0.930 . S
C426 C425 1.369 . S
C426 C435 1.429 . S
C427 C425 1.419 . S
C427 C428 1.363 . S
C427 H430 0.929 . S
C428 C427 1.363 . S
C428 C434 1.428 . S
H429 C425 0.930 . S
H430 C427 0.929 . S
S431 N432 1.613 . S
S431 N433 1.610 . S
N432 S431 1.613 . S
N432 C435 1.350 . S
N433 S431 1.610 . S
N433 C434 1.351 . S
C434 C428 1.428 . S
C434 N433 1.351 . S
C434 C435 1.434 . S
C435 C426 1.429 . S
C435 N432 1.350 . S
C435 C434 1.434 . S
C436 C437 1.369 . S
C436 C438 1.419 . S
C436 H440 0.930 . S
C437 C436 1.369 . S
C437 C446 1.429 . S
C438 C436 1.419 . S
C438 C439 1.363 . S
C438 H441 0.929 . S
C439 C438 1.363 . S
C439 C445 1.428 . S
H440 C436 0.930 . S
H441 C438 0.929 . S
S442 N443 1.613 . S
S442 N444 1.610 . S
N443 S442 1.613 . S
N443 C446 1.350 . S
N444 S442 1.610 . S
N444 C445 1.351 . S
C445 C439 1.428 . S
C445 N444 1.351 . S
C445 C446 1.434 . S
C446 C437 1.429 . S
C446 N443 1.350 . S
C446 C445 1.434 . S
C447 C448 1.369 . S
C447 C449 1.419 . S
C447 H451 0.930 . S
C448 C447 1.369 . S
C448 C457 1.429 . S
C449 C447 1.419 . S
C449 C450 1.363 . S
C449 H452 0.929 . S
C450 C449 1.363 . S
C450 C456 1.428 . S
H451 C447 0.930 . S
H452 C449 0.929 . S
S453 N454 1.613 . S
S453 N455 1.610 . S
N454 S453 1.613 . S
N454 C457 1.350 . S
N455 S453 1.610 . S
N455 C456 1.351 . S
C456 C450 1.428 . S
C456 N455 1.351 . S
C456 C457 1.434 . S
C457 C448 1.429 . S
C457 N454 1.350 . S
C457 C456 1.434 . S
C458 C459 1.369 . S
C458 C460 1.419 . S
C458 H462 0.930 . S
C459 C458 1.369 . S
C459 C468 1.429 . S
C460 C458 1.419 . S
C460 C461 1.363 . S
C460 H463 0.929 . S
C461 C460 1.363 . S
C461 C467 1.428 . S
H462 C458 0.930 . S
H463 C460 0.929 . S
S464 N465 1.613 . S
S464 N466 1.610 . S
N465 S464 1.613 . S
N465 C468 1.350 . S
N466 S464 1.610 . S
N466 C467 1.351 . S
C467 C461 1.428 . S
C467 N466 1.351 . S
C467 C468 1.434 . S
C468 C459 1.429 . S
C468 N465 1.350 . S
C468 C467 1.434 . S
C469 C470 1.369 . S
C469 C471 1.419 . S
C469 H473 0.930 . S
C470 C469 1.369 . S
C470 C479 1.429 . S
C471 C469 1.419 . S
C471 C472 1.363 . S
C471 H474 0.929 . S
C472 C471 1.363 . S
C472 C478 1.428 . S
H473 C469 0.930 . S
H474 C471 0.929 . S
S475 N476 1.613 . S
S475 N477 1.610 . S
N476 S475 1.613 . S
N476 C479 1.350 . S
N477 S475 1.610 . S
N477 C478 1.351 . S
C478 C472 1.428 . S
C478 N477 1.351 . S
C478 C479 1.434 . S
C479 C470 1.429 . S
C479 N476 1.350 . S
C479 C478 1.434 . S
C480 C481 1.369 . S
C480 C482 1.419 . S
C480 H484 0.930 . S
C481 C480 1.369 . S
C481 C490 1.429 . S
C482 C480 1.419 . S
C482 C483 1.363 . S
C482 H485 0.929 . S
C483 C482 1.363 . S
C483 C489 1.428 . S
H484 C480 0.930 . S
H485 C482 0.929 . S
S486 N487 1.613 . S
S486 N488 1.610 . S
N487 S486 1.613 . S
N487 C490 1.350 . S
N488 S486 1.610 . S
N488 C489 1.351 . S
C489 C483 1.428 . S
C489 N488 1.351 . S
C489 C490 1.434 . S
C490 C481 1.429 . S
C490 N487 1.350 . S
C490 C489 1.434 . S
C491 C492 1.369 . S
C491 C493 1.419 . S
C491 H495 0.930 . S
C492 C491 1.369 . S
C492 C501 1.429 . S
C493 C491 1.419 . S
C493 C494 1.363 . S
C493 H496 0.929 . S
C494 C493 1.363 . S
C494 C500 1.428 . S
H495 C491 0.930 . S
H496 C493 0.929 . S
S497 N498 1.613 . S
S497 N499 1.610 . S
N498 S497 1.613 . S
N498 C501 1.350 . S
N499 S497 1.610 . S
N499 C500 1.351 . S
C500 C494 1.428 . S
C500 N499 1.351 . S
C500 C501 1.434 . S
C501 C492 1.429 . S
C501 N498 1.350 . S
C501 C500 1.434 . S
C502 C503 1.369 . S
C502 C504 1.419 . S
C502 H506 0.930 . S
C503 C502 1.369 . S
C503 C512 1.429 . S
C504 C502 1.419 . S
C504 C505 1.363 . S
C504 H507 0.929 . S
C505 C504 1.363 . S
C505 C511 1.428 . S
H506 C502 0.930 . S
H507 C504 0.929 . S
S508 N509 1.613 . S
S508 N510 1.610 . S
N509 S508 1.613 . S
N509 C512 1.350 . S
N510 S508 1.610 . S
N510 C511 1.351 . S
C511 C505 1.428 . S
C511 N510 1.351 . S
C511 C512 1.434 . S
C512 C503 1.429 . S
C512 N509 1.350 . S
C512 C511 1.434 . S
C513 C514 1.369 . S
C513 C515 1.419 . S
C513 H517 0.930 . S
C514 C513 1.369 . S
C514 C523 1.429 . S
C515 C513 1.419 . S
C515 C516 1.363 . S
C515 H518 0.929 . S
C516 C515 1.363 . S
C516 C522 1.428 . S
H517 C513 0.930 . S
H518 C515 0.929 . S
S519 N520 1.613 . S
S519 N521 1.610 . S
N520 S519 1.613 . S
N520 C523 1.350 . S
N521 S519 1.610 . S
N521 C522 1.351 . S
C522 C516 1.428 . S
C522 N521 1.351 . S
C522 C523 1.434 . S
C523 C514 1.429 . S
C523 N520 1.350 . S
C523 C522 1.434 . S
C524 C525 1.369 . S
C524 C526 1.419 . S
C524 H528 0.930 . S
C525 C524 1.369 . S
C525 C534 1.429 . S
C526 C524 1.419 . S
C526 C527 1.363 . S
C526 H529 0.929 . S
C527 C526 1.363 . S
C527 C533 1.428 . S
H528 C524 0.930 . S
H529 C526 0.929 . S
S530 N531 1.613 . S
S530 N532 1.610 . S
N531 S530 1.613 . S
N531 C534 1.350 . S
N532 S530 1.610 . S
N532 C533 1.351 . S
C533 C527 1.428 . S
C533 N532 1.351 . S
C533 C534 1.434 . S
C534 C525 1.429 . S
C534 N531 1.350 . S
C534 C533 1.434 . S
C535 C536 1.369 . S
C535 C537 1.419 . S
C535 H539 0.930 . S
C536 C535 1.369 . S
C536 C545 1.429 . S
C537 C535 1.419 . S
C537 C538 1.363 . S
C537 H540 0.929 . S
C538 C537 1.363 . S
C538 C544 1.428 . S
H539 C535 0.930 . S
H540 C537 0.929 . S
S541 N542 1.613 . S
S541 N543 1.610 . S
N542 S541 1.613 . S
N542 C545 1.350 . S
N543 S541 1.610 . S
N543 C544 1.351 . S
C544 C538 1.428 . S
C544 N543 1.351 . S
C544 C545 1.434 . S
C545 C536 1.429 . S
C545 N542 1.350 . S
C545 C544 1.434 . S
C546 C547 1.369 . S
C546 C548 1.419 . S
C546 H550 0.930 . S
C547 C546 1.369 . S
C547 C556 1.429 . S
C548 C546 1.419 . S
C548 C549 1.363 . S
C548 H551 0.929 . S
C549 C548 1.363 . S
C549 C555 1.428 . S
H550 C546 0.930 . S
H551 C548 0.929 . S
S552 N553 1.613 . S
S552 N554 1.610 . S
N553 S552 1.613 . S
N553 C556 1.350 . S
N554 S552 1.610 . S
N554 C555 1.351 . S
C555 C549 1.428 . S
C555 N554 1.351 . S
C555 C556 1.434 . S
C556 C547 1.429 . S
C556 N553 1.350 . S
C556 C555 1.434 . S
C557 C558 1.369 . S
C557 C559 1.419 . S
C557 H561 0.930 . S
C558 C557 1.369 . S
C558 C567 1.432 . S
C559 C557 1.419 . S
C559 C560 1.363 . S
C559 H562 0.929 . S
C560 C559 1.363 . S
C560 C566 1.435 . S
H561 C557 0.930 . S
H562 C559 0.929 . S
S563 N564 1.613 . S
S563 N565 1.610 . S
N564 S563 1.613 . S
N564 C567 1.347 1_455 S
N565 S563 1.610 . S
N565 C566 1.344 1_455 S
C566 C560 1.435 . S
C566 N565 1.344 1_655 S
C566 C567 1.434 . S
C567 C558 1.432 . S
C567 N564 1.347 1_655 S
C567 C566 1.434 . S
C568 C569 1.369 . S
C568 C570 1.419 . S
C568 H572 0.930 1_565 S
C569 C568 1.369 . S
C569 C578 1.429 . S
C570 C568 1.419 . S
C570 C571 1.363 . S
C570 H573 0.929 1_565 S
C571 C570 1.363 . S
C571 C577 1.428 . S
H572 C568 0.930 1_545 S
H573 C570 0.929 1_545 S
S574 N575 1.613 . S
S574 N576 1.610 . S
N575 S574 1.613 . S
N575 C578 1.350 . S
N576 S574 1.610 . S
N576 C577 1.351 . S
C577 C571 1.428 . S
C577 N576 1.351 . S
C577 C578 1.434 . S
C578 C569 1.429 . S
C578 N575 1.350 . S
C578 C577 1.434 . S
C579 C580 1.369 . S
C579 C581 1.419 . S
C579 H583 0.930 . S
C580 C579 1.369 . S
C580 C589 1.429 . S
C581 C579 1.419 . S
C581 C582 1.363 . S
C581 H584 0.929 . S
C582 C581 1.363 . S
C582 C588 1.428 . S
H583 C579 0.930 . S
H584 C581 0.929 . S
S585 N586 1.613 . S
S585 N587 1.610 . S
N586 S585 1.613 . S
N586 C589 1.350 . S
N587 S585 1.610 . S
N587 C588 1.351 . S
C588 C582 1.428 . S
C588 N587 1.351 . S
C588 C589 1.434 . S
C589 C580 1.429 . S
C589 N586 1.350 . S
C589 C588 1.434 . S
C590 C591 1.369 . S
C590 C592 1.419 . S
C590 H594 0.930 . S
C591 C590 1.369 . S
C591 C600 1.429 . S
C592 C590 1.419 . S
C592 C593 1.363 . S
C592 H595 0.929 . S
C593 C592 1.363 . S
C593 C599 1.428 . S
H594 C590 0.930 . S
H595 C592 0.929 . S
S596 N597 1.613 . S
S596 N598 1.610 . S
N597 S596 1.613 . S
N597 C600 1.350 1_655 S
N598 S596 1.610 . S
N598 C599 1.351 1_655 S
C599 C593 1.428 . S
C599 N598 1.351 1_455 S
C599 C600 1.434 . S
C600 C591 1.429 . S
C600 N597 1.350 1_455 S
C600 C599 1.434 . S
C601 C602 1.369 . S
C601 C603 1.419 . S
C601 H605 0.930 . S
C602 C601 1.369 . S
C602 C611 1.420 1_545 S
C603 C601 1.419 . S
C603 C604 1.363 . S
C603 H606 0.929 . S
C604 C603 1.363 . S
C604 C610 1.421 1_545 S
H605 C601 0.930 . S
H606 C603 0.929 . S
S607 N608 1.613 . S
S607 N609 1.610 . S
N608 S607 1.613 . S
N608 C611 1.360 . S
N609 S607 1.610 . S
N609 C610 1.358 . S
C610 C604 1.421 1_565 S
C610 N609 1.358 . S
C610 C611 1.434 . S
C611 C602 1.420 1_565 S
C611 N608 1.360 . S
C611 C610 1.434 . S
C612 C613 1.369 . S
C612 C614 1.419 . S
C612 H616 0.930 . S
C613 C612 1.369 . S
C613 C622 1.429 . S
C614 C612 1.419 . S
C614 C615 1.363 . S
C614 H617 0.929 . S
C615 C614 1.363 . S
C615 C621 1.428 . S
H616 C612 0.930 . S
H617 C614 0.929 . S
S618 N619 1.613 . S
S618 N620 1.610 . S
N619 S618 1.613 . S
N619 C622 1.350 . S
N620 S618 1.610 . S
N620 C621 1.351 . S
C621 C615 1.428 . S
C621 N620 1.351 . S
C621 C622 1.434 . S
C622 C613 1.429 . S
C622 N619 1.350 . S
C622 C621 1.434 . S
C623 C624 1.369 . S
C623 C625 1.419 . S
C623 H627 0.930 . S
C624 C623 1.369 . S
C624 C633 1.429 . S
C625 C623 1.419 . S
C625 C626 1.363 . S
C625 H628 0.929 . S
C626 C625 1.363 . S
C626 C632 1.428 . S
H627 C623 0.930 . S
H628 C625 0.929 . S
S629 N630 1.613 . S
S629 N631 1.610 . S
N630 S629 1.613 . S
N630 C633 1.350 . S
N631 S629 1.610 . S
N631 C632 1.351 . S
C632 C626 1.428 . S
C632 N631 1.351 . S
C632 C633 1.434 . S
C633 C624 1.429 . S
C633 N630 1.350 . S
C633 C632 1.434 . S
C634 C635 1.369 . S
C634 C636 1.419 . S
C634 H638 0.930 . S
C635 C634 1.369 . S
C635 C644 1.429 . S
C636 C634 1.419 . S
C636 C637 1.363 . S
C636 H639 0.929 . S
C637 C636 1.363 . S
C637 C643 1.428 . S
H638 C634 0.930 . S
H639 C636 0.929 . S
S640 N641 1.613 . S
S640 N642 1.610 . S
N641 S640 1.613 . S
N641 C644 1.350 . S
N642 S640 1.610 . S
N642 C643 1.351 . S
C643 C637 1.428 . S
C643 N642 1.351 . S
C643 C644 1.434 . S
C644 C635 1.429 . S
C644 N641 1.350 . S
C644 C643 1.434 . S
C645 C646 1.369 . S
C645 C647 1.419 . S
C645 H649 0.930 . S
C646 C645 1.369 . S
C646 C655 1.429 . S
C647 C645 1.419 . S
C647 C648 1.363 . S
C647 H650 0.929 . S
C648 C647 1.363 . S
C648 C654 1.428 . S
H649 C645 0.930 . S
H650 C647 0.929 . S
S651 N652 1.613 . S
S651 N653 1.610 . S
N652 S651 1.613 . S
N652 C655 1.350 . S
N653 S651 1.610 . S
N653 C654 1.351 . S
C654 C648 1.428 . S
C654 N653 1.351 . S
C654 C655 1.434 . S
C655 C646 1.429 . S
C655 N652 1.350 . S
C655 C654 1.434 . S
C656 C657 1.369 . S
C656 C658 1.419 . S
C656 H660 0.930 . S
C657 C656 1.369 . S
C657 C666 1.429 . S
C658 C656 1.419 . S
C658 C659 1.363 . S
C658 H661 0.929 . S
C659 C658 1.363 . S
C659 C665 1.428 . S
H660 C656 0.930 . S
H661 C658 0.929 . S
S662 N663 1.613 . S
S662 N664 1.610 . S
N663 S662 1.613 . S
N663 C666 1.350 . S
N664 S662 1.610 . S
N664 C665 1.351 . S
C665 C659 1.428 . S
C665 N664 1.351 . S
C665 C666 1.434 . S
C666 C657 1.429 . S
C666 N663 1.350 . S
C666 C665 1.434 . S
C667 C668 1.369 . S
C667 C669 1.419 . S
C667 H671 0.930 . S
C668 C667 1.369 . S
C668 C677 1.429 . S
C669 C667 1.419 . S
C669 C670 1.363 . S
C669 H672 0.929 . S
C670 C669 1.363 . S
C670 C676 1.428 . S
H671 C667 0.930 . S
H672 C669 0.929 . S
S673 N674 1.613 . S
S673 N675 1.610 . S
N674 S673 1.613 . S
N674 C677 1.350 . S
N675 S673 1.610 . S
N675 C676 1.351 . S
C676 C670 1.428 . S
C676 N675 1.351 . S
C676 C677 1.434 . S
C677 C668 1.429 . S
C677 N674 1.350 . S
C677 C676 1.434 . S
C678 C679 1.369 . S
C678 C680 1.419 . S
C678 H682 0.930 . S
C679 C678 1.369 . S
C679 C688 1.429 . S
C680 C678 1.419 . S
C680 C681 1.363 1_556 S
C680 H683 0.929 . S
C681 C680 1.363 1_554 S
C681 C687 1.428 . S
H682 C678 0.930 . S
H683 C680 0.929 . S
S684 N685 1.613 1_554 S
S684 N686 1.610 . S
N685 S684 1.613 1_556 S
N685 C688 1.350 . S
N686 S684 1.610 . S
N686 C687 1.351 . S
C687 C681 1.428 . S
C687 N686 1.351 . S
C687 C688 1.434 1_554 S
C688 C679 1.429 . S
C688 N685 1.350 . S
C688 C687 1.434 1_556 S
C689 C690 1.369 . S
C689 C691 1.419 . S
C689 H693 0.930 . S
C690 C689 1.369 . S
C690 C699 1.429 . S
C691 C689 1.419 . S
C691 C692 1.363 . S
C691 H694 0.929 . S
C692 C691 1.363 . S
C692 C698 1.428 . S
H693 C689 0.930 . S
H694 C691 0.929 . S
S695 N696 1.613 . S
S695 N697 1.610 . S
N696 S695 1.613 . S
N696 C699 1.350 . S
N697 S695 1.610 . S
N697 C698 1.351 . S
C698 C692 1.428 . S
C698 N697 1.351 . S
C698 C699 1.434 . S
C699 C690 1.429 . S
C699 N696 1.350 . S
C699 C698 1.434 . S
C700 C701 1.369 . S
C700 C702 1.419 . S
C700 H704 0.930 . S
C701 C700 1.369 . S
C701 C710 1.429 . S
C702 C700 1.419 . S
C702 C703 1.363 . S
C702 H705 0.929 . S
C703 C702 1.363 . S
C703 C709 1.428 . S
H704 C700 0.930 . S
H705 C702 0.929 . S
S706 N707 1.613 . S
S706 N708 1.610 . S
N707 S706 1.613 . S
N707 C710 1.350 . S
N708 S706 1.610 . S
N708 C709 1.351 . S
C709 C703 1.428 . S
C709 N708 1.351 . S
C709 C710 1.434 . S
C710 C701 1.429 . S
C710 N707 1.350 . S
C710 C709 1.434 . S
C711 C712 1.369 . S
C711 C713 1.419 . S
C711 H715 0.930 . S
C712 C711 1.369 . S
C712 C721 1.429 . S
C713 C711 1.419 . S
C713 C714 1.363 . S
C713 H716 0.929 . S
C714 C713 1.363 . S
C714 C720 1.428 . S
H715 C711 0.930 . S
H716 C713 0.929 . S
S717 N718 1.613 . S
S717 N719 1.610 . S
N718 S717 1.613 . S
N718 C721 1.350 . S
N719 S717 1.610 . S
N719 C720 1.351 . S
C720 C714 1.428 . S
C720 N719 1.351 . S
C720 C721 1.434 . S
C721 C712 1.429 . S
C721 N718 1.350 . S
C721 C720 1.434 . S
C722 C723 1.369 . S
C722 C724 1.419 . S
C722 H726 0.930 . S
C723 C722 1.369 . S
C723 C732 1.429 . S
C724 C722 1.419 . S
C724 C725 1.363 . S
C724 H727 0.929 . S
C725 C724 1.363 . S
C725 C731 1.428 . S
H726 C722 0.930 . S
H727 C724 0.929 . S
S728 N729 1.613 . S
S728 N730 1.610 . S
N729 S728 1.613 . S
N729 C732 1.350 . S
N730 S728 1.610 . S
N730 C731 1.351 . S
C731 C725 1.428 . S
C731 N730 1.351 . S
C731 C732 1.434 . S
C732 C723 1.429 . S
C732 N729 1.350 . S
C732 C731 1.434 . S
C733 C734 1.369 . S
C733 C735 1.419 . S
C733 H737 0.930 . S
C734 C733 1.369 . S
C734 C743 1.429 . S
C735 C733 1.419 . S
C735 C736 1.363 . S
C735 H738 0.929 . S
C736 C735 1.363 . S
C736 C742 1.428 . S
H737 C733 0.930 . S
H738 C735 0.929 . S
S739 N740 1.613 . S
S739 N741 1.610 . S
N740 S739 1.613 . S
N740 C743 1.350 . S
N741 S739 1.610 . S
N741 C742 1.351 . S
C742 C736 1.428 . S
C742 N741 1.351 . S
C742 C743 1.434 . S
C743 C734 1.429 . S
C743 N740 1.350 . S
C743 C742 1.434 . S
C744 C745 1.369 . S
C744 C746 1.419 . S
C744 H748 0.930 . S
C745 C744 1.369 . S
C745 C754 1.429 . S
C746 C744 1.419 . S
C746 C747 1.363 . S
C746 H749 0.929 . S
C747 C746 1.363 . S
C747 C753 1.428 . S
H748 C744 0.930 . S
H749 C746 0.929 . S
S750 N751 1.613 . S
S750 N752 1.610 . S
N751 S750 1.613 . S
N751 C754 1.350 . S
N752 S750 1.610 . S
N752 C753 1.351 . S
C753 C747 1.428 . S
C753 N752 1.351 . S
C753 C754 1.434 . S
C754 C745 1.429 . S
C754 N751 1.350 . S
C754 C753 1.434 . S
C755 C756 1.369 1_554 S
C755 C757 1.419 . S
C755 H759 0.930 . S
C756 C755 1.369 1_556 S
C756 C765 1.429 . S
C757 C755 1.419 . S
C757 C758 1.363 . S
C757 H760 0.929 . S
C758 C757 1.363 . S
C758 C764 1.428 1_554 S
H759 C755 0.930 . S
H760 C757 0.929 . S
S761 N762 1.613 . S
S761 N763 1.610 . S
N762 S761 1.613 . S
N762 C765 1.350 . S
N763 S761 1.610 . S
N763 C764 1.351 . S
C764 C758 1.428 1_556 S
C764 N763 1.351 . S
C764 C765 1.434 . S
C765 C756 1.429 . S
C765 N762 1.350 . S
C765 C764 1.434 . S
C766 C767 1.369 . S
C766 C768 1.419 . S
C766 H770 0.930 . S
C767 C766 1.369 . S
C767 C776 1.429 . S
C768 C766 1.419 . S
C768 C769 1.363 . S
C768 H771 0.929 . S
C769 C768 1.363 . S
C769 C775 1.428 . S
H770 C766 0.930 . S
H771 C768 0.929 . S
S772 N773 1.613 . S
S772 N774 1.610 . S
N773 S772 1.613 . S
N773 C776 1.350 . S
N774 S772 1.610 . S
N774 C775 1.351 . S
C775 C769 1.428 . S
C775 N774 1.351 . S
C775 C776 1.434 . S
C776 C767 1.429 . S
C776 N773 1.350 . S
C776 C775 1.434 . S
C777 C778 1.369 . S
C777 C779 1.419 . S
C777 H781 0.930 . S
C778 C777 1.369 . S
C778 C787 1.429 . S
C779 C777 1.419 . S
C779 C780 1.363 . S
C779 H782 0.929 . S
C780 C779 1.363 . S
C780 C786 1.428 . S
H781 C777 0.930 . S
H782 C779 0.929 . S
S783 N784 1.613 . S
S783 N785 1.610 . S
N784 S783 1.613 . S
N784 C787 1.350 . S
N785 S783 1.610 . S
N785 C786 1.351 . S
C786 C780 1.428 . S
C786 N785 1.351 . S
C786 C787 1.434 . S
C787 C778 1.429 . S
C787 N784 1.350 . S
C787 C786 1.434 . S
C788 C789 1.369 . S
C788 C790 1.419 . S
C788 H792 0.930 . S
C789 C788 1.369 . S
C789 C798 1.429 . S
C790 C788 1.419 . S
C790 C791 1.363 . S
C790 H793 0.929 . S
C791 C790 1.363 . S
C791 C797 1.428 . S
H792 C788 0.930 . S
H793 C790 0.929 . S
S794 N795 1.613 . S
S794 N796 1.610 . S
N795 S794 1.613 . S
N795 C798 1.349 . S
N796 S794 1.610 . S
N796 C797 1.351 . S
C797 C791 1.428 . S
C797 N796 1.351 . S
C797 C798 1.434 . S
C798 C789 1.429 . S
C798 N795 1.349 . S
C798 C797 1.434 . S
C799 C800 1.369 . S
C799 C801 1.419 . S
C799 H803 0.930 . S
C800 C799 1.369 . S
C800 C809 1.429 . S
C801 C799 1.419 . S
C801 C802 1.363 . S
C801 H804 0.929 . S
C802 C801 1.363 . S
C802 C808 1.428 . S
H803 C799 0.930 . S
H804 C801 0.929 . S
S805 N806 1.613 . S
S805 N807 1.610 . S
N806 S805 1.613 . S
N806 C809 1.350 . S
N807 S805 1.610 . S
N807 C808 1.351 . S
C808 C802 1.428 . S
C808 N807 1.351 . S
C808 C809 1.434 . S
C809 C800 1.429 . S
C809 N806 1.350 . S
C809 C808 1.434 . S
C349 C21 1.394 . S
C351 C253 1.398 . S
C360 C50 1.396 . S
C362 C282 1.398 . S
C371 C311 1.403 . S
C373 C79 1.392 . S
C382 C108 1.404 . S
C384 C340 1.392 . S
C393 C137 1.388 . S
C395 C195 1.403 . S
C404 C166 1.392 . S
C406 C224 1.399 . S
C415 C148 0.798 . S
C417 C15 0.791 . S
C426 C44 0.803 . S
C428 C3 0.802 . S
C437 C73 0.789 . S
C439 C32 0.805 . S
C448 C61 0.796 . S
C450 C102 0.802 . S
C459 C90 0.795 . S
C461 C131 0.800 . S
C470 C119 0.801 . S
C472 C160 0.802 . S
C481 C189 0.798 . S
C483 C206 0.805 . S
C492 C235 0.806 . S
C494 C218 0.798 . S
C503 C264 0.795 . S
C505 C247 0.801 . S
C514 C293 0.797 . S
C516 C276 0.803 . S
C525 C322 0.795 . S
C527 C305 0.799 . S
C536 C334 0.792 . S
C538 C177 0.798 . S
C547 C8 0.819 . S
C549 C182 0.831 . S
C558 C37 0.838 . S
C560 C211 0.834 . S
C569 C240 0.819 . S
C571 C66 0.819 . S
C580 C269 0.834 . S
C582 C95 0.836 . S
C591 C124 0.839 . S
C593 C298 0.830 . S
C602 C153 0.838 . S
C604 C327 0.832 . S
C613 C245 1.937 . S
C615 C13 1.936 . S
C624 C274 1.939 . S
C626 C42 1.938 . S
C635 C303 1.937 . S
C637 C71 1.938 . S
C646 C100 1.933 . S
C648 C332 1.935 . S
C657 C187 1.933 . S
C659 C129 1.934 . S
C668 C216 1.938 . S
C670 C158 1.936 . S
C679 C208 3.125 . S
C681 C10 3.266 . S
C690 C237 3.124 . S
C692 C39 3.266 1_455 S
C701 C266 3.126 . S
C703 C68 3.266 1_545 S
C712 C295 3.128 . S
C714 C97 3.266 . S
C723 C324 3.126 . S
C725 C126 3.266 1_655 S
C734 C179 3.124 . S
C736 C155 3.266 1_565 S
C745 C184 3.266 . S
C747 C150 3.128 . S
C756 C213 3.266 1_455 S
C758 C5 3.125 . S
C767 C34 3.125 . S
C769 C242 3.266 1_545 S
C778 C63 3.126 . S
C780 C271 3.266 . S
C789 C300 3.265 1_655 S
C791 C92 3.127 . S
C800 C121 3.126 . S
C802 C329 3.266 1_565 S
