# Generated by pormake.
# Topology lcy-e, (6)-cn, num edge types: 1
# Building blocks:
#     Node 0, Type 0, BuildingBlock: NUHQIS_clean_sbu_0, # of connection points: 6
#     Node 1, Type 0, BuildingBlock: NUHQIS_clean_sbu_0, # of connection points: 6
#     Node 2, Type 0, BuildingBlock: NUHQIS_clean_sbu_0, # of connection points: 6
#     Node 3, Type 0, BuildingBlock: NUHQIS_clean_sbu_0, # of connection points: 6
#     Node 4, Type 0, BuildingBlock: NUHQIS_clean_sbu_0, # of connection points: 6
#     Node 5, Type 0, BuildingBlock: NUHQIS_clean_sbu_0, # of connection points: 6
#     Node 6, Type 0, BuildingBlock: NUHQIS_clean_sbu_0, # of connection points: 6
#     Node 7, Type 0, BuildingBlock: NUHQIS_clean_sbu_0, # of connection points: 6
#     Node 8, Type 0, BuildingBlock: NUHQIS_clean_sbu_0, # of connection points: 6
#     Node 9, Type 0, BuildingBlock: NUHQIS_clean_sbu_0, # of connection points: 6
#     Node 10, Type 0, BuildingBlock: NUHQIS_clean_sbu_0, # of connection points: 6
#     Node 11, Type 0, BuildingBlock: NUHQIS_clean_sbu_0, # of connection points: 6
#     Edge 12, Type (0, 0), None
#     Edge 13, Type (0, 0), None
#     Edge 14, Type (0, 0), None
#     Edge 15, Type (0, 0), None
#     Edge 16, Type (0, 0), None
#     Edge 17, Type (0, 0), None
#     Edge 18, Type (0, 0), None
#     Edge 19, Type (0, 0), None
#     Edge 20, Type (0, 0), None
#     Edge 21, Type (0, 0), None
#     Edge 22, Type (0, 0), None
#     Edge 23, Type (0, 0), None
#     Edge 24, Type (0, 0), None
#     Edge 25, Type (0, 0), None
#     Edge 26, Type (0, 0), None
#     Edge 27, Type (0, 0), None
#     Edge 28, Type (0, 0), None
#     Edge 29, Type (0, 0), None
#     Edge 30, Type (0, 0), None
#     Edge 31, Type (0, 0), None
#     Edge 32, Type (0, 0), None
#     Edge 33, Type (0, 0), None
#     Edge 34, Type (0, 0), None
#     Edge 35, Type (0, 0), None
#     Edge 36, Type (0, 0), None
#     Edge 37, Type (0, 0), None
#     Edge 38, Type (0, 0), None
#     Edge 39, Type (0, 0), None
#     Edge 40, Type (0, 0), None
#     Edge 41, Type (0, 0), None
#     Edge 42, Type (0, 0), None
#     Edge 43, Type (0, 0), None
#     Edge 44, Type (0, 0), None
#     Edge 45, Type (0, 0), None
#     Edge 46, Type (0, 0), None
#     Edge 47, Type (0, 0), None
# Relax obj value: 0.199
# Max RMSD: 0.321
# Mean RMSD: 0.298
data_MOF--net-lcy-e--node1-NUHQIS_clean_sbu_0--edge1-none
_symmetry_space_group_name_H-M    P1
_symmetry_Int_Tables_number       1
_symmetry_cell_setting            triclinic
loop_
_symmetry_equiv_pos_as_xyz
'x, y, z'
_cell_length_a     23.468901
_cell_length_b     24.831361
_cell_length_c     23.649817
_cell_angle_alpha  89.651694
_cell_angle_beta   89.806883
_cell_angle_gamma 89.385131
loop_
_atom_site_label
_atom_site_type_symbol
_atom_site_fract_x
_atom_site_fract_y
_atom_site_fract_z
_atom_type_partial_charge
Tb0 Tb 0.18099 0.28033 0.58582 0.0
Eu1 Eu 0.13028 0.36521 0.50216 0.0
C2 C 0.24559 0.29441 0.48232 0.0
C3 C 0.21968 0.40879 0.582 0.0
C4 C 0.17125 0.14839 0.65267 0.0
C5 C 0.16064 0.05135 0.65911 0.0
C6 C 0.19334 0.09634 0.64537 0.0
C7 C 0.11423 0.1544 0.67125 0.0
C8 C 0.08132 0.10903 0.68538 0.0
C9 C 0.10482 0.05696 0.68074 0.0
C10 C 0.20739 0.1954 0.63812 0.0
O11 O 0.1146 0.30552 0.64002 0.0
O12 O 0.0987 0.38589 0.59407 0.0
O13 O 0.05684 0.31445 0.52308 0.0
O14 O 0.12042 0.2469 0.52274 0.0
C15 C 0.09767 0.35509 0.64089 0.0
O16 O 0.10634 0.44337 0.46587 0.0
O17 O 0.10136 0.37163 0.41446 0.0
O18 O 0.19447 0.30504 0.46198 0.0
O19 O 0.25313 0.30156 0.53592 0.0
O20 O 0.21705 0.36159 0.61032 0.0
O21 O 0.19987 0.41446 0.53149 0.0
C22 C 0.06784 0.26414 0.5137 0.0
O23 O 0.21738 0.20251 0.5843 0.0
O24 O 0.19574 0.24082 0.66346 0.0
C25 C 0.14605 0.44751 0.37262 0.0
C26 C 0.22962 0.48682 0.29566 0.0
C27 C 0.22487 0.50758 0.35075 0.0
C28 C 0.18387 0.48825 0.38863 0.0
C29 C 0.15123 0.42609 0.31774 0.0
C30 C 0.1926 0.44543 0.27971 0.0
C31 C 0.10528 0.42409 0.41448 0.0
H32 H 0.18016 1.01179 0.65515 0.0
H33 H 0.23651 0.09041 0.63005 0.0
H34 H 0.09552 0.19416 0.67611 0.0
H35 H 0.03895 0.11482 0.70274 0.0
H36 H 0.25247 0.53962 0.36451 0.0
H37 H 0.18211 0.50531 0.43064 0.0
H38 H 0.12327 0.39425 0.30424 0.0
H39 H 0.19446 0.42907 0.23738 0.0
Tb40 Tb 0.99329 0.92056 0.74399 0.0
Eu41 Eu 0.08922 0.95622 0.82333 0.0
C42 C 0.10441 0.8557 0.74032 0.0
C43 C 1.00973 0.87377 0.87717 0.0
C44 C 0.9042 0.9301 0.61559 0.0
C45 C 0.8286 0.96624 0.55711 0.0
C46 C 0.84712 0.93129 0.59947 0.0
C47 C 0.94358 0.96238 0.58595 0.0
C48 C 0.92509 0.99666 0.5417 0.0
C49 C 0.86686 1.00022 0.52824 0.0
C50 C 0.91729 0.90564 0.67098 0.0
O51 O 0.94443 0.94081 0.81444 0.0
O52 O 1.00447 1.00937 0.83127 0.0
O53 O 0.1138 0.9784 0.73612 0.0
O54 O 1.02429 1.00208 0.71836 0.0
C55 C 0.9517 0.9887 0.83243 0.0
O56 O 0.12799 0.98571 0.90116 0.0
O57 O 0.17805 0.98197 0.8247 0.0
O58 O 0.11178 0.87004 0.79349 0.0
O59 O 0.06709 0.88136 0.70964 0.0
O60 O 0.98765 0.86828 0.82454 0.0
O61 O 0.05079 0.90618 0.88742 0.0
C62 C 0.07897 1.00931 0.70892 0.0
O63 O 0.96207 0.87421 0.67617 0.0
O64 O 0.91299 0.93974 0.71223 0.0
C65 C 0.22045 0.94543 0.90649 0.0
C66 C 0.29569 0.86503 0.94888 0.0
C67 C 0.23894 0.86826 0.96787 0.0
C68 C 0.20179 0.90773 0.94689 0.0
C69 C 0.27705 0.94189 0.88681 0.0
C70 C 0.31436 0.90197 0.90773 0.0
C71 C 0.17925 0.98335 0.87964 0.0
H72 H 0.78336 0.96778 0.54859 0.0
H73 H 0.81585 0.90787 0.6225 0.0
H74 H 0.98779 0.96311 0.5989 0.0
H75 H 0.9555 1.02238 0.52046 0.0
H76 H 0.22333 0.84054 0.99978 0.0
H77 H 0.15822 0.90824 0.96216 0.0
H78 H 0.29226 0.96977 0.85489 0.0
H79 H 0.35811 0.90108 0.893 0.0
Tb80 Tb 0.39675 0.84139 0.08431 0.0
Eu81 Eu 0.44884 0.75606 1.00042 0.0
C82 C 0.33605 0.82863 0.97875 0.0
C83 C 0.3569 0.71353 0.07878 0.0
C84 C 0.40769 0.97071 0.15513 0.0
C85 C 0.49012 0.99971 0.20923 0.0
C86 C 0.45419 0.95886 0.19062 0.0
C87 C 0.39989 1.02442 0.13669 0.0
C88 C 0.43638 0.06552 0.15513 0.0
C89 C 0.48132 0.05368 0.19257 0.0
C90 C 0.36966 0.9269 0.13496 0.0
O91 O 0.46205 0.8145 0.13919 0.0
O92 O 0.47871 0.73475 0.09253 0.0
O93 O 0.52242 0.80573 1.02209 0.0
O94 O 0.46001 0.87451 1.02275 0.0
C95 C 0.47951 0.76492 0.13939 0.0
O96 O 0.47329 0.67756 0.96626 0.0
O97 O 0.4776 0.74856 0.91264 0.0
O98 O 0.38767 0.81827 0.95947 0.0
O99 O 0.32671 0.82079 1.0321 0.0
O100 O 0.36057 0.75961 0.10834 0.0
O101 O 0.37573 0.70978 1.02766 0.0
C102 C 0.51238 0.85648 1.01382 0.0
O103 O 0.36637 0.92157 0.08022 0.0
O104 O 0.37402 0.88003 0.16027 0.0
C105 C 0.43289 0.67188 0.87381 0.0
C106 C 0.349 0.63119 0.79917 0.0
C107 C 0.35237 0.61315 0.8556 0.0
C108 C 0.39351 0.63318 0.89234 0.0
C109 C 0.429 0.69075 0.8176 0.0
C110 C 0.38745 0.67072 0.78069 0.0
C111 C 0.47393 0.69607 0.91429 0.0
H112 H 0.5241 0.98919 0.23833 0.0
H113 H 0.46257 0.91801 0.20486 0.0
H114 H 0.36499 1.03473 0.10865 0.0
H115 H 0.42775 0.10675 0.14233 0.0
H116 H 0.32359 0.58262 0.87129 0.0
H117 H 0.39417 0.61823 0.93545 0.0
H118 H 0.45813 0.72108 0.8022 0.0
H119 H 0.38662 0.68494 0.73731 0.0
Tb120 Tb 0.58001 0.20695 0.23953 0.0
Eu121 Eu 0.49406 0.16142 0.32548 0.0
C122 C 0.47609 0.27043 0.25229 0.0
C123 C 0.5745 0.24327 0.37449 0.0
C124 C 0.66153 0.19381 0.11067 0.0
C125 C 0.72785 0.12064 0.08857 0.0
C126 C 0.70604 0.15852 0.12656 0.0
C127 C 0.63883 0.18938 0.05581 0.0
C128 C 0.66072 0.15112 1.01761 0.0
C129 C 0.70592 0.11665 1.03349 0.0
C130 C 0.63573 0.23149 0.15265 0.0
O131 O 0.63447 0.14361 0.26512 0.0
O132 O 0.58601 0.12873 0.34815 0.0
O133 O 0.51741 0.08931 0.27716 0.0
O134 O 0.51965 0.14608 0.20352 0.0
C135 C 0.63356 0.12589 0.31645 0.0
O136 O 0.45654 0.13916 0.40677 0.0
O137 O 0.4052 0.13593 0.33078 0.0
O138 O 0.45505 0.22202 0.26066 0.0
O139 O 0.53005 0.27607 0.26043 0.0
O140 O 0.60463 0.23868 0.32619 0.0
O141 O 0.52259 0.22711 0.37809 0.0
C142 C 0.51224 0.09662 0.22334 0.0
O143 O 0.58008 0.23281 0.1545 0.0
O144 O 0.6577 0.23085 0.20339 0.0
C145 C 0.36333 0.17845 0.41073 0.0
C146 C 0.28708 0.25845 0.45298 0.0
C147 C 0.34254 0.25277 0.47477 0.0
C148 C 0.38007 0.2135 0.45401 0.0
C149 C 0.30812 0.18461 0.38814 0.0
C150 C 0.2704 0.22427 0.40895 0.0
C151 C 0.40492 0.13925 0.38595 0.0
H152 H 0.76277 0.09484 0.10225 0.0
H153 H 0.72421 0.15986 0.16856 0.0
H154 H 0.60407 0.21551 0.0425 0.0
H155 H 0.64339 0.14961 0.97527 0.0
H156 H 0.35677 0.27826 0.50886 0.0
H157 H 0.42238 0.21086 0.47203 0.0
H158 H 0.29412 0.15872 0.35433 0.0
H159 H 0.22771 0.22698 0.39184 0.0
Tb160 Tb 0.68486 0.33615 0.48239 0.0
Eu161 Eu 0.63267 0.25439 0.56666 0.0
C162 C 0.74847 0.32218 0.58599 0.0
C163 C 0.72008 0.20585 0.4857 0.0
C164 C 0.67683 0.46583 0.40952 0.0
C165 C 0.60393 0.49918 0.34465 0.0
C166 C 0.63957 0.45763 0.36405 0.0
C167 C 0.67621 0.51664 0.43595 0.0
C168 C 0.64012 0.55848 0.41649 0.0
C169 C 0.60414 0.55036 0.36998 0.0
C170 C 0.71361 0.42081 0.43119 0.0
O171 O 0.62121 0.31136 0.42533 0.0
O172 O 0.59836 0.23493 0.4758 0.0
O173 O 0.55872 0.30449 0.5435 0.0
O174 O 0.62178 0.37093 0.54416 0.0
C175 C 0.59934 0.26379 0.42757 0.0
O176 O 0.60773 0.17813 0.60551 0.0
O177 O 0.60378 0.25144 0.65475 0.0
O178 O 0.69685 0.31376 0.60592 0.0
O179 O 0.75649 0.31352 0.53269 0.0
O180 O 0.71985 0.25362 0.45835 0.0
O181 O 0.69876 0.20026 0.5357 0.0
C182 C 0.56899 0.35464 0.55266 0.0
O183 O 0.71582 0.41541 0.48606 0.0
O184 O 0.70907 0.37413 0.40641 0.0
C185 C 0.64907 0.17591 0.69765 0.0
C186 C 0.73433 0.13787 0.77363 0.0
C187 C 0.73287 0.12005 0.71731 0.0
C188 C 0.69109 0.1388 0.6799 0.0
C189 C 0.6511 0.19478 0.75368 0.0
C190 C 0.69333 0.176 0.79132 0.0
C191 C 0.60745 0.1989 0.65627 0.0
H192 H 0.57678 0.49139 0.3087 0.0
H193 H 0.63795 0.41908 0.34296 0.0
H194 H 0.70398 0.52414 0.47147 0.0
H195 H 0.64188 0.59755 0.43648 0.0
H196 H 0.76362 0.09052 0.7023 0.0
H197 H 0.69198 0.12406 0.6369 0.0
H198 H 0.61997 0.22408 0.76836 0.0
H199 H 0.69264 0.1899 0.83464 0.0
Tb200 Tb 0.99325 0.45491 0.74126 0.0
Eu201 Eu 0.0789 0.41343 0.83187 0.0
C202 C 1.00151 0.52179 0.84182 0.0
C203 C 0.12845 0.49303 0.74976 0.0
C204 C 0.86654 0.43593 0.65692 0.0
C205 C 0.84564 0.362 0.59293 0.0
C206 C 0.88328 0.40047 0.61359 0.0
C207 C 0.81123 0.43095 0.67968 0.0
C208 C 0.77344 0.39211 0.65903 0.0
C209 C 0.79006 0.35754 0.61491 0.0
C210 C 0.90778 0.47507 0.68095 0.0
O211 O 1.02107 0.38795 0.69462 0.0
O212 O 0.10588 0.3807 0.74187 0.0
O213 O 1.03167 0.34078 0.81019 0.0
O214 O 0.95654 0.39661 0.80412 0.0
C215 C 0.07423 0.37465 0.69513 0.0
O216 O 0.16017 0.393 0.87166 0.0
O217 O 0.0823 0.3904 0.92135 0.0
O218 O 1.01199 0.47477 0.86615 0.0
O219 O 1.01036 0.52565 0.78799 0.0
O220 O 0.08146 0.48633 0.71805 0.0
O221 O 0.12918 0.48063 0.80269 0.0
C222 C 0.97718 0.3476 0.81347 0.0
O223 O 0.90731 0.47979 0.73597 0.0
O224 O 0.95984 0.47345 0.66101 0.0
C225 C 0.16109 0.43441 0.96245 0.0
C226 C 0.2018 0.51449 0.03712 0.0
C227 C 0.21571 0.51576 0.97925 0.0
C228 C 0.19553 0.47654 0.94245 0.0
C229 C 0.14565 0.43388 1.02005 0.0
C230 C 0.16574 0.47357 0.05706 0.0
C231 C 0.13784 0.39404 0.92248 0.0
H232 H 0.85991 0.33621 0.55878 0.0
H233 H 0.92561 0.40228 0.59533 0.0
H234 H 0.79711 0.45724 0.71344 0.0
H235 H 0.73073 0.39035 0.67638 0.0
H236 H 0.24365 0.54653 0.96256 0.0
H237 H 0.20742 0.4792 0.89824 0.0
H238 H 0.1184 0.40249 0.03651 0.0
H239 H 0.155 0.4709 0.10156 0.0
Tb240 Tb 0.94846 0.85994 0.06597 0.0
Eu241 Eu 0.8927 0.78001 0.98396 0.0
C242 C 1.00988 0.75891 0.05526 0.0
C243 C 0.98351 0.85017 0.92883 0.0
C244 C 0.93638 0.93851 0.19265 0.0
C245 C 0.85874 1.00179 0.21244 0.0
C246 C 0.89939 0.98036 0.17532 0.0
C247 C 0.9307 0.91815 0.24814 0.0
C248 C 0.88967 0.93971 0.28552 0.0
C249 C 0.85352 0.9822 0.26817 0.0
C250 C 0.97632 0.91275 0.15133 0.0
O251 O 0.88451 0.91516 0.04015 0.0
O252 O 0.85939 0.86726 0.9614 0.0
O253 O 0.82128 0.80753 0.03724 0.0
O254 O 0.88599 0.80319 0.10539 0.0
C255 C 0.86115 0.91327 0.99092 0.0
O256 O 0.8635 0.74098 0.90699 0.0
O257 O 0.85757 0.69878 0.98726 0.0
O258 O 0.95793 0.7412 0.04626 0.0
O259 O 1.01905 0.80934 0.04545 0.0
O260 O 0.98355 0.87734 0.97809 0.0
O261 O 0.95831 0.80445 0.92368 0.0
C262 C 0.83238 0.79824 0.08981 0.0
O263 O 0.97627 0.86017 0.15063 0.0
O264 O 0.97696 0.93285 0.10009 0.0
C265 C 0.89386 0.6488 0.90933 0.0
C266 C 0.96763 0.56594 0.86856 0.0
C267 C 0.96058 0.61485 0.83873 0.0
C268 C 0.92421 0.65539 0.85855 0.0
C269 C 0.90116 0.60013 0.93981 0.0
C270 C 0.9377 0.55908 0.91964 0.0
C271 C 0.85867 0.69416 0.93225 0.0
H272 H 0.83173 1.03455 0.19753 0.0
H273 H 0.90144 0.99666 0.13279 0.0
H274 H 0.95793 0.88539 0.26258 0.0
H275 H 0.88734 0.92412 0.32833 0.0
H276 H 0.98279 0.62184 0.79917 0.0
H277 H 0.92035 0.69217 0.83395 0.0
H278 H 0.87875 0.59385 0.97937 0.0
H279 H 0.94163 0.52179 0.94336 0.0
Tb280 Tb 0.5844 0.66386 0.24154 0.0
Eu281 Eu 0.49664 0.70476 0.33005 0.0
C282 C 0.57262 0.59541 0.34181 0.0
C283 C 0.44882 0.62512 0.24665 0.0
C284 C 0.71384 0.68464 0.16127 0.0
C285 C 0.81002 0.7219 0.15739 0.0
C286 C 0.77156 0.68296 0.17742 0.0
C287 C 0.69521 0.72713 0.12603 0.0
C288 C 0.73346 0.76562 0.10592 0.0
C289 C 0.79146 0.76322 0.12062 0.0
C290 C 0.67248 0.64478 0.18424 0.0
O291 O 0.55546 0.72899 0.19179 0.0
O292 O 0.47113 0.73871 0.24027 0.0
O293 O 0.54334 0.77806 0.30793 0.0
O294 O 0.61903 0.72297 0.30376 0.0
C295 C 0.50275 0.74405 0.19321 0.0
O296 O 0.41499 0.72447 0.36964 0.0
O297 O 0.49265 0.72888 0.41887 0.0
O298 O 0.562 0.64238 0.36564 0.0
O299 O 0.56644 0.59218 0.28766 0.0
O300 O 0.49764 0.63073 0.21707 0.0
O301 O 0.44443 0.64006 0.29865 0.0
C302 C 0.59785 0.7719 0.31178 0.0
O303 O 0.67091 0.64016 0.23928 0.0
O304 O 0.62122 0.64576 0.16265 0.0
C305 C 0.41406 0.68519 0.46201 0.0
C306 C 0.37393 0.60624 0.53948 0.0
C307 C 0.35395 0.6082 0.4835 0.0
C308 C 0.37377 0.64691 0.44531 0.0
C309 C 0.43514 0.68258 0.51769 0.0
C310 C 0.41539 0.64341 0.55604 0.0
C311 C 0.43716 0.7247 0.42036 0.0
H312 H 0.85456 0.71835 0.16882 0.0
H313 H 0.78703 0.65123 0.2052 0.0
H314 H 0.651 0.73064 0.11344 0.0
H315 H 0.71776 0.79674 0.07747 0.0
H316 H 0.32183 0.58031 0.4694 0.0
H317 H 0.35717 0.64676 0.40264 0.0
H318 H 0.46675 0.71103 0.53162 0.0
H319 H 0.43097 0.64354 0.5991 0.0
Tb320 Tb 0.25741 0.61354 0.19071 0.0
Eu321 Eu 0.3389 0.53022 0.13616 0.0
C322 C 0.26757 0.51393 0.25389 0.0
C323 C 0.39602 0.60396 0.22134 0.0
C324 C 0.12854 0.69133 0.17647 0.0
C325 C 1.03418 0.69124 0.1323 0.0
C326 C 0.0724 0.67188 0.17368 0.0
C327 C 0.14572 0.7298 0.13614 0.0
C328 C 0.10776 0.74908 0.09515 0.0
C329 C 0.05135 0.73056 0.09288 0.0
C330 C 0.17065 0.66762 0.21701 0.0
O331 O 0.28421 0.66699 0.12658 0.0
O332 O 0.36263 0.61619 0.10133 0.0
O333 O 0.28623 0.55739 0.06469 0.0
O334 O 0.21774 0.55636 0.1297 0.0
C335 C 0.33387 0.66326 0.10334 0.0
O336 O 0.41623 0.48744 0.10962 0.0
O337 O 0.33462 0.44781 0.10399 0.0
O338 O 0.27627 0.49494 0.20262 0.0
O339 O 0.27783 0.56436 0.26193 0.0
O340 O 0.34621 0.63148 0.22355 0.0
O341 O 0.40039 0.55715 0.19811 0.0
C342 C 0.23318 0.54995 0.07643 0.0
O343 O 0.17228 0.61509 0.21943 0.0
O344 O 0.22195 0.68772 0.21629 0.0
C345 C 0.41059 0.39695 0.1441 0.0
C346 C 0.44697 0.31392 0.2195 0.0
C347 C 0.4661 0.36706 0.22558 0.0
C348 C 0.44807 0.40794 0.18873 0.0
C349 C 0.38991 0.34411 0.13883 0.0
C350 C 0.40787 0.30293 0.17625 0.0
C351 C 0.38988 0.44135 0.10637 0.0
H352 H 0.99081 0.67675 0.13235 0.0
H353 H 0.05809 0.6416 0.20353 0.0
H354 H 0.18873 0.74517 0.1359 0.0
H355 H 0.12245 0.77951 0.06564 0.0
H356 H 0.49641 0.37689 0.25833 0.0
H357 H 0.46398 0.44821 0.19522 0.0
H358 H 0.36021 0.3346 0.10548 0.0
H359 H 0.39307 0.26226 0.16987 0.0
Tb360 Tb 0.84212 0.09274 0.9296 0.0
Eu361 Eu 0.75679 1.01101 0.87978 0.0
C362 C 0.73583 0.08159 0.99191 0.0
C363 C 0.83591 0.96433 0.96939 0.0
C364 C 0.91156 0.22164 0.91936 0.0
C365 C 0.96189 0.251 0.83461 0.0
C366 C 0.94459 0.20993 0.8712 0.0
C367 C 0.89387 0.27534 0.9283 0.0
C368 C 0.911 0.31671 0.89114 0.0
C369 C 0.9462 0.30492 0.84453 0.0
C370 C 0.89208 0.17748 0.95738 0.0
O371 O 0.89981 0.06597 0.86586 0.0
O372 O 0.84953 0.98833 0.85165 0.0
O373 O 0.78141 0.05904 0.80561 0.0
O374 O 0.78076 0.12734 0.86632 0.0
C375 C 0.89804 1.01644 0.84928 0.0
O376 O 0.72195 0.9338 0.85409 0.0
O377 O 0.66846 1.00553 0.85118 0.0
O378 O 0.71582 0.07254 0.94097 0.0
O379 O 0.78955 0.07225 1.00009 0.0
O380 O 0.86564 1.01038 0.96606 0.0
O381 O 0.78444 0.96123 0.95067 0.0
C382 C 0.77262 0.1097 0.81445 0.0
O383 O 0.83698 0.17193 0.96076 0.0
O384 O 0.91815 0.13088 0.95267 0.0
C385 C 0.62866 0.9278 0.89384 0.0
C386 C 0.55305 0.88545 0.97651 0.0
C387 C 0.60974 0.86683 0.97273 0.0
C388 C 0.64698 0.88768 0.93214 0.0
C389 C 0.57218 0.94719 0.89813 0.0
C390 C 0.53476 0.92633 0.93912 0.0
C391 C 0.66976 0.95292 0.85369 0.0
H392 H 0.98948 0.24078 0.79933 0.0
H393 H 0.9579 0.16901 0.86199 0.0
H394 H 0.86747 0.28538 0.96446 0.0
H395 H 0.89926 0.35801 0.90052 0.0
H396 H 0.62523 0.83527 1.00074 0.0
H397 H 0.69032 0.87227 0.9311 0.0
H398 H 0.557 0.97861 0.8698 0.0
H399 H 0.49115 0.94101 0.94035 0.0
Tb400 Tb 0.74113 1.02804 0.42082 0.0
Eu401 Eu 0.82758 0.11117 0.37319 0.0
C402 C 0.84298 1.04004 0.4872 0.0
C403 C 0.74519 0.15662 0.46055 0.0
C404 C 0.66787 0.89936 0.41192 0.0
C405 C 0.60956 0.86899 0.33353 0.0
C406 C 0.62907 0.91033 0.36808 0.0
C407 C 0.68846 0.84615 0.4186 0.0
C408 C 0.66912 0.80458 0.38348 0.0
C409 C 0.62856 0.81551 0.34125 0.0
C410 C 0.68928 0.94352 0.44833 0.0
O411 O 0.68763 0.05412 0.3546 0.0
O412 O 0.73544 0.13345 0.34084 0.0
O413 O 0.80759 0.06228 0.29892 0.0
O414 O 0.80557 0.99376 0.36042 0.0
C415 C 0.68803 0.10378 0.3381 0.0
O416 O 0.86358 0.18853 0.34828 0.0
O417 O 0.917 0.11675 0.34747 0.0
O418 O 0.86642 0.05006 0.43761 0.0
O419 O 0.78935 0.051 0.49227 0.0
O420 O 0.71638 0.11003 0.45688 0.0
O421 O 0.79657 0.16125 0.44175 0.0
C422 C 0.81578 1.01153 0.30865 0.0
O423 O 0.74455 0.94794 0.45031 0.0
O424 O 0.66425 0.99067 0.4436 0.0
C425 C 0.95544 0.19413 0.39075 0.0
C426 C 1.02849 0.23566 0.47517 0.0
C427 C 0.97161 0.25357 0.4707 0.0
C428 C 0.9356 0.23309 0.42928 0.0
C429 C 1.01211 0.17547 0.39569 0.0
C430 C 0.04826 0.19592 0.43754 0.0
C431 C 0.91572 0.16934 0.34958 0.0
H432 H 0.57812 0.87871 0.30148 0.0
H433 H 0.61306 0.95083 0.3607 0.0
H434 H 0.71902 0.83662 0.4515 0.0
H435 H 0.68385 0.76369 0.39109 0.0
H436 H 0.95498 0.28424 0.49888 0.0
H437 H 0.89204 0.24784 0.42776 0.0
H438 H 1.02843 0.14494 0.36721 0.0
H439 H 0.09205 0.1818 0.43929 0.0
Tb440 Tb 0.24045 0.58658 0.64475 0.0
Eu441 Eu 0.32387 0.50241 0.69601 0.0
C442 C 0.34453 0.57116 0.58123 0.0
C443 C 0.24453 0.45758 0.60702 0.0
C444 C 0.1719 0.71923 0.64925 0.0
C445 C 0.1407 0.81253 0.6524 0.0
C446 C 0.15877 0.76761 0.62162 0.0
C447 C 0.16928 0.71734 0.70892 0.0
C448 C 0.15094 0.76267 0.74006 0.0
C449 C 0.1351 0.81046 0.71185 0.0
C450 C 0.18903 0.67162 0.61538 0.0
O451 O 0.18305 0.56159 0.70808 0.0
O452 O 0.23089 0.48234 0.72695 0.0
O453 O 0.30198 0.55239 0.76943 0.0
O454 O 0.3025 0.62009 0.70681 0.0
C455 C 0.18304 0.51255 0.72642 0.0
O456 O 0.41274 0.49677 0.72353 0.0
O457 O 0.3614 0.4248 0.72052 0.0
O458 O 0.3643 0.56234 0.63251 0.0
O459 O 0.29071 0.56364 0.57355 0.0
O460 O 0.21636 0.50516 0.60861 0.0
O461 O 0.29478 0.4515 0.62807 0.0
C462 C 0.31106 0.60276 0.75906 0.0
O463 O 0.24378 0.66424 0.60896 0.0
O464 O 0.1631 0.62662 0.62701 0.0
C465 C 0.45387 0.42097 0.67781 0.0
C466 C 0.52884 0.3829 0.59166 0.0
C467 C 0.47165 0.36655 0.59388 0.0
C468 C 0.43475 0.38531 0.63609 0.0
C469 C 0.51081 0.43833 0.67507 0.0
C470 C 0.54793 0.41954 0.63243 0.0
C471 C 0.41304 0.44427 0.71985 0.0
H472 H 0.12927 0.84878 0.62914 0.0
H473 H 0.16137 0.77042 0.57594 0.0
H474 H 0.18018 0.68047 0.73129 0.0
H475 H 0.14666 0.75951 0.78557 0.0
H476 H 0.45552 0.33817 0.56336 0.0
H477 H 0.39104 0.37177 0.63575 0.0
H478 H 0.52659 0.4665 0.70595 0.0
H479 H 0.59192 0.43228 0.63256 0.0
loop_
_geom_bond_atom_site_label_1
_geom_bond_atom_site_label_2
_geom_bond_distance
_geom_bond_site_symmetry_2
_ccdc_geom_bond_type
Tb0 C10 2.825 . S
Tb0 O11 2.347 . S
Tb0 O14 2.366 . S
Tb0 O19 2.418 . S
Tb0 O20 2.384 . S
Tb0 O23 2.479 . S
Tb0 O24 2.471 . S
Eu1 O12 2.418 . S
Eu1 O13 2.384 . S
Eu1 O16 2.479 . S
Eu1 O17 2.471 . S
Eu1 O18 2.347 . S
Eu1 O21 2.366 . S
Eu1 C31 2.825 . S
C2 O18 1.259 . S
C2 O19 1.265 . S
C3 O20 1.255 . S
C3 O21 1.265 . S
C4 C6 1.380 . S
C4 C7 1.374 . S
C4 C10 1.507 . S
C5 C6 1.384 . S
C5 C9 1.387 . S
C5 H32 0.930 . S
C6 C4 1.380 . S
C6 C5 1.384 . S
C6 H33 0.931 . S
C7 C4 1.374 . S
C7 C8 1.390 . S
C7 H34 0.930 . S
C8 C7 1.390 . S
C8 C9 1.391 . S
C8 H35 0.930 1_455 S
C9 C5 1.387 . S
C9 C8 1.391 . S
C10 Tb0 2.825 . S
C10 C4 1.507 . S
C10 O23 1.238 . S
C10 O24 1.247 . S
O11 Tb0 2.347 . S
O11 C15 1.259 . S
O12 Eu1 2.418 . S
O12 C15 1.265 . S
O13 Eu1 2.384 . S
O13 C22 1.255 . S
O14 Tb0 2.366 . S
O14 C22 1.265 . S
C15 O11 1.259 . S
C15 O12 1.265 . S
O16 Eu1 2.479 . S
O16 C31 1.238 . S
O17 Eu1 2.471 . S
O17 C31 1.247 . S
O18 Eu1 2.347 . S
O18 C2 1.259 . S
O19 Tb0 2.418 . S
O19 C2 1.265 . S
O20 Tb0 2.384 . S
O20 C3 1.255 . S
O21 Eu1 2.366 . S
O21 C3 1.265 . S
C22 O13 1.255 . S
C22 O14 1.265 . S
O23 Tb0 2.479 . S
O23 C10 1.238 . S
O24 Tb0 2.471 . S
O24 C10 1.247 . S
C25 C28 1.380 . S
C25 C29 1.374 . S
C25 C31 1.507 . S
C26 C27 1.387 . S
C26 C30 1.391 . S
C27 C26 1.387 . S
C27 C28 1.384 . S
C27 H36 0.930 . S
C28 C25 1.380 . S
C28 C27 1.384 . S
C28 H37 0.931 . S
C29 C25 1.374 . S
C29 C30 1.390 . S
C29 H38 0.930 . S
C30 C26 1.391 . S
C30 C29 1.390 . S
C30 H39 0.930 . S
C31 Eu1 2.825 . S
C31 O16 1.238 . S
C31 O17 1.247 . S
C31 C25 1.507 . S
H32 C5 0.930 . S
H33 C6 0.931 . S
H34 C7 0.930 . S
H35 C8 0.930 1_655 S
H36 C27 0.930 . S
H37 C28 0.931 . S
H38 C29 0.930 . S
H39 C30 0.930 . S
Tb40 C50 2.825 . S
Tb40 O51 2.347 . S
Tb40 O54 2.366 . S
Tb40 O59 2.418 1_655 S
Tb40 O60 2.384 . S
Tb40 O63 2.479 . S
Tb40 O64 2.471 . S
Eu41 O52 2.418 1_455 S
Eu41 O53 2.384 . S
Eu41 O56 2.479 . S
Eu41 O57 2.471 . S
Eu41 O58 2.347 . S
Eu41 O61 2.366 . S
Eu41 C71 2.825 . S
C42 O58 1.259 . S
C42 O59 1.265 . S
C43 O60 1.255 . S
C43 O61 1.265 1_655 S
C44 C46 1.380 . S
C44 C47 1.374 . S
C44 C50 1.507 . S
C45 C46 1.384 . S
C45 C49 1.387 . S
C45 H72 0.930 . S
C46 C44 1.380 . S
C46 C45 1.384 . S
C46 H73 0.931 . S
C47 C44 1.374 . S
C47 C48 1.390 . S
C47 H74 0.930 . S
C48 C47 1.390 . S
C48 C49 1.391 . S
C48 H75 0.930 1_565 S
C49 C45 1.387 . S
C49 C48 1.391 . S
C50 Tb40 2.825 . S
C50 C44 1.507 . S
C50 O63 1.238 . S
C50 O64 1.247 . S
O51 Tb40 2.347 . S
O51 C55 1.259 . S
O52 Eu41 2.418 1_655 S
O52 C55 1.265 . S
O53 Eu41 2.384 . S
O53 C62 1.255 . S
O54 Tb40 2.366 . S
O54 C62 1.265 1_655 S
C55 O51 1.259 . S
C55 O52 1.265 . S
O56 Eu41 2.479 . S
O56 C71 1.238 . S
O57 Eu41 2.471 . S
O57 C71 1.247 . S
O58 Eu41 2.347 . S
O58 C42 1.259 . S
O59 Tb40 2.418 1_455 S
O59 C42 1.265 . S
O60 Tb40 2.384 . S
O60 C43 1.255 . S
O61 Eu41 2.366 . S
O61 C43 1.265 1_455 S
C62 O53 1.255 . S
C62 O54 1.265 1_455 S
O63 Tb40 2.479 . S
O63 C50 1.238 . S
O64 Tb40 2.471 . S
O64 C50 1.247 . S
C65 C68 1.380 . S
C65 C69 1.374 . S
C65 C71 1.507 . S
C66 C67 1.387 . S
C66 C70 1.391 1_554 S
C67 C66 1.387 . S
C67 C68 1.384 1_554 S
C67 H76 0.930 . S
C68 C65 1.380 . S
C68 C67 1.384 1_556 S
C68 H77 0.932 . S
C69 C65 1.374 . S
C69 C70 1.390 . S
C69 H78 0.930 . S
C70 C66 1.391 1_556 S
C70 C69 1.390 . S
C70 H79 0.930 . S
C71 Eu41 2.825 . S
C71 O56 1.238 . S
C71 O57 1.247 . S
C71 C65 1.507 . S
H72 C45 0.930 . S
H73 C46 0.931 . S
H74 C47 0.930 . S
H75 C48 0.930 1_545 S
H76 C67 0.930 . S
H77 C68 0.932 . S
H78 C69 0.930 . S
H79 C70 0.930 . S
Tb80 C90 2.825 . S
Tb80 O91 2.347 . S
Tb80 O94 2.366 . S
Tb80 O99 2.418 1_554 S
Tb80 O100 2.384 . S
Tb80 O103 2.479 . S
Tb80 O104 2.471 . S
Eu81 O92 2.418 1_556 S
Eu81 O93 2.384 . S
Eu81 O96 2.479 . S
Eu81 O97 2.471 . S
Eu81 O98 2.347 . S
Eu81 O101 2.366 . S
Eu81 C111 2.825 . S
C82 O98 1.259 . S
C82 O99 1.265 . S
C83 O100 1.255 . S
C83 O101 1.265 1_554 S
C84 C86 1.380 . S
C84 C87 1.374 . S
C84 C90 1.507 . S
C85 C86 1.384 . S
C85 C89 1.387 . S
C85 H112 0.930 1_565 S
C86 C84 1.380 . S
C86 C85 1.384 . S
C86 H113 0.931 . S
C87 C84 1.374 . S
C87 C88 1.390 . S
C87 H114 0.930 . S
C88 C87 1.390 . S
C88 C89 1.391 . S
C88 H115 0.930 . S
C89 C85 1.387 . S
C89 C88 1.391 . S
C90 Tb80 2.825 . S
C90 C84 1.507 . S
C90 O103 1.238 . S
C90 O104 1.247 . S
O91 Tb80 2.347 . S
O91 C95 1.259 . S
O92 Eu81 2.418 1_554 S
O92 C95 1.265 . S
O93 Eu81 2.384 . S
O93 C102 1.255 . S
O94 Tb80 2.366 . S
O94 C102 1.265 1_554 S
C95 O91 1.259 . S
C95 O92 1.265 . S
O96 Eu81 2.479 . S
O96 C111 1.238 . S
O97 Eu81 2.471 . S
O97 C111 1.247 . S
O98 Eu81 2.347 . S
O98 C82 1.259 . S
O99 Tb80 2.418 1_556 S
O99 C82 1.265 . S
O100 Tb80 2.384 . S
O100 C83 1.255 . S
O101 Eu81 2.366 . S
O101 C83 1.265 1_556 S
C102 O93 1.255 . S
C102 O94 1.265 1_556 S
O103 Tb80 2.479 . S
O103 C90 1.238 . S
O104 Tb80 2.471 . S
O104 C90 1.247 . S
C105 C108 1.380 . S
C105 C109 1.374 . S
C105 C111 1.507 . S
C106 C107 1.387 . S
C106 C110 1.391 . S
C107 C106 1.387 . S
C107 C108 1.384 . S
C107 H116 0.930 . S
C108 C105 1.380 . S
C108 C107 1.384 . S
C108 H117 0.931 . S
C109 C105 1.374 . S
C109 C110 1.390 . S
C109 H118 0.930 . S
C110 C106 1.391 . S
C110 C109 1.390 . S
C110 H119 0.930 . S
C111 Eu81 2.825 . S
C111 O96 1.238 . S
C111 O97 1.247 . S
C111 C105 1.507 . S
H112 C85 0.930 1_545 S
H113 C86 0.931 . S
H114 C87 0.930 . S
H115 C88 0.930 . S
H116 C107 0.930 . S
H117 C108 0.931 . S
H118 C109 0.930 . S
H119 C110 0.930 . S
Tb120 C130 2.825 . S
Tb120 O131 2.347 . S
Tb120 O134 2.366 . S
Tb120 O139 2.418 . S
Tb120 O140 2.384 . S
Tb120 O143 2.479 . S
Tb120 O144 2.471 . S
Eu121 O132 2.418 . S
Eu121 O133 2.384 . S
Eu121 O136 2.479 . S
Eu121 O137 2.471 . S
Eu121 O138 2.347 . S
Eu121 O141 2.366 . S
Eu121 C151 2.825 . S
C122 O138 1.259 . S
C122 O139 1.265 . S
C123 O140 1.255 . S
C123 O141 1.265 . S
C124 C126 1.380 . S
C124 C127 1.374 . S
C124 C130 1.507 . S
C125 C126 1.384 . S
C125 C129 1.387 . S
C125 H152 0.930 1_554 S
C126 C124 1.380 . S
C126 C125 1.384 . S
C126 H153 0.931 . S
C127 C124 1.374 . S
C127 C128 1.390 . S
C127 H154 0.930 . S
C128 C127 1.390 . S
C128 C129 1.391 . S
C128 H155 0.930 1_545 S
C129 C125 1.387 . S
C129 C128 1.391 . S
C130 Tb120 2.825 . S
C130 C124 1.507 . S
C130 O143 1.238 . S
C130 O144 1.247 . S
O131 Tb120 2.347 . S
O131 C135 1.259 . S
O132 Eu121 2.418 . S
O132 C135 1.265 . S
O133 Eu121 2.384 . S
O133 C142 1.255 . S
O134 Tb120 2.366 . S
O134 C142 1.265 . S
C135 O131 1.259 . S
C135 O132 1.265 . S
O136 Eu121 2.479 . S
O136 C151 1.238 . S
O137 Eu121 2.471 . S
O137 C151 1.247 . S
O138 Eu121 2.347 . S
O138 C122 1.259 . S
O139 Tb120 2.418 . S
O139 C122 1.265 . S
O140 Tb120 2.384 . S
O140 C123 1.255 . S
O141 Eu121 2.366 . S
O141 C123 1.265 . S
C142 O133 1.255 . S
C142 O134 1.265 . S
O143 Tb120 2.479 . S
O143 C130 1.238 . S
O144 Tb120 2.471 . S
O144 C130 1.247 . S
C145 C148 1.380 . S
C145 C149 1.374 . S
C145 C151 1.507 . S
C146 C147 1.387 . S
C146 C150 1.391 . S
C147 C146 1.387 . S
C147 C148 1.384 . S
C147 H156 0.930 . S
C148 C145 1.380 . S
C148 C147 1.384 . S
C148 H157 0.931 . S
C149 C145 1.374 . S
C149 C150 1.390 . S
C149 H158 0.930 . S
C150 C146 1.391 . S
C150 C149 1.390 . S
C150 H159 0.930 . S
C151 Eu121 2.825 . S
C151 O136 1.238 . S
C151 O137 1.247 . S
C151 C145 1.507 . S
H152 C125 0.930 1_556 S
H153 C126 0.931 . S
H154 C127 0.930 . S
H155 C128 0.930 1_565 S
H156 C147 0.930 . S
H157 C148 0.931 . S
H158 C149 0.930 . S
H159 C150 0.930 . S
Tb160 C170 2.825 . S
Tb160 O171 2.347 . S
Tb160 O174 2.366 . S
Tb160 O179 2.418 . S
Tb160 O180 2.384 . S
Tb160 O183 2.479 . S
Tb160 O184 2.471 . S
Eu161 O172 2.418 . S
Eu161 O173 2.384 . S
Eu161 O176 2.479 . S
Eu161 O177 2.471 . S
Eu161 O178 2.347 . S
Eu161 O181 2.366 . S
Eu161 C191 2.825 . S
C162 O178 1.259 . S
C162 O179 1.265 . S
C163 O180 1.255 . S
C163 O181 1.265 . S
C164 C166 1.380 . S
C164 C167 1.374 . S
C164 C170 1.507 . S
C165 C166 1.384 . S
C165 C169 1.387 . S
C165 H192 0.930 . S
C166 C164 1.380 . S
C166 C165 1.384 . S
C166 H193 0.931 . S
C167 C164 1.374 . S
C167 C168 1.390 . S
C167 H194 0.930 . S
C168 C167 1.390 . S
C168 C169 1.391 . S
C168 H195 0.930 . S
C169 C165 1.387 . S
C169 C168 1.391 . S
C170 Tb160 2.825 . S
C170 C164 1.507 . S
C170 O183 1.238 . S
C170 O184 1.247 . S
O171 Tb160 2.347 . S
O171 C175 1.259 . S
O172 Eu161 2.418 . S
O172 C175 1.265 . S
O173 Eu161 2.384 . S
O173 C182 1.255 . S
O174 Tb160 2.366 . S
O174 C182 1.265 . S
C175 O171 1.259 . S
C175 O172 1.265 . S
O176 Eu161 2.479 . S
O176 C191 1.238 . S
O177 Eu161 2.471 . S
O177 C191 1.247 . S
O178 Eu161 2.347 . S
O178 C162 1.259 . S
O179 Tb160 2.418 . S
O179 C162 1.265 . S
O180 Tb160 2.384 . S
O180 C163 1.255 . S
O181 Eu161 2.366 . S
O181 C163 1.265 . S
C182 O173 1.255 . S
C182 O174 1.265 . S
O183 Tb160 2.479 . S
O183 C170 1.238 . S
O184 Tb160 2.471 . S
O184 C170 1.247 . S
C185 C188 1.380 . S
C185 C189 1.374 . S
C185 C191 1.507 . S
C186 C187 1.387 1_545 S
C186 C190 1.391 . S
C187 C186 1.387 1_565 S
C187 C188 1.384 1_565 S
C187 H196 0.931 . S
C188 C185 1.380 . S
C188 C187 1.384 1_545 S
C188 H197 0.931 . S
C189 C185 1.374 . S
C189 C190 1.390 . S
C189 H198 0.930 . S
C190 C186 1.391 . S
C190 C189 1.390 . S
C190 H199 0.930 . S
C191 Eu161 2.825 . S
C191 O176 1.238 . S
C191 O177 1.247 . S
C191 C185 1.507 . S
H192 C165 0.930 . S
H193 C166 0.931 . S
H194 C167 0.930 . S
H195 C168 0.930 . S
H196 C187 0.931 . S
H197 C188 0.931 . S
H198 C189 0.930 . S
H199 C190 0.930 . S
Tb200 C210 2.825 . S
Tb200 O211 2.347 1_655 S
Tb200 O214 2.366 . S
Tb200 O219 2.418 . S
Tb200 O220 2.384 1_655 S
Tb200 O223 2.479 . S
Tb200 O224 2.471 . S
Eu201 O212 2.418 . S
Eu201 O213 2.384 1_455 S
Eu201 O216 2.479 . S
Eu201 O217 2.471 . S
Eu201 O218 2.347 1_455 S
Eu201 O221 2.366 . S
Eu201 C231 2.825 . S
C202 O218 1.259 . S
C202 O219 1.265 . S
C203 O220 1.255 . S
C203 O221 1.265 . S
C204 C206 1.380 . S
C204 C207 1.374 . S
C204 C210 1.507 . S
C205 C206 1.384 . S
C205 C209 1.387 . S
C205 H232 0.930 . S
C206 C204 1.380 . S
C206 C205 1.384 . S
C206 H233 0.931 . S
C207 C204 1.374 . S
C207 C208 1.390 . S
C207 H234 0.930 . S
C208 C207 1.390 . S
C208 C209 1.391 . S
C208 H235 0.930 . S
C209 C205 1.387 . S
C209 C208 1.391 . S
C210 Tb200 2.825 . S
C210 C204 1.507 . S
C210 O223 1.238 . S
C210 O224 1.247 . S
O211 Tb200 2.347 1_455 S
O211 C215 1.259 . S
O212 Eu201 2.418 . S
O212 C215 1.265 . S
O213 Eu201 2.384 1_655 S
O213 C222 1.255 . S
O214 Tb200 2.366 . S
O214 C222 1.265 . S
C215 O211 1.259 . S
C215 O212 1.265 . S
O216 Eu201 2.479 . S
O216 C231 1.238 . S
O217 Eu201 2.471 . S
O217 C231 1.247 . S
O218 Eu201 2.347 1_655 S
O218 C202 1.259 . S
O219 Tb200 2.418 . S
O219 C202 1.265 . S
O220 Tb200 2.384 1_455 S
O220 C203 1.255 . S
O221 Eu201 2.366 . S
O221 C203 1.265 . S
C222 O213 1.255 . S
C222 O214 1.265 . S
O223 Tb200 2.479 . S
O223 C210 1.238 . S
O224 Tb200 2.471 . S
O224 C210 1.247 . S
C225 C228 1.380 . S
C225 C229 1.374 . S
C225 C231 1.507 . S
C226 C227 1.387 . S
C226 C230 1.391 . S
C227 C226 1.387 . S
C227 C228 1.384 . S
C227 H236 0.930 . S
C228 C225 1.380 . S
C228 C227 1.384 . S
C228 H237 0.931 . S
C229 C225 1.374 . S
C229 C230 1.390 . S
C229 H238 0.930 . S
C230 C226 1.391 . S
C230 C229 1.390 . S
C230 H239 0.930 . S
C231 Eu201 2.825 . S
C231 O216 1.238 . S
C231 O217 1.247 . S
C231 C225 1.507 . S
H232 C205 0.930 . S
H233 C206 0.931 . S
H234 C207 0.930 . S
H235 C208 0.930 . S
H236 C227 0.930 . S
H237 C228 0.931 . S
H238 C229 0.930 . S
H239 C230 0.930 . S
Tb240 C250 2.825 . S
Tb240 O251 2.347 1_554 S
Tb240 O254 2.366 . S
Tb240 O259 2.418 . S
Tb240 O260 2.384 1_554 S
Tb240 O263 2.479 . S
Tb240 O264 2.471 . S
Eu241 O252 2.418 . S
Eu241 O253 2.384 1_556 S
Eu241 O256 2.479 . S
Eu241 O257 2.471 . S
Eu241 O258 2.347 1_556 S
Eu241 O261 2.366 . S
Eu241 C271 2.825 . S
C242 O258 1.259 . S
C242 O259 1.265 . S
C243 O260 1.255 . S
C243 O261 1.265 . S
C244 C246 1.380 . S
C244 C247 1.374 . S
C244 C250 1.507 . S
C245 C246 1.384 . S
C245 C249 1.387 . S
C245 H272 0.930 . S
C246 C244 1.380 . S
C246 C245 1.384 . S
C246 H273 0.931 . S
C247 C244 1.374 . S
C247 C248 1.390 . S
C247 H274 0.930 . S
C248 C247 1.390 . S
C248 C249 1.391 . S
C248 H275 0.930 . S
C249 C245 1.387 . S
C249 C248 1.391 . S
C250 Tb240 2.825 . S
C250 C244 1.507 . S
C250 O263 1.238 . S
C250 O264 1.247 . S
O251 Tb240 2.347 1_556 S
O251 C255 1.259 . S
O252 Eu241 2.418 . S
O252 C255 1.265 . S
O253 Eu241 2.384 1_554 S
O253 C262 1.255 . S
O254 Tb240 2.366 . S
O254 C262 1.265 . S
C255 O251 1.259 . S
C255 O252 1.265 . S
O256 Eu241 2.479 . S
O256 C271 1.238 . S
O257 Eu241 2.471 . S
O257 C271 1.247 . S
O258 Eu241 2.347 1_554 S
O258 C242 1.259 . S
O259 Tb240 2.418 . S
O259 C242 1.265 . S
O260 Tb240 2.384 1_556 S
O260 C243 1.255 . S
O261 Eu241 2.366 . S
O261 C243 1.265 . S
C262 O253 1.255 . S
C262 O254 1.265 . S
O263 Tb240 2.479 . S
O263 C250 1.238 . S
O264 Tb240 2.471 . S
O264 C250 1.247 . S
C265 C268 1.380 . S
C265 C269 1.374 . S
C265 C271 1.507 . S
C266 C267 1.387 . S
C266 C270 1.391 . S
C267 C266 1.387 . S
C267 C268 1.384 . S
C267 H276 0.930 . S
C268 C265 1.380 . S
C268 C267 1.384 . S
C268 H277 0.931 . S
C269 C265 1.374 . S
C269 C270 1.390 . S
C269 H278 0.930 . S
C270 C266 1.391 . S
C270 C269 1.390 . S
C270 H279 0.930 1_655 S
C271 Eu241 2.825 . S
C271 O256 1.238 . S
C271 O257 1.247 . S
C271 C265 1.507 . S
H272 C245 0.930 . S
H273 C246 0.931 . S
H274 C247 0.930 . S
H275 C248 0.930 . S
H276 C267 0.930 . S
H277 C268 0.931 . S
H278 C269 0.930 . S
H279 C270 0.930 1_455 S
Tb280 C290 2.825 . S
Tb280 O291 2.347 . S
Tb280 O294 2.366 . S
Tb280 O299 2.418 . S
Tb280 O300 2.384 . S
Tb280 O303 2.479 . S
Tb280 O304 2.471 . S
Eu281 O292 2.418 . S
Eu281 O293 2.384 . S
Eu281 O296 2.479 . S
Eu281 O297 2.471 . S
Eu281 O298 2.347 . S
Eu281 O301 2.366 . S
Eu281 C311 2.825 . S
C282 O298 1.259 . S
C282 O299 1.265 . S
C283 O300 1.255 . S
C283 O301 1.265 . S
C284 C286 1.380 . S
C284 C287 1.374 . S
C284 C290 1.507 . S
C285 C286 1.384 . S
C285 C289 1.387 . S
C285 H312 0.930 . S
C286 C284 1.380 . S
C286 C285 1.384 . S
C286 H313 0.931 . S
C287 C284 1.374 . S
C287 C288 1.390 . S
C287 H314 0.930 . S
C288 C287 1.390 . S
C288 C289 1.391 . S
C288 H315 0.930 . S
C289 C285 1.387 . S
C289 C288 1.391 . S
C290 Tb280 2.825 . S
C290 C284 1.507 . S
C290 O303 1.238 . S
C290 O304 1.247 . S
O291 Tb280 2.347 . S
O291 C295 1.259 . S
O292 Eu281 2.418 . S
O292 C295 1.265 . S
O293 Eu281 2.384 . S
O293 C302 1.255 . S
O294 Tb280 2.366 . S
O294 C302 1.265 . S
C295 O291 1.259 . S
C295 O292 1.265 . S
O296 Eu281 2.479 . S
O296 C311 1.238 . S
O297 Eu281 2.471 . S
O297 C311 1.247 . S
O298 Eu281 2.347 . S
O298 C282 1.259 . S
O299 Tb280 2.418 . S
O299 C282 1.265 . S
O300 Tb280 2.384 . S
O300 C283 1.255 . S
O301 Eu281 2.366 . S
O301 C283 1.265 . S
C302 O293 1.255 . S
C302 O294 1.265 . S
O303 Tb280 2.479 . S
O303 C290 1.238 . S
O304 Tb280 2.471 . S
O304 C290 1.247 . S
C305 C308 1.380 . S
C305 C309 1.374 . S
C305 C311 1.507 . S
C306 C307 1.387 . S
C306 C310 1.391 . S
C307 C306 1.387 . S
C307 C308 1.384 . S
C307 H316 0.930 . S
C308 C305 1.380 . S
C308 C307 1.384 . S
C308 H317 0.931 . S
C309 C305 1.374 . S
C309 C310 1.390 . S
C309 H318 0.930 . S
C310 C306 1.391 . S
C310 C309 1.390 . S
C310 H319 0.930 . S
C311 Eu281 2.825 . S
C311 O296 1.238 . S
C311 O297 1.247 . S
C311 C305 1.507 . S
H312 C285 0.930 . S
H313 C286 0.931 . S
H314 C287 0.930 . S
H315 C288 0.930 . S
H316 C307 0.930 . S
H317 C308 0.931 . S
H318 C309 0.930 . S
H319 C310 0.930 . S
Tb320 C330 2.825 . S
Tb320 O331 2.347 . S
Tb320 O334 2.366 . S
Tb320 O339 2.418 . S
Tb320 O340 2.384 . S
Tb320 O343 2.479 . S
Tb320 O344 2.471 . S
Eu321 O332 2.418 . S
Eu321 O333 2.384 . S
Eu321 O336 2.479 . S
Eu321 O337 2.471 . S
Eu321 O338 2.347 . S
Eu321 O341 2.366 . S
Eu321 C351 2.825 . S
C322 O338 1.259 . S
C322 O339 1.265 . S
C323 O340 1.255 . S
C323 O341 1.265 . S
C324 C326 1.380 . S
C324 C327 1.374 . S
C324 C330 1.507 . S
C325 C326 1.384 . S
C325 C329 1.387 . S
C325 H352 0.930 1_455 S
C326 C324 1.380 . S
C326 C325 1.384 . S
C326 H353 0.931 . S
C327 C324 1.374 . S
C327 C328 1.382 1_554 S
C327 H354 0.930 . S
C328 C327 1.382 1_556 S
C328 C329 1.381 1_556 S
C328 H355 0.949 . S
C329 C325 1.387 . S
C329 C328 1.381 1_554 S
C330 Tb320 2.825 . S
C330 C324 1.507 . S
C330 O343 1.238 . S
C330 O344 1.247 . S
O331 Tb320 2.347 . S
O331 C335 1.259 . S
O332 Eu321 2.418 . S
O332 C335 1.265 . S
O333 Eu321 2.384 . S
O333 C342 1.255 . S
O334 Tb320 2.366 . S
O334 C342 1.265 . S
C335 O331 1.259 . S
C335 O332 1.265 . S
O336 Eu321 2.479 . S
O336 C351 1.238 . S
O337 Eu321 2.471 . S
O337 C351 1.247 . S
O338 Eu321 2.347 . S
O338 C322 1.259 . S
O339 Tb320 2.418 . S
O339 C322 1.265 . S
O340 Tb320 2.384 . S
O340 C323 1.255 . S
O341 Eu321 2.366 . S
O341 C323 1.265 . S
C342 O333 1.255 . S
C342 O334 1.265 . S
O343 Tb320 2.479 . S
O343 C330 1.238 . S
O344 Tb320 2.471 . S
O344 C330 1.247 . S
C345 C348 1.380 . S
C345 C349 1.374 . S
C345 C351 1.507 . S
C346 C347 1.387 . S
C346 C350 1.391 . S
C347 C346 1.387 . S
C347 C348 1.384 . S
C347 H356 0.930 . S
C348 C345 1.380 . S
C348 C347 1.384 . S
C348 H357 0.931 . S
C349 C345 1.374 . S
C349 C350 1.390 . S
C349 H358 0.930 . S
C350 C346 1.391 . S
C350 C349 1.390 . S
C350 H359 0.930 . S
C351 Eu321 2.825 . S
C351 O336 1.238 . S
C351 O337 1.247 . S
C351 C345 1.507 . S
H352 C325 0.930 1_655 S
H353 C326 0.931 . S
H354 C327 0.930 . S
H355 C328 0.949 . S
H356 C347 0.930 . S
H357 C348 0.931 . S
H358 C349 0.930 . S
H359 C350 0.930 . S
Tb360 C370 2.825 . S
Tb360 O371 2.347 1_545 S
Tb360 O374 2.366 . S
Tb360 O379 2.418 . S
Tb360 O380 2.384 1_545 S
Tb360 O383 2.479 . S
Tb360 O384 2.471 . S
Eu361 O372 2.418 . S
Eu361 O373 2.384 1_565 S
Eu361 O376 2.479 . S
Eu361 O377 2.471 . S
Eu361 O378 2.347 1_565 S
Eu361 O381 2.366 . S
Eu361 C391 2.825 . S
C362 O378 1.259 . S
C362 O379 1.265 . S
C363 O380 1.255 . S
C363 O381 1.265 . S
C364 C366 1.380 . S
C364 C367 1.374 . S
C364 C370 1.507 . S
C365 C366 1.384 . S
C365 C369 1.387 . S
C365 H392 0.930 . S
C366 C364 1.380 . S
C366 C365 1.384 . S
C366 H393 0.931 . S
C367 C364 1.374 . S
C367 C368 1.390 . S
C367 H394 0.930 . S
C368 C367 1.390 . S
C368 C369 1.391 . S
C368 H395 0.930 . S
C369 C365 1.387 . S
C369 C368 1.391 . S
C370 Tb360 2.825 . S
C370 C364 1.507 . S
C370 O383 1.238 . S
C370 O384 1.247 . S
O371 Tb360 2.347 1_565 S
O371 C375 1.259 . S
O372 Eu361 2.418 . S
O372 C375 1.265 . S
O373 Eu361 2.384 1_545 S
O373 C382 1.255 . S
O374 Tb360 2.366 . S
O374 C382 1.265 . S
C375 O371 1.259 . S
C375 O372 1.265 . S
O376 Eu361 2.479 . S
O376 C391 1.238 . S
O377 Eu361 2.471 . S
O377 C391 1.247 . S
O378 Eu361 2.347 1_545 S
O378 C362 1.259 . S
O379 Tb360 2.418 . S
O379 C362 1.265 . S
O380 Tb360 2.384 1_565 S
O380 C363 1.255 . S
O381 Eu361 2.366 . S
O381 C363 1.265 . S
C382 O373 1.255 . S
C382 O374 1.265 . S
O383 Tb360 2.479 . S
O383 C370 1.238 . S
O384 Tb360 2.471 . S
O384 C370 1.247 . S
C385 C388 1.380 . S
C385 C389 1.374 . S
C385 C391 1.507 . S
C386 C387 1.387 . S
C386 C390 1.391 . S
C387 C386 1.387 . S
C387 C388 1.384 . S
C387 H396 0.930 . S
C388 C385 1.380 . S
C388 C387 1.384 . S
C388 H397 0.931 . S
C389 C385 1.374 . S
C389 C390 1.390 . S
C389 H398 0.930 . S
C390 C386 1.391 . S
C390 C389 1.390 . S
C390 H399 0.930 1_556 S
C391 Eu361 2.825 . S
C391 O376 1.238 . S
C391 O377 1.247 . S
C391 C385 1.507 . S
H392 C365 0.930 . S
H393 C366 0.931 . S
H394 C367 0.930 . S
H395 C368 0.930 . S
H396 C387 0.930 . S
H397 C388 0.931 . S
H398 C389 0.930 . S
H399 C390 0.930 1_554 S
Tb400 C410 2.825 . S
Tb400 O411 2.347 1_565 S
Tb400 O414 2.366 . S
Tb400 O419 2.418 . S
Tb400 O420 2.384 1_565 S
Tb400 O423 2.479 . S
Tb400 O424 2.471 . S
Eu401 O412 2.418 . S
Eu401 O413 2.384 1_545 S
Eu401 O416 2.479 . S
Eu401 O417 2.471 . S
Eu401 O418 2.347 1_545 S
Eu401 O421 2.366 . S
Eu401 C431 2.825 . S
C402 O418 1.259 . S
C402 O419 1.265 . S
C403 O420 1.255 . S
C403 O421 1.265 . S
C404 C406 1.380 . S
C404 C407 1.374 . S
C404 C410 1.507 . S
C405 C406 1.384 . S
C405 C409 1.387 . S
C405 H432 0.930 . S
C406 C404 1.380 . S
C406 C405 1.384 . S
C406 H433 0.931 . S
C407 C404 1.374 . S
C407 C408 1.390 . S
C407 H434 0.930 . S
C408 C407 1.390 . S
C408 C409 1.391 . S
C408 H435 0.930 . S
C409 C405 1.387 . S
C409 C408 1.391 . S
C410 Tb400 2.825 . S
C410 C404 1.507 . S
C410 O423 1.238 . S
C410 O424 1.247 . S
O411 Tb400 2.347 1_545 S
O411 C415 1.259 . S
O412 Eu401 2.418 . S
O412 C415 1.265 . S
O413 Eu401 2.384 1_565 S
O413 C422 1.255 . S
O414 Tb400 2.366 . S
O414 C422 1.265 . S
C415 O411 1.259 . S
C415 O412 1.265 . S
O416 Eu401 2.479 . S
O416 C431 1.238 . S
O417 Eu401 2.471 . S
O417 C431 1.247 . S
O418 Eu401 2.347 1_565 S
O418 C402 1.259 . S
O419 Tb400 2.418 . S
O419 C402 1.265 . S
O420 Tb400 2.384 1_545 S
O420 C403 1.255 . S
O421 Eu401 2.366 . S
O421 C403 1.265 . S
C422 O413 1.255 . S
C422 O414 1.265 . S
O423 Tb400 2.479 . S
O423 C410 1.238 . S
O424 Tb400 2.471 . S
O424 C410 1.247 . S
C425 C428 1.380 . S
C425 C429 1.374 . S
C425 C431 1.507 . S
C426 C427 1.387 . S
C426 C430 1.391 . S
C427 C426 1.387 . S
C427 C428 1.384 . S
C427 H436 0.930 . S
C428 C425 1.380 . S
C428 C427 1.384 . S
C428 H437 0.931 . S
C429 C425 1.374 . S
C429 C430 1.390 . S
C429 H438 0.930 . S
C430 C426 1.391 . S
C430 C429 1.390 . S
C430 H439 0.930 . S
C431 Eu401 2.825 . S
C431 O416 1.238 . S
C431 O417 1.247 . S
C431 C425 1.507 . S
H432 C405 0.930 . S
H433 C406 0.931 . S
H434 C407 0.930 . S
H435 C408 0.930 . S
H436 C427 0.930 . S
H437 C428 0.931 . S
H438 C429 0.930 . S
H439 C430 0.930 . S
Tb440 C450 2.825 . S
Tb440 O451 2.347 . S
Tb440 O454 2.366 . S
Tb440 O459 2.418 . S
Tb440 O460 2.384 . S
Tb440 O463 2.479 . S
Tb440 O464 2.471 . S
Eu441 O452 2.418 . S
Eu441 O453 2.384 . S
Eu441 O456 2.479 . S
Eu441 O457 2.471 . S
Eu441 O458 2.347 . S
Eu441 O461 2.366 . S
Eu441 C471 2.825 . S
C442 O458 1.259 . S
C442 O459 1.265 . S
C443 O460 1.255 . S
C443 O461 1.265 . S
C444 C446 1.380 . S
C444 C447 1.374 . S
C444 C450 1.507 . S
C445 C446 1.384 . S
C445 C449 1.387 . S
C445 H472 0.930 . S
C446 C444 1.380 . S
C446 C445 1.384 . S
C446 H473 0.931 . S
C447 C444 1.374 . S
C447 C448 1.390 . S
C447 H474 0.930 . S
C448 C447 1.390 . S
C448 C449 1.391 . S
C448 H475 0.930 . S
C449 C445 1.387 . S
C449 C448 1.391 . S
C450 Tb440 2.825 . S
C450 C444 1.507 . S
C450 O463 1.238 . S
C450 O464 1.247 . S
O451 Tb440 2.347 . S
O451 C455 1.259 . S
O452 Eu441 2.418 . S
O452 C455 1.265 . S
O453 Eu441 2.384 . S
O453 C462 1.255 . S
O454 Tb440 2.366 . S
O454 C462 1.265 . S
C455 O451 1.259 . S
C455 O452 1.265 . S
O456 Eu441 2.479 . S
O456 C471 1.238 . S
O457 Eu441 2.471 . S
O457 C471 1.247 . S
O458 Eu441 2.347 . S
O458 C442 1.259 . S
O459 Tb440 2.418 . S
O459 C442 1.265 . S
O460 Tb440 2.384 . S
O460 C443 1.255 . S
O461 Eu441 2.366 . S
O461 C443 1.265 . S
C462 O453 1.255 . S
C462 O454 1.265 . S
O463 Tb440 2.479 . S
O463 C450 1.238 . S
O464 Tb440 2.471 . S
O464 C450 1.247 . S
C465 C468 1.380 . S
C465 C469 1.374 . S
C465 C471 1.507 . S
C466 C467 1.387 . S
C466 C470 1.391 . S
C467 C466 1.387 . S
C467 C468 1.384 . S
C467 H476 0.930 . S
C468 C465 1.380 . S
C468 C467 1.384 . S
C468 H477 0.931 . S
C469 C465 1.374 . S
C469 C470 1.390 . S
C469 H478 0.930 . S
C470 C466 1.391 . S
C470 C469 1.390 . S
C470 H479 0.930 . S
C471 Eu441 2.825 . S
C471 O456 1.238 . S
C471 O457 1.247 . S
C471 C465 1.507 . S
H472 C445 0.930 . S
H473 C446 0.931 . S
H474 C447 0.930 . S
H475 C448 0.930 . S
H476 C467 0.930 . S
H477 C468 0.931 . S
H478 C469 0.930 . S
H479 C470 0.930 . S
C3 C443 2.094 . S
C375 C55 3.225 . S
C83 C335 2.769 . S
C135 C415 2.920 . S
C163 C403 2.869 . S
C203 C455 2.399 . S
C363 C255 3.473 . S
C283 C323 1.668 . S
C123 C175 2.258 . S
C15 C215 2.676 . S
C43 C243 2.428 . S
C295 C95 3.786 . S
C26 C322 3.483 . S
C49 C402 1.239 . S
C462 C106 4.378 . S
C129 C362 1.754 1_554 S
C186 C382 3.487 . S
C342 C226 4.134 1_554 S
C422 C249 1.302 . S
C442 C306 3.169 . S
C2 C146 3.967 . S
C9 C62 2.678 1_545 S
C66 C82 3.689 1_554 S
C142 C89 2.598 1_545 S
C209 C162 1.306 . S
C202 C266 3.072 . S
C262 C289 1.091 . S
C169 C282 2.156 . S
C346 C122 4.068 . S
C222 C369 2.845 . S
C329 C242 1.897 1_455 S
C409 C302 1.738 . S
C182 C466 4.255 . S
C449 C42 1.744 . S
C102 C386 3.494 . S
C426 C22 2.978 1_655 S
