# Generated by pormake.
# Topology sxb, (6)-cn, num edge types: 1
# Building blocks:
#     Node 0, Type 0, BuildingBlock: BETDAH_clean_sbu_0, # of connection points: 6
#     Node 1, Type 0, BuildingBlock: BETDAH_clean_sbu_0, # of connection points: 6
#     Node 2, Type 0, BuildingBlock: BETDAH_clean_sbu_0, # of connection points: 6
#     Node 3, Type 0, BuildingBlock: BETDAH_clean_sbu_0, # of connection points: 6
#     Edge 4, Type (0, 0), BuildingBlock: CIFDUS_clean_linker_0, # of connection points: 2
#     Edge 5, Type (0, 0), BuildingBlock: CIFDUS_clean_linker_0, # of connection points: 2
#     Edge 6, Type (0, 0), BuildingBlock: CIFDUS_clean_linker_0, # of connection points: 2
#     Edge 7, Type (0, 0), BuildingBlock: CIFDUS_clean_linker_0, # of connection points: 2
#     Edge 8, Type (0, 0), BuildingBlock: CIFDUS_clean_linker_0, # of connection points: 2
#     Edge 9, Type (0, 0), BuildingBlock: CIFDUS_clean_linker_0, # of connection points: 2
#     Edge 10, Type (0, 0), BuildingBlock: CIFDUS_clean_linker_0, # of connection points: 2
#     Edge 11, Type (0, 0), BuildingBlock: CIFDUS_clean_linker_0, # of connection points: 2
#     Edge 12, Type (0, 0), BuildingBlock: CIFDUS_clean_linker_0, # of connection points: 2
#     Edge 13, Type (0, 0), BuildingBlock: CIFDUS_clean_linker_0, # of connection points: 2
#     Edge 14, Type (0, 0), BuildingBlock: CIFDUS_clean_linker_0, # of connection points: 2
#     Edge 15, Type (0, 0), BuildingBlock: CIFDUS_clean_linker_0, # of connection points: 2
# Relax obj value: 0.513
# Max RMSD: 0.138
# Mean RMSD: 0.090
data_MOF--net-sxb--node1-BETDAH_clean_sbu_0--edge1-CIFDUS_clean_linker_0
_symmetry_space_group_name_H-M    P1
_symmetry_Int_Tables_number       1
_symmetry_cell_setting            triclinic
loop_
_symmetry_equiv_pos_as_xyz
'x, y, z'
_cell_length_a     15.058248
_cell_length_b     30.937484
_cell_length_c     26.732292
_cell_angle_alpha  92.45481
_cell_angle_beta   95.164563
_cell_angle_gamma 65.016234
loop_
_atom_site_label
_atom_site_type_symbol
_atom_site_fract_x
_atom_site_fract_y
_atom_site_fract_z
_atom_type_partial_charge
Ho0 Ho 1.00526 1.0929 0.00801 0.0
Ho1 Ho 0.17546 0.10583 0.01963 0.0
C2 C 0.98404 0.20332 0.01961 0.0
C3 C 0.82704 0.10205 -0.00434 0.0
C4 C 0.76737 0.11775 0.94781 0.0
C5 C 0.68207 0.11062 0.93741 0.0
C6 C 0.64083 0.11403 0.88801 0.0
C7 C 0.68632 0.12311 0.84823 0.0
C8 C 0.76691 0.13412 0.85933 0.0
C9 C 0.80586 0.13245 0.90906 0.0
C10 C 1.07805 1.0905 0.91695 0.0
C11 C 0.19166 0.99682 0.01567 0.0
C12 C 0.35202 1.09111 0.00382 0.0
C13 C 0.40902 1.05819 0.96527 0.0
C14 C 0.35994 1.04229 0.92671 0.0
C15 C 0.4092 1.01583 0.88631 0.0
C16 C 0.50886 1.0049 0.8836 0.0
C17 C 0.56007 1.0171 0.92467 0.0
C18 C 0.51031 1.0437 0.96517 0.0
C19 C 0.10474 0.11063 0.11136 0.0
O20 O 0.94461 0.17305 0.02584 0.0
O21 O 1.07861 0.18567 0.01207 0.0
O22 O 0.90236 1.06088 -0.00685 0.0
O23 O 0.85086 0.1338 0.01933 0.0
O24 O 1.04217 1.06221 0.9304 0.0
O25 O 1.07264 0.11947 0.95235 0.0
O26 O 0.22567 1.02642 -0.00019 0.0
O27 O 0.10198 1.01596 0.03097 0.0
O28 O 0.33225 1.071 0.04048 0.0
O29 O 0.27495 0.12809 -0.0138 0.0
O30 O 0.14607 0.13672 0.09696 0.0
O31 O 0.10668 1.08097 0.07666 0.0
H32 H 0.65154 0.0992 0.96665 0.0
H33 H 0.57929 0.10462 0.88025 0.0
H34 H 0.80369 0.1406 0.82942 0.0
H35 H 0.87079 0.13906 0.91673 0.0
H36 H 0.28192 1.05276 0.9262 0.0
H37 H 0.36758 1.00759 0.85515 0.0
H38 H 0.63664 1.01012 0.92339 0.0
H39 H 0.54975 1.05504 -0.00514 0.0
Ho40 Ho 0.09291 1.08428 0.51091 0.0
Ho41 Ho 1.05071 0.12884 0.51678 0.0
C42 C 0.86254 0.09906 0.52877 0.0
C43 C 0.13995 0.9942 0.52446 0.0
C44 C 0.09364 0.96244 0.50888 0.0
C45 C 0.12566 0.91884 0.53349 0.0
C46 C 1.0642 0.89544 0.53254 0.0
C47 C 0.96978 0.91586 0.50743 0.0
C48 C 0.94228 0.95714 0.47864 0.0
C49 C 1.00421 0.98023 0.47922 0.0
C50 C 0.08007 1.09603 0.40932 0.0
C51 C 0.28171 0.11289 0.49807 0.0
C52 C 1.0114 0.21804 0.5036 0.0
C53 C 1.06395 0.24657 0.52161 0.0
C54 C 1.05048 0.28665 0.4942 0.0
C55 C 0.11924 0.30596 0.501 0.0
C56 C 0.20219 0.28519 0.53519 0.0
C57 C 0.21105 0.24749 0.56559 0.0
C58 C 0.14227 0.22816 0.55873 0.0
C59 C 1.0499 0.11909 0.61754 0.0
O60 O 0.91784 0.11026 0.49939 0.0
O61 O 0.9147 0.11074 0.49796 0.0
O62 O 0.17392 1.00986 0.48991 0.0
O63 O 0.08876 1.02811 0.55413 0.0
O64 O 0.16271 1.07625 0.43643 0.0
O65 O 1.01155 0.11195 0.43813 0.0
O66 O 0.22613 0.10207 0.52775 0.0
O67 O 0.22949 0.10163 0.52906 0.0
O68 O 0.97251 0.20358 0.53688 0.0
O69 O 1.06016 0.18386 0.47355 0.0
O70 O 0.97126 0.13911 0.58789 0.0
O71 O 0.12266 0.10174 0.59142 0.0
H72 H 0.19453 0.90487 0.55667 0.0
H73 H 0.08794 0.86304 0.55407 0.0
H74 H 0.86991 0.97377 0.45904 0.0
H75 H 0.97858 1.0141 0.46021 0.0
H76 H 0.99085 0.30086 0.4651 0.0
H77 H 0.11042 0.33552 0.47767 0.0
H78 H 0.27465 0.23079 0.592 0.0
H79 H 0.15424 0.1967 0.5797 0.0
Ho80 Ho 0.49967 0.59265 0.00216 0.0
Ho81 Ho 0.67208 0.60552 0.01475 0.0
C82 C 0.48023 0.70323 0.01408 0.0
C83 C 0.31924 0.60597 -0.00688 0.0
C84 C 0.25135 0.63565 0.95253 0.0
C85 C 0.15353 0.64219 0.94637 0.0
C86 C 0.09663 0.66251 0.90212 0.0
C87 C 0.13764 0.67567 0.8631 0.0
C88 C 0.23301 0.67288 0.87145 0.0
C89 C 0.28896 0.65355 0.91614 0.0
C90 C 0.57224 0.59188 0.91178 0.0
C91 C 0.68774 0.4966 0.00939 0.0
C92 C 0.84623 0.59396 -0.00286 0.0
C93 C 0.89507 0.57134 0.95169 0.0
C94 C 0.84243 0.55786 0.91278 0.0
C95 C 0.87658 0.54697 0.86494 0.0
C96 C 0.96559 0.54809 0.85583 0.0
C97 C 1.02337 0.55649 0.89639 0.0
C98 C 0.9878 0.56851 0.94394 0.0
C99 C 0.60117 0.60745 0.10549 0.0
O100 O 0.439 0.67325 0.01712 0.0
O101 O 0.57562 0.68547 0.00877 0.0
O102 O 0.3895 0.56698 0.97759 0.0
O103 O 0.3522 0.62877 0.02649 0.0
O104 O 0.53635 0.5632 0.92437 0.0
O105 O 0.5675 0.6203 0.9478 0.0
O106 O 0.72185 0.52632 -0.00636 0.0
O107 O 0.59757 0.51553 0.02434 0.0
O108 O 0.83035 0.56599 0.02668 0.0
O109 O 0.76867 0.63396 -0.01107 0.0
O110 O 0.64526 0.63322 0.09376 0.0
O111 O 0.60267 0.5791 0.0697 0.0
H112 H 0.12322 0.62894 0.97413 0.0
H113 H 1.0239 0.66318 0.89633 0.0
H114 H 0.2669 0.68184 0.84185 0.0
H115 H 0.36423 0.64942 0.9207 0.0
H116 H 0.77128 0.5593 0.91841 0.0
H117 H 0.82998 0.54159 0.83431 0.0
H118 H 0.09145 0.5587 0.89015 0.0
H119 H 1.02958 0.57857 0.97351 0.0
Ho120 Ho 0.60276 0.58035 0.50592 0.0
Ho121 Ho 0.54911 0.6194 0.5098 0.0
C122 C 0.34594 0.61334 0.50977 0.0
C123 C 0.6941 0.48855 0.5204 0.0
C124 C 0.67346 0.44838 0.5022 0.0
C125 C 0.71596 0.40548 0.52881 0.0
C126 C 0.67819 0.37145 0.52022 0.0
C127 C 0.59735 0.38026 0.48505 0.0
C128 C 0.56107 0.42143 0.45528 0.0
C129 C 0.5987 0.45542 0.46396 0.0
C130 C 0.59095 0.58926 0.40342 0.0
C131 C 0.80564 0.58691 0.50651 0.0
C132 C 0.45576 0.71112 0.49494 0.0
C133 C 0.48028 0.75101 0.50884 0.0
C134 C 0.43179 0.794 0.48268 0.0
C135 C 0.47272 0.82703 0.48465 0.0
C136 C 0.56316 0.8169 0.51233 0.0
C137 C 0.60654 0.77552 0.54197 0.0
C138 C 0.56514 0.74289 0.54034 0.0
C139 C 0.56408 0.60966 0.61231 0.0
O140 O 0.43898 0.58291 0.49994 0.0
O141 O 0.43826 0.585 0.50069 0.0
O142 O 0.71592 0.51105 0.48727 0.0
O143 O 0.62981 0.51779 0.54911 0.0
O144 O 0.66904 0.58093 0.43259 0.0
O145 O 0.52203 0.59729 0.43091 0.0
O146 O 0.71223 0.61743 0.51552 0.0
O147 O 0.71287 0.61528 0.5148 0.0
O148 O 0.44059 0.68919 0.53113 0.0
O149 O 0.5141 0.68135 0.46422 0.0
O150 O 0.48587 0.61671 0.58358 0.0
O151 O 0.63168 0.60284 0.58434 0.0
H152 H 0.77353 0.39977 0.55858 0.0
H153 H 0.70767 0.33979 0.54335 0.0
H154 H 0.49804 0.42937 0.42837 0.0
H155 H 0.56458 0.4887 0.44346 0.0
H156 H 0.36631 0.80049 0.45801 0.0
H157 H 0.43684 0.859 0.46215 0.0
H158 H 0.67679 0.76619 0.56321 0.0
H159 H 0.60379 0.70955 0.5604 0.0
H160 H 0.52508 0.78137 2e-05 0.0
H161 H 0.28647 0.74822 0.03438 0.0
H162 H 0.17826 0.83299 0.0388 0.0
H163 H 0.14737 0.91882 0.03265 0.0
H164 H 0.38507 0.95169 -0.00405 0.0
H165 H 0.49383 0.86699 -0.00703 0.0
C166 C 0.44958 0.79247 0.00864 0.0
C167 C 0.41586 0.75701 0.01701 0.0
C168 C 0.38568 0.84237 0.01076 0.0
C169 C 0.31651 0.7735 0.02776 0.0
C170 C 0.25362 0.82257 0.03033 0.0
C171 C 0.22292 0.90764 0.02407 0.0
C172 C 0.25628 0.94301 0.01466 0.0
C173 C 0.28677 0.8577 0.02188 0.0
C174 C 0.35536 0.92646 0.00341 0.0
C175 C 0.41859 0.87744 0.00168 0.0
H176 H 0.64812 0.41877 0.03348 0.0
H177 H 0.87889 0.45131 -0.01447 0.0
H178 H 0.98946 0.36676 -0.01466 0.0
H179 H 1.02429 0.28133 -0.00193 0.0
H180 H 0.79291 0.24843 0.04439 0.0
H181 H 0.6828 0.33312 0.04578 0.0
C182 C 0.72248 0.40756 0.02293 0.0
C183 C 0.75329 0.44282 0.0095 0.0
C184 C 0.7875 0.35769 0.02258 0.0
C185 C 0.85104 0.4262 -0.00398 0.0
C186 C 0.91534 0.37725 -0.00408 0.0
C187 C 0.95001 0.29248 0.00872 0.0
C188 C 0.91887 0.25711 0.0213 0.0
C189 C 0.88499 0.34231 0.00909 0.0
C190 C 0.82098 0.27364 0.03453 0.0
C191 C 0.75699 0.32266 0.03532 0.0
H192 H 0.28757 0.29386 0.45431 0.0
H193 H 0.30175 0.30633 0.61584 0.0
H194 H 0.43619 0.33099 0.61458 0.0
H195 H 0.53883 0.3552 0.56691 0.0
H196 H 0.52146 0.34495 0.40517 0.0
H197 H 0.39872 0.31268 0.40698 0.0
C198 C 0.31987 0.30229 0.48917 0.0
C199 C 0.28404 0.29937 0.53504 0.0
C200 C 0.39645 0.31641 0.48804 0.0
C201 C 0.328 0.30884 0.58013 0.0
C202 C 0.40464 0.32284 0.57938 0.0
C203 C 0.51026 0.34461 0.53215 0.0
C204 C 0.53911 0.35216 0.48595 0.0
C205 C 0.43836 0.32736 0.53349 0.0
C206 C 0.50001 0.33938 0.44109 0.0
C207 C 0.42969 0.32123 0.44214 0.0
H208 H 0.83623 0.90444 0.43907 0.0
H209 H 0.93599 0.88886 0.59656 0.0
H210 H 0.81057 0.86225 0.61303 0.0
H211 H 0.67589 0.84145 0.58251 0.0
H212 H 0.58063 0.85345 0.42443 0.0
H213 H 0.69692 0.88623 0.40898 0.0
C214 C 0.83011 0.89539 0.47698 0.0
C215 C 0.89613 0.89784 0.51634 0.0
C216 C 0.75728 0.88054 0.48633 0.0
C217 C 0.88765 0.88599 0.56534 0.0
C218 C 0.8152 0.87138 0.57495 0.0
C219 C 0.6803 0.85141 0.54471 0.0
C220 C 0.61998 0.84481 0.50478 0.0
C221 C 0.75014 0.86824 0.53568 0.0
C222 C 0.62512 0.8588 0.45611 0.0
C223 C 0.69272 0.87686 0.44703 0.0
H224 H 0.42495 1.05361 0.79854 0.0
H225 H 0.68845 0.93679 0.85667 0.0
H226 H 0.78778 0.96506 0.81223 0.0
H227 H 0.7951 1.04146 0.80265 0.0
H228 H 0.52792 0.16786 0.77869 0.0
H229 H 0.43608 0.11997 0.75864 0.0
C230 C 0.50385 1.03276 0.7989 0.0
C231 C 0.55057 0.99576 0.83403 0.0
C232 C 0.56017 1.05348 0.77974 0.0
C233 C 0.65151 0.96707 0.83185 0.0
C234 C 0.70844 0.98392 0.80711 0.0
C235 C 0.71762 1.0581 0.7898 0.0
C236 C 0.66566 0.10743 0.79729 0.0
C237 C 0.66397 1.03037 0.78768 0.0
C238 C 0.56808 0.12946 0.7766 0.0
C239 C 0.51509 0.10189 0.76646 0.0
H240 H 0.40994 0.13426 0.4418 0.0
H241 H 0.41018 1.07914 0.58707 0.0
H242 H 0.57946 1.07049 0.6074 0.0
H243 H 0.73429 1.07784 0.58516 0.0
H244 H 0.73378 0.13319 0.43998 0.0
H245 H 0.56442 0.14192 0.41974 0.0
C246 C 0.4461 0.12025 0.47821 0.0
C247 C 0.3914 0.10749 0.51239 0.0
C248 C 0.54707 0.11517 0.4901 0.0
C249 C 0.44491 1.08958 0.55908 0.0
C250 C 0.54395 1.08453 0.57089 0.0
C251 C 0.69807 1.09187 0.54877 0.0
C252 C 0.75277 0.1046 0.51454 0.0
C253 C 0.59702 1.09703 0.53693 0.0
C254 C 0.69911 0.12268 0.46794 0.0
C255 C 0.60005 0.12778 0.45618 0.0
H256 H 0.8526 0.62112 0.79616 0.0
H257 H 0.12313 0.49455 0.80069 0.0
H258 H 0.2069 0.53862 0.76876 0.0
H259 H 0.2173 0.61375 0.78934 0.0
H260 H 0.95624 0.7379 0.81941 0.0
H261 H 0.85448 0.69839 0.7848 0.0
C262 C 0.92841 0.60276 0.78687 0.0
C263 C 0.98422 0.55607 0.80446 0.0
C264 C 0.97864 0.63012 0.77665 0.0
C265 C 0.08016 0.53136 0.78973 0.0
C266 C 0.12857 0.55702 0.77256 0.0
C267 C 0.1378 0.63301 0.78525 0.0
C268 C 0.09363 0.67643 0.81119 0.0
C269 C 0.0817 0.60706 0.77342 0.0
C270 C 0.9917 0.70298 0.80239 0.0
C271 C 0.93353 0.67977 0.78371 0.0
H272 H 0.14777 0.66978 0.5284 0.0
H273 H 0.32954 0.52621 0.48305 0.0
H274 H 0.18556 0.50745 0.47887 0.0
H275 H 1.00363 0.53064 0.48787 0.0
H276 H 0.82164 0.67424 0.53298 0.0
H277 H 0.96563 0.69304 0.53724 0.0
C278 C 0.15705 0.63411 0.51741 0.0
C279 C 0.25445 0.59984 0.50597 0.0
C280 C 1.07115 0.62321 0.51505 0.0
C281 C 0.25965 0.55412 0.49212 0.0
C282 C 0.17548 0.54325 0.48976 0.0
C283 C 0.99429 0.56633 0.49879 0.0
C284 C 0.89687 0.60059 0.51015 0.0
C285 C 0.08013 0.57726 0.50111 0.0
C286 C 0.89156 0.64634 0.52393 0.0
C287 C 0.97574 0.65723 0.52635 0.0
H288 H 0.22205 1.06127 0.34249 0.0
H289 H 0.90958 0.14039 0.3501 0.0
H290 H 0.88777 0.14996 0.25874 0.0
H291 H 0.95854 0.13837 0.17592 0.0
H292 H 0.27087 1.05945 0.16887 0.0
H293 H 0.2917 1.04701 0.25984 0.0
C294 C 0.14915 1.08042 0.32411 0.0
C295 C 1.06764 0.1002 0.35335 0.0
C296 C 0.13708 1.08576 0.27128 0.0
C297 C 0.9737 0.12485 0.32872 0.0
C298 C 0.96113 0.13035 0.27633 0.0
C299 C 1.03077 0.1179 0.19437 0.0
C300 C 0.11303 0.09941 0.16565 0.0
C301 C 1.04229 0.11125 0.2471 0.0
C302 C 0.20644 1.07359 0.19011 0.0
C303 C 0.2184 1.06667 0.2422 0.0
H304 H 0.98524 1.06904 0.83444 0.0
H305 H 0.18847 0.131 0.87886 0.0
H306 H 0.20543 0.14175 0.79024 0.0
H307 H 0.15867 0.13495 0.69897 0.0
H308 H 0.93824 1.08279 0.6572 0.0
H309 H 0.93082 1.06725 0.7453 0.0
C310 C 1.03325 1.08494 0.82477 0.0
C311 C 0.08657 0.0986 0.86331 0.0
C312 C 1.03907 1.09295 0.77387 0.0
C313 C 0.14714 0.11987 0.85 0.0
C314 C 0.15674 0.12604 0.79925 0.0
C315 C 0.10967 0.11992 0.70936 0.0
C316 C 1.0499 0.10943 0.67157 0.0
C317 C 0.10282 0.11283 0.76069 0.0
C318 C 0.98518 1.09093 0.68556 0.0
C319 C 0.98092 1.08203 0.73595 0.0
H320 H 0.52429 0.55239 0.31974 0.0
H321 H 0.6433 0.65352 0.36664 0.0
H322 H 0.65168 0.67018 0.27919 0.0
H323 H 0.63536 0.65279 0.18938 0.0
H324 H 0.52591 0.54857 0.14047 0.0
H325 H 0.5036 0.53637 0.2278 0.0
C326 C 0.55026 0.57864 0.31056 0.0
C327 C 0.58207 0.60216 0.34966 0.0
C328 C 0.55781 0.58707 0.25964 0.0
C329 C 0.61775 0.63526 0.33726 0.0
C330 C 0.62297 0.64467 0.2872 0.0
C331 C 0.6061 0.62756 0.1977 0.0
C332 C 0.58283 0.6015 0.15825 0.0
C333 C 0.5949 0.62025 0.24807 0.0
C334 C 0.54488 0.569 0.17 0.0
C335 C 0.53207 0.56202 0.22005 0.0
H336 H 0.63399 0.64764 0.69422 0.0
H337 H 0.51295 0.54631 0.65193 0.0
H338 H 0.50961 0.53023 0.7401 0.0
H339 H 0.53233 0.54744 0.82915 0.0
H340 H 0.6413 0.65264 0.87425 0.0
H341 H 0.65815 0.66477 0.78588 0.0
C342 C 0.60854 0.62153 0.70456 0.0
C343 C 0.57486 0.59768 0.6665 0.0
C344 C 0.60362 0.61354 0.75598 0.0
C345 C 0.53989 0.5648 0.68043 0.0
C346 C 0.5376 0.5557 0.73091 0.0
C347 C 0.56018 0.57295 0.81981 0.0
C348 C 0.58531 0.59914 0.85845 0.0
C349 C 0.56781 0.5803 0.769 0.0
C350 C 0.62088 0.63216 0.84534 0.0
C351 C 0.63074 0.639 0.79472 0.0
loop_
_geom_bond_atom_site_label_1
_geom_bond_atom_site_label_2
_geom_bond_distance
_geom_bond_site_symmetry_2
_ccdc_geom_bond_type
Ho0 C3 2.811 1_565 S
Ho0 O20 2.322 1_565 S
Ho0 O22 2.378 . S
Ho0 O23 2.524 1_566 S
Ho0 O24 2.381 . S
Ho0 O25 2.682 1_655 S
Ho0 O27 2.346 1_655 S
Ho0 O31 2.305 1_566 S
Ho1 C12 2.811 1_545 S
Ho1 O21 2.346 1_455 S
Ho1 O25 2.293 1_544 S
Ho1 O26 2.322 1_545 S
Ho1 O28 2.378 . S
Ho1 O29 2.524 1_544 S
Ho1 O30 2.381 . S
Ho1 O31 2.669 1_455 S
C2 O20 1.259 . S
C2 O21 1.268 1_556 S
C3 Ho0 2.811 1_545 S
C3 C4 1.488 . S
C3 O22 1.215 1_545 S
C3 O23 1.289 1_556 S
C4 C3 1.488 . S
C4 C5 1.348 1_556 S
C4 C9 1.413 . S
C5 C4 1.348 1_554 S
C5 C6 1.442 . S
C5 H32 0.930 . S
C6 C5 1.442 . S
C6 C7 1.381 1_554 S
C6 H33 0.931 . S
C7 C6 1.381 1_556 S
C7 C8 1.321 . S
C8 C7 1.321 . S
C8 C9 1.403 . S
C8 H34 0.934 . S
C9 C4 1.413 . S
C9 C8 1.403 . S
C9 H35 0.930 . S
C10 O24 1.275 . S
C10 O25 1.262 1_655 S
C11 O26 1.259 . S
C11 O27 1.268 1_554 S
C12 Ho1 2.811 1_565 S
C12 C13 1.488 . S
C12 O28 1.215 1_565 S
C12 O29 1.289 1_554 S
C13 C12 1.488 . S
C13 C14 1.348 1_554 S
C13 C18 1.413 . S
C14 C13 1.348 1_556 S
C14 C15 1.442 . S
C14 H36 0.930 . S
C15 C14 1.442 . S
C15 C16 1.381 1_556 S
C15 H37 0.931 . S
C16 C15 1.381 1_554 S
C16 C17 1.321 . S
C17 C16 1.321 . S
C17 C18 1.403 . S
C17 H38 0.934 . S
C18 C13 1.413 . S
C18 C17 1.403 . S
C18 H39 0.930 . S
C19 O30 1.275 . S
C19 O31 1.256 1_455 S
O20 Ho0 2.322 1_545 S
O20 C2 1.259 . S
O21 Ho1 2.346 1_655 S
O21 C2 1.268 1_554 S
O22 Ho0 2.378 . S
O22 C3 1.215 1_565 S
O23 Ho0 2.524 1_544 S
O23 C3 1.289 1_554 S
O24 Ho0 2.381 . S
O24 C10 1.275 . S
O25 Ho0 2.682 1_455 S
O25 Ho1 2.293 1_566 S
O25 C10 1.262 1_455 S
O26 Ho1 2.322 1_565 S
O26 C11 1.259 . S
O27 Ho0 2.346 1_455 S
O27 C11 1.268 1_556 S
O28 Ho1 2.378 . S
O28 C12 1.215 1_545 S
O29 Ho1 2.524 1_566 S
O29 C12 1.289 1_556 S
O30 Ho1 2.381 . S
O30 C19 1.275 . S
O31 Ho0 2.305 1_544 S
O31 Ho1 2.669 1_655 S
O31 C19 1.256 1_655 S
H32 C5 0.930 . S
H33 C6 0.931 . S
H34 C8 0.934 . S
H35 C9 0.930 . S
H36 C14 0.930 . S
H37 C15 0.931 . S
H38 C17 0.934 . S
H39 C18 0.930 . S
Ho40 C43 2.811 1_455 S
Ho40 O60 2.322 1_455 S
Ho40 O62 2.378 1_455 S
Ho40 O63 2.524 1_455 S
Ho40 O64 2.381 . S
Ho40 O65 2.669 1_565 S
Ho40 O67 2.346 . S
Ho40 O71 2.305 1_455 S
Ho41 C52 2.811 1_655 S
Ho41 O61 2.346 . S
Ho41 O65 2.305 1_655 S
Ho41 O66 2.322 1_655 S
Ho41 O68 2.378 1_655 S
Ho41 O69 2.524 1_655 S
Ho41 O70 2.381 . S
Ho41 O71 2.669 1_545 S
C42 O60 1.259 1_545 S
C42 O61 1.268 . S
C43 Ho40 2.811 1_655 S
C43 C44 1.488 . S
C43 O62 1.215 . S
C43 O63 1.289 . S
C44 C43 1.488 . S
C44 C45 1.348 . S
C44 C49 1.413 . S
C45 C44 1.348 . S
C45 C46 1.442 . S
C45 H72 0.930 . S
C46 C45 1.442 . S
C46 C47 1.381 . S
C46 H73 0.931 . S
C47 C46 1.381 . S
C47 C48 1.321 . S
C48 C47 1.321 . S
C48 C49 1.403 . S
C48 H74 0.934 . S
C49 C44 1.413 . S
C49 C48 1.403 . S
C49 H75 0.930 . S
C50 O64 1.275 . S
C50 O65 1.256 1_565 S
C51 O66 1.259 1_565 S
C51 O67 1.268 . S
C52 Ho41 2.811 1_455 S
C52 C53 1.488 . S
C52 O68 1.215 . S
C52 O69 1.289 . S
C53 C52 1.488 . S
C53 C54 1.348 . S
C53 C58 1.413 . S
C54 C53 1.348 . S
C54 C55 1.442 . S
C54 H76 0.930 . S
C55 C54 1.442 . S
C55 C56 1.381 . S
C55 H77 0.931 . S
C56 C55 1.381 . S
C56 C57 1.321 . S
C57 C56 1.321 . S
C57 C58 1.403 . S
C57 H78 0.934 . S
C58 C53 1.413 . S
C58 C57 1.403 . S
C58 H79 0.930 . S
C59 O70 1.275 . S
C59 O71 1.256 1_545 S
O60 Ho40 2.322 1_655 S
O60 C42 1.259 1_565 S
O61 Ho41 2.346 . S
O61 C42 1.268 . S
O62 Ho40 2.378 1_655 S
O62 C43 1.215 . S
O63 Ho40 2.524 1_655 S
O63 C43 1.289 . S
O64 Ho40 2.381 . S
O64 C50 1.275 . S
O65 Ho40 2.669 1_545 S
O65 Ho41 2.305 1_455 S
O65 C50 1.256 1_545 S
O66 Ho41 2.322 1_455 S
O66 C51 1.259 1_545 S
O67 Ho40 2.346 . S
O67 C51 1.268 . S
O68 Ho41 2.378 1_455 S
O68 C52 1.215 . S
O69 Ho41 2.524 1_455 S
O69 C52 1.289 . S
O70 Ho41 2.381 . S
O70 C59 1.275 . S
O71 Ho40 2.305 1_655 S
O71 Ho41 2.669 1_565 S
O71 C59 1.256 1_565 S
H72 C45 0.930 . S
H73 C46 0.931 . S
H74 C48 0.934 . S
H75 C49 0.930 . S
H76 C54 0.930 . S
H77 C55 0.931 . S
H78 C57 0.934 . S
H79 C58 0.930 . S
Ho80 C83 2.811 . S
Ho80 O100 2.322 . S
Ho80 O102 2.378 . S
Ho80 O103 2.524 1_556 S
Ho80 O104 2.381 . S
Ho80 O105 2.669 . S
Ho80 O107 2.346 . S
Ho80 O111 2.305 1_556 S
Ho81 C92 2.811 . S
Ho81 O101 2.346 . S
Ho81 O105 2.305 1_554 S
Ho81 O106 2.322 . S
Ho81 O108 2.378 . S
Ho81 O109 2.524 1_554 S
Ho81 O110 2.381 . S
Ho81 O111 2.669 . S
C82 O100 1.259 . S
C82 O101 1.268 1_556 S
C83 Ho80 2.811 . S
C83 C84 1.488 . S
C83 O102 1.215 . S
C83 O103 1.289 1_556 S
C84 C83 1.488 . S
C84 C85 1.348 1_556 S
C84 C89 1.413 . S
C85 C84 1.348 1_554 S
C85 C86 1.442 . S
C85 H112 0.930 . S
C86 C85 1.442 . S
C86 C87 1.381 1_554 S
C86 H113 0.931 . S
C87 C86 1.381 1_556 S
C87 C88 1.321 . S
C88 C87 1.321 . S
C88 C89 1.403 . S
C88 H114 0.934 . S
C89 C84 1.413 . S
C89 C88 1.403 . S
C89 H115 0.930 . S
C90 O104 1.275 . S
C90 O105 1.256 . S
C91 O106 1.259 . S
C91 O107 1.268 1_554 S
C92 Ho81 2.811 . S
C92 C93 1.488 . S
C92 O108 1.215 . S
C92 O109 1.289 1_554 S
C93 C92 1.488 . S
C93 C94 1.348 1_554 S
C93 C98 1.413 . S
C94 C93 1.348 1_556 S
C94 C95 1.442 . S
C94 H116 0.930 . S
C95 C94 1.442 . S
C95 C96 1.381 1_556 S
C95 H117 0.931 . S
C96 C95 1.381 1_554 S
C96 C97 1.321 . S
C97 C96 1.321 . S
C97 C98 1.403 . S
C97 H118 0.934 . S
C98 C93 1.413 . S
C98 C97 1.403 . S
C98 H119 0.930 . S
C99 O110 1.275 . S
C99 O111 1.256 . S
O100 Ho80 2.322 . S
O100 C82 1.259 . S
O101 Ho81 2.346 . S
O101 C82 1.268 1_554 S
O102 Ho80 2.378 . S
O102 C83 1.215 . S
O103 Ho80 2.524 1_554 S
O103 C83 1.289 1_554 S
O104 Ho80 2.381 . S
O104 C90 1.275 . S
O105 Ho80 2.669 . S
O105 Ho81 2.305 1_556 S
O105 C90 1.256 . S
O106 Ho81 2.322 . S
O106 C91 1.259 . S
O107 Ho80 2.346 . S
O107 C91 1.268 1_556 S
O108 Ho81 2.378 . S
O108 C92 1.215 . S
O109 Ho81 2.524 1_556 S
O109 C92 1.289 1_556 S
O110 Ho81 2.381 . S
O110 C99 1.275 . S
O111 Ho80 2.305 1_554 S
O111 Ho81 2.669 . S
O111 C99 1.256 . S
H112 C85 0.930 . S
H113 C86 0.931 . S
H114 C88 0.934 . S
H115 C89 0.930 . S
H116 C94 0.930 . S
H117 C95 0.931 . S
H118 C97 0.934 . S
H119 C98 0.930 . S
Ho120 C123 2.811 . S
Ho120 O140 2.322 . S
Ho120 O142 2.378 . S
Ho120 O143 2.524 . S
Ho120 O144 2.381 . S
Ho120 O145 2.669 . S
Ho120 O147 2.346 . S
Ho120 O151 2.305 . S
Ho121 C132 2.811 . S
Ho121 O141 2.346 . S
Ho121 O145 2.305 . S
Ho121 O146 2.322 . S
Ho121 O148 2.378 . S
Ho121 O149 2.524 . S
Ho121 O150 2.381 . S
Ho121 O151 2.669 . S
C122 O140 1.259 . S
C122 O141 1.268 . S
C123 Ho120 2.811 . S
C123 C124 1.488 . S
C123 O142 1.215 . S
C123 O143 1.289 . S
C124 C123 1.488 . S
C124 C125 1.348 . S
C124 C129 1.413 . S
C125 C124 1.348 . S
C125 C126 1.442 . S
C125 H152 0.930 . S
C126 C125 1.442 . S
C126 C127 1.381 . S
C126 H153 0.931 . S
C127 C126 1.381 . S
C127 C128 1.321 . S
C128 C127 1.321 . S
C128 C129 1.403 . S
C128 H154 0.934 . S
C129 C124 1.413 . S
C129 C128 1.403 . S
C129 H155 0.930 . S
C130 O144 1.275 . S
C130 O145 1.256 . S
C131 O146 1.259 . S
C131 O147 1.268 . S
C132 Ho121 2.811 . S
C132 C133 1.488 . S
C132 O148 1.215 . S
C132 O149 1.289 . S
C133 C132 1.488 . S
C133 C134 1.348 . S
C133 C138 1.413 . S
C134 C133 1.348 . S
C134 C135 1.442 . S
C134 H156 0.930 . S
C135 C134 1.442 . S
C135 C136 1.381 . S
C135 H157 0.931 . S
C136 C135 1.381 . S
C136 C137 1.321 . S
C137 C136 1.321 . S
C137 C138 1.403 . S
C137 H158 0.934 . S
C138 C133 1.413 . S
C138 C137 1.403 . S
C138 H159 0.930 . S
C139 O150 1.275 . S
C139 O151 1.256 . S
O140 Ho120 2.322 . S
O140 C122 1.259 . S
O141 Ho121 2.346 . S
O141 C122 1.268 . S
O142 Ho120 2.378 . S
O142 C123 1.215 . S
O143 Ho120 2.524 . S
O143 C123 1.289 . S
O144 Ho120 2.381 . S
O144 C130 1.275 . S
O145 Ho120 2.669 . S
O145 Ho121 2.305 . S
O145 C130 1.256 . S
O146 Ho121 2.322 . S
O146 C131 1.259 . S
O147 Ho120 2.346 . S
O147 C131 1.268 . S
O148 Ho121 2.378 . S
O148 C132 1.215 . S
O149 Ho121 2.524 . S
O149 C132 1.289 . S
O150 Ho121 2.381 . S
O150 C139 1.275 . S
O151 Ho120 2.305 . S
O151 Ho121 2.669 . S
O151 C139 1.256 . S
H152 C125 0.930 . S
H153 C126 0.931 . S
H154 C128 0.934 . S
H155 C129 0.930 . S
H156 C134 0.930 . S
H157 C135 0.931 . S
H158 C137 0.934 . S
H159 C138 0.930 . S
H160 C166 0.930 . S
H161 C169 0.930 . S
H162 C170 0.930 . S
H163 C171 0.930 . S
H164 C174 0.930 . S
H165 C175 0.930 . S
C166 H160 0.930 . S
C166 C167 1.359 . S
C166 C168 1.415 . S
C167 C166 1.359 . S
C167 C169 1.414 1_554 S
C168 C166 1.415 . S
C168 C173 1.425 1_554 S
C168 C175 1.409 . S
C169 H161 0.930 . S
C169 C167 1.414 1_556 S
C169 C170 1.362 . S
C170 H162 0.930 . S
C170 C169 1.362 . S
C170 C173 1.409 . S
C171 H163 0.930 . S
C171 C172 1.357 . S
C171 C173 1.415 . S
C172 C171 1.357 . S
C172 C174 1.416 1_556 S
C173 C168 1.425 1_556 S
C173 C170 1.409 . S
C173 C171 1.415 . S
C174 H164 0.930 . S
C174 C172 1.416 1_554 S
C174 C175 1.362 . S
C175 H165 0.930 . S
C175 C168 1.409 . S
C175 C174 1.362 . S
H176 C182 0.930 . S
H177 C185 0.930 . S
H178 C186 0.930 . S
H179 C187 0.930 . S
H180 C190 0.930 . S
H181 C191 0.930 . S
C182 H176 0.930 . S
C182 C183 1.355 1_556 S
C182 C184 1.415 . S
C183 C182 1.355 1_554 S
C183 C185 1.419 . S
C184 C182 1.415 . S
C184 C189 1.425 1_556 S
C184 C191 1.409 . S
C185 H177 0.930 . S
C185 C183 1.419 . S
C185 C186 1.362 . S
C186 H178 0.930 . S
C186 C185 1.362 . S
C186 C189 1.409 . S
C187 H179 0.930 . S
C187 C188 1.355 1_554 S
C187 C189 1.415 . S
C188 C187 1.355 1_556 S
C188 C190 1.419 . S
C189 C184 1.425 1_554 S
C189 C186 1.409 . S
C189 C187 1.415 . S
C190 H180 0.930 . S
C190 C188 1.419 . S
C190 C191 1.362 . S
C191 H181 0.930 . S
C191 C184 1.409 . S
C191 C190 1.362 . S
H192 C198 0.930 . S
H193 C201 0.930 . S
H194 C202 0.930 . S
H195 C203 0.930 . S
H196 C206 0.930 . S
H197 C207 0.930 . S
C198 H192 0.930 . S
C198 C199 1.355 . S
C198 C200 1.415 . S
C199 C198 1.355 . S
C199 C201 1.419 . S
C200 C198 1.415 . S
C200 C205 1.425 . S
C200 C207 1.409 . S
C201 H193 0.930 . S
C201 C199 1.419 . S
C201 C202 1.362 . S
C202 H194 0.930 . S
C202 C201 1.362 . S
C202 C205 1.409 . S
C203 H195 0.930 . S
C203 C204 1.355 . S
C203 C205 1.415 . S
C204 C203 1.355 . S
C204 C206 1.419 . S
C205 C200 1.425 . S
C205 C202 1.409 . S
C205 C203 1.415 . S
C206 H196 0.930 . S
C206 C204 1.419 . S
C206 C207 1.362 . S
C207 H197 0.930 . S
C207 C200 1.409 . S
C207 C206 1.362 . S
H208 C214 0.930 . S
H209 C217 0.930 . S
H210 C218 0.930 . S
H211 C219 0.930 . S
H212 C222 0.930 . S
H213 C223 0.930 . S
C214 H208 0.930 . S
C214 C215 1.355 . S
C214 C216 1.415 . S
C215 C214 1.355 . S
C215 C217 1.419 . S
C216 C214 1.415 . S
C216 C221 1.425 . S
C216 C223 1.409 . S
C217 H209 0.930 . S
C217 C215 1.419 . S
C217 C218 1.362 . S
C218 H210 0.930 . S
C218 C217 1.362 . S
C218 C221 1.409 . S
C219 H211 0.930 . S
C219 C220 1.355 . S
C219 C221 1.415 . S
C220 C219 1.355 . S
C220 C222 1.419 . S
C221 C216 1.425 . S
C221 C218 1.409 . S
C221 C219 1.415 . S
C222 H212 0.930 . S
C222 C220 1.419 . S
C222 C223 1.362 . S
C223 H213 0.930 . S
C223 C216 1.409 . S
C223 C222 1.362 . S
H224 C230 0.930 . S
H225 C233 0.930 . S
H226 C234 0.930 . S
H227 C235 0.930 . S
H228 C238 0.930 . S
H229 C239 0.930 . S
C230 H224 0.930 . S
C230 C231 1.355 1_556 S
C230 C232 1.415 . S
C231 C230 1.355 1_554 S
C231 C233 1.419 . S
C232 C230 1.415 . S
C232 C237 1.425 1_566 S
C232 C239 1.409 1_565 S
C233 H225 0.930 . S
C233 C231 1.419 . S
C233 C234 1.362 . S
C234 H226 0.930 . S
C234 C233 1.362 . S
C234 C237 1.409 1_565 S
C235 H227 0.930 . S
C235 C236 1.355 1_554 S
C235 C237 1.415 . S
C236 C235 1.355 1_556 S
C236 C238 1.419 . S
C237 C232 1.425 1_544 S
C237 C234 1.409 1_545 S
C237 C235 1.415 . S
C238 H228 0.930 . S
C238 C236 1.419 . S
C238 C239 1.362 . S
C239 H229 0.930 . S
C239 C232 1.409 1_545 S
C239 C238 1.362 . S
H240 C246 0.930 . S
H241 C249 0.930 . S
H242 C250 0.930 . S
H243 C251 0.930 . S
H244 C254 0.930 . S
H245 C255 0.930 . S
C246 H240 0.930 . S
C246 C247 1.355 1_545 S
C246 C248 1.415 . S
C247 C246 1.355 1_565 S
C247 C249 1.419 . S
C248 C246 1.415 . S
C248 C253 1.425 1_545 S
C248 C255 1.409 . S
C249 H241 0.930 . S
C249 C247 1.419 . S
C249 C250 1.362 . S
C250 H242 0.930 . S
C250 C249 1.362 . S
C250 C253 1.409 . S
C251 H243 0.930 . S
C251 C252 1.355 1_565 S
C251 C253 1.415 . S
C252 C251 1.355 1_545 S
C252 C254 1.419 . S
C253 C248 1.425 1_565 S
C253 C250 1.409 . S
C253 C251 1.415 . S
C254 H244 0.930 . S
C254 C252 1.419 . S
C254 C255 1.362 . S
C255 H245 0.930 . S
C255 C248 1.409 . S
C255 C254 1.362 . S
H256 C262 0.930 . S
H257 C265 0.930 . S
H258 C266 0.930 . S
H259 C267 0.930 . S
H260 C270 0.930 . S
H261 C271 0.930 . S
C262 H256 0.930 . S
C262 C263 1.355 1_554 S
C262 C264 1.415 1_655 S
C263 C262 1.355 1_556 S
C263 C265 1.419 . S
C264 C262 1.415 1_455 S
C264 C269 1.425 1_454 S
C264 C271 1.409 . S
C265 H257 0.930 . S
C265 C263 1.419 . S
C265 C266 1.362 . S
C266 H258 0.930 . S
C266 C265 1.362 . S
C266 C269 1.409 . S
C267 H259 0.930 . S
C267 C268 1.355 1_556 S
C267 C269 1.415 1_455 S
C268 C267 1.355 1_554 S
C268 C270 1.419 . S
C269 C264 1.425 1_656 S
C269 C266 1.409 . S
C269 C267 1.415 1_655 S
C270 H260 0.930 . S
C270 C268 1.419 . S
C270 C271 1.362 . S
C271 H261 0.930 . S
C271 C264 1.409 . S
C271 C270 1.362 . S
H272 C278 0.930 . S
H273 C281 0.930 . S
H274 C282 0.930 . S
H275 C283 0.930 . S
H276 C286 0.930 . S
H277 C287 0.930 . S
C278 H272 0.930 . S
C278 C279 1.355 . S
C278 C280 1.415 . S
C279 C278 1.355 . S
C279 C281 1.419 . S
C280 C278 1.415 . S
C280 C285 1.425 1_455 S
C280 C287 1.409 1_455 S
C281 H273 0.930 . S
C281 C279 1.419 . S
C281 C282 1.362 . S
C282 H274 0.930 . S
C282 C281 1.362 . S
C282 C285 1.409 1_455 S
C283 H275 0.930 . S
C283 C284 1.355 . S
C283 C285 1.415 . S
C284 C283 1.355 . S
C284 C286 1.419 . S
C285 C280 1.425 1_655 S
C285 C282 1.409 1_655 S
C285 C283 1.415 . S
C286 H276 0.930 . S
C286 C284 1.419 . S
C286 C287 1.362 . S
C287 H277 0.930 . S
C287 C280 1.409 1_655 S
C287 C286 1.362 . S
H288 C294 0.930 . S
H289 C297 0.938 . S
H290 C298 0.930 . S
H291 C299 0.930 . S
H292 C302 0.930 . S
H293 C303 0.930 . S
C294 H288 0.930 . S
C294 C295 1.355 1_455 S
C294 C296 1.415 . S
C295 C294 1.355 1_655 S
C295 C297 1.411 1_545 S
C296 C294 1.415 . S
C296 C301 1.425 1_455 S
C296 C303 1.409 . S
C297 H289 0.938 . S
C297 C295 1.411 1_565 S
C297 C298 1.363 . S
C298 H290 0.930 . S
C298 C297 1.363 . S
C298 C301 1.409 1_565 S
C299 H291 0.930 . S
C299 C300 1.355 1_665 S
C299 C301 1.415 1_565 S
C300 C299 1.355 1_445 S
C300 C302 1.419 . S
C301 C296 1.425 1_655 S
C301 C298 1.409 1_545 S
C301 C299 1.415 1_545 S
C302 H292 0.930 . S
C302 C300 1.419 . S
C302 C303 1.362 . S
C303 H293 0.930 . S
C303 C296 1.409 . S
C303 C302 1.362 . S
H304 C310 0.930 . S
H305 C313 0.930 . S
H306 C314 0.930 . S
H307 C315 0.930 . S
H308 C318 0.930 . S
H309 C319 0.930 . S
C310 H304 0.930 . S
C310 C311 1.355 1_665 S
C310 C312 1.415 . S
C311 C310 1.355 1_445 S
C311 C313 1.419 . S
C312 C310 1.415 . S
C312 C317 1.425 1_665 S
C312 C319 1.409 . S
C313 H305 0.930 . S
C313 C311 1.419 . S
C313 C314 1.362 . S
C314 H306 0.930 . S
C314 C313 1.362 . S
C314 C317 1.409 . S
C315 H307 0.930 . S
C315 C316 1.355 1_445 S
C315 C317 1.415 . S
C316 C315 1.355 1_665 S
C316 C318 1.419 . S
C317 C312 1.425 1_445 S
C317 C314 1.409 . S
C317 C315 1.415 . S
C318 H308 0.930 . S
C318 C316 1.419 . S
C318 C319 1.362 . S
C319 H309 0.930 . S
C319 C312 1.409 . S
C319 C318 1.362 . S
H320 C326 0.930 . S
H321 C329 0.930 . S
H322 C330 0.930 . S
H323 C331 0.930 . S
H324 C334 0.930 . S
H325 C335 0.930 . S
C326 H320 0.930 . S
C326 C327 1.355 . S
C326 C328 1.415 . S
C327 C326 1.355 . S
C327 C329 1.419 . S
C328 C326 1.415 . S
C328 C333 1.425 . S
C328 C335 1.409 . S
C329 H321 0.930 . S
C329 C327 1.419 . S
C329 C330 1.362 . S
C330 H322 0.930 . S
C330 C329 1.362 . S
C330 C333 1.409 . S
C331 H323 0.930 . S
C331 C332 1.355 . S
C331 C333 1.415 . S
C332 C331 1.355 . S
C332 C334 1.419 . S
C333 C328 1.425 . S
C333 C330 1.409 . S
C333 C331 1.415 . S
C334 H324 0.930 . S
C334 C332 1.419 . S
C334 C335 1.362 . S
C335 H325 0.930 . S
C335 C328 1.409 . S
C335 C334 1.362 . S
H336 C342 0.930 . S
H337 C345 0.930 . S
H338 C346 0.930 . S
H339 C347 0.930 . S
H340 C350 0.930 . S
H341 C351 0.930 . S
C342 H336 0.930 . S
C342 C343 1.355 . S
C342 C344 1.415 . S
C343 C342 1.355 . S
C343 C345 1.419 . S
C344 C342 1.415 . S
C344 C349 1.425 . S
C344 C351 1.409 . S
C345 H337 0.930 . S
C345 C343 1.419 . S
C345 C346 1.362 . S
C346 H338 0.930 . S
C346 C345 1.362 . S
C346 C349 1.409 . S
C347 H339 0.930 . S
C347 C348 1.355 . S
C347 C349 1.415 . S
C348 C347 1.355 . S
C348 C350 1.419 . S
C349 C344 1.425 . S
C349 C346 1.409 . S
C349 C347 1.415 . S
C350 H340 0.930 . S
C350 C348 1.419 . S
C350 C351 1.362 . S
C351 H341 0.930 . S
C351 C344 1.409 . S
C351 C350 1.362 . S
C167 C82 3.634 1_554 S
C172 C11 3.634 1_556 S
C183 C91 3.632 . S
C188 C2 3.632 . S
C199 C56 0.299 . S
C204 C127 0.299 . S
C215 C47 0.214 . S
C220 C136 0.215 . S
C231 C16 0.944 . S
C236 C7 0.944 . S
C247 C51 4.872 . S
C252 C42 4.872 . S
C263 C96 0.875 1_556 S
C268 C87 0.875 1_554 S
C279 C122 4.876 . S
C284 C131 4.876 . S
C295 C50 1.460 1_645 S
C300 C19 1.431 . S
C311 C10 1.485 1_445 S
C316 C59 1.480 1_565 S
C327 C130 1.480 . S
C332 C99 1.482 . S
C343 C139 1.474 . S
C348 C90 1.489 . S
