# Generated by pormake.
# Topology ske, (6)-cn, num edge types: 1
# Building blocks:
#     Node 0, Type 0, BuildingBlock: INOVEN_clean_sbu_0, # of connection points: 6
#     Node 1, Type 0, BuildingBlock: INOVEN_clean_sbu_0, # of connection points: 6
#     Node 2, Type 0, BuildingBlock: INOVEN_clean_sbu_0, # of connection points: 6
#     Node 3, Type 0, BuildingBlock: INOVEN_clean_sbu_0, # of connection points: 6
#     Node 4, Type 0, BuildingBlock: INOVEN_clean_sbu_0, # of connection points: 6
#     Node 5, Type 0, BuildingBlock: INOVEN_clean_sbu_0, # of connection points: 6
#     Node 6, Type 0, BuildingBlock: INOVEN_clean_sbu_0, # of connection points: 6
#     Node 7, Type 0, BuildingBlock: INOVEN_clean_sbu_0, # of connection points: 6
#     Edge 8, Type (0, 0), BuildingBlock: XUDNAN_clean_linker_2, # of connection points: 2
#     Edge 9, Type (0, 0), BuildingBlock: XUDNAN_clean_linker_2, # of connection points: 2
#     Edge 10, Type (0, 0), BuildingBlock: XUDNAN_clean_linker_2, # of connection points: 2
#     Edge 11, Type (0, 0), BuildingBlock: XUDNAN_clean_linker_2, # of connection points: 2
#     Edge 12, Type (0, 0), BuildingBlock: XUDNAN_clean_linker_2, # of connection points: 2
#     Edge 13, Type (0, 0), BuildingBlock: XUDNAN_clean_linker_2, # of connection points: 2
#     Edge 14, Type (0, 0), BuildingBlock: XUDNAN_clean_linker_2, # of connection points: 2
#     Edge 15, Type (0, 0), BuildingBlock: XUDNAN_clean_linker_2, # of connection points: 2
#     Edge 16, Type (0, 0), BuildingBlock: XUDNAN_clean_linker_2, # of connection points: 2
#     Edge 17, Type (0, 0), BuildingBlock: XUDNAN_clean_linker_2, # of connection points: 2
#     Edge 18, Type (0, 0), BuildingBlock: XUDNAN_clean_linker_2, # of connection points: 2
#     Edge 19, Type (0, 0), BuildingBlock: XUDNAN_clean_linker_2, # of connection points: 2
#     Edge 20, Type (0, 0), BuildingBlock: XUDNAN_clean_linker_2, # of connection points: 2
#     Edge 21, Type (0, 0), BuildingBlock: XUDNAN_clean_linker_2, # of connection points: 2
#     Edge 22, Type (0, 0), BuildingBlock: XUDNAN_clean_linker_2, # of connection points: 2
#     Edge 23, Type (0, 0), BuildingBlock: XUDNAN_clean_linker_2, # of connection points: 2
#     Edge 24, Type (0, 0), BuildingBlock: XUDNAN_clean_linker_2, # of connection points: 2
#     Edge 25, Type (0, 0), BuildingBlock: XUDNAN_clean_linker_2, # of connection points: 2
#     Edge 26, Type (0, 0), BuildingBlock: XUDNAN_clean_linker_2, # of connection points: 2
#     Edge 27, Type (0, 0), BuildingBlock: XUDNAN_clean_linker_2, # of connection points: 2
#     Edge 28, Type (0, 0), BuildingBlock: XUDNAN_clean_linker_2, # of connection points: 2
#     Edge 29, Type (0, 0), BuildingBlock: XUDNAN_clean_linker_2, # of connection points: 2
#     Edge 30, Type (0, 0), BuildingBlock: XUDNAN_clean_linker_2, # of connection points: 2
#     Edge 31, Type (0, 0), BuildingBlock: XUDNAN_clean_linker_2, # of connection points: 2
# Relax obj value: 0.200
# Max RMSD: 0.209
# Mean RMSD: 0.202
data_MOF--net-ske--node1-INOVEN_clean_sbu_0--edge1-XUDNAN_clean_linker_2
_symmetry_space_group_name_H-M    P1
_symmetry_Int_Tables_number       1
_symmetry_cell_setting            triclinic
loop_
_symmetry_equiv_pos_as_xyz
'x, y, z'
_cell_length_a     101.64552
_cell_length_b     29.105206
_cell_length_c     15.490522
_cell_angle_alpha  90.038881
_cell_angle_beta   89.894601
_cell_angle_gamma 82.504607
loop_
_atom_site_label
_atom_site_type_symbol
_atom_site_fract_x
_atom_site_fract_y
_atom_site_fract_z
_atom_type_partial_charge
Gd0 Gd 0.1646 0.25414 0.49364 0.0
Gd1 Gd 0.13614 0.25038 0.50405 0.0
C2 C 0.15115 0.24324 0.68009 0.0
C3 C 0.18904 0.27059 0.50453 0.0
C4 C 0.201 0.26957 0.55962 0.0
C5 C 0.21067 0.23022 0.56146 0.0
C6 C 0.20383 0.31043 0.59969 0.0
C7 C 0.22622 0.27434 0.63372 0.0
C8 C 0.21626 0.31272 0.63656 0.0
C9 C 0.22314 0.23253 0.59851 0.0
C10 C 0.1581 0.16707 0.47717 0.0
C11 C 0.14997 0.25252 0.31573 0.0
C12 C 0.11181 0.23266 0.49333 0.0
C13 C 0.0983 0.24555 0.45869 0.0
C14 C 0.09175 0.29094 0.46563 0.0
C15 C 0.09115 0.2102 0.43053 0.0
C16 C 0.07067 0.26382 0.43039 0.0
C17 C 0.07745 0.21921 0.41631 0.0
C18 C 0.07808 0.29998 0.45129 0.0
C19 C 0.14307 0.33801 0.5115 0.0
O20 O 0.16039 0.26241 0.63838 0.0
O21 O 0.14181 0.22593 0.63687 0.0
O22 O 0.18561 0.23115 0.47865 0.0
O23 O 0.17884 0.30182 0.52028 0.0
O24 O 0.167 0.18387 0.43159 0.0
O25 O 0.15305 0.19661 0.53155 0.0
O26 O 0.14043 0.23771 0.36189 0.0
O27 O 0.15988 0.2695 0.35374 0.0
O28 O 0.11601 0.25954 0.552 0.0
O29 O 0.12119 0.21457 0.44111 0.0
O30 O 0.13375 0.32388 0.55732 0.0
O31 O 0.1477 0.30626 0.46089 0.0
H32 H 0.20888 0.19828 0.53038 0.0
H33 H 0.19668 0.34145 0.59892 0.0
H34 H 0.21825 0.34522 0.66455 0.0
H35 H 0.23061 0.20242 0.59494 0.0
H36 H 0.09703 0.31894 0.48674 0.0
H37 H 0.096 0.1749 0.42494 0.0
H38 H 0.07206 0.19059 0.40054 0.0
H39 H 0.07316 0.33492 0.46105 0.0
Gd40 Gd 0.87901 0.26098 0.4949 0.0
Gd41 Gd 0.90858 0.2546 0.50447 0.0
C42 C 0.89363 0.2564 0.68308 0.0
C43 C 0.85429 0.24761 0.5062 0.0
C44 C 0.84164 0.25804 0.55484 0.0
C45 C 0.83241 0.29611 0.53108 0.0
C46 C 0.8379 0.22709 0.61738 0.0
C47 C 0.81599 0.27221 0.63087 0.0
C48 C 0.82523 0.23416 0.65515 0.0
C49 C 0.81979 0.30303 0.56835 0.0
C50 C 0.88835 0.34437 0.49475 0.0
C51 C 0.89453 0.25508 0.3162 0.0
C52 C 0.93337 0.26647 0.49842 0.0
C53 C 0.94635 0.2658 0.45449 0.0
C54 C 0.95534 0.22469 0.44893 0.0
C55 C 0.95091 0.30814 0.43513 0.0
C56 C 0.97349 0.26942 0.4205 0.0
C57 C 0.96433 0.30992 0.41842 0.0
C58 C 0.96882 0.22651 0.43167 0.0
C59 C 0.89896 0.1723 0.51148 0.0
O60 O 0.88285 0.25025 0.63899 0.0
O61 O 0.90455 0.26544 0.64472 0.0
O62 O 0.85842 0.28119 0.46184 0.0
O63 O 0.86402 0.21986 0.54093 0.0
O64 O 0.87802 0.33546 0.45241 0.0
O65 O 0.89257 0.30984 0.5404 0.0
O66 O 0.90517 0.26249 0.3604 0.0
O67 O 0.88355 0.24664 0.35494 0.0
O68 O 0.92928 0.22723 0.51974 0.0
O69 O 0.9237 0.29945 0.48064 0.0
O70 O 0.90894 0.18218 0.55647 0.0
O71 O 0.89501 0.20532 0.46149 0.0
H72 H 0.83479 0.32004 0.48165 0.0
H73 H 0.84467 0.19688 0.63596 0.0
H74 H 0.82271 0.20985 0.70339 0.0
H75 H 0.81288 0.3321 0.54622 0.0
H76 H 0.95219 0.1915 0.46427 0.0
H77 H 0.9443 0.34042 0.43982 0.0
H78 H 0.96774 0.34343 0.41043 0.0
H79 H 0.97573 0.19489 0.43461 0.0
Gd80 Gd 0.13354 0.75877 0.54097 0.0
Gd81 Gd 0.16312 0.75305 0.5497 0.0
C82 C 0.14766 0.76106 0.72907 0.0
C83 C 0.10903 0.74362 0.54865 0.0
C84 C 0.09605 0.75149 0.59354 0.0
C85 C 0.08729 0.79236 0.57909 0.0
C86 C 0.09145 0.71501 0.63933 0.0
C87 C 0.06945 0.75865 0.64924 0.0
C88 C 0.07825 0.71862 0.66716 0.0
C89 C 0.07409 0.79581 0.60656 0.0
C90 C 0.14228 0.84221 0.53148 0.0
C91 C 0.14859 0.75642 0.36228 0.0
C92 C 0.18783 0.76608 0.53827 0.0
C93 C 0.20038 0.75764 0.48863 0.0
C94 C 0.20818 0.71405 0.4897 0.0
C95 C 0.20561 0.79524 0.45074 0.0
C96 C 0.22667 0.74701 0.42439 0.0
C97 C 0.21861 0.78997 0.41859 0.0
C98 C 0.22116 0.70882 0.45778 0.0
C99 C 0.15376 0.66928 0.54952 0.0
O100 O 0.13689 0.75486 0.68523 0.0
O101 O 0.15887 0.76695 0.69019 0.0
O102 O 0.11302 0.77859 0.50775 0.0
O103 O 0.11876 0.7158 0.58346 0.0
O104 O 0.13203 0.83146 0.49055 0.0
O105 O 0.14706 0.80948 0.58037 0.0
O106 O 0.15932 0.76375 0.40571 0.0
O107 O 0.13792 0.74566 0.40156 0.0
O108 O 0.18376 0.7311 0.57875 0.0
O109 O 0.17809 0.79516 0.50713 0.0
O110 O 0.16389 0.67832 0.59395 0.0
O111 O 0.14963 0.70404 0.50435 0.0
H112 H 0.09042 0.82091 0.54302 0.0
H113 H 0.09788 0.68282 0.65005 0.0
H114 H 0.07477 0.68947 0.69946 0.0
H115 H 0.06737 0.82684 0.59181 0.0
H116 H 0.2045 0.68434 0.51859 0.0
H117 H 0.19989 0.82936 0.44992 0.0
H118 H 0.22257 0.82013 0.39374 0.0
H119 H 0.22705 0.67507 0.46177 0.0
Gd120 Gd 0.90862 0.75797 0.54228 0.0
Gd121 Gd 0.87934 0.75799 0.55305 0.0
C122 C 0.89459 0.75336 0.73083 0.0
C123 C 0.93292 0.77587 0.5474 0.0
C124 C 0.94605 0.7681 0.59021 0.0
C125 C 0.95541 0.73031 0.56618 0.0
C126 C 0.95007 0.80223 0.64477 0.0
C127 C 0.97276 0.76288 0.64468 0.0
C128 C 0.96327 0.79958 0.67196 0.0
C129 C 0.96859 0.72769 0.59325 0.0
C130 C 0.90093 0.67217 0.54079 0.0
C131 C 0.89351 0.75442 0.3657 0.0
C132 C 0.85487 0.74223 0.54258 0.0
C133 C 0.84241 0.75297 0.49308 0.0
C134 C 0.83445 0.79595 0.5018 0.0
C135 C 0.83771 0.71814 0.44342 0.0
C136 C 0.81719 0.76871 0.41346 0.0
C137 C 0.82526 0.72594 0.40379 0.0
C138 C 0.82198 0.80366 0.46264 0.0
C139 C 0.88736 0.84373 0.54783 0.0
O140 O 0.90467 0.76722 0.68783 0.0
O141 O 0.88446 0.73984 0.68945 0.0
O142 O 0.92909 0.74146 0.5039 0.0
O143 O 0.9231 0.80172 0.58589 0.0
O144 O 0.91095 0.6833 0.49755 0.0
O145 O 0.8961 0.70563 0.58723 0.0
O146 O 0.88377 0.74139 0.41242 0.0
O147 O 0.90343 0.77194 0.40269 0.0
O148 O 0.85876 0.77517 0.58987 0.0
O149 O 0.86473 0.71607 0.50549 0.0
O150 O 0.87757 0.83355 0.59441 0.0
O151 O 0.89186 0.80911 0.50375 0.0
H152 H 0.95271 0.7036 0.52346 0.0
H153 H 0.94316 0.83217 0.66327 0.0
H154 H 0.96617 0.82753 0.71082 0.0
H155 H 0.9756 0.69859 0.57212 0.0
H156 H 0.83766 0.82335 0.54063 0.0
H157 H 0.84356 0.68446 0.43654 0.0
H158 H 0.82197 0.69841 0.36567 0.0
H159 H 0.81596 0.83674 0.47296 0.0
Gd160 Gd 0.66581 0.75244 0.03351 0.0
Gd161 Gd 0.63681 0.75788 0.03844 0.0
C162 C 0.65049 0.74908 0.21891 0.0
C163 C 0.69044 0.76534 0.04898 0.0
C164 C 0.70193 0.76474 0.10768 0.0
C165 C 0.7126 0.72896 0.10067 0.0
C166 C 0.7033 0.80289 0.161 0.0
C167 C 0.72629 0.77207 0.19077 0.0
C168 C 0.71533 0.80642 0.20228 0.0
C169 C 0.72465 0.73248 0.14206 0.0
C170 C 0.65741 0.66879 1.01792 0.0
C171 C 0.65163 0.75172 0.85356 0.0
C172 C 0.61201 0.75253 1.01441 0.0
C173 C 0.5978 0.7496 1.00066 0.0
C174 C 0.58859 0.78999 0.99514 0.0
C175 C 0.59329 0.70617 0.99485 0.0
C176 C 0.5705 0.74336 0.98701 0.0
C177 C 0.57975 0.70309 0.98844 0.0
C178 C 0.57502 0.78688 0.988 0.0
C179 C 0.6463 0.84088 0.04647 0.0
O180 O 0.66116 0.75983 0.17817 0.0
O181 O 0.63994 0.74026 0.17617 0.0
O182 O 0.68671 0.72564 0.02712 0.0
O183 O 0.68049 0.79845 0.05796 0.0
O184 O 0.66718 0.68171 0.97464 0.0
O185 O 0.65253 0.70019 0.06962 0.0
O186 O 0.64149 0.74151 0.89937 0.0
O187 O 0.66207 0.76532 0.89149 0.0
O188 O 0.61647 0.79157 0.03194 0.0
O189 O 0.62103 0.71613 1.01231 0.0
O190 O 0.63694 0.82948 0.09574 0.0
O191 O 0.65016 0.80788 0.99623 0.0
H192 H 0.71189 0.69934 0.05934 0.0
H193 H 0.6953 0.83115 0.1677 0.0
H194 H 0.71622 0.83697 0.24068 0.0
H195 H 0.7329 0.70555 0.1315 0.0
H196 H 0.59183 0.82395 0.99865 0.0
H197 H 0.60017 0.67449 0.99808 0.0
H198 H 0.57645 0.66917 0.98765 0.0
H199 H 0.56802 0.81835 0.98782 0.0
Gd200 Gd 0.37691 0.76461 1.02504 0.0
Gd201 Gd 0.40644 0.75199 0.03043 0.0
C202 C 0.39205 0.7606 0.21167 0.0
C203 C 0.35195 0.75601 0.04021 0.0
C204 C 0.34073 0.75549 0.10118 0.0
C205 C 0.33068 0.79352 0.10482 0.0
C206 C 0.33906 0.7153 0.14796 0.0
C207 C 0.31733 0.75068 0.19852 0.0
C208 C 0.32751 0.71292 0.1959 0.0
C209 C 0.31914 0.79123 0.15315 0.0
C210 C 0.38774 0.84428 1.01602 0.0
C211 C 0.3911 0.76236 0.8446 0.0
C212 C 0.43149 0.75336 1.00991 0.0
C213 C 0.44595 0.75166 0.99852 0.0
C214 C 0.454 0.70866 1.00159 0.0
C215 C 0.45192 0.79218 0.98676 0.0
C216 C 0.47377 0.7468 0.99045 0.0
C217 C 0.46577 0.78975 0.98251 0.0
C218 C 0.46773 0.70629 0.99755 0.0
C219 C 0.39547 0.67259 0.03648 0.0
O220 O 0.38104 0.75668 0.16838 0.0
O221 O 0.40337 0.76444 0.1722 0.0
O222 O 0.35632 0.79565 0.02573 0.0
O223 O 0.36144 0.72089 0.04137 0.0
O224 O 0.37743 0.83627 0.97216 0.0
O225 O 0.39149 0.8107 0.06525 0.0
O226 O 0.40218 0.76543 0.88766 0.0
O227 O 0.38001 0.75607 0.88387 0.0
O228 O 0.42622 0.71561 1.02535 0.0
O229 O 0.42308 0.7915 1.00724 0.0
O230 O 0.40537 0.68079 0.08403 0.0
O231 O 0.39191 0.70663 0.98796 0.0
H232 H 0.33158 0.82475 0.06847 0.0
H233 H 0.34649 0.68504 0.14554 0.0
H234 H 0.32639 0.6808 0.22866 0.0
H235 H 0.31161 0.82119 0.15446 0.0
H236 H 0.44972 0.67673 1.00947 0.0
H237 H 0.44592 0.82574 0.98338 0.0
H238 H 0.47024 0.82146 0.97727 0.0
H239 H 0.4737 0.67272 1.00287 0.0
Gd240 Gd 0.63455 0.25606 0.99747 0.0
Gd241 Gd 0.66343 0.25911 1.0072 0.0
C242 C 0.64866 0.25863 0.18507 0.0
C243 C 0.6103 0.2373 1.00604 0.0
C244 C 0.59685 0.24882 0.04308 0.0
C245 C 0.58954 0.29286 0.03243 0.0
C246 C 0.59057 0.21325 0.07953 0.0
C247 C 0.56964 0.26453 0.08884 0.0
C248 C 0.57714 0.22099 0.10241 0.0
C249 C 0.57609 0.30057 0.05485 0.0
C250 C 0.64116 0.34312 0.98643 0.0
C251 C 0.64981 0.25051 0.82037 0.0
C252 C 0.6881 0.2733 0.99515 0.0
C253 C 0.7001 0.2698 0.93942 0.0
C254 C 0.71132 0.23834 0.96106 0.0
C255 C 0.70119 0.30156 0.87232 0.0
C256 C 0.72481 0.27383 0.85635 0.0
C257 C 0.71338 0.30342 0.83116 0.0
C258 C 0.72353 0.24018 0.91979 0.0
C259 C 0.65592 0.17258 1.01696 0.0
O260 O 0.63896 0.24441 0.13972 0.0
O261 O 0.6587 0.27478 0.14673 0.0
O262 O 0.61438 0.26636 0.95097 0.0
O263 O 0.6198 0.21735 0.05539 0.0
O264 O 0.63169 0.32811 0.94383 0.0
O265 O 0.64641 0.31236 0.03764 0.0
O266 O 0.65924 0.26842 0.86259 0.0
O267 O 0.64036 0.23329 0.86318 0.0
O268 O 0.68439 0.2349 1.02431 0.0
O269 O 0.67806 0.30478 0.97723 0.0
O270 O 0.66514 0.1864 0.06407 0.0
O271 O 0.65148 0.20431 0.96598 0.0
H272 H 0.59406 0.32092 1.00379 0.0
H273 H 0.59596 0.17887 0.08766 0.0
H274 H 0.57261 0.19259 0.12962 0.0
H275 H 0.57065 0.33438 0.04218 0.0
H276 H 0.71083 0.21371 1.01301 0.0
H277 H 0.69278 0.32632 0.85387 0.0
H278 H 0.71395 0.3292 0.78138 0.0
H279 H 0.73212 0.21704 0.94114 0.0
Gd280 Gd 0.40787 0.25781 1.00327 0.0
Gd281 Gd 0.37851 0.25723 1.01358 0.0
C282 C 0.3937 0.25247 0.19166 0.0
C283 C 0.43223 0.27531 1.00714 0.0
C284 C 0.44571 0.26846 0.04532 0.0
C285 C 0.45602 0.24172 1.00026 0.0
C286 C 0.44891 0.29392 0.11767 0.0
C287 C 0.47258 0.2695 0.09374 0.0
C288 C 0.46217 0.2941 0.14203 0.0
C289 C 0.46926 0.24227 1.02394 0.0
C290 C 0.40011 0.17198 1.00291 0.0
C291 C 0.39273 0.25555 0.82652 0.0
C292 C 0.35405 0.24127 1.001 0.0
C293 C 0.34194 0.25035 0.9474 0.0
C294 C 0.33491 0.29506 0.94 0.0
C295 C 0.33661 0.21296 0.90959 0.0
C296 C 0.3173 0.26457 0.85969 0.0
C297 C 0.32445 0.21996 0.86605 0.0
C298 C 0.32274 0.30204 0.89693 0.0
C299 C 0.38648 0.34251 1.01701 0.0
O300 O 0.40388 0.26614 0.14917 0.0
O301 O 0.38356 0.23925 0.14978 0.0
O302 O 0.42834 0.24094 0.96394 0.0
O303 O 0.42253 0.30068 0.04768 0.0
O304 O 0.41009 0.18287 0.95902 0.0
O305 O 0.39537 0.20575 0.04843 0.0
O306 O 0.38294 0.24273 0.8729 0.0
O307 O 0.40275 0.27226 0.86373 0.0
O308 O 0.35775 0.27592 0.04452 0.0
O309 O 0.36408 0.21349 0.96956 0.0
O310 O 0.37662 0.33102 0.06119 0.0
O311 O 0.391 0.30965 0.9684 0.0
H312 H 0.45392 0.22225 0.9434 0.0
H313 H 0.44122 0.31517 0.15351 0.0
H314 H 0.46426 0.31467 0.19738 0.0
H315 H 0.47689 0.22331 0.98416 0.0
H316 H 0.33865 0.32462 0.96911 0.0
H317 H 0.34175 0.17806 0.91504 0.0
H318 H 0.32068 0.19037 0.83736 0.0
H319 H 0.31744 0.33679 0.89481 0.0
H320 H 0.24403 0.21387 0.72815 0.0
H321 H 0.23979 0.34646 0.59585 0.0
H322 H 0.26261 0.3568 0.63634 0.0
H323 H 0.26323 0.24777 0.90608 0.0
H324 H 0.2738 0.19314 0.91302 0.0
H325 H 0.25716 0.19513 0.87221 0.0
H326 H 0.26632 0.15434 0.73179 0.0
H327 H 0.283 0.15235 0.77208 0.0
H328 H 0.27862 0.17914 0.66943 0.0
H329 H 0.28565 0.35351 0.68945 0.0
H330 H 0.30763 0.338 0.75734 0.0
H331 H 0.29722 0.20854 0.86007 0.0
C332 C 0.24794 0.24494 0.70747 0.0
C333 C 0.24004 0.27963 0.6596 0.0
C334 C 0.24552 0.31986 0.63401 0.0
C335 C 0.25853 0.3259 0.65602 0.0
C336 C 0.266 0.29137 0.70357 0.0
C337 C 0.26096 0.2517 0.72932 0.0
C338 C 0.27114 0.22059 0.7817 0.0
C339 C 0.26602 0.21378 0.87371 0.0
C340 C 0.275 0.17384 0.736 0.0
C341 C 0.28259 0.24931 0.78177 0.0
C342 C 0.2794 0.28978 0.73564 0.0
C343 C 0.28826 0.32206 0.72621 0.0
C344 C 0.30071 0.31306 0.76569 0.0
C345 C 0.3042 0.27228 0.81499 0.0
C346 C 0.29498 0.23985 0.82229 0.0
H347 H 0.74591 0.20833 0.807 0.0
H348 H 0.73403 0.35661 0.83206 0.0
H349 H 0.75598 0.37111 0.78022 0.0
H350 H 0.77997 0.20884 0.87678 0.0
H351 H 0.78682 0.16516 0.80085 0.0
H352 H 0.77011 0.16546 0.84019 0.0
H353 H 0.76135 0.16858 0.68317 0.0
H354 H 0.77803 0.16807 0.6434 0.0
H355 H 0.76528 0.21394 0.61214 0.0
H356 H 0.77901 0.37065 0.72958 0.0
H357 H 0.80185 0.35544 0.67477 0.0
H358 H 0.79931 0.20751 0.67631 0.0
C359 C 0.74796 0.24382 0.80168 0.0
C360 C 0.73813 0.28138 0.82278 0.0
C361 C 0.74123 0.32728 0.81464 0.0
C362 C 0.75373 0.33591 0.78597 0.0
C363 C 0.76313 0.29835 0.76562 0.0
C364 C 0.76045 0.25318 0.77254 0.0
C365 C 0.77241 0.2194 0.7448 0.0
C366 C 0.77763 0.18785 0.82016 0.0
C367 C 0.76906 0.19082 0.66619 0.0
C368 C 0.78215 0.25284 0.72114 0.0
C369 C 0.77656 0.29812 0.73442 0.0
C370 C 0.78349 0.33536 0.71815 0.0
C371 C 0.79646 0.3263 0.68634 0.0
C372 C 0.80242 0.28032 0.66984 0.0
C373 C 0.79514 0.24307 0.68856 0.0
H374 H 0.29165 0.78578 0.15359 0.0
H375 H 0.31461 0.70769 0.3538 0.0
H376 H 0.29397 0.69809 0.43106 0.0
H377 H 0.26712 0.84702 0.29924 0.0
H378 H 0.25358 0.84541 0.22478 0.0
H379 H 0.27019 0.84635 0.18455 0.0
H380 H 0.26847 0.7714 0.09737 0.0
H381 H 0.25189 0.77008 0.13766 0.0
H382 H 0.26433 0.72066 0.15256 0.0
H383 H 0.27109 0.6952 0.48538 0.0
H384 H 0.24717 0.70176 0.51706 0.0
H385 H 0.23874 0.7836 0.28465 0.0
C386 C 0.29238 0.76724 0.21431 0.0
C387 C 0.30483 0.7472 0.24712 0.0
C388 C 0.30524 0.72262 0.32626 0.0
C389 C 0.29356 0.71723 0.37105 0.0
C390 C 0.28151 0.73696 0.33648 0.0
C391 C 0.2808 0.76179 0.26036 0.0
C392 C 0.26651 0.77944 0.23767 0.0
C393 C 0.26422 0.83272 0.23652 0.0
C394 C 0.26257 0.75917 0.15119 0.0
C395 C 0.25932 0.76026 0.31272 0.0
C396 C 0.2682 0.73581 0.36869 0.0
C397 C 0.26402 0.71425 0.44209 0.0
C398 C 0.2504 0.71785 0.45909 0.0
C399 C 0.24105 0.7428 0.40298 0.0
C400 C 0.24563 0.76443 0.32894 0.0
H401 H 0.7455 0.70943 0.26817 0.0
H402 H 0.73741 0.85212 0.18112 0.0
H403 H 0.75973 0.86584 0.22701 0.0
H404 H 0.76446 0.73258 0.45657 0.0
H405 H 0.77617 0.68076 0.44562 0.0
H406 H 0.75948 0.68176 0.40612 0.0
H407 H 0.76865 0.65695 0.25466 0.0
H408 H 0.78538 0.6561 0.29359 0.0
H409 H 0.77984 0.69096 0.20123 0.0
H410 H 0.78283 0.86433 0.27806 0.0
H411 H 0.80535 0.84866 0.33826 0.0
H412 H 0.79865 0.70754 0.39696 0.0
C413 C 0.74845 0.74352 0.2588 0.0
C414 C 0.73963 0.77987 0.22189 0.0
C415 C 0.74385 0.82402 0.2109 0.0
C416 C 0.75656 0.83207 0.23601 0.0
C417 C 0.76499 0.79564 0.27203 0.0
C418 C 0.76113 0.75229 0.28393 0.0
C419 C 0.77216 0.71947 0.32526 0.0
C420 C 0.76781 0.70267 0.41364 0.0
C421 C 0.77678 0.67845 0.26507 0.0
C422 C 0.78277 0.75132 0.33462 0.0
C423 C 0.7784 0.79497 0.30295 0.0
C424 C 0.78636 0.83039 0.30374 0.0
C425 C 0.79911 0.8212 0.33868 0.0
C426 C 0.8038 0.77701 0.37325 0.0
C427 C 0.79547 0.74157 0.37044 0.0
H428 H 0.14271 0.91643 0.64213 0.0
H429 H 0.1528 0.86775 0.383 0.0
H430 H 0.15813 0.94538 0.34323 0.0
H431 H 0.12636 0.02587 0.58065 0.0
H432 H 0.13213 0.05811 0.66919 0.0
H433 H 0.13058 0.99756 0.68225 0.0
H434 H 0.15524 0.98083 0.72756 0.0
H435 H 0.1568 0.04151 0.71602 0.0
H436 H 0.16787 0.99876 0.6581 0.0
H437 H 0.16112 0.0278 0.32798 0.0
H438 H 0.16248 0.11147 0.33869 0.0
H439 H 0.14944 0.1109 0.60554 0.0
C440 C 0.14647 0.92201 0.57807 0.0
C441 C 0.14774 0.88598 0.51595 0.0
C442 C 0.15211 0.89472 0.43168 0.0
C443 C 0.15507 0.93873 0.40849 0.0
C444 C 0.15344 0.97392 0.47011 0.0
C445 C 0.14933 0.96626 0.55339 0.0
C446 C 0.14774 0.01123 0.60505 0.0
C447 C 0.13334 0.02392 0.63609 0.0
C448 C 0.15749 0.00788 0.6812 0.0
C449 C 0.15138 0.04527 0.53727 0.0
C450 C 0.15474 0.02261 0.46029 0.0
C451 C 0.15858 0.04592 0.38796 0.0
C452 C 0.15929 0.09348 0.39463 0.0
C453 C 0.15605 0.11765 0.47266 0.0
C454 C 0.15186 0.09333 0.5448 0.0
H455 H 0.89962 0.40819 0.39997 0.0
H456 H 0.8804 0.38769 0.64418 0.0
H457 H 0.88113 0.47008 0.68209 0.0
H458 H 0.92203 0.48554 0.48598 0.0
H459 H 0.92131 0.52072 0.38995 0.0
H460 H 0.91919 0.46035 0.3824 0.0
H461 H 0.89663 0.48281 0.30552 0.0
H462 H 0.89863 0.54325 0.31355 0.0
H463 H 0.884 0.52284 0.35716 0.0
H464 H 0.88256 0.55589 0.68826 0.0
H465 H 0.88716 0.63679 0.67101 0.0
H466 H 0.90707 0.60022 0.42806 0.0
C467 C 0.89569 0.42119 0.46162 0.0
C468 C 0.88994 0.3921 0.51944 0.0
C469 C 0.88488 0.40977 0.59958 0.0
C470 C 0.8852 0.45643 0.62132 0.0
C471 C 0.8908 0.4846 0.5626 0.0
C472 C 0.89618 0.46749 0.48508 0.0
C473 C 0.90196 0.50482 0.43475 0.0
C474 C 0.91702 0.49209 0.42258 0.0
C475 C 0.89488 0.51395 0.34759 0.0
C476 C 0.89884 0.54567 0.49542 0.0
C477 C 0.89226 0.53341 0.56833 0.0
C478 C 0.88787 0.56573 0.63203 0.0
C479 C 0.89049 0.61159 0.62161 0.0
C480 C 0.89761 0.62445 0.54886 0.0
C481 C 0.90176 0.59107 0.48489 0.0
H482 H 0.88459 0.91987 0.65397 0.0
H483 H 0.89538 0.87484 0.39344 0.0
H484 H 0.89825 0.95514 0.35381 0.0
H485 H 0.86706 0.03235 0.60142 0.0
H486 H 0.87348 0.06132 0.69195 0.0
H487 H 0.87157 1.00075 0.69934 0.0
H488 H 0.89642 0.98108 0.73939 0.0
H489 H 0.89837 0.0416 0.73287 0.0
H490 H 0.90888 0.99974 0.66931 0.0
H491 H 0.89872 0.04107 0.34031 0.0
H492 H 0.90049 0.12456 0.36038 0.0
H493 H 0.89195 0.11242 0.63293 0.0
C494 C 0.88752 0.92713 0.58863 0.0
C495 C 0.88961 0.89147 0.52639 0.0
C496 C 0.89369 0.90181 0.44193 0.0
C497 C 0.89526 0.94732 0.4187 0.0
C498 C 0.89299 0.9819 0.48119 0.0
C499 C 0.88949 0.97224 0.56494 0.0
C500 C 0.88851 0.0153 0.62097 0.0
C501 C 0.87431 0.02818 0.65545 0.0
C502 C 0.89865 0.00904 0.69499 0.0
C503 C 0.89201 0.05056 0.55568 0.0
C504 C 0.89424 0.0308 0.47493 0.0
C505 C 0.89712 0.05683 0.40338 0.0
C506 C 0.89803 0.10413 0.41513 0.0
C507 C 0.89638 0.12436 0.49805 0.0
C508 C 0.89328 0.09738 0.56901 0.0
H509 H 0.15478 0.59424 0.65835 0.0
H510 H 0.14716 0.63659 0.39289 0.0
H511 H 0.14441 0.55603 0.3537 0.0
H512 H 0.17244 0.48093 0.61643 0.0
H513 H 0.16493 0.45312 0.70423 0.0
H514 H 0.16683 0.51369 0.71136 0.0
H515 H 0.14161 0.53409 0.73931 0.0
H516 H 0.13964 0.47356 0.73288 0.0
H517 H 0.12998 0.51489 0.66394 0.0
H518 H 0.14414 0.46965 0.34131 0.0
H519 H 0.14259 0.38604 0.36086 0.0
H520 H 0.14756 0.40078 0.63684 0.0
C521 C 0.15251 0.5864 0.5921 0.0
C522 C 0.15128 0.62148 0.5284 0.0
C523 C 0.14813 0.61021 0.44262 0.0
C524 C 0.14663 0.5645 0.41968 0.0
C525 C 0.14801 0.53054 0.48367 0.0
C526 C 0.15058 0.54107 0.56854 0.0
C527 C 0.15083 0.49847 0.62551 0.0
C528 C 0.16458 0.48582 0.66681 0.0
C529 C 0.13986 0.5057 0.69448 0.0
C530 C 0.14805 0.4624 0.5594 0.0
C531 C 0.14677 0.48147 0.47764 0.0
C532 C 0.14491 0.45454 0.40521 0.0
C533 C 0.14408 0.40713 0.41679 0.0
C534 C 0.14474 0.38738 0.50032 0.0
C535 C 0.14679 0.41536 0.57245 0.0
H536 H 0.65599 0.59755 0.13517 0.0
H537 H 0.64971 0.63667 0.86728 0.0
H538 H 0.64493 0.55794 0.8324 0.0
H539 H 0.67343 0.48532 0.08818 0.0
H540 H 0.66676 0.45598 0.17745 0.0
H541 H 0.6683 0.51683 0.18538 0.0
H542 H 0.64327 0.53514 0.22087 0.0
H543 H 0.6417 0.47427 0.21428 0.0
H544 H 0.63127 0.5153 0.14894 0.0
H545 H 0.64149 0.47629 0.82401 0.0
H546 H 0.63918 0.39375 0.84193 0.0
H547 H 0.64936 0.40167 0.11299 0.0
C548 C 0.65322 0.58959 0.06992 0.0
C549 C 0.65274 0.62347 1.00395 0.0
C550 C 0.64969 0.61154 0.91865 0.0
C551 C 0.64709 0.56681 0.89825 0.0
C552 C 0.64788 0.53385 0.96373 0.0
C553 C 0.65089 0.54431 0.04789 0.0
C554 C 0.65186 0.50096 0.10398 0.0
C555 C 0.66593 0.48908 0.14092 0.0
C556 C 0.6414 0.50677 0.1763 0.0
C557 C 0.64884 0.46489 0.03806 0.0
C558 C 0.64655 0.4851 0.95783 0.0
C559 C 0.64328 0.45997 0.88638 0.0
C560 C 0.64202 0.41309 0.89718 0.0
C561 C 0.64416 0.39134 0.97845 0.0
C562 C 0.64785 0.41736 0.04981 0.0
H563 H 0.39349 0.90739 0.89683 0.0
H564 H 0.38813 0.88731 0.1712 0.0
H565 H 0.39042 0.96984 0.19762 0.0
H566 H 0.41897 0.98513 0.92346 0.0
H567 H 0.41343 0.01966 0.8307 0.0
H568 H 0.41132 0.95917 0.83403 0.0
H569 H 0.38612 0.98082 0.80683 0.0
H570 H 0.38812 0.04139 0.80441 0.0
H571 H 0.37651 0.02093 0.87865 0.0
H572 H 0.39106 0.05572 0.19159 0.0
H573 H 0.39385 0.13684 0.15768 0.0
H574 H 0.40134 0.09954 0.88944 0.0
C575 C 0.39296 0.92049 0.96239 0.0
C576 C 0.39061 0.89159 0.03214 0.0
C577 C 0.39001 0.90925 0.11728 0.0
C578 C 0.39122 0.95599 0.1327 0.0
C579 C 0.39335 0.98398 0.06238 0.0
C580 C 0.39457 0.96668 0.97919 0.0
C581 C 0.39739 1.00375 0.91565 0.0
C582 C 0.4111 0.99117 0.87348 0.0
C583 C 0.38638 0.01221 0.84737 0.0
C584 C 0.39724 0.04486 0.97575 0.0
C585 C 0.39469 0.03281 0.05991 0.0
C586 C 0.3933 0.06539 0.12627 0.0
C587 C 0.39481 0.11136 0.10636 0.0
C588 C 0.39794 0.124 1.02129 0.0
C589 C 0.39915 0.09039 0.95521 0.0
H590 H 0.39641 0.40234 0.12631 0.0
H591 H 0.37974 0.39115 0.8712 0.0
H592 H 0.37987 0.47544 0.84871 0.0
H593 H 0.37947 0.51106 0.18488 0.0
H594 H 0.39338 0.53177 0.23738 0.0
H595 H 0.39234 0.47054 0.23257 0.0
H596 H 0.41547 0.45625 0.15931 0.0
H597 H 0.41665 0.51741 0.16501 0.0
H598 H 0.41848 0.48775 0.06266 0.0
H599 H 0.38 0.56156 0.86 0.0
H600 H 0.38312 0.64235 0.89502 0.0
H601 H 0.40128 0.59639 0.1386 0.0
C602 C 0.39296 0.4178 0.06549 0.0
C603 C 0.38803 0.39097 1.00033 0.0
C604 C 0.3836 0.41164 0.92133 0.0
C605 C 0.38358 0.45931 0.90832 0.0
C606 C 0.38828 0.48527 0.97446 0.0
C607 C 0.39319 0.4651 0.05068 0.0
C608 C 0.39799 0.50058 0.1104 0.0
C609 C 0.39033 0.50365 0.19638 0.0
C610 C 0.41304 0.48986 0.12519 0.0
C611 C 0.3946 0.54408 0.05714 0.0
C612 C 0.38895 0.53454 0.97916 0.0
C613 C 0.38457 0.56941 0.92036 0.0
C614 C 0.38629 0.61515 0.94102 0.0
C615 C 0.39247 0.62535 1.01928 0.0
C616 C 0.39658 0.58939 0.07817 0.0
H617 H 0.65744 0.10429 0.14099 0.0
H618 H 0.64909 0.13102 0.87006 0.0
H619 H 0.64627 0.04889 0.84819 0.0
H620 H 0.67507 0.98965 0.12002 0.0
H621 H 0.66773 0.96675 0.21401 0.0
H622 H 0.6695 0.02747 0.20867 0.0
H623 H 0.64429 0.04878 0.23603 0.0
H624 H 0.64246 0.98811 0.24204 0.0
H625 H 0.63263 0.02514 0.16662 0.0
H626 H 0.64611 0.96312 0.85301 0.0
H627 H 0.64504 0.88087 0.88846 0.0
H628 H 0.65077 0.91006 0.15931 0.0
C629 C 0.65504 0.09263 0.07721 0.0
C630 C 0.65367 0.12371 1.00673 0.0
C631 C 0.65025 0.10766 0.92459 0.0
C632 C 0.64867 0.06106 0.91154 0.0
C633 C 0.65023 0.03108 0.98187 0.0
C634 C 0.65303 0.04629 0.06356 0.0
C635 C 0.65346 1.00713 0.12871 0.0
C636 C 0.66726 0.99717 0.17029 0.0
C637 C 0.64256 0.01794 0.19741 0.0
C638 C 0.65067 0.9675 0.07056 0.0
C639 C 0.64908 0.98205 0.98584 0.0
C640 C 0.64714 0.95144 0.91925 0.0
C641 C 0.64662 0.90482 0.93986 0.0
C642 C 0.64771 0.88951 0.02649 0.0
C643 C 0.64975 0.92122 0.09269 0.0
H644 H 0.15458 0.31226 0.18254 0.0
H645 H 0.14584 0.17328 0.23744 0.0
H646 H 0.14613 0.15569 0.08168 0.0
H647 H 0.13316 0.32575 0.99147 0.0
H648 H 0.14372 0.36001 0.93288 0.0
H649 H 0.1433 0.36183 0.04917 0.0
H650 H 0.16877 0.33876 0.05336 0.0
H651 H 0.16924 0.33673 0.93714 0.0
H652 H 0.17605 0.28676 0.99891 0.0
H653 H 0.14684 0.15278 0.92259 0.0
H654 H 0.14748 0.16525 0.76528 0.0
H655 H 0.15559 0.3062 0.80736 0.0
C656 C 0.15283 0.27812 0.16129 0.0
C657 C 0.15026 0.2439 0.2217 0.0
C658 C 0.14777 0.1999 0.19199 0.0
C659 C 0.14796 0.18956 0.10374 0.0
C660 C 0.15042 0.22388 0.0456 0.0
C661 C 0.15267 0.26747 0.07258 0.0
C662 C 0.15432 0.2985 0.99526 0.0
C663 C 0.14295 0.33892 0.99202 0.0
C664 C 0.16791 0.31621 0.99627 0.0
C665 C 0.15326 0.2648 0.92124 0.0
C666 C 0.15082 0.2222 0.95229 0.0
C667 C 0.14882 0.18586 0.89739 0.0
C668 C 0.14921 0.19324 0.80823 0.0
C669 C 0.15178 0.23634 0.77452 0.0
C670 C 0.15393 0.27256 0.83173 0.0
H671 H 0.88223 0.30963 0.18766 0.0
H672 H 0.90956 0.18508 0.23497 0.0
H673 H 0.91158 0.17082 0.07767 0.0
H674 H 0.86528 0.27018 1.00433 0.0
H675 H 0.86447 0.32395 0.94566 0.0
H676 H 0.8649 0.32422 0.06191 0.0
H677 H 0.88553 0.36794 0.05824 0.0
H678 H 0.88511 0.36796 0.94195 0.0
H679 H 0.89998 0.34394 0.99772 0.0
H680 H 0.91083 0.17013 0.91745 0.0
H681 H 0.90793 0.18433 0.76087 0.0
H682 H 0.88133 0.31 0.81401 0.0
C683 C 0.8886 0.27941 0.16433 0.0
C684 C 0.89575 0.24823 0.22245 0.0
C685 C 0.90409 0.20927 0.1907 0.0
C686 C 0.90526 0.20089 0.10179 0.0
C687 C 0.89813 0.23223 0.04571 0.0
C688 C 0.89007 0.271 0.07534 0.0
C689 C 0.88398 0.30007 1.00055 0.0
C690 C 0.86875 0.30486 1.00332 0.0
C691 C 0.88895 0.3478 0.99957 0.0
C692 C 0.88951 0.27071 0.92455 0.0
C693 C 0.89774 0.23196 0.95241 0.0
C694 C 0.90437 0.20019 0.89481 0.0
C695 C 0.90265 0.20842 0.80629 0.0
C696 C 0.89426 0.24768 0.77635 0.0
C697 C 0.88756 0.2792 0.83593 0.0
H698 H 0.16412 0.71402 0.23076 0.0
H699 H 0.13055 0.81794 0.28501 0.0
H700 H 0.12728 0.83203 0.12894 0.0
H701 H 0.17699 0.76872 0.04353 0.0
H702 H 0.18093 0.71533 0.98428 0.0
H703 H 0.18112 0.71479 0.10057 0.0
H704 H 0.16448 0.65457 0.10125 0.0
H705 H 0.16421 0.65497 0.98495 0.0
H706 H 0.14894 0.66736 0.04488 0.0
H707 H 0.12668 0.8321 0.96973 0.0
H708 H 0.12922 0.81978 0.81245 0.0
H709 H 0.16338 0.71681 0.85655 0.0
C710 C 0.15625 0.74018 0.20922 0.0
C711 C 0.14764 0.7654 0.26909 0.0
C712 C 0.13723 0.79853 0.23948 0.0
C713 C 0.13531 0.80675 0.15122 0.0
C714 C 0.1438 0.78105 0.09335 0.0
C715 C 0.15405 0.74835 0.12065 0.0
C716 C 0.16123 0.724 0.04396 0.0
C717 C 0.17594 0.73117 0.04304 0.0
C718 C 0.15962 0.67216 0.04377 0.0
C719 C 0.15366 0.74916 0.9697 0.0
C720 C 0.14352 0.78142 1.00014 0.0
C721 C 0.13464 0.80726 0.9449 0.0
C722 C 0.13612 0.79995 0.85592 0.0
C723 C 0.14651 0.7677 0.82307 0.0
C724 C 0.15547 0.74219 0.8805 0.0
H725 H 0.9029 0.80889 0.86102 0.0
H726 H 0.88716 0.67965 0.81282 0.0
H727 H 0.88582 0.66599 0.9688 0.0
H728 H 0.92248 0.77174 0.05244 0.0
H729 H 0.91828 0.8258 0.10914 0.0
H730 H 0.91874 0.82503 0.99284 0.0
H731 H 0.89456 0.86611 0.98858 0.0
H732 H 0.89401 0.86678 0.10486 0.0
H733 H 0.88174 0.84071 0.04476 0.0
H734 H 0.88473 0.66744 0.12662 0.0
H735 H 0.885 0.68241 0.28307 0.0
H736 H 0.9018 0.8098 0.23643 0.0
C737 C 0.89944 0.77739 0.88375 0.0
C738 C 0.89524 0.74507 0.82492 0.0
C739 C 0.89043 0.70479 0.85675 0.0
C740 C 0.88963 0.69668 0.94527 0.0
C741 C 0.89357 0.72936 1.00173 0.0
C742 C 0.8984 0.76891 0.97291 0.0
C743 C 0.90135 0.7991 0.04889 0.0
C744 C 0.91609 0.80579 0.05094 0.0
C745 C 0.89239 0.84595 0.04661 0.0
C746 C 0.89771 0.76965 0.12421 0.0
C747 C 0.89307 0.72993 0.09483 0.0
C748 C 0.88844 0.6982 0.1507 0.0
C749 C 0.88857 0.7071 0.23934 0.0
C750 C 0.89346 0.74703 0.27152 0.0
C751 C 0.89817 0.77867 0.21327 0.0
H752 H 0.66263 0.79605 0.34625 0.0
H753 H 0.63801 0.68683 0.30416 0.0
H754 H 0.63645 0.67539 0.46054 0.0
H755 H 0.68073 0.74561 0.53272 0.0
H756 H 0.68038 0.79972 0.58995 0.0
H757 H 0.68009 0.79922 0.47363 0.0
H758 H 0.65845 0.85712 0.47498 0.0
H759 H 0.65868 0.8578 0.59131 0.0
H760 H 0.6443 0.84309 0.53503 0.0
H761 H 0.63636 0.67724 0.61689 0.0
H762 H 0.63818 0.69081 0.77196 0.0
H763 H 0.66344 0.79738 0.72211 0.0
C764 C 0.65708 0.7694 0.37039 0.0
C765 C 0.65048 0.74215 0.31322 0.0
C766 C 0.64309 0.7082 0.3468 0.0
C767 C 0.64216 0.70133 0.43554 0.0
C768 C 0.6486 0.72891 0.49026 0.0
C769 C 0.65589 0.76237 0.45978 0.0
C770 C 0.6613 0.78824 0.5345 0.0
C771 C 0.67653 0.78285 0.53257 0.0
C772 C 0.65533 0.83961 0.53389 0.0
C773 C 0.65619 0.763 0.61107 0.0
C774 C 0.64875 0.72941 0.58311 0.0
C775 C 0.6423 0.70297 0.6399 0.0
C776 C 0.64344 0.71094 0.72808 0.0
C777 C 0.65117 0.74447 0.75932 0.0
C778 C 0.65771 0.77081 0.69998 0.0
H779 H 0.40627 0.71554 0.7165 0.0
H780 H 0.37428 0.82662 0.76323 0.0
H781 H 0.37186 0.83986 0.60636 0.0
H782 H 0.42096 0.76437 0.52953 0.0
H783 H 0.42403 0.71006 0.47227 0.0
H784 H 0.42384 0.71063 0.58857 0.0
H785 H 0.40586 0.65525 0.58882 0.0
H786 H 0.40598 0.65451 0.47251 0.0
H787 H 0.39067 0.67112 0.52998 0.0
H788 H 0.37196 0.83898 0.44746 0.0
H789 H 0.37473 0.8245 0.29105 0.0
H790 H 0.40673 0.71418 0.34216 0.0
C791 C 0.39893 0.74304 0.69316 0.0
C792 C 0.39054 0.77058 0.75112 0.0
C793 C 0.38079 0.80545 0.7192 0.0
C794 C 0.37936 0.8132 0.63048 0.0
C795 C 0.38764 0.78528 0.57456 0.0
C796 C 0.3972 0.75072 0.60413 0.0
C797 C 0.40419 0.72406 0.52915 0.0
C798 C 0.41915 0.72752 0.52994 0.0
C799 C 0.40152 0.67323 0.53021 0.0
C800 C 0.39733 0.75001 0.45318 0.0
C801 C 0.38771 0.78479 0.4814 0.0
C802 C 0.37951 0.81209 0.42438 0.0
C803 C 0.38111 0.80355 0.33591 0.0
C804 C 0.39094 0.76849 0.30529 0.0
C805 C 0.39926 0.7416 0.36443 0.0
H806 H 0.65259 0.31926 0.31785 0.0
H807 H 0.64557 0.17835 0.26321 0.0
H808 H 0.64618 0.16074 0.41907 0.0
H809 H 0.67433 0.29679 0.50088 0.0
H810 H 0.66699 0.34615 0.56262 0.0
H811 H 0.66651 0.3479 0.44639 0.0
H812 H 0.64092 0.36753 0.45107 0.0
H813 H 0.64134 0.36597 0.56736 0.0
H814 H 0.63125 0.32996 0.50909 0.0
H815 H 0.64682 0.15834 0.57831 0.0
H816 H 0.64707 0.17151 0.73534 0.0
H817 H 0.65364 0.31397 0.69282 0.0
C818 C 0.65128 0.28472 0.33919 0.0
C819 C 0.64907 0.24997 0.27896 0.0
C820 C 0.64718 0.20538 0.30867 0.0
C821 C 0.64757 0.19504 0.39691 0.0
C822 C 0.64964 0.22993 0.45494 0.0
C823 C 0.65133 0.27403 0.42785 0.0
C824 C 0.6526 0.30556 0.50498 0.0
C825 C 0.66591 0.32524 0.5036 0.0
C826 C 0.64083 0.34457 0.5083 0.0
C827 C 0.65193 0.27172 0.57912 0.0
C828 C 0.65004 0.22849 0.54826 0.0
C829 C 0.6484 0.1919 0.60333 0.0
C830 C 0.64857 0.19968 0.69242 0.0
C831 C 0.65061 0.24339 0.72598 0.0
C832 C 0.6524 0.27988 0.66861 0.0
H833 H 0.40495 0.30171 0.32085 0.0
H834 H 0.38276 0.18608 0.27568 0.0
H835 H 0.38096 0.17422 0.43126 0.0
H836 H 0.42303 0.25333 0.51266 0.0
H837 H 0.42169 0.30797 0.56897 0.0
H838 H 0.42208 0.30672 0.45265 0.0
H839 H 0.39991 0.36173 0.4483 0.0
H840 H 0.39942 0.36298 0.56457 0.0
H841 H 0.38567 0.34577 0.50485 0.0
H842 H 0.38006 0.17639 0.58743 0.0
H843 H 0.38097 0.19067 0.74327 0.0
H844 H 0.40396 0.30407 0.69697 0.0
C845 C 0.39995 0.27346 0.34413 0.0
C846 C 0.39406 0.24467 0.28596 0.0
C847 C 0.38735 0.20863 0.31871 0.0
C848 C 0.38627 0.20149 0.40718 0.0
C849 C 0.39189 0.23076 0.46284 0.0
C850 C 0.39864 0.26597 0.43346 0.0
C851 C 0.40321 0.29323 0.50918 0.0
C852 C 0.41841 0.29011 0.51096 0.0
C853 C 0.39666 0.34393 0.50654 0.0
C854 C 0.39803 0.2674 0.58485 0.0
C855 C 0.39146 0.23177 0.55571 0.0
C856 C 0.38526 0.20393 0.61145 0.0
C857 C 0.38577 0.21251 0.69988 0.0
C858 C 0.39253 0.24839 0.73219 0.0
C859 C 0.39883 0.2761 0.67392 0.0
H860 H 0.05208 0.23143 0.32166 0.0
H861 H 0.05594 0.31139 0.55512 0.0
H862 H 0.03176 0.32167 0.57358 0.0
H863 H 1.02111 0.30044 0.24878 0.0
H864 H 1.01416 0.25114 0.20671 0.0
H865 H 0.0319 0.25106 0.20815 0.0
H866 H 0.03455 0.17436 0.29461 0.0
H867 H 1.01683 0.17433 0.29372 0.0
H868 H 0.02565 0.17131 0.39484 0.0
H869 H 1.00778 0.3227 0.5713 0.0
H870 H 0.98427 0.31462 0.54747 0.0
H871 H 0.99479 0.23267 0.31754 0.0
C872 C 0.04779 0.25133 0.37623 0.0
C873 C 0.05593 0.27134 0.43618 0.0
C874 C 0.04994 0.29686 0.50705 0.0
C875 C 0.0362 0.30259 0.51859 0.0
C876 C 0.02849 0.28268 0.45872 0.0
C877 C 0.03396 0.2577 0.38865 0.0
C878 C 0.02315 0.24004 0.33464 0.0
C879 C 0.02255 0.26198 0.2442 0.0
C880 C 0.02517 0.18684 0.3292 0.0
C881 C 1.01089 0.25785 0.38732 0.0
C882 C 1.01431 0.28282 0.45788 0.0
C883 C 1.00493 0.30346 0.51614 0.0
C884 C 0.99161 0.29881 0.50195 0.0
C885 C 0.98776 0.27346 0.43047 0.0
C886 C 0.99752 0.2523 0.37258 0.0
H887 H 0.99406 0.73994 0.53706 0.0
H888 H 0.98383 0.78655 0.79777 0.0
H889 H 1.00757 0.78933 0.82876 0.0
H890 H 0.0246 0.66654 0.59205 0.0
H891 H 0.033 0.68111 0.49526 0.0
H892 H 1.01526 0.68167 0.49503 0.0
H893 H 1.01232 0.76678 0.44169 0.0
H894 H 0.03004 0.76658 0.44213 0.0
H895 H 1.01955 0.80991 0.50268 0.0
H896 H 0.03256 0.78779 0.83035 0.0
H897 H 0.05673 0.78327 0.80066 0.0
H898 H 0.05033 0.73787 0.53963 0.0
C899 C 0.9968 0.74995 0.60124 0.0
C900 C 0.98706 0.76273 0.66521 0.0
C901 C 0.99109 0.77684 0.74758 0.0
C902 C 1.00456 0.7783 0.76592 0.0
C903 C 1.01387 0.76555 0.70122 0.0
C904 C 1.01016 0.75163 0.62055 0.0
C905 C 0.02204 0.74076 0.56149 0.0
C906 C 0.02383 0.68947 0.53439 0.0
C907 C 1.02091 0.77294 0.48234 0.0
C908 C 0.03303 0.75113 0.62125 0.0
C909 C 0.02816 0.76512 0.7018 0.0
C910 C 0.03648 0.77677 0.76762 0.0
C911 C 0.05014 0.77413 0.75044 0.0
C912 C 0.05521 0.76022 0.66823 0.0
C913 C 0.04658 0.74853 0.60305 0.0
H914 H 0.54946 0.78046 0.88458 0.0
H915 H 0.55961 0.69803 0.11408 0.0
H916 H 0.53601 0.69153 0.13853 0.0
H917 H 0.51905 0.8437 0.96217 0.0
H918 H 0.5101 0.8412 0.86224 0.0
H919 H 0.52787 0.83979 0.86078 0.0
H920 H 0.53021 0.76299 0.77443 0.0
H921 H 0.51243 0.76426 0.77533 0.0
H922 H 0.52291 0.71436 0.81635 0.0
H923 H 0.51207 0.69445 0.1418 0.0
H924 H 0.48792 0.70384 0.12062 0.0
H925 H 0.4922 0.78308 0.88717 0.0
C926 C 0.54662 0.76111 0.93974 0.0
C927 C 0.55627 0.7395 0.99751 0.0
C928 C 0.55233 0.71428 0.06884 0.0
C929 C 0.53897 0.71058 0.08342 0.0
C930 C 0.52969 0.73202 0.02564 0.0
C931 C 0.53323 0.75645 0.95472 0.0
C932 C 0.52107 0.7749 0.90212 0.0
C933 C 0.51943 0.82807 0.89656 0.0
C934 C 0.52169 0.75281 0.81171 0.0
C935 C 0.51019 0.7581 0.95651 0.0
C936 C 0.51552 0.73322 0.02694 0.0
C937 C 0.50772 0.71361 0.08676 0.0
C938 C 0.49404 0.71902 0.07405 0.0
C939 C 0.48827 0.74382 1.00209 0.0
C940 C 0.49642 0.76411 0.94287 0.0
H941 H 0.49501 0.20487 0.07371 0.0
H942 H 0.48253 0.34772 0.14995 0.0
H943 H 0.50585 0.35933 0.16889 0.0
H944 H 0.52416 0.18399 0.21412 0.0
H945 H 0.53399 0.15011 0.13396 0.0
H946 H 0.51623 0.15096 0.13584 0.0
H947 H 0.51492 0.17761 0.97615 0.0
H948 H 0.53265 0.17674 0.97375 0.0
H949 H 0.52198 0.2289 0.94529 0.0
H950 H 0.5305 0.3575 0.17131 0.0
H951 H 0.55477 0.34283 0.15311 0.0
H952 H 0.55135 0.20327 0.06418 0.0
C953 C 0.49711 0.23861 0.09475 0.0
C954 C 0.48675 0.27514 0.1113 0.0
C955 C 0.49012 0.3186 0.13913 0.0
C956 C 0.5034 0.32575 0.14947 0.0
C957 C 0.5133 0.28928 0.13137 0.0
C958 C 0.51034 0.24657 0.10445 0.0
C959 C 0.52288 0.21409 0.08416 0.0
C960 C 0.5244 0.17231 0.14569 0.0
C961 C 0.52312 0.19844 0.9892 0.0
C962 C 0.53332 0.24569 0.10175 0.0
C963 C 0.52757 0.28865 0.13017 0.0
C964 C 0.53513 0.32397 0.14911 0.0
C965 C 0.54892 0.31539 0.13781 0.0
C966 C 0.55507 0.27199 0.10667 0.0
C967 C 0.54707 0.23662 0.08936 0.0
loop_
_geom_bond_atom_site_label_1
_geom_bond_atom_site_label_2
_geom_bond_distance
_geom_bond_site_symmetry_2
_ccdc_geom_bond_type
Gd0 C3 2.818 . S
Gd0 O20 2.377 . S
Gd0 O22 2.448 . S
Gd0 O23 2.506 . S
Gd0 O24 2.435 . S
Gd0 O25 2.717 . S
Gd0 O27 2.395 . S
Gd0 O31 2.327 . S
Gd1 C12 2.818 . S
Gd1 O21 2.395 . S
Gd1 O25 2.327 . S
Gd1 O26 2.377 . S
Gd1 O28 2.448 . S
Gd1 O29 2.506 . S
Gd1 O30 2.435 . S
Gd1 O31 2.717 . S
C2 O20 1.240 . S
C2 O21 1.240 . S
C3 Gd0 2.818 . S
C3 C4 1.510 . S
C3 O22 1.249 . S
C3 O23 1.252 . S
C4 C3 1.510 . S
C4 C5 1.404 . S
C4 C6 1.352 . S
C5 C4 1.404 . S
C5 C9 1.389 . S
C5 H32 0.930 . S
C6 C4 1.352 . S
C6 C8 1.374 . S
C6 H33 0.931 . S
C7 C8 1.359 . S
C7 C9 1.364 . S
C8 C6 1.374 . S
C8 C7 1.359 . S
C8 H34 0.931 . S
C9 C5 1.389 . S
C9 C7 1.364 . S
C9 H35 0.931 . S
C10 O24 1.256 . S
C10 O25 1.257 . S
C11 O26 1.240 . S
C11 O27 1.240 . S
C12 Gd1 2.818 . S
C12 C13 1.510 . S
C12 O28 1.249 . S
C12 O29 1.252 . S
C13 C12 1.510 . S
C13 C14 1.404 . S
C13 C15 1.352 . S
C14 C13 1.404 . S
C14 C18 1.389 . S
C14 H36 0.930 . S
C15 C13 1.352 . S
C15 C17 1.374 . S
C15 H37 0.931 . S
C16 C17 1.359 . S
C16 C18 1.364 . S
C17 C15 1.374 . S
C17 C16 1.359 . S
C17 H38 0.931 . S
C18 C14 1.389 . S
C18 C16 1.364 . S
C18 H39 0.931 . S
C19 O30 1.256 . S
C19 O31 1.257 . S
O20 Gd0 2.377 . S
O20 C2 1.240 . S
O21 Gd1 2.395 . S
O21 C2 1.240 . S
O22 Gd0 2.448 . S
O22 C3 1.249 . S
O23 Gd0 2.506 . S
O23 C3 1.252 . S
O24 Gd0 2.435 . S
O24 C10 1.256 . S
O25 Gd0 2.717 . S
O25 Gd1 2.327 . S
O25 C10 1.257 . S
O26 Gd1 2.377 . S
O26 C11 1.240 . S
O27 Gd0 2.395 . S
O27 C11 1.240 . S
O28 Gd1 2.448 . S
O28 C12 1.249 . S
O29 Gd1 2.506 . S
O29 C12 1.252 . S
O30 Gd1 2.435 . S
O30 C19 1.256 . S
O31 Gd0 2.327 . S
O31 Gd1 2.717 . S
O31 C19 1.257 . S
H32 C5 0.930 . S
H33 C6 0.931 . S
H34 C8 0.931 . S
H35 C9 0.931 . S
H36 C14 0.930 . S
H37 C15 0.931 . S
H38 C17 0.931 . S
H39 C18 0.931 . S
Gd40 C43 2.818 . S
Gd40 O60 2.377 . S
Gd40 O62 2.448 . S
Gd40 O63 2.506 . S
Gd40 O64 2.435 . S
Gd40 O65 2.717 . S
Gd40 O67 2.395 . S
Gd40 O71 2.327 . S
Gd41 C52 2.818 . S
Gd41 O61 2.395 . S
Gd41 O65 2.327 . S
Gd41 O66 2.377 . S
Gd41 O68 2.448 . S
Gd41 O69 2.506 . S
Gd41 O70 2.435 . S
Gd41 O71 2.717 . S
C42 O60 1.240 . S
C42 O61 1.240 . S
C43 Gd40 2.818 . S
C43 C44 1.510 . S
C43 O62 1.249 . S
C43 O63 1.252 . S
C44 C43 1.510 . S
C44 C45 1.404 . S
C44 C46 1.352 . S
C45 C44 1.404 . S
C45 C49 1.389 . S
C45 H72 0.930 . S
C46 C44 1.352 . S
C46 C48 1.374 . S
C46 H73 0.931 . S
C47 C48 1.359 . S
C47 C49 1.364 . S
C48 C46 1.374 . S
C48 C47 1.359 . S
C48 H74 0.931 . S
C49 C45 1.389 . S
C49 C47 1.364 . S
C49 H75 0.931 . S
C50 O64 1.256 . S
C50 O65 1.257 . S
C51 O66 1.240 . S
C51 O67 1.240 . S
C52 Gd41 2.818 . S
C52 C53 1.510 . S
C52 O68 1.249 . S
C52 O69 1.252 . S
C53 C52 1.510 . S
C53 C54 1.404 . S
C53 C55 1.352 . S
C54 C53 1.404 . S
C54 C58 1.389 . S
C54 H76 0.930 . S
C55 C53 1.352 . S
C55 C57 1.374 . S
C55 H77 0.931 . S
C56 C57 1.359 . S
C56 C58 1.364 . S
C57 C55 1.374 . S
C57 C56 1.359 . S
C57 H78 0.931 . S
C58 C54 1.389 . S
C58 C56 1.364 . S
C58 H79 0.931 . S
C59 O70 1.256 . S
C59 O71 1.257 . S
O60 Gd40 2.377 . S
O60 C42 1.240 . S
O61 Gd41 2.395 . S
O61 C42 1.240 . S
O62 Gd40 2.448 . S
O62 C43 1.249 . S
O63 Gd40 2.506 . S
O63 C43 1.252 . S
O64 Gd40 2.435 . S
O64 C50 1.256 . S
O65 Gd40 2.717 . S
O65 Gd41 2.327 . S
O65 C50 1.257 . S
O66 Gd41 2.377 . S
O66 C51 1.240 . S
O67 Gd40 2.395 . S
O67 C51 1.240 . S
O68 Gd41 2.448 . S
O68 C52 1.249 . S
O69 Gd41 2.506 . S
O69 C52 1.252 . S
O70 Gd41 2.435 . S
O70 C59 1.256 . S
O71 Gd40 2.327 . S
O71 Gd41 2.717 . S
O71 C59 1.257 . S
H72 C45 0.930 . S
H73 C46 0.931 . S
H74 C48 0.931 . S
H75 C49 0.931 . S
H76 C54 0.930 . S
H77 C55 0.931 . S
H78 C57 0.931 . S
H79 C58 0.931 . S
Gd80 C83 2.818 . S
Gd80 O100 2.377 . S
Gd80 O102 2.448 . S
Gd80 O103 2.506 . S
Gd80 O104 2.435 . S
Gd80 O105 2.717 . S
Gd80 O107 2.395 . S
Gd80 O111 2.327 . S
Gd81 C92 2.818 . S
Gd81 O101 2.395 . S
Gd81 O105 2.327 . S
Gd81 O106 2.377 . S
Gd81 O108 2.448 . S
Gd81 O109 2.506 . S
Gd81 O110 2.435 . S
Gd81 O111 2.717 . S
C82 O100 1.240 . S
C82 O101 1.240 . S
C83 Gd80 2.818 . S
C83 C84 1.510 . S
C83 O102 1.249 . S
C83 O103 1.252 . S
C84 C83 1.510 . S
C84 C85 1.404 . S
C84 C86 1.352 . S
C85 C84 1.404 . S
C85 C89 1.389 . S
C85 H112 0.930 . S
C86 C84 1.352 . S
C86 C88 1.374 . S
C86 H113 0.931 . S
C87 C88 1.359 . S
C87 C89 1.364 . S
C88 C86 1.374 . S
C88 C87 1.359 . S
C88 H114 0.931 . S
C89 C85 1.389 . S
C89 C87 1.364 . S
C89 H115 0.931 . S
C90 O104 1.256 . S
C90 O105 1.257 . S
C91 O106 1.240 . S
C91 O107 1.240 . S
C92 Gd81 2.818 . S
C92 C93 1.510 . S
C92 O108 1.249 . S
C92 O109 1.252 . S
C93 C92 1.510 . S
C93 C94 1.404 . S
C93 C95 1.352 . S
C94 C93 1.404 . S
C94 C98 1.389 . S
C94 H116 0.930 . S
C95 C93 1.352 . S
C95 C97 1.374 . S
C95 H117 0.931 . S
C96 C97 1.359 . S
C96 C98 1.364 . S
C97 C95 1.374 . S
C97 C96 1.359 . S
C97 H118 0.931 . S
C98 C94 1.389 . S
C98 C96 1.364 . S
C98 H119 0.931 . S
C99 O110 1.256 . S
C99 O111 1.257 . S
O100 Gd80 2.377 . S
O100 C82 1.240 . S
O101 Gd81 2.395 . S
O101 C82 1.240 . S
O102 Gd80 2.448 . S
O102 C83 1.249 . S
O103 Gd80 2.506 . S
O103 C83 1.252 . S
O104 Gd80 2.435 . S
O104 C90 1.256 . S
O105 Gd80 2.717 . S
O105 Gd81 2.327 . S
O105 C90 1.257 . S
O106 Gd81 2.377 . S
O106 C91 1.240 . S
O107 Gd80 2.395 . S
O107 C91 1.240 . S
O108 Gd81 2.448 . S
O108 C92 1.249 . S
O109 Gd81 2.506 . S
O109 C92 1.252 . S
O110 Gd81 2.435 . S
O110 C99 1.256 . S
O111 Gd80 2.327 . S
O111 Gd81 2.717 . S
O111 C99 1.257 . S
H112 C85 0.930 . S
H113 C86 0.931 . S
H114 C88 0.931 . S
H115 C89 0.931 . S
H116 C94 0.930 . S
H117 C95 0.931 . S
H118 C97 0.931 . S
H119 C98 0.931 . S
Gd120 C123 2.818 . S
Gd120 O140 2.377 . S
Gd120 O142 2.448 . S
Gd120 O143 2.506 . S
Gd120 O144 2.435 . S
Gd120 O145 2.717 . S
Gd120 O147 2.395 . S
Gd120 O151 2.327 . S
Gd121 C132 2.818 . S
Gd121 O141 2.395 . S
Gd121 O145 2.327 . S
Gd121 O146 2.377 . S
Gd121 O148 2.448 . S
Gd121 O149 2.506 . S
Gd121 O150 2.435 . S
Gd121 O151 2.717 . S
C122 O140 1.240 . S
C122 O141 1.240 . S
C123 Gd120 2.818 . S
C123 C124 1.510 . S
C123 O142 1.249 . S
C123 O143 1.252 . S
C124 C123 1.510 . S
C124 C125 1.404 . S
C124 C126 1.352 . S
C125 C124 1.404 . S
C125 C129 1.389 . S
C125 H152 0.930 . S
C126 C124 1.352 . S
C126 C128 1.374 . S
C126 H153 0.931 . S
C127 C128 1.359 . S
C127 C129 1.364 . S
C128 C126 1.374 . S
C128 C127 1.359 . S
C128 H154 0.931 . S
C129 C125 1.389 . S
C129 C127 1.364 . S
C129 H155 0.931 . S
C130 O144 1.256 . S
C130 O145 1.257 . S
C131 O146 1.240 . S
C131 O147 1.240 . S
C132 Gd121 2.818 . S
C132 C133 1.510 . S
C132 O148 1.249 . S
C132 O149 1.252 . S
C133 C132 1.510 . S
C133 C134 1.404 . S
C133 C135 1.352 . S
C134 C133 1.404 . S
C134 C138 1.389 . S
C134 H156 0.930 . S
C135 C133 1.352 . S
C135 C137 1.374 . S
C135 H157 0.931 . S
C136 C137 1.359 . S
C136 C138 1.364 . S
C137 C135 1.374 . S
C137 C136 1.359 . S
C137 H158 0.931 . S
C138 C134 1.389 . S
C138 C136 1.364 . S
C138 H159 0.931 . S
C139 O150 1.256 . S
C139 O151 1.257 . S
O140 Gd120 2.377 . S
O140 C122 1.240 . S
O141 Gd121 2.395 . S
O141 C122 1.240 . S
O142 Gd120 2.448 . S
O142 C123 1.249 . S
O143 Gd120 2.506 . S
O143 C123 1.252 . S
O144 Gd120 2.435 . S
O144 C130 1.256 . S
O145 Gd120 2.717 . S
O145 Gd121 2.327 . S
O145 C130 1.257 . S
O146 Gd121 2.377 . S
O146 C131 1.240 . S
O147 Gd120 2.395 . S
O147 C131 1.240 . S
O148 Gd121 2.448 . S
O148 C132 1.249 . S
O149 Gd121 2.506 . S
O149 C132 1.252 . S
O150 Gd121 2.435 . S
O150 C139 1.256 . S
O151 Gd120 2.327 . S
O151 Gd121 2.717 . S
O151 C139 1.257 . S
H152 C125 0.930 . S
H153 C126 0.931 . S
H154 C128 0.931 . S
H155 C129 0.931 . S
H156 C134 0.930 . S
H157 C135 0.931 . S
H158 C137 0.931 . S
H159 C138 0.931 . S
Gd160 C163 2.818 1_556 S
Gd160 O180 2.377 1_556 S
Gd160 O182 2.448 1_556 S
Gd160 O183 2.506 1_556 S
Gd160 O184 2.435 . S
Gd160 O185 2.717 . S
Gd160 O187 2.395 . S
Gd160 O191 2.327 1_556 S
Gd161 C172 2.818 1_554 S
Gd161 O181 2.395 . S
Gd161 O185 2.327 1_554 S
Gd161 O186 2.377 1_554 S
Gd161 O188 2.448 1_554 S
Gd161 O189 2.506 1_554 S
Gd161 O190 2.435 . S
Gd161 O191 2.717 . S
C162 O180 1.240 . S
C162 O181 1.240 . S
C163 Gd160 2.818 1_554 S
C163 C164 1.510 . S
C163 O182 1.249 . S
C163 O183 1.252 . S
C164 C163 1.510 . S
C164 C165 1.404 . S
C164 C166 1.352 . S
C165 C164 1.404 . S
C165 C169 1.389 . S
C165 H192 0.930 . S
C166 C164 1.352 . S
C166 C168 1.374 . S
C166 H193 0.931 . S
C167 C168 1.359 . S
C167 C169 1.364 . S
C168 C166 1.374 . S
C168 C167 1.359 . S
C168 H194 0.931 . S
C169 C165 1.389 . S
C169 C167 1.364 . S
C169 H195 0.931 . S
C170 O184 1.256 . S
C170 O185 1.257 . S
C171 O186 1.240 . S
C171 O187 1.240 . S
C172 Gd161 2.818 1_556 S
C172 C173 1.510 . S
C172 O188 1.249 . S
C172 O189 1.252 . S
C173 C172 1.510 . S
C173 C174 1.404 . S
C173 C175 1.352 . S
C174 C173 1.404 . S
C174 C178 1.389 . S
C174 H196 0.930 . S
C175 C173 1.352 . S
C175 C177 1.374 . S
C175 H197 0.931 . S
C176 C177 1.359 . S
C176 C178 1.364 . S
C177 C175 1.374 . S
C177 C176 1.359 . S
C177 H198 0.931 . S
C178 C174 1.389 . S
C178 C176 1.364 . S
C178 H199 0.931 . S
C179 O190 1.256 . S
C179 O191 1.257 . S
O180 Gd160 2.377 1_554 S
O180 C162 1.240 . S
O181 Gd161 2.395 . S
O181 C162 1.240 . S
O182 Gd160 2.448 1_554 S
O182 C163 1.249 . S
O183 Gd160 2.506 1_554 S
O183 C163 1.252 . S
O184 Gd160 2.435 . S
O184 C170 1.256 . S
O185 Gd160 2.717 . S
O185 Gd161 2.327 1_556 S
O185 C170 1.257 . S
O186 Gd161 2.377 1_556 S
O186 C171 1.240 . S
O187 Gd160 2.395 . S
O187 C171 1.240 . S
O188 Gd161 2.448 1_556 S
O188 C172 1.249 . S
O189 Gd161 2.506 1_556 S
O189 C172 1.252 . S
O190 Gd161 2.435 . S
O190 C179 1.256 . S
O191 Gd160 2.327 1_554 S
O191 Gd161 2.717 . S
O191 C179 1.257 . S
H192 C165 0.930 . S
H193 C166 0.931 . S
H194 C168 0.931 . S
H195 C169 0.931 . S
H196 C174 0.930 . S
H197 C175 0.931 . S
H198 C177 0.931 . S
H199 C178 0.931 . S
Gd200 C203 2.818 1_556 S
Gd200 O220 2.377 1_556 S
Gd200 O222 2.448 1_556 S
Gd200 O223 2.506 1_556 S
Gd200 O224 2.435 . S
Gd200 O225 2.717 . S
Gd200 O227 2.395 . S
Gd200 O231 2.327 1_556 S
Gd201 C212 2.818 1_554 S
Gd201 O221 2.395 . S
Gd201 O225 2.327 1_554 S
Gd201 O226 2.377 1_554 S
Gd201 O228 2.448 1_554 S
Gd201 O229 2.506 1_554 S
Gd201 O230 2.435 . S
Gd201 O231 2.717 . S
C202 O220 1.240 . S
C202 O221 1.240 . S
C203 Gd200 2.818 1_554 S
C203 C204 1.510 . S
C203 O222 1.249 . S
C203 O223 1.252 . S
C204 C203 1.510 . S
C204 C205 1.404 . S
C204 C206 1.352 . S
C205 C204 1.404 . S
C205 C209 1.389 . S
C205 H232 0.930 . S
C206 C204 1.352 . S
C206 C208 1.374 . S
C206 H233 0.931 . S
C207 C208 1.359 . S
C207 C209 1.364 . S
C208 C206 1.374 . S
C208 C207 1.359 . S
C208 H234 0.931 . S
C209 C205 1.389 . S
C209 C207 1.364 . S
C209 H235 0.931 . S
C210 O224 1.256 . S
C210 O225 1.257 . S
C211 O226 1.240 . S
C211 O227 1.240 . S
C212 Gd201 2.818 1_556 S
C212 C213 1.510 . S
C212 O228 1.249 . S
C212 O229 1.252 . S
C213 C212 1.510 . S
C213 C214 1.404 . S
C213 C215 1.352 . S
C214 C213 1.404 . S
C214 C218 1.389 . S
C214 H236 0.930 . S
C215 C213 1.352 . S
C215 C217 1.374 . S
C215 H237 0.931 . S
C216 C217 1.359 . S
C216 C218 1.364 . S
C217 C215 1.374 . S
C217 C216 1.359 . S
C217 H238 0.931 . S
C218 C214 1.389 . S
C218 C216 1.364 . S
C218 H239 0.931 . S
C219 O230 1.256 . S
C219 O231 1.257 . S
O220 Gd200 2.377 1_554 S
O220 C202 1.240 . S
O221 Gd201 2.395 . S
O221 C202 1.240 . S
O222 Gd200 2.448 1_554 S
O222 C203 1.249 . S
O223 Gd200 2.506 1_554 S
O223 C203 1.252 . S
O224 Gd200 2.435 . S
O224 C210 1.256 . S
O225 Gd200 2.717 . S
O225 Gd201 2.327 1_556 S
O225 C210 1.257 . S
O226 Gd201 2.377 1_556 S
O226 C211 1.240 . S
O227 Gd200 2.395 . S
O227 C211 1.240 . S
O228 Gd201 2.448 1_556 S
O228 C212 1.249 . S
O229 Gd201 2.506 1_556 S
O229 C212 1.252 . S
O230 Gd201 2.435 . S
O230 C219 1.256 . S
O231 Gd200 2.327 1_554 S
O231 Gd201 2.717 . S
O231 C219 1.257 . S
H232 C205 0.930 . S
H233 C206 0.931 . S
H234 C208 0.931 . S
H235 C209 0.931 . S
H236 C214 0.930 . S
H237 C215 0.931 . S
H238 C217 0.931 . S
H239 C218 0.931 . S
Gd240 C243 2.818 1_556 S
Gd240 O260 2.377 1_556 S
Gd240 O262 2.448 1_556 S
Gd240 O263 2.506 1_556 S
Gd240 O264 2.435 . S
Gd240 O265 2.717 . S
Gd240 O267 2.395 . S
Gd240 O271 2.327 1_556 S
Gd241 C252 2.818 1_554 S
Gd241 O261 2.395 . S
Gd241 O265 2.327 1_554 S
Gd241 O266 2.377 1_554 S
Gd241 O268 2.448 1_554 S
Gd241 O269 2.506 1_554 S
Gd241 O270 2.435 . S
Gd241 O271 2.717 . S
C242 O260 1.240 . S
C242 O261 1.240 . S
C243 Gd240 2.818 1_554 S
C243 C244 1.510 . S
C243 O262 1.249 . S
C243 O263 1.252 . S
C244 C243 1.510 . S
C244 C245 1.404 . S
C244 C246 1.352 . S
C245 C244 1.404 . S
C245 C249 1.389 . S
C245 H272 0.930 . S
C246 C244 1.352 . S
C246 C248 1.374 . S
C246 H273 0.931 . S
C247 C248 1.359 . S
C247 C249 1.364 . S
C248 C246 1.374 . S
C248 C247 1.359 . S
C248 H274 0.931 . S
C249 C245 1.389 . S
C249 C247 1.364 . S
C249 H275 0.931 . S
C250 O264 1.256 . S
C250 O265 1.257 . S
C251 O266 1.240 . S
C251 O267 1.240 . S
C252 Gd241 2.818 1_556 S
C252 C253 1.510 . S
C252 O268 1.249 . S
C252 O269 1.252 . S
C253 C252 1.510 . S
C253 C254 1.404 . S
C253 C255 1.352 . S
C254 C253 1.404 . S
C254 C258 1.389 . S
C254 H276 0.930 . S
C255 C253 1.352 . S
C255 C257 1.374 . S
C255 H277 0.931 . S
C256 C257 1.359 . S
C256 C258 1.364 . S
C257 C255 1.374 . S
C257 C256 1.359 . S
C257 H278 0.931 . S
C258 C254 1.389 . S
C258 C256 1.364 . S
C258 H279 0.931 . S
C259 O270 1.256 . S
C259 O271 1.257 . S
O260 Gd240 2.377 1_554 S
O260 C242 1.240 . S
O261 Gd241 2.395 . S
O261 C242 1.240 . S
O262 Gd240 2.448 1_554 S
O262 C243 1.249 . S
O263 Gd240 2.506 1_554 S
O263 C243 1.252 . S
O264 Gd240 2.435 . S
O264 C250 1.256 . S
O265 Gd240 2.717 . S
O265 Gd241 2.327 1_556 S
O265 C250 1.257 . S
O266 Gd241 2.377 1_556 S
O266 C251 1.240 . S
O267 Gd240 2.395 . S
O267 C251 1.240 . S
O268 Gd241 2.448 1_556 S
O268 C252 1.249 . S
O269 Gd241 2.506 1_556 S
O269 C252 1.252 . S
O270 Gd241 2.435 . S
O270 C259 1.256 . S
O271 Gd240 2.327 1_554 S
O271 Gd241 2.717 . S
O271 C259 1.257 . S
H272 C245 0.930 . S
H273 C246 0.931 . S
H274 C248 0.931 . S
H275 C249 0.931 . S
H276 C254 0.930 . S
H277 C255 0.931 . S
H278 C257 0.931 . S
H279 C258 0.931 . S
Gd280 C283 2.818 1_556 S
Gd280 O300 2.377 1_556 S
Gd280 O302 2.448 1_556 S
Gd280 O303 2.506 1_556 S
Gd280 O304 2.435 . S
Gd280 O305 2.717 . S
Gd280 O307 2.395 . S
Gd280 O311 2.327 1_556 S
Gd281 C292 2.818 1_554 S
Gd281 O301 2.395 . S
Gd281 O305 2.327 1_554 S
Gd281 O306 2.377 1_554 S
Gd281 O308 2.448 1_554 S
Gd281 O309 2.506 1_554 S
Gd281 O310 2.435 . S
Gd281 O311 2.717 . S
C282 O300 1.240 . S
C282 O301 1.240 . S
C283 Gd280 2.818 1_554 S
C283 C284 1.510 . S
C283 O302 1.249 . S
C283 O303 1.252 . S
C284 C283 1.510 . S
C284 C285 1.404 . S
C284 C286 1.352 . S
C285 C284 1.404 . S
C285 C289 1.389 . S
C285 H312 0.930 . S
C286 C284 1.352 . S
C286 C288 1.374 . S
C286 H313 0.931 . S
C287 C288 1.359 . S
C287 C289 1.364 . S
C288 C286 1.374 . S
C288 C287 1.359 . S
C288 H314 0.931 . S
C289 C285 1.389 . S
C289 C287 1.364 . S
C289 H315 0.931 . S
C290 O304 1.256 . S
C290 O305 1.257 . S
C291 O306 1.240 . S
C291 O307 1.240 . S
C292 Gd281 2.818 1_556 S
C292 C293 1.510 . S
C292 O308 1.249 . S
C292 O309 1.252 . S
C293 C292 1.510 . S
C293 C294 1.404 . S
C293 C295 1.352 . S
C294 C293 1.404 . S
C294 C298 1.389 . S
C294 H316 0.930 . S
C295 C293 1.352 . S
C295 C297 1.374 . S
C295 H317 0.931 . S
C296 C297 1.359 . S
C296 C298 1.364 . S
C297 C295 1.374 . S
C297 C296 1.359 . S
C297 H318 0.931 . S
C298 C294 1.389 . S
C298 C296 1.364 . S
C298 H319 0.931 . S
C299 O310 1.256 . S
C299 O311 1.257 . S
O300 Gd280 2.377 1_554 S
O300 C282 1.240 . S
O301 Gd281 2.395 . S
O301 C282 1.240 . S
O302 Gd280 2.448 1_554 S
O302 C283 1.249 . S
O303 Gd280 2.506 1_554 S
O303 C283 1.252 . S
O304 Gd280 2.435 . S
O304 C290 1.256 . S
O305 Gd280 2.717 . S
O305 Gd281 2.327 1_556 S
O305 C290 1.257 . S
O306 Gd281 2.377 1_556 S
O306 C291 1.240 . S
O307 Gd280 2.395 . S
O307 C291 1.240 . S
O308 Gd281 2.448 1_556 S
O308 C292 1.249 . S
O309 Gd281 2.506 1_556 S
O309 C292 1.252 . S
O310 Gd281 2.435 . S
O310 C299 1.256 . S
O311 Gd280 2.327 1_554 S
O311 Gd281 2.717 . S
O311 C299 1.257 . S
H312 C285 0.930 . S
H313 C286 0.931 . S
H314 C288 0.931 . S
H315 C289 0.931 . S
H316 C294 0.930 . S
H317 C295 0.931 . S
H318 C297 0.931 . S
H319 C298 0.931 . S
H320 C332 0.930 . S
H321 C334 0.930 . S
H322 C335 0.930 . S
H323 C339 0.959 . S
H324 C339 0.959 . S
H325 C339 0.961 . S
H326 C340 0.960 . S
H327 C340 0.961 . S
H328 C340 0.959 . S
H329 C343 0.929 . S
H330 C344 0.931 . S
H331 C346 0.930 . S
C332 H320 0.930 . S
C332 C333 1.399 . S
C332 C337 1.399 . S
C333 C332 1.399 . S
C333 C334 1.376 . S
C334 H321 0.930 . S
C334 C333 1.376 . S
C334 C335 1.388 . S
C335 H322 0.930 . S
C335 C334 1.388 . S
C335 C336 1.390 . S
C336 C335 1.390 . S
C336 C337 1.394 . S
C336 C342 1.465 . S
C337 C332 1.399 . S
C337 C336 1.394 . S
C337 C338 1.516 . S
C338 C337 1.516 . S
C338 C339 1.502 . S
C338 C340 1.561 . S
C338 C341 1.526 . S
C339 H323 0.959 . S
C339 H324 0.959 . S
C339 H325 0.961 . S
C339 C338 1.502 . S
C340 H326 0.960 . S
C340 H327 0.961 . S
C340 H328 0.959 . S
C340 C338 1.561 . S
C341 C338 1.526 . S
C341 C342 1.396 . S
C341 C346 1.390 . S
C342 C336 1.465 . S
C342 C341 1.396 . S
C342 C343 1.399 . S
C343 H329 0.929 . S
C343 C342 1.399 . S
C343 C344 1.385 . S
C344 H330 0.931 . S
C344 C343 1.385 . S
C344 C345 1.389 . S
C345 C344 1.389 . S
C345 C346 1.387 . S
C346 H331 0.930 . S
C346 C341 1.390 . S
C346 C345 1.387 . S
H347 C359 0.930 . S
H348 C361 0.930 . S
H349 C362 0.930 . S
H350 C366 0.959 . S
H351 C366 0.959 . S
H352 C366 0.961 . S
H353 C367 0.960 . S
H354 C367 0.961 . S
H355 C367 0.959 . S
H356 C370 0.929 . S
H357 C371 0.931 . S
H358 C373 0.930 . S
C359 H347 0.930 . S
C359 C360 1.399 . S
C359 C364 1.399 . S
C360 C359 1.399 . S
C360 C361 1.376 . S
C361 H348 0.930 . S
C361 C360 1.376 . S
C361 C362 1.388 . S
C362 H349 0.930 . S
C362 C361 1.388 . S
C362 C363 1.390 . S
C363 C362 1.390 . S
C363 C364 1.394 . S
C363 C369 1.465 . S
C364 C359 1.399 . S
C364 C363 1.394 . S
C364 C365 1.516 . S
C365 C364 1.516 . S
C365 C366 1.502 . S
C365 C367 1.561 . S
C365 C368 1.526 . S
C366 H350 0.959 . S
C366 H351 0.959 . S
C366 H352 0.961 . S
C366 C365 1.502 . S
C367 H353 0.960 . S
C367 H354 0.961 . S
C367 H355 0.959 . S
C367 C365 1.561 . S
C368 C365 1.526 . S
C368 C369 1.396 . S
C368 C373 1.390 . S
C369 C363 1.465 . S
C369 C368 1.396 . S
C369 C370 1.399 . S
C370 H356 0.929 . S
C370 C369 1.399 . S
C370 C371 1.385 . S
C371 H357 0.931 . S
C371 C370 1.385 . S
C371 C372 1.389 . S
C372 C371 1.389 . S
C372 C373 1.387 . S
C373 H358 0.930 . S
C373 C368 1.390 . S
C373 C372 1.387 . S
H374 C386 0.930 . S
H375 C388 0.930 . S
H376 C389 0.930 . S
H377 C393 0.959 . S
H378 C393 0.959 . S
H379 C393 0.961 . S
H380 C394 0.960 . S
H381 C394 0.961 . S
H382 C394 0.959 . S
H383 C397 0.929 . S
H384 C398 0.931 . S
H385 C400 0.930 . S
C386 H374 0.930 . S
C386 C387 1.399 . S
C386 C391 1.399 . S
C387 C386 1.399 . S
C387 C388 1.376 . S
C388 H375 0.930 . S
C388 C387 1.376 . S
C388 C389 1.388 . S
C389 H376 0.930 . S
C389 C388 1.388 . S
C389 C390 1.390 . S
C390 C389 1.390 . S
C390 C391 1.394 . S
C390 C396 1.465 . S
C391 C386 1.399 . S
C391 C390 1.394 . S
C391 C392 1.516 . S
C392 C391 1.516 . S
C392 C393 1.502 . S
C392 C394 1.561 . S
C392 C395 1.526 . S
C393 H377 0.959 . S
C393 H378 0.959 . S
C393 H379 0.961 . S
C393 C392 1.502 . S
C394 H380 0.960 . S
C394 H381 0.961 . S
C394 H382 0.959 . S
C394 C392 1.561 . S
C395 C392 1.526 . S
C395 C396 1.396 . S
C395 C400 1.390 . S
C396 C390 1.465 . S
C396 C395 1.396 . S
C396 C397 1.399 . S
C397 H383 0.929 . S
C397 C396 1.399 . S
C397 C398 1.385 . S
C398 H384 0.931 . S
C398 C397 1.385 . S
C398 C399 1.389 . S
C399 C398 1.389 . S
C399 C400 1.387 . S
C400 H385 0.930 . S
C400 C395 1.390 . S
C400 C399 1.387 . S
H401 C413 0.930 . S
H402 C415 0.930 . S
H403 C416 0.930 . S
H404 C420 0.959 . S
H405 C420 0.959 . S
H406 C420 0.961 . S
H407 C421 0.960 . S
H408 C421 0.961 . S
H409 C421 0.959 . S
H410 C424 0.929 . S
H411 C425 0.931 . S
H412 C427 0.930 . S
C413 H401 0.930 . S
C413 C414 1.399 . S
C413 C418 1.399 . S
C414 C413 1.399 . S
C414 C415 1.376 . S
C415 H402 0.930 . S
C415 C414 1.376 . S
C415 C416 1.388 . S
C416 H403 0.930 . S
C416 C415 1.388 . S
C416 C417 1.390 . S
C417 C416 1.390 . S
C417 C418 1.394 . S
C417 C423 1.465 . S
C418 C413 1.399 . S
C418 C417 1.394 . S
C418 C419 1.516 . S
C419 C418 1.516 . S
C419 C420 1.502 . S
C419 C421 1.561 . S
C419 C422 1.526 . S
C420 H404 0.959 . S
C420 H405 0.959 . S
C420 H406 0.961 . S
C420 C419 1.502 . S
C421 H407 0.960 . S
C421 H408 0.961 . S
C421 H409 0.959 . S
C421 C419 1.561 . S
C422 C419 1.526 . S
C422 C423 1.396 . S
C422 C427 1.390 . S
C423 C417 1.465 . S
C423 C422 1.396 . S
C423 C424 1.399 . S
C424 H410 0.929 . S
C424 C423 1.399 . S
C424 C425 1.385 . S
C425 H411 0.931 . S
C425 C424 1.385 . S
C425 C426 1.389 . S
C426 C425 1.389 . S
C426 C427 1.387 . S
C427 H412 0.930 . S
C427 C422 1.390 . S
C427 C426 1.387 . S
H428 C440 0.930 . S
H429 C442 0.930 . S
H430 C443 0.930 . S
H431 C447 0.959 . S
H432 C447 0.959 . S
H433 C447 0.961 . S
H434 C448 0.960 1_565 S
H435 C448 0.961 . S
H436 C448 0.959 . S
H437 C451 0.929 . S
H438 C452 0.931 . S
H439 C454 0.930 . S
C440 H428 0.930 . S
C440 C441 1.399 . S
C440 C445 1.399 . S
C441 C440 1.399 . S
C441 C442 1.376 . S
C442 H429 0.930 . S
C442 C441 1.376 . S
C442 C443 1.388 . S
C443 H430 0.930 . S
C443 C442 1.388 . S
C443 C444 1.390 . S
C444 C443 1.390 . S
C444 C445 1.394 . S
C444 C450 1.465 1_565 S
C445 C440 1.399 . S
C445 C444 1.394 . S
C445 C446 1.516 1_565 S
C446 C445 1.516 1_545 S
C446 C447 1.502 . S
C446 C448 1.561 . S
C446 C449 1.526 . S
C447 H431 0.959 . S
C447 H432 0.959 . S
C447 H433 0.961 . S
C447 C446 1.502 . S
C448 H434 0.960 1_545 S
C448 H435 0.961 . S
C448 H436 0.959 . S
C448 C446 1.561 . S
C449 C446 1.526 . S
C449 C450 1.396 . S
C449 C454 1.390 . S
C450 C444 1.465 1_545 S
C450 C449 1.396 . S
C450 C451 1.399 . S
C451 H437 0.929 . S
C451 C450 1.399 . S
C451 C452 1.385 . S
C452 H438 0.931 . S
C452 C451 1.385 . S
C452 C453 1.389 . S
C453 C452 1.389 . S
C453 C454 1.387 . S
C454 H439 0.930 . S
C454 C449 1.390 . S
C454 C453 1.387 . S
H455 C467 0.930 . S
H456 C469 0.930 . S
H457 C470 0.930 . S
H458 C474 0.959 . S
H459 C474 0.959 . S
H460 C474 0.961 . S
H461 C475 0.960 . S
H462 C475 0.961 . S
H463 C475 0.959 . S
H464 C478 0.929 . S
H465 C479 0.931 . S
H466 C481 0.930 . S
C467 H455 0.930 . S
C467 C468 1.399 . S
C467 C472 1.399 . S
C468 C467 1.399 . S
C468 C469 1.376 . S
C469 H456 0.930 . S
C469 C468 1.376 . S
C469 C470 1.388 . S
C470 H457 0.930 . S
C470 C469 1.388 . S
C470 C471 1.390 . S
C471 C470 1.390 . S
C471 C472 1.394 . S
C471 C477 1.465 . S
C472 C467 1.399 . S
C472 C471 1.394 . S
C472 C473 1.516 . S
C473 C472 1.516 . S
C473 C474 1.502 . S
C473 C475 1.561 . S
C473 C476 1.526 . S
C474 H458 0.959 . S
C474 H459 0.959 . S
C474 H460 0.961 . S
C474 C473 1.502 . S
C475 H461 0.960 . S
C475 H462 0.961 . S
C475 H463 0.959 . S
C475 C473 1.561 . S
C476 C473 1.526 . S
C476 C477 1.396 . S
C476 C481 1.390 . S
C477 C471 1.465 . S
C477 C476 1.396 . S
C477 C478 1.399 . S
C478 H464 0.929 . S
C478 C477 1.399 . S
C478 C479 1.385 . S
C479 H465 0.931 . S
C479 C478 1.385 . S
C479 C480 1.389 . S
C480 C479 1.389 . S
C480 C481 1.387 . S
C481 H466 0.930 . S
C481 C476 1.390 . S
C481 C480 1.387 . S
H482 C494 0.930 . S
H483 C496 0.930 . S
H484 C497 0.930 . S
H485 C501 0.959 . S
H486 C501 0.959 . S
H487 C501 0.961 . S
H488 C502 0.960 . S
H489 C502 0.961 . S
H490 C502 0.959 . S
H491 C505 0.929 . S
H492 C506 0.931 . S
H493 C508 0.930 . S
C494 H482 0.930 . S
C494 C495 1.399 . S
C494 C499 1.399 . S
C495 C494 1.399 . S
C495 C496 1.376 . S
C496 H483 0.930 . S
C496 C495 1.376 . S
C496 C497 1.388 . S
C497 H484 0.930 . S
C497 C496 1.388 . S
C497 C498 1.390 . S
C498 C497 1.390 . S
C498 C499 1.394 . S
C498 C504 1.465 1_565 S
C499 C494 1.399 . S
C499 C498 1.394 . S
C499 C500 1.516 1_565 S
C500 C499 1.516 1_545 S
C500 C501 1.502 . S
C500 C502 1.561 . S
C500 C503 1.526 . S
C501 H485 0.959 . S
C501 H486 0.959 . S
C501 H487 0.961 . S
C501 C500 1.502 . S
C502 H488 0.960 . S
C502 H489 0.961 . S
C502 H490 0.959 . S
C502 C500 1.561 . S
C503 C500 1.526 . S
C503 C504 1.396 . S
C503 C508 1.390 . S
C504 C498 1.465 1_545 S
C504 C503 1.396 . S
C504 C505 1.399 . S
C505 H491 0.929 . S
C505 C504 1.399 . S
C505 C506 1.385 . S
C506 H492 0.931 . S
C506 C505 1.385 . S
C506 C507 1.389 . S
C507 C506 1.389 . S
C507 C508 1.387 . S
C508 H493 0.930 . S
C508 C503 1.390 . S
C508 C507 1.387 . S
H509 C521 0.930 . S
H510 C523 0.930 . S
H511 C524 0.930 . S
H512 C528 0.959 . S
H513 C528 0.959 . S
H514 C528 0.961 . S
H515 C529 0.960 . S
H516 C529 0.961 . S
H517 C529 0.959 . S
H518 C532 0.929 . S
H519 C533 0.931 . S
H520 C535 0.930 . S
C521 H509 0.930 . S
C521 C522 1.399 . S
C521 C526 1.399 . S
C522 C521 1.399 . S
C522 C523 1.376 . S
C523 H510 0.930 . S
C523 C522 1.376 . S
C523 C524 1.388 . S
C524 H511 0.930 . S
C524 C523 1.388 . S
C524 C525 1.390 . S
C525 C524 1.390 . S
C525 C526 1.394 . S
C525 C531 1.465 . S
C526 C521 1.399 . S
C526 C525 1.394 . S
C526 C527 1.516 . S
C527 C526 1.516 . S
C527 C528 1.502 . S
C527 C529 1.561 . S
C527 C530 1.526 . S
C528 H512 0.959 . S
C528 H513 0.959 . S
C528 H514 0.961 . S
C528 C527 1.502 . S
C529 H515 0.960 . S
C529 H516 0.961 . S
C529 H517 0.959 . S
C529 C527 1.561 . S
C530 C527 1.526 . S
C530 C531 1.396 . S
C530 C535 1.390 . S
C531 C525 1.465 . S
C531 C530 1.396 . S
C531 C532 1.399 . S
C532 H518 0.929 . S
C532 C531 1.399 . S
C532 C533 1.385 . S
C533 H519 0.931 . S
C533 C532 1.385 . S
C533 C534 1.389 . S
C534 C533 1.389 . S
C534 C535 1.387 . S
C535 H520 0.930 . S
C535 C530 1.390 . S
C535 C534 1.387 . S
H536 C548 0.930 . S
H537 C550 0.930 . S
H538 C551 0.930 . S
H539 C555 0.959 . S
H540 C555 0.959 . S
H541 C555 0.961 . S
H542 C556 0.960 . S
H543 C556 0.961 . S
H544 C556 0.959 . S
H545 C559 0.929 . S
H546 C560 0.931 . S
H547 C562 0.930 . S
C548 H536 0.930 . S
C548 C549 1.399 1_554 S
C548 C553 1.399 . S
C549 C548 1.399 1_556 S
C549 C550 1.376 . S
C550 H537 0.930 . S
C550 C549 1.376 . S
C550 C551 1.388 . S
C551 H538 0.930 . S
C551 C550 1.388 . S
C551 C552 1.390 . S
C552 C551 1.390 . S
C552 C553 1.394 1_556 S
C552 C558 1.465 . S
C553 C548 1.399 . S
C553 C552 1.394 1_554 S
C553 C554 1.516 . S
C554 C553 1.516 . S
C554 C555 1.502 . S
C554 C556 1.561 . S
C554 C557 1.526 . S
C555 H539 0.959 . S
C555 H540 0.959 . S
C555 H541 0.961 . S
C555 C554 1.502 . S
C556 H542 0.960 . S
C556 H543 0.961 . S
C556 H544 0.959 . S
C556 C554 1.561 . S
C557 C554 1.526 . S
C557 C558 1.396 1_554 S
C557 C562 1.390 . S
C558 C552 1.465 . S
C558 C557 1.396 1_556 S
C558 C559 1.399 . S
C559 H545 0.929 . S
C559 C558 1.399 . S
C559 C560 1.385 . S
C560 H546 0.931 . S
C560 C559 1.385 . S
C560 C561 1.389 . S
C561 C560 1.389 . S
C561 C562 1.387 1_556 S
C562 H547 0.930 . S
C562 C557 1.390 . S
C562 C561 1.387 1_554 S
H563 C575 0.930 . S
H564 C577 0.930 . S
H565 C578 0.930 . S
H566 C582 0.959 . S
H567 C582 0.959 1_545 S
H568 C582 0.961 . S
H569 C583 0.960 1_565 S
H570 C583 0.961 . S
H571 C583 0.959 . S
H572 C586 0.929 . S
H573 C587 0.931 . S
H574 C589 0.930 . S
C575 H563 0.930 . S
C575 C576 1.389 1_556 S
C575 C580 1.399 . S
C576 C575 1.389 1_554 S
C576 C577 1.389 . S
C577 H564 0.930 . S
C577 C576 1.389 . S
C577 C578 1.388 . S
C578 H565 0.930 . S
C578 C577 1.388 . S
C578 C579 1.390 . S
C579 C578 1.390 . S
C579 C580 1.394 1_554 S
C579 C585 1.465 1_565 S
C580 C575 1.399 . S
C580 C579 1.394 1_556 S
C580 C581 1.508 1_565 S
C581 C580 1.508 1_545 S
C581 C582 1.502 1_545 S
C581 C583 1.561 . S
C581 C584 1.533 . S
C582 H566 0.959 . S
C582 H567 0.959 1_565 S
C582 H568 0.961 . S
C582 C581 1.502 1_565 S
C583 H569 0.960 1_545 S
C583 H570 0.961 . S
C583 H571 0.959 . S
C583 C581 1.561 . S
C584 C581 1.533 . S
C584 C585 1.396 1_556 S
C584 C589 1.390 . S
C585 C579 1.465 1_545 S
C585 C584 1.396 1_554 S
C585 C586 1.399 . S
C586 H572 0.929 . S
C586 C585 1.399 . S
C586 C587 1.385 . S
C587 H573 0.931 . S
C587 C586 1.385 . S
C587 C588 1.389 . S
C588 C587 1.389 . S
C588 C589 1.387 1_554 S
C589 H574 0.930 . S
C589 C584 1.390 . S
C589 C588 1.387 1_556 S
H590 C602 0.930 . S
H591 C604 0.930 . S
H592 C605 0.930 . S
H593 C609 0.959 . S
H594 C609 0.959 . S
H595 C609 0.961 . S
H596 C610 0.960 . S
H597 C610 0.961 . S
H598 C610 0.959 . S
H599 C613 0.929 . S
H600 C614 0.931 . S
H601 C616 0.930 . S
C602 H590 0.930 . S
C602 C603 1.399 1_554 S
C602 C607 1.399 . S
C603 C602 1.399 1_556 S
C603 C604 1.376 . S
C604 H591 0.930 . S
C604 C603 1.376 . S
C604 C605 1.388 . S
C605 H592 0.930 . S
C605 C604 1.388 . S
C605 C606 1.390 . S
C606 C605 1.390 . S
C606 C607 1.394 1_556 S
C606 C612 1.465 . S
C607 C602 1.399 . S
C607 C606 1.394 1_554 S
C607 C608 1.516 . S
C608 C607 1.516 . S
C608 C609 1.502 . S
C608 C610 1.561 . S
C608 C611 1.526 . S
C609 H593 0.959 . S
C609 H594 0.959 . S
C609 H595 0.961 . S
C609 C608 1.502 . S
C610 H596 0.960 . S
C610 H597 0.961 . S
C610 H598 0.959 . S
C610 C608 1.561 . S
C611 C608 1.526 . S
C611 C612 1.396 1_554 S
C611 C616 1.390 . S
C612 C606 1.465 . S
C612 C611 1.396 1_556 S
C612 C613 1.399 . S
C613 H599 0.929 . S
C613 C612 1.399 . S
C613 C614 1.385 . S
C614 H600 0.931 . S
C614 C613 1.385 . S
C614 C615 1.389 . S
C615 C614 1.389 . S
C615 C616 1.387 1_556 S
C616 H601 0.930 . S
C616 C611 1.390 . S
C616 C615 1.387 1_554 S
H617 C629 0.930 . S
H618 C631 0.930 . S
H619 C632 0.930 . S
H620 C636 0.959 . S
H621 C636 0.959 . S
H622 C636 0.961 1_545 S
H623 C637 0.960 . S
H624 C637 0.961 1_565 S
H625 C637 0.959 . S
H626 C640 0.929 . S
H627 C641 0.931 . S
H628 C643 0.930 . S
C629 H617 0.930 . S
C629 C630 1.399 1_554 S
C629 C634 1.399 . S
C630 C629 1.399 1_556 S
C630 C631 1.376 . S
C631 H618 0.930 . S
C631 C630 1.376 . S
C631 C632 1.388 . S
C632 H619 0.930 . S
C632 C631 1.388 . S
C632 C633 1.390 . S
C633 C632 1.390 . S
C633 C634 1.394 1_556 S
C633 C639 1.465 1_545 S
C634 C629 1.399 . S
C634 C633 1.394 1_554 S
C634 C635 1.516 1_545 S
C635 C634 1.516 1_565 S
C635 C636 1.502 . S
C635 C637 1.561 1_565 S
C635 C638 1.526 . S
C636 H620 0.959 . S
C636 H621 0.959 . S
C636 H622 0.961 1_565 S
C636 C635 1.502 . S
C637 H623 0.960 . S
C637 H624 0.961 1_545 S
C637 H625 0.959 . S
C637 C635 1.561 1_545 S
C638 C635 1.526 . S
C638 C639 1.396 1_554 S
C638 C643 1.390 . S
C639 C633 1.465 1_565 S
C639 C638 1.396 1_556 S
C639 C640 1.399 . S
C640 H626 0.929 . S
C640 C639 1.399 . S
C640 C641 1.385 . S
C641 H627 0.931 . S
C641 C640 1.385 . S
C641 C642 1.389 . S
C642 C641 1.389 . S
C642 C643 1.387 1_556 S
C643 H628 0.930 . S
C643 C638 1.390 . S
C643 C642 1.387 1_554 S
H644 C656 0.930 . S
H645 C658 0.930 . S
H646 C659 0.930 . S
H647 C663 0.959 . S
H648 C663 0.959 . S
H649 C663 0.961 . S
H650 C664 0.954 1_554 S
H651 C664 0.961 . S
H652 C664 0.959 . S
H653 C667 0.929 . S
H654 C668 0.931 . S
H655 C670 0.930 . S
C656 H644 0.930 . S
C656 C657 1.399 . S
C656 C661 1.399 . S
C657 C656 1.399 . S
C657 C658 1.376 . S
C658 H645 0.930 . S
C658 C657 1.376 . S
C658 C659 1.388 . S
C659 H646 0.930 . S
C659 C658 1.388 . S
C659 C660 1.390 1_554 S
C660 C659 1.390 1_556 S
C660 C661 1.394 1_556 S
C660 C666 1.465 . S
C661 C656 1.399 . S
C661 C660 1.394 1_554 S
C661 C662 1.516 1_554 S
C662 C661 1.516 1_556 S
C662 C663 1.502 . S
C662 C664 1.561 . S
C662 C665 1.526 . S
C663 H647 0.959 . S
C663 H648 0.959 . S
C663 H649 0.961 . S
C663 C662 1.502 . S
C664 H650 0.954 1_556 S
C664 H651 0.961 . S
C664 H652 0.959 . S
C664 C662 1.561 . S
C665 C662 1.526 . S
C665 C666 1.396 . S
C665 C670 1.390 . S
C666 C660 1.465 . S
C666 C665 1.396 . S
C666 C667 1.399 . S
C667 H653 0.929 . S
C667 C666 1.399 . S
C667 C668 1.385 . S
C668 H654 0.931 . S
C668 C667 1.385 . S
C668 C669 1.389 . S
C669 C668 1.389 . S
C669 C670 1.387 . S
C670 H655 0.930 . S
C670 C665 1.390 . S
C670 C669 1.387 . S
H671 C683 0.930 . S
H672 C685 0.930 . S
H673 C686 0.930 . S
H674 C690 0.959 . S
H675 C690 0.959 . S
H676 C690 0.961 . S
H677 C691 0.960 . S
H678 C691 0.961 . S
H679 C691 0.959 . S
H680 C694 0.929 . S
H681 C695 0.931 . S
H682 C697 0.930 . S
C683 H671 0.930 . S
C683 C684 1.399 . S
C683 C688 1.399 . S
C684 C683 1.399 . S
C684 C685 1.376 . S
C685 H672 0.930 . S
C685 C684 1.376 . S
C685 C686 1.388 . S
C686 H673 0.930 . S
C686 C685 1.388 . S
C686 C687 1.390 1_554 S
C687 C686 1.390 1_556 S
C687 C688 1.394 1_556 S
C687 C693 1.465 . S
C688 C683 1.399 . S
C688 C687 1.394 1_554 S
C688 C689 1.516 1_554 S
C689 C688 1.516 1_556 S
C689 C690 1.502 . S
C689 C691 1.561 . S
C689 C692 1.526 . S
C690 H674 0.959 . S
C690 H675 0.959 . S
C690 H676 0.961 . S
C690 C689 1.502 . S
C691 H677 0.960 . S
C691 H678 0.961 . S
C691 H679 0.959 . S
C691 C689 1.561 . S
C692 C689 1.526 . S
C692 C693 1.396 . S
C692 C697 1.390 . S
C693 C687 1.465 . S
C693 C692 1.396 . S
C693 C694 1.399 . S
C694 H680 0.929 . S
C694 C693 1.399 . S
C694 C695 1.385 . S
C695 H681 0.931 . S
C695 C694 1.385 . S
C695 C696 1.389 . S
C696 C695 1.389 . S
C696 C697 1.387 . S
C697 H682 0.930 . S
C697 C692 1.390 . S
C697 C696 1.387 . S
H698 C710 0.930 . S
H699 C712 0.930 . S
H700 C713 0.930 . S
H701 C717 0.959 . S
H702 C717 0.959 . S
H703 C717 0.961 . S
H704 C718 0.960 . S
H705 C718 0.961 . S
H706 C718 0.959 . S
H707 C721 0.929 . S
H708 C722 0.931 . S
H709 C724 0.930 . S
C710 H698 0.930 . S
C710 C711 1.399 . S
C710 C715 1.399 . S
C711 C710 1.399 . S
C711 C712 1.376 . S
C712 H699 0.930 . S
C712 C711 1.376 . S
C712 C713 1.388 . S
C713 H700 0.930 . S
C713 C712 1.388 . S
C713 C714 1.390 . S
C714 C713 1.390 . S
C714 C715 1.394 . S
C714 C720 1.465 . S
C715 C710 1.399 . S
C715 C714 1.394 . S
C715 C716 1.516 . S
C716 C715 1.516 . S
C716 C717 1.502 . S
C716 C718 1.561 . S
C716 C719 1.526 1_554 S
C717 H701 0.959 . S
C717 H702 0.959 . S
C717 H703 0.961 . S
C717 C716 1.502 . S
C718 H704 0.960 . S
C718 H705 0.961 . S
C718 H706 0.959 . S
C718 C716 1.561 . S
C719 C716 1.526 1_556 S
C719 C720 1.396 1_556 S
C719 C724 1.390 . S
C720 C714 1.465 . S
C720 C719 1.396 1_554 S
C720 C721 1.399 1_554 S
C721 H707 0.929 . S
C721 C720 1.399 1_556 S
C721 C722 1.385 . S
C722 H708 0.931 . S
C722 C721 1.385 . S
C722 C723 1.389 . S
C723 C722 1.389 . S
C723 C724 1.387 . S
C724 H709 0.930 . S
C724 C719 1.390 . S
C724 C723 1.387 . S
H725 C737 0.930 . S
H726 C739 0.930 . S
H727 C740 0.930 . S
H728 C744 0.959 . S
H729 C744 0.959 . S
H730 C744 0.961 . S
H731 C745 0.960 . S
H732 C745 0.961 . S
H733 C745 0.959 . S
H734 C748 0.929 . S
H735 C749 0.931 . S
H736 C751 0.930 . S
C737 H725 0.930 . S
C737 C738 1.399 . S
C737 C742 1.399 . S
C738 C737 1.399 . S
C738 C739 1.376 . S
C739 H726 0.930 . S
C739 C738 1.376 . S
C739 C740 1.388 . S
C740 H727 0.930 . S
C740 C739 1.388 . S
C740 C741 1.390 1_556 S
C741 C740 1.390 1_554 S
C741 C742 1.394 1_554 S
C741 C747 1.465 . S
C742 C737 1.399 . S
C742 C741 1.394 1_556 S
C742 C743 1.516 1_556 S
C743 C742 1.516 1_554 S
C743 C744 1.502 . S
C743 C745 1.561 . S
C743 C746 1.526 . S
C744 H728 0.959 . S
C744 H729 0.959 . S
C744 H730 0.961 . S
C744 C743 1.502 . S
C745 H731 0.960 . S
C745 H732 0.961 . S
C745 H733 0.959 . S
C745 C743 1.561 . S
C746 C743 1.526 . S
C746 C747 1.396 . S
C746 C751 1.390 . S
C747 C741 1.465 . S
C747 C746 1.396 . S
C747 C748 1.399 . S
C748 H734 0.929 . S
C748 C747 1.399 . S
C748 C749 1.385 . S
C749 H735 0.931 . S
C749 C748 1.385 . S
C749 C750 1.389 . S
C750 C749 1.389 . S
C750 C751 1.387 . S
C751 H736 0.930 . S
C751 C746 1.390 . S
C751 C750 1.387 . S
H752 C764 0.930 . S
H753 C766 0.930 . S
H754 C767 0.930 . S
H755 C771 0.959 . S
H756 C771 0.959 . S
H757 C771 0.961 . S
H758 C772 0.960 . S
H759 C772 0.961 . S
H760 C772 0.959 . S
H761 C775 0.929 . S
H762 C776 0.931 . S
H763 C778 0.930 . S
C764 H752 0.930 . S
C764 C765 1.399 . S
C764 C769 1.399 . S
C765 C764 1.399 . S
C765 C766 1.376 . S
C766 H753 0.930 . S
C766 C765 1.376 . S
C766 C767 1.388 . S
C767 H754 0.930 . S
C767 C766 1.388 . S
C767 C768 1.390 . S
C768 C767 1.390 . S
C768 C769 1.394 . S
C768 C774 1.465 . S
C769 C764 1.399 . S
C769 C768 1.394 . S
C769 C770 1.516 . S
C770 C769 1.516 . S
C770 C771 1.502 . S
C770 C772 1.561 . S
C770 C773 1.526 . S
C771 H755 0.959 . S
C771 H756 0.959 . S
C771 H757 0.961 . S
C771 C770 1.502 . S
C772 H758 0.960 . S
C772 H759 0.961 . S
C772 H760 0.959 . S
C772 C770 1.561 . S
C773 C770 1.526 . S
C773 C774 1.396 . S
C773 C778 1.390 . S
C774 C768 1.465 . S
C774 C773 1.396 . S
C774 C775 1.399 . S
C775 H761 0.929 . S
C775 C774 1.399 . S
C775 C776 1.385 . S
C776 H762 0.931 . S
C776 C775 1.385 . S
C776 C777 1.389 . S
C777 C776 1.389 . S
C777 C778 1.387 . S
C778 H763 0.930 . S
C778 C773 1.390 . S
C778 C777 1.387 . S
H779 C791 0.930 . S
H780 C793 0.930 . S
H781 C794 0.930 . S
H782 C798 0.959 . S
H783 C798 0.959 . S
H784 C798 0.961 . S
H785 C799 0.960 . S
H786 C799 0.961 . S
H787 C799 0.959 . S
H788 C802 0.929 . S
H789 C803 0.931 . S
H790 C805 0.930 . S
C791 H779 0.930 . S
C791 C792 1.399 . S
C791 C796 1.399 . S
C792 C791 1.399 . S
C792 C793 1.376 . S
C793 H780 0.930 . S
C793 C792 1.376 . S
C793 C794 1.388 . S
C794 H781 0.930 . S
C794 C793 1.388 . S
C794 C795 1.390 . S
C795 C794 1.390 . S
C795 C796 1.394 . S
C795 C801 1.465 . S
C796 C791 1.399 . S
C796 C795 1.394 . S
C796 C797 1.516 . S
C797 C796 1.516 . S
C797 C798 1.502 . S
C797 C799 1.561 . S
C797 C800 1.526 . S
C798 H782 0.959 . S
C798 H783 0.959 . S
C798 H784 0.961 . S
C798 C797 1.502 . S
C799 H785 0.960 . S
C799 H786 0.961 . S
C799 H787 0.959 . S
C799 C797 1.561 . S
C800 C797 1.526 . S
C800 C801 1.396 . S
C800 C805 1.390 . S
C801 C795 1.465 . S
C801 C800 1.396 . S
C801 C802 1.399 . S
C802 H788 0.929 . S
C802 C801 1.399 . S
C802 C803 1.385 . S
C803 H789 0.931 . S
C803 C802 1.385 . S
C803 C804 1.389 . S
C804 C803 1.389 . S
C804 C805 1.387 . S
C805 H790 0.930 . S
C805 C800 1.390 . S
C805 C804 1.387 . S
H806 C818 0.930 . S
H807 C820 0.930 . S
H808 C821 0.930 . S
H809 C825 0.959 . S
H810 C825 0.959 . S
H811 C825 0.961 . S
H812 C826 0.960 . S
H813 C826 0.961 . S
H814 C826 0.959 . S
H815 C829 0.929 . S
H816 C830 0.931 . S
H817 C832 0.930 . S
C818 H806 0.930 . S
C818 C819 1.399 . S
C818 C823 1.399 . S
C819 C818 1.399 . S
C819 C820 1.376 . S
C820 H807 0.930 . S
C820 C819 1.376 . S
C820 C821 1.388 . S
C821 H808 0.930 . S
C821 C820 1.388 . S
C821 C822 1.390 . S
C822 C821 1.390 . S
C822 C823 1.394 . S
C822 C828 1.465 . S
C823 C818 1.399 . S
C823 C822 1.394 . S
C823 C824 1.516 . S
C824 C823 1.516 . S
C824 C825 1.502 . S
C824 C826 1.561 . S
C824 C827 1.526 . S
C825 H809 0.959 . S
C825 H810 0.959 . S
C825 H811 0.961 . S
C825 C824 1.502 . S
C826 H812 0.960 . S
C826 H813 0.961 . S
C826 H814 0.959 . S
C826 C824 1.561 . S
C827 C824 1.526 . S
C827 C828 1.396 . S
C827 C832 1.390 . S
C828 C822 1.465 . S
C828 C827 1.396 . S
C828 C829 1.399 . S
C829 H815 0.929 . S
C829 C828 1.399 . S
C829 C830 1.385 . S
C830 H816 0.931 . S
C830 C829 1.385 . S
C830 C831 1.389 . S
C831 C830 1.389 . S
C831 C832 1.387 . S
C832 H817 0.930 . S
C832 C827 1.390 . S
C832 C831 1.387 . S
H833 C845 0.930 . S
H834 C847 0.930 . S
H835 C848 0.930 . S
H836 C852 0.959 . S
H837 C852 0.959 . S
H838 C852 0.961 . S
H839 C853 0.960 . S
H840 C853 0.961 . S
H841 C853 0.959 . S
H842 C856 0.929 . S
H843 C857 0.931 . S
H844 C859 0.930 . S
C845 H833 0.930 . S
C845 C846 1.399 . S
C845 C850 1.399 . S
C846 C845 1.399 . S
C846 C847 1.376 . S
C847 H834 0.930 . S
C847 C846 1.376 . S
C847 C848 1.388 . S
C848 H835 0.930 . S
C848 C847 1.388 . S
C848 C849 1.390 . S
C849 C848 1.390 . S
C849 C850 1.394 . S
C849 C855 1.465 . S
C850 C845 1.399 . S
C850 C849 1.394 . S
C850 C851 1.516 . S
C851 C850 1.516 . S
C851 C852 1.502 . S
C851 C853 1.561 . S
C851 C854 1.526 . S
C852 H836 0.959 . S
C852 H837 0.959 . S
C852 H838 0.961 . S
C852 C851 1.502 . S
C853 H839 0.960 . S
C853 H840 0.961 . S
C853 H841 0.959 . S
C853 C851 1.561 . S
C854 C851 1.526 . S
C854 C855 1.396 . S
C854 C859 1.390 . S
C855 C849 1.465 . S
C855 C854 1.396 . S
C855 C856 1.399 . S
C856 H842 0.929 . S
C856 C855 1.399 . S
C856 C857 1.385 . S
C857 H843 0.931 . S
C857 C856 1.385 . S
C857 C858 1.389 . S
C858 C857 1.389 . S
C858 C859 1.387 . S
C859 H844 0.930 . S
C859 C854 1.390 . S
C859 C858 1.387 . S
H860 C872 0.930 . S
H861 C874 0.930 . S
H862 C875 0.930 . S
H863 C879 0.966 . S
H864 C879 1.005 . S
H865 C879 0.913 1_455 S
H866 C880 0.960 . S
H867 C880 0.961 1_655 S
H868 C880 0.959 . S
H869 C883 0.929 . S
H870 C884 0.931 . S
H871 C886 0.930 . S
C872 H860 0.930 . S
C872 C873 1.399 . S
C872 C877 1.399 . S
C873 C872 1.399 . S
C873 C874 1.376 . S
C874 H861 0.930 . S
C874 C873 1.376 . S
C874 C875 1.388 . S
C875 H862 0.930 . S
C875 C874 1.388 . S
C875 C876 1.390 . S
C876 C875 1.390 . S
C876 C877 1.394 . S
C876 C882 1.465 1_455 S
C877 C872 1.399 . S
C877 C876 1.394 . S
C877 C878 1.557 . S
C878 C877 1.557 . S
C878 C879 1.504 1_455 S
C878 C880 1.562 . S
C878 C881 1.486 1_455 S
C879 H863 0.966 . S
C879 H864 1.005 . S
C879 H865 0.913 1_655 S
C879 C878 1.504 1_655 S
C880 H866 0.960 . S
C880 H867 0.961 1_455 S
C880 H868 0.959 . S
C880 C878 1.562 . S
C881 C878 1.486 1_655 S
C881 C882 1.396 . S
C881 C886 1.390 . S
C882 C876 1.465 1_655 S
C882 C881 1.396 . S
C882 C883 1.399 . S
C883 H869 0.929 . S
C883 C882 1.399 . S
C883 C884 1.385 . S
C884 H870 0.931 . S
C884 C883 1.385 . S
C884 C885 1.389 . S
C885 C884 1.389 . S
C885 C886 1.387 . S
C886 H871 0.930 . S
C886 C881 1.390 . S
C886 C885 1.387 . S
H887 C899 0.930 . S
H888 C901 0.930 . S
H889 C902 0.930 . S
H890 C906 0.959 . S
H891 C906 0.959 . S
H892 C906 0.961 1_655 S
H893 C907 0.960 . S
H894 C907 0.961 1_455 S
H895 C907 0.959 . S
H896 C910 0.929 . S
H897 C911 0.931 . S
H898 C913 0.930 . S
C899 H887 0.930 . S
C899 C900 1.399 . S
C899 C904 1.399 . S
C900 C899 1.399 . S
C900 C901 1.376 . S
C901 H888 0.930 . S
C901 C900 1.376 . S
C901 C902 1.388 . S
C902 H889 0.930 . S
C902 C901 1.388 . S
C902 C903 1.390 . S
C903 C902 1.390 . S
C903 C904 1.394 . S
C903 C909 1.465 1_655 S
C904 C899 1.399 . S
C904 C903 1.394 . S
C904 C905 1.496 1_655 S
C905 C904 1.496 1_455 S
C905 C906 1.502 . S
C905 C907 1.562 1_455 S
C905 C908 1.546 . S
C906 H890 0.959 . S
C906 H891 0.959 . S
C906 H892 0.961 1_455 S
C906 C905 1.502 . S
C907 H893 0.960 . S
C907 H894 0.961 1_655 S
C907 H895 0.959 . S
C907 C905 1.562 1_655 S
C908 C905 1.546 . S
C908 C909 1.396 . S
C908 C913 1.390 . S
C909 C903 1.465 1_455 S
C909 C908 1.396 . S
C909 C910 1.399 . S
C910 H896 0.929 . S
C910 C909 1.399 . S
C910 C911 1.385 . S
C911 H897 0.931 . S
C911 C910 1.385 . S
C911 C912 1.389 . S
C912 C911 1.389 . S
C912 C913 1.387 . S
C913 H898 0.930 . S
C913 C908 1.390 . S
C913 C912 1.387 . S
H914 C926 0.930 . S
H915 C928 0.930 . S
H916 C929 0.930 . S
H917 C933 0.959 . S
H918 C933 0.959 . S
H919 C933 0.961 . S
H920 C934 0.960 . S
H921 C934 0.961 . S
H922 C934 0.959 . S
H923 C937 0.929 . S
H924 C938 0.931 . S
H925 C940 0.930 . S
C926 H914 0.930 . S
C926 C927 1.399 . S
C926 C931 1.399 . S
C927 C926 1.399 . S
C927 C928 1.376 . S
C928 H915 0.930 . S
C928 C927 1.376 . S
C928 C929 1.388 . S
C929 H916 0.930 . S
C929 C928 1.388 . S
C929 C930 1.390 . S
C930 C929 1.390 . S
C930 C931 1.394 . S
C930 C936 1.465 . S
C931 C926 1.399 . S
C931 C930 1.394 . S
C931 C932 1.516 . S
C932 C931 1.516 . S
C932 C933 1.502 . S
C932 C934 1.561 . S
C932 C935 1.526 . S
C933 H917 0.959 . S
C933 H918 0.959 . S
C933 H919 0.961 . S
C933 C932 1.502 . S
C934 H920 0.960 . S
C934 H921 0.961 . S
C934 H922 0.959 . S
C934 C932 1.561 . S
C935 C932 1.526 . S
C935 C936 1.396 . S
C935 C940 1.390 . S
C936 C930 1.465 . S
C936 C935 1.396 . S
C936 C937 1.399 . S
C937 H923 0.929 . S
C937 C936 1.399 . S
C937 C938 1.385 . S
C938 H924 0.931 . S
C938 C937 1.385 . S
C938 C939 1.389 . S
C939 C938 1.389 . S
C939 C940 1.387 . S
C940 H925 0.930 . S
C940 C935 1.390 . S
C940 C939 1.387 . S
H941 C953 0.930 . S
H942 C955 0.930 . S
H943 C956 0.930 . S
H944 C960 0.959 . S
H945 C960 0.959 . S
H946 C960 0.961 . S
H947 C961 0.960 . S
H948 C961 0.961 . S
H949 C961 0.959 . S
H950 C964 0.929 . S
H951 C965 0.931 . S
H952 C967 0.930 . S
C953 H941 0.930 . S
C953 C954 1.399 . S
C953 C958 1.399 . S
C954 C953 1.399 . S
C954 C955 1.376 . S
C955 H942 0.930 . S
C955 C954 1.376 . S
C955 C956 1.388 . S
C956 H943 0.930 . S
C956 C955 1.388 . S
C956 C957 1.390 . S
C957 C956 1.390 . S
C957 C958 1.394 . S
C957 C963 1.465 . S
C958 C953 1.399 . S
C958 C957 1.394 . S
C958 C959 1.516 . S
C959 C958 1.516 . S
C959 C960 1.502 . S
C959 C961 1.561 . S
C959 C962 1.526 . S
C960 H944 0.959 . S
C960 H945 0.959 . S
C960 H946 0.961 . S
C960 C959 1.502 . S
C961 H947 0.960 . S
C961 H948 0.961 . S
C961 H949 0.959 . S
C961 C959 1.561 . S
C962 C959 1.526 . S
C962 C963 1.396 . S
C962 C967 1.390 . S
C963 C957 1.465 . S
C963 C962 1.396 . S
C963 C964 1.399 . S
C964 H950 0.929 . S
C964 C963 1.399 . S
C964 C965 1.385 . S
C965 H951 0.931 . S
C965 C964 1.385 . S
C965 C966 1.389 . S
C966 C965 1.389 . S
C966 C967 1.387 . S
C967 H952 0.930 . S
C967 C962 1.390 . S
C967 C966 1.387 . S
C333 C7 1.654 . S
C345 C296 1.681 . S
C360 C256 1.676 . S
C372 C47 1.667 . S
C387 C207 1.674 . S
C399 C96 1.660 . S
C414 C167 1.656 . S
C426 C136 1.679 . S
C441 C90 1.566 . S
C453 C10 1.575 . S
C468 C50 1.534 . S
C480 C130 1.598 . S
C495 C139 1.581 . S
C507 C59 1.565 . S
C522 C99 1.576 . S
C534 C19 1.570 . S
C549 C170 1.463 . S
C561 C250 1.426 . S
C576 C210 1.418 1_554 S
C588 C290 1.457 1_554 S
C603 C299 1.443 1_556 S
C615 C219 1.453 1_556 S
C630 C259 1.464 1_556 S
C642 C179 1.431 1_556 S
C657 C11 2.069 . S
C669 C2 2.068 . S
C684 C51 2.082 . S
C696 C42 2.070 . S
C711 C91 2.059 . S
C723 C82 2.078 . S
C738 C122 2.049 . S
C750 C131 2.090 . S
C765 C162 2.047 . S
C777 C171 2.092 . S
C792 C211 2.059 . S
C804 C202 2.077 . S
C819 C242 2.091 . S
C831 C251 2.059 . S
C846 C282 2.046 . S
C858 C291 2.093 . S
C873 C16 2.280 . S
C885 C56 2.280 . S
C900 C127 2.317 . S
C912 C87 2.321 . S
C927 C176 2.286 . S
C939 C216 2.285 . S
C954 C287 2.298 . S
C966 C247 2.308 . S
