# Generated by pormake.
# Topology wir, (6)-cn, num edge types: 1
# Building blocks:
#     Node 0, Type 0, BuildingBlock: KUMBUR_clean_sbu_0, # of connection points: 6
#     Node 1, Type 0, BuildingBlock: KUMBUR_clean_sbu_0, # of connection points: 6
#     Node 2, Type 0, BuildingBlock: KUMBUR_clean_sbu_0, # of connection points: 6
#     Node 3, Type 0, BuildingBlock: KUMBUR_clean_sbu_0, # of connection points: 6
#     Node 4, Type 0, BuildingBlock: KUMBUR_clean_sbu_0, # of connection points: 6
#     Node 5, Type 0, BuildingBlock: KUMBUR_clean_sbu_0, # of connection points: 6
#     Node 6, Type 0, BuildingBlock: KUMBUR_clean_sbu_0, # of connection points: 6
#     Node 7, Type 0, BuildingBlock: KUMBUR_clean_sbu_0, # of connection points: 6
#     Node 8, Type 0, BuildingBlock: KUMBUR_clean_sbu_0, # of connection points: 6
#     Node 9, Type 0, BuildingBlock: KUMBUR_clean_sbu_0, # of connection points: 6
#     Node 10, Type 0, BuildingBlock: KUMBUR_clean_sbu_0, # of connection points: 6
#     Node 11, Type 0, BuildingBlock: KUMBUR_clean_sbu_0, # of connection points: 6
#     Node 12, Type 0, BuildingBlock: KUMBUR_clean_sbu_0, # of connection points: 6
#     Node 13, Type 0, BuildingBlock: KUMBUR_clean_sbu_0, # of connection points: 6
#     Node 14, Type 0, BuildingBlock: KUMBUR_clean_sbu_0, # of connection points: 6
#     Node 15, Type 0, BuildingBlock: KUMBUR_clean_sbu_0, # of connection points: 6
#     Node 16, Type 0, BuildingBlock: KUMBUR_clean_sbu_0, # of connection points: 6
#     Node 17, Type 0, BuildingBlock: KUMBUR_clean_sbu_0, # of connection points: 6
#     Node 18, Type 0, BuildingBlock: KUMBUR_clean_sbu_0, # of connection points: 6
#     Node 19, Type 0, BuildingBlock: KUMBUR_clean_sbu_0, # of connection points: 6
#     Node 20, Type 0, BuildingBlock: KUMBUR_clean_sbu_0, # of connection points: 6
#     Node 21, Type 0, BuildingBlock: KUMBUR_clean_sbu_0, # of connection points: 6
#     Node 22, Type 0, BuildingBlock: KUMBUR_clean_sbu_0, # of connection points: 6
#     Node 23, Type 0, BuildingBlock: KUMBUR_clean_sbu_0, # of connection points: 6
#     Node 24, Type 0, BuildingBlock: KUMBUR_clean_sbu_0, # of connection points: 6
#     Node 25, Type 0, BuildingBlock: KUMBUR_clean_sbu_0, # of connection points: 6
#     Node 26, Type 0, BuildingBlock: KUMBUR_clean_sbu_0, # of connection points: 6
#     Node 27, Type 0, BuildingBlock: KUMBUR_clean_sbu_0, # of connection points: 6
#     Node 28, Type 0, BuildingBlock: KUMBUR_clean_sbu_0, # of connection points: 6
#     Node 29, Type 0, BuildingBlock: KUMBUR_clean_sbu_0, # of connection points: 6
#     Node 30, Type 0, BuildingBlock: KUMBUR_clean_sbu_0, # of connection points: 6
#     Node 31, Type 0, BuildingBlock: KUMBUR_clean_sbu_0, # of connection points: 6
#     Edge 32, Type (0, 0), BuildingBlock: XIVTED_clean_linker_0, # of connection points: 2
#     Edge 33, Type (0, 0), BuildingBlock: XIVTED_clean_linker_0, # of connection points: 2
#     Edge 34, Type (0, 0), BuildingBlock: XIVTED_clean_linker_0, # of connection points: 2
#     Edge 35, Type (0, 0), BuildingBlock: XIVTED_clean_linker_0, # of connection points: 2
#     Edge 36, Type (0, 0), BuildingBlock: XIVTED_clean_linker_0, # of connection points: 2
#     Edge 37, Type (0, 0), BuildingBlock: XIVTED_clean_linker_0, # of connection points: 2
#     Edge 38, Type (0, 0), BuildingBlock: XIVTED_clean_linker_0, # of connection points: 2
#     Edge 39, Type (0, 0), BuildingBlock: XIVTED_clean_linker_0, # of connection points: 2
#     Edge 40, Type (0, 0), BuildingBlock: XIVTED_clean_linker_0, # of connection points: 2
#     Edge 41, Type (0, 0), BuildingBlock: XIVTED_clean_linker_0, # of connection points: 2
#     Edge 42, Type (0, 0), BuildingBlock: XIVTED_clean_linker_0, # of connection points: 2
#     Edge 43, Type (0, 0), BuildingBlock: XIVTED_clean_linker_0, # of connection points: 2
#     Edge 44, Type (0, 0), BuildingBlock: XIVTED_clean_linker_0, # of connection points: 2
#     Edge 45, Type (0, 0), BuildingBlock: XIVTED_clean_linker_0, # of connection points: 2
#     Edge 46, Type (0, 0), BuildingBlock: XIVTED_clean_linker_0, # of connection points: 2
#     Edge 47, Type (0, 0), BuildingBlock: XIVTED_clean_linker_0, # of connection points: 2
#     Edge 48, Type (0, 0), BuildingBlock: XIVTED_clean_linker_0, # of connection points: 2
#     Edge 49, Type (0, 0), BuildingBlock: XIVTED_clean_linker_0, # of connection points: 2
#     Edge 50, Type (0, 0), BuildingBlock: XIVTED_clean_linker_0, # of connection points: 2
#     Edge 51, Type (0, 0), BuildingBlock: XIVTED_clean_linker_0, # of connection points: 2
#     Edge 52, Type (0, 0), BuildingBlock: XIVTED_clean_linker_0, # of connection points: 2
#     Edge 53, Type (0, 0), BuildingBlock: XIVTED_clean_linker_0, # of connection points: 2
#     Edge 54, Type (0, 0), BuildingBlock: XIVTED_clean_linker_0, # of connection points: 2
#     Edge 55, Type (0, 0), BuildingBlock: XIVTED_clean_linker_0, # of connection points: 2
#     Edge 56, Type (0, 0), BuildingBlock: XIVTED_clean_linker_0, # of connection points: 2
#     Edge 57, Type (0, 0), BuildingBlock: XIVTED_clean_linker_0, # of connection points: 2
#     Edge 58, Type (0, 0), BuildingBlock: XIVTED_clean_linker_0, # of connection points: 2
#     Edge 59, Type (0, 0), BuildingBlock: XIVTED_clean_linker_0, # of connection points: 2
#     Edge 60, Type (0, 0), BuildingBlock: XIVTED_clean_linker_0, # of connection points: 2
#     Edge 61, Type (0, 0), BuildingBlock: XIVTED_clean_linker_0, # of connection points: 2
#     Edge 62, Type (0, 0), BuildingBlock: XIVTED_clean_linker_0, # of connection points: 2
#     Edge 63, Type (0, 0), BuildingBlock: XIVTED_clean_linker_0, # of connection points: 2
#     Edge 64, Type (0, 0), BuildingBlock: XIVTED_clean_linker_0, # of connection points: 2
#     Edge 65, Type (0, 0), BuildingBlock: XIVTED_clean_linker_0, # of connection points: 2
#     Edge 66, Type (0, 0), BuildingBlock: XIVTED_clean_linker_0, # of connection points: 2
#     Edge 67, Type (0, 0), BuildingBlock: XIVTED_clean_linker_0, # of connection points: 2
#     Edge 68, Type (0, 0), BuildingBlock: XIVTED_clean_linker_0, # of connection points: 2
#     Edge 69, Type (0, 0), BuildingBlock: XIVTED_clean_linker_0, # of connection points: 2
#     Edge 70, Type (0, 0), BuildingBlock: XIVTED_clean_linker_0, # of connection points: 2
#     Edge 71, Type (0, 0), BuildingBlock: XIVTED_clean_linker_0, # of connection points: 2
#     Edge 72, Type (0, 0), BuildingBlock: XIVTED_clean_linker_0, # of connection points: 2
#     Edge 73, Type (0, 0), BuildingBlock: XIVTED_clean_linker_0, # of connection points: 2
#     Edge 74, Type (0, 0), BuildingBlock: XIVTED_clean_linker_0, # of connection points: 2
#     Edge 75, Type (0, 0), BuildingBlock: XIVTED_clean_linker_0, # of connection points: 2
#     Edge 76, Type (0, 0), BuildingBlock: XIVTED_clean_linker_0, # of connection points: 2
#     Edge 77, Type (0, 0), BuildingBlock: XIVTED_clean_linker_0, # of connection points: 2
#     Edge 78, Type (0, 0), BuildingBlock: XIVTED_clean_linker_0, # of connection points: 2
#     Edge 79, Type (0, 0), BuildingBlock: XIVTED_clean_linker_0, # of connection points: 2
#     Edge 80, Type (0, 0), BuildingBlock: XIVTED_clean_linker_0, # of connection points: 2
#     Edge 81, Type (0, 0), BuildingBlock: XIVTED_clean_linker_0, # of connection points: 2
#     Edge 82, Type (0, 0), BuildingBlock: XIVTED_clean_linker_0, # of connection points: 2
#     Edge 83, Type (0, 0), BuildingBlock: XIVTED_clean_linker_0, # of connection points: 2
#     Edge 84, Type (0, 0), BuildingBlock: XIVTED_clean_linker_0, # of connection points: 2
#     Edge 85, Type (0, 0), BuildingBlock: XIVTED_clean_linker_0, # of connection points: 2
#     Edge 86, Type (0, 0), BuildingBlock: XIVTED_clean_linker_0, # of connection points: 2
#     Edge 87, Type (0, 0), BuildingBlock: XIVTED_clean_linker_0, # of connection points: 2
#     Edge 88, Type (0, 0), BuildingBlock: XIVTED_clean_linker_0, # of connection points: 2
#     Edge 89, Type (0, 0), BuildingBlock: XIVTED_clean_linker_0, # of connection points: 2
#     Edge 90, Type (0, 0), BuildingBlock: XIVTED_clean_linker_0, # of connection points: 2
#     Edge 91, Type (0, 0), BuildingBlock: XIVTED_clean_linker_0, # of connection points: 2
#     Edge 92, Type (0, 0), BuildingBlock: XIVTED_clean_linker_0, # of connection points: 2
#     Edge 93, Type (0, 0), BuildingBlock: XIVTED_clean_linker_0, # of connection points: 2
#     Edge 94, Type (0, 0), BuildingBlock: XIVTED_clean_linker_0, # of connection points: 2
#     Edge 95, Type (0, 0), BuildingBlock: XIVTED_clean_linker_0, # of connection points: 2
#     Edge 96, Type (0, 0), BuildingBlock: XIVTED_clean_linker_0, # of connection points: 2
#     Edge 97, Type (0, 0), BuildingBlock: XIVTED_clean_linker_0, # of connection points: 2
#     Edge 98, Type (0, 0), BuildingBlock: XIVTED_clean_linker_0, # of connection points: 2
#     Edge 99, Type (0, 0), BuildingBlock: XIVTED_clean_linker_0, # of connection points: 2
#     Edge 100, Type (0, 0), BuildingBlock: XIVTED_clean_linker_0, # of connection points: 2
#     Edge 101, Type (0, 0), BuildingBlock: XIVTED_clean_linker_0, # of connection points: 2
#     Edge 102, Type (0, 0), BuildingBlock: XIVTED_clean_linker_0, # of connection points: 2
#     Edge 103, Type (0, 0), BuildingBlock: XIVTED_clean_linker_0, # of connection points: 2
#     Edge 104, Type (0, 0), BuildingBlock: XIVTED_clean_linker_0, # of connection points: 2
#     Edge 105, Type (0, 0), BuildingBlock: XIVTED_clean_linker_0, # of connection points: 2
#     Edge 106, Type (0, 0), BuildingBlock: XIVTED_clean_linker_0, # of connection points: 2
#     Edge 107, Type (0, 0), BuildingBlock: XIVTED_clean_linker_0, # of connection points: 2
#     Edge 108, Type (0, 0), BuildingBlock: XIVTED_clean_linker_0, # of connection points: 2
#     Edge 109, Type (0, 0), BuildingBlock: XIVTED_clean_linker_0, # of connection points: 2
#     Edge 110, Type (0, 0), BuildingBlock: XIVTED_clean_linker_0, # of connection points: 2
#     Edge 111, Type (0, 0), BuildingBlock: XIVTED_clean_linker_0, # of connection points: 2
#     Edge 112, Type (0, 0), BuildingBlock: XIVTED_clean_linker_0, # of connection points: 2
#     Edge 113, Type (0, 0), BuildingBlock: XIVTED_clean_linker_0, # of connection points: 2
#     Edge 114, Type (0, 0), BuildingBlock: XIVTED_clean_linker_0, # of connection points: 2
#     Edge 115, Type (0, 0), BuildingBlock: XIVTED_clean_linker_0, # of connection points: 2
#     Edge 116, Type (0, 0), BuildingBlock: XIVTED_clean_linker_0, # of connection points: 2
#     Edge 117, Type (0, 0), BuildingBlock: XIVTED_clean_linker_0, # of connection points: 2
#     Edge 118, Type (0, 0), BuildingBlock: XIVTED_clean_linker_0, # of connection points: 2
#     Edge 119, Type (0, 0), BuildingBlock: XIVTED_clean_linker_0, # of connection points: 2
#     Edge 120, Type (0, 0), BuildingBlock: XIVTED_clean_linker_0, # of connection points: 2
#     Edge 121, Type (0, 0), BuildingBlock: XIVTED_clean_linker_0, # of connection points: 2
#     Edge 122, Type (0, 0), BuildingBlock: XIVTED_clean_linker_0, # of connection points: 2
#     Edge 123, Type (0, 0), BuildingBlock: XIVTED_clean_linker_0, # of connection points: 2
#     Edge 124, Type (0, 0), BuildingBlock: XIVTED_clean_linker_0, # of connection points: 2
#     Edge 125, Type (0, 0), BuildingBlock: XIVTED_clean_linker_0, # of connection points: 2
#     Edge 126, Type (0, 0), BuildingBlock: XIVTED_clean_linker_0, # of connection points: 2
#     Edge 127, Type (0, 0), BuildingBlock: XIVTED_clean_linker_0, # of connection points: 2
# Relax obj value: 0.313
# Max RMSD: 0.205
# Mean RMSD: 0.205
data_MOF--net-wir--node1-KUMBUR_clean_sbu_0--edge1-XIVTED_clean_linker_0
_symmetry_space_group_name_H-M    P1
_symmetry_Int_Tables_number       1
_symmetry_cell_setting            triclinic
loop_
_symmetry_equiv_pos_as_xyz
'x, y, z'
_cell_length_a     42.685345
_cell_length_b     42.702493
_cell_length_c     96.109639
_cell_angle_alpha  89.946597
_cell_angle_beta   90.020193
_cell_angle_gamma 89.967836
loop_
_atom_site_label
_atom_site_type_symbol
_atom_site_fract_x
_atom_site_fract_y
_atom_site_fract_z
_atom_type_partial_charge
Tb0 Tb 0.25019 0.25281 0.38334 0.0
C1 C 0.15755 0.16657 0.35532 0.0
C2 C 0.14325 0.11926 0.36765 0.0
C3 C 0.10795 0.1407 0.3503 0.0
C4 C 0.16396 0.14461 0.36548 0.0
C5 C 0.1293 0.16498 0.34768 0.0
C6 C 0.11501 0.11775 0.36021 0.0
C7 C 0.14504 0.21149 0.33534 0.0
N8 N 0.17886 0.18969 0.35303 0.0
C9 C 0.17274 0.21212 0.34307 0.0
C10 C 0.12325 0.18781 0.33761 0.0
Tb11 Tb 0.22396 0.18781 0.36663 0.0
N12 N 0.19122 0.14712 0.37272 0.0
C13 C 0.19997 0.12347 0.38153 0.0
C14 C 0.15198 0.09556 0.37688 0.0
C15 C 0.1807 0.09745 0.38368 0.0
H16 H 0.18811 0.23183 0.34155 0.0
H17 H 0.18787 0.07906 0.39076 0.0
H18 H 0.09869 0.09869 0.36189 0.0
H19 H 0.14035 0.22957 0.32771 0.0
H20 H 0.22172 0.12431 0.38708 0.0
H21 H 0.21214 0.37004 0.37012 0.0
H22 H 0.13695 0.07552 0.37868 0.0
H23 H 0.30971 0.20912 0.37225 0.0
H24 H 0.20872 0.31943 0.3822 0.0
H25 H 0.35596 0.21617 0.35726 0.0
H26 H 0.08614 0.13919 0.34457 0.0
H27 H 0.25632 0.38085 0.35419 0.0
H28 H 0.30664 0.36277 0.34331 0.0
H29 H 0.10177 0.18745 0.3316 0.0
H30 H 0.34614 0.3214 0.34014 0.0
N31 N 0.24865 0.2999 0.37202 0.0
C32 C 0.22718 0.32293 0.37468 0.0
C33 C 0.25452 0.35817 0.35919 0.0
C34 C 0.27742 0.33521 0.35712 0.0
C35 C 0.22943 0.35207 0.3681 0.0
C36 C 0.27389 0.30602 0.36383 0.0
H37 H 0.36468 0.26669 0.34525 0.0
N38 N 0.29174 0.25484 0.36849 0.0
C39 C 0.33935 0.23512 0.35853 0.0
C40 C 0.29637 0.28289 0.36216 0.0
C41 C 0.31298 0.23113 0.36698 0.0
C42 C 0.34427 0.26372 0.35182 0.0
C43 C 0.32266 0.28806 0.35358 0.0
O44 O 0.29239 0.26029 0.39384 0.0
O45 O 0.22988 0.20888 0.38621 0.0
O46 O 0.17782 0.21785 0.37046 0.0
O47 O 0.19679 0.26581 0.37838 0.0
O48 O 0.21278 0.2446 0.3986 0.0
O49 O 0.25154 0.2879 0.39875 0.0
O50 O 0.23091 0.14317 0.3575 0.0
O51 O 0.24488 0.23402 0.36223 0.0
O52 O 0.27958 0.21165 0.3942 0.0
O53 O 0.25502 0.16795 0.38562 0.0
O54 O 0.23705 0.20727 0.34568 0.0
O55 O 0.26843 0.17648 0.35877 0.0
C56 C 0.21079 0.21512 0.39587 0.0
C57 C 0.28672 0.27596 0.41714 0.0
C58 C 0.28187 0.29577 0.44065 0.0
C59 C 0.27748 0.2993 0.42632 0.0
C60 C 0.29603 0.26868 0.44593 0.0
C61 C 0.30192 0.2491 0.42239 0.0
C62 C 0.30647 0.24556 0.43674 0.0
C63 C 0.17147 0.24837 0.37397 0.0
C64 C 0.28022 0.28068 0.40224 0.0
C65 C 0.32619 0.31703 0.34683 0.0
C66 C 0.30364 0.34055 0.34861 0.0
C67 C 0.24811 0.23461 0.34858 0.0
C68 C 0.28342 0.1235 0.35845 0.0
C69 C 0.30441 0.11428 0.34802 0.0
C70 C 0.32797 0.09189 0.35071 0.0
C71 C 0.33071 0.0795 0.36421 0.0
C72 C 0.28591 0.10986 0.3717 0.0
C73 C 0.30965 0.08833 0.37458 0.0
C74 C 0.27792 0.17956 0.39432 0.0
C75 C 0.26047 0.14834 0.35514 0.0
H76 H 0.26569 0.31999 0.42233 0.0
H77 H 0.29879 0.26543 0.45704 0.0
H78 H 0.31017 0.23081 0.41553 0.0
H79 H 0.31773 0.22468 0.44073 0.0
H80 H 0.30163 0.12396 0.33766 0.0
H81 H 0.34873 0.06254 0.3667 0.0
H82 H 0.26988 0.11556 0.37989 0.0
H83 H 0.31158 0.07826 0.38489 0.0
Tb84 Tb 0.09231 1.00267 0.63221 0.0
C85 C 0.17957 0.90705 0.60748 0.0
C86 C 0.22742 0.89767 0.62028 0.0
C87 C 0.20578 0.85655 0.60577 0.0
C88 C 0.20152 0.91696 0.61705 0.0
C89 C 0.18169 0.87687 0.60156 0.0
C90 C 0.22875 0.86701 0.61505 0.0
C91 C 0.13773 0.88986 0.58689 0.0
N92 N 0.15686 0.92757 0.60351 0.0
C93 C 0.13667 0.91962 0.59291 0.0
C94 C 0.1601 0.86827 0.59132 0.0
Tb95 Tb 0.15648 0.97537 0.61496 0.0
N96 N 0.1994 0.94672 0.62196 0.0
C97 C 0.22485 0.95986 0.62842 0.0
C98 C 0.25214 0.91034 0.62795 0.0
C99 C 0.25122 0.94183 0.63169 0.0
H100 H 0.11816 0.93519 0.58968 0.0
H101 H 0.2709 0.95234 0.63703 0.0
H102 H 0.24807 0.85164 0.61771 0.0
H103 H 0.12106 0.8835 0.57889 0.0
H104 H 0.22575 0.98443 0.63081 0.0
H105 H 0.97486 0.96474 0.61912 0.0
H106 H 0.27261 0.89645 0.63048 0.0
H107 H 0.13602 0.06191 0.6207 0.0
H108 H 1.02532 0.96152 0.63127 0.0
H109 H 0.1287 0.1082 0.6058 0.0
H110 H 0.20754 0.83315 0.60149 0.0
H111 H 0.96409 1.00866 0.60303 0.0
H112 H 0.9821 0.05888 0.59208 0.0
H113 H 0.16089 0.84526 0.58659 0.0
H114 H 1.02332 0.09849 0.58891 0.0
N115 N 1.04501 1.00126 0.62095 0.0
C116 C 1.02194 0.97985 0.62367 0.0
C117 C 0.98676 1.00694 0.60806 0.0
C118 C 1.00969 1.02982 0.60596 0.0
C119 C 0.99283 0.982 0.61705 0.0
C120 C 1.03885 1.02641 0.61271 0.0
H121 H 0.07795 0.11714 0.59402 0.0
N122 N 0.09005 1.04421 0.61729 0.0
C123 C 0.10972 0.0917 0.60718 0.0
C124 C 0.06191 0.04891 0.61103 0.0
C125 C 0.11383 0.06528 0.6156 0.0
C126 C 0.08099 0.09674 0.6006 0.0
C127 C 0.05667 0.07516 0.60242 0.0
O128 O 0.08576 1.04444 0.64317 0.0
O129 O 0.13624 0.982 0.63459 0.0
O130 O 0.12598 0.92992 0.61932 0.0
O131 O 0.07867 0.94932 0.62768 0.0
O132 O 0.10155 0.96544 0.64756 0.0
O133 O 0.05695 1.0041 0.64747 0.0
O134 O 0.17267 1.0203 0.60967 0.0
O135 O 0.11036 0.99709 0.61102 0.0
O136 O 0.13412 1.03219 0.64245 0.0
O137 O 0.17744 1.00704 0.63361 0.0
O138 O 0.13482 0.98666 0.59429 0.0
O139 O 0.19566 0.979 0.6018 0.0
C140 C 0.13082 0.96322 0.64442 0.0
C141 C 0.06902 1.03768 0.66631 0.0
C142 C 0.04824 1.03126 0.68961 0.0
C143 C 1.04505 1.02843 0.67519 0.0
C144 C 0.07559 1.04414 0.69527 0.0
C145 C 0.09618 0.05141 0.67197 0.0
C146 C 0.09932 0.05468 0.6864 0.0
C147 C 0.09568 0.92386 0.62315 0.0
C148 C 0.06475 1.03234 0.65132 0.0
C149 C 1.02772 0.07859 0.59564 0.0
C150 C 1.00429 0.05597 0.5974 0.0
C151 C 0.1085 0.99928 0.5974 0.0
C152 C 0.19738 1.02478 0.58784 0.0
C153 C 0.21403 0.05301 0.58706 0.0
C154 C 0.22076 0.06685 0.57409 0.0
C155 C 0.20768 0.05335 0.56202 0.0
C156 C 0.18581 1.01105 0.57561 0.0
C157 C 0.19011 1.02587 0.56284 0.0
C158 C 0.16623 1.03007 0.6424 0.0
C159 C 0.19436 1.00946 0.60148 0.0
H160 H 1.02425 1.01753 0.67084 0.0
H161 H 0.07862 1.04573 0.70644 0.0
H162 H 0.11501 0.05934 0.66535 0.0
H163 H 0.12042 0.06486 0.69071 0.0
H164 H 0.22305 0.06324 0.59656 0.0
H165 H 0.21256 0.06269 0.55178 0.0
H166 H 0.17403 0.98865 0.5758 0.0
H167 H 0.18105 1.01524 0.55344 0.0
Tb168 Tb 0.34171 0.83944 0.88319 0.0
C169 C 0.43582 0.93473 0.8625 0.0
C170 C 0.4342 0.98388 0.87494 0.0
C171 C 0.48262 0.96732 0.86405 0.0
C172 C 0.41976 0.95556 0.87078 0.0
C173 C 0.46722 0.94096 0.85867 0.0
C174 C 0.46599 0.98899 0.87203 0.0
C175 C 0.46418 0.89866 0.84225 0.0
N176 N 0.41961 0.91037 0.85691 0.0
C177 C 0.43298 0.89382 0.84607 0.0
C178 C 0.48162 0.92183 0.8488 0.0
Tb179 Tb 0.36896 0.90275 0.86564 0.0
N180 N 0.38884 0.95024 0.8731 0.0
C181 C 0.37036 0.9747 0.87743 0.0
C182 C 0.41586 1.00707 0.88113 0.0
C183 C 0.38361 1.00277 0.88202 0.0
H184 H 0.42092 0.87515 0.84085 0.0
H185 H 0.36879 1.02143 0.88587 0.0
H186 H 0.47759 1.01023 0.87542 0.0
H187 H 0.47476 0.88442 0.83421 0.0
H188 H 0.34515 0.97351 0.87698 0.0
H189 H 0.3828 0.72252 0.87068 0.0
H190 H 0.42605 1.02906 0.88447 0.0
H191 H 0.27941 0.8798 0.87251 0.0
H192 H 0.38392 0.77282 0.88295 0.0
H193 H 0.23286 0.87043 0.85797 0.0
H194 H 0.50682 0.97213 0.8614 0.0
H195 H 0.34 0.71071 0.85417 0.0
H196 H 0.28946 0.72714 0.84302 0.0
H197 H 0.50568 0.92578 0.84566 0.0
H198 H 0.248 0.76663 0.84009 0.0
N199 N 0.34424 0.79168 0.87223 0.0
C200 C 0.36608 0.76907 0.87515 0.0
C201 C 0.34082 0.73336 0.85924 0.0
C202 C 0.31726 0.75557 0.85704 0.0
C203 C 0.36512 0.74001 0.86847 0.0
C204 C 0.3195 0.78474 0.86387 0.0
H205 H 0.2265 0.81987 0.84575 0.0
N206 N 0.29959 0.83504 0.86857 0.0
C207 C 0.25048 0.85236 0.85906 0.0
C208 C 0.29606 0.80686 0.86225 0.0
C209 C 0.27695 0.85759 0.86731 0.0
C210 C 0.24691 0.82375 0.85223 0.0
C211 C 0.26988 0.80059 0.85373 0.0
O212 O 0.30103 0.83579 0.89525 0.0
O213 O 0.36298 0.88308 0.88529 0.0
O214 O 0.41462 0.87264 0.86988 0.0
O215 O 0.39497 0.82574 0.87833 0.0
O216 O 0.37998 0.84859 0.89812 0.0
O217 O 0.3392 0.80361 0.89821 0.0
O218 O 0.36543 0.93672 0.84986 0.0
O219 O 0.34057 0.85991 0.86215 0.0
O220 O 0.31228 0.8805 0.8936 0.0
O221 O 0.33679 0.92353 0.88428 0.0
O222 O 0.37003 0.87089 0.84715 0.0
O223 O 0.32415 0.91563 0.85855 0.0
C224 C 0.38206 0.87784 0.89497 0.0
C225 C 0.30968 0.81774 0.91807 0.0
C226 C 0.32077 0.79704 0.94103 0.0
C227 C 0.32038 0.7937 0.92656 0.0
C228 C 0.30943 0.82454 0.94716 0.0
C229 C 0.29751 0.84508 0.92422 0.0
C230 C 0.29726 0.84832 0.93872 0.0
C231 C 0.42057 0.84242 0.87377 0.0
C232 C 0.31235 0.81355 0.90292 0.0
C233 C 0.26777 0.77176 0.84678 0.0
C234 C 0.29144 0.74933 0.84841 0.0
C235 C 0.34954 0.84986 0.84995 0.0
C236 C 0.32073 0.93307 0.83539 0.0
C237 C 0.29353 0.95059 0.83306 0.0
C238 C 0.28117 0.95403 0.81957 0.0
C239 C 0.29476 0.93644 0.8087 0.0
C240 C 0.33447 0.91652 0.82438 0.0
C241 C 0.32089 0.91751 0.81118 0.0
C242 C 0.3141 0.91246 0.89329 0.0
C243 C 0.33511 0.93465 0.84923 0.0
H244 H 0.33014 0.77278 0.92182 0.0
H245 H 0.31035 0.82769 0.95833 0.0
H246 H 0.28863 0.86404 0.91792 0.0
H247 H 0.28829 0.86957 0.94339 0.0
H248 H 0.28307 0.96286 0.84176 0.0
H249 H 0.28651 0.93852 0.7981 0.0
H250 H 0.35574 0.90319 0.82589 0.0
H251 H 0.33149 0.90466 0.80269 0.0
Tb252 Tb 0.50588 0.09508 0.13231 0.0
C253 C 0.41893 0.19139 0.10764 0.0
C254 C 0.37091 0.20041 0.12037 0.0
C255 C 0.39265 0.2419 0.10607 0.0
C256 C 0.39681 0.18118 0.11709 0.0
C257 C 0.4168 0.22171 0.10183 0.0
C258 C 0.36961 0.23119 0.11526 0.0
C259 C 0.46078 0.20909 0.08714 0.0
N260 N 0.44174 0.17101 0.10365 0.0
C261 C 0.46187 0.1792 0.09305 0.0
C262 C 0.43841 0.23057 0.09165 0.0
Tb263 Tb 0.44202 0.12292 0.11492 0.0
N264 N 0.39882 0.15125 0.12184 0.0
C265 C 0.37333 0.13801 0.12824 0.0
C266 C 0.34624 0.18763 0.12804 0.0
C267 C 0.34715 0.15608 0.13171 0.0
H268 H 0.48037 0.16372 0.08976 0.0
H269 H 0.3275 0.14552 0.13705 0.0
H270 H 0.3503 0.2465 0.11796 0.0
H271 H 0.47744 0.21564 0.07916 0.0
H272 H 0.37236 0.11337 0.13051 0.0
H273 H 0.62427 0.13202 0.12055 0.0
H274 H 0.32581 0.20151 0.13064 0.0
H275 H 0.46211 1.03657 0.12031 0.0
H276 H 0.57306 0.13577 0.13207 0.0
H277 H 0.46953 0.99055 0.10525 0.0
H278 H 0.3909 0.2654 0.10188 0.0
H279 H 0.63551 0.08806 0.10459 0.0
H280 H 0.61753 1.03817 0.09334 0.0
H281 H 0.43762 0.25368 0.08701 0.0
H282 H 0.57594 0.99922 0.08954 0.0
N283 N 0.55365 0.09626 0.12153 0.0
C284 C 0.57676 0.11743 0.12452 0.0
C285 C 0.61257 0.09001 0.10934 0.0
C286 C 0.5895 0.06742 0.10693 0.0
C287 C 0.60623 0.11498 0.11826 0.0
C288 C 0.55998 0.07114 0.11332 0.0
H289 H 0.52072 0.98131 0.0939 0.0
N290 N 0.50835 0.05387 0.11729 0.0
C291 C 0.48862 1.00681 0.10686 0.0
C292 C 0.53673 0.04897 0.11131 0.0
C293 C 0.48444 1.03306 0.11535 0.0
C294 C 0.5176 1.0016 0.10052 0.0
C295 C 0.5421 1.02281 0.10268 0.0
O296 O 0.51156 0.05287 0.14307 0.0
O297 O 0.46205 0.11617 0.13465 0.0
O298 O 0.47269 0.16812 0.11931 0.0
O299 O 0.51986 0.14842 0.12775 0.0
O300 O 0.49703 0.1323 0.14761 0.0
O301 O 0.54055 0.0928 0.14788 0.0
O302 O 0.42657 0.07831 0.10865 0.0
O303 O 0.48807 0.10086 0.11112 0.0
O304 O 0.46395 0.06579 0.14245 0.0
O305 O 0.42079 0.09105 0.1335 0.0
O306 O 0.46439 0.11217 0.09434 0.0
O307 O 0.40252 0.11996 0.10192 0.0
C308 C 0.46778 0.13496 0.14447 0.0
C309 C 0.52717 0.05867 0.1664 0.0
C310 C 0.54653 0.06457 0.18994 0.0
C311 C 0.55048 0.06789 0.17557 0.0
C312 C 0.51905 0.0513 0.19526 0.0
C313 C 0.49988 1.04447 0.17169 0.0
C314 C 0.49593 1.04077 0.18607 0.0
C315 C 0.50296 0.17401 0.12321 0.0
C316 C 0.53227 0.0645 0.15148 0.0
C317 C 0.57141 1.01908 0.09626 0.0
C318 C 0.59506 1.04132 0.09839 0.0
C319 C 0.49038 0.09895 0.0975 0.0
C320 C 0.40457 0.07749 0.08618 0.0
C321 C 0.39245 0.04748 0.08374 0.0
C322 C 0.39074 1.03551 0.07012 0.0
C323 C 0.40358 0.05323 0.05913 0.0
C324 C 0.41549 0.09546 0.07492 0.0
C325 C 0.41588 0.08294 0.06156 0.0
C326 C 0.43191 0.06803 0.14235 0.0
C327 C 0.40508 0.08977 0.1005 0.0
H328 H 0.57142 0.0791 0.17152 0.0
H329 H 0.51544 0.04941 0.20638 0.0
H330 H 0.48159 1.03651 0.16482 0.0
H331 H 0.47471 1.03024 0.19008 0.0
H332 H 0.38318 1.03402 0.09238 0.0
H333 H 0.40229 1.04518 1.04846 0.0
H334 H 0.42368 0.11922 0.07637 0.0
H335 H 0.42467 0.09677 1.05296 0.0
Tb336 Tb 0.25457 0.8423 0.22475 0.0
C337 C 0.15596 0.93607 0.24307 0.0
C338 C 0.15562 0.98389 0.22958 0.0
C339 C 0.10811 0.96706 0.24115 0.0
C340 C 0.17123 0.95657 0.23429 0.0
C341 C 0.12439 0.94161 0.24688 0.0
C342 C 0.12382 0.98841 0.23267 0.0
C343 C 0.12858 0.90013 0.26369 0.0
N344 N 0.17283 0.91248 0.24894 0.0
C345 C 0.15988 0.89595 0.25989 0.0
C346 C 0.11056 0.92263 0.25697 0.0
Tb347 Tb 0.22419 0.90658 0.24095 0.0
N348 N 0.20224 0.95189 0.23175 0.0
C349 C 0.21933 0.97598 0.22602 0.0
C350 C 0.17271 1.00673 0.22251 0.0
C351 C 0.2048 1.00296 0.22093 0.0
H352 H 0.17248 0.87772 0.26521 0.0
H353 H 0.21866 1.02142 0.21627 0.0
H354 H 0.11144 1.00891 0.22891 0.0
H355 H 0.11839 0.88592 0.27185 0.0
H356 H 0.24452 0.97622 0.22606 0.0
H357 H 0.217 0.72562 0.23959 0.0
H358 H 0.16163 1.02804 0.21885 0.0
H359 H 0.31394 0.88674 0.23553 0.0
H360 H 0.21388 0.77487 0.22655 0.0
H361 H 0.36067 0.88031 0.25029 0.0
H362 H 0.08382 0.97137 0.24381 0.0
H363 H 0.26066 0.71639 0.25598 0.0
H364 H 0.31077 0.73534 0.26668 0.0
H365 H 0.08641 0.92608 0.26009 0.0
H366 H 0.3505 0.77668 0.26909 0.0
N367 N 0.25318 0.79579 0.23674 0.0
C368 C 0.23199 0.77234 0.23431 0.0
C369 C 0.25893 0.73862 0.25058 0.0
C370 C 0.28175 0.76174 0.25233 0.0
C371 C 0.23413 0.74383 0.24142 0.0
C372 C 0.27834 0.79032 0.24509 0.0
H373 H 0.36943 0.83061 0.26295 0.0
N374 N 0.2961 0.84116 0.23977 0.0
C375 C 0.34403 0.86134 0.2493 0.0
C376 C 0.30086 0.81349 0.24641 0.0
C377 C 0.31747 0.8649 0.24093 0.0
C378 C 0.34896 0.8332 0.25638 0.0
C379 C 0.3272 0.80889 0.25505 0.0
O380 O 0.29637 0.83792 0.21357 0.0
O381 O 0.23223 0.8851 0.22171 0.0
O382 O 0.1798 0.87523 0.23635 0.0
O383 O 0.20115 0.82792 0.2292 0.0
O384 O 0.21774 0.84917 0.20897 0.0
O385 O 0.25887 0.80495 0.21059 0.0
O386 O 0.22311 0.93873 0.25741 0.0
O387 O 0.25337 0.86452 0.2453 0.0
O388 O 0.28301 0.88333 0.21372 0.0
O389 O 0.2582 0.9265 0.22281 0.0
O390 O 0.22452 0.87664 0.2602 0.0
O391 O 0.26698 0.92467 0.24853 0.0
C392 C 0.21433 0.8785 0.21171 0.0
C393 C 0.29106 0.81647 0.19117 0.0
C394 C 0.28277 0.79292 0.16853 0.0
C395 C 0.28062 0.79171 0.18303 0.0
C396 C 0.29647 0.81892 0.16204 0.0
C397 C 0.30556 0.84225 0.18468 0.0
C398 C 0.30836 0.84332 0.17017 0.0
C399 C 0.17483 0.84457 0.23302 0.0
C400 C 0.28623 0.8145 0.20629 0.0
C401 C 0.33057 0.78056 0.26232 0.0
C402 C 0.30787 0.75707 0.26099 0.0
C403 C 0.2448 0.85523 0.25768 0.0
C404 C 0.26414 0.97584 0.258 0.0
C405 C 0.29425 0.98185 0.26319 0.0
C406 C 0.30389 1.01272 0.26611 0.0
C407 C 0.28408 1.03765 0.26217 0.0
C408 C 0.24406 1.00108 0.25508 0.0
C409 C 0.25451 1.03176 0.2566 0.0
C410 C 0.28087 0.9153 0.21385 0.0
C411 C 0.25316 0.94316 0.25732 0.0
H412 H 0.26914 0.77198 0.18802 0.0
H413 H 0.29753 0.82046 0.1508 0.0
H414 H 0.31438 0.86162 0.19074 0.0
H415 H 0.31914 0.86339 0.16523 0.0
H416 H 0.30927 0.96226 0.26584 0.0
H417 H 0.29019 0.06174 0.26435 0.0
H418 H 0.22003 0.99727 0.25197 0.0
H419 H 0.23896 0.05106 0.25421 0.0
Tb420 Tb 0.50437 0.99957 0.47537 0.0
C421 C 0.40807 0.90809 0.49659 0.0
C422 C 0.35842 0.91178 0.48461 0.0
C423 C 0.37418 0.8623 0.49479 0.0
C424 C 0.38733 0.92517 0.48867 0.0
C425 C 0.4011 0.87671 0.50018 0.0
C426 C 0.35263 0.87995 0.48716 0.0
C427 C 0.44347 0.87816 0.51665 0.0
N428 N 0.43291 0.92341 0.50223 0.0
C429 C 0.44895 0.9094 0.51307 0.0
C430 C 0.41999 0.86145 0.50991 0.0
Tb431 Tb 0.442 0.97397 0.49378 0.0
N432 N 0.39337 0.95608 0.48672 0.0
C433 C 0.36916 0.9755 0.48294 0.0
C434 C 0.33542 0.93116 0.47889 0.0
C435 C 0.34051 0.96334 0.47843 0.0
H436 H 0.46754 0.92107 0.51853 0.0
H437 H 0.32204 0.97891 0.475 0.0
H438 H 0.33094 0.86914 0.48381 0.0
H439 H 0.45736 0.86701 0.52467 0.0
H440 H 0.37107 1.00062 0.48375 0.0
H441 H 0.62122 0.95895 0.48849 0.0
H442 H 0.313 0.9218 0.47563 0.0
H443 H 0.46384 0.06234 0.48525 0.0
H444 H 0.57103 0.95718 0.47613 0.0
H445 H 0.47353 0.11005 0.49902 0.0
H446 H 0.3688 0.83812 0.49724 0.0
H447 H 0.63288 1.00257 0.50455 0.0
H448 H 0.61652 0.05379 0.515 0.0
H449 H 0.41549 0.83739 0.51288 0.0
H450 H 0.57726 0.09565 0.51721 0.0
N451 N 0.55191 0.99714 0.48651 0.0
C452 C 0.57461 0.9753 0.4838 0.0
C453 C 0.61023 1.00141 0.49949 0.0
C454 C 0.588 1.02508 0.50138 0.0
C455 C 0.60365 0.97665 0.49051 0.0
C456 C 0.55881 1.02243 0.49457 0.0
H457 H 0.52421 0.11708 0.51111 0.0
N458 N 0.50841 1.04222 0.48962 0.0
C459 C 0.49146 0.0922 0.49825 0.0
C460 C 0.53671 1.04609 0.49586 0.0
C461 C 0.48599 0.06507 0.49049 0.0
C462 C 0.52015 0.09616 0.50501 0.0
C463 C 0.54316 0.07291 0.50392 0.0
O464 O 0.51041 1.04107 0.46424 0.0
O465 O 0.46021 0.9792 0.47386 0.0
O466 O 0.4715 0.92782 0.48948 0.0
O467 O 0.51806 0.94636 0.48023 0.0
O468 O 0.49372 0.96122 0.46072 0.0
O469 O 0.53953 1.00111 0.45996 0.0
O470 O 0.43119 1.01865 0.50166 0.0
O471 O 0.4852 1.00198 0.49673 0.0
O472 O 0.46334 1.02734 0.46398 0.0
O473 O 0.42067 1.00757 0.47561 0.0
O474 O 0.47614 0.97104 0.51142 0.0
O475 O 0.40975 0.97748 0.51025 0.0
C476 C 0.46465 0.95963 0.4643 0.0
C477 C 0.52861 1.03631 0.44133 0.0
C478 C 0.54935 1.03023 0.41806 0.0
C479 C 0.55001 1.02298 0.43222 0.0
C480 C 0.5267 0.05067 0.41275 0.0
C481 C 0.50637 0.05774 0.43612 0.0
C482 C 0.50519 0.0645 0.42185 0.0
C483 C 0.50132 0.92119 0.48517 0.0
C484 C 0.53188 1.02952 0.45625 0.0
C485 C 0.57201 0.07539 0.51085 0.0
C486 C 0.59431 0.05148 0.50963 0.0
C487 C 0.49622 0.99254 0.50871 0.0
C488 C 0.41891 1.02001 0.52549 0.0
C489 C 0.4068 0.04958 0.52876 0.0
C490 C 0.40697 0.06086 0.54257 0.0
C491 C 0.42345 1.04312 0.55264 0.0
C492 C 0.43428 1.00251 0.53578 0.0
C493 C 0.43735 1.01456 0.54917 0.0
C494 C 0.43146 1.02777 0.4654 0.0
C495 C 0.4135 1.00754 0.51145 0.0
H496 H 0.5678 1.0071 0.43619 0.0
H497 H 0.52597 0.05616 0.40175 0.0
H498 H 0.49025 0.06953 0.44304 0.0
H499 H 0.48787 0.08075 0.4179 0.0
H500 H 0.39605 0.06285 0.52045 0.0
H501 H 0.42445 0.05001 0.56343 0.0
H502 H 0.44366 0.97952 0.53354 0.0
H503 H 0.44936 1.00105 0.55708 0.0
Tb504 Tb 0.3479 0.25604 0.72265 0.0
C505 C 0.43754 0.15916 0.7456 0.0
C506 C 0.43433 0.10906 0.734 0.0
C507 C 0.48295 0.12448 0.74504 0.0
C508 C 0.42094 0.13829 0.73756 0.0
C509 C 0.46849 0.15195 0.74981 0.0
C510 C 0.46574 0.10283 0.7373 0.0
C511 C 0.46649 0.19565 0.76552 0.0
N512 N 0.42211 0.18462 0.75063 0.0
C513 C 0.43566 0.2014 0.76136 0.0
C514 C 0.48327 0.1713 0.75948 0.0
Tb515 Tb 0.37222 0.19365 0.74128 0.0
N516 N 0.39037 0.1447 0.7349 0.0
C517 C 0.37105 0.12073 0.73079 0.0
C518 C 0.41529 0.08622 0.72796 0.0
C519 C 0.3833 0.09181 0.72671 0.0
H520 H 0.4241 0.22087 0.76622 0.0
H521 H 0.36787 0.07351 0.72302 0.0
H522 H 0.47654 0.08081 0.7344 0.0
H523 H 0.47729 0.21007 0.77344 0.0
H524 H 0.34589 0.12308 0.73099 0.0
H525 H 0.38848 0.37232 0.73669 0.0
H526 H 0.42467 0.06356 0.72507 0.0
H527 H 0.28375 0.21621 0.73179 0.0
H528 H 0.3909 0.32221 0.72443 0.0
H529 H 0.23524 0.22641 0.74472 0.0
H530 H 0.5068 0.11886 0.748 0.0
H531 H 0.34349 0.38456 0.7519 0.0
H532 H 0.29129 0.36875 0.7615 0.0
H533 H 0.50701 0.16663 0.7629 0.0
H534 H 0.24895 0.32988 0.76308 0.0
N535 N 0.3496 0.30353 0.73396 0.0
C536 C 0.37206 0.32593 0.73173 0.0
C537 C 0.34487 0.36189 0.74688 0.0
C538 C 0.32087 0.33991 0.74838 0.0
C539 C 0.37039 0.35498 0.73838 0.0
C540 C 0.32381 0.31071 0.74163 0.0
H541 H 0.22765 0.27708 0.75668 0.0
N542 N 0.304 0.26073 0.73622 0.0
C543 C 0.25326 0.2442 0.74419 0.0
C544 C 0.29996 0.28888 0.74255 0.0
C545 C 0.28091 0.23853 0.73682 0.0
C546 C 0.24901 0.27285 0.7509 0.0
C547 C 0.27255 0.29557 0.7502 0.0
O548 O 0.31075 0.25995 0.70839 0.0
O549 O 0.36825 0.21179 0.72131 0.0
O550 O 0.41896 0.22252 0.73731 0.0
O551 O 0.40085 0.26906 0.72792 0.0
O552 O 0.38736 0.24507 0.70855 0.0
O553 O 0.34928 0.29239 0.70793 0.0
O554 O 0.32656 0.18291 0.74794 0.0
O555 O 0.34418 0.23704 0.74404 0.0
O556 O 0.31843 0.21555 0.71187 0.0
O557 O 0.34065 0.17261 0.72241 0.0
O558 O 0.37392 0.22712 0.75914 0.0
O559 O 0.36655 0.16127 0.75758 0.0
C560 C 0.38832 0.21592 0.71195 0.0
C561 C 0.29948 0.31281 0.70305 0.0
C562 C 0.2904 0.36611 0.69532 0.0
C563 C 0.3082 0.33863 0.69517 0.0
C564 C 0.26325 0.36783 0.70345 0.0
C565 C 0.27171 0.31407 0.71092 0.0
C566 C 0.25373 0.34157 0.71111 0.0
C567 C 0.42576 0.25232 0.73304 0.0
C568 C 0.32125 0.28617 0.70341 0.0
C569 C 0.2697 0.32443 0.75705 0.0
C570 C 0.29386 0.34651 0.75619 0.0
C571 C 0.35304 0.24769 0.75618 0.0
C572 C 0.32084 0.16721 0.77127 0.0
C573 C 0.29298 0.15061 0.77332 0.0
C574 C 0.28007 0.14705 0.78672 0.0
C575 C 0.29366 0.1644 0.7977 0.0
C576 C 0.33436 0.18359 0.78236 0.0
C577 C 0.32014 0.18296 0.79542 0.0
C578 C 0.31919 0.18359 0.71277 0.0
C579 C 0.33627 0.16433 0.75771 0.0
H580 H 0.32981 0.33777 0.68921 0.0
H581 H 0.24961 0.38921 0.70385 0.0
H582 H 0.26416 0.29419 0.71704 0.0
H583 H 0.23266 0.34264 0.71735 0.0
H584 H 0.2826 0.1391 0.76443 0.0
H585 H 0.28521 0.16259 0.80826 0.0
H586 H 0.35598 0.19643 0.78102 0.0
H587 H 0.33059 0.19566 0.80399 0.0
Tb588 Tb 0.08698 0.0923 0.97445 0.0
C589 C 0.17253 0.18614 1.00226 0.0
C590 C 0.21925 0.201 0.98962 0.0
C591 C 0.19794 0.23607 1.00705 0.0
C592 C 0.19434 0.17988 0.99204 0.0
C593 C 0.17394 0.21449 1.00981 0.0
C594 C 0.22065 0.22926 0.99702 0.0
C595 C 0.12757 0.19861 1.02221 0.0
N596 N 0.14954 0.16471 1.00462 0.0
C597 C 0.12705 0.17086 1.01453 0.0
C598 C 0.15115 0.22048 1.01988 0.0
Tb599 Tb 0.15166 0.11947 0.99114 0.0
N600 N 0.19192 0.15257 0.98484 0.0
C601 C 0.21523 0.14429 0.97578 0.0
C602 C 0.24256 0.19274 0.98013 0.0
C603 C 0.24078 0.16402 0.97336 0.0
H604 H 0.10736 0.15548 1.01606 0.0
H605 H 0.25885 0.15722 0.96606 0.0
H606 H 0.2394 0.24585 0.99518 0.0
H607 H 0.10946 0.20329 1.02981 0.0
H608 H 0.2144 0.12273 0.97013 0.0
H609 H 0.96957 0.1318 0.98651 0.0
H610 H 0.26217 0.20817 0.97807 0.0
H611 H 0.12957 1.03258 0.98616 0.0
H612 H 1.02043 0.13397 0.97458 0.0
H613 H 0.12137 0.98667 1.00126 0.0
H614 H 0.19933 0.25796 1.01272 0.0
H615 H 0.9581 0.08881 1.00299 0.0
H616 H 0.97541 1.03885 1.01445 0.0
H617 H 0.15139 0.24203 1.02583 0.0
H618 H 1.01607 0.99876 1.01799 0.0
N619 N 1.03949 0.09466 0.98543 0.0
C620 C 1.01664 0.11606 0.98234 0.0
C621 C 0.9809 0.0901 0.99807 0.0
C622 C 1.0036 0.06711 1.0005 0.0
C623 C 0.98736 0.11451 0.98884 0.0
C624 C 1.03295 0.06995 0.99386 0.0
H625 H 0.07043 0.979 1.01306 0.0
N626 N 0.08397 0.05125 0.98956 0.0
C627 C 0.10271 1.00354 0.99982 0.0
C628 C 0.05571 0.0472 0.99578 0.0
C629 C 0.10734 1.02972 0.99132 0.0
C630 C 0.07388 0.99921 1.00642 0.0
C631 C 0.04995 1.02122 1.00448 0.0
O632 O 0.07939 0.04966 0.96436 0.0
O633 O 0.13079 0.11274 0.97158 0.0
O634 O 0.12158 0.16522 0.98711 0.0
O635 O 0.07378 0.14576 0.97925 0.0
O636 O 0.09511 0.12927 0.95896 0.0
O637 O 0.05274 0.0906 0.95864 0.0
O638 O 0.19584 0.11281 1.00063 0.0
O639 O 0.10558 0.09833 0.99548 0.0
O640 O 0.12894 0.06249 0.96428 0.0
O641 O 0.17236 0.08852 0.97236 0.0
O642 O 0.13196 0.10671 1.01209 0.0
O643 O 0.16275 0.075 0.99907 0.0
C644 C 0.12453 0.13152 0.9618 0.0
C645 C 0.0654 0.0543 0.9408 0.0
C646 C 0.04784 0.05854 0.9169 0.0
C647 C 1.04333 0.06403 0.9311 0.0
C648 C 0.07469 1.04291 0.91226 0.0
C649 C 0.09196 1.03768 0.93619 0.0
C650 C 0.09655 1.0321 0.92198 0.0
C651 C 0.09108 0.17125 0.98357 0.0
C652 C 0.05974 0.06166 0.95555 0.0
C653 C 1.02086 1.01842 1.01119 0.0
C654 C 0.99775 1.04132 1.00921 0.0
C655 C 0.10475 0.0954 1.00913 0.0
C656 C 0.21577 0.06061 0.99999 0.0
C657 C 0.22253 1.03774 1.01001 0.0
C658 C 0.24834 1.01734 1.00845 0.0
C659 C 0.26542 1.0187 0.99588 0.0
C660 C 0.23319 0.06147 0.98766 0.0
C661 C 0.25747 1.04021 0.98552 0.0
C662 C 0.16106 0.06493 0.96397 0.0
C663 C 0.19062 0.08322 1.00298 0.0
H664 H 1.02284 0.0769 0.9346 0.0
H665 H 0.07868 1.03924 0.90125 0.0
H666 H 0.10914 1.02911 0.94349 0.0
H667 H 0.11723 1.01968 0.91851 0.0
H668 H 0.20792 1.03673 1.01919 0.0
H669 H 0.28585 1.0043 0.99413 0.0
H670 H 0.22843 0.0785 0.97972 0.0
H671 H 0.27095 1.04115 0.97599 0.0
Tb672 Tb 0.86955 0.90473 0.74264 0.0
C673 C 0.79714 0.80938 0.74468 0.0
C674 C 0.81665 0.75707 0.7492 0.0
C675 C 0.76747 0.77399 0.75951 0.0
C676 C 0.81991 0.78667 0.74283 0.0
C677 C 0.77075 0.80338 0.7531 0.0
C678 C 0.79037 0.75089 0.75756 0.0
C679 C 0.75378 0.85653 0.74891 0.0
N680 N 0.80169 0.83791 0.73879 0.0
C681 C 0.78033 0.86138 0.74067 0.0
C682 C 0.74889 0.82738 0.75512 0.0
Tb683 Tb 0.84358 0.8416 0.72413 0.0
N684 N 0.84516 0.79359 0.73478 0.0
C685 C 0.86692 0.77092 0.73193 0.0
C686 C 0.83983 0.7345 0.74694 0.0
C687 C 0.86492 0.74139 0.73816 0.0
H688 H 0.78364 0.88393 0.73588 0.0
H689 H 0.88243 0.72372 0.73597 0.0
H690 H 0.78756 0.72835 0.76259 0.0
H691 H 0.73708 0.87529 0.75045 0.0
H692 H 0.88542 0.77494 0.72448 0.0
H693 H 0.88978 1.01981 0.72055 0.0
H694 H 0.83823 0.71151 0.75167 0.0
H695 H 0.90976 0.87 0.769 0.0
H696 H 0.85857 0.97454 0.72723 0.0
H697 H 0.96092 0.87513 0.78008 0.0
H698 H 0.74746 0.769 0.76608 0.0
H699 H 0.94603 1.02211 0.72648 0.0
H700 H 0.9916 0.99843 0.73904 0.0
H701 H 0.7284 0.82376 0.76158 0.0
H702 H 1.01087 0.95904 0.75563 0.0
N703 N 0.89714 0.94829 0.73549 0.0
C704 C 0.88332 0.97369 0.72924 0.0
C705 C 0.93253 1.00148 0.72914 0.0
C706 C 0.94589 0.97697 0.73673 0.0
C707 C 0.90084 1.00022 0.72576 0.0
C708 C 0.92712 0.95078 0.74012 0.0
H709 H 0.99906 0.91401 0.77147 0.0
N710 N 0.91734 0.90668 0.75411 0.0
C711 C 0.95467 0.89051 0.77156 0.0
C712 C 0.93758 0.92929 0.7498 0.0
C713 C 0.92519 0.88815 0.76532 0.0
C714 C 0.97623 0.91229 0.7666 0.0
C715 C 0.96763 0.93245 0.75579 0.0
O716 O 0.82449 0.91878 0.74898 0.0
O717 O 0.84813 0.85816 0.74569 0.0
O718 O 0.81379 0.88316 0.71419 0.0
O719 O 0.83741 0.92612 0.72409 0.0
O720 O 0.85826 0.88141 0.76284 0.0
O721 O 0.86548 0.94366 0.75589 0.0
O722 O 0.80261 0.83662 0.71238 0.0
O723 O 0.86378 0.88602 0.72277 0.0
O724 O 0.91498 0.87304 0.7393 0.0
O725 O 0.897 0.82825 0.72802 0.0
O726 O 0.88163 0.85291 0.7094 0.0
O727 O 0.84263 0.80706 0.70852 0.0
C728 C 0.84581 0.85535 0.7593 0.0
C729 C 0.82247 0.94105 0.77139 0.0
C730 C 0.78081 0.95785 0.78716 0.0
C731 C 0.7927 0.95403 0.77358 0.0
C732 C 0.79823 0.94544 0.79838 0.0
C733 C 0.83992 0.93021 0.78281 0.0
C734 C 0.82734 0.93151 0.79616 0.0
C735 C 0.81519 0.91514 0.71481 0.0
C736 C 0.8353 0.94045 0.75717 0.0
C737 C 0.98756 0.95656 0.75131 0.0
C738 C 0.97663 0.97892 0.74183 0.0
C739 C 0.88323 0.88185 0.71312 0.0
C740 C 0.81156 0.82156 0.68916 0.0
C741 C 0.82128 0.79813 0.68014 0.0
C742 C 0.82054 0.80269 0.66574 0.0
C743 C 0.8093 0.83088 0.66021 0.0
C744 C 0.79948 0.84962 0.68362 0.0
C745 C 0.79828 0.85415 0.66919 0.0
C746 C 0.92166 0.84392 0.73402 0.0
C747 C 0.81504 0.81593 0.70419 0.0
H748 H 0.77955 0.96246 0.76469 0.0
H749 H 0.79056 0.94817 0.80904 0.0
H750 H 0.86338 0.92108 0.78152 0.0
H751 H 0.84084 0.92296 0.80491 0.0
H752 H 0.83094 0.77662 0.6844 0.0
H753 H 0.80934 0.83491 0.64908 0.0
H754 H 0.7913 0.86813 0.69033 0.0
H755 H 0.78935 0.87594 0.665 0.0
Tb756 Tb 0.94331 0.12056 0.49256 0.0
C757 C 1.03914 0.05012 0.49369 0.0
C758 C 0.09052 0.07157 0.49859 0.0
C759 C 0.07527 1.02154 0.5086 0.0
C760 C 0.06099 0.07387 0.49206 0.0
C761 C 1.04608 1.02365 0.50193 0.0
C762 C 0.0974 1.04546 0.50696 0.0
C763 C 0.9943 1.00388 0.49682 0.0
N764 N 1.01056 0.05362 0.48767 0.0
C765 C 0.9884 1.03061 0.48883 0.0
C766 C 1.02323 1.00039 0.50343 0.0
Tb767 Tb 1.0053 0.09616 0.47339 0.0
N768 N 0.05346 0.09894 0.48396 0.0
C769 C 0.0758 0.12092 0.48092 0.0
C770 C 0.11246 0.09533 0.49635 0.0
C771 C 0.10521 0.11988 0.48732 0.0
H772 H 0.96608 1.033 0.48367 0.0
H773 H 0.12251 0.13767 0.48505 0.0
H774 H 0.11988 1.04343 0.51212 0.0
H775 H 0.97653 0.98596 0.49787 0.0
H776 H 0.07161 0.13893 0.47325 0.0
H777 H 0.82361 0.11733 0.47334 0.0
H778 H 0.13538 0.09445 0.50119 0.0
H779 H 0.96789 0.17157 0.51815 0.0
H780 H 0.87239 0.09497 0.48198 0.0
H781 H 0.95753 0.22514 0.52499 0.0
H782 H 0.08093 1.00154 0.51508 0.0
H783 H 0.81467 0.17439 0.47456 0.0
H784 H 0.8326 0.22646 0.48335 0.0
H785 H 1.02764 0.97975 0.5097 0.0
H786 H 0.87025 0.25648 0.49729 0.0
N787 N 0.89492 0.13922 0.48541 0.0
C788 C 0.87068 0.12013 0.48137 0.0
C789 C 0.83706 0.16478 0.47774 0.0
C790 C 0.86005 0.18373 0.48371 0.0
C791 C 0.84209 0.13264 0.47695 0.0
C792 C 0.88891 0.17002 0.48767 0.0
H793 H 0.91638 0.25588 0.51324 0.0
N794 N 0.93403 0.17063 0.50151 0.0
C795 C 0.94401 0.2147 0.51667 0.0
C796 C 0.90949 0.18649 0.49589 0.0
C797 C 0.94961 0.18374 0.51267 0.0
C798 C 0.92097 0.23205 0.50995 0.0
C799 C 0.90245 0.21761 0.49986 0.0
O800 O 0.91042 0.11601 0.50872 0.0
O801 O 0.9871 0.09325 0.49498 0.0
O802 O 0.96434 0.06841 0.46216 0.0
O803 O 0.92202 0.08705 0.47436 0.0
O804 O 0.97676 0.12222 0.51038 0.0
O805 O 0.93291 0.07547 0.50005 0.0
O806 O 1.01031 0.0548 0.46205 0.0
O807 O 0.96089 0.11626 0.47253 0.0
O808 O 0.97392 0.16663 0.48915 0.0
O809 O 1.01865 0.14942 0.47772 0.0
O810 O 0.9934 0.13507 0.45915 0.0
O811 O 1.03946 0.09459 0.45754 0.0
C812 C 0.99783 0.10212 0.50713 0.0
C813 C 0.91635 0.07177 0.52332 0.0
C814 C 0.89648 1.0323 0.53944 0.0
C815 C 0.89952 1.04428 0.52586 0.0
C816 C 0.91403 1.04653 0.55017 0.0
C817 C 0.93294 0.08609 0.53417 0.0
C818 C 0.93249 0.07287 0.54745 0.0
C819 C 0.93262 0.06742 0.4639 0.0
C820 C 0.91381 0.08583 0.50945 0.0
C821 C 0.87567 0.23247 0.49454 0.0
C822 C 0.85424 0.21539 0.48662 0.0
C823 C 0.96456 0.13628 0.4631 0.0
C824 C 1.0261 0.06054 0.43883 0.0
C825 C 1.04669 0.07403 0.42941 0.0
C826 C 1.04397 0.06818 0.41516 0.0
C827 C 1.02006 0.04891 0.41012 0.0
C828 C 1.00258 1.04027 0.43385 0.0
C829 C 0.99942 1.03481 0.41953 0.0
C830 C 1.00285 0.17385 0.48382 0.0
C831 C 1.0311 0.06646 0.45375 0.0
H832 H 0.88741 1.03331 0.51725 0.0
H833 H 0.9123 1.03861 0.56083 0.0
H834 H 0.94587 0.10752 0.53246 0.0
H835 H 0.94536 0.08391 0.55582 0.0
H836 H 0.06526 0.08921 0.43318 0.0
H837 H 1.01764 1.04461 0.39907 0.0
H838 H 0.98679 1.02854 0.44095 0.0
H839 H 0.9811 1.01949 0.41577 0.0
Tb840 Tb 0.72209 0.18841 0.2408 0.0
C841 C 0.79435 0.28468 0.24522 0.0
C842 C 0.77475 0.3369 0.24987 0.0
C843 C 0.82355 0.31957 0.26044 0.0
C844 C 0.77166 0.30749 0.24333 0.0
C845 C 0.82046 0.29039 0.25385 0.0
C846 C 0.80076 0.34277 0.25844 0.0
C847 C 0.83786 0.23754 0.24925 0.0
N848 N 0.79014 0.25643 0.23904 0.0
C849 C 0.81163 0.23301 0.24076 0.0
C850 C 0.84234 0.26636 0.25581 0.0
Tb851 Tb 0.74876 0.25339 0.2241 0.0
N852 N 0.7467 0.30088 0.23506 0.0
C853 C 0.72512 0.32367 0.23212 0.0
C854 C 0.75171 0.35959 0.24753 0.0
C855 C 0.72693 0.35302 0.23852 0.0
H856 H 0.80869 0.21079 0.23564 0.0
H857 H 0.70954 0.37077 0.23627 0.0
H858 H 0.80344 0.36517 0.2636 0.0
H859 H 0.85466 0.21883 0.25069 0.0
H860 H 0.7069 0.3198 0.22451 0.0
H861 H 0.68625 0.07901 0.21727 0.0
H862 H 0.75318 0.38244 0.25238 0.0
H863 H 0.68638 0.23277 0.26569 0.0
H864 H 0.7202 0.12412 0.22084 0.0
H865 H 0.63849 0.23089 0.27947 0.0
H866 H 0.84336 0.32434 0.26716 0.0
H867 H 0.63507 0.07595 0.22916 0.0
H868 H 0.59673 0.09953 0.24576 0.0
H869 H 0.86263 0.26976 0.26242 0.0
H870 H 0.58412 0.14039 0.26287 0.0
N871 N 0.68943 0.14756 0.23487 0.0
C872 C 0.69829 0.12362 0.22625 0.0
C873 C 0.65013 0.096 0.23089 0.0
C874 C 0.64134 0.11993 0.23997 0.0
C875 C 0.67896 0.09764 0.22418 0.0
C876 C 0.66208 0.14529 0.24205 0.0
H877 H 0.59978 0.18885 0.27566 0.0
N878 N 0.67697 0.19059 0.25433 0.0
C879 C 0.64315 0.2127 0.27191 0.0
C880 C 0.65562 0.16747 0.25209 0.0
C881 C 0.67091 0.21314 0.26421 0.0
C882 C 0.62129 0.18906 0.26967 0.0
C883 C 0.62733 0.16607 0.2597 0.0
O884 O 0.72891 0.14423 0.25036 0.0
O885 O 0.7433 0.23452 0.24518 0.0
O886 O 0.77874 0.21188 0.21389 0.0
O887 O 0.75238 0.1684 0.22165 0.0
O888 O 0.7353 0.20782 0.26174 0.0
O889 O 0.76686 0.17695 0.24825 0.0
O890 O 0.79077 0.2603 0.21334 0.0
O891 O 0.72826 0.20962 0.22131 0.0
O892 O 0.67605 0.21842 0.23683 0.0
O893 O 0.69541 0.26632 0.229 0.0
O894 O 0.71138 0.24503 0.20874 0.0
O895 O 0.75003 0.28815 0.20852 0.0
C896 C 0.74665 0.23504 0.25882 0.0
C897 C 0.78104 0.12382 0.24941 0.0
C898 C 0.82406 0.09125 0.25787 0.0
C899 C 0.80116 0.11442 0.26012 0.0
C900 C 0.82687 0.0778 0.2446 0.0
C901 C 0.78392 0.10981 0.23627 0.0
C902 C 0.80688 0.08713 0.23386 0.0
C903 C 0.77611 0.17986 0.21336 0.0
C904 C 0.75863 0.14923 0.25238 0.0
C905 C 0.60596 0.14177 0.25716 0.0
C906 C 0.61305 0.11862 0.24737 0.0
C907 C 0.70932 0.2156 0.21157 0.0
C908 C 0.78415 0.27517 0.18994 0.0
C909 C 0.77425 0.29796 0.18061 0.0
C910 C 0.77771 0.29363 0.16627 0.0
C911 C 0.79159 0.2663 0.16113 0.0
C912 C 0.79898 0.24806 0.18481 0.0
C913 C 0.80264 0.2437 0.17046 0.0
C914 C 0.66997 0.24897 0.2333 0.0
C915 C 0.77847 0.28052 0.20486 0.0
H916 H 0.79835 0.12472 0.27035 0.0
H917 H 0.84429 0.05994 0.24256 0.0
H918 H 0.76874 0.11609 0.22783 0.0
H919 H 0.80902 0.07659 0.22367 0.0
H920 H 0.76271 0.31887 0.1845 0.0
H921 H 0.7937 0.26248 0.15003 0.0
H922 H 0.80756 0.23021 0.19178 0.0
H923 H 0.81369 0.22262 0.16658 0.0
Tb924 Tb 0.65583 0.97283 0.99125 0.0
C925 C 0.56079 1.04626 0.99424 0.0
C926 C 0.50825 1.02748 0.99885 0.0
C927 C 0.52598 0.07634 1.00916 0.0
C928 C 0.53774 1.02382 0.99242 0.0
C929 C 0.55526 0.07265 1.00271 0.0
C930 C 0.50252 0.05382 1.00723 0.0
C931 C 0.60856 0.08896 0.99836 0.0
N932 N 0.58916 1.04142 0.98823 0.0
C933 C 0.61291 0.06247 0.99003 0.0
C934 C 0.57959 0.09414 1.0047 0.0
Tb935 Tb 0.59204 0.99953 0.97357 0.0
N936 N 0.54425 0.99846 0.98439 0.0
C937 C 0.52131 0.97697 0.98161 0.0
C938 C 0.48538 1.00459 0.99666 0.0
C939 C 0.49187 0.97936 0.98791 0.0
H940 H 0.63528 0.05898 0.98511 0.0
H941 H 0.47399 0.96205 0.98578 0.0
H942 H 0.48007 0.05693 1.0123 0.0
H943 H 0.62754 0.10541 0.99985 0.0
H944 H 0.52508 0.95837 0.97419 0.0
H945 H 0.7706 0.94825 0.96999 0.0
H946 H 0.46247 1.00649 1.00144 0.0
H947 H 0.61628 0.93393 1.01654 0.0
H948 H 0.72522 0.9807 0.97546 0.0
H949 H 0.61868 0.88279 1.02794 0.0
H950 H 0.52134 0.09637 1.01576 0.0
H951 H 0.77213 0.89283 0.97733 0.0
H952 H 0.74714 0.84881 0.9905 0.0
H953 H 0.57635 0.11461 1.01119 0.0
H954 H 0.70605 0.83125 1.00664 0.0
N955 N 0.69871 0.94363 0.98474 0.0
C956 C 0.72431 0.95632 0.97822 0.0
C957 C 0.75158 0.90688 0.97955 0.0
C958 C 0.72662 0.89467 0.98721 0.0
C959 C 0.75077 0.9381 0.97537 0.0
C960 C 0.70065 0.91417 0.99004 0.0
H961 H 0.65881 0.84417 1.02101 0.0
N962 N 0.65555 0.92557 1.00315 0.0
C963 C 0.63569 0.88873 1.02001 0.0
C964 C 0.67837 0.90482 0.99959 0.0
C965 C 0.63489 0.91817 1.01365 0.0
C966 C 0.65823 0.86691 1.01601 0.0
C967 C 0.68023 0.87496 1.00585 0.0
O968 O 0.67205 1.01784 0.99636 0.0
O969 O 0.60959 0.99466 0.99493 0.0
O970 O 0.63394 1.02894 0.96341 0.0
O971 O 0.67722 1.00409 0.97247 0.0
O972 O 0.63407 0.98509 1.01177 0.0
O973 O 0.69502 0.97667 1.00441 0.0
O974 O 0.58635 1.0408 0.96208 0.0
O975 O 0.63603 0.97891 0.97153 0.0
O976 O 0.62546 0.92708 0.98701 0.0
O977 O 0.57836 0.94631 0.97831 0.0
O978 O 0.60174 0.96169 0.95856 0.0
O979 O 0.55714 1.0006 0.9581 0.0
C980 C 0.60775 0.99758 1.00853 0.0
C981 C 0.69635 1.0225 1.01827 0.0
C982 C 0.71857 0.06513 1.03203 0.0
C983 C 0.71235 0.0511 1.01907 0.0
C984 C 0.70565 0.05136 1.04409 0.0
C985 C 0.68498 1.00851 1.0305 0.0
C986 C 0.68878 1.02346 1.04326 0.0
C987 C 0.66603 1.02689 0.96353 0.0
C988 C 0.69365 1.00712 1.00464 0.0
C989 C 0.70445 0.85441 1.00207 0.0
C990 C 0.72776 0.86433 0.99283 0.0
C991 C 0.63098 0.95979 0.96182 0.0
C992 C 0.57105 1.03221 0.93885 0.0
C993 C 0.54803 1.02157 0.92981 0.0
C994 C 0.55259 1.02247 0.91542 0.0
C995 C 0.58033 1.03477 0.9099 0.0
C996 C 0.59861 1.04542 0.93333 0.0
C997 C 0.60312 1.04673 0.9189 0.0
C998 C 0.59523 0.92092 0.98303 0.0
C999 C 0.56565 1.02838 0.95388 0.0
H1000 H 0.72127 0.06152 1.00958 0.0
H1001 H 0.71015 0.06085 0.05433 0.0
H1002 H 0.67366 0.98587 1.0303 0.0
H1003 H 0.67985 1.01264 1.05265 0.0
H1004 H 0.52686 1.01114 0.93404 0.0
H1005 H 0.58435 1.03488 0.89878 0.0
H1006 H 0.61673 0.05437 0.94006 0.0
H1007 H 0.62454 0.05651 0.91472 0.0
Tb1008 Tb 0.87309 0.18905 0.8641 0.0
C1009 C 0.80173 0.28498 0.86248 0.0
C1010 C 0.82167 0.33718 0.85814 0.0
C1011 C 0.77238 0.32086 0.84774 0.0
C1012 C 0.82469 0.30745 0.86441 0.0
C1013 C 0.77539 0.29136 0.85407 0.0
C1014 C 0.79547 0.34371 0.84976 0.0
C1015 C 0.75784 0.23839 0.8582 0.0
N1016 N 0.80601 0.25633 0.86831 0.0
C1017 C 0.78435 0.23315 0.86643 0.0
C1018 C 0.75327 0.26764 0.85201 0.0
Tb1019 Tb 0.84795 0.25198 0.88291 0.0
N1020 N 0.84983 0.30021 0.87249 0.0
C1021 C 0.87163 0.3227 0.87551 0.0
C1022 C 0.84494 0.35955 0.86054 0.0
C1023 C 0.86987 0.35236 0.86938 0.0
H1024 H 0.78738 0.21057 0.87122 0.0
H1025 H 0.88743 0.36987 0.87169 0.0
H1026 H 0.79285 0.36636 0.84481 0.0
H1027 H 0.74091 0.21986 0.85664 0.0
H1028 H 0.89001 0.31841 0.883 0.0
H1029 H 0.89212 0.07259 0.88489 0.0
H1030 H 0.84352 0.38264 0.85589 0.0
H1031 H 0.91326 0.22481 0.83801 0.0
H1032 H 0.86153 0.11882 0.87896 0.0
H1033 H 0.96404 0.2195 0.82663 0.0
H1034 H 0.75241 0.32614 0.84118 0.0
H1035 H 0.94789 0.06928 0.87827 0.0
H1036 H 0.99358 0.09297 0.86586 0.0
H1037 H 0.7328 0.27155 0.84557 0.0
H1038 H 1.01313 0.1331 0.84971 0.0
N1039 N 0.90025 0.14474 0.87065 0.0
C1040 C 0.88621 0.11929 0.87675 0.0
C1041 C 0.93478 0.09044 0.87605 0.0
C1042 C 0.94836 0.11518 0.86871 0.0
C1043 C 0.90335 0.09225 0.87982 0.0
C1044 C 0.93002 0.14196 0.8658 0.0
H1045 H 1.00173 0.17941 0.83456 0.0
N1046 N 0.92061 0.18708 0.85241 0.0
C1047 C 0.95776 0.20369 0.83498 0.0
C1048 C 0.94058 0.16388 0.85635 0.0
C1049 C 0.92847 0.20616 0.84139 0.0
C1050 C 0.97907 0.18123 0.83956 0.0
C1051 C 0.9704 0.16054 0.85015 0.0
O1052 O 0.82762 0.17582 0.85799 0.0
O1053 O 0.85208 0.2359 0.86123 0.0
O1054 O 0.81805 0.21036 0.89282 0.0
O1055 O 0.84128 0.16743 0.88273 0.0
O1056 O 0.86176 0.21269 0.84399 0.0
O1057 O 0.86805 0.15062 0.85063 0.0
O1058 O 0.80683 0.25764 0.89447 0.0
O1059 O 0.86778 0.20738 0.88406 0.0
O1060 O 0.91891 0.22027 0.8675 0.0
O1061 O 0.90142 0.26517 0.87886 0.0
O1062 O 0.8862 0.24011 0.89746 0.0
O1063 O 0.84759 0.28569 0.89891 0.0
C1064 C 0.84958 0.23884 0.84761 0.0
C1065 C 0.82436 0.15396 0.83552 0.0
C1066 C 0.78189 0.1376 0.82008 0.0
C1067 C 0.79439 0.14126 0.83356 0.0
C1068 C 0.79888 0.14995 0.80873 0.0
C1069 C 0.84138 0.16471 0.82396 0.0
C1070 C 0.82819 0.16362 0.81072 0.0
C1071 C 0.81924 0.17835 0.89212 0.0
C1072 C 0.83785 0.1542 0.84962 0.0
C1073 C 0.99 0.13575 0.85419 0.0
C1074 C 0.97891 0.11296 0.86341 0.0
C1075 C 0.88748 0.21121 0.89364 0.0
C1076 C 0.81518 0.27128 0.9179 0.0
C1077 C 0.82477 0.2941 0.92725 0.0
C1078 C 0.82246 0.28915 0.9416 0.0
C1079 C 0.81004 0.26111 0.94674 0.0
C1080 C 0.80185 0.24341 0.92304 0.0
C1081 C 0.7993 0.23843 0.9374 0.0
C1082 C 0.92594 0.24934 0.87279 0.0
C1083 C 0.81957 0.2775 0.90295 0.0
H1084 H 0.78159 0.13289 0.84255 0.0
H1085 H 0.79073 0.14734 0.79814 0.0
H1086 H 0.86498 0.17359 0.82506 0.0
H1087 H 0.84136 0.17212 0.80186 0.0
H1088 H 0.83527 0.31553 0.92332 0.0
H1089 H 0.80886 0.25679 0.95783 0.0
H1090 H 0.7936 0.22545 0.91607 0.0
H1091 H 0.78939 0.21678 0.94128 0.0
Tb1092 Tb 0.65076 0.11974 0.61593 0.0
C1093 C 0.5536 0.0479 0.61304 0.0
C1094 C 0.5025 0.0701 0.60825 0.0
C1095 C 0.51736 1.02044 0.5978 0.0
C1096 C 0.53199 0.07173 0.61486 0.0
C1097 C 0.54642 1.02182 0.60463 0.0
C1098 C 0.49551 1.04459 0.59956 0.0
C1099 C 0.59774 1.001 0.60987 0.0
N1100 N 0.58204 0.05073 0.61924 0.0
C1101 C 0.60396 1.0275 0.61795 0.0
C1102 C 0.56887 0.99814 0.60316 0.0
Tb1103 Tb 0.58786 0.09263 0.63383 0.0
N1104 N 0.53955 0.09601 0.62337 0.0
C1105 C 0.51717 0.11769 0.62679 0.0
C1106 C 0.48062 0.09376 0.61083 0.0
C1107 C 0.48784 0.11739 0.62031 0.0
H1108 H 0.62635 1.02945 0.62308 0.0
H1109 H 0.47056 0.13504 0.62286 0.0
H1110 H 0.47307 1.0431 0.59432 0.0
H1111 H 0.61527 0.98285 0.60879 0.0
H1112 H 0.52143 0.13499 0.63476 0.0
H1113 H 0.77015 0.11965 0.6354 0.0
H1114 H 0.45774 0.0934 0.60594 0.0
H1115 H 0.62203 0.17157 0.59133 0.0
H1116 H 0.72194 0.09594 0.62678 0.0
H1117 H 0.63104 0.22538 0.58453 0.0
H1118 H 0.51157 1.0008 0.59115 0.0
H1119 H 0.77769 0.17687 0.63389 0.0
H1120 H 0.75853 0.22839 0.62488 0.0
H1121 H 0.56425 0.97775 0.59678 0.0
H1122 H 0.71993 0.25753 0.61103 0.0
N1123 N 0.6986 0.13961 0.62295 0.0
C1124 C 0.72319 0.12116 0.62717 0.0
C1125 C 0.7556 0.16667 0.63069 0.0
C1126 C 0.73222 0.18498 0.62458 0.0
C1127 C 0.75137 0.13444 0.63163 0.0
C1128 C 0.7038 0.17051 0.62058 0.0
H1129 H 0.67293 0.25631 0.5956 0.0
N1130 N 0.65807 0.17028 0.60705 0.0
C1131 C 0.64566 0.21482 0.59246 0.0
C1132 C 0.68265 0.18652 0.61243 0.0
C1133 C 0.64099 0.18364 0.59635 0.0
C1134 C 0.66914 0.23227 0.5988 0.0
C1135 C 0.68869 0.2179 0.60853 0.0
O1136 O 0.68382 0.1156 0.59982 0.0
O1137 O 0.60797 0.09109 0.61266 0.0
O1138 O 0.62944 0.06336 0.64399 0.0
O1139 O 0.67216 0.08833 0.63468 0.0
O1140 O 0.61859 0.12049 0.59754 0.0
O1141 O 0.66385 0.07465 0.60938 0.0
O1142 O 0.5832 0.05106 0.64515 0.0
O1143 O 0.63148 0.11395 0.63562 0.0
O1144 O 0.62081 0.16539 0.62036 0.0
O1145 O 0.57398 0.14572 0.62888 0.0
O1146 O 0.59769 0.13077 0.64878 0.0
O1147 O 0.55408 0.09072 0.64984 0.0
C1148 C 0.59777 0.09982 0.60041 0.0
C1149 C 0.68054 0.06953 0.58619 0.0
C1150 C 0.70248 1.0289 0.57118 0.0
C1151 C 0.69788 1.04201 0.58446 0.0
C1152 C 0.68552 1.04189 0.55992 0.0
C1153 C 0.66451 0.08247 0.57484 0.0
C1154 C 0.66625 0.06802 0.56185 0.0
C1155 C 0.66138 0.06554 0.64368 0.0
C1156 C 0.68222 0.08521 0.59972 0.0
C1157 C 0.71523 0.23333 0.61373 0.0
C1158 C 0.73719 0.21677 0.62162 0.0
C1159 C 0.62678 0.13297 0.64536 0.0
C1160 C 0.56961 0.05801 0.66862 0.0
C1161 C 0.54809 0.06921 0.67823 0.0
C1162 C 0.55348 0.06603 0.69252 0.0
C1163 C 0.58066 0.05129 0.69735 0.0
C1164 C 0.59652 1.04228 0.67346 0.0
C1165 C 0.60201 1.03905 0.68776 0.0
C1166 C 0.59064 0.17131 0.62433 0.0
C1167 C 0.56303 0.06284 0.65373 0.0
H1168 H 0.70914 1.03205 0.59353 0.0
H1169 H 0.68818 1.03324 0.54943 0.0
H1170 H 0.65107 0.10381 0.57593 0.0
H1171 H 0.65384 0.07802 0.55308 0.0
H1172 H 0.52726 0.08132 0.67458 0.0
H1173 H 0.58527 0.04934 0.7084 0.0
H1174 H 0.61331 1.0326 0.66629 0.0
H1175 H 0.62296 1.02729 0.69139 0.0
Tb1176 Tb 0.72576 0.90623 0.36503 0.0
C1177 C 0.79974 0.81318 0.36157 0.0
C1178 C 0.78179 0.76082 0.356 0.0
C1179 C 0.83098 0.77987 0.34644 0.0
C1180 C 0.77747 0.78973 0.36283 0.0
C1181 C 0.82659 0.80861 0.35326 0.0
C1182 C 0.80865 0.75603 0.34782 0.0
C1183 C 0.84181 0.86187 0.35838 0.0
N1184 N 0.79419 0.84108 0.36788 0.0
C1185 C 0.81486 0.86529 0.36651 0.0
C1186 C 0.84779 0.83338 0.35177 0.0
Tb1187 Tb 0.7519 0.842 0.38233 0.0
N1188 N 0.75154 0.79535 0.37066 0.0
C1189 C 0.73005 0.77206 0.3728 0.0
C1190 C 0.75899 0.73759 0.35758 0.0
C1191 C 0.73313 0.74318 0.36609 0.0
H1192 H 0.81067 0.88732 0.37161 0.0
H1193 H 0.71586 0.725 0.36773 0.0
H1194 H 0.81228 0.73403 0.34244 0.0
H1195 H 0.858 0.88121 0.35724 0.0
H1196 H 0.71098 0.77506 0.38006 0.0
H1197 H 0.68842 1.01262 0.39049 0.0
H1198 H 0.7614 0.7151 0.35247 0.0
H1199 H 0.69028 0.86281 0.33971 0.0
H1200 H 0.72241 0.96756 0.38652 0.0
H1201 H 0.64242 0.86528 0.32591 0.0
H1202 H 0.85138 0.77597 0.33997 0.0
H1203 H 0.63749 1.01654 0.3784 0.0
H1204 H 0.59951 0.99409 0.36128 0.0
H1205 H 0.86861 0.83087 0.34542 0.0
H1206 H 0.58736 0.95444 0.34356 0.0
N1207 N 0.69236 0.94574 0.37173 0.0
C1208 C 0.70079 0.96876 0.38088 0.0
C1209 C 0.65268 0.9967 0.37641 0.0
C1210 C 0.64417 0.97348 0.36692 0.0
C1211 C 0.68137 0.99458 0.38323 0.0
C1212 C 0.6651 0.94844 0.3645 0.0
H1213 H 0.60343 0.90688 0.33017 0.0
N1214 N 0.68049 0.90418 0.3516 0.0
C1215 C 0.64692 0.883 0.33371 0.0
C1216 C 0.65894 0.92701 0.3541 0.0
C1217 C 0.67464 0.88222 0.34143 0.0
C1218 C 0.6249 0.90639 0.33619 0.0
C1219 C 0.63071 0.92877 0.34646 0.0
O1220 O 0.72998 0.95072 0.35555 0.0
O1221 O 0.7471 0.85999 0.36102 0.0
O1222 O 0.78025 0.88311 0.39362 0.0
O1223 O 0.75862 0.92676 0.38339 0.0
O1224 O 0.73935 0.88613 0.34429 0.0
O1225 O 0.7693 0.91936 0.35666 0.0
O1226 O 0.79332 0.83486 0.39352 0.0
O1227 O 0.73182 0.88616 0.38475 0.0
O1228 O 0.67972 0.87599 0.36886 0.0
O1229 O 0.69866 0.82869 0.37755 0.0
O1230 O 0.71406 0.85105 0.39734 0.0
O1231 O 0.7528 0.80582 0.39721 0.0
C1232 C 0.75058 0.85898 0.34738 0.0
C1233 C 0.78108 0.97315 0.35574 0.0
C1234 C 0.82294 1.00712 0.34724 0.0
C1235 C 0.80147 0.98255 0.34514 0.0
C1236 C 0.82406 1.02188 0.36029 0.0
C1237 C 0.78214 0.98861 0.36861 0.0
C1238 C 0.80364 1.0127 0.37087 0.0
C1239 C 0.77991 0.9152 0.39294 0.0
C1240 C 0.75961 0.94692 0.3529 0.0
C1241 C 0.60916 0.95277 0.3493 0.0
C1242 C 0.61598 0.97523 0.35944 0.0
C1243 C 0.71239 0.88042 0.39431 0.0
C1244 C 0.78562 0.81702 0.41643 0.0
C1245 C 0.77539 0.79292 0.425 0.0
C1246 C 0.77734 0.79549 0.43947 0.0
C1247 C 0.79029 0.82237 0.4455 0.0
C1248 C 0.79956 0.84368 0.42245 0.0
C1249 C 0.80187 0.84623 0.43695 0.0
C1250 C 0.67341 0.84574 0.37281 0.0
C1251 C 0.78091 0.81345 0.40136 0.0
H1252 H 0.79978 0.97126 0.33506 0.0
H1253 H 0.84041 1.04075 0.36227 0.0
H1254 H 0.7667 0.98226 0.37695 0.0
H1255 H 0.80443 1.02435 0.38086 0.0
H1256 H 0.76443 0.77247 0.42037 0.0
H1257 H 0.79118 0.82493 0.45671 0.0
H1258 H 0.80838 0.86259 0.41607 0.0
H1259 H 0.81216 0.86695 0.44154 0.0
Tb1260 Tb 0.93892 0.97422 0.1141 0.0
C1261 C 1.03453 1.04704 0.11196 0.0
C1262 C 0.08605 1.0259 0.10713 0.0
C1263 C 0.07028 0.07549 0.09684 0.0
C1264 C 0.0566 1.0236 0.11372 0.0
C1265 C 1.04116 0.07332 0.10355 0.0
C1266 C 0.09264 0.0518 0.09859 0.0
C1267 C 0.98919 0.09271 0.10855 0.0
N1268 N 1.00607 1.04343 0.11805 0.0
C1269 C 0.98361 0.06613 0.11669 0.0
C1270 C 1.01808 0.09632 0.10194 0.0
Tb1271 Tb 1.00098 1.00105 0.13248 0.0
N1272 N 0.04932 0.99877 0.12198 0.0
C1273 C 0.0718 0.97689 0.12503 0.0
C1274 C 0.10818 1.00233 0.10945 0.0
C1275 C 0.10114 0.97793 0.11858 0.0
H1276 H 0.96118 0.06364 0.12172 0.0
H1277 H 0.11855 0.96023 0.12088 0.0
H1278 H 0.11506 0.05384 0.09338 0.0
H1279 H 0.97118 0.11036 0.10737 0.0
H1280 H 0.06772 0.95894 0.13274 0.0
H1281 H 0.81879 0.9777 0.1326 0.0
H1282 H 0.13103 1.00321 0.10456 0.0
H1283 H 0.96623 0.92155 0.08959 0.0
H1284 H 0.86776 1.00006 0.12403 0.0
H1285 H 0.95648 0.86761 0.0832 0.0
H1286 H 0.07569 0.09534 0.09023 0.0
H1287 H 0.81017 0.92056 0.13162 0.0
H1288 H 0.82841 0.86836 0.12305 0.0
H1289 H 1.02223 0.11681 0.09554 0.0
H1290 H 0.86682 0.83791 0.10972 0.0
N1291 N 0.89032 0.95576 0.12084 0.0
C1292 C 0.86594 0.97489 0.12467 0.0
C1293 C 0.83255 0.93019 0.12846 0.0
C1294 C 0.85571 0.91115 0.12265 0.0
C1295 C 0.83739 0.96238 0.1291 0.0
C1296 C 0.88457 0.92486 0.11874 0.0
H1297 H 0.91415 0.83767 0.0945 0.0
N1298 N 0.93067 0.92364 0.10549 0.0
C1299 C 0.94214 0.8786 0.0911 0.0
C1300 C 0.90567 0.90808 0.11088 0.0
C1301 C 0.94732 0.90981 0.0948 0.0
C1302 C 0.9184 0.86171 0.09756 0.0
C1303 C 0.89902 0.87673 0.10715 0.0
O1304 O 0.92797 1.01906 0.10638 0.0
O1305 O 0.98187 1.00282 0.11117 0.0
O1306 O 0.95968 1.03023 0.14267 0.0
O1307 O 0.91724 1.00611 0.13268 0.0
O1308 O 0.97284 0.97194 0.09639 0.0
O1309 O 0.90628 0.97803 0.0978 0.0
O1310 O 1.00327 1.04125 0.14489 0.0
O1311 O 0.95728 0.97973 0.13397 0.0
O1312 O 0.96874 0.92847 0.1185 0.0
O1313 O 1.01497 0.9479 0.12776 0.0
O1314 O 0.99085 0.96242 0.14714 0.0
O1315 O 1.03629 1.00368 0.14772 0.0
C1316 C 0.99293 0.99332 0.09923 0.0
C1317 C 0.91495 1.02075 0.08261 0.0
C1318 C 0.90219 0.06156 0.06562 0.0
C1319 C 0.90252 0.05025 0.07942 0.0
C1320 C 0.91837 1.04396 0.05543 0.0
C1321 C 0.93007 1.00338 0.07222 0.0
C1322 C 0.93256 1.01547 0.05881 0.0
C1323 C 0.92781 1.02841 0.14199 0.0
C1324 C 0.90998 1.00811 0.09666 0.0
C1325 C 0.87199 0.86206 0.11229 0.0
C1326 C 0.85013 0.87939 0.11988 0.0
C1327 C 0.96178 0.96044 0.14364 0.0
C1328 C 1.02076 1.03178 0.16772 0.0
C1329 C 1.0455 1.02274 0.17616 0.0
C1330 C 1.04199 1.02115 0.1906 0.0
C1331 C 1.01352 1.02971 0.19676 0.0
C1332 C 0.99234 1.04113 0.17389 0.0
C1333 C 0.98889 1.04027 0.18838 0.0
C1334 C 0.99862 0.92245 0.12286 0.0
C1335 C 1.02551 1.03004 0.1526 0.0
H1336 H 0.89186 0.06345 0.08777 0.0
H1337 H 0.91886 0.05092 1.04462 0.0
H1338 H 0.93967 0.98044 0.0744 0.0
H1339 H 0.94433 1.00204 1.05081 0.0
H1340 H 0.06722 1.01505 0.17136 0.0
H1341 H 1.0103 1.02781 0.20791 0.0
H1342 H 0.97274 0.0486 0.16762 0.0
H1343 H 0.96686 1.04706 0.19306 0.0
Tb1344 Tb 0.74901 0.75298 0.88309 0.0
C1345 C 0.65401 0.66606 0.85747 0.0
C1346 C 0.64536 0.61709 0.86951 0.0
C1347 C 0.60408 0.63901 0.85514 0.0
C1348 C 0.66419 0.64358 0.86678 0.0
C1349 C 0.62396 0.66378 0.85139 0.0
C1350 C 0.61485 0.61554 0.86411 0.0
C1351 C 0.63635 0.70886 0.83732 0.0
N1352 N 0.67418 0.68935 0.85386 0.0
C1353 C 0.66601 0.71002 0.84345 0.0
C1354 C 0.61511 0.68587 0.8414 0.0
Tb1355 Tb 0.72201 0.68941 0.86536 0.0
N1356 N 0.69382 0.64585 0.87188 0.0
C1357 C 0.70716 0.62034 0.87823 0.0
C1358 C 0.65835 0.59207 0.87689 0.0
C1359 C 0.68955 0.59349 0.88105 0.0
H1360 H 0.68128 0.72899 0.84049 0.0
H1361 H 0.70024 0.57371 0.88626 0.0
H1362 H 0.59984 0.59574 0.86639 0.0
H1363 H 0.62981 0.7259 0.82949 0.0
H1364 H 0.73164 0.61974 0.88083 0.0
H1365 H 0.71097 0.87099 0.87112 0.0
H1366 H 0.64487 0.57107 0.87895 0.0
H1367 H 0.80845 0.70994 0.87135 0.0
H1368 H 0.7079 0.81997 0.88284 0.0
H1369 H 0.85458 0.71782 0.85642 0.0
H1370 H 0.58081 0.63709 0.85071 0.0
H1371 H 0.75467 0.88239 0.85501 0.0
H1372 H 0.80477 0.8648 0.84379 0.0
H1373 H 0.5922 0.68497 0.83656 0.0
H1374 H 0.8444 0.82372 0.84024 0.0
N1375 N 0.74751 0.80075 0.87227 0.0
C1376 C 0.72614 0.82371 0.87523 0.0
C1377 C 0.75301 0.85952 0.85985 0.0
C1378 C 0.77587 0.83666 0.8575 0.0
C1379 C 0.7282 0.85309 0.86886 0.0
C1380 C 0.77254 0.80722 0.86402 0.0
H1381 H 0.86321 0.76894 0.84492 0.0
N1382 N 0.79051 0.75591 0.8682 0.0
C1383 C 0.83802 0.73671 0.85793 0.0
C1384 C 0.79507 0.78426 0.86213 0.0
C1385 C 0.81169 0.73227 0.86636 0.0
C1386 C 0.84289 0.76564 0.85151 0.0
C1387 C 0.82125 0.78985 0.85352 0.0
O1388 O 0.79088 0.75946 0.89401 0.0
O1389 O 0.72859 0.70886 0.88511 0.0
O1390 O 0.67635 0.71976 0.86982 0.0
O1391 O 0.69575 0.76677 0.87849 0.0
O1392 O 0.71143 0.743 0.8982 0.0
O1393 O 0.75012 0.78725 0.89884 0.0
O1394 O 0.76705 0.67493 0.85919 0.0
O1395 O 0.74364 0.73564 0.86177 0.0
O1396 O 0.77858 0.71111 0.89318 0.0
O1397 O 0.75396 0.66798 0.88392 0.0
O1398 O 0.73265 0.71203 0.84487 0.0
O1399 O 0.72599 0.6502 0.85226 0.0
C1400 C 0.70953 0.71384 0.89486 0.0
C1401 C 0.78404 0.77384 0.91744 0.0
C1402 C 0.77738 0.79198 0.94114 0.0
C1403 C 0.77412 0.79651 0.9268 0.0
C1404 C 0.79112 0.76452 0.94626 0.0
C1405 C 0.79872 0.74661 0.92255 0.0
C1406 C 0.80223 0.74204 0.9369 0.0
C1407 C 0.67029 0.74995 0.87383 0.0
C1408 C 0.77852 0.7795 0.90253 0.0
C1409 C 0.82456 0.81905 0.84695 0.0
C1410 C 0.80192 0.84239 0.84894 0.0
C1411 C 0.74553 0.73808 0.84815 0.0
C1412 C 0.76911 0.65248 0.83681 0.0
C1413 C 0.79917 0.64009 0.83469 0.0
C1414 C 0.81129 0.63649 0.82114 0.0
C1415 C 0.79371 0.64841 0.80987 0.0
C1416 C 0.75153 0.66277 0.82533 0.0
C1417 C 0.76425 0.66163 0.81201 0.0
C1418 C 0.77673 0.67905 0.8929 0.0
C1419 C 0.7562 0.65322 0.85102 0.0
H1420 H 0.76262 0.81746 0.9229 0.0
H1421 H 0.79306 0.76051 0.95735 0.0
H1422 H 0.80725 0.72882 0.91555 0.0
H1423 H 0.81315 0.72086 0.94076 0.0
H1424 H 0.81242 0.63198 0.84361 0.0
H1425 H 0.80159 0.6458 0.79923 0.0
H1426 H 0.72786 0.67142 0.82656 0.0
H1427 H 0.75064 0.6698 0.80321 0.0
Tb1428 Tb 0.59194 0.50193 0.13301 0.0
C1429 C 0.68803 0.40994 0.11151 0.0
C1430 C 0.73763 0.4131 0.12358 0.0
C1431 C 0.72179 0.36398 0.11313 0.0
C1432 C 0.70884 0.42675 0.11949 0.0
C1433 C 0.6949 0.37862 0.10781 0.0
C1434 C 0.74335 0.38133 0.12087 0.0
C1435 C 0.65236 0.3805 0.09144 0.0
N1436 N 0.66315 0.42547 0.10596 0.0
C1437 C 0.64694 0.41168 0.09513 0.0
C1438 C 0.6759 0.36361 0.09806 0.0
Tb1439 Tb 0.65434 0.47591 0.11462 0.0
N1440 N 0.70295 0.45765 0.12154 0.0
C1441 C 0.7272 0.47684 0.12545 0.0
C1442 C 0.76058 0.43219 0.1295 0.0
C1443 C 0.75567 0.46439 0.13005 0.0
H1444 H 0.62823 0.42343 0.08977 0.0
H1445 H 0.77414 0.47976 0.13363 0.0
H1446 H 0.76499 0.37034 0.1242 0.0
H1447 H 0.63834 0.36953 0.08342 0.0
H1448 H 0.72535 0.502 0.12475 0.0
H1449 H 0.47481 0.46065 0.12098 0.0
H1450 H 0.78289 0.42261 0.13281 0.0
H1451 H 0.63151 0.56486 0.1225 0.0
H1452 H 0.52551 0.45947 0.13297 0.0
H1453 H 0.62145 0.61163 0.10818 0.0
H1454 H 0.7271 0.33983 0.11059 0.0
H1455 H 0.46227 0.50374 0.10471 0.0
H1456 H 0.4781 0.55456 0.09367 0.0
H1457 H 0.68033 0.33959 0.09501 0.0
H1458 H 0.51727 0.59627 0.09071 0.0
N1459 N 0.54379 0.49952 0.12234 0.0
C1460 C 0.52141 0.47749 0.12528 0.0
C1461 C 0.48507 0.50292 0.10966 0.0
C1462 C 0.50709 0.52663 0.10745 0.0
C1463 C 0.49214 0.47847 0.11876 0.0
C1464 C 0.53646 0.52441 0.11412 0.0
H1465 H 0.57054 0.61792 0.0962 0.0
N1466 N 0.58679 0.54448 0.11867 0.0
C1467 C 0.60352 0.59389 0.10929 0.0
C1468 C 0.5584 0.54799 0.11249 0.0
C1469 C 0.60914 0.56729 0.11742 0.0
C1470 C 0.57472 0.59741 0.10258 0.0
C1471 C 0.55175 0.5743 0.1041 0.0
O1472 O 0.58812 0.54216 0.14533 0.0
O1473 O 0.63599 0.48113 0.13452 0.0
O1474 O 0.62486 0.42991 0.11882 0.0
O1475 O 0.57839 0.4487 0.1281 0.0
O1476 O 0.60238 0.4632 0.14753 0.0
O1477 O 0.55681 0.50334 0.14839 0.0
O1478 O 0.68736 0.48003 0.09851 0.0
O1479 O 0.61107 0.50405 0.11168 0.0
O1480 O 0.63306 0.53129 0.14339 0.0
O1481 O 0.67572 0.50789 0.13324 0.0
O1482 O 0.62046 0.47343 0.09688 0.0
O1483 O 0.66468 0.52081 0.10681 0.0
C1484 C 0.6315 0.46158 0.14409 0.0
C1485 C 0.57159 0.53243 0.16828 0.0
C1486 C 0.55188 0.52161 0.19144 0.0
C1487 C 0.54784 0.52199 0.177 0.0
C1488 C 0.57985 0.53249 0.19731 0.0
C1489 C 0.59942 0.54415 0.17419 0.0
C1490 C 0.6034 0.54425 0.18866 0.0
C1491 C 0.59504 0.42348 0.12312 0.0
C1492 C 0.56654 0.53018 0.15317 0.0
C1493 C 0.52271 0.57639 0.0973 0.0
C1494 C 0.50046 0.55258 0.09894 0.0
C1495 C 0.6001 0.49461 0.09969 0.0
C1496 C 0.67849 0.52233 0.08312 0.0
C1497 C 0.69136 0.55153 0.07978 0.0
C1498 C 0.69199 0.56237 0.0659 0.0
C1499 C 0.67572 0.54468 0.05578 0.0
C1500 C 0.6633 0.50483 0.0728 0.0
C1501 C 0.66112 0.51651 0.0593 0.0
C1502 C 0.66499 0.52989 0.14267 0.0
C1503 C 0.68319 0.51003 0.09725 0.0
H1504 H 0.5265 0.51264 0.17246 0.0
H1505 H 0.58348 0.53161 0.20846 0.0
H1506 H 0.61815 0.55287 0.16774 0.0
H1507 H 0.625 0.5529 0.19313 0.0
H1508 H 0.70216 0.56486 0.08805 0.0
H1509 H 0.67551 0.55129 1.04493 0.0
H1510 H 0.65344 0.48207 0.07509 0.0
H1511 H 0.64929 0.50297 1.05136 0.0
Tb1512 Tb 0.84265 0.3379 0.38309 0.0
C1513 C 0.93761 0.42465 0.35742 0.0
C1514 C 0.94659 0.47342 0.36953 0.0
C1515 C 0.98772 0.45138 0.35513 0.0
C1516 C 0.92757 0.4471 0.36674 0.0
C1517 C 0.96766 0.42678 0.35135 0.0
C1518 C 0.97711 0.47482 0.36414 0.0
C1519 C 0.95497 0.38187 0.33725 0.0
N1520 N 0.9173 0.40148 0.35381 0.0
C1521 C 0.92532 0.38083 0.34339 0.0
C1522 C 0.97636 0.40471 0.34134 0.0
Tb1523 Tb 0.86958 0.40148 0.36537 0.0
N1524 N 0.89793 0.44497 0.37182 0.0
C1525 C 0.88472 0.47052 0.37817 0.0
C1526 C 0.93378 0.49842 0.37697 0.0
C1527 C 0.90254 0.49719 0.38108 0.0
H1528 H 0.90992 0.36198 0.34044 0.0
H1529 H 0.89198 0.51697 0.38632 0.0
H1530 H 0.99227 0.49448 0.36647 0.0
H1531 H 0.96139 0.36483 0.32942 0.0
H1532 H 0.86023 0.47123 0.38076 0.0
H1533 H 0.88028 0.21966 0.3715 0.0
H1534 H 0.94741 0.51928 0.37909 0.0
H1535 H 0.78342 0.38109 0.37122 0.0
H1536 H 0.88371 0.2709 0.38298 0.0
H1537 H 0.73742 0.37333 0.35617 0.0
H1538 H 1.011 0.45318 0.35072 0.0
H1539 H 0.83637 0.20814 0.35553 0.0
H1540 H 0.78631 0.22578 0.34426 0.0
H1541 H 0.99927 0.40549 0.33651 0.0
H1542 H 0.747 0.26707 0.34046 0.0
N1543 N 0.84408 0.29007 0.37238 0.0
C1544 C 0.86538 0.26709 0.37542 0.0
C1545 C 0.83818 0.2311 0.36026 0.0
C1546 C 0.81542 0.25402 0.35782 0.0
C1547 C 0.86312 0.23759 0.36919 0.0
C1548 C 0.81895 0.28357 0.36419 0.0
H1549 H 0.72862 0.32212 0.34481 0.0
N1550 N 0.80123 0.33506 0.36816 0.0
C1551 C 0.75389 0.35438 0.35776 0.0
C1552 C 0.79656 0.30665 0.36218 0.0
C1553 C 0.78015 0.35877 0.36624 0.0
C1554 C 0.74893 0.3254 0.35142 0.0
C1555 C 0.77039 0.30108 0.35357 0.0
O1556 O 0.80056 0.33114 0.39378 0.0
O1557 O 0.86319 0.38199 0.38519 0.0
O1558 O 0.91524 0.37119 0.36982 0.0
O1559 O 0.896 0.32406 0.37846 0.0
O1560 O 0.88009 0.34755 0.39824 0.0
O1561 O 0.8414 0.30373 0.39891 0.0
O1562 O 0.82455 0.41612 0.35922 0.0
O1563 O 0.84808 0.35515 0.36173 0.0
O1564 O 0.81312 0.37983 0.3932 0.0
O1565 O 0.83782 0.42295 0.38397 0.0
O1566 O 0.85853 0.37911 0.34486 0.0
O1567 O 0.86568 0.44086 0.35234 0.0
C1568 C 0.88224 0.37675 0.39496 0.0
C1569 C 0.80674 0.31695 0.41727 0.0
C1570 C 0.81346 0.29961 0.44109 0.0
C1571 C 0.81725 0.29486 0.4268 0.0
C1572 C 0.79858 0.32664 0.44599 0.0
C1573 C 0.79089 0.34371 0.42216 0.0
C1574 C 0.78686 0.34847 0.43646 0.0
C1575 C 0.92143 0.34098 0.3738 0.0
C1576 C 0.81281 0.31124 0.40241 0.0
C1577 C 0.76687 0.27175 0.34716 0.0
C1578 C 0.78931 0.24827 0.34929 0.0
C1579 C 0.84583 0.35294 0.34811 0.0
C1580 C 0.82248 0.4392 0.33693 0.0
C1581 C 0.79284 0.45259 0.33485 0.0
C1582 C 0.78092 0.45699 0.32131 0.0
C1583 C 0.79807 0.44472 0.30999 0.0
C1584 C 0.83977 0.42867 0.32541 0.0
C1585 C 0.82709 0.43049 0.31209 0.0
C1586 C 0.81502 0.41191 0.39295 0.0
C1587 C 0.83545 0.43798 0.35113 0.0
H1588 H 0.8296 0.27425 0.42308 0.0
H1589 H 0.79623 0.33083 0.45706 0.0
H1590 H 0.78183 0.36097 0.41502 0.0
H1591 H 0.77504 0.3693 0.44015 0.0
H1592 H 0.77987 0.46095 0.3438 0.0
H1593 H 0.79033 0.44787 0.29937 0.0
H1594 H 0.86321 0.4194 0.3266 0.0
H1595 H 0.84044 0.42213 0.30327 0.0
Tb1596 Tb 1.00647 0.59563 0.63214 0.0
C1597 C 0.91823 0.69128 0.60774 0.0
C1598 C 0.86976 0.69929 0.62026 0.0
C1599 C 0.89104 0.7413 0.60613 0.0
C1600 C 0.89615 0.68061 0.61711 0.0
C1601 C 0.91564 0.7216 0.60196 0.0
C1602 C 0.86799 0.73008 0.61519 0.0
C1603 C 0.95994 0.70984 0.58732 0.0
N1604 N 0.94138 0.6713 0.60374 0.0
C1605 C 0.96143 0.6799 0.59317 0.0
C1606 C 0.9372 0.73091 0.59184 0.0
Tb1607 Tb 0.94217 0.62302 0.61486 0.0
N1608 N 0.89861 0.6507 0.62185 0.0
C1609 C 0.87327 0.63698 0.62816 0.0
C1610 C 0.84506 0.68593 0.6277 0.0
C1611 C 0.84659 0.65447 0.63144 0.0
H1612 H 0.9802 0.66476 0.58987 0.0
H1613 H 0.82699 0.64349 0.63666 0.0
H1614 H 0.84829 0.74498 0.6178 0.0
H1615 H 0.97655 0.71672 0.57938 0.0
H1616 H 0.87268 0.61232 0.63041 0.0
H1617 H 0.12394 0.63418 0.61951 0.0
H1618 H 0.82418 0.69932 0.6301 0.0
H1619 H 0.96314 0.5364 0.62046 0.0
H1620 H 0.07338 0.63683 0.63163 0.0
H1621 H 0.97079 0.49035 0.60546 0.0
H1622 H 0.88892 0.76478 0.60195 0.0
H1623 H 0.13485 0.59091 0.60314 0.0
H1624 H 0.11705 0.54095 0.5919 0.0
H1625 H 0.93606 0.75404 0.58722 0.0
H1626 H 0.07608 0.50115 0.58859 0.0
N1627 N 0.05385 0.59749 0.62101 0.0
C1628 C 0.07688 0.6188 0.62392 0.0
C1629 C 0.11217 0.59239 0.60815 0.0
C1630 C 0.08931 0.56951 0.6059 0.0
C1631 C 0.10601 0.61697 0.61731 0.0
C1632 C 0.06011 0.57261 0.61264 0.0
H1633 H 1.02161 0.48197 0.59367 0.0
N1634 N 1.009 0.55441 0.61711 0.0
C1635 C 0.98966 0.50695 0.60689 0.0
C1636 C 1.03718 0.55002 0.61086 0.0
C1637 C 0.98536 0.53322 0.61536 0.0
C1638 C 1.01843 0.50223 0.6003 0.0
C1639 C 1.0426 0.52396 0.60217 0.0
O1640 O 1.01385 0.55337 0.64263 0.0
O1641 O 0.96237 0.61605 0.63449 0.0
O1642 O 0.97264 0.66844 0.61931 0.0
O1643 O 1.02004 0.64901 0.62761 0.0
O1644 O 0.99698 0.63268 0.6475 0.0
O1645 O 1.04101 0.59428 0.64781 0.0
O1646 O 0.92728 0.57825 0.60854 0.0
O1647 O 0.9883 0.60132 0.61099 0.0
O1648 O 0.96477 0.56603 0.64235 0.0
O1649 O 0.92126 0.59074 0.6334 0.0
O1650 O 0.96465 0.61307 0.59425 0.0
O1651 O 0.90289 0.61963 0.60173 0.0
C1652 C 0.96771 0.63482 0.64433 0.0
C1653 C 1.02843 0.55906 0.66609 0.0
C1654 C 1.04637 0.56485 0.68989 0.0
C1655 C 0.05068 0.56934 0.67559 0.0
C1656 C 1.01952 0.54961 0.69479 0.0
C1657 C 1.00189 0.54288 0.67099 0.0
C1658 C 0.9975 0.53823 0.68529 0.0
C1659 C 1.00295 0.67449 0.62314 0.0
C1660 C 1.03381 0.56557 0.65123 0.0
C1661 C 0.07155 0.52088 0.59538 0.0
C1662 C 0.09484 0.54361 0.59722 0.0
C1663 C 0.99065 0.59987 0.59737 0.0
C1664 C 0.90563 0.5771 0.58602 0.0
C1665 C 0.89392 0.54692 0.58358 0.0
C1666 C 0.89261 0.53481 0.56998 0.0
C1667 C 0.90548 0.55255 0.559 0.0
C1668 C 0.91649 0.59511 0.57476 0.0
C1669 C 0.91733 0.58244 0.56143 0.0
C1670 C 0.93265 0.56788 0.64226 0.0
C1671 C 0.9058 0.58946 0.60033 0.0
H1672 H 0.07106 0.582 0.67184 0.0
H1673 H 1.01562 0.54668 0.70585 0.0
H1674 H 0.98452 0.53401 0.66387 0.0
H1675 H 0.97683 0.52614 0.68898 0.0
H1676 H 0.88463 0.53343 0.59221 0.0
H1677 H 0.90447 0.54437 0.54836 0.0
H1678 H 0.92428 0.619 0.57619 0.0
H1679 H 0.92611 0.59631 0.55283 0.0
Tb1680 Tb 0.75376 0.34174 0.72377 0.0
C1681 C 0.658 0.42896 0.74863 0.0
C1682 C 0.64951 0.47735 0.7361 0.0
C1683 C 0.60776 0.45574 0.75027 0.0
C1684 C 0.66843 0.45112 0.73924 0.0
C1685 C 0.62771 0.43132 0.75444 0.0
C1686 C 0.61873 0.47887 0.74118 0.0
C1687 C 0.64 0.38721 0.76913 0.0
N1688 N 0.67821 0.40598 0.75262 0.0
C1689 C 0.66989 0.38594 0.76324 0.0
C1690 C 0.61868 0.40973 0.7646 0.0
Tb1691 Tb 0.72632 0.40541 0.74136 0.0
N1692 N 0.69834 0.44888 0.73448 0.0
C1693 C 0.7119 0.4744 0.72824 0.0
C1694 C 0.66266 0.50218 0.72865 0.0
C1695 C 0.69423 0.50103 0.72504 0.0
H1696 H 0.68523 0.36732 0.76655 0.0
H1697 H 0.70509 0.52078 0.71988 0.0
H1698 H 0.60365 0.49844 0.73858 0.0
H1699 H 0.63334 0.3706 0.77711 0.0
H1700 H 0.73656 0.47518 0.72602 0.0
H1701 H 0.71703 0.22394 0.73688 0.0
H1702 H 0.64906 0.5229 0.7262 0.0
H1703 H 0.81276 0.38588 0.7352 0.0
H1704 H 0.71311 0.27448 0.72484 0.0
H1705 H 0.8592 0.37898 0.75003 0.0
H1706 H 0.58428 0.45768 0.75447 0.0
H1707 H 0.76142 0.21336 0.75273 0.0
H1708 H 0.81165 0.23173 0.76356 0.0
H1709 H 0.59558 0.41071 0.76926 0.0
H1710 H 0.85084 0.27335 0.76673 0.0
N1711 N 0.75304 0.29432 0.73494 0.0
C1712 C 0.73169 0.27115 0.73232 0.0
C1713 C 0.75942 0.23604 0.74774 0.0
C1714 C 0.78215 0.25914 0.74979 0.0
C1715 C 0.73421 0.242 0.73888 0.0
C1716 C 0.77838 0.28831 0.74308 0.0
H1717 H 0.86878 0.32824 0.76172 0.0
N1718 N 0.79559 0.3397 0.73854 0.0
C1719 C 0.84292 0.35981 0.74863 0.0
C1720 C 0.80065 0.31157 0.74475 0.0
C1721 C 0.81642 0.36368 0.74024 0.0
C1722 C 0.84833 0.3311 0.75516 0.0
C1723 C 0.82703 0.30655 0.75332 0.0
O1724 O 0.79496 0.336 0.71224 0.0
O1725 O 0.73291 0.38571 0.72164 0.0
O1726 O 0.68096 0.37468 0.73708 0.0
O1727 O 0.7006 0.32779 0.72838 0.0
O1728 O 0.71602 0.35121 0.70869 0.0
O1729 O 0.75495 0.3063 0.70859 0.0
O1730 O 0.77121 0.4202 0.74761 0.0
O1731 O 0.74829 0.35931 0.74502 0.0
O1732 O 0.78296 0.38359 0.71351 0.0
O1733 O 0.75817 0.42669 0.72276 0.0
O1734 O 0.73683 0.38271 0.76188 0.0
O1735 O 0.72989 0.44457 0.75451 0.0
C1736 C 0.71389 0.38043 0.71189 0.0
C1737 C 0.78599 0.31986 0.68915 0.0
C1738 C 0.77544 0.30072 0.6659 0.0
C1739 C 0.77529 0.29647 0.68032 0.0
C1740 C 0.78716 0.32847 0.66015 0.0
C1741 C 0.79858 0.34745 0.68338 0.0
C1742 C 0.79924 0.35161 0.66893 0.0
C1743 C 0.6751 0.34446 0.73308 0.0
C1744 C 0.78258 0.31491 0.70423 0.0
C1745 C 0.83084 0.27759 0.76004 0.0
C1746 C 0.80845 0.25394 0.75828 0.0
C1747 C 0.74998 0.35675 0.75863 0.0
C1748 C 0.77297 0.44264 0.77 0.0
C1749 C 0.80272 0.45567 0.77218 0.0
C1750 C 0.81464 0.45952 0.78576 0.0
C1751 C 0.79729 0.44713 0.79699 0.0
C1752 C 0.75554 0.43195 0.78145 0.0
C1753 C 0.76815 0.43327 0.79479 0.0
C1754 C 0.7809 0.41565 0.71374 0.0
C1755 C 0.76012 0.4418 0.75577 0.0
H1756 H 0.76528 0.27531 0.68474 0.0
H1757 H 0.7867 0.33224 0.649 0.0
H1758 H 0.8075 0.36589 0.68995 0.0
H1759 H 0.80854 0.37304 0.66456 0.0
H1760 H 0.81583 0.46412 0.76329 0.0
H1761 H 0.80502 0.44987 0.80764 0.0
H1762 H 0.73204 0.4229 0.78019 0.0
H1763 H 0.75468 0.42479 0.80356 0.0
Tb1764 Tb 1.00312 0.49982 0.97476 0.0
C1765 C 0.91545 0.40484 0.99964 0.0
C1766 C 0.86742 0.39577 0.98693 0.0
C1767 C 0.88898 0.35452 1.00144 0.0
C1768 C 0.89345 0.41489 0.99009 0.0
C1769 C 0.91321 0.37469 1.00559 0.0
C1770 C 0.86597 0.36513 0.99219 0.0
C1771 C 0.95732 0.38744 1.0202 0.0
N1772 N 0.9383 0.42523 1.00354 0.0
C1773 C 0.95849 0.41719 1.01414 0.0
C1774 C 0.93482 0.36597 1.01581 0.0
Tb1775 Tb 0.93885 0.473 0.99203 0.0
N1776 N 0.89568 0.44464 0.98515 0.0
C1777 C 0.87024 0.45793 0.97873 0.0
C1778 C 0.8427 0.4086 0.97929 0.0
C1779 C 0.84375 0.44008 0.97552 0.0
H1780 H 0.97707 0.43268 1.01733 0.0
H1781 H 0.82407 0.45071 0.97021 0.0
H1782 H 0.84656 0.34988 0.98959 0.0
H1783 H 0.974 0.381 1.02819 0.0
H1784 H 0.86946 0.48251 0.97631 0.0
H1785 H 0.12039 0.46191 0.98823 0.0
H1786 H 0.82213 0.39483 0.97681 0.0
H1787 H 0.95926 0.55927 0.98599 0.0
H1788 H 0.06998 0.45846 0.97606 0.0
H1789 H 0.96638 0.60567 1.00078 0.0
H1790 H 0.88713 0.33114 1.00575 0.0
H1791 H 0.1311 0.50619 1.00408 0.0
H1792 H 0.11301 0.55663 1.01479 0.0
H1793 H 0.93396 0.34298 1.02057 0.0
H1794 H 0.0717 0.59625 1.01779 0.0
N1795 N 0.05027 0.49849 0.98612 0.0
C1796 C 0.07333 0.47697 0.98356 0.0
C1797 C 0.10845 0.50438 0.99905 0.0
C1798 C 0.0855 0.52732 1.00102 0.0
C1799 C 0.10241 0.47923 0.99019 0.0
C1800 C 0.05637 0.5238 0.99425 0.0
H1801 H 1.01704 0.61474 1.01261 0.0
N1802 N 1.00522 0.54159 0.98952 0.0
C1803 C 0.98541 0.58917 0.99947 0.0
C1804 C 1.03329 0.54634 0.99581 0.0
C1805 C 0.9814 0.56268 0.99111 0.0
C1806 C 1.01408 0.59428 1.00608 0.0
C1807 C 1.03844 0.5727 1.00435 0.0
O1808 O 1.00998 0.5413 0.96357 0.0
O1809 O 0.95912 0.47933 0.97239 0.0
O1810 O 0.96911 0.42733 0.98773 0.0
O1811 O 1.01653 0.44643 0.97936 0.0
O1812 O 0.99379 0.46253 0.95949 0.0
O1813 O 1.0387 0.50074 0.95958 0.0
O1814 O 0.92289 0.51802 0.99731 0.0
O1815 O 0.98505 0.4946 0.99599 0.0
O1816 O 0.96147 0.5293 0.96437 0.0
O1817 O 0.91796 0.5046 0.97327 0.0
O1818 O 0.96053 0.48425 1.01269 0.0
O1819 O 0.89967 0.47685 1.00518 0.0
C1820 C 0.96449 0.46047 0.96259 0.0
C1821 C 1.02667 0.53365 0.94048 0.0
C1822 C 1.04732 0.52654 0.91721 0.0
C1823 C 0.05075 0.52444 0.93165 0.0
C1824 C 1.0197 0.53867 0.91148 0.0
C1825 C 0.9992 0.5466 0.93473 0.0
C1826 C 0.99586 0.54918 0.92029 0.0
C1827 C 0.99939 0.42108 0.9839 0.0
C1828 C 1.03098 0.52887 0.95552 0.0
C1829 C 0.06736 0.57624 1.01113 0.0
C1830 C 0.09083 0.55362 1.00947 0.0
C1831 C 0.98686 0.49689 1.00962 0.0
C1832 C 0.89873 0.52235 1.01927 0.0
C1833 C 0.88303 0.55112 1.02021 0.0
C1834 C 0.87701 0.56489 1.03325 0.0
C1835 C 0.88985 0.55067 1.04523 0.0
C1836 C 0.90997 0.50792 1.03142 0.0
C1837 C 0.90642 0.5226 1.04425 0.0
C1838 C 0.92936 0.52738 0.96439 0.0
C1839 C 0.90125 0.50728 1.00555 0.0
H1840 H 0.07182 0.51414 0.93605 0.0
H1841 H 1.01654 0.53967 0.9003 0.0
H1842 H 0.98026 0.5544 0.9413 0.0
H1843 H 0.97452 0.55877 0.91593 0.0
H1844 H 0.87418 0.56188 1.01078 0.0
H1845 H 0.88549 0.55994 0.05552 0.0
H1846 H 0.92099 0.48513 1.03111 0.0
H1847 H 0.91527 0.51144 0.05358 0.0
Tb1848 Tb 0.84664 0.75503 0.22354 0.0
C1849 C 0.94151 0.66844 0.24926 0.0
C1850 C 0.95379 0.62317 0.23512 0.0
C1851 C 0.99198 0.64243 0.25175 0.0
C1852 C 0.93328 0.6478 0.23879 0.0
C1853 C 0.97097 0.66595 0.25586 0.0
C1854 C 0.98336 0.62101 0.24144 0.0
C1855 C 0.95674 0.70977 0.27035 0.0
N1856 N 0.92059 0.69102 0.25297 0.0
C1857 C 0.92782 0.7114 0.26357 0.0
C1858 C 0.97844 0.68702 0.26647 0.0
Tb1859 Tb 0.87361 0.69102 0.24091 0.0
N1860 N 0.90445 0.65062 0.23285 0.0
C1861 C 0.89384 0.62743 0.22418 0.0
C1862 C 0.9435 0.60061 0.22566 0.0
C1863 C 0.91312 0.60235 0.22046 0.0
H1864 H 0.91229 0.73025 0.26638 0.0
H1865 H 0.90446 0.58433 0.21354 0.0
H1866 H 0.99948 0.60244 0.23864 0.0
H1867 H 0.96241 0.72634 0.27848 0.0
H1868 H 0.87044 0.62724 0.22014 0.0
H1869 H 0.8864 0.87267 0.23491 0.0
H1870 H 0.95842 0.58121 0.22267 0.0
H1871 H 0.78739 0.71262 0.23592 0.0
H1872 H 0.88872 0.82143 0.22342 0.0
H1873 H 0.7415 0.72144 0.25093 0.0
H1874 H 1.01474 0.64027 0.25666 0.0
H1875 H 0.84305 0.88493 0.25107 0.0
H1876 H 0.79289 0.86822 0.26248 0.0
H1877 H 1.00085 0.6859 0.27174 0.0
H1878 H 0.75289 0.82769 0.26637 0.0
N1879 N 0.84913 0.80284 0.23422 0.0
C1880 C 0.87068 0.8255 0.23108 0.0
C1881 C 0.84441 0.86194 0.24635 0.0
C1882 C 0.82134 0.8394 0.24887 0.0
C1883 C 0.86903 0.85503 0.23732 0.0
C1884 C 0.82426 0.80979 0.2425 0.0
H1885 H 0.73349 0.773 0.26209 0.0
N1886 N 0.80557 0.75862 0.2386 0.0
C1887 C 0.75816 0.74013 0.24921 0.0
C1888 C 0.80147 0.78714 0.24456 0.0
C1889 C 0.78429 0.73519 0.24071 0.0
C1890 C 0.75366 0.76931 0.25545 0.0
C1891 C 0.7755 0.79323 0.25322 0.0
O1892 O 0.80433 0.76257 0.2131 0.0
O1893 O 0.86632 0.71061 0.22135 0.0
O1894 O 0.91947 0.72107 0.23646 0.0
O1895 O 0.90021 0.76812 0.22771 0.0
O1896 O 0.88235 0.7439 0.20775 0.0
O1897 O 0.84557 0.78909 0.20767 0.0
O1898 O 0.82948 0.67505 0.24754 0.0
O1899 O 0.85235 0.73741 0.24484 0.0
O1900 O 0.81604 0.71366 0.21372 0.0
O1901 O 0.84009 0.67011 0.22287 0.0
O1902 O 0.86161 0.71237 0.26156 0.0
O1903 O 0.87138 0.64932 0.25254 0.0
C1904 C 0.88563 0.71526 0.2117 0.0
C1905 C 0.81055 0.77567 0.18948 0.0
C1906 C 0.81659 0.79236 0.16554 0.0
C1907 C 0.82065 0.79757 0.17979 0.0
C1908 C 0.80202 0.76501 0.16083 0.0
C1909 C 0.79502 0.74855 0.18479 0.0
C1910 C 0.79085 0.74328 0.17053 0.0
C1911 C 0.92567 0.75108 0.23223 0.0
C1912 C 0.81682 0.78193 0.20429 0.0
C1913 C 0.77258 0.82263 0.25963 0.0
C1914 C 0.79544 0.84565 0.25746 0.0
C1915 C 0.84963 0.73902 0.25847 0.0
C1916 C 0.8306 0.64963 0.2692 0.0
C1917 C 0.80077 0.6373 0.2719 0.0
C1918 C 0.79021 0.6332 0.28567 0.0
C1919 C 0.80934 0.64401 0.29664 0.0
C1920 C 0.84962 0.65919 0.28034 0.0
C1921 C 0.83864 0.65709 0.29395 0.0
C1922 C 0.81734 0.68156 0.214 0.0
C1923 C 0.84142 0.65214 0.25471 0.0
H1924 H 0.83269 0.8185 0.18333 0.0
H1925 H 0.7994 0.76054 0.1498 0.0
H1926 H 0.78624 0.73142 0.19204 0.0
H1927 H 0.77925 0.72219 0.167 0.0
H1928 H 0.78631 0.62998 0.26322 0.0
H1929 H 0.80265 0.64084 0.30741 0.0
H1930 H 0.87298 0.66822 0.27857 0.0
H1931 H 0.85335 0.66461 0.30249 0.0
Tb1932 Tb 0.58874 0.59222 0.47507 0.0
C1933 C 0.67494 0.68499 0.50304 0.0
C1934 C 0.72183 0.69953 0.49045 0.0
C1935 C 0.7008 0.73464 0.50793 0.0
C1936 C 0.69672 0.67862 0.49282 0.0
C1937 C 0.6766 0.71325 0.51065 0.0
C1938 C 0.72347 0.72771 0.49791 0.0
C1939 C 0.63017 0.69759 0.52305 0.0
N1940 N 0.65179 0.66372 0.50536 0.0
C1941 C 0.62941 0.66991 0.51532 0.0
C1942 C 0.65389 0.71931 0.52074 0.0
Tb1943 Tb 0.65348 0.6186 0.49179 0.0
N1944 N 0.69411 0.65137 0.4856 0.0
C1945 C 0.71741 0.64292 0.47656 0.0
C1946 C 0.74512 0.69111 0.48097 0.0
C1947 C 0.74312 0.66245 0.47417 0.0
H1948 H 0.60963 0.65464 0.51684 0.0
H1949 H 0.76117 0.65551 0.46689 0.0
H1950 H 0.74239 0.74413 0.4961 0.0
H1951 H 0.61213 0.70232 0.53067 0.0
H1952 H 0.71643 0.62138 0.4709 0.0
H1953 H 0.47162 0.63058 0.48838 0.0
H1954 H 0.76489 0.70637 0.47896 0.0
H1955 H 0.63236 0.53256 0.48627 0.0
H1956 H 0.5222 0.63396 0.47633 0.0
H1957 H 0.62516 0.48634 0.50122 0.0
H1958 H 0.70238 0.75645 0.51365 0.0
H1959 H 0.46064 0.58624 0.5042 0.0
H1960 H 0.47856 0.53577 0.515 0.0
H1961 H 0.65431 0.7408 0.52673 0.0
H1962 H 0.51985 0.49619 0.51818 0.0
N1963 N 0.54167 0.59384 0.48643 0.0
C1964 C 0.51869 0.61544 0.48382 0.0
C1965 C 0.48334 0.58802 0.49922 0.0
C1966 C 0.50623 0.56503 0.50125 0.0
C1967 C 0.48954 0.6132 0.49038 0.0
C1968 C 0.53545 0.56854 0.49457 0.0
H1969 H 0.57456 0.47763 0.51315 0.0
N1970 N 0.58663 0.55065 0.48995 0.0
C1971 C 0.60624 0.50297 0.49993 0.0
C1972 C 0.55853 0.54601 0.49623 0.0
C1973 C 0.6103 0.52937 0.4915 0.0
C1974 C 0.5776 0.49806 0.50659 0.0
C1975 C 0.55328 0.51969 0.5048 0.0
O1976 O 0.5816 0.55031 0.4643 0.0
O1977 O 0.63266 0.61248 0.47219 0.0
O1978 O 0.6236 0.66471 0.48793 0.0
O1979 O 0.57578 0.6457 0.4799 0.0
O1980 O 0.59698 0.62957 0.45975 0.0
O1981 O 0.55295 0.59081 0.46 0.0
O1982 O 0.69763 0.61147 0.50125 0.0
O1983 O 0.60717 0.59782 0.49618 0.0
O1984 O 0.63022 0.56247 0.46453 0.0
O1985 O 0.67395 0.58753 0.47289 0.0
O1986 O 0.6338 0.60568 0.51274 0.0
O1987 O 0.66418 0.574 0.49965 0.0
C1988 C 0.62646 0.63159 0.46252 0.0
C1989 C 0.56371 0.55637 0.4413 0.0
C1990 C 0.54198 0.56268 0.41817 0.0
C1991 C 0.53958 0.56598 0.4326 0.0
C1992 C 0.56864 0.54876 0.41234 0.0
C1993 C 0.59017 0.54165 0.43549 0.0
C1994 C 0.59248 0.53776 0.42106 0.0
C1995 C 0.59314 0.67103 0.48435 0.0
C1996 C 0.5603 0.56235 0.45628 0.0
C1997 C 0.52428 0.51617 0.51151 0.0
C1998 C 0.5008 0.53876 0.50973 0.0
C1999 C 0.60644 0.59465 0.50983 0.0
C2000 C 0.71704 0.55904 0.50054 0.0
C2001 C 0.72341 0.53587 0.51048 0.0
C2002 C 0.74906 0.5152 0.50893 0.0
C2003 C 0.76628 0.51671 0.49638 0.0
C2004 C 0.7346 0.55994 0.48825 0.0
C2005 C 0.75866 0.53849 0.48609 0.0
C2006 C 0.66238 0.56442 0.46428 0.0
C2007 C 0.69213 0.58191 0.50356 0.0
H2008 H 0.51938 0.57771 0.43709 0.0
H2009 H 0.57113 0.54687 0.40116 0.0
H2010 H 0.60909 0.53348 0.442 0.0
H2011 H 0.61307 0.52683 0.41663 0.0
H2012 H 0.70855 0.5349 0.51957 0.0
H2013 H 0.78658 0.5022 0.49455 0.0
H2014 H 0.73008 0.57714 0.48037 0.0
H2015 H 0.77224 0.53947 0.47659 0.0
Tb2016 Tb 0.36935 0.40192 0.24177 0.0
C2017 C 0.29498 0.30756 0.24517 0.0
C2018 C 0.31329 0.25476 0.24959 0.0
C2019 C 0.265 0.27304 0.26026 0.0
C2020 C 0.31707 0.28424 0.24316 0.0
C2021 C 0.26883 0.30232 0.25383 0.0
C2022 C 0.28716 0.2493 0.25814 0.0
C2023 C 0.25311 0.35589 0.2497 0.0
N2024 N 0.3 0.33591 0.23917 0.0
C2025 C 0.27935 0.35995 0.24118 0.0
C2026 C 0.24775 0.32693 0.25602 0.0
Tb2027 Tb 0.3414 0.33835 0.22421 0.0
N2028 N 0.34226 0.29051 0.23498 0.0
C2029 C 0.36347 0.26737 0.23207 0.0
C2030 C 0.33586 0.23163 0.24722 0.0
C2031 C 0.36093 0.23791 0.23833 0.0
H2032 H 0.28302 0.38234 0.2363 0.0
H2033 H 0.378 0.21986 0.23609 0.0
H2034 H 0.28395 0.22686 0.2632 0.0
H2035 H 0.23698 0.3751 0.25136 0.0
H2036 H 0.38194 0.27102 0.22456 0.0
H2037 H 0.39143 0.51658 0.21973 0.0
H2038 H 0.33385 0.20871 0.25198 0.0
H2039 H 0.41035 0.36403 0.26701 0.0
H2040 H 0.35955 0.47157 0.22622 0.0
H2041 H 0.46249 0.36689 0.27741 0.0
H2042 H 0.24514 0.26861 0.267 0.0
H2043 H 0.44766 0.51806 0.22576 0.0
H2044 H 0.49303 0.49331 0.23809 0.0
H2045 H 0.22747 0.32391 0.26266 0.0
H2046 H 0.5122 0.45274 0.25415 0.0
N2047 N 0.39766 0.44492 0.23461 0.0
C2048 C 0.38425 0.47049 0.22833 0.0
C2049 C 0.43385 0.4976 0.22838 0.0
C2050 C 0.44686 0.47278 0.23589 0.0
C2051 C 0.40217 0.49681 0.22493 0.0
C2052 C 0.4277 0.44688 0.23924 0.0
H2053 H 0.50059 0.40632 0.26924 0.0
N2054 N 0.41764 0.40223 0.25287 0.0
C2055 C 0.45589 0.38338 0.26936 0.0
C2056 C 0.43803 0.42486 0.24872 0.0
C2057 C 0.42589 0.38233 0.26356 0.0
C2058 C 0.4774 0.40553 0.26466 0.0
C2059 C 0.46845 0.42698 0.25442 0.0
O2060 O 0.3249 0.41787 0.24804 0.0
O2061 O 0.34729 0.35582 0.24545 0.0
O2062 O 0.31189 0.38042 0.21425 0.0
O2063 O 0.33714 0.42338 0.22334 0.0
O2064 O 0.35862 0.37924 0.26229 0.0
O2065 O 0.36683 0.44102 0.25502 0.0
O2066 O 0.29979 0.33297 0.21293 0.0
O2067 O 0.3623 0.38223 0.22207 0.0
O2068 O 0.41452 0.37105 0.23737 0.0
O2069 O 0.39465 0.3242 0.22875 0.0
O2070 O 0.37889 0.34771 0.20903 0.0
O2071 O 0.33977 0.30361 0.20872 0.0
C2072 C 0.34547 0.3533 0.25906 0.0
C2073 C 0.32377 0.43976 0.2705 0.0
C2074 C 0.28184 0.45535 0.28629 0.0
C2075 C 0.29427 0.45328 0.27276 0.0
C2076 C 0.29846 0.44146 0.29737 0.0
C2077 C 0.34078 0.42784 0.28186 0.0
C2078 C 0.32768 0.42781 0.29513 0.0
C2079 C 0.31408 0.41247 0.21448 0.0
C2080 C 0.33654 0.43903 0.25628 0.0
C2081 C 0.48862 0.451 0.25004 0.0
C2082 C 0.47776 0.47402 0.24086 0.0
C2083 C 0.38114 0.37691 0.21226 0.0
C2084 C 0.30816 0.3184 0.18959 0.0
C2085 C 0.32056 0.29671 0.18033 0.0
C2086 C 0.31973 0.30207 0.16598 0.0
C2087 C 0.30582 0.32934 0.16073 0.0
C2088 C 0.29331 0.34538 0.1843 0.0
C2089 C 0.29216 0.35073 0.16993 0.0
C2090 C 0.42028 0.34082 0.23338 0.0
C2091 C 0.312 0.31243 0.20459 0.0
H2092 H 0.28163 0.46341 0.26406 0.0
H2093 H 0.29001 0.443 0.30797 0.0
H2094 H 0.36424 0.41869 0.28058 0.0
H2095 H 0.34075 0.41825 0.3038 0.0
H2096 H 0.33221 0.27599 0.18437 0.0
H2097 H 0.30564 0.33401 0.14965 0.0
H2098 H 0.28294 0.36245 0.19119 0.0
H2099 H 0.28111 0.37172 0.16594 0.0
Tb2100 Tb 0.44265 0.61901 0.99034 0.0
C2101 C 0.53851 0.5468 0.99582 0.0
C2102 C 0.59043 0.56664 1.00093 0.0
C2103 C 0.5727 0.5181 1.01157 0.0
C2104 C 0.56136 0.56947 0.99404 0.0
C2105 C 0.54388 0.5209 1.00462 0.0
C2106 C 0.59591 0.54093 1.00974 0.0
C2107 C 0.4913 0.50328 0.99956 0.0
N2108 N 0.51051 0.55085 0.98936 0.0
C2109 C 0.48706 0.52937 0.99095 0.0
C2110 C 0.51985 0.49897 1.00641 0.0
Tb2111 Tb 0.50809 0.5918 0.97417 0.0
N2112 N 0.55516 0.59412 0.98552 0.0
C2113 C 0.57811 0.61553 0.98263 0.0
C2114 C 0.61321 0.58962 0.99867 0.0
C2115 C 0.60711 0.614 0.98938 0.0
H2116 H 0.46506 0.5322 0.9856 0.0
H2117 H 0.62497 0.63129 0.98719 0.0
H2118 H 0.61802 0.53848 1.01517 0.0
H2119 H 0.47258 0.48646 1.00087 0.0
H2120 H 0.57461 0.63344 0.97483 0.0
H2121 H 0.33392 0.65327 0.96545 0.0
H2122 H 0.63579 0.58835 1.00379 0.0
H2123 H 0.48519 0.65595 1.01555 0.0
H2124 H 0.37869 0.61945 0.96994 0.0
H2125 H 0.48231 0.70444 1.02881 0.0
H2126 H 0.57719 0.4985 1.01845 0.0
H2127 H 0.33031 0.70513 0.97665 0.0
H2128 H 0.35304 0.74439 0.99303 0.0
H2129 H 0.523 0.47882 1.01312 0.0
H2130 H 0.3929 0.75792 1.01047 0.0
N2131 N 0.40164 0.65107 0.9838 0.0
C2132 C 0.37807 0.64171 0.97505 0.0
C2133 C 0.35026 0.69015 0.97879 0.0
C2134 C 0.37372 0.69944 0.98801 0.0
C2135 C 0.35219 0.66093 0.97247 0.0
C2136 C 0.39898 0.67882 0.99062 0.0
H2137 H 0.44051 0.74291 1.02405 0.0
N2138 N 0.44367 0.66468 1.00354 0.0
C2139 C 0.4646 0.69938 1.02107 0.0
C2140 C 0.42063 0.68586 1.00082 0.0
C2141 C 0.46557 0.67126 1.01367 0.0
C2142 C 0.44111 0.72111 1.0183 0.0
C2143 C 0.41875 0.71454 1.0081 0.0
O2144 O 0.39796 0.61153 0.99939 0.0
O2145 O 0.48871 0.59803 0.99507 0.0
O2146 O 0.46679 0.56174 0.96367 0.0
O2147 O 0.42339 0.58856 0.9711 0.0
O2148 O 0.46189 0.60674 1.01148 0.0
O2149 O 0.43196 0.57458 0.99834 0.0
O2150 O 0.5156 0.54927 0.96395 0.0
O2151 O 0.46445 0.61234 0.97101 0.0
O2152 O 0.47295 0.66488 0.98648 0.0
O2153 O 0.52101 0.64527 0.97893 0.0
O2154 O 0.50032 0.62879 0.95858 0.0
O2155 O 0.54317 0.58994 0.95877 0.0
C2156 C 0.48924 0.5954 1.00873 0.0
C2157 C 0.37943 0.55861 0.99871 0.0
C2158 C 0.34822 0.51417 1.00676 0.0
C2159 C 0.36977 0.53845 1.00938 0.0
C2160 C 0.33748 0.50953 0.99309 0.0
C2161 C 0.3671 0.5545 0.9853 0.0
C2162 C 0.34677 0.52974 0.98246 0.0
C2163 C 0.43477 0.56459 0.96295 0.0
C2164 C 0.40368 0.58214 1.00192 0.0
C2165 C 0.39461 0.73577 1.00502 0.0
C2166 C 0.37202 0.72815 0.99506 0.0
C2167 C 0.47082 0.63106 0.96124 0.0
C2168 C 0.53017 0.55494 0.94051 0.0
C2169 C 0.55153 0.56663 0.93094 0.0
C2170 C 0.54696 0.56239 0.91667 0.0
C2171 C 0.52077 0.54608 0.91179 0.0
C2172 C 0.50427 0.53765 0.93566 0.0
C2173 C 0.4996 0.53336 0.92136 0.0
C2174 C 0.50361 0.67084 0.9831 0.0
C2175 C 0.53571 0.56129 0.95536 0.0
H2176 H 0.3783 0.54253 1.01985 0.0
H2177 H 0.32122 0.49085 0.99068 0.0
H2178 H 0.37283 0.57014 0.97698 0.0
H2179 H 0.3378 0.52651 0.97203 0.0
H2180 H 0.57159 0.57993 0.93461 0.0
H2181 H 0.51681 0.54322 0.90073 0.0
H2182 H 0.48763 0.52758 0.94283 0.0
H2183 H 0.47943 0.52039 0.9177 0.0
Tb2184 Tb 0.22334 0.69093 0.74271 0.0
C2185 C 0.29545 0.78649 0.74515 0.0
C2186 C 0.27562 0.83861 0.7498 0.0
C2187 C 0.32479 0.82173 0.76015 0.0
C2188 C 0.27258 0.80913 0.74332 0.0
C2189 C 0.32175 0.79248 0.75363 0.0
C2190 C 0.30177 0.84473 0.75825 0.0
C2191 C 0.33917 0.73957 0.74921 0.0
N2192 N 0.29112 0.75806 0.73915 0.0
C2193 C 0.31268 0.73472 0.74093 0.0
C2194 C 0.34379 0.7686 0.75557 0.0
Tb2195 Tb 0.24933 0.75442 0.72443 0.0
N2196 N 0.24748 0.80229 0.73516 0.0
C2197 C 0.22575 0.82496 0.73225 0.0
C2198 C 0.2524 0.86115 0.74751 0.0
C2199 C 0.22752 0.85437 0.7386 0.0
H2200 H 0.30961 0.71232 0.73599 0.0
H2201 H 0.21002 0.87203 0.73637 0.0
H2202 H 0.3044 0.86719 0.76336 0.0
H2203 H 0.35604 0.72093 0.75067 0.0
H2204 H 0.20743 0.82102 0.72471 0.0
H2205 H 0.20203 0.57594 0.72085 0.0
H2206 H 0.25384 0.88405 0.75232 0.0
H2207 H 0.18411 0.72627 0.76911 0.0
H2208 H 0.23365 0.62107 0.72739 0.0
H2209 H 0.1337 0.72087 0.78082 0.0
H2210 H 0.34472 0.8267 0.76678 0.0
H2211 H 0.14606 0.57363 0.72728 0.0
H2212 H 0.10117 0.59717 0.74036 0.0
H2213 H 0.36424 0.77221 0.76205 0.0
H2214 H 0.08272 0.63654 0.75711 0.0
N2215 N 0.19542 0.64733 0.73592 0.0
C2216 C 0.20898 0.6219 0.7296 0.0
C2217 C 0.1597 0.59423 0.72985 0.0
C2218 C 0.14674 0.61866 0.7376 0.0
C2219 C 0.19122 0.59549 0.72617 0.0
C2220 C 0.16566 0.64484 0.7408 0.0
H2221 H 0.09531 0.68165 0.77277 0.0
N2222 N 0.17604 0.68908 0.75455 0.0
C2223 C 0.13957 0.70537 0.7723 0.0
C2224 C 0.15565 0.66638 0.75051 0.0
C2225 C 0.16863 0.70789 0.7657 0.0
C2226 C 0.11786 0.68341 0.76765 0.0
C2227 C 0.12592 0.6632 0.75681 0.0
O2228 O 0.26879 0.67619 0.74805 0.0
O2229 O 0.2447 0.73746 0.74596 0.0
O2230 O 0.27891 0.71268 0.71443 0.0
O2231 O 0.25458 0.66965 0.72394 0.0
O2232 O 0.23538 0.71337 0.76302 0.0
O2233 O 0.22819 0.65216 0.75603 0.0
O2234 O 0.29065 0.7598 0.713 0.0
O2235 O 0.22875 0.71026 0.72286 0.0
O2236 O 0.17777 0.72241 0.73936 0.0
O2237 O 0.19583 0.76769 0.72842 0.0
O2238 O 0.21148 0.74387 0.70955 0.0
O2239 O 0.2505 0.78894 0.70876 0.0
C2240 C 0.24743 0.73971 0.75957 0.0
C2241 C 0.27408 0.65167 0.76992 0.0
C2242 C 0.31619 0.62834 0.78369 0.0
C2243 C 0.30234 0.63505 0.77072 0.0
C2244 C 0.30271 0.64154 0.79575 0.0
C2245 C 0.26037 0.66338 0.78213 0.0
C2246 C 0.27524 0.65917 0.7949 0.0
C2247 C 0.27709 0.68067 0.71483 0.0
C2248 C 0.25861 0.6543 0.7563 0.0
C2249 C 0.10581 0.63903 0.75256 0.0
C2250 C 0.11627 0.61668 0.743 0.0
C2251 C 0.20947 0.71485 0.71315 0.0
C2252 C 0.28265 0.77467 0.68969 0.0
C2253 C 0.27273 0.79771 0.68048 0.0
C2254 C 0.27471 0.79314 0.6661 0.0
C2255 C 0.28721 0.7653 0.66079 0.0
C2256 C 0.29605 0.74701 0.68436 0.0
C2257 C 0.29833 0.74244 0.66997 0.0
C2258 C 0.17109 0.75172 0.73424 0.0
C2259 C 0.27836 0.78034 0.70467 0.0
H2260 H 0.31255 0.62597 0.76123 0.0
H2261 H 0.31204 0.63672 0.80599 0.0
H2262 H 0.23796 0.67516 0.78193 0.0
H2263 H 0.26462 0.66832 0.80428 0.0
H2264 H 0.26217 0.81896 0.68455 0.0
H2265 H 0.28814 0.76127 0.64967 0.0
H2266 H 0.30452 0.72888 0.69122 0.0
H2267 H 0.30828 0.72095 0.66595 0.0
Tb2268 Tb 0.15295 0.4777 0.49256 0.0
C2269 C 0.05767 0.54835 0.49281 0.0
C2270 C 1.00651 0.52674 0.49801 0.0
C2271 C 1.02156 0.57721 0.5076 0.0
C2272 C 1.03596 0.52443 0.4914 0.0
C2273 C 0.05067 0.57504 0.50087 0.0
C2274 C 0.99957 0.55308 0.5062 0.0
C2275 C 0.1023 0.5949 0.49555 0.0
N2276 N 0.08622 0.54476 0.48677 0.0
C2277 C 0.10828 0.5679 0.48776 0.0
C2278 C 0.0734 0.59848 0.50216 0.0
Tb2279 Tb 0.09179 0.50161 0.4729 0.0
N2280 N 1.04358 0.49912 0.4835 0.0
C2281 C 1.02137 0.47681 0.48074 0.0
C2282 C 0.98473 0.50273 0.49603 0.0
C2283 C 0.99205 0.47789 0.48721 0.0
H2284 H 0.13064 0.56543 0.48268 0.0
H2285 H 0.97486 0.45986 0.48515 0.0
H2286 H 0.97716 0.55513 0.51141 0.0
H2287 H 0.12 0.61292 0.49645 0.0
H2288 H 1.02555 0.45851 0.47322 0.0
H2289 H 0.27306 0.4831 0.4739 0.0
H2290 H 0.96189 0.50362 0.50093 0.0
H2291 H 0.12975 0.42656 0.51832 0.0
H2292 H 0.22406 0.50469 0.48275 0.0
H2293 H 0.14049 0.37283 0.52498 0.0
H2294 H 1.01586 0.59739 0.51394 0.0
H2295 H 0.2824 0.42604 0.4746 0.0
H2296 H 0.26503 0.3735 0.48317 0.0
H2297 H 0.06894 0.6193 0.50828 0.0
H2298 H 0.22768 0.34272 0.49697 0.0
N2299 N 0.20193 0.46008 0.48573 0.0
C2300 C 0.22605 0.47958 0.48194 0.0
C2301 C 0.25995 0.43534 0.47787 0.0
C2302 C 0.23718 0.41595 0.48373 0.0
C2303 C 0.2547 0.46749 0.47738 0.0
C2304 C 0.20819 0.42925 0.48776 0.0
H2305 H 0.18161 0.34255 0.51299 0.0
N2306 N 0.16297 0.42775 0.50146 0.0
C2307 C 0.15371 0.38347 0.51661 0.0
C2308 C 0.18769 0.41228 0.49581 0.0
C2309 C 0.14779 0.41444 0.51269 0.0
C2310 C 0.17675 0.36638 0.50976 0.0
C2311 C 0.19506 0.38117 0.49968 0.0
O2312 O 0.16188 0.52256 0.50071 0.0
O2313 O 0.10929 0.50543 0.49462 0.0
O2314 O 0.13275 0.52938 0.46175 0.0
O2315 O 0.17464 0.51155 0.47449 0.0
O2316 O 0.11765 0.47459 0.50961 0.0
O2317 O 0.18496 0.48206 0.50908 0.0
O2318 O 0.08739 0.54181 0.46063 0.0
O2319 O 0.13636 0.4816 0.47235 0.0
O2320 O 0.12269 0.43136 0.48921 0.0
O2321 O 0.07857 0.44834 0.47728 0.0
O2322 O 0.10411 0.46227 0.45904 0.0
O2323 O 0.05707 0.50234 0.4573 0.0
C2324 C 0.09777 0.49601 0.50653 0.0
C2325 C 0.17445 0.52382 0.52452 0.0
C2326 C 0.18685 0.56337 0.54204 0.0
C2327 C 0.18717 0.55288 0.52814 0.0
C2328 C 0.16971 0.5457 0.55187 0.0
C2329 C 0.15841 0.50619 0.53455 0.0
C2330 C 0.15522 0.51766 0.54805 0.0
C2331 C 0.16433 0.53079 0.46379 0.0
C2332 C 0.18011 0.51192 0.51041 0.0
C2333 C 0.222 0.36673 0.49431 0.0
C2334 C 0.24328 0.38425 0.48648 0.0
C2335 C 0.13293 0.46131 0.46303 0.0
C2336 C 0.07118 0.53292 0.43762 0.0
C2337 C 0.04991 0.5188 0.42867 0.0
C2338 C 0.05311 0.52169 0.41426 0.0
C2339 C 0.07807 0.53865 0.4086 0.0
C2340 C 0.09578 0.55089 0.43198 0.0
C2341 C 0.09933 0.55343 0.41752 0.0
C2342 C 0.09403 0.42402 0.48364 0.0
C2343 C 0.06615 0.5296 0.4527 0.0
H2344 H 0.19873 0.56637 0.5201 0.0
H2345 H 0.16882 0.55224 0.56272 0.0
H2346 H 0.14861 0.48353 0.53204 0.0
H2347 H 0.14272 0.50406 0.55577 0.0
H2348 H 1.03053 0.50539 0.43293 0.0
H2349 H 0.08082 0.54071 0.39744 0.0
H2350 H 0.11212 0.56305 0.43867 0.0
H2351 H 0.11847 0.567 0.41325 0.0
Tb2352 Tb 0.37059 0.69472 0.36525 0.0
C2353 C 0.29801 0.78883 0.36238 0.0
C2354 C 0.3168 0.84119 0.35733 0.0
C2355 C 0.26761 0.82321 0.34737 0.0
C2356 C 0.32058 0.81192 0.36394 0.0
C2357 C 0.27135 0.79418 0.35404 0.0
C2358 C 0.29028 0.84665 0.349 0.0
C2359 C 0.25492 0.74112 0.35891 0.0
N2360 N 0.30295 0.76061 0.36853 0.0
C2361 C 0.28175 0.7369 0.36706 0.0
C2362 C 0.24963 0.76991 0.3524 0.0
Tb2363 Tb 0.34505 0.75837 0.38306 0.0
N2364 N 0.34604 0.80576 0.372 0.0
C2365 C 0.36739 0.82886 0.3747 0.0
C2366 C 0.33964 0.86419 0.35938 0.0
C2367 C 0.36489 0.85808 0.36821 0.0
H2368 H 0.28538 0.71473 0.37215 0.0
H2369 H 0.38211 0.8761 0.37024 0.0
H2370 H 0.28707 0.86893 0.34379 0.0
H2371 H 0.23829 0.7222 0.35769 0.0
H2372 H 0.38597 0.82534 0.38217 0.0
H2373 H 0.4068 0.58736 0.39052 0.0
H2374 H 0.33763 0.88695 0.35446 0.0
H2375 H 0.40683 0.73814 0.34007 0.0
H2376 H 0.3733 0.63278 0.38665 0.0
H2377 H 0.4546 0.7352 0.32628 0.0
H2378 H 0.24738 0.8277 0.34084 0.0
H2379 H 0.4575 0.58291 0.37834 0.0
H2380 H 0.49561 0.60507 0.36122 0.0
H2381 H 0.22891 0.77304 0.34603 0.0
H2382 H 0.50829 0.64489 0.34363 0.0
N2383 N 0.4033 0.65435 0.37173 0.0
C2384 C 0.39472 0.63133 0.38087 0.0
C2385 C 0.44247 0.60288 0.37633 0.0
C2386 C 0.45118 0.6261 0.36687 0.0
C2387 C 0.41387 0.60528 0.38319 0.0
C2388 C 0.43053 0.65143 0.3645 0.0
H2389 H 0.49294 0.69293 0.33041 0.0
N2390 N 0.41589 0.69631 0.35181 0.0
C2391 C 0.44982 0.71737 0.334 0.0
C2392 C 0.43707 0.67308 0.35422 0.0
C2393 C 0.42211 0.7184 0.34172 0.0
C2394 C 0.47147 0.6936 0.33641 0.0
C2395 C 0.4653 0.67109 0.3466 0.0
O2396 O 0.36501 0.65131 0.35507 0.0
O2397 O 0.3497 0.74127 0.3616 0.0
O2398 O 0.31693 0.71665 0.39412 0.0
O2399 O 0.33762 0.67321 0.38336 0.0
O2400 O 0.35758 0.71582 0.34466 0.0
O2401 O 0.32644 0.6835 0.35696 0.0
O2402 O 0.303 0.76633 0.39359 0.0
O2403 O 0.36492 0.71403 0.38513 0.0
O2404 O 0.41674 0.72482 0.36905 0.0
O2405 O 0.39809 0.77191 0.37804 0.0
O2406 O 0.38316 0.74872 0.39783 0.0
O2407 O 0.34455 0.79237 0.39895 0.0
C2408 C 0.34648 0.74288 0.34795 0.0
C2409 C 0.31335 0.63021 0.35529 0.0
C2410 C 0.26941 0.59868 0.34682 0.0
C2411 C 0.28908 0.62514 0.34573 0.0
C2412 C 0.27314 0.5789 0.35849 0.0
C2413 C 0.3166 0.61005 0.36669 0.0
C2414 C 0.29626 0.58486 0.36839 0.0
C2415 C 0.31683 0.68456 0.39315 0.0
C2416 C 0.33535 0.6561 0.35269 0.0
C2417 C 0.4865 0.64673 0.34935 0.0
C2418 C 0.47936 0.62415 0.35941 0.0
C2419 C 0.38465 0.71945 0.39462 0.0
C2420 C 0.30941 0.77908 0.41719 0.0
C2421 C 0.3221 0.79918 0.42704 0.0
C2422 C 0.31739 0.79397 0.44125 0.0
C2423 C 0.29967 0.76838 0.44577 0.0
C2424 C 0.29079 0.75375 0.4217 0.0
C2425 C 0.28611 0.74843 0.43594 0.0
C2426 C 0.42319 0.75495 0.37311 0.0
C2427 C 0.31576 0.78547 0.40239 0.0
H2428 H 0.28645 0.64147 0.33718 0.0
H2429 H 0.2594 0.55784 0.35977 0.0
H2430 H 0.3348 0.61346 0.37424 0.0
H2431 H 0.29906 0.56929 0.3772 0.0
H2432 H 0.33628 0.81889 0.42366 0.0
H2433 H 0.29631 0.76399 0.45677 0.0
H2434 H 0.27992 0.73802 0.41431 0.0
H2435 H 0.27208 0.72875 0.43933 0.0
Tb2436 Tb 0.15149 0.62099 0.11677 0.0
C2437 C 0.05747 0.54738 0.11331 0.0
C2438 C 1.00501 0.56562 0.10809 0.0
C2439 C 1.02339 0.51632 0.09845 0.0
C2440 C 1.03427 0.56981 0.11467 0.0
C2441 C 0.05239 0.52049 0.1051 0.0
C2442 C 0.99974 0.5388 0.09997 0.0
C2443 C 0.10543 0.50447 0.11018 0.0
N2444 N 0.08543 0.55249 0.11965 0.0
C2445 C 0.10931 0.53139 0.11827 0.0
C2446 C 0.07681 0.4989 0.10361 0.0
Tb2447 Tb 0.08732 0.59503 0.13403 0.0
N2448 N 1.0403 0.59555 0.12252 0.0
C2449 C 1.01711 0.61706 0.1249 0.0
C2450 C 0.98185 0.58839 0.10994 0.0
C2451 C 0.98787 0.6141 0.11847 0.0
H2452 H 0.13151 0.53516 0.12328 0.0
H2453 H 0.96976 0.63134 0.12033 0.0
H2454 H 0.97746 0.53526 0.0948 0.0
H2455 H 0.12452 0.48797 0.10905 0.0
H2456 H 1.02045 0.63606 0.13215 0.0
H2457 H 0.25909 0.6568 0.14198 0.0
H2458 H 0.95908 0.58603 0.10507 0.0
H2459 H 0.10887 0.65675 0.09126 0.0
H2460 H 0.21422 0.6229 0.13781 0.0
H2461 H 0.11157 0.70486 0.07764 0.0
H2462 H 1.01908 0.49587 0.09207 0.0
H2463 H 0.26277 0.70816 0.13029 0.0
H2464 H 0.24018 0.74669 0.11345 0.0
H2465 H 0.0739 0.47805 0.09733 0.0
H2466 H 0.20048 0.75943 0.0958 0.0
N2467 N 0.19184 0.65359 0.12336 0.0
C2468 C 0.21516 0.64471 0.13231 0.0
C2469 C 0.24295 0.69302 0.12819 0.0
C2470 C 0.2196 0.70189 0.11881 0.0
C2471 C 0.24098 0.66407 0.13478 0.0
C2472 C 0.19447 0.6811 0.11631 0.0
H2473 H 0.15305 0.74374 0.08223 0.0
N2474 N 0.14997 0.66635 0.10339 0.0
C2475 C 0.12915 0.7002 0.0855 0.0
C2476 C 0.17291 0.6877 0.10599 0.0
C2477 C 0.12825 0.67235 0.09312 0.0
C2478 C 0.15248 0.72216 0.08817 0.0
C2479 C 0.17475 0.71609 0.09847 0.0
O2480 O 0.19458 0.61609 0.10631 0.0
O2481 O 0.10514 0.59983 0.11273 0.0
O2482 O 0.12865 0.5653 0.1446 0.0
O2483 O 0.17242 0.58897 0.13532 0.0
O2484 O 0.13134 0.60745 0.09604 0.0
O2485 O 0.16399 0.57644 0.10935 0.0
O2486 O 0.0809 0.55559 0.14678 0.0
O2487 O 0.13151 0.61507 0.13648 0.0
O2488 O 0.12132 0.66703 0.1204 0.0
O2489 O 0.07403 0.64808 0.12894 0.0
O2490 O 0.09642 0.63327 0.14883 0.0
O2491 O 0.0517 0.5965 0.14904 0.0
C2492 C 0.10421 0.5962 0.0991 0.0
C2493 C 0.21767 0.56536 0.10614 0.0
C2494 C 0.25227 0.52755 0.09478 0.0
C2495 C 0.22365 0.54399 0.09548 0.0
C2496 C 0.27321 0.53047 0.10608 0.0
C2497 C 0.23858 0.56768 0.1173 0.0
C2498 C 0.26596 0.5498 0.11737 0.0
C2499 C 0.16083 0.56657 0.14433 0.0
C2500 C 0.19056 0.58618 0.10441 0.0
C2501 C 0.19878 0.73749 0.10143 0.0
C2502 C 0.22128 0.73032 0.11152 0.0
C2503 C 0.12582 0.63467 0.14594 0.0
C2504 C 1.02749 0.54774 0.15238 0.0
C2505 C 1.00248 0.55764 0.1605 0.0
C2506 C 0.97362 0.54226 0.16 0.0
C2507 C 0.96966 0.51633 0.15127 0.0
C2508 C 1.02396 0.52108 0.14393 0.0
C2509 C 0.99506 0.50552 0.14338 0.0
C2510 C 0.09102 0.67328 0.12419 0.0
C2511 C 0.05583 0.56726 0.15244 0.0
H2512 H 0.20608 0.54143 0.08746 0.0
H2513 H 0.29574 0.51891 0.10613 0.0
H2514 H 0.23416 0.5834 0.1258 0.0
H2515 H 0.28226 0.5519 0.12595 0.0
H2516 H 1.00514 0.57842 0.16691 0.0
H2517 H 0.94721 0.50463 0.15058 0.0
H2518 H 1.04316 0.51258 0.13763 0.0
H2519 H 0.99225 0.48534 0.13669 0.0
Tb2520 Tb 0.22852 0.40112 0.86357 0.0
C2521 C 0.30027 0.30527 0.86166 0.0
C2522 C 0.27813 0.25449 0.85631 0.0
C2523 C 0.32854 0.26932 0.84658 0.0
C2524 C 0.27626 0.28374 0.86309 0.0
C2525 C 0.32682 0.2982 0.8535 0.0
C2526 C 0.30418 0.24757 0.84793 0.0
C2527 C 0.34734 0.34938 0.85909 0.0
N2528 N 0.29707 0.33361 0.8679 0.0
C2529 C 0.3204 0.35549 0.86691 0.0
C2530 C 0.35057 0.32062 0.85234 0.0
Tb2531 Tb 0.2545 0.33914 0.88217 0.0
N2532 N 0.2514 0.29124 0.8713 0.0
C2533 C 0.22913 0.26902 0.87415 0.0
C2534 C 0.25407 0.23279 0.85836 0.0
C2535 C 0.22971 0.23994 0.86748 0.0
H2536 H 0.3182 0.37783 0.87202 0.0
H2537 H 0.21169 0.22277 0.86962 0.0
H2538 H 0.3059 0.22531 0.84258 0.0
H2539 H 0.36555 0.3669 0.85823 0.0
H2540 H 0.21126 0.27298 0.8819 0.0
H2541 H 0.23314 0.52042 0.88318 0.0
H2542 H 0.25462 0.2101 0.85333 0.0
H2543 H 0.17695 0.37906 0.83779 0.0
H2544 H 0.25502 0.47217 0.87358 0.0
H2545 H 0.12277 0.38937 0.83168 0.0
H2546 H 0.34857 0.26361 0.84014 0.0
H2547 H 0.17585 0.52876 0.88329 0.0
H2548 H 0.12307 0.51095 0.87511 0.0
H2549 H 0.37132 0.31609 0.84617 0.0
H2550 H 0.09228 0.47398 0.86113 0.0
N2551 N 0.21056 0.44959 0.8709 0.0
C2552 C 0.2299 0.47384 0.87466 0.0
C2553 C 0.18533 0.50668 0.87967 0.0
C2554 C 0.16597 0.4839 0.87379 0.0
C2555 C 0.21761 0.502 0.87968 0.0
C2556 C 0.17953 0.45541 0.8693 0.0
H2557 H 0.09225 0.42908 0.84446 0.0
N2558 N 0.17819 0.41108 0.85508 0.0
C2559 C 0.1335 0.40216 0.84015 0.0
C2560 C 0.16254 0.43514 0.86117 0.0
C2561 C 0.16472 0.39646 0.84376 0.0
C2562 C 0.11629 0.4244 0.84744 0.0
C2563 C 0.13115 0.44224 0.85765 0.0
O2564 O 0.27337 0.41126 0.85566 0.0
O2565 O 0.25711 0.35811 0.8607 0.0
O2566 O 0.28388 0.37999 0.89258 0.0
O2567 O 0.26093 0.42254 0.88215 0.0
O2568 O 0.22517 0.36648 0.84621 0.0
O2569 O 0.23256 0.43368 0.84724 0.0
O2570 O 0.29457 0.33597 0.89464 0.0
O2571 O 0.23368 0.38317 0.88348 0.0
O2572 O 0.18264 0.37047 0.86696 0.0
O2573 O 0.20087 0.32593 0.87818 0.0
O2574 O 0.2158 0.35 0.89668 0.0
O2575 O 0.25667 0.30341 0.89729 0.0
C2576 C 0.24732 0.34698 0.84879 0.0
C2577 C 0.27503 0.42476 0.83195 0.0
C2578 C 0.31472 0.43917 0.81471 0.0
C2579 C 0.30387 0.43837 0.82859 0.0
C2580 C 0.29755 0.42211 0.80466 0.0
C2581 C 0.25804 0.40878 0.82171 0.0
C2582 C 0.26985 0.40665 0.80824 0.0
C2583 C 0.28277 0.41185 0.8917 0.0
C2584 C 0.26257 0.42958 0.84603 0.0
C2585 C 0.1165 0.46854 0.8635 0.0
C2586 C 0.13403 0.4896 0.87144 0.0
C2587 C 0.21411 0.37899 0.89304 0.0
C2588 C 0.28556 0.31762 0.91736 0.0
C2589 C 0.27528 0.29327 0.92578 0.0
C2590 C 0.27502 0.29632 0.94026 0.0
C2591 C 0.28611 0.32384 0.94647 0.0
C2592 C 0.29738 0.34501 0.9236 0.0
C2593 C 0.29779 0.34795 0.93811 0.0
C2594 C 0.17597 0.34146 0.87227 0.0
C2595 C 0.28325 0.31356 0.9022 0.0
H2596 H 0.31681 0.44956 0.83686 0.0
H2597 H 0.30416 0.42179 0.79382 0.0
H2598 H 0.2356 0.39826 0.82404 0.0
H2599 H 0.25674 0.39419 0.80035 0.0
H2600 H 0.26576 0.27233 0.92096 0.0
H2601 H 0.28528 0.32676 0.95766 0.0
H2602 H 0.30591 0.36422 0.91736 0.0
H2603 H 0.30652 0.36922 0.94284 0.0
Tb2604 Tb 0.43836 0.47304 0.61662 0.0
C2605 C 0.53452 0.54517 0.61325 0.0
C2606 C 0.58684 0.52549 0.60881 0.0
C2607 C 0.56995 0.5745 0.59831 0.0
C2608 C 0.55723 0.52237 0.61519 0.0
C2609 C 0.54053 0.57134 0.60469 0.0
C2610 C 0.59306 0.55166 0.60038 0.0
C2611 C 0.48734 0.58842 0.60876 0.0
N2612 N 0.50602 0.54088 0.61921 0.0
C2613 C 0.48251 0.56214 0.61718 0.0
C2614 C 0.51651 0.59312 0.60253 0.0
Tb2615 Tb 0.5025 0.49935 0.63406 0.0
N2616 N 0.55026 0.49717 0.62327 0.0
C2617 C 0.57287 0.47536 0.62616 0.0
C2618 C 0.60936 0.50227 0.61112 0.0
C2619 C 0.6024 0.47723 0.61992 0.0
H2620 H 0.45994 0.55892 0.62195 0.0
H2621 H 0.62002 0.45968 0.62214 0.0
H2622 H 0.61562 0.55436 0.59536 0.0
H2623 H 0.46857 0.60505 0.6071 0.0
H2624 H 0.5688 0.45694 0.63365 0.0
H2625 H 0.33125 0.44134 0.64338 0.0
H2626 H 0.63234 0.50377 0.60639 0.0
H2627 H 0.47818 0.43545 0.5911 0.0
H2628 H 0.37447 0.47545 0.63722 0.0
H2629 H 0.47474 0.38572 0.57866 0.0
H2630 H 0.57496 0.59437 0.59166 0.0
H2631 H 0.32824 0.38774 0.63386 0.0
H2632 H 0.34984 0.34722 0.6177 0.0
H2633 H 0.52013 0.61343 0.59596 0.0
H2634 H 0.38811 0.3326 0.59973 0.0
N2635 N 0.39799 0.44185 0.62437 0.0
C2636 C 0.37465 0.45221 0.63302 0.0
C2637 C 0.34774 0.40271 0.63106 0.0
C2638 C 0.3705 0.39273 0.62162 0.0
C2639 C 0.34942 0.43288 0.63649 0.0
C2640 C 0.39522 0.41332 0.61819 0.0
H2641 H 0.43416 0.34703 0.58494 0.0
N2642 N 0.4386 0.42661 0.60423 0.0
C2643 C 0.45793 0.39109 0.58674 0.0
C2644 C 0.41602 0.40552 0.60772 0.0
C2645 C 0.45931 0.41977 0.59371 0.0
C2646 C 0.4351 0.36925 0.59036 0.0
C2647 C 0.41373 0.37632 0.60092 0.0
O2648 O 0.42102 0.51751 0.61137 0.0
O2649 O 0.48481 0.49422 0.61272 0.0
O2650 O 0.4612 0.52993 0.64395 0.0
O2651 O 0.41757 0.50588 0.63488 0.0
O2652 O 0.45931 0.48606 0.596 0.0
O2653 O 0.39733 0.47572 0.60453 0.0
O2654 O 0.5092 0.54093 0.64518 0.0
O2655 O 0.45818 0.47959 0.63615 0.0
O2656 O 0.46812 0.42694 0.62105 0.0
O2657 O 0.51533 0.44584 0.62978 0.0
O2658 O 0.4912 0.46343 0.64982 0.0
O2659 O 0.53738 0.5001 0.64954 0.0
C2660 C 0.48614 0.49758 0.59911 0.0
C2661 C 0.39416 0.52067 0.59011 0.0
C2662 C 0.37058 0.56258 0.57634 0.0
C2663 C 0.37757 0.54894 0.58931 0.0
C2664 C 0.383 0.54863 0.56423 0.0
C2665 C 0.40528 0.50657 0.57788 0.0
C2666 C 0.40042 0.52102 0.56506 0.0
C2667 C 0.4291 0.52856 0.64373 0.0
C2668 C 0.39845 0.50615 0.60383 0.0
C2669 C 0.39014 0.35517 0.6048 0.0
C2670 C 0.36847 0.36342 0.61508 0.0
C2671 C 0.46261 0.46023 0.64579 0.0
C2672 C 0.52415 0.53282 0.6685 0.0
C2673 C 0.54749 0.52316 0.6776 0.0
C2674 C 0.54305 0.5247 0.692 0.0
C2675 C 0.51507 0.53667 0.69743 0.0
C2676 C 0.49633 0.54567 0.67393 0.0
C2677 C 0.49193 0.54765 0.68834 0.0
C2678 C 0.49816 0.42056 0.62524 0.0
C2679 C 0.52953 0.52827 0.65351 0.0
H2680 H 0.36901 0.55953 0.59882 0.0
H2681 H 0.37782 0.55785 0.55399 0.0
H2682 H 0.41731 0.48428 0.57816 0.0
H2683 H 0.40909 0.51011 0.55565 0.0
H2684 H 0.56881 0.5129 0.67344 0.0
H2685 H 0.51112 0.53723 0.70856 0.0
H2686 H 0.47792 0.55385 0.66715 0.0
H2687 H 0.47032 0.55715 0.69245 0.0
H2688 H 0.29883 0.35647 0.44339 0.0
H2689 H 0.12201 0.39879 0.46109 0.0
H2690 H 0.23034 0.28855 0.4565 0.0
H2691 H 0.19336 0.4686 0.45505 0.0
H2692 H 0.16135 0.3578 0.4586 0.0
H2693 H 0.26167 0.39841 0.44856 0.0
C2694 C 0.27642 0.35062 0.448 0.0
C2695 C 0.26739 0.3193 0.44958 0.0
C2696 C 0.16852 0.38207 0.45791 0.0
C2697 C 0.22446 0.36651 0.45473 0.0
C2698 C 0.14612 0.40539 0.45945 0.0
C2699 C 0.15521 0.43681 0.4594 0.0
C2700 C 0.19985 0.39052 0.45564 0.0
C2701 C 0.18605 0.44443 0.45597 0.0
C2702 C 0.25498 0.37439 0.45061 0.0
C2703 C 0.23805 0.31256 0.45529 0.0
N2704 N 0.20747 0.42132 0.45425 0.0
N2705 N 0.21726 0.33604 0.45742 0.0
H2706 H 0.05611 0.98154 0.70666 0.0
H2707 H 0.87437 0.9392 0.7017 0.0
H2708 H 0.98629 1.04499 0.69065 0.0
H2709 H 0.94644 0.87315 0.71256 0.0
H2710 H 0.91483 0.97853 0.69719 0.0
H2711 H 1.01485 0.94363 0.71185 0.0
C2712 C 1.03189 0.98794 0.70481 0.0
C2713 C 1.02434 1.01611 0.69818 0.0
C2714 C 0.92176 0.95555 0.70083 0.0
C2715 C 0.97761 0.97261 0.70324 0.0
C2716 C 0.89873 0.93322 0.70339 0.0
C2717 C 0.90721 0.9039 0.70861 0.0
C2718 C 0.95311 0.94847 0.70397 0.0
C2719 C 0.93896 0.89634 0.7097 0.0
C2720 C 1.00848 0.96605 0.7074 0.0
C2721 C 0.99279 1.02333 0.69576 0.0
N2722 N 0.96089 0.91882 0.70781 0.0
N2723 N 0.97051 1.00137 0.69804 0.0
H2724 H 0.37411 0.80515 0.95574 0.0
H2725 H 0.41487 0.62373 0.94822 0.0
H2726 H 0.30777 0.7351 0.9426 0.0
H2727 H 0.48245 0.69378 0.95956 0.0
H2728 H 0.37677 0.66525 0.94353 0.0
H2729 H 0.4136 0.7642 0.95871 0.0
C2730 C 0.36755 0.78092 0.95408 0.0
C2731 C 0.33793 0.77325 0.94888 0.0
C2732 C 0.39978 0.67154 0.94736 0.0
C2733 C 0.38307 0.72696 0.95131 0.0
C2734 C 0.4214 0.64788 0.95002 0.0
C2735 C 0.45042 0.6555 0.95575 0.0
C2736 C 0.40724 0.70247 0.95104 0.0
C2737 C 0.45902 0.687 0.95666 0.0
C2738 C 0.39027 0.75772 0.95536 0.0
C2739 C 0.33052 0.74171 0.94664 0.0
N2740 N 0.43706 0.70952 0.9549 0.0
N2741 N 0.35323 0.7197 0.94756 0.0
H2742 H 0.64653 0.22725 0.20984 0.0
H2743 H 0.60769 0.04927 0.1923 0.0
H2744 H 0.71649 0.15891 0.19928 0.0
H2745 H 0.53842 0.11604 0.2058 0.0
H2746 H 0.64835 0.0886 0.19556 0.0
H2747 H 0.60589 0.18755 0.20721 0.0
C2748 C 0.65329 0.20364 0.20721 0.0
C2749 C 0.6848 0.19495 0.20638 0.0
C2750 C 0.62439 0.09448 0.19817 0.0
C2751 C 0.63889 0.15038 0.20217 0.0
C2752 C 0.60139 0.07179 0.19669 0.0
C2753 C 0.5699 0.07973 0.19873 0.0
C2754 C 0.61571 0.12495 0.20203 0.0
C2755 C 0.56258 0.10918 0.20419 0.0
C2756 C 0.63014 0.18111 0.20553 0.0
C2757 C 0.69238 0.1655 0.20114 0.0
N2758 N 0.58537 0.13108 0.20543 0.0
N2759 N 0.66946 0.14394 0.19933 0.0
H2760 H 0.23327 0.80198 0.1515 0.0
H2761 H 0.17916 0.62443 0.16051 0.0
H2762 H 0.29166 0.73006 0.16938 0.0
H2763 H 0.11914 0.69817 0.14568 0.0
H2764 H 0.21925 0.66358 0.16599 0.0
H2765 H 0.1921 0.76319 0.1478 0.0
C2766 C 0.23783 0.7777 0.1541 0.0
C2767 C 0.26559 0.769 0.16079 0.0
C2768 C 0.1974 0.67116 0.16136 0.0
C2769 C 0.21834 0.72523 0.15747 0.0
C2770 C 0.17467 0.64887 0.15824 0.0
C2771 C 0.14731 0.65807 0.15141 0.0
C2772 C 0.1927 0.70231 0.1571 0.0
C2773 C 0.14129 0.68996 0.14961 0.0
C2774 C 0.21407 0.75578 0.15238 0.0
C2775 C 0.27038 0.73745 0.16419 0.0
N2776 N 0.16433 0.71103 0.15196 0.0
N2777 N 0.24666 0.71669 0.16274 0.0
H2778 H 0.72299 0.9329 0.40945 0.0
H2779 H 0.60939 0.04818 0.41535 0.0
H2780 H 0.64885 0.87432 0.39409 0.0
H2781 H 0.54345 0.97692 0.40335 0.0
H2782 H 0.65202 1.01126 0.41213 0.0
H2783 H 0.68427 0.97257 0.41561 0.0
C2784 C 0.69852 0.92881 0.40709 0.0
C2785 C 0.68917 0.90193 0.39996 0.0
C2786 C 0.62843 1.00345 0.41005 0.0
C2787 C 0.64509 0.94731 0.40617 0.0
C2788 C 0.60421 1.02499 0.41139 0.0
C2789 C 0.57318 1.01539 0.40949 0.0
C2790 C 0.62129 0.97222 0.40673 0.0
C2791 C 0.56727 0.98511 0.40471 0.0
C2792 C 0.67635 0.95153 0.41048 0.0
C2793 C 0.65724 0.89622 0.39817 0.0
N2794 N 0.59116 0.96437 0.40366 0.0
N2795 N 0.63632 0.91923 0.4008 0.0
H2796 H 0.43715 0.40206 0.64484 0.0
H2797 H 0.31824 0.41784 0.706 0.0
H2798 H 0.43299 0.48983 0.66685 0.0
H2799 H 0.29481 0.37193 0.66749 0.0
H2800 H 0.36218 0.44396 0.69426 0.0
H2801 H 0.38967 0.38503 0.65715 0.0
C2802 C 0.42624 0.41756 0.65233 0.0
C2803 C 0.43779 0.44769 0.65453 0.0
C2804 C 0.34672 0.42894 0.68831 0.0
C2805 C 0.384 0.42898 0.66828 0.0
C2806 C 0.32133 0.41467 0.6949 0.0
C2807 C 0.30316 0.39279 0.68763 0.0
C2808 C 0.35394 0.42045 0.6746 0.0
C2809 C 0.3084 0.38877 0.67337 0.0
C2810 C 0.39919 0.40806 0.65923 0.0
C2811 C 0.42362 0.46688 0.66453 0.0
N2812 N 0.33407 0.4016 0.6674 0.0
N2813 N 0.39704 0.45735 0.671 0.0
H2814 H 0.98705 1.04297 0.91355 0.0
H2815 H 0.9506 0.22055 0.89461 0.0
H2816 H 0.05756 0.10881 0.90046 0.0
H2817 H 0.8792 0.15266 0.90382 0.0
H2818 H 0.99047 0.18004 0.89699 0.0
H2819 H 0.94662 0.08166 0.90844 0.0
C2820 C 0.99377 0.06509 0.90889 0.0
C2821 C 1.02541 0.07302 0.90743 0.0
C2822 C 0.96607 0.17388 0.89839 0.0
C2823 C 0.97987 0.11762 0.90217 0.0
C2824 C 0.94336 0.19694 0.89691 0.0
C2825 C 0.91168 0.189 0.89778 0.0
C2826 C 0.95679 0.14313 0.90142 0.0
C2827 C 0.90346 0.159 0.90219 0.0
C2828 C 0.97086 0.08745 0.90633 0.0
C2829 C 1.03327 0.10199 0.90162 0.0
N2830 N 0.92597 0.1369 0.90377 0.0
N2831 N 1.01057 0.12365 0.89944 0.0
H2832 H 0.80369 0.74208 0.6629 0.0
H2833 H 0.98114 0.69689 0.6473 0.0
H2834 H 0.87386 0.80935 0.65089 0.0
H2835 H 0.90829 0.62897 0.65392 0.0
H2836 H 0.9427 0.73891 0.64974 0.0
H2837 H 0.84124 0.69998 0.65905 0.0
C2838 C 0.82663 0.74773 0.65877 0.0
C2839 C 0.83596 0.77895 0.65722 0.0
C2840 C 0.93502 0.71481 0.65057 0.0
C2841 C 0.87916 0.73143 0.65323 0.0
C2842 C 0.95688 0.69091 0.64907 0.0
C2843 C 0.9469 0.65973 0.64903 0.0
C2844 C 0.90348 0.70708 0.65278 0.0
C2845 C 0.91616 0.65292 0.65284 0.0
C2846 C 0.84827 0.72386 0.6569 0.0
C2847 C 0.86592 0.78541 0.65209 0.0
N2848 N 0.89528 0.67653 0.65445 0.0
N2849 N 0.88679 0.76176 0.65047 0.0
H2850 H 1.03501 0.12114 0.40037 0.0
H2851 H 0.21708 0.15856 0.40852 0.0
H2852 H 0.10446 0.05248 0.41164 0.0
H2853 H 0.14823 0.22763 0.39746 0.0
H2854 H 0.17483 0.12081 0.41258 0.0
H2855 H 0.07651 0.1601 0.39763 0.0
C2856 C 0.05923 0.11396 0.40155 0.0
C2857 C 0.06661 0.08383 0.40621 0.0
C2858 C 0.169 0.14406 0.4089 0.0
C2859 C 0.11354 0.12829 0.40421 0.0
C2860 C 0.19304 0.16548 0.40663 0.0
C2861 C 0.18599 0.1948 0.40107 0.0
C2862 C 0.13831 0.1521 0.40498 0.0
C2863 C 0.15462 0.20394 0.40009 0.0
C2864 C 0.08277 0.13635 0.40045 0.0
C2865 C 0.09811 0.07559 0.40793 0.0
N2866 N 0.13175 0.18221 0.40143 0.0
N2867 N 0.12046 0.09799 0.40731 0.0
H2868 H 0.61844 0.39959 0.14723 0.0
H2869 H 0.79571 0.3536 0.16248 0.0
H2870 H 0.69228 0.46736 0.1519 0.0
H2871 H 0.72465 0.28653 0.15139 0.0
H2872 H 0.75892 0.396 0.15767 0.0
H2873 H 0.65682 0.35749 0.14958 0.0
C2874 C 0.64286 0.40551 0.14858 0.0
C2875 C 0.65293 0.43664 0.14818 0.0
C2876 C 0.75155 0.37206 0.15595 0.0
C2877 C 0.69643 0.3892 0.15172 0.0
C2878 C 0.77276 0.348 0.15835 0.0
C2879 C 0.76296 0.31684 0.15727 0.0
C2880 C 0.72051 0.36465 0.15245 0.0
C2881 C 0.73294 0.31043 0.1522 0.0
C2882 C 0.6647 0.38157 0.15 0.0
C2883 C 0.68416 0.44343 0.15121 0.0
N2884 N 0.71243 0.33424 0.1502 0.0
N2885 N 0.705 0.41979 0.15281 0.0
H2886 H 0.37593 0.93759 0.90406 0.0
H2887 H 0.56015 0.96797 0.90163 0.0
H2888 H 0.44418 0.86469 0.8979 0.0
H2889 H 0.49211 1.03904 0.9116 0.0
H2890 H 0.51754 0.93069 0.89776 0.0
H2891 H 0.41837 0.9749 0.90786 0.0
C2892 C 0.39993 0.92966 0.90322 0.0
C2893 C 0.4069 0.89883 0.89954 0.0
C2894 C 0.5119 0.95459 0.90057 0.0
C2895 C 0.45519 0.9411 0.90335 0.0
C2896 C 0.53612 0.97601 0.90236 0.0
C2897 C 0.52933 1.00637 0.9069 0.0
C2898 C 0.481 0.96385 0.90345 0.0
C2899 C 0.49801 1.01572 0.90802 0.0
C2900 C 0.42411 0.95085 0.90538 0.0
C2901 C 0.43811 0.88892 0.89966 0.0
N2902 N 0.4749 0.9943 0.90659 0.0
N2903 N 0.46134 0.91027 0.90107 0.0
H2904 H 0.87536 0.28215 0.95668 0.0
H2905 H 0.9054 0.4662 0.95245 0.0
H2906 H 0.80446 0.34926 0.94525 0.0
H2907 H 0.97793 0.39836 0.95998 0.0
H2908 H 0.8682 0.42344 0.94878 0.0
H2909 H 0.91189 0.32517 0.96096 0.0
C2910 C 0.86713 0.30608 0.95572 0.0
C2911 C 0.83717 0.31247 0.95056 0.0
C2912 C 0.8921 0.41791 0.95166 0.0
C2913 C 0.87891 0.36122 0.95447 0.0
C2914 C 0.91323 0.44225 0.95368 0.0
C2915 C 0.94377 0.43551 0.95789 0.0
C2916 C 0.90166 0.38703 0.95435 0.0
C2917 C 0.95373 0.40432 0.95811 0.0
C2918 C 0.88816 0.33053 0.95775 0.0
C2919 C 0.82753 0.34366 0.94925 0.0
N2920 N 0.93242 0.38102 0.95689 0.0
N2921 N 0.84865 0.36699 0.95085 0.0
H2922 H 0.49381 0.0488 0.69741 0.0
H2923 H 0.45073 0.22805 0.70933 0.0
H2924 H 0.56231 0.11977 0.7067 0.0
H2925 H 0.38208 0.15509 0.70447 0.0
H2926 H 0.49236 0.18889 0.70796 0.0
H2927 H 0.45218 0.0868 0.70134 0.0
C2928 C 0.49989 0.07203 0.70105 0.0
C2929 C 0.53123 0.08144 0.70174 0.0
C2930 C 0.46818 0.18139 0.70728 0.0
C2931 C 0.48426 0.12517 0.70572 0.0
C2932 C 0.4445 0.20367 0.70813 0.0
C2933 C 0.41319 0.19411 0.70821 0.0
C2934 C 0.46013 0.14971 0.70582 0.0
C2935 C 0.40609 0.16287 0.70539 0.0
C2936 C 0.47625 0.09393 0.70293 0.0
C2937 C 0.53826 0.1118 0.70619 0.0
N2938 N 0.42948 0.14159 0.70438 0.0
N2939 N 0.51483 0.13294 0.70777 0.0
H2940 H 0.79138 0.73378 0.44057 0.0
H2941 H 0.61495 0.69438 0.46101 0.0
H2942 H 0.72543 0.80268 0.4552 0.0
H2943 H 0.68252 0.62436 0.44963 0.0
H2944 H 0.65432 0.735 0.45768 0.0
H2945 H 0.75242 0.6929 0.44444 0.0
C2946 C 0.7691 0.73997 0.44522 0.0
C2947 C 0.76136 0.77139 0.44759 0.0
C2948 C 0.66071 0.71075 0.45599 0.0
C2949 C 0.71647 0.72536 0.45148 0.0
C2950 C 0.63838 0.68759 0.4581 0.0
C2951 C 0.64702 0.65609 0.45721 0.0
C2952 C 0.69117 0.70204 0.45214 0.0
C2953 C 0.67607 0.6485 0.45151 0.0
C2954 C 0.74664 0.71685 0.4471 0.0
C2955 C 0.73218 0.77858 0.45338 0.0
N2956 N 0.69746 0.67144 0.44931 0.0
N2957 N 0.71047 0.7557 0.45493 0.0
H2958 H 0.15326 0.86248 0.20772 0.0
H2959 H 0.10272 1.0386 0.19208 0.0
H2960 H 0.219 0.93758 0.20169 0.0
H2961 H 1.03798 0.96667 0.20481 0.0
H2962 H 0.14571 1.00142 0.19434 0.0
H2963 H 0.11008 0.89913 0.20398 0.0
C2964 C 0.15847 0.88685 0.20574 0.0
C2965 C 0.18919 0.89808 0.20633 0.0
C2966 C 0.12223 0.99393 0.197 0.0
C2967 C 0.14071 0.93936 0.20119 0.0
C2968 C 0.09789 1.01533 0.19604 0.0
C2969 C 0.06702 1.00547 0.19827 0.0
C2970 C 0.11562 0.96284 0.20067 0.0
C2971 C 0.06162 0.97507 0.20314 0.0
C2972 C 0.13394 0.90765 0.2035 0.0
C2973 C 0.19525 0.92887 0.20235 0.0
N2974 N 0.08578 0.95456 0.20404 0.0
N2975 N 0.17107 0.94874 0.20008 0.0
H2976 H 0.68945 0.96664 0.95124 0.0
H2977 H 0.72519 0.78373 0.95654 0.0
H2978 H 0.61925 0.89712 0.95993 0.0
H2979 H 0.79372 0.8526 0.94449 0.0
H2980 H 0.68739 0.82574 0.9607 0.0
H2981 H 0.72772 0.92482 0.94765 0.0
C2982 C 0.68234 0.94253 0.9527 0.0
C2983 C 0.65217 0.93513 0.95719 0.0
C2984 C 0.71088 0.83172 0.95739 0.0
C2985 C 0.69556 0.8877 0.95372 0.0
C2986 C 0.73265 0.80786 0.95544 0.0
C2987 C 0.76231 0.815 0.95013 0.0
C2988 C 0.71909 0.86257 0.95388 0.0
C2989 C 0.77093 0.84643 0.94861 0.0
C2990 C 0.70409 0.91872 0.95071 0.0
C2991 C 0.64316 0.90369 0.95779 0.0
N2992 N 0.7491 0.86914 0.95013 0.0
N2993 N 0.6651 0.88095 0.95658 0.0
H2994 H 0.37486 0.43556 0.2018 0.0
H2995 H 0.55868 0.46779 0.20593 0.0
H2996 H 0.44343 0.36396 0.20987 0.0
H2997 H 0.49077 0.53746 0.19391 0.0
H2998 H 0.51611 0.4305 0.20986 0.0
H2999 H 0.41729 0.47286 0.1976 0.0
C3000 C 0.39891 0.42796 0.203 0.0
C3001 C 0.40596 0.39769 0.20747 0.0
C3002 C 0.51048 0.4541 0.20656 0.0
C3003 C 0.45409 0.4399 0.20326 0.0
C3004 C 0.53466 0.47555 0.20472 0.0
C3005 C 0.52794 0.50546 0.19958 0.0
C3006 C 0.47971 0.46287 0.20313 0.0
C3007 C 0.49663 0.51446 0.1979 0.0
C3008 C 0.42307 0.44913 0.20064 0.0
C3009 C 0.43723 0.38798 0.20773 0.0
N3010 N 0.47359 0.49297 0.19938 0.0
N3011 N 0.46037 0.40936 0.20615 0.0
H3012 H 0.90538 0.12743 0.45382 0.0
H3013 H 0.86565 0.30988 0.45619 0.0
H3014 H 0.97375 0.19925 0.46176 0.0
H3015 H 0.79857 0.23879 0.44515 0.0
H3016 H 0.9043 0.26901 0.46096 0.0
H3017 H 0.8659 0.16798 0.44994 0.0
C3018 C 0.91186 0.15179 0.45499 0.0
C3019 C 0.94207 0.16025 0.45907 0.0
C3020 C 0.88095 0.2623 0.45774 0.0
C3021 C 0.89733 0.20634 0.45519 0.0
C3022 C 0.85869 0.28554 0.45544 0.0
C3023 C 0.82917 0.2774 0.45028 0.0
C3024 C 0.87334 0.23101 0.45477 0.0
C3025 C 0.82123 0.24571 0.44918 0.0
C3026 C 0.88944 0.17488 0.45279 0.0
C3027 C 0.95009 0.19193 0.45958 0.0
N3028 N 0.84348 0.22355 0.45111 0.0
N3029 N 0.92757 0.214 0.45806 0.0
H3030 H 1.03499 0.61215 0.70795 0.0
H3031 H 0.14731 0.72818 0.71076 0.0
H3032 H 0.10858 0.55358 0.69172 0.0
H3033 H 0.2148 0.65532 0.7037 0.0
H3034 H 0.10517 0.69036 0.70834 0.0
H3035 H 0.07393 0.65149 0.71416 0.0
C3036 C 0.05957 0.60724 0.70615 0.0
C3037 C 0.0688 0.58006 0.69916 0.0
C3038 C 0.12909 0.68219 0.70773 0.0
C3039 C 0.11291 0.62573 0.70492 0.0
C3040 C 0.15314 0.70389 0.70912 0.0
C3041 C 0.18429 0.69387 0.70895 0.0
C3042 C 0.13668 0.65057 0.70559 0.0
C3043 C 0.19089 0.66319 0.70503 0.0
C3044 C 0.0817 0.63017 0.7092 0.0
C3045 C 0.10075 0.57455 0.69702 0.0
N3046 N 0.16718 0.64239 0.70361 0.0
N3047 N 0.12167 0.59762 0.69956 0.0
H3048 H 0.6135 0.19501 0.64858 0.0
H3049 H 0.79177 0.24009 0.66262 0.0
H3050 H 0.68729 0.12721 0.6536 0.0
H3051 H 0.72069 0.3078 0.65216 0.0
H3052 H 0.75405 0.19811 0.65886 0.0
H3053 H 0.6519 0.2371 0.65103 0.0
C3054 C 0.6379 0.18907 0.65005 0.0
C3055 C 0.64798 0.15793 0.64968 0.0
C3056 C 0.74682 0.22208 0.65704 0.0
C3057 C 0.69145 0.20534 0.6533 0.0
C3058 C 0.76853 0.24589 0.65886 0.0
C3059 C 0.7591 0.27716 0.65763 0.0
C3060 C 0.71567 0.22976 0.65384 0.0
C3061 C 0.72872 0.28382 0.65304 0.0
C3062 C 0.65974 0.21301 0.65152 0.0
C3063 C 0.67915 0.15112 0.65284 0.0
N3064 N 0.70778 0.26021 0.6515 0.0
N3065 N 0.69998 0.17473 0.65444 0.0
H3066 H 0.15185 0.3671 0.89565 0.0
H3067 H 0.10844 0.5428 0.91505 0.0
H3068 H 0.22104 0.43909 0.90158 0.0
H3069 H 1.04065 0.47443 0.90167 0.0
H3070 H 0.15049 0.50592 0.90966 0.0
H3071 H 0.11048 0.40577 0.89902 0.0
C3072 C 0.15823 0.3912 0.89746 0.0
C3073 C 0.18953 0.40071 0.89721 0.0
C3074 C 0.12647 0.49918 0.90763 0.0
C3075 C 0.1429 0.44453 0.90193 0.0
C3076 C 0.10263 0.52043 0.9104 0.0
C3077 C 0.07133 0.51141 0.90874 0.0
C3078 C 0.11869 0.46881 0.90328 0.0
C3079 C 0.06465 0.48215 0.90295 0.0
C3080 C 0.13471 0.41321 0.89948 0.0
C3081 C 0.19694 0.43147 0.90083 0.0
N3082 N 0.08821 0.46154 0.90064 0.0
N3083 N 0.17368 0.45249 0.90302 0.0
H3084 H 0.97539 0.89854 0.14698 0.0
H3085 H 0.79777 0.85164 0.16071 0.0
H3086 H 0.90081 0.96573 0.15118 0.0
H3087 H 0.86997 0.78469 0.15096 0.0
H3088 H 0.83445 0.8941 0.15604 0.0
H3089 H 0.93728 0.85614 0.14905 0.0
C3090 C 0.95087 0.90427 0.14817 0.0
C3091 C 0.94055 0.93533 0.14771 0.0
C3092 C 0.84212 0.87016 0.15454 0.0
C3093 C 0.89733 0.88756 0.15091 0.0
C3094 C 0.82096 0.84604 0.15685 0.0
C3095 C 0.83111 0.81493 0.15617 0.0
C3096 C 0.87341 0.86285 0.15145 0.0
C3097 C 0.86142 0.80855 0.15144 0.0
C3098 C 0.92919 0.88017 0.14942 0.0
C3099 C 0.90917 0.94187 0.15053 0.0
N3100 N 0.88185 0.83243 0.1495 0.0
N3101 N 0.88848 0.91808 0.15196 0.0
H3102 H 0.55191 0.6114 0.40083 0.0
H3103 H 0.37437 0.6665 0.40949 0.0
H3104 H 0.47921 0.55289 0.4179 0.0
H3105 H 0.44823 0.7254 0.39402 0.0
H3106 H 0.41336 0.62604 0.41485 0.0
H3107 H 0.51321 0.65247 0.39668 0.0
C3108 C 0.52749 0.60676 0.40312 0.0
C3109 C 0.51855 0.57907 0.40979 0.0
C3110 C 0.42098 0.64772 0.41008 0.0
C3111 C 0.47483 0.62622 0.40599 0.0
C3112 C 0.39879 0.67066 0.40705 0.0
C3113 C 0.408 0.69775 0.40002 0.0
C3114 C 0.45204 0.65201 0.40561 0.0
C3115 C 0.43991 0.70339 0.39802 0.0
C3116 C 0.50559 0.63048 0.40116 0.0
C3117 C 0.48679 0.57415 0.41276 0.0
N3118 N 0.46084 0.68019 0.40033 0.0
N3119 N 0.46606 0.59787 0.41112 0.0
H3120 H 0.37188 0.31369 0.15072 0.0
H3121 H 0.48414 0.19617 0.14811 0.0
H3122 H 0.30798 0.24042 0.16267 0.0
H3123 H 0.40755 0.13199 0.15328 0.0
H3124 H 0.44809 0.23996 0.15042 0.0
H3125 H 0.41148 0.27423 0.14548 0.0
C3126 C 0.36596 0.28912 0.15176 0.0
C3127 C 0.33697 0.28005 0.15721 0.0
C3128 C 0.43876 0.21647 0.1507 0.0
C3129 C 0.38265 0.2351 0.15256 0.0
C3130 C 0.45943 0.19145 0.14939 0.0
C3131 C 0.44788 0.16082 0.14896 0.0
C3132 C 0.40661 0.21032 0.1522 0.0
C3133 C 0.41664 0.15554 0.15235 0.0
C3134 C 0.38892 0.2666 0.14927 0.0
C3135 C 0.33027 0.24813 0.15852 0.0
N3136 N 0.39687 0.18016 0.15368 0.0
N3137 N 0.35324 0.2268 0.15654 0.0
H3138 H 0.60726 0.54666 0.91257 0.0
H3139 H 0.64683 0.72558 0.89723 0.0
H3140 H 0.53728 0.61522 0.90181 0.0
H3141 H 0.71662 0.65483 0.90468 0.0
H3142 H 0.60586 0.68597 0.89946 0.0
H3143 H 0.648 0.5855 0.90854 0.0
C3144 C 0.60071 0.56951 0.90859 0.0
C3145 C 0.56916 0.578 0.90748 0.0
C3146 C 0.63014 0.67904 0.90053 0.0
C3147 C 0.61514 0.62272 0.90333 0.0
C3148 C 0.65346 0.70156 0.89915 0.0
C3149 C 0.68494 0.69252 0.89945 0.0
C3150 C 0.63872 0.64778 0.90293 0.0
C3151 C 0.69249 0.66203 0.9034 0.0
C3152 C 0.62381 0.59192 0.90667 0.0
C3153 C 0.56152 0.60793 0.90262 0.0
N3154 N 0.66945 0.64051 0.90489 0.0
N3155 N 0.58445 0.62956 0.90092 0.0
H3156 H 0.22194 0.78579 0.65096 0.0
H3157 H 0.18948 0.96949 0.6549 0.0
H3158 H 0.29153 0.85371 0.66286 0.0
H3159 H 0.11798 0.90092 0.64687 0.0
H3160 H 0.22699 0.92713 0.65889 0.0
H3161 H 0.18487 0.82837 0.64657 0.0
C3162 C 0.22977 0.80981 0.65201 0.0
C3163 C 0.25953 0.81654 0.6573 0.0
C3164 C 0.20325 0.92134 0.65588 0.0
C3165 C 0.21717 0.86479 0.65326 0.0
C3166 C 0.18194 0.94546 0.65365 0.0
C3167 C 0.15162 0.93842 0.64925 0.0
C3168 C 0.19412 0.89036 0.65317 0.0
C3169 C 0.14203 0.90713 0.64895 0.0
C3170 C 0.20843 0.834 0.64991 0.0
C3171 C 0.26864 0.84785 0.65876 0.0
N3172 N 0.16354 0.88404 0.65038 0.0
N3173 N 0.24724 0.87091 0.65707 0.0
H3174 H 0.99344 0.53957 0.41042 0.0
H3175 H 0.94402 0.36195 0.3981 0.0
H3176 H 0.05944 0.46638 0.40089 0.0
H3177 H 0.878 0.43692 0.40379 0.0
H3178 H 0.98705 0.3994 0.39994 0.0
H3179 H 0.95058 0.50267 0.4072 0.0
C3180 C 0.99867 0.51604 0.40688 0.0
C3181 C 1.02971 0.50581 0.40579 0.0
C3182 C 0.96316 0.40777 0.40067 0.0
C3183 C 0.98125 0.46334 0.40252 0.0
C3184 C 0.93867 0.38648 0.39952 0.0
C3185 C 0.90772 0.39726 0.39934 0.0
C3186 C 0.95626 0.43964 0.40243 0.0
C3187 C 0.90175 0.42839 0.40277 0.0
C3188 C 0.97434 0.4948 0.40538 0.0
C3189 C 1.03564 0.47503 0.4016 0.0
N3190 N 0.92591 0.44874 0.40403 0.0
N3191 N 1.01152 0.45459 0.40028 0.0
H3192 H 0.4046 0.96708 0.45583 0.0
H3193 H 0.37134 0.78332 0.45508 0.0
H3194 H 0.47617 0.8972 0.46157 0.0
H3195 H 0.30097 0.8534 0.44715 0.0
H3196 H 0.40906 0.82481 0.46028 0.0
H3197 H 0.36634 0.92551 0.45195 0.0
C3198 C 0.41204 0.9429 0.45655 0.0
C3199 C 0.44284 0.93523 0.46004 0.0
C3200 C 0.38519 0.83113 0.45768 0.0
C3201 C 0.39945 0.88789 0.45619 0.0
C3202 C 0.36353 0.80747 0.45513 0.0
C3203 C 0.33325 0.81525 0.45077 0.0
C3204 C 0.37627 0.86247 0.45568 0.0
C3205 C 0.32419 0.84673 0.45061 0.0
C3206 C 0.3903 0.91922 0.45437 0.0
C3207 C 0.45204 0.90381 0.45989 0.0
N3208 N 0.34587 0.86934 0.45272 0.0
N3209 N 0.43019 0.88107 0.45843 0.0
H3210 H 0.94332 0.68852 0.21204 0.0
H3211 H 0.92299 0.57313 0.14979 0.0
H3212 H 0.85476 0.68747 0.19051 0.0
H3213 H 0.96905 0.54647 0.1879 0.0
H3214 H 0.89855 0.61735 0.16204 0.0
H3215 H 0.959 0.64141 0.1991 0.0
C3216 C 0.92736 0.67836 0.20453 0.0
C3217 C 0.89738 0.69064 0.20264 0.0
C3218 C 0.91325 0.60117 0.16777 0.0
C3219 C 0.91455 0.6373 0.1882 0.0
C3220 C 0.92657 0.57565 0.1609 0.0
C3221 C 0.94798 0.55641 0.16792 0.0
C3222 C 0.92222 0.60742 0.18153 0.0
C3223 C 0.95257 0.56091 0.18221 0.0
C3224 C 0.93608 0.65153 0.19728 0.0
C3225 C 0.87758 0.67748 0.19259 0.0
N3226 N 0.94064 0.58666 0.18847 0.0
N3227 N 0.88636 0.65109 0.18578 0.0
H3228 H 0.22268 0.30432 0.95564 0.0
H3229 H 0.17974 0.12339 0.9483 0.0
H3230 H 0.28753 0.2341 0.94123 0.0
H3231 H 0.11381 0.19437 0.96045 0.0
H3232 H 0.21814 0.16445 0.94321 0.0
H3233 H 0.18321 0.26363 0.95903 0.0
C3234 C 0.22895 0.2801 0.95376 0.0
C3235 C 0.25809 0.27233 0.94809 0.0
C3236 C 0.19541 0.17103 0.94726 0.0
C3237 C 0.21291 0.2263 0.95103 0.0
C3238 C 0.17364 0.14766 0.95015 0.0
C3239 C 0.14509 0.15566 0.95625 0.0
C3240 C 0.18852 0.20206 0.95103 0.0
C3241 C 0.13695 0.18726 0.95729 0.0
C3242 C 0.20622 0.25704 0.9553 0.0
C3243 C 0.26513 0.24078 0.9456 0.0
N3244 N 0.15905 0.20948 0.95526 0.0
N3245 N 0.2424 0.21889 0.94681 0.0
H3246 H 0.53602 0.47134 0.70675 0.0
H3247 H 0.71978 0.43939 0.70172 0.0
H3248 H 0.60365 0.54157 0.69522 0.0
H3249 H 0.65153 0.36748 0.70961 0.0
H3250 H 0.67721 0.47688 0.69811 0.0
H3251 H 0.57874 0.43409 0.71054 0.0
C3252 C 0.56002 0.47925 0.70566 0.0
C3253 C 0.56661 0.50928 0.70064 0.0
C3254 C 0.67154 0.45304 0.70101 0.0
C3255 C 0.61499 0.46674 0.70399 0.0
C3256 C 0.69578 0.43174 0.70301 0.0
C3257 C 0.68891 0.40128 0.70727 0.0
C3258 C 0.64062 0.44374 0.70377 0.0
C3259 C 0.65764 0.39159 0.70763 0.0
C3260 C 0.58428 0.45782 0.7074 0.0
C3261 C 0.59789 0.51848 0.69913 0.0
N3262 N 0.63445 0.41307 0.70642 0.0
N3263 N 0.621 0.497 0.70047 0.0
H3264 H 0.1096 0.21816 0.37096 0.0
H3265 H 0.98335 0.37111 0.37115 0.0
H3266 H 0.14216 0.31213 0.37668 0.0
H3267 H 0.95063 0.27708 0.37649 0.0
H3268 H 1.0381 0.35139 0.3713 0.0
H3269 H 0.05481 0.23785 0.37111 0.0
C3270 C 0.10623 0.24312 0.37222 0.0
C3271 C 0.13412 0.26223 0.37382 0.0
C3272 C 1.01942 0.33445 0.37243 0.0
C3273 C 0.06499 0.28732 0.37381 0.0
C3274 C 0.98668 0.34613 0.37231 0.0
C3275 C 0.95875 0.32703 0.3738 0.0
C3276 C 1.02786 0.30187 0.37381 0.0
C3277 C 0.96882 0.2945 0.37529 0.0
C3278 C 0.07346 0.25478 0.37232 0.0
C3279 C 0.124 0.29472 0.37538 0.0
N3280 N 1.00061 0.28385 0.37514 0.0
N3281 N 0.0922 0.30533 0.37523 0.0
H3282 H 0.97271 0.73634 0.62074 0.0
H3283 H 0.12584 0.86202 0.6206 0.0
H3284 H 0.06688 0.70345 0.62565 0.0
H3285 H 1.03176 0.89489 0.62578 0.0
H3286 H 0.10608 0.80734 0.62073 0.0
H3287 H 0.99245 0.79103 0.62088 0.0
C3288 C 0.99773 0.73964 0.6218 0.0
C3289 C 1.01688 0.71171 0.62316 0.0
C3290 C 0.08914 0.82604 0.62183 0.0
C3291 C 1.04202 0.78066 0.62319 0.0
C3292 C 0.10083 0.85872 0.62171 0.0
C3293 C 0.08171 0.88665 0.62316 0.0
C3294 C 0.05655 0.8177 0.62318 0.0
C3295 C 0.04916 0.87667 0.62461 0.0
C3296 C 1.00941 0.77233 0.62191 0.0
C3297 C 0.04945 0.72168 0.62454 0.0
N3298 N 1.03851 0.84493 0.62448 0.0
N3299 N 0.06008 0.75343 0.62441 0.0
H3300 H 0.44769 0.7783 0.87602 0.0
H3301 H 0.643 0.81376 0.8769 0.0
H3302 H 0.48378 0.87136 0.87171 0.0
H3303 H 0.60718 0.72109 0.87086 0.0
H3304 H 0.58835 0.83407 0.87672 0.0
H3305 H 0.50234 0.75794 0.87586 0.0
C3306 C 0.46643 0.79521 0.87504 0.0
C3307 C 0.45761 0.8279 0.87379 0.0
C3308 C 0.59173 0.80913 0.87542 0.0
C3309 C 0.52654 0.80248 0.87382 0.0
C3310 C 0.62432 0.79693 0.87553 0.0
C3311 C 0.63322 0.76437 0.87383 0.0
C3312 C 0.56427 0.78972 0.87384 0.0
C3313 C 0.60453 0.74611 0.87218 0.0
C3314 C 0.49902 0.78298 0.87493 0.0
C3315 C 0.48637 0.84625 0.87261 0.0
N3316 N 0.57341 0.75846 0.87232 0.0
N3317 N 0.51746 0.83386 0.87276 0.0
H3318 H 0.47269 0.23575 0.12085 0.0
H3319 H 0.62544 0.36177 0.12055 0.0
H3320 H 0.56692 0.20302 0.1257 0.0
H3321 H 0.5313 0.39433 0.12591 0.0
H3322 H 0.60586 0.30702 0.1207 0.0
H3323 H 0.49231 0.29046 0.12098 0.0
C3324 C 0.4977 0.23909 0.12189 0.0
C3325 C 0.51691 0.2112 0.12324 0.0
C3326 C 0.58888 0.32566 0.12182 0.0
C3327 C 0.5419 0.28017 0.12326 0.0
C3328 C 0.60045 0.35839 0.12169 0.0
C3329 C 0.58125 0.38623 0.12316 0.0
C3330 C 0.55633 0.31723 0.12324 0.0
C3331 C 0.54875 0.37616 0.1247 0.0
C3332 C 0.50931 0.27179 0.122 0.0
C3333 C 0.54946 0.22122 0.12461 0.0
N3334 N 0.53821 0.34439 0.12458 0.0
N3335 N 0.56004 0.25298 0.12447 0.0
H3336 H 0.95291 0.81464 0.22852 0.0
H3337 H 0.14835 0.77993 0.23172 0.0
H3338 H 0.98876 0.72245 0.23603 0.0
H3339 H 0.11145 0.8731 0.23374 0.0
H3340 H 0.0938 0.75929 0.2317 0.0
H3341 H 1.00748 0.83507 0.22881 0.0
C3342 C 0.9716 0.79793 0.23022 0.0
C3343 C 0.96272 0.76546 0.23225 0.0
C3344 C 0.09693 0.78441 0.23216 0.0
C3345 C 1.03158 0.79096 0.23245 0.0
C3346 C 0.12945 0.7968 0.23215 0.0
C3347 C 0.13799 0.82964 0.23283 0.0
C3348 C 0.06923 0.80386 0.23259 0.0
C3349 C 0.10906 0.84791 0.23333 0.0
C3350 C 1.00413 0.8102 0.2304 0.0
C3351 C 0.9914 0.74737 0.23437 0.0
N3352 N 0.07807 0.83535 0.23311 0.0
N3353 N 1.02247 0.75978 0.23431 0.0
H3354 H 0.47087 0.85935 0.48759 0.0
H3355 H 0.6235 0.73272 0.48741 0.0
H3356 H 0.56504 0.89181 0.48239 0.0
H3357 H 0.52936 0.70048 0.48173 0.0
H3358 H 0.60395 0.78753 0.4874 0.0
H3359 H 0.49041 0.80456 0.48731 0.0
C3360 C 0.49585 0.85595 0.48647 0.0
C3361 C 0.51506 0.88383 0.48507 0.0
C3362 C 0.58695 0.76895 0.48616 0.0
C3363 C 0.53998 0.81467 0.48484 0.0
C3364 C 0.59852 0.73618 0.48618 0.0
C3365 C 0.57933 0.70837 0.48454 0.0
C3366 C 0.55441 0.77752 0.48474 0.0
C3367 C 0.54683 0.71858 0.48303 0.0
C3368 C 0.50742 0.82318 0.48625 0.0
C3369 C 0.54756 0.87366 0.48354 0.0
N3370 N 0.5363 0.75039 0.48327 0.0
N3371 N 0.55809 0.84185 0.48359 0.0
H3372 H 0.64816 0.28047 0.73043 0.0
H3373 H 0.45306 0.31587 0.73002 0.0
H3374 H 0.61197 0.37328 0.73569 0.0
H3375 H 0.48883 0.22312 0.7361 0.0
H3376 H 0.50767 0.33612 0.73022 0.0
H3377 H 0.59356 0.26005 0.73064 0.0
C3378 C 0.6294 0.2973 0.73163 0.0
C3379 C 0.63814 0.32994 0.73311 0.0
C3380 C 0.50429 0.31118 0.73153 0.0
C3381 C 0.56935 0.30448 0.73312 0.0
C3382 C 0.47174 0.29902 0.73141 0.0
C3383 C 0.46285 0.26648 0.73313 0.0
C3384 C 0.53171 0.29172 0.73312 0.0
C3385 C 0.4915 0.24814 0.7348 0.0
C3386 C 0.59686 0.28504 0.73176 0.0
C3387 C 0.60941 0.34822 0.73456 0.0
N3388 N 0.5226 0.26045 0.73464 0.0
N3389 N 0.57836 0.33582 0.73442 0.0
H3390 H 0.12137 0.23284 0.98657 0.0
H3391 H 0.96888 0.35939 0.98632 0.0
H3392 H 1.02726 0.20056 0.98082 0.0
H3393 H 0.06317 0.39176 0.98137 0.0
H3394 H 0.98837 0.30459 0.98612 0.0
H3395 H 0.10185 0.28764 0.98647 0.0
C3396 C 0.09641 0.2363 0.98531 0.0
C3397 C 0.0772 0.20851 0.98368 0.0
C3398 C 1.0054 0.3232 0.98509 0.0
C3399 C 0.05234 0.27758 0.98375 0.0
C3400 C 0.99388 0.35596 0.98525 0.0
C3401 C 1.01315 0.38378 0.98388 0.0
C3402 C 1.03797 0.31469 0.98379 0.0
C3403 C 1.04566 0.37363 0.98248 0.0
C3404 C 0.08486 0.26905 0.98523 0.0
C3405 C 1.04472 0.21867 0.98212 0.0
N3406 N 0.05616 0.34182 0.98258 0.0
N3407 N 1.0342 0.25047 0.9823 0.0
H3408 H 0.12045 0.75263 0.75524 0.0
H3409 H 0.9608 0.81277 0.71262 0.0
H3410 H 0.13123 0.78571 0.71348 0.0
H3411 H 0.97282 0.84002 0.75513 0.0
H3412 H 1.01589 0.79369 0.71236 0.0
H3413 H 0.06603 0.77298 0.75536 0.0
C3414 C 0.11217 0.7637 0.74585 0.0
C3415 C 0.134 0.76603 0.73435 0.0
C3416 C 1.00706 0.80371 0.72192 0.0
C3417 C 0.06504 0.79108 0.73425 0.0
C3418 C 0.97419 0.81503 0.72213 0.0
C3419 C 0.95873 0.82959 0.73391 0.0
C3420 C 1.0277 0.80461 0.7338 0.0
C3421 C 0.98095 0.8302 0.74545 0.0
C3422 C 0.0797 0.77599 0.74598 0.0
C3423 C 0.11803 0.78215 0.72296 0.0
N3424 N 1.01214 0.81813 0.74509 0.0
N3425 N 0.0863 0.79283 0.7232 0.0
H3426 H 1.0061 0.22342 0.50536 0.0
H3427 H 0.06055 0.38544 0.46273 0.0
H3428 H 1.03372 0.21514 0.46271 0.0
H3429 H 0.09312 0.37183 0.50443 0.0
H3430 H 1.0416 0.33036 0.4625 0.0
H3431 H 1.02639 0.27794 0.50552 0.0
C3432 C 1.01599 0.23227 0.49578 0.0
C3433 C 1.0169 0.21107 0.484 0.0
C3434 C 0.05276 0.33881 0.47188 0.0
C3435 C 1.04175 0.2802 0.484 0.0
C3436 C 0.06402 0.3717 0.47207 0.0
C3437 C 0.07999 0.38679 0.48359 0.0
C3438 C 0.05514 0.31766 0.48355 0.0
C3439 C 0.08208 0.36407 0.49493 0.0
C3440 C 1.02822 0.2648 0.49594 0.0
C3441 C 1.03142 0.22777 0.4724 0.0
N3442 N 0.07005 0.33285 0.49462 0.0
N3443 N 1.04205 0.25951 0.47272 0.0
H3444 H 0.64258 0.31276 0.23058 0.0
H3445 H 0.44745 0.2768 0.23072 0.0
H3446 H 0.607 0.21981 0.23614 0.0
H3447 H 0.48332 0.36972 0.23589 0.0
H3448 H 0.50214 0.25654 0.23091 0.0
H3449 H 0.58787 0.3329 0.23076 0.0
C3450 C 0.62393 0.29584 0.23184 0.0
C3451 C 0.63289 0.26326 0.23339 0.0
C3452 C 0.49875 0.28152 0.23201 0.0
C3453 C 0.56392 0.28838 0.23337 0.0
C3454 C 0.46615 0.29369 0.23189 0.0
C3455 C 0.45728 0.32631 0.23336 0.0
C3456 C 0.5262 0.30104 0.23336 0.0
C3457 C 0.48597 0.34466 0.23479 0.0
C3458 C 0.59132 0.30793 0.23194 0.0
C3459 C 0.60427 0.24485 0.23491 0.0
N3460 N 0.51707 0.33235 0.23464 0.0
N3461 N 0.57313 0.2571 0.23476 0.0
H3462 H 0.53143 0.89344 0.98005 0.0
H3463 H 0.56757 0.69826 0.98072 0.0
H3464 H 0.62427 0.85783 0.98606 0.0
H3465 H 0.47443 0.73395 0.98558 0.0
H3466 H 0.5877 0.75294 0.9809 0.0
H3467 H 0.51128 0.83877 0.98027 0.0
C3468 C 0.54834 0.8748 0.98142 0.0
C3469 C 0.58089 0.8838 0.98309 0.0
C3470 C 0.56269 0.74953 0.98193 0.0
C3471 C 0.55574 0.81476 0.98314 0.0
C3472 C 0.5506 0.71692 0.98182 0.0
C3473 C 0.51796 0.70795 0.98318 0.0
C3474 C 0.5431 0.77699 0.98316 0.0
C3475 C 0.49952 0.73664 0.98452 0.0
C3476 C 0.53623 0.84219 0.98156 0.0
C3477 C 0.59925 0.85514 0.98476 0.0
N3478 N 0.51178 0.76777 0.98437 0.0
N3479 N 0.58699 0.824 0.98463 0.0
H3480 H 0.1384 0.30621 0.89306 0.0
H3481 H 0.97437 0.25561 0.85085 0.0
H3482 H 0.12295 0.34161 0.85195 0.0
H3483 H 0.96834 0.27784 0.89418 0.0
H3484 H 1.02884 0.27594 0.85058 0.0
H3485 H 0.08336 0.28705 0.8935 0.0
C3486 C 0.12427 0.31028 0.88389 0.0
C3487 C 0.13883 0.32709 0.87247 0.0
C3488 C 1.01623 0.27652 0.86034 0.0
C3489 C 0.06974 0.30204 0.87275 0.0
C3490 C 0.98372 0.26422 0.86056 0.0
C3491 C 0.96314 0.26356 0.87256 0.0
C3492 C 1.03226 0.28859 0.87241 0.0
C3493 C 0.98046 0.27671 0.88431 0.0
C3494 C 0.0914 0.29889 0.8842 0.0
C3495 C 0.11562 0.32989 0.86136 0.0
N3496 N 1.01217 0.28746 0.8839 0.0
N3497 N 0.08443 0.31776 0.86177 0.0
H3498 H 0.5618 0.39326 0.62839 0.0
H3499 H 0.52654 0.1982 0.62674 0.0
H3500 H 0.46918 0.35761 0.62187 0.0
H3501 H 0.61956 0.23448 0.62239 0.0
H3502 H 0.5061 0.25279 0.62676 0.0
H3503 H 0.58215 0.33867 0.62802 0.0
C3504 C 0.54499 0.37461 0.6269 0.0
C3505 C 0.51243 0.38351 0.62516 0.0
C3506 C 0.53114 0.24952 0.62579 0.0
C3507 C 0.53782 0.31469 0.6249 0.0
C3508 C 0.54342 0.21699 0.62578 0.0
C3509 C 0.57612 0.20827 0.62446 0.0
C3510 C 0.55062 0.27705 0.62474 0.0
C3511 C 0.59444 0.23703 0.62334 0.0
C3512 C 0.55721 0.34207 0.62667 0.0
C3513 C 0.49418 0.35491 0.62329 0.0
N3514 N 0.58201 0.26807 0.6236 0.0
N3515 N 0.50655 0.32383 0.62333 0.0
H3516 H 0.64582 0.78209 0.37582 0.0
H3517 H 0.45087 0.81849 0.37632 0.0
H3518 H 0.61043 0.87497 0.36969 0.0
H3519 H 0.48609 0.72579 0.36958 0.0
H3520 H 0.50561 0.83849 0.37601 0.0
H3521 H 0.59108 0.76208 0.37564 0.0
C3522 C 0.62721 0.79903 0.37444 0.0
C3523 C 0.63627 0.83154 0.37273 0.0
C3524 C 0.50208 0.81361 0.37459 0.0
C3525 C 0.5672 0.80659 0.37278 0.0
C3526 C 0.46944 0.80159 0.37477 0.0
C3527 C 0.46034 0.76913 0.37294 0.0
C3528 C 0.52941 0.79407 0.37283 0.0
C3529 C 0.4889 0.75075 0.37105 0.0
C3530 C 0.59457 0.78701 0.37433 0.0
C3531 C 0.60766 0.84997 0.37105 0.0
N3532 N 0.52008 0.7629 0.37118 0.0
N3533 N 0.57649 0.8378 0.37124 0.0
H3534 H 0.06258 0.89548 0.12572 0.0
H3535 H 1.02725 0.70052 0.12712 0.0
H3536 H 0.96971 0.85936 0.12056 0.0
H3537 H 0.11991 0.73616 0.12066 0.0
H3538 H 1.00691 0.75512 0.12665 0.0
H3539 H 0.08297 0.84088 0.12579 0.0
C3540 C 1.04573 0.87673 0.1246 0.0
C3541 C 1.0131 0.88549 0.12303 0.0
C3542 C 1.03185 0.7517 0.12532 0.0
C3543 C 1.03851 0.81671 0.12338 0.0
C3544 C 1.04406 0.71917 0.12561 0.0
C3545 C 0.07662 0.71027 0.12391 0.0
C3546 C 0.05127 0.77908 0.12356 0.0
C3547 C 0.0949 0.73887 0.12203 0.0
C3548 C 0.05798 0.84419 0.12463 0.0
C3549 C 0.99479 0.85677 0.12171 0.0
N3550 N 0.08254 0.76995 0.12204 0.0
N3551 N 1.00717 0.82572 0.12201 0.0
H3552 H 0.236 0.29731 0.33774 0.0
H3553 H 0.3565 0.29038 0.26964 0.0
H3554 H 0.29575 0.21867 0.32958 0.0
H3555 H 0.29754 0.36955 0.27791 0.0
H3556 H 0.33469 0.26415 0.29061 0.0
H3557 H 0.25765 0.32367 0.31676 0.0
C3558 C 0.25431 0.28557 0.33196 0.0
C3559 C 0.26457 0.25546 0.33663 0.0
C3560 C 0.32593 0.28712 0.28785 0.0
C3561 C 0.28944 0.28628 0.31076 0.0
C3562 C 0.33833 0.30227 0.27544 0.0
C3563 C 0.32835 0.33249 0.2708 0.0
C3564 C 0.30326 0.30179 0.29666 0.0
C3565 C 0.30583 0.34613 0.28013 0.0
C3566 C 0.2666 0.30079 0.31954 0.0
C3567 C 0.28722 0.242 0.32733 0.0
N3568 N 0.29443 0.33113 0.29206 0.0
N3569 N 0.29851 0.25704 0.31539 0.0
H3570 H 0.05307 0.11744 0.52188 0.0
H3571 H 1.0473 0.98591 0.58551 0.0
H3572 H 0.98261 1.04591 0.52285 0.0
H3573 H 0.12373 0.04977 0.57977 0.0
H3574 H 1.0219 1.00806 0.56436 0.0
H3575 H 0.07701 0.09449 0.543 0.0
C3576 C 1.04255 0.09657 0.52624 0.0
C3577 C 1.01557 0.08383 0.51953 0.0
C3578 C 1.04403 1.0178 0.56773 0.0
C3579 C 1.04351 0.05676 0.54555 0.0
C3580 C 0.05868 1.00519 0.58023 0.0
C3581 C 0.08784 1.01639 0.58562 0.0
C3582 C 0.05814 1.04215 0.55967 0.0
C3583 C 0.10101 1.04046 0.57698 0.0
C3584 C 0.05644 0.08334 0.53868 0.0
C3585 C 1.00355 0.057 0.52681 0.0
N3586 N 0.08643 0.05219 0.56502 0.0
N3587 N 1.01718 1.0449 0.539 0.0
H3588 H 0.36505 0.7948 0.83512 0.0
H3589 H 0.23396 0.80103 0.7713 0.0
H3590 H 0.29393 0.86575 0.83392 0.0
H3591 H 0.29838 0.72497 0.77696 0.0
H3592 H 0.25604 0.82645 0.79244 0.0
H3593 H 0.34238 0.77114 0.81391 0.0
C3594 C 0.34435 0.80551 0.83068 0.0
C3595 C 0.33161 0.83252 0.83736 0.0
C3596 C 0.26594 0.80441 0.78904 0.0
C3597 C 0.30485 0.80488 0.81124 0.0
C3598 C 0.25338 0.78977 0.77655 0.0
C3599 C 0.26475 0.7607 0.77115 0.0
C3600 C 0.29037 0.79035 0.7971 0.0
C3601 C 0.28895 0.74764 0.77976 0.0
C3602 C 0.33126 0.79177 0.8182 0.0
C3603 C 0.30499 0.84477 0.82998 0.0
N3604 N 0.30059 0.76218 0.79173 0.0
N3605 N 0.29302 0.83127 0.81776 0.0
H3606 H 0.55323 0.10931 0.08668 0.0
H3607 H 0.54482 0.98692 1.01932 0.0
H3608 H 0.47351 0.05084 0.07883 0.0
H3609 H 0.62415 1.04597 1.02708 0.0
H3610 H 0.51877 1.00954 1.04015 0.0
H3611 H 0.57913 0.0867 0.06582 0.0
C3612 C 0.54114 0.09109 0.08099 0.0
C3613 C 0.51088 0.0815 0.08573 0.0
C3614 C 0.54173 1.01813 1.03731 0.0
C3615 C 0.5412 0.05544 0.05998 0.0
C3616 C 0.55678 1.00527 1.02497 0.0
C3617 C 0.587 1.015 1.02023 0.0
C3618 C 0.55652 1.04105 1.04595 0.0
C3619 C 0.60073 1.03779 1.02938 0.0
C3620 C 0.55611 0.07823 0.06864 0.0
C3621 C 0.49699 0.05887 0.07654 0.0
N3622 N 0.58586 0.04963 1.04126 0.0
N3623 N 0.51181 1.04701 0.06466 0.0
H3624 H 0.29517 0.72779 0.33106 0.0
H3625 H 0.29819 0.87395 0.27417 0.0
H3626 H 0.35941 0.80427 0.33562 0.0
H3627 H 0.2316 0.79888 0.27249 0.0
H3628 H 0.32115 0.85017 0.29549 0.0
H3629 H 0.27285 0.75334 0.31026 0.0
C3630 C 0.30437 0.75045 0.32808 0.0
C3631 C 0.32886 0.76372 0.33634 0.0
C3632 C 0.30173 0.83842 0.29049 0.0
C3633 C 0.30309 0.79409 0.31055 0.0
C3634 C 0.28848 0.85212 0.27793 0.0
C3635 C 0.26294 0.83849 0.27042 0.0
C3636 C 0.28969 0.81031 0.29651 0.0
C3637 C 0.25157 0.81062 0.27705 0.0
C3638 C 0.29148 0.76518 0.31579 0.0
C3639 C 0.33985 0.7928 0.3306 0.0
N3640 N 0.26474 0.79793 0.28917 0.0
N3641 N 0.32718 0.80646 0.31851 0.0
H3642 H 0.61332 1.04214 0.5862 0.0
H3643 H 0.48126 0.05082 0.52268 0.0
H3644 H 0.54524 0.11579 0.58355 0.0
H3645 H 0.54761 0.97575 0.52606 0.0
H3646 H 0.50383 0.07459 0.54399 0.0
H3647 H 0.59053 1.01826 0.56497 0.0
C3648 C 0.59314 0.05329 0.58152 0.0
C3649 C 0.58118 0.08121 0.58778 0.0
C3650 C 0.51399 0.05308 0.54011 0.0
C3651 C 0.55427 0.0532 0.56171 0.0
C3652 C 0.50099 1.03929 0.52755 0.0
C3653 C 0.51248 1.01094 0.5215 0.0
C3654 C 0.53928 1.03898 0.54758 0.0
C3655 C 0.53762 0.9977 0.52951 0.0
C3656 C 0.58003 1.03946 0.56899 0.0
C3657 C 0.55554 0.0941 0.57997 0.0
N3658 N 0.54975 1.01147 0.54161 0.0
N3659 N 0.5434 0.08037 0.56786 0.0
H3660 H 0.29321 0.23487 0.76937 0.0
H3661 H 0.30629 0.36099 0.83507 0.0
H3662 H 0.37116 0.29724 0.77416 0.0
H3663 H 0.22911 0.29751 0.83073 0.0
H3664 H 0.32967 0.33889 0.81358 0.0
H3665 H 0.26966 0.25715 0.7908 0.0
C3666 C 0.30538 0.25378 0.77454 0.0
C3667 C 0.33449 0.26429 0.76884 0.0
C3668 C 0.30778 0.32923 0.81729 0.0
C3669 C 0.3068 0.2905 0.79514 0.0
C3670 C 0.29425 0.3419 0.82998 0.0
C3671 C 0.26545 0.331 0.83584 0.0
C3672 C 0.2929 0.30501 0.80945 0.0
C3673 C 0.25146 0.30692 0.82746 0.0
C3674 C 0.29176 0.26654 0.7872 0.0
C3675 C 0.34858 0.28817 0.77729 0.0
N3676 N 0.26494 0.29516 0.81523 0.0
N3677 N 0.33499 0.30004 0.78948 0.0
H3678 H 1.0433 0.10907 1.02079 0.0
H3679 H 0.04774 0.97737 0.08434 0.0
H3680 H 0.11971 1.04529 1.02698 0.0
H3681 H 0.97778 0.04949 0.08339 0.0
H3682 H 0.07192 1.00025 0.06328 0.0
H3683 H 1.01742 0.08698 1.04183 0.0
C3684 C 0.05459 0.08984 1.02615 0.0
C3685 C 0.08393 0.07865 1.02095 0.0
C3686 C 0.05139 1.01152 0.06759 0.0
C3687 C 0.05362 0.05293 1.04672 0.0
C3688 C 1.03733 0.99831 0.07997 0.0
C3689 C 1.01041 1.01122 0.08666 0.0
C3690 C 1.0387 1.03829 0.06075 0.0
C3691 C 0.99862 1.03822 0.07942 0.0
C3692 C 1.03966 0.07726 1.03858 0.0
C3693 C 0.09693 0.05462 1.02966 0.0
N3694 N 1.0124 0.05031 0.06728 0.0
N3695 N 0.08206 1.0429 1.04154 0.0
H3696 H 0.79534 0.72113 0.83067 0.0
H3697 H 0.79558 0.87184 0.77656 0.0
H3698 H 0.7344 0.8 0.83626 0.0
H3699 H 0.85693 0.79327 0.77106 0.0
H3700 H 0.77339 0.84658 0.79747 0.0
H3701 H 0.81747 0.74627 0.80971 0.0
C3702 C 0.7869 0.74422 0.82789 0.0
C3703 C 0.76341 0.7583 0.83647 0.0
C3704 C 0.79128 0.83422 0.79168 0.0
C3705 C 0.78899 0.78826 0.81061 0.0
C3706 C 0.80407 0.84876 0.77933 0.0
C3707 C 0.8277 0.83481 0.77079 0.0
C3708 C 0.80206 0.80473 0.79661 0.0
C3709 C 0.83795 0.80526 0.77627 0.0
C3710 C 0.79967 0.7587 0.81552 0.0
C3711 C 0.75325 0.78789 0.831 0.0
N3712 N 0.8253 0.79172 0.78836 0.0
N3713 N 0.76587 0.80137 0.81889 0.0
H3714 H 0.85673 0.29008 0.33742 0.0
H3715 H 0.73523 0.29783 0.26963 0.0
H3716 H 0.7977 0.36937 0.32938 0.0
H3717 H 0.79436 0.21865 0.27774 0.0
H3718 H 0.75735 0.32398 0.29055 0.0
H3719 H 0.8345 0.264 0.31652 0.0
C3720 C 0.83845 0.30202 0.33169 0.0
C3721 C 0.82857 0.33221 0.33638 0.0
C3722 C 0.76606 0.30103 0.28777 0.0
C3723 C 0.80301 0.30171 0.31058 0.0
C3724 C 0.75349 0.28592 0.27539 0.0
C3725 C 0.76342 0.25572 0.27072 0.0
C3726 C 0.78888 0.28632 0.29652 0.0
C3727 C 0.78607 0.24206 0.28 0.0
C3728 C 0.82582 0.28696 0.31931 0.0
C3729 C 0.80592 0.34594 0.32712 0.0
N3730 N 0.79764 0.257 0.2919 0.0
N3731 N 0.7943 0.33104 0.31522 0.0
H3732 H 0.79992 0.37345 0.77614 0.0
H3733 H 0.799 0.22297 0.83042 0.0
H3734 H 0.73854 0.29499 0.7706 0.0
H3735 H 0.86118 0.30085 0.83584 0.0
H3736 H 0.77703 0.24836 0.80949 0.0
H3737 H 0.8219 0.34822 0.79713 0.0
C3738 C 0.79135 0.35043 0.77893 0.0
C3739 C 0.76779 0.33648 0.77035 0.0
C3740 C 0.79506 0.26055 0.81526 0.0
C3741 C 0.79318 0.30644 0.79627 0.0
C3742 C 0.80773 0.24593 0.82763 0.0
C3743 C 0.83155 0.25962 0.83615 0.0
C3744 C 0.80613 0.28989 0.81029 0.0
C3745 C 0.84206 0.28905 0.83064 0.0
C3746 C 0.80403 0.3359 0.79133 0.0
C3747 C 0.75745 0.30698 0.77585 0.0
N3748 N 0.82951 0.30268 0.81854 0.0
N3749 N 0.76998 0.29347 0.78798 0.0
H3750 H 0.80011 0.87502 0.32954 0.0
H3751 H 0.8011 0.72201 0.27668 0.0
H3752 H 0.73887 0.79668 0.33571 0.0
H3753 H 0.86029 0.80168 0.26992 0.0
H3754 H 0.779 0.74781 0.29749 0.0
H3755 H 0.82209 0.8491 0.30875 0.0
C3756 C 0.79151 0.85193 0.32692 0.0
C3757 C 0.76796 0.8383 0.33563 0.0
C3758 C 0.7964 0.76027 0.29145 0.0
C3759 C 0.79349 0.80728 0.30992 0.0
C3760 C 0.80916 0.74538 0.27916 0.0
C3761 C 0.83211 0.75944 0.27027 0.0
C3762 C 0.80658 0.79028 0.29601 0.0
C3763 C 0.84183 0.78949 0.2754 0.0
C3764 C 0.80422 0.83696 0.31464 0.0
C3765 C 0.75773 0.80854 0.33036 0.0
N3766 N 0.82926 0.80333 0.28745 0.0
N3767 N 0.77032 0.79459 0.31833 0.0
H3768 H 0.54549 0.47849 0.08465 0.0
H3769 H 0.55039 0.60945 1.0207 0.0
H3770 H 0.61516 0.55081 0.08377 0.0
H3771 H 0.47417 0.54549 1.02676 0.0
H3772 H 0.57595 0.58777 1.04193 0.0
H3773 H 0.52155 0.50107 0.06345 0.0
C3774 C 0.55588 0.49943 0.08027 0.0
C3775 C 0.58265 0.51247 0.08705 0.0
C3776 C 0.55382 0.57792 1.03862 0.0
C3777 C 0.55462 0.53919 0.06093 0.0
C3778 C 0.53906 0.59028 1.02608 0.0
C3779 C 0.50987 0.57893 1.02076 0.0
C3780 C 0.53985 0.55363 1.04678 0.0
C3781 C 0.49685 0.55497 1.02951 0.0
C3782 C 0.54195 0.51247 0.0678 0.0
C3783 C 0.59442 0.53944 0.07977 0.0
N3784 N 0.51156 0.54345 1.04149 0.0
N3785 N 0.58077 0.55135 0.06754 0.0
H3786 H 0.05123 0.61322 0.58494 0.0
H3787 H 1.04441 0.47968 0.52231 0.0
H3788 H 0.97496 0.5488 0.58012 0.0
H3789 H 0.11252 0.55347 0.52157 0.0
H3790 H 1.02131 0.50279 0.54354 0.0
H3791 H 0.07581 0.59088 0.56366 0.0
C3792 C 1.03975 0.59377 0.57984 0.0
C3793 C 1.01092 0.58246 0.58554 0.0
C3794 C 1.04118 0.5144 0.53882 0.0
C3795 C 1.03961 0.55645 0.55944 0.0
C3796 C 0.05459 0.50105 0.52633 0.0
C3797 C 0.08066 0.5143 0.51911 0.0
C3798 C 0.05373 0.54168 0.54526 0.0
C3799 C 0.09226 0.54189 0.52594 0.0
C3800 C 0.05391 0.58105 0.56727 0.0
C3801 C 0.99752 0.55817 0.57711 0.0
N3802 N 0.07916 0.55408 0.53821 0.0
N3803 N 1.01165 0.54631 0.56508 0.0
H3804 H 0.12069 0.54645 0.08151 0.0
H3805 H 0.97006 0.54677 1.02718 0.0
H3806 H 1.04202 0.60761 0.08719 0.0
H3807 H 0.04862 0.48535 1.02178 0.0
H3808 H 0.99512 0.56873 1.0482 0.0
H3809 H 0.09536 0.52443 0.06058 0.0
C3810 C 0.09763 0.55501 0.07875 0.0
C3811 C 0.08374 0.57859 0.08735 0.0
C3812 C 1.0075 0.55084 1.04243 0.0
C3813 C 0.05349 0.55306 0.06147 0.0
C3814 C 0.99304 0.53813 1.03002 0.0
C3815 C 1.00704 0.51454 1.02145 0.0
C3816 C 1.03697 0.54003 1.04742 0.0
C3817 C 1.03654 0.50425 1.02701 0.0
C3818 C 0.08302 0.54229 0.06638 0.0
C3819 C 0.05408 0.58876 0.08191 0.0
N3820 N 0.04999 0.51682 1.03915 0.0
N3821 N 1.0405 0.5762 0.06979 0.0
H3822 H 0.54928 0.48611 0.58867 0.0
H3823 H 0.54369 0.60687 0.52054 0.0
H3824 H 0.47028 0.54509 0.58 0.0
H3825 H 0.6221 0.54689 0.52889 0.0
H3826 H 0.51702 0.58517 0.54143 0.0
H3827 H 0.57596 0.5079 0.56781 0.0
C3828 C 0.53753 0.50431 0.58282 0.0
C3829 C 0.50721 0.51432 0.58732 0.0
C3830 C 0.53991 0.57618 0.53871 0.0
C3831 C 0.53846 0.53937 0.56157 0.0
C3832 C 0.55532 0.58851 0.52635 0.0
C3833 C 0.58547 0.5782 0.52175 0.0
C3834 C 0.55424 0.55324 0.54752 0.0
C3835 C 0.59876 0.55547 0.53108 0.0
C3836 C 0.55294 0.51668 0.57046 0.0
C3837 C 0.49377 0.5368 0.5779 0.0
N3838 N 0.58353 0.54413 0.54297 0.0
N3839 N 0.50901 0.54819 0.56603 0.0
H3840 H 0.27189 0.15875 0.42387 0.0
H3841 H 0.43905 0.05438 0.43701 0.0
H3842 H 0.33862 0.14473 0.39125 0.0
H3843 H 0.36606 0.05492 0.46749 0.0
H3844 H 0.40603 0.08737 0.42164 0.0
H3845 H 0.30457 0.12542 0.43943 0.0
C3846 C 0.29319 0.14906 0.41955 0.0
C3847 C 0.30015 0.15668 0.40512 0.0
C3848 C 0.39656 0.08083 0.43167 0.0
C3849 C 0.34198 0.11463 0.42485 0.0
C3850 C 0.41642 0.06125 0.44098 0.0
C3851 C 0.40794 0.04985 0.45474 0.0
C3852 C 0.3655 0.09175 0.43517 0.0
C3853 C 0.37618 0.06129 0.45756 0.0
C3854 C 0.31271 0.12912 0.42889 0.0
C3855 C 0.32987 0.14135 0.4017 0.0
N3856 N 0.35768 0.0805 0.44844 0.0
N3857 N 0.34827 0.12246 0.41096 0.0
H3858 H 0.26213 0.1949 0.69585 0.0
H3859 H 0.23116 1.02304 0.65369 0.0
H3860 H 0.32068 0.11553 0.70398 0.0
H3861 H 0.15875 0.09207 0.65678 0.0
H3862 H 0.26456 0.05566 0.66919 0.0
H3863 H 0.22864 0.16156 0.68077 0.0
C3864 C 0.26886 0.1706 0.69472 0.0
C3865 C 0.29654 0.16034 0.7023 0.0
C3866 C 0.24143 0.06436 0.66666 0.0
C3867 C 0.25443 0.11793 0.68289 0.0
C3868 C 0.22137 1.0449 0.65736 0.0
C3869 C 0.18964 0.05242 0.65292 0.0
C3870 C 0.23218 0.09431 0.67238 0.0
C3871 C 0.18168 0.08271 0.65915 0.0
C3872 C 0.24871 0.1507 0.68568 0.0
C3873 C 0.30084 0.12702 0.69917 0.0
N3874 N 0.20172 0.1012 0.66785 0.0
N3875 N 0.28134 0.10857 0.69019 0.0
H3876 H 0.22543 0.07265 0.9523 0.0
H3877 H 0.25409 0.90248 0.90827 0.0
H3878 H 0.15437 1.00214 0.95007 0.0
H3879 H 0.31803 0.97904 0.90386 0.0
H3880 H 0.22098 0.93542 0.92363 0.0
H3881 H 0.25897 1.0402 0.93681 0.0
C3882 C 0.2159 0.05056 0.94878 0.0
C3883 C 0.18443 1.04264 0.95341 0.0
C3884 C 0.2422 0.94572 0.9195 0.0
C3885 C 0.22707 1.00107 0.93388 0.0
C3886 C 0.26223 0.92599 0.91036 0.0
C3887 C 0.29137 0.93557 0.90377 0.0
C3888 C 0.24931 0.97767 0.9233 0.0
C3889 C 0.29705 0.96812 0.90788 0.0
C3890 C 0.23605 1.03121 0.93948 0.0
C3891 C 0.17687 1.01203 0.94741 0.0
N3892 N 0.27746 0.98646 0.91687 0.0
N3893 N 0.19691 0.99376 0.93862 0.0
H3894 H 0.34142 0.90601 0.19914 0.0
H3895 H 0.367 0.07508 0.15373 0.0
H3896 H 0.27571 0.98133 0.2027 0.0
H3897 H 0.43946 1.00605 0.15674 0.0
H3898 H 0.33394 1.04255 0.16945 0.0
H3899 H 0.37399 0.93902 0.18358 0.0
C3900 C 0.33277 0.92923 0.19682 0.0
C3901 C 0.30333 0.93844 0.20325 0.0
C3902 C 0.35706 1.0339 0.16689 0.0
C3903 C 0.34472 0.98067 0.18347 0.0
C3904 C 0.37691 0.05329 0.15746 0.0
C3905 C 0.40858 1.04578 0.15296 0.0
C3906 C 0.36657 1.00413 0.17274 0.0
C3907 C 0.41669 1.01556 0.15925 0.0
C3908 C 0.35249 0.94902 0.18755 0.0
C3909 C 0.297 0.9707 0.19884 0.0
N3910 N 0.39694 0.99724 0.16813 0.0
N3911 N 0.31629 0.98911 0.18975 0.0
H3912 H 0.8201 0.98144 0.70486 0.0
H3913 H 0.65415 1.00313 0.65694 0.0
H3914 H 0.75525 0.90609 0.69915 0.0
H3915 H 0.72617 0.07281 0.65591 0.0
H3916 H 0.68741 0.97081 0.6725 0.0
H3917 H 0.78734 1.01448 0.6892 0.0
C3918 C 0.79918 0.97091 0.70055 0.0
C3919 C 0.79284 0.93852 0.7043 0.0
C3920 C 0.69659 0.99316 0.66911 0.0
C3921 C 0.75097 0.98038 0.68459 0.0
C3922 C 0.67662 1.01275 0.65988 0.0
C3923 C 0.68481 1.04323 0.65419 0.0
C3924 C 0.7274 1.00209 0.67388 0.0
C3925 C 0.71633 0.05069 0.65922 0.0
C3926 C 0.77966 0.99074 0.69116 0.0
C3927 C 0.76371 0.92958 0.6973 0.0
N3928 N 0.73494 1.03147 0.66826 0.0
N3929 N 0.74522 0.9493 0.68847 0.0
H3930 H 0.93544 0.04953 0.43408 0.0
H3931 H 0.78599 0.9209 0.42376 0.0
H3932 H 0.8721 1.03153 0.46763 0.0
H3933 H 0.82886 0.96484 0.38858 0.0
H3934 H 0.81821 0.95446 0.43935 0.0
H3935 H 0.90238 1.01674 0.41864 0.0
C3936 C 0.91499 1.03883 0.43868 0.0
C3937 C 0.90906 1.04544 0.45329 0.0
C3938 C 0.82105 0.95744 0.42824 0.0
C3939 C 0.86691 1.00342 0.43374 0.0
C3940 C 0.80181 0.93737 0.41887 0.0
C3941 C 0.80199 0.9382 0.40373 0.0
C3942 C 0.84367 0.98027 0.42346 0.0
C3943 C 0.82514 0.96175 0.39961 0.0
C3944 C 0.89509 1.01936 0.42936 0.0
C3945 C 0.88 1.02918 0.45699 0.0
N3946 N 0.84383 0.98026 0.40887 0.0
N3947 N 0.86163 1.00998 0.44785 0.0
H3948 H 0.86107 1.02358 0.15143 0.0
H3949 H 0.83866 0.188 0.2002 0.0
H3950 H 0.93683 0.08745 0.15819 0.0
H3951 H 0.76911 0.1158 0.2006 0.0
H3952 H 0.87138 0.15513 0.18464 0.0
H3953 H 0.82779 0.05598 0.1671 0.0
C3954 C 0.87163 1.04422 0.15597 0.0
C3955 C 0.9042 0.05045 0.1525 0.0
C3956 C 0.84899 0.14583 0.18791 0.0
C3957 C 0.86205 0.09185 0.17222 0.0
C3958 C 0.8292 0.16554 0.19715 0.0
C3959 C 0.79865 0.1571 0.20269 0.0
C3960 C 0.84017 0.11514 0.18295 0.0
C3961 C 0.79129 0.12576 0.19744 0.0
C3962 C 0.85166 0.06352 0.16536 0.0
C3963 C 0.91317 0.07919 0.15978 0.0
N3964 N 0.81069 0.10744 0.18839 0.0
N3965 N 0.89331 0.09749 0.1686 0.0
H3966 H 0.65702 0.08783 0.94899 0.0
H3967 H 0.82489 0.11234 0.90256 0.0
H3968 H 0.73184 1.02142 0.95213 0.0
H3969 H 0.75848 0.18668 0.9074 0.0
H3970 H 0.7923 0.07922 0.91823 0.0
H3971 H 0.69016 0.12048 0.9335 0.0
C3972 C 0.68017 0.07905 0.9466 0.0
C3973 C 0.68918 0.04938 0.9529 0.0
C3974 C 0.78422 0.10275 0.91608 0.0
C3975 C 0.73155 0.09085 0.93314 0.0
C3976 C 0.80366 0.12265 0.90667 0.0
C3977 C 0.7969 0.15485 0.90266 0.0
C3978 C 0.7551 0.11273 0.92242 0.0
C3979 C 0.76735 0.16341 0.90945 0.0
C3980 C 0.70003 0.0988 0.93736 0.0
C3981 C 0.72134 1.04287 0.94837 0.0
N3982 N 0.74893 0.14361 0.91828 0.0
N3983 N 0.73979 0.06218 0.93929 0.0
H3984 H 0.77007 0.61384 0.904 0.0
H3985 H 0.93905 0.58772 0.94947 0.0
H3986 H 0.83839 0.68674 0.90756 0.0
H3987 H 0.86329 0.52266 0.95333 0.0
H3988 H 0.90603 0.62048 0.93395 0.0
H3989 H 0.80259 0.58067 0.9197 0.0
C3990 C 0.79171 0.62382 0.90784 0.0
C3991 C 0.79902 0.65564 0.90349 0.0
C3992 C 0.89593 0.59909 0.93798 0.0
C3993 C 0.84071 0.61348 0.92325 0.0
C3994 C 0.91572 0.57927 0.94723 0.0
C3995 C 0.90638 0.54994 0.95373 0.0
C3996 C 0.86418 0.59153 0.93397 0.0
C3997 C 0.87402 0.54384 0.9494 0.0
C3998 C 0.8111 0.6039 0.91726 0.0
C3999 C 0.82906 0.66382 0.90992 0.0
N4000 N 0.85564 0.5632 0.94031 0.0
N4001 N 0.84741 0.64399 0.91878 0.0
H4002 H 0.73166 0.52488 0.15227 0.0
H4003 H 0.75502 0.68998 0.20056 0.0
H4004 H 0.6562 0.5893 0.15877 0.0
H4005 H 0.82368 0.61691 0.20164 0.0
H4006 H 0.72222 0.65715 0.18503 0.0
H4007 H 0.76501 0.5572 0.16793 0.0
C4008 C 0.72115 0.54562 0.15675 0.0
C4009 C 0.68861 0.55196 0.1532 0.0
C4010 C 0.74442 0.64762 0.18845 0.0
C4011 C 0.73094 0.59337 0.17294 0.0
C4012 C 0.76427 0.66731 0.19769 0.0
C4013 C 0.79459 0.65863 0.20344 0.0
C4014 C 0.75293 0.61667 0.18367 0.0
C4015 C 0.80165 0.62705 0.19836 0.0
C4016 C 0.74119 0.56489 0.16615 0.0
C4017 C 0.67979 0.58086 0.16043 0.0
N4018 N 0.78222 0.60876 0.18929 0.0
N4019 N 0.69971 0.59914 0.16925 0.0
H4020 H 0.82181 0.47711 0.40411 0.0
H4021 H 0.65278 0.50364 0.4496 0.0
H4022 H 0.75307 0.40458 0.40752 0.0
H4023 H 0.72831 0.56905 0.45302 0.0
H4024 H 0.68572 0.47078 0.43413 0.0
H4025 H 0.78931 0.51038 0.41973 0.0
C4026 C 0.8001 0.4672 0.4079 0.0
C4027 C 0.79271 0.4354 0.40353 0.0
C4028 C 0.69579 0.49228 0.43804 0.0
C4029 C 0.75099 0.47778 0.42324 0.0
C4030 C 0.67602 0.51219 0.44726 0.0
C4031 C 0.68527 0.5417 0.45363 0.0
C4032 C 0.72749 0.49984 0.43393 0.0
C4033 C 0.71759 0.54779 0.4492 0.0
C4034 C 0.7807 0.48721 0.41729 0.0
C4035 C 0.76255 0.4274 0.40992 0.0
N4036 N 0.73596 0.52832 0.44016 0.0
N4037 N 0.74422 0.4473 0.41875 0.0
H4038 H 0.77518 0.4817 0.70356 0.0
H4039 H 0.94122 0.50583 0.65589 0.0
H4040 H 0.84109 0.40715 0.69805 0.0
H4041 H 0.86763 0.57387 0.6544 0.0
H4042 H 0.90847 0.47305 0.67146 0.0
H4043 H 0.8075 0.51502 0.68788 0.0
C4044 C 0.79625 0.47139 0.69929 0.0
C4045 C 0.803 0.4391 0.70313 0.0
C4046 C 0.89881 0.49512 0.66796 0.0
C4047 C 0.84441 0.48142 0.68336 0.0
C4048 C 0.91849 0.515 0.65871 0.0
C4049 C 0.90969 0.54519 0.65285 0.0
C4050 C 0.86771 0.50343 0.67262 0.0
C4051 C 0.87793 0.55202 0.6578 0.0
C4052 C 0.81552 0.49141 0.68988 0.0
C4053 C 0.83231 0.43051 0.69616 0.0
N4054 N 0.85964 0.53256 0.66687 0.0
N4055 N 0.85056 0.45042 0.68731 0.0
H4056 H 0.32135 0.4774 0.20319 0.0
H4057 H 0.14934 0.50889 0.16092 0.0
H4058 H 0.25175 0.40556 0.20032 0.0
H4059 H 0.22851 0.56804 0.15344 0.0
H4060 H 0.18264 0.4752 0.17599 0.0
H4061 H 0.28869 0.511 0.18775 0.0
C4062 C 0.29936 0.46777 0.19958 0.0
C4063 C 0.2917 0.43612 0.20405 0.0
C4064 C 0.19346 0.49545 0.17122 0.0
C4065 C 0.24978 0.47889 0.18465 0.0
C4066 C 0.17358 0.51572 0.1622 0.0
C4067 C 0.18382 0.54365 0.15482 0.0
C4068 C 0.22616 0.50127 0.17418 0.0
C4069 C 0.21706 0.54803 0.15811 0.0
C4070 C 0.27988 0.48795 0.19031 0.0
C4071 C 0.26125 0.42839 0.1979 0.0
N4072 N 0.23549 0.52839 0.16705 0.0
N4073 N 0.24277 0.44852 0.18922 0.0
H4074 H 0.37149 0.57328 0.95018 0.0
H4075 H 0.3415 0.40146 0.90758 0.0
H4076 H 0.44108 0.50109 0.94959 0.0
H4077 H 0.27983 0.47933 0.90145 0.0
H4078 H 0.3744 0.4344 0.92301 0.0
H4079 H 0.33824 0.54084 0.93458 0.0
C4080 C 0.38074 0.55079 0.94702 0.0
C4081 C 0.41168 0.54237 0.9522 0.0
C4082 C 0.35375 0.44502 0.91849 0.0
C4083 C 0.36935 0.50079 0.93248 0.0
C4084 C 0.33383 0.42529 0.90929 0.0
C4085 C 0.30537 0.43518 0.90218 0.0
C4086 C 0.34722 0.47735 0.92184 0.0
C4087 C 0.30027 0.46811 0.90586 0.0
C4088 C 0.36075 0.53144 0.93765 0.0
C4089 C 0.41893 0.51131 0.94657 0.0
N4090 N 0.31971 0.48646 0.91492 0.0
N4091 N 0.39904 0.49306 0.9377 0.0
H4092 H 0.4388 0.58928 0.65825 0.0
H4093 H 0.27072 0.61513 0.70421 0.0
H4094 H 0.36339 0.52364 0.65502 0.0
H4095 H 0.33813 0.68866 0.69981 0.0
H4096 H 0.30318 0.58184 0.68858 0.0
H4097 H 0.40584 0.6222 0.6737 0.0
C4098 C 0.41554 0.58077 0.6606 0.0
C4099 C 0.40622 0.55128 0.65428 0.0
C4100 C 0.31149 0.60523 0.69082 0.0
C4101 C 0.3642 0.59296 0.67396 0.0
C4102 C 0.29215 0.62521 0.7002 0.0
C4103 C 0.29927 0.65721 0.70429 0.0
C4104 C 0.34082 0.61496 0.68463 0.0
C4105 C 0.32902 0.66555 0.69766 0.0
C4106 C 0.39581 0.60066 0.66981 0.0
C4107 C 0.37403 0.54501 0.65877 0.0
N4108 N 0.34735 0.64566 0.68885 0.0
N4109 N 0.35571 0.56443 0.66782 0.0
H4110 H 0.1648 0.54466 0.43349 0.0
H4111 H 0.30484 0.68343 0.42372 0.0
H4112 H 0.22174 0.57122 0.46817 0.0
H4113 H 0.27416 0.62922 0.38889 0.0
H4114 H 0.27264 0.64975 0.43926 0.0
H4115 H 0.1979 0.57762 0.41812 0.0
C4116 C 0.18383 0.55727 0.43835 0.0
C4117 C 0.18802 0.55289 0.45325 0.0
C4118 C 0.27246 0.64455 0.42824 0.0
C4119 C 0.23009 0.59531 0.43377 0.0
C4120 C 0.29164 0.66476 0.41889 0.0
C4121 C 0.29477 0.6613 0.40389 0.0
C4122 C 0.25319 0.61878 0.42353 0.0
C4123 C 0.27505 0.63474 0.39985 0.0
C4124 C 0.20375 0.57686 0.42907 0.0
C4125 C 0.21531 0.57164 0.45729 0.0
N4126 N 0.25622 0.61616 0.40905 0.0
N4127 N 0.23365 0.59094 0.44816 0.0
H4128 H 0.34663 1.0311 0.34666 0.0
H4129 H 0.34397 0.06382 0.26717 0.0
H4130 H 0.35253 0.12296 0.32801 0.0
H4131 H 0.32509 0.97553 0.28753 0.0
H4132 H 0.37071 0.08159 0.28819 0.0
H4133 H 0.36351 1.00817 0.32483 0.0
C4134 C 0.35235 1.04665 0.33813 0.0
C4135 C 0.3468 0.079 0.33903 0.0
C4136 C 0.36157 0.05794 0.28784 0.0
C4137 C 0.36504 0.05257 0.31377 0.0
C4138 C 0.34607 0.04781 0.27586 0.0
C4139 C 0.33053 1.01877 0.27578 0.0
C4140 C 0.36156 1.0388 0.29973 0.0
C4141 C 0.33573 0.99847 0.28708 0.0
C4142 C 0.36187 1.03343 0.32558 0.0
C4143 C 0.35498 0.09775 0.32758 0.0
N4144 N 0.35003 1.0092 0.29872 0.0
N4145 N 0.36278 0.0842 0.31528 0.0
H4146 H 0.22703 0.11408 0.55444 0.0
H4147 H 0.40742 0.09724 0.56689 0.0
H4148 H 0.2725 0.07578 0.59088 0.0
H4149 H 0.35674 0.08771 0.52805 0.0
H4150 H 0.36123 0.12175 0.57694 0.0
H4151 H 0.27701 0.13697 0.54742 0.0
C4152 C 0.24712 0.11111 0.56119 0.0
C4153 C 0.24579 0.09111 0.57281 0.0
C4154 C 0.36093 0.11512 0.56606 0.0
C4155 C 0.30259 0.11825 0.56506 0.0
C4156 C 0.38711 0.10035 0.56032 0.0
C4157 C 0.38559 0.08719 0.54687 0.0
C4158 C 0.33343 0.11762 0.55817 0.0
C4159 C 0.35937 0.09535 0.53866 0.0
C4160 C 0.27555 0.12461 0.55725 0.0
C4161 C 0.27221 0.08998 0.58157 0.0
N4162 N 0.33413 0.10923 0.54456 0.0
N4163 N 0.29975 0.10256 0.57731 0.0
H4164 H 0.26666 0.09404 0.77089 0.0
H4165 H 0.23659 0.95776 0.7985 0.0
H4166 H 0.2389 0.13991 0.80915 0.0
H4167 H 0.27292 1.00991 0.83355 0.0
H4168 H 0.21369 1.00626 0.78954 0.0
H4169 H 0.24341 1.04678 0.77896 0.0
C4170 C 0.25493 0.09506 0.78082 0.0
C4171 C 0.2568 0.12146 0.78961 0.0
C4172 C 0.22603 1.00666 0.79939 0.0
C4173 C 0.23045 0.06544 0.79916 0.0
C4174 C 0.23941 0.97904 0.80447 0.0
C4175 C 0.2584 0.9797 0.81645 0.0
C4176 C 0.23167 1.03498 0.80637 0.0
C4177 C 0.25932 1.00777 0.82413 0.0
C4178 C 0.24131 0.06739 0.78545 0.0
C4179 C 0.2404 0.11989 0.80231 0.0
N4180 N 0.24681 1.03434 0.81879 0.0
N4181 N 0.22921 0.09198 0.80698 0.0
H4182 H 0.28619 0.96387 1.0085 0.0
H4183 H 0.33499 1.0193 0.08232 0.0
H4184 H 0.23761 1.02633 1.03669 0.0
H4185 H 0.39923 0.9894 1.05028 0.0
H4186 H 0.29319 0.99141 0.07061 0.0
H4187 H 0.31874 0.94659 1.02791 0.0
C4188 C 0.2818 0.97376 1.01867 0.0
C4189 C 0.26024 0.99845 1.02052 0.0
C4190 C 0.31669 0.98997 0.06639 0.0
C4191 C 0.29624 0.97699 1.04293 0.0
C4192 C 0.3408 1.00583 0.07314 0.0
C4193 C 0.37038 1.00826 0.06683 0.0
C4194 C 0.3221 0.97733 1.05313 0.0
C4195 C 0.37627 0.98965 0.05507 0.0
C4196 C 0.30011 0.96328 1.0298 0.0
C4197 C 0.25425 1.00811 1.03428 0.0
N4198 N 0.35202 0.97591 1.04826 0.0
N4199 N 0.27258 0.99784 1.04483 0.0
H4200 H 0.73809 0.95734 0.80899 0.0
H4201 H 0.73828 0.13836 0.79857 0.0
H4202 H 0.76139 1.00892 0.77167 0.0
H4203 H 0.7628 0.08664 0.83571 0.0
H4204 H 0.71233 0.09159 0.78963 0.0
H4205 H 0.71268 1.00426 0.81812 0.0
C4206 C 0.73724 0.97808 0.80251 0.0
C4207 C 0.75413 0.97965 0.78996 0.0
C4208 C 0.72231 0.09108 0.8 0.0
C4209 C 0.72385 1.03278 0.80013 0.0
C4210 C 0.73761 0.11763 0.80506 0.0
C4211 C 0.75498 0.11597 0.81749 0.0
C4212 C 0.72407 0.063 0.80754 0.0
C4213 C 0.75106 0.08911 0.82581 0.0
C4214 C 0.72226 1.00471 0.80768 0.0
C4215 C 0.75002 1.00652 0.78166 0.0
N4216 N 0.7368 0.0634 0.82051 0.0
N4217 N 0.73608 1.03232 0.78707 0.0
H4218 H 0.75521 1.01762 0.58751 0.0
H4219 H 0.89314 0.98899 0.56108 0.0
H4220 H 0.71125 0.98681 0.54926 0.0
H4221 H 0.84096 1.022 0.52532 0.0
H4222 H 0.84491 0.96564 0.57006 0.0
H4223 H 0.80328 0.99487 0.58005 0.0
C4224 C 0.75481 1.00528 0.57772 0.0
C4225 C 0.72868 1.00607 0.56872 0.0
C4226 C 0.84449 0.97736 0.56007 0.0
C4227 C 0.78557 0.98037 0.55987 0.0
C4228 C 0.87194 0.99102 0.55496 0.0
C4229 C 0.87117 1.00924 0.54275 0.0
C4230 C 0.81623 0.98189 0.55286 0.0
C4231 C 0.84324 1.00905 0.53492 0.0
C4232 C 0.78293 0.99197 0.57344 0.0
C4233 C 0.73101 0.98904 0.55622 0.0
N4234 N 0.81685 0.99626 0.54026 0.0
N4235 N 0.75932 0.97815 0.55189 0.0
H4236 H 0.85206 0.97371 0.32647 0.0
H4237 H 0.85174 0.12489 0.27884 0.0
H4238 H 0.83576 0.06822 0.34069 0.0
H4239 H 0.83809 1.03035 0.2642 0.0
H4240 H 0.86837 0.10411 0.30137 0.0
H4241 H 0.86912 0.99453 0.30402 0.0
C4242 C 0.85266 0.99884 0.32498 0.0
C4243 C 0.84139 1.0192 0.33531 0.0
C4244 C 0.86252 0.08794 0.2931 0.0
C4245 C 0.86126 1.04305 0.30978 0.0
C4246 C 0.85291 0.09975 0.28027 0.0
C4247 C 0.84249 0.07932 0.26981 0.0
C4248 C 0.8616 0.05552 0.29545 0.0
C4249 C 0.84549 1.04698 0.27204 0.0
C4250 C 0.86258 1.01068 0.3122 0.0
C4251 C 0.84383 0.05157 0.333 0.0
N4252 N 0.8541 1.03605 0.28474 0.0
N4253 N 0.85288 0.06248 0.32037 0.0
H4254 H 0.8512 0.08664 0.08009 0.0
H4255 H 0.77049 0.07497 1.01547 0.0
H4256 H 0.90274 0.0991 1.04166 0.0
H4257 H 0.72344 0.11274 1.05157 0.0
H4258 H 0.8181 0.10031 1.02271 0.0
H4259 H 0.80774 0.11342 0.07004 0.0
C4260 C 0.85424 0.09535 0.06964 0.0
C4261 C 0.88062 0.08781 0.06145 0.0
C4262 C 0.79719 0.10401 1.02887 0.0
C4263 C 0.82889 0.11787 1.04959 0.0
C4264 C 0.76956 0.08946 1.02469 0.0
C4265 C 0.74301 0.08996 1.03337 0.0
C4266 C 0.79863 0.11804 1.04204 0.0
C4267 C 0.74384 0.10982 1.04502 0.0
C4268 C 0.82878 0.11095 0.06384 0.0
C4269 C 0.88214 0.10146 1.0481 0.0
N4270 N 0.77157 0.12203 1.04934 0.0
N4271 N 0.85611 0.11452 1.04235 0.0
H4272 H 0.83124 0.58551 0.8365 0.0
H4273 H 0.83332 0.51102 0.77042 0.0
H4274 H 0.8547 0.63844 0.79961 0.0
H4275 H 0.85781 0.45888 0.80743 0.0
H4276 H 0.85999 0.55597 0.77968 0.0
H4277 H 0.85964 0.54146 0.82737 0.0
C4278 C 0.84316 0.58855 0.82667 0.0
C4279 C 0.83854 0.6154 0.81842 0.0
C4280 C 0.86045 0.53448 0.78567 0.0
C4281 C 0.87006 0.56373 0.80755 0.0
C4282 C 0.84513 0.50836 0.78031 0.0
C4283 C 0.84123 0.48139 0.78855 0.0
C4284 C 0.87071 0.53407 0.79955 0.0
C4285 C 0.85807 0.47987 0.80112 0.0
C4286 C 0.85949 0.56295 0.82138 0.0
C4287 C 0.85555 0.61746 0.80591 0.0
N4288 N 0.87089 0.5063 0.80654 0.0
N4289 N 0.86941 0.59149 0.80056 0.0
H4290 H 0.87272 0.61189 1.05308 0.0
H4291 H 0.69152 0.59961 1.0419 0.0
H4292 H 0.82515 0.57581 1.01676 0.0
H4293 H 0.74368 0.58637 0.08013 0.0
H4294 H 0.7379 0.62361 1.03168 0.0
H4295 H 0.82352 0.63574 0.06057 0.0
C4296 C 0.85234 0.60963 1.04645 0.0
C4297 C 0.85279 0.58991 1.03474 0.0
C4298 C 0.73849 0.61638 1.04249 0.0
C4299 C 0.79692 0.61813 1.04302 0.0
C4300 C 0.7122 0.60196 1.04831 0.0
C4301 C 0.71397 0.58813 0.06162 0.0
C4302 C 0.76637 0.61778 1.05016 0.0
C4303 C 0.74078 0.59495 0.06966 0.0
C4304 C 0.82437 0.62367 1.05066 0.0
C4305 C 0.82607 0.58972 1.02614 0.0
N4306 N 0.76609 0.60853 0.06368 0.0
N4307 N 0.79897 0.60279 1.03067 0.0
H4308 H 0.76313 0.50835 0.33692 0.0
H4309 H 0.76724 0.58335 0.27053 0.0
H4310 H 0.73765 0.4578 0.29967 0.0
H4311 H 0.74881 0.63649 0.30788 0.0
H4312 H 0.73706 0.54061 0.27984 0.0
H4313 H 0.73787 0.55427 0.32778 0.0
C4314 C 0.75139 0.50627 0.32699 0.0
C4315 C 0.7547 0.47942 0.31864 0.0
C4316 C 0.73871 0.56191 0.28591 0.0
C4317 C 0.72695 0.5332 0.30777 0.0
C4318 C 0.75607 0.58672 0.28052 0.0
C4319 C 0.76248 0.6131 0.28879 0.0
C4320 C 0.7289 0.56294 0.29984 0.0
C4321 C 0.74645 0.61575 0.30151 0.0
C4322 C 0.7369 0.53296 0.32169 0.0
C4323 C 0.73791 0.47865 0.30605 0.0
N4324 N 0.73147 0.59045 0.30692 0.0
N4325 N 0.72596 0.50558 0.30069 0.0
H4326 H 0.73492 0.52086 0.53723 0.0
H4327 H 0.90203 0.4885 0.55035 0.0
H4328 H 0.78929 0.46322 0.50907 0.0
H4329 H 0.83666 0.51841 0.5819 0.0
H4330 H 0.85956 0.46112 0.53855 0.0
H4331 H 0.76531 0.50162 0.55618 0.0
C4332 C 0.75274 0.50383 0.53477 0.0
C4333 C 0.76065 0.49587 0.52098 0.0
C4334 C 0.85469 0.47265 0.54835 0.0
C4335 C 0.79735 0.47485 0.54324 0.0
C4336 C 0.87898 0.48845 0.55507 0.0
C4337 C 0.87251 0.50741 0.56665 0.0
C4338 C 0.82385 0.47639 0.55319 0.0
C4339 C 0.84266 0.50514 0.5727 0.0
C4340 C 0.77047 0.49276 0.54587 0.0
C4341 C 0.7838 0.47262 0.51921 0.0
N4342 N 0.81917 0.49088 0.56564 0.0
N4343 N 0.80226 0.46401 0.5301 0.0
H4344 H 0.27478 0.61404 0.31882 0.0
H4345 H 0.2342 0.44853 0.30549 0.0
H4346 H 0.21595 0.56111 0.34696 0.0
H4347 H 0.26941 0.51231 0.27436 0.0
H4348 H 0.20852 0.49236 0.31705 0.0
H4349 H 0.25372 0.58503 0.2997 0.0
C4350 C 0.25691 0.59693 0.32116 0.0
C4351 C 0.24898 0.58884 0.33492 0.0
C4352 C 0.22087 0.49666 0.30739 0.0
C4353 C 0.22601 0.55372 0.31264 0.0
C4354 C 0.23568 0.47157 0.30081 0.0
C4355 C 0.25556 0.47704 0.28943 0.0
C4356 C 0.22659 0.52727 0.30264 0.0
C4357 C 0.25532 0.50702 0.28342 0.0
C4358 C 0.24488 0.57998 0.31003 0.0
C4359 C 0.22491 0.56663 0.33673 0.0
N4360 N 0.24201 0.53122 0.29037 0.0
N4361 N 0.21529 0.54889 0.32581 0.0
H4362 H 0.37621 0.49263 1.03087 0.0
H4363 H 0.22925 0.53655 0.06807 0.0
H4364 H 0.28695 0.49703 1.00978 0.0
H4365 H 0.29718 0.48062 0.09069 0.0
H4366 H 0.2486 0.51575 1.04682 0.0
H4367 H 0.34876 0.4809 1.05261 0.0
C4368 C 0.35095 0.49031 1.03071 0.0
C4369 C 0.33378 0.49708 1.01859 0.0
C4370 C 0.25893 0.50744 0.05644 0.0
C4371 C 0.30249 0.48346 1.04329 0.0
C4372 C 0.2476 0.51925 0.06887 0.0
C4373 C 0.26148 0.51092 0.08166 0.0
C4374 C 0.28545 0.48822 0.05648 0.0
C4375 C 0.28623 0.48899 0.08126 0.0
C4376 C 0.33535 0.48329 1.0431 0.0
C4377 C 0.30123 0.49258 1.01887 0.0
N4378 N 0.29808 0.47915 0.06885 0.0
N4379 N 0.28659 0.48688 1.03111 0.0
H4380 H 0.36323 0.62185 0.80343 0.0
H4381 H 0.35053 0.44109 0.79024 0.0
H4382 H 0.32529 0.57672 0.76686 0.0
H4383 H 0.33907 0.49041 0.82931 0.0
H4384 H 0.37319 0.48843 0.78038 0.0
H4385 H 0.3865 0.57191 0.81031 0.0
C4386 C 0.36039 0.60186 0.79663 0.0
C4387 C 0.34044 0.60328 0.78499 0.0
C4388 C 0.36656 0.4882 0.79126 0.0
C4389 C 0.36809 0.54656 0.79257 0.0
C4390 C 0.35286 0.46132 0.7969 0.0
C4391 C 0.33982 0.46195 0.81039 0.0
C4392 C 0.36814 0.51552 0.79929 0.0
C4393 C 0.34684 0.48831 0.81869 0.0
C4394 C 0.37411 0.57347 0.80049 0.0
C4395 C 0.33948 0.57697 0.77617 0.0
N4396 N 0.35974 0.51419 0.81289 0.0
N4397 N 0.35233 0.54948 0.78035 0.0
H4398 H 0.18402 0.60182 0.56555 0.0
H4399 H 0.31911 0.57208 0.59311 0.0
H4400 H 0.24122 0.58437 0.52917 0.0
H4401 H 0.36536 0.61032 0.5569 0.0
H4402 H 0.27158 0.59802 0.58633 0.0
H4403 H 0.22947 0.62563 0.57675 0.0
C4404 C 0.20573 0.60316 0.55978 0.0
C4405 C 0.20897 0.58853 0.54672 0.0
C4406 C 0.29232 0.60202 0.5801 0.0
C4407 C 0.26072 0.61662 0.55939 0.0
C4408 C 0.31989 0.58695 0.584 0.0
C4409 C 0.34616 0.58745 0.57516 0.0
C4410 C 0.29067 0.6168 0.56707 0.0
C4411 C 0.34518 0.60759 0.5636 0.0
C4412 C 0.23161 0.61713 0.56618 0.0
C4413 C 0.23714 0.59378 0.53942 0.0
N4414 N 0.3175 0.62043 0.55957 0.0
N4415 N 0.26203 0.60664 0.546 0.0
loop_
_geom_bond_atom_site_label_1
_geom_bond_atom_site_label_2
_geom_bond_distance
_geom_bond_site_symmetry_2
_ccdc_geom_bond_type
Tb0 N31 2.660 . S
Tb0 N38 2.600 . S
Tb0 O44 2.546 . S
Tb0 O45 2.610 . S
Tb0 O47 2.320 . S
Tb0 O48 2.552 . S
Tb0 O49 2.413 . S
Tb0 O51 2.362 . S
Tb0 O52 2.421 . S
Tb0 C64 2.833 . S
C1 C4 1.432 . S
C1 C5 1.414 . S
C1 N8 1.359 . S
C2 C4 1.417 . S
C2 C6 1.432 . S
C2 C14 1.410 . S
C3 C5 1.444 . S
C3 C6 1.317 . S
C3 H26 0.929 . S
C4 C1 1.432 . S
C4 C2 1.417 . S
C4 N12 1.360 . S
C5 C1 1.414 . S
C5 C3 1.444 . S
C5 C10 1.385 . S
C6 C2 1.432 . S
C6 C3 1.317 . S
C6 H18 0.930 . S
C7 C9 1.392 . S
C7 C10 1.370 . S
C7 H19 0.931 . S
N8 C1 1.359 . S
N8 C9 1.327 . S
N8 Tb11 2.600 . S
C9 C7 1.392 . S
C9 N8 1.327 . S
C9 H16 0.930 . S
C10 C5 1.385 . S
C10 C7 1.370 . S
C10 H29 0.930 . S
Tb11 N8 2.600 . S
Tb11 N12 2.660 . S
Tb11 O45 2.362 . S
Tb11 O46 2.421 . S
Tb11 O50 2.546 . S
Tb11 O51 2.610 . S
Tb11 O53 2.320 . S
Tb11 O54 2.552 . S
Tb11 O55 2.413 . S
Tb11 C75 2.833 . S
N12 C4 1.360 . S
N12 Tb11 2.660 . S
N12 C13 1.305 . S
C13 N12 1.305 . S
C13 C15 1.407 . S
C13 H20 0.930 . S
C14 C2 1.410 . S
C14 C15 1.345 . S
C14 H22 0.930 . S
C15 C13 1.407 . S
C15 C14 1.345 . S
C15 H17 0.930 . S
H16 C9 0.930 . S
H17 C15 0.930 . S
H18 C6 0.930 . S
H19 C7 0.931 . S
H20 C13 0.930 . S
H21 C35 0.930 . S
H22 C14 0.930 . S
H23 C41 0.930 . S
H24 C32 0.930 . S
H25 C39 0.931 . S
H26 C3 0.929 . S
H27 C33 0.930 . S
H28 C66 0.930 . S
H29 C10 0.930 . S
H30 C65 0.929 . S
N31 Tb0 2.660 . S
N31 C32 1.305 . S
N31 C36 1.360 . S
C32 H24 0.930 . S
C32 N31 1.305 . S
C32 C35 1.407 . S
C33 H27 0.930 . S
C33 C34 1.410 . S
C33 C35 1.345 . S
C34 C33 1.410 . S
C34 C36 1.417 . S
C34 C66 1.432 . S
C35 H21 0.930 . S
C35 C32 1.407 . S
C35 C33 1.345 . S
C36 N31 1.360 . S
C36 C34 1.417 . S
C36 C40 1.432 . S
H37 C42 0.930 . S
N38 Tb0 2.600 . S
N38 C40 1.359 . S
N38 C41 1.327 . S
C39 H25 0.931 . S
C39 C41 1.392 . S
C39 C42 1.370 . S
C40 C36 1.432 . S
C40 N38 1.359 . S
C40 C43 1.414 . S
C41 H23 0.930 . S
C41 N38 1.327 . S
C41 C39 1.392 . S
C42 H37 0.930 . S
C42 C39 1.370 . S
C42 C43 1.385 . S
C43 C40 1.414 . S
C43 C42 1.385 . S
C43 C65 1.444 . S
O44 Tb0 2.546 . S
O44 C64 1.251 . S
O45 Tb0 2.610 . S
O45 Tb11 2.362 . S
O45 C56 1.283 . S
O46 Tb11 2.421 . S
O46 C63 1.262 . S
O47 Tb0 2.320 . S
O47 C63 1.260 . S
O48 Tb0 2.552 . S
O48 C56 1.243 . S
O49 Tb0 2.413 . S
O49 C64 1.256 . S
O50 Tb11 2.546 . S
O50 C75 1.251 . S
O51 Tb0 2.362 . S
O51 Tb11 2.610 . S
O51 C67 1.283 . S
O52 Tb0 2.421 . S
O52 C74 1.262 . S
O53 Tb11 2.320 . S
O53 C74 1.260 . S
O54 Tb11 2.552 . S
O54 C67 1.243 . S
O55 Tb11 2.413 . S
O55 C75 1.256 . S
C56 O45 1.283 . S
C56 O48 1.243 . S
C57 C59 1.382 . S
C57 C61 1.393 . S
C57 C64 1.500 . S
C58 C59 1.400 . S
C58 C60 1.384 . S
C59 C57 1.382 . S
C59 C58 1.400 . S
C59 H76 0.930 . S
C60 C58 1.384 . S
C60 C62 1.392 . S
C60 H77 0.931 . S
C61 C57 1.393 . S
C61 C62 1.401 . S
C61 H78 0.930 . S
C62 C60 1.392 . S
C62 C61 1.401 . S
C62 H79 0.930 . S
C63 O46 1.262 . S
C63 O47 1.260 . S
C64 Tb0 2.833 . S
C64 O44 1.251 . S
C64 O49 1.256 . S
C64 C57 1.500 . S
C65 H30 0.929 . S
C65 C43 1.444 . S
C65 C66 1.317 . S
C66 H28 0.930 . S
C66 C34 1.432 . S
C66 C65 1.317 . S
C67 O51 1.283 . S
C67 O54 1.243 . S
C68 C69 1.382 . S
C68 C72 1.393 . S
C68 C75 1.500 . S
C69 C68 1.382 . S
C69 C70 1.400 . S
C69 H80 0.930 . S
C70 C69 1.400 . S
C70 C71 1.384 . S
C71 C70 1.384 . S
C71 C73 1.392 . S
C71 H81 0.931 . S
C72 C68 1.393 . S
C72 C73 1.401 . S
C72 H82 0.930 . S
C73 C71 1.392 . S
C73 C72 1.401 . S
C73 H83 0.930 . S
C74 O52 1.262 . S
C74 O53 1.260 . S
C75 Tb11 2.833 . S
C75 O50 1.251 . S
C75 O55 1.256 . S
C75 C68 1.500 . S
H76 C59 0.930 . S
H77 C60 0.931 . S
H78 C61 0.930 . S
H79 C62 0.930 . S
H80 C69 0.930 . S
H81 C71 0.931 . S
H82 C72 0.930 . S
H83 C73 0.930 . S
Tb84 N115 2.660 1_455 S
Tb84 N122 2.600 1_565 S
Tb84 O128 2.556 . S
Tb84 O129 2.610 . S
Tb84 O131 2.320 . S
Tb84 O132 2.552 . S
Tb84 O133 2.413 1_455 S
Tb84 O135 2.362 . S
Tb84 O136 2.421 . S
Tb84 C148 2.833 1_455 S
C85 C88 1.432 . S
C85 C89 1.414 . S
C85 N92 1.359 . S
C86 C88 1.417 . S
C86 C90 1.432 . S
C86 C98 1.410 . S
C87 C89 1.444 . S
C87 C90 1.317 . S
C87 H110 0.929 . S
C88 C85 1.432 . S
C88 C86 1.417 . S
C88 N96 1.360 . S
C89 C85 1.414 . S
C89 C87 1.444 . S
C89 C94 1.385 . S
C90 C86 1.432 . S
C90 C87 1.317 . S
C90 H102 0.930 . S
C91 C93 1.392 . S
C91 C94 1.370 . S
C91 H103 0.931 . S
N92 C85 1.359 . S
N92 C93 1.327 . S
N92 Tb95 2.600 . S
C93 C91 1.392 . S
C93 N92 1.327 . S
C93 H100 0.930 . S
C94 C89 1.385 . S
C94 C91 1.370 . S
C94 H113 0.930 . S
Tb95 N92 2.600 . S
Tb95 N96 2.660 . S
Tb95 O129 2.362 . S
Tb95 O130 2.421 . S
Tb95 O134 2.546 . S
Tb95 O135 2.610 . S
Tb95 O137 2.320 . S
Tb95 O138 2.552 . S
Tb95 O139 2.413 . S
Tb95 C159 2.833 . S
N96 C88 1.360 . S
N96 Tb95 2.660 . S
N96 C97 1.305 . S
C97 N96 1.305 . S
C97 C99 1.407 . S
C97 H104 0.930 . S
C98 C86 1.410 . S
C98 C99 1.345 . S
C98 H106 0.930 . S
C99 C97 1.407 . S
C99 C98 1.345 . S
C99 H101 0.930 . S
H100 C93 0.930 . S
H101 C99 0.930 . S
H102 C90 0.930 . S
H103 C91 0.931 . S
H104 C97 0.930 . S
H105 C119 0.930 . S
H106 C98 0.930 . S
H107 C125 0.930 . S
H108 C116 0.930 . S
H109 C123 0.931 1_455 S
H110 C87 0.929 . S
H111 C117 0.930 . S
H112 C150 0.930 . S
H113 C94 0.930 . S
H114 C149 0.929 . S
N115 Tb84 2.660 1_655 S
N115 C116 1.305 . S
N115 C120 1.360 . S
C116 H108 0.930 . S
C116 N115 1.305 . S
C116 C119 1.407 . S
C117 H111 0.930 . S
C117 C118 1.410 . S
C117 C119 1.345 . S
C118 C117 1.410 . S
C118 C120 1.417 . S
C118 C150 1.432 1_565 S
C119 H105 0.930 . S
C119 C116 1.407 . S
C119 C117 1.345 . S
C120 N115 1.360 . S
C120 C118 1.417 . S
C120 C124 1.432 1_565 S
H121 C126 0.930 . S
N122 Tb84 2.600 1_545 S
N122 C124 1.359 1_455 S
N122 C125 1.327 . S
C123 H109 0.931 1_655 S
C123 C125 1.392 1_655 S
C123 C126 1.370 . S
C124 C120 1.432 1_545 S
C124 N122 1.359 1_655 S
C124 C127 1.414 . S
C125 H107 0.930 . S
C125 N122 1.327 . S
C125 C123 1.392 1_455 S
C126 H121 0.930 . S
C126 C123 1.370 . S
C126 C127 1.385 . S
C127 C124 1.414 . S
C127 C126 1.385 . S
C127 C149 1.444 . S
O128 Tb84 2.556 . S
O128 C148 1.233 1_455 S
O129 Tb84 2.610 . S
O129 Tb95 2.362 . S
O129 C140 1.283 . S
O130 Tb95 2.421 . S
O130 C147 1.262 . S
O131 Tb84 2.320 . S
O131 C147 1.260 . S
O132 Tb84 2.552 . S
O132 C140 1.243 . S
O133 Tb84 2.413 1_655 S
O133 C148 1.256 . S
O134 Tb95 2.546 . S
O134 C159 1.251 . S
O135 Tb84 2.362 . S
O135 Tb95 2.610 . S
O135 C151 1.283 . S
O136 Tb84 2.421 . S
O136 C158 1.262 . S
O137 Tb95 2.320 . S
O137 C158 1.260 . S
O138 Tb95 2.552 . S
O138 C151 1.243 . S
O139 Tb95 2.413 . S
O139 C159 1.256 . S
C140 O129 1.283 . S
C140 O132 1.243 . S
C141 C143 1.382 . S
C141 C145 1.393 . S
C141 C148 1.500 . S
C142 C143 1.400 . S
C142 C144 1.384 . S
C143 C141 1.382 . S
C143 C142 1.400 . S
C143 H160 0.930 . S
C144 C142 1.384 . S
C144 C146 1.392 . S
C144 H161 0.931 . S
C145 C141 1.393 . S
C145 C146 1.401 . S
C145 H162 0.930 . S
C146 C144 1.392 . S
C146 C145 1.401 . S
C146 H163 0.930 . S
C147 O130 1.262 . S
C147 O131 1.260 . S
C148 Tb84 2.833 1_655 S
C148 O128 1.233 1_655 S
C148 O133 1.256 . S
C148 C141 1.500 . S
C149 H114 0.929 . S
C149 C127 1.444 . S
C149 C150 1.317 . S
C150 H112 0.930 . S
C150 C118 1.432 1_545 S
C150 C149 1.317 . S
C151 O135 1.283 . S
C151 O138 1.243 . S
C152 C153 1.382 . S
C152 C156 1.393 . S
C152 C159 1.500 . S
C153 C152 1.382 . S
C153 C154 1.400 . S
C153 H164 0.930 . S
C154 C153 1.400 . S
C154 C155 1.384 . S
C155 C154 1.384 . S
C155 C157 1.392 . S
C155 H165 0.931 . S
C156 C152 1.393 . S
C156 C157 1.401 . S
C156 H166 0.930 . S
C157 C155 1.392 . S
C157 C156 1.401 . S
C157 H167 0.930 . S
C158 O136 1.262 . S
C158 O137 1.260 . S
C159 Tb95 2.833 . S
C159 O134 1.251 . S
C159 O139 1.256 . S
C159 C152 1.500 . S
H160 C143 0.930 . S
H161 C144 0.931 . S
H162 C145 0.930 . S
H163 C146 0.930 . S
H164 C153 0.930 . S
H165 C155 0.931 . S
H166 C156 0.930 . S
H167 C157 0.930 . S
Tb168 N199 2.660 . S
Tb168 N206 2.600 . S
Tb168 O212 2.546 . S
Tb168 O213 2.610 . S
Tb168 O215 2.320 . S
Tb168 O216 2.552 . S
Tb168 O217 2.413 . S
Tb168 O219 2.362 . S
Tb168 O220 2.421 . S
Tb168 C232 2.833 . S
C169 C172 1.432 . S
C169 C173 1.414 . S
C169 N176 1.359 . S
C170 C172 1.417 . S
C170 C174 1.432 . S
C170 C182 1.410 . S
C171 C173 1.444 . S
C171 C174 1.317 . S
C171 H194 0.929 . S
C172 C169 1.432 . S
C172 C170 1.417 . S
C172 N180 1.360 . S
C173 C169 1.414 . S
C173 C171 1.444 . S
C173 C178 1.385 . S
C174 C170 1.432 . S
C174 C171 1.317 . S
C174 H186 0.930 . S
C175 C177 1.392 . S
C175 C178 1.370 . S
C175 H187 0.931 . S
N176 C169 1.359 . S
N176 C177 1.327 . S
N176 Tb179 2.600 . S
C177 C175 1.392 . S
C177 N176 1.327 . S
C177 H184 0.930 . S
C178 C173 1.385 . S
C178 C175 1.370 . S
C178 H197 0.930 . S
Tb179 N176 2.600 . S
Tb179 N180 2.660 . S
Tb179 O213 2.362 . S
Tb179 O214 2.421 . S
Tb179 O218 2.546 . S
Tb179 O219 2.610 . S
Tb179 O221 2.320 . S
Tb179 O222 2.552 . S
Tb179 O223 2.413 . S
Tb179 C243 2.833 . S
N180 C172 1.360 . S
N180 Tb179 2.660 . S
N180 C181 1.305 . S
C181 N180 1.305 . S
C181 C183 1.407 . S
C181 H188 0.930 . S
C182 C170 1.410 . S
C182 C183 1.345 . S
C182 H190 0.930 . S
C183 C181 1.407 . S
C183 C182 1.345 . S
C183 H185 0.930 . S
H184 C177 0.930 . S
H185 C183 0.930 . S
H186 C174 0.930 . S
H187 C175 0.931 . S
H188 C181 0.930 . S
H189 C203 0.930 . S
H190 C182 0.930 . S
H191 C209 0.930 . S
H192 C200 0.930 . S
H193 C207 0.931 . S
H194 C171 0.929 . S
H195 C201 0.930 . S
H196 C234 0.930 . S
H197 C178 0.930 . S
H198 C233 0.929 . S
N199 Tb168 2.660 . S
N199 C200 1.305 . S
N199 C204 1.360 . S
C200 H192 0.930 . S
C200 N199 1.305 . S
C200 C203 1.407 . S
C201 H195 0.930 . S
C201 C202 1.410 . S
C201 C203 1.345 . S
C202 C201 1.410 . S
C202 C204 1.417 . S
C202 C234 1.432 . S
C203 H189 0.930 . S
C203 C200 1.407 . S
C203 C201 1.345 . S
C204 N199 1.360 . S
C204 C202 1.417 . S
C204 C208 1.432 . S
H205 C210 0.930 . S
N206 Tb168 2.600 . S
N206 C208 1.359 . S
N206 C209 1.327 . S
C207 H193 0.931 . S
C207 C209 1.392 . S
C207 C210 1.370 . S
C208 C204 1.432 . S
C208 N206 1.359 . S
C208 C211 1.414 . S
C209 H191 0.930 . S
C209 N206 1.327 . S
C209 C207 1.392 . S
C210 H205 0.930 . S
C210 C207 1.370 . S
C210 C211 1.385 . S
C211 C208 1.414 . S
C211 C210 1.385 . S
C211 C233 1.444 . S
O212 Tb168 2.546 . S
O212 C232 1.251 . S
O213 Tb168 2.610 . S
O213 Tb179 2.362 . S
O213 C224 1.283 . S
O214 Tb179 2.421 . S
O214 C231 1.262 . S
O215 Tb168 2.320 . S
O215 C231 1.260 . S
O216 Tb168 2.552 . S
O216 C224 1.243 . S
O217 Tb168 2.413 . S
O217 C232 1.256 . S
O218 Tb179 2.546 . S
O218 C243 1.251 . S
O219 Tb168 2.362 . S
O219 Tb179 2.610 . S
O219 C235 1.283 . S
O220 Tb168 2.421 . S
O220 C242 1.262 . S
O221 Tb179 2.320 . S
O221 C242 1.260 . S
O222 Tb179 2.552 . S
O222 C235 1.243 . S
O223 Tb179 2.413 . S
O223 C243 1.256 . S
C224 O213 1.283 . S
C224 O216 1.243 . S
C225 C227 1.382 . S
C225 C229 1.393 . S
C225 C232 1.500 . S
C226 C227 1.400 . S
C226 C228 1.384 . S
C227 C225 1.382 . S
C227 C226 1.400 . S
C227 H244 0.930 . S
C228 C226 1.384 . S
C228 C230 1.392 . S
C228 H245 0.931 . S
C229 C225 1.393 . S
C229 C230 1.401 . S
C229 H246 0.930 . S
C230 C228 1.392 . S
C230 C229 1.401 . S
C230 H247 0.930 . S
C231 O214 1.262 . S
C231 O215 1.260 . S
C232 Tb168 2.833 . S
C232 O212 1.251 . S
C232 O217 1.256 . S
C232 C225 1.500 . S
C233 H198 0.929 . S
C233 C211 1.444 . S
C233 C234 1.317 . S
C234 H196 0.930 . S
C234 C202 1.432 . S
C234 C233 1.317 . S
C235 O219 1.283 . S
C235 O222 1.243 . S
C236 C237 1.382 . S
C236 C240 1.393 . S
C236 C243 1.500 . S
C237 C236 1.382 . S
C237 C238 1.400 . S
C237 H248 0.930 . S
C238 C237 1.400 . S
C238 C239 1.384 . S
C239 C238 1.384 . S
C239 C241 1.392 . S
C239 H249 0.931 . S
C240 C236 1.393 . S
C240 C241 1.401 . S
C240 H250 0.930 . S
C241 C239 1.392 . S
C241 C240 1.401 . S
C241 H251 0.930 . S
C242 O220 1.262 . S
C242 O221 1.260 . S
C243 Tb179 2.833 . S
C243 O218 1.251 . S
C243 O223 1.256 . S
C243 C236 1.500 . S
H244 C227 0.930 . S
H245 C228 0.931 . S
H246 C229 0.930 . S
H247 C230 0.930 . S
H248 C237 0.930 . S
H249 C239 0.931 . S
H250 C240 0.930 . S
H251 C241 0.930 . S
Tb252 N283 2.660 . S
Tb252 N290 2.600 1_545 S
Tb252 O296 2.546 . S
Tb252 O297 2.610 . S
Tb252 O299 2.320 . S
Tb252 O300 2.552 . S
Tb252 O301 2.413 . S
Tb252 O303 2.362 . S
Tb252 O304 2.421 . S
Tb252 C316 2.833 . S
C253 C256 1.432 . S
C253 C257 1.414 . S
C253 N260 1.359 . S
C254 C256 1.417 . S
C254 C258 1.432 . S
C254 C266 1.410 . S
C255 C257 1.444 . S
C255 C258 1.317 . S
C255 H278 0.929 . S
C256 C253 1.432 . S
C256 C254 1.417 . S
C256 N264 1.360 . S
C257 C253 1.414 . S
C257 C255 1.444 . S
C257 C262 1.385 . S
C258 C254 1.432 . S
C258 C255 1.317 . S
C258 H270 0.930 . S
C259 C261 1.392 . S
C259 C262 1.370 . S
C259 H271 0.931 . S
N260 C253 1.359 . S
N260 C261 1.327 . S
N260 Tb263 2.600 . S
C261 C259 1.392 . S
C261 N260 1.327 . S
C261 H268 0.930 . S
C262 C257 1.385 . S
C262 C259 1.370 . S
C262 H281 0.930 . S
Tb263 N260 2.600 . S
Tb263 N264 2.660 . S
Tb263 O297 2.362 . S
Tb263 O298 2.421 . S
Tb263 O302 2.546 . S
Tb263 O303 2.610 . S
Tb263 O305 2.320 . S
Tb263 O306 2.552 . S
Tb263 O307 2.413 . S
Tb263 C327 2.833 . S
N264 C256 1.360 . S
N264 Tb263 2.660 . S
N264 C265 1.305 . S
C265 N264 1.305 . S
C265 C267 1.407 . S
C265 H272 0.930 . S
C266 C254 1.410 . S
C266 C267 1.345 . S
C266 H274 0.930 . S
C267 C265 1.407 . S
C267 C266 1.345 . S
C267 H269 0.930 . S
H268 C261 0.930 . S
H269 C267 0.930 . S
H270 C258 0.930 . S
H271 C259 0.931 . S
H272 C265 0.930 . S
H273 C287 0.930 . S
H274 C266 0.930 . S
H275 C293 0.930 . S
H276 C284 0.930 . S
H277 C291 0.931 . S
H278 C255 0.929 . S
H279 C285 0.930 . S
H280 C318 0.930 . S
H281 C262 0.930 . S
H282 C317 0.929 . S
N283 Tb252 2.660 . S
N283 C284 1.305 . S
N283 C288 1.360 . S
C284 H276 0.930 . S
C284 N283 1.305 . S
C284 C287 1.407 . S
C285 H279 0.930 . S
C285 C286 1.410 . S
C285 C287 1.345 . S
C286 C285 1.410 . S
C286 C288 1.417 . S
C286 C318 1.432 1_545 S
C287 H273 0.930 . S
C287 C284 1.407 . S
C287 C285 1.345 . S
C288 N283 1.360 . S
C288 C286 1.417 . S
C288 C292 1.432 1_545 S
H289 C294 0.930 . S
N290 Tb252 2.600 1_565 S
N290 C292 1.359 . S
N290 C293 1.327 . S
C291 H277 0.931 . S
C291 C293 1.392 . S
C291 C294 1.370 . S
C292 C288 1.432 1_565 S
C292 N290 1.359 . S
C292 C295 1.414 . S
C293 H275 0.930 . S
C293 N290 1.327 . S
C293 C291 1.392 . S
C294 H289 0.930 . S
C294 C291 1.370 . S
C294 C295 1.385 . S
C295 C292 1.414 . S
C295 C294 1.385 . S
C295 C317 1.444 . S
O296 Tb252 2.546 . S
O296 C316 1.251 . S
O297 Tb252 2.610 . S
O297 Tb263 2.362 . S
O297 C308 1.283 . S
O298 Tb263 2.421 . S
O298 C315 1.262 . S
O299 Tb252 2.320 . S
O299 C315 1.260 . S
O300 Tb252 2.552 . S
O300 C308 1.243 . S
O301 Tb252 2.413 . S
O301 C316 1.256 . S
O302 Tb263 2.546 . S
O302 C327 1.251 . S
O303 Tb252 2.362 . S
O303 Tb263 2.610 . S
O303 C319 1.283 . S
O304 Tb252 2.421 . S
O304 C326 1.262 . S
O305 Tb263 2.320 . S
O305 C326 1.260 . S
O306 Tb263 2.552 . S
O306 C319 1.243 . S
O307 Tb263 2.413 . S
O307 C327 1.256 . S
C308 O297 1.283 . S
C308 O300 1.243 . S
C309 C311 1.382 . S
C309 C313 1.393 . S
C309 C316 1.500 . S
C310 C311 1.400 . S
C310 C312 1.384 . S
C311 C309 1.382 . S
C311 C310 1.400 . S
C311 H328 0.930 . S
C312 C310 1.384 . S
C312 C314 1.392 . S
C312 H329 0.931 . S
C313 C309 1.393 . S
C313 C314 1.401 . S
C313 H330 0.930 . S
C314 C312 1.392 . S
C314 C313 1.401 . S
C314 H331 0.930 . S
C315 O298 1.262 . S
C315 O299 1.260 . S
C316 Tb252 2.833 . S
C316 O296 1.251 . S
C316 O301 1.256 . S
C316 C309 1.500 . S
C317 H282 0.929 . S
C317 C295 1.444 . S
C317 C318 1.317 . S
C318 H280 0.930 . S
C318 C286 1.432 1_565 S
C318 C317 1.317 . S
C319 O303 1.283 . S
C319 O306 1.243 . S
C320 C321 1.382 . S
C320 C324 1.393 . S
C320 C327 1.500 . S
C321 C320 1.382 . S
C321 C322 1.400 . S
C321 H332 0.930 . S
C322 C321 1.400 . S
C322 C323 1.384 . S
C323 C322 1.384 . S
C323 C325 1.392 . S
C323 H333 0.931 . S
C324 C320 1.393 . S
C324 C325 1.401 . S
C324 H334 0.930 . S
C325 C323 1.392 . S
C325 C324 1.401 . S
C325 H335 0.930 . S
C326 O304 1.262 . S
C326 O305 1.260 . S
C327 Tb263 2.833 . S
C327 O302 1.251 . S
C327 O307 1.256 . S
C327 C320 1.500 . S
H328 C311 0.930 . S
H329 C312 0.931 . S
H330 C313 0.930 . S
H331 C314 0.930 . S
H332 C321 0.930 . S
H333 C323 0.931 . S
H334 C324 0.930 . S
H335 C325 0.930 . S
Tb336 N367 2.660 . S
Tb336 N374 2.600 . S
Tb336 O380 2.546 . S
Tb336 O381 2.610 . S
Tb336 O383 2.320 . S
Tb336 O384 2.552 . S
Tb336 O385 2.413 . S
Tb336 O387 2.362 . S
Tb336 O388 2.421 . S
Tb336 C400 2.833 . S
C337 C340 1.432 . S
C337 C341 1.414 . S
C337 N344 1.359 . S
C338 C340 1.417 . S
C338 C342 1.432 . S
C338 C350 1.410 . S
C339 C341 1.444 . S
C339 C342 1.317 . S
C339 H362 0.929 . S
C340 C337 1.432 . S
C340 C338 1.417 . S
C340 N348 1.360 . S
C341 C337 1.414 . S
C341 C339 1.444 . S
C341 C346 1.385 . S
C342 C338 1.432 . S
C342 C339 1.317 . S
C342 H354 0.930 . S
C343 C345 1.392 . S
C343 C346 1.370 . S
C343 H355 0.931 . S
N344 C337 1.359 . S
N344 C345 1.327 . S
N344 Tb347 2.600 . S
C345 C343 1.392 . S
C345 N344 1.327 . S
C345 H352 0.930 . S
C346 C341 1.385 . S
C346 C343 1.370 . S
C346 H365 0.930 . S
Tb347 N344 2.600 . S
Tb347 N348 2.660 . S
Tb347 O381 2.362 . S
Tb347 O382 2.421 . S
Tb347 O386 2.546 . S
Tb347 O387 2.610 . S
Tb347 O389 2.320 . S
Tb347 O390 2.552 . S
Tb347 O391 2.413 . S
Tb347 C411 2.833 . S
N348 C340 1.360 . S
N348 Tb347 2.660 . S
N348 C349 1.305 . S
C349 N348 1.305 . S
C349 C351 1.407 . S
C349 H356 0.930 . S
C350 C338 1.410 . S
C350 C351 1.345 . S
C350 H358 0.930 . S
C351 C349 1.407 . S
C351 C350 1.345 . S
C351 H353 0.930 . S
H352 C345 0.930 . S
H353 C351 0.930 . S
H354 C342 0.930 . S
H355 C343 0.931 . S
H356 C349 0.930 . S
H357 C371 0.930 . S
H358 C350 0.930 . S
H359 C377 0.930 . S
H360 C368 0.930 . S
H361 C375 0.931 . S
H362 C339 0.929 . S
H363 C369 0.930 . S
H364 C402 0.930 . S
H365 C346 0.930 . S
H366 C401 0.929 . S
N367 Tb336 2.660 . S
N367 C368 1.305 . S
N367 C372 1.360 . S
C368 H360 0.930 . S
C368 N367 1.305 . S
C368 C371 1.407 . S
C369 H363 0.930 . S
C369 C370 1.410 . S
C369 C371 1.345 . S
C370 C369 1.410 . S
C370 C372 1.417 . S
C370 C402 1.432 . S
C371 H357 0.930 . S
C371 C368 1.407 . S
C371 C369 1.345 . S
C372 N367 1.360 . S
C372 C370 1.417 . S
C372 C376 1.432 . S
H373 C378 0.930 . S
N374 Tb336 2.600 . S
N374 C376 1.359 . S
N374 C377 1.327 . S
C375 H361 0.931 . S
C375 C377 1.392 . S
C375 C378 1.370 . S
C376 C372 1.432 . S
C376 N374 1.359 . S
C376 C379 1.414 . S
C377 H359 0.930 . S
C377 N374 1.327 . S
C377 C375 1.392 . S
C378 H373 0.930 . S
C378 C375 1.370 . S
C378 C379 1.385 . S
C379 C376 1.414 . S
C379 C378 1.385 . S
C379 C401 1.444 . S
O380 Tb336 2.546 . S
O380 C400 1.251 . S
O381 Tb336 2.610 . S
O381 Tb347 2.362 . S
O381 C392 1.283 . S
O382 Tb347 2.421 . S
O382 C399 1.262 . S
O383 Tb336 2.320 . S
O383 C399 1.260 . S
O384 Tb336 2.552 . S
O384 C392 1.243 . S
O385 Tb336 2.413 . S
O385 C400 1.256 . S
O386 Tb347 2.546 . S
O386 C411 1.251 . S
O387 Tb336 2.362 . S
O387 Tb347 2.610 . S
O387 C403 1.283 . S
O388 Tb336 2.421 . S
O388 C410 1.262 . S
O389 Tb347 2.320 . S
O389 C410 1.260 . S
O390 Tb347 2.552 . S
O390 C403 1.243 . S
O391 Tb347 2.413 . S
O391 C411 1.256 . S
C392 O381 1.283 . S
C392 O384 1.243 . S
C393 C395 1.382 . S
C393 C397 1.393 . S
C393 C400 1.500 . S
C394 C395 1.400 . S
C394 C396 1.384 . S
C395 C393 1.382 . S
C395 C394 1.400 . S
C395 H412 0.930 . S
C396 C394 1.384 . S
C396 C398 1.392 . S
C396 H413 0.931 . S
C397 C393 1.393 . S
C397 C398 1.401 . S
C397 H414 0.930 . S
C398 C396 1.392 . S
C398 C397 1.401 . S
C398 H415 0.930 . S
C399 O382 1.262 . S
C399 O383 1.260 . S
C400 Tb336 2.833 . S
C400 O380 1.251 . S
C400 O385 1.256 . S
C400 C393 1.500 . S
C401 H366 0.929 . S
C401 C379 1.444 . S
C401 C402 1.317 . S
C402 H364 0.930 . S
C402 C370 1.432 . S
C402 C401 1.317 . S
C403 O387 1.283 . S
C403 O390 1.243 . S
C404 C405 1.382 . S
C404 C408 1.393 . S
C404 C411 1.500 . S
C405 C404 1.382 . S
C405 C406 1.400 . S
C405 H416 0.930 . S
C406 C405 1.400 . S
C406 C407 1.384 . S
C407 C406 1.384 . S
C407 C409 1.392 . S
C407 H417 0.931 . S
C408 C404 1.393 . S
C408 C409 1.401 . S
C408 H418 0.930 . S
C409 C407 1.392 . S
C409 C408 1.401 . S
C409 H419 0.930 . S
C410 O388 1.262 . S
C410 O389 1.260 . S
C411 Tb347 2.833 . S
C411 O386 1.251 . S
C411 O391 1.256 . S
C411 C404 1.500 . S
H412 C395 0.930 . S
H413 C396 0.931 . S
H414 C397 0.930 . S
H415 C398 0.930 . S
H416 C405 0.930 . S
H417 C407 0.931 . S
H418 C408 0.930 . S
H419 C409 0.930 . S
Tb420 N451 2.660 . S
Tb420 N458 2.600 1_565 S
Tb420 O464 2.546 . S
Tb420 O465 2.610 . S
Tb420 O467 2.320 . S
Tb420 O468 2.552 . S
Tb420 O469 2.413 . S
Tb420 O471 2.362 . S
Tb420 O472 2.421 . S
Tb420 C484 2.833 . S
C421 C424 1.432 . S
C421 C425 1.414 . S
C421 N428 1.359 . S
C422 C424 1.417 . S
C422 C426 1.432 . S
C422 C434 1.410 . S
C423 C425 1.444 . S
C423 C426 1.317 . S
C423 H446 0.929 . S
C424 C421 1.432 . S
C424 C422 1.417 . S
C424 N432 1.360 . S
C425 C421 1.414 . S
C425 C423 1.444 . S
C425 C430 1.385 . S
C426 C422 1.432 . S
C426 C423 1.317 . S
C426 H438 0.930 . S
C427 C429 1.392 . S
C427 C430 1.370 . S
C427 H439 0.931 . S
N428 C421 1.359 . S
N428 C429 1.327 . S
N428 Tb431 2.600 . S
C429 C427 1.392 . S
C429 N428 1.327 . S
C429 H436 0.930 . S
C430 C425 1.385 . S
C430 C427 1.370 . S
C430 H449 0.930 . S
Tb431 N428 2.600 . S
Tb431 N432 2.660 . S
Tb431 O465 2.362 . S
Tb431 O466 2.421 . S
Tb431 O470 2.546 . S
Tb431 O471 2.610 . S
Tb431 O473 2.320 . S
Tb431 O474 2.552 . S
Tb431 O475 2.413 . S
Tb431 C495 2.833 . S
N432 C424 1.360 . S
N432 Tb431 2.660 . S
N432 C433 1.305 . S
C433 N432 1.305 . S
C433 C435 1.407 . S
C433 H440 0.930 . S
C434 C422 1.410 . S
C434 C435 1.345 . S
C434 H442 0.930 . S
C435 C433 1.407 . S
C435 C434 1.345 . S
C435 H437 0.930 . S
H436 C429 0.930 . S
H437 C435 0.930 . S
H438 C426 0.930 . S
H439 C427 0.931 . S
H440 C433 0.930 . S
H441 C455 0.930 . S
H442 C434 0.930 . S
H443 C461 0.930 . S
H444 C452 0.930 . S
H445 C459 0.931 . S
H446 C423 0.929 . S
H447 C453 0.930 . S
H448 C486 0.930 . S
H449 C430 0.930 . S
H450 C485 0.929 . S
N451 Tb420 2.660 . S
N451 C452 1.305 . S
N451 C456 1.360 . S
C452 H444 0.930 . S
C452 N451 1.305 . S
C452 C455 1.407 . S
C453 H447 0.930 . S
C453 C454 1.410 . S
C453 C455 1.345 . S
C454 C453 1.410 . S
C454 C456 1.417 . S
C454 C486 1.432 1_565 S
C455 H441 0.930 . S
C455 C452 1.407 . S
C455 C453 1.345 . S
C456 N451 1.360 . S
C456 C454 1.417 . S
C456 C460 1.432 1_565 S
H457 C462 0.930 . S
N458 Tb420 2.600 1_545 S
N458 C460 1.359 . S
N458 C461 1.327 . S
C459 H445 0.931 . S
C459 C461 1.392 . S
C459 C462 1.370 . S
C460 C456 1.432 1_545 S
C460 N458 1.359 . S
C460 C463 1.414 . S
C461 H443 0.930 . S
C461 N458 1.327 . S
C461 C459 1.392 . S
C462 H457 0.930 . S
C462 C459 1.370 . S
C462 C463 1.385 . S
C463 C460 1.414 . S
C463 C462 1.385 . S
C463 C485 1.444 . S
O464 Tb420 2.546 . S
O464 C484 1.251 . S
O465 Tb420 2.610 . S
O465 Tb431 2.362 . S
O465 C476 1.283 . S
O466 Tb431 2.421 . S
O466 C483 1.262 . S
O467 Tb420 2.320 . S
O467 C483 1.260 . S
O468 Tb420 2.552 . S
O468 C476 1.243 . S
O469 Tb420 2.413 . S
O469 C484 1.256 . S
O470 Tb431 2.546 . S
O470 C495 1.251 . S
O471 Tb420 2.362 . S
O471 Tb431 2.610 . S
O471 C487 1.283 . S
O472 Tb420 2.421 . S
O472 C494 1.262 . S
O473 Tb431 2.320 . S
O473 C494 1.260 . S
O474 Tb431 2.552 . S
O474 C487 1.243 . S
O475 Tb431 2.413 . S
O475 C495 1.256 . S
C476 O465 1.283 . S
C476 O468 1.243 . S
C477 C479 1.382 . S
C477 C481 1.393 . S
C477 C484 1.500 . S
C478 C479 1.400 . S
C478 C480 1.384 . S
C479 C477 1.382 . S
C479 C478 1.400 . S
C479 H496 0.930 . S
C480 C478 1.384 . S
C480 C482 1.392 . S
C480 H497 0.931 . S
C481 C477 1.393 . S
C481 C482 1.401 . S
C481 H498 0.930 . S
C482 C480 1.392 . S
C482 C481 1.401 . S
C482 H499 0.930 . S
C483 O466 1.262 . S
C483 O467 1.260 . S
C484 Tb420 2.833 . S
C484 O464 1.251 . S
C484 O469 1.256 . S
C484 C477 1.500 . S
C485 H450 0.929 . S
C485 C463 1.444 . S
C485 C486 1.317 . S
C486 H448 0.930 . S
C486 C454 1.432 1_545 S
C486 C485 1.317 . S
C487 O471 1.283 . S
C487 O474 1.243 . S
C488 C489 1.382 . S
C488 C492 1.393 . S
C488 C495 1.500 . S
C489 C488 1.382 . S
C489 C490 1.400 . S
C489 H500 0.930 . S
C490 C489 1.400 . S
C490 C491 1.384 . S
C491 C490 1.384 . S
C491 C493 1.392 . S
C491 H501 0.931 . S
C492 C488 1.393 . S
C492 C493 1.401 . S
C492 H502 0.930 . S
C493 C491 1.392 . S
C493 C492 1.401 . S
C493 H503 0.930 . S
C494 O472 1.262 . S
C494 O473 1.260 . S
C495 Tb431 2.833 . S
C495 O470 1.251 . S
C495 O475 1.256 . S
C495 C488 1.500 . S
H496 C479 0.930 . S
H497 C480 0.931 . S
H498 C481 0.930 . S
H499 C482 0.930 . S
H500 C489 0.930 . S
H501 C491 0.931 . S
H502 C492 0.930 . S
H503 C493 0.930 . S
Tb504 N535 2.660 . S
Tb504 N542 2.600 . S
Tb504 O548 2.546 . S
Tb504 O549 2.610 . S
Tb504 O551 2.320 . S
Tb504 O552 2.552 . S
Tb504 O553 2.413 . S
Tb504 O555 2.362 . S
Tb504 O556 2.421 . S
Tb504 C568 2.833 . S
C505 C508 1.432 . S
C505 C509 1.414 . S
C505 N512 1.359 . S
C506 C508 1.417 . S
C506 C510 1.432 . S
C506 C518 1.410 . S
C507 C509 1.444 . S
C507 C510 1.317 . S
C507 H530 0.929 . S
C508 C505 1.432 . S
C508 C506 1.417 . S
C508 N516 1.360 . S
C509 C505 1.414 . S
C509 C507 1.444 . S
C509 C514 1.385 . S
C510 C506 1.432 . S
C510 C507 1.317 . S
C510 H522 0.930 . S
C511 C513 1.392 . S
C511 C514 1.370 . S
C511 H523 0.931 . S
N512 C505 1.359 . S
N512 C513 1.327 . S
N512 Tb515 2.600 . S
C513 C511 1.392 . S
C513 N512 1.327 . S
C513 H520 0.930 . S
C514 C509 1.385 . S
C514 C511 1.370 . S
C514 H533 0.930 . S
Tb515 N512 2.600 . S
Tb515 N516 2.660 . S
Tb515 O549 2.362 . S
Tb515 O550 2.421 . S
Tb515 O554 2.546 . S
Tb515 O555 2.610 . S
Tb515 O557 2.320 . S
Tb515 O558 2.552 . S
Tb515 O559 2.413 . S
Tb515 C579 2.833 . S
N516 C508 1.360 . S
N516 Tb515 2.660 . S
N516 C517 1.305 . S
C517 N516 1.305 . S
C517 C519 1.407 . S
C517 H524 0.930 . S
C518 C506 1.410 . S
C518 C519 1.345 . S
C518 H526 0.930 . S
C519 C517 1.407 . S
C519 C518 1.345 . S
C519 H521 0.930 . S
H520 C513 0.930 . S
H521 C519 0.930 . S
H522 C510 0.930 . S
H523 C511 0.931 . S
H524 C517 0.930 . S
H525 C539 0.930 . S
H526 C518 0.930 . S
H527 C545 0.930 . S
H528 C536 0.930 . S
H529 C543 0.931 . S
H530 C507 0.929 . S
H531 C537 0.930 . S
H532 C570 0.930 . S
H533 C514 0.930 . S
H534 C569 0.929 . S
N535 Tb504 2.660 . S
N535 C536 1.305 . S
N535 C540 1.360 . S
C536 H528 0.930 . S
C536 N535 1.305 . S
C536 C539 1.407 . S
C537 H531 0.930 . S
C537 C538 1.410 . S
C537 C539 1.345 . S
C538 C537 1.410 . S
C538 C540 1.417 . S
C538 C570 1.432 . S
C539 H525 0.930 . S
C539 C536 1.407 . S
C539 C537 1.345 . S
C540 N535 1.360 . S
C540 C538 1.417 . S
C540 C544 1.432 . S
H541 C546 0.930 . S
N542 Tb504 2.600 . S
N542 C544 1.359 . S
N542 C545 1.327 . S
C543 H529 0.931 . S
C543 C545 1.392 . S
C543 C546 1.370 . S
C544 C540 1.432 . S
C544 N542 1.359 . S
C544 C547 1.414 . S
C545 H527 0.930 . S
C545 N542 1.327 . S
C545 C543 1.392 . S
C546 H541 0.930 . S
C546 C543 1.370 . S
C546 C547 1.385 . S
C547 C544 1.414 . S
C547 C546 1.385 . S
C547 C569 1.444 . S
O548 Tb504 2.546 . S
O548 C568 1.251 . S
O549 Tb504 2.610 . S
O549 Tb515 2.362 . S
O549 C560 1.283 . S
O550 Tb515 2.421 . S
O550 C567 1.262 . S
O551 Tb504 2.320 . S
O551 C567 1.260 . S
O552 Tb504 2.552 . S
O552 C560 1.243 . S
O553 Tb504 2.413 . S
O553 C568 1.256 . S
O554 Tb515 2.546 . S
O554 C579 1.251 . S
O555 Tb504 2.362 . S
O555 Tb515 2.610 . S
O555 C571 1.283 . S
O556 Tb504 2.421 . S
O556 C578 1.262 . S
O557 Tb515 2.320 . S
O557 C578 1.260 . S
O558 Tb515 2.552 . S
O558 C571 1.243 . S
O559 Tb515 2.413 . S
O559 C579 1.256 . S
C560 O549 1.283 . S
C560 O552 1.243 . S
C561 C563 1.382 . S
C561 C565 1.393 . S
C561 C568 1.500 . S
C562 C563 1.400 . S
C562 C564 1.384 . S
C563 C561 1.382 . S
C563 C562 1.400 . S
C563 H580 0.930 . S
C564 C562 1.384 . S
C564 C566 1.392 . S
C564 H581 0.931 . S
C565 C561 1.393 . S
C565 C566 1.401 . S
C565 H582 0.930 . S
C566 C564 1.392 . S
C566 C565 1.401 . S
C566 H583 0.930 . S
C567 O550 1.262 . S
C567 O551 1.260 . S
C568 Tb504 2.833 . S
C568 O548 1.251 . S
C568 O553 1.256 . S
C568 C561 1.500 . S
C569 H534 0.929 . S
C569 C547 1.444 . S
C569 C570 1.317 . S
C570 H532 0.930 . S
C570 C538 1.432 . S
C570 C569 1.317 . S
C571 O555 1.283 . S
C571 O558 1.243 . S
C572 C573 1.382 . S
C572 C576 1.393 . S
C572 C579 1.500 . S
C573 C572 1.382 . S
C573 C574 1.400 . S
C573 H584 0.930 . S
C574 C573 1.400 . S
C574 C575 1.384 . S
C575 C574 1.384 . S
C575 C577 1.392 . S
C575 H585 0.931 . S
C576 C572 1.393 . S
C576 C577 1.401 . S
C576 H586 0.930 . S
C577 C575 1.392 . S
C577 C576 1.401 . S
C577 H587 0.930 . S
C578 O556 1.262 . S
C578 O557 1.260 . S
C579 Tb515 2.833 . S
C579 O554 1.251 . S
C579 O559 1.256 . S
C579 C572 1.500 . S
H580 C563 0.930 . S
H581 C564 0.931 . S
H582 C565 0.930 . S
H583 C566 0.930 . S
H584 C573 0.930 . S
H585 C575 0.931 . S
H586 C576 0.930 . S
H587 C577 0.930 . S
Tb588 N619 2.660 1_455 S
Tb588 N626 2.600 1_545 S
Tb588 O632 2.556 . S
Tb588 O633 2.610 . S
Tb588 O635 2.320 . S
Tb588 O636 2.552 . S
Tb588 O637 2.413 1_455 S
Tb588 O639 2.362 . S
Tb588 O640 2.421 . S
Tb588 C652 2.833 1_455 S
C589 C592 1.432 . S
C589 C593 1.414 . S
C589 N596 1.359 . S
C590 C592 1.417 . S
C590 C594 1.432 . S
C590 C602 1.410 . S
C591 C593 1.444 . S
C591 C594 1.317 . S
C591 H614 0.929 . S
C592 C589 1.432 . S
C592 C590 1.417 . S
C592 N600 1.360 . S
C593 C589 1.414 . S
C593 C591 1.444 . S
C593 C598 1.385 . S
C594 C590 1.432 . S
C594 C591 1.317 . S
C594 H606 0.930 . S
C595 C597 1.392 . S
C595 C598 1.370 . S
C595 H607 0.931 . S
N596 C589 1.359 . S
N596 C597 1.327 . S
N596 Tb599 2.600 . S
C597 C595 1.392 . S
C597 N596 1.327 . S
C597 H604 0.930 . S
C598 C593 1.385 . S
C598 C595 1.370 . S
C598 H617 0.930 . S
Tb599 N596 2.600 . S
Tb599 N600 2.660 . S
Tb599 O633 2.362 . S
Tb599 O634 2.421 . S
Tb599 O638 2.546 . S
Tb599 O639 2.610 . S
Tb599 O641 2.320 . S
Tb599 O642 2.552 . S
Tb599 O643 2.413 . S
Tb599 C663 2.833 . S
N600 C592 1.360 . S
N600 Tb599 2.660 . S
N600 C601 1.305 . S
C601 N600 1.305 . S
C601 C603 1.407 . S
C601 H608 0.930 . S
C602 C590 1.410 . S
C602 C603 1.345 . S
C602 H610 0.930 . S
C603 C601 1.407 . S
C603 C602 1.345 . S
C603 H605 0.930 . S
H604 C597 0.930 . S
H605 C603 0.930 . S
H606 C594 0.930 . S
H607 C595 0.931 . S
H608 C601 0.930 . S
H609 C623 0.930 . S
H610 C602 0.930 . S
H611 C629 0.930 . S
H612 C620 0.930 . S
H613 C627 0.931 1_455 S
H614 C591 0.929 . S
H615 C621 0.930 . S
H616 C654 0.930 . S
H617 C598 0.930 . S
H618 C653 0.929 . S
N619 Tb588 2.660 1_655 S
N619 C620 1.305 . S
N619 C624 1.360 . S
C620 H612 0.930 . S
C620 N619 1.305 . S
C620 C623 1.407 . S
C621 H615 0.930 . S
C621 C622 1.410 . S
C621 C623 1.345 . S
C622 C621 1.410 . S
C622 C624 1.417 . S
C622 C654 1.432 1_545 S
C623 H609 0.930 . S
C623 C620 1.407 . S
C623 C621 1.345 . S
C624 N619 1.360 . S
C624 C622 1.417 . S
C624 C628 1.432 1_545 S
H625 C630 0.930 . S
N626 Tb588 2.600 1_565 S
N626 C628 1.359 1_455 S
N626 C629 1.327 . S
C627 H613 0.931 1_655 S
C627 C629 1.392 1_655 S
C627 C630 1.370 . S
C628 C624 1.432 1_565 S
C628 N626 1.359 1_655 S
C628 C631 1.414 . S
C629 H611 0.930 . S
C629 N626 1.327 . S
C629 C627 1.392 1_455 S
C630 H625 0.930 . S
C630 C627 1.370 . S
C630 C631 1.385 . S
C631 C628 1.414 . S
C631 C630 1.385 . S
C631 C653 1.444 . S
O632 Tb588 2.556 . S
O632 C652 1.233 1_455 S
O633 Tb588 2.610 . S
O633 Tb599 2.362 . S
O633 C644 1.283 . S
O634 Tb599 2.421 . S
O634 C651 1.262 . S
O635 Tb588 2.320 . S
O635 C651 1.260 . S
O636 Tb588 2.552 . S
O636 C644 1.243 . S
O637 Tb588 2.413 1_655 S
O637 C652 1.256 . S
O638 Tb599 2.546 . S
O638 C663 1.251 . S
O639 Tb588 2.362 . S
O639 Tb599 2.610 . S
O639 C655 1.283 . S
O640 Tb588 2.421 . S
O640 C662 1.262 . S
O641 Tb599 2.320 . S
O641 C662 1.260 . S
O642 Tb599 2.552 . S
O642 C655 1.243 . S
O643 Tb599 2.413 . S
O643 C663 1.256 . S
C644 O633 1.283 . S
C644 O636 1.243 . S
C645 C647 1.382 . S
C645 C649 1.393 . S
C645 C652 1.500 . S
C646 C647 1.400 . S
C646 C648 1.384 . S
C647 C645 1.382 . S
C647 C646 1.400 . S
C647 H664 0.930 . S
C648 C646 1.384 . S
C648 C650 1.392 . S
C648 H665 0.931 . S
C649 C645 1.393 . S
C649 C650 1.401 . S
C649 H666 0.930 . S
C650 C648 1.392 . S
C650 C649 1.401 . S
C650 H667 0.930 . S
C651 O634 1.262 . S
C651 O635 1.260 . S
C652 Tb588 2.833 1_655 S
C652 O632 1.233 1_655 S
C652 O637 1.256 . S
C652 C645 1.500 . S
C653 H618 0.929 . S
C653 C631 1.444 . S
C653 C654 1.317 . S
C654 H616 0.930 . S
C654 C622 1.432 1_565 S
C654 C653 1.317 . S
C655 O639 1.283 . S
C655 O642 1.243 . S
C656 C657 1.382 . S
C656 C660 1.393 . S
C656 C663 1.500 . S
C657 C656 1.382 . S
C657 C658 1.400 . S
C657 H668 0.930 . S
C658 C657 1.400 . S
C658 C659 1.384 . S
C659 C658 1.384 . S
C659 C661 1.392 . S
C659 H669 0.931 . S
C660 C656 1.393 . S
C660 C661 1.401 . S
C660 H670 0.930 . S
C661 C659 1.392 . S
C661 C660 1.401 . S
C661 H671 0.930 . S
C662 O640 1.262 . S
C662 O641 1.260 . S
C663 Tb599 2.833 . S
C663 O638 1.251 . S
C663 O643 1.256 . S
C663 C656 1.500 . S
H664 C647 0.930 . S
H665 C648 0.931 . S
H666 C649 0.930 . S
H667 C650 0.930 . S
H668 C657 0.930 . S
H669 C659 0.931 . S
H670 C660 0.930 . S
H671 C661 0.930 . S
Tb672 N703 2.660 . S
Tb672 N710 2.600 . S
Tb672 O716 2.546 . S
Tb672 O717 2.610 . S
Tb672 O719 2.320 . S
Tb672 O720 2.552 . S
Tb672 O721 2.413 . S
Tb672 O723 2.362 . S
Tb672 O724 2.421 . S
Tb672 C736 2.833 . S
C673 C676 1.432 . S
C673 C677 1.414 . S
C673 N680 1.359 . S
C674 C676 1.417 . S
C674 C678 1.432 . S
C674 C686 1.410 . S
C675 C677 1.444 . S
C675 C678 1.317 . S
C675 H698 0.929 . S
C676 C673 1.432 . S
C676 C674 1.417 . S
C676 N684 1.360 . S
C677 C673 1.414 . S
C677 C675 1.444 . S
C677 C682 1.385 . S
C678 C674 1.432 . S
C678 C675 1.317 . S
C678 H690 0.930 . S
C679 C681 1.392 . S
C679 C682 1.370 . S
C679 H691 0.931 . S
N680 C673 1.359 . S
N680 C681 1.327 . S
N680 Tb683 2.600 . S
C681 C679 1.392 . S
C681 N680 1.327 . S
C681 H688 0.930 . S
C682 C677 1.385 . S
C682 C679 1.370 . S
C682 H701 0.930 . S
Tb683 N680 2.600 . S
Tb683 N684 2.660 . S
Tb683 O717 2.362 . S
Tb683 O718 2.421 . S
Tb683 O722 2.546 . S
Tb683 O723 2.610 . S
Tb683 O725 2.320 . S
Tb683 O726 2.552 . S
Tb683 O727 2.413 . S
Tb683 C747 2.833 . S
N684 C676 1.360 . S
N684 Tb683 2.660 . S
N684 C685 1.305 . S
C685 N684 1.305 . S
C685 C687 1.407 . S
C685 H692 0.930 . S
C686 C674 1.410 . S
C686 C687 1.345 . S
C686 H694 0.930 . S
C687 C685 1.407 . S
C687 C686 1.345 . S
C687 H689 0.930 . S
H688 C681 0.930 . S
H689 C687 0.930 . S
H690 C678 0.930 . S
H691 C679 0.931 . S
H692 C685 0.930 . S
H693 C707 0.930 . S
H694 C686 0.930 . S
H695 C713 0.930 . S
H696 C704 0.930 . S
H697 C711 0.931 . S
H698 C675 0.929 . S
H699 C705 0.930 . S
H700 C738 0.930 . S
H701 C682 0.930 . S
H702 C737 0.929 . S
N703 Tb672 2.660 . S
N703 C704 1.305 . S
N703 C708 1.360 . S
C704 H696 0.930 . S
C704 N703 1.305 . S
C704 C707 1.407 . S
C705 H699 0.930 . S
C705 C706 1.410 . S
C705 C707 1.345 . S
C706 C705 1.410 . S
C706 C708 1.417 . S
C706 C738 1.432 . S
C707 H693 0.930 . S
C707 C704 1.407 . S
C707 C705 1.345 . S
C708 N703 1.360 . S
C708 C706 1.417 . S
C708 C712 1.432 . S
H709 C714 0.930 . S
N710 Tb672 2.600 . S
N710 C712 1.359 . S
N710 C713 1.327 . S
C711 H697 0.931 . S
C711 C713 1.392 . S
C711 C714 1.370 . S
C712 C708 1.432 . S
C712 N710 1.359 . S
C712 C715 1.414 . S
C713 H695 0.930 . S
C713 N710 1.327 . S
C713 C711 1.392 . S
C714 H709 0.930 . S
C714 C711 1.370 . S
C714 C715 1.385 . S
C715 C712 1.414 . S
C715 C714 1.385 . S
C715 C737 1.444 . S
O716 Tb672 2.546 . S
O716 C736 1.251 . S
O717 Tb672 2.610 . S
O717 Tb683 2.362 . S
O717 C728 1.283 . S
O718 Tb683 2.421 . S
O718 C735 1.262 . S
O719 Tb672 2.320 . S
O719 C735 1.260 . S
O720 Tb672 2.552 . S
O720 C728 1.243 . S
O721 Tb672 2.413 . S
O721 C736 1.256 . S
O722 Tb683 2.546 . S
O722 C747 1.251 . S
O723 Tb672 2.362 . S
O723 Tb683 2.610 . S
O723 C739 1.283 . S
O724 Tb672 2.421 . S
O724 C746 1.262 . S
O725 Tb683 2.320 . S
O725 C746 1.260 . S
O726 Tb683 2.552 . S
O726 C739 1.243 . S
O727 Tb683 2.413 . S
O727 C747 1.256 . S
C728 O717 1.283 . S
C728 O720 1.243 . S
C729 C731 1.382 . S
C729 C733 1.393 . S
C729 C736 1.500 . S
C730 C731 1.400 . S
C730 C732 1.384 . S
C731 C729 1.382 . S
C731 C730 1.400 . S
C731 H748 0.930 . S
C732 C730 1.384 . S
C732 C734 1.392 . S
C732 H749 0.931 . S
C733 C729 1.393 . S
C733 C734 1.401 . S
C733 H750 0.930 . S
C734 C732 1.392 . S
C734 C733 1.401 . S
C734 H751 0.930 . S
C735 O718 1.262 . S
C735 O719 1.260 . S
C736 Tb672 2.833 . S
C736 O716 1.251 . S
C736 O721 1.256 . S
C736 C729 1.500 . S
C737 H702 0.929 . S
C737 C715 1.444 . S
C737 C738 1.317 . S
C738 H700 0.930 . S
C738 C706 1.432 . S
C738 C737 1.317 . S
C739 O723 1.283 . S
C739 O726 1.243 . S
C740 C741 1.382 . S
C740 C744 1.393 . S
C740 C747 1.500 . S
C741 C740 1.382 . S
C741 C742 1.400 . S
C741 H752 0.930 . S
C742 C741 1.400 . S
C742 C743 1.384 . S
C743 C742 1.384 . S
C743 C745 1.392 . S
C743 H753 0.931 . S
C744 C740 1.393 . S
C744 C745 1.401 . S
C744 H754 0.930 . S
C745 C743 1.392 . S
C745 C744 1.401 . S
C745 H755 0.930 . S
C746 O724 1.262 . S
C746 O725 1.260 . S
C747 Tb683 2.833 . S
C747 O722 1.251 . S
C747 O727 1.256 . S
C747 C740 1.500 . S
H748 C731 0.930 . S
H749 C732 0.931 . S
H750 C733 0.930 . S
H751 C734 0.930 . S
H752 C741 0.930 . S
H753 C743 0.931 . S
H754 C744 0.930 . S
H755 C745 0.930 . S
Tb756 N787 2.660 . S
Tb756 N794 2.600 . S
Tb756 O800 2.546 . S
Tb756 O801 2.610 . S
Tb756 O803 2.320 . S
Tb756 O804 2.552 . S
Tb756 O805 2.413 . S
Tb756 O807 2.362 . S
Tb756 O808 2.421 . S
Tb756 C820 2.833 . S
C757 C760 1.432 1_565 S
C757 C761 1.414 . S
C757 N764 1.359 1_455 S
C758 C760 1.417 . S
C758 C762 1.432 1_545 S
C758 C770 1.410 . S
C759 C761 1.444 . S
C759 C762 1.317 . S
C759 H782 0.929 . S
C760 C757 1.432 1_545 S
C760 C758 1.417 . S
C760 N768 1.360 . S
C761 C757 1.414 . S
C761 C759 1.444 . S
C761 C766 1.385 . S
C762 C758 1.432 1_565 S
C762 C759 1.317 . S
C762 H774 0.930 . S
C763 C765 1.392 1_455 S
C763 C766 1.370 . S
C763 H775 0.931 1_455 S
N764 C757 1.359 1_655 S
N764 C765 1.327 . S
N764 Tb767 2.600 1_565 S
C765 C763 1.392 1_655 S
C765 N764 1.327 . S
C765 H772 0.930 . S
C766 C761 1.385 . S
C766 C763 1.370 . S
C766 H785 0.930 . S
Tb767 N764 2.600 1_545 S
Tb767 N768 2.660 1_655 S
Tb767 O801 2.362 . S
Tb767 O802 2.421 . S
Tb767 O806 2.556 . S
Tb767 O807 2.610 . S
Tb767 O809 2.320 . S
Tb767 O810 2.552 . S
Tb767 O811 2.413 1_655 S
Tb767 C831 2.833 1_655 S
N768 C760 1.360 . S
N768 Tb767 2.660 1_455 S
N768 C769 1.305 . S
C769 N768 1.305 . S
C769 C771 1.407 . S
C769 H776 0.930 . S
C770 C758 1.410 . S
C770 C771 1.345 . S
C770 H778 0.930 . S
C771 C769 1.407 . S
C771 C770 1.345 . S
C771 H773 0.930 . S
H772 C765 0.930 . S
H773 C771 0.930 . S
H774 C762 0.930 . S
H775 C763 0.931 1_655 S
H776 C769 0.930 . S
H777 C791 0.930 . S
H778 C770 0.930 . S
H779 C797 0.930 . S
H780 C788 0.930 . S
H781 C795 0.931 . S
H782 C759 0.929 . S
H783 C789 0.930 . S
H784 C822 0.930 . S
H785 C766 0.930 . S
H786 C821 0.929 . S
N787 Tb756 2.660 . S
N787 C788 1.305 . S
N787 C792 1.360 . S
C788 H780 0.930 . S
C788 N787 1.305 . S
C788 C791 1.407 . S
C789 H783 0.930 . S
C789 C790 1.410 . S
C789 C791 1.345 . S
C790 C789 1.410 . S
C790 C792 1.417 . S
C790 C822 1.432 . S
C791 H777 0.930 . S
C791 C788 1.407 . S
C791 C789 1.345 . S
C792 N787 1.360 . S
C792 C790 1.417 . S
C792 C796 1.432 . S
H793 C798 0.930 . S
N794 Tb756 2.600 . S
N794 C796 1.359 . S
N794 C797 1.327 . S
C795 H781 0.931 . S
C795 C797 1.392 . S
C795 C798 1.370 . S
C796 C792 1.432 . S
C796 N794 1.359 . S
C796 C799 1.414 . S
C797 H779 0.930 . S
C797 N794 1.327 . S
C797 C795 1.392 . S
C798 H793 0.930 . S
C798 C795 1.370 . S
C798 C799 1.385 . S
C799 C796 1.414 . S
C799 C798 1.385 . S
C799 C821 1.444 . S
O800 Tb756 2.546 . S
O800 C820 1.251 . S
O801 Tb756 2.610 . S
O801 Tb767 2.362 . S
O801 C812 1.283 . S
O802 Tb767 2.421 . S
O802 C819 1.262 . S
O803 Tb756 2.320 . S
O803 C819 1.260 . S
O804 Tb756 2.552 . S
O804 C812 1.243 . S
O805 Tb756 2.413 . S
O805 C820 1.256 . S
O806 Tb767 2.556 . S
O806 C831 1.233 1_655 S
O807 Tb756 2.362 . S
O807 Tb767 2.610 . S
O807 C823 1.283 . S
O808 Tb756 2.421 . S
O808 C830 1.262 . S
O809 Tb767 2.320 . S
O809 C830 1.260 . S
O810 Tb767 2.552 . S
O810 C823 1.243 . S
O811 Tb767 2.413 1_455 S
O811 C831 1.256 . S
C812 O801 1.283 . S
C812 O804 1.243 . S
C813 C815 1.382 . S
C813 C817 1.393 . S
C813 C820 1.500 . S
C814 C815 1.400 . S
C814 C816 1.384 . S
C815 C813 1.382 . S
C815 C814 1.400 . S
C815 H832 0.930 . S
C816 C814 1.384 . S
C816 C818 1.392 . S
C816 H833 0.931 . S
C817 C813 1.393 . S
C817 C818 1.401 . S
C817 H834 0.930 . S
C818 C816 1.392 . S
C818 C817 1.401 . S
C818 H835 0.930 . S
C819 O802 1.262 . S
C819 O803 1.260 . S
C820 Tb756 2.833 . S
C820 O800 1.251 . S
C820 O805 1.256 . S
C820 C813 1.500 . S
C821 H786 0.929 . S
C821 C799 1.444 . S
C821 C822 1.317 . S
C822 H784 0.930 . S
C822 C790 1.432 . S
C822 C821 1.317 . S
C823 O807 1.283 . S
C823 O810 1.243 . S
C824 C825 1.382 . S
C824 C828 1.393 . S
C824 C831 1.500 . S
C825 C824 1.382 . S
C825 C826 1.400 . S
C825 H836 0.930 . S
C826 C825 1.400 . S
C826 C827 1.384 . S
C827 C826 1.384 . S
C827 C829 1.392 . S
C827 H837 0.931 . S
C828 C824 1.393 . S
C828 C829 1.401 . S
C828 H838 0.930 . S
C829 C827 1.392 . S
C829 C828 1.401 . S
C829 H839 0.930 . S
C830 O808 1.262 . S
C830 O809 1.260 . S
C831 Tb767 2.833 1_455 S
C831 O806 1.233 1_455 S
C831 O811 1.256 . S
C831 C824 1.500 . S
H832 C815 0.930 . S
H833 C816 0.931 . S
H834 C817 0.930 . S
H835 C818 0.930 . S
H836 C825 0.930 . S
H837 C827 0.931 . S
H838 C828 0.930 . S
H839 C829 0.930 . S
Tb840 N871 2.660 . S
Tb840 N878 2.600 . S
Tb840 O884 2.546 . S
Tb840 O885 2.610 . S
Tb840 O887 2.320 . S
Tb840 O888 2.552 . S
Tb840 O889 2.413 . S
Tb840 O891 2.362 . S
Tb840 O892 2.421 . S
Tb840 C904 2.833 . S
C841 C844 1.432 . S
C841 C845 1.414 . S
C841 N848 1.359 . S
C842 C844 1.417 . S
C842 C846 1.432 . S
C842 C854 1.410 . S
C843 C845 1.444 . S
C843 C846 1.317 . S
C843 H866 0.929 . S
C844 C841 1.432 . S
C844 C842 1.417 . S
C844 N852 1.360 . S
C845 C841 1.414 . S
C845 C843 1.444 . S
C845 C850 1.385 . S
C846 C842 1.432 . S
C846 C843 1.317 . S
C846 H858 0.930 . S
C847 C849 1.392 . S
C847 C850 1.370 . S
C847 H859 0.931 . S
N848 C841 1.359 . S
N848 C849 1.327 . S
N848 Tb851 2.600 . S
C849 C847 1.392 . S
C849 N848 1.327 . S
C849 H856 0.930 . S
C850 C845 1.385 . S
C850 C847 1.370 . S
C850 H869 0.930 . S
Tb851 N848 2.600 . S
Tb851 N852 2.660 . S
Tb851 O885 2.362 . S
Tb851 O886 2.421 . S
Tb851 O890 2.546 . S
Tb851 O891 2.610 . S
Tb851 O893 2.320 . S
Tb851 O894 2.552 . S
Tb851 O895 2.413 . S
Tb851 C915 2.833 . S
N852 C844 1.360 . S
N852 Tb851 2.660 . S
N852 C853 1.305 . S
C853 N852 1.305 . S
C853 C855 1.407 . S
C853 H860 0.930 . S
C854 C842 1.410 . S
C854 C855 1.345 . S
C854 H862 0.930 . S
C855 C853 1.407 . S
C855 C854 1.345 . S
C855 H857 0.930 . S
H856 C849 0.930 . S
H857 C855 0.930 . S
H858 C846 0.930 . S
H859 C847 0.931 . S
H860 C853 0.930 . S
H861 C875 0.930 . S
H862 C854 0.930 . S
H863 C881 0.930 . S
H864 C872 0.930 . S
H865 C879 0.931 . S
H866 C843 0.929 . S
H867 C873 0.930 . S
H868 C906 0.930 . S
H869 C850 0.930 . S
H870 C905 0.929 . S
N871 Tb840 2.660 . S
N871 C872 1.305 . S
N871 C876 1.360 . S
C872 H864 0.930 . S
C872 N871 1.305 . S
C872 C875 1.407 . S
C873 H867 0.930 . S
C873 C874 1.410 . S
C873 C875 1.345 . S
C874 C873 1.410 . S
C874 C876 1.417 . S
C874 C906 1.432 . S
C875 H861 0.930 . S
C875 C872 1.407 . S
C875 C873 1.345 . S
C876 N871 1.360 . S
C876 C874 1.417 . S
C876 C880 1.432 . S
H877 C882 0.930 . S
N878 Tb840 2.600 . S
N878 C880 1.359 . S
N878 C881 1.327 . S
C879 H865 0.931 . S
C879 C881 1.392 . S
C879 C882 1.370 . S
C880 C876 1.432 . S
C880 N878 1.359 . S
C880 C883 1.414 . S
C881 H863 0.930 . S
C881 N878 1.327 . S
C881 C879 1.392 . S
C882 H877 0.930 . S
C882 C879 1.370 . S
C882 C883 1.385 . S
C883 C880 1.414 . S
C883 C882 1.385 . S
C883 C905 1.444 . S
O884 Tb840 2.546 . S
O884 C904 1.251 . S
O885 Tb840 2.610 . S
O885 Tb851 2.362 . S
O885 C896 1.283 . S
O886 Tb851 2.421 . S
O886 C903 1.262 . S
O887 Tb840 2.320 . S
O887 C903 1.260 . S
O888 Tb840 2.552 . S
O888 C896 1.243 . S
O889 Tb840 2.413 . S
O889 C904 1.256 . S
O890 Tb851 2.546 . S
O890 C915 1.251 . S
O891 Tb840 2.362 . S
O891 Tb851 2.610 . S
O891 C907 1.283 . S
O892 Tb840 2.421 . S
O892 C914 1.262 . S
O893 Tb851 2.320 . S
O893 C914 1.260 . S
O894 Tb851 2.552 . S
O894 C907 1.243 . S
O895 Tb851 2.413 . S
O895 C915 1.256 . S
C896 O885 1.283 . S
C896 O888 1.243 . S
C897 C899 1.382 . S
C897 C901 1.393 . S
C897 C904 1.500 . S
C898 C899 1.400 . S
C898 C900 1.384 . S
C899 C897 1.382 . S
C899 C898 1.400 . S
C899 H916 0.930 . S
C900 C898 1.384 . S
C900 C902 1.392 . S
C900 H917 0.931 . S
C901 C897 1.393 . S
C901 C902 1.401 . S
C901 H918 0.930 . S
C902 C900 1.392 . S
C902 C901 1.401 . S
C902 H919 0.930 . S
C903 O886 1.262 . S
C903 O887 1.260 . S
C904 Tb840 2.833 . S
C904 O884 1.251 . S
C904 O889 1.256 . S
C904 C897 1.500 . S
C905 H870 0.929 . S
C905 C883 1.444 . S
C905 C906 1.317 . S
C906 H868 0.930 . S
C906 C874 1.432 . S
C906 C905 1.317 . S
C907 O891 1.283 . S
C907 O894 1.243 . S
C908 C909 1.382 . S
C908 C912 1.393 . S
C908 C915 1.500 . S
C909 C908 1.382 . S
C909 C910 1.400 . S
C909 H920 0.930 . S
C910 C909 1.400 . S
C910 C911 1.384 . S
C911 C910 1.384 . S
C911 C913 1.392 . S
C911 H921 0.931 . S
C912 C908 1.393 . S
C912 C913 1.401 . S
C912 H922 0.930 . S
C913 C911 1.392 . S
C913 C912 1.401 . S
C913 H923 0.930 . S
C914 O892 1.262 . S
C914 O893 1.260 . S
C915 Tb851 2.833 . S
C915 O890 1.251 . S
C915 O895 1.256 . S
C915 C908 1.500 . S
H916 C899 0.930 . S
H917 C900 0.931 . S
H918 C901 0.930 . S
H919 C902 0.930 . S
H920 C909 0.930 . S
H921 C911 0.931 . S
H922 C912 0.930 . S
H923 C913 0.930 . S
Tb924 N955 2.660 . S
Tb924 N962 2.600 . S
Tb924 O968 2.546 . S
Tb924 O969 2.610 . S
Tb924 O971 2.320 . S
Tb924 O972 2.552 . S
Tb924 O973 2.413 . S
Tb924 O975 2.362 . S
Tb924 O976 2.421 . S
Tb924 C988 2.833 . S
C925 C928 1.432 1_545 S
C925 C929 1.414 . S
C925 N932 1.359 . S
C926 C928 1.417 . S
C926 C930 1.432 1_565 S
C926 C938 1.410 . S
C927 C929 1.444 . S
C927 C930 1.317 . S
C927 H950 0.929 . S
C928 C925 1.432 1_565 S
C928 C926 1.417 . S
C928 N936 1.360 . S
C929 C925 1.414 . S
C929 C927 1.444 . S
C929 C934 1.385 . S
C930 C926 1.432 1_545 S
C930 C927 1.317 . S
C930 H942 0.930 . S
C931 C933 1.392 . S
C931 C934 1.370 . S
C931 H943 0.931 . S
N932 C925 1.359 . S
N932 C933 1.327 . S
N932 Tb935 2.600 1_545 S
C933 C931 1.392 . S
C933 N932 1.327 . S
C933 H940 0.930 . S
C934 C929 1.385 . S
C934 C931 1.370 . S
C934 H953 0.930 . S
Tb935 N932 2.600 1_565 S
Tb935 N936 2.660 . S
Tb935 O969 2.362 . S
Tb935 O970 2.421 . S
Tb935 O974 2.546 . S
Tb935 O975 2.610 . S
Tb935 O977 2.320 . S
Tb935 O978 2.552 . S
Tb935 O979 2.413 . S
Tb935 C999 2.833 . S
N936 C928 1.360 . S
N936 Tb935 2.660 . S
N936 C937 1.305 . S
C937 N936 1.305 . S
C937 C939 1.407 . S
C937 H944 0.930 . S
C938 C926 1.410 . S
C938 C939 1.345 . S
C938 H946 0.930 . S
C939 C937 1.407 . S
C939 C938 1.345 . S
C939 H941 0.930 . S
H940 C933 0.930 . S
H941 C939 0.930 . S
H942 C930 0.930 . S
H943 C931 0.931 . S
H944 C937 0.930 . S
H945 C959 0.930 . S
H946 C938 0.930 . S
H947 C965 0.930 . S
H948 C956 0.930 . S
H949 C963 0.931 . S
H950 C927 0.929 . S
H951 C957 0.930 . S
H952 C990 0.930 . S
H953 C934 0.930 . S
H954 C989 0.929 . S
N955 Tb924 2.660 . S
N955 C956 1.305 . S
N955 C960 1.360 . S
C956 H948 0.930 . S
C956 N955 1.305 . S
C956 C959 1.407 . S
C957 H951 0.930 . S
C957 C958 1.410 . S
C957 C959 1.345 . S
C958 C957 1.410 . S
C958 C960 1.417 . S
C958 C990 1.432 . S
C959 H945 0.930 . S
C959 C956 1.407 . S
C959 C957 1.345 . S
C960 N955 1.360 . S
C960 C958 1.417 . S
C960 C964 1.432 . S
H961 C966 0.930 . S
N962 Tb924 2.600 . S
N962 C964 1.359 . S
N962 C965 1.327 . S
C963 H949 0.931 . S
C963 C965 1.392 . S
C963 C966 1.370 . S
C964 C960 1.432 . S
C964 N962 1.359 . S
C964 C967 1.414 . S
C965 H947 0.930 . S
C965 N962 1.327 . S
C965 C963 1.392 . S
C966 H961 0.930 . S
C966 C963 1.370 . S
C966 C967 1.385 . S
C967 C964 1.414 . S
C967 C966 1.385 . S
C967 C989 1.444 . S
O968 Tb924 2.546 . S
O968 C988 1.251 . S
O969 Tb924 2.610 . S
O969 Tb935 2.362 . S
O969 C980 1.283 . S
O970 Tb935 2.421 . S
O970 C987 1.262 . S
O971 Tb924 2.320 . S
O971 C987 1.260 . S
O972 Tb924 2.552 . S
O972 C980 1.243 . S
O973 Tb924 2.413 . S
O973 C988 1.256 . S
O974 Tb935 2.546 . S
O974 C999 1.251 . S
O975 Tb924 2.362 . S
O975 Tb935 2.610 . S
O975 C991 1.283 . S
O976 Tb924 2.421 . S
O976 C998 1.262 . S
O977 Tb935 2.320 . S
O977 C998 1.260 . S
O978 Tb935 2.552 . S
O978 C991 1.243 . S
O979 Tb935 2.413 . S
O979 C999 1.256 . S
C980 O969 1.283 . S
C980 O972 1.243 . S
C981 C983 1.382 . S
C981 C985 1.393 . S
C981 C988 1.500 . S
C982 C983 1.400 . S
C982 C984 1.384 . S
C983 C981 1.382 . S
C983 C982 1.400 . S
C983 H1000 0.930 . S
C984 C982 1.384 . S
C984 C986 1.392 . S
C984 H1001 0.931 . S
C985 C981 1.393 . S
C985 C986 1.401 . S
C985 H1002 0.930 . S
C986 C984 1.392 . S
C986 C985 1.401 . S
C986 H1003 0.930 . S
C987 O970 1.262 . S
C987 O971 1.260 . S
C988 Tb924 2.833 . S
C988 O968 1.251 . S
C988 O973 1.256 . S
C988 C981 1.500 . S
C989 H954 0.929 . S
C989 C967 1.444 . S
C989 C990 1.317 . S
C990 H952 0.930 . S
C990 C958 1.432 . S
C990 C989 1.317 . S
C991 O975 1.283 . S
C991 O978 1.243 . S
C992 C993 1.382 . S
C992 C996 1.393 . S
C992 C999 1.500 . S
C993 C992 1.382 . S
C993 C994 1.400 . S
C993 H1004 0.930 . S
C994 C993 1.400 . S
C994 C995 1.384 . S
C995 C994 1.384 . S
C995 C997 1.392 . S
C995 H1005 0.931 . S
C996 C992 1.393 . S
C996 C997 1.401 . S
C996 H1006 0.930 . S
C997 C995 1.392 . S
C997 C996 1.401 . S
C997 H1007 0.930 . S
C998 O976 1.262 . S
C998 O977 1.260 . S
C999 Tb935 2.833 . S
C999 O974 1.251 . S
C999 O979 1.256 . S
C999 C992 1.500 . S
H1000 C983 0.930 . S
H1001 C984 0.931 . S
H1002 C985 0.930 . S
H1003 C986 0.930 . S
H1004 C993 0.930 . S
H1005 C995 0.931 . S
H1006 C996 0.930 . S
H1007 C997 0.930 . S
Tb1008 N1039 2.660 . S
Tb1008 N1046 2.600 . S
Tb1008 O1052 2.546 . S
Tb1008 O1053 2.610 . S
Tb1008 O1055 2.320 . S
Tb1008 O1056 2.552 . S
Tb1008 O1057 2.413 . S
Tb1008 O1059 2.362 . S
Tb1008 O1060 2.421 . S
Tb1008 C1072 2.833 . S
C1009 C1012 1.432 . S
C1009 C1013 1.414 . S
C1009 N1016 1.359 . S
C1010 C1012 1.417 . S
C1010 C1014 1.432 . S
C1010 C1022 1.410 . S
C1011 C1013 1.444 . S
C1011 C1014 1.317 . S
C1011 H1034 0.929 . S
C1012 C1009 1.432 . S
C1012 C1010 1.417 . S
C1012 N1020 1.360 . S
C1013 C1009 1.414 . S
C1013 C1011 1.444 . S
C1013 C1018 1.385 . S
C1014 C1010 1.432 . S
C1014 C1011 1.317 . S
C1014 H1026 0.930 . S
C1015 C1017 1.392 . S
C1015 C1018 1.370 . S
C1015 H1027 0.931 . S
N1016 C1009 1.359 . S
N1016 C1017 1.327 . S
N1016 Tb1019 2.600 . S
C1017 C1015 1.392 . S
C1017 N1016 1.327 . S
C1017 H1024 0.930 . S
C1018 C1013 1.385 . S
C1018 C1015 1.370 . S
C1018 H1037 0.930 . S
Tb1019 N1016 2.600 . S
Tb1019 N1020 2.660 . S
Tb1019 O1053 2.362 . S
Tb1019 O1054 2.421 . S
Tb1019 O1058 2.546 . S
Tb1019 O1059 2.610 . S
Tb1019 O1061 2.320 . S
Tb1019 O1062 2.552 . S
Tb1019 O1063 2.413 . S
Tb1019 C1083 2.833 . S
N1020 C1012 1.360 . S
N1020 Tb1019 2.660 . S
N1020 C1021 1.305 . S
C1021 N1020 1.305 . S
C1021 C1023 1.407 . S
C1021 H1028 0.930 . S
C1022 C1010 1.410 . S
C1022 C1023 1.345 . S
C1022 H1030 0.930 . S
C1023 C1021 1.407 . S
C1023 C1022 1.345 . S
C1023 H1025 0.930 . S
H1024 C1017 0.930 . S
H1025 C1023 0.930 . S
H1026 C1014 0.930 . S
H1027 C1015 0.931 . S
H1028 C1021 0.930 . S
H1029 C1043 0.930 . S
H1030 C1022 0.930 . S
H1031 C1049 0.930 . S
H1032 C1040 0.930 . S
H1033 C1047 0.931 . S
H1034 C1011 0.929 . S
H1035 C1041 0.930 . S
H1036 C1074 0.930 . S
H1037 C1018 0.930 . S
H1038 C1073 0.929 . S
N1039 Tb1008 2.660 . S
N1039 C1040 1.305 . S
N1039 C1044 1.360 . S
C1040 H1032 0.930 . S
C1040 N1039 1.305 . S
C1040 C1043 1.407 . S
C1041 H1035 0.930 . S
C1041 C1042 1.410 . S
C1041 C1043 1.345 . S
C1042 C1041 1.410 . S
C1042 C1044 1.417 . S
C1042 C1074 1.432 . S
C1043 H1029 0.930 . S
C1043 C1040 1.407 . S
C1043 C1041 1.345 . S
C1044 N1039 1.360 . S
C1044 C1042 1.417 . S
C1044 C1048 1.432 . S
H1045 C1050 0.930 . S
N1046 Tb1008 2.600 . S
N1046 C1048 1.359 . S
N1046 C1049 1.327 . S
C1047 H1033 0.931 . S
C1047 C1049 1.392 . S
C1047 C1050 1.370 . S
C1048 C1044 1.432 . S
C1048 N1046 1.359 . S
C1048 C1051 1.414 . S
C1049 H1031 0.930 . S
C1049 N1046 1.327 . S
C1049 C1047 1.392 . S
C1050 H1045 0.930 . S
C1050 C1047 1.370 . S
C1050 C1051 1.385 . S
C1051 C1048 1.414 . S
C1051 C1050 1.385 . S
C1051 C1073 1.444 . S
O1052 Tb1008 2.546 . S
O1052 C1072 1.251 . S
O1053 Tb1008 2.610 . S
O1053 Tb1019 2.362 . S
O1053 C1064 1.283 . S
O1054 Tb1019 2.421 . S
O1054 C1071 1.262 . S
O1055 Tb1008 2.320 . S
O1055 C1071 1.260 . S
O1056 Tb1008 2.552 . S
O1056 C1064 1.243 . S
O1057 Tb1008 2.413 . S
O1057 C1072 1.256 . S
O1058 Tb1019 2.546 . S
O1058 C1083 1.251 . S
O1059 Tb1008 2.362 . S
O1059 Tb1019 2.610 . S
O1059 C1075 1.283 . S
O1060 Tb1008 2.421 . S
O1060 C1082 1.262 . S
O1061 Tb1019 2.320 . S
O1061 C1082 1.260 . S
O1062 Tb1019 2.552 . S
O1062 C1075 1.243 . S
O1063 Tb1019 2.413 . S
O1063 C1083 1.256 . S
C1064 O1053 1.283 . S
C1064 O1056 1.243 . S
C1065 C1067 1.382 . S
C1065 C1069 1.393 . S
C1065 C1072 1.500 . S
C1066 C1067 1.400 . S
C1066 C1068 1.384 . S
C1067 C1065 1.382 . S
C1067 C1066 1.400 . S
C1067 H1084 0.930 . S
C1068 C1066 1.384 . S
C1068 C1070 1.392 . S
C1068 H1085 0.931 . S
C1069 C1065 1.393 . S
C1069 C1070 1.401 . S
C1069 H1086 0.930 . S
C1070 C1068 1.392 . S
C1070 C1069 1.401 . S
C1070 H1087 0.930 . S
C1071 O1054 1.262 . S
C1071 O1055 1.260 . S
C1072 Tb1008 2.833 . S
C1072 O1052 1.251 . S
C1072 O1057 1.256 . S
C1072 C1065 1.500 . S
C1073 H1038 0.929 . S
C1073 C1051 1.444 . S
C1073 C1074 1.317 . S
C1074 H1036 0.930 . S
C1074 C1042 1.432 . S
C1074 C1073 1.317 . S
C1075 O1059 1.283 . S
C1075 O1062 1.243 . S
C1076 C1077 1.382 . S
C1076 C1080 1.393 . S
C1076 C1083 1.500 . S
C1077 C1076 1.382 . S
C1077 C1078 1.400 . S
C1077 H1088 0.930 . S
C1078 C1077 1.400 . S
C1078 C1079 1.384 . S
C1079 C1078 1.384 . S
C1079 C1081 1.392 . S
C1079 H1089 0.931 . S
C1080 C1076 1.393 . S
C1080 C1081 1.401 . S
C1080 H1090 0.930 . S
C1081 C1079 1.392 . S
C1081 C1080 1.401 . S
C1081 H1091 0.930 . S
C1082 O1060 1.262 . S
C1082 O1061 1.260 . S
C1083 Tb1019 2.833 . S
C1083 O1058 1.251 . S
C1083 O1063 1.256 . S
C1083 C1076 1.500 . S
H1084 C1067 0.930 . S
H1085 C1068 0.931 . S
H1086 C1069 0.930 . S
H1087 C1070 0.930 . S
H1088 C1077 0.930 . S
H1089 C1079 0.931 . S
H1090 C1080 0.930 . S
H1091 C1081 0.930 . S
Tb1092 N1123 2.660 . S
Tb1092 N1130 2.600 . S
Tb1092 O1136 2.546 . S
Tb1092 O1137 2.610 . S
Tb1092 O1139 2.320 . S
Tb1092 O1140 2.552 . S
Tb1092 O1141 2.413 . S
Tb1092 O1143 2.362 . S
Tb1092 O1144 2.421 . S
Tb1092 C1156 2.833 . S
C1093 C1096 1.432 1_565 S
C1093 C1097 1.414 . S
C1093 N1100 1.359 . S
C1094 C1096 1.417 . S
C1094 C1098 1.432 1_545 S
C1094 C1106 1.410 . S
C1095 C1097 1.444 . S
C1095 C1098 1.317 . S
C1095 H1118 0.929 . S
C1096 C1093 1.432 1_545 S
C1096 C1094 1.417 . S
C1096 N1104 1.360 . S
C1097 C1093 1.414 . S
C1097 C1095 1.444 . S
C1097 C1102 1.385 . S
C1098 C1094 1.432 1_565 S
C1098 C1095 1.317 . S
C1098 H1110 0.930 . S
C1099 C1101 1.392 . S
C1099 C1102 1.370 . S
C1099 H1111 0.931 . S
N1100 C1093 1.359 . S
N1100 C1101 1.327 . S
N1100 Tb1103 2.600 1_565 S
C1101 C1099 1.392 . S
C1101 N1100 1.327 . S
C1101 H1108 0.930 . S
C1102 C1097 1.385 . S
C1102 C1099 1.370 . S
C1102 H1121 0.930 . S
Tb1103 N1100 2.600 1_545 S
Tb1103 N1104 2.660 . S
Tb1103 O1137 2.362 . S
Tb1103 O1138 2.421 . S
Tb1103 O1142 2.546 . S
Tb1103 O1143 2.610 . S
Tb1103 O1145 2.320 . S
Tb1103 O1146 2.552 . S
Tb1103 O1147 2.413 . S
Tb1103 C1167 2.833 . S
N1104 C1096 1.360 . S
N1104 Tb1103 2.660 . S
N1104 C1105 1.305 . S
C1105 N1104 1.305 . S
C1105 C1107 1.407 . S
C1105 H1112 0.930 . S
C1106 C1094 1.410 . S
C1106 C1107 1.345 . S
C1106 H1114 0.930 . S
C1107 C1105 1.407 . S
C1107 C1106 1.345 . S
C1107 H1109 0.930 . S
H1108 C1101 0.930 . S
H1109 C1107 0.930 . S
H1110 C1098 0.930 . S
H1111 C1099 0.931 . S
H1112 C1105 0.930 . S
H1113 C1127 0.930 . S
H1114 C1106 0.930 . S
H1115 C1133 0.930 . S
H1116 C1124 0.930 . S
H1117 C1131 0.931 . S
H1118 C1095 0.929 . S
H1119 C1125 0.930 . S
H1120 C1158 0.930 . S
H1121 C1102 0.930 . S
H1122 C1157 0.929 . S
N1123 Tb1092 2.660 . S
N1123 C1124 1.305 . S
N1123 C1128 1.360 . S
C1124 H1116 0.930 . S
C1124 N1123 1.305 . S
C1124 C1127 1.407 . S
C1125 H1119 0.930 . S
C1125 C1126 1.410 . S
C1125 C1127 1.345 . S
C1126 C1125 1.410 . S
C1126 C1128 1.417 . S
C1126 C1158 1.432 . S
C1127 H1113 0.930 . S
C1127 C1124 1.407 . S
C1127 C1125 1.345 . S
C1128 N1123 1.360 . S
C1128 C1126 1.417 . S
C1128 C1132 1.432 . S
H1129 C1134 0.930 . S
N1130 Tb1092 2.600 . S
N1130 C1132 1.359 . S
N1130 C1133 1.327 . S
C1131 H1117 0.931 . S
C1131 C1133 1.392 . S
C1131 C1134 1.370 . S
C1132 C1128 1.432 . S
C1132 N1130 1.359 . S
C1132 C1135 1.414 . S
C1133 H1115 0.930 . S
C1133 N1130 1.327 . S
C1133 C1131 1.392 . S
C1134 H1129 0.930 . S
C1134 C1131 1.370 . S
C1134 C1135 1.385 . S
C1135 C1132 1.414 . S
C1135 C1134 1.385 . S
C1135 C1157 1.444 . S
O1136 Tb1092 2.546 . S
O1136 C1156 1.251 . S
O1137 Tb1092 2.610 . S
O1137 Tb1103 2.362 . S
O1137 C1148 1.283 . S
O1138 Tb1103 2.421 . S
O1138 C1155 1.262 . S
O1139 Tb1092 2.320 . S
O1139 C1155 1.260 . S
O1140 Tb1092 2.552 . S
O1140 C1148 1.243 . S
O1141 Tb1092 2.413 . S
O1141 C1156 1.256 . S
O1142 Tb1103 2.546 . S
O1142 C1167 1.251 . S
O1143 Tb1092 2.362 . S
O1143 Tb1103 2.610 . S
O1143 C1159 1.283 . S
O1144 Tb1092 2.421 . S
O1144 C1166 1.262 . S
O1145 Tb1103 2.320 . S
O1145 C1166 1.260 . S
O1146 Tb1103 2.552 . S
O1146 C1159 1.243 . S
O1147 Tb1103 2.413 . S
O1147 C1167 1.256 . S
C1148 O1137 1.283 . S
C1148 O1140 1.243 . S
C1149 C1151 1.382 . S
C1149 C1153 1.393 . S
C1149 C1156 1.500 . S
C1150 C1151 1.400 . S
C1150 C1152 1.384 . S
C1151 C1149 1.382 . S
C1151 C1150 1.400 . S
C1151 H1168 0.930 . S
C1152 C1150 1.384 . S
C1152 C1154 1.392 . S
C1152 H1169 0.931 . S
C1153 C1149 1.393 . S
C1153 C1154 1.401 . S
C1153 H1170 0.930 . S
C1154 C1152 1.392 . S
C1154 C1153 1.401 . S
C1154 H1171 0.930 . S
C1155 O1138 1.262 . S
C1155 O1139 1.260 . S
C1156 Tb1092 2.833 . S
C1156 O1136 1.251 . S
C1156 O1141 1.256 . S
C1156 C1149 1.500 . S
C1157 H1122 0.929 . S
C1157 C1135 1.444 . S
C1157 C1158 1.317 . S
C1158 H1120 0.930 . S
C1158 C1126 1.432 . S
C1158 C1157 1.317 . S
C1159 O1143 1.283 . S
C1159 O1146 1.243 . S
C1160 C1161 1.382 . S
C1160 C1164 1.393 . S
C1160 C1167 1.500 . S
C1161 C1160 1.382 . S
C1161 C1162 1.400 . S
C1161 H1172 0.930 . S
C1162 C1161 1.400 . S
C1162 C1163 1.384 . S
C1163 C1162 1.384 . S
C1163 C1165 1.392 . S
C1163 H1173 0.931 . S
C1164 C1160 1.393 . S
C1164 C1165 1.401 . S
C1164 H1174 0.930 . S
C1165 C1163 1.392 . S
C1165 C1164 1.401 . S
C1165 H1175 0.930 . S
C1166 O1144 1.262 . S
C1166 O1145 1.260 . S
C1167 Tb1103 2.833 . S
C1167 O1142 1.251 . S
C1167 O1147 1.256 . S
C1167 C1160 1.500 . S
H1168 C1151 0.930 . S
H1169 C1152 0.931 . S
H1170 C1153 0.930 . S
H1171 C1154 0.930 . S
H1172 C1161 0.930 . S
H1173 C1163 0.931 . S
H1174 C1164 0.930 . S
H1175 C1165 0.930 . S
Tb1176 N1207 2.660 . S
Tb1176 N1214 2.600 . S
Tb1176 O1220 2.546 . S
Tb1176 O1221 2.610 . S
Tb1176 O1223 2.320 . S
Tb1176 O1224 2.552 . S
Tb1176 O1225 2.413 . S
Tb1176 O1227 2.362 . S
Tb1176 O1228 2.421 . S
Tb1176 C1240 2.833 . S
C1177 C1180 1.432 . S
C1177 C1181 1.414 . S
C1177 N1184 1.359 . S
C1178 C1180 1.417 . S
C1178 C1182 1.432 . S
C1178 C1190 1.410 . S
C1179 C1181 1.444 . S
C1179 C1182 1.317 . S
C1179 H1202 0.929 . S
C1180 C1177 1.432 . S
C1180 C1178 1.417 . S
C1180 N1188 1.360 . S
C1181 C1177 1.414 . S
C1181 C1179 1.444 . S
C1181 C1186 1.385 . S
C1182 C1178 1.432 . S
C1182 C1179 1.317 . S
C1182 H1194 0.930 . S
C1183 C1185 1.392 . S
C1183 C1186 1.370 . S
C1183 H1195 0.931 . S
N1184 C1177 1.359 . S
N1184 C1185 1.327 . S
N1184 Tb1187 2.600 . S
C1185 C1183 1.392 . S
C1185 N1184 1.327 . S
C1185 H1192 0.930 . S
C1186 C1181 1.385 . S
C1186 C1183 1.370 . S
C1186 H1205 0.930 . S
Tb1187 N1184 2.600 . S
Tb1187 N1188 2.660 . S
Tb1187 O1221 2.362 . S
Tb1187 O1222 2.421 . S
Tb1187 O1226 2.546 . S
Tb1187 O1227 2.610 . S
Tb1187 O1229 2.320 . S
Tb1187 O1230 2.552 . S
Tb1187 O1231 2.413 . S
Tb1187 C1251 2.833 . S
N1188 C1180 1.360 . S
N1188 Tb1187 2.660 . S
N1188 C1189 1.305 . S
C1189 N1188 1.305 . S
C1189 C1191 1.407 . S
C1189 H1196 0.930 . S
C1190 C1178 1.410 . S
C1190 C1191 1.345 . S
C1190 H1198 0.930 . S
C1191 C1189 1.407 . S
C1191 C1190 1.345 . S
C1191 H1193 0.930 . S
H1192 C1185 0.930 . S
H1193 C1191 0.930 . S
H1194 C1182 0.930 . S
H1195 C1183 0.931 . S
H1196 C1189 0.930 . S
H1197 C1211 0.930 . S
H1198 C1190 0.930 . S
H1199 C1217 0.930 . S
H1200 C1208 0.930 . S
H1201 C1215 0.931 . S
H1202 C1179 0.929 . S
H1203 C1209 0.930 . S
H1204 C1242 0.930 . S
H1205 C1186 0.930 . S
H1206 C1241 0.929 . S
N1207 Tb1176 2.660 . S
N1207 C1208 1.305 . S
N1207 C1212 1.360 . S
C1208 H1200 0.930 . S
C1208 N1207 1.305 . S
C1208 C1211 1.407 . S
C1209 H1203 0.930 . S
C1209 C1210 1.410 . S
C1209 C1211 1.345 . S
C1210 C1209 1.410 . S
C1210 C1212 1.417 . S
C1210 C1242 1.432 . S
C1211 H1197 0.930 . S
C1211 C1208 1.407 . S
C1211 C1209 1.345 . S
C1212 N1207 1.360 . S
C1212 C1210 1.417 . S
C1212 C1216 1.432 . S
H1213 C1218 0.930 . S
N1214 Tb1176 2.600 . S
N1214 C1216 1.359 . S
N1214 C1217 1.327 . S
C1215 H1201 0.931 . S
C1215 C1217 1.392 . S
C1215 C1218 1.370 . S
C1216 C1212 1.432 . S
C1216 N1214 1.359 . S
C1216 C1219 1.414 . S
C1217 H1199 0.930 . S
C1217 N1214 1.327 . S
C1217 C1215 1.392 . S
C1218 H1213 0.930 . S
C1218 C1215 1.370 . S
C1218 C1219 1.385 . S
C1219 C1216 1.414 . S
C1219 C1218 1.385 . S
C1219 C1241 1.444 . S
O1220 Tb1176 2.546 . S
O1220 C1240 1.251 . S
O1221 Tb1176 2.610 . S
O1221 Tb1187 2.362 . S
O1221 C1232 1.283 . S
O1222 Tb1187 2.421 . S
O1222 C1239 1.262 . S
O1223 Tb1176 2.320 . S
O1223 C1239 1.260 . S
O1224 Tb1176 2.552 . S
O1224 C1232 1.243 . S
O1225 Tb1176 2.413 . S
O1225 C1240 1.256 . S
O1226 Tb1187 2.546 . S
O1226 C1251 1.251 . S
O1227 Tb1176 2.362 . S
O1227 Tb1187 2.610 . S
O1227 C1243 1.283 . S
O1228 Tb1176 2.421 . S
O1228 C1250 1.262 . S
O1229 Tb1187 2.320 . S
O1229 C1250 1.260 . S
O1230 Tb1187 2.552 . S
O1230 C1243 1.243 . S
O1231 Tb1187 2.413 . S
O1231 C1251 1.256 . S
C1232 O1221 1.283 . S
C1232 O1224 1.243 . S
C1233 C1235 1.382 . S
C1233 C1237 1.393 . S
C1233 C1240 1.500 . S
C1234 C1235 1.400 . S
C1234 C1236 1.384 . S
C1235 C1233 1.382 . S
C1235 C1234 1.400 . S
C1235 H1252 0.930 . S
C1236 C1234 1.384 . S
C1236 C1238 1.392 . S
C1236 H1253 0.931 . S
C1237 C1233 1.393 . S
C1237 C1238 1.401 . S
C1237 H1254 0.930 . S
C1238 C1236 1.392 . S
C1238 C1237 1.401 . S
C1238 H1255 0.930 . S
C1239 O1222 1.262 . S
C1239 O1223 1.260 . S
C1240 Tb1176 2.833 . S
C1240 O1220 1.251 . S
C1240 O1225 1.256 . S
C1240 C1233 1.500 . S
C1241 H1206 0.929 . S
C1241 C1219 1.444 . S
C1241 C1242 1.317 . S
C1242 H1204 0.930 . S
C1242 C1210 1.432 . S
C1242 C1241 1.317 . S
C1243 O1227 1.283 . S
C1243 O1230 1.243 . S
C1244 C1245 1.382 . S
C1244 C1248 1.393 . S
C1244 C1251 1.500 . S
C1245 C1244 1.382 . S
C1245 C1246 1.400 . S
C1245 H1256 0.930 . S
C1246 C1245 1.400 . S
C1246 C1247 1.384 . S
C1247 C1246 1.384 . S
C1247 C1249 1.392 . S
C1247 H1257 0.931 . S
C1248 C1244 1.393 . S
C1248 C1249 1.401 . S
C1248 H1258 0.930 . S
C1249 C1247 1.392 . S
C1249 C1248 1.401 . S
C1249 H1259 0.930 . S
C1250 O1228 1.262 . S
C1250 O1229 1.260 . S
C1251 Tb1187 2.833 . S
C1251 O1226 1.251 . S
C1251 O1231 1.256 . S
C1251 C1244 1.500 . S
H1252 C1235 0.930 . S
H1253 C1236 0.931 . S
H1254 C1237 0.930 . S
H1255 C1238 0.930 . S
H1256 C1245 0.930 . S
H1257 C1247 0.931 . S
H1258 C1248 0.930 . S
H1259 C1249 0.930 . S
Tb1260 N1291 2.660 . S
Tb1260 N1298 2.600 . S
Tb1260 O1304 2.546 . S
Tb1260 O1305 2.610 . S
Tb1260 O1307 2.320 . S
Tb1260 O1308 2.552 . S
Tb1260 O1309 2.413 . S
Tb1260 O1311 2.362 . S
Tb1260 O1312 2.421 . S
Tb1260 C1324 2.833 . S
C1261 C1264 1.432 1_545 S
C1261 C1265 1.414 . S
C1261 N1268 1.359 1_455 S
C1262 C1264 1.417 . S
C1262 C1266 1.432 1_565 S
C1262 C1274 1.410 . S
C1263 C1265 1.444 . S
C1263 C1266 1.317 . S
C1263 H1286 0.929 . S
C1264 C1261 1.432 1_565 S
C1264 C1262 1.417 . S
C1264 N1272 1.360 . S
C1265 C1261 1.414 . S
C1265 C1263 1.444 . S
C1265 C1270 1.385 . S
C1266 C1262 1.432 1_545 S
C1266 C1263 1.317 . S
C1266 H1278 0.930 . S
C1267 C1269 1.392 1_455 S
C1267 C1270 1.370 . S
C1267 H1279 0.931 1_455 S
N1268 C1261 1.359 1_655 S
N1268 C1269 1.327 . S
N1268 Tb1271 2.600 1_545 S
C1269 C1267 1.392 1_655 S
C1269 N1268 1.327 . S
C1269 H1276 0.930 . S
C1270 C1265 1.385 . S
C1270 C1267 1.370 . S
C1270 H1289 0.930 . S
Tb1271 N1268 2.600 1_565 S
Tb1271 N1272 2.660 1_655 S
Tb1271 O1305 2.362 . S
Tb1271 O1306 2.421 . S
Tb1271 O1310 2.556 . S
Tb1271 O1311 2.610 . S
Tb1271 O1313 2.320 . S
Tb1271 O1314 2.552 . S
Tb1271 O1315 2.413 1_655 S
Tb1271 C1335 2.833 1_655 S
N1272 C1264 1.360 . S
N1272 Tb1271 2.660 1_455 S
N1272 C1273 1.305 . S
C1273 N1272 1.305 . S
C1273 C1275 1.407 . S
C1273 H1280 0.930 . S
C1274 C1262 1.410 . S
C1274 C1275 1.345 . S
C1274 H1282 0.930 . S
C1275 C1273 1.407 . S
C1275 C1274 1.345 . S
C1275 H1277 0.930 . S
H1276 C1269 0.930 . S
H1277 C1275 0.930 . S
H1278 C1266 0.930 . S
H1279 C1267 0.931 1_655 S
H1280 C1273 0.930 . S
H1281 C1295 0.930 . S
H1282 C1274 0.930 . S
H1283 C1301 0.930 . S
H1284 C1292 0.930 . S
H1285 C1299 0.931 . S
H1286 C1263 0.929 . S
H1287 C1293 0.930 . S
H1288 C1326 0.930 . S
H1289 C1270 0.930 . S
H1290 C1325 0.929 . S
N1291 Tb1260 2.660 . S
N1291 C1292 1.305 . S
N1291 C1296 1.360 . S
C1292 H1284 0.930 . S
C1292 N1291 1.305 . S
C1292 C1295 1.407 . S
C1293 H1287 0.930 . S
C1293 C1294 1.410 . S
C1293 C1295 1.345 . S
C1294 C1293 1.410 . S
C1294 C1296 1.417 . S
C1294 C1326 1.432 . S
C1295 H1281 0.930 . S
C1295 C1292 1.407 . S
C1295 C1293 1.345 . S
C1296 N1291 1.360 . S
C1296 C1294 1.417 . S
C1296 C1300 1.432 . S
H1297 C1302 0.930 . S
N1298 Tb1260 2.600 . S
N1298 C1300 1.359 . S
N1298 C1301 1.327 . S
C1299 H1285 0.931 . S
C1299 C1301 1.392 . S
C1299 C1302 1.370 . S
C1300 C1296 1.432 . S
C1300 N1298 1.359 . S
C1300 C1303 1.414 . S
C1301 H1283 0.930 . S
C1301 N1298 1.327 . S
C1301 C1299 1.392 . S
C1302 H1297 0.930 . S
C1302 C1299 1.370 . S
C1302 C1303 1.385 . S
C1303 C1300 1.414 . S
C1303 C1302 1.385 . S
C1303 C1325 1.444 . S
O1304 Tb1260 2.546 . S
O1304 C1324 1.251 . S
O1305 Tb1260 2.610 . S
O1305 Tb1271 2.362 . S
O1305 C1316 1.283 . S
O1306 Tb1271 2.421 . S
O1306 C1323 1.262 . S
O1307 Tb1260 2.320 . S
O1307 C1323 1.260 . S
O1308 Tb1260 2.552 . S
O1308 C1316 1.243 . S
O1309 Tb1260 2.413 . S
O1309 C1324 1.256 . S
O1310 Tb1271 2.556 . S
O1310 C1335 1.233 1_655 S
O1311 Tb1260 2.362 . S
O1311 Tb1271 2.610 . S
O1311 C1327 1.283 . S
O1312 Tb1260 2.421 . S
O1312 C1334 1.262 . S
O1313 Tb1271 2.320 . S
O1313 C1334 1.260 . S
O1314 Tb1271 2.552 . S
O1314 C1327 1.243 . S
O1315 Tb1271 2.413 1_455 S
O1315 C1335 1.256 . S
C1316 O1305 1.283 . S
C1316 O1308 1.243 . S
C1317 C1319 1.382 . S
C1317 C1321 1.393 . S
C1317 C1324 1.500 . S
C1318 C1319 1.400 . S
C1318 C1320 1.384 . S
C1319 C1317 1.382 . S
C1319 C1318 1.400 . S
C1319 H1336 0.930 . S
C1320 C1318 1.384 . S
C1320 C1322 1.392 . S
C1320 H1337 0.931 . S
C1321 C1317 1.393 . S
C1321 C1322 1.401 . S
C1321 H1338 0.930 . S
C1322 C1320 1.392 . S
C1322 C1321 1.401 . S
C1322 H1339 0.930 . S
C1323 O1306 1.262 . S
C1323 O1307 1.260 . S
C1324 Tb1260 2.833 . S
C1324 O1304 1.251 . S
C1324 O1309 1.256 . S
C1324 C1317 1.500 . S
C1325 H1290 0.929 . S
C1325 C1303 1.444 . S
C1325 C1326 1.317 . S
C1326 H1288 0.930 . S
C1326 C1294 1.432 . S
C1326 C1325 1.317 . S
C1327 O1311 1.283 . S
C1327 O1314 1.243 . S
C1328 C1329 1.382 . S
C1328 C1332 1.393 . S
C1328 C1335 1.500 . S
C1329 C1328 1.382 . S
C1329 C1330 1.400 . S
C1329 H1340 0.930 . S
C1330 C1329 1.400 . S
C1330 C1331 1.384 . S
C1331 C1330 1.384 . S
C1331 C1333 1.392 . S
C1331 H1341 0.931 . S
C1332 C1328 1.393 . S
C1332 C1333 1.401 . S
C1332 H1342 0.930 . S
C1333 C1331 1.392 . S
C1333 C1332 1.401 . S
C1333 H1343 0.930 . S
C1334 O1312 1.262 . S
C1334 O1313 1.260 . S
C1335 Tb1271 2.833 1_455 S
C1335 O1310 1.233 1_455 S
C1335 O1315 1.256 . S
C1335 C1328 1.500 . S
H1336 C1319 0.930 . S
H1337 C1320 0.931 . S
H1338 C1321 0.930 . S
H1339 C1322 0.930 . S
H1340 C1329 0.930 . S
H1341 C1331 0.931 . S
H1342 C1332 0.930 . S
H1343 C1333 0.930 . S
Tb1344 N1375 2.660 . S
Tb1344 N1382 2.600 . S
Tb1344 O1388 2.546 . S
Tb1344 O1389 2.610 . S
Tb1344 O1391 2.320 . S
Tb1344 O1392 2.552 . S
Tb1344 O1393 2.413 . S
Tb1344 O1395 2.362 . S
Tb1344 O1396 2.421 . S
Tb1344 C1408 2.833 . S
C1345 C1348 1.432 . S
C1345 C1349 1.414 . S
C1345 N1352 1.359 . S
C1346 C1348 1.417 . S
C1346 C1350 1.432 . S
C1346 C1358 1.410 . S
C1347 C1349 1.444 . S
C1347 C1350 1.317 . S
C1347 H1370 0.929 . S
C1348 C1345 1.432 . S
C1348 C1346 1.417 . S
C1348 N1356 1.360 . S
C1349 C1345 1.414 . S
C1349 C1347 1.444 . S
C1349 C1354 1.385 . S
C1350 C1346 1.432 . S
C1350 C1347 1.317 . S
C1350 H1362 0.930 . S
C1351 C1353 1.392 . S
C1351 C1354 1.370 . S
C1351 H1363 0.931 . S
N1352 C1345 1.359 . S
N1352 C1353 1.327 . S
N1352 Tb1355 2.600 . S
C1353 C1351 1.392 . S
C1353 N1352 1.327 . S
C1353 H1360 0.930 . S
C1354 C1349 1.385 . S
C1354 C1351 1.370 . S
C1354 H1373 0.930 . S
Tb1355 N1352 2.600 . S
Tb1355 N1356 2.660 . S
Tb1355 O1389 2.362 . S
Tb1355 O1390 2.421 . S
Tb1355 O1394 2.546 . S
Tb1355 O1395 2.610 . S
Tb1355 O1397 2.320 . S
Tb1355 O1398 2.552 . S
Tb1355 O1399 2.413 . S
Tb1355 C1419 2.833 . S
N1356 C1348 1.360 . S
N1356 Tb1355 2.660 . S
N1356 C1357 1.305 . S
C1357 N1356 1.305 . S
C1357 C1359 1.407 . S
C1357 H1364 0.930 . S
C1358 C1346 1.410 . S
C1358 C1359 1.345 . S
C1358 H1366 0.930 . S
C1359 C1357 1.407 . S
C1359 C1358 1.345 . S
C1359 H1361 0.930 . S
H1360 C1353 0.930 . S
H1361 C1359 0.930 . S
H1362 C1350 0.930 . S
H1363 C1351 0.931 . S
H1364 C1357 0.930 . S
H1365 C1379 0.930 . S
H1366 C1358 0.930 . S
H1367 C1385 0.930 . S
H1368 C1376 0.930 . S
H1369 C1383 0.931 . S
H1370 C1347 0.929 . S
H1371 C1377 0.930 . S
H1372 C1410 0.930 . S
H1373 C1354 0.930 . S
H1374 C1409 0.929 . S
N1375 Tb1344 2.660 . S
N1375 C1376 1.305 . S
N1375 C1380 1.360 . S
C1376 H1368 0.930 . S
C1376 N1375 1.305 . S
C1376 C1379 1.407 . S
C1377 H1371 0.930 . S
C1377 C1378 1.410 . S
C1377 C1379 1.345 . S
C1378 C1377 1.410 . S
C1378 C1380 1.417 . S
C1378 C1410 1.432 . S
C1379 H1365 0.930 . S
C1379 C1376 1.407 . S
C1379 C1377 1.345 . S
C1380 N1375 1.360 . S
C1380 C1378 1.417 . S
C1380 C1384 1.432 . S
H1381 C1386 0.930 . S
N1382 Tb1344 2.600 . S
N1382 C1384 1.359 . S
N1382 C1385 1.327 . S
C1383 H1369 0.931 . S
C1383 C1385 1.392 . S
C1383 C1386 1.370 . S
C1384 C1380 1.432 . S
C1384 N1382 1.359 . S
C1384 C1387 1.414 . S
C1385 H1367 0.930 . S
C1385 N1382 1.327 . S
C1385 C1383 1.392 . S
C1386 H1381 0.930 . S
C1386 C1383 1.370 . S
C1386 C1387 1.385 . S
C1387 C1384 1.414 . S
C1387 C1386 1.385 . S
C1387 C1409 1.444 . S
O1388 Tb1344 2.546 . S
O1388 C1408 1.251 . S
O1389 Tb1344 2.610 . S
O1389 Tb1355 2.362 . S
O1389 C1400 1.283 . S
O1390 Tb1355 2.421 . S
O1390 C1407 1.262 . S
O1391 Tb1344 2.320 . S
O1391 C1407 1.260 . S
O1392 Tb1344 2.552 . S
O1392 C1400 1.243 . S
O1393 Tb1344 2.413 . S
O1393 C1408 1.256 . S
O1394 Tb1355 2.546 . S
O1394 C1419 1.251 . S
O1395 Tb1344 2.362 . S
O1395 Tb1355 2.610 . S
O1395 C1411 1.283 . S
O1396 Tb1344 2.421 . S
O1396 C1418 1.262 . S
O1397 Tb1355 2.320 . S
O1397 C1418 1.260 . S
O1398 Tb1355 2.552 . S
O1398 C1411 1.243 . S
O1399 Tb1355 2.413 . S
O1399 C1419 1.256 . S
C1400 O1389 1.283 . S
C1400 O1392 1.243 . S
C1401 C1403 1.382 . S
C1401 C1405 1.393 . S
C1401 C1408 1.500 . S
C1402 C1403 1.400 . S
C1402 C1404 1.384 . S
C1403 C1401 1.382 . S
C1403 C1402 1.400 . S
C1403 H1420 0.930 . S
C1404 C1402 1.384 . S
C1404 C1406 1.392 . S
C1404 H1421 0.931 . S
C1405 C1401 1.393 . S
C1405 C1406 1.401 . S
C1405 H1422 0.930 . S
C1406 C1404 1.392 . S
C1406 C1405 1.401 . S
C1406 H1423 0.930 . S
C1407 O1390 1.262 . S
C1407 O1391 1.260 . S
C1408 Tb1344 2.833 . S
C1408 O1388 1.251 . S
C1408 O1393 1.256 . S
C1408 C1401 1.500 . S
C1409 H1374 0.929 . S
C1409 C1387 1.444 . S
C1409 C1410 1.317 . S
C1410 H1372 0.930 . S
C1410 C1378 1.432 . S
C1410 C1409 1.317 . S
C1411 O1395 1.283 . S
C1411 O1398 1.243 . S
C1412 C1413 1.382 . S
C1412 C1416 1.393 . S
C1412 C1419 1.500 . S
C1413 C1412 1.382 . S
C1413 C1414 1.400 . S
C1413 H1424 0.930 . S
C1414 C1413 1.400 . S
C1414 C1415 1.384 . S
C1415 C1414 1.384 . S
C1415 C1417 1.392 . S
C1415 H1425 0.931 . S
C1416 C1412 1.393 . S
C1416 C1417 1.401 . S
C1416 H1426 0.930 . S
C1417 C1415 1.392 . S
C1417 C1416 1.401 . S
C1417 H1427 0.930 . S
C1418 O1396 1.262 . S
C1418 O1397 1.260 . S
C1419 Tb1355 2.833 . S
C1419 O1394 1.251 . S
C1419 O1399 1.256 . S
C1419 C1412 1.500 . S
H1420 C1403 0.930 . S
H1421 C1404 0.931 . S
H1422 C1405 0.930 . S
H1423 C1406 0.930 . S
H1424 C1413 0.930 . S
H1425 C1415 0.931 . S
H1426 C1416 0.930 . S
H1427 C1417 0.930 . S
Tb1428 N1459 2.660 . S
Tb1428 N1466 2.600 . S
Tb1428 O1472 2.546 . S
Tb1428 O1473 2.610 . S
Tb1428 O1475 2.320 . S
Tb1428 O1476 2.552 . S
Tb1428 O1477 2.413 . S
Tb1428 O1479 2.362 . S
Tb1428 O1480 2.421 . S
Tb1428 C1492 2.833 . S
C1429 C1432 1.432 . S
C1429 C1433 1.414 . S
C1429 N1436 1.359 . S
C1430 C1432 1.417 . S
C1430 C1434 1.432 . S
C1430 C1442 1.410 . S
C1431 C1433 1.444 . S
C1431 C1434 1.317 . S
C1431 H1454 0.929 . S
C1432 C1429 1.432 . S
C1432 C1430 1.417 . S
C1432 N1440 1.360 . S
C1433 C1429 1.414 . S
C1433 C1431 1.444 . S
C1433 C1438 1.385 . S
C1434 C1430 1.432 . S
C1434 C1431 1.317 . S
C1434 H1446 0.930 . S
C1435 C1437 1.392 . S
C1435 C1438 1.370 . S
C1435 H1447 0.931 . S
N1436 C1429 1.359 . S
N1436 C1437 1.327 . S
N1436 Tb1439 2.600 . S
C1437 C1435 1.392 . S
C1437 N1436 1.327 . S
C1437 H1444 0.930 . S
C1438 C1433 1.385 . S
C1438 C1435 1.370 . S
C1438 H1457 0.930 . S
Tb1439 N1436 2.600 . S
Tb1439 N1440 2.660 . S
Tb1439 O1473 2.362 . S
Tb1439 O1474 2.421 . S
Tb1439 O1478 2.546 . S
Tb1439 O1479 2.610 . S
Tb1439 O1481 2.320 . S
Tb1439 O1482 2.552 . S
Tb1439 O1483 2.413 . S
Tb1439 C1503 2.833 . S
N1440 C1432 1.360 . S
N1440 Tb1439 2.660 . S
N1440 C1441 1.305 . S
C1441 N1440 1.305 . S
C1441 C1443 1.407 . S
C1441 H1448 0.930 . S
C1442 C1430 1.410 . S
C1442 C1443 1.345 . S
C1442 H1450 0.930 . S
C1443 C1441 1.407 . S
C1443 C1442 1.345 . S
C1443 H1445 0.930 . S
H1444 C1437 0.930 . S
H1445 C1443 0.930 . S
H1446 C1434 0.930 . S
H1447 C1435 0.931 . S
H1448 C1441 0.930 . S
H1449 C1463 0.930 . S
H1450 C1442 0.930 . S
H1451 C1469 0.930 . S
H1452 C1460 0.930 . S
H1453 C1467 0.931 . S
H1454 C1431 0.929 . S
H1455 C1461 0.930 . S
H1456 C1494 0.930 . S
H1457 C1438 0.930 . S
H1458 C1493 0.929 . S
N1459 Tb1428 2.660 . S
N1459 C1460 1.305 . S
N1459 C1464 1.360 . S
C1460 H1452 0.930 . S
C1460 N1459 1.305 . S
C1460 C1463 1.407 . S
C1461 H1455 0.930 . S
C1461 C1462 1.410 . S
C1461 C1463 1.345 . S
C1462 C1461 1.410 . S
C1462 C1464 1.417 . S
C1462 C1494 1.432 . S
C1463 H1449 0.930 . S
C1463 C1460 1.407 . S
C1463 C1461 1.345 . S
C1464 N1459 1.360 . S
C1464 C1462 1.417 . S
C1464 C1468 1.432 . S
H1465 C1470 0.930 . S
N1466 Tb1428 2.600 . S
N1466 C1468 1.359 . S
N1466 C1469 1.327 . S
C1467 H1453 0.931 . S
C1467 C1469 1.392 . S
C1467 C1470 1.370 . S
C1468 C1464 1.432 . S
C1468 N1466 1.359 . S
C1468 C1471 1.414 . S
C1469 H1451 0.930 . S
C1469 N1466 1.327 . S
C1469 C1467 1.392 . S
C1470 H1465 0.930 . S
C1470 C1467 1.370 . S
C1470 C1471 1.385 . S
C1471 C1468 1.414 . S
C1471 C1470 1.385 . S
C1471 C1493 1.444 . S
O1472 Tb1428 2.546 . S
O1472 C1492 1.251 . S
O1473 Tb1428 2.610 . S
O1473 Tb1439 2.362 . S
O1473 C1484 1.283 . S
O1474 Tb1439 2.421 . S
O1474 C1491 1.262 . S
O1475 Tb1428 2.320 . S
O1475 C1491 1.260 . S
O1476 Tb1428 2.552 . S
O1476 C1484 1.243 . S
O1477 Tb1428 2.413 . S
O1477 C1492 1.256 . S
O1478 Tb1439 2.546 . S
O1478 C1503 1.251 . S
O1479 Tb1428 2.362 . S
O1479 Tb1439 2.610 . S
O1479 C1495 1.283 . S
O1480 Tb1428 2.421 . S
O1480 C1502 1.262 . S
O1481 Tb1439 2.320 . S
O1481 C1502 1.260 . S
O1482 Tb1439 2.552 . S
O1482 C1495 1.243 . S
O1483 Tb1439 2.413 . S
O1483 C1503 1.256 . S
C1484 O1473 1.283 . S
C1484 O1476 1.243 . S
C1485 C1487 1.382 . S
C1485 C1489 1.393 . S
C1485 C1492 1.500 . S
C1486 C1487 1.400 . S
C1486 C1488 1.384 . S
C1487 C1485 1.382 . S
C1487 C1486 1.400 . S
C1487 H1504 0.930 . S
C1488 C1486 1.384 . S
C1488 C1490 1.392 . S
C1488 H1505 0.931 . S
C1489 C1485 1.393 . S
C1489 C1490 1.401 . S
C1489 H1506 0.930 . S
C1490 C1488 1.392 . S
C1490 C1489 1.401 . S
C1490 H1507 0.930 . S
C1491 O1474 1.262 . S
C1491 O1475 1.260 . S
C1492 Tb1428 2.833 . S
C1492 O1472 1.251 . S
C1492 O1477 1.256 . S
C1492 C1485 1.500 . S
C1493 H1458 0.929 . S
C1493 C1471 1.444 . S
C1493 C1494 1.317 . S
C1494 H1456 0.930 . S
C1494 C1462 1.432 . S
C1494 C1493 1.317 . S
C1495 O1479 1.283 . S
C1495 O1482 1.243 . S
C1496 C1497 1.382 . S
C1496 C1500 1.393 . S
C1496 C1503 1.500 . S
C1497 C1496 1.382 . S
C1497 C1498 1.400 . S
C1497 H1508 0.930 . S
C1498 C1497 1.400 . S
C1498 C1499 1.384 . S
C1499 C1498 1.384 . S
C1499 C1501 1.392 . S
C1499 H1509 0.931 . S
C1500 C1496 1.393 . S
C1500 C1501 1.401 . S
C1500 H1510 0.930 . S
C1501 C1499 1.392 . S
C1501 C1500 1.401 . S
C1501 H1511 0.930 . S
C1502 O1480 1.262 . S
C1502 O1481 1.260 . S
C1503 Tb1439 2.833 . S
C1503 O1478 1.251 . S
C1503 O1483 1.256 . S
C1503 C1496 1.500 . S
H1504 C1487 0.930 . S
H1505 C1488 0.931 . S
H1506 C1489 0.930 . S
H1507 C1490 0.930 . S
H1508 C1497 0.930 . S
H1509 C1499 0.931 . S
H1510 C1500 0.930 . S
H1511 C1501 0.930 . S
Tb1512 N1543 2.660 . S
Tb1512 N1550 2.600 . S
Tb1512 O1556 2.546 . S
Tb1512 O1557 2.610 . S
Tb1512 O1559 2.320 . S
Tb1512 O1560 2.552 . S
Tb1512 O1561 2.413 . S
Tb1512 O1563 2.362 . S
Tb1512 O1564 2.421 . S
Tb1512 C1576 2.833 . S
C1513 C1516 1.432 . S
C1513 C1517 1.414 . S
C1513 N1520 1.359 . S
C1514 C1516 1.417 . S
C1514 C1518 1.432 . S
C1514 C1526 1.410 . S
C1515 C1517 1.444 . S
C1515 C1518 1.317 . S
C1515 H1538 0.929 . S
C1516 C1513 1.432 . S
C1516 C1514 1.417 . S
C1516 N1524 1.360 . S
C1517 C1513 1.414 . S
C1517 C1515 1.444 . S
C1517 C1522 1.385 . S
C1518 C1514 1.432 . S
C1518 C1515 1.317 . S
C1518 H1530 0.930 . S
C1519 C1521 1.392 . S
C1519 C1522 1.370 . S
C1519 H1531 0.931 . S
N1520 C1513 1.359 . S
N1520 C1521 1.327 . S
N1520 Tb1523 2.600 . S
C1521 C1519 1.392 . S
C1521 N1520 1.327 . S
C1521 H1528 0.930 . S
C1522 C1517 1.385 . S
C1522 C1519 1.370 . S
C1522 H1541 0.930 . S
Tb1523 N1520 2.600 . S
Tb1523 N1524 2.660 . S
Tb1523 O1557 2.362 . S
Tb1523 O1558 2.421 . S
Tb1523 O1562 2.546 . S
Tb1523 O1563 2.610 . S
Tb1523 O1565 2.320 . S
Tb1523 O1566 2.552 . S
Tb1523 O1567 2.413 . S
Tb1523 C1587 2.833 . S
N1524 C1516 1.360 . S
N1524 Tb1523 2.660 . S
N1524 C1525 1.305 . S
C1525 N1524 1.305 . S
C1525 C1527 1.407 . S
C1525 H1532 0.930 . S
C1526 C1514 1.410 . S
C1526 C1527 1.345 . S
C1526 H1534 0.930 . S
C1527 C1525 1.407 . S
C1527 C1526 1.345 . S
C1527 H1529 0.930 . S
H1528 C1521 0.930 . S
H1529 C1527 0.930 . S
H1530 C1518 0.930 . S
H1531 C1519 0.931 . S
H1532 C1525 0.930 . S
H1533 C1547 0.930 . S
H1534 C1526 0.930 . S
H1535 C1553 0.930 . S
H1536 C1544 0.930 . S
H1537 C1551 0.931 . S
H1538 C1515 0.929 . S
H1539 C1545 0.930 . S
H1540 C1578 0.930 . S
H1541 C1522 0.930 . S
H1542 C1577 0.929 . S
N1543 Tb1512 2.660 . S
N1543 C1544 1.305 . S
N1543 C1548 1.360 . S
C1544 H1536 0.930 . S
C1544 N1543 1.305 . S
C1544 C1547 1.407 . S
C1545 H1539 0.930 . S
C1545 C1546 1.410 . S
C1545 C1547 1.345 . S
C1546 C1545 1.410 . S
C1546 C1548 1.417 . S
C1546 C1578 1.432 . S
C1547 H1533 0.930 . S
C1547 C1544 1.407 . S
C1547 C1545 1.345 . S
C1548 N1543 1.360 . S
C1548 C1546 1.417 . S
C1548 C1552 1.432 . S
H1549 C1554 0.930 . S
N1550 Tb1512 2.600 . S
N1550 C1552 1.359 . S
N1550 C1553 1.327 . S
C1551 H1537 0.931 . S
C1551 C1553 1.392 . S
C1551 C1554 1.370 . S
C1552 C1548 1.432 . S
C1552 N1550 1.359 . S
C1552 C1555 1.414 . S
C1553 H1535 0.930 . S
C1553 N1550 1.327 . S
C1553 C1551 1.392 . S
C1554 H1549 0.930 . S
C1554 C1551 1.370 . S
C1554 C1555 1.385 . S
C1555 C1552 1.414 . S
C1555 C1554 1.385 . S
C1555 C1577 1.444 . S
O1556 Tb1512 2.546 . S
O1556 C1576 1.251 . S
O1557 Tb1512 2.610 . S
O1557 Tb1523 2.362 . S
O1557 C1568 1.283 . S
O1558 Tb1523 2.421 . S
O1558 C1575 1.262 . S
O1559 Tb1512 2.320 . S
O1559 C1575 1.260 . S
O1560 Tb1512 2.552 . S
O1560 C1568 1.243 . S
O1561 Tb1512 2.413 . S
O1561 C1576 1.256 . S
O1562 Tb1523 2.546 . S
O1562 C1587 1.251 . S
O1563 Tb1512 2.362 . S
O1563 Tb1523 2.610 . S
O1563 C1579 1.283 . S
O1564 Tb1512 2.421 . S
O1564 C1586 1.262 . S
O1565 Tb1523 2.320 . S
O1565 C1586 1.260 . S
O1566 Tb1523 2.552 . S
O1566 C1579 1.243 . S
O1567 Tb1523 2.413 . S
O1567 C1587 1.256 . S
C1568 O1557 1.283 . S
C1568 O1560 1.243 . S
C1569 C1571 1.382 . S
C1569 C1573 1.393 . S
C1569 C1576 1.500 . S
C1570 C1571 1.400 . S
C1570 C1572 1.384 . S
C1571 C1569 1.382 . S
C1571 C1570 1.400 . S
C1571 H1588 0.930 . S
C1572 C1570 1.384 . S
C1572 C1574 1.392 . S
C1572 H1589 0.931 . S
C1573 C1569 1.393 . S
C1573 C1574 1.401 . S
C1573 H1590 0.930 . S
C1574 C1572 1.392 . S
C1574 C1573 1.401 . S
C1574 H1591 0.930 . S
C1575 O1558 1.262 . S
C1575 O1559 1.260 . S
C1576 Tb1512 2.833 . S
C1576 O1556 1.251 . S
C1576 O1561 1.256 . S
C1576 C1569 1.500 . S
C1577 H1542 0.929 . S
C1577 C1555 1.444 . S
C1577 C1578 1.317 . S
C1578 H1540 0.930 . S
C1578 C1546 1.432 . S
C1578 C1577 1.317 . S
C1579 O1563 1.283 . S
C1579 O1566 1.243 . S
C1580 C1581 1.382 . S
C1580 C1584 1.393 . S
C1580 C1587 1.500 . S
C1581 C1580 1.382 . S
C1581 C1582 1.400 . S
C1581 H1592 0.930 . S
C1582 C1581 1.400 . S
C1582 C1583 1.384 . S
C1583 C1582 1.384 . S
C1583 C1585 1.392 . S
C1583 H1593 0.931 . S
C1584 C1580 1.393 . S
C1584 C1585 1.401 . S
C1584 H1594 0.930 . S
C1585 C1583 1.392 . S
C1585 C1584 1.401 . S
C1585 H1595 0.930 . S
C1586 O1564 1.262 . S
C1586 O1565 1.260 . S
C1587 Tb1523 2.833 . S
C1587 O1562 1.251 . S
C1587 O1567 1.256 . S
C1587 C1580 1.500 . S
H1588 C1571 0.930 . S
H1589 C1572 0.931 . S
H1590 C1573 0.930 . S
H1591 C1574 0.930 . S
H1592 C1581 0.930 . S
H1593 C1583 0.931 . S
H1594 C1584 0.930 . S
H1595 C1585 0.930 . S
Tb1596 N1627 2.660 1_655 S
Tb1596 N1634 2.600 . S
Tb1596 O1640 2.556 . S
Tb1596 O1641 2.610 . S
Tb1596 O1643 2.320 . S
Tb1596 O1644 2.552 . S
Tb1596 O1645 2.413 1_655 S
Tb1596 O1647 2.362 . S
Tb1596 O1648 2.421 . S
Tb1596 C1660 2.833 1_655 S
C1597 C1600 1.432 . S
C1597 C1601 1.414 . S
C1597 N1604 1.359 . S
C1598 C1600 1.417 . S
C1598 C1602 1.432 . S
C1598 C1610 1.410 . S
C1599 C1601 1.444 . S
C1599 C1602 1.317 . S
C1599 H1622 0.929 . S
C1600 C1597 1.432 . S
C1600 C1598 1.417 . S
C1600 N1608 1.360 . S
C1601 C1597 1.414 . S
C1601 C1599 1.444 . S
C1601 C1606 1.385 . S
C1602 C1598 1.432 . S
C1602 C1599 1.317 . S
C1602 H1614 0.930 . S
C1603 C1605 1.392 . S
C1603 C1606 1.370 . S
C1603 H1615 0.931 . S
N1604 C1597 1.359 . S
N1604 C1605 1.327 . S
N1604 Tb1607 2.600 . S
C1605 C1603 1.392 . S
C1605 N1604 1.327 . S
C1605 H1612 0.930 . S
C1606 C1601 1.385 . S
C1606 C1603 1.370 . S
C1606 H1625 0.930 . S
Tb1607 N1604 2.600 . S
Tb1607 N1608 2.660 . S
Tb1607 O1641 2.362 . S
Tb1607 O1642 2.421 . S
Tb1607 O1646 2.546 . S
Tb1607 O1647 2.610 . S
Tb1607 O1649 2.320 . S
Tb1607 O1650 2.552 . S
Tb1607 O1651 2.413 . S
Tb1607 C1671 2.833 . S
N1608 C1600 1.360 . S
N1608 Tb1607 2.660 . S
N1608 C1609 1.305 . S
C1609 N1608 1.305 . S
C1609 C1611 1.407 . S
C1609 H1616 0.930 . S
C1610 C1598 1.410 . S
C1610 C1611 1.345 . S
C1610 H1618 0.930 . S
C1611 C1609 1.407 . S
C1611 C1610 1.345 . S
C1611 H1613 0.930 . S
H1612 C1605 0.930 . S
H1613 C1611 0.930 . S
H1614 C1602 0.930 . S
H1615 C1603 0.931 . S
H1616 C1609 0.930 . S
H1617 C1631 0.930 . S
H1618 C1610 0.930 . S
H1619 C1637 0.930 . S
H1620 C1628 0.930 . S
H1621 C1635 0.931 1_655 S
H1622 C1599 0.929 . S
H1623 C1629 0.930 . S
H1624 C1662 0.930 . S
H1625 C1606 0.930 . S
H1626 C1661 0.929 . S
N1627 Tb1596 2.660 1_455 S
N1627 C1628 1.305 . S
N1627 C1632 1.360 . S
C1628 H1620 0.930 . S
C1628 N1627 1.305 . S
C1628 C1631 1.407 . S
C1629 H1623 0.930 . S
C1629 C1630 1.410 . S
C1629 C1631 1.345 . S
C1630 C1629 1.410 . S
C1630 C1632 1.417 . S
C1630 C1662 1.432 . S
C1631 H1617 0.930 . S
C1631 C1628 1.407 . S
C1631 C1629 1.345 . S
C1632 N1627 1.360 . S
C1632 C1630 1.417 . S
C1632 C1636 1.432 . S
H1633 C1638 0.930 . S
N1634 Tb1596 2.600 . S
N1634 C1636 1.359 1_655 S
N1634 C1637 1.327 . S
C1635 H1621 0.931 1_455 S
C1635 C1637 1.392 1_455 S
C1635 C1638 1.370 . S
C1636 C1632 1.432 . S
C1636 N1634 1.359 1_455 S
C1636 C1639 1.414 . S
C1637 H1619 0.930 . S
C1637 N1634 1.327 . S
C1637 C1635 1.392 1_655 S
C1638 H1633 0.930 . S
C1638 C1635 1.370 . S
C1638 C1639 1.385 . S
C1639 C1636 1.414 . S
C1639 C1638 1.385 . S
C1639 C1661 1.444 . S
O1640 Tb1596 2.556 . S
O1640 C1660 1.233 1_655 S
O1641 Tb1596 2.610 . S
O1641 Tb1607 2.362 . S
O1641 C1652 1.283 . S
O1642 Tb1607 2.421 . S
O1642 C1659 1.262 . S
O1643 Tb1596 2.320 . S
O1643 C1659 1.260 . S
O1644 Tb1596 2.552 . S
O1644 C1652 1.243 . S
O1645 Tb1596 2.413 1_455 S
O1645 C1660 1.256 . S
O1646 Tb1607 2.546 . S
O1646 C1671 1.251 . S
O1647 Tb1596 2.362 . S
O1647 Tb1607 2.610 . S
O1647 C1663 1.283 . S
O1648 Tb1596 2.421 . S
O1648 C1670 1.262 . S
O1649 Tb1607 2.320 . S
O1649 C1670 1.260 . S
O1650 Tb1607 2.552 . S
O1650 C1663 1.243 . S
O1651 Tb1607 2.413 . S
O1651 C1671 1.256 . S
C1652 O1641 1.283 . S
C1652 O1644 1.243 . S
C1653 C1655 1.382 . S
C1653 C1657 1.393 . S
C1653 C1660 1.500 . S
C1654 C1655 1.400 . S
C1654 C1656 1.384 . S
C1655 C1653 1.382 . S
C1655 C1654 1.400 . S
C1655 H1672 0.930 . S
C1656 C1654 1.384 . S
C1656 C1658 1.392 . S
C1656 H1673 0.931 . S
C1657 C1653 1.393 . S
C1657 C1658 1.401 . S
C1657 H1674 0.930 . S
C1658 C1656 1.392 . S
C1658 C1657 1.401 . S
C1658 H1675 0.930 . S
C1659 O1642 1.262 . S
C1659 O1643 1.260 . S
C1660 Tb1596 2.833 1_455 S
C1660 O1640 1.233 1_455 S
C1660 O1645 1.256 . S
C1660 C1653 1.500 . S
C1661 H1626 0.929 . S
C1661 C1639 1.444 . S
C1661 C1662 1.317 . S
C1662 H1624 0.930 . S
C1662 C1630 1.432 . S
C1662 C1661 1.317 . S
C1663 O1647 1.283 . S
C1663 O1650 1.243 . S
C1664 C1665 1.382 . S
C1664 C1668 1.393 . S
C1664 C1671 1.500 . S
C1665 C1664 1.382 . S
C1665 C1666 1.400 . S
C1665 H1676 0.930 . S
C1666 C1665 1.400 . S
C1666 C1667 1.384 . S
C1667 C1666 1.384 . S
C1667 C1669 1.392 . S
C1667 H1677 0.931 . S
C1668 C1664 1.393 . S
C1668 C1669 1.401 . S
C1668 H1678 0.930 . S
C1669 C1667 1.392 . S
C1669 C1668 1.401 . S
C1669 H1679 0.930 . S
C1670 O1648 1.262 . S
C1670 O1649 1.260 . S
C1671 Tb1607 2.833 . S
C1671 O1646 1.251 . S
C1671 O1651 1.256 . S
C1671 C1664 1.500 . S
H1672 C1655 0.930 . S
H1673 C1656 0.931 . S
H1674 C1657 0.930 . S
H1675 C1658 0.930 . S
H1676 C1665 0.930 . S
H1677 C1667 0.931 . S
H1678 C1668 0.930 . S
H1679 C1669 0.930 . S
Tb1680 N1711 2.660 . S
Tb1680 N1718 2.600 . S
Tb1680 O1724 2.546 . S
Tb1680 O1725 2.610 . S
Tb1680 O1727 2.320 . S
Tb1680 O1728 2.552 . S
Tb1680 O1729 2.413 . S
Tb1680 O1731 2.362 . S
Tb1680 O1732 2.421 . S
Tb1680 C1744 2.833 . S
C1681 C1684 1.432 . S
C1681 C1685 1.414 . S
C1681 N1688 1.359 . S
C1682 C1684 1.417 . S
C1682 C1686 1.432 . S
C1682 C1694 1.410 . S
C1683 C1685 1.444 . S
C1683 C1686 1.317 . S
C1683 H1706 0.929 . S
C1684 C1681 1.432 . S
C1684 C1682 1.417 . S
C1684 N1692 1.360 . S
C1685 C1681 1.414 . S
C1685 C1683 1.444 . S
C1685 C1690 1.385 . S
C1686 C1682 1.432 . S
C1686 C1683 1.317 . S
C1686 H1698 0.930 . S
C1687 C1689 1.392 . S
C1687 C1690 1.370 . S
C1687 H1699 0.931 . S
N1688 C1681 1.359 . S
N1688 C1689 1.327 . S
N1688 Tb1691 2.600 . S
C1689 C1687 1.392 . S
C1689 N1688 1.327 . S
C1689 H1696 0.930 . S
C1690 C1685 1.385 . S
C1690 C1687 1.370 . S
C1690 H1709 0.930 . S
Tb1691 N1688 2.600 . S
Tb1691 N1692 2.660 . S
Tb1691 O1725 2.362 . S
Tb1691 O1726 2.421 . S
Tb1691 O1730 2.546 . S
Tb1691 O1731 2.610 . S
Tb1691 O1733 2.320 . S
Tb1691 O1734 2.552 . S
Tb1691 O1735 2.413 . S
Tb1691 C1755 2.833 . S
N1692 C1684 1.360 . S
N1692 Tb1691 2.660 . S
N1692 C1693 1.305 . S
C1693 N1692 1.305 . S
C1693 C1695 1.407 . S
C1693 H1700 0.930 . S
C1694 C1682 1.410 . S
C1694 C1695 1.345 . S
C1694 H1702 0.930 . S
C1695 C1693 1.407 . S
C1695 C1694 1.345 . S
C1695 H1697 0.930 . S
H1696 C1689 0.930 . S
H1697 C1695 0.930 . S
H1698 C1686 0.930 . S
H1699 C1687 0.931 . S
H1700 C1693 0.930 . S
H1701 C1715 0.930 . S
H1702 C1694 0.930 . S
H1703 C1721 0.930 . S
H1704 C1712 0.930 . S
H1705 C1719 0.931 . S
H1706 C1683 0.929 . S
H1707 C1713 0.930 . S
H1708 C1746 0.930 . S
H1709 C1690 0.930 . S
H1710 C1745 0.929 . S
N1711 Tb1680 2.660 . S
N1711 C1712 1.305 . S
N1711 C1716 1.360 . S
C1712 H1704 0.930 . S
C1712 N1711 1.305 . S
C1712 C1715 1.407 . S
C1713 H1707 0.930 . S
C1713 C1714 1.410 . S
C1713 C1715 1.345 . S
C1714 C1713 1.410 . S
C1714 C1716 1.417 . S
C1714 C1746 1.432 . S
C1715 H1701 0.930 . S
C1715 C1712 1.407 . S
C1715 C1713 1.345 . S
C1716 N1711 1.360 . S
C1716 C1714 1.417 . S
C1716 C1720 1.432 . S
H1717 C1722 0.930 . S
N1718 Tb1680 2.600 . S
N1718 C1720 1.359 . S
N1718 C1721 1.327 . S
C1719 H1705 0.931 . S
C1719 C1721 1.392 . S
C1719 C1722 1.370 . S
C1720 C1716 1.432 . S
C1720 N1718 1.359 . S
C1720 C1723 1.414 . S
C1721 H1703 0.930 . S
C1721 N1718 1.327 . S
C1721 C1719 1.392 . S
C1722 H1717 0.930 . S
C1722 C1719 1.370 . S
C1722 C1723 1.385 . S
C1723 C1720 1.414 . S
C1723 C1722 1.385 . S
C1723 C1745 1.444 . S
O1724 Tb1680 2.546 . S
O1724 C1744 1.251 . S
O1725 Tb1680 2.610 . S
O1725 Tb1691 2.362 . S
O1725 C1736 1.283 . S
O1726 Tb1691 2.421 . S
O1726 C1743 1.262 . S
O1727 Tb1680 2.320 . S
O1727 C1743 1.260 . S
O1728 Tb1680 2.552 . S
O1728 C1736 1.243 . S
O1729 Tb1680 2.413 . S
O1729 C1744 1.256 . S
O1730 Tb1691 2.546 . S
O1730 C1755 1.251 . S
O1731 Tb1680 2.362 . S
O1731 Tb1691 2.610 . S
O1731 C1747 1.283 . S
O1732 Tb1680 2.421 . S
O1732 C1754 1.262 . S
O1733 Tb1691 2.320 . S
O1733 C1754 1.260 . S
O1734 Tb1691 2.552 . S
O1734 C1747 1.243 . S
O1735 Tb1691 2.413 . S
O1735 C1755 1.256 . S
C1736 O1725 1.283 . S
C1736 O1728 1.243 . S
C1737 C1739 1.382 . S
C1737 C1741 1.393 . S
C1737 C1744 1.500 . S
C1738 C1739 1.400 . S
C1738 C1740 1.384 . S
C1739 C1737 1.382 . S
C1739 C1738 1.400 . S
C1739 H1756 0.930 . S
C1740 C1738 1.384 . S
C1740 C1742 1.392 . S
C1740 H1757 0.931 . S
C1741 C1737 1.393 . S
C1741 C1742 1.401 . S
C1741 H1758 0.930 . S
C1742 C1740 1.392 . S
C1742 C1741 1.401 . S
C1742 H1759 0.930 . S
C1743 O1726 1.262 . S
C1743 O1727 1.260 . S
C1744 Tb1680 2.833 . S
C1744 O1724 1.251 . S
C1744 O1729 1.256 . S
C1744 C1737 1.500 . S
C1745 H1710 0.929 . S
C1745 C1723 1.444 . S
C1745 C1746 1.317 . S
C1746 H1708 0.930 . S
C1746 C1714 1.432 . S
C1746 C1745 1.317 . S
C1747 O1731 1.283 . S
C1747 O1734 1.243 . S
C1748 C1749 1.382 . S
C1748 C1752 1.393 . S
C1748 C1755 1.500 . S
C1749 C1748 1.382 . S
C1749 C1750 1.400 . S
C1749 H1760 0.930 . S
C1750 C1749 1.400 . S
C1750 C1751 1.384 . S
C1751 C1750 1.384 . S
C1751 C1753 1.392 . S
C1751 H1761 0.931 . S
C1752 C1748 1.393 . S
C1752 C1753 1.401 . S
C1752 H1762 0.930 . S
C1753 C1751 1.392 . S
C1753 C1752 1.401 . S
C1753 H1763 0.930 . S
C1754 O1732 1.262 . S
C1754 O1733 1.260 . S
C1755 Tb1691 2.833 . S
C1755 O1730 1.251 . S
C1755 O1735 1.256 . S
C1755 C1748 1.500 . S
H1756 C1739 0.930 . S
H1757 C1740 0.931 . S
H1758 C1741 0.930 . S
H1759 C1742 0.930 . S
H1760 C1749 0.930 . S
H1761 C1751 0.931 . S
H1762 C1752 0.930 . S
H1763 C1753 0.930 . S
Tb1764 N1795 2.660 1_655 S
Tb1764 N1802 2.600 . S
Tb1764 O1808 2.556 . S
Tb1764 O1809 2.610 . S
Tb1764 O1811 2.320 . S
Tb1764 O1812 2.552 . S
Tb1764 O1813 2.413 1_655 S
Tb1764 O1815 2.362 . S
Tb1764 O1816 2.421 . S
Tb1764 C1828 2.833 1_655 S
C1765 C1768 1.432 . S
C1765 C1769 1.414 . S
C1765 N1772 1.359 . S
C1766 C1768 1.417 . S
C1766 C1770 1.432 . S
C1766 C1778 1.410 . S
C1767 C1769 1.444 . S
C1767 C1770 1.317 . S
C1767 H1790 0.929 . S
C1768 C1765 1.432 . S
C1768 C1766 1.417 . S
C1768 N1776 1.360 . S
C1769 C1765 1.414 . S
C1769 C1767 1.444 . S
C1769 C1774 1.385 . S
C1770 C1766 1.432 . S
C1770 C1767 1.317 . S
C1770 H1782 0.930 . S
C1771 C1773 1.392 . S
C1771 C1774 1.370 . S
C1771 H1783 0.931 . S
N1772 C1765 1.359 . S
N1772 C1773 1.327 . S
N1772 Tb1775 2.600 . S
C1773 C1771 1.392 . S
C1773 N1772 1.327 . S
C1773 H1780 0.930 . S
C1774 C1769 1.385 . S
C1774 C1771 1.370 . S
C1774 H1793 0.930 . S
Tb1775 N1772 2.600 . S
Tb1775 N1776 2.660 . S
Tb1775 O1809 2.362 . S
Tb1775 O1810 2.421 . S
Tb1775 O1814 2.546 . S
Tb1775 O1815 2.610 . S
Tb1775 O1817 2.320 . S
Tb1775 O1818 2.552 . S
Tb1775 O1819 2.413 . S
Tb1775 C1839 2.833 . S
N1776 C1768 1.360 . S
N1776 Tb1775 2.660 . S
N1776 C1777 1.305 . S
C1777 N1776 1.305 . S
C1777 C1779 1.407 . S
C1777 H1784 0.930 . S
C1778 C1766 1.410 . S
C1778 C1779 1.345 . S
C1778 H1786 0.930 . S
C1779 C1777 1.407 . S
C1779 C1778 1.345 . S
C1779 H1781 0.930 . S
H1780 C1773 0.930 . S
H1781 C1779 0.930 . S
H1782 C1770 0.930 . S
H1783 C1771 0.931 . S
H1784 C1777 0.930 . S
H1785 C1799 0.930 . S
H1786 C1778 0.930 . S
H1787 C1805 0.930 . S
H1788 C1796 0.930 . S
H1789 C1803 0.931 1_655 S
H1790 C1767 0.929 . S
H1791 C1797 0.930 . S
H1792 C1830 0.930 . S
H1793 C1774 0.930 . S
H1794 C1829 0.929 . S
N1795 Tb1764 2.660 1_455 S
N1795 C1796 1.305 . S
N1795 C1800 1.360 . S
C1796 H1788 0.930 . S
C1796 N1795 1.305 . S
C1796 C1799 1.407 . S
C1797 H1791 0.930 . S
C1797 C1798 1.410 . S
C1797 C1799 1.345 . S
C1798 C1797 1.410 . S
C1798 C1800 1.417 . S
C1798 C1830 1.432 . S
C1799 H1785 0.930 . S
C1799 C1796 1.407 . S
C1799 C1797 1.345 . S
C1800 N1795 1.360 . S
C1800 C1798 1.417 . S
C1800 C1804 1.432 . S
H1801 C1806 0.930 . S
N1802 Tb1764 2.600 . S
N1802 C1804 1.359 1_655 S
N1802 C1805 1.327 . S
C1803 H1789 0.931 1_455 S
C1803 C1805 1.392 1_455 S
C1803 C1806 1.370 . S
C1804 C1800 1.432 . S
C1804 N1802 1.359 1_455 S
C1804 C1807 1.414 . S
C1805 H1787 0.930 . S
C1805 N1802 1.327 . S
C1805 C1803 1.392 1_655 S
C1806 H1801 0.930 . S
C1806 C1803 1.370 . S
C1806 C1807 1.385 . S
C1807 C1804 1.414 . S
C1807 C1806 1.385 . S
C1807 C1829 1.444 . S
O1808 Tb1764 2.556 . S
O1808 C1828 1.233 1_655 S
O1809 Tb1764 2.610 . S
O1809 Tb1775 2.362 . S
O1809 C1820 1.283 . S
O1810 Tb1775 2.421 . S
O1810 C1827 1.262 . S
O1811 Tb1764 2.320 . S
O1811 C1827 1.260 . S
O1812 Tb1764 2.552 . S
O1812 C1820 1.243 . S
O1813 Tb1764 2.413 1_455 S
O1813 C1828 1.256 . S
O1814 Tb1775 2.546 . S
O1814 C1839 1.251 . S
O1815 Tb1764 2.362 . S
O1815 Tb1775 2.610 . S
O1815 C1831 1.283 . S
O1816 Tb1764 2.421 . S
O1816 C1838 1.262 . S
O1817 Tb1775 2.320 . S
O1817 C1838 1.260 . S
O1818 Tb1775 2.552 . S
O1818 C1831 1.243 . S
O1819 Tb1775 2.413 . S
O1819 C1839 1.256 . S
C1820 O1809 1.283 . S
C1820 O1812 1.243 . S
C1821 C1823 1.382 . S
C1821 C1825 1.393 . S
C1821 C1828 1.500 . S
C1822 C1823 1.400 . S
C1822 C1824 1.384 . S
C1823 C1821 1.382 . S
C1823 C1822 1.400 . S
C1823 H1840 0.930 . S
C1824 C1822 1.384 . S
C1824 C1826 1.392 . S
C1824 H1841 0.931 . S
C1825 C1821 1.393 . S
C1825 C1826 1.401 . S
C1825 H1842 0.930 . S
C1826 C1824 1.392 . S
C1826 C1825 1.401 . S
C1826 H1843 0.930 . S
C1827 O1810 1.262 . S
C1827 O1811 1.260 . S
C1828 Tb1764 2.833 1_455 S
C1828 O1808 1.233 1_455 S
C1828 O1813 1.256 . S
C1828 C1821 1.500 . S
C1829 H1794 0.929 . S
C1829 C1807 1.444 . S
C1829 C1830 1.317 . S
C1830 H1792 0.930 . S
C1830 C1798 1.432 . S
C1830 C1829 1.317 . S
C1831 O1815 1.283 . S
C1831 O1818 1.243 . S
C1832 C1833 1.382 . S
C1832 C1836 1.393 . S
C1832 C1839 1.500 . S
C1833 C1832 1.382 . S
C1833 C1834 1.400 . S
C1833 H1844 0.930 . S
C1834 C1833 1.400 . S
C1834 C1835 1.384 . S
C1835 C1834 1.384 . S
C1835 C1837 1.392 . S
C1835 H1845 0.931 . S
C1836 C1832 1.393 . S
C1836 C1837 1.401 . S
C1836 H1846 0.930 . S
C1837 C1835 1.392 . S
C1837 C1836 1.401 . S
C1837 H1847 0.930 . S
C1838 O1816 1.262 . S
C1838 O1817 1.260 . S
C1839 Tb1775 2.833 . S
C1839 O1814 1.251 . S
C1839 O1819 1.256 . S
C1839 C1832 1.500 . S
H1840 C1823 0.930 . S
H1841 C1824 0.931 . S
H1842 C1825 0.930 . S
H1843 C1826 0.930 . S
H1844 C1833 0.930 . S
H1845 C1835 0.931 . S
H1846 C1836 0.930 . S
H1847 C1837 0.930 . S
Tb1848 N1879 2.660 . S
Tb1848 N1886 2.600 . S
Tb1848 O1892 2.546 . S
Tb1848 O1893 2.610 . S
Tb1848 O1895 2.320 . S
Tb1848 O1896 2.552 . S
Tb1848 O1897 2.413 . S
Tb1848 O1899 2.362 . S
Tb1848 O1900 2.421 . S
Tb1848 C1912 2.833 . S
C1849 C1852 1.432 . S
C1849 C1853 1.414 . S
C1849 N1856 1.359 . S
C1850 C1852 1.417 . S
C1850 C1854 1.432 . S
C1850 C1862 1.410 . S
C1851 C1853 1.444 . S
C1851 C1854 1.317 . S
C1851 H1874 0.929 . S
C1852 C1849 1.432 . S
C1852 C1850 1.417 . S
C1852 N1860 1.360 . S
C1853 C1849 1.414 . S
C1853 C1851 1.444 . S
C1853 C1858 1.385 . S
C1854 C1850 1.432 . S
C1854 C1851 1.317 . S
C1854 H1866 0.930 . S
C1855 C1857 1.392 . S
C1855 C1858 1.370 . S
C1855 H1867 0.931 . S
N1856 C1849 1.359 . S
N1856 C1857 1.327 . S
N1856 Tb1859 2.600 . S
C1857 C1855 1.392 . S
C1857 N1856 1.327 . S
C1857 H1864 0.930 . S
C1858 C1853 1.385 . S
C1858 C1855 1.370 . S
C1858 H1877 0.930 . S
Tb1859 N1856 2.600 . S
Tb1859 N1860 2.660 . S
Tb1859 O1893 2.362 . S
Tb1859 O1894 2.421 . S
Tb1859 O1898 2.546 . S
Tb1859 O1899 2.610 . S
Tb1859 O1901 2.320 . S
Tb1859 O1902 2.552 . S
Tb1859 O1903 2.413 . S
Tb1859 C1923 2.833 . S
N1860 C1852 1.360 . S
N1860 Tb1859 2.660 . S
N1860 C1861 1.305 . S
C1861 N1860 1.305 . S
C1861 C1863 1.407 . S
C1861 H1868 0.930 . S
C1862 C1850 1.410 . S
C1862 C1863 1.345 . S
C1862 H1870 0.930 . S
C1863 C1861 1.407 . S
C1863 C1862 1.345 . S
C1863 H1865 0.930 . S
H1864 C1857 0.930 . S
H1865 C1863 0.930 . S
H1866 C1854 0.930 . S
H1867 C1855 0.931 . S
H1868 C1861 0.930 . S
H1869 C1883 0.930 . S
H1870 C1862 0.930 . S
H1871 C1889 0.930 . S
H1872 C1880 0.930 . S
H1873 C1887 0.931 . S
H1874 C1851 0.929 . S
H1875 C1881 0.930 . S
H1876 C1914 0.930 . S
H1877 C1858 0.930 . S
H1878 C1913 0.929 . S
N1879 Tb1848 2.660 . S
N1879 C1880 1.305 . S
N1879 C1884 1.360 . S
C1880 H1872 0.930 . S
C1880 N1879 1.305 . S
C1880 C1883 1.407 . S
C1881 H1875 0.930 . S
C1881 C1882 1.410 . S
C1881 C1883 1.345 . S
C1882 C1881 1.410 . S
C1882 C1884 1.417 . S
C1882 C1914 1.432 . S
C1883 H1869 0.930 . S
C1883 C1880 1.407 . S
C1883 C1881 1.345 . S
C1884 N1879 1.360 . S
C1884 C1882 1.417 . S
C1884 C1888 1.432 . S
H1885 C1890 0.930 . S
N1886 Tb1848 2.600 . S
N1886 C1888 1.359 . S
N1886 C1889 1.327 . S
C1887 H1873 0.931 . S
C1887 C1889 1.392 . S
C1887 C1890 1.370 . S
C1888 C1884 1.432 . S
C1888 N1886 1.359 . S
C1888 C1891 1.414 . S
C1889 H1871 0.930 . S
C1889 N1886 1.327 . S
C1889 C1887 1.392 . S
C1890 H1885 0.930 . S
C1890 C1887 1.370 . S
C1890 C1891 1.385 . S
C1891 C1888 1.414 . S
C1891 C1890 1.385 . S
C1891 C1913 1.444 . S
O1892 Tb1848 2.546 . S
O1892 C1912 1.251 . S
O1893 Tb1848 2.610 . S
O1893 Tb1859 2.362 . S
O1893 C1904 1.283 . S
O1894 Tb1859 2.421 . S
O1894 C1911 1.262 . S
O1895 Tb1848 2.320 . S
O1895 C1911 1.260 . S
O1896 Tb1848 2.552 . S
O1896 C1904 1.243 . S
O1897 Tb1848 2.413 . S
O1897 C1912 1.256 . S
O1898 Tb1859 2.546 . S
O1898 C1923 1.251 . S
O1899 Tb1848 2.362 . S
O1899 Tb1859 2.610 . S
O1899 C1915 1.283 . S
O1900 Tb1848 2.421 . S
O1900 C1922 1.262 . S
O1901 Tb1859 2.320 . S
O1901 C1922 1.260 . S
O1902 Tb1859 2.552 . S
O1902 C1915 1.243 . S
O1903 Tb1859 2.413 . S
O1903 C1923 1.256 . S
C1904 O1893 1.283 . S
C1904 O1896 1.243 . S
C1905 C1907 1.382 . S
C1905 C1909 1.393 . S
C1905 C1912 1.500 . S
C1906 C1907 1.400 . S
C1906 C1908 1.384 . S
C1907 C1905 1.382 . S
C1907 C1906 1.400 . S
C1907 H1924 0.930 . S
C1908 C1906 1.384 . S
C1908 C1910 1.392 . S
C1908 H1925 0.931 . S
C1909 C1905 1.393 . S
C1909 C1910 1.401 . S
C1909 H1926 0.930 . S
C1910 C1908 1.392 . S
C1910 C1909 1.401 . S
C1910 H1927 0.930 . S
C1911 O1894 1.262 . S
C1911 O1895 1.260 . S
C1912 Tb1848 2.833 . S
C1912 O1892 1.251 . S
C1912 O1897 1.256 . S
C1912 C1905 1.500 . S
C1913 H1878 0.929 . S
C1913 C1891 1.444 . S
C1913 C1914 1.317 . S
C1914 H1876 0.930 . S
C1914 C1882 1.432 . S
C1914 C1913 1.317 . S
C1915 O1899 1.283 . S
C1915 O1902 1.243 . S
C1916 C1917 1.382 . S
C1916 C1920 1.393 . S
C1916 C1923 1.500 . S
C1917 C1916 1.382 . S
C1917 C1918 1.400 . S
C1917 H1928 0.930 . S
C1918 C1917 1.400 . S
C1918 C1919 1.384 . S
C1919 C1918 1.384 . S
C1919 C1921 1.392 . S
C1919 H1929 0.931 . S
C1920 C1916 1.393 . S
C1920 C1921 1.401 . S
C1920 H1930 0.930 . S
C1921 C1919 1.392 . S
C1921 C1920 1.401 . S
C1921 H1931 0.930 . S
C1922 O1900 1.262 . S
C1922 O1901 1.260 . S
C1923 Tb1859 2.833 . S
C1923 O1898 1.251 . S
C1923 O1903 1.256 . S
C1923 C1916 1.500 . S
H1924 C1907 0.930 . S
H1925 C1908 0.931 . S
H1926 C1909 0.930 . S
H1927 C1910 0.930 . S
H1928 C1917 0.930 . S
H1929 C1919 0.931 . S
H1930 C1920 0.930 . S
H1931 C1921 0.930 . S
Tb1932 N1963 2.660 . S
Tb1932 N1970 2.600 . S
Tb1932 O1976 2.546 . S
Tb1932 O1977 2.610 . S
Tb1932 O1979 2.320 . S
Tb1932 O1980 2.552 . S
Tb1932 O1981 2.413 . S
Tb1932 O1983 2.362 . S
Tb1932 O1984 2.421 . S
Tb1932 C1996 2.833 . S
C1933 C1936 1.432 . S
C1933 C1937 1.414 . S
C1933 N1940 1.359 . S
C1934 C1936 1.417 . S
C1934 C1938 1.432 . S
C1934 C1946 1.410 . S
C1935 C1937 1.444 . S
C1935 C1938 1.317 . S
C1935 H1958 0.929 . S
C1936 C1933 1.432 . S
C1936 C1934 1.417 . S
C1936 N1944 1.360 . S
C1937 C1933 1.414 . S
C1937 C1935 1.444 . S
C1937 C1942 1.385 . S
C1938 C1934 1.432 . S
C1938 C1935 1.317 . S
C1938 H1950 0.930 . S
C1939 C1941 1.392 . S
C1939 C1942 1.370 . S
C1939 H1951 0.931 . S
N1940 C1933 1.359 . S
N1940 C1941 1.327 . S
N1940 Tb1943 2.600 . S
C1941 C1939 1.392 . S
C1941 N1940 1.327 . S
C1941 H1948 0.930 . S
C1942 C1937 1.385 . S
C1942 C1939 1.370 . S
C1942 H1961 0.930 . S
Tb1943 N1940 2.600 . S
Tb1943 N1944 2.660 . S
Tb1943 O1977 2.362 . S
Tb1943 O1978 2.421 . S
Tb1943 O1982 2.546 . S
Tb1943 O1983 2.610 . S
Tb1943 O1985 2.320 . S
Tb1943 O1986 2.552 . S
Tb1943 O1987 2.413 . S
Tb1943 C2007 2.833 . S
N1944 C1936 1.360 . S
N1944 Tb1943 2.660 . S
N1944 C1945 1.305 . S
C1945 N1944 1.305 . S
C1945 C1947 1.407 . S
C1945 H1952 0.930 . S
C1946 C1934 1.410 . S
C1946 C1947 1.345 . S
C1946 H1954 0.930 . S
C1947 C1945 1.407 . S
C1947 C1946 1.345 . S
C1947 H1949 0.930 . S
H1948 C1941 0.930 . S
H1949 C1947 0.930 . S
H1950 C1938 0.930 . S
H1951 C1939 0.931 . S
H1952 C1945 0.930 . S
H1953 C1967 0.930 . S
H1954 C1946 0.930 . S
H1955 C1973 0.930 . S
H1956 C1964 0.930 . S
H1957 C1971 0.931 . S
H1958 C1935 0.929 . S
H1959 C1965 0.930 . S
H1960 C1998 0.930 . S
H1961 C1942 0.930 . S
H1962 C1997 0.929 . S
N1963 Tb1932 2.660 . S
N1963 C1964 1.305 . S
N1963 C1968 1.360 . S
C1964 H1956 0.930 . S
C1964 N1963 1.305 . S
C1964 C1967 1.407 . S
C1965 H1959 0.930 . S
C1965 C1966 1.410 . S
C1965 C1967 1.345 . S
C1966 C1965 1.410 . S
C1966 C1968 1.417 . S
C1966 C1998 1.432 . S
C1967 H1953 0.930 . S
C1967 C1964 1.407 . S
C1967 C1965 1.345 . S
C1968 N1963 1.360 . S
C1968 C1966 1.417 . S
C1968 C1972 1.432 . S
H1969 C1974 0.930 . S
N1970 Tb1932 2.600 . S
N1970 C1972 1.359 . S
N1970 C1973 1.327 . S
C1971 H1957 0.931 . S
C1971 C1973 1.392 . S
C1971 C1974 1.370 . S
C1972 C1968 1.432 . S
C1972 N1970 1.359 . S
C1972 C1975 1.414 . S
C1973 H1955 0.930 . S
C1973 N1970 1.327 . S
C1973 C1971 1.392 . S
C1974 H1969 0.930 . S
C1974 C1971 1.370 . S
C1974 C1975 1.385 . S
C1975 C1972 1.414 . S
C1975 C1974 1.385 . S
C1975 C1997 1.444 . S
O1976 Tb1932 2.546 . S
O1976 C1996 1.251 . S
O1977 Tb1932 2.610 . S
O1977 Tb1943 2.362 . S
O1977 C1988 1.283 . S
O1978 Tb1943 2.421 . S
O1978 C1995 1.262 . S
O1979 Tb1932 2.320 . S
O1979 C1995 1.260 . S
O1980 Tb1932 2.552 . S
O1980 C1988 1.243 . S
O1981 Tb1932 2.413 . S
O1981 C1996 1.256 . S
O1982 Tb1943 2.546 . S
O1982 C2007 1.251 . S
O1983 Tb1932 2.362 . S
O1983 Tb1943 2.610 . S
O1983 C1999 1.283 . S
O1984 Tb1932 2.421 . S
O1984 C2006 1.262 . S
O1985 Tb1943 2.320 . S
O1985 C2006 1.260 . S
O1986 Tb1943 2.552 . S
O1986 C1999 1.243 . S
O1987 Tb1943 2.413 . S
O1987 C2007 1.256 . S
C1988 O1977 1.283 . S
C1988 O1980 1.243 . S
C1989 C1991 1.382 . S
C1989 C1993 1.393 . S
C1989 C1996 1.500 . S
C1990 C1991 1.400 . S
C1990 C1992 1.384 . S
C1991 C1989 1.382 . S
C1991 C1990 1.400 . S
C1991 H2008 0.930 . S
C1992 C1990 1.384 . S
C1992 C1994 1.392 . S
C1992 H2009 0.931 . S
C1993 C1989 1.393 . S
C1993 C1994 1.401 . S
C1993 H2010 0.930 . S
C1994 C1992 1.392 . S
C1994 C1993 1.401 . S
C1994 H2011 0.930 . S
C1995 O1978 1.262 . S
C1995 O1979 1.260 . S
C1996 Tb1932 2.833 . S
C1996 O1976 1.251 . S
C1996 O1981 1.256 . S
C1996 C1989 1.500 . S
C1997 H1962 0.929 . S
C1997 C1975 1.444 . S
C1997 C1998 1.317 . S
C1998 H1960 0.930 . S
C1998 C1966 1.432 . S
C1998 C1997 1.317 . S
C1999 O1983 1.283 . S
C1999 O1986 1.243 . S
C2000 C2001 1.382 . S
C2000 C2004 1.393 . S
C2000 C2007 1.500 . S
C2001 C2000 1.382 . S
C2001 C2002 1.400 . S
C2001 H2012 0.930 . S
C2002 C2001 1.400 . S
C2002 C2003 1.384 . S
C2003 C2002 1.384 . S
C2003 C2005 1.392 . S
C2003 H2013 0.931 . S
C2004 C2000 1.393 . S
C2004 C2005 1.401 . S
C2004 H2014 0.930 . S
C2005 C2003 1.392 . S
C2005 C2004 1.401 . S
C2005 H2015 0.930 . S
C2006 O1984 1.262 . S
C2006 O1985 1.260 . S
C2007 Tb1943 2.833 . S
C2007 O1982 1.251 . S
C2007 O1987 1.256 . S
C2007 C2000 1.500 . S
H2008 C1991 0.930 . S
H2009 C1992 0.931 . S
H2010 C1993 0.930 . S
H2011 C1994 0.930 . S
H2012 C2001 0.930 . S
H2013 C2003 0.931 . S
H2014 C2004 0.930 . S
H2015 C2005 0.930 . S
Tb2016 N2047 2.660 . S
Tb2016 N2054 2.600 . S
Tb2016 O2060 2.546 . S
Tb2016 O2061 2.610 . S
Tb2016 O2063 2.320 . S
Tb2016 O2064 2.552 . S
Tb2016 O2065 2.413 . S
Tb2016 O2067 2.362 . S
Tb2016 O2068 2.421 . S
Tb2016 C2080 2.833 . S
C2017 C2020 1.432 . S
C2017 C2021 1.414 . S
C2017 N2024 1.359 . S
C2018 C2020 1.417 . S
C2018 C2022 1.432 . S
C2018 C2030 1.410 . S
C2019 C2021 1.444 . S
C2019 C2022 1.317 . S
C2019 H2042 0.929 . S
C2020 C2017 1.432 . S
C2020 C2018 1.417 . S
C2020 N2028 1.360 . S
C2021 C2017 1.414 . S
C2021 C2019 1.444 . S
C2021 C2026 1.385 . S
C2022 C2018 1.432 . S
C2022 C2019 1.317 . S
C2022 H2034 0.930 . S
C2023 C2025 1.392 . S
C2023 C2026 1.370 . S
C2023 H2035 0.931 . S
N2024 C2017 1.359 . S
N2024 C2025 1.327 . S
N2024 Tb2027 2.600 . S
C2025 C2023 1.392 . S
C2025 N2024 1.327 . S
C2025 H2032 0.930 . S
C2026 C2021 1.385 . S
C2026 C2023 1.370 . S
C2026 H2045 0.930 . S
Tb2027 N2024 2.600 . S
Tb2027 N2028 2.660 . S
Tb2027 O2061 2.362 . S
Tb2027 O2062 2.421 . S
Tb2027 O2066 2.546 . S
Tb2027 O2067 2.610 . S
Tb2027 O2069 2.320 . S
Tb2027 O2070 2.552 . S
Tb2027 O2071 2.413 . S
Tb2027 C2091 2.833 . S
N2028 C2020 1.360 . S
N2028 Tb2027 2.660 . S
N2028 C2029 1.305 . S
C2029 N2028 1.305 . S
C2029 C2031 1.407 . S
C2029 H2036 0.930 . S
C2030 C2018 1.410 . S
C2030 C2031 1.345 . S
C2030 H2038 0.930 . S
C2031 C2029 1.407 . S
C2031 C2030 1.345 . S
C2031 H2033 0.930 . S
H2032 C2025 0.930 . S
H2033 C2031 0.930 . S
H2034 C2022 0.930 . S
H2035 C2023 0.931 . S
H2036 C2029 0.930 . S
H2037 C2051 0.930 . S
H2038 C2030 0.930 . S
H2039 C2057 0.930 . S
H2040 C2048 0.930 . S
H2041 C2055 0.931 . S
H2042 C2019 0.929 . S
H2043 C2049 0.930 . S
H2044 C2082 0.930 . S
H2045 C2026 0.930 . S
H2046 C2081 0.929 . S
N2047 Tb2016 2.660 . S
N2047 C2048 1.305 . S
N2047 C2052 1.360 . S
C2048 H2040 0.930 . S
C2048 N2047 1.305 . S
C2048 C2051 1.407 . S
C2049 H2043 0.930 . S
C2049 C2050 1.410 . S
C2049 C2051 1.345 . S
C2050 C2049 1.410 . S
C2050 C2052 1.417 . S
C2050 C2082 1.432 . S
C2051 H2037 0.930 . S
C2051 C2048 1.407 . S
C2051 C2049 1.345 . S
C2052 N2047 1.360 . S
C2052 C2050 1.417 . S
C2052 C2056 1.432 . S
H2053 C2058 0.930 . S
N2054 Tb2016 2.600 . S
N2054 C2056 1.359 . S
N2054 C2057 1.327 . S
C2055 H2041 0.931 . S
C2055 C2057 1.392 . S
C2055 C2058 1.370 . S
C2056 C2052 1.432 . S
C2056 N2054 1.359 . S
C2056 C2059 1.414 . S
C2057 H2039 0.930 . S
C2057 N2054 1.327 . S
C2057 C2055 1.392 . S
C2058 H2053 0.930 . S
C2058 C2055 1.370 . S
C2058 C2059 1.385 . S
C2059 C2056 1.414 . S
C2059 C2058 1.385 . S
C2059 C2081 1.444 . S
O2060 Tb2016 2.546 . S
O2060 C2080 1.251 . S
O2061 Tb2016 2.610 . S
O2061 Tb2027 2.362 . S
O2061 C2072 1.283 . S
O2062 Tb2027 2.421 . S
O2062 C2079 1.262 . S
O2063 Tb2016 2.320 . S
O2063 C2079 1.260 . S
O2064 Tb2016 2.552 . S
O2064 C2072 1.243 . S
O2065 Tb2016 2.413 . S
O2065 C2080 1.256 . S
O2066 Tb2027 2.546 . S
O2066 C2091 1.251 . S
O2067 Tb2016 2.362 . S
O2067 Tb2027 2.610 . S
O2067 C2083 1.283 . S
O2068 Tb2016 2.421 . S
O2068 C2090 1.262 . S
O2069 Tb2027 2.320 . S
O2069 C2090 1.260 . S
O2070 Tb2027 2.552 . S
O2070 C2083 1.243 . S
O2071 Tb2027 2.413 . S
O2071 C2091 1.256 . S
C2072 O2061 1.283 . S
C2072 O2064 1.243 . S
C2073 C2075 1.382 . S
C2073 C2077 1.393 . S
C2073 C2080 1.500 . S
C2074 C2075 1.400 . S
C2074 C2076 1.384 . S
C2075 C2073 1.382 . S
C2075 C2074 1.400 . S
C2075 H2092 0.930 . S
C2076 C2074 1.384 . S
C2076 C2078 1.392 . S
C2076 H2093 0.931 . S
C2077 C2073 1.393 . S
C2077 C2078 1.401 . S
C2077 H2094 0.930 . S
C2078 C2076 1.392 . S
C2078 C2077 1.401 . S
C2078 H2095 0.930 . S
C2079 O2062 1.262 . S
C2079 O2063 1.260 . S
C2080 Tb2016 2.833 . S
C2080 O2060 1.251 . S
C2080 O2065 1.256 . S
C2080 C2073 1.500 . S
C2081 H2046 0.929 . S
C2081 C2059 1.444 . S
C2081 C2082 1.317 . S
C2082 H2044 0.930 . S
C2082 C2050 1.432 . S
C2082 C2081 1.317 . S
C2083 O2067 1.283 . S
C2083 O2070 1.243 . S
C2084 C2085 1.382 . S
C2084 C2088 1.393 . S
C2084 C2091 1.500 . S
C2085 C2084 1.382 . S
C2085 C2086 1.400 . S
C2085 H2096 0.930 . S
C2086 C2085 1.400 . S
C2086 C2087 1.384 . S
C2087 C2086 1.384 . S
C2087 C2089 1.392 . S
C2087 H2097 0.931 . S
C2088 C2084 1.393 . S
C2088 C2089 1.401 . S
C2088 H2098 0.930 . S
C2089 C2087 1.392 . S
C2089 C2088 1.401 . S
C2089 H2099 0.930 . S
C2090 O2068 1.262 . S
C2090 O2069 1.260 . S
C2091 Tb2027 2.833 . S
C2091 O2066 1.251 . S
C2091 O2071 1.256 . S
C2091 C2084 1.500 . S
H2092 C2075 0.930 . S
H2093 C2076 0.931 . S
H2094 C2077 0.930 . S
H2095 C2078 0.930 . S
H2096 C2085 0.930 . S
H2097 C2087 0.931 . S
H2098 C2088 0.930 . S
H2099 C2089 0.930 . S
Tb2100 N2131 2.660 . S
Tb2100 N2138 2.600 . S
Tb2100 O2144 2.546 . S
Tb2100 O2145 2.610 . S
Tb2100 O2147 2.320 . S
Tb2100 O2148 2.552 . S
Tb2100 O2149 2.413 . S
Tb2100 O2151 2.362 . S
Tb2100 O2152 2.421 . S
Tb2100 C2164 2.833 . S
C2101 C2104 1.432 . S
C2101 C2105 1.414 . S
C2101 N2108 1.359 . S
C2102 C2104 1.417 . S
C2102 C2106 1.432 . S
C2102 C2114 1.410 . S
C2103 C2105 1.444 . S
C2103 C2106 1.317 . S
C2103 H2126 0.929 . S
C2104 C2101 1.432 . S
C2104 C2102 1.417 . S
C2104 N2112 1.360 . S
C2105 C2101 1.414 . S
C2105 C2103 1.444 . S
C2105 C2110 1.385 . S
C2106 C2102 1.432 . S
C2106 C2103 1.317 . S
C2106 H2118 0.930 . S
C2107 C2109 1.392 . S
C2107 C2110 1.370 . S
C2107 H2119 0.931 . S
N2108 C2101 1.359 . S
N2108 C2109 1.327 . S
N2108 Tb2111 2.600 . S
C2109 C2107 1.392 . S
C2109 N2108 1.327 . S
C2109 H2116 0.930 . S
C2110 C2105 1.385 . S
C2110 C2107 1.370 . S
C2110 H2129 0.930 . S
Tb2111 N2108 2.600 . S
Tb2111 N2112 2.660 . S
Tb2111 O2145 2.362 . S
Tb2111 O2146 2.421 . S
Tb2111 O2150 2.546 . S
Tb2111 O2151 2.610 . S
Tb2111 O2153 2.320 . S
Tb2111 O2154 2.552 . S
Tb2111 O2155 2.413 . S
Tb2111 C2175 2.833 . S
N2112 C2104 1.360 . S
N2112 Tb2111 2.660 . S
N2112 C2113 1.305 . S
C2113 N2112 1.305 . S
C2113 C2115 1.407 . S
C2113 H2120 0.930 . S
C2114 C2102 1.410 . S
C2114 C2115 1.345 . S
C2114 H2122 0.930 . S
C2115 C2113 1.407 . S
C2115 C2114 1.345 . S
C2115 H2117 0.930 . S
H2116 C2109 0.930 . S
H2117 C2115 0.930 . S
H2118 C2106 0.930 . S
H2119 C2107 0.931 . S
H2120 C2113 0.930 . S
H2121 C2135 0.930 . S
H2122 C2114 0.930 . S
H2123 C2141 0.930 . S
H2124 C2132 0.930 . S
H2125 C2139 0.931 . S
H2126 C2103 0.929 . S
H2127 C2133 0.930 . S
H2128 C2166 0.930 . S
H2129 C2110 0.930 . S
H2130 C2165 0.929 . S
N2131 Tb2100 2.660 . S
N2131 C2132 1.305 . S
N2131 C2136 1.360 . S
C2132 H2124 0.930 . S
C2132 N2131 1.305 . S
C2132 C2135 1.407 . S
C2133 H2127 0.930 . S
C2133 C2134 1.410 . S
C2133 C2135 1.345 . S
C2134 C2133 1.410 . S
C2134 C2136 1.417 . S
C2134 C2166 1.432 . S
C2135 H2121 0.930 . S
C2135 C2132 1.407 . S
C2135 C2133 1.345 . S
C2136 N2131 1.360 . S
C2136 C2134 1.417 . S
C2136 C2140 1.432 . S
H2137 C2142 0.930 . S
N2138 Tb2100 2.600 . S
N2138 C2140 1.359 . S
N2138 C2141 1.327 . S
C2139 H2125 0.931 . S
C2139 C2141 1.392 . S
C2139 C2142 1.370 . S
C2140 C2136 1.432 . S
C2140 N2138 1.359 . S
C2140 C2143 1.414 . S
C2141 H2123 0.930 . S
C2141 N2138 1.327 . S
C2141 C2139 1.392 . S
C2142 H2137 0.930 . S
C2142 C2139 1.370 . S
C2142 C2143 1.385 . S
C2143 C2140 1.414 . S
C2143 C2142 1.385 . S
C2143 C2165 1.444 . S
O2144 Tb2100 2.546 . S
O2144 C2164 1.251 . S
O2145 Tb2100 2.610 . S
O2145 Tb2111 2.362 . S
O2145 C2156 1.283 . S
O2146 Tb2111 2.421 . S
O2146 C2163 1.262 . S
O2147 Tb2100 2.320 . S
O2147 C2163 1.260 . S
O2148 Tb2100 2.552 . S
O2148 C2156 1.243 . S
O2149 Tb2100 2.413 . S
O2149 C2164 1.256 . S
O2150 Tb2111 2.546 . S
O2150 C2175 1.251 . S
O2151 Tb2100 2.362 . S
O2151 Tb2111 2.610 . S
O2151 C2167 1.283 . S
O2152 Tb2100 2.421 . S
O2152 C2174 1.262 . S
O2153 Tb2111 2.320 . S
O2153 C2174 1.260 . S
O2154 Tb2111 2.552 . S
O2154 C2167 1.243 . S
O2155 Tb2111 2.413 . S
O2155 C2175 1.256 . S
C2156 O2145 1.283 . S
C2156 O2148 1.243 . S
C2157 C2159 1.382 . S
C2157 C2161 1.393 . S
C2157 C2164 1.500 . S
C2158 C2159 1.400 . S
C2158 C2160 1.384 . S
C2159 C2157 1.382 . S
C2159 C2158 1.400 . S
C2159 H2176 0.930 . S
C2160 C2158 1.384 . S
C2160 C2162 1.392 . S
C2160 H2177 0.931 . S
C2161 C2157 1.393 . S
C2161 C2162 1.401 . S
C2161 H2178 0.930 . S
C2162 C2160 1.392 . S
C2162 C2161 1.401 . S
C2162 H2179 0.930 . S
C2163 O2146 1.262 . S
C2163 O2147 1.260 . S
C2164 Tb2100 2.833 . S
C2164 O2144 1.251 . S
C2164 O2149 1.256 . S
C2164 C2157 1.500 . S
C2165 H2130 0.929 . S
C2165 C2143 1.444 . S
C2165 C2166 1.317 . S
C2166 H2128 0.930 . S
C2166 C2134 1.432 . S
C2166 C2165 1.317 . S
C2167 O2151 1.283 . S
C2167 O2154 1.243 . S
C2168 C2169 1.382 . S
C2168 C2172 1.393 . S
C2168 C2175 1.500 . S
C2169 C2168 1.382 . S
C2169 C2170 1.400 . S
C2169 H2180 0.930 . S
C2170 C2169 1.400 . S
C2170 C2171 1.384 . S
C2171 C2170 1.384 . S
C2171 C2173 1.392 . S
C2171 H2181 0.931 . S
C2172 C2168 1.393 . S
C2172 C2173 1.401 . S
C2172 H2182 0.930 . S
C2173 C2171 1.392 . S
C2173 C2172 1.401 . S
C2173 H2183 0.930 . S
C2174 O2152 1.262 . S
C2174 O2153 1.260 . S
C2175 Tb2111 2.833 . S
C2175 O2150 1.251 . S
C2175 O2155 1.256 . S
C2175 C2168 1.500 . S
H2176 C2159 0.930 . S
H2177 C2160 0.931 . S
H2178 C2161 0.930 . S
H2179 C2162 0.930 . S
H2180 C2169 0.930 . S
H2181 C2171 0.931 . S
H2182 C2172 0.930 . S
H2183 C2173 0.930 . S
Tb2184 N2215 2.660 . S
Tb2184 N2222 2.600 . S
Tb2184 O2228 2.546 . S
Tb2184 O2229 2.610 . S
Tb2184 O2231 2.320 . S
Tb2184 O2232 2.552 . S
Tb2184 O2233 2.413 . S
Tb2184 O2235 2.362 . S
Tb2184 O2236 2.421 . S
Tb2184 C2248 2.833 . S
C2185 C2188 1.432 . S
C2185 C2189 1.414 . S
C2185 N2192 1.359 . S
C2186 C2188 1.417 . S
C2186 C2190 1.432 . S
C2186 C2198 1.410 . S
C2187 C2189 1.444 . S
C2187 C2190 1.317 . S
C2187 H2210 0.929 . S
C2188 C2185 1.432 . S
C2188 C2186 1.417 . S
C2188 N2196 1.360 . S
C2189 C2185 1.414 . S
C2189 C2187 1.444 . S
C2189 C2194 1.385 . S
C2190 C2186 1.432 . S
C2190 C2187 1.317 . S
C2190 H2202 0.930 . S
C2191 C2193 1.392 . S
C2191 C2194 1.370 . S
C2191 H2203 0.931 . S
N2192 C2185 1.359 . S
N2192 C2193 1.327 . S
N2192 Tb2195 2.600 . S
C2193 C2191 1.392 . S
C2193 N2192 1.327 . S
C2193 H2200 0.930 . S
C2194 C2189 1.385 . S
C2194 C2191 1.370 . S
C2194 H2213 0.930 . S
Tb2195 N2192 2.600 . S
Tb2195 N2196 2.660 . S
Tb2195 O2229 2.362 . S
Tb2195 O2230 2.421 . S
Tb2195 O2234 2.546 . S
Tb2195 O2235 2.610 . S
Tb2195 O2237 2.320 . S
Tb2195 O2238 2.552 . S
Tb2195 O2239 2.413 . S
Tb2195 C2259 2.833 . S
N2196 C2188 1.360 . S
N2196 Tb2195 2.660 . S
N2196 C2197 1.305 . S
C2197 N2196 1.305 . S
C2197 C2199 1.407 . S
C2197 H2204 0.930 . S
C2198 C2186 1.410 . S
C2198 C2199 1.345 . S
C2198 H2206 0.930 . S
C2199 C2197 1.407 . S
C2199 C2198 1.345 . S
C2199 H2201 0.930 . S
H2200 C2193 0.930 . S
H2201 C2199 0.930 . S
H2202 C2190 0.930 . S
H2203 C2191 0.931 . S
H2204 C2197 0.930 . S
H2205 C2219 0.930 . S
H2206 C2198 0.930 . S
H2207 C2225 0.930 . S
H2208 C2216 0.930 . S
H2209 C2223 0.931 . S
H2210 C2187 0.929 . S
H2211 C2217 0.930 . S
H2212 C2250 0.930 . S
H2213 C2194 0.930 . S
H2214 C2249 0.929 . S
N2215 Tb2184 2.660 . S
N2215 C2216 1.305 . S
N2215 C2220 1.360 . S
C2216 H2208 0.930 . S
C2216 N2215 1.305 . S
C2216 C2219 1.407 . S
C2217 H2211 0.930 . S
C2217 C2218 1.410 . S
C2217 C2219 1.345 . S
C2218 C2217 1.410 . S
C2218 C2220 1.417 . S
C2218 C2250 1.432 . S
C2219 H2205 0.930 . S
C2219 C2216 1.407 . S
C2219 C2217 1.345 . S
C2220 N2215 1.360 . S
C2220 C2218 1.417 . S
C2220 C2224 1.432 . S
H2221 C2226 0.930 . S
N2222 Tb2184 2.600 . S
N2222 C2224 1.359 . S
N2222 C2225 1.327 . S
C2223 H2209 0.931 . S
C2223 C2225 1.392 . S
C2223 C2226 1.370 . S
C2224 C2220 1.432 . S
C2224 N2222 1.359 . S
C2224 C2227 1.414 . S
C2225 H2207 0.930 . S
C2225 N2222 1.327 . S
C2225 C2223 1.392 . S
C2226 H2221 0.930 . S
C2226 C2223 1.370 . S
C2226 C2227 1.385 . S
C2227 C2224 1.414 . S
C2227 C2226 1.385 . S
C2227 C2249 1.444 . S
O2228 Tb2184 2.546 . S
O2228 C2248 1.251 . S
O2229 Tb2184 2.610 . S
O2229 Tb2195 2.362 . S
O2229 C2240 1.283 . S
O2230 Tb2195 2.421 . S
O2230 C2247 1.262 . S
O2231 Tb2184 2.320 . S
O2231 C2247 1.260 . S
O2232 Tb2184 2.552 . S
O2232 C2240 1.243 . S
O2233 Tb2184 2.413 . S
O2233 C2248 1.256 . S
O2234 Tb2195 2.546 . S
O2234 C2259 1.251 . S
O2235 Tb2184 2.362 . S
O2235 Tb2195 2.610 . S
O2235 C2251 1.283 . S
O2236 Tb2184 2.421 . S
O2236 C2258 1.262 . S
O2237 Tb2195 2.320 . S
O2237 C2258 1.260 . S
O2238 Tb2195 2.552 . S
O2238 C2251 1.243 . S
O2239 Tb2195 2.413 . S
O2239 C2259 1.256 . S
C2240 O2229 1.283 . S
C2240 O2232 1.243 . S
C2241 C2243 1.382 . S
C2241 C2245 1.393 . S
C2241 C2248 1.500 . S
C2242 C2243 1.400 . S
C2242 C2244 1.384 . S
C2243 C2241 1.382 . S
C2243 C2242 1.400 . S
C2243 H2260 0.930 . S
C2244 C2242 1.384 . S
C2244 C2246 1.392 . S
C2244 H2261 0.931 . S
C2245 C2241 1.393 . S
C2245 C2246 1.401 . S
C2245 H2262 0.930 . S
C2246 C2244 1.392 . S
C2246 C2245 1.401 . S
C2246 H2263 0.930 . S
C2247 O2230 1.262 . S
C2247 O2231 1.260 . S
C2248 Tb2184 2.833 . S
C2248 O2228 1.251 . S
C2248 O2233 1.256 . S
C2248 C2241 1.500 . S
C2249 H2214 0.929 . S
C2249 C2227 1.444 . S
C2249 C2250 1.317 . S
C2250 H2212 0.930 . S
C2250 C2218 1.432 . S
C2250 C2249 1.317 . S
C2251 O2235 1.283 . S
C2251 O2238 1.243 . S
C2252 C2253 1.382 . S
C2252 C2256 1.393 . S
C2252 C2259 1.500 . S
C2253 C2252 1.382 . S
C2253 C2254 1.400 . S
C2253 H2264 0.930 . S
C2254 C2253 1.400 . S
C2254 C2255 1.384 . S
C2255 C2254 1.384 . S
C2255 C2257 1.392 . S
C2255 H2265 0.931 . S
C2256 C2252 1.393 . S
C2256 C2257 1.401 . S
C2256 H2266 0.930 . S
C2257 C2255 1.392 . S
C2257 C2256 1.401 . S
C2257 H2267 0.930 . S
C2258 O2236 1.262 . S
C2258 O2237 1.260 . S
C2259 Tb2195 2.833 . S
C2259 O2234 1.251 . S
C2259 O2239 1.256 . S
C2259 C2252 1.500 . S
H2260 C2243 0.930 . S
H2261 C2244 0.931 . S
H2262 C2245 0.930 . S
H2263 C2246 0.930 . S
H2264 C2253 0.930 . S
H2265 C2255 0.931 . S
H2266 C2256 0.930 . S
H2267 C2257 0.930 . S
Tb2268 N2299 2.660 . S
Tb2268 N2306 2.600 . S
Tb2268 O2312 2.546 . S
Tb2268 O2313 2.610 . S
Tb2268 O2315 2.320 . S
Tb2268 O2316 2.552 . S
Tb2268 O2317 2.413 . S
Tb2268 O2319 2.362 . S
Tb2268 O2320 2.421 . S
Tb2268 C2332 2.833 . S
C2269 C2272 1.432 . S
C2269 C2273 1.414 . S
C2269 N2276 1.359 1_655 S
C2270 C2272 1.417 . S
C2270 C2274 1.432 . S
C2270 C2282 1.410 . S
C2271 C2273 1.444 . S
C2271 C2274 1.317 . S
C2271 H2294 0.929 . S
C2272 C2269 1.432 . S
C2272 C2270 1.417 . S
C2272 N2280 1.360 . S
C2273 C2269 1.414 . S
C2273 C2271 1.444 . S
C2273 C2278 1.385 . S
C2274 C2270 1.432 . S
C2274 C2271 1.317 . S
C2274 H2286 0.930 . S
C2275 C2277 1.392 1_655 S
C2275 C2278 1.370 . S
C2275 H2287 0.931 1_655 S
N2276 C2269 1.359 1_455 S
N2276 C2277 1.327 . S
N2276 Tb2279 2.600 . S
C2277 C2275 1.392 1_455 S
C2277 N2276 1.327 . S
C2277 H2284 0.930 . S
C2278 C2273 1.385 . S
C2278 C2275 1.370 . S
C2278 H2297 0.930 . S
Tb2279 N2276 2.600 . S
Tb2279 N2280 2.660 1_455 S
Tb2279 O2313 2.362 . S
Tb2279 O2314 2.421 . S
Tb2279 O2318 2.556 . S
Tb2279 O2319 2.610 . S
Tb2279 O2321 2.320 . S
Tb2279 O2322 2.552 . S
Tb2279 O2323 2.413 1_455 S
Tb2279 C2343 2.833 1_455 S
N2280 C2272 1.360 . S
N2280 Tb2279 2.660 1_655 S
N2280 C2281 1.305 . S
C2281 N2280 1.305 . S
C2281 C2283 1.407 . S
C2281 H2288 0.930 . S
C2282 C2270 1.410 . S
C2282 C2283 1.345 . S
C2282 H2290 0.930 . S
C2283 C2281 1.407 . S
C2283 C2282 1.345 . S
C2283 H2285 0.930 . S
H2284 C2277 0.930 . S
H2285 C2283 0.930 . S
H2286 C2274 0.930 . S
H2287 C2275 0.931 1_455 S
H2288 C2281 0.930 . S
H2289 C2303 0.930 . S
H2290 C2282 0.930 . S
H2291 C2309 0.930 . S
H2292 C2300 0.930 . S
H2293 C2307 0.931 . S
H2294 C2271 0.929 . S
H2295 C2301 0.930 . S
H2296 C2334 0.930 . S
H2297 C2278 0.930 . S
H2298 C2333 0.929 . S
N2299 Tb2268 2.660 . S
N2299 C2300 1.305 . S
N2299 C2304 1.360 . S
C2300 H2292 0.930 . S
C2300 N2299 1.305 . S
C2300 C2303 1.407 . S
C2301 H2295 0.930 . S
C2301 C2302 1.410 . S
C2301 C2303 1.345 . S
C2302 C2301 1.410 . S
C2302 C2304 1.417 . S
C2302 C2334 1.432 . S
C2303 H2289 0.930 . S
C2303 C2300 1.407 . S
C2303 C2301 1.345 . S
C2304 N2299 1.360 . S
C2304 C2302 1.417 . S
C2304 C2308 1.432 . S
H2305 C2310 0.930 . S
N2306 Tb2268 2.600 . S
N2306 C2308 1.359 . S
N2306 C2309 1.327 . S
C2307 H2293 0.931 . S
C2307 C2309 1.392 . S
C2307 C2310 1.370 . S
C2308 C2304 1.432 . S
C2308 N2306 1.359 . S
C2308 C2311 1.414 . S
C2309 H2291 0.930 . S
C2309 N2306 1.327 . S
C2309 C2307 1.392 . S
C2310 H2305 0.930 . S
C2310 C2307 1.370 . S
C2310 C2311 1.385 . S
C2311 C2308 1.414 . S
C2311 C2310 1.385 . S
C2311 C2333 1.444 . S
O2312 Tb2268 2.546 . S
O2312 C2332 1.251 . S
O2313 Tb2268 2.610 . S
O2313 Tb2279 2.362 . S
O2313 C2324 1.283 . S
O2314 Tb2279 2.421 . S
O2314 C2331 1.262 . S
O2315 Tb2268 2.320 . S
O2315 C2331 1.260 . S
O2316 Tb2268 2.552 . S
O2316 C2324 1.243 . S
O2317 Tb2268 2.413 . S
O2317 C2332 1.256 . S
O2318 Tb2279 2.556 . S
O2318 C2343 1.233 1_455 S
O2319 Tb2268 2.362 . S
O2319 Tb2279 2.610 . S
O2319 C2335 1.283 . S
O2320 Tb2268 2.421 . S
O2320 C2342 1.262 . S
O2321 Tb2279 2.320 . S
O2321 C2342 1.260 . S
O2322 Tb2279 2.552 . S
O2322 C2335 1.243 . S
O2323 Tb2279 2.413 1_655 S
O2323 C2343 1.256 . S
C2324 O2313 1.283 . S
C2324 O2316 1.243 . S
C2325 C2327 1.382 . S
C2325 C2329 1.393 . S
C2325 C2332 1.500 . S
C2326 C2327 1.400 . S
C2326 C2328 1.384 . S
C2327 C2325 1.382 . S
C2327 C2326 1.400 . S
C2327 H2344 0.930 . S
C2328 C2326 1.384 . S
C2328 C2330 1.392 . S
C2328 H2345 0.931 . S
C2329 C2325 1.393 . S
C2329 C2330 1.401 . S
C2329 H2346 0.930 . S
C2330 C2328 1.392 . S
C2330 C2329 1.401 . S
C2330 H2347 0.930 . S
C2331 O2314 1.262 . S
C2331 O2315 1.260 . S
C2332 Tb2268 2.833 . S
C2332 O2312 1.251 . S
C2332 O2317 1.256 . S
C2332 C2325 1.500 . S
C2333 H2298 0.929 . S
C2333 C2311 1.444 . S
C2333 C2334 1.317 . S
C2334 H2296 0.930 . S
C2334 C2302 1.432 . S
C2334 C2333 1.317 . S
C2335 O2319 1.283 . S
C2335 O2322 1.243 . S
C2336 C2337 1.382 . S
C2336 C2340 1.393 . S
C2336 C2343 1.500 . S
C2337 C2336 1.382 . S
C2337 C2338 1.400 . S
C2337 H2348 0.930 . S
C2338 C2337 1.400 . S
C2338 C2339 1.384 . S
C2339 C2338 1.384 . S
C2339 C2341 1.392 . S
C2339 H2349 0.931 . S
C2340 C2336 1.393 . S
C2340 C2341 1.401 . S
C2340 H2350 0.930 . S
C2341 C2339 1.392 . S
C2341 C2340 1.401 . S
C2341 H2351 0.930 . S
C2342 O2320 1.262 . S
C2342 O2321 1.260 . S
C2343 Tb2279 2.833 1_655 S
C2343 O2318 1.233 1_655 S
C2343 O2323 1.256 . S
C2343 C2336 1.500 . S
H2344 C2327 0.930 . S
H2345 C2328 0.931 . S
H2346 C2329 0.930 . S
H2347 C2330 0.930 . S
H2348 C2337 0.930 . S
H2349 C2339 0.931 . S
H2350 C2340 0.930 . S
H2351 C2341 0.930 . S
Tb2352 N2383 2.660 . S
Tb2352 N2390 2.600 . S
Tb2352 O2396 2.546 . S
Tb2352 O2397 2.610 . S
Tb2352 O2399 2.320 . S
Tb2352 O2400 2.552 . S
Tb2352 O2401 2.413 . S
Tb2352 O2403 2.362 . S
Tb2352 O2404 2.421 . S
Tb2352 C2416 2.833 . S
C2353 C2356 1.432 . S
C2353 C2357 1.414 . S
C2353 N2360 1.359 . S
C2354 C2356 1.417 . S
C2354 C2358 1.432 . S
C2354 C2366 1.410 . S
C2355 C2357 1.444 . S
C2355 C2358 1.317 . S
C2355 H2378 0.929 . S
C2356 C2353 1.432 . S
C2356 C2354 1.417 . S
C2356 N2364 1.360 . S
C2357 C2353 1.414 . S
C2357 C2355 1.444 . S
C2357 C2362 1.385 . S
C2358 C2354 1.432 . S
C2358 C2355 1.317 . S
C2358 H2370 0.930 . S
C2359 C2361 1.392 . S
C2359 C2362 1.370 . S
C2359 H2371 0.931 . S
N2360 C2353 1.359 . S
N2360 C2361 1.327 . S
N2360 Tb2363 2.600 . S
C2361 C2359 1.392 . S
C2361 N2360 1.327 . S
C2361 H2368 0.930 . S
C2362 C2357 1.385 . S
C2362 C2359 1.370 . S
C2362 H2381 0.930 . S
Tb2363 N2360 2.600 . S
Tb2363 N2364 2.660 . S
Tb2363 O2397 2.362 . S
Tb2363 O2398 2.421 . S
Tb2363 O2402 2.546 . S
Tb2363 O2403 2.610 . S
Tb2363 O2405 2.320 . S
Tb2363 O2406 2.552 . S
Tb2363 O2407 2.413 . S
Tb2363 C2427 2.833 . S
N2364 C2356 1.360 . S
N2364 Tb2363 2.660 . S
N2364 C2365 1.305 . S
C2365 N2364 1.305 . S
C2365 C2367 1.407 . S
C2365 H2372 0.930 . S
C2366 C2354 1.410 . S
C2366 C2367 1.345 . S
C2366 H2374 0.930 . S
C2367 C2365 1.407 . S
C2367 C2366 1.345 . S
C2367 H2369 0.930 . S
H2368 C2361 0.930 . S
H2369 C2367 0.930 . S
H2370 C2358 0.930 . S
H2371 C2359 0.931 . S
H2372 C2365 0.930 . S
H2373 C2387 0.930 . S
H2374 C2366 0.930 . S
H2375 C2393 0.930 . S
H2376 C2384 0.930 . S
H2377 C2391 0.931 . S
H2378 C2355 0.929 . S
H2379 C2385 0.930 . S
H2380 C2418 0.930 . S
H2381 C2362 0.930 . S
H2382 C2417 0.929 . S
N2383 Tb2352 2.660 . S
N2383 C2384 1.305 . S
N2383 C2388 1.360 . S
C2384 H2376 0.930 . S
C2384 N2383 1.305 . S
C2384 C2387 1.407 . S
C2385 H2379 0.930 . S
C2385 C2386 1.410 . S
C2385 C2387 1.345 . S
C2386 C2385 1.410 . S
C2386 C2388 1.417 . S
C2386 C2418 1.432 . S
C2387 H2373 0.930 . S
C2387 C2384 1.407 . S
C2387 C2385 1.345 . S
C2388 N2383 1.360 . S
C2388 C2386 1.417 . S
C2388 C2392 1.432 . S
H2389 C2394 0.930 . S
N2390 Tb2352 2.600 . S
N2390 C2392 1.359 . S
N2390 C2393 1.327 . S
C2391 H2377 0.931 . S
C2391 C2393 1.392 . S
C2391 C2394 1.370 . S
C2392 C2388 1.432 . S
C2392 N2390 1.359 . S
C2392 C2395 1.414 . S
C2393 H2375 0.930 . S
C2393 N2390 1.327 . S
C2393 C2391 1.392 . S
C2394 H2389 0.930 . S
C2394 C2391 1.370 . S
C2394 C2395 1.385 . S
C2395 C2392 1.414 . S
C2395 C2394 1.385 . S
C2395 C2417 1.444 . S
O2396 Tb2352 2.546 . S
O2396 C2416 1.251 . S
O2397 Tb2352 2.610 . S
O2397 Tb2363 2.362 . S
O2397 C2408 1.283 . S
O2398 Tb2363 2.421 . S
O2398 C2415 1.262 . S
O2399 Tb2352 2.320 . S
O2399 C2415 1.260 . S
O2400 Tb2352 2.552 . S
O2400 C2408 1.243 . S
O2401 Tb2352 2.413 . S
O2401 C2416 1.256 . S
O2402 Tb2363 2.546 . S
O2402 C2427 1.251 . S
O2403 Tb2352 2.362 . S
O2403 Tb2363 2.610 . S
O2403 C2419 1.283 . S
O2404 Tb2352 2.421 . S
O2404 C2426 1.262 . S
O2405 Tb2363 2.320 . S
O2405 C2426 1.260 . S
O2406 Tb2363 2.552 . S
O2406 C2419 1.243 . S
O2407 Tb2363 2.413 . S
O2407 C2427 1.256 . S
C2408 O2397 1.283 . S
C2408 O2400 1.243 . S
C2409 C2411 1.382 . S
C2409 C2413 1.393 . S
C2409 C2416 1.500 . S
C2410 C2411 1.400 . S
C2410 C2412 1.384 . S
C2411 C2409 1.382 . S
C2411 C2410 1.400 . S
C2411 H2428 0.930 . S
C2412 C2410 1.384 . S
C2412 C2414 1.392 . S
C2412 H2429 0.931 . S
C2413 C2409 1.393 . S
C2413 C2414 1.401 . S
C2413 H2430 0.930 . S
C2414 C2412 1.392 . S
C2414 C2413 1.401 . S
C2414 H2431 0.930 . S
C2415 O2398 1.262 . S
C2415 O2399 1.260 . S
C2416 Tb2352 2.833 . S
C2416 O2396 1.251 . S
C2416 O2401 1.256 . S
C2416 C2409 1.500 . S
C2417 H2382 0.929 . S
C2417 C2395 1.444 . S
C2417 C2418 1.317 . S
C2418 H2380 0.930 . S
C2418 C2386 1.432 . S
C2418 C2417 1.317 . S
C2419 O2403 1.283 . S
C2419 O2406 1.243 . S
C2420 C2421 1.382 . S
C2420 C2424 1.393 . S
C2420 C2427 1.500 . S
C2421 C2420 1.382 . S
C2421 C2422 1.400 . S
C2421 H2432 0.930 . S
C2422 C2421 1.400 . S
C2422 C2423 1.384 . S
C2423 C2422 1.384 . S
C2423 C2425 1.392 . S
C2423 H2433 0.931 . S
C2424 C2420 1.393 . S
C2424 C2425 1.401 . S
C2424 H2434 0.930 . S
C2425 C2423 1.392 . S
C2425 C2424 1.401 . S
C2425 H2435 0.930 . S
C2426 O2404 1.262 . S
C2426 O2405 1.260 . S
C2427 Tb2363 2.833 . S
C2427 O2402 1.251 . S
C2427 O2407 1.256 . S
C2427 C2420 1.500 . S
H2428 C2411 0.930 . S
H2429 C2412 0.931 . S
H2430 C2413 0.930 . S
H2431 C2414 0.930 . S
H2432 C2421 0.930 . S
H2433 C2423 0.931 . S
H2434 C2424 0.930 . S
H2435 C2425 0.930 . S
Tb2436 N2467 2.660 . S
Tb2436 N2474 2.600 . S
Tb2436 O2480 2.546 . S
Tb2436 O2481 2.610 . S
Tb2436 O2483 2.320 . S
Tb2436 O2484 2.552 . S
Tb2436 O2485 2.413 . S
Tb2436 O2487 2.362 . S
Tb2436 O2488 2.421 . S
Tb2436 C2500 2.833 . S
C2437 C2440 1.432 . S
C2437 C2441 1.414 . S
C2437 N2444 1.359 1_655 S
C2438 C2440 1.417 . S
C2438 C2442 1.432 . S
C2438 C2450 1.410 . S
C2439 C2441 1.444 . S
C2439 C2442 1.317 . S
C2439 H2462 0.929 . S
C2440 C2437 1.432 . S
C2440 C2438 1.417 . S
C2440 N2448 1.360 . S
C2441 C2437 1.414 . S
C2441 C2439 1.444 . S
C2441 C2446 1.385 . S
C2442 C2438 1.432 . S
C2442 C2439 1.317 . S
C2442 H2454 0.930 . S
C2443 C2445 1.392 1_655 S
C2443 C2446 1.370 . S
C2443 H2455 0.931 1_655 S
N2444 C2437 1.359 1_455 S
N2444 C2445 1.327 . S
N2444 Tb2447 2.600 . S
C2445 C2443 1.392 1_455 S
C2445 N2444 1.327 . S
C2445 H2452 0.930 . S
C2446 C2441 1.385 . S
C2446 C2443 1.370 . S
C2446 H2465 0.930 . S
Tb2447 N2444 2.600 . S
Tb2447 N2448 2.660 1_455 S
Tb2447 O2481 2.362 . S
Tb2447 O2482 2.421 . S
Tb2447 O2486 2.556 . S
Tb2447 O2487 2.610 . S
Tb2447 O2489 2.320 . S
Tb2447 O2490 2.552 . S
Tb2447 O2491 2.413 1_455 S
Tb2447 C2511 2.833 1_455 S
N2448 C2440 1.360 . S
N2448 Tb2447 2.660 1_655 S
N2448 C2449 1.305 . S
C2449 N2448 1.305 . S
C2449 C2451 1.407 . S
C2449 H2456 0.930 . S
C2450 C2438 1.410 . S
C2450 C2451 1.345 . S
C2450 H2458 0.930 . S
C2451 C2449 1.407 . S
C2451 C2450 1.345 . S
C2451 H2453 0.930 . S
H2452 C2445 0.930 . S
H2453 C2451 0.930 . S
H2454 C2442 0.930 . S
H2455 C2443 0.931 1_455 S
H2456 C2449 0.930 . S
H2457 C2471 0.930 . S
H2458 C2450 0.930 . S
H2459 C2477 0.930 . S
H2460 C2468 0.930 . S
H2461 C2475 0.931 . S
H2462 C2439 0.929 . S
H2463 C2469 0.930 . S
H2464 C2502 0.930 . S
H2465 C2446 0.930 . S
H2466 C2501 0.929 . S
N2467 Tb2436 2.660 . S
N2467 C2468 1.305 . S
N2467 C2472 1.360 . S
C2468 H2460 0.930 . S
C2468 N2467 1.305 . S
C2468 C2471 1.407 . S
C2469 H2463 0.930 . S
C2469 C2470 1.410 . S
C2469 C2471 1.345 . S
C2470 C2469 1.410 . S
C2470 C2472 1.417 . S
C2470 C2502 1.432 . S
C2471 H2457 0.930 . S
C2471 C2468 1.407 . S
C2471 C2469 1.345 . S
C2472 N2467 1.360 . S
C2472 C2470 1.417 . S
C2472 C2476 1.432 . S
H2473 C2478 0.930 . S
N2474 Tb2436 2.600 . S
N2474 C2476 1.359 . S
N2474 C2477 1.327 . S
C2475 H2461 0.931 . S
C2475 C2477 1.392 . S
C2475 C2478 1.370 . S
C2476 C2472 1.432 . S
C2476 N2474 1.359 . S
C2476 C2479 1.414 . S
C2477 H2459 0.930 . S
C2477 N2474 1.327 . S
C2477 C2475 1.392 . S
C2478 H2473 0.930 . S
C2478 C2475 1.370 . S
C2478 C2479 1.385 . S
C2479 C2476 1.414 . S
C2479 C2478 1.385 . S
C2479 C2501 1.444 . S
O2480 Tb2436 2.546 . S
O2480 C2500 1.251 . S
O2481 Tb2436 2.610 . S
O2481 Tb2447 2.362 . S
O2481 C2492 1.283 . S
O2482 Tb2447 2.421 . S
O2482 C2499 1.262 . S
O2483 Tb2436 2.320 . S
O2483 C2499 1.260 . S
O2484 Tb2436 2.552 . S
O2484 C2492 1.243 . S
O2485 Tb2436 2.413 . S
O2485 C2500 1.256 . S
O2486 Tb2447 2.556 . S
O2486 C2511 1.233 1_455 S
O2487 Tb2436 2.362 . S
O2487 Tb2447 2.610 . S
O2487 C2503 1.283 . S
O2488 Tb2436 2.421 . S
O2488 C2510 1.262 . S
O2489 Tb2447 2.320 . S
O2489 C2510 1.260 . S
O2490 Tb2447 2.552 . S
O2490 C2503 1.243 . S
O2491 Tb2447 2.413 1_655 S
O2491 C2511 1.256 . S
C2492 O2481 1.283 . S
C2492 O2484 1.243 . S
C2493 C2495 1.382 . S
C2493 C2497 1.393 . S
C2493 C2500 1.500 . S
C2494 C2495 1.400 . S
C2494 C2496 1.384 . S
C2495 C2493 1.382 . S
C2495 C2494 1.400 . S
C2495 H2512 0.930 . S
C2496 C2494 1.384 . S
C2496 C2498 1.392 . S
C2496 H2513 0.931 . S
C2497 C2493 1.393 . S
C2497 C2498 1.401 . S
C2497 H2514 0.930 . S
C2498 C2496 1.392 . S
C2498 C2497 1.401 . S
C2498 H2515 0.930 . S
C2499 O2482 1.262 . S
C2499 O2483 1.260 . S
C2500 Tb2436 2.833 . S
C2500 O2480 1.251 . S
C2500 O2485 1.256 . S
C2500 C2493 1.500 . S
C2501 H2466 0.929 . S
C2501 C2479 1.444 . S
C2501 C2502 1.317 . S
C2502 H2464 0.930 . S
C2502 C2470 1.432 . S
C2502 C2501 1.317 . S
C2503 O2487 1.283 . S
C2503 O2490 1.243 . S
C2504 C2505 1.382 . S
C2504 C2508 1.393 . S
C2504 C2511 1.500 . S
C2505 C2504 1.382 . S
C2505 C2506 1.400 . S
C2505 H2516 0.930 . S
C2506 C2505 1.400 . S
C2506 C2507 1.384 . S
C2507 C2506 1.384 . S
C2507 C2509 1.392 . S
C2507 H2517 0.931 . S
C2508 C2504 1.393 . S
C2508 C2509 1.401 . S
C2508 H2518 0.930 . S
C2509 C2507 1.392 . S
C2509 C2508 1.401 . S
C2509 H2519 0.930 . S
C2510 O2488 1.262 . S
C2510 O2489 1.260 . S
C2511 Tb2447 2.833 1_655 S
C2511 O2486 1.233 1_655 S
C2511 O2491 1.256 . S
C2511 C2504 1.500 . S
H2512 C2495 0.930 . S
H2513 C2496 0.931 . S
H2514 C2497 0.930 . S
H2515 C2498 0.930 . S
H2516 C2505 0.930 . S
H2517 C2507 0.931 . S
H2518 C2508 0.930 . S
H2519 C2509 0.930 . S
Tb2520 N2551 2.660 . S
Tb2520 N2558 2.600 . S
Tb2520 O2564 2.546 . S
Tb2520 O2565 2.610 . S
Tb2520 O2567 2.320 . S
Tb2520 O2568 2.552 . S
Tb2520 O2569 2.413 . S
Tb2520 O2571 2.362 . S
Tb2520 O2572 2.421 . S
Tb2520 C2584 2.833 . S
C2521 C2524 1.432 . S
C2521 C2525 1.414 . S
C2521 N2528 1.359 . S
C2522 C2524 1.417 . S
C2522 C2526 1.432 . S
C2522 C2534 1.410 . S
C2523 C2525 1.444 . S
C2523 C2526 1.317 . S
C2523 H2546 0.929 . S
C2524 C2521 1.432 . S
C2524 C2522 1.417 . S
C2524 N2532 1.360 . S
C2525 C2521 1.414 . S
C2525 C2523 1.444 . S
C2525 C2530 1.385 . S
C2526 C2522 1.432 . S
C2526 C2523 1.317 . S
C2526 H2538 0.930 . S
C2527 C2529 1.392 . S
C2527 C2530 1.370 . S
C2527 H2539 0.931 . S
N2528 C2521 1.359 . S
N2528 C2529 1.327 . S
N2528 Tb2531 2.600 . S
C2529 C2527 1.392 . S
C2529 N2528 1.327 . S
C2529 H2536 0.930 . S
C2530 C2525 1.385 . S
C2530 C2527 1.370 . S
C2530 H2549 0.930 . S
Tb2531 N2528 2.600 . S
Tb2531 N2532 2.660 . S
Tb2531 O2565 2.362 . S
Tb2531 O2566 2.421 . S
Tb2531 O2570 2.546 . S
Tb2531 O2571 2.610 . S
Tb2531 O2573 2.320 . S
Tb2531 O2574 2.552 . S
Tb2531 O2575 2.413 . S
Tb2531 C2595 2.833 . S
N2532 C2524 1.360 . S
N2532 Tb2531 2.660 . S
N2532 C2533 1.305 . S
C2533 N2532 1.305 . S
C2533 C2535 1.407 . S
C2533 H2540 0.930 . S
C2534 C2522 1.410 . S
C2534 C2535 1.345 . S
C2534 H2542 0.930 . S
C2535 C2533 1.407 . S
C2535 C2534 1.345 . S
C2535 H2537 0.930 . S
H2536 C2529 0.930 . S
H2537 C2535 0.930 . S
H2538 C2526 0.930 . S
H2539 C2527 0.931 . S
H2540 C2533 0.930 . S
H2541 C2555 0.930 . S
H2542 C2534 0.930 . S
H2543 C2561 0.930 . S
H2544 C2552 0.930 . S
H2545 C2559 0.931 . S
H2546 C2523 0.929 . S
H2547 C2553 0.930 . S
H2548 C2586 0.930 . S
H2549 C2530 0.930 . S
H2550 C2585 0.929 . S
N2551 Tb2520 2.660 . S
N2551 C2552 1.305 . S
N2551 C2556 1.360 . S
C2552 H2544 0.930 . S
C2552 N2551 1.305 . S
C2552 C2555 1.407 . S
C2553 H2547 0.930 . S
C2553 C2554 1.410 . S
C2553 C2555 1.345 . S
C2554 C2553 1.410 . S
C2554 C2556 1.417 . S
C2554 C2586 1.432 . S
C2555 H2541 0.930 . S
C2555 C2552 1.407 . S
C2555 C2553 1.345 . S
C2556 N2551 1.360 . S
C2556 C2554 1.417 . S
C2556 C2560 1.432 . S
H2557 C2562 0.930 . S
N2558 Tb2520 2.600 . S
N2558 C2560 1.359 . S
N2558 C2561 1.327 . S
C2559 H2545 0.931 . S
C2559 C2561 1.392 . S
C2559 C2562 1.370 . S
C2560 C2556 1.432 . S
C2560 N2558 1.359 . S
C2560 C2563 1.414 . S
C2561 H2543 0.930 . S
C2561 N2558 1.327 . S
C2561 C2559 1.392 . S
C2562 H2557 0.930 . S
C2562 C2559 1.370 . S
C2562 C2563 1.385 . S
C2563 C2560 1.414 . S
C2563 C2562 1.385 . S
C2563 C2585 1.444 . S
O2564 Tb2520 2.546 . S
O2564 C2584 1.251 . S
O2565 Tb2520 2.610 . S
O2565 Tb2531 2.362 . S
O2565 C2576 1.283 . S
O2566 Tb2531 2.421 . S
O2566 C2583 1.262 . S
O2567 Tb2520 2.320 . S
O2567 C2583 1.260 . S
O2568 Tb2520 2.552 . S
O2568 C2576 1.243 . S
O2569 Tb2520 2.413 . S
O2569 C2584 1.256 . S
O2570 Tb2531 2.546 . S
O2570 C2595 1.251 . S
O2571 Tb2520 2.362 . S
O2571 Tb2531 2.610 . S
O2571 C2587 1.283 . S
O2572 Tb2520 2.421 . S
O2572 C2594 1.262 . S
O2573 Tb2531 2.320 . S
O2573 C2594 1.260 . S
O2574 Tb2531 2.552 . S
O2574 C2587 1.243 . S
O2575 Tb2531 2.413 . S
O2575 C2595 1.256 . S
C2576 O2565 1.283 . S
C2576 O2568 1.243 . S
C2577 C2579 1.382 . S
C2577 C2581 1.393 . S
C2577 C2584 1.500 . S
C2578 C2579 1.400 . S
C2578 C2580 1.384 . S
C2579 C2577 1.382 . S
C2579 C2578 1.400 . S
C2579 H2596 0.930 . S
C2580 C2578 1.384 . S
C2580 C2582 1.392 . S
C2580 H2597 0.931 . S
C2581 C2577 1.393 . S
C2581 C2582 1.401 . S
C2581 H2598 0.930 . S
C2582 C2580 1.392 . S
C2582 C2581 1.401 . S
C2582 H2599 0.930 . S
C2583 O2566 1.262 . S
C2583 O2567 1.260 . S
C2584 Tb2520 2.833 . S
C2584 O2564 1.251 . S
C2584 O2569 1.256 . S
C2584 C2577 1.500 . S
C2585 H2550 0.929 . S
C2585 C2563 1.444 . S
C2585 C2586 1.317 . S
C2586 H2548 0.930 . S
C2586 C2554 1.432 . S
C2586 C2585 1.317 . S
C2587 O2571 1.283 . S
C2587 O2574 1.243 . S
C2588 C2589 1.382 . S
C2588 C2592 1.393 . S
C2588 C2595 1.500 . S
C2589 C2588 1.382 . S
C2589 C2590 1.400 . S
C2589 H2600 0.930 . S
C2590 C2589 1.400 . S
C2590 C2591 1.384 . S
C2591 C2590 1.384 . S
C2591 C2593 1.392 . S
C2591 H2601 0.931 . S
C2592 C2588 1.393 . S
C2592 C2593 1.401 . S
C2592 H2602 0.930 . S
C2593 C2591 1.392 . S
C2593 C2592 1.401 . S
C2593 H2603 0.930 . S
C2594 O2572 1.262 . S
C2594 O2573 1.260 . S
C2595 Tb2531 2.833 . S
C2595 O2570 1.251 . S
C2595 O2575 1.256 . S
C2595 C2588 1.500 . S
H2596 C2579 0.930 . S
H2597 C2580 0.931 . S
H2598 C2581 0.930 . S
H2599 C2582 0.930 . S
H2600 C2589 0.930 . S
H2601 C2591 0.931 . S
H2602 C2592 0.930 . S
H2603 C2593 0.930 . S
Tb2604 N2635 2.660 . S
Tb2604 N2642 2.600 . S
Tb2604 O2648 2.546 . S
Tb2604 O2649 2.610 . S
Tb2604 O2651 2.320 . S
Tb2604 O2652 2.552 . S
Tb2604 O2653 2.413 . S
Tb2604 O2655 2.362 . S
Tb2604 O2656 2.421 . S
Tb2604 C2668 2.833 . S
C2605 C2608 1.432 . S
C2605 C2609 1.414 . S
C2605 N2612 1.359 . S
C2606 C2608 1.417 . S
C2606 C2610 1.432 . S
C2606 C2618 1.410 . S
C2607 C2609 1.444 . S
C2607 C2610 1.317 . S
C2607 H2630 0.929 . S
C2608 C2605 1.432 . S
C2608 C2606 1.417 . S
C2608 N2616 1.360 . S
C2609 C2605 1.414 . S
C2609 C2607 1.444 . S
C2609 C2614 1.385 . S
C2610 C2606 1.432 . S
C2610 C2607 1.317 . S
C2610 H2622 0.930 . S
C2611 C2613 1.392 . S
C2611 C2614 1.370 . S
C2611 H2623 0.931 . S
N2612 C2605 1.359 . S
N2612 C2613 1.327 . S
N2612 Tb2615 2.600 . S
C2613 C2611 1.392 . S
C2613 N2612 1.327 . S
C2613 H2620 0.930 . S
C2614 C2609 1.385 . S
C2614 C2611 1.370 . S
C2614 H2633 0.930 . S
Tb2615 N2612 2.600 . S
Tb2615 N2616 2.660 . S
Tb2615 O2649 2.362 . S
Tb2615 O2650 2.421 . S
Tb2615 O2654 2.546 . S
Tb2615 O2655 2.610 . S
Tb2615 O2657 2.320 . S
Tb2615 O2658 2.552 . S
Tb2615 O2659 2.413 . S
Tb2615 C2679 2.833 . S
N2616 C2608 1.360 . S
N2616 Tb2615 2.660 . S
N2616 C2617 1.305 . S
C2617 N2616 1.305 . S
C2617 C2619 1.407 . S
C2617 H2624 0.930 . S
C2618 C2606 1.410 . S
C2618 C2619 1.345 . S
C2618 H2626 0.930 . S
C2619 C2617 1.407 . S
C2619 C2618 1.345 . S
C2619 H2621 0.930 . S
H2620 C2613 0.930 . S
H2621 C2619 0.930 . S
H2622 C2610 0.930 . S
H2623 C2611 0.931 . S
H2624 C2617 0.930 . S
H2625 C2639 0.930 . S
H2626 C2618 0.930 . S
H2627 C2645 0.930 . S
H2628 C2636 0.930 . S
H2629 C2643 0.931 . S
H2630 C2607 0.929 . S
H2631 C2637 0.930 . S
H2632 C2670 0.930 . S
H2633 C2614 0.930 . S
H2634 C2669 0.929 . S
N2635 Tb2604 2.660 . S
N2635 C2636 1.305 . S
N2635 C2640 1.360 . S
C2636 H2628 0.930 . S
C2636 N2635 1.305 . S
C2636 C2639 1.407 . S
C2637 H2631 0.930 . S
C2637 C2638 1.410 . S
C2637 C2639 1.345 . S
C2638 C2637 1.410 . S
C2638 C2640 1.417 . S
C2638 C2670 1.432 . S
C2639 H2625 0.930 . S
C2639 C2636 1.407 . S
C2639 C2637 1.345 . S
C2640 N2635 1.360 . S
C2640 C2638 1.417 . S
C2640 C2644 1.432 . S
H2641 C2646 0.930 . S
N2642 Tb2604 2.600 . S
N2642 C2644 1.359 . S
N2642 C2645 1.327 . S
C2643 H2629 0.931 . S
C2643 C2645 1.392 . S
C2643 C2646 1.370 . S
C2644 C2640 1.432 . S
C2644 N2642 1.359 . S
C2644 C2647 1.414 . S
C2645 H2627 0.930 . S
C2645 N2642 1.327 . S
C2645 C2643 1.392 . S
C2646 H2641 0.930 . S
C2646 C2643 1.370 . S
C2646 C2647 1.385 . S
C2647 C2644 1.414 . S
C2647 C2646 1.385 . S
C2647 C2669 1.444 . S
O2648 Tb2604 2.546 . S
O2648 C2668 1.251 . S
O2649 Tb2604 2.610 . S
O2649 Tb2615 2.362 . S
O2649 C2660 1.283 . S
O2650 Tb2615 2.421 . S
O2650 C2667 1.262 . S
O2651 Tb2604 2.320 . S
O2651 C2667 1.260 . S
O2652 Tb2604 2.552 . S
O2652 C2660 1.243 . S
O2653 Tb2604 2.413 . S
O2653 C2668 1.256 . S
O2654 Tb2615 2.546 . S
O2654 C2679 1.251 . S
O2655 Tb2604 2.362 . S
O2655 Tb2615 2.610 . S
O2655 C2671 1.283 . S
O2656 Tb2604 2.421 . S
O2656 C2678 1.262 . S
O2657 Tb2615 2.320 . S
O2657 C2678 1.260 . S
O2658 Tb2615 2.552 . S
O2658 C2671 1.243 . S
O2659 Tb2615 2.413 . S
O2659 C2679 1.256 . S
C2660 O2649 1.283 . S
C2660 O2652 1.243 . S
C2661 C2663 1.382 . S
C2661 C2665 1.393 . S
C2661 C2668 1.500 . S
C2662 C2663 1.400 . S
C2662 C2664 1.384 . S
C2663 C2661 1.382 . S
C2663 C2662 1.400 . S
C2663 H2680 0.930 . S
C2664 C2662 1.384 . S
C2664 C2666 1.392 . S
C2664 H2681 0.931 . S
C2665 C2661 1.393 . S
C2665 C2666 1.401 . S
C2665 H2682 0.930 . S
C2666 C2664 1.392 . S
C2666 C2665 1.401 . S
C2666 H2683 0.930 . S
C2667 O2650 1.262 . S
C2667 O2651 1.260 . S
C2668 Tb2604 2.833 . S
C2668 O2648 1.251 . S
C2668 O2653 1.256 . S
C2668 C2661 1.500 . S
C2669 H2634 0.929 . S
C2669 C2647 1.444 . S
C2669 C2670 1.317 . S
C2670 H2632 0.930 . S
C2670 C2638 1.432 . S
C2670 C2669 1.317 . S
C2671 O2655 1.283 . S
C2671 O2658 1.243 . S
C2672 C2673 1.382 . S
C2672 C2676 1.393 . S
C2672 C2679 1.500 . S
C2673 C2672 1.382 . S
C2673 C2674 1.400 . S
C2673 H2684 0.930 . S
C2674 C2673 1.400 . S
C2674 C2675 1.384 . S
C2675 C2674 1.384 . S
C2675 C2677 1.392 . S
C2675 H2685 0.931 . S
C2676 C2672 1.393 . S
C2676 C2677 1.401 . S
C2676 H2686 0.930 . S
C2677 C2675 1.392 . S
C2677 C2676 1.401 . S
C2677 H2687 0.930 . S
C2678 O2656 1.262 . S
C2678 O2657 1.260 . S
C2679 Tb2615 2.833 . S
C2679 O2654 1.251 . S
C2679 O2659 1.256 . S
C2679 C2672 1.500 . S
H2680 C2663 0.930 . S
H2681 C2664 0.931 . S
H2682 C2665 0.930 . S
H2683 C2666 0.930 . S
H2684 C2673 0.930 . S
H2685 C2675 0.931 . S
H2686 C2676 0.930 . S
H2687 C2677 0.930 . S
H2688 C2694 0.930 . S
H2689 C2698 0.930 . S
H2690 C2703 0.929 . S
H2691 C2701 0.929 . S
H2692 C2696 0.929 . S
H2693 C2702 0.929 . S
C2694 H2688 0.930 . S
C2694 C2695 1.367 . S
C2694 C2702 1.378 . S
C2695 C2694 1.367 . S
C2695 C2703 1.433 . S
C2696 H2692 0.929 . S
C2696 C2698 1.378 . S
C2696 C2700 1.350 . S
C2697 C2700 1.463 . S
C2697 C2702 1.350 . S
C2697 N2705 1.427 . S
C2698 H2689 0.930 . S
C2698 C2696 1.378 . S
C2698 C2699 1.367 . S
C2699 C2698 1.367 . S
C2699 C2701 1.433 . S
C2700 C2696 1.350 . S
C2700 C2697 1.463 . S
C2700 N2704 1.427 . S
C2701 H2691 0.929 . S
C2701 C2699 1.433 . S
C2701 N2704 1.384 . S
C2702 H2693 0.929 . S
C2702 C2694 1.378 . S
C2702 C2697 1.350 . S
C2703 H2690 0.929 . S
C2703 C2695 1.433 . S
C2703 N2705 1.384 . S
N2704 C2700 1.427 . S
N2704 C2701 1.384 . S
N2705 C2697 1.427 . S
N2705 C2703 1.384 . S
H2706 C2712 0.930 . S
H2707 C2716 0.930 . S
H2708 C2721 0.929 . S
H2709 C2719 0.929 . S
H2710 C2714 0.929 . S
H2711 C2720 0.929 . S
C2712 H2706 0.930 . S
C2712 C2713 1.367 . S
C2712 C2720 1.378 . S
C2713 C2712 1.367 . S
C2713 C2721 1.433 . S
C2714 H2710 0.929 . S
C2714 C2716 1.378 . S
C2714 C2718 1.350 . S
C2715 C2718 1.463 . S
C2715 C2720 1.350 . S
C2715 N2723 1.427 . S
C2716 H2707 0.930 . S
C2716 C2714 1.378 . S
C2716 C2717 1.367 . S
C2717 C2716 1.367 . S
C2717 C2719 1.433 . S
C2718 C2714 1.350 . S
C2718 C2715 1.463 . S
C2718 N2722 1.427 . S
C2719 H2709 0.929 . S
C2719 C2717 1.433 . S
C2719 N2722 1.384 . S
C2720 H2711 0.929 . S
C2720 C2712 1.378 . S
C2720 C2715 1.350 . S
C2721 H2708 0.929 . S
C2721 C2713 1.433 . S
C2721 N2723 1.384 . S
N2722 C2718 1.427 . S
N2722 C2719 1.384 . S
N2723 C2715 1.427 . S
N2723 C2721 1.384 . S
H2724 C2730 0.930 . S
H2725 C2734 0.930 . S
H2726 C2739 0.929 . S
H2727 C2737 0.929 . S
H2728 C2732 0.929 . S
H2729 C2738 0.929 . S
C2730 H2724 0.930 . S
C2730 C2731 1.367 . S
C2730 C2738 1.378 . S
C2731 C2730 1.367 . S
C2731 C2739 1.433 . S
C2732 H2728 0.929 . S
C2732 C2734 1.378 . S
C2732 C2736 1.350 . S
C2733 C2736 1.463 . S
C2733 C2738 1.350 . S
C2733 N2741 1.427 . S
C2734 H2725 0.930 . S
C2734 C2732 1.378 . S
C2734 C2735 1.367 . S
C2735 C2734 1.367 . S
C2735 C2737 1.433 . S
C2736 C2732 1.350 . S
C2736 C2733 1.463 . S
C2736 N2740 1.427 . S
C2737 H2727 0.929 . S
C2737 C2735 1.433 . S
C2737 N2740 1.384 . S
C2738 H2729 0.929 . S
C2738 C2730 1.378 . S
C2738 C2733 1.350 . S
C2739 H2726 0.929 . S
C2739 C2731 1.433 . S
C2739 N2741 1.384 . S
N2740 C2736 1.427 . S
N2740 C2737 1.384 . S
N2741 C2733 1.427 . S
N2741 C2739 1.384 . S
H2742 C2748 0.930 . S
H2743 C2752 0.930 . S
H2744 C2757 0.929 . S
H2745 C2755 0.929 . S
H2746 C2750 0.929 . S
H2747 C2756 0.929 . S
C2748 H2742 0.930 . S
C2748 C2749 1.367 . S
C2748 C2756 1.378 . S
C2749 C2748 1.367 . S
C2749 C2757 1.433 . S
C2750 H2746 0.929 . S
C2750 C2752 1.378 . S
C2750 C2754 1.350 . S
C2751 C2754 1.463 . S
C2751 C2756 1.350 . S
C2751 N2759 1.427 . S
C2752 H2743 0.930 . S
C2752 C2750 1.378 . S
C2752 C2753 1.367 . S
C2753 C2752 1.367 . S
C2753 C2755 1.433 . S
C2754 C2750 1.350 . S
C2754 C2751 1.463 . S
C2754 N2758 1.427 . S
C2755 H2745 0.929 . S
C2755 C2753 1.433 . S
C2755 N2758 1.384 . S
C2756 H2747 0.929 . S
C2756 C2748 1.378 . S
C2756 C2751 1.350 . S
C2757 H2744 0.929 . S
C2757 C2749 1.433 . S
C2757 N2759 1.384 . S
N2758 C2754 1.427 . S
N2758 C2755 1.384 . S
N2759 C2751 1.427 . S
N2759 C2757 1.384 . S
H2760 C2766 0.930 . S
H2761 C2770 0.930 . S
H2762 C2775 0.929 . S
H2763 C2773 0.929 . S
H2764 C2768 0.929 . S
H2765 C2774 0.929 . S
C2766 H2760 0.930 . S
C2766 C2767 1.367 . S
C2766 C2774 1.378 . S
C2767 C2766 1.367 . S
C2767 C2775 1.433 . S
C2768 H2764 0.929 . S
C2768 C2770 1.378 . S
C2768 C2772 1.350 . S
C2769 C2772 1.463 . S
C2769 C2774 1.350 . S
C2769 N2777 1.427 . S
C2770 H2761 0.930 . S
C2770 C2768 1.378 . S
C2770 C2771 1.367 . S
C2771 C2770 1.367 . S
C2771 C2773 1.433 . S
C2772 C2768 1.350 . S
C2772 C2769 1.463 . S
C2772 N2776 1.427 . S
C2773 H2763 0.929 . S
C2773 C2771 1.433 . S
C2773 N2776 1.384 . S
C2774 H2765 0.929 . S
C2774 C2766 1.378 . S
C2774 C2769 1.350 . S
C2775 H2762 0.929 . S
C2775 C2767 1.433 . S
C2775 N2777 1.384 . S
N2776 C2772 1.427 . S
N2776 C2773 1.384 . S
N2777 C2769 1.427 . S
N2777 C2775 1.384 . S
H2778 C2784 0.930 . S
H2779 C2788 0.930 . S
H2780 C2793 0.929 . S
H2781 C2791 0.929 . S
H2782 C2786 0.929 . S
H2783 C2792 0.929 . S
C2784 H2778 0.930 . S
C2784 C2785 1.367 . S
C2784 C2792 1.378 . S
C2785 C2784 1.367 . S
C2785 C2793 1.433 . S
C2786 H2782 0.929 . S
C2786 C2788 1.378 . S
C2786 C2790 1.350 . S
C2787 C2790 1.463 . S
C2787 C2792 1.350 . S
C2787 N2795 1.427 . S
C2788 H2779 0.930 . S
C2788 C2786 1.378 . S
C2788 C2789 1.367 . S
C2789 C2788 1.367 . S
C2789 C2791 1.433 . S
C2790 C2786 1.350 . S
C2790 C2787 1.463 . S
C2790 N2794 1.427 . S
C2791 H2781 0.929 . S
C2791 C2789 1.433 . S
C2791 N2794 1.384 . S
C2792 H2783 0.929 . S
C2792 C2784 1.378 . S
C2792 C2787 1.350 . S
C2793 H2780 0.929 . S
C2793 C2785 1.433 . S
C2793 N2795 1.384 . S
N2794 C2790 1.427 . S
N2794 C2791 1.384 . S
N2795 C2787 1.427 . S
N2795 C2793 1.384 . S
H2796 C2802 0.930 . S
H2797 C2806 0.930 . S
H2798 C2811 0.929 . S
H2799 C2809 0.929 . S
H2800 C2804 0.929 . S
H2801 C2810 0.929 . S
C2802 H2796 0.930 . S
C2802 C2803 1.367 . S
C2802 C2810 1.378 . S
C2803 C2802 1.367 . S
C2803 C2811 1.433 . S
C2804 H2800 0.929 . S
C2804 C2806 1.378 . S
C2804 C2808 1.350 . S
C2805 C2808 1.463 . S
C2805 C2810 1.350 . S
C2805 N2813 1.427 . S
C2806 H2797 0.930 . S
C2806 C2804 1.378 . S
C2806 C2807 1.367 . S
C2807 C2806 1.367 . S
C2807 C2809 1.433 . S
C2808 C2804 1.350 . S
C2808 C2805 1.463 . S
C2808 N2812 1.427 . S
C2809 H2799 0.929 . S
C2809 C2807 1.433 . S
C2809 N2812 1.384 . S
C2810 H2801 0.929 . S
C2810 C2802 1.378 . S
C2810 C2805 1.350 . S
C2811 H2798 0.929 . S
C2811 C2803 1.433 . S
C2811 N2813 1.384 . S
N2812 C2808 1.427 . S
N2812 C2809 1.384 . S
N2813 C2805 1.427 . S
N2813 C2811 1.384 . S
H2814 C2820 0.930 . S
H2815 C2824 0.930 . S
H2816 C2829 0.929 . S
H2817 C2827 0.929 . S
H2818 C2822 0.929 . S
H2819 C2828 0.929 . S
C2820 H2814 0.930 . S
C2820 C2821 1.367 . S
C2820 C2828 1.378 . S
C2821 C2820 1.367 . S
C2821 C2829 1.433 . S
C2822 H2818 0.929 . S
C2822 C2824 1.378 . S
C2822 C2826 1.350 . S
C2823 C2826 1.463 . S
C2823 C2828 1.350 . S
C2823 N2831 1.427 . S
C2824 H2815 0.930 . S
C2824 C2822 1.378 . S
C2824 C2825 1.367 . S
C2825 C2824 1.367 . S
C2825 C2827 1.433 . S
C2826 C2822 1.350 . S
C2826 C2823 1.463 . S
C2826 N2830 1.427 . S
C2827 H2817 0.929 . S
C2827 C2825 1.433 . S
C2827 N2830 1.384 . S
C2828 H2819 0.929 . S
C2828 C2820 1.378 . S
C2828 C2823 1.350 . S
C2829 H2816 0.929 . S
C2829 C2821 1.433 . S
C2829 N2831 1.384 . S
N2830 C2826 1.427 . S
N2830 C2827 1.384 . S
N2831 C2823 1.427 . S
N2831 C2829 1.384 . S
H2832 C2838 0.930 . S
H2833 C2842 0.930 . S
H2834 C2847 0.929 . S
H2835 C2845 0.929 . S
H2836 C2840 0.929 . S
H2837 C2846 0.929 . S
C2838 H2832 0.930 . S
C2838 C2839 1.367 . S
C2838 C2846 1.378 . S
C2839 C2838 1.367 . S
C2839 C2847 1.433 . S
C2840 H2836 0.929 . S
C2840 C2842 1.378 . S
C2840 C2844 1.350 . S
C2841 C2844 1.463 . S
C2841 C2846 1.350 . S
C2841 N2849 1.427 . S
C2842 H2833 0.930 . S
C2842 C2840 1.378 . S
C2842 C2843 1.367 . S
C2843 C2842 1.367 . S
C2843 C2845 1.433 . S
C2844 C2840 1.350 . S
C2844 C2841 1.463 . S
C2844 N2848 1.427 . S
C2845 H2835 0.929 . S
C2845 C2843 1.433 . S
C2845 N2848 1.384 . S
C2846 H2837 0.929 . S
C2846 C2838 1.378 . S
C2846 C2841 1.350 . S
C2847 H2834 0.929 . S
C2847 C2839 1.433 . S
C2847 N2849 1.384 . S
N2848 C2844 1.427 . S
N2848 C2845 1.384 . S
N2849 C2841 1.427 . S
N2849 C2847 1.384 . S
H2850 C2856 0.930 . S
H2851 C2860 0.930 . S
H2852 C2865 0.929 . S
H2853 C2863 0.929 . S
H2854 C2858 0.929 . S
H2855 C2864 0.929 . S
C2856 H2850 0.930 . S
C2856 C2857 1.367 . S
C2856 C2864 1.378 . S
C2857 C2856 1.367 . S
C2857 C2865 1.433 . S
C2858 H2854 0.929 . S
C2858 C2860 1.378 . S
C2858 C2862 1.350 . S
C2859 C2862 1.463 . S
C2859 C2864 1.350 . S
C2859 N2867 1.427 . S
C2860 H2851 0.930 . S
C2860 C2858 1.378 . S
C2860 C2861 1.367 . S
C2861 C2860 1.367 . S
C2861 C2863 1.433 . S
C2862 C2858 1.350 . S
C2862 C2859 1.463 . S
C2862 N2866 1.427 . S
C2863 H2853 0.929 . S
C2863 C2861 1.433 . S
C2863 N2866 1.384 . S
C2864 H2855 0.929 . S
C2864 C2856 1.378 . S
C2864 C2859 1.350 . S
C2865 H2852 0.929 . S
C2865 C2857 1.433 . S
C2865 N2867 1.384 . S
N2866 C2862 1.427 . S
N2866 C2863 1.384 . S
N2867 C2859 1.427 . S
N2867 C2865 1.384 . S
H2868 C2874 0.930 . S
H2869 C2878 0.930 . S
H2870 C2883 0.929 . S
H2871 C2881 0.929 . S
H2872 C2876 0.929 . S
H2873 C2882 0.929 . S
C2874 H2868 0.930 . S
C2874 C2875 1.367 . S
C2874 C2882 1.378 . S
C2875 C2874 1.367 . S
C2875 C2883 1.433 . S
C2876 H2872 0.929 . S
C2876 C2878 1.378 . S
C2876 C2880 1.350 . S
C2877 C2880 1.463 . S
C2877 C2882 1.350 . S
C2877 N2885 1.427 . S
C2878 H2869 0.930 . S
C2878 C2876 1.378 . S
C2878 C2879 1.367 . S
C2879 C2878 1.367 . S
C2879 C2881 1.433 . S
C2880 C2876 1.350 . S
C2880 C2877 1.463 . S
C2880 N2884 1.427 . S
C2881 H2871 0.929 . S
C2881 C2879 1.433 . S
C2881 N2884 1.384 . S
C2882 H2873 0.929 . S
C2882 C2874 1.378 . S
C2882 C2877 1.350 . S
C2883 H2870 0.929 . S
C2883 C2875 1.433 . S
C2883 N2885 1.384 . S
N2884 C2880 1.427 . S
N2884 C2881 1.384 . S
N2885 C2877 1.427 . S
N2885 C2883 1.384 . S
H2886 C2892 0.930 . S
H2887 C2896 0.930 . S
H2888 C2901 0.929 . S
H2889 C2899 0.929 . S
H2890 C2894 0.929 . S
H2891 C2900 0.929 . S
C2892 H2886 0.930 . S
C2892 C2893 1.367 . S
C2892 C2900 1.378 . S
C2893 C2892 1.367 . S
C2893 C2901 1.433 . S
C2894 H2890 0.929 . S
C2894 C2896 1.378 . S
C2894 C2898 1.350 . S
C2895 C2898 1.463 . S
C2895 C2900 1.350 . S
C2895 N2903 1.427 . S
C2896 H2887 0.930 . S
C2896 C2894 1.378 . S
C2896 C2897 1.367 . S
C2897 C2896 1.367 . S
C2897 C2899 1.433 . S
C2898 C2894 1.350 . S
C2898 C2895 1.463 . S
C2898 N2902 1.427 . S
C2899 H2889 0.929 . S
C2899 C2897 1.433 . S
C2899 N2902 1.384 . S
C2900 H2891 0.929 . S
C2900 C2892 1.378 . S
C2900 C2895 1.350 . S
C2901 H2888 0.929 . S
C2901 C2893 1.433 . S
C2901 N2903 1.384 . S
N2902 C2898 1.427 . S
N2902 C2899 1.384 . S
N2903 C2895 1.427 . S
N2903 C2901 1.384 . S
H2904 C2910 0.930 . S
H2905 C2914 0.930 . S
H2906 C2919 0.929 . S
H2907 C2917 0.929 . S
H2908 C2912 0.929 . S
H2909 C2918 0.929 . S
C2910 H2904 0.930 . S
C2910 C2911 1.367 . S
C2910 C2918 1.378 . S
C2911 C2910 1.367 . S
C2911 C2919 1.433 . S
C2912 H2908 0.929 . S
C2912 C2914 1.378 . S
C2912 C2916 1.350 . S
C2913 C2916 1.463 . S
C2913 C2918 1.350 . S
C2913 N2921 1.427 . S
C2914 H2905 0.930 . S
C2914 C2912 1.378 . S
C2914 C2915 1.367 . S
C2915 C2914 1.367 . S
C2915 C2917 1.433 . S
C2916 C2912 1.350 . S
C2916 C2913 1.463 . S
C2916 N2920 1.427 . S
C2917 H2907 0.929 . S
C2917 C2915 1.433 . S
C2917 N2920 1.384 . S
C2918 H2909 0.929 . S
C2918 C2910 1.378 . S
C2918 C2913 1.350 . S
C2919 H2906 0.929 . S
C2919 C2911 1.433 . S
C2919 N2921 1.384 . S
N2920 C2916 1.427 . S
N2920 C2917 1.384 . S
N2921 C2913 1.427 . S
N2921 C2919 1.384 . S
H2922 C2928 0.930 . S
H2923 C2932 0.930 . S
H2924 C2937 0.929 . S
H2925 C2935 0.929 . S
H2926 C2930 0.929 . S
H2927 C2936 0.929 . S
C2928 H2922 0.930 . S
C2928 C2929 1.367 . S
C2928 C2936 1.378 . S
C2929 C2928 1.367 . S
C2929 C2937 1.433 . S
C2930 H2926 0.929 . S
C2930 C2932 1.378 . S
C2930 C2934 1.350 . S
C2931 C2934 1.463 . S
C2931 C2936 1.350 . S
C2931 N2939 1.427 . S
C2932 H2923 0.930 . S
C2932 C2930 1.378 . S
C2932 C2933 1.367 . S
C2933 C2932 1.367 . S
C2933 C2935 1.433 . S
C2934 C2930 1.350 . S
C2934 C2931 1.463 . S
C2934 N2938 1.427 . S
C2935 H2925 0.929 . S
C2935 C2933 1.433 . S
C2935 N2938 1.384 . S
C2936 H2927 0.929 . S
C2936 C2928 1.378 . S
C2936 C2931 1.350 . S
C2937 H2924 0.929 . S
C2937 C2929 1.433 . S
C2937 N2939 1.384 . S
N2938 C2934 1.427 . S
N2938 C2935 1.384 . S
N2939 C2931 1.427 . S
N2939 C2937 1.384 . S
H2940 C2946 0.930 . S
H2941 C2950 0.930 . S
H2942 C2955 0.929 . S
H2943 C2953 0.929 . S
H2944 C2948 0.929 . S
H2945 C2954 0.929 . S
C2946 H2940 0.930 . S
C2946 C2947 1.367 . S
C2946 C2954 1.378 . S
C2947 C2946 1.367 . S
C2947 C2955 1.433 . S
C2948 H2944 0.929 . S
C2948 C2950 1.378 . S
C2948 C2952 1.350 . S
C2949 C2952 1.463 . S
C2949 C2954 1.350 . S
C2949 N2957 1.427 . S
C2950 H2941 0.930 . S
C2950 C2948 1.378 . S
C2950 C2951 1.367 . S
C2951 C2950 1.367 . S
C2951 C2953 1.433 . S
C2952 C2948 1.350 . S
C2952 C2949 1.463 . S
C2952 N2956 1.427 . S
C2953 H2943 0.929 . S
C2953 C2951 1.433 . S
C2953 N2956 1.384 . S
C2954 H2945 0.929 . S
C2954 C2946 1.378 . S
C2954 C2949 1.350 . S
C2955 H2942 0.929 . S
C2955 C2947 1.433 . S
C2955 N2957 1.384 . S
N2956 C2952 1.427 . S
N2956 C2953 1.384 . S
N2957 C2949 1.427 . S
N2957 C2955 1.384 . S
H2958 C2964 0.930 . S
H2959 C2968 0.930 . S
H2960 C2973 0.929 . S
H2961 C2971 0.929 . S
H2962 C2966 0.929 . S
H2963 C2972 0.929 . S
C2964 H2958 0.930 . S
C2964 C2965 1.367 . S
C2964 C2972 1.378 . S
C2965 C2964 1.367 . S
C2965 C2973 1.433 . S
C2966 H2962 0.929 . S
C2966 C2968 1.378 . S
C2966 C2970 1.350 . S
C2967 C2970 1.463 . S
C2967 C2972 1.350 . S
C2967 N2975 1.427 . S
C2968 H2959 0.930 . S
C2968 C2966 1.378 . S
C2968 C2969 1.367 . S
C2969 C2968 1.367 . S
C2969 C2971 1.433 . S
C2970 C2966 1.350 . S
C2970 C2967 1.463 . S
C2970 N2974 1.427 . S
C2971 H2961 0.929 . S
C2971 C2969 1.433 . S
C2971 N2974 1.384 . S
C2972 H2963 0.929 . S
C2972 C2964 1.378 . S
C2972 C2967 1.350 . S
C2973 H2960 0.929 . S
C2973 C2965 1.433 . S
C2973 N2975 1.384 . S
N2974 C2970 1.427 . S
N2974 C2971 1.384 . S
N2975 C2967 1.427 . S
N2975 C2973 1.384 . S
H2976 C2982 0.930 . S
H2977 C2986 0.930 . S
H2978 C2991 0.929 . S
H2979 C2989 0.929 . S
H2980 C2984 0.929 . S
H2981 C2990 0.929 . S
C2982 H2976 0.930 . S
C2982 C2983 1.367 . S
C2982 C2990 1.378 . S
C2983 C2982 1.367 . S
C2983 C2991 1.433 . S
C2984 H2980 0.929 . S
C2984 C2986 1.378 . S
C2984 C2988 1.350 . S
C2985 C2988 1.463 . S
C2985 C2990 1.350 . S
C2985 N2993 1.427 . S
C2986 H2977 0.930 . S
C2986 C2984 1.378 . S
C2986 C2987 1.367 . S
C2987 C2986 1.367 . S
C2987 C2989 1.433 . S
C2988 C2984 1.350 . S
C2988 C2985 1.463 . S
C2988 N2992 1.427 . S
C2989 H2979 0.929 . S
C2989 C2987 1.433 . S
C2989 N2992 1.384 . S
C2990 H2981 0.929 . S
C2990 C2982 1.378 . S
C2990 C2985 1.350 . S
C2991 H2978 0.929 . S
C2991 C2983 1.433 . S
C2991 N2993 1.384 . S
N2992 C2988 1.427 . S
N2992 C2989 1.384 . S
N2993 C2985 1.427 . S
N2993 C2991 1.384 . S
H2994 C3000 0.930 . S
H2995 C3004 0.930 . S
H2996 C3009 0.929 . S
H2997 C3007 0.929 . S
H2998 C3002 0.929 . S
H2999 C3008 0.929 . S
C3000 H2994 0.930 . S
C3000 C3001 1.367 . S
C3000 C3008 1.378 . S
C3001 C3000 1.367 . S
C3001 C3009 1.433 . S
C3002 H2998 0.929 . S
C3002 C3004 1.378 . S
C3002 C3006 1.350 . S
C3003 C3006 1.463 . S
C3003 C3008 1.350 . S
C3003 N3011 1.427 . S
C3004 H2995 0.930 . S
C3004 C3002 1.378 . S
C3004 C3005 1.367 . S
C3005 C3004 1.367 . S
C3005 C3007 1.433 . S
C3006 C3002 1.350 . S
C3006 C3003 1.463 . S
C3006 N3010 1.427 . S
C3007 H2997 0.929 . S
C3007 C3005 1.433 . S
C3007 N3010 1.384 . S
C3008 H2999 0.929 . S
C3008 C3000 1.378 . S
C3008 C3003 1.350 . S
C3009 H2996 0.929 . S
C3009 C3001 1.433 . S
C3009 N3011 1.384 . S
N3010 C3006 1.427 . S
N3010 C3007 1.384 . S
N3011 C3003 1.427 . S
N3011 C3009 1.384 . S
H3012 C3018 0.930 . S
H3013 C3022 0.930 . S
H3014 C3027 0.929 . S
H3015 C3025 0.929 . S
H3016 C3020 0.929 . S
H3017 C3026 0.929 . S
C3018 H3012 0.930 . S
C3018 C3019 1.367 . S
C3018 C3026 1.378 . S
C3019 C3018 1.367 . S
C3019 C3027 1.433 . S
C3020 H3016 0.929 . S
C3020 C3022 1.378 . S
C3020 C3024 1.350 . S
C3021 C3024 1.463 . S
C3021 C3026 1.350 . S
C3021 N3029 1.427 . S
C3022 H3013 0.930 . S
C3022 C3020 1.378 . S
C3022 C3023 1.367 . S
C3023 C3022 1.367 . S
C3023 C3025 1.433 . S
C3024 C3020 1.350 . S
C3024 C3021 1.463 . S
C3024 N3028 1.427 . S
C3025 H3015 0.929 . S
C3025 C3023 1.433 . S
C3025 N3028 1.384 . S
C3026 H3017 0.929 . S
C3026 C3018 1.378 . S
C3026 C3021 1.350 . S
C3027 H3014 0.929 . S
C3027 C3019 1.433 . S
C3027 N3029 1.384 . S
N3028 C3024 1.427 . S
N3028 C3025 1.384 . S
N3029 C3021 1.427 . S
N3029 C3027 1.384 . S
H3030 C3036 0.930 . S
H3031 C3040 0.930 . S
H3032 C3045 0.929 . S
H3033 C3043 0.929 . S
H3034 C3038 0.929 . S
H3035 C3044 0.929 . S
C3036 H3030 0.930 . S
C3036 C3037 1.367 . S
C3036 C3044 1.378 . S
C3037 C3036 1.367 . S
C3037 C3045 1.433 . S
C3038 H3034 0.929 . S
C3038 C3040 1.378 . S
C3038 C3042 1.350 . S
C3039 C3042 1.463 . S
C3039 C3044 1.350 . S
C3039 N3047 1.427 . S
C3040 H3031 0.930 . S
C3040 C3038 1.378 . S
C3040 C3041 1.367 . S
C3041 C3040 1.367 . S
C3041 C3043 1.433 . S
C3042 C3038 1.350 . S
C3042 C3039 1.463 . S
C3042 N3046 1.427 . S
C3043 H3033 0.929 . S
C3043 C3041 1.433 . S
C3043 N3046 1.384 . S
C3044 H3035 0.929 . S
C3044 C3036 1.378 . S
C3044 C3039 1.350 . S
C3045 H3032 0.929 . S
C3045 C3037 1.433 . S
C3045 N3047 1.384 . S
N3046 C3042 1.427 . S
N3046 C3043 1.384 . S
N3047 C3039 1.427 . S
N3047 C3045 1.384 . S
H3048 C3054 0.930 . S
H3049 C3058 0.930 . S
H3050 C3063 0.929 . S
H3051 C3061 0.929 . S
H3052 C3056 0.929 . S
H3053 C3062 0.929 . S
C3054 H3048 0.930 . S
C3054 C3055 1.367 . S
C3054 C3062 1.378 . S
C3055 C3054 1.367 . S
C3055 C3063 1.433 . S
C3056 H3052 0.929 . S
C3056 C3058 1.378 . S
C3056 C3060 1.350 . S
C3057 C3060 1.463 . S
C3057 C3062 1.350 . S
C3057 N3065 1.427 . S
C3058 H3049 0.930 . S
C3058 C3056 1.378 . S
C3058 C3059 1.367 . S
C3059 C3058 1.367 . S
C3059 C3061 1.433 . S
C3060 C3056 1.350 . S
C3060 C3057 1.463 . S
C3060 N3064 1.427 . S
C3061 H3051 0.929 . S
C3061 C3059 1.433 . S
C3061 N3064 1.384 . S
C3062 H3053 0.929 . S
C3062 C3054 1.378 . S
C3062 C3057 1.350 . S
C3063 H3050 0.929 . S
C3063 C3055 1.433 . S
C3063 N3065 1.384 . S
N3064 C3060 1.427 . S
N3064 C3061 1.384 . S
N3065 C3057 1.427 . S
N3065 C3063 1.384 . S
H3066 C3072 0.930 . S
H3067 C3076 0.930 . S
H3068 C3081 0.929 . S
H3069 C3079 0.929 . S
H3070 C3074 0.929 . S
H3071 C3080 0.929 . S
C3072 H3066 0.930 . S
C3072 C3073 1.367 . S
C3072 C3080 1.378 . S
C3073 C3072 1.367 . S
C3073 C3081 1.433 . S
C3074 H3070 0.929 . S
C3074 C3076 1.378 . S
C3074 C3078 1.350 . S
C3075 C3078 1.463 . S
C3075 C3080 1.350 . S
C3075 N3083 1.427 . S
C3076 H3067 0.930 . S
C3076 C3074 1.378 . S
C3076 C3077 1.367 . S
C3077 C3076 1.367 . S
C3077 C3079 1.433 . S
C3078 C3074 1.350 . S
C3078 C3075 1.463 . S
C3078 N3082 1.427 . S
C3079 H3069 0.929 . S
C3079 C3077 1.433 . S
C3079 N3082 1.384 . S
C3080 H3071 0.929 . S
C3080 C3072 1.378 . S
C3080 C3075 1.350 . S
C3081 H3068 0.929 . S
C3081 C3073 1.433 . S
C3081 N3083 1.384 . S
N3082 C3078 1.427 . S
N3082 C3079 1.384 . S
N3083 C3075 1.427 . S
N3083 C3081 1.384 . S
H3084 C3090 0.930 . S
H3085 C3094 0.930 . S
H3086 C3099 0.929 . S
H3087 C3097 0.929 . S
H3088 C3092 0.929 . S
H3089 C3098 0.929 . S
C3090 H3084 0.930 . S
C3090 C3091 1.367 . S
C3090 C3098 1.378 . S
C3091 C3090 1.367 . S
C3091 C3099 1.433 . S
C3092 H3088 0.929 . S
C3092 C3094 1.378 . S
C3092 C3096 1.350 . S
C3093 C3096 1.463 . S
C3093 C3098 1.350 . S
C3093 N3101 1.427 . S
C3094 H3085 0.930 . S
C3094 C3092 1.378 . S
C3094 C3095 1.367 . S
C3095 C3094 1.367 . S
C3095 C3097 1.433 . S
C3096 C3092 1.350 . S
C3096 C3093 1.463 . S
C3096 N3100 1.427 . S
C3097 H3087 0.929 . S
C3097 C3095 1.433 . S
C3097 N3100 1.384 . S
C3098 H3089 0.929 . S
C3098 C3090 1.378 . S
C3098 C3093 1.350 . S
C3099 H3086 0.929 . S
C3099 C3091 1.433 . S
C3099 N3101 1.384 . S
N3100 C3096 1.427 . S
N3100 C3097 1.384 . S
N3101 C3093 1.427 . S
N3101 C3099 1.384 . S
H3102 C3108 0.930 . S
H3103 C3112 0.930 . S
H3104 C3117 0.929 . S
H3105 C3115 0.929 . S
H3106 C3110 0.929 . S
H3107 C3116 0.929 . S
C3108 H3102 0.930 . S
C3108 C3109 1.367 . S
C3108 C3116 1.378 . S
C3109 C3108 1.367 . S
C3109 C3117 1.433 . S
C3110 H3106 0.929 . S
C3110 C3112 1.378 . S
C3110 C3114 1.350 . S
C3111 C3114 1.463 . S
C3111 C3116 1.350 . S
C3111 N3119 1.427 . S
C3112 H3103 0.930 . S
C3112 C3110 1.378 . S
C3112 C3113 1.367 . S
C3113 C3112 1.367 . S
C3113 C3115 1.433 . S
C3114 C3110 1.350 . S
C3114 C3111 1.463 . S
C3114 N3118 1.427 . S
C3115 H3105 0.929 . S
C3115 C3113 1.433 . S
C3115 N3118 1.384 . S
C3116 H3107 0.929 . S
C3116 C3108 1.378 . S
C3116 C3111 1.350 . S
C3117 H3104 0.929 . S
C3117 C3109 1.433 . S
C3117 N3119 1.384 . S
N3118 C3114 1.427 . S
N3118 C3115 1.384 . S
N3119 C3111 1.427 . S
N3119 C3117 1.384 . S
H3120 C3126 0.930 . S
H3121 C3130 0.930 . S
H3122 C3135 0.929 . S
H3123 C3133 0.929 . S
H3124 C3128 0.929 . S
H3125 C3134 0.929 . S
C3126 H3120 0.930 . S
C3126 C3127 1.367 . S
C3126 C3134 1.378 . S
C3127 C3126 1.367 . S
C3127 C3135 1.433 . S
C3128 H3124 0.929 . S
C3128 C3130 1.378 . S
C3128 C3132 1.350 . S
C3129 C3132 1.463 . S
C3129 C3134 1.350 . S
C3129 N3137 1.427 . S
C3130 H3121 0.930 . S
C3130 C3128 1.378 . S
C3130 C3131 1.367 . S
C3131 C3130 1.367 . S
C3131 C3133 1.433 . S
C3132 C3128 1.350 . S
C3132 C3129 1.463 . S
C3132 N3136 1.427 . S
C3133 H3123 0.929 . S
C3133 C3131 1.433 . S
C3133 N3136 1.384 . S
C3134 H3125 0.929 . S
C3134 C3126 1.378 . S
C3134 C3129 1.350 . S
C3135 H3122 0.929 . S
C3135 C3127 1.433 . S
C3135 N3137 1.384 . S
N3136 C3132 1.427 . S
N3136 C3133 1.384 . S
N3137 C3129 1.427 . S
N3137 C3135 1.384 . S
H3138 C3144 0.930 . S
H3139 C3148 0.930 . S
H3140 C3153 0.929 . S
H3141 C3151 0.929 . S
H3142 C3146 0.929 . S
H3143 C3152 0.929 . S
C3144 H3138 0.930 . S
C3144 C3145 1.367 . S
C3144 C3152 1.378 . S
C3145 C3144 1.367 . S
C3145 C3153 1.433 . S
C3146 H3142 0.929 . S
C3146 C3148 1.378 . S
C3146 C3150 1.350 . S
C3147 C3150 1.463 . S
C3147 C3152 1.350 . S
C3147 N3155 1.427 . S
C3148 H3139 0.930 . S
C3148 C3146 1.378 . S
C3148 C3149 1.367 . S
C3149 C3148 1.367 . S
C3149 C3151 1.433 . S
C3150 C3146 1.350 . S
C3150 C3147 1.463 . S
C3150 N3154 1.427 . S
C3151 H3141 0.929 . S
C3151 C3149 1.433 . S
C3151 N3154 1.384 . S
C3152 H3143 0.929 . S
C3152 C3144 1.378 . S
C3152 C3147 1.350 . S
C3153 H3140 0.929 . S
C3153 C3145 1.433 . S
C3153 N3155 1.384 . S
N3154 C3150 1.427 . S
N3154 C3151 1.384 . S
N3155 C3147 1.427 . S
N3155 C3153 1.384 . S
H3156 C3162 0.930 . S
H3157 C3166 0.930 . S
H3158 C3171 0.929 . S
H3159 C3169 0.929 . S
H3160 C3164 0.929 . S
H3161 C3170 0.929 . S
C3162 H3156 0.930 . S
C3162 C3163 1.367 . S
C3162 C3170 1.378 . S
C3163 C3162 1.367 . S
C3163 C3171 1.433 . S
C3164 H3160 0.929 . S
C3164 C3166 1.378 . S
C3164 C3168 1.350 . S
C3165 C3168 1.463 . S
C3165 C3170 1.350 . S
C3165 N3173 1.427 . S
C3166 H3157 0.930 . S
C3166 C3164 1.378 . S
C3166 C3167 1.367 . S
C3167 C3166 1.367 . S
C3167 C3169 1.433 . S
C3168 C3164 1.350 . S
C3168 C3165 1.463 . S
C3168 N3172 1.427 . S
C3169 H3159 0.929 . S
C3169 C3167 1.433 . S
C3169 N3172 1.384 . S
C3170 H3161 0.929 . S
C3170 C3162 1.378 . S
C3170 C3165 1.350 . S
C3171 H3158 0.929 . S
C3171 C3163 1.433 . S
C3171 N3173 1.384 . S
N3172 C3168 1.427 . S
N3172 C3169 1.384 . S
N3173 C3165 1.427 . S
N3173 C3171 1.384 . S
H3174 C3180 0.930 . S
H3175 C3184 0.930 . S
H3176 C3189 0.929 . S
H3177 C3187 0.929 . S
H3178 C3182 0.929 . S
H3179 C3188 0.929 . S
C3180 H3174 0.930 . S
C3180 C3181 1.367 . S
C3180 C3188 1.378 . S
C3181 C3180 1.367 . S
C3181 C3189 1.433 . S
C3182 H3178 0.929 . S
C3182 C3184 1.378 . S
C3182 C3186 1.350 . S
C3183 C3186 1.463 . S
C3183 C3188 1.350 . S
C3183 N3191 1.427 . S
C3184 H3175 0.930 . S
C3184 C3182 1.378 . S
C3184 C3185 1.367 . S
C3185 C3184 1.367 . S
C3185 C3187 1.433 . S
C3186 C3182 1.350 . S
C3186 C3183 1.463 . S
C3186 N3190 1.427 . S
C3187 H3177 0.929 . S
C3187 C3185 1.433 . S
C3187 N3190 1.384 . S
C3188 H3179 0.929 . S
C3188 C3180 1.378 . S
C3188 C3183 1.350 . S
C3189 H3176 0.929 . S
C3189 C3181 1.433 . S
C3189 N3191 1.384 . S
N3190 C3186 1.427 . S
N3190 C3187 1.384 . S
N3191 C3183 1.427 . S
N3191 C3189 1.384 . S
H3192 C3198 0.930 . S
H3193 C3202 0.930 . S
H3194 C3207 0.929 . S
H3195 C3205 0.929 . S
H3196 C3200 0.929 . S
H3197 C3206 0.929 . S
C3198 H3192 0.930 . S
C3198 C3199 1.367 . S
C3198 C3206 1.378 . S
C3199 C3198 1.367 . S
C3199 C3207 1.433 . S
C3200 H3196 0.929 . S
C3200 C3202 1.378 . S
C3200 C3204 1.350 . S
C3201 C3204 1.463 . S
C3201 C3206 1.350 . S
C3201 N3209 1.427 . S
C3202 H3193 0.930 . S
C3202 C3200 1.378 . S
C3202 C3203 1.367 . S
C3203 C3202 1.367 . S
C3203 C3205 1.433 . S
C3204 C3200 1.350 . S
C3204 C3201 1.463 . S
C3204 N3208 1.427 . S
C3205 H3195 0.929 . S
C3205 C3203 1.433 . S
C3205 N3208 1.384 . S
C3206 H3197 0.929 . S
C3206 C3198 1.378 . S
C3206 C3201 1.350 . S
C3207 H3194 0.929 . S
C3207 C3199 1.433 . S
C3207 N3209 1.384 . S
N3208 C3204 1.427 . S
N3208 C3205 1.384 . S
N3209 C3201 1.427 . S
N3209 C3207 1.384 . S
H3210 C3216 0.930 . S
H3211 C3220 0.930 . S
H3212 C3225 0.929 . S
H3213 C3223 0.929 . S
H3214 C3218 0.929 . S
H3215 C3224 0.929 . S
C3216 H3210 0.930 . S
C3216 C3217 1.367 . S
C3216 C3224 1.378 . S
C3217 C3216 1.367 . S
C3217 C3225 1.433 . S
C3218 H3214 0.929 . S
C3218 C3220 1.378 . S
C3218 C3222 1.350 . S
C3219 C3222 1.463 . S
C3219 C3224 1.350 . S
C3219 N3227 1.427 . S
C3220 H3211 0.930 . S
C3220 C3218 1.378 . S
C3220 C3221 1.367 . S
C3221 C3220 1.367 . S
C3221 C3223 1.433 . S
C3222 C3218 1.350 . S
C3222 C3219 1.463 . S
C3222 N3226 1.427 . S
C3223 H3213 0.929 . S
C3223 C3221 1.433 . S
C3223 N3226 1.384 . S
C3224 H3215 0.929 . S
C3224 C3216 1.378 . S
C3224 C3219 1.350 . S
C3225 H3212 0.929 . S
C3225 C3217 1.433 . S
C3225 N3227 1.384 . S
N3226 C3222 1.427 . S
N3226 C3223 1.384 . S
N3227 C3219 1.427 . S
N3227 C3225 1.384 . S
H3228 C3234 0.930 . S
H3229 C3238 0.930 . S
H3230 C3243 0.929 . S
H3231 C3241 0.929 . S
H3232 C3236 0.929 . S
H3233 C3242 0.929 . S
C3234 H3228 0.930 . S
C3234 C3235 1.367 . S
C3234 C3242 1.378 . S
C3235 C3234 1.367 . S
C3235 C3243 1.433 . S
C3236 H3232 0.929 . S
C3236 C3238 1.378 . S
C3236 C3240 1.350 . S
C3237 C3240 1.463 . S
C3237 C3242 1.350 . S
C3237 N3245 1.427 . S
C3238 H3229 0.930 . S
C3238 C3236 1.378 . S
C3238 C3239 1.367 . S
C3239 C3238 1.367 . S
C3239 C3241 1.433 . S
C3240 C3236 1.350 . S
C3240 C3237 1.463 . S
C3240 N3244 1.427 . S
C3241 H3231 0.929 . S
C3241 C3239 1.433 . S
C3241 N3244 1.384 . S
C3242 H3233 0.929 . S
C3242 C3234 1.378 . S
C3242 C3237 1.350 . S
C3243 H3230 0.929 . S
C3243 C3235 1.433 . S
C3243 N3245 1.384 . S
N3244 C3240 1.427 . S
N3244 C3241 1.384 . S
N3245 C3237 1.427 . S
N3245 C3243 1.384 . S
H3246 C3252 0.930 . S
H3247 C3256 0.930 . S
H3248 C3261 0.929 . S
H3249 C3259 0.929 . S
H3250 C3254 0.929 . S
H3251 C3260 0.929 . S
C3252 H3246 0.930 . S
C3252 C3253 1.367 . S
C3252 C3260 1.378 . S
C3253 C3252 1.367 . S
C3253 C3261 1.433 . S
C3254 H3250 0.929 . S
C3254 C3256 1.378 . S
C3254 C3258 1.350 . S
C3255 C3258 1.463 . S
C3255 C3260 1.350 . S
C3255 N3263 1.427 . S
C3256 H3247 0.930 . S
C3256 C3254 1.378 . S
C3256 C3257 1.367 . S
C3257 C3256 1.367 . S
C3257 C3259 1.433 . S
C3258 C3254 1.350 . S
C3258 C3255 1.463 . S
C3258 N3262 1.427 . S
C3259 H3249 0.929 . S
C3259 C3257 1.433 . S
C3259 N3262 1.384 . S
C3260 H3251 0.929 . S
C3260 C3252 1.378 . S
C3260 C3255 1.350 . S
C3261 H3248 0.929 . S
C3261 C3253 1.433 . S
C3261 N3263 1.384 . S
N3262 C3258 1.427 . S
N3262 C3259 1.384 . S
N3263 C3255 1.427 . S
N3263 C3261 1.384 . S
H3264 C3270 0.930 . S
H3265 C3274 0.930 . S
H3266 C3279 0.929 . S
H3267 C3277 0.929 . S
H3268 C3272 0.929 . S
H3269 C3278 0.929 . S
C3270 H3264 0.930 . S
C3270 C3271 1.367 . S
C3270 C3278 1.378 . S
C3271 C3270 1.367 . S
C3271 C3279 1.433 . S
C3272 H3268 0.929 . S
C3272 C3274 1.378 . S
C3272 C3276 1.350 . S
C3273 C3276 1.463 1_455 S
C3273 C3278 1.350 . S
C3273 N3281 1.427 . S
C3274 H3265 0.930 . S
C3274 C3272 1.378 . S
C3274 C3275 1.367 . S
C3275 C3274 1.367 . S
C3275 C3277 1.433 . S
C3276 C3272 1.350 . S
C3276 C3273 1.463 1_655 S
C3276 N3280 1.427 . S
C3277 H3267 0.929 . S
C3277 C3275 1.433 . S
C3277 N3280 1.384 . S
C3278 H3269 0.929 . S
C3278 C3270 1.378 . S
C3278 C3273 1.350 . S
C3279 H3266 0.929 . S
C3279 C3271 1.433 . S
C3279 N3281 1.384 . S
N3280 C3276 1.427 . S
N3280 C3277 1.384 . S
N3281 C3273 1.427 . S
N3281 C3279 1.384 . S
H3282 C3288 0.930 . S
H3283 C3292 0.930 . S
H3284 C3297 0.929 1_455 S
H3285 C3295 0.929 1_655 S
H3286 C3290 0.929 . S
H3287 C3296 0.929 . S
C3288 H3282 0.930 . S
C3288 C3289 1.367 . S
C3288 C3296 1.378 . S
C3289 C3288 1.367 . S
C3289 C3297 1.433 . S
C3290 H3286 0.929 . S
C3290 C3292 1.378 . S
C3290 C3294 1.350 . S
C3291 C3294 1.463 1_655 S
C3291 C3296 1.350 . S
C3291 N3299 1.427 1_655 S
C3292 H3283 0.930 . S
C3292 C3290 1.378 . S
C3292 C3293 1.367 . S
C3293 C3292 1.367 . S
C3293 C3295 1.433 . S
C3294 C3290 1.350 . S
C3294 C3291 1.463 1_455 S
C3294 N3298 1.427 1_455 S
C3295 H3285 0.929 1_455 S
C3295 C3293 1.433 . S
C3295 N3298 1.384 1_455 S
C3296 H3287 0.929 . S
C3296 C3288 1.378 . S
C3296 C3291 1.350 . S
C3297 H3284 0.929 1_655 S
C3297 C3289 1.433 . S
C3297 N3299 1.384 1_655 S
N3298 C3294 1.427 1_655 S
N3298 C3295 1.384 1_655 S
N3299 C3291 1.427 1_455 S
N3299 C3297 1.384 1_455 S
H3300 C3306 0.930 . S
H3301 C3310 0.930 . S
H3302 C3315 0.929 . S
H3303 C3313 0.929 . S
H3304 C3308 0.929 . S
H3305 C3314 0.929 . S
C3306 H3300 0.930 . S
C3306 C3307 1.367 . S
C3306 C3314 1.378 . S
C3307 C3306 1.367 . S
C3307 C3315 1.433 . S
C3308 H3304 0.929 . S
C3308 C3310 1.378 . S
C3308 C3312 1.350 . S
C3309 C3312 1.463 . S
C3309 C3314 1.350 . S
C3309 N3317 1.427 . S
C3310 H3301 0.930 . S
C3310 C3308 1.378 . S
C3310 C3311 1.367 . S
C3311 C3310 1.367 . S
C3311 C3313 1.433 . S
C3312 C3308 1.350 . S
C3312 C3309 1.463 . S
C3312 N3316 1.427 . S
C3313 H3303 0.929 . S
C3313 C3311 1.433 . S
C3313 N3316 1.384 . S
C3314 H3305 0.929 . S
C3314 C3306 1.378 . S
C3314 C3309 1.350 . S
C3315 H3302 0.929 . S
C3315 C3307 1.433 . S
C3315 N3317 1.384 . S
N3316 C3312 1.427 . S
N3316 C3313 1.384 . S
N3317 C3309 1.427 . S
N3317 C3315 1.384 . S
H3318 C3324 0.930 . S
H3319 C3328 0.930 . S
H3320 C3333 0.929 . S
H3321 C3331 0.929 . S
H3322 C3326 0.929 . S
H3323 C3332 0.929 . S
C3324 H3318 0.930 . S
C3324 C3325 1.367 . S
C3324 C3332 1.378 . S
C3325 C3324 1.367 . S
C3325 C3333 1.433 . S
C3326 H3322 0.929 . S
C3326 C3328 1.378 . S
C3326 C3330 1.350 . S
C3327 C3330 1.463 . S
C3327 C3332 1.350 . S
C3327 N3335 1.427 . S
C3328 H3319 0.930 . S
C3328 C3326 1.378 . S
C3328 C3329 1.367 . S
C3329 C3328 1.367 . S
C3329 C3331 1.433 . S
C3330 C3326 1.350 . S
C3330 C3327 1.463 . S
C3330 N3334 1.427 . S
C3331 H3321 0.929 . S
C3331 C3329 1.433 . S
C3331 N3334 1.384 . S
C3332 H3323 0.929 . S
C3332 C3324 1.378 . S
C3332 C3327 1.350 . S
C3333 H3320 0.929 . S
C3333 C3325 1.433 . S
C3333 N3335 1.384 . S
N3334 C3330 1.427 . S
N3334 C3331 1.384 . S
N3335 C3327 1.427 . S
N3335 C3333 1.384 . S
H3336 C3342 0.930 . S
H3337 C3346 0.930 . S
H3338 C3351 0.929 . S
H3339 C3349 0.929 . S
H3340 C3344 0.929 . S
H3341 C3350 0.929 . S
C3342 H3336 0.930 . S
C3342 C3343 1.367 . S
C3342 C3350 1.378 . S
C3343 C3342 1.367 . S
C3343 C3351 1.433 . S
C3344 H3340 0.929 . S
C3344 C3346 1.378 . S
C3344 C3348 1.350 . S
C3345 C3348 1.463 1_655 S
C3345 C3350 1.350 . S
C3345 N3353 1.427 . S
C3346 H3337 0.930 . S
C3346 C3344 1.378 . S
C3346 C3347 1.367 . S
C3347 C3346 1.367 . S
C3347 C3349 1.433 . S
C3348 C3344 1.350 . S
C3348 C3345 1.463 1_455 S
C3348 N3352 1.427 . S
C3349 H3339 0.929 . S
C3349 C3347 1.433 . S
C3349 N3352 1.384 . S
C3350 H3341 0.929 . S
C3350 C3342 1.378 . S
C3350 C3345 1.350 . S
C3351 H3338 0.929 . S
C3351 C3343 1.433 . S
C3351 N3353 1.384 . S
N3352 C3348 1.427 . S
N3352 C3349 1.384 . S
N3353 C3345 1.427 . S
N3353 C3351 1.384 . S
H3354 C3360 0.930 . S
H3355 C3364 0.930 . S
H3356 C3369 0.929 . S
H3357 C3367 0.929 . S
H3358 C3362 0.929 . S
H3359 C3368 0.929 . S
C3360 H3354 0.930 . S
C3360 C3361 1.367 . S
C3360 C3368 1.378 . S
C3361 C3360 1.367 . S
C3361 C3369 1.433 . S
C3362 H3358 0.929 . S
C3362 C3364 1.378 . S
C3362 C3366 1.350 . S
C3363 C3366 1.463 . S
C3363 C3368 1.350 . S
C3363 N3371 1.427 . S
C3364 H3355 0.930 . S
C3364 C3362 1.378 . S
C3364 C3365 1.367 . S
C3365 C3364 1.367 . S
C3365 C3367 1.433 . S
C3366 C3362 1.350 . S
C3366 C3363 1.463 . S
C3366 N3370 1.427 . S
C3367 H3357 0.929 . S
C3367 C3365 1.433 . S
C3367 N3370 1.384 . S
C3368 H3359 0.929 . S
C3368 C3360 1.378 . S
C3368 C3363 1.350 . S
C3369 H3356 0.929 . S
C3369 C3361 1.433 . S
C3369 N3371 1.384 . S
N3370 C3366 1.427 . S
N3370 C3367 1.384 . S
N3371 C3363 1.427 . S
N3371 C3369 1.384 . S
H3372 C3378 0.930 . S
H3373 C3382 0.930 . S
H3374 C3387 0.929 . S
H3375 C3385 0.929 . S
H3376 C3380 0.929 . S
H3377 C3386 0.929 . S
C3378 H3372 0.930 . S
C3378 C3379 1.367 . S
C3378 C3386 1.378 . S
C3379 C3378 1.367 . S
C3379 C3387 1.433 . S
C3380 H3376 0.929 . S
C3380 C3382 1.378 . S
C3380 C3384 1.350 . S
C3381 C3384 1.463 . S
C3381 C3386 1.350 . S
C3381 N3389 1.427 . S
C3382 H3373 0.930 . S
C3382 C3380 1.378 . S
C3382 C3383 1.367 . S
C3383 C3382 1.367 . S
C3383 C3385 1.433 . S
C3384 C3380 1.350 . S
C3384 C3381 1.463 . S
C3384 N3388 1.427 . S
C3385 H3375 0.929 . S
C3385 C3383 1.433 . S
C3385 N3388 1.384 . S
C3386 H3377 0.929 . S
C3386 C3378 1.378 . S
C3386 C3381 1.350 . S
C3387 H3374 0.929 . S
C3387 C3379 1.433 . S
C3387 N3389 1.384 . S
N3388 C3384 1.427 . S
N3388 C3385 1.384 . S
N3389 C3381 1.427 . S
N3389 C3387 1.384 . S
H3390 C3396 0.930 . S
H3391 C3400 0.930 . S
H3392 C3405 0.929 . S
H3393 C3403 0.929 . S
H3394 C3398 0.929 . S
H3395 C3404 0.929 . S
C3396 H3390 0.930 . S
C3396 C3397 1.367 . S
C3396 C3404 1.378 . S
C3397 C3396 1.367 . S
C3397 C3405 1.433 1_455 S
C3398 H3394 0.929 . S
C3398 C3400 1.378 . S
C3398 C3402 1.350 . S
C3399 C3402 1.463 1_455 S
C3399 C3404 1.350 . S
C3399 N3407 1.427 1_455 S
C3400 H3391 0.930 . S
C3400 C3398 1.378 . S
C3400 C3401 1.367 . S
C3401 C3400 1.367 . S
C3401 C3403 1.433 1_655 S
C3402 C3398 1.350 . S
C3402 C3399 1.463 1_655 S
C3402 N3406 1.427 1_655 S
C3403 H3393 0.929 . S
C3403 C3401 1.433 1_455 S
C3403 N3406 1.384 . S
C3404 H3395 0.929 . S
C3404 C3396 1.378 . S
C3404 C3399 1.350 . S
C3405 H3392 0.929 . S
C3405 C3397 1.433 1_655 S
C3405 N3407 1.384 . S
N3406 C3402 1.427 1_455 S
N3406 C3403 1.384 . S
N3407 C3399 1.427 1_655 S
N3407 C3405 1.384 . S
H3408 C3414 0.930 . S
H3409 C3418 0.930 . S
H3410 C3423 0.929 . S
H3411 C3421 0.929 . S
H3412 C3416 0.929 . S
H3413 C3422 0.929 . S
C3414 H3408 0.930 . S
C3414 C3415 1.367 . S
C3414 C3422 1.378 . S
C3415 C3414 1.367 . S
C3415 C3423 1.433 . S
C3416 H3412 0.929 . S
C3416 C3418 1.378 . S
C3416 C3420 1.350 . S
C3417 C3420 1.463 1_455 S
C3417 C3422 1.350 . S
C3417 N3425 1.427 . S
C3418 H3409 0.930 . S
C3418 C3416 1.378 . S
C3418 C3419 1.367 . S
C3419 C3418 1.367 . S
C3419 C3421 1.433 . S
C3420 C3416 1.350 . S
C3420 C3417 1.463 1_655 S
C3420 N3424 1.427 . S
C3421 H3411 0.929 . S
C3421 C3419 1.433 . S
C3421 N3424 1.384 . S
C3422 H3413 0.929 . S
C3422 C3414 1.378 . S
C3422 C3417 1.350 . S
C3423 H3410 0.929 . S
C3423 C3415 1.433 . S
C3423 N3425 1.384 . S
N3424 C3420 1.427 . S
N3424 C3421 1.384 . S
N3425 C3417 1.427 . S
N3425 C3423 1.384 . S
H3426 C3432 0.930 . S
H3427 C3436 0.930 . S
H3428 C3441 0.929 . S
H3429 C3439 0.929 . S
H3430 C3434 0.929 . S
H3431 C3440 0.929 . S
C3432 H3426 0.930 . S
C3432 C3433 1.367 . S
C3432 C3440 1.378 . S
C3433 C3432 1.367 . S
C3433 C3441 1.433 . S
C3434 H3430 0.929 . S
C3434 C3436 1.378 . S
C3434 C3438 1.350 . S
C3435 C3438 1.463 1_655 S
C3435 C3440 1.350 . S
C3435 N3443 1.427 . S
C3436 H3427 0.930 . S
C3436 C3434 1.378 . S
C3436 C3437 1.367 . S
C3437 C3436 1.367 . S
C3437 C3439 1.433 . S
C3438 C3434 1.350 . S
C3438 C3435 1.463 1_455 S
C3438 N3442 1.427 . S
C3439 H3429 0.929 . S
C3439 C3437 1.433 . S
C3439 N3442 1.384 . S
C3440 H3431 0.929 . S
C3440 C3432 1.378 . S
C3440 C3435 1.350 . S
C3441 H3428 0.929 . S
C3441 C3433 1.433 . S
C3441 N3443 1.384 . S
N3442 C3438 1.427 . S
N3442 C3439 1.384 . S
N3443 C3435 1.427 . S
N3443 C3441 1.384 . S
H3444 C3450 0.930 . S
H3445 C3454 0.930 . S
H3446 C3459 0.929 . S
H3447 C3457 0.929 . S
H3448 C3452 0.929 . S
H3449 C3458 0.929 . S
C3450 H3444 0.930 . S
C3450 C3451 1.367 . S
C3450 C3458 1.378 . S
C3451 C3450 1.367 . S
C3451 C3459 1.433 . S
C3452 H3448 0.929 . S
C3452 C3454 1.378 . S
C3452 C3456 1.350 . S
C3453 C3456 1.463 . S
C3453 C3458 1.350 . S
C3453 N3461 1.427 . S
C3454 H3445 0.930 . S
C3454 C3452 1.378 . S
C3454 C3455 1.367 . S
C3455 C3454 1.367 . S
C3455 C3457 1.433 . S
C3456 C3452 1.350 . S
C3456 C3453 1.463 . S
C3456 N3460 1.427 . S
C3457 H3447 0.929 . S
C3457 C3455 1.433 . S
C3457 N3460 1.384 . S
C3458 H3449 0.929 . S
C3458 C3450 1.378 . S
C3458 C3453 1.350 . S
C3459 H3446 0.929 . S
C3459 C3451 1.433 . S
C3459 N3461 1.384 . S
N3460 C3456 1.427 . S
N3460 C3457 1.384 . S
N3461 C3453 1.427 . S
N3461 C3459 1.384 . S
H3462 C3468 0.930 . S
H3463 C3472 0.930 . S
H3464 C3477 0.929 . S
H3465 C3475 0.929 . S
H3466 C3470 0.929 . S
H3467 C3476 0.929 . S
C3468 H3462 0.930 . S
C3468 C3469 1.367 . S
C3468 C3476 1.378 . S
C3469 C3468 1.367 . S
C3469 C3477 1.433 . S
C3470 H3466 0.929 . S
C3470 C3472 1.378 . S
C3470 C3474 1.350 . S
C3471 C3474 1.463 . S
C3471 C3476 1.350 . S
C3471 N3479 1.427 . S
C3472 H3463 0.930 . S
C3472 C3470 1.378 . S
C3472 C3473 1.367 . S
C3473 C3472 1.367 . S
C3473 C3475 1.433 . S
C3474 C3470 1.350 . S
C3474 C3471 1.463 . S
C3474 N3478 1.427 . S
C3475 H3465 0.929 . S
C3475 C3473 1.433 . S
C3475 N3478 1.384 . S
C3476 H3467 0.929 . S
C3476 C3468 1.378 . S
C3476 C3471 1.350 . S
C3477 H3464 0.929 . S
C3477 C3469 1.433 . S
C3477 N3479 1.384 . S
N3478 C3474 1.427 . S
N3478 C3475 1.384 . S
N3479 C3471 1.427 . S
N3479 C3477 1.384 . S
H3480 C3486 0.930 . S
H3481 C3490 0.930 . S
H3482 C3495 0.929 . S
H3483 C3493 0.929 . S
H3484 C3488 0.929 . S
H3485 C3494 0.929 . S
C3486 H3480 0.930 . S
C3486 C3487 1.367 . S
C3486 C3494 1.378 . S
C3487 C3486 1.367 . S
C3487 C3495 1.433 . S
C3488 H3484 0.929 . S
C3488 C3490 1.378 . S
C3488 C3492 1.350 . S
C3489 C3492 1.463 1_455 S
C3489 C3494 1.350 . S
C3489 N3497 1.427 . S
C3490 H3481 0.930 . S
C3490 C3488 1.378 . S
C3490 C3491 1.367 . S
C3491 C3490 1.367 . S
C3491 C3493 1.433 . S
C3492 C3488 1.350 . S
C3492 C3489 1.463 1_655 S
C3492 N3496 1.427 . S
C3493 H3483 0.929 . S
C3493 C3491 1.433 . S
C3493 N3496 1.384 . S
C3494 H3485 0.929 . S
C3494 C3486 1.378 . S
C3494 C3489 1.350 . S
C3495 H3482 0.929 . S
C3495 C3487 1.433 . S
C3495 N3497 1.384 . S
N3496 C3492 1.427 . S
N3496 C3493 1.384 . S
N3497 C3489 1.427 . S
N3497 C3495 1.384 . S
H3498 C3504 0.930 . S
H3499 C3508 0.930 . S
H3500 C3513 0.929 . S
H3501 C3511 0.929 . S
H3502 C3506 0.929 . S
H3503 C3512 0.929 . S
C3504 H3498 0.930 . S
C3504 C3505 1.367 . S
C3504 C3512 1.378 . S
C3505 C3504 1.367 . S
C3505 C3513 1.433 . S
C3506 H3502 0.929 . S
C3506 C3508 1.378 . S
C3506 C3510 1.350 . S
C3507 C3510 1.463 . S
C3507 C3512 1.350 . S
C3507 N3515 1.427 . S
C3508 H3499 0.930 . S
C3508 C3506 1.378 . S
C3508 C3509 1.367 . S
C3509 C3508 1.367 . S
C3509 C3511 1.433 . S
C3510 C3506 1.350 . S
C3510 C3507 1.463 . S
C3510 N3514 1.427 . S
C3511 H3501 0.929 . S
C3511 C3509 1.433 . S
C3511 N3514 1.384 . S
C3512 H3503 0.929 . S
C3512 C3504 1.378 . S
C3512 C3507 1.350 . S
C3513 H3500 0.929 . S
C3513 C3505 1.433 . S
C3513 N3515 1.384 . S
N3514 C3510 1.427 . S
N3514 C3511 1.384 . S
N3515 C3507 1.427 . S
N3515 C3513 1.384 . S
H3516 C3522 0.930 . S
H3517 C3526 0.930 . S
H3518 C3531 0.929 . S
H3519 C3529 0.929 . S
H3520 C3524 0.929 . S
H3521 C3530 0.929 . S
C3522 H3516 0.930 . S
C3522 C3523 1.367 . S
C3522 C3530 1.378 . S
C3523 C3522 1.367 . S
C3523 C3531 1.433 . S
C3524 H3520 0.929 . S
C3524 C3526 1.378 . S
C3524 C3528 1.350 . S
C3525 C3528 1.463 . S
C3525 C3530 1.350 . S
C3525 N3533 1.427 . S
C3526 H3517 0.930 . S
C3526 C3524 1.378 . S
C3526 C3527 1.367 . S
C3527 C3526 1.367 . S
C3527 C3529 1.433 . S
C3528 C3524 1.350 . S
C3528 C3525 1.463 . S
C3528 N3532 1.427 . S
C3529 H3519 0.929 . S
C3529 C3527 1.433 . S
C3529 N3532 1.384 . S
C3530 H3521 0.929 . S
C3530 C3522 1.378 . S
C3530 C3525 1.350 . S
C3531 H3518 0.929 . S
C3531 C3523 1.433 . S
C3531 N3533 1.384 . S
N3532 C3528 1.427 . S
N3532 C3529 1.384 . S
N3533 C3525 1.427 . S
N3533 C3531 1.384 . S
H3534 C3540 0.930 . S
H3535 C3544 0.930 . S
H3536 C3549 0.929 . S
H3537 C3547 0.929 . S
H3538 C3542 0.929 . S
H3539 C3548 0.929 . S
C3540 H3534 0.930 . S
C3540 C3541 1.367 1_455 S
C3540 C3548 1.378 . S
C3541 C3540 1.367 1_655 S
C3541 C3549 1.433 . S
C3542 H3538 0.929 . S
C3542 C3544 1.378 . S
C3542 C3546 1.350 1_655 S
C3543 C3546 1.463 1_655 S
C3543 C3548 1.350 1_655 S
C3543 N3551 1.427 . S
C3544 H3535 0.930 . S
C3544 C3542 1.378 . S
C3544 C3545 1.367 1_655 S
C3545 C3544 1.367 1_455 S
C3545 C3547 1.433 . S
C3546 C3542 1.350 1_455 S
C3546 C3543 1.463 1_455 S
C3546 N3550 1.427 . S
C3547 H3537 0.929 . S
C3547 C3545 1.433 . S
C3547 N3550 1.384 . S
C3548 H3539 0.929 . S
C3548 C3540 1.378 . S
C3548 C3543 1.350 1_455 S
C3549 H3536 0.929 . S
C3549 C3541 1.433 . S
C3549 N3551 1.384 . S
N3550 C3546 1.427 . S
N3550 C3547 1.384 . S
N3551 C3543 1.427 . S
N3551 C3549 1.384 . S
H3552 C3558 0.930 . S
H3553 C3562 0.930 . S
H3554 C3567 0.929 . S
H3555 C3565 0.929 . S
H3556 C3560 0.929 . S
H3557 C3566 0.929 . S
C3558 H3552 0.930 . S
C3558 C3559 1.367 . S
C3558 C3566 1.378 . S
C3559 C3558 1.367 . S
C3559 C3567 1.433 . S
C3560 H3556 0.929 . S
C3560 C3562 1.378 . S
C3560 C3564 1.350 . S
C3561 C3564 1.463 . S
C3561 C3566 1.350 . S
C3561 N3569 1.427 . S
C3562 H3553 0.930 . S
C3562 C3560 1.378 . S
C3562 C3563 1.367 . S
C3563 C3562 1.367 . S
C3563 C3565 1.433 . S
C3564 C3560 1.350 . S
C3564 C3561 1.463 . S
C3564 N3568 1.427 . S
C3565 H3555 0.929 . S
C3565 C3563 1.433 . S
C3565 N3568 1.384 . S
C3566 H3557 0.929 . S
C3566 C3558 1.378 . S
C3566 C3561 1.350 . S
C3567 H3554 0.929 . S
C3567 C3559 1.433 . S
C3567 N3569 1.384 . S
N3568 C3564 1.427 . S
N3568 C3565 1.384 . S
N3569 C3561 1.427 . S
N3569 C3567 1.384 . S
H3570 C3576 0.930 . S
H3571 C3580 0.930 . S
H3572 C3585 0.929 . S
H3573 C3583 0.929 . S
H3574 C3578 0.929 . S
H3575 C3584 0.929 . S
C3576 H3570 0.930 . S
C3576 C3577 1.367 . S
C3576 C3584 1.378 . S
C3577 C3576 1.367 . S
C3577 C3585 1.433 1_545 S
C3578 H3574 0.929 . S
C3578 C3580 1.378 . S
C3578 C3582 1.350 . S
C3579 C3582 1.463 1_645 S
C3579 C3584 1.350 . S
C3579 N3587 1.428 1_545 S
C3580 H3571 0.930 . S
C3580 C3578 1.378 . S
C3580 C3581 1.367 . S
C3581 C3580 1.367 . S
C3581 C3583 1.433 1_565 S
C3582 C3578 1.350 . S
C3582 C3579 1.463 1_465 S
C3582 N3586 1.428 1_565 S
C3583 H3573 0.929 . S
C3583 C3581 1.433 1_545 S
C3583 N3586 1.384 . S
C3584 H3575 0.929 . S
C3584 C3576 1.378 . S
C3584 C3579 1.350 . S
C3585 H3572 0.929 . S
C3585 C3577 1.433 1_565 S
C3585 N3587 1.384 . S
N3586 C3582 1.428 1_545 S
N3586 C3583 1.384 . S
N3587 C3579 1.428 1_565 S
N3587 C3585 1.384 . S
H3588 C3594 0.930 . S
H3589 C3598 0.930 . S
H3590 C3603 0.929 . S
H3591 C3601 0.929 . S
H3592 C3596 0.929 . S
H3593 C3602 0.929 . S
C3594 H3588 0.930 . S
C3594 C3595 1.367 . S
C3594 C3602 1.378 . S
C3595 C3594 1.367 . S
C3595 C3603 1.433 . S
C3596 H3592 0.929 . S
C3596 C3598 1.378 . S
C3596 C3600 1.350 . S
C3597 C3600 1.463 . S
C3597 C3602 1.350 . S
C3597 N3605 1.427 . S
C3598 H3589 0.930 . S
C3598 C3596 1.378 . S
C3598 C3599 1.367 . S
C3599 C3598 1.367 . S
C3599 C3601 1.433 . S
C3600 C3596 1.350 . S
C3600 C3597 1.463 . S
C3600 N3604 1.427 . S
C3601 H3591 0.929 . S
C3601 C3599 1.433 . S
C3601 N3604 1.384 . S
C3602 H3593 0.929 . S
C3602 C3594 1.378 . S
C3602 C3597 1.350 . S
C3603 H3590 0.929 . S
C3603 C3595 1.433 . S
C3603 N3605 1.384 . S
N3604 C3600 1.427 . S
N3604 C3601 1.384 . S
N3605 C3597 1.427 . S
N3605 C3603 1.384 . S
H3606 C3612 0.930 . S
H3607 C3616 0.930 . S
H3608 C3621 0.929 . S
H3609 C3619 0.929 . S
H3610 C3614 0.929 . S
H3611 C3620 0.929 . S
C3612 H3606 0.930 . S
C3612 C3613 1.367 . S
C3612 C3620 1.378 . S
C3613 C3612 1.367 . S
C3613 C3621 1.433 1_545 S
C3614 H3610 0.929 . S
C3614 C3616 1.378 . S
C3614 C3618 1.350 . S
C3615 C3618 1.463 1_544 S
C3615 C3620 1.350 . S
C3615 N3623 1.427 1_545 S
C3616 H3607 0.930 . S
C3616 C3614 1.378 . S
C3616 C3617 1.367 . S
C3617 C3616 1.367 . S
C3617 C3619 1.433 1_565 S
C3618 C3614 1.350 . S
C3618 C3615 1.463 1_566 S
C3618 N3622 1.427 1_565 S
C3619 H3609 0.929 . S
C3619 C3617 1.433 1_545 S
C3619 N3622 1.384 . S
C3620 H3611 0.929 . S
C3620 C3612 1.378 . S
C3620 C3615 1.350 . S
C3621 H3608 0.929 . S
C3621 C3613 1.433 1_565 S
C3621 N3623 1.384 . S
N3622 C3618 1.427 1_545 S
N3622 C3619 1.384 . S
N3623 C3615 1.427 1_565 S
N3623 C3621 1.384 . S
H3624 C3630 0.930 . S
H3625 C3634 0.930 . S
H3626 C3639 0.929 . S
H3627 C3637 0.929 . S
H3628 C3632 0.929 . S
H3629 C3638 0.929 . S
C3630 H3624 0.930 . S
C3630 C3631 1.367 . S
C3630 C3638 1.378 . S
C3631 C3630 1.367 . S
C3631 C3639 1.433 . S
C3632 H3628 0.929 . S
C3632 C3634 1.378 . S
C3632 C3636 1.350 . S
C3633 C3636 1.463 . S
C3633 C3638 1.350 . S
C3633 N3641 1.427 . S
C3634 H3625 0.930 . S
C3634 C3632 1.378 . S
C3634 C3635 1.367 . S
C3635 C3634 1.367 . S
C3635 C3637 1.433 . S
C3636 C3632 1.350 . S
C3636 C3633 1.463 . S
C3636 N3640 1.427 . S
C3637 H3627 0.929 . S
C3637 C3635 1.433 . S
C3637 N3640 1.384 . S
C3638 H3629 0.929 . S
C3638 C3630 1.378 . S
C3638 C3633 1.350 . S
C3639 H3626 0.929 . S
C3639 C3631 1.433 . S
C3639 N3641 1.384 . S
N3640 C3636 1.427 . S
N3640 C3637 1.384 . S
N3641 C3633 1.427 . S
N3641 C3639 1.384 . S
H3642 C3648 0.930 . S
H3643 C3652 0.930 . S
H3644 C3657 0.929 . S
H3645 C3655 0.929 . S
H3646 C3650 0.929 . S
H3647 C3656 0.929 . S
C3648 H3642 0.930 . S
C3648 C3649 1.367 1_565 S
C3648 C3656 1.378 . S
C3649 C3648 1.367 1_545 S
C3649 C3657 1.433 . S
C3650 H3646 0.929 . S
C3650 C3652 1.378 . S
C3650 C3654 1.350 1_545 S
C3651 C3654 1.463 1_545 S
C3651 C3656 1.350 1_545 S
C3651 N3659 1.427 . S
C3652 H3643 0.930 . S
C3652 C3650 1.378 . S
C3652 C3653 1.367 1_545 S
C3653 C3652 1.367 1_565 S
C3653 C3655 1.433 . S
C3654 C3650 1.350 1_565 S
C3654 C3651 1.463 1_565 S
C3654 N3658 1.427 . S
C3655 H3645 0.929 . S
C3655 C3653 1.433 . S
C3655 N3658 1.384 . S
C3656 H3647 0.929 . S
C3656 C3648 1.378 . S
C3656 C3651 1.350 1_565 S
C3657 H3644 0.929 . S
C3657 C3649 1.433 . S
C3657 N3659 1.384 . S
N3658 C3654 1.427 . S
N3658 C3655 1.384 . S
N3659 C3651 1.427 . S
N3659 C3657 1.384 . S
H3660 C3666 0.930 . S
H3661 C3670 0.930 . S
H3662 C3675 0.929 . S
H3663 C3673 0.929 . S
H3664 C3668 0.929 . S
H3665 C3674 0.929 . S
C3666 H3660 0.930 . S
C3666 C3667 1.367 . S
C3666 C3674 1.378 . S
C3667 C3666 1.367 . S
C3667 C3675 1.433 . S
C3668 H3664 0.929 . S
C3668 C3670 1.378 . S
C3668 C3672 1.350 . S
C3669 C3672 1.463 . S
C3669 C3674 1.350 . S
C3669 N3677 1.427 . S
C3670 H3661 0.930 . S
C3670 C3668 1.378 . S
C3670 C3671 1.367 . S
C3671 C3670 1.367 . S
C3671 C3673 1.433 . S
C3672 C3668 1.350 . S
C3672 C3669 1.463 . S
C3672 N3676 1.427 . S
C3673 H3663 0.929 . S
C3673 C3671 1.433 . S
C3673 N3676 1.384 . S
C3674 H3665 0.929 . S
C3674 C3666 1.378 . S
C3674 C3669 1.350 . S
C3675 H3662 0.929 . S
C3675 C3667 1.433 . S
C3675 N3677 1.384 . S
N3676 C3672 1.427 . S
N3676 C3673 1.384 . S
N3677 C3669 1.427 . S
N3677 C3675 1.384 . S
H3678 C3684 0.930 . S
H3679 C3688 0.930 . S
H3680 C3693 0.929 . S
H3681 C3691 0.929 . S
H3682 C3686 0.929 . S
H3683 C3692 0.929 . S
C3684 H3678 0.930 . S
C3684 C3685 1.367 . S
C3684 C3692 1.378 . S
C3685 C3684 1.367 . S
C3685 C3693 1.433 1_545 S
C3686 H3682 0.929 . S
C3686 C3688 1.378 . S
C3686 C3690 1.350 . S
C3687 C3690 1.463 1_446 S
C3687 C3692 1.350 . S
C3687 N3695 1.427 1_545 S
C3688 H3679 0.930 . S
C3688 C3686 1.378 . S
C3688 C3689 1.367 . S
C3689 C3688 1.367 . S
C3689 C3691 1.433 1_565 S
C3690 C3686 1.350 . S
C3690 C3687 1.463 1_664 S
C3690 N3694 1.427 1_565 S
C3691 H3681 0.929 . S
C3691 C3689 1.433 1_545 S
C3691 N3694 1.384 . S
C3692 H3683 0.929 . S
C3692 C3684 1.378 . S
C3692 C3687 1.350 . S
C3693 H3680 0.929 . S
C3693 C3685 1.433 1_565 S
C3693 N3695 1.384 . S
N3694 C3690 1.427 1_545 S
N3694 C3691 1.384 . S
N3695 C3687 1.427 1_565 S
N3695 C3693 1.384 . S
H3696 C3702 0.930 . S
H3697 C3706 0.930 . S
H3698 C3711 0.929 . S
H3699 C3709 0.929 . S
H3700 C3704 0.929 . S
H3701 C3710 0.929 . S
C3702 H3696 0.930 . S
C3702 C3703 1.367 . S
C3702 C3710 1.378 . S
C3703 C3702 1.367 . S
C3703 C3711 1.433 . S
C3704 H3700 0.929 . S
C3704 C3706 1.378 . S
C3704 C3708 1.350 . S
C3705 C3708 1.463 . S
C3705 C3710 1.350 . S
C3705 N3713 1.427 . S
C3706 H3697 0.930 . S
C3706 C3704 1.378 . S
C3706 C3707 1.367 . S
C3707 C3706 1.367 . S
C3707 C3709 1.433 . S
C3708 C3704 1.350 . S
C3708 C3705 1.463 . S
C3708 N3712 1.427 . S
C3709 H3699 0.929 . S
C3709 C3707 1.433 . S
C3709 N3712 1.384 . S
C3710 H3701 0.929 . S
C3710 C3702 1.378 . S
C3710 C3705 1.350 . S
C3711 H3698 0.929 . S
C3711 C3703 1.433 . S
C3711 N3713 1.384 . S
N3712 C3708 1.427 . S
N3712 C3709 1.384 . S
N3713 C3705 1.427 . S
N3713 C3711 1.384 . S
H3714 C3720 0.930 . S
H3715 C3724 0.930 . S
H3716 C3729 0.929 . S
H3717 C3727 0.929 . S
H3718 C3722 0.929 . S
H3719 C3728 0.929 . S
C3720 H3714 0.930 . S
C3720 C3721 1.367 . S
C3720 C3728 1.378 . S
C3721 C3720 1.367 . S
C3721 C3729 1.433 . S
C3722 H3718 0.929 . S
C3722 C3724 1.378 . S
C3722 C3726 1.350 . S
C3723 C3726 1.463 . S
C3723 C3728 1.350 . S
C3723 N3731 1.427 . S
C3724 H3715 0.930 . S
C3724 C3722 1.378 . S
C3724 C3725 1.367 . S
C3725 C3724 1.367 . S
C3725 C3727 1.433 . S
C3726 C3722 1.350 . S
C3726 C3723 1.463 . S
C3726 N3730 1.427 . S
C3727 H3717 0.929 . S
C3727 C3725 1.433 . S
C3727 N3730 1.384 . S
C3728 H3719 0.929 . S
C3728 C3720 1.378 . S
C3728 C3723 1.350 . S
C3729 H3716 0.929 . S
C3729 C3721 1.433 . S
C3729 N3731 1.384 . S
N3730 C3726 1.427 . S
N3730 C3727 1.384 . S
N3731 C3723 1.427 . S
N3731 C3729 1.384 . S
H3732 C3738 0.930 . S
H3733 C3742 0.930 . S
H3734 C3747 0.929 . S
H3735 C3745 0.929 . S
H3736 C3740 0.929 . S
H3737 C3746 0.929 . S
C3738 H3732 0.930 . S
C3738 C3739 1.367 . S
C3738 C3746 1.378 . S
C3739 C3738 1.367 . S
C3739 C3747 1.433 . S
C3740 H3736 0.929 . S
C3740 C3742 1.378 . S
C3740 C3744 1.350 . S
C3741 C3744 1.463 . S
C3741 C3746 1.350 . S
C3741 N3749 1.427 . S
C3742 H3733 0.930 . S
C3742 C3740 1.378 . S
C3742 C3743 1.367 . S
C3743 C3742 1.367 . S
C3743 C3745 1.433 . S
C3744 C3740 1.350 . S
C3744 C3741 1.463 . S
C3744 N3748 1.427 . S
C3745 H3735 0.929 . S
C3745 C3743 1.433 . S
C3745 N3748 1.384 . S
C3746 H3737 0.929 . S
C3746 C3738 1.378 . S
C3746 C3741 1.350 . S
C3747 H3734 0.929 . S
C3747 C3739 1.433 . S
C3747 N3749 1.384 . S
N3748 C3744 1.427 . S
N3748 C3745 1.384 . S
N3749 C3741 1.427 . S
N3749 C3747 1.384 . S
H3750 C3756 0.930 . S
H3751 C3760 0.930 . S
H3752 C3765 0.929 . S
H3753 C3763 0.929 . S
H3754 C3758 0.929 . S
H3755 C3764 0.929 . S
C3756 H3750 0.930 . S
C3756 C3757 1.367 . S
C3756 C3764 1.378 . S
C3757 C3756 1.367 . S
C3757 C3765 1.433 . S
C3758 H3754 0.929 . S
C3758 C3760 1.378 . S
C3758 C3762 1.350 . S
C3759 C3762 1.463 . S
C3759 C3764 1.350 . S
C3759 N3767 1.427 . S
C3760 H3751 0.930 . S
C3760 C3758 1.378 . S
C3760 C3761 1.367 . S
C3761 C3760 1.367 . S
C3761 C3763 1.433 . S
C3762 C3758 1.350 . S
C3762 C3759 1.463 . S
C3762 N3766 1.427 . S
C3763 H3753 0.929 . S
C3763 C3761 1.433 . S
C3763 N3766 1.384 . S
C3764 H3755 0.929 . S
C3764 C3756 1.378 . S
C3764 C3759 1.350 . S
C3765 H3752 0.929 . S
C3765 C3757 1.433 . S
C3765 N3767 1.384 . S
N3766 C3762 1.427 . S
N3766 C3763 1.384 . S
N3767 C3759 1.427 . S
N3767 C3765 1.384 . S
H3768 C3774 0.930 . S
H3769 C3778 0.930 . S
H3770 C3783 0.929 . S
H3771 C3781 0.929 . S
H3772 C3776 0.929 . S
H3773 C3782 0.929 . S
C3774 H3768 0.930 . S
C3774 C3775 1.367 . S
C3774 C3782 1.378 . S
C3775 C3774 1.367 . S
C3775 C3783 1.433 . S
C3776 H3772 0.929 . S
C3776 C3778 1.378 . S
C3776 C3780 1.350 . S
C3777 C3780 1.463 1_554 S
C3777 C3782 1.350 . S
C3777 N3785 1.427 . S
C3778 H3769 0.930 . S
C3778 C3776 1.378 . S
C3778 C3779 1.367 . S
C3779 C3778 1.367 . S
C3779 C3781 1.433 . S
C3780 C3776 1.350 . S
C3780 C3777 1.463 1_556 S
C3780 N3784 1.427 . S
C3781 H3771 0.929 . S
C3781 C3779 1.433 . S
C3781 N3784 1.384 . S
C3782 H3773 0.929 . S
C3782 C3774 1.378 . S
C3782 C3777 1.350 . S
C3783 H3770 0.929 . S
C3783 C3775 1.433 . S
C3783 N3785 1.384 . S
N3784 C3780 1.427 . S
N3784 C3781 1.384 . S
N3785 C3777 1.427 . S
N3785 C3783 1.384 . S
H3786 C3792 0.930 1_455 S
H3787 C3796 0.930 1_655 S
H3788 C3801 0.929 . S
H3789 C3799 0.929 . S
H3790 C3794 0.929 . S
H3791 C3800 0.929 . S
C3792 H3786 0.930 1_655 S
C3792 C3793 1.367 . S
C3792 C3800 1.378 1_655 S
C3793 C3792 1.367 . S
C3793 C3801 1.433 . S
C3794 H3790 0.929 . S
C3794 C3796 1.378 1_655 S
C3794 C3798 1.350 1_655 S
C3795 C3798 1.463 1_655 S
C3795 C3800 1.350 1_655 S
C3795 N3803 1.427 . S
C3796 H3787 0.930 1_455 S
C3796 C3794 1.378 1_455 S
C3796 C3797 1.367 . S
C3797 C3796 1.367 . S
C3797 C3799 1.433 . S
C3798 C3794 1.350 1_455 S
C3798 C3795 1.463 1_455 S
C3798 N3802 1.427 . S
C3799 H3789 0.929 . S
C3799 C3797 1.433 . S
C3799 N3802 1.384 . S
C3800 H3791 0.929 . S
C3800 C3792 1.378 1_455 S
C3800 C3795 1.350 1_455 S
C3801 H3788 0.929 . S
C3801 C3793 1.433 . S
C3801 N3803 1.384 . S
N3802 C3798 1.427 . S
N3802 C3799 1.384 . S
N3803 C3795 1.427 . S
N3803 C3801 1.384 . S
H3804 C3810 0.930 . S
H3805 C3814 0.930 . S
H3806 C3819 0.929 . S
H3807 C3817 0.929 . S
H3808 C3812 0.929 . S
H3809 C3818 0.929 . S
C3810 H3804 0.930 . S
C3810 C3811 1.367 . S
C3810 C3818 1.378 . S
C3811 C3810 1.367 . S
C3811 C3819 1.433 1_455 S
C3812 H3808 0.929 . S
C3812 C3814 1.378 . S
C3812 C3816 1.350 . S
C3813 C3816 1.463 1_454 S
C3813 C3818 1.350 . S
C3813 N3821 1.427 1_455 S
C3814 H3805 0.930 . S
C3814 C3812 1.378 . S
C3814 C3815 1.367 . S
C3815 C3814 1.367 . S
C3815 C3817 1.433 1_655 S
C3816 C3812 1.350 . S
C3816 C3813 1.463 1_656 S
C3816 N3820 1.427 1_655 S
C3817 H3807 0.929 . S
C3817 C3815 1.433 1_455 S
C3817 N3820 1.384 . S
C3818 H3809 0.929 . S
C3818 C3810 1.378 . S
C3818 C3813 1.350 . S
C3819 H3806 0.929 . S
C3819 C3811 1.433 1_655 S
C3819 N3821 1.384 . S
N3820 C3816 1.427 1_455 S
N3820 C3817 1.384 . S
N3821 C3813 1.427 1_655 S
N3821 C3819 1.384 . S
H3822 C3828 0.930 . S
H3823 C3832 0.930 . S
H3824 C3837 0.929 . S
H3825 C3835 0.929 . S
H3826 C3830 0.929 . S
H3827 C3836 0.929 . S
C3828 H3822 0.930 . S
C3828 C3829 1.367 . S
C3828 C3836 1.378 . S
C3829 C3828 1.367 . S
C3829 C3837 1.433 . S
C3830 H3826 0.929 . S
C3830 C3832 1.378 . S
C3830 C3834 1.350 . S
C3831 C3834 1.463 . S
C3831 C3836 1.350 . S
C3831 N3839 1.427 . S
C3832 H3823 0.930 . S
C3832 C3830 1.378 . S
C3832 C3833 1.367 . S
C3833 C3832 1.367 . S
C3833 C3835 1.433 . S
C3834 C3830 1.350 . S
C3834 C3831 1.463 . S
C3834 N3838 1.427 . S
C3835 H3825 0.929 . S
C3835 C3833 1.433 . S
C3835 N3838 1.384 . S
C3836 H3827 0.929 . S
C3836 C3828 1.378 . S
C3836 C3831 1.350 . S
C3837 H3824 0.929 . S
C3837 C3829 1.433 . S
C3837 N3839 1.384 . S
N3838 C3834 1.427 . S
N3838 C3835 1.384 . S
N3839 C3831 1.427 . S
N3839 C3837 1.384 . S
H3840 C3846 0.930 . S
H3841 C3850 0.930 . S
H3842 C3855 0.929 . S
H3843 C3853 0.929 . S
H3844 C3848 0.929 . S
H3845 C3854 0.929 . S
C3846 H3840 0.930 . S
C3846 C3847 1.367 . S
C3846 C3854 1.378 . S
C3847 C3846 1.367 . S
C3847 C3855 1.433 . S
C3848 H3844 0.929 . S
C3848 C3850 1.378 . S
C3848 C3852 1.350 . S
C3849 C3852 1.463 . S
C3849 C3854 1.350 . S
C3849 N3857 1.427 . S
C3850 H3841 0.930 . S
C3850 C3848 1.378 . S
C3850 C3851 1.367 . S
C3851 C3850 1.367 . S
C3851 C3853 1.433 . S
C3852 C3848 1.350 . S
C3852 C3849 1.463 . S
C3852 N3856 1.427 . S
C3853 H3843 0.929 . S
C3853 C3851 1.433 . S
C3853 N3856 1.384 . S
C3854 H3845 0.929 . S
C3854 C3846 1.378 . S
C3854 C3849 1.350 . S
C3855 H3842 0.929 . S
C3855 C3847 1.433 . S
C3855 N3857 1.384 . S
N3856 C3852 1.427 . S
N3856 C3853 1.384 . S
N3857 C3849 1.427 . S
N3857 C3855 1.384 . S
H3858 C3864 0.930 . S
H3859 C3868 0.930 . S
H3860 C3873 0.929 . S
H3861 C3871 0.929 . S
H3862 C3866 0.929 . S
H3863 C3872 0.929 . S
C3864 H3858 0.930 . S
C3864 C3865 1.367 . S
C3864 C3872 1.378 . S
C3865 C3864 1.367 . S
C3865 C3873 1.433 . S
C3866 H3862 0.929 . S
C3866 C3868 1.378 . S
C3866 C3870 1.350 . S
C3867 C3870 1.463 . S
C3867 C3872 1.350 . S
C3867 N3875 1.427 . S
C3868 H3859 0.930 . S
C3868 C3866 1.378 . S
C3868 C3869 1.367 . S
C3869 C3868 1.367 . S
C3869 C3871 1.433 . S
C3870 C3866 1.350 . S
C3870 C3867 1.463 . S
C3870 N3874 1.427 . S
C3871 H3861 0.929 . S
C3871 C3869 1.433 . S
C3871 N3874 1.384 . S
C3872 H3863 0.929 . S
C3872 C3864 1.378 . S
C3872 C3867 1.350 . S
C3873 H3860 0.929 . S
C3873 C3865 1.433 . S
C3873 N3875 1.384 . S
N3874 C3870 1.427 . S
N3874 C3871 1.384 . S
N3875 C3867 1.427 . S
N3875 C3873 1.384 . S
H3876 C3882 0.930 . S
H3877 C3886 0.930 . S
H3878 C3891 0.929 . S
H3879 C3889 0.929 . S
H3880 C3884 0.929 . S
H3881 C3890 0.929 . S
C3882 H3876 0.930 . S
C3882 C3883 1.367 . S
C3882 C3890 1.378 . S
C3883 C3882 1.367 . S
C3883 C3891 1.433 . S
C3884 H3880 0.929 . S
C3884 C3886 1.378 . S
C3884 C3888 1.350 . S
C3885 C3888 1.463 . S
C3885 C3890 1.350 . S
C3885 N3893 1.427 . S
C3886 H3877 0.930 . S
C3886 C3884 1.378 . S
C3886 C3887 1.367 . S
C3887 C3886 1.367 . S
C3887 C3889 1.433 . S
C3888 C3884 1.350 . S
C3888 C3885 1.463 . S
C3888 N3892 1.427 . S
C3889 H3879 0.929 . S
C3889 C3887 1.433 . S
C3889 N3892 1.384 . S
C3890 H3881 0.929 . S
C3890 C3882 1.378 . S
C3890 C3885 1.350 . S
C3891 H3878 0.929 . S
C3891 C3883 1.433 . S
C3891 N3893 1.384 . S
N3892 C3888 1.427 . S
N3892 C3889 1.384 . S
N3893 C3885 1.427 . S
N3893 C3891 1.384 . S
H3894 C3900 0.930 . S
H3895 C3904 0.930 . S
H3896 C3909 0.929 . S
H3897 C3907 0.929 . S
H3898 C3902 0.929 . S
H3899 C3908 0.929 . S
C3900 H3894 0.930 . S
C3900 C3901 1.367 . S
C3900 C3908 1.378 . S
C3901 C3900 1.367 . S
C3901 C3909 1.433 . S
C3902 H3898 0.929 . S
C3902 C3904 1.378 . S
C3902 C3906 1.350 . S
C3903 C3906 1.463 . S
C3903 C3908 1.350 . S
C3903 N3911 1.427 . S
C3904 H3895 0.930 . S
C3904 C3902 1.378 . S
C3904 C3905 1.367 . S
C3905 C3904 1.367 . S
C3905 C3907 1.433 . S
C3906 C3902 1.350 . S
C3906 C3903 1.463 . S
C3906 N3910 1.427 . S
C3907 H3897 0.929 . S
C3907 C3905 1.433 . S
C3907 N3910 1.384 . S
C3908 H3899 0.929 . S
C3908 C3900 1.378 . S
C3908 C3903 1.350 . S
C3909 H3896 0.929 . S
C3909 C3901 1.433 . S
C3909 N3911 1.384 . S
N3910 C3906 1.427 . S
N3910 C3907 1.384 . S
N3911 C3903 1.427 . S
N3911 C3909 1.384 . S
H3912 C3918 0.930 . S
H3913 C3922 0.930 . S
H3914 C3927 0.929 . S
H3915 C3925 0.929 . S
H3916 C3920 0.929 . S
H3917 C3926 0.929 . S
C3918 H3912 0.930 . S
C3918 C3919 1.367 . S
C3918 C3926 1.378 . S
C3919 C3918 1.367 . S
C3919 C3927 1.433 . S
C3920 H3916 0.929 . S
C3920 C3922 1.378 . S
C3920 C3924 1.350 . S
C3921 C3924 1.463 . S
C3921 C3926 1.350 . S
C3921 N3929 1.427 . S
C3922 H3913 0.930 . S
C3922 C3920 1.378 . S
C3922 C3923 1.367 . S
C3923 C3922 1.367 . S
C3923 C3925 1.433 . S
C3924 C3920 1.350 . S
C3924 C3921 1.463 . S
C3924 N3928 1.427 . S
C3925 H3915 0.929 . S
C3925 C3923 1.433 . S
C3925 N3928 1.384 . S
C3926 H3917 0.929 . S
C3926 C3918 1.378 . S
C3926 C3921 1.350 . S
C3927 H3914 0.929 . S
C3927 C3919 1.433 . S
C3927 N3929 1.384 . S
N3928 C3924 1.427 . S
N3928 C3925 1.384 . S
N3929 C3921 1.427 . S
N3929 C3927 1.384 . S
H3930 C3936 0.930 . S
H3931 C3940 0.930 . S
H3932 C3945 0.929 . S
H3933 C3943 0.929 . S
H3934 C3938 0.929 . S
H3935 C3944 0.929 . S
C3936 H3930 0.930 . S
C3936 C3937 1.367 . S
C3936 C3944 1.378 . S
C3937 C3936 1.367 . S
C3937 C3945 1.433 . S
C3938 H3934 0.929 . S
C3938 C3940 1.378 . S
C3938 C3942 1.350 . S
C3939 C3942 1.463 . S
C3939 C3944 1.350 . S
C3939 N3947 1.427 . S
C3940 H3931 0.930 . S
C3940 C3938 1.378 . S
C3940 C3941 1.367 . S
C3941 C3940 1.367 . S
C3941 C3943 1.433 . S
C3942 C3938 1.350 . S
C3942 C3939 1.463 . S
C3942 N3946 1.427 . S
C3943 H3933 0.929 . S
C3943 C3941 1.433 . S
C3943 N3946 1.384 . S
C3944 H3935 0.929 . S
C3944 C3936 1.378 . S
C3944 C3939 1.350 . S
C3945 H3932 0.929 . S
C3945 C3937 1.433 . S
C3945 N3947 1.384 . S
N3946 C3942 1.427 . S
N3946 C3943 1.384 . S
N3947 C3939 1.427 . S
N3947 C3945 1.384 . S
H3948 C3954 0.930 . S
H3949 C3958 0.930 . S
H3950 C3963 0.929 . S
H3951 C3961 0.929 . S
H3952 C3956 0.929 . S
H3953 C3962 0.929 . S
C3954 H3948 0.930 . S
C3954 C3955 1.367 . S
C3954 C3962 1.378 . S
C3955 C3954 1.367 . S
C3955 C3963 1.433 . S
C3956 H3952 0.929 . S
C3956 C3958 1.378 . S
C3956 C3960 1.350 . S
C3957 C3960 1.463 . S
C3957 C3962 1.350 . S
C3957 N3965 1.427 . S
C3958 H3949 0.930 . S
C3958 C3956 1.378 . S
C3958 C3959 1.367 . S
C3959 C3958 1.367 . S
C3959 C3961 1.433 . S
C3960 C3956 1.350 . S
C3960 C3957 1.463 . S
C3960 N3964 1.427 . S
C3961 H3951 0.929 . S
C3961 C3959 1.433 . S
C3961 N3964 1.384 . S
C3962 H3953 0.929 . S
C3962 C3954 1.378 . S
C3962 C3957 1.350 . S
C3963 H3950 0.929 . S
C3963 C3955 1.433 . S
C3963 N3965 1.384 . S
N3964 C3960 1.427 . S
N3964 C3961 1.384 . S
N3965 C3957 1.427 . S
N3965 C3963 1.384 . S
H3966 C3972 0.930 . S
H3967 C3976 0.930 . S
H3968 C3981 0.929 . S
H3969 C3979 0.929 . S
H3970 C3974 0.929 . S
H3971 C3980 0.929 . S
C3972 H3966 0.930 . S
C3972 C3973 1.367 . S
C3972 C3980 1.378 . S
C3973 C3972 1.367 . S
C3973 C3981 1.433 . S
C3974 H3970 0.929 . S
C3974 C3976 1.378 . S
C3974 C3978 1.350 . S
C3975 C3978 1.463 . S
C3975 C3980 1.350 . S
C3975 N3983 1.427 . S
C3976 H3967 0.930 . S
C3976 C3974 1.378 . S
C3976 C3977 1.367 . S
C3977 C3976 1.367 . S
C3977 C3979 1.433 . S
C3978 C3974 1.350 . S
C3978 C3975 1.463 . S
C3978 N3982 1.427 . S
C3979 H3969 0.929 . S
C3979 C3977 1.433 . S
C3979 N3982 1.384 . S
C3980 H3971 0.929 . S
C3980 C3972 1.378 . S
C3980 C3975 1.350 . S
C3981 H3968 0.929 . S
C3981 C3973 1.433 . S
C3981 N3983 1.384 . S
N3982 C3978 1.427 . S
N3982 C3979 1.384 . S
N3983 C3975 1.427 . S
N3983 C3981 1.384 . S
H3984 C3990 0.930 . S
H3985 C3994 0.930 . S
H3986 C3999 0.929 . S
H3987 C3997 0.929 . S
H3988 C3992 0.929 . S
H3989 C3998 0.929 . S
C3990 H3984 0.930 . S
C3990 C3991 1.367 . S
C3990 C3998 1.378 . S
C3991 C3990 1.367 . S
C3991 C3999 1.433 . S
C3992 H3988 0.929 . S
C3992 C3994 1.378 . S
C3992 C3996 1.350 . S
C3993 C3996 1.463 . S
C3993 C3998 1.350 . S
C3993 N4001 1.427 . S
C3994 H3985 0.930 . S
C3994 C3992 1.378 . S
C3994 C3995 1.367 . S
C3995 C3994 1.367 . S
C3995 C3997 1.433 . S
C3996 C3992 1.350 . S
C3996 C3993 1.463 . S
C3996 N4000 1.427 . S
C3997 H3987 0.929 . S
C3997 C3995 1.433 . S
C3997 N4000 1.384 . S
C3998 H3989 0.929 . S
C3998 C3990 1.378 . S
C3998 C3993 1.350 . S
C3999 H3986 0.929 . S
C3999 C3991 1.433 . S
C3999 N4001 1.384 . S
N4000 C3996 1.427 . S
N4000 C3997 1.384 . S
N4001 C3993 1.427 . S
N4001 C3999 1.384 . S
H4002 C4008 0.930 . S
H4003 C4012 0.930 . S
H4004 C4017 0.929 . S
H4005 C4015 0.929 . S
H4006 C4010 0.929 . S
H4007 C4016 0.929 . S
C4008 H4002 0.930 . S
C4008 C4009 1.367 . S
C4008 C4016 1.378 . S
C4009 C4008 1.367 . S
C4009 C4017 1.433 . S
C4010 H4006 0.929 . S
C4010 C4012 1.378 . S
C4010 C4014 1.350 . S
C4011 C4014 1.463 . S
C4011 C4016 1.350 . S
C4011 N4019 1.427 . S
C4012 H4003 0.930 . S
C4012 C4010 1.378 . S
C4012 C4013 1.367 . S
C4013 C4012 1.367 . S
C4013 C4015 1.433 . S
C4014 C4010 1.350 . S
C4014 C4011 1.463 . S
C4014 N4018 1.427 . S
C4015 H4005 0.929 . S
C4015 C4013 1.433 . S
C4015 N4018 1.384 . S
C4016 H4007 0.929 . S
C4016 C4008 1.378 . S
C4016 C4011 1.350 . S
C4017 H4004 0.929 . S
C4017 C4009 1.433 . S
C4017 N4019 1.384 . S
N4018 C4014 1.427 . S
N4018 C4015 1.384 . S
N4019 C4011 1.427 . S
N4019 C4017 1.384 . S
H4020 C4026 0.930 . S
H4021 C4030 0.930 . S
H4022 C4035 0.929 . S
H4023 C4033 0.929 . S
H4024 C4028 0.929 . S
H4025 C4034 0.929 . S
C4026 H4020 0.930 . S
C4026 C4027 1.367 . S
C4026 C4034 1.378 . S
C4027 C4026 1.367 . S
C4027 C4035 1.433 . S
C4028 H4024 0.929 . S
C4028 C4030 1.378 . S
C4028 C4032 1.350 . S
C4029 C4032 1.463 . S
C4029 C4034 1.350 . S
C4029 N4037 1.427 . S
C4030 H4021 0.930 . S
C4030 C4028 1.378 . S
C4030 C4031 1.367 . S
C4031 C4030 1.367 . S
C4031 C4033 1.433 . S
C4032 C4028 1.350 . S
C4032 C4029 1.463 . S
C4032 N4036 1.427 . S
C4033 H4023 0.929 . S
C4033 C4031 1.433 . S
C4033 N4036 1.384 . S
C4034 H4025 0.929 . S
C4034 C4026 1.378 . S
C4034 C4029 1.350 . S
C4035 H4022 0.929 . S
C4035 C4027 1.433 . S
C4035 N4037 1.384 . S
N4036 C4032 1.427 . S
N4036 C4033 1.384 . S
N4037 C4029 1.427 . S
N4037 C4035 1.384 . S
H4038 C4044 0.930 . S
H4039 C4048 0.930 . S
H4040 C4053 0.929 . S
H4041 C4051 0.929 . S
H4042 C4046 0.929 . S
H4043 C4052 0.929 . S
C4044 H4038 0.930 . S
C4044 C4045 1.367 . S
C4044 C4052 1.378 . S
C4045 C4044 1.367 . S
C4045 C4053 1.433 . S
C4046 H4042 0.929 . S
C4046 C4048 1.378 . S
C4046 C4050 1.350 . S
C4047 C4050 1.463 . S
C4047 C4052 1.350 . S
C4047 N4055 1.427 . S
C4048 H4039 0.930 . S
C4048 C4046 1.378 . S
C4048 C4049 1.367 . S
C4049 C4048 1.367 . S
C4049 C4051 1.433 . S
C4050 C4046 1.350 . S
C4050 C4047 1.463 . S
C4050 N4054 1.427 . S
C4051 H4041 0.929 . S
C4051 C4049 1.433 . S
C4051 N4054 1.384 . S
C4052 H4043 0.929 . S
C4052 C4044 1.378 . S
C4052 C4047 1.350 . S
C4053 H4040 0.929 . S
C4053 C4045 1.433 . S
C4053 N4055 1.384 . S
N4054 C4050 1.427 . S
N4054 C4051 1.384 . S
N4055 C4047 1.427 . S
N4055 C4053 1.384 . S
H4056 C4062 0.930 . S
H4057 C4066 0.930 . S
H4058 C4071 0.929 . S
H4059 C4069 0.929 . S
H4060 C4064 0.929 . S
H4061 C4070 0.929 . S
C4062 H4056 0.930 . S
C4062 C4063 1.367 . S
C4062 C4070 1.378 . S
C4063 C4062 1.367 . S
C4063 C4071 1.433 . S
C4064 H4060 0.929 . S
C4064 C4066 1.378 . S
C4064 C4068 1.350 . S
C4065 C4068 1.463 . S
C4065 C4070 1.350 . S
C4065 N4073 1.427 . S
C4066 H4057 0.930 . S
C4066 C4064 1.378 . S
C4066 C4067 1.367 . S
C4067 C4066 1.367 . S
C4067 C4069 1.433 . S
C4068 C4064 1.350 . S
C4068 C4065 1.463 . S
C4068 N4072 1.427 . S
C4069 H4059 0.929 . S
C4069 C4067 1.433 . S
C4069 N4072 1.384 . S
C4070 H4061 0.929 . S
C4070 C4062 1.378 . S
C4070 C4065 1.350 . S
C4071 H4058 0.929 . S
C4071 C4063 1.433 . S
C4071 N4073 1.384 . S
N4072 C4068 1.427 . S
N4072 C4069 1.384 . S
N4073 C4065 1.427 . S
N4073 C4071 1.384 . S
H4074 C4080 0.930 . S
H4075 C4084 0.930 . S
H4076 C4089 0.929 . S
H4077 C4087 0.929 . S
H4078 C4082 0.929 . S
H4079 C4088 0.929 . S
C4080 H4074 0.930 . S
C4080 C4081 1.367 . S
C4080 C4088 1.378 . S
C4081 C4080 1.367 . S
C4081 C4089 1.433 . S
C4082 H4078 0.929 . S
C4082 C4084 1.378 . S
C4082 C4086 1.350 . S
C4083 C4086 1.463 . S
C4083 C4088 1.350 . S
C4083 N4091 1.427 . S
C4084 H4075 0.930 . S
C4084 C4082 1.378 . S
C4084 C4085 1.367 . S
C4085 C4084 1.367 . S
C4085 C4087 1.433 . S
C4086 C4082 1.350 . S
C4086 C4083 1.463 . S
C4086 N4090 1.427 . S
C4087 H4077 0.929 . S
C4087 C4085 1.433 . S
C4087 N4090 1.384 . S
C4088 H4079 0.929 . S
C4088 C4080 1.378 . S
C4088 C4083 1.350 . S
C4089 H4076 0.929 . S
C4089 C4081 1.433 . S
C4089 N4091 1.384 . S
N4090 C4086 1.427 . S
N4090 C4087 1.384 . S
N4091 C4083 1.427 . S
N4091 C4089 1.384 . S
H4092 C4098 0.930 . S
H4093 C4102 0.930 . S
H4094 C4107 0.929 . S
H4095 C4105 0.929 . S
H4096 C4100 0.929 . S
H4097 C4106 0.929 . S
C4098 H4092 0.930 . S
C4098 C4099 1.367 . S
C4098 C4106 1.378 . S
C4099 C4098 1.367 . S
C4099 C4107 1.433 . S
C4100 H4096 0.929 . S
C4100 C4102 1.378 . S
C4100 C4104 1.350 . S
C4101 C4104 1.463 . S
C4101 C4106 1.350 . S
C4101 N4109 1.427 . S
C4102 H4093 0.930 . S
C4102 C4100 1.378 . S
C4102 C4103 1.367 . S
C4103 C4102 1.367 . S
C4103 C4105 1.433 . S
C4104 C4100 1.350 . S
C4104 C4101 1.463 . S
C4104 N4108 1.427 . S
C4105 H4095 0.929 . S
C4105 C4103 1.433 . S
C4105 N4108 1.384 . S
C4106 H4097 0.929 . S
C4106 C4098 1.378 . S
C4106 C4101 1.350 . S
C4107 H4094 0.929 . S
C4107 C4099 1.433 . S
C4107 N4109 1.384 . S
N4108 C4104 1.427 . S
N4108 C4105 1.384 . S
N4109 C4101 1.427 . S
N4109 C4107 1.384 . S
H4110 C4116 0.930 . S
H4111 C4120 0.930 . S
H4112 C4125 0.929 . S
H4113 C4123 0.929 . S
H4114 C4118 0.929 . S
H4115 C4124 0.929 . S
C4116 H4110 0.930 . S
C4116 C4117 1.367 . S
C4116 C4124 1.378 . S
C4117 C4116 1.367 . S
C4117 C4125 1.433 . S
C4118 H4114 0.929 . S
C4118 C4120 1.378 . S
C4118 C4122 1.350 . S
C4119 C4122 1.463 . S
C4119 C4124 1.350 . S
C4119 N4127 1.427 . S
C4120 H4111 0.930 . S
C4120 C4118 1.378 . S
C4120 C4121 1.367 . S
C4121 C4120 1.367 . S
C4121 C4123 1.433 . S
C4122 C4118 1.350 . S
C4122 C4119 1.463 . S
C4122 N4126 1.427 . S
C4123 H4113 0.929 . S
C4123 C4121 1.433 . S
C4123 N4126 1.384 . S
C4124 H4115 0.929 . S
C4124 C4116 1.378 . S
C4124 C4119 1.350 . S
C4125 H4112 0.929 . S
C4125 C4117 1.433 . S
C4125 N4127 1.384 . S
N4126 C4122 1.427 . S
N4126 C4123 1.384 . S
N4127 C4119 1.427 . S
N4127 C4125 1.384 . S
H4128 C4134 0.930 . S
H4129 C4138 0.930 . S
H4130 C4143 0.929 . S
H4131 C4141 0.929 . S
H4132 C4136 0.934 . S
H4133 C4142 0.934 . S
C4134 H4128 0.930 . S
C4134 C4135 1.367 . S
C4134 C4142 1.378 . S
C4135 C4134 1.367 . S
C4135 C4143 1.433 . S
C4136 H4132 0.934 . S
C4136 C4138 1.378 . S
C4136 C4140 1.350 . S
C4137 C4140 1.463 1_545 S
C4137 C4142 1.350 . S
C4137 N4145 1.427 . S
C4138 H4129 0.930 . S
C4138 C4136 1.378 . S
C4138 C4139 1.367 . S
C4139 C4138 1.367 . S
C4139 C4141 1.433 . S
C4140 C4136 1.350 . S
C4140 C4137 1.463 1_565 S
C4140 N4144 1.427 . S
C4141 H4131 0.929 . S
C4141 C4139 1.433 . S
C4141 N4144 1.384 . S
C4142 H4133 0.934 . S
C4142 C4134 1.378 . S
C4142 C4137 1.350 . S
C4143 H4130 0.929 . S
C4143 C4135 1.433 . S
C4143 N4145 1.384 . S
N4144 C4140 1.427 . S
N4144 C4141 1.384 . S
N4145 C4137 1.427 . S
N4145 C4143 1.384 . S
H4146 C4152 0.930 . S
H4147 C4156 0.930 1_545 S
H4148 C4161 0.929 1_545 S
H4149 C4159 0.929 . S
H4150 C4154 0.929 1_545 S
H4151 C4160 0.929 . S
C4152 H4146 0.930 . S
C4152 C4153 1.367 . S
C4152 C4160 1.378 . S
C4153 C4152 1.367 . S
C4153 C4161 1.433 . S
C4154 H4150 0.929 1_565 S
C4154 C4156 1.378 . S
C4154 C4158 1.350 . S
C4155 C4158 1.463 . S
C4155 C4160 1.350 . S
C4155 N4163 1.427 . S
C4156 H4147 0.930 1_565 S
C4156 C4154 1.378 . S
C4156 C4157 1.367 . S
C4157 C4156 1.367 . S
C4157 C4159 1.433 . S
C4158 C4154 1.350 . S
C4158 C4155 1.463 . S
C4158 N4162 1.427 . S
C4159 H4149 0.929 . S
C4159 C4157 1.433 . S
C4159 N4162 1.384 . S
C4160 H4151 0.929 . S
C4160 C4152 1.378 . S
C4160 C4155 1.350 . S
C4161 H4148 0.929 1_565 S
C4161 C4153 1.433 . S
C4161 N4163 1.384 . S
N4162 C4158 1.427 . S
N4162 C4159 1.384 . S
N4163 C4155 1.427 . S
N4163 C4161 1.384 . S
H4164 C4170 0.930 . S
H4165 C4174 0.930 . S
H4166 C4179 0.929 . S
H4167 C4177 0.929 . S
H4168 C4172 0.929 . S
H4169 C4178 0.929 . S
C4170 H4164 0.930 . S
C4170 C4171 1.367 . S
C4170 C4178 1.378 . S
C4171 C4170 1.367 . S
C4171 C4179 1.433 . S
C4172 H4168 0.929 . S
C4172 C4174 1.378 . S
C4172 C4176 1.350 . S
C4173 C4176 1.463 1_545 S
C4173 C4178 1.350 . S
C4173 N4181 1.427 . S
C4174 H4165 0.930 . S
C4174 C4172 1.378 . S
C4174 C4175 1.367 . S
C4175 C4174 1.367 . S
C4175 C4177 1.433 . S
C4176 C4172 1.350 . S
C4176 C4173 1.463 1_565 S
C4176 N4180 1.427 . S
C4177 H4167 0.929 . S
C4177 C4175 1.433 . S
C4177 N4180 1.384 . S
C4178 H4169 0.929 . S
C4178 C4170 1.378 . S
C4178 C4173 1.350 . S
C4179 H4166 0.929 . S
C4179 C4171 1.433 . S
C4179 N4181 1.384 . S
N4180 C4176 1.427 . S
N4180 C4177 1.384 . S
N4181 C4173 1.427 . S
N4181 C4179 1.384 . S
H4182 C4188 0.930 . S
H4183 C4192 0.925 1_565 S
H4184 C4197 0.933 . S
H4185 C4195 0.929 . S
H4186 C4190 0.924 1_565 S
H4187 C4196 0.929 . S
C4188 H4182 0.930 . S
C4188 C4189 1.367 . S
C4188 C4196 1.378 . S
C4189 C4188 1.367 . S
C4189 C4197 1.429 1_545 S
C4190 H4186 0.924 1_545 S
C4190 C4192 1.378 . S
C4190 C4194 1.355 . S
C4191 C4194 1.463 1_556 S
C4191 C4196 1.350 . S
C4191 N4199 1.428 . S
C4192 H4183 0.925 1_545 S
C4192 C4190 1.378 . S
C4192 C4193 1.372 . S
C4193 C4192 1.372 . S
C4193 C4195 1.433 . S
C4194 C4190 1.355 . S
C4194 C4191 1.463 1_554 S
C4194 N4198 1.427 . S
C4195 H4185 0.929 . S
C4195 C4193 1.433 . S
C4195 N4198 1.384 . S
C4196 H4187 0.929 . S
C4196 C4188 1.378 . S
C4196 C4191 1.350 . S
C4197 H4184 0.933 . S
C4197 C4189 1.429 1_565 S
C4197 N4199 1.384 1_565 S
N4198 C4194 1.427 . S
N4198 C4195 1.384 . S
N4199 C4191 1.428 . S
N4199 C4197 1.384 1_545 S
H4200 C4206 0.930 . S
H4201 C4210 0.930 . S
H4202 C4215 0.929 . S
H4203 C4213 0.929 . S
H4204 C4208 0.929 . S
H4205 C4214 0.929 . S
C4206 H4200 0.930 . S
C4206 C4207 1.367 . S
C4206 C4214 1.378 . S
C4207 C4206 1.367 . S
C4207 C4215 1.433 . S
C4208 H4204 0.929 . S
C4208 C4210 1.378 . S
C4208 C4212 1.350 . S
C4209 C4212 1.463 1_565 S
C4209 C4214 1.350 . S
C4209 N4217 1.427 . S
C4210 H4201 0.930 . S
C4210 C4208 1.378 . S
C4210 C4211 1.367 . S
C4211 C4210 1.367 . S
C4211 C4213 1.433 . S
C4212 C4208 1.350 . S
C4212 C4209 1.463 1_545 S
C4212 N4216 1.427 . S
C4213 H4203 0.929 . S
C4213 C4211 1.433 . S
C4213 N4216 1.384 . S
C4214 H4205 0.929 . S
C4214 C4206 1.378 . S
C4214 C4209 1.350 . S
C4215 H4202 0.929 . S
C4215 C4207 1.433 . S
C4215 N4217 1.384 . S
N4216 C4212 1.427 . S
N4216 C4213 1.384 . S
N4217 C4209 1.427 . S
N4217 C4215 1.384 . S
H4218 C4224 0.930 . S
H4219 C4228 0.930 . S
H4220 C4233 0.929 . S
H4221 C4231 0.929 . S
H4222 C4226 0.929 . S
H4223 C4232 0.929 . S
C4224 H4218 0.930 . S
C4224 C4225 1.367 . S
C4224 C4232 1.378 . S
C4225 C4224 1.367 . S
C4225 C4233 1.433 1_545 S
C4226 H4222 0.929 . S
C4226 C4228 1.378 . S
C4226 C4230 1.350 1_565 S
C4227 C4230 1.463 . S
C4227 C4232 1.350 . S
C4227 N4235 1.427 1_545 S
C4228 H4219 0.930 . S
C4228 C4226 1.378 . S
C4228 C4229 1.367 1_565 S
C4229 C4228 1.367 1_545 S
C4229 C4231 1.433 . S
C4230 C4226 1.350 1_545 S
C4230 C4227 1.463 . S
C4230 N4234 1.427 . S
C4231 H4221 0.929 . S
C4231 C4229 1.433 . S
C4231 N4234 1.384 . S
C4232 H4223 0.929 . S
C4232 C4224 1.378 . S
C4232 C4227 1.350 . S
C4233 H4220 0.929 . S
C4233 C4225 1.433 1_565 S
C4233 N4235 1.384 . S
N4234 C4230 1.427 . S
N4234 C4231 1.384 . S
N4235 C4227 1.427 1_565 S
N4235 C4233 1.384 . S
H4236 C4242 0.930 . S
H4237 C4246 0.930 . S
H4238 C4251 0.929 . S
H4239 C4249 0.929 . S
H4240 C4244 0.929 . S
H4241 C4250 0.929 . S
C4242 H4236 0.930 . S
C4242 C4243 1.367 . S
C4242 C4250 1.378 . S
C4243 C4242 1.367 . S
C4243 C4251 1.433 . S
C4244 H4240 0.929 . S
C4244 C4246 1.378 . S
C4244 C4248 1.350 . S
C4245 C4248 1.463 1_565 S
C4245 C4250 1.350 . S
C4245 N4253 1.427 . S
C4246 H4237 0.930 . S
C4246 C4244 1.378 . S
C4246 C4247 1.367 . S
C4247 C4246 1.367 . S
C4247 C4249 1.433 . S
C4248 C4244 1.350 . S
C4248 C4245 1.463 1_545 S
C4248 N4252 1.427 . S
C4249 H4239 0.929 . S
C4249 C4247 1.433 . S
C4249 N4252 1.384 . S
C4250 H4241 0.929 . S
C4250 C4242 1.378 . S
C4250 C4245 1.350 . S
C4251 H4238 0.929 . S
C4251 C4243 1.433 . S
C4251 N4253 1.384 . S
N4252 C4248 1.427 . S
N4252 C4249 1.384 . S
N4253 C4245 1.427 . S
N4253 C4251 1.384 . S
H4254 C4260 0.930 . S
H4255 C4264 0.930 1_545 S
H4256 C4269 0.929 1_545 S
H4257 C4267 0.929 . S
H4258 C4262 0.929 1_545 S
H4259 C4268 0.929 . S
C4260 H4254 0.930 . S
C4260 C4261 1.367 . S
C4260 C4268 1.378 . S
C4261 C4260 1.367 . S
C4261 C4269 1.433 . S
C4262 H4258 0.929 1_565 S
C4262 C4264 1.378 . S
C4262 C4266 1.350 . S
C4263 C4266 1.463 1_554 S
C4263 C4268 1.350 . S
C4263 N4271 1.427 . S
C4264 H4255 0.930 1_565 S
C4264 C4262 1.378 . S
C4264 C4265 1.367 . S
C4265 C4264 1.367 . S
C4265 C4267 1.433 . S
C4266 C4262 1.350 . S
C4266 C4263 1.463 1_556 S
C4266 N4270 1.427 . S
C4267 H4257 0.929 . S
C4267 C4265 1.433 . S
C4267 N4270 1.384 . S
C4268 H4259 0.929 . S
C4268 C4260 1.378 . S
C4268 C4263 1.350 . S
C4269 H4256 0.929 1_565 S
C4269 C4261 1.433 . S
C4269 N4271 1.384 . S
N4270 C4266 1.427 . S
N4270 C4267 1.384 . S
N4271 C4263 1.427 . S
N4271 C4269 1.384 . S
H4272 C4278 0.930 . S
H4273 C4282 0.930 . S
H4274 C4287 0.929 . S
H4275 C4285 0.929 . S
H4276 C4280 0.929 . S
H4277 C4286 0.929 . S
C4278 H4272 0.930 . S
C4278 C4279 1.367 . S
C4278 C4286 1.378 . S
C4279 C4278 1.367 . S
C4279 C4287 1.433 . S
C4280 H4276 0.929 . S
C4280 C4282 1.378 . S
C4280 C4284 1.350 . S
C4281 C4284 1.463 . S
C4281 C4286 1.350 . S
C4281 N4289 1.427 . S
C4282 H4273 0.930 . S
C4282 C4280 1.378 . S
C4282 C4283 1.367 . S
C4283 C4282 1.367 . S
C4283 C4285 1.433 . S
C4284 C4280 1.350 . S
C4284 C4281 1.463 . S
C4284 N4288 1.427 . S
C4285 H4275 0.929 . S
C4285 C4283 1.433 . S
C4285 N4288 1.384 . S
C4286 H4277 0.929 . S
C4286 C4278 1.378 . S
C4286 C4281 1.350 . S
C4287 H4274 0.929 . S
C4287 C4279 1.433 . S
C4287 N4289 1.384 . S
N4288 C4284 1.427 . S
N4288 C4285 1.384 . S
N4289 C4281 1.427 . S
N4289 C4287 1.384 . S
H4290 C4296 0.930 . S
H4291 C4300 0.930 . S
H4292 C4305 0.929 . S
H4293 C4303 0.929 . S
H4294 C4298 0.933 1_556 S
H4295 C4304 0.933 1_554 S
C4296 H4290 0.930 . S
C4296 C4297 1.367 . S
C4296 C4304 1.378 . S
C4297 C4296 1.367 . S
C4297 C4305 1.433 . S
C4298 H4294 0.933 1_554 S
C4298 C4300 1.378 . S
C4298 C4302 1.350 . S
C4299 C4302 1.463 1_556 S
C4299 C4304 1.350 . S
C4299 N4307 1.427 . S
C4300 H4291 0.930 . S
C4300 C4298 1.378 . S
C4300 C4301 1.367 . S
C4301 C4300 1.367 . S
C4301 C4303 1.433 . S
C4302 C4298 1.350 . S
C4302 C4299 1.463 1_554 S
C4302 N4306 1.427 . S
C4303 H4293 0.929 . S
C4303 C4301 1.433 . S
C4303 N4306 1.384 . S
C4304 H4295 0.933 1_556 S
C4304 C4296 1.378 . S
C4304 C4299 1.350 . S
C4305 H4292 0.929 . S
C4305 C4297 1.433 . S
C4305 N4307 1.384 . S
N4306 C4302 1.427 . S
N4306 C4303 1.384 . S
N4307 C4299 1.427 . S
N4307 C4305 1.384 . S
H4308 C4314 0.930 . S
H4309 C4318 0.930 . S
H4310 C4323 0.929 . S
H4311 C4321 0.929 . S
H4312 C4316 0.929 . S
H4313 C4322 0.929 . S
C4314 H4308 0.930 . S
C4314 C4315 1.367 . S
C4314 C4322 1.378 . S
C4315 C4314 1.367 . S
C4315 C4323 1.433 . S
C4316 H4312 0.929 . S
C4316 C4318 1.378 . S
C4316 C4320 1.350 . S
C4317 C4320 1.463 . S
C4317 C4322 1.350 . S
C4317 N4325 1.427 . S
C4318 H4309 0.930 . S
C4318 C4316 1.378 . S
C4318 C4319 1.367 . S
C4319 C4318 1.367 . S
C4319 C4321 1.433 . S
C4320 C4316 1.350 . S
C4320 C4317 1.463 . S
C4320 N4324 1.427 . S
C4321 H4311 0.929 . S
C4321 C4319 1.433 . S
C4321 N4324 1.384 . S
C4322 H4313 0.929 . S
C4322 C4314 1.378 . S
C4322 C4317 1.350 . S
C4323 H4310 0.929 . S
C4323 C4315 1.433 . S
C4323 N4325 1.384 . S
N4324 C4320 1.427 . S
N4324 C4321 1.384 . S
N4325 C4317 1.427 . S
N4325 C4323 1.384 . S
H4326 C4332 0.930 . S
H4327 C4336 0.930 . S
H4328 C4341 0.929 . S
H4329 C4339 0.929 . S
H4330 C4334 0.929 . S
H4331 C4340 0.929 . S
C4332 H4326 0.930 . S
C4332 C4333 1.367 . S
C4332 C4340 1.378 . S
C4333 C4332 1.367 . S
C4333 C4341 1.433 . S
C4334 H4330 0.929 . S
C4334 C4336 1.378 . S
C4334 C4338 1.350 . S
C4335 C4338 1.463 . S
C4335 C4340 1.350 . S
C4335 N4343 1.427 . S
C4336 H4327 0.930 . S
C4336 C4334 1.378 . S
C4336 C4337 1.367 . S
C4337 C4336 1.367 . S
C4337 C4339 1.433 . S
C4338 C4334 1.350 . S
C4338 C4335 1.463 . S
C4338 N4342 1.427 . S
C4339 H4329 0.929 . S
C4339 C4337 1.433 . S
C4339 N4342 1.384 . S
C4340 H4331 0.929 . S
C4340 C4332 1.378 . S
C4340 C4335 1.350 . S
C4341 H4328 0.929 . S
C4341 C4333 1.433 . S
C4341 N4343 1.384 . S
N4342 C4338 1.427 . S
N4342 C4339 1.384 . S
N4343 C4335 1.427 . S
N4343 C4341 1.384 . S
H4344 C4350 0.930 . S
H4345 C4354 0.930 . S
H4346 C4359 0.929 . S
H4347 C4357 0.929 . S
H4348 C4352 0.929 . S
H4349 C4358 0.929 . S
C4350 H4344 0.930 . S
C4350 C4351 1.367 . S
C4350 C4358 1.378 . S
C4351 C4350 1.367 . S
C4351 C4359 1.433 . S
C4352 H4348 0.929 . S
C4352 C4354 1.378 . S
C4352 C4356 1.350 . S
C4353 C4356 1.463 . S
C4353 C4358 1.350 . S
C4353 N4361 1.427 . S
C4354 H4345 0.930 . S
C4354 C4352 1.378 . S
C4354 C4355 1.367 . S
C4355 C4354 1.367 . S
C4355 C4357 1.433 . S
C4356 C4352 1.350 . S
C4356 C4353 1.463 . S
C4356 N4360 1.427 . S
C4357 H4347 0.929 . S
C4357 C4355 1.433 . S
C4357 N4360 1.384 . S
C4358 H4349 0.929 . S
C4358 C4350 1.378 . S
C4358 C4353 1.350 . S
C4359 H4346 0.929 . S
C4359 C4351 1.433 . S
C4359 N4361 1.384 . S
N4360 C4356 1.427 . S
N4360 C4357 1.384 . S
N4361 C4353 1.427 . S
N4361 C4359 1.384 . S
H4362 C4368 0.930 . S
H4363 C4372 0.930 . S
H4364 C4377 0.929 . S
H4365 C4375 0.929 . S
H4366 C4370 0.929 1_556 S
H4367 C4376 0.929 1_554 S
C4368 H4362 0.930 . S
C4368 C4369 1.367 . S
C4368 C4376 1.378 . S
C4369 C4368 1.367 . S
C4369 C4377 1.433 . S
C4370 H4366 0.929 1_554 S
C4370 C4372 1.378 . S
C4370 C4374 1.350 . S
C4371 C4374 1.463 1_556 S
C4371 C4376 1.350 . S
C4371 N4379 1.427 . S
C4372 H4363 0.930 . S
C4372 C4370 1.378 . S
C4372 C4373 1.367 . S
C4373 C4372 1.367 . S
C4373 C4375 1.433 . S
C4374 C4370 1.350 . S
C4374 C4371 1.463 1_554 S
C4374 N4378 1.427 . S
C4375 H4365 0.929 . S
C4375 C4373 1.433 . S
C4375 N4378 1.384 . S
C4376 H4367 0.929 1_556 S
C4376 C4368 1.378 . S
C4376 C4371 1.350 . S
C4377 H4364 0.929 . S
C4377 C4369 1.433 . S
C4377 N4379 1.384 . S
N4378 C4374 1.427 . S
N4378 C4375 1.384 . S
N4379 C4371 1.427 . S
N4379 C4377 1.384 . S
H4380 C4386 0.930 . S
H4381 C4390 0.930 . S
H4382 C4395 0.929 . S
H4383 C4393 0.929 . S
H4384 C4388 0.929 . S
H4385 C4394 0.929 . S
C4386 H4380 0.930 . S
C4386 C4387 1.367 . S
C4386 C4394 1.378 . S
C4387 C4386 1.367 . S
C4387 C4395 1.433 . S
C4388 H4384 0.929 . S
C4388 C4390 1.378 . S
C4388 C4392 1.350 . S
C4389 C4392 1.463 . S
C4389 C4394 1.350 . S
C4389 N4397 1.427 . S
C4390 H4381 0.930 . S
C4390 C4388 1.378 . S
C4390 C4391 1.367 . S
C4391 C4390 1.367 . S
C4391 C4393 1.433 . S
C4392 C4388 1.350 . S
C4392 C4389 1.463 . S
C4392 N4396 1.427 . S
C4393 H4383 0.929 . S
C4393 C4391 1.433 . S
C4393 N4396 1.384 . S
C4394 H4385 0.929 . S
C4394 C4386 1.378 . S
C4394 C4389 1.350 . S
C4395 H4382 0.929 . S
C4395 C4387 1.433 . S
C4395 N4397 1.384 . S
N4396 C4392 1.427 . S
N4396 C4393 1.384 . S
N4397 C4389 1.427 . S
N4397 C4395 1.384 . S
H4398 C4404 0.930 . S
H4399 C4408 0.930 . S
H4400 C4413 0.929 . S
H4401 C4411 0.929 . S
H4402 C4406 0.929 . S
H4403 C4412 0.929 . S
C4404 H4398 0.930 . S
C4404 C4405 1.367 . S
C4404 C4412 1.378 . S
C4405 C4404 1.367 . S
C4405 C4413 1.433 . S
C4406 H4402 0.929 . S
C4406 C4408 1.378 . S
C4406 C4410 1.350 . S
C4407 C4410 1.463 . S
C4407 C4412 1.350 . S
C4407 N4415 1.427 . S
C4408 H4399 0.930 . S
C4408 C4406 1.378 . S
C4408 C4409 1.367 . S
C4409 C4408 1.367 . S
C4409 C4411 1.433 . S
C4410 C4406 1.350 . S
C4410 C4407 1.463 . S
C4410 N4414 1.427 . S
C4411 H4401 0.929 . S
C4411 C4409 1.433 . S
C4411 N4414 1.384 . S
C4412 H4403 0.929 . S
C4412 C4404 1.378 . S
C4412 C4407 1.350 . S
C4413 H4400 0.929 . S
C4413 C4405 1.433 . S
C4413 N4415 1.384 . S
N4414 C4410 1.427 . S
N4414 C4411 1.384 . S
N4415 C4407 1.427 . S
N4415 C4413 1.384 . S
C2695 C58 0.363 . S
C2699 C2335 0.184 . S
C2713 C142 0.389 . S
C2717 C739 0.131 . S
C2731 C226 0.363 . S
C2735 C2167 0.150 . S
C2749 C907 0.175 . S
C2753 C310 0.400 . S
C2767 C394 0.366 . S
C2771 C2503 0.146 . S
C2785 C1243 0.157 . S
C2789 C478 0.410 . S
C2803 C2671 0.183 . S
C2807 C562 0.361 . S
C2821 C646 0.409 . S
C2825 C1075 0.159 . S
C2839 C742 0.380 . S
C2843 C1652 0.186 . S
C2857 C826 0.362 . S
C2861 C56 0.151 . S
C2875 C1484 0.186 . S
C2879 C910 0.383 . S
C2893 C224 0.131 . S
C2897 C994 0.387 . S
C2911 C1078 0.398 . S
C2915 C1820 0.131 . S
C2929 C1162 0.407 . S
C2933 C560 0.166 . S
C2947 C1246 0.356 . S
C2951 C1988 0.174 . S
C2965 C392 0.174 . S
C2969 C1330 0.356 . S
C2983 C991 0.161 . S
C2987 C1402 0.357 . S
C3001 C2083 0.131 . S
C3005 C1486 0.391 . S
C3019 C823 0.136 . S
C3023 C1570 0.377 . S
C3037 C1654 0.410 . S
C3041 C2251 0.156 . S
C3055 C1159 0.185 . S
C3059 C1738 0.384 . S
C3073 C2587 0.172 . S
C3077 C1822 0.403 . S
C3091 C1327 0.173 . S
C3095 C1906 0.356 . S
C3109 C1990 0.361 . S
C3113 C2419 0.153 . S
C3127 C2086 0.410 . S
C3131 C308 0.156 . S
C3145 C2170 0.391 . S
C3149 C1400 0.182 . S
C3163 C2254 0.373 . S
C3167 C140 0.139 . S
C3181 C2338 0.398 . S
C3185 C1568 0.177 . S
C3199 C476 0.135 . S
C3203 C2422 0.379 . S
C3217 C1904 0.183 . S
C3221 C2506 0.362 . S
C3235 C2590 0.410 . S
C3239 C644 0.155 . S
C3253 C2674 0.378 . S
C3257 C1736 0.136 . S
C3271 C63 3.089 . S
C3275 C1575 3.092 . S
C3289 C1659 3.089 . S
C3293 C147 3.092 . S
C3307 C231 3.093 . S
C3311 C1407 3.092 . S
C3325 C315 3.091 . S
C3329 C1491 3.089 . S
C3343 C1911 3.093 . S
C3347 C399 3.090 . S
C3361 C483 3.089 . S
C3365 C1995 3.092 . S
C3379 C1743 3.092 . S
C3383 C567 3.092 . S
C3397 C651 3.089 . S
C3401 C1827 3.092 . S
C3415 C2258 3.090 . S
C3419 C746 3.092 . S
C3433 C830 3.090 . S
C3437 C2342 3.092 . S
C3451 C914 3.090 . S
C3455 C2090 3.093 . S
C3469 C998 3.091 . S
C3473 C2174 3.093 . S
C3487 C2594 3.092 . S
C3491 C1082 3.089 . S
C3505 C2678 3.092 . S
C3509 C1166 3.093 . S
C3523 C1250 3.090 . S
C3527 C2426 3.093 . S
C3541 C1334 3.092 . S
C3545 C2510 3.093 . S
C3559 C67 2.987 . S
C3563 C2072 2.987 . S
C3577 C812 2.986 . S
C3581 C151 2.986 . S
C3595 C235 2.987 . S
C3599 C2240 2.987 . S
C3613 C319 2.988 . S
C3617 C980 2.988 . S
C3631 C2408 2.997 . S
C3635 C403 2.997 . S
C3649 C1148 2.993 . S
C3653 C487 2.993 . S
C3667 C571 2.996 . S
C3671 C2576 2.996 . S
C3685 C655 2.986 . S
C3689 C1316 2.986 . S
C3703 C1411 2.996 . S
C3707 C728 2.996 . S
C3721 C1579 2.986 . S
C3725 C896 2.986 . S
C3739 C1747 2.994 . S
C3743 C1064 2.994 . S
C3757 C1232 2.991 . S
C3761 C1915 2.991 . S
C3775 C1495 2.986 . S
C3779 C2156 2.986 . S
C3793 C1663 2.990 . S
C3797 C2324 2.990 . S
C3811 C2492 2.990 . S
C3815 C1831 2.990 . S
C3829 C2660 2.993 . S
C3833 C1999 2.993 . S
C3847 C74 4.199 . S
C3851 C494 4.201 1_545 S
C3865 C578 4.207 . S
C3869 C158 4.204 1_545 S
C3883 C662 4.199 1_565 S
C3887 C242 4.202 . S
C3901 C410 4.205 . S
C3905 C326 4.201 1_565 S
C3919 C735 4.204 . S
C3923 C1155 4.207 1_565 S
C3937 C819 4.201 1_565 S
C3941 C1239 4.199 . S
C3955 C1323 4.205 1_545 S
C3959 C903 4.207 . S
C3973 C987 4.203 1_545 S
C3977 C1071 4.200 . S
C3991 C1418 4.199 . S
C3995 C1838 4.202 . S
C4009 C1502 4.204 . S
C4013 C1922 4.207 . S
C4027 C1586 4.204 . S
C4031 C2006 4.207 . S
C4045 C1754 4.205 . S
C4049 C1670 4.208 . S
C4063 C2079 4.202 . S
C4067 C2499 4.206 . S
C4081 C2163 4.199 . S
C4085 C2583 4.202 . S
C4099 C2667 4.207 . S
C4103 C2247 4.203 . S
C4117 C2331 4.200 . S
C4121 C2415 4.200 . S
C4135 C70 0.917 . S
C4139 C406 0.951 . S
C4153 C154 0.917 . S
C4157 C490 0.949 . S
C4171 C574 0.913 . S
C4175 C238 0.954 . S
C4189 C658 0.915 . S
C4193 C322 0.953 . S
C4207 C730 0.922 . S
C4211 C1066 0.944 . S
C4225 C1150 0.912 . S
C4229 C814 0.954 . S
C4243 C1234 0.916 . S
C4247 C898 0.950 . S
C4261 C1318 0.916 . S
C4265 C982 0.951 . S
C4279 C1414 0.925 . S
C4283 C1750 0.944 . S
C4297 C1834 0.913 . S
C4301 C1498 0.953 . S
C4315 C1582 0.947 . S
C4319 C1918 0.921 . S
C4333 C2002 0.947 . S
C4337 C1666 0.919 . S
C4351 C2410 0.931 . S
C4355 C2074 0.935 . S
C4369 C2158 0.952 . S
C4373 C2494 0.914 . S
C4387 C2242 0.934 . S
C4391 C2578 0.932 . S
C4405 C2326 0.955 . S
C4409 C2662 0.912 . S
