# Generated by pormake.
# Topology uol, (4)-cn, num edge types: 1
# Building blocks:
#     Node 0, Type 0, BuildingBlock: KOZSID_clean_sbu_0, # of connection points: 4
#     Node 1, Type 0, BuildingBlock: KOZSID_clean_sbu_0, # of connection points: 4
#     Node 2, Type 0, BuildingBlock: KOZSID_clean_sbu_0, # of connection points: 4
#     Node 3, Type 0, BuildingBlock: KOZSID_clean_sbu_0, # of connection points: 4
#     Node 4, Type 0, BuildingBlock: KOZSID_clean_sbu_0, # of connection points: 4
#     Node 5, Type 0, BuildingBlock: KOZSID_clean_sbu_0, # of connection points: 4
#     Node 6, Type 0, BuildingBlock: KOZSID_clean_sbu_0, # of connection points: 4
#     Node 7, Type 0, BuildingBlock: KOZSID_clean_sbu_0, # of connection points: 4
#     Node 8, Type 0, BuildingBlock: KOZSID_clean_sbu_0, # of connection points: 4
#     Node 9, Type 0, BuildingBlock: KOZSID_clean_sbu_0, # of connection points: 4
#     Node 10, Type 0, BuildingBlock: KOZSID_clean_sbu_0, # of connection points: 4
#     Node 11, Type 0, BuildingBlock: KOZSID_clean_sbu_0, # of connection points: 4
#     Edge 12, Type (0, 0), BuildingBlock: UVAHIK_clean_linker_0, # of connection points: 2
#     Edge 13, Type (0, 0), BuildingBlock: UVAHIK_clean_linker_0, # of connection points: 2
#     Edge 14, Type (0, 0), BuildingBlock: UVAHIK_clean_linker_0, # of connection points: 2
#     Edge 15, Type (0, 0), BuildingBlock: UVAHIK_clean_linker_0, # of connection points: 2
#     Edge 16, Type (0, 0), BuildingBlock: UVAHIK_clean_linker_0, # of connection points: 2
#     Edge 17, Type (0, 0), BuildingBlock: UVAHIK_clean_linker_0, # of connection points: 2
#     Edge 18, Type (0, 0), BuildingBlock: UVAHIK_clean_linker_0, # of connection points: 2
#     Edge 19, Type (0, 0), BuildingBlock: UVAHIK_clean_linker_0, # of connection points: 2
#     Edge 20, Type (0, 0), BuildingBlock: UVAHIK_clean_linker_0, # of connection points: 2
#     Edge 21, Type (0, 0), BuildingBlock: UVAHIK_clean_linker_0, # of connection points: 2
#     Edge 22, Type (0, 0), BuildingBlock: UVAHIK_clean_linker_0, # of connection points: 2
#     Edge 23, Type (0, 0), BuildingBlock: UVAHIK_clean_linker_0, # of connection points: 2
#     Edge 24, Type (0, 0), BuildingBlock: UVAHIK_clean_linker_0, # of connection points: 2
#     Edge 25, Type (0, 0), BuildingBlock: UVAHIK_clean_linker_0, # of connection points: 2
#     Edge 26, Type (0, 0), BuildingBlock: UVAHIK_clean_linker_0, # of connection points: 2
#     Edge 27, Type (0, 0), BuildingBlock: UVAHIK_clean_linker_0, # of connection points: 2
#     Edge 28, Type (0, 0), BuildingBlock: UVAHIK_clean_linker_0, # of connection points: 2
#     Edge 29, Type (0, 0), BuildingBlock: UVAHIK_clean_linker_0, # of connection points: 2
#     Edge 30, Type (0, 0), BuildingBlock: UVAHIK_clean_linker_0, # of connection points: 2
#     Edge 31, Type (0, 0), BuildingBlock: UVAHIK_clean_linker_0, # of connection points: 2
#     Edge 32, Type (0, 0), BuildingBlock: UVAHIK_clean_linker_0, # of connection points: 2
#     Edge 33, Type (0, 0), BuildingBlock: UVAHIK_clean_linker_0, # of connection points: 2
#     Edge 34, Type (0, 0), BuildingBlock: UVAHIK_clean_linker_0, # of connection points: 2
#     Edge 35, Type (0, 0), BuildingBlock: UVAHIK_clean_linker_0, # of connection points: 2
# Relax obj value: 0.142
# Max RMSD: 0.325
# Mean RMSD: 0.313
data_MOF--net-uol--node1-KOZSID_clean_sbu_0--edge1-UVAHIK_clean_linker_0
_symmetry_space_group_name_H-M    P1
_symmetry_Int_Tables_number       1
_symmetry_cell_setting            triclinic
loop_
_symmetry_equiv_pos_as_xyz
'x, y, z'
_cell_length_a     51.819257
_cell_length_b     54.628244
_cell_length_c     84.32998
_cell_angle_alpha  90.032106
_cell_angle_beta   89.980917
_cell_angle_gamma 118.22762
loop_
_atom_site_label
_atom_site_type_symbol
_atom_site_fract_x
_atom_site_fract_y
_atom_site_fract_z
_atom_type_partial_charge
C0 C 0.17553 0.34194 0.08935 0.0
C1 C 0.16814 0.33135 0.0741 0.0
C2 C 0.13894 0.32354 0.0722 0.0
C3 C 0.13024 0.32988 0.08633 0.0
N4 N 0.1522 0.34125 0.09689 0.0
Co5 Co 0.14959 0.35305 0.11872 0.0
N6 N 0.1066 0.32887 0.11924 0.0
C7 C 0.08921 0.31804 0.10648 0.0
C8 C 0.06022 0.30233 0.11041 0.0
C9 C 0.05929 0.30364 0.12662 0.0
C10 C 0.08788 0.32032 0.13171 0.0
N11 N 0.14693 0.36513 0.14056 0.0
C12 C 0.12476 0.35382 0.15124 0.0
C13 C 0.13175 0.36983 0.16492 0.0
C14 C 0.15909 0.39199 0.16258 0.0
C15 C 0.1673 0.38837 0.14763 0.0
N16 N 0.19258 0.37702 0.11797 0.0
C17 C 0.20834 0.39891 0.1274 0.0
C18 C 0.23793 0.41032 0.12453 0.0
C19 C 0.24072 0.39451 0.11259 0.0
C20 C 0.2126 0.37435 0.1088 0.0
N21 N 0.14401 0.38388 0.11032 0.0
C22 C 0.14191 0.43263 0.1014 0.0
C23 C 0.16107 0.42482 0.09388 0.0
C24 C 0.1618 0.40048 0.0985 0.0
C25 C 0.12285 0.41469 0.11295 0.0
C26 C 0.12409 0.39045 0.11713 0.0
N27 N 0.15604 0.32295 0.12723 0.0
C28 C 0.18588 0.31035 0.14364 0.0
C29 C 0.1752 0.28464 0.13601 0.0
C30 C 0.15308 0.27766 0.1246 0.0
C31 C 0.14378 0.29716 0.12037 0.0
C32 C 0.17598 0.329 0.13917 0.0
H33 H 0.12768 0.2919 0.11108 0.0
H34 H 0.18572 0.34898 0.14489 0.0
H35 H 0.17752 0.39561 0.09287 0.0
H36 H 0.10947 0.37749 0.12626 0.0
C37 C 0.10124 0.31999 0.09134 0.0
C38 C 0.20491 0.35335 0.09622 0.0
C39 C 0.09595 0.32973 0.14818 0.0
C40 C 0.19523 0.40378 0.14079 0.0
H41 H 0.18228 0.32921 0.06538 0.0
H42 H 0.12536 0.31301 0.06208 0.0
H43 H 0.04202 0.29073 0.10249 0.0
H44 H 0.03971 0.29383 0.13382 0.0
H45 H 0.11828 0.36613 0.17538 0.0
H46 H 0.17171 0.40837 0.17093 0.0
H47 H 0.2555 0.42702 0.13098 0.0
H48 H 0.26108 0.39731 0.10748 0.0
H49 H 0.17626 0.43794 0.08491 0.0
H50 H 0.10721 0.41946 0.11887 0.0
H51 H 0.20245 0.31638 0.15279 0.0
H52 H 0.14405 0.25789 0.11849 0.0
C53 C 0.73238 0.15739 0.28881 0.0
C54 C 0.72341 0.17692 0.29271 0.0
C55 C 0.74443 0.1959 0.30246 0.0
C56 C 0.76511 0.18712 0.30388 0.0
N57 N 0.75855 0.16377 0.29565 0.0
Co58 Co 0.78375 0.14544 0.29384 0.0
N59 N 0.80766 0.16594 0.31264 0.0
C60 C 0.80742 0.18796 0.3197 0.0
C61 C 0.82534 0.19737 0.33271 0.0
C62 C 0.83824 0.18064 0.33376 0.0
C63 C 0.82765 0.16207 0.32117 0.0
N64 N 0.80928 0.12739 0.29188 0.0
C65 C 0.8306 0.12818 0.30162 0.0
C66 C 0.84414 0.11393 0.29497 0.0
C67 C 0.83124 0.10432 0.28053 0.0
C68 C 0.81063 0.1132 0.27911 0.0
N69 N 0.75927 0.12488 0.2752 0.0
C70 C 0.76631 0.11095 0.26435 0.0
C71 C 0.74476 0.09771 0.25325 0.0
C72 C 0.72283 0.10385 0.25726 0.0
C73 C 0.73235 0.12086 0.27054 0.0
N74 N 0.81097 0.17535 0.27966 0.0
C75 C 0.85227 0.21113 0.25741 0.0
C76 C 0.82202 0.20002 0.25465 0.0
C77 C 0.80174 0.1825 0.26603 0.0
C78 C 0.8611 0.20485 0.27181 0.0
C79 C 0.84038 0.18712 0.2826 0.0
N80 N 0.75742 0.11514 0.30793 0.0
C81 C 0.73484 0.06635 0.31442 0.0
C82 C 0.72848 0.07159 0.3298 0.0
C83 C 0.73563 0.09907 0.33372 0.0
C84 C 0.7497 0.12044 0.32256 0.0
C85 C 0.74929 0.08825 0.30378 0.0
H86 H 0.75522 0.14137 0.32597 0.0
H87 H 0.75494 0.08337 0.29238 0.0
H88 H 0.77866 0.17406 0.26355 0.0
H89 H 0.84859 0.18206 0.29301 0.0
C90 C 0.78815 0.19754 0.31471 0.0
C91 C 0.71619 0.13407 0.27791 0.0
C92 C 0.84139 0.14519 0.31606 0.0
C93 C 0.79073 0.10685 0.26661 0.0
H94 H 0.7038 0.17752 0.28887 0.0
H95 H 0.74413 0.21345 0.30825 0.0
H96 H 0.82859 0.21431 0.34053 0.0
H97 H 0.85468 0.18273 0.34235 0.0
H98 H 0.86212 0.11149 0.29983 0.0
H99 H 0.83632 0.09229 0.27207 0.0
H100 H 0.74442 0.08416 0.24379 0.0
H101 H 0.70217 0.09643 0.25111 0.0
H102 H 0.81409 0.20456 0.24375 0.0
H103 H 0.88408 0.21247 0.2745 0.0
H104 H 0.72995 0.04557 0.31082 0.0
H105 H 0.73071 0.10407 0.34539 0.0
C106 C 0.66169 0.81884 0.42686 0.0
C107 C 0.67402 0.82148 0.41194 0.0
C108 C 0.68377 0.80208 0.41111 0.0
C109 C 0.67688 0.78874 0.42552 0.0
N110 N 0.66341 0.79859 0.43527 0.0
Co111 Co 0.65043 0.78613 0.45722 0.0
N112 N 0.67749 0.77015 0.45918 0.0
C113 C 0.68993 0.76351 0.44706 0.0
C114 C 0.70764 0.75267 0.45207 0.0
C115 C 0.70599 0.75229 0.46832 0.0
C116 C 0.68719 0.76287 0.47234 0.0
N117 N 0.63717 0.77342 0.47913 0.0
C118 C 0.65007 0.76569 0.49064 0.0
C119 C 0.63285 0.75756 0.5042 0.0
C120 C 0.6083 0.76022 0.50091 0.0
C121 C 0.61181 0.76975 0.48557 0.0
N122 N 0.6236 0.80231 0.45512 0.0
C123 C 0.59969 0.79588 0.46398 0.0
C124 C 0.58608 0.81136 0.45992 0.0
C125 C 0.60258 0.82848 0.44778 0.0
C126 C 0.62539 0.82248 0.44513 0.0
N127 N 0.61959 0.7503 0.44919 0.0
C128 C 0.57151 0.69943 0.44025 0.0
C129 C 0.57798 0.72414 0.43216 0.0
C130 C 0.60202 0.74929 0.43682 0.0
C131 C 0.59045 0.70071 0.45248 0.0
C132 C 0.61428 0.72614 0.45668 0.0
N133 N 0.68068 0.82175 0.46542 0.0
C134 C 0.69398 0.86045 0.48311 0.0
C135 C 0.72226 0.87388 0.47676 0.0
C136 C 0.72942 0.86057 0.46462 0.0
C137 C 0.70839 0.83432 0.45925 0.0
C138 C 0.67357 0.83465 0.47723 0.0
H139 H 0.71441 0.82432 0.45 0.0
H140 H 0.65181 0.82532 0.48214 0.0
H141 H 0.60594 0.76806 0.43067 0.0
H142 H 0.62799 0.72627 0.46632 0.0
C143 C 0.68815 0.77179 0.43152 0.0
C144 C 0.64761 0.83497 0.43263 0.0
C145 C 0.67718 0.76365 0.48857 0.0
C146 C 0.59468 0.77985 0.47781 0.0
H147 H 0.67605 0.83606 0.40272 0.0
H148 H 0.69593 0.79922 0.40149 0.0
H149 H 0.72095 0.74665 0.44483 0.0
H150 H 0.71714 0.74484 0.47627 0.0
H151 H 0.63743 0.75024 0.51523 0.0
H152 H 0.59054 0.75654 0.50895 0.0
H153 H 0.56734 0.8113 0.46562 0.0
H154 H 0.59843 0.84367 0.44164 0.0
H155 H 0.56403 0.72428 0.42264 0.0
H156 H 0.58682 0.68217 0.45887 0.0
H157 H 0.68739 0.87016 0.49234 0.0
H158 H 0.75112 0.87025 0.45943 0.0
C159 C 0.86163 0.68618 0.58915 0.0
C160 C 0.86896 0.69591 0.57374 0.0
C161 C 0.89789 0.70266 0.57174 0.0
C162 C 0.90649 0.6966 0.58598 0.0
N163 N 0.88473 0.68646 0.5967 0.0
Co164 Co 0.8873 0.67535 0.61867 0.0
N165 N 0.93035 0.69866 0.61889 0.0
C166 C 0.9476 0.70773 0.60595 0.0
C167 C 0.97683 0.72207 0.60963 0.0
C168 C 0.97803 0.72177 0.62587 0.0
C169 C 0.94929 0.70731 0.63124 0.0
N170 N 0.89 0.66403 0.64068 0.0
C171 C 0.91209 0.67597 0.65138 0.0
C172 C 0.90429 0.66146 0.66561 0.0
C173 C 0.87686 0.63932 0.66347 0.0
C174 C 0.86918 0.64159 0.64817 0.0
N175 N 0.84419 0.65217 0.61818 0.0
C176 C 0.82815 0.63084 0.62789 0.0
C177 C 0.79858 0.61998 0.62514 0.0
C178 C 0.79611 0.63556 0.61297 0.0
C179 C 0.82439 0.65505 0.60893 0.0
N180 N 0.89181 0.64367 0.61071 0.0
C181 C 0.89329 0.5945 0.60204 0.0
C182 C 0.87424 0.60241 0.59449 0.0
C183 C 0.87382 0.62695 0.59899 0.0
C184 C 0.91239 0.61243 0.61357 0.0
C185 C 0.91144 0.63685 0.61765 0.0
N186 N 0.88194 0.70636 0.62677 0.0
C187 C 0.85339 0.72059 0.64316 0.0
C188 C 0.86464 0.74613 0.63532 0.0
C189 C 0.88636 0.75216 0.62377 0.0
C190 C 0.89472 0.73192 0.61965 0.0
C191 C 0.86233 0.7012 0.63879 0.0
H192 H 0.91056 0.73645 0.61029 0.0
H193 H 0.85215 0.68142 0.64471 0.0
H194 H 0.85826 0.63197 0.5933 0.0
H195 H 0.92613 0.64984 0.62675 0.0
C196 C 0.93543 0.70546 0.59082 0.0
C197 C 0.83242 0.67568 0.59613 0.0
C198 C 0.94112 0.69973 0.64794 0.0
C199 C 0.84111 0.62636 0.64146 0.0
H200 H 0.85494 0.69806 0.56496 0.0
H201 H 0.91138 0.71223 0.56143 0.0
H202 H 0.99508 0.73199 0.60152 0.0
H203 H 0.99786 0.73061 0.63289 0.0
H204 H 0.91693 0.66623 0.67643 0.0
H205 H 0.86364 0.62411 0.67226 0.0
H206 H 0.78085 0.60389 0.63183 0.0
H207 H 0.77587 0.63311 0.60789 0.0
H208 H 0.85898 0.58927 0.58554 0.0
H209 H 0.92793 0.60758 0.61952 0.0
H210 H 0.83709 0.71526 0.65241 0.0
H211 H 0.89582 0.77178 0.61749 0.0
C212 C 0.30827 0.87245 0.78906 0.0
C213 C 0.31655 0.85227 0.79249 0.0
C214 C 0.29536 0.83326 0.80215 0.0
C215 C 0.27528 0.8427 0.80399 0.0
N216 N 0.28237 0.86647 0.7961 0.0
Co217 Co 0.25805 0.88575 0.79493 0.0
N218 N 0.23446 0.86535 0.81385 0.0
C219 C 0.23393 0.84262 0.8204 0.0
C220 C 0.21567 0.83268 0.83323 0.0
C221 C 0.20336 0.84983 0.83473 0.0
C222 C 0.21481 0.86941 0.82264 0.0
N223 N 0.23331 0.90458 0.79346 0.0
C224 C 0.2125 0.90414 0.80345 0.0
C225 C 0.19978 0.91949 0.79732 0.0
C226 C 0.21241 0.92916 0.78283 0.0
C227 C 0.23221 0.91939 0.78094 0.0
N228 N 0.28252 0.90645 0.7763 0.0
C229 C 0.27585 0.92108 0.76574 0.0
C230 C 0.29739 0.93428 0.75462 0.0
C231 C 0.31893 0.92743 0.75832 0.0
C232 C 0.30919 0.91005 0.77144 0.0
N233 N 0.22975 0.85646 0.78067 0.0
C234 C 0.18621 0.82543 0.75803 0.0
C235 C 0.21618 0.83644 0.75439 0.0
C236 C 0.23757 0.85141 0.76597 0.0
C237 C 0.17895 0.82787 0.77372 0.0
C238 C 0.20065 0.84368 0.78459 0.0
N239 N 0.28521 0.91549 0.80907 0.0
C240 C 0.30801 0.96406 0.81611 0.0
C241 C 0.31425 0.95828 0.83139 0.0
C242 C 0.30711 0.93066 0.83493 0.0
C243 C 0.29296 0.90966 0.82354 0.0
C244 C 0.29357 0.94255 0.80524 0.0
H245 H 0.28726 0.88858 0.82669 0.0
H246 H 0.28796 0.94786 0.79396 0.0
H247 H 0.26033 0.86006 0.76271 0.0
H248 H 0.19313 0.8466 0.79588 0.0
C249 C 0.25241 0.83244 0.81492 0.0
C250 C 0.32488 0.89609 0.77845 0.0
C251 C 0.20196 0.88727 0.81796 0.0
C252 C 0.25187 0.92574 0.76832 0.0
H253 H 0.33584 0.85128 0.78841 0.0
H254 H 0.29519 0.81527 0.80763 0.0
H255 H 0.21164 0.81497 0.84057 0.0
H256 H 0.18669 0.84717 0.84328 0.0
H257 H 0.18262 0.92274 0.80261 0.0
H258 H 0.20784 0.94197 0.77471 0.0
H259 H 0.298 0.94828 0.74538 0.0
H260 H 0.33947 0.93462 0.75208 0.0
H261 H 0.22321 0.83471 0.74255 0.0
H262 H 0.15635 0.81861 0.77758 0.0
H263 H 0.31287 0.98495 0.81277 0.0
H264 H 0.31196 0.92522 0.84648 0.0
C265 C 0.37856 0.21163 0.92732 0.0
C266 C 0.36638 0.20894 0.91235 0.0
C267 C 0.35663 0.22833 0.91143 0.0
C268 C 0.36332 0.24168 0.92585 0.0
N269 N 0.37667 0.23185 0.93568 0.0
Co270 Co 0.38919 0.24422 0.95771 0.0
N271 N 0.36206 0.26017 0.95949 0.0
C272 C 0.3498 0.2668 0.94728 0.0
C273 C 0.33196 0.27757 0.95215 0.0
C274 C 0.33332 0.27794 0.96841 0.0
C275 C 0.35212 0.26745 0.97258 0.0
N276 N 0.40197 0.2568 0.9797 0.0
C277 C 0.38885 0.2645 0.99112 0.0
C278 C 0.4058 0.27256 0.00478 0.0
C279 C 0.4304 0.26989 1.00165 0.0
C280 C 0.42719 0.26042 0.9863 0.0
N281 N 0.41609 0.22809 0.95579 0.0
C282 C 0.43982 0.23449 0.9648 0.0
C283 C 0.45347 0.21898 0.96086 0.0
C284 C 0.43718 0.20187 0.94866 0.0
C285 C 0.41444 0.2079 0.94586 0.0
N286 N 0.42016 0.28012 0.94983 0.0
C287 C 0.46802 0.33111 0.94084 0.0
C288 C 0.46174 0.30639 0.9328 0.0
C289 C 0.43782 0.28118 0.93748 0.0
C290 C 0.44907 0.32975 0.95309 0.0
C291 C 0.42534 0.30426 0.95731 0.0
N292 N 0.3588 0.20852 0.96573 0.0
C293 C 0.34541 0.16917 0.98291 0.0
C294 C 0.31733 0.15569 0.97628 0.0
C295 C 0.31027 0.16946 0.96437 0.0
C296 C 0.33123 0.196 0.95938 0.0
C297 C 0.36573 0.19536 0.97745 0.0
H298 H 0.32533 0.20621 0.95021 0.0
H299 H 0.38735 0.2047 0.98254 0.0
H300 H 0.43404 0.26242 0.93136 0.0
H301 H 0.41156 0.30407 0.96693 0.0
C302 C 0.35189 0.25856 0.93177 0.0
C303 C 0.39249 0.19546 0.93322 0.0
C304 C 0.36186 0.26669 0.98887 0.0
C305 C 0.44451 0.25041 0.97865 0.0
H306 H 0.3644 0.19433 0.90316 0.0
H307 H 0.34455 0.23115 0.90176 0.0
H308 H 0.31873 0.28354 0.94481 0.0
H309 H 0.32196 0.28531 0.97626 0.0
H310 H 0.40103 0.27988 0.01576 0.0
H311 H 0.44801 0.27355 0.00979 0.0
H312 H 0.47208 0.21899 0.9667 0.0
H313 H 0.44141 0.18667 0.94259 0.0
H314 H 0.47572 0.3063 0.92328 0.0
H315 H 0.45257 0.34829 0.95945 0.0
H316 H 0.352 0.1592 0.99197 0.0
H317 H 0.28874 0.15984 0.95898 0.0
C318 C 0.58918 0.87338 0.71987 0.0
C319 C 0.5611 0.85349 0.71563 0.0
C320 C 0.56412 0.83491 0.70596 0.0
C321 C 0.59372 0.84428 0.70492 0.0
N322 N 0.60966 0.86764 0.71329 0.0
Co323 Co 0.65307 0.88673 0.71561 0.0
N324 N 0.65794 0.86707 0.6968 0.0
C325 C 0.63641 0.84448 0.68977 0.0
C326 C 0.64583 0.83502 0.67716 0.0
C327 C 0.6753 0.85237 0.67631 0.0
C328 C 0.68233 0.87158 0.68854 0.0
N329 N 0.69646 0.90562 0.71809 0.0
C330 C 0.71768 0.90618 0.70837 0.0
C331 C 0.7452 0.92145 0.71511 0.0
C332 C 0.74101 0.93009 0.72968 0.0
C333 C 0.71129 0.91979 0.73102 0.0
N334 N 0.64765 0.90631 0.73432 0.0
C335 C 0.66797 0.92017 0.74548 0.0
C336 C 0.65866 0.93264 0.75657 0.0
C337 C 0.63065 0.92609 0.75223 0.0
C338 C 0.62419 0.90961 0.73876 0.0
N339 N 0.65075 0.85671 0.7296 0.0
C340 C 0.65615 0.82032 0.75147 0.0
C341 C 0.63634 0.83071 0.75416 0.0
C342 C 0.63366 0.84857 0.74296 0.0
C343 C 0.67215 0.82773 0.73735 0.0
C344 C 0.66921 0.84575 0.72674 0.0
N345 N 0.65684 0.91714 0.70167 0.0
C346 C 0.68394 0.9659 0.69539 0.0
C347 C 0.67467 0.96079 0.67955 0.0
C348 C 0.65404 0.93351 0.67543 0.0
C349 C 0.64524 0.91205 0.6867 0.0
C350 C 0.67491 0.94398 0.70615 0.0
H351 H 0.63027 0.89114 0.68304 0.0
H352 H 0.68398 0.94876 0.7179 0.0
H353 H 0.61847 0.85643 0.74536 0.0
H354 H 0.68313 0.8516 0.71655 0.0
C355 C 0.60731 0.83428 0.69443 0.0
C356 C 0.59523 0.89623 0.73097 0.0
C357 C 0.71263 0.88988 0.6937 0.0
C358 C 0.69684 0.92517 0.74347 0.0
H359 H 0.54051 0.85235 0.71923 0.0
H360 H 0.54683 0.81718 0.70001 0.0
H361 H 0.63284 0.81759 0.66949 0.0
H362 H 0.69001 0.85018 0.66802 0.0
H363 H 0.76606 0.92525 0.71018 0.0
H364 H 0.75768 0.94257 0.73821 0.0
H365 H 0.67121 0.94605 0.76623 0.0
H366 H 0.61679 0.93294 0.75827 0.0
H367 H 0.62325 0.82533 0.76486 0.0
H368 H 0.68807 0.82072 0.73475 0.0
H369 H 0.69899 0.98668 0.69939 0.0
H370 H 0.64589 0.92843 0.66341 0.0
C371 C 0.84716 0.68568 0.91815 0.0
C372 C 0.84962 0.69557 0.93354 0.0
C373 C 0.82789 0.70298 0.9354 0.0
C374 C 0.8134 0.69711 0.92112 0.0
N375 N 0.82466 0.68642 0.91049 0.0
Co376 Co 0.8111 0.67539 0.88847 0.0
N377 N 0.79175 0.69917 0.88812 0.0
C378 C 0.78445 0.70926 0.90096 0.0
C379 C 0.77091 0.72481 0.89715 0.0
C380 C 0.76927 0.72418 0.88092 0.0
C381 C 0.78179 0.70805 0.8757 0.0
N382 N 0.79732 0.66417 0.86642 0.0
C383 C 0.78658 0.67572 0.85581 0.0
C384 C 0.77834 0.66034 0.84189 0.0
C385 C 0.78389 0.63832 0.844 0.0
C386 C 0.79516 0.64139 0.85906 0.0
N387 N 0.83057 0.65174 0.88908 0.0
C388 C 0.82511 0.63032 0.87937 0.0
C389 C 0.84348 0.61908 0.88219 0.0
C390 C 0.8615 0.63449 0.89439 0.0
C391 C 0.853 0.65425 0.89841 0.0
N392 N 0.77467 0.64397 0.89636 0.0
C393 C 0.72376 0.59504 0.90493 0.0
C394 C 0.75061 0.60273 0.91255 0.0
C395 C 0.77568 0.62714 0.9081 0.0
C396 C 0.72285 0.61311 0.89339 0.0
C397 C 0.74835 0.63742 0.88938 0.0
N398 N 0.84768 0.70613 0.8805 0.0
C399 C 0.89118 0.72015 0.86476 0.0
C400 C 0.90483 0.74593 0.87238 0.0
C401 C 0.88859 0.75211 0.88351 0.0
C402 C 0.86001 0.73184 0.88745 0.0
C403 C 0.86266 0.70078 0.86884 0.0
H404 H 0.84835 0.73651 0.89655 0.0
H405 H 0.85329 0.68089 0.86302 0.0
H406 H 0.79614 0.63195 0.91385 0.0
H407 H 0.74683 0.65053 0.88029 0.0
C408 C 0.79412 0.70684 0.91612 0.0
C409 C 0.86562 0.67475 0.91129 0.0
C410 C 0.78121 0.6994 0.85913 0.0
C411 C 0.80768 0.62591 0.8658 0.0
H412 H 0.8656 0.69748 0.94238 0.0
H413 H 0.82424 0.71294 0.94562 0.0
H414 H 0.76375 0.73588 0.90516 0.0
H415 H 0.75949 0.73408 0.87378 0.0
H416 H 0.76883 0.66434 0.83143 0.0
H417 H 0.78072 0.62237 0.83544 0.0
H418 H 0.84491 0.60283 0.87553 0.0
H419 H 0.87909 0.63174 0.89951 0.0
H420 H 0.75254 0.58949 0.9215 0.0
H421 H 0.70257 0.60845 0.88739 0.0
H422 H 0.90273 0.71472 0.85588 0.0
H423 H 0.89833 0.77191 0.88961 0.0
C424 C 0.18462 0.81753 0.07914 0.0
C425 C 0.17607 0.81969 0.09445 0.0
C426 C 0.14697 0.80047 0.0957 0.0
C427 C 0.13946 0.78761 0.08116 0.0
N428 N 0.16206 0.79756 0.07094 0.0
Co429 Co 0.16111 0.78503 0.04888 0.0
N430 N 0.11805 0.76943 0.04773 0.0
C431 C 0.09979 0.76289 0.06022 0.0
C432 C 0.07098 0.75219 0.05578 0.0
C433 C 0.07118 0.75176 0.03951 0.0
C434 C 0.10023 0.76218 0.0349 0.0
N435 N 0.16011 0.77217 0.02682 0.0
C436 C 0.13875 0.76445 0.01572 0.0
C437 C 0.14687 0.75616 1.00187 0.0
C438 C 0.1742 0.75869 0.00453 0.0
C439 C 0.18124 0.7683 0.01981 0.0
N440 N 0.20421 0.8009 0.0502 0.0
C441 C 0.22099 0.79457 0.04065 0.0
C442 C 0.25035 0.81058 0.04375 0.0
C443 C 0.25196 0.82792 0.05598 0.0
C444 C 0.22336 0.82134 0.05983 0.0
N445 N 0.15629 0.74909 0.05663 0.0
C446 C 0.15289 0.69791 0.06553 0.0
C447 C 0.17196 0.72266 0.07333 0.0
C448 C 0.17338 0.74796 0.06869 0.0
C449 C 0.1349 0.69936 0.05355 0.0
C450 C 0.1368 0.72495 0.04937 0.0
N451 N 0.16629 0.82079 0.04097 0.0
C452 C 0.19094 0.85947 0.02319 0.0
C453 C 0.17699 0.87331 0.03016 0.0
C454 C 0.15729 0.86018 0.04262 0.0
C455 C 0.15197 0.83374 0.04772 0.0
C456 C 0.18549 0.83348 0.02881 0.0
H457 H 0.13658 0.82391 0.05725 0.0
H458 H 0.19729 0.82387 0.02343 0.0
H459 H 0.18881 0.76672 0.07463 0.0
H460 H 0.12283 0.72519 0.03998 0.0
C461 C 0.11086 0.7709 0.07563 0.0
C462 C 0.21445 0.83375 0.0729 0.0
C463 C 0.10984 0.76261 0.01844 0.0
C464 C 0.20894 0.77846 0.02696 0.0
H465 H 0.18939 0.83377 0.10367 0.0
H466 H 0.1327 0.79735 0.10573 0.0
H467 H 0.05216 0.74619 0.06342 0.0
H468 H 0.0521 0.7443 0.03193 0.0
H469 H 0.13427 0.74884 0.99106 0.0
H470 H 0.1877 0.7549 0.99612 0.0
H471 H 0.26852 0.81092 0.03724 0.0
H472 H 0.27196 0.84383 0.06115 0.0
H473 H 0.18636 0.72266 0.08263 0.0
H474 H 0.11941 0.68081 0.04737 0.0
H475 H 0.20663 0.869 0.01369 0.0
H476 H 0.14597 0.87017 0.0483 0.0
C477 C 0.45232 0.15507 0.21925 0.0
C478 C 0.48075 0.17475 0.21545 0.0
C479 C 0.47859 0.19337 0.20544 0.0
C480 C 0.44913 0.18424 0.20379 0.0
N481 N 0.43246 0.16103 0.21213 0.0
Co482 Co 0.38895 0.14245 0.21375 0.0
N483 N 0.38551 0.16205 0.1945 0.0
C484 C 0.40772 0.18389 0.18733 0.0
C485 C 0.39918 0.19322 0.17431 0.0
C486 C 0.36957 0.17663 0.17334 0.0
C487 C 0.36159 0.15802 0.18593 0.0
N488 N 0.34551 0.12455 0.21574 0.0
C489 C 0.32504 0.12523 0.20596 0.0
C490 C 0.29722 0.11084 0.2125 0.0
C491 C 0.30047 0.10153 0.22704 0.0
C492 C 0.32995 0.11058 0.22855 0.0
N493 N 0.3929 0.12223 0.23258 0.0
C494 C 0.37186 0.10819 0.24336 0.0
C495 C 0.38025 0.09517 0.25458 0.0
C496 C 0.40842 0.10151 0.25071 0.0
C497 C 0.41586 0.11841 0.23739 0.0
N498 N 0.39106 0.17272 0.22761 0.0
C499 C 0.37891 0.2045 0.24996 0.0
C500 C 0.39718 0.19282 0.25386 0.0
C501 C 0.40347 0.17752 0.24242 0.0
C502 C 0.36994 0.20249 0.23415 0.0
C503 C 0.37569 0.18636 0.22341 0.0
N504 N 0.38532 0.11183 0.20003 0.0
C505 C 0.35743 0.06338 0.19311 0.0
C506 C 0.37078 0.0681 0.17815 0.0
C507 C 0.39295 0.09521 0.17481 0.0
C508 C 0.39989 0.1167 0.18589 0.0
C509 C 0.36518 0.08523 0.20382 0.0
H510 H 0.41629 0.13741 0.18277 0.0
H511 H 0.3537 0.08063 0.21493 0.0
H512 H 0.41706 0.1684 0.2459 0.0
H513 H 0.36587 0.18392 0.21199 0.0
C514 C 0.43647 0.19401 0.19258 0.0
C515 C 0.44529 0.1318 0.23015 0.0
C516 C 0.33109 0.14159 0.19129 0.0
C517 C 0.3434 0.10418 0.24109 0.0
H518 H 0.501 0.17562 0.21947 0.0
H519 H 0.49637 0.21085 0.19959 0.0
H520 H 0.41279 0.21023 0.16653 0.0
H521 H 0.35539 0.17909 0.16482 0.0
H522 H 0.2768 0.10804 0.20744 0.0
H523 H 0.28335 0.08944 0.23544 0.0
H524 H 0.36706 0.0817 0.26406 0.0
H525 H 0.42177 0.09435 0.25698 0.0
H526 H 0.40542 0.19425 0.2658 0.0
H527 H 0.35724 0.21231 0.23011 0.0
H528 H 0.33999 0.04316 0.19642 0.0
H529 H 0.40458 0.10001 0.16363 0.0
C530 C 0.19372 0.34245 0.41981 0.0
C531 C 0.19193 0.33228 0.43509 0.0
C532 C 0.21461 0.32615 0.4367 0.0
C533 C 0.2288 0.33267 0.42235 0.0
N534 N 0.2164 0.34247 0.41186 0.0
Co535 Co 0.22899 0.35326 0.38966 0.0
N536 N 0.2499 0.33092 0.38923 0.0
C537 C 0.25893 0.32235 0.40204 0.0
C538 C 0.27425 0.30846 0.39818 0.0
C539 C 0.2751 0.30849 0.38193 0.0
C540 C 0.26004 0.32235 0.37675 0.0
N541 N 0.24209 0.36442 0.36749 0.0
C542 C 0.25239 0.35274 0.35669 0.0
C543 C 0.2583 0.36702 0.3424 0.0
C544 C 0.25226 0.38872 0.34458 0.0
C545 C 0.24272 0.38645 0.35997 0.0
N546 N 0.20782 0.37533 0.39026 0.0
C547 C 0.21208 0.3963 0.38047 0.0
C548 C 0.19326 0.40693 0.38359 0.0
C549 C 0.17622 0.39159 0.39611 0.0
C550 C 0.18558 0.37238 0.39989 0.0
N551 N 0.26485 0.38574 0.39719 0.0
C552 C 0.31507 0.4355 0.40545 0.0
C553 C 0.28822 0.42732 0.41318 0.0
C554 C 0.26346 0.4025 0.40887 0.0
C555 C 0.31634 0.41758 0.39392 0.0
C556 C 0.29119 0.39289 0.39005 0.0
N557 N 0.19302 0.32138 0.38195 0.0
C558 C 0.15148 0.30413 0.36436 0.0
C559 C 0.13826 0.27875 0.37236 0.0
C560 C 0.1533 0.27478 0.3851 0.0
C561 C 0.18096 0.29623 0.38953 0.0
C562 C 0.17852 0.32515 0.36941 0.0
H563 H 0.19225 0.29277 0.39932 0.0
H564 H 0.1872 0.3448 0.36339 0.0
H565 H 0.24296 0.39723 0.41472 0.0
H566 H 0.293 0.37991 0.38096 0.0
C567 C 0.24923 0.32443 0.41724 0.0
C568 C 0.17443 0.35276 0.41322 0.0
C569 C 0.25847 0.32943 0.36007 0.0
C570 C 0.22926 0.4011 0.36676 0.0
H571 H 0.17583 0.3292 0.4441 0.0
H572 H 0.21908 0.31653 0.44681 0.0
H573 H 0.2832 0.29892 0.40619 0.0
H574 H 0.28612 0.29982 0.37477 0.0
H575 H 0.2661 0.36234 0.33151 0.0
H576 H 0.25346 0.40361 0.33576 0.0
H577 H 0.19111 0.42291 0.37706 0.0
H578 H 0.15889 0.39414 0.40176 0.0
H579 H 0.28603 0.44044 0.42213 0.0
H580 H 0.33665 0.42262 0.38783 0.0
H581 H 0.14045 0.30811 0.35456 0.0
H582 H 0.14377 0.25532 0.39154 0.0
C583 C 0.85709 0.21145 0.57978 0.0
C584 C 0.86669 0.2095 0.59485 0.0
C585 C 0.89555 0.22954 0.59575 0.0
C586 C 0.90187 0.24257 0.58124 0.0
N587 N 0.87875 0.23192 0.57138 0.0
Co588 Co 0.87808 0.24369 0.54931 0.0
N589 N 0.92111 0.26026 0.54749 0.0
C590 C 0.94006 0.26807 0.55971 0.0
C591 C 0.96873 0.28002 0.55486 0.0
C592 C 0.96767 0.27987 0.53859 0.0
C593 C 0.93825 0.26765 0.53439 0.0
N594 N 0.87743 0.25568 0.52721 0.0
C595 C 0.89802 0.26299 0.51568 0.0
C596 C 0.88803 0.26907 0.50171 0.0
C597 C 0.86068 0.26615 0.50485 0.0
C598 C 0.85525 0.25818 0.52046 0.0
N599 N 0.83503 0.22693 0.55135 0.0
C600 C 0.81725 0.23258 0.54224 0.0
C601 C 0.78822 0.21657 0.54619 0.0
C602 C 0.78795 0.19991 0.55851 0.0
C603 C 0.81692 0.20676 0.56141 0.0
N604 N 0.88227 0.27948 0.55694 0.0
C605 C 0.88486 0.33036 0.5658 0.0
C606 C 0.86681 0.30569 0.57397 0.0
C607 C 0.86578 0.28054 0.56935 0.0
C608 C 0.90225 0.32899 0.55345 0.0
C609 C 0.90075 0.30356 0.54928 0.0
N610 N 0.87353 0.20808 0.54154 0.0
C611 C 0.84824 0.16829 0.52457 0.0
C612 C 0.86338 0.1554 0.53131 0.0
C613 C 0.8841 0.16965 0.54317 0.0
C614 C 0.8891 0.19613 0.54799 0.0
C615 C 0.85348 0.1944 0.52988 0.0
H616 H 0.90519 0.20677 0.5571 0.0
H617 H 0.84077 0.20325 0.52474 0.0
H618 H 0.85115 0.26181 0.57559 0.0
H619 H 0.91422 0.30337 0.53959 0.0
C620 C 0.92997 0.2601 0.57529 0.0
C621 C 0.8271 0.19469 0.57396 0.0
C622 C 0.92758 0.26588 0.51803 0.0
C623 C 0.82801 0.24793 0.52819 0.0
H624 H 0.85421 0.19503 0.60412 0.0
H625 H 0.91049 0.2331 0.6055 0.0
H626 H 0.98808 0.28732 0.56222 0.0
H627 H 0.98643 0.28826 0.53075 0.0
H628 H 0.89913 0.2749 0.4904 0.0
H629 H 0.84601 0.26831 0.49652 0.0
H630 H 0.76938 0.21582 0.54022 0.0
H631 H 0.76871 0.18434 0.56449 0.0
H632 H 0.85288 0.30562 0.58357 0.0
H633 H 0.91699 0.34749 0.54697 0.0
H634 H 0.83173 0.15791 0.51555 0.0
H635 H 0.89638 0.16045 0.54864 0.0
C636 C 0.15047 0.65243 0.05736 0.0
C637 C 0.15216 0.67086 0.06949 0.0
C638 C 0.14968 0.62703 0.06093 0.0
C639 C 0.13162 0.57509 0.09294 0.0
H640 H 0.17733 0.55 0.06786 0.0
C641 C 0.14058 0.47636 0.10987 0.0
C642 C 0.14248 0.4597 0.09767 0.0
C643 C 0.14184 0.50205 0.10652 0.0
C644 C 0.16403 0.55638 0.07486 0.0
H645 H 0.15421 0.6767 0.09496 0.0
H646 H 0.15278 0.63231 0.10121 0.0
H647 H 0.17942 0.59457 0.06197 0.0
H648 H 0.1467 0.45706 0.07225 0.0
H649 H 0.14828 0.50145 0.06632 0.0
H650 H 0.11578 0.53678 0.10567 0.0
C651 C 0.15199 0.63755 0.0889 0.0
C652 C 0.16534 0.58209 0.0715 0.0
C653 C 0.15308 0.66313 0.08531 0.0
C654 C 0.1455 0.46943 0.08197 0.0
C655 C 0.14652 0.49504 0.07859 0.0
C656 C 0.13011 0.54926 0.09622 0.0
C657 C 0.15033 0.61915 0.07674 0.0
C658 C 0.14916 0.59184 0.08048 0.0
C659 C 0.14482 0.51185 0.09082 0.0
C660 C 0.14631 0.53945 0.08725 0.0
H661 H 0.15005 0.65777 0.04503 0.0
H662 H 0.14816 0.61335 0.05126 0.0
H663 H 0.11853 0.5817 0.09997 0.0
H664 H 0.13877 0.46983 0.12213 0.0
H665 H 0.14104 0.51445 0.11633 0.0
C666 C 0.66341 0.12143 0.28336 0.0
C667 C 0.68622 0.12844 0.27236 0.0
C668 C 0.63647 0.11957 0.27878 0.0
C669 C 0.6012 0.13918 0.24515 0.0
H670 H 0.53029 0.09437 0.26898 0.0
C671 C 0.48549 0.11934 0.22449 0.0
C672 C 0.46967 0.12616 0.23563 0.0
C673 C 0.51087 0.1179 0.22894 0.0
C674 C 0.54993 0.10703 0.26223 0.0
H675 H 0.69848 0.1394 0.24783 0.0
H676 H 0.65111 0.13392 0.23947 0.0
H677 H 0.57568 0.09406 0.27623 0.0
H678 H 0.46863 0.13721 0.26021 0.0
H679 H 0.51192 0.133 0.26818 0.0
H680 H 0.57475 0.15112 0.23078 0.0
C681 C 0.65397 0.13062 0.25185 0.0
C682 C 0.57624 0.1071 0.26645 0.0
C683 C 0.68115 0.13313 0.25655 0.0
C684 C 0.47961 0.13092 0.25144 0.0
C685 C 0.50461 0.1288 0.25597 0.0
C686 C 0.57475 0.13856 0.24072 0.0
C687 C 0.63117 0.12428 0.26292 0.0
C688 C 0.60254 0.12337 0.25808 0.0
C689 C 0.52088 0.12275 0.24472 0.0
C690 C 0.54881 0.12265 0.24926 0.0
H691 H 0.66682 0.11825 0.29571 0.0
H692 H 0.62019 0.11528 0.28789 0.0
H693 H 0.62068 0.15263 0.23852 0.0
H694 H 0.47869 0.11599 0.21219 0.0
H695 H 0.52283 0.11315 0.21998 0.0
C696 C 0.53622 0.66466 0.42056 0.0
C697 C 0.54486 0.67262 0.43637 0.0
C698 C 0.51139 0.63932 0.41706 0.0
C699 C 0.44205 0.58507 0.43465 0.0
H700 H 0.44512 0.53875 0.40067 0.0
C701 C 0.3483 0.47268 0.42469 0.0
C702 C 0.34137 0.46277 0.40904 0.0
C703 C 0.37298 0.49826 0.42795 0.0
C704 C 0.44361 0.55152 0.41007 0.0
H705 H 0.53348 0.66017 0.46088 0.0
H706 H 0.49046 0.61615 0.4548 0.0
H707 H 0.48779 0.58332 0.4062 0.0
H708 H 0.35483 0.47261 0.38451 0.0
H709 H 0.39735 0.51714 0.39011 0.0
H710 H 0.39783 0.55356 0.43844 0.0
C711 C 0.50285 0.62948 0.44508 0.0
C712 C 0.46821 0.57716 0.41325 0.0
C713 C 0.52777 0.65465 0.44856 0.0
C714 C 0.35972 0.47927 0.39674 0.0
C715 C 0.38425 0.5049 0.39998 0.0
C716 C 0.41737 0.55953 0.4314 0.0
C717 C 0.49432 0.62137 0.42928 0.0
C718 C 0.46784 0.59427 0.42564 0.0
C719 C 0.39136 0.51483 0.41564 0.0
C720 C 0.41775 0.54226 0.41908 0.0
H721 H 0.5489 0.67786 0.41086 0.0
H722 H 0.50538 0.63391 0.40476 0.0
H723 H 0.44075 0.59783 0.44413 0.0
H724 H 0.33491 0.46044 0.43449 0.0
H725 H 0.37785 0.5048 0.44019 0.0
C726 C 0.89477 0.55082 0.61047 0.0
C727 C 0.89268 0.56741 0.59828 0.0
C728 C 0.89373 0.52523 0.60707 0.0
C729 C 0.90493 0.48534 0.57464 0.0
H730 H 0.85961 0.42164 0.6015 0.0
C731 C 0.88597 0.37528 0.55767 0.0
C732 C 0.8852 0.35724 0.56979 0.0
C733 C 0.88663 0.40063 0.56125 0.0
C734 C 0.87274 0.43924 0.59397 0.0
H735 H 0.88814 0.56993 0.57287 0.0
H736 H 0.88631 0.52532 0.56694 0.0
H737 H 0.86148 0.46613 0.60746 0.0
H738 H 0.88462 0.35203 0.59528 0.0
H739 H 0.88625 0.39639 0.60157 0.0
H740 H 0.91658 0.45872 0.56127 0.0
C741 C 0.88885 0.53218 0.57916 0.0
C742 C 0.87375 0.46483 0.59739 0.0
C743 C 0.88963 0.55769 0.58257 0.0
C744 C 0.88491 0.36524 0.58563 0.0
C745 C 0.88578 0.39073 0.58923 0.0
C746 C 0.9041 0.45983 0.57128 0.0
C747 C 0.89079 0.51554 0.59136 0.0
C748 C 0.88979 0.48824 0.58775 0.0
C749 C 0.88674 0.4089 0.57709 0.0
C750 C 0.8879 0.4363 0.58085 0.0
H751 H 0.89679 0.55742 0.62272 0.0
H752 H 0.89555 0.51316 0.61677 0.0
H753 H 0.91789 0.50297 0.56709 0.0
H754 H 0.88565 0.36964 0.54533 0.0
H755 H 0.88667 0.41358 0.55153 0.0
C756 C 0.55474 0.90826 0.72505 0.0
C757 C 0.57026 0.90118 0.73625 0.0
C758 C 0.52931 0.90974 0.72938 0.0
C759 C 0.49022 0.92055 0.76277 0.0
H760 H 0.41962 0.87699 0.73849 0.0
C761 C 0.37732 0.90757 0.78391 0.0
C762 C 0.35476 0.90145 0.77287 0.0
C763 C 0.40408 0.90905 0.77928 0.0
C764 C 0.43909 0.88988 0.74529 0.0
H765 H 0.57051 0.88942 0.76075 0.0
H766 H 0.52717 0.89367 0.76853 0.0
H767 H 0.46523 0.87777 0.73075 0.0
H768 H 0.34274 0.89165 0.74822 0.0
H769 H 0.38985 0.89648 0.73981 0.0
H770 H 0.46482 0.9337 0.77695 0.0
C771 C 0.53478 0.89811 0.75638 0.0
C772 C 0.46535 0.89008 0.74085 0.0
C773 C 0.5598 0.89594 0.75195 0.0
C774 C 0.3599 0.89726 0.75697 0.0
C775 C 0.38691 0.89938 0.75224 0.0
C776 C 0.46413 0.92091 0.767 0.0
C777 C 0.51894 0.90464 0.7451 0.0
C778 C 0.49122 0.90522 0.7496 0.0
C779 C 0.40945 0.90485 0.76333 0.0
C780 C 0.43788 0.90536 0.75844 0.0
H781 H 0.56193 0.91196 0.71282 0.0
H782 H 0.51769 0.91484 0.72041 0.0
H783 H 0.50982 0.93265 0.76968 0.0
H784 H 0.37384 0.91032 0.79631 0.0
H785 H 0.42013 0.91265 0.78841 0.0
C786 C 0.51157 0.37621 0.94896 0.0
C787 C 0.49446 0.35803 0.93685 0.0
C788 C 0.53632 0.40146 0.94537 0.0
C789 C 0.57033 0.45353 0.91338 0.0
H790 H 0.64111 0.47765 0.93827 0.0
C791 C 0.67853 0.55156 0.89641 0.0
C792 C 0.69717 0.56805 0.90863 0.0
C793 C 0.65397 0.526 0.89975 0.0
C794 C 0.62145 0.47155 0.93132 0.0
H795 H 0.49017 0.35251 0.91136 0.0
H796 H 0.53337 0.39659 0.90507 0.0
H797 H 0.5984 0.43335 0.94417 0.0
H798 H 0.70401 0.57048 0.93405 0.0
H799 H 0.66102 0.5263 0.93993 0.0
H800 H 0.59311 0.49185 0.90068 0.0
C801 C 0.52752 0.39129 0.9174 0.0
C802 C 0.5969 0.44598 0.93469 0.0
C803 C 0.50288 0.36586 0.921 0.0
C804 C 0.69041 0.55825 0.9243 0.0
C805 C 0.6657 0.53276 0.92766 0.0
C806 C 0.59482 0.47921 0.91008 0.0
C807 C 0.54464 0.40944 0.92954 0.0
C808 C 0.57096 0.43659 0.92578 0.0
C809 C 0.6471 0.51613 0.91543 0.0
C810 C 0.62082 0.48867 0.91899 0.0
H811 H 0.50602 0.3708 0.9613 0.0
H812 H 0.54875 0.41494 0.95504 0.0
H813 H 0.55065 0.44721 0.9064 0.0
H814 H 0.68327 0.55814 0.88416 0.0
H815 H 0.64068 0.51373 0.88993 0.0
C816 C 0.29739 0.14441 0.17053 0.0
C817 C 0.30933 0.1505 0.18587 0.0
C818 C 0.27998 0.15598 0.16496 0.0
C819 C 0.26758 0.21649 0.17252 0.0
H820 H 0.20175 0.17928 0.1439 0.0
C821 C 0.21918 0.27795 0.1405 0.0
C822 C 0.18854 0.26635 0.13962 0.0
C823 C 0.23229 0.26197 0.14533 0.0
C824 C 0.21996 0.18991 0.15197 0.0
H825 H 0.31156 0.17241 0.20763 0.0
H826 H 0.28067 0.1919 0.1982 0.0
H827 H 0.22629 0.154 0.15459 0.0
H828 H 0.14765 0.22844 0.14245 0.0
H829 H 0.1706 0.20033 0.15111 0.0
H830 H 0.26116 0.25217 0.17021 0.0
C831 C 0.28514 0.17878 0.19026 0.0
C832 C 0.23423 0.17549 0.15798 0.0
C833 C 0.3026 0.16738 0.19575 0.0
C834 C 0.17131 0.23794 0.14302 0.0
C835 C 0.18449 0.22187 0.14796 0.0
C836 C 0.2534 0.23083 0.16654 0.0
C837 C 0.27417 0.17384 0.17465 0.0
C838 C 0.25828 0.18862 0.16834 0.0
C839 C 0.21517 0.23389 0.14952 0.0
C840 C 0.22953 0.21788 0.15608 0.0
H841 H 0.30242 0.13154 0.16268 0.0
H842 H 0.27212 0.15184 0.15286 0.0
H843 H 0.28624 0.22753 0.18025 0.0
H844 H 0.23311 0.29962 0.13761 0.0
H845 H 0.25596 0.27179 0.14591 0.0
C846 C 0.87941 0.13718 0.33074 0.0
C847 C 0.87217 0.15426 0.32135 0.0
C848 C 0.90828 0.14682 0.33617 0.0
C849 C 0.98503 0.20271 0.32876 0.0
H850 H 0.99955 0.18564 0.37136 0.0
C851 C 0.10315 0.24798 0.35177 0.0
C852 C 0.10848 0.25738 0.36752 0.0
C853 C 0.07454 0.23129 0.34638 0.0
C854 C 0.99594 0.1908 0.35946 0.0
H855 H 0.88931 0.19464 0.31021 0.0
H856 H 0.93897 0.21164 0.31983 0.0
H857 H 0.94943 0.16513 0.36136 0.0
H858 H 0.08819 0.25624 0.39011 0.0
H859 H 0.03803 0.22779 0.38066 0.0
H860 H 0.03104 0.22949 0.32703 0.0
C861 C 0.9229 0.1906 0.32281 0.0
C862 C 0.96713 0.17868 0.35363 0.0
C863 C 0.89428 0.18094 0.31735 0.0
C864 C 0.08467 0.24893 0.37795 0.0
C865 C 0.0559 0.23258 0.37249 0.0
C866 C 1.01368 0.21499 0.33461 0.0
C867 C 0.93044 0.17377 0.33231 0.0
C868 C 0.96121 0.18478 0.33825 0.0
C869 C 0.05034 0.22406 0.3565 0.0
C870 C 1.01966 0.20945 0.3501 0.0
H871 H 0.86271 0.11652 0.33397 0.0
H872 H 0.91323 0.13311 0.34331 0.0
H873 H 0.9816 0.20759 0.31676 0.0
H874 H 0.12118 0.25417 0.3435 0.0
H875 H 0.07142 0.22458 0.33412 0.0
C876 C 0.85055 0.10591 0.53748 0.0
C877 C 0.85644 0.12686 0.52622 0.0
C878 C 0.84047 0.07831 0.53265 0.0
C879 C 0.83363 0.03361 0.49802 0.0
H880 H 0.76462 0.97898 0.51993 0.0
C881 C 0.75841 0.92407 0.47208 0.0
C882 C 0.74352 0.90192 0.48266 0.0
C883 C 0.77559 0.95115 0.47779 0.0
C884 C 0.78422 0.99374 0.51382 0.0
H885 H 0.85786 0.13559 0.50108 0.0
H886 H 0.84046 0.08757 0.49267 0.0
H887 H 0.78919 0.02667 0.52938 0.0
H888 H 0.73631 0.8904 0.50746 0.0
H889 H 0.76693 0.93726 0.51744 0.0
H890 H 0.82863 1.00068 0.48242 0.0
C891 C 0.84354 0.09236 0.50521 0.0
C892 C 0.7983 0.02119 0.51926 0.0
C893 C 0.85331 0.11985 0.51003 0.0
C894 C 0.74724 0.90716 0.49903 0.0
C895 C 0.76465 0.93409 0.50474 0.0
C896 C 0.81968 1.00605 0.49264 0.0
C897 C 0.83639 0.07115 0.51647 0.0
C898 C 0.82298 0.04155 0.51133 0.0
C899 C 0.77851 0.95663 0.49422 0.0
C900 C 0.79457 0.98575 0.50037 0.0
H901 H 0.85256 0.11064 0.55004 0.0
H902 H 0.83541 0.06249 0.54161 0.0
H903 H 0.85278 0.04875 0.49174 0.0
H904 H 0.7557 0.92066 0.4594 0.0
H905 H 0.7856 0.96791 0.46929 0.0
C906 C 0.87029 0.79352 0.64232 0.0
C907 C 0.85227 0.76522 0.63893 0.0
C908 C 0.85799 0.81021 0.64756 0.0
C909 C 0.79086 0.80275 0.66743 0.0
H910 H 0.81795 0.87955 0.65545 0.0
C911 C 0.7437 0.86663 0.69799 0.0
C912 C 0.73568 0.8827 0.6882 0.0
C913 C 0.7614 0.85569 0.6922 0.0
C914 C 0.81007 0.85809 0.65888 0.0
H915 H 0.80721 0.73285 0.63716 0.0
H916 H 0.7859 0.76172 0.64601 0.0
H917 H 0.84136 0.85368 0.64401 0.0
H918 H 0.74076 0.90088 0.6649 0.0
H919 H 0.77158 0.88147 0.65459 0.0
H920 H 0.75924 0.80664 0.68195 0.0
C921 C 0.80952 0.77097 0.64517 0.0
C922 C 0.82367 0.84334 0.65242 0.0
C923 C 0.82174 0.75441 0.64003 0.0
C924 C 0.74686 0.88871 0.6727 0.0
C925 C 0.76451 0.8776 0.66683 0.0
C926 C 0.77741 0.81742 0.67387 0.0
C927 C 0.82743 0.79889 0.64944 0.0
C928 C 0.81401 0.81535 0.65651 0.0
C929 C 0.77132 0.86027 0.67639 0.0
C930 C 0.78671 0.84528 0.66969 0.0
H931 H 0.89389 0.80243 0.64158 0.0
H932 H 0.87245 0.83162 0.65073 0.0
H933 H 0.78308 0.7814 0.67107 0.0
H934 H 0.73531 0.86161 0.70998 0.0
H935 H 0.76667 0.84298 0.70003 0.0
C936 C 0.94562 0.79296 0.86445 0.0
C937 C 0.93624 0.76531 0.86908 0.0
C938 C 0.97492 0.81015 0.86006 0.0
C939 C 0.04987 0.81826 0.86373 0.0
H940 H 0.06494 0.85731 0.82362 0.0
C941 C 0.16787 0.88562 0.83984 0.0
C942 C 0.17207 0.87999 0.82408 0.0
C943 C 0.13949 0.87541 0.84604 0.0
C944 C 0.06111 0.84662 0.83488 0.0
H945 H 0.95034 0.73439 0.87341 0.0
H946 H 1.00134 0.76435 0.86604 0.0
H947 H 1.01477 0.83225 0.83374 0.0
H948 H 0.15007 0.85996 0.80232 0.0
H949 H 0.10061 0.84272 0.81295 0.0
H950 H 0.09606 0.8321 0.86474 0.0
C951 C 0.98617 0.77279 0.86566 0.0
C952 C 0.03239 0.83245 0.84074 0.0
C953 C 0.95692 0.75556 0.86979 0.0
C954 C 0.14741 0.8649 0.81445 0.0
C955 C 0.1191 0.85502 0.82056 0.0
C956 C 0.07861 0.83271 0.85798 0.0
C957 C 0.99551 0.80018 0.86052 0.0
C958 C 0.02634 0.81765 0.85509 0.0
C959 C 0.11474 0.85967 0.83652 0.0
C960 C 0.08454 0.84666 0.84334 0.0
H961 H 0.93012 0.80098 0.86376 0.0
H962 H 0.98146 0.8312 0.85624 0.0
H963 H 0.046 0.80723 0.87488 0.0
H964 H 0.18656 0.89708 0.8475 0.0
H965 H 0.1369 0.87952 0.85834 0.0
C966 C 0.19211 0.92367 0.0353 0.0
C967 C 0.18396 0.90158 0.02455 0.0
C968 C 0.20224 0.95092 0.02979 0.0
C969 C 0.23528 0.99372 0.99376 0.0
H970 H 0.22359 0.04924 0.01666 0.0
C971 C 0.28089 0.10601 0.97034 0.0
C972 C 0.29627 0.12706 0.98151 0.0
C973 C 0.26367 0.07844 0.97524 0.0
C974 C 0.22711 0.03397 0.01015 0.0
H975 H 0.17831 0.8904 0.99968 0.0
H976 H 0.19502 0.93757 0.99007 0.0
H977 H 0.19955 1.00112 0.02586 0.0
H978 H 0.30444 0.1359 0.0066 0.0
H979 H 0.27439 0.0879 0.01514 0.0
H980 H 0.26287 0.02656 0.97809 0.0
C981 C 0.19462 0.9342 1.00274 0.0
C982 C 0.21341 1.00637 0.01546 0.0
C983 C 0.18483 0.90709 0.00823 0.0
C984 C 0.29304 0.12011 0.9977 0.0
C985 C 0.27563 0.09263 1.00261 0.0
C986 C 0.24876 0.02121 0.9884 0.0
C987 C 0.20419 0.95664 0.01341 0.0
C988 C 0.2175 0.98587 0.00741 0.0
C989 C 0.26119 0.07135 0.99143 0.0
C990 C 0.24509 0.04176 0.9966 0.0
H991 H 0.19192 0.92007 0.04794 0.0
H992 H 0.20966 0.96759 0.0384 0.0
H993 H 0.23955 0.97879 0.9874 0.0
H994 H 0.28308 0.11067 0.95778 0.0
H995 H 0.25259 0.06259 0.96633 0.0
C996 C 0.24911 0.36524 0.07909 0.0
C997 C 0.22655 0.34616 0.0888 0.0
C998 C 0.26626 0.35681 0.07006 0.0
C999 C 0.26254 0.29361 0.05176 0.0
H1000 H 0.34549 0.34045 0.04427 0.0
C1001 C 0.32898 0.25619 0.0126 0.0
C1002 C 0.34954 0.27575 1.00224 0.0
C1003 C 0.31577 0.26458 0.02442 0.0
C1004 C 0.32227 0.32717 0.0461 0.0
H1005 H 0.20428 0.30353 0.09683 0.0
H1006 H 0.23441 0.28878 0.08129 0.0
H1007 H 0.31958 0.35569 0.06268 0.0
H1008 H 0.37316 0.31935 0.99623 0.0
H1009 H 0.34993 0.33414 0.01664 0.0
H1010 H 0.26494 0.26536 0.03498 0.0
C1011 C 0.23888 0.31022 0.08053 0.0
C1012 C 0.3074 0.33593 0.0567 0.0
C1013 C 0.22182 0.31869 0.08957 0.0
C1014 C 0.35733 0.30393 0.00414 0.0
C1015 C 0.3441 0.31235 0.0159 0.0
C1016 C 0.27735 0.2849 0.04113 0.0
C1017 C 0.26098 0.32902 0.0704 0.0
C1018 C 0.27729 0.31933 0.05963 0.0
C1019 C 0.32284 0.29277 0.02612 0.0
C1020 C 0.30741 0.3016 0.03805 0.0
H1021 H 0.2526 0.38634 0.07794 0.0
H1022 H 0.28277 0.37178 0.06225 0.0
H1023 H 0.23925 0.28046 0.05346 0.0
H1024 H 0.32277 0.23436 0.01136 0.0
H1025 H 0.29992 0.24893 0.0322 0.0
C1026 C 0.90167 0.25037 0.25005 0.0
C1027 C 0.87497 0.22775 0.2453 0.0
C1028 C 0.92503 0.26318 0.23941 0.0
C1029 C 0.94566 0.27148 0.19678 0.0
H1030 H 0.02183 0.28692 0.21316 0.0
C1031 C 0.05224 0.33113 0.16007 0.0
C1032 C 0.07232 0.32067 0.16037 0.0
C1033 C 0.02836 0.32085 0.17051 0.0
C1034 C 1.00073 0.28264 0.20836 0.0
H1035 H 0.85164 0.20189 0.22527 0.0
H1036 H 0.89238 0.22451 0.20658 0.0
H1037 H 0.97927 0.26732 0.23063 0.0
H1038 H 0.0838 0.2919 0.17195 0.0
H1039 H 0.0422 0.27397 0.1904 0.0
H1040 H 0.96716 0.2865 0.17444 0.0
C1041 C 0.89519 0.23229 0.21862 0.0
C1042 C 0.97631 0.27167 0.21843 0.0
C1043 C 0.87175 0.21937 0.22932 0.0
C1044 C 0.06864 0.30034 0.17159 0.0
C1045 C 0.04483 0.29015 0.18212 0.0
C1046 C 0.97016 0.28267 0.18672 0.0
C1047 C 0.92242 0.25388 0.22365 0.0
C1048 C 0.94841 0.26591 0.2128 0.0
C1049 C 0.02413 0.3 0.18159 0.0
C1050 C 0.99804 0.28835 0.19236 0.0
H1051 H 0.9048 0.25776 0.26218 0.0
H1052 H 0.94536 0.28017 0.24362 0.0
H1053 H 0.9246 0.26746 0.19204 0.0
H1054 H 0.05473 0.34687 0.1515 0.0
H1055 H 1.01319 0.32926 0.1699 0.0
C1056 C 0.72772 0.05224 0.35708 0.0
C1057 C 0.71596 0.04859 0.3417 0.0
C1058 C 0.7182 0.02975 0.36764 0.0
C1059 C 0.68064 0.95211 0.36776 0.0
H1060 H 0.678 0.96096 0.41324 0.0
C1061 C 0.63526 0.85751 0.41005 0.0
C1062 C 0.65162 0.86011 0.42378 0.0
C1063 C 0.64137 0.88084 0.40069 0.0
C1064 C 0.6788 0.95816 0.40057 0.0
H1065 H 0.68378 0.01865 0.32571 0.0
H1066 H 0.66666 0.97976 0.34413 0.0
H1067 H 0.69131 1.00089 0.39583 0.0
H1068 H 0.68675 0.88887 0.43875 0.0
H1069 H 0.69738 0.92986 0.42251 0.0
H1070 H 0.66803 0.9094 0.37249 0.0
C1071 C 0.68394 0.99974 0.34796 0.0
C1072 C 0.68652 0.98112 0.39055 0.0
C1073 C 0.69363 0.02213 0.33738 0.0
C1074 C 0.67367 0.8865 0.42827 0.0
C1075 C 0.67968 0.9099 0.41897 0.0
C1076 C 0.67274 0.92917 0.37775 0.0
C1077 C 0.69647 1.00301 0.36315 0.0
C1078 C 0.68762 0.97847 0.37396 0.0
C1079 C 0.66394 0.90732 0.40489 0.0
C1080 C 0.67175 0.93185 0.39431 0.0
H1081 H 0.74519 0.07224 0.36075 0.0
H1082 H 0.72869 0.03319 0.37912 0.0
H1083 H 0.68186 0.94919 0.35514 0.0
H1084 H 0.61826 0.83729 0.40634 0.0
H1085 H 0.62854 0.87808 0.39006 0.0
C1086 C 0.8168 0.71109 0.58906 0.0
C1087 C 0.8112 0.68332 0.58864 0.0
C1088 C 0.8 0.71979 0.58 0.0
C1089 C 0.73084 0.69473 0.55686 0.0
H1090 H 0.77421 0.76401 0.53406 0.0
C1091 C 0.68079 0.72639 0.50426 0.0
C1092 C 0.68935 0.75465 0.50201 0.0
C1093 C 0.69396 0.71795 0.51603 0.0
C1094 C 0.76157 0.74485 0.54051 0.0
H1095 H 0.78389 0.64289 0.57835 0.0
H1096 H 0.75416 0.65788 0.56262 0.0
H1097 H 0.79969 0.74873 0.55255 0.0
H1098 H 0.71753 0.79624 0.51046 0.0
H1099 H 0.74027 0.78166 0.53134 0.0
H1100 H 0.69273 0.69078 0.54473 0.0
C1101 C 0.77117 0.6729 0.57018 0.0
C1102 C 0.77626 0.73604 0.55114 0.0
C1103 C 0.78807 0.66423 0.57924 0.0
C1104 C 0.71068 0.77433 0.512 0.0
C1105 C 0.72382 0.76593 0.52384 0.0
C1106 C 0.7161 0.7036 0.54625 0.0
C1107 C 0.77728 0.70094 0.57019 0.0
C1108 C 0.76116 0.71077 0.5594 0.0
C1109 C 0.71595 0.73762 0.5259 0.0
C1110 C 0.73129 0.72871 0.53782 0.0
H1111 H 0.8348 0.72624 0.59608 0.0
H1112 H 0.80513 0.74143 0.58048 0.0
H1113 H 0.71842 0.67534 0.56314 0.0
H1114 H 0.66441 0.71089 0.4966 0.0
H1115 H 0.68751 0.69606 0.51705 0.0
C1116 C 0.13696 0.81603 0.74732 0.0
C1117 C 0.16238 0.81298 0.74576 0.0
C1118 C 0.11389 0.80387 0.73654 0.0
C1119 C 0.08355 0.75106 0.70387 0.0
H1120 H 0.03377 0.78547 0.69823 0.0
C1121 C 0.9749 0.69581 0.66823 0.0
C1122 C 0.96459 0.71207 0.66028 0.0
C1123 C 0.99898 0.70809 0.67853 0.0
C1124 C 0.04752 0.77561 0.69935 0.0
H1125 H 0.18338 0.7952 0.73086 0.0
H1126 H 0.14376 0.77531 0.71143 0.0
H1127 H 0.07674 0.80782 0.71468 0.0
H1128 H 0.97216 0.75403 0.65635 0.0
H1129 H 1.01485 0.77573 0.67353 0.0
H1130 H 0.05528 0.71978 0.68762 0.0
C1131 C 0.14124 0.78629 0.72149 0.0
C1132 C 0.07213 0.78828 0.70918 0.0
C1133 C 0.16429 0.79809 0.73256 0.0
C1134 C 0.97919 0.74093 0.66265 0.0
C1135 C 1.00368 0.75332 0.67262 0.0
C1136 C 0.05923 0.73868 0.6937 0.0
C1137 C 0.11554 0.78887 0.72336 0.0
C1138 C 0.09035 0.77603 0.71187 0.0
C1139 C 1.01408 0.73715 0.68077 0.0
C1140 C 0.04054 0.75056 0.6914 0.0
H1141 H 0.13468 0.82801 0.75693 0.0
H1142 H 0.09453 0.80607 0.73877 0.0
H1143 H 0.09668 0.74068 0.70562 0.0
H1144 H 0.96475 0.67361 0.66623 0.0
H1145 H 1.00572 0.69466 0.68465 0.0
C1146 C 0.36799 0.14364 0.93025 0.0
C1147 C 0.38829 0.16997 0.92467 0.0
C1148 C 0.36195 0.11969 0.92146 0.0
C1149 C 0.38986 0.09363 0.88791 0.0
H1150 H 0.3091 0.03584 0.88546 0.0
C1151 C 0.34806 1.0078 0.83954 0.0
C1152 C 0.32644 0.98084 0.84361 0.0
C1153 C 0.35723 0.02971 0.85044 0.0
C1154 C 0.33185 0.05155 0.88617 0.0
H1155 H 0.41858 0.19217 0.9058 0.0
H1156 H 0.40795 0.15059 0.89028 0.0
H1157 H 0.32197 0.07599 0.9025 0.0
H1158 H 0.29803 0.95584 0.8626 0.0
H1159 H 0.31422 0.99399 0.88168 0.0
H1160 H 0.39956 0.06937 0.87129 0.0
C1161 C 0.39691 0.14811 0.90153 0.0
C1162 C 0.33928 0.07467 0.89599 0.0
C1163 C 0.40298 0.17199 0.91036 0.0
C1164 C 0.31489 0.97624 0.85908 0.0
C1165 C 0.32392 0.99823 0.86997 0.0
C1166 C 0.38239 0.07056 0.87803 0.0
C1167 C 0.37604 0.12157 0.90684 0.0
C1168 C 0.36838 0.09621 0.89693 0.0
C1169 C 0.34494 0.02537 0.86573 0.0
C1170 C 0.35324 0.04927 0.87692 0.0
H1171 H 0.35638 0.14165 0.94126 0.0
H1172 H 0.34611 0.0997 0.9261 0.0
H1173 H 0.41258 0.10943 0.88849 0.0
H1174 H 0.35764 1.0121 0.82778 0.0
H1175 H 0.37328 0.0503 0.84667 0.0
C1176 C 0.66674 0.78109 0.75828 0.0
C1177 C 0.66198 0.8032 0.76336 0.0
C1178 C 0.67725 0.768 0.76875 0.0
C1179 C 0.68839 0.75767 0.81124 0.0
H1180 H 0.75081 0.74469 0.79478 0.0
C1181 C 0.7361 0.69755 0.84699 0.0
C1182 C 0.76669 0.70864 0.847 0.0
C1183 C 0.72245 0.70801 0.83669 0.0
C1184 C 0.73351 0.74826 0.79961 0.0
H1185 H 0.66318 0.82778 0.78378 0.0
H1186 H 0.68123 0.80464 0.80219 0.0
H1187 H 0.7277 0.76457 0.77759 0.0
H1188 H 0.80703 0.73875 0.83612 0.0
H1189 H 0.78328 0.75699 0.81791 0.0
H1190 H 0.69451 0.74164 0.83333 0.0
C1191 C 0.67684 0.7975 0.79002 0.0
C1192 C 0.71999 0.7594 0.78969 0.0
C1193 C 0.66636 0.81071 0.77948 0.0
C1194 C 0.78338 0.72981 0.83623 0.0
C1195 C 0.76973 0.74018 0.82583 0.0
C1196 C 0.70178 0.7463 0.82113 0.0
C1197 C 0.68322 0.77649 0.78467 0.0
C1198 C 0.69724 0.76428 0.79535 0.0
C1199 C 0.73909 0.72968 0.82607 0.0
C1200 C 0.72457 0.7415 0.81547 0.0
H1201 H 0.66309 0.77438 0.74602 0.0
H1202 H 0.68115 0.75145 0.76429 0.0
H1203 H 0.67089 0.761 0.81599 0.0
H1204 H 0.72282 0.68118 0.85523 0.0
H1205 H 0.69883 0.69911 0.83706 0.0
C1206 C 0.89723 0.66172 0.92826 0.0
C1207 C 0.89401 0.68154 0.9191 0.0
C1208 C 0.92233 0.66946 0.93756 0.0
C1209 C 0.99828 0.72713 0.9449 0.0
H1210 H 0.98592 0.69382 0.98666 0.0
C1211 C 0.08457 0.77193 0.99561 0.0
C1212 C 0.08765 0.75285 0.0055 0.0
C1213 C 0.06235 0.76268 0.98412 0.0
C1214 C 0.98991 0.70311 0.97497 0.0
H1215 H 0.91424 0.7249 0.91248 0.0
H1216 H 0.95792 0.73862 0.92879 0.0
H1217 H 0.94506 0.67846 0.96825 0.0
H1218 H 0.07073 0.70932 0.01104 0.0
H1219 H 0.03197 0.693 0.99097 0.0
H1220 H 0.0431 0.75221 0.95185 0.0
C1221 C 0.94156 0.71694 0.92856 0.0
C1222 C 0.96641 0.69422 0.96435 0.0
C1223 C 0.91652 0.70914 0.91923 0.0
C1224 C 0.06863 0.72437 1.00353 0.0
C1225 C 0.04636 0.71511 0.99212 0.0
C1226 C 0.02178 0.73613 0.95557 0.0
C1227 C 0.94464 0.69731 0.9381 0.0
C1228 C 0.97017 0.70612 0.94915 0.0
C1229 C 0.04268 0.73414 0.98236 0.0
C1230 C 1.0179 0.72428 0.97078 0.0
H1231 H 0.87984 0.64045 0.92869 0.0
H1232 H 0.92399 0.65364 0.94455 0.0
H1233 H 1.00223 0.73656 0.93326 0.0
H1234 H 0.09899 0.794 0.99699 0.0
H1235 H 0.06004 0.77795 0.97693 0.0
C1236 C 0.26009 0.86194 0.08919 0.0
C1237 C 0.23526 0.85981 0.08129 0.0
C1238 C 0.27782 0.88552 0.09826 0.0
C1239 C 0.29045 0.958 0.10795 0.0
H1240 H 0.32977 0.94803 0.14447 0.0
C1241 C 0.36005 0.0506 0.14976 0.0
C1242 C 0.36038 0.04512 0.16606 0.0
C1243 C 0.34777 0.02884 0.13868 0.0
C1244 C 0.31868 0.95131 0.13448 0.0
H1245 H 0.20891 0.88024 0.07718 0.0
H1246 H 0.23865 0.92062 0.09355 0.0
H1247 H 0.30185 0.9091 0.12716 0.0
H1248 H 0.34913 1.01184 0.18314 0.0
H1249 H 0.32627 0.9744 0.16427 0.0
H1250 H 0.30552 0.99968 0.11595 0.0
C1251 C 0.24561 0.90492 0.09221 0.0
C1252 C 0.30299 0.92887 0.12424 0.0
C1253 C 0.22831 0.88161 0.08287 0.0
C1254 C 0.34879 0.01717 0.17081 0.0
C1255 C 0.33603 0.99546 0.15981 0.0
C1256 C 0.30562 0.98029 0.11839 0.0
C1257 C 0.27066 0.90729 0.10016 0.0
C1258 C 0.28844 0.93172 0.11081 0.0
C1259 C 0.33499 1.00083 0.14355 0.0
C1260 C 0.31989 0.97733 0.13192 0.0
H1261 H 0.2654 0.84502 0.08874 0.0
H1262 H 0.29699 0.88642 0.10389 0.0
H1263 H 0.28021 0.96152 0.09765 0.0
H1264 H 0.36847 0.07169 0.14551 0.0
H1265 H 0.34815 0.03414 0.12629 0.0
C1266 C 0.3838 0.23157 0.27546 0.0
C1267 C 0.36741 0.21712 0.26208 0.0
C1268 C 0.37241 0.24339 0.28645 0.0
C1269 C 0.30137 0.24173 0.29832 0.0
H1270 H 0.35258 0.30993 0.32023 0.0
C1271 C 0.25557 0.28835 0.34529 0.0
C1272 C 0.26951 0.31721 0.3476 0.0
C1273 C 0.26771 0.27611 0.33521 0.0
C1274 C 0.33778 0.2911 0.31406 0.0
H1275 H 0.32527 0.20295 0.25043 0.0
H1276 H 0.30677 0.22484 0.26854 0.0
H1277 H 0.37337 0.28917 0.30223 0.0
H1278 H 0.3076 0.35587 0.34143 0.0
H1279 H 0.32767 0.33501 0.32289 0.0
H1280 H 0.26568 0.24441 0.30926 0.0
C1281 C 0.32813 0.2267 0.27095 0.0
C1282 C 0.34986 0.27882 0.30389 0.0
C1283 C 0.3392 0.21456 0.26021 0.0
C1284 C 0.29581 0.33364 0.33949 0.0
C1285 C 0.30768 0.32149 0.32912 0.0
C1286 C 0.28928 0.25427 0.30819 0.0
C1287 C 0.34436 0.24122 0.28432 0.0
C1288 C 0.33184 0.25397 0.29577 0.0
C1289 C 0.29404 0.29244 0.32694 0.0
C1290 C 0.30721 0.27919 0.31626 0.0
H1291 H 0.40557 0.23409 0.27738 0.0
H1292 H 0.38557 0.25403 0.29668 0.0
H1293 H 0.28656 0.22229 0.2927 0.0
H1294 H 0.23566 0.27514 0.35171 0.0
H1295 H 0.25672 0.25369 0.33431 0.0
C1296 C 0.11965 0.32841 0.41588 0.0
C1297 C 0.14719 0.34758 0.42182 0.0
C1298 C 0.0943 0.32054 0.42504 0.0
C1299 C 0.07145 0.31209 0.46639 0.0
H1300 H 0.99912 0.30898 0.45155 0.0
C1301 C 0.96301 0.25715 0.5018 0.0
C1302 C 0.94904 0.27336 0.50471 0.0
C1303 C 0.98585 0.26575 0.49075 0.0
C1304 C 1.01918 0.30971 0.45582 0.0
H1305 H 0.16988 0.3748 0.44144 0.0
H1306 H 0.12576 0.36067 0.45761 0.0
H1307 H 0.0418 0.32609 0.43381 0.0
H1308 H 0.94853 0.31161 0.49857 0.0
H1309 H 0.98751 0.32601 0.47868 0.0
H1310 H 0.04887 0.29533 0.48827 0.0
C1311 C 0.12368 0.35161 0.44595 0.0
C1312 C 0.04352 0.31939 0.44567 0.0
C1313 C 0.14886 0.35979 0.43669 0.0
C1314 C 0.95815 0.29819 0.49617 0.0
C1315 C 0.9806 0.30653 0.48487 0.0
C1316 C 0.047 0.30189 0.47639 0.0
C1317 C 0.09619 0.33149 0.44037 0.0
C1318 C 0.07001 0.32092 0.4509 0.0
C1319 C 0.99504 0.29064 0.48223 0.0
C1320 C 0.02063 0.30072 0.47128 0.0
H1321 H 0.1179 0.31873 0.40443 0.0
H1322 H 0.07343 0.30499 0.42043 0.0
H1323 H 0.09148 0.3128 0.47071 0.0
H1324 H 0.95675 0.23818 0.50843 0.0
H1325 H 0.99654 0.25306 0.48895 0.0
C1326 C 0.67159 0.98603 0.65487 0.0
C1327 C 0.68805 0.98352 0.66745 0.0
C1328 C 0.68472 1.00751 0.64366 0.0
C1329 C 0.75805 0.05846 0.62777 0.0
H1330 H 0.71704 0.09716 0.61196 0.0
C1331 C 0.8109 0.14488 0.58055 0.0
C1332 C 0.80706 0.16848 0.58233 0.0
C1333 C 0.79443 0.121 0.58964 0.0
C1334 C 0.72892 0.0867 0.61631 0.0
H1335 H 0.73168 1.00153 0.67766 0.0
H1336 H 0.75406 0.03898 0.65862 0.0
H1337 H 0.69248 0.0585 0.63043 0.0
H1338 H 0.7834 0.18596 0.59506 0.0
H1339 H 0.75474 0.14443 0.61111 0.0
H1340 H 0.7948 0.08711 0.61418 0.0
C1341 C 0.73106 0.02431 0.65724 0.0
C1342 C 0.71465 0.06423 0.62677 0.0
C1343 C 0.71802 1.00295 0.66837 0.0
C1344 C 0.78627 0.16775 0.59325 0.0
C1345 C 0.76986 0.14391 0.60242 0.0
C1346 C 0.77229 0.08088 0.61736 0.0
C1347 C 0.7147 0.02695 0.64467 0.0
C1348 C 0.72913 0.04996 0.6328 0.0
C1349 C 0.77396 0.12027 0.60092 0.0
C1350 C 0.75807 0.09552 0.61153 0.0
H1351 H 0.64847 0.97157 0.65377 0.0
H1352 H 0.67142 1.00867 0.63409 0.0
H1353 H 0.76985 0.0478 0.6319 0.0
H1354 H 0.82702 0.14509 0.57228 0.0
H1355 H 0.79796 0.10317 0.5879 0.0
loop_
_geom_bond_atom_site_label_1
_geom_bond_atom_site_label_2
_geom_bond_distance
_geom_bond_site_symmetry_2
_ccdc_geom_bond_type
C0 C1 1.443 . S
C0 N4 1.376 . S
C0 C38 1.389 . S
C1 C0 1.443 . S
C1 C2 1.340 . S
C1 H41 0.951 . S
C2 C1 1.340 . S
C2 C3 1.439 . S
C2 H42 0.950 . S
C3 C2 1.439 . S
C3 N4 1.374 . S
C3 C37 1.395 . S
N4 C0 1.376 . S
N4 C3 1.374 . S
N4 Co5 2.008 . S
Co5 N4 2.008 . S
Co5 N6 1.995 . S
Co5 N11 2.008 . S
Co5 N16 1.995 . S
Co5 N21 2.282 . S
Co5 N27 2.282 . S
N6 Co5 1.995 . S
N6 C7 1.376 . S
N6 C10 1.383 . S
C7 N6 1.376 . S
C7 C8 1.446 . S
C7 C37 1.391 . S
C8 C7 1.446 . S
C8 C9 1.339 . S
C8 H43 0.949 . S
C9 C8 1.339 . S
C9 C10 1.439 . S
C9 H44 0.950 . S
C10 N6 1.383 . S
C10 C9 1.439 . S
C10 C39 1.392 . S
N11 Co5 2.008 . S
N11 C12 1.376 . S
N11 C15 1.374 . S
C12 N11 1.376 . S
C12 C13 1.443 . S
C12 C39 1.389 . S
C13 C12 1.443 . S
C13 C14 1.340 . S
C13 H45 0.951 . S
C14 C13 1.340 . S
C14 C15 1.439 . S
C14 H46 0.950 . S
C15 N11 1.374 . S
C15 C14 1.439 . S
C15 C40 1.395 . S
N16 Co5 1.995 . S
N16 C17 1.376 . S
N16 C20 1.383 . S
C17 N16 1.376 . S
C17 C18 1.446 . S
C17 C40 1.391 . S
C18 C17 1.446 . S
C18 C19 1.339 . S
C18 H47 0.949 . S
C19 C18 1.339 . S
C19 C20 1.439 . S
C19 H48 0.950 . S
C20 N16 1.383 . S
C20 C19 1.439 . S
C20 C38 1.392 . S
N21 Co5 2.282 . S
N21 C24 1.332 . S
N21 C26 1.332 . S
C22 C23 1.386 . S
C22 C25 1.388 . S
C23 C22 1.386 . S
C23 C24 1.382 . S
C23 H49 0.950 . S
C24 N21 1.332 . S
C24 C23 1.382 . S
C24 H35 0.952 . S
C25 C22 1.388 . S
C25 C26 1.382 . S
C25 H50 0.950 . S
C26 N21 1.332 . S
C26 C25 1.382 . S
C26 H36 0.948 . S
N27 Co5 2.282 . S
N27 C31 1.332 . S
N27 C32 1.332 . S
C28 C29 1.388 . S
C28 C32 1.382 . S
C28 H51 0.950 . S
C29 C28 1.388 . S
C29 C30 1.386 . S
C30 C29 1.386 . S
C30 C31 1.382 . S
C30 H52 0.950 . S
C31 N27 1.332 . S
C31 C30 1.382 . S
C31 H33 0.952 . S
C32 N27 1.332 . S
C32 C28 1.382 . S
C32 H34 0.948 . S
H33 C31 0.952 . S
H34 C32 0.948 . S
H35 C24 0.952 . S
H36 C26 0.948 . S
C37 C3 1.395 . S
C37 C7 1.391 . S
C38 C0 1.389 . S
C38 C20 1.392 . S
C39 C10 1.392 . S
C39 C12 1.389 . S
C40 C15 1.395 . S
C40 C17 1.391 . S
H41 C1 0.951 . S
H42 C2 0.950 . S
H43 C8 0.949 . S
H44 C9 0.950 . S
H45 C13 0.951 . S
H46 C14 0.950 . S
H47 C18 0.949 . S
H48 C19 0.950 . S
H49 C23 0.950 . S
H50 C25 0.950 . S
H51 C28 0.950 . S
H52 C30 0.950 . S
C53 C54 1.443 . S
C53 N57 1.376 . S
C53 C91 1.389 . S
C54 C53 1.443 . S
C54 C55 1.340 . S
C54 H94 0.951 . S
C55 C54 1.340 . S
C55 C56 1.439 . S
C55 H95 0.950 . S
C56 C55 1.439 . S
C56 N57 1.374 . S
C56 C90 1.395 . S
N57 C53 1.376 . S
N57 C56 1.374 . S
N57 Co58 2.008 . S
Co58 N57 2.008 . S
Co58 N59 1.995 . S
Co58 N64 2.008 . S
Co58 N69 1.995 . S
Co58 N74 2.282 . S
Co58 N80 2.282 . S
N59 Co58 1.995 . S
N59 C60 1.376 . S
N59 C63 1.383 . S
C60 N59 1.376 . S
C60 C61 1.446 . S
C60 C90 1.391 . S
C61 C60 1.446 . S
C61 C62 1.339 . S
C61 H96 0.949 . S
C62 C61 1.339 . S
C62 C63 1.439 . S
C62 H97 0.950 . S
C63 N59 1.383 . S
C63 C62 1.439 . S
C63 C92 1.392 . S
N64 Co58 2.008 . S
N64 C65 1.376 . S
N64 C68 1.374 . S
C65 N64 1.376 . S
C65 C66 1.443 . S
C65 C92 1.389 . S
C66 C65 1.443 . S
C66 C67 1.340 . S
C66 H98 0.951 . S
C67 C66 1.340 . S
C67 C68 1.439 . S
C67 H99 0.950 . S
C68 N64 1.374 . S
C68 C67 1.439 . S
C68 C93 1.395 . S
N69 Co58 1.995 . S
N69 C70 1.376 . S
N69 C73 1.383 . S
C70 N69 1.376 . S
C70 C71 1.446 . S
C70 C93 1.391 . S
C71 C70 1.446 . S
C71 C72 1.339 . S
C71 H100 0.949 . S
C72 C71 1.339 . S
C72 C73 1.439 . S
C72 H101 0.950 . S
C73 N69 1.383 . S
C73 C72 1.439 . S
C73 C91 1.392 . S
N74 Co58 2.282 . S
N74 C77 1.332 . S
N74 C79 1.332 . S
C75 C76 1.386 . S
C75 C78 1.388 . S
C76 C75 1.386 . S
C76 C77 1.382 . S
C76 H102 0.950 . S
C77 N74 1.332 . S
C77 C76 1.382 . S
C77 H88 0.952 . S
C78 C75 1.388 . S
C78 C79 1.382 . S
C78 H103 0.950 . S
C79 N74 1.332 . S
C79 C78 1.382 . S
C79 H89 0.948 . S
N80 Co58 2.282 . S
N80 C84 1.332 . S
N80 C85 1.332 . S
C81 C82 1.388 . S
C81 C85 1.382 . S
C81 H104 0.950 . S
C82 C81 1.388 . S
C82 C83 1.386 . S
C83 C82 1.386 . S
C83 C84 1.382 . S
C83 H105 0.950 . S
C84 N80 1.332 . S
C84 C83 1.382 . S
C84 H86 0.952 . S
C85 N80 1.332 . S
C85 C81 1.382 . S
C85 H87 0.948 . S
H86 C84 0.952 . S
H87 C85 0.948 . S
H88 C77 0.952 . S
H89 C79 0.948 . S
C90 C56 1.395 . S
C90 C60 1.391 . S
C91 C53 1.389 . S
C91 C73 1.392 . S
C92 C63 1.392 . S
C92 C65 1.389 . S
C93 C68 1.395 . S
C93 C70 1.391 . S
H94 C54 0.951 . S
H95 C55 0.950 . S
H96 C61 0.949 . S
H97 C62 0.950 . S
H98 C66 0.951 . S
H99 C67 0.950 . S
H100 C71 0.949 . S
H101 C72 0.950 . S
H102 C76 0.950 . S
H103 C78 0.950 . S
H104 C81 0.950 . S
H105 C83 0.950 . S
C106 C107 1.443 . S
C106 N110 1.376 . S
C106 C144 1.389 . S
C107 C106 1.443 . S
C107 C108 1.340 . S
C107 H147 0.951 . S
C108 C107 1.340 . S
C108 C109 1.439 . S
C108 H148 0.950 . S
C109 C108 1.439 . S
C109 N110 1.374 . S
C109 C143 1.395 . S
N110 C106 1.376 . S
N110 C109 1.374 . S
N110 Co111 2.008 . S
Co111 N110 2.008 . S
Co111 N112 1.995 . S
Co111 N117 2.008 . S
Co111 N122 1.995 . S
Co111 N127 2.282 . S
Co111 N133 2.282 . S
N112 Co111 1.995 . S
N112 C113 1.376 . S
N112 C116 1.383 . S
C113 N112 1.376 . S
C113 C114 1.446 . S
C113 C143 1.391 . S
C114 C113 1.446 . S
C114 C115 1.339 . S
C114 H149 0.949 . S
C115 C114 1.339 . S
C115 C116 1.439 . S
C115 H150 0.950 . S
C116 N112 1.383 . S
C116 C115 1.439 . S
C116 C145 1.392 . S
N117 Co111 2.008 . S
N117 C118 1.376 . S
N117 C121 1.374 . S
C118 N117 1.376 . S
C118 C119 1.443 . S
C118 C145 1.389 . S
C119 C118 1.443 . S
C119 C120 1.340 . S
C119 H151 0.951 . S
C120 C119 1.340 . S
C120 C121 1.439 . S
C120 H152 0.950 . S
C121 N117 1.374 . S
C121 C120 1.439 . S
C121 C146 1.395 . S
N122 Co111 1.995 . S
N122 C123 1.376 . S
N122 C126 1.383 . S
C123 N122 1.376 . S
C123 C124 1.446 . S
C123 C146 1.391 . S
C124 C123 1.446 . S
C124 C125 1.339 . S
C124 H153 0.949 . S
C125 C124 1.339 . S
C125 C126 1.439 . S
C125 H154 0.950 . S
C126 N122 1.383 . S
C126 C125 1.439 . S
C126 C144 1.392 . S
N127 Co111 2.282 . S
N127 C130 1.332 . S
N127 C132 1.332 . S
C128 C129 1.386 . S
C128 C131 1.388 . S
C129 C128 1.386 . S
C129 C130 1.382 . S
C129 H155 0.950 . S
C130 N127 1.332 . S
C130 C129 1.382 . S
C130 H141 0.952 . S
C131 C128 1.388 . S
C131 C132 1.382 . S
C131 H156 0.950 . S
C132 N127 1.332 . S
C132 C131 1.382 . S
C132 H142 0.948 . S
N133 Co111 2.282 . S
N133 C137 1.332 . S
N133 C138 1.332 . S
C134 C135 1.388 . S
C134 C138 1.382 . S
C134 H157 0.950 . S
C135 C134 1.388 . S
C135 C136 1.386 . S
C136 C135 1.386 . S
C136 C137 1.382 . S
C136 H158 0.950 . S
C137 N133 1.332 . S
C137 C136 1.382 . S
C137 H139 0.952 . S
C138 N133 1.332 . S
C138 C134 1.382 . S
C138 H140 0.948 . S
H139 C137 0.952 . S
H140 C138 0.948 . S
H141 C130 0.952 . S
H142 C132 0.948 . S
C143 C109 1.395 . S
C143 C113 1.391 . S
C144 C106 1.389 . S
C144 C126 1.392 . S
C145 C116 1.392 . S
C145 C118 1.389 . S
C146 C121 1.395 . S
C146 C123 1.391 . S
H147 C107 0.951 . S
H148 C108 0.950 . S
H149 C114 0.949 . S
H150 C115 0.950 . S
H151 C119 0.951 . S
H152 C120 0.950 . S
H153 C124 0.949 . S
H154 C125 0.950 . S
H155 C129 0.950 . S
H156 C131 0.950 . S
H157 C134 0.950 . S
H158 C136 0.950 . S
C159 C160 1.443 . S
C159 N163 1.376 . S
C159 C197 1.389 . S
C160 C159 1.443 . S
C160 C161 1.340 . S
C160 H200 0.951 . S
C161 C160 1.340 . S
C161 C162 1.439 . S
C161 H201 0.950 . S
C162 C161 1.439 . S
C162 N163 1.374 . S
C162 C196 1.395 . S
N163 C159 1.376 . S
N163 C162 1.374 . S
N163 Co164 2.008 . S
Co164 N163 2.008 . S
Co164 N165 1.995 . S
Co164 N170 2.008 . S
Co164 N175 1.995 . S
Co164 N180 2.282 . S
Co164 N186 2.282 . S
N165 Co164 1.995 . S
N165 C166 1.376 . S
N165 C169 1.383 . S
C166 N165 1.376 . S
C166 C167 1.446 . S
C166 C196 1.391 . S
C167 C166 1.446 . S
C167 C168 1.339 . S
C167 H202 0.949 . S
C168 C167 1.339 . S
C168 C169 1.439 . S
C168 H203 0.950 . S
C169 N165 1.383 . S
C169 C168 1.439 . S
C169 C198 1.392 . S
N170 Co164 2.008 . S
N170 C171 1.376 . S
N170 C174 1.374 . S
C171 N170 1.376 . S
C171 C172 1.443 . S
C171 C198 1.389 . S
C172 C171 1.443 . S
C172 C173 1.340 . S
C172 H204 0.951 . S
C173 C172 1.340 . S
C173 C174 1.439 . S
C173 H205 0.950 . S
C174 N170 1.374 . S
C174 C173 1.439 . S
C174 C199 1.395 . S
N175 Co164 1.995 . S
N175 C176 1.376 . S
N175 C179 1.383 . S
C176 N175 1.376 . S
C176 C177 1.446 . S
C176 C199 1.391 . S
C177 C176 1.446 . S
C177 C178 1.339 . S
C177 H206 0.949 . S
C178 C177 1.339 . S
C178 C179 1.439 . S
C178 H207 0.950 . S
C179 N175 1.383 . S
C179 C178 1.439 . S
C179 C197 1.392 . S
N180 Co164 2.282 . S
N180 C183 1.332 . S
N180 C185 1.332 . S
C181 C182 1.386 . S
C181 C184 1.388 . S
C182 C181 1.386 . S
C182 C183 1.382 . S
C182 H208 0.950 . S
C183 N180 1.332 . S
C183 C182 1.382 . S
C183 H194 0.952 . S
C184 C181 1.388 . S
C184 C185 1.382 . S
C184 H209 0.950 . S
C185 N180 1.332 . S
C185 C184 1.382 . S
C185 H195 0.948 . S
N186 Co164 2.282 . S
N186 C190 1.332 . S
N186 C191 1.332 . S
C187 C188 1.388 . S
C187 C191 1.382 . S
C187 H210 0.950 . S
C188 C187 1.388 . S
C188 C189 1.386 . S
C189 C188 1.386 . S
C189 C190 1.382 . S
C189 H211 0.950 . S
C190 N186 1.332 . S
C190 C189 1.382 . S
C190 H192 0.952 . S
C191 N186 1.332 . S
C191 C187 1.382 . S
C191 H193 0.948 . S
H192 C190 0.952 . S
H193 C191 0.948 . S
H194 C183 0.952 . S
H195 C185 0.948 . S
C196 C162 1.395 . S
C196 C166 1.391 . S
C197 C159 1.389 . S
C197 C179 1.392 . S
C198 C169 1.392 . S
C198 C171 1.389 . S
C199 C174 1.395 . S
C199 C176 1.391 . S
H200 C160 0.951 . S
H201 C161 0.950 . S
H202 C167 0.949 . S
H203 C168 0.950 . S
H204 C172 0.951 . S
H205 C173 0.950 . S
H206 C177 0.949 . S
H207 C178 0.950 . S
H208 C182 0.950 . S
H209 C184 0.950 . S
H210 C187 0.950 . S
H211 C189 0.950 . S
C212 C213 1.443 . S
C212 N216 1.376 . S
C212 C250 1.389 . S
C213 C212 1.443 . S
C213 C214 1.340 . S
C213 H253 0.951 . S
C214 C213 1.340 . S
C214 C215 1.439 . S
C214 H254 0.950 . S
C215 C214 1.439 . S
C215 N216 1.374 . S
C215 C249 1.395 . S
N216 C212 1.376 . S
N216 C215 1.374 . S
N216 Co217 2.008 . S
Co217 N216 2.008 . S
Co217 N218 1.995 . S
Co217 N223 2.008 . S
Co217 N228 1.995 . S
Co217 N233 2.282 . S
Co217 N239 2.282 . S
N218 Co217 1.995 . S
N218 C219 1.376 . S
N218 C222 1.383 . S
C219 N218 1.376 . S
C219 C220 1.446 . S
C219 C249 1.391 . S
C220 C219 1.446 . S
C220 C221 1.339 . S
C220 H255 0.949 . S
C221 C220 1.339 . S
C221 C222 1.439 . S
C221 H256 0.950 . S
C222 N218 1.383 . S
C222 C221 1.439 . S
C222 C251 1.392 . S
N223 Co217 2.008 . S
N223 C224 1.376 . S
N223 C227 1.374 . S
C224 N223 1.376 . S
C224 C225 1.443 . S
C224 C251 1.389 . S
C225 C224 1.443 . S
C225 C226 1.340 . S
C225 H257 0.951 . S
C226 C225 1.340 . S
C226 C227 1.439 . S
C226 H258 0.950 . S
C227 N223 1.374 . S
C227 C226 1.439 . S
C227 C252 1.395 . S
N228 Co217 1.995 . S
N228 C229 1.376 . S
N228 C232 1.383 . S
C229 N228 1.376 . S
C229 C230 1.446 . S
C229 C252 1.391 . S
C230 C229 1.446 . S
C230 C231 1.339 . S
C230 H259 0.949 . S
C231 C230 1.339 . S
C231 C232 1.439 . S
C231 H260 0.950 . S
C232 N228 1.383 . S
C232 C231 1.439 . S
C232 C250 1.392 . S
N233 Co217 2.282 . S
N233 C236 1.332 . S
N233 C238 1.332 . S
C234 C235 1.386 . S
C234 C237 1.388 . S
C235 C234 1.386 . S
C235 C236 1.382 . S
C235 H261 0.950 . S
C236 N233 1.332 . S
C236 C235 1.382 . S
C236 H247 0.952 . S
C237 C234 1.388 . S
C237 C238 1.382 . S
C237 H262 0.950 . S
C238 N233 1.332 . S
C238 C237 1.382 . S
C238 H248 0.948 . S
N239 Co217 2.282 . S
N239 C243 1.332 . S
N239 C244 1.332 . S
C240 C241 1.388 . S
C240 C244 1.382 . S
C240 H263 0.950 . S
C241 C240 1.388 . S
C241 C242 1.386 . S
C242 C241 1.386 . S
C242 C243 1.382 . S
C242 H264 0.950 . S
C243 N239 1.332 . S
C243 C242 1.382 . S
C243 H245 0.952 . S
C244 N239 1.332 . S
C244 C240 1.382 . S
C244 H246 0.948 . S
H245 C243 0.952 . S
H246 C244 0.948 . S
H247 C236 0.952 . S
H248 C238 0.948 . S
C249 C215 1.395 . S
C249 C219 1.391 . S
C250 C212 1.389 . S
C250 C232 1.392 . S
C251 C222 1.392 . S
C251 C224 1.389 . S
C252 C227 1.395 . S
C252 C229 1.391 . S
H253 C213 0.951 . S
H254 C214 0.950 . S
H255 C220 0.949 . S
H256 C221 0.950 . S
H257 C225 0.951 . S
H258 C226 0.950 . S
H259 C230 0.949 . S
H260 C231 0.950 . S
H261 C235 0.950 . S
H262 C237 0.950 . S
H263 C240 0.950 . S
H264 C242 0.950 . S
C265 C266 1.443 . S
C265 N269 1.376 . S
C265 C303 1.389 . S
C266 C265 1.443 . S
C266 C267 1.340 . S
C266 H306 0.951 . S
C267 C266 1.340 . S
C267 C268 1.439 . S
C267 H307 0.950 . S
C268 C267 1.439 . S
C268 N269 1.374 . S
C268 C302 1.395 . S
N269 C265 1.376 . S
N269 C268 1.374 . S
N269 Co270 2.008 . S
Co270 N269 2.008 . S
Co270 N271 1.995 . S
Co270 N276 2.008 . S
Co270 N281 1.995 . S
Co270 N286 2.282 . S
Co270 N292 2.282 . S
N271 Co270 1.995 . S
N271 C272 1.376 . S
N271 C275 1.383 . S
C272 N271 1.376 . S
C272 C273 1.446 . S
C272 C302 1.391 . S
C273 C272 1.446 . S
C273 C274 1.339 . S
C273 H308 0.949 . S
C274 C273 1.339 . S
C274 C275 1.439 . S
C274 H309 0.950 . S
C275 N271 1.383 . S
C275 C274 1.439 . S
C275 C304 1.392 . S
N276 Co270 2.008 . S
N276 C277 1.376 . S
N276 C280 1.374 . S
C277 N276 1.376 . S
C277 C278 1.443 . S
C277 C304 1.389 . S
C278 C277 1.443 . S
C278 C279 1.340 . S
C278 H310 0.951 . S
C279 C278 1.340 . S
C279 C280 1.439 . S
C279 H311 0.950 . S
C280 N276 1.374 . S
C280 C279 1.439 . S
C280 C305 1.395 . S
N281 Co270 1.995 . S
N281 C282 1.376 . S
N281 C285 1.383 . S
C282 N281 1.376 . S
C282 C283 1.446 . S
C282 C305 1.391 . S
C283 C282 1.446 . S
C283 C284 1.339 . S
C283 H312 0.949 . S
C284 C283 1.339 . S
C284 C285 1.439 . S
C284 H313 0.950 . S
C285 N281 1.383 . S
C285 C284 1.439 . S
C285 C303 1.392 . S
N286 Co270 2.282 . S
N286 C289 1.332 . S
N286 C291 1.332 . S
C287 C288 1.386 . S
C287 C290 1.388 . S
C288 C287 1.386 . S
C288 C289 1.382 . S
C288 H314 0.950 . S
C289 N286 1.332 . S
C289 C288 1.382 . S
C289 H300 0.952 . S
C290 C287 1.388 . S
C290 C291 1.382 . S
C290 H315 0.950 . S
C291 N286 1.332 . S
C291 C290 1.382 . S
C291 H301 0.948 . S
N292 Co270 2.282 . S
N292 C296 1.332 . S
N292 C297 1.332 . S
C293 C294 1.388 . S
C293 C297 1.382 . S
C293 H316 0.950 . S
C294 C293 1.388 . S
C294 C295 1.386 . S
C295 C294 1.386 . S
C295 C296 1.382 . S
C295 H317 0.950 . S
C296 N292 1.332 . S
C296 C295 1.382 . S
C296 H298 0.952 . S
C297 N292 1.332 . S
C297 C293 1.382 . S
C297 H299 0.948 . S
H298 C296 0.952 . S
H299 C297 0.948 . S
H300 C289 0.952 . S
H301 C291 0.948 . S
C302 C268 1.395 . S
C302 C272 1.391 . S
C303 C265 1.389 . S
C303 C285 1.392 . S
C304 C275 1.392 . S
C304 C277 1.389 . S
C305 C280 1.395 . S
C305 C282 1.391 . S
H306 C266 0.951 . S
H307 C267 0.950 . S
H308 C273 0.949 . S
H309 C274 0.950 . S
H310 C278 0.951 . S
H311 C279 0.950 . S
H312 C283 0.949 . S
H313 C284 0.950 . S
H314 C288 0.950 . S
H315 C290 0.950 . S
H316 C293 0.950 . S
H317 C295 0.950 . S
C318 C319 1.443 . S
C318 N322 1.376 . S
C318 C356 1.389 . S
C319 C318 1.443 . S
C319 C320 1.340 . S
C319 H359 0.951 . S
C320 C319 1.340 . S
C320 C321 1.439 . S
C320 H360 0.950 . S
C321 C320 1.439 . S
C321 N322 1.374 . S
C321 C355 1.395 . S
N322 C318 1.376 . S
N322 C321 1.374 . S
N322 Co323 2.008 . S
Co323 N322 2.008 . S
Co323 N324 1.995 . S
Co323 N329 2.008 . S
Co323 N334 1.995 . S
Co323 N339 2.282 . S
Co323 N345 2.282 . S
N324 Co323 1.995 . S
N324 C325 1.376 . S
N324 C328 1.383 . S
C325 N324 1.376 . S
C325 C326 1.446 . S
C325 C355 1.391 . S
C326 C325 1.446 . S
C326 C327 1.339 . S
C326 H361 0.949 . S
C327 C326 1.339 . S
C327 C328 1.439 . S
C327 H362 0.950 . S
C328 N324 1.383 . S
C328 C327 1.439 . S
C328 C357 1.392 . S
N329 Co323 2.008 . S
N329 C330 1.376 . S
N329 C333 1.374 . S
C330 N329 1.376 . S
C330 C331 1.443 . S
C330 C357 1.389 . S
C331 C330 1.443 . S
C331 C332 1.340 . S
C331 H363 0.951 . S
C332 C331 1.340 . S
C332 C333 1.439 . S
C332 H364 0.950 . S
C333 N329 1.374 . S
C333 C332 1.439 . S
C333 C358 1.395 . S
N334 Co323 1.995 . S
N334 C335 1.376 . S
N334 C338 1.383 . S
C335 N334 1.376 . S
C335 C336 1.446 . S
C335 C358 1.391 . S
C336 C335 1.446 . S
C336 C337 1.339 . S
C336 H365 0.949 . S
C337 C336 1.339 . S
C337 C338 1.439 . S
C337 H366 0.950 . S
C338 N334 1.383 . S
C338 C337 1.439 . S
C338 C356 1.392 . S
N339 Co323 2.282 . S
N339 C342 1.332 . S
N339 C344 1.332 . S
C340 C341 1.386 . S
C340 C343 1.388 . S
C341 C340 1.386 . S
C341 C342 1.382 . S
C341 H367 0.950 . S
C342 N339 1.332 . S
C342 C341 1.382 . S
C342 H353 0.952 . S
C343 C340 1.388 . S
C343 C344 1.382 . S
C343 H368 0.950 . S
C344 N339 1.332 . S
C344 C343 1.382 . S
C344 H354 0.948 . S
N345 Co323 2.282 . S
N345 C349 1.332 . S
N345 C350 1.332 . S
C346 C347 1.388 . S
C346 C350 1.382 . S
C346 H369 0.950 . S
C347 C346 1.388 . S
C347 C348 1.386 . S
C348 C347 1.386 . S
C348 C349 1.382 . S
C348 H370 0.950 . S
C349 N345 1.332 . S
C349 C348 1.382 . S
C349 H351 0.952 . S
C350 N345 1.332 . S
C350 C346 1.382 . S
C350 H352 0.948 . S
H351 C349 0.952 . S
H352 C350 0.948 . S
H353 C342 0.952 . S
H354 C344 0.948 . S
C355 C321 1.395 . S
C355 C325 1.391 . S
C356 C318 1.389 . S
C356 C338 1.392 . S
C357 C328 1.392 . S
C357 C330 1.389 . S
C358 C333 1.395 . S
C358 C335 1.391 . S
H359 C319 0.951 . S
H360 C320 0.950 . S
H361 C326 0.949 . S
H362 C327 0.950 . S
H363 C331 0.951 . S
H364 C332 0.950 . S
H365 C336 0.949 . S
H366 C337 0.950 . S
H367 C341 0.950 . S
H368 C343 0.950 . S
H369 C346 0.950 . S
H370 C348 0.950 . S
C371 C372 1.443 . S
C371 N375 1.376 . S
C371 C409 1.389 . S
C372 C371 1.443 . S
C372 C373 1.340 . S
C372 H412 0.951 . S
C373 C372 1.340 . S
C373 C374 1.439 . S
C373 H413 0.950 . S
C374 C373 1.439 . S
C374 N375 1.374 . S
C374 C408 1.395 . S
N375 C371 1.376 . S
N375 C374 1.374 . S
N375 Co376 2.008 . S
Co376 N375 2.008 . S
Co376 N377 1.995 . S
Co376 N382 2.008 . S
Co376 N387 1.995 . S
Co376 N392 2.282 . S
Co376 N398 2.282 . S
N377 Co376 1.995 . S
N377 C378 1.376 . S
N377 C381 1.383 . S
C378 N377 1.376 . S
C378 C379 1.446 . S
C378 C408 1.391 . S
C379 C378 1.446 . S
C379 C380 1.339 . S
C379 H414 0.949 . S
C380 C379 1.339 . S
C380 C381 1.439 . S
C380 H415 0.950 . S
C381 N377 1.383 . S
C381 C380 1.439 . S
C381 C410 1.392 . S
N382 Co376 2.008 . S
N382 C383 1.376 . S
N382 C386 1.374 . S
C383 N382 1.376 . S
C383 C384 1.443 . S
C383 C410 1.389 . S
C384 C383 1.443 . S
C384 C385 1.340 . S
C384 H416 0.951 . S
C385 C384 1.340 . S
C385 C386 1.439 . S
C385 H417 0.950 . S
C386 N382 1.374 . S
C386 C385 1.439 . S
C386 C411 1.395 . S
N387 Co376 1.995 . S
N387 C388 1.376 . S
N387 C391 1.383 . S
C388 N387 1.376 . S
C388 C389 1.446 . S
C388 C411 1.391 . S
C389 C388 1.446 . S
C389 C390 1.339 . S
C389 H418 0.949 . S
C390 C389 1.339 . S
C390 C391 1.439 . S
C390 H419 0.950 . S
C391 N387 1.383 . S
C391 C390 1.439 . S
C391 C409 1.392 . S
N392 Co376 2.282 . S
N392 C395 1.332 . S
N392 C397 1.332 . S
C393 C394 1.386 . S
C393 C396 1.388 . S
C394 C393 1.386 . S
C394 C395 1.382 . S
C394 H420 0.950 . S
C395 N392 1.332 . S
C395 C394 1.382 . S
C395 H406 0.952 . S
C396 C393 1.388 . S
C396 C397 1.382 . S
C396 H421 0.950 . S
C397 N392 1.332 . S
C397 C396 1.382 . S
C397 H407 0.948 . S
N398 Co376 2.282 . S
N398 C402 1.332 . S
N398 C403 1.332 . S
C399 C400 1.388 . S
C399 C403 1.382 . S
C399 H422 0.950 . S
C400 C399 1.388 . S
C400 C401 1.386 . S
C401 C400 1.386 . S
C401 C402 1.382 . S
C401 H423 0.950 . S
C402 N398 1.332 . S
C402 C401 1.382 . S
C402 H404 0.952 . S
C403 N398 1.332 . S
C403 C399 1.382 . S
C403 H405 0.948 . S
H404 C402 0.952 . S
H405 C403 0.948 . S
H406 C395 0.952 . S
H407 C397 0.948 . S
C408 C374 1.395 . S
C408 C378 1.391 . S
C409 C371 1.389 . S
C409 C391 1.392 . S
C410 C381 1.392 . S
C410 C383 1.389 . S
C411 C386 1.395 . S
C411 C388 1.391 . S
H412 C372 0.951 . S
H413 C373 0.950 . S
H414 C379 0.949 . S
H415 C380 0.950 . S
H416 C384 0.951 . S
H417 C385 0.950 . S
H418 C389 0.949 . S
H419 C390 0.950 . S
H420 C394 0.950 . S
H421 C396 0.950 . S
H422 C399 0.950 . S
H423 C401 0.950 . S
C424 C425 1.443 . S
C424 N428 1.376 . S
C424 C462 1.389 . S
C425 C424 1.443 . S
C425 C426 1.340 . S
C425 H465 0.951 . S
C426 C425 1.340 . S
C426 C427 1.439 . S
C426 H466 0.950 . S
C427 C426 1.439 . S
C427 N428 1.374 . S
C427 C461 1.395 . S
N428 C424 1.376 . S
N428 C427 1.374 . S
N428 Co429 2.008 . S
Co429 N428 2.008 . S
Co429 N430 1.995 . S
Co429 N435 2.008 . S
Co429 N440 1.995 . S
Co429 N445 2.282 . S
Co429 N451 2.282 . S
N430 Co429 1.995 . S
N430 C431 1.376 . S
N430 C434 1.383 . S
C431 N430 1.376 . S
C431 C432 1.446 . S
C431 C461 1.391 . S
C432 C431 1.446 . S
C432 C433 1.339 . S
C432 H467 0.949 . S
C433 C432 1.339 . S
C433 C434 1.439 . S
C433 H468 0.950 . S
C434 N430 1.383 . S
C434 C433 1.439 . S
C434 C463 1.392 . S
N435 Co429 2.008 . S
N435 C436 1.376 . S
N435 C439 1.374 . S
C436 N435 1.376 . S
C436 C437 1.443 . S
C436 C463 1.389 . S
C437 C436 1.443 . S
C437 C438 1.340 . S
C437 H469 0.951 . S
C438 C437 1.340 . S
C438 C439 1.439 . S
C438 H470 0.950 . S
C439 N435 1.374 . S
C439 C438 1.439 . S
C439 C464 1.395 . S
N440 Co429 1.995 . S
N440 C441 1.376 . S
N440 C444 1.383 . S
C441 N440 1.376 . S
C441 C442 1.446 . S
C441 C464 1.391 . S
C442 C441 1.446 . S
C442 C443 1.339 . S
C442 H471 0.949 . S
C443 C442 1.339 . S
C443 C444 1.439 . S
C443 H472 0.950 . S
C444 N440 1.383 . S
C444 C443 1.439 . S
C444 C462 1.392 . S
N445 Co429 2.282 . S
N445 C448 1.332 . S
N445 C450 1.332 . S
C446 C447 1.386 . S
C446 C449 1.388 . S
C447 C446 1.386 . S
C447 C448 1.382 . S
C447 H473 0.950 . S
C448 N445 1.332 . S
C448 C447 1.382 . S
C448 H459 0.952 . S
C449 C446 1.388 . S
C449 C450 1.382 . S
C449 H474 0.950 . S
C450 N445 1.332 . S
C450 C449 1.382 . S
C450 H460 0.948 . S
N451 Co429 2.282 . S
N451 C455 1.332 . S
N451 C456 1.332 . S
C452 C453 1.388 . S
C452 C456 1.382 . S
C452 H475 0.950 . S
C453 C452 1.388 . S
C453 C454 1.386 . S
C454 C453 1.386 . S
C454 C455 1.382 . S
C454 H476 0.950 . S
C455 N451 1.332 . S
C455 C454 1.382 . S
C455 H457 0.952 . S
C456 N451 1.332 . S
C456 C452 1.382 . S
C456 H458 0.948 . S
H457 C455 0.952 . S
H458 C456 0.948 . S
H459 C448 0.952 . S
H460 C450 0.948 . S
C461 C427 1.395 . S
C461 C431 1.391 . S
C462 C424 1.389 . S
C462 C444 1.392 . S
C463 C434 1.392 . S
C463 C436 1.389 . S
C464 C439 1.395 . S
C464 C441 1.391 . S
H465 C425 0.951 . S
H466 C426 0.950 . S
H467 C432 0.949 . S
H468 C433 0.950 . S
H469 C437 0.951 . S
H470 C438 0.950 . S
H471 C442 0.949 . S
H472 C443 0.950 . S
H473 C447 0.950 . S
H474 C449 0.950 . S
H475 C452 0.950 . S
H476 C454 0.950 . S
C477 C478 1.443 . S
C477 N481 1.376 . S
C477 C515 1.389 . S
C478 C477 1.443 . S
C478 C479 1.340 . S
C478 H518 0.951 . S
C479 C478 1.340 . S
C479 C480 1.439 . S
C479 H519 0.950 . S
C480 C479 1.439 . S
C480 N481 1.374 . S
C480 C514 1.395 . S
N481 C477 1.376 . S
N481 C480 1.374 . S
N481 Co482 2.008 . S
Co482 N481 2.008 . S
Co482 N483 1.995 . S
Co482 N488 2.008 . S
Co482 N493 1.995 . S
Co482 N498 2.282 . S
Co482 N504 2.282 . S
N483 Co482 1.995 . S
N483 C484 1.376 . S
N483 C487 1.383 . S
C484 N483 1.376 . S
C484 C485 1.446 . S
C484 C514 1.391 . S
C485 C484 1.446 . S
C485 C486 1.339 . S
C485 H520 0.949 . S
C486 C485 1.339 . S
C486 C487 1.439 . S
C486 H521 0.950 . S
C487 N483 1.383 . S
C487 C486 1.439 . S
C487 C516 1.392 . S
N488 Co482 2.008 . S
N488 C489 1.376 . S
N488 C492 1.374 . S
C489 N488 1.376 . S
C489 C490 1.443 . S
C489 C516 1.389 . S
C490 C489 1.443 . S
C490 C491 1.340 . S
C490 H522 0.951 . S
C491 C490 1.340 . S
C491 C492 1.439 . S
C491 H523 0.950 . S
C492 N488 1.374 . S
C492 C491 1.439 . S
C492 C517 1.395 . S
N493 Co482 1.995 . S
N493 C494 1.376 . S
N493 C497 1.383 . S
C494 N493 1.376 . S
C494 C495 1.446 . S
C494 C517 1.391 . S
C495 C494 1.446 . S
C495 C496 1.339 . S
C495 H524 0.949 . S
C496 C495 1.339 . S
C496 C497 1.439 . S
C496 H525 0.950 . S
C497 N493 1.383 . S
C497 C496 1.439 . S
C497 C515 1.392 . S
N498 Co482 2.282 . S
N498 C501 1.332 . S
N498 C503 1.332 . S
C499 C500 1.386 . S
C499 C502 1.388 . S
C500 C499 1.386 . S
C500 C501 1.382 . S
C500 H526 0.950 . S
C501 N498 1.332 . S
C501 C500 1.382 . S
C501 H512 0.952 . S
C502 C499 1.388 . S
C502 C503 1.382 . S
C502 H527 0.950 . S
C503 N498 1.332 . S
C503 C502 1.382 . S
C503 H513 0.948 . S
N504 Co482 2.282 . S
N504 C508 1.332 . S
N504 C509 1.332 . S
C505 C506 1.388 . S
C505 C509 1.382 . S
C505 H528 0.950 . S
C506 C505 1.388 . S
C506 C507 1.386 . S
C507 C506 1.386 . S
C507 C508 1.382 . S
C507 H529 0.950 . S
C508 N504 1.332 . S
C508 C507 1.382 . S
C508 H510 0.952 . S
C509 N504 1.332 . S
C509 C505 1.382 . S
C509 H511 0.948 . S
H510 C508 0.952 . S
H511 C509 0.948 . S
H512 C501 0.952 . S
H513 C503 0.948 . S
C514 C480 1.395 . S
C514 C484 1.391 . S
C515 C477 1.389 . S
C515 C497 1.392 . S
C516 C487 1.392 . S
C516 C489 1.389 . S
C517 C492 1.395 . S
C517 C494 1.391 . S
H518 C478 0.951 . S
H519 C479 0.950 . S
H520 C485 0.949 . S
H521 C486 0.950 . S
H522 C490 0.951 . S
H523 C491 0.950 . S
H524 C495 0.949 . S
H525 C496 0.950 . S
H526 C500 0.950 . S
H527 C502 0.950 . S
H528 C505 0.950 . S
H529 C507 0.950 . S
C530 C531 1.443 . S
C530 N534 1.376 . S
C530 C568 1.389 . S
C531 C530 1.443 . S
C531 C532 1.340 . S
C531 H571 0.951 . S
C532 C531 1.340 . S
C532 C533 1.439 . S
C532 H572 0.950 . S
C533 C532 1.439 . S
C533 N534 1.374 . S
C533 C567 1.395 . S
N534 C530 1.376 . S
N534 C533 1.374 . S
N534 Co535 2.008 . S
Co535 N534 2.008 . S
Co535 N536 1.995 . S
Co535 N541 2.008 . S
Co535 N546 1.995 . S
Co535 N551 2.282 . S
Co535 N557 2.282 . S
N536 Co535 1.995 . S
N536 C537 1.376 . S
N536 C540 1.383 . S
C537 N536 1.376 . S
C537 C538 1.446 . S
C537 C567 1.391 . S
C538 C537 1.446 . S
C538 C539 1.339 . S
C538 H573 0.949 . S
C539 C538 1.339 . S
C539 C540 1.439 . S
C539 H574 0.950 . S
C540 N536 1.383 . S
C540 C539 1.439 . S
C540 C569 1.392 . S
N541 Co535 2.008 . S
N541 C542 1.376 . S
N541 C545 1.374 . S
C542 N541 1.376 . S
C542 C543 1.443 . S
C542 C569 1.389 . S
C543 C542 1.443 . S
C543 C544 1.340 . S
C543 H575 0.951 . S
C544 C543 1.340 . S
C544 C545 1.439 . S
C544 H576 0.950 . S
C545 N541 1.374 . S
C545 C544 1.439 . S
C545 C570 1.395 . S
N546 Co535 1.995 . S
N546 C547 1.376 . S
N546 C550 1.383 . S
C547 N546 1.376 . S
C547 C548 1.446 . S
C547 C570 1.391 . S
C548 C547 1.446 . S
C548 C549 1.339 . S
C548 H577 0.949 . S
C549 C548 1.339 . S
C549 C550 1.439 . S
C549 H578 0.950 . S
C550 N546 1.383 . S
C550 C549 1.439 . S
C550 C568 1.392 . S
N551 Co535 2.282 . S
N551 C554 1.332 . S
N551 C556 1.332 . S
C552 C553 1.386 . S
C552 C555 1.388 . S
C553 C552 1.386 . S
C553 C554 1.382 . S
C553 H579 0.950 . S
C554 N551 1.332 . S
C554 C553 1.382 . S
C554 H565 0.952 . S
C555 C552 1.388 . S
C555 C556 1.382 . S
C555 H580 0.950 . S
C556 N551 1.332 . S
C556 C555 1.382 . S
C556 H566 0.948 . S
N557 Co535 2.282 . S
N557 C561 1.332 . S
N557 C562 1.332 . S
C558 C559 1.388 . S
C558 C562 1.382 . S
C558 H581 0.950 . S
C559 C558 1.388 . S
C559 C560 1.386 . S
C560 C559 1.386 . S
C560 C561 1.382 . S
C560 H582 0.950 . S
C561 N557 1.332 . S
C561 C560 1.382 . S
C561 H563 0.952 . S
C562 N557 1.332 . S
C562 C558 1.382 . S
C562 H564 0.948 . S
H563 C561 0.952 . S
H564 C562 0.948 . S
H565 C554 0.952 . S
H566 C556 0.948 . S
C567 C533 1.395 . S
C567 C537 1.391 . S
C568 C530 1.389 . S
C568 C550 1.392 . S
C569 C540 1.392 . S
C569 C542 1.389 . S
C570 C545 1.395 . S
C570 C547 1.391 . S
H571 C531 0.951 . S
H572 C532 0.950 . S
H573 C538 0.949 . S
H574 C539 0.950 . S
H575 C543 0.951 . S
H576 C544 0.950 . S
H577 C548 0.949 . S
H578 C549 0.950 . S
H579 C553 0.950 . S
H580 C555 0.950 . S
H581 C558 0.950 . S
H582 C560 0.950 . S
C583 C584 1.443 . S
C583 N587 1.376 . S
C583 C621 1.389 . S
C584 C583 1.443 . S
C584 C585 1.340 . S
C584 H624 0.951 . S
C585 C584 1.340 . S
C585 C586 1.439 . S
C585 H625 0.950 . S
C586 C585 1.439 . S
C586 N587 1.374 . S
C586 C620 1.395 . S
N587 C583 1.376 . S
N587 C586 1.374 . S
N587 Co588 2.008 . S
Co588 N587 2.008 . S
Co588 N589 1.995 . S
Co588 N594 2.008 . S
Co588 N599 1.995 . S
Co588 N604 2.282 . S
Co588 N610 2.282 . S
N589 Co588 1.995 . S
N589 C590 1.376 . S
N589 C593 1.383 . S
C590 N589 1.376 . S
C590 C591 1.446 . S
C590 C620 1.391 . S
C591 C590 1.446 . S
C591 C592 1.339 . S
C591 H626 0.949 . S
C592 C591 1.339 . S
C592 C593 1.439 . S
C592 H627 0.950 . S
C593 N589 1.383 . S
C593 C592 1.439 . S
C593 C622 1.392 . S
N594 Co588 2.008 . S
N594 C595 1.376 . S
N594 C598 1.374 . S
C595 N594 1.376 . S
C595 C596 1.443 . S
C595 C622 1.389 . S
C596 C595 1.443 . S
C596 C597 1.340 . S
C596 H628 0.951 . S
C597 C596 1.340 . S
C597 C598 1.439 . S
C597 H629 0.950 . S
C598 N594 1.374 . S
C598 C597 1.439 . S
C598 C623 1.395 . S
N599 Co588 1.995 . S
N599 C600 1.376 . S
N599 C603 1.383 . S
C600 N599 1.376 . S
C600 C601 1.446 . S
C600 C623 1.391 . S
C601 C600 1.446 . S
C601 C602 1.339 . S
C601 H630 0.949 . S
C602 C601 1.339 . S
C602 C603 1.439 . S
C602 H631 0.950 . S
C603 N599 1.383 . S
C603 C602 1.439 . S
C603 C621 1.392 . S
N604 Co588 2.282 . S
N604 C607 1.332 . S
N604 C609 1.332 . S
C605 C606 1.386 . S
C605 C608 1.388 . S
C606 C605 1.386 . S
C606 C607 1.382 . S
C606 H632 0.950 . S
C607 N604 1.332 . S
C607 C606 1.382 . S
C607 H618 0.952 . S
C608 C605 1.388 . S
C608 C609 1.382 . S
C608 H633 0.950 . S
C609 N604 1.332 . S
C609 C608 1.382 . S
C609 H619 0.948 . S
N610 Co588 2.282 . S
N610 C614 1.332 . S
N610 C615 1.332 . S
C611 C612 1.388 . S
C611 C615 1.382 . S
C611 H634 0.950 . S
C612 C611 1.388 . S
C612 C613 1.386 . S
C613 C612 1.386 . S
C613 C614 1.382 . S
C613 H635 0.950 . S
C614 N610 1.332 . S
C614 C613 1.382 . S
C614 H616 0.952 . S
C615 N610 1.332 . S
C615 C611 1.382 . S
C615 H617 0.948 . S
H616 C614 0.952 . S
H617 C615 0.948 . S
H618 C607 0.952 . S
H619 C609 0.948 . S
C620 C586 1.395 . S
C620 C590 1.391 . S
C621 C583 1.389 . S
C621 C603 1.392 . S
C622 C593 1.392 . S
C622 C595 1.389 . S
C623 C598 1.395 . S
C623 C600 1.391 . S
H624 C584 0.951 . S
H625 C585 0.950 . S
H626 C591 0.949 . S
H627 C592 0.950 . S
H628 C596 0.951 . S
H629 C597 0.950 . S
H630 C601 0.949 . S
H631 C602 0.950 . S
H632 C606 0.950 . S
H633 C608 0.950 . S
H634 C611 0.950 . S
H635 C613 0.950 . S
C636 C637 1.349 . S
C636 C638 1.327 . S
C636 H661 0.950 . S
C637 C636 1.349 . S
C637 C653 1.349 . S
C638 C636 1.327 . S
C638 C657 1.429 . S
C638 H662 0.950 . S
C639 C656 1.574 . S
C639 C658 1.368 . S
C639 H663 0.949 . S
H640 C644 0.949 . S
C641 C642 1.349 . S
C641 C643 1.327 . S
C641 H664 0.950 . S
C642 C641 1.349 . S
C642 C654 1.349 . S
C643 C641 1.327 . S
C643 C659 1.429 . S
C643 H665 0.950 . S
C644 H640 0.949 . S
C644 C652 1.574 . S
C644 C660 1.368 . S
H645 C653 0.950 . S
H646 C651 0.950 . S
H647 C652 0.949 . S
H648 C654 0.950 . S
H649 C655 0.950 . S
H650 C656 0.949 . S
C651 H646 0.950 . S
C651 C653 1.327 . S
C651 C657 1.429 . S
C652 C644 1.574 . S
C652 H647 0.949 . S
C652 C658 1.368 . S
C653 C637 1.349 . S
C653 H645 0.950 . S
C653 C651 1.327 . S
C654 C642 1.349 . S
C654 H648 0.950 . S
C654 C655 1.327 . S
C655 H649 0.950 . S
C655 C654 1.327 . S
C655 C659 1.429 . S
C656 C639 1.574 . S
C656 H650 0.949 . S
C656 C660 1.368 . S
C657 C638 1.429 . S
C657 C651 1.429 . S
C657 C658 1.523 . S
C658 C639 1.368 . S
C658 C652 1.368 . S
C658 C657 1.523 . S
C659 C643 1.429 . S
C659 C655 1.429 . S
C659 C660 1.523 . S
C660 C644 1.368 . S
C660 C656 1.368 . S
C660 C659 1.523 . S
H661 C636 0.950 . S
H662 C638 0.950 . S
H663 C639 0.949 . S
H664 C641 0.950 . S
H665 C643 0.950 . S
C666 C667 1.349 . S
C666 C668 1.327 . S
C666 H691 0.950 . S
C667 C666 1.349 . S
C667 C683 1.349 . S
C668 C666 1.327 . S
C668 C687 1.429 . S
C668 H692 0.950 . S
C669 C686 1.574 . S
C669 C688 1.368 . S
C669 H693 0.949 . S
H670 C674 0.949 . S
C671 C672 1.349 . S
C671 C673 1.327 . S
C671 H694 0.950 . S
C672 C671 1.349 . S
C672 C684 1.349 . S
C673 C671 1.327 . S
C673 C689 1.429 . S
C673 H695 0.950 . S
C674 H670 0.949 . S
C674 C682 1.574 . S
C674 C690 1.368 . S
H675 C683 0.950 . S
H676 C681 0.950 . S
H677 C682 0.949 . S
H678 C684 0.950 . S
H679 C685 0.950 . S
H680 C686 0.949 . S
C681 H676 0.950 . S
C681 C683 1.327 . S
C681 C687 1.429 . S
C682 C674 1.574 . S
C682 H677 0.949 . S
C682 C688 1.368 . S
C683 C667 1.349 . S
C683 H675 0.950 . S
C683 C681 1.327 . S
C684 C672 1.349 . S
C684 H678 0.950 . S
C684 C685 1.327 . S
C685 H679 0.950 . S
C685 C684 1.327 . S
C685 C689 1.429 . S
C686 C669 1.574 . S
C686 H680 0.949 . S
C686 C690 1.368 . S
C687 C668 1.429 . S
C687 C681 1.429 . S
C687 C688 1.523 . S
C688 C669 1.368 . S
C688 C682 1.368 . S
C688 C687 1.523 . S
C689 C673 1.429 . S
C689 C685 1.429 . S
C689 C690 1.523 . S
C690 C674 1.368 . S
C690 C686 1.368 . S
C690 C689 1.523 . S
H691 C666 0.950 . S
H692 C668 0.950 . S
H693 C669 0.949 . S
H694 C671 0.950 . S
H695 C673 0.950 . S
C696 C697 1.349 . S
C696 C698 1.327 . S
C696 H721 0.950 . S
C697 C696 1.349 . S
C697 C713 1.349 . S
C698 C696 1.327 . S
C698 C717 1.429 . S
C698 H722 0.950 . S
C699 C716 1.574 . S
C699 C718 1.368 . S
C699 H723 0.949 . S
H700 C704 0.949 . S
C701 C702 1.349 . S
C701 C703 1.327 . S
C701 H724 0.950 . S
C702 C701 1.349 . S
C702 C714 1.349 . S
C703 C701 1.327 . S
C703 C719 1.429 . S
C703 H725 0.950 . S
C704 H700 0.949 . S
C704 C712 1.574 . S
C704 C720 1.368 . S
H705 C713 0.950 . S
H706 C711 0.950 . S
H707 C712 0.949 . S
H708 C714 0.950 . S
H709 C715 0.950 . S
H710 C716 0.949 . S
C711 H706 0.950 . S
C711 C713 1.327 . S
C711 C717 1.429 . S
C712 C704 1.574 . S
C712 H707 0.949 . S
C712 C718 1.368 . S
C713 C697 1.349 . S
C713 H705 0.950 . S
C713 C711 1.327 . S
C714 C702 1.349 . S
C714 H708 0.950 . S
C714 C715 1.327 . S
C715 H709 0.950 . S
C715 C714 1.327 . S
C715 C719 1.429 . S
C716 C699 1.574 . S
C716 H710 0.949 . S
C716 C720 1.368 . S
C717 C698 1.429 . S
C717 C711 1.429 . S
C717 C718 1.523 . S
C718 C699 1.368 . S
C718 C712 1.368 . S
C718 C717 1.523 . S
C719 C703 1.429 . S
C719 C715 1.429 . S
C719 C720 1.523 . S
C720 C704 1.368 . S
C720 C716 1.368 . S
C720 C719 1.523 . S
H721 C696 0.950 . S
H722 C698 0.950 . S
H723 C699 0.949 . S
H724 C701 0.950 . S
H725 C703 0.950 . S
C726 C727 1.349 . S
C726 C728 1.327 . S
C726 H751 0.950 . S
C727 C726 1.349 . S
C727 C743 1.349 . S
C728 C726 1.327 . S
C728 C747 1.429 . S
C728 H752 0.950 . S
C729 C746 1.574 . S
C729 C748 1.368 . S
C729 H753 0.949 . S
H730 C734 0.949 . S
C731 C732 1.349 . S
C731 C733 1.327 . S
C731 H754 0.950 . S
C732 C731 1.349 . S
C732 C744 1.349 . S
C733 C731 1.327 . S
C733 C749 1.429 . S
C733 H755 0.950 . S
C734 H730 0.949 . S
C734 C742 1.574 . S
C734 C750 1.368 . S
H735 C743 0.950 . S
H736 C741 0.950 . S
H737 C742 0.949 . S
H738 C744 0.950 . S
H739 C745 0.950 . S
H740 C746 0.949 . S
C741 H736 0.950 . S
C741 C743 1.327 . S
C741 C747 1.429 . S
C742 C734 1.574 . S
C742 H737 0.949 . S
C742 C748 1.368 . S
C743 C727 1.349 . S
C743 H735 0.950 . S
C743 C741 1.327 . S
C744 C732 1.349 . S
C744 H738 0.950 . S
C744 C745 1.327 . S
C745 H739 0.950 . S
C745 C744 1.327 . S
C745 C749 1.429 . S
C746 C729 1.574 . S
C746 H740 0.949 . S
C746 C750 1.368 . S
C747 C728 1.429 . S
C747 C741 1.429 . S
C747 C748 1.523 . S
C748 C729 1.368 . S
C748 C742 1.368 . S
C748 C747 1.523 . S
C749 C733 1.429 . S
C749 C745 1.429 . S
C749 C750 1.523 . S
C750 C734 1.368 . S
C750 C746 1.368 . S
C750 C749 1.523 . S
H751 C726 0.950 . S
H752 C728 0.950 . S
H753 C729 0.949 . S
H754 C731 0.950 . S
H755 C733 0.950 . S
C756 C757 1.349 . S
C756 C758 1.327 . S
C756 H781 0.950 . S
C757 C756 1.349 . S
C757 C773 1.349 . S
C758 C756 1.327 . S
C758 C777 1.429 . S
C758 H782 0.950 . S
C759 C776 1.574 . S
C759 C778 1.368 . S
C759 H783 0.949 . S
H760 C764 0.949 . S
C761 C762 1.349 . S
C761 C763 1.327 . S
C761 H784 0.950 . S
C762 C761 1.349 . S
C762 C774 1.349 . S
C763 C761 1.327 . S
C763 C779 1.429 . S
C763 H785 0.950 . S
C764 H760 0.949 . S
C764 C772 1.574 . S
C764 C780 1.368 . S
H765 C773 0.950 . S
H766 C771 0.950 . S
H767 C772 0.949 . S
H768 C774 0.950 . S
H769 C775 0.950 . S
H770 C776 0.949 . S
C771 H766 0.950 . S
C771 C773 1.327 . S
C771 C777 1.429 . S
C772 C764 1.574 . S
C772 H767 0.949 . S
C772 C778 1.368 . S
C773 C757 1.349 . S
C773 H765 0.950 . S
C773 C771 1.327 . S
C774 C762 1.349 . S
C774 H768 0.950 . S
C774 C775 1.327 . S
C775 H769 0.950 . S
C775 C774 1.327 . S
C775 C779 1.429 . S
C776 C759 1.574 . S
C776 H770 0.949 . S
C776 C780 1.368 . S
C777 C758 1.429 . S
C777 C771 1.429 . S
C777 C778 1.523 . S
C778 C759 1.368 . S
C778 C772 1.368 . S
C778 C777 1.523 . S
C779 C763 1.429 . S
C779 C775 1.429 . S
C779 C780 1.523 . S
C780 C764 1.368 . S
C780 C776 1.368 . S
C780 C779 1.523 . S
H781 C756 0.950 . S
H782 C758 0.950 . S
H783 C759 0.949 . S
H784 C761 0.950 . S
H785 C763 0.950 . S
C786 C787 1.349 . S
C786 C788 1.327 . S
C786 H811 0.950 . S
C787 C786 1.349 . S
C787 C803 1.349 . S
C788 C786 1.327 . S
C788 C807 1.429 . S
C788 H812 0.950 . S
C789 C806 1.574 . S
C789 C808 1.368 . S
C789 H813 0.949 . S
H790 C794 0.949 . S
C791 C792 1.349 . S
C791 C793 1.327 . S
C791 H814 0.950 . S
C792 C791 1.349 . S
C792 C804 1.349 . S
C793 C791 1.327 . S
C793 C809 1.429 . S
C793 H815 0.950 . S
C794 H790 0.949 . S
C794 C802 1.574 . S
C794 C810 1.368 . S
H795 C803 0.950 . S
H796 C801 0.950 . S
H797 C802 0.949 . S
H798 C804 0.950 . S
H799 C805 0.950 . S
H800 C806 0.949 . S
C801 H796 0.950 . S
C801 C803 1.327 . S
C801 C807 1.429 . S
C802 C794 1.574 . S
C802 H797 0.949 . S
C802 C808 1.368 . S
C803 C787 1.349 . S
C803 H795 0.950 . S
C803 C801 1.327 . S
C804 C792 1.349 . S
C804 H798 0.950 . S
C804 C805 1.327 . S
C805 H799 0.950 . S
C805 C804 1.327 . S
C805 C809 1.429 . S
C806 C789 1.574 . S
C806 H800 0.949 . S
C806 C810 1.368 . S
C807 C788 1.429 . S
C807 C801 1.429 . S
C807 C808 1.523 . S
C808 C789 1.368 . S
C808 C802 1.368 . S
C808 C807 1.523 . S
C809 C793 1.429 . S
C809 C805 1.429 . S
C809 C810 1.523 . S
C810 C794 1.368 . S
C810 C806 1.368 . S
C810 C809 1.523 . S
H811 C786 0.950 . S
H812 C788 0.950 . S
H813 C789 0.949 . S
H814 C791 0.950 . S
H815 C793 0.950 . S
C816 C817 1.349 . S
C816 C818 1.327 . S
C816 H841 0.950 . S
C817 C816 1.349 . S
C817 C833 1.349 . S
C818 C816 1.327 . S
C818 C837 1.429 . S
C818 H842 0.950 . S
C819 C836 1.574 . S
C819 C838 1.368 . S
C819 H843 0.949 . S
H820 C824 0.949 . S
C821 C822 1.349 . S
C821 C823 1.327 . S
C821 H844 0.950 . S
C822 C821 1.349 . S
C822 C834 1.349 . S
C823 C821 1.327 . S
C823 C839 1.429 . S
C823 H845 0.950 . S
C824 H820 0.949 . S
C824 C832 1.574 . S
C824 C840 1.368 . S
H825 C833 0.950 . S
H826 C831 0.950 . S
H827 C832 0.949 . S
H828 C834 0.950 . S
H829 C835 0.950 . S
H830 C836 0.949 . S
C831 H826 0.950 . S
C831 C833 1.327 . S
C831 C837 1.429 . S
C832 C824 1.574 . S
C832 H827 0.949 . S
C832 C838 1.368 . S
C833 C817 1.349 . S
C833 H825 0.950 . S
C833 C831 1.327 . S
C834 C822 1.349 . S
C834 H828 0.950 . S
C834 C835 1.327 . S
C835 H829 0.950 . S
C835 C834 1.327 . S
C835 C839 1.429 . S
C836 C819 1.574 . S
C836 H830 0.949 . S
C836 C840 1.368 . S
C837 C818 1.429 . S
C837 C831 1.429 . S
C837 C838 1.523 . S
C838 C819 1.368 . S
C838 C832 1.368 . S
C838 C837 1.523 . S
C839 C823 1.429 . S
C839 C835 1.429 . S
C839 C840 1.523 . S
C840 C824 1.368 . S
C840 C836 1.368 . S
C840 C839 1.523 . S
H841 C816 0.950 . S
H842 C818 0.950 . S
H843 C819 0.949 . S
H844 C821 0.950 . S
H845 C823 0.950 . S
C846 C847 1.349 . S
C846 C848 1.327 . S
C846 H871 0.950 . S
C847 C846 1.349 . S
C847 C863 1.349 . S
C848 C846 1.327 . S
C848 C867 1.429 . S
C848 H872 0.950 . S
C849 C866 1.574 . S
C849 C868 1.368 . S
C849 H873 0.949 . S
H850 C854 0.949 . S
C851 C852 1.349 . S
C851 C853 1.327 . S
C851 H874 0.950 . S
C852 C851 1.349 . S
C852 C864 1.349 . S
C853 C851 1.327 . S
C853 C869 1.429 . S
C853 H875 0.950 . S
C854 H850 0.949 . S
C854 C862 1.574 . S
C854 C870 1.368 . S
H855 C863 0.950 . S
H856 C861 0.950 . S
H857 C862 0.949 . S
H858 C864 0.950 . S
H859 C865 0.950 1_655 S
H860 C866 0.949 1_455 S
C861 H856 0.950 . S
C861 C863 1.327 . S
C861 C867 1.429 . S
C862 C854 1.574 . S
C862 H857 0.949 . S
C862 C868 1.368 . S
C863 C847 1.349 . S
C863 H855 0.950 . S
C863 C861 1.327 . S
C864 C852 1.349 . S
C864 H858 0.950 . S
C864 C865 1.327 . S
C865 H859 0.950 1_455 S
C865 C864 1.327 . S
C865 C869 1.429 . S
C866 C849 1.574 . S
C866 H860 0.949 1_655 S
C866 C870 1.368 . S
C867 C848 1.429 . S
C867 C861 1.429 . S
C867 C868 1.523 . S
C868 C849 1.368 . S
C868 C862 1.368 . S
C868 C867 1.523 . S
C869 C853 1.429 . S
C869 C865 1.429 . S
C869 C870 1.523 1_455 S
C870 C854 1.368 . S
C870 C866 1.368 . S
C870 C869 1.523 1_655 S
H871 C846 0.950 . S
H872 C848 0.950 . S
H873 C849 0.949 . S
H874 C851 0.950 . S
H875 C853 0.950 . S
C876 C877 1.349 . S
C876 C878 1.327 . S
C876 H901 0.950 . S
C877 C876 1.349 . S
C877 C893 1.349 . S
C878 C876 1.327 . S
C878 C897 1.429 . S
C878 H902 0.950 . S
C879 C896 1.594 . S
C879 C898 1.368 . S
C879 H903 0.949 . S
H880 C884 0.949 . S
C881 C882 1.349 . S
C881 C883 1.327 . S
C881 H904 0.950 . S
C882 C881 1.349 . S
C882 C894 1.349 . S
C883 C881 1.327 . S
C883 C899 1.429 . S
C883 H905 0.950 . S
C884 H880 0.949 . S
C884 C892 1.593 . S
C884 C900 1.368 . S
H885 C893 0.950 . S
H886 C891 0.950 . S
H887 C892 0.949 . S
H888 C894 0.950 . S
H889 C895 0.950 . S
H890 C896 0.949 . S
C891 H886 0.950 . S
C891 C893 1.327 . S
C891 C897 1.429 . S
C892 C884 1.593 . S
C892 H887 0.949 . S
C892 C898 1.350 1_565 S
C893 C877 1.349 . S
C893 H885 0.950 . S
C893 C891 1.327 . S
C894 C882 1.349 . S
C894 H888 0.950 . S
C894 C895 1.327 . S
C895 H889 0.950 . S
C895 C894 1.327 . S
C895 C899 1.429 . S
C896 C879 1.594 . S
C896 H890 0.949 . S
C896 C900 1.350 1_545 S
C897 C878 1.429 . S
C897 C891 1.429 . S
C897 C898 1.523 . S
C898 C879 1.368 . S
C898 C892 1.350 1_545 S
C898 C897 1.523 . S
C899 C883 1.429 . S
C899 C895 1.429 . S
C899 C900 1.523 . S
C900 C884 1.368 . S
C900 C896 1.350 1_565 S
C900 C899 1.523 . S
H901 C876 0.950 . S
H902 C878 0.950 . S
H903 C879 0.949 . S
H904 C881 0.950 . S
H905 C883 0.950 . S
C906 C907 1.349 . S
C906 C908 1.327 . S
C906 H931 0.950 . S
C907 C906 1.349 . S
C907 C923 1.349 . S
C908 C906 1.327 . S
C908 C927 1.429 . S
C908 H932 0.950 . S
C909 C926 1.574 . S
C909 C928 1.368 . S
C909 H933 0.949 . S
H910 C914 0.949 . S
C911 C912 1.349 . S
C911 C913 1.327 . S
C911 H934 0.950 . S
C912 C911 1.349 . S
C912 C924 1.349 . S
C913 C911 1.327 . S
C913 C929 1.429 . S
C913 H935 0.950 . S
C914 H910 0.949 . S
C914 C922 1.574 . S
C914 C930 1.368 . S
H915 C923 0.950 . S
H916 C921 0.950 . S
H917 C922 0.949 . S
H918 C924 0.950 . S
H919 C925 0.950 . S
H920 C926 0.949 . S
C921 H916 0.950 . S
C921 C923 1.327 . S
C921 C927 1.429 . S
C922 C914 1.574 . S
C922 H917 0.949 . S
C922 C928 1.368 . S
C923 C907 1.349 . S
C923 H915 0.950 . S
C923 C921 1.327 . S
C924 C912 1.349 . S
C924 H918 0.950 . S
C924 C925 1.327 . S
C925 H919 0.950 . S
C925 C924 1.327 . S
C925 C929 1.429 . S
C926 C909 1.574 . S
C926 H920 0.949 . S
C926 C930 1.368 . S
C927 C908 1.429 . S
C927 C921 1.429 . S
C927 C928 1.523 . S
C928 C909 1.368 . S
C928 C922 1.368 . S
C928 C927 1.523 . S
C929 C913 1.429 . S
C929 C925 1.429 . S
C929 C930 1.523 . S
C930 C914 1.368 . S
C930 C926 1.368 . S
C930 C929 1.523 . S
H931 C906 0.950 . S
H932 C908 0.950 . S
H933 C909 0.949 . S
H934 C911 0.950 . S
H935 C913 0.950 . S
C936 C937 1.349 . S
C936 C938 1.327 . S
C936 H961 0.950 . S
C937 C936 1.349 . S
C937 C953 1.349 . S
C938 C936 1.327 . S
C938 C957 1.429 . S
C938 H962 0.950 . S
C939 C956 1.574 . S
C939 C958 1.368 . S
C939 H963 0.949 . S
H940 C944 0.949 . S
C941 C942 1.349 . S
C941 C943 1.327 . S
C941 H964 0.950 . S
C942 C941 1.349 . S
C942 C954 1.349 . S
C943 C941 1.327 . S
C943 C959 1.429 . S
C943 H965 0.950 . S
C944 H940 0.949 . S
C944 C952 1.574 . S
C944 C960 1.368 . S
H945 C953 0.950 . S
H946 C951 0.950 . S
H947 C952 0.949 1_655 S
H948 C954 0.950 . S
H949 C955 0.950 . S
H950 C956 0.949 . S
C951 H946 0.950 . S
C951 C953 1.327 . S
C951 C957 1.429 . S
C952 C944 1.574 . S
C952 H947 0.949 1_455 S
C952 C958 1.368 . S
C953 C937 1.349 . S
C953 H945 0.950 . S
C953 C951 1.327 . S
C954 C942 1.349 . S
C954 H948 0.950 . S
C954 C955 1.327 . S
C955 H949 0.950 . S
C955 C954 1.327 . S
C955 C959 1.429 . S
C956 C939 1.574 . S
C956 H950 0.949 . S
C956 C960 1.368 . S
C957 C938 1.429 . S
C957 C951 1.429 . S
C957 C958 1.523 1_655 S
C958 C939 1.368 . S
C958 C952 1.368 . S
C958 C957 1.523 1_455 S
C959 C943 1.429 . S
C959 C955 1.429 . S
C959 C960 1.523 . S
C960 C944 1.368 . S
C960 C956 1.368 . S
C960 C959 1.523 . S
H961 C936 0.950 . S
H962 C938 0.950 . S
H963 C939 0.949 . S
H964 C941 0.950 . S
H965 C943 0.950 . S
C966 C967 1.349 . S
C966 C968 1.327 . S
C966 H991 0.950 . S
C967 C966 1.349 . S
C967 C983 1.349 . S
C968 C966 1.327 . S
C968 C987 1.429 . S
C968 H992 0.950 . S
C969 C986 1.542 1_565 S
C969 C988 1.368 1_556 S
C969 H993 0.949 . S
H970 C974 0.949 . S
C971 C972 1.349 . S
C971 C973 1.327 . S
C971 H994 0.950 . S
C972 C971 1.349 . S
C972 C984 1.349 . S
C973 C971 1.327 . S
C973 C989 1.429 . S
C973 H995 0.950 . S
C974 H970 0.949 . S
C974 C982 1.542 1_545 S
C974 C990 1.368 1_554 S
H975 C983 0.950 . S
H976 C981 0.950 . S
H977 C982 0.944 . S
H978 C984 0.950 . S
H979 C985 0.950 . S
H980 C986 0.945 . S
C981 H976 0.950 . S
C981 C983 1.327 . S
C981 C987 1.429 . S
C982 C974 1.542 1_565 S
C982 H977 0.944 . S
C982 C988 1.407 . S
C983 C967 1.349 . S
C983 H975 0.950 . S
C983 C981 1.327 . S
C984 C972 1.349 . S
C984 H978 0.950 . S
C984 C985 1.327 . S
C985 H979 0.950 . S
C985 C984 1.327 . S
C985 C989 1.429 . S
C986 C969 1.542 1_545 S
C986 H980 0.945 . S
C986 C990 1.406 . S
C987 C968 1.429 . S
C987 C981 1.429 . S
C987 C988 1.523 . S
C988 C969 1.368 1_554 S
C988 C982 1.407 . S
C988 C987 1.523 . S
C989 C973 1.429 . S
C989 C985 1.429 . S
C989 C990 1.523 . S
C990 C974 1.368 1_556 S
C990 C986 1.406 . S
C990 C989 1.523 . S
H991 C966 0.950 . S
H992 C968 0.950 . S
H993 C969 0.949 . S
H994 C971 0.950 . S
H995 C973 0.950 . S
C996 C997 1.349 . S
C996 C998 1.327 . S
C996 H1021 0.950 . S
C997 C996 1.349 . S
C997 C1013 1.349 . S
C998 C996 1.327 . S
C998 C1017 1.429 . S
C998 H1022 0.950 . S
C999 C1016 1.574 . S
C999 C1018 1.368 . S
C999 H1023 0.949 . S
H1000 C1004 0.949 . S
C1001 C1002 1.349 . S
C1001 C1003 1.327 . S
C1001 H1024 0.950 . S
C1002 C1001 1.349 . S
C1002 C1014 1.349 . S
C1003 C1001 1.327 . S
C1003 C1019 1.429 1_556 S
C1003 H1025 0.940 1_556 S
C1004 H1000 0.949 . S
C1004 C1012 1.574 . S
C1004 C1020 1.368 . S
H1005 C1013 0.950 . S
H1006 C1011 0.950 . S
H1007 C1012 0.949 . S
H1008 C1014 0.950 . S
H1009 C1015 0.951 . S
H1010 C1016 0.949 . S
C1011 H1006 0.950 . S
C1011 C1013 1.327 . S
C1011 C1017 1.429 . S
C1012 C1004 1.574 . S
C1012 H1007 0.949 . S
C1012 C1018 1.368 . S
C1013 C997 1.349 . S
C1013 H1005 0.950 . S
C1013 C1011 1.327 . S
C1014 C1002 1.349 . S
C1014 H1008 0.950 . S
C1014 C1015 1.327 . S
C1015 H1009 0.951 . S
C1015 C1014 1.327 . S
C1015 C1019 1.429 1_556 S
C1016 C999 1.574 . S
C1016 H1010 0.949 . S
C1016 C1020 1.368 . S
C1017 C998 1.429 . S
C1017 C1011 1.429 . S
C1017 C1018 1.523 . S
C1018 C999 1.368 . S
C1018 C1012 1.368 . S
C1018 C1017 1.523 . S
C1019 C1003 1.429 1_554 S
C1019 C1015 1.429 1_554 S
C1019 C1020 1.523 . S
C1020 C1004 1.368 . S
C1020 C1016 1.368 . S
C1020 C1019 1.523 . S
H1021 C996 0.950 . S
H1022 C998 0.950 . S
H1023 C999 0.949 . S
H1024 C1001 0.950 . S
H1025 C1003 0.940 1_554 S
C1026 C1027 1.349 . S
C1026 C1028 1.327 . S
C1026 H1051 0.950 . S
C1027 C1026 1.349 . S
C1027 C1043 1.349 . S
C1028 C1026 1.327 . S
C1028 C1047 1.429 . S
C1028 H1052 0.950 . S
C1029 C1046 1.574 . S
C1029 C1048 1.368 . S
C1029 H1053 0.949 . S
H1030 C1034 0.949 . S
C1031 C1032 1.349 . S
C1031 C1033 1.327 . S
C1031 H1054 0.950 . S
C1032 C1031 1.349 . S
C1032 C1044 1.349 . S
C1033 C1031 1.327 . S
C1033 C1049 1.429 . S
C1033 H1055 0.950 . S
C1034 H1030 0.949 . S
C1034 C1042 1.574 1_455 S
C1034 C1050 1.368 . S
H1035 C1043 0.950 . S
H1036 C1041 0.950 . S
H1037 C1042 0.949 . S
H1038 C1044 0.950 . S
H1039 C1045 0.950 . S
H1040 C1046 0.949 . S
C1041 H1036 0.950 . S
C1041 C1043 1.327 . S
C1041 C1047 1.429 . S
C1042 C1034 1.574 1_655 S
C1042 H1037 0.949 . S
C1042 C1048 1.368 . S
C1043 C1027 1.349 . S
C1043 H1035 0.950 . S
C1043 C1041 1.327 . S
C1044 C1032 1.349 . S
C1044 H1038 0.950 . S
C1044 C1045 1.327 . S
C1045 H1039 0.950 . S
C1045 C1044 1.327 . S
C1045 C1049 1.429 . S
C1046 C1029 1.574 . S
C1046 H1040 0.949 . S
C1046 C1050 1.368 1_655 S
C1047 C1028 1.429 . S
C1047 C1041 1.429 . S
C1047 C1048 1.523 . S
C1048 C1029 1.368 . S
C1048 C1042 1.368 . S
C1048 C1047 1.523 . S
C1049 C1033 1.429 . S
C1049 C1045 1.429 . S
C1049 C1050 1.523 . S
C1050 C1034 1.368 . S
C1050 C1046 1.368 1_455 S
C1050 C1049 1.523 . S
H1051 C1026 0.950 . S
H1052 C1028 0.950 . S
H1053 C1029 0.949 . S
H1054 C1031 0.950 . S
H1055 C1033 0.950 . S
C1056 C1057 1.349 . S
C1056 C1058 1.327 . S
C1056 H1081 0.950 . S
C1057 C1056 1.349 . S
C1057 C1073 1.349 . S
C1058 C1056 1.327 . S
C1058 C1077 1.429 . S
C1058 H1082 0.950 . S
C1059 C1076 1.574 . S
C1059 C1078 1.368 . S
C1059 H1083 0.949 . S
H1060 C1064 0.949 . S
C1061 C1062 1.349 . S
C1061 C1063 1.327 . S
C1061 H1084 0.950 . S
C1062 C1061 1.349 . S
C1062 C1074 1.349 . S
C1063 C1061 1.327 . S
C1063 C1079 1.429 . S
C1063 H1085 0.950 . S
C1064 H1060 0.949 . S
C1064 C1072 1.574 . S
C1064 C1080 1.368 . S
H1065 C1073 0.950 . S
H1066 C1071 0.950 1_565 S
H1067 C1072 0.949 1_545 S
H1068 C1074 0.950 . S
H1069 C1075 0.950 . S
H1070 C1076 0.949 . S
C1071 H1066 0.950 1_545 S
C1071 C1073 1.327 . S
C1071 C1077 1.429 . S
C1072 C1064 1.574 . S
C1072 H1067 0.949 1_565 S
C1072 C1078 1.368 . S
C1073 C1057 1.349 . S
C1073 H1065 0.950 . S
C1073 C1071 1.327 . S
C1074 C1062 1.349 . S
C1074 H1068 0.950 . S
C1074 C1075 1.327 . S
C1075 H1069 0.950 . S
C1075 C1074 1.327 . S
C1075 C1079 1.429 . S
C1076 C1059 1.574 . S
C1076 H1070 0.949 . S
C1076 C1080 1.368 . S
C1077 C1058 1.429 . S
C1077 C1071 1.429 . S
C1077 C1078 1.523 1_545 S
C1078 C1059 1.368 . S
C1078 C1072 1.368 . S
C1078 C1077 1.523 1_565 S
C1079 C1063 1.429 . S
C1079 C1075 1.429 . S
C1079 C1080 1.523 . S
C1080 C1064 1.368 . S
C1080 C1076 1.368 . S
C1080 C1079 1.523 . S
H1081 C1056 0.950 . S
H1082 C1058 0.950 . S
H1083 C1059 0.949 . S
H1084 C1061 0.950 . S
H1085 C1063 0.950 . S
C1086 C1087 1.349 . S
C1086 C1088 1.327 . S
C1086 H1111 0.950 . S
C1087 C1086 1.349 . S
C1087 C1103 1.349 . S
C1088 C1086 1.327 . S
C1088 C1107 1.429 . S
C1088 H1112 0.950 . S
C1089 C1106 1.574 . S
C1089 C1108 1.368 . S
C1089 H1113 0.949 . S
H1090 C1094 0.949 . S
C1091 C1092 1.349 . S
C1091 C1093 1.327 . S
C1091 H1114 0.950 . S
C1092 C1091 1.349 . S
C1092 C1104 1.349 . S
C1093 C1091 1.327 . S
C1093 C1109 1.429 . S
C1093 H1115 0.950 . S
C1094 H1090 0.949 . S
C1094 C1102 1.574 . S
C1094 C1110 1.368 . S
H1095 C1103 0.950 . S
H1096 C1101 0.950 . S
H1097 C1102 0.949 . S
H1098 C1104 0.950 . S
H1099 C1105 0.950 . S
H1100 C1106 0.949 . S
C1101 H1096 0.950 . S
C1101 C1103 1.327 . S
C1101 C1107 1.429 . S
C1102 C1094 1.574 . S
C1102 H1097 0.949 . S
C1102 C1108 1.368 . S
C1103 C1087 1.349 . S
C1103 H1095 0.950 . S
C1103 C1101 1.327 . S
C1104 C1092 1.349 . S
C1104 H1098 0.950 . S
C1104 C1105 1.327 . S
C1105 H1099 0.950 . S
C1105 C1104 1.327 . S
C1105 C1109 1.429 . S
C1106 C1089 1.574 . S
C1106 H1100 0.949 . S
C1106 C1110 1.368 . S
C1107 C1088 1.429 . S
C1107 C1101 1.429 . S
C1107 C1108 1.523 . S
C1108 C1089 1.368 . S
C1108 C1102 1.368 . S
C1108 C1107 1.523 . S
C1109 C1093 1.429 . S
C1109 C1105 1.429 . S
C1109 C1110 1.523 . S
C1110 C1094 1.368 . S
C1110 C1106 1.368 . S
C1110 C1109 1.523 . S
H1111 C1086 0.950 . S
H1112 C1088 0.950 . S
H1113 C1089 0.949 . S
H1114 C1091 0.950 . S
H1115 C1093 0.950 . S
C1116 C1117 1.349 . S
C1116 C1118 1.327 . S
C1116 H1141 0.950 . S
C1117 C1116 1.349 . S
C1117 C1133 1.349 . S
C1118 C1116 1.327 . S
C1118 C1137 1.429 . S
C1118 H1142 0.950 . S
C1119 C1136 1.574 . S
C1119 C1138 1.368 . S
C1119 H1143 0.949 . S
H1120 C1124 0.949 . S
C1121 C1122 1.349 . S
C1121 C1123 1.327 . S
C1121 H1144 0.950 . S
C1122 C1121 1.349 . S
C1122 C1134 1.349 . S
C1123 C1121 1.327 . S
C1123 C1139 1.429 . S
C1123 H1145 0.950 . S
C1124 H1120 0.949 . S
C1124 C1132 1.574 1_655 S
C1124 C1140 1.368 . S
H1125 C1133 0.950 . S
H1126 C1131 0.950 . S
H1127 C1132 0.949 . S
H1128 C1134 0.950 . S
H1129 C1135 0.950 . S
H1130 C1136 0.949 . S
C1131 H1126 0.950 . S
C1131 C1133 1.327 . S
C1131 C1137 1.429 . S
C1132 C1124 1.574 1_455 S
C1132 H1127 0.949 . S
C1132 C1138 1.368 . S
C1133 C1117 1.349 . S
C1133 H1125 0.950 . S
C1133 C1131 1.327 . S
C1134 C1122 1.349 . S
C1134 H1128 0.950 . S
C1134 C1135 1.327 . S
C1135 H1129 0.950 . S
C1135 C1134 1.327 . S
C1135 C1139 1.429 . S
C1136 C1119 1.574 . S
C1136 H1130 0.949 . S
C1136 C1140 1.368 1_455 S
C1137 C1118 1.429 . S
C1137 C1131 1.429 . S
C1137 C1138 1.523 . S
C1138 C1119 1.368 . S
C1138 C1132 1.368 . S
C1138 C1137 1.523 . S
C1139 C1123 1.429 . S
C1139 C1135 1.429 . S
C1139 C1140 1.523 . S
C1140 C1124 1.368 . S
C1140 C1136 1.368 1_655 S
C1140 C1139 1.523 . S
H1141 C1116 0.950 . S
H1142 C1118 0.950 . S
H1143 C1119 0.949 . S
H1144 C1121 0.950 . S
H1145 C1123 0.950 . S
C1146 C1147 1.349 . S
C1146 C1148 1.327 . S
C1146 H1171 0.950 . S
C1147 C1146 1.349 . S
C1147 C1163 1.349 . S
C1148 C1146 1.327 . S
C1148 C1167 1.429 . S
C1148 H1172 0.950 . S
C1149 C1166 1.574 . S
C1149 C1168 1.368 . S
C1149 H1173 0.949 . S
H1150 C1154 0.949 1_565 S
C1151 C1152 1.349 . S
C1151 C1153 1.327 . S
C1151 H1174 0.950 . S
C1152 C1151 1.349 . S
C1152 C1164 1.349 . S
C1153 C1151 1.327 . S
C1153 C1169 1.429 . S
C1153 H1175 0.950 1_565 S
C1154 H1150 0.949 1_545 S
C1154 C1162 1.574 . S
C1154 C1170 1.368 . S
H1155 C1163 0.950 . S
H1156 C1161 0.950 . S
H1157 C1162 0.949 . S
H1158 C1164 0.950 . S
H1159 C1165 0.950 . S
H1160 C1166 0.949 . S
C1161 H1156 0.950 . S
C1161 C1163 1.327 . S
C1161 C1167 1.429 . S
C1162 C1154 1.574 . S
C1162 H1157 0.949 . S
C1162 C1168 1.368 . S
C1163 C1147 1.349 . S
C1163 H1155 0.950 . S
C1163 C1161 1.327 . S
C1164 C1152 1.349 . S
C1164 H1158 0.950 . S
C1164 C1165 1.327 . S
C1165 H1159 0.950 . S
C1165 C1164 1.327 . S
C1165 C1169 1.429 . S
C1166 C1149 1.574 . S
C1166 H1160 0.949 . S
C1166 C1170 1.368 . S
C1167 C1148 1.429 . S
C1167 C1161 1.429 . S
C1167 C1168 1.523 . S
C1168 C1149 1.368 . S
C1168 C1162 1.368 . S
C1168 C1167 1.523 . S
C1169 C1153 1.429 . S
C1169 C1165 1.429 . S
C1169 C1170 1.523 1_565 S
C1170 C1154 1.368 . S
C1170 C1166 1.368 . S
C1170 C1169 1.523 1_545 S
H1171 C1146 0.950 . S
H1172 C1148 0.950 . S
H1173 C1149 0.949 . S
H1174 C1151 0.950 . S
H1175 C1153 0.950 1_545 S
C1176 C1177 1.349 . S
C1176 C1178 1.327 . S
C1176 H1201 0.950 . S
C1177 C1176 1.349 . S
C1177 C1193 1.349 . S
C1178 C1176 1.327 . S
C1178 C1197 1.429 . S
C1178 H1202 0.950 . S
C1179 C1196 1.574 . S
C1179 C1198 1.368 . S
C1179 H1203 0.949 . S
H1180 C1184 0.949 . S
C1181 C1182 1.349 . S
C1181 C1183 1.327 . S
C1181 H1204 0.950 . S
C1182 C1181 1.349 . S
C1182 C1194 1.349 . S
C1183 C1181 1.327 . S
C1183 C1199 1.429 . S
C1183 H1205 0.950 . S
C1184 H1180 0.949 . S
C1184 C1192 1.574 . S
C1184 C1200 1.368 . S
H1185 C1193 0.950 . S
H1186 C1191 0.950 . S
H1187 C1192 0.949 . S
H1188 C1194 0.950 . S
H1189 C1195 0.950 . S
H1190 C1196 0.949 . S
C1191 H1186 0.950 . S
C1191 C1193 1.327 . S
C1191 C1197 1.429 . S
C1192 C1184 1.574 . S
C1192 H1187 0.949 . S
C1192 C1198 1.368 . S
C1193 C1177 1.349 . S
C1193 H1185 0.950 . S
C1193 C1191 1.327 . S
C1194 C1182 1.349 . S
C1194 H1188 0.950 . S
C1194 C1195 1.327 . S
C1195 H1189 0.950 . S
C1195 C1194 1.327 . S
C1195 C1199 1.429 . S
C1196 C1179 1.574 . S
C1196 H1190 0.949 . S
C1196 C1200 1.368 . S
C1197 C1178 1.429 . S
C1197 C1191 1.429 . S
C1197 C1198 1.523 . S
C1198 C1179 1.368 . S
C1198 C1192 1.368 . S
C1198 C1197 1.523 . S
C1199 C1183 1.429 . S
C1199 C1195 1.429 . S
C1199 C1200 1.523 . S
C1200 C1184 1.368 . S
C1200 C1196 1.368 . S
C1200 C1199 1.523 . S
H1201 C1176 0.950 . S
H1202 C1178 0.950 . S
H1203 C1179 0.949 . S
H1204 C1181 0.950 . S
H1205 C1183 0.950 . S
C1206 C1207 1.349 . S
C1206 C1208 1.327 . S
C1206 H1231 0.950 . S
C1207 C1206 1.349 . S
C1207 C1223 1.349 . S
C1208 C1206 1.327 . S
C1208 C1227 1.429 . S
C1208 H1232 0.950 . S
C1209 C1226 1.574 1_655 S
C1209 C1228 1.368 . S
C1209 H1233 0.949 . S
H1210 C1214 0.949 1_554 S
C1211 C1212 1.349 . S
C1211 C1213 1.327 1_554 S
C1211 H1234 0.950 1_554 S
C1212 C1211 1.349 . S
C1212 C1224 1.349 . S
C1213 C1211 1.327 1_556 S
C1213 C1229 1.429 . S
C1213 H1235 0.950 . S
C1214 H1210 0.949 1_556 S
C1214 C1222 1.574 . S
C1214 C1230 1.368 1_655 S
H1215 C1223 0.950 . S
H1216 C1221 0.950 . S
H1217 C1222 0.949 . S
H1218 C1224 0.950 . S
H1219 C1225 0.950 . S
H1220 C1226 0.949 . S
C1221 H1216 0.950 . S
C1221 C1223 1.327 . S
C1221 C1227 1.429 . S
C1222 C1214 1.574 . S
C1222 H1217 0.949 . S
C1222 C1228 1.368 . S
C1223 C1207 1.349 . S
C1223 H1215 0.950 . S
C1223 C1221 1.327 . S
C1224 C1212 1.349 . S
C1224 H1218 0.950 . S
C1224 C1225 1.327 . S
C1225 H1219 0.950 . S
C1225 C1224 1.327 . S
C1225 C1229 1.429 1_554 S
C1226 C1209 1.574 1_455 S
C1226 H1220 0.949 . S
C1226 C1230 1.368 . S
C1227 C1208 1.429 . S
C1227 C1221 1.429 . S
C1227 C1228 1.523 . S
C1228 C1209 1.368 . S
C1228 C1222 1.368 . S
C1228 C1227 1.523 . S
C1229 C1213 1.429 . S
C1229 C1225 1.429 1_556 S
C1229 C1230 1.523 . S
C1230 C1214 1.368 1_455 S
C1230 C1226 1.368 . S
C1230 C1229 1.523 . S
H1231 C1206 0.950 . S
H1232 C1208 0.950 . S
H1233 C1209 0.949 . S
H1234 C1211 0.950 1_556 S
H1235 C1213 0.950 . S
C1236 C1237 1.349 . S
C1236 C1238 1.327 . S
C1236 H1261 0.950 . S
C1237 C1236 1.349 . S
C1237 C1253 1.349 . S
C1238 C1236 1.327 . S
C1238 C1257 1.429 . S
C1238 H1262 0.950 . S
C1239 C1256 1.574 . S
C1239 C1258 1.368 . S
C1239 H1263 0.949 . S
H1240 C1244 0.949 . S
C1241 C1242 1.349 . S
C1241 C1243 1.327 . S
C1241 H1264 0.950 . S
C1242 C1241 1.349 . S
C1242 C1254 1.349 . S
C1243 C1241 1.327 . S
C1243 C1259 1.429 . S
C1243 H1265 0.950 . S
C1244 H1240 0.949 . S
C1244 C1252 1.574 . S
C1244 C1260 1.368 . S
H1245 C1253 0.950 . S
H1246 C1251 0.950 . S
H1247 C1252 0.949 . S
H1248 C1254 0.950 . S
H1249 C1255 0.950 1_565 S
H1250 C1256 0.949 1_545 S
C1251 H1246 0.950 . S
C1251 C1253 1.327 . S
C1251 C1257 1.429 . S
C1252 C1244 1.574 . S
C1252 H1247 0.949 . S
C1252 C1258 1.368 . S
C1253 C1237 1.349 . S
C1253 H1245 0.950 . S
C1253 C1251 1.327 . S
C1254 C1242 1.349 . S
C1254 H1248 0.950 . S
C1254 C1255 1.327 . S
C1255 H1249 0.950 1_545 S
C1255 C1254 1.327 . S
C1255 C1259 1.429 . S
C1256 C1239 1.574 . S
C1256 H1250 0.949 1_565 S
C1256 C1260 1.368 . S
C1257 C1238 1.429 . S
C1257 C1251 1.429 . S
C1257 C1258 1.523 . S
C1258 C1239 1.368 . S
C1258 C1252 1.368 . S
C1258 C1257 1.523 . S
C1259 C1243 1.429 . S
C1259 C1255 1.429 . S
C1259 C1260 1.523 1_545 S
C1260 C1244 1.368 . S
C1260 C1256 1.368 . S
C1260 C1259 1.523 1_565 S
H1261 C1236 0.950 . S
H1262 C1238 0.950 . S
H1263 C1239 0.949 . S
H1264 C1241 0.950 . S
H1265 C1243 0.950 . S
C1266 C1267 1.349 . S
C1266 C1268 1.327 . S
C1266 H1291 0.950 . S
C1267 C1266 1.349 . S
C1267 C1283 1.349 . S
C1268 C1266 1.327 . S
C1268 C1287 1.429 . S
C1268 H1292 0.950 . S
C1269 C1286 1.574 . S
C1269 C1288 1.368 . S
C1269 H1293 0.949 . S
H1270 C1274 0.949 . S
C1271 C1272 1.349 . S
C1271 C1273 1.327 . S
C1271 H1294 0.950 . S
C1272 C1271 1.349 . S
C1272 C1284 1.349 . S
C1273 C1271 1.327 . S
C1273 C1289 1.429 . S
C1273 H1295 0.950 . S
C1274 H1270 0.949 . S
C1274 C1282 1.574 . S
C1274 C1290 1.368 . S
H1275 C1283 0.950 . S
H1276 C1281 0.950 . S
H1277 C1282 0.949 . S
H1278 C1284 0.950 . S
H1279 C1285 0.950 . S
H1280 C1286 0.949 . S
C1281 H1276 0.950 . S
C1281 C1283 1.327 . S
C1281 C1287 1.429 . S
C1282 C1274 1.574 . S
C1282 H1277 0.949 . S
C1282 C1288 1.368 . S
C1283 C1267 1.349 . S
C1283 H1275 0.950 . S
C1283 C1281 1.327 . S
C1284 C1272 1.349 . S
C1284 H1278 0.950 . S
C1284 C1285 1.327 . S
C1285 H1279 0.950 . S
C1285 C1284 1.327 . S
C1285 C1289 1.429 . S
C1286 C1269 1.574 . S
C1286 H1280 0.949 . S
C1286 C1290 1.368 . S
C1287 C1268 1.429 . S
C1287 C1281 1.429 . S
C1287 C1288 1.523 . S
C1288 C1269 1.368 . S
C1288 C1282 1.368 . S
C1288 C1287 1.523 . S
C1289 C1273 1.429 . S
C1289 C1285 1.429 . S
C1289 C1290 1.523 . S
C1290 C1274 1.368 . S
C1290 C1286 1.368 . S
C1290 C1289 1.523 . S
H1291 C1266 0.950 . S
H1292 C1268 0.950 . S
H1293 C1269 0.949 . S
H1294 C1271 0.950 . S
H1295 C1273 0.950 . S
C1296 C1297 1.349 . S
C1296 C1298 1.327 . S
C1296 H1321 0.950 . S
C1297 C1296 1.349 . S
C1297 C1313 1.349 . S
C1298 C1296 1.327 . S
C1298 C1317 1.429 . S
C1298 H1322 0.950 . S
C1299 C1316 1.574 . S
C1299 C1318 1.368 . S
C1299 H1323 0.949 . S
H1300 C1304 0.949 . S
C1301 C1302 1.349 . S
C1301 C1303 1.327 . S
C1301 H1324 0.950 . S
C1302 C1301 1.349 . S
C1302 C1314 1.349 . S
C1303 C1301 1.327 . S
C1303 C1319 1.429 . S
C1303 H1325 0.950 . S
C1304 H1300 0.949 . S
C1304 C1312 1.574 1_655 S
C1304 C1320 1.368 . S
H1305 C1313 0.950 . S
H1306 C1311 0.950 . S
H1307 C1312 0.949 . S
H1308 C1314 0.950 . S
H1309 C1315 0.950 . S
H1310 C1316 0.949 . S
C1311 H1306 0.950 . S
C1311 C1313 1.327 . S
C1311 C1317 1.429 . S
C1312 C1304 1.574 1_455 S
C1312 H1307 0.949 . S
C1312 C1318 1.368 . S
C1313 C1297 1.349 . S
C1313 H1305 0.950 . S
C1313 C1311 1.327 . S
C1314 C1302 1.349 . S
C1314 H1308 0.950 . S
C1314 C1315 1.327 . S
C1315 H1309 0.950 . S
C1315 C1314 1.327 . S
C1315 C1319 1.429 . S
C1316 C1299 1.574 . S
C1316 H1310 0.949 . S
C1316 C1320 1.368 1_455 S
C1317 C1298 1.429 . S
C1317 C1311 1.429 . S
C1317 C1318 1.523 . S
C1318 C1299 1.368 . S
C1318 C1312 1.368 . S
C1318 C1317 1.523 . S
C1319 C1303 1.429 . S
C1319 C1315 1.429 . S
C1319 C1320 1.523 . S
C1320 C1304 1.368 . S
C1320 C1316 1.368 1_655 S
C1320 C1319 1.523 . S
H1321 C1296 0.950 . S
H1322 C1298 0.950 . S
H1323 C1299 0.949 . S
H1324 C1301 0.950 . S
H1325 C1303 0.950 . S
C1326 C1327 1.349 . S
C1326 C1328 1.327 . S
C1326 H1351 0.950 . S
C1327 C1326 1.349 . S
C1327 C1343 1.349 . S
C1328 C1326 1.327 . S
C1328 C1347 1.429 . S
C1328 H1352 0.950 . S
C1329 C1346 1.574 . S
C1329 C1348 1.368 . S
C1329 H1353 0.949 . S
H1330 C1334 0.949 . S
C1331 C1332 1.349 . S
C1331 C1333 1.327 . S
C1331 H1354 0.950 . S
C1332 C1331 1.349 . S
C1332 C1344 1.349 . S
C1333 C1331 1.327 . S
C1333 C1349 1.429 . S
C1333 H1355 0.950 . S
C1334 H1330 0.949 . S
C1334 C1342 1.574 . S
C1334 C1350 1.368 . S
H1335 C1343 0.950 . S
H1336 C1341 0.950 . S
H1337 C1342 0.949 . S
H1338 C1344 0.950 . S
H1339 C1345 0.950 . S
H1340 C1346 0.949 . S
C1341 H1336 0.950 . S
C1341 C1343 1.327 . S
C1341 C1347 1.429 . S
C1342 C1334 1.574 . S
C1342 H1337 0.949 . S
C1342 C1348 1.368 . S
C1343 C1327 1.349 . S
C1343 H1335 0.950 . S
C1343 C1341 1.327 . S
C1344 C1332 1.349 . S
C1344 H1338 0.950 . S
C1344 C1345 1.327 . S
C1345 H1339 0.950 . S
C1345 C1344 1.327 . S
C1345 C1349 1.429 . S
C1346 C1329 1.574 . S
C1346 H1340 0.949 . S
C1346 C1350 1.368 . S
C1347 C1328 1.429 . S
C1347 C1341 1.429 . S
C1347 C1348 1.523 1_565 S
C1348 C1329 1.368 . S
C1348 C1342 1.368 . S
C1348 C1347 1.523 1_545 S
C1349 C1333 1.429 . S
C1349 C1345 1.429 . S
C1349 C1350 1.523 . S
C1350 C1334 1.368 . S
C1350 C1346 1.368 . S
C1350 C1349 1.523 . S
H1351 C1326 0.950 . S
H1352 C1328 0.950 . S
H1353 C1329 0.949 . S
H1354 C1331 0.950 . S
H1355 C1333 0.950 . S
C637 C446 1.715 . S
C642 C22 1.715 . S
C667 C91 1.680 . S
C672 C515 1.680 . S
C697 C128 1.716 . S
C702 C552 1.715 . S
C727 C181 1.715 . S
C732 C605 1.715 . S
C757 C356 1.680 . S
C762 C250 1.680 . S
C787 C287 1.716 . S
C792 C393 1.715 . S
C817 C516 1.386 . S
C822 C29 1.377 . S
C847 C92 1.386 . S
C852 C559 1.377 . S
C877 C612 1.267 . S
C882 C135 1.267 . S
C907 C188 1.377 . S
C912 C357 1.386 . S
C937 C400 1.377 . S
C942 C251 1.386 . S
C967 C453 1.267 . S
C972 C294 1.267 . S
C997 C38 2.271 . S
C1002 C304 2.257 . S
C1027 C75 2.425 . S
C1032 C39 2.425 . S
C1057 C82 2.292 . S
C1062 C144 2.355 . S
C1087 C197 2.271 . S
C1092 C145 2.258 . S
C1117 C234 2.425 . S
C1122 C198 2.425 . S
C1147 C303 2.355 . S
C1152 C241 2.292 . S
C1177 C340 2.425 . S
C1182 C410 2.426 . S
C1207 C409 2.271 . S
C1212 C463 2.258 . S
C1237 C462 2.355 . S
C1242 C506 2.292 . S
C1267 C499 2.425 . S
C1272 C569 2.425 . S
C1297 C568 2.271 . S
C1302 C622 2.258 . S
C1327 C347 2.292 . S
C1332 C621 2.355 . S
