# Generated by pormake.
# Topology vcu, (8)-cn, num edge types: 1
# Building blocks:
#     Node 0, Type 0, BuildingBlock: TAGTUT_clean_sbu_3, # of connection points: 8
#     Node 1, Type 0, BuildingBlock: TAGTUT_clean_sbu_3, # of connection points: 8
#     Node 2, Type 0, BuildingBlock: TAGTUT_clean_sbu_3, # of connection points: 8
#     Node 3, Type 0, BuildingBlock: TAGTUT_clean_sbu_3, # of connection points: 8
#     Node 4, Type 0, BuildingBlock: TAGTUT_clean_sbu_3, # of connection points: 8
#     Node 5, Type 0, BuildingBlock: TAGTUT_clean_sbu_3, # of connection points: 8
#     Node 6, Type 0, BuildingBlock: TAGTUT_clean_sbu_3, # of connection points: 8
#     Node 7, Type 0, BuildingBlock: TAGTUT_clean_sbu_3, # of connection points: 8
#     Edge 8, Type (0, 0), BuildingBlock: KIFKEQ_clean_linker_1, # of connection points: 2
#     Edge 9, Type (0, 0), BuildingBlock: KIFKEQ_clean_linker_1, # of connection points: 2
#     Edge 10, Type (0, 0), BuildingBlock: KIFKEQ_clean_linker_1, # of connection points: 2
#     Edge 11, Type (0, 0), BuildingBlock: KIFKEQ_clean_linker_1, # of connection points: 2
#     Edge 12, Type (0, 0), BuildingBlock: KIFKEQ_clean_linker_1, # of connection points: 2
#     Edge 13, Type (0, 0), BuildingBlock: KIFKEQ_clean_linker_1, # of connection points: 2
#     Edge 14, Type (0, 0), BuildingBlock: KIFKEQ_clean_linker_1, # of connection points: 2
#     Edge 15, Type (0, 0), BuildingBlock: KIFKEQ_clean_linker_1, # of connection points: 2
#     Edge 16, Type (0, 0), BuildingBlock: KIFKEQ_clean_linker_1, # of connection points: 2
#     Edge 17, Type (0, 0), BuildingBlock: KIFKEQ_clean_linker_1, # of connection points: 2
#     Edge 18, Type (0, 0), BuildingBlock: KIFKEQ_clean_linker_1, # of connection points: 2
#     Edge 19, Type (0, 0), BuildingBlock: KIFKEQ_clean_linker_1, # of connection points: 2
#     Edge 20, Type (0, 0), BuildingBlock: KIFKEQ_clean_linker_1, # of connection points: 2
#     Edge 21, Type (0, 0), BuildingBlock: KIFKEQ_clean_linker_1, # of connection points: 2
#     Edge 22, Type (0, 0), BuildingBlock: KIFKEQ_clean_linker_1, # of connection points: 2
#     Edge 23, Type (0, 0), BuildingBlock: KIFKEQ_clean_linker_1, # of connection points: 2
#     Edge 24, Type (0, 0), BuildingBlock: KIFKEQ_clean_linker_1, # of connection points: 2
#     Edge 25, Type (0, 0), BuildingBlock: KIFKEQ_clean_linker_1, # of connection points: 2
#     Edge 26, Type (0, 0), BuildingBlock: KIFKEQ_clean_linker_1, # of connection points: 2
#     Edge 27, Type (0, 0), BuildingBlock: KIFKEQ_clean_linker_1, # of connection points: 2
#     Edge 28, Type (0, 0), BuildingBlock: KIFKEQ_clean_linker_1, # of connection points: 2
#     Edge 29, Type (0, 0), BuildingBlock: KIFKEQ_clean_linker_1, # of connection points: 2
#     Edge 30, Type (0, 0), BuildingBlock: KIFKEQ_clean_linker_1, # of connection points: 2
#     Edge 31, Type (0, 0), BuildingBlock: KIFKEQ_clean_linker_1, # of connection points: 2
#     Edge 32, Type (0, 0), BuildingBlock: KIFKEQ_clean_linker_1, # of connection points: 2
#     Edge 33, Type (0, 0), BuildingBlock: KIFKEQ_clean_linker_1, # of connection points: 2
#     Edge 34, Type (0, 0), BuildingBlock: KIFKEQ_clean_linker_1, # of connection points: 2
#     Edge 35, Type (0, 0), BuildingBlock: KIFKEQ_clean_linker_1, # of connection points: 2
#     Edge 36, Type (0, 0), BuildingBlock: KIFKEQ_clean_linker_1, # of connection points: 2
#     Edge 37, Type (0, 0), BuildingBlock: KIFKEQ_clean_linker_1, # of connection points: 2
#     Edge 38, Type (0, 0), BuildingBlock: KIFKEQ_clean_linker_1, # of connection points: 2
#     Edge 39, Type (0, 0), BuildingBlock: KIFKEQ_clean_linker_1, # of connection points: 2
# Relax obj value: 0.235
# Max RMSD: 0.292
# Mean RMSD: 0.290
data_MOF--net-vcu--node1-TAGTUT_clean_sbu_3--edge1-KIFKEQ_clean_linker_1
_symmetry_space_group_name_H-M    P1
_symmetry_Int_Tables_number       1
_symmetry_cell_setting            triclinic
loop_
_symmetry_equiv_pos_as_xyz
'x, y, z'
_cell_length_a     18.958301
_cell_length_b     33.252898
_cell_length_c     51.331894
_cell_angle_alpha  90.381919
_cell_angle_beta   89.828014
_cell_angle_gamma 89.967348
loop_
_atom_site_label
_atom_site_type_symbol
_atom_site_fract_x
_atom_site_fract_y
_atom_site_fract_z
_atom_type_partial_charge
C0 C 0.41202 0.37251 0.33378 0.0
C1 C 0.60716 0.33291 0.39828 0.0
C2 C 0.44086 0.28251 0.44394 0.0
Mg3 Mg 0.25537 0.39785 0.34244 0.0
Mg4 Mg 0.21015 0.44471 0.39619 0.0
O5 O 0.24477 0.39712 0.38161 0.0
Mg6 Mg 0.3434 0.38317 0.39146 0.0
O7 O 0.44271 0.36568 0.39772 0.0
Mg8 Mg 0.44295 0.31087 0.3806 0.0
Mg9 Mg 0.48143 0.3668 0.43092 0.0
C10 C 0.253 0.39405 0.44555 0.0
O11 O 0.37411 0.44669 0.4081 0.0
O12 O 0.13463 0.40383 0.34173 0.0
O13 O 0.44854 0.42689 0.44011 0.0
O14 O 0.26776 0.46825 0.34006 0.0
O15 O 0.1084 0.43943 0.37801 0.0
O16 O 0.26868 0.49367 0.38039 0.0
O17 O 0.32203 0.31915 0.37893 0.0
O18 O 0.24962 0.32645 0.34523 0.0
C19 C 0.28352 0.3038 0.36115 0.0
C20 C 0.09 0.42086 0.35711 0.0
O21 O 0.29895 0.37342 0.43257 0.0
O22 O 0.56408 0.31386 0.3834 0.0
O23 O 0.22226 0.42522 0.43616 0.0
O24 O 0.44117 0.27727 0.41934 0.0
O25 O 0.58661 0.35445 0.41769 0.0
O26 O 0.44515 0.31765 0.45376 0.0
O27 O 0.37373 0.39331 0.3492 0.0
O28 O 0.44609 0.34194 0.34173 0.0
C29 C 0.2783 0.49748 0.35598 0.0
C30 C 0.41126 0.45366 0.42869 0.0
C31 C 0.12665 0.04307 0.9135 0.0
C32 C 0.29158 0.98349 0.84655 0.0
C33 C 0.41416 0.09645 0.85551 0.0
Mg34 Mg 0.06674 0.1293 0.92167 0.0
Mg35 Mg 0.06141 0.19441 0.87515 0.0
O36 O 0.12026 0.16237 0.89557 0.0
Mg37 Mg 0.17606 0.11879 0.8778 0.0
O38 O 0.22968 0.07259 0.86286 0.0
Mg39 Mg 0.28602 0.05496 0.89351 0.0
Mg40 Mg 0.27469 0.07249 0.83022 0.0
C41 C 0.20597 0.20125 0.84434 0.0
O42 O 0.1068 0.11579 0.84188 0.0
O43 O 0.02944 0.19032 0.93927 0.0
O44 O 0.18645 0.10046 0.81027 0.0
O45 O 0.96262 0.12582 0.89774 0.0
O46 O 0.0288 0.2343 0.90613 0.0
O47 O 0.97089 0.1623 0.86177 0.0
O48 O 0.2521 0.11715 0.91216 0.0
O49 O 0.17282 0.13031 0.94362 0.0
C50 C 0.23656 0.12329 0.93619 0.0
C51 C 0.01932 0.22587 0.93023 0.0
O52 O 0.23451 0.17053 0.85548 0.0
O53 O 0.29934 0.99483 0.87039 0.0
O54 O 0.14111 0.21123 0.84758 0.0
O55 O 0.38724 0.08172 0.87617 0.0
O56 O 0.28218 0.00816 0.82785 0.0
O57 O 0.37891 0.09858 0.83441 0.0
O58 O 0.1098 0.07425 0.90072 0.0
O59 O 0.18862 0.02854 0.91204 0.0
C60 C 0.93697 0.13797 0.87615 0.0
C61 C 0.12448 0.11137 0.81787 0.0
C62 C 0.78567 0.19354 0.62717 0.0
C63 C 0.59051 0.07647 0.63241 0.0
C64 C 0.78226 1.0007 0.63044 0.0
Mg65 Mg 0.94356 0.18614 0.60645 0.0
Mg66 Mg 0.98331 0.12913 0.55635 0.0
O67 O 0.94156 0.13157 0.58907 0.0
Mg68 Mg 0.84194 0.11489 0.59586 0.0
O69 O 0.74338 0.10151 0.60645 0.0
Mg70 Mg 0.75675 0.09932 0.64553 0.0
Mg71 Mg 0.70855 0.054 0.59192 0.0
C72 C 0.90646 0.04392 0.55824 0.0
O73 O 0.79633 0.12556 0.55515 0.0
O74 O 0.065 0.18203 0.60369 0.0
O75 O 0.71829 0.07441 0.55208 0.0
O76 O 0.94193 0.2201 0.5679 0.0
O77 O 0.08802 0.13938 0.57045 0.0
O78 O 0.95194 0.17957 0.5336 0.0
O79 O 0.87386 0.10367 0.63784 0.0
O80 O 0.9459 0.15517 0.64509 0.0
C81 C 0.91174 0.1247 0.65309 0.0
C82 C 0.10825 0.16159 0.58953 0.0
O83 O 0.86916 0.05173 0.5787 0.0
O84 O 0.63574 0.09357 0.64741 0.0
O85 O 0.94641 0.06968 0.54699 0.0
O86 O 0.77079 0.02885 0.64711 0.0
O87 O 0.60802 0.05813 0.61129 0.0
O88 O 0.77019 0.00539 0.60629 0.0
O89 O 0.82241 0.17867 0.60867 0.0
O90 O 0.75287 0.17082 0.64346 0.0
C91 C 0.94498 0.21469 0.54332 0.0
C92 C 0.74941 0.10535 0.5425 0.0
C93 C 0.72156 0.38886 0.04683 0.0
C94 C 0.51111 0.28573 0.05557 0.0
C95 C 0.41856 0.37635 0.10595 0.0
Mg96 Mg 0.76953 0.46097 0.08712 0.0
Mg97 Mg 0.75679 0.44821 0.15069 0.0
O98 O 0.71208 0.4461 0.11821 0.0
Mg99 Mg 0.65834 0.39884 0.10486 0.0
O100 O 0.60352 0.35392 0.08874 0.0
Mg101 Mg 0.55156 0.38385 0.06101 0.0
Mg102 Mg 0.54597 0.32195 0.10982 0.0
C103 C 0.60397 0.41439 0.1646 0.0
O104 O 0.71688 0.34858 0.12823 0.0
O105 O 0.7858 0.52285 0.10829 0.0
O106 O 0.62448 0.30852 0.1386 0.0
O107 O 0.86962 0.43436 0.10512 0.0
O108 O 0.76763 0.51204 0.151 0.0
O109 O 0.8598 0.41998 0.14728 0.0
O110 O 0.5923 0.44173 0.08 0.0
O111 O 0.67183 0.48706 0.06841 0.0
C112 C 0.60941 0.47307 0.06718 0.0
C113 C 0.77765 0.53579 0.13184 0.0
O114 O 0.58825 0.40493 0.141 0.0
O115 O 0.51858 0.32095 0.04571 0.0
O116 O 0.66556 0.42626 0.17179 0.0
O117 O 0.44564 0.38803 0.08442 0.0
O118 O 0.51955 0.27895 0.07992 0.0
O119 O 0.45193 0.35283 0.12096 0.0
O120 O 0.73513 0.3975 0.07064 0.0
O121 O 0.65834 0.38125 0.03931 0.0
C122 C 0.89553 0.42044 0.12614 0.0
C123 C 0.68969 0.31845 0.14047 0.0
C124 C 0.78918 0.64484 0.5446 0.0
C125 C 0.58109 0.74957 0.55789 0.0
C126 C 0.49679 0.66174 0.61006 0.0
Mg127 Mg 0.84281 0.57321 0.58289 0.0
Mg128 Mg 0.83688 0.58073 0.64728 0.0
O129 O 0.79058 0.58841 0.61558 0.0
Mg130 Mg 0.73679 0.63719 0.60439 0.0
O131 O 0.67978 0.68274 0.58983 0.0
Mg132 Mg 0.62333 0.65223 0.56324 0.0
Mg133 Mg 0.62521 0.71623 0.61171 0.0
C134 C 0.69384 0.62268 0.66621 0.0
O135 O 0.80052 0.6878 0.62603 0.0
O136 O 0.86197 0.50969 0.60162 0.0
O137 O 0.71194 0.73048 0.63763 0.0
O138 O 0.94716 0.59779 0.60041 0.0
O139 O 0.84459 0.51617 0.64479 0.0
O140 O 0.94001 0.60741 0.6434 0.0
O141 O 0.66497 0.59489 0.58115 0.0
O142 O 0.73992 0.55001 0.56484 0.0
C143 C 0.67803 0.56515 0.56609 0.0
C144 C 0.85588 0.49439 0.62452 0.0
O145 O 0.67465 0.63292 0.6431 0.0
O146 O 0.58865 0.71395 0.54849 0.0
O147 O 0.75378 0.60639 0.67123 0.0
O148 O 0.5229 0.64938 0.5885 0.0
O149 O 0.59251 0.75807 0.58192 0.0
O150 O 0.53049 0.68623 0.62459 0.0
O151 O 0.80788 0.63717 0.56803 0.0
O152 O 0.72492 0.65306 0.53895 0.0
C153 C 0.97456 0.60908 0.62204 0.0
C154 C 0.77697 0.71939 0.63812 0.0
C155 C 0.71377 0.89597 0.04365 0.0
C156 C 0.92599 0.79029 0.04858 0.0
C157 C 0.01274 0.87449 0.10412 0.0
Mg158 Mg 0.66702 0.96448 0.0871 0.0
Mg159 Mg 0.67535 0.94532 0.15043 0.0
O160 O 0.7213 0.94496 0.11791 0.0
Mg161 Mg 0.77323 0.89838 0.10246 0.0
O162 O 0.82784 0.85441 0.08431 0.0
Mg163 Mg 0.88298 0.88728 0.05866 0.0
Mg164 Mg 0.8851 0.82045 0.10423 0.0
C165 C 0.81961 0.89948 0.16332 0.0
O166 O 0.71133 0.84735 0.12341 0.0
O167 O 0.65479 0.02408 0.11089 0.0
O168 O 0.8026 0.80493 0.13118 0.0
O169 O 0.5634 0.93825 0.10335 0.0
O170 O 0.67228 0.01011 0.15334 0.0
O171 O 0.5699 0.92127 0.14515 0.0
O172 O 0.84265 0.94274 0.08049 0.0
O173 O 0.76715 0.99069 0.07002 0.0
C174 C 0.82879 0.9756 0.0689 0.0
C175 C 0.6633 0.03512 0.13476 0.0
O176 O 0.8399 0.89762 0.1394 0.0
O177 O 0.91754 0.82636 0.04018 0.0
O178 O 0.75842 0.91226 0.17056 0.0
O179 O 0.9867 0.88771 0.0829 0.0
O180 O 0.91578 0.78101 0.07252 0.0
O181 O 0.97832 0.85006 0.11827 0.0
O182 O 0.69861 0.9023 0.06769 0.0
O183 O 0.77736 0.88838 0.03631 0.0
C184 C 0.53538 0.92367 0.12389 0.0
C185 C 0.73816 0.81601 0.13433 0.0
C186 C 0.24011 0.83978 0.43382 0.0
C187 C 0.0863 0.73144 0.39526 0.0
C188 C 0.94398 0.8176 0.37142 0.0
Mg189 Mg 0.28159 0.91648 0.39869 0.0
Mg190 Mg 0.28397 0.91314 0.33456 0.0
O191 O 0.23249 0.90374 0.36534 0.0
Mg192 Mg 0.1842 0.85151 0.37422 0.0
O193 O 0.13087 0.80113 0.38551 0.0
Mg194 Mg 0.07336 0.82388 0.41868 0.0
Mg195 Mg 0.0863 0.77613 0.35383 0.0
C196 C 0.14391 0.87017 0.31347 0.0
O197 O 0.25673 0.80906 0.35057 0.0
O198 O 0.29742 0.98128 0.38246 0.0
O199 O 0.17322 0.78018 0.32596 0.0
O200 O 0.39101 0.89652 0.38203 0.0
O201 O 0.291 0.97824 0.33877 0.0
O202 O 0.38777 0.88633 0.33913 0.0
O203 O 0.10789 0.88401 0.39997 0.0
O204 O 0.17284 0.93476 0.41523 0.0
C205 C 0.11435 0.91567 0.41401 0.0
C206 C 0.29631 0.99845 0.36006 0.0
O207 O 0.12288 0.85918 0.33621 0.0
O208 O 0.11124 0.76753 0.39644 0.0
O209 O 0.20415 0.88672 0.30905 0.0
O210 O 0.97068 0.82344 0.39409 0.0
O211 O 0.07676 0.71757 0.37236 0.0
O212 O 0.98057 0.80389 0.35218 0.0
O213 O 0.25263 0.85059 0.41042 0.0
O214 O 0.17947 0.82637 0.44069 0.0
C215 C 0.4211 0.88576 0.36072 0.0
C216 C 0.23792 0.78362 0.3329 0.0
C217 C 0.33383 0.54882 0.90766 0.0
C218 C 0.17575 0.48434 0.84077 0.0
C219 C 0.04616 0.59473 0.84715 0.0
Mg220 Mg 0.38983 0.63641 0.91525 0.0
Mg221 Mg 0.39604 0.70068 0.8679 0.0
O222 O 0.33765 0.66753 0.88793 0.0
Mg223 Mg 0.28397 0.62285 0.87042 0.0
O224 O 0.23243 0.57568 0.8557 0.0
Mg225 Mg 0.17514 0.558 0.88632 0.0
Mg226 Mg 0.18915 0.57353 0.82282 0.0
C227 C 0.25201 0.70397 0.83648 0.0
O228 O 0.35363 0.62061 0.83383 0.0
O229 O 0.42223 0.69853 0.93233 0.0
O230 O 0.27575 0.60304 0.80229 0.0
O231 O 0.49655 0.63407 0.89256 0.0
O232 O 0.42249 0.74211 0.89896 0.0
O233 O 0.49121 0.67049 0.85646 0.0
O234 O 0.20507 0.62159 0.9044 0.0
O235 O 0.28168 0.63712 0.9361 0.0
C236 C 0.21858 0.62949 0.92838 0.0
C237 C 0.43069 0.73416 0.9232 0.0
O238 O 0.22477 0.67316 0.84792 0.0
O239 O 0.16457 0.49697 0.86419 0.0
O240 O 0.31667 0.71472 0.83933 0.0
O241 O 0.07308 0.58103 0.86803 0.0
O242 O 0.18613 0.50848 0.82175 0.0
O243 O 0.08268 0.59831 0.82634 0.0
O244 O 0.35132 0.57978 0.89465 0.0
O245 O 0.27246 0.53381 0.90555 0.0
C246 C 0.52446 0.64673 0.87141 0.0
C247 C 0.33659 0.6159 0.80972 0.0
H248 H 0.03041 0.35729 0.33145 0.0
H249 H 0.97947 0.46387 0.37642 0.0
H250 H 0.91168 0.33141 0.33906 0.0
H251 H 0.86087 0.43822 0.38361 0.0
H252 H 0.66398 0.31807 0.3501 0.0
H253 H 0.77885 0.34122 0.33449 0.0
H254 H 0.83201 0.37963 0.41253 0.0
H255 H 0.71767 0.35703 0.42812 0.0
C256 C 0.99309 0.3759 0.34207 0.0
C257 C 0.01448 0.4122 0.35385 0.0
C258 C 0.92533 0.36092 0.34653 0.0
C259 C 0.8784 0.38224 0.36267 0.0
C260 C 0.89715 0.42066 0.3718 0.0
C261 C 0.96469 0.4355 0.36747 0.0
C262 C 0.70097 0.33047 0.36404 0.0
C263 C 0.68151 0.33635 0.39028 0.0
C264 C 0.76637 0.34396 0.35503 0.0
C265 C 0.8129 0.3634 0.37217 0.0
C266 C 0.79586 0.36598 0.39876 0.0
C267 C 0.73079 0.35262 0.40774 0.0
H268 H 0.50686 0.10366 0.81441 0.0
H269 H 0.49326 0.11335 0.89825 0.0
H270 H 0.63526 0.11107 0.81694 0.0
H271 H 0.62022 0.12148 0.90072 0.0
H272 H 0.84748 0.08756 0.90207 0.0
H273 H 0.72174 0.07857 0.8949 0.0
H274 H 0.73229 0.15663 0.82807 0.0
H275 H 0.85881 0.16488 0.83481 0.0
C276 C 0.53103 0.10816 0.8333 0.0
C277 C 0.48989 0.10752 0.85614 0.0
C278 C 0.6046 0.11227 0.83477 0.0
C279 C 0.63823 0.11593 0.85909 0.0
C280 C 0.59641 0.11744 0.88173 0.0
C281 C 0.52337 0.11319 0.88028 0.0
C282 C 0.82336 0.10239 0.88561 0.0
C283 C 0.86323 0.12743 0.86927 0.0
C284 C 0.75101 0.09753 0.88163 0.0
C285 C 0.71652 0.11768 0.86128 0.0
C286 C 0.75708 0.14077 0.84396 0.0
C287 C 0.82967 0.14555 0.8479 0.0
H288 H 0.21924 0.134 0.56097 0.0
H289 H 0.16355 0.17911 0.63754 0.0
H290 H 0.33268 0.11202 0.57752 0.0
H291 H 0.27774 0.15664 0.65413 0.0
H292 H 0.48009 0.03123 0.61579 0.0
H293 H 0.36082 0.05575 0.60854 0.0
H294 H 0.41143 0.16625 0.64898 0.0
H295 H 0.5309 0.14147 0.65666 0.0
C296 C 0.23167 0.13982 0.58123 0.0
C297 C 0.18211 0.15776 0.59801 0.0
C298 C 0.29626 0.12682 0.59077 0.0
C299 C 0.31265 0.13144 0.61729 0.0
C300 C 0.26576 0.15231 0.63369 0.0
C301 C 0.20077 0.16541 0.62411 0.0
C302 C 0.46508 0.06017 0.62391 0.0
C303 C 0.51499 0.08478 0.63631 0.0
C304 C 0.39715 0.07436 0.61955 0.0
C305 C 0.37813 0.11343 0.6274 0.0
C306 C 0.42524 0.13619 0.64251 0.0
C307 C 0.49341 0.12185 0.64703 0.0
H308 H 0.98846 0.41607 0.16715 0.0
H309 H 0.97332 0.39832 0.08391 0.0
H310 H 0.11668 0.40745 0.16439 0.0
H311 H 0.10007 0.38898 0.08124 0.0
H312 H 0.33995 0.35232 0.14806 0.0
H313 H 0.21327 0.3606 0.15465 0.0
H314 H 0.20193 0.43216 0.08486 0.0
H315 H 0.32793 0.42314 0.07788 0.0
C316 C 0.01224 0.40948 0.14839 0.0
C317 C 0.97078 0.40829 0.12573 0.0
C318 C 0.0857 0.40468 0.14678 0.0
C319 C 0.11888 0.39848 0.12249 0.0
C320 C 0.07664 0.39499 0.10014 0.0
C321 C 0.00373 0.39994 0.10173 0.0
C322 C 0.3106 0.3702 0.13424 0.0
C323 C 0.34413 0.38661 0.11221 0.0
C324 C 0.2379 0.37501 0.13809 0.0
C325 C 0.19713 0.39636 0.12002 0.0
C326 C 0.23141 0.4146 0.0988 0.0
C327 C 0.30391 0.40975 0.09492 0.0
H328 H 0.40954 0.69362 0.64795 0.0
H329 H 0.41604 0.60486 0.58607 0.0
H330 H 0.28235 0.68274 0.65257 0.0
H331 H 0.29029 0.59373 0.59098 0.0
H332 H 0.06061 0.62207 0.58021 0.0
H333 H 0.187 0.6339 0.58017 0.0
H334 H 0.18761 0.63411 0.6643 0.0
H335 H 0.0601 0.62274 0.66443 0.0
C336 C 0.38425 0.67129 0.63569 0.0
C337 C 0.42292 0.65057 0.61637 0.0
C338 C 0.31136 0.66509 0.63833 0.0
C339 C 0.27591 0.63806 0.62171 0.0
C340 C 0.31556 0.61562 0.60358 0.0
C341 C 0.38796 0.62179 0.60092 0.0
C342 C 0.08732 0.62492 0.59876 0.0
C343 C 0.05006 0.62104 0.62232 0.0
C344 C 0.16004 0.63142 0.59873 0.0
C345 C 0.19768 0.63415 0.62224 0.0
C346 C 0.16017 0.6321 0.64586 0.0
C347 C 0.08708 0.62557 0.64591 0.0
H348 H 0.45495 0.91141 0.08069 0.0
H349 H 0.44386 0.91051 0.16478 0.0
H350 H 0.32864 0.90039 0.07834 0.0
H351 H 0.3161 0.90017 0.16238 0.0
H352 H 0.09537 0.84346 0.14316 0.0
H353 H 0.22195 0.8535 0.14947 0.0
H354 H 0.22391 0.93933 0.08668 0.0
H355 H 0.09853 0.92871 0.07997 0.0
C356 C 0.42558 0.90876 0.09874 0.0
C357 C 0.45965 0.91224 0.12294 0.0
C358 C 0.35284 0.90276 0.09738 0.0
C359 C 0.31178 0.90026 0.12017 0.0
C360 C 0.34609 0.90199 0.14444 0.0
C361 C 0.41933 0.90789 0.14582 0.0
C362 C 0.1227 0.86481 0.13089 0.0
C363 C 0.08682 0.88483 0.11079 0.0
C364 C 0.19531 0.87061 0.13456 0.0
C365 C 0.23352 0.89659 0.11823 0.0
C366 C 0.19665 0.91822 0.09913 0.0
C367 C 0.12443 0.91237 0.09543 0.0
H368 H 0.84362 0.8171 0.4092 0.0
H369 H 0.86989 0.83628 0.32666 0.0
H370 H 0.71882 0.83085 0.40564 0.0
H371 H 0.74404 0.8524 0.32315 0.0
H372 H 0.50049 0.8481 0.32249 0.0
H373 H 0.62563 0.83026 0.32396 0.0
H374 H 0.63962 0.88236 0.40117 0.0
H375 H 0.51502 0.89801 0.40014 0.0
C376 C 0.8228 0.82481 0.39024 0.0
C377 C 0.86719 0.82593 0.36826 0.0
C378 C 0.75078 0.83304 0.3882 0.0
C379 C 0.72051 0.84358 0.36418 0.0
C380 C 0.7648 0.84415 0.34199 0.0
C381 C 0.83719 0.83513 0.34398 0.0
C382 C 0.53037 0.85543 0.33983 0.0
C383 C 0.49721 0.8742 0.36128 0.0
C384 C 0.60248 0.8455 0.34061 0.0
C385 C 0.64357 0.85446 0.36276 0.0
C386 C 0.61013 0.87379 0.38398 0.0
C387 C 0.5382 0.88311 0.38335 0.0
H388 H 0.94906 0.5484 0.87044 0.0
H389 H 0.96892 0.65495 0.82352 0.0
H390 H 0.82287 0.55815 0.87332 0.0
H391 H 0.84131 0.66658 0.82771 0.0
H392 H 0.59937 0.66133 0.82643 0.0
H393 H 0.72382 0.64736 0.81788 0.0
H394 H 0.74369 0.5982 0.89531 0.0
H395 H 0.61945 0.60981 0.90308 0.0
C396 C 0.92619 0.57429 0.86092 0.0
C397 C 0.96893 0.60125 0.84706 0.0
C398 C 0.8536 0.5801 0.86273 0.0
C399 C 0.82137 0.61374 0.85134 0.0
C400 C 0.86394 0.64022 0.8367 0.0
C401 C 0.93709 0.63378 0.83437 0.0
C402 C 0.63018 0.64684 0.84141 0.0
C403 C 0.59898 0.63623 0.86533 0.0
C404 C 0.70191 0.63929 0.83663 0.0
C405 C 0.74443 0.62144 0.8558 0.0
C406 C 0.71283 0.61099 0.87971 0.0
C407 C 0.6412 0.61789 0.88429 0.0
H408 H 0.5898 0.46575 0.20505 0.0
H409 H 0.49375 0.36185 0.16889 0.0
H410 H 0.5113 0.45939 0.24211 0.0
H411 H 0.41307 0.35585 0.206 0.0
H412 H 0.43911 0.3192 0.29493 0.0
H413 H 0.45456 0.33349 0.24912 0.0
H414 H 0.39375 0.45716 0.26289 0.0
H415 H 0.37933 0.44284 0.3093 0.0
C416 C 0.55059 0.44204 0.20484 0.0
C417 C 0.5486 0.41367 0.18453 0.0
C418 C 0.50467 0.43886 0.22582 0.0
C419 C 0.45635 0.40697 0.22699 0.0
C420 C 0.45017 0.38061 0.20557 0.0
C421 C 0.49612 0.384 0.18439 0.0
C422 C 0.42797 0.34932 0.28816 0.0
C423 C 0.41025 0.38029 0.3057 0.0
C424 C 0.43544 0.35732 0.26178 0.0
C425 C 0.42585 0.39652 0.25249 0.0
C426 C 0.40188 0.42673 0.26967 0.0
C427 C 0.39395 0.41861 0.29616 0.0
H428 H 0.14636 0.13679 0.76883 0.0
H429 H 0.98247 0.09783 0.82176 0.0
H430 H 0.06143 0.13787 0.73344 0.0
H431 H 0.89687 0.09876 0.78572 0.0
H432 H 0.8872 0.18378 0.68794 0.0
H433 H 0.90888 0.18042 0.73464 0.0
H434 H 0.94217 0.05242 0.72814 0.0
H435 H 0.91916 0.05556 0.68114 0.0
C436 C 0.09201 0.12887 0.77291 0.0
C437 C 0.07081 0.11702 0.79784 0.0
C438 C 0.04367 0.12952 0.75276 0.0
C439 C 0.97357 0.11809 0.75717 0.0
C440 C 0.95107 0.10752 0.78218 0.0
C441 C -0.00032 0.1073 0.80262 0.0
C442 C 0.89626 0.15468 0.69671 0.0
C443 C 0.90422 0.12006 0.6812 0.0
C444 C 0.90727 0.15273 0.72339 0.0
C445 C 0.92714 0.11626 0.73461 0.0
C446 C 0.92581 0.08071 0.7197 0.0
C447 C 0.91378 0.08256 0.69291 0.0
H448 H 0.5794 0.67283 0.66943 0.0
H449 H 0.69676 0.58443 0.71279 0.0
H450 H 0.49381 0.67774 0.70499 0.0
H451 H 0.61189 0.58908 0.74802 0.0
H452 H 0.31441 0.62726 0.75777 0.0
H453 H 0.40303 0.63475 0.72376 0.0
H454 H 0.56739 0.6323 0.7819 0.0
H455 H 0.47895 0.62291 0.81576 0.0
C456 C 0.58661 0.65434 0.68642 0.0
C457 C 0.64407 0.62786 0.6881 0.0
C458 C 0.53793 0.65726 0.70683 0.0
C459 C 0.54615 0.63379 0.7293 0.0
C460 C 0.60467 0.6081 0.73119 0.0
C461 C 0.65316 0.60527 0.71088 0.0
C462 C 0.36945 0.62857 0.76332 0.0
C463 C 0.38977 0.6244 0.78948 0.0
C464 C 0.42016 0.63332 0.74385 0.0
C465 C 0.49216 0.634 0.75017 0.0
C466 C 0.51227 0.63148 0.77643 0.0
C467 C 0.46159 0.62657 0.79588 0.0
H468 H 0.96173 0.90944 0.16436 0.0
H469 H 0.78724 0.85951 0.20755 0.0
H470 H 0.04059 0.89475 0.2003 0.0
H471 H 0.86653 0.84197 0.24291 0.0
H472 H 0.00099 0.87475 0.31387 0.0
H473 H 0.92322 0.87475 0.2764 0.0
H474 H 0.10162 0.85004 0.22583 0.0
H475 H 0.17967 0.85297 0.26338 0.0
C476 C 0.94078 0.89448 0.1814 0.0
C477 C 0.86854 0.88634 0.18358 0.0
C478 C 0.98597 0.88565 0.20195 0.0
C479 C 0.95992 0.86755 0.22479 0.0
C480 C 0.88814 0.85704 0.22605 0.0
C481 C 0.84272 0.86687 0.20578 0.0
C482 C 0.02321 0.86893 0.29473 0.0
C483 C 0.09616 0.86457 0.29133 0.0
C484 C 0.97865 0.86858 0.27319 0.0
C485 C 0.00608 0.86283 0.2479 0.0
C486 C 0.07881 0.85577 0.24486 0.0
C487 C 0.12353 0.85717 0.26634 0.0
H488 H 0.65058 0.07229 0.50999 0.0
H489 H 0.7677 0.1818 0.52445 0.0
H490 H 0.56169 0.11054 0.48654 0.0
H491 H 0.67936 0.2196 0.50065 0.0
H492 H 0.47567 0.28284 0.49561 0.0
H493 H 0.55471 0.23458 0.51564 0.0
H494 H 0.53323 0.15568 0.44902 0.0
H495 H 0.45307 0.20358 0.42898 0.0
C496 C 0.65877 0.10426 0.5074 0.0
C497 C 0.71511 0.12419 0.51984 0.0
C498 C 0.60748 0.12614 0.49412 0.0
C499 C 0.61219 0.16814 0.49291 0.0
C500 C 0.67319 0.18732 0.50229 0.0
C501 C 0.72451 0.16551 0.51551 0.0
C502 C 0.48554 0.25461 0.48559 0.0
C503 C 0.46014 0.24778 0.46026 0.0
C504 C 0.53185 0.22729 0.49688 0.0
C505 C 0.55268 0.19249 0.48321 0.0
C506 C 0.51929 0.1828 0.45966 0.0
C507 C 0.47292 0.21018 0.44831 0.0
H508 H 0.85883 0.37238 0.05921 0.0
H509 H 0.71625 0.38207 -0.006 0.0
H510 H 0.94658 0.34064 0.03085 0.0
H511 H 0.80355 0.35026 0.96583 0.0
H512 H 0.97968 0.30241 0.91752 0.0
H513 H 0.92279 0.35218 0.94559 0.0
H514 H 0.94094 0.27161 0.01086 0.0
H515 H 0.99831 0.22185 0.98296 0.0
C516 C 0.84696 0.36883 0.0387 0.0
C517 C 0.78021 0.37913 0.02888 0.0
C518 C 0.89703 0.35039 0.02253 0.0
C519 C 0.88148 0.34248 -0.00376 0.0
C520 C 0.81721 0.3561 0.98598 0.0
C521 C 0.76699 0.37413 0.00216 0.0
C522 C 0.97257 0.29546 0.93794 0.0
C523 C 0.99255 0.25781 0.9479 0.0
C524 C 0.93997 0.32403 0.95399 0.0
C525 C 0.92714 0.3157 0.98035 0.0
C526 C 0.9508 0.27906 -0.00934 0.0
C527 C 0.98306 0.25037 0.9746 0.0
H528 H 0.98322 0.21475 0.4919 0.0
H529 H 0.95477 0.29375 0.55844 0.0
H530 H 0.06221 0.26361 0.47236 0.0
H531 H 0.03482 0.3423 0.53884 0.0
H532 H 0.15198 0.42656 0.47771 0.0
H533 H 0.06365 0.38769 0.50116 0.0
H534 H 0.18577 0.27979 0.48812 0.0
H535 H 0.27367 0.31819 0.46436 0.0
C536 C 0.99183 0.24301 0.50201 0.0
C537 C 0.96469 0.24962 0.52717 0.0
C538 C 0.0381 0.2707 0.491 0.0
C539 C 0.05721 0.30567 0.50477 0.0
C540 C 0.02224 0.31506 0.52814 0.0
C541 C 0.97592 0.2873 0.53922 0.0
C542 C 0.16131 0.39475 0.48054 0.0
C543 C 0.21878 0.37526 0.46836 0.0
C544 C 0.1103 0.3725 0.49383 0.0
C545 C 0.11644 0.33058 0.49531 0.0
C546 C 0.17852 0.31196 0.48626 0.0
C547 C 0.22955 0.33414 0.47305 0.0
H548 H 0.47343 0.20931 0.06957 0.0
H549 H 0.50171 0.2858 0.00251 0.0
H550 H 0.42559 0.15664 0.04144 0.0
H551 H 0.45329 0.23348 0.97465 0.0
H552 H 0.3767 0.13573 0.92607 0.0
H553 H 0.46257 0.16466 0.95613 0.0
H554 H 0.31094 0.15586 0.01884 0.0
H555 H 0.22575 0.12657 0.98906 0.0
C556 C 0.47043 0.21472 0.04882 0.0
C557 C 0.49003 0.25209 0.03834 0.0
C558 C 0.44317 0.1845 0.03274 0.0
C559 C 0.43546 0.19099 0.0059 0.0
C560 C 0.45936 0.22734 -0.00477 0.0
C561 C 0.48626 0.25759 0.01127 0.0
C562 C 0.36252 0.13876 0.94645 0.0
C563 C 0.29384 0.12998 0.9551 0.0
C564 C 0.41161 0.15547 0.96361 0.0
C565 C 0.39289 0.16329 0.98967 0.0
C566 C 0.327 0.15021 -0.00112 0.0
C567 C 0.27788 0.13373 0.98174 0.0
H568 H 0.22928 0.82882 0.48633 0.0
H569 H 0.3792 0.8574 0.42562 0.0
H570 H 0.32514 0.82353 0.51739 0.0
H571 H 0.47506 0.8532 0.45692 0.0
H572 H 0.59412 0.75334 0.50541 0.0
H573 H 0.51968 0.79117 0.47609 0.0
H574 H 0.42499 0.85288 0.54182 0.0
H575 H 0.49966 0.81435 0.57139 0.0
C576 C 0.28252 0.83487 0.47972 0.0
C577 C 0.29679 0.84271 0.45338 0.0
C578 C 0.33745 0.83243 0.49763 0.0
C579 C 0.4077 0.83775 0.48955 0.0
C580 C 0.42144 0.84864 0.46364 0.0
C581 C 0.36647 0.85105 0.44571 0.0
C582 C 0.55891 0.77585 0.51357 0.0
C583 C 0.55131 0.78029 0.54063 0.0
C584 C 0.51665 0.79785 0.49675 0.0
C585 C 0.46564 0.82451 0.50671 0.0
C586 C 0.46326 0.83207 0.53369 0.0
C587 C 0.50618 0.8102 0.55057 0.0
H588 H 0.96417 0.71283 0.05982 0.0
H589 H 0.94669 0.79632 -0.00408 0.0
H590 H 0.01959 0.66384 0.03072 0.0
H591 H 0.00263 0.74744 0.96703 0.0
H592 H 0.08194 0.64865 0.91636 0.0
H593 H 0.99562 0.68016 0.94548 0.0
H594 H 0.1377 0.6643 0.01024 0.0
H595 H 0.22345 0.63273 0.98133 0.0
C596 C 0.97122 0.7206 0.03952 0.0
C597 C 0.95189 0.75882 0.03031 0.0
C598 C 0.00305 0.69249 0.02288 0.0
C599 C 0.01579 0.70184 -0.00337 0.0
C600 C 0.99286 0.73913 0.98708 0.0
C601 C 0.96139 0.76734 0.00374 0.0
C602 C 0.09383 0.65079 0.93695 0.0
C603 C 0.15998 0.63881 0.9465 0.0
C604 C 0.0446 0.66912 0.95357 0.0
C605 C 0.06033 0.67526 0.98006 0.0
C606 C 0.12382 0.65992 0.98997 0.0
C607 C 0.17319 0.64199 0.97335 0.0
H608 H 0.08716 0.75775 0.44576 0.0
H609 H 0.01325 0.66073 0.39656 0.0
H610 H 0.02471 0.72882 0.48275 0.0
H611 H 0.95205 0.63133 0.43369 0.0
H612 H 0.76555 0.63849 0.49268 0.0
H613 H 0.84697 0.65317 0.45748 0.0
H614 H 0.01458 0.67121 0.51321 0.0
H615 H 0.93208 0.65679 0.54882 0.0
C616 C 0.05814 0.73005 0.4429 0.0
C617 C 0.0538 0.712 0.41813 0.0
C618 C 0.02307 0.7132 0.46417 0.0
C619 C 0.98308 0.67792 0.46109 0.0
C620 C 0.98166 0.65884 0.43658 0.0
C621 C 0.0167 0.67569 0.41532 0.0
C622 C 0.82001 0.64499 0.49747 0.0
C623 C 0.84221 0.64702 0.52353 0.0
C624 C 0.86688 0.65309 0.47724 0.0
C625 C 0.93712 0.66361 0.48256 0.0
C626 C 0.96048 0.66361 0.50857 0.0
C627 C 0.91347 0.6551 0.52891 0.0
H628 H 0.44405 0.73131 0.97621 0.0
H629 H 0.4708 0.81081 0.91059 0.0
H630 H 0.49692 0.78157 0.00468 0.0
H631 H 0.52315 0.86129 0.93928 0.0
H632 H 0.72327 0.89192 -0.00926 0.0
H633 H 0.63871 0.86109 0.96128 0.0
H634 H 0.48958 0.84976 0.02459 0.0
H635 H 0.57469 0.88041 0.05429 0.0
C636 C 0.46009 0.75975 0.9679 0.0
C637 C 0.45424 0.7667 0.94102 0.0
C638 C 0.48975 0.78877 0.98431 0.0
C639 C 0.51446 0.82535 0.9742 0.0
C640 C 0.50512 0.83323 0.94757 0.0
C641 C 0.47509 0.80427 0.93116 0.0
C642 C 0.67176 0.88387 -0.00174 0.0
C643 C 0.65628 0.88783 0.02494 0.0
C644 C 0.62305 0.86639 0.98132 0.0
C645 C 0.55794 0.85237 -0.00927 0.0
C646 C 0.53987 0.85971 0.01691 0.0
C647 C 0.58848 0.87752 0.03387 0.0
H648 H 0.3146 0.04781 0.31757 0.0
H649 H 0.27218 0.05068 0.40029 0.0
H650 H 0.30815 0.12132 0.31647 0.0
H651 H 0.26274 0.12322 0.39902 0.0
H652 H 0.32957 0.25127 0.39731 0.0
H653 H 0.33504 0.17914 0.39533 0.0
H654 H 0.23322 0.1805 0.32011 0.0
H655 H 0.23205 0.2545 0.32146 0.0
C656 C 0.30388 0.06405 0.33551 0.0
C657 C 0.29505 0.04322 0.3591 0.0
C658 C 0.29943 0.10622 0.33482 0.0
C659 C 0.28547 0.12852 0.35767 0.0
C660 C 0.2754 0.10742 0.3811 0.0
C661 C 0.28071 0.06556 0.38184 0.0
C662 C 0.30924 0.23657 0.38006 0.0
C663 C 0.28142 0.25905 0.35936 0.0
C664 C 0.31125 0.19477 0.37913 0.0
C665 C 0.28395 0.17355 0.35769 0.0
C666 C 0.25534 0.1958 0.33688 0.0
C667 C 0.25402 0.23818 0.33772 0.0
H668 H 0.1879 0.23464 0.79689 0.0
H669 H 0.31364 0.24211 0.86652 0.0
H670 H 0.19367 0.30729 0.79224 0.0
H671 H 0.32047 0.31494 0.86182 0.0
H672 H 0.17608 0.42477 0.87723 0.0
H673 H 0.21354 0.35547 0.87172 0.0
H674 H 0.24681 0.37522 0.78955 0.0
H675 H 0.20873 0.44507 0.79494 0.0
C676 C 0.2212 0.25157 0.81013 0.0
C677 C 0.2489 0.23296 0.8324 0.0
C678 C 0.22362 0.2934 0.8077 0.0
C679 C 0.25476 0.31695 0.82736 0.0
C680 C 0.29403 0.29755 0.84685 0.0
C681 C 0.29168 0.25566 0.8492 0.0
C682 C 0.19075 0.41448 0.85789 0.0
C683 C 0.18899 0.4407 0.83653 0.0
C684 C 0.2136 0.37481 0.85483 0.0
C685 C 0.23508 0.36008 0.83031 0.0
C686 C 0.23139 0.3858 0.80874 0.0
C687 C 0.20891 0.42572 0.81183 0.0
H688 H 0.90052 0.43655 0.58979 0.0
H689 H 0.80312 0.45136 0.66542 0.0
H690 H 0.8832 0.36415 0.5925 0.0
H691 H 0.78235 0.37935 0.66759 0.0
H692 H 0.80216 0.24075 0.67109 0.0
H693 H 0.82539 0.31335 0.67201 0.0
H694 H 0.79218 0.31797 0.58873 0.0
H695 H 0.77283 0.24593 0.58791 0.0
C696 C 0.87557 0.42436 0.60703 0.0
C697 C 0.85306 0.44991 0.6273 0.0
C698 C 0.86479 0.38278 0.60851 0.0
C699 C 0.82985 0.36563 0.63006 0.0
C700 C 0.80976 0.39112 0.65076 0.0
C701 C 0.8216 0.43263 0.64946 0.0
C702 C 0.79866 0.25766 0.65317 0.0
C703 C 0.78559 0.23785 0.62946 0.0
C704 C 0.81226 0.29924 0.6536 0.0
C705 C 0.8122 0.32173 0.63033 0.0
C706 C 0.79524 0.3018 0.60693 0.0
C707 C 0.7829 0.26049 0.60649 0.0
H708 H 0.77794 0.07358 0.1173 0.0
H709 H 0.59236 0.09055 0.16471 0.0
H710 H 0.81584 0.14193 0.12684 0.0
H711 H 0.62609 0.16043 0.17264 0.0
H712 H 0.68365 0.28223 0.18784 0.0
H713 H 0.69424 0.20951 0.19132 0.0
H714 H 0.79508 0.20611 0.11557 0.0
H715 H 0.7892 0.27845 0.11348 0.0
C716 C 0.74461 0.09251 0.12943 0.0
C717 C 0.68154 0.07742 0.13982 0.0
C718 C 0.76624 0.13179 0.13493 0.0
C719 C 0.72416 0.15747 0.1504 0.0
C720 C 0.66114 0.14176 0.1611 0.0
C721 C 0.64072 0.10191 0.15621 0.0
C722 C 0.71267 0.26599 0.1729 0.0
C723 C 0.73448 0.28582 0.15018 0.0
C724 C 0.71665 0.22405 0.17441 0.0
C725 C 0.74159 0.20128 0.15305 0.0
C726 C 0.77446 0.22199 0.1324 0.0
C727 C 0.77215 0.26397 0.13129 0.0
H728 H 0.78354 0.75719 0.68536 0.0
H729 H 0.87297 0.75649 0.60819 0.0
H730 H 0.81206 0.8282 0.69011 0.0
H731 H 0.89515 0.82766 0.6114 0.0
H732 H 0.89417 0.95894 0.61131 0.0
H733 H 0.92791 0.89005 0.62108 0.0
H734 H 0.75594 0.88345 0.67675 0.0
H735 H 0.72801 0.9534 0.66855 0.0
C736 C 0.81229 0.77193 0.66985 0.0
C737 C 0.8257 0.75144 0.64636 0.0
C738 C 0.82675 0.8131 0.67216 0.0
C739 C 0.85225 0.83495 0.65062 0.0
C740 C 0.87493 0.81284 0.62854 0.0
C741 C 0.86282 0.77142 0.62666 0.0
C742 C 0.8651 0.94277 0.62613 0.0
C743 C 0.80826 0.96117 0.63908 0.0
C744 C 0.88379 0.90298 0.6316 0.0
C745 C 0.84399 0.87993 0.64934 0.0
C746 C 0.78921 0.89956 0.66324 0.0
C747 C 0.77234 0.93983 0.65842 0.0
H748 H 0.77269 0.59633 0.09588 0.0
H749 H 0.74976 0.57347 0.17832 0.0
H750 H 0.73182 0.66491 0.10282 0.0
H751 H 0.70687 0.64169 0.18505 0.0
H752 H 0.75163 0.78219 0.1818 0.0
H753 H 0.75008 0.7094 0.18435 0.0
H754 H 0.62661 0.70397 0.1138 0.0
H755 H 0.63004 0.77708 0.11112 0.0
C756 C 0.75959 0.60595 0.11551 0.0
C757 C 0.76496 0.57927 0.1365 0.0
C758 C 0.73456 0.64506 0.11943 0.0
C759 C 0.7141 0.65848 0.14442 0.0
C760 C 0.72159 0.63226 0.16554 0.0
C761 C 0.74682 0.59318 0.16165 0.0
C762 C 0.71983 0.76557 0.1679 0.0
C763 C 0.69325 0.78493 0.14576 0.0
C764 C 0.71996 0.72364 0.16908 0.0
C765 C 0.69154 0.7009 0.14845 0.0
C766 C 0.65161 0.72079 0.12938 0.0
C767 C 0.65175 0.76279 0.12823 0.0
H768 H 0.38003 0.54796 0.3741 0.0
H769 H 0.21785 0.53749 0.31586 0.0
H770 H 0.40026 0.61759 0.3618 0.0
H771 H 0.23205 0.60792 0.3051 0.0
H772 H 0.24503 0.73522 0.2896 0.0
H773 H 0.27934 0.66464 0.28947 0.0
H774 H 0.35419 0.6782 0.36868 0.0
H775 H 0.32609 0.74869 0.36757 0.0
C776 C 0.3489 0.56075 0.35853 0.0
C777 C 0.29715 0.53761 0.346 0.0
C778 C 0.35973 0.60093 0.35161 0.0
C779 C 0.3168 0.61956 0.33278 0.0
C780 C 0.26733 0.59532 0.3194 0.0
C781 C 0.25845 0.55472 0.32569 0.0
C782 C 0.27216 0.72332 0.30642 0.0
C783 C 0.28223 0.74748 0.32864 0.0
C784 C 0.29042 0.68247 0.30667 0.0
C785 C 0.31681 0.66451 0.3295 0.0
C786 C 0.33409 0.69004 0.3506 0.0
C787 C 0.31801 0.73106 0.35 0.0
H788 H 0.25955 0.74024 0.78915 0.0
H789 H 0.14927 0.74247 0.86258 0.0
H790 H 0.25172 0.81317 0.78675 0.0
H791 H 0.14634 0.81485 0.8617 0.0
H792 H 0.17492 0.94677 0.86337 0.0
H793 H 0.13212 0.88007 0.85203 0.0
H794 H 0.32287 0.85893 0.80724 0.0
H795 H 0.36151 0.92743 0.81688 0.0
C796 C 0.23001 0.75625 0.80407 0.0
C797 C 0.2068 0.736 0.82642 0.0
C798 C 0.22765 0.79824 0.8032 0.0
C799 C 0.20282 0.82041 0.82485 0.0
C800 C 0.16733 0.79941 0.84476 0.0
C801 C 0.16791 0.75741 0.84516 0.0
C802 C 0.20758 0.92751 0.85121 0.0
C803 C 0.27231 0.94144 0.84156 0.0
C804 C 0.18305 0.88924 0.8446 0.0
C805 C 0.22376 0.8634 0.82877 0.0
C806 C 0.28876 0.87787 0.81899 0.0
C807 C 0.3121 0.9168 0.82494 0.0
H808 H 0.70534 0.52897 0.51925 0.0
H809 H 0.53599 0.58062 0.56487 0.0
H810 H 0.6251 0.51876 0.48309 0.0
H811 H 0.45542 0.57155 0.52815 0.0
H812 H 0.33945 0.4785 0.47104 0.0
H813 H 0.39933 0.51582 0.5053 0.0
H814 H 0.55756 0.55343 0.44987 0.0
H815 H 0.49803 0.51491 0.41582 0.0
C816 C 0.65085 0.53815 0.52161 0.0
C817 C 0.62713 0.55567 0.54502 0.0
C818 C 0.60501 0.53307 0.50062 0.0
C819 C 0.53403 0.54526 0.50242 0.0
C820 C 0.50987 0.56221 0.52599 0.0
C821 C 0.55599 0.5674 0.54703 0.0
C822 C 0.38424 0.49706 0.4658 0.0
C823 C 0.41466 0.49351 0.44091 0.0
C824 C 0.41934 0.51805 0.48558 0.0
C825 C 0.48492 0.53616 0.48055 0.0
C826 C 0.5083 0.53859 0.45454 0.0
C827 C 0.47327 0.51739 0.43482 0.0
H828 H 0.80853 0.03807 0.03519 0.0
H829 H 0.9613 0.94857 0.05762 0.0
H830 H 0.882 0.05598 -0.00186 0.0
H831 H 0.03145 0.96366 0.01968 0.0
H832 H 0.17354 0.01884 0.96046 0.0
H833 H 0.10533 0.00823 -0.00035 0.0
H834 H 0.91314 0.03115 0.95685 0.0
H835 H 0.98301 0.0446 0.91778 0.0
C836 C 0.85782 0.02216 0.03227 0.0
C837 C 0.87822 0.99099 0.04904 0.0
C838 C 0.89947 0.03205 0.01078 0.0
C839 C 0.96196 0.01069 0.00547 0.0
C840 C 0.98393 0.981 0.02306 0.0
C841 C 0.9431 0.97181 0.04477 0.0
C842 C 0.11661 0.02105 0.95932 0.0
C843 C 0.08325 0.03187 0.93602 0.0
C844 C 0.07736 0.01498 0.98185 0.0
C845 C 0.00353 0.01855 0.98151 0.0
C846 C 0.97 0.02882 0.95799 0.0
C847 C 0.00969 0.03593 0.93551 0.0
H848 H 0.9901 0.9787 0.5634 0.0
H849 H 0.8152 0.02641 0.52 0.0
H850 H 0.02301 0.93672 0.52617 0.0
H851 H 0.84832 0.98488 0.48251 0.0
H852 H 0.03803 0.9843 0.42032 0.0
H853 H 0.96177 1.00207 0.45729 0.0
H854 H 0.99815 0.88514 0.49078 0.0
H855 H 0.07453 0.86798 0.45432 0.0
C856 C 0.95593 0.97809 0.54651 0.0
C857 C 0.90007 0.00548 0.54451 0.0
C858 C 0.97518 0.95445 0.52503 0.0
C859 C 0.93914 0.95839 0.50125 0.0
C860 C 0.87748 0.98173 0.50051 0.0
C861 C 0.85777 0.00492 0.52212 0.0
C862 C 0.02801 0.96215 0.43527 0.0
C863 C 0.06087 0.92445 0.43413 0.0
C864 C 0.98404 0.97208 0.4563 0.0
C865 C 0.9734 0.9447 0.47677 0.0
C866 C 0.00474 0.9066 0.47517 0.0
C867 C 0.048 0.89661 0.45406 0.0
H868 H 0.48305 0.44222 0.05055 0.0
H869 H 0.63028 0.53884 0.03648 0.0
H870 H 0.41972 0.45952 0.01145 0.0
H871 H 0.56345 0.5584 -0.0017 0.0
H872 H 0.47671 0.55506 0.91538 0.0
H873 H 0.54147 0.53851 0.95508 0.0
H874 H 0.34531 0.50493 -0.00761 0.0
H875 H 0.2825 0.51884 0.95269 0.0
C876 C 0.50151 0.46745 0.03934 0.0
C877 C 0.56294 0.48829 0.04634 0.0
C878 C 0.46458 0.4778 0.01693 0.0
C879 C 0.48687 0.51015 0.00138 0.0
C880 C 0.54591 0.53257 0.0093 0.0
C881 C 0.58371 0.52164 0.03144 0.0
C882 C 0.44806 0.54361 0.93204 0.0
C883 C 0.37498 0.5375 0.93078 0.0
C884 C 0.4848 0.53455 0.95489 0.0
C885 C 0.4487 0.52014 0.97701 0.0
C886 C 0.37538 0.51479 0.97565 0.0
C887 C 0.33921 0.5229 0.95278 0.0
loop_
_geom_bond_atom_site_label_1
_geom_bond_atom_site_label_2
_geom_bond_distance
_geom_bond_site_symmetry_2
_ccdc_geom_bond_type
C0 O27 1.312 . S
C0 O28 1.208 . S
C1 O22 1.331 . S
C1 O25 1.244 . S
C2 O24 1.264 . S
C2 O26 1.273 . S
Mg3 O5 1.936 . S
Mg3 O12 2.081 . S
Mg3 O14 2.023 . S
Mg3 O18 2.031 . S
Mg3 O27 2.291 . S
Mg4 O5 1.963 . S
Mg4 O15 1.942 . S
Mg4 O16 1.955 . S
Mg4 O23 1.986 . S
O5 Mg3 1.936 . S
O5 Mg4 1.963 . S
O5 Mg6 1.915 . S
Mg6 O5 1.915 . S
Mg6 O7 1.915 . S
Mg6 O11 2.013 . S
Mg6 O17 2.114 . S
Mg6 O21 2.013 . S
Mg6 O27 2.114 . S
O7 Mg6 1.915 . S
O7 Mg8 1.936 . S
O7 Mg9 1.963 . S
Mg8 O7 1.936 . S
Mg8 O17 2.291 . S
Mg8 O22 2.081 . S
Mg8 O24 2.023 . S
Mg8 O28 2.031 . S
Mg9 O7 1.963 . S
Mg9 O13 1.986 . S
Mg9 O25 1.942 . S
Mg9 O26 1.955 . S
C10 O21 1.191 . S
C10 O23 1.307 . S
O11 Mg6 2.013 . S
O11 C30 1.191 . S
O12 Mg3 2.081 . S
O12 C20 1.331 . S
O13 Mg9 1.986 . S
O13 C30 1.307 . S
O14 Mg3 2.023 . S
O14 C29 1.264 . S
O15 Mg4 1.942 . S
O15 C20 1.244 . S
O16 Mg4 1.955 . S
O16 C29 1.273 . S
O17 Mg6 2.114 . S
O17 Mg8 2.291 . S
O17 C19 1.312 . S
O18 Mg3 2.031 . S
O18 C19 1.208 . S
C19 O17 1.312 . S
C19 O18 1.208 . S
C20 O12 1.331 . S
C20 O15 1.244 . S
O21 Mg6 2.013 . S
O21 C10 1.191 . S
O22 C1 1.331 . S
O22 Mg8 2.081 . S
O23 Mg4 1.986 . S
O23 C10 1.307 . S
O24 C2 1.264 . S
O24 Mg8 2.023 . S
O25 C1 1.244 . S
O25 Mg9 1.942 . S
O26 C2 1.273 . S
O26 Mg9 1.955 . S
O27 C0 1.312 . S
O27 Mg3 2.291 . S
O27 Mg6 2.114 . S
O28 C0 1.208 . S
O28 Mg8 2.031 . S
C29 O14 1.264 . S
C29 O16 1.273 . S
C30 O11 1.191 . S
C30 O13 1.307 . S
C31 O58 1.312 . S
C31 O59 1.208 . S
C32 O53 1.331 . S
C32 O56 1.244 . S
C33 O55 1.264 . S
C33 O57 1.273 . S
Mg34 O36 1.936 1_655 S
Mg34 O43 2.081 . S
Mg34 O45 2.023 . S
Mg34 O49 2.031 1_655 S
Mg34 O58 2.291 1_655 S
Mg35 O36 1.963 1_655 S
Mg35 O46 1.942 . S
Mg35 O47 1.955 . S
Mg35 O54 1.986 1_655 S
O36 Mg34 1.936 1_455 S
O36 Mg35 1.963 1_455 S
O36 Mg37 1.915 . S
Mg37 O36 1.915 . S
Mg37 O38 1.915 . S
Mg37 O42 2.013 . S
Mg37 O48 2.114 . S
Mg37 O52 2.013 . S
Mg37 O58 2.114 . S
O38 Mg37 1.915 . S
O38 Mg39 1.936 . S
O38 Mg40 1.963 . S
Mg39 O38 1.936 . S
Mg39 O48 2.291 . S
Mg39 O53 2.081 . S
Mg39 O55 2.023 . S
Mg39 O59 2.031 . S
Mg40 O38 1.963 . S
Mg40 O44 1.986 . S
Mg40 O56 1.942 . S
Mg40 O57 1.955 . S
C41 O52 1.191 . S
C41 O54 1.307 . S
O42 Mg37 2.013 . S
O42 C61 1.191 . S
O43 Mg34 2.081 . S
O43 C51 1.331 . S
O44 Mg40 1.986 . S
O44 C61 1.307 . S
O45 Mg34 2.023 . S
O45 C60 1.264 . S
O46 Mg35 1.942 . S
O46 C51 1.244 . S
O47 Mg35 1.955 . S
O47 C60 1.273 . S
O48 Mg37 2.114 . S
O48 Mg39 2.291 . S
O48 C50 1.312 . S
O49 Mg34 2.031 1_455 S
O49 C50 1.208 . S
C50 O48 1.312 . S
C50 O49 1.208 . S
C51 O43 1.331 . S
C51 O46 1.244 . S
O52 Mg37 2.013 . S
O52 C41 1.191 . S
O53 C32 1.331 . S
O53 Mg39 2.081 . S
O54 Mg35 1.986 1_455 S
O54 C41 1.307 . S
O55 C33 1.264 . S
O55 Mg39 2.023 . S
O56 C32 1.244 . S
O56 Mg40 1.942 . S
O57 C33 1.273 . S
O57 Mg40 1.955 . S
O58 C31 1.312 . S
O58 Mg34 2.291 1_455 S
O58 Mg37 2.114 . S
O59 C31 1.208 . S
O59 Mg39 2.031 . S
C60 O45 1.264 . S
C60 O47 1.273 . S
C61 O42 1.191 . S
C61 O44 1.307 . S
C62 O89 1.312 . S
C62 O90 1.208 . S
C63 O84 1.331 . S
C63 O87 1.244 . S
C64 O86 1.264 . S
C64 O88 1.273 . S
Mg65 O67 1.936 1_455 S
Mg65 O74 2.081 . S
Mg65 O76 2.023 . S
Mg65 O80 2.031 1_455 S
Mg65 O89 2.291 1_455 S
Mg66 O67 1.963 1_455 S
Mg66 O77 1.942 . S
Mg66 O78 1.955 . S
Mg66 O85 1.990 . S
O67 Mg65 1.936 1_655 S
O67 Mg66 1.963 1_655 S
O67 Mg68 1.915 . S
Mg68 O67 1.915 . S
Mg68 O69 1.915 . S
Mg68 O73 2.013 . S
Mg68 O79 2.114 . S
Mg68 O83 2.013 . S
Mg68 O89 2.114 . S
O69 Mg68 1.915 . S
O69 Mg70 1.936 . S
O69 Mg71 1.963 . S
Mg70 O69 1.936 . S
Mg70 O79 2.291 . S
Mg70 O84 2.081 . S
Mg70 O86 2.023 . S
Mg70 O90 2.031 . S
Mg71 O69 1.963 . S
Mg71 O75 1.986 . S
Mg71 O87 1.942 . S
Mg71 O88 1.955 . S
C72 O83 1.191 . S
C72 O85 1.297 1_655 S
O73 Mg68 2.013 . S
O73 C92 1.191 . S
O74 Mg65 2.081 . S
O74 C82 1.331 . S
O75 Mg71 1.986 . S
O75 C92 1.307 . S
O76 Mg65 2.023 . S
O76 C91 1.264 . S
O77 Mg66 1.942 . S
O77 C82 1.244 . S
O78 Mg66 1.955 . S
O78 C91 1.273 . S
O79 Mg68 2.114 . S
O79 Mg70 2.291 . S
O79 C81 1.312 . S
O80 Mg65 2.031 1_655 S
O80 C81 1.208 . S
C81 O79 1.312 . S
C81 O80 1.208 . S
C82 O74 1.331 . S
C82 O77 1.244 . S
O83 Mg68 2.013 . S
O83 C72 1.191 . S
O84 C63 1.331 . S
O84 Mg70 2.081 . S
O85 Mg66 1.990 . S
O85 C72 1.297 1_455 S
O86 C64 1.264 . S
O86 Mg70 2.023 . S
O87 C63 1.244 . S
O87 Mg71 1.942 . S
O88 C64 1.273 . S
O88 Mg71 1.955 . S
O89 C62 1.312 . S
O89 Mg65 2.291 1_655 S
O89 Mg68 2.114 . S
O90 C62 1.208 . S
O90 Mg70 2.031 . S
C91 O76 1.264 . S
C91 O78 1.273 . S
C92 O73 1.191 . S
C92 O75 1.307 . S
C93 O120 1.312 . S
C93 O121 1.208 . S
C94 O115 1.331 . S
C94 O118 1.244 . S
C95 O117 1.264 . S
C95 O119 1.273 . S
Mg96 O98 1.936 . S
Mg96 O105 2.081 . S
Mg96 O107 2.023 . S
Mg96 O111 2.031 . S
Mg96 O120 2.291 . S
Mg97 O98 1.963 . S
Mg97 O108 1.942 . S
Mg97 O109 1.955 . S
Mg97 O116 1.986 . S
O98 Mg96 1.936 . S
O98 Mg97 1.963 . S
O98 Mg99 1.915 . S
Mg99 O98 1.915 . S
Mg99 O100 1.915 . S
Mg99 O104 2.013 . S
Mg99 O110 2.114 . S
Mg99 O114 2.013 . S
Mg99 O120 2.114 . S
O100 Mg99 1.915 . S
O100 Mg101 1.936 . S
O100 Mg102 1.963 . S
Mg101 O100 1.936 . S
Mg101 O110 2.291 . S
Mg101 O115 2.081 . S
Mg101 O117 2.023 . S
Mg101 O121 2.031 . S
Mg102 O100 1.963 . S
Mg102 O106 1.986 . S
Mg102 O118 1.942 . S
Mg102 O119 1.955 . S
C103 O114 1.191 . S
C103 O116 1.307 . S
O104 Mg99 2.013 . S
O104 C123 1.191 . S
O105 Mg96 2.081 . S
O105 C113 1.331 . S
O106 Mg102 1.986 . S
O106 C123 1.307 . S
O107 Mg96 2.023 . S
O107 C122 1.264 . S
O108 Mg97 1.942 . S
O108 C113 1.244 . S
O109 Mg97 1.955 . S
O109 C122 1.273 . S
O110 Mg99 2.114 . S
O110 Mg101 2.291 . S
O110 C112 1.312 . S
O111 Mg96 2.031 . S
O111 C112 1.208 . S
C112 O110 1.312 . S
C112 O111 1.208 . S
C113 O105 1.331 . S
C113 O108 1.244 . S
O114 Mg99 2.013 . S
O114 C103 1.191 . S
O115 C94 1.331 . S
O115 Mg101 2.081 . S
O116 Mg97 1.986 . S
O116 C103 1.307 . S
O117 C95 1.264 . S
O117 Mg101 2.023 . S
O118 C94 1.244 . S
O118 Mg102 1.942 . S
O119 C95 1.273 . S
O119 Mg102 1.955 . S
O120 C93 1.312 . S
O120 Mg96 2.291 . S
O120 Mg99 2.114 . S
O121 C93 1.208 . S
O121 Mg101 2.031 . S
C122 O107 1.264 . S
C122 O109 1.273 . S
C123 O104 1.191 . S
C123 O106 1.307 . S
C124 O151 1.312 . S
C124 O152 1.208 . S
C125 O146 1.331 . S
C125 O149 1.244 . S
C126 O148 1.264 . S
C126 O150 1.273 . S
Mg127 O129 1.936 . S
Mg127 O136 2.081 . S
Mg127 O138 2.023 . S
Mg127 O142 2.031 . S
Mg127 O151 2.291 . S
Mg128 O129 1.963 . S
Mg128 O139 1.942 . S
Mg128 O140 1.955 . S
Mg128 O147 1.986 . S
O129 Mg127 1.936 . S
O129 Mg128 1.963 . S
O129 Mg130 1.915 . S
Mg130 O129 1.915 . S
Mg130 O131 1.915 . S
Mg130 O135 2.013 . S
Mg130 O141 2.114 . S
Mg130 O145 2.013 . S
Mg130 O151 2.114 . S
O131 Mg130 1.915 . S
O131 Mg132 1.936 . S
O131 Mg133 1.963 . S
Mg132 O131 1.936 . S
Mg132 O141 2.291 . S
Mg132 O146 2.081 . S
Mg132 O148 2.023 . S
Mg132 O152 2.031 . S
Mg133 O131 1.963 . S
Mg133 O137 1.986 . S
Mg133 O149 1.942 . S
Mg133 O150 1.955 . S
C134 O145 1.191 . S
C134 O147 1.307 . S
O135 Mg130 2.013 . S
O135 C154 1.191 . S
O136 Mg127 2.081 . S
O136 C144 1.331 . S
O137 Mg133 1.986 . S
O137 C154 1.307 . S
O138 Mg127 2.023 . S
O138 C153 1.264 . S
O139 Mg128 1.942 . S
O139 C144 1.244 . S
O140 Mg128 1.955 . S
O140 C153 1.273 . S
O141 Mg130 2.114 . S
O141 Mg132 2.291 . S
O141 C143 1.312 . S
O142 Mg127 2.031 . S
O142 C143 1.208 . S
C143 O141 1.312 . S
C143 O142 1.208 . S
C144 O136 1.331 . S
C144 O139 1.244 . S
O145 Mg130 2.013 . S
O145 C134 1.191 . S
O146 C125 1.331 . S
O146 Mg132 2.081 . S
O147 Mg128 1.986 . S
O147 C134 1.307 . S
O148 C126 1.264 . S
O148 Mg132 2.023 . S
O149 C125 1.244 . S
O149 Mg133 1.942 . S
O150 C126 1.273 . S
O150 Mg133 1.955 . S
O151 C124 1.312 . S
O151 Mg127 2.291 . S
O151 Mg130 2.114 . S
O152 C124 1.208 . S
O152 Mg132 2.031 . S
C153 O138 1.264 . S
C153 O140 1.273 . S
C154 O135 1.191 . S
C154 O137 1.307 . S
C155 O182 1.312 . S
C155 O183 1.208 . S
C156 O177 1.331 . S
C156 O180 1.244 . S
C157 O179 1.264 . S
C157 O181 1.273 . S
Mg158 O160 1.936 . S
Mg158 O167 2.081 . S
Mg158 O169 2.023 . S
Mg158 O173 2.031 . S
Mg158 O182 2.291 . S
Mg159 O160 1.963 . S
Mg159 O170 1.942 . S
Mg159 O171 1.955 . S
Mg159 O178 1.986 . S
O160 Mg158 1.936 . S
O160 Mg159 1.963 . S
O160 Mg161 1.915 . S
Mg161 O160 1.915 . S
Mg161 O162 1.915 . S
Mg161 O166 2.013 . S
Mg161 O172 2.114 . S
Mg161 O176 2.013 . S
Mg161 O182 2.114 . S
O162 Mg161 1.915 . S
O162 Mg163 1.936 1_655 S
O162 Mg164 1.963 1_655 S
Mg163 O162 1.936 1_455 S
Mg163 O172 2.291 1_455 S
Mg163 O177 2.081 . S
Mg163 O179 2.023 . S
Mg163 O183 2.031 1_455 S
Mg164 O162 1.963 1_455 S
Mg164 O168 1.986 1_455 S
Mg164 O180 1.942 . S
Mg164 O181 1.955 . S
C165 O176 1.191 . S
C165 O178 1.307 . S
O166 Mg161 2.013 . S
O166 C185 1.191 . S
O167 Mg158 2.081 . S
O167 C175 1.331 . S
O168 Mg164 1.986 1_655 S
O168 C185 1.307 . S
O169 Mg158 2.023 . S
O169 C184 1.264 . S
O170 Mg159 1.942 . S
O170 C175 1.244 . S
O171 Mg159 1.955 . S
O171 C184 1.273 . S
O172 Mg161 2.114 . S
O172 Mg163 2.291 1_655 S
O172 C174 1.312 . S
O173 Mg158 2.031 . S
O173 C174 1.208 . S
C174 O172 1.312 . S
C174 O173 1.208 . S
C175 O167 1.331 . S
C175 O170 1.244 . S
O176 Mg161 2.013 . S
O176 C165 1.191 . S
O177 C156 1.331 . S
O177 Mg163 2.081 . S
O178 Mg159 1.986 . S
O178 C165 1.307 . S
O179 C157 1.264 . S
O179 Mg163 2.023 . S
O180 C156 1.244 . S
O180 Mg164 1.942 . S
O181 C157 1.273 . S
O181 Mg164 1.955 . S
O182 C155 1.312 . S
O182 Mg158 2.291 . S
O182 Mg161 2.114 . S
O183 C155 1.208 . S
O183 Mg163 2.031 1_655 S
C184 O169 1.264 . S
C184 O171 1.273 . S
C185 O166 1.191 . S
C185 O168 1.307 . S
C186 O213 1.312 . S
C186 O214 1.208 . S
C187 O208 1.331 . S
C187 O211 1.244 . S
C188 O210 1.264 . S
C188 O212 1.273 . S
Mg189 O191 1.936 . S
Mg189 O198 2.081 . S
Mg189 O200 2.023 . S
Mg189 O204 2.031 . S
Mg189 O213 2.291 . S
Mg190 O191 1.963 . S
Mg190 O201 1.942 . S
Mg190 O202 1.955 . S
Mg190 O209 1.986 . S
O191 Mg189 1.936 . S
O191 Mg190 1.963 . S
O191 Mg192 1.915 . S
Mg192 O191 1.915 . S
Mg192 O193 1.915 . S
Mg192 O197 2.013 . S
Mg192 O203 2.114 . S
Mg192 O207 2.013 . S
Mg192 O213 2.114 . S
O193 Mg192 1.915 . S
O193 Mg194 1.936 1_455 S
O193 Mg195 1.963 1_455 S
Mg194 O193 1.936 1_655 S
Mg194 O203 2.291 1_655 S
Mg194 O208 2.081 . S
Mg194 O210 2.023 . S
Mg194 O214 2.031 1_655 S
Mg195 O193 1.963 1_655 S
Mg195 O199 1.986 1_655 S
Mg195 O211 1.942 . S
Mg195 O212 1.955 . S
C196 O207 1.191 . S
C196 O209 1.307 . S
O197 Mg192 2.013 . S
O197 C216 1.191 . S
O198 Mg189 2.081 . S
O198 C206 1.331 . S
O199 Mg195 1.986 1_455 S
O199 C216 1.307 . S
O200 Mg189 2.023 . S
O200 C215 1.264 . S
O201 Mg190 1.942 . S
O201 C206 1.244 . S
O202 Mg190 1.955 . S
O202 C215 1.273 . S
O203 Mg192 2.114 . S
O203 Mg194 2.291 1_455 S
O203 C205 1.312 . S
O204 Mg189 2.031 . S
O204 C205 1.208 . S
C205 O203 1.312 . S
C205 O204 1.208 . S
C206 O198 1.331 . S
C206 O201 1.244 . S
O207 Mg192 2.013 . S
O207 C196 1.191 . S
O208 C187 1.331 . S
O208 Mg194 2.081 . S
O209 Mg190 1.986 . S
O209 C196 1.307 . S
O210 C188 1.264 . S
O210 Mg194 2.023 . S
O211 C187 1.244 . S
O211 Mg195 1.942 . S
O212 C188 1.273 . S
O212 Mg195 1.955 . S
O213 C186 1.312 . S
O213 Mg189 2.291 . S
O213 Mg192 2.114 . S
O214 C186 1.208 . S
O214 Mg194 2.031 1_455 S
C215 O200 1.264 . S
C215 O202 1.273 . S
C216 O197 1.191 . S
C216 O199 1.307 . S
C217 O244 1.312 . S
C217 O245 1.208 . S
C218 O239 1.331 . S
C218 O242 1.244 . S
C219 O241 1.264 . S
C219 O243 1.273 . S
Mg220 O222 1.936 . S
Mg220 O229 2.081 . S
Mg220 O231 2.023 . S
Mg220 O235 2.031 . S
Mg220 O244 2.291 . S
Mg221 O222 1.963 . S
Mg221 O232 1.942 . S
Mg221 O233 1.955 . S
Mg221 O240 1.986 . S
O222 Mg220 1.936 . S
O222 Mg221 1.963 . S
O222 Mg223 1.915 . S
Mg223 O222 1.915 . S
Mg223 O224 1.915 . S
Mg223 O228 2.013 . S
Mg223 O234 2.114 . S
Mg223 O238 2.013 . S
Mg223 O244 2.114 . S
O224 Mg223 1.915 . S
O224 Mg225 1.936 . S
O224 Mg226 1.963 . S
Mg225 O224 1.936 . S
Mg225 O234 2.291 . S
Mg225 O239 2.081 . S
Mg225 O241 2.023 . S
Mg225 O245 2.031 . S
Mg226 O224 1.963 . S
Mg226 O230 1.986 . S
Mg226 O242 1.942 . S
Mg226 O243 1.955 . S
C227 O238 1.191 . S
C227 O240 1.307 . S
O228 Mg223 2.013 . S
O228 C247 1.191 . S
O229 Mg220 2.081 . S
O229 C237 1.331 . S
O230 Mg226 1.986 . S
O230 C247 1.307 . S
O231 Mg220 2.023 . S
O231 C246 1.264 . S
O232 Mg221 1.942 . S
O232 C237 1.244 . S
O233 Mg221 1.955 . S
O233 C246 1.273 . S
O234 Mg223 2.114 . S
O234 Mg225 2.291 . S
O234 C236 1.312 . S
O235 Mg220 2.031 . S
O235 C236 1.208 . S
C236 O234 1.312 . S
C236 O235 1.208 . S
C237 O229 1.331 . S
C237 O232 1.244 . S
O238 Mg223 2.013 . S
O238 C227 1.191 . S
O239 C218 1.331 . S
O239 Mg225 2.081 . S
O240 Mg221 1.986 . S
O240 C227 1.307 . S
O241 C219 1.264 . S
O241 Mg225 2.023 . S
O242 C218 1.244 . S
O242 Mg226 1.942 . S
O243 C219 1.273 . S
O243 Mg226 1.955 . S
O244 C217 1.312 . S
O244 Mg220 2.291 . S
O244 Mg223 2.114 . S
O245 C217 1.208 . S
O245 Mg225 2.031 . S
C246 O231 1.264 . S
C246 O233 1.273 . S
C247 O228 1.191 . S
C247 O230 1.307 . S
H248 C256 0.950 . S
H249 C261 0.950 . S
H250 C258 0.950 . S
H251 C260 0.950 . S
H252 C262 0.950 . S
H253 C264 0.950 . S
H254 C266 0.950 . S
H255 C267 0.950 . S
C256 H248 0.950 . S
C256 C257 1.386 . S
C256 C258 1.391 1_455 S
C257 C256 1.386 . S
C257 C261 1.393 . S
C258 H250 0.950 . S
C258 C256 1.391 1_655 S
C258 C259 1.400 . S
C259 C258 1.400 . S
C259 C260 1.398 . S
C259 C265 1.491 . S
C260 H251 0.950 . S
C260 C259 1.398 . S
C260 C261 1.391 1_655 S
C261 H249 0.950 . S
C261 C257 1.393 . S
C261 C260 1.391 1_455 S
C262 H252 0.950 . S
C262 C263 1.386 . S
C262 C264 1.391 . S
C263 C262 1.386 . S
C263 C267 1.393 . S
C264 H253 0.950 . S
C264 C262 1.391 . S
C264 C265 1.400 . S
C265 C259 1.491 . S
C265 C264 1.400 . S
C265 C266 1.398 . S
C266 H254 0.950 . S
C266 C265 1.398 . S
C266 C267 1.391 . S
C267 H255 0.950 . S
C267 C263 1.393 . S
C267 C266 1.391 . S
H268 C276 0.950 . S
H269 C281 0.950 . S
H270 C278 0.950 . S
H271 C280 0.950 . S
H272 C282 0.950 . S
H273 C284 0.950 . S
H274 C286 0.950 . S
H275 C287 0.950 . S
C276 H268 0.950 . S
C276 C277 1.386 . S
C276 C278 1.391 . S
C277 C276 1.386 . S
C277 C281 1.393 . S
C278 H270 0.950 . S
C278 C276 1.391 . S
C278 C279 1.400 . S
C279 C278 1.400 . S
C279 C280 1.398 . S
C279 C285 1.491 . S
C280 H271 0.950 . S
C280 C279 1.398 . S
C280 C281 1.391 . S
C281 H269 0.950 . S
C281 C277 1.393 . S
C281 C280 1.391 . S
C282 H272 0.950 . S
C282 C283 1.386 . S
C282 C284 1.391 . S
C283 C282 1.386 . S
C283 C287 1.393 . S
C284 H273 0.950 . S
C284 C282 1.391 . S
C284 C285 1.400 . S
C285 C279 1.491 . S
C285 C284 1.400 . S
C285 C286 1.398 . S
C286 H274 0.950 . S
C286 C285 1.398 . S
C286 C287 1.391 . S
C287 H275 0.950 . S
C287 C283 1.393 . S
C287 C286 1.391 . S
H288 C296 0.950 . S
H289 C301 0.950 . S
H290 C298 0.950 . S
H291 C300 0.950 . S
H292 C302 0.950 . S
H293 C304 0.950 . S
H294 C306 0.950 . S
H295 C307 0.950 . S
C296 H288 0.950 . S
C296 C297 1.386 . S
C296 C298 1.391 . S
C297 C296 1.386 . S
C297 C301 1.393 . S
C298 H290 0.950 . S
C298 C296 1.391 . S
C298 C299 1.400 . S
C299 C298 1.400 . S
C299 C300 1.398 . S
C299 C305 1.491 . S
C300 H291 0.950 . S
C300 C299 1.398 . S
C300 C301 1.391 . S
C301 H289 0.950 . S
C301 C297 1.393 . S
C301 C300 1.391 . S
C302 H292 0.950 . S
C302 C303 1.386 . S
C302 C304 1.391 . S
C303 C302 1.386 . S
C303 C307 1.393 . S
C304 H293 0.950 . S
C304 C302 1.391 . S
C304 C305 1.400 . S
C305 C299 1.491 . S
C305 C304 1.400 . S
C305 C306 1.398 . S
C306 H294 0.950 . S
C306 C305 1.398 . S
C306 C307 1.391 . S
C307 H295 0.950 . S
C307 C303 1.393 . S
C307 C306 1.391 . S
H308 C316 0.950 . S
H309 C321 0.950 . S
H310 C318 0.950 . S
H311 C320 0.950 . S
H312 C322 0.950 . S
H313 C324 0.950 . S
H314 C326 0.950 . S
H315 C327 0.950 . S
C316 H308 0.950 . S
C316 C317 1.386 . S
C316 C318 1.391 1_655 S
C317 C316 1.386 . S
C317 C321 1.393 . S
C318 H310 0.950 . S
C318 C316 1.391 1_455 S
C318 C319 1.400 . S
C319 C318 1.400 . S
C319 C320 1.398 . S
C319 C325 1.491 . S
C320 H311 0.950 . S
C320 C319 1.398 . S
C320 C321 1.391 1_455 S
C321 H309 0.950 . S
C321 C317 1.393 . S
C321 C320 1.391 1_655 S
C322 H312 0.950 . S
C322 C323 1.386 . S
C322 C324 1.391 . S
C323 C322 1.386 . S
C323 C327 1.393 . S
C324 H313 0.950 . S
C324 C322 1.391 . S
C324 C325 1.400 . S
C325 C319 1.491 . S
C325 C324 1.400 . S
C325 C326 1.398 . S
C326 H314 0.950 . S
C326 C325 1.398 . S
C326 C327 1.391 . S
C327 H315 0.950 . S
C327 C323 1.393 . S
C327 C326 1.391 . S
H328 C336 0.950 . S
H329 C341 0.950 . S
H330 C338 0.950 . S
H331 C340 0.950 . S
H332 C342 0.950 . S
H333 C344 0.950 . S
H334 C346 0.950 . S
H335 C347 0.950 . S
C336 H328 0.950 . S
C336 C337 1.386 . S
C336 C338 1.391 . S
C337 C336 1.386 . S
C337 C341 1.393 . S
C338 H330 0.950 . S
C338 C336 1.391 . S
C338 C339 1.400 . S
C339 C338 1.400 . S
C339 C340 1.398 . S
C339 C345 1.491 . S
C340 H331 0.950 . S
C340 C339 1.398 . S
C340 C341 1.391 . S
C341 H329 0.950 . S
C341 C337 1.393 . S
C341 C340 1.391 . S
C342 H332 0.950 . S
C342 C343 1.386 . S
C342 C344 1.391 1_655 S
C343 C342 1.386 . S
C343 C347 1.393 . S
C344 H333 0.950 . S
C344 C342 1.391 1_455 S
C344 C345 1.400 . S
C345 C339 1.491 . S
C345 C344 1.400 . S
C345 C346 1.398 . S
C346 H334 0.950 . S
C346 C345 1.398 . S
C346 C347 1.391 1_455 S
C347 H335 0.950 . S
C347 C343 1.393 . S
C347 C346 1.391 1_655 S
H348 C356 0.950 . S
H349 C361 0.950 . S
H350 C358 0.950 . S
H351 C360 0.950 . S
H352 C362 0.950 . S
H353 C364 0.950 . S
H354 C366 0.950 . S
H355 C367 0.950 . S
C356 H348 0.950 . S
C356 C357 1.386 . S
C356 C358 1.391 . S
C357 C356 1.386 . S
C357 C361 1.393 . S
C358 H350 0.950 . S
C358 C356 1.391 . S
C358 C359 1.400 . S
C359 C358 1.400 . S
C359 C360 1.398 . S
C359 C365 1.491 . S
C360 H351 0.950 . S
C360 C359 1.398 . S
C360 C361 1.391 . S
C361 H349 0.950 . S
C361 C357 1.393 . S
C361 C360 1.391 . S
C362 H352 0.950 . S
C362 C363 1.386 . S
C362 C364 1.391 . S
C363 C362 1.386 . S
C363 C367 1.393 . S
C364 H353 0.950 . S
C364 C362 1.391 . S
C364 C365 1.400 . S
C365 C359 1.491 . S
C365 C364 1.400 . S
C365 C366 1.398 . S
C366 H354 0.950 . S
C366 C365 1.398 . S
C366 C367 1.391 . S
C367 H355 0.950 . S
C367 C363 1.393 . S
C367 C366 1.391 . S
H368 C376 0.950 . S
H369 C381 0.950 . S
H370 C378 0.950 . S
H371 C380 0.950 . S
H372 C382 0.950 . S
H373 C384 0.950 . S
H374 C386 0.950 . S
H375 C387 0.950 . S
C376 H368 0.950 . S
C376 C377 1.386 . S
C376 C378 1.391 . S
C377 C376 1.386 . S
C377 C381 1.393 . S
C378 H370 0.950 . S
C378 C376 1.391 . S
C378 C379 1.400 . S
C379 C378 1.400 . S
C379 C380 1.398 . S
C379 C385 1.491 . S
C380 H371 0.950 . S
C380 C379 1.398 . S
C380 C381 1.391 . S
C381 H369 0.950 . S
C381 C377 1.393 . S
C381 C380 1.391 . S
C382 H372 0.950 . S
C382 C383 1.386 . S
C382 C384 1.391 . S
C383 C382 1.386 . S
C383 C387 1.393 . S
C384 H373 0.950 . S
C384 C382 1.391 . S
C384 C385 1.400 . S
C385 C379 1.491 . S
C385 C384 1.400 . S
C385 C386 1.398 . S
C386 H374 0.950 . S
C386 C385 1.398 . S
C386 C387 1.391 . S
C387 H375 0.950 . S
C387 C383 1.393 . S
C387 C386 1.391 . S
H388 C396 0.950 . S
H389 C401 0.950 . S
H390 C398 0.950 . S
H391 C400 0.950 . S
H392 C402 0.950 . S
H393 C404 0.950 . S
H394 C406 0.950 . S
H395 C407 0.950 . S
C396 H388 0.950 . S
C396 C397 1.386 . S
C396 C398 1.391 1_455 S
C397 C396 1.386 . S
C397 C401 1.393 . S
C398 H390 0.950 . S
C398 C396 1.391 1_655 S
C398 C399 1.400 . S
C399 C398 1.400 . S
C399 C400 1.398 . S
C399 C405 1.491 . S
C400 H391 0.950 . S
C400 C399 1.398 . S
C400 C401 1.391 1_655 S
C401 H389 0.950 . S
C401 C397 1.393 . S
C401 C400 1.391 1_455 S
C402 H392 0.950 . S
C402 C403 1.386 . S
C402 C404 1.391 . S
C403 C402 1.386 . S
C403 C407 1.393 . S
C404 H393 0.950 . S
C404 C402 1.391 . S
C404 C405 1.400 . S
C405 C399 1.491 . S
C405 C404 1.400 . S
C405 C406 1.398 . S
C406 H394 0.950 . S
C406 C405 1.398 . S
C406 C407 1.391 . S
C407 H395 0.950 . S
C407 C403 1.393 . S
C407 C406 1.391 . S
H408 C416 0.950 . S
H409 C421 0.950 . S
H410 C418 0.950 . S
H411 C420 0.950 . S
H412 C422 0.950 . S
H413 C424 0.950 . S
H414 C426 0.950 . S
H415 C427 0.950 . S
C416 H408 0.950 . S
C416 C417 1.386 . S
C416 C418 1.391 . S
C417 C416 1.386 . S
C417 C421 1.393 . S
C418 H410 0.950 . S
C418 C416 1.391 . S
C418 C419 1.400 . S
C419 C418 1.400 . S
C419 C420 1.398 . S
C419 C425 1.491 . S
C420 H411 0.950 . S
C420 C419 1.398 . S
C420 C421 1.391 . S
C421 H409 0.950 . S
C421 C417 1.393 . S
C421 C420 1.391 . S
C422 H412 0.950 . S
C422 C423 1.386 . S
C422 C424 1.391 . S
C423 C422 1.386 . S
C423 C427 1.393 . S
C424 H413 0.950 . S
C424 C422 1.391 . S
C424 C425 1.400 . S
C425 C419 1.491 . S
C425 C424 1.400 . S
C425 C426 1.398 . S
C426 H414 0.950 . S
C426 C425 1.398 . S
C426 C427 1.391 . S
C427 H415 0.950 . S
C427 C423 1.393 . S
C427 C426 1.391 . S
H428 C436 0.950 . S
H429 C441 0.950 . S
H430 C438 0.950 . S
H431 C440 0.950 . S
H432 C442 0.950 . S
H433 C444 0.950 . S
H434 C446 0.950 . S
H435 C447 0.950 . S
C436 H428 0.950 . S
C436 C437 1.386 . S
C436 C438 1.391 . S
C437 C436 1.386 . S
C437 C441 1.393 1_455 S
C438 H430 0.950 . S
C438 C436 1.391 . S
C438 C439 1.400 . S
C439 C438 1.400 . S
C439 C440 1.398 1_455 S
C439 C445 1.491 1_455 S
C440 H431 0.950 . S
C440 C439 1.398 1_655 S
C440 C441 1.391 . S
C441 H429 0.950 . S
C441 C437 1.393 1_655 S
C441 C440 1.391 . S
C442 H432 0.950 . S
C442 C443 1.386 . S
C442 C444 1.391 . S
C443 C442 1.386 . S
C443 C447 1.393 1_655 S
C444 H433 0.950 . S
C444 C442 1.391 . S
C444 C445 1.400 . S
C445 C439 1.491 1_655 S
C445 C444 1.400 . S
C445 C446 1.398 1_655 S
C446 H434 0.950 . S
C446 C445 1.398 1_455 S
C446 C447 1.391 . S
C447 H435 0.950 . S
C447 C443 1.393 1_455 S
C447 C446 1.391 . S
H448 C456 0.950 . S
H449 C461 0.950 . S
H450 C458 0.950 . S
H451 C460 0.950 . S
H452 C462 0.950 . S
H453 C464 0.950 . S
H454 C466 0.950 . S
H455 C467 0.950 . S
C456 H448 0.950 . S
C456 C457 1.386 . S
C456 C458 1.391 . S
C457 C456 1.386 . S
C457 C461 1.393 . S
C458 H450 0.950 . S
C458 C456 1.391 . S
C458 C459 1.400 . S
C459 C458 1.400 . S
C459 C460 1.398 . S
C459 C465 1.491 . S
C460 H451 0.950 . S
C460 C459 1.398 . S
C460 C461 1.391 . S
C461 H449 0.950 . S
C461 C457 1.393 . S
C461 C460 1.391 . S
C462 H452 0.950 . S
C462 C463 1.386 . S
C462 C464 1.391 . S
C463 C462 1.386 . S
C463 C467 1.393 . S
C464 H453 0.950 . S
C464 C462 1.391 . S
C464 C465 1.400 . S
C465 C459 1.491 . S
C465 C464 1.400 . S
C465 C466 1.398 . S
C466 H454 0.950 . S
C466 C465 1.398 . S
C466 C467 1.391 . S
C467 H455 0.950 . S
C467 C463 1.393 . S
C467 C466 1.391 . S
H468 C476 0.950 . S
H469 C481 0.950 . S
H470 C478 0.950 . S
H471 C480 0.950 . S
H472 C482 0.950 . S
H473 C484 0.950 . S
H474 C486 0.950 . S
H475 C487 0.950 . S
C476 H468 0.950 . S
C476 C477 1.386 1_455 S
C476 C478 1.391 . S
C477 C476 1.386 1_655 S
C477 C481 1.393 . S
C478 H470 0.950 . S
C478 C476 1.391 . S
C478 C479 1.400 1_455 S
C479 C478 1.400 1_655 S
C479 C480 1.398 . S
C479 C485 1.491 1_655 S
C480 H471 0.950 . S
C480 C479 1.398 . S
C480 C481 1.391 . S
C481 H469 0.950 . S
C481 C477 1.393 . S
C481 C480 1.391 . S
C482 H472 0.950 . S
C482 C483 1.386 1_655 S
C482 C484 1.391 . S
C483 C482 1.386 1_455 S
C483 C487 1.393 . S
C484 H473 0.950 . S
C484 C482 1.391 . S
C484 C485 1.400 1_655 S
C485 C479 1.491 1_455 S
C485 C484 1.400 1_455 S
C485 C486 1.398 . S
C486 H474 0.950 . S
C486 C485 1.398 . S
C486 C487 1.391 . S
C487 H475 0.950 . S
C487 C483 1.393 . S
C487 C486 1.391 . S
H488 C496 0.950 . S
H489 C501 0.950 . S
H490 C498 0.950 . S
H491 C500 0.950 . S
H492 C502 0.950 . S
H493 C504 0.950 . S
H494 C506 0.950 . S
H495 C507 0.950 . S
C496 H488 0.950 . S
C496 C497 1.386 . S
C496 C498 1.391 . S
C497 C496 1.386 . S
C497 C501 1.393 . S
C498 H490 0.950 . S
C498 C496 1.391 . S
C498 C499 1.400 . S
C499 C498 1.400 . S
C499 C500 1.398 . S
C499 C505 1.491 . S
C500 H491 0.950 . S
C500 C499 1.398 . S
C500 C501 1.391 . S
C501 H489 0.950 . S
C501 C497 1.393 . S
C501 C500 1.391 . S
C502 H492 0.950 . S
C502 C503 1.386 . S
C502 C504 1.391 . S
C503 C502 1.386 . S
C503 C507 1.393 . S
C504 H493 0.950 . S
C504 C502 1.391 . S
C504 C505 1.400 . S
C505 C499 1.491 . S
C505 C504 1.400 . S
C505 C506 1.398 . S
C506 H494 0.950 . S
C506 C505 1.398 . S
C506 C507 1.391 . S
C507 H495 0.950 . S
C507 C503 1.393 . S
C507 C506 1.391 . S
H508 C516 0.950 . S
H509 C521 0.950 . S
H510 C518 0.950 . S
H511 C520 0.950 . S
H512 C522 0.950 . S
H513 C524 0.950 . S
H514 C526 0.950 1_554 S
H515 C527 0.950 1_455 S
C516 H508 0.950 . S
C516 C517 1.386 . S
C516 C518 1.391 . S
C517 C516 1.386 . S
C517 C521 1.393 . S
C518 H510 0.950 . S
C518 C516 1.391 . S
C518 C519 1.400 . S
C519 C518 1.400 . S
C519 C520 1.398 1_554 S
C519 C525 1.491 1_554 S
C520 H511 0.950 . S
C520 C519 1.398 1_556 S
C520 C521 1.391 1_556 S
C521 H509 0.950 . S
C521 C517 1.393 . S
C521 C520 1.391 1_554 S
C522 H512 0.950 . S
C522 C523 1.386 . S
C522 C524 1.391 . S
C523 C522 1.386 . S
C523 C527 1.393 . S
C524 H513 0.950 . S
C524 C522 1.391 . S
C524 C525 1.400 . S
C525 C519 1.491 1_556 S
C525 C524 1.400 . S
C525 C526 1.398 . S
C526 H514 0.950 1_556 S
C526 C525 1.398 . S
C526 C527 1.391 . S
C527 H515 0.950 1_655 S
C527 C523 1.393 . S
C527 C526 1.391 . S
H528 C536 0.950 1_655 S
H529 C541 0.950 . S
H530 C538 0.950 . S
H531 C540 0.950 . S
H532 C542 0.950 . S
H533 C544 0.950 . S
H534 C546 0.950 . S
H535 C547 0.950 . S
C536 H528 0.950 1_455 S
C536 C537 1.386 . S
C536 C538 1.391 . S
C537 C536 1.386 . S
C537 C541 1.393 . S
C538 H530 0.950 . S
C538 C536 1.391 . S
C538 C539 1.400 . S
C539 C538 1.400 . S
C539 C540 1.398 . S
C539 C545 1.491 . S
C540 H531 0.950 . S
C540 C539 1.398 . S
C540 C541 1.391 . S
C541 H529 0.950 . S
C541 C537 1.393 . S
C541 C540 1.391 . S
C542 H532 0.950 . S
C542 C543 1.386 . S
C542 C544 1.391 . S
C543 C542 1.386 . S
C543 C547 1.393 . S
C544 H533 0.950 . S
C544 C542 1.391 . S
C544 C545 1.400 . S
C545 C539 1.491 . S
C545 C544 1.400 . S
C545 C546 1.398 . S
C546 H534 0.950 . S
C546 C545 1.398 . S
C546 C547 1.391 . S
C547 H535 0.950 . S
C547 C543 1.393 . S
C547 C546 1.391 . S
H548 C556 0.950 . S
H549 C561 0.950 . S
H550 C558 0.950 . S
H551 C560 0.950 1_556 S
H552 C562 0.950 . S
H553 C564 0.950 . S
H554 C566 0.950 . S
H555 C567 0.950 . S
C556 H548 0.950 . S
C556 C557 1.386 . S
C556 C558 1.391 . S
C557 C556 1.386 . S
C557 C561 1.393 . S
C558 H550 0.950 . S
C558 C556 1.391 . S
C558 C559 1.400 . S
C559 C558 1.400 . S
C559 C560 1.398 . S
C559 C565 1.491 1_554 S
C560 H551 0.950 1_554 S
C560 C559 1.398 . S
C560 C561 1.391 . S
C561 H549 0.950 . S
C561 C557 1.393 . S
C561 C560 1.391 . S
C562 H552 0.950 . S
C562 C563 1.386 . S
C562 C564 1.391 . S
C563 C562 1.386 . S
C563 C567 1.393 . S
C564 H553 0.950 . S
C564 C562 1.391 . S
C564 C565 1.400 . S
C565 C559 1.491 1_556 S
C565 C564 1.400 . S
C565 C566 1.398 1_556 S
C566 H554 0.950 . S
C566 C565 1.398 1_554 S
C566 C567 1.391 1_554 S
C567 H555 0.950 . S
C567 C563 1.393 . S
C567 C566 1.391 1_556 S
H568 C576 0.950 . S
H569 C581 0.950 . S
H570 C578 0.950 . S
H571 C580 0.950 . S
H572 C582 0.950 . S
H573 C584 0.950 . S
H574 C586 0.950 . S
H575 C587 0.950 . S
C576 H568 0.950 . S
C576 C577 1.386 . S
C576 C578 1.391 . S
C577 C576 1.386 . S
C577 C581 1.393 . S
C578 H570 0.950 . S
C578 C576 1.391 . S
C578 C579 1.400 . S
C579 C578 1.400 . S
C579 C580 1.398 . S
C579 C585 1.491 . S
C580 H571 0.950 . S
C580 C579 1.398 . S
C580 C581 1.391 . S
C581 H569 0.950 . S
C581 C577 1.393 . S
C581 C580 1.391 . S
C582 H572 0.950 . S
C582 C583 1.386 . S
C582 C584 1.391 . S
C583 C582 1.386 . S
C583 C587 1.393 . S
C584 H573 0.950 . S
C584 C582 1.391 . S
C584 C585 1.400 . S
C585 C579 1.491 . S
C585 C584 1.400 . S
C585 C586 1.398 . S
C586 H574 0.950 . S
C586 C585 1.398 . S
C586 C587 1.391 . S
C587 H575 0.950 . S
C587 C583 1.393 . S
C587 C586 1.391 . S
H588 C596 0.950 . S
H589 C601 0.950 . S
H590 C598 0.950 . S
H591 C600 0.950 1_556 S
H592 C602 0.950 . S
H593 C604 0.950 . S
H594 C606 0.950 . S
H595 C607 0.950 . S
C596 H588 0.950 . S
C596 C597 1.386 . S
C596 C598 1.391 . S
C597 C596 1.386 . S
C597 C601 1.393 . S
C598 H590 0.950 . S
C598 C596 1.391 . S
C598 C599 1.400 . S
C599 C598 1.400 . S
C599 C600 1.398 . S
C599 C605 1.491 1_554 S
C600 H591 0.950 1_554 S
C600 C599 1.398 . S
C600 C601 1.391 . S
C601 H589 0.950 . S
C601 C597 1.393 . S
C601 C600 1.391 . S
C602 H592 0.950 . S
C602 C603 1.386 . S
C602 C604 1.391 . S
C603 C602 1.386 . S
C603 C607 1.393 . S
C604 H593 0.950 . S
C604 C602 1.391 . S
C604 C605 1.400 . S
C605 C599 1.491 1_556 S
C605 C604 1.400 . S
C605 C606 1.398 1_556 S
C606 H594 0.950 . S
C606 C605 1.398 1_554 S
C606 C607 1.391 1_554 S
C607 H595 0.950 . S
C607 C603 1.393 . S
C607 C606 1.391 1_556 S
H608 C616 0.950 . S
H609 C621 0.950 . S
H610 C618 0.950 . S
H611 C620 0.950 . S
H612 C622 0.950 . S
H613 C624 0.950 . S
H614 C626 0.950 . S
H615 C627 0.950 . S
C616 H608 0.950 . S
C616 C617 1.386 . S
C616 C618 1.391 . S
C617 C616 1.386 . S
C617 C621 1.393 . S
C618 H610 0.950 . S
C618 C616 1.391 . S
C618 C619 1.400 . S
C619 C618 1.400 . S
C619 C620 1.398 . S
C619 C625 1.491 . S
C620 H611 0.950 . S
C620 C619 1.398 . S
C620 C621 1.391 . S
C621 H609 0.950 . S
C621 C617 1.393 . S
C621 C620 1.391 . S
C622 H612 0.950 . S
C622 C623 1.386 . S
C622 C624 1.391 . S
C623 C622 1.386 . S
C623 C627 1.393 . S
C624 H613 0.950 . S
C624 C622 1.391 . S
C624 C625 1.400 . S
C625 C619 1.491 . S
C625 C624 1.400 . S
C625 C626 1.398 . S
C626 H614 0.950 . S
C626 C625 1.398 . S
C626 C627 1.391 . S
C627 H615 0.950 . S
C627 C623 1.393 . S
C627 C626 1.391 . S
H628 C636 0.950 . S
H629 C641 0.950 . S
H630 C638 0.950 1_554 S
H631 C640 0.950 . S
H632 C642 0.950 . S
H633 C644 0.950 . S
H634 C646 0.950 . S
H635 C647 0.950 . S
C636 H628 0.950 . S
C636 C637 1.386 . S
C636 C638 1.391 . S
C637 C636 1.386 . S
C637 C641 1.393 . S
C638 H630 0.950 1_556 S
C638 C636 1.391 . S
C638 C639 1.400 . S
C639 C638 1.400 . S
C639 C640 1.398 . S
C639 C645 1.491 1_556 S
C640 H631 0.950 . S
C640 C639 1.398 . S
C640 C641 1.391 . S
C641 H629 0.950 . S
C641 C637 1.393 . S
C641 C640 1.391 . S
C642 H632 0.950 . S
C642 C643 1.386 . S
C642 C644 1.391 1_554 S
C643 C642 1.386 . S
C643 C647 1.393 . S
C644 H633 0.950 . S
C644 C642 1.391 1_556 S
C644 C645 1.400 1_556 S
C645 C639 1.491 1_554 S
C645 C644 1.400 1_554 S
C645 C646 1.398 . S
C646 H634 0.950 . S
C646 C645 1.398 . S
C646 C647 1.391 . S
C647 H635 0.950 . S
C647 C643 1.393 . S
C647 C646 1.391 . S
H648 C656 0.950 . S
H649 C661 0.950 . S
H650 C658 0.950 . S
H651 C660 0.950 . S
H652 C662 0.950 . S
H653 C664 0.950 . S
H654 C666 0.950 . S
H655 C667 0.950 . S
C656 H648 0.950 . S
C656 C657 1.386 . S
C656 C658 1.391 . S
C657 C656 1.386 . S
C657 C661 1.393 . S
C658 H650 0.950 . S
C658 C656 1.391 . S
C658 C659 1.400 . S
C659 C658 1.400 . S
C659 C660 1.398 . S
C659 C665 1.491 . S
C660 H651 0.950 . S
C660 C659 1.398 . S
C660 C661 1.391 . S
C661 H649 0.950 . S
C661 C657 1.393 . S
C661 C660 1.391 . S
C662 H652 0.950 . S
C662 C663 1.386 . S
C662 C664 1.391 . S
C663 C662 1.386 . S
C663 C667 1.393 . S
C664 H653 0.950 . S
C664 C662 1.391 . S
C664 C665 1.400 . S
C665 C659 1.491 . S
C665 C664 1.400 . S
C665 C666 1.398 . S
C666 H654 0.950 . S
C666 C665 1.398 . S
C666 C667 1.391 . S
C667 H655 0.950 . S
C667 C663 1.393 . S
C667 C666 1.391 . S
H668 C676 0.950 . S
H669 C681 0.950 . S
H670 C678 0.950 . S
H671 C680 0.950 . S
H672 C682 0.950 . S
H673 C684 0.950 . S
H674 C686 0.950 . S
H675 C687 0.950 . S
C676 H668 0.950 . S
C676 C677 1.386 . S
C676 C678 1.391 . S
C677 C676 1.386 . S
C677 C681 1.393 . S
C678 H670 0.950 . S
C678 C676 1.391 . S
C678 C679 1.400 . S
C679 C678 1.400 . S
C679 C680 1.398 . S
C679 C685 1.491 . S
C680 H671 0.950 . S
C680 C679 1.398 . S
C680 C681 1.391 . S
C681 H669 0.950 . S
C681 C677 1.393 . S
C681 C680 1.391 . S
C682 H672 0.950 . S
C682 C683 1.386 . S
C682 C684 1.391 . S
C683 C682 1.386 . S
C683 C687 1.393 . S
C684 H673 0.950 . S
C684 C682 1.391 . S
C684 C685 1.400 . S
C685 C679 1.491 . S
C685 C684 1.400 . S
C685 C686 1.398 . S
C686 H674 0.950 . S
C686 C685 1.398 . S
C686 C687 1.391 . S
C687 H675 0.950 . S
C687 C683 1.393 . S
C687 C686 1.391 . S
H688 C696 0.950 . S
H689 C701 0.950 . S
H690 C698 0.950 . S
H691 C700 0.950 . S
H692 C702 0.950 . S
H693 C704 0.950 . S
H694 C706 0.950 . S
H695 C707 0.950 . S
C696 H688 0.950 . S
C696 C697 1.386 . S
C696 C698 1.391 . S
C697 C696 1.386 . S
C697 C701 1.393 . S
C698 H690 0.950 . S
C698 C696 1.391 . S
C698 C699 1.400 . S
C699 C698 1.400 . S
C699 C700 1.398 . S
C699 C705 1.491 . S
C700 H691 0.950 . S
C700 C699 1.398 . S
C700 C701 1.391 . S
C701 H689 0.950 . S
C701 C697 1.393 . S
C701 C700 1.391 . S
C702 H692 0.950 . S
C702 C703 1.386 . S
C702 C704 1.391 . S
C703 C702 1.386 . S
C703 C707 1.393 . S
C704 H693 0.950 . S
C704 C702 1.391 . S
C704 C705 1.400 . S
C705 C699 1.491 . S
C705 C704 1.400 . S
C705 C706 1.398 . S
C706 H694 0.950 . S
C706 C705 1.398 . S
C706 C707 1.391 . S
C707 H695 0.950 . S
C707 C703 1.393 . S
C707 C706 1.391 . S
H708 C716 0.950 . S
H709 C721 0.950 . S
H710 C718 0.950 . S
H711 C720 0.950 . S
H712 C722 0.950 . S
H713 C724 0.950 . S
H714 C726 0.950 . S
H715 C727 0.950 . S
C716 H708 0.950 . S
C716 C717 1.386 . S
C716 C718 1.391 . S
C717 C716 1.386 . S
C717 C721 1.393 . S
C718 H710 0.950 . S
C718 C716 1.391 . S
C718 C719 1.400 . S
C719 C718 1.400 . S
C719 C720 1.398 . S
C719 C725 1.491 . S
C720 H711 0.950 . S
C720 C719 1.398 . S
C720 C721 1.391 . S
C721 H709 0.950 . S
C721 C717 1.393 . S
C721 C720 1.391 . S
C722 H712 0.950 . S
C722 C723 1.386 . S
C722 C724 1.391 . S
C723 C722 1.386 . S
C723 C727 1.393 . S
C724 H713 0.950 . S
C724 C722 1.391 . S
C724 C725 1.400 . S
C725 C719 1.491 . S
C725 C724 1.400 . S
C725 C726 1.398 . S
C726 H714 0.950 . S
C726 C725 1.398 . S
C726 C727 1.391 . S
C727 H715 0.950 . S
C727 C723 1.393 . S
C727 C726 1.391 . S
H728 C736 0.950 . S
H729 C741 0.950 . S
H730 C738 0.950 . S
H731 C740 0.950 . S
H732 C742 0.950 . S
H733 C744 0.950 . S
H734 C746 0.950 . S
H735 C747 0.950 . S
C736 H728 0.950 . S
C736 C737 1.386 . S
C736 C738 1.391 . S
C737 C736 1.386 . S
C737 C741 1.393 . S
C738 H730 0.950 . S
C738 C736 1.391 . S
C738 C739 1.400 . S
C739 C738 1.400 . S
C739 C740 1.398 . S
C739 C745 1.491 . S
C740 H731 0.950 . S
C740 C739 1.398 . S
C740 C741 1.391 . S
C741 H729 0.950 . S
C741 C737 1.393 . S
C741 C740 1.391 . S
C742 H732 0.950 . S
C742 C743 1.386 . S
C742 C744 1.391 . S
C743 C742 1.386 . S
C743 C747 1.393 . S
C744 H733 0.950 . S
C744 C742 1.391 . S
C744 C745 1.400 . S
C745 C739 1.491 . S
C745 C744 1.400 . S
C745 C746 1.398 . S
C746 H734 0.950 . S
C746 C745 1.398 . S
C746 C747 1.391 . S
C747 H735 0.950 . S
C747 C743 1.393 . S
C747 C746 1.391 . S
H748 C756 0.950 . S
H749 C761 0.950 . S
H750 C758 0.950 . S
H751 C760 0.950 . S
H752 C762 0.950 . S
H753 C764 0.950 . S
H754 C766 0.950 . S
H755 C767 0.950 . S
C756 H748 0.950 . S
C756 C757 1.386 . S
C756 C758 1.391 . S
C757 C756 1.386 . S
C757 C761 1.393 . S
C758 H750 0.950 . S
C758 C756 1.391 . S
C758 C759 1.400 . S
C759 C758 1.400 . S
C759 C760 1.398 . S
C759 C765 1.491 . S
C760 H751 0.950 . S
C760 C759 1.398 . S
C760 C761 1.391 . S
C761 H749 0.950 . S
C761 C757 1.393 . S
C761 C760 1.391 . S
C762 H752 0.950 . S
C762 C763 1.386 . S
C762 C764 1.391 . S
C763 C762 1.386 . S
C763 C767 1.393 . S
C764 H753 0.950 . S
C764 C762 1.391 . S
C764 C765 1.400 . S
C765 C759 1.491 . S
C765 C764 1.400 . S
C765 C766 1.398 . S
C766 H754 0.950 . S
C766 C765 1.398 . S
C766 C767 1.391 . S
C767 H755 0.950 . S
C767 C763 1.393 . S
C767 C766 1.391 . S
H768 C776 0.950 . S
H769 C781 0.950 . S
H770 C778 0.950 . S
H771 C780 0.950 . S
H772 C782 0.950 . S
H773 C784 0.950 . S
H774 C786 0.950 . S
H775 C787 0.950 . S
C776 H768 0.950 . S
C776 C777 1.386 . S
C776 C778 1.391 . S
C777 C776 1.386 . S
C777 C781 1.393 . S
C778 H770 0.950 . S
C778 C776 1.391 . S
C778 C779 1.400 . S
C779 C778 1.400 . S
C779 C780 1.398 . S
C779 C785 1.491 . S
C780 H771 0.950 . S
C780 C779 1.398 . S
C780 C781 1.391 . S
C781 H769 0.950 . S
C781 C777 1.393 . S
C781 C780 1.391 . S
C782 H772 0.950 . S
C782 C783 1.386 . S
C782 C784 1.391 . S
C783 C782 1.386 . S
C783 C787 1.393 . S
C784 H773 0.950 . S
C784 C782 1.391 . S
C784 C785 1.400 . S
C785 C779 1.491 . S
C785 C784 1.400 . S
C785 C786 1.398 . S
C786 H774 0.950 . S
C786 C785 1.398 . S
C786 C787 1.391 . S
C787 H775 0.950 . S
C787 C783 1.393 . S
C787 C786 1.391 . S
H788 C796 0.950 . S
H789 C801 0.950 . S
H790 C798 0.950 . S
H791 C800 0.950 . S
H792 C802 0.950 . S
H793 C804 0.950 . S
H794 C806 0.950 . S
H795 C807 0.950 . S
C796 H788 0.950 . S
C796 C797 1.386 . S
C796 C798 1.391 . S
C797 C796 1.386 . S
C797 C801 1.393 . S
C798 H790 0.950 . S
C798 C796 1.391 . S
C798 C799 1.400 . S
C799 C798 1.400 . S
C799 C800 1.398 . S
C799 C805 1.491 . S
C800 H791 0.950 . S
C800 C799 1.398 . S
C800 C801 1.391 . S
C801 H789 0.950 . S
C801 C797 1.393 . S
C801 C800 1.391 . S
C802 H792 0.950 . S
C802 C803 1.386 . S
C802 C804 1.391 . S
C803 C802 1.386 . S
C803 C807 1.393 . S
C804 H793 0.950 . S
C804 C802 1.391 . S
C804 C805 1.400 . S
C805 C799 1.491 . S
C805 C804 1.400 . S
C805 C806 1.398 . S
C806 H794 0.950 . S
C806 C805 1.398 . S
C806 C807 1.391 . S
C807 H795 0.950 . S
C807 C803 1.393 . S
C807 C806 1.391 . S
H808 C816 0.950 . S
H809 C821 0.950 . S
H810 C818 0.950 . S
H811 C820 0.950 . S
H812 C822 0.950 . S
H813 C824 0.950 . S
H814 C826 0.950 . S
H815 C827 0.950 . S
C816 H808 0.950 . S
C816 C817 1.386 . S
C816 C818 1.391 . S
C817 C816 1.386 . S
C817 C821 1.393 . S
C818 H810 0.950 . S
C818 C816 1.391 . S
C818 C819 1.400 . S
C819 C818 1.400 . S
C819 C820 1.398 . S
C819 C825 1.491 . S
C820 H811 0.950 . S
C820 C819 1.398 . S
C820 C821 1.391 . S
C821 H809 0.950 . S
C821 C817 1.393 . S
C821 C820 1.391 . S
C822 H812 0.950 . S
C822 C823 1.386 . S
C822 C824 1.391 . S
C823 C822 1.386 . S
C823 C827 1.393 . S
C824 H813 0.950 . S
C824 C822 1.391 . S
C824 C825 1.400 . S
C825 C819 1.491 . S
C825 C824 1.400 . S
C825 C826 1.398 . S
C826 H814 0.950 . S
C826 C825 1.398 . S
C826 C827 1.391 . S
C827 H815 0.950 . S
C827 C823 1.393 . S
C827 C826 1.391 . S
H828 C836 0.950 . S
H829 C841 0.950 . S
H830 C838 0.950 . S
H831 C840 0.950 . S
H832 C842 0.950 . S
H833 C844 0.950 . S
H834 C846 0.950 . S
H835 C847 0.950 . S
C836 H828 0.950 . S
C836 C837 1.386 . S
C836 C838 1.391 1_565 S
C837 C836 1.386 . S
C837 C841 1.393 1_655 S
C838 H830 0.950 . S
C838 C836 1.391 1_545 S
C838 C839 1.400 1_545 S
C839 C838 1.400 1_565 S
C839 C840 1.398 1_655 S
C839 C845 1.491 1_664 S
C840 H831 0.950 . S
C840 C839 1.398 1_455 S
C840 C841 1.391 . S
C841 H829 0.950 . S
C841 C837 1.393 1_455 S
C841 C840 1.391 . S
C842 H832 0.950 . S
C842 C843 1.386 . S
C842 C844 1.391 1_545 S
C843 C842 1.386 . S
C843 C847 1.393 1_455 S
C844 H833 0.950 . S
C844 C842 1.391 1_565 S
C844 C845 1.400 1_565 S
C845 C839 1.491 1_446 S
C845 C844 1.400 1_545 S
C845 C846 1.398 1_455 S
C846 H834 0.950 . S
C846 C845 1.398 1_655 S
C846 C847 1.391 . S
C847 H835 0.950 . S
C847 C843 1.393 1_655 S
C847 C846 1.391 . S
H848 C856 0.950 . S
H849 C861 0.950 . S
H850 C858 0.950 . S
H851 C860 0.950 . S
H852 C862 0.950 . S
H853 C864 0.950 1_545 S
H854 C866 0.950 . S
H855 C867 0.950 . S
C856 H848 0.950 . S
C856 C857 1.386 1_455 S
C856 C858 1.391 1_545 S
C857 C856 1.386 1_655 S
C857 C861 1.393 . S
C858 H850 0.950 . S
C858 C856 1.391 1_565 S
C858 C859 1.400 1_465 S
C859 C858 1.400 1_645 S
C859 C860 1.398 . S
C859 C865 1.491 1_645 S
C860 H851 0.950 . S
C860 C859 1.398 . S
C860 C861 1.391 . S
C861 H849 0.950 . S
C861 C857 1.393 . S
C861 C860 1.391 . S
C862 H852 0.950 . S
C862 C863 1.386 1_655 S
C862 C864 1.391 . S
C863 C862 1.386 1_455 S
C863 C867 1.393 . S
C864 H853 0.950 1_565 S
C864 C862 1.391 . S
C864 C865 1.400 1_655 S
C865 C859 1.491 1_465 S
C865 C864 1.400 1_455 S
C865 C866 1.398 . S
C866 H854 0.950 . S
C866 C865 1.398 . S
C866 C867 1.391 . S
C867 H855 0.950 . S
C867 C863 1.393 . S
C867 C866 1.391 . S
H868 C876 0.950 . S
H869 C881 0.950 . S
H870 C878 0.950 . S
H871 C880 0.950 . S
H872 C882 0.950 . S
H873 C884 0.950 . S
H874 C886 0.950 . S
H875 C887 0.950 . S
C876 H868 0.950 . S
C876 C877 1.386 . S
C876 C878 1.391 . S
C877 C876 1.386 . S
C877 C881 1.393 . S
C878 H870 0.950 . S
C878 C876 1.391 . S
C878 C879 1.400 . S
C879 C878 1.400 . S
C879 C880 1.398 . S
C879 C885 1.491 1_554 S
C880 H871 0.950 . S
C880 C879 1.398 . S
C880 C881 1.391 . S
C881 H869 0.950 . S
C881 C877 1.393 . S
C881 C880 1.391 . S
C882 H872 0.950 . S
C882 C883 1.386 . S
C882 C884 1.391 . S
C883 C882 1.386 . S
C883 C887 1.393 . S
C884 H873 0.950 . S
C884 C882 1.391 . S
C884 C885 1.400 . S
C885 C879 1.491 1_556 S
C885 C884 1.400 . S
C885 C886 1.398 . S
C886 H874 0.950 . S
C886 C885 1.398 . S
C886 C887 1.391 . S
C887 H875 0.950 . S
C887 C883 1.393 . S
C887 C886 1.391 . S
C257 C20 1.101 . S
C263 C1 1.109 . S
C277 C33 1.654 . S
C283 C60 1.660 . S
C297 C82 1.113 . S
C303 C63 1.097 . S
C317 C122 1.646 . S
C323 C95 1.649 . S
C337 C126 1.639 . S
C343 C153 1.633 . S
C357 C184 1.656 . S
C363 C157 1.660 . S
C377 C188 1.660 . S
C383 C215 1.655 . S
C397 C219 1.653 . S
C403 C246 1.657 . S
C417 C103 1.398 . S
C423 C0 1.392 . S
C437 C61 1.389 . S
C443 C81 1.363 . S
C457 C134 1.303 . S
C463 C247 1.299 . S
C477 C165 1.278 . S
C483 C196 1.267 . S
C497 C92 1.077 . S
C503 C2 1.019 . S
C517 C93 1.046 . S
C523 C51 0.990 . S
C537 C91 1.063 . S
C543 C10 1.103 . S
C557 C94 0.946 . S
C563 C50 1.041 . S
C577 C186 1.004 . S
C583 C125 0.935 . S
C597 C156 0.980 . S
C603 C236 1.024 . S
C617 C187 0.916 . S
C623 C124 1.003 . S
C637 C237 0.920 . S
C643 C155 1.025 . S
C657 C206 1.879 1_545 S
C663 C19 1.907 . S
C677 C41 1.726 . S
C683 C218 1.797 . S
C697 C144 1.869 . S
C703 C62 1.904 . S
C717 C175 1.786 1_545 S
C723 C123 1.747 . S
C737 C154 1.958 . S
C743 C64 1.988 1_565 S
C757 C113 1.797 . S
C763 C185 1.732 . S
C777 C29 2.002 . S
C783 C216 1.937 . S
C797 C227 1.752 . S
C803 C32 1.789 1_565 S
C817 C143 1.099 . S
C823 C30 1.095 . S
C837 C174 1.139 . S
C843 C31 1.139 . S
C857 C72 1.090 . S
C863 C205 1.078 . S
C877 C112 1.127 . S
C883 C217 1.127 . S
