# Generated by pormake.
# Topology qtz-e, (6)-cn, num edge types: 1
# Building blocks:
#     Node 0, Type 0, BuildingBlock: BETDEL_clean_sbu_0, # of connection points: 6
#     Node 1, Type 0, BuildingBlock: BETDEL_clean_sbu_0, # of connection points: 6
#     Node 2, Type 0, BuildingBlock: BETDEL_clean_sbu_0, # of connection points: 6
#     Node 3, Type 0, BuildingBlock: BETDEL_clean_sbu_0, # of connection points: 6
#     Node 4, Type 0, BuildingBlock: BETDEL_clean_sbu_0, # of connection points: 6
#     Node 5, Type 0, BuildingBlock: BETDEL_clean_sbu_0, # of connection points: 6
#     Edge 6, Type (0, 0), BuildingBlock: ZUJKAS_clean_linker_0, # of connection points: 2
#     Edge 7, Type (0, 0), BuildingBlock: ZUJKAS_clean_linker_0, # of connection points: 2
#     Edge 8, Type (0, 0), BuildingBlock: ZUJKAS_clean_linker_0, # of connection points: 2
#     Edge 9, Type (0, 0), BuildingBlock: ZUJKAS_clean_linker_0, # of connection points: 2
#     Edge 10, Type (0, 0), BuildingBlock: ZUJKAS_clean_linker_0, # of connection points: 2
#     Edge 11, Type (0, 0), BuildingBlock: ZUJKAS_clean_linker_0, # of connection points: 2
#     Edge 12, Type (0, 0), BuildingBlock: ZUJKAS_clean_linker_0, # of connection points: 2
#     Edge 13, Type (0, 0), BuildingBlock: ZUJKAS_clean_linker_0, # of connection points: 2
#     Edge 14, Type (0, 0), BuildingBlock: ZUJKAS_clean_linker_0, # of connection points: 2
#     Edge 15, Type (0, 0), BuildingBlock: ZUJKAS_clean_linker_0, # of connection points: 2
#     Edge 16, Type (0, 0), BuildingBlock: ZUJKAS_clean_linker_0, # of connection points: 2
#     Edge 17, Type (0, 0), BuildingBlock: ZUJKAS_clean_linker_0, # of connection points: 2
#     Edge 18, Type (0, 0), BuildingBlock: ZUJKAS_clean_linker_0, # of connection points: 2
#     Edge 19, Type (0, 0), BuildingBlock: ZUJKAS_clean_linker_0, # of connection points: 2
#     Edge 20, Type (0, 0), BuildingBlock: ZUJKAS_clean_linker_0, # of connection points: 2
#     Edge 21, Type (0, 0), BuildingBlock: ZUJKAS_clean_linker_0, # of connection points: 2
#     Edge 22, Type (0, 0), BuildingBlock: ZUJKAS_clean_linker_0, # of connection points: 2
#     Edge 23, Type (0, 0), BuildingBlock: ZUJKAS_clean_linker_0, # of connection points: 2
# Relax obj value: 0.222
# Max RMSD: 0.208
# Mean RMSD: 0.208
data_MOF--net-qtz-e--node1-BETDEL_clean_sbu_0--edge1-ZUJKAS_clean_linker_0
_symmetry_space_group_name_H-M    P1
_symmetry_Int_Tables_number       1
_symmetry_cell_setting            triclinic
loop_
_symmetry_equiv_pos_as_xyz
'x, y, z'
_cell_length_a     31.666063
_cell_length_b     31.752621
_cell_length_c     49.908601
_cell_angle_alpha  89.987871
_cell_angle_beta   90.27502
_cell_angle_gamma 119.95178
loop_
_atom_site_label
_atom_site_type_symbol
_atom_site_fract_x
_atom_site_fract_y
_atom_site_fract_z
_atom_type_partial_charge
Dy0 Dy 0.15816 0.41642 0.04061 0.0
C1 C 0.14771 0.25994 0.97647 0.0
C2 C 0.1512 0.48553 0.06948 0.0
Dy3 Dy 0.14189 0.32454 1.01021 0.0
O4 O 0.19025 0.49238 0.0571 0.0
O5 O 0.11538 0.44201 0.06444 0.0
O6 O 0.21676 0.41524 0.06506 0.0
O7 O 0.20535 0.38977 0.02577 0.0
C8 C 0.22967 0.395 0.04678 0.0
C9 C 0.06268 0.33217 0.01921 0.0
O10 O 0.13965 0.30082 0.05282 0.0
O11 O 0.11762 0.35531 0.06916 0.0
O12 O 0.11542 0.27367 0.97493 0.0
O13 O 0.17623 0.2806 0.99697 0.0
O14 O 0.06188 0.29094 0.02093 0.0
O15 O 0.10428 0.36544 1.01277 0.0
O16 O 0.17999 0.45024 1.00008 0.0
O17 O 0.1739 0.3822 0.97822 0.0
C18 C 0.12283 0.31678 0.07227 0.0
C19 C 0.18498 0.42855 0.97853 0.0
Dy20 Dy 0.77496 0.21132 0.38324 0.0
C21 C 0.91251 0.19549 0.3153 0.0
C22 C 0.70372 0.21599 0.41156 0.0
Dy23 Dy 0.84616 0.19606 0.34973 0.0
O24 O 0.74499 0.25324 0.40446 0.0
O25 O 0.70035 0.17639 0.40183 0.0
O26 O 0.82991 0.239 0.41599 0.0
O27 O 0.85444 0.25479 0.37677 0.0
C28 C 0.86801 0.2613 0.40104 0.0
C29 C 0.75187 0.12719 0.34565 0.0
O30 O 0.85026 0.1637 0.38865 0.0
O31 O 0.77286 0.14562 0.40132 0.0
O32 O 0.86731 0.18114 0.30977 0.0
O33 O 0.92223 0.21084 0.34 0.0
O34 O 0.7868 0.11711 0.34556 0.0
O35 O 0.76915 0.17211 0.34709 0.0
O36 O 0.77711 0.25373 0.34646 0.0
O37 O 0.84422 0.25535 0.32651 0.0
C38 C 0.81157 0.14026 0.40415 0.0
C39 C 0.81076 0.26878 0.32738 0.0
Dy40 Dy 0.5306 0.77883 0.71912 0.0
C41 C 0.68789 0.90441 0.64661 0.0
C42 C 0.46533 0.70921 0.75298 0.0
Dy43 Dy 0.62203 0.84117 0.68261 0.0
O44 O 0.45556 0.73574 0.73712 0.0
O45 O 0.51037 0.72018 0.74996 0.0
O46 O 0.51699 0.84031 0.72668 0.0
O47 O 0.58647 0.85549 0.71584 0.0
C48 C 0.55962 0.87405 0.71874 0.0
C49 C 0.59064 0.74606 0.6854 0.0
O50 O 0.65813 0.85521 0.72311 0.0
O51 O 0.59425 0.78725 0.74323 0.0
O52 O 0.69579 0.87679 0.66261 0.0
O53 O 0.64458 0.8977 0.65051 0.0
O54 O 0.6356 0.77785 0.68022 0.0
O55 O 0.56525 0.76607 0.68548 0.0
O56 O 0.49445 0.76512 0.67837 0.0
O57 O 0.55908 0.82958 0.65639 0.0
C58 C 0.64044 0.8226 0.74275 0.0
C59 C 0.51271 0.79459 0.65732 0.0
Dy60 Dy 0.80039 0.55003 0.03867 0.0
C61 C 0.82379 0.7065 0.96941 0.0
C62 C 0.79966 0.48799 0.0771 0.0
Dy63 Dy 0.82584 0.64259 1.0054 0.0
O64 O 0.7617 0.48946 0.06844 0.0
O65 O 0.83794 0.51914 0.0639 0.0
O66 O 0.72365 0.51634 0.025 0.0
O67 O 0.76487 0.59264 0.03041 0.0
C68 C 0.72506 0.55767 0.02199 0.0
C69 C 0.90028 0.63158 0.02075 0.0
O70 O 0.8316 0.6752 0.04575 0.0
O71 O 0.82707 0.60982 0.06944 0.0
O72 O 0.85848 0.69609 0.97151 0.0
O73 O 0.79059 0.68256 0.98729 0.0
O74 O 0.90428 0.67427 0.01886 0.0
O75 O 0.85913 0.59891 1.01294 0.0
O76 O 0.79829 0.51927 0.99819 0.0
O77 O 0.79347 0.58079 0.97529 0.0
C78 C 0.8346 0.65484 0.06833 0.0
C79 C 0.78953 0.537 0.97605 0.0
Dy80 Dy 0.18995 0.75944 0.37654 0.0
C81 C 0.07461 0.81163 0.31064 0.0
C82 C 0.24811 0.74672 0.41281 0.0
Dy83 Dy 0.13847 0.80275 0.34395 0.0
O84 O 0.20201 0.71681 0.40882 0.0
O85 O 0.26302 0.78269 0.39606 0.0
O86 O 0.12188 0.68834 0.37427 0.0
O87 O 0.11704 0.75158 0.3774 0.0
C88 C 0.09263 0.70592 0.37506 0.0
C89 C 0.23566 0.85414 0.34492 0.0
O90 O 0.13421 0.83259 0.38344 0.0
O91 O 0.19172 0.81754 0.40348 0.0
O92 O 0.12022 0.84425 0.31383 0.0
O93 O 0.06375 0.77483 0.32618 0.0
O94 O 0.20909 0.87479 0.3436 0.0
O95 O 0.20938 0.80895 0.34354 0.0
O96 O 0.19513 0.73075 0.33638 0.0
O97 O 0.1371 0.74545 0.31656 0.0
C98 C 0.16384 0.83789 0.40358 0.0
C99 C 0.16518 0.7253 0.31621 0.0
Dy100 Dy 0.43824 0.18898 0.718 0.0
C101 C 0.2723 0.09331 0.64591 0.0
C102 C 0.51069 0.24073 0.75457 0.0
Dy103 Dy 0.3426 0.14879 0.68233 0.0
O104 O 0.48448 0.19358 0.75368 0.0
O105 O 0.4978 0.2594 0.73524 0.0
O106 O 0.4487 0.12712 0.70596 0.0
O107 O 0.37837 0.11837 0.70582 0.0
C108 C 0.4033 0.09914 0.69906 0.0
C109 C 0.37988 0.23904 0.70024 0.0
O110 O 0.30769 0.1297 0.72264 0.0
O111 O 0.37923 0.17562 0.74743 0.0
O112 O 0.29033 0.13982 0.64918 0.0
O113 O 0.29186 0.07713 0.66299 0.0
O114 O 0.33346 0.21159 0.69505 0.0
O115 O 0.40321 0.21851 0.69302 0.0
O116 O 0.47435 0.20986 0.67778 0.0
O117 O 0.4029 0.17277 0.65207 0.0
C118 C 0.33096 0.14903 0.74552 0.0
C119 C 0.45122 0.19575 0.65433 0.0
H120 H 0.22861 0.6938 0.30143 0.0
H121 H 0.23 0.65634 0.25862 0.0
H122 H 0.10164 0.6596 0.23262 0.0
H123 H 0.1002 0.69723 0.27482 0.0
H124 H 0.16089 0.5704 0.23388 0.0
H125 H 0.19665 0.72928 0.17172 0.0
H126 H 0.20369 0.73283 0.20771 0.0
H127 H 0.14424 0.70898 0.19275 0.0
C128 C 0.20058 0.68632 0.28663 0.0
C129 C 0.16463 0.69904 0.29149 0.0
C130 C 0.2015 0.66504 0.26216 0.0
C131 C 0.16662 0.6563 0.24217 0.0
C132 C 0.12973 0.66728 0.24742 0.0
H133 H 0.0801 0.46187 0.1065 0.0
H134 H 0.08507 0.50583 0.14762 0.0
C135 C 0.12885 0.68857 0.27171 0.0
C136 C 0.16804 0.6352 0.21585 0.0
H137 H 0.1709 0.65456 0.14831 0.0
C138 C 0.16349 0.58895 0.21518 0.0
C139 C 0.17211 0.65973 0.19144 0.0
C140 C 0.17995 0.71066 0.19086 0.0
C141 C 0.16121 0.56586 0.19076 0.0
C142 C 0.16271 0.58935 0.16636 0.0
C143 C 0.16901 0.63631 0.16702 0.0
C144 C 0.15769 0.56555 0.14 0.0
C145 C 0.1575 0.51659 0.19133 0.0
C146 C 0.19575 0.58588 0.1213 0.0
C147 C 0.19264 0.56117 0.09746 0.0
C148 C 0.15124 0.51597 0.09189 0.0
C149 C 0.11225 0.49692 0.11005 0.0
C150 C 0.1153 0.52167 0.13376 0.0
H151 H 0.17014 0.50977 0.21081 0.0
H152 H 0.11885 0.488 0.18845 0.0
H153 H 0.17928 0.51305 0.17503 0.0
H154 H 0.22863 0.61993 0.12563 0.0
H155 H 0.22333 0.57652 0.08391 0.0
H156 H 0.55051 0.23499 0.64827 0.0
H157 H 0.59486 0.24388 0.60647 0.0
H158 H 0.4598 0.18197 0.56209 0.0
H159 H 0.41555 0.17351 0.60323 0.0
H160 H 0.58319 0.17163 0.5703 0.0
H161 H 0.54621 0.30549 0.51997 0.0
H162 H 0.53696 0.29305 0.55541 0.0
H163 H 0.492 0.25286 0.53161 0.0
C164 C 0.53036 0.22394 0.62956 0.0
C165 C 0.47946 0.20411 0.62921 0.0
C166 C 0.55573 0.22885 0.6057 0.0
C167 C 0.53077 0.21444 0.58105 0.0
C168 C 0.48006 0.19449 0.58071 0.0
H169 H 0.62303 0.13932 0.43345 0.0
H170 H 0.58033 0.13988 0.47418 0.0
C171 C 0.45476 0.18951 0.60442 0.0
C172 C 0.557 0.21826 0.55569 0.0
H173 H 0.57611 0.26483 0.49226 0.0
C174 C 0.58199 0.19232 0.55331 0.0
C175 C 0.55579 0.24559 0.53356 0.0
C176 C 0.53171 0.27622 0.53528 0.0
C177 C 0.60468 0.19195 0.52921 0.0
C178 C 0.60161 0.21754 0.50671 0.0
C179 C 0.57781 0.24459 0.50934 0.0
C180 C 0.62395 0.21757 0.4805 0.0
C181 C 0.63225 0.16459 0.5282 0.0
C182 C 0.66083 0.26132 0.46965 0.0
C183 C 0.68488 0.26113 0.44621 0.0
C184 C 0.67233 0.21719 0.43311 0.0
C185 C 0.63355 0.17373 0.44313 0.0
C186 C 0.60948 0.17395 0.46657 0.0
H187 H 0.64195 0.15794 0.54858 0.0
H188 H 0.60908 0.12878 0.51845 0.0
H189 H 0.66621 0.18477 0.51637 0.0
H190 H 0.67233 0.29547 0.4799 0.0
H191 H 0.71469 0.29518 0.439 0.0
H192 H 0.17184 0.39603 0.92691 0.0
H193 H 0.21379 0.44224 0.88696 0.0
H194 H 0.29157 0.57208 0.935 0.0
H195 H 0.24778 0.52643 0.97483 0.0
H196 H 0.26815 0.59414 0.88905 0.0
H197 H 0.34961 0.47864 0.86849 0.0
H198 H 0.28434 0.44426 0.86816 0.0
H199 H 0.31635 0.47291 0.89873 0.0
C200 C 0.19757 0.43454 0.92891 0.0
C201 C 0.20679 0.45755 0.95404 0.0
C202 C 0.2219 0.46085 0.90608 0.0
C203 C 0.25708 0.51038 0.90803 0.0
C204 C 0.26492 0.53383 0.93296 0.0
H205 H 0.48869 0.66804 0.79392 0.0
H206 H 0.43674 0.61999 0.83096 0.0
C207 C 0.2398 0.50773 0.95573 0.0
C208 C 0.28621 0.53758 0.88425 0.0
H209 H 0.35944 0.5356 0.83479 0.0
C210 C 0.28823 0.5814 0.87723 0.0
C211 C 0.31324 0.52153 0.86905 0.0
C212 C 0.31626 0.47706 0.87665 0.0
C213 C 0.31625 0.60943 0.8555 0.0
C214 C 0.34155 0.59227 0.83961 0.0
C215 C 0.33958 0.54851 0.84667 0.0
C216 C 0.37225 0.62016 0.8164 0.0
C217 C 0.31973 0.65795 0.85048 0.0
C218 C 0.3532 0.63538 0.79543 0.0
C219 C 0.38319 0.66364 0.77445 0.0
C220 C 0.43241 0.67612 0.77373 0.0
C221 C 0.45087 0.659 0.794 0.0
C222 C 0.42116 0.63152 0.81518 0.0
H223 H 0.31096 0.67201 0.86875 0.0
H224 H 0.35676 0.68543 0.84371 0.0
H225 H 0.29309 0.65369 0.83468 0.0
H226 H 0.31524 0.62576 0.79536 0.0
H227 H 0.36798 0.67605 0.75892 0.0
H228 H 0.88609 0.32933 0.29531 0.0
H229 H 0.88243 0.36808 0.25384 0.0
H230 H 0.72828 0.31077 0.26509 0.0
H231 H 0.73212 0.27307 0.30723 0.0
H232 H 0.83393 0.3235 0.20986 0.0
H233 H 0.76885 0.44738 0.24383 0.0
H234 H 0.7905 0.41855 0.26692 0.0
H235 H 0.72945 0.38547 0.25363 0.0
C236 C 0.85155 0.32579 0.28928 0.0
C237 C 0.8094 0.29822 0.30464 0.0
C238 C 0.84949 0.34785 0.26546 0.0
C239 C 0.80518 0.34271 0.25626 0.0
C240 C 0.76318 0.31631 0.27196 0.0
H241 H 0.72153 0.42015 0.1051 0.0
H242 H 0.72219 0.38269 0.14797 0.0
C243 C 0.76536 0.29467 0.29608 0.0
C244 C 0.80277 0.36212 0.22941 0.0
H245 H 0.76945 0.43585 0.19674 0.0
C246 C 0.82004 0.34827 0.20708 0.0
C247 C 0.78453 0.39437 0.22562 0.0
C248 C 0.76772 0.41272 0.2488 0.0
C249 C 0.81935 0.36546 0.18121 0.0
C250 C 0.80103 0.39752 0.17748 0.0
C251 C 0.78331 0.41108 0.19966 0.0
C252 C 0.80076 0.41812 0.15077 0.0
C253 C 0.83769 0.34876 0.15798 0.0
C254 C 0.84471 0.45035 0.13806 0.0
C255 C 0.8444 0.47191 0.11364 0.0
C256 C 0.80016 0.46138 0.10137 0.0
C257 C 0.7562 0.42856 0.11393 0.0
C258 C 0.75651 0.40728 0.13846 0.0
H259 H 0.84042 0.31614 0.16311 0.0
H260 H 0.81338 0.34025 0.14026 0.0
H261 H 0.87451 0.37834 0.1523 0.0
H262 H 0.87931 0.45994 0.14743 0.0
H263 H 0.8788 0.49816 0.10492 0.0
H264 H 0.5431 0.83803 0.60855 0.0
H265 H 0.49525 0.8249 0.568 0.0
H266 H 0.36632 0.71781 0.6088 0.0
H267 H 0.41407 0.73175 0.65008 0.0
H268 H 0.44569 0.74425 0.53797 0.0
H269 H 0.31837 0.80284 0.57569 0.0
H270 H 0.37234 0.81414 0.59397 0.0
H271 H 0.31854 0.75507 0.59486 0.0
C272 C 0.50447 0.81188 0.60915 0.0
C273 C 0.48243 0.78629 0.63283 0.0
C274 C 0.47713 0.80431 0.58578 0.0
C275 C 0.42698 0.77084 0.58529 0.0
C276 C 0.40475 0.74467 0.60877 0.0
H277 H 0.21496 0.68203 0.45407 0.0
H278 H 0.25821 0.68504 0.49555 0.0
C279 C 0.43217 0.75242 0.63234 0.0
C280 C 0.39886 0.76293 0.5599 0.0
H281 H 0.30386 0.77003 0.53178 0.0
C282 C 0.41467 0.7499 0.53667 0.0
C283 C 0.35841 0.7704 0.55808 0.0
C284 C 0.34108 0.78683 0.58189 0.0
C285 C 0.39126 0.74415 0.5118 0.0
C286 C 0.35105 0.7518 0.51 0.0
C287 C 0.33468 0.76408 0.53323 0.0
C288 C 0.32605 0.74821 0.48406 0.0
C289 C 0.40948 0.72962 0.48762 0.0
C290 C 0.34996 0.78249 0.46369 0.0
C291 C 0.32525 0.78097 0.43998 0.0
C292 C 0.27625 0.74499 0.43619 0.0
C293 C 0.25282 0.70996 0.45631 0.0
C294 C 0.27739 0.71176 0.48008 0.0
H295 H 0.43407 0.71549 0.4933 0.0
H296 H 0.37848 0.70142 0.47575 0.0
H297 H 0.43005 0.76181 0.47458 0.0
H298 H 0.38734 0.81126 0.46644 0.0
H299 H 0.3441 0.80869 0.42494 0.0
H300 H 0.76319 0.44075 0.97071 0.0
H301 H 0.72407 0.38774 0.93197 0.0
H302 H 0.73243 0.50871 0.8882 0.0
H303 H 0.77184 0.56194 0.92651 0.0
H304 H 0.63556 0.36859 0.90928 0.0
H305 H 0.78218 0.44831 0.83351 0.0
H306 H 0.79379 0.46098 0.8689 0.0
H307 H 0.77037 0.49227 0.84916 0.0
C308 C 0.75756 0.45633 0.95268 0.0
C309 C 0.77081 0.50573 0.95179 0.0
C310 C 0.73504 0.4259 0.93057 0.0
C311 C 0.72583 0.44434 0.90705 0.0
C312 C 0.74005 0.49383 0.90589 0.0
H313 H 0.56119 0.33912 0.76064 0.0
H314 H 0.61518 0.38595 0.79776 0.0
C315 C 0.76238 0.5242 0.92796 0.0
C316 C 0.69802 0.41139 0.88447 0.0
H317 H 0.70166 0.3946 0.81706 0.0
C318 C 0.65021 0.3738 0.88918 0.0
C319 C 0.71709 0.41843 0.85823 0.0
C320 C 0.76884 0.4569 0.85213 0.0
C321 C 0.62031 0.34426 0.8682 0.0
C322 C 0.63908 0.35185 0.84185 0.0
C323 C 0.68726 0.38881 0.83724 0.0
C324 C 0.60858 0.32321 0.81865 0.0
C325 C 0.56823 0.30655 0.8743 0.0
C326 C 0.58778 0.27244 0.81769 0.0
C327 C 0.55673 0.24558 0.79653 0.0
C328 C 0.54635 0.2691 0.77584 0.0
C329 C 0.56853 0.32002 0.77633 0.0
C330 C 0.5994 0.34682 0.79752 0.0
H331 H 0.55622 0.31329 0.89392 0.0
H332 H 0.54311 0.30583 0.85846 0.0
H333 H 0.56502 0.27014 0.87507 0.0
H334 H 0.59515 0.25351 0.83346 0.0
H335 H 0.54032 0.20638 0.79657 0.0
H336 H 0.27281 0.37411 1.00587 0.0
H337 H 0.36039 0.40597 1.00045 0.0
H338 H 0.38645 0.46976 0.07945 0.0
H339 H 0.29922 0.43653 0.08538 0.0
H340 H 0.42511 0.50203 0.99961 0.0
H341 H 0.47577 0.41474 0.07999 0.0
H342 H 0.41331 0.39254 0.07004 0.0
H343 H 0.44343 0.44341 0.09263 0.0
C344 C 0.29718 0.3935 0.02239 0.0
C345 C 0.27951 0.40325 0.04595 0.0
C346 C 0.34709 0.41196 0.01921 0.0
C347 C 0.37978 0.44023 0.03954 0.0
C348 C 0.36181 0.44735 0.06371 0.0
H349 H 0.69477 0.61337 0.04771 0.0
H350 H 0.60996 0.59595 0.04906 0.0
C351 C 0.31194 0.42846 0.06703 0.0
C352 C 0.43268 0.46621 0.03456 0.0
H353 H 0.54098 0.48431 0.05925 0.0
C354 C 0.45046 0.49799 1.01257 0.0
C355 C 0.46555 0.46111 0.05165 0.0
C356 C 0.44851 0.42574 0.07473 0.0
C357 C 0.50046 0.52466 1.00716 0.0
C358 C 0.53305 0.51966 0.02433 0.0
C359 C 0.5155 0.48856 0.04649 0.0
C360 C 0.58492 0.54102 0.01801 0.0
C361 C 0.51836 0.55767 0.98312 0.0
C362 C 0.59857 0.51716 0.99935 0.0
C363 C 0.64631 0.5263 0.99895 0.0
C364 C 0.68083 0.55986 0.01692 0.0
C365 C 0.66853 0.58763 0.03356 0.0
C366 C 0.62033 0.57772 0.03436 0.0
H367 H 0.48937 0.56326 0.97414 0.0
H368 H 0.54983 0.59351 0.9888 0.0
H369 H 0.53111 0.54142 0.96769 0.0
H370 H 0.57141 0.48837 0.98685 0.0
H371 H 0.65541 0.50459 0.98601 0.0
H372 H 0.01137 0.63205 0.35351 0.0
H373 H 0.95746 0.55983 0.37909 0.0
H374 H 0.0199 0.63802 0.45271 0.0
H375 H 0.07275 0.71103 0.42697 0.0
H376 H 0.05001 0.57118 0.43658 0.0
H377 H 0.84914 0.48266 0.4344 0.0
H378 H 0.87561 0.51168 0.40317 0.0
H379 H 0.88837 0.548 0.43302 0.0
C380 C 0.01073 0.63483 0.37513 0.0
C381 C 0.04605 0.67651 0.38837 0.0
C382 C 0.97994 0.59351 0.38984 0.0
C383 C 0.9852 0.5935 0.4178 0.0
C384 C 0.01516 0.63746 0.43118 0.0
H385 H 0.89011 0.29053 0.45287 0.0
H386 H 0.92787 0.37512 0.4676 0.0
C387 C 0.04519 0.67919 0.41643 0.0
C388 C 0.97368 0.54708 0.4305 0.0
H389 H 0.88353 0.42872 0.42963 0.0
C390 C 0.01333 0.54014 0.43628 0.0
C391 C 0.92603 0.50682 0.43005 0.0
C392 C 0.88231 0.51272 0.42507 0.0
C393 C 0.00702 0.49334 0.43812 0.0
C394 C 0.96005 0.45312 0.43451 0.0
C395 C 0.91971 0.46002 0.43211 0.0
C396 C 0.95257 0.40471 0.4281 0.0
C397 C 0.05082 0.48697 0.44142 0.0
C398 C 0.95705 0.39399 0.40134 0.0
C399 C 0.93487 0.34577 0.39272 0.0
C400 C 0.90797 0.30808 0.41088 0.0
C401 C 0.90998 0.31904 0.43837 0.0
C402 C 0.93143 0.36725 0.44688 0.0
H403 H 0.0831 0.52067 0.44893 0.0
H404 H 0.04259 0.45672 0.45547 0.0
H405 H 0.06002 0.47744 0.42173 0.0
H406 H 0.97341 0.42282 0.38664 0.0
H407 H 0.93424 0.33836 0.37149 0.0
H408 H 0.39951 0.01489 0.71034 0.0
H409 H 0.42699 0.97594 0.67863 0.0
H410 H 0.41178 0.05756 0.61406 0.0
H411 H 0.37734 0.09101 0.64531 0.0
H412 H 0.41998 0.93872 0.61878 0.0
H413 H 0.56309 0.12906 0.63999 0.0
H414 H 0.50911 0.10636 0.6602 0.0
H415 H 0.50523 0.11338 0.62468 0.0
C416 C 0.39828 0.02165 0.68914 0.0
C417 C 0.38903 0.05819 0.68054 0.0
C418 C 0.41457 -0.00025 0.67094 0.0
C419 C 0.4237 0.01576 0.64423 0.0
C420 C 0.40605 0.04551 0.63471 0.0
H421 H 0.63406 0.94003 0.68633 0.0
H422 H 0.62073 0.98567 0.64987 0.0
C423 C 0.38725 0.06547 0.65284 0.0
C424 C 0.46391 0.01358 0.63071 0.0
H425 H 0.58126 0.06605 0.65245 0.0
C426 C 0.45634 0.96748 0.62407 0.0
C427 C 0.51197 0.05143 0.63632 0.0
C428 C 0.52323 0.10308 0.64045 0.0
C429 C 0.49278 0.95583 0.62942 0.0
C430 C 0.53569 -0.00966 0.64285 0.0
C431 C 0.54748 0.03907 0.64309 0.0
C432 C 0.55202 0.97309 0.66595 0.0
C433 C 0.48124 0.90405 0.62604 0.0
C434 C 0.52014 0.95469 0.68774 0.0
C435 C 0.52626 0.92679 0.70701 0.0
C436 C 0.56488 0.91739 0.70503 0.0
C437 C 0.60169 0.94313 0.68619 0.0
C438 C 0.59463 0.96989 0.66597 0.0
H439 H 0.4588 0.88765 0.60775 0.0
H440 H 0.51524 0.90217 0.62475 0.0
H441 H 0.46001 0.88231 0.64354 0.0
H442 H 0.48797 0.95829 0.6886 0.0
H443 H 0.49828 0.90911 0.72207 0.0
H444 H 0.49786 0.67913 0.69783 0.0
H445 H 0.46677 0.59415 0.70981 0.0
H446 H 0.61137 0.61419 0.70238 0.0
H447 H 0.64299 0.69979 0.69059 0.0
H448 H 0.53506 0.53932 0.66993 0.0
H449 H 0.48346 0.52576 0.77726 0.0
H450 H 0.46403 0.55884 0.75612 0.0
H451 H 0.5279 0.58226 0.76197 0.0
C452 C 0.52314 0.66559 0.69915 0.0
C453 C 0.5727 0.69562 0.69324 0.0
C454 C 0.50543 0.61731 0.70625 0.0
C455 C 0.53706 0.59852 0.70741 0.0
C456 C 0.58675 0.6286 0.70191 0.0
H457 H 0.47656 0.30335 0.70044 0.0
H458 H 0.51652 0.39065 0.70779 0.0
C459 C 0.60459 0.6771 0.69499 0.0
C460 C 0.5169 0.54603 0.7106 0.0
H461 H 0.45407 0.45117 0.75329 0.0
C462 C 0.51791 0.52 0.68824 0.0
C463 C 0.49384 0.5214 0.7344 0.0
C464 C 0.4924 0.54842 0.75892 0.0
C465 C 0.49542 0.46942 0.68877 0.0
C466 C 0.47273 0.44459 0.71265 0.0
C467 C 0.47186 0.47061 0.73514 0.0
C468 C 0.44938 0.39141 0.71413 0.0
C469 C 0.49477 0.443 0.66345 0.0
C470 C 0.39867 0.36291 0.71693 0.0
C471 C 0.37578 0.31256 0.7136 0.0
C472 C 0.40353 0.29064 0.70732 0.0
C473 C 0.45444 0.31916 0.70589 0.0
C474 C 0.47728 0.36909 0.70974 0.0
H475 H 0.50197 0.46605 0.6454 0.0
H476 H 0.52363 0.43296 0.66474 0.0
H477 H 0.45914 0.40918 0.66074 0.0
H478 H 0.37671 0.3798 0.72036 0.0
H479 H 0.33643 0.29115 0.71484 0.0
H480 H 0.01978 0.3142 0.06849 0.0
H481 H -0.01312 0.36303 0.0882 0.0
H482 H -0.01019 0.42339 1.01036 0.0
H483 H 0.02535 0.37755 0.99123 0.0
H484 H 0.05806 0.48463 0.06243 0.0
H485 H 0.85605 0.38577 0.0689 0.0
H486 H 0.89155 0.35595 0.07374 0.0
H487 H 0.88226 0.3719 0.0406 0.0
C488 C 0.0115 0.33651 0.05556 0.0
C489 C 0.0253 0.3428 0.0285 0.0
C490 C -0.00719 0.36427 0.06679 0.0
C491 C 0.98629 0.39676 0.05065 0.0
C492 C -0.00548 0.39828 0.02302 0.0
H493 H 0.95361 0.60114 0.99472 0.0
H494 H 0.98482 0.55154 0.01432 0.0
C495 C 0.01448 0.37192 1.01208 0.0
C496 C 0.98051 0.43613 0.06226 0.0
H497 H 0.89636 0.47249 0.06321 0.0
C498 C 0.02278 0.4818 0.06467 0.0
C499 C 0.93438 0.43227 0.0641 0.0
C500 C 0.88828 0.38379 0.06188 0.0
C501 C 0.02008 0.52434 0.06642 0.0
C502 C 0.97408 0.52087 0.06487 0.0
C503 C 0.93164 0.47497 0.06508 0.0
C504 C 0.96947 0.5621 0.05518 0.0
C505 C 0.06635 0.57295 0.06673 0.0
C506 C 0.95357 0.58672 0.07197 0.0
C507 C 0.93704 0.61633 0.06076 0.0
C508 C 0.93544 0.62028 0.03279 0.0
C509 C 0.95546 0.59917 0.01634 0.0
C510 C 0.97287 0.57062 0.02751 0.0
H511 H 0.09768 0.56992 0.07447 0.0
H512 H 0.07481 0.58735 0.04599 0.0
H513 H 0.06191 0.59939 0.07924 0.0
H514 H 0.95068 0.58031 0.09337 0.0
H515 H 0.92099 0.63188 0.07369 0.0
H516 H 0.2915 0.81202 0.34284 0.0
H517 H 0.37974 0.85097 0.34759 0.0
H518 H 0.38864 -0.00962 0.35645 0.0
H519 H 0.29953 0.95112 0.3524 0.0
H520 H 0.44759 0.92076 0.3148 0.0
H521 H 0.47062 0.98756 0.41948 0.0
H522 H 0.41242 0.94226 0.40594 0.0
H523 H 0.43575 0.00563 0.39891 0.0
C524 C 0.31217 0.85094 0.34608 0.0
C525 C 0.28888 0.87869 0.34746 0.0
C526 C 0.36252 0.87305 0.34876 0.0
C527 C 0.39045 0.92329 0.35279 0.0
C528 C 0.36741 0.95131 0.35395 0.0
H529 H 0.67959 0.1485 0.34572 0.0
H530 H 0.59239 0.09248 0.34953 0.0
C531 C 0.31677 0.92906 0.35139 0.0
C532 C 0.44396 0.9466 0.35416 0.0
H533 H 0.5427 0.02093 0.39265 0.0
C534 C 0.46846 0.94208 0.33196 0.0
C535 C 0.47076 0.97377 0.37674 0.0
C536 C 0.44606 0.97726 0.40174 0.0
C537 C 0.51944 0.96639 0.33114 0.0
C538 C 0.5462 -0.00452 0.35317 0.0
C539 C 0.52175 -0.0016 0.37583 0.0
C540 C 0.59919 0.02809 0.35165 0.0
C541 C 0.54441 0.96293 0.30624 0.0
C542 C 0.63164 0.01007 0.35162 0.0
C543 C 0.6818 0.04216 0.34946 0.0
C544 C 0.69956 0.09231 0.34733 0.0
C545 C 0.6668 0.10995 0.34739 0.0
C546 C 0.61707 0.07811 0.34964 0.0
H547 H 0.51812 0.94254 0.28988 0.0
H548 H 0.57085 -0.00014 0.29888 0.0
H549 H 0.56507 0.94413 0.3111 0.0
H550 H 0.61818 0.97142 0.3533 0.0
H551 H 0.70655 0.02791 0.34958 0.0
H552 H 0.36354 0.16534 0.79724 0.0
H553 H 0.32034 0.16784 0.83695 0.0
H554 H 0.1912 0.12531 0.78934 0.0
H555 H 0.23437 0.12284 0.74921 0.0
H556 H 0.22347 0.21141 0.82 0.0
H557 H 0.21132 0.06198 0.88295 0.0
H558 H 0.27114 0.10146 0.86988 0.0
H559 H 0.22176 0.06514 0.84725 0.0
C560 C 0.32568 0.15569 0.79519 0.0
C561 C 0.30245 0.14402 0.76998 0.0
C562 C 0.30092 0.15678 0.81802 0.0
C563 C 0.25241 0.14621 0.81617 0.0
C564 C 0.22854 0.13316 0.79121 0.0
H565 H 0.08968 0.21423 0.9334 0.0
H566 H 0.10919 0.17968 0.89474 0.0
C567 C 0.25322 0.13166 0.76832 0.0
C568 C 0.2288 0.15402 0.83976 0.0
H569 H 0.19943 0.12202 0.90528 0.0
C570 C 0.21738 0.19134 0.83852 0.0
C571 C 0.22144 0.1281 0.86395 0.0
C572 C 0.23163 0.08662 0.86611 0.0
C573 C 0.20074 0.20489 0.86115 0.0
C574 C 0.19414 0.17953 0.88553 0.0
C575 C 0.20442 0.14135 0.88659 0.0
C576 C 0.17899 0.19396 0.91039 0.0
C577 C 0.19266 0.2478 0.85904 0.0
C578 C 0.21048 0.21093 0.93266 0.0
C579 C 0.19908 0.23007 0.95494 0.0
C580 C 0.15602 0.23255 0.95525 0.0
C581 C 0.12327 0.21303 0.9336 0.0
C582 C 0.13452 0.1936 0.91144 0.0
H583 H 0.21051 0.27026 0.84106 0.0
H584 H 0.153 0.23447 0.85743 0.0
H585 H 0.20687 0.27136 0.87708 0.0
H586 H 0.24487 0.2113 0.93233 0.0
H587 H 0.22498 0.24491 0.97135 0.0
H588 H 0.89128 0.16031 0.26493 0.0
H589 H 0.94734 0.16861 0.2297 0.0
H590 H 0.06829 0.23998 0.28492 0.0
H591 H 0.0115 0.23269 0.32056 0.0
H592 H 0.0857 0.29161 0.24165 0.0
H593 H 0.0227 0.10566 0.20724 0.0
H594 H 0.9704 0.1131 0.20923 0.0
H595 H 0.00464 0.11795 0.23927 0.0
C596 C 0.92971 0.17698 0.26979 0.0
C597 C 0.94711 0.19608 0.29543 0.0
C598 C 0.96178 0.18107 0.24965 0.0
C599 C 0.01207 0.20381 0.25471 0.0
C600 C 0.02956 0.22163 0.28063 0.0
H601 H 0.15111 0.25511 0.09485 0.0
H602 H 0.13724 0.22539 0.14148 0.0
C603 C -0.00279 0.2176 0.30093 0.0
C604 C 0.04566 0.21528 0.2317 0.0
H605 H 0.0503 0.16825 0.17098 0.0
C606 C 0.07925 0.26433 0.22663 0.0
C607 C 0.03867 0.17988 0.21221 0.0
C608 C 0.00751 0.12619 0.21751 0.0
C609 C 0.10094 0.27935 0.20142 0.0
C610 C 0.08776 0.2446 0.18065 0.0
C611 C 0.05932 0.19505 0.1867 0.0
C612 C 0.0954 0.25977 0.1522 0.0
C613 C 0.13516 0.33281 0.19671 0.0
C614 C 0.0747 0.2869 0.14263 0.0
C615 C 0.0824 0.30364 0.11641 0.0
C616 C 0.11049 0.29312 0.09885 0.0
C617 C 0.12927 0.26374 0.10793 0.0
C618 C 0.12166 0.24704 0.13453 0.0
H619 H 0.15547 0.35102 0.21533 0.0
H620 H 0.1617 0.33886 0.18062 0.0
H621 H 0.11371 0.35027 0.19071 0.0
H622 H 0.05295 0.29579 0.15566 0.0
H623 H 0.06691 0.32573 0.11012 0.0
H624 H 0.67731 0.96918 0.6165 0.0
H625 H 0.72236 0.01058 0.57626 0.0
H626 H 0.81494 0.94804 0.58667 0.0
H627 H 0.76967 0.90623 0.62734 0.0
H628 H 0.82778 0.07575 0.5668 0.0
H629 H 0.74416 0.89917 0.51162 0.0
H630 H 0.71895 0.90549 0.54272 0.0
H631 H 0.77534 0.90504 0.54288 0.0
C632 C 0.70779 0.96488 0.6105 0.0
C633 C 0.71992 0.93436 0.62484 0.0
C634 C 0.73354 0.98861 0.58757 0.0
C635 C 0.77161 0.98197 0.57845 0.0
C636 C 0.78542 0.95329 0.59339 0.0
H637 H 0.89103 0.14123 0.42685 0.0
H638 H 0.89263 0.10021 0.46823 0.0
C639 C 0.75974 0.92967 0.61658 0.0
C640 C 0.79335 0.00224 0.55213 0.0
H641 H 0.78071 0.97045 0.48604 0.0
C642 C 0.81895 0.0529 0.54914 0.0
C643 C 0.78125 0.97205 0.52925 0.0
C644 C 0.75329 0.91737 0.53152 0.0
C645 C 0.82989 0.07422 0.52364 0.0
C646 C 0.8149 0.04393 0.50072 0.0
C647 C 0.79229 -0.00661 0.50375 0.0
C648 C 0.8146 0.06361 0.47397 0.0
C649 C 0.85384 0.12877 0.5213 0.0
C650 C 0.77008 0.05521 0.46322 0.0
C651 C 0.76901 0.07855 0.4398 0.0
C652 C 0.8125 0.1105 0.4266 0.0
C653 C 0.85692 0.11677 0.43658 0.0
C654 C 0.85797 0.09358 0.46022 0.0
H655 H 0.86039 0.14688 0.54115 0.0
H656 H 0.88934 0.14313 0.51097 0.0
H657 H 0.83068 0.13863 0.50907 0.0
H658 H 0.73624 0.03214 0.4736 0.0
H659 H 0.73419 0.07267 0.4325 0.0
H660 H 0.73295 0.8958 0.75704 0.0
H661 H 0.78362 0.89455 0.79442 0.0
H662 H 0.67029 0.75029 0.81538 0.0
H663 H 0.61998 0.75105 0.77881 0.0
H664 H 0.75164 0.87196 0.85358 0.0
H665 H 0.80061 0.74463 0.80582 0.0
H666 H 0.78293 0.78184 0.78676 0.0
H667 H 0.73735 0.727 0.80247 0.0
C668 C 0.719 0.86389 0.76963 0.0
C669 C 0.67234 0.82364 0.76493 0.0
C670 C 0.74788 0.86327 0.79095 0.0
C671 C 0.73072 0.82213 0.80745 0.0
C672 C 0.68434 0.78219 0.80274 0.0
H673 H 0.74913 0.72414 0.9604 0.0
H674 H 0.73705 0.76356 0.92138 0.0
C675 C 0.65551 0.7829 0.78181 0.0
C676 C 0.75995 0.81978 0.83005 0.0
H677 H 0.80479 0.74907 0.8538 0.0
C678 C 0.76443 0.84601 0.85353 0.0
C679 C 0.77697 0.78625 0.82983 0.0
C680 C 0.7747 0.75857 0.8048 0.0
C681 C 0.78245 0.83702 0.87737 0.0
C682 C 0.79553 0.80038 0.87772 0.0
C683 C 0.79436 0.77682 0.85368 0.0
C684 C 0.80613 0.78253 0.903 0.0
C685 C 0.78613 0.86599 0.90209 0.0
C686 C 0.84882 0.77969 0.90568 0.0
C687 C 0.85556 0.75673 0.9279 0.0
C688 C 0.81957 0.73593 0.94774 0.0
C689 C 0.77762 0.74015 0.9455 0.0
C690 C 0.77087 0.76303 0.92328 0.0
H691 H 0.79162 0.90234 0.89672 0.0
H692 H 0.75162 0.8465 0.91348 0.0
H693 H 0.81657 0.87087 0.91531 0.0
H694 H 0.87633 0.79408 0.89019 0.0
H695 H 0.8882 0.75386 0.92909 0.0
H696 H 0.09587 0.88205 0.27318 0.0
H697 H 0.04879 0.87504 0.2326 0.0
H698 H 0.93654 0.73278 0.25773 0.0
H699 H 0.98276 0.74013 0.2984 0.0
H700 H 0.02974 0.80853 0.195 0.0
H701 H 0.85437 0.7863 0.22906 0.0
H702 H 0.90713 0.8095 0.25078 0.0
H703 H 0.86792 0.74493 0.24631 0.0
C704 C 0.06045 0.84996 0.27038 0.0
C705 C 0.0429 0.81161 0.28889 0.0
C706 C 0.03363 0.84595 0.24719 0.0
C707 C -0.01121 0.80364 0.24222 0.0
C708 C 0.97032 0.76632 0.26138 0.0
H709 H 0.82137 0.62033 0.11927 0.0
H710 H 0.85707 0.66646 0.16029 0.0
C711 C -0.00302 0.7704 0.28457 0.0
C712 C 0.9646 0.79521 0.21562 0.0
H713 H 0.85285 0.74969 0.1858 0.0
C714 C -0.00863 0.79701 0.19286 0.0
C715 C 0.91454 0.7802 0.21279 0.0
C716 C 0.88453 0.78063 0.23605 0.0
C717 C 0.96869 0.78078 0.16779 0.0
C718 C 0.918 0.76269 0.1654 0.0
C719 C 0.89172 0.76352 0.18775 0.0
C720 C 0.89098 0.73667 0.14094 0.0
C721 C -0.00163 0.77994 0.14443 0.0
C722 C 0.89705 0.76109 0.11656 0.0
C723 C 0.87642 0.73472 0.09293 0.0
C724 C 0.84987 0.68361 0.09341 0.0
C725 C 0.84195 0.65964 0.11815 0.0
C726 C 0.86213 0.68594 0.14166 0.0
H727 H 0.0364 0.79097 0.15031 0.0
H728 H 0.98111 0.74293 0.13553 0.0
H729 H -0.00043 0.80519 0.12869 0.0
H730 H 0.91908 0.80033 0.11568 0.0
H731 H 0.88326 0.7542 0.07418 0.0
H732 H 0.2461 0.00059 0.63261 0.0
H733 H 0.21097 0.95952 0.59015 0.0
H734 H 0.19597 0.08119 0.56448 0.0
H735 H 0.23253 0.1232 0.60682 0.0
H736 H 0.1259 0.93072 0.56176 0.0
H737 H 0.2864 0.07688 0.50833 0.0
H738 H 0.2841 0.07204 0.54434 0.0
H739 H 0.25088 0.09622 0.52716 0.0
C740 C 0.23446 0.01821 0.61814 0.0
C741 C 0.24248 0.06524 0.6228 0.0
C742 C 0.21436 -0.0053 0.59389 0.0
C743 C 0.20183 0.01776 0.57396 0.0
C744 C 0.20642 0.06326 0.57938 0.0
H745 H 0.12459 0.89732 0.40959 0.0
H746 H 0.12666 0.94264 0.44995 0.0
C747 C 0.22694 0.08703 0.60361 0.0
C748 C 0.18822 -0.00438 0.54692 0.0
H749 H 0.23107 0.00954 0.48294 0.0
C750 C 0.14836 0.94828 0.5444 0.0
C751 C 0.21789 0.01854 0.52434 0.0
C752 C 0.26244 0.06855 0.52606 0.0
C753 C 0.13854 0.9226 0.52017 0.0
C754 C 0.16923 0.94491 0.49804 0.0
C755 C 0.20754 -0.00706 0.50006 0.0
C756 C 0.16621 0.91688 0.47387 0.0
C757 C 0.0968 0.87102 0.51856 0.0
C758 C 0.18817 0.88802 0.47415 0.0
C759 C 0.18754 0.86262 0.45124 0.0
C760 C 0.16467 0.86546 0.42763 0.0
C761 C 0.14241 0.89432 0.42748 0.0
C762 C 0.14347 0.92016 0.45044 0.0
H763 H 0.07208 0.86138 0.53604 0.0
H764 H 0.07544 0.86557 0.49988 0.0
H765 H 0.1115 0.84579 0.5179 0.0
H766 H 0.20613 0.88544 0.4921 0.0
H767 H 0.20481 0.84057 0.45214 0.0
loop_
_geom_bond_atom_site_label_1
_geom_bond_atom_site_label_2
_geom_bond_distance
_geom_bond_site_symmetry_2
_ccdc_geom_bond_type
Dy0 O4 2.398 . S
Dy0 O5 2.491 . S
Dy0 O6 2.403 . S
Dy0 O7 2.664 . S
Dy0 O11 2.326 . S
Dy0 O15 2.310 . S
Dy0 O16 2.351 1_554 S
C1 O12 1.185 . S
C1 O13 1.355 . S
C2 O4 1.185 . S
C2 O5 1.355 . S
Dy3 O7 2.310 1_556 S
Dy3 O10 2.351 1_556 S
Dy3 O12 2.398 . S
Dy3 O13 2.491 . S
Dy3 O14 2.403 . S
Dy3 O15 2.664 1_556 S
Dy3 O17 2.326 . S
O4 Dy0 2.398 . S
O4 C2 1.185 . S
O5 Dy0 2.491 . S
O5 C2 1.355 . S
O6 Dy0 2.403 . S
O6 C8 1.254 . S
O7 Dy0 2.664 . S
O7 Dy3 2.310 1_554 S
O7 C8 1.268 . S
C8 O6 1.254 . S
C8 O7 1.268 . S
C9 O14 1.254 1_554 S
C9 O15 1.268 . S
O10 Dy3 2.351 1_554 S
O10 C18 1.249 . S
O11 Dy0 2.326 . S
O11 C18 1.267 . S
O12 C1 1.185 . S
O12 Dy3 2.398 . S
O13 C1 1.355 . S
O13 Dy3 2.491 . S
O14 Dy3 2.403 . S
O14 C9 1.254 1_556 S
O15 Dy0 2.310 . S
O15 Dy3 2.664 1_554 S
O15 C9 1.268 . S
O16 Dy0 2.351 1_556 S
O16 C19 1.249 . S
O17 Dy3 2.326 . S
O17 C19 1.267 . S
C18 O10 1.249 . S
C18 O11 1.267 . S
C19 O16 1.249 . S
C19 O17 1.267 . S
Dy20 O24 2.398 . S
Dy20 O25 2.491 . S
Dy20 O26 2.403 . S
Dy20 O27 2.664 . S
Dy20 O31 2.326 . S
Dy20 O35 2.310 . S
Dy20 O36 2.351 . S
C21 O32 1.185 . S
C21 O33 1.355 . S
C22 O24 1.185 . S
C22 O25 1.355 . S
Dy23 O27 2.310 . S
Dy23 O30 2.351 . S
Dy23 O32 2.398 . S
Dy23 O33 2.491 . S
Dy23 O34 2.403 . S
Dy23 O35 2.664 . S
Dy23 O37 2.326 . S
O24 Dy20 2.398 . S
O24 C22 1.185 . S
O25 Dy20 2.491 . S
O25 C22 1.355 . S
O26 Dy20 2.403 . S
O26 C28 1.254 . S
O27 Dy20 2.664 . S
O27 Dy23 2.310 . S
O27 C28 1.268 . S
C28 O26 1.254 . S
C28 O27 1.268 . S
C29 O34 1.254 . S
C29 O35 1.268 . S
O30 Dy23 2.351 . S
O30 C38 1.249 . S
O31 Dy20 2.326 . S
O31 C38 1.267 . S
O32 C21 1.185 . S
O32 Dy23 2.398 . S
O33 C21 1.355 . S
O33 Dy23 2.491 . S
O34 Dy23 2.403 . S
O34 C29 1.254 . S
O35 Dy20 2.310 . S
O35 Dy23 2.664 . S
O35 C29 1.268 . S
O36 Dy20 2.351 . S
O36 C39 1.249 . S
O37 Dy23 2.326 . S
O37 C39 1.267 . S
C38 O30 1.249 . S
C38 O31 1.267 . S
C39 O36 1.249 . S
C39 O37 1.267 . S
Dy40 O44 2.398 . S
Dy40 O45 2.491 . S
Dy40 O46 2.403 . S
Dy40 O47 2.664 . S
Dy40 O51 2.326 . S
Dy40 O55 2.310 . S
Dy40 O56 2.351 . S
C41 O52 1.185 . S
C41 O53 1.355 . S
C42 O44 1.185 . S
C42 O45 1.355 . S
Dy43 O47 2.310 . S
Dy43 O50 2.351 . S
Dy43 O52 2.398 . S
Dy43 O53 2.491 . S
Dy43 O54 2.403 . S
Dy43 O55 2.664 . S
Dy43 O57 2.326 . S
O44 Dy40 2.398 . S
O44 C42 1.185 . S
O45 Dy40 2.491 . S
O45 C42 1.355 . S
O46 Dy40 2.403 . S
O46 C48 1.254 . S
O47 Dy40 2.664 . S
O47 Dy43 2.310 . S
O47 C48 1.268 . S
C48 O46 1.254 . S
C48 O47 1.268 . S
C49 O54 1.254 . S
C49 O55 1.268 . S
O50 Dy43 2.351 . S
O50 C58 1.249 . S
O51 Dy40 2.326 . S
O51 C58 1.267 . S
O52 C41 1.185 . S
O52 Dy43 2.398 . S
O53 C41 1.355 . S
O53 Dy43 2.491 . S
O54 Dy43 2.403 . S
O54 C49 1.254 . S
O55 Dy40 2.310 . S
O55 Dy43 2.664 . S
O55 C49 1.268 . S
O56 Dy40 2.351 . S
O56 C59 1.249 . S
O57 Dy43 2.326 . S
O57 C59 1.267 . S
C58 O50 1.249 . S
C58 O51 1.267 . S
C59 O56 1.249 . S
C59 O57 1.267 . S
Dy60 O64 2.398 . S
Dy60 O65 2.491 . S
Dy60 O66 2.403 . S
Dy60 O67 2.664 . S
Dy60 O71 2.326 . S
Dy60 O75 2.310 . S
Dy60 O76 2.351 1_554 S
C61 O72 1.185 . S
C61 O73 1.355 . S
C62 O64 1.185 . S
C62 O65 1.355 . S
Dy63 O67 2.310 1_556 S
Dy63 O70 2.351 1_556 S
Dy63 O72 2.398 . S
Dy63 O73 2.491 . S
Dy63 O74 2.403 . S
Dy63 O75 2.664 1_556 S
Dy63 O77 2.326 . S
O64 Dy60 2.398 . S
O64 C62 1.185 . S
O65 Dy60 2.491 . S
O65 C62 1.355 . S
O66 Dy60 2.403 . S
O66 C68 1.254 . S
O67 Dy60 2.664 . S
O67 Dy63 2.310 1_554 S
O67 C68 1.268 . S
C68 O66 1.254 . S
C68 O67 1.268 . S
C69 O74 1.254 1_554 S
C69 O75 1.268 . S
O70 Dy63 2.351 1_554 S
O70 C78 1.249 . S
O71 Dy60 2.326 . S
O71 C78 1.267 . S
O72 C61 1.185 . S
O72 Dy63 2.398 . S
O73 C61 1.355 . S
O73 Dy63 2.491 . S
O74 Dy63 2.403 . S
O74 C69 1.254 1_556 S
O75 Dy60 2.310 . S
O75 Dy63 2.664 1_554 S
O75 C69 1.268 . S
O76 Dy60 2.351 1_556 S
O76 C79 1.249 . S
O77 Dy63 2.326 . S
O77 C79 1.267 . S
C78 O70 1.249 . S
C78 O71 1.267 . S
C79 O76 1.249 . S
C79 O77 1.267 . S
Dy80 O84 2.398 . S
Dy80 O85 2.491 . S
Dy80 O86 2.403 . S
Dy80 O87 2.664 . S
Dy80 O91 2.326 . S
Dy80 O95 2.310 . S
Dy80 O96 2.351 . S
C81 O92 1.185 . S
C81 O93 1.355 . S
C82 O84 1.185 . S
C82 O85 1.355 . S
Dy83 O87 2.310 . S
Dy83 O90 2.351 . S
Dy83 O92 2.398 . S
Dy83 O93 2.491 . S
Dy83 O94 2.403 . S
Dy83 O95 2.664 . S
Dy83 O97 2.326 . S
O84 Dy80 2.398 . S
O84 C82 1.185 . S
O85 Dy80 2.491 . S
O85 C82 1.355 . S
O86 Dy80 2.403 . S
O86 C88 1.254 . S
O87 Dy80 2.664 . S
O87 Dy83 2.310 . S
O87 C88 1.268 . S
C88 O86 1.254 . S
C88 O87 1.268 . S
C89 O94 1.254 . S
C89 O95 1.268 . S
O90 Dy83 2.351 . S
O90 C98 1.249 . S
O91 Dy80 2.326 . S
O91 C98 1.267 . S
O92 C81 1.185 . S
O92 Dy83 2.398 . S
O93 C81 1.355 . S
O93 Dy83 2.491 . S
O94 Dy83 2.403 . S
O94 C89 1.254 . S
O95 Dy80 2.310 . S
O95 Dy83 2.664 . S
O95 C89 1.268 . S
O96 Dy80 2.351 . S
O96 C99 1.249 . S
O97 Dy83 2.326 . S
O97 C99 1.267 . S
C98 O90 1.249 . S
C98 O91 1.267 . S
C99 O96 1.249 . S
C99 O97 1.267 . S
Dy100 O104 2.398 . S
Dy100 O105 2.491 . S
Dy100 O106 2.403 . S
Dy100 O107 2.664 . S
Dy100 O111 2.326 . S
Dy100 O115 2.310 . S
Dy100 O116 2.351 . S
C101 O112 1.185 . S
C101 O113 1.355 . S
C102 O104 1.185 . S
C102 O105 1.355 . S
Dy103 O107 2.310 . S
Dy103 O110 2.351 . S
Dy103 O112 2.398 . S
Dy103 O113 2.491 . S
Dy103 O114 2.403 . S
Dy103 O115 2.664 . S
Dy103 O117 2.326 . S
O104 Dy100 2.398 . S
O104 C102 1.185 . S
O105 Dy100 2.491 . S
O105 C102 1.355 . S
O106 Dy100 2.403 . S
O106 C108 1.254 . S
O107 Dy100 2.664 . S
O107 Dy103 2.310 . S
O107 C108 1.268 . S
C108 O106 1.254 . S
C108 O107 1.268 . S
C109 O114 1.254 . S
C109 O115 1.268 . S
O110 Dy103 2.351 . S
O110 C118 1.249 . S
O111 Dy100 2.326 . S
O111 C118 1.267 . S
O112 C101 1.185 . S
O112 Dy103 2.398 . S
O113 C101 1.355 . S
O113 Dy103 2.491 . S
O114 Dy103 2.403 . S
O114 C109 1.254 . S
O115 Dy100 2.310 . S
O115 Dy103 2.664 . S
O115 C109 1.268 . S
O116 Dy100 2.351 . S
O116 C119 1.249 . S
O117 Dy103 2.326 . S
O117 C119 1.267 . S
C118 O110 1.249 . S
C118 O111 1.267 . S
C119 O116 1.249 . S
C119 O117 1.267 . S
H120 C128 0.929 . S
H121 C130 0.930 . S
H122 C132 0.930 . S
H123 C135 0.929 . S
H124 C138 0.930 . S
H125 C140 0.960 . S
H126 C140 0.960 . S
H127 C140 0.960 . S
C128 H120 0.929 . S
C128 C129 1.377 . S
C128 C130 1.384 . S
C129 C128 1.377 . S
C129 C135 1.390 . S
C130 H121 0.930 . S
C130 C128 1.384 . S
C130 C131 1.372 . S
C131 C130 1.372 . S
C131 C132 1.400 . S
C131 C136 1.490 . S
C132 H122 0.930 . S
C132 C131 1.400 . S
C132 C135 1.386 . S
H133 C149 0.930 . S
H134 C150 0.931 . S
C135 H123 0.929 . S
C135 C129 1.390 . S
C135 C132 1.386 . S
C136 C131 1.490 . S
C136 C138 1.395 . S
C136 C139 1.403 . S
H137 C143 0.930 . S
C138 H124 0.930 . S
C138 C136 1.395 . S
C138 C141 1.403 . S
C139 C136 1.403 . S
C139 C140 1.524 . S
C139 C143 1.400 . S
C140 H125 0.960 . S
C140 H126 0.960 . S
C140 H127 0.960 . S
C140 C139 1.524 . S
C141 C138 1.403 . S
C141 C142 1.392 . S
C141 C145 1.495 . S
C142 C141 1.392 . S
C142 C143 1.385 . S
C142 C144 1.478 . S
C143 H137 0.930 . S
C143 C139 1.400 . S
C143 C142 1.385 . S
C144 C142 1.478 . S
C144 C146 1.381 . S
C144 C150 1.383 . S
C145 C141 1.495 . S
C145 H151 0.959 . S
C145 H152 0.961 . S
C145 H153 0.960 . S
C146 C144 1.381 . S
C146 C147 1.394 . S
C146 H154 0.930 . S
C147 C146 1.394 . S
C147 C148 1.383 . S
C147 H155 0.929 . S
C148 C147 1.383 . S
C148 C149 1.377 . S
C149 H133 0.930 . S
C149 C148 1.377 . S
C149 C150 1.379 . S
C150 H134 0.931 . S
C150 C144 1.383 . S
C150 C149 1.379 . S
H151 C145 0.959 . S
H152 C145 0.961 . S
H153 C145 0.960 . S
H154 C146 0.930 . S
H155 C147 0.929 . S
H156 C164 0.929 . S
H157 C166 0.930 . S
H158 C168 0.930 . S
H159 C171 0.929 . S
H160 C174 0.930 . S
H161 C176 0.960 . S
H162 C176 0.960 . S
H163 C176 0.960 . S
C164 H156 0.929 . S
C164 C165 1.377 . S
C164 C166 1.384 . S
C165 C164 1.377 . S
C165 C171 1.390 . S
C166 H157 0.930 . S
C166 C164 1.384 . S
C166 C167 1.372 . S
C167 C166 1.372 . S
C167 C168 1.400 . S
C167 C172 1.490 . S
C168 H158 0.930 . S
C168 C167 1.400 . S
C168 C171 1.386 . S
H169 C185 0.930 . S
H170 C186 0.931 . S
C171 H159 0.929 . S
C171 C165 1.390 . S
C171 C168 1.386 . S
C172 C167 1.490 . S
C172 C174 1.395 . S
C172 C175 1.403 . S
H173 C179 0.930 . S
C174 H160 0.930 . S
C174 C172 1.395 . S
C174 C177 1.403 . S
C175 C172 1.403 . S
C175 C176 1.524 . S
C175 C179 1.400 . S
C176 H161 0.960 . S
C176 H162 0.960 . S
C176 H163 0.960 . S
C176 C175 1.524 . S
C177 C174 1.403 . S
C177 C178 1.392 . S
C177 C181 1.495 . S
C178 C177 1.392 . S
C178 C179 1.385 . S
C178 C180 1.478 . S
C179 H173 0.930 . S
C179 C175 1.400 . S
C179 C178 1.385 . S
C180 C178 1.478 . S
C180 C182 1.381 . S
C180 C186 1.383 . S
C181 C177 1.495 . S
C181 H187 0.959 . S
C181 H188 0.961 . S
C181 H189 0.960 . S
C182 C180 1.381 . S
C182 C183 1.394 . S
C182 H190 0.930 . S
C183 C182 1.394 . S
C183 C184 1.383 . S
C183 H191 0.929 . S
C184 C183 1.383 . S
C184 C185 1.377 . S
C185 H169 0.930 . S
C185 C184 1.377 . S
C185 C186 1.379 . S
C186 H170 0.931 . S
C186 C180 1.383 . S
C186 C185 1.379 . S
H187 C181 0.959 . S
H188 C181 0.961 . S
H189 C181 0.960 . S
H190 C182 0.930 . S
H191 C183 0.929 . S
H192 C200 0.929 . S
H193 C202 0.930 . S
H194 C204 0.930 . S
H195 C207 0.929 . S
H196 C210 0.930 . S
H197 C212 0.960 . S
H198 C212 0.960 . S
H199 C212 0.960 . S
C200 H192 0.929 . S
C200 C201 1.377 . S
C200 C202 1.384 . S
C201 C200 1.377 . S
C201 C207 1.390 . S
C202 H193 0.930 . S
C202 C200 1.384 . S
C202 C203 1.372 . S
C203 C202 1.372 . S
C203 C204 1.400 . S
C203 C208 1.490 . S
C204 H194 0.930 . S
C204 C203 1.400 . S
C204 C207 1.386 . S
H205 C221 0.930 . S
H206 C222 0.931 . S
C207 H195 0.929 . S
C207 C201 1.390 . S
C207 C204 1.386 . S
C208 C203 1.490 . S
C208 C210 1.395 . S
C208 C211 1.403 . S
H209 C215 0.930 . S
C210 H196 0.930 . S
C210 C208 1.395 . S
C210 C213 1.403 . S
C211 C208 1.403 . S
C211 C212 1.524 . S
C211 C215 1.400 . S
C212 H197 0.960 . S
C212 H198 0.960 . S
C212 H199 0.960 . S
C212 C211 1.524 . S
C213 C210 1.403 . S
C213 C214 1.392 . S
C213 C217 1.495 . S
C214 C213 1.392 . S
C214 C215 1.385 . S
C214 C216 1.478 . S
C215 H209 0.930 . S
C215 C211 1.400 . S
C215 C214 1.385 . S
C216 C214 1.478 . S
C216 C218 1.381 . S
C216 C222 1.383 . S
C217 C213 1.495 . S
C217 H223 0.959 . S
C217 H224 0.961 . S
C217 H225 0.960 . S
C218 C216 1.381 . S
C218 C219 1.394 . S
C218 H226 0.930 . S
C219 C218 1.394 . S
C219 C220 1.383 . S
C219 H227 0.929 . S
C220 C219 1.383 . S
C220 C221 1.377 . S
C221 H205 0.930 . S
C221 C220 1.377 . S
C221 C222 1.379 . S
C222 H206 0.931 . S
C222 C216 1.383 . S
C222 C221 1.379 . S
H223 C217 0.959 . S
H224 C217 0.961 . S
H225 C217 0.960 . S
H226 C218 0.930 . S
H227 C219 0.929 . S
H228 C236 0.929 . S
H229 C238 0.930 . S
H230 C240 0.930 . S
H231 C243 0.929 . S
H232 C246 0.930 . S
H233 C248 0.960 . S
H234 C248 0.960 . S
H235 C248 0.960 . S
C236 H228 0.929 . S
C236 C237 1.377 . S
C236 C238 1.384 . S
C237 C236 1.377 . S
C237 C243 1.390 . S
C238 H229 0.930 . S
C238 C236 1.384 . S
C238 C239 1.372 . S
C239 C238 1.372 . S
C239 C240 1.400 . S
C239 C244 1.490 . S
C240 H230 0.930 . S
C240 C239 1.400 . S
C240 C243 1.386 . S
H241 C257 0.930 . S
H242 C258 0.931 . S
C243 H231 0.929 . S
C243 C237 1.390 . S
C243 C240 1.386 . S
C244 C239 1.490 . S
C244 C246 1.395 . S
C244 C247 1.403 . S
H245 C251 0.930 . S
C246 H232 0.930 . S
C246 C244 1.395 . S
C246 C249 1.403 . S
C247 C244 1.403 . S
C247 C248 1.524 . S
C247 C251 1.400 . S
C248 H233 0.960 . S
C248 H234 0.960 . S
C248 H235 0.960 . S
C248 C247 1.524 . S
C249 C246 1.403 . S
C249 C250 1.392 . S
C249 C253 1.495 . S
C250 C249 1.392 . S
C250 C251 1.385 . S
C250 C252 1.478 . S
C251 H245 0.930 . S
C251 C247 1.400 . S
C251 C250 1.385 . S
C252 C250 1.478 . S
C252 C254 1.381 . S
C252 C258 1.383 . S
C253 C249 1.495 . S
C253 H259 0.959 . S
C253 H260 0.961 . S
C253 H261 0.960 . S
C254 C252 1.381 . S
C254 C255 1.394 . S
C254 H262 0.930 . S
C255 C254 1.394 . S
C255 C256 1.383 . S
C255 H263 0.929 . S
C256 C255 1.383 . S
C256 C257 1.377 . S
C257 H241 0.930 . S
C257 C256 1.377 . S
C257 C258 1.379 . S
C258 H242 0.931 . S
C258 C252 1.383 . S
C258 C257 1.379 . S
H259 C253 0.959 . S
H260 C253 0.961 . S
H261 C253 0.960 . S
H262 C254 0.930 . S
H263 C255 0.929 . S
H264 C272 0.929 . S
H265 C274 0.930 . S
H266 C276 0.930 . S
H267 C279 0.929 . S
H268 C282 0.930 . S
H269 C284 0.960 . S
H270 C284 0.960 . S
H271 C284 0.960 . S
C272 H264 0.929 . S
C272 C273 1.377 . S
C272 C274 1.384 . S
C273 C272 1.377 . S
C273 C279 1.390 . S
C274 H265 0.930 . S
C274 C272 1.384 . S
C274 C275 1.372 . S
C275 C274 1.372 . S
C275 C276 1.400 . S
C275 C280 1.490 . S
C276 H266 0.930 . S
C276 C275 1.400 . S
C276 C279 1.386 . S
H277 C293 0.930 . S
H278 C294 0.931 . S
C279 H267 0.929 . S
C279 C273 1.390 . S
C279 C276 1.386 . S
C280 C275 1.490 . S
C280 C282 1.395 . S
C280 C283 1.403 . S
H281 C287 0.930 . S
C282 H268 0.930 . S
C282 C280 1.395 . S
C282 C285 1.403 . S
C283 C280 1.403 . S
C283 C284 1.524 . S
C283 C287 1.400 . S
C284 H269 0.960 . S
C284 H270 0.960 . S
C284 H271 0.960 . S
C284 C283 1.524 . S
C285 C282 1.403 . S
C285 C286 1.392 . S
C285 C289 1.495 . S
C286 C285 1.392 . S
C286 C287 1.385 . S
C286 C288 1.478 . S
C287 H281 0.930 . S
C287 C283 1.400 . S
C287 C286 1.385 . S
C288 C286 1.478 . S
C288 C290 1.381 . S
C288 C294 1.383 . S
C289 C285 1.495 . S
C289 H295 0.959 . S
C289 H296 0.961 . S
C289 H297 0.960 . S
C290 C288 1.381 . S
C290 C291 1.394 . S
C290 H298 0.930 . S
C291 C290 1.394 . S
C291 C292 1.383 . S
C291 H299 0.929 . S
C292 C291 1.383 . S
C292 C293 1.377 . S
C293 H277 0.930 . S
C293 C292 1.377 . S
C293 C294 1.379 . S
C294 H278 0.931 . S
C294 C288 1.383 . S
C294 C293 1.379 . S
H295 C289 0.959 . S
H296 C289 0.961 . S
H297 C289 0.960 . S
H298 C290 0.930 . S
H299 C291 0.929 . S
H300 C308 0.929 . S
H301 C310 0.930 . S
H302 C312 0.930 . S
H303 C315 0.929 . S
H304 C318 0.930 . S
H305 C320 0.960 . S
H306 C320 0.960 . S
H307 C320 0.960 . S
C308 H300 0.929 . S
C308 C309 1.377 . S
C308 C310 1.384 . S
C309 C308 1.377 . S
C309 C315 1.390 . S
C310 H301 0.930 . S
C310 C308 1.384 . S
C310 C311 1.372 . S
C311 C310 1.372 . S
C311 C312 1.400 . S
C311 C316 1.490 . S
C312 H302 0.930 . S
C312 C311 1.400 . S
C312 C315 1.386 . S
H313 C329 0.930 . S
H314 C330 0.931 . S
C315 H303 0.929 . S
C315 C309 1.390 . S
C315 C312 1.386 . S
C316 C311 1.490 . S
C316 C318 1.395 . S
C316 C319 1.403 . S
H317 C323 0.930 . S
C318 H304 0.930 . S
C318 C316 1.395 . S
C318 C321 1.403 . S
C319 C316 1.403 . S
C319 C320 1.524 . S
C319 C323 1.400 . S
C320 H305 0.960 . S
C320 H306 0.960 . S
C320 H307 0.960 . S
C320 C319 1.524 . S
C321 C318 1.403 . S
C321 C322 1.392 . S
C321 C325 1.495 . S
C322 C321 1.392 . S
C322 C323 1.385 . S
C322 C324 1.478 . S
C323 H317 0.930 . S
C323 C319 1.400 . S
C323 C322 1.385 . S
C324 C322 1.478 . S
C324 C326 1.381 . S
C324 C330 1.383 . S
C325 C321 1.495 . S
C325 H331 0.959 . S
C325 H332 0.961 . S
C325 H333 0.960 . S
C326 C324 1.381 . S
C326 C327 1.394 . S
C326 H334 0.930 . S
C327 C326 1.394 . S
C327 C328 1.383 . S
C327 H335 0.929 . S
C328 C327 1.383 . S
C328 C329 1.377 . S
C329 H313 0.930 . S
C329 C328 1.377 . S
C329 C330 1.379 . S
C330 H314 0.931 . S
C330 C324 1.383 . S
C330 C329 1.379 . S
H331 C325 0.959 . S
H332 C325 0.961 . S
H333 C325 0.960 . S
H334 C326 0.930 . S
H335 C327 0.929 . S
H336 C344 0.929 . S
H337 C346 0.930 . S
H338 C348 0.930 . S
H339 C351 0.929 . S
H340 C354 0.930 1_556 S
H341 C356 0.960 . S
H342 C356 0.960 . S
H343 C356 0.960 . S
C344 H336 0.929 . S
C344 C345 1.377 . S
C344 C346 1.384 . S
C345 C344 1.377 . S
C345 C351 1.390 . S
C346 H337 0.930 . S
C346 C344 1.384 . S
C346 C347 1.372 . S
C347 C346 1.372 . S
C347 C348 1.400 . S
C347 C352 1.490 . S
C348 H338 0.930 . S
C348 C347 1.400 . S
C348 C351 1.386 . S
H349 C365 0.930 . S
H350 C366 0.931 . S
C351 H339 0.929 . S
C351 C345 1.390 . S
C351 C348 1.386 . S
C352 C347 1.490 . S
C352 C354 1.395 . S
C352 C355 1.403 . S
H353 C359 0.930 . S
C354 H340 0.930 1_554 S
C354 C352 1.395 . S
C354 C357 1.403 . S
C355 C352 1.403 . S
C355 C356 1.524 . S
C355 C359 1.400 . S
C356 H341 0.960 . S
C356 H342 0.960 . S
C356 H343 0.960 . S
C356 C355 1.524 . S
C357 C354 1.403 . S
C357 C358 1.392 . S
C357 C361 1.495 1_554 S
C358 C357 1.392 . S
C358 C359 1.385 . S
C358 C360 1.478 . S
C359 H353 0.930 . S
C359 C355 1.400 . S
C359 C358 1.385 . S
C360 C358 1.478 . S
C360 C362 1.381 . S
C360 C366 1.383 . S
C361 C357 1.495 1_556 S
C361 H367 0.959 . S
C361 H368 0.961 . S
C361 H369 0.960 . S
C362 C360 1.381 . S
C362 C363 1.394 . S
C362 H370 0.930 . S
C363 C362 1.394 . S
C363 C364 1.383 . S
C363 H371 0.929 . S
C364 C363 1.383 . S
C364 C365 1.377 . S
C365 H349 0.930 . S
C365 C364 1.377 . S
C365 C366 1.379 . S
C366 H350 0.931 . S
C366 C360 1.383 . S
C366 C365 1.379 . S
H367 C361 0.959 . S
H368 C361 0.961 . S
H369 C361 0.960 . S
H370 C362 0.930 . S
H371 C363 0.929 . S
H372 C380 0.929 . S
H373 C382 0.930 . S
H374 C384 0.930 . S
H375 C387 0.929 . S
H376 C390 0.930 . S
H377 C392 0.960 . S
H378 C392 0.960 1_455 S
H379 C392 0.960 . S
C380 H372 0.929 . S
C380 C381 1.377 . S
C380 C382 1.384 . S
C381 C380 1.377 . S
C381 C387 1.390 . S
C382 H373 0.930 . S
C382 C380 1.384 . S
C382 C383 1.372 . S
C383 C382 1.372 . S
C383 C384 1.400 . S
C383 C388 1.490 . S
C384 H374 0.930 . S
C384 C383 1.400 . S
C384 C387 1.386 . S
H385 C401 0.930 . S
H386 C402 0.931 . S
C387 H375 0.929 . S
C387 C381 1.390 . S
C387 C384 1.386 . S
C388 C383 1.490 . S
C388 C390 1.395 . S
C388 C391 1.403 1_455 S
H389 C395 0.930 . S
C390 H376 0.930 . S
C390 C388 1.395 . S
C390 C393 1.403 . S
C391 C388 1.403 1_655 S
C391 C392 1.524 . S
C391 C395 1.400 . S
C392 H377 0.960 . S
C392 H378 0.960 1_655 S
C392 H379 0.960 . S
C392 C391 1.524 . S
C393 C390 1.403 . S
C393 C394 1.392 1_455 S
C393 C397 1.495 . S
C394 C393 1.392 1_655 S
C394 C395 1.385 . S
C394 C396 1.478 . S
C395 H389 0.930 . S
C395 C391 1.400 . S
C395 C394 1.385 . S
C396 C394 1.478 . S
C396 C398 1.381 . S
C396 C402 1.383 . S
C397 C393 1.495 . S
C397 H403 0.959 . S
C397 H404 0.961 1_455 S
C397 H405 0.960 . S
C398 C396 1.381 . S
C398 C399 1.394 . S
C398 H406 0.930 1_655 S
C399 C398 1.394 . S
C399 C400 1.383 . S
C399 H407 0.929 . S
C400 C399 1.383 . S
C400 C401 1.377 . S
C401 H385 0.930 . S
C401 C400 1.377 . S
C401 C402 1.379 . S
C402 H386 0.931 . S
C402 C396 1.383 . S
C402 C401 1.379 . S
H403 C397 0.959 . S
H404 C397 0.961 1_655 S
H405 C397 0.960 . S
H406 C398 0.930 1_455 S
H407 C399 0.929 . S
H408 C416 0.929 . S
H409 C418 0.930 . S
H410 C420 0.930 . S
H411 C423 0.929 . S
H412 C426 0.930 . S
H413 C428 0.960 . S
H414 C428 0.960 . S
H415 C428 0.960 . S
C416 H408 0.929 . S
C416 C417 1.377 . S
C416 C418 1.384 . S
C417 C416 1.377 . S
C417 C423 1.390 . S
C418 H409 0.930 . S
C418 C416 1.384 . S
C418 C419 1.372 . S
C419 C418 1.372 . S
C419 C420 1.400 . S
C419 C424 1.490 . S
C420 H410 0.930 . S
C420 C419 1.400 . S
C420 C423 1.386 . S
H421 C437 0.930 . S
H422 C438 0.931 . S
C423 H411 0.929 . S
C423 C417 1.390 . S
C423 C420 1.386 . S
C424 C419 1.490 . S
C424 C426 1.395 1_545 S
C424 C427 1.403 . S
H425 C431 0.930 . S
C426 H412 0.930 . S
C426 C424 1.395 1_565 S
C426 C429 1.403 . S
C427 C424 1.403 . S
C427 C428 1.524 . S
C427 C431 1.400 . S
C428 H413 0.960 . S
C428 H414 0.960 . S
C428 H415 0.960 . S
C428 C427 1.524 . S
C429 C426 1.403 . S
C429 C430 1.392 . S
C429 C433 1.495 . S
C430 C429 1.392 . S
C430 C431 1.385 1_565 S
C430 C432 1.478 . S
C431 H425 0.930 . S
C431 C427 1.400 . S
C431 C430 1.385 1_545 S
C432 C430 1.478 . S
C432 C434 1.381 . S
C432 C438 1.383 . S
C433 C429 1.495 . S
C433 H439 0.959 . S
C433 H440 0.961 . S
C433 H441 0.960 . S
C434 C432 1.381 . S
C434 C435 1.394 . S
C434 H442 0.930 . S
C435 C434 1.394 . S
C435 C436 1.383 . S
C435 H443 0.929 . S
C436 C435 1.383 . S
C436 C437 1.377 . S
C437 H421 0.930 . S
C437 C436 1.377 . S
C437 C438 1.379 . S
C438 H422 0.931 . S
C438 C432 1.383 . S
C438 C437 1.379 . S
H439 C433 0.959 . S
H440 C433 0.961 . S
H441 C433 0.960 . S
H442 C434 0.930 . S
H443 C435 0.929 . S
H444 C452 0.929 . S
H445 C454 0.930 . S
H446 C456 0.930 . S
H447 C459 0.929 . S
H448 C462 0.930 . S
H449 C464 0.960 . S
H450 C464 0.960 . S
H451 C464 0.960 . S
C452 H444 0.929 . S
C452 C453 1.377 . S
C452 C454 1.384 . S
C453 C452 1.377 . S
C453 C459 1.390 . S
C454 H445 0.930 . S
C454 C452 1.384 . S
C454 C455 1.372 . S
C455 C454 1.372 . S
C455 C456 1.400 . S
C455 C460 1.490 . S
C456 H446 0.930 . S
C456 C455 1.400 . S
C456 C459 1.386 . S
H457 C473 0.930 . S
H458 C474 0.931 . S
C459 H447 0.929 . S
C459 C453 1.390 . S
C459 C456 1.386 . S
C460 C455 1.490 . S
C460 C462 1.395 . S
C460 C463 1.403 . S
H461 C467 0.930 . S
C462 H448 0.930 . S
C462 C460 1.395 . S
C462 C465 1.403 . S
C463 C460 1.403 . S
C463 C464 1.524 . S
C463 C467 1.400 . S
C464 H449 0.960 . S
C464 H450 0.960 . S
C464 H451 0.960 . S
C464 C463 1.524 . S
C465 C462 1.403 . S
C465 C466 1.392 . S
C465 C469 1.495 . S
C466 C465 1.392 . S
C466 C467 1.385 . S
C466 C468 1.478 . S
C467 H461 0.930 . S
C467 C463 1.400 . S
C467 C466 1.385 . S
C468 C466 1.478 . S
C468 C470 1.381 . S
C468 C474 1.383 . S
C469 C465 1.495 . S
C469 H475 0.959 . S
C469 H476 0.961 . S
C469 H477 0.960 . S
C470 C468 1.381 . S
C470 C471 1.394 . S
C470 H478 0.930 . S
C471 C470 1.394 . S
C471 C472 1.383 . S
C471 H479 0.929 . S
C472 C471 1.383 . S
C472 C473 1.377 . S
C473 H457 0.930 . S
C473 C472 1.377 . S
C473 C474 1.379 . S
C474 H458 0.931 . S
C474 C468 1.383 . S
C474 C473 1.379 . S
H475 C469 0.959 . S
H476 C469 0.961 . S
H477 C469 0.960 . S
H478 C470 0.930 . S
H479 C471 0.929 . S
H480 C488 0.929 . S
H481 C490 0.930 . S
H482 C492 0.930 . S
H483 C495 0.929 . S
H484 C498 0.930 . S
H485 C500 0.960 . S
H486 C500 0.960 . S
H487 C500 0.960 . S
C488 H480 0.929 . S
C488 C489 1.377 . S
C488 C490 1.384 . S
C489 C488 1.377 . S
C489 C495 1.390 1_554 S
C490 H481 0.930 . S
C490 C488 1.384 . S
C490 C491 1.372 . S
C491 C490 1.372 . S
C491 C492 1.400 1_554 S
C491 C496 1.490 . S
C492 H482 0.930 . S
C492 C491 1.400 1_556 S
C492 C495 1.386 . S
H493 C509 0.930 . S
H494 C510 0.931 . S
C495 H483 0.929 . S
C495 C489 1.390 1_556 S
C495 C492 1.386 . S
C496 C491 1.490 . S
C496 C498 1.395 . S
C496 C499 1.403 1_454 S
H497 C503 0.930 . S
C498 H484 0.930 . S
C498 C496 1.395 . S
C498 C501 1.403 . S
C499 C496 1.403 1_656 S
C499 C500 1.524 . S
C499 C503 1.400 . S
C500 H485 0.960 . S
C500 H486 0.960 . S
C500 H487 0.960 . S
C500 C499 1.524 . S
C501 C498 1.403 . S
C501 C502 1.392 1_455 S
C501 C505 1.495 . S
C502 C501 1.392 1_655 S
C502 C503 1.385 1_554 S
C502 C504 1.478 . S
C503 H497 0.930 . S
C503 C499 1.400 . S
C503 C502 1.385 1_556 S
C504 C502 1.478 . S
C504 C506 1.381 . S
C504 C510 1.383 1_554 S
C505 C501 1.495 . S
C505 H511 0.959 . S
C505 H512 0.961 . S
C505 H513 0.960 . S
C506 C504 1.381 . S
C506 C507 1.394 . S
C506 H514 0.930 . S
C507 C506 1.394 . S
C507 C508 1.383 . S
C507 H515 0.929 . S
C508 C507 1.383 . S
C508 C509 1.377 1_554 S
C509 H493 0.930 . S
C509 C508 1.377 1_556 S
C509 C510 1.379 . S
C510 H494 0.931 . S
C510 C504 1.383 1_556 S
C510 C509 1.379 . S
H511 C505 0.959 . S
H512 C505 0.961 . S
H513 C505 0.960 . S
H514 C506 0.930 . S
H515 C507 0.929 . S
H516 C524 0.929 . S
H517 C526 0.930 . S
H518 C528 0.930 . S
H519 C531 0.929 . S
H520 C534 0.930 . S
H521 C536 0.960 . S
H522 C536 0.960 . S
H523 C536 0.960 . S
C524 H516 0.929 . S
C524 C525 1.377 . S
C524 C526 1.384 . S
C525 C524 1.377 . S
C525 C531 1.390 . S
C526 H517 0.930 . S
C526 C524 1.384 . S
C526 C527 1.372 . S
C527 C526 1.372 . S
C527 C528 1.400 . S
C527 C532 1.490 . S
C528 H518 0.930 . S
C528 C527 1.400 . S
C528 C531 1.386 . S
H529 C545 0.930 . S
H530 C546 0.931 . S
C531 H519 0.929 . S
C531 C525 1.390 . S
C531 C528 1.386 . S
C532 C527 1.490 . S
C532 C534 1.395 . S
C532 C535 1.403 1_565 S
H533 C539 0.930 . S
C534 H520 0.930 . S
C534 C532 1.395 . S
C534 C537 1.403 . S
C535 C532 1.403 1_545 S
C535 C536 1.524 . S
C535 C539 1.400 . S
C536 H521 0.960 . S
C536 H522 0.960 . S
C536 H523 0.960 . S
C536 C535 1.524 . S
C537 C534 1.403 . S
C537 C538 1.392 1_565 S
C537 C541 1.495 . S
C538 C537 1.392 1_545 S
C538 C539 1.385 . S
C538 C540 1.478 . S
C539 H533 0.930 . S
C539 C535 1.400 . S
C539 C538 1.385 . S
C540 C538 1.478 . S
C540 C542 1.381 . S
C540 C546 1.383 . S
C541 C537 1.495 . S
C541 H547 0.959 . S
C541 H548 0.961 . S
C541 H549 0.960 . S
C542 C540 1.381 . S
C542 C543 1.394 . S
C542 H550 0.930 . S
C543 C542 1.394 . S
C543 C544 1.383 . S
C543 H551 0.929 . S
C544 C543 1.383 . S
C544 C545 1.377 . S
C545 H529 0.930 . S
C545 C544 1.377 . S
C545 C546 1.379 . S
C546 H530 0.931 . S
C546 C540 1.383 . S
C546 C545 1.379 . S
H547 C541 0.959 . S
H548 C541 0.961 . S
H549 C541 0.960 . S
H550 C542 0.930 . S
H551 C543 0.929 . S
H552 C560 0.929 . S
H553 C562 0.930 . S
H554 C564 0.930 . S
H555 C567 0.929 . S
H556 C570 0.930 . S
H557 C572 0.960 . S
H558 C572 0.960 . S
H559 C572 0.960 . S
C560 H552 0.929 . S
C560 C561 1.377 . S
C560 C562 1.384 . S
C561 C560 1.377 . S
C561 C567 1.390 . S
C562 H553 0.930 . S
C562 C560 1.384 . S
C562 C563 1.372 . S
C563 C562 1.372 . S
C563 C564 1.400 . S
C563 C568 1.490 . S
C564 H554 0.930 . S
C564 C563 1.400 . S
C564 C567 1.386 . S
H565 C581 0.930 . S
H566 C582 0.931 . S
C567 H555 0.929 . S
C567 C561 1.390 . S
C567 C564 1.386 . S
C568 C563 1.490 . S
C568 C570 1.395 . S
C568 C571 1.403 . S
H569 C575 0.930 . S
C570 H556 0.930 . S
C570 C568 1.395 . S
C570 C573 1.403 . S
C571 C568 1.403 . S
C571 C572 1.524 . S
C571 C575 1.400 . S
C572 H557 0.960 . S
C572 H558 0.960 . S
C572 H559 0.960 . S
C572 C571 1.524 . S
C573 C570 1.403 . S
C573 C574 1.392 . S
C573 C577 1.495 . S
C574 C573 1.392 . S
C574 C575 1.385 . S
C574 C576 1.478 . S
C575 H569 0.930 . S
C575 C571 1.400 . S
C575 C574 1.385 . S
C576 C574 1.478 . S
C576 C578 1.381 . S
C576 C582 1.383 . S
C577 C573 1.495 . S
C577 H583 0.959 . S
C577 H584 0.961 . S
C577 H585 0.960 . S
C578 C576 1.381 . S
C578 C579 1.394 . S
C578 H586 0.930 . S
C579 C578 1.394 . S
C579 C580 1.383 . S
C579 H587 0.929 . S
C580 C579 1.383 . S
C580 C581 1.377 . S
C581 H565 0.930 . S
C581 C580 1.377 . S
C581 C582 1.379 . S
C582 H566 0.931 . S
C582 C576 1.383 . S
C582 C581 1.379 . S
H583 C577 0.959 . S
H584 C577 0.961 . S
H585 C577 0.960 . S
H586 C578 0.930 . S
H587 C579 0.929 . S
H588 C596 0.929 . S
H589 C598 0.930 . S
H590 C600 0.930 1_455 S
H591 C603 0.929 . S
H592 C606 0.930 . S
H593 C608 0.960 . S
H594 C608 0.966 . S
H595 C608 0.960 . S
C596 H588 0.929 . S
C596 C597 1.377 . S
C596 C598 1.384 . S
C597 C596 1.377 . S
C597 C603 1.390 . S
C598 H589 0.930 . S
C598 C596 1.384 . S
C598 C599 1.372 . S
C599 C598 1.372 . S
C599 C600 1.400 . S
C599 C604 1.490 . S
C600 H590 0.930 1_655 S
C600 C599 1.400 . S
C600 C603 1.386 . S
H601 C617 0.930 . S
H602 C618 0.931 . S
C603 H591 0.929 . S
C603 C597 1.390 . S
C603 C600 1.386 . S
C604 C599 1.490 . S
C604 C606 1.395 . S
C604 C607 1.403 1_655 S
H605 C611 0.930 . S
C606 H592 0.930 . S
C606 C604 1.395 . S
C606 C609 1.403 1_655 S
C607 C604 1.403 1_455 S
C607 C608 1.524 . S
C607 C611 1.400 . S
C608 H593 0.960 . S
C608 H594 0.966 . S
C608 H595 0.960 . S
C608 C607 1.524 . S
C609 C606 1.403 1_455 S
C609 C610 1.392 . S
C609 C613 1.495 1_455 S
C610 C609 1.392 . S
C610 C611 1.385 . S
C610 C612 1.478 . S
C611 H605 0.930 . S
C611 C607 1.400 . S
C611 C610 1.385 . S
C612 C610 1.478 . S
C612 C614 1.381 . S
C612 C618 1.383 . S
C613 C609 1.495 1_655 S
C613 H619 0.959 . S
C613 H620 0.961 1_655 S
C613 H621 0.960 . S
C614 C612 1.381 . S
C614 C615 1.394 . S
C614 H622 0.930 . S
C615 C614 1.394 . S
C615 C616 1.383 . S
C615 H623 0.929 . S
C616 C615 1.383 . S
C616 C617 1.377 . S
C617 H601 0.930 . S
C617 C616 1.377 . S
C617 C618 1.379 . S
C618 H602 0.931 . S
C618 C612 1.383 . S
C618 C617 1.379 . S
H619 C613 0.959 . S
H620 C613 0.961 1_455 S
H621 C613 0.960 . S
H622 C614 0.930 . S
H623 C615 0.929 . S
H624 C632 0.929 . S
H625 C634 0.930 . S
H626 C636 0.930 . S
H627 C639 0.929 . S
H628 C642 0.930 . S
H629 C644 0.960 . S
H630 C644 0.960 . S
H631 C644 0.960 . S
C632 H624 0.929 . S
C632 C633 1.377 . S
C632 C634 1.384 . S
C633 C632 1.377 . S
C633 C639 1.390 . S
C634 H625 0.930 . S
C634 C632 1.384 . S
C634 C635 1.372 . S
C635 C634 1.372 . S
C635 C636 1.400 . S
C635 C640 1.490 . S
C636 H626 0.930 . S
C636 C635 1.400 . S
C636 C639 1.386 . S
H637 C653 0.930 . S
H638 C654 0.931 . S
C639 H627 0.929 . S
C639 C633 1.390 . S
C639 C636 1.386 . S
C640 C635 1.490 . S
C640 C642 1.395 1_565 S
C640 C643 1.403 . S
H641 C647 0.930 . S
C642 H628 0.930 . S
C642 C640 1.395 1_545 S
C642 C645 1.403 . S
C643 C640 1.403 . S
C643 C644 1.524 . S
C643 C647 1.400 1_565 S
C644 H629 0.960 . S
C644 H630 0.960 . S
C644 H631 0.960 . S
C644 C643 1.524 . S
C645 C642 1.403 . S
C645 C646 1.392 . S
C645 C649 1.495 . S
C646 C645 1.392 . S
C646 C647 1.385 . S
C646 C648 1.478 . S
C647 H641 0.930 . S
C647 C643 1.400 1_545 S
C647 C646 1.385 . S
C648 C646 1.478 . S
C648 C650 1.381 . S
C648 C654 1.383 . S
C649 C645 1.495 . S
C649 H655 0.959 . S
C649 H656 0.961 . S
C649 H657 0.960 . S
C650 C648 1.381 . S
C650 C651 1.394 . S
C650 H658 0.930 . S
C651 C650 1.394 . S
C651 C652 1.383 . S
C651 H659 0.929 . S
C652 C651 1.383 . S
C652 C653 1.377 . S
C653 H637 0.930 . S
C653 C652 1.377 . S
C653 C654 1.379 . S
C654 H638 0.931 . S
C654 C648 1.383 . S
C654 C653 1.379 . S
H655 C649 0.959 . S
H656 C649 0.961 . S
H657 C649 0.960 . S
H658 C650 0.930 . S
H659 C651 0.929 . S
H660 C668 0.929 . S
H661 C670 0.930 . S
H662 C672 0.930 . S
H663 C675 0.929 . S
H664 C678 0.930 . S
H665 C680 0.960 . S
H666 C680 0.960 . S
H667 C680 0.960 . S
C668 H660 0.929 . S
C668 C669 1.377 . S
C668 C670 1.384 . S
C669 C668 1.377 . S
C669 C675 1.390 . S
C670 H661 0.930 . S
C670 C668 1.384 . S
C670 C671 1.372 . S
C671 C670 1.372 . S
C671 C672 1.400 . S
C671 C676 1.490 . S
C672 H662 0.930 . S
C672 C671 1.400 . S
C672 C675 1.386 . S
H673 C689 0.930 . S
H674 C690 0.931 . S
C675 H663 0.929 . S
C675 C669 1.390 . S
C675 C672 1.386 . S
C676 C671 1.490 . S
C676 C678 1.395 . S
C676 C679 1.403 . S
H677 C683 0.930 . S
C678 H664 0.930 . S
C678 C676 1.395 . S
C678 C681 1.403 . S
C679 C676 1.403 . S
C679 C680 1.524 . S
C679 C683 1.400 . S
C680 H665 0.960 . S
C680 H666 0.960 . S
C680 H667 0.960 . S
C680 C679 1.524 . S
C681 C678 1.403 . S
C681 C682 1.392 . S
C681 C685 1.495 . S
C682 C681 1.392 . S
C682 C683 1.385 . S
C682 C684 1.478 . S
C683 H677 0.930 . S
C683 C679 1.400 . S
C683 C682 1.385 . S
C684 C682 1.478 . S
C684 C686 1.381 . S
C684 C690 1.383 . S
C685 C681 1.495 . S
C685 H691 0.959 . S
C685 H692 0.961 . S
C685 H693 0.960 . S
C686 C684 1.381 . S
C686 C687 1.394 . S
C686 H694 0.930 . S
C687 C686 1.394 . S
C687 C688 1.383 . S
C687 H695 0.929 . S
C688 C687 1.383 . S
C688 C689 1.377 . S
C689 H673 0.930 . S
C689 C688 1.377 . S
C689 C690 1.379 . S
C690 H674 0.931 . S
C690 C684 1.383 . S
C690 C689 1.379 . S
H691 C685 0.959 . S
H692 C685 0.961 . S
H693 C685 0.960 . S
H694 C686 0.930 . S
H695 C687 0.929 . S
H696 C704 0.929 . S
H697 C706 0.930 . S
H698 C708 0.930 1_655 S
H699 C711 0.929 . S
H700 C714 0.930 . S
H701 C716 0.960 . S
H702 C716 0.960 . S
H703 C716 0.960 . S
C704 H696 0.929 . S
C704 C705 1.377 . S
C704 C706 1.384 . S
C705 C704 1.377 . S
C705 C711 1.390 . S
C706 H697 0.930 . S
C706 C704 1.384 . S
C706 C707 1.372 . S
C707 C706 1.372 . S
C707 C708 1.400 . S
C707 C712 1.490 . S
C708 H698 0.930 1_455 S
C708 C707 1.400 . S
C708 C711 1.386 . S
H709 C725 0.930 . S
H710 C726 0.931 . S
C711 H699 0.929 . S
C711 C705 1.390 . S
C711 C708 1.386 . S
C712 C707 1.490 . S
C712 C714 1.395 . S
C712 C715 1.403 1_455 S
H713 C719 0.930 . S
C714 H700 0.930 . S
C714 C712 1.395 . S
C714 C717 1.403 . S
C715 C712 1.403 1_655 S
C715 C716 1.524 . S
C715 C719 1.400 . S
C716 H701 0.960 . S
C716 H702 0.960 . S
C716 H703 0.960 . S
C716 C715 1.524 . S
C717 C714 1.403 . S
C717 C718 1.392 1_455 S
C717 C721 1.495 . S
C718 C717 1.392 1_655 S
C718 C719 1.385 . S
C718 C720 1.478 . S
C719 H713 0.930 . S
C719 C715 1.400 . S
C719 C718 1.385 . S
C720 C718 1.478 . S
C720 C722 1.381 . S
C720 C726 1.383 . S
C721 C717 1.495 . S
C721 H727 0.959 . S
C721 H728 0.961 . S
C721 H729 0.960 . S
C722 C720 1.381 . S
C722 C723 1.394 . S
C722 H730 0.930 . S
C723 C722 1.394 . S
C723 C724 1.383 . S
C723 H731 0.929 . S
C724 C723 1.383 . S
C724 C725 1.377 . S
C725 H709 0.930 . S
C725 C724 1.377 . S
C725 C726 1.379 . S
C726 H710 0.931 . S
C726 C720 1.383 . S
C726 C725 1.379 . S
H727 C721 0.959 . S
H728 C721 0.961 . S
H729 C721 0.960 . S
H730 C722 0.930 . S
H731 C723 0.929 . S
H732 C740 0.929 . S
H733 C742 0.930 . S
H734 C744 0.930 . S
H735 C747 0.929 . S
H736 C750 0.930 . S
H737 C752 0.960 . S
H738 C752 0.960 . S
H739 C752 0.960 . S
C740 H732 0.929 . S
C740 C741 1.377 . S
C740 C742 1.384 . S
C741 C740 1.377 . S
C741 C747 1.390 . S
C742 H733 0.930 . S
C742 C740 1.384 . S
C742 C743 1.372 . S
C743 C742 1.372 . S
C743 C744 1.400 . S
C743 C748 1.490 . S
C744 H734 0.930 . S
C744 C743 1.400 . S
C744 C747 1.386 . S
H745 C761 0.930 . S
H746 C762 0.931 . S
C747 H735 0.929 . S
C747 C741 1.390 . S
C747 C744 1.386 . S
C748 C743 1.490 . S
C748 C750 1.395 1_545 S
C748 C751 1.403 . S
H749 C755 0.930 1_545 S
C750 H736 0.930 . S
C750 C748 1.395 1_565 S
C750 C753 1.403 . S
C751 C748 1.403 . S
C751 C752 1.524 . S
C751 C755 1.400 1_545 S
C752 H737 0.960 . S
C752 H738 0.960 . S
C752 H739 0.960 . S
C752 C751 1.524 . S
C753 C750 1.403 . S
C753 C754 1.392 . S
C753 C757 1.495 . S
C754 C753 1.392 . S
C754 C755 1.385 . S
C754 C756 1.478 . S
C755 H749 0.930 1_565 S
C755 C751 1.400 1_565 S
C755 C754 1.385 . S
C756 C754 1.478 . S
C756 C758 1.381 . S
C756 C762 1.383 . S
C757 C753 1.495 . S
C757 H763 0.959 . S
C757 H764 0.961 . S
C757 H765 0.960 . S
C758 C756 1.381 . S
C758 C759 1.394 . S
C758 H766 0.930 . S
C759 C758 1.394 . S
C759 C760 1.383 . S
C759 H767 0.929 . S
C760 C759 1.383 . S
C760 C761 1.377 . S
C761 H745 0.930 . S
C761 C760 1.377 . S
C761 C762 1.379 . S
C762 H746 0.931 . S
C762 C756 1.383 . S
C762 C761 1.379 . S
H763 C757 0.959 . S
H764 C757 0.961 . S
H765 C757 0.960 . S
H766 C758 0.930 . S
H767 C759 0.929 . S
C129 C99 1.195 . S
C148 C2 1.201 . S
C165 C119 1.195 . S
C184 C22 1.202 . S
C201 C19 1.198 . S
C220 C42 1.175 . S
C237 C39 1.197 . S
C256 C62 1.184 . S
C273 C59 1.199 . S
C292 C82 1.169 . S
C309 C79 1.196 . S
C328 C102 1.197 . S
C345 C8 0.607 . S
C364 C68 0.584 . S
C381 C88 0.579 . S
C400 C28 0.643 . S
C417 C108 0.586 . S
C436 C48 0.495 . S
C453 C49 0.309 . S
C472 C109 0.315 . S
C489 C9 0.312 . S
C508 C69 0.327 . S
C525 C89 0.310 . S
C544 C29 0.324 . S
C561 C118 1.209 . S
C580 C1 1.216 . S
C597 C21 1.209 . S
C616 C18 1.203 . S
C633 C41 1.209 . S
C652 C38 1.202 . S
C669 C58 1.212 . S
C688 C61 1.192 . S
C705 C81 1.208 . S
C724 C78 1.205 . S
C741 C101 1.206 . S
C760 C98 1.209 . S
