# Generated by pormake.
# Topology qtz-f, (3)-cn, num edge types: 1
# Building blocks:
#     Node 0, Type 0, BuildingBlock: OLANEW_clean_sbu_2, # of connection points: 3
#     Node 1, Type 0, BuildingBlock: OLANEW_clean_sbu_2, # of connection points: 3
#     Node 2, Type 0, BuildingBlock: OLANEW_clean_sbu_2, # of connection points: 3
#     Node 3, Type 0, BuildingBlock: OLANEW_clean_sbu_2, # of connection points: 3
#     Node 4, Type 0, BuildingBlock: OLANEW_clean_sbu_2, # of connection points: 3
#     Node 5, Type 0, BuildingBlock: OLANEW_clean_sbu_2, # of connection points: 3
#     Node 6, Type 0, BuildingBlock: OLANEW_clean_sbu_2, # of connection points: 3
#     Node 7, Type 0, BuildingBlock: OLANEW_clean_sbu_2, # of connection points: 3
#     Node 8, Type 0, BuildingBlock: OLANEW_clean_sbu_2, # of connection points: 3
#     Node 9, Type 0, BuildingBlock: OLANEW_clean_sbu_2, # of connection points: 3
#     Node 10, Type 0, BuildingBlock: OLANEW_clean_sbu_2, # of connection points: 3
#     Node 11, Type 0, BuildingBlock: OLANEW_clean_sbu_2, # of connection points: 3
#     Edge 12, Type (0, 0), BuildingBlock: FUNLAD_clean_linker_1, # of connection points: 2
#     Edge 13, Type (0, 0), BuildingBlock: FUNLAD_clean_linker_1, # of connection points: 2
#     Edge 14, Type (0, 0), BuildingBlock: FUNLAD_clean_linker_1, # of connection points: 2
#     Edge 15, Type (0, 0), BuildingBlock: FUNLAD_clean_linker_1, # of connection points: 2
#     Edge 16, Type (0, 0), BuildingBlock: FUNLAD_clean_linker_1, # of connection points: 2
#     Edge 17, Type (0, 0), BuildingBlock: FUNLAD_clean_linker_1, # of connection points: 2
#     Edge 18, Type (0, 0), BuildingBlock: FUNLAD_clean_linker_1, # of connection points: 2
#     Edge 19, Type (0, 0), BuildingBlock: FUNLAD_clean_linker_1, # of connection points: 2
#     Edge 20, Type (0, 0), BuildingBlock: FUNLAD_clean_linker_1, # of connection points: 2
#     Edge 21, Type (0, 0), BuildingBlock: FUNLAD_clean_linker_1, # of connection points: 2
#     Edge 22, Type (0, 0), BuildingBlock: FUNLAD_clean_linker_1, # of connection points: 2
#     Edge 23, Type (0, 0), BuildingBlock: FUNLAD_clean_linker_1, # of connection points: 2
#     Edge 24, Type (0, 0), BuildingBlock: FUNLAD_clean_linker_1, # of connection points: 2
#     Edge 25, Type (0, 0), BuildingBlock: FUNLAD_clean_linker_1, # of connection points: 2
#     Edge 26, Type (0, 0), BuildingBlock: FUNLAD_clean_linker_1, # of connection points: 2
#     Edge 27, Type (0, 0), BuildingBlock: FUNLAD_clean_linker_1, # of connection points: 2
#     Edge 28, Type (0, 0), BuildingBlock: FUNLAD_clean_linker_1, # of connection points: 2
#     Edge 29, Type (0, 0), BuildingBlock: FUNLAD_clean_linker_1, # of connection points: 2
# Relax obj value: 0.008
# Max RMSD: 0.023
# Mean RMSD: 0.023
data_MOF--net-qtz-f--node1-OLANEW_clean_sbu_2--edge1-FUNLAD_clean_linker_1
_symmetry_space_group_name_H-M    P1
_symmetry_Int_Tables_number       1
_symmetry_cell_setting            triclinic
loop_
_symmetry_equiv_pos_as_xyz
'x, y, z'
_cell_length_a     78.789279
_cell_length_b     77.887776
_cell_length_c     24.856823
_cell_angle_alpha  90.004419
_cell_angle_beta   89.975959
_cell_angle_gamma 120.45693
loop_
_atom_site_label
_atom_site_type_symbol
_atom_site_fract_x
_atom_site_fract_y
_atom_site_fract_z
_atom_type_partial_charge
O0 O 0.13793 0.49559 0.18487 0.0
Cd1 Cd 0.12707 0.46033 0.17321 0.0
O2 O 0.11373 0.49334 0.13519 0.0
Cd3 Cd 0.09702 0.46086 0.12971 0.0
O4 O 0.068 0.43397 0.13556 0.0
C5 C 0.06068 0.42774 0.182 0.0
O6 O 0.07136 0.43661 0.2247 0.0
C7 C 0.12943 0.5038 0.16206 0.0
C8 C 0.15416 0.4563 0.11041 0.0
O9 O 0.13967 0.45679 0.08871 0.0
O10 O 0.15575 0.45746 0.16179 0.0
O11 O 0.63708 0.14002 0.47262 0.0
Cd12 Cd 0.66589 0.13664 0.48881 0.0
O13 O 0.62535 0.12903 0.55374 0.0
Cd14 Cd 0.64451 0.1168 0.56791 0.0
O15 O 0.64571 0.0894 0.5711 0.0
C16 C 0.63296 0.07553 0.54166 0.0
O17 O 0.62136 0.07911 0.51164 0.0
C18 C 0.62448 0.13659 0.50921 0.0
C19 C 0.69751 0.16254 0.42414 0.0
O20 O 0.69328 0.16872 0.46704 0.0
O21 O 0.68695 0.14408 0.41183 0.0
O22 O 0.49152 0.64571 0.8383 0.0
Cd23 Cd 0.52548 0.6735 0.84076 0.0
O24 O 0.4967 0.63323 0.76477 0.0
Cd25 Cd 0.5287 0.65232 0.76758 0.0
O26 O 0.55677 0.65356 0.77977 0.0
C27 C 0.5548 0.63748 0.79851 0.0
O28 O 0.53698 0.62268 0.80918 0.0
C29 C 0.48504 0.63288 0.80067 0.0
C30 C 0.52871 0.70627 0.78624 0.0
O31 O 0.52508 0.70402 0.83684 0.0
O32 O 0.53098 0.69316 0.76144 0.0
O33 O 0.84483 0.50292 0.16207 0.0
Cd34 Cd 0.85261 0.53727 0.14872 0.0
O35 O 0.86031 0.50924 0.23977 0.0
Cd36 Cd 0.87437 0.54155 0.23219 0.0
O37 O 0.90325 0.56845 0.22423 0.0
C38 C 0.91563 0.57114 0.26081 0.0
O39 O 0.90993 0.55884 0.30184 0.0
C40 C 0.84972 0.49691 0.20364 0.0
C41 C 0.82369 0.5386 0.08744 0.0
O42 O 0.83856 0.53911 0.06494 0.0
O43 O 0.82249 0.53759 0.1389 0.0
O44 O 0.34632 0.85541 0.42904 0.0
Cd45 Cd 0.32058 0.86389 0.41854 0.0
O46 O 0.35108 0.86403 0.5145 0.0
Cd47 Cd 0.33423 0.87924 0.51173 0.0
O48 O 0.33768 0.90888 0.51643 0.0
C49 C 0.35039 0.92033 0.55063 0.0
O50 O 0.35912 0.9133 0.58096 0.0
C51 C 0.35472 0.85659 0.47363 0.0
C52 C 0.28448 0.82992 0.39666 0.0
O53 O 0.29606 0.84034 0.35841 0.0
O54 O 0.28985 0.83561 0.44517 0.0
O55 O 0.48344 0.34726 0.82503 0.0
Cd56 Cd 0.44938 0.32101 0.80873 0.0
O57 O 0.47665 0.3549 0.90441 0.0
Cd58 Cd 0.44475 0.33647 0.89537 0.0
O59 O 0.41675 0.33577 0.88847 0.0
C60 C 0.41757 0.34997 0.86124 0.0
O61 O 0.43428 0.36276 0.83805 0.0
C62 C 0.48909 0.35736 0.86827 0.0
C63 C 0.44722 0.28559 0.77753 0.0
O64 O 0.44906 0.29848 0.74243 0.0
O65 O 0.44633 0.28936 0.82726 0.0
O66 O 0.4906 0.85399 0.59808 0.0
Cd67 Cd 0.52514 0.8639 0.61121 0.0
O68 O 0.4959 0.86794 0.51807 0.0
Cd69 Cd 0.52797 0.8837 0.5239 0.0
O70 O 0.55428 0.91334 0.52222 0.0
C71 C 0.55399 0.92491 0.48668 0.0
O72 O 0.53905 0.91803 0.45325 0.0
C73 C 0.48408 0.85759 0.55542 0.0
C74 C 0.52829 0.83378 0.66213 0.0
O75 O 0.52732 0.84718 0.6895 0.0
O76 O 0.52793 0.83464 0.61067 0.0
O77 O 0.64235 0.49259 0.85188 0.0
Cd78 Cd 0.66765 0.52771 0.8607 0.0
O79 O 0.61871 0.49813 0.87677 0.0
Cd80 Cd 0.63589 0.53064 0.87832 0.0
O81 O 0.63305 0.55679 0.86421 0.0
C82 C 0.61933 0.55351 0.83151 0.0
O83 O 0.6093 0.5359 0.80888 0.0
C84 C 0.62438 0.4861 0.86308 0.0
C85 C 0.69864 0.53188 0.92423 0.0
O86 O 0.6839 0.53204 0.94536 0.0
O87 O 0.69887 0.52993 0.87307 0.0
O88 O 0.1329 0.64528 0.19095 0.0
Cd89 Cd 0.12603 0.67211 0.20798 0.0
O90 O 0.11438 0.63528 0.1182 0.0
Cd91 Cd 0.10206 0.65461 0.12968 0.0
O92 O 0.07587 0.65698 0.14217 0.0
C93 C 0.06154 0.6415 0.16282 0.0
O94 O 0.06399 0.62654 0.17583 0.0
C95 C 0.12608 0.63378 0.15042 0.0
C96 C 0.16018 0.70779 0.23254 0.0
O97 O 0.14978 0.6956 0.26984 0.0
O98 O 0.15447 0.70318 0.18374 0.0
O99 O 0.48471 0.14014 0.55985 0.0
Cd100 Cd 0.45075 0.13316 0.56108 0.0
O101 O 0.48178 0.12624 0.48062 0.0
Cd102 Cd 0.44984 0.11291 0.47715 0.0
O103 O 0.42125 0.08537 0.47742 0.0
C104 C 0.42093 0.07126 0.50385 0.0
O105 O 0.43692 0.07463 0.52951 0.0
C106 C 0.49231 0.13587 0.52077 0.0
C107 C 0.44946 0.16707 0.58977 0.0
O108 O 0.4485 0.15479 0.62566 0.0
O109 O 0.45088 0.16329 0.54037 0.0
O110 O 0.33329 0.49936 0.8705 0.0
Cd111 Cd 0.30804 0.46417 0.87836 0.0
O112 O 0.35615 0.49291 0.84367 0.0
Cd113 Cd 0.33895 0.4604 0.8459 0.0
O114 O 0.34103 0.43349 0.8409 0.0
C115 C 0.35348 0.43442 0.80675 0.0
O116 O 0.36287 0.45036 0.77645 0.0
C117 C 0.35084 0.50538 0.85555 0.0
C118 C 0.27702 0.45977 0.94237 0.0
O119 O 0.29175 0.4595 0.96316 0.0
O120 O 0.2768 0.46191 0.89129 0.0
O121 O 0.82461 0.34168 0.14816 0.0
Cd122 Cd 0.82967 0.3134 0.13766 0.0
O123 O 0.85501 0.36328 0.17284 0.0
Cd124 Cd 0.86745 0.34392 0.16466 0.0
O125 O 0.89455 0.34305 0.1535 0.0
C126 C 0.90886 0.35481 0.18331 0.0
O127 O 0.90603 0.36531 0.21983 0.0
C128 C 0.83749 0.35911 0.16295 0.0
C129 C 0.80025 0.28045 0.19215 0.0
O130 O 0.81735 0.29108 0.21317 0.0
O131 O 0.79712 0.28523 0.1455 0.0
H132 H 0.26241 0.45698 0.02029 0.0
C133 C 0.26109 0.45815 0.97708 0.0
H134 H 0.24363 0.45925 0.91412 0.0
H135 H 0.16604 0.41922 0.0574 0.0
H136 H 0.15967 0.3915 0.99961 0.0
H137 H 0.1853 0.39373 0.93811 0.0
H138 H 0.21752 0.42368 0.93432 0.0
C139 C 0.24549 0.45864 0.95726 0.0
C140 C 0.22994 0.45763 0.99338 0.0
C141 C 0.21106 0.4402 0.99425 0.0
C142 C 0.19617 0.43905 0.02905 0.0
C143 C 0.17771 0.42114 0.03064 0.0
C144 C 0.17389 0.40505 0.99794 0.0
C145 C 0.18833 0.4063 0.96337 0.0
C146 C 0.20674 0.42359 0.96151 0.0
H147 H 0.16697 0.45461 0.03305 0.0
C148 C 0.1688 0.45497 0.07646 0.0
H149 H 0.18683 0.45589 0.14055 0.0
H150 H 0.2641 0.49384 0.99861 0.0
H151 H 0.27047 0.52156 0.05627 0.0
H152 H 0.2448 0.51944 0.11736 0.0
H153 H 0.21256 0.4896 0.12093 0.0
C154 C 0.18446 0.45483 0.09731 0.0
C155 C 0.20009 0.45552 0.06208 0.0
C156 C 0.219 0.47293 0.06131 0.0
C157 C 0.23389 0.47406 0.02659 0.0
C158 C 0.2524 0.49194 0.02517 0.0
C159 C 0.25623 0.50804 0.05783 0.0
C160 C 0.24177 0.50686 0.09217 0.0
C161 C 0.22333 0.4896 0.09391 0.0
H162 H 0.72071 0.16995 0.36357 0.0
C163 C 0.71415 0.1762 0.38971 0.0
H164 H 0.71406 0.20195 0.41486 0.0
H165 H 0.79871 0.26893 0.35595 0.0
H166 H 0.79813 0.27208 0.4526 0.0
H167 H 0.77053 0.24665 0.5065 0.0
H168 H 0.74318 0.21811 0.46388 0.0
C169 C 0.72078 0.19586 0.3887 0.0
C170 C 0.73807 0.21012 0.35566 0.0
C171 C 0.75437 0.22638 0.38145 0.0
C172 C 0.77064 0.24069 0.35054 0.0
C173 C 0.7862 0.25729 0.37729 0.0
C174 C 0.78605 0.25935 0.4329 0.0
C175 C 0.7705 0.24506 0.46323 0.0
C176 C 0.75482 0.22876 0.43809 0.0
H177 H 0.76915 0.25887 0.20943 0.0
C178 C 0.78416 0.26362 0.22138 0.0
H179 H 0.80252 0.25893 0.27335 0.0
H180 H 0.70802 0.18299 0.291 0.0
H181 H 0.71009 0.17781 0.1958 0.0
H182 H 0.7407 0.19907 0.14525 0.0
H183 H 0.76906 0.22622 0.18936 0.0
C184 C 0.78748 0.25416 0.26162 0.0
C185 C 0.77098 0.23833 0.294 0.0
C186 C 0.75525 0.22135 0.2687 0.0
C187 C 0.73832 0.2079 0.29895 0.0
C188 C 0.72185 0.19268 0.27113 0.0
C189 C 0.72274 0.18968 0.21621 0.0
C190 C 0.73992 0.20173 0.18769 0.0
C191 C 0.75602 0.2174 0.2134 0.0
H192 H 0.5291 0.81741 0.73355 0.0
C193 C 0.52947 0.81768 0.68982 0.0
H194 H 0.53036 0.80304 0.61925 0.0
H195 H 0.56122 0.7654 0.81184 0.0
H196 H 0.5899 0.79858 0.81819 0.0
H197 H 0.59189 0.82642 0.76568 0.0
H198 H 0.56518 0.82131 0.70687 0.0
C199 C 0.53061 0.80332 0.66296 0.0
C200 C 0.53025 0.78641 0.6919 0.0
C201 C 0.54618 0.78962 0.72545 0.0
C202 C 0.5452 0.77349 0.75493 0.0
C203 C 0.56121 0.77712 0.78848 0.0
C204 C 0.57778 0.79608 0.79242 0.0
C205 C 0.57889 0.81176 0.76291 0.0
C206 C 0.56337 0.80865 0.7296 0.0
H207 H 0.53233 0.72397 0.7133 0.0
C208 C 0.52988 0.72321 0.75651 0.0
H209 H 0.52576 0.73715 0.82418 0.0
H210 H 0.4975 0.775 0.62982 0.0
H211 H 0.46908 0.74175 0.62256 0.0
H212 H 0.46734 0.71383 0.67407 0.0
H213 H 0.49403 0.71899 0.73297 0.0
C214 C 0.52765 0.73734 0.78084 0.0
C215 C 0.52855 0.75411 0.74982 0.0
C216 C 0.51276 0.75083 0.71565 0.0
C217 C 0.51369 0.76697 0.68638 0.0
C218 C 0.49764 0.76329 0.65285 0.0
C219 C 0.4812 0.74427 0.64838 0.0
C220 C 0.48022 0.72855 0.67734 0.0
C221 C 0.49572 0.73171 0.71081 0.0
H222 H 0.71339 0.53461 1.00187 0.0
C223 C 0.71465 0.53352 0.95861 0.0
H224 H 0.73213 0.53277 0.89513 0.0
H225 H 0.81005 0.57417 0.03663 0.0
H226 H 0.81561 0.60174 0.97933 0.0
H227 H 0.78954 0.59891 0.91869 0.0
H228 H 0.75767 0.56852 0.91531 0.0
C229 C 0.73033 0.53328 0.93834 0.0
C230 C 0.74614 0.53464 0.97398 0.0
C231 C 0.76482 0.55233 0.97458 0.0
C232 C 0.77997 0.55382 1.00883 0.0
C233 C 0.79821 0.57198 1.01023 0.0
C234 C 0.80156 0.58799 0.97781 0.0
C235 C 0.78687 0.58641 0.94373 0.0
C236 C 0.76866 0.56886 0.94211 0.0
H237 H 0.80994 0.5393 1.0108 0.0
C238 C 0.80833 0.53893 0.0543 0.0
H239 H 0.79037 0.53746 0.11932 0.0
H240 H 0.71242 0.49809 0.97991 0.0
H241 H 0.70684 0.47052 0.03717 0.0
H242 H 0.733 0.4732 0.09718 0.0
H243 H 0.76494 0.50345 0.10008 0.0
C244 C 0.79249 0.53848 0.07598 0.0
C245 C 0.77654 0.53743 0.04152 0.0
C246 C 0.75781 0.51977 0.04113 0.0
C247 C 0.74264 0.51831 1.007 0.0
C248 C 0.72432 0.50022 1.00597 0.0
C249 C 0.72095 0.48421 0.03842 0.0
C250 C 0.73568 0.48571 0.07216 0.0
C251 C 0.75394 0.5032 0.07351 0.0
H252 H 0.18689 0.73612 0.2113 0.0
C253 C 0.17837 0.72668 0.24477 0.0
H254 H 0.17663 0.7229 0.32913 0.0
H255 H 0.26833 0.77878 0.36426 0.0
H256 H 0.26399 0.74635 0.38457 0.0
H257 H 0.23202 0.71573 0.36956 0.0
H258 H 0.20422 0.71735 0.33392 0.0
C259 C 0.18468 0.73245 0.29537 0.0
C260 C 0.20362 0.7511 0.30652 0.0
C261 C 0.21962 0.74991 0.32837 0.0
C262 C 0.23799 0.76758 0.33763 0.0
C263 C 0.25391 0.76589 0.35765 0.0
C264 C 0.25166 0.74735 0.36918 0.0
C265 C 0.23367 0.73011 0.36068 0.0
C266 C 0.21781 0.73126 0.34032 0.0
H267 H 0.25654 0.80317 0.41993 0.0
C268 C 0.26555 0.81163 0.38582 0.0
H269 H 0.26787 0.81356 0.30103 0.0
H270 H 0.17536 0.75886 0.26977 0.0
H271 H 0.17974 0.7913 0.24945 0.0
H272 H 0.21185 0.82188 0.26342 0.0
H273 H 0.23973 0.82019 0.29823 0.0
C274 C 0.25935 0.80502 0.33565 0.0
C275 C 0.24023 0.78644 0.32579 0.0
C276 C 0.22422 0.78765 0.3042 0.0
C277 C 0.20582 0.76998 0.29517 0.0
C278 C 0.18984 0.77171 0.27581 0.0
C279 C 0.19211 0.79027 0.26436 0.0
C280 C 0.21017 0.80749 0.2723 0.0
C281 C 0.22607 0.8063 0.29219 0.0
H282 H 0.44489 0.2566 0.79343 0.0
C283 C 0.44626 0.26687 0.76178 0.0
H284 H 0.44925 0.27268 0.67824 0.0
H285 H 0.4844 0.21662 0.63491 0.0
H286 H 0.51331 0.24922 0.62234 0.0
H287 H 0.51239 0.27972 0.64285 0.0
H288 H 0.48256 0.27778 0.67639 0.0
C289 C 0.44722 0.26228 0.71019 0.0
C290 C 0.4473 0.24378 0.6956 0.0
C291 C 0.46473 0.24519 0.67486 0.0
C292 C 0.46517 0.2276 0.66224 0.0
C293 C 0.48304 0.22946 0.64372 0.0
C294 C 0.49981 0.2481 0.63667 0.0
C295 C 0.4993 0.26527 0.64828 0.0
C296 C 0.48204 0.26393 0.66738 0.0
H297 H 0.45019 0.19521 0.57214 0.0
C298 C 0.44924 0.18531 0.60434 0.0
H299 H 0.44673 0.18016 0.68823 0.0
H300 H 0.41094 0.23582 0.72986 0.0
H301 H 0.382 0.20321 0.74236 0.0
H302 H 0.38293 0.1727 0.72189 0.0
H303 H 0.41279 0.17465 0.68845 0.0
C304 C 0.44826 0.19015 0.65566 0.0
C305 C 0.44804 0.20864 0.66937 0.0
C306 C 0.43059 0.20724 0.68997 0.0
C307 C 0.43015 0.22482 0.70259 0.0
C308 C 0.41229 0.22297 0.72107 0.0
C309 C 0.39551 0.20433 0.72807 0.0
C310 C 0.39602 0.18715 0.71648 0.0
C311 C 0.41328 0.18849 0.69743 0.0
H312 H 0.12243 0.60707 0.10967 0.0
C313 C 0.13012 0.61744 0.14236 0.0
H314 H 0.14859 0.62371 0.20991 0.0
H315 H 0.1165 0.53157 0.24547 0.0
H316 H 0.10693 0.54094 0.32798 0.0
H317 H 0.11304 0.57502 0.34066 0.0
H318 H 0.12871 0.5999 0.27086 0.0
C319 C 0.14131 0.61386 0.17604 0.0
C320 C 0.1413 0.59474 0.17247 0.0
C321 C 0.13266 0.58055 0.2145 0.0
C322 C 0.12925 0.56092 0.20734 0.0
C323 C 0.11975 0.54677 0.24895 0.0
C324 C 0.1141 0.55193 0.29654 0.0
C325 C 0.11753 0.57111 0.30367 0.0
C326 C 0.12658 0.58528 0.2632 0.0
H327 H 0.14989 0.53371 0.1954 0.0
C328 C 0.13722 0.52535 0.16934 0.0
H329 H 0.11588 0.52641 0.12018 0.0
H330 H 0.16203 0.61956 0.08926 0.0
H331 H 0.17261 0.61048 1.00765 0.0
H332 H 0.16593 0.57621 0.99423 0.0
H333 H 0.14879 0.55084 0.06256 0.0
C334 C 0.12833 0.53447 0.14713 0.0
C335 C 0.13471 0.55563 0.15843 0.0
C336 C 0.1446 0.57021 0.11807 0.0
C337 C 0.14812 0.58986 0.12535 0.0
C338 C 0.15846 0.60426 0.08495 0.0
C339 C 0.16474 0.59928 0.03816 0.0
C340 C 0.161 0.57999 0.03063 0.0
C341 C 0.15109 0.56556 0.07004 0.0
H342 H 0.52098 0.14751 0.56148 0.0
C343 C 0.51295 0.14065 0.52464 0.0
H344 H 0.51312 0.12745 0.45061 0.0
H345 H 0.60738 0.17391 0.52886 0.0
H346 H 0.60745 0.20471 0.51346 0.0
H347 H 0.57687 0.20423 0.48888 0.0
H348 H 0.54599 0.17295 0.48018 0.0
C349 C 0.5213 0.13504 0.48665 0.0
C350 C 0.54018 0.13561 0.49695 0.0
C351 C 0.55819 0.154 0.5004 0.0
C352 C 0.57594 0.15425 0.51292 0.0
C353 C 0.59358 0.17284 0.51809 0.0
C354 C 0.59381 0.19063 0.50956 0.0
C355 C 0.57658 0.19036 0.49585 0.0
C356 C 0.55894 0.17231 0.49124 0.0
H357 H 0.60713 0.14551 0.45873 0.0
C358 C 0.60816 0.14026 0.49845 0.0
H359 H 0.59445 0.12999 0.57402 0.0
H360 H 0.50822 0.09773 0.49259 0.0
H361 H 0.50837 0.06697 0.50495 0.0
H362 H 0.5393 0.06738 0.524 0.0
H363 H 0.57023 0.09857 0.53108 0.0
C364 C 0.59396 0.13597 0.53493 0.0
C365 C 0.57569 0.13608 0.52064 0.0
C366 C 0.55775 0.11769 0.51602 0.0
C367 C 0.53998 0.11745 0.50423 0.0
C368 C 0.52222 0.09884 0.50076 0.0
C369 C 0.52208 0.08103 0.50788 0.0
C370 C 0.53948 0.08126 0.51867 0.0
C371 C 0.55714 0.09931 0.52275 0.0
H372 H 0.46014 0.6051 0.76923 0.0
C373 C 0.46443 0.61636 0.80039 0.0
H374 H 0.45583 0.62443 0.87206 0.0
H375 H 0.37526 0.54782 0.75789 0.0
H376 H 0.37916 0.57135 0.68808 0.0
H377 H 0.40716 0.6059 0.68986 0.0
H378 H 0.43156 0.61705 0.76121 0.0
C379 C 0.45154 0.61371 0.83951 0.0
C380 C 0.43259 0.59447 0.84394 0.0
C381 C 0.41807 0.58842 0.80317 0.0
C382 C 0.40162 0.56867 0.80301 0.0
C383 C 0.38783 0.56274 0.76049 0.0
C384 C 0.38991 0.5761 0.72014 0.0
C385 C 0.4057 0.59554 0.72108 0.0
C386 C 0.41966 0.60171 0.76202 0.0
H387 H 0.36059 0.53738 0.86495 0.0
C388 C 0.36531 0.52695 0.85374 0.0
H389 H 0.38924 0.52345 0.83128 0.0
H390 H 0.45655 0.60195 0.93156 0.0
H391 H 0.45156 0.57904 1.00398 0.0
H392 H 0.4226 0.54507 1.00474 0.0
H393 H 0.39849 0.53381 0.9328 0.0
C394 C 0.38423 0.53379 0.84067 0.0
C395 C 0.39953 0.55521 0.84438 0.0
C396 C 0.41325 0.56173 0.88726 0.0
C397 C 0.4298 0.58138 0.88711 0.0
C398 C 0.44358 0.58727 0.92975 0.0
C399 C 0.44091 0.57425 0.97164 0.0
C400 C 0.42463 0.55512 0.97205 0.0
C401 C 0.41093 0.54884 0.93043 0.0
H402 H 0.81732 0.37095 0.15526 0.0
C403 C 0.83222 0.37478 0.16596 0.0
H404 H 0.8607 0.39784 0.18723 0.0
H405 H 0.85566 0.46805 0.08277 0.0
H406 H 0.87493 0.46289 0.01574 0.0
H407 H 0.87879 0.4334 0.0195 0.0
H408 H 0.86347 0.40896 0.09065 0.0
C409 C 0.84557 0.39369 0.17857 0.0
C410 C 0.84118 0.41007 0.17363 0.0
C411 C 0.84992 0.42404 0.13122 0.0
C412 C 0.84743 0.44086 0.12861 0.0
C413 C 0.8568 0.45484 0.0865 0.0
C414 C 0.86795 0.45209 0.04769 0.0
C415 C 0.87015 0.4355 0.04985 0.0
C416 C 0.8613 0.42161 0.09102 0.0
H417 H 0.85109 0.47222 0.24229 0.0
C418 C 0.84506 0.47609 0.20812 0.0
H419 H 0.83032 0.46648 0.13368 0.0
H420 H 0.82219 0.38597 0.25986 0.0
H421 H 0.80143 0.39016 0.3243 0.0
H422 H 0.79575 0.41845 0.31704 0.0
H423 H 0.81104 0.4429 0.24563 0.0
C424 C 0.83577 0.46259 0.16903 0.0
C425 C 0.83616 0.44367 0.16843 0.0
C426 C 0.82652 0.42911 0.20914 0.0
C427 C 0.82926 0.41243 0.21223 0.0
C428 C 0.82022 0.39864 0.2548 0.0
C429 C 0.80831 0.4009 0.29217 0.0
C430 C 0.80515 0.41686 0.28817 0.0
C431 C 0.81411 0.43085 0.24722 0.0
H432 H 0.45371 0.8442 0.58662 0.0
C433 C 0.46304 0.85146 0.55193 0.0
H434 H 0.46528 0.86468 0.47616 0.0
H435 H 0.36831 0.81634 0.5132 0.0
H436 H 0.3695 0.78602 0.50102 0.0
H437 H 0.40132 0.78724 0.49344 0.0
H438 H 0.43217 0.81876 0.49845 0.0
C439 C 0.45583 0.85666 0.51003 0.0
C440 C 0.43647 0.85555 0.51341 0.0
C441 C 0.41861 0.83705 0.50955 0.0
C442 C 0.40025 0.8364 0.51264 0.0
C443 C 0.38264 0.8177 0.50994 0.0
C444 C 0.38312 0.8002 0.50315 0.0
C445 C 0.40104 0.80088 0.49899 0.0
C446 C 0.41863 0.81905 0.50209 0.0
H447 H 0.37427 0.84682 0.43902 0.0
C448 C 0.37022 0.85128 0.47608 0.0
H449 H 0.37746 0.8593 0.55753 0.0
H450 H 0.46803 0.89347 0.52339 0.0
H451 H 0.46683 0.92375 0.53408 0.0
H452 H 0.43503 0.9227 0.53749 0.0
H453 H 0.40426 0.89137 0.53046 0.0
C454 C 0.38087 0.85406 0.52085 0.0
C455 C 0.39984 0.85428 0.51877 0.0
C456 C 0.41771 0.87278 0.52275 0.0
C457 C 0.43603 0.87341 0.52005 0.0
C458 C 0.45366 0.8921 0.52453 0.0
C459 C 0.45321 0.90962 0.5308 0.0
C460 C 0.43531 0.90903 0.53279 0.0
C461 C 0.41774 0.8909 0.52881 0.0
H462 H 0.61489 0.45468 0.84414 0.0
C463 C 0.60988 0.46462 0.85789 0.0
H464 H 0.58541 0.46737 0.8791 0.0
H465 H 0.52053 0.39522 0.75178 0.0
H466 H 0.52713 0.42195 0.69002 0.0
H467 H 0.55604 0.45553 0.70252 0.0
H468 H 0.57846 0.46257 0.77716 0.0
C469 C 0.59063 0.4574 0.8673 0.0
C470 C 0.5754 0.43643 0.85538 0.0
C471 C 0.5627 0.43242 0.81086 0.0
C472 C 0.5462 0.41299 0.80326 0.0
C473 C 0.53342 0.40961 0.7593 0.0
C474 C 0.53702 0.42485 0.72348 0.0
C475 C 0.55328 0.44375 0.73055 0.0
C476 C 0.56599 0.4476 0.77367 0.0
H477 H 0.51329 0.38262 0.91111 0.0
C478 C 0.50972 0.37341 0.87527 0.0
H479 H 0.51996 0.3697 0.80015 0.0
H480 H 0.59748 0.43886 0.94327 0.0
H481 H 0.59205 0.41163 1.00199 0.0
H482 H 0.56433 0.37757 0.9862 0.0
H483 H 0.54169 0.37059 0.91191 0.0
C484 C 0.52351 0.37833 0.83705 0.0
C485 C 0.54248 0.39761 0.84026 0.0
C486 C 0.55602 0.40127 0.88247 0.0
C487 C 0.57237 0.42079 0.89052 0.0
C488 C 0.58509 0.42424 0.93459 0.0
C489 C 0.58211 0.40875 0.96867 0.0
C490 C 0.56647 0.38958 0.95986 0.0
C491 C 0.55353 0.3858 0.91732 0.0
H492 H 0.03365 0.41004 0.22944 0.0
C493 C 0.03954 0.41311 0.18874 0.0
H494 H 0.03273 0.40915 0.10595 0.0
H495 H 0.94942 0.34421 0.23496 0.0
H496 H 0.96641 0.32653 0.25868 0.0
H497 H 0.00126 0.34005 0.23405 0.0
H498 H 0.01941 0.37144 0.18594 0.0
C499 C 0.02712 0.40554 0.14683 0.0
C500 C 0.00546 0.39572 0.15525 0.0
C501 C -0.00506 0.37713 0.18208 0.0
C502 C 0.97472 0.3691 0.19525 0.0
C503 C 0.96472 0.35082 0.22345 0.0
C504 C 0.9743 0.34054 0.2373 0.0
C505 C -0.00607 0.34817 0.22351 0.0
C506 C 0.00421 0.36624 0.19617 0.0
H507 H 0.93092 0.35062 0.13918 0.0
C508 C 0.92886 0.35848 0.17234 0.0
H509 H 0.94273 0.38107 0.23087 0.0
H510 H 0.02088 0.43111 0.10031 0.0
H511 H 0.00351 0.44797 0.07359 0.0
H512 H 0.96831 0.4337 0.09501 0.0
H513 H 0.9503 0.40248 0.14349 0.0
C514 C 0.94459 0.37257 0.1991 0.0
C515 C 0.96503 0.37956 0.18079 0.0
C516 C 0.97527 0.39764 0.15162 0.0
C517 C -0.00451 0.40573 0.13876 0.0
C518 C 0.00545 0.4241 0.11069 0.0
C519 C -0.00434 0.43399 0.09514 0.0
C520 C 0.97586 0.42597 0.10724 0.0
C521 C 0.96571 0.40805 0.13519 0.0
H522 H 0.63923 0.05253 0.5718 0.0
C523 C 0.63001 0.05527 0.54479 0.0
H524 H 0.60637 0.04274 0.48965 0.0
H525 H 0.60526 0.96396 0.43555 0.0
H526 H 0.62351 0.98374 0.358 0.0
H527 H 0.63616 0.01992 0.35548 0.0
H528 H 0.63079 0.03657 0.43064 0.0
C529 C 0.61538 0.04005 0.5176 0.0
C530 C 0.61076 0.01911 0.52332 0.0
C531 C 0.61402 0.00963 0.47919 0.0
C532 C 0.60646 0.98874 0.48024 0.0
C533 C 0.61022 0.9797 0.43602 0.0
C534 C 0.62079 0.99091 0.39151 0.0
C535 C 0.62793 0.01128 0.39012 0.0
C536 C 0.62467 0.02063 0.43338 0.0
H537 H 0.56645 0.95551 0.45709 0.0
C538 C 0.5687 0.94635 0.48592 0.0
H539 H 0.58558 0.9463 0.5518 0.0
H540 H 0.6029 0.03276 0.61652 0.0
H541 H 0.58589 0.01318 0.695 0.0
H542 H 0.57315 0.977 0.69713 0.0
H543 H 0.57728 0.96021 0.62059 0.0
C544 C 0.58352 0.95514 0.52153 0.0
C545 C 0.59527 0.9773 0.52498 0.0
C546 C 0.59343 0.98701 0.57098 0.0
C547 C 0.60101 0.00794 0.57 0.0
C548 C 0.59788 0.01703 0.6153 0.0
C549 C 0.58803 0.00593 0.66065 0.0
C550 C 0.58084 0.98557 0.66184 0.0
C551 C 0.58334 0.97611 0.61755 0.0
H552 H 0.58663 0.64745 0.79617 0.0
C553 C 0.57207 0.63505 0.80567 0.0
H554 H 0.55543 0.60532 0.83264 0.0
H555 H 0.63004 0.59851 0.74576 0.0
H556 H 0.62318 0.60669 0.65702 0.0
H557 H 0.59907 0.61773 0.64541 0.0
H558 H 0.58202 0.62106 0.72218 0.0
C559 C 0.5699 0.61757 0.82171 0.0
C560 C 0.58669 0.61407 0.82803 0.0
C561 C 0.59622 0.61192 0.78228 0.0
C562 C 0.60947 0.6047 0.78857 0.0
C563 C 0.61929 0.60321 0.7427 0.0
C564 C 0.61559 0.60798 0.6917 0.0
C565 C 0.60205 0.61425 0.6852 0.0
C566 C 0.5924 0.61617 0.72976 0.0
H567 H 0.60019 0.56346 0.79687 0.0
C568 C 0.61312 0.56818 0.822 0.0
H569 H 0.63425 0.591 0.87171 0.0
H570 H 0.5735 0.61978 0.92424 0.0
H571 H 0.58093 0.61217 0.01289 0.0
H572 H 0.60283 0.59835 0.02341 0.0
H573 H 0.61754 0.59219 0.94558 0.0
C574 C 0.62171 0.58626 0.84513 0.0
C575 C 0.6124 0.59877 0.84005 0.0
C576 C 0.60423 0.60258 0.88615 0.0
C577 C 0.59138 0.61028 0.88007 0.0
C578 C 0.58314 0.61367 0.92664 0.0
C579 C 0.58733 0.60944 0.97771 0.0
C580 C 0.59968 0.60168 0.98363 0.0
C581 C 0.60802 0.5982 0.93855 0.0
H582 H 0.94679 0.58519 0.28341 0.0
C583 C 0.93679 0.58554 0.25386 0.0
H584 H 0.93439 0.59715 0.17943 0.0
H585 H 0.02897 0.6459 0.26603 0.0
H586 H 0.01771 0.65912 0.33717 0.0
H587 H 0.98268 0.64927 0.34425 0.0
H588 H 0.95863 0.6259 0.28057 0.0
C589 C 0.94421 0.59714 0.2101 0.0
C590 C 0.9657 0.60705 0.19841 0.0
C591 C 0.97968 0.62137 0.23442 0.0
C592 C -4e-05 0.6275 0.22936 0.0
C593 C 0.01345 0.64101 0.2675 0.0
C594 C 0.00718 0.6487 0.30852 0.0
C595 C 0.98744 0.64312 0.31258 0.0
C596 C 0.97379 0.62962 0.27606 0.0
H597 H 0.0403 0.65214 0.15611 0.0
C598 C 0.04209 0.63979 0.16877 0.0
H599 H 0.02805 0.61028 0.19796 0.0
H600 H 0.94317 0.58157 0.11767 0.0
H601 H 0.95482 0.5703 0.04313 0.0
H602 H -0.00987 0.5817 0.03308 0.0
H603 H 0.014 0.60443 0.09789 0.0
C604 C 0.02651 0.62293 0.1871 0.0
C605 C 0.00624 0.6197 0.18737 0.0
C606 C -0.00746 0.60686 0.14846 0.0
C607 C 0.97223 0.60051 0.15392 0.0
C608 C 0.9588 0.58709 0.11539 0.0
C609 C 0.96529 0.58047 0.07231 0.0
C610 C 0.98516 0.58687 0.06668 0.0
C611 C -0.00131 0.59987 0.10424 0.0
H612 H 0.39088 0.04846 0.47795 0.0
C613 C 0.40352 0.05101 0.50174 0.0
H614 H 0.416 0.03807 0.55058 0.0
H615 H 0.33931 0.95891 0.61092 0.0
H616 H 0.34257 0.97815 0.69126 0.0
H617 H 0.36621 0.01432 0.69416 0.0
H618 H 0.38661 0.0315 0.61663 0.0
C619 C 0.4036 0.0356 0.5258 0.0
C620 C 0.38711 0.01469 0.52058 0.0
C621 C 0.37533 0.0049 0.56611 0.0
C622 C 0.36196 0.98402 0.56477 0.0
C623 C 0.35011 0.97466 0.61049 0.0
C624 C 0.35173 0.98555 0.65663 0.0
C625 C 0.36503 0.00592 0.65824 0.0
C626 C 0.3767 0.01558 0.61359 0.0
H627 H 0.36922 0.95078 0.58048 0.0
C628 C 0.35718 0.94175 0.55308 0.0
H629 H 0.33883 0.94202 0.49161 0.0
H630 H 0.40648 0.02905 0.42458 0.0
H631 H 0.40217 0.01002 0.34357 0.0
H632 H 0.37872 0.97383 0.34108 0.0
H633 H 0.3595 0.95647 0.41977 0.0
C634 C 0.35039 0.95071 0.52052 0.0
C635 C 0.36072 0.97289 0.51827 0.0
C636 C 0.37126 0.98293 0.47119 0.0
C637 C 0.38463 0.00385 0.47245 0.0
C638 C 0.39583 0.01329 0.42577 0.0
C639 C 0.39357 0.00252 0.37893 0.0
C640 C 0.38037 0.98214 0.37755 0.0
C641 C 0.36941 0.97236 0.42308 0.0
H642 H 0.38747 0.34309 0.88283 0.0
C643 C 0.40068 0.35323 0.86051 0.0
H644 H 0.41494 0.37929 0.81305 0.0
H645 H 0.34094 0.38409 0.74563 0.0
H646 H 0.34414 0.36793 0.66577 0.0
H647 H 0.36656 0.35449 0.66493 0.0
H648 H 0.38579 0.35697 0.74406 0.0
C649 C 0.40195 0.36926 0.83628 0.0
C650 C 0.38613 0.3743 0.83993 0.0
C651 C 0.37505 0.37276 0.79346 0.0
C652 C 0.36239 0.38081 0.79362 0.0
C653 C 0.35121 0.37874 0.74699 0.0
C654 C 0.35279 0.36936 0.70111 0.0
C655 C 0.3654 0.36178 0.70065 0.0
C656 C 0.37641 0.36337 0.74622 0.0
H657 H 0.37146 0.42212 0.77785 0.0
C658 C 0.35936 0.41924 0.8046 0.0
H659 H 0.34005 0.40041 0.86499 0.0
H660 H 0.40426 0.37859 0.9374 0.0
H661 H 0.4 0.39351 0.01784 0.0
H662 H 0.37781 0.4072 0.01826 0.0
H663 H 0.35982 0.4061 0.93809 0.0
C664 C 0.35171 0.40317 0.83679 0.0
C665 C 0.3612 0.3908 0.8399 0.0
C666 C 0.37102 0.39088 0.88781 0.0
C667 C 0.38365 0.38278 0.88772 0.0
C668 C 0.39416 0.38411 0.93528 0.0
C669 C 0.39193 0.39273 0.9818 0.0
C670 C 0.37945 0.40045 0.98203 0.0
C671 C 0.36918 0.3997 0.93565 0.0
loop_
_geom_bond_atom_site_label_1
_geom_bond_atom_site_label_2
_geom_bond_distance
_geom_bond_site_symmetry_2
_ccdc_geom_bond_type
O0 Cd1 2.300 . S
O0 C7 1.275 . S
Cd1 O0 2.300 . S
Cd1 O9 2.381 . S
Cd1 O10 2.378 . S
O2 Cd3 2.385 . S
O2 C7 1.255 . S
Cd3 O2 2.385 . S
Cd3 O4 2.317 . S
O4 Cd3 2.317 . S
O4 C5 1.232 . S
C5 O4 1.232 . S
C5 O6 1.218 . S
O6 C5 1.218 . S
C7 O0 1.275 . S
C7 O2 1.255 . S
C8 O9 1.258 . S
C8 O10 1.256 . S
O9 Cd1 2.381 . S
O9 C8 1.258 . S
O10 Cd1 2.378 . S
O10 C8 1.256 . S
O11 Cd12 2.300 . S
O11 C18 1.275 . S
Cd12 O11 2.300 . S
Cd12 O20 2.381 . S
Cd12 O21 2.378 . S
O13 Cd14 2.385 . S
O13 C18 1.255 . S
Cd14 O13 2.385 . S
Cd14 O15 2.317 . S
O15 Cd14 2.317 . S
O15 C16 1.232 . S
C16 O15 1.232 . S
C16 O17 1.218 . S
O17 C16 1.218 . S
C18 O11 1.275 . S
C18 O13 1.255 . S
C19 O20 1.258 . S
C19 O21 1.256 . S
O20 Cd12 2.381 . S
O20 C19 1.258 . S
O21 Cd12 2.378 . S
O21 C19 1.256 . S
O22 Cd23 2.300 . S
O22 C29 1.275 . S
Cd23 O22 2.300 . S
Cd23 O31 2.381 . S
Cd23 O32 2.378 . S
O24 Cd25 2.385 . S
O24 C29 1.255 . S
Cd25 O24 2.385 . S
Cd25 O26 2.317 . S
O26 Cd25 2.317 . S
O26 C27 1.232 . S
C27 O26 1.232 . S
C27 O28 1.218 . S
O28 C27 1.218 . S
C29 O22 1.275 . S
C29 O24 1.255 . S
C30 O31 1.258 . S
C30 O32 1.256 . S
O31 Cd23 2.381 . S
O31 C30 1.258 . S
O32 Cd23 2.378 . S
O32 C30 1.256 . S
O33 Cd34 2.300 . S
O33 C40 1.275 . S
Cd34 O33 2.300 . S
Cd34 O42 2.381 . S
Cd34 O43 2.378 . S
O35 Cd36 2.385 . S
O35 C40 1.255 . S
Cd36 O35 2.385 . S
Cd36 O37 2.317 . S
O37 Cd36 2.317 . S
O37 C38 1.232 . S
C38 O37 1.232 . S
C38 O39 1.218 . S
O39 C38 1.218 . S
C40 O33 1.275 . S
C40 O35 1.255 . S
C41 O42 1.258 . S
C41 O43 1.256 . S
O42 Cd34 2.381 . S
O42 C41 1.258 . S
O43 Cd34 2.378 . S
O43 C41 1.256 . S
O44 Cd45 2.300 . S
O44 C51 1.275 . S
Cd45 O44 2.300 . S
Cd45 O53 2.381 . S
Cd45 O54 2.378 . S
O46 Cd47 2.385 . S
O46 C51 1.255 . S
Cd47 O46 2.385 . S
Cd47 O48 2.317 . S
O48 Cd47 2.317 . S
O48 C49 1.232 . S
C49 O48 1.232 . S
C49 O50 1.218 . S
O50 C49 1.218 . S
C51 O44 1.275 . S
C51 O46 1.255 . S
C52 O53 1.258 . S
C52 O54 1.256 . S
O53 Cd45 2.381 . S
O53 C52 1.258 . S
O54 Cd45 2.378 . S
O54 C52 1.256 . S
O55 Cd56 2.300 . S
O55 C62 1.275 . S
Cd56 O55 2.300 . S
Cd56 O64 2.381 . S
Cd56 O65 2.378 . S
O57 Cd58 2.385 . S
O57 C62 1.255 . S
Cd58 O57 2.385 . S
Cd58 O59 2.317 . S
O59 Cd58 2.317 . S
O59 C60 1.232 . S
C60 O59 1.232 . S
C60 O61 1.218 . S
O61 C60 1.218 . S
C62 O55 1.275 . S
C62 O57 1.255 . S
C63 O64 1.258 . S
C63 O65 1.256 . S
O64 Cd56 2.381 . S
O64 C63 1.258 . S
O65 Cd56 2.378 . S
O65 C63 1.256 . S
O66 Cd67 2.300 . S
O66 C73 1.275 . S
Cd67 O66 2.300 . S
Cd67 O75 2.381 . S
Cd67 O76 2.378 . S
O68 Cd69 2.385 . S
O68 C73 1.255 . S
Cd69 O68 2.385 . S
Cd69 O70 2.317 . S
O70 Cd69 2.317 . S
O70 C71 1.232 . S
C71 O70 1.232 . S
C71 O72 1.218 . S
O72 C71 1.218 . S
C73 O66 1.275 . S
C73 O68 1.255 . S
C74 O75 1.258 . S
C74 O76 1.256 . S
O75 Cd67 2.381 . S
O75 C74 1.258 . S
O76 Cd67 2.378 . S
O76 C74 1.256 . S
O77 Cd78 2.300 . S
O77 C84 1.275 . S
Cd78 O77 2.300 . S
Cd78 O86 2.381 . S
Cd78 O87 2.378 . S
O79 Cd80 2.385 . S
O79 C84 1.255 . S
Cd80 O79 2.385 . S
Cd80 O81 2.317 . S
O81 Cd80 2.317 . S
O81 C82 1.232 . S
C82 O81 1.232 . S
C82 O83 1.218 . S
O83 C82 1.218 . S
C84 O77 1.275 . S
C84 O79 1.255 . S
C85 O86 1.258 . S
C85 O87 1.256 . S
O86 Cd78 2.381 . S
O86 C85 1.258 . S
O87 Cd78 2.378 . S
O87 C85 1.256 . S
O88 Cd89 2.300 . S
O88 C95 1.275 . S
Cd89 O88 2.300 . S
Cd89 O97 2.381 . S
Cd89 O98 2.378 . S
O90 Cd91 2.385 . S
O90 C95 1.255 . S
Cd91 O90 2.385 . S
Cd91 O92 2.317 . S
O92 Cd91 2.317 . S
O92 C93 1.232 . S
C93 O92 1.232 . S
C93 O94 1.218 . S
O94 C93 1.218 . S
C95 O88 1.275 . S
C95 O90 1.255 . S
C96 O97 1.258 . S
C96 O98 1.256 . S
O97 Cd89 2.381 . S
O97 C96 1.258 . S
O98 Cd89 2.378 . S
O98 C96 1.256 . S
O99 Cd100 2.300 . S
O99 C106 1.275 . S
Cd100 O99 2.300 . S
Cd100 O108 2.381 . S
Cd100 O109 2.378 . S
O101 Cd102 2.385 . S
O101 C106 1.255 . S
Cd102 O101 2.385 . S
Cd102 O103 2.317 . S
O103 Cd102 2.317 . S
O103 C104 1.232 . S
C104 O103 1.232 . S
C104 O105 1.218 . S
O105 C104 1.218 . S
C106 O99 1.275 . S
C106 O101 1.255 . S
C107 O108 1.258 . S
C107 O109 1.256 . S
O108 Cd100 2.381 . S
O108 C107 1.258 . S
O109 Cd100 2.378 . S
O109 C107 1.256 . S
O110 Cd111 2.300 . S
O110 C117 1.275 . S
Cd111 O110 2.300 . S
Cd111 O119 2.381 . S
Cd111 O120 2.378 . S
O112 Cd113 2.385 . S
O112 C117 1.255 . S
Cd113 O112 2.385 . S
Cd113 O114 2.317 . S
O114 Cd113 2.317 . S
O114 C115 1.232 . S
C115 O114 1.232 . S
C115 O116 1.218 . S
O116 C115 1.218 . S
C117 O110 1.275 . S
C117 O112 1.255 . S
C118 O119 1.258 . S
C118 O120 1.256 . S
O119 Cd111 2.381 . S
O119 C118 1.258 . S
O120 Cd111 2.378 . S
O120 C118 1.256 . S
O121 Cd122 2.300 . S
O121 C128 1.275 . S
Cd122 O121 2.300 . S
Cd122 O130 2.381 . S
Cd122 O131 2.378 . S
O123 Cd124 2.385 . S
O123 C128 1.255 . S
Cd124 O123 2.385 . S
Cd124 O125 2.317 . S
O125 Cd124 2.317 . S
O125 C126 1.232 . S
C126 O125 1.232 . S
C126 O127 1.218 . S
O127 C126 1.218 . S
C128 O121 1.275 . S
C128 O123 1.255 . S
C129 O130 1.258 . S
C129 O131 1.256 . S
O130 Cd122 2.381 . S
O130 C129 1.258 . S
O131 Cd122 2.378 . S
O131 C129 1.256 . S
H132 C133 0.951 . S
C133 H132 0.951 . S
C133 C139 1.265 . S
H134 C139 0.950 . S
H135 C143 0.949 . S
H136 C144 0.950 . S
H137 C145 0.951 . S
H138 C146 0.951 . S
C139 C133 1.265 . S
C139 H134 0.950 . S
C139 C140 1.478 . S
C140 C139 1.478 . S
C140 C141 1.397 . S
C140 C157 1.394 . S
C141 C140 1.397 . S
C141 C142 1.438 1_556 S
C141 C146 1.429 . S
C142 C141 1.438 1_554 S
C142 C143 1.428 . S
C142 C155 1.394 . S
C143 H135 0.949 . S
C143 C142 1.428 . S
C143 C144 1.345 1_554 S
C144 H136 0.950 . S
C144 C143 1.345 1_556 S
C144 C145 1.424 . S
C145 H137 0.951 . S
C145 C144 1.424 . S
C145 C146 1.347 . S
C146 H138 0.951 . S
C146 C141 1.429 . S
C146 C145 1.347 . S
H147 C148 0.951 . S
C148 H147 0.951 . S
C148 C154 1.265 . S
H149 C154 0.950 . S
H150 C158 0.949 . S
H151 C159 0.950 . S
H152 C160 0.951 . S
H153 C161 0.951 . S
C154 C148 1.265 . S
C154 H149 0.950 . S
C154 C155 1.478 . S
C155 C142 1.394 . S
C155 C154 1.478 . S
C155 C156 1.397 . S
C156 C155 1.397 . S
C156 C157 1.438 1_554 S
C156 C161 1.429 . S
C157 C140 1.394 . S
C157 C156 1.438 1_556 S
C157 C158 1.428 . S
C158 H150 0.949 . S
C158 C157 1.428 . S
C158 C159 1.345 1_556 S
C159 H151 0.950 . S
C159 C158 1.345 1_554 S
C159 C160 1.424 . S
C160 H152 0.951 . S
C160 C159 1.424 . S
C160 C161 1.347 . S
C161 H153 0.951 . S
C161 C156 1.429 . S
C161 C160 1.347 . S
H162 C163 0.951 . S
C163 H162 0.951 . S
C163 C169 1.265 . S
H164 C169 0.950 . S
H165 C173 0.949 . S
H166 C174 0.950 . S
H167 C175 0.951 . S
H168 C176 0.951 . S
C169 C163 1.265 . S
C169 H164 0.950 . S
C169 C170 1.478 . S
C170 C169 1.478 . S
C170 C171 1.397 . S
C170 C187 1.394 . S
C171 C170 1.397 . S
C171 C172 1.438 . S
C171 C176 1.429 . S
C172 C171 1.438 . S
C172 C173 1.428 . S
C172 C185 1.394 . S
C173 H165 0.949 . S
C173 C172 1.428 . S
C173 C174 1.345 . S
C174 H166 0.950 . S
C174 C173 1.345 . S
C174 C175 1.424 . S
C175 H167 0.951 . S
C175 C174 1.424 . S
C175 C176 1.347 . S
C176 H168 0.951 . S
C176 C171 1.429 . S
C176 C175 1.347 . S
H177 C178 0.951 . S
C178 H177 0.951 . S
C178 C184 1.265 . S
H179 C184 0.950 . S
H180 C188 0.949 . S
H181 C189 0.950 . S
H182 C190 0.951 . S
H183 C191 0.951 . S
C184 C178 1.265 . S
C184 H179 0.950 . S
C184 C185 1.478 . S
C185 C172 1.394 . S
C185 C184 1.478 . S
C185 C186 1.397 . S
C186 C185 1.397 . S
C186 C187 1.438 . S
C186 C191 1.429 . S
C187 C170 1.394 . S
C187 C186 1.438 . S
C187 C188 1.428 . S
C188 H180 0.949 . S
C188 C187 1.428 . S
C188 C189 1.345 . S
C189 H181 0.950 . S
C189 C188 1.345 . S
C189 C190 1.424 . S
C190 H182 0.951 . S
C190 C189 1.424 . S
C190 C191 1.347 . S
C191 H183 0.951 . S
C191 C186 1.429 . S
C191 C190 1.347 . S
H192 C193 0.951 . S
C193 H192 0.951 . S
C193 C199 1.265 . S
H194 C199 0.950 . S
H195 C203 0.949 . S
H196 C204 0.950 . S
H197 C205 0.951 . S
H198 C206 0.951 . S
C199 C193 1.265 . S
C199 H194 0.950 . S
C199 C200 1.478 . S
C200 C199 1.478 . S
C200 C201 1.397 . S
C200 C217 1.394 . S
C201 C200 1.397 . S
C201 C202 1.438 . S
C201 C206 1.429 . S
C202 C201 1.438 . S
C202 C203 1.428 . S
C202 C215 1.394 . S
C203 H195 0.949 . S
C203 C202 1.428 . S
C203 C204 1.345 . S
C204 H196 0.950 . S
C204 C203 1.345 . S
C204 C205 1.424 . S
C205 H197 0.951 . S
C205 C204 1.424 . S
C205 C206 1.347 . S
C206 H198 0.951 . S
C206 C201 1.429 . S
C206 C205 1.347 . S
H207 C208 0.951 . S
C208 H207 0.951 . S
C208 C214 1.265 . S
H209 C214 0.950 . S
H210 C218 0.949 . S
H211 C219 0.950 . S
H212 C220 0.951 . S
H213 C221 0.951 . S
C214 C208 1.265 . S
C214 H209 0.950 . S
C214 C215 1.478 . S
C215 C202 1.394 . S
C215 C214 1.478 . S
C215 C216 1.397 . S
C216 C215 1.397 . S
C216 C217 1.438 . S
C216 C221 1.429 . S
C217 C200 1.394 . S
C217 C216 1.438 . S
C217 C218 1.428 . S
C218 H210 0.949 . S
C218 C217 1.428 . S
C218 C219 1.345 . S
C219 H211 0.950 . S
C219 C218 1.345 . S
C219 C220 1.424 . S
C220 H212 0.951 . S
C220 C219 1.424 . S
C220 C221 1.347 . S
C221 H213 0.951 . S
C221 C216 1.429 . S
C221 C220 1.347 . S
H222 C223 0.951 . S
C223 H222 0.951 . S
C223 C229 1.265 . S
H224 C229 0.950 . S
H225 C233 0.949 . S
H226 C234 0.950 . S
H227 C235 0.951 . S
H228 C236 0.951 . S
C229 C223 1.265 . S
C229 H224 0.950 . S
C229 C230 1.478 . S
C230 C229 1.478 . S
C230 C231 1.397 . S
C230 C247 1.394 . S
C231 C230 1.397 . S
C231 C232 1.438 1_556 S
C231 C236 1.429 . S
C232 C231 1.438 1_554 S
C232 C233 1.428 . S
C232 C245 1.394 . S
C233 H225 0.949 . S
C233 C232 1.428 . S
C233 C234 1.345 1_554 S
C234 H226 0.950 . S
C234 C233 1.345 1_556 S
C234 C235 1.424 . S
C235 H227 0.951 . S
C235 C234 1.424 . S
C235 C236 1.347 . S
C236 H228 0.951 . S
C236 C231 1.429 . S
C236 C235 1.347 . S
H237 C238 0.951 . S
C238 H237 0.951 . S
C238 C244 1.265 . S
H239 C244 0.950 . S
H240 C248 0.949 . S
H241 C249 0.950 . S
H242 C250 0.951 . S
H243 C251 0.951 . S
C244 C238 1.265 . S
C244 H239 0.950 . S
C244 C245 1.478 . S
C245 C232 1.394 . S
C245 C244 1.478 . S
C245 C246 1.397 . S
C246 C245 1.397 . S
C246 C247 1.438 1_554 S
C246 C251 1.429 . S
C247 C230 1.394 . S
C247 C246 1.438 1_556 S
C247 C248 1.428 . S
C248 H240 0.949 . S
C248 C247 1.428 . S
C248 C249 1.345 1_556 S
C249 H241 0.950 . S
C249 C248 1.345 1_554 S
C249 C250 1.424 . S
C250 H242 0.951 . S
C250 C249 1.424 . S
C250 C251 1.347 . S
C251 H243 0.951 . S
C251 C246 1.429 . S
C251 C250 1.347 . S
H252 C253 0.951 . S
C253 H252 0.951 . S
C253 C259 1.265 . S
H254 C259 0.950 . S
H255 C263 0.949 . S
H256 C264 0.950 . S
H257 C265 0.951 . S
H258 C266 0.951 . S
C259 C253 1.265 . S
C259 H254 0.950 . S
C259 C260 1.478 . S
C260 C259 1.478 . S
C260 C261 1.397 . S
C260 C277 1.394 . S
C261 C260 1.397 . S
C261 C262 1.438 . S
C261 C266 1.429 . S
C262 C261 1.438 . S
C262 C263 1.428 . S
C262 C275 1.394 . S
C263 H255 0.949 . S
C263 C262 1.428 . S
C263 C264 1.345 . S
C264 H256 0.950 . S
C264 C263 1.345 . S
C264 C265 1.424 . S
C265 H257 0.951 . S
C265 C264 1.424 . S
C265 C266 1.347 . S
C266 H258 0.951 . S
C266 C261 1.429 . S
C266 C265 1.347 . S
H267 C268 0.951 . S
C268 H267 0.951 . S
C268 C274 1.265 . S
H269 C274 0.950 . S
H270 C278 0.949 . S
H271 C279 0.950 . S
H272 C280 0.951 . S
H273 C281 0.951 . S
C274 C268 1.265 . S
C274 H269 0.950 . S
C274 C275 1.478 . S
C275 C262 1.394 . S
C275 C274 1.478 . S
C275 C276 1.397 . S
C276 C275 1.397 . S
C276 C277 1.438 . S
C276 C281 1.429 . S
C277 C260 1.394 . S
C277 C276 1.438 . S
C277 C278 1.428 . S
C278 H270 0.949 . S
C278 C277 1.428 . S
C278 C279 1.345 . S
C279 H271 0.950 . S
C279 C278 1.345 . S
C279 C280 1.424 . S
C280 H272 0.951 . S
C280 C279 1.424 . S
C280 C281 1.347 . S
C281 H273 0.951 . S
C281 C276 1.429 . S
C281 C280 1.347 . S
H282 C283 0.951 . S
C283 H282 0.951 . S
C283 C289 1.265 . S
H284 C289 0.950 . S
H285 C293 0.949 . S
H286 C294 0.950 . S
H287 C295 0.951 . S
H288 C296 0.951 . S
C289 C283 1.265 . S
C289 H284 0.950 . S
C289 C290 1.478 . S
C290 C289 1.478 . S
C290 C291 1.397 . S
C290 C307 1.394 . S
C291 C290 1.397 . S
C291 C292 1.438 . S
C291 C296 1.429 . S
C292 C291 1.438 . S
C292 C293 1.428 . S
C292 C305 1.394 . S
C293 H285 0.949 . S
C293 C292 1.428 . S
C293 C294 1.345 . S
C294 H286 0.950 . S
C294 C293 1.345 . S
C294 C295 1.424 . S
C295 H287 0.951 . S
C295 C294 1.424 . S
C295 C296 1.347 . S
C296 H288 0.951 . S
C296 C291 1.429 . S
C296 C295 1.347 . S
H297 C298 0.951 . S
C298 H297 0.951 . S
C298 C304 1.265 . S
H299 C304 0.950 . S
H300 C308 0.949 . S
H301 C309 0.950 . S
H302 C310 0.951 . S
H303 C311 0.951 . S
C304 C298 1.265 . S
C304 H299 0.950 . S
C304 C305 1.478 . S
C305 C292 1.394 . S
C305 C304 1.478 . S
C305 C306 1.397 . S
C306 C305 1.397 . S
C306 C307 1.438 . S
C306 C311 1.429 . S
C307 C290 1.394 . S
C307 C306 1.438 . S
C307 C308 1.428 . S
C308 H300 0.949 . S
C308 C307 1.428 . S
C308 C309 1.345 . S
C309 H301 0.950 . S
C309 C308 1.345 . S
C309 C310 1.424 . S
C310 H302 0.951 . S
C310 C309 1.424 . S
C310 C311 1.347 . S
C311 H303 0.951 . S
C311 C306 1.429 . S
C311 C310 1.347 . S
H312 C313 0.951 . S
C313 H312 0.951 . S
C313 C319 1.265 . S
H314 C319 0.950 . S
H315 C323 0.949 . S
H316 C324 0.950 . S
H317 C325 0.951 . S
H318 C326 0.951 . S
C319 C313 1.265 . S
C319 H314 0.950 . S
C319 C320 1.478 . S
C320 C319 1.478 . S
C320 C321 1.397 . S
C320 C337 1.394 . S
C321 C320 1.397 . S
C321 C322 1.438 . S
C321 C326 1.429 . S
C322 C321 1.438 . S
C322 C323 1.428 . S
C322 C335 1.394 . S
C323 H315 0.949 . S
C323 C322 1.428 . S
C323 C324 1.345 . S
C324 H316 0.950 . S
C324 C323 1.345 . S
C324 C325 1.424 . S
C325 H317 0.951 . S
C325 C324 1.424 . S
C325 C326 1.347 . S
C326 H318 0.951 . S
C326 C321 1.429 . S
C326 C325 1.347 . S
H327 C328 0.951 . S
C328 H327 0.951 . S
C328 C334 1.265 . S
H329 C334 0.950 . S
H330 C338 0.949 . S
H331 C339 0.950 1_556 S
H332 C340 0.951 1_556 S
H333 C341 0.951 . S
C334 C328 1.265 . S
C334 H329 0.950 . S
C334 C335 1.478 . S
C335 C322 1.394 . S
C335 C334 1.478 . S
C335 C336 1.397 . S
C336 C335 1.397 . S
C336 C337 1.438 . S
C336 C341 1.429 . S
C337 C320 1.394 . S
C337 C336 1.438 . S
C337 C338 1.428 . S
C338 H330 0.949 . S
C338 C337 1.428 . S
C338 C339 1.345 . S
C339 H331 0.950 1_554 S
C339 C338 1.345 . S
C339 C340 1.424 . S
C340 H332 0.951 1_554 S
C340 C339 1.424 . S
C340 C341 1.347 . S
C341 H333 0.951 . S
C341 C336 1.429 . S
C341 C340 1.347 . S
H342 C343 0.951 . S
C343 H342 0.951 . S
C343 C349 1.265 . S
H344 C349 0.950 . S
H345 C353 0.949 . S
H346 C354 0.950 . S
H347 C355 0.951 . S
H348 C356 0.951 . S
C349 C343 1.265 . S
C349 H344 0.950 . S
C349 C350 1.478 . S
C350 C349 1.478 . S
C350 C351 1.397 . S
C350 C367 1.394 . S
C351 C350 1.397 . S
C351 C352 1.438 . S
C351 C356 1.429 . S
C352 C351 1.438 . S
C352 C353 1.428 . S
C352 C365 1.394 . S
C353 H345 0.949 . S
C353 C352 1.428 . S
C353 C354 1.345 . S
C354 H346 0.950 . S
C354 C353 1.345 . S
C354 C355 1.424 . S
C355 H347 0.951 . S
C355 C354 1.424 . S
C355 C356 1.347 . S
C356 H348 0.951 . S
C356 C351 1.429 . S
C356 C355 1.347 . S
H357 C358 0.951 . S
C358 H357 0.951 . S
C358 C364 1.265 . S
H359 C364 0.950 . S
H360 C368 0.949 . S
H361 C369 0.950 . S
H362 C370 0.951 . S
H363 C371 0.951 . S
C364 C358 1.265 . S
C364 H359 0.950 . S
C364 C365 1.478 . S
C365 C352 1.394 . S
C365 C364 1.478 . S
C365 C366 1.397 . S
C366 C365 1.397 . S
C366 C367 1.438 . S
C366 C371 1.429 . S
C367 C350 1.394 . S
C367 C366 1.438 . S
C367 C368 1.428 . S
C368 H360 0.949 . S
C368 C367 1.428 . S
C368 C369 1.345 . S
C369 H361 0.950 . S
C369 C368 1.345 . S
C369 C370 1.424 . S
C370 H362 0.951 . S
C370 C369 1.424 . S
C370 C371 1.347 . S
C371 H363 0.951 . S
C371 C366 1.429 . S
C371 C370 1.347 . S
H372 C373 0.951 . S
C373 H372 0.951 . S
C373 C379 1.265 . S
H374 C379 0.950 . S
H375 C383 0.949 . S
H376 C384 0.950 . S
H377 C385 0.951 . S
H378 C386 0.951 . S
C379 C373 1.265 . S
C379 H374 0.950 . S
C379 C380 1.478 . S
C380 C379 1.478 . S
C380 C381 1.397 . S
C380 C397 1.394 . S
C381 C380 1.397 . S
C381 C382 1.438 . S
C381 C386 1.429 . S
C382 C381 1.438 . S
C382 C383 1.428 . S
C382 C395 1.394 . S
C383 H375 0.949 . S
C383 C382 1.428 . S
C383 C384 1.345 . S
C384 H376 0.950 . S
C384 C383 1.345 . S
C384 C385 1.424 . S
C385 H377 0.951 . S
C385 C384 1.424 . S
C385 C386 1.347 . S
C386 H378 0.951 . S
C386 C381 1.429 . S
C386 C385 1.347 . S
H387 C388 0.951 . S
C388 H387 0.951 . S
C388 C394 1.265 . S
H389 C394 0.950 . S
H390 C398 0.949 . S
H391 C399 0.950 . S
H392 C400 0.951 . S
H393 C401 0.951 . S
C394 C388 1.265 . S
C394 H389 0.950 . S
C394 C395 1.478 . S
C395 C382 1.394 . S
C395 C394 1.478 . S
C395 C396 1.397 . S
C396 C395 1.397 . S
C396 C397 1.438 . S
C396 C401 1.429 . S
C397 C380 1.394 . S
C397 C396 1.438 . S
C397 C398 1.428 . S
C398 H390 0.949 . S
C398 C397 1.428 . S
C398 C399 1.345 . S
C399 H391 0.950 . S
C399 C398 1.345 . S
C399 C400 1.424 . S
C400 H392 0.951 . S
C400 C399 1.424 . S
C400 C401 1.347 . S
C401 H393 0.951 . S
C401 C396 1.429 . S
C401 C400 1.347 . S
H402 C403 0.951 . S
C403 H402 0.951 . S
C403 C409 1.265 . S
H404 C409 0.950 . S
H405 C413 0.949 . S
H406 C414 0.950 . S
H407 C415 0.951 1_556 S
H408 C416 0.951 . S
C409 C403 1.265 . S
C409 H404 0.950 . S
C409 C410 1.478 . S
C410 C409 1.478 . S
C410 C411 1.397 . S
C410 C427 1.394 . S
C411 C410 1.397 . S
C411 C412 1.438 . S
C411 C416 1.429 . S
C412 C411 1.438 . S
C412 C413 1.428 . S
C412 C425 1.394 . S
C413 H405 0.949 . S
C413 C412 1.428 . S
C413 C414 1.345 . S
C414 H406 0.950 . S
C414 C413 1.345 . S
C414 C415 1.424 . S
C415 H407 0.951 1_554 S
C415 C414 1.424 . S
C415 C416 1.347 . S
C416 H408 0.951 . S
C416 C411 1.429 . S
C416 C415 1.347 . S
H417 C418 0.951 . S
C418 H417 0.951 . S
C418 C424 1.265 . S
H419 C424 0.950 . S
H420 C428 0.949 . S
H421 C429 0.950 . S
H422 C430 0.951 . S
H423 C431 0.951 . S
C424 C418 1.265 . S
C424 H419 0.950 . S
C424 C425 1.478 . S
C425 C412 1.394 . S
C425 C424 1.478 . S
C425 C426 1.397 . S
C426 C425 1.397 . S
C426 C427 1.438 . S
C426 C431 1.429 . S
C427 C410 1.394 . S
C427 C426 1.438 . S
C427 C428 1.428 . S
C428 H420 0.949 . S
C428 C427 1.428 . S
C428 C429 1.345 . S
C429 H421 0.950 . S
C429 C428 1.345 . S
C429 C430 1.424 . S
C430 H422 0.951 . S
C430 C429 1.424 . S
C430 C431 1.347 . S
C431 H423 0.951 . S
C431 C426 1.429 . S
C431 C430 1.347 . S
H432 C433 0.951 . S
C433 H432 0.951 . S
C433 C439 1.265 . S
H434 C439 0.950 . S
H435 C443 0.949 . S
H436 C444 0.950 . S
H437 C445 0.951 . S
H438 C446 0.951 . S
C439 C433 1.265 . S
C439 H434 0.950 . S
C439 C440 1.478 . S
C440 C439 1.478 . S
C440 C441 1.397 . S
C440 C457 1.394 . S
C441 C440 1.397 . S
C441 C442 1.438 . S
C441 C446 1.429 . S
C442 C441 1.438 . S
C442 C443 1.428 . S
C442 C455 1.394 . S
C443 H435 0.949 . S
C443 C442 1.428 . S
C443 C444 1.345 . S
C444 H436 0.950 . S
C444 C443 1.345 . S
C444 C445 1.424 . S
C445 H437 0.951 . S
C445 C444 1.424 . S
C445 C446 1.347 . S
C446 H438 0.951 . S
C446 C441 1.429 . S
C446 C445 1.347 . S
H447 C448 0.951 . S
C448 H447 0.951 . S
C448 C454 1.265 . S
H449 C454 0.950 . S
H450 C458 0.949 . S
H451 C459 0.950 . S
H452 C460 0.951 . S
H453 C461 0.951 . S
C454 C448 1.265 . S
C454 H449 0.950 . S
C454 C455 1.478 . S
C455 C442 1.394 . S
C455 C454 1.478 . S
C455 C456 1.397 . S
C456 C455 1.397 . S
C456 C457 1.438 . S
C456 C461 1.429 . S
C457 C440 1.394 . S
C457 C456 1.438 . S
C457 C458 1.428 . S
C458 H450 0.949 . S
C458 C457 1.428 . S
C458 C459 1.345 . S
C459 H451 0.950 . S
C459 C458 1.345 . S
C459 C460 1.424 . S
C460 H452 0.951 . S
C460 C459 1.424 . S
C460 C461 1.347 . S
C461 H453 0.951 . S
C461 C456 1.429 . S
C461 C460 1.347 . S
H462 C463 0.951 . S
C463 H462 0.951 . S
C463 C469 1.265 . S
H464 C469 0.950 . S
H465 C473 0.949 . S
H466 C474 0.950 . S
H467 C475 0.951 . S
H468 C476 0.951 . S
C469 C463 1.265 . S
C469 H464 0.950 . S
C469 C470 1.478 . S
C470 C469 1.478 . S
C470 C471 1.397 . S
C470 C487 1.394 . S
C471 C470 1.397 . S
C471 C472 1.438 . S
C471 C476 1.429 . S
C472 C471 1.438 . S
C472 C473 1.428 . S
C472 C485 1.394 . S
C473 H465 0.949 . S
C473 C472 1.428 . S
C473 C474 1.345 . S
C474 H466 0.950 . S
C474 C473 1.345 . S
C474 C475 1.424 . S
C475 H467 0.951 . S
C475 C474 1.424 . S
C475 C476 1.347 . S
C476 H468 0.951 . S
C476 C471 1.429 . S
C476 C475 1.347 . S
H477 C478 0.951 . S
C478 H477 0.951 . S
C478 C484 1.265 . S
H479 C484 0.950 . S
H480 C488 0.949 . S
H481 C489 0.950 . S
H482 C490 0.951 . S
H483 C491 0.951 . S
C484 C478 1.265 . S
C484 H479 0.950 . S
C484 C485 1.478 . S
C485 C472 1.394 . S
C485 C484 1.478 . S
C485 C486 1.397 . S
C486 C485 1.397 . S
C486 C487 1.438 . S
C486 C491 1.429 . S
C487 C470 1.394 . S
C487 C486 1.438 . S
C487 C488 1.428 . S
C488 H480 0.949 . S
C488 C487 1.428 . S
C488 C489 1.345 . S
C489 H481 0.950 . S
C489 C488 1.345 . S
C489 C490 1.424 . S
C490 H482 0.951 . S
C490 C489 1.424 . S
C490 C491 1.347 . S
C491 H483 0.951 . S
C491 C486 1.429 . S
C491 C490 1.347 . S
H492 C493 0.951 . S
C493 H492 0.951 . S
C493 C499 1.265 . S
H494 C499 0.950 . S
H495 C503 0.949 . S
H496 C504 0.950 . S
H497 C505 0.951 . S
H498 C506 0.951 . S
C499 C493 1.265 . S
C499 H494 0.950 . S
C499 C500 1.478 . S
C500 C499 1.478 . S
C500 C501 1.397 . S
C500 C517 1.394 . S
C501 C500 1.397 . S
C501 C502 1.438 1_455 S
C501 C506 1.429 . S
C502 C501 1.438 1_655 S
C502 C503 1.428 . S
C502 C515 1.394 . S
C503 H495 0.949 . S
C503 C502 1.428 . S
C503 C504 1.345 . S
C504 H496 0.950 . S
C504 C503 1.345 . S
C504 C505 1.424 1_655 S
C505 H497 0.951 . S
C505 C504 1.424 1_455 S
C505 C506 1.347 . S
C506 H498 0.951 . S
C506 C501 1.429 . S
C506 C505 1.347 . S
H507 C508 0.951 . S
C508 H507 0.951 . S
C508 C514 1.265 . S
H509 C514 0.950 . S
H510 C518 0.949 . S
H511 C519 0.950 . S
H512 C520 0.951 . S
H513 C521 0.951 . S
C514 C508 1.265 . S
C514 H509 0.950 . S
C514 C515 1.478 . S
C515 C502 1.394 . S
C515 C514 1.478 . S
C515 C516 1.397 . S
C516 C515 1.397 . S
C516 C517 1.438 1_655 S
C516 C521 1.429 . S
C517 C500 1.394 . S
C517 C516 1.438 1_455 S
C517 C518 1.428 . S
C518 H510 0.949 . S
C518 C517 1.428 . S
C518 C519 1.345 . S
C519 H511 0.950 . S
C519 C518 1.345 . S
C519 C520 1.424 1_455 S
C520 H512 0.951 . S
C520 C519 1.424 1_655 S
C520 C521 1.347 . S
C521 H513 0.951 . S
C521 C516 1.429 . S
C521 C520 1.347 . S
H522 C523 0.951 . S
C523 H522 0.951 . S
C523 C529 1.265 . S
H524 C529 0.950 . S
H525 C533 0.949 . S
H526 C534 0.950 . S
H527 C535 0.951 . S
H528 C536 0.951 . S
C529 C523 1.265 . S
C529 H524 0.950 . S
C529 C530 1.478 . S
C530 C529 1.478 . S
C530 C531 1.397 . S
C530 C547 1.394 . S
C531 C530 1.397 . S
C531 C532 1.438 1_545 S
C531 C536 1.429 . S
C532 C531 1.438 1_565 S
C532 C533 1.428 . S
C532 C545 1.394 . S
C533 H525 0.949 . S
C533 C532 1.428 . S
C533 C534 1.345 . S
C534 H526 0.950 . S
C534 C533 1.345 . S
C534 C535 1.424 1_565 S
C535 H527 0.951 . S
C535 C534 1.424 1_545 S
C535 C536 1.347 . S
C536 H528 0.951 . S
C536 C531 1.429 . S
C536 C535 1.347 . S
H537 C538 0.951 . S
C538 H537 0.951 . S
C538 C544 1.265 . S
H539 C544 0.950 . S
H540 C548 0.949 . S
H541 C549 0.950 . S
H542 C550 0.951 . S
H543 C551 0.951 . S
C544 C538 1.265 . S
C544 H539 0.950 . S
C544 C545 1.478 . S
C545 C532 1.394 . S
C545 C544 1.478 . S
C545 C546 1.397 . S
C546 C545 1.397 . S
C546 C547 1.438 1_565 S
C546 C551 1.429 . S
C547 C530 1.394 . S
C547 C546 1.438 1_545 S
C547 C548 1.428 . S
C548 H540 0.949 . S
C548 C547 1.428 . S
C548 C549 1.345 . S
C549 H541 0.950 . S
C549 C548 1.345 . S
C549 C550 1.424 1_545 S
C550 H542 0.951 . S
C550 C549 1.424 1_565 S
C550 C551 1.347 . S
C551 H543 0.951 . S
C551 C546 1.429 . S
C551 C550 1.347 . S
H552 C553 0.951 . S
C553 H552 0.951 . S
C553 C559 1.265 . S
H554 C559 0.950 . S
H555 C563 0.949 . S
H556 C564 0.950 . S
H557 C565 0.951 . S
H558 C566 0.951 . S
C559 C553 1.265 . S
C559 H554 0.950 . S
C559 C560 1.478 . S
C560 C559 1.478 . S
C560 C561 1.397 . S
C560 C577 1.394 . S
C561 C560 1.397 . S
C561 C562 1.438 . S
C561 C566 1.429 . S
C562 C561 1.438 . S
C562 C563 1.428 . S
C562 C575 1.394 . S
C563 H555 0.949 . S
C563 C562 1.428 . S
C563 C564 1.345 . S
C564 H556 0.950 . S
C564 C563 1.345 . S
C564 C565 1.424 . S
C565 H557 0.951 . S
C565 C564 1.424 . S
C565 C566 1.347 . S
C566 H558 0.951 . S
C566 C561 1.429 . S
C566 C565 1.347 . S
H567 C568 0.951 . S
C568 H567 0.951 . S
C568 C574 1.265 . S
H569 C574 0.950 . S
H570 C578 0.949 . S
H571 C579 0.950 1_554 S
H572 C580 0.951 1_554 S
H573 C581 0.951 . S
C574 C568 1.265 . S
C574 H569 0.950 . S
C574 C575 1.478 . S
C575 C562 1.394 . S
C575 C574 1.478 . S
C575 C576 1.397 . S
C576 C575 1.397 . S
C576 C577 1.438 . S
C576 C581 1.429 . S
C577 C560 1.394 . S
C577 C576 1.438 . S
C577 C578 1.428 . S
C578 H570 0.949 . S
C578 C577 1.428 . S
C578 C579 1.345 . S
C579 H571 0.950 1_556 S
C579 C578 1.345 . S
C579 C580 1.424 . S
C580 H572 0.951 1_556 S
C580 C579 1.424 . S
C580 C581 1.347 . S
C581 H573 0.951 . S
C581 C576 1.429 . S
C581 C580 1.347 . S
H582 C583 0.951 . S
C583 H582 0.951 . S
C583 C589 1.265 . S
H584 C589 0.950 . S
H585 C593 0.949 . S
H586 C594 0.950 . S
H587 C595 0.951 . S
H588 C596 0.951 . S
C589 C583 1.265 . S
C589 H584 0.950 . S
C589 C590 1.478 . S
C590 C589 1.478 . S
C590 C591 1.397 . S
C590 C607 1.394 . S
C591 C590 1.397 . S
C591 C592 1.438 1_655 S
C591 C596 1.429 . S
C592 C591 1.438 1_455 S
C592 C593 1.428 . S
C592 C605 1.394 . S
C593 H585 0.949 . S
C593 C592 1.428 . S
C593 C594 1.345 . S
C594 H586 0.950 . S
C594 C593 1.345 . S
C594 C595 1.424 1_455 S
C595 H587 0.951 . S
C595 C594 1.424 1_655 S
C595 C596 1.347 . S
C596 H588 0.951 . S
C596 C591 1.429 . S
C596 C595 1.347 . S
H597 C598 0.951 . S
C598 H597 0.951 . S
C598 C604 1.265 . S
H599 C604 0.950 . S
H600 C608 0.949 . S
H601 C609 0.950 . S
H602 C610 0.935 1_556 S
H603 C611 0.951 . S
C604 C598 1.265 . S
C604 H599 0.950 . S
C604 C605 1.478 . S
C605 C592 1.394 . S
C605 C604 1.478 . S
C605 C606 1.397 . S
C606 C605 1.397 . S
C606 C607 1.438 1_455 S
C606 C611 1.429 . S
C607 C590 1.394 . S
C607 C606 1.438 1_655 S
C607 C608 1.428 . S
C608 H600 0.949 . S
C608 C607 1.428 . S
C608 C609 1.345 . S
C609 H601 0.950 . S
C609 C608 1.345 . S
C609 C610 1.424 1_655 S
C610 H602 0.935 1_554 S
C610 C609 1.424 1_455 S
C610 C611 1.347 . S
C611 H603 0.951 . S
C611 C606 1.429 . S
C611 C610 1.347 . S
H612 C613 0.951 . S
C613 H612 0.951 . S
C613 C619 1.265 . S
H614 C619 0.950 . S
H615 C623 0.949 . S
H616 C624 0.950 . S
H617 C625 0.951 . S
H618 C626 0.951 . S
C619 C613 1.265 . S
C619 H614 0.950 . S
C619 C620 1.478 . S
C620 C619 1.478 . S
C620 C621 1.397 . S
C620 C637 1.394 . S
C621 C620 1.397 . S
C621 C622 1.438 1_545 S
C621 C626 1.429 . S
C622 C621 1.438 1_565 S
C622 C623 1.428 . S
C622 C635 1.394 . S
C623 H615 0.949 . S
C623 C622 1.428 . S
C623 C624 1.345 . S
C624 H616 0.950 . S
C624 C623 1.345 . S
C624 C625 1.424 1_565 S
C625 H617 0.951 . S
C625 C624 1.424 1_545 S
C625 C626 1.347 . S
C626 H618 0.951 . S
C626 C621 1.429 . S
C626 C625 1.347 . S
H627 C628 0.951 . S
C628 H627 0.951 . S
C628 C634 1.265 . S
H629 C634 0.950 . S
H630 C638 0.949 . S
H631 C639 0.950 . S
H632 C640 0.951 . S
H633 C641 0.951 . S
C634 C628 1.265 . S
C634 H629 0.950 . S
C634 C635 1.478 . S
C635 C622 1.394 . S
C635 C634 1.478 . S
C635 C636 1.397 . S
C636 C635 1.397 . S
C636 C637 1.438 1_565 S
C636 C641 1.429 . S
C637 C620 1.394 . S
C637 C636 1.438 1_545 S
C637 C638 1.428 . S
C638 H630 0.949 . S
C638 C637 1.428 . S
C638 C639 1.345 . S
C639 H631 0.950 . S
C639 C638 1.345 . S
C639 C640 1.424 1_545 S
C640 H632 0.951 . S
C640 C639 1.424 1_565 S
C640 C641 1.347 . S
C641 H633 0.951 . S
C641 C636 1.429 . S
C641 C640 1.347 . S
H642 C643 0.951 . S
C643 H642 0.951 . S
C643 C649 1.265 . S
H644 C649 0.950 . S
H645 C653 0.949 . S
H646 C654 0.950 . S
H647 C655 0.951 . S
H648 C656 0.951 . S
C649 C643 1.265 . S
C649 H644 0.950 . S
C649 C650 1.478 . S
C650 C649 1.478 . S
C650 C651 1.397 . S
C650 C667 1.394 . S
C651 C650 1.397 . S
C651 C652 1.438 . S
C651 C656 1.429 . S
C652 C651 1.438 . S
C652 C653 1.428 . S
C652 C665 1.394 . S
C653 H645 0.949 . S
C653 C652 1.428 . S
C653 C654 1.345 . S
C654 H646 0.950 . S
C654 C653 1.345 . S
C654 C655 1.424 . S
C655 H647 0.951 . S
C655 C654 1.424 . S
C655 C656 1.347 . S
C656 H648 0.951 . S
C656 C651 1.429 . S
C656 C655 1.347 . S
H657 C658 0.951 . S
C658 H657 0.951 . S
C658 C664 1.265 . S
H659 C664 0.950 . S
H660 C668 0.949 . S
H661 C669 0.950 . S
H662 C670 0.951 . S
H663 C671 0.951 . S
C664 C658 1.265 . S
C664 H659 0.950 . S
C664 C665 1.478 . S
C665 C652 1.394 . S
C665 C664 1.478 . S
C665 C666 1.397 . S
C666 C665 1.397 . S
C666 C667 1.438 . S
C666 C671 1.429 . S
C667 C650 1.394 . S
C667 C666 1.438 . S
C667 C668 1.428 . S
C668 H660 0.949 . S
C668 C667 1.428 . S
C668 C669 1.345 . S
C669 H661 0.950 . S
C669 C668 1.345 . S
C669 C670 1.424 . S
C670 H662 0.951 . S
C670 C669 1.424 . S
C670 C671 1.347 . S
C671 H663 0.951 . S
C671 C666 1.429 . S
C671 C670 1.347 . S
C133 C118 1.585 . S
C148 C8 1.583 . S
C163 C19 1.600 . S
C178 C129 1.582 . S
C193 C74 1.578 . S
C208 C30 1.595 . S
C223 C85 1.583 . S
C238 C41 1.584 . S
C253 C96 1.582 . S
C268 C52 1.599 . S
C283 C63 1.586 . S
C298 C107 1.599 . S
C313 C95 1.622 . S
C328 C7 1.570 . S
C343 C106 1.595 . S
C358 C18 1.596 . S
C373 C29 1.621 . S
C388 C117 1.571 . S
C403 C128 1.570 . S
C418 C40 1.622 . S
C433 C73 1.605 . S
C448 C51 1.587 . S
C463 C84 1.570 . S
C478 C62 1.622 . S
C493 C5 1.362 . S
C508 C126 1.383 . S
C523 C16 1.438 . S
C538 C71 1.407 . S
C553 C27 1.427 . S
C568 C82 1.397 . S
C583 C38 1.414 . S
C598 C93 1.445 . S
C613 C104 1.431 . S
C628 C49 1.400 . S
C643 C60 1.438 . S
C658 C115 1.407 . S
