# Generated by pormake.
# Topology svy, (7)-cn, num edge types: 1
# Building blocks:
#     Node 0, Type 0, BuildingBlock: HICVOG_clean_sbu_0, # of connection points: 7
#     Node 1, Type 0, BuildingBlock: HICVOG_clean_sbu_0, # of connection points: 7
#     Node 2, Type 0, BuildingBlock: HICVOG_clean_sbu_0, # of connection points: 7
#     Node 3, Type 0, BuildingBlock: HICVOG_clean_sbu_0, # of connection points: 7
#     Node 4, Type 0, BuildingBlock: HICVOG_clean_sbu_0, # of connection points: 7
#     Node 5, Type 0, BuildingBlock: HICVOG_clean_sbu_0, # of connection points: 7
#     Node 6, Type 0, BuildingBlock: HICVOG_clean_sbu_0, # of connection points: 7
#     Node 7, Type 0, BuildingBlock: HICVOG_clean_sbu_0, # of connection points: 7
#     Node 8, Type 0, BuildingBlock: HICVOG_clean_sbu_0, # of connection points: 7
#     Node 9, Type 0, BuildingBlock: HICVOG_clean_sbu_0, # of connection points: 7
#     Node 10, Type 0, BuildingBlock: HICVOG_clean_sbu_0, # of connection points: 7
#     Node 11, Type 0, BuildingBlock: HICVOG_clean_sbu_0, # of connection points: 7
#     Node 12, Type 0, BuildingBlock: HICVOG_clean_sbu_0, # of connection points: 7
#     Node 13, Type 0, BuildingBlock: HICVOG_clean_sbu_0, # of connection points: 7
#     Node 14, Type 0, BuildingBlock: HICVOG_clean_sbu_0, # of connection points: 7
#     Node 15, Type 0, BuildingBlock: HICVOG_clean_sbu_0, # of connection points: 7
#     Node 16, Type 0, BuildingBlock: HICVOG_clean_sbu_0, # of connection points: 7
#     Node 17, Type 0, BuildingBlock: HICVOG_clean_sbu_0, # of connection points: 7
#     Node 18, Type 0, BuildingBlock: HICVOG_clean_sbu_0, # of connection points: 7
#     Node 19, Type 0, BuildingBlock: HICVOG_clean_sbu_0, # of connection points: 7
#     Node 20, Type 0, BuildingBlock: HICVOG_clean_sbu_0, # of connection points: 7
#     Node 21, Type 0, BuildingBlock: HICVOG_clean_sbu_0, # of connection points: 7
#     Node 22, Type 0, BuildingBlock: HICVOG_clean_sbu_0, # of connection points: 7
#     Node 23, Type 0, BuildingBlock: HICVOG_clean_sbu_0, # of connection points: 7
#     Node 24, Type 0, BuildingBlock: HICVOG_clean_sbu_0, # of connection points: 7
#     Node 25, Type 0, BuildingBlock: HICVOG_clean_sbu_0, # of connection points: 7
#     Node 26, Type 0, BuildingBlock: HICVOG_clean_sbu_0, # of connection points: 7
#     Node 27, Type 0, BuildingBlock: HICVOG_clean_sbu_0, # of connection points: 7
#     Node 28, Type 0, BuildingBlock: HICVOG_clean_sbu_0, # of connection points: 7
#     Node 29, Type 0, BuildingBlock: HICVOG_clean_sbu_0, # of connection points: 7
#     Node 30, Type 0, BuildingBlock: HICVOG_clean_sbu_0, # of connection points: 7
#     Node 31, Type 0, BuildingBlock: HICVOG_clean_sbu_0, # of connection points: 7
#     Node 32, Type 0, BuildingBlock: HICVOG_clean_sbu_0, # of connection points: 7
#     Node 33, Type 0, BuildingBlock: HICVOG_clean_sbu_0, # of connection points: 7
#     Node 34, Type 0, BuildingBlock: HICVOG_clean_sbu_0, # of connection points: 7
#     Node 35, Type 0, BuildingBlock: HICVOG_clean_sbu_0, # of connection points: 7
#     Node 36, Type 0, BuildingBlock: HICVOG_clean_sbu_0, # of connection points: 7
#     Node 37, Type 0, BuildingBlock: HICVOG_clean_sbu_0, # of connection points: 7
#     Node 38, Type 0, BuildingBlock: HICVOG_clean_sbu_0, # of connection points: 7
#     Node 39, Type 0, BuildingBlock: HICVOG_clean_sbu_0, # of connection points: 7
#     Node 40, Type 0, BuildingBlock: HICVOG_clean_sbu_0, # of connection points: 7
#     Node 41, Type 0, BuildingBlock: HICVOG_clean_sbu_0, # of connection points: 7
#     Node 42, Type 0, BuildingBlock: HICVOG_clean_sbu_0, # of connection points: 7
#     Node 43, Type 0, BuildingBlock: HICVOG_clean_sbu_0, # of connection points: 7
#     Node 44, Type 0, BuildingBlock: HICVOG_clean_sbu_0, # of connection points: 7
#     Node 45, Type 0, BuildingBlock: HICVOG_clean_sbu_0, # of connection points: 7
#     Node 46, Type 0, BuildingBlock: HICVOG_clean_sbu_0, # of connection points: 7
#     Node 47, Type 0, BuildingBlock: HICVOG_clean_sbu_0, # of connection points: 7
#     Edge 48, Type (0, 0), BuildingBlock: OJICUG_clean_linker_0, # of connection points: 2
#     Edge 49, Type (0, 0), BuildingBlock: OJICUG_clean_linker_0, # of connection points: 2
#     Edge 50, Type (0, 0), BuildingBlock: OJICUG_clean_linker_0, # of connection points: 2
#     Edge 51, Type (0, 0), BuildingBlock: OJICUG_clean_linker_0, # of connection points: 2
#     Edge 52, Type (0, 0), BuildingBlock: OJICUG_clean_linker_0, # of connection points: 2
#     Edge 53, Type (0, 0), BuildingBlock: OJICUG_clean_linker_0, # of connection points: 2
#     Edge 54, Type (0, 0), BuildingBlock: OJICUG_clean_linker_0, # of connection points: 2
#     Edge 55, Type (0, 0), BuildingBlock: OJICUG_clean_linker_0, # of connection points: 2
#     Edge 56, Type (0, 0), BuildingBlock: OJICUG_clean_linker_0, # of connection points: 2
#     Edge 57, Type (0, 0), BuildingBlock: OJICUG_clean_linker_0, # of connection points: 2
#     Edge 58, Type (0, 0), BuildingBlock: OJICUG_clean_linker_0, # of connection points: 2
#     Edge 59, Type (0, 0), BuildingBlock: OJICUG_clean_linker_0, # of connection points: 2
#     Edge 60, Type (0, 0), BuildingBlock: OJICUG_clean_linker_0, # of connection points: 2
#     Edge 61, Type (0, 0), BuildingBlock: OJICUG_clean_linker_0, # of connection points: 2
#     Edge 62, Type (0, 0), BuildingBlock: OJICUG_clean_linker_0, # of connection points: 2
#     Edge 63, Type (0, 0), BuildingBlock: OJICUG_clean_linker_0, # of connection points: 2
#     Edge 64, Type (0, 0), BuildingBlock: OJICUG_clean_linker_0, # of connection points: 2
#     Edge 65, Type (0, 0), BuildingBlock: OJICUG_clean_linker_0, # of connection points: 2
#     Edge 66, Type (0, 0), BuildingBlock: OJICUG_clean_linker_0, # of connection points: 2
#     Edge 67, Type (0, 0), BuildingBlock: OJICUG_clean_linker_0, # of connection points: 2
#     Edge 68, Type (0, 0), BuildingBlock: OJICUG_clean_linker_0, # of connection points: 2
#     Edge 69, Type (0, 0), BuildingBlock: OJICUG_clean_linker_0, # of connection points: 2
#     Edge 70, Type (0, 0), BuildingBlock: OJICUG_clean_linker_0, # of connection points: 2
#     Edge 71, Type (0, 0), BuildingBlock: OJICUG_clean_linker_0, # of connection points: 2
#     Edge 72, Type (0, 0), BuildingBlock: OJICUG_clean_linker_0, # of connection points: 2
#     Edge 73, Type (0, 0), BuildingBlock: OJICUG_clean_linker_0, # of connection points: 2
#     Edge 74, Type (0, 0), BuildingBlock: OJICUG_clean_linker_0, # of connection points: 2
#     Edge 75, Type (0, 0), BuildingBlock: OJICUG_clean_linker_0, # of connection points: 2
#     Edge 76, Type (0, 0), BuildingBlock: OJICUG_clean_linker_0, # of connection points: 2
#     Edge 77, Type (0, 0), BuildingBlock: OJICUG_clean_linker_0, # of connection points: 2
#     Edge 78, Type (0, 0), BuildingBlock: OJICUG_clean_linker_0, # of connection points: 2
#     Edge 79, Type (0, 0), BuildingBlock: OJICUG_clean_linker_0, # of connection points: 2
#     Edge 80, Type (0, 0), BuildingBlock: OJICUG_clean_linker_0, # of connection points: 2
#     Edge 81, Type (0, 0), BuildingBlock: OJICUG_clean_linker_0, # of connection points: 2
#     Edge 82, Type (0, 0), BuildingBlock: OJICUG_clean_linker_0, # of connection points: 2
#     Edge 83, Type (0, 0), BuildingBlock: OJICUG_clean_linker_0, # of connection points: 2
#     Edge 84, Type (0, 0), BuildingBlock: OJICUG_clean_linker_0, # of connection points: 2
#     Edge 85, Type (0, 0), BuildingBlock: OJICUG_clean_linker_0, # of connection points: 2
#     Edge 86, Type (0, 0), BuildingBlock: OJICUG_clean_linker_0, # of connection points: 2
#     Edge 87, Type (0, 0), BuildingBlock: OJICUG_clean_linker_0, # of connection points: 2
#     Edge 88, Type (0, 0), BuildingBlock: OJICUG_clean_linker_0, # of connection points: 2
#     Edge 89, Type (0, 0), BuildingBlock: OJICUG_clean_linker_0, # of connection points: 2
#     Edge 90, Type (0, 0), BuildingBlock: OJICUG_clean_linker_0, # of connection points: 2
#     Edge 91, Type (0, 0), BuildingBlock: OJICUG_clean_linker_0, # of connection points: 2
#     Edge 92, Type (0, 0), BuildingBlock: OJICUG_clean_linker_0, # of connection points: 2
#     Edge 93, Type (0, 0), BuildingBlock: OJICUG_clean_linker_0, # of connection points: 2
#     Edge 94, Type (0, 0), BuildingBlock: OJICUG_clean_linker_0, # of connection points: 2
#     Edge 95, Type (0, 0), BuildingBlock: OJICUG_clean_linker_0, # of connection points: 2
#     Edge 96, Type (0, 0), BuildingBlock: OJICUG_clean_linker_0, # of connection points: 2
#     Edge 97, Type (0, 0), BuildingBlock: OJICUG_clean_linker_0, # of connection points: 2
#     Edge 98, Type (0, 0), BuildingBlock: OJICUG_clean_linker_0, # of connection points: 2
#     Edge 99, Type (0, 0), BuildingBlock: OJICUG_clean_linker_0, # of connection points: 2
#     Edge 100, Type (0, 0), BuildingBlock: OJICUG_clean_linker_0, # of connection points: 2
#     Edge 101, Type (0, 0), BuildingBlock: OJICUG_clean_linker_0, # of connection points: 2
#     Edge 102, Type (0, 0), BuildingBlock: OJICUG_clean_linker_0, # of connection points: 2
#     Edge 103, Type (0, 0), BuildingBlock: OJICUG_clean_linker_0, # of connection points: 2
#     Edge 104, Type (0, 0), BuildingBlock: OJICUG_clean_linker_0, # of connection points: 2
#     Edge 105, Type (0, 0), BuildingBlock: OJICUG_clean_linker_0, # of connection points: 2
#     Edge 106, Type (0, 0), BuildingBlock: OJICUG_clean_linker_0, # of connection points: 2
#     Edge 107, Type (0, 0), BuildingBlock: OJICUG_clean_linker_0, # of connection points: 2
#     Edge 108, Type (0, 0), BuildingBlock: OJICUG_clean_linker_0, # of connection points: 2
#     Edge 109, Type (0, 0), BuildingBlock: OJICUG_clean_linker_0, # of connection points: 2
#     Edge 110, Type (0, 0), BuildingBlock: OJICUG_clean_linker_0, # of connection points: 2
#     Edge 111, Type (0, 0), BuildingBlock: OJICUG_clean_linker_0, # of connection points: 2
#     Edge 112, Type (0, 0), BuildingBlock: OJICUG_clean_linker_0, # of connection points: 2
#     Edge 113, Type (0, 0), BuildingBlock: OJICUG_clean_linker_0, # of connection points: 2
#     Edge 114, Type (0, 0), BuildingBlock: OJICUG_clean_linker_0, # of connection points: 2
#     Edge 115, Type (0, 0), BuildingBlock: OJICUG_clean_linker_0, # of connection points: 2
#     Edge 116, Type (0, 0), BuildingBlock: OJICUG_clean_linker_0, # of connection points: 2
#     Edge 117, Type (0, 0), BuildingBlock: OJICUG_clean_linker_0, # of connection points: 2
#     Edge 118, Type (0, 0), BuildingBlock: OJICUG_clean_linker_0, # of connection points: 2
#     Edge 119, Type (0, 0), BuildingBlock: OJICUG_clean_linker_0, # of connection points: 2
#     Edge 120, Type (0, 0), BuildingBlock: OJICUG_clean_linker_0, # of connection points: 2
#     Edge 121, Type (0, 0), BuildingBlock: OJICUG_clean_linker_0, # of connection points: 2
#     Edge 122, Type (0, 0), BuildingBlock: OJICUG_clean_linker_0, # of connection points: 2
#     Edge 123, Type (0, 0), BuildingBlock: OJICUG_clean_linker_0, # of connection points: 2
#     Edge 124, Type (0, 0), BuildingBlock: OJICUG_clean_linker_0, # of connection points: 2
#     Edge 125, Type (0, 0), BuildingBlock: OJICUG_clean_linker_0, # of connection points: 2
#     Edge 126, Type (0, 0), BuildingBlock: OJICUG_clean_linker_0, # of connection points: 2
#     Edge 127, Type (0, 0), BuildingBlock: OJICUG_clean_linker_0, # of connection points: 2
#     Edge 128, Type (0, 0), BuildingBlock: OJICUG_clean_linker_0, # of connection points: 2
#     Edge 129, Type (0, 0), BuildingBlock: OJICUG_clean_linker_0, # of connection points: 2
#     Edge 130, Type (0, 0), BuildingBlock: OJICUG_clean_linker_0, # of connection points: 2
#     Edge 131, Type (0, 0), BuildingBlock: OJICUG_clean_linker_0, # of connection points: 2
#     Edge 132, Type (0, 0), BuildingBlock: OJICUG_clean_linker_0, # of connection points: 2
#     Edge 133, Type (0, 0), BuildingBlock: OJICUG_clean_linker_0, # of connection points: 2
#     Edge 134, Type (0, 0), BuildingBlock: OJICUG_clean_linker_0, # of connection points: 2
#     Edge 135, Type (0, 0), BuildingBlock: OJICUG_clean_linker_0, # of connection points: 2
#     Edge 136, Type (0, 0), BuildingBlock: OJICUG_clean_linker_0, # of connection points: 2
#     Edge 137, Type (0, 0), BuildingBlock: OJICUG_clean_linker_0, # of connection points: 2
#     Edge 138, Type (0, 0), BuildingBlock: OJICUG_clean_linker_0, # of connection points: 2
#     Edge 139, Type (0, 0), BuildingBlock: OJICUG_clean_linker_0, # of connection points: 2
#     Edge 140, Type (0, 0), BuildingBlock: OJICUG_clean_linker_0, # of connection points: 2
#     Edge 141, Type (0, 0), BuildingBlock: OJICUG_clean_linker_0, # of connection points: 2
#     Edge 142, Type (0, 0), BuildingBlock: OJICUG_clean_linker_0, # of connection points: 2
#     Edge 143, Type (0, 0), BuildingBlock: OJICUG_clean_linker_0, # of connection points: 2
#     Edge 144, Type (0, 0), BuildingBlock: OJICUG_clean_linker_0, # of connection points: 2
#     Edge 145, Type (0, 0), BuildingBlock: OJICUG_clean_linker_0, # of connection points: 2
#     Edge 146, Type (0, 0), BuildingBlock: OJICUG_clean_linker_0, # of connection points: 2
#     Edge 147, Type (0, 0), BuildingBlock: OJICUG_clean_linker_0, # of connection points: 2
#     Edge 148, Type (0, 0), BuildingBlock: OJICUG_clean_linker_0, # of connection points: 2
#     Edge 149, Type (0, 0), BuildingBlock: OJICUG_clean_linker_0, # of connection points: 2
#     Edge 150, Type (0, 0), BuildingBlock: OJICUG_clean_linker_0, # of connection points: 2
#     Edge 151, Type (0, 0), BuildingBlock: OJICUG_clean_linker_0, # of connection points: 2
#     Edge 152, Type (0, 0), BuildingBlock: OJICUG_clean_linker_0, # of connection points: 2
#     Edge 153, Type (0, 0), BuildingBlock: OJICUG_clean_linker_0, # of connection points: 2
#     Edge 154, Type (0, 0), BuildingBlock: OJICUG_clean_linker_0, # of connection points: 2
#     Edge 155, Type (0, 0), BuildingBlock: OJICUG_clean_linker_0, # of connection points: 2
#     Edge 156, Type (0, 0), BuildingBlock: OJICUG_clean_linker_0, # of connection points: 2
#     Edge 157, Type (0, 0), BuildingBlock: OJICUG_clean_linker_0, # of connection points: 2
#     Edge 158, Type (0, 0), BuildingBlock: OJICUG_clean_linker_0, # of connection points: 2
#     Edge 159, Type (0, 0), BuildingBlock: OJICUG_clean_linker_0, # of connection points: 2
#     Edge 160, Type (0, 0), BuildingBlock: OJICUG_clean_linker_0, # of connection points: 2
#     Edge 161, Type (0, 0), BuildingBlock: OJICUG_clean_linker_0, # of connection points: 2
#     Edge 162, Type (0, 0), BuildingBlock: OJICUG_clean_linker_0, # of connection points: 2
#     Edge 163, Type (0, 0), BuildingBlock: OJICUG_clean_linker_0, # of connection points: 2
#     Edge 164, Type (0, 0), BuildingBlock: OJICUG_clean_linker_0, # of connection points: 2
#     Edge 165, Type (0, 0), BuildingBlock: OJICUG_clean_linker_0, # of connection points: 2
#     Edge 166, Type (0, 0), BuildingBlock: OJICUG_clean_linker_0, # of connection points: 2
#     Edge 167, Type (0, 0), BuildingBlock: OJICUG_clean_linker_0, # of connection points: 2
#     Edge 168, Type (0, 0), BuildingBlock: OJICUG_clean_linker_0, # of connection points: 2
#     Edge 169, Type (0, 0), BuildingBlock: OJICUG_clean_linker_0, # of connection points: 2
#     Edge 170, Type (0, 0), BuildingBlock: OJICUG_clean_linker_0, # of connection points: 2
#     Edge 171, Type (0, 0), BuildingBlock: OJICUG_clean_linker_0, # of connection points: 2
#     Edge 172, Type (0, 0), BuildingBlock: OJICUG_clean_linker_0, # of connection points: 2
#     Edge 173, Type (0, 0), BuildingBlock: OJICUG_clean_linker_0, # of connection points: 2
#     Edge 174, Type (0, 0), BuildingBlock: OJICUG_clean_linker_0, # of connection points: 2
#     Edge 175, Type (0, 0), BuildingBlock: OJICUG_clean_linker_0, # of connection points: 2
#     Edge 176, Type (0, 0), BuildingBlock: OJICUG_clean_linker_0, # of connection points: 2
#     Edge 177, Type (0, 0), BuildingBlock: OJICUG_clean_linker_0, # of connection points: 2
#     Edge 178, Type (0, 0), BuildingBlock: OJICUG_clean_linker_0, # of connection points: 2
#     Edge 179, Type (0, 0), BuildingBlock: OJICUG_clean_linker_0, # of connection points: 2
#     Edge 180, Type (0, 0), BuildingBlock: OJICUG_clean_linker_0, # of connection points: 2
#     Edge 181, Type (0, 0), BuildingBlock: OJICUG_clean_linker_0, # of connection points: 2
#     Edge 182, Type (0, 0), BuildingBlock: OJICUG_clean_linker_0, # of connection points: 2
#     Edge 183, Type (0, 0), BuildingBlock: OJICUG_clean_linker_0, # of connection points: 2
#     Edge 184, Type (0, 0), BuildingBlock: OJICUG_clean_linker_0, # of connection points: 2
#     Edge 185, Type (0, 0), BuildingBlock: OJICUG_clean_linker_0, # of connection points: 2
#     Edge 186, Type (0, 0), BuildingBlock: OJICUG_clean_linker_0, # of connection points: 2
#     Edge 187, Type (0, 0), BuildingBlock: OJICUG_clean_linker_0, # of connection points: 2
#     Edge 188, Type (0, 0), BuildingBlock: OJICUG_clean_linker_0, # of connection points: 2
#     Edge 189, Type (0, 0), BuildingBlock: OJICUG_clean_linker_0, # of connection points: 2
#     Edge 190, Type (0, 0), BuildingBlock: OJICUG_clean_linker_0, # of connection points: 2
#     Edge 191, Type (0, 0), BuildingBlock: OJICUG_clean_linker_0, # of connection points: 2
#     Edge 192, Type (0, 0), BuildingBlock: OJICUG_clean_linker_0, # of connection points: 2
#     Edge 193, Type (0, 0), BuildingBlock: OJICUG_clean_linker_0, # of connection points: 2
#     Edge 194, Type (0, 0), BuildingBlock: OJICUG_clean_linker_0, # of connection points: 2
#     Edge 195, Type (0, 0), BuildingBlock: OJICUG_clean_linker_0, # of connection points: 2
#     Edge 196, Type (0, 0), BuildingBlock: OJICUG_clean_linker_0, # of connection points: 2
#     Edge 197, Type (0, 0), BuildingBlock: OJICUG_clean_linker_0, # of connection points: 2
#     Edge 198, Type (0, 0), BuildingBlock: OJICUG_clean_linker_0, # of connection points: 2
#     Edge 199, Type (0, 0), BuildingBlock: OJICUG_clean_linker_0, # of connection points: 2
#     Edge 200, Type (0, 0), BuildingBlock: OJICUG_clean_linker_0, # of connection points: 2
#     Edge 201, Type (0, 0), BuildingBlock: OJICUG_clean_linker_0, # of connection points: 2
#     Edge 202, Type (0, 0), BuildingBlock: OJICUG_clean_linker_0, # of connection points: 2
#     Edge 203, Type (0, 0), BuildingBlock: OJICUG_clean_linker_0, # of connection points: 2
#     Edge 204, Type (0, 0), BuildingBlock: OJICUG_clean_linker_0, # of connection points: 2
#     Edge 205, Type (0, 0), BuildingBlock: OJICUG_clean_linker_0, # of connection points: 2
#     Edge 206, Type (0, 0), BuildingBlock: OJICUG_clean_linker_0, # of connection points: 2
#     Edge 207, Type (0, 0), BuildingBlock: OJICUG_clean_linker_0, # of connection points: 2
#     Edge 208, Type (0, 0), BuildingBlock: OJICUG_clean_linker_0, # of connection points: 2
#     Edge 209, Type (0, 0), BuildingBlock: OJICUG_clean_linker_0, # of connection points: 2
#     Edge 210, Type (0, 0), BuildingBlock: OJICUG_clean_linker_0, # of connection points: 2
#     Edge 211, Type (0, 0), BuildingBlock: OJICUG_clean_linker_0, # of connection points: 2
#     Edge 212, Type (0, 0), BuildingBlock: OJICUG_clean_linker_0, # of connection points: 2
#     Edge 213, Type (0, 0), BuildingBlock: OJICUG_clean_linker_0, # of connection points: 2
#     Edge 214, Type (0, 0), BuildingBlock: OJICUG_clean_linker_0, # of connection points: 2
#     Edge 215, Type (0, 0), BuildingBlock: OJICUG_clean_linker_0, # of connection points: 2
# Relax obj value: 0.301
# Max RMSD: 0.288
# Mean RMSD: 0.288
data_MOF--net-svy--node1-HICVOG_clean_sbu_0--edge1-OJICUG_clean_linker_0
_symmetry_space_group_name_H-M    P1
_symmetry_Int_Tables_number       1
_symmetry_cell_setting            triclinic
loop_
_symmetry_equiv_pos_as_xyz
'x, y, z'
_cell_length_a     46.230209
_cell_length_b     46.238237
_cell_length_c     46.236634
_cell_angle_alpha  89.998743
_cell_angle_beta   89.999166
_cell_angle_gamma 89.999308
loop_
_atom_site_label
_atom_site_type_symbol
_atom_site_fract_x
_atom_site_fract_y
_atom_site_fract_z
_atom_type_partial_charge
Zn0 Zn 0.14218 0.34615 0.21857 0.0
C1 C 0.21117 0.29683 0.19325 0.0
N2 N 0.20081 0.27853 0.21309 0.0
C3 C 0.17869 0.29345 0.22469 0.0
N4 N 0.17545 0.31991 0.21252 0.0
N5 N 0.19639 0.3219 0.1929 0.0
C6 C 0.18309 0.32723 0.11907 0.0
O7 O 0.16862 0.3134 0.13923 0.0
O8 O 0.13737 0.35644 0.26097 0.0
Zn9 Zn 0.20679 0.35288 0.16786 0.0
N10 N 0.10783 0.32707 0.20282 0.0
C11 C 0.08194 0.32152 0.15864 0.0
C12 C 0.10564 0.33191 0.17389 0.0
C13 C 0.08718 0.31147 0.21723 0.0
N14 N 0.06125 0.30644 0.17285 0.0
C15 C 0.06302 0.30097 0.2017 0.0
O16 O 0.17993 0.38561 0.16766 0.0
C17 C 0.15755 0.39764 0.17766 0.0
O18 O 0.14248 0.38552 0.19728 0.0
H19 H 0.1222 0.34409 0.16276 0.0
H20 H 0.0893 0.30763 0.24022 0.0
C21 C 0.25892 0.38403 0.15955 0.0
C22 C 0.28372 0.39905 0.1686 0.0
C23 C 0.27534 0.38305 0.21673 0.0
C24 C 0.25058 0.36851 0.20765 0.0
N25 N 0.24312 0.36905 0.17925 0.0
N26 N 0.2912 0.39802 0.19709 0.0
H27 H 0.25142 0.38505 0.13741 0.0
C28 C 0.15236 0.37723 0.27118 0.0
O29 O 0.1718 0.3896 0.25454 0.0
O30 O 0.20579 0.3409 0.12634 0.0
H31 H 0.23716 0.3572 0.22312 0.0
H32 H 0.07994 0.32544 0.13566 0.0
H33 H 0.28169 0.3828 0.23924 0.0
Zn34 Zn 0.60281 0.57358 0.11207 0.0
C35 C 0.543 0.60218 0.05585 0.0
N36 N 0.52793 0.58031 0.06773 0.0
C37 C 0.54635 0.56973 0.08735 0.0
N38 N 0.57166 0.58412 0.08727 0.0
N39 N 0.5697 0.60502 0.06762 0.0
C40 C 0.62722 0.62769 1.00872 0.0
O41 O 0.63963 0.60836 0.02545 0.0
O42 O 0.59105 0.57455 0.15366 0.0
Zn43 Zn 0.59614 0.63809 0.06131 0.0
N44 N 0.61891 0.5373 0.10048 0.0
C45 C 0.63295 0.50534 0.0628 0.0
C46 C 0.61843 0.53005 0.07201 0.0
C47 C 0.63382 0.52135 0.1201 0.0
N48 N 0.64785 0.48931 0.08236 0.0
C49 C 0.64883 0.49659 0.11091 0.0
O50 O 0.63555 0.63773 0.0825 0.0
C51 C 0.64766 0.6227 0.10216 0.0
O52 O 0.63558 0.60037 0.11222 0.0
H53 H 0.60718 0.5436 0.05662 0.0
H54 H 0.63481 0.52871 0.14228 0.0
C55 C 0.56155 0.69313 0.06249 0.0
C56 C 0.5513 0.71749 0.07787 0.0
C57 C 0.57237 0.69903 0.12088 0.0
C58 C 0.58248 0.67512 0.10577 0.0
N59 N 0.5773 0.67262 0.07694 0.0
N60 N 0.55716 0.71959 0.10662 0.0
H61 H 0.55739 0.69073 0.03958 0.0
C62 C 0.57748 0.5973 0.16098 0.0
O63 O 0.56372 0.61188 0.14085 0.0
O64 O 0.60638 0.64267 0.01886 0.0
H65 H 0.59472 0.65863 0.11696 0.0
H66 H 0.63274 0.49914 0.04024 0.0
H67 H 0.57656 0.70127 0.14379 0.0
Zn68 Zn 0.82347 0.17713 0.16778 0.0
C69 C 0.85161 0.23666 0.2245 0.0
N70 N 0.82951 0.25157 0.21285 0.0
C71 C 0.81911 0.23322 0.19307 0.0
N72 N 0.83386 0.20814 0.1928 0.0
N73 N 0.8548 0.21014 0.21242 0.0
C74 C 0.87796 0.15271 0.27106 0.0
O75 O 0.85856 0.14033 0.25439 0.0
O76 O 0.82453 0.18905 0.12624 0.0
Zn77 Zn 0.88809 0.1839 0.21848 0.0
N78 N 0.78712 0.16099 0.17917 0.0
C79 C 0.75494 0.14699 0.21667 0.0
C80 C 0.77969 0.16152 0.20758 0.0
C81 C 0.77129 0.14603 0.15947 0.0
N82 N 0.73904 0.13203 0.19705 0.0
C83 C 0.7465 0.13101 0.16855 0.0
O84 O 0.8878 0.14453 0.1972 0.0
C85 C 0.8727 0.13238 0.17762 0.0
O86 O 0.8503 0.1444 0.16764 0.0
H87 H 0.79314 0.17281 0.22304 0.0
H88 H 0.77877 0.14502 0.13733 0.0
C89 C 0.94305 0.21864 0.21718 0.0
C90 C 0.96721 0.22917 0.20168 0.0
C91 C 0.94839 0.20854 0.15861 0.0
C92 C 0.92468 0.19813 0.17384 0.0
N93 N 0.92244 0.203 0.20276 0.0
N94 N 0.96903 0.22367 0.17283 0.0
H95 H 0.94088 0.2225 0.24016 0.0
C96 C 0.84726 0.20269 0.11899 0.0
O97 O 0.86172 0.21652 0.13915 0.0
O98 O 0.8929 0.17357 0.26089 0.0
H99 H 0.90815 0.18592 0.16269 0.0
H100 H 0.7486 0.14724 0.2392 0.0
H101 H 0.95042 0.20461 0.13563 0.0
Zn102 Zn 0.42728 0.9564 0.1122 0.0
C103 C 0.48699 0.9278 0.05587 0.0
N104 N 0.50213 0.94959 0.06781 0.0
C105 C 0.48375 0.96015 0.08749 0.0
N106 N 0.45841 0.94583 0.08738 0.0
N107 N 0.46029 0.92499 0.06766 0.0
C108 C 0.40278 0.90242 1.00864 0.0
O109 O 0.39032 0.92174 0.02534 0.0
O110 O 0.439 0.9553 0.15381 0.0
Zn111 Zn 0.43377 0.89199 0.0613 0.0
N112 N 0.41127 0.99275 0.10069 0.0
C113 C 0.39733 0.02484 0.06308 0.0
C114 C 0.41181 1.00008 0.07225 0.0
C115 C 0.39632 1.00866 0.12032 0.0
N116 N 0.38239 0.04082 0.08265 0.0
C117 C 0.38135 0.03345 0.11117 0.0
O118 O 0.39433 0.89241 0.08246 0.0
C119 C 0.38229 0.90743 0.10216 0.0
O120 O 0.39446 0.92969 0.11227 0.0
H121 H 0.42308 0.98656 0.05683 0.0
H122 H 0.39528 1.00124 0.14249 0.0
C123 C 0.46833 0.83693 0.06248 0.0
C124 C 0.47851 0.81252 0.07783 0.0
C125 C 0.45728 0.83088 0.12081 0.0
C126 C 0.44723 0.85483 0.10573 0.0
N127 N 0.45253 0.8574 0.07692 0.0
N128 N 0.47254 0.81035 0.10656 0.0
H129 H 0.47259 0.83939 0.0396 0.0
C130 C 0.45245 0.93246 0.16108 0.0
O131 O 0.46613 0.91785 0.14092 0.0
O132 O 0.4236 0.88744 0.01883 0.0
H133 H 0.43496 0.87129 0.11692 0.0
H134 H 0.39759 0.0311 0.04053 0.0
H135 H 0.453 0.82858 0.1437 0.0
Zn136 Zn 0.14207 0.68375 0.31143 0.0
C137 C 0.21075 0.73333 0.33709 0.0
N138 N 0.20036 0.75164 0.31727 0.0
C139 C 0.17835 0.73665 0.30554 0.0
N140 N 0.17522 0.71013 0.31762 0.0
N141 N 0.19611 0.70818 0.3373 0.0
C142 C 0.18255 0.70252 0.41103 0.0
O143 O 0.16801 0.71619 0.39082 0.0
O144 O 0.13739 0.67351 0.26899 0.0
Zn145 Zn 0.20656 0.67716 0.36228 0.0
N146 N 0.10757 0.70265 0.3271 0.0
C147 C 0.08123 0.70764 0.37108 0.0
C148 C 0.1051 0.69747 0.35595 0.0
C149 C 0.08706 0.71842 0.31268 0.0
N150 N 0.06067 0.72288 0.35685 0.0
C151 C 0.06273 0.72871 0.32809 0.0
O152 O 0.17984 0.64434 0.36234 0.0
C153 C 0.15753 0.63224 0.35227 0.0
O154 O 0.14246 0.64434 0.33263 0.0
H155 H 0.12157 0.68519 0.36711 0.0
H156 H 0.08942 0.72256 0.28977 0.0
C157 C 0.25881 0.64617 0.37058 0.0
C158 C 0.28364 0.63122 0.3615 0.0
C159 C 0.27523 0.64731 0.3134 0.0
C160 C 0.25044 0.66176 0.3225 0.0
N161 N 0.24297 0.66114 0.35091 0.0
N162 N 0.29113 0.63232 0.33301 0.0
H163 H 0.25131 0.64508 0.39272 0.0
C164 C 0.15237 0.65269 0.25881 0.0
O165 O 0.17175 0.64029 0.27549 0.0
O166 O 0.20539 0.68902 0.40383 0.0
H167 H 0.23698 0.67306 0.30706 0.0
H168 H 0.07901 0.70345 0.394 0.0
H169 H 0.28159 0.64762 0.29089 0.0
Zn170 Zn 0.93414 0.63812 0.96856 0.0
C171 C 0.98362 0.56936 0.94293 0.0
N172 N 1.00201 0.57983 0.96263 0.0
C173 C 0.98705 0.60187 0.97434 0.0
N174 N 0.96047 0.60494 0.96238 0.0
N175 N 0.95845 0.58399 0.94278 0.0
C176 C 0.95288 0.59713 0.86898 0.0
O177 O 0.96672 0.61165 0.8891 0.0
O178 O 0.92384 0.64281 1.01098 0.0
Zn179 Zn 0.92737 0.57354 0.91788 0.0
N180 N 0.95315 0.67252 0.9529 0.0
C181 C 0.9586 0.69859 0.90881 0.0
C182 C 0.94825 0.67483 0.92399 0.0
C183 C 0.96879 0.69311 0.96736 0.0
N184 N 0.97371 0.71922 0.92307 0.0
C185 C 0.97925 0.71733 0.9519 0.0
O186 O 0.89466 0.60041 0.91767 0.0
C187 C 0.88263 0.62279 0.92766 0.0
O188 O 0.89476 0.63785 0.94729 0.0
H189 H 0.93607 0.6583 0.91281 0.0
H190 H 0.9727 0.69089 0.99032 0.0
C191 C 0.89625 0.52138 0.90981 0.0
C192 C 0.88119 0.49665 0.91897 0.0
C193 C 0.89704 0.50534 0.9671 0.0
C194 C 0.91162 0.53003 0.95791 0.0
N195 N 0.91118 0.53729 0.92945 0.0
N196 N 0.88212 0.48935 0.94751 0.0
H197 H 0.8953 0.52875 0.88762 0.0
C198 C 0.90297 0.62787 0.02113 0.0
O199 O 0.89057 0.60851 1.00442 0.0
O200 O 0.93923 0.57443 0.87632 0.0
H201 H 0.92288 0.54355 0.97332 0.0
H202 H 0.95463 0.70067 0.88585 0.0
H203 H 0.89722 0.49912 0.98965 0.0
Zn204 Zn 0.8881 0.84617 0.31138 0.0
C205 C 0.81939 0.79664 0.33703 0.0
N206 N 0.82986 0.77828 0.3173 0.0
C207 C 0.85186 0.79326 0.30557 0.0
N208 N 0.85492 0.81983 0.31756 0.0
N209 N 0.83398 0.82182 0.33717 0.0
C210 C 0.84724 0.82741 0.41095 0.0
O211 O 0.86178 0.81364 0.39079 0.0
O212 O 0.89279 0.85642 0.26896 0.0
Zn213 Zn 0.82351 0.85289 0.3621 0.0
N214 N 0.92255 0.82721 0.32707 0.0
C215 C 0.94875 0.82205 0.37112 0.0
C216 C 0.92493 0.83226 0.35594 0.0
C217 C 0.94313 0.81151 0.31265 0.0
N218 N 0.96937 0.80689 0.35689 0.0
C219 C 0.96741 0.80117 0.3281 0.0
O220 O 0.85035 0.88563 0.36227 0.0
C221 C 0.87271 0.89767 0.35226 0.0
O222 O 0.88777 0.88556 0.33262 0.0
H223 H 0.90841 0.84449 0.3671 0.0
H224 H 0.94085 0.80748 0.28971 0.0
C225 C 0.77132 0.88396 0.37032 0.0
C226 C 0.74652 0.89897 0.36122 0.0
C227 C 0.75505 0.88305 0.31309 0.0
C228 C 0.77981 0.86853 0.32221 0.0
N229 N 0.78718 0.86903 0.35063 0.0
N230 N 0.73911 0.89797 0.33271 0.0
H231 H 0.77876 0.88496 0.39247 0.0
C232 C 0.87779 0.87723 0.25877 0.0
O233 O 0.8584 0.88961 0.27545 0.0
O234 O 0.82449 0.84101 0.40365 0.0
H235 H 0.79329 0.85726 0.30676 0.0
H236 H 0.95089 0.82614 0.39405 0.0
H237 H 0.74876 0.88283 0.29056 0.0
Zn238 Zn 0.10295 0.95662 0.91788 0.0
C239 C 0.04337 0.92827 0.97444 0.0
N240 N 0.02831 0.95018 0.96262 0.0
C241 C 0.04665 0.96065 0.94287 0.0
N242 N 0.07189 0.94615 0.9428 0.0
N243 N 0.06997 0.92529 0.9625 0.0
C244 C 0.12739 0.90242 0.02135 0.0
O245 O 0.13982 0.9218 1.00468 0.0
O246 O 0.09112 0.95562 0.87631 0.0
Zn247 Zn 0.09634 0.89215 0.96871 0.0
N248 N 0.11908 0.99292 0.92938 0.0
C249 C 0.1331 0.02502 0.96695 0.0
C250 C 0.11856 1.00029 0.95781 0.0
C251 C 0.13405 1.00877 0.90972 0.0
N252 N 0.14807 0.04094 0.94735 0.0
C253 C 0.14908 0.03354 0.91883 0.0
O254 O 0.13574 0.89246 0.94747 0.0
C255 C 0.14781 0.90749 0.92779 0.0
O256 O 0.13571 0.92981 0.91773 0.0
H257 H 0.10726 0.98682 0.97324 0.0
H258 H 0.13507 1.00133 0.88756 0.0
C259 C 0.06172 0.83712 0.96745 0.0
C260 C 0.05131 0.8129 0.95197 0.0
C261 C 0.07204 0.83164 0.90892 0.0
C262 C 0.08234 0.85541 0.92412 0.0
N263 N 0.07738 0.85772 0.95302 0.0
N264 N 0.05691 0.811 0.92316 0.0
H265 H 0.05777 0.83935 0.9904 0.0
C266 C 0.07751 0.93289 0.86901 0.0
O267 O 0.06369 0.91839 0.88915 0.0
O268 O 0.10657 0.88746 1.01115 0.0
H269 H 0.09454 0.87195 0.91296 0.0
H270 H 0.13286 0.03131 0.98948 0.0
H271 H 0.07605 0.82956 0.88597 0.0
Zn272 Zn 0.16807 0.2067 0.35299 0.0
C273 C 0.22444 0.17829 0.29324 0.0
N274 N 0.21264 0.20025 0.27825 0.0
C275 C 0.19298 0.21077 0.29667 0.0
N276 N 0.19295 0.19624 0.32189 0.0
N277 N 0.21258 0.17532 0.31988 0.0
C278 C 0.27141 0.15241 0.37732 0.0
O279 O 0.2547 0.17175 0.38975 0.0
O280 O 0.12648 0.20581 0.3412 0.0
Zn281 Zn 0.2188 0.14213 0.3462 0.0
N282 N 0.1796 0.24295 0.36922 0.0
C283 C 0.21717 0.27502 0.38332 0.0
C284 C 0.20804 0.25031 0.36874 0.0
C285 C 0.15992 0.2588 0.38417 0.0
N286 N 0.19755 0.29095 0.39826 0.0
C287 C 0.16902 0.28356 0.39922 0.0
O288 O 0.1975 0.14235 0.38557 0.0
C289 C 0.17785 0.15739 0.39767 0.0
O290 O 0.16787 0.17978 0.38565 0.0
H291 H 0.22349 0.23684 0.35745 0.0
H292 H 0.13776 0.25137 0.38513 0.0
C293 C 0.21759 0.08711 0.31157 0.0
C294 C 0.20209 0.06295 0.30104 0.0
C295 C 0.15898 0.08183 0.32153 0.0
C296 C 0.1742 0.10553 0.33194 0.0
N297 N 0.20313 0.10774 0.32715 0.0
N298 N 0.17323 0.06115 0.30647 0.0
H299 H 0.24058 0.08926 0.30775 0.0
C300 C 0.11911 0.18312 0.32756 0.0
O301 O 0.13919 0.16861 0.31366 0.0
O302 O 0.26124 0.13746 0.35647 0.0
H303 H 0.16303 0.12209 0.34409 0.0
H304 H 0.23971 0.2813 0.38312 0.0
H305 H 0.13599 0.07982 0.32541 0.0
Zn306 Zn 0.45665 0.61224 0.92712 0.0
C307 C 0.42849 0.55543 0.98656 0.0
N308 N 0.45049 0.56715 1.00155 0.0
C309 C 0.46087 0.58699 0.98326 0.0
N310 N 0.44622 0.58722 0.95811 0.0
N311 N 0.42535 0.56752 0.96004 0.0
C312 C 0.40232 0.50883 0.90263 0.0
O313 O 0.42174 0.52548 0.89025 0.0
O314 O 0.45553 0.65377 0.93903 0.0
Zn315 Zn 0.39213 0.56143 0.93373 0.0
N316 N 0.49303 0.60087 0.91104 0.0
C317 C 0.52527 0.56338 0.89713 0.0
C318 C 0.50049 0.57247 0.91162 0.0
C319 C 0.50886 0.62056 0.89608 0.0
N320 N 0.54117 0.583 0.88217 0.0
C321 C 0.53369 0.61149 0.88111 0.0
O322 O 0.39249 0.58267 0.89435 0.0
C323 C 0.40755 0.6023 0.88224 0.0
O324 O 0.42989 0.61235 0.89432 0.0
H325 H 0.48704 0.55701 0.92291 0.0
H326 H 0.50137 0.6427 0.89503 0.0
C327 C 0.33715 0.56273 0.96842 0.0
C328 C 0.31292 0.57821 0.97885 0.0
C329 C 0.33165 0.62125 0.95807 0.0
C330 C 0.35542 0.60604 0.94776 0.0
N331 N 0.35773 0.57715 0.95274 0.0
N332 N 0.31102 0.60702 0.97323 0.0
H333 H 0.33938 0.53978 0.97239 0.0
C334 C 0.43277 0.66101 0.95264 0.0
O335 O 0.41828 0.64082 0.96641 0.0
O336 O 0.38736 0.51902 0.92345 0.0
H337 H 0.37193 0.61719 0.93553 0.0
H338 H 0.53163 0.54086 0.89742 0.0
H339 H 0.32956 0.6442 0.95405 0.0
Zn340 Zn 0.86215 0.32355 0.35264 0.0
C341 C 0.80593 0.35206 0.29281 0.0
N342 N 0.81778 0.33014 0.2778 0.0
C343 C 0.83738 0.31958 0.29624 0.0
N344 N 0.83734 0.33404 0.3215 0.0
N345 N 0.81771 0.35497 0.31949 0.0
C346 C 0.75893 0.37785 0.37702 0.0
O347 O 0.77566 0.35852 0.38943 0.0
O348 O 0.90374 0.32433 0.34086 0.0
Zn349 Zn 0.81148 0.38813 0.34583 0.0
N350 N 0.85049 0.28733 0.36886 0.0
C351 C 0.81281 0.25539 0.38295 0.0
C352 C 0.82203 0.28008 0.36838 0.0
C353 C 0.87011 0.27142 0.38382 0.0
N354 N 0.83238 0.2394 0.39789 0.0
C355 C 0.86093 0.24669 0.39887 0.0
O356 O 0.83277 0.3879 0.38519 0.0
C357 C 0.85241 0.37286 0.39732 0.0
O358 O 0.86239 0.35046 0.38531 0.0
H359 H 0.80664 0.2936 0.35709 0.0
H360 H 0.8923 0.27878 0.38479 0.0
C361 C 0.81267 0.44316 0.31122 0.0
C362 C 0.82816 0.46734 0.3007 0.0
C363 C 0.87127 0.44847 0.32119 0.0
C364 C 0.85606 0.42475 0.33159 0.0
N365 N 0.82713 0.42253 0.32679 0.0
N366 N 0.85701 0.46915 0.30614 0.0
H367 H 0.78968 0.441 0.30739 0.0
C368 C 0.91116 0.34697 0.32716 0.0
O369 O 0.89111 0.36149 0.31322 0.0
O370 O 0.76904 0.39279 0.35614 0.0
H371 H 0.86724 0.40819 0.34373 0.0
H372 H 0.79025 0.24919 0.38275 0.0
H373 H 0.89426 0.45049 0.32507 0.0
Zn374 Zn 0.638 0.96848 0.93386 0.0
C375 C 0.56889 0.94327 0.98309 0.0
N376 N 0.57917 0.96319 1.00136 0.0
C377 C 0.60134 0.97475 0.98647 0.0
N378 N 0.60468 0.96248 0.96006 0.0
N379 N 0.58376 0.94283 0.95808 0.0
C380 C 0.59719 0.86899 0.95277 0.0
O381 O 0.61163 0.88916 0.9666 0.0
O382 O 0.64284 1.01088 0.92353 0.0
Zn383 Zn 0.57341 0.91775 0.92712 0.0
N384 N 0.67231 0.95274 0.95301 0.0
C385 C 0.69815 0.90856 0.95872 0.0
C386 C 0.67449 0.92381 0.94823 0.0
C387 C 0.69294 0.96717 0.96862 0.0
N388 N 0.71881 0.92278 0.97382 0.0
C389 C 0.71706 0.95164 0.97922 0.0
O390 O 0.60024 0.91759 0.89438 0.0
C391 C 0.62263 0.92759 0.88236 0.0
O392 O 0.63772 0.94718 0.8945 0.0
H393 H 0.65795 0.91267 0.93603 0.0
H394 H 0.69083 0.99017 0.9724 0.0
C395 C 0.52127 0.90941 0.89597 0.0
C396 C 0.49645 0.91847 0.88099 0.0
C397 C 0.50477 0.96657 0.8971 0.0
C398 C 0.52954 0.95749 0.91161 0.0
N399 N 0.53705 0.9291 0.91098 0.0
N400 N 0.48892 0.94695 0.88208 0.0
H401 H 0.52879 0.88729 0.8949 0.0
C402 C 0.62789 0.02106 0.90269 0.0
O403 O 0.60846 1.00441 0.89033 0.0
O404 O 0.57447 0.87623 0.9391 0.0
H405 H 0.54295 0.97295 0.92295 0.0
H406 H 0.70013 0.88556 0.95486 0.0
H407 H 0.49838 0.98907 0.89741 0.0
Zn408 Zn 0.21865 0.88804 0.18407 0.0
C409 C 0.19311 0.81912 0.23339 0.0
N410 N 0.21284 0.82954 0.25178 0.0
C411 C 0.22451 0.85163 0.23689 0.0
N412 N 0.2125 0.85479 0.21034 0.0
N413 N 0.19291 0.83384 0.20828 0.0
C414 C 0.11907 0.84702 0.20278 0.0
O415 O 0.13918 0.8615 0.21665 0.0
O416 O 0.26106 0.89276 0.1737 0.0
Zn417 Zn 0.16796 0.82344 0.17721 0.0
N418 N 0.203 0.92239 0.20318 0.0
C419 C 0.15886 0.94833 0.20887 0.0
C420 C 0.17406 0.92463 0.19841 0.0
C421 C 0.21748 0.94301 0.21876 0.0
N422 N 0.17314 0.96898 0.22394 0.0
C423 C 0.202 0.96717 0.22933 0.0
O424 O 0.16774 0.85034 0.14454 0.0
C425 C 0.17771 0.87277 0.13256 0.0
O426 O 0.19731 0.88783 0.14472 0.0
H427 H 0.16287 0.90809 0.18625 0.0
H428 H 0.24047 0.94085 0.22254 0.0
C429 C 0.15983 0.77133 0.14602 0.0
C430 C 0.16895 0.74657 0.13098 0.0
C431 C 0.21707 0.75509 0.14698 0.0
C432 C 0.20792 0.77981 0.16154 0.0
N433 N 0.17948 0.78718 0.161 0.0
N434 N 0.19747 0.73918 0.132 0.0
H435 H 0.13766 0.77877 0.14501 0.0
C436 C 0.27116 0.87786 0.15278 0.0
O437 O 0.25443 0.85853 0.14037 0.0
O438 O 0.1264 0.82434 0.1891 0.0
H439 H 0.22334 0.79327 0.17286 0.0
H440 H 0.13587 0.95035 0.20502 0.0
H441 H 0.2396 0.74881 0.14723 0.0
Zn442 Zn 0.07362 0.61219 0.1028 0.0
C443 C 0.10197 0.55564 0.0432 0.0
N444 N 0.08004 0.56745 0.02817 0.0
C445 C 0.06957 0.58719 0.04652 0.0
N446 N 0.0841 0.58726 0.07174 0.0
N447 N 0.10498 0.56758 0.0698 0.0
C448 C 0.12791 0.5088 0.12722 0.0
O449 O 0.10852 0.52548 0.13961 0.0
O450 O 0.07462 0.65375 0.09095 0.0
Zn451 Zn 0.13816 0.56141 0.09613 0.0
N452 N 0.03729 0.60072 0.11893 0.0
C453 C 1.00516 0.56317 0.13293 0.0
C454 C 0.02991 0.57229 0.11841 0.0
C455 C 0.02141 0.62039 0.13386 0.0
N456 N 0.98922 0.58278 0.14786 0.0
C457 C 0.99662 0.61129 0.14886 0.0
O458 O 0.13784 0.58265 0.13551 0.0
C459 C 0.12279 0.6023 0.14761 0.0
O460 O 0.10044 0.61233 0.13555 0.0
H461 H 0.0434 0.55685 0.10714 0.0
H462 H 0.02885 0.64255 0.13487 0.0
C463 C 0.19317 0.56269 0.06145 0.0
C464 C 0.21739 0.57818 0.05101 0.0
C465 C 0.19865 0.62121 0.07178 0.0
C466 C 0.17489 0.606 0.0821 0.0
N467 N 0.17258 0.57711 0.07713 0.0
N468 N 0.21928 0.60699 0.05662 0.0
H469 H 0.19094 0.53974 0.05749 0.0
C470 C 0.09735 0.66105 0.07733 0.0
O471 O 0.11187 0.64092 0.06353 0.0
O472 O 0.14288 0.51898 0.10639 0.0
H473 H 0.15836 0.61716 0.09431 0.0
H474 H 0.99887 0.54063 0.1327 0.0
H475 H 0.20073 0.64417 0.07579 0.0
Zn476 Zn 0.86226 0.70673 0.17701 0.0
C477 C 0.80563 0.67847 0.23659 0.0
N478 N 0.81738 0.70045 0.25159 0.0
C479 C 0.83715 0.71089 0.23324 0.0
N480 N 0.83729 0.69629 0.20806 0.0
N481 N 0.81762 0.67541 0.21001 0.0
C482 C 0.75887 0.65237 0.15253 0.0
O483 O 0.77555 0.67173 0.1401 0.0
O484 O 0.90383 0.70571 0.18888 0.0
Zn485 Zn 0.81147 0.64221 0.1837 0.0
N486 N 0.85081 0.74304 0.16086 0.0
C487 C 0.81328 0.77521 0.14688 0.0
C488 C 0.82239 0.75046 0.16141 0.0
C489 C 0.87049 0.75887 0.14588 0.0
N490 N 0.8329 0.79111 0.13191 0.0
C491 C 0.8614 0.78366 0.13087 0.0
O492 O 0.83276 0.64248 0.14433 0.0
C493 C 0.85241 0.65753 0.13223 0.0
O494 O 0.86242 0.67989 0.14429 0.0
H495 H 0.80694 0.73702 0.17272 0.0
H496 H 0.89264 0.75139 0.14486 0.0
C497 C 0.8127 0.58722 0.21836 0.0
C498 C 0.82818 0.56303 0.22886 0.0
C499 C 0.87128 0.58182 0.20826 0.0
C500 C 0.85607 0.60555 0.19788 0.0
N501 N 0.82716 0.60782 0.20273 0.0
N502 N 0.85702 0.56118 0.22336 0.0
H503 H 0.78972 0.58942 0.22223 0.0
C504 C 0.91112 0.68298 0.2025 0.0
O505 O 0.89097 0.6685 0.21633 0.0
O506 O 0.76904 0.63746 0.1734 0.0
H507 H 0.86725 0.62209 0.18569 0.0
H508 H 0.79075 0.78154 0.14714 0.0
H509 H 0.89425 0.57977 0.20433 0.0
Zn510 Zn 0.89209 0.96858 0.09612 0.0
C511 C 0.96114 0.94328 0.04687 0.0
N512 N 0.95079 0.96312 0.02856 0.0
C513 C 0.92866 0.97472 0.04346 0.0
N514 N 0.92541 0.96255 0.06993 0.0
N515 N 0.94635 0.94293 0.07193 0.0
C516 C 0.93317 0.86906 0.07723 0.0
O517 O 0.91871 0.88918 0.06333 0.0
O518 O 0.88728 1.01098 0.10644 0.0
Zn519 Zn 0.95673 0.91791 0.10292 0.0
N520 N 0.8578 0.95283 0.07695 0.0
C521 C 0.83207 0.90859 0.07115 0.0
C522 C 0.8557 0.92388 0.08165 0.0
C523 C 0.83711 0.96725 0.06141 0.0
N524 N 0.81135 0.9228 0.05611 0.0
C525 C 0.81302 0.95168 0.05079 0.0
O526 O 0.92982 0.91768 0.1356 0.0
C527 C 0.9074 0.92765 0.1476 0.0
O528 O 0.89233 0.94726 0.13547 0.0
H529 H 0.87229 0.91275 0.0938 0.0
H530 H 0.83915 0.99026 0.05768 0.0
C531 C 1.00884 0.90968 0.13412 0.0
C532 C 0.03363 0.91876 0.14915 0.0
C533 C 0.02518 0.96688 0.13317 0.0
C534 C 1.00044 0.95778 0.11861 0.0
N535 N 0.99302 0.92936 0.11914 0.0
N536 N 0.04107 0.94726 0.14814 0.0
H537 H 1.00137 0.88753 0.13512 0.0
C538 C 0.90227 0.02117 0.12724 0.0
O539 O 0.9217 1.00452 0.1396 0.0
O540 O 0.95583 0.87639 0.09096 0.0
H541 H 0.98701 0.97323 0.10729 0.0
H542 H 0.83016 0.88558 0.07494 0.0
H543 H 0.03151 0.9894 0.13292 0.0
Zn544 Zn 0.35292 0.16778 0.2066 0.0
C545 C 0.29334 0.22432 0.17819 0.0
N546 N 0.27827 0.21251 0.2001 0.0
C547 C 0.29661 0.19277 0.2106 0.0
N548 N 0.32186 0.1927 0.19611 0.0
N549 N 0.31995 0.21239 0.17524 0.0
C550 C 0.37736 0.27128 0.15242 0.0
O551 O 0.38979 0.25462 0.1718 0.0
O552 O 0.3411 0.12622 0.20553 0.0
Zn553 Zn 0.34635 0.21862 0.14211 0.0
N554 N 0.36903 0.17923 0.24294 0.0
C555 C 0.38309 0.21677 0.27504 0.0
C556 C 0.36855 0.20766 0.2503 0.0
C557 C 0.38395 0.15954 0.25881 0.0
N558 N 0.39801 0.19715 0.29098 0.0
C559 C 0.39898 0.16864 0.28358 0.0
O560 O 0.38577 0.1974 0.14247 0.0
C561 C 0.39783 0.17772 0.15752 0.0
O562 O 0.3857 0.16766 0.17982 0.0
H563 H 0.35729 0.22311 0.23681 0.0
H564 H 0.38493 0.13738 0.25137 0.0
C565 C 0.31171 0.21736 0.08709 0.0
C566 C 0.30137 0.20193 0.06281 0.0
C567 C 0.32232 0.15892 0.08139 0.0
C568 C 0.33254 0.17408 0.10522 0.0
N569 N 0.32745 0.20294 0.10763 0.0
N570 N 0.30712 0.17315 0.06081 0.0
H571 H 0.30764 0.24029 0.08941 0.0
C572 C 0.32757 0.11895 0.18273 0.0
O573 O 0.31383 0.13912 0.16819 0.0
O574 O 0.35656 0.26106 0.13744 0.0
H575 H 0.34478 0.16291 0.12172 0.0
H576 H 0.38288 0.23931 0.28133 0.0
H577 H 0.32644 0.13599 0.07923 0.0
Zn578 Zn 0.35273 0.86209 0.32372 0.0
C579 C 0.2929 0.80591 0.35233 0.0
N580 N 0.27782 0.81783 0.33049 0.0
C581 C 0.29626 0.83742 0.3199 0.0
N582 N 0.32158 0.8373 0.33426 0.0
N583 N 0.31962 0.81764 0.35515 0.0
C584 C 0.37715 0.75869 0.37774 0.0
O585 O 0.38957 0.77542 0.35842 0.0
O586 O 0.34101 0.90369 0.32477 0.0
Zn587 Zn 0.34609 0.81128 0.38819 0.0
N588 N 0.36881 0.85054 0.28741 0.0
C589 C 0.38289 0.81289 0.25544 0.0
C590 C 0.36836 0.82209 0.28015 0.0
C591 C 0.38371 0.87018 0.27146 0.0
N592 N 0.39779 0.83247 0.23942 0.0
C593 C 0.39874 0.86101 0.24671 0.0
O594 O 0.38553 0.83244 0.38781 0.0
C595 C 0.39763 0.85209 0.37277 0.0
O596 O 0.38553 0.86218 0.35047 0.0
H597 H 0.35712 0.80668 0.2937 0.0
H598 H 0.38468 0.89237 0.27882 0.0
C599 C 0.31152 0.81244 0.44324 0.0
C600 C 0.30133 0.82779 0.46765 0.0
C601 C 0.32253 0.87078 0.44928 0.0
C602 C 0.33258 0.8557 0.42533 0.0
N603 N 0.32731 0.82689 0.42276 0.0
N604 N 0.30728 0.85651 0.46982 0.0
H605 H 0.30728 0.78955 0.44079 0.0
C606 C 0.32749 0.91098 0.34757 0.0
O607 O 0.31378 0.89082 0.36215 0.0
O608 O 0.35631 0.76882 0.39272 0.0
H609 H 0.34485 0.8669 0.40887 0.0
H610 H 0.3827 0.79033 0.24923 0.0
H611 H 0.3268 0.89367 0.45158 0.0
Zn612 Zn 0.06144 0.43371 0.89219 0.0
C613 C 0.087 0.48317 0.96099 0.0
N614 N 0.0672 0.5015 0.95059 0.0
C615 C 0.05551 0.48655 0.92855 0.0
N616 N 0.06758 0.46002 0.9254 0.0
N617 N 0.08723 0.45804 0.94631 0.0
C618 C 0.16106 0.45251 0.93301 0.0
O619 O 0.14091 0.46632 0.91851 0.0
O620 O 0.01901 0.42338 0.88745 0.0
Zn621 Zn 0.1122 0.42701 0.95673 0.0
N622 N 0.07711 0.45277 0.85781 0.0
C623 C 0.12122 0.45832 0.8318 0.0
C624 C 0.10602 0.44791 0.85553 0.0
C625 C 0.06264 0.4684 0.83721 0.0
N626 N 0.10696 0.47343 0.81117 0.0
C627 C 0.07811 0.47892 0.81303 0.0
O628 O 0.11239 0.39429 0.92989 0.0
C629 C 0.10239 0.38225 0.90751 0.0
O630 O 0.08275 0.39436 0.89246 0.0
H631 H 0.1172 0.43572 0.87205 0.0
H632 H 0.03966 0.47226 0.83942 0.0
C633 C 0.12041 0.39586 1.00885 0.0
C634 C 0.11133 0.38087 0.03366 0.0
C635 C 0.06322 0.39696 0.02525 0.0
C636 C 0.07233 0.41147 1.00049 0.0
N637 N 0.10075 0.41087 0.99305 0.0
N638 N 0.08283 0.38196 0.04114 0.0
H639 H 0.14255 0.39479 1.00136 0.0
C640 C 1.00887 0.4025 0.90236 0.0
O641 O 0.02557 0.39007 0.92171 0.0
O642 O 0.15376 0.4389 0.95574 0.0
H643 H 0.05689 0.4228 0.98706 0.0
H644 H 0.1442 0.4544 0.82974 0.0
H645 H 0.0407 0.39726 0.0316 0.0
Zn646 Zn 0.67731 0.66782 0.32344 0.0
C647 C 0.73689 0.72445 0.35166 0.0
N648 N 0.75186 0.71275 0.32962 0.0
C649 C 0.73351 0.69298 0.3192 0.0
N650 N 0.70836 0.69278 0.33385 0.0
N651 N 0.71034 0.71242 0.35476 0.0
C652 C 0.65291 0.77106 0.37787 0.0
O653 O 0.64053 0.75439 0.35847 0.0
O654 O 0.68922 0.62628 0.32429 0.0
Zn655 Zn 0.68409 0.7185 0.38802 0.0
N656 N 0.66109 0.67936 0.28719 0.0
C657 C 0.64697 0.71696 0.25518 0.0
C658 C 0.66156 0.7078 0.27987 0.0
C659 C 0.64614 0.6597 0.27132 0.0
N660 N 0.63203 0.69737 0.23923 0.0
C661 C 0.63107 0.66884 0.24658 0.0
O662 O 0.64474 0.69718 0.3878 0.0
C663 C 0.63261 0.67755 0.37275 0.0
O664 O 0.64462 0.66758 0.35034 0.0
H665 H 0.67285 0.72323 0.29336 0.0
H666 H 0.64518 0.63753 0.27872 0.0
C667 C 0.71879 0.71724 0.443 0.0
C668 C 0.72943 0.70171 0.46709 0.0
C669 C 0.7091 0.65858 0.4481 0.0
C670 C 0.69858 0.67384 0.42446 0.0
N671 N 0.70325 0.70279 0.42233 0.0
N672 N 0.72413 0.67282 0.46879 0.0
H673 H 0.7225 0.74025 0.44092 0.0
C674 C 0.70296 0.61892 0.34693 0.0
O675 O 0.7169 0.63901 0.36138 0.0
O676 O 0.67377 0.7609 0.39281 0.0
H677 H 0.68643 0.66268 0.40788 0.0
H678 H 0.64717 0.73951 0.24893 0.0
H679 H 0.70532 0.63557 0.45003 0.0
Zn680 Zn 0.418 0.60293 0.45668 0.0
C681 C 0.47452 0.54329 0.42836 0.0
N682 N 0.46275 0.52829 0.45034 0.0
C683 C 0.44303 0.54667 0.46081 0.0
N684 N 0.44293 0.57186 0.44624 0.0
N685 N 0.46258 0.56988 0.42534 0.0
C686 C 0.52135 0.62725 0.40232 0.0
O687 O 0.50467 0.63967 0.42169 0.0
O688 O 0.37642 0.59108 0.45581 0.0
Zn689 Zn 0.46873 0.59615 0.3921 0.0
N690 N 0.42951 0.61917 0.49294 0.0
C691 C 0.46705 0.63327 0.52504 0.0
C692 C 0.45794 0.61869 0.50032 0.0
C693 C 0.40982 0.63412 0.50878 0.0
N694 N 0.44742 0.64822 0.54095 0.0
C695 C 0.4189 0.64918 0.53354 0.0
O696 O 0.44742 0.6355 0.39231 0.0
C697 C 0.42776 0.6476 0.40736 0.0
O698 O 0.41779 0.63558 0.42975 0.0
H699 H 0.47339 0.60739 0.48687 0.0
H700 H 0.38766 0.63509 0.50133 0.0
C701 C 0.46748 0.56148 0.33711 0.0
C702 C 0.45194 0.55085 0.31302 0.0
C703 C 0.40882 0.57122 0.332 0.0
C704 C 0.42408 0.58173 0.35564 0.0
N705 N 0.45303 0.57703 0.35777 0.0
N706 N 0.42306 0.55617 0.3113 0.0
H707 H 0.49049 0.55774 0.3392 0.0
C708 C 0.36905 0.57741 0.43313 0.0
O709 O 0.38914 0.56348 0.41865 0.0
O710 O 0.51116 0.60642 0.38736 0.0
H711 H 0.41292 0.59387 0.37221 0.0
H712 H 0.48959 0.63307 0.53133 0.0
H713 H 0.38581 0.57501 0.33006 0.0
Zn714 Zn 0.18371 0.81121 0.64208 0.0
C715 C 0.23351 0.83717 0.71049 0.0
N716 N 0.25187 0.81744 0.69999 0.0
C717 C 0.2368 0.80562 0.67809 0.0
N718 N 0.21018 0.81754 0.67513 0.0
N719 N 0.20825 0.83721 0.69601 0.0
C720 C 0.20238 0.91092 0.68253 0.0
O721 O 0.21603 0.89073 0.66794 0.0
O722 O 0.17352 0.76875 0.63751 0.0
Zn723 Zn 0.17717 0.8621 0.70652 0.0
N724 N 0.20249 0.82685 0.60752 0.0
C725 C 0.20723 0.87074 0.58098 0.0
C726 C 0.19719 0.85565 0.60494 0.0
C727 C 0.2183 0.81241 0.58704 0.0
N728 N 0.22249 0.85649 0.56045 0.0
C729 C 0.22847 0.82777 0.56263 0.0
O730 O 0.14436 0.86217 0.67978 0.0
C731 C 0.13222 0.85207 0.65751 0.0
O732 O 0.14427 0.83238 0.64248 0.0
H733 H 0.18491 0.86684 0.6214 0.0
H734 H 0.22255 0.78953 0.58949 0.0
C735 C 0.14618 0.87033 0.75875 0.0
C736 C 0.13118 0.86122 0.78354 0.0
C737 C 0.14711 0.8131 0.775 0.0
C738 C 0.16162 0.82222 0.75024 0.0
N739 N 0.16111 0.85065 0.74287 0.0
N740 N 0.13219 0.83271 0.79094 0.0
H741 H 0.14517 0.89248 0.75131 0.0
C742 C 0.1527 0.75856 0.65248 0.0
O743 O 0.14025 0.77526 0.67182 0.0
O744 O 0.18893 0.90369 0.70538 0.0
H745 H 0.17288 0.80678 0.73674 0.0
H746 H 0.20294 0.89362 0.57869 0.0
H747 H 0.14734 0.79056 0.78129 0.0
Zn748 Zn 0.06144 0.59586 0.63811 0.0
C749 C 0.08722 0.5464 0.5694 0.0
N750 N 0.06758 0.52796 0.57991 0.0
C751 C 0.0558 0.54291 0.60191 0.0
N752 N 0.06767 0.56955 0.60492 0.0
N753 N 0.08726 0.5716 0.58397 0.0
C754 C 0.16109 0.5772 0.59693 0.0
O755 O 0.14102 0.56328 0.61144 0.0
O756 O 0.01901 0.60616 0.64276 0.0
Zn757 Zn 0.1121 0.60273 0.5735 0.0
N758 N 0.07709 0.5768 0.6725 0.0
C759 C 0.12125 0.57117 0.69842 0.0
C760 C 0.10603 0.58157 0.6747 0.0
C761 C 0.06263 0.56125 0.69314 0.0
N762 N 0.10698 0.55613 0.71911 0.0
C763 C 0.07812 0.55073 0.71731 0.0
O764 O 0.11234 0.63537 0.60044 0.0
C765 C 0.10237 0.64736 0.62286 0.0
O766 O 0.08274 0.63522 0.6379 0.0
H767 H 0.11721 0.5937 0.65813 0.0
H768 H 0.03963 0.55745 0.69099 0.0
C769 C 0.12011 0.63392 0.52139 0.0
C770 C 0.11094 0.64898 0.49666 0.0
C771 C 0.06281 0.63312 0.50535 0.0
C772 C 0.07201 0.61853 0.53003 0.0
N773 N 0.10047 0.61898 0.53729 0.0
N774 N 0.08239 0.64804 0.48936 0.0
H775 H 0.1423 0.63487 0.52876 0.0
C776 C 1.00889 0.62702 0.62781 0.0
O777 O 0.02563 0.63942 0.60848 0.0
O778 O 0.15368 0.59091 0.57429 0.0
H779 H 0.0566 0.60724 0.54354 0.0
H780 H 0.14424 0.57503 0.70042 0.0
H781 H 0.04025 0.63293 0.49913 0.0
Zn782 Zn 0.96861 0.93397 0.63796 0.0
C783 C 0.94319 0.9833 0.56901 0.0
N784 N 0.96299 1.00165 0.57939 0.0
C785 C 0.97463 0.98674 0.6015 0.0
N786 N 0.96253 0.96024 0.60471 0.0
N787 N 0.94291 0.95822 0.58377 0.0
C788 C 0.86908 0.95282 0.59702 0.0
O789 O 0.88922 0.96667 0.61148 0.0
O790 O 1.01101 0.9236 0.64273 0.0
Zn791 Zn 0.91792 0.92719 0.57338 0.0
N792 N 0.95293 0.95307 0.6723 0.0
C793 C 0.90878 0.95874 0.69823 0.0
C794 C 0.92399 0.94829 0.67453 0.0
C795 C 0.96739 0.96867 0.69292 0.0
N796 N 0.92305 0.97383 0.71888 0.0
C797 C 0.95191 0.97924 0.71707 0.0
O798 O 0.9177 0.89447 0.60023 0.0
C799 C 0.92768 0.88247 0.62263 0.0
O800 O 0.94729 0.89463 0.6377 0.0
H801 H 0.91282 0.93611 0.658 0.0
H802 H 0.99039 0.97247 0.69075 0.0
C803 C 0.90974 0.89604 0.52125 0.0
C804 C 0.91885 0.88104 0.49646 0.0
C805 C 0.96695 0.89709 0.50493 0.0
C806 C 0.95782 0.91161 0.52967 0.0
N807 N 0.92939 0.91103 0.53708 0.0
N808 N 0.94736 0.8821 0.48902 0.0
H809 H 0.88758 0.89499 0.52871 0.0
C810 C 0.02113 0.9027 0.62783 0.0
O811 O 1.00443 0.89032 0.60846 0.0
O812 O 0.87638 0.93913 0.57432 0.0
H813 H 0.97325 0.92294 0.54312 0.0
H814 H 0.88579 0.95488 0.70025 0.0
H815 H 0.98948 0.89737 0.49861 0.0
Zn816 Zn 0.64216 0.84608 0.71856 0.0
C817 C 0.71125 0.79688 0.69331 0.0
N818 N 0.70091 0.77858 0.71316 0.0
C819 C 0.67877 0.79348 0.72475 0.0
N820 N 0.6755 0.81993 0.71256 0.0
N821 N 0.69644 0.82193 0.69295 0.0
C822 C 0.68342 0.82711 0.61903 0.0
O823 O 0.669 0.81312 0.63911 0.0
O824 O 0.63729 0.85641 0.76095 0.0
Zn825 Zn 0.70681 0.85292 0.66792 0.0
N826 N 0.60793 0.82682 0.7028 0.0
C827 C 0.58242 0.82069 0.65848 0.0
C828 C 0.60597 0.83132 0.67381 0.0
C829 C 0.58717 0.81137 0.71723 0.0
N830 N 0.56164 0.80574 0.67269 0.0
C831 C 0.56317 0.80063 0.70162 0.0
O832 O 0.67984 0.88556 0.66763 0.0
C833 C 0.6574 0.89753 0.67757 0.0
O834 O 0.64234 0.88539 0.6972 0.0
H835 H 0.6226 0.84341 0.66267 0.0
H836 H 0.58911 0.80782 0.74028 0.0
C837 C 0.75887 0.88419 0.65972 0.0
C838 C 0.78364 0.89924 0.6688 0.0
C839 C 0.77521 0.88325 0.71692 0.0
C840 C 0.75049 0.86867 0.70782 0.0
N841 N 0.74306 0.8692 0.6794 0.0
N842 N 0.79109 0.89823 0.6973 0.0
H843 H 0.7514 0.88519 0.63757 0.0
C844 C 0.65225 0.87724 0.77115 0.0
O845 O 0.67169 0.8896 0.7545 0.0
O846 O 0.70601 0.84093 0.6264 0.0
H847 H 0.73706 0.85733 0.72327 0.0
H848 H 0.58062 0.82432 0.63543 0.0
H849 H 0.78154 0.88301 0.73945 0.0
Zn850 Zn 0.09614 0.13815 0.56134 0.0
C851 C 0.0464 0.06971 0.58733 0.0
N852 N 0.02796 0.08028 0.56773 0.0
C853 C 0.04298 0.1022 0.55589 0.0
N854 N 0.06966 0.1051 0.56769 0.0
N855 N 0.07167 0.08416 0.58729 0.0
C856 C 0.0776 0.09746 0.66098 0.0
O857 O 0.06392 0.11207 0.64082 0.0
O858 O 0.10639 0.14269 0.51889 0.0
Zn859 Zn 0.10282 0.07362 0.6121 0.0
N860 N 0.07737 0.17274 0.57694 0.0
C861 C 0.07268 0.19933 0.6208 0.0
C862 C 0.08269 0.17534 0.60574 0.0
C863 C 0.06157 0.19321 0.56249 0.0
N864 N 0.05744 0.21986 0.60653 0.0
C865 C 0.05144 0.21765 0.57782 0.0
O866 O 0.1356 0.10038 0.61222 0.0
C867 C 0.14769 0.12271 0.60216 0.0
O868 O 0.13558 0.13776 0.58252 0.0
H869 H 0.09495 0.15888 0.61695 0.0
H870 H 0.0573 0.19073 0.53961 0.0
C871 C 0.13379 0.02136 0.62019 0.0
C872 C 0.14881 0.9966 0.61102 0.0
C873 C 0.13298 1.00533 0.56289 0.0
C874 C 0.11846 0.03006 0.57208 0.0
N875 N 0.1189 0.03731 0.60054 0.0
N876 N 0.14786 0.98931 0.58248 0.0
H877 H 0.13476 0.02872 0.64237 0.0
C878 C 0.12725 0.12773 0.50876 0.0
O879 O 0.13968 0.10842 0.52549 0.0
O880 O 0.09108 0.07464 0.65369 0.0
H881 H 0.10724 0.04361 0.55667 0.0
H882 H 0.07699 0.20165 0.64368 0.0
H883 H 0.1328 0.99913 0.54034 0.0
Zn884 Zn 0.32344 0.67709 0.66776 0.0
C885 C 0.35143 0.73651 0.72464 0.0
N886 N 0.32932 0.75142 0.71302 0.0
C887 C 0.31899 0.73313 0.69315 0.0
N888 N 0.33379 0.70807 0.69281 0.0
N889 N 0.35468 0.71004 0.71247 0.0
C890 C 0.37794 0.6527 0.77104 0.0
O891 O 0.35852 0.64033 0.75438 0.0
O892 O 0.32438 0.68905 0.62623 0.0
Zn893 Zn 0.38803 0.68389 0.71847 0.0
N894 N 0.28714 0.66087 0.67918 0.0
C895 C 0.25497 0.64686 0.71669 0.0
C896 C 0.27971 0.66142 0.70759 0.0
C897 C 0.27133 0.64589 0.6595 0.0
N898 N 0.2391 0.63187 0.69707 0.0
C899 C 0.24655 0.63085 0.66857 0.0
O900 O 0.38783 0.64455 0.69713 0.0
C901 C 0.37276 0.63241 0.67752 0.0
O902 O 0.35035 0.6444 0.66755 0.0
H903 H 0.29313 0.67274 0.72304 0.0
H904 H 0.27881 0.64487 0.63734 0.0
C905 C 0.44294 0.71868 0.71718 0.0
C906 C 0.46696 0.72944 0.70161 0.0
C907 C 0.4479 0.7092 0.65847 0.0
C908 C 0.42434 0.69855 0.67376 0.0
N909 N 0.42228 0.70313 0.70273 0.0
N910 N 0.46859 0.72426 0.6727 0.0
H911 H 0.44092 0.7223 0.74021 0.0
C912 C 0.34704 0.70279 0.61892 0.0
O913 O 0.36145 0.71674 0.63904 0.0
O914 O 0.39288 0.67354 0.76086 0.0
H915 H 0.40777 0.68638 0.66261 0.0
H916 H 0.24864 0.64711 0.73922 0.0
H917 H 0.44978 0.70551 0.63544 0.0
Zn918 Zn 0.93371 0.39203 0.56121 0.0
C919 C 0.98358 0.46035 0.58726 0.0
N920 N 1.00193 0.44985 0.56753 0.0
C921 C 0.98685 0.42798 0.55567 0.0
N922 N 0.96022 0.42504 0.56757 0.0
N923 N 0.95831 0.44591 0.58727 0.0
C924 C 0.95235 0.43233 0.66094 0.0
O925 O 0.96593 0.4177 0.64072 0.0
O926 O 0.92354 0.38748 0.51874 0.0
Zn927 Zn 0.92722 0.45644 0.61215 0.0
N928 N 0.95244 0.35742 0.57683 0.0
C929 C 0.95697 0.33075 0.62067 0.0
C930 C 0.94701 0.35475 0.60561 0.0
C931 C 0.96831 0.33698 0.56241 0.0
N932 N 0.97229 0.31026 0.60642 0.0
C933 C 0.9784 0.31252 0.57774 0.0
O934 O 0.89438 0.42974 0.61217 0.0
C935 C 0.88221 0.4075 0.60205 0.0
O936 O 0.89426 0.39247 0.58235 0.0
H937 H 0.93469 0.37118 0.6168 0.0
H938 H 0.97267 0.3395 0.53955 0.0
C939 C 0.89627 0.5087 0.62042 0.0
C940 C 0.88129 0.53351 0.61132 0.0
C941 C 0.89726 0.525 0.5632 0.0
C942 C 0.91174 0.50023 0.57232 0.0
N943 N 0.91121 0.49283 0.60074 0.0
N944 N 0.88232 0.54093 0.58282 0.0
H945 H 0.89524 0.50124 0.64257 0.0
C946 C 0.90272 0.40245 0.50855 0.0
O947 O 0.89026 0.42178 0.52525 0.0
O948 O 0.93896 0.45523 0.65374 0.0
H949 H 0.923 0.48674 0.55687 0.0
H950 H 0.95257 0.32838 0.64352 0.0
H951 H 0.89751 0.53131 0.54067 0.0
Zn952 Zn 0.64206 0.18376 0.81145 0.0
C953 C 0.71078 0.23332 0.83706 0.0
N954 N 0.70042 0.2516 0.8172 0.0
C955 C 0.6784 0.23662 0.80549 0.0
N956 N 0.67523 0.21012 0.81761 0.0
N957 N 0.6961 0.20819 0.83731 0.0
C958 C 0.68255 0.2026 0.91106 0.0
O959 O 0.66802 0.21628 0.89085 0.0
O960 O 0.63733 0.17348 0.76903 0.0
Zn961 Zn 0.70654 0.17719 0.86231 0.0
N962 N 0.60759 0.20269 0.82715 0.0
C963 C 0.58133 0.20778 0.87116 0.0
C964 C 0.60516 0.19757 0.856 0.0
C965 C 0.58706 0.21844 0.81273 0.0
N966 N 0.56075 0.223 0.85693 0.0
C967 C 0.56277 0.22877 0.82816 0.0
O968 O 0.67982 0.14436 0.86239 0.0
C969 C 0.6575 0.13226 0.85232 0.0
O970 O 0.64244 0.14436 0.83267 0.0
H971 H 0.62165 0.1853 0.86716 0.0
H972 H 0.58939 0.22253 0.7898 0.0
C973 C 0.75878 0.14617 0.87063 0.0
C974 C 0.78361 0.13122 0.86154 0.0
C975 C 0.7752 0.14731 0.81345 0.0
C976 C 0.75041 0.16177 0.82255 0.0
N977 N 0.74295 0.16115 0.85096 0.0
N978 N 0.79109 0.13232 0.83306 0.0
H979 H 0.75128 0.14509 0.89277 0.0
C980 C 0.65227 0.15263 0.75886 0.0
O981 O 0.67166 0.14023 0.77554 0.0
O982 O 0.70537 0.18907 0.90386 0.0
H983 H 0.73696 0.17308 0.8071 0.0
H984 H 0.57915 0.20364 0.89409 0.0
H985 H 0.78156 0.14762 0.79094 0.0
Zn986 Zn 0.42727 0.07348 0.41797 0.0
C987 C 0.48712 0.1019 0.47422 0.0
N988 N 0.50208 0.0799 0.46244 0.0
C989 C 0.48363 0.06937 0.44283 0.0
N990 N 0.45841 0.08392 0.4428 0.0
N991 N 0.46045 0.10487 0.4624 0.0
C992 C 0.40299 0.1278 0.52117 0.0
O993 O 0.39057 0.10847 0.50445 0.0
O994 O 0.43906 0.07429 0.37638 0.0
Zn995 Zn 0.43416 0.13808 0.46861 0.0
N996 N 0.41101 0.03728 0.42959 0.0
C997 C 0.39677 1.00539 0.46725 0.0
C998 C 0.41139 0.03005 0.45806 0.0
C999 C 0.39611 0.02135 0.40994 0.0
N1000 N 0.38188 0.98938 0.44766 0.0
C1001 C 0.38101 0.99665 0.4191 0.0
O1002 O 0.39478 0.13789 0.44731 0.0
C1003 C 0.38264 0.12284 0.4277 0.0
O1004 O 0.39463 0.10042 0.41774 0.0
H1005 H 0.42264 0.04358 0.47347 0.0
H1006 H 0.39521 0.02869 0.38774 0.0
C1007 C 0.46884 0.19308 0.46742 0.0
C1008 C 0.47942 0.21722 0.45192 0.0
C1009 C 0.45895 0.19835 0.4088 0.0
C1010 C 0.44849 0.17466 0.42402 0.0
N1011 N 0.45325 0.17245 0.45296 0.0
N1012 N 0.47402 0.21901 0.42306 0.0
H1013 H 0.47264 0.19093 0.49041 0.0
C1014 C 0.45274 0.09695 0.36898 0.0
O1015 O 0.4667 0.11143 0.38904 0.0
O1016 O 0.42385 0.14275 0.51104 0.0
H1017 H 0.43633 0.15811 0.41285 0.0
H1018 H 0.3969 0.9992 0.48981 0.0
H1019 H 0.4551 0.20035 0.38581 0.0
Zn1020 Zn 0.3881 0.34615 0.81137 0.0
C1021 C 0.31936 0.29664 0.83697 0.0
N1022 N 0.32978 0.27831 0.81718 0.0
C1023 C 0.3518 0.29329 0.80547 0.0
N1024 N 0.35491 0.31982 0.81753 0.0
N1025 N 0.334 0.32179 0.83717 0.0
C1026 C 0.34737 0.32732 0.91094 0.0
O1027 O 0.36189 0.31357 0.89076 0.0
O1028 O 0.39282 0.35641 0.76895 0.0
Zn1029 Zn 0.32355 0.35281 0.86214 0.0
N1030 N 0.42254 0.3272 0.82709 0.0
C1031 C 0.44872 0.32204 0.87115 0.0
C1032 C 0.4249 0.33226 0.85596 0.0
C1033 C 0.44312 0.3115 0.81268 0.0
N1034 N 0.46934 0.30687 0.85693 0.0
C1035 C 0.46739 0.30116 0.82814 0.0
O1036 O 0.35033 0.38559 0.86227 0.0
C1037 C 0.37268 0.39766 0.85223 0.0
O1038 O 0.38774 0.38555 0.83259 0.0
H1039 H 0.40838 0.34449 0.86711 0.0
H1040 H 0.44085 0.30746 0.78974 0.0
C1041 C 0.27134 0.38387 0.8704 0.0
C1042 C 0.24653 0.39885 0.86131 0.0
C1043 C 0.255 0.38285 0.8132 0.0
C1044 C 0.27977 0.36836 0.82231 0.0
N1045 N 0.28719 0.36891 0.85072 0.0
N1046 N 0.23908 0.3978 0.83281 0.0
H1047 H 0.27881 0.3849 0.89255 0.0
C1048 C 0.37783 0.37721 0.75876 0.0
O1049 O 0.35842 0.38959 0.77543 0.0
O1050 O 0.32461 0.34092 0.90369 0.0
H1051 H 0.29323 0.35707 0.80686 0.0
H1052 H 0.45084 0.32614 0.89409 0.0
H1053 H 0.24867 0.38259 0.79067 0.0
Zn1054 Zn 0.60304 0.45667 0.41784 0.0
C1055 C 0.5435 0.42841 0.47449 0.0
N1056 N 0.52848 0.45038 0.46274 0.0
C1057 C 0.54681 0.46082 0.44296 0.0
N1058 N 0.572 0.44624 0.4428 0.0
N1059 N 0.57007 0.42536 0.46248 0.0
C1060 C 0.62747 0.40238 0.52127 0.0
O1061 O 0.6399 0.42176 0.50461 0.0
O1062 O 0.59117 0.45571 0.37628 0.0
Zn1063 Zn 0.59638 0.39215 0.46863 0.0
N1064 N 0.61923 0.49297 0.4293 0.0
C1065 C 0.63328 0.5251 0.46683 0.0
C1066 C 0.61871 0.50037 0.45772 0.0
C1067 C 0.6342 0.50879 0.40962 0.0
N1068 N 0.64825 0.54099 0.4472 0.0
C1069 C 0.64925 0.53356 0.4187 0.0
O1070 O 0.63575 0.39242 0.44734 0.0
C1071 C 0.64782 0.40745 0.42766 0.0
O1072 O 0.63575 0.42981 0.41765 0.0
H1073 H 0.6074 0.48693 0.47317 0.0
H1074 H 0.6352 0.50132 0.38747 0.0
C1075 C 0.56172 0.33715 0.4674 0.0
C1076 C 0.55119 0.31298 0.45191 0.0
C1077 C 0.57171 0.33185 0.40881 0.0
C1078 C 0.58212 0.35556 0.42402 0.0
N1079 N 0.57732 0.35778 0.45295 0.0
N1080 N 0.55663 0.31118 0.42305 0.0
H1081 H 0.5579 0.33931 0.49039 0.0
C1082 C 0.57754 0.43299 0.36897 0.0
O1083 O 0.56367 0.41851 0.38909 0.0
O1084 O 0.60664 0.38742 0.51106 0.0
H1085 H 0.59429 0.3721 0.41286 0.0
H1086 H 0.63304 0.53142 0.48935 0.0
H1087 H 0.57559 0.32983 0.38582 0.0
Zn1088 Zn 0.66808 0.70668 0.85299 0.0
C1089 C 0.72453 0.67833 0.79329 0.0
N1090 N 0.71275 0.7003 0.7783 0.0
C1091 C 0.69306 0.71079 0.7967 0.0
N1092 N 0.69299 0.69624 0.8219 0.0
N1093 N 0.71263 0.67532 0.81991 0.0
C1094 C 0.77139 0.65233 0.87731 0.0
O1095 O 0.7547 0.6717 0.88972 0.0
O1096 O 0.6265 0.70583 0.84114 0.0
Zn1097 Zn 0.71879 0.6421 0.84619 0.0
N1098 N 0.67962 0.74292 0.86925 0.0
C1099 C 0.71719 0.77496 0.8834 0.0
C1100 C 0.70806 0.75026 0.8688 0.0
C1101 C 0.65993 0.75878 0.88419 0.0
N1102 N 0.69757 0.7909 0.89832 0.0
C1103 C 0.66904 0.78353 0.89926 0.0
O1104 O 0.69747 0.6423 0.88554 0.0
C1105 C 0.67782 0.65734 0.89764 0.0
O1106 O 0.66785 0.67974 0.88563 0.0
H1107 H 0.7235 0.73679 0.85752 0.0
H1108 H 0.63777 0.75136 0.88513 0.0
C1109 C 0.71755 0.5871 0.81153 0.0
C1110 C 0.70202 0.56299 0.80093 0.0
C1111 C 0.65889 0.58196 0.8213 0.0
C1112 C 0.67414 0.60562 0.83178 0.0
N1113 N 0.7031 0.60776 0.82708 0.0
N1114 N 0.67314 0.56127 0.80627 0.0
H1115 H 0.74056 0.5892 0.80778 0.0
C1116 C 0.61913 0.68318 0.82743 0.0
O1117 O 0.63921 0.66871 0.81349 0.0
O1118 O 0.76122 0.63738 0.85647 0.0
H1119 H 0.66298 0.6222 0.84392 0.0
H1120 H 0.73974 0.78122 0.88322 0.0
H1121 H 0.63588 0.58001 0.82511 0.0
Zn1122 Zn 0.89206 0.06145 0.43377 0.0
C1123 C 0.96059 0.08725 0.48349 0.0
N1124 N 0.95014 0.06747 0.50181 0.0
C1125 C 0.9282 0.0557 0.48677 0.0
N1126 N 0.92516 0.0677 0.4602 0.0
N1127 N 0.94605 0.08738 0.45828 0.0
C1128 C 0.93247 0.16107 0.45251 0.0
O1129 O 0.91789 0.14085 0.46613 0.0
O1130 O 0.88742 0.01901 0.42353 0.0
Zn1131 Zn 0.95654 0.11232 0.42723 0.0
N1132 N 0.85751 0.0771 0.45258 0.0
C1133 C 0.83098 0.121 0.45733 0.0
C1134 C 0.85493 0.10591 0.44726 0.0
C1135 C 0.83703 0.06268 0.46841 0.0
N1136 N 0.81046 0.10677 0.47262 0.0
C1137 C 0.81264 0.07805 0.4786 0.0
O1138 O 0.92984 0.11238 0.39438 0.0
C1139 C 0.90756 0.10228 0.38226 0.0
O1140 O 0.8925 0.08263 0.39434 0.0
H1141 H 0.87137 0.11709 0.43496 0.0
H1142 H 0.83949 0.0398 0.47267 0.0
C1143 C 1.00882 0.12061 0.39629 0.0
C1144 C 0.03364 0.11152 0.38133 0.0
C1145 C 0.02515 0.06341 0.39733 0.0
C1146 C 1.00036 0.07252 0.41179 0.0
N1147 N 0.99295 0.10094 0.41123 0.0
N1148 N 0.04108 0.08301 0.38239 0.0
H1149 H 1.00135 0.14276 0.39524 0.0
C1150 C 0.90238 1.00883 0.40269 0.0
O1151 O 0.92175 0.02551 0.39028 0.0
O1152 O 0.95534 0.15388 0.43906 0.0
H1153 H 0.98687 0.05707 0.42306 0.0
H1154 H 0.82869 0.14389 0.45303 0.0
H1155 H 0.03147 0.04088 0.3976 0.0
Zn1156 Zn 0.3621 0.82339 0.85284 0.0
C1157 C 0.30568 0.85173 0.7931 0.0
N1158 N 0.31744 0.82972 0.77814 0.0
C1159 C 0.33712 0.81924 0.79656 0.0
N1160 N 0.3372 0.83383 0.82174 0.0
N1161 N 0.31758 0.85476 0.81972 0.0
C1162 C 0.25893 0.87785 0.87721 0.0
O1163 O 0.27564 0.8585 0.88961 0.0
O1164 O 0.40368 0.82417 0.84097 0.0
Zn1165 Zn 0.31146 0.88801 0.84596 0.0
N1166 N 0.35052 0.78717 0.86911 0.0
C1167 C 0.31291 0.75517 0.88325 0.0
C1168 C 0.32207 0.77986 0.86866 0.0
C1169 C 0.37018 0.7713 0.88406 0.0
N1170 N 0.33251 0.73922 0.89819 0.0
C1171 C 0.36105 0.74656 0.89913 0.0
O1172 O 0.33281 0.88783 0.88529 0.0
C1173 C 0.35243 0.87278 0.89744 0.0
O1174 O 0.36238 0.85035 0.88547 0.0
H1175 H 0.30665 0.79335 0.85736 0.0
H1176 H 0.39236 0.7787 0.88501 0.0
C1177 C 0.31268 0.94299 0.81127 0.0
C1178 C 0.32821 0.96709 0.80063 0.0
C1179 C 0.37136 0.94809 0.82093 0.0
C1180 C 0.3561 0.92445 0.83145 0.0
N1181 N 0.32714 0.92233 0.8268 0.0
N1182 N 0.3571 0.96879 0.8059 0.0
H1183 H 0.28966 0.94092 0.80757 0.0
C1184 C 0.41108 0.84679 0.82722 0.0
O1185 O 0.39102 0.86126 0.81326 0.0
O1186 O 0.26905 0.89277 0.85631 0.0
H1187 H 0.36728 0.90787 0.84358 0.0
H1188 H 0.29036 0.74893 0.88307 0.0
H1189 H 0.39437 0.95002 0.82469 0.0
Zn1190 Zn 0.13806 0.46849 0.43389 0.0
C1191 C 0.069 0.44319 0.48315 0.0
N1192 N 0.07933 0.46306 0.50144 0.0
C1193 C 0.10147 0.47465 0.48655 0.0
N1194 N 0.10476 0.46244 0.4601 0.0
N1195 N 0.08384 0.44281 0.45811 0.0
C1196 C 0.09717 0.36897 0.45279 0.0
O1197 O 0.11161 0.38913 0.46665 0.0
O1198 O 0.14288 0.51088 0.42355 0.0
Zn1199 Zn 0.07348 0.41777 0.42713 0.0
N1200 N 0.17239 0.45276 0.45303 0.0
C1201 C 0.19822 0.40858 0.45875 0.0
C1202 C 0.17456 0.42383 0.44828 0.0
C1203 C 0.19304 0.4672 0.46861 0.0
N1204 N 0.21891 0.42281 0.47381 0.0
C1205 C 0.21716 0.45168 0.47919 0.0
O1206 O 0.10035 0.41758 0.39441 0.0
C1207 C 0.12274 0.42757 0.3824 0.0
O1208 O 0.13781 0.44718 0.39454 0.0
H1209 H 0.158 0.41267 0.4361 0.0
H1210 H 0.19093 0.4902 0.47237 0.0
C1211 C 0.02137 0.4095 0.39595 0.0
C1212 C 0.99658 0.41858 0.38092 0.0
C1213 C 1.00498 0.46669 0.39696 0.0
C1214 C 0.02972 0.45759 0.41151 0.0
N1215 N 0.03717 0.42918 0.41095 0.0
N1216 N 0.98911 0.44707 0.38196 0.0
H1217 H 0.02885 0.38735 0.39492 0.0
C1218 C 0.12794 0.52105 0.40269 0.0
O1219 O 0.10853 0.50438 0.39032 0.0
O1220 O 0.07447 0.37624 0.4391 0.0
H1221 H 0.04315 0.47304 0.42284 0.0
H1222 H 0.20019 0.38558 0.45491 0.0
H1223 H 0.99864 0.48921 0.39723 0.0
Zn1224 Zn 0.71864 0.38803 0.68405 0.0
C1225 C 0.69316 0.31907 0.73334 0.0
N1226 N 0.71289 0.32948 0.75173 0.0
C1227 C 0.72455 0.35159 0.73685 0.0
N1228 N 0.71252 0.35477 0.7103 0.0
N1229 N 0.69294 0.33382 0.70824 0.0
C1230 C 0.61908 0.34691 0.70276 0.0
O1231 O 0.63918 0.36138 0.71668 0.0
O1232 O 0.76104 0.39278 0.67366 0.0
Zn1233 Zn 0.66801 0.32341 0.67717 0.0
N1234 N 0.70297 0.42236 0.70318 0.0
C1235 C 0.65879 0.4482 0.70898 0.0
C1236 C 0.67402 0.42454 0.69848 0.0
C1237 C 0.71745 0.44299 0.71874 0.0
N1238 N 0.67307 0.46887 0.72404 0.0
C1239 C 0.70194 0.46711 0.72936 0.0
O1240 O 0.66776 0.35032 0.64449 0.0
C1241 C 0.67771 0.37276 0.63253 0.0
O1242 O 0.6973 0.38783 0.64471 0.0
H1243 H 0.66284 0.40798 0.68633 0.0
H1244 H 0.74045 0.44087 0.72247 0.0
C1245 C 0.65993 0.27132 0.64596 0.0
C1246 C 0.66908 0.24656 0.63093 0.0
C1247 C 0.71718 0.25511 0.64694 0.0
C1248 C 0.70801 0.27982 0.6615 0.0
N1249 N 0.67957 0.28717 0.66096 0.0
N1250 N 0.6976 0.23918 0.63196 0.0
H1251 H 0.63776 0.27874 0.64494 0.0
C1252 C 0.77113 0.37788 0.65273 0.0
O1253 O 0.7544 0.35854 0.64035 0.0
O1254 O 0.62644 0.32426 0.68905 0.0
H1255 H 0.72342 0.29329 0.67283 0.0
H1256 H 0.63579 0.45018 0.70519 0.0
H1257 H 0.73972 0.24884 0.6472 0.0
Zn1258 Zn 0.57362 0.11218 0.60274 0.0
C1259 C 0.6021 0.05567 0.54315 0.0
N1260 N 0.58022 0.06752 0.52806 0.0
C1261 C 0.56971 0.08725 0.54641 0.0
N1262 N 0.58415 0.08727 0.57168 0.0
N1263 N 0.60502 0.06758 0.56978 0.0
C1264 C 0.62774 1.00869 0.62717 0.0
O1265 O 0.60835 0.02536 0.63956 0.0
O1266 O 0.57473 0.15373 0.59091 0.0
Zn1267 Zn 0.63812 0.06134 0.5962 0.0
N1268 N 0.53724 0.10074 0.61879 0.0
C1269 C 0.5051 0.0632 0.63277 0.0
C1270 C 0.52986 0.07232 0.61827 0.0
C1271 C 0.52137 0.12042 0.63372 0.0
N1272 N 0.48915 0.08281 0.6477 0.0
C1273 C 0.49656 0.11132 0.64871 0.0
O1274 O 0.63769 0.08251 0.63562 0.0
C1275 C 0.62265 0.10218 0.64769 0.0
O1276 O 0.60036 0.11227 0.63557 0.0
H1277 H 0.54336 0.05688 0.60701 0.0
H1278 H 0.52881 0.14257 0.63474 0.0
C1279 C 0.69318 0.06262 0.5616 0.0
C1280 C 0.71755 0.07803 0.55141 0.0
C1281 C 0.69904 0.12099 0.57253 0.0
C1282 C 0.67513 0.10586 0.5826 0.0
N1283 N 0.67265 0.07703 0.57737 0.0
N1284 N 0.71963 0.10677 0.55732 0.0
H1285 H 0.69081 0.03972 0.55741 0.0
C1286 C 0.59752 0.16098 0.57735 0.0
O1287 O 0.61207 0.14079 0.56365 0.0
O1288 O 0.64276 0.0189 0.60639 0.0
H1289 H 0.65864 0.11701 0.59486 0.0
H1290 H 0.4988 0.04067 0.63253 0.0
H1291 H 0.70127 0.14389 0.57678 0.0
Zn1292 Zn 0.36223 0.20666 0.67702 0.0
C1293 C 0.30568 0.17839 0.73668 0.0
N1294 N 0.31744 0.20039 0.75165 0.0
C1295 C 0.33717 0.21084 0.73326 0.0
N1296 N 0.33729 0.19623 0.70809 0.0
N1297 N 0.31763 0.17533 0.71009 0.0
C1298 C 0.25891 0.15228 0.65258 0.0
O1299 O 0.27561 0.17162 0.64016 0.0
O1300 O 0.40381 0.20571 0.68886 0.0
Zn1301 Zn 0.31148 0.1421 0.68379 0.0
N1302 N 0.35074 0.24294 0.66083 0.0
C1303 C 0.31319 0.27506 0.64679 0.0
C1304 C 0.32231 0.25033 0.66134 0.0
C1305 C 0.37042 0.25879 0.64588 0.0
N1306 N 0.33281 0.29098 0.63184 0.0
C1307 C 0.36133 0.28357 0.63085 0.0
O1308 O 0.33281 0.14233 0.64443 0.0
C1309 C 0.35244 0.15738 0.63232 0.0
O1310 O 0.36242 0.17978 0.64434 0.0
H1311 H 0.30686 0.23686 0.67263 0.0
H1312 H 0.39258 0.25134 0.64489 0.0
C1313 C 0.3127 0.08711 0.71847 0.0
C1314 C 0.3282 0.06297 0.72905 0.0
C1315 C 0.37133 0.08187 0.70861 0.0
C1316 C 0.3561 0.10555 0.69814 0.0
N1317 N 0.32716 0.10774 0.70289 0.0
N1318 N 0.35707 0.0612 0.72368 0.0
H1319 H 0.2897 0.08924 0.72224 0.0
C1320 C 0.41114 0.183 0.70249 0.0
O1321 O 0.39104 0.16852 0.71639 0.0
O1322 O 0.26906 0.13737 0.67346 0.0
H1323 H 0.36727 0.1221 0.68598 0.0
H1324 H 0.29066 0.28136 0.64701 0.0
H1325 H 0.39433 0.07988 0.70478 0.0
Zn1326 Zn 0.39216 0.46857 0.59612 0.0
C1327 C 0.46111 0.44315 0.54678 0.0
N1328 N 0.45072 0.46295 0.52846 0.0
C1329 C 0.42862 0.47459 0.54339 0.0
N1330 N 0.42543 0.46247 0.56989 0.0
N1331 N 0.44637 0.44286 0.57188 0.0
C1332 C 0.43311 0.36902 0.57729 0.0
O1333 O 0.41865 0.38916 0.56342 0.0
O1334 O 0.38739 0.51099 0.60639 0.0
Zn1335 Zn 0.45676 0.41786 0.6029 0.0
N1336 N 0.35783 0.45284 0.577 0.0
C1337 C 0.33199 0.40865 0.57133 0.0
C1338 C 0.35566 0.42391 0.58178 0.0
C1339 C 0.33718 0.46727 0.56141 0.0
N1340 N 0.31131 0.42287 0.55624 0.0
C1341 C 0.31306 0.45173 0.55084 0.0
O1342 O 0.42987 0.41767 0.63559 0.0
C1343 C 0.40747 0.42766 0.64761 0.0
O1344 O 0.39241 0.44729 0.63549 0.0
H1345 H 0.37222 0.41277 0.59396 0.0
H1346 H 0.33929 0.49026 0.55762 0.0
C1347 C 0.50889 0.4096 0.63407 0.0
C1348 C 0.53366 0.41867 0.64912 0.0
C1349 C 0.5252 0.46681 0.63319 0.0
C1350 C 0.50047 0.45771 0.61862 0.0
N1351 N 0.49306 0.42929 0.61911 0.0
N1352 N 0.54109 0.44718 0.64814 0.0
H1353 H 0.50143 0.38745 0.63505 0.0
C1354 C 0.40237 0.52119 0.62719 0.0
O1355 O 0.42178 0.50453 0.63958 0.0
O1356 O 0.4558 0.37632 0.59097 0.0
H1357 H 0.48702 0.47317 0.60733 0.0
H1358 H 0.33002 0.38566 0.57518 0.0
H1359 H 0.53151 0.48934 0.63298 0.0
Zn1360 Zn 0.85301 0.6678 0.70661 0.0
C1361 C 0.79347 0.72446 0.67837 0.0
N1362 N 0.77845 0.7127 0.70033 0.0
C1363 C 0.79676 0.6929 0.71075 0.0
N1364 N 0.82196 0.69275 0.69618 0.0
N1365 N 0.82004 0.71245 0.67532 0.0
C1366 C 0.87742 0.77122 0.65227 0.0
O1367 O 0.88985 0.75456 0.67166 0.0
O1368 O 0.84115 0.62624 0.7057 0.0
Zn1369 Zn 0.84632 0.71859 0.64209 0.0
N1370 N 0.86921 0.67932 0.74288 0.0
C1371 C 0.88327 0.71689 0.77496 0.0
C1372 C 0.8687 0.70775 0.75024 0.0
C1373 C 0.88418 0.65966 0.75873 0.0
N1374 N 0.89823 0.69729 0.79088 0.0
C1375 C 0.89922 0.66877 0.78349 0.0
O1376 O 0.88569 0.69729 0.64233 0.0
C1377 C 0.89776 0.67761 0.65737 0.0
O1378 O 0.8857 0.66761 0.67973 0.0
H1379 H 0.85739 0.72318 0.73678 0.0
H1380 H 0.88517 0.63749 0.7513 0.0
C1381 C 0.81163 0.71731 0.58711 0.0
C1382 C 0.80102 0.70178 0.563 0.0
C1383 C 0.82147 0.65868 0.58194 0.0
C1384 C 0.83196 0.67394 0.60559 0.0
N1385 N 0.82722 0.70288 0.60775 0.0
N1386 N 0.80639 0.67291 0.56127 0.0
H1387 H 0.80785 0.74031 0.58921 0.0
C1388 C 0.8275 0.6189 0.68301 0.0
O1389 O 0.81359 0.63899 0.66853 0.0
O1390 O 0.85659 0.76102 0.63733 0.0
H1391 H 0.84413 0.66279 0.62215 0.0
H1392 H 0.88304 0.73943 0.78124 0.0
H1393 H 0.8253 0.63568 0.57998 0.0
Zn1394 Zn 0.84611 0.31128 0.88819 0.0
C1395 C 0.79627 0.33743 0.81989 0.0
N1396 N 0.77782 0.31784 0.83049 0.0
C1397 C 0.79288 0.30594 0.85235 0.0
N1398 N 0.81959 0.31769 0.85519 0.0
N1399 N 0.82158 0.33731 0.83426 0.0
C1400 C 0.82759 0.41098 0.84753 0.0
O1401 O 0.81393 0.39083 0.86217 0.0
O1402 O 0.85632 0.26881 0.89267 0.0
Zn1403 Zn 0.85276 0.36207 0.82369 0.0
N1404 N 0.82739 0.32685 0.92282 0.0
C1405 C 0.82281 0.37068 0.94949 0.0
C1406 C 0.83277 0.35564 0.92547 0.0
C1407 C 0.81156 0.31241 0.94327 0.0
N1408 N 0.80755 0.35641 0.97 0.0
C1409 C 0.80148 0.32772 0.96774 0.0
O1410 O 0.88555 0.36216 0.85045 0.0
C1411 C 0.89766 0.35208 0.87275 0.0
O1412 O 0.88556 0.33243 0.88779 0.0
H1413 H 0.84504 0.36685 0.90902 0.0
H1414 H 0.80724 0.28955 0.94075 0.0
C1415 C 0.88372 0.37009 0.77142 0.0
C1416 C 0.89872 0.3609 0.74666 0.0
C1417 C 0.88285 0.31279 0.75543 0.0
C1418 C 0.86835 0.32201 0.78015 0.0
N1419 N 0.86882 0.35047 0.78739 0.0
N1420 N 0.89774 0.33235 0.73939 0.0
H1421 H 0.88471 0.39228 0.77877 0.0
C1422 C 0.87716 0.25868 0.87769 0.0
O1423 O 0.8896 0.27543 0.85839 0.0
O1424 O 0.84107 0.40368 0.82471 0.0
H1425 H 0.85711 0.30662 0.79372 0.0
H1426 H 0.82718 0.39354 0.95185 0.0
H1427 H 0.88264 0.29023 0.74924 0.0
Zn1428 Zn 0.56144 0.93364 0.39226 0.0
C1429 C 0.58677 0.98292 0.46128 0.0
N1430 N 0.56687 1.00121 0.45098 0.0
C1431 C 0.55527 0.98631 0.42885 0.0
N1432 N 0.56749 0.95987 0.42554 0.0
N1433 N 0.58715 0.95789 0.44645 0.0
C1434 C 0.66102 0.95251 0.433 0.0
O1435 O 0.64084 0.96634 0.41855 0.0
O1436 O 0.51903 0.92331 0.38745 0.0
Zn1437 Zn 0.61223 0.92692 0.4568 0.0
N1438 N 0.57716 0.95277 0.35794 0.0
C1439 C 0.62133 0.95846 0.33206 0.0
C1440 C 0.60609 0.948 0.35574 0.0
C1441 C 0.56271 0.96836 0.33731 0.0
N1442 N 0.60708 0.97355 0.3114 0.0
C1443 C 0.57822 0.97894 0.31317 0.0
O1444 O 0.61239 0.8942 0.42995 0.0
C1445 C 0.60239 0.88217 0.40757 0.0
O1446 O 0.58276 0.89429 0.39252 0.0
H1447 H 0.61726 0.93581 0.37228 0.0
H1448 H 0.5397 0.97214 0.33944 0.0
C1449 C 0.62059 0.89575 0.5089 0.0
C1450 C 0.61156 0.88075 0.53373 0.0
C1451 C 0.56344 0.89686 0.52545 0.0
C1452 C 0.57249 0.91138 0.50068 0.0
N1453 N 0.60088 0.91076 0.49315 0.0
N1454 N 0.58308 0.88185 0.54128 0.0
H1455 H 0.64271 0.89468 0.50135 0.0
C1456 C 0.50886 0.90245 0.40238 0.0
O1457 O 0.52553 0.89005 0.42176 0.0
O1458 O 0.65377 0.93888 0.45574 0.0
H1459 H 0.55702 0.92273 0.48729 0.0
H1460 H 0.64433 0.95461 0.33007 0.0
H1461 H 0.54094 0.89717 0.53186 0.0
Zn1462 Zn 0.17739 0.16784 0.82353 0.0
C1463 C 0.23707 0.22425 0.85197 0.0
N1464 N 0.25209 0.21247 0.83002 0.0
C1465 C 0.23371 0.19278 0.8195 0.0
N1466 N 0.20848 0.19272 0.83402 0.0
N1467 N 0.21044 0.21236 0.85494 0.0
C1468 C 0.15293 0.27114 0.87783 0.0
O1469 O 0.14052 0.25445 0.85847 0.0
O1470 O 0.18922 0.12628 0.82446 0.0
Zn1471 Zn 0.18407 0.21855 0.88809 0.0
N1472 N 0.16125 0.1794 0.78725 0.0
C1473 C 0.14719 0.21704 0.75525 0.0
C1474 C 0.16174 0.20785 0.77996 0.0
C1475 C 0.14631 0.15976 0.77134 0.0
N1476 N 0.13226 0.19746 0.73927 0.0
C1477 C 0.13128 0.16893 0.74659 0.0
O1478 O 0.14468 0.1973 0.88777 0.0
C1479 C 0.13257 0.17766 0.87271 0.0
O1480 O 0.14463 0.16765 0.85035 0.0
H1481 H 0.17301 0.22326 0.79348 0.0
H1482 H 0.14532 0.13759 0.77873 0.0
C1483 C 0.21869 0.21732 0.94313 0.0
C1484 C 0.22906 0.20187 0.9674 0.0
C1485 C 0.20828 0.15882 0.9487 0.0
C1486 C 0.19803 0.174 0.92489 0.0
N1487 N 0.20303 0.20288 0.92254 0.0
N1488 N 0.22341 0.17307 0.96933 0.0
H1489 H 0.22268 0.24027 0.94087 0.0
C1490 C 0.20284 0.11896 0.84719 0.0
O1491 O 0.21667 0.13908 0.8617 0.0
O1492 O 0.17378 0.26098 0.89278 0.0
H1493 H 0.18584 0.16283 0.90836 0.0
H1494 H 0.14741 0.23959 0.74902 0.0
H1495 H 0.20424 0.13588 0.95081 0.0
Zn1496 Zn 0.96873 0.09613 0.89203 0.0
C1497 C 0.94301 0.04665 0.96075 0.0
N1498 N 0.9627 0.02825 0.95027 0.0
C1499 C 0.97446 0.04322 0.92827 0.0
N1500 N 0.96253 0.06982 0.92523 0.0
N1501 N 0.94292 0.07184 0.94617 0.0
C1502 C 0.86905 0.07743 0.93314 0.0
O1503 O 0.88913 0.06353 0.91862 0.0
O1504 O 1.01116 0.10643 0.88732 0.0
Zn1505 Zn 0.91802 0.10293 0.95662 0.0
N1506 N 0.95305 0.07705 0.85766 0.0
C1507 C 0.90887 0.07138 0.8318 0.0
C1508 C 0.92411 0.08181 0.85548 0.0
C1509 C 0.9675 0.06149 0.83701 0.0
N1510 N 0.92311 0.05633 0.81111 0.0
C1511 C 0.95198 0.05094 0.81286 0.0
O1512 O 0.91778 0.13556 0.92968 0.0
C1513 C 0.92775 0.14758 0.90728 0.0
O1514 O 0.94741 0.13548 0.89224 0.0
H1515 H 0.91294 0.09395 0.87206 0.0
H1516 H 0.9905 0.05771 0.83913 0.0
C1517 C 0.90992 0.13412 1.00873 0.0
C1518 C 0.91904 0.14918 0.03348 0.0
C1519 C 0.96719 0.13332 0.02487 0.0
C1520 C 0.95804 0.11874 1.00017 0.0
N1521 N 0.92959 0.11918 0.99285 0.0
N1522 N 0.94758 0.14824 0.04083 0.0
H1523 H 0.88775 0.13506 1.00133 0.0
C1524 C 0.02132 0.12729 0.90225 0.0
O1525 O 1.00462 0.13972 0.92159 0.0
O1526 O 0.87644 0.09109 0.95581 0.0
H1527 H 0.97348 0.10746 0.98669 0.0
H1528 H 0.88587 0.07523 0.82982 0.0
H1529 H 0.98974 0.13315 0.03112 0.0
Zn1530 Zn 0.68369 0.31119 0.14207 0.0
C1531 C 0.73356 0.33718 0.21041 0.0
N1532 N 0.75191 0.31746 0.19991 0.0
C1533 C 0.73684 0.30562 0.17803 0.0
N1534 N 0.71021 0.31753 0.17508 0.0
N1535 N 0.70829 0.33721 0.19596 0.0
C1536 C 0.70239 0.41087 0.18236 0.0
O1537 O 0.71595 0.39064 0.16774 0.0
O1538 O 0.67353 0.26872 0.13754 0.0
Zn1539 Zn 0.67722 0.36211 0.20649 0.0
N1540 N 0.70239 0.3268 0.10744 0.0
C1541 C 0.70686 0.37061 0.08072 0.0
C1542 C 0.69693 0.35557 0.10475 0.0
C1543 C 0.71826 0.31237 0.08701 0.0
N1544 N 0.72217 0.35636 0.06023 0.0
C1545 C 0.72832 0.32768 0.06252 0.0
O1546 O 0.64435 0.36213 0.17983 0.0
C1547 C 0.63218 0.35201 0.15758 0.0
O1548 O 0.64423 0.33232 0.14254 0.0
H1549 H 0.68461 0.36676 0.12118 0.0
H1550 H 0.72265 0.28953 0.08956 0.0
C1551 C 0.6463 0.37039 0.25876 0.0
C1552 C 0.63135 0.3613 0.2836 0.0
C1553 C 0.64738 0.3132 0.27513 0.0
C1554 C 0.66183 0.3223 0.25034 0.0
N1555 N 0.66125 0.35071 0.24291 0.0
N1556 N 0.63243 0.3328 0.29106 0.0
H1557 H 0.64522 0.39253 0.25128 0.0
C1558 C 0.65274 0.25852 0.15255 0.0
O1559 O 0.6403 0.27522 0.17189 0.0
O1560 O 0.689 0.40368 0.20526 0.0
H1561 H 0.67311 0.30686 0.23686 0.0
H1562 H 0.70243 0.39346 0.07833 0.0
H1563 H 0.64768 0.29068 0.28147 0.0
Zn1564 Zn 0.61206 0.10278 0.07351 0.0
C1565 C 0.55583 0.0429 0.10193 0.0
N1566 N 0.5676 0.02797 0.07991 0.0
C1567 C 0.5872 0.04644 0.06938 0.0
N1568 N 0.58722 0.07163 0.08395 0.0
N1569 N 0.56764 0.06956 0.10492 0.0
C1570 C 0.50895 0.12707 0.12797 0.0
O1571 O 0.52569 0.13947 0.10864 0.0
O1572 O 0.65366 0.09098 0.07426 0.0
Zn1573 Zn 0.56147 0.09581 0.13817 0.0
N1574 N 0.60043 0.11906 0.03731 0.0
C1575 C 0.56277 0.13323 1.00537 0.0
C1576 C 0.57197 0.11862 0.03005 0.0
C1577 C 0.62007 0.13401 0.02141 0.0
N1578 N 0.58235 0.14815 0.98939 0.0
C1579 C 0.6109 0.14909 0.99669 0.0
O1580 O 0.58281 0.13515 0.13802 0.0
C1581 C 0.6024 0.14732 0.12295 0.0
O1582 O 0.61232 0.13538 0.10049 0.0
H1583 H 0.55656 0.10733 0.04355 0.0
H1584 H 0.64225 0.13495 0.02878 0.0
C1585 C 0.56268 0.06113 0.19317 0.0
C1586 C 0.5782 0.05049 0.21727 0.0
C1587 C 0.62135 0.0708 0.19827 0.0
C1588 C 0.6061 0.08132 0.17463 0.0
N1589 N 0.57714 0.07666 0.1725 0.0
N1590 N 0.6071 0.05578 0.21897 0.0
H1591 H 0.53966 0.05742 0.19109 0.0
C1592 C 0.66109 0.07726 0.09688 0.0
O1593 O 0.64106 0.06327 0.11137 0.0
O1594 O 0.51905 0.10617 0.14289 0.0
H1595 H 0.61727 0.09344 0.15805 0.0
H1596 H 0.54021 0.13305 0.99916 0.0
H1597 H 0.64437 0.07457 0.20021 0.0
Zn1598 Zn 0.41799 0.4271 0.07336 0.0
C1599 C 0.47455 0.48677 0.10155 0.0
N1600 N 0.46288 0.50167 0.07946 0.0
C1601 C 0.44315 0.48328 0.06904 0.0
N1602 N 0.44294 0.45817 0.08375 0.0
N1603 N 0.46255 0.46021 0.1047 0.0
C1604 C 0.52109 0.40266 0.12793 0.0
O1605 O 0.50438 0.39028 0.10857 0.0
O1606 O 0.37643 0.43901 0.07417 0.0
Zn1607 Zn 0.4686 0.434 0.13801 0.0
N1608 N 0.42954 0.41086 0.03712 0.0
C1609 C 0.46713 0.39681 1.00506 0.0
C1610 C 0.45798 0.41138 0.02977 0.0
C1611 C 0.40989 0.39587 0.02127 0.0
N1612 N 0.44754 0.38184 0.98913 0.0
C1613 C 0.41901 0.38084 0.99651 0.0
O1614 O 0.44722 0.39469 0.13783 0.0
C1615 C 0.42764 0.38251 0.12276 0.0
O1616 O 0.41771 0.39446 0.1003 0.0
H1617 H 0.4734 0.4227 0.04323 0.0
H1618 H 0.38772 0.39488 0.0287 0.0
C1619 C 0.46738 0.46872 0.19296 0.0
C1620 C 0.45185 0.47941 0.21703 0.0
C1621 C 0.40868 0.45919 0.198 0.0
C1622 C 0.42394 0.44862 0.17438 0.0
N1623 N 0.45291 0.45321 0.17229 0.0
N1624 N 0.42294 0.4742 0.21871 0.0
H1625 H 0.49041 0.47236 0.19091 0.0
C1626 C 0.36906 0.45276 0.0968 0.0
O1627 O 0.38914 0.46674 0.11124 0.0
O1628 O 0.51099 0.42359 0.14282 0.0
H1629 H 0.41276 0.4365 0.15781 0.0
H1630 H 0.48967 0.39705 0.99878 0.0
H1631 H 0.38565 0.45548 0.19991 0.0
C1632 C 0.15411 0.42606 0.33757 0.0
C1633 C 0.13143 0.41463 0.35423 0.0
H1634 H 0.17863 0.42318 0.29829 0.0
C1635 C 0.11671 0.39 0.34385 0.0
H1636 H 0.166 0.44485 0.34494 0.0
C1637 C 0.12399 0.37751 0.31735 0.0
C1638 C 0.14618 0.38927 0.30034 0.0
H1639 H 0.09931 0.38027 0.35618 0.0
H1640 H 0.11189 0.35883 0.31003 0.0
C1641 C 0.16136 0.41355 0.31086 0.0
C1642 C 0.66367 0.61872 0.96915 0.0
C1643 C 0.6393 0.63384 0.97958 0.0
H1644 H 0.69511 0.61417 0.93518 0.0
C1645 C 0.62751 0.65595 0.9625 0.0
H1646 H 0.67332 0.60152 0.98178 0.0
C1647 C 0.64007 0.66326 0.93603 0.0
C1648 C 0.6648 0.64862 0.92576 0.0
H1649 H 0.60876 0.668 0.96974 0.0
H1650 H 0.63031 0.6806 0.92366 0.0
C1651 C 0.67625 0.62599 0.94248 0.0
C1652 C 0.87624 0.10379 0.33738 0.0
C1653 C 0.89894 0.11519 0.35405 0.0
H1654 H 0.85171 0.10674 0.29812 0.0
C1655 C 0.91369 0.13981 0.34368 0.0
H1656 H 0.86434 0.08501 0.34475 0.0
C1657 C 0.90639 0.15234 0.31719 0.0
C1658 C 0.88418 0.14062 0.30018 0.0
H1659 H 0.93109 0.14952 0.356 0.0
H1660 H 0.91851 0.17101 0.30988 0.0
C1661 C 0.86899 0.11633 0.31069 0.0
C1662 C 0.40262 0.87418 0.96239 0.0
C1663 C 0.39078 0.89628 0.97946 0.0
H1664 H 0.39991 0.84956 0.92353 0.0
C1665 C 0.36643 0.91139 0.96898 0.0
H1666 H 0.42135 0.86214 0.96968 0.0
C1667 C 0.35391 0.90414 0.94228 0.0
C1668 C 0.36541 0.88152 0.92557 0.0
H1669 H 0.35674 0.92859 0.98159 0.0
H1670 H 0.33506 0.91595 0.93494 0.0
C1671 C 0.39012 0.86689 0.93589 0.0
C1672 C 0.15411 0.60379 0.19248 0.0
C1673 C 0.13146 0.61524 0.17578 0.0
H1674 H 0.1786 0.60669 0.23177 0.0
C1675 C 0.11676 0.63989 0.18613 0.0
H1676 H 0.16598 0.58498 0.18513 0.0
C1677 C 0.12404 0.65241 0.21262 0.0
C1678 C 0.1462 0.64064 0.22966 0.0
H1679 H 0.09938 0.64964 0.17379 0.0
H1680 H 0.11195 0.67111 0.21992 0.0
C1681 C 0.16136 0.61633 0.21918 0.0
C1682 C 0.90264 0.65621 0.0673 0.0
C1683 C 0.89087 0.63406 0.05026 0.0
H1684 H 0.89982 0.68089 0.10613 0.0
C1685 C 0.86653 0.61892 0.06071 0.0
H1686 H 0.92136 0.66828 0.06004 0.0
C1687 C 0.85396 0.62619 0.08739 0.0
C1688 C 0.86539 0.64884 0.10409 0.0
H1689 H 0.85691 0.60169 0.04811 0.0
H1690 H 0.83512 0.61434 0.09471 0.0
C1691 C 0.89008 0.66352 0.09378 0.0
C1692 C 0.91339 0.89001 0.18608 0.0
C1693 C 0.8987 0.91468 0.17574 0.0
H1694 H 0.91819 0.85879 0.21987 0.0
C1695 C 0.87604 0.92612 0.19243 0.0
H1696 H 0.93076 0.88027 0.17374 0.0
C1697 C 0.86879 0.91358 0.21913 0.0
C1698 C 0.88395 0.88927 0.22962 0.0
H1699 H 0.86417 0.94493 0.18509 0.0
H1700 H 0.85155 0.92322 0.23173 0.0
C1701 C 0.9061 0.8775 0.21257 0.0
C1702 C 0.17623 0.90414 0.08773 0.0
C1703 C 0.16476 0.88149 0.10441 0.0
H1704 H 0.17338 0.92863 0.04844 0.0
C1705 C 0.14009 0.86682 0.09405 0.0
H1706 H 0.19506 0.91598 0.0951 0.0
C1707 C 0.1276 0.87411 0.06755 0.0
C1708 C 0.13941 0.89626 0.05052 0.0
H1709 H 0.13032 0.84945 0.10639 0.0
H1710 H 0.10889 0.86204 0.06024 0.0
C1711 C 0.16372 0.9114 0.06103 0.0
C1712 C 0.33776 0.15416 0.42621 0.0
C1713 C 0.35449 0.13155 0.41473 0.0
H1714 H 0.29843 0.17859 0.42336 0.0
C1715 C 0.34417 0.1169 0.39003 0.0
H1716 H 0.34509 0.16599 0.44505 0.0
C1717 C 0.31766 0.12417 0.37753 0.0
C1718 C 0.30058 0.14627 0.38935 0.0
H1719 H 0.35654 0.09956 0.38025 0.0
H1720 H 0.31039 0.11211 0.3588 0.0
C1721 C 0.31105 0.1614 0.41369 0.0
C1722 C 0.4113 0.46918 0.86628 0.0
C1723 C 0.39612 0.47969 0.89056 0.0
H1724 H 0.41593 0.43512 0.83495 0.0
C1725 C 0.37391 0.4627 0.9023 0.0
H1726 H 0.42858 0.48175 0.85667 0.0
C1727 C 0.3666 0.43621 0.88978 0.0
C1728 C 0.38134 0.42583 0.86515 0.0
H1729 H 0.3618 0.47001 0.92097 0.0
H1730 H 0.3492 0.4239 0.8995 0.0
C1731 C 0.40404 0.44249 0.85374 0.0
C1732 C 0.7127 0.40613 0.37736 0.0
C1733 C 0.72979 0.38401 0.38913 0.0
H1734 H 0.67384 0.43076 0.38018 0.0
C1735 C 0.71938 0.36889 0.4135 0.0
H1736 H 0.71993 0.41818 0.35861 0.0
C1737 C 0.69271 0.37615 0.42609 0.0
C1738 C 0.67596 0.39877 0.41465 0.0
H1739 H 0.73201 0.35169 0.42314 0.0
H1740 H 0.68541 0.36431 0.44495 0.0
C1741 C 0.68623 0.41342 0.38993 0.0
C1742 C 0.62617 0.08741 0.85381 0.0
C1743 C 0.64887 0.10407 0.86522 0.0
H1744 H 0.60163 0.04815 0.85674 0.0
C1745 C 0.66361 0.09368 0.88983 0.0
H1746 H 0.61427 0.09479 0.83503 0.0
C1747 C 0.65632 0.06719 0.90235 0.0
C1748 C 0.63411 0.05019 0.89062 0.0
H1749 H 0.68102 0.10599 0.89955 0.0
H1750 H 0.66844 0.05987 0.92102 0.0
C1751 C 0.61891 0.06071 0.86634 0.0
C1752 C 0.31735 0.90621 0.15238 0.0
C1753 C 0.30028 0.88406 0.14064 0.0
H1754 H 0.35619 0.93085 0.14954 0.0
C1755 C 0.3107 0.86893 0.11629 0.0
H1756 H 0.3101 0.91828 0.17111 0.0
C1757 C 0.33737 0.87618 0.10369 0.0
C1758 C 0.35411 0.89881 0.11512 0.0
H1759 H 0.29808 0.8517 0.10667 0.0
H1760 H 0.34468 0.86432 0.08486 0.0
C1761 C 0.34382 0.9135 0.13981 0.0
C1762 C 0.12618 0.44248 0.17613 0.0
C1763 C 0.14886 0.4258 0.1647 0.0
H1764 H 0.10167 0.48175 0.1732 0.0
C1765 C 0.16357 0.43615 0.14005 0.0
H1766 H 0.11431 0.43512 0.19493 0.0
C1767 C 0.15628 0.46264 0.12753 0.0
C1768 C 0.1341 0.47966 0.13928 0.0
H1769 H 0.18096 0.42382 0.13032 0.0
H1770 H 0.16837 0.46994 0.10883 0.0
C1771 C 0.11892 0.46917 0.16358 0.0
C1772 C 0.68621 0.61668 0.13974 0.0
C1773 C 0.67584 0.63137 0.11508 0.0
H1774 H 0.72001 0.61192 0.17095 0.0
C1775 C 0.69253 0.65403 0.10362 0.0
H1776 H 0.67387 0.59931 0.14949 0.0
C1777 C 0.71922 0.6613 0.11615 0.0
C1778 C 0.72972 0.64616 0.14047 0.0
H1779 H 0.68516 0.66588 0.08481 0.0
H1780 H 0.73181 0.67854 0.10651 0.0
C1781 C 0.7127 0.62399 0.15225 0.0
C1782 C 0.9113 0.06084 0.16357 0.0
C1783 C 0.89609 0.05032 0.1393 0.0
H1784 H 0.91597 0.09492 0.19487 0.0
C1785 C 0.87388 0.06732 0.12757 0.0
H1786 H 0.92858 0.04827 0.17317 0.0
C1787 C 0.86661 0.09382 0.14008 0.0
C1788 C 0.88136 0.10421 0.16469 0.0
H1789 H 0.86175 0.06 0.10891 0.0
H1790 H 0.8492 0.10614 0.13037 0.0
C1791 C 0.90406 0.08754 0.17609 0.0
C1792 C 0.39002 0.344 0.11683 0.0
C1793 C 0.41468 0.35437 0.1315 0.0
H1794 H 0.35883 0.31017 0.11205 0.0
C1795 C 0.42616 0.3377 0.15415 0.0
H1796 H 0.38024 0.35633 0.09947 0.0
C1797 C 0.41366 0.31098 0.16141 0.0
C1798 C 0.38936 0.30046 0.14627 0.0
H1799 H 0.44498 0.34507 0.166 0.0
H1800 H 0.42333 0.2984 0.17864 0.0
C1801 C 0.37754 0.31749 0.12413 0.0
C1802 C 0.41361 0.71913 0.36876 0.0
C1803 C 0.38924 0.72954 0.38388 0.0
H1804 H 0.44506 0.68516 0.3642 0.0
C1805 C 0.37744 0.71245 0.40599 0.0
H1806 H 0.42326 0.73176 0.35157 0.0
C1807 C 0.39001 0.68598 0.41328 0.0
C1808 C 0.41474 0.67572 0.39864 0.0
H1809 H 0.35869 0.71969 0.41803 0.0
H1810 H 0.38025 0.6736 0.43061 0.0
C1811 C 0.42619 0.69245 0.37602 0.0
C1812 C 0.94255 0.35355 0.90404 0.0
C1813 C 0.92585 0.365 0.88139 0.0
H1814 H 0.98184 0.35646 0.92854 0.0
C1815 C 0.9362 0.38966 0.8667 0.0
H1816 H 0.9352 0.33474 0.91591 0.0
C1817 C 0.96269 0.40219 0.874 0.0
C1818 C 0.97973 0.39042 0.89616 0.0
H1819 H 0.92385 0.39941 0.84933 0.0
H1820 H 0.96998 0.42089 0.86192 0.0
C1821 C 0.96925 0.36609 0.9113 0.0
C1822 C 0.64003 0.84368 0.41357 0.0
C1823 C 0.61536 0.85402 0.39887 0.0
H1824 H 0.67128 0.80992 0.41833 0.0
C1825 C 0.60394 0.83735 0.3762 0.0
H1826 H 0.64976 0.85601 0.43095 0.0
C1827 C 0.6165 0.81067 0.36892 0.0
C1828 C 0.64082 0.80019 0.38407 0.0
H1829 H 0.58512 0.84469 0.36433 0.0
H1830 H 0.60688 0.79809 0.35166 0.0
C1831 C 0.65257 0.81721 0.40625 0.0
C1832 C 0.56103 0.66358 0.41131 0.0
C1833 C 0.55053 0.63927 0.39616 0.0
H1834 H 0.5951 0.69491 0.41592 0.0
C1835 C 0.56758 0.62745 0.37404 0.0
H1836 H 0.54842 0.67325 0.42853 0.0
C1837 C 0.5941 0.63994 0.36677 0.0
C1838 C 0.60445 0.66461 0.38144 0.0
H1839 H 0.56028 0.60875 0.36197 0.0
H1840 H 0.60645 0.63017 0.34942 0.0
C1841 C 0.58775 0.67609 0.40407 0.0
C1842 C 0.11635 0.71891 0.66146 0.0
C1843 C 0.14069 0.72939 0.64634 0.0
H1844 H 0.08499 0.68486 0.66602 0.0
C1845 C 0.15253 0.71233 0.62424 0.0
H1846 H 0.10667 0.73152 0.67866 0.0
C1847 C 0.14004 0.68582 0.61695 0.0
C1848 C 0.11533 0.6755 0.63158 0.0
H1849 H 0.17126 0.71961 0.61219 0.0
H1850 H 0.14983 0.67347 0.59961 0.0
C1851 C 0.10384 0.6922 0.6542 0.0
C1852 C 0.96265 0.62733 0.65605 0.0
C1853 C 0.97975 0.63912 0.63395 0.0
H1854 H 0.92377 0.63013 0.68065 0.0
C1855 C 0.96934 0.66349 0.61883 0.0
H1856 H 0.96988 0.60858 0.6681 0.0
C1857 C 0.94265 0.67607 0.62607 0.0
C1858 C 0.9259 0.66461 0.64868 0.0
H1859 H 0.98198 0.67314 0.60164 0.0
H1860 H 0.93536 0.69493 0.61425 0.0
C1861 C 0.93617 0.63989 0.66333 0.0
C1862 C 0.09373 0.8897 0.66356 0.0
C1863 C 0.10404 0.86503 0.64886 0.0
H1864 H 0.06001 0.921 0.66832 0.0
C1865 C 0.08734 0.85362 0.62619 0.0
H1866 H 0.10608 0.89942 0.68094 0.0
C1867 C 0.06068 0.86621 0.61892 0.0
C1868 C 0.05024 0.89056 0.63406 0.0
H1869 H 0.09467 0.8348 0.61433 0.0
H1870 H 0.04808 0.85661 0.60166 0.0
C1871 C 0.06727 0.90228 0.65624 0.0
C1872 C 0.66125 0.91356 0.81082 0.0
C1873 C 0.64605 0.88929 0.80029 0.0
H1874 H 0.6659 0.94486 0.8449 0.0
C1875 C 0.62385 0.87755 0.81729 0.0
H1876 H 0.67853 0.92317 0.79825 0.0
C1877 C 0.61656 0.89005 0.84379 0.0
C1878 C 0.63131 0.91466 0.85418 0.0
H1879 H 0.61173 0.85888 0.80996 0.0
H1880 H 0.59916 0.88032 0.85611 0.0
C1881 C 0.654 0.92608 0.83752 0.0
C1882 C 0.16371 0.11878 0.46919 0.0
C1883 C 0.13933 0.13389 0.47961 0.0
H1884 H 0.19516 0.11423 0.43523 0.0
C1885 C 0.12754 0.156 0.46253 0.0
H1886 H 0.17336 0.10158 0.48182 0.0
C1887 C 0.14011 0.1633 0.43606 0.0
C1888 C 0.16484 0.14867 0.42579 0.0
H1889 H 0.10879 0.16804 0.46977 0.0
H1890 H 0.13034 0.18064 0.42369 0.0
C1891 C 0.1763 0.12605 0.44252 0.0
C1892 C 0.41365 0.63984 0.84367 0.0
C1893 C 0.3989 0.61522 0.85405 0.0
H1894 H 0.41847 0.67103 0.80986 0.0
C1895 C 0.37621 0.60381 0.83738 0.0
H1896 H 0.43105 0.64956 0.85599 0.0
C1897 C 0.36896 0.61634 0.81069 0.0
C1898 C 0.38415 0.64062 0.80017 0.0
H1899 H 0.36431 0.58503 0.84476 0.0
H1900 H 0.35168 0.60673 0.79812 0.0
C1901 C 0.40635 0.65236 0.81718 0.0
C1902 C 0.90256 0.37422 0.4623 0.0
C1903 C 0.89072 0.39632 0.47937 0.0
H1904 H 0.89986 0.3496 0.42344 0.0
C1905 C 0.86638 0.41144 0.46888 0.0
H1906 H 0.92129 0.36216 0.46959 0.0
C1907 C 0.85387 0.40419 0.44217 0.0
C1908 C 0.86537 0.38157 0.42546 0.0
H1909 H 0.85669 0.42863 0.4815 0.0
H1910 H 0.83502 0.41601 0.43483 0.0
C1911 C 0.89007 0.36693 0.43579 0.0
C1912 C 0.66123 0.11624 0.71924 0.0
C1913 C 0.64606 0.14054 0.72973 0.0
H1914 H 0.66586 0.0849 0.68519 0.0
C1915 C 0.62386 0.15227 0.71272 0.0
H1916 H 0.6785 0.10664 0.73182 0.0
C1917 C 0.61656 0.13974 0.68624 0.0
C1918 C 0.63128 0.1151 0.67588 0.0
H1919 H 0.61176 0.17096 0.72002 0.0
H1920 H 0.59916 0.14946 0.67391 0.0
C1921 C 0.65397 0.10369 0.69256 0.0
C1922 C 0.40269 0.15607 0.5674 0.0
C1923 C 0.3909 0.13396 0.55032 0.0
H1924 H 0.3999 0.18069 0.60626 0.0
C1925 C 0.36655 0.11882 0.56076 0.0
H1926 H 0.42143 0.16813 0.56015 0.0
C1927 C 0.35398 0.12607 0.58745 0.0
C1928 C 0.36544 0.14869 0.60418 0.0
H1929 H 0.3569 0.10162 0.54813 0.0
H1930 H 0.33514 0.11423 0.59475 0.0
C1931 C 0.39014 0.16335 0.59388 0.0
C1932 C 0.40618 0.37751 0.71259 0.0
C1933 C 0.38401 0.38927 0.72962 0.0
H1934 H 0.43087 0.38031 0.67377 0.0
C1935 C 0.36884 0.41358 0.71912 0.0
H1936 H 0.41827 0.35882 0.71989 0.0
C1937 C 0.3761 0.42612 0.69244 0.0
C1938 C 0.39878 0.4147 0.67576 0.0
H1939 H 0.35158 0.4232 0.73171 0.0
H1940 H 0.36423 0.44493 0.68508 0.0
C1941 C 0.41348 0.39004 0.6861 0.0
C1942 C 0.62764 0.37408 0.56748 0.0
C1943 C 0.63947 0.39622 0.55045 0.0
H1944 H 0.63034 0.34944 0.60633 0.0
C1945 C 0.66377 0.41137 0.56097 0.0
H1946 H 0.60894 0.36201 0.56016 0.0
C1947 C 0.67626 0.40412 0.58769 0.0
C1948 C 0.66477 0.38147 0.60437 0.0
H1949 H 0.67344 0.42859 0.54839 0.0
H1950 H 0.69507 0.41597 0.59507 0.0
C1951 C 0.64011 0.3668 0.594 0.0
C1952 C 0.81761 0.62405 0.87755 0.0
C1953 C 0.80055 0.64618 0.88935 0.0
H1954 H 0.85648 0.59943 0.88028 0.0
C1955 C 0.81104 0.66133 0.91366 0.0
H1956 H 0.81032 0.61197 0.85884 0.0
C1957 C 0.83775 0.6541 0.92618 0.0
C1958 C 0.85447 0.63147 0.91471 0.0
H1959 H 0.79843 0.67855 0.92331 0.0
H1960 H 0.8451 0.66596 0.945 0.0
C1961 C 0.84412 0.61678 0.89005 0.0
C1962 C 0.8667 0.93618 0.38987 0.0
C1963 C 0.8814 0.92583 0.36521 0.0
H1964 H 0.86193 0.96996 0.4211 0.0
C1965 C 0.90407 0.94251 0.35377 0.0
H1966 H 0.84932 0.92385 0.39961 0.0
C1967 C 0.91135 0.96919 0.36632 0.0
C1968 C 0.89619 0.97968 0.39063 0.0
H1969 H 0.91594 0.93516 0.33496 0.0
H1970 H 0.9286 0.98178 0.35669 0.0
C1971 C 0.87401 0.96266 0.4024 0.0
C1972 C 0.18627 0.91349 0.89012 0.0
C1973 C 0.17597 0.89882 0.91481 0.0
H1974 H 0.22 0.91825 0.85883 0.0
C1975 C 0.19269 0.87618 0.92625 0.0
H1976 H 0.1739 0.93085 0.88038 0.0
C1977 C 0.21937 0.86892 0.91367 0.0
C1978 C 0.2298 0.88405 0.88932 0.0
H1979 H 0.18537 0.86434 0.94509 0.0
H1980 H 0.23198 0.85169 0.9233 0.0
C1981 C 0.21274 0.90619 0.87756 0.0
C1982 C 0.15636 0.56718 0.40233 0.0
C1983 C 0.13415 0.55018 0.3906 0.0
H1984 H 0.18105 0.60599 0.39951 0.0
C1985 C 0.11896 0.56068 0.36632 0.0
H1986 H 0.16847 0.55987 0.421 0.0
C1987 C 0.12621 0.58737 0.35377 0.0
C1988 C 0.1489 0.60404 0.36518 0.0
H1989 H 0.10168 0.54811 0.35672 0.0
H1990 H 0.1143 0.59474 0.33499 0.0
C1991 C 0.16365 0.59367 0.3898 0.0
C1992 C 0.81728 0.40627 0.65228 0.0
C1993 C 0.80023 0.3841 0.64057 0.0
H1994 H 0.8561 0.43095 0.6494 0.0
C1995 C 0.81065 0.36896 0.61622 0.0
H1996 H 0.81003 0.41835 0.67101 0.0
C1997 C 0.83731 0.37622 0.60361 0.0
C1998 C 0.85403 0.39888 0.61501 0.0
H1999 H 0.79804 0.35171 0.60663 0.0
H2000 H 0.84462 0.36435 0.58478 0.0
C2001 C 0.84374 0.41358 0.63969 0.0
C2002 C 0.626 0.94234 0.67604 0.0
C2003 C 0.64867 0.92565 0.66459 0.0
H2004 H 0.60151 0.98163 0.67316 0.0
C2005 C 0.66334 0.93599 0.63991 0.0
H2006 H 0.61416 0.93499 0.69487 0.0
C2007 C 0.65604 0.96249 0.6274 0.0
C2008 C 0.6339 0.97953 0.6392 0.0
H2009 H 0.68071 0.92365 0.63016 0.0
H2010 H 0.66812 0.96978 0.6087 0.0
C2011 C 0.61874 0.96903 0.66351 0.0
C2012 C 0.19259 0.154 0.60364 0.0
C2013 C 0.17588 0.13135 0.61509 0.0
H2014 H 0.23188 0.17848 0.60655 0.0
C2015 C 0.18622 0.11665 0.63975 0.0
H2016 H 0.18524 0.16587 0.58483 0.0
C2017 C 0.21272 0.12393 0.65227 0.0
C2018 C 0.22977 0.14609 0.6405 0.0
H2019 H 0.17387 0.09929 0.6495 0.0
H2020 H 0.22001 0.11185 0.67097 0.0
C2021 C 0.21929 0.16124 0.61618 0.0
C2022 C 0.36677 0.59389 0.63992 0.0
C2023 C 0.38147 0.60425 0.66457 0.0
H2024 H 0.36196 0.56007 0.60874 0.0
C2025 C 0.40413 0.58757 0.67602 0.0
H2026 H 0.34939 0.60622 0.63016 0.0
C2027 C 0.41137 0.56086 0.66351 0.0
C2028 C 0.3962 0.55035 0.63922 0.0
H2029 H 0.41599 0.59494 0.69483 0.0
H2030 H 0.42861 0.54828 0.67316 0.0
C2031 C 0.37405 0.56738 0.62743 0.0
C2032 C 0.92623 0.83763 0.65399 0.0
C2033 C 0.91476 0.8543 0.63133 0.0
H2034 H 0.92338 0.79835 0.67849 0.0
C2035 C 0.89012 0.84391 0.61663 0.0
H2036 H 0.94503 0.84501 0.66586 0.0
C2037 C 0.87764 0.8174 0.62393 0.0
C2038 C 0.88944 0.80039 0.64609 0.0
H2039 H 0.88035 0.85624 0.59926 0.0
H2040 H 0.85895 0.81008 0.61184 0.0
C2041 C 0.91373 0.81092 0.66125 0.0
C2042 C 0.88998 0.18594 0.91317 0.0
C2043 C 0.91472 0.17569 0.89856 0.0
H2044 H 0.85865 0.21964 0.91792 0.0
C2045 C 0.9262 0.19244 0.87596 0.0
H2046 H 0.8802 0.17355 0.93049 0.0
C2047 C 0.91362 0.21912 0.86871 0.0
C2048 C 0.88923 0.22953 0.88381 0.0
H2049 H 0.94508 0.18516 0.86415 0.0
H2050 H 0.92329 0.23177 0.85153 0.0
C2051 C 0.87742 0.21242 0.90589 0.0
C2052 C 0.46922 0.86608 0.41133 0.0
C2053 C 0.47972 0.89038 0.39617 0.0
H2054 H 0.43514 0.83476 0.41596 0.0
C2055 C 0.4627 0.90214 0.37399 0.0
H2056 H 0.4818 0.85645 0.42858 0.0
C2057 C 0.4362 0.88963 0.3667 0.0
C2058 C 0.42583 0.865 0.38141 0.0
H2059 H 0.47001 0.92083 0.3619 0.0
H2060 H 0.42387 0.89938 0.34932 0.0
C2061 C 0.44251 0.85355 0.40408 0.0
C2062 C 0.14006 0.34378 0.91349 0.0
C2063 C 0.11537 0.35411 0.89881 0.0
H2064 H 0.17132 0.31004 0.91825 0.0
C2065 C 0.10394 0.33741 0.87615 0.0
H2066 H 0.1498 0.35613 0.93086 0.0
C2067 C 0.11651 0.31074 0.86888 0.0
C2068 C 0.14084 0.30027 0.88402 0.0
H2069 H 0.08511 0.34475 0.8643 0.0
H2070 H 0.10688 0.29814 0.85164 0.0
C2071 C 0.15261 0.31731 0.90618 0.0
C2072 C 0.06754 0.12755 0.87395 0.0
C2073 C 0.05048 0.13934 0.89609 0.0
H2074 H 0.10641 0.1303 0.84933 0.0
C2075 C 0.06096 0.16366 0.91124 0.0
H2076 H 0.06026 0.10884 0.86187 0.0
C2077 C 0.08768 0.17618 0.904 0.0
C2078 C 0.10439 0.16472 0.88137 0.0
H2079 H 0.04836 0.17331 0.92846 0.0
H2080 H 0.09502 0.195 0.91586 0.0
C2081 C 0.09405 0.14006 0.86668 0.0
C2082 C 0.60389 0.19215 0.15431 0.0
C2083 C 0.61538 0.17545 0.13169 0.0
H2084 H 0.60672 0.23147 0.17876 0.0
C2085 C 0.64008 0.18577 0.11704 0.0
H2086 H 0.58504 0.18481 0.16614 0.0
C2087 C 0.65257 0.21227 0.12433 0.0
C2088 C 0.64074 0.22934 0.14643 0.0
H2089 H 0.64986 0.17341 0.09971 0.0
H2090 H 0.6713 0.21956 0.11227 0.0
C2091 C 0.6164 0.21886 0.16156 0.0
C2092 C 0.44273 0.17615 0.12624 0.0
C2093 C 0.42599 0.16473 0.14888 0.0
H2094 H 0.48204 0.17317 0.10178 0.0
C2095 C 0.43628 0.14005 0.16357 0.0
H2096 H 0.43543 0.19499 0.11438 0.0
C2097 C 0.46275 0.12747 0.15629 0.0
C2098 C 0.47983 0.13921 0.13415 0.0
H2099 H 0.4239 0.13032 0.18093 0.0
H2100 H 0.46999 0.10874 0.16837 0.0
C2101 C 0.46941 0.16356 0.119 0.0
C2102 C 0.59367 0.38961 0.16369 0.0
C2103 C 0.60399 0.36495 0.14897 0.0
H2104 H 0.55995 0.4209 0.16847 0.0
C2105 C 0.58729 0.35356 0.12629 0.0
H2106 H 0.60601 0.39931 0.18108 0.0
C2107 C 0.56063 0.36617 0.11902 0.0
C2108 C 0.55018 0.3905 0.13417 0.0
H2109 H 0.59462 0.33476 0.1144 0.0
H2110 H 0.54804 0.35658 0.10175 0.0
C2111 C 0.56721 0.40219 0.15638 0.0
C2112 C 0.15506 0.23283 0.26633 0.0
C2113 C 0.17502 0.23601 0.28899 0.0
H2114 H 0.13794 0.25155 0.22761 0.0
C2115 C 0.18532 0.26382 0.29547 0.0
H2116 H 0.14702 0.21155 0.26068 0.0
C2117 C 0.17947 0.287 0.27681 0.0
C2118 C 0.1645 0.28217 0.25081 0.0
H2119 H 0.20135 0.26684 0.31222 0.0
H2120 H 0.19141 0.30694 0.27985 0.0
C2121 C 0.14956 0.25593 0.2475 0.0
C2122 C 0.51389 0.59481 0.98487 0.0
C2123 C 0.48599 0.60508 0.99104 0.0
H2124 H 0.55692 0.58899 1.00087 0.0
C2125 C 0.48256 0.62519 1.01353 0.0
H2126 H 0.5171 0.57867 0.96826 0.0
C2127 C 0.50548 0.63088 0.03252 0.0
C2128 C 0.53181 0.61603 0.02951 0.0
H2129 H 0.4612 0.6332 0.01894 0.0
H2130 H 0.5009 0.64264 0.05228 0.0
C2131 C 0.5369 0.60089 1.00367 0.0
C2132 C 0.84505 0.26653 0.29519 0.0
C2133 C 0.85533 0.29432 0.28858 0.0
H2134 H 0.83895 0.22335 0.27975 0.0
C2135 C 0.87525 0.29742 0.26587 0.0
H2136 H 0.82904 0.26357 0.31197 0.0
C2137 C 0.88074 0.27425 0.24713 0.0
C2138 C 0.86581 0.24801 0.25057 0.0
H2139 H 0.88327 0.31868 0.26013 0.0
H2140 H 0.89234 0.27855 0.22721 0.0
C2141 C 0.85089 0.24328 0.27661 0.0
C2142 C 0.51587 0.93554 0.98484 0.0
C2143 C 0.54377 0.92517 0.99084 0.0
H2144 H 0.47291 0.94133 1.00102 0.0
C2145 C 0.54724 0.90492 1.01319 0.0
H2146 H 0.51263 0.95177 0.96833 0.0
C2147 C 0.52438 0.89917 0.03224 0.0
C2148 C 0.49807 0.91408 0.02942 0.0
H2149 H 0.5686 0.89684 0.01848 0.0
H2150 H 0.52901 0.88729 0.05192 0.0
C2151 C 0.49291 0.92938 1.00368 0.0
C2152 C 0.17951 0.74295 0.25342 0.0
C2153 C 0.16435 0.74786 0.2793 0.0
H2154 H 0.20164 0.76299 0.2181 0.0
C2155 C 0.14938 0.7741 0.28242 0.0
H2156 H 0.19147 0.72299 0.25054 0.0
C2157 C 0.15499 0.79714 0.26354 0.0
C2158 C 0.17511 0.79389 0.24103 0.0
H2159 H 0.13761 0.77853 0.3022 0.0
H2160 H 0.1469 0.81843 0.26906 0.0
C2161 C 0.18548 0.76607 0.23472 0.0
C2162 C 0.99341 0.60092 0.02647 0.0
C2163 C 0.99834 0.61594 1.00052 0.0
H2164 H 1.01341 0.57891 0.06187 0.0
C2165 C 0.02464 0.6308 0.99729 0.0
H2166 H 0.97341 0.58904 0.02943 0.0
C2167 C 0.04768 0.6252 0.01618 0.0
C2168 C 0.04438 0.60521 0.03879 0.0
H2169 H 0.02908 0.64246 0.97745 0.0
H2170 H 0.06899 0.6332 1.01059 0.0
C2171 C 0.01653 0.59497 0.04518 0.0
C2172 C 0.85084 0.787 0.25342 0.0
C2173 C 0.8659 0.78202 0.27935 0.0
H2174 H 0.82881 0.76706 0.218 0.0
C2175 C 0.88079 0.75574 0.28249 0.0
H2176 H 0.83894 0.80699 0.25053 0.0
C2177 C 0.8752 0.73274 0.26356 0.0
C2178 C 0.85518 0.73606 0.24098 0.0
H2179 H 0.89248 0.75126 0.30232 0.0
H2180 H 0.88323 0.71143 0.26909 0.0
C2181 C 0.84489 0.76392 0.23467 0.0
C2182 C 1.00593 0.89944 0.99774 0.0
C2183 C 0.03221 0.91437 1.00076 0.0
H2184 H 0.96165 0.89702 1.01124 0.0
C2185 C 0.03723 0.92955 0.02661 0.0
H2186 H 1.00143 0.88766 0.97798 0.0
C2187 C 1.01417 0.93558 0.04537 0.0
C2188 C 0.98631 0.92523 0.03916 0.0
H2189 H 0.05722 0.94148 0.02941 0.0
H2190 H 0.01733 0.95174 0.06196 0.0
C2191 C 0.98297 0.90509 0.01669 0.0
C2192 C 0.24733 0.14934 0.25565 0.0
C2193 C 0.25061 0.16423 0.28192 0.0
H2194 H 0.26058 0.14682 0.2113 0.0
C2195 C 0.27659 0.17922 0.28679 0.0
H2196 H 0.22745 0.1377 0.25125 0.0
C2197 C 0.29529 0.1851 0.26364 0.0
C2198 C 0.28886 0.1748 0.23581 0.0
H2199 H 0.27959 0.19113 0.30676 0.0
H2200 H 0.31202 0.20114 0.26671 0.0
C2201 C 0.2662 0.15485 0.23259 0.0
C2202 C 0.42959 0.5033 0.99286 0.0
C2203 C 0.41446 0.5292 0.99776 0.0
H2204 H 0.45166 0.46795 1.01291 0.0
C2205 C 0.39948 0.53234 0.02401 0.0
H2206 H 0.44155 0.50041 0.97291 0.0
C2207 C 0.40507 0.51346 0.04704 0.0
C2208 C 0.42516 0.49092 0.04381 0.0
H2209 H 0.38774 0.55214 0.02843 0.0
H2210 H 0.39697 0.51899 0.06833 0.0
C2211 C 0.43553 0.4846 0.01598 0.0
C2212 C 0.7639 0.37525 0.23223 0.0
C2213 C 0.74133 0.35522 0.23558 0.0
H2214 H 0.80265 0.39257 0.25069 0.0
C2215 C 0.73504 0.34496 0.26345 0.0
H2216 H 0.7694 0.38325 0.21089 0.0
C2217 C 0.75378 0.35097 0.28653 0.0
C2218 C 0.77969 0.36603 0.28152 0.0
H2219 H 0.71838 0.32886 0.2666 0.0
H2220 H 0.75088 0.33908 0.30653 0.0
C2221 C 0.78283 0.38089 0.25521 0.0
C2222 C 0.62509 0.01617 0.04715 0.0
C2223 C 0.60512 0.03884 0.04408 0.0
H2224 H 0.64219 0.97753 0.02828 0.0
C2225 C 0.59477 0.04542 0.01631 0.0
H2226 H 0.63316 1.01046 0.0684 0.0
C2227 C 0.60059 0.02684 0.99306 0.0
C2228 C 0.61557 1.00082 0.99778 0.0
H2229 H 0.57873 0.06217 1.01337 0.0
H2230 H 0.58861 0.02994 0.97314 0.0
C2231 C 0.63056 0.99743 0.02398 0.0
C2232 C 0.29519 0.84508 0.26684 0.0
C2233 C 0.28857 0.85535 0.29463 0.0
H2234 H 0.27979 0.83899 0.22364 0.0
C2235 C 0.26584 0.87524 0.29772 0.0
H2236 H 0.31198 0.82908 0.26388 0.0
C2237 C 0.2471 0.88073 0.27454 0.0
C2238 C 0.25057 0.86583 0.24829 0.0
H2239 H 0.26008 0.88326 0.31898 0.0
H2240 H 0.22717 0.89231 0.27883 0.0
C2241 C 0.27663 0.85092 0.24357 0.0
C2242 C 0.10075 0.50349 0.03705 0.0
C2243 C 0.1159 0.52935 0.03201 0.0
H2244 H 0.07859 0.46809 0.0172 0.0
C2245 C 0.13081 0.53237 1.00572 0.0
H2246 H 0.08883 0.50069 0.05705 0.0
C2247 C 0.12516 0.51339 0.98277 0.0
C2248 C 0.10505 0.4909 0.98615 0.0
H2249 H 0.14256 0.55214 1.00119 0.0
H2250 H 0.13322 0.51883 0.96145 0.0
C2251 C 0.09473 0.4847 1.01402 0.0
C2252 C 0.78267 0.64946 0.27409 0.0
C2253 C 0.77943 0.66441 0.24785 0.0
H2254 H 0.76941 0.64692 0.31844 0.0
C2255 C 0.75348 0.67946 0.24299 0.0
H2256 H 0.80252 0.63778 0.27847 0.0
C2257 C 0.7348 0.68536 0.26615 0.0
C2258 C 0.7412 0.67501 0.29396 0.0
H2259 H 0.75051 0.69141 0.22304 0.0
H2260 H 0.7181 0.70144 0.2631 0.0
C2261 C 0.76381 0.65499 0.29716 0.0
C2262 C 0.93532 0.04549 1.01379 0.0
C2263 C 0.92503 0.03898 0.98598 0.0
H2264 H 0.94139 0.02991 0.05693 0.0
C2265 C 0.90508 0.01631 0.98282 0.0
H2266 H 0.95135 0.06224 0.0168 0.0
C2267 C 0.89957 0.9975 1.00593 0.0
C2268 C 0.9145 1.00085 0.03217 0.0
H2269 H 0.89705 1.01065 0.96154 0.0
H2270 H 0.88795 0.97762 1.00156 0.0
C2271 C 0.92945 0.02685 0.03699 0.0
C2272 C 0.2559 0.24766 0.14939 0.0
C2273 C 0.2822 0.25066 0.16431 0.0
H2274 H 0.21163 0.26121 0.14698 0.0
C2275 C 0.28724 0.27649 0.17949 0.0
H2276 H 0.25138 0.22791 0.1376 0.0
C2277 C 0.2642 0.29527 0.18554 0.0
C2278 C 0.23633 0.28909 0.1752 0.0
H2279 H 0.30724 0.27927 0.19142 0.0
H2280 H 0.26738 0.31186 0.20171 0.0
C2281 C 0.23296 0.26664 0.15505 0.0
C2282 C 0.23246 0.76355 0.37531 0.0
C2283 C 0.23589 0.74109 0.35517 0.0
H2284 H 0.25078 0.80227 0.39282 0.0
C2285 C 0.26378 0.73496 0.34487 0.0
H2286 H 0.2111 0.76893 0.38334 0.0
C2287 C 0.28679 0.75375 0.35097 0.0
C2288 C 0.2817 0.77957 0.36616 0.0
H2289 H 0.267 0.71839 0.32869 0.0
H2290 H 0.30681 0.75099 0.33906 0.0
C2291 C 0.25537 0.78253 0.38103 0.0
C2292 C 1.01388 0.5472 0.90499 0.0
C2293 C 0.99126 0.54407 0.92501 0.0
H2294 H 0.05252 0.52842 0.88777 0.0
C2295 C 0.98479 0.51629 0.93538 0.0
H2296 H 0.01952 0.56846 0.8969 0.0
C2297 C 1.0034 0.49308 0.92949 0.0
C2298 C 0.02936 0.49785 0.91443 0.0
H2299 H 0.96809 0.51331 0.95146 0.0
H2300 H 1.00037 0.47315 0.94146 0.0
C2301 C 0.03266 0.52407 0.89945 0.0
C2302 C 0.76634 0.79529 0.34473 0.0
C2303 C 0.79418 0.78892 0.35503 0.0
H2304 H 0.72325 0.77955 0.33873 0.0
C2305 C 0.79744 0.76633 0.37505 0.0
H2306 H 0.76326 0.81198 0.32865 0.0
C2307 C 0.77441 0.74744 0.38062 0.0
C2308 C 0.74813 0.75065 0.3657 0.0
H2309 H 0.81875 0.76077 0.38309 0.0
H2310 H 0.77885 0.72761 0.39229 0.0
C2311 C 0.74322 0.77659 0.35067 0.0
C2312 C 0.51645 0.48273 0.40497 0.0
C2313 C 0.53907 0.48601 0.42496 0.0
H2314 H 0.47769 0.50127 0.38775 0.0
C2315 C 0.54541 0.51386 0.43526 0.0
H2316 H 0.51091 0.46142 0.39694 0.0
C2317 C 0.52667 0.53696 0.42935 0.0
C2318 C 0.50072 0.53202 0.41432 0.0
H2319 H 0.56212 0.51696 0.45132 0.0
H2320 H 0.52961 0.55693 0.44127 0.0
C2321 C 0.49754 0.50574 0.39941 0.0
C2322 C 0.29719 0.7633 0.65495 0.0
C2323 C 0.29382 0.74085 0.6751 0.0
H2324 H 0.2788 0.80202 0.63749 0.0
C2325 C 0.26595 0.73468 0.68544 0.0
H2326 H 0.31853 0.76871 0.64688 0.0
C2327 C 0.24291 0.75346 0.6794 0.0
C2328 C 0.24796 0.77929 0.6642 0.0
H2329 H 0.26278 0.71808 0.70161 0.0
H2330 H 0.22293 0.75068 0.69134 0.0
C2331 C 0.27425 0.78227 0.64927 0.0
C2332 C 1.01398 0.48225 0.62523 0.0
C2333 C 0.99134 0.48554 0.60526 0.0
H2334 H 0.05272 0.50082 0.64246 0.0
C2335 C 0.98496 0.51339 0.595 0.0
H2336 H 0.01955 0.46094 0.63323 0.0
C2337 C 1.00367 0.53651 0.60095 0.0
C2338 C 0.02963 0.53158 0.61596 0.0
H2339 H 0.96825 0.5165 0.57895 0.0
H2340 H 1.00069 0.5565 0.58906 0.0
C2341 C 0.03286 0.50528 0.63082 0.0
C2342 C 0.01606 0.04748 0.62518 0.0
C2343 C 0.03874 0.0444 0.60523 0.0
H2344 H 0.97741 0.02862 0.64228 0.0
C2345 C 0.04531 0.01663 0.59488 0.0
H2346 H 1.01035 0.06874 0.63325 0.0
C2347 C 0.02673 0.99338 0.60072 0.0
C2348 C 1.00071 0.9981 0.6157 0.0
H2349 H 0.06205 1.01368 0.57884 0.0
H2350 H 0.02983 0.97346 0.58875 0.0
C2351 C 0.99731 0.02432 0.63066 0.0
C2352 C 0.64966 0.75593 0.74749 0.0
C2353 C 0.66457 0.78218 0.75086 0.0
H2354 H 0.64714 0.71155 0.76063 0.0
C2355 C 0.67949 0.78701 0.77689 0.0
H2356 H 0.63807 0.75158 0.72759 0.0
C2357 C 0.68534 0.76382 0.79554 0.0
C2358 C 0.67507 0.73601 0.78901 0.0
H2359 H 0.6914 0.80697 0.77995 0.0
H2360 H 0.70134 0.76685 0.81231 0.0
C2361 C 0.65515 0.73283 0.76632 0.0
C2362 C 1.00541 0.13099 0.53273 0.0
C2363 C 0.03172 0.11612 0.52962 0.0
H2364 H 0.96109 0.13337 0.5193 0.0
C2365 C 0.03672 0.10102 0.50372 0.0
H2366 H 1.00092 0.14271 0.55253 0.0
C2367 C 1.01363 0.095 0.48499 0.0
C2368 C 0.98576 0.10529 0.49126 0.0
H2369 H 0.05672 0.08913 0.50085 0.0
H2370 H 0.01679 0.07888 0.46835 0.0
C2371 C 0.98242 0.12534 0.5138 0.0
C2372 C 0.38053 0.77403 0.74742 0.0
C2373 C 0.36558 0.74779 0.75076 0.0
H2374 H 0.3831 0.81841 0.76056 0.0
C2375 C 0.35061 0.743 0.77677 0.0
H2376 H 0.39216 0.77836 0.72753 0.0
C2377 C 0.34477 0.76619 0.79541 0.0
C2378 C 0.35508 0.79399 0.7889 0.0
H2379 H 0.33867 0.72305 0.77982 0.0
H2380 H 0.32874 0.76319 0.81216 0.0
C2381 C 0.37505 0.79714 0.76624 0.0
C2382 C 0.01597 0.4355 0.48473 0.0
C2383 C 0.04384 0.42513 0.49086 0.0
H2384 H 0.97295 0.44137 0.50074 0.0
C2385 C 0.04721 0.40494 0.51327 0.0
H2386 H 1.0128 0.45171 0.46817 0.0
C2387 C 0.02428 0.39923 0.53224 0.0
C2388 C 0.99798 0.41417 0.52929 0.0
H2389 H 0.06855 0.39685 0.51866 0.0
H2390 H 0.02882 0.38739 0.55196 0.0
C2391 C 0.99293 0.42941 0.50349 0.0
C2392 C 0.65503 0.29708 0.76347 0.0
C2393 C 0.67516 0.29384 0.74097 0.0
H2394 H 0.63765 0.27849 0.80213 0.0
C2395 C 0.68555 0.26602 0.73467 0.0
H2396 H 0.64693 0.31837 0.76898 0.0
C2397 C 0.67957 0.2429 0.75336 0.0
C2398 C 0.6644 0.2478 0.77923 0.0
H2399 H 0.70171 0.26295 0.71805 0.0
H2400 H 0.69155 0.22295 0.75047 0.0
C2401 C 0.64942 0.27404 0.78234 0.0
C2402 C 0.49353 0.10097 0.52635 0.0
C2403 C 0.49846 0.11596 0.50038 0.0
H2404 H 0.51354 0.07897 0.56176 0.0
C2405 C 0.52477 0.1308 0.49712 0.0
H2406 H 0.47353 0.0891 0.52932 0.0
C2407 C 0.54781 0.12521 0.516 0.0
C2408 C 0.54452 0.10525 0.53864 0.0
H2409 H 0.52921 0.14243 0.47726 0.0
H2410 H 0.56913 0.1332 0.5104 0.0
C2411 C 0.51666 0.09502 0.54505 0.0
C2412 C 0.38077 0.2558 0.78245 0.0
C2413 C 0.36585 0.28206 0.77925 0.0
H2414 H 0.38326 0.21147 0.76912 0.0
C2415 C 0.3508 0.28698 0.75331 0.0
H2416 H 0.39245 0.25136 0.80229 0.0
C2417 C 0.34488 0.26387 0.7346 0.0
C2418 C 0.35519 0.23603 0.74096 0.0
H2419 H 0.33888 0.30695 0.75038 0.0
H2420 H 0.32881 0.26696 0.71791 0.0
C2421 C 0.37521 0.23277 0.76355 0.0
C2422 C 0.51415 0.43549 0.54537 0.0
C2423 C 0.48631 0.42514 0.53908 0.0
H2424 H 0.55721 0.44149 0.52954 0.0
C2425 C 0.48303 0.40506 0.51654 0.0
H2426 H 0.51724 0.45162 0.56202 0.0
C2427 C 0.50605 0.39947 0.49763 0.0
C2428 C 0.53231 0.41442 0.50075 0.0
H2429 H 0.46173 0.39699 0.51104 0.0
H2430 H 0.50158 0.38774 0.47783 0.0
C2431 C 0.53726 0.42953 0.52665 0.0
C2432 C 0.74747 0.64939 0.75571 0.0
C2433 C 0.75072 0.66428 0.782 0.0
H2434 H 0.76077 0.64692 0.71138 0.0
C2435 C 0.7767 0.67927 0.78691 0.0
H2436 H 0.72761 0.63776 0.75129 0.0
C2437 C 0.79541 0.68517 0.76378 0.0
C2438 C 0.78901 0.6749 0.73594 0.0
H2439 H 0.77967 0.69117 0.80689 0.0
H2440 H 0.81214 0.7012 0.76688 0.0
C2441 C 0.76637 0.65493 0.73268 0.0
C2442 C 0.905 1.01345 0.54717 0.0
C2443 C 0.92516 0.99099 0.54383 0.0
H2444 H 0.88753 0.05214 0.52873 0.0
C2445 C 0.93552 0.9848 0.51597 0.0
H2446 H 0.89692 0.01888 0.56849 0.0
C2447 C 0.92948 1.00355 0.49292 0.0
C2448 C 0.91428 0.02938 0.49793 0.0
H2449 H 0.9517 0.96821 0.51283 0.0
H2450 H 0.94143 1.00075 0.47294 0.0
C2451 C 0.89933 0.03239 0.5242 0.0
C2452 C 0.28279 0.88066 0.7555 0.0
C2453 C 0.27951 0.86579 0.78178 0.0
H2454 H 0.26953 0.88313 0.71114 0.0
C2455 C 0.25353 0.8508 0.78667 0.0
H2456 H 0.30266 0.89229 0.75109 0.0
C2457 C 0.23484 0.84489 0.76352 0.0
C2458 C 0.24127 0.85516 0.73569 0.0
H2459 H 0.25053 0.83891 0.80665 0.0
H2460 H 0.21812 0.82885 0.76661 0.0
C2461 C 0.26392 0.87512 0.73244 0.0
C2462 C 0.13062 0.49735 0.52408 0.0
C2463 C 0.11567 0.50074 0.49785 0.0
H2464 H 0.13318 0.51038 0.56849 0.0
C2465 C 0.1007 0.52676 0.49311 0.0
H2466 H 0.14225 0.47745 0.52837 0.0
C2467 C 0.09486 0.54535 0.51635 0.0
C2468 C 0.10517 0.53877 0.54414 0.0
H2469 H 0.08876 0.52986 0.47317 0.0
H2470 H 0.07882 0.5621 0.51338 0.0
C2471 C 0.12513 0.5161 0.54723 0.0
C2472 C 0.77665 0.35086 0.74355 0.0
C2473 C 0.7506 0.3658 0.74826 0.0
H2474 H 0.81197 0.32901 0.76385 0.0
C2475 C 0.74714 0.38072 0.77449 0.0
H2476 H 0.77978 0.33893 0.72361 0.0
C2477 C 0.76588 0.37524 0.79767 0.0
C2478 C 0.7886 0.35533 0.7946 0.0
H2479 H 0.72722 0.39232 0.77877 0.0
H2480 H 0.76012 0.38328 0.81893 0.0
C2481 C 0.79521 0.34504 0.76682 0.0
C2482 C 0.60066 1.0035 0.53723 0.0
C2483 C 0.61591 0.02928 0.53206 0.0
H2484 H 0.57834 0.9681 0.51755 0.0
C2485 C 0.63081 0.03213 0.50575 0.0
H2486 H 0.58875 1.00084 0.55725 0.0
C2487 C 0.62508 1.01306 0.4829 0.0
C2488 C 0.60488 0.99067 0.48639 0.0
H2489 H 0.64264 0.05183 0.50112 0.0
H2490 H 0.63314 0.01838 0.46154 0.0
C2491 C 0.59455 0.98464 0.51429 0.0
C2492 C 0.25357 0.17933 0.74323 0.0
C2493 C 0.27954 0.1643 0.74803 0.0
H2494 H 0.21822 0.20127 0.76342 0.0
C2495 C 0.28285 0.14935 0.77427 0.0
H2496 H 0.25055 0.19128 0.72329 0.0
C2497 C 0.26404 0.15487 0.79738 0.0
C2498 C 0.2414 0.17486 0.79423 0.0
H2499 H 0.30272 0.13768 0.77861 0.0
H2500 H 0.26969 0.14681 0.81865 0.0
C2501 C 0.23493 0.1852 0.76643 0.0
C2502 C 0.42945 0.52671 0.53699 0.0
C2503 C 0.41447 0.50072 0.53211 0.0
H2504 H 0.45135 0.56214 0.51692 0.0
C2505 C 0.39956 0.49745 0.50585 0.0
H2506 H 0.44136 0.5297 0.55696 0.0
C2507 C 0.40508 0.51631 0.48279 0.0
C2508 C 0.42504 0.53896 0.48602 0.0
H2509 H 0.38792 0.47758 0.50145 0.0
H2510 H 0.39705 0.51069 0.4615 0.0
C2511 C 0.43532 0.54541 0.51385 0.0
C2512 C 0.75604 0.74772 0.64951 0.0
C2513 C 0.78232 0.75077 0.66444 0.0
H2514 H 0.71175 0.76121 0.64709 0.0
C2515 C 0.78734 0.77663 0.67958 0.0
H2516 H 0.75153 0.72795 0.63776 0.0
C2517 C 0.76428 0.7954 0.68559 0.0
C2518 C 0.73642 0.78917 0.67526 0.0
H2519 H 0.80733 0.77945 0.6915 0.0
H2520 H 0.76743 0.81202 0.70172 0.0
C2521 C 0.73307 0.76668 0.65515 0.0
C2522 C 0.73244 0.26354 0.87529 0.0
C2523 C 0.7359 0.24109 0.85515 0.0
H2524 H 0.75074 0.30228 0.89281 0.0
C2525 C 0.76381 0.23498 0.84486 0.0
H2526 H 0.71108 0.26892 0.88331 0.0
C2527 C 0.7868 0.25378 0.85098 0.0
C2528 C 0.78168 0.2796 0.86617 0.0
H2529 H 0.76704 0.2184 0.82869 0.0
H2530 H 0.80683 0.25103 0.83909 0.0
C2531 C 0.75535 0.28255 0.88103 0.0
C2532 C 0.4846 0.0163 0.43534 0.0
C2533 C 0.49124 0.04404 0.42496 0.0
H2534 H 0.5 0.97312 0.44159 0.0
C2535 C 0.51394 0.04704 0.40502 0.0
H2536 H 0.46783 1.01341 0.45136 0.0
C2537 C 0.53266 0.02383 0.39961 0.0
C2538 C 0.5292 0.99765 0.41462 0.0
H2539 H 0.5197 0.06827 0.39692 0.0
H2540 H 0.55258 0.02807 0.38798 0.0
C2541 C 0.50315 0.993 0.42957 0.0
C2542 C 0.26633 0.29515 0.84475 0.0
C2543 C 0.2942 0.28889 0.85503 0.0
H2544 H 0.22326 0.27927 0.83889 0.0
C2545 C 0.29756 0.26637 0.87511 0.0
H2546 H 0.26317 0.31178 0.82862 0.0
C2547 C 0.27458 0.24744 0.88079 0.0
C2548 C 0.24827 0.25053 0.86591 0.0
H2549 H 0.3189 0.2609 0.88314 0.0
H2550 H 0.2791 0.22766 0.89252 0.0
C2551 C 0.24326 0.27641 0.8508 0.0
C2552 C 0.99737 1.00563 0.89934 0.0
C2553 C 1.00064 0.03192 0.91421 0.0
H2554 H 1.01063 0.96128 0.8969 0.0
C2555 C 0.02662 0.03682 0.92919 0.0
H2556 H 0.9775 1.00121 0.88771 0.0
C2557 C 0.04532 1.01368 0.93511 0.0
C2558 C 0.03889 0.98584 0.92486 0.0
H2559 H 0.02961 0.05681 0.94108 0.0
H2560 H 0.06204 0.01678 0.95115 0.0
C2561 C 0.01625 0.98258 0.9049 0.0
C2562 C 0.79725 0.26335 0.15487 0.0
C2563 C 0.79391 0.24091 0.17505 0.0
H2564 H 0.7788 0.30202 0.13737 0.0
C2565 C 0.76606 0.23473 0.18543 0.0
H2566 H 0.81857 0.26877 0.14678 0.0
C2567 C 0.743 0.25348 0.17937 0.0
C2568 C 0.748 0.27929 0.16414 0.0
H2569 H 0.76292 0.21816 0.20162 0.0
H2570 H 0.72302 0.25069 0.19133 0.0
C2571 C 0.77428 0.28229 0.14919 0.0
C2572 C 0.5037 0.03636 0.10114 0.0
C2573 C 0.52973 0.03149 0.11605 0.0
H2574 H 0.46826 0.01627 0.07926 0.0
C2575 C 0.53309 1.0052 0.13088 0.0
H2576 H 0.50064 0.05635 0.08928 0.0
C2577 C 0.51425 0.98211 0.12535 0.0
C2578 C 0.49153 0.98535 0.10547 0.0
H2579 H 0.553 1.0008 0.14246 0.0
H2580 H 0.51992 0.96081 0.13332 0.0
C2581 C 0.48503 1.01319 0.09526 0.0
C2582 C 0.51594 0.54757 0.12517 0.0
C2583 C 0.53866 0.54446 0.10527 0.0
H2584 H 0.47725 0.52874 0.14224 0.0
C2585 C 0.54525 0.51666 0.09499 0.0
H2586 H 0.51021 0.56884 0.13319 0.0
C2587 C 0.52665 0.49342 0.10083 0.0
C2588 C 0.50061 0.49817 0.11575 0.0
H2589 H 0.56203 0.51368 0.07899 0.0
H2590 H 0.52979 0.47348 0.08891 0.0
C2591 C 0.49718 0.52441 0.13066 0.0
C2592 C 0.16072 0.37243 0.05504 0.0
C2593 C 0.13167 0.36398 0.05178 0.0
H2594 H 0.20021 0.3668 0.07843 0.0
C2595 C 0.12141 0.34022 0.06769 0.0
H2596 H 0.16935 0.39081 0.0434 0.0
C2597 C 0.13918 0.32639 0.08777 0.0
C2598 C 0.16753 0.33622 0.09262 0.0
H2599 H 0.09927 0.33291 0.06538 0.0
H2600 H 0.13005 0.30913 0.10073 0.0
C2601 C 0.1785 0.35861 0.0752 0.0
C2602 C 0.62278 0.61951 0.22499 0.0
C2603 C 0.61422 0.64851 0.22842 0.0
H2604 H 0.61725 0.58012 0.20142 0.0
C2605 C 0.59037 0.65875 0.21262 0.0
H2606 H 0.64123 0.61091 0.23654 0.0
C2607 C 0.57655 0.64103 0.1925 0.0
C2608 C 0.58648 0.61274 0.18749 0.0
H2609 H 0.58297 0.68084 0.21507 0.0
H2610 H 0.55922 0.65015 0.17963 0.0
C2611 C 0.60897 0.60178 0.20479 0.0
C2612 C 0.89114 0.20359 0.08765 0.0
C2613 C 0.86282 0.1937 0.09254 0.0
H2614 H 0.93103 0.19716 0.06519 0.0
C2615 C 0.85188 0.17126 0.07516 0.0
H2616 H 0.90024 0.22088 0.10058 0.0
C2617 C 0.86967 0.15747 0.05499 0.0
C2618 C 0.89869 0.166 0.05166 0.0
H2619 H 0.8302 0.16301 0.07843 0.0
H2620 H 0.86107 0.13906 0.04338 0.0
C2621 C 0.90891 0.18979 0.06755 0.0
C2622 C 0.43943 0.87103 0.21271 0.0
C2623 C 0.4156 0.8813 0.22851 0.0
H2624 H 0.47059 0.87957 0.17971 0.0
C2625 C 0.40708 0.91031 0.22507 0.0
H2626 H 0.4468 0.84892 0.21516 0.0
C2627 C 0.42091 0.92802 0.20486 0.0
C2628 C 0.44339 0.91702 0.18757 0.0
H2629 H 0.38864 0.91894 0.23662 0.0
H2630 H 0.41267 0.94969 0.20149 0.0
C2631 C 0.45327 0.88872 0.19258 0.0
C2632 C 0.16028 0.65733 0.47509 0.0
C2633 C 0.13125 0.66582 0.47844 0.0
H2634 H 0.19972 0.66291 0.4516 0.0
C2635 C 0.12098 0.68959 0.46255 0.0
H2636 H 0.16892 0.63894 0.48671 0.0
C2637 C 0.13871 0.70339 0.44241 0.0
C2638 C 0.16704 0.69353 0.43751 0.0
H2639 H 0.09885 0.69693 0.46492 0.0
H2640 H 0.12957 0.72066 0.42948 0.0
C2641 C 0.17803 0.67113 0.4549 0.0
C2642 C 0.92139 0.60167 0.82518 0.0
C2643 C 0.94386 0.61263 0.84251 0.0
H2644 H 0.88913 0.61082 0.79344 0.0
C2645 C 0.95376 0.64093 0.83756 0.0
H2646 H 0.91314 0.58 0.82851 0.0
C2647 C 0.93993 0.65867 0.81746 0.0
C2648 C 0.91609 0.64844 0.80164 0.0
H2649 H 0.97108 0.65005 0.85044 0.0
H2650 H 0.9473 0.68079 0.81506 0.0
C2651 C 0.90757 0.61943 0.80501 0.0
C2652 C 0.86948 0.87262 0.47499 0.0
C2653 C 0.89852 0.86415 0.47833 0.0
H2654 H 0.83004 0.86702 0.45151 0.0
C2655 C 0.90879 0.84036 0.46246 0.0
H2656 H 0.86086 0.89103 0.4866 0.0
C2657 C 0.89106 0.82653 0.44235 0.0
C2658 C 0.86273 0.83639 0.43743 0.0
H2659 H 0.93092 0.83303 0.46483 0.0
H2660 H 0.9002 0.80925 0.42943 0.0
C2661 C 0.85174 0.85881 0.45481 0.0
C2662 C 0.07666 0.88907 0.83762 0.0
C2663 C 0.08655 0.91738 0.84255 0.0
H2664 H 0.08314 0.8492 0.81515 0.0
C2665 C 0.10901 0.92833 0.82521 0.0
H2666 H 0.05935 0.87995 0.85052 0.0
C2667 C 0.12283 0.91058 0.80505 0.0
C2668 C 0.11432 0.88156 0.80169 0.0
H2669 H 0.11725 0.95002 0.82852 0.0
H2670 H 0.14127 0.91918 0.79346 0.0
C2671 C 0.0905 0.87132 0.81753 0.0
C2672 C 0.05516 0.16086 0.37296 0.0
C2673 C 0.05178 0.13184 0.36445 0.0
H2674 H 0.07867 0.20028 0.36735 0.0
C2675 C 0.06758 0.12159 0.34061 0.0
H2676 H 0.0436 0.16946 0.3914 0.0
C2677 C 0.08767 0.13932 0.32674 0.0
C2678 C 0.09264 0.16763 0.33663 0.0
H2679 H 0.06517 0.09948 0.33325 0.0
H2680 H 0.10053 0.1302 0.30942 0.0
C2681 C 0.07533 0.1786 0.35911 0.0
C2682 C 0.42819 0.70486 0.92124 0.0
C2683 C 0.41723 0.68747 0.94366 0.0
H2684 H 0.41904 0.73666 0.88905 0.0
C2685 C 0.3889 0.69236 0.95354 0.0
H2686 H 0.44988 0.70159 0.913 0.0
C2687 C 0.37115 0.71248 0.93974 0.0
C2688 C 0.38139 0.72838 0.91596 0.0
H2689 H 0.37979 0.67942 0.97082 0.0
H2690 H 0.34903 0.71484 0.9471 0.0
C2691 C 0.41042 0.72505 0.90745 0.0
C2692 C 0.95493 0.35148 0.35871 0.0
C2693 C 0.93765 0.36244 0.3362 0.0
H2694 H 0.98662 0.36064 0.39102 0.0
C2695 C 0.94265 0.39072 0.32627 0.0
H2696 H 0.95156 0.32982 0.36697 0.0
C2697 C 0.96274 0.40846 0.34013 0.0
C2698 C 0.9785 0.39824 0.36401 0.0
H2699 H 0.92981 0.39984 0.30892 0.0
H2700 H 0.96517 0.43057 0.33275 0.0
C2701 C 0.97509 0.36923 0.37254 0.0
C2702 C 0.61965 0.805 0.90756 0.0
C2703 C 0.64868 0.8017 0.91608 0.0
H2704 H 0.58016 0.82841 0.91311 0.0
C2705 C 0.65889 0.8176 0.93987 0.0
H2706 H 0.61105 0.79337 0.88915 0.0
C2707 C 0.6411 0.83769 0.95367 0.0
C2708 C 0.61278 0.84255 0.94378 0.0
H2709 H 0.68101 0.81527 0.94724 0.0
H2710 H 0.6502 0.85063 0.97095 0.0
C2711 C 0.60185 0.82515 0.92135 0.0
C2712 C 0.05509 0.86938 0.1575 0.0
C2713 C 0.05175 0.8984 0.16602 0.0
H2714 H 0.07855 0.82993 0.16305 0.0
C2715 C 0.06759 0.90862 0.18985 0.0
H2716 H 0.0435 0.86079 0.13906 0.0
C2717 C 0.08768 0.89085 0.20367 0.0
C2718 C 0.0926 0.86255 0.19377 0.0
H2719 H 0.06521 0.93073 0.19722 0.0
H2720 H 0.10058 0.89996 0.22099 0.0
C2721 C 0.07525 0.85161 0.17131 0.0
C2722 C 0.14116 0.69247 0.07647 0.0
C2723 C 0.11284 0.68753 0.08634 0.0
H2724 H 0.18101 0.71497 0.08295 0.0
C2725 C 0.10186 0.70488 0.10878 0.0
H2726 H 0.15029 0.67957 0.05917 0.0
C2727 C 0.1196 0.72507 0.1226 0.0
C2728 C 0.14863 0.72843 0.11411 0.0
H2729 H 0.08017 0.70157 0.11701 0.0
H2730 H 0.11097 0.73665 0.14102 0.0
C2731 C 0.15889 0.71258 0.0903 0.0
C2732 C 0.97511 0.66065 0.15721 0.0
C2733 C 0.97846 0.63163 0.16571 0.0
H2734 H 0.95164 0.70009 0.16278 0.0
C2735 C 0.96259 0.62139 0.18952 0.0
H2736 H 0.98671 0.66925 0.13879 0.0
C2737 C 0.9425 0.63914 0.20335 0.0
C2738 C 0.93758 0.66746 0.19347 0.0
H2739 H 0.96497 0.59927 0.19688 0.0
H2740 H 0.92958 0.63002 0.22065 0.0
C2741 C 0.95494 0.67841 0.17102 0.0
C2742 C 0.88929 0.83773 0.07636 0.0
C2743 C 0.91762 0.84261 0.08624 0.0
H2744 H 0.84939 0.8153 0.08285 0.0
C2745 C 0.92857 0.82524 0.10867 0.0
H2746 H 0.88018 0.85065 0.05907 0.0
C2747 C 0.91079 0.80508 0.12249 0.0
C2748 C 0.88175 0.80178 0.114 0.0
H2749 H 0.95026 0.82851 0.1169 0.0
H2750 H 0.91939 0.79348 0.1409 0.0
C2751 C 0.87152 0.81765 0.09019 0.0
C2752 C 0.37292 0.05497 0.16051 0.0
C2753 C 0.36447 0.05162 0.13147 0.0
H2754 H 0.36726 0.07845 0.19994 0.0
C2755 C 0.34068 0.06748 0.12118 0.0
H2756 H 0.39132 0.04338 0.16915 0.0
C2757 C 0.32681 0.08758 0.13889 0.0
C2758 C 0.33664 0.0925 0.16723 0.0
H2759 H 0.33337 0.0651 0.09904 0.0
H2760 H 0.30953 0.10049 0.12974 0.0
C2761 C 0.35907 0.07515 0.17824 0.0
C2762 C 0.37278 0.97499 0.36979 0.0
C2763 C 0.36419 0.97844 0.39878 0.0
H2764 H 0.36729 0.9514 0.33041 0.0
C2765 C 0.34034 0.96264 0.40901 0.0
H2766 H 0.39124 0.98653 0.3612 0.0
C2767 C 0.32654 0.9425 0.39129 0.0
C2768 C 0.33649 0.93748 0.36302 0.0
H2769 H 0.33292 0.9651 0.4311 0.0
H2770 H 0.3092 0.92964 0.40041 0.0
C2771 C 0.35899 0.95478 0.35206 0.0
C2772 C 0.22506 0.40723 0.91068 0.0
C2773 C 0.22839 0.41572 0.88165 0.0
H2774 H 0.2016 0.41283 0.95013 0.0
C2775 C 0.21252 0.43952 0.87141 0.0
H2776 H 0.23667 0.38882 0.91929 0.0
C2777 C 0.19243 0.45336 0.88916 0.0
C2778 C 0.18752 0.44349 0.91748 0.0
H2779 H 0.21488 0.44686 0.84928 0.0
H2780 H 0.17951 0.47064 0.88003 0.0
C2781 C 0.20489 0.42105 0.92844 0.0
C2782 C 0.6576 0.55501 0.36932 0.0
C2783 C 0.66613 0.55167 0.39834 0.0
H2784 H 0.66319 0.57845 0.32986 0.0
C2785 C 0.68997 0.56749 0.40855 0.0
H2786 H 0.63916 0.54344 0.36074 0.0
C2787 C 0.70382 0.58755 0.39078 0.0
C2788 C 0.69392 0.59247 0.36247 0.0
H2789 H 0.69734 0.56511 0.43067 0.0
H2790 H 0.72115 0.60043 0.39988 0.0
C2791 C 0.67144 0.57515 0.35154 0.0
C2792 C 0.32527 0.60893 0.4286 0.0
C2793 C 0.3426 0.58647 0.41762 0.0
H2794 H 0.29352 0.64121 0.41947 0.0
C2795 C 0.33766 0.57662 0.3893 0.0
H2796 H 0.32857 0.61714 0.45029 0.0
C2797 C 0.31758 0.59049 0.37156 0.0
C2798 C 0.30176 0.61431 0.38182 0.0
H2799 H 0.35054 0.55931 0.38017 0.0
H2800 H 0.3152 0.58316 0.34944 0.0
C2801 C 0.3051 0.62278 0.41085 0.0
C2802 C 0.18944 0.96253 0.62105 0.0
C2803 C 0.16563 0.97837 0.63132 0.0
H2804 H 0.22054 0.92948 0.62961 0.0
C2805 C 0.15712 0.97497 0.66033 0.0
H2806 H 0.1968 0.96495 0.59894 0.0
C2807 C 0.17092 0.95475 0.67805 0.0
C2808 C 0.19336 0.93741 0.66706 0.0
H2809 H 0.1387 0.98655 0.66897 0.0
H2810 H 0.16268 0.95141 0.69973 0.0
C2811 C 0.20325 0.94238 0.63875 0.0
C2812 C 0.21267 0.5901 0.65843 0.0
C2813 C 0.22845 0.61397 0.64822 0.0
H2814 H 0.17972 0.55892 0.64979 0.0
C2815 C 0.22506 0.62252 0.61922 0.0
H2816 H 0.21509 0.58271 0.68054 0.0
C2817 C 0.20488 0.60871 0.60146 0.0
C2818 C 0.18758 0.58621 0.6124 0.0
H2819 H 0.2366 0.64099 0.61064 0.0
H2820 H 0.20153 0.61699 0.5798 0.0
C2821 C 0.19258 0.57626 0.64069 0.0
C2822 C 0.82524 0.9214 0.60163 0.0
C2823 C 0.84262 0.94383 0.61256 0.0
H2824 H 0.79347 0.88918 0.61082 0.0
C2825 C 0.83773 0.95373 0.64088 0.0
H2826 H 0.82851 0.91316 0.57994 0.0
C2827 C 0.81764 0.93991 0.65865 0.0
C2828 C 0.80176 0.91611 0.64844 0.0
H2829 H 0.85065 0.97102 0.64998 0.0
H2830 H 0.81529 0.94727 0.68078 0.0
C2831 C 0.80507 0.9076 0.61941 0.0
C2832 C 0.66098 0.87235 0.55506 0.0
C2833 C 0.63194 0.86386 0.55179 0.0
H2834 H 0.70047 0.86678 0.57845 0.0
C2835 C 0.62174 0.84004 0.56765 0.0
H2836 H 0.66956 0.89078 0.54345 0.0
C2837 C 0.63953 0.8262 0.5877 0.0
C2838 C 0.66785 0.8361 0.59258 0.0
H2839 H 0.59961 0.83269 0.56532 0.0
H2840 H 0.63043 0.8089 0.60062 0.0
C2841 C 0.67878 0.85854 0.57519 0.0
C2842 C 0.07674 0.1412 0.69247 0.0
C2843 C 0.08663 0.1129 0.68748 0.0
H2844 H 0.08322 0.18101 0.71504 0.0
C2845 C 0.1091 0.1019 0.70478 0.0
H2846 H 0.05943 0.15035 0.6796 0.0
C2847 C 0.12292 0.11962 0.72499 0.0
C2848 C 0.11441 0.14863 0.72841 0.0
H2849 H 0.11734 0.08023 0.70142 0.0
H2850 H 0.14136 0.11099 0.73654 0.0
C2851 C 0.09058 0.1589 0.7126 0.0
C2852 C 0.40874 0.68985 0.56754 0.0
C2853 C 0.39853 0.66603 0.55168 0.0
H2854 H 0.40004 0.72098 0.60052 0.0
C2855 C 0.36951 0.6575 0.55499 0.0
H2856 H 0.43086 0.69722 0.56519 0.0
C2857 C 0.35171 0.67131 0.57513 0.0
C2858 C 0.36262 0.69377 0.59249 0.0
H2859 H 0.36093 0.63907 0.54339 0.0
H2860 H 0.33002 0.66306 0.57839 0.0
C2861 C 0.39095 0.70367 0.58761 0.0
C2862 C 0.93933 0.37086 0.71255 0.0
C2863 C 0.91556 0.38117 0.72841 0.0
H2864 H 0.97043 0.37937 0.67948 0.0
C2865 C 0.90708 0.4102 0.72501 0.0
H2866 H 0.94667 0.34874 0.71496 0.0
C2867 C 0.9209 0.42789 0.70479 0.0
C2868 C 0.94332 0.41687 0.68743 0.0
H2869 H 0.88869 0.41886 0.73661 0.0
H2870 H 0.91269 0.44958 0.70145 0.0
C2871 C 0.95316 0.38854 0.69239 0.0
C2872 C 0.678 0.17121 0.95493 0.0
C2873 C 0.66702 0.19361 0.93753 0.0
H2874 H 0.66889 0.13903 0.98675 0.0
C2875 C 0.63869 0.20348 0.94243 0.0
H2876 H 0.6997 0.16299 0.95165 0.0
C2877 C 0.62096 0.18968 0.96257 0.0
C2878 C 0.63122 0.16591 0.97847 0.0
H2879 H 0.62955 0.22074 0.92949 0.0
H2880 H 0.59883 0.19703 0.96493 0.0
C2881 C 0.66026 0.15743 0.97513 0.0
C2882 C 0.45359 0.14074 0.33754 0.0
C2883 C 0.44366 0.11245 0.34253 0.0
H2884 H 0.44713 0.18059 0.31504 0.0
C2885 C 0.42112 0.10153 0.32527 0.0
H2886 H 0.47096 0.14983 0.35037 0.0
C2887 C 0.40728 0.11929 0.30512 0.0
C2888 C 0.41584 0.14829 0.30171 0.0
H2889 H 0.41284 0.07986 0.32863 0.0
H2890 H 0.3888 0.11071 0.2936 0.0
C2891 C 0.43973 0.15849 0.31747 0.0
C2892 C 0.40894 0.3402 0.96246 0.0
C2893 C 0.39868 0.36398 0.97835 0.0
H2894 H 0.40034 0.30914 0.92939 0.0
C2895 C 0.36965 0.37247 0.97502 0.0
H2896 H 0.43107 0.33286 0.96482 0.0
C2897 C 0.3519 0.35868 0.95482 0.0
C2898 C 0.36288 0.33628 0.93743 0.0
H2899 H 0.36102 0.39087 0.98664 0.0
H2900 H 0.33021 0.36691 0.95154 0.0
C2901 C 0.3912 0.3264 0.94233 0.0
C2902 C 0.62291 0.41067 0.30504 0.0
C2903 C 0.61445 0.38163 0.30172 0.0
H2904 H 0.61726 0.45013 0.32846 0.0
C2905 C 0.59065 0.37137 0.31757 0.0
H2906 H 0.64133 0.41929 0.29344 0.0
C2907 C 0.57677 0.38912 0.33764 0.0
C2908 C 0.58661 0.41745 0.34253 0.0
H2909 H 0.58333 0.34924 0.31521 0.0
H2910 H 0.55948 0.37999 0.35054 0.0
C2911 C 0.60906 0.42843 0.32518 0.0
C2912 C 0.56763 0.62162 0.84039 0.0
C2913 C 0.5518 0.63184 0.86423 0.0
H2914 H 0.60059 0.63026 0.80923 0.0
C2915 C 0.55516 0.66086 0.87275 0.0
H2916 H 0.56524 0.5995 0.83303 0.0
C2917 C 0.57533 0.67862 0.85893 0.0
C2918 C 0.59266 0.66767 0.83646 0.0
H2919 H 0.54358 0.66945 0.89119 0.0
H2920 H 0.57864 0.70029 0.86718 0.0
C2921 C 0.58771 0.63937 0.82655 0.0
C2922 C 0.87092 0.21259 0.43948 0.0
C2923 C 0.88122 0.22848 0.41572 0.0
H2924 H 0.87946 0.17952 0.47057 0.0
C2925 C 0.91026 0.22512 0.40727 0.0
H2926 H 0.84878 0.21497 0.4468 0.0
C2927 C 0.92798 0.20492 0.42109 0.0
C2928 C 0.91697 0.18754 0.44349 0.0
H2929 H 0.91892 0.23673 0.38888 0.0
H2930 H 0.94969 0.20163 0.41289 0.0
C2931 C 0.88863 0.19246 0.45332 0.0
C2932 C 0.4425 0.8906 0.82636 0.0
C2933 C 0.43755 0.86229 0.83626 0.0
H2934 H 0.46495 0.93047 0.83287 0.0
C2935 C 0.45488 0.85133 0.85874 0.0
H2936 H 0.42962 0.89971 0.80904 0.0
C2937 C 0.47503 0.8691 0.87257 0.0
C2938 C 0.47838 0.89812 0.86407 0.0
H2939 H 0.45156 0.82965 0.86697 0.0
H2940 H 0.4866 0.8605 0.89102 0.0
C2941 C 0.46257 0.90835 0.84023 0.0
C2942 C 0.14109 0.33768 0.45367 0.0
C2943 C 0.11276 0.34254 0.44378 0.0
H2944 H 0.181 0.31527 0.44721 0.0
C2945 C 0.10183 0.32516 0.42135 0.0
H2946 H 0.15018 0.35061 0.47096 0.0
C2947 C 0.11963 0.30501 0.40755 0.0
C2948 C 0.14866 0.30171 0.41606 0.0
H2949 H 0.08014 0.32841 0.41311 0.0
H2950 H 0.11103 0.2934 0.38913 0.0
C2951 C 0.15887 0.3176 0.43985 0.0
C2952 C 0.5753 0.35152 0.67124 0.0
C2953 C 0.59262 0.36244 0.69373 0.0
H2954 H 0.54358 0.36072 0.63897 0.0
C2955 C 0.58767 0.39074 0.70367 0.0
H2956 H 0.57862 0.32985 0.66297 0.0
C2957 C 0.56759 0.4085 0.68984 0.0
C2958 C 0.55178 0.39831 0.66598 0.0
H2959 H 0.60055 0.39983 0.721 0.0
H2960 H 0.5652 0.43061 0.69723 0.0
C2961 C 0.55514 0.3693 0.65743 0.0
C2962 C 0.60199 0.20486 0.60872 0.0
C2963 C 0.613 0.18747 0.58632 0.0
H2964 H 0.61108 0.23667 0.64092 0.0
C2965 C 0.64132 0.1924 0.57646 0.0
H2966 H 0.5803 0.20156 0.61693 0.0
C2967 C 0.65904 0.21252 0.59028 0.0
C2968 C 0.64876 0.2284 0.61406 0.0
H2969 H 0.65048 0.17947 0.5592 0.0
H2970 H 0.68118 0.2149 0.58295 0.0
C2971 C 0.61973 0.22506 0.62253 0.0
C2972 C 0.47505 0.16067 0.65708 0.0
C2973 C 0.47842 0.13165 0.66559 0.0
H2974 H 0.45159 0.20011 0.6627 0.0
C2975 C 0.4626 0.12141 0.68942 0.0
H2976 H 0.48663 0.16928 0.63864 0.0
C2977 C 0.44252 0.13916 0.70328 0.0
C2978 C 0.43758 0.16748 0.69341 0.0
H2979 H 0.46499 0.09929 0.69677 0.0
H2980 H 0.42964 0.13004 0.72061 0.0
C2981 C 0.4549 0.17843 0.67093 0.0
C2982 C 0.38924 0.33768 0.57639 0.0
C2983 C 0.41756 0.34257 0.58629 0.0
H2984 H 0.34934 0.31523 0.58284 0.0
C2985 C 0.42849 0.32519 0.60873 0.0
H2986 H 0.38013 0.3506 0.55909 0.0
C2987 C 0.41071 0.30503 0.62252 0.0
C2988 C 0.38168 0.30171 0.61401 0.0
H2989 H 0.45018 0.32847 0.61697 0.0
H2990 H 0.41931 0.29343 0.64094 0.0
C2991 C 0.37147 0.31759 0.5902 0.0
C2992 C 0.85906 0.57514 0.67844 0.0
C2993 C 0.83658 0.59246 0.66748 0.0
H2994 H 0.89135 0.54342 0.66929 0.0
C2995 C 0.8267 0.58752 0.63916 0.0
H2996 H 0.86729 0.57845 0.70012 0.0
C2997 C 0.84057 0.56745 0.62142 0.0
C2998 C 0.86441 0.55164 0.63166 0.0
H2999 H 0.80938 0.6004 0.63005 0.0
H3000 H 0.83322 0.56507 0.5993 0.0
C3001 C 0.87291 0.55499 0.66068 0.0
C3002 C 0.8729 0.475 0.86967 0.0
C3003 C 0.86434 0.47846 0.89866 0.0
H3004 H 0.86737 0.45138 0.83031 0.0
C3005 C 0.84049 0.46268 0.90892 0.0
H3006 H 0.89136 0.48653 0.86106 0.0
C3007 C 0.82667 0.44254 0.89122 0.0
C3008 C 0.8366 0.4375 0.86294 0.0
H3009 H 0.83309 0.46515 0.93101 0.0
H3010 H 0.80933 0.42969 0.90036 0.0
C3011 C 0.85909 0.45478 0.85196 0.0
C3012 C 0.72505 0.90731 0.4106 0.0
C3013 C 0.72835 0.9158 0.38157 0.0
H3014 H 0.70162 0.91287 0.45008 0.0
C3015 C 0.71243 0.93958 0.37134 0.0
H3016 H 0.73668 0.88891 0.41921 0.0
C3017 C 0.69233 0.95338 0.38911 0.0
C3018 C 0.68746 0.94351 0.41744 0.0
H3019 H 0.71477 0.94693 0.34921 0.0
H3020 H 0.67938 0.97066 0.37999 0.0
C3021 C 0.70487 0.9211 0.42838 0.0
C3022 C 0.18981 0.06748 0.90875 0.0
C3023 C 0.16597 0.05167 0.8985 0.0
H3024 H 0.22099 0.10044 0.90013 0.0
C3025 C 0.15747 0.05503 0.86948 0.0
H3026 H 0.19716 0.06509 0.93087 0.0
C3027 C 0.17132 0.07518 0.85173 0.0
C3028 C 0.19379 0.0925 0.86269 0.0
H3029 H 0.13903 0.04346 0.86087 0.0
H3030 H 0.16309 0.0785 0.83004 0.0
C3031 C 0.20367 0.08756 0.89101 0.0
C3032 C 0.82526 0.10895 0.92863 0.0
C3033 C 0.84258 0.08648 0.91765 0.0
H3034 H 0.79352 0.14123 0.91951 0.0
C3035 C 0.83761 0.0766 0.88934 0.0
H3036 H 0.82859 0.11717 0.95032 0.0
C3037 C 0.81752 0.09047 0.87161 0.0
C3038 C 0.80171 0.1143 0.88187 0.0
H3039 H 0.85048 0.05929 0.88021 0.0
H3040 H 0.81511 0.08313 0.84949 0.0
C3041 C 0.80508 0.12279 0.91089 0.0
C3042 C 0.70324 0.44231 0.13857 0.0
C3043 C 0.6934 0.43737 0.1669 0.0
H3044 H 0.69677 0.46487 0.09876 0.0
C3045 C 0.671 0.45475 0.17792 0.0
H3046 H 0.7205 0.42938 0.12941 0.0
C3047 C 0.6572 0.47498 0.16022 0.0
C3048 C 0.66567 0.47836 0.13119 0.0
H3049 H 0.66279 0.45143 0.19962 0.0
H3050 H 0.63881 0.48659 0.16888 0.0
C3051 C 0.68943 0.46247 0.12089 0.0
C3052 C 0.69256 0.07639 0.14065 0.0
C3053 C 0.68756 0.08633 0.11237 0.0
H3054 H 0.71507 0.08285 0.1805 0.0
C3055 C 0.70483 0.10886 0.10144 0.0
H3056 H 0.67973 0.05902 0.14975 0.0
C3057 C 0.72499 0.12269 0.1192 0.0
C3058 C 0.7284 0.11413 0.1482 0.0
H3059 H 0.70147 0.11713 0.07978 0.0
H3060 H 0.73652 0.14117 0.11062 0.0
C3061 C 0.71264 0.09024 0.1584 0.0
C3062 C 0.33768 0.45363 0.14065 0.0
C3063 C 0.34261 0.44372 0.11234 0.0
H3064 H 0.31525 0.44716 0.18054 0.0
C3065 C 0.32528 0.42123 0.10142 0.0
H3066 H 0.35057 0.47096 0.14974 0.0
C3067 C 0.30514 0.4074 0.11921 0.0
C3068 C 0.30181 0.41593 0.14823 0.0
H3069 H 0.32858 0.41298 0.07974 0.0
H3070 H 0.29357 0.38895 0.11064 0.0
C3071 C 0.31763 0.43978 0.15843 0.0
C3072 C 1.01152 0.29508 0.21592 0.0
C3073 C 0.03958 0.28341 0.21459 0.0
H3074 H 0.9659 0.28646 0.21416 0.0
C3075 C 0.04296 0.25329 0.21628 0.0
H3076 H 1.00833 0.3182 0.21385 0.0
C3077 C 0.01865 0.23512 0.21608 0.0
C3078 C 0.9906 0.24678 0.21459 0.0
H3079 H 0.06429 0.24373 0.21446 0.0
H3080 H 0.02185 0.21198 0.21413 0.0
C3081 C 0.98721 0.27691 0.21611 0.0
C3082 C 0.50342 0.73703 0.06326 0.0
C3083 C 0.5335 0.74074 0.06496 0.0
H3084 H 0.46189 0.75769 0.06542 0.0
C3085 C 0.54488 0.76891 0.0636 0.0
H3086 H 0.4941 0.71561 0.06509 0.0
C3087 C 0.52645 0.79302 0.06337 0.0
C3088 C 0.49636 0.78931 0.06494 0.0
H3089 H 0.56797 0.77235 0.06566 0.0
H3090 H 0.53578 0.81444 0.0653 0.0
C3091 C 0.48499 0.76114 0.06346 0.0
C3092 C 0.98714 0.75337 0.31348 0.0
C3093 C 0.99074 0.78346 0.3152 0.0
H3094 H 1.00796 0.71192 0.31562 0.0
C3095 C 0.01888 0.79494 0.31389 0.0
H3096 H 0.96575 0.74397 0.31529 0.0
C3097 C 0.04306 0.7766 0.31368 0.0
C3098 C 0.03946 0.74649 0.3152 0.0
H3099 H 0.02223 0.81804 0.31597 0.0
H3100 H 0.06445 0.78599 0.31563 0.0
C3101 C 1.01132 0.73503 0.31369 0.0
C3102 C 0.04525 0.76146 0.96628 0.0
C3103 C 0.03365 0.78954 0.96488 0.0
H3104 H 0.03651 0.71586 0.96458 0.0
C3105 C 1.00353 0.79301 0.96648 0.0
H3106 H 0.06837 0.75821 0.96429 0.0
C3107 C 0.9853 0.76876 0.96626 0.0
C3108 C 0.99689 0.74068 0.96484 0.0
H3109 H 0.99404 0.81436 0.9646 0.0
H3110 H 0.96217 0.77202 0.96424 0.0
C3111 C 0.02701 0.73721 0.96647 0.0
C3112 C 0.21642 0.0186 0.2352 0.0
C3113 C 0.21497 0.99055 0.24689 0.0
H3114 H 0.21477 0.06422 0.24379 0.0
C3115 C 0.21658 0.98718 0.27701 0.0
H3116 H 0.21441 0.02178 0.21207 0.0
C3117 C 0.21641 1.0115 0.29517 0.0
C3118 C 0.21502 0.03954 0.28348 0.0
H3119 H 0.21467 0.96587 0.28657 0.0
H3120 H 0.21439 1.00831 0.3183 0.0
C3121 C 0.21664 0.04291 0.25336 0.0
C3122 C 0.23723 0.56371 1.00322 0.0
C3123 C 0.24073 0.56528 0.03333 0.0
H3124 H 0.25817 0.56596 0.96184 0.0
C3125 C 0.26883 0.56386 0.04489 0.0
H3126 H 0.21587 0.56561 0.99376 0.0
C3127 C 0.29307 0.56366 0.02662 0.0
C3128 C 0.28957 0.56531 0.99651 0.0
H3129 H 0.27212 0.56583 0.06801 0.0
H3130 H 0.31443 0.56553 0.03609 0.0
C3131 C 0.26146 0.56392 0.98495 0.0
C3132 C 0.81364 0.54308 0.27658 0.0
C3133 C 0.81523 0.53966 0.24646 0.0
H3134 H 0.81587 0.52201 0.31789 0.0
C3135 C 0.81378 0.5116 0.23481 0.0
H3136 H 0.81556 0.56441 0.2861 0.0
C3137 C 0.81357 0.48732 0.25301 0.0
C3138 C 0.81522 0.49073 0.28313 0.0
H3139 H 0.81577 0.50839 0.21169 0.0
H3140 H 0.81544 0.46599 0.24347 0.0
C3141 C 0.81383 0.51879 0.29477 0.0
C3142 C 0.79286 0.96627 1.00317 0.0
C3143 C 0.78954 0.96459 0.0333 0.0
H3144 H 0.77166 0.96413 0.96191 0.0
C3145 C 0.76151 0.9659 0.04503 0.0
H3146 H 0.81416 0.96446 0.99357 0.0
C3147 C 0.73716 0.96608 0.02691 0.0
C3148 C 0.74048 0.96457 0.99677 0.0
H3149 H 0.75836 0.96383 0.06816 0.0
H3150 H 0.71586 0.96412 0.0365 0.0
C3151 C 0.76851 0.96607 0.98505 0.0
C3152 C 0.27683 0.21652 0.98719 0.0
C3153 C 0.24673 0.21479 0.99074 0.0
H3154 H 0.31825 0.2144 1.00807 0.0
C3155 C 0.23521 0.2161 0.01886 0.0
H3156 H 0.28627 0.21471 0.96581 0.0
C3157 C 0.25351 0.21633 0.04307 0.0
C3158 C 0.28362 0.21482 0.03951 0.0
H3159 H 0.2121 0.21402 0.02218 0.0
H3160 H 0.24408 0.21438 0.06443 0.0
C3161 C 0.29513 0.21633 1.0114 0.0
C3162 C 0.29484 0.81346 0.51904 0.0
C3163 C 0.28348 0.81488 0.49085 0.0
H3164 H 0.28572 0.81511 0.56456 0.0
C3165 C 0.2534 0.81325 0.48713 0.0
H3166 H 0.31794 0.81547 0.52249 0.0
C3167 C 0.23496 0.81346 0.51123 0.0
C3168 C 0.24632 0.81487 0.53942 0.0
H3169 H 0.24409 0.81513 0.4657 0.0
H3170 H 0.21186 0.81547 0.50778 0.0
C3171 C 0.2764 0.81324 0.54314 0.0
C3172 C 0.06345 0.50307 0.73732 0.0
C3173 C 0.06517 0.53318 0.74073 0.0
H3174 H 0.06559 0.46175 0.7584 0.0
C3175 C 0.06385 0.54484 0.76879 0.0
H3176 H 0.06527 0.49353 0.71599 0.0
C3177 C 0.06365 0.52665 0.79308 0.0
C3178 C 0.06517 0.49653 0.78967 0.0
H3179 H 0.06594 0.56796 0.77199 0.0
H3180 H 0.06562 0.53619 0.8144 0.0
C3181 C 0.06365 0.48488 0.76162 0.0
C3182 C 0.7352 0.716 0.51857 0.0
C3183 C 0.74693 0.71465 0.49054 0.0
H3184 H 0.74372 0.71428 0.5642 0.0
C3185 C 0.77706 0.71634 0.48722 0.0
H3186 H 0.71206 0.71394 0.52171 0.0
C3187 C 0.79519 0.71617 0.51156 0.0
C3188 C 0.78346 0.7147 0.53959 0.0
H3189 H 0.78666 0.71449 0.46592 0.0
H3190 H 0.81833 0.71422 0.50841 0.0
C3191 C 0.75332 0.71622 0.54291 0.0
C3192 C 0.46641 0.5032 0.29287 0.0
C3193 C 0.46487 0.53334 0.28958 0.0
H3194 H 0.46413 0.46198 0.27163 0.0
C3195 C 0.46633 0.54509 0.26156 0.0
H3196 H 0.46448 0.49359 0.31416 0.0
C3197 C 0.4665 0.527 0.2372 0.0
C3198 C 0.46482 0.49687 0.24049 0.0
H3199 H 0.46438 0.56824 0.25844 0.0
H3200 H 0.46464 0.53662 0.21591 0.0
C3201 C 0.46619 0.48511 0.26851 0.0
C3202 C 0.96625 0.04509 0.7614 0.0
C3203 C 0.96491 0.0334 0.78944 0.0
H3204 H 0.96449 0.03651 0.71577 0.0
C3205 C 0.96657 1.00328 0.79281 0.0
H3206 H 0.96421 0.06822 0.75822 0.0
C3207 C 0.96635 0.98513 0.76849 0.0
C3208 C 0.96487 0.99681 0.74045 0.0
H3209 H 0.96473 0.99371 0.81412 0.0
H3210 H 0.96437 0.96199 0.77167 0.0
C3211 C 0.96643 0.02694 0.73708 0.0
C3212 C 0.48721 0.77708 0.71597 0.0
C3213 C 0.49042 0.74693 0.71455 0.0
H3214 H 0.50857 0.81824 0.71365 0.0
C3215 C 0.5184 0.7351 0.71613 0.0
H3216 H 0.46595 0.78674 0.71394 0.0
C3217 C 0.54281 0.75313 0.71632 0.0
C3218 C 0.53961 0.78326 0.71455 0.0
H3219 H 0.52146 0.71194 0.71426 0.0
H3220 H 0.56409 0.74344 0.71456 0.0
C3221 C 0.51163 0.7951 0.71579 0.0
C3222 C 0.04489 0.26906 0.56358 0.0
C3223 C 0.03358 0.24086 0.56491 0.0
H3224 H 0.03569 0.31457 0.56527 0.0
C3225 C 1.00351 0.23708 0.56317 0.0
H3226 H 0.06798 0.27255 0.56566 0.0
C3227 C 0.98503 0.26115 0.56337 0.0
C3228 C 0.99633 0.28936 0.56486 0.0
H3229 H 0.99423 0.21564 0.56498 0.0
H3230 H 0.96193 0.25766 0.56529 0.0
C3231 C 0.02642 0.29313 0.56333 0.0
C3232 C 0.48715 0.25336 0.81357 0.0
C3233 C 0.49073 0.28346 0.81526 0.0
H3234 H 0.508 0.21193 0.81573 0.0
C3235 C 0.51886 0.29495 0.81393 0.0
H3236 H 0.46577 0.24394 0.81539 0.0
C3237 C 0.54306 0.27663 0.81372 0.0
C3238 C 0.53948 0.24653 0.81526 0.0
H3239 H 0.5222 0.31805 0.81598 0.0
H3240 H 0.56443 0.28604 0.81566 0.0
C3241 C 0.51135 0.23504 0.81378 0.0
C3242 C 0.52713 0.23723 0.46644 0.0
C3243 C 0.497 0.24061 0.46486 0.0
H3244 H 0.56843 0.25833 0.4642 0.0
C3245 C 0.48533 0.26866 0.4663 0.0
H3246 H 0.53667 0.21591 0.46452 0.0
C3247 C 0.5035 0.29297 0.46649 0.0
C3248 C 0.53363 0.28958 0.46485 0.0
H3249 H 0.46219 0.27186 0.46432 0.0
H3250 H 0.49395 0.31429 0.46462 0.0
C3251 C 0.5453 0.26153 0.46623 0.0
C3252 C 0.71633 0.51153 0.79514 0.0
C3253 C 0.71495 0.53956 0.78341 0.0
H3254 H 0.71458 0.4659 0.78662 0.0
C3255 C 0.71659 0.54288 0.75328 0.0
H3256 H 0.7143 0.50839 0.81828 0.0
C3257 C 0.71637 0.51854 0.73516 0.0
C3258 C 0.71491 0.49052 0.74689 0.0
H3259 H 0.71473 0.56418 0.74369 0.0
H3260 H 0.71438 0.52169 0.71203 0.0
C3261 C 0.71651 0.48719 0.77702 0.0
C3262 C 0.79313 0.06366 0.52657 0.0
C3263 C 0.78943 0.06517 0.49648 0.0
H3264 H 0.77245 0.06596 0.56807 0.0
C3265 C 0.76125 0.06365 0.48511 0.0
H3266 H 0.81455 0.06562 0.53588 0.0
C3267 C 0.73713 0.06342 0.50353 0.0
C3268 C 0.74083 0.06516 0.53361 0.0
H3269 H 0.75781 0.06556 0.46201 0.0
H3270 H 0.7157 0.06521 0.4942 0.0
C3271 C 0.76901 0.06387 0.54499 0.0
C3272 C 0.31361 0.9872 0.75299 0.0
C3273 C 0.31526 0.99052 0.78312 0.0
H3274 H 0.31579 1.00837 0.71173 0.0
C3275 C 0.31387 0.01855 0.79485 0.0
H3276 H 0.31548 0.96589 0.74341 0.0
C3277 C 0.31368 0.04289 0.77672 0.0
C3278 C 0.31525 0.03956 0.74659 0.0
H3279 H 0.31591 0.0217 0.81798 0.0
H3280 H 0.3156 0.06419 0.78631 0.0
C3281 C 0.3138 1.01153 0.73487 0.0
C3282 C 0.23725 0.46625 0.52684 0.0
C3283 C 0.2406 0.46461 0.49672 0.0
H3284 H 0.25842 0.4641 0.56812 0.0
C3285 C 0.26864 0.46599 0.48501 0.0
H3286 H 0.21594 0.46438 0.53642 0.0
C3287 C 0.29297 0.46621 0.50315 0.0
C3288 C 0.28963 0.46464 0.53328 0.0
H3289 H 0.27181 0.46396 0.46188 0.0
H3290 H 0.31428 0.4643 0.49357 0.0
C3291 C 0.26159 0.46608 0.54498 0.0
C3292 C 0.75351 0.31314 0.9871 0.0
C3293 C 0.78358 0.31482 0.99092 0.0
H3294 H 0.7119 0.31533 1.00762 0.0
C3295 C 0.79484 0.31344 0.01914 0.0
H3296 H 0.74426 0.31499 0.96564 0.0
C3297 C 0.77633 0.3132 0.04319 0.0
C3298 C 0.74626 0.3148 0.03937 0.0
H3299 H 0.81793 0.31547 0.02266 0.0
H3300 H 0.78558 0.3151 0.06464 0.0
C3301 C 0.73499 0.31336 1.01115 0.0
C3302 C 0.56388 0.04472 0.26873 0.0
C3303 C 0.56526 0.03299 0.24071 0.0
H3304 H 0.56561 0.0362 0.31437 0.0
C3305 C 0.56362 1.00286 0.23739 0.0
H3306 H 0.56591 0.06785 0.27187 0.0
C3307 C 0.56382 0.98474 0.26173 0.0
C3308 C 0.56527 0.99647 0.28976 0.0
H3309 H 0.56549 0.99326 0.21609 0.0
H3310 H 0.56581 0.96161 0.25859 0.0
C3311 C 0.56369 0.0266 0.29308 0.0
loop_
_geom_bond_atom_site_label_1
_geom_bond_atom_site_label_2
_geom_bond_distance
_geom_bond_site_symmetry_2
_ccdc_geom_bond_type
Zn0 N4 2.020 . S
Zn0 O8 2.019 . S
Zn0 N10 2.119 . S
Zn0 O18 1.975 . S
C1 N2 1.334 . S
C1 N5 1.336 . S
N2 C1 1.334 . S
N2 C3 1.334 . S
C3 N2 1.334 . S
C3 N4 1.336 . S
N4 Zn0 2.020 . S
N4 C3 1.336 . S
N4 N5 1.354 . S
N5 C1 1.336 . S
N5 N4 1.354 . S
N5 Zn9 2.020 . S
C6 O7 1.244 . S
C6 O30 1.257 . S
O7 C6 1.244 . S
O8 Zn0 2.019 . S
O8 C28 1.257 . S
Zn9 N5 2.020 . S
Zn9 O16 1.975 . S
Zn9 N25 2.119 . S
Zn9 O30 2.019 . S
N10 Zn0 2.119 . S
N10 C12 1.334 . S
N10 C13 1.328 . S
C11 C12 1.391 . S
C11 N14 1.329 . S
C11 H32 0.930 . S
C12 N10 1.334 . S
C12 C11 1.391 . S
C12 H19 0.930 . S
C13 N10 1.328 . S
C13 C15 1.392 . S
C13 H20 0.930 . S
N14 C11 1.329 . S
N14 C15 1.331 . S
C15 C13 1.392 . S
C15 N14 1.331 . S
O16 Zn9 1.975 . S
O16 C17 1.252 . S
C17 O16 1.252 . S
C17 O18 1.252 . S
O18 Zn0 1.975 . S
O18 C17 1.252 . S
H19 C12 0.930 . S
H20 C13 0.930 . S
C21 C22 1.392 . S
C21 N25 1.328 . S
C21 H27 0.930 . S
C22 C21 1.392 . S
C22 N26 1.331 . S
C23 C24 1.391 . S
C23 N26 1.329 . S
C23 H33 0.930 . S
C24 C23 1.391 . S
C24 N25 1.334 . S
C24 H31 0.930 . S
N25 Zn9 2.119 . S
N25 C21 1.328 . S
N25 C24 1.334 . S
N26 C22 1.331 . S
N26 C23 1.329 . S
H27 C21 0.930 . S
C28 O8 1.257 . S
C28 O29 1.244 . S
O29 C28 1.244 . S
O30 C6 1.257 . S
O30 Zn9 2.019 . S
H31 C24 0.930 . S
H32 C11 0.930 . S
H33 C23 0.930 . S
Zn34 N38 2.020 . S
Zn34 O42 2.019 . S
Zn34 N44 2.119 . S
Zn34 O52 1.975 . S
C35 N36 1.334 . S
C35 N39 1.336 . S
N36 C35 1.334 . S
N36 C37 1.334 . S
C37 N36 1.334 . S
C37 N38 1.336 . S
N38 Zn34 2.020 . S
N38 C37 1.336 . S
N38 N39 1.354 . S
N39 C35 1.336 . S
N39 N38 1.354 . S
N39 Zn43 2.020 . S
C40 O41 1.244 1_556 S
C40 O64 1.257 1_556 S
O41 C40 1.244 1_554 S
O42 Zn34 2.019 . S
O42 C62 1.257 . S
Zn43 N39 2.020 . S
Zn43 O50 1.975 . S
Zn43 N59 2.119 . S
Zn43 O64 2.019 . S
N44 Zn34 2.119 . S
N44 C46 1.334 . S
N44 C47 1.328 . S
C45 C46 1.391 . S
C45 N48 1.329 . S
C45 H66 0.930 . S
C46 N44 1.334 . S
C46 C45 1.391 . S
C46 H53 0.930 . S
C47 N44 1.328 . S
C47 C49 1.392 . S
C47 H54 0.930 . S
N48 C45 1.329 . S
N48 C49 1.331 . S
C49 C47 1.392 . S
C49 N48 1.331 . S
O50 Zn43 1.975 . S
O50 C51 1.252 . S
C51 O50 1.252 . S
C51 O52 1.252 . S
O52 Zn34 1.975 . S
O52 C51 1.252 . S
H53 C46 0.930 . S
H54 C47 0.930 . S
C55 C56 1.392 . S
C55 N59 1.328 . S
C55 H61 0.930 . S
C56 C55 1.392 . S
C56 N60 1.331 . S
C57 C58 1.391 . S
C57 N60 1.329 . S
C57 H67 0.930 . S
C58 C57 1.391 . S
C58 N59 1.334 . S
C58 H65 0.930 . S
N59 Zn43 2.119 . S
N59 C55 1.328 . S
N59 C58 1.334 . S
N60 C56 1.331 . S
N60 C57 1.329 . S
H61 C55 0.930 . S
C62 O42 1.257 . S
C62 O63 1.244 . S
O63 C62 1.244 . S
O64 C40 1.257 1_554 S
O64 Zn43 2.019 . S
H65 C58 0.930 . S
H66 C45 0.930 . S
H67 C57 0.930 . S
Zn68 N72 2.020 . S
Zn68 O76 2.019 . S
Zn68 N78 2.119 . S
Zn68 O86 1.975 . S
C69 N70 1.334 . S
C69 N73 1.336 . S
N70 C69 1.334 . S
N70 C71 1.334 . S
C71 N70 1.334 . S
C71 N72 1.336 . S
N72 Zn68 2.020 . S
N72 C71 1.336 . S
N72 N73 1.354 . S
N73 C69 1.336 . S
N73 N72 1.354 . S
N73 Zn77 2.020 . S
C74 O75 1.244 . S
C74 O98 1.257 . S
O75 C74 1.244 . S
O76 Zn68 2.019 . S
O76 C96 1.257 . S
Zn77 N73 2.020 . S
Zn77 O84 1.975 . S
Zn77 N93 2.119 . S
Zn77 O98 2.019 . S
N78 Zn68 2.119 . S
N78 C80 1.334 . S
N78 C81 1.328 . S
C79 C80 1.391 . S
C79 N82 1.329 . S
C79 H100 0.930 . S
C80 N78 1.334 . S
C80 C79 1.391 . S
C80 H87 0.930 . S
C81 N78 1.328 . S
C81 C83 1.392 . S
C81 H88 0.930 . S
N82 C79 1.329 . S
N82 C83 1.331 . S
C83 C81 1.392 . S
C83 N82 1.331 . S
O84 Zn77 1.975 . S
O84 C85 1.252 . S
C85 O84 1.252 . S
C85 O86 1.252 . S
O86 Zn68 1.975 . S
O86 C85 1.252 . S
H87 C80 0.930 . S
H88 C81 0.930 . S
C89 C90 1.392 . S
C89 N93 1.328 . S
C89 H95 0.930 . S
C90 C89 1.392 . S
C90 N94 1.331 . S
C91 C92 1.391 . S
C91 N94 1.329 . S
C91 H101 0.930 . S
C92 C91 1.391 . S
C92 N93 1.334 . S
C92 H99 0.930 . S
N93 Zn77 2.119 . S
N93 C89 1.328 . S
N93 C92 1.334 . S
N94 C90 1.331 . S
N94 C91 1.329 . S
H95 C89 0.930 . S
C96 O76 1.257 . S
C96 O97 1.244 . S
O97 C96 1.244 . S
O98 C74 1.257 . S
O98 Zn77 2.019 . S
H99 C92 0.930 . S
H100 C79 0.930 . S
H101 C91 0.930 . S
Zn102 N106 2.020 . S
Zn102 O110 2.019 . S
Zn102 N112 2.119 . S
Zn102 O120 1.975 . S
C103 N104 1.334 . S
C103 N107 1.336 . S
N104 C103 1.334 . S
N104 C105 1.334 . S
C105 N104 1.334 . S
C105 N106 1.336 . S
N106 Zn102 2.020 . S
N106 C105 1.336 . S
N106 N107 1.354 . S
N107 C103 1.336 . S
N107 N106 1.354 . S
N107 Zn111 2.020 . S
C108 O109 1.244 1_556 S
C108 O132 1.257 1_556 S
O109 C108 1.244 1_554 S
O110 Zn102 2.019 . S
O110 C130 1.257 . S
Zn111 N107 2.020 . S
Zn111 O118 1.975 . S
Zn111 N127 2.119 . S
Zn111 O132 2.019 . S
N112 Zn102 2.119 . S
N112 C114 1.334 . S
N112 C115 1.328 . S
C113 C114 1.391 . S
C113 N116 1.329 1_565 S
C113 H134 0.930 . S
C114 N112 1.334 . S
C114 C113 1.391 . S
C114 H121 0.930 . S
C115 N112 1.328 . S
C115 C117 1.392 1_565 S
C115 H122 0.930 . S
N116 C113 1.329 1_545 S
N116 C117 1.331 . S
C117 C115 1.392 1_545 S
C117 N116 1.331 . S
O118 Zn111 1.975 . S
O118 C119 1.252 . S
C119 O118 1.252 . S
C119 O120 1.252 . S
O120 Zn102 1.975 . S
O120 C119 1.252 . S
H121 C114 0.930 . S
H122 C115 0.930 . S
C123 C124 1.392 . S
C123 N127 1.328 . S
C123 H129 0.930 . S
C124 C123 1.392 . S
C124 N128 1.331 . S
C125 C126 1.391 . S
C125 N128 1.329 . S
C125 H135 0.930 . S
C126 C125 1.391 . S
C126 N127 1.334 . S
C126 H133 0.930 . S
N127 Zn111 2.119 . S
N127 C123 1.328 . S
N127 C126 1.334 . S
N128 C124 1.331 . S
N128 C125 1.329 . S
H129 C123 0.930 . S
C130 O110 1.257 . S
C130 O131 1.244 . S
O131 C130 1.244 . S
O132 C108 1.257 1_554 S
O132 Zn111 2.019 . S
H133 C126 0.930 . S
H134 C113 0.930 . S
H135 C125 0.930 . S
Zn136 N140 2.020 . S
Zn136 O144 2.019 . S
Zn136 N146 2.119 . S
Zn136 O154 1.975 . S
C137 N138 1.334 . S
C137 N141 1.336 . S
N138 C137 1.334 . S
N138 C139 1.334 . S
C139 N138 1.334 . S
C139 N140 1.336 . S
N140 Zn136 2.020 . S
N140 C139 1.336 . S
N140 N141 1.354 . S
N141 C137 1.336 . S
N141 N140 1.354 . S
N141 Zn145 2.020 . S
C142 O143 1.244 . S
C142 O166 1.257 . S
O143 C142 1.244 . S
O144 Zn136 2.019 . S
O144 C164 1.257 . S
Zn145 N141 2.020 . S
Zn145 O152 1.975 . S
Zn145 N161 2.119 . S
Zn145 O166 2.019 . S
N146 Zn136 2.119 . S
N146 C148 1.334 . S
N146 C149 1.328 . S
C147 C148 1.391 . S
C147 N150 1.329 . S
C147 H168 0.930 . S
C148 N146 1.334 . S
C148 C147 1.391 . S
C148 H155 0.930 . S
C149 N146 1.328 . S
C149 C151 1.392 . S
C149 H156 0.930 . S
N150 C147 1.329 . S
N150 C151 1.331 . S
C151 C149 1.392 . S
C151 N150 1.331 . S
O152 Zn145 1.975 . S
O152 C153 1.252 . S
C153 O152 1.252 . S
C153 O154 1.252 . S
O154 Zn136 1.975 . S
O154 C153 1.252 . S
H155 C148 0.930 . S
H156 C149 0.930 . S
C157 C158 1.392 . S
C157 N161 1.328 . S
C157 H163 0.930 . S
C158 C157 1.392 . S
C158 N162 1.331 . S
C159 C160 1.391 . S
C159 N162 1.329 . S
C159 H169 0.930 . S
C160 C159 1.391 . S
C160 N161 1.334 . S
C160 H167 0.930 . S
N161 Zn145 2.119 . S
N161 C157 1.328 . S
N161 C160 1.334 . S
N162 C158 1.331 . S
N162 C159 1.329 . S
H163 C157 0.930 . S
C164 O144 1.257 . S
C164 O165 1.244 . S
O165 C164 1.244 . S
O166 C142 1.257 . S
O166 Zn145 2.019 . S
H167 C160 0.930 . S
H168 C147 0.930 . S
H169 C159 0.930 . S
Zn170 N174 2.020 . S
Zn170 O178 2.019 . S
Zn170 N180 2.119 . S
Zn170 O188 1.975 . S
C171 N172 1.334 . S
C171 N175 1.336 . S
N172 C171 1.334 . S
N172 C173 1.334 . S
C173 N172 1.334 . S
C173 N174 1.336 . S
N174 Zn170 2.020 . S
N174 C173 1.336 . S
N174 N175 1.354 . S
N175 C171 1.336 . S
N175 N174 1.354 . S
N175 Zn179 2.020 . S
C176 O177 1.244 . S
C176 O200 1.257 . S
O177 C176 1.244 . S
O178 Zn170 2.019 . S
O178 C198 1.257 1_556 S
Zn179 N175 2.020 . S
Zn179 O186 1.975 . S
Zn179 N195 2.119 . S
Zn179 O200 2.019 . S
N180 Zn170 2.119 . S
N180 C182 1.334 . S
N180 C183 1.328 . S
C181 C182 1.391 . S
C181 N184 1.329 . S
C181 H202 0.930 . S
C182 N180 1.334 . S
C182 C181 1.391 . S
C182 H189 0.930 . S
C183 N180 1.328 . S
C183 C185 1.392 . S
C183 H190 0.930 . S
N184 C181 1.329 . S
N184 C185 1.331 . S
C185 C183 1.392 . S
C185 N184 1.331 . S
O186 Zn179 1.975 . S
O186 C187 1.252 . S
C187 O186 1.252 . S
C187 O188 1.252 . S
O188 Zn170 1.975 . S
O188 C187 1.252 . S
H189 C182 0.930 . S
H190 C183 0.930 . S
C191 C192 1.392 . S
C191 N195 1.328 . S
C191 H197 0.930 . S
C192 C191 1.392 . S
C192 N196 1.331 . S
C193 C194 1.391 . S
C193 N196 1.329 . S
C193 H203 0.930 . S
C194 C193 1.391 . S
C194 N195 1.334 . S
C194 H201 0.930 . S
N195 Zn179 2.119 . S
N195 C191 1.328 . S
N195 C194 1.334 . S
N196 C192 1.331 . S
N196 C193 1.329 . S
H197 C191 0.930 . S
C198 O178 1.257 1_554 S
C198 O199 1.244 1_554 S
O199 C198 1.244 1_556 S
O200 C176 1.257 . S
O200 Zn179 2.019 . S
H201 C194 0.930 . S
H202 C181 0.930 . S
H203 C193 0.930 . S
Zn204 N208 2.020 . S
Zn204 O212 2.019 . S
Zn204 N214 2.119 . S
Zn204 O222 1.975 . S
C205 N206 1.334 . S
C205 N209 1.336 . S
N206 C205 1.334 . S
N206 C207 1.334 . S
C207 N206 1.334 . S
C207 N208 1.336 . S
N208 Zn204 2.020 . S
N208 C207 1.336 . S
N208 N209 1.354 . S
N209 C205 1.336 . S
N209 N208 1.354 . S
N209 Zn213 2.020 . S
C210 O211 1.244 . S
C210 O234 1.257 . S
O211 C210 1.244 . S
O212 Zn204 2.019 . S
O212 C232 1.257 . S
Zn213 N209 2.020 . S
Zn213 O220 1.975 . S
Zn213 N229 2.119 . S
Zn213 O234 2.019 . S
N214 Zn204 2.119 . S
N214 C216 1.334 . S
N214 C217 1.328 . S
C215 C216 1.391 . S
C215 N218 1.329 . S
C215 H236 0.930 . S
C216 N214 1.334 . S
C216 C215 1.391 . S
C216 H223 0.930 . S
C217 N214 1.328 . S
C217 C219 1.392 . S
C217 H224 0.930 . S
N218 C215 1.329 . S
N218 C219 1.331 . S
C219 C217 1.392 . S
C219 N218 1.331 . S
O220 Zn213 1.975 . S
O220 C221 1.252 . S
C221 O220 1.252 . S
C221 O222 1.252 . S
O222 Zn204 1.975 . S
O222 C221 1.252 . S
H223 C216 0.930 . S
H224 C217 0.930 . S
C225 C226 1.392 . S
C225 N229 1.328 . S
C225 H231 0.930 . S
C226 C225 1.392 . S
C226 N230 1.331 . S
C227 C228 1.391 . S
C227 N230 1.329 . S
C227 H237 0.930 . S
C228 C227 1.391 . S
C228 N229 1.334 . S
C228 H235 0.930 . S
N229 Zn213 2.119 . S
N229 C225 1.328 . S
N229 C228 1.334 . S
N230 C226 1.331 . S
N230 C227 1.329 . S
H231 C225 0.930 . S
C232 O212 1.257 . S
C232 O233 1.244 . S
O233 C232 1.244 . S
O234 C210 1.257 . S
O234 Zn213 2.019 . S
H235 C228 0.930 . S
H236 C215 0.930 . S
H237 C227 0.930 . S
Zn238 N242 2.020 . S
Zn238 O246 2.019 . S
Zn238 N248 2.119 . S
Zn238 O256 1.975 . S
C239 N240 1.334 . S
C239 N243 1.336 . S
N240 C239 1.334 . S
N240 C241 1.334 . S
C241 N240 1.334 . S
C241 N242 1.336 . S
N242 Zn238 2.020 . S
N242 C241 1.336 . S
N242 N243 1.354 . S
N243 C239 1.336 . S
N243 N242 1.354 . S
N243 Zn247 2.020 . S
C244 O245 1.244 1_554 S
C244 O268 1.257 1_554 S
O245 C244 1.244 1_556 S
O246 Zn238 2.019 . S
O246 C266 1.257 . S
Zn247 N243 2.020 . S
Zn247 O254 1.975 . S
Zn247 N263 2.119 . S
Zn247 O268 2.019 . S
N248 Zn238 2.119 . S
N248 C250 1.334 . S
N248 C251 1.328 . S
C249 C250 1.391 . S
C249 N252 1.329 1_565 S
C249 H270 0.930 . S
C250 N248 1.334 . S
C250 C249 1.391 . S
C250 H257 0.930 . S
C251 N248 1.328 . S
C251 C253 1.392 1_565 S
C251 H258 0.930 . S
N252 C249 1.329 1_545 S
N252 C253 1.331 . S
C253 C251 1.392 1_545 S
C253 N252 1.331 . S
O254 Zn247 1.975 . S
O254 C255 1.252 . S
C255 O254 1.252 . S
C255 O256 1.252 . S
O256 Zn238 1.975 . S
O256 C255 1.252 . S
H257 C250 0.930 . S
H258 C251 0.930 . S
C259 C260 1.392 . S
C259 N263 1.328 . S
C259 H265 0.930 . S
C260 C259 1.392 . S
C260 N264 1.331 . S
C261 C262 1.391 . S
C261 N264 1.329 . S
C261 H271 0.930 . S
C262 C261 1.391 . S
C262 N263 1.334 . S
C262 H269 0.930 . S
N263 Zn247 2.119 . S
N263 C259 1.328 . S
N263 C262 1.334 . S
N264 C260 1.331 . S
N264 C261 1.329 . S
H265 C259 0.930 . S
C266 O246 1.257 . S
C266 O267 1.244 . S
O267 C266 1.244 . S
O268 C244 1.257 1_556 S
O268 Zn247 2.019 . S
H269 C262 0.930 . S
H270 C249 0.930 . S
H271 C261 0.930 . S
Zn272 N276 2.020 . S
Zn272 O280 2.019 . S
Zn272 N282 2.119 . S
Zn272 O290 1.975 . S
C273 N274 1.334 . S
C273 N277 1.336 . S
N274 C273 1.334 . S
N274 C275 1.334 . S
C275 N274 1.334 . S
C275 N276 1.336 . S
N276 Zn272 2.020 . S
N276 C275 1.336 . S
N276 N277 1.354 . S
N277 C273 1.336 . S
N277 N276 1.354 . S
N277 Zn281 2.020 . S
C278 O279 1.244 . S
C278 O302 1.257 . S
O279 C278 1.244 . S
O280 Zn272 2.019 . S
O280 C300 1.257 . S
Zn281 N277 2.020 . S
Zn281 O288 1.975 . S
Zn281 N297 2.119 . S
Zn281 O302 2.019 . S
N282 Zn272 2.119 . S
N282 C284 1.334 . S
N282 C285 1.328 . S
C283 C284 1.391 . S
C283 N286 1.329 . S
C283 H304 0.930 . S
C284 N282 1.334 . S
C284 C283 1.391 . S
C284 H291 0.930 . S
C285 N282 1.328 . S
C285 C287 1.392 . S
C285 H292 0.930 . S
N286 C283 1.329 . S
N286 C287 1.331 . S
C287 C285 1.392 . S
C287 N286 1.331 . S
O288 Zn281 1.975 . S
O288 C289 1.252 . S
C289 O288 1.252 . S
C289 O290 1.252 . S
O290 Zn272 1.975 . S
O290 C289 1.252 . S
H291 C284 0.930 . S
H292 C285 0.930 . S
C293 C294 1.392 . S
C293 N297 1.328 . S
C293 H299 0.930 . S
C294 C293 1.392 . S
C294 N298 1.331 . S
C295 C296 1.391 . S
C295 N298 1.329 . S
C295 H305 0.930 . S
C296 C295 1.391 . S
C296 N297 1.334 . S
C296 H303 0.930 . S
N297 Zn281 2.119 . S
N297 C293 1.328 . S
N297 C296 1.334 . S
N298 C294 1.331 . S
N298 C295 1.329 . S
H299 C293 0.930 . S
C300 O280 1.257 . S
C300 O301 1.244 . S
O301 C300 1.244 . S
O302 C278 1.257 . S
O302 Zn281 2.019 . S
H303 C296 0.930 . S
H304 C283 0.930 . S
H305 C295 0.930 . S
Zn306 N310 2.020 . S
Zn306 O314 2.019 . S
Zn306 N316 2.119 . S
Zn306 O324 1.975 . S
C307 N308 1.334 . S
C307 N311 1.336 . S
N308 C307 1.334 . S
N308 C309 1.334 . S
C309 N308 1.334 . S
C309 N310 1.336 . S
N310 Zn306 2.020 . S
N310 C309 1.336 . S
N310 N311 1.354 . S
N311 C307 1.336 . S
N311 N310 1.354 . S
N311 Zn315 2.020 . S
C312 O313 1.244 . S
C312 O336 1.257 . S
O313 C312 1.244 . S
O314 Zn306 2.019 . S
O314 C334 1.257 . S
Zn315 N311 2.020 . S
Zn315 O322 1.975 . S
Zn315 N331 2.119 . S
Zn315 O336 2.019 . S
N316 Zn306 2.119 . S
N316 C318 1.334 . S
N316 C319 1.328 . S
C317 C318 1.391 . S
C317 N320 1.329 . S
C317 H338 0.930 . S
C318 N316 1.334 . S
C318 C317 1.391 . S
C318 H325 0.930 . S
C319 N316 1.328 . S
C319 C321 1.392 . S
C319 H326 0.930 . S
N320 C317 1.329 . S
N320 C321 1.331 . S
C321 C319 1.392 . S
C321 N320 1.331 . S
O322 Zn315 1.975 . S
O322 C323 1.252 . S
C323 O322 1.252 . S
C323 O324 1.252 . S
O324 Zn306 1.975 . S
O324 C323 1.252 . S
H325 C318 0.930 . S
H326 C319 0.930 . S
C327 C328 1.392 . S
C327 N331 1.328 . S
C327 H333 0.930 . S
C328 C327 1.392 . S
C328 N332 1.331 . S
C329 C330 1.391 . S
C329 N332 1.329 . S
C329 H339 0.930 . S
C330 C329 1.391 . S
C330 N331 1.334 . S
C330 H337 0.930 . S
N331 Zn315 2.119 . S
N331 C327 1.328 . S
N331 C330 1.334 . S
N332 C328 1.331 . S
N332 C329 1.329 . S
H333 C327 0.930 . S
C334 O314 1.257 . S
C334 O335 1.244 . S
O335 C334 1.244 . S
O336 C312 1.257 . S
O336 Zn315 2.019 . S
H337 C330 0.930 . S
H338 C317 0.930 . S
H339 C329 0.930 . S
Zn340 N344 2.020 . S
Zn340 O348 2.019 . S
Zn340 N350 2.119 . S
Zn340 O358 1.975 . S
C341 N342 1.334 . S
C341 N345 1.336 . S
N342 C341 1.334 . S
N342 C343 1.334 . S
C343 N342 1.334 . S
C343 N344 1.336 . S
N344 Zn340 2.020 . S
N344 C343 1.336 . S
N344 N345 1.354 . S
N345 C341 1.336 . S
N345 N344 1.354 . S
N345 Zn349 2.020 . S
C346 O347 1.244 . S
C346 O370 1.257 . S
O347 C346 1.244 . S
O348 Zn340 2.019 . S
O348 C368 1.257 . S
Zn349 N345 2.020 . S
Zn349 O356 1.975 . S
Zn349 N365 2.119 . S
Zn349 O370 2.019 . S
N350 Zn340 2.119 . S
N350 C352 1.334 . S
N350 C353 1.328 . S
C351 C352 1.391 . S
C351 N354 1.329 . S
C351 H372 0.930 . S
C352 N350 1.334 . S
C352 C351 1.391 . S
C352 H359 0.930 . S
C353 N350 1.328 . S
C353 C355 1.392 . S
C353 H360 0.930 . S
N354 C351 1.329 . S
N354 C355 1.331 . S
C355 C353 1.392 . S
C355 N354 1.331 . S
O356 Zn349 1.975 . S
O356 C357 1.252 . S
C357 O356 1.252 . S
C357 O358 1.252 . S
O358 Zn340 1.975 . S
O358 C357 1.252 . S
H359 C352 0.930 . S
H360 C353 0.930 . S
C361 C362 1.392 . S
C361 N365 1.328 . S
C361 H367 0.930 . S
C362 C361 1.392 . S
C362 N366 1.331 . S
C363 C364 1.391 . S
C363 N366 1.329 . S
C363 H373 0.930 . S
C364 C363 1.391 . S
C364 N365 1.334 . S
C364 H371 0.930 . S
N365 Zn349 2.119 . S
N365 C361 1.328 . S
N365 C364 1.334 . S
N366 C362 1.331 . S
N366 C363 1.329 . S
H367 C361 0.930 . S
C368 O348 1.257 . S
C368 O369 1.244 . S
O369 C368 1.244 . S
O370 C346 1.257 . S
O370 Zn349 2.019 . S
H371 C364 0.930 . S
H372 C351 0.930 . S
H373 C363 0.930 . S
Zn374 N378 2.020 . S
Zn374 O382 2.019 . S
Zn374 N384 2.119 . S
Zn374 O392 1.975 . S
C375 N376 1.334 . S
C375 N379 1.336 . S
N376 C375 1.334 . S
N376 C377 1.334 . S
C377 N376 1.334 . S
C377 N378 1.336 . S
N378 Zn374 2.020 . S
N378 C377 1.336 . S
N378 N379 1.354 . S
N379 C375 1.336 . S
N379 N378 1.354 . S
N379 Zn383 2.020 . S
C380 O381 1.244 . S
C380 O404 1.257 . S
O381 C380 1.244 . S
O382 Zn374 2.019 . S
O382 C402 1.257 1_565 S
Zn383 N379 2.020 . S
Zn383 O390 1.975 . S
Zn383 N399 2.119 . S
Zn383 O404 2.019 . S
N384 Zn374 2.119 . S
N384 C386 1.334 . S
N384 C387 1.328 . S
C385 C386 1.391 . S
C385 N388 1.329 . S
C385 H406 0.930 . S
C386 N384 1.334 . S
C386 C385 1.391 . S
C386 H393 0.930 . S
C387 N384 1.328 . S
C387 C389 1.392 . S
C387 H394 0.930 . S
N388 C385 1.329 . S
N388 C389 1.331 . S
C389 C387 1.392 . S
C389 N388 1.331 . S
O390 Zn383 1.975 . S
O390 C391 1.252 . S
C391 O390 1.252 . S
C391 O392 1.252 . S
O392 Zn374 1.975 . S
O392 C391 1.252 . S
H393 C386 0.930 . S
H394 C387 0.930 . S
C395 C396 1.392 . S
C395 N399 1.328 . S
C395 H401 0.930 . S
C396 C395 1.392 . S
C396 N400 1.331 . S
C397 C398 1.391 . S
C397 N400 1.329 . S
C397 H407 0.930 . S
C398 C397 1.391 . S
C398 N399 1.334 . S
C398 H405 0.930 . S
N399 Zn383 2.119 . S
N399 C395 1.328 . S
N399 C398 1.334 . S
N400 C396 1.331 . S
N400 C397 1.329 . S
H401 C395 0.930 . S
C402 O382 1.257 1_545 S
C402 O403 1.244 1_545 S
O403 C402 1.244 1_565 S
O404 C380 1.257 . S
O404 Zn383 2.019 . S
H405 C398 0.930 . S
H406 C385 0.930 . S
H407 C397 0.930 . S
Zn408 N412 2.020 . S
Zn408 O416 2.019 . S
Zn408 N418 2.119 . S
Zn408 O426 1.975 . S
C409 N410 1.334 . S
C409 N413 1.336 . S
N410 C409 1.334 . S
N410 C411 1.334 . S
C411 N410 1.334 . S
C411 N412 1.336 . S
N412 Zn408 2.020 . S
N412 C411 1.336 . S
N412 N413 1.354 . S
N413 C409 1.336 . S
N413 N412 1.354 . S
N413 Zn417 2.020 . S
C414 O415 1.244 . S
C414 O438 1.257 . S
O415 C414 1.244 . S
O416 Zn408 2.019 . S
O416 C436 1.257 . S
Zn417 N413 2.020 . S
Zn417 O424 1.975 . S
Zn417 N433 2.119 . S
Zn417 O438 2.019 . S
N418 Zn408 2.119 . S
N418 C420 1.334 . S
N418 C421 1.328 . S
C419 C420 1.391 . S
C419 N422 1.329 . S
C419 H440 0.930 . S
C420 N418 1.334 . S
C420 C419 1.391 . S
C420 H427 0.930 . S
C421 N418 1.328 . S
C421 C423 1.392 . S
C421 H428 0.930 . S
N422 C419 1.329 . S
N422 C423 1.331 . S
C423 C421 1.392 . S
C423 N422 1.331 . S
O424 Zn417 1.975 . S
O424 C425 1.252 . S
C425 O424 1.252 . S
C425 O426 1.252 . S
O426 Zn408 1.975 . S
O426 C425 1.252 . S
H427 C420 0.930 . S
H428 C421 0.930 . S
C429 C430 1.392 . S
C429 N433 1.328 . S
C429 H435 0.930 . S
C430 C429 1.392 . S
C430 N434 1.331 . S
C431 C432 1.391 . S
C431 N434 1.329 . S
C431 H441 0.930 . S
C432 C431 1.391 . S
C432 N433 1.334 . S
C432 H439 0.930 . S
N433 Zn417 2.119 . S
N433 C429 1.328 . S
N433 C432 1.334 . S
N434 C430 1.331 . S
N434 C431 1.329 . S
H435 C429 0.930 . S
C436 O416 1.257 . S
C436 O437 1.244 . S
O437 C436 1.244 . S
O438 C414 1.257 . S
O438 Zn417 2.019 . S
H439 C432 0.930 . S
H440 C419 0.930 . S
H441 C431 0.930 . S
Zn442 N446 2.020 . S
Zn442 O450 2.019 . S
Zn442 N452 2.119 . S
Zn442 O460 1.975 . S
C443 N444 1.334 . S
C443 N447 1.336 . S
N444 C443 1.334 . S
N444 C445 1.334 . S
C445 N444 1.334 . S
C445 N446 1.336 . S
N446 Zn442 2.020 . S
N446 C445 1.336 . S
N446 N447 1.354 . S
N447 C443 1.336 . S
N447 N446 1.354 . S
N447 Zn451 2.020 . S
C448 O449 1.244 . S
C448 O472 1.257 . S
O449 C448 1.244 . S
O450 Zn442 2.019 . S
O450 C470 1.257 . S
Zn451 N447 2.020 . S
Zn451 O458 1.975 . S
Zn451 N467 2.119 . S
Zn451 O472 2.019 . S
N452 Zn442 2.119 . S
N452 C454 1.334 . S
N452 C455 1.328 . S
C453 C454 1.391 . S
C453 N456 1.329 1_455 S
C453 H474 0.930 . S
C454 N452 1.334 . S
C454 C453 1.391 . S
C454 H461 0.930 . S
C455 N452 1.328 . S
C455 C457 1.392 1_455 S
C455 H462 0.930 . S
N456 C453 1.329 1_655 S
N456 C457 1.331 . S
C457 C455 1.392 1_655 S
C457 N456 1.331 . S
O458 Zn451 1.975 . S
O458 C459 1.252 . S
C459 O458 1.252 . S
C459 O460 1.252 . S
O460 Zn442 1.975 . S
O460 C459 1.252 . S
H461 C454 0.930 . S
H462 C455 0.930 . S
C463 C464 1.392 . S
C463 N467 1.328 . S
C463 H469 0.930 . S
C464 C463 1.392 . S
C464 N468 1.331 . S
C465 C466 1.391 . S
C465 N468 1.329 . S
C465 H475 0.930 . S
C466 C465 1.391 . S
C466 N467 1.334 . S
C466 H473 0.930 . S
N467 Zn451 2.119 . S
N467 C463 1.328 . S
N467 C466 1.334 . S
N468 C464 1.331 . S
N468 C465 1.329 . S
H469 C463 0.930 . S
C470 O450 1.257 . S
C470 O471 1.244 . S
O471 C470 1.244 . S
O472 C448 1.257 . S
O472 Zn451 2.019 . S
H473 C466 0.930 . S
H474 C453 0.930 . S
H475 C465 0.930 . S
Zn476 N480 2.020 . S
Zn476 O484 2.019 . S
Zn476 N486 2.119 . S
Zn476 O494 1.975 . S
C477 N478 1.334 . S
C477 N481 1.336 . S
N478 C477 1.334 . S
N478 C479 1.334 . S
C479 N478 1.334 . S
C479 N480 1.336 . S
N480 Zn476 2.020 . S
N480 C479 1.336 . S
N480 N481 1.354 . S
N481 C477 1.336 . S
N481 N480 1.354 . S
N481 Zn485 2.020 . S
C482 O483 1.244 . S
C482 O506 1.257 . S
O483 C482 1.244 . S
O484 Zn476 2.019 . S
O484 C504 1.257 . S
Zn485 N481 2.020 . S
Zn485 O492 1.975 . S
Zn485 N501 2.119 . S
Zn485 O506 2.019 . S
N486 Zn476 2.119 . S
N486 C488 1.334 . S
N486 C489 1.328 . S
C487 C488 1.391 . S
C487 N490 1.329 . S
C487 H508 0.930 . S
C488 N486 1.334 . S
C488 C487 1.391 . S
C488 H495 0.930 . S
C489 N486 1.328 . S
C489 C491 1.392 . S
C489 H496 0.930 . S
N490 C487 1.329 . S
N490 C491 1.331 . S
C491 C489 1.392 . S
C491 N490 1.331 . S
O492 Zn485 1.975 . S
O492 C493 1.252 . S
C493 O492 1.252 . S
C493 O494 1.252 . S
O494 Zn476 1.975 . S
O494 C493 1.252 . S
H495 C488 0.930 . S
H496 C489 0.930 . S
C497 C498 1.392 . S
C497 N501 1.328 . S
C497 H503 0.930 . S
C498 C497 1.392 . S
C498 N502 1.331 . S
C499 C500 1.391 . S
C499 N502 1.329 . S
C499 H509 0.930 . S
C500 C499 1.391 . S
C500 N501 1.334 . S
C500 H507 0.930 . S
N501 Zn485 2.119 . S
N501 C497 1.328 . S
N501 C500 1.334 . S
N502 C498 1.331 . S
N502 C499 1.329 . S
H503 C497 0.930 . S
C504 O484 1.257 . S
C504 O505 1.244 . S
O505 C504 1.244 . S
O506 C482 1.257 . S
O506 Zn485 2.019 . S
H507 C500 0.930 . S
H508 C487 0.930 . S
H509 C499 0.930 . S
Zn510 N514 2.020 . S
Zn510 O518 2.019 . S
Zn510 N520 2.119 . S
Zn510 O528 1.975 . S
C511 N512 1.334 . S
C511 N515 1.336 . S
N512 C511 1.334 . S
N512 C513 1.334 . S
C513 N512 1.334 . S
C513 N514 1.336 . S
N514 Zn510 2.020 . S
N514 C513 1.336 . S
N514 N515 1.354 . S
N515 C511 1.336 . S
N515 N514 1.354 . S
N515 Zn519 2.020 . S
C516 O517 1.244 . S
C516 O540 1.257 . S
O517 C516 1.244 . S
O518 Zn510 2.019 . S
O518 C538 1.257 1_565 S
Zn519 N515 2.020 . S
Zn519 O526 1.975 . S
Zn519 N535 2.119 . S
Zn519 O540 2.019 . S
N520 Zn510 2.119 . S
N520 C522 1.334 . S
N520 C523 1.328 . S
C521 C522 1.391 . S
C521 N524 1.329 . S
C521 H542 0.930 . S
C522 N520 1.334 . S
C522 C521 1.391 . S
C522 H529 0.930 . S
C523 N520 1.328 . S
C523 C525 1.392 . S
C523 H530 0.930 . S
N524 C521 1.329 . S
N524 C525 1.331 . S
C525 C523 1.392 . S
C525 N524 1.331 . S
O526 Zn519 1.975 . S
O526 C527 1.252 . S
C527 O526 1.252 . S
C527 O528 1.252 . S
O528 Zn510 1.975 . S
O528 C527 1.252 . S
H529 C522 0.930 . S
H530 C523 0.930 . S
C531 C532 1.392 1_655 S
C531 N535 1.328 . S
C531 H537 0.930 . S
C532 C531 1.392 1_455 S
C532 N536 1.331 . S
C533 C534 1.391 . S
C533 N536 1.329 1_655 S
C533 H543 0.930 . S
C534 C533 1.391 . S
C534 N535 1.334 . S
C534 H541 0.930 . S
N535 Zn519 2.119 . S
N535 C531 1.328 . S
N535 C534 1.334 . S
N536 C532 1.331 . S
N536 C533 1.329 1_455 S
H537 C531 0.930 . S
C538 O518 1.257 1_545 S
C538 O539 1.244 1_545 S
O539 C538 1.244 1_565 S
O540 C516 1.257 . S
O540 Zn519 2.019 . S
H541 C534 0.930 . S
H542 C521 0.930 . S
H543 C533 0.930 . S
Zn544 N548 2.020 . S
Zn544 O552 2.019 . S
Zn544 N554 2.119 . S
Zn544 O562 1.975 . S
C545 N546 1.334 . S
C545 N549 1.336 . S
N546 C545 1.334 . S
N546 C547 1.334 . S
C547 N546 1.334 . S
C547 N548 1.336 . S
N548 Zn544 2.020 . S
N548 C547 1.336 . S
N548 N549 1.354 . S
N549 C545 1.336 . S
N549 N548 1.354 . S
N549 Zn553 2.020 . S
C550 O551 1.244 . S
C550 O574 1.257 . S
O551 C550 1.244 . S
O552 Zn544 2.019 . S
O552 C572 1.257 . S
Zn553 N549 2.020 . S
Zn553 O560 1.975 . S
Zn553 N569 2.119 . S
Zn553 O574 2.019 . S
N554 Zn544 2.119 . S
N554 C556 1.334 . S
N554 C557 1.328 . S
C555 C556 1.391 . S
C555 N558 1.329 . S
C555 H576 0.930 . S
C556 N554 1.334 . S
C556 C555 1.391 . S
C556 H563 0.930 . S
C557 N554 1.328 . S
C557 C559 1.392 . S
C557 H564 0.930 . S
N558 C555 1.329 . S
N558 C559 1.331 . S
C559 C557 1.392 . S
C559 N558 1.331 . S
O560 Zn553 1.975 . S
O560 C561 1.252 . S
C561 O560 1.252 . S
C561 O562 1.252 . S
O562 Zn544 1.975 . S
O562 C561 1.252 . S
H563 C556 0.930 . S
H564 C557 0.930 . S
C565 C566 1.392 . S
C565 N569 1.328 . S
C565 H571 0.930 . S
C566 C565 1.392 . S
C566 N570 1.331 . S
C567 C568 1.391 . S
C567 N570 1.329 . S
C567 H577 0.930 . S
C568 C567 1.391 . S
C568 N569 1.334 . S
C568 H575 0.930 . S
N569 Zn553 2.119 . S
N569 C565 1.328 . S
N569 C568 1.334 . S
N570 C566 1.331 . S
N570 C567 1.329 . S
H571 C565 0.930 . S
C572 O552 1.257 . S
C572 O573 1.244 . S
O573 C572 1.244 . S
O574 C550 1.257 . S
O574 Zn553 2.019 . S
H575 C568 0.930 . S
H576 C555 0.930 . S
H577 C567 0.930 . S
Zn578 N582 2.020 . S
Zn578 O586 2.019 . S
Zn578 N588 2.119 . S
Zn578 O596 1.975 . S
C579 N580 1.334 . S
C579 N583 1.336 . S
N580 C579 1.334 . S
N580 C581 1.334 . S
C581 N580 1.334 . S
C581 N582 1.336 . S
N582 Zn578 2.020 . S
N582 C581 1.336 . S
N582 N583 1.354 . S
N583 C579 1.336 . S
N583 N582 1.354 . S
N583 Zn587 2.020 . S
C584 O585 1.244 . S
C584 O608 1.257 . S
O585 C584 1.244 . S
O586 Zn578 2.019 . S
O586 C606 1.257 . S
Zn587 N583 2.020 . S
Zn587 O594 1.975 . S
Zn587 N603 2.119 . S
Zn587 O608 2.019 . S
N588 Zn578 2.119 . S
N588 C590 1.334 . S
N588 C591 1.328 . S
C589 C590 1.391 . S
C589 N592 1.329 . S
C589 H610 0.930 . S
C590 N588 1.334 . S
C590 C589 1.391 . S
C590 H597 0.930 . S
C591 N588 1.328 . S
C591 C593 1.392 . S
C591 H598 0.930 . S
N592 C589 1.329 . S
N592 C593 1.331 . S
C593 C591 1.392 . S
C593 N592 1.331 . S
O594 Zn587 1.975 . S
O594 C595 1.252 . S
C595 O594 1.252 . S
C595 O596 1.252 . S
O596 Zn578 1.975 . S
O596 C595 1.252 . S
H597 C590 0.930 . S
H598 C591 0.930 . S
C599 C600 1.392 . S
C599 N603 1.328 . S
C599 H605 0.930 . S
C600 C599 1.392 . S
C600 N604 1.331 . S
C601 C602 1.391 . S
C601 N604 1.329 . S
C601 H611 0.930 . S
C602 C601 1.391 . S
C602 N603 1.334 . S
C602 H609 0.930 . S
N603 Zn587 2.119 . S
N603 C599 1.328 . S
N603 C602 1.334 . S
N604 C600 1.331 . S
N604 C601 1.329 . S
H605 C599 0.930 . S
C606 O586 1.257 . S
C606 O607 1.244 . S
O607 C606 1.244 . S
O608 C584 1.257 . S
O608 Zn587 2.019 . S
H609 C602 0.930 . S
H610 C589 0.930 . S
H611 C601 0.930 . S
Zn612 N616 2.020 . S
Zn612 O620 2.019 . S
Zn612 N622 2.119 . S
Zn612 O630 1.975 . S
C613 N614 1.334 . S
C613 N617 1.336 . S
N614 C613 1.334 . S
N614 C615 1.334 . S
C615 N614 1.334 . S
C615 N616 1.336 . S
N616 Zn612 2.020 . S
N616 C615 1.336 . S
N616 N617 1.354 . S
N617 C613 1.336 . S
N617 N616 1.354 . S
N617 Zn621 2.020 . S
C618 O619 1.244 . S
C618 O642 1.257 . S
O619 C618 1.244 . S
O620 Zn612 2.019 . S
O620 C640 1.257 1_455 S
Zn621 N617 2.020 . S
Zn621 O628 1.975 . S
Zn621 N637 2.119 . S
Zn621 O642 2.019 . S
N622 Zn612 2.119 . S
N622 C624 1.334 . S
N622 C625 1.328 . S
C623 C624 1.391 . S
C623 N626 1.329 . S
C623 H644 0.930 . S
C624 N622 1.334 . S
C624 C623 1.391 . S
C624 H631 0.930 . S
C625 N622 1.328 . S
C625 C627 1.392 . S
C625 H632 0.930 . S
N626 C623 1.329 . S
N626 C627 1.331 . S
C627 C625 1.392 . S
C627 N626 1.331 . S
O628 Zn621 1.975 . S
O628 C629 1.252 . S
C629 O628 1.252 . S
C629 O630 1.252 . S
O630 Zn612 1.975 . S
O630 C629 1.252 . S
H631 C624 0.930 . S
H632 C625 0.930 . S
C633 C634 1.392 1_556 S
C633 N637 1.328 . S
C633 H639 0.930 . S
C634 C633 1.392 1_554 S
C634 N638 1.331 . S
C635 C636 1.391 . S
C635 N638 1.329 1_556 S
C635 H645 0.930 . S
C636 C635 1.391 . S
C636 N637 1.334 . S
C636 H643 0.930 . S
N637 Zn621 2.119 . S
N637 C633 1.328 . S
N637 C636 1.334 . S
N638 C634 1.331 . S
N638 C635 1.329 1_554 S
H639 C633 0.930 . S
C640 O620 1.257 1_655 S
C640 O641 1.244 1_655 S
O641 C640 1.244 1_455 S
O642 C618 1.257 . S
O642 Zn621 2.019 . S
H643 C636 0.930 . S
H644 C623 0.930 . S
H645 C635 0.930 . S
Zn646 N650 2.020 . S
Zn646 O654 2.019 . S
Zn646 N656 2.119 . S
Zn646 O664 1.975 . S
C647 N648 1.334 . S
C647 N651 1.336 . S
N648 C647 1.334 . S
N648 C649 1.334 . S
C649 N648 1.334 . S
C649 N650 1.336 . S
N650 Zn646 2.020 . S
N650 C649 1.336 . S
N650 N651 1.354 . S
N651 C647 1.336 . S
N651 N650 1.354 . S
N651 Zn655 2.020 . S
C652 O653 1.244 . S
C652 O676 1.257 . S
O653 C652 1.244 . S
O654 Zn646 2.019 . S
O654 C674 1.257 . S
Zn655 N651 2.020 . S
Zn655 O662 1.975 . S
Zn655 N671 2.119 . S
Zn655 O676 2.019 . S
N656 Zn646 2.119 . S
N656 C658 1.334 . S
N656 C659 1.328 . S
C657 C658 1.391 . S
C657 N660 1.329 . S
C657 H678 0.930 . S
C658 N656 1.334 . S
C658 C657 1.391 . S
C658 H665 0.930 . S
C659 N656 1.328 . S
C659 C661 1.392 . S
C659 H666 0.930 . S
N660 C657 1.329 . S
N660 C661 1.331 . S
C661 C659 1.392 . S
C661 N660 1.331 . S
O662 Zn655 1.975 . S
O662 C663 1.252 . S
C663 O662 1.252 . S
C663 O664 1.252 . S
O664 Zn646 1.975 . S
O664 C663 1.252 . S
H665 C658 0.930 . S
H666 C659 0.930 . S
C667 C668 1.392 . S
C667 N671 1.328 . S
C667 H673 0.930 . S
C668 C667 1.392 . S
C668 N672 1.331 . S
C669 C670 1.391 . S
C669 N672 1.329 . S
C669 H679 0.930 . S
C670 C669 1.391 . S
C670 N671 1.334 . S
C670 H677 0.930 . S
N671 Zn655 2.119 . S
N671 C667 1.328 . S
N671 C670 1.334 . S
N672 C668 1.331 . S
N672 C669 1.329 . S
H673 C667 0.930 . S
C674 O654 1.257 . S
C674 O675 1.244 . S
O675 C674 1.244 . S
O676 C652 1.257 . S
O676 Zn655 2.019 . S
H677 C670 0.930 . S
H678 C657 0.930 . S
H679 C669 0.930 . S
Zn680 N684 2.020 . S
Zn680 O688 2.019 . S
Zn680 N690 2.119 . S
Zn680 O698 1.975 . S
C681 N682 1.334 . S
C681 N685 1.336 . S
N682 C681 1.334 . S
N682 C683 1.334 . S
C683 N682 1.334 . S
C683 N684 1.336 . S
N684 Zn680 2.020 . S
N684 C683 1.336 . S
N684 N685 1.354 . S
N685 C681 1.336 . S
N685 N684 1.354 . S
N685 Zn689 2.020 . S
C686 O687 1.244 . S
C686 O710 1.257 . S
O687 C686 1.244 . S
O688 Zn680 2.019 . S
O688 C708 1.257 . S
Zn689 N685 2.020 . S
Zn689 O696 1.975 . S
Zn689 N705 2.119 . S
Zn689 O710 2.019 . S
N690 Zn680 2.119 . S
N690 C692 1.334 . S
N690 C693 1.328 . S
C691 C692 1.391 . S
C691 N694 1.329 . S
C691 H712 0.930 . S
C692 N690 1.334 . S
C692 C691 1.391 . S
C692 H699 0.930 . S
C693 N690 1.328 . S
C693 C695 1.392 . S
C693 H700 0.930 . S
N694 C691 1.329 . S
N694 C695 1.331 . S
C695 C693 1.392 . S
C695 N694 1.331 . S
O696 Zn689 1.975 . S
O696 C697 1.252 . S
C697 O696 1.252 . S
C697 O698 1.252 . S
O698 Zn680 1.975 . S
O698 C697 1.252 . S
H699 C692 0.930 . S
H700 C693 0.930 . S
C701 C702 1.392 . S
C701 N705 1.328 . S
C701 H707 0.930 . S
C702 C701 1.392 . S
C702 N706 1.331 . S
C703 C704 1.391 . S
C703 N706 1.329 . S
C703 H713 0.930 . S
C704 C703 1.391 . S
C704 N705 1.334 . S
C704 H711 0.930 . S
N705 Zn689 2.119 . S
N705 C701 1.328 . S
N705 C704 1.334 . S
N706 C702 1.331 . S
N706 C703 1.329 . S
H707 C701 0.930 . S
C708 O688 1.257 . S
C708 O709 1.244 . S
O709 C708 1.244 . S
O710 C686 1.257 . S
O710 Zn689 2.019 . S
H711 C704 0.930 . S
H712 C691 0.930 . S
H713 C703 0.930 . S
Zn714 N718 2.020 . S
Zn714 O722 2.019 . S
Zn714 N724 2.119 . S
Zn714 O732 1.975 . S
C715 N716 1.334 . S
C715 N719 1.336 . S
N716 C715 1.334 . S
N716 C717 1.334 . S
C717 N716 1.334 . S
C717 N718 1.336 . S
N718 Zn714 2.020 . S
N718 C717 1.336 . S
N718 N719 1.354 . S
N719 C715 1.336 . S
N719 N718 1.354 . S
N719 Zn723 2.020 . S
C720 O721 1.244 . S
C720 O744 1.257 . S
O721 C720 1.244 . S
O722 Zn714 2.019 . S
O722 C742 1.257 . S
Zn723 N719 2.020 . S
Zn723 O730 1.975 . S
Zn723 N739 2.119 . S
Zn723 O744 2.019 . S
N724 Zn714 2.119 . S
N724 C726 1.334 . S
N724 C727 1.328 . S
C725 C726 1.391 . S
C725 N728 1.329 . S
C725 H746 0.930 . S
C726 N724 1.334 . S
C726 C725 1.391 . S
C726 H733 0.930 . S
C727 N724 1.328 . S
C727 C729 1.392 . S
C727 H734 0.930 . S
N728 C725 1.329 . S
N728 C729 1.331 . S
C729 C727 1.392 . S
C729 N728 1.331 . S
O730 Zn723 1.975 . S
O730 C731 1.252 . S
C731 O730 1.252 . S
C731 O732 1.252 . S
O732 Zn714 1.975 . S
O732 C731 1.252 . S
H733 C726 0.930 . S
H734 C727 0.930 . S
C735 C736 1.392 . S
C735 N739 1.328 . S
C735 H741 0.930 . S
C736 C735 1.392 . S
C736 N740 1.331 . S
C737 C738 1.391 . S
C737 N740 1.329 . S
C737 H747 0.930 . S
C738 C737 1.391 . S
C738 N739 1.334 . S
C738 H745 0.930 . S
N739 Zn723 2.119 . S
N739 C735 1.328 . S
N739 C738 1.334 . S
N740 C736 1.331 . S
N740 C737 1.329 . S
H741 C735 0.930 . S
C742 O722 1.257 . S
C742 O743 1.244 . S
O743 C742 1.244 . S
O744 C720 1.257 . S
O744 Zn723 2.019 . S
H745 C738 0.930 . S
H746 C725 0.930 . S
H747 C737 0.930 . S
Zn748 N752 2.020 . S
Zn748 O756 2.019 . S
Zn748 N758 2.119 . S
Zn748 O766 1.975 . S
C749 N750 1.334 . S
C749 N753 1.336 . S
N750 C749 1.334 . S
N750 C751 1.334 . S
C751 N750 1.334 . S
C751 N752 1.336 . S
N752 Zn748 2.020 . S
N752 C751 1.336 . S
N752 N753 1.354 . S
N753 C749 1.336 . S
N753 N752 1.354 . S
N753 Zn757 2.020 . S
C754 O755 1.244 . S
C754 O778 1.257 . S
O755 C754 1.244 . S
O756 Zn748 2.019 . S
O756 C776 1.257 1_455 S
Zn757 N753 2.020 . S
Zn757 O764 1.975 . S
Zn757 N773 2.119 . S
Zn757 O778 2.019 . S
N758 Zn748 2.119 . S
N758 C760 1.334 . S
N758 C761 1.328 . S
C759 C760 1.391 . S
C759 N762 1.329 . S
C759 H780 0.930 . S
C760 N758 1.334 . S
C760 C759 1.391 . S
C760 H767 0.930 . S
C761 N758 1.328 . S
C761 C763 1.392 . S
C761 H768 0.930 . S
N762 C759 1.329 . S
N762 C763 1.331 . S
C763 C761 1.392 . S
C763 N762 1.331 . S
O764 Zn757 1.975 . S
O764 C765 1.252 . S
C765 O764 1.252 . S
C765 O766 1.252 . S
O766 Zn748 1.975 . S
O766 C765 1.252 . S
H767 C760 0.930 . S
H768 C761 0.930 . S
C769 C770 1.392 . S
C769 N773 1.328 . S
C769 H775 0.930 . S
C770 C769 1.392 . S
C770 N774 1.331 . S
C771 C772 1.391 . S
C771 N774 1.329 . S
C771 H781 0.930 . S
C772 C771 1.391 . S
C772 N773 1.334 . S
C772 H779 0.930 . S
N773 Zn757 2.119 . S
N773 C769 1.328 . S
N773 C772 1.334 . S
N774 C770 1.331 . S
N774 C771 1.329 . S
H775 C769 0.930 . S
C776 O756 1.257 1_655 S
C776 O777 1.244 1_655 S
O777 C776 1.244 1_455 S
O778 C754 1.257 . S
O778 Zn757 2.019 . S
H779 C772 0.930 . S
H780 C759 0.930 . S
H781 C771 0.930 . S
Zn782 N786 2.020 . S
Zn782 O790 2.019 . S
Zn782 N792 2.119 . S
Zn782 O800 1.975 . S
C783 N784 1.334 . S
C783 N787 1.336 . S
N784 C783 1.334 . S
N784 C785 1.334 . S
C785 N784 1.334 . S
C785 N786 1.336 . S
N786 Zn782 2.020 . S
N786 C785 1.336 . S
N786 N787 1.354 . S
N787 C783 1.336 . S
N787 N786 1.354 . S
N787 Zn791 2.020 . S
C788 O789 1.244 . S
C788 O812 1.257 . S
O789 C788 1.244 . S
O790 Zn782 2.019 . S
O790 C810 1.257 1_655 S
Zn791 N787 2.020 . S
Zn791 O798 1.975 . S
Zn791 N807 2.119 . S
Zn791 O812 2.019 . S
N792 Zn782 2.119 . S
N792 C794 1.334 . S
N792 C795 1.328 . S
C793 C794 1.391 . S
C793 N796 1.329 . S
C793 H814 0.930 . S
C794 N792 1.334 . S
C794 C793 1.391 . S
C794 H801 0.930 . S
C795 N792 1.328 . S
C795 C797 1.392 . S
C795 H802 0.930 . S
N796 C793 1.329 . S
N796 C797 1.331 . S
C797 C795 1.392 . S
C797 N796 1.331 . S
O798 Zn791 1.975 . S
O798 C799 1.252 . S
C799 O798 1.252 . S
C799 O800 1.252 . S
O800 Zn782 1.975 . S
O800 C799 1.252 . S
H801 C794 0.930 . S
H802 C795 0.930 . S
C803 C804 1.392 . S
C803 N807 1.328 . S
C803 H809 0.930 . S
C804 C803 1.392 . S
C804 N808 1.331 . S
C805 C806 1.391 . S
C805 N808 1.329 . S
C805 H815 0.930 . S
C806 C805 1.391 . S
C806 N807 1.334 . S
C806 H813 0.930 . S
N807 Zn791 2.119 . S
N807 C803 1.328 . S
N807 C806 1.334 . S
N808 C804 1.331 . S
N808 C805 1.329 . S
H809 C803 0.930 . S
C810 O790 1.257 1_455 S
C810 O811 1.244 1_455 S
O811 C810 1.244 1_655 S
O812 C788 1.257 . S
O812 Zn791 2.019 . S
H813 C806 0.930 . S
H814 C793 0.930 . S
H815 C805 0.930 . S
Zn816 N820 2.020 . S
Zn816 O824 2.019 . S
Zn816 N826 2.119 . S
Zn816 O834 1.975 . S
C817 N818 1.334 . S
C817 N821 1.336 . S
N818 C817 1.334 . S
N818 C819 1.334 . S
C819 N818 1.334 . S
C819 N820 1.336 . S
N820 Zn816 2.020 . S
N820 C819 1.336 . S
N820 N821 1.354 . S
N821 C817 1.336 . S
N821 N820 1.354 . S
N821 Zn825 2.020 . S
C822 O823 1.244 . S
C822 O846 1.257 . S
O823 C822 1.244 . S
O824 Zn816 2.019 . S
O824 C844 1.257 . S
Zn825 N821 2.020 . S
Zn825 O832 1.975 . S
Zn825 N841 2.119 . S
Zn825 O846 2.019 . S
N826 Zn816 2.119 . S
N826 C828 1.334 . S
N826 C829 1.328 . S
C827 C828 1.391 . S
C827 N830 1.329 . S
C827 H848 0.930 . S
C828 N826 1.334 . S
C828 C827 1.391 . S
C828 H835 0.930 . S
C829 N826 1.328 . S
C829 C831 1.392 . S
C829 H836 0.930 . S
N830 C827 1.329 . S
N830 C831 1.331 . S
C831 C829 1.392 . S
C831 N830 1.331 . S
O832 Zn825 1.975 . S
O832 C833 1.252 . S
C833 O832 1.252 . S
C833 O834 1.252 . S
O834 Zn816 1.975 . S
O834 C833 1.252 . S
H835 C828 0.930 . S
H836 C829 0.930 . S
C837 C838 1.392 . S
C837 N841 1.328 . S
C837 H843 0.930 . S
C838 C837 1.392 . S
C838 N842 1.331 . S
C839 C840 1.391 . S
C839 N842 1.329 . S
C839 H849 0.930 . S
C840 C839 1.391 . S
C840 N841 1.334 . S
C840 H847 0.930 . S
N841 Zn825 2.119 . S
N841 C837 1.328 . S
N841 C840 1.334 . S
N842 C838 1.331 . S
N842 C839 1.329 . S
H843 C837 0.930 . S
C844 O824 1.257 . S
C844 O845 1.244 . S
O845 C844 1.244 . S
O846 C822 1.257 . S
O846 Zn825 2.019 . S
H847 C840 0.930 . S
H848 C827 0.930 . S
H849 C839 0.930 . S
Zn850 N854 2.020 . S
Zn850 O858 2.019 . S
Zn850 N860 2.119 . S
Zn850 O868 1.975 . S
C851 N852 1.334 . S
C851 N855 1.336 . S
N852 C851 1.334 . S
N852 C853 1.334 . S
C853 N852 1.334 . S
C853 N854 1.336 . S
N854 Zn850 2.020 . S
N854 C853 1.336 . S
N854 N855 1.354 . S
N855 C851 1.336 . S
N855 N854 1.354 . S
N855 Zn859 2.020 . S
C856 O857 1.244 . S
C856 O880 1.257 . S
O857 C856 1.244 . S
O858 Zn850 2.019 . S
O858 C878 1.257 . S
Zn859 N855 2.020 . S
Zn859 O866 1.975 . S
Zn859 N875 2.119 . S
Zn859 O880 2.019 . S
N860 Zn850 2.119 . S
N860 C862 1.334 . S
N860 C863 1.328 . S
C861 C862 1.391 . S
C861 N864 1.329 . S
C861 H882 0.930 . S
C862 N860 1.334 . S
C862 C861 1.391 . S
C862 H869 0.930 . S
C863 N860 1.328 . S
C863 C865 1.392 . S
C863 H870 0.930 . S
N864 C861 1.329 . S
N864 C865 1.331 . S
C865 C863 1.392 . S
C865 N864 1.331 . S
O866 Zn859 1.975 . S
O866 C867 1.252 . S
C867 O866 1.252 . S
C867 O868 1.252 . S
O868 Zn850 1.975 . S
O868 C867 1.252 . S
H869 C862 0.930 . S
H870 C863 0.930 . S
C871 C872 1.392 1_545 S
C871 N875 1.328 . S
C871 H877 0.930 . S
C872 C871 1.392 1_565 S
C872 N876 1.331 . S
C873 C874 1.391 . S
C873 N876 1.329 1_545 S
C873 H883 0.930 . S
C874 C873 1.391 . S
C874 N875 1.334 . S
C874 H881 0.930 . S
N875 Zn859 2.119 . S
N875 C871 1.328 . S
N875 C874 1.334 . S
N876 C872 1.331 . S
N876 C873 1.329 1_565 S
H877 C871 0.930 . S
C878 O858 1.257 . S
C878 O879 1.244 . S
O879 C878 1.244 . S
O880 C856 1.257 . S
O880 Zn859 2.019 . S
H881 C874 0.930 . S
H882 C861 0.930 . S
H883 C873 0.930 . S
Zn884 N888 2.020 . S
Zn884 O892 2.019 . S
Zn884 N894 2.119 . S
Zn884 O902 1.975 . S
C885 N886 1.334 . S
C885 N889 1.336 . S
N886 C885 1.334 . S
N886 C887 1.334 . S
C887 N886 1.334 . S
C887 N888 1.336 . S
N888 Zn884 2.020 . S
N888 C887 1.336 . S
N888 N889 1.354 . S
N889 C885 1.336 . S
N889 N888 1.354 . S
N889 Zn893 2.020 . S
C890 O891 1.244 . S
C890 O914 1.257 . S
O891 C890 1.244 . S
O892 Zn884 2.019 . S
O892 C912 1.257 . S
Zn893 N889 2.020 . S
Zn893 O900 1.975 . S
Zn893 N909 2.119 . S
Zn893 O914 2.019 . S
N894 Zn884 2.119 . S
N894 C896 1.334 . S
N894 C897 1.328 . S
C895 C896 1.391 . S
C895 N898 1.329 . S
C895 H916 0.930 . S
C896 N894 1.334 . S
C896 C895 1.391 . S
C896 H903 0.930 . S
C897 N894 1.328 . S
C897 C899 1.392 . S
C897 H904 0.930 . S
N898 C895 1.329 . S
N898 C899 1.331 . S
C899 C897 1.392 . S
C899 N898 1.331 . S
O900 Zn893 1.975 . S
O900 C901 1.252 . S
C901 O900 1.252 . S
C901 O902 1.252 . S
O902 Zn884 1.975 . S
O902 C901 1.252 . S
H903 C896 0.930 . S
H904 C897 0.930 . S
C905 C906 1.392 . S
C905 N909 1.328 . S
C905 H911 0.930 . S
C906 C905 1.392 . S
C906 N910 1.331 . S
C907 C908 1.391 . S
C907 N910 1.329 . S
C907 H917 0.930 . S
C908 C907 1.391 . S
C908 N909 1.334 . S
C908 H915 0.930 . S
N909 Zn893 2.119 . S
N909 C905 1.328 . S
N909 C908 1.334 . S
N910 C906 1.331 . S
N910 C907 1.329 . S
H911 C905 0.930 . S
C912 O892 1.257 . S
C912 O913 1.244 . S
O913 C912 1.244 . S
O914 C890 1.257 . S
O914 Zn893 2.019 . S
H915 C908 0.930 . S
H916 C895 0.930 . S
H917 C907 0.930 . S
Zn918 N922 2.020 . S
Zn918 O926 2.019 . S
Zn918 N928 2.119 . S
Zn918 O936 1.975 . S
C919 N920 1.334 . S
C919 N923 1.336 . S
N920 C919 1.334 . S
N920 C921 1.334 . S
C921 N920 1.334 . S
C921 N922 1.336 . S
N922 Zn918 2.020 . S
N922 C921 1.336 . S
N922 N923 1.354 . S
N923 C919 1.336 . S
N923 N922 1.354 . S
N923 Zn927 2.020 . S
C924 O925 1.244 . S
C924 O948 1.257 . S
O925 C924 1.244 . S
O926 Zn918 2.019 . S
O926 C946 1.257 . S
Zn927 N923 2.020 . S
Zn927 O934 1.975 . S
Zn927 N943 2.119 . S
Zn927 O948 2.019 . S
N928 Zn918 2.119 . S
N928 C930 1.334 . S
N928 C931 1.328 . S
C929 C930 1.391 . S
C929 N932 1.329 . S
C929 H950 0.930 . S
C930 N928 1.334 . S
C930 C929 1.391 . S
C930 H937 0.930 . S
C931 N928 1.328 . S
C931 C933 1.392 . S
C931 H938 0.930 . S
N932 C929 1.329 . S
N932 C933 1.331 . S
C933 C931 1.392 . S
C933 N932 1.331 . S
O934 Zn927 1.975 . S
O934 C935 1.252 . S
C935 O934 1.252 . S
C935 O936 1.252 . S
O936 Zn918 1.975 . S
O936 C935 1.252 . S
H937 C930 0.930 . S
H938 C931 0.930 . S
C939 C940 1.392 . S
C939 N943 1.328 . S
C939 H945 0.930 . S
C940 C939 1.392 . S
C940 N944 1.331 . S
C941 C942 1.391 . S
C941 N944 1.329 . S
C941 H951 0.930 . S
C942 C941 1.391 . S
C942 N943 1.334 . S
C942 H949 0.930 . S
N943 Zn927 2.119 . S
N943 C939 1.328 . S
N943 C942 1.334 . S
N944 C940 1.331 . S
N944 C941 1.329 . S
H945 C939 0.930 . S
C946 O926 1.257 . S
C946 O947 1.244 . S
O947 C946 1.244 . S
O948 C924 1.257 . S
O948 Zn927 2.019 . S
H949 C942 0.930 . S
H950 C929 0.930 . S
H951 C941 0.930 . S
Zn952 N956 2.020 . S
Zn952 O960 2.019 . S
Zn952 N962 2.119 . S
Zn952 O970 1.975 . S
C953 N954 1.334 . S
C953 N957 1.336 . S
N954 C953 1.334 . S
N954 C955 1.334 . S
C955 N954 1.334 . S
C955 N956 1.336 . S
N956 Zn952 2.020 . S
N956 C955 1.336 . S
N956 N957 1.354 . S
N957 C953 1.336 . S
N957 N956 1.354 . S
N957 Zn961 2.020 . S
C958 O959 1.244 . S
C958 O982 1.257 . S
O959 C958 1.244 . S
O960 Zn952 2.019 . S
O960 C980 1.257 . S
Zn961 N957 2.020 . S
Zn961 O968 1.975 . S
Zn961 N977 2.119 . S
Zn961 O982 2.019 . S
N962 Zn952 2.119 . S
N962 C964 1.334 . S
N962 C965 1.328 . S
C963 C964 1.391 . S
C963 N966 1.329 . S
C963 H984 0.930 . S
C964 N962 1.334 . S
C964 C963 1.391 . S
C964 H971 0.930 . S
C965 N962 1.328 . S
C965 C967 1.392 . S
C965 H972 0.930 . S
N966 C963 1.329 . S
N966 C967 1.331 . S
C967 C965 1.392 . S
C967 N966 1.331 . S
O968 Zn961 1.975 . S
O968 C969 1.252 . S
C969 O968 1.252 . S
C969 O970 1.252 . S
O970 Zn952 1.975 . S
O970 C969 1.252 . S
H971 C964 0.930 . S
H972 C965 0.930 . S
C973 C974 1.392 . S
C973 N977 1.328 . S
C973 H979 0.930 . S
C974 C973 1.392 . S
C974 N978 1.331 . S
C975 C976 1.391 . S
C975 N978 1.329 . S
C975 H985 0.930 . S
C976 C975 1.391 . S
C976 N977 1.334 . S
C976 H983 0.930 . S
N977 Zn961 2.119 . S
N977 C973 1.328 . S
N977 C976 1.334 . S
N978 C974 1.331 . S
N978 C975 1.329 . S
H979 C973 0.930 . S
C980 O960 1.257 . S
C980 O981 1.244 . S
O981 C980 1.244 . S
O982 C958 1.257 . S
O982 Zn961 2.019 . S
H983 C976 0.930 . S
H984 C963 0.930 . S
H985 C975 0.930 . S
Zn986 N990 2.020 . S
Zn986 O994 2.019 . S
Zn986 N996 2.119 . S
Zn986 O1004 1.975 . S
C987 N988 1.334 . S
C987 N991 1.336 . S
N988 C987 1.334 . S
N988 C989 1.334 . S
C989 N988 1.334 . S
C989 N990 1.336 . S
N990 Zn986 2.020 . S
N990 C989 1.336 . S
N990 N991 1.354 . S
N991 C987 1.336 . S
N991 N990 1.354 . S
N991 Zn995 2.020 . S
C992 O993 1.244 . S
C992 O1016 1.257 . S
O993 C992 1.244 . S
O994 Zn986 2.019 . S
O994 C1014 1.257 . S
Zn995 N991 2.020 . S
Zn995 O1002 1.975 . S
Zn995 N1011 2.119 . S
Zn995 O1016 2.019 . S
N996 Zn986 2.119 . S
N996 C998 1.334 . S
N996 C999 1.328 . S
C997 C998 1.391 . S
C997 N1000 1.329 1_545 S
C997 H1018 0.930 . S
C998 N996 1.334 . S
C998 C997 1.391 . S
C998 H1005 0.930 . S
C999 N996 1.328 . S
C999 C1001 1.392 1_545 S
C999 H1006 0.930 . S
N1000 C997 1.329 1_565 S
N1000 C1001 1.331 . S
C1001 C999 1.392 1_565 S
C1001 N1000 1.331 . S
O1002 Zn995 1.975 . S
O1002 C1003 1.252 . S
C1003 O1002 1.252 . S
C1003 O1004 1.252 . S
O1004 Zn986 1.975 . S
O1004 C1003 1.252 . S
H1005 C998 0.930 . S
H1006 C999 0.930 . S
C1007 C1008 1.392 . S
C1007 N1011 1.328 . S
C1007 H1013 0.930 . S
C1008 C1007 1.392 . S
C1008 N1012 1.331 . S
C1009 C1010 1.391 . S
C1009 N1012 1.329 . S
C1009 H1019 0.930 . S
C1010 C1009 1.391 . S
C1010 N1011 1.334 . S
C1010 H1017 0.930 . S
N1011 Zn995 2.119 . S
N1011 C1007 1.328 . S
N1011 C1010 1.334 . S
N1012 C1008 1.331 . S
N1012 C1009 1.329 . S
H1013 C1007 0.930 . S
C1014 O994 1.257 . S
C1014 O1015 1.244 . S
O1015 C1014 1.244 . S
O1016 C992 1.257 . S
O1016 Zn995 2.019 . S
H1017 C1010 0.930 . S
H1018 C997 0.930 . S
H1019 C1009 0.930 . S
Zn1020 N1024 2.020 . S
Zn1020 O1028 2.019 . S
Zn1020 N1030 2.119 . S
Zn1020 O1038 1.975 . S
C1021 N1022 1.334 . S
C1021 N1025 1.336 . S
N1022 C1021 1.334 . S
N1022 C1023 1.334 . S
C1023 N1022 1.334 . S
C1023 N1024 1.336 . S
N1024 Zn1020 2.020 . S
N1024 C1023 1.336 . S
N1024 N1025 1.354 . S
N1025 C1021 1.336 . S
N1025 N1024 1.354 . S
N1025 Zn1029 2.020 . S
C1026 O1027 1.244 . S
C1026 O1050 1.257 . S
O1027 C1026 1.244 . S
O1028 Zn1020 2.019 . S
O1028 C1048 1.257 . S
Zn1029 N1025 2.020 . S
Zn1029 O1036 1.975 . S
Zn1029 N1045 2.119 . S
Zn1029 O1050 2.019 . S
N1030 Zn1020 2.119 . S
N1030 C1032 1.334 . S
N1030 C1033 1.328 . S
C1031 C1032 1.391 . S
C1031 N1034 1.329 . S
C1031 H1052 0.930 . S
C1032 N1030 1.334 . S
C1032 C1031 1.391 . S
C1032 H1039 0.930 . S
C1033 N1030 1.328 . S
C1033 C1035 1.392 . S
C1033 H1040 0.930 . S
N1034 C1031 1.329 . S
N1034 C1035 1.331 . S
C1035 C1033 1.392 . S
C1035 N1034 1.331 . S
O1036 Zn1029 1.975 . S
O1036 C1037 1.252 . S
C1037 O1036 1.252 . S
C1037 O1038 1.252 . S
O1038 Zn1020 1.975 . S
O1038 C1037 1.252 . S
H1039 C1032 0.930 . S
H1040 C1033 0.930 . S
C1041 C1042 1.392 . S
C1041 N1045 1.328 . S
C1041 H1047 0.930 . S
C1042 C1041 1.392 . S
C1042 N1046 1.331 . S
C1043 C1044 1.391 . S
C1043 N1046 1.329 . S
C1043 H1053 0.930 . S
C1044 C1043 1.391 . S
C1044 N1045 1.334 . S
C1044 H1051 0.930 . S
N1045 Zn1029 2.119 . S
N1045 C1041 1.328 . S
N1045 C1044 1.334 . S
N1046 C1042 1.331 . S
N1046 C1043 1.329 . S
H1047 C1041 0.930 . S
C1048 O1028 1.257 . S
C1048 O1049 1.244 . S
O1049 C1048 1.244 . S
O1050 C1026 1.257 . S
O1050 Zn1029 2.019 . S
H1051 C1044 0.930 . S
H1052 C1031 0.930 . S
H1053 C1043 0.930 . S
Zn1054 N1058 2.020 . S
Zn1054 O1062 2.019 . S
Zn1054 N1064 2.119 . S
Zn1054 O1072 1.975 . S
C1055 N1056 1.334 . S
C1055 N1059 1.336 . S
N1056 C1055 1.334 . S
N1056 C1057 1.334 . S
C1057 N1056 1.334 . S
C1057 N1058 1.336 . S
N1058 Zn1054 2.020 . S
N1058 C1057 1.336 . S
N1058 N1059 1.354 . S
N1059 C1055 1.336 . S
N1059 N1058 1.354 . S
N1059 Zn1063 2.020 . S
C1060 O1061 1.244 . S
C1060 O1084 1.257 . S
O1061 C1060 1.244 . S
O1062 Zn1054 2.019 . S
O1062 C1082 1.257 . S
Zn1063 N1059 2.020 . S
Zn1063 O1070 1.975 . S
Zn1063 N1079 2.119 . S
Zn1063 O1084 2.019 . S
N1064 Zn1054 2.119 . S
N1064 C1066 1.334 . S
N1064 C1067 1.328 . S
C1065 C1066 1.391 . S
C1065 N1068 1.329 . S
C1065 H1086 0.930 . S
C1066 N1064 1.334 . S
C1066 C1065 1.391 . S
C1066 H1073 0.930 . S
C1067 N1064 1.328 . S
C1067 C1069 1.392 . S
C1067 H1074 0.930 . S
N1068 C1065 1.329 . S
N1068 C1069 1.331 . S
C1069 C1067 1.392 . S
C1069 N1068 1.331 . S
O1070 Zn1063 1.975 . S
O1070 C1071 1.252 . S
C1071 O1070 1.252 . S
C1071 O1072 1.252 . S
O1072 Zn1054 1.975 . S
O1072 C1071 1.252 . S
H1073 C1066 0.930 . S
H1074 C1067 0.930 . S
C1075 C1076 1.392 . S
C1075 N1079 1.328 . S
C1075 H1081 0.930 . S
C1076 C1075 1.392 . S
C1076 N1080 1.331 . S
C1077 C1078 1.391 . S
C1077 N1080 1.329 . S
C1077 H1087 0.930 . S
C1078 C1077 1.391 . S
C1078 N1079 1.334 . S
C1078 H1085 0.930 . S
N1079 Zn1063 2.119 . S
N1079 C1075 1.328 . S
N1079 C1078 1.334 . S
N1080 C1076 1.331 . S
N1080 C1077 1.329 . S
H1081 C1075 0.930 . S
C1082 O1062 1.257 . S
C1082 O1083 1.244 . S
O1083 C1082 1.244 . S
O1084 C1060 1.257 . S
O1084 Zn1063 2.019 . S
H1085 C1078 0.930 . S
H1086 C1065 0.930 . S
H1087 C1077 0.930 . S
Zn1088 N1092 2.020 . S
Zn1088 O1096 2.019 . S
Zn1088 N1098 2.119 . S
Zn1088 O1106 1.975 . S
C1089 N1090 1.334 . S
C1089 N1093 1.336 . S
N1090 C1089 1.334 . S
N1090 C1091 1.334 . S
C1091 N1090 1.334 . S
C1091 N1092 1.336 . S
N1092 Zn1088 2.020 . S
N1092 C1091 1.336 . S
N1092 N1093 1.354 . S
N1093 C1089 1.336 . S
N1093 N1092 1.354 . S
N1093 Zn1097 2.020 . S
C1094 O1095 1.244 . S
C1094 O1118 1.257 . S
O1095 C1094 1.244 . S
O1096 Zn1088 2.019 . S
O1096 C1116 1.257 . S
Zn1097 N1093 2.020 . S
Zn1097 O1104 1.975 . S
Zn1097 N1113 2.119 . S
Zn1097 O1118 2.019 . S
N1098 Zn1088 2.119 . S
N1098 C1100 1.334 . S
N1098 C1101 1.328 . S
C1099 C1100 1.391 . S
C1099 N1102 1.329 . S
C1099 H1120 0.930 . S
C1100 N1098 1.334 . S
C1100 C1099 1.391 . S
C1100 H1107 0.930 . S
C1101 N1098 1.328 . S
C1101 C1103 1.392 . S
C1101 H1108 0.930 . S
N1102 C1099 1.329 . S
N1102 C1103 1.331 . S
C1103 C1101 1.392 . S
C1103 N1102 1.331 . S
O1104 Zn1097 1.975 . S
O1104 C1105 1.252 . S
C1105 O1104 1.252 . S
C1105 O1106 1.252 . S
O1106 Zn1088 1.975 . S
O1106 C1105 1.252 . S
H1107 C1100 0.930 . S
H1108 C1101 0.930 . S
C1109 C1110 1.392 . S
C1109 N1113 1.328 . S
C1109 H1115 0.930 . S
C1110 C1109 1.392 . S
C1110 N1114 1.331 . S
C1111 C1112 1.391 . S
C1111 N1114 1.329 . S
C1111 H1121 0.930 . S
C1112 C1111 1.391 . S
C1112 N1113 1.334 . S
C1112 H1119 0.930 . S
N1113 Zn1097 2.119 . S
N1113 C1109 1.328 . S
N1113 C1112 1.334 . S
N1114 C1110 1.331 . S
N1114 C1111 1.329 . S
H1115 C1109 0.930 . S
C1116 O1096 1.257 . S
C1116 O1117 1.244 . S
O1117 C1116 1.244 . S
O1118 C1094 1.257 . S
O1118 Zn1097 2.019 . S
H1119 C1112 0.930 . S
H1120 C1099 0.930 . S
H1121 C1111 0.930 . S
Zn1122 N1126 2.020 . S
Zn1122 O1130 2.019 . S
Zn1122 N1132 2.119 . S
Zn1122 O1140 1.975 . S
C1123 N1124 1.334 . S
C1123 N1127 1.336 . S
N1124 C1123 1.334 . S
N1124 C1125 1.334 . S
C1125 N1124 1.334 . S
C1125 N1126 1.336 . S
N1126 Zn1122 2.020 . S
N1126 C1125 1.336 . S
N1126 N1127 1.354 . S
N1127 C1123 1.336 . S
N1127 N1126 1.354 . S
N1127 Zn1131 2.020 . S
C1128 O1129 1.244 . S
C1128 O1152 1.257 . S
O1129 C1128 1.244 . S
O1130 Zn1122 2.019 . S
O1130 C1150 1.257 1_545 S
Zn1131 N1127 2.020 . S
Zn1131 O1138 1.975 . S
Zn1131 N1147 2.119 . S
Zn1131 O1152 2.019 . S
N1132 Zn1122 2.119 . S
N1132 C1134 1.334 . S
N1132 C1135 1.328 . S
C1133 C1134 1.391 . S
C1133 N1136 1.329 . S
C1133 H1154 0.930 . S
C1134 N1132 1.334 . S
C1134 C1133 1.391 . S
C1134 H1141 0.930 . S
C1135 N1132 1.328 . S
C1135 C1137 1.392 . S
C1135 H1142 0.930 . S
N1136 C1133 1.329 . S
N1136 C1137 1.331 . S
C1137 C1135 1.392 . S
C1137 N1136 1.331 . S
O1138 Zn1131 1.975 . S
O1138 C1139 1.252 . S
C1139 O1138 1.252 . S
C1139 O1140 1.252 . S
O1140 Zn1122 1.975 . S
O1140 C1139 1.252 . S
H1141 C1134 0.930 . S
H1142 C1135 0.930 . S
C1143 C1144 1.392 1_655 S
C1143 N1147 1.328 . S
C1143 H1149 0.930 . S
C1144 C1143 1.392 1_455 S
C1144 N1148 1.331 . S
C1145 C1146 1.391 . S
C1145 N1148 1.329 1_655 S
C1145 H1155 0.930 . S
C1146 C1145 1.391 . S
C1146 N1147 1.334 . S
C1146 H1153 0.930 . S
N1147 Zn1131 2.119 . S
N1147 C1143 1.328 . S
N1147 C1146 1.334 . S
N1148 C1144 1.331 . S
N1148 C1145 1.329 1_455 S
H1149 C1143 0.930 . S
C1150 O1130 1.257 1_565 S
C1150 O1151 1.244 1_565 S
O1151 C1150 1.244 1_545 S
O1152 C1128 1.257 . S
O1152 Zn1131 2.019 . S
H1153 C1146 0.930 . S
H1154 C1133 0.930 . S
H1155 C1145 0.930 . S
Zn1156 N1160 2.020 . S
Zn1156 O1164 2.019 . S
Zn1156 N1166 2.119 . S
Zn1156 O1174 1.975 . S
C1157 N1158 1.334 . S
C1157 N1161 1.336 . S
N1158 C1157 1.334 . S
N1158 C1159 1.334 . S
C1159 N1158 1.334 . S
C1159 N1160 1.336 . S
N1160 Zn1156 2.020 . S
N1160 C1159 1.336 . S
N1160 N1161 1.354 . S
N1161 C1157 1.336 . S
N1161 N1160 1.354 . S
N1161 Zn1165 2.020 . S
C1162 O1163 1.244 . S
C1162 O1186 1.257 . S
O1163 C1162 1.244 . S
O1164 Zn1156 2.019 . S
O1164 C1184 1.257 . S
Zn1165 N1161 2.020 . S
Zn1165 O1172 1.975 . S
Zn1165 N1181 2.119 . S
Zn1165 O1186 2.019 . S
N1166 Zn1156 2.119 . S
N1166 C1168 1.334 . S
N1166 C1169 1.328 . S
C1167 C1168 1.391 . S
C1167 N1170 1.329 . S
C1167 H1188 0.930 . S
C1168 N1166 1.334 . S
C1168 C1167 1.391 . S
C1168 H1175 0.930 . S
C1169 N1166 1.328 . S
C1169 C1171 1.392 . S
C1169 H1176 0.930 . S
N1170 C1167 1.329 . S
N1170 C1171 1.331 . S
C1171 C1169 1.392 . S
C1171 N1170 1.331 . S
O1172 Zn1165 1.975 . S
O1172 C1173 1.252 . S
C1173 O1172 1.252 . S
C1173 O1174 1.252 . S
O1174 Zn1156 1.975 . S
O1174 C1173 1.252 . S
H1175 C1168 0.930 . S
H1176 C1169 0.930 . S
C1177 C1178 1.392 . S
C1177 N1181 1.328 . S
C1177 H1183 0.930 . S
C1178 C1177 1.392 . S
C1178 N1182 1.331 . S
C1179 C1180 1.391 . S
C1179 N1182 1.329 . S
C1179 H1189 0.930 . S
C1180 C1179 1.391 . S
C1180 N1181 1.334 . S
C1180 H1187 0.930 . S
N1181 Zn1165 2.119 . S
N1181 C1177 1.328 . S
N1181 C1180 1.334 . S
N1182 C1178 1.331 . S
N1182 C1179 1.329 . S
H1183 C1177 0.930 . S
C1184 O1164 1.257 . S
C1184 O1185 1.244 . S
O1185 C1184 1.244 . S
O1186 C1162 1.257 . S
O1186 Zn1165 2.019 . S
H1187 C1180 0.930 . S
H1188 C1167 0.930 . S
H1189 C1179 0.930 . S
Zn1190 N1194 2.020 . S
Zn1190 O1198 2.019 . S
Zn1190 N1200 2.119 . S
Zn1190 O1208 1.975 . S
C1191 N1192 1.334 . S
C1191 N1195 1.336 . S
N1192 C1191 1.334 . S
N1192 C1193 1.334 . S
C1193 N1192 1.334 . S
C1193 N1194 1.336 . S
N1194 Zn1190 2.020 . S
N1194 C1193 1.336 . S
N1194 N1195 1.354 . S
N1195 C1191 1.336 . S
N1195 N1194 1.354 . S
N1195 Zn1199 2.020 . S
C1196 O1197 1.244 . S
C1196 O1220 1.257 . S
O1197 C1196 1.244 . S
O1198 Zn1190 2.019 . S
O1198 C1218 1.257 . S
Zn1199 N1195 2.020 . S
Zn1199 O1206 1.975 . S
Zn1199 N1215 2.119 . S
Zn1199 O1220 2.019 . S
N1200 Zn1190 2.119 . S
N1200 C1202 1.334 . S
N1200 C1203 1.328 . S
C1201 C1202 1.391 . S
C1201 N1204 1.329 . S
C1201 H1222 0.930 . S
C1202 N1200 1.334 . S
C1202 C1201 1.391 . S
C1202 H1209 0.930 . S
C1203 N1200 1.328 . S
C1203 C1205 1.392 . S
C1203 H1210 0.930 . S
N1204 C1201 1.329 . S
N1204 C1205 1.331 . S
C1205 C1203 1.392 . S
C1205 N1204 1.331 . S
O1206 Zn1199 1.975 . S
O1206 C1207 1.252 . S
C1207 O1206 1.252 . S
C1207 O1208 1.252 . S
O1208 Zn1190 1.975 . S
O1208 C1207 1.252 . S
H1209 C1202 0.930 . S
H1210 C1203 0.930 . S
C1211 C1212 1.392 1_455 S
C1211 N1215 1.328 . S
C1211 H1217 0.930 . S
C1212 C1211 1.392 1_655 S
C1212 N1216 1.331 . S
C1213 C1214 1.391 . S
C1213 N1216 1.329 1_455 S
C1213 H1223 0.930 . S
C1214 C1213 1.391 . S
C1214 N1215 1.334 . S
C1214 H1221 0.930 . S
N1215 Zn1199 2.119 . S
N1215 C1211 1.328 . S
N1215 C1214 1.334 . S
N1216 C1212 1.331 . S
N1216 C1213 1.329 1_655 S
H1217 C1211 0.930 . S
C1218 O1198 1.257 . S
C1218 O1219 1.244 . S
O1219 C1218 1.244 . S
O1220 C1196 1.257 . S
O1220 Zn1199 2.019 . S
H1221 C1214 0.930 . S
H1222 C1201 0.930 . S
H1223 C1213 0.930 . S
Zn1224 N1228 2.020 . S
Zn1224 O1232 2.019 . S
Zn1224 N1234 2.119 . S
Zn1224 O1242 1.975 . S
C1225 N1226 1.334 . S
C1225 N1229 1.336 . S
N1226 C1225 1.334 . S
N1226 C1227 1.334 . S
C1227 N1226 1.334 . S
C1227 N1228 1.336 . S
N1228 Zn1224 2.020 . S
N1228 C1227 1.336 . S
N1228 N1229 1.354 . S
N1229 C1225 1.336 . S
N1229 N1228 1.354 . S
N1229 Zn1233 2.020 . S
C1230 O1231 1.244 . S
C1230 O1254 1.257 . S
O1231 C1230 1.244 . S
O1232 Zn1224 2.019 . S
O1232 C1252 1.257 . S
Zn1233 N1229 2.020 . S
Zn1233 O1240 1.975 . S
Zn1233 N1249 2.119 . S
Zn1233 O1254 2.019 . S
N1234 Zn1224 2.119 . S
N1234 C1236 1.334 . S
N1234 C1237 1.328 . S
C1235 C1236 1.391 . S
C1235 N1238 1.329 . S
C1235 H1256 0.930 . S
C1236 N1234 1.334 . S
C1236 C1235 1.391 . S
C1236 H1243 0.930 . S
C1237 N1234 1.328 . S
C1237 C1239 1.392 . S
C1237 H1244 0.930 . S
N1238 C1235 1.329 . S
N1238 C1239 1.331 . S
C1239 C1237 1.392 . S
C1239 N1238 1.331 . S
O1240 Zn1233 1.975 . S
O1240 C1241 1.252 . S
C1241 O1240 1.252 . S
C1241 O1242 1.252 . S
O1242 Zn1224 1.975 . S
O1242 C1241 1.252 . S
H1243 C1236 0.930 . S
H1244 C1237 0.930 . S
C1245 C1246 1.392 . S
C1245 N1249 1.328 . S
C1245 H1251 0.930 . S
C1246 C1245 1.392 . S
C1246 N1250 1.331 . S
C1247 C1248 1.391 . S
C1247 N1250 1.329 . S
C1247 H1257 0.930 . S
C1248 C1247 1.391 . S
C1248 N1249 1.334 . S
C1248 H1255 0.930 . S
N1249 Zn1233 2.119 . S
N1249 C1245 1.328 . S
N1249 C1248 1.334 . S
N1250 C1246 1.331 . S
N1250 C1247 1.329 . S
H1251 C1245 0.930 . S
C1252 O1232 1.257 . S
C1252 O1253 1.244 . S
O1253 C1252 1.244 . S
O1254 C1230 1.257 . S
O1254 Zn1233 2.019 . S
H1255 C1248 0.930 . S
H1256 C1235 0.930 . S
H1257 C1247 0.930 . S
Zn1258 N1262 2.020 . S
Zn1258 O1266 2.019 . S
Zn1258 N1268 2.119 . S
Zn1258 O1276 1.975 . S
C1259 N1260 1.334 . S
C1259 N1263 1.336 . S
N1260 C1259 1.334 . S
N1260 C1261 1.334 . S
C1261 N1260 1.334 . S
C1261 N1262 1.336 . S
N1262 Zn1258 2.020 . S
N1262 C1261 1.336 . S
N1262 N1263 1.354 . S
N1263 C1259 1.336 . S
N1263 N1262 1.354 . S
N1263 Zn1267 2.020 . S
C1264 O1265 1.244 1_565 S
C1264 O1288 1.257 1_565 S
O1265 C1264 1.244 1_545 S
O1266 Zn1258 2.019 . S
O1266 C1286 1.257 . S
Zn1267 N1263 2.020 . S
Zn1267 O1274 1.975 . S
Zn1267 N1283 2.119 . S
Zn1267 O1288 2.019 . S
N1268 Zn1258 2.119 . S
N1268 C1270 1.334 . S
N1268 C1271 1.328 . S
C1269 C1270 1.391 . S
C1269 N1272 1.329 . S
C1269 H1290 0.930 . S
C1270 N1268 1.334 . S
C1270 C1269 1.391 . S
C1270 H1277 0.930 . S
C1271 N1268 1.328 . S
C1271 C1273 1.392 . S
C1271 H1278 0.930 . S
N1272 C1269 1.329 . S
N1272 C1273 1.331 . S
C1273 C1271 1.392 . S
C1273 N1272 1.331 . S
O1274 Zn1267 1.975 . S
O1274 C1275 1.252 . S
C1275 O1274 1.252 . S
C1275 O1276 1.252 . S
O1276 Zn1258 1.975 . S
O1276 C1275 1.252 . S
H1277 C1270 0.930 . S
H1278 C1271 0.930 . S
C1279 C1280 1.392 . S
C1279 N1283 1.328 . S
C1279 H1285 0.930 . S
C1280 C1279 1.392 . S
C1280 N1284 1.331 . S
C1281 C1282 1.391 . S
C1281 N1284 1.329 . S
C1281 H1291 0.930 . S
C1282 C1281 1.391 . S
C1282 N1283 1.334 . S
C1282 H1289 0.930 . S
N1283 Zn1267 2.119 . S
N1283 C1279 1.328 . S
N1283 C1282 1.334 . S
N1284 C1280 1.331 . S
N1284 C1281 1.329 . S
H1285 C1279 0.930 . S
C1286 O1266 1.257 . S
C1286 O1287 1.244 . S
O1287 C1286 1.244 . S
O1288 C1264 1.257 1_545 S
O1288 Zn1267 2.019 . S
H1289 C1282 0.930 . S
H1290 C1269 0.930 . S
H1291 C1281 0.930 . S
Zn1292 N1296 2.020 . S
Zn1292 O1300 2.019 . S
Zn1292 N1302 2.119 . S
Zn1292 O1310 1.975 . S
C1293 N1294 1.334 . S
C1293 N1297 1.336 . S
N1294 C1293 1.334 . S
N1294 C1295 1.334 . S
C1295 N1294 1.334 . S
C1295 N1296 1.336 . S
N1296 Zn1292 2.020 . S
N1296 C1295 1.336 . S
N1296 N1297 1.354 . S
N1297 C1293 1.336 . S
N1297 N1296 1.354 . S
N1297 Zn1301 2.020 . S
C1298 O1299 1.244 . S
C1298 O1322 1.257 . S
O1299 C1298 1.244 . S
O1300 Zn1292 2.019 . S
O1300 C1320 1.257 . S
Zn1301 N1297 2.020 . S
Zn1301 O1308 1.975 . S
Zn1301 N1317 2.119 . S
Zn1301 O1322 2.019 . S
N1302 Zn1292 2.119 . S
N1302 C1304 1.334 . S
N1302 C1305 1.328 . S
C1303 C1304 1.391 . S
C1303 N1306 1.329 . S
C1303 H1324 0.930 . S
C1304 N1302 1.334 . S
C1304 C1303 1.391 . S
C1304 H1311 0.930 . S
C1305 N1302 1.328 . S
C1305 C1307 1.392 . S
C1305 H1312 0.930 . S
N1306 C1303 1.329 . S
N1306 C1307 1.331 . S
C1307 C1305 1.392 . S
C1307 N1306 1.331 . S
O1308 Zn1301 1.975 . S
O1308 C1309 1.252 . S
C1309 O1308 1.252 . S
C1309 O1310 1.252 . S
O1310 Zn1292 1.975 . S
O1310 C1309 1.252 . S
H1311 C1304 0.930 . S
H1312 C1305 0.930 . S
C1313 C1314 1.392 . S
C1313 N1317 1.328 . S
C1313 H1319 0.930 . S
C1314 C1313 1.392 . S
C1314 N1318 1.331 . S
C1315 C1316 1.391 . S
C1315 N1318 1.329 . S
C1315 H1325 0.930 . S
C1316 C1315 1.391 . S
C1316 N1317 1.334 . S
C1316 H1323 0.930 . S
N1317 Zn1301 2.119 . S
N1317 C1313 1.328 . S
N1317 C1316 1.334 . S
N1318 C1314 1.331 . S
N1318 C1315 1.329 . S
H1319 C1313 0.930 . S
C1320 O1300 1.257 . S
C1320 O1321 1.244 . S
O1321 C1320 1.244 . S
O1322 C1298 1.257 . S
O1322 Zn1301 2.019 . S
H1323 C1316 0.930 . S
H1324 C1303 0.930 . S
H1325 C1315 0.930 . S
Zn1326 N1330 2.020 . S
Zn1326 O1334 2.019 . S
Zn1326 N1336 2.119 . S
Zn1326 O1344 1.975 . S
C1327 N1328 1.334 . S
C1327 N1331 1.336 . S
N1328 C1327 1.334 . S
N1328 C1329 1.334 . S
C1329 N1328 1.334 . S
C1329 N1330 1.336 . S
N1330 Zn1326 2.020 . S
N1330 C1329 1.336 . S
N1330 N1331 1.354 . S
N1331 C1327 1.336 . S
N1331 N1330 1.354 . S
N1331 Zn1335 2.020 . S
C1332 O1333 1.244 . S
C1332 O1356 1.257 . S
O1333 C1332 1.244 . S
O1334 Zn1326 2.019 . S
O1334 C1354 1.257 . S
Zn1335 N1331 2.020 . S
Zn1335 O1342 1.975 . S
Zn1335 N1351 2.119 . S
Zn1335 O1356 2.019 . S
N1336 Zn1326 2.119 . S
N1336 C1338 1.334 . S
N1336 C1339 1.328 . S
C1337 C1338 1.391 . S
C1337 N1340 1.329 . S
C1337 H1358 0.930 . S
C1338 N1336 1.334 . S
C1338 C1337 1.391 . S
C1338 H1345 0.930 . S
C1339 N1336 1.328 . S
C1339 C1341 1.392 . S
C1339 H1346 0.930 . S
N1340 C1337 1.329 . S
N1340 C1341 1.331 . S
C1341 C1339 1.392 . S
C1341 N1340 1.331 . S
O1342 Zn1335 1.975 . S
O1342 C1343 1.252 . S
C1343 O1342 1.252 . S
C1343 O1344 1.252 . S
O1344 Zn1326 1.975 . S
O1344 C1343 1.252 . S
H1345 C1338 0.930 . S
H1346 C1339 0.930 . S
C1347 C1348 1.392 . S
C1347 N1351 1.328 . S
C1347 H1353 0.930 . S
C1348 C1347 1.392 . S
C1348 N1352 1.331 . S
C1349 C1350 1.391 . S
C1349 N1352 1.329 . S
C1349 H1359 0.930 . S
C1350 C1349 1.391 . S
C1350 N1351 1.334 . S
C1350 H1357 0.930 . S
N1351 Zn1335 2.119 . S
N1351 C1347 1.328 . S
N1351 C1350 1.334 . S
N1352 C1348 1.331 . S
N1352 C1349 1.329 . S
H1353 C1347 0.930 . S
C1354 O1334 1.257 . S
C1354 O1355 1.244 . S
O1355 C1354 1.244 . S
O1356 C1332 1.257 . S
O1356 Zn1335 2.019 . S
H1357 C1350 0.930 . S
H1358 C1337 0.930 . S
H1359 C1349 0.930 . S
Zn1360 N1364 2.020 . S
Zn1360 O1368 2.019 . S
Zn1360 N1370 2.119 . S
Zn1360 O1378 1.975 . S
C1361 N1362 1.334 . S
C1361 N1365 1.336 . S
N1362 C1361 1.334 . S
N1362 C1363 1.334 . S
C1363 N1362 1.334 . S
C1363 N1364 1.336 . S
N1364 Zn1360 2.020 . S
N1364 C1363 1.336 . S
N1364 N1365 1.354 . S
N1365 C1361 1.336 . S
N1365 N1364 1.354 . S
N1365 Zn1369 2.020 . S
C1366 O1367 1.244 . S
C1366 O1390 1.257 . S
O1367 C1366 1.244 . S
O1368 Zn1360 2.019 . S
O1368 C1388 1.257 . S
Zn1369 N1365 2.020 . S
Zn1369 O1376 1.975 . S
Zn1369 N1385 2.119 . S
Zn1369 O1390 2.019 . S
N1370 Zn1360 2.119 . S
N1370 C1372 1.334 . S
N1370 C1373 1.328 . S
C1371 C1372 1.391 . S
C1371 N1374 1.329 . S
C1371 H1392 0.930 . S
C1372 N1370 1.334 . S
C1372 C1371 1.391 . S
C1372 H1379 0.930 . S
C1373 N1370 1.328 . S
C1373 C1375 1.392 . S
C1373 H1380 0.930 . S
N1374 C1371 1.329 . S
N1374 C1375 1.331 . S
C1375 C1373 1.392 . S
C1375 N1374 1.331 . S
O1376 Zn1369 1.975 . S
O1376 C1377 1.252 . S
C1377 O1376 1.252 . S
C1377 O1378 1.252 . S
O1378 Zn1360 1.975 . S
O1378 C1377 1.252 . S
H1379 C1372 0.930 . S
H1380 C1373 0.930 . S
C1381 C1382 1.392 . S
C1381 N1385 1.328 . S
C1381 H1387 0.930 . S
C1382 C1381 1.392 . S
C1382 N1386 1.331 . S
C1383 C1384 1.391 . S
C1383 N1386 1.329 . S
C1383 H1393 0.930 . S
C1384 C1383 1.391 . S
C1384 N1385 1.334 . S
C1384 H1391 0.930 . S
N1385 Zn1369 2.119 . S
N1385 C1381 1.328 . S
N1385 C1384 1.334 . S
N1386 C1382 1.331 . S
N1386 C1383 1.329 . S
H1387 C1381 0.930 . S
C1388 O1368 1.257 . S
C1388 O1389 1.244 . S
O1389 C1388 1.244 . S
O1390 C1366 1.257 . S
O1390 Zn1369 2.019 . S
H1391 C1384 0.930 . S
H1392 C1371 0.930 . S
H1393 C1383 0.930 . S
Zn1394 N1398 2.020 . S
Zn1394 O1402 2.019 . S
Zn1394 N1404 2.119 . S
Zn1394 O1412 1.975 . S
C1395 N1396 1.334 . S
C1395 N1399 1.336 . S
N1396 C1395 1.334 . S
N1396 C1397 1.334 . S
C1397 N1396 1.334 . S
C1397 N1398 1.336 . S
N1398 Zn1394 2.020 . S
N1398 C1397 1.336 . S
N1398 N1399 1.354 . S
N1399 C1395 1.336 . S
N1399 N1398 1.354 . S
N1399 Zn1403 2.020 . S
C1400 O1401 1.244 . S
C1400 O1424 1.257 . S
O1401 C1400 1.244 . S
O1402 Zn1394 2.019 . S
O1402 C1422 1.257 . S
Zn1403 N1399 2.020 . S
Zn1403 O1410 1.975 . S
Zn1403 N1419 2.119 . S
Zn1403 O1424 2.019 . S
N1404 Zn1394 2.119 . S
N1404 C1406 1.334 . S
N1404 C1407 1.328 . S
C1405 C1406 1.391 . S
C1405 N1408 1.329 . S
C1405 H1426 0.930 . S
C1406 N1404 1.334 . S
C1406 C1405 1.391 . S
C1406 H1413 0.930 . S
C1407 N1404 1.328 . S
C1407 C1409 1.392 . S
C1407 H1414 0.930 . S
N1408 C1405 1.329 . S
N1408 C1409 1.331 . S
C1409 C1407 1.392 . S
C1409 N1408 1.331 . S
O1410 Zn1403 1.975 . S
O1410 C1411 1.252 . S
C1411 O1410 1.252 . S
C1411 O1412 1.252 . S
O1412 Zn1394 1.975 . S
O1412 C1411 1.252 . S
H1413 C1406 0.930 . S
H1414 C1407 0.930 . S
C1415 C1416 1.392 . S
C1415 N1419 1.328 . S
C1415 H1421 0.930 . S
C1416 C1415 1.392 . S
C1416 N1420 1.331 . S
C1417 C1418 1.391 . S
C1417 N1420 1.329 . S
C1417 H1427 0.930 . S
C1418 C1417 1.391 . S
C1418 N1419 1.334 . S
C1418 H1425 0.930 . S
N1419 Zn1403 2.119 . S
N1419 C1415 1.328 . S
N1419 C1418 1.334 . S
N1420 C1416 1.331 . S
N1420 C1417 1.329 . S
H1421 C1415 0.930 . S
C1422 O1402 1.257 . S
C1422 O1423 1.244 . S
O1423 C1422 1.244 . S
O1424 C1400 1.257 . S
O1424 Zn1403 2.019 . S
H1425 C1418 0.930 . S
H1426 C1405 0.930 . S
H1427 C1417 0.930 . S
Zn1428 N1432 2.020 . S
Zn1428 O1436 2.019 . S
Zn1428 N1438 2.119 . S
Zn1428 O1446 1.975 . S
C1429 N1430 1.334 . S
C1429 N1433 1.336 . S
N1430 C1429 1.334 . S
N1430 C1431 1.334 . S
C1431 N1430 1.334 . S
C1431 N1432 1.336 . S
N1432 Zn1428 2.020 . S
N1432 C1431 1.336 . S
N1432 N1433 1.354 . S
N1433 C1429 1.336 . S
N1433 N1432 1.354 . S
N1433 Zn1437 2.020 . S
C1434 O1435 1.244 . S
C1434 O1458 1.257 . S
O1435 C1434 1.244 . S
O1436 Zn1428 2.019 . S
O1436 C1456 1.257 . S
Zn1437 N1433 2.020 . S
Zn1437 O1444 1.975 . S
Zn1437 N1453 2.119 . S
Zn1437 O1458 2.019 . S
N1438 Zn1428 2.119 . S
N1438 C1440 1.334 . S
N1438 C1441 1.328 . S
C1439 C1440 1.391 . S
C1439 N1442 1.329 . S
C1439 H1460 0.930 . S
C1440 N1438 1.334 . S
C1440 C1439 1.391 . S
C1440 H1447 0.930 . S
C1441 N1438 1.328 . S
C1441 C1443 1.392 . S
C1441 H1448 0.930 . S
N1442 C1439 1.329 . S
N1442 C1443 1.331 . S
C1443 C1441 1.392 . S
C1443 N1442 1.331 . S
O1444 Zn1437 1.975 . S
O1444 C1445 1.252 . S
C1445 O1444 1.252 . S
C1445 O1446 1.252 . S
O1446 Zn1428 1.975 . S
O1446 C1445 1.252 . S
H1447 C1440 0.930 . S
H1448 C1441 0.930 . S
C1449 C1450 1.392 . S
C1449 N1453 1.328 . S
C1449 H1455 0.930 . S
C1450 C1449 1.392 . S
C1450 N1454 1.331 . S
C1451 C1452 1.391 . S
C1451 N1454 1.329 . S
C1451 H1461 0.930 . S
C1452 C1451 1.391 . S
C1452 N1453 1.334 . S
C1452 H1459 0.930 . S
N1453 Zn1437 2.119 . S
N1453 C1449 1.328 . S
N1453 C1452 1.334 . S
N1454 C1450 1.331 . S
N1454 C1451 1.329 . S
H1455 C1449 0.930 . S
C1456 O1436 1.257 . S
C1456 O1457 1.244 . S
O1457 C1456 1.244 . S
O1458 C1434 1.257 . S
O1458 Zn1437 2.019 . S
H1459 C1452 0.930 . S
H1460 C1439 0.930 . S
H1461 C1451 0.930 . S
Zn1462 N1466 2.020 . S
Zn1462 O1470 2.019 . S
Zn1462 N1472 2.119 . S
Zn1462 O1480 1.975 . S
C1463 N1464 1.334 . S
C1463 N1467 1.336 . S
N1464 C1463 1.334 . S
N1464 C1465 1.334 . S
C1465 N1464 1.334 . S
C1465 N1466 1.336 . S
N1466 Zn1462 2.020 . S
N1466 C1465 1.336 . S
N1466 N1467 1.354 . S
N1467 C1463 1.336 . S
N1467 N1466 1.354 . S
N1467 Zn1471 2.020 . S
C1468 O1469 1.244 . S
C1468 O1492 1.257 . S
O1469 C1468 1.244 . S
O1470 Zn1462 2.019 . S
O1470 C1490 1.257 . S
Zn1471 N1467 2.020 . S
Zn1471 O1478 1.975 . S
Zn1471 N1487 2.119 . S
Zn1471 O1492 2.019 . S
N1472 Zn1462 2.119 . S
N1472 C1474 1.334 . S
N1472 C1475 1.328 . S
C1473 C1474 1.391 . S
C1473 N1476 1.329 . S
C1473 H1494 0.930 . S
C1474 N1472 1.334 . S
C1474 C1473 1.391 . S
C1474 H1481 0.930 . S
C1475 N1472 1.328 . S
C1475 C1477 1.392 . S
C1475 H1482 0.930 . S
N1476 C1473 1.329 . S
N1476 C1477 1.331 . S
C1477 C1475 1.392 . S
C1477 N1476 1.331 . S
O1478 Zn1471 1.975 . S
O1478 C1479 1.252 . S
C1479 O1478 1.252 . S
C1479 O1480 1.252 . S
O1480 Zn1462 1.975 . S
O1480 C1479 1.252 . S
H1481 C1474 0.930 . S
H1482 C1475 0.930 . S
C1483 C1484 1.392 . S
C1483 N1487 1.328 . S
C1483 H1489 0.930 . S
C1484 C1483 1.392 . S
C1484 N1488 1.331 . S
C1485 C1486 1.391 . S
C1485 N1488 1.329 . S
C1485 H1495 0.930 . S
C1486 C1485 1.391 . S
C1486 N1487 1.334 . S
C1486 H1493 0.930 . S
N1487 Zn1471 2.119 . S
N1487 C1483 1.328 . S
N1487 C1486 1.334 . S
N1488 C1484 1.331 . S
N1488 C1485 1.329 . S
H1489 C1483 0.930 . S
C1490 O1470 1.257 . S
C1490 O1491 1.244 . S
O1491 C1490 1.244 . S
O1492 C1468 1.257 . S
O1492 Zn1471 2.019 . S
H1493 C1486 0.930 . S
H1494 C1473 0.930 . S
H1495 C1485 0.930 . S
Zn1496 N1500 2.020 . S
Zn1496 O1504 2.019 . S
Zn1496 N1506 2.119 . S
Zn1496 O1514 1.975 . S
C1497 N1498 1.334 . S
C1497 N1501 1.336 . S
N1498 C1497 1.334 . S
N1498 C1499 1.334 . S
C1499 N1498 1.334 . S
C1499 N1500 1.336 . S
N1500 Zn1496 2.020 . S
N1500 C1499 1.336 . S
N1500 N1501 1.354 . S
N1501 C1497 1.336 . S
N1501 N1500 1.354 . S
N1501 Zn1505 2.020 . S
C1502 O1503 1.244 . S
C1502 O1526 1.257 . S
O1503 C1502 1.244 . S
O1504 Zn1496 2.019 . S
O1504 C1524 1.257 1_655 S
Zn1505 N1501 2.020 . S
Zn1505 O1512 1.975 . S
Zn1505 N1521 2.119 . S
Zn1505 O1526 2.019 . S
N1506 Zn1496 2.119 . S
N1506 C1508 1.334 . S
N1506 C1509 1.328 . S
C1507 C1508 1.391 . S
C1507 N1510 1.329 . S
C1507 H1528 0.930 . S
C1508 N1506 1.334 . S
C1508 C1507 1.391 . S
C1508 H1515 0.930 . S
C1509 N1506 1.328 . S
C1509 C1511 1.392 . S
C1509 H1516 0.930 . S
N1510 C1507 1.329 . S
N1510 C1511 1.331 . S
C1511 C1509 1.392 . S
C1511 N1510 1.331 . S
O1512 Zn1505 1.975 . S
O1512 C1513 1.252 . S
C1513 O1512 1.252 . S
C1513 O1514 1.252 . S
O1514 Zn1496 1.975 . S
O1514 C1513 1.252 . S
H1515 C1508 0.930 . S
H1516 C1509 0.930 . S
C1517 C1518 1.392 1_556 S
C1517 N1521 1.328 . S
C1517 H1523 0.930 . S
C1518 C1517 1.392 1_554 S
C1518 N1522 1.331 . S
C1519 C1520 1.391 . S
C1519 N1522 1.329 1_556 S
C1519 H1529 0.930 . S
C1520 C1519 1.391 . S
C1520 N1521 1.334 . S
C1520 H1527 0.930 . S
N1521 Zn1505 2.119 . S
N1521 C1517 1.328 . S
N1521 C1520 1.334 . S
N1522 C1518 1.331 . S
N1522 C1519 1.329 1_554 S
H1523 C1517 0.930 . S
C1524 O1504 1.257 1_455 S
C1524 O1525 1.244 1_455 S
O1525 C1524 1.244 1_655 S
O1526 C1502 1.257 . S
O1526 Zn1505 2.019 . S
H1527 C1520 0.930 . S
H1528 C1507 0.930 . S
H1529 C1519 0.930 . S
Zn1530 N1534 2.020 . S
Zn1530 O1538 2.019 . S
Zn1530 N1540 2.119 . S
Zn1530 O1548 1.975 . S
C1531 N1532 1.334 . S
C1531 N1535 1.336 . S
N1532 C1531 1.334 . S
N1532 C1533 1.334 . S
C1533 N1532 1.334 . S
C1533 N1534 1.336 . S
N1534 Zn1530 2.020 . S
N1534 C1533 1.336 . S
N1534 N1535 1.354 . S
N1535 C1531 1.336 . S
N1535 N1534 1.354 . S
N1535 Zn1539 2.020 . S
C1536 O1537 1.244 . S
C1536 O1560 1.257 . S
O1537 C1536 1.244 . S
O1538 Zn1530 2.019 . S
O1538 C1558 1.257 . S
Zn1539 N1535 2.020 . S
Zn1539 O1546 1.975 . S
Zn1539 N1555 2.119 . S
Zn1539 O1560 2.019 . S
N1540 Zn1530 2.119 . S
N1540 C1542 1.334 . S
N1540 C1543 1.328 . S
C1541 C1542 1.391 . S
C1541 N1544 1.329 . S
C1541 H1562 0.930 . S
C1542 N1540 1.334 . S
C1542 C1541 1.391 . S
C1542 H1549 0.930 . S
C1543 N1540 1.328 . S
C1543 C1545 1.392 . S
C1543 H1550 0.930 . S
N1544 C1541 1.329 . S
N1544 C1545 1.331 . S
C1545 C1543 1.392 . S
C1545 N1544 1.331 . S
O1546 Zn1539 1.975 . S
O1546 C1547 1.252 . S
C1547 O1546 1.252 . S
C1547 O1548 1.252 . S
O1548 Zn1530 1.975 . S
O1548 C1547 1.252 . S
H1549 C1542 0.930 . S
H1550 C1543 0.930 . S
C1551 C1552 1.392 . S
C1551 N1555 1.328 . S
C1551 H1557 0.930 . S
C1552 C1551 1.392 . S
C1552 N1556 1.331 . S
C1553 C1554 1.391 . S
C1553 N1556 1.329 . S
C1553 H1563 0.930 . S
C1554 C1553 1.391 . S
C1554 N1555 1.334 . S
C1554 H1561 0.930 . S
N1555 Zn1539 2.119 . S
N1555 C1551 1.328 . S
N1555 C1554 1.334 . S
N1556 C1552 1.331 . S
N1556 C1553 1.329 . S
H1557 C1551 0.930 . S
C1558 O1538 1.257 . S
C1558 O1559 1.244 . S
O1559 C1558 1.244 . S
O1560 C1536 1.257 . S
O1560 Zn1539 2.019 . S
H1561 C1554 0.930 . S
H1562 C1541 0.930 . S
H1563 C1553 0.930 . S
Zn1564 N1568 2.020 . S
Zn1564 O1572 2.019 . S
Zn1564 N1574 2.119 . S
Zn1564 O1582 1.975 . S
C1565 N1566 1.334 . S
C1565 N1569 1.336 . S
N1566 C1565 1.334 . S
N1566 C1567 1.334 . S
C1567 N1566 1.334 . S
C1567 N1568 1.336 . S
N1568 Zn1564 2.020 . S
N1568 C1567 1.336 . S
N1568 N1569 1.354 . S
N1569 C1565 1.336 . S
N1569 N1568 1.354 . S
N1569 Zn1573 2.020 . S
C1570 O1571 1.244 . S
C1570 O1594 1.257 . S
O1571 C1570 1.244 . S
O1572 Zn1564 2.019 . S
O1572 C1592 1.257 . S
Zn1573 N1569 2.020 . S
Zn1573 O1580 1.975 . S
Zn1573 N1589 2.119 . S
Zn1573 O1594 2.019 . S
N1574 Zn1564 2.119 . S
N1574 C1576 1.334 . S
N1574 C1577 1.328 . S
C1575 C1576 1.391 . S
C1575 N1578 1.329 1_554 S
C1575 H1596 0.930 . S
C1576 N1574 1.334 . S
C1576 C1575 1.391 . S
C1576 H1583 0.930 . S
C1577 N1574 1.328 . S
C1577 C1579 1.392 1_554 S
C1577 H1584 0.930 . S
N1578 C1575 1.329 1_556 S
N1578 C1579 1.331 . S
C1579 C1577 1.392 1_556 S
C1579 N1578 1.331 . S
O1580 Zn1573 1.975 . S
O1580 C1581 1.252 . S
C1581 O1580 1.252 . S
C1581 O1582 1.252 . S
O1582 Zn1564 1.975 . S
O1582 C1581 1.252 . S
H1583 C1576 0.930 . S
H1584 C1577 0.930 . S
C1585 C1586 1.392 . S
C1585 N1589 1.328 . S
C1585 H1591 0.930 . S
C1586 C1585 1.392 . S
C1586 N1590 1.331 . S
C1587 C1588 1.391 . S
C1587 N1590 1.329 . S
C1587 H1597 0.930 . S
C1588 C1587 1.391 . S
C1588 N1589 1.334 . S
C1588 H1595 0.930 . S
N1589 Zn1573 2.119 . S
N1589 C1585 1.328 . S
N1589 C1588 1.334 . S
N1590 C1586 1.331 . S
N1590 C1587 1.329 . S
H1591 C1585 0.930 . S
C1592 O1572 1.257 . S
C1592 O1593 1.244 . S
O1593 C1592 1.244 . S
O1594 C1570 1.257 . S
O1594 Zn1573 2.019 . S
H1595 C1588 0.930 . S
H1596 C1575 0.930 . S
H1597 C1587 0.930 . S
Zn1598 N1602 2.020 . S
Zn1598 O1606 2.019 . S
Zn1598 N1608 2.119 . S
Zn1598 O1616 1.975 . S
C1599 N1600 1.334 . S
C1599 N1603 1.336 . S
N1600 C1599 1.334 . S
N1600 C1601 1.334 . S
C1601 N1600 1.334 . S
C1601 N1602 1.336 . S
N1602 Zn1598 2.020 . S
N1602 C1601 1.336 . S
N1602 N1603 1.354 . S
N1603 C1599 1.336 . S
N1603 N1602 1.354 . S
N1603 Zn1607 2.020 . S
C1604 O1605 1.244 . S
C1604 O1628 1.257 . S
O1605 C1604 1.244 . S
O1606 Zn1598 2.019 . S
O1606 C1626 1.257 . S
Zn1607 N1603 2.020 . S
Zn1607 O1614 1.975 . S
Zn1607 N1623 2.119 . S
Zn1607 O1628 2.019 . S
N1608 Zn1598 2.119 . S
N1608 C1610 1.334 . S
N1608 C1611 1.328 . S
C1609 C1610 1.391 . S
C1609 N1612 1.329 1_554 S
C1609 H1630 0.930 . S
C1610 N1608 1.334 . S
C1610 C1609 1.391 . S
C1610 H1617 0.930 . S
C1611 N1608 1.328 . S
C1611 C1613 1.392 1_554 S
C1611 H1618 0.930 . S
N1612 C1609 1.329 1_556 S
N1612 C1613 1.331 . S
C1613 C1611 1.392 1_556 S
C1613 N1612 1.331 . S
O1614 Zn1607 1.975 . S
O1614 C1615 1.252 . S
C1615 O1614 1.252 . S
C1615 O1616 1.252 . S
O1616 Zn1598 1.975 . S
O1616 C1615 1.252 . S
H1617 C1610 0.930 . S
H1618 C1611 0.930 . S
C1619 C1620 1.392 . S
C1619 N1623 1.328 . S
C1619 H1625 0.930 . S
C1620 C1619 1.392 . S
C1620 N1624 1.331 . S
C1621 C1622 1.391 . S
C1621 N1624 1.329 . S
C1621 H1631 0.930 . S
C1622 C1621 1.391 . S
C1622 N1623 1.334 . S
C1622 H1629 0.930 . S
N1623 Zn1607 2.119 . S
N1623 C1619 1.328 . S
N1623 C1622 1.334 . S
N1624 C1620 1.331 . S
N1624 C1621 1.329 . S
H1625 C1619 0.930 . S
C1626 O1606 1.257 . S
C1626 O1627 1.244 . S
O1627 C1626 1.244 . S
O1628 C1604 1.257 . S
O1628 Zn1607 2.019 . S
H1629 C1622 0.930 . S
H1630 C1609 0.930 . S
H1631 C1621 0.930 . S
C1632 C1633 1.387 . S
C1632 H1636 0.950 . S
C1632 C1641 1.390 . S
C1633 C1632 1.387 . S
C1633 C1635 1.387 . S
H1634 C1641 0.950 . S
C1635 C1633 1.387 . S
C1635 C1637 1.390 . S
C1635 H1639 0.950 . S
H1636 C1632 0.950 . S
C1637 C1635 1.390 . S
C1637 C1638 1.387 . S
C1637 H1640 0.950 . S
C1638 C1637 1.387 . S
C1638 C1641 1.387 . S
H1639 C1635 0.950 . S
H1640 C1637 0.950 . S
C1641 C1632 1.390 . S
C1641 H1634 0.950 . S
C1641 C1638 1.387 . S
C1642 C1643 1.387 . S
C1642 H1646 0.950 . S
C1642 C1651 1.390 . S
C1643 C1642 1.387 . S
C1643 C1645 1.387 . S
H1644 C1651 0.950 . S
C1645 C1643 1.387 . S
C1645 C1647 1.390 . S
C1645 H1649 0.950 . S
H1646 C1642 0.950 . S
C1647 C1645 1.390 . S
C1647 C1648 1.387 . S
C1647 H1650 0.950 . S
C1648 C1647 1.387 . S
C1648 C1651 1.387 . S
H1649 C1645 0.950 . S
H1650 C1647 0.950 . S
C1651 C1642 1.390 . S
C1651 H1644 0.950 . S
C1651 C1648 1.387 . S
C1652 C1653 1.387 . S
C1652 H1656 0.950 . S
C1652 C1661 1.390 . S
C1653 C1652 1.387 . S
C1653 C1655 1.387 . S
H1654 C1661 0.950 . S
C1655 C1653 1.387 . S
C1655 C1657 1.390 . S
C1655 H1659 0.950 . S
H1656 C1652 0.950 . S
C1657 C1655 1.390 . S
C1657 C1658 1.387 . S
C1657 H1660 0.950 . S
C1658 C1657 1.387 . S
C1658 C1661 1.387 . S
H1659 C1655 0.950 . S
H1660 C1657 0.950 . S
C1661 C1652 1.390 . S
C1661 H1654 0.950 . S
C1661 C1658 1.387 . S
C1662 C1663 1.387 . S
C1662 H1666 0.950 . S
C1662 C1671 1.390 . S
C1663 C1662 1.387 . S
C1663 C1665 1.387 . S
H1664 C1671 0.950 . S
C1665 C1663 1.387 . S
C1665 C1667 1.390 . S
C1665 H1669 0.950 . S
H1666 C1662 0.950 . S
C1667 C1665 1.390 . S
C1667 C1668 1.387 . S
C1667 H1670 0.950 . S
C1668 C1667 1.387 . S
C1668 C1671 1.387 . S
H1669 C1665 0.950 . S
H1670 C1667 0.950 . S
C1671 C1662 1.390 . S
C1671 H1664 0.950 . S
C1671 C1668 1.387 . S
C1672 C1673 1.387 . S
C1672 H1676 0.950 . S
C1672 C1681 1.390 . S
C1673 C1672 1.387 . S
C1673 C1675 1.387 . S
H1674 C1681 0.950 . S
C1675 C1673 1.387 . S
C1675 C1677 1.390 . S
C1675 H1679 0.950 . S
H1676 C1672 0.950 . S
C1677 C1675 1.390 . S
C1677 C1678 1.387 . S
C1677 H1680 0.950 . S
C1678 C1677 1.387 . S
C1678 C1681 1.387 . S
H1679 C1675 0.950 . S
H1680 C1677 0.950 . S
C1681 C1672 1.390 . S
C1681 H1674 0.950 . S
C1681 C1678 1.387 . S
C1682 C1683 1.387 . S
C1682 H1686 0.950 . S
C1682 C1691 1.390 . S
C1683 C1682 1.387 . S
C1683 C1685 1.387 . S
H1684 C1691 0.950 . S
C1685 C1683 1.387 . S
C1685 C1687 1.390 . S
C1685 H1689 0.950 . S
H1686 C1682 0.950 . S
C1687 C1685 1.390 . S
C1687 C1688 1.387 . S
C1687 H1690 0.950 . S
C1688 C1687 1.387 . S
C1688 C1691 1.387 . S
H1689 C1685 0.950 . S
H1690 C1687 0.950 . S
C1691 C1682 1.390 . S
C1691 H1684 0.950 . S
C1691 C1688 1.387 . S
C1692 C1693 1.387 . S
C1692 H1696 0.950 . S
C1692 C1701 1.390 . S
C1693 C1692 1.387 . S
C1693 C1695 1.387 . S
H1694 C1701 0.950 . S
C1695 C1693 1.387 . S
C1695 C1697 1.390 . S
C1695 H1699 0.950 . S
H1696 C1692 0.950 . S
C1697 C1695 1.390 . S
C1697 C1698 1.387 . S
C1697 H1700 0.950 . S
C1698 C1697 1.387 . S
C1698 C1701 1.387 . S
H1699 C1695 0.950 . S
H1700 C1697 0.950 . S
C1701 C1692 1.390 . S
C1701 H1694 0.950 . S
C1701 C1698 1.387 . S
C1702 C1703 1.387 . S
C1702 H1706 0.950 . S
C1702 C1711 1.390 . S
C1703 C1702 1.387 . S
C1703 C1705 1.387 . S
H1704 C1711 0.950 . S
C1705 C1703 1.387 . S
C1705 C1707 1.390 . S
C1705 H1709 0.950 . S
H1706 C1702 0.950 . S
C1707 C1705 1.390 . S
C1707 C1708 1.387 . S
C1707 H1710 0.950 . S
C1708 C1707 1.387 . S
C1708 C1711 1.387 . S
H1709 C1705 0.950 . S
H1710 C1707 0.950 . S
C1711 C1702 1.390 . S
C1711 H1704 0.950 . S
C1711 C1708 1.387 . S
C1712 C1713 1.387 . S
C1712 H1716 0.950 . S
C1712 C1721 1.390 . S
C1713 C1712 1.387 . S
C1713 C1715 1.387 . S
H1714 C1721 0.950 . S
C1715 C1713 1.387 . S
C1715 C1717 1.390 . S
C1715 H1719 0.950 . S
H1716 C1712 0.950 . S
C1717 C1715 1.390 . S
C1717 C1718 1.387 . S
C1717 H1720 0.950 . S
C1718 C1717 1.387 . S
C1718 C1721 1.387 . S
H1719 C1715 0.950 . S
H1720 C1717 0.950 . S
C1721 C1712 1.390 . S
C1721 H1714 0.950 . S
C1721 C1718 1.387 . S
C1722 C1723 1.387 . S
C1722 H1726 0.950 . S
C1722 C1731 1.390 . S
C1723 C1722 1.387 . S
C1723 C1725 1.387 . S
H1724 C1731 0.950 . S
C1725 C1723 1.387 . S
C1725 C1727 1.390 . S
C1725 H1729 0.950 . S
H1726 C1722 0.950 . S
C1727 C1725 1.390 . S
C1727 C1728 1.387 . S
C1727 H1730 0.950 . S
C1728 C1727 1.387 . S
C1728 C1731 1.387 . S
H1729 C1725 0.950 . S
H1730 C1727 0.950 . S
C1731 C1722 1.390 . S
C1731 H1724 0.950 . S
C1731 C1728 1.387 . S
C1732 C1733 1.387 . S
C1732 H1736 0.950 . S
C1732 C1741 1.390 . S
C1733 C1732 1.387 . S
C1733 C1735 1.387 . S
H1734 C1741 0.950 . S
C1735 C1733 1.387 . S
C1735 C1737 1.390 . S
C1735 H1739 0.950 . S
H1736 C1732 0.950 . S
C1737 C1735 1.390 . S
C1737 C1738 1.387 . S
C1737 H1740 0.950 . S
C1738 C1737 1.387 . S
C1738 C1741 1.387 . S
H1739 C1735 0.950 . S
H1740 C1737 0.950 . S
C1741 C1732 1.390 . S
C1741 H1734 0.950 . S
C1741 C1738 1.387 . S
C1742 C1743 1.387 . S
C1742 H1746 0.950 . S
C1742 C1751 1.390 . S
C1743 C1742 1.387 . S
C1743 C1745 1.387 . S
H1744 C1751 0.950 . S
C1745 C1743 1.387 . S
C1745 C1747 1.390 . S
C1745 H1749 0.950 . S
H1746 C1742 0.950 . S
C1747 C1745 1.390 . S
C1747 C1748 1.387 . S
C1747 H1750 0.950 . S
C1748 C1747 1.387 . S
C1748 C1751 1.387 . S
H1749 C1745 0.950 . S
H1750 C1747 0.950 . S
C1751 C1742 1.390 . S
C1751 H1744 0.950 . S
C1751 C1748 1.387 . S
C1752 C1753 1.387 . S
C1752 H1756 0.950 . S
C1752 C1761 1.390 . S
C1753 C1752 1.387 . S
C1753 C1755 1.387 . S
H1754 C1761 0.950 . S
C1755 C1753 1.387 . S
C1755 C1757 1.390 . S
C1755 H1759 0.950 . S
H1756 C1752 0.950 . S
C1757 C1755 1.390 . S
C1757 C1758 1.387 . S
C1757 H1760 0.950 . S
C1758 C1757 1.387 . S
C1758 C1761 1.387 . S
H1759 C1755 0.950 . S
H1760 C1757 0.950 . S
C1761 C1752 1.390 . S
C1761 H1754 0.950 . S
C1761 C1758 1.387 . S
C1762 C1763 1.387 . S
C1762 H1766 0.950 . S
C1762 C1771 1.390 . S
C1763 C1762 1.387 . S
C1763 C1765 1.387 . S
H1764 C1771 0.950 . S
C1765 C1763 1.387 . S
C1765 C1767 1.390 . S
C1765 H1769 0.950 . S
H1766 C1762 0.950 . S
C1767 C1765 1.390 . S
C1767 C1768 1.387 . S
C1767 H1770 0.950 . S
C1768 C1767 1.387 . S
C1768 C1771 1.387 . S
H1769 C1765 0.950 . S
H1770 C1767 0.950 . S
C1771 C1762 1.390 . S
C1771 H1764 0.950 . S
C1771 C1768 1.387 . S
C1772 C1773 1.387 . S
C1772 H1776 0.950 . S
C1772 C1781 1.390 . S
C1773 C1772 1.387 . S
C1773 C1775 1.387 . S
H1774 C1781 0.950 . S
C1775 C1773 1.387 . S
C1775 C1777 1.390 . S
C1775 H1779 0.950 . S
H1776 C1772 0.950 . S
C1777 C1775 1.390 . S
C1777 C1778 1.387 . S
C1777 H1780 0.950 . S
C1778 C1777 1.387 . S
C1778 C1781 1.387 . S
H1779 C1775 0.950 . S
H1780 C1777 0.950 . S
C1781 C1772 1.390 . S
C1781 H1774 0.950 . S
C1781 C1778 1.387 . S
C1782 C1783 1.387 . S
C1782 H1786 0.950 . S
C1782 C1791 1.390 . S
C1783 C1782 1.387 . S
C1783 C1785 1.387 . S
H1784 C1791 0.950 . S
C1785 C1783 1.387 . S
C1785 C1787 1.390 . S
C1785 H1789 0.950 . S
H1786 C1782 0.950 . S
C1787 C1785 1.390 . S
C1787 C1788 1.387 . S
C1787 H1790 0.950 . S
C1788 C1787 1.387 . S
C1788 C1791 1.387 . S
H1789 C1785 0.950 . S
H1790 C1787 0.950 . S
C1791 C1782 1.390 . S
C1791 H1784 0.950 . S
C1791 C1788 1.387 . S
C1792 C1793 1.387 . S
C1792 H1796 0.950 . S
C1792 C1801 1.390 . S
C1793 C1792 1.387 . S
C1793 C1795 1.387 . S
H1794 C1801 0.950 . S
C1795 C1793 1.387 . S
C1795 C1797 1.390 . S
C1795 H1799 0.950 . S
H1796 C1792 0.950 . S
C1797 C1795 1.390 . S
C1797 C1798 1.387 . S
C1797 H1800 0.950 . S
C1798 C1797 1.387 . S
C1798 C1801 1.387 . S
H1799 C1795 0.950 . S
H1800 C1797 0.950 . S
C1801 C1792 1.390 . S
C1801 H1794 0.950 . S
C1801 C1798 1.387 . S
C1802 C1803 1.387 . S
C1802 H1806 0.950 . S
C1802 C1811 1.390 . S
C1803 C1802 1.387 . S
C1803 C1805 1.387 . S
H1804 C1811 0.950 . S
C1805 C1803 1.387 . S
C1805 C1807 1.390 . S
C1805 H1809 0.950 . S
H1806 C1802 0.950 . S
C1807 C1805 1.390 . S
C1807 C1808 1.387 . S
C1807 H1810 0.950 . S
C1808 C1807 1.387 . S
C1808 C1811 1.387 . S
H1809 C1805 0.950 . S
H1810 C1807 0.950 . S
C1811 C1802 1.390 . S
C1811 H1804 0.950 . S
C1811 C1808 1.387 . S
C1812 C1813 1.387 . S
C1812 H1816 0.950 . S
C1812 C1821 1.390 . S
C1813 C1812 1.387 . S
C1813 C1815 1.387 . S
H1814 C1821 0.950 . S
C1815 C1813 1.387 . S
C1815 C1817 1.390 . S
C1815 H1819 0.950 . S
H1816 C1812 0.950 . S
C1817 C1815 1.390 . S
C1817 C1818 1.387 . S
C1817 H1820 0.950 . S
C1818 C1817 1.387 . S
C1818 C1821 1.387 . S
H1819 C1815 0.950 . S
H1820 C1817 0.950 . S
C1821 C1812 1.390 . S
C1821 H1814 0.950 . S
C1821 C1818 1.387 . S
C1822 C1823 1.387 . S
C1822 H1826 0.950 . S
C1822 C1831 1.390 . S
C1823 C1822 1.387 . S
C1823 C1825 1.387 . S
H1824 C1831 0.950 . S
C1825 C1823 1.387 . S
C1825 C1827 1.390 . S
C1825 H1829 0.950 . S
H1826 C1822 0.950 . S
C1827 C1825 1.390 . S
C1827 C1828 1.387 . S
C1827 H1830 0.950 . S
C1828 C1827 1.387 . S
C1828 C1831 1.387 . S
H1829 C1825 0.950 . S
H1830 C1827 0.950 . S
C1831 C1822 1.390 . S
C1831 H1824 0.950 . S
C1831 C1828 1.387 . S
C1832 C1833 1.387 . S
C1832 H1836 0.950 . S
C1832 C1841 1.390 . S
C1833 C1832 1.387 . S
C1833 C1835 1.387 . S
H1834 C1841 0.950 . S
C1835 C1833 1.387 . S
C1835 C1837 1.390 . S
C1835 H1839 0.950 . S
H1836 C1832 0.950 . S
C1837 C1835 1.390 . S
C1837 C1838 1.387 . S
C1837 H1840 0.950 . S
C1838 C1837 1.387 . S
C1838 C1841 1.387 . S
H1839 C1835 0.950 . S
H1840 C1837 0.950 . S
C1841 C1832 1.390 . S
C1841 H1834 0.950 . S
C1841 C1838 1.387 . S
C1842 C1843 1.387 . S
C1842 H1846 0.950 . S
C1842 C1851 1.390 . S
C1843 C1842 1.387 . S
C1843 C1845 1.387 . S
H1844 C1851 0.950 . S
C1845 C1843 1.387 . S
C1845 C1847 1.390 . S
C1845 H1849 0.950 . S
H1846 C1842 0.950 . S
C1847 C1845 1.390 . S
C1847 C1848 1.387 . S
C1847 H1850 0.950 . S
C1848 C1847 1.387 . S
C1848 C1851 1.387 . S
H1849 C1845 0.950 . S
H1850 C1847 0.950 . S
C1851 C1842 1.390 . S
C1851 H1844 0.950 . S
C1851 C1848 1.387 . S
C1852 C1853 1.387 . S
C1852 H1856 0.950 . S
C1852 C1861 1.390 . S
C1853 C1852 1.387 . S
C1853 C1855 1.387 . S
H1854 C1861 0.950 . S
C1855 C1853 1.387 . S
C1855 C1857 1.390 . S
C1855 H1859 0.950 . S
H1856 C1852 0.950 . S
C1857 C1855 1.390 . S
C1857 C1858 1.387 . S
C1857 H1860 0.950 . S
C1858 C1857 1.387 . S
C1858 C1861 1.387 . S
H1859 C1855 0.950 . S
H1860 C1857 0.950 . S
C1861 C1852 1.390 . S
C1861 H1854 0.950 . S
C1861 C1858 1.387 . S
C1862 C1863 1.387 . S
C1862 H1866 0.950 . S
C1862 C1871 1.390 . S
C1863 C1862 1.387 . S
C1863 C1865 1.387 . S
H1864 C1871 0.950 . S
C1865 C1863 1.387 . S
C1865 C1867 1.390 . S
C1865 H1869 0.950 . S
H1866 C1862 0.950 . S
C1867 C1865 1.390 . S
C1867 C1868 1.387 . S
C1867 H1870 0.950 . S
C1868 C1867 1.387 . S
C1868 C1871 1.387 . S
H1869 C1865 0.950 . S
H1870 C1867 0.950 . S
C1871 C1862 1.390 . S
C1871 H1864 0.950 . S
C1871 C1868 1.387 . S
C1872 C1873 1.387 . S
C1872 H1876 0.950 . S
C1872 C1881 1.390 . S
C1873 C1872 1.387 . S
C1873 C1875 1.387 . S
H1874 C1881 0.950 . S
C1875 C1873 1.387 . S
C1875 C1877 1.390 . S
C1875 H1879 0.950 . S
H1876 C1872 0.950 . S
C1877 C1875 1.390 . S
C1877 C1878 1.387 . S
C1877 H1880 0.950 . S
C1878 C1877 1.387 . S
C1878 C1881 1.387 . S
H1879 C1875 0.950 . S
H1880 C1877 0.950 . S
C1881 C1872 1.390 . S
C1881 H1874 0.950 . S
C1881 C1878 1.387 . S
C1882 C1883 1.387 . S
C1882 H1886 0.950 . S
C1882 C1891 1.390 . S
C1883 C1882 1.387 . S
C1883 C1885 1.387 . S
H1884 C1891 0.950 . S
C1885 C1883 1.387 . S
C1885 C1887 1.390 . S
C1885 H1889 0.950 . S
H1886 C1882 0.950 . S
C1887 C1885 1.390 . S
C1887 C1888 1.387 . S
C1887 H1890 0.950 . S
C1888 C1887 1.387 . S
C1888 C1891 1.387 . S
H1889 C1885 0.950 . S
H1890 C1887 0.950 . S
C1891 C1882 1.390 . S
C1891 H1884 0.950 . S
C1891 C1888 1.387 . S
C1892 C1893 1.387 . S
C1892 H1896 0.950 . S
C1892 C1901 1.390 . S
C1893 C1892 1.387 . S
C1893 C1895 1.387 . S
H1894 C1901 0.950 . S
C1895 C1893 1.387 . S
C1895 C1897 1.390 . S
C1895 H1899 0.950 . S
H1896 C1892 0.950 . S
C1897 C1895 1.390 . S
C1897 C1898 1.387 . S
C1897 H1900 0.950 . S
C1898 C1897 1.387 . S
C1898 C1901 1.387 . S
H1899 C1895 0.950 . S
H1900 C1897 0.950 . S
C1901 C1892 1.390 . S
C1901 H1894 0.950 . S
C1901 C1898 1.387 . S
C1902 C1903 1.387 . S
C1902 H1906 0.950 . S
C1902 C1911 1.390 . S
C1903 C1902 1.387 . S
C1903 C1905 1.387 . S
H1904 C1911 0.950 . S
C1905 C1903 1.387 . S
C1905 C1907 1.390 . S
C1905 H1909 0.950 . S
H1906 C1902 0.950 . S
C1907 C1905 1.390 . S
C1907 C1908 1.387 . S
C1907 H1910 0.950 . S
C1908 C1907 1.387 . S
C1908 C1911 1.387 . S
H1909 C1905 0.950 . S
H1910 C1907 0.950 . S
C1911 C1902 1.390 . S
C1911 H1904 0.950 . S
C1911 C1908 1.387 . S
C1912 C1913 1.387 . S
C1912 H1916 0.950 . S
C1912 C1921 1.390 . S
C1913 C1912 1.387 . S
C1913 C1915 1.387 . S
H1914 C1921 0.950 . S
C1915 C1913 1.387 . S
C1915 C1917 1.390 . S
C1915 H1919 0.950 . S
H1916 C1912 0.950 . S
C1917 C1915 1.390 . S
C1917 C1918 1.387 . S
C1917 H1920 0.950 . S
C1918 C1917 1.387 . S
C1918 C1921 1.387 . S
H1919 C1915 0.950 . S
H1920 C1917 0.950 . S
C1921 C1912 1.390 . S
C1921 H1914 0.950 . S
C1921 C1918 1.387 . S
C1922 C1923 1.387 . S
C1922 H1926 0.950 . S
C1922 C1931 1.390 . S
C1923 C1922 1.387 . S
C1923 C1925 1.387 . S
H1924 C1931 0.950 . S
C1925 C1923 1.387 . S
C1925 C1927 1.390 . S
C1925 H1929 0.950 . S
H1926 C1922 0.950 . S
C1927 C1925 1.390 . S
C1927 C1928 1.387 . S
C1927 H1930 0.950 . S
C1928 C1927 1.387 . S
C1928 C1931 1.387 . S
H1929 C1925 0.950 . S
H1930 C1927 0.950 . S
C1931 C1922 1.390 . S
C1931 H1924 0.950 . S
C1931 C1928 1.387 . S
C1932 C1933 1.387 . S
C1932 H1936 0.950 . S
C1932 C1941 1.390 . S
C1933 C1932 1.387 . S
C1933 C1935 1.387 . S
H1934 C1941 0.950 . S
C1935 C1933 1.387 . S
C1935 C1937 1.390 . S
C1935 H1939 0.950 . S
H1936 C1932 0.950 . S
C1937 C1935 1.390 . S
C1937 C1938 1.387 . S
C1937 H1940 0.950 . S
C1938 C1937 1.387 . S
C1938 C1941 1.387 . S
H1939 C1935 0.950 . S
H1940 C1937 0.950 . S
C1941 C1932 1.390 . S
C1941 H1934 0.950 . S
C1941 C1938 1.387 . S
C1942 C1943 1.387 . S
C1942 H1946 0.950 . S
C1942 C1951 1.390 . S
C1943 C1942 1.387 . S
C1943 C1945 1.387 . S
H1944 C1951 0.950 . S
C1945 C1943 1.387 . S
C1945 C1947 1.390 . S
C1945 H1949 0.950 . S
H1946 C1942 0.950 . S
C1947 C1945 1.390 . S
C1947 C1948 1.387 . S
C1947 H1950 0.950 . S
C1948 C1947 1.387 . S
C1948 C1951 1.387 . S
H1949 C1945 0.950 . S
H1950 C1947 0.950 . S
C1951 C1942 1.390 . S
C1951 H1944 0.950 . S
C1951 C1948 1.387 . S
C1952 C1953 1.387 . S
C1952 H1956 0.950 . S
C1952 C1961 1.390 . S
C1953 C1952 1.387 . S
C1953 C1955 1.387 . S
H1954 C1961 0.950 . S
C1955 C1953 1.387 . S
C1955 C1957 1.390 . S
C1955 H1959 0.950 . S
H1956 C1952 0.950 . S
C1957 C1955 1.390 . S
C1957 C1958 1.387 . S
C1957 H1960 0.950 . S
C1958 C1957 1.387 . S
C1958 C1961 1.387 . S
H1959 C1955 0.950 . S
H1960 C1957 0.950 . S
C1961 C1952 1.390 . S
C1961 H1954 0.950 . S
C1961 C1958 1.387 . S
C1962 C1963 1.387 . S
C1962 H1966 0.950 . S
C1962 C1971 1.390 . S
C1963 C1962 1.387 . S
C1963 C1965 1.387 . S
H1964 C1971 0.950 . S
C1965 C1963 1.387 . S
C1965 C1967 1.390 . S
C1965 H1969 0.950 . S
H1966 C1962 0.950 . S
C1967 C1965 1.390 . S
C1967 C1968 1.387 . S
C1967 H1970 0.950 . S
C1968 C1967 1.387 . S
C1968 C1971 1.387 . S
H1969 C1965 0.950 . S
H1970 C1967 0.950 . S
C1971 C1962 1.390 . S
C1971 H1964 0.950 . S
C1971 C1968 1.387 . S
C1972 C1973 1.387 . S
C1972 H1976 0.950 . S
C1972 C1981 1.390 . S
C1973 C1972 1.387 . S
C1973 C1975 1.387 . S
H1974 C1981 0.950 . S
C1975 C1973 1.387 . S
C1975 C1977 1.390 . S
C1975 H1979 0.950 . S
H1976 C1972 0.950 . S
C1977 C1975 1.390 . S
C1977 C1978 1.387 . S
C1977 H1980 0.950 . S
C1978 C1977 1.387 . S
C1978 C1981 1.387 . S
H1979 C1975 0.950 . S
H1980 C1977 0.950 . S
C1981 C1972 1.390 . S
C1981 H1974 0.950 . S
C1981 C1978 1.387 . S
C1982 C1983 1.387 . S
C1982 H1986 0.950 . S
C1982 C1991 1.390 . S
C1983 C1982 1.387 . S
C1983 C1985 1.387 . S
H1984 C1991 0.950 . S
C1985 C1983 1.387 . S
C1985 C1987 1.390 . S
C1985 H1989 0.950 . S
H1986 C1982 0.950 . S
C1987 C1985 1.390 . S
C1987 C1988 1.387 . S
C1987 H1990 0.950 . S
C1988 C1987 1.387 . S
C1988 C1991 1.387 . S
H1989 C1985 0.950 . S
H1990 C1987 0.950 . S
C1991 C1982 1.390 . S
C1991 H1984 0.950 . S
C1991 C1988 1.387 . S
C1992 C1993 1.387 . S
C1992 H1996 0.950 . S
C1992 C2001 1.390 . S
C1993 C1992 1.387 . S
C1993 C1995 1.387 . S
H1994 C2001 0.950 . S
C1995 C1993 1.387 . S
C1995 C1997 1.390 . S
C1995 H1999 0.950 . S
H1996 C1992 0.950 . S
C1997 C1995 1.390 . S
C1997 C1998 1.387 . S
C1997 H2000 0.950 . S
C1998 C1997 1.387 . S
C1998 C2001 1.387 . S
H1999 C1995 0.950 . S
H2000 C1997 0.950 . S
C2001 C1992 1.390 . S
C2001 H1994 0.950 . S
C2001 C1998 1.387 . S
C2002 C2003 1.387 . S
C2002 H2006 0.950 . S
C2002 C2011 1.390 . S
C2003 C2002 1.387 . S
C2003 C2005 1.387 . S
H2004 C2011 0.950 . S
C2005 C2003 1.387 . S
C2005 C2007 1.390 . S
C2005 H2009 0.950 . S
H2006 C2002 0.950 . S
C2007 C2005 1.390 . S
C2007 C2008 1.387 . S
C2007 H2010 0.950 . S
C2008 C2007 1.387 . S
C2008 C2011 1.387 . S
H2009 C2005 0.950 . S
H2010 C2007 0.950 . S
C2011 C2002 1.390 . S
C2011 H2004 0.950 . S
C2011 C2008 1.387 . S
C2012 C2013 1.387 . S
C2012 H2016 0.950 . S
C2012 C2021 1.390 . S
C2013 C2012 1.387 . S
C2013 C2015 1.387 . S
H2014 C2021 0.950 . S
C2015 C2013 1.387 . S
C2015 C2017 1.390 . S
C2015 H2019 0.950 . S
H2016 C2012 0.950 . S
C2017 C2015 1.390 . S
C2017 C2018 1.387 . S
C2017 H2020 0.950 . S
C2018 C2017 1.387 . S
C2018 C2021 1.387 . S
H2019 C2015 0.950 . S
H2020 C2017 0.950 . S
C2021 C2012 1.390 . S
C2021 H2014 0.950 . S
C2021 C2018 1.387 . S
C2022 C2023 1.387 . S
C2022 H2026 0.950 . S
C2022 C2031 1.390 . S
C2023 C2022 1.387 . S
C2023 C2025 1.387 . S
H2024 C2031 0.950 . S
C2025 C2023 1.387 . S
C2025 C2027 1.390 . S
C2025 H2029 0.950 . S
H2026 C2022 0.950 . S
C2027 C2025 1.390 . S
C2027 C2028 1.387 . S
C2027 H2030 0.950 . S
C2028 C2027 1.387 . S
C2028 C2031 1.387 . S
H2029 C2025 0.950 . S
H2030 C2027 0.950 . S
C2031 C2022 1.390 . S
C2031 H2024 0.950 . S
C2031 C2028 1.387 . S
C2032 C2033 1.387 . S
C2032 H2036 0.950 . S
C2032 C2041 1.390 . S
C2033 C2032 1.387 . S
C2033 C2035 1.387 . S
H2034 C2041 0.950 . S
C2035 C2033 1.387 . S
C2035 C2037 1.390 . S
C2035 H2039 0.950 . S
H2036 C2032 0.950 . S
C2037 C2035 1.390 . S
C2037 C2038 1.387 . S
C2037 H2040 0.950 . S
C2038 C2037 1.387 . S
C2038 C2041 1.387 . S
H2039 C2035 0.950 . S
H2040 C2037 0.950 . S
C2041 C2032 1.390 . S
C2041 H2034 0.950 . S
C2041 C2038 1.387 . S
C2042 C2043 1.387 . S
C2042 H2046 0.950 . S
C2042 C2051 1.390 . S
C2043 C2042 1.387 . S
C2043 C2045 1.387 . S
H2044 C2051 0.950 . S
C2045 C2043 1.387 . S
C2045 C2047 1.390 . S
C2045 H2049 0.950 . S
H2046 C2042 0.950 . S
C2047 C2045 1.390 . S
C2047 C2048 1.387 . S
C2047 H2050 0.950 . S
C2048 C2047 1.387 . S
C2048 C2051 1.387 . S
H2049 C2045 0.950 . S
H2050 C2047 0.950 . S
C2051 C2042 1.390 . S
C2051 H2044 0.950 . S
C2051 C2048 1.387 . S
C2052 C2053 1.387 . S
C2052 H2056 0.950 . S
C2052 C2061 1.390 . S
C2053 C2052 1.387 . S
C2053 C2055 1.387 . S
H2054 C2061 0.950 . S
C2055 C2053 1.387 . S
C2055 C2057 1.390 . S
C2055 H2059 0.950 . S
H2056 C2052 0.950 . S
C2057 C2055 1.390 . S
C2057 C2058 1.387 . S
C2057 H2060 0.950 . S
C2058 C2057 1.387 . S
C2058 C2061 1.387 . S
H2059 C2055 0.950 . S
H2060 C2057 0.950 . S
C2061 C2052 1.390 . S
C2061 H2054 0.950 . S
C2061 C2058 1.387 . S
C2062 C2063 1.387 . S
C2062 H2066 0.950 . S
C2062 C2071 1.390 . S
C2063 C2062 1.387 . S
C2063 C2065 1.387 . S
H2064 C2071 0.950 . S
C2065 C2063 1.387 . S
C2065 C2067 1.390 . S
C2065 H2069 0.950 . S
H2066 C2062 0.950 . S
C2067 C2065 1.390 . S
C2067 C2068 1.387 . S
C2067 H2070 0.950 . S
C2068 C2067 1.387 . S
C2068 C2071 1.387 . S
H2069 C2065 0.950 . S
H2070 C2067 0.950 . S
C2071 C2062 1.390 . S
C2071 H2064 0.950 . S
C2071 C2068 1.387 . S
C2072 C2073 1.387 . S
C2072 H2076 0.950 . S
C2072 C2081 1.390 . S
C2073 C2072 1.387 . S
C2073 C2075 1.387 . S
H2074 C2081 0.950 . S
C2075 C2073 1.387 . S
C2075 C2077 1.390 . S
C2075 H2079 0.950 . S
H2076 C2072 0.950 . S
C2077 C2075 1.390 . S
C2077 C2078 1.387 . S
C2077 H2080 0.950 . S
C2078 C2077 1.387 . S
C2078 C2081 1.387 . S
H2079 C2075 0.950 . S
H2080 C2077 0.950 . S
C2081 C2072 1.390 . S
C2081 H2074 0.950 . S
C2081 C2078 1.387 . S
C2082 C2083 1.387 . S
C2082 H2086 0.950 . S
C2082 C2091 1.390 . S
C2083 C2082 1.387 . S
C2083 C2085 1.387 . S
H2084 C2091 0.950 . S
C2085 C2083 1.387 . S
C2085 C2087 1.390 . S
C2085 H2089 0.950 . S
H2086 C2082 0.950 . S
C2087 C2085 1.390 . S
C2087 C2088 1.387 . S
C2087 H2090 0.950 . S
C2088 C2087 1.387 . S
C2088 C2091 1.387 . S
H2089 C2085 0.950 . S
H2090 C2087 0.950 . S
C2091 C2082 1.390 . S
C2091 H2084 0.950 . S
C2091 C2088 1.387 . S
C2092 C2093 1.387 . S
C2092 H2096 0.950 . S
C2092 C2101 1.390 . S
C2093 C2092 1.387 . S
C2093 C2095 1.387 . S
H2094 C2101 0.950 . S
C2095 C2093 1.387 . S
C2095 C2097 1.390 . S
C2095 H2099 0.950 . S
H2096 C2092 0.950 . S
C2097 C2095 1.390 . S
C2097 C2098 1.387 . S
C2097 H2100 0.950 . S
C2098 C2097 1.387 . S
C2098 C2101 1.387 . S
H2099 C2095 0.950 . S
H2100 C2097 0.950 . S
C2101 C2092 1.390 . S
C2101 H2094 0.950 . S
C2101 C2098 1.387 . S
C2102 C2103 1.387 . S
C2102 H2106 0.950 . S
C2102 C2111 1.390 . S
C2103 C2102 1.387 . S
C2103 C2105 1.387 . S
H2104 C2111 0.950 . S
C2105 C2103 1.387 . S
C2105 C2107 1.390 . S
C2105 H2109 0.950 . S
H2106 C2102 0.950 . S
C2107 C2105 1.390 . S
C2107 C2108 1.387 . S
C2107 H2110 0.950 . S
C2108 C2107 1.387 . S
C2108 C2111 1.387 . S
H2109 C2105 0.950 . S
H2110 C2107 0.950 . S
C2111 C2102 1.390 . S
C2111 H2104 0.950 . S
C2111 C2108 1.387 . S
C2112 C2113 1.387 . S
C2112 H2116 0.950 . S
C2112 C2121 1.390 . S
C2113 C2112 1.387 . S
C2113 C2115 1.387 . S
H2114 C2121 0.950 . S
C2115 C2113 1.387 . S
C2115 C2117 1.390 . S
C2115 H2119 0.950 . S
H2116 C2112 0.950 . S
C2117 C2115 1.390 . S
C2117 C2118 1.387 . S
C2117 H2120 0.950 . S
C2118 C2117 1.387 . S
C2118 C2121 1.387 . S
H2119 C2115 0.950 . S
H2120 C2117 0.950 . S
C2121 C2112 1.390 . S
C2121 H2114 0.950 . S
C2121 C2118 1.387 . S
C2122 C2123 1.387 . S
C2122 H2126 0.950 . S
C2122 C2131 1.390 1_556 S
C2123 C2122 1.387 . S
C2123 C2125 1.387 . S
H2124 C2131 0.950 . S
C2125 C2123 1.387 . S
C2125 C2127 1.390 1_556 S
C2125 H2129 0.950 . S
H2126 C2122 0.950 . S
C2127 C2125 1.390 1_554 S
C2127 C2128 1.387 . S
C2127 H2130 0.950 . S
C2128 C2127 1.387 . S
C2128 C2131 1.387 . S
H2129 C2125 0.950 . S
H2130 C2127 0.950 . S
C2131 C2122 1.390 1_554 S
C2131 H2124 0.950 . S
C2131 C2128 1.387 . S
C2132 C2133 1.387 . S
C2132 H2136 0.950 . S
C2132 C2141 1.390 . S
C2133 C2132 1.387 . S
C2133 C2135 1.387 . S
H2134 C2141 0.950 . S
C2135 C2133 1.387 . S
C2135 C2137 1.390 . S
C2135 H2139 0.950 . S
H2136 C2132 0.950 . S
C2137 C2135 1.390 . S
C2137 C2138 1.387 . S
C2137 H2140 0.950 . S
C2138 C2137 1.387 . S
C2138 C2141 1.387 . S
H2139 C2135 0.950 . S
H2140 C2137 0.950 . S
C2141 C2132 1.390 . S
C2141 H2134 0.950 . S
C2141 C2138 1.387 . S
C2142 C2143 1.387 . S
C2142 H2146 0.950 . S
C2142 C2151 1.390 1_556 S
C2143 C2142 1.387 . S
C2143 C2145 1.387 . S
H2144 C2151 0.950 . S
C2145 C2143 1.387 . S
C2145 C2147 1.390 1_556 S
C2145 H2149 0.950 . S
H2146 C2142 0.950 . S
C2147 C2145 1.390 1_554 S
C2147 C2148 1.387 . S
C2147 H2150 0.950 . S
C2148 C2147 1.387 . S
C2148 C2151 1.387 . S
H2149 C2145 0.950 . S
H2150 C2147 0.950 . S
C2151 C2142 1.390 1_554 S
C2151 H2144 0.950 . S
C2151 C2148 1.387 . S
C2152 C2153 1.387 . S
C2152 H2156 0.950 . S
C2152 C2161 1.390 . S
C2153 C2152 1.387 . S
C2153 C2155 1.387 . S
H2154 C2161 0.950 . S
C2155 C2153 1.387 . S
C2155 C2157 1.390 . S
C2155 H2159 0.950 . S
H2156 C2152 0.950 . S
C2157 C2155 1.390 . S
C2157 C2158 1.387 . S
C2157 H2160 0.950 . S
C2158 C2157 1.387 . S
C2158 C2161 1.387 . S
H2159 C2155 0.950 . S
H2160 C2157 0.950 . S
C2161 C2152 1.390 . S
C2161 H2154 0.950 . S
C2161 C2158 1.387 . S
C2162 C2163 1.387 1_455 S
C2162 H2166 0.950 1_455 S
C2162 C2171 1.390 1_556 S
C2163 C2162 1.387 1_655 S
C2163 C2165 1.387 1_655 S
H2164 C2171 0.950 . S
C2165 C2163 1.387 1_455 S
C2165 C2167 1.390 1_556 S
C2165 H2169 0.950 1_455 S
H2166 C2162 0.950 1_655 S
C2167 C2165 1.390 1_554 S
C2167 C2168 1.387 . S
C2167 H2170 0.950 . S
C2168 C2167 1.387 . S
C2168 C2171 1.387 . S
H2169 C2165 0.950 1_655 S
H2170 C2167 0.950 . S
C2171 C2162 1.390 1_554 S
C2171 H2164 0.950 . S
C2171 C2168 1.387 . S
C2172 C2173 1.387 . S
C2172 H2176 0.950 . S
C2172 C2181 1.390 . S
C2173 C2172 1.387 . S
C2173 C2175 1.387 . S
H2174 C2181 0.950 . S
C2175 C2173 1.387 . S
C2175 C2177 1.390 . S
C2175 H2179 0.950 . S
H2176 C2172 0.950 . S
C2177 C2175 1.390 . S
C2177 C2178 1.387 . S
C2177 H2180 0.950 . S
C2178 C2177 1.387 . S
C2178 C2181 1.387 . S
H2179 C2175 0.950 . S
H2180 C2177 0.950 . S
C2181 C2172 1.390 . S
C2181 H2174 0.950 . S
C2181 C2178 1.387 . S
C2182 C2183 1.387 1_655 S
C2182 H2186 0.950 1_655 S
C2182 C2191 1.390 1_556 S
C2183 C2182 1.387 1_455 S
C2183 C2185 1.387 1_455 S
H2184 C2191 0.950 . S
C2185 C2183 1.387 1_655 S
C2185 C2187 1.390 1_556 S
C2185 H2189 0.950 1_655 S
H2186 C2182 0.950 1_455 S
C2187 C2185 1.390 1_554 S
C2187 C2188 1.387 . S
C2187 H2190 0.950 . S
C2188 C2187 1.387 . S
C2188 C2191 1.387 . S
H2189 C2185 0.950 1_455 S
H2190 C2187 0.950 . S
C2191 C2182 1.390 1_554 S
C2191 H2184 0.950 . S
C2191 C2188 1.387 . S
C2192 C2193 1.387 . S
C2192 H2196 0.950 . S
C2192 C2201 1.390 . S
C2193 C2192 1.387 . S
C2193 C2195 1.387 . S
H2194 C2201 0.950 . S
C2195 C2193 1.387 . S
C2195 C2197 1.390 . S
C2195 H2199 0.950 . S
H2196 C2192 0.950 . S
C2197 C2195 1.390 . S
C2197 C2198 1.387 . S
C2197 H2200 0.950 . S
C2198 C2197 1.387 . S
C2198 C2201 1.387 . S
H2199 C2195 0.950 . S
H2200 C2197 0.950 . S
C2201 C2192 1.390 . S
C2201 H2194 0.950 . S
C2201 C2198 1.387 . S
C2202 C2203 1.387 1_554 S
C2202 H2206 0.950 . S
C2202 C2211 1.390 . S
C2203 C2202 1.387 1_556 S
C2203 C2205 1.387 . S
H2204 C2211 0.950 . S
C2205 C2203 1.387 . S
C2205 C2207 1.390 1_556 S
C2205 H2209 0.950 . S
H2206 C2202 0.950 . S
C2207 C2205 1.390 1_554 S
C2207 C2208 1.387 . S
C2207 H2210 0.950 . S
C2208 C2207 1.387 . S
C2208 C2211 1.387 . S
H2209 C2205 0.950 . S
H2210 C2207 0.950 . S
C2211 C2202 1.390 . S
C2211 H2204 0.950 . S
C2211 C2208 1.387 . S
C2212 C2213 1.387 . S
C2212 H2216 0.950 . S
C2212 C2221 1.390 . S
C2213 C2212 1.387 . S
C2213 C2215 1.387 . S
H2214 C2221 0.950 . S
C2215 C2213 1.387 . S
C2215 C2217 1.390 . S
C2215 H2219 0.950 . S
H2216 C2212 0.950 . S
C2217 C2215 1.390 . S
C2217 C2218 1.387 . S
C2217 H2220 0.950 . S
C2218 C2217 1.387 . S
C2218 C2221 1.387 . S
H2219 C2215 0.950 . S
H2220 C2217 0.950 . S
C2221 C2212 1.390 . S
C2221 H2214 0.950 . S
C2221 C2218 1.387 . S
C2222 C2223 1.387 . S
C2222 H2226 0.950 . S
C2222 C2231 1.390 1_545 S
C2223 C2222 1.387 . S
C2223 C2225 1.387 . S
H2224 C2231 0.946 1_556 S
C2225 C2223 1.387 . S
C2225 C2227 1.390 1_544 S
C2225 H2229 0.950 . S
H2226 C2222 0.950 . S
C2227 C2225 1.390 1_566 S
C2227 C2228 1.387 . S
C2227 H2230 0.950 . S
C2228 C2227 1.387 . S
C2228 C2231 1.387 1_556 S
H2229 C2225 0.950 . S
H2230 C2227 0.950 . S
C2231 C2222 1.390 1_565 S
C2231 H2224 0.946 1_554 S
C2231 C2228 1.387 1_554 S
C2232 C2233 1.387 . S
C2232 H2236 0.950 . S
C2232 C2241 1.390 . S
C2233 C2232 1.387 . S
C2233 C2235 1.387 . S
H2234 C2241 0.950 . S
C2235 C2233 1.387 . S
C2235 C2237 1.390 . S
C2235 H2239 0.950 . S
H2236 C2232 0.950 . S
C2237 C2235 1.390 . S
C2237 C2238 1.387 . S
C2237 H2240 0.950 . S
C2238 C2237 1.387 . S
C2238 C2241 1.387 . S
H2239 C2235 0.950 . S
H2240 C2237 0.950 . S
C2241 C2232 1.390 . S
C2241 H2234 0.950 . S
C2241 C2238 1.387 . S
C2242 C2243 1.387 1_556 S
C2242 H2246 0.950 1_556 S
C2242 C2251 1.390 . S
C2243 C2242 1.387 1_554 S
C2243 C2245 1.387 1_554 S
H2244 C2251 0.950 . S
C2245 C2243 1.387 1_556 S
C2245 C2247 1.390 . S
C2245 H2249 0.950 1_556 S
H2246 C2242 0.950 1_554 S
C2247 C2245 1.390 . S
C2247 C2248 1.387 . S
C2247 H2250 0.950 . S
C2248 C2247 1.387 . S
C2248 C2251 1.387 . S
H2249 C2245 0.950 1_554 S
H2250 C2247 0.950 . S
C2251 C2242 1.390 . S
C2251 H2244 0.950 . S
C2251 C2248 1.387 . S
C2252 C2253 1.387 . S
C2252 H2256 0.950 . S
C2252 C2261 1.390 . S
C2253 C2252 1.387 . S
C2253 C2255 1.387 . S
H2254 C2261 0.950 . S
C2255 C2253 1.387 . S
C2255 C2257 1.390 . S
C2255 H2259 0.950 . S
H2256 C2252 0.950 . S
C2257 C2255 1.390 . S
C2257 C2258 1.387 . S
C2257 H2260 0.950 . S
C2258 C2257 1.387 . S
C2258 C2261 1.387 . S
H2259 C2255 0.950 . S
H2260 C2257 0.950 . S
C2261 C2252 1.390 . S
C2261 H2254 0.950 . S
C2261 C2258 1.387 . S
C2262 C2263 1.387 . S
C2262 H2266 0.950 . S
C2262 C2271 1.390 1_556 S
C2263 C2262 1.387 . S
C2263 C2265 1.387 1_545 S
H2264 C2271 0.950 . S
C2265 C2263 1.387 1_565 S
C2265 C2267 1.390 . S
C2265 H2269 0.950 . S
H2266 C2262 0.950 . S
C2267 C2265 1.390 . S
C2267 C2268 1.387 1_556 S
C2267 H2270 0.950 . S
C2268 C2267 1.387 1_554 S
C2268 C2271 1.387 1_565 S
H2269 C2265 0.950 . S
H2270 C2267 0.950 . S
C2271 C2262 1.390 1_554 S
C2271 H2264 0.950 . S
C2271 C2268 1.387 1_545 S
C2272 C2273 1.387 . S
C2272 H2276 0.950 . S
C2272 C2281 1.390 . S
C2273 C2272 1.387 . S
C2273 C2275 1.387 . S
H2274 C2281 0.950 . S
C2275 C2273 1.387 . S
C2275 C2277 1.390 . S
C2275 H2279 0.950 . S
H2276 C2272 0.950 . S
C2277 C2275 1.390 . S
C2277 C2278 1.387 . S
C2277 H2280 0.950 . S
C2278 C2277 1.387 . S
C2278 C2281 1.387 . S
H2279 C2275 0.950 . S
H2280 C2277 0.950 . S
C2281 C2272 1.390 . S
C2281 H2274 0.950 . S
C2281 C2278 1.387 . S
C2282 C2283 1.387 . S
C2282 H2286 0.950 . S
C2282 C2291 1.390 . S
C2283 C2282 1.387 . S
C2283 C2285 1.387 . S
H2284 C2291 0.950 . S
C2285 C2283 1.387 . S
C2285 C2287 1.390 . S
C2285 H2289 0.950 . S
H2286 C2282 0.950 . S
C2287 C2285 1.390 . S
C2287 C2288 1.387 . S
C2287 H2290 0.950 . S
C2288 C2287 1.387 . S
C2288 C2291 1.387 . S
H2289 C2285 0.950 . S
H2290 C2287 0.950 . S
C2291 C2282 1.390 . S
C2291 H2284 0.950 . S
C2291 C2288 1.387 . S
C2292 C2293 1.387 . S
C2292 H2296 0.950 . S
C2292 C2301 1.390 1_655 S
C2293 C2292 1.387 . S
C2293 C2295 1.387 . S
H2294 C2301 0.950 . S
C2295 C2293 1.387 . S
C2295 C2297 1.390 1_655 S
C2295 H2299 0.950 . S
H2296 C2292 0.950 . S
C2297 C2295 1.390 1_455 S
C2297 C2298 1.387 . S
C2297 H2300 0.950 . S
C2298 C2297 1.387 . S
C2298 C2301 1.387 . S
H2299 C2295 0.950 . S
H2300 C2297 0.950 . S
C2301 C2292 1.390 1_455 S
C2301 H2294 0.950 . S
C2301 C2298 1.387 . S
C2302 C2303 1.387 . S
C2302 H2306 0.950 . S
C2302 C2311 1.390 . S
C2303 C2302 1.387 . S
C2303 C2305 1.387 . S
H2304 C2311 0.950 . S
C2305 C2303 1.387 . S
C2305 C2307 1.390 . S
C2305 H2309 0.950 . S
H2306 C2302 0.950 . S
C2307 C2305 1.390 . S
C2307 C2308 1.387 . S
C2307 H2310 0.950 . S
C2308 C2307 1.387 . S
C2308 C2311 1.387 . S
H2309 C2305 0.950 . S
H2310 C2307 0.950 . S
C2311 C2302 1.390 . S
C2311 H2304 0.950 . S
C2311 C2308 1.387 . S
C2312 C2313 1.387 . S
C2312 H2316 0.950 . S
C2312 C2321 1.390 . S
C2313 C2312 1.387 . S
C2313 C2315 1.387 . S
H2314 C2321 0.950 . S
C2315 C2313 1.387 . S
C2315 C2317 1.390 . S
C2315 H2319 0.950 . S
H2316 C2312 0.950 . S
C2317 C2315 1.390 . S
C2317 C2318 1.387 . S
C2317 H2320 0.950 . S
C2318 C2317 1.387 . S
C2318 C2321 1.387 . S
H2319 C2315 0.950 . S
H2320 C2317 0.950 . S
C2321 C2312 1.390 . S
C2321 H2314 0.950 . S
C2321 C2318 1.387 . S
C2322 C2323 1.387 . S
C2322 H2326 0.950 . S
C2322 C2331 1.390 . S
C2323 C2322 1.387 . S
C2323 C2325 1.387 . S
H2324 C2331 0.950 . S
C2325 C2323 1.387 . S
C2325 C2327 1.390 . S
C2325 H2329 0.950 . S
H2326 C2322 0.950 . S
C2327 C2325 1.390 . S
C2327 C2328 1.387 . S
C2327 H2330 0.950 . S
C2328 C2327 1.387 . S
C2328 C2331 1.387 . S
H2329 C2325 0.950 . S
H2330 C2327 0.950 . S
C2331 C2322 1.390 . S
C2331 H2324 0.950 . S
C2331 C2328 1.387 . S
C2332 C2333 1.387 . S
C2332 H2336 0.950 . S
C2332 C2341 1.390 1_655 S
C2333 C2332 1.387 . S
C2333 C2335 1.387 . S
H2334 C2341 0.950 . S
C2335 C2333 1.387 . S
C2335 C2337 1.390 1_655 S
C2335 H2339 0.950 . S
H2336 C2332 0.950 . S
C2337 C2335 1.390 1_455 S
C2337 C2338 1.387 . S
C2337 H2340 0.950 . S
C2338 C2337 1.387 . S
C2338 C2341 1.387 . S
H2339 C2335 0.950 . S
H2340 C2337 0.950 . S
C2341 C2332 1.390 1_455 S
C2341 H2334 0.950 . S
C2341 C2338 1.387 . S
C2342 C2343 1.387 . S
C2342 H2346 0.950 . S
C2342 C2351 1.392 1_445 S
C2343 C2342 1.387 . S
C2343 C2345 1.387 . S
H2344 C2351 0.948 . S
C2345 C2343 1.387 . S
C2345 C2347 1.390 1_455 S
C2345 H2349 0.950 . S
H2346 C2342 0.950 . S
C2347 C2345 1.390 1_655 S
C2347 C2348 1.387 1_545 S
C2347 H2350 0.950 1_545 S
C2348 C2347 1.387 1_565 S
C2348 C2351 1.387 . S
H2349 C2345 0.950 . S
H2350 C2347 0.950 1_565 S
C2351 C2342 1.392 1_665 S
C2351 H2344 0.948 . S
C2351 C2348 1.387 . S
C2352 C2353 1.387 . S
C2352 H2356 0.950 . S
C2352 C2361 1.390 . S
C2353 C2352 1.387 . S
C2353 C2355 1.387 . S
H2354 C2361 0.950 . S
C2355 C2353 1.387 . S
C2355 C2357 1.390 . S
C2355 H2359 0.950 . S
H2356 C2352 0.950 . S
C2357 C2355 1.390 . S
C2357 C2358 1.387 . S
C2357 H2360 0.950 . S
C2358 C2357 1.387 . S
C2358 C2361 1.387 . S
H2359 C2355 0.950 . S
H2360 C2357 0.950 . S
C2361 C2352 1.390 . S
C2361 H2354 0.950 . S
C2361 C2358 1.387 . S
C2362 C2363 1.387 1_655 S
C2362 H2366 0.950 1_655 S
C2362 C2371 1.390 . S
C2363 C2362 1.387 1_455 S
C2363 C2365 1.387 1_455 S
H2364 C2371 0.950 . S
C2365 C2363 1.387 1_655 S
C2365 C2367 1.390 . S
C2365 H2369 0.950 1_655 S
H2366 C2362 0.950 1_455 S
C2367 C2365 1.390 . S
C2367 C2368 1.387 . S
C2367 H2370 0.950 . S
C2368 C2367 1.387 . S
C2368 C2371 1.387 . S
H2369 C2365 0.950 1_455 S
H2370 C2367 0.950 . S
C2371 C2362 1.390 . S
C2371 H2364 0.950 . S
C2371 C2368 1.387 . S
C2372 C2373 1.387 . S
C2372 H2376 0.950 . S
C2372 C2381 1.390 . S
C2373 C2372 1.387 . S
C2373 C2375 1.387 . S
H2374 C2381 0.950 . S
C2375 C2373 1.387 . S
C2375 C2377 1.390 . S
C2375 H2379 0.950 . S
H2376 C2372 0.950 . S
C2377 C2375 1.390 . S
C2377 C2378 1.387 . S
C2377 H2380 0.950 . S
C2378 C2377 1.387 . S
C2378 C2381 1.387 . S
H2379 C2375 0.950 . S
H2380 C2377 0.950 . S
C2381 C2372 1.390 . S
C2381 H2374 0.950 . S
C2381 C2378 1.387 . S
C2382 C2383 1.387 . S
C2382 H2386 0.950 . S
C2382 C2391 1.390 . S
C2383 C2382 1.387 . S
C2383 C2385 1.387 . S
H2384 C2391 0.950 1_655 S
C2385 C2383 1.387 . S
C2385 C2387 1.390 . S
C2385 H2389 0.950 . S
H2386 C2382 0.950 . S
C2387 C2385 1.390 . S
C2387 C2388 1.387 1_455 S
C2387 H2390 0.950 1_455 S
C2388 C2387 1.387 1_655 S
C2388 C2391 1.387 1_655 S
H2389 C2385 0.950 . S
H2390 C2387 0.950 1_655 S
C2391 C2382 1.390 . S
C2391 H2384 0.950 1_455 S
C2391 C2388 1.387 1_455 S
C2392 C2393 1.387 . S
C2392 H2396 0.950 . S
C2392 C2401 1.390 . S
C2393 C2392 1.387 . S
C2393 C2395 1.387 . S
H2394 C2401 0.950 . S
C2395 C2393 1.387 . S
C2395 C2397 1.390 . S
C2395 H2399 0.950 . S
H2396 C2392 0.950 . S
C2397 C2395 1.390 . S
C2397 C2398 1.387 . S
C2397 H2400 0.950 . S
C2398 C2397 1.387 . S
C2398 C2401 1.387 . S
H2399 C2395 0.950 . S
H2400 C2397 0.950 . S
C2401 C2392 1.390 . S
C2401 H2394 0.950 . S
C2401 C2398 1.387 . S
C2402 C2403 1.387 . S
C2402 H2406 0.950 . S
C2402 C2411 1.390 . S
C2403 C2402 1.387 . S
C2403 C2405 1.387 . S
H2404 C2411 0.950 . S
C2405 C2403 1.387 . S
C2405 C2407 1.390 . S
C2405 H2409 0.950 . S
H2406 C2402 0.950 . S
C2407 C2405 1.390 . S
C2407 C2408 1.387 . S
C2407 H2410 0.950 . S
C2408 C2407 1.387 . S
C2408 C2411 1.387 . S
H2409 C2405 0.950 . S
H2410 C2407 0.950 . S
C2411 C2402 1.390 . S
C2411 H2404 0.950 . S
C2411 C2408 1.387 . S
C2412 C2413 1.387 . S
C2412 H2416 0.950 . S
C2412 C2421 1.390 . S
C2413 C2412 1.387 . S
C2413 C2415 1.387 . S
H2414 C2421 0.950 . S
C2415 C2413 1.387 . S
C2415 C2417 1.390 . S
C2415 H2419 0.950 . S
H2416 C2412 0.950 . S
C2417 C2415 1.390 . S
C2417 C2418 1.387 . S
C2417 H2420 0.950 . S
C2418 C2417 1.387 . S
C2418 C2421 1.387 . S
H2419 C2415 0.950 . S
H2420 C2417 0.950 . S
C2421 C2412 1.390 . S
C2421 H2414 0.950 . S
C2421 C2418 1.387 . S
C2422 C2423 1.387 . S
C2422 H2426 0.950 . S
C2422 C2431 1.390 . S
C2423 C2422 1.387 . S
C2423 C2425 1.387 . S
H2424 C2431 0.950 . S
C2425 C2423 1.387 . S
C2425 C2427 1.390 . S
C2425 H2429 0.950 . S
H2426 C2422 0.950 . S
C2427 C2425 1.390 . S
C2427 C2428 1.387 . S
C2427 H2430 0.950 . S
C2428 C2427 1.387 . S
C2428 C2431 1.387 . S
H2429 C2425 0.950 . S
H2430 C2427 0.950 . S
C2431 C2422 1.390 . S
C2431 H2424 0.950 . S
C2431 C2428 1.387 . S
C2432 C2433 1.387 . S
C2432 H2436 0.950 . S
C2432 C2441 1.390 . S
C2433 C2432 1.387 . S
C2433 C2435 1.387 . S
H2434 C2441 0.950 . S
C2435 C2433 1.387 . S
C2435 C2437 1.390 . S
C2435 H2439 0.950 . S
H2436 C2432 0.950 . S
C2437 C2435 1.390 . S
C2437 C2438 1.387 . S
C2437 H2440 0.950 . S
C2438 C2437 1.387 . S
C2438 C2441 1.387 . S
H2439 C2435 0.950 . S
H2440 C2437 0.950 . S
C2441 C2432 1.390 . S
C2441 H2434 0.950 . S
C2441 C2438 1.387 . S
C2442 C2443 1.387 . S
C2442 H2446 0.950 . S
C2442 C2451 1.390 1_565 S
C2443 C2442 1.387 . S
C2443 C2445 1.387 . S
H2444 C2451 0.950 . S
C2445 C2443 1.387 . S
C2445 C2447 1.390 1_565 S
C2445 H2449 0.950 . S
H2446 C2442 0.950 . S
C2447 C2445 1.390 1_545 S
C2447 C2448 1.387 . S
C2447 H2450 0.950 . S
C2448 C2447 1.387 . S
C2448 C2451 1.387 . S
H2449 C2445 0.950 . S
H2450 C2447 0.950 . S
C2451 C2442 1.390 1_545 S
C2451 H2444 0.950 . S
C2451 C2448 1.387 . S
C2452 C2453 1.387 . S
C2452 H2456 0.950 . S
C2452 C2461 1.390 . S
C2453 C2452 1.387 . S
C2453 C2455 1.387 . S
H2454 C2461 0.950 . S
C2455 C2453 1.387 . S
C2455 C2457 1.390 . S
C2455 H2459 0.950 . S
H2456 C2452 0.950 . S
C2457 C2455 1.390 . S
C2457 C2458 1.387 . S
C2457 H2460 0.950 . S
C2458 C2457 1.387 . S
C2458 C2461 1.387 . S
H2459 C2455 0.950 . S
H2460 C2457 0.950 . S
C2461 C2452 1.390 . S
C2461 H2454 0.950 . S
C2461 C2458 1.387 . S
C2462 C2463 1.387 . S
C2462 H2466 0.950 . S
C2462 C2471 1.390 . S
C2463 C2462 1.387 . S
C2463 C2465 1.387 . S
H2464 C2471 0.950 . S
C2465 C2463 1.387 . S
C2465 C2467 1.390 . S
C2465 H2469 0.950 . S
H2466 C2462 0.950 . S
C2467 C2465 1.390 . S
C2467 C2468 1.387 . S
C2467 H2470 0.950 . S
C2468 C2467 1.387 . S
C2468 C2471 1.387 . S
H2469 C2465 0.950 . S
H2470 C2467 0.950 . S
C2471 C2462 1.390 . S
C2471 H2464 0.950 . S
C2471 C2468 1.387 . S
C2472 C2473 1.387 . S
C2472 H2476 0.950 . S
C2472 C2481 1.390 . S
C2473 C2472 1.387 . S
C2473 C2475 1.387 . S
H2474 C2481 0.950 . S
C2475 C2473 1.387 . S
C2475 C2477 1.390 . S
C2475 H2479 0.950 . S
H2476 C2472 0.950 . S
C2477 C2475 1.390 . S
C2477 C2478 1.387 . S
C2477 H2480 0.950 . S
C2478 C2477 1.387 . S
C2478 C2481 1.387 . S
H2479 C2475 0.950 . S
H2480 C2477 0.950 . S
C2481 C2472 1.390 . S
C2481 H2474 0.950 . S
C2481 C2478 1.387 . S
C2482 C2483 1.387 . S
C2482 H2486 0.950 . S
C2482 C2491 1.390 1_545 S
C2483 C2482 1.387 . S
C2483 C2485 1.387 . S
H2484 C2491 0.950 . S
C2485 C2483 1.387 . S
C2485 C2487 1.390 1_545 S
C2485 H2489 0.950 . S
H2486 C2482 0.950 . S
C2487 C2485 1.390 1_565 S
C2487 C2488 1.387 . S
C2487 H2490 0.950 . S
C2488 C2487 1.387 . S
C2488 C2491 1.387 . S
H2489 C2485 0.950 . S
H2490 C2487 0.950 . S
C2491 C2482 1.390 1_565 S
C2491 H2484 0.950 . S
C2491 C2488 1.387 . S
C2492 C2493 1.387 . S
C2492 H2496 0.950 . S
C2492 C2501 1.390 . S
C2493 C2492 1.387 . S
C2493 C2495 1.387 . S
H2494 C2501 0.950 . S
C2495 C2493 1.387 . S
C2495 C2497 1.390 . S
C2495 H2499 0.950 . S
H2496 C2492 0.950 . S
C2497 C2495 1.390 . S
C2497 C2498 1.387 . S
C2497 H2500 0.950 . S
C2498 C2497 1.387 . S
C2498 C2501 1.387 . S
H2499 C2495 0.950 . S
H2500 C2497 0.950 . S
C2501 C2492 1.390 . S
C2501 H2494 0.950 . S
C2501 C2498 1.387 . S
C2502 C2503 1.387 . S
C2502 H2506 0.950 . S
C2502 C2511 1.390 . S
C2503 C2502 1.387 . S
C2503 C2505 1.387 . S
H2504 C2511 0.950 . S
C2505 C2503 1.387 . S
C2505 C2507 1.390 . S
C2505 H2509 0.950 . S
H2506 C2502 0.950 . S
C2507 C2505 1.390 . S
C2507 C2508 1.387 . S
C2507 H2510 0.950 . S
C2508 C2507 1.387 . S
C2508 C2511 1.387 . S
H2509 C2505 0.950 . S
H2510 C2507 0.950 . S
C2511 C2502 1.390 . S
C2511 H2504 0.950 . S
C2511 C2508 1.387 . S
C2512 C2513 1.387 . S
C2512 H2516 0.950 . S
C2512 C2521 1.390 . S
C2513 C2512 1.387 . S
C2513 C2515 1.387 . S
H2514 C2521 0.950 . S
C2515 C2513 1.387 . S
C2515 C2517 1.390 . S
C2515 H2519 0.950 . S
H2516 C2512 0.950 . S
C2517 C2515 1.390 . S
C2517 C2518 1.387 . S
C2517 H2520 0.950 . S
C2518 C2517 1.387 . S
C2518 C2521 1.387 . S
H2519 C2515 0.950 . S
H2520 C2517 0.950 . S
C2521 C2512 1.390 . S
C2521 H2514 0.950 . S
C2521 C2518 1.387 . S
C2522 C2523 1.387 . S
C2522 H2526 0.950 . S
C2522 C2531 1.390 . S
C2523 C2522 1.387 . S
C2523 C2525 1.387 . S
H2524 C2531 0.950 . S
C2525 C2523 1.387 . S
C2525 C2527 1.390 . S
C2525 H2529 0.950 . S
H2526 C2522 0.950 . S
C2527 C2525 1.390 . S
C2527 C2528 1.387 . S
C2527 H2530 0.950 . S
C2528 C2527 1.387 . S
C2528 C2531 1.387 . S
H2529 C2525 0.950 . S
H2530 C2527 0.950 . S
C2531 C2522 1.390 . S
C2531 H2524 0.950 . S
C2531 C2528 1.387 . S
C2532 C2533 1.387 . S
C2532 H2536 0.950 . S
C2532 C2541 1.390 . S
C2533 C2532 1.387 . S
C2533 C2535 1.387 . S
H2534 C2541 0.950 1_565 S
C2535 C2533 1.387 . S
C2535 C2537 1.393 . S
C2535 H2539 0.950 . S
H2536 C2532 0.950 . S
C2537 C2535 1.393 . S
C2537 C2538 1.386 1_545 S
C2537 H2540 0.948 1_545 S
C2538 C2537 1.386 1_565 S
C2538 C2541 1.387 1_565 S
H2539 C2535 0.950 . S
H2540 C2537 0.948 1_565 S
C2541 C2532 1.390 . S
C2541 H2534 0.950 1_545 S
C2541 C2538 1.387 1_545 S
C2542 C2543 1.387 . S
C2542 H2546 0.950 . S
C2542 C2551 1.390 . S
C2543 C2542 1.387 . S
C2543 C2545 1.387 . S
H2544 C2551 0.950 . S
C2545 C2543 1.387 . S
C2545 C2547 1.390 . S
C2545 H2549 0.950 . S
H2546 C2542 0.950 . S
C2547 C2545 1.390 . S
C2547 C2548 1.387 . S
C2547 H2550 0.950 . S
C2548 C2547 1.387 . S
C2548 C2551 1.387 . S
H2549 C2545 0.950 . S
H2550 C2547 0.950 . S
C2551 C2542 1.390 . S
C2551 H2544 0.950 . S
C2551 C2548 1.387 . S
C2552 C2553 1.377 1_565 S
C2552 H2556 0.937 1_565 S
C2552 C2561 1.414 1_655 S
C2553 C2552 1.377 1_545 S
C2553 C2555 1.387 1_545 S
H2554 C2561 0.950 . S
C2555 C2553 1.387 1_565 S
C2555 C2557 1.390 1_655 S
C2555 H2559 0.950 1_565 S
H2556 C2552 0.937 1_545 S
C2557 C2555 1.390 1_455 S
C2557 C2558 1.387 . S
C2557 H2560 0.950 . S
C2558 C2557 1.387 . S
C2558 C2561 1.387 . S
H2559 C2555 0.950 1_545 S
H2560 C2557 0.950 . S
C2561 C2552 1.414 1_455 S
C2561 H2554 0.950 . S
C2561 C2558 1.387 . S
C2562 C2563 1.387 . S
C2562 H2566 0.950 . S
C2562 C2571 1.390 . S
C2563 C2562 1.387 . S
C2563 C2565 1.387 . S
H2564 C2571 0.950 . S
C2565 C2563 1.387 . S
C2565 C2567 1.390 . S
C2565 H2569 0.950 . S
H2566 C2562 0.950 . S
C2567 C2565 1.390 . S
C2567 C2568 1.387 . S
C2567 H2570 0.950 . S
C2568 C2567 1.387 . S
C2568 C2571 1.387 . S
H2569 C2565 0.950 . S
H2570 C2567 0.950 . S
C2571 C2562 1.390 . S
C2571 H2564 0.950 . S
C2571 C2568 1.387 . S
C2572 C2573 1.387 1_565 S
C2572 H2576 0.950 1_565 S
C2572 C2581 1.390 . S
C2573 C2572 1.387 1_545 S
C2573 C2575 1.377 1_545 S
H2574 C2581 0.950 . S
C2575 C2573 1.377 1_565 S
C2575 C2577 1.415 . S
C2575 H2579 0.937 1_565 S
H2576 C2572 0.950 1_545 S
C2577 C2575 1.415 . S
C2577 C2578 1.387 . S
C2577 H2580 0.950 . S
C2578 C2577 1.387 . S
C2578 C2581 1.387 . S
H2579 C2575 0.937 1_545 S
H2580 C2577 0.950 . S
C2581 C2572 1.390 . S
C2581 H2574 0.950 . S
C2581 C2578 1.387 . S
C2582 C2583 1.387 . S
C2582 H2586 0.950 . S
C2582 C2591 1.390 . S
C2583 C2582 1.387 . S
C2583 C2585 1.387 . S
H2584 C2591 0.950 . S
C2585 C2583 1.387 . S
C2585 C2587 1.390 . S
C2585 H2589 0.950 . S
H2586 C2582 0.950 . S
C2587 C2585 1.390 . S
C2587 C2588 1.387 . S
C2587 H2590 0.950 . S
C2588 C2587 1.387 . S
C2588 C2591 1.387 . S
H2589 C2585 0.950 . S
H2590 C2587 0.950 . S
C2591 C2582 1.390 . S
C2591 H2584 0.950 . S
C2591 C2588 1.387 . S
C2592 C2593 1.387 . S
C2592 H2596 0.950 . S
C2592 C2601 1.390 . S
C2593 C2592 1.387 . S
C2593 C2595 1.387 . S
H2594 C2601 0.950 . S
C2595 C2593 1.387 . S
C2595 C2597 1.390 . S
C2595 H2599 0.950 1_554 S
H2596 C2592 0.950 . S
C2597 C2595 1.390 . S
C2597 C2598 1.387 . S
C2597 H2600 0.950 . S
C2598 C2597 1.387 . S
C2598 C2601 1.387 . S
H2599 C2595 0.950 1_556 S
H2600 C2597 0.950 . S
C2601 C2592 1.390 . S
C2601 H2594 0.950 . S
C2601 C2598 1.387 . S
C2602 C2603 1.387 . S
C2602 H2606 0.950 . S
C2602 C2611 1.390 . S
C2603 C2602 1.387 . S
C2603 C2605 1.387 . S
H2604 C2611 0.950 . S
C2605 C2603 1.387 . S
C2605 C2607 1.390 . S
C2605 H2609 0.950 . S
H2606 C2602 0.950 . S
C2607 C2605 1.390 . S
C2607 C2608 1.387 . S
C2607 H2610 0.950 . S
C2608 C2607 1.387 . S
C2608 C2611 1.387 . S
H2609 C2605 0.950 . S
H2610 C2607 0.950 . S
C2611 C2602 1.390 . S
C2611 H2604 0.950 . S
C2611 C2608 1.387 . S
C2612 C2613 1.387 . S
C2612 H2616 0.950 . S
C2612 C2621 1.390 . S
C2613 C2612 1.387 . S
C2613 C2615 1.387 . S
H2614 C2621 0.950 . S
C2615 C2613 1.387 . S
C2615 C2617 1.390 . S
C2615 H2619 0.950 . S
H2616 C2612 0.950 . S
C2617 C2615 1.390 . S
C2617 C2618 1.387 . S
C2617 H2620 0.950 1_554 S
C2618 C2617 1.387 . S
C2618 C2621 1.387 . S
H2619 C2615 0.950 . S
H2620 C2617 0.950 1_556 S
C2621 C2612 1.390 . S
C2621 H2614 0.950 . S
C2621 C2618 1.387 . S
C2622 C2623 1.387 . S
C2622 H2626 0.950 . S
C2622 C2631 1.390 . S
C2623 C2622 1.387 . S
C2623 C2625 1.387 . S
H2624 C2631 0.950 . S
C2625 C2623 1.387 . S
C2625 C2627 1.390 . S
C2625 H2629 0.950 . S
H2626 C2622 0.950 . S
C2627 C2625 1.390 . S
C2627 C2628 1.387 . S
C2627 H2630 0.950 . S
C2628 C2627 1.387 . S
C2628 C2631 1.387 . S
H2629 C2625 0.950 . S
H2630 C2627 0.950 . S
C2631 C2622 1.390 . S
C2631 H2624 0.950 . S
C2631 C2628 1.387 . S
C2632 C2633 1.387 . S
C2632 H2636 0.950 . S
C2632 C2641 1.390 . S
C2633 C2632 1.387 . S
C2633 C2635 1.387 . S
H2634 C2641 0.950 . S
C2635 C2633 1.387 . S
C2635 C2637 1.390 . S
C2635 H2639 0.950 . S
H2636 C2632 0.950 . S
C2637 C2635 1.390 . S
C2637 C2638 1.387 . S
C2637 H2640 0.950 . S
C2638 C2637 1.387 . S
C2638 C2641 1.387 . S
H2639 C2635 0.950 . S
H2640 C2637 0.950 . S
C2641 C2632 1.390 . S
C2641 H2634 0.950 . S
C2641 C2638 1.387 . S
C2642 C2643 1.387 . S
C2642 H2646 0.950 . S
C2642 C2651 1.390 . S
C2643 C2642 1.387 . S
C2643 C2645 1.387 . S
H2644 C2651 0.950 . S
C2645 C2643 1.387 . S
C2645 C2647 1.390 . S
C2645 H2649 0.950 . S
H2646 C2642 0.950 . S
C2647 C2645 1.390 . S
C2647 C2648 1.387 . S
C2647 H2650 0.950 . S
C2648 C2647 1.387 . S
C2648 C2651 1.387 . S
H2649 C2645 0.950 . S
H2650 C2647 0.950 . S
C2651 C2642 1.390 . S
C2651 H2644 0.950 . S
C2651 C2648 1.387 . S
C2652 C2653 1.387 . S
C2652 H2656 0.950 . S
C2652 C2661 1.390 . S
C2653 C2652 1.387 . S
C2653 C2655 1.387 . S
H2654 C2661 0.950 . S
C2655 C2653 1.387 . S
C2655 C2657 1.390 . S
C2655 H2659 0.950 . S
H2656 C2652 0.950 . S
C2657 C2655 1.390 . S
C2657 C2658 1.387 . S
C2657 H2660 0.950 . S
C2658 C2657 1.387 . S
C2658 C2661 1.387 . S
H2659 C2655 0.950 . S
H2660 C2657 0.950 . S
C2661 C2652 1.390 . S
C2661 H2654 0.950 . S
C2661 C2658 1.387 . S
C2662 C2663 1.387 . S
C2662 H2666 0.950 . S
C2662 C2671 1.390 . S
C2663 C2662 1.387 . S
C2663 C2665 1.387 . S
H2664 C2671 0.950 . S
C2665 C2663 1.387 . S
C2665 C2667 1.390 . S
C2665 H2669 0.950 . S
H2666 C2662 0.950 . S
C2667 C2665 1.390 . S
C2667 C2668 1.387 . S
C2667 H2670 0.950 . S
C2668 C2667 1.387 . S
C2668 C2671 1.387 . S
H2669 C2665 0.950 . S
H2670 C2667 0.950 . S
C2671 C2662 1.390 . S
C2671 H2664 0.950 . S
C2671 C2668 1.387 . S
C2672 C2673 1.387 . S
C2672 H2676 0.950 . S
C2672 C2681 1.390 . S
C2673 C2672 1.387 . S
C2673 C2675 1.387 . S
H2674 C2681 0.950 . S
C2675 C2673 1.387 . S
C2675 C2677 1.390 . S
C2675 H2679 0.950 . S
H2676 C2672 0.950 . S
C2677 C2675 1.390 . S
C2677 C2678 1.387 . S
C2677 H2680 0.950 . S
C2678 C2677 1.387 . S
C2678 C2681 1.387 . S
H2679 C2675 0.950 . S
H2680 C2677 0.950 . S
C2681 C2672 1.390 . S
C2681 H2674 0.950 . S
C2681 C2678 1.387 . S
C2682 C2683 1.387 . S
C2682 H2686 0.950 . S
C2682 C2691 1.390 . S
C2683 C2682 1.387 . S
C2683 C2685 1.387 . S
H2684 C2691 0.950 . S
C2685 C2683 1.387 . S
C2685 C2687 1.390 . S
C2685 H2689 0.950 . S
H2686 C2682 0.950 . S
C2687 C2685 1.390 . S
C2687 C2688 1.387 . S
C2687 H2690 0.950 . S
C2688 C2687 1.387 . S
C2688 C2691 1.387 . S
H2689 C2685 0.950 . S
H2690 C2687 0.950 . S
C2691 C2682 1.390 . S
C2691 H2684 0.950 . S
C2691 C2688 1.387 . S
C2692 C2693 1.387 . S
C2692 H2696 0.950 . S
C2692 C2701 1.390 . S
C2693 C2692 1.387 . S
C2693 C2695 1.387 . S
H2694 C2701 0.950 . S
C2695 C2693 1.387 . S
C2695 C2697 1.390 . S
C2695 H2699 0.950 . S
H2696 C2692 0.950 . S
C2697 C2695 1.390 . S
C2697 C2698 1.387 . S
C2697 H2700 0.950 . S
C2698 C2697 1.387 . S
C2698 C2701 1.387 . S
H2699 C2695 0.950 . S
H2700 C2697 0.950 . S
C2701 C2692 1.390 . S
C2701 H2694 0.950 . S
C2701 C2698 1.387 . S
C2702 C2703 1.387 . S
C2702 H2706 0.950 . S
C2702 C2711 1.390 . S
C2703 C2702 1.387 . S
C2703 C2705 1.387 . S
H2704 C2711 0.950 . S
C2705 C2703 1.387 . S
C2705 C2707 1.390 . S
C2705 H2709 0.950 . S
H2706 C2702 0.950 . S
C2707 C2705 1.390 . S
C2707 C2708 1.387 . S
C2707 H2710 0.950 . S
C2708 C2707 1.387 . S
C2708 C2711 1.387 . S
H2709 C2705 0.950 . S
H2710 C2707 0.950 . S
C2711 C2702 1.390 . S
C2711 H2704 0.950 . S
C2711 C2708 1.387 . S
C2712 C2713 1.387 . S
C2712 H2716 0.950 . S
C2712 C2721 1.390 . S
C2713 C2712 1.387 . S
C2713 C2715 1.387 . S
H2714 C2721 0.950 . S
C2715 C2713 1.387 . S
C2715 C2717 1.390 . S
C2715 H2719 0.950 . S
H2716 C2712 0.950 . S
C2717 C2715 1.390 . S
C2717 C2718 1.387 . S
C2717 H2720 0.950 . S
C2718 C2717 1.387 . S
C2718 C2721 1.387 . S
H2719 C2715 0.950 . S
H2720 C2717 0.950 . S
C2721 C2712 1.390 . S
C2721 H2714 0.950 . S
C2721 C2718 1.387 . S
C2722 C2723 1.387 . S
C2722 H2726 0.950 . S
C2722 C2731 1.390 . S
C2723 C2722 1.387 . S
C2723 C2725 1.387 . S
H2724 C2731 0.950 . S
C2725 C2723 1.387 . S
C2725 C2727 1.390 . S
C2725 H2729 0.950 . S
H2726 C2722 0.950 . S
C2727 C2725 1.390 . S
C2727 C2728 1.387 . S
C2727 H2730 0.950 . S
C2728 C2727 1.387 . S
C2728 C2731 1.387 . S
H2729 C2725 0.950 . S
H2730 C2727 0.950 . S
C2731 C2722 1.390 . S
C2731 H2724 0.950 . S
C2731 C2728 1.387 . S
C2732 C2733 1.387 . S
C2732 H2736 0.950 . S
C2732 C2741 1.390 . S
C2733 C2732 1.387 . S
C2733 C2735 1.387 . S
H2734 C2741 0.950 . S
C2735 C2733 1.387 . S
C2735 C2737 1.390 . S
C2735 H2739 0.950 . S
H2736 C2732 0.950 . S
C2737 C2735 1.390 . S
C2737 C2738 1.387 . S
C2737 H2740 0.950 . S
C2738 C2737 1.387 . S
C2738 C2741 1.387 . S
H2739 C2735 0.950 . S
H2740 C2737 0.950 . S
C2741 C2732 1.390 . S
C2741 H2734 0.950 . S
C2741 C2738 1.387 . S
C2742 C2743 1.387 . S
C2742 H2746 0.950 . S
C2742 C2751 1.390 . S
C2743 C2742 1.387 . S
C2743 C2745 1.387 . S
H2744 C2751 0.950 . S
C2745 C2743 1.387 . S
C2745 C2747 1.390 . S
C2745 H2749 0.950 . S
H2746 C2742 0.950 . S
C2747 C2745 1.390 . S
C2747 C2748 1.387 . S
C2747 H2750 0.950 . S
C2748 C2747 1.387 . S
C2748 C2751 1.387 . S
H2749 C2745 0.950 . S
H2750 C2747 0.950 . S
C2751 C2742 1.390 . S
C2751 H2744 0.950 . S
C2751 C2748 1.387 . S
C2752 C2753 1.387 . S
C2752 H2756 0.950 1_545 S
C2752 C2761 1.390 . S
C2753 C2752 1.387 . S
C2753 C2755 1.387 . S
H2754 C2761 0.950 . S
C2755 C2753 1.387 . S
C2755 C2757 1.390 . S
C2755 H2759 0.950 . S
H2756 C2752 0.950 1_565 S
C2757 C2755 1.390 . S
C2757 C2758 1.387 . S
C2757 H2760 0.950 . S
C2758 C2757 1.387 . S
C2758 C2761 1.387 . S
H2759 C2755 0.950 . S
H2760 C2757 0.950 . S
C2761 C2752 1.390 . S
C2761 H2754 0.950 . S
C2761 C2758 1.387 . S
C2762 C2763 1.387 . S
C2762 H2766 0.950 1_565 S
C2762 C2771 1.390 . S
C2763 C2762 1.387 . S
C2763 C2765 1.387 . S
H2764 C2771 0.950 . S
C2765 C2763 1.387 . S
C2765 C2767 1.390 . S
C2765 H2769 0.950 . S
H2766 C2762 0.950 1_545 S
C2767 C2765 1.390 . S
C2767 C2768 1.387 . S
C2767 H2770 0.950 . S
C2768 C2767 1.387 . S
C2768 C2771 1.387 . S
H2769 C2765 0.950 . S
H2770 C2767 0.950 . S
C2771 C2762 1.390 . S
C2771 H2764 0.950 . S
C2771 C2768 1.387 . S
C2772 C2773 1.387 . S
C2772 H2776 0.950 . S
C2772 C2781 1.390 . S
C2773 C2772 1.387 . S
C2773 C2775 1.387 . S
H2774 C2781 0.950 . S
C2775 C2773 1.387 . S
C2775 C2777 1.390 . S
C2775 H2779 0.950 . S
H2776 C2772 0.950 . S
C2777 C2775 1.390 . S
C2777 C2778 1.387 . S
C2777 H2780 0.950 . S
C2778 C2777 1.387 . S
C2778 C2781 1.387 . S
H2779 C2775 0.950 . S
H2780 C2777 0.950 . S
C2781 C2772 1.390 . S
C2781 H2774 0.950 . S
C2781 C2778 1.387 . S
C2782 C2783 1.387 . S
C2782 H2786 0.950 . S
C2782 C2791 1.390 . S
C2783 C2782 1.387 . S
C2783 C2785 1.387 . S
H2784 C2791 0.950 . S
C2785 C2783 1.387 . S
C2785 C2787 1.390 . S
C2785 H2789 0.950 . S
H2786 C2782 0.950 . S
C2787 C2785 1.390 . S
C2787 C2788 1.387 . S
C2787 H2790 0.950 . S
C2788 C2787 1.387 . S
C2788 C2791 1.387 . S
H2789 C2785 0.950 . S
H2790 C2787 0.950 . S
C2791 C2782 1.390 . S
C2791 H2784 0.950 . S
C2791 C2788 1.387 . S
C2792 C2793 1.387 . S
C2792 H2796 0.950 . S
C2792 C2801 1.390 . S
C2793 C2792 1.387 . S
C2793 C2795 1.387 . S
H2794 C2801 0.950 . S
C2795 C2793 1.387 . S
C2795 C2797 1.390 . S
C2795 H2799 0.950 . S
H2796 C2792 0.950 . S
C2797 C2795 1.390 . S
C2797 C2798 1.387 . S
C2797 H2800 0.950 . S
C2798 C2797 1.387 . S
C2798 C2801 1.387 . S
H2799 C2795 0.950 . S
H2800 C2797 0.950 . S
C2801 C2792 1.390 . S
C2801 H2794 0.950 . S
C2801 C2798 1.387 . S
C2802 C2803 1.387 . S
C2802 H2806 0.950 . S
C2802 C2811 1.390 . S
C2803 C2802 1.387 . S
C2803 C2805 1.387 . S
H2804 C2811 0.950 . S
C2805 C2803 1.387 . S
C2805 C2807 1.390 . S
C2805 H2809 0.950 . S
H2806 C2802 0.950 . S
C2807 C2805 1.390 . S
C2807 C2808 1.387 . S
C2807 H2810 0.950 . S
C2808 C2807 1.387 . S
C2808 C2811 1.387 . S
H2809 C2805 0.950 . S
H2810 C2807 0.950 . S
C2811 C2802 1.390 . S
C2811 H2804 0.950 . S
C2811 C2808 1.387 . S
C2812 C2813 1.387 . S
C2812 H2816 0.950 . S
C2812 C2821 1.390 . S
C2813 C2812 1.387 . S
C2813 C2815 1.387 . S
H2814 C2821 0.950 . S
C2815 C2813 1.387 . S
C2815 C2817 1.390 . S
C2815 H2819 0.950 . S
H2816 C2812 0.950 . S
C2817 C2815 1.390 . S
C2817 C2818 1.387 . S
C2817 H2820 0.950 . S
C2818 C2817 1.387 . S
C2818 C2821 1.387 . S
H2819 C2815 0.950 . S
H2820 C2817 0.950 . S
C2821 C2812 1.390 . S
C2821 H2814 0.950 . S
C2821 C2818 1.387 . S
C2822 C2823 1.387 . S
C2822 H2826 0.950 . S
C2822 C2831 1.390 . S
C2823 C2822 1.387 . S
C2823 C2825 1.387 . S
H2824 C2831 0.950 . S
C2825 C2823 1.387 . S
C2825 C2827 1.390 . S
C2825 H2829 0.950 . S
H2826 C2822 0.950 . S
C2827 C2825 1.390 . S
C2827 C2828 1.387 . S
C2827 H2830 0.950 . S
C2828 C2827 1.387 . S
C2828 C2831 1.387 . S
H2829 C2825 0.950 . S
H2830 C2827 0.950 . S
C2831 C2822 1.390 . S
C2831 H2824 0.950 . S
C2831 C2828 1.387 . S
C2832 C2833 1.387 . S
C2832 H2836 0.950 . S
C2832 C2841 1.390 . S
C2833 C2832 1.387 . S
C2833 C2835 1.387 . S
H2834 C2841 0.950 . S
C2835 C2833 1.387 . S
C2835 C2837 1.390 . S
C2835 H2839 0.950 . S
H2836 C2832 0.950 . S
C2837 C2835 1.390 . S
C2837 C2838 1.387 . S
C2837 H2840 0.950 . S
C2838 C2837 1.387 . S
C2838 C2841 1.387 . S
H2839 C2835 0.950 . S
H2840 C2837 0.950 . S
C2841 C2832 1.390 . S
C2841 H2834 0.950 . S
C2841 C2838 1.387 . S
C2842 C2843 1.387 . S
C2842 H2846 0.950 . S
C2842 C2851 1.390 . S
C2843 C2842 1.387 . S
C2843 C2845 1.387 . S
H2844 C2851 0.950 . S
C2845 C2843 1.387 . S
C2845 C2847 1.390 . S
C2845 H2849 0.950 . S
H2846 C2842 0.950 . S
C2847 C2845 1.390 . S
C2847 C2848 1.387 . S
C2847 H2850 0.950 . S
C2848 C2847 1.387 . S
C2848 C2851 1.387 . S
H2849 C2845 0.950 . S
H2850 C2847 0.950 . S
C2851 C2842 1.390 . S
C2851 H2844 0.950 . S
C2851 C2848 1.387 . S
C2852 C2853 1.387 . S
C2852 H2856 0.950 . S
C2852 C2861 1.390 . S
C2853 C2852 1.387 . S
C2853 C2855 1.387 . S
H2854 C2861 0.950 . S
C2855 C2853 1.387 . S
C2855 C2857 1.390 . S
C2855 H2859 0.950 . S
H2856 C2852 0.950 . S
C2857 C2855 1.390 . S
C2857 C2858 1.387 . S
C2857 H2860 0.950 . S
C2858 C2857 1.387 . S
C2858 C2861 1.387 . S
H2859 C2855 0.950 . S
H2860 C2857 0.950 . S
C2861 C2852 1.390 . S
C2861 H2854 0.950 . S
C2861 C2858 1.387 . S
C2862 C2863 1.387 . S
C2862 H2866 0.950 . S
C2862 C2871 1.390 . S
C2863 C2862 1.387 . S
C2863 C2865 1.387 . S
H2864 C2871 0.950 . S
C2865 C2863 1.387 . S
C2865 C2867 1.390 . S
C2865 H2869 0.950 . S
H2866 C2862 0.950 . S
C2867 C2865 1.390 . S
C2867 C2868 1.387 . S
C2867 H2870 0.950 . S
C2868 C2867 1.387 . S
C2868 C2871 1.387 . S
H2869 C2865 0.950 . S
H2870 C2867 0.950 . S
C2871 C2862 1.390 . S
C2871 H2864 0.950 . S
C2871 C2868 1.387 . S
C2872 C2873 1.387 . S
C2872 H2876 0.950 . S
C2872 C2881 1.390 . S
C2873 C2872 1.387 . S
C2873 C2875 1.387 . S
H2874 C2881 0.950 . S
C2875 C2873 1.387 . S
C2875 C2877 1.390 . S
C2875 H2879 0.950 . S
H2876 C2872 0.950 . S
C2877 C2875 1.390 . S
C2877 C2878 1.387 . S
C2877 H2880 0.950 . S
C2878 C2877 1.387 . S
C2878 C2881 1.387 . S
H2879 C2875 0.950 . S
H2880 C2877 0.950 . S
C2881 C2872 1.390 . S
C2881 H2874 0.950 . S
C2881 C2878 1.387 . S
C2882 C2883 1.387 . S
C2882 H2886 0.950 . S
C2882 C2891 1.390 . S
C2883 C2882 1.387 . S
C2883 C2885 1.387 . S
H2884 C2891 0.950 . S
C2885 C2883 1.387 . S
C2885 C2887 1.390 . S
C2885 H2889 0.950 . S
H2886 C2882 0.950 . S
C2887 C2885 1.390 . S
C2887 C2888 1.387 . S
C2887 H2890 0.950 . S
C2888 C2887 1.387 . S
C2888 C2891 1.387 . S
H2889 C2885 0.950 . S
H2890 C2887 0.950 . S
C2891 C2882 1.390 . S
C2891 H2884 0.950 . S
C2891 C2888 1.387 . S
C2892 C2893 1.387 . S
C2892 H2896 0.950 . S
C2892 C2901 1.390 . S
C2893 C2892 1.387 . S
C2893 C2895 1.387 . S
H2894 C2901 0.950 . S
C2895 C2893 1.387 . S
C2895 C2897 1.390 . S
C2895 H2899 0.950 . S
H2896 C2892 0.950 . S
C2897 C2895 1.390 . S
C2897 C2898 1.387 . S
C2897 H2900 0.950 . S
C2898 C2897 1.387 . S
C2898 C2901 1.387 . S
H2899 C2895 0.950 . S
H2900 C2897 0.950 . S
C2901 C2892 1.390 . S
C2901 H2894 0.950 . S
C2901 C2898 1.387 . S
C2902 C2903 1.387 . S
C2902 H2906 0.950 . S
C2902 C2911 1.390 . S
C2903 C2902 1.387 . S
C2903 C2905 1.387 . S
H2904 C2911 0.950 . S
C2905 C2903 1.387 . S
C2905 C2907 1.390 . S
C2905 H2909 0.950 . S
H2906 C2902 0.950 . S
C2907 C2905 1.390 . S
C2907 C2908 1.387 . S
C2907 H2910 0.950 . S
C2908 C2907 1.387 . S
C2908 C2911 1.387 . S
H2909 C2905 0.950 . S
H2910 C2907 0.950 . S
C2911 C2902 1.390 . S
C2911 H2904 0.950 . S
C2911 C2908 1.387 . S
C2912 C2913 1.387 . S
C2912 H2916 0.950 . S
C2912 C2921 1.390 . S
C2913 C2912 1.387 . S
C2913 C2915 1.387 . S
H2914 C2921 0.950 . S
C2915 C2913 1.387 . S
C2915 C2917 1.390 . S
C2915 H2919 0.950 . S
H2916 C2912 0.950 . S
C2917 C2915 1.390 . S
C2917 C2918 1.387 . S
C2917 H2920 0.950 . S
C2918 C2917 1.387 . S
C2918 C2921 1.387 . S
H2919 C2915 0.950 . S
H2920 C2917 0.950 . S
C2921 C2912 1.390 . S
C2921 H2914 0.950 . S
C2921 C2918 1.387 . S
C2922 C2923 1.387 . S
C2922 H2926 0.950 . S
C2922 C2931 1.390 . S
C2923 C2922 1.387 . S
C2923 C2925 1.387 . S
H2924 C2931 0.950 . S
C2925 C2923 1.387 . S
C2925 C2927 1.390 . S
C2925 H2929 0.950 . S
H2926 C2922 0.950 . S
C2927 C2925 1.390 . S
C2927 C2928 1.387 . S
C2927 H2930 0.950 . S
C2928 C2927 1.387 . S
C2928 C2931 1.387 . S
H2929 C2925 0.950 . S
H2930 C2927 0.950 . S
C2931 C2922 1.390 . S
C2931 H2924 0.950 . S
C2931 C2928 1.387 . S
C2932 C2933 1.387 . S
C2932 H2936 0.950 . S
C2932 C2941 1.390 . S
C2933 C2932 1.387 . S
C2933 C2935 1.387 . S
H2934 C2941 0.950 . S
C2935 C2933 1.387 . S
C2935 C2937 1.390 . S
C2935 H2939 0.950 . S
H2936 C2932 0.950 . S
C2937 C2935 1.390 . S
C2937 C2938 1.387 . S
C2937 H2940 0.950 . S
C2938 C2937 1.387 . S
C2938 C2941 1.387 . S
H2939 C2935 0.950 . S
H2940 C2937 0.950 . S
C2941 C2932 1.390 . S
C2941 H2934 0.950 . S
C2941 C2938 1.387 . S
C2942 C2943 1.387 . S
C2942 H2946 0.950 . S
C2942 C2951 1.390 . S
C2943 C2942 1.387 . S
C2943 C2945 1.387 . S
H2944 C2951 0.950 . S
C2945 C2943 1.387 . S
C2945 C2947 1.390 . S
C2945 H2949 0.950 . S
H2946 C2942 0.950 . S
C2947 C2945 1.390 . S
C2947 C2948 1.387 . S
C2947 H2950 0.950 . S
C2948 C2947 1.387 . S
C2948 C2951 1.387 . S
H2949 C2945 0.950 . S
H2950 C2947 0.950 . S
C2951 C2942 1.390 . S
C2951 H2944 0.950 . S
C2951 C2948 1.387 . S
C2952 C2953 1.387 . S
C2952 H2956 0.950 . S
C2952 C2961 1.390 . S
C2953 C2952 1.387 . S
C2953 C2955 1.387 . S
H2954 C2961 0.950 . S
C2955 C2953 1.387 . S
C2955 C2957 1.390 . S
C2955 H2959 0.950 . S
H2956 C2952 0.950 . S
C2957 C2955 1.390 . S
C2957 C2958 1.387 . S
C2957 H2960 0.950 . S
C2958 C2957 1.387 . S
C2958 C2961 1.387 . S
H2959 C2955 0.950 . S
H2960 C2957 0.950 . S
C2961 C2952 1.390 . S
C2961 H2954 0.950 . S
C2961 C2958 1.387 . S
C2962 C2963 1.387 . S
C2962 H2966 0.950 . S
C2962 C2971 1.390 . S
C2963 C2962 1.387 . S
C2963 C2965 1.387 . S
H2964 C2971 0.950 . S
C2965 C2963 1.387 . S
C2965 C2967 1.390 . S
C2965 H2969 0.950 . S
H2966 C2962 0.950 . S
C2967 C2965 1.390 . S
C2967 C2968 1.387 . S
C2967 H2970 0.950 . S
C2968 C2967 1.387 . S
C2968 C2971 1.387 . S
H2969 C2965 0.950 . S
H2970 C2967 0.950 . S
C2971 C2962 1.390 . S
C2971 H2964 0.950 . S
C2971 C2968 1.387 . S
C2972 C2973 1.387 . S
C2972 H2976 0.950 . S
C2972 C2981 1.390 . S
C2973 C2972 1.387 . S
C2973 C2975 1.387 . S
H2974 C2981 0.950 . S
C2975 C2973 1.387 . S
C2975 C2977 1.390 . S
C2975 H2979 0.950 . S
H2976 C2972 0.950 . S
C2977 C2975 1.390 . S
C2977 C2978 1.387 . S
C2977 H2980 0.950 . S
C2978 C2977 1.387 . S
C2978 C2981 1.387 . S
H2979 C2975 0.950 . S
H2980 C2977 0.950 . S
C2981 C2972 1.390 . S
C2981 H2974 0.950 . S
C2981 C2978 1.387 . S
C2982 C2983 1.387 . S
C2982 H2986 0.950 . S
C2982 C2991 1.390 . S
C2983 C2982 1.387 . S
C2983 C2985 1.387 . S
H2984 C2991 0.950 . S
C2985 C2983 1.387 . S
C2985 C2987 1.390 . S
C2985 H2989 0.950 . S
H2986 C2982 0.950 . S
C2987 C2985 1.390 . S
C2987 C2988 1.387 . S
C2987 H2990 0.950 . S
C2988 C2987 1.387 . S
C2988 C2991 1.387 . S
H2989 C2985 0.950 . S
H2990 C2987 0.950 . S
C2991 C2982 1.390 . S
C2991 H2984 0.950 . S
C2991 C2988 1.387 . S
C2992 C2993 1.387 . S
C2992 H2996 0.950 . S
C2992 C3001 1.390 . S
C2993 C2992 1.387 . S
C2993 C2995 1.387 . S
H2994 C3001 0.950 . S
C2995 C2993 1.387 . S
C2995 C2997 1.390 . S
C2995 H2999 0.950 . S
H2996 C2992 0.950 . S
C2997 C2995 1.390 . S
C2997 C2998 1.387 . S
C2997 H3000 0.950 . S
C2998 C2997 1.387 . S
C2998 C3001 1.387 . S
H2999 C2995 0.950 . S
H3000 C2997 0.950 . S
C3001 C2992 1.390 . S
C3001 H2994 0.950 . S
C3001 C2998 1.387 . S
C3002 C3003 1.387 . S
C3002 H3006 0.950 . S
C3002 C3011 1.390 . S
C3003 C3002 1.387 . S
C3003 C3005 1.387 . S
H3004 C3011 0.950 . S
C3005 C3003 1.387 . S
C3005 C3007 1.390 . S
C3005 H3009 0.950 . S
H3006 C3002 0.950 . S
C3007 C3005 1.390 . S
C3007 C3008 1.387 . S
C3007 H3010 0.950 . S
C3008 C3007 1.387 . S
C3008 C3011 1.387 . S
H3009 C3005 0.950 . S
H3010 C3007 0.950 . S
C3011 C3002 1.390 . S
C3011 H3004 0.950 . S
C3011 C3008 1.387 . S
C3012 C3013 1.387 . S
C3012 H3016 0.950 . S
C3012 C3021 1.390 . S
C3013 C3012 1.387 . S
C3013 C3015 1.387 . S
H3014 C3021 0.950 . S
C3015 C3013 1.387 . S
C3015 C3017 1.390 . S
C3015 H3019 0.950 . S
H3016 C3012 0.950 . S
C3017 C3015 1.390 . S
C3017 C3018 1.387 . S
C3017 H3020 0.950 . S
C3018 C3017 1.387 . S
C3018 C3021 1.387 . S
H3019 C3015 0.950 . S
H3020 C3017 0.950 . S
C3021 C3012 1.390 . S
C3021 H3014 0.950 . S
C3021 C3018 1.387 . S
C3022 C3023 1.387 . S
C3022 H3026 0.950 . S
C3022 C3031 1.390 . S
C3023 C3022 1.387 . S
C3023 C3025 1.387 . S
H3024 C3031 0.950 . S
C3025 C3023 1.387 . S
C3025 C3027 1.390 . S
C3025 H3029 0.950 . S
H3026 C3022 0.950 . S
C3027 C3025 1.390 . S
C3027 C3028 1.387 . S
C3027 H3030 0.950 . S
C3028 C3027 1.387 . S
C3028 C3031 1.387 . S
H3029 C3025 0.950 . S
H3030 C3027 0.950 . S
C3031 C3022 1.390 . S
C3031 H3024 0.950 . S
C3031 C3028 1.387 . S
C3032 C3033 1.387 . S
C3032 H3036 0.950 . S
C3032 C3041 1.390 . S
C3033 C3032 1.387 . S
C3033 C3035 1.387 . S
H3034 C3041 0.950 . S
C3035 C3033 1.387 . S
C3035 C3037 1.390 . S
C3035 H3039 0.950 . S
H3036 C3032 0.950 . S
C3037 C3035 1.390 . S
C3037 C3038 1.387 . S
C3037 H3040 0.950 . S
C3038 C3037 1.387 . S
C3038 C3041 1.387 . S
H3039 C3035 0.950 . S
H3040 C3037 0.950 . S
C3041 C3032 1.390 . S
C3041 H3034 0.950 . S
C3041 C3038 1.387 . S
C3042 C3043 1.387 . S
C3042 H3046 0.950 . S
C3042 C3051 1.390 . S
C3043 C3042 1.387 . S
C3043 C3045 1.387 . S
H3044 C3051 0.950 . S
C3045 C3043 1.387 . S
C3045 C3047 1.390 . S
C3045 H3049 0.950 . S
H3046 C3042 0.950 . S
C3047 C3045 1.390 . S
C3047 C3048 1.387 . S
C3047 H3050 0.950 . S
C3048 C3047 1.387 . S
C3048 C3051 1.387 . S
H3049 C3045 0.950 . S
H3050 C3047 0.950 . S
C3051 C3042 1.390 . S
C3051 H3044 0.950 . S
C3051 C3048 1.387 . S
C3052 C3053 1.387 . S
C3052 H3056 0.950 . S
C3052 C3061 1.390 . S
C3053 C3052 1.387 . S
C3053 C3055 1.387 . S
H3054 C3061 0.950 . S
C3055 C3053 1.387 . S
C3055 C3057 1.390 . S
C3055 H3059 0.950 . S
H3056 C3052 0.950 . S
C3057 C3055 1.390 . S
C3057 C3058 1.387 . S
C3057 H3060 0.950 . S
C3058 C3057 1.387 . S
C3058 C3061 1.387 . S
H3059 C3055 0.950 . S
H3060 C3057 0.950 . S
C3061 C3052 1.390 . S
C3061 H3054 0.950 . S
C3061 C3058 1.387 . S
C3062 C3063 1.387 . S
C3062 H3066 0.950 . S
C3062 C3071 1.390 . S
C3063 C3062 1.387 . S
C3063 C3065 1.387 . S
H3064 C3071 0.950 . S
C3065 C3063 1.387 . S
C3065 C3067 1.390 . S
C3065 H3069 0.950 . S
H3066 C3062 0.950 . S
C3067 C3065 1.390 . S
C3067 C3068 1.387 . S
C3067 H3070 0.950 . S
C3068 C3067 1.387 . S
C3068 C3071 1.387 . S
H3069 C3065 0.950 . S
H3070 C3067 0.950 . S
C3071 C3062 1.390 . S
C3071 H3064 0.950 . S
C3071 C3068 1.387 . S
C3072 C3073 1.387 . S
C3072 H3076 0.950 . S
C3072 C3081 1.390 1_455 S
C3073 C3072 1.387 . S
C3073 C3075 1.387 . S
H3074 C3081 0.950 . S
C3075 C3073 1.387 . S
C3075 C3077 1.390 1_455 S
C3075 H3079 0.950 . S
H3076 C3072 0.950 . S
C3077 C3075 1.390 1_655 S
C3077 C3078 1.387 . S
C3077 H3080 0.950 . S
C3078 C3077 1.387 . S
C3078 C3081 1.387 . S
H3079 C3075 0.950 . S
H3080 C3077 0.950 . S
C3081 C3072 1.390 1_655 S
C3081 H3074 0.950 . S
C3081 C3078 1.387 . S
C3082 C3083 1.387 . S
C3082 H3086 0.950 . S
C3082 C3091 1.390 . S
C3083 C3082 1.387 . S
C3083 C3085 1.387 . S
H3084 C3091 0.950 . S
C3085 C3083 1.387 . S
C3085 C3087 1.390 . S
C3085 H3089 0.950 . S
H3086 C3082 0.950 . S
C3087 C3085 1.390 . S
C3087 C3088 1.387 . S
C3087 H3090 0.950 . S
C3088 C3087 1.387 . S
C3088 C3091 1.387 . S
H3089 C3085 0.950 . S
H3090 C3087 0.950 . S
C3091 C3082 1.390 . S
C3091 H3084 0.950 . S
C3091 C3088 1.387 . S
C3092 C3093 1.387 . S
C3092 H3096 0.950 . S
C3092 C3101 1.390 1_655 S
C3093 C3092 1.387 . S
C3093 C3095 1.387 . S
H3094 C3101 0.950 . S
C3095 C3093 1.387 . S
C3095 C3097 1.390 1_655 S
C3095 H3099 0.950 . S
H3096 C3092 0.950 . S
C3097 C3095 1.390 1_455 S
C3097 C3098 1.387 . S
C3097 H3100 0.950 . S
C3098 C3097 1.387 . S
C3098 C3101 1.387 . S
H3099 C3095 0.950 . S
H3100 C3097 0.950 . S
C3101 C3092 1.390 1_455 S
C3101 H3094 0.950 . S
C3101 C3098 1.387 . S
C3102 C3103 1.387 . S
C3102 H3106 0.950 . S
C3102 C3111 1.390 1_455 S
C3103 C3102 1.387 . S
C3103 C3105 1.387 . S
H3104 C3111 0.950 . S
C3105 C3103 1.387 . S
C3105 C3107 1.390 1_455 S
C3105 H3109 0.950 . S
H3106 C3102 0.950 . S
C3107 C3105 1.390 1_655 S
C3107 C3108 1.387 . S
C3107 H3110 0.950 . S
C3108 C3107 1.387 . S
C3108 C3111 1.387 . S
H3109 C3105 0.950 . S
H3110 C3107 0.950 . S
C3111 C3102 1.390 1_655 S
C3111 H3104 0.950 . S
C3111 C3108 1.387 . S
C3112 C3113 1.387 . S
C3112 H3116 0.950 . S
C3112 C3121 1.390 1_565 S
C3113 C3112 1.387 . S
C3113 C3115 1.387 . S
H3114 C3121 0.950 . S
C3115 C3113 1.387 . S
C3115 C3117 1.390 1_565 S
C3115 H3119 0.950 . S
H3116 C3112 0.950 . S
C3117 C3115 1.390 1_545 S
C3117 C3118 1.387 . S
C3117 H3120 0.950 . S
C3118 C3117 1.387 . S
C3118 C3121 1.387 . S
H3119 C3115 0.950 . S
H3120 C3117 0.950 . S
C3121 C3112 1.390 1_545 S
C3121 H3114 0.950 . S
C3121 C3118 1.387 . S
C3122 C3123 1.387 . S
C3122 H3126 0.950 . S
C3122 C3131 1.390 1_554 S
C3123 C3122 1.387 . S
C3123 C3125 1.387 . S
H3124 C3131 0.950 . S
C3125 C3123 1.387 . S
C3125 C3127 1.390 1_554 S
C3125 H3129 0.950 . S
H3126 C3122 0.950 . S
C3127 C3125 1.390 1_556 S
C3127 C3128 1.387 . S
C3127 H3130 0.950 . S
C3128 C3127 1.387 . S
C3128 C3131 1.387 . S
H3129 C3125 0.950 . S
H3130 C3127 0.950 . S
C3131 C3122 1.390 1_556 S
C3131 H3124 0.950 . S
C3131 C3128 1.387 . S
C3132 C3133 1.387 . S
C3132 H3136 0.950 . S
C3132 C3141 1.390 . S
C3133 C3132 1.387 . S
C3133 C3135 1.387 . S
H3134 C3141 0.950 . S
C3135 C3133 1.387 . S
C3135 C3137 1.390 . S
C3135 H3139 0.950 . S
H3136 C3132 0.950 . S
C3137 C3135 1.390 . S
C3137 C3138 1.387 . S
C3137 H3140 0.950 . S
C3138 C3137 1.387 . S
C3138 C3141 1.387 . S
H3139 C3135 0.950 . S
H3140 C3137 0.950 . S
C3141 C3132 1.390 . S
C3141 H3134 0.950 . S
C3141 C3138 1.387 . S
C3142 C3143 1.387 . S
C3142 H3146 0.950 . S
C3142 C3151 1.390 1_554 S
C3143 C3142 1.387 . S
C3143 C3145 1.387 . S
H3144 C3151 0.950 . S
C3145 C3143 1.387 . S
C3145 C3147 1.390 1_554 S
C3145 H3149 0.950 . S
H3146 C3142 0.950 . S
C3147 C3145 1.390 1_556 S
C3147 C3148 1.387 . S
C3147 H3150 0.950 . S
C3148 C3147 1.387 . S
C3148 C3151 1.387 . S
H3149 C3145 0.950 . S
H3150 C3147 0.950 . S
C3151 C3142 1.390 1_556 S
C3151 H3144 0.950 . S
C3151 C3148 1.387 . S
C3152 C3153 1.387 . S
C3152 H3156 0.950 . S
C3152 C3161 1.390 1_556 S
C3153 C3152 1.387 . S
C3153 C3155 1.387 . S
H3154 C3161 0.950 . S
C3155 C3153 1.387 . S
C3155 C3157 1.390 1_556 S
C3155 H3159 0.950 . S
H3156 C3152 0.950 . S
C3157 C3155 1.390 1_554 S
C3157 C3158 1.387 . S
C3157 H3160 0.950 . S
C3158 C3157 1.387 . S
C3158 C3161 1.387 . S
H3159 C3155 0.950 . S
H3160 C3157 0.950 . S
C3161 C3152 1.390 1_554 S
C3161 H3154 0.950 . S
C3161 C3158 1.387 . S
C3162 C3163 1.387 . S
C3162 H3166 0.950 . S
C3162 C3171 1.390 . S
C3163 C3162 1.387 . S
C3163 C3165 1.387 . S
H3164 C3171 0.950 . S
C3165 C3163 1.387 . S
C3165 C3167 1.390 . S
C3165 H3169 0.950 . S
H3166 C3162 0.950 . S
C3167 C3165 1.390 . S
C3167 C3168 1.387 . S
C3167 H3170 0.950 . S
C3168 C3167 1.387 . S
C3168 C3171 1.387 . S
H3169 C3165 0.950 . S
H3170 C3167 0.950 . S
C3171 C3162 1.390 . S
C3171 H3164 0.950 . S
C3171 C3168 1.387 . S
C3172 C3173 1.387 . S
C3172 H3176 0.950 . S
C3172 C3181 1.390 . S
C3173 C3172 1.387 . S
C3173 C3175 1.387 . S
H3174 C3181 0.950 . S
C3175 C3173 1.387 . S
C3175 C3177 1.390 . S
C3175 H3179 0.950 . S
H3176 C3172 0.950 . S
C3177 C3175 1.390 . S
C3177 C3178 1.387 . S
C3177 H3180 0.950 . S
C3178 C3177 1.387 . S
C3178 C3181 1.387 . S
H3179 C3175 0.950 . S
H3180 C3177 0.950 . S
C3181 C3172 1.390 . S
C3181 H3174 0.950 . S
C3181 C3178 1.387 . S
C3182 C3183 1.387 . S
C3182 H3186 0.950 . S
C3182 C3191 1.390 . S
C3183 C3182 1.387 . S
C3183 C3185 1.387 . S
H3184 C3191 0.950 . S
C3185 C3183 1.387 . S
C3185 C3187 1.390 . S
C3185 H3189 0.950 . S
H3186 C3182 0.950 . S
C3187 C3185 1.390 . S
C3187 C3188 1.387 . S
C3187 H3190 0.950 . S
C3188 C3187 1.387 . S
C3188 C3191 1.387 . S
H3189 C3185 0.950 . S
H3190 C3187 0.950 . S
C3191 C3182 1.390 . S
C3191 H3184 0.950 . S
C3191 C3188 1.387 . S
C3192 C3193 1.387 . S
C3192 H3196 0.950 . S
C3192 C3201 1.390 . S
C3193 C3192 1.387 . S
C3193 C3195 1.387 . S
H3194 C3201 0.950 . S
C3195 C3193 1.387 . S
C3195 C3197 1.390 . S
C3195 H3199 0.950 . S
H3196 C3192 0.950 . S
C3197 C3195 1.390 . S
C3197 C3198 1.387 . S
C3197 H3200 0.950 . S
C3198 C3197 1.387 . S
C3198 C3201 1.387 . S
H3199 C3195 0.950 . S
H3200 C3197 0.950 . S
C3201 C3192 1.390 . S
C3201 H3194 0.950 . S
C3201 C3198 1.387 . S
C3202 C3203 1.387 . S
C3202 H3206 0.950 . S
C3202 C3211 1.390 1_545 S
C3203 C3202 1.387 . S
C3203 C3205 1.387 . S
H3204 C3211 0.950 . S
C3205 C3203 1.387 . S
C3205 C3207 1.390 1_545 S
C3205 H3209 0.950 . S
H3206 C3202 0.950 . S
C3207 C3205 1.390 1_565 S
C3207 C3208 1.387 . S
C3207 H3210 0.950 . S
C3208 C3207 1.387 . S
C3208 C3211 1.387 . S
H3209 C3205 0.950 . S
H3210 C3207 0.950 . S
C3211 C3202 1.390 1_565 S
C3211 H3204 0.950 . S
C3211 C3208 1.387 . S
C3212 C3213 1.387 . S
C3212 H3216 0.950 . S
C3212 C3221 1.390 . S
C3213 C3212 1.387 . S
C3213 C3215 1.387 . S
H3214 C3221 0.950 . S
C3215 C3213 1.387 . S
C3215 C3217 1.390 . S
C3215 H3219 0.950 . S
H3216 C3212 0.950 . S
C3217 C3215 1.390 . S
C3217 C3218 1.387 . S
C3217 H3220 0.950 . S
C3218 C3217 1.387 . S
C3218 C3221 1.387 . S
H3219 C3215 0.950 . S
H3220 C3217 0.950 . S
C3221 C3212 1.390 . S
C3221 H3214 0.950 . S
C3221 C3218 1.387 . S
C3222 C3223 1.387 . S
C3222 H3226 0.950 . S
C3222 C3231 1.390 1_455 S
C3223 C3222 1.387 . S
C3223 C3225 1.387 . S
H3224 C3231 0.950 . S
C3225 C3223 1.387 . S
C3225 C3227 1.390 1_455 S
C3225 H3229 0.950 . S
H3226 C3222 0.950 . S
C3227 C3225 1.390 1_655 S
C3227 C3228 1.387 . S
C3227 H3230 0.950 . S
C3228 C3227 1.387 . S
C3228 C3231 1.387 . S
H3229 C3225 0.950 . S
H3230 C3227 0.950 . S
C3231 C3222 1.390 1_655 S
C3231 H3224 0.950 . S
C3231 C3228 1.387 . S
C3232 C3233 1.387 . S
C3232 H3236 0.950 . S
C3232 C3241 1.390 . S
C3233 C3232 1.387 . S
C3233 C3235 1.387 . S
H3234 C3241 0.950 . S
C3235 C3233 1.387 . S
C3235 C3237 1.390 . S
C3235 H3239 0.950 . S
H3236 C3232 0.950 . S
C3237 C3235 1.390 . S
C3237 C3238 1.387 . S
C3237 H3240 0.950 . S
C3238 C3237 1.387 . S
C3238 C3241 1.387 . S
H3239 C3235 0.950 . S
H3240 C3237 0.950 . S
C3241 C3232 1.390 . S
C3241 H3234 0.950 . S
C3241 C3238 1.387 . S
C3242 C3243 1.387 . S
C3242 H3246 0.950 . S
C3242 C3251 1.390 . S
C3243 C3242 1.387 . S
C3243 C3245 1.387 . S
H3244 C3251 0.950 . S
C3245 C3243 1.387 . S
C3245 C3247 1.390 . S
C3245 H3249 0.950 . S
H3246 C3242 0.950 . S
C3247 C3245 1.390 . S
C3247 C3248 1.387 . S
C3247 H3250 0.950 . S
C3248 C3247 1.387 . S
C3248 C3251 1.387 . S
H3249 C3245 0.950 . S
H3250 C3247 0.950 . S
C3251 C3242 1.390 . S
C3251 H3244 0.950 . S
C3251 C3248 1.387 . S
C3252 C3253 1.387 . S
C3252 H3256 0.950 . S
C3252 C3261 1.390 . S
C3253 C3252 1.387 . S
C3253 C3255 1.387 . S
H3254 C3261 0.950 . S
C3255 C3253 1.387 . S
C3255 C3257 1.390 . S
C3255 H3259 0.950 . S
H3256 C3252 0.950 . S
C3257 C3255 1.390 . S
C3257 C3258 1.387 . S
C3257 H3260 0.950 . S
C3258 C3257 1.387 . S
C3258 C3261 1.387 . S
H3259 C3255 0.950 . S
H3260 C3257 0.950 . S
C3261 C3252 1.390 . S
C3261 H3254 0.950 . S
C3261 C3258 1.387 . S
C3262 C3263 1.387 . S
C3262 H3266 0.950 . S
C3262 C3271 1.390 . S
C3263 C3262 1.387 . S
C3263 C3265 1.387 . S
H3264 C3271 0.950 . S
C3265 C3263 1.387 . S
C3265 C3267 1.390 . S
C3265 H3269 0.950 . S
H3266 C3262 0.950 . S
C3267 C3265 1.390 . S
C3267 C3268 1.387 . S
C3267 H3270 0.950 . S
C3268 C3267 1.387 . S
C3268 C3271 1.387 . S
H3269 C3265 0.950 . S
H3270 C3267 0.950 . S
C3271 C3262 1.390 . S
C3271 H3264 0.950 . S
C3271 C3268 1.387 . S
C3272 C3273 1.387 . S
C3272 H3276 0.950 . S
C3272 C3281 1.390 1_565 S
C3273 C3272 1.387 . S
C3273 C3275 1.387 . S
H3274 C3281 0.950 . S
C3275 C3273 1.387 . S
C3275 C3277 1.390 1_565 S
C3275 H3279 0.950 . S
H3276 C3272 0.950 . S
C3277 C3275 1.390 1_545 S
C3277 C3278 1.387 . S
C3277 H3280 0.950 . S
C3278 C3277 1.387 . S
C3278 C3281 1.387 . S
H3279 C3275 0.950 . S
H3280 C3277 0.950 . S
C3281 C3272 1.390 1_545 S
C3281 H3274 0.950 . S
C3281 C3278 1.387 . S
C3282 C3283 1.387 . S
C3282 H3286 0.950 . S
C3282 C3291 1.390 . S
C3283 C3282 1.387 . S
C3283 C3285 1.387 . S
H3284 C3291 0.950 . S
C3285 C3283 1.387 . S
C3285 C3287 1.390 . S
C3285 H3289 0.950 . S
H3286 C3282 0.950 . S
C3287 C3285 1.390 . S
C3287 C3288 1.387 . S
C3287 H3290 0.950 . S
C3288 C3287 1.387 . S
C3288 C3291 1.387 . S
H3289 C3285 0.950 . S
H3290 C3287 0.950 . S
C3291 C3282 1.390 . S
C3291 H3284 0.950 . S
C3291 C3288 1.387 . S
C3292 C3293 1.387 . S
C3292 H3296 0.950 . S
C3292 C3301 1.390 1_556 S
C3293 C3292 1.387 . S
C3293 C3295 1.387 . S
H3294 C3301 0.950 . S
C3295 C3293 1.387 . S
C3295 C3297 1.390 1_556 S
C3295 H3299 0.950 . S
H3296 C3292 0.950 . S
C3297 C3295 1.390 1_554 S
C3297 C3298 1.387 . S
C3297 H3300 0.950 . S
C3298 C3297 1.387 . S
C3298 C3301 1.387 . S
H3299 C3295 0.950 . S
H3300 C3297 0.950 . S
C3301 C3292 1.390 1_554 S
C3301 H3294 0.950 . S
C3301 C3298 1.387 . S
C3302 C3303 1.387 . S
C3302 H3306 0.950 . S
C3302 C3311 1.390 1_545 S
C3303 C3302 1.387 . S
C3303 C3305 1.387 . S
H3304 C3311 0.950 . S
C3305 C3303 1.387 . S
C3305 C3307 1.390 1_545 S
C3305 H3309 0.950 . S
H3306 C3302 0.950 . S
C3307 C3305 1.390 1_565 S
C3307 C3308 1.387 . S
C3307 H3310 0.950 . S
C3308 C3307 1.387 . S
C3308 C3311 1.387 . S
H3309 C3305 0.950 . S
H3310 C3307 0.950 . S
C3311 C3302 1.390 1_565 S
C3311 H3304 0.950 . S
C3311 C3308 1.387 . S
C1633 C1207 1.869 . S
C1638 C28 1.901 . S
C1643 C40 1.900 . S
C1648 C1105 1.867 . S
C1653 C1139 1.869 . S
C1658 C74 1.901 . S
C1663 C108 1.901 . S
C1668 C1173 1.869 . S
C1673 C459 1.869 . S
C1678 C164 1.901 . S
C1683 C198 1.901 . S
C1688 C493 1.869 . S
C1693 C527 1.867 . S
C1698 C232 1.900 . S
C1703 C425 1.867 . S
C1708 C244 1.900 . S
C1713 C1003 1.869 . S
C1718 C278 1.901 . S
C1723 C312 1.899 . S
C1728 C1037 1.867 . S
C1733 C346 1.900 . S
C1738 C1071 1.868 . S
C1743 C969 1.867 . S
C1748 C402 1.899 . S
C1753 C436 1.900 . S
C1758 C119 1.867 . S
C1763 C17 1.867 . S
C1768 C448 1.899 . S
C1773 C51 1.867 . S
C1778 C482 1.899 . S
C1783 C538 1.900 . S
C1788 C85 1.868 . S
C1793 C1615 1.867 . S
C1798 C550 1.900 . S
C1803 C584 1.901 . S
C1808 C697 1.869 . S
C1813 C1411 1.868 . S
C1818 C640 1.900 . S
C1823 C1445 1.867 . S
C1828 C652 1.900 . S
C1833 C686 1.900 . S
C1838 C663 1.867 . S
C1843 C742 1.901 . S
C1848 C765 1.869 . S
C1853 C776 1.901 . S
C1858 C1377 1.869 . S
C1863 C731 1.869 . S
C1868 C810 1.901 . S
C1873 C844 1.901 . S
C1878 C391 1.869 . S
C1883 C878 1.900 . S
C1888 C289 1.867 . S
C1893 C323 1.867 . S
C1898 C890 1.900 . S
C1903 C946 1.901 . S
C1908 C357 1.869 . S
C1913 C980 1.901 . S
C1918 C1275 1.869 . S
C1923 C992 1.901 . S
C1928 C1309 1.869 . S
C1933 C1048 1.899 . S
C1938 C1343 1.867 . S
C1943 C1060 1.901 . S
C1948 C1241 1.869 . S
C1953 C1094 1.900 . S
C1958 C187 1.867 . S
C1963 C221 1.869 . S
C1968 C1150 1.901 . S
C1973 C255 1.868 . S
C1978 C1162 1.900 . S
C1983 C1218 1.900 . S
C1988 C153 1.868 . S
C1993 C1252 1.900 . S
C1998 C935 1.869 . S
C2003 C833 1.867 . S
C2008 C1264 1.900 . S
C2013 C867 1.869 . S
C2018 C1298 1.901 . S
C2023 C901 1.868 . S
C2028 C1354 1.900 . S
C2033 C799 1.869 . S
C2038 C1366 1.901 . S
C2043 C1513 1.867 . S
C2048 C1422 1.900 . S
C2053 C1456 1.900 . S
C2058 C595 1.867 . S
C2063 C629 1.867 . S
C2068 C1468 1.899 . S
C2073 C1524 1.901 . S
C2078 C1479 1.869 . S
C2083 C1581 1.869 . S
C2088 C1558 1.901 . S
C2093 C561 1.867 . S
C2098 C1570 1.899 . S
C2103 C1547 1.869 . S
C2108 C1604 1.901 . S
C2113 C275 1.443 . S
C2118 C3 1.533 . S
C2123 C309 1.442 . S
C2128 C35 1.533 . S
C2133 C343 1.444 . S
C2138 C69 1.530 . S
C2143 C375 1.441 . S
C2148 C103 1.533 . S
C2153 C139 1.531 . S
C2158 C409 1.443 . S
C2163 C173 1.533 . S
C2168 C445 1.442 . S
C2173 C207 1.531 . S
C2178 C479 1.442 . S
C2183 C239 1.530 . S
C2188 C511 1.443 . S
C2193 C273 1.533 . S
C2198 C547 1.442 . S
C2203 C307 1.533 . S
C2208 C1601 1.443 . S
C2213 C1531 1.443 . S
C2218 C341 1.533 . S
C2223 C1567 1.444 . S
C2228 C377 1.530 . S
C2233 C581 1.443 . S
C2238 C411 1.530 . S
C2243 C443 1.533 . S
C2248 C613 1.442 . S
C2253 C477 1.533 . S
C2258 C649 1.442 . S
C2263 C1497 1.440 . S
C2268 C513 1.533 . S
C2273 C545 1.533 . S
C2278 C1 1.442 . S
C2283 C137 1.442 . S
C2288 C579 1.533 . S
C2293 C171 1.443 . S
C2298 C615 1.530 . S
C2303 C205 1.444 . S
C2308 C647 1.530 . S
C2313 C1057 1.444 . S
C2318 C681 1.530 . S
C2323 C887 1.442 . S
C2328 C717 1.533 . S
C2333 C919 1.443 . S
C2338 C751 1.530 . S
C2343 C851 1.443 . S
C2348 C785 1.531 . S
C2353 C819 1.533 . S
C2358 C1091 1.442 . S
C2363 C853 1.530 . S
C2368 C1123 1.443 . S
C2373 C885 1.533 . S
C2378 C1159 1.442 . S
C2383 C1191 1.442 . S
C2388 C921 1.533 . S
C2393 C1225 1.442 . S
C2398 C955 1.533 . S
C2403 C987 1.533 . S
C2408 C1261 1.441 . S
C2413 C1023 1.533 . S
C2418 C1295 1.440 . S
C2423 C1327 1.441 . S
C2428 C1055 1.533 . S
C2433 C1089 1.533 . S
C2438 C1363 1.442 . S
C2443 C783 1.443 . S
C2448 C1125 1.531 . S
C2453 C1157 1.533 . S
C2458 C715 1.442 . S
C2463 C1193 1.530 . S
C2468 C749 1.445 . S
C2473 C1227 1.530 . S
C2478 C1395 1.443 . S
C2483 C1259 1.533 . S
C2488 C1429 1.442 . S
C2493 C1293 1.530 . S
C2498 C1465 1.443 . S
C2503 C1329 1.533 . S
C2508 C683 1.441 . S
C2513 C1361 1.533 . S
C2518 C817 1.442 . S
C2523 C953 1.442 . S
C2528 C1397 1.533 . S
C2533 C989 1.442 . S
C2538 C1431 1.533 . S
C2543 C1021 1.444 . S
C2548 C1463 1.530 . S
C2553 C1499 1.530 . S
C2558 C241 1.443 . S
C2563 C71 1.442 . S
C2568 C1533 1.533 . S
C2573 C1565 1.533 . S
C2578 C105 1.442 . S
C2583 C37 1.443 . S
C2588 C1599 1.530 . S
C2593 C634 1.505 . S
C2598 C6 1.319 . S
C2603 C661 1.506 . S
C2608 C62 1.323 . S
C2613 C96 1.321 . S
C2618 C1518 1.505 . S
C2623 C593 1.504 . S
C2628 C130 1.319 . S
C2633 C770 1.505 . S
C2638 C142 1.321 . S
C2643 C176 1.322 . S
C2648 C1375 1.506 . S
C2653 C804 1.505 . S
C2658 C210 1.319 . S
C2663 C266 1.318 . S
C2668 C736 1.504 . S
C2673 C1144 1.505 . S
C2678 C300 1.318 . S
C2683 C334 1.323 . S
C2688 C1171 1.506 . S
C2693 C368 1.318 . S
C2698 C1212 1.505 . S
C2703 C1103 1.506 . S
C2708 C380 1.323 . S
C2713 C532 1.505 . S
C2718 C414 1.318 . S
C2723 C470 1.319 . S
C2728 C430 1.505 . S
C2733 C457 1.505 . S
C2738 C504 1.318 . S
C2743 C516 1.319 . S
C2748 C491 1.505 . S
C2753 C117 1.505 . S
C2758 C572 1.321 . S
C2763 C1001 1.504 . S
C2768 C606 1.319 . S
C2773 C1042 1.506 . S
C2778 C618 1.323 . S
C2783 C1069 1.505 . S
C2788 C674 1.319 . S
C2793 C708 1.323 . S
C2798 C158 1.505 . S
C2803 C872 1.505 . S
C2808 C720 1.323 . S
C2813 C899 1.505 . S
C2818 C754 1.318 . S
C2823 C788 1.323 . S
C2828 C838 1.505 . S
C2833 C1450 1.505 . S
C2838 C822 1.318 . S
C2843 C856 1.318 . S
C2848 C1477 1.504 . S
C2853 C695 1.505 . S
C2858 C912 1.323 . S
C2863 C1416 1.505 . S
C2868 C924 1.321 . S
C2873 C958 1.318 . S
C2878 C1579 1.504 . S
C2883 C1014 1.318 . S
C2888 C559 1.505 . S
C2893 C1613 1.505 . S
C2898 C1026 1.323 . S
C2903 C1552 1.506 . S
C2908 C1082 1.323 . S
C2913 C321 1.506 . S
C2918 C1116 1.323 . S
C2923 C355 1.505 . S
C2928 C1128 1.321 . S
C2933 C1184 1.323 . S
C2938 C396 1.505 . S
C2943 C1196 1.318 . S
C2948 C287 1.505 . S
C2953 C1230 1.318 . S
C2958 C1348 1.504 . S
C2963 C1286 1.322 . S
C2968 C1246 1.505 . S
C2973 C1273 1.505 . S
C2978 C1320 1.318 . S
C2983 C1332 1.319 . S
C2988 C1307 1.505 . S
C2993 C1388 1.318 . S
C2998 C940 1.505 . S
C3003 C192 1.504 . S
C3008 C1400 1.319 . S
C3013 C226 1.506 . S
C3018 C1434 1.323 . S
C3023 C253 1.506 . S
C3028 C1490 1.323 . S
C3033 C1502 1.323 . S
C3038 C974 1.505 . S
C3043 C1536 1.321 . S
C3048 C49 1.505 . S
C3053 C1592 1.318 . S
C3058 C83 1.504 . S
C3063 C1626 1.318 . S
C3068 C22 1.504 . S
C3073 C15 1.875 . S
C3078 C90 1.875 . S
C3083 C56 1.875 . S
C3088 C124 1.875 . S
C3093 C219 1.872 . S
C3098 C151 1.872 . S
C3103 C260 1.872 . S
C3108 C185 1.872 . S
C3113 C423 1.872 . S
C3118 C294 1.872 . S
C3123 C464 1.872 . S
C3128 C328 1.872 . S
C3133 C498 1.872 . S
C3138 C362 1.872 . S
C3143 C525 1.875 . S
C3148 C389 1.875 . S
C3153 C1484 1.872 . S
C3158 C566 1.872 . S
C3163 C600 1.872 . S
C3168 C729 1.872 . S
C3173 C763 1.875 . S
C3178 C627 1.875 . S
C3183 C668 1.875 . S
C3188 C1382 1.875 . S
C3193 C702 1.872 . S
C3198 C1620 1.872 . S
C3203 C1511 1.872 . S
C3208 C797 1.872 . S
C3213 C906 1.875 . S
C3218 C831 1.875 . S
C3223 C865 1.872 . S
C3228 C933 1.872 . S
C3233 C1035 1.872 . S
C3238 C967 1.872 . S
C3243 C1008 1.872 . S
C3248 C1076 1.872 . S
C3253 C1110 1.875 . S
C3258 C1239 1.875 . S
C3263 C1137 1.872 . S
C3268 C1280 1.872 . S
C3273 C1178 1.875 . S
C3278 C1314 1.875 . S
C3283 C1205 1.875 . S
C3288 C1341 1.875 . S
C3293 C1409 1.875 . S
C3298 C1545 1.875 . S
C3303 C1586 1.875 . S
C3308 C1443 1.875 . S
