# Generated by pormake.
# Topology qtz-e, (6)-cn, num edge types: 1
# Building blocks:
#     Node 0, Type 0, BuildingBlock: HISSIN_clean_sbu_0, # of connection points: 6
#     Node 1, Type 0, BuildingBlock: HISSIN_clean_sbu_0, # of connection points: 6
#     Node 2, Type 0, BuildingBlock: HISSIN_clean_sbu_0, # of connection points: 6
#     Node 3, Type 0, BuildingBlock: HISSIN_clean_sbu_0, # of connection points: 6
#     Node 4, Type 0, BuildingBlock: HISSIN_clean_sbu_0, # of connection points: 6
#     Node 5, Type 0, BuildingBlock: HISSIN_clean_sbu_0, # of connection points: 6
#     Edge 6, Type (0, 0), BuildingBlock: KIFKEQ_clean_linker_1, # of connection points: 2
#     Edge 7, Type (0, 0), BuildingBlock: KIFKEQ_clean_linker_1, # of connection points: 2
#     Edge 8, Type (0, 0), BuildingBlock: KIFKEQ_clean_linker_1, # of connection points: 2
#     Edge 9, Type (0, 0), BuildingBlock: KIFKEQ_clean_linker_1, # of connection points: 2
#     Edge 10, Type (0, 0), BuildingBlock: KIFKEQ_clean_linker_1, # of connection points: 2
#     Edge 11, Type (0, 0), BuildingBlock: KIFKEQ_clean_linker_1, # of connection points: 2
#     Edge 12, Type (0, 0), BuildingBlock: KIFKEQ_clean_linker_1, # of connection points: 2
#     Edge 13, Type (0, 0), BuildingBlock: KIFKEQ_clean_linker_1, # of connection points: 2
#     Edge 14, Type (0, 0), BuildingBlock: KIFKEQ_clean_linker_1, # of connection points: 2
#     Edge 15, Type (0, 0), BuildingBlock: KIFKEQ_clean_linker_1, # of connection points: 2
#     Edge 16, Type (0, 0), BuildingBlock: KIFKEQ_clean_linker_1, # of connection points: 2
#     Edge 17, Type (0, 0), BuildingBlock: KIFKEQ_clean_linker_1, # of connection points: 2
#     Edge 18, Type (0, 0), BuildingBlock: KIFKEQ_clean_linker_1, # of connection points: 2
#     Edge 19, Type (0, 0), BuildingBlock: KIFKEQ_clean_linker_1, # of connection points: 2
#     Edge 20, Type (0, 0), BuildingBlock: KIFKEQ_clean_linker_1, # of connection points: 2
#     Edge 21, Type (0, 0), BuildingBlock: KIFKEQ_clean_linker_1, # of connection points: 2
#     Edge 22, Type (0, 0), BuildingBlock: KIFKEQ_clean_linker_1, # of connection points: 2
#     Edge 23, Type (0, 0), BuildingBlock: KIFKEQ_clean_linker_1, # of connection points: 2
# Relax obj value: 0.128
# Max RMSD: 0.199
# Mean RMSD: 0.199
data_MOF--net-qtz-e--node1-HISSIN_clean_sbu_0--edge1-KIFKEQ_clean_linker_1
_symmetry_space_group_name_H-M    P1
_symmetry_Int_Tables_number       1
_symmetry_cell_setting            triclinic
loop_
_symmetry_equiv_pos_as_xyz
'x, y, z'
_cell_length_a     26.332164
_cell_length_b     26.036089
_cell_length_c     52.516267
_cell_angle_alpha  89.880494
_cell_angle_beta   89.970475
_cell_angle_gamma 120.17875
loop_
_atom_site_label
_atom_site_type_symbol
_atom_site_fract_x
_atom_site_fract_y
_atom_site_fract_z
_atom_type_partial_charge
Eu0 Eu 0.22289 0.44384 0.07816 0.0
Eu1 Eu 0.15213 0.31576 0.04692 0.0
C2 C 0.10912 0.40953 0.04918 0.0
C3 C 0.26393 0.56221 0.12959 0.0
C4 C 0.20716 0.54005 0.13955 0.0
C5 C 0.30478 0.62066 0.16795 0.0
C6 C 0.1993 0.55835 0.16357 0.0
C7 C 0.31255 0.60271 0.1439 0.0
C8 C 0.2481 0.59853 0.17811 0.0
C9 C 0.27371 0.5415 0.105 0.0
O10 O 0.22766 0.37688 0.02181 0.0
O11 O 0.24452 0.4675 0.03636 0.0
C12 C 0.24932 0.43427 1.01865 0.0
O13 O 0.28837 0.41653 0.06965 0.0
O14 O 0.08472 0.26147 1.01901 0.0
O15 O 0.13521 0.22711 0.03708 0.0
O16 O 0.22735 0.31529 0.06761 0.0
C17 C 0.2792 0.36243 0.07131 0.0
O18 O 0.18115 0.37071 0.10742 0.0
O19 O 0.1037 0.30012 0.08414 0.0
O20 O 0.12163 0.37827 0.03359 0.0
O21 O 0.28782 0.50021 0.10633 0.0
O22 O 0.23615 0.53179 0.08679 0.0
O23 O 0.12966 0.41916 0.07235 0.0
C24 C 0.11493 0.20814 0.99324 0.0
C25 C 0.17404 0.23469 0.98575 0.0
C26 C 0.0855 0.16409 0.95115 0.0
C27 C 0.18877 0.22558 0.96132 0.0
C28 C 0.07074 0.17284 0.97578 0.0
C29 C 0.14473 0.19023 0.94374 0.0
C30 C 0.09961 0.22077 1.01854 0.0
C31 C 0.1291 0.32255 0.1061 0.0
H32 H 0.16902 0.50812 0.12893 0.0
H33 H 0.34318 0.65215 0.17854 0.0
H34 H 0.15514 0.54009 0.17099 0.0
H35 H 0.3567 0.62005 0.13657 0.0
H36 H 0.20894 0.26316 0.9987 0.0
H37 H 0.05071 0.13662 0.93798 0.0
H38 H 0.23474 0.24722 0.95601 0.0
H39 H 0.02487 0.15263 0.9811 0.0
Eu40 Eu 0.69375 0.17759 0.40474 0.0
Eu41 Eu 0.80024 0.16372 0.37837 0.0
C42 C 0.66798 0.07703 0.36577 0.0
C43 C 0.59899 0.19379 0.45456 0.0
C44 C 0.63544 0.19397 0.47409 0.0
C45 C 0.54298 0.21362 0.48578 0.0
C46 C 0.62522 0.20305 0.49935 0.0
C47 C 0.55308 0.2042 0.4605 0.0
C48 C 0.57856 0.21249 0.50553 0.0
C49 C 0.60809 0.18155 0.42814 0.0
O50 O 0.79238 0.23262 0.35521 0.0
O51 O 0.69633 0.20526 0.36374 0.0
C52 C 0.74397 0.23328 0.34959 0.0
O53 O 0.77605 0.26445 0.4118 0.0
O54 O 0.82848 0.1062 0.36086 0.0
O55 O 0.89035 0.20043 0.36504 0.0
O56 O 0.84584 0.23654 0.40723 0.0
C57 C 0.82984 0.2745 0.41467 0.0
O58 O 0.73963 0.16027 0.43654 0.0
O59 O 0.77192 0.10678 0.41417 0.0
O60 O 0.71839 0.1123 0.35491 0.0
O61 O 0.64923 0.2262 0.41542 0.0
O62 O 0.60985 0.13286 0.42474 0.0
O63 O 0.6604 0.08526 0.38968 0.0
C64 C 0.89944 0.15462 0.32833 0.0
C65 C 0.95887 0.17605 0.32302 0.0
C66 C 0.87986 0.15049 0.28292 0.0
C67 C 0.97892 0.18529 0.29786 0.0
C68 C 0.85994 0.14172 0.30813 0.0
C69 C 0.93977 0.173 0.27746 0.0
C70 C 0.8804 0.1505 0.35495 0.0
C71 C 0.75848 0.12232 0.43589 0.0
H72 H 0.6714 0.18642 0.46982 0.0
H73 H 0.50632 0.22013 0.48993 0.0
H74 H 0.65382 0.20261 0.51407 0.0
H75 H 0.52455 0.20422 0.44565 0.0
H76 H -0.00989 0.18705 0.33838 0.0
H77 H 0.84834 0.13992 0.26774 0.0
H78 H 0.02548 0.20383 0.29451 0.0
H79 H 0.81389 0.12575 0.31185 0.0
Eu80 Eu 0.52102 0.7189 0.73856 0.0
Eu81 Eu 0.63978 0.83036 0.71286 0.0
C82 C 0.59905 0.6982 0.70114 0.0
C83 C 0.41534 0.61018 0.78763 0.0
C84 C 0.39322 0.55139 0.79566 0.0
C85 C 0.40465 0.63716 0.83082 0.0
C86 C 0.377 0.53548 0.82106 0.0
C87 C 0.42129 0.65312 0.80541 0.0
C88 C 0.38228 0.57808 0.83898 0.0
C89 C 0.43497 0.62639 0.76108 0.0
O90 O 0.56361 0.81907 0.68935 0.0
O91 O 0.49633 0.72093 0.69734 0.0
C92 C 0.51589 0.76923 0.68323 0.0
O93 O 0.51011 0.79802 0.74441 0.0
O94 O 0.7251 0.85953 0.69508 0.0
O95 O 0.69326 0.92127 0.69917 0.0
O96 O 0.60553 0.87472 0.7391 0.0
C97 C 0.55057 0.85443 0.74607 0.0
O98 O 0.58053 0.76834 0.7711 0.0
O99 O 0.66809 0.80672 0.74974 0.0
O100 O 0.61127 0.74751 0.68964 0.0
O101 O 0.42944 0.6691 0.75091 0.0
O102 O 0.48524 0.63081 0.75555 0.0
O103 O 0.58688 0.69391 0.72536 0.0
C104 C 0.74333 0.92661 0.66146 0.0
C105 C 0.6971 0.89986 0.6439 0.0
C106 C 0.80884 0.98645 0.62738 0.0
C107 C 0.70639 0.91703 0.61831 0.0
C108 C 0.79938 0.96938 0.65303 0.0
C109 C 0.76223 0.96114 0.60977 0.0
C110 C 0.73227 0.91122 0.68862 0.0
C111 C 0.63775 0.79142 0.77111 0.0
H112 H 0.38919 0.51785 0.78232 0.0
H113 H 0.40887 0.67102 0.84399 0.0
H114 H 0.36119 0.48988 0.82671 0.0
H115 H 0.43905 0.69903 0.79969 0.0
H116 H 0.65347 0.86661 0.6501 0.0
H117 H 0.85254 0.01992 0.6214 0.0
H118 H 0.66928 0.89718 0.60545 0.0
H119 H 0.83559 -0.00978 0.66633 0.0
Eu120 Eu 0.76859 0.53528 0.06966 0.0
Eu121 Eu 0.81537 0.66851 0.04321 0.0
C122 C 0.8719 0.58801 0.0297 0.0
C123 C 0.73379 0.42208 0.12279 0.0
C124 C 0.78688 0.44548 0.13636 0.0
C125 C 0.68134 0.36632 0.16064 0.0
C126 C 0.78723 0.42869 0.16163 0.0
C127 C 0.68104 0.38274 0.13524 0.0
C128 C 0.73455 0.38855 0.174 0.0
C129 C 0.73288 0.43758 0.09571 0.0
O130 O 0.76848 0.60268 1.01194 0.0
O131 O 0.71213 0.51519 0.0343 0.0
C132 C 0.72506 0.54725 1.01324 0.0
O133 O 0.73256 0.58696 0.08821 0.0
O134 O 0.88099 0.74416 0.02138 0.0
O135 O 0.80303 0.74382 0.03454 0.0
O136 O 0.71872 0.62466 0.05252 0.0
C137 C 0.69781 0.59695 0.07417 0.0
O138 O 0.84923 0.60214 0.09095 0.0
O139 O 0.84279 0.6859 0.08441 0.0
O140 O 0.88364 0.64133 0.03674 0.0
O141 O 0.69859 0.45864 0.08982 0.0
O142 O 0.78345 0.46544 0.08392 0.0
O143 O 0.82238 0.54052 0.03592 0.0
C144 C 0.83714 0.78068 0.99327 0.0
C145 C 0.82241 0.73754 0.97432 0.0
C146 C 0.82554 0.84375 0.96244 0.0
C147 C 0.80901 0.74715 0.9497 0.0
C148 C 0.83889 0.83397 0.98718 0.0
C149 C 0.81014 0.80025 0.94345 0.0
C150 C 0.84856 0.76875 1.01944 0.0
C151 C 0.86088 0.6555 0.0979 0.0
H152 H 0.82831 0.47644 0.12745 0.0
H153 H 0.6401 0.33504 0.1696 0.0
H154 H 0.82883 0.44722 0.17154 0.0
H155 H 0.63956 0.36418 0.12522 0.0
H156 H 0.82065 0.69599 0.97863 0.0
H157 H 0.82725 0.88532 0.9582 0.0
H158 H 0.79628 0.71221 0.93575 0.0
H159 H 0.8501 0.86775 1.00157 0.0
Eu160 Eu 0.25169 0.80349 0.40532 0.0
Eu161 Eu 0.13917 0.80666 0.3793 0.0
C162 C 0.26898 0.90152 0.36628 0.0
C163 C 0.35643 0.79778 0.45408 0.0
C164 C 0.40712 0.84171 0.46619 0.0
C165 C 0.33311 0.73565 0.49194 0.0
C166 C 0.42065 0.83298 0.49094 0.0
C167 C 0.31932 0.74466 0.46718 0.0
C168 C 0.38402 0.77974 0.50414 0.0
C169 C 0.34255 0.80944 0.42824 0.0
O170 O 0.15453 0.74334 0.35557 0.0
O171 O 0.25206 0.77819 0.36432 0.0
C172 C 0.20529 0.74756 0.35002 0.0
O173 O 0.17448 0.71235 0.41197 0.0
O174 O 0.10378 0.85867 0.36227 0.0
O175 O 0.04869 0.76305 0.36584 0.0
O176 O 0.09907 0.73244 0.40801 0.0
C177 C 0.11917 0.6974 0.41493 0.0
O178 O 0.20132 0.81367 0.43719 0.0
O179 O 0.16399 0.86309 0.41514 0.0
O180 O 0.21947 0.86358 0.35556 0.0
O181 O 0.30532 0.76387 0.41476 0.0
O182 O 0.33397 0.85441 0.42608 0.0
O183 O 0.27715 0.89434 0.39026 0.0
C184 C 0.03778 0.8066 0.32876 0.0
C185 C 0.97835 0.78039 0.32215 0.0
C186 C 0.06317 0.81203 0.28393 0.0
C187 C 0.96128 0.76923 0.29662 0.0
C188 C 0.08016 0.82271 0.30947 0.0
C189 C 0.00346 0.78429 0.27727 0.0
C190 C 0.0545 0.81153 0.35574 0.0
C191 C 0.17963 0.84923 0.43675 0.0
H192 H 0.43605 0.88324 0.45655 0.0
H193 H 0.30414 0.69396 0.50141 0.0
H194 H 0.4595 0.86852 0.49986 0.0
H195 H 0.27959 0.71015 0.45835 0.0
H196 H 0.94502 0.76716 0.33679 0.0
H197 H 0.09655 0.8234 0.26947 0.0
H198 H 0.915 0.7482 0.29202 0.0
H199 H 0.12624 0.84205 0.3142 0.0
Eu200 Eu 0.42705 0.26801 0.73743 0.0
Eu201 Eu 0.30865 0.15684 0.71175 0.0
C202 C 0.34893 0.28921 0.70031 0.0
C203 C 0.53033 0.37279 0.78724 0.0
C204 C 0.56122 0.43197 0.79534 0.0
C205 C 0.52743 0.34016 0.83092 0.0
C206 C 0.57495 0.44528 0.82107 0.0
C207 C 0.51336 0.32688 0.80518 0.0
C208 C 0.55802 0.39953 0.83916 0.0
C209 C 0.51273 0.35939 0.76042 0.0
O210 O 0.38524 0.169 0.68803 0.0
O211 O 0.45217 0.26708 0.69628 0.0
C212 C 0.43325 0.21903 0.6822 0.0
O213 O 0.43802 0.18885 0.74318 0.0
O214 O 0.22376 0.12782 0.69368 0.0
O215 O 0.25531 0.06595 0.69819 0.0
O216 O 0.34268 0.11217 0.73799 0.0
C217 C 0.3976 0.13243 0.74494 0.0
O218 O 0.36721 0.21812 0.76982 0.0
O219 O 0.2796 0.17981 0.74865 0.0
O220 O 0.33712 0.24023 0.68872 0.0
O221 O 0.51837 0.31709 0.75 0.0
O222 O 0.46285 0.35562 0.75469 0.0
O223 O 0.36119 0.29321 0.7245 0.0
C224 C 0.20791 0.06205 0.65999 0.0
C225 C 0.25443 0.09355 0.64287 0.0
C226 C 0.14821 -0.00102 0.62535 0.0
C227 C 0.24834 0.0772 0.61727 0.0
C228 C 0.15447 0.0153 0.65106 0.0
C229 C 0.19553 0.02902 0.6083 0.0
C230 C 0.21686 0.07628 0.68725 0.0
C231 C 0.31016 0.19593 0.76994 0.0
H232 H 0.57421 0.46791 0.78178 0.0
H233 H 0.51332 0.304 0.84443 0.0
H234 H 0.59916 0.49146 0.82679 0.0
H235 H 0.48861 0.2808 0.79933 0.0
H236 H 0.296 0.12996 0.64943 0.0
H237 H 0.10721 0.96135 0.61906 0.0
H238 H 0.28535 0.10166 0.60458 0.0
H239 H 0.11818 -0.00952 0.66407 0.0
H240 H 0.11711 0.67232 0.31807 0.0
H241 H 0.30568 0.76327 0.32719 0.0
H242 H 0.12622 0.63315 0.27736 0.0
H243 H 0.31497 0.72583 0.28607 0.0
H244 H 0.30931 0.60733 0.22146 0.0
H245 H 0.29782 0.6394 0.26357 0.0
H246 H 0.15824 0.66502 0.2349 0.0
H247 H 0.16906 0.63164 0.19295 0.0
C248 C 0.16056 0.68398 0.31141 0.0
C249 C 0.21067 0.72098 0.32594 0.0
C250 C 0.16583 0.66186 0.28793 0.0
C251 C 0.22137 0.67652 0.27826 0.0
C252 C 0.27141 0.71284 0.29301 0.0
C253 C 0.26611 0.73458 0.3166 0.0
C254 C 0.2763 0.62 0.22417 0.0
C255 C 0.2402 0.6171 0.20387 0.0
C256 C 0.26976 0.63853 0.24831 0.0
C257 C 0.22719 0.65504 0.25272 0.0
C258 C 0.19082 0.65173 0.23239 0.0
C259 C 0.19709 0.63276 0.20829 0.0
H260 H 0.51754 0.31734 0.65649 0.0
H261 H 0.41597 0.12562 0.65279 0.0
H262 H 0.55941 0.31972 0.61453 0.0
H263 H 0.4574 0.1282 0.61118 0.0
H264 H 0.57805 0.14729 0.54644 0.0
H265 H 0.55125 0.15311 0.59035 0.0
H266 H 0.52101 0.29612 0.56962 0.0
H267 H 0.54913 0.29119 0.52569 0.0
C268 C 0.50465 0.27577 0.64691 0.0
C269 C 0.4633 0.22133 0.65799 0.0
C270 C 0.52833 0.27718 0.62283 0.0
C271 C 0.5117 0.22415 0.60956 0.0
C272 C 0.47168 0.16979 0.62102 0.0
C273 C 0.44768 0.1684 0.64486 0.0
C274 C 0.56664 0.18066 0.55131 0.0
C275 C 0.56551 0.21865 0.53254 0.0
C276 C 0.55083 0.18365 0.57643 0.0
C277 C 0.53377 0.22489 0.58343 0.0
C278 C 0.53438 0.26417 0.56486 0.0
C279 C 0.54985 0.26091 0.53966 0.0
H280 H 0.28998 0.54828 1.00115 0.0
H281 H 0.26953 0.37884 0.97926 0.0
H282 H 0.32467 0.58626 0.95808 0.0
H283 H 0.30403 0.41677 0.93671 0.0
H284 H 0.28808 0.47556 0.85683 0.0
H285 H 0.26098 0.44457 0.90082 0.0
H286 H 0.40751 0.61023 0.92669 0.0
H287 H 0.4358 0.64108 0.88246 0.0
C288 C 0.29353 0.51941 0.98734 0.0
C289 C 0.27642 0.46035 0.99366 0.0
C290 C 0.31346 0.5412 0.9627 0.0
C291 C 0.31626 0.50419 0.94395 0.0
C292 C 0.30127 0.44599 0.9506 0.0
C293 C 0.28173 0.42439 0.97511 0.0
C294 C 0.31506 0.50526 0.87181 0.0
C295 C 0.36452 0.56062 0.866 0.0
C296 C 0.29937 0.48751 0.89706 0.0
C297 C 0.33242 0.52477 0.91721 0.0
C298 C 0.38102 0.58075 0.91154 0.0
C299 C 0.39708 0.59842 0.88619 0.0
H300 H 0.83678 0.31003 0.32004 0.0
H301 H 0.64747 0.22184 0.32444 0.0
H302 H 0.83439 0.35114 0.27879 0.0
H303 H 0.64479 0.26094 0.28254 0.0
H304 H 0.66315 0.37825 0.21409 0.0
H305 H 0.66559 0.34556 0.25752 0.0
H306 H 0.80946 0.31891 0.23649 0.0
H307 H 0.80789 0.35311 0.19355 0.0
C308 C 0.79456 0.29936 0.3122 0.0
C309 C 0.74229 0.26224 0.3255 0.0
C310 C 0.79313 0.3226 0.28838 0.0
C311 C 0.73934 0.30877 0.27702 0.0
C312 C 0.6871 0.27306 0.29071 0.0
C313 C 0.68859 0.25035 0.31473 0.0
C314 C 0.69521 0.36534 0.21884 0.0
C315 C 0.73556 0.36859 0.20045 0.0
C316 C 0.69656 0.34643 0.24371 0.0
C317 C 0.73795 0.32981 0.25069 0.0
C318 C 0.77789 0.33267 0.23211 0.0
C319 C 0.77689 0.35209 0.2074 0.0
H320 H 0.42357 0.67335 0.65935 0.0
H321 H 0.54671 0.86129 0.65041 0.0
H322 H 0.38737 0.67076 0.61598 0.0
H323 H 0.51114 0.85814 0.6076 0.0
H324 H 0.49295 0.81405 0.52345 0.0
H325 H 0.51917 0.80796 0.5673 0.0
H326 H 0.3361 0.71753 0.5887 0.0
H327 H 0.30945 0.72516 0.54475 0.0
C328 C 0.44236 0.71409 0.64836 0.0
C329 C 0.48835 0.76737 0.65836 0.0
C330 C 0.42168 0.71255 0.62357 0.0
C331 C 0.44712 0.76409 0.60836 0.0
C332 C 0.49145 0.81753 0.61873 0.0
C333 C 0.51161 0.81924 0.64339 0.0
C334 C 0.45812 0.79324 0.53745 0.0
C335 C 0.39911 0.771 0.53055 0.0
C336 C 0.4732 0.78949 0.56256 0.0
C337 C 0.42969 0.76282 0.58142 0.0
C338 C 0.37046 0.73812 0.57448 0.0
C339 C 0.3553 0.74242 0.5493 0.0
H340 H 0.7202 0.60604 0.97142 0.0
H341 H 0.6535 0.42891 1.00151 0.0
H342 H 0.67262 0.56509 0.93114 0.0
H343 H 0.60419 0.38737 0.96082 0.0
H344 H 0.60186 0.35086 0.87273 0.0
H345 H 0.63355 0.38138 0.91659 0.0
H346 H 0.57733 0.51093 0.9112 0.0
H347 H 0.54637 0.48089 0.86738 0.0
C348 C 0.695 0.55819 0.96951 0.0
C349 C 0.69123 0.52075 0.98964 0.0
C350 C 0.66707 0.53465 0.94641 0.0
C351 C 0.63447 0.47291 0.94273 0.0
C352 C 0.62942 0.43517 0.96302 0.0
C353 C 0.65729 0.4589 0.98635 0.0
C354 C 0.59551 0.38524 0.88108 0.0
C355 C 0.57246 0.41412 0.86649 0.0
C356 C 0.61347 0.40258 0.90623 0.0
C357 C 0.60854 0.44901 0.91731 0.0
C358 C 0.58286 0.47585 0.90306 0.0
C359 C 0.5652 0.45873 0.87795 0.0
H360 H 0.3355 0.38235 0.11577 0.0
H361 H 0.34184 0.34008 0.03698 0.0
H362 H 0.4419 0.43158 0.11826 0.0
H363 H 0.4488 0.38818 0.0394 0.0
H364 H 0.61178 0.57597 0.03973 0.0
H365 H 0.50979 0.49669 0.0411 0.0
H366 H 0.53842 0.44171 0.11485 0.0
H367 H 0.64029 0.52224 0.11385 0.0
C368 C 0.35964 0.38003 0.0995 0.0
C369 C 0.33108 0.35772 0.07621 0.0
C370 C 0.4207 0.40881 0.10081 0.0
C371 C 0.45368 0.41546 0.07876 0.0
C372 C 0.42434 0.385 0.0565 0.0
C373 C 0.36314 0.3563 0.05523 0.0
C374 C 0.5962 0.54758 0.05641 0.0
C375 C 0.6341 0.55554 0.0767 0.0
C376 C 0.53806 0.50127 0.05696 0.0
C377 C 0.51651 0.46193 0.0778 0.0
C378 C 0.5539 0.47097 0.09845 0.0
C379 C 0.61208 0.51741 0.09793 0.0
H380 H 0.14451 0.61735 0.43669 0.0
H381 H -0.00041 0.64186 0.41516 0.0
H382 H 0.07566 0.51313 0.44614 0.0
H383 H 0.93138 0.53792 0.42377 0.0
H384 H 0.94874 0.3279 0.40955 0.0
H385 H 0.02018 0.43107 0.41827 0.0
H386 H 0.88391 0.45536 0.45205 0.0
H387 H 0.81189 0.35236 0.44243 0.0
C388 C 0.09792 0.60071 0.43428 0.0
C389 C 0.07751 0.6375 0.4247 0.0
C390 C 0.05855 0.54102 0.43965 0.0
C391 C -0.00189 0.51696 0.43537 0.0
C392 C 0.97751 0.55495 0.42756 0.0
C393 C 0.01678 0.61465 0.42238 0.0
C394 C 0.93426 0.35486 0.41936 0.0
C395 C 0.87459 0.33258 0.42476 0.0
C396 C 0.97537 0.41405 0.42454 0.0
C397 C 0.95757 0.45179 0.43548 0.0
C398 C 0.89872 0.42777 0.44303 0.0
C399 C 0.85751 0.3688 0.43757 0.0
H400 H 0.33793 0.01149 0.73982 0.0
H401 H 0.50032 0.15799 0.7682 0.0
H402 H 0.37639 0.94484 0.74642 0.0
H403 H 0.53823 0.09103 0.77535 0.0
H404 H 0.44745 0.829 0.76904 0.0
H405 H 0.40942 0.89602 0.77558 0.0
H406 H 0.57198 0.04207 0.74675 0.0
H407 H 0.61054 0.97538 0.74076 0.0
C408 C 0.38125 0.0292 0.74806 0.0
C409 C 0.41637 0.09016 0.7531 0.0
C410 C 0.4033 -0.00905 0.75196 0.0
C411 C 0.46075 0.01281 0.76115 0.0
C412 C 0.49432 0.07307 0.76777 0.0
C413 C 0.47242 0.11135 0.76375 0.0
C414 C 0.47549 0.87562 0.7645 0.0
C415 C 0.53176 0.89675 0.75403 0.0
C416 C 0.45352 0.91394 0.76816 0.0
C417 C 0.48725 0.97417 0.76136 0.0
C418 C 0.54493 -0.00402 0.75241 0.0
C419 C 0.56704 0.9577 0.74886 0.0
H420 H 0.6139 0.605 0.71165 0.0
H421 H 0.52702 0.66475 0.65984 0.0
H422 H 0.5482 0.50249 0.69832 0.0
H423 H 0.4589 0.56151 0.64766 0.0
H424 H 0.42102 0.32409 0.65893 0.0
H425 H 0.48923 0.42785 0.64724 0.0
H426 H 0.39874 0.48459 0.69828 0.0
H427 H 0.33303 0.38155 0.71114 0.0
C428 C 0.58247 0.59638 0.6966 0.0
C429 C 0.57528 0.64243 0.68681 0.0
C430 C 0.54497 0.53791 0.68899 0.0
C431 C 0.49886 0.52466 0.67201 0.0
C432 C 0.49475 0.57107 0.66051 0.0
C433 C 0.53366 0.62994 0.66752 0.0
C434 C 0.41417 0.35855 0.66679 0.0
C435 C 0.37227 0.34524 0.68609 0.0
C436 C 0.45311 0.41772 0.66006 0.0
C437 C 0.4487 0.4636 0.67183 0.0
C438 C 0.40223 0.44959 0.68875 0.0
C439 C 0.3647 0.39081 0.69609 0.0
H440 H 0.09692 0.49326 0.07463 0.0
H441 H 0.06238 0.40412 1.00193 0.0
H442 H 0.05418 0.55074 0.05941 0.0
H443 H 0.01937 0.46275 0.98649 0.0
H444 H -0.00911 0.66045 0.03333 0.0
H445 H 0.06241 0.62741 0.02924 0.0
H446 H 0.92734 0.45985 0.99879 0.0
H447 H 0.85669 0.49329 1.00226 0.0
C448 C 0.08044 0.48611 0.0553 0.0
C449 C 0.08211 0.44341 0.03961 0.0
C450 C 0.05695 0.52002 0.04639 0.0
C451 C 0.03425 0.51193 0.0216 0.0
C452 C 0.0369 0.47007 1.00564 0.0
C453 C 0.06095 0.43622 1.01454 0.0
C454 C 0.97724 0.61771 0.0247 0.0
C455 C 0.91802 0.57845 1.01899 0.0
C456 C 0.01805 0.59868 0.02246 0.0
C457 C -0.00018 0.54035 1.01452 0.0
C458 C 0.94263 0.50483 1.00516 0.0
C459 C 0.90198 0.52381 1.00739 0.0
H460 H 0.35573 0.01442 0.37466 0.0
H461 H 0.30209 0.86515 0.32433 0.0
H462 H 0.45683 0.05688 0.35966 0.0
H463 H 0.40419 0.90578 0.3106 0.0
H464 H 0.58038 0.96423 0.3736 0.0
H465 H 0.47936 0.92333 0.35884 0.0
H466 H 0.53309 0.07768 0.31138 0.0
H467 H 0.63514 0.1168 0.32487 0.0
C468 C 0.3652 -0.00773 0.3595 0.0
C469 C 0.32163 0.93662 0.35071 0.0
C470 C 0.42286 0.01647 0.3509 0.0
C471 C 0.43778 0.98433 0.33406 0.0
C472 C 0.39329 0.93153 0.32333 0.0
C473 C 0.33508 0.90837 0.33125 0.0
C474 C 0.57112 0.9875 0.35883 0.0
C475 C 0.615 0.04344 0.35035 0.0
C476 C 0.51353 0.9642 0.35037 0.0
C477 C 0.49898 -0.00243 0.33402 0.0
C478 C 0.54372 0.05098 0.32369 0.0
C479 C 0.60185 0.07325 0.33145 0.0
H480 H 0.36327 0.23727 0.81569 0.0
H481 H 0.19172 0.14358 0.78061 0.0
H482 H 0.31826 0.23039 0.85662 0.0
H483 H 0.14612 0.13547 0.82229 0.0
H484 H 0.09954 0.1997 0.89807 0.0
H485 H 0.13507 0.19633 0.85533 0.0
H486 H 0.26219 0.15718 0.88831 0.0
H487 H 0.22754 0.16174 0.93076 0.0
C488 C 0.31575 0.2146 0.8167 0.0
C489 C 0.2811 0.19057 0.79479 0.0
C490 C 0.28987 0.21035 0.84032 0.0
C491 C 0.2285 0.18163 0.84286 0.0
C492 C 0.19355 0.15803 0.82096 0.0
C493 C 0.21964 0.16245 0.79712 0.0
C494 C 0.13451 0.18956 0.89607 0.0
C495 C 0.16134 0.18177 0.91773 0.0
C496 C 0.1548 0.18753 0.87162 0.0
C497 C 0.20209 0.17738 0.86841 0.0
C498 C 0.22672 0.16662 0.8901 0.0
C499 C 0.20679 0.16907 0.91443 0.0
H500 H 0.90398 0.21789 0.23843 0.0
H501 H 0.02644 0.15811 0.25588 0.0
H502 H 0.94607 0.2466 0.19581 0.0
H503 H 0.06958 0.18888 0.21356 0.0
H504 H 0.17799 0.33519 0.15297 0.0
H505 H 0.12823 0.292 0.19313 0.0
H506 H 0.96153 0.20257 0.15414 0.0
H507 H 0.01149 0.2455 0.11364 0.0
C508 C 0.93915 0.20992 0.23312 0.0
C509 C 0.96207 0.18607 0.25076 0.0
C510 C 0.96333 0.22655 0.2087 0.0
C511 C 0.01131 0.22032 0.20149 0.0
C512 C 0.03309 0.19488 0.21877 0.0
C513 C 0.00852 0.17758 0.24305 0.0
C514 C 0.13076 0.30605 0.15288 0.0
C515 C 0.09865 0.2938 0.13013 0.0
C516 C 0.10235 0.28104 0.17586 0.0
C517 C 0.04109 0.24387 0.17671 0.0
C518 C 0.00882 0.23126 0.15399 0.0
C519 C 0.03743 0.25557 0.13084 0.0
H520 H 0.82724 0.07594 0.59314 0.0
H521 H 0.71565 0.89686 0.56589 0.0
H522 H 0.83362 0.1139 0.55021 0.0
H523 H 0.72033 0.93539 0.52293 0.0
H524 H 0.77794 0.02893 0.4442 0.0
H525 H 0.78571 0.98893 0.48548 0.0
H526 H 0.76066 0.12102 0.52395 0.0
H527 H 0.75358 0.16096 0.48332 0.0
C528 C 0.80478 0.04449 0.57795 0.0
C529 C 0.77062 0.98331 0.58306 0.0
C530 C 0.80795 0.06638 0.55335 0.0
C531 C 0.77692 0.02772 0.53323 0.0
C532 C 0.7449 0.96629 0.53802 0.0
C533 C 0.74169 0.94431 0.56269 0.0
C534 C 0.77451 0.04952 0.46151 0.0
C535 C 0.76505 0.09806 0.46043 0.0
C536 C 0.77868 0.02649 0.48511 0.0
C537 C 0.77422 0.05211 0.50797 0.0
C538 C 0.76532 0.10088 0.50674 0.0
C539 C 0.76074 0.12346 0.48334 0.0
H540 H 0.58879 0.77099 0.81846 0.0
H541 H 0.75428 0.82918 0.78004 0.0
H542 H 0.63574 0.78003 0.85923 0.0
H543 H 0.80169 0.83909 0.82125 0.0
H544 H 0.8383 0.77062 0.8976 0.0
H545 H 0.8006 0.774 0.85559 0.0
H546 H 0.70622 0.85376 0.8884 0.0
H547 H 0.74202 0.84828 0.93052 0.0
C548 C 0.63539 0.78618 0.81868 0.0
C549 C 0.66773 0.79926 0.79589 0.0
C550 C 0.66243 0.79181 0.84215 0.0
C551 C 0.72256 0.81061 0.84354 0.0
C552 C 0.75518 0.82413 0.8208 0.0
C553 C 0.72808 0.8187 0.79721 0.0
C554 C 0.80954 0.78893 0.89584 0.0
C555 C 0.79271 0.8086 0.91749 0.0
C556 C 0.78847 0.7915 0.87171 0.0
C557 C 0.75003 0.81373 0.86866 0.0
C558 C 0.7351 0.8356 0.89015 0.0
C559 C 0.75619 0.83307 0.91427 0.0
H560 H 0.91543 0.67885 0.25926 0.0
H561 H 0.05031 0.85313 0.23459 0.0
H562 H 0.886 0.65085 0.21513 0.0
H563 H 0.0212 0.82475 0.19021 0.0
H564 H 0.89622 0.76487 0.11884 0.0
H565 H 0.93394 0.7983 0.1618 0.0
H566 H 0.92856 0.63229 0.17617 0.0
H567 H 0.89077 0.59865 0.13348 0.0
C568 C 0.93853 0.71129 0.24439 0.0
C569 C -0.01498 0.76825 0.25038 0.0
C570 C 0.92213 0.69505 0.21911 0.0
C571 C 0.95155 0.7355 0.19921 0.0
C572 C -0.00237 0.79275 0.20517 0.0
C573 C 0.01448 0.80884 0.23051 0.0
C574 C 0.90373 0.73578 0.13105 0.0
C575 C 0.89009 0.67893 0.12273 0.0
C576 C 0.92551 0.75503 0.15562 0.0
C577 C 0.93359 0.71764 0.17241 0.0
C578 C 0.9219 0.66171 0.16378 0.0
C579 C 0.90061 0.64265 0.13922 0.0
H580 H 0.2776 0.01506 0.58275 0.0
H581 H 0.10472 -0.00661 0.57414 0.0
H582 H 0.27043 0.9742 0.54044 0.0
H583 H 0.09723 0.95123 0.53157 0.0
H584 H 0.1456 0.9323 0.4455 0.0
H585 H 0.14712 0.97888 0.4864 0.0
H586 H 0.20583 0.87039 0.52396 0.0
H587 H 0.20447 0.82433 0.48381 0.0
C588 C 0.23833 0.00231 0.57167 0.0
C589 C 0.1917 0.00743 0.58181 0.0
C590 C 0.23404 0.97841 0.54752 0.0
C591 C 0.18308 0.95911 0.53283 0.0
C592 C 0.13706 0.96594 0.5425 0.0
C593 C 0.14116 0.98953 0.56689 0.0
C594 C 0.15835 0.91819 0.46255 0.0
C595 C 0.17551 0.87506 0.46127 0.0
C596 C 0.15909 0.94472 0.48592 0.0
C597 C 0.17746 0.92881 0.50823 0.0
C598 C 0.19261 0.88438 0.50699 0.0
C599 C 0.19157 0.85783 0.48389 0.0
loop_
_geom_bond_atom_site_label_1
_geom_bond_atom_site_label_2
_geom_bond_distance
_geom_bond_site_symmetry_2
_ccdc_geom_bond_type
Eu0 C9 2.828 . S
Eu0 O11 2.392 . S
Eu0 O13 2.418 . S
Eu0 O18 2.373 . S
Eu0 O21 2.488 . S
Eu0 O22 2.471 . S
Eu0 O23 2.349 . S
Eu1 O10 2.373 1_554 S
Eu1 O14 2.488 1_554 S
Eu1 O15 2.471 1_554 S
Eu1 O16 2.349 . S
Eu1 O19 2.392 . S
Eu1 O20 2.418 . S
Eu1 C30 2.828 1_554 S
C2 O20 1.244 . S
C2 O23 1.265 . S
C3 C4 1.379 . S
C3 C7 1.373 . S
C3 C9 1.505 . S
C4 C3 1.379 . S
C4 C6 1.369 . S
C4 H32 0.930 . S
C5 C7 1.383 . S
C5 C8 1.382 . S
C5 H33 0.930 . S
C6 C4 1.369 . S
C6 C8 1.392 . S
C6 H34 0.930 . S
C7 C3 1.373 . S
C7 C5 1.383 . S
C7 H35 0.931 . S
C8 C5 1.382 . S
C8 C6 1.392 . S
C9 Eu0 2.828 . S
C9 C3 1.505 . S
C9 O21 1.249 . S
C9 O22 1.244 . S
O10 Eu1 2.373 1_556 S
O10 C12 1.258 . S
O11 Eu0 2.392 . S
O11 C12 1.242 1_554 S
C12 O10 1.258 . S
C12 O11 1.242 1_556 S
O13 Eu0 2.418 . S
O13 C17 1.244 . S
O14 Eu1 2.488 1_556 S
O14 C30 1.249 . S
O15 Eu1 2.471 1_556 S
O15 C30 1.244 . S
O16 Eu1 2.349 . S
O16 C17 1.265 . S
C17 O13 1.244 . S
C17 O16 1.265 . S
O18 Eu0 2.373 . S
O18 C31 1.258 . S
O19 Eu1 2.392 . S
O19 C31 1.242 . S
O20 Eu1 2.418 . S
O20 C2 1.244 . S
O21 Eu0 2.488 . S
O21 C9 1.249 . S
O22 Eu0 2.471 . S
O22 C9 1.244 . S
O23 Eu0 2.349 . S
O23 C2 1.265 . S
C24 C25 1.379 . S
C24 C28 1.373 . S
C24 C30 1.505 . S
C25 C24 1.379 . S
C25 C27 1.369 . S
C25 H36 0.930 . S
C26 C28 1.383 . S
C26 C29 1.382 . S
C26 H37 0.930 . S
C27 C25 1.369 . S
C27 C29 1.392 . S
C27 H38 0.930 . S
C28 C24 1.373 . S
C28 C26 1.383 . S
C28 H39 0.931 . S
C29 C26 1.382 . S
C29 C27 1.392 . S
C30 Eu1 2.828 1_556 S
C30 O14 1.249 . S
C30 O15 1.244 . S
C30 C24 1.505 . S
C31 O18 1.258 . S
C31 O19 1.242 . S
H32 C4 0.930 . S
H33 C5 0.930 . S
H34 C6 0.930 . S
H35 C7 0.931 . S
H36 C25 0.930 . S
H37 C26 0.930 . S
H38 C27 0.930 . S
H39 C28 0.931 . S
Eu40 C49 2.828 . S
Eu40 O51 2.392 . S
Eu40 O53 2.418 . S
Eu40 O58 2.373 . S
Eu40 O61 2.488 . S
Eu40 O62 2.471 . S
Eu40 O63 2.349 . S
Eu41 O50 2.373 . S
Eu41 O54 2.488 . S
Eu41 O55 2.471 . S
Eu41 O56 2.349 . S
Eu41 O59 2.392 . S
Eu41 O60 2.418 . S
Eu41 C70 2.828 . S
C42 O60 1.244 . S
C42 O63 1.265 . S
C43 C44 1.379 . S
C43 C47 1.373 . S
C43 C49 1.505 . S
C44 C43 1.379 . S
C44 C46 1.369 . S
C44 H72 0.930 . S
C45 C47 1.383 . S
C45 C48 1.382 . S
C45 H73 0.930 . S
C46 C44 1.369 . S
C46 C48 1.392 . S
C46 H74 0.930 . S
C47 C43 1.373 . S
C47 C45 1.383 . S
C47 H75 0.931 . S
C48 C45 1.382 . S
C48 C46 1.392 . S
C49 Eu40 2.828 . S
C49 C43 1.505 . S
C49 O61 1.249 . S
C49 O62 1.244 . S
O50 Eu41 2.373 . S
O50 C52 1.258 . S
O51 Eu40 2.392 . S
O51 C52 1.242 . S
C52 O50 1.258 . S
C52 O51 1.242 . S
O53 Eu40 2.418 . S
O53 C57 1.244 . S
O54 Eu41 2.488 . S
O54 C70 1.249 . S
O55 Eu41 2.471 . S
O55 C70 1.244 . S
O56 Eu41 2.349 . S
O56 C57 1.265 . S
C57 O53 1.244 . S
C57 O56 1.265 . S
O58 Eu40 2.373 . S
O58 C71 1.258 . S
O59 Eu41 2.392 . S
O59 C71 1.242 . S
O60 Eu41 2.418 . S
O60 C42 1.244 . S
O61 Eu40 2.488 . S
O61 C49 1.249 . S
O62 Eu40 2.471 . S
O62 C49 1.244 . S
O63 Eu40 2.349 . S
O63 C42 1.265 . S
C64 C65 1.379 . S
C64 C68 1.373 . S
C64 C70 1.505 . S
C65 C64 1.379 . S
C65 C67 1.369 . S
C65 H76 0.930 . S
C66 C68 1.383 . S
C66 C69 1.382 . S
C66 H77 0.930 . S
C67 C65 1.369 . S
C67 C69 1.392 . S
C67 H78 0.930 1_655 S
C68 C64 1.373 . S
C68 C66 1.383 . S
C68 H79 0.931 . S
C69 C66 1.382 . S
C69 C67 1.392 . S
C70 Eu41 2.828 . S
C70 O54 1.249 . S
C70 O55 1.244 . S
C70 C64 1.505 . S
C71 O58 1.258 . S
C71 O59 1.242 . S
H72 C44 0.930 . S
H73 C45 0.930 . S
H74 C46 0.930 . S
H75 C47 0.931 . S
H76 C65 0.930 . S
H77 C66 0.930 . S
H78 C67 0.930 1_455 S
H79 C68 0.931 . S
Eu80 C89 2.828 . S
Eu80 O91 2.392 . S
Eu80 O93 2.418 . S
Eu80 O98 2.373 . S
Eu80 O101 2.488 . S
Eu80 O102 2.471 . S
Eu80 O103 2.349 . S
Eu81 O90 2.373 . S
Eu81 O94 2.488 . S
Eu81 O95 2.471 . S
Eu81 O96 2.349 . S
Eu81 O99 2.392 . S
Eu81 O100 2.418 . S
Eu81 C110 2.828 . S
C82 O100 1.244 . S
C82 O103 1.265 . S
C83 C84 1.379 . S
C83 C87 1.373 . S
C83 C89 1.505 . S
C84 C83 1.379 . S
C84 C86 1.369 . S
C84 H112 0.930 . S
C85 C87 1.383 . S
C85 C88 1.382 . S
C85 H113 0.930 . S
C86 C84 1.369 . S
C86 C88 1.392 . S
C86 H114 0.930 . S
C87 C83 1.373 . S
C87 C85 1.383 . S
C87 H115 0.931 . S
C88 C85 1.382 . S
C88 C86 1.392 . S
C89 Eu80 2.828 . S
C89 C83 1.505 . S
C89 O101 1.249 . S
C89 O102 1.244 . S
O90 Eu81 2.373 . S
O90 C92 1.258 . S
O91 Eu80 2.392 . S
O91 C92 1.242 . S
C92 O90 1.258 . S
C92 O91 1.242 . S
O93 Eu80 2.418 . S
O93 C97 1.244 . S
O94 Eu81 2.488 . S
O94 C110 1.249 . S
O95 Eu81 2.471 . S
O95 C110 1.244 . S
O96 Eu81 2.349 . S
O96 C97 1.265 . S
C97 O93 1.244 . S
C97 O96 1.265 . S
O98 Eu80 2.373 . S
O98 C111 1.258 . S
O99 Eu81 2.392 . S
O99 C111 1.242 . S
O100 Eu81 2.418 . S
O100 C82 1.244 . S
O101 Eu80 2.488 . S
O101 C89 1.249 . S
O102 Eu80 2.471 . S
O102 C89 1.244 . S
O103 Eu80 2.349 . S
O103 C82 1.265 . S
C104 C105 1.379 . S
C104 C108 1.373 . S
C104 C110 1.505 . S
C105 C104 1.379 . S
C105 C107 1.369 . S
C105 H116 0.930 . S
C106 C108 1.383 . S
C106 C109 1.382 . S
C106 H117 0.930 . S
C107 C105 1.369 . S
C107 C109 1.392 . S
C107 H118 0.930 1_565 S
C108 C104 1.373 . S
C108 C106 1.383 . S
C108 H119 0.931 . S
C109 C106 1.382 . S
C109 C107 1.392 . S
C110 Eu81 2.828 . S
C110 O94 1.249 . S
C110 O95 1.244 . S
C110 C104 1.505 . S
C111 O98 1.258 . S
C111 O99 1.242 . S
H112 C84 0.930 . S
H113 C85 0.930 . S
H114 C86 0.930 . S
H115 C87 0.931 . S
H116 C105 0.930 . S
H117 C106 0.930 . S
H118 C107 0.930 1_545 S
H119 C108 0.931 . S
Eu120 C129 2.828 . S
Eu120 O131 2.392 . S
Eu120 O133 2.418 . S
Eu120 O138 2.373 . S
Eu120 O141 2.488 . S
Eu120 O142 2.471 . S
Eu120 O143 2.349 . S
Eu121 O130 2.373 1_554 S
Eu121 O134 2.488 1_554 S
Eu121 O135 2.471 1_554 S
Eu121 O136 2.349 . S
Eu121 O139 2.392 . S
Eu121 O140 2.418 . S
Eu121 C150 2.828 1_554 S
C122 O140 1.244 . S
C122 O143 1.265 . S
C123 C124 1.379 . S
C123 C127 1.373 . S
C123 C129 1.505 . S
C124 C123 1.379 . S
C124 C126 1.369 . S
C124 H152 0.930 . S
C125 C127 1.383 . S
C125 C128 1.382 . S
C125 H153 0.930 . S
C126 C124 1.369 . S
C126 C128 1.392 . S
C126 H154 0.930 . S
C127 C123 1.373 . S
C127 C125 1.383 . S
C127 H155 0.931 . S
C128 C125 1.382 . S
C128 C126 1.392 . S
C129 Eu120 2.828 . S
C129 C123 1.505 . S
C129 O141 1.249 . S
C129 O142 1.244 . S
O130 Eu121 2.373 1_556 S
O130 C132 1.258 . S
O131 Eu120 2.392 . S
O131 C132 1.242 1_554 S
C132 O130 1.258 . S
C132 O131 1.242 1_556 S
O133 Eu120 2.418 . S
O133 C137 1.244 . S
O134 Eu121 2.488 1_556 S
O134 C150 1.249 . S
O135 Eu121 2.471 1_556 S
O135 C150 1.244 . S
O136 Eu121 2.349 . S
O136 C137 1.265 . S
C137 O133 1.244 . S
C137 O136 1.265 . S
O138 Eu120 2.373 . S
O138 C151 1.258 . S
O139 Eu121 2.392 . S
O139 C151 1.242 . S
O140 Eu121 2.418 . S
O140 C122 1.244 . S
O141 Eu120 2.488 . S
O141 C129 1.249 . S
O142 Eu120 2.471 . S
O142 C129 1.244 . S
O143 Eu120 2.349 . S
O143 C122 1.265 . S
C144 C145 1.379 . S
C144 C148 1.373 . S
C144 C150 1.505 . S
C145 C144 1.379 . S
C145 C147 1.369 . S
C145 H156 0.930 . S
C146 C148 1.383 . S
C146 C149 1.382 . S
C146 H157 0.930 . S
C147 C145 1.369 . S
C147 C149 1.392 . S
C147 H158 0.930 . S
C148 C144 1.373 . S
C148 C146 1.383 . S
C148 H159 0.931 . S
C149 C146 1.382 . S
C149 C147 1.392 . S
C150 Eu121 2.828 1_556 S
C150 O134 1.249 . S
C150 O135 1.244 . S
C150 C144 1.505 . S
C151 O138 1.258 . S
C151 O139 1.242 . S
H152 C124 0.930 . S
H153 C125 0.930 . S
H154 C126 0.930 . S
H155 C127 0.931 . S
H156 C145 0.930 . S
H157 C146 0.930 . S
H158 C147 0.930 . S
H159 C148 0.931 . S
Eu160 C169 2.828 . S
Eu160 O171 2.392 . S
Eu160 O173 2.418 . S
Eu160 O178 2.373 . S
Eu160 O181 2.488 . S
Eu160 O182 2.471 . S
Eu160 O183 2.349 . S
Eu161 O170 2.373 . S
Eu161 O174 2.488 . S
Eu161 O175 2.471 . S
Eu161 O176 2.349 . S
Eu161 O179 2.392 . S
Eu161 O180 2.418 . S
Eu161 C190 2.828 . S
C162 O180 1.244 . S
C162 O183 1.265 . S
C163 C164 1.379 . S
C163 C167 1.373 . S
C163 C169 1.505 . S
C164 C163 1.379 . S
C164 C166 1.369 . S
C164 H192 0.930 . S
C165 C167 1.383 . S
C165 C168 1.382 . S
C165 H193 0.930 . S
C166 C164 1.369 . S
C166 C168 1.392 . S
C166 H194 0.930 . S
C167 C163 1.373 . S
C167 C165 1.383 . S
C167 H195 0.931 . S
C168 C165 1.382 . S
C168 C166 1.392 . S
C169 Eu160 2.828 . S
C169 C163 1.505 . S
C169 O181 1.249 . S
C169 O182 1.244 . S
O170 Eu161 2.373 . S
O170 C172 1.258 . S
O171 Eu160 2.392 . S
O171 C172 1.242 . S
C172 O170 1.258 . S
C172 O171 1.242 . S
O173 Eu160 2.418 . S
O173 C177 1.244 . S
O174 Eu161 2.488 . S
O174 C190 1.249 . S
O175 Eu161 2.471 . S
O175 C190 1.244 . S
O176 Eu161 2.349 . S
O176 C177 1.265 . S
C177 O173 1.244 . S
C177 O176 1.265 . S
O178 Eu160 2.373 . S
O178 C191 1.258 . S
O179 Eu161 2.392 . S
O179 C191 1.242 . S
O180 Eu161 2.418 . S
O180 C162 1.244 . S
O181 Eu160 2.488 . S
O181 C169 1.249 . S
O182 Eu160 2.471 . S
O182 C169 1.244 . S
O183 Eu160 2.349 . S
O183 C162 1.265 . S
C184 C185 1.379 . S
C184 C188 1.373 . S
C184 C190 1.505 . S
C185 C184 1.379 . S
C185 C187 1.369 . S
C185 H196 0.930 . S
C186 C188 1.383 . S
C186 C189 1.382 . S
C186 H197 0.930 . S
C187 C185 1.369 . S
C187 C189 1.392 . S
C187 H198 0.930 1_455 S
C188 C184 1.373 . S
C188 C186 1.383 . S
C188 H199 0.931 . S
C189 C186 1.382 . S
C189 C187 1.392 . S
C190 Eu161 2.828 . S
C190 O174 1.249 . S
C190 O175 1.244 . S
C190 C184 1.505 . S
C191 O178 1.258 . S
C191 O179 1.242 . S
H192 C164 0.930 . S
H193 C165 0.930 . S
H194 C166 0.930 . S
H195 C167 0.931 . S
H196 C185 0.930 . S
H197 C186 0.930 . S
H198 C187 0.930 1_655 S
H199 C188 0.931 . S
Eu200 C209 2.828 . S
Eu200 O211 2.392 . S
Eu200 O213 2.418 . S
Eu200 O218 2.373 . S
Eu200 O221 2.488 . S
Eu200 O222 2.471 . S
Eu200 O223 2.349 . S
Eu201 O210 2.373 . S
Eu201 O214 2.488 . S
Eu201 O215 2.471 . S
Eu201 O216 2.349 . S
Eu201 O219 2.392 . S
Eu201 O220 2.418 . S
Eu201 C230 2.828 . S
C202 O220 1.244 . S
C202 O223 1.265 . S
C203 C204 1.379 . S
C203 C207 1.373 . S
C203 C209 1.505 . S
C204 C203 1.379 . S
C204 C206 1.369 . S
C204 H232 0.930 . S
C205 C207 1.383 . S
C205 C208 1.382 . S
C205 H233 0.930 . S
C206 C204 1.369 . S
C206 C208 1.392 . S
C206 H234 0.930 . S
C207 C203 1.373 . S
C207 C205 1.383 . S
C207 H235 0.931 . S
C208 C205 1.382 . S
C208 C206 1.392 . S
C209 Eu200 2.828 . S
C209 C203 1.505 . S
C209 O221 1.249 . S
C209 O222 1.244 . S
O210 Eu201 2.373 . S
O210 C212 1.258 . S
O211 Eu200 2.392 . S
O211 C212 1.242 . S
C212 O210 1.258 . S
C212 O211 1.242 . S
O213 Eu200 2.418 . S
O213 C217 1.244 . S
O214 Eu201 2.488 . S
O214 C230 1.249 . S
O215 Eu201 2.471 . S
O215 C230 1.244 . S
O216 Eu201 2.349 . S
O216 C217 1.265 . S
C217 O213 1.244 . S
C217 O216 1.265 . S
O218 Eu200 2.373 . S
O218 C231 1.258 . S
O219 Eu201 2.392 . S
O219 C231 1.242 . S
O220 Eu201 2.418 . S
O220 C202 1.244 . S
O221 Eu200 2.488 . S
O221 C209 1.249 . S
O222 Eu200 2.471 . S
O222 C209 1.244 . S
O223 Eu200 2.349 . S
O223 C202 1.265 . S
C224 C225 1.379 . S
C224 C228 1.373 . S
C224 C230 1.505 . S
C225 C224 1.379 . S
C225 C227 1.369 . S
C225 H236 0.930 . S
C226 C228 1.383 . S
C226 C229 1.382 . S
C226 H237 0.930 . S
C227 C225 1.369 . S
C227 C229 1.392 . S
C227 H238 0.930 1_545 S
C228 C224 1.373 . S
C228 C226 1.383 . S
C228 H239 0.931 . S
C229 C226 1.382 . S
C229 C227 1.392 . S
C230 Eu201 2.828 . S
C230 O214 1.249 . S
C230 O215 1.244 . S
C230 C224 1.505 . S
C231 O218 1.258 . S
C231 O219 1.242 . S
H232 C204 0.930 . S
H233 C205 0.930 . S
H234 C206 0.930 . S
H235 C207 0.931 . S
H236 C225 0.930 . S
H237 C226 0.930 . S
H238 C227 0.930 1_565 S
H239 C228 0.931 . S
H240 C248 0.950 . S
H241 C253 0.950 . S
H242 C250 0.950 . S
H243 C252 0.950 . S
H244 C254 0.950 . S
H245 C256 0.950 . S
H246 C258 0.950 . S
H247 C259 0.950 . S
C248 H240 0.950 . S
C248 C249 1.386 . S
C248 C250 1.391 . S
C249 C248 1.386 . S
C249 C253 1.393 . S
C250 H242 0.950 . S
C250 C248 1.391 . S
C250 C251 1.400 . S
C251 C250 1.400 . S
C251 C252 1.398 . S
C251 C257 1.491 . S
C252 H243 0.950 . S
C252 C251 1.398 . S
C252 C253 1.391 . S
C253 H241 0.950 . S
C253 C249 1.393 . S
C253 C252 1.391 . S
C254 H244 0.950 . S
C254 C255 1.386 . S
C254 C256 1.391 . S
C255 C254 1.386 . S
C255 C259 1.393 . S
C256 H245 0.950 . S
C256 C254 1.391 . S
C256 C257 1.400 . S
C257 C251 1.491 . S
C257 C256 1.400 . S
C257 C258 1.398 . S
C258 H246 0.950 . S
C258 C257 1.398 . S
C258 C259 1.391 . S
C259 H247 0.950 . S
C259 C255 1.393 . S
C259 C258 1.391 . S
H260 C268 0.950 . S
H261 C273 0.950 . S
H262 C270 0.950 . S
H263 C272 0.950 . S
H264 C274 0.950 . S
H265 C276 0.950 . S
H266 C278 0.950 . S
H267 C279 0.950 . S
C268 H260 0.950 . S
C268 C269 1.386 . S
C268 C270 1.391 . S
C269 C268 1.386 . S
C269 C273 1.393 . S
C270 H262 0.950 . S
C270 C268 1.391 . S
C270 C271 1.400 . S
C271 C270 1.400 . S
C271 C272 1.398 . S
C271 C277 1.491 . S
C272 H263 0.950 . S
C272 C271 1.398 . S
C272 C273 1.391 . S
C273 H261 0.950 . S
C273 C269 1.393 . S
C273 C272 1.391 . S
C274 H264 0.950 . S
C274 C275 1.386 . S
C274 C276 1.391 . S
C275 C274 1.386 . S
C275 C279 1.393 . S
C276 H265 0.950 . S
C276 C274 1.391 . S
C276 C277 1.400 . S
C277 C271 1.491 . S
C277 C276 1.400 . S
C277 C278 1.398 . S
C278 H266 0.950 . S
C278 C277 1.398 . S
C278 C279 1.391 . S
C279 H267 0.950 . S
C279 C275 1.393 . S
C279 C278 1.391 . S
H280 C288 0.950 . S
H281 C293 0.950 . S
H282 C290 0.950 . S
H283 C292 0.950 . S
H284 C294 0.950 . S
H285 C296 0.950 . S
H286 C298 0.950 . S
H287 C299 0.950 . S
C288 H280 0.950 . S
C288 C289 1.386 . S
C288 C290 1.391 . S
C289 C288 1.386 . S
C289 C293 1.393 . S
C290 H282 0.950 . S
C290 C288 1.391 . S
C290 C291 1.400 . S
C291 C290 1.400 . S
C291 C292 1.398 . S
C291 C297 1.491 . S
C292 H283 0.950 . S
C292 C291 1.398 . S
C292 C293 1.391 . S
C293 H281 0.950 . S
C293 C289 1.393 . S
C293 C292 1.391 . S
C294 H284 0.950 . S
C294 C295 1.386 . S
C294 C296 1.391 . S
C295 C294 1.386 . S
C295 C299 1.393 . S
C296 H285 0.950 . S
C296 C294 1.391 . S
C296 C297 1.400 . S
C297 C291 1.491 . S
C297 C296 1.400 . S
C297 C298 1.398 . S
C298 H286 0.950 . S
C298 C297 1.398 . S
C298 C299 1.391 . S
C299 H287 0.950 . S
C299 C295 1.393 . S
C299 C298 1.391 . S
H300 C308 0.950 . S
H301 C313 0.950 . S
H302 C310 0.950 . S
H303 C312 0.950 . S
H304 C314 0.950 . S
H305 C316 0.950 . S
H306 C318 0.950 . S
H307 C319 0.950 . S
C308 H300 0.950 . S
C308 C309 1.386 . S
C308 C310 1.391 . S
C309 C308 1.386 . S
C309 C313 1.393 . S
C310 H302 0.950 . S
C310 C308 1.391 . S
C310 C311 1.400 . S
C311 C310 1.400 . S
C311 C312 1.398 . S
C311 C317 1.491 . S
C312 H303 0.950 . S
C312 C311 1.398 . S
C312 C313 1.391 . S
C313 H301 0.950 . S
C313 C309 1.393 . S
C313 C312 1.391 . S
C314 H304 0.950 . S
C314 C315 1.386 . S
C314 C316 1.391 . S
C315 C314 1.386 . S
C315 C319 1.393 . S
C316 H305 0.950 . S
C316 C314 1.391 . S
C316 C317 1.400 . S
C317 C311 1.491 . S
C317 C316 1.400 . S
C317 C318 1.398 . S
C318 H306 0.950 . S
C318 C317 1.398 . S
C318 C319 1.391 . S
C319 H307 0.950 . S
C319 C315 1.393 . S
C319 C318 1.391 . S
H320 C328 0.950 . S
H321 C333 0.950 . S
H322 C330 0.950 . S
H323 C332 0.950 . S
H324 C334 0.950 . S
H325 C336 0.950 . S
H326 C338 0.950 . S
H327 C339 0.950 . S
C328 H320 0.950 . S
C328 C329 1.386 . S
C328 C330 1.391 . S
C329 C328 1.386 . S
C329 C333 1.393 . S
C330 H322 0.950 . S
C330 C328 1.391 . S
C330 C331 1.400 . S
C331 C330 1.400 . S
C331 C332 1.398 . S
C331 C337 1.491 . S
C332 H323 0.950 . S
C332 C331 1.398 . S
C332 C333 1.391 . S
C333 H321 0.950 . S
C333 C329 1.393 . S
C333 C332 1.391 . S
C334 H324 0.950 . S
C334 C335 1.386 . S
C334 C336 1.391 . S
C335 C334 1.386 . S
C335 C339 1.393 . S
C336 H325 0.950 . S
C336 C334 1.391 . S
C336 C337 1.400 . S
C337 C331 1.491 . S
C337 C336 1.400 . S
C337 C338 1.398 . S
C338 H326 0.950 . S
C338 C337 1.398 . S
C338 C339 1.391 . S
C339 H327 0.950 . S
C339 C335 1.393 . S
C339 C338 1.391 . S
H340 C348 0.950 . S
H341 C353 0.950 . S
H342 C350 0.950 . S
H343 C352 0.950 . S
H344 C354 0.950 . S
H345 C356 0.950 . S
H346 C358 0.950 . S
H347 C359 0.950 . S
C348 H340 0.950 . S
C348 C349 1.386 . S
C348 C350 1.391 . S
C349 C348 1.386 . S
C349 C353 1.393 . S
C350 H342 0.950 . S
C350 C348 1.391 . S
C350 C351 1.400 . S
C351 C350 1.400 . S
C351 C352 1.398 . S
C351 C357 1.491 . S
C352 H343 0.950 . S
C352 C351 1.398 . S
C352 C353 1.391 . S
C353 H341 0.950 . S
C353 C349 1.393 . S
C353 C352 1.391 . S
C354 H344 0.950 . S
C354 C355 1.386 . S
C354 C356 1.391 . S
C355 C354 1.386 . S
C355 C359 1.393 . S
C356 H345 0.950 . S
C356 C354 1.391 . S
C356 C357 1.400 . S
C357 C351 1.491 . S
C357 C356 1.400 . S
C357 C358 1.398 . S
C358 H346 0.950 . S
C358 C357 1.398 . S
C358 C359 1.391 . S
C359 H347 0.950 . S
C359 C355 1.393 . S
C359 C358 1.391 . S
H360 C368 0.950 . S
H361 C373 0.950 . S
H362 C370 0.950 . S
H363 C372 0.950 . S
H364 C374 0.950 . S
H365 C376 0.950 . S
H366 C378 0.950 . S
H367 C379 0.950 . S
C368 H360 0.950 . S
C368 C369 1.386 . S
C368 C370 1.391 . S
C369 C368 1.386 . S
C369 C373 1.393 . S
C370 H362 0.950 . S
C370 C368 1.391 . S
C370 C371 1.400 . S
C371 C370 1.400 . S
C371 C372 1.398 . S
C371 C377 1.491 . S
C372 H363 0.950 . S
C372 C371 1.398 . S
C372 C373 1.391 . S
C373 H361 0.950 . S
C373 C369 1.393 . S
C373 C372 1.391 . S
C374 H364 0.950 . S
C374 C375 1.386 . S
C374 C376 1.391 . S
C375 C374 1.386 . S
C375 C379 1.393 . S
C376 H365 0.950 . S
C376 C374 1.391 . S
C376 C377 1.400 . S
C377 C371 1.491 . S
C377 C376 1.400 . S
C377 C378 1.398 . S
C378 H366 0.950 . S
C378 C377 1.398 . S
C378 C379 1.391 . S
C379 H367 0.950 . S
C379 C375 1.393 . S
C379 C378 1.391 . S
H380 C388 0.950 . S
H381 C393 0.950 1_655 S
H382 C390 0.950 . S
H383 C392 0.950 . S
H384 C394 0.950 . S
H385 C396 0.950 . S
H386 C398 0.950 . S
H387 C399 0.950 1_455 S
C388 H380 0.950 . S
C388 C389 1.386 . S
C388 C390 1.391 . S
C389 C388 1.386 . S
C389 C393 1.393 . S
C390 H382 0.950 . S
C390 C388 1.391 . S
C390 C391 1.400 . S
C391 C390 1.400 . S
C391 C392 1.398 1_455 S
C391 C397 1.491 1_455 S
C392 H383 0.950 . S
C392 C391 1.398 1_655 S
C392 C393 1.391 1_655 S
C393 H381 0.950 1_455 S
C393 C389 1.393 . S
C393 C392 1.391 1_455 S
C394 H384 0.950 . S
C394 C395 1.386 . S
C394 C396 1.391 . S
C395 C394 1.386 . S
C395 C399 1.393 . S
C396 H385 0.950 . S
C396 C394 1.391 . S
C396 C397 1.400 . S
C397 C391 1.491 1_655 S
C397 C396 1.400 . S
C397 C398 1.398 1_655 S
C398 H386 0.950 . S
C398 C397 1.398 1_455 S
C398 C399 1.391 1_455 S
C399 H387 0.950 1_655 S
C399 C395 1.393 . S
C399 C398 1.391 1_655 S
H400 C408 0.950 1_565 S
H401 C413 0.950 . S
H402 C410 0.950 . S
H403 C412 0.950 . S
H404 C414 0.950 1_545 S
H405 C416 0.950 . S
H406 C418 0.950 . S
H407 C419 0.950 . S
C408 H400 0.950 1_545 S
C408 C409 1.386 . S
C408 C410 1.391 1_545 S
C409 C408 1.386 . S
C409 C413 1.393 . S
C410 H402 0.950 . S
C410 C408 1.391 1_565 S
C410 C411 1.400 1_565 S
C411 C410 1.400 1_545 S
C411 C412 1.398 . S
C411 C417 1.491 1_545 S
C412 H403 0.950 . S
C412 C411 1.398 . S
C412 C413 1.391 . S
C413 H401 0.950 . S
C413 C409 1.393 . S
C413 C412 1.391 . S
C414 H404 0.950 1_565 S
C414 C415 1.386 . S
C414 C416 1.391 1_565 S
C415 C414 1.386 . S
C415 C419 1.393 . S
C416 H405 0.950 . S
C416 C414 1.391 1_545 S
C416 C417 1.400 1_545 S
C417 C411 1.491 1_565 S
C417 C416 1.400 1_565 S
C417 C418 1.398 . S
C418 H406 0.950 . S
C418 C417 1.398 . S
C418 C419 1.391 . S
C419 H407 0.950 . S
C419 C415 1.393 . S
C419 C418 1.391 . S
H420 C428 0.950 . S
H421 C433 0.950 . S
H422 C430 0.950 . S
H423 C432 0.950 . S
H424 C434 0.950 . S
H425 C436 0.950 . S
H426 C438 0.950 . S
H427 C439 0.950 . S
C428 H420 0.950 . S
C428 C429 1.386 . S
C428 C430 1.391 . S
C429 C428 1.386 . S
C429 C433 1.393 . S
C430 H422 0.950 . S
C430 C428 1.391 . S
C430 C431 1.400 . S
C431 C430 1.400 . S
C431 C432 1.398 . S
C431 C437 1.491 . S
C432 H423 0.950 . S
C432 C431 1.398 . S
C432 C433 1.391 . S
C433 H421 0.950 . S
C433 C429 1.393 . S
C433 C432 1.391 . S
C434 H424 0.950 . S
C434 C435 1.386 . S
C434 C436 1.391 . S
C435 C434 1.386 . S
C435 C439 1.393 . S
C436 H425 0.950 . S
C436 C434 1.391 . S
C436 C437 1.400 . S
C437 C431 1.491 . S
C437 C436 1.400 . S
C437 C438 1.398 . S
C438 H426 0.950 . S
C438 C437 1.398 . S
C438 C439 1.391 . S
C439 H427 0.950 . S
C439 C435 1.393 . S
C439 C438 1.391 . S
H440 C448 0.950 1_655 S
H441 C453 0.950 . S
H442 C450 0.950 . S
H443 C452 0.950 . S
H444 C454 0.950 1_455 S
H445 C456 0.950 . S
H446 C458 0.950 . S
H447 C459 0.950 . S
C448 H440 0.950 1_455 S
C448 C449 1.386 . S
C448 C450 1.391 1_455 S
C449 C448 1.386 . S
C449 C453 1.393 . S
C450 H442 0.950 . S
C450 C448 1.391 1_655 S
C450 C451 1.400 1_655 S
C451 C450 1.400 1_455 S
C451 C452 1.398 . S
C451 C457 1.491 1_455 S
C452 H443 0.950 . S
C452 C451 1.398 . S
C452 C453 1.391 . S
C453 H441 0.950 . S
C453 C449 1.393 . S
C453 C452 1.391 . S
C454 H444 0.950 1_655 S
C454 C455 1.386 . S
C454 C456 1.391 1_655 S
C455 C454 1.386 . S
C455 C459 1.393 . S
C456 H445 0.950 . S
C456 C454 1.391 1_455 S
C456 C457 1.400 1_455 S
C457 C451 1.491 1_655 S
C457 C456 1.400 1_655 S
C457 C458 1.398 . S
C458 H446 0.950 . S
C458 C457 1.398 . S
C458 C459 1.391 . S
C459 H447 0.950 . S
C459 C455 1.393 . S
C459 C458 1.391 . S
H460 C468 0.950 1_545 S
H461 C473 0.950 . S
H462 C470 0.950 . S
H463 C472 0.950 . S
H464 C474 0.950 1_565 S
H465 C476 0.950 . S
H466 C478 0.950 . S
H467 C479 0.950 . S
C468 H460 0.950 1_565 S
C468 C469 1.386 . S
C468 C470 1.391 1_565 S
C469 C468 1.386 . S
C469 C473 1.393 . S
C470 H462 0.950 . S
C470 C468 1.391 1_545 S
C470 C471 1.400 1_545 S
C471 C470 1.400 1_565 S
C471 C472 1.398 . S
C471 C477 1.491 1_565 S
C472 H463 0.950 . S
C472 C471 1.398 . S
C472 C473 1.391 . S
C473 H461 0.950 . S
C473 C469 1.393 . S
C473 C472 1.391 . S
C474 H464 0.950 1_545 S
C474 C475 1.386 . S
C474 C476 1.391 1_545 S
C475 C474 1.386 . S
C475 C479 1.393 . S
C476 H465 0.950 . S
C476 C474 1.391 1_565 S
C476 C477 1.400 1_565 S
C477 C471 1.491 1_545 S
C477 C476 1.400 1_545 S
C477 C478 1.398 . S
C478 H466 0.950 . S
C478 C477 1.398 . S
C478 C479 1.391 . S
C479 H467 0.950 . S
C479 C475 1.393 . S
C479 C478 1.391 . S
H480 C488 0.950 . S
H481 C493 0.950 . S
H482 C490 0.950 . S
H483 C492 0.950 . S
H484 C494 0.950 . S
H485 C496 0.950 . S
H486 C498 0.950 . S
H487 C499 0.950 . S
C488 H480 0.950 . S
C488 C489 1.386 . S
C488 C490 1.391 . S
C489 C488 1.386 . S
C489 C493 1.393 . S
C490 H482 0.950 . S
C490 C488 1.391 . S
C490 C491 1.400 . S
C491 C490 1.400 . S
C491 C492 1.398 . S
C491 C497 1.491 . S
C492 H483 0.950 . S
C492 C491 1.398 . S
C492 C493 1.391 . S
C493 H481 0.950 . S
C493 C489 1.393 . S
C493 C492 1.391 . S
C494 H484 0.950 . S
C494 C495 1.386 . S
C494 C496 1.391 . S
C495 C494 1.386 . S
C495 C499 1.393 . S
C496 H485 0.950 . S
C496 C494 1.391 . S
C496 C497 1.400 . S
C497 C491 1.491 . S
C497 C496 1.400 . S
C497 C498 1.398 . S
C498 H486 0.950 . S
C498 C497 1.398 . S
C498 C499 1.391 . S
C499 H487 0.950 . S
C499 C495 1.393 . S
C499 C498 1.391 . S
H500 C508 0.950 . S
H501 C513 0.950 . S
H502 C510 0.950 1_655 S
H503 C512 0.950 . S
H504 C514 0.950 . S
H505 C516 0.950 . S
H506 C518 0.950 . S
H507 C519 0.950 . S
C508 H500 0.950 . S
C508 C509 1.386 1_655 S
C508 C510 1.391 1_655 S
C509 C508 1.386 1_455 S
C509 C513 1.393 . S
C510 H502 0.950 1_455 S
C510 C508 1.391 1_455 S
C510 C511 1.400 . S
C511 C510 1.400 . S
C511 C512 1.398 . S
C511 C517 1.491 . S
C512 H503 0.950 . S
C512 C511 1.398 . S
C512 C513 1.391 . S
C513 H501 0.950 . S
C513 C509 1.393 . S
C513 C512 1.391 . S
C514 H504 0.950 . S
C514 C515 1.386 . S
C514 C516 1.391 . S
C515 C514 1.386 . S
C515 C519 1.393 . S
C516 H505 0.950 . S
C516 C514 1.391 . S
C516 C517 1.400 . S
C517 C511 1.491 . S
C517 C516 1.400 . S
C517 C518 1.398 . S
C518 H506 0.950 . S
C518 C517 1.398 . S
C518 C519 1.391 . S
C519 H507 0.950 . S
C519 C515 1.393 . S
C519 C518 1.391 . S
H520 C528 0.950 . S
H521 C533 0.950 . S
H522 C530 0.950 . S
H523 C532 0.949 1_565 S
H524 C534 0.950 . S
H525 C536 0.950 . S
H526 C538 0.950 . S
H527 C539 0.950 . S
C528 H520 0.950 . S
C528 C529 1.386 . S
C528 C530 1.391 . S
C529 C528 1.386 . S
C529 C533 1.393 1_545 S
C530 H522 0.950 . S
C530 C528 1.391 . S
C530 C531 1.400 . S
C531 C530 1.400 . S
C531 C532 1.402 . S
C531 C537 1.491 . S
C532 H523 0.949 1_545 S
C532 C531 1.402 . S
C532 C533 1.388 1_545 S
C533 H521 0.950 . S
C533 C529 1.393 1_565 S
C533 C532 1.388 1_565 S
C534 H524 0.950 . S
C534 C535 1.386 . S
C534 C536 1.391 . S
C535 C534 1.386 . S
C535 C539 1.393 . S
C536 H525 0.950 . S
C536 C534 1.391 . S
C536 C537 1.400 . S
C537 C531 1.491 . S
C537 C536 1.400 . S
C537 C538 1.398 . S
C538 H526 0.950 . S
C538 C537 1.398 . S
C538 C539 1.391 . S
C539 H527 0.950 . S
C539 C535 1.393 . S
C539 C538 1.391 . S
H540 C548 0.950 . S
H541 C553 0.950 . S
H542 C550 0.950 . S
H543 C552 0.950 . S
H544 C554 0.950 . S
H545 C556 0.950 . S
H546 C558 0.950 . S
H547 C559 0.950 . S
C548 H540 0.950 . S
C548 C549 1.386 . S
C548 C550 1.391 . S
C549 C548 1.386 . S
C549 C553 1.393 . S
C550 H542 0.950 . S
C550 C548 1.391 . S
C550 C551 1.400 . S
C551 C550 1.400 . S
C551 C552 1.398 . S
C551 C557 1.491 . S
C552 H543 0.950 . S
C552 C551 1.398 . S
C552 C553 1.391 . S
C553 H541 0.950 . S
C553 C549 1.393 . S
C553 C552 1.391 . S
C554 H544 0.950 . S
C554 C555 1.386 . S
C554 C556 1.391 . S
C555 C554 1.386 . S
C555 C559 1.393 . S
C556 H545 0.950 . S
C556 C554 1.391 . S
C556 C557 1.400 . S
C557 C551 1.491 . S
C557 C556 1.400 . S
C557 C558 1.398 . S
C558 H546 0.950 . S
C558 C557 1.398 . S
C558 C559 1.391 . S
C559 H547 0.950 . S
C559 C555 1.393 . S
C559 C558 1.391 . S
H560 C568 0.950 . S
H561 C573 0.950 . S
H562 C570 0.950 . S
H563 C572 0.950 . S
H564 C574 0.950 . S
H565 C576 0.950 . S
H566 C578 0.950 . S
H567 C579 0.950 . S
C568 H560 0.950 . S
C568 C569 1.386 . S
C568 C570 1.391 . S
C569 C568 1.386 . S
C569 C573 1.393 . S
C570 H562 0.950 . S
C570 C568 1.391 . S
C570 C571 1.400 . S
C571 C570 1.400 . S
C571 C572 1.398 . S
C571 C577 1.491 . S
C572 H563 0.950 . S
C572 C571 1.398 . S
C572 C573 1.391 . S
C573 H561 0.950 . S
C573 C569 1.393 . S
C573 C572 1.391 . S
C574 H564 0.950 . S
C574 C575 1.386 . S
C574 C576 1.391 . S
C575 C574 1.386 . S
C575 C579 1.393 . S
C576 H565 0.950 . S
C576 C574 1.391 . S
C576 C577 1.400 . S
C577 C571 1.491 . S
C577 C576 1.400 . S
C577 C578 1.398 . S
C578 H566 0.950 . S
C578 C577 1.398 . S
C578 C579 1.391 . S
C579 H567 0.950 . S
C579 C575 1.393 . S
C579 C578 1.391 . S
H580 C588 0.950 . S
H581 C593 0.950 . S
H582 C590 0.950 . S
H583 C592 0.950 1_545 S
H584 C594 0.950 . S
H585 C596 0.950 . S
H586 C598 0.950 . S
H587 C599 0.950 . S
C588 H580 0.950 . S
C588 C589 1.386 . S
C588 C590 1.391 . S
C589 C588 1.386 . S
C589 C593 1.393 1_565 S
C590 H582 0.950 . S
C590 C588 1.391 . S
C590 C591 1.400 . S
C591 C590 1.400 . S
C591 C592 1.398 . S
C591 C597 1.491 . S
C592 H583 0.950 1_565 S
C592 C591 1.398 . S
C592 C593 1.391 1_565 S
C593 H581 0.950 . S
C593 C589 1.393 1_545 S
C593 C592 1.391 1_545 S
C594 H584 0.950 . S
C594 C595 1.386 . S
C594 C596 1.391 . S
C595 C594 1.386 . S
C595 C599 1.393 . S
C596 H585 0.950 . S
C596 C594 1.391 . S
C596 C597 1.400 . S
C597 C591 1.491 . S
C597 C596 1.400 . S
C597 C598 1.398 . S
C598 H586 0.950 . S
C598 C597 1.398 . S
C598 C599 1.391 . S
C599 H587 0.950 . S
C599 C595 1.393 . S
C599 C598 1.391 . S
C249 C172 1.172 . S
C255 C8 1.172 . S
C269 C212 1.166 . S
C275 C48 1.161 . S
C289 C12 1.167 . S
C295 C88 1.162 . S
C309 C52 1.169 . S
C315 C128 1.168 . S
C329 C92 1.167 . S
C335 C168 1.162 . S
C349 C132 1.167 . S
C355 C208 1.166 . S
C369 C17 0.868 . S
C375 C137 0.862 . S
C389 C177 0.859 . S
C395 C57 0.864 . S
C409 C217 0.836 . S
C415 C97 0.830 . S
C429 C82 0.986 . S
C435 C202 0.984 . S
C449 C2 0.990 . S
C455 C122 0.986 . S
C469 C162 0.989 . S
C475 C42 0.985 . S
C489 C231 1.208 . S
C495 C29 1.213 . S
C509 C69 1.203 1_455 S
C515 C31 1.217 . S
C529 C109 1.214 1_545 S
C535 C71 1.210 . S
C549 C111 1.209 . S
C555 C149 1.215 . S
C569 C189 1.210 1_655 S
C575 C151 1.209 . S
C589 C229 1.216 1_565 S
C595 C191 1.207 . S
