# Generated by pormake.
# Topology wke, (5)-cn, num edge types: 1
# Building blocks:
#     Node 0, Type 0, BuildingBlock: XOMCOT_clean_sbu_1, # of connection points: 5
#     Node 1, Type 0, BuildingBlock: XOMCOT_clean_sbu_1, # of connection points: 5
#     Node 2, Type 0, BuildingBlock: XOMCOT_clean_sbu_1, # of connection points: 5
#     Node 3, Type 0, BuildingBlock: XOMCOT_clean_sbu_1, # of connection points: 5
#     Node 4, Type 0, BuildingBlock: XOMCOT_clean_sbu_1, # of connection points: 5
#     Node 5, Type 0, BuildingBlock: XOMCOT_clean_sbu_1, # of connection points: 5
#     Node 6, Type 0, BuildingBlock: XOMCOT_clean_sbu_1, # of connection points: 5
#     Node 7, Type 0, BuildingBlock: XOMCOT_clean_sbu_1, # of connection points: 5
#     Node 8, Type 0, BuildingBlock: XOMCOT_clean_sbu_1, # of connection points: 5
#     Node 9, Type 0, BuildingBlock: XOMCOT_clean_sbu_1, # of connection points: 5
#     Node 10, Type 0, BuildingBlock: XOMCOT_clean_sbu_1, # of connection points: 5
#     Node 11, Type 0, BuildingBlock: XOMCOT_clean_sbu_1, # of connection points: 5
#     Edge 12, Type (0, 0), BuildingBlock: CIFDUS_clean_linker_0, # of connection points: 2
#     Edge 13, Type (0, 0), BuildingBlock: CIFDUS_clean_linker_0, # of connection points: 2
#     Edge 14, Type (0, 0), BuildingBlock: CIFDUS_clean_linker_0, # of connection points: 2
#     Edge 15, Type (0, 0), BuildingBlock: CIFDUS_clean_linker_0, # of connection points: 2
#     Edge 16, Type (0, 0), BuildingBlock: CIFDUS_clean_linker_0, # of connection points: 2
#     Edge 17, Type (0, 0), BuildingBlock: CIFDUS_clean_linker_0, # of connection points: 2
#     Edge 18, Type (0, 0), BuildingBlock: CIFDUS_clean_linker_0, # of connection points: 2
#     Edge 19, Type (0, 0), BuildingBlock: CIFDUS_clean_linker_0, # of connection points: 2
#     Edge 20, Type (0, 0), BuildingBlock: CIFDUS_clean_linker_0, # of connection points: 2
#     Edge 21, Type (0, 0), BuildingBlock: CIFDUS_clean_linker_0, # of connection points: 2
#     Edge 22, Type (0, 0), BuildingBlock: CIFDUS_clean_linker_0, # of connection points: 2
#     Edge 23, Type (0, 0), BuildingBlock: CIFDUS_clean_linker_0, # of connection points: 2
#     Edge 24, Type (0, 0), BuildingBlock: CIFDUS_clean_linker_0, # of connection points: 2
#     Edge 25, Type (0, 0), BuildingBlock: CIFDUS_clean_linker_0, # of connection points: 2
#     Edge 26, Type (0, 0), BuildingBlock: CIFDUS_clean_linker_0, # of connection points: 2
#     Edge 27, Type (0, 0), BuildingBlock: CIFDUS_clean_linker_0, # of connection points: 2
#     Edge 28, Type (0, 0), BuildingBlock: CIFDUS_clean_linker_0, # of connection points: 2
#     Edge 29, Type (0, 0), BuildingBlock: CIFDUS_clean_linker_0, # of connection points: 2
#     Edge 30, Type (0, 0), BuildingBlock: CIFDUS_clean_linker_0, # of connection points: 2
#     Edge 31, Type (0, 0), BuildingBlock: CIFDUS_clean_linker_0, # of connection points: 2
#     Edge 32, Type (0, 0), BuildingBlock: CIFDUS_clean_linker_0, # of connection points: 2
#     Edge 33, Type (0, 0), BuildingBlock: CIFDUS_clean_linker_0, # of connection points: 2
#     Edge 34, Type (0, 0), BuildingBlock: CIFDUS_clean_linker_0, # of connection points: 2
#     Edge 35, Type (0, 0), BuildingBlock: CIFDUS_clean_linker_0, # of connection points: 2
#     Edge 36, Type (0, 0), BuildingBlock: CIFDUS_clean_linker_0, # of connection points: 2
#     Edge 37, Type (0, 0), BuildingBlock: CIFDUS_clean_linker_0, # of connection points: 2
#     Edge 38, Type (0, 0), BuildingBlock: CIFDUS_clean_linker_0, # of connection points: 2
#     Edge 39, Type (0, 0), BuildingBlock: CIFDUS_clean_linker_0, # of connection points: 2
#     Edge 40, Type (0, 0), BuildingBlock: CIFDUS_clean_linker_0, # of connection points: 2
#     Edge 41, Type (0, 0), BuildingBlock: CIFDUS_clean_linker_0, # of connection points: 2
# Relax obj value: 0.164
# Max RMSD: 0.152
# Mean RMSD: 0.152
data_MOF--net-wke--node1-XOMCOT_clean_sbu_1--edge1-CIFDUS_clean_linker_0
_symmetry_space_group_name_H-M    P1
_symmetry_Int_Tables_number       1
_symmetry_cell_setting            triclinic
loop_
_symmetry_equiv_pos_as_xyz
'x, y, z'
_cell_length_a     62.632764
_cell_length_b     62.572952
_cell_length_c     15.623843
_cell_angle_alpha  89.981294
_cell_angle_beta   90.005381
_cell_angle_gamma 119.91845
loop_
_atom_site_label
_atom_site_type_symbol
_atom_site_fract_x
_atom_site_fract_y
_atom_site_fract_z
_atom_type_partial_charge
C0 C 0.14456 0.46133 0.41452 0.0
C1 C 0.14673 0.46181 0.50237 0.0
N2 N 0.13336 0.43853 0.53159 0.0
N3 N 0.12955 0.43789 0.38904 0.0
C4 C 0.12345 0.42441 0.46158 0.0
H5 H 0.15275 0.47713 0.37234 0.0
Co6 Co 0.11762 0.42662 0.28001 0.0
C7 C 0.06383 0.39068 0.30819 0.0
O8 O 0.05827 0.39698 0.23485 0.0
N9 N 0.10599 0.41485 0.16864 0.0
C10 C 0.09285 0.38954 0.05625 0.0
C11 C 0.09473 0.39096 0.14404 0.0
C12 C 0.11131 0.42752 0.09419 0.0
N13 N 0.10338 0.41265 0.02505 0.0
O14 O 0.13242 0.40583 0.28288 0.0
H15 H 0.08918 0.37554 0.18713 0.0
H16 H 0.12256 0.44723 0.08933 0.0
O17 O 0.08642 0.40066 0.33143 0.0
C18 C 0.15197 0.41599 0.23725 0.0
O19 O 0.15829 0.43722 0.20055 0.0
N20 N 0.10592 0.44931 0.27484 0.0
C21 C 0.0963 0.48823 0.25885 0.0
C22 C 0.08185 0.46821 0.31286 0.0
C23 C 0.08713 0.44896 0.32074 0.0
C24 C 0.12132 0.46973 0.22856 0.0
C25 C 0.11646 0.48898 0.21743 0.0
H26 H 0.07662 0.43443 0.36594 0.0
H27 H 0.13796 0.47137 0.20158 0.0
H28 H 0.11114 0.40468 0.46355 0.0
H29 H 0.15701 0.47804 0.54173 0.0
H30 H 0.08505 0.37283 0.01847 0.0
H31 H 0.06673 0.46752 0.3488 0.0
H32 H 0.12884 0.50473 0.17879 0.0
C33 C 0.69357 0.14765 0.95872 0.0
C34 C 0.69515 0.14973 0.04663 0.0
N35 N 0.70747 0.13859 0.07524 0.0
N36 N 0.70448 0.13488 0.93238 0.0
C37 C 0.71324 0.13017 1.00459 0.0
H38 H 0.68432 0.15429 0.91724 0.0
Co39 Co 0.70525 0.12332 0.82344 0.0
C40 C 0.68952 0.06981 0.85609 0.0
O41 O 0.6781 0.06299 0.78207 0.0
N42 N 0.70667 0.11195 0.7125 0.0
C43 C 0.71956 0.09935 0.60038 0.0
C44 C 0.71987 0.10124 0.68835 0.0
C45 C 0.69901 0.11679 0.63776 0.0
N46 N 0.70637 0.10918 0.56883 0.0
O47 O 0.74083 0.13906 0.83181 0.0
H48 H 0.72997 0.09606 0.73179 0.0
H49 H 0.68992 0.12746 0.63244 0.0
O50 O 0.70091 0.09269 0.87644 0.0
C51 C 0.75273 0.15738 0.78145 0.0
O52 O 0.74036 0.1629 0.72645 0.0
N53 N 0.67077 0.1105 0.81393 0.0
C54 C 0.62186 0.09863 0.78813 0.0
C55 C 0.62748 0.08419 0.84218 0.0
C56 C 0.65216 0.09064 0.85518 0.0
C57 C 0.66554 0.12583 0.7679 0.0
C58 C 0.64131 0.11993 0.75209 0.0
H59 H 0.65605 0.08003 0.90041 0.0
H60 H 0.68044 0.14306 0.74402 0.0
H61 H 0.72286 0.11985 1.00566 0.0
H62 H 0.68745 0.15837 0.08643 0.0
H63 H 0.72887 0.09195 0.56269 0.0
H64 H 0.61298 0.06814 0.87412 0.0
H65 H 0.63786 0.13231 0.7137 0.0
C66 C 0.56206 0.69512 0.43895 0.0
C67 C 0.56204 0.69698 0.52687 0.0
N68 N 0.58468 0.70315 0.55567 0.0
N69 N 0.58449 0.69969 0.41306 0.0
C70 C 0.59794 0.70493 0.48545 0.0
H71 H 0.54656 0.69017 0.39699 0.0
Co72 Co 0.59485 0.69763 0.3038 0.0
C73 C 0.62169 0.66974 0.33005 0.0
O74 O 0.61233 0.65791 0.258 0.0
N75 N 0.60592 0.6962 0.19233 0.0
C76 C 0.63098 0.70419 0.08068 0.0
C77 C 0.62961 0.70507 0.16852 0.0
C78 C 0.59341 0.6905 0.11751 0.0
N79 N 0.60808 0.69498 0.04888 0.0
O80 O 0.61987 0.73204 0.31154 0.0
H81 H 0.64508 0.71259 0.21215 0.0
H82 H 0.57423 0.68498 0.11178 0.0
O83 O 0.61669 0.6863 0.35441 0.0
C84 C 0.61428 0.74514 0.26373 0.0
O85 O 0.59499 0.73385 0.2134 0.0
N86 N 0.56787 0.66513 0.29492 0.0
C87 C 0.5226 0.62151 0.27633 0.0
C88 C 0.54121 0.62221 0.32862 0.0
C89 C 0.56352 0.64444 0.33888 0.0
C90 C 0.54933 0.66502 0.2491 0.0
C91 C 0.52701 0.64344 0.23662 0.0
H92 H 0.57657 0.64512 0.3852 0.0
H93 H 0.55169 0.68214 0.22373 0.0
H94 H 0.61691 0.70911 0.48712 0.0
H95 H 0.54656 0.69378 0.56655 0.0
H96 H 0.64759 0.71043 0.04325 0.0
H97 H 0.53817 0.60607 0.36414 0.0
H98 H 0.51318 0.64412 0.19696 0.0
C99 C 0.87995 0.56099 0.94236 0.0
C100 C 0.87643 0.55734 0.02926 0.0
N101 N 0.89182 0.5786 0.06996 0.0
N102 N 0.89763 0.5844 0.92716 0.0
C103 C 0.90439 0.59476 1.00604 0.0
H104 H 0.87058 0.54727 0.89317 0.0
Co105 Co 0.90955 0.59695 0.81714 0.0
C106 C 0.96297 0.63212 0.84502 0.0
O107 O 0.96764 0.62464 0.77243 0.0
N108 N 0.921 0.60994 0.70411 0.0
C109 C 0.93582 0.63802 0.59947 0.0
C110 C 0.93278 0.63434 0.68636 0.0
C111 C 0.91622 0.5992 0.62525 0.0
N112 N 0.92532 0.6159 0.56067 0.0
O113 O 0.8938 0.61684 0.82318 0.0
H114 H 0.93808 0.64871 0.73376 0.0
H115 H 0.90553 0.57962 0.6142 0.0
O116 O 0.94056 0.62317 0.86957 0.0
C117 C 0.87437 0.60649 0.77701 0.0
O118 O 0.86879 0.5857 0.73837 0.0
N119 N 0.92221 0.57514 0.80945 0.0
C120 C 0.9318 0.53596 0.80428 0.0
C121 C 0.94443 0.55558 0.86168 0.0
C122 C 0.93909 0.57481 0.86425 0.0
C123 C 0.90897 0.55557 0.75657 0.0
C124 C 0.91389 0.53617 0.75118 0.0
H125 H 0.9476 0.58856 0.91365 0.0
H126 H 0.89336 0.55415 0.72228 0.0
H127 H 0.91818 0.61383 0.0163 0.0
H128 H 0.86384 0.54003 0.05975 0.0
H129 H 0.94411 0.65567 0.56712 0.0
H130 H 0.95783 0.55573 0.90589 0.0
H131 H 0.90275 0.52078 0.70927 0.0
C132 C 0.33669 0.87847 0.43611 0.0
C133 C 0.3352 0.87668 0.52409 0.0
N134 N 0.32428 0.88923 0.55231 0.0
N135 N 0.32712 0.89245 0.40954 0.0
C136 C 0.3193 0.89828 0.48162 0.0
H137 H 0.34483 0.87065 0.39464 0.0
Co138 Co 0.32632 0.90363 0.30037 0.0
C139 C 0.34466 0.95779 0.32649 0.0
O140 O 0.35525 0.96306 0.25087 0.0
N141 N 0.32481 0.91472 0.18911 0.0
C142 C 0.31224 0.92784 0.07754 0.0
C143 C 0.31176 0.92563 0.16537 0.0
C144 C 0.33254 0.91007 0.11425 0.0
N145 N 0.32539 0.91801 0.04568 0.0
O146 O 0.29091 0.88927 0.31135 0.0
H147 H 0.30181 0.93092 0.2091 0.0
H148 H 0.34165 0.89943 0.10849 0.0
O149 O 0.33262 0.93528 0.35118 0.0
C150 C 0.27829 0.8707 0.26267 0.0
O151 O 0.28993 0.86451 0.20682 0.0
N152 N 0.36043 0.9148 0.28871 0.0
C153 C 0.40826 0.92344 0.26292 0.0
C154 C 0.40401 0.93899 0.31615 0.0
C155 C 0.37982 0.93421 0.32897 0.0
C156 C 0.36431 0.89843 0.24345 0.0
C157 C 0.38802 0.90277 0.22738 0.0
H158 H 0.37688 0.94564 0.37344 0.0
H159 H 0.34869 0.8816 0.22022 0.0
H160 H 0.31092 0.90979 0.48259 0.0
H161 H 0.3419 0.86716 0.56419 0.0
H162 H 0.30315 0.93555 0.04018 0.0
H163 H 0.41919 0.95458 0.34766 0.0
H164 H 0.39047 0.88967 0.18932 0.0
C165 C 0.47058 0.31985 0.92639 0.0
C166 C 0.47378 0.31943 0.0135 0.0
N167 N 0.45223 0.31298 0.05303 0.0
N168 N 0.44716 0.31391 0.90978 0.0
C169 C 0.43633 0.30943 0.98822 0.0
H170 H 0.48467 0.3247 0.87826 0.0
Co171 Co 0.43437 0.31397 0.79978 0.0
C172 C 0.40117 0.33528 0.83778 0.0
O173 O 0.40636 0.34709 0.76438 0.0
N174 N 0.4212 0.31336 0.68758 0.0
C175 C 0.39334 0.30259 0.58309 0.0
C176 C 0.39692 0.30311 0.67018 0.0
C177 C 0.43187 0.31811 0.60851 0.0
N178 N 0.41534 0.31194 0.54385 0.0
O179 O 0.41213 0.2788 0.80868 0.0
H180 H 0.38249 0.29548 0.71785 0.0
H181 H 0.45124 0.32515 0.59757 0.0
O182 O 0.41066 0.32179 0.85567 0.0
C183 C 0.42091 0.26829 0.76164 0.0
O184 O 0.44166 0.28219 0.72077 0.0
N185 N 0.45844 0.34749 0.78761 0.0
C186 C 0.502 0.39282 0.77032 0.0
C187 C 0.48264 0.39069 0.82195 0.0
C188 C 0.46108 0.36765 0.83107 0.0
C189 C 0.4772 0.34939 0.7382 0.0
C190 C 0.49878 0.37179 0.72722 0.0
H191 H 0.44737 0.36595 0.87656 0.0
H192 H 0.47595 0.33297 0.71062 0.0
H193 H 0.41706 0.30334 0.99755 0.0
H194 H 0.49097 0.32424 0.04514 0.0
H195 H 0.37571 0.2948 0.55102 0.0
H196 H 0.48469 0.40631 0.85849 0.0
H197 H 0.51323 0.37241 0.68734 0.0
C198 C 0.55965 0.87505 0.06811 0.0
C199 C 0.56014 0.8734 0.98027 0.0
N200 N 0.58387 0.88489 0.95445 0.0
N201 N 0.58297 0.8878 0.09725 0.0
C202 C 0.59719 0.89289 0.02704 0.0
H203 H 0.54334 0.86832 0.10738 0.0
Co204 Co 0.59506 0.8994 0.20567 0.0
C205 C 0.6324 0.95363 0.17173 0.0
O206 O 0.63074 0.96112 0.24868 0.0
N207 N 0.60769 0.91071 0.31543 0.0
C208 C 0.6328 0.92051 0.42754 0.0
C209 C 0.63153 0.92131 0.33971 0.0
C210 C 0.59495 0.90353 0.38949 0.0
N211 N 0.60965 0.90897 0.45851 0.0
O212 O 0.61643 0.88529 0.19526 0.0
H213 H 0.64689 0.92739 0.29608 0.0
H214 H 0.57521 0.8928 0.393 0.0
O215 O 0.61985 0.93069 0.15281 0.0
C216 C 0.61067 0.86674 0.24391 0.0
O217 O 0.59225 0.85985 0.29762 0.0
N218 N 0.57209 0.91062 0.21746 0.0
C219 C 0.53343 0.92 0.24608 0.0
C220 C 0.55373 0.93608 0.19587 0.0
C221 C 0.57288 0.93098 0.18178 0.0
C222 C 0.5515 0.89392 0.2603 0.0
C223 C 0.53232 0.89853 0.27741 0.0
H224 H 0.58773 0.9431 0.14026 0.0
H225 H 0.54988 0.87667 0.28092 0.0
H226 H 0.61708 0.90295 0.02945 0.0
H227 H 0.54419 0.8655 0.93876 0.0
H228 H 0.64934 0.92619 0.46478 0.0
H229 H 0.55479 0.95244 0.16801 0.0
H230 H 0.51646 0.8851 0.31327 0.0
C231 C 0.70349 0.55936 0.58281 0.0
C232 C 0.70566 0.55905 0.49508 0.0
N233 N 0.71215 0.58167 0.46494 0.0
N234 N 0.70824 0.58197 0.60729 0.0
C235 C 0.71384 0.59522 0.53431 0.0
H236 H 0.69801 0.54391 0.62568 0.0
Co237 Co 0.70518 0.5918 0.71621 0.0
C238 C 0.68157 0.62256 0.68239 0.0
O239 O 0.66647 0.6119 0.74691 0.0
N240 N 0.70286 0.60219 0.8277 0.0
C241 C 0.71026 0.62663 0.94088 0.0
C242 C 0.71081 0.62564 0.85293 0.0
C243 C 0.69832 0.58952 0.90193 0.0
N244 N 0.70237 0.6038 0.97146 0.0
O245 O 0.74029 0.61472 0.7186 0.0
H246 H 0.71789 0.64136 0.81044 0.0
H247 H 0.6943 0.57072 0.90637 0.0
O248 O 0.69794 0.61665 0.66483 0.0
C249 C 0.75031 0.60483 0.76255 0.0
O250 O 0.73614 0.58279 0.795 0.0
N251 N 0.67144 0.5669 0.71612 0.0
C252 C 0.62412 0.5253 0.72348 0.0
C253 C 0.62944 0.5447 0.66637 0.0
C254 C 0.65342 0.56503 0.66202 0.0
C255 C 0.66701 0.54726 0.76595 0.0
C256 C 0.6435 0.5268 0.77305 0.0
H257 H 0.65763 0.57863 0.61283 0.0
H258 H 0.6821 0.54689 0.79776 0.0
H259 H 0.71807 0.61421 0.53138 0.0
H260 H 0.70232 0.54332 0.45642 0.0
H261 H 0.71601 0.64302 0.97918 0.0
H262 H 0.61549 0.54378 0.62313 0.0
H263 H 0.64074 0.51215 0.81643 0.0
C264 C 0.14204 0.68608 0.09206 0.0
C265 C 0.14317 0.68738 1.00401 0.0
N266 N 0.13054 0.6984 0.97731 0.0
N267 N 0.12856 0.69603 0.11997 0.0
C268 C 0.12229 0.70377 0.04905 0.0
H269 H 0.14999 0.67789 0.13272 0.0
Co270 Co 0.11902 0.69843 0.22897 0.0
C271 C 0.06484 0.68062 0.2128 0.0
O272 O 0.06101 0.67029 0.28873 0.0
N273 N 0.10989 0.70182 0.33988 0.0
C274 C 0.1006 0.71815 0.45042 0.0
C275 C 0.09953 0.71545 0.3629 0.0
C276 C 0.1175 0.69694 0.41427 0.0
N277 N 0.11221 0.70668 0.48208 0.0
O278 O 0.13422 0.73388 0.21375 0.0
H279 H 0.09299 0.72416 0.31845 0.0
H280 H 0.12811 0.68779 0.41926 0.0
O281 O 0.08686 0.69253 0.1832 0.0
C282 C 0.15389 0.74616 0.25775 0.0
O283 O 0.16081 0.73418 0.30945 0.0
N284 N 0.10697 0.66417 0.24441 0.0
C285 C 0.09724 0.6158 0.26897 0.0
C286 C 0.08187 0.62062 0.21691 0.0
C287 C 0.08724 0.64502 0.20448 0.0
C288 C 0.12309 0.65974 0.28893 0.0
C289 C 0.11822 0.63578 0.30437 0.0
H290 H 0.07609 0.64833 0.15984 0.0
H291 H 0.14041 0.67504 0.31009 0.0
H292 H 0.11175 0.71317 0.05028 0.0
H293 H 0.15183 0.67996 0.96301 0.0
H294 H 0.09478 0.72901 0.48715 0.0
H295 H 0.06607 0.60571 0.18531 0.0
H296 H 0.13132 0.63296 0.34088 0.0
C297 C 0.46559 0.13733 0.61405 0.0
C298 C 0.46944 0.13967 0.52687 0.0
N299 N 0.44811 0.12421 0.48694 0.0
N300 N 0.44197 0.12031 0.62999 0.0
C301 C 0.43167 0.11297 0.55123 0.0
H302 H 0.47932 0.14701 0.66292 0.0
Co303 Co 0.42863 0.10892 0.73996 0.0
C304 C 0.3946 0.05492 0.71094 0.0
O305 O 0.40143 0.05015 0.78472 0.0
N306 N 0.41476 0.09787 0.85254 0.0
C307 C 0.38597 0.08284 0.95452 0.0
C308 C 0.3903 0.08485 0.86787 0.0
C309 C 0.42479 0.10429 0.93241 0.0
N310 N 0.40768 0.09524 0.99589 0.0
O311 O 0.40821 0.12387 0.72742 0.0
H312 H 0.37625 0.07799 0.81884 0.0
H313 H 0.44404 0.11675 0.94437 0.0
O314 O 0.40344 0.0774 0.68725 0.0
C315 C 0.41823 0.14367 0.7718 0.0
O316 O 0.43895 0.14977 0.81179 0.0
N317 N 0.45098 0.09724 0.75499 0.0
C318 C 0.49016 0.08853 0.78125 0.0
C319 C 0.47203 0.07503 0.71971 0.0
C320 C 0.45265 0.07987 0.70682 0.0
C321 C 0.4695 0.11163 0.81003 0.0
C322 C 0.48879 0.10714 0.82614 0.0
H323 H 0.43973 0.07036 0.65578 0.0
H324 H 0.47 0.12756 0.83862 0.0
H325 H 0.41262 0.09923 0.54114 0.0
H326 H 0.48675 0.15182 0.49548 0.0
H327 H 0.36798 0.07337 0.98411 0.0
H328 H 0.47304 0.06117 0.68119 0.0
H329 H 0.50315 0.11893 0.87058 0.0
C330 C 0.32656 0.46062 0.04579 0.0
C331 C 0.3247 0.46099 0.95797 0.0
N332 N 0.31451 0.43764 0.92904 0.0
N333 N 0.31798 0.43718 0.07182 0.0
C334 C 0.31022 0.42361 0.99948 0.0
H335 H 0.3345 0.47653 0.08743 0.0
Co336 Co 0.31921 0.42575 0.18071 0.0
C337 C 0.33859 0.39085 0.14548 0.0
O338 O 0.35022 0.39598 0.21917 0.0
N339 N 0.31972 0.41385 0.29166 0.0
C340 C 0.30852 0.38859 0.40425 0.0
C341 C 0.30817 0.38995 0.31626 0.0
C342 C 0.32641 0.42653 0.36623 0.0
N343 N 0.32002 0.41171 0.43549 0.0
O344 O 0.28383 0.40409 0.1779 0.0
H345 H 0.29896 0.37445 0.27313 0.0
H346 H 0.33393 0.44615 0.37107 0.0
O347 O 0.32563 0.40084 0.1265 0.0
C348 C 0.27417 0.41394 0.22391 0.0
O349 O 0.28877 0.43519 0.26089 0.0
N350 N 0.35319 0.4493 0.18658 0.0
C351 C 0.40062 0.49016 0.20503 0.0
C352 C 0.39651 0.47001 0.15351 0.0
C353 C 0.37256 0.44987 0.14404 0.0
C354 C 0.35675 0.46935 0.23214 0.0
C355 C 0.38018 0.48946 0.24457 0.0
H356 H 0.36973 0.43548 0.09989 0.0
H357 H 0.34103 0.46992 0.25795 0.0
H358 H 0.3025 0.40383 0.99807 0.0
H359 H 0.33083 0.47722 0.9184 0.0
H360 H 0.30025 0.37188 0.44213 0.0
H361 H 0.41147 0.4701 0.11854 0.0
H362 H 0.38206 0.5044 0.28468 0.0
C363 C 0.87729 0.32273 0.58789 0.0
C364 C 0.87394 0.32342 0.50097 0.0
N365 N 0.89535 0.32965 0.46074 0.0
N366 N 0.90068 0.32846 0.60345 0.0
C367 C 0.91125 0.33264 0.52478 0.0
H368 H 0.86338 0.3178 0.63681 0.0
Co369 Co 0.91257 0.3279 0.71364 0.0
C370 C 0.96607 0.3454 0.68791 0.0
O371 O 0.97069 0.35739 0.76082 0.0
N372 N 0.92391 0.32638 0.82678 0.0
C373 C 0.9376 0.31223 0.93203 0.0
C374 C 0.9344 0.31258 0.8452 0.0
C375 C 0.92039 0.33371 0.90515 0.0
N376 N 0.92873 0.32547 0.97034 0.0
O377 O 0.89694 0.29232 0.70528 0.0
H378 H 0.93864 0.30253 0.79831 0.0
H379 H 0.91114 0.34412 0.91524 0.0
O380 O 0.94368 0.33255 0.66232 0.0
C381 C 0.8785 0.28073 0.75536 0.0
O382 O 0.87324 0.29345 0.80976 0.0
N383 N 0.9249 0.36216 0.72204 0.0
C384 C 0.93355 0.41055 0.72911 0.0
C385 C 0.94757 0.40439 0.67511 0.0
C386 C 0.94274 0.38 0.67155 0.0
C387 C 0.91043 0.3677 0.77166 0.0
C388 C 0.91481 0.3918 0.77795 0.0
H389 H 0.95251 0.37546 0.62485 0.0
H390 H 0.89457 0.35304 0.80359 0.0
H391 H 0.93026 0.33787 0.5145 0.0
H392 H 0.85675 0.3189 0.46997 0.0
H393 H 0.94482 0.30191 0.96457 0.0
H394 H 0.96174 0.41817 0.63433 0.0
H395 H 0.90276 0.39547 0.81734 0.0
H396 H 0.06617 0.39099 0.48298 0.0
H397 H 0.01578 0.35805 0.27185 0.0
H398 H 0.98121 0.3385 0.3717 0.0
H399 H 0.96481 0.33385 0.51757 0.0
H400 H 0.01501 0.36941 0.72748 0.0
H401 H 0.04997 0.38417 0.63008 0.0
C402 C 0.04771 0.37911 0.45882 0.0
C403 C 0.04364 0.376 0.36988 0.0
C404 C 0.02775 0.36847 0.51649 0.0
C405 C 0.01947 0.36083 0.33989 0.0
C406 C 0.99965 0.34967 0.39693 0.0
C407 C 0.98334 0.34471 0.54225 0.0
C408 C 0.98708 0.35084 0.62981 0.0
C409 C 1.00346 0.35387 0.48524 0.0
C410 C 1.01142 0.36458 0.66038 0.0
C411 C 0.03151 0.37313 0.60459 0.0
H412 H 0.66301 0.01977 0.8389 0.0
H413 H 0.70454 0.0768 0.02411 0.0
H414 H 0.69186 0.04592 0.13703 0.0
H415 H 0.66636 1.00279 0.18575 0.0
H416 H 0.62396 0.94626 1.00048 0.0
H417 H 0.63984 0.9766 0.88565 0.0
C418 C 0.66958 0.02549 0.9037 0.0
C419 C 0.6846 0.05076 0.92254 0.0
C420 C 0.66201 1.00759 0.96881 0.0
C421 C 0.69291 0.05763 1.0072 0.0
C422 C 0.68559 0.03991 0.07219 0.0
C423 C 0.66084 0.99708 0.12011 0.0
C424 C 0.64423 0.97208 0.10187 0.0
C425 C 0.66972 0.01486 0.05413 0.0
C426 C 0.63722 0.96512 0.01632 0.0
C427 C 0.64608 0.98259 0.95054 0.0
H428 H 0.63967 0.60371 0.59191 0.0
H429 H 0.70869 0.67071 0.62904 0.0
H430 H 0.69608 0.69216 0.52594 0.0
H431 H 0.66462 0.69146 0.42475 0.0
H432 H 0.59868 0.62205 0.37611 0.0
H433 H 0.6108 0.60189 0.48331 0.0
C434 C 0.65207 0.62295 0.5768 0.0
C435 C 0.67501 0.63568 0.61795 0.0
C436 C 0.64512 0.63471 0.51535 0.0
C437 C 0.69092 0.66059 0.59789 0.0
C438 C 0.68367 0.67281 0.53912 0.0
C439 C 0.65304 0.67194 0.43782 0.0
C440 C 0.6306 0.65832 0.39341 0.0
C441 C 0.66072 0.66006 0.4974 0.0
C442 C 0.61592 0.63296 0.40978 0.0
C443 C 0.62284 0.62139 0.4711 0.0
H444 H 0.06446 0.68843 0.04063 0.0
H445 H 0.01627 0.65788 0.25844 0.0
H446 H 0.98039 0.64228 0.16487 0.0
H447 H 0.96256 0.6341 0.02012 0.0
H448 H 1.01078 0.66307 0.80169 0.0
H449 H 0.04649 0.68273 0.89618 0.0
C450 C 0.04614 0.67875 0.06778 0.0
C451 C 0.04324 0.6743 0.15655 0.0
C452 C 0.02544 0.66944 0.01334 0.0
C453 C 0.01921 0.66156 0.19044 0.0
C454 C 0.99859 0.65259 0.13695 0.0
C455 C 0.98081 0.64517 0.99325 0.0
C456 C 0.98389 0.6471 0.90377 0.0
C457 C 1.00145 0.65597 0.0481 0.0
C458 C 1.00782 0.66121 0.87025 0.0
C459 C 0.02832 0.67243 0.92433 0.0
H460 H 0.38876 0.05691 0.53757 0.0
H461 H 0.36808 1.00583 0.74833 0.0
H462 H 0.34872 0.97117 0.64904 0.0
H463 H 0.34084 0.95531 0.50135 0.0
H464 H 0.3632 1.00654 0.29037 0.0
H465 H 0.37853 0.04104 0.39045 0.0
C466 C 0.37972 0.03827 0.56209 0.0
C467 C 0.38006 0.03415 0.65063 0.0
C468 C 0.36903 0.01832 0.50426 0.0
C469 C 0.36828 0.00967 0.68064 0.0
C470 C 0.3572 0.98977 0.62379 0.0
C471 C 0.34863 0.97396 0.47716 0.0
C472 C 0.35085 0.97823 0.38815 0.0
C473 C 0.35792 0.99385 0.53526 0.0
C474 C 0.36131 1.00264 0.35837 0.0
C475 C 0.37014 0.02244 0.41566 0.0
H476 H 0.37134 0.35526 0.81663 0.0
H477 H 0.40135 0.32884 0.01091 0.0
H478 H 0.38318 0.34184 0.12244 0.0
H479 H 0.36123 0.36354 0.16589 0.0
H480 H 0.33111 0.39008 0.97203 0.0
H481 H 0.3465 0.37411 0.86026 0.0
C482 C 0.37369 0.3521 0.88334 0.0
C483 C 0.38776 0.34095 0.9049 0.0
C484 C 0.36316 0.35979 0.9477 0.0
C485 C 0.39046 0.337 0.99189 0.0
C486 C 0.38017 0.34465 0.05606 0.0
C487 C 0.35774 0.36558 0.09924 0.0
C488 C 0.345 0.37812 0.07796 0.0
C489 C 0.36682 0.35643 0.03484 0.0
C490 C 0.34064 0.38043 0.99095 0.0
C491 C 0.34963 0.37141 0.92663 0.0
H492 H 0.08958 0.58159 0.14753 0.0
H493 H 0.09575 0.59351 0.42019 0.0
H494 H 0.09329 0.55362 0.44235 0.0
H495 H 0.09303 0.51692 0.38303 0.0
H496 H 0.08992 0.5066 0.10975 0.0
H497 H 0.08727 0.54397 0.08872 0.0
C498 C 0.08991 0.57518 0.21178 0.0
C499 C 0.09278 0.59039 0.28215 0.0
C500 C 0.0892 0.55254 0.22379 0.0
C501 C 0.09361 0.58211 0.36507 0.0
C502 C 0.09223 0.55933 0.37773 0.0
C503 C 0.09129 0.52267 0.31913 0.0
C504 C 0.09158 0.50906 0.24802 0.0
C505 C 0.09054 0.54461 0.30748 0.0
C506 C 0.08975 0.51686 0.16535 0.0
C507 C 0.08829 0.53823 0.15333 0.0
H508 H 0.52144 0.08825 0.66121 0.0
H509 H 0.50743 0.0818 0.93268 0.0
H510 H 0.54598 0.08183 0.95866 0.0
H511 H 0.58556 0.08767 0.90511 0.0
H512 H 0.60061 0.09661 0.63427 0.0
H513 H 0.55987 0.09148 0.60689 0.0
C514 C 0.52662 0.08632 0.72578 0.0
C515 C 0.51165 0.08498 0.79493 0.0
C516 C 0.54916 0.08707 0.74037 0.0
C517 C 0.51875 0.08292 0.87851 0.0
C518 C 0.54079 0.08299 0.89337 0.0
C519 C 0.57969 0.08802 0.84006 0.0
C520 C 0.59606 0.09257 0.77184 0.0
C521 C 0.55644 0.08564 0.82499 0.0
C522 C 0.58837 0.09332 0.68788 0.0
C523 C 0.56508 0.09038 0.67218 0.0
H524 H 0.51235 0.57359 0.25807 0.0
H525 H 0.47747 0.6181 0.27419 0.0
H526 H 0.43751 0.58199 0.2482 0.0
H527 H 0.41242 0.53827 0.21843 0.0
H528 H 0.44559 0.49212 0.21433 0.0
H529 H 0.48622 0.52845 0.23595 0.0
C530 C 0.49597 0.57532 0.25681 0.0
C531 C 0.49812 0.59873 0.26662 0.0
C532 C 0.47272 0.55424 0.24302 0.0
C533 C 0.47661 0.60055 0.26454 0.0
C534 C 0.45364 0.57984 0.25017 0.0
C535 C 0.42836 0.53589 0.22386 0.0
C536 C 0.42569 0.51226 0.2155 0.0
C537 C 0.4515 0.55666 0.23882 0.0
C538 C 0.44694 0.51001 0.21965 0.0
C539 C 0.47022 0.53079 0.23283 0.0
H540 H 0.93694 0.51202 0.66722 0.0
H541 H 0.93426 0.51076 0.9431 0.0
H542 H 0.93599 0.4726 0.94455 0.0
H543 H 0.93555 0.4381 0.86702 0.0
H544 H 0.93833 0.4394 0.59115 0.0
H545 H 0.93946 0.47902 0.59004 0.0
C546 C 0.93689 0.50344 0.72761 0.0
C547 C 0.93539 0.51418 0.8049 0.0
C548 C 0.93783 0.48145 0.72795 0.0
C549 C 0.93563 0.50302 0.88274 0.0
C550 C 0.93644 0.48109 0.8836 0.0
C551 C 0.93655 0.44716 0.80674 0.0
C552 C 0.93676 0.43577 0.7293 0.0
C553 C 0.93714 0.46992 0.80658 0.0
C554 C 0.93836 0.44785 0.65167 0.0
C555 C 0.93883 0.47044 0.65097 0.0
H556 H 0.5057 0.92811 0.13087 0.0
H557 H 0.51477 0.92164 0.40125 0.0
H558 H 0.47816 0.9249 0.43156 0.0
H559 H 0.44151 0.9261 0.38016 0.0
H560 H 0.43064 0.92915 0.10919 0.0
H561 H 0.46993 0.93099 0.0798 0.0
C562 C 0.49983 0.92786 0.19637 0.0
C563 C 0.51287 0.92471 0.26379 0.0
C564 C 0.47833 0.929 0.21306 0.0
C565 C 0.50493 0.924 0.34841 0.0
C566 C 0.48401 0.92584 0.36572 0.0
C567 C 0.44806 0.92764 0.31493 0.0
C568 C 0.43339 0.92764 0.2469 0.0
C569 C 0.47027 0.92785 0.29849 0.0
C570 C 0.44174 0.92917 0.16244 0.0
C571 C 0.46414 0.93016 0.14566 0.0
H572 H 0.51185 0.44059 0.74939 0.0
H573 H 0.54709 0.39692 0.78352 0.0
H574 H 0.58738 0.43354 0.7684 0.0
H575 H 0.61274 0.47751 0.74263 0.0
H576 H 0.57889 0.52262 0.71503 0.0
H577 H 0.53804 0.4859 0.72834 0.0
C578 C 0.52838 0.43919 0.75421 0.0
C579 C 0.52636 0.41593 0.76639 0.0
C580 C 0.55177 0.46053 0.74567 0.0
C581 C 0.54801 0.41445 0.77235 0.0
C582 C 0.57112 0.43542 0.76404 0.0
C583 C 0.59653 0.47952 0.74087 0.0
C584 C 0.59906 0.50297 0.72867 0.0
C585 C 0.57322 0.45849 0.75014 0.0
C586 C 0.5776 0.50484 0.72373 0.0
C587 C 0.55421 0.48385 0.73203 0.0
H588 H 0.12878 0.46333 0.66394 0.0
H589 H 0.12591 0.39524 0.59544 0.0
H590 H 0.11555 0.38064 0.7431 0.0
H591 H 0.10791 0.3876 0.89191 0.0
H592 H 0.10952 0.45529 0.95891 0.0
H593 H 0.12006 0.46982 0.81184 0.0
C594 C 0.12617 0.44544 0.6817 0.0
C595 C 0.12829 0.43046 0.61922 0.0
C596 C 0.11997 0.43709 0.76633 0.0
C597 C 0.1243 0.40705 0.64252 0.0
C598 C 0.11841 0.39872 0.72685 0.0
C599 C 0.11023 0.40538 0.87424 0.0
C600 C 0.10806 0.42037 0.93676 0.0
C601 C 0.11614 0.41358 0.78927 0.0
C602 C 0.11147 0.44353 0.91257 0.0
C603 C 0.11741 0.45183 0.82834 0.0
H604 H 0.73651 0.11587 0.43499 0.0
H605 H 0.66789 0.1119 0.5034 0.0
H606 H 0.66261 0.12163 0.35657 0.0
H607 H 0.67744 0.13134 0.20862 0.0
H608 H 0.74555 0.13462 0.13839 0.0
H609 H 0.75096 0.12481 0.28557 0.0
C610 C 0.72027 0.11683 0.41756 0.0
C611 C 0.70271 0.1133 0.48047 0.0
C612 C 0.7173 0.12241 0.33266 0.0
C613 C 0.68189 0.11491 0.45672 0.0
C614 C 0.6788 0.1204 0.37263 0.0
C615 C 0.69361 0.13022 0.22578 0.0
C616 C 0.71115 0.13389 0.16279 0.0
C617 C 0.69648 0.12439 0.31024 0.0
C618 C 0.73174 0.13178 0.18565 0.0
C619 C 0.73485 0.1262 0.26979 0.0
H620 H 0.5576 0.67594 0.68851 0.0
H621 H 0.6299 0.73439 0.61845 0.0
H622 H 0.6441 0.73661 0.76587 0.0
H623 H 0.63564 0.72219 0.91515 0.0
H624 H 0.56351 0.66272 0.98326 0.0
H625 H 0.54949 0.66074 0.83647 0.0
C626 C 0.57636 0.68933 0.70591 0.0
C627 C 0.59264 0.70509 0.64311 0.0
C628 C 0.58443 0.69026 0.79034 0.0
C629 C 0.61708 0.72201 0.66586 0.0
C630 C 0.62518 0.7233 0.75004 0.0
C631 C 0.61697 0.70859 0.89768 0.0
C632 C 0.60063 0.69277 0.96048 0.0
C633 C 0.60903 0.70745 0.81281 0.0
C634 C 0.57637 0.67541 0.93667 0.0
C635 C 0.56834 0.6742 0.85261 0.0
H636 H 0.88725 0.57883 0.47441 0.0
H637 H 0.95829 0.64373 0.43946 0.0
H638 H 0.95422 0.6384 0.28446 0.0
H639 H 0.93063 0.61505 0.15754 0.0
H640 H 0.8587 0.55102 0.19312 0.0
H641 H 0.86324 0.55602 0.3474 0.0
C642 C 0.90196 0.5916 0.43288 0.0
C643 C 0.9231 0.61163 0.46901 0.0
C644 C 0.89941 0.58853 0.3431 0.0
C645 C 0.94177 0.62825 0.4137 0.0
C646 C 0.93949 0.62515 0.32476 0.0
C647 C 0.91581 0.60227 0.19863 0.0
C648 C 0.89441 0.58251 0.16217 0.0
C649 C 0.91835 0.6054 0.28844 0.0
C650 C 0.87561 0.56615 0.21795 0.0
C651 C 0.87811 0.56904 0.30689 0.0
H652 H 0.35402 0.89571 0.68545 0.0
H653 H 0.28701 0.89461 0.61452 0.0
H654 H 0.28176 0.90454 0.76172 0.0
H655 H 0.29588 0.91263 0.91137 0.0
H656 H 0.36362 0.91477 0.98048 0.0
H657 H 0.36883 0.90513 0.83354 0.0
C658 C 0.33815 0.89737 0.70256 0.0
C659 C 0.32082 0.89423 0.63956 0.0
C660 C 0.33541 0.90331 0.78694 0.0
C661 C 0.30062 0.89702 0.66202 0.0
C662 C 0.29761 0.90266 0.7461 0.0
C663 C 0.31194 0.91132 0.89409 0.0
C664 C 0.3292 0.91421 0.95723 0.0
C665 C 0.3149 0.90586 0.80915 0.0
C666 C 0.34981 0.91219 0.93363 0.0
C667 C 0.35287 0.90676 0.84949 0.0
H668 H 0.45075 0.30754 0.45782 0.0
H669 H 0.38915 0.31928 0.42122 0.0
H670 H 0.39454 0.32003 0.26616 0.0
H671 H 0.41687 0.31751 0.13967 0.0
H672 H 0.47798 0.30491 0.17654 0.0
H673 H 0.47276 0.30454 0.33107 0.0
C674 C 0.43865 0.3105 0.41604 0.0
C675 C 0.41954 0.31336 0.45191 0.0
C676 C 0.44173 0.31071 0.32616 0.0
C677 C 0.40385 0.31679 0.39596 0.0
C678 C 0.40696 0.31728 0.30695 0.0
C679 C 0.42892 0.31445 0.18117 0.0
C680 C 0.44794 0.31142 0.14512 0.0
C681 C 0.42577 0.31414 0.27104 0.0
C682 C 0.46343 0.30771 0.20128 0.0
C683 C 0.4604 0.30738 0.29027 0.0
H684 H 0.63535 0.92923 0.60289 0.0
H685 H 0.56642 0.86943 0.5097 0.0
H686 H 0.55268 0.85635 0.65528 0.0
H687 H 0.55977 0.86211 0.80948 0.0
H688 H 0.62935 0.92101 0.90247 0.0
H689 H 0.64338 0.93349 0.75723 0.0
C690 C 0.61743 0.91321 0.61433 0.0
C691 C 0.60188 0.90076 0.54503 0.0
C692 C 0.60969 0.90541 0.69854 0.0
C693 C 0.57862 0.87999 0.56134 0.0
C694 C 0.57077 0.87225 0.64487 0.0
C695 C 0.57795 0.87774 0.7983 0.0
C696 C 0.59308 0.89079 0.86787 0.0
C697 C 0.58606 0.88496 0.71401 0.0
C698 C 0.61696 0.91058 0.85127 0.0
C699 C 0.62511 0.91787 0.76766 0.0
H700 H 0.68582 0.55368 0.33193 0.0
H701 H 0.74252 0.62702 0.40073 0.0
H702 H 0.74425 0.64076 0.25303 0.0
H703 H 0.72957 0.63181 0.10428 0.0
H704 H 0.67213 0.55857 0.03684 0.0
H705 H 0.67093 0.54482 0.18374 0.0
C706 C 0.69877 0.57257 0.31426 0.0
C707 C 0.71409 0.58928 0.37697 0.0
C708 C 0.69947 0.58037 0.22954 0.0
C709 C 0.73044 0.61386 0.35358 0.0
C710 C 0.73145 0.62171 0.2692 0.0
C711 C 0.7166 0.61293 0.1219 0.0
C712 C 0.70102 0.59624 0.05943 0.0
C713 C 0.71593 0.60515 0.20672 0.0
C714 C 0.68456 0.57172 0.0833 0.0
C715 C 0.6838 0.56384 0.16739 0.0
H716 H 0.08845 0.7072 0.62379 0.0
H717 H 0.15347 0.70688 0.53489 0.0
H718 H 0.16527 0.70471 0.68181 0.0
H719 H 0.1566 0.70197 0.83556 0.0
H720 H 0.09151 0.70233 0.92369 0.0
H721 H 0.08064 0.70606 0.77768 0.0
C722 C 0.10531 0.70692 0.63684 0.0
C723 C 0.11982 0.70682 0.5688 0.0
C724 C 0.11205 0.70576 0.72139 0.0
C725 C 0.14162 0.70634 0.58622 0.0
C726 C 0.1485 0.70529 0.67022 0.0
C727 C 0.13999 0.70274 0.82281 0.0
C728 C 0.12486 0.70169 0.89079 0.0
C729 C 0.13369 0.70469 0.73828 0.0
C730 C 0.10363 0.70323 0.87307 0.0
C731 C 0.09728 0.70524 0.78931 0.0
H732 H 0.45016 0.11084 0.08672 0.0
H733 H 0.37343 0.08931 0.11585 0.0
H734 H 0.37892 0.09546 0.2693 0.0
H735 H 0.40551 0.10773 0.39732 0.0
H736 H 0.48238 0.1303 0.36831 0.0
H737 H 0.47683 0.12348 0.21441 0.0
C738 C 0.43462 0.10766 0.12611 0.0
C739 C 0.41134 0.09941 0.08792 0.0
C740 C 0.43792 0.1116 0.21551 0.0
C741 C 0.39152 0.09522 0.1418 0.0
C742 C 0.39465 0.09891 0.23038 0.0
C743 C 0.42103 0.11103 0.35755 0.0
C744 C 0.44439 0.11972 0.39533 0.0
C745 C 0.41775 0.1071 0.26818 0.0
C746 C 0.46427 0.12404 0.34176 0.0
C747 C 0.46108 0.11999 0.2533 0.0
H748 H 0.3436 0.46271 0.79612 0.0
H749 H 0.27945 0.39393 0.86504 0.0
H750 H 0.27576 0.37925 0.71768 0.0
H751 H 0.29062 0.38626 0.56871 0.0
H752 H 0.35544 0.45484 0.50161 0.0
H753 H 0.35886 0.46941 0.6484 0.0
C754 C 0.32863 0.44464 0.77863 0.0
C755 C 0.31172 0.42951 0.84132 0.0
C756 C 0.32678 0.43627 0.69408 0.0
C757 C 0.29275 0.40589 0.81803 0.0
C758 C 0.29063 0.39751 0.73378 0.0
C759 C 0.30566 0.40425 0.58635 0.0
C760 C 0.32266 0.41946 0.52379 0.0
C761 C 0.30759 0.41252 0.67126 0.0
C762 C 0.34187 0.44289 0.54793 0.0
C763 C 0.3439 0.45122 0.63203 0.0
H764 H 0.93137 0.32641 0.37385 0.0
H765 H 0.86904 0.33715 0.33766 0.0
H766 H 0.8742 0.33759 0.18311 0.0
H767 H 0.89537 0.3333 0.05641 0.0
H768 H 0.95834 0.32369 0.09321 0.0
H769 H 0.95392 0.3245 0.24767 0.0
C770 C 0.91905 0.32916 0.3326 0.0
C771 C 0.89963 0.33146 0.36873 0.0
C772 C 0.92215 0.3295 0.24287 0.0
C773 C 0.88386 0.33482 0.31282 0.0
C774 C 0.88687 0.33523 0.22384 0.0
C775 C 0.90837 0.33176 0.09803 0.0
C776 C 0.92703 0.32817 0.06215 0.0
C777 C 0.9058 0.33233 0.18787 0.0
C778 C 0.9435 0.326 0.11814 0.0
C779 C 0.94109 0.32662 0.20702 0.0
H780 H 0.1753 0.40249 0.35461 0.0
H781 H 0.16527 0.4069 0.08392 0.0
H782 H 0.2003 0.40109 0.05335 0.0
H783 H 0.23857 0.40314 0.1046 0.0
H784 H 0.25068 0.40263 0.37555 0.0
H785 H 0.21025 0.39797 0.40526 0.0
C786 C 0.18024 0.40115 0.28909 0.0
C787 C 0.16768 0.40493 0.22157 0.0
C788 C 0.20117 0.39886 0.27208 0.0
C789 C 0.17463 0.40385 0.13684 0.0
C790 C 0.1948 0.40073 0.11934 0.0
C791 C 0.23181 0.40091 0.16979 0.0
C792 C 0.24738 0.40293 0.23778 0.0
C793 C 0.20893 0.39938 0.18647 0.0
C794 C 0.23881 0.40081 0.32223 0.0
C795 C 0.21579 0.39841 0.33927 0.0
H796 H 0.85439 0.24774 0.88145 0.0
H797 H 0.86139 0.25465 0.60705 0.0
H798 H 0.82386 0.21453 0.59062 0.0
H799 H 0.78569 0.18108 0.65491 0.0
H800 H 0.77929 0.17351 0.9293 0.0
H801 H 0.82017 0.21005 0.94554 0.0
C802 C 0.84807 0.24007 0.81812 0.0
C803 C 0.86051 0.25415 0.74547 0.0
C804 C 0.82646 0.21704 0.80938 0.0
C805 C 0.85224 0.24407 0.66379 0.0
C806 C 0.83063 0.22125 0.65448 0.0
C807 C 0.79359 0.18707 0.71817 0.0
C808 C 0.77946 0.1748 0.79092 0.0
C809 C 0.81708 0.20808 0.7268 0.0
C810 C 0.78987 0.18257 0.87247 0.0
C811 C 0.81315 0.20361 0.88169 0.0
H812 H 0.62128 0.8438 0.36957 0.0
H813 H 0.62307 0.85258 0.09562 0.0
H814 H 0.62916 0.81707 0.07772 0.0
H815 H 0.6258 0.77919 0.13978 0.0
H816 H 0.62447 0.77064 0.41368 0.0
H817 H 0.62705 0.81074 0.43234 0.0
C818 C 0.62379 0.83837 0.3061 0.0
C819 C 0.62147 0.85056 0.23388 0.0
C820 C 0.62717 0.81788 0.29651 0.0
C821 C 0.62489 0.84354 0.15204 0.0
C822 C 0.62814 0.82309 0.14187 0.0
C823 C 0.62708 0.78661 0.20353 0.0
C824 C 0.62487 0.772 0.27533 0.0
C825 C 0.62818 0.80949 0.2135 0.0
C826 C 0.62643 0.78167 0.35759 0.0
C827 C 0.62754 0.80444 0.36815 0.0
H828 H 0.84972 0.61811 0.89533 0.0
H829 H 0.86117 0.61615 0.62444 0.0
H830 H 0.82557 0.62104 0.59407 0.0
H831 H 0.78661 0.61752 0.64474 0.0
H832 H 0.77313 0.61556 0.91547 0.0
H833 H 0.81389 0.62112 0.946 0.0
C834 C 0.84494 0.61979 0.82991 0.0
C835 C 0.85809 0.61697 0.7622 0.0
C836 C 0.82371 0.62155 0.8129 0.0
C837 C 0.85136 0.61846 0.67753 0.0
C838 C 0.83087 0.62106 0.66012 0.0
C839 C 0.79313 0.61944 0.71017 0.0
C840 C 0.7771 0.61648 0.77778 0.0
C841 C 0.81622 0.62147 0.7272 0.0
C842 C 0.78536 0.61815 0.86247 0.0
C843 C 0.80857 0.62105 0.87994 0.0
H844 H 0.2437 0.84603 0.14154 0.0
H845 H 0.25369 0.85567 0.41455 0.0
H846 H 0.21338 0.81888 0.43757 0.0
H847 H 0.17892 0.78031 0.37937 0.0
H848 H 0.16827 0.77123 0.10652 0.0
H849 H 0.20497 0.81169 0.08368 0.0
C850 C 0.23667 0.84046 0.20603 0.0
C851 C 0.25169 0.8534 0.27635 0.0
C852 C 0.21351 0.81926 0.21857 0.0
C853 C 0.24241 0.84613 0.35952 0.0
C854 C 0.21947 0.82493 0.37261 0.0
C855 C 0.18424 0.78759 0.31503 0.0
C856 C 0.17106 0.77281 0.2446 0.0
C857 C 0.20536 0.81081 0.30263 0.0
C858 C 0.17802 0.78235 0.1616 0.0
C859 C 0.19915 0.80537 0.14862 0.0
H860 H 0.40805 0.23335 0.88576 0.0
H861 H 0.41003 0.24347 0.61276 0.0
H862 H 0.40398 0.20219 0.58982 0.0
H863 H 0.40666 0.16685 0.6477 0.0
H864 H 0.40839 0.15853 0.92068 0.0
H865 H 0.40392 0.19473 0.94364 0.0
C866 C 0.40608 0.22602 0.82151 0.0
C867 C 0.4093 0.24129 0.75106 0.0
C868 C 0.40369 0.20258 0.80881 0.0
C869 C 0.40741 0.2319 0.66794 0.0
C870 C 0.40418 0.20837 0.65477 0.0
C871 C 0.40499 0.17242 0.71195 0.0
C872 C 0.40767 0.16001 0.78239 0.0
C873 C 0.4035 0.19399 0.72466 0.0
C874 C 0.40619 0.16777 0.86552 0.0
C875 C 0.40385 0.18861 0.8787 0.0
loop_
_geom_bond_atom_site_label_1
_geom_bond_atom_site_label_2
_geom_bond_distance
_geom_bond_site_symmetry_2
_ccdc_geom_bond_type
C0 C1 1.351 . S
C0 N3 1.368 . S
C0 H5 0.931 . S
C1 C0 1.351 . S
C1 N2 1.373 . S
C1 H29 0.930 . S
N2 C1 1.373 . S
N2 C4 1.340 . S
N3 C0 1.368 . S
N3 C4 1.321 . S
N3 Co6 2.135 . S
C4 N2 1.340 . S
C4 N3 1.321 . S
C4 H28 0.930 . S
H5 C0 0.931 . S
Co6 N3 2.135 . S
Co6 N9 2.121 . S
Co6 O14 2.055 . S
Co6 O17 2.039 . S
Co6 N20 2.140 . S
C7 O8 1.227 . S
C7 O17 1.265 . S
O8 C7 1.227 . S
N9 Co6 2.121 . S
N9 C11 1.375 . S
N9 C12 1.313 . S
C10 C11 1.338 . S
C10 N13 1.377 . S
C10 H30 0.930 . S
C11 N9 1.375 . S
C11 C10 1.338 . S
C11 H15 0.931 . S
C12 N9 1.313 . S
C12 N13 1.344 . S
C12 H16 0.930 . S
N13 C10 1.377 . S
N13 C12 1.344 . S
O14 Co6 2.055 . S
O14 C18 1.253 . S
H15 C11 0.931 . S
H16 C12 0.930 . S
O17 Co6 2.039 . S
O17 C7 1.265 . S
C18 O14 1.253 . S
C18 O19 1.227 . S
O19 C18 1.227 . S
N20 Co6 2.140 . S
N20 C23 1.346 . S
N20 C24 1.345 . S
C21 C22 1.387 . S
C21 C25 1.391 . S
C22 C21 1.387 . S
C22 C23 1.369 . S
C22 H31 0.929 . S
C23 N20 1.346 . S
C23 C22 1.369 . S
C23 H26 0.928 . S
C24 N20 1.345 . S
C24 C25 1.371 . S
C24 H27 0.931 . S
C25 C21 1.391 . S
C25 C24 1.371 . S
C25 H32 0.930 . S
H26 C23 0.928 . S
H27 C24 0.931 . S
H28 C4 0.930 . S
H29 C1 0.930 . S
H30 C10 0.930 . S
H31 C22 0.929 . S
H32 C25 0.930 . S
C33 C34 1.351 1_556 S
C33 N36 1.368 . S
C33 H38 0.931 . S
C34 C33 1.351 1_554 S
C34 N35 1.373 . S
C34 H62 0.930 . S
N35 C34 1.373 . S
N35 C37 1.340 . S
N36 C33 1.368 . S
N36 C37 1.321 1_556 S
N36 Co39 2.135 . S
C37 N35 1.340 . S
C37 N36 1.321 1_554 S
C37 H61 0.930 . S
H38 C33 0.931 . S
Co39 N36 2.135 . S
Co39 N42 2.121 . S
Co39 O47 2.055 . S
Co39 O50 2.039 . S
Co39 N53 2.140 . S
C40 O41 1.227 . S
C40 O50 1.265 . S
O41 C40 1.227 . S
N42 Co39 2.121 . S
N42 C44 1.375 . S
N42 C45 1.313 . S
C43 C44 1.338 . S
C43 N46 1.377 . S
C43 H63 0.930 . S
C44 N42 1.375 . S
C44 C43 1.338 . S
C44 H48 0.931 . S
C45 N42 1.313 . S
C45 N46 1.344 . S
C45 H49 0.930 . S
N46 C43 1.377 . S
N46 C45 1.344 . S
O47 Co39 2.055 . S
O47 C51 1.253 . S
H48 C44 0.931 . S
H49 C45 0.930 . S
O50 Co39 2.039 . S
O50 C40 1.265 . S
C51 O47 1.253 . S
C51 O52 1.227 . S
O52 C51 1.227 . S
N53 Co39 2.140 . S
N53 C56 1.346 . S
N53 C57 1.345 . S
C54 C55 1.387 . S
C54 C58 1.391 . S
C55 C54 1.387 . S
C55 C56 1.369 . S
C55 H64 0.929 . S
C56 N53 1.346 . S
C56 C55 1.369 . S
C56 H59 0.928 . S
C57 N53 1.345 . S
C57 C58 1.371 . S
C57 H60 0.931 . S
C58 C54 1.391 . S
C58 C57 1.371 . S
C58 H65 0.930 . S
H59 C56 0.928 . S
H60 C57 0.931 . S
H61 C37 0.930 . S
H62 C34 0.930 . S
H63 C43 0.930 . S
H64 C55 0.929 . S
H65 C58 0.930 . S
C66 C67 1.351 . S
C66 N69 1.368 . S
C66 H71 0.931 . S
C67 C66 1.351 . S
C67 N68 1.373 . S
C67 H95 0.930 . S
N68 C67 1.373 . S
N68 C70 1.340 . S
N69 C66 1.368 . S
N69 C70 1.321 . S
N69 Co72 2.135 . S
C70 N68 1.340 . S
C70 N69 1.321 . S
C70 H94 0.930 . S
H71 C66 0.931 . S
Co72 N69 2.135 . S
Co72 N75 2.121 . S
Co72 O80 2.055 . S
Co72 O83 2.039 . S
Co72 N86 2.140 . S
C73 O74 1.227 . S
C73 O83 1.265 . S
O74 C73 1.227 . S
N75 Co72 2.121 . S
N75 C77 1.375 . S
N75 C78 1.313 . S
C76 C77 1.338 . S
C76 N79 1.377 . S
C76 H96 0.930 . S
C77 N75 1.375 . S
C77 C76 1.338 . S
C77 H81 0.931 . S
C78 N75 1.313 . S
C78 N79 1.344 . S
C78 H82 0.930 . S
N79 C76 1.377 . S
N79 C78 1.344 . S
O80 Co72 2.055 . S
O80 C84 1.253 . S
H81 C77 0.931 . S
H82 C78 0.930 . S
O83 Co72 2.039 . S
O83 C73 1.265 . S
C84 O80 1.253 . S
C84 O85 1.227 . S
O85 C84 1.227 . S
N86 Co72 2.140 . S
N86 C89 1.346 . S
N86 C90 1.345 . S
C87 C88 1.387 . S
C87 C91 1.391 . S
C88 C87 1.387 . S
C88 C89 1.369 . S
C88 H97 0.929 . S
C89 N86 1.346 . S
C89 C88 1.369 . S
C89 H92 0.928 . S
C90 N86 1.345 . S
C90 C91 1.371 . S
C90 H93 0.931 . S
C91 C87 1.391 . S
C91 C90 1.371 . S
C91 H98 0.930 . S
H92 C89 0.928 . S
H93 C90 0.931 . S
H94 C70 0.930 . S
H95 C67 0.930 . S
H96 C76 0.930 . S
H97 C88 0.929 . S
H98 C91 0.930 . S
C99 C100 1.351 1_556 S
C99 N102 1.368 . S
C99 H104 0.931 . S
C100 C99 1.351 1_554 S
C100 N101 1.373 . S
C100 H128 0.930 . S
N101 C100 1.373 . S
N101 C103 1.340 . S
N102 C99 1.368 . S
N102 C103 1.321 1_556 S
N102 Co105 2.135 . S
C103 N101 1.340 . S
C103 N102 1.321 1_554 S
C103 H127 0.930 . S
H104 C99 0.931 . S
Co105 N102 2.135 . S
Co105 N108 2.121 . S
Co105 O113 2.055 . S
Co105 O116 2.039 . S
Co105 N119 2.140 . S
C106 O107 1.227 . S
C106 O116 1.265 . S
O107 C106 1.227 . S
N108 Co105 2.121 . S
N108 C110 1.375 . S
N108 C111 1.313 . S
C109 C110 1.338 . S
C109 N112 1.377 . S
C109 H129 0.930 . S
C110 N108 1.375 . S
C110 C109 1.338 . S
C110 H114 0.931 . S
C111 N108 1.313 . S
C111 N112 1.344 . S
C111 H115 0.930 . S
N112 C109 1.377 . S
N112 C111 1.344 . S
O113 Co105 2.055 . S
O113 C117 1.253 . S
H114 C110 0.931 . S
H115 C111 0.930 . S
O116 Co105 2.039 . S
O116 C106 1.265 . S
C117 O113 1.253 . S
C117 O118 1.227 . S
O118 C117 1.227 . S
N119 Co105 2.140 . S
N119 C122 1.346 . S
N119 C123 1.345 . S
C120 C121 1.387 . S
C120 C124 1.391 . S
C121 C120 1.387 . S
C121 C122 1.369 . S
C121 H130 0.929 . S
C122 N119 1.346 . S
C122 C121 1.369 . S
C122 H125 0.928 . S
C123 N119 1.345 . S
C123 C124 1.371 . S
C123 H126 0.931 . S
C124 C120 1.391 . S
C124 C123 1.371 . S
C124 H131 0.930 . S
H125 C122 0.928 . S
H126 C123 0.931 . S
H127 C103 0.930 . S
H128 C100 0.930 . S
H129 C109 0.930 . S
H130 C121 0.929 . S
H131 C124 0.930 . S
C132 C133 1.351 . S
C132 N135 1.368 . S
C132 H137 0.931 . S
C133 C132 1.351 . S
C133 N134 1.373 . S
C133 H161 0.930 . S
N134 C133 1.373 . S
N134 C136 1.340 . S
N135 C132 1.368 . S
N135 C136 1.321 . S
N135 Co138 2.135 . S
C136 N134 1.340 . S
C136 N135 1.321 . S
C136 H160 0.930 . S
H137 C132 0.931 . S
Co138 N135 2.135 . S
Co138 N141 2.121 . S
Co138 O146 2.055 . S
Co138 O149 2.039 . S
Co138 N152 2.140 . S
C139 O140 1.227 . S
C139 O149 1.265 . S
O140 C139 1.227 . S
N141 Co138 2.121 . S
N141 C143 1.375 . S
N141 C144 1.313 . S
C142 C143 1.338 . S
C142 N145 1.377 . S
C142 H162 0.930 . S
C143 N141 1.375 . S
C143 C142 1.338 . S
C143 H147 0.931 . S
C144 N141 1.313 . S
C144 N145 1.344 . S
C144 H148 0.930 . S
N145 C142 1.377 . S
N145 C144 1.344 . S
O146 Co138 2.055 . S
O146 C150 1.253 . S
H147 C143 0.931 . S
H148 C144 0.930 . S
O149 Co138 2.039 . S
O149 C139 1.265 . S
C150 O146 1.253 . S
C150 O151 1.227 . S
O151 C150 1.227 . S
N152 Co138 2.140 . S
N152 C155 1.346 . S
N152 C156 1.345 . S
C153 C154 1.387 . S
C153 C157 1.391 . S
C154 C153 1.387 . S
C154 C155 1.369 . S
C154 H163 0.929 . S
C155 N152 1.346 . S
C155 C154 1.369 . S
C155 H158 0.928 . S
C156 N152 1.345 . S
C156 C157 1.371 . S
C156 H159 0.931 . S
C157 C153 1.391 . S
C157 C156 1.371 . S
C157 H164 0.930 . S
H158 C155 0.928 . S
H159 C156 0.931 . S
H160 C136 0.930 . S
H161 C133 0.930 . S
H162 C142 0.930 . S
H163 C154 0.929 . S
H164 C157 0.930 . S
C165 C166 1.351 1_556 S
C165 N168 1.368 . S
C165 H170 0.931 . S
C166 C165 1.351 1_554 S
C166 N167 1.373 . S
C166 H194 0.930 . S
N167 C166 1.373 . S
N167 C169 1.340 . S
N168 C165 1.368 . S
N168 C169 1.321 1_556 S
N168 Co171 2.135 . S
C169 N167 1.340 . S
C169 N168 1.321 1_554 S
C169 H193 0.930 . S
H170 C165 0.931 . S
Co171 N168 2.135 . S
Co171 N174 2.121 . S
Co171 O179 2.055 . S
Co171 O182 2.039 . S
Co171 N185 2.140 . S
C172 O173 1.227 . S
C172 O182 1.265 . S
O173 C172 1.227 . S
N174 Co171 2.121 . S
N174 C176 1.375 . S
N174 C177 1.313 . S
C175 C176 1.338 . S
C175 N178 1.377 . S
C175 H195 0.930 . S
C176 N174 1.375 . S
C176 C175 1.338 . S
C176 H180 0.931 . S
C177 N174 1.313 . S
C177 N178 1.344 . S
C177 H181 0.930 . S
N178 C175 1.377 . S
N178 C177 1.344 . S
O179 Co171 2.055 . S
O179 C183 1.253 . S
H180 C176 0.931 . S
H181 C177 0.930 . S
O182 Co171 2.039 . S
O182 C172 1.265 . S
C183 O179 1.253 . S
C183 O184 1.227 . S
O184 C183 1.227 . S
N185 Co171 2.140 . S
N185 C188 1.346 . S
N185 C189 1.345 . S
C186 C187 1.387 . S
C186 C190 1.391 . S
C187 C186 1.387 . S
C187 C188 1.369 . S
C187 H196 0.929 . S
C188 N185 1.346 . S
C188 C187 1.369 . S
C188 H191 0.928 . S
C189 N185 1.345 . S
C189 C190 1.371 . S
C189 H192 0.931 . S
C190 C186 1.391 . S
C190 C189 1.371 . S
C190 H197 0.930 . S
H191 C188 0.928 . S
H192 C189 0.931 . S
H193 C169 0.930 . S
H194 C166 0.930 . S
H195 C175 0.930 . S
H196 C187 0.929 . S
H197 C190 0.930 . S
C198 C199 1.351 1_554 S
C198 N201 1.368 . S
C198 H203 0.931 . S
C199 C198 1.351 1_556 S
C199 N200 1.373 . S
C199 H227 0.930 . S
N200 C199 1.373 . S
N200 C202 1.340 . S
N201 C198 1.368 . S
N201 C202 1.321 1_554 S
N201 Co204 2.135 . S
C202 N200 1.340 . S
C202 N201 1.321 1_556 S
C202 H226 0.930 . S
H203 C198 0.931 . S
Co204 N201 2.135 . S
Co204 N207 2.121 . S
Co204 O212 2.055 . S
Co204 O215 2.039 . S
Co204 N218 2.140 . S
C205 O206 1.227 . S
C205 O215 1.265 . S
O206 C205 1.227 . S
N207 Co204 2.121 . S
N207 C209 1.375 . S
N207 C210 1.313 . S
C208 C209 1.338 . S
C208 N211 1.377 . S
C208 H228 0.930 . S
C209 N207 1.375 . S
C209 C208 1.338 . S
C209 H213 0.931 . S
C210 N207 1.313 . S
C210 N211 1.344 . S
C210 H214 0.930 . S
N211 C208 1.377 . S
N211 C210 1.344 . S
O212 Co204 2.055 . S
O212 C216 1.253 . S
H213 C209 0.931 . S
H214 C210 0.930 . S
O215 Co204 2.039 . S
O215 C205 1.265 . S
C216 O212 1.253 . S
C216 O217 1.227 . S
O217 C216 1.227 . S
N218 Co204 2.140 . S
N218 C221 1.346 . S
N218 C222 1.345 . S
C219 C220 1.387 . S
C219 C223 1.391 . S
C220 C219 1.387 . S
C220 C221 1.369 . S
C220 H229 0.929 . S
C221 N218 1.346 . S
C221 C220 1.369 . S
C221 H224 0.928 . S
C222 N218 1.345 . S
C222 C223 1.371 . S
C222 H225 0.931 . S
C223 C219 1.391 . S
C223 C222 1.371 . S
C223 H230 0.930 . S
H224 C221 0.928 . S
H225 C222 0.931 . S
H226 C202 0.930 . S
H227 C199 0.930 . S
H228 C208 0.930 . S
H229 C220 0.929 . S
H230 C223 0.930 . S
C231 C232 1.351 . S
C231 N234 1.368 . S
C231 H236 0.931 . S
C232 C231 1.351 . S
C232 N233 1.373 . S
C232 H260 0.930 . S
N233 C232 1.373 . S
N233 C235 1.340 . S
N234 C231 1.368 . S
N234 C235 1.321 . S
N234 Co237 2.135 . S
C235 N233 1.340 . S
C235 N234 1.321 . S
C235 H259 0.930 . S
H236 C231 0.931 . S
Co237 N234 2.135 . S
Co237 N240 2.121 . S
Co237 O245 2.055 . S
Co237 O248 2.039 . S
Co237 N251 2.140 . S
C238 O239 1.227 . S
C238 O248 1.265 . S
O239 C238 1.227 . S
N240 Co237 2.121 . S
N240 C242 1.375 . S
N240 C243 1.313 . S
C241 C242 1.338 . S
C241 N244 1.377 . S
C241 H261 0.930 . S
C242 N240 1.375 . S
C242 C241 1.338 . S
C242 H246 0.931 . S
C243 N240 1.313 . S
C243 N244 1.344 . S
C243 H247 0.930 . S
N244 C241 1.377 . S
N244 C243 1.344 . S
O245 Co237 2.055 . S
O245 C249 1.253 . S
H246 C242 0.931 . S
H247 C243 0.930 . S
O248 Co237 2.039 . S
O248 C238 1.265 . S
C249 O245 1.253 . S
C249 O250 1.227 . S
O250 C249 1.227 . S
N251 Co237 2.140 . S
N251 C254 1.346 . S
N251 C255 1.345 . S
C252 C253 1.387 . S
C252 C256 1.391 . S
C253 C252 1.387 . S
C253 C254 1.369 . S
C253 H262 0.929 . S
C254 N251 1.346 . S
C254 C253 1.369 . S
C254 H257 0.928 . S
C255 N251 1.345 . S
C255 C256 1.371 . S
C255 H258 0.931 . S
C256 C252 1.391 . S
C256 C255 1.371 . S
C256 H263 0.930 . S
H257 C254 0.928 . S
H258 C255 0.931 . S
H259 C235 0.930 . S
H260 C232 0.930 . S
H261 C241 0.930 . S
H262 C253 0.929 . S
H263 C256 0.930 . S
C264 C265 1.351 1_554 S
C264 N267 1.368 . S
C264 H269 0.931 . S
C265 C264 1.351 1_556 S
C265 N266 1.373 . S
C265 H293 0.930 . S
N266 C265 1.373 . S
N266 C268 1.340 . S
N267 C264 1.368 . S
N267 C268 1.321 1_554 S
N267 Co270 2.135 . S
C268 N266 1.340 . S
C268 N267 1.321 1_556 S
C268 H292 0.930 . S
H269 C264 0.931 . S
Co270 N267 2.135 . S
Co270 N273 2.121 . S
Co270 O278 2.055 . S
Co270 O281 2.039 . S
Co270 N284 2.140 . S
C271 O272 1.227 . S
C271 O281 1.265 . S
O272 C271 1.227 . S
N273 Co270 2.121 . S
N273 C275 1.375 . S
N273 C276 1.313 . S
C274 C275 1.338 . S
C274 N277 1.377 . S
C274 H294 0.930 . S
C275 N273 1.375 . S
C275 C274 1.338 . S
C275 H279 0.931 . S
C276 N273 1.313 . S
C276 N277 1.344 . S
C276 H280 0.930 . S
N277 C274 1.377 . S
N277 C276 1.344 . S
O278 Co270 2.055 . S
O278 C282 1.253 . S
H279 C275 0.931 . S
H280 C276 0.930 . S
O281 Co270 2.039 . S
O281 C271 1.265 . S
C282 O278 1.253 . S
C282 O283 1.227 . S
O283 C282 1.227 . S
N284 Co270 2.140 . S
N284 C287 1.346 . S
N284 C288 1.345 . S
C285 C286 1.387 . S
C285 C289 1.391 . S
C286 C285 1.387 . S
C286 C287 1.369 . S
C286 H295 0.929 . S
C287 N284 1.346 . S
C287 C286 1.369 . S
C287 H290 0.928 . S
C288 N284 1.345 . S
C288 C289 1.371 . S
C288 H291 0.931 . S
C289 C285 1.391 . S
C289 C288 1.371 . S
C289 H296 0.930 . S
H290 C287 0.928 . S
H291 C288 0.931 . S
H292 C268 0.930 . S
H293 C265 0.930 . S
H294 C274 0.930 . S
H295 C286 0.929 . S
H296 C289 0.930 . S
C297 C298 1.351 . S
C297 N300 1.368 . S
C297 H302 0.931 . S
C298 C297 1.351 . S
C298 N299 1.373 . S
C298 H326 0.930 . S
N299 C298 1.373 . S
N299 C301 1.340 . S
N300 C297 1.368 . S
N300 C301 1.321 . S
N300 Co303 2.135 . S
C301 N299 1.340 . S
C301 N300 1.321 . S
C301 H325 0.930 . S
H302 C297 0.931 . S
Co303 N300 2.135 . S
Co303 N306 2.121 . S
Co303 O311 2.055 . S
Co303 O314 2.039 . S
Co303 N317 2.140 . S
C304 O305 1.227 . S
C304 O314 1.265 . S
O305 C304 1.227 . S
N306 Co303 2.121 . S
N306 C308 1.375 . S
N306 C309 1.313 . S
C307 C308 1.338 . S
C307 N310 1.377 . S
C307 H327 0.930 . S
C308 N306 1.375 . S
C308 C307 1.338 . S
C308 H312 0.931 . S
C309 N306 1.313 . S
C309 N310 1.344 . S
C309 H313 0.930 . S
N310 C307 1.377 . S
N310 C309 1.344 . S
O311 Co303 2.055 . S
O311 C315 1.253 . S
H312 C308 0.931 . S
H313 C309 0.930 . S
O314 Co303 2.039 . S
O314 C304 1.265 . S
C315 O311 1.253 . S
C315 O316 1.227 . S
O316 C315 1.227 . S
N317 Co303 2.140 . S
N317 C320 1.346 . S
N317 C321 1.345 . S
C318 C319 1.387 . S
C318 C322 1.391 . S
C319 C318 1.387 . S
C319 C320 1.369 . S
C319 H328 0.929 . S
C320 N317 1.346 . S
C320 C319 1.369 . S
C320 H323 0.928 . S
C321 N317 1.345 . S
C321 C322 1.371 . S
C321 H324 0.931 . S
C322 C318 1.391 . S
C322 C321 1.371 . S
C322 H329 0.930 . S
H323 C320 0.928 . S
H324 C321 0.931 . S
H325 C301 0.930 . S
H326 C298 0.930 . S
H327 C307 0.930 . S
H328 C319 0.929 . S
H329 C322 0.930 . S
C330 C331 1.351 1_554 S
C330 N333 1.368 . S
C330 H335 0.931 . S
C331 C330 1.351 1_556 S
C331 N332 1.373 . S
C331 H359 0.930 . S
N332 C331 1.373 . S
N332 C334 1.340 . S
N333 C330 1.368 . S
N333 C334 1.321 1_554 S
N333 Co336 2.135 . S
C334 N332 1.340 . S
C334 N333 1.321 1_556 S
C334 H358 0.930 . S
H335 C330 0.931 . S
Co336 N333 2.135 . S
Co336 N339 2.121 . S
Co336 O344 2.055 . S
Co336 O347 2.039 . S
Co336 N350 2.140 . S
C337 O338 1.227 . S
C337 O347 1.265 . S
O338 C337 1.227 . S
N339 Co336 2.121 . S
N339 C341 1.375 . S
N339 C342 1.313 . S
C340 C341 1.338 . S
C340 N343 1.377 . S
C340 H360 0.930 . S
C341 N339 1.375 . S
C341 C340 1.338 . S
C341 H345 0.931 . S
C342 N339 1.313 . S
C342 N343 1.344 . S
C342 H346 0.930 . S
N343 C340 1.377 . S
N343 C342 1.344 . S
O344 Co336 2.055 . S
O344 C348 1.253 . S
H345 C341 0.931 . S
H346 C342 0.930 . S
O347 Co336 2.039 . S
O347 C337 1.265 . S
C348 O344 1.253 . S
C348 O349 1.227 . S
O349 C348 1.227 . S
N350 Co336 2.140 . S
N350 C353 1.346 . S
N350 C354 1.345 . S
C351 C352 1.387 . S
C351 C355 1.391 . S
C352 C351 1.387 . S
C352 C353 1.369 . S
C352 H361 0.929 . S
C353 N350 1.346 . S
C353 C352 1.369 . S
C353 H356 0.928 . S
C354 N350 1.345 . S
C354 C355 1.371 . S
C354 H357 0.931 . S
C355 C351 1.391 . S
C355 C354 1.371 . S
C355 H362 0.930 . S
H356 C353 0.928 . S
H357 C354 0.931 . S
H358 C334 0.930 . S
H359 C331 0.930 . S
H360 C340 0.930 . S
H361 C352 0.929 . S
H362 C355 0.930 . S
C363 C364 1.351 . S
C363 N366 1.368 . S
C363 H368 0.931 . S
C364 C363 1.351 . S
C364 N365 1.373 . S
C364 H392 0.930 . S
N365 C364 1.373 . S
N365 C367 1.340 . S
N366 C363 1.368 . S
N366 C367 1.321 . S
N366 Co369 2.135 . S
C367 N365 1.340 . S
C367 N366 1.321 . S
C367 H391 0.930 . S
H368 C363 0.931 . S
Co369 N366 2.135 . S
Co369 N372 2.121 . S
Co369 O377 2.055 . S
Co369 O380 2.039 . S
Co369 N383 2.140 . S
C370 O371 1.227 . S
C370 O380 1.265 . S
O371 C370 1.227 . S
N372 Co369 2.121 . S
N372 C374 1.375 . S
N372 C375 1.313 . S
C373 C374 1.338 . S
C373 N376 1.377 . S
C373 H393 0.930 . S
C374 N372 1.375 . S
C374 C373 1.338 . S
C374 H378 0.931 . S
C375 N372 1.313 . S
C375 N376 1.344 . S
C375 H379 0.930 . S
N376 C373 1.377 . S
N376 C375 1.344 . S
O377 Co369 2.055 . S
O377 C381 1.253 . S
H378 C374 0.931 . S
H379 C375 0.930 . S
O380 Co369 2.039 . S
O380 C370 1.265 . S
C381 O377 1.253 . S
C381 O382 1.227 . S
O382 C381 1.227 . S
N383 Co369 2.140 . S
N383 C386 1.346 . S
N383 C387 1.345 . S
C384 C385 1.387 . S
C384 C388 1.391 . S
C385 C384 1.387 . S
C385 C386 1.369 . S
C385 H394 0.929 . S
C386 N383 1.346 . S
C386 C385 1.369 . S
C386 H389 0.928 . S
C387 N383 1.345 . S
C387 C388 1.371 . S
C387 H390 0.931 . S
C388 C384 1.391 . S
C388 C387 1.371 . S
C388 H395 0.930 . S
H389 C386 0.928 . S
H390 C387 0.931 . S
H391 C367 0.930 . S
H392 C364 0.930 . S
H393 C373 0.930 . S
H394 C385 0.929 . S
H395 C388 0.930 . S
H396 C402 0.930 . S
H397 C405 0.930 . S
H398 C406 0.930 . S
H399 C407 0.930 . S
H400 C410 0.930 . S
H401 C411 0.930 . S
C402 H396 0.930 . S
C402 C403 1.355 . S
C402 C404 1.415 . S
C403 C402 1.355 . S
C403 C405 1.419 . S
C404 C402 1.415 . S
C404 C409 1.425 1_455 S
C404 C411 1.409 . S
C405 H397 0.930 . S
C405 C403 1.419 . S
C405 C406 1.362 1_455 S
C406 H398 0.930 . S
C406 C405 1.362 1_655 S
C406 C409 1.409 . S
C407 H399 0.930 . S
C407 C408 1.355 . S
C407 C409 1.415 . S
C408 C407 1.355 . S
C408 C410 1.419 . S
C409 C404 1.425 1_655 S
C409 C406 1.409 . S
C409 C407 1.415 . S
C410 H400 0.930 . S
C410 C408 1.419 . S
C410 C411 1.362 1_655 S
C411 H401 0.930 . S
C411 C404 1.409 . S
C411 C410 1.362 1_455 S
H412 C418 0.930 . S
H413 C421 0.930 . S
H414 C422 0.930 . S
H415 C423 0.930 . S
H416 C426 0.930 . S
H417 C427 0.930 . S
C418 H412 0.930 . S
C418 C419 1.355 . S
C418 C420 1.388 1_545 S
C419 C418 1.355 . S
C419 C421 1.419 . S
C420 C418 1.388 1_565 S
C420 C425 1.452 1_566 S
C420 C427 1.425 . S
C421 H413 0.930 . S
C421 C419 1.419 . S
C421 C422 1.362 1_556 S
C422 H414 0.930 . S
C422 C421 1.362 1_554 S
C422 C425 1.425 . S
C423 H415 0.930 . S
C423 C424 1.355 . S
C423 C425 1.387 1_565 S
C424 C423 1.355 . S
C424 C426 1.419 . S
C425 C420 1.452 1_544 S
C425 C422 1.425 . S
C425 C423 1.387 1_545 S
C426 H416 0.930 . S
C426 C424 1.419 . S
C426 C427 1.362 1_554 S
C427 H417 0.930 . S
C427 C420 1.425 . S
C427 C426 1.362 1_556 S
H428 C434 0.930 . S
H429 C437 0.930 . S
H430 C438 0.930 . S
H431 C439 0.930 . S
H432 C442 0.930 . S
H433 C443 0.930 . S
C434 H428 0.930 . S
C434 C435 1.355 . S
C434 C436 1.415 . S
C435 C434 1.355 . S
C435 C437 1.419 . S
C436 C434 1.415 . S
C436 C441 1.425 . S
C436 C443 1.409 . S
C437 H429 0.930 . S
C437 C435 1.419 . S
C437 C438 1.362 . S
C438 H430 0.930 . S
C438 C437 1.362 . S
C438 C441 1.409 . S
C439 H431 0.930 . S
C439 C440 1.355 . S
C439 C441 1.415 . S
C440 C439 1.355 . S
C440 C442 1.419 . S
C441 C436 1.425 . S
C441 C438 1.409 . S
C441 C439 1.415 . S
C442 H432 0.930 . S
C442 C440 1.419 . S
C442 C443 1.362 . S
C443 H433 0.930 . S
C443 C436 1.409 . S
C443 C442 1.362 . S
H444 C450 0.930 1_556 S
H445 C453 0.930 . S
H446 C454 0.930 . S
H447 C455 0.930 1_554 S
H448 C458 0.930 . S
H449 C459 0.930 . S
C450 H444 0.930 1_554 S
C450 C451 1.355 . S
C450 C452 1.415 1_554 S
C451 C450 1.355 . S
C451 C453 1.419 . S
C452 C450 1.415 1_556 S
C452 C457 1.425 1_456 S
C452 C459 1.409 . S
C453 H445 0.930 . S
C453 C451 1.419 . S
C453 C454 1.362 1_455 S
C454 H446 0.930 . S
C454 C453 1.362 1_655 S
C454 C457 1.409 . S
C455 H447 0.930 1_556 S
C455 C456 1.355 . S
C455 C457 1.415 1_556 S
C456 C455 1.355 . S
C456 C458 1.419 . S
C457 C452 1.425 1_654 S
C457 C454 1.409 . S
C457 C455 1.415 1_554 S
C458 H448 0.930 . S
C458 C456 1.419 . S
C458 C459 1.362 1_655 S
C459 H449 0.930 . S
C459 C452 1.409 . S
C459 C458 1.362 1_455 S
H460 C466 0.930 . S
H461 C469 0.930 . S
H462 C470 0.930 . S
H463 C471 0.930 . S
H464 C474 0.930 . S
H465 C475 0.930 . S
C466 H460 0.930 . S
C466 C467 1.355 . S
C466 C468 1.415 . S
C467 C466 1.355 . S
C467 C469 1.419 . S
C468 C466 1.415 . S
C468 C473 1.425 1_545 S
C468 C475 1.409 . S
C469 H461 0.930 . S
C469 C467 1.419 . S
C469 C470 1.362 1_545 S
C470 H462 0.930 . S
C470 C469 1.362 1_565 S
C470 C473 1.409 . S
C471 H463 0.930 . S
C471 C472 1.355 . S
C471 C473 1.415 . S
C472 C471 1.355 . S
C472 C474 1.419 . S
C473 C468 1.425 1_565 S
C473 C470 1.409 . S
C473 C471 1.415 . S
C474 H464 0.930 . S
C474 C472 1.419 . S
C474 C475 1.362 1_565 S
C475 H465 0.930 . S
C475 C468 1.409 . S
C475 C474 1.362 1_545 S
H476 C482 0.930 . S
H477 C485 0.930 . S
H478 C486 0.930 . S
H479 C487 0.930 . S
H480 C490 0.930 . S
H481 C491 0.930 . S
C482 H476 0.930 . S
C482 C483 1.355 . S
C482 C484 1.415 . S
C483 C482 1.355 . S
C483 C485 1.419 . S
C484 C482 1.415 . S
C484 C489 1.425 1_556 S
C484 C491 1.409 . S
C485 H477 0.930 . S
C485 C483 1.419 . S
C485 C486 1.362 1_556 S
C486 H478 0.930 . S
C486 C485 1.362 1_554 S
C486 C489 1.409 . S
C487 H479 0.930 . S
C487 C488 1.355 . S
C487 C489 1.415 . S
C488 C487 1.355 . S
C488 C490 1.419 . S
C489 C484 1.425 1_554 S
C489 C486 1.409 . S
C489 C487 1.415 . S
C490 H480 0.930 . S
C490 C488 1.419 . S
C490 C491 1.362 1_554 S
C491 H481 0.930 . S
C491 C484 1.409 . S
C491 C490 1.362 1_556 S
H492 C498 0.930 . S
H493 C501 0.930 . S
H494 C502 0.930 . S
H495 C503 0.930 . S
H496 C506 0.930 . S
H497 C507 0.930 . S
C498 H492 0.930 . S
C498 C499 1.355 . S
C498 C500 1.415 . S
C499 C498 1.355 . S
C499 C501 1.419 . S
C500 C498 1.415 . S
C500 C505 1.425 . S
C500 C507 1.409 . S
C501 H493 0.930 . S
C501 C499 1.419 . S
C501 C502 1.362 . S
C502 H494 0.930 . S
C502 C501 1.362 . S
C502 C505 1.409 . S
C503 H495 0.930 . S
C503 C504 1.355 . S
C503 C505 1.415 . S
C504 C503 1.355 . S
C504 C506 1.419 . S
C505 C500 1.425 . S
C505 C502 1.409 . S
C505 C503 1.415 . S
C506 H496 0.930 . S
C506 C504 1.419 . S
C506 C507 1.362 . S
C507 H497 0.930 . S
C507 C500 1.409 . S
C507 C506 1.362 . S
H508 C514 0.930 . S
H509 C517 0.930 . S
H510 C518 0.930 . S
H511 C519 0.930 . S
H512 C522 0.930 . S
H513 C523 0.930 . S
C514 H508 0.930 . S
C514 C515 1.355 . S
C514 C516 1.415 . S
C515 C514 1.355 . S
C515 C517 1.419 . S
C516 C514 1.415 . S
C516 C521 1.425 . S
C516 C523 1.409 . S
C517 H509 0.930 . S
C517 C515 1.419 . S
C517 C518 1.362 . S
C518 H510 0.930 . S
C518 C517 1.362 . S
C518 C521 1.409 . S
C519 H511 0.930 . S
C519 C520 1.355 . S
C519 C521 1.415 . S
C520 C519 1.355 . S
C520 C522 1.419 . S
C521 C516 1.425 . S
C521 C518 1.409 . S
C521 C519 1.415 . S
C522 H512 0.930 . S
C522 C520 1.419 . S
C522 C523 1.362 . S
C523 H513 0.930 . S
C523 C516 1.409 . S
C523 C522 1.362 . S
H524 C530 0.930 . S
H525 C533 0.930 . S
H526 C534 0.930 . S
H527 C535 0.930 . S
H528 C538 0.930 . S
H529 C539 0.930 . S
C530 H524 0.930 . S
C530 C531 1.355 . S
C530 C532 1.415 . S
C531 C530 1.355 . S
C531 C533 1.419 . S
C532 C530 1.415 . S
C532 C537 1.425 . S
C532 C539 1.409 . S
C533 H525 0.930 . S
C533 C531 1.419 . S
C533 C534 1.362 . S
C534 H526 0.930 . S
C534 C533 1.362 . S
C534 C537 1.409 . S
C535 H527 0.930 . S
C535 C536 1.355 . S
C535 C537 1.415 . S
C536 C535 1.355 . S
C536 C538 1.419 . S
C537 C532 1.425 . S
C537 C534 1.409 . S
C537 C535 1.415 . S
C538 H528 0.930 . S
C538 C536 1.419 . S
C538 C539 1.362 . S
C539 H529 0.930 . S
C539 C532 1.409 . S
C539 C538 1.362 . S
H540 C546 0.930 . S
H541 C549 0.930 . S
H542 C550 0.930 . S
H543 C551 0.930 . S
H544 C554 0.930 . S
H545 C555 0.930 . S
C546 H540 0.930 . S
C546 C547 1.355 . S
C546 C548 1.415 . S
C547 C546 1.355 . S
C547 C549 1.419 . S
C548 C546 1.415 . S
C548 C553 1.425 . S
C548 C555 1.409 . S
C549 H541 0.930 . S
C549 C547 1.419 . S
C549 C550 1.362 . S
C550 H542 0.930 . S
C550 C549 1.362 . S
C550 C553 1.409 . S
C551 H543 0.930 . S
C551 C552 1.355 . S
C551 C553 1.415 . S
C552 C551 1.355 . S
C552 C554 1.419 . S
C553 C548 1.425 . S
C553 C550 1.409 . S
C553 C551 1.415 . S
C554 H544 0.930 . S
C554 C552 1.419 . S
C554 C555 1.362 . S
C555 H545 0.930 . S
C555 C548 1.409 . S
C555 C554 1.362 . S
H556 C562 0.930 . S
H557 C565 0.930 . S
H558 C566 0.930 . S
H559 C567 0.930 . S
H560 C570 0.930 . S
H561 C571 0.930 . S
C562 H556 0.930 . S
C562 C563 1.355 . S
C562 C564 1.415 . S
C563 C562 1.355 . S
C563 C565 1.419 . S
C564 C562 1.415 . S
C564 C569 1.425 . S
C564 C571 1.409 . S
C565 H557 0.930 . S
C565 C563 1.419 . S
C565 C566 1.362 . S
C566 H558 0.930 . S
C566 C565 1.362 . S
C566 C569 1.409 . S
C567 H559 0.930 . S
C567 C568 1.355 . S
C567 C569 1.415 . S
C568 C567 1.355 . S
C568 C570 1.419 . S
C569 C564 1.425 . S
C569 C566 1.409 . S
C569 C567 1.415 . S
C570 H560 0.930 . S
C570 C568 1.419 . S
C570 C571 1.362 . S
C571 H561 0.930 . S
C571 C564 1.409 . S
C571 C570 1.362 . S
H572 C578 0.930 . S
H573 C581 0.930 . S
H574 C582 0.930 . S
H575 C583 0.930 . S
H576 C586 0.930 . S
H577 C587 0.930 . S
C578 H572 0.930 . S
C578 C579 1.355 . S
C578 C580 1.415 . S
C579 C578 1.355 . S
C579 C581 1.419 . S
C580 C578 1.415 . S
C580 C585 1.425 . S
C580 C587 1.409 . S
C581 H573 0.930 . S
C581 C579 1.419 . S
C581 C582 1.362 . S
C582 H574 0.930 . S
C582 C581 1.362 . S
C582 C585 1.409 . S
C583 H575 0.930 . S
C583 C584 1.355 . S
C583 C585 1.415 . S
C584 C583 1.355 . S
C584 C586 1.419 . S
C585 C580 1.425 . S
C585 C582 1.409 . S
C585 C583 1.415 . S
C586 H576 0.930 . S
C586 C584 1.419 . S
C586 C587 1.362 . S
C587 H577 0.930 . S
C587 C580 1.409 . S
C587 C586 1.362 . S
H588 C594 0.930 . S
H589 C597 0.930 . S
H590 C598 0.930 . S
H591 C599 0.930 . S
H592 C602 0.930 1_554 S
H593 C603 0.930 . S
C594 H588 0.930 . S
C594 C595 1.355 . S
C594 C596 1.415 . S
C595 C594 1.355 . S
C595 C597 1.419 . S
C596 C594 1.415 . S
C596 C601 1.425 . S
C596 C603 1.409 . S
C597 H589 0.930 . S
C597 C595 1.419 . S
C597 C598 1.362 . S
C598 H590 0.930 . S
C598 C597 1.362 . S
C598 C601 1.409 . S
C599 H591 0.930 . S
C599 C600 1.355 . S
C599 C601 1.415 . S
C600 C599 1.355 . S
C600 C602 1.419 . S
C601 C596 1.425 . S
C601 C598 1.409 . S
C601 C599 1.415 . S
C602 H592 0.930 1_556 S
C602 C600 1.419 . S
C602 C603 1.362 . S
C603 H593 0.930 . S
C603 C596 1.409 . S
C603 C602 1.362 . S
H604 C610 0.930 . S
H605 C613 0.930 . S
H606 C614 0.930 . S
H607 C615 0.930 . S
H608 C618 0.930 . S
H609 C619 0.930 . S
C610 H604 0.930 . S
C610 C611 1.355 . S
C610 C612 1.415 . S
C611 C610 1.355 . S
C611 C613 1.419 . S
C612 C610 1.415 . S
C612 C617 1.425 . S
C612 C619 1.409 . S
C613 H605 0.930 . S
C613 C611 1.419 . S
C613 C614 1.362 . S
C614 H606 0.930 . S
C614 C613 1.362 . S
C614 C617 1.409 . S
C615 H607 0.930 . S
C615 C616 1.355 . S
C615 C617 1.415 . S
C616 C615 1.355 . S
C616 C618 1.419 . S
C617 C612 1.425 . S
C617 C614 1.409 . S
C617 C615 1.415 . S
C618 H608 0.930 . S
C618 C616 1.419 . S
C618 C619 1.362 . S
C619 H609 0.930 . S
C619 C612 1.409 . S
C619 C618 1.362 . S
H620 C626 0.930 . S
H621 C629 0.930 . S
H622 C630 0.930 . S
H623 C631 0.930 . S
H624 C634 0.930 1_554 S
H625 C635 0.930 . S
C626 H620 0.930 . S
C626 C627 1.355 . S
C626 C628 1.415 . S
C627 C626 1.355 . S
C627 C629 1.419 . S
C628 C626 1.415 . S
C628 C633 1.425 . S
C628 C635 1.409 . S
C629 H621 0.930 . S
C629 C627 1.419 . S
C629 C630 1.362 . S
C630 H622 0.930 . S
C630 C629 1.362 . S
C630 C633 1.409 . S
C631 H623 0.930 . S
C631 C632 1.355 . S
C631 C633 1.415 . S
C632 C631 1.355 . S
C632 C634 1.419 . S
C633 C628 1.425 . S
C633 C630 1.409 . S
C633 C631 1.415 . S
C634 H624 0.930 1_556 S
C634 C632 1.419 . S
C634 C635 1.362 . S
C635 H625 0.930 . S
C635 C628 1.409 . S
C635 C634 1.362 . S
H636 C642 0.930 . S
H637 C645 0.930 . S
H638 C646 0.930 . S
H639 C647 0.930 . S
H640 C650 0.930 . S
H641 C651 0.930 . S
C642 H636 0.930 . S
C642 C643 1.355 . S
C642 C644 1.415 . S
C643 C642 1.355 . S
C643 C645 1.419 . S
C644 C642 1.415 . S
C644 C649 1.425 . S
C644 C651 1.409 . S
C645 H637 0.930 . S
C645 C643 1.419 . S
C645 C646 1.362 . S
C646 H638 0.930 . S
C646 C645 1.362 . S
C646 C649 1.409 . S
C647 H639 0.930 . S
C647 C648 1.355 . S
C647 C649 1.415 . S
C648 C647 1.355 . S
C648 C650 1.419 . S
C649 C644 1.425 . S
C649 C646 1.409 . S
C649 C647 1.415 . S
C650 H640 0.930 . S
C650 C648 1.419 . S
C650 C651 1.362 . S
C651 H641 0.930 . S
C651 C644 1.409 . S
C651 C650 1.362 . S
H652 C658 0.930 . S
H653 C661 0.930 . S
H654 C662 0.930 . S
H655 C663 0.930 . S
H656 C666 0.930 1_554 S
H657 C667 0.930 . S
C658 H652 0.930 . S
C658 C659 1.355 . S
C658 C660 1.415 . S
C659 C658 1.355 . S
C659 C661 1.419 . S
C660 C658 1.415 . S
C660 C665 1.425 . S
C660 C667 1.409 . S
C661 H653 0.930 . S
C661 C659 1.419 . S
C661 C662 1.362 . S
C662 H654 0.930 . S
C662 C661 1.362 . S
C662 C665 1.409 . S
C663 H655 0.930 . S
C663 C664 1.355 . S
C663 C665 1.415 . S
C664 C663 1.355 . S
C664 C666 1.419 . S
C665 C660 1.425 . S
C665 C662 1.409 . S
C665 C663 1.415 . S
C666 H656 0.930 1_556 S
C666 C664 1.419 . S
C666 C667 1.362 . S
C667 H657 0.930 . S
C667 C660 1.409 . S
C667 C666 1.362 . S
H668 C674 0.930 . S
H669 C677 0.930 . S
H670 C678 0.930 . S
H671 C679 0.930 . S
H672 C682 0.930 . S
H673 C683 0.930 . S
C674 H668 0.930 . S
C674 C675 1.355 . S
C674 C676 1.415 . S
C675 C674 1.355 . S
C675 C677 1.419 . S
C676 C674 1.415 . S
C676 C681 1.425 . S
C676 C683 1.409 . S
C677 H669 0.930 . S
C677 C675 1.419 . S
C677 C678 1.362 . S
C678 H670 0.930 . S
C678 C677 1.362 . S
C678 C681 1.409 . S
C679 H671 0.930 . S
C679 C680 1.355 . S
C679 C681 1.415 . S
C680 C679 1.355 . S
C680 C682 1.419 . S
C681 C676 1.425 . S
C681 C678 1.409 . S
C681 C679 1.415 . S
C682 H672 0.930 . S
C682 C680 1.419 . S
C682 C683 1.362 . S
C683 H673 0.930 . S
C683 C676 1.409 . S
C683 C682 1.362 . S
H684 C690 0.930 . S
H685 C693 0.930 . S
H686 C694 0.930 . S
H687 C695 0.930 . S
H688 C698 0.930 . S
H689 C699 0.930 . S
C690 H684 0.930 . S
C690 C691 1.355 . S
C690 C692 1.415 . S
C691 C690 1.355 . S
C691 C693 1.419 . S
C692 C690 1.415 . S
C692 C697 1.425 . S
C692 C699 1.409 . S
C693 H685 0.930 . S
C693 C691 1.419 . S
C693 C694 1.362 . S
C694 H686 0.930 . S
C694 C693 1.362 . S
C694 C697 1.409 . S
C695 H687 0.930 . S
C695 C696 1.355 . S
C695 C697 1.415 . S
C696 C695 1.355 . S
C696 C698 1.419 . S
C697 C692 1.425 . S
C697 C694 1.409 . S
C697 C695 1.415 . S
C698 H688 0.930 . S
C698 C696 1.419 . S
C698 C699 1.362 . S
C699 H689 0.930 . S
C699 C692 1.409 . S
C699 C698 1.362 . S
H700 C706 0.930 . S
H701 C709 0.930 . S
H702 C710 0.930 . S
H703 C711 0.930 . S
H704 C714 0.930 1_556 S
H705 C715 0.930 . S
C706 H700 0.930 . S
C706 C707 1.355 . S
C706 C708 1.415 . S
C707 C706 1.355 . S
C707 C709 1.419 . S
C708 C706 1.415 . S
C708 C713 1.425 . S
C708 C715 1.409 . S
C709 H701 0.930 . S
C709 C707 1.419 . S
C709 C710 1.362 . S
C710 H702 0.930 . S
C710 C709 1.362 . S
C710 C713 1.409 . S
C711 H703 0.930 . S
C711 C712 1.355 . S
C711 C713 1.415 . S
C712 C711 1.355 . S
C712 C714 1.419 . S
C713 C708 1.425 . S
C713 C710 1.409 . S
C713 C711 1.415 . S
C714 H704 0.930 1_554 S
C714 C712 1.419 . S
C714 C715 1.362 . S
C715 H705 0.930 . S
C715 C708 1.409 . S
C715 C714 1.362 . S
H716 C722 0.930 . S
H717 C725 0.930 . S
H718 C726 0.930 . S
H719 C727 0.930 . S
H720 C730 0.930 . S
H721 C731 0.930 . S
C722 H716 0.930 . S
C722 C723 1.355 . S
C722 C724 1.415 . S
C723 C722 1.355 . S
C723 C725 1.419 . S
C724 C722 1.415 . S
C724 C729 1.425 . S
C724 C731 1.409 . S
C725 H717 0.930 . S
C725 C723 1.419 . S
C725 C726 1.362 . S
C726 H718 0.930 . S
C726 C725 1.362 . S
C726 C729 1.409 . S
C727 H719 0.930 . S
C727 C728 1.355 . S
C727 C729 1.415 . S
C728 C727 1.355 . S
C728 C730 1.419 . S
C729 C724 1.425 . S
C729 C726 1.409 . S
C729 C727 1.415 . S
C730 H720 0.930 . S
C730 C728 1.419 . S
C730 C731 1.362 . S
C731 H721 0.930 . S
C731 C724 1.409 . S
C731 C730 1.362 . S
H732 C738 0.930 . S
H733 C741 0.930 . S
H734 C742 0.930 . S
H735 C743 0.930 . S
H736 C746 0.930 . S
H737 C747 0.930 . S
C738 H732 0.930 . S
C738 C739 1.355 . S
C738 C740 1.415 . S
C739 C738 1.355 . S
C739 C741 1.419 . S
C740 C738 1.415 . S
C740 C745 1.425 . S
C740 C747 1.409 . S
C741 H733 0.930 . S
C741 C739 1.419 . S
C741 C742 1.362 . S
C742 H734 0.930 . S
C742 C741 1.362 . S
C742 C745 1.409 . S
C743 H735 0.930 . S
C743 C744 1.355 . S
C743 C745 1.415 . S
C744 C743 1.355 . S
C744 C746 1.419 . S
C745 C740 1.425 . S
C745 C742 1.409 . S
C745 C743 1.415 . S
C746 H736 0.930 . S
C746 C744 1.419 . S
C746 C747 1.362 . S
C747 H737 0.930 . S
C747 C740 1.409 . S
C747 C746 1.362 . S
H748 C754 0.930 . S
H749 C757 0.930 . S
H750 C758 0.930 . S
H751 C759 0.930 . S
H752 C762 0.930 . S
H753 C763 0.930 . S
C754 H748 0.930 . S
C754 C755 1.355 . S
C754 C756 1.415 . S
C755 C754 1.355 . S
C755 C757 1.419 . S
C756 C754 1.415 . S
C756 C761 1.425 . S
C756 C763 1.409 . S
C757 H749 0.930 . S
C757 C755 1.419 . S
C757 C758 1.362 . S
C758 H750 0.930 . S
C758 C757 1.362 . S
C758 C761 1.409 . S
C759 H751 0.930 . S
C759 C760 1.355 . S
C759 C761 1.415 . S
C760 C759 1.355 . S
C760 C762 1.419 . S
C761 C756 1.425 . S
C761 C758 1.409 . S
C761 C759 1.415 . S
C762 H752 0.930 . S
C762 C760 1.419 . S
C762 C763 1.362 . S
C763 H753 0.930 . S
C763 C756 1.409 . S
C763 C762 1.362 . S
H764 C770 0.930 . S
H765 C773 0.930 . S
H766 C774 0.930 . S
H767 C775 0.930 . S
H768 C778 0.930 . S
H769 C779 0.930 . S
C770 H764 0.930 . S
C770 C771 1.355 . S
C770 C772 1.415 . S
C771 C770 1.355 . S
C771 C773 1.419 . S
C772 C770 1.415 . S
C772 C777 1.425 . S
C772 C779 1.409 . S
C773 H765 0.930 . S
C773 C771 1.419 . S
C773 C774 1.362 . S
C774 H766 0.930 . S
C774 C773 1.362 . S
C774 C777 1.409 . S
C775 H767 0.930 . S
C775 C776 1.355 . S
C775 C777 1.415 . S
C776 C775 1.355 . S
C776 C778 1.419 . S
C777 C772 1.425 . S
C777 C774 1.409 . S
C777 C775 1.415 . S
C778 H768 0.930 . S
C778 C776 1.419 . S
C778 C779 1.362 . S
C779 H769 0.930 . S
C779 C772 1.409 . S
C779 C778 1.362 . S
H780 C786 0.930 . S
H781 C789 0.930 . S
H782 C790 0.930 . S
H783 C791 0.930 . S
H784 C794 0.930 . S
H785 C795 0.930 . S
C786 H780 0.930 . S
C786 C787 1.355 . S
C786 C788 1.415 . S
C787 C786 1.355 . S
C787 C789 1.419 . S
C788 C786 1.415 . S
C788 C793 1.425 . S
C788 C795 1.409 . S
C789 H781 0.930 . S
C789 C787 1.419 . S
C789 C790 1.362 . S
C790 H782 0.930 . S
C790 C789 1.362 . S
C790 C793 1.409 . S
C791 H783 0.930 . S
C791 C792 1.355 . S
C791 C793 1.415 . S
C792 C791 1.355 . S
C792 C794 1.419 . S
C793 C788 1.425 . S
C793 C790 1.409 . S
C793 C791 1.415 . S
C794 H784 0.930 . S
C794 C792 1.419 . S
C794 C795 1.362 . S
C795 H785 0.930 . S
C795 C788 1.409 . S
C795 C794 1.362 . S
H796 C802 0.930 . S
H797 C805 0.930 . S
H798 C806 0.930 . S
H799 C807 0.930 . S
H800 C810 0.930 . S
H801 C811 0.930 . S
C802 H796 0.930 . S
C802 C803 1.355 . S
C802 C804 1.415 . S
C803 C802 1.355 . S
C803 C805 1.419 . S
C804 C802 1.415 . S
C804 C809 1.425 . S
C804 C811 1.409 . S
C805 H797 0.930 . S
C805 C803 1.419 . S
C805 C806 1.362 . S
C806 H798 0.930 . S
C806 C805 1.362 . S
C806 C809 1.409 . S
C807 H799 0.930 . S
C807 C808 1.355 . S
C807 C809 1.415 . S
C808 C807 1.355 . S
C808 C810 1.419 . S
C809 C804 1.425 . S
C809 C806 1.409 . S
C809 C807 1.415 . S
C810 H800 0.930 . S
C810 C808 1.419 . S
C810 C811 1.362 . S
C811 H801 0.930 . S
C811 C804 1.409 . S
C811 C810 1.362 . S
H812 C818 0.930 . S
H813 C821 0.930 . S
H814 C822 0.930 . S
H815 C823 0.930 . S
H816 C826 0.930 . S
H817 C827 0.930 . S
C818 H812 0.930 . S
C818 C819 1.355 . S
C818 C820 1.415 . S
C819 C818 1.355 . S
C819 C821 1.419 . S
C820 C818 1.415 . S
C820 C825 1.425 . S
C820 C827 1.409 . S
C821 H813 0.930 . S
C821 C819 1.419 . S
C821 C822 1.362 . S
C822 H814 0.930 . S
C822 C821 1.362 . S
C822 C825 1.409 . S
C823 H815 0.930 . S
C823 C824 1.355 . S
C823 C825 1.415 . S
C824 C823 1.355 . S
C824 C826 1.419 . S
C825 C820 1.425 . S
C825 C822 1.409 . S
C825 C823 1.415 . S
C826 H816 0.930 . S
C826 C824 1.419 . S
C826 C827 1.362 . S
C827 H817 0.930 . S
C827 C820 1.409 . S
C827 C826 1.362 . S
H828 C834 0.930 . S
H829 C837 0.930 . S
H830 C838 0.930 . S
H831 C839 0.930 . S
H832 C842 0.930 . S
H833 C843 0.930 . S
C834 H828 0.930 . S
C834 C835 1.355 . S
C834 C836 1.415 . S
C835 C834 1.355 . S
C835 C837 1.419 . S
C836 C834 1.415 . S
C836 C841 1.425 . S
C836 C843 1.409 . S
C837 H829 0.930 . S
C837 C835 1.419 . S
C837 C838 1.362 . S
C838 H830 0.930 . S
C838 C837 1.362 . S
C838 C841 1.409 . S
C839 H831 0.930 . S
C839 C840 1.355 . S
C839 C841 1.415 . S
C840 C839 1.355 . S
C840 C842 1.419 . S
C841 C836 1.425 . S
C841 C838 1.409 . S
C841 C839 1.415 . S
C842 H832 0.930 . S
C842 C840 1.419 . S
C842 C843 1.362 . S
C843 H833 0.930 . S
C843 C836 1.409 . S
C843 C842 1.362 . S
H844 C850 0.930 . S
H845 C853 0.930 . S
H846 C854 0.930 . S
H847 C855 0.930 . S
H848 C858 0.930 . S
H849 C859 0.930 . S
C850 H844 0.930 . S
C850 C851 1.355 . S
C850 C852 1.415 . S
C851 C850 1.355 . S
C851 C853 1.419 . S
C852 C850 1.415 . S
C852 C857 1.425 . S
C852 C859 1.409 . S
C853 H845 0.930 . S
C853 C851 1.419 . S
C853 C854 1.362 . S
C854 H846 0.930 . S
C854 C853 1.362 . S
C854 C857 1.409 . S
C855 H847 0.930 . S
C855 C856 1.355 . S
C855 C857 1.415 . S
C856 C855 1.355 . S
C856 C858 1.419 . S
C857 C852 1.425 . S
C857 C854 1.409 . S
C857 C855 1.415 . S
C858 H848 0.930 . S
C858 C856 1.419 . S
C858 C859 1.362 . S
C859 H849 0.930 . S
C859 C852 1.409 . S
C859 C858 1.362 . S
H860 C866 0.930 . S
H861 C869 0.930 . S
H862 C870 0.930 . S
H863 C871 0.930 . S
H864 C874 0.930 . S
H865 C875 0.930 . S
C866 H860 0.930 . S
C866 C867 1.355 . S
C866 C868 1.415 . S
C867 C866 1.355 . S
C867 C869 1.419 . S
C868 C866 1.415 . S
C868 C873 1.425 . S
C868 C875 1.409 . S
C869 H861 0.930 . S
C869 C867 1.419 . S
C869 C870 1.362 . S
C870 H862 0.930 . S
C870 C869 1.362 . S
C870 C873 1.409 . S
C871 H863 0.930 . S
C871 C872 1.355 . S
C871 C873 1.415 . S
C872 C871 1.355 . S
C872 C874 1.419 . S
C873 C868 1.425 . S
C873 C870 1.409 . S
C873 C871 1.415 . S
C874 H864 0.930 . S
C874 C872 1.419 . S
C874 C875 1.362 . S
C875 H865 0.930 . S
C875 C868 1.409 . S
C875 C874 1.362 . S
C403 C7 1.348 . S
C408 C370 1.309 . S
C419 C40 1.290 . S
C424 C205 1.254 . S
C435 C238 1.319 . S
C440 C73 1.259 . S
C451 C271 1.347 . S
C456 C106 1.297 . S
C467 C304 1.347 . S
C472 C139 1.296 . S
C483 C172 1.269 . S
C488 C337 1.332 . S
C499 C285 1.597 . S
C504 C21 1.601 . S
C515 C318 1.599 . S
C520 C54 1.598 . S
C531 C87 1.615 . S
C536 C351 1.601 . S
C547 C120 1.625 . S
C552 C384 1.618 . S
C563 C219 1.599 . S
C568 C153 1.598 . S
C579 C186 1.614 . S
C584 C252 1.601 . S
C595 N2 1.282 . S
C600 N13 1.285 1_556 S
C611 N46 1.318 . S
C616 N35 1.317 . S
C627 N68 1.283 . S
C632 N79 1.286 1_556 S
C643 N112 1.314 . S
C648 N101 1.311 . S
C659 N134 1.291 . S
C664 N145 1.293 1_556 S
C675 N178 1.285 . S
C680 N167 1.282 . S
C691 N211 1.329 . S
C696 N200 1.328 . S
C707 N233 1.282 . S
C712 N244 1.285 1_554 S
C723 N277 1.336 . S
C728 N266 1.334 . S
C739 N310 1.319 1_554 S
C744 N299 1.317 . S
C755 N332 1.282 . S
C760 N343 1.285 . S
C771 N365 1.320 . S
C776 N376 1.322 1_554 S
C787 C18 1.310 . S
C792 C348 1.327 . S
C803 C381 1.322 . S
C808 C51 1.330 . S
C819 C216 1.334 . S
C824 C84 1.309 . S
C835 C117 1.315 . S
C840 C249 1.319 . S
C851 C150 1.317 . S
C856 C282 1.333 . S
C867 C183 1.327 . S
C872 C315 1.309 . S
