# Generated by pormake.
# Topology mok, (4)-cn, num edge types: 1
# Building blocks:
#     Node 0, Type 0, BuildingBlock: NAHDIM_clean_sbu_0, # of connection points: 4
#     Node 1, Type 0, BuildingBlock: NAHDIM_clean_sbu_0, # of connection points: 4
#     Node 2, Type 0, BuildingBlock: NAHDIM_clean_sbu_0, # of connection points: 4
#     Node 3, Type 0, BuildingBlock: NAHDIM_clean_sbu_0, # of connection points: 4
#     Node 4, Type 0, BuildingBlock: NAHDIM_clean_sbu_0, # of connection points: 4
#     Node 5, Type 0, BuildingBlock: NAHDIM_clean_sbu_0, # of connection points: 4
#     Node 6, Type 0, BuildingBlock: NAHDIM_clean_sbu_0, # of connection points: 4
#     Node 7, Type 0, BuildingBlock: NAHDIM_clean_sbu_0, # of connection points: 4
#     Edge 8, Type (0, 0), BuildingBlock: FUNLAD_clean_linker_1, # of connection points: 2
#     Edge 9, Type (0, 0), BuildingBlock: FUNLAD_clean_linker_1, # of connection points: 2
#     Edge 10, Type (0, 0), BuildingBlock: FUNLAD_clean_linker_1, # of connection points: 2
#     Edge 11, Type (0, 0), BuildingBlock: FUNLAD_clean_linker_1, # of connection points: 2
#     Edge 12, Type (0, 0), BuildingBlock: FUNLAD_clean_linker_1, # of connection points: 2
#     Edge 13, Type (0, 0), BuildingBlock: FUNLAD_clean_linker_1, # of connection points: 2
#     Edge 14, Type (0, 0), BuildingBlock: FUNLAD_clean_linker_1, # of connection points: 2
#     Edge 15, Type (0, 0), BuildingBlock: FUNLAD_clean_linker_1, # of connection points: 2
#     Edge 16, Type (0, 0), BuildingBlock: FUNLAD_clean_linker_1, # of connection points: 2
#     Edge 17, Type (0, 0), BuildingBlock: FUNLAD_clean_linker_1, # of connection points: 2
#     Edge 18, Type (0, 0), BuildingBlock: FUNLAD_clean_linker_1, # of connection points: 2
#     Edge 19, Type (0, 0), BuildingBlock: FUNLAD_clean_linker_1, # of connection points: 2
#     Edge 20, Type (0, 0), BuildingBlock: FUNLAD_clean_linker_1, # of connection points: 2
#     Edge 21, Type (0, 0), BuildingBlock: FUNLAD_clean_linker_1, # of connection points: 2
#     Edge 22, Type (0, 0), BuildingBlock: FUNLAD_clean_linker_1, # of connection points: 2
#     Edge 23, Type (0, 0), BuildingBlock: FUNLAD_clean_linker_1, # of connection points: 2
# Relax obj value: 0.051
# Max RMSD: 0.062
# Mean RMSD: 0.062
data_MOF--net-mok--node1-NAHDIM_clean_sbu_0--edge1-FUNLAD_clean_linker_1
_symmetry_space_group_name_H-M    P1
_symmetry_Int_Tables_number       1
_symmetry_cell_setting            triclinic
loop_
_symmetry_equiv_pos_as_xyz
'x, y, z'
_cell_length_a     51.720353
_cell_length_b     20.723857
_cell_length_c     26.070674
_cell_angle_alpha  90.000837
_cell_angle_beta   90.043284
_cell_angle_gamma 89.618136
loop_
_atom_site_label
_atom_site_type_symbol
_atom_site_fract_x
_atom_site_fract_y
_atom_site_fract_z
_atom_type_partial_charge
C0 C 0.55978 0.23045 0.01524 0.0
O1 O 0.54604 0.27887 0.03338 0.0
O2 O 0.58874 0.37764 0.93632 0.0
Zn3 Zn 0.59926 0.32777 0.99966 0.0
O4 O 0.58931 0.37762 0.06328 0.0
C5 C 0.65342 0.36196 1.00001 0.0
O6 O 0.64415 0.42097 0.00251 0.0
O7 O 0.58256 0.24027 0.99907 0.0
C8 C 0.60134 0.36882 0.10518 0.0
O9 O 0.61976 0.32494 0.10755 0.0
C10 C 0.58504 0.43835 0.93776 0.0
O11 O 0.58756 0.46923 0.9814 0.0
O12 O 0.63794 0.31459 0.99839 0.0
C13 C 0.44983 0.812 0.01906 0.0
O14 O 0.46311 0.76377 0.99933 0.0
O15 O 0.41819 0.68585 0.9469 0.0
Zn16 Zn 0.407 0.72205 0.01553 0.0
O17 O 0.41441 0.65799 0.07203 0.0
C18 C 0.35112 0.70481 0.00294 0.0
O19 O 0.35708 0.64465 0.99202 0.0
O20 O 0.42605 0.80469 0.02939 0.0
C21 C 0.40634 0.66874 0.11723 0.0
O22 O 0.39324 0.72193 0.12679 0.0
C23 C 0.41911 0.6255 0.93845 0.0
O24 O 0.41262 0.58513 0.97503 0.0
O25 O 0.36892 0.74443 0.01389 0.0
C26 C 0.56229 0.80587 0.48042 0.0
O27 O 0.55577 0.74991 0.46094 0.0
O28 O 0.59523 0.68379 0.57496 0.0
Zn29 Zn 0.60667 0.73097 0.51103 0.0
O30 O 0.60242 0.67236 0.44938 0.0
C31 C 0.65952 0.71137 0.54157 0.0
O32 O 0.64897 0.66063 0.56289 0.0
O33 O 0.584 0.81127 0.50308 0.0
C34 C 0.60689 0.61207 0.4529 0.0
O35 O 0.61406 0.58746 0.49708 0.0
C36 C 0.57508 0.64899 0.57722 0.0
O37 O 0.56022 0.6433 0.53668 0.0
O38 O 0.64518 0.7515 0.51752 0.0
C39 C 0.45094 0.22668 0.49329 0.0
O40 O 0.45789 0.28528 0.48046 0.0
O41 O 0.40778 0.33709 0.58388 0.0
Zn42 Zn 0.40357 0.29453 0.51447 0.0
O43 O 0.41095 0.35719 0.45631 0.0
C44 C 0.34977 0.31657 0.50276 0.0
O45 O 0.3589 0.37517 0.49804 0.0
O46 O 0.42797 0.21709 0.50902 0.0
C47 C 0.41366 0.41775 0.46214 0.0
O48 O 0.4123 0.44293 0.50822 0.0
C49 C 0.42801 0.36283 0.60225 0.0
O50 O 0.44945 0.36353 0.57526 0.0
O51 O 0.3655 0.26973 0.50954 0.0
C52 C 0.05472 0.69557 0.01981 0.0
O53 O 0.04696 0.74075 0.05174 0.0
O54 O 0.09205 0.8328 0.92493 0.0
Zn55 Zn 0.09649 0.7852 0.99207 0.0
O56 O 0.0871 0.84559 0.0503 0.0
C57 C 0.15269 0.79033 0.9849 0.0
O58 O 0.14836 0.84714 0.9641 0.0
O59 O 0.07442 0.70498 0.99179 0.0
C60 C 0.09663 0.83823 0.09486 0.0
O61 O 0.11227 0.78928 0.10381 0.0
C62 C 0.07036 0.85737 0.91223 0.0
O63 O 0.05044 0.85092 0.94291 0.0
O64 O 0.13374 0.75635 0.99959 0.0
C65 C 0.93873 0.28758 0.02718 0.0
O66 O 0.95315 0.23519 0.0289 0.0
O67 O 0.9075 0.14869 0.95352 0.0
Zn68 Zn 0.89549 0.198 0.01635 0.0
O69 O 0.90047 0.14337 0.07999 0.0
C70 C 0.84271 0.19023 0.97731 0.0
O71 O 0.8524 0.1459 0.9468 0.0
O72 O 0.91439 0.28268 0.02233 0.0
C73 C 0.88781 0.09107 0.0828 0.0
O74 O 0.87256 0.07478 0.04477 0.0
C75 C 0.92334 0.1015 0.95552 0.0
O76 O 0.93347 0.08459 0.99971 0.0
O77 O 0.85732 0.21844 0.00942 0.0
C78 C 0.0555 0.27303 0.49804 0.0
O79 O 0.04683 0.21382 0.49444 0.0
O80 O 0.09361 0.14557 0.56194 0.0
Zn81 Zn 0.10361 0.20339 0.5024 0.0
O82 O 0.09967 0.15273 0.43591 0.0
C83 C 0.15447 0.2172 0.55062 0.0
O84 O 0.14287 0.19192 0.59051 0.0
O85 O 0.07976 0.28209 0.5016 0.0
C86 C 0.11946 0.12747 0.41469 0.0
O87 O 0.14233 0.13528 0.43553 0.0
C88 C 0.1006 0.0866 0.5628 0.0
O89 O 0.11392 0.0629 0.52427 0.0
O90 O 0.14148 0.22922 0.51016 0.0
C91 C 0.95538 0.71235 0.52339 0.0
O92 O 0.96476 0.77093 0.52645 0.0
O93 O 0.91767 0.83446 0.59389 0.0
Zn94 Zn 0.90898 0.78669 0.52811 0.0
O95 O 0.91663 0.84425 0.46734 0.0
C96 C 0.85594 0.81921 0.53535 0.0
O97 O 0.86692 0.87555 0.5419 0.0
O98 O 0.93096 0.70488 0.52333 0.0
C99 C 0.90467 0.83764 0.42512 0.0
O100 O 0.88758 0.7914 0.42028 0.0
C101 C 0.92931 0.88839 0.59405 0.0
O102 O 0.93682 0.91386 0.55051 0.0
O103 O 0.8702 0.76956 0.5286 0.0
H104 H 0.80316 0.17938 0.94698 0.0
C105 C 0.81488 0.20583 0.97437 0.0
H106 H 0.81496 0.27606 0.03312 0.0
H107 H 0.7045 0.33109 0.90671 0.0
H108 H 0.73165 0.36378 0.83569 0.0
H109 H 0.77911 0.35306 0.84087 0.0
H110 H 0.79965 0.30855 0.91676 0.0
C111 C 0.80368 0.25068 0.0044 0.0
C112 C 0.77527 0.26281 0.00258 0.0
C113 C 0.76366 0.29121 0.95863 0.0
C114 C 0.73636 0.29995 0.95651 0.0
C115 C 0.72517 0.32543 0.91115 0.0
C116 C 0.74053 0.3441 0.86995 0.0
C117 C 0.76725 0.33786 0.87279 0.0
C118 C 0.77878 0.31183 0.91651 0.0
H119 H 0.69409 0.39354 0.00056 0.0
C120 C 0.68166 0.35148 0.99939 0.0
H121 H 0.68016 0.24961 0.99826 0.0
H122 H 0.79136 0.20803 0.09285 0.0
H123 H 0.76434 0.17912 0.16514 0.0
H124 H 0.71719 0.19768 0.16258 0.0
H125 H 0.69676 0.24496 0.08759 0.0
C126 C 0.6923 0.29219 0.99767 0.0
C127 C 0.72084 0.2826 0.99914 0.0
C128 C 0.73251 0.25531 0.04339 0.0
C129 C 0.75974 0.24538 0.04511 0.0
C130 C 0.77082 0.21732 0.08963 0.0
C131 C 0.75552 0.20038 0.13141 0.0
C132 C 0.72898 0.21077 0.12995 0.0
C133 C 0.7175 0.23787 0.08659 0.0
H134 H 0.18178 0.71805 0.0091 0.0
C135 C 0.17925 0.76495 0.99102 0.0
H136 H 0.1979 0.84302 0.95478 0.0
H137 H 0.29371 0.70304 0.08569 0.0
H138 H 0.27102 0.73967 0.16179 0.0
H139 H 0.22818 0.79203 0.15509 0.0
H140 H 0.20759 0.80716 0.07235 0.0
C141 C 0.20013 0.79721 0.97462 0.0
C142 C 0.22661 0.76895 0.97898 0.0
C143 C 0.23872 0.76234 0.02758 0.0
C144 C 0.26389 0.73448 0.03128 0.0
C145 C 0.27503 0.7259 0.08047 0.0
C146 C 0.26215 0.74637 0.12453 0.0
C147 C 0.238 0.77566 0.12077 0.0
C148 C 0.22633 0.78373 0.073 0.0
H149 H 0.32026 0.7779 0.01183 0.0
C150 C 0.32404 0.72767 0.00214 0.0
H151 H 0.30765 0.63973 0.97776 0.0
H152 H 0.20889 0.77408 0.88009 0.0
H153 H 0.23205 0.73991 0.80381 0.0
H154 H 0.27616 0.69455 0.80999 0.0
H155 H 0.29736 0.68281 0.89251 0.0
C156 C 0.30419 0.6894 0.98935 0.0
C157 C 0.27729 0.71541 0.98621 0.0
C158 C 0.26518 0.72204 0.93768 0.0
C159 C 0.23985 0.74887 0.93405 0.0
C160 C 0.22819 0.75461 0.88505 0.0
C161 C 0.24125 0.73509 0.84093 0.0
C162 C 0.26608 0.7095 0.84442 0.0
C163 C 0.27801 0.70297 0.89208 0.0
H164 H 0.81682 0.86009 0.54414 0.0
C165 C 0.8274 0.81575 0.53599 0.0
H166 H 0.82416 0.71735 0.51611 0.0
H167 H 0.70908 0.79543 0.61694 0.0
H168 H 0.73221 0.80556 0.6974 0.0
H169 H 0.77967 0.79367 0.70064 0.0
H170 H 0.80431 0.77271 0.62329 0.0
C171 C 0.81407 0.76162 0.52646 0.0
C172 C 0.78516 0.76244 0.52567 0.0
C173 C 0.7709 0.77213 0.57158 0.0
C174 C 0.74339 0.77593 0.57008 0.0
C175 C 0.72985 0.78929 0.61612 0.0
C176 C 0.74291 0.79573 0.66256 0.0
C177 C 0.76964 0.78928 0.66436 0.0
C178 C 0.78357 0.77763 0.61956 0.0
H179 H 0.69854 0.68207 0.56619 0.0
C180 C 0.6879 0.7186 0.54476 0.0
H181 H 0.69095 0.8015 0.49819 0.0
H182 H 0.8064 0.74407 0.43071 0.0
H183 H 0.7832 0.73058 0.35057 0.0
H184 H 0.73553 0.73278 0.34843 0.0
H185 H 0.71072 0.749 0.42628 0.0
C186 C 0.70109 0.76603 0.52156 0.0
C187 C 0.73002 0.76706 0.52302 0.0
C188 C 0.74428 0.7571 0.47718 0.0
C189 C 0.77182 0.75488 0.47851 0.0
C190 C 0.7855 0.74552 0.43202 0.0
C191 C 0.77242 0.73776 0.38572 0.0
C192 C 0.74558 0.73907 0.3845 0.0
C193 C 0.73158 0.74852 0.42953 0.0
H194 H 0.19281 0.21256 0.58739 0.0
C195 C 0.18279 0.22623 0.55232 0.0
H196 H 0.18691 0.25876 0.47612 0.0
H197 H 0.29951 0.3231 0.59472 0.0
H198 H 0.2747 0.39303 0.65091 0.0
H199 H 0.22726 0.40084 0.64295 0.0
H200 H 0.20433 0.33748 0.57971 0.0
C201 C 0.19659 0.24741 0.51205 0.0
C202 C 0.2255 0.24894 0.5134 0.0
C203 C 0.23874 0.28912 0.54874 0.0
C204 C 0.26625 0.28773 0.55115 0.0
C205 C 0.27879 0.32477 0.58935 0.0
C206 C 0.26476 0.36476 0.62218 0.0
C207 C 0.23804 0.36892 0.61787 0.0
C208 C 0.22509 0.33177 0.58163 0.0
H209 H 0.30973 0.35019 0.49276 0.0
C210 C 0.32145 0.30798 0.50197 0.0
H211 H 0.32076 0.20967 0.52332 0.0
H212 H 0.20648 0.16478 0.44183 0.0
H213 H 0.23148 0.09863 0.38316 0.0
H214 H 0.27915 0.10116 0.38404 0.0
H215 H 0.30214 0.16948 0.44401 0.0
C216 C 0.30954 0.25286 0.51476 0.0
C217 C 0.28065 0.24949 0.51591 0.0
C218 C 0.26745 0.20972 0.4804 0.0
C219 C 0.2399 0.20918 0.4793 0.0
C220 C 0.22732 0.16804 0.44389 0.0
C221 C 0.24144 0.12962 0.41003 0.0
C222 C 0.26828 0.13099 0.41056 0.0
C223 C 0.28124 0.17044 0.44522 0.0
H224 H 0.5804 0.44695 0.14555 0.0
C225 C 0.59571 0.41105 0.14937 0.0
H226 H 0.6259 0.37503 0.19606 0.0
H227 H 0.64103 0.63329 0.31922 0.0
H228 H 0.67773 0.63742 0.26148 0.0
H229 H 0.68204 0.55965 0.1903 0.0
H230 H 0.64973 0.47713 0.17654 0.0
C231 C 0.6098 0.40871 0.19261 0.0
C232 C 0.60621 0.45723 0.23408 0.0
C233 C 0.62517 0.50548 0.24132 0.0
C234 C 0.62258 0.55066 0.28205 0.0
C235 C 0.64195 0.59796 0.28872 0.0
C236 C 0.66313 0.60089 0.25585 0.0
C237 C 0.66557 0.55707 0.21581 0.0
C238 C 0.64689 0.50985 0.20842 0.0
H239 H 0.60906 0.51829 0.41341 0.0
C240 C 0.60503 0.56939 0.40786 0.0
H241 H 0.59664 0.64261 0.35378 0.0
H242 H 0.56661 0.37013 0.23149 0.0
H243 H 0.52927 0.36805 0.28777 0.0
H244 H 0.52411 0.44858 0.35672 0.0
H245 H 0.55629 0.53182 0.36987 0.0
C246 C 0.59971 0.59139 0.36056 0.0
C247 C 0.6011 0.54727 0.31564 0.0
C248 C 0.58174 0.5002 0.30755 0.0
C249 C 0.58442 0.45468 0.267 0.0
C250 C 0.56526 0.40678 0.26092 0.0
C251 C 0.54378 0.40488 0.29308 0.0
C252 C 0.54089 0.45019 0.33196 0.0
C253 C 0.55956 0.49746 0.33926 0.0
H254 H 0.4226 0.578 0.14847 0.0
C255 C 0.41145 0.621 0.15804 0.0
H256 H 0.39043 0.67016 0.21567 0.0
H257 H 0.36787 0.41651 0.34235 0.0
H258 H 0.32715 0.42825 0.2971 0.0
H259 H 0.3221 0.50823 0.22766 0.0
H260 H 0.35777 0.57714 0.20317 0.0
C261 C 0.40235 0.62859 0.2059 0.0
C262 C 0.40615 0.57799 0.24571 0.0
C263 C 0.3852 0.53775 0.25929 0.0
C264 C 0.3882 0.49124 0.29898 0.0
C265 C 0.36679 0.45227 0.31218 0.0
C266 C 0.34327 0.45855 0.28656 0.0
C267 C 0.34042 0.50361 0.2475 0.0
C268 C 0.36105 0.54291 0.23388 0.0
H269 H 0.41697 0.51256 0.42451 0.0
C270 C 0.41576 0.46097 0.41742 0.0
H271 H 0.41211 0.38819 0.3612 0.0
H272 H 0.45009 0.64804 0.22946 0.0
H273 H 0.49127 0.6342 0.27292 0.0
H274 H 0.49689 0.55125 0.33986 0.0
H275 H 0.46136 0.48142 0.36383 0.0
C276 C 0.41443 0.43936 0.3689 0.0
C277 C 0.41213 0.48527 0.32519 0.0
C278 C 0.43334 0.52426 0.31061 0.0
C279 C 0.43026 0.57115 0.27114 0.0
C280 C 0.4515 0.61086 0.25846 0.0
C281 C 0.47523 0.60352 0.28319 0.0
C282 C 0.47839 0.55681 0.32092 0.0
C283 C 0.45779 0.51738 0.33455 0.0
H284 H 0.43232 0.63687 0.85844 0.0
C285 C 0.42648 0.60177 0.8871 0.0
H286 H 0.41982 0.50335 0.90291 0.0
H287 H 0.41178 0.52005 0.64783 0.0
H288 H 0.37555 0.59304 0.66098 0.0
H289 H 0.36342 0.62857 0.74806 0.0
H290 H 0.38782 0.59288 0.82211 0.0
C291 C 0.42504 0.53906 0.87427 0.0
C292 C 0.43132 0.51567 0.82161 0.0
C293 C 0.41592 0.53467 0.77899 0.0
C294 C 0.42182 0.51086 0.72916 0.0
C295 C 0.40727 0.53393 0.68682 0.0
C296 C 0.38655 0.57627 0.69377 0.0
C297 C 0.37981 0.59652 0.74274 0.0
C298 C 0.39419 0.57604 0.78497 0.0
H299 H 0.40848 0.38949 0.67412 0.0
C300 C 0.42639 0.39461 0.65273 0.0
H301 H 0.46355 0.43657 0.65177 0.0
H302 H 0.46533 0.47158 0.89434 0.0
H303 H 0.50087 0.39649 0.88101 0.0
H304 H 0.51008 0.35245 0.79502 0.0
H305 H 0.48361 0.3826 0.72187 0.0
C306 C 0.44533 0.43154 0.67204 0.0
C307 C 0.44193 0.46467 0.72243 0.0
C308 C 0.45773 0.44701 0.76467 0.0
C309 C 0.45236 0.47233 0.81432 0.0
C310 C 0.46832 0.45331 0.85592 0.0
C311 C 0.48882 0.41032 0.84879 0.0
C312 C 0.49403 0.38558 0.80036 0.0
C313 C 0.4787 0.40337 0.75868 0.0
H314 H 0.58007 0.52786 0.89318 0.0
C315 C 0.58034 0.4755 0.89042 0.0
H316 H 0.57909 0.39516 0.84069 0.0
H317 H 0.53867 0.64856 0.7007 0.0
H318 H 0.50052 0.64797 0.75469 0.0
H319 H 0.4973 0.57325 0.82795 0.0
H320 H 0.53232 0.49866 0.84776 0.0
C321 C 0.57806 0.44737 0.84423 0.0
C322 C 0.57823 0.48682 0.79652 0.0
C323 C 0.55733 0.52896 0.78467 0.0
C324 C 0.5589 0.57082 0.74152 0.0
C325 C 0.53821 0.6143 0.73193 0.0
C326 C 0.51623 0.61473 0.76283 0.0
C327 C 0.51443 0.5727 0.80413 0.0
C328 C 0.5347 0.53034 0.81518 0.0
H329 H 0.55399 0.57544 0.6217 0.0
C330 C 0.56957 0.61033 0.62339 0.0
H331 H 0.6001 0.64842 0.66743 0.0
H332 H 0.62116 0.40947 0.80692 0.0
H333 H 0.65826 0.40579 0.75033 0.0
H334 H 0.66041 0.47593 0.67403 0.0
H335 H 0.62553 0.55044 0.65408 0.0
C336 C 0.58398 0.61506 0.66609 0.0
C337 C 0.58113 0.56925 0.70964 0.0
C338 C 0.60152 0.52514 0.72031 0.0
C339 C 0.60009 0.48395 0.76379 0.0
C340 C 0.62102 0.44136 0.77408 0.0
C341 C 0.64249 0.43877 0.74192 0.0
C342 C 0.64372 0.47831 0.69903 0.0
C343 C 0.62356 0.52105 0.68814 0.0
H344 H 0.07871 0.92741 0.12544 0.0
C345 C 0.09131 0.88692 0.13491 0.0
H346 H 0.1146 0.84318 0.19187 0.0
H347 H 0.11414 0.14516 0.2739 0.0
H348 H 0.13746 0.17001 0.1957 0.0
H349 H 0.14399 0.08711 0.12897 0.0
H350 H 0.12685 0.97949 0.1395 0.0
C351 C 0.10249 0.88416 0.18142 0.0
C352 C 0.09827 0.93524 0.22084 0.0
C353 C 0.10919 0.99744 0.2146 0.0
C354 C 0.10651 0.04437 0.25414 0.0
C355 C 0.11655 0.10695 0.246 0.0
C356 C 0.12981 0.122 0.20115 0.0
C357 C 0.13341 0.0754 0.16351 0.0
C358 C 0.12331 0.01378 0.16996 0.0
H359 H 0.13513 0.06681 0.35281 0.0
C360 C 0.11734 0.0872 0.36826 0.0
H361 H 0.07665 0.09122 0.36123 0.0
H362 H 0.07343 0.8227 0.24336 0.0
H363 H 0.05051 0.79777 0.32205 0.0
H364 H 0.04736 0.8777 0.39193 0.0
H365 H 0.06695 0.98317 0.3835 0.0
C366 C 0.09475 0.07335 0.34538 0.0
C367 C 0.09404 0.02816 0.30082 0.0
C368 C 0.08236 0.96685 0.30629 0.0
C369 C 0.08446 0.92041 0.26625 0.0
C370 C 0.07267 0.85948 0.2728 0.0
C371 C 0.05941 0.84458 0.31772 0.0
C372 C 0.05762 0.88961 0.35704 0.0
C373 C 0.06895 0.95003 0.35167 0.0
H374 H 0.92319 0.92211 0.38913 0.0
C375 C 0.90921 0.88392 0.3831 0.0
H376 H 0.88244 0.84259 0.33161 0.0
H377 H 0.88474 0.13647 0.23576 0.0
H378 H 0.86372 0.16906 0.31484 0.0
H379 H 0.85869 0.09218 0.38631 0.0
H380 H 0.87474 0.98245 0.37929 0.0
C381 C 0.89601 0.88137 0.33875 0.0
C382 C 0.90017 0.92926 0.29704 0.0
C383 C 0.89063 0.99335 0.30189 0.0
C384 C 0.89321 0.03749 0.2604 0.0
C385 C 0.8833 0.10098 0.26603 0.0
C386 C 0.87115 0.12032 0.3112 0.0
C387 C 0.86835 0.07705 0.35146 0.0
C388 C 0.87781 0.01421 0.347 0.0
H389 H 0.87847 0.00418 0.12735 0.0
C390 C 0.88985 0.04812 0.12771 0.0
H391 H 0.91561 0.10572 0.17061 0.0
H392 H 0.92169 0.81119 0.27628 0.0
H393 H 0.94364 0.77949 0.1979 0.0
H394 H 0.94875 0.8566 0.12658 0.0
H395 H 0.93179 0.96574 0.13307 0.0
C396 C 0.90474 0.06111 0.16863 0.0
C397 C 0.90486 0.01714 0.21388 0.0
C398 C 0.91532 0.95388 0.20982 0.0
C399 C 0.91273 0.90974 0.25125 0.0
C400 C 0.92308 0.84664 0.24595 0.0
C401 C 0.9358 0.82786 0.20123 0.0
C402 C 0.93865 0.87125 0.16106 0.0
C403 C 0.92865 0.93363 0.16514 0.0
H404 H 0.9397 0.97465 0.63883 0.0
C405 C 0.93236 0.92575 0.64185 0.0
H406 H 0.91701 0.85495 0.69109 0.0
H407 H 0.96866 0.07967 0.84568 0.0
H408 H 0.01013 0.04804 0.80999 0.0
H409 H 0.01281 0.96777 0.74056 0.0
H410 H 0.97408 0.91899 0.70565 0.0
C411 C 0.92508 0.90306 0.68788 0.0
C412 C 0.92411 0.94592 0.73381 0.0
C413 C 0.94707 0.97175 0.75522 0.0
C414 C 0.94559 0.01591 0.79701 0.0
C415 C 0.9687 0.04388 0.81552 0.0
C416 C 0.99264 0.02651 0.79513 0.0
C417 C 0.99415 0.98139 0.75588 0.0
C418 C 0.97173 0.95414 0.73599 0.0
H419 H 0.93974 0.01756 0.91451 0.0
C420 C 0.92864 0.06187 0.90962 0.0
H421 H 0.90744 0.12042 0.85828 0.0
H422 H 0.87632 0.90521 0.70215 0.0
H423 H 0.8351 0.93261 0.7406 0.0
H424 H 0.8327 0.00459 0.81581 0.0
H425 H 0.87151 0.05005 0.8527 0.0
C426 C 0.91919 0.07715 0.86311 0.0
C427 C 0.92122 0.03181 0.81886 0.0
C428 C 0.89834 0.00467 0.79824 0.0
C429 C 0.89977 0.96204 0.75555 0.0
C430 C 0.8765 0.93696 0.73507 0.0
C431 C 0.85264 0.9524 0.7567 0.0
C432 C 0.85129 0.99299 0.79898 0.0
C433 C 0.87377 0.01893 0.81967 0.0
H434 H 0.04875 0.91648 0.85591 0.0
C435 C 0.0675 0.89489 0.86436 0.0
H436 H 0.10639 0.88499 0.84098 0.0
H437 H 0.05072 0.97954 0.62354 0.0
H438 H 0.02825 0.87711 0.62539 0.0
H439 H 0.03208 0.80467 0.70013 0.0
H440 H 0.05804 0.83461 0.77378 0.0
C441 C 0.08733 0.90434 0.83202 0.0
C442 C 0.08485 0.94719 0.78637 0.0
C443 C 0.07019 0.92795 0.74301 0.0
C444 C 0.0688 0.96858 0.69903 0.0
C445 C 0.05319 0.94946 0.65711 0.0
C446 C 0.04008 0.89097 0.6578 0.0
C447 C 0.04217 0.85027 0.69996 0.0
C448 C 0.05704 0.86823 0.74213 0.0
H449 H 0.10386 0.99693 0.60774 0.0
C450 C 0.09593 0.04566 0.60811 0.0
H451 H 0.07641 0.11646 0.65191 0.0
H452 H 0.11347 0.99999 0.86394 0.0
H453 H 0.13632 0.10172 0.8616 0.0
H454 H 0.13515 0.17032 0.78431 0.0
H455 H 0.11102 0.13786 0.70903 0.0
C456 C 0.08364 0.06715 0.65024 0.0
C457 C 0.0828 0.02723 0.69779 0.0
C458 C 0.09701 0.04699 0.74152 0.0
C459 C 0.09801 0.00698 0.78582 0.0
C460 C 0.11231 0.02806 0.82901 0.0
C461 C 0.12548 0.08644 0.82825 0.0
C462 C 0.1248 0.1251 0.78476 0.0
C463 C 0.11081 0.10585 0.7418 0.0
H464 H 0.44967 0.91405 0.04293 0.0
C465 C 0.46171 0.87564 0.02723 0.0
H466 H 0.49832 0.85117 0.99672 0.0
H467 H 0.51953 0.14028 0.92944 0.0
H468 H 0.51212 0.08942 0.84711 0.0
H469 H 0.49775 0.97636 0.84186 0.0
H470 H 0.49051 0.9137 0.91899 0.0
C471 C 0.48629 0.88823 0.01431 0.0
C472 C 0.49669 0.95489 0.01805 0.0
C473 C 0.5015 0.99031 0.97256 0.0
C474 C 0.51028 0.0551 0.97558 0.0
C475 C 0.51371 0.09028 0.92949 0.0
C476 C 0.50932 0.06182 0.8819 0.0
C477 C 0.50119 0.99821 0.87895 0.0
C478 C 0.49717 0.96275 0.92358 0.0
H479 H 0.56127 0.12675 0.99661 0.0
C480 C 0.54908 0.16481 0.01239 0.0
H481 H 0.51275 0.18768 0.04498 0.0
H482 H 0.4913 0.89886 0.11259 0.0
H483 H 0.49881 0.94963 0.19506 0.0
H484 H 0.51369 0.06226 0.20035 0.0
H485 H 0.52127 0.12476 0.12317 0.0
C486 C 0.52497 0.1508 0.02768 0.0
C487 C 0.51488 0.0838 0.02415 0.0
C488 C 0.51009 0.04834 0.06964 0.0
C489 C 0.50119 0.98364 0.06661 0.0
C490 C 0.49743 0.94865 0.11265 0.0
C491 C 0.50184 0.97708 0.16027 0.0
C492 C 0.51025 0.04047 0.16324 0.0
C493 C 0.51446 0.07584 0.11861 0.0
H494 H 0.52531 0.85112 0.45819 0.0
C495 C 0.54356 0.85998 0.47759 0.0
H496 H 0.56525 0.92679 0.52062 0.0
H497 H 0.47183 0.10025 0.40436 0.0
H498 H 0.49275 0.07051 0.32452 0.0
H499 H 0.53021 0.99625 0.32397 0.0
H500 H 0.54664 0.95027 0.40316 0.0
C501 C 0.54758 0.91791 0.49927 0.0
C502 C 0.52684 0.96857 0.49958 0.0
C503 C 0.5182 0.99739 0.45314 0.0
C504 C 0.49741 0.04285 0.45373 0.0
C505 C 0.48823 0.06774 0.40645 0.0
C506 C 0.49995 0.05072 0.36026 0.0
C507 C 0.52098 0.0087 0.35993 0.0
C508 C 0.53009 0.98227 0.40567 0.0
H509 H 0.48957 0.18647 0.47691 0.0
C510 C 0.47027 0.17396 0.48989 0.0
H511 H 0.44637 0.0993 0.51723 0.0
H512 H 0.53846 0.92278 0.59547 0.0
H513 H 0.51861 0.95571 0.67557 0.0
H514 H 0.48396 0.03801 0.67694 0.0
H515 H 0.46877 0.08754 0.59815 0.0
C516 C 0.46527 0.1124 0.50246 0.0
C517 C 0.48608 0.06197 0.50101 0.0
C518 C 0.49493 0.03378 0.54745 0.0
C519 C 0.51525 0.98701 0.54673 0.0
C520 C 0.52337 0.9591 0.59372 0.0
C521 C 0.51211 0.97748 0.64004 0.0
C522 C 0.49258 0.02376 0.64081 0.0
C523 C 0.48402 0.05175 0.59523 0.0
H524 H 0.04902 0.59699 0.99036 0.0
C525 C 0.04128 0.63311 0.01654 0.0
H526 H 0.01276 0.65396 0.07216 0.0
H527 H 0.96916 0.39863 0.94017 0.0
H528 H 0.96663 0.47107 0.86735 0.0
H529 H 0.98184 0.58331 0.87418 0.0
H530 H 1.00015 0.62329 0.95356 0.0
C531 C 0.02026 0.61922 0.04463 0.0
C532 C 0.00804 0.55427 0.042 0.0
C533 C 0.99627 0.53259 0.99596 0.0
C534 C 0.98629 0.46886 0.99281 0.0
C535 C 0.97607 0.44731 0.94542 0.0
C536 C 0.97464 0.4883 0.90316 0.0
C537 C 0.9833 0.55139 0.90694 0.0
C538 C 0.99396 0.57357 0.95268 0.0
H539 H 0.93745 0.394 0.02725 0.0
C540 C 0.95032 0.3524 0.02966 0.0
H541 H 0.98902 0.32083 0.03809 0.0
H542 H 0.02856 0.58105 0.13649 0.0
H543 H 0.02906 0.51039 0.21062 0.0
H544 H 0.01014 0.4016 0.20616 0.0
H545 H 0.99075 0.36258 0.12738 0.0
C546 C 0.97592 0.3617 0.03399 0.0
C547 C 0.98692 0.42796 0.03648 0.0
C548 C 0.99806 0.45024 0.08286 0.0
C549 C 0.00865 0.51337 0.08562 0.0
C550 C 0.01996 0.5339 0.13233 0.0
C551 C 0.02042 0.49378 0.1752 0.0
C552 C 0.00979 0.4325 0.17268 0.0
C553 C 0.99874 0.41069 0.12717 0.0
H554 H 0.01634 0.31563 0.49519 0.0
C555 C 0.03674 0.3273 0.49846 0.0
H556 H 0.06387 0.40193 0.50848 0.0
H557 H 0.9594 0.56024 0.42366 0.0
H558 H 0.96666 0.50378 0.34338 0.0
H559 H 1.00048 0.41981 0.33633 0.0
H560 H 0.02714 0.39139 0.40955 0.0
C561 C 0.04367 0.38945 0.50329 0.0
C562 C 0.02382 0.44217 0.50637 0.0
C563 C 0.00849 0.45864 0.46301 0.0
C564 C 0.98924 0.50796 0.46683 0.0
C565 C 0.97427 0.52328 0.42292 0.0
C566 C 0.97826 0.49134 0.37656 0.0
C567 C 0.99728 0.44399 0.37262 0.0
C568 C 0.01234 0.42781 0.41511 0.0
H569 H 0.99414 0.66771 0.52285 0.0
C570 C 0.9736 0.65709 0.52092 0.0
H571 H 0.94578 0.5836 0.5128 0.0
H572 H 0.04998 0.42361 0.59649 0.0
H573 H 0.04285 0.48048 0.67657 0.0
H574 H 0.00912 0.56471 0.68348 0.0
H575 H 0.9824 0.59285 0.61033 0.0
C576 C 0.96614 0.5953 0.51664 0.0
C577 C 0.98565 0.54181 0.5136 0.0
C578 C 1.00095 0.5253 0.55696 0.0
C579 C 0.02019 0.47596 0.55318 0.0
C580 C 0.03516 0.46068 0.59711 0.0
C581 C 0.03123 0.49284 0.6434 0.0
C582 C 0.01226 0.54032 0.64727 0.0
C583 C 0.99717 0.55634 0.60481 0.0
loop_
_geom_bond_atom_site_label_1
_geom_bond_atom_site_label_2
_geom_bond_distance
_geom_bond_site_symmetry_2
_ccdc_geom_bond_type
C0 O1 1.160 1_554 S
C0 O7 1.185 . S
O1 C0 1.160 1_556 S
O2 Zn3 1.899 1_556 S
O2 C10 1.284 . S
Zn3 O2 1.899 1_554 S
Zn3 O4 2.032 . S
Zn3 O7 2.086 . S
Zn3 O12 1.977 . S
O4 Zn3 2.032 . S
O4 C8 1.278 . S
C5 O6 1.203 1_554 S
C5 O12 1.267 . S
O6 C5 1.203 1_556 S
O7 C0 1.185 . S
O7 Zn3 2.086 . S
C8 O4 1.278 . S
C8 O9 1.211 . S
O9 C8 1.211 . S
C10 O2 1.284 . S
C10 O11 1.273 . S
O11 C10 1.273 . S
O12 Zn3 1.977 . S
O12 C5 1.267 . S
C13 O14 1.160 1_554 S
C13 O20 1.185 . S
O14 C13 1.160 1_556 S
O15 Zn16 1.899 1_556 S
O15 C23 1.284 . S
Zn16 O15 1.899 1_554 S
Zn16 O17 2.032 . S
Zn16 O20 2.086 . S
Zn16 O25 1.977 . S
O17 Zn16 2.032 . S
O17 C21 1.278 . S
C18 O19 1.203 1_554 S
C18 O25 1.267 . S
O19 C18 1.203 1_556 S
O20 C13 1.185 . S
O20 Zn16 2.086 . S
C21 O17 1.278 . S
C21 O22 1.211 . S
O22 C21 1.211 . S
C23 O15 1.284 . S
C23 O24 1.273 . S
O24 C23 1.273 . S
O25 Zn16 1.977 . S
O25 C18 1.267 . S
C26 O27 1.160 . S
C26 O33 1.185 . S
O27 C26 1.160 . S
O28 Zn29 1.899 . S
O28 C36 1.284 . S
Zn29 O28 1.899 . S
Zn29 O30 2.032 . S
Zn29 O33 2.086 . S
Zn29 O38 1.977 . S
O30 Zn29 2.032 . S
O30 C34 1.278 . S
C31 O32 1.203 . S
C31 O38 1.267 . S
O32 C31 1.203 . S
O33 C26 1.185 . S
O33 Zn29 2.086 . S
C34 O30 1.278 . S
C34 O35 1.211 . S
O35 C34 1.211 . S
C36 O28 1.284 . S
C36 O37 1.273 . S
O37 C36 1.273 . S
O38 Zn29 1.977 . S
O38 C31 1.267 . S
C39 O40 1.160 . S
C39 O46 1.185 . S
O40 C39 1.160 . S
O41 Zn42 1.899 . S
O41 C49 1.284 . S
Zn42 O41 1.899 . S
Zn42 O43 2.032 . S
Zn42 O46 2.086 . S
Zn42 O51 1.977 . S
O43 Zn42 2.032 . S
O43 C47 1.278 . S
C44 O45 1.203 . S
C44 O51 1.267 . S
O45 C44 1.203 . S
O46 C39 1.185 . S
O46 Zn42 2.086 . S
C47 O43 1.278 . S
C47 O48 1.211 . S
O48 C47 1.211 . S
C49 O41 1.284 . S
C49 O50 1.273 . S
O50 C49 1.273 . S
O51 Zn42 1.977 . S
O51 C44 1.267 . S
C52 O53 1.160 1_554 S
C52 O59 1.185 . S
O53 C52 1.160 1_556 S
O54 Zn55 1.899 1_556 S
O54 C62 1.284 . S
Zn55 O54 1.899 1_554 S
Zn55 O56 2.032 . S
Zn55 O59 2.086 . S
Zn55 O64 1.977 . S
O56 Zn55 2.032 . S
O56 C60 1.278 . S
C57 O58 1.203 1_554 S
C57 O64 1.267 . S
O58 C57 1.203 1_556 S
O59 C52 1.185 . S
O59 Zn55 2.086 . S
C60 O56 1.278 . S
C60 O61 1.211 . S
O61 C60 1.211 . S
C62 O54 1.284 . S
C62 O63 1.273 . S
O63 C62 1.273 . S
O64 Zn55 1.977 . S
O64 C57 1.267 . S
C65 O66 1.160 1_554 S
C65 O72 1.185 . S
O66 C65 1.160 1_556 S
O67 Zn68 1.899 1_556 S
O67 C75 1.284 . S
Zn68 O67 1.899 1_554 S
Zn68 O69 2.032 . S
Zn68 O72 2.086 . S
Zn68 O77 1.977 . S
O69 Zn68 2.032 . S
O69 C73 1.278 . S
C70 O71 1.203 1_554 S
C70 O77 1.267 . S
O71 C70 1.203 1_556 S
O72 C65 1.185 . S
O72 Zn68 2.086 . S
C73 O69 1.278 . S
C73 O74 1.211 . S
O74 C73 1.211 . S
C75 O67 1.284 . S
C75 O76 1.273 . S
O76 C75 1.273 . S
O77 Zn68 1.977 . S
O77 C70 1.267 . S
C78 O79 1.160 . S
C78 O85 1.185 . S
O79 C78 1.160 . S
O80 Zn81 1.899 . S
O80 C88 1.284 . S
Zn81 O80 1.899 . S
Zn81 O82 2.032 . S
Zn81 O85 2.086 . S
Zn81 O90 1.977 . S
O82 Zn81 2.032 . S
O82 C86 1.278 . S
C83 O84 1.203 . S
C83 O90 1.267 . S
O84 C83 1.203 . S
O85 C78 1.185 . S
O85 Zn81 2.086 . S
C86 O82 1.278 . S
C86 O87 1.211 . S
O87 C86 1.211 . S
C88 O80 1.284 . S
C88 O89 1.273 . S
O89 C88 1.273 . S
O90 Zn81 1.977 . S
O90 C83 1.267 . S
C91 O92 1.160 . S
C91 O98 1.185 . S
O92 C91 1.160 . S
O93 Zn94 1.899 . S
O93 C101 1.284 . S
Zn94 O93 1.899 . S
Zn94 O95 2.032 . S
Zn94 O98 2.086 . S
Zn94 O103 1.977 . S
O95 Zn94 2.032 . S
O95 C99 1.278 . S
C96 O97 1.203 . S
C96 O103 1.267 . S
O97 C96 1.203 . S
O98 C91 1.185 . S
O98 Zn94 2.086 . S
C99 O95 1.278 . S
C99 O100 1.211 . S
O100 C99 1.211 . S
C101 O93 1.284 . S
C101 O102 1.273 . S
O102 C101 1.273 . S
O103 Zn94 1.977 . S
O103 C96 1.267 . S
H104 C105 0.951 . S
C105 H104 0.951 . S
C105 C111 1.265 . S
H106 C111 0.946 1_556 S
H107 C115 0.949 . S
H108 C116 0.950 . S
H109 C117 0.951 . S
H110 C118 0.951 . S
C111 C105 1.265 . S
C111 H106 0.946 1_554 S
C111 C112 1.478 . S
C112 C111 1.478 . S
C112 C113 1.397 1_554 S
C112 C129 1.394 . S
C113 C112 1.397 1_556 S
C113 C114 1.438 . S
C113 C118 1.429 . S
C114 C113 1.438 . S
C114 C115 1.428 . S
C114 C127 1.394 1_556 S
C115 H107 0.949 . S
C115 C114 1.428 . S
C115 C116 1.345 . S
C116 H108 0.950 . S
C116 C115 1.345 . S
C116 C117 1.424 . S
C117 H109 0.951 . S
C117 C116 1.424 . S
C117 C118 1.347 . S
C118 H110 0.951 . S
C118 C113 1.429 . S
C118 C117 1.347 . S
H119 C120 0.951 . S
C120 H119 0.951 . S
C120 C126 1.265 . S
H121 C126 0.950 . S
H122 C130 0.949 . S
H123 C131 0.950 . S
H124 C132 0.951 . S
H125 C133 0.951 . S
C126 C120 1.265 . S
C126 H121 0.950 . S
C126 C127 1.478 . S
C127 C114 1.394 1_554 S
C127 C126 1.478 . S
C127 C128 1.397 . S
C128 C127 1.397 . S
C128 C129 1.438 . S
C128 C133 1.429 . S
C129 C112 1.394 . S
C129 C128 1.438 . S
C129 C130 1.428 . S
C130 H122 0.949 . S
C130 C129 1.428 . S
C130 C131 1.345 . S
C131 H123 0.950 . S
C131 C130 1.345 . S
C131 C132 1.424 . S
C132 H124 0.951 . S
C132 C131 1.424 . S
C132 C133 1.347 . S
C133 H125 0.951 . S
C133 C128 1.429 . S
C133 C132 1.347 . S
H134 C135 0.951 . S
C135 H134 0.951 . S
C135 C141 1.265 . S
H136 C141 0.950 . S
H137 C145 0.949 . S
H138 C146 0.950 . S
H139 C147 0.951 . S
H140 C148 0.951 . S
C141 C135 1.265 . S
C141 H136 0.950 . S
C141 C142 1.478 . S
C142 C141 1.478 . S
C142 C143 1.397 . S
C142 C159 1.394 1_554 S
C143 C142 1.397 . S
C143 C144 1.438 . S
C143 C148 1.429 . S
C144 C143 1.438 . S
C144 C145 1.428 . S
C144 C157 1.394 . S
C145 H137 0.949 . S
C145 C144 1.428 . S
C145 C146 1.345 . S
C146 H138 0.950 . S
C146 C145 1.345 . S
C146 C147 1.424 . S
C147 H139 0.951 . S
C147 C146 1.424 . S
C147 C148 1.347 . S
C148 H140 0.951 . S
C148 C143 1.429 . S
C148 C147 1.347 . S
H149 C150 0.951 . S
C150 H149 0.951 . S
C150 C156 1.265 . S
H151 C156 0.950 1_556 S
H152 C160 0.949 . S
H153 C161 0.950 . S
H154 C162 0.951 . S
H155 C163 0.951 . S
C156 C150 1.265 . S
C156 H151 0.950 1_554 S
C156 C157 1.478 . S
C157 C144 1.394 . S
C157 C156 1.478 . S
C157 C158 1.397 1_554 S
C158 C157 1.397 1_556 S
C158 C159 1.438 . S
C158 C163 1.429 . S
C159 C142 1.394 1_556 S
C159 C158 1.438 . S
C159 C160 1.428 . S
C160 H152 0.949 . S
C160 C159 1.428 . S
C160 C161 1.345 . S
C161 H153 0.950 . S
C161 C160 1.345 . S
C161 C162 1.424 . S
C162 H154 0.951 . S
C162 C161 1.424 . S
C162 C163 1.347 . S
C163 H155 0.951 . S
C163 C158 1.429 . S
C163 C162 1.347 . S
H164 C165 0.951 . S
C165 H164 0.951 . S
C165 C171 1.265 . S
H166 C171 0.950 . S
H167 C175 0.949 . S
H168 C176 0.950 . S
H169 C177 0.951 . S
H170 C178 0.951 . S
C171 C165 1.265 . S
C171 H166 0.950 . S
C171 C172 1.478 . S
C172 C171 1.478 . S
C172 C173 1.397 . S
C172 C189 1.394 . S
C173 C172 1.397 . S
C173 C174 1.438 . S
C173 C178 1.429 . S
C174 C173 1.438 . S
C174 C175 1.428 . S
C174 C187 1.394 . S
C175 H167 0.949 . S
C175 C174 1.428 . S
C175 C176 1.345 . S
C176 H168 0.950 . S
C176 C175 1.345 . S
C176 C177 1.424 . S
C177 H169 0.951 . S
C177 C176 1.424 . S
C177 C178 1.347 . S
C178 H170 0.951 . S
C178 C173 1.429 . S
C178 C177 1.347 . S
H179 C180 0.951 . S
C180 H179 0.951 . S
C180 C186 1.265 . S
H181 C186 0.950 . S
H182 C190 0.949 . S
H183 C191 0.950 . S
H184 C192 0.951 . S
H185 C193 0.951 . S
C186 C180 1.265 . S
C186 H181 0.950 . S
C186 C187 1.478 . S
C187 C174 1.394 . S
C187 C186 1.478 . S
C187 C188 1.397 . S
C188 C187 1.397 . S
C188 C189 1.438 . S
C188 C193 1.429 . S
C189 C172 1.394 . S
C189 C188 1.438 . S
C189 C190 1.428 . S
C190 H182 0.949 . S
C190 C189 1.428 . S
C190 C191 1.345 . S
C191 H183 0.950 . S
C191 C190 1.345 . S
C191 C192 1.424 . S
C192 H184 0.951 . S
C192 C191 1.424 . S
C192 C193 1.347 . S
C193 H185 0.951 . S
C193 C188 1.429 . S
C193 C192 1.347 . S
H194 C195 0.951 . S
C195 H194 0.951 . S
C195 C201 1.265 . S
H196 C201 0.950 . S
H197 C205 0.949 . S
H198 C206 0.950 . S
H199 C207 0.951 . S
H200 C208 0.951 . S
C201 C195 1.265 . S
C201 H196 0.950 . S
C201 C202 1.478 . S
C202 C201 1.478 . S
C202 C203 1.397 . S
C202 C219 1.394 . S
C203 C202 1.397 . S
C203 C204 1.438 . S
C203 C208 1.429 . S
C204 C203 1.438 . S
C204 C205 1.428 . S
C204 C217 1.394 . S
C205 H197 0.949 . S
C205 C204 1.428 . S
C205 C206 1.345 . S
C206 H198 0.950 . S
C206 C205 1.345 . S
C206 C207 1.424 . S
C207 H199 0.951 . S
C207 C206 1.424 . S
C207 C208 1.347 . S
C208 H200 0.951 . S
C208 C203 1.429 . S
C208 C207 1.347 . S
H209 C210 0.951 . S
C210 H209 0.951 . S
C210 C216 1.265 . S
H211 C216 0.950 . S
H212 C220 0.949 . S
H213 C221 0.950 . S
H214 C222 0.951 . S
H215 C223 0.951 . S
C216 C210 1.265 . S
C216 H211 0.950 . S
C216 C217 1.478 . S
C217 C204 1.394 . S
C217 C216 1.478 . S
C217 C218 1.397 . S
C218 C217 1.397 . S
C218 C219 1.438 . S
C218 C223 1.429 . S
C219 C202 1.394 . S
C219 C218 1.438 . S
C219 C220 1.428 . S
C220 H212 0.949 . S
C220 C219 1.428 . S
C220 C221 1.345 . S
C221 H213 0.950 . S
C221 C220 1.345 . S
C221 C222 1.424 . S
C222 H214 0.951 . S
C222 C221 1.424 . S
C222 C223 1.347 . S
C223 H215 0.951 . S
C223 C218 1.429 . S
C223 C222 1.347 . S
H224 C225 0.951 . S
C225 H224 0.951 . S
C225 C231 1.265 . S
H226 C231 0.950 . S
H227 C235 0.949 . S
H228 C236 0.950 . S
H229 C237 0.951 . S
H230 C238 0.951 . S
C231 C225 1.265 . S
C231 H226 0.950 . S
C231 C232 1.478 . S
C232 C231 1.478 . S
C232 C233 1.397 . S
C232 C249 1.394 . S
C233 C232 1.397 . S
C233 C234 1.438 . S
C233 C238 1.429 . S
C234 C233 1.438 . S
C234 C235 1.428 . S
C234 C247 1.394 . S
C235 H227 0.949 . S
C235 C234 1.428 . S
C235 C236 1.345 . S
C236 H228 0.950 . S
C236 C235 1.345 . S
C236 C237 1.424 . S
C237 H229 0.951 . S
C237 C236 1.424 . S
C237 C238 1.347 . S
C238 H230 0.951 . S
C238 C233 1.429 . S
C238 C237 1.347 . S
H239 C240 0.951 . S
C240 H239 0.951 . S
C240 C246 1.265 . S
H241 C246 0.950 . S
H242 C250 0.949 . S
H243 C251 0.950 . S
H244 C252 0.951 . S
H245 C253 0.951 . S
C246 C240 1.265 . S
C246 H241 0.950 . S
C246 C247 1.478 . S
C247 C234 1.394 . S
C247 C246 1.478 . S
C247 C248 1.397 . S
C248 C247 1.397 . S
C248 C249 1.438 . S
C248 C253 1.429 . S
C249 C232 1.394 . S
C249 C248 1.438 . S
C249 C250 1.428 . S
C250 H242 0.949 . S
C250 C249 1.428 . S
C250 C251 1.345 . S
C251 H243 0.950 . S
C251 C250 1.345 . S
C251 C252 1.424 . S
C252 H244 0.951 . S
C252 C251 1.424 . S
C252 C253 1.347 . S
C253 H245 0.951 . S
C253 C248 1.429 . S
C253 C252 1.347 . S
H254 C255 0.951 . S
C255 H254 0.951 . S
C255 C261 1.265 . S
H256 C261 0.950 . S
H257 C265 0.949 . S
H258 C266 0.950 . S
H259 C267 0.951 . S
H260 C268 0.951 . S
C261 C255 1.265 . S
C261 H256 0.950 . S
C261 C262 1.478 . S
C262 C261 1.478 . S
C262 C263 1.397 . S
C262 C279 1.394 . S
C263 C262 1.397 . S
C263 C264 1.438 . S
C263 C268 1.429 . S
C264 C263 1.438 . S
C264 C265 1.428 . S
C264 C277 1.394 . S
C265 H257 0.949 . S
C265 C264 1.428 . S
C265 C266 1.345 . S
C266 H258 0.950 . S
C266 C265 1.345 . S
C266 C267 1.424 . S
C267 H259 0.951 . S
C267 C266 1.424 . S
C267 C268 1.347 . S
C268 H260 0.951 . S
C268 C263 1.429 . S
C268 C267 1.347 . S
H269 C270 0.951 . S
C270 H269 0.951 . S
C270 C276 1.265 . S
H271 C276 0.950 . S
H272 C280 0.949 . S
H273 C281 0.950 . S
H274 C282 0.951 . S
H275 C283 0.951 . S
C276 C270 1.265 . S
C276 H271 0.950 . S
C276 C277 1.478 . S
C277 C264 1.394 . S
C277 C276 1.478 . S
C277 C278 1.397 . S
C278 C277 1.397 . S
C278 C279 1.438 . S
C278 C283 1.429 . S
C279 C262 1.394 . S
C279 C278 1.438 . S
C279 C280 1.428 . S
C280 H272 0.949 . S
C280 C279 1.428 . S
C280 C281 1.345 . S
C281 H273 0.950 . S
C281 C280 1.345 . S
C281 C282 1.424 . S
C282 H274 0.951 . S
C282 C281 1.424 . S
C282 C283 1.347 . S
C283 H275 0.951 . S
C283 C278 1.429 . S
C283 C282 1.347 . S
H284 C285 0.951 . S
C285 H284 0.951 . S
C285 C291 1.265 . S
H286 C291 0.950 . S
H287 C295 0.949 . S
H288 C296 0.950 . S
H289 C297 0.951 . S
H290 C298 0.951 . S
C291 C285 1.265 . S
C291 H286 0.950 . S
C291 C292 1.478 . S
C292 C291 1.478 . S
C292 C293 1.397 . S
C292 C309 1.394 . S
C293 C292 1.397 . S
C293 C294 1.438 . S
C293 C298 1.429 . S
C294 C293 1.438 . S
C294 C295 1.428 . S
C294 C307 1.394 . S
C295 H287 0.949 . S
C295 C294 1.428 . S
C295 C296 1.345 . S
C296 H288 0.950 . S
C296 C295 1.345 . S
C296 C297 1.424 . S
C297 H289 0.951 . S
C297 C296 1.424 . S
C297 C298 1.347 . S
C298 H290 0.951 . S
C298 C293 1.429 . S
C298 C297 1.347 . S
H299 C300 0.951 . S
C300 H299 0.951 . S
C300 C306 1.265 . S
H301 C306 0.950 . S
H302 C310 0.949 . S
H303 C311 0.950 . S
H304 C312 0.951 . S
H305 C313 0.951 . S
C306 C300 1.265 . S
C306 H301 0.950 . S
C306 C307 1.478 . S
C307 C294 1.394 . S
C307 C306 1.478 . S
C307 C308 1.397 . S
C308 C307 1.397 . S
C308 C309 1.438 . S
C308 C313 1.429 . S
C309 C292 1.394 . S
C309 C308 1.438 . S
C309 C310 1.428 . S
C310 H302 0.949 . S
C310 C309 1.428 . S
C310 C311 1.345 . S
C311 H303 0.950 . S
C311 C310 1.345 . S
C311 C312 1.424 . S
C312 H304 0.951 . S
C312 C311 1.424 . S
C312 C313 1.347 . S
C313 H305 0.951 . S
C313 C308 1.429 . S
C313 C312 1.347 . S
H314 C315 0.951 . S
C315 H314 0.951 . S
C315 C321 1.265 . S
H316 C321 0.950 . S
H317 C325 0.949 . S
H318 C326 0.950 . S
H319 C327 0.951 . S
H320 C328 0.951 . S
C321 C315 1.265 . S
C321 H316 0.950 . S
C321 C322 1.478 . S
C322 C321 1.478 . S
C322 C323 1.397 . S
C322 C339 1.394 . S
C323 C322 1.397 . S
C323 C324 1.438 . S
C323 C328 1.429 . S
C324 C323 1.438 . S
C324 C325 1.428 . S
C324 C337 1.394 . S
C325 H317 0.949 . S
C325 C324 1.428 . S
C325 C326 1.345 . S
C326 H318 0.950 . S
C326 C325 1.345 . S
C326 C327 1.424 . S
C327 H319 0.951 . S
C327 C326 1.424 . S
C327 C328 1.347 . S
C328 H320 0.951 . S
C328 C323 1.429 . S
C328 C327 1.347 . S
H329 C330 0.951 . S
C330 H329 0.951 . S
C330 C336 1.265 . S
H331 C336 0.950 . S
H332 C340 0.949 . S
H333 C341 0.950 . S
H334 C342 0.951 . S
H335 C343 0.951 . S
C336 C330 1.265 . S
C336 H331 0.950 . S
C336 C337 1.478 . S
C337 C324 1.394 . S
C337 C336 1.478 . S
C337 C338 1.397 . S
C338 C337 1.397 . S
C338 C339 1.438 . S
C338 C343 1.429 . S
C339 C322 1.394 . S
C339 C338 1.438 . S
C339 C340 1.428 . S
C340 H332 0.949 . S
C340 C339 1.428 . S
C340 C341 1.345 . S
C341 H333 0.950 . S
C341 C340 1.345 . S
C341 C342 1.424 . S
C342 H334 0.951 . S
C342 C341 1.424 . S
C342 C343 1.347 . S
C343 H335 0.951 . S
C343 C338 1.429 . S
C343 C342 1.347 . S
H344 C345 0.951 . S
C345 H344 0.951 . S
C345 C351 1.265 . S
H346 C351 0.950 . S
H347 C355 0.949 . S
H348 C356 0.950 . S
H349 C357 0.951 . S
H350 C358 0.951 . S
C351 C345 1.265 . S
C351 H346 0.950 . S
C351 C352 1.478 . S
C352 C351 1.478 . S
C352 C353 1.397 1_565 S
C352 C369 1.394 . S
C353 C352 1.397 1_545 S
C353 C354 1.438 . S
C353 C358 1.429 . S
C354 C353 1.438 . S
C354 C355 1.428 . S
C354 C367 1.394 . S
C355 H347 0.949 . S
C355 C354 1.428 . S
C355 C356 1.345 . S
C356 H348 0.950 . S
C356 C355 1.345 . S
C356 C357 1.424 . S
C357 H349 0.951 . S
C357 C356 1.424 . S
C357 C358 1.347 . S
C358 H350 0.951 . S
C358 C353 1.429 . S
C358 C357 1.347 . S
H359 C360 0.951 . S
C360 H359 0.951 . S
C360 C366 1.265 . S
H361 C366 0.950 . S
H362 C370 0.949 . S
H363 C371 0.950 . S
H364 C372 0.951 . S
H365 C373 0.951 . S
C366 C360 1.265 . S
C366 H361 0.950 . S
C366 C367 1.478 . S
C367 C354 1.394 . S
C367 C366 1.478 . S
C367 C368 1.397 1_545 S
C368 C367 1.397 1_565 S
C368 C369 1.438 . S
C368 C373 1.429 . S
C369 C352 1.394 . S
C369 C368 1.438 . S
C369 C370 1.428 . S
C370 H362 0.949 . S
C370 C369 1.428 . S
C370 C371 1.345 . S
C371 H363 0.950 . S
C371 C370 1.345 . S
C371 C372 1.424 . S
C372 H364 0.951 . S
C372 C371 1.424 . S
C372 C373 1.347 . S
C373 H365 0.951 . S
C373 C368 1.429 . S
C373 C372 1.347 . S
H374 C375 0.951 . S
C375 H374 0.951 . S
C375 C381 1.265 . S
H376 C381 0.950 . S
H377 C385 0.949 . S
H378 C386 0.950 . S
H379 C387 0.951 . S
H380 C388 0.951 . S
C381 C375 1.265 . S
C381 H376 0.950 . S
C381 C382 1.478 . S
C382 C381 1.478 . S
C382 C383 1.397 1_565 S
C382 C399 1.394 . S
C383 C382 1.397 1_545 S
C383 C384 1.438 . S
C383 C388 1.429 . S
C384 C383 1.438 . S
C384 C385 1.428 . S
C384 C397 1.394 . S
C385 H377 0.949 . S
C385 C384 1.428 . S
C385 C386 1.345 . S
C386 H378 0.950 . S
C386 C385 1.345 . S
C386 C387 1.424 . S
C387 H379 0.951 . S
C387 C386 1.424 . S
C387 C388 1.347 . S
C388 H380 0.951 . S
C388 C383 1.429 . S
C388 C387 1.347 . S
H389 C390 0.951 . S
C390 H389 0.951 . S
C390 C396 1.265 . S
H391 C396 0.950 . S
H392 C400 0.949 . S
H393 C401 0.950 . S
H394 C402 0.951 . S
H395 C403 0.951 . S
C396 C390 1.265 . S
C396 H391 0.950 . S
C396 C397 1.478 . S
C397 C384 1.394 . S
C397 C396 1.478 . S
C397 C398 1.397 1_545 S
C398 C397 1.397 1_565 S
C398 C399 1.438 . S
C398 C403 1.429 . S
C399 C382 1.394 . S
C399 C398 1.438 . S
C399 C400 1.428 . S
C400 H392 0.949 . S
C400 C399 1.428 . S
C400 C401 1.345 . S
C401 H393 0.950 . S
C401 C400 1.345 . S
C401 C402 1.424 . S
C402 H394 0.951 . S
C402 C401 1.424 . S
C402 C403 1.347 . S
C403 H395 0.951 . S
C403 C398 1.429 . S
C403 C402 1.347 . S
H404 C405 0.951 . S
C405 H404 0.951 . S
C405 C411 1.265 . S
H406 C411 0.950 . S
H407 C415 0.949 . S
H408 C416 0.950 . S
H409 C417 0.951 . S
H410 C418 0.951 . S
C411 C405 1.265 . S
C411 H406 0.950 . S
C411 C412 1.478 . S
C412 C411 1.478 . S
C412 C413 1.397 . S
C412 C429 1.394 . S
C413 C412 1.397 . S
C413 C414 1.438 1_565 S
C413 C418 1.429 . S
C414 C413 1.438 1_545 S
C414 C415 1.428 . S
C414 C427 1.394 . S
C415 H407 0.949 . S
C415 C414 1.428 . S
C415 C416 1.345 . S
C416 H408 0.950 . S
C416 C415 1.345 . S
C416 C417 1.424 . S
C417 H409 0.951 . S
C417 C416 1.424 . S
C417 C418 1.347 1_545 S
C418 H410 0.951 . S
C418 C413 1.429 . S
C418 C417 1.347 1_565 S
H419 C420 0.951 . S
C420 H419 0.951 . S
C420 C426 1.265 . S
H421 C426 0.950 . S
H422 C430 0.949 . S
H423 C431 0.950 . S
H424 C432 0.951 . S
H425 C433 0.951 . S
C426 C420 1.265 . S
C426 H421 0.950 . S
C426 C427 1.478 . S
C427 C414 1.394 . S
C427 C426 1.478 . S
C427 C428 1.397 . S
C428 C427 1.397 . S
C428 C429 1.438 1_545 S
C428 C433 1.429 . S
C429 C412 1.394 . S
C429 C428 1.438 1_565 S
C429 C430 1.428 . S
C430 H422 0.949 . S
C430 C429 1.428 . S
C430 C431 1.345 . S
C431 H423 0.950 . S
C431 C430 1.345 . S
C431 C432 1.424 . S
C432 H424 0.951 . S
C432 C431 1.424 . S
C432 C433 1.347 1_565 S
C433 H425 0.951 . S
C433 C428 1.429 . S
C433 C432 1.347 1_545 S
H434 C435 0.951 . S
C435 H434 0.951 . S
C435 C441 1.265 . S
H436 C441 0.950 . S
H437 C445 0.949 . S
H438 C446 0.950 . S
H439 C447 0.951 . S
H440 C448 0.951 . S
C441 C435 1.265 . S
C441 H436 0.950 . S
C441 C442 1.478 . S
C442 C441 1.478 . S
C442 C443 1.397 . S
C442 C459 1.394 1_565 S
C443 C442 1.397 . S
C443 C444 1.438 . S
C443 C448 1.429 . S
C444 C443 1.438 . S
C444 C445 1.428 . S
C444 C457 1.394 1_565 S
C445 H437 0.949 . S
C445 C444 1.428 . S
C445 C446 1.345 . S
C446 H438 0.950 . S
C446 C445 1.345 . S
C446 C447 1.424 . S
C447 H439 0.951 . S
C447 C446 1.424 . S
C447 C448 1.347 . S
C448 H440 0.951 . S
C448 C443 1.429 . S
C448 C447 1.347 . S
H449 C450 0.951 . S
C450 H449 0.951 . S
C450 C456 1.265 . S
H451 C456 0.950 . S
H452 C460 0.949 . S
H453 C461 0.950 . S
H454 C462 0.951 . S
H455 C463 0.951 . S
C456 C450 1.265 . S
C456 H451 0.950 . S
C456 C457 1.478 . S
C457 C444 1.394 1_545 S
C457 C456 1.478 . S
C457 C458 1.397 . S
C458 C457 1.397 . S
C458 C459 1.438 . S
C458 C463 1.429 . S
C459 C442 1.394 1_545 S
C459 C458 1.438 . S
C459 C460 1.428 . S
C460 H452 0.949 . S
C460 C459 1.428 . S
C460 C461 1.345 . S
C461 H453 0.950 . S
C461 C460 1.345 . S
C461 C462 1.424 . S
C462 H454 0.951 . S
C462 C461 1.424 . S
C462 C463 1.347 . S
C463 H455 0.951 . S
C463 C458 1.429 . S
C463 C462 1.347 . S
H464 C465 0.951 . S
C465 H464 0.951 . S
C465 C471 1.265 . S
H466 C471 0.950 . S
H467 C475 0.949 . S
H468 C476 0.950 . S
H469 C477 0.951 . S
H470 C478 0.951 . S
C471 C465 1.265 . S
C471 H466 0.950 . S
C471 C472 1.478 . S
C472 C471 1.478 . S
C472 C473 1.397 1_554 S
C472 C489 1.394 . S
C473 C472 1.397 1_556 S
C473 C474 1.438 1_565 S
C473 C478 1.429 . S
C474 C473 1.438 1_545 S
C474 C475 1.428 . S
C474 C487 1.394 1_556 S
C475 H467 0.949 . S
C475 C474 1.428 . S
C475 C476 1.345 . S
C476 H468 0.950 . S
C476 C475 1.345 . S
C476 C477 1.424 1_545 S
C477 H469 0.951 . S
C477 C476 1.424 1_565 S
C477 C478 1.347 . S
C478 H470 0.951 . S
C478 C473 1.429 . S
C478 C477 1.347 . S
H479 C480 0.951 . S
C480 H479 0.951 . S
C480 C486 1.265 . S
H481 C486 0.950 . S
H482 C490 0.949 . S
H483 C491 0.950 . S
H484 C492 0.951 . S
H485 C493 0.951 . S
C486 C480 1.265 . S
C486 H481 0.950 . S
C486 C487 1.478 . S
C487 C474 1.394 1_554 S
C487 C486 1.478 . S
C487 C488 1.397 . S
C488 C487 1.397 . S
C488 C489 1.438 1_545 S
C488 C493 1.429 . S
C489 C472 1.394 . S
C489 C488 1.438 1_565 S
C489 C490 1.428 . S
C490 H482 0.949 . S
C490 C489 1.428 . S
C490 C491 1.345 . S
C491 H483 0.950 . S
C491 C490 1.345 . S
C491 C492 1.424 1_565 S
C492 H484 0.951 . S
C492 C491 1.424 1_545 S
C492 C493 1.347 . S
C493 H485 0.951 . S
C493 C488 1.429 . S
C493 C492 1.347 . S
H494 C495 0.951 . S
C495 H494 0.951 . S
C495 C501 1.265 . S
H496 C501 0.950 . S
H497 C505 0.949 . S
H498 C506 0.950 . S
H499 C507 0.951 . S
H500 C508 0.951 . S
C501 C495 1.265 . S
C501 H496 0.950 . S
C501 C502 1.478 . S
C502 C501 1.478 . S
C502 C503 1.397 . S
C502 C519 1.394 . S
C503 C502 1.397 . S
C503 C504 1.438 1_565 S
C503 C508 1.429 . S
C504 C503 1.438 1_545 S
C504 C505 1.428 . S
C504 C517 1.394 . S
C505 H497 0.949 . S
C505 C504 1.428 . S
C505 C506 1.345 . S
C506 H498 0.950 . S
C506 C505 1.345 . S
C506 C507 1.424 . S
C507 H499 0.951 . S
C507 C506 1.424 . S
C507 C508 1.347 1_545 S
C508 H500 0.951 . S
C508 C503 1.429 . S
C508 C507 1.347 1_565 S
H509 C510 0.951 . S
C510 H509 0.951 . S
C510 C516 1.265 . S
H511 C516 0.950 . S
H512 C520 0.949 . S
H513 C521 0.950 . S
H514 C522 0.951 . S
H515 C523 0.951 . S
C516 C510 1.265 . S
C516 H511 0.950 . S
C516 C517 1.478 . S
C517 C504 1.394 . S
C517 C516 1.478 . S
C517 C518 1.397 . S
C518 C517 1.397 . S
C518 C519 1.438 1_545 S
C518 C523 1.429 . S
C519 C502 1.394 . S
C519 C518 1.438 1_565 S
C519 C520 1.428 . S
C520 H512 0.949 . S
C520 C519 1.428 . S
C520 C521 1.345 . S
C521 H513 0.950 . S
C521 C520 1.345 . S
C521 C522 1.424 . S
C522 H514 0.951 . S
C522 C521 1.424 . S
C522 C523 1.347 1_565 S
C523 H515 0.951 . S
C523 C518 1.429 . S
C523 C522 1.347 1_545 S
H524 C525 0.951 . S
C525 H524 0.951 . S
C525 C531 1.265 . S
H526 C531 0.950 . S
H527 C535 0.949 . S
H528 C536 0.950 . S
H529 C537 0.951 . S
H530 C538 0.951 1_455 S
C531 C525 1.265 . S
C531 H526 0.950 . S
C531 C532 1.478 . S
C532 C531 1.478 . S
C532 C533 1.397 1_454 S
C532 C549 1.394 . S
C533 C532 1.397 1_656 S
C533 C534 1.438 . S
C533 C538 1.429 . S
C534 C533 1.438 . S
C534 C535 1.428 . S
C534 C547 1.394 1_556 S
C535 H527 0.949 . S
C535 C534 1.428 . S
C535 C536 1.345 . S
C536 H528 0.950 . S
C536 C535 1.345 . S
C536 C537 1.424 . S
C537 H529 0.951 . S
C537 C536 1.424 . S
C537 C538 1.347 . S
C538 H530 0.951 1_655 S
C538 C533 1.429 . S
C538 C537 1.347 . S
H539 C540 0.951 . S
C540 H539 0.951 . S
C540 C546 1.265 . S
H541 C546 0.950 . S
H542 C550 0.949 . S
H543 C551 0.950 . S
H544 C552 0.951 . S
H545 C553 0.951 1_655 S
C546 C540 1.265 . S
C546 H541 0.950 . S
C546 C547 1.478 . S
C547 C534 1.394 1_554 S
C547 C546 1.478 . S
C547 C548 1.397 1_655 S
C548 C547 1.397 1_455 S
C548 C549 1.438 . S
C548 C553 1.429 . S
C549 C532 1.394 . S
C549 C548 1.438 . S
C549 C550 1.428 . S
C550 H542 0.949 . S
C550 C549 1.428 . S
C550 C551 1.345 . S
C551 H543 0.950 . S
C551 C550 1.345 . S
C551 C552 1.424 . S
C552 H544 0.951 . S
C552 C551 1.424 . S
C552 C553 1.347 . S
C553 H545 0.951 1_455 S
C553 C548 1.429 . S
C553 C552 1.347 . S
H554 C555 0.951 . S
C555 H554 0.951 . S
C555 C561 1.265 . S
H556 C561 0.950 . S
H557 C565 0.949 . S
H558 C566 0.950 . S
H559 C567 0.951 . S
H560 C568 0.951 1_455 S
C561 C555 1.265 . S
C561 H556 0.950 . S
C561 C562 1.478 . S
C562 C561 1.478 . S
C562 C563 1.397 1_455 S
C562 C579 1.394 . S
C563 C562 1.397 1_655 S
C563 C564 1.438 . S
C563 C568 1.429 . S
C564 C563 1.438 . S
C564 C565 1.428 . S
C564 C577 1.394 . S
C565 H557 0.949 . S
C565 C564 1.428 . S
C565 C566 1.345 . S
C566 H558 0.950 . S
C566 C565 1.345 . S
C566 C567 1.424 . S
C567 H559 0.951 . S
C567 C566 1.424 . S
C567 C568 1.347 . S
C568 H560 0.951 1_655 S
C568 C563 1.429 . S
C568 C567 1.347 . S
H569 C570 0.951 . S
C570 H569 0.951 . S
C570 C576 1.265 . S
H571 C576 0.950 . S
H572 C580 0.949 . S
H573 C581 0.950 . S
H574 C582 0.951 . S
H575 C583 0.951 1_655 S
C576 C570 1.265 . S
C576 H571 0.950 . S
C576 C577 1.478 . S
C577 C564 1.394 . S
C577 C576 1.478 . S
C577 C578 1.397 1_655 S
C578 C577 1.397 1_455 S
C578 C579 1.438 . S
C578 C583 1.429 . S
C579 C562 1.394 . S
C579 C578 1.438 . S
C579 C580 1.428 . S
C580 H572 0.949 . S
C580 C579 1.428 . S
C580 C581 1.345 . S
C581 H573 0.950 . S
C581 C580 1.345 . S
C581 C582 1.424 . S
C582 H574 0.951 . S
C582 C581 1.424 . S
C582 C583 1.347 . S
C583 H575 0.951 1_455 S
C583 C578 1.429 . S
C583 C582 1.347 . S
C105 C70 1.428 . S
C120 C5 1.425 . S
C135 C57 1.500 . S
C150 C18 1.504 . S
C165 C96 1.426 . S
C180 C31 1.427 . S
C195 C83 1.429 . S
C210 C44 1.425 . S
C225 C8 1.361 . S
C240 C34 1.256 . S
C255 C21 1.361 . S
C270 C47 1.254 . S
C285 C23 1.354 . S
C300 C49 1.340 . S
C315 C10 1.327 . S
C330 C36 1.340 . S
C345 C60 1.360 . S
C360 C86 1.257 . S
C375 C99 1.358 . S
C390 C73 1.253 . S
C405 C101 1.325 . S
C420 C75 1.334 . S
C435 C62 1.339 . S
C450 C88 1.327 . S
C465 C13 1.493 . S
C480 C0 1.492 . S
C495 C26 1.479 . S
C510 C39 1.480 . S
C525 C52 1.493 . S
C540 C65 1.491 . S
C555 C78 1.455 . S
C570 C91 1.510 . S
