# Generated by pormake.
# Topology wiu, (6)-cn, num edge types: 1
# Building blocks:
#     Node 0, Type 0, BuildingBlock: BETFAJ_clean_sbu_0, # of connection points: 6
#     Node 1, Type 0, BuildingBlock: BETFAJ_clean_sbu_0, # of connection points: 6
#     Node 2, Type 0, BuildingBlock: BETFAJ_clean_sbu_0, # of connection points: 6
#     Node 3, Type 0, BuildingBlock: BETFAJ_clean_sbu_0, # of connection points: 6
#     Node 4, Type 0, BuildingBlock: BETFAJ_clean_sbu_0, # of connection points: 6
#     Node 5, Type 0, BuildingBlock: BETFAJ_clean_sbu_0, # of connection points: 6
#     Node 6, Type 0, BuildingBlock: BETFAJ_clean_sbu_0, # of connection points: 6
#     Node 7, Type 0, BuildingBlock: BETFAJ_clean_sbu_0, # of connection points: 6
#     Node 8, Type 0, BuildingBlock: BETFAJ_clean_sbu_0, # of connection points: 6
#     Node 9, Type 0, BuildingBlock: BETFAJ_clean_sbu_0, # of connection points: 6
#     Node 10, Type 0, BuildingBlock: BETFAJ_clean_sbu_0, # of connection points: 6
#     Node 11, Type 0, BuildingBlock: BETFAJ_clean_sbu_0, # of connection points: 6
#     Node 12, Type 0, BuildingBlock: BETFAJ_clean_sbu_0, # of connection points: 6
#     Node 13, Type 0, BuildingBlock: BETFAJ_clean_sbu_0, # of connection points: 6
#     Node 14, Type 0, BuildingBlock: BETFAJ_clean_sbu_0, # of connection points: 6
#     Node 15, Type 0, BuildingBlock: BETFAJ_clean_sbu_0, # of connection points: 6
#     Edge 16, Type (0, 0), BuildingBlock: AJUNOK_clean_linker_0, # of connection points: 2
#     Edge 17, Type (0, 0), BuildingBlock: AJUNOK_clean_linker_0, # of connection points: 2
#     Edge 18, Type (0, 0), BuildingBlock: AJUNOK_clean_linker_0, # of connection points: 2
#     Edge 19, Type (0, 0), BuildingBlock: AJUNOK_clean_linker_0, # of connection points: 2
#     Edge 20, Type (0, 0), BuildingBlock: AJUNOK_clean_linker_0, # of connection points: 2
#     Edge 21, Type (0, 0), BuildingBlock: AJUNOK_clean_linker_0, # of connection points: 2
#     Edge 22, Type (0, 0), BuildingBlock: AJUNOK_clean_linker_0, # of connection points: 2
#     Edge 23, Type (0, 0), BuildingBlock: AJUNOK_clean_linker_0, # of connection points: 2
#     Edge 24, Type (0, 0), BuildingBlock: AJUNOK_clean_linker_0, # of connection points: 2
#     Edge 25, Type (0, 0), BuildingBlock: AJUNOK_clean_linker_0, # of connection points: 2
#     Edge 26, Type (0, 0), BuildingBlock: AJUNOK_clean_linker_0, # of connection points: 2
#     Edge 27, Type (0, 0), BuildingBlock: AJUNOK_clean_linker_0, # of connection points: 2
#     Edge 28, Type (0, 0), BuildingBlock: AJUNOK_clean_linker_0, # of connection points: 2
#     Edge 29, Type (0, 0), BuildingBlock: AJUNOK_clean_linker_0, # of connection points: 2
#     Edge 30, Type (0, 0), BuildingBlock: AJUNOK_clean_linker_0, # of connection points: 2
#     Edge 31, Type (0, 0), BuildingBlock: AJUNOK_clean_linker_0, # of connection points: 2
#     Edge 32, Type (0, 0), BuildingBlock: AJUNOK_clean_linker_0, # of connection points: 2
#     Edge 33, Type (0, 0), BuildingBlock: AJUNOK_clean_linker_0, # of connection points: 2
#     Edge 34, Type (0, 0), BuildingBlock: AJUNOK_clean_linker_0, # of connection points: 2
#     Edge 35, Type (0, 0), BuildingBlock: AJUNOK_clean_linker_0, # of connection points: 2
#     Edge 36, Type (0, 0), BuildingBlock: AJUNOK_clean_linker_0, # of connection points: 2
#     Edge 37, Type (0, 0), BuildingBlock: AJUNOK_clean_linker_0, # of connection points: 2
#     Edge 38, Type (0, 0), BuildingBlock: AJUNOK_clean_linker_0, # of connection points: 2
#     Edge 39, Type (0, 0), BuildingBlock: AJUNOK_clean_linker_0, # of connection points: 2
#     Edge 40, Type (0, 0), BuildingBlock: AJUNOK_clean_linker_0, # of connection points: 2
#     Edge 41, Type (0, 0), BuildingBlock: AJUNOK_clean_linker_0, # of connection points: 2
#     Edge 42, Type (0, 0), BuildingBlock: AJUNOK_clean_linker_0, # of connection points: 2
#     Edge 43, Type (0, 0), BuildingBlock: AJUNOK_clean_linker_0, # of connection points: 2
#     Edge 44, Type (0, 0), BuildingBlock: AJUNOK_clean_linker_0, # of connection points: 2
#     Edge 45, Type (0, 0), BuildingBlock: AJUNOK_clean_linker_0, # of connection points: 2
#     Edge 46, Type (0, 0), BuildingBlock: AJUNOK_clean_linker_0, # of connection points: 2
#     Edge 47, Type (0, 0), BuildingBlock: AJUNOK_clean_linker_0, # of connection points: 2
#     Edge 48, Type (0, 0), BuildingBlock: AJUNOK_clean_linker_0, # of connection points: 2
#     Edge 49, Type (0, 0), BuildingBlock: AJUNOK_clean_linker_0, # of connection points: 2
#     Edge 50, Type (0, 0), BuildingBlock: AJUNOK_clean_linker_0, # of connection points: 2
#     Edge 51, Type (0, 0), BuildingBlock: AJUNOK_clean_linker_0, # of connection points: 2
#     Edge 52, Type (0, 0), BuildingBlock: AJUNOK_clean_linker_0, # of connection points: 2
#     Edge 53, Type (0, 0), BuildingBlock: AJUNOK_clean_linker_0, # of connection points: 2
#     Edge 54, Type (0, 0), BuildingBlock: AJUNOK_clean_linker_0, # of connection points: 2
#     Edge 55, Type (0, 0), BuildingBlock: AJUNOK_clean_linker_0, # of connection points: 2
#     Edge 56, Type (0, 0), BuildingBlock: AJUNOK_clean_linker_0, # of connection points: 2
#     Edge 57, Type (0, 0), BuildingBlock: AJUNOK_clean_linker_0, # of connection points: 2
#     Edge 58, Type (0, 0), BuildingBlock: AJUNOK_clean_linker_0, # of connection points: 2
#     Edge 59, Type (0, 0), BuildingBlock: AJUNOK_clean_linker_0, # of connection points: 2
#     Edge 60, Type (0, 0), BuildingBlock: AJUNOK_clean_linker_0, # of connection points: 2
#     Edge 61, Type (0, 0), BuildingBlock: AJUNOK_clean_linker_0, # of connection points: 2
#     Edge 62, Type (0, 0), BuildingBlock: AJUNOK_clean_linker_0, # of connection points: 2
#     Edge 63, Type (0, 0), BuildingBlock: AJUNOK_clean_linker_0, # of connection points: 2
# Relax obj value: 0.729
# Max RMSD: 0.341
# Mean RMSD: 0.341
data_MOF--net-wiu--node1-BETFAJ_clean_sbu_0--edge1-AJUNOK_clean_linker_0
_symmetry_space_group_name_H-M    P1
_symmetry_Int_Tables_number       1
_symmetry_cell_setting            triclinic
loop_
_symmetry_equiv_pos_as_xyz
'x, y, z'
_cell_length_a     29.10926
_cell_length_b     29.062267
_cell_length_c     38.629578
_cell_angle_alpha  89.593897
_cell_angle_beta   90.389495
_cell_angle_gamma 89.993433
loop_
_atom_site_label
_atom_site_type_symbol
_atom_site_fract_x
_atom_site_fract_y
_atom_site_fract_z
_atom_type_partial_charge
Sm0 Sm 0.39493 0.21311 0.37986 0.0
Sm1 Sm 0.43816 0.13811 0.35076 0.0
C2 C 0.35291 0.28207 0.41161 0.0
C3 C 0.34182 0.32908 0.3997 0.0
C4 C 0.31042 0.35616 0.41788 0.0
C5 C 0.29659 0.39897 0.40453 0.0
C6 C 0.31401 0.41526 0.3728 0.0
C7 C 0.34663 0.38876 0.35531 0.0
C8 C 0.36006 0.34588 0.36849 0.0
C9 C 0.47986 0.24081 0.35322 0.0
C10 C 0.43869 0.13244 0.43172 0.0
C11 C 0.4817 0.07566 0.31419 0.0
C12 C 0.46234 1.04291 0.28924 0.0
C13 C 0.41671 1.02745 0.29269 0.0
C14 C 0.3947 1.00474 0.26542 0.0
C15 C 0.41849 0.99651 0.23481 0.0
C16 C 0.46545 1.00797 0.23281 0.0
C17 C 0.48711 1.03144 0.2597 0.0
C18 C 0.34885 0.11495 0.37088 0.0
C19 C 0.36577 0.19448 0.29876 0.0
O20 O 0.3964 0.27264 0.41592 0.0
O21 O 0.33113 0.24936 0.39548 0.0
O22 O 0.47327 0.20414 0.3709 0.0
O23 O 0.44054 0.25902 0.34559 0.0
O24 O 0.40363 0.16113 0.42708 0.0
O25 O 0.46668 0.12624 0.4057 0.0
O26 O 0.47979 0.11903 0.30486 0.0
O27 O 0.46961 0.06902 0.34627 0.0
O28 O 0.36183 0.15145 0.35676 0.0
O29 O 0.38401 0.08814 0.37428 0.0
O30 O 0.40202 0.16683 0.30001 0.0
O31 O 0.35366 0.2156 0.32757 0.0
H32 H 0.2958 0.34373 0.44191 0.0
H33 H 0.27172 0.41906 0.41869 0.0
H34 H 0.36035 0.4004 0.33076 0.0
H35 H 0.38371 0.32527 0.35374 0.0
H36 H 0.39732 1.03513 0.31572 0.0
H37 H 0.35878 0.99564 0.26752 0.0
H38 H 0.48449 1.00183 1.2093 0.0
H39 H 0.52228 1.04285 0.2566 0.0
Sm40 Sm 0.65029 0.63378 0.63299 0.0
Sm41 Sm 0.72661 0.67338 0.60193 0.0
C42 C 0.57994 0.5935 0.66438 0.0
C43 C 0.53482 0.58133 0.64946 0.0
C44 C 0.50007 0.56227 0.66998 0.0
C45 C 0.4578 0.55003 0.65502 0.0
C46 C 0.44983 0.55635 0.61926 0.0
C47 C 0.48452 0.57623 0.599 0.0
C48 C 0.52658 0.58849 0.61394 0.0
C49 C 0.62496 0.71895 0.60435 0.0
C50 C 0.73353 0.67904 0.68307 0.0
C51 C 0.78617 0.71216 0.56007 0.0
C52 C 0.8121 0.6885 0.53311 0.0
C53 C 0.83355 0.71354 0.50686 0.0
C54 C 0.8517 0.6906 0.47848 0.0
C55 C 0.84811 0.64232 0.47576 0.0
C56 C 0.82924 0.61707 0.50316 0.0
C57 C 0.81171 0.64007 0.53187 0.0
C58 C 0.7483 0.58549 0.62559 0.0
C59 C 0.66986 0.59822 0.55314 0.0
O60 O 0.5885 0.6374 0.66665 0.0
O61 O 0.61473 0.57081 0.65204 0.0
O62 O 0.66181 0.71126 0.62162 0.0
O63 O 0.60492 0.6801 0.59832 0.0
O64 O 0.70032 0.64751 0.68112 0.0
O65 O 0.74477 0.70199 0.65504 0.0
O66 O 0.74175 0.71462 0.55466 0.0
O67 O 0.79667 0.69966 0.59164 0.0
O68 O 0.71144 0.59804 0.61148 0.0
O69 O 0.77558 0.62048 0.62801 0.0
O70 O 0.70146 0.63084 0.55401 0.0
O71 O 0.64478 0.59118 0.58122 0.0
H72 H 0.50573 0.55654 0.69743 0.0
H73 H 0.43162 0.53481 0.67128 0.0
H74 H 0.47909 0.58245 0.57159 0.0
H75 H 0.55286 0.60333 0.59763 0.0
H76 H 0.8341 0.75081 0.50741 0.0
H77 H 0.86518 0.71099 0.45726 0.0
H78 H 0.8256 0.58007 0.50137 0.0
H79 H 0.79559 0.6202 0.55227 0.0
Sm80 Sm 0.2335 0.89173 0.88193 0.0
Sm81 Sm 0.1811 0.96237 0.85017 0.0
C82 C 0.28094 0.82431 0.91191 0.0
C83 C 0.28932 0.77792 0.89796 0.0
C84 C 0.31031 0.74335 0.91799 0.0
C85 C 0.31893 0.69997 0.9036 0.0
C86 C 0.30663 0.69055 0.86896 0.0
C87 C 0.28479 0.72514 0.84937 0.0
C88 C 0.27659 0.76835 0.86361 0.0
C89 C 0.14745 0.85954 0.85868 0.0
C90 C 0.18986 0.97373 0.93199 0.0
C91 C 0.11203 0.99706 0.81459 0.0
C92 C 0.06278 0.9846 0.81522 0.0
C93 C 1.04724 0.94779 0.79507 0.0
C94 C 1.00117 0.93578 0.79452 0.0
C95 C 0.96852 0.96056 0.81379 0.0
C96 C 0.98459 0.99555 0.83587 0.0
C97 C 1.03126 1.00759 0.83646 0.0
C98 C 0.26608 0.99752 0.86796 0.0
C99 C 0.26125 0.91333 0.80049 0.0
O100 O 0.23844 0.8336 0.91987 0.0
O101 O 0.30002 0.85777 0.89456 0.0
O102 O 0.15502 0.89619 0.87541 0.0
O103 O 0.18657 0.84166 0.85064 0.0
O104 O 0.22459 0.9444 0.92813 0.0
O105 O 0.16097 0.98014 0.90609 0.0
O106 O 0.12894 1.0176 0.84188 0.0
O107 O 0.1395 0.96556 0.80236 0.0
O108 O 0.25784 0.95744 0.85747 0.0
O109 O 0.22896 1.02241 0.86601 0.0
O110 O 0.2241 0.93999 0.80102 0.0
O111 O 0.27325 0.89137 0.82933 0.0
H112 H 0.32048 0.75002 0.94451 0.0
H113 H 0.33606 0.67409 0.91935 0.0
H114 H 0.27412 0.71891 0.82294 0.0
H115 H 0.26073 0.79457 0.84752 0.0
H116 H 0.07045 0.92882 0.77864 0.0
H117 H 0.9913 0.90927 0.77645 0.0
H118 H 0.96079 1.01518 0.85133 0.0
H119 H 1.0424 1.03557 0.85287 0.0
Sm120 Sm 0.97576 0.4778 1.13876 0.0
Sm121 Sm 0.90168 0.43403 1.10949 0.0
C122 C 1.04573 0.51921 1.17006 0.0
C123 C 0.09205 0.52916 1.15672 0.0
C124 C 0.09928 0.53053 1.12079 0.0
C125 C 0.14246 0.54131 1.10755 0.0
C126 C 0.17946 0.55032 1.12995 0.0
C127 C 0.17274 0.54749 1.16593 0.0
C128 C 0.12916 0.53717 1.17925 0.0
C129 C 1.00407 0.39324 1.11089 0.0
C130 C 0.89697 0.43335 1.19073 0.0
C131 C 0.83837 0.38904 1.07481 0.0
C132 C 0.79726 0.40769 1.05703 0.0
C133 C 0.79968 0.42197 1.0224 0.0
C134 C 0.7612 0.44037 1.00585 0.0
C135 C 0.71914 0.44492 1.02347 0.0
C136 C 0.7173 0.43258 1.0586 0.0
C137 C 0.75592 0.414 1.07519 0.0
C138 C 0.87526 0.52206 1.1297 0.0
C139 C 0.9537 0.5091 1.05795 0.0
O140 O 1.03597 0.47587 1.17489 0.0
O141 O 1.01232 0.54138 1.1547 0.0
O142 O 0.96802 0.39939 1.12875 0.0
O143 O 1.02261 0.43286 1.10456 0.0
O144 O 0.92498 0.46889 1.18621 0.0
O145 O 0.89073 0.40556 1.16456 0.0
O146 O 0.87844 0.39886 1.06141 0.0
O147 O 0.83819 0.39246 1.1084 0.0
O148 O 0.91279 0.51084 1.11659 0.0
O149 O 0.84957 0.48597 1.13215 0.0
O150 O 0.92767 0.47164 1.0588 0.0
O151 O 0.97527 0.52096 1.08691 0.0
H152 H 0.07127 0.52388 1.1029 0.0
H153 H 0.14689 0.54311 1.07975 0.0
H154 H 0.20086 0.55452 1.18364 0.0
H155 H 0.12433 0.53595 1.20703 0.0
H156 H 0.83103 0.41798 1.00776 0.0
H157 H 0.76384 0.44795 0.97845 0.0
H158 H 0.68533 0.43496 1.07266 0.0
H159 H 0.75304 0.40379 1.10211 0.0
Sm160 Sm 0.67915 0.96826 1.09384 0.0
Sm161 Sm 0.72956 0.89504 1.0628 0.0
C162 C 0.61413 1.01339 1.12647 0.0
C163 C 0.56467 1.01856 1.12025 0.0
C164 C 0.53943 1.04806 1.1411 0.0
C165 C 0.49167 1.04536 1.14126 0.0
C166 C 0.4684 1.01204 1.12122 0.0
C167 C 0.4937 0.98677 1.097 0.0
C168 C 0.54169 0.99019 1.09644 0.0
C169 C 0.76884 0.99588 1.07993 0.0
C170 C 0.75159 0.91193 1.14649 0.0
C171 C 0.77926 0.83076 1.03209 0.0
C172 C 0.79095 0.78343 1.04335 0.0
C173 C 0.8356 0.7663 1.03907 0.0
C174 C 0.84815 0.7237 1.05357 0.0
C175 C 0.81624 0.69752 1.07263 0.0
C176 C 0.7711 0.71397 1.07554 0.0
C177 C 0.75885 0.75669 1.06153 0.0
C178 C 0.64296 0.86461 1.08423 0.0
C179 C 0.688 0.98047 1.01237 0.0
O180 O 0.64114 1.03303 1.10391 0.0
O181 O 0.62739 0.97185 1.13536 0.0
O182 O 0.75554 0.95711 1.09011 0.0
O183 O 0.73369 1.02345 1.07838 0.0
O184 O 0.7186 0.94339 1.14394 0.0
O185 O 0.76266 0.88795 1.11858 0.0
O186 O 0.73624 0.83883 1.02426 0.0
O187 O 0.79724 0.86339 1.05076 0.0
O188 O 0.65108 0.90242 1.06842 0.0
O189 O 0.68153 0.84424 1.09095 0.0
O190 O 0.72059 0.94849 1.01594 0.0
O191 O 0.66039 0.98844 1.03834 0.0
H192 H 0.55665 0.07068 1.15921 0.0
H193 H 0.4737 0.06571 1.16025 0.0
H194 H 0.47689 0.96146 1.08083 0.0
H195 H 0.56101 0.96821 1.07932 0.0
H196 H 0.86105 0.78637 1.02528 0.0
H197 H 0.88288 0.71141 1.05007 0.0
H198 H 0.7455 0.69449 1.08954 0.0
H199 H 0.72456 0.76938 1.06578 0.0
Sm200 Sm 0.39738 0.4275 0.83845 0.0
Sm201 Sm 0.46968 0.47555 0.81054 0.0
C202 C 0.33788 0.37976 0.87421 0.0
C203 C 0.30039 0.3997 0.89477 0.0
C204 C 0.30643 0.40526 0.93043 0.0
C205 C 0.2744 0.4297 0.9494 0.0
C206 C 0.23524 0.44907 0.93328 0.0
C207 C 0.22865 0.44306 0.89768 0.0
C208 C 0.2611 0.41881 0.8785 0.0
C209 C 0.36663 0.51416 0.81749 0.0
C210 C 0.44449 0.50392 0.8914 0.0
C211 C 0.53818 0.52268 0.78212 0.0
C212 C 0.58267 0.53722 0.79717 0.0
C213 C 0.62179 0.54133 0.77637 0.0
C214 C 0.66437 0.55294 0.79116 0.0
C215 C 0.66851 0.56088 0.82698 0.0
C216 C 0.62914 0.55688 0.84764 0.0
C217 C 0.58681 0.5449 0.83295 0.0
C218 C 0.50081 0.38995 0.83574 0.0
C219 C 0.39289 0.4281 0.75692 0.0
O220 O 0.37975 0.38702 0.88563 0.0
O221 O 0.33409 0.38554 0.84082 0.0
O222 O 0.40452 0.50491 0.83152 0.0
O223 O 0.34295 0.47677 0.81491 0.0
O224 O 0.41893 0.46632 0.88942 0.0
O225 O 0.46729 0.51661 0.86325 0.0
O226 O 0.53279 0.47854 0.77804 0.0
O227 O 0.50167 0.54198 0.79491 0.0
O228 O 0.46439 0.39651 0.81798 0.0
O229 O 0.51738 0.42965 0.84441 0.0
O230 O 0.42245 0.46269 0.76079 0.0
O231 O 0.38423 0.40169 0.78369 0.0
H232 H 0.33626 0.39116 0.94368 0.0
H233 H 0.27965 0.43199 0.9771 0.0
H234 H 0.19817 0.45644 0.8849 0.0
H235 H 0.25551 0.41546 0.85089 0.0
H236 H 0.61947 0.53525 0.74878 0.0
H237 H 0.69404 0.55607 0.77454 0.0
H238 H 0.63112 0.56232 0.87528 0.0
H239 H 0.55732 0.54127 0.84968 0.0
Sm240 Sm 0.93738 0.13364 0.59333 0.0
Sm241 Sm 0.89944 0.21184 0.56315 0.0
C242 C 0.97498 0.06775 0.63124 0.0
C243 C 0.95154 1.03528 0.65442 0.0
C244 C 0.90334 1.03149 0.65321 0.0
C245 C 0.88012 1.00528 0.67802 0.0
C246 C 0.90474 0.9828 0.70426 0.0
C247 C 0.95315 0.98362 0.70368 0.0
C248 C 0.97641 1.00985 0.67897 0.0
C249 C 0.84778 0.11683 0.57035 0.0
C250 C 0.86638 0.19121 0.64411 0.0
C251 C 0.85952 0.28271 0.53143 0.0
C252 C 0.84093 0.32583 0.54574 0.0
C253 C 0.81733 0.32544 0.57739 0.0
C254 C 0.80275 0.36653 0.5923 0.0
C255 C 0.81167 0.40889 0.576 0.0
C256 C 0.83534 0.40936 0.54438 0.0
C257 C 0.84975 0.36811 0.52932 0.0
C258 C 0.98456 0.23537 0.59158 0.0
C259 C 0.94286 0.12925 0.51232 0.0
O260 O 0.97486 0.11086 0.64093 0.0
O261 O 0.9648 0.06288 0.59858 0.0
O262 O 0.8625 0.15194 0.58517 0.0
O263 O 0.88122 0.08792 0.56729 0.0
O264 O 0.89888 0.15945 0.64279 0.0
O265 O 0.85808 0.21616 0.61577 0.0
O266 O 0.90395 0.27791 0.53359 0.0
O267 O 0.83778 0.24494 0.5395 0.0
O268 O 0.97674 0.19871 0.57422 0.0
O269 O 0.94592 0.25542 0.59817 0.0
O270 O 0.91142 0.16239 0.51467 0.0
O271 O 0.96683 0.11867 0.54006 0.0
H272 H 0.88358 1.05048 0.63403 0.0
H273 H 0.84306 1.00437 0.67795 0.0
H274 H 0.97288 0.96707 0.72412 0.0
H275 H 1.01354 1.01211 0.68013 0.0
H276 H 0.81068 0.29341 0.59095 0.0
H277 H 0.78509 0.36525 0.61689 0.0
H278 H 0.84242 0.44163 0.53124 0.0
H279 H 0.8683 0.36925 0.50511 0.0
Sm280 Sm 0.21679 0.67735 0.33983 0.0
Sm281 Sm 0.14358 0.63304 0.309 0.0
C282 C 0.26621 0.71987 0.38602 0.0
C283 C 0.28316 0.69689 0.41776 0.0
C284 C 0.26805 0.71241 0.44992 0.0
C285 C 0.27627 0.68634 0.47969 0.0
C286 C 0.30005 0.64416 0.47809 0.0
C287 C 0.31607 0.62894 0.44604 0.0
C288 C 0.30716 0.65474 0.41603 0.0
C289 C 0.24359 0.58957 0.32065 0.0
C290 C 0.16249 0.60103 0.39017 0.0
C291 C 0.07445 0.59002 0.27805 0.0
C292 C 1.02937 0.57935 0.29346 0.0
C293 C 0.99304 0.5617 0.27358 0.0
C294 C 0.95098 0.55088 0.28929 0.0
C295 C 0.94489 0.55731 0.32511 0.0
C296 C 0.98106 0.57595 0.34465 0.0
C297 C 1.02278 0.58682 0.32899 0.0
C298 C 0.11497 0.71871 0.33455 0.0
C299 C 0.22671 0.67919 0.25901 0.0
O300 O 0.22148 0.72479 0.38446 0.0
O301 O 0.28392 0.70586 0.35687 0.0
O302 O 0.20559 0.601 0.33308 0.0
O303 O 0.2696 0.62564 0.31769 0.0
O304 O 0.19319 0.63444 0.38842 0.0
O305 O 0.13788 0.59221 0.36201 0.0
O306 O 0.08311 0.63359 0.27319 0.0
O307 O 0.10924 0.56848 0.2921 0.0
O308 O 0.15132 0.71122 0.31723 0.0
O309 O 0.09661 0.67939 0.34196 0.0
O310 O 0.19634 0.64493 0.26227 0.0
O311 O 0.23492 0.70524 0.28602 0.0
H312 H 0.24886 0.74423 0.45189 0.0
H313 H 0.26502 0.69999 0.50424 0.0
H314 H 0.33543 0.59721 0.44428 0.0
H315 H 0.31829 0.64113 0.39144 0.0
H316 H 0.99732 0.55587 0.24612 0.0
H317 H 0.92357 0.53652 0.27363 0.0
H318 H 0.9771 0.58205 0.37211 0.0
H319 H 1.05014 0.60072 0.34482 0.0
Sm320 Sm 0.88913 0.72021 0.88566 0.0
Sm321 Sm 0.93654 0.64666 0.85482 0.0
C322 C 0.84563 0.79097 0.91378 0.0
C323 C 0.83583 0.83721 0.89898 0.0
C324 C 0.83124 0.87568 0.92044 0.0
C325 C 0.82257 0.91944 0.90609 0.0
C326 C 0.81799 0.92546 0.87 0.0
C327 C 0.82325 0.88689 0.84863 0.0
C328 C 0.83235 0.84339 0.86291 0.0
C329 C 0.97435 0.74901 0.85959 0.0
C330 C 0.93238 0.63738 0.93725 0.0
C331 C 0.9995 0.59988 0.82127 0.0
C332 C 1.04875 0.59318 0.82728 0.0
C333 C 0.07231 0.56085 0.80772 0.0
C334 C 0.12009 0.55977 0.80857 0.0
C335 C 0.14522 0.59157 0.82869 0.0
C336 C 0.12122 0.621 0.85087 0.0
C337 C 0.07312 0.62154 0.85033 0.0
C338 C 0.84962 0.61719 0.87406 0.0
C339 C 0.85949 0.69843 0.80414 0.0
O340 O 0.88874 0.78171 0.92008 0.0
O341 O 0.82444 0.75655 0.89917 0.0
O342 O 0.96723 0.7127 0.87742 0.0
O343 O 0.93514 0.76773 0.85225 0.0
O344 O 0.90029 0.66995 0.93412 0.0
O345 O 0.95785 0.62743 0.91038 0.0
O346 O 0.97228 0.5809 0.84395 0.0
O347 O 0.98727 0.64178 0.81262 0.0
O348 O 0.85979 0.65627 0.86219 0.0
O349 O 0.88575 0.59104 0.87393 0.0
O350 O 0.89619 0.67136 0.80486 0.0
O351 O 0.84764 0.71969 0.83305 0.0
H352 H 0.8342 0.87188 0.94829 0.0
H353 H 0.81846 0.94842 0.92327 0.0
H354 H 0.82043 0.89035 0.82077 0.0
H355 H 0.83656 0.81449 0.84567 0.0
H356 H 1.05394 0.53841 0.79011 0.0
H357 H 0.1372 0.53699 0.79071 0.0
H358 H 0.13953 0.64584 0.86654 0.0
H359 H 1.05501 0.646 0.86628 0.0
Sm360 Sm 0.1516 0.13523 1.12938 0.0
Sm361 Sm 0.21967 0.18892 1.09689 0.0
C362 C 0.08767 0.0856 1.16127 0.0
C363 C 1.03961 0.07638 1.15091 0.0
C364 C 1.01103 1.04877 1.17145 0.0
C365 C 0.96639 1.03806 1.16014 0.0
C366 C 0.94962 0.05507 1.12821 0.0
C367 C 0.97787 0.08378 1.10827 0.0
C368 C 1.02253 0.09398 1.11937 0.0
C369 C 0.11653 0.22115 1.1083 0.0
C370 C 0.23867 0.17741 1.17807 0.0
C371 C 0.24744 0.25926 1.05915 0.0
C372 C 0.22833 0.30601 1.05619 0.0
C373 C 0.18055 0.31288 1.05594 0.0
C374 C 0.16205 0.35646 1.04974 0.0
C375 C 0.19098 0.39378 1.04212 0.0
C376 C 0.23901 0.38739 1.04553 0.0
C377 C 0.25741 0.34391 1.05257 0.0
C378 C 0.25818 0.10494 1.11378 0.0
C379 C 0.17275 0.10747 1.04751 0.0
O380 O 0.09723 0.12802 1.16948 0.0
O381 O 0.1188 0.06784 1.14127 0.0
O382 O 0.15443 0.2138 1.12381 0.0
O383 O 0.0989 0.18191 1.09999 0.0
O384 O 0.20441 0.14693 1.17608 0.0
O385 O 0.24895 0.20285 1.15093 0.0
O386 O 0.26687 0.24842 1.08869 0.0
O387 O 0.22119 0.22656 1.04704 0.0
O388 O 0.21702 0.11178 1.10469 0.0
O389 O 0.28192 0.14274 1.1104 0.0
O390 O 0.20111 0.14314 1.0488 0.0
O391 O 0.14858 0.09697 1.07553 0.0
H392 H 1.02348 1.03481 1.19585 0.0
H393 H 0.94513 1.01597 1.17609 0.0
H394 H 0.96602 0.09692 1.08345 0.0
H395 H 1.04413 0.1147 1.10281 0.0
H396 H 0.15735 0.2841 1.05891 0.0
H397 H 0.12507 0.36001 1.04781 0.0
H398 H 0.26294 0.41474 1.03956 0.0
H399 H 0.29437 0.33945 1.05312 0.0
Sm400 Sm 0.733 0.3872 0.38609 0.0
Sm401 Sm 0.68694 0.46061 0.35842 0.0
C402 C 0.77624 0.31902 0.41877 0.0
C403 C 0.78337 0.27056 0.40907 0.0
C404 C 0.82555 0.24921 0.41631 0.0
C405 C 0.83564 0.20617 0.40225 0.0
C406 C 0.80386 0.18396 0.38039 0.0
C407 C 0.76069 0.20428 0.37469 0.0
C408 C 0.75059 0.24728 0.38881 0.0
C409 C 0.64928 0.35657 0.35791 0.0
C410 C 0.68573 0.4629 0.43903 0.0
C411 C 0.64083 0.52345 0.32369 0.0
C412 C 0.65961 0.56337 0.3046 0.0
C413 C 0.67464 0.55851 0.27046 0.0
C414 C 0.69439 0.59554 0.25308 0.0
C415 C 0.6999 0.63849 0.2694 0.0
C416 C 0.68637 0.6429 0.30399 0.0
C417 C 0.66618 0.60581 0.32135 0.0
C418 C 0.77346 0.48985 0.38059 0.0
C419 C 0.76363 0.41291 0.30636 0.0
O420 O 0.7343 0.33145 0.426 0.0
O421 O 0.79706 0.34894 0.39911 0.0
O422 O 0.65449 0.39251 0.37613 0.0
O423 O 0.68918 0.33925 0.35143 0.0
O424 O 0.72283 0.43728 0.43394 0.0
O425 O 0.65724 0.46802 0.41294 0.0
O426 O 0.64869 0.48249 0.31099 0.0
O427 O 0.64644 0.52487 0.35715 0.0
O428 O 0.76426 0.45247 0.36613 0.0
O429 O 0.736 0.51312 0.38375 0.0
O430 O 0.72753 0.44053 0.30826 0.0
O431 O 0.77455 0.38781 0.33399 0.0
H432 H 0.85131 0.26655 0.43184 0.0
H433 H 0.86877 0.1907 0.40781 0.0
H434 H 0.73548 0.18783 0.35813 0.0
H435 H 0.71778 0.26301 0.38285 0.0
H436 H 0.67051 0.52629 0.25686 0.0
H437 H 0.70274 0.591 0.22604 0.0
H438 H 0.68943 0.67563 0.31706 0.0
H439 H 0.65525 0.61058 0.34783 0.0
Sm440 Sm 0.47329 0.97253 0.63067 0.0
Sm441 Sm 0.40374 0.92045 0.59977 0.0
C442 C 0.53795 1.02284 0.66074 0.0
C443 C 0.58304 1.03584 0.64665 0.0
C444 C 0.61161 0.06717 0.66382 0.0
C445 C 0.65347 0.08043 0.64903 0.0
C446 C 0.66741 0.06215 0.61707 0.0
C447 C 0.63888 1.03049 0.60024 0.0
C448 C 0.59691 1.0179 0.6147 0.0
C449 C 0.50717 0.88719 0.60911 0.0
C450 C 0.38955 0.92936 0.68109 0.0
C451 C 0.36475 0.8529 0.56562 0.0
C452 C 0.35814 0.8039 0.57376 0.0
C453 C 0.39456 0.77613 0.5857 0.0
C454 C 0.38817 0.72888 0.59081 0.0
C455 C 0.34548 0.70845 0.58325 0.0
C456 C 0.30821 0.7376 0.57437 0.0
C457 C 0.31459 0.78465 0.56964 0.0
C458 C 0.36978 1.00683 0.61486 0.0
C459 C 0.45383 0.99804 0.54812 0.0
O460 O 0.53232 0.97909 0.66728 0.0
O461 O 0.50275 1.04066 0.64448 0.0
O462 O 0.47009 0.89367 0.62577 0.0
O463 O 0.52365 0.92667 0.60003 0.0
O464 O 0.42176 0.9617 0.67783 0.0
O465 O 0.38055 0.90237 0.65478 0.0
O466 O 0.34136 0.88156 0.58453 0.0
O467 O 0.40697 0.86637 0.55982 0.0
O468 O 0.40948 0.99758 0.60437 0.0
O469 O 0.34514 0.96955 0.61601 0.0
O470 O 0.42428 0.96334 0.55016 0.0
O471 O 0.47766 1.00921 0.57621 0.0
H472 H 0.6014 0.08165 0.68836 0.0
H473 H 0.67497 0.10489 0.66259 0.0
H474 H 0.64858 1.01627 0.57548 0.0
H475 H 0.57499 0.99459 0.60058 0.0
H476 H 0.42844 0.79052 0.5895 0.0
H477 H 0.41752 0.70786 0.59794 0.0
H478 H 0.27468 0.7241 0.56781 0.0
H479 H 0.28586 0.80566 0.56108 0.0
Sm480 Sm 0.1901 0.45727 0.58858 0.0
Sm481 Sm 0.23426 0.38757 0.55596 0.0
C482 C 0.14932 0.51306 0.63221 0.0
C483 C 0.17152 0.539 0.66022 0.0
C484 C 0.21817 0.53141 0.66812 0.0
C485 C 0.23895 0.55307 0.69635 0.0
C486 C 0.21349 0.58331 0.7168 0.0
C487 C 0.16741 0.5928 0.70749 0.0
C488 C 0.14663 0.57079 0.67944 0.0
C489 C 0.27587 0.48845 0.56654 0.0
C490 C 0.26806 0.40325 0.6359 0.0
C491 C 0.27585 0.31961 0.52322 0.0
C492 C 0.2895 0.27399 0.53714 0.0
C493 C 0.30902 0.27014 0.57046 0.0
C494 C 0.31907 0.22703 0.58479 0.0
C495 C 0.3093 0.18666 0.56642 0.0
C496 C 0.28962 0.19037 0.53313 0.0
C497 C 0.27982 0.2337 0.51861 0.0
C498 C 0.15289 0.35381 0.58529 0.0
C499 C 0.18335 0.46778 0.50743 0.0
O500 O 0.1491 0.46833 0.63617 0.0
O501 O 0.16108 0.52575 0.60111 0.0
O502 O 0.26715 0.44973 0.57939 0.0
O503 O 0.23833 0.51197 0.5648 0.0
O504 O 0.22833 0.42505 0.63691 0.0
O505 O 0.28134 0.38726 0.60561 0.0
O506 O 0.2318 0.32697 0.52073 0.0
O507 O 0.29773 0.35503 0.53571 0.0
O508 O 0.15622 0.39127 0.568 0.0
O509 O 0.19368 0.33776 0.59121 0.0
O510 O 0.2196 0.44016 0.50996 0.0
O511 O 0.15751 0.47269 0.53499 0.0
H512 H 0.23822 0.50759 0.65312 0.0
H513 H 0.27415 0.54461 0.70315 0.0
H514 H 0.14631 0.61489 0.72333 0.0
H515 H 0.11076 0.57733 0.67358 0.0
H516 H 0.31614 0.30047 0.58571 0.0
H517 H 0.33413 0.2252 0.61049 0.0
H518 H 0.28235 0.15982 0.51817 0.0
H519 H 0.26434 0.23577 0.49306 0.0
Sm520 Sm 0.89864 0.92352 0.34541 0.0
Sm521 Sm 0.96559 0.97285 0.30953 0.0
C522 C 0.85385 0.85828 0.37887 0.0
C523 C 0.8472 0.80933 0.3721 0.0
C524 C 0.87657 0.78534 0.34981 0.0
C525 C 0.87359 0.73741 0.34735 0.0
C526 C 0.84122 0.71308 0.3672 0.0
C527 C 0.80922 0.73835 0.38687 0.0
C528 C 0.81232 0.78592 0.38928 0.0
C529 C 0.86349 1.00893 0.3265 0.0
C530 C 0.9503 0.99937 0.39374 0.0
C531 C 1.03494 1.02344 0.28587 0.0
C532 C 0.07694 1.04135 0.30213 0.0
C533 C 0.10249 0.07551 0.28541 0.0
C534 C 0.14545 0.0883 0.2985 0.0
C535 C 0.16384 0.0666 0.32825 0.0
C536 C 0.13698 1.03403 0.34593 0.0
C537 C 0.09383 1.02153 0.33299 0.0
C538 C 0.98985 0.8798 0.31813 0.0
C539 C 0.88537 0.9294 0.26281 0.0
O540 O 0.83397 0.88625 0.35697 0.0
O541 O 0.89566 0.87069 0.38696 0.0
O542 O 0.90369 1.00027 0.33645 0.0
O543 O 0.83927 0.97155 0.3275 0.0
O544 O 0.91714 0.96825 0.39321 0.0
O545 O 0.9756 1.00576 0.36544 0.0
O546 O 1.03304 0.97892 0.2838 0.0
O547 O 0.99609 1.04114 0.29556 0.0
O548 O 0.97534 0.90652 0.34141 0.0
O549 O 0.98646 0.90068 0.28856 0.0
O550 O 0.90952 0.96768 0.26628 0.0
O551 O 0.88681 0.89912 0.28851 0.0
H552 H 0.90329 0.80339 0.33582 0.0
H553 H 0.89875 0.71916 0.33211 0.0
H554 H 0.78436 0.72143 0.40331 0.0
H555 H 0.7891 0.80411 0.40621 0.0
H556 H 0.0899 0.09126 0.26166 0.0
H557 H 0.1648 0.1143 0.28474 0.0
H558 H 0.15014 1.01679 0.36889 0.0
H559 H 0.07441 0.99506 0.34631 0.0
Sm560 Sm 0.44023 0.6515 1.09291 0.0
Sm561 Sm 0.3849 0.72011 1.05989 0.0
C562 C 0.51189 0.62383 1.12967 0.0
C563 C 0.55599 0.647 1.13639 0.0
C564 C 0.55775 0.69504 1.14007 0.0
C565 C 0.59839 0.71671 1.15024 0.0
C566 C 0.63762 0.69049 1.15824 0.0
C567 C 0.63673 0.64278 1.15139 0.0
C568 C 0.59625 0.62131 1.14048 0.0
C569 C 0.35576 0.6133 1.07897 0.0
C570 C 0.35905 0.69919 1.14245 0.0
C571 C 0.33629 0.78681 1.03024 0.0
C572 C 0.32812 0.83362 1.04387 0.0
C573 C 0.33276 0.84185 1.07958 0.0
C574 C 0.32575 0.88586 1.09299 0.0
C575 C 0.31423 0.92278 1.07096 0.0
C576 C 0.31072 0.91488 1.0351 0.0
C577 C 0.3175 0.8706 1.02166 0.0
C578 C 0.46987 0.75496 1.08188 0.0
C579 C 0.42503 0.63211 1.01139 0.0
O580 O 0.50458 0.61022 1.09798 0.0
O581 O 0.47595 0.64335 1.14331 0.0
O582 O 0.36343 0.65477 1.08637 0.0
O583 O 0.39355 0.58928 1.08154 0.0
O584 O 0.39534 0.67143 1.1415 0.0
O585 O 0.34716 0.72195 1.11382 0.0
O586 O 0.37856 0.77768 1.02156 0.0
O587 O 0.31768 0.75317 1.04779 0.0
O588 O 0.46301 0.71759 1.06597 0.0
O589 O 0.43057 0.77252 1.08981 0.0
O590 O 0.39559 0.66737 1.01326 0.0
O591 O 0.45021 0.62077 1.03865 0.0
H592 H 0.52707 0.71566 1.13675 0.0
H593 H 0.59788 0.75341 1.15498 0.0
H594 H 0.66583 0.62102 1.15773 0.0
H595 H 0.59572 0.5843 1.13736 0.0
H596 H 0.34172 0.81413 1.09724 0.0
H597 H 0.32928 0.89107 1.12063 0.0
H598 H 0.30175 0.94278 1.01757 0.0
H599 H 0.31428 0.86522 0.99403 0.0
Sm600 Sm 0.71708 0.18935 0.84353 0.0
Sm601 Sm 0.65081 0.13311 0.80805 0.0
C602 C 0.74876 0.26341 0.87425 0.0
C603 C 0.72307 0.30082 0.8902 0.0
C604 C 0.67621 0.29528 0.89757 0.0
C605 C 0.65075 0.33187 0.9107 0.0
C606 C 0.67201 0.37435 0.91735 0.0
C607 C 0.71884 0.37982 0.90877 0.0
C608 C 0.74393 0.3435 0.89506 0.0
C609 C 0.7588 0.10736 0.82493 0.0
C610 C 0.6724 0.10995 0.89264 0.0
C611 C 0.58482 0.0749 0.78862 0.0
C612 C 0.53588 0.07011 0.7974 0.0
C613 C 0.51269 1.02931 0.78935 0.0
C614 C 0.46855 1.02125 0.80213 0.0
C615 C 0.44689 0.05374 0.82336 0.0
C616 C 0.46931 0.09558 0.83008 0.0
C617 C 0.51366 0.10359 0.81738 0.0
C618 C 0.61956 0.22442 0.8174 0.0
C619 C 0.733 0.17481 0.76053 0.0
O620 O 0.7428 0.26081 0.8408 0.0
O621 O 0.74689 0.22333 0.88988 0.0
O622 O 0.71753 0.11314 0.83321 0.0
O623 O 0.78117 0.14565 0.82952 0.0
O624 O 0.6991 0.14681 0.89274 0.0
O625 O 0.64976 0.09862 0.86386 0.0
O626 O 0.59685 0.11063 0.77026 0.0
O627 O 0.61303 0.06728 0.8142 0.0
O628 O 0.63942 0.19913 0.83979 0.0
O629 O 0.61599 0.20131 0.78918 0.0
O630 O 0.70605 0.13831 0.76443 0.0
O631 O 0.73474 0.2054 0.78569 0.0
H632 H 0.6593 0.26265 0.89308 0.0
H633 H 0.61495 0.32639 0.91699 0.0
H634 H 0.7372 0.41126 0.91452 0.0
H635 H 0.77986 0.34848 0.88891 0.0
H636 H 0.52931 1.003 0.77414 0.0
H637 H 0.45162 0.98915 0.796 0.0
H638 H 0.45332 0.12122 0.84627 0.0
H639 H 0.53125 0.13515 0.82416 0.0
C640 C 0.5675 0.25128 0.35226 0.0
C641 C 0.52307 0.27037 0.35461 0.0
C642 C 0.60761 0.27927 0.35261 0.0
C643 C 0.60564 0.32779 0.3563 0.0
H644 H 0.57134 0.21441 0.3496 0.0
H645 H 0.64064 0.26245 0.35041 0.0
S646 S 0.49821 0.39538 0.36472 0.0
N647 N 0.48021 0.34174 0.36107 0.0
N648 N 0.55483 0.39311 0.36291 0.0
C649 C 0.56153 0.34715 0.35919 0.0
C650 C 0.5207 0.31891 0.35804 0.0
C651 C 0.60892 0.80424 0.5917 0.0
C652 C 0.59596 0.76231 0.60736 0.0
C653 C 0.57986 0.84362 0.59217 0.0
C654 C 0.53644 0.84359 0.60874 0.0
H655 H 0.64139 0.80644 0.57826 0.0
H656 H 0.59172 0.87458 0.57929 0.0
S657 S 0.48779 0.74357 0.65633 0.0
N658 N 0.53686 0.72396 0.64105 0.0
N659 N 0.48411 0.79774 0.64336 0.0
C660 C 0.52378 0.80218 0.62535 0.0
C661 C 0.5529 0.76185 0.62427 0.0
C662 C 0.10185 0.78531 0.84886 0.0
C663 C 0.10265 0.8323 0.85858 0.0
C664 C 0.06102 0.7584 0.84976 0.0
C665 C 1.0185 0.7771 0.85993 0.0
H666 H 0.1333 0.76885 0.84067 0.0
H667 H 0.06269 0.72288 0.84171 0.0
S668 S 1.001 0.89762 0.88881 0.0
N669 N 1.0563 0.89551 0.8796 0.0
N670 N 0.9803 0.84597 0.88041 0.0
C671 C 1.01873 0.82404 0.86948 0.0
C672 C 0.06037 0.85121 0.86909 0.0
C673 C 1.04186 0.26634 1.09863 0.0
C674 C 0.08848 0.26552 1.10958 0.0
C675 C 1.01452 0.30692 1.09982 0.0
C676 C 1.03258 0.34931 1.11119 0.0
H677 H 1.02605 0.23512 1.08913 0.0
H678 H 0.97914 0.30523 1.09107 0.0
S679 S 0.15172 0.36657 1.1441 0.0
N680 N 0.15014 0.3114 1.13415 0.0
N681 N 0.10032 0.38728 1.13445 0.0
C682 C 0.07903 0.349 1.12229 0.0
C683 C 0.1064 0.30744 1.12206 0.0
C684 C 0.55594 0.85589 1.09214 0.0
C685 C 0.59849 0.83729 1.08198 0.0
C686 C 0.51502 0.82917 1.09203 0.0
C687 C 0.51425 0.78256 1.08164 0.0
H688 H 0.55439 0.89092 1.10114 0.0
H689 H 0.48345 0.84537 1.1001 0.0
S690 S 0.61577 0.71752 1.05102 0.0
N691 N 0.63645 0.76889 1.06033 0.0
N692 N 0.56031 0.7199 1.0595 0.0
C693 C 0.55636 0.7639 1.07068 0.0
C694 C 0.59803 0.79083 1.0712 0.0
C695 C 0.54166 0.26296 0.82748 0.0
C696 C 0.59003 0.26634 0.82472 0.0
C697 C 0.51312 0.30245 0.83129 0.0
C698 C 0.53144 0.34748 0.83283 0.0
H699 H 0.52558 0.22941 0.82621 0.0
H700 H 0.47631 0.29763 0.83298 0.0
S701 S 0.65537 0.37596 0.82258 0.0
N702 N 0.65403 0.31923 0.82041 0.0
N703 N 0.60182 0.39238 0.82906 0.0
C704 C 0.57982 0.35115 0.82976 0.0
C705 C 0.60857 0.31108 0.82524 0.0
C706 C 0.06573 0.34148 0.5889 0.0
C707 C 0.11039 0.323 0.58682 0.0
C708 C 1.02613 0.31294 0.59093 0.0
C709 C 1.02853 0.2641 0.59007 0.0
H710 H 0.06125 0.37846 0.58944 0.0
H711 H 0.993 0.32967 0.59274 0.0
S712 S 0.13689 0.19756 0.58344 0.0
N713 N 0.15417 0.25171 0.58369 0.0
N714 N 0.08028 0.19908 0.58618 0.0
C715 C 0.0729 0.24517 0.5874 0.0
C716 C 0.11341 0.27418 0.58615 0.0
C717 C 0.09084 0.80163 0.34857 0.0
C718 C 0.08425 0.76063 0.32968 0.0
C719 C 0.05962 0.83936 0.34585 0.0
C720 C 1.0207 0.83822 0.32367 0.0
H721 H 0.12002 0.80438 0.36598 0.0
H722 H 0.06659 0.87006 0.36072 0.0
S723 S 0.9866 0.7389 0.26942 0.0
N724 N 1.03411 0.72129 0.28905 0.0
N725 N 0.97757 0.79192 0.28293 0.0
C726 C 1.01395 0.79754 0.30471 0.0
C727 C 1.04495 0.75897 0.30803 0.0
C728 C 0.37934 1.02346 1.18268 0.0
C729 C 0.39423 0.98529 1.20236 0.0
C730 C 0.39338 1.02825 1.14816 0.0
C731 C 0.42311 0.99528 1.13385 0.0
H732 H 0.36588 0.05356 1.19557 0.0
H733 H 0.39032 0.06192 1.13614 0.0
S734 S 0.44104 0.87716 1.16783 0.0
N735 N 0.41745 0.90541 1.20012 0.0
N736 N 0.44321 0.91394 1.13506 0.0
C737 C 0.42293 0.95127 1.14932 0.0
C738 C 0.40893 0.94649 1.18437 0.0
C739 C 0.89421 0.63216 0.42333 0.0
C740 C 0.85351 0.62187 0.44115 0.0
C741 C 0.89174 0.65268 0.39043 0.0
C742 C 0.84845 0.66366 0.37599 0.0
H743 H 0.92654 0.63367 0.43734 0.0
H744 H 0.92263 0.66877 0.38062 0.0
S745 S 0.73685 0.61621 0.4033 0.0
N746 N 0.77269 0.60287 0.43515 0.0
N747 N 0.76835 0.64103 0.37306 0.0
C748 C 0.81064 0.63834 0.38805 0.0
C749 C 0.81303 0.61761 0.4215 0.0
C750 C 0.89811 1.00007 0.79437 0.0
C751 C 0.91905 0.95786 0.80337 0.0
C752 C 0.87956 1.00616 0.76112 0.0
C753 C 0.88233 0.9702 0.73707 0.0
H754 H 0.9047 1.03075 0.80933 0.0
H755 H 0.87285 1.04102 0.75226 0.0
S756 S 0.8995 0.8474 0.75898 0.0
N757 N 0.91365 0.8752 0.7947 0.0
N758 N 0.88351 0.8872 0.73053 0.0
C759 C 0.88784 0.92549 0.7502 0.0
C760 C 0.90426 0.91913 0.78468 0.0
C761 C 0.64663 0.41175 1.00355 0.0
C762 C 0.67635 0.4499 1.00274 0.0
C763 C 0.63379 0.39061 0.97256 0.0
C764 C 0.65022 0.4081 0.94086 0.0
H765 H 0.6418 0.39237 1.02732 0.0
H766 H 0.61956 0.35626 0.97428 0.0
S767 S 0.69892 0.52413 0.92692 0.0
N768 N 0.69925 0.51696 0.96937 0.0
N769 N 0.67467 0.47752 0.91066 0.0
C770 C 0.66473 0.45424 0.94029 0.0
C771 C 0.67779 0.4756 0.97189 0.0
C772 C 0.15976 0.43733 0.95836 0.0
C773 C 0.19803 0.46642 0.95551 0.0
C774 C 0.14721 0.42048 0.99098 0.0
C775 C 0.17331 0.43271 1.02049 0.0
H776 H 0.14655 0.41973 0.93574 0.0
H777 H 0.12432 0.39114 0.99153 0.0
S778 S 0.25189 0.53211 1.02593 0.0
N779 N 0.24258 0.52539 0.98411 0.0
N780 N 0.2198 0.49337 1.04588 0.0
C781 C 0.1988 0.47369 1.01823 0.0
C782 C 0.21089 0.49116 0.98501 0.0
C783 C 0.37627 0.64315 0.55071 0.0
C784 C 0.34279 0.65867 0.57419 0.0
C785 C 0.36233 0.6256 0.51864 0.0
C786 C 0.31524 0.62221 0.51086 0.0
H787 H 0.41174 0.65384 0.55322 0.0
H788 H 0.38753 0.62404 0.49817 0.0
S789 S 0.22102 0.62335 0.57446 0.0
N790 N 0.26624 0.64283 0.59593 0.0
N791 N 0.23939 0.61072 0.53524 0.0
C792 C 0.2847 0.62089 0.5388 0.0
C793 C 0.29912 0.6384 0.57139 0.0
C794 C 0.23805 0.56063 0.77567 0.0
C795 C 0.22993 0.59656 0.75174 0.0
C796 C 0.2206 0.56364 0.80934 0.0
C797 C 0.1932 0.60162 0.81831 0.0
H798 H 0.24973 0.52732 0.76688 0.0
H799 H 0.21912 0.5324 0.82478 0.0
S800 S 0.1904 0.71386 0.77262 0.0
N801 N 0.215 0.67831 0.74516 0.0
N802 N 0.18096 0.68339 0.80813 0.0
C803 C 0.19935 0.64229 0.79899 0.0
C804 C 0.21754 0.63958 0.76499 0.0
C805 C 0.6722 0.71225 0.24635 0.0
C806 C 0.70798 0.67978 0.24749 0.0
C807 C 0.65428 0.72661 1.21437 0.0
C808 C 0.67198 0.70829 1.18348 0.0
H809 H 0.65198 0.71908 0.26918 0.0
H810 H 0.62141 0.74405 1.21454 0.0
S811 S 0.78424 0.64995 1.1752 0.0
N812 N 0.77479 0.65124 1.21728 0.0
N813 N 0.74031 0.67674 1.15669 0.0
C814 C 0.71629 0.68916 1.1851 0.0
C815 C 0.7349 0.67542 1.21772 0.0
C816 C 0.32636 0.49386 0.34664 0.0
C817 C 0.29621 0.45846 0.35689 0.0
C818 C 0.30955 0.53559 0.33283 0.0
C819 C 0.26206 0.54296 0.32835 0.0
H820 H 0.36305 0.48985 0.35042 0.0
H821 H 0.33377 0.56278 0.32694 0.0
S822 S 0.16947 0.45851 0.347 0.0
N823 N 0.21721 0.43197 0.35895 0.0
N824 N 0.18566 0.50936 0.33224 0.0
C825 C 0.23194 0.50661 0.33666 0.0
C826 C 0.24897 0.46469 0.3512 0.0
C827 C 0.36373 0.55461 0.61844 0.0
C828 C 0.40554 0.54192 0.60319 0.0
C829 C 0.32163 0.53944 0.60488 0.0
C830 C 0.31968 0.5108 0.57575 0.0
H831 H 0.36354 0.57619 0.64119 0.0
H832 H 0.2904 0.54923 0.6179 0.0
S833 S 0.41879 0.46693 0.52647 0.0
N834 N 0.44215 0.49892 0.55708 0.0
N835 N 0.36268 0.4699 0.5322 0.0
C836 C 0.36094 0.49817 0.56001 0.0
C837 C 0.40393 0.51404 0.57348 0.0
C838 C 0.30873 0.60415 0.87168 0.0
C839 C 0.31742 0.64512 0.85317 0.0
C840 C 0.32186 0.56124 0.85858 0.0
C841 C 0.34414 0.55773 0.82652 0.0
H842 H 0.29247 0.6053 0.8968 0.0
H843 H 0.3164 0.53075 0.87435 0.0
S844 S 0.3734 0.65348 0.76714 0.0
N845 N 0.34856 0.67874 0.80031 0.0
N846 N 0.37309 0.59782 0.77607 0.0
C847 C 0.35171 0.59787 0.80722 0.0
C848 C 0.33821 0.64164 0.82038 0.0
C849 C 0.26417 0.53898 1.12116 0.0
C850 C 0.22415 0.5652 1.11553 0.0
C851 C 0.30658 0.55291 1.10727 0.0
C852 C 0.31031 0.59388 1.08776 0.0
H853 H 0.26264 0.50757 1.13638 0.0
H854 H 0.33681 0.53242 1.11297 0.0
S855 S 0.21549 0.67441 1.06583 0.0
N856 N 0.19075 0.63345 1.08895 0.0
N857 N 0.27023 0.66 1.06339 0.0
C858 C 0.27036 0.62003 1.08187 0.0
C859 C 0.22734 0.60562 1.09561 0.0
C860 C 0.81507 0.57201 1.1022 0.0
C861 C 0.8563 0.56794 1.1212 0.0
C862 C 0.80214 0.61409 1.08686 0.0
C863 C 0.82992 0.65359 1.08999 0.0
H864 H 0.79386 0.54201 1.09759 0.0
H865 H 0.77085 0.61533 1.07154 0.0
S866 S 0.93791 0.66197 1.14122 0.0
N867 N 0.92283 0.60737 1.14468 0.0
N868 N 0.89799 0.68675 1.11688 0.0
C869 C 0.87007 0.65031 1.11038 0.0
C870 C 0.8833 0.60745 1.12576 0.0
C871 C 0.75312 0.54668 0.83498 0.0
C872 C 0.71388 0.57301 0.84261 0.0
C873 C 0.79678 0.55908 0.84757 0.0
C874 C 0.80293 0.59869 0.86783 0.0
H875 H 0.75015 0.51664 0.81868 0.0
H876 H 0.82619 0.53886 0.83983 0.0
S877 S 0.71141 0.67767 0.8971 0.0
N878 N 0.68393 0.63892 0.87371 0.0
N879 N 0.76614 0.66276 0.89641 0.0
C880 C 0.76391 0.62431 0.87666 0.0
C881 C 0.71937 0.61133 0.86436 0.0
C882 C 0.82695 0.4888 0.59759 0.0
C883 C 0.79588 0.45248 0.59186 0.0
C884 C 0.81212 0.53097 0.61117 0.0
C885 C 0.76558 0.5384 0.61912 0.0
H886 H 0.86285 0.48478 0.59105 0.0
H887 H 0.83689 0.55855 0.61382 0.0
S888 S 0.67079 0.45402 0.60928 0.0
N889 N 0.71679 0.42643 0.5957 0.0
N890 N 0.68895 0.50535 0.62125 0.0
C891 C 0.73456 0.5018 0.61447 0.0
C892 C 0.74966 0.45896 0.60079 0.0
C893 C 0.81733 0.54381 0.34323 0.0
C894 C 0.81675 0.513 0.37148 0.0
C895 C 0.8589 0.55879 0.32882 0.0
C896 C 0.90133 0.54359 0.34224 0.0
H897 H 0.78538 0.55491 0.33126 0.0
H898 H 0.85785 0.58191 0.30671 0.0
S899 S 0.91798 0.46366 0.41667 0.0
N900 N 0.86163 0.46838 0.41269 0.0
N901 N 0.94001 0.49691 0.38613 0.0
C902 C 0.90108 0.51396 0.37127 0.0
C903 C 0.8587 0.49842 0.38567 0.0
C904 C 0.83048 1.01127 0.86494 0.0
C905 C 0.80623 0.97151 0.85482 0.0
C906 C 0.81766 0.05531 0.85277 0.0
C907 C 0.77968 0.06124 0.83042 0.0
H908 H 0.85917 1.00838 0.88283 0.0
H909 H 0.83603 0.085 0.86247 0.0
S910 S 0.70549 0.96873 0.79541 0.0
N911 N 0.74324 0.94133 0.82011 0.0
N912 N 0.71912 1.02377 0.79772 0.0
C913 C 0.75624 1.02175 0.81922 0.0
C914 C 0.76946 0.97702 0.83128 0.0
C915 C 0.82728 0.05839 1.09155 0.0
C916 C 0.8165 1.01138 1.08811 0.0
C917 C 0.87056 0.07254 1.1042 0.0
C918 C 0.90418 1.04017 1.11441 0.0
H919 H 0.80179 0.08436 1.08533 0.0
H920 H 0.87736 0.10899 1.10684 0.0
S921 S 0.89511 0.91342 1.10745 0.0
N922 N 0.84515 0.93286 1.09321 0.0
N923 N 0.92507 0.95951 1.11794 0.0
C924 C 0.89436 0.99335 1.1101 0.0
C925 C 0.85096 0.97898 1.09665 0.0
C926 C 0.80109 0.05961 0.34963 0.0
C927 C 0.84398 0.05493 0.33342 0.0
C928 C 0.78754 0.10186 0.36391 0.0
C929 C 0.81652 0.14064 0.36256 0.0
H930 H 0.77903 1.02995 0.3531 0.0
H931 H 0.75511 0.10362 0.37744 0.0
S932 S 0.92891 0.14784 0.31816 0.0
N933 N 0.91281 0.09376 0.31349 0.0
N934 N 0.88739 0.17291 0.34 0.0
C935 C 0.85805 0.13699 0.34445 0.0
C936 C 0.87169 0.09423 0.32991 0.0
C937 C 0.78734 0.05609 0.57864 0.0
C938 C 0.79931 0.1028 0.57526 0.0
C939 C 0.74393 1.04308 0.59111 0.0
C940 C 0.7114 0.07633 0.60101 0.0
H941 H 0.81236 1.02949 0.5734 0.0
H942 H 0.73657 1.00681 0.59459 0.0
S943 S 0.72366 0.2028 0.59277 0.0
N944 N 0.77308 0.18209 0.57914 0.0
N945 N 0.69235 0.15753 0.6033 0.0
C946 C 0.72203 0.12291 0.5959 0.0
C947 C 0.76572 0.13613 0.58273 0.0
C948 C 0.36686 0.13395 0.59403 0.0
C949 C 0.32195 0.14113 0.58155 0.0
C950 C 0.38085 0.0909 0.60674 0.0
C951 C 0.35048 1.05323 0.60778 0.0
H952 H 0.39194 0.16145 0.59288 0.0
H953 H 0.41638 0.08667 0.61472 0.0
S954 S 0.22791 0.05506 0.58074 0.0
N955 N 0.24616 0.10793 0.57297 0.0
N956 N 0.27245 1.02674 0.5969 0.0
C957 C 0.30481 0.0604 0.59679 0.0
C958 C 0.29063 0.10435 0.58354 0.0
C959 C 0.22248 0.08425 0.37468 0.0
C960 C 0.21185 0.07592 0.33958 0.0
C961 C 0.26762 0.09471 0.3853 0.0
C962 C 0.30344 0.09662 0.36121 0.0
H963 H 0.19552 0.08404 0.39386 0.0
H964 H 0.27425 0.10272 0.41223 0.0
S965 S 0.29447 0.07457 0.26692 0.0
N966 N 0.24177 0.06738 0.28136 0.0
N967 N 0.32576 0.08829 0.30112 0.0
C968 C 0.29347 0.08718 0.32634 0.0
C969 C 0.24789 0.07647 0.31557 0.0
C970 C 0.31457 1.05262 1.08492 0.0
C971 C 0.27842 0.05879 1.10848 0.0
C972 C 0.32679 1.00844 1.07343 0.0
C973 C 0.3038 0.96892 1.08552 0.0
H974 H 0.33182 0.08221 1.07383 0.0
H975 H 0.35378 1.00523 1.05443 0.0
S976 S 0.20889 0.9666 1.1491 0.0
N977 N 0.22127 1.02176 1.14455 0.0
N978 N 0.24478 0.93888 1.1237 0.0
C979 C 0.2692 0.97461 1.11036 0.0
C980 C 0.25637 1.0195 1.12161 0.0
C981 C 0.36363 0.07188 0.8345 0.0
C982 C 0.40184 1.04276 0.83941 0.0
C983 C 0.31973 0.05899 0.84626 0.0
C984 C 0.31283 1.01667 0.86344 0.0
H985 H 0.36727 0.10372 0.82003 0.0
H986 H 0.29075 0.08098 0.84005 0.0
S987 S 0.403 0.93227 0.88803 0.0
N988 N 0.4308 0.97273 0.86645 0.0
N989 N 0.34869 0.94864 0.8884 0.0
C990 C 0.35135 0.98903 0.87059 0.0
C991 C 0.39576 1.00198 0.85859 0.0
C992 C 0.34862 0.18231 0.23443 0.0
C993 C 0.33292 0.19284 0.26796 0.0
C994 C 0.31795 0.17738 1.20595 0.0
C995 C 0.26973 0.18087 1.20961 0.0
H996 H 0.38506 0.17795 0.23004 0.0
H997 H 0.33221 0.17005 1.18076 0.0
S998 S 0.20992 0.20637 0.29173 0.0
N999 N 0.26485 0.20623 0.30274 0.0
N1000 N 0.20799 0.19515 0.24987 0.0
C1001 C 0.25343 0.19062 0.24298 0.0
C1002 C 0.28469 0.19707 0.27183 0.0
C1003 C 0.71933 0.51385 0.48622 0.0
C1004 C 0.6805 0.49362 0.47043 0.0
C1005 C 0.71513 0.54757 0.51235 0.0
C1006 C 0.67201 0.56253 0.52469 0.0
H1007 H 0.75341 0.50473 0.47752 0.0
H1008 H 0.74626 0.56173 0.52335 0.0
S1009 S 0.55934 0.5184 0.49416 0.0
N1010 N 0.59701 0.4905 0.47029 0.0
N1011 N 0.5896 0.55191 0.52012 0.0
C1012 C 0.63294 0.54133 0.51016 0.0
C1013 C 0.63709 0.50772 0.48288 0.0
C1014 C 0.27957 0.92919 0.73664 0.0
C1015 C 0.29449 0.91568 0.77009 0.0
C1016 C 0.31048 0.93364 0.70849 0.0
C1017 C 0.35834 0.92648 0.71236 0.0
H1018 H 0.24347 0.93606 0.73201 0.0
H1019 H 0.29671 0.94324 0.68334 0.0
S1020 S 0.41628 0.89078 0.79399 0.0
N1021 N 0.36159 0.89469 0.80476 0.0
N1022 N 0.41889 0.90479 0.75252 0.0
C1023 C 0.37392 0.9135 0.74558 0.0
C1024 C 0.34237 0.90772 0.7741 0.0
C1025 C 0.92865 0.55857 0.96611 0.0
C1026 C 0.93653 0.60644 0.96904 0.0
C1027 C 0.93465 0.52766 0.99447 0.0
C1028 C 0.95049 0.54249 1.02722 0.0
H1029 H 0.9173 0.54475 0.94153 0.0
H1030 H 0.92698 0.4916 0.99053 0.0
S1031 S 0.97829 0.66424 1.04851 0.0
N1032 N 0.9616 0.6669 1.00758 0.0
N1033 N 0.97447 0.60957 1.06017 0.0
C1034 C 0.9592 0.59037 1.03029 0.0
C1035 C 0.95189 0.62197 1.00156 0.0
C1036 C 0.83169 0.96179 1.21658 0.0
C1037 C 0.85252 0.9231 0.23248 0.0
C1038 C 0.79839 0.95738 1.18991 0.0
C1039 C 0.78472 0.91411 1.1769 0.0
H1040 H 0.84049 0.99602 0.22529 0.0
H1041 H 0.78389 0.98854 1.1788 0.0
S1042 S 0.82989 0.8016 1.20798 0.0
N1043 N 0.85681 0.83953 0.23255 0.0
N1044 N 0.79641 0.83162 1.18147 0.0
C1045 C 0.80607 0.87511 1.19186 0.0
C1046 C 0.83912 0.8795 1.21983 0.0
C1047 C 0.45073 0.61342 0.94934 0.0
C1048 C 0.42728 0.60083 0.9799 0.0
C1049 C 0.45709 0.58199 0.92152 0.0
C1050 C 0.44028 0.53612 0.92259 0.0
H1051 H 0.46507 0.64768 0.94709 0.0
H1052 H 0.47517 0.59403 0.8988 0.0
S1053 S 0.37533 0.48611 0.9966 0.0
N1054 N 0.38695 0.53906 1.00917 0.0
N1055 N 0.39784 0.48103 0.95768 0.0
C1056 C 0.41634 0.52353 0.95303 0.0
C1057 C 0.41027 0.55537 0.98132 0.0
C1058 C 0.78887 0.22145 0.72247 0.0
C1059 C 0.76472 0.17994 0.72936 0.0
C1060 C 0.82077 0.22572 0.69475 0.0
C1061 C 0.83123 0.18831 0.67305 0.0
H1062 H 0.78326 0.25105 0.73876 0.0
H1063 H 0.83813 0.25828 0.69082 0.0
S1064 S 0.77633 0.07308 0.67818 0.0
N1065 N 0.7527 0.10159 0.71019 0.0
N1066 N 0.81282 0.10898 0.65973 0.0
C1067 C 0.80695 0.14702 0.67939 0.0
C1068 C 0.77387 0.14301 0.70695 0.0
C1069 C 0.21448 0.52139 0.46076 0.0
C1070 C 0.17646 0.49939 0.47622 0.0
C1071 C 0.20918 0.55435 0.43376 0.0
C1072 C 0.16565 0.56657 0.41995 0.0
H1073 H 0.24883 0.51403 0.47025 0.0
H1074 H 0.23984 0.56994 0.42316 0.0
S1075 S 1.05476 0.51754 0.44949 0.0
N1076 N 0.09329 0.49223 0.47489 0.0
N1077 N 0.08378 0.55188 0.42326 0.0
C1078 C 0.1274 0.54385 0.43439 0.0
C1079 C 0.13266 0.51119 0.46269 0.0
C1080 C 0.8124 0.68599 0.71089 0.0
C1081 C 0.76409 0.68431 0.71475 0.0
C1082 C 0.8427 0.69096 0.73953 0.0
C1083 C 0.82641 0.69637 0.77356 0.0
H1084 H 0.82715 0.68249 0.68537 0.0
H1085 H 0.87935 0.69076 0.73488 0.0
S1086 S 0.7029 0.6961 0.79799 0.0
N1087 N 0.70165 0.6885 0.75567 0.0
N1088 N 0.75771 0.70021 0.80901 0.0
C1089 C 0.77804 0.69568 0.7777 0.0
C1090 C 0.74725 0.68903 0.74858 0.0
C1091 C 0.14312 1.01626 0.97774 0.0
C1092 C 0.18622 1.00487 0.96329 0.0
C1093 C 0.13875 1.04869 1.00499 0.0
C1094 C 0.17697 0.07319 1.01806 0.0
H1095 H 0.11234 0.9998 0.96793 0.0
H1096 H 0.10495 0.05535 1.01538 0.0
S1097 S 0.2975 0.05738 0.98877 0.0
N1098 N 0.26789 1.02092 0.96481 0.0
N1099 N 0.25974 0.08291 1.01394 0.0
C1100 C 0.22015 0.06231 1.00354 0.0
C1101 C 0.22474 1.02812 0.97681 0.0
C1102 C 0.85689 0.38598 0.23786 0.0
C1103 C 0.86566 0.42904 1.22189 0.0
C1104 C 0.82443 0.38083 0.26504 0.0
C1105 C 0.79724 0.418 0.27648 0.0
H1106 H 0.87551 0.35587 0.22938 0.0
H1107 H 0.82 0.34716 0.27674 0.0
S1108 S 0.80515 0.53785 0.24235 0.0
N1109 N 0.84398 0.50955 1.21995 0.0
N1110 N 0.78183 0.49971 0.26882 0.0
C1111 C 0.80529 0.46108 0.26025 0.0
C1112 C 0.83954 0.46661 0.23364 0.0
C1113 C 0.48926 1.05114 0.50224 0.0
C1114 C 0.45014 1.03206 0.51828 0.0
C1115 C 0.48542 0.08388 0.47482 0.0
C1116 C 0.44237 0.10089 0.46313 0.0
H1117 H 0.52315 1.04001 0.51046 0.0
H1118 H 0.5166 0.09611 0.46269 0.0
S1119 S 0.3293 0.06441 0.49792 0.0
N1120 N 0.3668 1.03389 0.52068 0.0
N1121 N 0.35981 0.09626 0.47099 0.0
C1122 C 0.40315 0.08312 0.47982 0.0
C1123 C 0.40698 1.04871 0.50681 0.0
C1124 C 0.31521 0.41401 0.72909 0.0
C1125 C 0.36279 0.42237 0.72502 0.0
C1126 C 0.28524 0.40744 0.7005 0.0
C1127 C 0.30136 0.40707 0.66617 0.0
H1128 H 0.30064 0.41328 0.75482 0.0
H1129 H 0.24899 0.40238 0.70541 0.0
S1130 S 0.42282 0.42741 0.6407 0.0
N1131 N 0.42419 0.43087 0.68339 0.0
N1132 N 0.36883 0.41667 0.62996 0.0
C1133 C 0.34899 0.41511 0.66166 0.0
C1134 C 0.37932 0.42323 0.69085 0.0
C1135 C 0.94742 0.11237 0.44676 0.0
C1136 C 0.94575 0.09693 0.48153 0.0
C1137 C 0.95139 0.08099 0.41867 0.0
C1138 C 0.95253 1.03263 0.42387 0.0
H1139 H 0.94609 0.14891 0.44119 0.0
H1140 H 0.95202 0.09472 0.39254 0.0
S1141 S 0.94663 0.97401 0.50934 0.0
N1142 N 0.94496 1.02926 0.51889 0.0
N1143 N 0.95006 0.97153 0.46674 0.0
C1144 C 0.95002 1.01701 0.45835 0.0
C1145 C 0.94732 1.04869 0.48684 0.0
C1146 C 0.27697 0.64659 1.21078 0.0
C1147 C 0.25713 0.68498 0.22727 0.0
C1148 C 0.31042 0.65161 1.1843 0.0
C1149 C 0.32512 0.69527 1.17215 0.0
H1150 H 0.26773 0.6122 1.21918 0.0
H1151 H 0.32453 0.62079 1.17288 0.0
S1152 S 0.28243 0.80707 1.20478 0.0
N1153 N 0.25485 0.76856 0.22852 0.0
N1154 N 0.31504 0.77761 1.17799 0.0
C1155 C 0.30444 0.73384 1.18754 0.0
C1156 C 0.27145 0.72881 1.2152 0.0
C1157 C 0.6844 0.99758 0.94683 0.0
C1158 C 0.68515 1.01297 0.98143 0.0
C1159 C 0.67845 1.02874 0.91848 0.0
C1160 C 0.6742 0.07691 0.92325 0.0
H1161 H 0.68759 0.96117 0.9416 0.0
H1162 H 0.67835 1.01502 0.89247 0.0
S1163 S 0.67633 0.13533 1.00834 0.0
N1164 N 0.68169 0.08024 1.01834 0.0
N1165 N 0.6728 0.13788 0.96568 0.0
C1166 C 0.67597 0.09257 0.95763 0.0
C1167 C 0.68075 0.06097 0.98639 0.0
loop_
_geom_bond_atom_site_label_1
_geom_bond_atom_site_label_2
_geom_bond_distance
_geom_bond_site_symmetry_2
_ccdc_geom_bond_type
Sm0 C2 2.846 . S
Sm0 O20 2.543 . S
Sm0 O21 2.450 . S
Sm0 O22 2.681 . S
Sm0 O23 2.464 . S
Sm0 O24 2.396 . S
Sm0 O28 2.386 . S
Sm0 O31 2.408 . S
Sm1 C11 2.846 . S
Sm1 O22 2.386 . S
Sm1 O25 2.408 . S
Sm1 O26 2.543 . S
Sm1 O27 2.450 . S
Sm1 O28 2.681 . S
Sm1 O29 2.464 . S
Sm1 O30 2.396 . S
C2 Sm0 2.846 . S
C2 C3 1.506 . S
C2 O20 1.261 . S
C2 O21 1.242 . S
C3 C2 1.506 . S
C3 C4 1.358 . S
C3 C8 1.382 . S
C4 C3 1.358 . S
C4 C5 1.385 . S
C4 H32 0.930 . S
C5 C4 1.385 . S
C5 C6 1.395 . S
C5 H33 0.929 . S
C6 C5 1.395 . S
C6 C7 1.335 . S
C7 C6 1.335 . S
C7 C8 1.398 . S
C7 H34 0.930 . S
C8 C3 1.382 . S
C8 C7 1.398 . S
C8 H35 0.929 . S
C9 O22 1.271 . S
C9 O23 1.251 . S
C10 O24 1.252 . S
C10 O25 1.272 . S
C11 Sm1 2.846 . S
C11 C12 1.506 . S
C11 O26 1.261 . S
C11 O27 1.242 . S
C12 C11 1.506 . S
C12 C13 1.358 . S
C12 C17 1.382 1_545 S
C13 C12 1.358 . S
C13 C14 1.385 . S
C13 H36 0.930 . S
C14 C13 1.385 . S
C14 C15 1.395 1_545 S
C14 H37 0.929 1_554 S
C15 C14 1.395 1_565 S
C15 C16 1.335 . S
C16 C15 1.335 . S
C16 C17 1.398 . S
C16 H38 0.930 . S
C17 C12 1.382 1_565 S
C17 C16 1.398 . S
C17 H39 0.929 . S
C18 O28 1.271 . S
C18 O29 1.251 . S
C19 O30 1.252 . S
C19 O31 1.272 . S
O20 Sm0 2.543 . S
O20 C2 1.261 . S
O21 Sm0 2.450 . S
O21 C2 1.242 . S
O22 Sm0 2.681 . S
O22 Sm1 2.386 . S
O22 C9 1.271 . S
O23 Sm0 2.464 . S
O23 C9 1.251 . S
O24 Sm0 2.396 . S
O24 C10 1.252 . S
O25 Sm1 2.408 . S
O25 C10 1.272 . S
O26 Sm1 2.543 . S
O26 C11 1.261 . S
O27 Sm1 2.450 . S
O27 C11 1.242 . S
O28 Sm0 2.386 . S
O28 Sm1 2.681 . S
O28 C18 1.271 . S
O29 Sm1 2.464 . S
O29 C18 1.251 . S
O30 Sm1 2.396 . S
O30 C19 1.252 . S
O31 Sm0 2.408 . S
O31 C19 1.272 . S
H32 C4 0.930 . S
H33 C5 0.929 . S
H34 C7 0.930 . S
H35 C8 0.929 . S
H36 C13 0.930 . S
H37 C14 0.929 1_556 S
H38 C16 0.930 . S
H39 C17 0.929 . S
Sm40 C42 2.846 . S
Sm40 O60 2.543 . S
Sm40 O61 2.450 . S
Sm40 O62 2.681 . S
Sm40 O63 2.464 . S
Sm40 O64 2.396 . S
Sm40 O68 2.386 . S
Sm40 O71 2.408 . S
Sm41 C51 2.846 . S
Sm41 O62 2.386 . S
Sm41 O65 2.408 . S
Sm41 O66 2.543 . S
Sm41 O67 2.450 . S
Sm41 O68 2.681 . S
Sm41 O69 2.464 . S
Sm41 O70 2.396 . S
C42 Sm40 2.846 . S
C42 C43 1.506 . S
C42 O60 1.261 . S
C42 O61 1.242 . S
C43 C42 1.506 . S
C43 C44 1.358 . S
C43 C48 1.382 . S
C44 C43 1.358 . S
C44 C45 1.385 . S
C44 H72 0.930 . S
C45 C44 1.385 . S
C45 C46 1.395 . S
C45 H73 0.929 . S
C46 C45 1.395 . S
C46 C47 1.335 . S
C47 C46 1.335 . S
C47 C48 1.398 . S
C47 H74 0.930 . S
C48 C43 1.382 . S
C48 C47 1.398 . S
C48 H75 0.929 . S
C49 O62 1.271 . S
C49 O63 1.251 . S
C50 O64 1.252 . S
C50 O65 1.272 . S
C51 Sm41 2.846 . S
C51 C52 1.506 . S
C51 O66 1.261 . S
C51 O67 1.242 . S
C52 C51 1.506 . S
C52 C53 1.358 . S
C52 C57 1.382 . S
C53 C52 1.358 . S
C53 C54 1.385 . S
C53 H76 0.930 . S
C54 C53 1.385 . S
C54 C55 1.395 . S
C54 H77 0.929 . S
C55 C54 1.395 . S
C55 C56 1.335 . S
C56 C55 1.335 . S
C56 C57 1.398 . S
C56 H78 0.930 . S
C57 C52 1.382 . S
C57 C56 1.398 . S
C57 H79 0.929 . S
C58 O68 1.271 . S
C58 O69 1.251 . S
C59 O70 1.252 . S
C59 O71 1.272 . S
O60 Sm40 2.543 . S
O60 C42 1.261 . S
O61 Sm40 2.450 . S
O61 C42 1.242 . S
O62 Sm40 2.681 . S
O62 Sm41 2.386 . S
O62 C49 1.271 . S
O63 Sm40 2.464 . S
O63 C49 1.251 . S
O64 Sm40 2.396 . S
O64 C50 1.252 . S
O65 Sm41 2.408 . S
O65 C50 1.272 . S
O66 Sm41 2.543 . S
O66 C51 1.261 . S
O67 Sm41 2.450 . S
O67 C51 1.242 . S
O68 Sm40 2.386 . S
O68 Sm41 2.681 . S
O68 C58 1.271 . S
O69 Sm41 2.464 . S
O69 C58 1.251 . S
O70 Sm41 2.396 . S
O70 C59 1.252 . S
O71 Sm40 2.408 . S
O71 C59 1.272 . S
H72 C44 0.930 . S
H73 C45 0.929 . S
H74 C47 0.930 . S
H75 C48 0.929 . S
H76 C53 0.930 . S
H77 C54 0.929 . S
H78 C56 0.930 . S
H79 C57 0.929 . S
Sm80 C82 2.846 . S
Sm80 O100 2.543 . S
Sm80 O101 2.450 . S
Sm80 O102 2.681 . S
Sm80 O103 2.464 . S
Sm80 O104 2.396 . S
Sm80 O108 2.386 . S
Sm80 O111 2.408 . S
Sm81 C91 2.846 . S
Sm81 O102 2.386 . S
Sm81 O105 2.408 . S
Sm81 O106 2.543 . S
Sm81 O107 2.450 . S
Sm81 O108 2.681 . S
Sm81 O109 2.464 . S
Sm81 O110 2.396 . S
C82 Sm80 2.846 . S
C82 C83 1.506 . S
C82 O100 1.261 . S
C82 O101 1.242 . S
C83 C82 1.506 . S
C83 C84 1.358 . S
C83 C88 1.382 . S
C84 C83 1.358 . S
C84 C85 1.385 . S
C84 H112 0.930 . S
C85 C84 1.385 . S
C85 C86 1.395 . S
C85 H113 0.929 . S
C86 C85 1.395 . S
C86 C87 1.335 . S
C87 C86 1.335 . S
C87 C88 1.398 . S
C87 H114 0.930 . S
C88 C83 1.382 . S
C88 C87 1.398 . S
C88 H115 0.929 . S
C89 O102 1.271 . S
C89 O103 1.251 . S
C90 O104 1.252 . S
C90 O105 1.272 . S
C91 Sm81 2.846 . S
C91 C92 1.506 . S
C91 O106 1.261 . S
C91 O107 1.242 . S
C92 C91 1.506 . S
C92 C93 1.358 . S
C92 C97 1.382 1_565 S
C93 C92 1.358 . S
C93 C94 1.385 . S
C93 H116 0.930 . S
C94 C93 1.385 . S
C94 C95 1.395 1_565 S
C94 H117 0.929 . S
C95 C94 1.395 1_545 S
C95 C96 1.335 . S
C96 C95 1.335 . S
C96 C97 1.398 . S
C96 H118 0.930 . S
C97 C92 1.382 1_545 S
C97 C96 1.398 . S
C97 H119 0.929 . S
C98 O108 1.271 . S
C98 O109 1.251 . S
C99 O110 1.252 . S
C99 O111 1.272 . S
O100 Sm80 2.543 . S
O100 C82 1.261 . S
O101 Sm80 2.450 . S
O101 C82 1.242 . S
O102 Sm80 2.681 . S
O102 Sm81 2.386 . S
O102 C89 1.271 . S
O103 Sm80 2.464 . S
O103 C89 1.251 . S
O104 Sm80 2.396 . S
O104 C90 1.252 . S
O105 Sm81 2.408 . S
O105 C90 1.272 . S
O106 Sm81 2.543 . S
O106 C91 1.261 . S
O107 Sm81 2.450 . S
O107 C91 1.242 . S
O108 Sm80 2.386 . S
O108 Sm81 2.681 . S
O108 C98 1.271 . S
O109 Sm81 2.464 . S
O109 C98 1.251 . S
O110 Sm81 2.396 . S
O110 C99 1.252 . S
O111 Sm80 2.408 . S
O111 C99 1.272 . S
H112 C84 0.930 . S
H113 C85 0.929 . S
H114 C87 0.930 . S
H115 C88 0.929 . S
H116 C93 0.930 . S
H117 C94 0.929 . S
H118 C96 0.930 . S
H119 C97 0.929 . S
Sm120 C122 2.846 1_655 S
Sm120 O140 2.543 . S
Sm120 O141 2.450 1_655 S
Sm120 O142 2.681 . S
Sm120 O143 2.464 . S
Sm120 O144 2.396 . S
Sm120 O148 2.386 . S
Sm120 O151 2.408 . S
Sm121 C131 2.846 . S
Sm121 O142 2.386 . S
Sm121 O145 2.408 . S
Sm121 O146 2.543 . S
Sm121 O147 2.450 . S
Sm121 O148 2.681 . S
Sm121 O149 2.464 . S
Sm121 O150 2.396 . S
C122 Sm120 2.846 1_455 S
C122 C123 1.506 . S
C122 O140 1.261 1_455 S
C122 O141 1.242 . S
C123 C122 1.506 . S
C123 C124 1.358 . S
C123 C128 1.382 . S
C124 C123 1.358 . S
C124 C125 1.385 . S
C124 H152 0.930 1_455 S
C125 C124 1.385 . S
C125 C126 1.395 . S
C125 H153 0.929 . S
C126 C125 1.395 . S
C126 C127 1.335 . S
C127 C126 1.335 . S
C127 C128 1.398 . S
C127 H154 0.930 . S
C128 C123 1.382 . S
C128 C127 1.398 . S
C128 H155 0.929 . S
C129 O142 1.271 . S
C129 O143 1.251 . S
C130 O144 1.252 . S
C130 O145 1.272 . S
C131 Sm121 2.846 . S
C131 C132 1.506 . S
C131 O146 1.261 . S
C131 O147 1.242 . S
C132 C131 1.506 . S
C132 C133 1.358 . S
C132 C137 1.382 . S
C133 C132 1.358 . S
C133 C134 1.385 . S
C133 H156 0.930 . S
C134 C133 1.385 . S
C134 C135 1.395 . S
C134 H157 0.929 . S
C135 C134 1.395 . S
C135 C136 1.335 . S
C136 C135 1.335 . S
C136 C137 1.398 . S
C136 H158 0.930 . S
C137 C132 1.382 . S
C137 C136 1.398 . S
C137 H159 0.929 . S
C138 O148 1.271 . S
C138 O149 1.251 . S
C139 O150 1.252 . S
C139 O151 1.272 . S
O140 Sm120 2.543 . S
O140 C122 1.261 1_655 S
O141 Sm120 2.450 1_455 S
O141 C122 1.242 . S
O142 Sm120 2.681 . S
O142 Sm121 2.386 . S
O142 C129 1.271 . S
O143 Sm120 2.464 . S
O143 C129 1.251 . S
O144 Sm120 2.396 . S
O144 C130 1.252 . S
O145 Sm121 2.408 . S
O145 C130 1.272 . S
O146 Sm121 2.543 . S
O146 C131 1.261 . S
O147 Sm121 2.450 . S
O147 C131 1.242 . S
O148 Sm120 2.386 . S
O148 Sm121 2.681 . S
O148 C138 1.271 . S
O149 Sm121 2.464 . S
O149 C138 1.251 . S
O150 Sm121 2.396 . S
O150 C139 1.252 . S
O151 Sm120 2.408 . S
O151 C139 1.272 . S
H152 C124 0.930 1_655 S
H153 C125 0.929 . S
H154 C127 0.930 . S
H155 C128 0.929 . S
H156 C133 0.930 . S
H157 C134 0.929 . S
H158 C136 0.930 . S
H159 C137 0.929 . S
Sm160 C162 2.846 . S
Sm160 O180 2.543 . S
Sm160 O181 2.450 . S
Sm160 O182 2.681 . S
Sm160 O183 2.464 . S
Sm160 O184 2.396 . S
Sm160 O188 2.386 . S
Sm160 O191 2.408 . S
Sm161 C171 2.846 . S
Sm161 O182 2.386 . S
Sm161 O185 2.408 . S
Sm161 O186 2.543 . S
Sm161 O187 2.450 . S
Sm161 O188 2.681 . S
Sm161 O189 2.464 . S
Sm161 O190 2.396 . S
C162 Sm160 2.846 . S
C162 C163 1.506 . S
C162 O180 1.261 . S
C162 O181 1.242 . S
C163 C162 1.506 . S
C163 C164 1.358 . S
C163 C168 1.382 1_565 S
C164 C163 1.358 . S
C164 C165 1.385 . S
C164 H192 0.930 . S
C165 C164 1.385 . S
C165 C166 1.395 1_565 S
C165 H193 0.929 1_556 S
C166 C165 1.395 1_545 S
C166 C167 1.335 . S
C167 C166 1.335 . S
C167 C168 1.398 . S
C167 H194 0.930 . S
C168 C163 1.382 1_545 S
C168 C167 1.398 . S
C168 H195 0.929 . S
C169 O182 1.271 . S
C169 O183 1.251 . S
C170 O184 1.252 . S
C170 O185 1.272 . S
C171 Sm161 2.846 . S
C171 C172 1.506 . S
C171 O186 1.261 . S
C171 O187 1.242 . S
C172 C171 1.506 . S
C172 C173 1.358 . S
C172 C177 1.382 . S
C173 C172 1.358 . S
C173 C174 1.385 . S
C173 H196 0.930 . S
C174 C173 1.385 . S
C174 C175 1.395 . S
C174 H197 0.929 . S
C175 C174 1.395 . S
C175 C176 1.335 . S
C176 C175 1.335 . S
C176 C177 1.398 . S
C176 H198 0.930 . S
C177 C172 1.382 . S
C177 C176 1.398 . S
C177 H199 0.929 . S
C178 O188 1.271 . S
C178 O189 1.251 . S
C179 O190 1.252 . S
C179 O191 1.272 . S
O180 Sm160 2.543 . S
O180 C162 1.261 . S
O181 Sm160 2.450 . S
O181 C162 1.242 . S
O182 Sm160 2.681 . S
O182 Sm161 2.386 . S
O182 C169 1.271 . S
O183 Sm160 2.464 . S
O183 C169 1.251 . S
O184 Sm160 2.396 . S
O184 C170 1.252 . S
O185 Sm161 2.408 . S
O185 C170 1.272 . S
O186 Sm161 2.543 . S
O186 C171 1.261 . S
O187 Sm161 2.450 . S
O187 C171 1.242 . S
O188 Sm160 2.386 . S
O188 Sm161 2.681 . S
O188 C178 1.271 . S
O189 Sm161 2.464 . S
O189 C178 1.251 . S
O190 Sm161 2.396 . S
O190 C179 1.252 . S
O191 Sm160 2.408 . S
O191 C179 1.272 . S
H192 C164 0.930 . S
H193 C165 0.929 1_554 S
H194 C167 0.930 . S
H195 C168 0.929 . S
H196 C173 0.930 . S
H197 C174 0.929 . S
H198 C176 0.930 . S
H199 C177 0.929 . S
Sm200 C202 2.846 . S
Sm200 O220 2.543 . S
Sm200 O221 2.450 . S
Sm200 O222 2.681 . S
Sm200 O223 2.464 . S
Sm200 O224 2.396 . S
Sm200 O228 2.386 . S
Sm200 O231 2.408 . S
Sm201 C211 2.846 . S
Sm201 O222 2.386 . S
Sm201 O225 2.408 . S
Sm201 O226 2.543 . S
Sm201 O227 2.450 . S
Sm201 O228 2.681 . S
Sm201 O229 2.464 . S
Sm201 O230 2.396 . S
C202 Sm200 2.846 . S
C202 C203 1.506 . S
C202 O220 1.261 . S
C202 O221 1.242 . S
C203 C202 1.506 . S
C203 C204 1.358 . S
C203 C208 1.382 . S
C204 C203 1.358 . S
C204 C205 1.385 . S
C204 H232 0.930 . S
C205 C204 1.385 . S
C205 C206 1.395 . S
C205 H233 0.929 . S
C206 C205 1.395 . S
C206 C207 1.335 . S
C207 C206 1.335 . S
C207 C208 1.398 . S
C207 H234 0.930 . S
C208 C203 1.382 . S
C208 C207 1.398 . S
C208 H235 0.929 . S
C209 O222 1.271 . S
C209 O223 1.251 . S
C210 O224 1.252 . S
C210 O225 1.272 . S
C211 Sm201 2.846 . S
C211 C212 1.506 . S
C211 O226 1.261 . S
C211 O227 1.242 . S
C212 C211 1.506 . S
C212 C213 1.358 . S
C212 C217 1.382 . S
C213 C212 1.358 . S
C213 C214 1.385 . S
C213 H236 0.930 . S
C214 C213 1.385 . S
C214 C215 1.395 . S
C214 H237 0.929 . S
C215 C214 1.395 . S
C215 C216 1.335 . S
C216 C215 1.335 . S
C216 C217 1.398 . S
C216 H238 0.930 . S
C217 C212 1.382 . S
C217 C216 1.398 . S
C217 H239 0.929 . S
C218 O228 1.271 . S
C218 O229 1.251 . S
C219 O230 1.252 . S
C219 O231 1.272 . S
O220 Sm200 2.543 . S
O220 C202 1.261 . S
O221 Sm200 2.450 . S
O221 C202 1.242 . S
O222 Sm200 2.681 . S
O222 Sm201 2.386 . S
O222 C209 1.271 . S
O223 Sm200 2.464 . S
O223 C209 1.251 . S
O224 Sm200 2.396 . S
O224 C210 1.252 . S
O225 Sm201 2.408 . S
O225 C210 1.272 . S
O226 Sm201 2.543 . S
O226 C211 1.261 . S
O227 Sm201 2.450 . S
O227 C211 1.242 . S
O228 Sm200 2.386 . S
O228 Sm201 2.681 . S
O228 C218 1.271 . S
O229 Sm201 2.464 . S
O229 C218 1.251 . S
O230 Sm201 2.396 . S
O230 C219 1.252 . S
O231 Sm200 2.408 . S
O231 C219 1.272 . S
H232 C204 0.930 . S
H233 C205 0.929 . S
H234 C207 0.930 . S
H235 C208 0.929 . S
H236 C213 0.930 . S
H237 C214 0.929 . S
H238 C216 0.930 . S
H239 C217 0.929 . S
Sm240 C242 2.846 . S
Sm240 O260 2.543 . S
Sm240 O261 2.450 . S
Sm240 O262 2.681 . S
Sm240 O263 2.464 . S
Sm240 O264 2.396 . S
Sm240 O268 2.386 . S
Sm240 O271 2.408 . S
Sm241 C251 2.846 . S
Sm241 O262 2.386 . S
Sm241 O265 2.408 . S
Sm241 O266 2.543 . S
Sm241 O267 2.450 . S
Sm241 O268 2.681 . S
Sm241 O269 2.464 . S
Sm241 O270 2.396 . S
C242 Sm240 2.846 . S
C242 C243 1.506 . S
C242 O260 1.261 . S
C242 O261 1.242 . S
C243 C242 1.506 . S
C243 C244 1.358 . S
C243 C248 1.382 1_545 S
C244 C243 1.358 . S
C244 C245 1.385 . S
C244 H272 0.930 . S
C245 C244 1.385 . S
C245 C246 1.395 1_545 S
C245 H273 0.929 . S
C246 C245 1.395 1_565 S
C246 C247 1.335 . S
C247 C246 1.335 . S
C247 C248 1.398 . S
C247 H274 0.930 . S
C248 C243 1.382 1_565 S
C248 C247 1.398 . S
C248 H275 0.929 . S
C249 O262 1.271 . S
C249 O263 1.251 . S
C250 O264 1.252 . S
C250 O265 1.272 . S
C251 Sm241 2.846 . S
C251 C252 1.506 . S
C251 O266 1.261 . S
C251 O267 1.242 . S
C252 C251 1.506 . S
C252 C253 1.358 . S
C252 C257 1.382 . S
C253 C252 1.358 . S
C253 C254 1.385 . S
C253 H276 0.930 . S
C254 C253 1.385 . S
C254 C255 1.395 . S
C254 H277 0.929 . S
C255 C254 1.395 . S
C255 C256 1.335 . S
C256 C255 1.335 . S
C256 C257 1.398 . S
C256 H278 0.930 . S
C257 C252 1.382 . S
C257 C256 1.398 . S
C257 H279 0.929 . S
C258 O268 1.271 . S
C258 O269 1.251 . S
C259 O270 1.252 . S
C259 O271 1.272 . S
O260 Sm240 2.543 . S
O260 C242 1.261 . S
O261 Sm240 2.450 . S
O261 C242 1.242 . S
O262 Sm240 2.681 . S
O262 Sm241 2.386 . S
O262 C249 1.271 . S
O263 Sm240 2.464 . S
O263 C249 1.251 . S
O264 Sm240 2.396 . S
O264 C250 1.252 . S
O265 Sm241 2.408 . S
O265 C250 1.272 . S
O266 Sm241 2.543 . S
O266 C251 1.261 . S
O267 Sm241 2.450 . S
O267 C251 1.242 . S
O268 Sm240 2.386 . S
O268 Sm241 2.681 . S
O268 C258 1.271 . S
O269 Sm241 2.464 . S
O269 C258 1.251 . S
O270 Sm241 2.396 . S
O270 C259 1.252 . S
O271 Sm240 2.408 . S
O271 C259 1.272 . S
H272 C244 0.930 . S
H273 C245 0.929 . S
H274 C247 0.930 . S
H275 C248 0.929 . S
H276 C253 0.930 . S
H277 C254 0.929 . S
H278 C256 0.930 . S
H279 C257 0.929 . S
Sm280 C282 2.846 . S
Sm280 O300 2.543 . S
Sm280 O301 2.450 . S
Sm280 O302 2.681 . S
Sm280 O303 2.464 . S
Sm280 O304 2.396 . S
Sm280 O308 2.386 . S
Sm280 O311 2.408 . S
Sm281 C291 2.846 1_455 S
Sm281 O302 2.386 . S
Sm281 O305 2.408 . S
Sm281 O306 2.543 . S
Sm281 O307 2.450 1_455 S
Sm281 O308 2.681 . S
Sm281 O309 2.464 . S
Sm281 O310 2.396 . S
C282 Sm280 2.846 . S
C282 C283 1.506 . S
C282 O300 1.261 . S
C282 O301 1.242 . S
C283 C282 1.506 . S
C283 C284 1.358 . S
C283 C288 1.382 . S
C284 C283 1.358 . S
C284 C285 1.385 . S
C284 H312 0.930 . S
C285 C284 1.385 . S
C285 C286 1.395 . S
C285 H313 0.929 . S
C286 C285 1.395 . S
C286 C287 1.335 . S
C287 C286 1.335 . S
C287 C288 1.398 . S
C287 H314 0.930 . S
C288 C283 1.382 . S
C288 C287 1.398 . S
C288 H315 0.929 . S
C289 O302 1.271 . S
C289 O303 1.251 . S
C290 O304 1.252 . S
C290 O305 1.272 . S
C291 Sm281 2.846 1_655 S
C291 C292 1.506 . S
C291 O306 1.261 1_655 S
C291 O307 1.242 . S
C292 C291 1.506 . S
C292 C293 1.358 . S
C292 C297 1.382 . S
C293 C292 1.358 . S
C293 C294 1.385 . S
C293 H316 0.930 1_655 S
C294 C293 1.385 . S
C294 C295 1.395 . S
C294 H317 0.929 . S
C295 C294 1.395 . S
C295 C296 1.335 . S
C296 C295 1.335 . S
C296 C297 1.398 . S
C296 H318 0.930 . S
C297 C292 1.382 . S
C297 C296 1.398 . S
C297 H319 0.929 . S
C298 O308 1.271 . S
C298 O309 1.251 . S
C299 O310 1.252 . S
C299 O311 1.272 . S
O300 Sm280 2.543 . S
O300 C282 1.261 . S
O301 Sm280 2.450 . S
O301 C282 1.242 . S
O302 Sm280 2.681 . S
O302 Sm281 2.386 . S
O302 C289 1.271 . S
O303 Sm280 2.464 . S
O303 C289 1.251 . S
O304 Sm280 2.396 . S
O304 C290 1.252 . S
O305 Sm281 2.408 . S
O305 C290 1.272 . S
O306 Sm281 2.543 . S
O306 C291 1.261 1_455 S
O307 Sm281 2.450 1_655 S
O307 C291 1.242 . S
O308 Sm280 2.386 . S
O308 Sm281 2.681 . S
O308 C298 1.271 . S
O309 Sm281 2.464 . S
O309 C298 1.251 . S
O310 Sm281 2.396 . S
O310 C299 1.252 . S
O311 Sm280 2.408 . S
O311 C299 1.272 . S
H312 C284 0.930 . S
H313 C285 0.929 . S
H314 C287 0.930 . S
H315 C288 0.929 . S
H316 C293 0.930 1_455 S
H317 C294 0.929 . S
H318 C296 0.930 . S
H319 C297 0.929 . S
Sm320 C322 2.846 . S
Sm320 O340 2.543 . S
Sm320 O341 2.450 . S
Sm320 O342 2.681 . S
Sm320 O343 2.464 . S
Sm320 O344 2.396 . S
Sm320 O348 2.386 . S
Sm320 O351 2.408 . S
Sm321 C331 2.846 . S
Sm321 O342 2.386 . S
Sm321 O345 2.408 . S
Sm321 O346 2.543 . S
Sm321 O347 2.450 . S
Sm321 O348 2.681 . S
Sm321 O349 2.464 . S
Sm321 O350 2.396 . S
C322 Sm320 2.846 . S
C322 C323 1.506 . S
C322 O340 1.261 . S
C322 O341 1.242 . S
C323 C322 1.506 . S
C323 C324 1.358 . S
C323 C328 1.382 . S
C324 C323 1.358 . S
C324 C325 1.385 . S
C324 H352 0.930 . S
C325 C324 1.385 . S
C325 C326 1.395 . S
C325 H353 0.929 . S
C326 C325 1.395 . S
C326 C327 1.335 . S
C327 C326 1.335 . S
C327 C328 1.398 . S
C327 H354 0.930 . S
C328 C323 1.382 . S
C328 C327 1.398 . S
C328 H355 0.929 . S
C329 O342 1.271 . S
C329 O343 1.251 . S
C330 O344 1.252 . S
C330 O345 1.272 . S
C331 Sm321 2.846 . S
C331 C332 1.506 . S
C331 O346 1.261 . S
C331 O347 1.242 . S
C332 C331 1.506 . S
C332 C333 1.358 . S
C332 C337 1.382 . S
C333 C332 1.358 . S
C333 C334 1.385 . S
C333 H356 0.930 . S
C334 C333 1.385 . S
C334 C335 1.395 . S
C334 H357 0.929 . S
C335 C334 1.395 . S
C335 C336 1.335 . S
C336 C335 1.335 . S
C336 C337 1.398 . S
C336 H358 0.930 . S
C337 C332 1.382 . S
C337 C336 1.398 . S
C337 H359 0.929 . S
C338 O348 1.271 . S
C338 O349 1.251 . S
C339 O350 1.252 . S
C339 O351 1.272 . S
O340 Sm320 2.543 . S
O340 C322 1.261 . S
O341 Sm320 2.450 . S
O341 C322 1.242 . S
O342 Sm320 2.681 . S
O342 Sm321 2.386 . S
O342 C329 1.271 . S
O343 Sm320 2.464 . S
O343 C329 1.251 . S
O344 Sm320 2.396 . S
O344 C330 1.252 . S
O345 Sm321 2.408 . S
O345 C330 1.272 . S
O346 Sm321 2.543 . S
O346 C331 1.261 . S
O347 Sm321 2.450 . S
O347 C331 1.242 . S
O348 Sm320 2.386 . S
O348 Sm321 2.681 . S
O348 C338 1.271 . S
O349 Sm321 2.464 . S
O349 C338 1.251 . S
O350 Sm321 2.396 . S
O350 C339 1.252 . S
O351 Sm320 2.408 . S
O351 C339 1.272 . S
H352 C324 0.930 . S
H353 C325 0.929 . S
H354 C327 0.930 . S
H355 C328 0.929 . S
H356 C333 0.930 . S
H357 C334 0.929 . S
H358 C336 0.930 . S
H359 C337 0.929 . S
Sm360 C362 2.846 1_445 S
Sm360 O380 2.543 1_545 S
Sm360 O381 2.450 1_455 S
Sm360 O382 2.681 . S
Sm360 O383 2.464 . S
Sm360 O384 2.396 . S
Sm360 O388 2.386 . S
Sm360 O391 2.408 . S
Sm361 C371 2.846 . S
Sm361 O382 2.386 . S
Sm361 O385 2.408 . S
Sm361 O386 2.543 . S
Sm361 O387 2.450 . S
Sm361 O388 2.681 . S
Sm361 O389 2.464 . S
Sm361 O390 2.396 . S
C362 Sm360 2.846 1_665 S
C362 C363 1.506 . S
C362 O380 1.261 1_655 S
C362 O381 1.242 1_565 S
C363 C362 1.506 . S
C363 C364 1.358 . S
C363 C368 1.382 . S
C364 C363 1.358 . S
C364 C365 1.385 . S
C364 H392 0.930 1_655 S
C365 C364 1.385 . S
C365 C366 1.395 . S
C365 H393 0.929 . S
C366 C365 1.395 . S
C366 C367 1.335 . S
C367 C366 1.335 . S
C367 C368 1.398 . S
C367 H394 0.930 . S
C368 C363 1.382 . S
C368 C367 1.398 . S
C368 H395 0.929 1_565 S
C369 O382 1.271 . S
C369 O383 1.251 . S
C370 O384 1.252 . S
C370 O385 1.272 . S
C371 Sm361 2.846 . S
C371 C372 1.506 . S
C371 O386 1.261 . S
C371 O387 1.242 . S
C372 C371 1.506 . S
C372 C373 1.358 . S
C372 C377 1.382 . S
C373 C372 1.358 . S
C373 C374 1.385 . S
C373 H396 0.930 . S
C374 C373 1.385 . S
C374 C375 1.395 . S
C374 H397 0.929 . S
C375 C374 1.395 . S
C375 C376 1.335 . S
C376 C375 1.335 . S
C376 C377 1.398 . S
C376 H398 0.930 . S
C377 C372 1.382 . S
C377 C376 1.398 . S
C377 H399 0.929 . S
C378 O388 1.271 1_565 S
C378 O389 1.251 1_565 S
C379 O390 1.252 . S
C379 O391 1.272 . S
O380 Sm360 2.543 1_565 S
O380 C362 1.261 1_455 S
O381 Sm360 2.450 1_655 S
O381 C362 1.242 1_545 S
O382 Sm360 2.681 . S
O382 Sm361 2.386 . S
O382 C369 1.271 . S
O383 Sm360 2.464 . S
O383 C369 1.251 . S
O384 Sm360 2.396 . S
O384 C370 1.252 . S
O385 Sm361 2.408 . S
O385 C370 1.272 . S
O386 Sm361 2.543 . S
O386 C371 1.261 . S
O387 Sm361 2.450 . S
O387 C371 1.242 . S
O388 Sm360 2.386 . S
O388 Sm361 2.681 . S
O388 C378 1.271 1_545 S
O389 Sm361 2.464 . S
O389 C378 1.251 1_545 S
O390 Sm361 2.396 . S
O390 C379 1.252 . S
O391 Sm360 2.408 . S
O391 C379 1.272 . S
H392 C364 0.930 1_455 S
H393 C365 0.929 . S
H394 C367 0.930 . S
H395 C368 0.929 1_545 S
H396 C373 0.930 . S
H397 C374 0.929 . S
H398 C376 0.930 . S
H399 C377 0.929 . S
Sm400 C402 2.846 . S
Sm400 O420 2.543 . S
Sm400 O421 2.450 . S
Sm400 O422 2.681 . S
Sm400 O423 2.464 . S
Sm400 O424 2.396 . S
Sm400 O428 2.386 . S
Sm400 O431 2.408 . S
Sm401 C411 2.846 . S
Sm401 O422 2.386 . S
Sm401 O425 2.408 . S
Sm401 O426 2.543 . S
Sm401 O427 2.450 . S
Sm401 O428 2.681 . S
Sm401 O429 2.464 . S
Sm401 O430 2.396 . S
C402 Sm400 2.846 . S
C402 C403 1.506 . S
C402 O420 1.261 . S
C402 O421 1.242 . S
C403 C402 1.506 . S
C403 C404 1.358 . S
C403 C408 1.382 . S
C404 C403 1.358 . S
C404 C405 1.385 . S
C404 H432 0.930 . S
C405 C404 1.385 . S
C405 C406 1.395 . S
C405 H433 0.929 . S
C406 C405 1.395 . S
C406 C407 1.335 . S
C407 C406 1.335 . S
C407 C408 1.398 . S
C407 H434 0.930 . S
C408 C403 1.382 . S
C408 C407 1.398 . S
C408 H435 0.929 . S
C409 O422 1.271 . S
C409 O423 1.251 . S
C410 O424 1.252 . S
C410 O425 1.272 . S
C411 Sm401 2.846 . S
C411 C412 1.506 . S
C411 O426 1.261 . S
C411 O427 1.242 . S
C412 C411 1.506 . S
C412 C413 1.358 . S
C412 C417 1.382 . S
C413 C412 1.358 . S
C413 C414 1.385 . S
C413 H436 0.930 . S
C414 C413 1.385 . S
C414 C415 1.395 . S
C414 H437 0.929 1_554 S
C415 C414 1.395 . S
C415 C416 1.335 . S
C416 C415 1.335 . S
C416 C417 1.398 . S
C416 H438 0.930 . S
C417 C412 1.382 . S
C417 C416 1.398 . S
C417 H439 0.929 . S
C418 O428 1.271 . S
C418 O429 1.251 . S
C419 O430 1.252 . S
C419 O431 1.272 . S
O420 Sm400 2.543 . S
O420 C402 1.261 . S
O421 Sm400 2.450 . S
O421 C402 1.242 . S
O422 Sm400 2.681 . S
O422 Sm401 2.386 . S
O422 C409 1.271 . S
O423 Sm400 2.464 . S
O423 C409 1.251 . S
O424 Sm400 2.396 . S
O424 C410 1.252 . S
O425 Sm401 2.408 . S
O425 C410 1.272 . S
O426 Sm401 2.543 . S
O426 C411 1.261 . S
O427 Sm401 2.450 . S
O427 C411 1.242 . S
O428 Sm400 2.386 . S
O428 Sm401 2.681 . S
O428 C418 1.271 . S
O429 Sm401 2.464 . S
O429 C418 1.251 . S
O430 Sm401 2.396 . S
O430 C419 1.252 . S
O431 Sm400 2.408 . S
O431 C419 1.272 . S
H432 C404 0.930 . S
H433 C405 0.929 . S
H434 C407 0.930 . S
H435 C408 0.929 . S
H436 C413 0.930 . S
H437 C414 0.929 1_556 S
H438 C416 0.930 . S
H439 C417 0.929 . S
Sm440 C442 2.846 1_565 S
Sm440 O460 2.543 1_565 S
Sm440 O461 2.450 . S
Sm440 O462 2.681 . S
Sm440 O463 2.464 . S
Sm440 O464 2.396 . S
Sm440 O468 2.386 . S
Sm440 O471 2.408 . S
Sm441 C451 2.846 . S
Sm441 O462 2.386 . S
Sm441 O465 2.408 . S
Sm441 O466 2.543 . S
Sm441 O467 2.450 . S
Sm441 O468 2.681 . S
Sm441 O469 2.464 . S
Sm441 O470 2.396 . S
C442 Sm440 2.846 1_545 S
C442 C443 1.506 . S
C442 O460 1.261 . S
C442 O461 1.242 1_545 S
C443 C442 1.506 . S
C443 C444 1.358 . S
C443 C448 1.382 . S
C444 C443 1.358 . S
C444 C445 1.385 . S
C444 H472 0.930 . S
C445 C444 1.385 . S
C445 C446 1.395 . S
C445 H473 0.929 . S
C446 C445 1.395 . S
C446 C447 1.335 . S
C447 C446 1.335 . S
C447 C448 1.398 . S
C447 H474 0.930 . S
C448 C443 1.382 . S
C448 C447 1.398 . S
C448 H475 0.929 1_545 S
C449 O462 1.271 . S
C449 O463 1.251 . S
C450 O464 1.252 . S
C450 O465 1.272 . S
C451 Sm441 2.846 . S
C451 C452 1.506 . S
C451 O466 1.261 . S
C451 O467 1.242 . S
C452 C451 1.506 . S
C452 C453 1.358 . S
C452 C457 1.382 . S
C453 C452 1.358 . S
C453 C454 1.385 . S
C453 H476 0.930 . S
C454 C453 1.385 . S
C454 C455 1.395 . S
C454 H477 0.929 . S
C455 C454 1.395 . S
C455 C456 1.335 . S
C456 C455 1.335 . S
C456 C457 1.398 . S
C456 H478 0.930 . S
C457 C452 1.382 . S
C457 C456 1.398 . S
C457 H479 0.929 . S
C458 O468 1.271 1_545 S
C458 O469 1.251 1_545 S
C459 O470 1.252 . S
C459 O471 1.272 . S
O460 Sm440 2.543 1_545 S
O460 C442 1.261 . S
O461 Sm440 2.450 . S
O461 C442 1.242 1_565 S
O462 Sm440 2.681 . S
O462 Sm441 2.386 . S
O462 C449 1.271 . S
O463 Sm440 2.464 . S
O463 C449 1.251 . S
O464 Sm440 2.396 . S
O464 C450 1.252 . S
O465 Sm441 2.408 . S
O465 C450 1.272 . S
O466 Sm441 2.543 . S
O466 C451 1.261 . S
O467 Sm441 2.450 . S
O467 C451 1.242 . S
O468 Sm440 2.386 . S
O468 Sm441 2.681 . S
O468 C458 1.271 1_565 S
O469 Sm441 2.464 . S
O469 C458 1.251 1_565 S
O470 Sm441 2.396 . S
O470 C459 1.252 . S
O471 Sm440 2.408 . S
O471 C459 1.272 . S
H472 C444 0.930 . S
H473 C445 0.929 . S
H474 C447 0.930 . S
H475 C448 0.929 1_565 S
H476 C453 0.930 . S
H477 C454 0.929 . S
H478 C456 0.930 . S
H479 C457 0.929 . S
Sm480 C482 2.846 . S
Sm480 O500 2.543 . S
Sm480 O501 2.450 . S
Sm480 O502 2.681 . S
Sm480 O503 2.464 . S
Sm480 O504 2.396 . S
Sm480 O508 2.386 . S
Sm480 O511 2.408 . S
Sm481 C491 2.846 . S
Sm481 O502 2.386 . S
Sm481 O505 2.408 . S
Sm481 O506 2.543 . S
Sm481 O507 2.450 . S
Sm481 O508 2.681 . S
Sm481 O509 2.464 . S
Sm481 O510 2.396 . S
C482 Sm480 2.846 . S
C482 C483 1.506 . S
C482 O500 1.261 . S
C482 O501 1.242 . S
C483 C482 1.506 . S
C483 C484 1.358 . S
C483 C488 1.382 . S
C484 C483 1.358 . S
C484 C485 1.385 . S
C484 H512 0.930 . S
C485 C484 1.385 . S
C485 C486 1.395 . S
C485 H513 0.929 . S
C486 C485 1.395 . S
C486 C487 1.335 . S
C487 C486 1.335 . S
C487 C488 1.398 . S
C487 H514 0.930 . S
C488 C483 1.382 . S
C488 C487 1.398 . S
C488 H515 0.929 . S
C489 O502 1.271 . S
C489 O503 1.251 . S
C490 O504 1.252 . S
C490 O505 1.272 . S
C491 Sm481 2.846 . S
C491 C492 1.506 . S
C491 O506 1.261 . S
C491 O507 1.242 . S
C492 C491 1.506 . S
C492 C493 1.358 . S
C492 C497 1.382 . S
C493 C492 1.358 . S
C493 C494 1.385 . S
C493 H516 0.930 . S
C494 C493 1.385 . S
C494 C495 1.395 . S
C494 H517 0.929 . S
C495 C494 1.395 . S
C495 C496 1.335 . S
C496 C495 1.335 . S
C496 C497 1.398 . S
C496 H518 0.930 . S
C497 C492 1.382 . S
C497 C496 1.398 . S
C497 H519 0.929 . S
C498 O508 1.271 . S
C498 O509 1.251 . S
C499 O510 1.252 . S
C499 O511 1.272 . S
O500 Sm480 2.543 . S
O500 C482 1.261 . S
O501 Sm480 2.450 . S
O501 C482 1.242 . S
O502 Sm480 2.681 . S
O502 Sm481 2.386 . S
O502 C489 1.271 . S
O503 Sm480 2.464 . S
O503 C489 1.251 . S
O504 Sm480 2.396 . S
O504 C490 1.252 . S
O505 Sm481 2.408 . S
O505 C490 1.272 . S
O506 Sm481 2.543 . S
O506 C491 1.261 . S
O507 Sm481 2.450 . S
O507 C491 1.242 . S
O508 Sm480 2.386 . S
O508 Sm481 2.681 . S
O508 C498 1.271 . S
O509 Sm481 2.464 . S
O509 C498 1.251 . S
O510 Sm481 2.396 . S
O510 C499 1.252 . S
O511 Sm480 2.408 . S
O511 C499 1.272 . S
H512 C484 0.930 . S
H513 C485 0.929 . S
H514 C487 0.930 . S
H515 C488 0.929 . S
H516 C493 0.930 . S
H517 C494 0.929 . S
H518 C496 0.930 . S
H519 C497 0.929 . S
Sm520 C522 2.846 . S
Sm520 O540 2.543 . S
Sm520 O541 2.450 . S
Sm520 O542 2.681 . S
Sm520 O543 2.464 . S
Sm520 O544 2.396 . S
Sm520 O548 2.386 . S
Sm520 O551 2.408 . S
Sm521 C531 2.846 1_665 S
Sm521 O542 2.386 . S
Sm521 O545 2.408 . S
Sm521 O546 2.543 1_565 S
Sm521 O547 2.450 1_655 S
Sm521 O548 2.681 . S
Sm521 O549 2.464 . S
Sm521 O550 2.396 . S
C522 Sm520 2.846 . S
C522 C523 1.506 . S
C522 O540 1.261 . S
C522 O541 1.242 . S
C523 C522 1.506 . S
C523 C524 1.358 . S
C523 C528 1.382 . S
C524 C523 1.358 . S
C524 C525 1.385 . S
C524 H552 0.930 . S
C525 C524 1.385 . S
C525 C526 1.395 . S
C525 H553 0.929 . S
C526 C525 1.395 . S
C526 C527 1.335 . S
C527 C526 1.335 . S
C527 C528 1.398 . S
C527 H554 0.930 . S
C528 C523 1.382 . S
C528 C527 1.398 . S
C528 H555 0.929 . S
C529 O542 1.271 1_545 S
C529 O543 1.251 1_545 S
C530 O544 1.252 . S
C530 O545 1.272 . S
C531 Sm521 2.846 1_445 S
C531 C532 1.506 . S
C531 O546 1.261 1_455 S
C531 O547 1.242 1_545 S
C532 C531 1.506 . S
C532 C533 1.358 . S
C532 C537 1.382 . S
C533 C532 1.358 . S
C533 C534 1.385 . S
C533 H556 0.930 1_455 S
C534 C533 1.385 . S
C534 C535 1.395 . S
C534 H557 0.929 . S
C535 C534 1.395 . S
C535 C536 1.335 . S
C536 C535 1.335 . S
C536 C537 1.398 . S
C536 H558 0.930 . S
C537 C532 1.382 . S
C537 C536 1.398 . S
C537 H559 0.929 1_545 S
C538 O548 1.271 . S
C538 O549 1.251 . S
C539 O550 1.252 . S
C539 O551 1.272 . S
O540 Sm520 2.543 . S
O540 C522 1.261 . S
O541 Sm520 2.450 . S
O541 C522 1.242 . S
O542 Sm520 2.681 . S
O542 Sm521 2.386 . S
O542 C529 1.271 1_565 S
O543 Sm520 2.464 . S
O543 C529 1.251 1_565 S
O544 Sm520 2.396 . S
O544 C530 1.252 . S
O545 Sm521 2.408 . S
O545 C530 1.272 . S
O546 Sm521 2.543 1_545 S
O546 C531 1.261 1_655 S
O547 Sm521 2.450 1_455 S
O547 C531 1.242 1_565 S
O548 Sm520 2.386 . S
O548 Sm521 2.681 . S
O548 C538 1.271 . S
O549 Sm521 2.464 . S
O549 C538 1.251 . S
O550 Sm521 2.396 . S
O550 C539 1.252 . S
O551 Sm520 2.408 . S
O551 C539 1.272 . S
H552 C524 0.930 . S
H553 C525 0.929 . S
H554 C527 0.930 . S
H555 C528 0.929 . S
H556 C533 0.930 1_655 S
H557 C534 0.929 . S
H558 C536 0.930 . S
H559 C537 0.929 1_565 S
Sm560 C562 2.846 . S
Sm560 O580 2.543 . S
Sm560 O581 2.450 . S
Sm560 O582 2.681 . S
Sm560 O583 2.464 . S
Sm560 O584 2.396 . S
Sm560 O588 2.386 . S
Sm560 O591 2.408 . S
Sm561 C571 2.846 . S
Sm561 O582 2.386 . S
Sm561 O585 2.408 . S
Sm561 O586 2.543 . S
Sm561 O587 2.450 . S
Sm561 O588 2.681 . S
Sm561 O589 2.464 . S
Sm561 O590 2.396 . S
C562 Sm560 2.846 . S
C562 C563 1.506 . S
C562 O580 1.261 . S
C562 O581 1.242 . S
C563 C562 1.506 . S
C563 C564 1.358 . S
C563 C568 1.382 . S
C564 C563 1.358 . S
C564 C565 1.385 . S
C564 H592 0.930 . S
C565 C564 1.385 . S
C565 C566 1.395 . S
C565 H593 0.929 1_556 S
C566 C565 1.395 . S
C566 C567 1.335 . S
C567 C566 1.335 . S
C567 C568 1.398 . S
C567 H594 0.930 . S
C568 C563 1.382 . S
C568 C567 1.398 . S
C568 H595 0.929 . S
C569 O582 1.271 . S
C569 O583 1.251 . S
C570 O584 1.252 . S
C570 O585 1.272 . S
C571 Sm561 2.846 . S
C571 C572 1.506 . S
C571 O586 1.261 . S
C571 O587 1.242 . S
C572 C571 1.506 . S
C572 C573 1.358 . S
C572 C577 1.382 . S
C573 C572 1.358 . S
C573 C574 1.385 . S
C573 H596 0.930 . S
C574 C573 1.385 . S
C574 C575 1.395 . S
C574 H597 0.929 . S
C575 C574 1.395 . S
C575 C576 1.335 . S
C576 C575 1.335 . S
C576 C577 1.398 . S
C576 H598 0.930 . S
C577 C572 1.382 . S
C577 C576 1.398 . S
C577 H599 0.929 . S
C578 O588 1.271 . S
C578 O589 1.251 . S
C579 O590 1.252 . S
C579 O591 1.272 . S
O580 Sm560 2.543 . S
O580 C562 1.261 . S
O581 Sm560 2.450 . S
O581 C562 1.242 . S
O582 Sm560 2.681 . S
O582 Sm561 2.386 . S
O582 C569 1.271 . S
O583 Sm560 2.464 . S
O583 C569 1.251 . S
O584 Sm560 2.396 . S
O584 C570 1.252 . S
O585 Sm561 2.408 . S
O585 C570 1.272 . S
O586 Sm561 2.543 . S
O586 C571 1.261 . S
O587 Sm561 2.450 . S
O587 C571 1.242 . S
O588 Sm560 2.386 . S
O588 Sm561 2.681 . S
O588 C578 1.271 . S
O589 Sm561 2.464 . S
O589 C578 1.251 . S
O590 Sm561 2.396 . S
O590 C579 1.252 . S
O591 Sm560 2.408 . S
O591 C579 1.272 . S
H592 C564 0.930 . S
H593 C565 0.929 1_554 S
H594 C567 0.930 . S
H595 C568 0.929 . S
H596 C573 0.930 . S
H597 C574 0.929 . S
H598 C576 0.930 . S
H599 C577 0.929 . S
Sm600 C602 2.846 . S
Sm600 O620 2.543 . S
Sm600 O621 2.450 . S
Sm600 O622 2.681 . S
Sm600 O623 2.464 . S
Sm600 O624 2.396 . S
Sm600 O628 2.386 . S
Sm600 O631 2.408 . S
Sm601 C611 2.846 1_545 S
Sm601 O622 2.386 . S
Sm601 O625 2.408 . S
Sm601 O626 2.543 1_545 S
Sm601 O627 2.450 . S
Sm601 O628 2.681 . S
Sm601 O629 2.464 . S
Sm601 O630 2.396 . S
C602 Sm600 2.846 . S
C602 C603 1.506 . S
C602 O620 1.261 . S
C602 O621 1.242 . S
C603 C602 1.506 . S
C603 C604 1.358 . S
C603 C608 1.382 . S
C604 C603 1.358 . S
C604 C605 1.385 . S
C604 H632 0.930 . S
C605 C604 1.385 . S
C605 C606 1.395 . S
C605 H633 0.929 . S
C606 C605 1.395 . S
C606 C607 1.335 . S
C607 C606 1.335 . S
C607 C608 1.398 . S
C607 H634 0.930 . S
C608 C603 1.382 . S
C608 C607 1.398 . S
C608 H635 0.929 . S
C609 O622 1.271 1_565 S
C609 O623 1.251 1_565 S
C610 O624 1.252 . S
C610 O625 1.272 . S
C611 Sm601 2.846 1_565 S
C611 C612 1.506 . S
C611 O626 1.261 . S
C611 O627 1.242 1_565 S
C612 C611 1.506 . S
C612 C613 1.358 . S
C612 C617 1.382 . S
C613 C612 1.358 . S
C613 C614 1.385 . S
C613 H636 0.930 . S
C614 C613 1.385 . S
C614 C615 1.395 . S
C614 H637 0.929 . S
C615 C614 1.395 . S
C615 C616 1.335 . S
C616 C615 1.335 . S
C616 C617 1.398 . S
C616 H638 0.930 . S
C617 C612 1.382 . S
C617 C616 1.398 . S
C617 H639 0.929 1_565 S
C618 O628 1.271 . S
C618 O629 1.251 . S
C619 O630 1.252 . S
C619 O631 1.272 . S
O620 Sm600 2.543 . S
O620 C602 1.261 . S
O621 Sm600 2.450 . S
O621 C602 1.242 . S
O622 Sm600 2.681 . S
O622 Sm601 2.386 . S
O622 C609 1.271 1_545 S
O623 Sm600 2.464 . S
O623 C609 1.251 1_545 S
O624 Sm600 2.396 . S
O624 C610 1.252 . S
O625 Sm601 2.408 . S
O625 C610 1.272 . S
O626 Sm601 2.543 1_565 S
O626 C611 1.261 . S
O627 Sm601 2.450 . S
O627 C611 1.242 1_545 S
O628 Sm600 2.386 . S
O628 Sm601 2.681 . S
O628 C618 1.271 . S
O629 Sm601 2.464 . S
O629 C618 1.251 . S
O630 Sm601 2.396 . S
O630 C619 1.252 . S
O631 Sm600 2.408 . S
O631 C619 1.272 . S
H632 C604 0.930 . S
H633 C605 0.929 . S
H634 C607 0.930 . S
H635 C608 0.929 . S
H636 C613 0.930 . S
H637 C614 0.929 . S
H638 C616 0.930 . S
H639 C617 0.929 1_545 S
C640 C641 1.369 . S
C640 C642 1.419 . S
C640 H644 0.930 . S
C641 C640 1.369 . S
C641 C650 1.429 . S
C642 C640 1.419 . S
C642 C643 1.363 . S
C642 H645 0.929 . S
C643 C642 1.363 . S
C643 C649 1.428 . S
H644 C640 0.930 . S
H645 C642 0.929 . S
S646 N647 1.613 . S
S646 N648 1.610 . S
N647 S646 1.613 . S
N647 C650 1.350 . S
N648 S646 1.610 . S
N648 C649 1.351 . S
C649 C643 1.428 . S
C649 N648 1.351 . S
C649 C650 1.434 . S
C650 C641 1.429 . S
C650 N647 1.350 . S
C650 C649 1.434 . S
C651 C652 1.369 . S
C651 C653 1.419 . S
C651 H655 0.930 . S
C652 C651 1.369 . S
C652 C661 1.429 . S
C653 C651 1.419 . S
C653 C654 1.363 . S
C653 H656 0.929 . S
C654 C653 1.363 . S
C654 C660 1.428 . S
H655 C651 0.930 . S
H656 C653 0.929 . S
S657 N658 1.613 . S
S657 N659 1.610 . S
N658 S657 1.613 . S
N658 C661 1.350 . S
N659 S657 1.610 . S
N659 C660 1.351 . S
C660 C654 1.428 . S
C660 N659 1.351 . S
C660 C661 1.434 . S
C661 C652 1.429 . S
C661 N658 1.350 . S
C661 C660 1.434 . S
C662 C663 1.369 . S
C662 C664 1.419 1_455 S
C662 H666 0.930 . S
C663 C662 1.369 . S
C663 C672 1.429 . S
C664 C662 1.419 1_655 S
C664 C665 1.363 . S
C664 H667 0.929 . S
C665 C664 1.363 . S
C665 C671 1.428 . S
H666 C662 0.930 . S
H667 C664 0.929 . S
S668 N669 1.613 1_655 S
S668 N670 1.610 . S
N669 S668 1.613 1_455 S
N669 C672 1.350 . S
N670 S668 1.610 . S
N670 C671 1.351 . S
C671 C665 1.428 . S
C671 N670 1.351 . S
C671 C672 1.434 1_655 S
C672 C663 1.429 . S
C672 N669 1.350 . S
C672 C671 1.434 1_455 S
C673 C674 1.369 1_655 S
C673 C675 1.419 . S
C673 H677 0.930 . S
C674 C673 1.369 1_455 S
C674 C683 1.429 . S
C675 C673 1.419 . S
C675 C676 1.363 . S
C675 H678 0.929 . S
C676 C675 1.363 . S
C676 C682 1.428 1_655 S
H677 C673 0.930 . S
H678 C675 0.929 . S
S679 N680 1.613 . S
S679 N681 1.610 . S
N680 S679 1.613 . S
N680 C683 1.350 . S
N681 S679 1.610 . S
N681 C682 1.351 . S
C682 C676 1.428 1_455 S
C682 N681 1.351 . S
C682 C683 1.434 . S
C683 C674 1.429 . S
C683 N680 1.350 . S
C683 C682 1.434 . S
C684 C685 1.369 . S
C684 C686 1.419 . S
C684 H688 0.930 . S
C685 C684 1.369 . S
C685 C694 1.429 . S
C686 C684 1.419 . S
C686 C687 1.363 . S
C686 H689 0.929 . S
C687 C686 1.363 . S
C687 C693 1.428 . S
H688 C684 0.930 . S
H689 C686 0.929 . S
S690 N691 1.613 . S
S690 N692 1.610 . S
N691 S690 1.613 . S
N691 C694 1.350 . S
N692 S690 1.610 . S
N692 C693 1.351 . S
C693 C687 1.428 . S
C693 N692 1.351 . S
C693 C694 1.434 . S
C694 C685 1.429 . S
C694 N691 1.350 . S
C694 C693 1.434 . S
C695 C696 1.369 . S
C695 C697 1.419 . S
C695 H699 0.930 . S
C696 C695 1.369 . S
C696 C705 1.429 . S
C697 C695 1.419 . S
C697 C698 1.363 . S
C697 H700 0.929 . S
C698 C697 1.363 . S
C698 C704 1.428 . S
H699 C695 0.930 . S
H700 C697 0.929 . S
S701 N702 1.613 . S
S701 N703 1.610 . S
N702 S701 1.613 . S
N702 C705 1.350 . S
N703 S701 1.610 . S
N703 C704 1.351 . S
C704 C698 1.428 . S
C704 N703 1.351 . S
C704 C705 1.434 . S
C705 C696 1.429 . S
C705 N702 1.350 . S
C705 C704 1.434 . S
C706 C707 1.369 . S
C706 C708 1.419 1_455 S
C706 H710 0.930 . S
C707 C706 1.369 . S
C707 C716 1.429 . S
C708 C706 1.419 1_655 S
C708 C709 1.363 . S
C708 H711 0.929 . S
C709 C708 1.363 . S
C709 C715 1.428 . S
H710 C706 0.930 . S
H711 C708 0.929 . S
S712 N713 1.613 . S
S712 N714 1.610 1_455 S
N713 S712 1.613 . S
N713 C716 1.350 . S
N714 S712 1.610 1_655 S
N714 C715 1.351 . S
C715 C709 1.428 . S
C715 N714 1.351 . S
C715 C716 1.434 1_655 S
C716 C707 1.429 . S
C716 N713 1.350 . S
C716 C715 1.434 1_455 S
C717 C718 1.369 . S
C717 C719 1.419 . S
C717 H721 0.930 . S
C718 C717 1.369 . S
C718 C727 1.429 1_455 S
C719 C717 1.419 . S
C719 C720 1.363 1_455 S
C719 H722 0.929 . S
C720 C719 1.363 1_655 S
C720 C726 1.428 . S
H721 C717 0.930 . S
H722 C719 0.929 . S
S723 N724 1.613 . S
S723 N725 1.610 . S
N724 S723 1.613 . S
N724 C727 1.350 . S
N725 S723 1.610 . S
N725 C726 1.351 . S
C726 C720 1.428 . S
C726 N725 1.351 . S
C726 C727 1.434 . S
C727 C718 1.429 1_655 S
C727 N724 1.350 . S
C727 C726 1.434 . S
C728 C729 1.369 1_544 S
C728 C730 1.419 . S
C728 H732 0.930 . S
C729 C728 1.369 1_566 S
C729 C738 1.429 . S
C730 C728 1.419 . S
C730 C731 1.363 . S
C730 H733 0.929 . S
C731 C730 1.363 . S
C731 C737 1.428 1_544 S
H732 C728 0.930 . S
H733 C730 0.929 . S
S734 N735 1.613 . S
S734 N736 1.610 . S
N735 S734 1.613 . S
N735 C738 1.350 . S
N736 S734 1.610 . S
N736 C737 1.351 . S
C737 C731 1.428 1_566 S
C737 N736 1.351 . S
C737 C738 1.434 . S
C738 C729 1.429 . S
C738 N735 1.350 . S
C738 C737 1.434 . S
C739 C740 1.369 . S
C739 C741 1.419 . S
C739 H743 0.930 . S
C740 C739 1.369 . S
C740 C749 1.429 . S
C741 C739 1.419 . S
C741 C742 1.363 . S
C741 H744 0.929 . S
C742 C741 1.363 . S
C742 C748 1.428 . S
H743 C739 0.930 . S
H744 C741 0.929 . S
S745 N746 1.613 . S
S745 N747 1.610 . S
N746 S745 1.613 . S
N746 C749 1.350 . S
N747 S745 1.610 . S
N747 C748 1.351 . S
C748 C742 1.428 . S
C748 N747 1.351 . S
C748 C749 1.434 . S
C749 C740 1.429 . S
C749 N746 1.350 . S
C749 C748 1.434 . S
C750 C751 1.369 . S
C750 C752 1.419 1_455 S
C750 H754 0.930 . S
C751 C750 1.369 . S
C751 C760 1.429 1_545 S
C752 C750 1.419 1_655 S
C752 C753 1.363 1_545 S
C752 H755 0.929 . S
C753 C752 1.363 1_565 S
C753 C759 1.430 1_655 S
H754 C750 0.930 . S
H755 C752 0.929 . S
S756 N757 1.613 . S
S756 N758 1.610 . S
N757 S756 1.613 . S
N757 C760 1.350 . S
N758 S756 1.610 . S
N758 C759 1.351 . S
C759 C753 1.430 1_455 S
C759 N758 1.351 . S
C759 C760 1.432 . S
C760 C751 1.429 1_565 S
C760 N757 1.350 . S
C760 C759 1.432 . S
C761 C762 1.369 . S
C761 C763 1.419 . S
C761 H765 0.930 . S
C762 C761 1.369 . S
C762 C771 1.429 . S
C763 C761 1.419 . S
C763 C764 1.363 . S
C763 H766 0.929 . S
C764 C763 1.363 . S
C764 C770 1.428 . S
H765 C761 0.930 . S
H766 C763 0.929 . S
S767 N768 1.613 . S
S767 N769 1.610 . S
N768 S767 1.613 . S
N768 C771 1.350 . S
N769 S767 1.610 . S
N769 C770 1.351 . S
C770 C764 1.428 . S
C770 N769 1.351 . S
C770 C771 1.434 . S
C771 C762 1.429 . S
C771 N768 1.350 . S
C771 C770 1.434 . S
C772 C773 1.369 . S
C772 C774 1.419 . S
C772 H776 0.930 . S
C773 C772 1.369 . S
C773 C782 1.429 . S
C774 C772 1.419 . S
C774 C775 1.363 . S
C774 H777 0.929 . S
C775 C774 1.363 . S
C775 C781 1.428 . S
H776 C772 0.930 . S
H777 C774 0.929 . S
S778 N779 1.613 . S
S778 N780 1.610 . S
N779 S778 1.613 . S
N779 C782 1.350 . S
N780 S778 1.610 . S
N780 C781 1.351 . S
C781 C775 1.428 . S
C781 N780 1.351 . S
C781 C782 1.434 . S
C782 C773 1.429 . S
C782 N779 1.350 . S
C782 C781 1.434 . S
C783 C784 1.369 . S
C783 C785 1.419 . S
C783 H787 0.930 . S
C784 C783 1.369 . S
C784 C793 1.429 . S
C785 C783 1.419 . S
C785 C786 1.363 . S
C785 H788 0.929 . S
C786 C785 1.363 . S
C786 C792 1.428 . S
H787 C783 0.930 . S
H788 C785 0.929 . S
S789 N790 1.613 . S
S789 N791 1.610 . S
N790 S789 1.613 . S
N790 C793 1.350 . S
N791 S789 1.610 . S
N791 C792 1.351 . S
C792 C786 1.428 . S
C792 N791 1.351 . S
C792 C793 1.434 . S
C793 C784 1.429 . S
C793 N790 1.350 . S
C793 C792 1.434 . S
C794 C795 1.369 . S
C794 C796 1.419 1_455 S
C794 H798 0.930 . S
C795 C794 1.369 . S
C795 C804 1.427 1_455 S
C796 C794 1.419 1_655 S
C796 C797 1.363 . S
C796 H799 0.930 . S
C797 C796 1.363 . S
C797 C803 1.428 . S
H798 C794 0.930 . S
H799 C796 0.930 . S
S800 N801 1.613 . S
S800 N802 1.610 . S
N801 S800 1.613 . S
N801 C804 1.350 . S
N802 S800 1.610 . S
N802 C803 1.351 . S
C803 C797 1.428 . S
C803 N802 1.351 . S
C803 C804 1.436 . S
C804 C795 1.427 1_655 S
C804 N801 1.350 . S
C804 C803 1.436 . S
C805 C806 1.369 1_554 S
C805 C807 1.419 . S
C805 H809 0.930 . S
C806 C805 1.369 1_556 S
C806 C815 1.429 . S
C807 C805 1.419 . S
C807 C808 1.363 . S
C807 H810 0.929 . S
C808 C807 1.363 . S
C808 C814 1.428 1_554 S
H809 C805 0.930 . S
H810 C807 0.929 . S
S811 N812 1.613 . S
S811 N813 1.610 . S
N812 S811 1.613 . S
N812 C815 1.350 . S
N813 S811 1.610 . S
N813 C814 1.351 . S
C814 C808 1.428 1_556 S
C814 N813 1.351 . S
C814 C815 1.434 . S
C815 C806 1.429 . S
C815 N812 1.350 . S
C815 C814 1.434 . S
C816 C817 1.369 . S
C816 C818 1.419 . S
C816 H820 0.930 . S
C817 C816 1.369 . S
C817 C826 1.429 . S
C818 C816 1.419 . S
C818 C819 1.363 . S
C818 H821 0.929 . S
C819 C818 1.363 . S
C819 C825 1.428 . S
H820 C816 0.930 . S
H821 C818 0.929 . S
S822 N823 1.613 . S
S822 N824 1.610 . S
N823 S822 1.613 . S
N823 C826 1.350 . S
N824 S822 1.610 . S
N824 C825 1.351 . S
C825 C819 1.428 . S
C825 N824 1.351 . S
C825 C826 1.434 . S
C826 C817 1.429 . S
C826 N823 1.350 . S
C826 C825 1.434 . S
C827 C828 1.369 . S
C827 C829 1.419 . S
C827 H831 0.930 . S
C828 C827 1.369 . S
C828 C837 1.429 . S
C829 C827 1.419 . S
C829 C830 1.363 . S
C829 H832 0.929 . S
C830 C829 1.363 . S
C830 C836 1.428 . S
H831 C827 0.930 . S
H832 C829 0.929 . S
S833 N834 1.613 . S
S833 N835 1.610 . S
N834 S833 1.613 . S
N834 C837 1.350 . S
N835 S833 1.610 . S
N835 C836 1.351 . S
C836 C830 1.428 . S
C836 N835 1.351 . S
C836 C837 1.434 . S
C837 C828 1.429 . S
C837 N834 1.350 . S
C837 C836 1.434 . S
C838 C839 1.369 . S
C838 C840 1.419 . S
C838 H842 0.930 . S
C839 C838 1.369 . S
C839 C848 1.429 . S
C840 C838 1.419 . S
C840 C841 1.363 . S
C840 H843 0.929 . S
C841 C840 1.363 . S
C841 C847 1.428 . S
H842 C838 0.930 . S
H843 C840 0.929 . S
S844 N845 1.613 . S
S844 N846 1.610 . S
N845 S844 1.613 . S
N845 C848 1.350 . S
N846 S844 1.610 . S
N846 C847 1.351 . S
C847 C841 1.428 . S
C847 N846 1.351 . S
C847 C848 1.434 . S
C848 C839 1.429 . S
C848 N845 1.350 . S
C848 C847 1.434 . S
C849 C850 1.369 . S
C849 C851 1.419 . S
C849 H853 0.930 . S
C850 C849 1.369 . S
C850 C859 1.429 . S
C851 C849 1.419 . S
C851 C852 1.363 . S
C851 H854 0.929 . S
C852 C851 1.363 . S
C852 C858 1.428 . S
H853 C849 0.930 . S
H854 C851 0.929 . S
S855 N856 1.613 . S
S855 N857 1.610 . S
N856 S855 1.613 . S
N856 C859 1.350 . S
N857 S855 1.610 . S
N857 C858 1.351 . S
C858 C852 1.428 . S
C858 N857 1.351 . S
C858 C859 1.434 . S
C859 C850 1.429 . S
C859 N856 1.350 . S
C859 C858 1.434 . S
C860 C861 1.369 . S
C860 C862 1.419 . S
C860 H864 0.930 . S
C861 C860 1.369 . S
C861 C870 1.429 . S
C862 C860 1.419 . S
C862 C863 1.363 . S
C862 H865 0.929 . S
C863 C862 1.363 . S
C863 C869 1.428 . S
H864 C860 0.930 . S
H865 C862 0.929 . S
S866 N867 1.613 . S
S866 N868 1.610 . S
N867 S866 1.613 . S
N867 C870 1.350 . S
N868 S866 1.610 . S
N868 C869 1.351 . S
C869 C863 1.428 . S
C869 N868 1.351 . S
C869 C870 1.434 . S
C870 C861 1.429 . S
C870 N867 1.350 . S
C870 C869 1.434 . S
C871 C872 1.369 . S
C871 C873 1.419 . S
C871 H875 0.930 . S
C872 C871 1.369 . S
C872 C881 1.429 . S
C873 C871 1.419 . S
C873 C874 1.363 . S
C873 H876 0.929 . S
C874 C873 1.363 . S
C874 C880 1.428 . S
H875 C871 0.930 . S
H876 C873 0.929 . S
S877 N878 1.613 . S
S877 N879 1.610 . S
N878 S877 1.613 . S
N878 C881 1.350 . S
N879 S877 1.610 . S
N879 C880 1.351 . S
C880 C874 1.428 . S
C880 N879 1.351 . S
C880 C881 1.434 . S
C881 C872 1.429 . S
C881 N878 1.350 . S
C881 C880 1.434 . S
C882 C883 1.369 . S
C882 C884 1.419 . S
C882 H886 0.930 . S
C883 C882 1.369 . S
C883 C892 1.429 . S
C884 C882 1.419 . S
C884 C885 1.363 . S
C884 H887 0.929 . S
C885 C884 1.363 . S
C885 C891 1.428 . S
H886 C882 0.930 . S
H887 C884 0.929 . S
S888 N889 1.613 . S
S888 N890 1.610 . S
N889 S888 1.613 . S
N889 C892 1.350 . S
N890 S888 1.610 . S
N890 C891 1.351 . S
C891 C885 1.428 . S
C891 N890 1.351 . S
C891 C892 1.434 . S
C892 C883 1.429 . S
C892 N889 1.350 . S
C892 C891 1.434 . S
C893 C894 1.369 . S
C893 C895 1.419 . S
C893 H897 0.930 . S
C894 C893 1.369 . S
C894 C903 1.429 . S
C895 C893 1.419 . S
C895 C896 1.363 . S
C895 H898 0.929 . S
C896 C895 1.363 . S
C896 C902 1.428 . S
H897 C893 0.930 . S
H898 C895 0.929 . S
S899 N900 1.613 . S
S899 N901 1.610 . S
N900 S899 1.613 . S
N900 C903 1.350 . S
N901 S899 1.610 . S
N901 C902 1.351 . S
C902 C896 1.428 . S
C902 N901 1.351 . S
C902 C903 1.434 . S
C903 C894 1.429 . S
C903 N900 1.350 . S
C903 C902 1.434 . S
C904 C905 1.369 . S
C904 C906 1.419 . S
C904 H908 0.930 . S
C905 C904 1.369 . S
C905 C914 1.429 . S
C906 C904 1.419 . S
C906 C907 1.363 . S
C906 H909 0.929 . S
C907 C906 1.363 . S
C907 C913 1.428 . S
H908 C904 0.930 . S
H909 C906 0.929 . S
S910 N911 1.613 . S
S910 N912 1.610 . S
N911 S910 1.613 . S
N911 C914 1.350 . S
N912 S910 1.610 . S
N912 C913 1.351 . S
C913 C907 1.428 . S
C913 N912 1.351 . S
C913 C914 1.434 . S
C914 C905 1.429 . S
C914 N911 1.350 . S
C914 C913 1.434 . S
C915 C916 1.369 . S
C915 C917 1.419 . S
C915 H919 0.930 . S
C916 C915 1.369 . S
C916 C925 1.429 . S
C917 C915 1.419 . S
C917 C918 1.363 . S
C917 H920 0.929 . S
C918 C917 1.363 . S
C918 C924 1.428 . S
H919 C915 0.930 . S
H920 C917 0.929 . S
S921 N922 1.613 . S
S921 N923 1.610 . S
N922 S921 1.613 . S
N922 C925 1.350 . S
N923 S921 1.610 . S
N923 C924 1.351 . S
C924 C918 1.428 . S
C924 N923 1.351 . S
C924 C925 1.434 . S
C925 C916 1.429 . S
C925 N922 1.350 . S
C925 C924 1.434 . S
C926 C927 1.369 . S
C926 C928 1.419 . S
C926 H930 0.930 . S
C927 C926 1.369 . S
C927 C936 1.429 . S
C928 C926 1.419 . S
C928 C929 1.363 . S
C928 H931 0.929 . S
C929 C928 1.363 . S
C929 C935 1.428 . S
H930 C926 0.930 . S
H931 C928 0.929 . S
S932 N933 1.613 . S
S932 N934 1.610 . S
N933 S932 1.613 . S
N933 C936 1.350 . S
N934 S932 1.610 . S
N934 C935 1.351 . S
C935 C929 1.428 . S
C935 N934 1.351 . S
C935 C936 1.434 . S
C936 C927 1.429 . S
C936 N933 1.350 . S
C936 C935 1.434 . S
C937 C938 1.369 . S
C937 C939 1.419 . S
C937 H941 0.930 . S
C938 C937 1.369 . S
C938 C947 1.429 . S
C939 C937 1.419 . S
C939 C940 1.363 . S
C939 H942 0.929 . S
C940 C939 1.363 . S
C940 C946 1.428 . S
H941 C937 0.930 . S
H942 C939 0.929 . S
S943 N944 1.613 . S
S943 N945 1.610 . S
N944 S943 1.613 . S
N944 C947 1.350 . S
N945 S943 1.610 . S
N945 C946 1.351 . S
C946 C940 1.428 . S
C946 N945 1.351 . S
C946 C947 1.434 . S
C947 C938 1.429 . S
C947 N944 1.350 . S
C947 C946 1.434 . S
C948 C949 1.369 . S
C948 C950 1.419 . S
C948 H952 0.930 . S
C949 C948 1.369 . S
C949 C958 1.429 . S
C950 C948 1.419 . S
C950 C951 1.363 . S
C950 H953 0.929 . S
C951 C950 1.363 . S
C951 C957 1.428 . S
H952 C948 0.930 . S
H953 C950 0.929 . S
S954 N955 1.613 . S
S954 N956 1.610 . S
N955 S954 1.613 . S
N955 C958 1.350 . S
N956 S954 1.610 . S
N956 C957 1.351 . S
C957 C951 1.428 . S
C957 N956 1.351 . S
C957 C958 1.434 . S
C958 C949 1.429 . S
C958 N955 1.350 . S
C958 C957 1.434 . S
C959 C960 1.369 . S
C959 C961 1.419 . S
C959 H963 0.930 . S
C960 C959 1.369 . S
C960 C969 1.429 . S
C961 C959 1.419 . S
C961 C962 1.363 . S
C961 H964 0.929 . S
C962 C961 1.363 . S
C962 C968 1.428 . S
H963 C959 0.930 . S
H964 C961 0.929 . S
S965 N966 1.613 . S
S965 N967 1.610 . S
N966 S965 1.613 . S
N966 C969 1.350 . S
N967 S965 1.610 . S
N967 C968 1.351 . S
C968 C962 1.428 . S
C968 N967 1.351 . S
C968 C969 1.434 . S
C969 C960 1.429 . S
C969 N966 1.350 . S
C969 C968 1.434 . S
C970 C971 1.369 . S
C970 C972 1.419 . S
C970 H974 0.930 . S
C971 C970 1.369 . S
C971 C980 1.429 . S
C972 C970 1.419 . S
C972 C973 1.363 . S
C972 H975 0.929 . S
C973 C972 1.363 . S
C973 C979 1.428 . S
H974 C970 0.930 . S
H975 C972 0.929 . S
S976 N977 1.613 . S
S976 N978 1.610 . S
N977 S976 1.613 . S
N977 C980 1.350 . S
N978 S976 1.610 . S
N978 C979 1.351 . S
C979 C973 1.428 . S
C979 N978 1.351 . S
C979 C980 1.434 . S
C980 C971 1.429 . S
C980 N977 1.350 . S
C980 C979 1.434 . S
C981 C982 1.369 . S
C981 C983 1.419 . S
C981 H985 0.930 . S
C982 C981 1.369 . S
C982 C991 1.429 . S
C983 C981 1.419 . S
C983 C984 1.363 . S
C983 H986 0.929 . S
C984 C983 1.363 . S
C984 C990 1.428 . S
H985 C981 0.930 . S
H986 C983 0.929 . S
S987 N988 1.613 . S
S987 N989 1.610 . S
N988 S987 1.613 . S
N988 C991 1.350 . S
N989 S987 1.610 . S
N989 C990 1.351 . S
C990 C984 1.428 . S
C990 N989 1.351 . S
C990 C991 1.434 . S
C991 C982 1.429 . S
C991 N988 1.350 . S
C991 C990 1.434 . S
C992 C993 1.369 . S
C992 C994 1.419 . S
C992 H996 0.930 . S
C993 C992 1.369 . S
C993 C1002 1.429 . S
C994 C992 1.419 . S
C994 C995 1.363 . S
C994 H997 0.929 . S
C995 C994 1.363 . S
C995 C1001 1.428 . S
H996 C992 0.930 . S
H997 C994 0.929 . S
S998 N999 1.613 . S
S998 N1000 1.610 1_554 S
N999 S998 1.613 . S
N999 C1002 1.350 1_554 S
N1000 S998 1.610 1_556 S
N1000 C1001 1.351 . S
C1001 C995 1.428 . S
C1001 N1000 1.351 . S
C1001 C1002 1.434 . S
C1002 C993 1.429 . S
C1002 N999 1.350 1_556 S
C1002 C1001 1.434 . S
C1003 C1004 1.369 . S
C1003 C1005 1.419 . S
C1003 H1007 0.930 . S
C1004 C1003 1.369 . S
C1004 C1013 1.429 . S
C1005 C1003 1.419 . S
C1005 C1006 1.363 . S
C1005 H1008 0.929 . S
C1006 C1005 1.363 . S
C1006 C1012 1.428 . S
H1007 C1003 0.930 . S
H1008 C1005 0.929 . S
S1009 N1010 1.613 . S
S1009 N1011 1.610 . S
N1010 S1009 1.613 . S
N1010 C1013 1.350 . S
N1011 S1009 1.610 . S
N1011 C1012 1.351 . S
C1012 C1006 1.428 . S
C1012 N1011 1.351 . S
C1012 C1013 1.434 . S
C1013 C1004 1.429 . S
C1013 N1010 1.350 . S
C1013 C1012 1.434 . S
C1014 C1015 1.369 . S
C1014 C1016 1.419 . S
C1014 H1018 0.930 . S
C1015 C1014 1.369 . S
C1015 C1024 1.429 . S
C1016 C1014 1.419 . S
C1016 C1017 1.363 . S
C1016 H1019 0.929 . S
C1017 C1016 1.363 . S
C1017 C1023 1.428 . S
H1018 C1014 0.930 . S
H1019 C1016 0.929 . S
S1020 N1021 1.613 . S
S1020 N1022 1.610 . S
N1021 S1020 1.613 . S
N1021 C1024 1.350 . S
N1022 S1020 1.610 . S
N1022 C1023 1.351 . S
C1023 C1017 1.428 . S
C1023 N1022 1.351 . S
C1023 C1024 1.434 . S
C1024 C1015 1.429 . S
C1024 N1021 1.350 . S
C1024 C1023 1.434 . S
C1025 C1026 1.369 . S
C1025 C1027 1.419 . S
C1025 H1029 0.930 . S
C1026 C1025 1.369 . S
C1026 C1035 1.429 . S
C1027 C1025 1.419 . S
C1027 C1028 1.363 . S
C1027 H1030 0.929 . S
C1028 C1027 1.363 . S
C1028 C1034 1.428 . S
H1029 C1025 0.930 . S
H1030 C1027 0.929 . S
S1031 N1032 1.613 . S
S1031 N1033 1.610 . S
N1032 S1031 1.613 . S
N1032 C1035 1.350 . S
N1033 S1031 1.610 . S
N1033 C1034 1.351 . S
C1034 C1028 1.428 . S
C1034 N1033 1.351 . S
C1034 C1035 1.434 . S
C1035 C1026 1.429 . S
C1035 N1032 1.350 . S
C1035 C1034 1.434 . S
C1036 C1037 1.369 . S
C1036 C1038 1.419 . S
C1036 H1040 0.930 . S
C1037 C1036 1.369 . S
C1037 C1046 1.429 . S
C1038 C1036 1.419 . S
C1038 C1039 1.363 . S
C1038 H1041 0.929 1_554 S
C1039 C1038 1.363 . S
C1039 C1045 1.428 . S
H1040 C1036 0.930 . S
H1041 C1038 0.929 1_556 S
S1042 N1043 1.613 . S
S1042 N1044 1.610 . S
N1043 S1042 1.613 . S
N1043 C1046 1.350 . S
N1044 S1042 1.610 . S
N1044 C1045 1.351 . S
C1045 C1039 1.428 . S
C1045 N1044 1.351 . S
C1045 C1046 1.434 . S
C1046 C1037 1.429 . S
C1046 N1043 1.350 . S
C1046 C1045 1.434 . S
C1047 C1048 1.369 . S
C1047 C1049 1.419 . S
C1047 H1051 0.930 . S
C1048 C1047 1.369 . S
C1048 C1057 1.429 . S
C1049 C1047 1.419 . S
C1049 C1050 1.363 . S
C1049 H1052 0.929 . S
C1050 C1049 1.363 . S
C1050 C1056 1.428 . S
H1051 C1047 0.930 . S
H1052 C1049 0.929 . S
S1053 N1054 1.613 . S
S1053 N1055 1.610 . S
N1054 S1053 1.613 . S
N1054 C1057 1.350 . S
N1055 S1053 1.610 . S
N1055 C1056 1.351 . S
C1056 C1050 1.428 . S
C1056 N1055 1.351 . S
C1056 C1057 1.434 . S
C1057 C1048 1.429 . S
C1057 N1054 1.350 . S
C1057 C1056 1.434 . S
C1058 C1059 1.369 . S
C1058 C1060 1.419 . S
C1058 H1062 0.930 . S
C1059 C1058 1.369 . S
C1059 C1068 1.429 . S
C1060 C1058 1.419 . S
C1060 C1061 1.363 . S
C1060 H1063 0.929 . S
C1061 C1060 1.363 . S
C1061 C1067 1.428 . S
H1062 C1058 0.930 . S
H1063 C1060 0.929 . S
S1064 N1065 1.613 . S
S1064 N1066 1.610 . S
N1065 S1064 1.613 . S
N1065 C1068 1.350 . S
N1066 S1064 1.610 . S
N1066 C1067 1.351 . S
C1067 C1061 1.428 . S
C1067 N1066 1.351 . S
C1067 C1068 1.434 . S
C1068 C1059 1.429 . S
C1068 N1065 1.350 . S
C1068 C1067 1.434 . S
C1069 C1070 1.369 . S
C1069 C1071 1.419 . S
C1069 H1073 0.930 . S
C1070 C1069 1.369 . S
C1070 C1079 1.429 . S
C1071 C1069 1.419 . S
C1071 C1072 1.363 . S
C1071 H1074 0.929 . S
C1072 C1071 1.363 . S
C1072 C1078 1.428 . S
H1073 C1069 0.930 . S
H1074 C1071 0.929 . S
S1075 N1076 1.613 . S
S1075 N1077 1.610 . S
N1076 S1075 1.613 . S
N1076 C1079 1.350 . S
N1077 S1075 1.610 . S
N1077 C1078 1.351 . S
C1078 C1072 1.428 . S
C1078 N1077 1.351 . S
C1078 C1079 1.434 . S
C1079 C1070 1.429 . S
C1079 N1076 1.350 . S
C1079 C1078 1.434 . S
C1080 C1081 1.369 . S
C1080 C1082 1.419 . S
C1080 H1084 0.930 . S
C1081 C1080 1.369 . S
C1081 C1090 1.429 . S
C1082 C1080 1.419 . S
C1082 C1083 1.363 . S
C1082 H1085 0.929 . S
C1083 C1082 1.363 . S
C1083 C1089 1.428 . S
H1084 C1080 0.930 . S
H1085 C1082 0.929 . S
S1086 N1087 1.613 . S
S1086 N1088 1.610 . S
N1087 S1086 1.613 . S
N1087 C1090 1.350 . S
N1088 S1086 1.610 . S
N1088 C1089 1.351 . S
C1089 C1083 1.428 . S
C1089 N1088 1.351 . S
C1089 C1090 1.434 . S
C1090 C1081 1.429 . S
C1090 N1087 1.350 . S
C1090 C1089 1.434 . S
C1091 C1092 1.369 . S
C1091 C1093 1.419 . S
C1091 H1095 0.930 . S
C1092 C1091 1.369 . S
C1092 C1101 1.429 . S
C1093 C1091 1.419 . S
C1093 C1094 1.363 . S
C1093 H1096 0.929 . S
C1094 C1093 1.363 . S
C1094 C1100 1.428 . S
H1095 C1091 0.930 . S
H1096 C1093 0.929 . S
S1097 N1098 1.613 . S
S1097 N1099 1.610 . S
N1098 S1097 1.613 . S
N1098 C1101 1.350 . S
N1099 S1097 1.610 . S
N1099 C1100 1.351 . S
C1100 C1094 1.428 . S
C1100 N1099 1.351 . S
C1100 C1101 1.434 . S
C1101 C1092 1.429 . S
C1101 N1098 1.350 . S
C1101 C1100 1.434 . S
C1102 C1103 1.369 . S
C1102 C1104 1.419 . S
C1102 H1106 0.930 . S
C1103 C1102 1.369 . S
C1103 C1112 1.429 . S
C1104 C1102 1.419 . S
C1104 C1105 1.363 . S
C1104 H1107 0.929 . S
C1105 C1104 1.363 . S
C1105 C1111 1.428 . S
H1106 C1102 0.930 . S
H1107 C1104 0.929 . S
S1108 N1109 1.613 . S
S1108 N1110 1.610 . S
N1109 S1108 1.613 . S
N1109 C1112 1.350 . S
N1110 S1108 1.610 . S
N1110 C1111 1.351 . S
C1111 C1105 1.428 . S
C1111 N1110 1.351 . S
C1111 C1112 1.434 . S
C1112 C1103 1.429 . S
C1112 N1109 1.350 . S
C1112 C1111 1.434 . S
C1113 C1114 1.369 . S
C1113 C1115 1.419 . S
C1113 H1117 0.930 . S
C1114 C1113 1.369 . S
C1114 C1123 1.429 . S
C1115 C1113 1.419 . S
C1115 C1116 1.363 . S
C1115 H1118 0.929 . S
C1116 C1115 1.363 . S
C1116 C1122 1.428 . S
H1117 C1113 0.930 . S
H1118 C1115 0.929 . S
S1119 N1120 1.613 . S
S1119 N1121 1.610 . S
N1120 S1119 1.613 . S
N1120 C1123 1.350 . S
N1121 S1119 1.610 . S
N1121 C1122 1.351 . S
C1122 C1116 1.428 . S
C1122 N1121 1.351 . S
C1122 C1123 1.434 . S
C1123 C1114 1.429 . S
C1123 N1120 1.350 . S
C1123 C1122 1.434 . S
C1124 C1125 1.369 . S
C1124 C1126 1.419 . S
C1124 H1128 0.930 . S
C1125 C1124 1.369 . S
C1125 C1134 1.429 . S
C1126 C1124 1.419 . S
C1126 C1127 1.363 . S
C1126 H1129 0.929 . S
C1127 C1126 1.363 . S
C1127 C1133 1.428 . S
H1128 C1124 0.930 . S
H1129 C1126 0.929 . S
S1130 N1131 1.613 . S
S1130 N1132 1.610 . S
N1131 S1130 1.613 . S
N1131 C1134 1.350 . S
N1132 S1130 1.610 . S
N1132 C1133 1.351 . S
C1133 C1127 1.428 . S
C1133 N1132 1.351 . S
C1133 C1134 1.434 . S
C1134 C1125 1.429 . S
C1134 N1131 1.350 . S
C1134 C1133 1.434 . S
C1135 C1136 1.369 . S
C1135 C1137 1.419 . S
C1135 H1139 0.930 . S
C1136 C1135 1.369 . S
C1136 C1145 1.429 . S
C1137 C1135 1.419 . S
C1137 C1138 1.363 . S
C1137 H1140 0.929 . S
C1138 C1137 1.363 . S
C1138 C1144 1.428 . S
H1139 C1135 0.930 . S
H1140 C1137 0.929 . S
S1141 N1142 1.613 1_565 S
S1141 N1143 1.610 . S
N1142 S1141 1.613 1_545 S
N1142 C1145 1.350 . S
N1143 S1141 1.610 . S
N1143 C1144 1.351 1_565 S
C1144 C1138 1.428 . S
C1144 N1143 1.351 1_545 S
C1144 C1145 1.434 . S
C1145 C1136 1.429 . S
C1145 N1142 1.350 . S
C1145 C1144 1.434 . S
C1146 C1147 1.369 . S
C1146 C1148 1.419 . S
C1146 H1150 0.930 . S
C1147 C1146 1.369 . S
C1147 C1156 1.429 . S
C1148 C1146 1.419 . S
C1148 C1149 1.363 . S
C1148 H1151 0.929 . S
C1149 C1148 1.363 . S
C1149 C1155 1.428 . S
H1150 C1146 0.930 . S
H1151 C1148 0.929 . S
S1152 N1153 1.613 . S
S1152 N1154 1.610 . S
N1153 S1152 1.613 . S
N1153 C1156 1.350 . S
N1154 S1152 1.610 . S
N1154 C1155 1.351 . S
C1155 C1149 1.428 . S
C1155 N1154 1.351 . S
C1155 C1156 1.434 . S
C1156 C1147 1.429 . S
C1156 N1153 1.350 . S
C1156 C1155 1.434 . S
C1157 C1158 1.369 . S
C1157 C1159 1.419 . S
C1157 H1161 0.930 . S
C1158 C1157 1.369 . S
C1158 C1167 1.429 . S
C1159 C1157 1.419 . S
C1159 C1160 1.363 . S
C1159 H1162 0.929 . S
C1160 C1159 1.363 . S
C1160 C1166 1.428 . S
H1161 C1157 0.930 . S
H1162 C1159 0.929 . S
S1163 N1164 1.613 1_545 S
S1163 N1165 1.610 . S
N1164 S1163 1.613 1_565 S
N1164 C1167 1.350 . S
N1165 S1163 1.610 . S
N1165 C1166 1.351 1_545 S
C1166 C1160 1.428 . S
C1166 N1165 1.351 1_565 S
C1166 C1167 1.434 . S
C1167 C1158 1.429 . S
C1167 N1164 1.350 . S
C1167 C1166 1.434 . S
C641 C9 2.996 . S
C643 C409 2.997 . S
C652 C49 2.994 . S
C654 C449 2.997 . S
C663 C89 2.995 . S
C665 C329 2.995 . S
C674 C369 2.997 . S
C676 C129 2.994 . S
C685 C178 2.994 . S
C687 C578 2.997 . S
C696 C618 2.996 . S
C698 C218 2.996 . S
C707 C498 2.994 . S
C709 C258 2.996 . S
C718 C298 2.994 . S
C720 C538 2.997 . S
C729 C15 1.454 1_556 S
C731 C166 1.444 1_554 S
C740 C55 1.457 . S
C742 C526 1.443 . S
C751 C95 1.445 . S
C753 C246 1.452 . S
C762 C135 1.457 . S
C764 C606 1.443 . S
C773 C206 1.457 . S
C775 C375 1.442 . S
C784 C455 1.451 . S
C786 C286 1.446 . S
C795 C486 1.457 . S
C797 C335 1.442 . S
C806 C415 1.457 1_556 S
C808 C566 1.442 1_554 S
C817 C6 1.588 . S
C819 C289 1.880 . S
C828 C46 1.582 . S
C830 C489 1.881 . S
C839 C86 1.588 . S
C841 C209 1.877 . S
C850 C126 1.599 . S
C852 C569 1.874 . S
C861 C138 1.883 . S
C863 C175 1.588 . S
C872 C215 1.582 . S
C874 C338 1.881 . S
C883 C255 1.599 . S
C885 C58 1.875 . S
C894 C418 1.879 . S
C896 C295 1.585 . S
C905 C326 1.585 . S
C907 C609 1.879 . S
C916 C169 1.883 . S
C918 C366 1.586 . S
C927 C529 1.880 . S
C929 C406 1.591 . S
C938 C249 1.882 . S
C940 C446 1.589 . S
C949 C495 1.583 . S
C951 C458 1.880 . S
C960 C535 1.598 . S
C962 C18 1.874 . S
C971 C378 1.880 . S
C973 C575 1.592 . S
C982 C615 1.593 . S
C984 C98 1.879 . S
C993 C19 4.039 1_556 S
C995 C370 4.090 . S
C1004 C410 4.085 . S
C1006 C59 4.043 . S
C1015 C99 4.038 . S
C1017 C450 4.090 . S
C1026 C330 4.089 . S
C1028 C139 4.040 . S
C1037 C539 4.086 . S
C1039 C170 4.043 1_554 S
C1048 C579 4.086 . S
C1050 C210 4.042 . S
C1059 C619 4.090 . S
C1061 C250 4.040 . S
C1070 C499 4.086 . S
C1072 C290 4.042 . S
C1081 C50 4.088 . S
C1083 C339 4.040 . S
C1092 C90 4.090 . S
C1094 C379 4.039 1_565 S
C1103 C130 4.089 . S
C1105 C419 4.040 1_556 S
C1114 C459 4.040 1_545 S
C1116 C10 4.089 . S
C1125 C219 4.090 . S
C1127 C490 4.039 . S
C1136 C259 4.087 . S
C1138 C530 4.042 1_545 S
C1147 C299 4.087 . S
C1149 C570 4.041 1_554 S
C1158 C179 4.086 . S
C1160 C610 4.043 1_565 S
