# Generated by pormake.
# Topology lta, (4)-cn, num edge types: 1
# Building blocks:
#     Node 0, Type 0, BuildingBlock: CEKHIL_clean_sbu_0, # of connection points: 4
#     Node 1, Type 0, BuildingBlock: CEKHIL_clean_sbu_0, # of connection points: 4
#     Node 2, Type 0, BuildingBlock: CEKHIL_clean_sbu_0, # of connection points: 4
#     Node 3, Type 0, BuildingBlock: CEKHIL_clean_sbu_0, # of connection points: 4
#     Node 4, Type 0, BuildingBlock: CEKHIL_clean_sbu_0, # of connection points: 4
#     Node 5, Type 0, BuildingBlock: CEKHIL_clean_sbu_0, # of connection points: 4
#     Node 6, Type 0, BuildingBlock: CEKHIL_clean_sbu_0, # of connection points: 4
#     Node 7, Type 0, BuildingBlock: CEKHIL_clean_sbu_0, # of connection points: 4
#     Node 8, Type 0, BuildingBlock: CEKHIL_clean_sbu_0, # of connection points: 4
#     Node 9, Type 0, BuildingBlock: CEKHIL_clean_sbu_0, # of connection points: 4
#     Node 10, Type 0, BuildingBlock: CEKHIL_clean_sbu_0, # of connection points: 4
#     Node 11, Type 0, BuildingBlock: CEKHIL_clean_sbu_0, # of connection points: 4
#     Node 12, Type 0, BuildingBlock: CEKHIL_clean_sbu_0, # of connection points: 4
#     Node 13, Type 0, BuildingBlock: CEKHIL_clean_sbu_0, # of connection points: 4
#     Node 14, Type 0, BuildingBlock: CEKHIL_clean_sbu_0, # of connection points: 4
#     Node 15, Type 0, BuildingBlock: CEKHIL_clean_sbu_0, # of connection points: 4
#     Node 16, Type 0, BuildingBlock: CEKHIL_clean_sbu_0, # of connection points: 4
#     Node 17, Type 0, BuildingBlock: CEKHIL_clean_sbu_0, # of connection points: 4
#     Node 18, Type 0, BuildingBlock: CEKHIL_clean_sbu_0, # of connection points: 4
#     Node 19, Type 0, BuildingBlock: CEKHIL_clean_sbu_0, # of connection points: 4
#     Node 20, Type 0, BuildingBlock: CEKHIL_clean_sbu_0, # of connection points: 4
#     Node 21, Type 0, BuildingBlock: CEKHIL_clean_sbu_0, # of connection points: 4
#     Node 22, Type 0, BuildingBlock: CEKHIL_clean_sbu_0, # of connection points: 4
#     Node 23, Type 0, BuildingBlock: CEKHIL_clean_sbu_0, # of connection points: 4
#     Edge 24, Type (0, 0), BuildingBlock: OJICUG_clean_linker_0, # of connection points: 2
#     Edge 25, Type (0, 0), BuildingBlock: OJICUG_clean_linker_0, # of connection points: 2
#     Edge 26, Type (0, 0), BuildingBlock: OJICUG_clean_linker_0, # of connection points: 2
#     Edge 27, Type (0, 0), BuildingBlock: OJICUG_clean_linker_0, # of connection points: 2
#     Edge 28, Type (0, 0), BuildingBlock: OJICUG_clean_linker_0, # of connection points: 2
#     Edge 29, Type (0, 0), BuildingBlock: OJICUG_clean_linker_0, # of connection points: 2
#     Edge 30, Type (0, 0), BuildingBlock: OJICUG_clean_linker_0, # of connection points: 2
#     Edge 31, Type (0, 0), BuildingBlock: OJICUG_clean_linker_0, # of connection points: 2
#     Edge 32, Type (0, 0), BuildingBlock: OJICUG_clean_linker_0, # of connection points: 2
#     Edge 33, Type (0, 0), BuildingBlock: OJICUG_clean_linker_0, # of connection points: 2
#     Edge 34, Type (0, 0), BuildingBlock: OJICUG_clean_linker_0, # of connection points: 2
#     Edge 35, Type (0, 0), BuildingBlock: OJICUG_clean_linker_0, # of connection points: 2
#     Edge 36, Type (0, 0), BuildingBlock: OJICUG_clean_linker_0, # of connection points: 2
#     Edge 37, Type (0, 0), BuildingBlock: OJICUG_clean_linker_0, # of connection points: 2
#     Edge 38, Type (0, 0), BuildingBlock: OJICUG_clean_linker_0, # of connection points: 2
#     Edge 39, Type (0, 0), BuildingBlock: OJICUG_clean_linker_0, # of connection points: 2
#     Edge 40, Type (0, 0), BuildingBlock: OJICUG_clean_linker_0, # of connection points: 2
#     Edge 41, Type (0, 0), BuildingBlock: OJICUG_clean_linker_0, # of connection points: 2
#     Edge 42, Type (0, 0), BuildingBlock: OJICUG_clean_linker_0, # of connection points: 2
#     Edge 43, Type (0, 0), BuildingBlock: OJICUG_clean_linker_0, # of connection points: 2
#     Edge 44, Type (0, 0), BuildingBlock: OJICUG_clean_linker_0, # of connection points: 2
#     Edge 45, Type (0, 0), BuildingBlock: OJICUG_clean_linker_0, # of connection points: 2
#     Edge 46, Type (0, 0), BuildingBlock: OJICUG_clean_linker_0, # of connection points: 2
#     Edge 47, Type (0, 0), BuildingBlock: OJICUG_clean_linker_0, # of connection points: 2
#     Edge 48, Type (0, 0), BuildingBlock: OJICUG_clean_linker_0, # of connection points: 2
#     Edge 49, Type (0, 0), BuildingBlock: OJICUG_clean_linker_0, # of connection points: 2
#     Edge 50, Type (0, 0), BuildingBlock: OJICUG_clean_linker_0, # of connection points: 2
#     Edge 51, Type (0, 0), BuildingBlock: OJICUG_clean_linker_0, # of connection points: 2
#     Edge 52, Type (0, 0), BuildingBlock: OJICUG_clean_linker_0, # of connection points: 2
#     Edge 53, Type (0, 0), BuildingBlock: OJICUG_clean_linker_0, # of connection points: 2
#     Edge 54, Type (0, 0), BuildingBlock: OJICUG_clean_linker_0, # of connection points: 2
#     Edge 55, Type (0, 0), BuildingBlock: OJICUG_clean_linker_0, # of connection points: 2
#     Edge 56, Type (0, 0), BuildingBlock: OJICUG_clean_linker_0, # of connection points: 2
#     Edge 57, Type (0, 0), BuildingBlock: OJICUG_clean_linker_0, # of connection points: 2
#     Edge 58, Type (0, 0), BuildingBlock: OJICUG_clean_linker_0, # of connection points: 2
#     Edge 59, Type (0, 0), BuildingBlock: OJICUG_clean_linker_0, # of connection points: 2
#     Edge 60, Type (0, 0), BuildingBlock: OJICUG_clean_linker_0, # of connection points: 2
#     Edge 61, Type (0, 0), BuildingBlock: OJICUG_clean_linker_0, # of connection points: 2
#     Edge 62, Type (0, 0), BuildingBlock: OJICUG_clean_linker_0, # of connection points: 2
#     Edge 63, Type (0, 0), BuildingBlock: OJICUG_clean_linker_0, # of connection points: 2
#     Edge 64, Type (0, 0), BuildingBlock: OJICUG_clean_linker_0, # of connection points: 2
#     Edge 65, Type (0, 0), BuildingBlock: OJICUG_clean_linker_0, # of connection points: 2
#     Edge 66, Type (0, 0), BuildingBlock: OJICUG_clean_linker_0, # of connection points: 2
#     Edge 67, Type (0, 0), BuildingBlock: OJICUG_clean_linker_0, # of connection points: 2
#     Edge 68, Type (0, 0), BuildingBlock: OJICUG_clean_linker_0, # of connection points: 2
#     Edge 69, Type (0, 0), BuildingBlock: OJICUG_clean_linker_0, # of connection points: 2
#     Edge 70, Type (0, 0), BuildingBlock: OJICUG_clean_linker_0, # of connection points: 2
#     Edge 71, Type (0, 0), BuildingBlock: OJICUG_clean_linker_0, # of connection points: 2
# Relax obj value: 0.287
# Max RMSD: 0.168
# Mean RMSD: 0.168
data_MOF--net-lta--node1-CEKHIL_clean_sbu_0--edge1-OJICUG_clean_linker_0
_symmetry_space_group_name_H-M    P1
_symmetry_Int_Tables_number       1
_symmetry_cell_setting            triclinic
loop_
_symmetry_equiv_pos_as_xyz
'x, y, z'
_cell_length_a     40.757235
_cell_length_b     40.733255
_cell_length_c     40.743324
_cell_angle_alpha  89.945461
_cell_angle_beta   90.006974
_cell_angle_gamma 90.013737
loop_
_atom_site_label
_atom_site_type_symbol
_atom_site_fract_x
_atom_site_fract_y
_atom_site_fract_z
_atom_type_partial_charge
Co0 Co 0.14104 0.3201 0.49042 0.0
O1 O 0.18595 0.30656 0.48763 0.0
O2 O 0.14564 0.27422 0.50395 0.0
C3 C 0.14154 0.34466 0.44037 0.0
O4 O 0.09138 0.3262 0.49605 0.0
Co5 Co 0.12544 0.39539 0.48695 0.0
O6 O 0.07963 0.38026 0.49217 0.0
C7 C 0.15237 0.36608 0.54767 0.0
C8 C 0.17676 0.27779 0.4975 0.0
C9 C 0.07109 0.35051 0.49698 0.0
O10 O 0.14801 0.33657 0.53701 0.0
O11 O 0.14861 0.39181 0.53002 0.0
O12 O 0.1358 0.31337 0.44253 0.0
O13 O 0.14816 0.35912 0.46752 0.0
Co14 Co 0.68615 0.14378 0.49079 0.0
O15 O 0.6988 0.18905 0.48881 0.0
O16 O 0.73221 0.14893 0.50326 0.0
C17 C 0.66039 0.14552 0.44138 0.0
O18 O 0.68131 0.0938 0.49539 0.0
Co19 Co 0.61144 0.12603 0.48848 0.0
O20 O 0.62766 0.08045 0.49198 0.0
C21 C 0.64131 0.15213 0.54938 0.0
C22 C 0.72797 0.18013 0.4976 0.0
C23 C 0.65768 0.07272 0.49614 0.0
O24 O 0.67068 0.14927 0.53791 0.0
O25 O 0.61533 0.14766 0.53231 0.0
O26 O 0.69177 0.14011 0.44262 0.0
O27 O 0.64644 0.15079 0.46909 0.0
Co28 Co 0.864 0.6852 0.49152 0.0
O29 O 0.81892 0.69807 0.49449 0.0
O30 O 0.86048 0.73197 0.50198 0.0
C31 C 0.85599 0.65725 0.44404 0.0
O32 O 0.91413 0.68013 0.4898 0.0
Co33 Co 0.88252 0.61087 0.48981 0.0
O34 O 0.92587 0.62789 0.47634 0.0
C35 C 0.86742 0.64363 0.55328 0.0
C36 C 0.82884 0.72767 0.50027 0.0
C37 C 0.93472 0.65735 0.48205 0.0
O38 O 0.86435 0.67212 0.5397 0.0
O39 O 0.87243 0.617 0.53742 0.0
O40 O 0.86182 0.68858 0.44314 0.0
O41 O 0.85423 0.64446 0.47282 0.0
Co42 Co 0.32083 0.86495 0.49019 0.0
O43 O 0.30715 0.81998 0.48964 0.0
O44 O 0.27464 0.86124 0.50285 0.0
C45 C 0.34646 0.86144 0.44082 0.0
O46 O 0.3272 0.91482 0.49337 0.0
Co47 Co 0.3963 0.87983 0.48738 0.0
O48 O 0.38131 0.92596 0.48897 0.0
C49 C 0.36528 0.85812 0.54949 0.0
C50 C 0.27826 0.82977 0.49836 0.0
C51 C 0.35165 0.93497 0.49332 0.0
O52 O 0.33608 0.86061 0.53749 0.0
O53 O 0.39154 0.86131 0.53257 0.0
O54 O 0.31522 0.8676 0.44192 0.0
O55 O 0.36024 0.85627 0.46864 0.0
Co56 Co 0.14235 0.68714 0.51753 0.0
O57 O 0.18729 0.70074 0.52007 0.0
O58 O 0.14684 0.73295 0.50383 0.0
C59 C 0.14299 0.66264 0.56762 0.0
O60 O 0.09267 0.68111 0.51208 0.0
Co61 Co 0.1265 0.61192 0.52118 0.0
O62 O 0.08071 0.62712 0.51599 0.0
C63 C 0.15346 0.64102 0.46036 0.0
C64 C 0.178 0.72944 0.51008 0.0
C65 C 0.07228 0.65689 0.51119 0.0
O66 O 0.14913 0.67056 0.47096 0.0
O67 O 0.14968 0.61535 0.47809 0.0
O68 O 0.13729 0.69393 0.56543 0.0
O69 O 0.14949 0.64814 0.54047 0.0
Co70 Co 0.32005 0.14305 0.51768 0.0
O71 O 0.30633 0.18796 0.51656 0.0
O72 O 0.27388 0.14621 0.50475 0.0
C73 C 0.34526 0.14815 0.56702 0.0
O74 O 0.32654 0.09306 0.51686 0.0
Co75 Co 0.3952 0.12766 0.52165 0.0
O76 O 0.37918 0.08261 0.53013 0.0
C77 C 0.36492 0.14738 0.45843 0.0
C78 C 0.27743 0.17782 0.50826 0.0
C79 C 0.35013 0.07298 0.52354 0.0
O80 O 0.33562 0.14594 0.47035 0.0
O81 O 0.39104 0.14384 0.47552 0.0
O82 O 0.31403 0.14199 0.56587 0.0
O83 O 0.35934 0.15248 0.53917 0.0
Co84 Co 0.86262 0.32391 0.51521 0.0
O85 O 0.81752 0.31104 0.51172 0.0
O86 O 0.85924 0.27722 0.50467 0.0
C87 C 0.85427 0.35188 0.56262 0.0
O88 O 0.91272 0.32875 0.51742 0.0
Co89 Co 0.88165 0.39806 0.51719 0.0
O90 O 0.92483 0.38087 0.531 0.0
C91 C 0.86681 0.36552 0.45354 0.0
C92 C 0.82758 0.28148 0.50593 0.0
C93 C 0.93345 0.35134 0.52535 0.0
O94 O 0.86345 0.33703 0.46706 0.0
O95 O 0.87189 0.39209 0.46949 0.0
O96 O 0.85996 0.32053 0.56356 0.0
O97 O 0.85284 0.3647 0.53383 0.0
Co98 Co 0.68666 0.86417 0.51742 0.0
O99 O 0.69929 0.81892 0.51565 0.0
O100 O 0.73297 0.86009 0.50535 0.0
C101 C 0.66043 0.85803 0.56611 0.0
O102 O 0.68181 0.91439 0.51758 0.0
Co103 Co 0.61246 0.88293 0.52103 0.0
O104 O 0.63004 0.92669 0.53236 0.0
C105 C 0.64254 0.86342 0.45754 0.0
C106 C 0.72866 0.82853 0.50838 0.0
C107 C 0.65934 0.93526 0.52554 0.0
O108 O 0.67174 0.86264 0.46983 0.0
O109 O 0.61651 0.86844 0.47435 0.0
O110 O 0.69178 0.86368 0.5657 0.0
O111 O 0.64665 0.85529 0.53789 0.0
Co112 Co 0.49028 0.14307 0.32175 0.0
O113 O 0.48924 0.188 0.30809 0.0
O114 O 0.50244 0.14697 0.27536 0.0
C115 C 0.44111 0.1464 0.34778 0.0
O116 O 0.49376 0.09321 0.32821 0.0
Co117 Co 0.4882 0.12838 0.39732 0.0
O118 O 0.48927 0.08224 0.38237 0.0
C119 C 0.55004 0.14994 0.36565 0.0
C120 C 0.49759 0.17839 0.27904 0.0
C121 C 0.49363 0.07313 0.35274 0.0
O122 O 0.5377 0.14765 0.33656 0.0
O123 O 0.53343 0.1466 0.3921 0.0
O124 O 0.44201 0.14016 0.31655 0.0
O125 O 0.46901 0.15172 0.36132 0.0
Co126 Co 0.86512 0.49045 0.3192 0.0
O127 O 0.82014 0.48796 0.30572 0.0
O128 O 0.86041 0.50497 0.27367 0.0
C129 C 0.86486 0.43992 0.34272 0.0
O130 O 0.9148 0.496 0.32522 0.0
Co131 Co 0.88112 0.48541 0.39434 0.0
O132 O 0.92687 0.49091 0.3791 0.0
C133 C 0.85368 0.54658 0.36647 0.0
C134 C 0.82929 0.49851 0.27718 0.0
C135 C 0.93524 0.49636 0.34942 0.0
O136 O 0.85817 0.53666 0.33672 0.0
O137 O 0.85749 0.52832 0.39175 0.0
O138 O 0.87039 0.4427 0.31145 0.0
O139 O 0.85825 0.46674 0.35775 0.0
Co140 Co 0.51714 0.86489 0.32115 0.0
O141 O 0.51617 0.82001 0.30741 0.0
O142 O 0.5046 0.86175 0.27483 0.0
C143 C 0.56627 0.85974 0.3468 0.0
O144 O 0.51629 0.91485 0.32771 0.0
Co145 Co 0.52033 0.87996 0.3964 0.0
O146 O 0.52905 0.92503 0.38054 0.0
C147 C 0.45741 0.86056 0.36544 0.0
C148 C 0.5081 0.83013 0.27843 0.0
C149 C 0.52279 0.93481 0.35145 0.0
O150 O 0.46968 0.862 0.33627 0.0
O151 O 0.47419 0.86401 0.39176 0.0
O152 O 0.56536 0.86596 0.31556 0.0
O153 O 0.53831 0.85534 0.36062 0.0
Co154 Co 0.14356 0.51635 0.32238 0.0
O155 O 0.18867 0.51317 0.30954 0.0
O156 O 0.14703 0.50517 0.27583 0.0
C157 C 0.15143 0.56425 0.34963 0.0
O158 O 0.09345 0.51809 0.32735 0.0
Co159 Co 0.12498 0.51907 0.39665 0.0
O160 O 0.08147 0.53181 0.37947 0.0
C161 C 0.14094 0.45529 0.36499 0.0
C162 C 0.17868 0.50685 0.28008 0.0
C163 C 0.07274 0.52587 0.35002 0.0
O164 O 0.14329 0.46838 0.33621 0.0
O165 O 0.13618 0.47159 0.3914 0.0
O166 O 0.1457 0.56469 0.31828 0.0
O167 O 0.15324 0.53565 0.36283 0.0
Co168 Co 0.49064 0.86562 0.68582 0.0
O169 O 0.4888 0.82061 0.69923 0.0
O170 O 0.50278 0.86132 0.7321 0.0
C171 C 0.44145 0.8632 0.65973 0.0
O172 O 0.49502 0.9155 0.67996 0.0
Co173 Co 0.48895 0.88154 0.61063 0.0
O174 O 0.49229 0.92746 0.62591 0.0
C175 C 0.54965 0.85649 0.64169 0.0
C176 C 0.49738 0.83001 0.7283 0.0
C177 C 0.4961 0.93597 0.65578 0.0
O178 O 0.53789 0.86009 0.67087 0.0
O179 O 0.5328 0.86011 0.61543 0.0
O180 O 0.44242 0.86922 0.69101 0.0
O181 O 0.46928 0.85773 0.64613 0.0
Co182 Co 0.14322 0.49082 0.68561 0.0
O183 O 0.18834 0.49344 0.69848 0.0
O184 O 0.14684 0.50191 0.73221 0.0
C185 C 0.15061 0.44285 0.65836 0.0
O186 O 0.09309 0.48958 0.68061 0.0
Co187 Co 0.1246 0.48829 0.61136 0.0
O188 O 0.08108 0.4756 0.62857 0.0
C189 C 0.14114 0.55195 0.64303 0.0
C190 C 0.17846 0.49974 0.72798 0.0
C191 C 0.07237 0.48173 0.65798 0.0
O192 O 0.14349 0.53882 0.6718 0.0
O193 O 0.13612 0.5357 0.61663 0.0
O194 O 0.14483 0.44246 0.68969 0.0
O195 O 0.15271 0.47143 0.64516 0.0
Co196 Co 0.51637 0.1444 0.68625 0.0
O197 O 0.51403 0.18937 0.69967 0.0
O198 O 0.50439 0.14743 0.73266 0.0
C199 C 0.56487 0.15145 0.65989 0.0
O200 O 0.51705 0.09432 0.68044 0.0
Co201 Co 0.51966 0.12739 0.61157 0.0
O202 O 0.53085 0.08316 0.62813 0.0
C203 C 0.45623 0.14561 0.64249 0.0
C204 C 0.50679 0.17911 0.72884 0.0
C205 C 0.52457 0.07395 0.65738 0.0
O206 O 0.4687 0.14567 0.67162 0.0
O207 O 0.47292 0.14152 0.61621 0.0
O208 O 0.56466 0.14525 0.69115 0.0
O209 O 0.53656 0.15426 0.64632 0.0
Co210 Co 0.86487 0.51865 0.68754 0.0
O211 O 0.81988 0.52175 0.7008 0.0
O212 O 0.85976 0.50427 0.73307 0.0
C213 C 0.86528 0.56914 0.66395 0.0
O214 O 0.91451 0.51253 0.68185 0.0
Co215 Co 0.88148 0.52341 0.61255 0.0
O216 O 0.92708 0.51754 0.62809 0.0
C217 C 0.85309 0.46257 0.64026 0.0
C218 C 0.82876 0.51124 0.72944 0.0
C219 C 0.93515 0.51202 0.65783 0.0
O220 O 0.85744 0.47248 0.67003 0.0
O221 O 0.85737 0.48076 0.61499 0.0
O222 O 0.87065 0.56633 0.69525 0.0
O223 O 0.85848 0.54236 0.64891 0.0
Co224 Co 0.3207 0.49078 0.14322 0.0
O225 O 0.30775 0.48889 0.18838 0.0
O226 O 0.27473 0.5037 0.14805 0.0
C227 C 0.34587 0.44107 0.14467 0.0
O228 O 0.326 0.49532 0.09337 0.0
Co229 Co 0.39571 0.48782 0.12646 0.0
O230 O 0.37979 0.49125 0.08074 0.0
C231 C 0.3659 0.54949 0.1508 0.0
C232 C 0.27872 0.49796 0.17927 0.0
C233 C 0.34991 0.49576 0.07263 0.0
O234 O 0.33652 0.53784 0.14861 0.0
O235 O 0.3919 0.53241 0.14651 0.0
O236 O 0.31452 0.44271 0.13927 0.0
O237 O 0.36011 0.46856 0.15041 0.0
Co238 Co 0.32054 0.51741 0.86445 0.0
O239 O 0.30783 0.51557 0.81926 0.0
O240 O 0.27424 0.50522 0.86048 0.0
C241 C 0.34662 0.56621 0.85861 0.0
O242 O 0.32567 0.51763 0.91457 0.0
Co243 Co 0.39504 0.52097 0.88247 0.0
O244 O 0.37765 0.53222 0.92633 0.0
C245 C 0.36449 0.45724 0.86447 0.0
C246 C 0.27851 0.50821 0.82891 0.0
C247 C 0.3484 0.52549 0.93519 0.0
O248 O 0.33542 0.46978 0.86313 0.0
O249 O 0.39065 0.47393 0.8693 0.0
O250 O 0.31526 0.56566 0.86412 0.0
O251 O 0.36046 0.53806 0.85551 0.0
Co252 Co 0.48999 0.32116 0.86551 0.0
O253 O 0.48743 0.30783 0.82054 0.0
O254 O 0.50267 0.27505 0.86092 0.0
C255 C 0.44044 0.34663 0.86437 0.0
O256 O 0.49522 0.32702 0.91526 0.0
Co257 Co 0.48774 0.39644 0.88128 0.0
O258 O 0.49194 0.38107 0.92713 0.0
C259 C 0.54843 0.36603 0.8555 0.0
C260 C 0.49662 0.27885 0.82973 0.0
C261 C 0.49627 0.35124 0.93564 0.0
O262 O 0.53696 0.33672 0.85915 0.0
O263 O 0.53139 0.39212 0.85937 0.0
O264 O 0.44194 0.31531 0.87017 0.0
O265 O 0.46795 0.36061 0.85815 0.0
Co266 Co 0.6851 0.491 0.86376 0.0
O267 O 0.69878 0.49286 0.81884 0.0
O268 O 0.73151 0.50308 0.86079 0.0
C269 C 0.6589 0.44233 0.85714 0.0
O270 O 0.67884 0.49089 0.91384 0.0
Co271 Co 0.6102 0.48793 0.87982 0.0
O272 O 0.62614 0.47823 0.92461 0.0
C273 C 0.64125 0.55092 0.86039 0.0
C274 C 0.72785 0.50037 0.82912 0.0
C275 C 0.65537 0.48422 0.93407 0.0
O276 O 0.67041 0.53863 0.86175 0.0
O277 O 0.61494 0.53412 0.86391 0.0
O278 O 0.69011 0.44266 0.86355 0.0
O279 O 0.64536 0.47059 0.85384 0.0
Co280 Co 0.51668 0.68729 0.86383 0.0
O281 O 0.51535 0.70051 0.81875 0.0
O282 O 0.50386 0.73342 0.86023 0.0
C283 C 0.56585 0.66187 0.8586 0.0
O284 O 0.51614 0.68161 0.91389 0.0
Co285 Co 0.52076 0.61255 0.88099 0.0
O286 O 0.53037 0.62944 0.92545 0.0
C287 C 0.45751 0.64233 0.86052 0.0
C288 C 0.50723 0.72955 0.82866 0.0
C289 C 0.52353 0.65863 0.93444 0.0
O290 O 0.46937 0.67171 0.86132 0.0
O291 O 0.47461 0.61633 0.8648 0.0
O292 O 0.56486 0.69319 0.8644 0.0
O293 O 0.53794 0.64775 0.85486 0.0
Co294 Co 0.68587 0.51803 0.14223 0.0
O295 O 0.69982 0.51954 0.1871 0.0
O296 O 0.73193 0.50492 0.14601 0.0
C297 C 0.66084 0.56779 0.14479 0.0
O298 O 0.67927 0.51377 0.0924 0.0
Co299 Co 0.61053 0.52116 0.12747 0.0
O300 O 0.62515 0.51793 0.08132 0.0
C301 C 0.64068 0.45992 0.15234 0.0
C302 C 0.72855 0.51023 0.17737 0.0
C303 C 0.65477 0.51339 0.0723 0.0
O304 O 0.67001 0.47106 0.14803 0.0
O305 O 0.61474 0.47734 0.14921 0.0
O306 O 0.69202 0.56617 0.13844 0.0
O307 O 0.64676 0.54023 0.15058 0.0
Co308 Co 0.49085 0.68722 0.14263 0.0
O309 O 0.49018 0.70065 0.18763 0.0
O310 O 0.50235 0.73375 0.14649 0.0
C311 C 0.44213 0.66031 0.14671 0.0
O312 O 0.49389 0.68137 0.0927 0.0
Co313 Co 0.48952 0.61192 0.12686 0.0
O314 O 0.49098 0.6273 0.08088 0.0
C315 C 0.55116 0.64404 0.14843 0.0
C316 C 0.49795 0.72988 0.17795 0.0
C317 C 0.49448 0.6572 0.07226 0.0
O318 O 0.53853 0.67305 0.1466 0.0
O319 O 0.53479 0.61747 0.14484 0.0
O320 O 0.44244 0.69158 0.14049 0.0
O321 O 0.47034 0.64716 0.15132 0.0
Co322 Co 0.51675 0.32175 0.14391 0.0
O323 O 0.5142 0.30849 0.18893 0.0
O324 O 0.50516 0.27521 0.14717 0.0
C325 C 0.56499 0.34856 0.15117 0.0
O326 O 0.51777 0.32732 0.09383 0.0
Co327 Co 0.51976 0.39638 0.12632 0.0
O328 O 0.53157 0.3796 0.08238 0.0
C329 C 0.45621 0.36503 0.14362 0.0
C330 C 0.50737 0.27917 0.17883 0.0
C331 C 0.52541 0.35028 0.07335 0.0
O332 O 0.46895 0.33602 0.14462 0.0
O333 O 0.47273 0.39139 0.13928 0.0
O334 O 0.56508 0.31726 0.14519 0.0
O335 O 0.53656 0.36191 0.15365 0.0
C336 C 0.17265 0.40653 0.38109 0.0
C337 C 0.14303 0.41958 0.36948 0.0
H338 H 0.19519 0.37119 0.41283 0.0
C339 C 0.11378 0.40201 0.37474 0.0
H340 H 0.19532 0.42012 0.37815 0.0
C341 C 0.11366 0.37392 0.39467 0.0
C342 C 0.14281 0.36333 0.40953 0.0
H343 H 0.09053 0.4122 0.36681 0.0
H344 H 0.09041 0.36296 0.40147 0.0
C345 C 0.17251 0.37865 0.40111 0.0
C346 C 0.63241 0.12255 0.392 0.0
C347 C 0.64145 0.1498 0.41095 0.0
H348 H 0.59555 0.10184 0.36057 0.0
C349 C 0.62486 0.17967 0.40646 0.0
H350 H 0.64445 0.09911 0.39564 0.0
C351 C 0.59716 0.18132 0.38638 0.0
C352 C 0.5856 0.15307 0.37056 0.0
H353 H 0.63123 0.20088 0.42119 0.0
H354 H 0.58256 0.20355 0.38646 0.0
C355 C 0.60455 0.12421 0.3718 0.0
C356 C 0.87465 0.63176 0.39131 0.0
C357 C 0.85011 0.63668 0.41496 0.0
H358 H 0.89438 0.59845 0.3555 0.0
C359 C 0.82253 0.61608 0.41514 0.0
H360 H 0.89635 0.64712 0.39113 0.0
C361 C 0.82115 0.58875 0.39463 0.0
C362 C 0.8475 0.58138 0.3738 0.0
H363 H 0.80337 0.61942 0.43329 0.0
H364 H 0.80128 0.57135 0.39781 0.0
C365 C 0.87336 0.60409 0.37077 0.0
C366 C 0.38314 0.82869 0.40582 0.0
C367 C 0.36577 0.85806 0.41054 0.0
H368 H 0.42606 0.80612 0.38572 0.0
C369 C 0.37428 0.88582 0.39201 0.0
H370 H 0.37719 0.80711 0.42024 0.0
C371 C 0.40235 0.88517 0.37205 0.0
C372 C 0.42194 0.85678 0.37052 0.0
H373 H 0.36162 0.90888 0.39584 0.0
H374 H 0.41087 0.9079 0.36114 0.0
C375 C 0.41097 0.82802 0.38589 0.0
C376 C 0.11454 0.60549 0.63318 0.0
C377 C 0.14361 0.58764 0.63852 0.0
H378 H 0.09161 0.64477 0.60641 0.0
C379 C 0.17337 0.60041 0.62695 0.0
H380 H 0.09117 0.59552 0.64106 0.0
C381 C 0.17354 0.62829 0.60693 0.0
C382 C 0.14401 0.64392 0.59846 0.0
H383 H 0.1959 0.58661 0.62994 0.0
H384 H 0.19632 0.63554 0.59525 0.0
C385 C 0.11474 0.63359 0.61326 0.0
C386 C 0.38199 0.17929 0.60351 0.0
C387 C 0.36466 0.15017 0.59734 0.0
H388 H 0.42481 0.2009 0.62492 0.0
C389 C 0.37328 0.12149 0.61433 0.0
H390 H 0.37601 0.20154 0.59019 0.0
C391 C 0.40135 0.12114 0.63427 0.0
C392 C 0.42079 0.1495 0.63743 0.0
H393 H 0.3607 0.09861 0.60927 0.0
H394 H 0.40995 0.09789 0.64394 0.0
C395 C 0.40978 0.17899 0.62355 0.0
C396 C 0.82013 0.42086 0.61186 0.0
C397 C 0.84645 0.42786 0.63288 0.0
H398 H 0.80215 0.39049 0.57306 0.0
C399 C 0.87195 0.40477 0.63606 0.0
H400 H 0.80054 0.43855 0.60856 0.0
C401 C 0.87296 0.37709 0.6155 0.0
C402 C 0.84851 0.37253 0.59168 0.0
H403 H 0.89295 0.41011 0.65147 0.0
H404 H 0.89444 0.36143 0.61583 0.0
C405 C 0.82124 0.39353 0.59133 0.0
C406 C 0.60594 0.87869 0.63705 0.0
C407 C 0.5849 0.85131 0.63632 0.0
H408 H 0.64769 0.90231 0.61491 0.0
C409 C 0.59435 0.82345 0.61851 0.0
H410 H 0.59862 0.90081 0.64987 0.0
C411 C 0.62204 0.82445 0.59843 0.0
C412 C 0.64082 0.85322 0.59601 0.0
H413 H 0.57817 0.80238 0.617 0.0
H414 H 0.62683 0.80389 0.58225 0.0
C415 C 0.63388 0.87967 0.6169 0.0
C416 C 0.3717 0.12313 0.40321 0.0
C417 C 0.37043 0.15136 0.42304 0.0
H418 H 0.39542 0.09943 0.36242 0.0
C419 C 0.38638 0.17995 0.41248 0.0
H420 H 0.36034 0.10051 0.41143 0.0
C421 C 0.40656 0.17921 0.38483 0.0
C422 C 0.41094 0.14994 0.36722 0.0
H423 H 0.38639 0.20172 0.42776 0.0
H424 H 0.42133 0.20062 0.37919 0.0
C425 C 0.3919 0.12242 0.3753 0.0
C426 C 0.83543 0.37904 0.4037 0.0
C427 C 0.86532 0.36946 0.41774 0.0
H428 H 0.81204 0.40905 0.36739 0.0
C429 C 0.89467 0.37629 0.4009 0.0
H430 H 0.81261 0.37488 0.41671 0.0
C431 C 0.89438 0.39587 0.3726 0.0
C432 C 0.86472 0.40883 0.36101 0.0
H433 H 0.91807 0.36992 0.41182 0.0
H434 H 0.91749 0.40404 0.36229 0.0
C435 C 0.83515 0.39873 0.37556 0.0
C436 C 0.61394 0.88634 0.3743 0.0
C437 C 0.59645 0.85776 0.36643 0.0
H438 H 0.64421 0.91022 0.41021 0.0
C439 C 0.60229 0.82894 0.38438 0.0
H440 H 0.60918 0.90902 0.36121 0.0
C441 C 0.62261 0.82947 0.41197 0.0
C442 C 0.63707 0.85895 0.42221 0.0
H443 H 0.58863 0.80676 0.37897 0.0
H444 H 0.62379 0.80785 0.42745 0.0
C445 C 0.63412 0.88696 0.4022 0.0
C446 C 0.18628 0.61457 0.41733 0.0
C447 C 0.1594 0.63444 0.4254 0.0
H448 H 0.20468 0.57669 0.38605 0.0
C449 C 0.13303 0.63679 0.40321 0.0
H450 H 0.20654 0.61188 0.43436 0.0
C451 C 0.13186 0.61641 0.37543 0.0
C452 C 0.15705 0.59362 0.36984 0.0
H453 H 0.11162 0.65127 0.40941 0.0
H454 H 0.10981 0.61592 0.36058 0.0
C455 C 0.18505 0.59423 0.38986 0.0
C456 C 0.38709 0.8269 0.59623 0.0
C457 C 0.37056 0.85489 0.585 0.0
H458 H 0.42249 0.80779 0.62995 0.0
C459 C 0.37126 0.88361 0.60417 0.0
H460 H 0.38754 0.80479 0.58146 0.0
C461 C 0.39157 0.88547 0.63194 0.0
C462 C 0.4112 0.85856 0.64062 0.0
H463 H 0.35946 0.90579 0.59541 0.0
H464 H 0.3947 0.90885 0.64419 0.0
C465 C 0.40729 0.82875 0.62381 0.0
C466 C 0.18414 0.41263 0.61825 0.0
C467 C 0.15608 0.41344 0.63818 0.0
H468 H 0.20564 0.39484 0.57383 0.0
C469 C 0.13075 0.3908 0.63253 0.0
H470 H 0.20387 0.43005 0.62212 0.0
C471 C 0.13187 0.37039 0.60476 0.0
C472 C 0.15832 0.37257 0.58265 0.0
H473 H 0.10867 0.39144 0.64731 0.0
H474 H 0.11037 0.35605 0.5985 0.0
C475 C 0.18532 0.39226 0.5908 0.0
C476 C 0.59666 0.18467 0.6207 0.0
C477 C 0.59465 0.15627 0.64009 0.0
H478 H 0.61524 0.20623 0.57657 0.0
C479 C 0.61611 0.13008 0.63389 0.0
H480 H 0.58008 0.20504 0.62495 0.0
C481 C 0.63646 0.13085 0.60608 0.0
C482 C 0.63544 0.15782 0.58448 0.0
H483 H 0.61448 0.10771 0.6482 0.0
H484 H 0.64977 0.10884 0.59934 0.0
C485 C 0.617 0.18551 0.59319 0.0
C486 C 0.83561 0.61034 0.63112 0.0
C487 C 0.86517 0.60026 0.64572 0.0
H488 H 0.81312 0.63421 0.58997 0.0
C489 C 0.89483 0.61332 0.63424 0.0
H490 H 0.8125 0.59995 0.63922 0.0
C491 C 0.89515 0.63298 0.60599 0.0
C492 C 0.86582 0.63976 0.58908 0.0
H493 H 0.91793 0.60518 0.6446 0.0
H494 H 0.91857 0.63941 0.59515 0.0
C495 C 0.83592 0.63009 0.60303 0.0
C496 C 0.37426 0.39419 0.11771 0.0
C497 C 0.36482 0.41043 0.14651 0.0
H498 H 0.41143 0.36495 0.09456 0.0
C499 C 0.3811 0.40322 0.17602 0.0
H500 H 0.3625 0.40001 0.09458 0.0
C501 C 0.40875 0.38296 0.17611 0.0
C502 C 0.42064 0.36987 0.14663 0.0
H503 H 0.3745 0.41596 0.19841 0.0
H504 H 0.42306 0.38088 0.19844 0.0
C505 C 0.40214 0.374 0.11777 0.0
C506 C 0.40181 0.63514 0.88355 0.0
C507 C 0.42227 0.63664 0.85579 0.0
H508 H 0.3604 0.61137 0.9061 0.0
C509 C 0.4124 0.62086 0.82687 0.0
H510 H 0.40951 0.64632 0.90642 0.0
C511 C 0.38472 0.6007 0.82683 0.0
C512 C 0.36634 0.59626 0.8556 0.0
H513 H 0.42821 0.62099 0.80548 0.0
H514 H 0.37957 0.58606 0.80523 0.0
C515 C 0.37384 0.61504 0.88345 0.0
C516 C 0.39324 0.37511 0.8907 0.0
C517 C 0.40993 0.36572 0.86214 0.0
H518 H 0.3637 0.41231 0.91345 0.0
C519 C 0.40328 0.38214 0.83256 0.0
H520 H 0.39862 0.36324 0.91389 0.0
C521 C 0.38313 0.40987 0.83221 0.0
C522 C 0.36956 0.42169 0.86149 0.0
H523 H 0.41634 0.37556 0.81035 0.0
H524 H 0.38146 0.42426 0.80988 0.0
C525 C 0.37315 0.40308 0.89038 0.0
C526 C 0.63269 0.39107 0.87837 0.0
C527 C 0.63924 0.41247 0.85218 0.0
H528 H 0.59784 0.35749 0.89932 0.0
C529 C 0.62024 0.41036 0.82354 0.0
H530 H 0.6467 0.39278 0.9009 0.0
C531 C 0.5927 0.39006 0.82247 0.0
C532 C 0.5836 0.37174 0.85014 0.0
H533 H 0.62478 0.42687 0.80316 0.0
H534 H 0.57636 0.39178 0.80155 0.0
C535 C 0.60488 0.37073 0.87734 0.0
C536 C 0.62106 0.59675 0.82688 0.0
C537 C 0.63615 0.58632 0.85599 0.0
H538 H 0.58686 0.63008 0.80502 0.0
C539 C 0.63427 0.6064 0.88399 0.0
H540 H 0.6215 0.58124 0.80527 0.0
C541 C 0.61431 0.63448 0.88388 0.0
C542 C 0.5961 0.64248 0.85578 0.0
H543 H 0.64492 0.59828 0.90697 0.0
H544 H 0.61022 0.64755 0.90667 0.0
C545 C 0.60108 0.62456 0.82682 0.0
C546 C 0.62569 0.60335 0.17864 0.0
C547 C 0.64219 0.59843 0.1488 0.0
H548 H 0.58363 0.62395 0.20235 0.0
C549 C 0.63334 0.61728 0.12138 0.0
H550 H 0.63194 0.58873 0.19999 0.0
C551 C 0.60566 0.63772 0.12285 0.0
C552 C 0.58673 0.63936 0.15169 0.0
H553 H 0.64533 0.61334 0.09798 0.0
H554 H 0.59671 0.64879 0.10036 0.0
C555 C 0.59821 0.62374 0.18011 0.0
C556 C 0.38967 0.59478 0.18265 0.0
C557 C 0.37168 0.58483 0.1551 0.0
H558 H 0.42606 0.6276 0.20143 0.0
C559 C 0.37105 0.60526 0.12721 0.0
H560 H 0.39114 0.57907 0.20409 0.0
C561 C 0.39133 0.63311 0.12555 0.0
C562 C 0.41231 0.64056 0.15179 0.0
H563 H 0.3581 0.59752 0.10531 0.0
H564 H 0.39327 0.64645 0.10262 0.0
C565 C 0.40987 0.62239 0.18098 0.0
C566 C 0.63613 0.40319 0.1309 0.0
C567 C 0.6347 0.42476 0.15783 0.0
H568 H 0.61473 0.36084 0.10768 0.0
C569 C 0.61617 0.41583 0.18541 0.0
H570 H 0.64955 0.41009 0.10899 0.0
C571 C 0.59618 0.38806 0.18451 0.0
C572 C 0.59455 0.36865 0.15612 0.0
H573 H 0.61416 0.43238 0.20612 0.0
H574 H 0.57955 0.3836 0.20479 0.0
C575 C 0.61608 0.37515 0.13004 0.0
C576 C 0.02404 0.3673 0.53129 0.0
C577 C 0.03692 0.34537 0.50807 0.0
H578 H 0.98163 0.38538 0.55594 0.0
C579 C 0.01626 0.3213 0.49456 0.0
H580 H 0.03959 0.38567 0.54264 0.0
C581 C 0.98252 0.32121 0.50212 0.0
C582 C 0.9693 0.34503 0.52349 0.0
H583 H 0.02571 0.30401 0.47673 0.0
H584 H 0.96657 0.30402 0.48963 0.0
C585 C 0.9908 0.36702 0.53904 0.0
C586 C 0.68695 0.01798 0.49201 0.0
C587 C 0.66389 0.03868 0.50712 0.0
H588 H 0.70392 0.96824 0.48619 0.0
C589 C 0.64372 0.02588 0.53194 0.0
H590 H 0.70285 0.02738 0.47289 0.0
C591 C 0.64461 0.99266 0.53986 0.0
C592 C 0.66547 0.97111 0.5229 0.0
H593 H 0.62616 0.04147 0.54445 0.0
H594 H 0.62752 0.98352 0.55808 0.0
C595 C 0.68766 0.98426 0.49979 0.0
C596 C 0.99196 0.64097 0.46888 0.0
C597 C 0.97062 0.66329 0.48417 0.0
H598 H 0.04054 0.62172 0.46569 0.0
C599 C 0.98399 0.68702 0.50554 0.0
H600 H 0.9827 0.62265 0.45198 0.0
C601 C 0.01768 0.68658 0.51333 0.0
C602 C 0.03814 0.6622 0.50007 0.0
H603 H 0.96816 0.70445 0.51785 0.0
H604 H 0.02723 0.70386 0.53111 0.0
C605 C 0.02514 0.6403 0.47688 0.0
C606 C 0.32088 0.02325 0.49997 0.0
C607 C 0.34544 0.03693 0.52018 0.0
H608 H 0.30326 0.97972 0.47534 0.0
C609 C 0.36913 0.01592 0.53384 0.0
H610 H 0.30232 0.03879 0.48899 0.0
C611 C 0.36999 0.98285 0.52558 0.0
C612 C 0.34696 0.96946 0.50374 0.0
H613 H 0.3881 0.02532 0.54993 0.0
H614 H 0.38937 0.96776 0.53582 0.0
C615 C 0.32151 0.98957 0.49196 0.0
C616 C 0.53299 0.9917 0.3709 0.0
C617 C 0.51969 0.9709 0.34684 0.0
H618 H 0.53497 0.03977 0.39132 0.0
C619 C 0.50013 0.98485 0.32189 0.0
H620 H 0.54858 0.98212 0.39018 0.0
C621 C 0.49239 0.0186 0.32244 0.0
C622 C 0.5038 0.03852 0.3482 0.0
H623 H 0.48945 0.96947 0.30301 0.0
H624 H 0.47629 0.02867 0.30385 0.0
C625 C 0.525 0.02485 0.37167 0.0
C626 C 0.99001 0.4946 0.32004 0.0
C627 C 0.96935 0.50768 0.34435 0.0
H628 H 0.03966 0.49027 0.3025 0.0
C629 C 0.98216 0.53071 0.36651 0.0
H630 H 0.9806 0.47692 0.30257 0.0
C631 C 0.01534 0.53874 0.36617 0.0
C632 C 0.03687 0.52363 0.3439 0.0
H633 H 0.96661 0.54172 0.38507 0.0
H634 H 0.02444 0.55552 0.38468 0.0
C635 C 0.0237 0.50242 0.31992 0.0
C636 C 0.53003 0.98358 0.6397 0.0
C637 C 0.50667 0.97029 0.66126 0.0
H638 H 0.55492 0.02628 0.62257 0.0
C639 C 0.49294 0.99056 0.68554 0.0
H640 H 0.54162 0.96835 0.62124 0.0
C641 C 0.50051 0.02433 0.68623 0.0
C642 C 0.52214 0.03796 0.66285 0.0
H643 H 0.47504 0.98079 0.70259 0.0
H644 H 0.48795 0.04 0.70362 0.0
C645 C 0.53779 0.01682 0.6406 0.0
C646 C 0.9818 0.47704 0.64142 0.0
C647 C 0.9691 0.50045 0.66323 0.0
H648 H 0.02398 0.45176 0.62369 0.0
C649 C 0.98979 0.51376 0.6874 0.0
H650 H 0.96622 0.46588 0.62298 0.0
C651 C 0.02343 0.50576 0.68771 0.0
C652 C 0.03651 0.48416 0.66404 0.0
H653 H 0.98046 0.53176 0.70458 0.0
H654 H 0.03943 0.51808 0.70497 0.0
C655 C 0.01493 0.46884 0.64195 0.0
C656 C 0.36443 0.53877 0.99247 0.0
C657 C 0.34265 0.5228 0.97107 0.0
H658 H 0.3835 0.54247 0.04108 0.0
C659 C 0.31964 0.50057 0.98433 0.0
H660 H 0.38215 0.55636 0.98327 0.0
C661 C 0.32032 0.49268 0.01802 0.0
C662 C 0.34421 0.50674 0.03853 0.0
H663 H 0.30263 0.48776 0.96844 0.0
H664 H 0.30365 0.47428 0.02752 0.0
C665 C 0.36533 0.5307 0.02562 0.0
C666 C 0.53038 0.36776 0.98292 0.0
C667 C 0.50721 0.34589 0.96985 0.0
H668 H 0.55526 0.38531 0.02541 0.0
C669 C 0.49388 0.32147 0.99027 0.0
H670 H 0.54164 0.38636 0.96756 0.0
C671 C 0.50162 0.32095 0.02399 0.0
C672 C 0.523 0.34464 0.03741 0.0
H673 H 0.47612 0.30419 0.98066 0.0
H674 H 0.48933 0.30343 0.03978 0.0
C675 C 0.53832 0.36703 0.01611 0.0
C676 C 0.68512 0.50707 0.98384 0.0
C677 C 0.66043 0.48703 0.97014 0.0
H678 H 0.70302 0.53137 0.02744 0.0
C679 C 0.6369 0.47317 0.99121 0.0
H680 H 0.70356 0.51821 0.96827 0.0
C681 C 0.6363 0.48112 0.02439 0.0
C682 C 0.65942 0.50285 0.03781 0.0
H683 H 0.61782 0.45723 0.98178 0.0
H684 H 0.61698 0.47082 0.03951 0.0
C685 C 0.68473 0.51479 0.0176 0.0
C686 C 0.53664 0.64239 0.99172 0.0
C687 C 0.5206 0.66416 0.97035 0.0
H688 H 0.54073 0.62346 0.04035 0.0
C689 C 0.49838 0.68713 0.98365 0.0
H690 H 0.55425 0.62472 0.9825 0.0
C691 C 0.49065 0.68648 0.01738 0.0
C692 C 0.50487 0.66265 0.0379 0.0
H693 H 0.48553 0.70415 0.96777 0.0
H694 H 0.47235 0.7032 0.02694 0.0
C695 C 0.52876 0.64154 0.02491 0.0
C696 C 0.19266 0.21777 0.5038 0.0
C697 C 0.20137 0.25108 0.50049 0.0
H698 H 0.20997 0.16789 0.50823 0.0
C699 C 0.23478 0.25935 0.49878 0.0
H700 H 0.16709 0.21063 0.50494 0.0
C701 C 0.2589 0.23529 0.50064 0.0
C702 C 0.25055 0.20202 0.50405 0.0
H703 H 0.24251 0.28467 0.49619 0.0
H704 H 0.28434 0.24295 0.49949 0.0
C705 C 0.21713 0.19334 0.50537 0.0
C706 C 0.78779 0.19653 0.50362 0.0
C707 C 0.75449 0.20502 0.50001 0.0
H708 H 0.83753 0.21411 0.50781 0.0
C709 C 0.74611 0.23837 0.49745 0.0
H710 H 0.79503 0.17102 0.50544 0.0
C711 C 0.77008 0.26266 0.49872 0.0
C712 C 0.80334 0.25451 0.50245 0.0
H713 H 0.72079 0.24594 0.49457 0.0
H714 H 0.76235 0.28805 0.49691 0.0
C715 C 0.81209 0.22114 0.50469 0.0
C716 C 0.8132 0.78803 0.50307 0.0
C717 C 0.80441 0.75458 0.50317 0.0
H718 H 0.79607 0.83813 0.50418 0.0
C719 C 0.77099 0.74629 0.50438 0.0
H720 H 0.83877 0.79519 0.50191 0.0
C721 C 0.74694 0.77047 0.50545 0.0
C722 C 0.75536 0.8039 0.50533 0.0
H723 H 0.76316 0.72087 0.50443 0.0
H724 H 0.72152 0.76275 0.50646 0.0
C725 C 0.7888 0.81256 0.50406 0.0
C726 C 0.1937 0.7895 0.50401 0.0
C727 C 0.20253 0.75616 0.5066 0.0
H728 H 0.21082 0.83947 0.5 0.0
C729 C 0.23596 0.7479 0.50713 0.0
H730 H 0.1681 0.79661 0.50376 0.0
C731 C 0.26001 0.77204 0.50493 0.0
C732 C 0.25153 0.80535 0.50239 0.0
H733 H 0.24376 0.72255 0.50911 0.0
H734 H 0.28548 0.76441 0.50524 0.0
C735 C 0.21809 0.81399 0.50215 0.0
C736 C 0.50319 0.19424 0.21887 0.0
C737 C 0.50051 0.20295 0.25222 0.0
H738 H 0.50697 0.21161 0.16895 0.0
C739 C 0.49927 0.23639 0.26049 0.0
H740 H 0.50398 0.16866 0.21172 0.0
C741 C 0.50085 0.26054 0.23642 0.0
C742 C 0.50362 0.25222 0.20312 0.0
H743 H 0.49717 0.24416 0.28582 0.0
H744 H 0.5 0.28598 0.24414 0.0
C745 C 0.50461 0.21877 0.19443 0.0
C746 C 0.81329 0.50413 0.2172 0.0
C747 C 0.80465 0.50232 0.25063 0.0
H748 H 0.79588 0.50739 0.16729 0.0
C749 C 0.77128 0.50264 0.25914 0.0
H750 H 0.83883 0.50369 0.20991 0.0
C751 C 0.74709 0.50483 0.23514 0.0
C752 C 0.75537 0.50645 0.20172 0.0
H753 H 0.76365 0.5013 0.28458 0.0
H754 H 0.72168 0.50515 0.24294 0.0
C755 C 0.78876 0.50594 0.19285 0.0
C756 C 0.5029 0.79013 0.19364 0.0
C757 C 0.50081 0.75673 0.20243 0.0
H758 H 0.50633 0.84012 0.21087 0.0
C759 C 0.50021 0.74842 0.23588 0.0
H760 H 0.50319 0.7973 0.16805 0.0
C761 C 0.50191 0.77251 0.25996 0.0
C762 C 0.50414 0.80587 0.25155 0.0
H763 H 0.49855 0.72305 0.24371 0.0
H764 H 0.50157 0.76477 0.2854 0.0
C765 C 0.50441 0.8146 0.21809 0.0
C766 C 0.19438 0.5052 0.2198 0.0
C767 C 0.20301 0.50321 0.25322 0.0
H768 H 0.21167 0.50564 0.16977 0.0
C769 C 0.23624 0.49964 0.26155 0.0
H770 H 0.16897 0.5082 0.21265 0.0
C771 C 0.26032 0.49826 0.23739 0.0
C772 C 0.25208 0.50057 0.20399 0.0
H773 H 0.24387 0.49802 0.28697 0.0
H774 H 0.28561 0.49551 0.24509 0.0
C775 C 0.2188 0.50403 0.19532 0.0
C776 C 0.50424 0.7898 0.8129 0.0
C777 C 0.50319 0.75634 0.80429 0.0
H778 H 0.5038 0.83983 0.79548 0.0
C779 C 0.50023 0.74789 0.77103 0.0
H780 H 0.50676 0.79702 0.83835 0.0
C781 C 0.49859 0.77199 0.7469 0.0
C782 C 0.50005 0.80544 0.75509 0.0
H783 H 0.49929 0.72242 0.76344 0.0
H784 H 0.49636 0.76418 0.72158 0.0
C785 C 0.50285 0.81423 0.7884 0.0
C786 C 0.26033 0.50437 0.77091 0.0
C787 C 0.25182 0.50497 0.8043 0.0
H788 H 0.24421 0.50273 0.72129 0.0
C789 C 0.21836 0.50429 0.81288 0.0
H790 H 0.28578 0.50489 0.76325 0.0
C791 C 0.194 0.50323 0.78831 0.0
C792 C 0.20287 0.50266 0.75489 0.0
H793 H 0.21103 0.50496 0.83842 0.0
H794 H 0.16841 0.50257 0.79541 0.0
C795 C 0.23633 0.50322 0.74668 0.0
C796 C 0.50467 0.19454 0.78918 0.0
C797 C 0.50264 0.20324 0.75578 0.0
H798 H 0.50493 0.21177 0.83924 0.0
C799 C 0.49856 0.23644 0.7475 0.0
H800 H 0.50805 0.16914 0.79629 0.0
C801 C 0.49682 0.26044 0.77167 0.0
C802 C 0.49929 0.25218 0.80506 0.0
H803 H 0.49683 0.2441 0.72208 0.0
H804 H 0.49374 0.28572 0.76397 0.0
C805 C 0.50318 0.21892 0.8137 0.0
C806 C 0.78816 0.50226 0.81363 0.0
C807 C 0.75479 0.50461 0.805 0.0
H808 H 0.83819 0.5019 0.79633 0.0
C809 C 0.74652 0.50911 0.77185 0.0
H810 H 0.79525 0.49855 0.83898 0.0
C811 C 0.77069 0.511 0.74783 0.0
C812 C 0.80403 0.50823 0.75603 0.0
H813 H 0.72111 0.51108 0.76426 0.0
H814 H 0.76303 0.51446 0.7226 0.0
C815 C 0.81266 0.50387 0.78924 0.0
loop_
_geom_bond_atom_site_label_1
_geom_bond_atom_site_label_2
_geom_bond_distance
_geom_bond_site_symmetry_2
_ccdc_geom_bond_type
Co0 O1 2.216 . S
Co0 O2 2.091 . S
Co0 O4 2.004 . S
Co0 O10 2.021 . S
Co0 O12 2.137 . S
Co0 O13 2.244 . S
O1 Co0 2.216 . S
O1 C8 1.247 . S
O2 Co0 2.091 . S
O2 C8 1.261 . S
C3 O12 1.247 . S
C3 O13 1.272 . S
O4 Co0 2.004 . S
O4 C9 1.259 . S
Co5 O6 2.061 . S
Co5 O11 2.052 . S
Co5 O13 2.135 . S
O6 Co5 2.061 . S
O6 C9 1.235 . S
C7 O10 1.238 . S
C7 O11 1.241 . S
C8 O1 1.247 . S
C8 O2 1.261 . S
C9 O4 1.259 . S
C9 O6 1.235 . S
O10 Co0 2.021 . S
O10 C7 1.238 . S
O11 Co5 2.052 . S
O11 C7 1.241 . S
O12 Co0 2.137 . S
O12 C3 1.247 . S
O13 Co0 2.244 . S
O13 C3 1.272 . S
O13 Co5 2.135 . S
Co14 O15 2.216 . S
Co14 O16 2.091 . S
Co14 O18 2.004 . S
Co14 O24 2.021 . S
Co14 O26 2.137 . S
Co14 O27 2.244 . S
O15 Co14 2.216 . S
O15 C22 1.247 . S
O16 Co14 2.091 . S
O16 C22 1.261 . S
C17 O26 1.247 . S
C17 O27 1.272 . S
O18 Co14 2.004 . S
O18 C23 1.259 . S
Co19 O20 2.061 . S
Co19 O25 2.052 . S
Co19 O27 2.135 . S
O20 Co19 2.061 . S
O20 C23 1.235 . S
C21 O24 1.238 . S
C21 O25 1.241 . S
C22 O15 1.247 . S
C22 O16 1.261 . S
C23 O18 1.259 . S
C23 O20 1.235 . S
O24 Co14 2.021 . S
O24 C21 1.238 . S
O25 Co19 2.052 . S
O25 C21 1.241 . S
O26 Co14 2.137 . S
O26 C17 1.247 . S
O27 Co14 2.244 . S
O27 C17 1.272 . S
O27 Co19 2.135 . S
Co28 O29 2.216 . S
Co28 O30 2.091 . S
Co28 O32 2.004 . S
Co28 O38 2.021 . S
Co28 O40 2.137 . S
Co28 O41 2.244 . S
O29 Co28 2.216 . S
O29 C36 1.247 . S
O30 Co28 2.091 . S
O30 C36 1.261 . S
C31 O40 1.247 . S
C31 O41 1.272 . S
O32 Co28 2.004 . S
O32 C37 1.259 . S
Co33 O34 2.061 . S
Co33 O39 2.052 . S
Co33 O41 2.135 . S
O34 Co33 2.061 . S
O34 C37 1.235 . S
C35 O38 1.238 . S
C35 O39 1.241 . S
C36 O29 1.247 . S
C36 O30 1.261 . S
C37 O32 1.259 . S
C37 O34 1.235 . S
O38 Co28 2.021 . S
O38 C35 1.238 . S
O39 Co33 2.052 . S
O39 C35 1.241 . S
O40 Co28 2.137 . S
O40 C31 1.247 . S
O41 Co28 2.244 . S
O41 C31 1.272 . S
O41 Co33 2.135 . S
Co42 O43 2.216 . S
Co42 O44 2.091 . S
Co42 O46 2.004 . S
Co42 O52 2.021 . S
Co42 O54 2.137 . S
Co42 O55 2.244 . S
O43 Co42 2.216 . S
O43 C50 1.247 . S
O44 Co42 2.091 . S
O44 C50 1.261 . S
C45 O54 1.247 . S
C45 O55 1.272 . S
O46 Co42 2.004 . S
O46 C51 1.259 . S
Co47 O48 2.061 . S
Co47 O53 2.052 . S
Co47 O55 2.135 . S
O48 Co47 2.061 . S
O48 C51 1.235 . S
C49 O52 1.238 . S
C49 O53 1.241 . S
C50 O43 1.247 . S
C50 O44 1.261 . S
C51 O46 1.259 . S
C51 O48 1.235 . S
O52 Co42 2.021 . S
O52 C49 1.238 . S
O53 Co47 2.052 . S
O53 C49 1.241 . S
O54 Co42 2.137 . S
O54 C45 1.247 . S
O55 Co42 2.244 . S
O55 C45 1.272 . S
O55 Co47 2.135 . S
Co56 O57 2.216 . S
Co56 O58 2.091 . S
Co56 O60 2.004 . S
Co56 O66 2.021 . S
Co56 O68 2.137 . S
Co56 O69 2.244 . S
O57 Co56 2.216 . S
O57 C64 1.247 . S
O58 Co56 2.091 . S
O58 C64 1.261 . S
C59 O68 1.247 . S
C59 O69 1.272 . S
O60 Co56 2.004 . S
O60 C65 1.259 . S
Co61 O62 2.061 . S
Co61 O67 2.052 . S
Co61 O69 2.135 . S
O62 Co61 2.061 . S
O62 C65 1.235 . S
C63 O66 1.238 . S
C63 O67 1.241 . S
C64 O57 1.247 . S
C64 O58 1.261 . S
C65 O60 1.259 . S
C65 O62 1.235 . S
O66 Co56 2.021 . S
O66 C63 1.238 . S
O67 Co61 2.052 . S
O67 C63 1.241 . S
O68 Co56 2.137 . S
O68 C59 1.247 . S
O69 Co56 2.244 . S
O69 C59 1.272 . S
O69 Co61 2.135 . S
Co70 O71 2.216 . S
Co70 O72 2.091 . S
Co70 O74 2.004 . S
Co70 O80 2.021 . S
Co70 O82 2.137 . S
Co70 O83 2.244 . S
O71 Co70 2.216 . S
O71 C78 1.247 . S
O72 Co70 2.091 . S
O72 C78 1.261 . S
C73 O82 1.247 . S
C73 O83 1.272 . S
O74 Co70 2.004 . S
O74 C79 1.259 . S
Co75 O76 2.061 . S
Co75 O81 2.052 . S
Co75 O83 2.135 . S
O76 Co75 2.061 . S
O76 C79 1.235 . S
C77 O80 1.238 . S
C77 O81 1.241 . S
C78 O71 1.247 . S
C78 O72 1.261 . S
C79 O74 1.259 . S
C79 O76 1.235 . S
O80 Co70 2.021 . S
O80 C77 1.238 . S
O81 Co75 2.052 . S
O81 C77 1.241 . S
O82 Co70 2.137 . S
O82 C73 1.247 . S
O83 Co70 2.244 . S
O83 C73 1.272 . S
O83 Co75 2.135 . S
Co84 O85 2.216 . S
Co84 O86 2.091 . S
Co84 O88 2.004 . S
Co84 O94 2.021 . S
Co84 O96 2.137 . S
Co84 O97 2.244 . S
O85 Co84 2.216 . S
O85 C92 1.247 . S
O86 Co84 2.091 . S
O86 C92 1.261 . S
C87 O96 1.247 . S
C87 O97 1.272 . S
O88 Co84 2.004 . S
O88 C93 1.259 . S
Co89 O90 2.061 . S
Co89 O95 2.052 . S
Co89 O97 2.135 . S
O90 Co89 2.061 . S
O90 C93 1.235 . S
C91 O94 1.238 . S
C91 O95 1.241 . S
C92 O85 1.247 . S
C92 O86 1.261 . S
C93 O88 1.259 . S
C93 O90 1.235 . S
O94 Co84 2.021 . S
O94 C91 1.238 . S
O95 Co89 2.052 . S
O95 C91 1.241 . S
O96 Co84 2.137 . S
O96 C87 1.247 . S
O97 Co84 2.244 . S
O97 C87 1.272 . S
O97 Co89 2.135 . S
Co98 O99 2.216 . S
Co98 O100 2.091 . S
Co98 O102 2.004 . S
Co98 O108 2.021 . S
Co98 O110 2.137 . S
Co98 O111 2.244 . S
O99 Co98 2.216 . S
O99 C106 1.247 . S
O100 Co98 2.091 . S
O100 C106 1.261 . S
C101 O110 1.247 . S
C101 O111 1.272 . S
O102 Co98 2.004 . S
O102 C107 1.259 . S
Co103 O104 2.061 . S
Co103 O109 2.052 . S
Co103 O111 2.135 . S
O104 Co103 2.061 . S
O104 C107 1.235 . S
C105 O108 1.238 . S
C105 O109 1.241 . S
C106 O99 1.247 . S
C106 O100 1.261 . S
C107 O102 1.259 . S
C107 O104 1.235 . S
O108 Co98 2.021 . S
O108 C105 1.238 . S
O109 Co103 2.052 . S
O109 C105 1.241 . S
O110 Co98 2.137 . S
O110 C101 1.247 . S
O111 Co98 2.244 . S
O111 C101 1.272 . S
O111 Co103 2.135 . S
Co112 O113 2.216 . S
Co112 O114 2.091 . S
Co112 O116 2.004 . S
Co112 O122 2.021 . S
Co112 O124 2.137 . S
Co112 O125 2.244 . S
O113 Co112 2.216 . S
O113 C120 1.247 . S
O114 Co112 2.091 . S
O114 C120 1.261 . S
C115 O124 1.247 . S
C115 O125 1.272 . S
O116 Co112 2.004 . S
O116 C121 1.259 . S
Co117 O118 2.061 . S
Co117 O123 2.052 . S
Co117 O125 2.135 . S
O118 Co117 2.061 . S
O118 C121 1.235 . S
C119 O122 1.238 . S
C119 O123 1.241 . S
C120 O113 1.247 . S
C120 O114 1.261 . S
C121 O116 1.259 . S
C121 O118 1.235 . S
O122 Co112 2.021 . S
O122 C119 1.238 . S
O123 Co117 2.052 . S
O123 C119 1.241 . S
O124 Co112 2.137 . S
O124 C115 1.247 . S
O125 Co112 2.244 . S
O125 C115 1.272 . S
O125 Co117 2.135 . S
Co126 O127 2.216 . S
Co126 O128 2.091 . S
Co126 O130 2.004 . S
Co126 O136 2.021 . S
Co126 O138 2.137 . S
Co126 O139 2.244 . S
O127 Co126 2.216 . S
O127 C134 1.247 . S
O128 Co126 2.091 . S
O128 C134 1.261 . S
C129 O138 1.247 . S
C129 O139 1.272 . S
O130 Co126 2.004 . S
O130 C135 1.259 . S
Co131 O132 2.061 . S
Co131 O137 2.052 . S
Co131 O139 2.135 . S
O132 Co131 2.061 . S
O132 C135 1.235 . S
C133 O136 1.238 . S
C133 O137 1.241 . S
C134 O127 1.247 . S
C134 O128 1.261 . S
C135 O130 1.259 . S
C135 O132 1.235 . S
O136 Co126 2.021 . S
O136 C133 1.238 . S
O137 Co131 2.052 . S
O137 C133 1.241 . S
O138 Co126 2.137 . S
O138 C129 1.247 . S
O139 Co126 2.244 . S
O139 C129 1.272 . S
O139 Co131 2.135 . S
Co140 O141 2.216 . S
Co140 O142 2.091 . S
Co140 O144 2.004 . S
Co140 O150 2.021 . S
Co140 O152 2.137 . S
Co140 O153 2.244 . S
O141 Co140 2.216 . S
O141 C148 1.247 . S
O142 Co140 2.091 . S
O142 C148 1.261 . S
C143 O152 1.247 . S
C143 O153 1.272 . S
O144 Co140 2.004 . S
O144 C149 1.259 . S
Co145 O146 2.061 . S
Co145 O151 2.052 . S
Co145 O153 2.135 . S
O146 Co145 2.061 . S
O146 C149 1.235 . S
C147 O150 1.238 . S
C147 O151 1.241 . S
C148 O141 1.247 . S
C148 O142 1.261 . S
C149 O144 1.259 . S
C149 O146 1.235 . S
O150 Co140 2.021 . S
O150 C147 1.238 . S
O151 Co145 2.052 . S
O151 C147 1.241 . S
O152 Co140 2.137 . S
O152 C143 1.247 . S
O153 Co140 2.244 . S
O153 C143 1.272 . S
O153 Co145 2.135 . S
Co154 O155 2.216 . S
Co154 O156 2.091 . S
Co154 O158 2.004 . S
Co154 O164 2.021 . S
Co154 O166 2.137 . S
Co154 O167 2.244 . S
O155 Co154 2.216 . S
O155 C162 1.247 . S
O156 Co154 2.091 . S
O156 C162 1.261 . S
C157 O166 1.247 . S
C157 O167 1.272 . S
O158 Co154 2.004 . S
O158 C163 1.259 . S
Co159 O160 2.061 . S
Co159 O165 2.052 . S
Co159 O167 2.135 . S
O160 Co159 2.061 . S
O160 C163 1.235 . S
C161 O164 1.238 . S
C161 O165 1.241 . S
C162 O155 1.247 . S
C162 O156 1.261 . S
C163 O158 1.259 . S
C163 O160 1.235 . S
O164 Co154 2.021 . S
O164 C161 1.238 . S
O165 Co159 2.052 . S
O165 C161 1.241 . S
O166 Co154 2.137 . S
O166 C157 1.247 . S
O167 Co154 2.244 . S
O167 C157 1.272 . S
O167 Co159 2.135 . S
Co168 O169 2.216 . S
Co168 O170 2.091 . S
Co168 O172 2.004 . S
Co168 O178 2.021 . S
Co168 O180 2.137 . S
Co168 O181 2.244 . S
O169 Co168 2.216 . S
O169 C176 1.247 . S
O170 Co168 2.091 . S
O170 C176 1.261 . S
C171 O180 1.247 . S
C171 O181 1.272 . S
O172 Co168 2.004 . S
O172 C177 1.259 . S
Co173 O174 2.061 . S
Co173 O179 2.052 . S
Co173 O181 2.135 . S
O174 Co173 2.061 . S
O174 C177 1.235 . S
C175 O178 1.238 . S
C175 O179 1.241 . S
C176 O169 1.247 . S
C176 O170 1.261 . S
C177 O172 1.259 . S
C177 O174 1.235 . S
O178 Co168 2.021 . S
O178 C175 1.238 . S
O179 Co173 2.052 . S
O179 C175 1.241 . S
O180 Co168 2.137 . S
O180 C171 1.247 . S
O181 Co168 2.244 . S
O181 C171 1.272 . S
O181 Co173 2.135 . S
Co182 O183 2.216 . S
Co182 O184 2.091 . S
Co182 O186 2.004 . S
Co182 O192 2.021 . S
Co182 O194 2.137 . S
Co182 O195 2.244 . S
O183 Co182 2.216 . S
O183 C190 1.247 . S
O184 Co182 2.091 . S
O184 C190 1.261 . S
C185 O194 1.247 . S
C185 O195 1.272 . S
O186 Co182 2.004 . S
O186 C191 1.259 . S
Co187 O188 2.061 . S
Co187 O193 2.052 . S
Co187 O195 2.135 . S
O188 Co187 2.061 . S
O188 C191 1.235 . S
C189 O192 1.238 . S
C189 O193 1.241 . S
C190 O183 1.247 . S
C190 O184 1.261 . S
C191 O186 1.259 . S
C191 O188 1.235 . S
O192 Co182 2.021 . S
O192 C189 1.238 . S
O193 Co187 2.052 . S
O193 C189 1.241 . S
O194 Co182 2.137 . S
O194 C185 1.247 . S
O195 Co182 2.244 . S
O195 C185 1.272 . S
O195 Co187 2.135 . S
Co196 O197 2.216 . S
Co196 O198 2.091 . S
Co196 O200 2.004 . S
Co196 O206 2.021 . S
Co196 O208 2.137 . S
Co196 O209 2.244 . S
O197 Co196 2.216 . S
O197 C204 1.247 . S
O198 Co196 2.091 . S
O198 C204 1.261 . S
C199 O208 1.247 . S
C199 O209 1.272 . S
O200 Co196 2.004 . S
O200 C205 1.259 . S
Co201 O202 2.061 . S
Co201 O207 2.052 . S
Co201 O209 2.135 . S
O202 Co201 2.061 . S
O202 C205 1.235 . S
C203 O206 1.238 . S
C203 O207 1.241 . S
C204 O197 1.247 . S
C204 O198 1.261 . S
C205 O200 1.259 . S
C205 O202 1.235 . S
O206 Co196 2.021 . S
O206 C203 1.238 . S
O207 Co201 2.052 . S
O207 C203 1.241 . S
O208 Co196 2.137 . S
O208 C199 1.247 . S
O209 Co196 2.244 . S
O209 C199 1.272 . S
O209 Co201 2.135 . S
Co210 O211 2.216 . S
Co210 O212 2.091 . S
Co210 O214 2.004 . S
Co210 O220 2.021 . S
Co210 O222 2.137 . S
Co210 O223 2.244 . S
O211 Co210 2.216 . S
O211 C218 1.247 . S
O212 Co210 2.091 . S
O212 C218 1.261 . S
C213 O222 1.247 . S
C213 O223 1.272 . S
O214 Co210 2.004 . S
O214 C219 1.259 . S
Co215 O216 2.061 . S
Co215 O221 2.052 . S
Co215 O223 2.135 . S
O216 Co215 2.061 . S
O216 C219 1.235 . S
C217 O220 1.238 . S
C217 O221 1.241 . S
C218 O211 1.247 . S
C218 O212 1.261 . S
C219 O214 1.259 . S
C219 O216 1.235 . S
O220 Co210 2.021 . S
O220 C217 1.238 . S
O221 Co215 2.052 . S
O221 C217 1.241 . S
O222 Co210 2.137 . S
O222 C213 1.247 . S
O223 Co210 2.244 . S
O223 C213 1.272 . S
O223 Co215 2.135 . S
Co224 O225 2.216 . S
Co224 O226 2.091 . S
Co224 O228 2.004 . S
Co224 O234 2.021 . S
Co224 O236 2.137 . S
Co224 O237 2.244 . S
O225 Co224 2.216 . S
O225 C232 1.247 . S
O226 Co224 2.091 . S
O226 C232 1.261 . S
C227 O236 1.247 . S
C227 O237 1.272 . S
O228 Co224 2.004 . S
O228 C233 1.259 . S
Co229 O230 2.061 . S
Co229 O235 2.052 . S
Co229 O237 2.135 . S
O230 Co229 2.061 . S
O230 C233 1.235 . S
C231 O234 1.238 . S
C231 O235 1.241 . S
C232 O225 1.247 . S
C232 O226 1.261 . S
C233 O228 1.259 . S
C233 O230 1.235 . S
O234 Co224 2.021 . S
O234 C231 1.238 . S
O235 Co229 2.052 . S
O235 C231 1.241 . S
O236 Co224 2.137 . S
O236 C227 1.247 . S
O237 Co224 2.244 . S
O237 C227 1.272 . S
O237 Co229 2.135 . S
Co238 O239 2.216 . S
Co238 O240 2.091 . S
Co238 O242 2.004 . S
Co238 O248 2.021 . S
Co238 O250 2.137 . S
Co238 O251 2.244 . S
O239 Co238 2.216 . S
O239 C246 1.247 . S
O240 Co238 2.091 . S
O240 C246 1.261 . S
C241 O250 1.247 . S
C241 O251 1.272 . S
O242 Co238 2.004 . S
O242 C247 1.259 . S
Co243 O244 2.061 . S
Co243 O249 2.052 . S
Co243 O251 2.135 . S
O244 Co243 2.061 . S
O244 C247 1.235 . S
C245 O248 1.238 . S
C245 O249 1.241 . S
C246 O239 1.247 . S
C246 O240 1.261 . S
C247 O242 1.259 . S
C247 O244 1.235 . S
O248 Co238 2.021 . S
O248 C245 1.238 . S
O249 Co243 2.052 . S
O249 C245 1.241 . S
O250 Co238 2.137 . S
O250 C241 1.247 . S
O251 Co238 2.244 . S
O251 C241 1.272 . S
O251 Co243 2.135 . S
Co252 O253 2.216 . S
Co252 O254 2.091 . S
Co252 O256 2.004 . S
Co252 O262 2.021 . S
Co252 O264 2.137 . S
Co252 O265 2.244 . S
O253 Co252 2.216 . S
O253 C260 1.247 . S
O254 Co252 2.091 . S
O254 C260 1.261 . S
C255 O264 1.247 . S
C255 O265 1.272 . S
O256 Co252 2.004 . S
O256 C261 1.259 . S
Co257 O258 2.061 . S
Co257 O263 2.052 . S
Co257 O265 2.135 . S
O258 Co257 2.061 . S
O258 C261 1.235 . S
C259 O262 1.238 . S
C259 O263 1.241 . S
C260 O253 1.247 . S
C260 O254 1.261 . S
C261 O256 1.259 . S
C261 O258 1.235 . S
O262 Co252 2.021 . S
O262 C259 1.238 . S
O263 Co257 2.052 . S
O263 C259 1.241 . S
O264 Co252 2.137 . S
O264 C255 1.247 . S
O265 Co252 2.244 . S
O265 C255 1.272 . S
O265 Co257 2.135 . S
Co266 O267 2.216 . S
Co266 O268 2.091 . S
Co266 O270 2.004 . S
Co266 O276 2.021 . S
Co266 O278 2.137 . S
Co266 O279 2.244 . S
O267 Co266 2.216 . S
O267 C274 1.247 . S
O268 Co266 2.091 . S
O268 C274 1.261 . S
C269 O278 1.247 . S
C269 O279 1.272 . S
O270 Co266 2.004 . S
O270 C275 1.259 . S
Co271 O272 2.061 . S
Co271 O277 2.052 . S
Co271 O279 2.135 . S
O272 Co271 2.061 . S
O272 C275 1.235 . S
C273 O276 1.238 . S
C273 O277 1.241 . S
C274 O267 1.247 . S
C274 O268 1.261 . S
C275 O270 1.259 . S
C275 O272 1.235 . S
O276 Co266 2.021 . S
O276 C273 1.238 . S
O277 Co271 2.052 . S
O277 C273 1.241 . S
O278 Co266 2.137 . S
O278 C269 1.247 . S
O279 Co266 2.244 . S
O279 C269 1.272 . S
O279 Co271 2.135 . S
Co280 O281 2.216 . S
Co280 O282 2.091 . S
Co280 O284 2.004 . S
Co280 O290 2.021 . S
Co280 O292 2.137 . S
Co280 O293 2.244 . S
O281 Co280 2.216 . S
O281 C288 1.247 . S
O282 Co280 2.091 . S
O282 C288 1.261 . S
C283 O292 1.247 . S
C283 O293 1.272 . S
O284 Co280 2.004 . S
O284 C289 1.259 . S
Co285 O286 2.061 . S
Co285 O291 2.052 . S
Co285 O293 2.135 . S
O286 Co285 2.061 . S
O286 C289 1.235 . S
C287 O290 1.238 . S
C287 O291 1.241 . S
C288 O281 1.247 . S
C288 O282 1.261 . S
C289 O284 1.259 . S
C289 O286 1.235 . S
O290 Co280 2.021 . S
O290 C287 1.238 . S
O291 Co285 2.052 . S
O291 C287 1.241 . S
O292 Co280 2.137 . S
O292 C283 1.247 . S
O293 Co280 2.244 . S
O293 C283 1.272 . S
O293 Co285 2.135 . S
Co294 O295 2.216 . S
Co294 O296 2.091 . S
Co294 O298 2.004 . S
Co294 O304 2.021 . S
Co294 O306 2.137 . S
Co294 O307 2.244 . S
O295 Co294 2.216 . S
O295 C302 1.247 . S
O296 Co294 2.091 . S
O296 C302 1.261 . S
C297 O306 1.247 . S
C297 O307 1.272 . S
O298 Co294 2.004 . S
O298 C303 1.259 . S
Co299 O300 2.061 . S
Co299 O305 2.052 . S
Co299 O307 2.135 . S
O300 Co299 2.061 . S
O300 C303 1.235 . S
C301 O304 1.238 . S
C301 O305 1.241 . S
C302 O295 1.247 . S
C302 O296 1.261 . S
C303 O298 1.259 . S
C303 O300 1.235 . S
O304 Co294 2.021 . S
O304 C301 1.238 . S
O305 Co299 2.052 . S
O305 C301 1.241 . S
O306 Co294 2.137 . S
O306 C297 1.247 . S
O307 Co294 2.244 . S
O307 C297 1.272 . S
O307 Co299 2.135 . S
Co308 O309 2.216 . S
Co308 O310 2.091 . S
Co308 O312 2.004 . S
Co308 O318 2.021 . S
Co308 O320 2.137 . S
Co308 O321 2.244 . S
O309 Co308 2.216 . S
O309 C316 1.247 . S
O310 Co308 2.091 . S
O310 C316 1.261 . S
C311 O320 1.247 . S
C311 O321 1.272 . S
O312 Co308 2.004 . S
O312 C317 1.259 . S
Co313 O314 2.061 . S
Co313 O319 2.052 . S
Co313 O321 2.135 . S
O314 Co313 2.061 . S
O314 C317 1.235 . S
C315 O318 1.238 . S
C315 O319 1.241 . S
C316 O309 1.247 . S
C316 O310 1.261 . S
C317 O312 1.259 . S
C317 O314 1.235 . S
O318 Co308 2.021 . S
O318 C315 1.238 . S
O319 Co313 2.052 . S
O319 C315 1.241 . S
O320 Co308 2.137 . S
O320 C311 1.247 . S
O321 Co308 2.244 . S
O321 C311 1.272 . S
O321 Co313 2.135 . S
Co322 O323 2.216 . S
Co322 O324 2.091 . S
Co322 O326 2.004 . S
Co322 O332 2.021 . S
Co322 O334 2.137 . S
Co322 O335 2.244 . S
O323 Co322 2.216 . S
O323 C330 1.247 . S
O324 Co322 2.091 . S
O324 C330 1.261 . S
C325 O334 1.247 . S
C325 O335 1.272 . S
O326 Co322 2.004 . S
O326 C331 1.259 . S
Co327 O328 2.061 . S
Co327 O333 2.052 . S
Co327 O335 2.135 . S
O328 Co327 2.061 . S
O328 C331 1.235 . S
C329 O332 1.238 . S
C329 O333 1.241 . S
C330 O323 1.247 . S
C330 O324 1.261 . S
C331 O326 1.259 . S
C331 O328 1.235 . S
O332 Co322 2.021 . S
O332 C329 1.238 . S
O333 Co327 2.052 . S
O333 C329 1.241 . S
O334 Co322 2.137 . S
O334 C325 1.247 . S
O335 Co322 2.244 . S
O335 C325 1.272 . S
O335 Co327 2.135 . S
C336 C337 1.387 . S
C336 H340 0.950 . S
C336 C345 1.390 . S
C337 C336 1.387 . S
C337 C339 1.387 . S
H338 C345 0.950 . S
C339 C337 1.387 . S
C339 C341 1.390 . S
C339 H343 0.950 . S
H340 C336 0.950 . S
C341 C339 1.390 . S
C341 C342 1.387 . S
C341 H344 0.950 . S
C342 C341 1.387 . S
C342 C345 1.387 . S
H343 C339 0.950 . S
H344 C341 0.950 . S
C345 C336 1.390 . S
C345 H338 0.950 . S
C345 C342 1.387 . S
C346 C347 1.387 . S
C346 H350 0.950 . S
C346 C355 1.390 . S
C347 C346 1.387 . S
C347 C349 1.387 . S
H348 C355 0.950 . S
C349 C347 1.387 . S
C349 C351 1.390 . S
C349 H353 0.950 . S
H350 C346 0.950 . S
C351 C349 1.390 . S
C351 C352 1.387 . S
C351 H354 0.950 . S
C352 C351 1.387 . S
C352 C355 1.387 . S
H353 C349 0.950 . S
H354 C351 0.950 . S
C355 C346 1.390 . S
C355 H348 0.950 . S
C355 C352 1.387 . S
C356 C357 1.387 . S
C356 H360 0.950 . S
C356 C365 1.390 . S
C357 C356 1.387 . S
C357 C359 1.387 . S
H358 C365 0.950 . S
C359 C357 1.387 . S
C359 C361 1.390 . S
C359 H363 0.950 . S
H360 C356 0.950 . S
C361 C359 1.390 . S
C361 C362 1.387 . S
C361 H364 0.950 . S
C362 C361 1.387 . S
C362 C365 1.387 . S
H363 C359 0.950 . S
H364 C361 0.950 . S
C365 C356 1.390 . S
C365 H358 0.950 . S
C365 C362 1.387 . S
C366 C367 1.387 . S
C366 H370 0.950 . S
C366 C375 1.390 . S
C367 C366 1.387 . S
C367 C369 1.387 . S
H368 C375 0.950 . S
C369 C367 1.387 . S
C369 C371 1.390 . S
C369 H373 0.950 . S
H370 C366 0.950 . S
C371 C369 1.390 . S
C371 C372 1.387 . S
C371 H374 0.950 . S
C372 C371 1.387 . S
C372 C375 1.387 . S
H373 C369 0.950 . S
H374 C371 0.950 . S
C375 C366 1.390 . S
C375 H368 0.950 . S
C375 C372 1.387 . S
C376 C377 1.387 . S
C376 H380 0.950 . S
C376 C385 1.390 . S
C377 C376 1.387 . S
C377 C379 1.387 . S
H378 C385 0.950 . S
C379 C377 1.387 . S
C379 C381 1.390 . S
C379 H383 0.950 . S
H380 C376 0.950 . S
C381 C379 1.390 . S
C381 C382 1.387 . S
C381 H384 0.950 . S
C382 C381 1.387 . S
C382 C385 1.387 . S
H383 C379 0.950 . S
H384 C381 0.950 . S
C385 C376 1.390 . S
C385 H378 0.950 . S
C385 C382 1.387 . S
C386 C387 1.387 . S
C386 H390 0.950 . S
C386 C395 1.390 . S
C387 C386 1.387 . S
C387 C389 1.387 . S
H388 C395 0.950 . S
C389 C387 1.387 . S
C389 C391 1.390 . S
C389 H393 0.950 . S
H390 C386 0.950 . S
C391 C389 1.390 . S
C391 C392 1.387 . S
C391 H394 0.950 . S
C392 C391 1.387 . S
C392 C395 1.387 . S
H393 C389 0.950 . S
H394 C391 0.950 . S
C395 C386 1.390 . S
C395 H388 0.950 . S
C395 C392 1.387 . S
C396 C397 1.387 . S
C396 H400 0.950 . S
C396 C405 1.390 . S
C397 C396 1.387 . S
C397 C399 1.387 . S
H398 C405 0.950 . S
C399 C397 1.387 . S
C399 C401 1.390 . S
C399 H403 0.950 . S
H400 C396 0.950 . S
C401 C399 1.390 . S
C401 C402 1.387 . S
C401 H404 0.950 . S
C402 C401 1.387 . S
C402 C405 1.387 . S
H403 C399 0.950 . S
H404 C401 0.950 . S
C405 C396 1.390 . S
C405 H398 0.950 . S
C405 C402 1.387 . S
C406 C407 1.387 . S
C406 H410 0.950 . S
C406 C415 1.390 . S
C407 C406 1.387 . S
C407 C409 1.387 . S
H408 C415 0.950 . S
C409 C407 1.387 . S
C409 C411 1.390 . S
C409 H413 0.950 . S
H410 C406 0.950 . S
C411 C409 1.390 . S
C411 C412 1.387 . S
C411 H414 0.950 . S
C412 C411 1.387 . S
C412 C415 1.387 . S
H413 C409 0.950 . S
H414 C411 0.950 . S
C415 C406 1.390 . S
C415 H408 0.950 . S
C415 C412 1.387 . S
C416 C417 1.387 . S
C416 H420 0.950 . S
C416 C425 1.390 . S
C417 C416 1.387 . S
C417 C419 1.387 . S
H418 C425 0.950 . S
C419 C417 1.387 . S
C419 C421 1.390 . S
C419 H423 0.950 . S
H420 C416 0.950 . S
C421 C419 1.390 . S
C421 C422 1.387 . S
C421 H424 0.950 . S
C422 C421 1.387 . S
C422 C425 1.387 . S
H423 C419 0.950 . S
H424 C421 0.950 . S
C425 C416 1.390 . S
C425 H418 0.950 . S
C425 C422 1.387 . S
C426 C427 1.387 . S
C426 H430 0.950 . S
C426 C435 1.390 . S
C427 C426 1.387 . S
C427 C429 1.387 . S
H428 C435 0.950 . S
C429 C427 1.387 . S
C429 C431 1.390 . S
C429 H433 0.950 . S
H430 C426 0.950 . S
C431 C429 1.390 . S
C431 C432 1.387 . S
C431 H434 0.950 . S
C432 C431 1.387 . S
C432 C435 1.387 . S
H433 C429 0.950 . S
H434 C431 0.950 . S
C435 C426 1.390 . S
C435 H428 0.950 . S
C435 C432 1.387 . S
C436 C437 1.387 . S
C436 H440 0.950 . S
C436 C445 1.390 . S
C437 C436 1.387 . S
C437 C439 1.387 . S
H438 C445 0.950 . S
C439 C437 1.387 . S
C439 C441 1.390 . S
C439 H443 0.950 . S
H440 C436 0.950 . S
C441 C439 1.390 . S
C441 C442 1.387 . S
C441 H444 0.950 . S
C442 C441 1.387 . S
C442 C445 1.387 . S
H443 C439 0.950 . S
H444 C441 0.950 . S
C445 C436 1.390 . S
C445 H438 0.950 . S
C445 C442 1.387 . S
C446 C447 1.387 . S
C446 H450 0.950 . S
C446 C455 1.390 . S
C447 C446 1.387 . S
C447 C449 1.387 . S
H448 C455 0.950 . S
C449 C447 1.387 . S
C449 C451 1.390 . S
C449 H453 0.950 . S
H450 C446 0.950 . S
C451 C449 1.390 . S
C451 C452 1.387 . S
C451 H454 0.950 . S
C452 C451 1.387 . S
C452 C455 1.387 . S
H453 C449 0.950 . S
H454 C451 0.950 . S
C455 C446 1.390 . S
C455 H448 0.950 . S
C455 C452 1.387 . S
C456 C457 1.387 . S
C456 H460 0.950 . S
C456 C465 1.390 . S
C457 C456 1.387 . S
C457 C459 1.387 . S
H458 C465 0.950 . S
C459 C457 1.387 . S
C459 C461 1.390 . S
C459 H463 0.950 . S
H460 C456 0.950 . S
C461 C459 1.390 . S
C461 C462 1.387 . S
C461 H464 0.950 . S
C462 C461 1.387 . S
C462 C465 1.387 . S
H463 C459 0.950 . S
H464 C461 0.950 . S
C465 C456 1.390 . S
C465 H458 0.950 . S
C465 C462 1.387 . S
C466 C467 1.387 . S
C466 H470 0.950 . S
C466 C475 1.390 . S
C467 C466 1.387 . S
C467 C469 1.387 . S
H468 C475 0.950 . S
C469 C467 1.387 . S
C469 C471 1.390 . S
C469 H473 0.950 . S
H470 C466 0.950 . S
C471 C469 1.390 . S
C471 C472 1.387 . S
C471 H474 0.950 . S
C472 C471 1.387 . S
C472 C475 1.387 . S
H473 C469 0.950 . S
H474 C471 0.950 . S
C475 C466 1.390 . S
C475 H468 0.950 . S
C475 C472 1.387 . S
C476 C477 1.387 . S
C476 H480 0.950 . S
C476 C485 1.390 . S
C477 C476 1.387 . S
C477 C479 1.387 . S
H478 C485 0.950 . S
C479 C477 1.387 . S
C479 C481 1.390 . S
C479 H483 0.950 . S
H480 C476 0.950 . S
C481 C479 1.390 . S
C481 C482 1.387 . S
C481 H484 0.950 . S
C482 C481 1.387 . S
C482 C485 1.387 . S
H483 C479 0.950 . S
H484 C481 0.950 . S
C485 C476 1.390 . S
C485 H478 0.950 . S
C485 C482 1.387 . S
C486 C487 1.387 . S
C486 H490 0.950 . S
C486 C495 1.390 . S
C487 C486 1.387 . S
C487 C489 1.387 . S
H488 C495 0.950 . S
C489 C487 1.387 . S
C489 C491 1.390 . S
C489 H493 0.950 . S
H490 C486 0.950 . S
C491 C489 1.390 . S
C491 C492 1.387 . S
C491 H494 0.950 . S
C492 C491 1.387 . S
C492 C495 1.387 . S
H493 C489 0.950 . S
H494 C491 0.950 . S
C495 C486 1.390 . S
C495 H488 0.950 . S
C495 C492 1.387 . S
C496 C497 1.387 . S
C496 H500 0.950 . S
C496 C505 1.390 . S
C497 C496 1.387 . S
C497 C499 1.387 . S
H498 C505 0.950 . S
C499 C497 1.387 . S
C499 C501 1.390 . S
C499 H503 0.950 . S
H500 C496 0.950 . S
C501 C499 1.390 . S
C501 C502 1.387 . S
C501 H504 0.950 . S
C502 C501 1.387 . S
C502 C505 1.387 . S
H503 C499 0.950 . S
H504 C501 0.950 . S
C505 C496 1.390 . S
C505 H498 0.950 . S
C505 C502 1.387 . S
C506 C507 1.387 . S
C506 H510 0.950 . S
C506 C515 1.390 . S
C507 C506 1.387 . S
C507 C509 1.387 . S
H508 C515 0.950 . S
C509 C507 1.387 . S
C509 C511 1.390 . S
C509 H513 0.950 . S
H510 C506 0.950 . S
C511 C509 1.390 . S
C511 C512 1.387 . S
C511 H514 0.950 . S
C512 C511 1.387 . S
C512 C515 1.387 . S
H513 C509 0.950 . S
H514 C511 0.950 . S
C515 C506 1.390 . S
C515 H508 0.950 . S
C515 C512 1.387 . S
C516 C517 1.387 . S
C516 H520 0.950 . S
C516 C525 1.390 . S
C517 C516 1.387 . S
C517 C519 1.387 . S
H518 C525 0.950 . S
C519 C517 1.387 . S
C519 C521 1.390 . S
C519 H523 0.950 . S
H520 C516 0.950 . S
C521 C519 1.390 . S
C521 C522 1.387 . S
C521 H524 0.950 . S
C522 C521 1.387 . S
C522 C525 1.387 . S
H523 C519 0.950 . S
H524 C521 0.950 . S
C525 C516 1.390 . S
C525 H518 0.950 . S
C525 C522 1.387 . S
C526 C527 1.387 . S
C526 H530 0.950 . S
C526 C535 1.390 . S
C527 C526 1.387 . S
C527 C529 1.387 . S
H528 C535 0.950 . S
C529 C527 1.387 . S
C529 C531 1.390 . S
C529 H533 0.950 . S
H530 C526 0.950 . S
C531 C529 1.390 . S
C531 C532 1.387 . S
C531 H534 0.950 . S
C532 C531 1.387 . S
C532 C535 1.387 . S
H533 C529 0.950 . S
H534 C531 0.950 . S
C535 C526 1.390 . S
C535 H528 0.950 . S
C535 C532 1.387 . S
C536 C537 1.387 . S
C536 H540 0.950 . S
C536 C545 1.390 . S
C537 C536 1.387 . S
C537 C539 1.387 . S
H538 C545 0.950 . S
C539 C537 1.387 . S
C539 C541 1.390 . S
C539 H543 0.950 . S
H540 C536 0.950 . S
C541 C539 1.390 . S
C541 C542 1.387 . S
C541 H544 0.950 . S
C542 C541 1.387 . S
C542 C545 1.387 . S
H543 C539 0.950 . S
H544 C541 0.950 . S
C545 C536 1.390 . S
C545 H538 0.950 . S
C545 C542 1.387 . S
C546 C547 1.387 . S
C546 H550 0.950 . S
C546 C555 1.390 . S
C547 C546 1.387 . S
C547 C549 1.387 . S
H548 C555 0.950 . S
C549 C547 1.387 . S
C549 C551 1.390 . S
C549 H553 0.950 . S
H550 C546 0.950 . S
C551 C549 1.390 . S
C551 C552 1.387 . S
C551 H554 0.950 . S
C552 C551 1.387 . S
C552 C555 1.387 . S
H553 C549 0.950 . S
H554 C551 0.950 . S
C555 C546 1.390 . S
C555 H548 0.950 . S
C555 C552 1.387 . S
C556 C557 1.387 . S
C556 H560 0.950 . S
C556 C565 1.390 . S
C557 C556 1.387 . S
C557 C559 1.387 . S
H558 C565 0.950 . S
C559 C557 1.387 . S
C559 C561 1.390 . S
C559 H563 0.950 . S
H560 C556 0.950 . S
C561 C559 1.390 . S
C561 C562 1.387 . S
C561 H564 0.950 . S
C562 C561 1.387 . S
C562 C565 1.387 . S
H563 C559 0.950 . S
H564 C561 0.950 . S
C565 C556 1.390 . S
C565 H558 0.950 . S
C565 C562 1.387 . S
C566 C567 1.387 . S
C566 H570 0.950 . S
C566 C575 1.390 . S
C567 C566 1.387 . S
C567 C569 1.387 . S
H568 C575 0.950 . S
C569 C567 1.387 . S
C569 C571 1.390 . S
C569 H573 0.950 . S
H570 C566 0.950 . S
C571 C569 1.390 . S
C571 C572 1.387 . S
C571 H574 0.950 . S
C572 C571 1.387 . S
C572 C575 1.387 . S
H573 C569 0.950 . S
H574 C571 0.950 . S
C575 C566 1.390 . S
C575 H568 0.950 . S
C575 C572 1.387 . S
C576 C577 1.387 . S
C576 H580 0.950 . S
C576 C585 1.390 1_455 S
C577 C576 1.387 . S
C577 C579 1.387 . S
H578 C585 0.950 . S
C579 C577 1.387 . S
C579 C581 1.390 1_455 S
C579 H583 0.950 . S
H580 C576 0.950 . S
C581 C579 1.390 1_655 S
C581 C582 1.387 . S
C581 H584 0.950 . S
C582 C581 1.387 . S
C582 C585 1.387 . S
H583 C579 0.950 . S
H584 C581 0.950 . S
C585 C576 1.390 1_655 S
C585 H578 0.950 . S
C585 C582 1.387 . S
C586 C587 1.387 . S
C586 H590 0.950 . S
C586 C595 1.390 1_545 S
C587 C586 1.387 . S
C587 C589 1.387 . S
H588 C595 0.950 . S
C589 C587 1.387 . S
C589 C591 1.390 1_545 S
C589 H593 0.950 . S
H590 C586 0.950 . S
C591 C589 1.390 1_565 S
C591 C592 1.387 . S
C591 H594 0.950 . S
C592 C591 1.387 . S
C592 C595 1.387 . S
H593 C589 0.950 . S
H594 C591 0.950 . S
C595 C586 1.390 1_565 S
C595 H588 0.950 . S
C595 C592 1.387 . S
C596 C597 1.387 . S
C596 H600 0.950 . S
C596 C605 1.390 1_655 S
C597 C596 1.387 . S
C597 C599 1.387 . S
H598 C605 0.950 . S
C599 C597 1.387 . S
C599 C601 1.390 1_655 S
C599 H603 0.950 . S
H600 C596 0.950 . S
C601 C599 1.390 1_455 S
C601 C602 1.387 . S
C601 H604 0.950 . S
C602 C601 1.387 . S
C602 C605 1.387 . S
H603 C599 0.950 . S
H604 C601 0.950 . S
C605 C596 1.390 1_455 S
C605 H598 0.950 . S
C605 C602 1.387 . S
C606 C607 1.387 . S
C606 H610 0.950 . S
C606 C615 1.390 1_545 S
C607 C606 1.387 . S
C607 C609 1.387 . S
H608 C615 0.950 . S
C609 C607 1.387 . S
C609 C611 1.390 1_545 S
C609 H613 0.950 . S
H610 C606 0.950 . S
C611 C609 1.390 1_565 S
C611 C612 1.387 . S
C611 H614 0.950 . S
C612 C611 1.387 . S
C612 C615 1.387 . S
H613 C609 0.950 . S
H614 C611 0.950 . S
C615 C606 1.390 1_565 S
C615 H608 0.950 . S
C615 C612 1.387 . S
C616 C617 1.387 . S
C616 H620 0.950 . S
C616 C625 1.390 1_565 S
C617 C616 1.387 . S
C617 C619 1.387 . S
H618 C625 0.950 . S
C619 C617 1.387 . S
C619 C621 1.390 1_565 S
C619 H623 0.950 . S
H620 C616 0.950 . S
C621 C619 1.390 1_545 S
C621 C622 1.387 . S
C621 H624 0.950 . S
C622 C621 1.387 . S
C622 C625 1.387 . S
H623 C619 0.950 . S
H624 C621 0.950 . S
C625 C616 1.390 1_545 S
C625 H618 0.950 . S
C625 C622 1.387 . S
C626 C627 1.387 . S
C626 H630 0.950 . S
C626 C635 1.390 1_655 S
C627 C626 1.387 . S
C627 C629 1.387 . S
H628 C635 0.950 . S
C629 C627 1.387 . S
C629 C631 1.390 1_655 S
C629 H633 0.950 . S
H630 C626 0.950 . S
C631 C629 1.390 1_455 S
C631 C632 1.387 . S
C631 H634 0.950 . S
C632 C631 1.387 . S
C632 C635 1.387 . S
H633 C629 0.950 . S
H634 C631 0.950 . S
C635 C626 1.390 1_455 S
C635 H628 0.950 . S
C635 C632 1.387 . S
C636 C637 1.387 . S
C636 H640 0.950 . S
C636 C645 1.390 1_565 S
C637 C636 1.387 . S
C637 C639 1.387 . S
H638 C645 0.950 . S
C639 C637 1.387 . S
C639 C641 1.390 1_565 S
C639 H643 0.950 . S
H640 C636 0.950 . S
C641 C639 1.390 1_545 S
C641 C642 1.387 . S
C641 H644 0.950 . S
C642 C641 1.387 . S
C642 C645 1.387 . S
H643 C639 0.950 . S
H644 C641 0.950 . S
C645 C636 1.390 1_545 S
C645 H638 0.950 . S
C645 C642 1.387 . S
C646 C647 1.387 . S
C646 H650 0.950 . S
C646 C655 1.390 1_655 S
C647 C646 1.387 . S
C647 C649 1.387 . S
H648 C655 0.950 . S
C649 C647 1.387 . S
C649 C651 1.390 1_655 S
C649 H653 0.950 . S
H650 C646 0.950 . S
C651 C649 1.390 1_455 S
C651 C652 1.387 . S
C651 H654 0.950 . S
C652 C651 1.387 . S
C652 C655 1.387 . S
H653 C649 0.950 . S
H654 C651 0.950 . S
C655 C646 1.390 1_455 S
C655 H648 0.950 . S
C655 C652 1.387 . S
C656 C657 1.387 . S
C656 H660 0.950 . S
C656 C665 1.390 1_556 S
C657 C656 1.387 . S
C657 C659 1.387 . S
H658 C665 0.950 . S
C659 C657 1.387 . S
C659 C661 1.390 1_556 S
C659 H663 0.950 . S
H660 C656 0.950 . S
C661 C659 1.390 1_554 S
C661 C662 1.387 . S
C661 H664 0.950 . S
C662 C661 1.387 . S
C662 C665 1.387 . S
H663 C659 0.950 . S
H664 C661 0.950 . S
C665 C656 1.390 1_554 S
C665 H658 0.950 . S
C665 C662 1.387 . S
C666 C667 1.387 . S
C666 H670 0.950 . S
C666 C675 1.390 1_556 S
C667 C666 1.387 . S
C667 C669 1.387 . S
H668 C675 0.950 . S
C669 C667 1.387 . S
C669 C671 1.390 1_556 S
C669 H673 0.950 . S
H670 C666 0.950 . S
C671 C669 1.390 1_554 S
C671 C672 1.387 . S
C671 H674 0.950 . S
C672 C671 1.387 . S
C672 C675 1.387 . S
H673 C669 0.950 . S
H674 C671 0.950 . S
C675 C666 1.390 1_554 S
C675 H668 0.950 . S
C675 C672 1.387 . S
C676 C677 1.387 . S
C676 H680 0.950 . S
C676 C685 1.390 1_556 S
C677 C676 1.387 . S
C677 C679 1.387 . S
H678 C685 0.950 . S
C679 C677 1.387 . S
C679 C681 1.390 1_556 S
C679 H683 0.950 . S
H680 C676 0.950 . S
C681 C679 1.390 1_554 S
C681 C682 1.387 . S
C681 H684 0.950 . S
C682 C681 1.387 . S
C682 C685 1.387 . S
H683 C679 0.950 . S
H684 C681 0.950 . S
C685 C676 1.390 1_554 S
C685 H678 0.950 . S
C685 C682 1.387 . S
C686 C687 1.387 . S
C686 H690 0.950 . S
C686 C695 1.390 1_556 S
C687 C686 1.387 . S
C687 C689 1.387 . S
H688 C695 0.950 . S
C689 C687 1.387 . S
C689 C691 1.390 1_556 S
C689 H693 0.950 . S
H690 C686 0.950 . S
C691 C689 1.390 1_554 S
C691 C692 1.387 . S
C691 H694 0.950 . S
C692 C691 1.387 . S
C692 C695 1.387 . S
H693 C689 0.950 . S
H694 C691 0.950 . S
C695 C686 1.390 1_554 S
C695 H688 0.950 . S
C695 C692 1.387 . S
C696 C697 1.387 . S
C696 H700 0.950 . S
C696 C705 1.390 . S
C697 C696 1.387 . S
C697 C699 1.387 . S
H698 C705 0.950 . S
C699 C697 1.387 . S
C699 C701 1.390 . S
C699 H703 0.950 . S
H700 C696 0.950 . S
C701 C699 1.390 . S
C701 C702 1.387 . S
C701 H704 0.950 . S
C702 C701 1.387 . S
C702 C705 1.387 . S
H703 C699 0.950 . S
H704 C701 0.950 . S
C705 C696 1.390 . S
C705 H698 0.950 . S
C705 C702 1.387 . S
C706 C707 1.387 . S
C706 H710 0.950 . S
C706 C715 1.390 . S
C707 C706 1.387 . S
C707 C709 1.387 . S
H708 C715 0.950 . S
C709 C707 1.387 . S
C709 C711 1.390 . S
C709 H713 0.950 . S
H710 C706 0.950 . S
C711 C709 1.390 . S
C711 C712 1.387 . S
C711 H714 0.950 . S
C712 C711 1.387 . S
C712 C715 1.387 . S
H713 C709 0.950 . S
H714 C711 0.950 . S
C715 C706 1.390 . S
C715 H708 0.950 . S
C715 C712 1.387 . S
C716 C717 1.387 . S
C716 H720 0.950 . S
C716 C725 1.390 . S
C717 C716 1.387 . S
C717 C719 1.387 . S
H718 C725 0.950 . S
C719 C717 1.387 . S
C719 C721 1.390 . S
C719 H723 0.950 . S
H720 C716 0.950 . S
C721 C719 1.390 . S
C721 C722 1.387 . S
C721 H724 0.950 . S
C722 C721 1.387 . S
C722 C725 1.387 . S
H723 C719 0.950 . S
H724 C721 0.950 . S
C725 C716 1.390 . S
C725 H718 0.950 . S
C725 C722 1.387 . S
C726 C727 1.387 . S
C726 H730 0.950 . S
C726 C735 1.390 . S
C727 C726 1.387 . S
C727 C729 1.387 . S
H728 C735 0.950 . S
C729 C727 1.387 . S
C729 C731 1.390 . S
C729 H733 0.950 . S
H730 C726 0.950 . S
C731 C729 1.390 . S
C731 C732 1.387 . S
C731 H734 0.950 . S
C732 C731 1.387 . S
C732 C735 1.387 . S
H733 C729 0.950 . S
H734 C731 0.950 . S
C735 C726 1.390 . S
C735 H728 0.950 . S
C735 C732 1.387 . S
C736 C737 1.387 . S
C736 H740 0.950 . S
C736 C745 1.390 . S
C737 C736 1.387 . S
C737 C739 1.387 . S
H738 C745 0.950 . S
C739 C737 1.387 . S
C739 C741 1.390 . S
C739 H743 0.950 . S
H740 C736 0.950 . S
C741 C739 1.390 . S
C741 C742 1.387 . S
C741 H744 0.950 . S
C742 C741 1.387 . S
C742 C745 1.387 . S
H743 C739 0.950 . S
H744 C741 0.950 . S
C745 C736 1.390 . S
C745 H738 0.950 . S
C745 C742 1.387 . S
C746 C747 1.387 . S
C746 H750 0.950 . S
C746 C755 1.390 . S
C747 C746 1.387 . S
C747 C749 1.387 . S
H748 C755 0.950 . S
C749 C747 1.387 . S
C749 C751 1.390 . S
C749 H753 0.950 . S
H750 C746 0.950 . S
C751 C749 1.390 . S
C751 C752 1.387 . S
C751 H754 0.950 . S
C752 C751 1.387 . S
C752 C755 1.387 . S
H753 C749 0.950 . S
H754 C751 0.950 . S
C755 C746 1.390 . S
C755 H748 0.950 . S
C755 C752 1.387 . S
C756 C757 1.387 . S
C756 H760 0.950 . S
C756 C765 1.390 . S
C757 C756 1.387 . S
C757 C759 1.387 . S
H758 C765 0.950 . S
C759 C757 1.387 . S
C759 C761 1.390 . S
C759 H763 0.950 . S
H760 C756 0.950 . S
C761 C759 1.390 . S
C761 C762 1.387 . S
C761 H764 0.950 . S
C762 C761 1.387 . S
C762 C765 1.387 . S
H763 C759 0.950 . S
H764 C761 0.950 . S
C765 C756 1.390 . S
C765 H758 0.950 . S
C765 C762 1.387 . S
C766 C767 1.387 . S
C766 H770 0.950 . S
C766 C775 1.390 . S
C767 C766 1.387 . S
C767 C769 1.387 . S
H768 C775 0.950 . S
C769 C767 1.387 . S
C769 C771 1.390 . S
C769 H773 0.950 . S
H770 C766 0.950 . S
C771 C769 1.390 . S
C771 C772 1.387 . S
C771 H774 0.950 . S
C772 C771 1.387 . S
C772 C775 1.387 . S
H773 C769 0.950 . S
H774 C771 0.950 . S
C775 C766 1.390 . S
C775 H768 0.950 . S
C775 C772 1.387 . S
C776 C777 1.387 . S
C776 H780 0.950 . S
C776 C785 1.390 . S
C777 C776 1.387 . S
C777 C779 1.387 . S
H778 C785 0.950 . S
C779 C777 1.387 . S
C779 C781 1.390 . S
C779 H783 0.950 . S
H780 C776 0.950 . S
C781 C779 1.390 . S
C781 C782 1.387 . S
C781 H784 0.950 . S
C782 C781 1.387 . S
C782 C785 1.387 . S
H783 C779 0.950 . S
H784 C781 0.950 . S
C785 C776 1.390 . S
C785 H778 0.950 . S
C785 C782 1.387 . S
C786 C787 1.387 . S
C786 H790 0.950 . S
C786 C795 1.390 . S
C787 C786 1.387 . S
C787 C789 1.387 . S
H788 C795 0.950 . S
C789 C787 1.387 . S
C789 C791 1.390 . S
C789 H793 0.950 . S
H790 C786 0.950 . S
C791 C789 1.390 . S
C791 C792 1.387 . S
C791 H794 0.950 . S
C792 C791 1.387 . S
C792 C795 1.387 . S
H793 C789 0.950 . S
H794 C791 0.950 . S
C795 C786 1.390 . S
C795 H788 0.950 . S
C795 C792 1.387 . S
C796 C797 1.387 . S
C796 H800 0.950 . S
C796 C805 1.390 . S
C797 C796 1.387 . S
C797 C799 1.387 . S
H798 C805 0.950 . S
C799 C797 1.387 . S
C799 C801 1.390 . S
C799 H803 0.950 . S
H800 C796 0.950 . S
C801 C799 1.390 . S
C801 C802 1.387 . S
C801 H804 0.950 . S
C802 C801 1.387 . S
C802 C805 1.387 . S
H803 C799 0.950 . S
H804 C801 0.950 . S
C805 C796 1.390 . S
C805 H798 0.950 . S
C805 C802 1.387 . S
C806 C807 1.387 . S
C806 H810 0.950 . S
C806 C815 1.390 . S
C807 C806 1.387 . S
C807 C809 1.387 . S
H808 C815 0.950 . S
C809 C807 1.387 . S
C809 C811 1.390 . S
C809 H813 0.950 . S
H810 C806 0.950 . S
C811 C809 1.390 . S
C811 C812 1.387 . S
C811 H814 0.950 . S
C812 C811 1.387 . S
C812 C815 1.387 . S
H813 C809 0.950 . S
H814 C811 0.950 . S
C815 C806 1.390 . S
C815 H808 0.950 . S
C815 C812 1.387 . S
C337 C161 1.414 . S
C342 C3 1.505 . S
C347 C17 1.506 . S
C352 C119 1.410 . S
C357 C31 1.506 . S
C362 C133 1.410 . S
C367 C45 1.505 . S
C372 C147 1.414 . S
C377 C189 1.410 . S
C382 C59 1.506 . S
C387 C73 1.505 . S
C392 C203 1.414 . S
C397 C217 1.414 . S
C402 C87 1.505 . S
C407 C175 1.410 . S
C412 C101 1.506 . S
C417 C77 1.410 . S
C422 C115 1.506 . S
C427 C91 1.413 . S
C432 C129 1.505 . S
C437 C143 1.506 . S
C442 C105 1.410 . S
C447 C63 1.414 . S
C452 C157 1.505 . S
C457 C49 1.414 . S
C462 C171 1.505 . S
C467 C185 1.505 . S
C472 C7 1.414 . S
C477 C199 1.505 . S
C482 C21 1.414 . S
C487 C213 1.505 . S
C492 C35 1.414 . S
C497 C227 1.506 . S
C502 C329 1.410 . S
C507 C287 1.411 . S
C512 C241 1.506 . S
C517 C255 1.506 . S
C522 C245 1.410 . S
C527 C269 1.506 . S
C532 C259 1.410 . S
C537 C273 1.414 . S
C542 C283 1.505 . S
C547 C297 1.505 . S
C552 C315 1.413 . S
C557 C231 1.414 . S
C562 C311 1.505 . S
C567 C301 1.410 . S
C572 C325 1.506 . S
C577 C9 1.509 . S
C582 C93 1.509 . S
C587 C23 1.509 . S
C592 C107 1.509 . S
C597 C37 1.509 . S
C602 C65 1.509 . S
C607 C79 1.509 . S
C612 C51 1.509 . S
C617 C149 1.509 . S
C622 C121 1.509 . S
C627 C135 1.509 . S
C632 C163 1.509 . S
C637 C177 1.509 . S
C642 C205 1.509 . S
C647 C219 1.509 . S
C652 C191 1.509 . S
C657 C247 1.509 . S
C662 C233 1.509 . S
C667 C261 1.509 . S
C672 C331 1.509 . S
C677 C275 1.509 . S
C682 C303 1.509 . S
C687 C289 1.509 . S
C692 C317 1.509 . S
C697 C8 1.170 . S
C702 C78 1.171 . S
C707 C22 1.171 . S
C712 C92 1.170 . S
C717 C36 1.170 . S
C722 C106 1.171 . S
C727 C64 1.170 . S
C732 C50 1.171 . S
C737 C120 1.171 . S
C742 C330 1.170 . S
C747 C134 1.170 . S
C752 C302 1.171 . S
C757 C316 1.170 . S
C762 C148 1.171 . S
C767 C162 1.170 . S
C772 C232 1.171 . S
C777 C288 1.170 . S
C782 C176 1.171 . S
C787 C246 1.171 . S
C792 C190 1.170 . S
C797 C204 1.170 . S
C802 C260 1.171 . S
C807 C274 1.170 . S
C812 C218 1.171 . S
