# Generated by pormake.
# Topology hjm, (4)-cn, num edge types: 1
# Building blocks:
#     Node 0, Type 0, BuildingBlock: ICAMEG_clean_sbu_1, # of connection points: 4
#     Node 1, Type 0, BuildingBlock: ICAMEG_clean_sbu_1, # of connection points: 4
#     Node 2, Type 0, BuildingBlock: ICAMEG_clean_sbu_1, # of connection points: 4
#     Node 3, Type 0, BuildingBlock: ICAMEG_clean_sbu_1, # of connection points: 4
#     Node 4, Type 0, BuildingBlock: ICAMEG_clean_sbu_1, # of connection points: 4
#     Node 5, Type 0, BuildingBlock: ICAMEG_clean_sbu_1, # of connection points: 4
#     Node 6, Type 0, BuildingBlock: ICAMEG_clean_sbu_1, # of connection points: 4
#     Node 7, Type 0, BuildingBlock: ICAMEG_clean_sbu_1, # of connection points: 4
#     Edge 8, Type (0, 0), BuildingBlock: KIFKEQ_clean_linker_1, # of connection points: 2
#     Edge 9, Type (0, 0), BuildingBlock: KIFKEQ_clean_linker_1, # of connection points: 2
#     Edge 10, Type (0, 0), BuildingBlock: KIFKEQ_clean_linker_1, # of connection points: 2
#     Edge 11, Type (0, 0), BuildingBlock: KIFKEQ_clean_linker_1, # of connection points: 2
#     Edge 12, Type (0, 0), BuildingBlock: KIFKEQ_clean_linker_1, # of connection points: 2
#     Edge 13, Type (0, 0), BuildingBlock: KIFKEQ_clean_linker_1, # of connection points: 2
#     Edge 14, Type (0, 0), BuildingBlock: KIFKEQ_clean_linker_1, # of connection points: 2
#     Edge 15, Type (0, 0), BuildingBlock: KIFKEQ_clean_linker_1, # of connection points: 2
#     Edge 16, Type (0, 0), BuildingBlock: KIFKEQ_clean_linker_1, # of connection points: 2
#     Edge 17, Type (0, 0), BuildingBlock: KIFKEQ_clean_linker_1, # of connection points: 2
#     Edge 18, Type (0, 0), BuildingBlock: KIFKEQ_clean_linker_1, # of connection points: 2
#     Edge 19, Type (0, 0), BuildingBlock: KIFKEQ_clean_linker_1, # of connection points: 2
#     Edge 20, Type (0, 0), BuildingBlock: KIFKEQ_clean_linker_1, # of connection points: 2
#     Edge 21, Type (0, 0), BuildingBlock: KIFKEQ_clean_linker_1, # of connection points: 2
#     Edge 22, Type (0, 0), BuildingBlock: KIFKEQ_clean_linker_1, # of connection points: 2
#     Edge 23, Type (0, 0), BuildingBlock: KIFKEQ_clean_linker_1, # of connection points: 2
# Relax obj value: 0.162
# Max RMSD: 0.208
# Mean RMSD: 0.208
data_MOF--net-hjm--node1-ICAMEG_clean_sbu_1--edge1-KIFKEQ_clean_linker_1
_symmetry_space_group_name_H-M    P1
_symmetry_Int_Tables_number       1
_symmetry_cell_setting            triclinic
loop_
_symmetry_equiv_pos_as_xyz
'x, y, z'
_cell_length_a     25.492683
_cell_length_b     26.128711
_cell_length_c     25.146279
_cell_angle_alpha  90.403832
_cell_angle_beta   68.718715
_cell_angle_gamma 90.422926
loop_
_atom_site_label
_atom_site_type_symbol
_atom_site_fract_x
_atom_site_fract_y
_atom_site_fract_z
_atom_type_partial_charge
Co0 Co 0.20108 0.35122 0.33451 0.0
Co1 Co 0.21702 0.22295 0.33835 0.0
O2 O 0.17147 0.28489 0.3705 0.0
C3 C 0.13196 0.38077 0.45754 0.0
O4 O 0.11436 0.33389 0.47297 0.0
C5 C 0.09547 0.18163 0.39186 0.0
O6 O 0.07226 0.22618 0.39127 0.0
O7 O 0.20448 0.23521 0.26496 0.0
O8 O 0.23264 0.31716 0.25777 0.0
H9 H 0.36121 0.12304 0.18182 0.0
H10 H 0.07735 0.33122 0.3965 0.0
O11 O 0.16948 0.38948 0.40876 0.0
H12 H 0.09187 0.41242 0.21573 0.0
H13 H 0.21704 0.54271 0.32236 0.0
H14 H 0.30902 0.38003 0.24315 0.0
H15 H 0.17689 0.39564 0.23697 0.0
H16 H 0.16506 0.46145 0.34938 0.0
O17 O 0.14882 0.17639 0.36942 0.0
H18 H 0.30539 0.19907 0.22602 0.0
H19 H 0.22389 0.1165 0.37902 0.0
H20 H 0.35894 0.46097 0.2083 0.0
H21 H 0.99127 0.34929 0.37808 0.0
H22 H 0.31358 0.54326 0.24943 0.0
H23 H 0.99792 0.39014 0.28697 0.0
O24 O 0.27096 0.33929 0.34989 0.0
H25 H 0.1599 0.22061 0.55206 0.0
H26 H 0.31786 0.19976 0.36856 0.0
H27 H 0.335 0.19208 0.45852 0.0
H28 H 0.25567 0.20241 0.55117 0.0
H29 H 0.14469 0.22862 0.46117 0.0
H30 H 0.27838 0.0395 0.3363 0.0
H31 H 0.34783 0.04237 0.23701 0.0
O32 O 0.28905 0.26338 0.30775 0.0
C33 C 0.22092 0.2764 0.2359 0.0
C34 C 0.331 0.12122 0.2251 0.0
C35 C 0.28446 0.0743 0.31173 0.0
N36 N 0.26098 0.16233 0.3051 0.0
C37 C 0.29919 0.1642 0.25042 0.0
C38 C 0.25339 0.11802 0.33563 0.0
C39 C 0.32348 0.07598 0.25606 0.0
C40 C 0.08106 0.35017 0.35755 0.0
N41 N 0.1326 0.36384 0.31899 0.0
C42 C 0.03191 0.35986 0.34699 0.0
C43 C 0.03564 0.38266 0.29585 0.0
C44 C 0.08829 0.39515 0.25591 0.0
C45 C 0.13645 0.38549 0.26828 0.0
C46 C 0.23655 0.50735 0.30289 0.0
C47 C 0.28757 0.41559 0.259 0.0
C48 C 0.20786 0.46098 0.31924 0.0
N49 N 0.2342 0.41565 0.29914 0.0
C50 C 0.31647 0.46141 0.23951 0.0
C51 C 0.29101 0.50755 0.26244 0.0
C52 C 0.30531 0.30412 0.32524 0.0
C53 C 0.19473 0.21566 0.51196 0.0
C54 C 0.28299 0.20419 0.40863 0.0
C55 C 0.29301 0.19976 0.45948 0.0
C56 C 0.24849 0.2055 0.51144 0.0
N57 N 0.23006 0.21398 0.40941 0.0
C58 C 0.18632 0.21995 0.46027 0.0
Co59 Co 0.83449 0.30628 0.21692 0.0
Co60 Co 0.77579 0.19097 0.20262 0.0
O61 O 0.83641 0.2423 0.17535 0.0
C62 C 0.85942 0.38515 0.12834 0.0
O63 O 0.80956 0.40416 0.15729 0.0
C64 C 0.88393 0.13251 0.16378 0.0
O65 O 0.90573 0.16781 0.18701 0.0
O66 O 0.78443 0.18823 0.27934 0.0
O67 O 0.79545 0.27218 0.29123 0.0
H68 H 0.59485 0.11763 0.34 0.0
H69 H 0.94515 0.27483 0.13216 0.0
O70 O 0.87417 0.34264 0.14317 0.0
H71 H 0.96984 0.27458 0.3177 0.0
H72 H 0.91601 0.4698 0.26298 0.0
H73 H 0.74657 0.36072 0.31112 0.0
H74 H 0.87948 0.29998 0.31143 0.0
H75 H 0.91847 0.38891 0.21118 0.0
O76 O 0.83187 0.13419 0.17082 0.0
H77 H 0.67582 0.1771 0.30884 0.0
H78 H 0.74713 0.09533 0.15267 0.0
H79 H 0.74231 0.44133 0.36405 0.0
H80 H 0.03733 0.25208 0.13618 0.0
H81 H 0.82741 0.49656 0.34002 0.0
H82 H 0.05006 0.2516 0.22955 0.0
O83 O 0.75994 0.32254 0.21264 0.0
H84 H 0.84454 0.18896 0.98817 0.0
H85 H 0.67734 0.20103 0.1652 0.0
H86 H 0.66521 0.19833 0.07234 0.0
H87 H 0.74915 0.19147 0.98293 0.0
H88 H 0.85474 0.19052 0.08186 0.0
H89 H 0.66603 0.03602 0.18137 0.0
H90 H 0.58902 0.0471 0.27553 0.0
O91 O 0.7177 0.24555 0.23266 0.0
C92 C 0.78409 0.22704 0.31102 0.0
C93 C 0.62796 0.1126 0.2987 0.0
C94 C 0.66785 0.06685 0.20962 0.0
N95 N 0.71599 0.14003 0.22879 0.0
C96 C 0.67414 0.14595 0.28098 0.0
C97 C 0.7139 0.10036 0.1938 0.0
C98 C 0.62465 0.07309 0.26248 0.0
C99 C 0.95063 0.2758 0.1728 0.0
N100 N 0.90683 0.28889 0.22144 0.0
C101 C 0.00284 0.26245 0.17486 0.0
C102 C 0.00992 0.26205 0.22726 0.0
C103 C 0.96497 0.27504 0.27672 0.0
C104 C 0.91363 0.28888 0.27295 0.0
C105 C 0.87863 0.44608 0.27387 0.0
C106 C 0.78381 0.3845 0.30039 0.0
C107 C 0.87976 0.40018 0.2447 0.0
N108 N 0.83269 0.36998 0.25811 0.0
C109 C 0.78116 0.43009 0.33057 0.0
C110 C 0.82894 0.46104 0.3171 0.0
C111 C 0.71644 0.29391 0.22715 0.0
C112 C 0.80758 0.19125 0.0268 0.0
C113 C 0.71416 0.19846 0.12653 0.0
C114 C 0.70698 0.19669 0.07405 0.0
C115 C 0.75407 0.19272 0.02391 0.0
N116 N 0.76667 0.1948 0.12916 0.0
C117 C 0.8131 0.19229 0.08007 0.0
Co118 Co 0.7891 0.70499 0.68784 0.0
Co119 Co 0.75787 0.83009 0.67896 0.0
O120 O 0.81127 0.77233 0.65144 0.0
C121 C 0.8678 0.67913 0.56754 0.0
O122 O 0.88 0.72724 0.5535 0.0
C123 C 0.87439 0.87965 0.62581 0.0
O124 O 0.89926 0.83507 0.62 0.0
O125 O 0.76579 0.82378 0.75532 0.0
O126 O 0.74926 0.73918 0.76384 0.0
H127 H 0.59064 0.91789 0.82211 0.0
H128 H 0.91135 0.73657 0.63183 0.0
O129 O 0.82916 0.66723 0.61451 0.0
H130 H 0.89627 0.65569 0.81276 0.0
H131 H 0.80436 0.51532 0.71191 0.0
H132 H 0.68276 0.66644 0.77442 0.0
H133 H 0.81156 0.67074 0.7903 0.0
H134 H 0.84053 0.60051 0.67622 0.0
O135 O 0.82113 0.88285 0.65173 0.0
H136 H 0.65913 0.84824 0.78502 0.0
H137 H 0.74509 0.934 0.63533 0.0
H138 H 0.64653 0.58209 0.81481 0.0
H139 H 0.99709 0.72093 0.65172 0.0
H140 H 0.70719 0.50545 0.78308 0.0
H141 H 0.99026 0.67816 0.74187 0.0
O142 O 0.72092 0.70664 0.66758 0.0
H143 H 0.82633 0.82482 0.46386 0.0
H144 H 0.66005 0.84116 0.64104 0.0
H145 H 0.64799 0.84276 0.54826 0.0
H146 H 0.73155 0.83466 0.4587 0.0
H147 H 0.83655 0.82329 0.55736 0.0
H148 H 0.67802 1.005 0.67139 0.0
H149 H 0.5996 0.99676 0.76512 0.0
O150 O 0.69081 0.78263 0.70584 0.0
C151 C 0.75366 0.78282 0.7854 0.0
C152 C 0.62437 0.92171 0.78103 0.0
C153 C 0.67348 0.97062 0.69648 0.0
N154 N 0.70597 0.88676 0.70784 0.0
C155 C 0.66335 0.88237 0.75977 0.0
C156 C 0.71162 0.93044 0.67651 0.0
C157 C 0.62947 0.96602 0.74902 0.0
C158 C 0.90753 0.71778 0.67078 0.0
N159 N 0.85623 0.70197 0.70803 0.0
C160 C 0.95648 0.7094 0.68218 0.0
C161 C 0.95264 0.68577 0.73291 0.0
C162 C 0.89996 0.67296 0.77256 0.0
C163 C 0.85201 0.68176 0.75953 0.0
C164 C 0.7778 0.54833 0.72705 0.0
C165 C 0.71011 0.63364 0.76163 0.0
C166 C 0.79779 0.59681 0.7062 0.0
N167 N 0.76383 0.63873 0.72302 0.0
C168 C 0.68914 0.58584 0.78437 0.0
C169 C 0.7232 0.54287 0.76659 0.0
C170 C 0.68178 0.73889 0.68813 0.0
C171 C 0.78968 0.82895 0.50257 0.0
C172 C 0.69681 0.8381 0.60239 0.0
C173 C 0.68962 0.83893 0.54989 0.0
C174 C 0.73648 0.83441 0.49968 0.0
N175 N 0.74928 0.83342 0.60501 0.0
C176 C 0.79526 0.82842 0.55584 0.0
Co177 Co 0.15426 0.71921 0.80665 0.0
Co178 Co 0.23195 0.82738 0.80843 0.0
O179 O 0.16988 0.77932 0.84508 0.0
C180 C 0.14654 0.63468 0.88478 0.0
O181 O 0.18893 0.61497 0.84265 0.0
C182 C 0.1306 0.89334 0.85422 0.0
O183 O 0.10697 0.86431 0.8263 0.0
O184 O 0.21117 0.83409 0.73874 0.0
O185 O 0.17877 0.75513 0.73316 0.0
H186 H 0.3999 0.89597 0.64785 0.0
H187 H 0.06457 0.75306 0.91344 0.0
O188 O 0.12947 0.67965 0.87998 0.0
H189 H 0.98855 0.78295 0.76206 0.0
H190 H 0.03422 0.57374 0.78167 0.0
H191 H 0.21421 0.66674 0.69633 0.0
H192 H 0.08099 0.74201 0.73943 0.0
H193 H 0.05854 0.64481 0.83367 0.0
O194 O 0.1818 0.88595 0.84832 0.0
H195 H 0.31935 0.83813 0.69271 0.0
H196 H 0.2772 0.91922 0.84946 0.0
H197 H 0.19097 0.59665 0.64236 0.0
H198 H 0.97027 0.79067 0.93835 0.0
H199 H 0.10031 0.54974 0.68493 0.0
H200 H 0.93188 0.80631 0.86221 0.0
O201 O 0.23374 0.6956 0.78746 0.0
H202 H 0.19872 0.82344 0.01834 0.0
H203 H 0.34037 0.80599 0.82399 0.0
H204 H 0.36937 0.79697 0.90688 0.0
H205 H 0.29851 0.80668 1.0049 0.0
H206 H 0.17125 0.83135 0.9343 0.0
H207 H 0.35943 0.97621 0.80701 0.0
H208 H 0.42052 0.96554 0.70529 0.0
O209 O 0.28272 0.76983 0.77 0.0
C210 C 0.19669 0.79839 0.71173 0.0
C211 C 0.37322 0.90134 0.69214 0.0
C212 C 0.35018 0.9466 0.78138 0.0
N213 N 0.29345 0.87523 0.77363 0.0
C214 C 0.32735 0.86881 0.71773 0.0
C215 C 0.30386 0.91408 0.8052 0.0
C216 C 0.38476 0.94037 0.72436 0.0
C217 C 0.04747 0.75811 0.88031 0.0
N218 N 0.07819 0.74468 0.82514 0.0
C219 C 0.99425 0.77999 0.89461 0.0
C220 C 0.9728 0.78887 0.85187 0.0
C221 C 0.00452 0.77556 0.79567 0.0
C222 C 0.05711 0.75279 0.78308 0.0
C223 C 0.07379 0.59397 0.76261 0.0
C224 C 0.17474 0.64643 0.71525 0.0
C225 C 0.08793 0.63408 0.79196 0.0
N226 N 0.13769 0.66004 0.768 0.0
C227 C 0.16173 0.60689 0.68439 0.0
C228 C 0.11083 0.5806 0.70829 0.0
C229 C 0.27978 0.72112 0.76912 0.0
C230 C 0.23009 0.81972 0.97581 0.0
C231 C 0.30907 0.80965 0.86649 0.0
C232 C 0.32584 0.80474 0.91327 0.0
C233 C 0.28607 0.81019 0.96825 0.0
N234 N 0.25424 0.81986 0.87417 0.0
C235 C 0.21482 0.82428 0.92802 0.0
Co236 Co 0.6912 0.84898 0.30231 0.0
Co237 Co 0.69673 0.71985 0.30956 0.0
O238 O 0.6583 0.78478 0.34085 0.0
C239 C 0.63348 0.87911 0.42773 0.0
O240 O 0.61488 0.83273 0.44418 0.0
C241 C 0.57491 0.69018 0.37829 0.0
O242 O 0.55985 0.73799 0.39108 0.0
O243 O 0.6824 0.73405 0.23763 0.0
O244 O 0.71811 0.81357 0.2257 0.0
H245 H 0.8295 0.60973 0.15465 0.0
H246 H 0.56798 0.84087 0.37222 0.0
O247 O 0.66484 0.88794 0.37623 0.0
H248 H 0.57881 0.91141 0.18747 0.0
H249 H 0.71895 0.03894 0.29115 0.0
H250 H 0.79884 0.87305 0.20823 0.0
H251 H 0.66532 0.89077 0.20486 0.0
H252 H 0.66168 0.96044 0.31767 0.0
O253 O 0.62387 0.67957 0.34244 0.0
H254 H 0.78268 0.69019 0.19781 0.0
H255 H 0.68891 0.61177 0.35063 0.0
H256 H 0.85415 0.95178 0.17416 0.0
H257 H 0.48069 0.862 0.35715 0.0
H258 H 0.81507 0.03534 0.21799 0.0
H259 H 0.48553 0.89715 0.26401 0.0
O260 O 0.76137 0.83278 0.31469 0.0
H261 H 0.65245 0.7226 0.52267 0.0
H262 H 0.79589 0.68275 0.33455 0.0
H263 H 0.8183 0.67135 0.42094 0.0
H264 H 0.74627 0.69119 0.51606 0.0
H265 H 0.63225 0.7344 0.43545 0.0
H266 H 0.73376 0.53047 0.30869 0.0
H267 H 0.80516 0.52907 0.21022 0.0
O268 O 0.77251 0.75475 0.27679 0.0
C269 C 0.70122 0.77371 0.20665 0.0
C270 C 0.79864 0.60986 0.19768 0.0
C271 C 0.74494 0.56534 0.28409 0.0
N272 N 0.73324 0.65588 0.2768 0.0
C273 C 0.77206 0.65534 0.22241 0.0
C274 C 0.71938 0.61153 0.3075 0.0
C275 C 0.78494 0.5646 0.22884 0.0
C276 C 0.57086 0.85704 0.33206 0.0
N277 N 0.62207 0.86552 0.2901 0.0
C278 C 0.52108 0.86864 0.32356 0.0
C279 C 0.5238 0.88837 0.2713 0.0
C280 C 0.57609 0.89634 0.22837 0.0
C281 C 0.625 0.88462 0.23857 0.0
C282 C 0.73587 1.00295 0.27103 0.0
C283 C 0.77997 0.90952 0.22459 0.0
C284 C 0.704 0.95814 0.28657 0.0
N285 N 0.72707 0.91183 0.26539 0.0
C286 C 0.81196 0.95396 0.20579 0.0
C287 C 0.79005 1.00083 0.23018 0.0
C288 C 0.79215 0.79458 0.29277 0.0
C289 C 0.68403 0.71333 0.48152 0.0
C290 C 0.764 0.69122 0.37559 0.0
C291 C 0.77706 0.68471 0.42449 0.0
C292 C 0.73668 0.6958 0.4778 0.0
N293 N 0.71206 0.70818 0.37935 0.0
C294 C 0.67259 0.71959 0.43165 0.0
Co295 Co 0.31166 0.7836 0.23727 0.0
Co296 Co 0.26884 0.66682 0.20437 0.0
O297 O 0.32479 0.72348 0.18567 0.0
C298 C 0.37088 0.82972 0.11964 0.0
O299 O 0.37304 0.78634 0.09227 0.0
C300 C 0.38154 0.61184 0.15109 0.0
O301 O 0.40908 0.64946 0.16423 0.0
O302 O 0.27891 0.6564 0.27913 0.0
O303 O 0.27539 0.73923 0.30474 0.0
H304 H 0.09384 0.57545 0.32998 0.0
H305 H 0.42763 0.75867 0.15648 0.0
O306 O 0.34753 0.83218 0.17354 0.0
H307 H 0.44228 0.76852 0.34628 0.0
H308 H 0.35977 0.95058 0.31142 0.0
H309 H 0.21454 0.81729 0.33839 0.0
H310 H 0.35147 0.78309 0.3352 0.0
H311 H 0.37799 0.87643 0.24624 0.0
O312 O 0.32822 0.61404 0.16555 0.0
H313 H 0.16835 0.64127 0.30648 0.0
H314 H 0.24931 0.57417 0.1429 0.0
H315 H 0.19503 0.89041 0.40504 0.0
H316 H 0.51956 0.74544 0.16537 0.0
H317 H 0.268 0.95753 0.39204 0.0
H318 H 0.52742 0.75021 0.26088 0.0
O319 O 0.23769 0.79568 0.22931 0.0
H320 H 0.33515 0.69288 0.9921 0.0
H321 H 0.16894 0.67853 0.16975 0.0
H322 H 0.15576 0.69174 0.07847 0.0
H323 H 0.23921 0.69822 0.98867 0.0
H324 H 0.34649 0.6803 0.08443 0.0
H325 H 0.1773 0.50596 0.16593 0.0
H326 H 0.09815 0.50703 0.25962 0.0
O327 O 0.20608 0.7152 0.2426 0.0
C328 C 0.27308 0.69177 0.31625 0.0
C329 C 0.12788 0.57484 0.28884 0.0
C330 C 0.17492 0.53568 0.19692 0.0
N331 N 0.21328 0.61181 0.22329 0.0
C332 C 0.17011 0.61223 0.27512 0.0
C333 C 0.21601 0.57409 0.18439 0.0
C334 C 0.13047 0.53631 0.24942 0.0
C335 C 0.43058 0.76158 0.19804 0.0
N336 N 0.38399 0.77217 0.24509 0.0
C337 C 0.48284 0.75369 0.20289 0.0
C338 C 0.48722 0.75625 0.25647 0.0
C339 C 0.43951 0.76659 0.30436 0.0
C340 C 0.38809 0.77462 0.2978 0.0
C341 C 0.32768 0.92148 0.31765 0.0
C342 C 0.24661 0.84628 0.33236 0.0
C343 C 0.33761 0.87949 0.28066 0.0
N344 N 0.29743 0.84233 0.2885 0.0
C345 C 0.23525 0.88768 0.37023 0.0
C346 C 0.27619 0.92539 0.36282 0.0
C347 C 0.19786 0.76303 0.24152 0.0
C348 C 0.29845 0.68963 0.0309 0.0
C349 C 0.20556 0.68187 0.131 0.0
C350 C 0.19778 0.68914 0.07938 0.0
C351 C 0.24461 0.69275 0.02901 0.0
N352 N 0.25852 0.67812 0.13245 0.0
C353 C 0.30461 0.68241 0.08331 0.0
Co354 Co 0.33173 0.21879 0.71507 0.0
Co355 Co 0.28604 0.34046 0.70885 0.0
O356 O 0.34098 0.28505 0.67625 0.0
C357 C 0.40925 0.19299 0.59904 0.0
O358 O 0.43263 0.23818 0.59773 0.0
C359 C 0.39816 0.39406 0.64453 0.0
O360 O 0.42574 0.35069 0.6357 0.0
O361 O 0.30171 0.33811 0.78158 0.0
O362 O 0.29912 0.25264 0.79156 0.0
H363 H 0.12654 0.4269 0.86367 0.0
H364 H 0.40096 0.30368 0.7383 0.0
O365 O 0.3636 0.18202 0.63991 0.0
H366 H 0.52551 0.15398 0.6865 0.0
H367 H 0.26211 0.03734 0.7502 0.0
H368 H 0.34684 0.1805 0.82033 0.0
H369 H 0.42689 0.14618 0.69455 0.0
H370 H 0.2892 0.11731 0.69509 0.0
O371 O 0.34576 0.39516 0.67527 0.0
H372 H 0.19356 0.35733 0.82083 0.0
H373 H 0.26359 0.44148 0.66694 0.0
H374 H 0.31965 0.10153 0.87705 0.0
H375 H 0.49783 0.31189 0.73576 0.0
H376 H 0.27493 0.03013 0.84314 0.0
H377 H 0.56143 0.23676 0.709 0.0
O378 O 0.25533 0.21227 0.71177 0.0
H379 H 0.3332 0.33226 0.49584 0.0
H380 H 0.18021 0.34415 0.68401 0.0
H381 H 0.15714 0.34234 0.59697 0.0
H382 H 0.23394 0.33679 0.50197 0.0
H383 H 0.35444 0.33361 0.58371 0.0
H384 H 0.1993 0.51269 0.70898 0.0
H385 H 0.12937 0.50574 0.80792 0.0
O386 O 0.22291 0.2903 0.74277 0.0
C387 C 0.29529 0.2978 0.81213 0.0
C388 C 0.15675 0.4306 0.82062 0.0
C389 C 0.19737 0.47873 0.73382 0.0
N390 N 0.23274 0.39532 0.74143 0.0
C391 C 0.1947 0.39117 0.79598 0.0
C392 C 0.2342 0.43836 0.71036 0.0
C393 C 0.15831 0.47475 0.7893 0.0
C394 C 0.42712 0.27024 0.72903 0.0
N395 N 0.40729 0.22432 0.71767 0.0
C396 C 0.48247 0.27531 0.7269 0.0
C397 C 0.51815 0.23321 0.71185 0.0
C398 C 0.49793 0.18664 0.69981 0.0
C399 C 0.4419 0.18257 0.70421 0.0
C400 C 0.28098 0.06849 0.7657 0.0
C401 C 0.3286 0.14913 0.80457 0.0
C402 C 0.29683 0.1137 0.73446 0.0
N403 N 0.31961 0.15356 0.75438 0.0
C404 C 0.31322 0.10453 0.83694 0.0
C405 C 0.28845 0.06434 0.8177 0.0
C406 C 0.21512 0.24348 0.73328 0.0
C407 C 0.29941 0.33543 0.53698 0.0
C408 C 0.21404 0.34207 0.64289 0.0
C409 C 0.20063 0.34097 0.59371 0.0
C410 C 0.24371 0.33786 0.54043 0.0
N411 N 0.2689 0.34061 0.63927 0.0
C412 C 0.31124 0.33663 0.58708 0.0
Co413 Co 0.70319 0.15472 0.82817 0.0
Co414 Co 0.71413 0.28348 0.83627 0.0
O415 O 0.67106 0.21993 0.86649 0.0
C416 C 0.63296 0.12517 0.94995 0.0
O417 O 0.62286 0.17261 0.96806 0.0
C418 C 0.59237 0.31882 0.89494 0.0
O419 O 0.57368 0.27158 0.90479 0.0
O420 O 0.70234 0.26974 0.76289 0.0
O421 O 0.73659 0.19036 0.75256 0.0
H422 H 0.86902 0.38174 0.68988 0.0
H423 H 0.57978 0.17162 0.88783 0.0
O424 O 0.66864 0.11493 0.90055 0.0
H425 H 0.59878 0.08743 0.70607 0.0
H426 H 0.72225 0.9629 0.80126 0.0
H427 H 0.81383 0.12996 0.73942 0.0
H428 H 0.68293 0.11085 0.7271 0.0
H429 H 0.67074 0.04249 0.83734 0.0
O430 O 0.64411 0.32756 0.86528 0.0
H431 H 0.80565 0.30802 0.72674 0.0
H432 H 0.71385 0.39172 0.87685 0.0
H433 H 0.86527 0.05117 0.6991 0.0
H434 H 0.49473 0.14908 0.86844 0.0
H435 H 0.81993 0.96663 0.7311 0.0
H436 H 0.50367 0.10471 0.77807 0.0
O437 O 0.77104 0.16842 0.84706 0.0
H438 H 0.6534 0.30008 0.05025 0.0
H439 H 0.81361 0.31106 0.86736 0.0
H440 H 0.8283 0.33056 0.95682 0.0
H441 H 0.74758 0.32655 0.04908 0.0
H442 H 0.64122 0.27811 0.96033 0.0
H443 H 0.776 0.46646 0.84129 0.0
H444 H 0.85609 0.46068 0.74858 0.0
O445 O 0.78739 0.24519 0.80698 0.0
C446 C 0.71972 0.22921 0.73285 0.0
C447 C 0.83487 0.38433 0.73082 0.0
C448 C 0.78261 0.43189 0.81578 0.0
N449 N 0.75661 0.34517 0.80432 0.0
C450 C 0.79871 0.34276 0.75187 0.0
C451 C 0.74718 0.3896 0.83541 0.0
C452 C 0.82733 0.42875 0.76361 0.0
C453 C 0.58442 0.15315 0.84801 0.0
N454 N 0.63655 0.14102 0.80971 0.0
C455 C 0.53591 0.14037 0.83728 0.0
C456 C 0.54097 0.11566 0.78646 0.0
C457 C 0.59428 0.10574 0.74622 0.0
C458 C 0.64183 0.11901 0.7585 0.0
C459 C 0.74218 0.99949 0.78667 0.0
C460 C 0.79275 0.09361 0.75216 0.0
C461 C 0.71327 0.04493 0.80749 0.0
N462 N 0.73883 0.09141 0.79108 0.0
C463 C 0.82248 0.04896 0.72947 0.0
C464 C 0.79709 1.0016 0.74738 0.0
C465 C 0.80414 0.20532 0.82478 0.0
C466 C 0.68874 0.30279 1.01023 0.0
C467 C 0.7783 0.30818 0.90729 0.0
C468 C 0.78689 0.31969 0.95785 0.0
C469 C 0.74158 0.31757 1.00958 0.0
N470 N 0.72596 0.29498 0.90798 0.0
C471 C 0.68195 0.29075 0.95888 0.0
H472 H 0.1324 0.10173 0.43773 0.0
H473 H 0.98075 0.16326 0.42544 0.0
H474 H 0.07951 0.03191 0.49512 0.0
H475 H 0.92695 0.09135 0.48182 0.0
H476 H 0.83705 0.97839 0.62521 0.0
H477 H 0.88855 0.05133 0.57064 0.0
H478 H 0.03484 0.95564 0.49515 0.0
H479 H 0.98443 0.88407 0.55252 0.0
C480 C 0.08776 0.09981 0.44613 0.0
C481 C 0.06132 0.13798 0.42571 0.0
C482 C 0.05705 0.05928 0.47936 0.0
C483 C -0.00146 0.05479 0.49306 0.0
C484 C 0.97176 0.09326 0.47293 0.0
C485 C 0.00268 0.13447 0.44007 0.0
C486 C 0.88059 0.97316 0.5979 0.0
C487 C 0.90669 0.92525 0.59448 0.0
C488 C 0.91007 0.01504 0.56563 0.0
C489 C 0.96641 1.01017 0.52802 0.0
C490 C 0.99217 0.96194 0.52438 0.0
C491 C 0.963 0.92042 0.55731 0.0
H492 H 0.02508 0.92932 0.87002 0.0
H493 H 0.15768 0.9411 0.93814 0.0
H494 H 0.96709 0.98677 0.94456 0.0
H495 H 0.09886 0.99609 0.0145 0.0
H496 H -0.00061 0.13088 0.11771 0.0
H497 H 0.05924 0.07576 0.04184 0.0
H498 H 0.91206 0.99335 0.04025 0.0
H499 H 0.85238 0.05064 0.11322 0.0
C500 C 0.04186 0.94413 0.90098 0.0
C501 C 0.09622 0.9307 0.89775 0.0
C502 C 0.00827 0.97674 0.94436 0.0
C503 C 0.02765 0.99619 0.98648 0.0
C504 C 0.08237 0.9829 0.98273 0.0
C505 C 0.11624 0.95099 0.93884 0.0
C506 C 0.97984 0.1007 0.1015 0.0
C507 C 0.92094 0.0951 0.12215 0.0
C508 C 0.0143 0.06877 0.05787 0.0
C509 C 0.99095 0.02977 0.03409 0.0
C510 C 0.93199 0.02345 0.05607 0.0
C511 C 0.89756 0.05594 0.09889 0.0
H512 H 0.50535 0.40445 0.56527 0.0
H513 H 0.35121 0.48859 0.64516 0.0
H514 H 0.54492 0.47639 0.50203 0.0
H515 H 0.38958 0.55948 0.58034 0.0
H516 H 0.49449 0.69742 0.48597 0.0
H517 H 0.45325 0.62807 0.5527 0.0
H518 H 0.53959 0.51775 0.42178 0.0
H519 H 0.58247 0.58725 0.35608 0.0
C520 C 0.47985 0.43831 0.56958 0.0
C521 C 0.42479 0.44022 0.6103 0.0
C522 C 0.50233 0.47953 0.53264 0.0
C523 C 0.47032 0.52388 0.53495 0.0
C524 C 0.4159 0.52639 0.57705 0.0
C525 C 0.39361 0.48533 0.61425 0.0
C526 C 0.5039 0.65834 0.47111 0.0
C527 C 0.54184 0.64806 0.41547 0.0
C528 C 0.48025 0.61833 0.50956 0.0
C529 C 0.4934 0.56683 0.4933 0.0
C530 C 0.52946 0.5567 0.43674 0.0
C531 C 0.55355 0.59667 0.39859 0.0
H532 H 0.33633 0.5265 0.11985 0.0
H533 H 0.49605 0.59685 0.10018 0.0
H534 H 0.38459 0.45738 0.0564 0.0
H535 H 0.54479 0.52647 0.03767 0.0
H536 H 0.6155 0.4218 0.8828 0.0
H537 H 0.56477 0.4914 0.94459 0.0
H538 H 0.44033 0.38353 0.04683 0.0
H539 H 0.49048 0.31409 0.98416 0.0
C540 C 0.38186 0.52722 0.10226 0.0
C541 C 0.4121 0.56777 0.11514 0.0
C542 C 0.40971 0.48708 0.06597 0.0
C543 C 0.46886 0.48604 0.04126 0.0
C544 C 0.49922 0.5262 0.05487 0.0
C545 C 0.47125 0.56647 0.09129 0.0
C546 C 0.577 0.41289 0.9181 0.0
C547 C 0.5573 0.36204 0.9283 0.0
C548 C 0.54809 0.45291 0.95406 0.0
C549 C 0.49857 0.44341 1.00149 0.0
C550 C 0.47795 0.39273 1.01063 0.0
C551 C 0.50681 0.35269 0.97452 0.0
H552 H 0.97329 0.3758 0.0953 0.0
H553 H 0.84428 0.47212 0.07618 0.0
H554 H 0.04457 0.43795 0.04448 0.0
H555 H 0.91611 0.53331 0.02219 0.0
H556 H 0.04665 0.65708 0.97106 0.0
H557 H 0.97865 0.59615 0.03163 0.0
H558 H 0.0941 0.47251 0.95614 0.0
H559 H 0.16265 0.53334 0.89803 0.0
C560 C 0.96026 0.40969 0.0789 0.0
C561 C 0.9031 0.41892 0.08951 0.0
C562 C 0.00128 0.44551 0.04972 0.0
C563 C 0.98632 0.49104 0.02938 0.0
C564 C 0.9292 0.49938 0.0384 0.0
C565 C 0.88802 0.46392 0.06855 0.0
C566 C 0.05793 0.61699 0.9684 0.0
C567 C 0.10986 0.60004 0.92924 0.0
C568 C 0.01859 0.5819 1.0025 0.0
C569 C 0.03016 0.5291 0.99784 0.0
C570 C 0.08349 0.51272 0.96108 0.0
C571 C 0.12295 0.54777 0.92752 0.0
H572 H 0.02295 0.3822 0.53475 0.0
H573 H 0.163 0.48124 0.44515 0.0
H574 H 0.96104 0.45618 0.56093 0.0
H575 H 0.10092 0.55398 0.46546 0.0
H576 H 0.98113 0.68574 0.53791 0.0
H577 H 0.04626 0.61491 0.52159 0.0
H578 H 0.91361 0.50969 0.52317 0.0
H579 H 0.84781 0.58076 0.54435 0.0
C580 C 0.04073 0.41982 0.52125 0.0
C581 C 0.09775 0.42554 0.48678 0.0
C582 C 0.0049 0.46234 0.53501 0.0
C583 C 0.025 0.51145 0.51369 0.0
C584 C 0.08308 0.51736 0.48294 0.0
C585 C 0.11897 0.47522 0.47072 0.0
C586 C 0.96645 0.64757 0.5332 0.0
C587 C 0.90966 0.6388 0.54146 0.0
C588 C 0.00379 0.60656 0.52415 0.0
C589 C 0.98561 0.55573 0.52169 0.0
C590 C 0.92926 0.54769 0.52661 0.0
C591 C 0.89163 0.58858 0.53731 0.0
H592 H 0.58482 0.05998 0.89748 0.0
H593 H 0.58554 0.09958 0.06407 0.0
H594 H 0.52093 0.99004 0.93718 0.0
H595 H 0.51998 0.02808 0.10506 0.0
H596 H 0.36021 0.92735 0.16021 0.0
H597 H 0.42289 0.99958 0.12177 0.0
H598 H 0.52136 0.90668 0.97775 0.0
H599 H 0.45808 0.83421 0.01608 0.0
C600 C 0.5723 0.05303 0.94263 0.0
C601 C 0.59187 0.08429 0.97732 0.0
C602 C 0.53521 0.01286 0.9655 0.0
C603 C 0.51616 1.00272 0.02404 0.0
C604 C 0.53407 0.03495 0.05958 0.0
C605 C 0.57156 0.0757 0.03634 0.0
C606 C 0.39497 0.92237 0.12001 0.0
C607 C 0.40422 0.87493 0.09111 0.0
C608 C 0.43121 0.96371 0.09838 0.0
C609 C 0.47747 0.95877 0.04715 0.0
C610 C 0.48581 0.91182 0.01726 0.0
C611 C 0.44944 0.87033 0.03896 0.0
H612 H 0.67151 0.97738 0.41205 0.0
H613 H 0.53606 0.88367 0.52267 0.0
H614 H 0.61801 0.05371 0.45055 0.0
H615 H 0.48365 0.96086 0.56506 0.0
H616 H 0.37379 0.09942 0.57611 0.0
H617 H 0.43105 0.02343 0.54069 0.0
H618 H 0.58072 0.11154 0.52331 0.0
H619 H 0.52376 0.18761 0.55543 0.0
C620 C 0.63068 0.97312 0.44574 0.0
C621 C 0.60748 0.92429 0.4632 0.0
C622 C 0.59999 0.01719 0.46833 0.0
C623 C 0.54568 0.01382 0.51026 0.0
C624 C 0.52452 0.96502 0.53144 0.0
C625 C 0.55501 0.92067 0.50796 0.0
C626 C 0.41911 0.10265 0.56328 0.0
C627 C 0.44427 0.14968 0.56777 0.0
C628 C 0.45195 0.05885 0.54403 0.0
C629 C 0.51071 0.0608 0.52975 0.0
C630 C 0.53584 0.10833 0.53301 0.0
C631 C 0.50311 0.15226 0.55121 0.0
H632 H 0.35092 0.68469 0.36462 0.0
H633 H 0.17225 0.68229 0.403 0.0
H634 H 0.33647 0.72049 0.45735 0.0
H635 H 0.15591 0.7117 0.49962 0.0
H636 H 0.13378 0.81716 0.64623 0.0
H637 H 0.15324 0.78153 0.55123 0.0
H638 H 0.31526 0.72953 0.5487 0.0
H639 H 0.29744 0.77044 0.63939 0.0
C640 C 0.30814 0.68881 0.39462 0.0
C641 C 0.26287 0.68102 0.37643 0.0
C642 C 0.29945 0.70997 0.44838 0.0
C643 C 0.24468 0.72156 0.48678 0.0
C644 C 0.19896 0.70641 0.47101 0.0
C645 C 0.20803 0.6873 0.41614 0.0
C646 C 0.17487 0.80097 0.62324 0.0
C647 C 0.21504 0.79855 0.64917 0.0
C648 C 0.1855 0.77847 0.56946 0.0
C649 C 0.23553 0.75067 0.54148 0.0
C650 C 0.27659 0.75079 0.5669 0.0
C651 C 0.26678 0.77509 0.61926 0.0
H652 H 0.75602 0.86549 0.85456 0.0
H653 H 0.72325 0.70275 0.85978 0.0
H654 H 0.73945 0.8643 0.95678 0.0
H655 H 0.70991 0.70107 0.95963 0.0
H656 H 0.64546 0.71485 0.15219 0.0
H657 H 0.65272 0.72042 0.05275 0.0
H658 H 0.77929 0.83894 0.02294 0.0
H659 H 0.77012 0.83477 0.12221 0.0
C660 C 0.74553 0.82951 0.87722 0.0
C661 C 0.74163 0.78426 0.84825 0.0
C662 C 0.7364 0.82863 0.93592 0.0
C663 C 0.72347 0.78243 0.96714 0.0
C664 C 0.71879 0.73758 0.93801 0.0
C665 C 0.72727 0.73854 0.87993 0.0
C666 C 0.67501 0.74182 0.12422 0.0
C667 C 0.70736 0.77404 0.14535 0.0
C668 C 0.67933 0.74512 0.06698 0.0
C669 C 0.71672 0.78026 0.02906 0.0
C670 C 0.74919 0.81216 0.0505 0.0
C671 C 0.74433 0.80931 0.10766 0.0
H672 H 0.7609 0.14004 0.37993 0.0
H673 H 0.77268 0.30508 0.38623 0.0
H674 H 0.73873 0.13753 0.48378 0.0
H675 H 0.75222 0.30231 0.48689 0.0
H676 H 0.67266 0.29318 0.67617 0.0
H677 H 0.67983 0.28719 0.57677 0.0
H678 H 0.78486 0.15352 0.55272 0.0
H679 H 0.77648 0.15865 0.652 0.0
C680 C 0.75874 0.17557 0.40305 0.0
C681 C 0.769 0.22259 0.37405 0.0
C682 C 0.74619 0.17422 0.4625 0.0
C683 C 0.74324 0.21986 0.49399 0.0
C684 C 0.75281 0.26647 0.46477 0.0
C685 C 0.76529 0.26783 0.40621 0.0
C686 C 0.69739 0.26266 0.64963 0.0
C687 C 0.72463 0.22701 0.67206 0.0
C688 C 0.70145 0.25904 0.59261 0.0
C689 C 0.73329 0.21995 0.55637 0.0
C690 C 0.75944 0.18369 0.57928 0.0
C691 C 0.75511 0.18712 0.63627 0.0
H692 H 0.25662 0.35864 0.16566 0.0
H693 H 0.21061 0.19927 0.16356 0.0
H694 H 0.27095 0.3661 0.0663 0.0
H695 H 0.22891 0.20595 0.06125 0.0
H696 H 0.21399 0.24428 0.89173 0.0
H697 H 0.19569 0.23837 0.99337 0.0
H698 H 0.32918 0.34817 0.97423 0.0
H699 H 0.34492 0.35581 0.87265 0.0
C700 C 0.24961 0.32479 0.14406 0.0
C701 C 0.23148 0.27832 0.17352 0.0
C702 C 0.25881 0.32906 0.08616 0.0
C703 C 0.25143 0.28678 0.05488 0.0
C704 C 0.23414 0.23982 0.0839 0.0
C705 C 0.224 0.23572 0.1426 0.0
C706 C 0.23865 0.26787 0.90968 0.0
C707 C 0.28041 0.30102 0.87459 0.0
C708 C 0.22878 0.26388 0.9679 0.0
C709 C 0.26119 0.29223 0.99264 0.0
C710 C 0.30253 0.32619 0.95736 0.0
C711 C 0.31167 0.33086 0.89904 0.0
H712 H 0.39029 0.25247 0.24557 0.0
H713 H 0.35881 0.37546 0.36898 0.0
H714 H 0.49089 0.26477 0.21952 0.0
H715 H 0.46074 0.38755 0.3427 0.0
H716 H 0.63981 0.31777 0.33069 0.0
H717 H 0.53907 0.33168 0.35315 0.0
H718 H 0.56706 0.32965 0.17307 0.0
H719 H 0.6677 0.31577 0.1511 0.0
C720 C 0.40482 0.28232 0.26708 0.0
C721 C 0.36648 0.31286 0.30958 0.0
C722 C 0.4626 0.28974 0.25161 0.0
C723 C 0.48366 0.3275 0.27861 0.0
C724 C 0.44553 0.35828 0.32108 0.0
C725 C 0.38735 0.35134 0.33608 0.0
C726 C 0.62445 0.32247 0.29609 0.0
C727 C 0.66096 0.31649 0.23928 0.0
C728 C 0.56697 0.33033 0.30883 0.0
C729 C 0.54524 0.33132 0.26487 0.0
C730 C 0.58268 0.32872 0.20778 0.0
C731 C 0.64018 0.3213 0.19511 0.0
H732 H 0.58749 0.7735 0.77178 0.0
H733 H 0.64346 0.6692 0.62829 0.0
H734 H 0.49015 0.7497 0.78948 0.0
H735 H 0.5449 0.64604 0.64553 0.0
H736 H 0.35836 0.71172 0.66251 0.0
H737 H 0.45937 0.70212 0.64118 0.0
H738 H 0.42566 0.66869 0.81844 0.0
H739 H 0.32465 0.67763 0.83933 0.0
C740 C 0.57896 0.74535 0.74408 0.0
C741 C 0.62304 0.72325 0.69861 0.0
C742 C 0.52324 0.73129 0.75462 0.0
C743 C 0.51012 0.69547 0.71937 0.0
C744 C 0.55406 0.67336 0.67364 0.0
C745 C 0.61022 0.68663 0.66382 0.0
C746 C 0.37249 0.69959 0.69614 0.0
C747 C 0.33402 0.69483 0.75237 0.0
C748 C 0.43026 0.6943 0.68404 0.0
C749 C 0.45022 0.68538 0.72837 0.0
C750 C 0.41126 0.67578 0.78359 0.0
C751 C 0.35351 0.68023 0.79543 0.0
H752 H 0.10561 0.71448 0.31262 0.0
H753 H 0.15647 0.84724 0.20401 0.0
H754 H 0.00824 0.72865 0.32396 0.0
H755 H 0.0572 0.86193 0.21641 0.0
H756 H 0.85213 0.875 0.31408 0.0
H757 H 0.9517 0.87584 0.30346 0.0
H758 H 0.96872 0.72088 0.23934 0.0
H759 H 0.87039 0.71984 0.24885 0.0
C760 C 0.09588 0.74717 0.29168 0.0
C761 C 0.13882 0.77918 0.25644 0.0
C762 C 0.04007 0.75522 0.29829 0.0
C763 C 0.02561 0.79571 0.27018 0.0
C764 C 0.06764 0.8303 0.23831 0.0
C765 C 0.12417 0.82202 0.23139 0.0
C766 C 0.87726 0.84125 0.29728 0.0
C767 C 0.85299 0.79701 0.28317 0.0
C768 C 0.93419 0.84196 0.29097 0.0
C769 C 0.9674 0.7983 0.27112 0.0
C770 C 0.94366 0.75485 0.25534 0.0
C771 C 0.88727 0.75428 0.26094 0.0
H772 H 0.12779 0.26777 0.82965 0.0
H773 H 0.17091 0.17948 0.67399 0.0
H774 H 0.02831 0.24626 0.8533 0.0
H775 H 0.07068 0.15938 0.69688 0.0
H776 H 0.88803 0.23862 0.72997 0.0
H777 H 0.98927 0.2354 0.70903 0.0
H778 H 0.95931 0.15759 0.86824 0.0
H779 H 0.85727 0.15895 0.88838 0.0
C780 C 0.11589 0.24316 0.80097 0.0
C781 C 0.15665 0.22526 0.75002 0.0
C782 C 0.05922 0.23062 0.8147 0.0
C783 C 0.04224 0.20103 0.77701 0.0
C784 C 0.0831 0.18192 0.72673 0.0
C785 C 0.14015 0.19333 0.71371 0.0
C786 C 0.90307 0.22017 0.76015 0.0
C787 C 0.86505 0.19938 0.81104 0.0
C788 C 0.96089 0.21798 0.74791 0.0
C789 C 0.98173 0.19606 0.78693 0.0
C790 C 0.94394 0.17438 0.83744 0.0
C791 C 0.88589 0.17525 0.84897 0.0
loop_
_geom_bond_atom_site_label_1
_geom_bond_atom_site_label_2
_geom_bond_distance
_geom_bond_site_symmetry_2
_ccdc_geom_bond_type
Co0 O2 2.143 . S
Co0 O8 2.074 . S
Co0 O11 2.093 . S
Co0 O24 2.097 . S
Co0 N41 2.151 . S
Co0 N49 2.214 . S
Co1 O2 2.160 . S
Co1 O7 2.058 . S
Co1 O17 2.057 . S
Co1 O32 2.037 . S
Co1 N36 2.145 . S
Co1 N57 2.257 . S
O2 Co0 2.143 . S
O2 Co1 2.160 . S
C3 O4 1.278 . S
C3 O11 1.224 . S
O4 C3 1.278 . S
C5 O6 1.245 . S
C5 O17 1.232 . S
O6 C5 1.245 . S
O7 Co1 2.058 . S
O7 C33 1.269 . S
O8 Co0 2.074 . S
O8 C33 1.257 . S
H9 C34 0.930 . S
H10 C40 0.930 . S
O11 Co0 2.093 . S
O11 C3 1.224 . S
H12 C44 0.929 . S
H13 C46 0.930 . S
H14 C47 0.930 . S
H15 C45 0.929 . S
H16 C48 0.928 . S
O17 Co1 2.057 . S
O17 C5 1.232 . S
H18 C37 0.929 . S
H19 C38 0.929 . S
H20 C50 0.931 . S
H21 C42 0.929 1_655 S
H22 C51 0.930 . S
H23 C43 0.931 1_655 S
O24 Co0 2.097 . S
O24 C52 1.214 . S
H25 C53 0.929 . S
H26 C54 0.929 . S
H27 C55 0.930 . S
H28 C56 0.929 . S
H29 C58 0.930 . S
H30 C35 0.930 . S
H31 C39 0.930 . S
O32 Co1 2.037 . S
O32 C52 1.234 . S
C33 O7 1.269 . S
C33 O8 1.257 . S
C34 H9 0.930 . S
C34 C37 1.388 . S
C34 C39 1.418 . S
C35 H30 0.930 . S
C35 C38 1.404 . S
C35 C39 1.353 . S
N36 Co1 2.145 . S
N36 C37 1.397 . S
N36 C38 1.334 . S
C37 H18 0.929 . S
C37 C34 1.388 . S
C37 N36 1.397 . S
C38 H19 0.929 . S
C38 C35 1.404 . S
C38 N36 1.334 . S
C39 H31 0.930 . S
C39 C34 1.418 . S
C39 C35 1.353 . S
C40 H10 0.930 . S
C40 N41 1.330 . S
C40 C42 1.446 . S
N41 Co0 2.151 . S
N41 C40 1.330 . S
N41 C45 1.418 . S
C42 H21 0.929 1_455 S
C42 C40 1.446 . S
C42 C43 1.332 . S
C43 H23 0.931 1_455 S
C43 C42 1.332 . S
C43 C44 1.267 . S
C44 H12 0.929 . S
C44 C43 1.267 . S
C44 C45 1.251 . S
C45 H15 0.929 . S
C45 N41 1.418 . S
C45 C44 1.251 . S
C46 H13 0.930 . S
C46 C48 1.406 . S
C46 C51 1.261 . S
C47 H14 0.930 . S
C47 N49 1.325 . S
C47 C50 1.357 . S
C48 H16 0.928 . S
C48 C46 1.406 . S
C48 N49 1.261 . S
N49 Co0 2.214 . S
N49 C47 1.325 . S
N49 C48 1.261 . S
C50 H20 0.931 . S
C50 C47 1.357 . S
C50 C51 1.312 . S
C51 H22 0.930 . S
C51 C46 1.261 . S
C51 C50 1.312 . S
C52 O24 1.214 . S
C52 O32 1.234 . S
C53 H25 0.929 . S
C53 C56 1.391 . S
C53 C58 1.391 . S
C54 H26 0.929 . S
C54 C55 1.390 . S
C54 N57 1.391 . S
C55 H27 0.930 . S
C55 C54 1.390 . S
C55 C56 1.392 . S
C56 H28 0.929 . S
C56 C53 1.391 . S
C56 C55 1.392 . S
N57 Co1 2.257 . S
N57 C54 1.391 . S
N57 C58 1.388 . S
C58 H29 0.930 . S
C58 C53 1.391 . S
C58 N57 1.388 . S
Co59 O61 2.143 . S
Co59 O67 2.074 . S
Co59 O70 2.093 . S
Co59 O83 2.097 . S
Co59 N100 2.151 . S
Co59 N108 2.214 . S
Co60 O61 2.160 . S
Co60 O66 2.058 . S
Co60 O76 2.057 . S
Co60 O91 2.037 . S
Co60 N95 2.145 . S
Co60 N116 2.257 . S
O61 Co59 2.143 . S
O61 Co60 2.160 . S
C62 O63 1.278 . S
C62 O70 1.224 . S
O63 C62 1.278 . S
C64 O65 1.245 . S
C64 O76 1.232 . S
O65 C64 1.245 . S
O66 Co60 2.058 . S
O66 C92 1.269 . S
O67 Co59 2.074 . S
O67 C92 1.257 . S
H68 C93 0.930 . S
H69 C99 0.930 . S
O70 Co59 2.093 . S
O70 C62 1.224 . S
H71 C103 0.929 . S
H72 C105 0.930 . S
H73 C106 0.930 . S
H74 C104 0.929 . S
H75 C107 0.928 . S
O76 Co60 2.057 . S
O76 C64 1.232 . S
H77 C96 0.929 . S
H78 C97 0.929 . S
H79 C109 0.931 . S
H80 C101 0.929 1_455 S
H81 C110 0.930 . S
H82 C102 0.931 1_455 S
O83 Co59 2.097 . S
O83 C111 1.214 . S
H84 C112 0.929 . S
H85 C113 0.929 . S
H86 C114 0.930 . S
H87 C115 0.929 . S
H88 C117 0.930 . S
H89 C94 0.930 . S
H90 C98 0.930 . S
O91 Co60 2.037 . S
O91 C111 1.234 . S
C92 O66 1.269 . S
C92 O67 1.257 . S
C93 H68 0.930 . S
C93 C96 1.388 . S
C93 C98 1.418 . S
C94 H89 0.930 . S
C94 C97 1.404 . S
C94 C98 1.353 . S
N95 Co60 2.145 . S
N95 C96 1.397 . S
N95 C97 1.334 . S
C96 H77 0.929 . S
C96 C93 1.388 . S
C96 N95 1.397 . S
C97 H78 0.929 . S
C97 C94 1.404 . S
C97 N95 1.334 . S
C98 H90 0.930 . S
C98 C93 1.418 . S
C98 C94 1.353 . S
C99 H69 0.930 . S
C99 N100 1.330 . S
C99 C101 1.446 . S
N100 Co59 2.151 . S
N100 C99 1.330 . S
N100 C104 1.418 . S
C101 H80 0.929 1_655 S
C101 C99 1.446 . S
C101 C102 1.332 . S
C102 H82 0.931 1_655 S
C102 C101 1.332 . S
C102 C103 1.267 . S
C103 H71 0.929 . S
C103 C102 1.267 . S
C103 C104 1.251 . S
C104 H74 0.929 . S
C104 N100 1.418 . S
C104 C103 1.251 . S
C105 H72 0.930 . S
C105 C107 1.406 . S
C105 C110 1.261 . S
C106 H73 0.930 . S
C106 N108 1.325 . S
C106 C109 1.357 . S
C107 H75 0.928 . S
C107 C105 1.406 . S
C107 N108 1.261 . S
N108 Co59 2.214 . S
N108 C106 1.325 . S
N108 C107 1.261 . S
C109 H79 0.931 . S
C109 C106 1.357 . S
C109 C110 1.312 . S
C110 H81 0.930 . S
C110 C105 1.261 . S
C110 C109 1.312 . S
C111 O83 1.214 . S
C111 O91 1.234 . S
C112 H84 0.929 . S
C112 C115 1.391 . S
C112 C117 1.391 1_556 S
C113 H85 0.929 . S
C113 C114 1.390 . S
C113 N116 1.391 . S
C114 H86 0.930 . S
C114 C113 1.390 . S
C114 C115 1.392 1_554 S
C115 H87 0.929 . S
C115 C112 1.391 . S
C115 C114 1.392 1_556 S
N116 Co60 2.257 . S
N116 C113 1.391 . S
N116 C117 1.388 . S
C117 H88 0.930 . S
C117 C112 1.391 1_554 S
C117 N116 1.388 . S
Co118 O120 2.143 . S
Co118 O126 2.074 . S
Co118 O129 2.093 . S
Co118 O142 2.097 . S
Co118 N159 2.151 . S
Co118 N167 2.214 . S
Co119 O120 2.160 . S
Co119 O125 2.058 . S
Co119 O135 2.057 . S
Co119 O150 2.037 . S
Co119 N154 2.145 . S
Co119 N175 2.257 . S
O120 Co118 2.143 . S
O120 Co119 2.160 . S
C121 O122 1.278 . S
C121 O129 1.224 . S
O122 C121 1.278 . S
C123 O124 1.245 . S
C123 O135 1.232 . S
O124 C123 1.245 . S
O125 Co119 2.058 . S
O125 C151 1.269 . S
O126 Co118 2.074 . S
O126 C151 1.257 . S
H127 C152 0.930 . S
H128 C158 0.930 . S
O129 Co118 2.093 . S
O129 C121 1.224 . S
H130 C162 0.929 . S
H131 C164 0.930 . S
H132 C165 0.930 . S
H133 C163 0.929 . S
H134 C166 0.928 . S
O135 Co119 2.057 . S
O135 C123 1.232 . S
H136 C155 0.929 . S
H137 C156 0.929 . S
H138 C168 0.931 . S
H139 C160 0.929 1_455 S
H140 C169 0.930 . S
H141 C161 0.931 1_455 S
O142 Co118 2.097 . S
O142 C170 1.214 . S
H143 C171 0.929 . S
H144 C172 0.929 . S
H145 C173 0.930 . S
H146 C174 0.929 . S
H147 C176 0.930 . S
H148 C153 0.930 . S
H149 C157 0.930 . S
O150 Co119 2.037 . S
O150 C170 1.234 . S
C151 O125 1.269 . S
C151 O126 1.257 . S
C152 H127 0.930 . S
C152 C155 1.388 . S
C152 C157 1.418 . S
C153 H148 0.930 . S
C153 C156 1.404 . S
C153 C157 1.353 . S
N154 Co119 2.145 . S
N154 C155 1.397 . S
N154 C156 1.334 . S
C155 H136 0.929 . S
C155 C152 1.388 . S
C155 N154 1.397 . S
C156 H137 0.929 . S
C156 C153 1.404 . S
C156 N154 1.334 . S
C157 H149 0.930 . S
C157 C152 1.418 . S
C157 C153 1.353 . S
C158 H128 0.930 . S
C158 N159 1.330 . S
C158 C160 1.446 . S
N159 Co118 2.151 . S
N159 C158 1.330 . S
N159 C163 1.418 . S
C160 H139 0.929 1_655 S
C160 C158 1.446 . S
C160 C161 1.332 . S
C161 H141 0.931 1_655 S
C161 C160 1.332 . S
C161 C162 1.267 . S
C162 H130 0.929 . S
C162 C161 1.267 . S
C162 C163 1.251 . S
C163 H133 0.929 . S
C163 N159 1.418 . S
C163 C162 1.251 . S
C164 H131 0.930 . S
C164 C166 1.406 . S
C164 C169 1.261 . S
C165 H132 0.930 . S
C165 N167 1.325 . S
C165 C168 1.357 . S
C166 H134 0.928 . S
C166 C164 1.406 . S
C166 N167 1.261 . S
N167 Co118 2.214 . S
N167 C165 1.325 . S
N167 C166 1.261 . S
C168 H138 0.931 . S
C168 C165 1.357 . S
C168 C169 1.312 . S
C169 H140 0.930 . S
C169 C164 1.261 . S
C169 C168 1.312 . S
C170 O142 1.214 . S
C170 O150 1.234 . S
C171 H143 0.929 . S
C171 C174 1.391 . S
C171 C176 1.391 . S
C172 H144 0.929 . S
C172 C173 1.390 . S
C172 N175 1.391 . S
C173 H145 0.930 . S
C173 C172 1.390 . S
C173 C174 1.392 . S
C174 H146 0.929 . S
C174 C171 1.391 . S
C174 C173 1.392 . S
N175 Co119 2.257 . S
N175 C172 1.391 . S
N175 C176 1.388 . S
C176 H147 0.930 . S
C176 C171 1.391 . S
C176 N175 1.388 . S
Co177 O179 2.143 . S
Co177 O185 2.074 . S
Co177 O188 2.093 . S
Co177 O201 2.097 . S
Co177 N218 2.151 . S
Co177 N226 2.214 . S
Co178 O179 2.160 . S
Co178 O184 2.058 . S
Co178 O194 2.057 . S
Co178 O209 2.037 . S
Co178 N213 2.145 . S
Co178 N234 2.257 . S
O179 Co177 2.143 . S
O179 Co178 2.160 . S
C180 O181 1.278 . S
C180 O188 1.224 . S
O181 C180 1.278 . S
C182 O183 1.245 . S
C182 O194 1.232 . S
O183 C182 1.245 . S
O184 Co178 2.058 . S
O184 C210 1.269 . S
O185 Co177 2.074 . S
O185 C210 1.257 . S
H186 C211 0.930 . S
H187 C217 0.930 . S
O188 Co177 2.093 . S
O188 C180 1.224 . S
H189 C221 0.929 . S
H190 C223 0.930 . S
H191 C224 0.930 . S
H192 C222 0.929 . S
H193 C225 0.928 . S
O194 Co178 2.057 . S
O194 C182 1.232 . S
H195 C214 0.929 . S
H196 C215 0.929 . S
H197 C227 0.931 . S
H198 C219 0.929 1_655 S
H199 C228 0.930 . S
H200 C220 0.931 1_655 S
O201 Co177 2.097 . S
O201 C229 1.214 . S
H202 C230 0.929 . S
H203 C231 0.929 . S
H204 C232 0.930 . S
H205 C233 0.929 . S
H206 C235 0.930 . S
H207 C212 0.930 . S
H208 C216 0.930 . S
O209 Co178 2.037 . S
O209 C229 1.234 . S
C210 O184 1.269 . S
C210 O185 1.257 . S
C211 H186 0.930 . S
C211 C214 1.388 . S
C211 C216 1.418 . S
C212 H207 0.930 . S
C212 C215 1.404 . S
C212 C216 1.353 . S
N213 Co178 2.145 . S
N213 C214 1.397 . S
N213 C215 1.334 . S
C214 H195 0.929 . S
C214 C211 1.388 . S
C214 N213 1.397 . S
C215 H196 0.929 . S
C215 C212 1.404 . S
C215 N213 1.334 . S
C216 H208 0.930 . S
C216 C211 1.418 . S
C216 C212 1.353 . S
C217 H187 0.930 . S
C217 N218 1.330 . S
C217 C219 1.446 . S
N218 Co177 2.151 . S
N218 C217 1.330 . S
N218 C222 1.418 . S
C219 H198 0.929 1_455 S
C219 C217 1.446 . S
C219 C220 1.332 . S
C220 H200 0.931 1_455 S
C220 C219 1.332 . S
C220 C221 1.267 . S
C221 H189 0.929 . S
C221 C220 1.267 . S
C221 C222 1.251 . S
C222 H192 0.929 . S
C222 N218 1.418 . S
C222 C221 1.251 . S
C223 H190 0.930 . S
C223 C225 1.406 . S
C223 C228 1.261 . S
C224 H191 0.930 . S
C224 N226 1.325 . S
C224 C227 1.357 . S
C225 H193 0.928 . S
C225 C223 1.406 . S
C225 N226 1.261 . S
N226 Co177 2.214 . S
N226 C224 1.325 . S
N226 C225 1.261 . S
C227 H197 0.931 . S
C227 C224 1.357 . S
C227 C228 1.312 . S
C228 H199 0.930 . S
C228 C223 1.261 . S
C228 C227 1.312 . S
C229 O201 1.214 . S
C229 O209 1.234 . S
C230 H202 0.929 . S
C230 C233 1.391 . S
C230 C235 1.391 1_554 S
C231 H203 0.929 . S
C231 C232 1.390 . S
C231 N234 1.391 . S
C232 H204 0.930 . S
C232 C231 1.390 . S
C232 C233 1.392 1_556 S
C233 H205 0.929 . S
C233 C230 1.391 . S
C233 C232 1.392 1_554 S
N234 Co178 2.257 . S
N234 C231 1.391 . S
N234 C235 1.388 . S
C235 H206 0.930 . S
C235 C230 1.391 1_556 S
C235 N234 1.388 . S
Co236 O238 2.143 . S
Co236 O244 2.074 . S
Co236 O247 2.093 . S
Co236 O260 2.097 . S
Co236 N277 2.151 . S
Co236 N285 2.214 . S
Co237 O238 2.160 . S
Co237 O243 2.058 . S
Co237 O253 2.057 . S
Co237 O268 2.037 . S
Co237 N272 2.145 . S
Co237 N293 2.257 . S
O238 Co236 2.143 . S
O238 Co237 2.160 . S
C239 O240 1.278 . S
C239 O247 1.224 . S
O240 C239 1.278 . S
C241 O242 1.245 . S
C241 O253 1.232 . S
O242 C241 1.245 . S
O243 Co237 2.058 . S
O243 C269 1.269 . S
O244 Co236 2.074 . S
O244 C269 1.257 . S
H245 C270 0.930 . S
H246 C276 0.930 . S
O247 Co236 2.093 . S
O247 C239 1.224 . S
H248 C280 0.929 . S
H249 C282 0.930 1_545 S
H250 C283 0.930 . S
H251 C281 0.929 . S
H252 C284 0.928 . S
O253 Co237 2.057 . S
O253 C241 1.232 . S
H254 C273 0.929 . S
H255 C274 0.929 . S
H256 C286 0.931 . S
H257 C278 0.929 . S
H258 C287 0.930 1_545 S
H259 C279 0.931 . S
O260 Co236 2.097 . S
O260 C288 1.214 . S
H261 C289 0.929 . S
H262 C290 0.929 . S
H263 C291 0.930 . S
H264 C292 0.929 . S
H265 C294 0.930 . S
H266 C271 0.930 . S
H267 C275 0.930 . S
O268 Co237 2.037 . S
O268 C288 1.234 . S
C269 O243 1.269 . S
C269 O244 1.257 . S
C270 H245 0.930 . S
C270 C273 1.388 . S
C270 C275 1.418 . S
C271 H266 0.930 . S
C271 C274 1.404 . S
C271 C275 1.353 . S
N272 Co237 2.145 . S
N272 C273 1.397 . S
N272 C274 1.334 . S
C273 H254 0.929 . S
C273 C270 1.388 . S
C273 N272 1.397 . S
C274 H255 0.929 . S
C274 C271 1.404 . S
C274 N272 1.334 . S
C275 H267 0.930 . S
C275 C270 1.418 . S
C275 C271 1.353 . S
C276 H246 0.930 . S
C276 N277 1.330 . S
C276 C278 1.446 . S
N277 Co236 2.151 . S
N277 C276 1.330 . S
N277 C281 1.418 . S
C278 H257 0.929 . S
C278 C276 1.446 . S
C278 C279 1.332 . S
C279 H259 0.931 . S
C279 C278 1.332 . S
C279 C280 1.267 . S
C280 H248 0.929 . S
C280 C279 1.267 . S
C280 C281 1.251 . S
C281 H251 0.929 . S
C281 N277 1.418 . S
C281 C280 1.251 . S
C282 H249 0.930 1_565 S
C282 C284 1.406 . S
C282 C287 1.261 . S
C283 H250 0.930 . S
C283 N285 1.325 . S
C283 C286 1.357 . S
C284 H252 0.928 . S
C284 C282 1.406 . S
C284 N285 1.261 . S
N285 Co236 2.214 . S
N285 C283 1.325 . S
N285 C284 1.261 . S
C286 H256 0.931 . S
C286 C283 1.357 . S
C286 C287 1.312 . S
C287 H258 0.930 1_565 S
C287 C282 1.261 . S
C287 C286 1.312 . S
C288 O260 1.214 . S
C288 O268 1.234 . S
C289 H261 0.929 . S
C289 C292 1.391 . S
C289 C294 1.391 . S
C290 H262 0.929 . S
C290 C291 1.390 . S
C290 N293 1.391 . S
C291 H263 0.930 . S
C291 C290 1.390 . S
C291 C292 1.392 . S
C292 H264 0.929 . S
C292 C289 1.391 . S
C292 C291 1.392 . S
N293 Co237 2.257 . S
N293 C290 1.391 . S
N293 C294 1.388 . S
C294 H265 0.930 . S
C294 C289 1.391 . S
C294 N293 1.388 . S
Co295 O297 2.143 . S
Co295 O303 2.074 . S
Co295 O306 2.093 . S
Co295 O319 2.097 . S
Co295 N336 2.151 . S
Co295 N344 2.214 . S
Co296 O297 2.160 . S
Co296 O302 2.058 . S
Co296 O312 2.057 . S
Co296 O327 2.037 . S
Co296 N331 2.145 . S
Co296 N352 2.257 . S
O297 Co295 2.143 . S
O297 Co296 2.160 . S
C298 O299 1.278 . S
C298 O306 1.224 . S
O299 C298 1.278 . S
C300 O301 1.245 . S
C300 O312 1.232 . S
O301 C300 1.245 . S
O302 Co296 2.058 . S
O302 C328 1.269 . S
O303 Co295 2.074 . S
O303 C328 1.257 . S
H304 C329 0.930 . S
H305 C335 0.930 . S
O306 Co295 2.093 . S
O306 C298 1.224 . S
H307 C339 0.929 . S
H308 C341 0.930 1_545 S
H309 C342 0.930 . S
H310 C340 0.929 . S
H311 C343 0.928 . S
O312 Co296 2.057 . S
O312 C300 1.232 . S
H313 C332 0.929 . S
H314 C333 0.929 . S
H315 C345 0.931 . S
H316 C337 0.929 . S
H317 C346 0.930 1_545 S
H318 C338 0.931 . S
O319 Co295 2.097 . S
O319 C347 1.214 . S
H320 C348 0.929 . S
H321 C349 0.929 . S
H322 C350 0.930 . S
H323 C351 0.929 . S
H324 C353 0.930 . S
H325 C330 0.930 . S
H326 C334 0.930 . S
O327 Co296 2.037 . S
O327 C347 1.234 . S
C328 O302 1.269 . S
C328 O303 1.257 . S
C329 H304 0.930 . S
C329 C332 1.388 . S
C329 C334 1.418 . S
C330 H325 0.930 . S
C330 C333 1.404 . S
C330 C334 1.353 . S
N331 Co296 2.145 . S
N331 C332 1.397 . S
N331 C333 1.334 . S
C332 H313 0.929 . S
C332 C329 1.388 . S
C332 N331 1.397 . S
C333 H314 0.929 . S
C333 C330 1.404 . S
C333 N331 1.334 . S
C334 H326 0.930 . S
C334 C329 1.418 . S
C334 C330 1.353 . S
C335 H305 0.930 . S
C335 N336 1.330 . S
C335 C337 1.446 . S
N336 Co295 2.151 . S
N336 C335 1.330 . S
N336 C340 1.418 . S
C337 H316 0.929 . S
C337 C335 1.446 . S
C337 C338 1.332 . S
C338 H318 0.931 . S
C338 C337 1.332 . S
C338 C339 1.267 . S
C339 H307 0.929 . S
C339 C338 1.267 . S
C339 C340 1.251 . S
C340 H310 0.929 . S
C340 N336 1.418 . S
C340 C339 1.251 . S
C341 H308 0.930 1_565 S
C341 C343 1.406 . S
C341 C346 1.261 . S
C342 H309 0.930 . S
C342 N344 1.325 . S
C342 C345 1.357 . S
C343 H311 0.928 . S
C343 C341 1.406 . S
C343 N344 1.261 . S
N344 Co295 2.214 . S
N344 C342 1.325 . S
N344 C343 1.261 . S
C345 H315 0.931 . S
C345 C342 1.357 . S
C345 C346 1.312 . S
C346 H317 0.930 1_565 S
C346 C341 1.261 . S
C346 C345 1.312 . S
C347 O319 1.214 . S
C347 O327 1.234 . S
C348 H320 0.929 . S
C348 C351 1.391 . S
C348 C353 1.391 1_556 S
C349 H321 0.929 . S
C349 C350 1.390 . S
C349 N352 1.391 . S
C350 H322 0.930 . S
C350 C349 1.390 . S
C350 C351 1.392 1_554 S
C351 H323 0.929 . S
C351 C348 1.391 . S
C351 C350 1.392 1_556 S
N352 Co296 2.257 . S
N352 C349 1.391 . S
N352 C353 1.388 . S
C353 H324 0.930 . S
C353 C348 1.391 1_554 S
C353 N352 1.388 . S
Co354 O356 2.143 . S
Co354 O362 2.074 . S
Co354 O365 2.093 . S
Co354 O378 2.097 . S
Co354 N395 2.151 . S
Co354 N403 2.214 . S
Co355 O356 2.160 . S
Co355 O361 2.058 . S
Co355 O371 2.057 . S
Co355 O386 2.037 . S
Co355 N390 2.145 . S
Co355 N411 2.257 . S
O356 Co354 2.143 . S
O356 Co355 2.160 . S
C357 O358 1.278 . S
C357 O365 1.224 . S
O358 C357 1.278 . S
C359 O360 1.245 . S
C359 O371 1.232 . S
O360 C359 1.245 . S
O361 Co355 2.058 . S
O361 C387 1.269 . S
O362 Co354 2.074 . S
O362 C387 1.257 . S
H363 C388 0.930 . S
H364 C394 0.930 . S
O365 Co354 2.093 . S
O365 C357 1.224 . S
H366 C398 0.929 . S
H367 C400 0.930 1_565 S
H368 C401 0.930 . S
H369 C399 0.929 . S
H370 C402 0.928 . S
O371 Co355 2.057 . S
O371 C359 1.232 . S
H372 C391 0.929 . S
H373 C392 0.929 . S
H374 C404 0.931 . S
H375 C396 0.929 . S
H376 C405 0.930 1_565 S
H377 C397 0.931 . S
O378 Co354 2.097 . S
O378 C406 1.214 . S
H379 C407 0.929 . S
H380 C408 0.929 . S
H381 C409 0.930 . S
H382 C410 0.929 . S
H383 C412 0.930 . S
H384 C389 0.930 . S
H385 C393 0.930 . S
O386 Co355 2.037 . S
O386 C406 1.234 . S
C387 O361 1.269 . S
C387 O362 1.257 . S
C388 H363 0.930 . S
C388 C391 1.388 . S
C388 C393 1.418 . S
C389 H384 0.930 . S
C389 C392 1.404 . S
C389 C393 1.353 . S
N390 Co355 2.145 . S
N390 C391 1.397 . S
N390 C392 1.334 . S
C391 H372 0.929 . S
C391 C388 1.388 . S
C391 N390 1.397 . S
C392 H373 0.929 . S
C392 C389 1.404 . S
C392 N390 1.334 . S
C393 H385 0.930 . S
C393 C388 1.418 . S
C393 C389 1.353 . S
C394 H364 0.930 . S
C394 N395 1.330 . S
C394 C396 1.446 . S
N395 Co354 2.151 . S
N395 C394 1.330 . S
N395 C399 1.418 . S
C396 H375 0.929 . S
C396 C394 1.446 . S
C396 C397 1.332 . S
C397 H377 0.931 . S
C397 C396 1.332 . S
C397 C398 1.267 . S
C398 H366 0.929 . S
C398 C397 1.267 . S
C398 C399 1.251 . S
C399 H369 0.929 . S
C399 N395 1.418 . S
C399 C398 1.251 . S
C400 H367 0.930 1_545 S
C400 C402 1.406 . S
C400 C405 1.261 . S
C401 H368 0.930 . S
C401 N403 1.325 . S
C401 C404 1.357 . S
C402 H370 0.928 . S
C402 C400 1.406 . S
C402 N403 1.261 . S
N403 Co354 2.214 . S
N403 C401 1.325 . S
N403 C402 1.261 . S
C404 H374 0.931 . S
C404 C401 1.357 . S
C404 C405 1.312 . S
C405 H376 0.930 1_545 S
C405 C400 1.261 . S
C405 C404 1.312 . S
C406 O378 1.214 . S
C406 O386 1.234 . S
C407 H379 0.929 . S
C407 C410 1.391 . S
C407 C412 1.391 . S
C408 H380 0.929 . S
C408 C409 1.390 . S
C408 N411 1.391 . S
C409 H381 0.930 . S
C409 C408 1.390 . S
C409 C410 1.392 . S
C410 H382 0.929 . S
C410 C407 1.391 . S
C410 C409 1.392 . S
N411 Co355 2.257 . S
N411 C408 1.391 . S
N411 C412 1.388 . S
C412 H383 0.930 . S
C412 C407 1.391 . S
C412 N411 1.388 . S
Co413 O415 2.143 . S
Co413 O421 2.074 . S
Co413 O424 2.093 . S
Co413 O437 2.097 . S
Co413 N454 2.151 . S
Co413 N462 2.214 . S
Co414 O415 2.160 . S
Co414 O420 2.058 . S
Co414 O430 2.057 . S
Co414 O445 2.037 . S
Co414 N449 2.145 . S
Co414 N470 2.257 . S
O415 Co413 2.143 . S
O415 Co414 2.160 . S
C416 O417 1.278 . S
C416 O424 1.224 . S
O417 C416 1.278 . S
C418 O419 1.245 . S
C418 O430 1.232 . S
O419 C418 1.245 . S
O420 Co414 2.058 . S
O420 C446 1.269 . S
O421 Co413 2.074 . S
O421 C446 1.257 . S
H422 C447 0.930 . S
H423 C453 0.930 . S
O424 Co413 2.093 . S
O424 C416 1.224 . S
H425 C457 0.929 . S
H426 C459 0.930 1_565 S
H427 C460 0.930 . S
H428 C458 0.929 . S
H429 C461 0.928 . S
O430 Co414 2.057 . S
O430 C418 1.232 . S
H431 C450 0.929 . S
H432 C451 0.929 . S
H433 C463 0.931 . S
H434 C455 0.929 . S
H435 C464 0.930 1_565 S
H436 C456 0.931 . S
O437 Co413 2.097 . S
O437 C465 1.214 . S
H438 C466 0.929 . S
H439 C467 0.929 . S
H440 C468 0.930 . S
H441 C469 0.929 . S
H442 C471 0.930 . S
H443 C448 0.930 . S
H444 C452 0.930 . S
O445 Co414 2.037 . S
O445 C465 1.234 . S
C446 O420 1.269 . S
C446 O421 1.257 . S
C447 H422 0.930 . S
C447 C450 1.388 . S
C447 C452 1.418 . S
C448 H443 0.930 . S
C448 C451 1.404 . S
C448 C452 1.353 . S
N449 Co414 2.145 . S
N449 C450 1.397 . S
N449 C451 1.334 . S
C450 H431 0.929 . S
C450 C447 1.388 . S
C450 N449 1.397 . S
C451 H432 0.929 . S
C451 C448 1.404 . S
C451 N449 1.334 . S
C452 H444 0.930 . S
C452 C447 1.418 . S
C452 C448 1.353 . S
C453 H423 0.930 . S
C453 N454 1.330 . S
C453 C455 1.446 . S
N454 Co413 2.151 . S
N454 C453 1.330 . S
N454 C458 1.418 . S
C455 H434 0.929 . S
C455 C453 1.446 . S
C455 C456 1.332 . S
C456 H436 0.931 . S
C456 C455 1.332 . S
C456 C457 1.267 . S
C457 H425 0.929 . S
C457 C456 1.267 . S
C457 C458 1.251 . S
C458 H428 0.929 . S
C458 N454 1.418 . S
C458 C457 1.251 . S
C459 H426 0.930 1_545 S
C459 C461 1.406 . S
C459 C464 1.261 . S
C460 H427 0.930 . S
C460 N462 1.325 . S
C460 C463 1.357 . S
C461 H429 0.928 . S
C461 C459 1.406 . S
C461 N462 1.261 . S
N462 Co413 2.214 . S
N462 C460 1.325 . S
N462 C461 1.261 . S
C463 H433 0.931 . S
C463 C460 1.357 . S
C463 C464 1.312 . S
C464 H435 0.930 1_545 S
C464 C459 1.261 . S
C464 C463 1.312 . S
C465 O437 1.214 . S
C465 O445 1.234 . S
C466 H438 0.929 . S
C466 C469 1.391 . S
C466 C471 1.391 1_554 S
C467 H439 0.929 . S
C467 C468 1.390 . S
C467 N470 1.391 . S
C468 H440 0.930 . S
C468 C467 1.390 . S
C468 C469 1.392 1_556 S
C469 H441 0.929 . S
C469 C466 1.391 . S
C469 C468 1.392 1_554 S
N470 Co414 2.257 . S
N470 C467 1.391 . S
N470 C471 1.388 . S
C471 H442 0.930 . S
C471 C466 1.391 1_556 S
C471 N470 1.388 . S
H472 C480 0.950 . S
H473 C485 0.950 1_655 S
H474 C482 0.950 1_565 S
H475 C484 0.950 . S
H476 C486 0.950 . S
H477 C488 0.950 1_545 S
H478 C490 0.950 . S
H479 C491 0.950 1_455 S
C480 H472 0.950 . S
C480 C481 1.386 . S
C480 C482 1.391 . S
C481 C480 1.386 . S
C481 C485 1.393 . S
C482 H474 0.950 1_545 S
C482 C480 1.391 . S
C482 C483 1.400 . S
C483 C482 1.400 . S
C483 C484 1.398 1_455 S
C483 C489 1.491 1_445 S
C484 H475 0.950 . S
C484 C483 1.398 1_655 S
C484 C485 1.391 1_655 S
C485 H473 0.950 1_455 S
C485 C481 1.393 . S
C485 C484 1.391 1_455 S
C486 H476 0.950 . S
C486 C487 1.386 . S
C486 C488 1.391 . S
C487 C486 1.386 . S
C487 C491 1.393 . S
C488 H477 0.950 1_565 S
C488 C486 1.391 . S
C488 C489 1.400 . S
C489 C483 1.491 1_665 S
C489 C488 1.400 . S
C489 C490 1.398 1_655 S
C490 H478 0.950 . S
C490 C489 1.398 1_455 S
C490 C491 1.391 1_455 S
C491 H479 0.950 1_655 S
C491 C487 1.393 . S
C491 C490 1.391 1_655 S
H492 C500 0.950 . S
H493 C505 0.950 . S
H494 C502 0.950 . S
H495 C504 0.950 1_545 S
H496 C506 0.950 . S
H497 C508 0.950 . S
H498 C510 0.950 1_565 S
H499 C511 0.950 . S
C500 H492 0.950 . S
C500 C501 1.386 . S
C500 C502 1.391 1_456 S
C501 C500 1.386 . S
C501 C505 1.393 . S
C502 H494 0.950 . S
C502 C500 1.391 1_654 S
C502 C503 1.400 1_654 S
C503 C502 1.400 1_456 S
C503 C504 1.398 . S
C503 C509 1.491 1_466 S
C504 H495 0.950 1_565 S
C504 C503 1.398 . S
C504 C505 1.391 . S
C505 H493 0.950 . S
C505 C501 1.393 . S
C505 C504 1.391 . S
C506 H496 0.950 . S
C506 C507 1.386 . S
C506 C508 1.391 1_654 S
C507 C506 1.386 . S
C507 C511 1.393 . S
C508 H497 0.950 . S
C508 C506 1.391 1_456 S
C508 C509 1.400 1_456 S
C509 C503 1.491 1_644 S
C509 C508 1.400 1_654 S
C509 C510 1.398 . S
C510 H498 0.950 1_545 S
C510 C509 1.398 . S
C510 C511 1.391 . S
C511 H499 0.950 . S
C511 C507 1.393 . S
C511 C510 1.391 . S
H512 C520 0.950 . S
H513 C525 0.950 . S
H514 C522 0.950 . S
H515 C524 0.950 . S
H516 C526 0.950 . S
H517 C528 0.950 . S
H518 C530 0.950 . S
H519 C531 0.950 . S
C520 H512 0.950 . S
C520 C521 1.386 . S
C520 C522 1.391 . S
C521 C520 1.386 . S
C521 C525 1.393 . S
C522 H514 0.950 . S
C522 C520 1.391 . S
C522 C523 1.400 . S
C523 C522 1.400 . S
C523 C524 1.398 . S
C523 C529 1.491 . S
C524 H515 0.950 . S
C524 C523 1.398 . S
C524 C525 1.391 . S
C525 H513 0.950 . S
C525 C521 1.393 . S
C525 C524 1.391 . S
C526 H516 0.950 . S
C526 C527 1.386 . S
C526 C528 1.391 . S
C527 C526 1.386 . S
C527 C531 1.393 . S
C528 H517 0.950 . S
C528 C526 1.391 . S
C528 C529 1.400 . S
C529 C523 1.491 . S
C529 C528 1.400 . S
C529 C530 1.398 . S
C530 H518 0.950 . S
C530 C529 1.398 . S
C530 C531 1.391 . S
C531 H519 0.950 . S
C531 C527 1.393 . S
C531 C530 1.391 . S
H532 C540 0.950 . S
H533 C545 0.950 . S
H534 C542 0.950 . S
H535 C544 0.950 . S
H536 C546 0.950 . S
H537 C548 0.950 . S
H538 C550 0.950 . S
H539 C551 0.950 . S
C540 H532 0.950 . S
C540 C541 1.386 . S
C540 C542 1.391 . S
C541 C540 1.386 . S
C541 C545 1.393 . S
C542 H534 0.950 . S
C542 C540 1.391 . S
C542 C543 1.400 . S
C543 C542 1.400 . S
C543 C544 1.398 1_554 S
C543 C549 1.491 1_554 S
C544 H535 0.950 . S
C544 C543 1.398 1_556 S
C544 C545 1.391 1_556 S
C545 H533 0.950 . S
C545 C541 1.393 . S
C545 C544 1.391 1_554 S
C546 H536 0.950 . S
C546 C547 1.386 . S
C546 C548 1.391 . S
C547 C546 1.386 . S
C547 C551 1.393 . S
C548 H537 0.950 . S
C548 C546 1.391 . S
C548 C549 1.400 . S
C549 C543 1.491 1_556 S
C549 C548 1.400 . S
C549 C550 1.398 1_556 S
C550 H538 0.950 . S
C550 C549 1.398 1_554 S
C550 C551 1.391 1_554 S
C551 H539 0.950 . S
C551 C547 1.393 . S
C551 C550 1.391 1_556 S
H552 C560 0.950 . S
H553 C565 0.950 . S
H554 C562 0.950 1_455 S
H555 C564 0.950 . S
H556 C566 0.950 . S
H557 C568 0.950 1_655 S
H558 C570 0.950 . S
H559 C571 0.950 . S
C560 H552 0.950 . S
C560 C561 1.386 . S
C560 C562 1.391 . S
C561 C560 1.386 . S
C561 C565 1.393 . S
C562 H554 0.950 1_655 S
C562 C560 1.391 . S
C562 C563 1.400 . S
C563 C562 1.400 . S
C563 C564 1.398 1_554 S
C563 C569 1.491 1_654 S
C564 H555 0.950 . S
C564 C563 1.398 1_556 S
C564 C565 1.391 1_556 S
C565 H553 0.950 . S
C565 C561 1.393 . S
C565 C564 1.391 1_554 S
C566 H556 0.950 . S
C566 C567 1.386 . S
C566 C568 1.391 . S
C567 C566 1.386 . S
C567 C571 1.393 . S
C568 H557 0.950 1_455 S
C568 C566 1.391 . S
C568 C569 1.400 . S
C569 C563 1.491 1_456 S
C569 C568 1.400 . S
C569 C570 1.398 1_556 S
C570 H558 0.950 . S
C570 C569 1.398 1_554 S
C570 C571 1.391 1_554 S
C571 H559 0.950 . S
C571 C567 1.393 . S
C571 C570 1.391 1_556 S
H572 C580 0.950 . S
H573 C585 0.950 . S
H574 C582 0.950 1_655 S
H575 C584 0.950 . S
H576 C586 0.950 . S
H577 C588 0.950 1_455 S
H578 C590 0.950 . S
H579 C591 0.950 . S
C580 H572 0.950 . S
C580 C581 1.386 . S
C580 C582 1.391 . S
C581 C580 1.386 . S
C581 C585 1.393 . S
C582 H574 0.950 1_455 S
C582 C580 1.391 . S
C582 C583 1.400 . S
C583 C582 1.400 . S
C583 C584 1.398 . S
C583 C589 1.491 1_455 S
C584 H575 0.950 . S
C584 C583 1.398 . S
C584 C585 1.391 . S
C585 H573 0.950 . S
C585 C581 1.393 . S
C585 C584 1.391 . S
C586 H576 0.950 . S
C586 C587 1.386 . S
C586 C588 1.391 . S
C587 C586 1.386 . S
C587 C591 1.393 . S
C588 H577 0.950 1_655 S
C588 C586 1.391 . S
C588 C589 1.400 . S
C589 C583 1.491 1_655 S
C589 C588 1.400 . S
C589 C590 1.398 . S
C590 H578 0.950 . S
C590 C589 1.398 . S
C590 C591 1.391 . S
C591 H579 0.950 . S
C591 C587 1.393 . S
C591 C590 1.391 . S
H592 C600 0.950 . S
H593 C605 0.950 1_554 S
H594 C602 0.950 . S
H595 C604 0.950 . S
H596 C606 0.950 . S
H597 C608 0.950 . S
H598 C610 0.950 . S
H599 C611 0.950 1_556 S
C600 H592 0.950 . S
C600 C601 1.386 . S
C600 C602 1.391 . S
C601 C600 1.386 . S
C601 C605 1.393 . S
C602 H594 0.950 . S
C602 C600 1.391 . S
C602 C603 1.400 . S
C603 C602 1.400 . S
C603 C604 1.398 1_556 S
C603 C609 1.491 1_546 S
C604 H595 0.950 . S
C604 C603 1.398 1_554 S
C604 C605 1.391 1_554 S
C605 H593 0.950 1_556 S
C605 C601 1.393 . S
C605 C604 1.391 1_556 S
C606 H596 0.950 . S
C606 C607 1.386 . S
C606 C608 1.391 . S
C607 C606 1.386 . S
C607 C611 1.393 . S
C608 H597 0.950 . S
C608 C606 1.391 . S
C608 C609 1.400 . S
C609 C603 1.491 1_564 S
C609 C608 1.400 . S
C609 C610 1.398 1_554 S
C610 H598 0.950 . S
C610 C609 1.398 1_556 S
C610 C611 1.391 1_556 S
C611 H599 0.950 1_554 S
C611 C607 1.393 . S
C611 C610 1.391 1_554 S
H612 C620 0.950 . S
H613 C625 0.950 . S
H614 C622 0.950 1_545 S
H615 C624 0.950 . S
H616 C626 0.950 . S
H617 C628 0.950 1_565 S
H618 C630 0.950 . S
H619 C631 0.950 . S
C620 H612 0.950 . S
C620 C621 1.386 . S
C620 C622 1.391 . S
C621 C620 1.386 . S
C621 C625 1.393 . S
C622 H614 0.950 1_565 S
C622 C620 1.391 . S
C622 C623 1.400 . S
C623 C622 1.400 . S
C623 C624 1.398 . S
C623 C629 1.491 1_565 S
C624 H615 0.950 . S
C624 C623 1.398 . S
C624 C625 1.391 . S
C625 H613 0.950 . S
C625 C621 1.393 . S
C625 C624 1.391 . S
C626 H616 0.950 . S
C626 C627 1.386 . S
C626 C628 1.391 . S
C627 C626 1.386 . S
C627 C631 1.393 . S
C628 H617 0.950 1_545 S
C628 C626 1.391 . S
C628 C629 1.400 . S
C629 C623 1.491 1_545 S
C629 C628 1.400 . S
C629 C630 1.398 . S
C630 H618 0.950 . S
C630 C629 1.398 . S
C630 C631 1.391 . S
C631 H619 0.950 . S
C631 C627 1.393 . S
C631 C630 1.391 . S
H632 C640 0.950 . S
H633 C645 0.950 . S
H634 C642 0.950 . S
H635 C644 0.950 . S
H636 C646 0.950 . S
H637 C648 0.950 . S
H638 C650 0.950 . S
H639 C651 0.950 . S
C640 H632 0.950 . S
C640 C641 1.386 . S
C640 C642 1.391 . S
C641 C640 1.386 . S
C641 C645 1.393 . S
C642 H634 0.950 . S
C642 C640 1.391 . S
C642 C643 1.400 . S
C643 C642 1.400 . S
C643 C644 1.398 . S
C643 C649 1.491 . S
C644 H635 0.950 . S
C644 C643 1.398 . S
C644 C645 1.391 . S
C645 H633 0.950 . S
C645 C641 1.393 . S
C645 C644 1.391 . S
C646 H636 0.950 . S
C646 C647 1.386 . S
C646 C648 1.391 . S
C647 C646 1.386 . S
C647 C651 1.393 . S
C648 H637 0.950 . S
C648 C646 1.391 . S
C648 C649 1.400 . S
C649 C643 1.491 . S
C649 C648 1.400 . S
C649 C650 1.398 . S
C650 H638 0.950 . S
C650 C649 1.398 . S
C650 C651 1.391 . S
C651 H639 0.950 . S
C651 C647 1.393 . S
C651 C650 1.391 . S
H652 C660 0.950 . S
H653 C665 0.950 . S
H654 C662 0.950 . S
H655 C664 0.950 . S
H656 C666 0.950 . S
H657 C668 0.950 . S
H658 C670 0.950 . S
H659 C671 0.950 . S
C660 H652 0.950 . S
C660 C661 1.386 . S
C660 C662 1.391 . S
C661 C660 1.386 . S
C661 C665 1.393 . S
C662 H654 0.950 . S
C662 C660 1.391 . S
C662 C663 1.400 . S
C663 C662 1.400 . S
C663 C664 1.398 . S
C663 C669 1.491 1_556 S
C664 H655 0.950 . S
C664 C663 1.398 . S
C664 C665 1.391 . S
C665 H653 0.950 . S
C665 C661 1.393 . S
C665 C664 1.391 . S
C666 H656 0.950 . S
C666 C667 1.386 . S
C666 C668 1.391 . S
C667 C666 1.386 . S
C667 C671 1.393 . S
C668 H657 0.950 . S
C668 C666 1.391 . S
C668 C669 1.400 . S
C669 C663 1.491 1_554 S
C669 C668 1.400 . S
C669 C670 1.398 . S
C670 H658 0.950 . S
C670 C669 1.398 . S
C670 C671 1.391 . S
C671 H659 0.950 . S
C671 C667 1.393 . S
C671 C670 1.391 . S
H672 C680 0.950 . S
H673 C685 0.950 . S
H674 C682 0.950 . S
H675 C684 0.950 . S
H676 C686 0.950 . S
H677 C688 0.950 . S
H678 C690 0.950 . S
H679 C691 0.950 . S
C680 H672 0.950 . S
C680 C681 1.386 . S
C680 C682 1.391 . S
C681 C680 1.386 . S
C681 C685 1.393 . S
C682 H674 0.950 . S
C682 C680 1.391 . S
C682 C683 1.400 . S
C683 C682 1.400 . S
C683 C684 1.398 . S
C683 C689 1.491 . S
C684 H675 0.950 . S
C684 C683 1.398 . S
C684 C685 1.391 . S
C685 H673 0.950 . S
C685 C681 1.393 . S
C685 C684 1.391 . S
C686 H676 0.950 . S
C686 C687 1.386 . S
C686 C688 1.391 . S
C687 C686 1.386 . S
C687 C691 1.393 . S
C688 H677 0.950 . S
C688 C686 1.391 . S
C688 C689 1.400 . S
C689 C683 1.491 . S
C689 C688 1.400 . S
C689 C690 1.398 . S
C690 H678 0.950 . S
C690 C689 1.398 . S
C690 C691 1.391 . S
C691 H679 0.950 . S
C691 C687 1.393 . S
C691 C690 1.391 . S
H692 C700 0.950 . S
H693 C705 0.950 . S
H694 C702 0.950 . S
H695 C704 0.950 . S
H696 C706 0.950 . S
H697 C708 0.950 . S
H698 C710 0.950 . S
H699 C711 0.950 . S
C700 H692 0.950 . S
C700 C701 1.386 . S
C700 C702 1.391 . S
C701 C700 1.386 . S
C701 C705 1.393 . S
C702 H694 0.950 . S
C702 C700 1.391 . S
C702 C703 1.400 . S
C703 C702 1.400 . S
C703 C704 1.398 . S
C703 C709 1.491 1_554 S
C704 H695 0.950 . S
C704 C703 1.398 . S
C704 C705 1.391 . S
C705 H693 0.950 . S
C705 C701 1.393 . S
C705 C704 1.391 . S
C706 H696 0.950 . S
C706 C707 1.386 . S
C706 C708 1.391 . S
C707 C706 1.386 . S
C707 C711 1.393 . S
C708 H697 0.950 . S
C708 C706 1.391 . S
C708 C709 1.400 . S
C709 C703 1.491 1_556 S
C709 C708 1.400 . S
C709 C710 1.398 . S
C710 H698 0.950 . S
C710 C709 1.398 . S
C710 C711 1.391 . S
C711 H699 0.950 . S
C711 C707 1.393 . S
C711 C710 1.391 . S
H712 C720 0.950 . S
H713 C725 0.950 . S
H714 C722 0.950 . S
H715 C724 0.950 . S
H716 C726 0.950 . S
H717 C728 0.950 . S
H718 C730 0.950 . S
H719 C731 0.950 . S
C720 H712 0.950 . S
C720 C721 1.386 . S
C720 C722 1.391 . S
C721 C720 1.386 . S
C721 C725 1.393 . S
C722 H714 0.950 . S
C722 C720 1.391 . S
C722 C723 1.400 . S
C723 C722 1.400 . S
C723 C724 1.398 . S
C723 C729 1.491 . S
C724 H715 0.950 . S
C724 C723 1.398 . S
C724 C725 1.391 . S
C725 H713 0.950 . S
C725 C721 1.393 . S
C725 C724 1.391 . S
C726 H716 0.950 . S
C726 C727 1.386 . S
C726 C728 1.391 . S
C727 C726 1.386 . S
C727 C731 1.393 . S
C728 H717 0.950 . S
C728 C726 1.391 . S
C728 C729 1.400 . S
C729 C723 1.491 . S
C729 C728 1.400 . S
C729 C730 1.398 . S
C730 H718 0.950 . S
C730 C729 1.398 . S
C730 C731 1.391 . S
C731 H719 0.950 . S
C731 C727 1.393 . S
C731 C730 1.391 . S
H732 C740 0.950 . S
H733 C745 0.950 . S
H734 C742 0.950 . S
H735 C744 0.950 . S
H736 C746 0.950 . S
H737 C748 0.950 . S
H738 C750 0.950 . S
H739 C751 0.950 . S
C740 H732 0.950 . S
C740 C741 1.386 . S
C740 C742 1.391 . S
C741 C740 1.386 . S
C741 C745 1.393 . S
C742 H734 0.950 . S
C742 C740 1.391 . S
C742 C743 1.400 . S
C743 C742 1.400 . S
C743 C744 1.398 . S
C743 C749 1.491 . S
C744 H735 0.950 . S
C744 C743 1.398 . S
C744 C745 1.391 . S
C745 H733 0.950 . S
C745 C741 1.393 . S
C745 C744 1.391 . S
C746 H736 0.950 . S
C746 C747 1.386 . S
C746 C748 1.391 . S
C747 C746 1.386 . S
C747 C751 1.393 . S
C748 H737 0.950 . S
C748 C746 1.391 . S
C748 C749 1.400 . S
C749 C743 1.491 . S
C749 C748 1.400 . S
C749 C750 1.398 . S
C750 H738 0.950 . S
C750 C749 1.398 . S
C750 C751 1.391 . S
C751 H739 0.950 . S
C751 C747 1.393 . S
C751 C750 1.391 . S
H752 C760 0.950 . S
H753 C765 0.950 . S
H754 C762 0.950 . S
H755 C764 0.950 . S
H756 C766 0.950 . S
H757 C768 0.950 . S
H758 C770 0.950 . S
H759 C771 0.950 . S
C760 H752 0.950 . S
C760 C761 1.386 . S
C760 C762 1.391 . S
C761 C760 1.386 . S
C761 C765 1.393 . S
C762 H754 0.950 . S
C762 C760 1.391 . S
C762 C763 1.400 . S
C763 C762 1.400 . S
C763 C764 1.398 . S
C763 C769 1.491 1_455 S
C764 H755 0.950 . S
C764 C763 1.398 . S
C764 C765 1.391 . S
C765 H753 0.950 . S
C765 C761 1.393 . S
C765 C764 1.391 . S
C766 H756 0.950 . S
C766 C767 1.386 . S
C766 C768 1.391 . S
C767 C766 1.386 . S
C767 C771 1.393 . S
C768 H757 0.950 . S
C768 C766 1.391 . S
C768 C769 1.400 . S
C769 C763 1.491 1_655 S
C769 C768 1.400 . S
C769 C770 1.398 . S
C770 H758 0.950 . S
C770 C769 1.398 . S
C770 C771 1.391 . S
C771 H759 0.950 . S
C771 C767 1.393 . S
C771 C770 1.391 . S
H772 C780 0.950 . S
H773 C785 0.950 . S
H774 C782 0.950 . S
H775 C784 0.950 . S
H776 C786 0.950 . S
H777 C788 0.950 . S
H778 C790 0.950 . S
H779 C791 0.950 . S
C780 H772 0.950 . S
C780 C781 1.386 . S
C780 C782 1.391 . S
C781 C780 1.386 . S
C781 C785 1.393 . S
C782 H774 0.950 . S
C782 C780 1.391 . S
C782 C783 1.400 . S
C783 C782 1.400 . S
C783 C784 1.398 . S
C783 C789 1.491 1_455 S
C784 H775 0.950 . S
C784 C783 1.398 . S
C784 C785 1.391 . S
C785 H773 0.950 . S
C785 C781 1.393 . S
C785 C784 1.391 . S
C786 H776 0.950 . S
C786 C787 1.386 . S
C786 C788 1.391 . S
C787 C786 1.386 . S
C787 C791 1.393 . S
C788 H777 0.950 . S
C788 C786 1.391 . S
C788 C789 1.400 . S
C789 C783 1.491 1_655 S
C789 C788 1.400 . S
C789 C790 1.398 . S
C790 H778 0.950 . S
C790 C789 1.398 . S
C790 C791 1.391 . S
C791 H779 0.950 . S
C791 C787 1.393 . S
C791 C790 1.391 . S
C481 C5 2.102 . S
C487 C123 2.102 . S
C501 C182 2.101 . S
C507 C64 2.101 . S
C521 C359 2.106 . S
C527 C241 2.106 . S
C541 C300 2.101 . S
C547 C418 2.101 . S
C561 C62 1.162 . S
C567 C180 1.162 . S
C581 C3 1.164 . S
C587 C121 1.164 . S
C601 C416 1.155 . S
C607 C298 1.155 . S
C621 C239 1.153 . S
C627 C357 1.153 . S
C641 C328 1.572 . S
C647 C210 1.572 . S
C661 C151 1.582 . S
C667 C269 1.582 . S
C681 C92 1.572 . S
C687 C446 1.572 . S
C701 C33 1.583 . S
C707 C387 1.583 . S
C721 C52 1.629 . S
C727 C111 1.620 . S
C741 C170 1.619 . S
C747 C229 1.626 . S
C761 C347 1.623 . S
C767 C288 1.629 . S
C781 C406 1.618 . S
C787 C465 1.626 . S
