# Generated by pormake.
# Topology uke, (4)-cn, num edge types: 1
# Building blocks:
#     Node 0, Type 0, BuildingBlock: TATPOV_clean_sbu_0, # of connection points: 4
#     Node 1, Type 0, BuildingBlock: TATPOV_clean_sbu_0, # of connection points: 4
#     Node 2, Type 0, BuildingBlock: TATPOV_clean_sbu_0, # of connection points: 4
#     Node 3, Type 0, BuildingBlock: TATPOV_clean_sbu_0, # of connection points: 4
#     Node 4, Type 0, BuildingBlock: TATPOV_clean_sbu_0, # of connection points: 4
#     Node 5, Type 0, BuildingBlock: TATPOV_clean_sbu_0, # of connection points: 4
#     Node 6, Type 0, BuildingBlock: TATPOV_clean_sbu_0, # of connection points: 4
#     Node 7, Type 0, BuildingBlock: TATPOV_clean_sbu_0, # of connection points: 4
#     Node 8, Type 0, BuildingBlock: TATPOV_clean_sbu_0, # of connection points: 4
#     Node 9, Type 0, BuildingBlock: TATPOV_clean_sbu_0, # of connection points: 4
#     Node 10, Type 0, BuildingBlock: TATPOV_clean_sbu_0, # of connection points: 4
#     Node 11, Type 0, BuildingBlock: TATPOV_clean_sbu_0, # of connection points: 4
#     Node 12, Type 0, BuildingBlock: TATPOV_clean_sbu_0, # of connection points: 4
#     Node 13, Type 0, BuildingBlock: TATPOV_clean_sbu_0, # of connection points: 4
#     Node 14, Type 0, BuildingBlock: TATPOV_clean_sbu_0, # of connection points: 4
#     Node 15, Type 0, BuildingBlock: TATPOV_clean_sbu_0, # of connection points: 4
#     Node 16, Type 0, BuildingBlock: TATPOV_clean_sbu_0, # of connection points: 4
#     Node 17, Type 0, BuildingBlock: TATPOV_clean_sbu_0, # of connection points: 4
#     Node 18, Type 0, BuildingBlock: TATPOV_clean_sbu_0, # of connection points: 4
#     Node 19, Type 0, BuildingBlock: TATPOV_clean_sbu_0, # of connection points: 4
#     Node 20, Type 0, BuildingBlock: TATPOV_clean_sbu_0, # of connection points: 4
#     Node 21, Type 0, BuildingBlock: TATPOV_clean_sbu_0, # of connection points: 4
#     Node 22, Type 0, BuildingBlock: TATPOV_clean_sbu_0, # of connection points: 4
#     Node 23, Type 0, BuildingBlock: TATPOV_clean_sbu_0, # of connection points: 4
#     Node 24, Type 0, BuildingBlock: TATPOV_clean_sbu_0, # of connection points: 4
#     Node 25, Type 0, BuildingBlock: TATPOV_clean_sbu_0, # of connection points: 4
#     Node 26, Type 0, BuildingBlock: TATPOV_clean_sbu_0, # of connection points: 4
#     Node 27, Type 0, BuildingBlock: TATPOV_clean_sbu_0, # of connection points: 4
#     Node 28, Type 0, BuildingBlock: TATPOV_clean_sbu_0, # of connection points: 4
#     Node 29, Type 0, BuildingBlock: TATPOV_clean_sbu_0, # of connection points: 4
#     Node 30, Type 0, BuildingBlock: TATPOV_clean_sbu_0, # of connection points: 4
#     Node 31, Type 0, BuildingBlock: TATPOV_clean_sbu_0, # of connection points: 4
#     Edge 32, Type (0, 0), BuildingBlock: TEMPAE_clean_linker_10, # of connection points: 2
#     Edge 33, Type (0, 0), BuildingBlock: TEMPAE_clean_linker_10, # of connection points: 2
#     Edge 34, Type (0, 0), BuildingBlock: TEMPAE_clean_linker_10, # of connection points: 2
#     Edge 35, Type (0, 0), BuildingBlock: TEMPAE_clean_linker_10, # of connection points: 2
#     Edge 36, Type (0, 0), BuildingBlock: TEMPAE_clean_linker_10, # of connection points: 2
#     Edge 37, Type (0, 0), BuildingBlock: TEMPAE_clean_linker_10, # of connection points: 2
#     Edge 38, Type (0, 0), BuildingBlock: TEMPAE_clean_linker_10, # of connection points: 2
#     Edge 39, Type (0, 0), BuildingBlock: TEMPAE_clean_linker_10, # of connection points: 2
#     Edge 40, Type (0, 0), BuildingBlock: TEMPAE_clean_linker_10, # of connection points: 2
#     Edge 41, Type (0, 0), BuildingBlock: TEMPAE_clean_linker_10, # of connection points: 2
#     Edge 42, Type (0, 0), BuildingBlock: TEMPAE_clean_linker_10, # of connection points: 2
#     Edge 43, Type (0, 0), BuildingBlock: TEMPAE_clean_linker_10, # of connection points: 2
#     Edge 44, Type (0, 0), BuildingBlock: TEMPAE_clean_linker_10, # of connection points: 2
#     Edge 45, Type (0, 0), BuildingBlock: TEMPAE_clean_linker_10, # of connection points: 2
#     Edge 46, Type (0, 0), BuildingBlock: TEMPAE_clean_linker_10, # of connection points: 2
#     Edge 47, Type (0, 0), BuildingBlock: TEMPAE_clean_linker_10, # of connection points: 2
#     Edge 48, Type (0, 0), BuildingBlock: TEMPAE_clean_linker_10, # of connection points: 2
#     Edge 49, Type (0, 0), BuildingBlock: TEMPAE_clean_linker_10, # of connection points: 2
#     Edge 50, Type (0, 0), BuildingBlock: TEMPAE_clean_linker_10, # of connection points: 2
#     Edge 51, Type (0, 0), BuildingBlock: TEMPAE_clean_linker_10, # of connection points: 2
#     Edge 52, Type (0, 0), BuildingBlock: TEMPAE_clean_linker_10, # of connection points: 2
#     Edge 53, Type (0, 0), BuildingBlock: TEMPAE_clean_linker_10, # of connection points: 2
#     Edge 54, Type (0, 0), BuildingBlock: TEMPAE_clean_linker_10, # of connection points: 2
#     Edge 55, Type (0, 0), BuildingBlock: TEMPAE_clean_linker_10, # of connection points: 2
#     Edge 56, Type (0, 0), BuildingBlock: TEMPAE_clean_linker_10, # of connection points: 2
#     Edge 57, Type (0, 0), BuildingBlock: TEMPAE_clean_linker_10, # of connection points: 2
#     Edge 58, Type (0, 0), BuildingBlock: TEMPAE_clean_linker_10, # of connection points: 2
#     Edge 59, Type (0, 0), BuildingBlock: TEMPAE_clean_linker_10, # of connection points: 2
#     Edge 60, Type (0, 0), BuildingBlock: TEMPAE_clean_linker_10, # of connection points: 2
#     Edge 61, Type (0, 0), BuildingBlock: TEMPAE_clean_linker_10, # of connection points: 2
#     Edge 62, Type (0, 0), BuildingBlock: TEMPAE_clean_linker_10, # of connection points: 2
#     Edge 63, Type (0, 0), BuildingBlock: TEMPAE_clean_linker_10, # of connection points: 2
#     Edge 64, Type (0, 0), BuildingBlock: TEMPAE_clean_linker_10, # of connection points: 2
#     Edge 65, Type (0, 0), BuildingBlock: TEMPAE_clean_linker_10, # of connection points: 2
#     Edge 66, Type (0, 0), BuildingBlock: TEMPAE_clean_linker_10, # of connection points: 2
#     Edge 67, Type (0, 0), BuildingBlock: TEMPAE_clean_linker_10, # of connection points: 2
#     Edge 68, Type (0, 0), BuildingBlock: TEMPAE_clean_linker_10, # of connection points: 2
#     Edge 69, Type (0, 0), BuildingBlock: TEMPAE_clean_linker_10, # of connection points: 2
#     Edge 70, Type (0, 0), BuildingBlock: TEMPAE_clean_linker_10, # of connection points: 2
#     Edge 71, Type (0, 0), BuildingBlock: TEMPAE_clean_linker_10, # of connection points: 2
#     Edge 72, Type (0, 0), BuildingBlock: TEMPAE_clean_linker_10, # of connection points: 2
#     Edge 73, Type (0, 0), BuildingBlock: TEMPAE_clean_linker_10, # of connection points: 2
#     Edge 74, Type (0, 0), BuildingBlock: TEMPAE_clean_linker_10, # of connection points: 2
#     Edge 75, Type (0, 0), BuildingBlock: TEMPAE_clean_linker_10, # of connection points: 2
#     Edge 76, Type (0, 0), BuildingBlock: TEMPAE_clean_linker_10, # of connection points: 2
#     Edge 77, Type (0, 0), BuildingBlock: TEMPAE_clean_linker_10, # of connection points: 2
#     Edge 78, Type (0, 0), BuildingBlock: TEMPAE_clean_linker_10, # of connection points: 2
#     Edge 79, Type (0, 0), BuildingBlock: TEMPAE_clean_linker_10, # of connection points: 2
#     Edge 80, Type (0, 0), BuildingBlock: TEMPAE_clean_linker_10, # of connection points: 2
#     Edge 81, Type (0, 0), BuildingBlock: TEMPAE_clean_linker_10, # of connection points: 2
#     Edge 82, Type (0, 0), BuildingBlock: TEMPAE_clean_linker_10, # of connection points: 2
#     Edge 83, Type (0, 0), BuildingBlock: TEMPAE_clean_linker_10, # of connection points: 2
#     Edge 84, Type (0, 0), BuildingBlock: TEMPAE_clean_linker_10, # of connection points: 2
#     Edge 85, Type (0, 0), BuildingBlock: TEMPAE_clean_linker_10, # of connection points: 2
#     Edge 86, Type (0, 0), BuildingBlock: TEMPAE_clean_linker_10, # of connection points: 2
#     Edge 87, Type (0, 0), BuildingBlock: TEMPAE_clean_linker_10, # of connection points: 2
#     Edge 88, Type (0, 0), BuildingBlock: TEMPAE_clean_linker_10, # of connection points: 2
#     Edge 89, Type (0, 0), BuildingBlock: TEMPAE_clean_linker_10, # of connection points: 2
#     Edge 90, Type (0, 0), BuildingBlock: TEMPAE_clean_linker_10, # of connection points: 2
#     Edge 91, Type (0, 0), BuildingBlock: TEMPAE_clean_linker_10, # of connection points: 2
#     Edge 92, Type (0, 0), BuildingBlock: TEMPAE_clean_linker_10, # of connection points: 2
#     Edge 93, Type (0, 0), BuildingBlock: TEMPAE_clean_linker_10, # of connection points: 2
#     Edge 94, Type (0, 0), BuildingBlock: TEMPAE_clean_linker_10, # of connection points: 2
#     Edge 95, Type (0, 0), BuildingBlock: TEMPAE_clean_linker_10, # of connection points: 2
# Relax obj value: 0.183
# Max RMSD: 0.214
# Mean RMSD: 0.214
data_MOF--net-uke--node1-TATPOV_clean_sbu_0--edge1-TEMPAE_clean_linker_10
_symmetry_space_group_name_H-M    P1
_symmetry_Int_Tables_number       1
_symmetry_cell_setting            triclinic
loop_
_symmetry_equiv_pos_as_xyz
'x, y, z'
_cell_length_a     28.078117
_cell_length_b     105.52971
_cell_length_c     45.70616
_cell_angle_alpha  89.998234
_cell_angle_beta   89.875336
_cell_angle_gamma 90.035595
loop_
_atom_site_label
_atom_site_type_symbol
_atom_site_fract_x
_atom_site_fract_y
_atom_site_fract_z
_atom_type_partial_charge
Zn0 Zn 0.21165 0.05178 0.28522 0.0
Zn1 Zn 0.12005 0.05033 0.29696 0.0
O2 O 0.15258 0.03328 0.30054 0.0
O3 O 0.2299 0.03533 0.30473 0.0
O4 O 0.05742 0.04757 0.31724 0.0
O5 O 0.21892 0.06912 0.30347 0.0
O6 O 0.14395 0.06664 0.31608 0.0
C7 C 0.19345 0.02829 0.30359 0.0
C8 C 0.14359 0.05074 0.23498 0.0
O9 O 0.10985 0.05248 0.25325 0.0
O10 O 0.18643 0.04981 0.24353 0.0
C11 C 0.02096 0.04193 0.30726 0.0
O12 O 0.02142 0.03759 0.28031 0.0
C13 C 0.18201 0.07319 0.31628 0.0
Zn14 Zn 0.04188 0.18171 0.27941 0.0
Zn15 Zn 0.12427 0.18946 0.29802 0.0
O16 O 0.07531 0.20379 0.30298 0.0
O17 O 0.00426 0.19538 0.29945 0.0
O18 O 0.18216 0.19558 0.31951 0.0
O19 O 0.04992 0.16423 0.29608 0.0
O20 O 0.11618 0.17155 0.31507 0.0
C21 C 0.0302 0.205 0.30372 0.0
C22 C 0.11191 0.1881 0.23385 0.0
O23 O 0.14176 0.18885 0.2547 0.0
O24 O 0.06831 0.18585 0.23895 0.0
C25 C 0.2232 0.1916 0.31227 0.0
O26 O 0.22739 0.18408 0.28951 0.0
C27 C 0.08671 0.16251 0.31149 0.0
Zn28 Zn 0.20599 0.1859 0.9607 0.0
Zn29 Zn 0.11001 0.18681 0.95805 0.0
O30 O 0.14085 0.20365 0.95007 0.0
O31 O 0.21672 0.20263 0.93964 0.0
O32 O 0.04113 0.18971 0.94739 0.0
O33 O 0.20502 0.16856 0.94159 0.0
O34 O 0.12756 0.1707 0.93605 0.0
C35 C 0.17932 0.20918 0.943 0.0
C36 C 0.15222 0.18622 0.01707 0.0
O37 O 0.11448 0.18458 0.00206 0.0
O38 O 0.19242 0.18742 0.00458 0.0
C39 C 0.0317 0.19725 0.92643 0.0
O40 O 0.06683 0.203 0.91282 0.0
C41 C 0.16556 0.16435 0.93238 0.0
Zn42 Zn 0.05022 0.05275 0.96417 0.0
Zn43 Zn 0.14258 0.04975 0.9563 0.0
O44 O 0.10667 0.03321 0.95242 0.0
O45 O 0.03004 0.03604 0.94639 0.0
O46 O 0.20541 0.04642 0.93679 0.0
O47 O 0.04728 0.06981 0.94391 0.0
O48 O 0.12363 0.06647 0.93722 0.0
C49 C 0.06517 0.02863 0.94905 0.0
C50 C 0.11375 0.05105 0.01715 0.0
O51 O 0.14986 0.05163 1.00021 0.0
O52 O 0.07178 0.05128 0.00681 0.0
C53 C 0.23784 0.03853 0.94325 0.0
O54 O 0.23349 0.0315 0.96682 0.0
C55 C 0.08713 0.07345 0.93402 0.0
Zn56 Zn 0.78999 0.93058 0.71626 0.0
Zn57 Zn 0.87607 0.93827 0.70763 0.0
O58 O 0.83088 0.9535 0.70266 0.0
O59 O 0.75952 0.94547 0.69758 0.0
O60 O 0.93973 0.9424 0.68879 0.0
O61 O 0.79034 0.91421 0.6955 0.0
O62 O 0.8652 0.92009 0.69174 0.0
C63 C 0.78605 0.95505 0.70034 0.0
C64 C 0.85015 0.93493 0.76911 0.0
O65 O 0.88397 0.93773 0.75163 0.0
O66 O 0.80965 0.93159 0.75946 0.0
C67 C 0.95909 0.95289 0.68191 0.0
O68 O 0.93748 0.96356 0.68842 0.0
C69 C 0.83251 0.91189 0.68765 0.0
Zn70 Zn 0.95692 0.8039 0.7031 0.0
Zn71 Zn 0.87332 0.7938 0.69924 0.0
O72 O 0.91837 0.77968 0.68595 0.0
O73 O 0.9894 0.78769 0.69289 0.0
O74 O 0.80672 0.78785 0.69041 0.0
O75 O 0.94645 0.81825 0.67517 0.0
O76 O 0.87297 0.81188 0.68262 0.0
C77 C 0.96248 0.77811 0.69125 0.0
C78 C 0.90769 0.80005 0.75867 0.0
O79 O 0.87731 0.79429 0.74297 0.0
O80 O 0.94211 0.80596 0.74684 0.0
C81 C 0.79619 0.77986 0.67066 0.0
O82 O 0.83052 0.77446 0.6556 0.0
C83 C 0.90219 0.82016 0.6732 0.0
Zn84 Zn 0.76636 0.80407 0.01502 0.0
Zn85 Zn 0.87728 0.79353 0.03984 0.0
O86 O 0.84229 0.77632 0.04941 0.0
O87 O 0.79436 0.79006 0.0349 0.0
O88 O 0.94502 0.79181 0.05575 0.0
O89 O 0.78221 0.81883 0.04111 0.0
O90 O 0.8528 0.81113 0.05533 0.0
C91 C 0.80264 0.7785 0.03777 0.0
C92 C 0.85144 0.79932 0.97417 0.0
O93 O 0.87888 0.79517 0.99451 0.0
O94 O 0.80948 0.80346 0.97931 0.0
C95 C 0.9581 0.78241 0.07133 0.0
O96 O 0.92783 0.77316 0.07623 0.0
C97 C 0.82054 0.81977 0.05577 0.0
Zn98 Zn 0.93465 0.92844 0.04109 0.0
Zn99 Zn 0.85526 0.93895 0.04928 0.0
O100 O 0.91035 0.95191 0.05454 0.0
O101 O 0.978 0.94156 0.05646 0.0
O102 O 0.79822 0.94724 0.06879 0.0
O103 O 0.92456 0.9124 0.06274 0.0
O104 O 0.85251 0.9204 0.06554 0.0
C105 C 0.95568 0.95194 0.05657 0.0
C106 C 0.87846 0.9349 0.98778 0.0
O107 O 0.84584 0.93863 0.00521 0.0
O108 O 0.91676 0.93025 0.99791 0.0
C109 C 0.7565 0.94735 0.05801 0.0
O110 O 0.74963 0.94242 0.03196 0.0
C111 C 0.88144 0.91129 0.07009 0.0
Zn112 Zn 0.1935 0.54889 0.79135 0.0
Zn113 Zn 0.10946 0.54443 0.80355 0.0
O114 O 0.15244 0.52934 0.81395 0.0
O115 O 0.22237 0.5377 0.82149 0.0
O116 O 0.0477 0.54029 0.82392 0.0
O117 O 0.19268 0.56733 0.79805 0.0
O118 O 0.12351 0.56271 0.81781 0.0
C119 C 0.19583 0.52804 0.82139 0.0
C120 C 0.135 0.54117 0.74206 0.0
O121 O 0.10025 0.54367 0.75911 0.0
O122 O 0.17742 0.54163 0.75143 0.0
C123 C 0.00853 0.53667 0.81283 0.0
O124 O 0.00517 0.53527 0.78435 0.0
C125 C 0.1565 0.57071 0.81248 0.0
Zn126 Zn 0.0403 0.68322 0.77957 0.0
Zn127 Zn 0.12856 0.68828 0.79494 0.0
O128 O 0.0846 0.70278 0.80631 0.0
O129 O 0.01013 0.69666 0.80446 0.0
O130 O 0.18967 0.69306 0.81523 0.0
O131 O 0.04609 0.66522 0.79268 0.0
O132 O 0.11668 0.67029 0.80994 0.0
C133 C 0.04055 0.70516 0.80998 0.0
C134 C 0.10576 0.6895 0.73143 0.0
O135 O 0.13871 0.68878 0.75053 0.0
O136 O 0.06246 0.6882 0.73879 0.0
C137 C 0.2305 0.69496 0.80402 0.0
O138 O 0.23614 0.6939 0.77559 0.0
C139 C 0.08358 0.66222 0.80627 0.0
Zn140 Zn 0.20986 0.68868 0.46013 0.0
Zn141 Zn 0.11665 0.68856 0.45334 0.0
O142 O 0.14271 0.70634 0.44953 0.0
O143 O 0.2199 0.70605 0.44265 0.0
O144 O 0.05128 0.69032 0.43658 0.0
O145 O 0.21943 0.6723 0.43791 0.0
O146 O 0.14227 0.67331 0.43075 0.0
C147 C 0.18156 0.71224 0.44535 0.0
C148 C 0.14853 0.68709 0.51389 0.0
O149 O 0.11287 0.68542 0.4971 0.0
O150 O 0.18994 0.68879 0.50334 0.0
C151 C 0.01999 0.69841 0.44387 0.0
O152 O 0.02769 0.70595 0.46625 0.0
C153 C 0.18191 0.66773 0.42682 0.0
Zn154 Zn 0.07265 0.56287 0.49269 0.0
Zn155 Zn 0.13892 0.55181 0.46482 0.0
O156 O 0.08434 0.53901 0.45838 0.0
O157 O 0.02792 0.5489 0.48286 0.0
O158 O 0.19541 0.54665 0.44006 0.0
O159 O 0.07157 0.57931 0.47241 0.0
O160 O 0.13179 0.5704 0.4497 0.0
C161 C 0.04227 0.53923 0.46908 0.0
C162 C 0.14242 0.55345 0.53122 0.0
O163 O 0.15961 0.54898 0.50757 0.0
O164 O 0.10698 0.56082 0.53058 0.0
C165 C 0.21394 0.53602 0.43367 0.0
O166 O 0.19515 0.52555 0.44414 0.0
C167 C 0.10486 0.57997 0.45389 0.0
Zn168 Zn 0.79247 0.43502 0.21918 0.0
Zn169 Zn 0.8696 0.44064 0.19192 0.0
O170 O 0.81919 0.45466 0.18732 0.0
O171 O 0.75978 0.44181 0.18314 0.0
O172 O 0.92802 0.44527 0.16792 0.0
O173 O 0.81455 0.41717 0.21912 0.0
O174 O 0.85519 0.4223 0.17967 0.0
C175 C 0.77449 0.45307 0.18476 0.0
C176 C 0.86267 0.44429 0.25586 0.0
O177 O 0.88863 0.44014 0.23506 0.0
O178 O 0.81879 0.44627 0.25152 0.0
C179 C 0.96544 0.45031 0.17842 0.0
O180 O 0.96611 0.45356 0.20616 0.0
C181 C 0.83872 0.41391 0.19704 0.0
Zn182 Zn 0.97948 0.30096 0.21288 0.0
Zn183 Zn 0.87426 0.29502 0.20249 0.0
O184 O 0.91287 0.28279 0.17799 0.0
O185 O 0.98701 0.28754 0.18139 0.0
O186 O 0.80577 0.2931 0.18924 0.0
O187 O 0.96329 0.31861 0.19978 0.0
O188 O 0.88718 0.31373 0.19448 0.0
C189 C 0.95452 0.27944 0.18536 0.0
C190 C 0.91456 0.2928 0.26332 0.0
O191 O 0.87926 0.29147 0.24608 0.0
O192 O 0.95515 0.29642 0.25413 0.0
C193 C 0.78551 0.28273 0.18246 0.0
O194 O 0.80873 0.27203 0.18584 0.0
C195 C 0.92093 0.32182 0.19379 0.0
Zn196 Zn 0.81789 0.30457 0.53405 0.0
Zn197 Zn 0.8951 0.29244 0.54301 0.0
O198 O 0.83819 0.28005 0.5475 0.0
O199 O 0.773 0.29153 0.54816 0.0
O200 O 0.95188 0.2833 0.56023 0.0
O201 O 0.8318 0.31972 0.55834 0.0
O202 O 0.90083 0.31014 0.56295 0.0
C203 C 0.79285 0.2808 0.54854 0.0
C204 C 0.87393 0.29796 0.48117 0.0
O205 O 0.90472 0.2936 0.49896 0.0
O206 O 0.83627 0.30317 0.49083 0.0
C207 C 0.99351 0.28708 0.55353 0.0
O208 O 0.99812 0.29602 0.53372 0.0
C209 C 0.87382 0.3196 0.56803 0.0
Zn210 Zn 0.95372 0.42934 0.52615 0.0
Zn211 Zn 0.85944 0.4326 0.52956 0.0
O212 O 0.89476 0.44945 0.53313 0.0
O213 O 0.9717 0.44696 0.53907 0.0
O214 O 0.79241 0.43607 0.54422 0.0
O215 O 0.95506 0.41423 0.55323 0.0
O216 O 0.87726 0.41633 0.55172 0.0
C217 C 0.93598 0.45418 0.53676 0.0
C218 C 0.89528 0.42812 0.47059 0.0
O219 O 0.85796 0.4294 0.48622 0.0
O220 O 0.93614 0.42764 0.48253 0.0
C221 C 0.78026 0.4465 0.55607 0.0
O222 O 0.81068 0.45595 0.55647 0.0
C223 C 0.91401 0.41023 0.55994 0.0
Zn224 Zn 0.71136 0.05306 0.78739 0.0
Zn225 Zn 0.61743 0.04984 0.79582 0.0
O226 O 0.65042 0.03365 0.80772 0.0
O227 O 0.72736 0.03714 0.80982 0.0
O228 O 0.55087 0.04769 0.81112 0.0
O229 O 0.71058 0.07049 0.8058 0.0
O230 O 0.63503 0.06662 0.81467 0.0
C231 C 0.69237 0.02965 0.8126 0.0
C232 C 0.65183 0.04985 0.73421 0.0
O233 O 0.61584 0.05038 0.75125 0.0
O234 O 0.69379 0.05055 0.74441 0.0
C235 C 0.52698 0.03747 0.81223 0.0
O236 O 0.54413 0.02715 0.80005 0.0
C237 C 0.67111 0.07383 0.81673 0.0
Zn238 Zn 0.54826 0.18363 0.78369 0.0
Zn239 Zn 0.63999 0.18598 0.79331 0.0
O240 O 0.60574 0.20285 0.79499 0.0
O241 O 0.52951 0.2001 0.80289 0.0
O242 O 0.70521 0.1896 0.8089 0.0
O243 O 0.54548 0.16661 0.80348 0.0
O244 O 0.61983 0.17019 0.81598 0.0
C245 C 0.56447 0.20747 0.79903 0.0
C246 C 0.61281 0.18379 0.73207 0.0
O247 O 0.64703 0.18242 0.75003 0.0
O248 O 0.57033 0.18503 0.74117 0.0
C249 C 0.70923 0.19605 0.83227 0.0
O250 O 0.67063 0.20046 0.84496 0.0
C251 C 0.58284 0.16324 0.81679 0.0
Zn252 Zn 0.69676 0.18057 0.45762 0.0
Zn253 Zn 0.60128 0.18312 0.45543 0.0
O254 O 0.63542 0.1998 0.44948 0.0
O255 O 0.71129 0.19764 0.43943 0.0
O256 O 0.53281 0.18632 0.44441 0.0
O257 O 0.69392 0.1639 0.43558 0.0
O258 O 0.61681 0.16714 0.43254 0.0
C259 C 0.67557 0.20474 0.4436 0.0
C260 C 0.64218 0.18063 0.51398 0.0
O261 O 0.60411 0.18006 0.49894 0.0
O262 O 0.68268 0.18122 0.50161 0.0
C263 C 0.51661 0.197 0.43624 0.0
O264 O 0.54449 0.20699 0.43689 0.0
C265 C 0.65315 0.16037 0.42704 0.0
Zn266 Zn 0.54558 0.04848 0.46633 0.0
Zn267 Zn 0.63728 0.04751 0.45392 0.0
O268 O 0.60743 0.0303 0.44668 0.0
O269 O 0.53022 0.03275 0.44305 0.0
O270 O 0.70325 0.04629 0.43709 0.0
O271 O 0.53973 0.06623 0.45024 0.0
O272 O 0.61278 0.06349 0.43403 0.0
C273 C 0.56631 0.02557 0.44263 0.0
C274 C 0.61085 0.0471 0.51658 0.0
O275 O 0.64383 0.04939 0.49812 0.0
O276 O 0.56813 0.04563 0.50826 0.0
C277 C 0.72766 0.03623 0.43425 0.0
O278 O 0.7108 0.02548 0.44443 0.0
C279 C 0.57517 0.07014 0.43567 0.0
Zn280 Zn 0.3117 0.92571 0.22127 0.0
Zn281 Zn 0.39283 0.93559 0.21267 0.0
O282 O 0.34166 0.94953 0.20596 0.0
O283 O 0.27348 0.93935 0.20379 0.0
O284 O 0.45563 0.94212 0.19671 0.0
O285 O 0.32001 0.90974 0.1995 0.0
O286 O 0.39112 0.91786 0.19252 0.0
C287 C 0.29638 0.94965 0.20334 0.0
C288 C 0.36597 0.93139 0.2747 0.0
O289 O 0.39957 0.9344 0.25721 0.0
O290 O 0.32659 0.92742 0.26465 0.0
C291 C 0.46571 0.95265 0.18463 0.0
O292 O 0.43316 0.96156 0.18325 0.0
C293 C 0.36127 0.9089 0.18871 0.0
Zn294 Zn 0.47274 0.80309 0.24463 0.0
Zn295 Zn 0.3493 0.7924 0.21422 0.0
O296 O 0.38888 0.77641 0.20482 0.0
O297 O 0.43445 0.79014 0.22418 0.0
O298 O 0.28566 0.79121 0.19338 0.0
O299 O 0.45312 0.81813 0.22069 0.0
O300 O 0.38206 0.81031 0.20608 0.0
C301 C 0.42796 0.77876 0.21728 0.0
C302 C 0.37225 0.79279 0.27456 0.0
O303 O 0.33674 0.79057 0.25812 0.0
O304 O 0.41056 0.79672 0.26308 0.0
C305 C 0.27999 0.78459 0.17037 0.0
O306 O 0.31681 0.77864 0.15913 0.0
C307 C 0.41392 0.81912 0.20671 0.0
Zn308 Zn 0.28043 0.80561 0.5066 0.0
Zn309 Zn 0.39445 0.79314 0.55032 0.0
O310 O 0.34294 0.78083 0.56625 0.0
O311 O 0.30906 0.79404 0.53777 0.0
O312 O 0.45485 0.79167 0.57369 0.0
O313 O 0.30988 0.82137 0.52435 0.0
O314 O 0.37204 0.81258 0.54876 0.0
C315 C 0.30584 0.78387 0.55226 0.0
C316 C 0.37501 0.79036 0.49324 0.0
O317 O 0.41042 0.78693 0.50835 0.0
O318 O 0.34227 0.7959 0.50714 0.0
C319 C 0.46485 0.7819 0.58875 0.0
O320 O 0.43386 0.7726 0.59037 0.0
C321 C 0.34637 0.82219 0.54114 0.0
Zn322 Zn 0.45047 0.93385 0.5448 0.0
Zn323 Zn 0.36274 0.93833 0.55526 0.0
O324 O 0.40525 0.9542 0.55874 0.0
O325 O 0.47268 0.94668 0.57397 0.0
O326 O 0.3 0.943 0.57483 0.0
O327 O 0.45095 0.91608 0.55678 0.0
O328 O 0.37871 0.92047 0.57229 0.0
C329 C 0.44814 0.9561 0.56644 0.0
C330 C 0.38912 0.93806 0.49342 0.0
O331 O 0.35423 0.93672 0.51111 0.0
O332 O 0.43168 0.93828 0.5027 0.0
C333 C 0.26183 0.94659 0.56237 0.0
O334 O 0.26099 0.94768 0.53374 0.0
C335 C 0.41346 0.91272 0.5699 0.0
Zn336 Zn 0.70704 0.54535 0.28837 0.0
Zn337 Zn 0.61408 0.54449 0.30202 0.0
O338 O 0.64375 0.52724 0.30892 0.0
O339 O 0.72162 0.52858 0.30784 0.0
O340 O 0.54948 0.54256 0.32085 0.0
O341 O 0.71468 0.56243 0.30775 0.0
O342 O 0.63949 0.56066 0.32074 0.0
C343 C 0.68431 0.52198 0.31112 0.0
C344 C 0.63906 0.54584 0.23891 0.0
O345 O 0.60614 0.54672 0.25804 0.0
O346 O 0.68235 0.5447 0.24634 0.0
C347 C 0.51096 0.53914 0.30861 0.0
O348 O 0.51067 0.53685 0.28035 0.0
C349 C 0.67831 0.56688 0.32053 0.0
Zn350 Zn 0.55532 0.67862 0.28462 0.0
Zn351 Zn 0.64648 0.68315 0.29527 0.0
O352 O 0.60675 0.69866 0.30456 0.0
O353 O 0.53109 0.6937 0.30749 0.0
O354 O 0.70943 0.68682 0.31382 0.0
O355 O 0.559 0.66066 0.30025 0.0
O356 O 0.6326 0.66559 0.31175 0.0
C357 C 0.56378 0.70195 0.30891 0.0
C358 C 0.61906 0.68415 0.23383 0.0
O359 O 0.65427 0.6832 0.2512 0.0
O360 O 0.57664 0.68292 0.24305 0.0
C361 C 0.72854 0.69765 0.31683 0.0
O362 O 0.70844 0.70763 0.30494 0.0
C363 C 0.59847 0.65768 0.31163 0.0
Zn364 Zn 0.69351 0.68101 0.96618 0.0
Zn365 Zn 0.6024 0.68573 0.95625 0.0
O366 O 0.64104 0.70098 0.94212 0.0
O367 O 0.71613 0.69531 0.94031 0.0
O368 O 0.53611 0.68873 0.94113 0.0
O369 O 0.68777 0.6628 0.9528 0.0
O370 O 0.61469 0.6679 0.94034 0.0
C371 C 0.68434 0.70365 0.93645 0.0
C372 C 0.63531 0.68736 0.01778 0.0
O373 O 0.59954 0.68647 1.00079 0.0
O374 O 0.67729 0.68591 0.00807 0.0
C375 C 0.51823 0.69941 0.93446 0.0
O376 O 0.54264 0.70979 0.93956 0.0
C377 C 0.6483 0.65984 0.94137 0.0
Zn378 Zn 0.53413 0.54849 0.96691 0.0
Zn379 Zn 0.62895 0.54748 0.96003 0.0
O380 O 0.60007 0.53018 0.95396 0.0
O381 O 0.52245 0.53108 0.9498 0.0
O382 O 0.69628 0.54568 0.94517 0.0
O383 O 0.52838 0.56486 0.94446 0.0
O384 O 0.60592 0.56331 0.93867 0.0
C385 C 0.56037 0.52462 0.9505 0.0
C386 C 0.5939 0.54971 0.02092 0.0
O387 O 0.63017 0.55001 0.00408 0.0
O388 O 0.55223 0.54899 0.01025 0.0
C389 C 0.71765 0.53513 0.94208 0.0
O390 O 0.69706 0.52469 0.95135 0.0
C391 C 0.56712 0.56925 0.93455 0.0
Zn392 Zn 0.31148 0.43258 0.70886 0.0
Zn393 Zn 0.40224 0.43724 0.70699 0.0
O394 O 0.36045 0.45293 0.70802 0.0
O395 O 0.28634 0.44944 0.69583 0.0
O396 O 0.46372 0.44352 0.68979 0.0
O397 O 0.31243 0.41758 0.68219 0.0
O398 O 0.38954 0.42089 0.6839 0.0
C399 C 0.31851 0.45705 0.70379 0.0
C400 C 0.36974 0.43214 0.7653 0.0
O401 O 0.4077 0.43341 0.75017 0.0
O402 O 0.3294 0.43149 0.7527 0.0
C403 C 0.50473 0.439 0.69492 0.0
O404 O 0.50938 0.43009 0.71479 0.0
C405 C 0.35423 0.41431 0.6753 0.0
Zn406 Zn 0.42895 0.3076 0.72416 0.0
Zn407 Zn 0.34671 0.2976 0.71483 0.0
O408 O 0.39809 0.28422 0.7053 0.0
O409 O 0.46575 0.2946 0.7029 0.0
O410 O 0.28399 0.29072 0.69953 0.0
O411 O 0.41689 0.32403 0.70509 0.0
O412 O 0.34773 0.31527 0.69478 0.0
C413 C 0.44304 0.2843 0.70113 0.0
C414 C 0.3766 0.30022 0.777 0.0
O415 O 0.34194 0.29805 0.7597 0.0
O416 O 0.41603 0.30421 0.76704 0.0
C417 C 0.27935 0.28127 0.68245 0.0
O418 O 0.31698 0.27446 0.67576 0.0
C419 C 0.37685 0.32449 0.69272 0.0
Zn420 Zn 0.29517 0.29851 0.04124 0.0
Zn421 Zn 0.37917 0.29191 0.05693 0.0
O422 O 0.32995 0.27758 0.06247 0.0
O423 O 0.26693 0.28833 0.07406 0.0
O424 O 0.43949 0.28651 0.07782 0.0
O425 O 0.30598 0.31664 0.04814 0.0
O426 O 0.36951 0.31019 0.07184 0.0
C427 C 0.28595 0.27774 0.06916 0.0
C428 C 0.35823 0.29063 0.99416 0.0
O429 O 0.39115 0.29246 0.01287 0.0
O430 O 0.3148 0.29098 0.00179 0.0
C431 C 0.4806 0.28675 0.06609 0.0
O432 O 0.48458 0.28981 0.03834 0.0
C433 C 0.34112 0.31904 0.0644 0.0
Zn434 Zn 0.44761 0.43245 0.02919 0.0
Zn435 Zn 0.3641 0.43597 0.04695 0.0
O436 O 0.40526 0.45158 0.0557 0.0
O437 O 0.46896 0.44105 0.06633 0.0
O438 O 0.29974 0.43873 0.06612 0.0
O439 O 0.44063 0.41382 0.03042 0.0
O440 O 0.38492 0.4185 0.06252 0.0
C441 C 0.44851 0.45161 0.06386 0.0
C442 C 0.38486 0.43968 0.98419 0.0
O443 O 0.3545 0.43534 0.00244 0.0
O444 O 0.42721 0.44185 0.9923 0.0
C445 C 0.27392 0.44857 0.06376 0.0
O446 O 0.28879 0.45802 0.0474 0.0
C447 C 0.41262 0.41043 0.0506 0.0
C448 C 0.0847 0.04237 0.06444 0.0
C449 C 0.11945 0.04921 0.04892 0.0
C450 C 0.08749 0.04093 0.09484 0.0
C451 C 0.12528 0.04676 0.11015 0.0
C452 C 0.16156 0.05323 0.09446 0.0
C453 C 0.15849 0.05425 0.06389 0.0
C454 C 0.04929 0.03347 0.11056 0.0
C455 C 0.20269 0.05945 0.1101 0.0
C456 C 0.10534 0.05754 0.18841 0.0
C457 C 0.13378 0.04897 0.20371 0.0
C458 C 0.10137 0.05673 0.15785 0.0
C459 C 0.12535 0.0469 0.14263 0.0
C460 C 0.1515 0.03772 0.15838 0.0
C461 C 0.15597 0.03898 0.18876 0.0
C462 C 0.07333 0.06673 0.14172 0.0
C463 C 0.17536 0.0267 0.14316 0.0
H464 H 0.05511 0.03814 0.05275 0.0
H465 H 0.18561 0.05939 0.05184 0.0
H466 H 0.06547 0.02668 0.12617 0.0
H467 H 0.02652 0.04002 0.12343 0.0
H468 H 0.02623 0.02813 0.09515 0.0
H469 H 0.22855 0.06382 0.09469 0.0
H470 H 0.18902 0.06691 0.12504 0.0
H471 H 0.22175 0.0524 0.12373 0.0
H472 H 0.08823 0.06523 0.20014 0.0
H473 H 0.17723 0.0322 0.2009 0.0
H474 H 0.0454 0.06222 0.12811 0.0
H475 H 0.09734 0.07201 0.12672 0.0
H476 H 0.05607 0.07359 0.15681 0.0
H477 H 0.14834 0.02099 0.13138 0.0
H478 H 0.19449 0.02042 0.15871 0.0
H479 H 0.20112 0.03021 0.1266 0.0
C480 C 0.11343 0.18144 0.06501 0.0
C481 C 0.1495 0.18749 0.04915 0.0
C482 C 0.11118 0.18251 0.09557 0.0
C483 C 0.14506 0.1901 0.11043 0.0
C484 C 0.18063 0.19659 0.09438 0.0
C485 C 0.18286 0.19504 0.06394 0.0
C486 C 0.07286 0.17539 0.11199 0.0
C487 C 0.21624 0.20515 0.10927 0.0
C488 C 0.10349 0.19906 0.18637 0.0
C489 C 0.12693 0.19001 0.20345 0.0
C490 C 0.11196 0.19988 0.15621 0.0
C491 C 0.14312 0.19107 0.14283 0.0
C492 C 0.16859 0.18229 0.16031 0.0
C493 C 0.16063 0.18199 0.19065 0.0
C494 C 0.08574 0.20974 0.13856 0.0
C495 C 0.20172 0.17267 0.14677 0.0
H496 H 0.08756 0.17565 0.05357 0.0
H497 H 0.21029 0.19995 0.05161 0.0
H498 H 0.08933 0.169 0.12838 0.0
H499 H 0.04985 0.18215 0.12407 0.0
H500 H 0.05005 0.16965 0.09723 0.0
H501 H 0.23799 0.21061 0.09332 0.0
H502 H 0.19772 0.21191 0.12399 0.0
H503 H 0.24056 0.1994 0.123 0.0
H504 H 0.07769 0.20532 0.19656 0.0
H505 H 0.17846 0.17498 0.20405 0.0
H506 H 0.05713 0.20512 0.1257 0.0
H507 H 0.11019 0.21444 0.12283 0.0
H508 H 0.06926 0.2171 0.15272 0.0
H509 H 0.18089 0.16604 0.13293 0.0
H510 H 0.22118 0.16709 0.16352 0.0
H511 H 0.22805 0.17742 0.13236 0.0
C512 C 0.83108 0.94063 0.94302 0.0
C513 C 0.8738 0.93651 0.95571 0.0
C514 C 0.82703 0.94192 0.91249 0.0
C515 C 0.8666 0.93903 0.8944 0.0
C516 C 0.91032 0.93543 0.9072 0.0
C517 C 0.91334 0.93419 0.93762 0.0
C518 C 0.78007 0.94601 0.89955 0.0
C519 C 0.9535 0.93239 0.8887 0.0
C520 C 0.84353 0.92579 0.81876 0.0
C521 C 0.85656 0.93595 0.80087 0.0
C522 C 0.84647 0.92674 0.84925 0.0
C523 C 0.86121 0.9383 0.86211 0.0
C524 C 0.87331 0.94874 0.84405 0.0
C525 C 0.87146 0.94738 0.81348 0.0
C526 C 0.8344 0.9153 0.86769 0.0
C527 C 0.88762 0.96134 0.85699 0.0
H528 H 0.80061 0.94263 0.95686 0.0
H529 H 0.94687 0.93127 0.9472 0.0
H530 H 0.78559 0.95393 0.88396 0.0
H531 H 0.76422 0.93804 0.88708 0.0
H532 H 0.75423 0.94905 0.9166 0.0
H533 H 0.98568 0.93055 0.90215 0.0
H534 H 0.94622 0.92389 0.87515 0.0
H535 H 0.96134 0.94033 0.87353 0.0
H536 H 0.83154 0.91702 0.8088 0.0
H537 H 0.88024 0.95533 0.79944 0.0
H538 H 0.8053 0.91763 0.88323 0.0
H539 H 0.86586 0.91249 0.88085 0.0
H540 H 0.82318 0.90705 0.85425 0.0
H541 H 0.85829 0.96506 0.87085 0.0
H542 H 0.89611 0.96849 0.83991 0.0
H543 H 0.91913 0.96016 0.87133 0.0
C544 C 0.83735 0.80429 0.92186 0.0
C545 C 0.86642 0.79868 0.94318 0.0
C546 C 0.84804 0.80329 0.89217 0.0
C547 C 0.88918 0.79659 0.88335 0.0
C548 C 0.91888 0.79084 0.90454 0.0
C549 C 0.90719 0.79198 0.93437 0.0
C550 C 0.81513 0.80945 0.87021 0.0
C551 C 0.96268 0.78349 0.89565 0.0
C552 C 0.88156 0.78843 0.80328 0.0
C553 C 0.90566 0.79873 0.7907 0.0
C554 C 0.87948 0.78695 0.8337 0.0
C555 C 0.90105 0.79617 0.85182 0.0
C556 C 0.92712 0.80627 0.8392 0.0
C557 C 0.92944 0.80738 0.8087 0.0
C558 C 0.85238 0.77586 0.84641 0.0
C559 C 0.95013 0.81635 0.8579 0.0
H560 H 0.80571 0.80946 0.92831 0.0
H561 H 0.92951 0.7875 0.95068 0.0
H562 H 0.835 0.81657 0.85714 0.0
H563 H 0.80124 0.80223 0.85478 0.0
H564 H 0.78433 0.81422 0.88079 0.0
H565 H 0.98079 0.77909 0.9147 0.0
H566 H 0.95299 0.77592 0.87989 0.0
H567 H 0.98824 0.78986 0.88439 0.0
H568 H 0.86438 0.78149 0.78935 0.0
H569 H 0.94861 0.81525 0.79897 0.0
H570 H 0.81954 0.77931 0.85737 0.0
H571 H 0.87414 0.771 0.86323 0.0
H572 H 0.84212 0.76885 0.82941 0.0
H573 H 0.9221 0.82195 0.86916 0.0
H574 H 0.97257 0.82293 0.84484 0.0
H575 H 0.9725 0.81193 0.87506 0.0
C576 C 0.09961 0.5468 0.69403 0.0
C577 C 0.12791 0.53869 0.71075 0.0
C578 C 0.10268 0.54665 0.66338 0.0
C579 C 0.13417 0.53804 0.64941 0.0
C580 C 0.15883 0.52893 0.66625 0.0
C581 C 0.15596 0.52951 0.69682 0.0
C582 C 0.07498 0.55635 0.6461 0.0
C583 C 0.19066 0.51902 0.65266 0.0
C584 C 0.12066 0.53734 0.56727 0.0
C585 C 0.15167 0.54713 0.55907 0.0
C586 C 0.11674 0.53357 0.59654 0.0
C587 C 0.14495 0.53969 0.61784 0.0
C588 C 0.18 0.54862 0.60907 0.0
C589 C 0.18232 0.55246 0.57968 0.0
C590 C 0.07995 0.52378 0.6049 0.0
C591 C 0.21272 0.55473 0.63108 0.0
H592 H 0.07802 0.55391 0.7049 0.0
H593 H 0.17736 0.5231 0.70988 0.0
H594 H 0.09997 0.56342 0.63667 0.0
H595 H 0.05612 0.55175 0.62763 0.0
H596 H 0.04849 0.56144 0.65983 0.0
H597 H 0.18279 0.50963 0.66252 0.0
H598 H 0.18658 0.51822 0.62862 0.0
H599 H 0.22837 0.52131 0.65769 0.0
H600 H 0.09672 0.53334 0.55111 0.0
H601 H 0.20601 0.56007 0.57317 0.0
H602 H 0.05015 0.52847 0.61665 0.0
H603 H 0.09559 0.51666 0.61995 0.0
H604 H 0.06526 0.51881 0.58548 0.0
H605 H 0.19184 0.5611 0.64554 0.0
H606 H 0.24136 0.56035 0.6204 0.0
H607 H 0.22934 0.54738 0.64511 0.0
C608 C 0.08579 0.69848 0.68277 0.0
C609 C 0.11692 0.69139 0.70024 0.0
C610 C 0.09194 0.69911 0.65237 0.0
C611 C 0.12915 0.69212 0.63911 0.0
C612 C 0.16187 0.68537 0.65682 0.0
C613 C 0.15574 0.68524 0.68733 0.0
C614 C 0.05746 0.70687 0.63446 0.0
C615 C 0.20183 0.67774 0.64345 0.0
C616 C 0.11057 0.68061 0.56115 0.0
C617 C 0.14187 0.68846 0.54569 0.0
C618 C 0.10603 0.68173 0.59166 0.0
C619 C 0.13223 0.69119 0.60671 0.0
C620 C 0.16217 0.69952 0.59088 0.0
C621 C 0.16724 0.69791 0.56061 0.0
C622 C 0.07399 0.67262 0.60789 0.0
C623 C 0.18876 0.71014 0.60585 0.0
H624 H 0.05607 0.70339 0.69288 0.0
H625 H 0.17968 0.67974 0.70089 0.0
H626 H 0.0765 0.71234 0.61733 0.0
H627 H 0.03205 0.70045 0.62327 0.0
H628 H 0.03672 0.71356 0.64827 0.0
H629 H 0.22522 0.67341 0.66027 0.0
H630 H 0.18672 0.67006 0.62968 0.0
H631 H 0.22391 0.68381 0.62899 0.0
H632 H 0.09079 0.67338 0.5495 0.0
H633 H 0.19063 0.70419 0.54845 0.0
H634 H 0.04571 0.67792 0.61962 0.0
H635 H 0.09488 0.66739 0.62457 0.0
H636 H 0.05684 0.66565 0.59304 0.0
H637 H 0.16354 0.71612 0.61849 0.0
H638 H 0.20822 0.71626 0.59006 0.0
H639 H 0.21474 0.70617 0.62162 0.0
C640 C 0.93412 0.42991 0.42162 0.0
C641 C 0.89221 0.42902 0.43833 0.0
C642 C 0.93252 0.43264 0.39165 0.0
C643 C 0.88794 0.43431 0.37791 0.0
C644 C 0.84539 0.433 0.39434 0.0
C645 C 0.84804 0.43043 0.42443 0.0
C646 C 0.97861 0.43409 0.37486 0.0
C647 C 0.79712 0.4345 0.38023 0.0
C648 C 0.87753 0.45228 0.30621 0.0
C649 C 0.87741 0.4423 0.28613 0.0
C650 C 0.88299 0.44987 0.33624 0.0
C651 C 0.88586 0.43716 0.34616 0.0
C652 C 0.88582 0.42709 0.32575 0.0
C653 C 0.88248 0.42981 0.29588 0.0
C654 C 0.88435 0.46087 0.35734 0.0
C655 C 0.88684 0.41341 0.3355 0.0
H656 H 0.96847 0.4289 0.43213 0.0
H657 H 0.8155 0.42981 0.43716 0.0
H658 H 0.97981 0.42725 0.35645 0.0
H659 H 0.98072 0.44374 0.36529 0.0
H660 H 0.01039 0.43254 0.38885 0.0
H661 H 0.76749 0.43258 0.39576 0.0
H662 H 0.79312 0.44428 0.3717 0.0
H663 H 0.79383 0.42795 0.36134 0.0
H664 H 0.87254 0.46191 0.29846 0.0
H665 H 0.88078 0.42211 0.28019 0.0
H666 H 0.91553 0.46 0.37208 0.0
H667 H 0.85195 0.46078 0.37125 0.0
H668 H 0.88628 0.47014 0.34587 0.0
H669 H 0.91881 0.41159 0.34906 0.0
H670 H 0.88697 0.40671 0.31674 0.0
H671 H 0.85519 0.41138 0.34932 0.0
C672 C 0.91618 0.30303 0.31165 0.0
C673 C 0.90686 0.29219 0.29503 0.0
C674 C 0.90915 0.30307 0.34194 0.0
C675 C 0.89389 0.29184 0.35607 0.0
C676 C 0.88454 0.28079 0.33932 0.0
C677 C 0.89053 0.28116 0.30873 0.0
C678 C 0.91781 0.31517 0.35879 0.0
C679 C 0.86905 0.26859 0.35369 0.0
C680 C 0.9224 0.29176 0.4372 0.0
C681 C 0.87931 0.29601 0.44923 0.0
C682 C 0.92701 0.28972 0.40693 0.0
C683 C 0.88754 0.29193 0.38836 0.0
C684 C 0.84347 0.29574 0.40053 0.0
C685 C 0.83997 0.2978 0.43074 0.0
C686 C 0.97449 0.28559 0.39469 0.0
C687 C 0.80039 0.29807 0.38154 0.0
H688 H 0.92825 0.31159 0.30077 0.0
H689 H 0.88347 0.2728 0.29564 0.0
H690 H 0.88504 0.31794 0.37081 0.0
H691 H 0.94622 0.31367 0.37525 0.0
H692 H 0.92848 0.32315 0.34433 0.0
H693 H 0.85879 0.26126 0.33742 0.0
H694 H 0.89868 0.26483 0.36716 0.0
H695 H 0.8385 0.27028 0.36861 0.0
H696 H 0.95275 0.29019 0.45136 0.0
H697 H 0.80617 0.30082 0.43988 0.0
H698 H 0.98982 0.29332 0.38115 0.0
H699 H 0.96985 0.27723 0.38023 0.0
H700 H 0.00035 0.28316 0.41217 0.0
H701 H 0.80661 0.30656 0.36772 0.0
H702 H 0.76756 0.29962 0.39466 0.0
H703 H 0.79438 0.28994 0.36661 0.0
C704 C 0.60444 0.05221 0.68824 0.0
C705 C 0.64551 0.04794 0.70246 0.0
C706 C 0.59972 0.051 0.65779 0.0
C707 C 0.63644 0.0451 0.64139 0.0
C708 C 0.67677 0.04014 0.65591 0.0
C709 C 0.68115 0.04179 0.68622 0.0
C710 C 0.5562 0.05642 0.64304 0.0
C711 C 0.71561 0.03328 0.63939 0.0
C712 C 0.60223 0.03588 0.56401 0.0
C713 C 0.62163 0.04594 0.54789 0.0
C714 C 0.60895 0.03508 0.59435 0.0
C715 C 0.6339 0.04487 0.60892 0.0
C716 C 0.65451 0.05489 0.59253 0.0
C717 C 0.64881 0.05518 0.56204 0.0
C718 C 0.58833 0.02393 0.61078 0.0
C719 C 0.68081 0.06559 0.60732 0.0
H720 H 0.57672 0.05687 0.7008 0.0
H721 H 0.7125 0.0382 0.69727 0.0
H722 H 0.56708 0.06386 0.62723 0.0
H723 H 0.53756 0.04892 0.63049 0.0
H724 H 0.5307 0.06061 0.65894 0.0
H725 H 0.74189 0.0288 0.6543 0.0
H726 H 0.70001 0.02583 0.6252 0.0
H727 H 0.73474 0.04002 0.62494 0.0
H728 H 0.58169 0.02865 0.55283 0.0
H729 H 0.66362 0.06295 0.54942 0.0
H730 H 0.5565 0.02702 0.62329 0.0
H731 H 0.61446 0.02015 0.62673 0.0
H732 H 0.57753 0.01615 0.5958 0.0
H733 H 0.65649 0.07057 0.62267 0.0
H734 H 0.69508 0.0726 0.59141 0.0
H735 H 0.71084 0.06181 0.62039 0.0
C736 C 0.59531 0.19314 0.68358 0.0
C737 C 0.62202 0.18466 0.7005 0.0
C738 C 0.60123 0.19373 0.65321 0.0
C739 C 0.63343 0.18532 0.63945 0.0
C740 C 0.66178 0.17706 0.65659 0.0
C741 C 0.65619 0.17697 0.6871 0.0
C742 C 0.57179 0.20306 0.63589 0.0
C743 C 0.69638 0.16794 0.64259 0.0
C744 C 0.60478 0.17525 0.56187 0.0
C745 C 0.63954 0.18179 0.54597 0.0
C746 C 0.60253 0.17631 0.59242 0.0
C747 C 0.63486 0.18442 0.6071 0.0
C748 C 0.66883 0.19144 0.59094 0.0
C749 C 0.6713 0.18986 0.56055 0.0
C750 C 0.56597 0.16864 0.60902 0.0
C751 C 0.70219 0.20067 0.60567 0.0
H752 H 0.56962 0.19932 0.69415 0.0
H753 H 0.677 0.1705 0.70033 0.0
H754 H 0.59344 0.20762 0.61849 0.0
H755 H 0.54202 0.19798 0.6251 0.0
H756 H 0.55644 0.21058 0.65008 0.0
H757 H 0.71704 0.1625 0.65906 0.0
H758 H 0.67662 0.16115 0.62858 0.0
H759 H 0.72167 0.17312 0.62826 0.0
H760 H 0.58008 0.16909 0.55047 0.0
H761 H 0.69744 0.19517 0.54805 0.0
H762 H 0.54153 0.17506 0.62102 0.0
H763 H 0.58393 0.16258 0.62549 0.0
H764 H 0.54445 0.1625 0.59438 0.0
H765 H 0.6815 0.20761 0.61879 0.0
H766 H 0.72454 0.20595 0.58969 0.0
H767 H 0.72596 0.19555 0.62098 0.0
C768 C 0.38183 0.94949 0.44607 0.0
C769 C 0.38157 0.9381 0.46173 0.0
C770 C 0.38018 0.94946 0.41532 0.0
C771 C 0.37958 0.93773 0.40016 0.0
C772 C 0.37979 0.92622 0.41614 0.0
C773 C 0.38051 0.92656 0.44678 0.0
C774 C 0.3796 0.96193 0.39914 0.0
C775 C 0.37978 0.91354 0.40084 0.0
C776 C 0.32916 0.93424 0.32389 0.0
C777 C 0.3705 0.93342 0.30665 0.0
C778 C 0.3317 0.93628 0.35411 0.0
C779 C 0.37673 0.93732 0.36767 0.0
C780 C 0.41868 0.93683 0.35038 0.0
C781 C 0.41506 0.93499 0.31996 0.0
C782 C 0.28611 0.93708 0.37163 0.0
C783 C 0.46735 0.93789 0.36412 0.0
H784 H 0.38385 0.95839 0.45787 0.0
H785 H 0.38151 0.91779 0.45913 0.0
H786 H 0.4133 0.96309 0.38672 0.0
H787 H 0.35005 0.9621 0.38306 0.0
H788 H 0.37562 0.97013 0.41418 0.0
H789 H 0.38183 0.90549 0.41646 0.0
H790 H 0.34688 0.91249 0.38766 0.0
H791 H 0.41046 0.91294 0.38555 0.0
H792 H 0.29448 0.93334 0.31372 0.0
H793 H 0.44708 0.93453 0.30672 0.0
H794 H 0.28594 0.9458 0.38517 0.0
H795 H 0.28371 0.92889 0.38678 0.0
H796 H 0.25398 0.9371 0.35749 0.0
H797 H 0.4699 0.94672 0.37716 0.0
H798 H 0.49635 0.93787 0.34755 0.0
H799 H 0.47302 0.92984 0.37935 0.0
C800 C 0.40141 0.7801 0.44653 0.0
C801 C 0.37265 0.78889 0.46123 0.0
C802 C 0.39954 0.77901 0.41591 0.0
C803 C 0.36908 0.78713 0.39985 0.0
C804 C 0.33937 0.79582 0.41473 0.0
C805 C 0.34116 0.79649 0.44525 0.0
C806 C 0.43093 0.76944 0.40068 0.0
C807 C 0.30729 0.80486 0.39835 0.0
C808 C 0.40408 0.79737 0.32378 0.0
C809 C 0.37058 0.791 0.30648 0.0
C810 C 0.40479 0.79586 0.3541 0.0
C811 C 0.37165 0.7876 0.3675 0.0
C812 C 0.33862 0.7808 0.35012 0.0
C813 C 0.33806 0.7827 0.31968 0.0
C814 C 0.44004 0.80348 0.37183 0.0
C815 C 0.30366 0.77166 0.36376 0.0
H816 H 0.42532 0.7741 0.45893 0.0
H817 H 0.31891 0.80332 0.45654 0.0
H818 H 0.40959 0.76367 0.3852 0.0
H819 H 0.45863 0.77441 0.38768 0.0
H820 H 0.44886 0.76299 0.4164 0.0
H821 H 0.28508 0.81071 0.41329 0.0
H822 H 0.32921 0.81131 0.38463 0.0
H823 H 0.2834 0.79955 0.38346 0.0
H824 H 0.42942 0.80377 0.31362 0.0
H825 H 0.31273 0.7776 0.30623 0.0
H826 H 0.46179 0.79712 0.38571 0.0
H827 H 0.42063 0.81003 0.38664 0.0
H828 H 0.46443 0.80916 0.35783 0.0
H829 H 0.32255 0.76494 0.37838 0.0
H830 H 0.28373 0.76617 0.34706 0.0
H831 H 0.27771 0.77694 0.37744 0.0
C832 C 0.64496 0.55044 0.06589 0.0
C833 C 0.59977 0.54936 0.05312 0.0
C834 C 0.65068 0.54961 0.09635 0.0
C835 C 0.6103 0.54759 0.1144 0.0
C836 C 0.5647 0.54639 0.10164 0.0
C837 C 0.55996 0.54735 0.07121 0.0
C838 C 0.69989 0.55094 0.10924 0.0
C839 C 0.52092 0.54402 0.12013 0.0
C840 C 0.63194 0.53502 0.19106 0.0
C841 C 0.62758 0.54609 0.2077 0.0
C842 C 0.62533 0.53529 0.16065 0.0
C843 C 0.61555 0.54699 0.1467 0.0
C844 C 0.61101 0.55818 0.16362 0.0
C845 C 0.61665 0.55757 0.19407 0.0
C846 C 0.62937 0.52312 0.14346 0.0
C847 C 0.60135 0.57085 0.14946 0.0
H848 H 0.67592 0.5519 0.05209 0.0
H849 H 0.52491 0.54636 0.06158 0.0
H850 H 0.7006 0.55897 0.12491 0.0
H851 H 0.70926 0.54226 0.12164 0.0
H852 H 0.72755 0.55257 0.09223 0.0
H853 H 0.48814 0.54306 0.10674 0.0
H854 H 0.5256 0.53524 0.13316 0.0
H855 H 0.51582 0.55192 0.13582 0.0
H856 H 0.64083 0.52619 0.20188 0.0
H857 H 0.61409 0.56611 0.20716 0.0
H858 H 0.65956 0.52376 0.12784 0.0
H859 H 0.5966 0.52157 0.13041 0.0
H860 H 0.635 0.51476 0.15782 0.0
H861 H 0.63014 0.57311 0.13362 0.0
H862 H 0.59899 0.57865 0.16572 0.0
H863 H 0.56751 0.57046 0.13702 0.0
C864 C 0.65875 0.68083 0.18571 0.0
C865 C 0.62632 0.6875 0.20301 0.0
C866 C 0.66047 0.68284 0.15539 0.0
C867 C 0.63009 0.69201 0.14252 0.0
C868 C 0.60038 0.69955 0.16046 0.0
C869 C 0.59809 0.697 0.19049 0.0
C870 C 0.69268 0.67462 0.13693 0.0
C871 C 0.56933 0.70991 0.14804 0.0
C872 C 0.6609 0.6982 0.06328 0.0
C873 C 0.6289 0.69008 0.04906 0.0
C874 C 0.6592 0.69979 0.0937 0.0
C875 C 0.62607 0.69265 0.1102 0.0
C876 C 0.59189 0.68501 0.09572 0.0
C877 C 0.59329 0.68397 0.06514 0.0
C878 C 0.69402 0.70871 0.10815 0.0
C879 C 0.55564 0.67737 0.11263 0.0
H880 H 0.68066 0.67355 0.19563 0.0
H881 H 0.57368 0.70234 0.20419 0.0
H882 H 0.67085 0.6688 0.1218 0.0
H883 H 0.7165 0.6806 0.12335 0.0
H884 H 0.71497 0.66818 0.1504 0.0
H885 H 0.56096 0.7172 0.16483 0.0
H886 H 0.58654 0.71462 0.12905 0.0
H887 H 0.5352 0.70575 0.14052 0.0
H888 H 0.68776 0.70317 0.05061 0.0
H889 H 0.5684 0.67778 0.05399 0.0
H890 H 0.72304 0.70317 0.11847 0.0
H891 H 0.67623 0.71426 0.12566 0.0
H892 H 0.71024 0.71538 0.09216 0.0
H893 H 0.57415 0.67048 0.12701 0.0
H894 H 0.53102 0.67209 0.09805 0.0
H895 H 0.53426 0.68369 0.12691 0.0
C896 C 0.32928 0.43689 0.8126 0.0
C897 C 0.37085 0.43326 0.79762 0.0
C898 C 0.32946 0.43903 0.84284 0.0
C899 C 0.37193 0.43715 0.85878 0.0
C900 C 0.41413 0.43351 0.84388 0.0
C901 C 0.41323 0.43175 0.81337 0.0
C902 C 0.28423 0.4434 0.85768 0.0
C903 C 0.46005 0.43134 0.86024 0.0
C904 C 0.38713 0.45037 0.93564 0.0
C905 C 0.37463 0.43986 0.9527 0.0
C906 C 0.38447 0.44985 0.90497 0.0
C907 C 0.37142 0.43832 0.89123 0.0
C908 C 0.35832 0.42773 0.90854 0.0
C909 C 0.3592 0.42872 0.93912 0.0
C910 C 0.39675 0.46151 0.88736 0.0
C911 C 0.34538 0.41519 0.89477 0.0
H912 H 0.29658 0.43842 0.80054 0.0
H913 H 0.44555 0.42911 0.8019 0.0
H914 H 0.27217 0.43617 0.87369 0.0
H915 H 0.29101 0.45227 0.87003 0.0
H916 H 0.25498 0.44514 0.84186 0.0
H917 H 0.48962 0.42845 0.8455 0.0
H918 H 0.47069 0.44011 0.87189 0.0
H919 H 0.45482 0.42386 0.87702 0.0
H920 H 0.39949 0.45894 0.94631 0.0
H921 H 0.3506 0.42052 0.95244 0.0
H922 H 0.36959 0.46319 0.87018 0.0
H923 H 0.43142 0.46011 0.87617 0.0
H924 H 0.39936 0.47011 0.9013 0.0
H925 H 0.31432 0.41637 0.88007 0.0
H926 H 0.33664 0.40784 0.91134 0.0
H927 H 0.37552 0.41174 0.88119 0.0
C928 C 0.41485 0.29321 0.82315 0.0
C929 C 0.37347 0.29704 0.80842 0.0
C930 C 0.41405 0.29041 0.85308 0.0
C931 C 0.37111 0.29182 0.8689 0.0
C932 C 0.32872 0.29518 0.85398 0.0
C933 C 0.33028 0.29763 0.82373 0.0
C934 C 0.45936 0.28617 0.86788 0.0
C935 C 0.28215 0.2966 0.87018 0.0
C936 C 0.3584 0.27928 0.94658 0.0
C937 C 0.36899 0.29014 0.96284 0.0
C938 C 0.36062 0.27947 0.91588 0.0
C939 C 0.37175 0.29097 0.90136 0.0
C940 C 0.38331 0.30189 0.91794 0.0
C941 C 0.38235 0.30129 0.94856 0.0
C942 C 0.34926 0.26748 0.89931 0.0
C943 C 0.39474 0.31438 0.90335 0.0
H944 H 0.44809 0.29235 0.81119 0.0
H945 H 0.29816 0.3004 0.81229 0.0
H946 H 0.4714 0.29355 0.88349 0.0
H947 H 0.45276 0.27739 0.88064 0.0
H948 H 0.48854 0.28435 0.85198 0.0
H949 H 0.25215 0.29892 0.85532 0.0
H950 H 0.27358 0.28769 0.88197 0.0
H951 H 0.28535 0.30421 0.88682 0.0
H952 H 0.34768 0.27071 0.95789 0.0
H953 H 0.38952 0.30973 0.96136 0.0
H954 H 0.36907 0.2669 0.87832 0.0
H955 H 0.31059 0.26725 0.89438 0.0
H956 H 0.35774 0.25895 0.91256 0.0
H957 H 0.42601 0.31329 0.8887 0.0
H958 H 0.40252 0.32199 0.91943 0.0
H959 H 0.36424 0.3174 0.88961 0.0
C960 C 0.28795 0.97323 0.20534 0.0
C961 C 0.27049 0.96116 0.21205 0.0
C962 C 0.27012 0.98396 0.21991 0.0
C963 C 0.23629 0.98237 0.24272 0.0
C964 C 0.21736 0.97026 0.24874 0.0
C965 C 0.2338 0.95986 0.23279 0.0
C966 C 0.2889 -0.00311 0.2118 0.0
C967 C 0.18255 0.9681 0.27354 0.0
C968 C 0.23971 0.00807 0.30068 0.0
C969 C 0.1993 0.01514 0.2934 0.0
C970 C 0.25089 -0.00304 0.28523 0.0
C971 C 0.22219 -0.00673 0.26118 0.0
C972 C 0.18048 0.00012 0.25447 0.0
C973 C 0.16897 0.01079 0.27111 0.0
C974 C 0.29436 0.98944 0.2939 0.0
C975 C 0.14988 -0.00322 0.2284 0.0
H976 H 0.31648 0.97422 0.18949 0.0
H977 H 0.22078 0.95051 0.23855 0.0
H978 H 0.25903 0.00367 0.2091 0.0
H979 H 0.31191 0.00053 0.22962 0.0
H980 H 0.31006 -0.00333 0.19124 0.0
H981 H 0.16919 0.95819 0.27422 0.0
H982 H 0.2003 0.97021 0.29467 0.0
H983 H 0.15163 0.97457 0.27168 0.0
H984 H 0.26329 0.01146 0.31772 0.0
H985 H 0.1381 0.01634 0.2649 0.0
H986 H 0.32212 0.99035 0.27673 0.0
H987 H 0.28533 0.97923 0.29582 0.0
H988 H 0.30955 -0.00728 0.315 0.0
H989 H 0.17034 -0.00148 0.20798 0.0
H990 H 0.11664 0.00248 0.22759 0.0
H991 H 0.14017 0.9866 0.22868 0.0
C992 C 0.00386 0.26999 0.22535 0.0
C993 C 0.95946 0.27122 0.21154 0.0
C994 C 0.01105 0.26098 0.24739 0.0
C995 C 0.97311 0.2529 0.25558 0.0
C996 C 0.9271 0.25498 0.244 0.0
C997 C 0.92091 0.26403 0.22185 0.0
C998 C 0.06058 0.25921 0.25949 0.0
C999 C 0.88539 0.24682 0.25289 0.0
C1000 C 0.00943 0.21873 0.26308 0.0
C1001 C 0.01149 0.21713 0.2934 0.0
C1002 C 0.99642 0.23028 0.25078 0.0
C1003 C 0.98425 0.24052 0.26936 0.0
C1004 C 0.98495 0.23889 0.3002 0.0
C1005 C -0.00064 0.22715 0.312 0.0
C1006 C 0.99715 0.23158 0.2178 0.0
C1007 C 0.97175 0.24956 0.3206 0.0
H1008 H 0.03387 0.27562 0.21796 0.0
H1009 H 0.88634 0.26502 0.21173 0.0
H1010 H 0.0594 0.25725 0.28331 0.0
H1011 H 0.07757 0.25095 0.24864 0.0
H1012 H 0.08331 0.26767 0.25563 0.0
H1013 H 0.85088 0.25128 0.24698 0.0
H1014 H 0.88786 0.23754 0.24156 0.0
H1015 H 0.88581 0.24499 0.2768 0.0
H1016 H 0.01951 0.21093 0.24887 0.0
H1017 H 0.00151 0.22585 0.33548 0.0
H1018 H 0.02299 0.23903 0.21124 0.0
H1019 H 0.96157 0.23451 0.20978 0.0
H1020 H 0.00724 0.22262 0.20664 0.0
H1021 H 0.00175 0.25638 0.32196 0.0
H1022 H 0.96388 0.24607 0.34303 0.0
H1023 H 0.94034 0.2548 0.31231 0.0
C1024 C 0.22672 0.22914 0.9473 0.0
C1025 C 0.18338 0.22273 0.9507 0.0
C1026 C 0.23722 0.23973 0.96472 0.0
C1027 C 0.20449 0.2435 0.98667 0.0
C1028 C 0.15872 0.238 0.98779 0.0
C1029 C 0.1481 0.22798 0.96895 0.0
C1030 C 0.28466 0.24627 0.9612 0.0
C1031 C 0.12296 0.24159 0.01113 0.0
C1032 C 0.26537 0.25558 0.05513 0.0
C1033 C 0.25671 0.26857 0.05303 0.0
C1034 C 0.24609 0.2472 0.03444 0.0
C1035 C 0.21999 0.2521 0.01039 0.0
C1036 C 0.21003 0.26518 0.00873 0.0
C1037 C 0.22762 0.27321 0.03045 0.0
C1038 C 0.25529 0.23317 0.03764 0.0
C1039 C 0.18418 0.27089 0.98293 0.0
H1040 H 0.25369 0.22535 0.93274 0.0
H1041 H 0.11392 0.2233 0.97132 0.0
H1042 H 0.27944 0.25668 0.96048 0.0
H1043 H 0.30767 0.24413 0.98027 0.0
H1044 H 0.30346 0.24323 0.94098 0.0
H1045 H 0.08687 0.23782 0.00631 0.0
H1046 H 0.13477 0.23766 0.03244 0.0
H1047 H 0.12051 0.25202 0.01365 0.0
H1048 H 0.2884 0.25205 0.07231 0.0
H1049 H 0.22188 0.28333 0.02829 0.0
H1050 H 0.27965 0.22994 0.02002 0.0
H1051 H 0.22151 0.22778 0.03539 0.0
H1052 H 0.2716 0.2308 0.05908 0.0
H1053 H 0.20863 0.27113 0.96383 0.0
H1054 H 0.17216 0.28072 0.98746 0.0
H1055 H 0.15282 0.26512 0.97663 0.0
C1056 C 0.08325 0.01249 0.98634 0.0
C1057 C 0.05669 0.01595 0.96155 0.0
C1058 C 0.06974 0.00228 0.0039 0.0
C1059 C 0.02999 -0.00509 0.99573 0.0
C1060 C 0.00471 -0.00219 0.96971 0.0
C1061 C 0.01763 0.00855 0.95327 0.0
C1062 C 0.09634 -0.00013 0.03209 0.0
C1063 C 0.96331 0.98979 0.95974 0.0
C1064 C 0.02037 0.96209 0.02835 0.0
C1065 C 0.98148 0.96347 0.04748 0.0
C1066 C 0.03649 0.97226 0.01138 0.0
C1067 C 0.01479 0.98424 0.01468 0.0
C1068 C 0.97847 0.98599 0.03588 0.0
C1069 C 0.96142 0.97548 0.05161 0.0
C1070 C 0.0744 0.96994 0.98847 0.0
C1071 C 0.95632 -0.00117 0.04107 0.0
H1072 H 0.11276 0.01837 0.99342 0.0
H1073 H 0.99674 0.01131 0.9344 0.0
H1074 H 0.0718 0.00111 0.05094 0.0
H1075 H 0.10958 0.98998 0.03281 0.0
H1076 H 0.12709 0.00638 0.03495 0.0
H1077 H 0.95079 -0.0075 0.93756 0.0
H1078 H 0.97352 0.97963 0.95949 0.0
H1079 H 0.93321 0.99082 0.9753 0.0
H1080 H 0.03559 0.95279 0.02461 0.0
H1081 H 0.9312 0.97655 0.06622 0.0
H1082 H 0.10448 0.97663 0.99129 0.0
H1083 H 0.05927 0.97163 0.96639 0.0
H1084 H 0.08856 0.96011 0.98925 0.0
H1085 H 0.98444 0.0061 0.04413 0.0
H1086 H 0.93259 -0.00113 0.06056 0.0
H1087 H 0.9351 0.00164 0.0217 0.0
C1088 C 0.74759 0.01118 0.81188 0.0
C1089 C 0.70101 0.0159 0.81022 0.0
C1090 C 0.76 -8e-05 0.79747 0.0
C1091 C 0.72522 -0.00642 0.78054 0.0
C1092 C 0.67708 -0.00259 0.78196 0.0
C1093 C 0.66531 0.00834 0.79761 0.0
C1094 C 0.81113 -0.00447 0.79812 0.0
C1095 C 0.63888 0.99093 0.76413 0.0
C1096 C 0.76978 0.97795 0.71082 0.0
C1097 C 0.76633 0.96519 0.71847 0.0
C1098 C 0.75543 0.98736 0.73076 0.0
C1099 C 0.7397 0.98378 0.75918 0.0
C1100 C 0.7371 0.97088 0.76699 0.0
C1101 C 0.74964 0.96175 0.74633 0.0
C1102 C 0.75749 0.00109 0.7216 0.0
C1103 C 0.72261 0.96672 0.79738 0.0
H1104 H 0.77516 0.01682 0.82216 0.0
H1105 H 0.62894 0.01175 0.79672 0.0
H1106 H 0.81318 0.98505 0.7998 0.0
H1107 H 0.82911 -0.00164 0.77749 0.0
H1108 H 0.83095 -0.00023 0.81671 0.0
H1109 H 0.60253 -0.00601 0.77066 0.0
H1110 H 0.64414 -0.00672 0.74067 0.0
H1111 H 0.64115 0.98049 0.76626 0.0
H1112 H 0.78366 0.98054 0.68949 0.0
H1113 H 0.74836 0.95183 0.75244 0.0
H1114 H 0.78383 0.00623 0.73523 0.0
H1115 H 0.72234 0.00566 0.72518 0.0
H1116 H 0.76761 0.00222 0.69823 0.0
H1117 H 0.74768 0.97072 0.81369 0.0
H1118 H 0.72235 0.95624 0.79975 0.0
H1119 H 0.68665 0.97037 0.80284 0.0
C1120 C 0.97691 0.7215 0.80604 0.0
C1121 C 0.02534 0.71855 0.80931 0.0
C1122 C 0.96305 0.73257 0.79143 0.0
C1123 C 0.99858 0.74057 0.77951 0.0
C1124 C 0.04694 0.73861 0.78675 0.0
C1125 C 0.0596 0.72778 0.80248 0.0
C1126 C 0.91081 0.73499 0.7862 0.0
C1127 C 0.08593 0.74706 0.77486 0.0
C1128 C 0.97621 0.75542 0.70515 0.0
C1129 C 0.97305 0.76819 0.71274 0.0
C1130 C 0.98406 0.74623 0.72689 0.0
C1131 C 0.98643 0.74998 0.75676 0.0
C1132 C 0.98118 0.76283 0.76445 0.0
C1133 C 0.97567 0.77178 0.74226 0.0
C1134 C 0.99076 0.73258 0.71792 0.0
C1135 C 0.98062 0.76714 0.79601 0.0
H1136 H 0.95005 0.71459 0.81215 0.0
H1137 H 0.09707 0.72579 0.80586 0.0
H1138 H 0.90267 0.74526 0.7873 0.0
H1139 H 0.90108 0.73159 0.76403 0.0
H1140 H 0.88826 0.7299 0.8024 0.0
H1141 H 0.12133 0.74474 0.78424 0.0
H1142 H 0.08795 0.74596 0.75073 0.0
H1143 H 0.07803 0.75715 0.77949 0.0
H1144 H 0.97338 0.75269 0.68236 0.0
H1145 H 0.97269 0.78168 0.74806 0.0
H1146 H 0.96297 0.72658 0.72825 0.0
H1147 H 0.02584 0.7291 0.72569 0.0
H1148 H 0.98895 0.73129 0.69382 0.0
H1149 H 0.94747 0.76372 0.80668 0.0
H1150 H 0.98199 0.77762 0.79804 0.0
H1151 H 0.01092 0.76307 0.80835 0.0
C1152 C 0.74714 0.72038 0.93415 0.0
C1153 C 0.69871 0.71715 0.93555 0.0
C1154 C 0.76336 0.73198 0.9454 0.0
C1155 C 0.73038 0.74037 0.95862 0.0
C1156 C 0.681 0.73793 0.9563 0.0
C1157 C 0.6657 0.72642 0.94424 0.0
C1158 C 0.81619 0.73459 0.94596 0.0
C1159 C 0.64444 0.74661 0.96993 0.0
C1160 C 0.77533 0.75645 0.02761 0.0
C1161 C 0.78073 0.76898 0.0183 0.0
C1162 C 0.75767 0.74714 0.00853 0.0
C1163 C 0.74755 0.75035 0.97901 0.0
C1164 C 0.75359 0.76298 0.96941 0.0
C1165 C 0.76887 0.7722 0.98942 0.0
C1166 C 0.75011 0.73385 0.01993 0.0
C1167 C 0.74532 0.76667 0.93789 0.0
H1168 H 0.77287 0.71341 0.92683 0.0
H1169 H 0.62806 0.72415 0.94488 0.0
H1170 H 0.82359 0.74471 0.94117 0.0
H1171 H 0.83024 0.73252 0.96812 0.0
H1172 H 0.83574 0.72862 0.92993 0.0
H1173 H 0.60801 0.74464 0.96163 0.0
H1174 H 0.64439 0.74519 0.99399 0.0
H1175 H 0.65308 0.75669 0.96572 0.0
H1176 H 0.78461 0.75396 0.0499 0.0
H1177 H 0.77319 0.78185 0.98207 0.0
H1178 H 0.7743 0.72719 0.00842 0.0
H1179 H 0.71305 0.73073 0.01552 0.0
H1180 H 0.7568 0.73312 0.04382 0.0
H1181 H 0.76945 0.76116 0.92344 0.0
H1182 H 0.75166 0.77693 0.93397 0.0
H1183 H 0.70835 0.76435 0.93129 0.0
C1184 C 0.18963 0.50494 0.81142 0.0
C1185 C 0.21831 0.51559 0.81664 0.0
C1186 C 0.20709 0.49468 0.79516 0.0
C1187 C 0.25384 0.49527 0.78367 0.0
C1188 C 0.28438 0.50536 0.79144 0.0
C1189 C 0.26659 0.51524 0.8086 0.0
C1190 C 0.17441 0.4837 0.78844 0.0
C1191 C 0.33439 0.50634 0.77935 0.0
C1192 C 0.31399 0.4664 0.75262 0.0
C1193 C 0.3041 0.46756 0.72266 0.0
C1194 C 0.29695 0.4752 0.77278 0.0
C1195 C 0.27049 0.48564 0.76256 0.0
C1196 C 0.26112 0.48705 0.73219 0.0
C1197 C 0.27713 0.47774 0.71251 0.0
C1198 C 0.30606 0.47308 0.80502 0.0
C1199 C 0.234 0.49829 0.72048 0.0
H1200 H 0.15246 0.50507 0.81791 0.0
H1201 H 0.28928 0.52335 0.81283 0.0
H1202 H 0.16316 0.48419 0.76522 0.0
H1203 H 0.19324 0.47456 0.79157 0.0
H1204 H 0.142 0.48378 0.80242 0.0
H1205 H 0.35423 0.51453 0.78855 0.0
H1206 H 0.35471 0.49757 0.78399 0.0
H1207 H 0.33283 0.50743 0.7552 0.0
H1208 H 0.33382 0.45829 0.7605 0.0
H1209 H 0.26894 0.47844 0.6894 0.0
H1210 H 0.27193 0.47081 0.81615 0.0
H1211 H 0.32052 0.48175 0.81542 0.0
H1212 H 0.33137 0.46518 0.80896 0.0
H1213 H 0.19568 0.49726 0.72593 0.0
H1214 H 0.23757 0.49913 0.69636 0.0
H1215 H 0.24677 0.50722 0.73062 0.0
C1216 C 0.27587 0.76168 0.55068 0.0
C1217 C 0.26902 0.77454 0.54445 0.0
C1218 C 0.25135 0.75238 0.53481 0.0
C1219 C 0.22002 0.75614 0.51215 0.0
C1220 C 0.20874 0.76907 0.50834 0.0
C1221 C 0.23298 0.77813 0.52491 0.0
C1222 C 0.26243 0.7386 0.54044 0.0
C1223 C 0.17504 0.77343 0.4847 0.0
C1224 C 0.22477 0.73282 0.44964 0.0
C1225 C 0.18411 0.72553 0.45521 0.0
C1226 C 0.23482 0.74354 0.46665 0.0
C1227 C 0.20424 0.7467 0.49028 0.0
C1228 C 0.16122 0.74002 0.49442 0.0
C1229 C 0.15115 0.72967 0.47638 0.0
C1230 C 0.28009 0.75087 0.46081 0.0
C1231 C 0.12819 0.7429 0.51971 0.0
H1232 H 0.30317 0.75885 0.56609 0.0
H1233 H 0.22669 0.78808 0.52056 0.0
H1234 H 0.22928 0.73287 0.54065 0.0
H1235 H 0.28543 0.73492 0.52258 0.0
H1236 H 0.28126 0.73721 0.56155 0.0
H1237 H 0.16357 0.7834 0.48808 0.0
H1238 H 0.19323 0.77278 0.46317 0.0
H1239 H 0.14298 0.76731 0.48374 0.0
H1240 H 0.25017 0.72968 0.43327 0.0
H1241 H 0.11963 0.72407 0.48102 0.0
H1242 H 0.30621 0.74892 0.47843 0.0
H1243 H 0.27293 0.76122 0.46088 0.0
H1244 H 0.29651 0.74828 0.43951 0.0
H1245 H 0.14331 0.73881 0.54003 0.0
H1246 H 0.09226 0.73874 0.51635 0.0
H1247 H 0.12443 0.75325 0.52317 0.0
C1248 C 0.98394 0.47411 0.53954 0.0
C1249 C 0.94327 0.46769 0.52992 0.0
C1250 C 0.99527 0.48616 0.52848 0.0
C1251 C 0.96618 0.49162 0.5065 0.0
C1252 C 0.92443 0.48531 0.4973 0.0
C1253 C 0.91304 0.47352 0.50952 0.0
C1254 C 0.03907 0.49288 0.53969 0.0
C1255 C 0.8932 0.49065 0.47342 0.0
C1256 C 0.97894 0.52685 0.49417 0.0
C1257 C 0.01502 0.52732 0.47278 0.0
C1258 C 0.96185 0.51529 0.50485 0.0
C1259 C 0.97977 0.50389 0.49303 0.0
C1260 C 0.01271 0.50426 0.46949 0.0
C1261 C 0.03057 0.51599 0.45991 0.0
C1262 C 0.9275 0.51531 0.53036 0.0
C1263 C 0.03098 0.49225 0.45553 0.0
H1264 H 0.0074 0.4696 0.55519 0.0
H1265 H 0.88194 0.4685 0.50157 0.0
H1266 H 0.06614 0.49347 0.52203 0.0
H1267 H 0.03007 0.50272 0.54623 0.0
H1268 H 0.05513 0.48795 0.55873 0.0
H1269 H 0.86048 0.48492 0.47001 0.0
H1270 H 0.88259 0.50052 0.47861 0.0
H1271 H 0.91351 0.49094 0.45257 0.0
H1272 H 0.96654 0.53552 0.50436 0.0
H1273 H 0.05827 0.51626 0.44336 0.0
H1274 H 0.9456 0.51146 0.55001 0.0
H1275 H 0.8965 0.50911 0.52581 0.0
H1276 H 0.91426 0.52497 0.53558 0.0
H1277 H 0.05432 0.48716 0.47116 0.0
H1278 H 0.05167 0.49417 0.43526 0.0
H1279 H 0.00091 0.48584 0.45011 0.0
C1280 C 0.73128 0.50198 0.30696 0.0
C1281 C 0.68714 0.50817 0.3062 0.0
C1282 C 0.73867 0.49089 0.29062 0.0
C1283 C 0.70171 0.48637 0.27234 0.0
C1284 C 0.65549 0.49153 0.2748 0.0
C1285 C 0.64843 0.50218 0.29249 0.0
C1286 C 0.78731 0.48481 0.2906 0.0
C1287 C 0.61493 0.48694 0.2559 0.0
C1288 C 0.75067 0.47486 0.19983 0.0
C1289 C 0.74558 0.46176 0.2027 0.0
C1290 C 0.73345 0.48303 0.22165 0.0
C1291 C 0.71329 0.47786 0.24757 0.0
C1292 C 0.70634 0.46466 0.24999 0.0
C1293 C 0.72129 0.45681 0.22712 0.0
C1294 C 0.73904 0.49716 0.21761 0.0
C1295 C 0.68743 0.45861 0.27765 0.0
H1296 H 0.76104 0.50636 0.31816 0.0
H1297 H 0.61379 0.50671 0.29231 0.0
H1298 H 0.78421 0.47432 0.28992 0.0
H1299 H 0.80729 0.48785 0.27085 0.0
H1300 H 0.80823 0.48755 0.31021 0.0
H1301 H 0.57992 0.49042 0.26392 0.0
H1302 H 0.62027 0.49046 0.23324 0.0
H1303 H 0.61388 0.47645 0.25494 0.0
H1304 H 0.76967 0.47867 0.18112 0.0
H1305 H 0.71782 0.44664 0.22977 0.0
H1306 H 0.76719 0.50074 0.23246 0.0
H1307 H 0.70541 0.50211 0.22329 0.0
H1308 H 0.74903 0.49966 0.19479 0.0
H1309 H 0.71747 0.45723 0.29307 0.0
H1310 H 0.67145 0.44918 0.27316 0.0
H1311 H 0.66051 0.46461 0.28875 0.0
C1312 C 0.72876 0.27202 0.51777 0.0
C1313 C 0.76489 0.26984 0.53839 0.0
C1314 C 0.71107 0.26219 0.50042 0.0
C1315 C 0.72815 0.24976 0.50481 0.0
C1316 C 0.76168 0.24729 0.52725 0.0
C1317 C 0.78061 0.25744 0.54336 0.0
C1318 C 0.67663 0.26527 0.47606 0.0
C1319 C 0.77884 0.23401 0.5335 0.0
C1320 C 0.65446 0.22257 0.47612 0.0
C1321 C 0.68344 0.2179 0.45343 0.0
C1322 C 0.66845 0.23298 0.49287 0.0
C1323 C 0.71113 0.23935 0.48575 0.0
C1324 C 0.7382 0.23549 0.46107 0.0
C1325 C 0.72462 0.22457 0.44557 0.0
C1326 C 0.63951 0.23649 0.51961 0.0
C1327 C 0.7826 0.24253 0.45191 0.0
H1328 H 0.71712 0.28162 0.51331 0.0
H1329 H 0.80882 0.25576 0.55905 0.0
H1330 H 0.69368 0.26322 0.45464 0.0
H1331 H 0.64437 0.25924 0.47761 0.0
H1332 H 0.66544 0.27536 0.47631 0.0
H1333 H 0.80084 0.23354 0.55364 0.0
H1334 H 0.74806 0.22748 0.53599 0.0
H1335 H 0.80051 0.23053 0.51484 0.0
H1336 H 0.62277 0.21742 0.48267 0.0
H1337 H 0.74711 0.22099 0.42813 0.0
H1338 H 0.63103 0.24675 0.51964 0.0
H1339 H 0.66071 0.23454 0.53958 0.0
H1340 H 0.60564 0.23108 0.52105 0.0
H1341 H 0.7758 0.25289 0.45131 0.0
H1342 H 0.79558 0.23945 0.43006 0.0
H1343 H 0.81126 0.24084 0.46811 0.0
C1344 C 0.44629 0.26072 0.70369 0.0
C1345 C 0.46977 0.27242 0.70521 0.0
C1346 C 0.46571 0.24997 0.71715 0.0
C1347 C 0.5086 0.25113 0.73317 0.0
C1348 C 0.53426 0.26264 0.73276 0.0
C1349 C 0.5151 0.27306 0.7181 0.0
C1350 C 0.43878 0.2376 0.71585 0.0
C1351 C 0.57968 0.26431 0.75004 0.0
C1352 C 0.52173 0.22824 0.79666 0.0
C1353 C 0.55507 0.21976 0.78524 0.0
C1354 C 0.50763 0.23887 0.78031 0.0
C1355 C 0.52557 0.24052 0.75149 0.0
C1356 C 0.55936 0.23196 0.74002 0.0
C1357 C 0.57439 0.22184 0.75728 0.0
C1358 C 0.47281 0.24815 0.79355 0.0
C1359 C 0.57774 0.23309 0.70901 0.0
H1360 H 0.41143 0.26016 0.69361 0.0
H1361 H 0.53363 0.28206 0.7194 0.0
H1362 H 0.46333 0.22966 0.71073 0.0
H1363 H 0.42244 0.2356 0.73748 0.0
H1364 H 0.41005 0.2378 0.69918 0.0
H1365 H 0.59708 0.27358 0.74565 0.0
H1366 H 0.57148 0.26371 0.77377 0.0
H1367 H 0.60539 0.25665 0.74496 0.0
H1368 H 0.50637 0.22648 0.81806 0.0
H1369 H 0.59913 0.21503 0.74802 0.0
H1370 H 0.4386 0.24775 0.7815 0.0
H1371 H 0.48673 0.25796 0.79154 0.0
H1372 H 0.46568 0.24613 0.81701 0.0
H1373 H 0.54773 0.23199 0.69345 0.0
H1374 H 0.60508 0.22582 0.7038 0.0
H1375 H 0.59339 0.2426 0.70523 0.0
C1376 C 0.58849 0.00756 0.47381 0.0
C1377 C 0.55926 0.01228 0.45141 0.0
C1378 C 0.57297 -0.00226 0.49192 0.0
C1379 C 0.52869 -0.00808 0.48616 0.0
C1380 C 0.50218 -0.00459 0.46108 0.0
C1381 C 0.51716 0.00585 0.44437 0.0
C1382 C 0.60154 -0.0054 0.51898 0.0
C1383 C 0.4564 0.98874 0.45316 0.0
C1384 C 0.50563 0.96178 0.52812 0.0
C1385 C 0.4732 0.96586 0.54957 0.0
C1386 C 0.52278 0.97007 0.50678 0.0
C1387 C 0.50882 0.98289 0.50771 0.0
C1388 C 0.47744 0.98722 0.52996 0.0
C1389 C 0.45889 0.97853 0.55028 0.0
C1390 C 0.55441 0.965 0.48268 0.0
C1391 C 0.46317 0.00098 0.5321 0.0
H1392 H 0.62102 0.0125 0.47957 0.0
H1393 H 0.4946 0.00945 0.42703 0.0
H1394 H 0.60692 0.98424 0.52102 0.0
H1395 H 0.63696 -0.0007 0.519 0.0
H1396 H 0.58161 -0.00223 0.53867 0.0
H1397 H 0.44535 0.99087 0.43036 0.0
H1398 H 0.46021 0.97833 0.4556 0.0
H1399 H 0.42758 -0.00814 0.46814 0.0
H1400 H 0.51542 0.95185 0.5269 0.0
H1401 H 0.43295 0.98156 0.56643 0.0
H1402 H 0.58936 0.96989 0.48292 0.0
H1403 H 0.5379 0.96691 0.46108 0.0
H1404 H 0.56065 0.95464 0.48469 0.0
H1405 H 0.4954 0.00706 0.53305 0.0
H1406 H 0.44083 0.00291 0.55168 0.0
H1407 H 0.4429 0.00376 0.51232 0.0
C1408 C 0.58313 0.723 0.28808 0.0
C1409 C 0.55145 0.7154 0.30428 0.0
C1410 C 0.56763 0.73408 0.27431 0.0
C1411 C 0.51991 0.73798 0.27798 0.0
C1412 C 0.48915 0.73112 0.29683 0.0
C1413 C 0.50507 0.71976 0.30942 0.0
C1414 C 0.60115 0.74094 0.25378 0.0
C1415 C 0.43851 0.73535 0.30214 0.0
C1416 C 0.48372 0.77108 0.25544 0.0
C1417 C 0.45777 0.76866 0.22981 0.0
C1418 C 0.50478 0.7612 0.2712 0.0
C1419 C 0.50113 0.74869 0.2605 0.0
C1420 C 0.47794 0.74631 0.23353 0.0
C1421 C 0.45571 0.75632 0.21873 0.0
C1422 C 0.52853 0.76408 0.30009 0.0
C1423 C 0.47517 0.73312 0.2208 0.0
H1424 H 0.61901 0.71971 0.28374 0.0
H1425 H 0.4805 0.71395 0.3219 0.0
H1426 H 0.58893 0.7396 0.23091 0.0
H1427 H 0.60109 0.75126 0.25824 0.0
H1428 H 0.63829 0.73739 0.25548 0.0
H1429 H 0.42111 0.72985 0.31993 0.0
H1430 H 0.43758 0.74556 0.30794 0.0
H1431 H 0.41743 0.73413 0.28183 0.0
H1432 H 0.48528 0.7806 0.26422 0.0
H1433 H 0.43585 0.75447 0.19886 0.0
H1434 H 0.56475 0.75991 0.3008 0.0
H1435 H 0.50767 0.75971 0.31812 0.0
H1436 H 0.53134 0.77442 0.30428 0.0
H1437 H 0.51113 0.72877 0.22002 0.0
H1438 H 0.45999 0.7331 0.19837 0.0
H1439 H 0.45255 0.72706 0.23498 0.0
C1440 C 0.46125 0.4746 0.05444 0.0
C1441 C 0.47769 0.46212 0.05275 0.0
C1442 C 0.48155 0.48407 0.03685 0.0
C1443 C 0.5173 0.48076 0.01626 0.0
C1444 C 0.53551 0.46831 0.01549 0.0
C1445 C 0.51625 0.45921 0.03427 0.0
C1446 C 0.46316 0.49747 0.0393 0.0
C1447 C 0.5724 0.46429 0.99321 0.0
C1448 C 0.5185 0.50372 0.95286 0.0
C1449 C 0.55731 0.51137 0.96038 0.0
C1450 C 0.50759 0.49291 0.96947 0.0
C1451 C 0.53446 0.49026 0.99498 0.0
C1452 C 0.57552 0.49744 0.00141 0.0
C1453 C 0.58726 0.50767 0.98346 0.0
C1454 C 0.46551 0.48482 0.96086 0.0
C1455 C 0.60415 0.49525 0.02894 0.0
H1456 H 0.43125 0.47681 0.06852 0.0
H1457 H 0.52861 0.44951 0.0324 0.0
H1458 H 0.4933 0.50426 0.04057 0.0
H1459 H 0.44219 0.49987 0.01952 0.0
H1460 H 0.44004 0.49878 0.05882 0.0
H1461 H 0.58673 0.45468 0.99779 0.0
H1462 H 0.55591 0.4642 0.97116 0.0
H1463 H 0.60252 0.47108 0.99246 0.0
H1464 H 0.49542 0.50655 0.93503 0.0
H1465 H 0.61714 0.5136 0.98967 0.0
H1466 H 0.43515 0.48679 0.97575 0.0
H1467 H 0.47434 0.47461 0.96293 0.0
H1468 H 0.45393 0.48673 0.93806 0.0
H1469 H 0.58319 0.49855 0.0481 0.0
H1470 H 0.63853 0.50046 0.02861 0.0
H1471 H 0.61161 0.48504 0.03225 0.0
C1472 C 0.07754 0.13911 0.30805 0.0
C1473 C 0.09919 0.14959 0.32138 0.0
C1474 C 0.09462 0.12682 0.31274 0.0
C1475 C 0.13352 0.1249 0.33192 0.0
C1476 C 0.15337 0.13533 0.3471 0.0
C1477 C 0.1364 0.1476 0.34133 0.0
C1478 C 0.07282 0.11599 0.29575 0.0
C1479 C 0.19378 0.13359 0.36844 0.0
C1480 C 0.14649 0.08999 0.34782 0.0
C1481 C 0.17951 0.08645 0.3263 0.0
C1482 C 0.13479 0.10278 0.35221 0.0
C1483 C 0.15531 0.11211 0.33385 0.0
C1484 C 0.19149 0.10865 0.31372 0.0
C1485 C 0.20371 0.09585 0.31053 0.0
C1486 C 0.09759 0.10615 0.37477 0.0
C1487 C 0.21368 0.11825 0.29331 0.0
H1488 H 0.04891 0.14056 0.29253 0.0
H1489 H 0.15313 0.15566 0.35183 0.0
H1490 H 0.1001 0.11169 0.28122 0.0
H1491 H 0.06028 0.10849 0.31091 0.0
H1492 H 0.04227 0.11907 0.28208 0.0
H1493 H 0.19952 0.14218 0.38206 0.0
H1494 H 0.18679 0.1254 0.38306 0.0
H1495 H 0.22715 0.13158 0.35628 0.0
H1496 H 0.12802 0.08272 0.36021 0.0
H1497 H 0.22906 0.09312 0.29374 0.0
H1498 H 0.06286 0.10766 0.36379 0.0
H1499 H 0.10711 0.11507 0.38622 0.0
H1500 H 0.09308 0.09849 0.39124 0.0
H1501 H 0.18676 0.12135 0.27705 0.0
H1502 H 0.24479 0.11432 0.28131 0.0
H1503 H 0.22531 0.12677 0.30552 0.0
C1504 C 0.17834 0.14178 0.94329 0.0
C1505 C 0.16124 0.15098 0.92399 0.0
C1506 C 0.16532 0.12905 0.94014 0.0
C1507 C 0.13622 0.12539 0.9163 0.0
C1508 C 0.12183 0.13455 0.89547 0.0
C1509 C 0.13343 0.14735 0.90003 0.0
C1510 C 0.18005 0.11969 0.96347 0.0
C1511 C 0.09261 0.13091 0.86911 0.0
C1512 C 0.13487 0.08978 0.90753 0.0
C1513 C 0.09368 0.08654 0.92328 0.0
C1514 C 0.14723 0.1025 0.90286 0.0
C1515 C 0.11824 0.11217 0.91479 0.0
C1516 C 0.07489 0.10896 0.92891 0.0
C1517 C 0.06284 0.09616 0.93267 0.0
C1518 C 0.19301 0.10556 0.88696 0.0
C1519 C 0.04333 0.11897 0.94241 0.0
H1520 H 0.19897 0.14468 0.96218 0.0
H1521 H 0.11997 0.15455 0.88528 0.0
H1522 H 0.1479 0.1158 0.97443 0.0
H1523 H 0.19941 0.11161 0.95351 0.0
H1524 H 0.20321 0.12406 0.98037 0.0
H1525 H 0.09084 0.1387 0.85279 0.0
H1526 H 0.10778 0.12237 0.85842 0.0
H1527 H 0.05581 0.12854 0.87606 0.0
H1528 H 0.15865 0.08237 0.89999 0.0
H1529 H 0.03107 0.09371 0.94497 0.0
H1530 H 0.22044 0.10854 0.90298 0.0
H1531 H 0.18766 0.11353 0.87148 0.0
H1532 H 0.20692 0.09725 0.87469 0.0
H1533 H 0.06186 0.12331 0.96136 0.0
H1534 H 0.00882 0.11503 0.95011 0.0
H1535 H 0.03603 0.12665 0.92649 0.0
C1536 C 0.88591 0.89328 0.68892 0.0
C1537 C 0.84472 0.89905 0.67805 0.0
C1538 C 0.89388 0.88032 0.68479 0.0
C1539 C 0.86072 0.87313 0.66839 0.0
C1540 C 0.82053 0.8791 0.65587 0.0
C1541 C 0.81248 0.89198 0.66136 0.0
C1542 C 0.93602 0.87418 0.69962 0.0
C1543 C 0.78511 0.87178 0.63769 0.0
C1544 C 0.90673 0.84075 0.64655 0.0
C1545 C 0.88528 0.8331 0.66781 0.0
C1546 C 0.89653 0.85375 0.6452 0.0
C1547 C 0.86617 0.8592 0.66653 0.0
C1548 C 0.84365 0.85141 0.68764 0.0
C1549 C 0.8527 0.83839 0.68757 0.0
C1550 C 0.91969 0.86175 0.62178 0.0
C1551 C 0.81281 0.85692 0.71163 0.0
H1552 H 0.9103 0.89874 0.70232 0.0
H1553 H 0.78054 0.8965 0.65309 0.0
H1554 H 0.92323 0.86718 0.71598 0.0
H1555 H 0.95797 0.86896 0.68344 0.0
H1556 H 0.95904 0.88119 0.71095 0.0
H1557 H 0.75923 0.87811 0.62659 0.0
H1558 H 0.80392 0.86604 0.62092 0.0
H1559 H 0.765 0.86512 0.65186 0.0
H1560 H 0.93219 0.83661 0.63145 0.0
H1561 H 0.837 0.83248 0.70446 0.0
H1562 H 0.94681 0.86804 0.63176 0.0
H1563 H 0.89278 0.8679 0.61113 0.0
H1564 H 0.93736 0.85587 0.60477 0.0
H1565 H 0.83463 0.86323 0.72567 0.0
H1566 H 0.79658 0.84948 0.72567 0.0
H1567 H 0.78387 0.86276 0.70219 0.0
C1568 C 0.82422 0.89355 0.06459 0.0
C1569 C 0.86403 0.89866 0.0787 0.0
C1570 C 0.81493 0.88049 0.06569 0.0
C1571 C 0.8453 0.87249 0.08217 0.0
C1572 C 0.88259 0.87786 0.09888 0.0
C1573 C 0.89217 0.89087 0.09644 0.0
C1574 C 0.77571 0.87515 0.04679 0.0
C1575 C 0.91464 0.86975 0.11758 0.0
C1576 C 0.80485 0.83816 0.08872 0.0
C1577 C 0.8325 0.83241 0.06695 0.0
C1578 C 0.81046 0.85111 0.09519 0.0
C1579 C 0.84259 0.8585 0.07838 0.0
C1580 C 0.87097 0.85261 0.05661 0.0
C1581 C 0.86619 0.83957 0.05159 0.0
C1582 C 0.78095 0.85697 0.11926 0.0
C1583 C 0.90438 0.86018 0.0374 0.0
H1584 H 0.8029 0.89956 0.05052 0.0
H1585 H 0.92299 0.89486 0.10735 0.0
H1586 H 0.79176 0.87011 0.02787 0.0
H1587 H 0.75402 0.86818 0.05911 0.0
H1588 H 0.75178 0.88267 0.03828 0.0
H1589 H 0.93514 0.87553 0.13351 0.0
H1590 H 0.8936 0.86255 0.1297 0.0
H1591 H 0.94035 0.86464 0.1034 0.0
H1592 H 0.77824 0.8326 0.10018 0.0
H1593 H 0.88655 0.83512 0.0342 0.0
H1594 H 0.75381 0.86336 0.10967 0.0
H1595 H 0.80379 0.86279 0.13381 0.0
H1596 H 0.76238 0.84969 0.13265 0.0
H1597 H 0.88407 0.86755 0.02539 0.0
H1598 H 0.92334 0.85416 0.02119 0.0
H1599 H 0.93125 0.86512 0.05098 0.0
C1600 C 0.11159 0.58821 0.83702 0.0
C1601 C 0.15071 0.58417 0.82037 0.0
C1602 C 0.10206 0.60115 0.8406 0.0
C1603 C 0.13187 0.61016 0.82674 0.0
C1604 C 0.17324 0.60615 0.81167 0.0
C1605 C 0.18237 0.59319 0.8089 0.0
C1606 C 0.05831 0.60516 0.85746 0.0
C1607 C 0.20558 0.61544 0.79617 0.0
C1608 C 0.07359 0.63941 0.79587 0.0
C1609 C 0.09179 0.6489 0.81406 0.0
C1610 C 0.08598 0.62673 0.80011 0.0
C1611 C 0.11594 0.62345 0.82379 0.0
C1612 C 0.13264 0.63293 0.84311 0.0
C1613 C 0.12105 0.64564 0.83767 0.0
C1614 C 0.06884 0.61694 0.77837 0.0
C1615 C 0.16367 0.62967 0.86897 0.0
H1616 H 0.08737 0.58127 0.84629 0.0
H1617 H 0.21294 0.59014 0.7962 0.0
H1618 H 0.06654 0.61331 0.87193 0.0
H1619 H 0.03033 0.60826 0.84194 0.0
H1620 H 0.04371 0.5973 0.87096 0.0
H1621 H 0.23938 0.61096 0.78886 0.0
H1622 H 0.18704 0.61925 0.77664 0.0
H1623 H 0.21427 0.62357 0.81054 0.0
H1624 H 0.0516 0.64197 0.77731 0.0
H1625 H 0.13511 0.65303 0.85169 0.0
H1626 H 0.04863 0.60938 0.78978 0.0
H1627 H 0.09985 0.6124 0.76752 0.0
H1628 H 0.04567 0.62111 0.7612 0.0
H1629 H 0.14709 0.62195 0.88197 0.0
H1630 H 0.16974 0.63796 0.88346 0.0
H1631 H 0.19871 0.62616 0.86121 0.0
C1632 C 0.14295 0.65048 0.39825 0.0
C1633 C 0.18169 0.65472 0.41493 0.0
C1634 C 0.13378 0.63748 0.39511 0.0
C1635 C 0.16311 0.62867 0.40986 0.0
C1636 C 0.20569 0.63287 0.42331 0.0
C1637 C 0.21481 0.64589 0.42535 0.0
C1638 C 0.08964 0.63331 0.379 0.0
C1639 C 0.23816 0.62378 0.43916 0.0
C1640 C 0.10018 0.60339 0.45366 0.0
C1641 C 0.11547 0.59226 0.43991 0.0
C1642 C 0.11439 0.61528 0.44341 0.0
C1643 C 0.14347 0.6161 0.41811 0.0
C1644 C 0.15635 0.60493 0.40286 0.0
C1645 C 0.14302 0.59307 0.41434 0.0
C1646 C 0.10006 0.62691 0.46066 0.0
C1647 C 0.18534 0.6054 0.37506 0.0
H1648 H 0.1178 0.65729 0.38953 0.0
H1649 H 0.24513 0.64912 0.43798 0.0
H1650 H 0.09545 0.62408 0.36791 0.0
H1651 H 0.05994 0.63211 0.39481 0.0
H1652 H 0.07865 0.64046 0.3625 0.0
H1653 H 0.27275 0.62824 0.44494 0.0
H1654 H 0.22057 0.62058 0.45965 0.0
H1655 H 0.24518 0.61528 0.42563 0.0
H1656 H 0.07892 0.60283 0.47345 0.0
H1657 H 0.15448 0.58446 0.40346 0.0
H1658 H 0.07928 0.63345 0.44665 0.0
H1659 H 0.13229 0.63207 0.46809 0.0
H1660 H 0.07816 0.62455 0.48019 0.0
H1661 H 0.17668 0.61392 0.36188 0.0
H1662 H 0.17933 0.59682 0.36146 0.0
H1663 H 0.22374 0.60578 0.3806 0.0
C1664 C 0.86235 0.33932 0.18697 0.0
C1665 C 0.90987 0.33531 0.18871 0.0
C1666 C 0.85103 0.35222 0.18584 0.0
C1667 C 0.88814 0.36128 0.1863 0.0
C1668 C 0.93621 0.35731 0.18689 0.0
C1669 C 0.94653 0.34434 0.18807 0.0
C1670 C 0.79931 0.35617 0.18555 0.0
C1671 C 0.97662 0.36676 0.18773 0.0
C1672 C 0.85954 0.39526 0.16597 0.0
C1673 C 0.85146 0.40053 0.19361 0.0
C1674 C 0.87142 0.3824 0.16316 0.0
C1675 C 0.87646 0.37489 0.18864 0.0
C1676 C 0.86948 0.3803 0.21662 0.0
C1677 C 0.85651 0.39304 0.21872 0.0
C1678 C 0.87801 0.37681 0.13304 0.0
C1679 C 0.87563 0.37267 0.24434 0.0
H1680 H 0.8338 0.33241 0.18754 0.0
H1681 H 0.98335 0.34132 0.18938 0.0
H1682 H 0.79036 0.36102 0.20639 0.0
H1683 H 0.79277 0.363 0.16757 0.0
H1684 H 0.7749 0.34796 0.18287 0.0
H1685 H 0.01202 0.36212 0.18601 0.0
H1686 H 0.97305 0.37371 0.16966 0.0
H1687 H 0.97525 0.37216 0.20856 0.0
H1688 H 0.85566 0.40111 0.14663 0.0
H1689 H 0.85109 0.3972 0.24016 0.0
H1690 H 0.85223 0.36897 0.1297 0.0
H1691 H 0.91424 0.37272 0.13094 0.0
H1692 H 0.87291 0.38395 0.11545 0.0
H1693 H 0.84962 0.36475 0.2448 0.0
H1694 H 0.87056 0.37849 0.26436 0.0
H1695 H 0.91176 0.36843 0.24497 0.0
C1696 C 0.87043 0.33777 0.60253 0.0
C1697 C 0.89339 0.33147 0.57955 0.0
C1698 C 0.87946 0.35065 0.6079 0.0
C1699 C 0.90971 0.35743 0.58863 0.0
C1700 C 0.93601 0.35078 0.56702 0.0
C1701 C 0.92815 0.33777 0.56315 0.0
C1702 C 0.85338 0.35718 0.63252 0.0
C1703 C 0.96803 0.35762 0.54562 0.0
C1704 C 0.87075 0.38982 0.56304 0.0
C1705 C 0.90851 0.39744 0.57253 0.0
C1706 C 0.86969 0.37685 0.56933 0.0
C1707 C 0.90627 0.37146 0.58667 0.0
C1708 C 0.94192 0.37937 0.59875 0.0
C1709 C 0.94339 0.39225 0.59086 0.0
C1710 C 0.83134 0.36877 0.5555 0.0
C1711 C 0.97978 0.37419 0.61882 0.0
H1712 H 0.84363 0.33282 0.61526 0.0
H1713 H 0.94547 0.33285 0.54522 0.0
H1714 H 0.87518 0.36494 0.64199 0.0
H1715 H 0.81989 0.36137 0.6241 0.0
H1716 H 0.84389 0.35038 0.65015 0.0
H1717 H 0.98851 0.35096 0.53159 0.0
H1718 H 0.94612 0.36378 0.53128 0.0
H1719 H 0.99351 0.3638 0.55738 0.0
H1720 H 0.84382 0.3938 0.54877 0.0
H1721 H 0.97236 0.39817 0.59851 0.0
H1722 H 0.81103 0.36364 0.57261 0.0
H1723 H 0.84785 0.36156 0.54098 0.0
H1724 H 0.80585 0.37445 0.54237 0.0
H1725 H 0.96568 0.36639 0.63264 0.0
H1726 H 0.99426 0.38173 0.63327 0.0
H1727 H 0.00969 0.37039 0.6056 0.0
C1728 C 0.62664 0.08951 0.84695 0.0
C1729 C 0.6642 0.08682 0.82766 0.0
C1730 C 0.61278 0.10205 0.85243 0.0
C1731 C 0.63609 0.11202 0.83749 0.0
C1732 C 0.67615 0.10939 0.81958 0.0
C1733 C 0.69019 0.09679 0.81525 0.0
C1734 C 0.57109 0.10453 0.87253 0.0
C1735 C 0.70148 0.11974 0.8028 0.0
C1736 C 0.5661 0.14036 0.8115 0.0
C1737 C 0.58748 0.15015 0.82745 0.0
C1738 C 0.58008 0.12776 0.81557 0.0
C1739 C 0.61486 0.12488 0.83696 0.0
C1740 C 0.63293 0.13459 0.85517 0.0
C1741 C 0.61979 0.1472 0.84976 0.0
C1742 C 0.56077 0.11774 0.79515 0.0
C1743 C 0.66834 0.13178 0.87908 0.0
H1744 H 0.60677 0.08179 0.85679 0.0
H1745 H 0.71908 0.09472 0.80021 0.0
H1746 H 0.57772 0.113 0.88633 0.0
H1747 H 0.53878 0.10641 0.85932 0.0
H1748 H 0.56366 0.09629 0.88697 0.0
H1749 H 0.73401 0.11622 0.79156 0.0
H1750 H 0.67708 0.12372 0.78608 0.0
H1751 H 0.71172 0.12758 0.81763 0.0
H1752 H 0.54152 0.14265 0.79401 0.0
H1753 H 0.63621 0.15479 0.86215 0.0
H1754 H 0.54618 0.10965 0.80777 0.0
H1755 H 0.59007 0.11403 0.78123 0.0
H1756 H 0.53232 0.12146 0.78065 0.0
H1757 H 0.658 0.12309 0.89124 0.0
H1758 H 0.6714 0.13977 0.89479 0.0
H1759 H 0.70394 0.13007 0.8693 0.0
C1760 C 0.60295 0.14416 0.40212 0.0
C1761 C 0.64568 0.14735 0.41617 0.0
C1762 C 0.58943 0.13145 0.39868 0.0
C1763 C 0.61884 0.1218 0.41019 0.0
C1764 C 0.66378 0.12494 0.42224 0.0
C1765 C 0.67695 0.1377 0.42471 0.0
C1766 C 0.54201 0.12843 0.38482 0.0
C1767 C 0.69594 0.11493 0.43517 0.0
C1768 C 0.56181 0.09293 0.4445 0.0
C1769 C 0.57714 0.08333 0.42561 0.0
C1770 C 0.57382 0.1056 0.43915 0.0
C1771 C 0.60011 0.10873 0.41365 0.0
C1772 C 0.61205 0.09917 0.39322 0.0
C1773 C 0.60141 0.08649 0.39982 0.0
C1774 C 0.56159 0.11545 0.46196 0.0
C1775 C 0.63824 0.10222 0.36524 0.0
H1776 H 0.57884 0.1516 0.39525 0.0
H1777 H 0.70993 0.14012 0.43568 0.0
H1778 H 0.5451 0.12011 0.37008 0.0
H1779 H 0.5158 0.126 0.40213 0.0
H1780 H 0.52788 0.13659 0.37217 0.0
H1781 H 0.73142 0.11879 0.44119 0.0
H1782 H 0.67905 0.11096 0.45515 0.0
H1783 H 0.70111 0.10701 0.41957 0.0
H1784 H 0.54373 0.09043 0.46469 0.0
H1785 H 0.61328 0.079 0.38527 0.0
H1786 H 0.54199 0.12344 0.45186 0.0
H1787 H 0.59486 0.11936 0.47145 0.0
H1788 H 0.53956 0.11151 0.48002 0.0
H1789 H 0.62283 0.11075 0.35468 0.0
H1790 H 0.63705 0.09421 0.34949 0.0
H1791 H 0.67607 0.10433 0.37018 0.0
C1792 C 0.34189 0.88881 0.16327 0.0
C1793 C 0.37612 0.89671 0.17607 0.0
C1794 C 0.35054 0.87583 0.15975 0.0
C1795 C 0.39392 0.8707 0.16997 0.0
C1796 C 0.43083 0.87891 0.17932 0.0
C1797 C 0.42156 0.89192 0.18205 0.0
C1798 C 0.31098 0.86746 0.14858 0.0
C1799 C 0.47782 0.87383 0.19016 0.0
C1800 C 0.38229 0.84052 0.21383 0.0
C1801 C 0.40265 0.83162 0.19503 0.0
C1802 C 0.37884 0.85324 0.20562 0.0
C1803 C 0.3959 0.85707 0.17775 0.0
C1804 C 0.41513 0.84797 0.15826 0.0
C1805 C 0.41888 0.83529 0.16736 0.0
C1806 C 0.35841 0.86265 0.22722 0.0
C1807 C 0.43323 0.85166 0.12836 0.0
H1808 H 0.30699 0.89258 0.1581 0.0
H1809 H 0.4482 0.89805 0.19176 0.0
H1810 H 0.32533 0.85958 0.13513 0.0
H1811 H 0.29175 0.86324 0.16745 0.0
H1812 H 0.28495 0.87291 0.13532 0.0
H1813 H 0.50565 0.88132 0.19065 0.0
H1814 H 0.47313 0.87014 0.21273 0.0
H1815 H 0.49049 0.8659 0.17628 0.0
H1816 H 0.37083 0.83759 0.23549 0.0
H1817 H 0.43561 0.82833 0.15324 0.0
H1818 H 0.32722 0.86753 0.21752 0.0
H1819 H 0.38537 0.87 0.23243 0.0
H1820 H 0.34696 0.85808 0.24798 0.0
H1821 H 0.40777 0.85811 0.11731 0.0
H1822 H 0.43931 0.84326 0.11421 0.0
H1823 H 0.46745 0.85683 0.13062 0.0
C1824 C 0.44618 0.8909 0.57333 0.0
C1825 C 0.40789 0.89924 0.57782 0.0
C1826 C 0.43909 0.8778 0.57263 0.0
C1827 C 0.39277 0.87293 0.57715 0.0
C1828 C 0.35513 0.88119 0.58503 0.0
C1829 C 0.36308 0.89431 0.58515 0.0
C1830 C 0.48008 0.86935 0.56376 0.0
C1831 C 0.30543 0.87627 0.59056 0.0
C1832 C 0.35637 0.84499 0.5308 0.0
C1833 C 0.36054 0.83493 0.55055 0.0
C1834 C 0.36757 0.85736 0.53919 0.0
C1835 C 0.38205 0.85974 0.56832 0.0
C1836 C 0.38656 0.8496 0.5884 0.0
C1837 C 0.37636 0.83721 0.5791 0.0
C1838 C 0.36379 0.86786 0.51681 0.0
C1839 C 0.40116 0.85189 0.61971 0.0
H1840 H 0.48117 0.89463 0.5681 0.0
H1841 H 0.33344 0.90068 0.58895 0.0
H1842 H 0.48075 0.86057 0.57707 0.0
H1843 H 0.47561 0.8665 0.54055 0.0
H1844 H 0.51497 0.87423 0.56596 0.0
H1845 H 0.28275 0.88344 0.60166 0.0
H1846 H 0.28856 0.87379 0.56939 0.0
H1847 H 0.3064 0.86755 0.60412 0.0
H1848 H 0.34464 0.84315 0.50861 0.0
H1849 H 0.37926 0.82937 0.59434 0.0
H1850 H 0.39829 0.87294 0.51493 0.0
H1851 H 0.33668 0.87487 0.52388 0.0
H1852 H 0.35378 0.86428 0.4948 0.0
H1853 H 0.43629 0.85668 0.62044 0.0
H1854 H 0.40332 0.84296 0.6325 0.0
H1855 H 0.3751 0.85829 0.63044 0.0
C1856 C 0.58351 0.63449 0.30778 0.0
C1857 C 0.60766 0.64454 0.32115 0.0
C1858 C 0.59783 0.62192 0.31238 0.0
C1859 C 0.63634 0.61937 0.33149 0.0
C1860 C 0.65878 0.62943 0.34655 0.0
C1861 C 0.64461 0.64194 0.34087 0.0
C1862 C 0.57361 0.61147 0.29541 0.0
C1863 C 0.69902 0.62703 0.36768 0.0
C1864 C 0.64403 0.58451 0.35006 0.0
C1865 C 0.67709 0.58032 0.3292 0.0
C1866 C 0.63335 0.59744 0.35291 0.0
C1867 C 0.65509 0.60625 0.33373 0.0
C1868 C 0.69095 0.60215 0.31405 0.0
C1869 C 0.70209 0.58923 0.31239 0.0
C1870 C 0.59629 0.60152 0.37492 0.0
C1871 C 0.7143 0.61119 0.29277 0.0
H1872 H 0.55528 0.63647 0.2923 0.0
H1873 H 0.66325 0.64971 0.35132 0.0
H1874 H 0.59971 0.60688 0.28053 0.0
H1875 H 0.56014 0.60407 0.31054 0.0
H1876 H 0.54333 0.61501 0.28211 0.0
H1877 H 0.70812 0.63563 0.38056 0.0
H1878 H 0.68954 0.61927 0.383 0.0
H1879 H 0.7312 0.624 0.35545 0.0
H1880 H 0.62479 0.57762 0.36314 0.0
H1881 H 0.72732 0.58601 0.29601 0.0
H1882 H 0.56235 0.60356 0.36348 0.0
H1883 H 0.60755 0.61033 0.38621 0.0
H1884 H 0.58948 0.59406 0.39157 0.0
H1885 H 0.68762 0.61438 0.27647 0.0
H1886 H 0.74452 0.60674 0.28087 0.0
H1887 H 0.72755 0.61974 0.30427 0.0
C1888 C 0.65967 0.63668 0.94818 0.0
C1889 C 0.63884 0.64664 0.93256 0.0
C1890 C 0.64544 0.62411 0.94343 0.0
C1891 C 0.61073 0.62144 0.92182 0.0
C1892 C 0.59174 0.6314 0.90473 0.0
C1893 C 0.60536 0.64394 0.9107 0.0
C1894 C 0.6657 0.6138 0.96267 0.0
C1895 C 0.55602 0.62885 0.88082 0.0
C1896 C 0.60657 0.58634 0.90577 0.0
C1897 C 0.56963 0.58247 0.92439 0.0
C1898 C 0.61754 0.59923 0.90239 0.0
C1899 C 0.59209 0.60834 0.91893 0.0
C1900 C 0.55248 0.60452 0.93605 0.0
C1901 C 0.54119 0.59162 0.93812 0.0
C1902 C 0.65873 0.60298 0.88297 0.0
C1903 C 0.52511 0.61386 0.95465 0.0
H1904 H 0.68513 0.63876 0.96532 0.0
H1905 H 0.58936 0.65166 0.89854 0.0
H1906 H 0.63656 0.6092 0.97525 0.0
H1907 H 0.6827 0.60637 0.94905 0.0
H1908 H 0.69252 0.61747 0.97836 0.0
H1909 H 0.5492 0.63739 0.86724 0.0
H1910 H 0.56882 0.62109 0.86642 0.0
H1911 H 0.5218 0.62571 0.89058 0.0
H1912 H 0.62847 0.57926 0.89504 0.0
H1913 H 0.51289 0.58864 0.95277 0.0
H1914 H 0.69061 0.60481 0.89663 0.0
H1915 H 0.65058 0.61181 0.8708 0.0
H1916 H 0.66769 0.59539 0.86704 0.0
H1917 H 0.54818 0.6172 0.97278 0.0
H1918 H 0.49244 0.60959 0.96427 0.0
H1919 H 0.51478 0.62228 0.94166 0.0
C1920 C 0.32622 0.39564 0.64667 0.0
C1921 C 0.36218 0.40165 0.66274 0.0
C1922 C 0.32753 0.38251 0.64195 0.0
C1923 C 0.36448 0.37531 0.65475 0.0
C1924 C 0.40348 0.38155 0.66812 0.0
C1925 C 0.4022 0.39472 0.6715 0.0
C1926 C 0.28711 0.37625 0.62577 0.0
C1927 C 0.44371 0.37424 0.6821 0.0
C1928 C 0.33593 0.345 0.69451 0.0
C1929 C 0.36299 0.33632 0.6786 0.0
C1930 C 0.33342 0.35767 0.68571 0.0
C1931 C 0.3578 0.36157 0.66001 0.0
C1932 C 0.38124 0.35249 0.64235 0.0
C1933 C 0.3845 0.33994 0.65227 0.0
C1934 C 0.30851 0.36707 0.70545 0.0
C1935 C 0.40589 0.35612 0.61421 0.0
H1936 H 0.29571 0.40105 0.63931 0.0
H1937 H 0.43027 0.39937 0.68374 0.0
H1938 H 0.30005 0.36804 0.61282 0.0
H1939 H 0.26044 0.3727 0.64173 0.0
H1940 H 0.26902 0.38303 0.61088 0.0
H1941 H 0.47343 0.38052 0.68896 0.0
H1942 H 0.43014 0.36917 0.70171 0.0
H1943 H 0.45793 0.36702 0.66679 0.0
H1944 H 0.31999 0.3421 0.71509 0.0
H1945 H 0.40573 0.33313 0.64019 0.0
H1946 H 0.28221 0.37268 0.69285 0.0
H1947 H 0.33496 0.37381 0.7146 0.0
H1948 H 0.2897 0.36238 0.72392 0.0
H1949 H 0.3874 0.36406 0.60311 0.0
H1950 H 0.40786 0.34793 0.59898 0.0
H1951 H 0.44286 0.35917 0.61902 0.0
C1952 C 0.42312 0.38781 0.03787 0.0
C1953 C 0.40955 0.39697 0.05843 0.0
C1954 C 0.41534 0.37495 0.0432 0.0
C1955 C 0.39454 0.3712 0.07006 0.0
C1956 C 0.38372 0.38033 0.0917 0.0
C1957 C 0.39075 0.3932 0.08546 0.0
C1958 C 0.42628 0.3655 0.01925 0.0
C1959 C 0.36255 0.37657 0.12081 0.0
C1960 C 0.31965 0.34181 0.06315 0.0
C1961 C 0.35202 0.33235 0.07134 0.0
C1962 C 0.33247 0.35458 0.06394 0.0
C1963 C 0.37851 0.35797 0.07366 0.0
C1964 C 0.41024 0.34857 0.08393 0.0
C1965 C 0.39661 0.3358 0.08258 0.0
C1966 C 0.29788 0.36435 0.0524 0.0
C1967 C 0.45947 0.35193 0.09462 0.0
H1968 H 0.43755 0.39072 0.01689 0.0
H1969 H 0.3808 0.4003 0.10148 0.0
H1970 H 0.44738 0.35747 0.02797 0.0
H1971 H 0.39248 0.36155 0.0106 0.0
H1972 H 0.44626 0.36985 1.00079 0.0
H1973 H 0.36243 0.38455 0.13665 0.0
H1974 H 0.32531 0.37334 0.11763 0.0
H1975 H 0.38269 0.36853 0.13038 0.0
H1976 H 0.28496 0.33922 0.05466 0.0
H1977 H 0.42176 0.32852 0.08895 0.0
H1978 H 0.31245 0.36866 0.03212 0.0
H1979 H 0.29295 0.37208 0.06853 0.0
H1980 H 0.26247 0.3602 0.04732 0.0
H1981 H 0.48177 0.35504 0.07588 0.0
H1982 H 0.47731 0.34378 0.10537 0.0
H1983 H 0.45774 0.35995 0.11031 0.0
C1984 C 0.9825 0.04232 0.35657 0.0
C1985 C 0.9788 0.04017 0.32635 0.0
C1986 C 0.94294 0.04099 0.37508 0.0
C1987 C 0.89838 0.03756 0.36305 0.0
C1988 C 0.89448 0.03519 0.33264 0.0
C1989 C 0.93485 0.03644 0.31465 0.0
C1990 C 0.94865 0.04347 0.40743 0.0
C1991 C 0.84739 0.03163 0.31902 0.0
C1992 C 0.80003 0.02559 0.41333 0.0
C1993 C 0.7727 0.03658 0.41732 0.0
C1994 C 0.84133 0.02576 0.3959 0.0
C1995 C 0.85536 0.03718 0.38205 0.0
C1996 C 0.82827 0.04833 0.38632 0.0
C1997 C 0.78743 0.0479 0.40396 0.0
C1998 C 0.86972 0.01373 0.39211 0.0
C1999 C 0.84207 0.06069 0.37194 0.0
H2000 H 0.01645 0.04508 0.36586 0.0
H2001 H 0.93175 0.03476 0.29134 0.0
H2002 H 0.92682 0.05177 0.41392 0.0
H2003 H 0.93561 0.03522 0.42022 0.0
H2004 H 0.98628 0.04534 0.41354 0.0
H2005 H 0.85063 0.02969 0.29521 0.0
H2006 H 0.83256 0.02311 0.32993 0.0
H2007 H 0.82141 0.03943 0.32223 0.0
H2008 H 0.78896 0.01681 0.4236 0.0
H2009 H 0.76659 0.05645 0.40688 0.0
H2010 H 0.9072 0.01531 0.39882 0.0
H2011 H 0.87024 0.01095 0.3687 0.0
H2012 H 0.85489 0.00574 0.40509 0.0
H2013 H 0.87852 0.06347 0.3787 0.0
H2014 H 0.81724 0.06852 0.37757 0.0
H2015 H 0.84254 0.05953 0.34781 0.0
C2016 C 0.25888 0.19941 0.35906 0.0
C2017 C 0.26496 0.19434 0.33091 0.0
C2018 C 0.29779 0.20091 0.37798 0.0
C2019 C 0.34384 0.1974 0.36836 0.0
C2020 C 0.35044 0.19274 0.33958 0.0
C2021 C 0.31088 0.19121 0.32125 0.0
C2022 C 0.28937 0.20583 0.40858 0.0
C2023 C 0.39916 0.18904 0.32841 0.0
C2024 C 0.45559 0.20869 0.40696 0.0
C2025 C 0.46928 0.19773 0.42214 0.0
C2026 C 0.41381 0.2089 0.39016 0.0
C2027 C 0.38495 0.19792 0.38873 0.0
C2028 C 0.39725 0.18707 0.40526 0.0
C2029 C 0.43933 0.18709 0.42171 0.0
C2030 C 0.40182 0.22065 0.37283 0.0
C2031 C 0.36705 0.17522 0.40456 0.0
H2032 H 0.22346 0.20182 0.36671 0.0
H2033 H 0.31587 0.18737 0.29946 0.0
H2034 H 0.29783 0.1983 0.4247 0.0
H2035 H 0.31333 0.21395 0.41318 0.0
H2036 H 0.25195 0.2089 0.41205 0.0
H2037 H 0.39863 0.18631 0.30494 0.0
H2038 H 0.42452 0.19701 0.33126 0.0
H2039 H 0.41293 0.18092 0.34129 0.0
H2040 H 0.47846 0.21697 0.40721 0.0
H2041 H 0.44944 0.17861 0.43357 0.0
H2042 H 0.36432 0.22349 0.37676 0.0
H2043 H 0.40551 0.21862 0.34911 0.0
H2044 H 0.42541 0.22875 0.37839 0.0
H2045 H 0.32932 0.17756 0.40938 0.0
H2046 H 0.37934 0.16799 0.42053 0.0
H2047 H 0.36825 0.171 0.38234 0.0
C2048 C 0.76125 0.20547 0.87097 0.0
C2049 C 0.75636 0.1978 0.84608 0.0
C2050 C 0.80522 0.20659 0.8853 0.0
C2051 C 0.84501 0.19979 0.87458 0.0
C2052 C 0.84055 0.19228 0.84907 0.0
C2053 C 0.79632 0.19141 0.83507 0.0
C2054 C 0.80889 0.21484 0.91219 0.0
C2055 C 0.88225 0.18489 0.83697 0.0
C2056 C 0.9719 0.20816 0.89493 0.0
C2057 C 0.98242 0.19877 0.91567 0.0
C2058 C 0.92655 0.20899 0.88229 0.0
C2059 C 0.89109 0.20013 0.89042 0.0
C2060 C 0.90087 0.19097 0.91223 0.0
C2061 C 0.94642 0.19044 0.92472 0.0
C2062 C 0.91721 0.21901 0.85943 0.0
C2063 C 0.86389 0.18135 0.92142 0.0
H2064 H 0.73059 0.21051 0.8795 0.0
H2065 H 0.79287 0.18548 0.81582 0.0
H2066 H 0.81761 0.20892 0.9315 0.0
H2067 H 0.83817 0.22181 0.90952 0.0
H2068 H 0.77531 0.22005 0.91675 0.0
H2069 H 0.87314 0.17974 0.81654 0.0
H2070 H 0.91247 0.19137 0.83234 0.0
H2071 H 0.89463 0.17791 0.85344 0.0
H2072 H -0.00057 0.21474 0.88807 0.0
H2073 H 0.95428 0.18319 0.94079 0.0
H2074 H 0.88385 0.2242 0.8645 0.0
H2075 H 0.91243 0.21445 0.83776 0.0
H2076 H 0.94685 0.22595 0.85775 0.0
H2077 H 0.83037 0.18618 0.92781 0.0
H2078 H 0.87607 0.17542 0.94002 0.0
H2079 H 0.85553 0.17505 0.90269 0.0
C2080 C 0.2775 0.04232 0.89514 0.0
C2081 C 0.27936 0.03718 0.92345 0.0
C2082 C 0.31657 0.04151 0.87612 0.0
C2083 C 0.35888 0.03557 0.88572 0.0
C2084 C 0.36079 0.03015 0.91406 0.0
C2085 C 0.32081 0.03094 0.93256 0.0
C2086 C 0.31288 0.04728 0.84595 0.0
C2087 C 0.40555 0.02387 0.92516 0.0
C2088 C 0.45229 0.02653 0.82895 0.0
C2089 C 0.48301 0.037 0.83015 0.0
C2090 C 0.41161 0.0259 0.84691 0.0
C2091 C 0.40203 0.03588 0.86681 0.0
C2092 C 0.43304 0.04643 0.86815 0.0
C2093 C 0.47286 0.04691 0.84967 0.0
C2094 C 0.37881 0.01461 0.84452 0.0
C2095 C 0.42432 0.05721 0.88923 0.0
H2096 H 0.2454 0.04703 0.88778 0.0
H2097 H 0.32244 0.02694 0.95437 0.0
H2098 H 0.33798 0.05536 0.844 0.0
H2099 H 0.3231 0.04021 0.82909 0.0
H2100 H 0.27639 0.05074 0.8411 0.0
H2101 H 0.40062 0.01964 0.94721 0.0
H2102 H 0.41709 0.01633 0.9098 0.0
H2103 H 0.43476 0.03094 0.92627 0.0
H2104 H 0.45991 0.01885 0.81392 0.0
H2105 H 0.4966 0.05499 0.85095 0.0
H2106 H 0.34238 0.01781 0.83873 0.0
H2107 H 0.3763 0.00971 0.86594 0.0
H2108 H 0.39106 0.0077 0.82779 0.0
H2109 H 0.38966 0.06178 0.88437 0.0
H2110 H 0.45268 0.06455 0.88816 0.0
H2111 H 0.42235 0.05354 0.91195 0.0
C2112 C 0.21994 0.94851 0.61075 0.0
C2113 C 0.21821 0.949 0.58006 0.0
C2114 C 0.17863 0.95009 0.62777 0.0
C2115 C 0.1343 0.95214 0.61385 0.0
C2116 C 0.13246 0.95298 0.58293 0.0
C2117 C 0.17441 0.95144 0.56643 0.0
C2118 C 0.18224 0.94921 0.66067 0.0
C2119 C 0.0859 0.95512 0.56722 0.0
C2120 C 0.02306 0.94138 0.65443 0.0
C2121 C 0.00449 0.95285 0.66505 0.0
C2122 C 0.06499 0.94107 0.63768 0.0
C2123 C 0.08949 0.95249 0.63151 0.0
C2124 C 0.07128 0.96411 0.64233 0.0
C2125 C 0.02888 0.96416 0.65887 0.0
C2126 C 0.08294 0.92848 0.62644 0.0
C2127 C 0.09658 0.97647 0.63642 0.0
H2128 H 0.25359 0.94671 0.62155 0.0
H2129 H 0.17263 0.95187 0.54276 0.0
H2130 H 0.16568 0.95764 0.671 0.0
H2131 H 0.16242 0.94076 0.66852 0.0
H2132 H 0.21972 0.94847 0.66822 0.0
H2133 H 0.09082 0.95626 0.54324 0.0
H2134 H 0.06174 0.94697 0.57116 0.0
H2135 H 0.06793 0.96369 0.57591 0.0
H2136 H 0.0045 0.93258 0.65892 0.0
H2137 H 0.0149 0.97307 0.66697 0.0
H2138 H 0.11933 0.92666 0.63485 0.0
H2139 H 0.08525 0.92869 0.6022 0.0
H2140 H 0.05957 0.92046 0.633 0.0
H2141 H 0.13361 0.97601 0.64478 0.0
H2142 H 0.07828 0.98466 0.64675 0.0
H2143 H 0.09882 0.97815 0.61249 0.0
C2144 C 0.73385 0.77038 0.63818 0.0
C2145 C 0.74571 0.77796 0.6623 0.0
C2146 C 0.68689 0.76986 0.62774 0.0
C2147 C 0.65103 0.77707 0.64179 0.0
C2148 C 0.66226 0.78415 0.66714 0.0
C2149 C 0.70945 0.78451 0.67709 0.0
C2150 C 0.67622 0.76212 0.60074 0.0
C2151 C 0.62494 0.7919 0.68288 0.0
C2152 C 0.5487 0.78922 0.59564 0.0
C2153 C 0.51203 0.78075 0.6029 0.0
C2154 C 0.59412 0.78803 0.608 0.0
C2155 C 0.60301 0.77822 0.6284 0.0
C2156 C 0.56608 0.7697 0.63606 0.0
C2157 C 0.52104 0.77102 0.62307 0.0
C2158 C 0.63272 0.79724 0.59907 0.0
C2159 C 0.57414 0.75922 0.65798 0.0
H2160 H 0.76154 0.7652 0.62674 0.0
H2161 H 0.71815 0.79031 0.69592 0.0
H2162 H 0.64455 0.75603 0.60439 0.0
H2163 H 0.66783 0.76857 0.58227 0.0
H2164 H 0.70668 0.75602 0.59425 0.0
H2165 H 0.63815 0.79571 0.70402 0.0
H2166 H 0.61404 0.79998 0.66888 0.0
H2167 H 0.59269 0.7861 0.68713 0.0
H2168 H 0.54214 0.79671 0.57993 0.0
H2169 H 0.49283 0.76446 0.62883 0.0
H2170 H 0.66348 0.79202 0.58975 0.0
H2171 H 0.64574 0.80247 0.61854 0.0
H2172 H 0.62016 0.80423 0.58263 0.0
H2173 H 0.60323 0.75292 0.65033 0.0
H2174 H 0.54166 0.75341 0.66163 0.0
H2175 H 0.5855 0.7633 0.67922 0.0
C2176 C 0.22762 0.7779 0.12877 0.0
C2177 C 0.23242 0.78354 0.15642 0.0
C2178 C 0.18305 0.77711 0.11496 0.0
C2179 C 0.14214 0.78198 0.12921 0.0
C2180 C 0.14651 0.78733 0.15749 0.0
C2181 C 0.1916 0.78813 0.17067 0.0
C2182 C 0.1799 0.77128 0.08485 0.0
C2183 C 0.10363 0.79239 0.1737 0.0
C2184 C 0.03725 0.79242 0.08242 0.0
C2185 C 0.00586 0.78215 0.08531 0.0
C2186 C 0.08166 0.79245 0.09656 0.0
C2187 C 0.09517 0.78196 0.114 0.0
C2188 C 0.06383 0.77151 0.11685 0.0
C2189 C 0.01964 0.77173 0.10248 0.0
C2190 C 0.11409 0.80377 0.09299 0.0
C2191 C 0.07678 0.76016 0.13531 0.0
H2192 H 0.25888 0.77427 0.11763 0.0
H2193 H 0.19484 0.79236 0.19218 0.0
H2194 H 0.15334 0.76349 0.08477 0.0
H2195 H 0.16759 0.7785 0.06893 0.0
H2196 H 0.21464 0.76746 0.07724 0.0
H2197 H 0.11256 0.79556 0.19621 0.0
H2198 H 0.08834 0.80052 0.16155 0.0
H2199 H 0.07559 0.785 0.1751 0.0
H2200 H 0.02695 0.80052 0.06931 0.0
H2201 H 0.9957 0.76374 0.10491 0.0
H2202 H 0.1488 0.80072 0.08372 0.0
H2203 H 0.12135 0.80808 0.11466 0.0
H2204 H 0.09859 0.81113 0.07848 0.0
H2205 H 0.11052 0.75592 0.12731 0.0
H2206 H 0.04865 0.75275 0.13506 0.0
H2207 H 0.08279 0.76315 0.15828 0.0
C2208 C 0.72197 0.95566 0.10502 0.0
C2209 C 0.71528 0.95147 0.07615 0.0
C2210 C 0.68293 0.95792 0.12363 0.0
C2211 C 0.63611 0.95588 0.1132 0.0
C2212 C 0.62911 0.95245 0.08355 0.0
C2213 C 0.66872 0.9503 0.06539 0.0
C2214 C 0.69197 0.96179 0.15493 0.0
C2215 C 0.57979 0.95025 0.07145 0.0
C2216 C 0.54173 0.94351 0.16543 0.0
C2217 C 0.51183 0.95406 0.1689 0.0
C2218 C 0.58284 0.94413 0.14802 0.0
C2219 C 0.595 0.95564 0.13394 0.0
C2220 C 0.56633 0.96652 0.13844 0.0
C2221 C 0.52484 0.96558 0.1557 0.0
C2222 C 0.61225 0.93228 0.14378 0.0
C2223 C 0.57864 0.97903 0.12432 0.0
H2224 H 0.75777 0.95674 0.11349 0.0
H2225 H 0.66309 0.94721 0.04306 0.0
H2226 H 0.66783 0.96962 0.16145 0.0
H2227 H 0.68451 0.95366 0.16962 0.0
H2228 H 0.72939 0.96485 0.1584 0.0
H2229 H 0.58009 0.94886 0.04736 0.0
H2230 H 0.56405 0.94169 0.0818 0.0
H2231 H 0.55622 0.95836 0.07671 0.0
H2232 H 0.53219 0.93457 0.17553 0.0
H2233 H 0.50217 0.97381 0.1584 0.0
H2234 H 0.6499 0.93412 0.14974 0.0
H2235 H 0.61169 0.92946 0.12039 0.0
H2236 H 0.59895 0.92421 0.1571 0.0
H2237 H 0.61667 0.98138 0.12802 0.0
H2238 H 0.55631 0.9869 0.13282 0.0
H2239 H 0.57331 0.97835 0.10033 0.0
C2240 C 0.92108 0.53287 0.82034 0.0
C2241 C 0.96665 0.53469 0.83212 0.0
C2242 C 0.88089 0.53195 0.8386 0.0
C2243 C 0.88652 0.53281 0.86934 0.0
C2244 C 0.93262 0.53413 0.88137 0.0
C2245 C 0.97206 0.53509 0.86264 0.0
C2246 C 0.83224 0.5305 0.82499 0.0
C2247 C 0.94015 0.53497 0.91403 0.0
C2248 C 0.78273 0.54562 0.91359 0.0
C2249 C 0.76263 0.53452 0.92511 0.0
C2250 C 0.82308 0.54517 0.89551 0.0
C2251 C 0.84404 0.53332 0.88881 0.0
C2252 C 0.82457 0.52208 0.9008 0.0
C2253 C 0.78405 0.52281 0.91882 0.0
C2254 C 0.8429 0.55737 0.88323 0.0
C2255 C 0.8461 0.50928 0.89424 0.0
H2256 H 0.91658 0.53249 0.79681 0.0
H2257 H 0.00718 0.53636 0.87199 0.0
H2258 H 0.81321 0.52232 0.83482 0.0
H2259 H 0.81064 0.53909 0.82953 0.0
H2260 H 0.83416 0.52911 0.80092 0.0
H2261 H 0.97849 0.53502 0.91996 0.0
H2262 H 0.92355 0.54377 0.92254 0.0
H2263 H 0.92262 0.52688 0.9252 0.0
H2264 H 0.76648 0.55471 0.91831 0.0
H2265 H 0.76872 0.51417 0.92757 0.0
H2266 H 0.84201 0.55709 0.85897 0.0
H2267 H 0.88067 0.55851 0.88982 0.0
H2268 H 0.82266 0.56581 0.89076 0.0
H2269 H 0.84383 0.50732 0.87044 0.0
H2270 H 0.82789 0.5015 0.90624 0.0
H2271 H 0.88439 0.50922 0.90016 0.0
C2272 C 0.31817 0.6979 0.81214 0.0
C2273 C 0.27168 0.69758 0.82339 0.0
C2274 C 0.35757 0.69932 0.83077 0.0
C2275 C 0.35024 0.70049 0.86132 0.0
C2276 C 0.30334 0.70072 0.87266 0.0
C2277 C 0.26466 0.69924 0.85358 0.0
C2278 C 0.40711 0.69906 0.81786 0.0
C2279 C 0.29404 0.70205 0.90508 0.0
C2280 C 0.44959 0.68861 0.91023 0.0
C2281 C 0.47297 0.69989 0.91786 0.0
C2282 C 0.40929 0.68872 0.89219 0.0
C2283 C 0.39165 0.70041 0.88159 0.0
C2284 C 0.41409 0.71187 0.88992 0.0
C2285 C 0.45458 0.71148 0.90793 0.0
C2286 C 0.38626 0.67629 0.88391 0.0
C2287 C 0.39602 0.72452 0.87926 0.0
H2288 H 0.32395 0.69669 0.78886 0.0
H2289 H 0.22886 0.69913 0.86249 0.0
H2290 H 0.42789 0.70736 0.8255 0.0
H2291 H 0.42603 0.69043 0.82542 0.0
H2292 H 0.40669 0.69907 0.79356 0.0
H2293 H 0.25557 0.70324 0.91008 0.0
H2294 H 0.30711 0.69349 0.91664 0.0
H2295 H 0.31375 0.7103 0.91401 0.0
H2296 H 0.4634 0.6796 0.91782 0.0
H2297 H 0.47234 0.72024 0.91375 0.0
H2298 H 0.3881 0.67497 0.85984 0.0
H2299 H 0.34806 0.67636 0.89013 0.0
H2300 H 0.40365 0.66805 0.89458 0.0
H2301 H 0.39974 0.72508 0.85512 0.0
H2302 H 0.41565 0.73259 0.88915 0.0
H2303 H 0.35759 0.72555 0.88443 0.0
C2304 C 0.93551 0.70542 0.43667 0.0
C2305 C 0.97708 0.69986 0.42555 0.0
C2306 C 0.89428 0.7063 0.41938 0.0
C2307 C 0.89522 0.70174 0.39023 0.0
C2308 C 0.93776 0.69662 0.37859 0.0
C2309 C 0.97797 0.69562 0.39647 0.0
C2310 C 0.84931 0.71166 0.43263 0.0
C2311 C 0.94046 0.69184 0.34746 0.0
C2312 C 0.78364 0.68901 0.35451 0.0
C2313 C 0.77086 0.69898 0.33578 0.0
C2314 C 0.82304 0.69002 0.37305 0.0
C2315 C 0.85091 0.70118 0.3726 0.0
C2316 C 0.83808 0.71134 0.35396 0.0
C2317 C 0.79789 0.71015 0.33588 0.0
C2318 C 0.83528 0.67901 0.39282 0.0
C2319 C 0.86741 0.72332 0.35264 0.0
H2320 H 0.93479 0.70875 0.45911 0.0
H2321 H 0.01029 0.69151 0.38759 0.0
H2322 H 0.83445 0.71918 0.41836 0.0
H2323 H 0.82204 0.70408 0.43431 0.0
H2324 H 0.85538 0.71567 0.45478 0.0
H2325 H 0.97731 0.68922 0.34098 0.0
H2326 H 0.91736 0.68338 0.34498 0.0
H2327 H 0.92716 0.69917 0.33211 0.0
H2328 H 0.76261 0.6804 0.35485 0.0
H2329 H 0.78809 0.71789 0.32151 0.0
H2330 H 0.83849 0.6823 0.41579 0.0
H2331 H 0.87023 0.67498 0.38636 0.0
H2332 H 0.80817 0.67135 0.39193 0.0
H2333 H 0.87113 0.72746 0.37483 0.0
H2334 H 0.85149 0.73055 0.33796 0.0
H2335 H 0.90379 0.72109 0.34466 0.0
C2336 C 0.46972 0.53777 0.35707 0.0
C2337 C 0.46707 0.53768 0.3264 0.0
C2338 C 0.42861 0.53667 0.37439 0.0
C2339 C 0.38357 0.53557 0.36077 0.0
C2340 C 0.38067 0.53529 0.32983 0.0
C2341 C 0.42249 0.53628 0.31301 0.0
C2342 C 0.43333 0.53692 0.4073 0.0
C2343 C 0.33326 0.53425 0.31449 0.0
C2344 C 0.27859 0.52419 0.40686 0.0
C2345 C 0.25695 0.53569 0.41466 0.0
C2346 C 0.31961 0.52397 0.3891 0.0
C2347 C 0.33941 0.53551 0.37892 0.0
C2348 C 0.31759 0.54713 0.3866 0.0
C2349 C 0.27675 0.54708 0.40431 0.0
C2350 C 0.34201 0.5114 0.3814 0.0
C2351 C 0.33763 0.55966 0.3763 0.0
H2352 H 0.50406 0.53873 0.36764 0.0
H2353 H 0.42013 0.5362 0.28934 0.0
H2354 H 0.41507 0.54542 0.41619 0.0
H2355 H 0.41579 0.52849 0.41702 0.0
H2356 H 0.4711 0.53712 0.41447 0.0
H2357 H 0.3372 0.53361 0.29035 0.0
H2358 H 0.3137 0.52577 0.32236 0.0
H2359 H 0.31108 0.54265 0.31975 0.0
H2360 H 0.26361 0.51535 0.41471 0.0
H2361 H 0.26043 0.55603 0.41015 0.0
H2362 H 0.37909 0.51106 0.38972 0.0
H2363 H 0.34385 0.5103 0.35729 0.0
H2364 H 0.32193 0.50326 0.39068 0.0
H2365 H 0.37443 0.56087 0.38465 0.0
H2366 H 0.31587 0.56784 0.38372 0.0
H2367 H 0.3396 0.55982 0.35206 0.0
C2368 C 0.00996 0.44683 0.1314 0.0
C2369 C 0.00925 0.4514 0.16025 0.0
C2370 C 0.05213 0.44687 0.11478 0.0
C2371 C 0.0947 0.45161 0.12723 0.0
C2372 C 0.09394 0.45656 0.15604 0.0
C2373 C 0.05128 0.4564 0.17218 0.0
C2374 C 0.0514 0.44151 0.08415 0.0
C2375 C 0.13853 0.46173 0.1701 0.0
C2376 C 0.21278 0.43935 0.09772 0.0
C2377 C 0.22779 0.44937 0.0797 0.0
C2378 C 0.16958 0.43996 0.1132 0.0
C2379 C 0.14047 0.45086 0.11066 0.0
C2380 C 0.15523 0.46099 0.09244 0.0
C2381 C 0.1987 0.46013 0.0772 0.0
C2382 C 0.15518 0.42895 0.1324 0.0
C2383 C 0.12515 0.47275 0.08912 0.0
H2384 H 0.97772 0.44296 0.12194 0.0
H2385 H 0.05116 0.45997 0.19441 0.0
H2386 H 0.0658 0.44855 0.06841 0.0
H2387 H 0.07463 0.43302 0.083 0.0
H2388 H 0.01497 0.43877 0.07712 0.0
H2389 H 0.13154 0.46579 0.19212 0.0
H2390 H 0.16529 0.45406 0.17228 0.0
H2391 H 0.1545 0.46919 0.15607 0.0
H2392 H 0.2349 0.43099 0.09984 0.0
H2393 H 0.2099 0.46792 0.06335 0.0
H2394 H 0.12018 0.42517 0.12527 0.0
H2395 H 0.15104 0.43218 0.15536 0.0
H2396 H 0.18162 0.42112 0.13184 0.0
H2397 H 0.08929 0.47017 0.08088 0.0
H2398 H 0.14136 0.47973 0.07387 0.0
H2399 H 0.12014 0.47734 0.11074 0.0
C2400 C 0.71734 0.29434 0.15944 0.0
C2401 C 0.73812 0.28284 0.16809 0.0
C2402 C 0.67441 0.29457 0.14374 0.0
C2403 C 0.65142 0.28303 0.13665 0.0
C2404 C 0.67147 0.27141 0.14601 0.0
C2405 C 0.71463 0.27145 0.16154 0.0
C2406 C 0.65426 0.30716 0.13412 0.0
C2407 C 0.64786 0.25891 0.13906 0.0
C2408 C 0.52083 0.28476 0.11484 0.0
C2409 C 0.52386 0.28483 0.08417 0.0
C2410 C 0.56197 0.28399 0.13221 0.0
C2411 C 0.60721 0.28314 0.11862 0.0
C2412 C 0.61039 0.28282 0.0877 0.0
C2413 C 0.56874 0.28373 0.07086 0.0
C2414 C 0.5571 0.28444 0.1651 0.0
C2415 C 0.65793 0.28181 0.07236 0.0
H2416 H 0.7352 0.3032 0.16433 0.0
H2417 H 0.73029 0.26253 0.1682 0.0
H2418 H 0.65328 0.30761 0.10987 0.0
H2419 H 0.6171 0.30819 0.14205 0.0
H2420 H 0.67553 0.3153 0.14229 0.0
H2421 H 0.66689 0.25075 0.14897 0.0
H2422 H 0.61055 0.25892 0.1471 0.0
H2423 H 0.6466 0.25754 0.11501 0.0
H2424 H 0.48635 0.28566 0.12534 0.0
H2425 H 0.57143 0.28371 0.0472 0.0
H2426 H 0.57504 0.29304 0.17368 0.0
H2427 H 0.57494 0.27613 0.17509 0.0
H2428 H 0.51929 0.28458 0.17231 0.0
H2429 H 0.67999 0.29024 0.07749 0.0
H2430 H 0.65417 0.28109 0.04823 0.0
H2431 H 0.67755 0.27336 0.08033 0.0
C2432 C 0.03006 0.27508 0.59535 0.0
C2433 C 0.0355 0.28293 0.57076 0.0
C2434 C 0.06856 0.27265 0.61419 0.0
C2435 C 0.11343 0.27825 0.60834 0.0
C2436 C 0.11978 0.28552 0.58257 0.0
C2437 C 0.08081 0.28775 0.56411 0.0
C2438 C 0.06049 0.26467 0.64116 0.0
C2439 C 0.16714 0.29156 0.57532 0.0
C2440 C 0.19649 0.28802 0.66966 0.0
C2441 C 0.23375 0.27925 0.66668 0.0
C2442 C 0.15606 0.2874 0.65172 0.0
C2443 C 0.15245 0.27771 0.63039 0.0
C2444 C 0.18842 0.26835 0.62854 0.0
C2445 C 0.22877 0.26926 0.64661 0.0
C2446 C 0.11844 0.29756 0.65451 0.0
C2447 C 0.18552 0.25773 0.60648 0.0
H2448 H 0.99529 0.27122 0.60058 0.0
H2449 H 0.08557 0.29371 0.54501 0.0
H2450 H 0.08992 0.25778 0.64407 0.0
H2451 H 0.05995 0.27088 0.66076 0.0
H2452 H 0.02623 0.25942 0.64021 0.0
H2453 H 0.16729 0.29603 0.55331 0.0
H2454 H 0.1755 0.29894 0.59183 0.0
H2455 H 0.19601 0.2844 0.57615 0.0
H2456 H 0.19975 0.29573 0.68519 0.0
H2457 H 0.25713 0.26237 0.6443 0.0
H2458 H 0.08266 0.29321 0.65679 0.0
H2459 H 0.11809 0.30344 0.63437 0.0
H2460 H 0.12473 0.30387 0.67357 0.0
H2461 H 0.14947 0.25342 0.60654 0.0
H2462 H 0.21222 0.2502 0.61082 0.0
H2463 H 0.19198 0.26157 0.58423 0.0
C2464 C 0.59123 0.43804 0.68156 0.0
C2465 C 0.54519 0.44246 0.67563 0.0
C2466 C 0.62864 0.44006 0.66166 0.0
C2467 C 0.61963 0.44651 0.63506 0.0
C2468 C 0.57374 0.45146 0.6295 0.0
C2469 C 0.53714 0.44943 0.64993 0.0
C2470 C 0.67744 0.43488 0.66863 0.0
C2471 C 0.56266 0.45836 0.60139 0.0
C2472 C 0.72798 0.4576 0.59228 0.0
C2473 C 0.73563 0.44732 0.57334 0.0
C2474 C 0.68943 0.45769 0.61188 0.0
C2475 C 0.65754 0.44731 0.61235 0.0
C2476 C 0.66349 0.43726 0.59213 0.0
C2477 C 0.7026 0.43736 0.57295 0.0
C2478 C 0.68426 0.4686 0.63305 0.0
C2479 C 0.62959 0.42615 0.59154 0.0
H2480 H 0.59784 0.43274 0.70146 0.0
H2481 H 0.50169 0.45291 0.64514 0.0
H2482 H 0.68648 0.4272 0.65301 0.0
H2483 H 0.70475 0.44241 0.6661 0.0
H2484 H 0.67955 0.43103 0.69121 0.0
H2485 H 0.52678 0.46279 0.60179 0.0
H2486 H 0.58956 0.46583 0.59708 0.0
H2487 H 0.56415 0.45159 0.58283 0.0
H2488 H 0.75322 0.46538 0.59269 0.0
H2489 H 0.70799 0.42944 0.55822 0.0
H2490 H 0.69186 0.46524 0.65556 0.0
H2491 H 0.64724 0.47225 0.63294 0.0
H2492 H 0.70893 0.47652 0.62786 0.0
H2493 H 0.63258 0.42073 0.61226 0.0
H2494 H 0.63692 0.41962 0.573 0.0
H2495 H 0.59229 0.42953 0.58985 0.0
loop_
_geom_bond_atom_site_label_1
_geom_bond_atom_site_label_2
_geom_bond_distance
_geom_bond_site_symmetry_2
_ccdc_geom_bond_type
Zn0 O3 2.031 . S
Zn0 O5 2.049 . S
Zn0 O10 2.067 . S
Zn1 O2 1.962 . S
Zn1 O4 1.986 . S
Zn1 O6 1.996 . S
Zn1 O9 1.943 . S
O2 Zn1 1.962 . S
O2 C7 1.254 . S
O3 Zn0 2.031 . S
O3 C7 1.269 . S
O4 Zn1 1.986 . S
O4 C11 1.262 . S
O5 Zn0 2.049 . S
O5 C13 1.260 . S
O6 Zn1 1.996 . S
O6 C13 1.257 . S
C7 O2 1.254 . S
C7 O3 1.269 . S
C8 O9 1.249 . S
C8 O10 1.270 . S
O9 Zn1 1.943 . S
O9 C8 1.249 . S
O10 Zn0 2.067 . S
O10 C8 1.270 . S
C11 O4 1.262 . S
C11 O12 1.232 . S
O12 C11 1.232 . S
C13 O5 1.260 . S
C13 O6 1.257 . S
Zn14 O17 2.031 . S
Zn14 O19 2.049 . S
Zn14 O24 2.067 . S
Zn15 O16 1.962 . S
Zn15 O18 1.986 . S
Zn15 O20 1.996 . S
Zn15 O23 1.943 . S
O16 Zn15 1.962 . S
O16 C21 1.254 . S
O17 Zn14 2.031 . S
O17 C21 1.269 . S
O18 Zn15 1.986 . S
O18 C25 1.262 . S
O19 Zn14 2.049 . S
O19 C27 1.260 . S
O20 Zn15 1.996 . S
O20 C27 1.257 . S
C21 O16 1.254 . S
C21 O17 1.269 . S
C22 O23 1.249 . S
C22 O24 1.270 . S
O23 Zn15 1.943 . S
O23 C22 1.249 . S
O24 Zn14 2.067 . S
O24 C22 1.270 . S
C25 O18 1.262 . S
C25 O26 1.232 . S
O26 C25 1.232 . S
C27 O19 1.260 . S
C27 O20 1.257 . S
Zn28 O31 2.031 . S
Zn28 O33 2.049 1_554 S
Zn28 O38 2.067 . S
Zn29 O30 1.962 . S
Zn29 O32 1.986 . S
Zn29 O34 1.996 . S
Zn29 O37 1.943 1_556 S
O30 Zn29 1.962 . S
O30 C35 1.254 . S
O31 Zn28 2.031 . S
O31 C35 1.269 1_554 S
O32 Zn29 1.986 . S
O32 C39 1.262 . S
O33 Zn28 2.049 1_556 S
O33 C41 1.260 . S
O34 Zn29 1.996 . S
O34 C41 1.257 . S
C35 O30 1.254 . S
C35 O31 1.269 1_556 S
C36 O37 1.249 . S
C36 O38 1.270 . S
O37 Zn29 1.943 1_554 S
O37 C36 1.249 . S
O38 Zn28 2.067 . S
O38 C36 1.270 . S
C39 O32 1.262 . S
C39 O40 1.232 . S
O40 C39 1.232 . S
C41 O33 1.260 . S
C41 O34 1.257 . S
Zn42 O45 2.031 . S
Zn42 O47 2.049 1_554 S
Zn42 O52 2.067 . S
Zn43 O44 1.962 . S
Zn43 O46 1.986 . S
Zn43 O48 1.996 . S
Zn43 O51 1.943 1_556 S
O44 Zn43 1.962 . S
O44 C49 1.254 . S
O45 Zn42 2.031 . S
O45 C49 1.269 1_554 S
O46 Zn43 1.986 . S
O46 C53 1.262 . S
O47 Zn42 2.049 1_556 S
O47 C55 1.260 . S
O48 Zn43 1.996 . S
O48 C55 1.257 . S
C49 O44 1.254 . S
C49 O45 1.269 1_556 S
C50 O51 1.249 . S
C50 O52 1.270 . S
O51 Zn43 1.943 1_554 S
O51 C50 1.249 . S
O52 Zn42 2.067 . S
O52 C50 1.270 . S
C53 O46 1.262 . S
C53 O54 1.232 . S
O54 C53 1.232 . S
C55 O47 1.260 . S
C55 O48 1.257 . S
Zn56 O59 2.031 . S
Zn56 O61 2.049 . S
Zn56 O66 2.067 . S
Zn57 O58 1.962 . S
Zn57 O60 1.986 . S
Zn57 O62 1.996 . S
Zn57 O65 1.943 . S
O58 Zn57 1.962 . S
O58 C63 1.254 . S
O59 Zn56 2.031 . S
O59 C63 1.269 . S
O60 Zn57 1.986 . S
O60 C67 1.262 . S
O61 Zn56 2.049 . S
O61 C69 1.260 . S
O62 Zn57 1.996 . S
O62 C69 1.257 . S
C63 O58 1.254 . S
C63 O59 1.269 . S
C64 O65 1.249 . S
C64 O66 1.270 . S
O65 Zn57 1.943 . S
O65 C64 1.249 . S
O66 Zn56 2.067 . S
O66 C64 1.270 . S
C67 O60 1.262 . S
C67 O68 1.232 . S
O68 C67 1.232 . S
C69 O61 1.260 . S
C69 O62 1.257 . S
Zn70 O73 2.031 . S
Zn70 O75 2.049 . S
Zn70 O80 2.067 . S
Zn71 O72 1.962 . S
Zn71 O74 1.986 . S
Zn71 O76 1.996 . S
Zn71 O79 1.943 . S
O72 Zn71 1.962 . S
O72 C77 1.254 . S
O73 Zn70 2.031 . S
O73 C77 1.269 . S
O74 Zn71 1.986 . S
O74 C81 1.262 . S
O75 Zn70 2.049 . S
O75 C83 1.260 . S
O76 Zn71 1.996 . S
O76 C83 1.257 . S
C77 O72 1.254 . S
C77 O73 1.269 . S
C78 O79 1.249 . S
C78 O80 1.270 . S
O79 Zn71 1.943 . S
O79 C78 1.249 . S
O80 Zn70 2.067 . S
O80 C78 1.270 . S
C81 O74 1.262 . S
C81 O82 1.232 . S
O82 C81 1.232 . S
C83 O75 1.260 . S
C83 O76 1.257 . S
Zn84 O87 2.031 . S
Zn84 O89 2.049 1_556 S
Zn84 O94 2.067 . S
Zn85 O86 1.962 . S
Zn85 O88 1.986 . S
Zn85 O90 1.996 . S
Zn85 O93 1.943 1_554 S
O86 Zn85 1.962 . S
O86 C91 1.254 . S
O87 Zn84 2.031 . S
O87 C91 1.269 1_556 S
O88 Zn85 1.986 . S
O88 C95 1.262 . S
O89 Zn84 2.049 1_554 S
O89 C97 1.260 . S
O90 Zn85 1.996 . S
O90 C97 1.257 . S
C91 O86 1.254 . S
C91 O87 1.269 1_554 S
C92 O93 1.249 . S
C92 O94 1.270 . S
O93 Zn85 1.943 1_556 S
O93 C92 1.249 . S
O94 Zn84 2.067 . S
O94 C92 1.270 . S
C95 O88 1.262 . S
C95 O96 1.232 . S
O96 C95 1.232 . S
C97 O89 1.260 . S
C97 O90 1.257 . S
Zn98 O101 2.031 . S
Zn98 O103 2.049 1_556 S
Zn98 O108 2.067 . S
Zn99 O100 1.962 . S
Zn99 O102 1.986 . S
Zn99 O104 1.996 . S
Zn99 O107 1.943 1_554 S
O100 Zn99 1.962 . S
O100 C105 1.254 . S
O101 Zn98 2.031 . S
O101 C105 1.269 1_556 S
O102 Zn99 1.986 . S
O102 C109 1.262 . S
O103 Zn98 2.049 1_554 S
O103 C111 1.260 . S
O104 Zn99 1.996 . S
O104 C111 1.257 . S
C105 O100 1.254 . S
C105 O101 1.269 1_554 S
C106 O107 1.249 . S
C106 O108 1.270 . S
O107 Zn99 1.943 1_556 S
O107 C106 1.249 . S
O108 Zn98 2.067 . S
O108 C106 1.270 . S
C109 O102 1.262 . S
C109 O110 1.232 . S
O110 C109 1.232 . S
C111 O103 1.260 . S
C111 O104 1.257 . S
Zn112 O115 2.031 . S
Zn112 O117 2.049 . S
Zn112 O122 2.067 . S
Zn113 O114 1.962 . S
Zn113 O116 1.986 . S
Zn113 O118 1.996 . S
Zn113 O121 1.943 . S
O114 Zn113 1.962 . S
O114 C119 1.254 . S
O115 Zn112 2.031 . S
O115 C119 1.269 . S
O116 Zn113 1.986 . S
O116 C123 1.262 . S
O117 Zn112 2.049 . S
O117 C125 1.260 . S
O118 Zn113 1.996 . S
O118 C125 1.257 . S
C119 O114 1.254 . S
C119 O115 1.269 . S
C120 O121 1.249 . S
C120 O122 1.270 . S
O121 Zn113 1.943 . S
O121 C120 1.249 . S
O122 Zn112 2.067 . S
O122 C120 1.270 . S
C123 O116 1.262 . S
C123 O124 1.232 . S
O124 C123 1.232 . S
C125 O117 1.260 . S
C125 O118 1.257 . S
Zn126 O129 2.031 . S
Zn126 O131 2.049 . S
Zn126 O136 2.067 . S
Zn127 O128 1.962 . S
Zn127 O130 1.986 . S
Zn127 O132 1.996 . S
Zn127 O135 1.943 . S
O128 Zn127 1.962 . S
O128 C133 1.254 . S
O129 Zn126 2.031 . S
O129 C133 1.269 . S
O130 Zn127 1.986 . S
O130 C137 1.262 . S
O131 Zn126 2.049 . S
O131 C139 1.260 . S
O132 Zn127 1.996 . S
O132 C139 1.257 . S
C133 O128 1.254 . S
C133 O129 1.269 . S
C134 O135 1.249 . S
C134 O136 1.270 . S
O135 Zn127 1.943 . S
O135 C134 1.249 . S
O136 Zn126 2.067 . S
O136 C134 1.270 . S
C137 O130 1.262 . S
C137 O138 1.232 . S
O138 C137 1.232 . S
C139 O131 1.260 . S
C139 O132 1.257 . S
Zn140 O143 2.031 . S
Zn140 O145 2.049 . S
Zn140 O150 2.067 . S
Zn141 O142 1.962 . S
Zn141 O144 1.986 . S
Zn141 O146 1.996 . S
Zn141 O149 1.943 . S
O142 Zn141 1.962 . S
O142 C147 1.254 . S
O143 Zn140 2.031 . S
O143 C147 1.269 . S
O144 Zn141 1.986 . S
O144 C151 1.262 . S
O145 Zn140 2.049 . S
O145 C153 1.260 . S
O146 Zn141 1.996 . S
O146 C153 1.257 . S
C147 O142 1.254 . S
C147 O143 1.269 . S
C148 O149 1.249 . S
C148 O150 1.270 . S
O149 Zn141 1.943 . S
O149 C148 1.249 . S
O150 Zn140 2.067 . S
O150 C148 1.270 . S
C151 O144 1.262 . S
C151 O152 1.232 . S
O152 C151 1.232 . S
C153 O145 1.260 . S
C153 O146 1.257 . S
Zn154 O157 2.031 . S
Zn154 O159 2.049 . S
Zn154 O164 2.067 . S
Zn155 O156 1.962 . S
Zn155 O158 1.986 . S
Zn155 O160 1.996 . S
Zn155 O163 1.943 . S
O156 Zn155 1.962 . S
O156 C161 1.254 . S
O157 Zn154 2.031 . S
O157 C161 1.269 . S
O158 Zn155 1.986 . S
O158 C165 1.262 . S
O159 Zn154 2.049 . S
O159 C167 1.260 . S
O160 Zn155 1.996 . S
O160 C167 1.257 . S
C161 O156 1.254 . S
C161 O157 1.269 . S
C162 O163 1.249 . S
C162 O164 1.270 . S
O163 Zn155 1.943 . S
O163 C162 1.249 . S
O164 Zn154 2.067 . S
O164 C162 1.270 . S
C165 O158 1.262 . S
C165 O166 1.232 . S
O166 C165 1.232 . S
C167 O159 1.260 . S
C167 O160 1.257 . S
Zn168 O171 2.031 . S
Zn168 O173 2.049 . S
Zn168 O178 2.067 . S
Zn169 O170 1.962 . S
Zn169 O172 1.986 . S
Zn169 O174 1.996 . S
Zn169 O177 1.943 . S
O170 Zn169 1.962 . S
O170 C175 1.254 . S
O171 Zn168 2.031 . S
O171 C175 1.269 . S
O172 Zn169 1.986 . S
O172 C179 1.262 . S
O173 Zn168 2.049 . S
O173 C181 1.260 . S
O174 Zn169 1.996 . S
O174 C181 1.257 . S
C175 O170 1.254 . S
C175 O171 1.269 . S
C176 O177 1.249 . S
C176 O178 1.270 . S
O177 Zn169 1.943 . S
O177 C176 1.249 . S
O178 Zn168 2.067 . S
O178 C176 1.270 . S
C179 O172 1.262 . S
C179 O180 1.232 . S
O180 C179 1.232 . S
C181 O173 1.260 . S
C181 O174 1.257 . S
Zn182 O185 2.031 . S
Zn182 O187 2.049 . S
Zn182 O192 2.067 . S
Zn183 O184 1.962 . S
Zn183 O186 1.986 . S
Zn183 O188 1.996 . S
Zn183 O191 1.943 . S
O184 Zn183 1.962 . S
O184 C189 1.254 . S
O185 Zn182 2.031 . S
O185 C189 1.269 . S
O186 Zn183 1.986 . S
O186 C193 1.262 . S
O187 Zn182 2.049 . S
O187 C195 1.260 . S
O188 Zn183 1.996 . S
O188 C195 1.257 . S
C189 O184 1.254 . S
C189 O185 1.269 . S
C190 O191 1.249 . S
C190 O192 1.270 . S
O191 Zn183 1.943 . S
O191 C190 1.249 . S
O192 Zn182 2.067 . S
O192 C190 1.270 . S
C193 O186 1.262 . S
C193 O194 1.232 . S
O194 C193 1.232 . S
C195 O187 1.260 . S
C195 O188 1.257 . S
Zn196 O199 2.031 . S
Zn196 O201 2.049 . S
Zn196 O206 2.067 . S
Zn197 O198 1.962 . S
Zn197 O200 1.986 . S
Zn197 O202 1.996 . S
Zn197 O205 1.943 . S
O198 Zn197 1.962 . S
O198 C203 1.254 . S
O199 Zn196 2.031 . S
O199 C203 1.269 . S
O200 Zn197 1.986 . S
O200 C207 1.262 . S
O201 Zn196 2.049 . S
O201 C209 1.260 . S
O202 Zn197 1.996 . S
O202 C209 1.257 . S
C203 O198 1.254 . S
C203 O199 1.269 . S
C204 O205 1.249 . S
C204 O206 1.270 . S
O205 Zn197 1.943 . S
O205 C204 1.249 . S
O206 Zn196 2.067 . S
O206 C204 1.270 . S
C207 O200 1.262 . S
C207 O208 1.232 . S
O208 C207 1.232 . S
C209 O201 1.260 . S
C209 O202 1.257 . S
Zn210 O213 2.031 . S
Zn210 O215 2.049 . S
Zn210 O220 2.067 . S
Zn211 O212 1.962 . S
Zn211 O214 1.986 . S
Zn211 O216 1.996 . S
Zn211 O219 1.943 . S
O212 Zn211 1.962 . S
O212 C217 1.254 . S
O213 Zn210 2.031 . S
O213 C217 1.269 . S
O214 Zn211 1.986 . S
O214 C221 1.262 . S
O215 Zn210 2.049 . S
O215 C223 1.260 . S
O216 Zn211 1.996 . S
O216 C223 1.257 . S
C217 O212 1.254 . S
C217 O213 1.269 . S
C218 O219 1.249 . S
C218 O220 1.270 . S
O219 Zn211 1.943 . S
O219 C218 1.249 . S
O220 Zn210 2.067 . S
O220 C218 1.270 . S
C221 O214 1.262 . S
C221 O222 1.232 . S
O222 C221 1.232 . S
C223 O215 1.260 . S
C223 O216 1.257 . S
Zn224 O227 2.031 . S
Zn224 O229 2.049 . S
Zn224 O234 2.067 . S
Zn225 O226 1.962 . S
Zn225 O228 1.986 . S
Zn225 O230 1.996 . S
Zn225 O233 1.943 . S
O226 Zn225 1.962 . S
O226 C231 1.254 . S
O227 Zn224 2.031 . S
O227 C231 1.269 . S
O228 Zn225 1.986 . S
O228 C235 1.262 . S
O229 Zn224 2.049 . S
O229 C237 1.260 . S
O230 Zn225 1.996 . S
O230 C237 1.257 . S
C231 O226 1.254 . S
C231 O227 1.269 . S
C232 O233 1.249 . S
C232 O234 1.270 . S
O233 Zn225 1.943 . S
O233 C232 1.249 . S
O234 Zn224 2.067 . S
O234 C232 1.270 . S
C235 O228 1.262 . S
C235 O236 1.232 . S
O236 C235 1.232 . S
C237 O229 1.260 . S
C237 O230 1.257 . S
Zn238 O241 2.031 . S
Zn238 O243 2.049 . S
Zn238 O248 2.067 . S
Zn239 O240 1.962 . S
Zn239 O242 1.986 . S
Zn239 O244 1.996 . S
Zn239 O247 1.943 . S
O240 Zn239 1.962 . S
O240 C245 1.254 . S
O241 Zn238 2.031 . S
O241 C245 1.269 . S
O242 Zn239 1.986 . S
O242 C249 1.262 . S
O243 Zn238 2.049 . S
O243 C251 1.260 . S
O244 Zn239 1.996 . S
O244 C251 1.257 . S
C245 O240 1.254 . S
C245 O241 1.269 . S
C246 O247 1.249 . S
C246 O248 1.270 . S
O247 Zn239 1.943 . S
O247 C246 1.249 . S
O248 Zn238 2.067 . S
O248 C246 1.270 . S
C249 O242 1.262 . S
C249 O250 1.232 . S
O250 C249 1.232 . S
C251 O243 1.260 . S
C251 O244 1.257 . S
Zn252 O255 2.031 . S
Zn252 O257 2.049 . S
Zn252 O262 2.067 . S
Zn253 O254 1.962 . S
Zn253 O256 1.986 . S
Zn253 O258 1.996 . S
Zn253 O261 1.943 . S
O254 Zn253 1.962 . S
O254 C259 1.254 . S
O255 Zn252 2.031 . S
O255 C259 1.269 . S
O256 Zn253 1.986 . S
O256 C263 1.262 . S
O257 Zn252 2.049 . S
O257 C265 1.260 . S
O258 Zn253 1.996 . S
O258 C265 1.257 . S
C259 O254 1.254 . S
C259 O255 1.269 . S
C260 O261 1.249 . S
C260 O262 1.270 . S
O261 Zn253 1.943 . S
O261 C260 1.249 . S
O262 Zn252 2.067 . S
O262 C260 1.270 . S
C263 O256 1.262 . S
C263 O264 1.232 . S
O264 C263 1.232 . S
C265 O257 1.260 . S
C265 O258 1.257 . S
Zn266 O269 2.031 . S
Zn266 O271 2.049 . S
Zn266 O276 2.067 . S
Zn267 O268 1.962 . S
Zn267 O270 1.986 . S
Zn267 O272 1.996 . S
Zn267 O275 1.943 . S
O268 Zn267 1.962 . S
O268 C273 1.254 . S
O269 Zn266 2.031 . S
O269 C273 1.269 . S
O270 Zn267 1.986 . S
O270 C277 1.262 . S
O271 Zn266 2.049 . S
O271 C279 1.260 . S
O272 Zn267 1.996 . S
O272 C279 1.257 . S
C273 O268 1.254 . S
C273 O269 1.269 . S
C274 O275 1.249 . S
C274 O276 1.270 . S
O275 Zn267 1.943 . S
O275 C274 1.249 . S
O276 Zn266 2.067 . S
O276 C274 1.270 . S
C277 O270 1.262 . S
C277 O278 1.232 . S
O278 C277 1.232 . S
C279 O271 1.260 . S
C279 O272 1.257 . S
Zn280 O283 2.031 . S
Zn280 O285 2.049 . S
Zn280 O290 2.067 . S
Zn281 O282 1.962 . S
Zn281 O284 1.986 . S
Zn281 O286 1.996 . S
Zn281 O289 1.943 . S
O282 Zn281 1.962 . S
O282 C287 1.254 . S
O283 Zn280 2.031 . S
O283 C287 1.269 . S
O284 Zn281 1.986 . S
O284 C291 1.262 . S
O285 Zn280 2.049 . S
O285 C293 1.260 . S
O286 Zn281 1.996 . S
O286 C293 1.257 . S
C287 O282 1.254 . S
C287 O283 1.269 . S
C288 O289 1.249 . S
C288 O290 1.270 . S
O289 Zn281 1.943 . S
O289 C288 1.249 . S
O290 Zn280 2.067 . S
O290 C288 1.270 . S
C291 O284 1.262 . S
C291 O292 1.232 . S
O292 C291 1.232 . S
C293 O285 1.260 . S
C293 O286 1.257 . S
Zn294 O297 2.031 . S
Zn294 O299 2.049 . S
Zn294 O304 2.067 . S
Zn295 O296 1.962 . S
Zn295 O298 1.986 . S
Zn295 O300 1.996 . S
Zn295 O303 1.943 . S
O296 Zn295 1.962 . S
O296 C301 1.254 . S
O297 Zn294 2.031 . S
O297 C301 1.269 . S
O298 Zn295 1.986 . S
O298 C305 1.262 . S
O299 Zn294 2.049 . S
O299 C307 1.260 . S
O300 Zn295 1.996 . S
O300 C307 1.257 . S
C301 O296 1.254 . S
C301 O297 1.269 . S
C302 O303 1.249 . S
C302 O304 1.270 . S
O303 Zn295 1.943 . S
O303 C302 1.249 . S
O304 Zn294 2.067 . S
O304 C302 1.270 . S
C305 O298 1.262 . S
C305 O306 1.232 . S
O306 C305 1.232 . S
C307 O299 1.260 . S
C307 O300 1.257 . S
Zn308 O311 2.031 . S
Zn308 O313 2.049 . S
Zn308 O318 2.067 . S
Zn309 O310 1.962 . S
Zn309 O312 1.986 . S
Zn309 O314 1.996 . S
Zn309 O317 1.943 . S
O310 Zn309 1.962 . S
O310 C315 1.254 . S
O311 Zn308 2.031 . S
O311 C315 1.269 . S
O312 Zn309 1.986 . S
O312 C319 1.262 . S
O313 Zn308 2.049 . S
O313 C321 1.260 . S
O314 Zn309 1.996 . S
O314 C321 1.257 . S
C315 O310 1.254 . S
C315 O311 1.269 . S
C316 O317 1.249 . S
C316 O318 1.270 . S
O317 Zn309 1.943 . S
O317 C316 1.249 . S
O318 Zn308 2.067 . S
O318 C316 1.270 . S
C319 O312 1.262 . S
C319 O320 1.232 . S
O320 C319 1.232 . S
C321 O313 1.260 . S
C321 O314 1.257 . S
Zn322 O325 2.031 . S
Zn322 O327 2.049 . S
Zn322 O332 2.067 . S
Zn323 O324 1.962 . S
Zn323 O326 1.986 . S
Zn323 O328 1.996 . S
Zn323 O331 1.943 . S
O324 Zn323 1.962 . S
O324 C329 1.254 . S
O325 Zn322 2.031 . S
O325 C329 1.269 . S
O326 Zn323 1.986 . S
O326 C333 1.262 . S
O327 Zn322 2.049 . S
O327 C335 1.260 . S
O328 Zn323 1.996 . S
O328 C335 1.257 . S
C329 O324 1.254 . S
C329 O325 1.269 . S
C330 O331 1.249 . S
C330 O332 1.270 . S
O331 Zn323 1.943 . S
O331 C330 1.249 . S
O332 Zn322 2.067 . S
O332 C330 1.270 . S
C333 O326 1.262 . S
C333 O334 1.232 . S
O334 C333 1.232 . S
C335 O327 1.260 . S
C335 O328 1.257 . S
Zn336 O339 2.031 . S
Zn336 O341 2.049 . S
Zn336 O346 2.067 . S
Zn337 O338 1.962 . S
Zn337 O340 1.986 . S
Zn337 O342 1.996 . S
Zn337 O345 1.943 . S
O338 Zn337 1.962 . S
O338 C343 1.254 . S
O339 Zn336 2.031 . S
O339 C343 1.269 . S
O340 Zn337 1.986 . S
O340 C347 1.262 . S
O341 Zn336 2.049 . S
O341 C349 1.260 . S
O342 Zn337 1.996 . S
O342 C349 1.257 . S
C343 O338 1.254 . S
C343 O339 1.269 . S
C344 O345 1.249 . S
C344 O346 1.270 . S
O345 Zn337 1.943 . S
O345 C344 1.249 . S
O346 Zn336 2.067 . S
O346 C344 1.270 . S
C347 O340 1.262 . S
C347 O348 1.232 . S
O348 C347 1.232 . S
C349 O341 1.260 . S
C349 O342 1.257 . S
Zn350 O353 2.031 . S
Zn350 O355 2.049 . S
Zn350 O360 2.067 . S
Zn351 O352 1.962 . S
Zn351 O354 1.986 . S
Zn351 O356 1.996 . S
Zn351 O359 1.943 . S
O352 Zn351 1.962 . S
O352 C357 1.254 . S
O353 Zn350 2.031 . S
O353 C357 1.269 . S
O354 Zn351 1.986 . S
O354 C361 1.262 . S
O355 Zn350 2.049 . S
O355 C363 1.260 . S
O356 Zn351 1.996 . S
O356 C363 1.257 . S
C357 O352 1.254 . S
C357 O353 1.269 . S
C358 O359 1.249 . S
C358 O360 1.270 . S
O359 Zn351 1.943 . S
O359 C358 1.249 . S
O360 Zn350 2.067 . S
O360 C358 1.270 . S
C361 O354 1.262 . S
C361 O362 1.232 . S
O362 C361 1.232 . S
C363 O355 1.260 . S
C363 O356 1.257 . S
Zn364 O367 2.031 . S
Zn364 O369 2.049 1_554 S
Zn364 O374 2.067 . S
Zn365 O366 1.962 . S
Zn365 O368 1.986 . S
Zn365 O370 1.996 . S
Zn365 O373 1.943 1_556 S
O366 Zn365 1.962 . S
O366 C371 1.254 . S
O367 Zn364 2.031 . S
O367 C371 1.269 1_554 S
O368 Zn365 1.986 . S
O368 C375 1.262 . S
O369 Zn364 2.049 1_556 S
O369 C377 1.260 . S
O370 Zn365 1.996 . S
O370 C377 1.257 . S
C371 O366 1.254 . S
C371 O367 1.269 1_556 S
C372 O373 1.249 . S
C372 O374 1.270 . S
O373 Zn365 1.943 1_554 S
O373 C372 1.249 . S
O374 Zn364 2.067 . S
O374 C372 1.270 . S
C375 O368 1.262 . S
C375 O376 1.232 . S
O376 C375 1.232 . S
C377 O369 1.260 . S
C377 O370 1.257 . S
Zn378 O381 2.031 . S
Zn378 O383 2.049 1_554 S
Zn378 O388 2.067 . S
Zn379 O380 1.962 . S
Zn379 O382 1.986 . S
Zn379 O384 1.996 . S
Zn379 O387 1.943 1_556 S
O380 Zn379 1.962 . S
O380 C385 1.254 . S
O381 Zn378 2.031 . S
O381 C385 1.269 1_554 S
O382 Zn379 1.986 . S
O382 C389 1.262 . S
O383 Zn378 2.049 1_556 S
O383 C391 1.260 . S
O384 Zn379 1.996 . S
O384 C391 1.257 . S
C385 O380 1.254 . S
C385 O381 1.269 1_556 S
C386 O387 1.249 . S
C386 O388 1.270 . S
O387 Zn379 1.943 1_554 S
O387 C386 1.249 . S
O388 Zn378 2.067 . S
O388 C386 1.270 . S
C389 O382 1.262 . S
C389 O390 1.232 . S
O390 C389 1.232 . S
C391 O383 1.260 . S
C391 O384 1.257 . S
Zn392 O395 2.031 . S
Zn392 O397 2.049 . S
Zn392 O402 2.067 . S
Zn393 O394 1.962 . S
Zn393 O396 1.986 . S
Zn393 O398 1.996 . S
Zn393 O401 1.943 . S
O394 Zn393 1.962 . S
O394 C399 1.254 . S
O395 Zn392 2.031 . S
O395 C399 1.269 . S
O396 Zn393 1.986 . S
O396 C403 1.262 . S
O397 Zn392 2.049 . S
O397 C405 1.260 . S
O398 Zn393 1.996 . S
O398 C405 1.257 . S
C399 O394 1.254 . S
C399 O395 1.269 . S
C400 O401 1.249 . S
C400 O402 1.270 . S
O401 Zn393 1.943 . S
O401 C400 1.249 . S
O402 Zn392 2.067 . S
O402 C400 1.270 . S
C403 O396 1.262 . S
C403 O404 1.232 . S
O404 C403 1.232 . S
C405 O397 1.260 . S
C405 O398 1.257 . S
Zn406 O409 2.031 . S
Zn406 O411 2.049 . S
Zn406 O416 2.067 . S
Zn407 O408 1.962 . S
Zn407 O410 1.986 . S
Zn407 O412 1.996 . S
Zn407 O415 1.943 . S
O408 Zn407 1.962 . S
O408 C413 1.254 . S
O409 Zn406 2.031 . S
O409 C413 1.269 . S
O410 Zn407 1.986 . S
O410 C417 1.262 . S
O411 Zn406 2.049 . S
O411 C419 1.260 . S
O412 Zn407 1.996 . S
O412 C419 1.257 . S
C413 O408 1.254 . S
C413 O409 1.269 . S
C414 O415 1.249 . S
C414 O416 1.270 . S
O415 Zn407 1.943 . S
O415 C414 1.249 . S
O416 Zn406 2.067 . S
O416 C414 1.270 . S
C417 O410 1.262 . S
C417 O418 1.232 . S
O418 C417 1.232 . S
C419 O411 1.260 . S
C419 O412 1.257 . S
Zn420 O423 2.031 . S
Zn420 O425 2.049 1_556 S
Zn420 O430 2.067 . S
Zn421 O422 1.962 . S
Zn421 O424 1.986 . S
Zn421 O426 1.996 . S
Zn421 O429 1.943 1_554 S
O422 Zn421 1.962 . S
O422 C427 1.254 . S
O423 Zn420 2.031 . S
O423 C427 1.269 1_556 S
O424 Zn421 1.986 . S
O424 C431 1.262 . S
O425 Zn420 2.049 1_554 S
O425 C433 1.260 . S
O426 Zn421 1.996 . S
O426 C433 1.257 . S
C427 O422 1.254 . S
C427 O423 1.269 1_554 S
C428 O429 1.249 . S
C428 O430 1.270 . S
O429 Zn421 1.943 1_556 S
O429 C428 1.249 . S
O430 Zn420 2.067 . S
O430 C428 1.270 . S
C431 O424 1.262 . S
C431 O432 1.232 . S
O432 C431 1.232 . S
C433 O425 1.260 . S
C433 O426 1.257 . S
Zn434 O437 2.031 . S
Zn434 O439 2.049 1_556 S
Zn434 O444 2.067 . S
Zn435 O436 1.962 . S
Zn435 O438 1.986 . S
Zn435 O440 1.996 . S
Zn435 O443 1.943 1_554 S
O436 Zn435 1.962 . S
O436 C441 1.254 . S
O437 Zn434 2.031 . S
O437 C441 1.269 1_556 S
O438 Zn435 1.986 . S
O438 C445 1.262 . S
O439 Zn434 2.049 1_554 S
O439 C447 1.260 . S
O440 Zn435 1.996 . S
O440 C447 1.257 . S
C441 O436 1.254 . S
C441 O437 1.269 1_554 S
C442 O443 1.249 . S
C442 O444 1.270 . S
O443 Zn435 1.943 1_556 S
O443 C442 1.249 . S
O444 Zn434 2.067 . S
O444 C442 1.270 . S
C445 O438 1.262 . S
C445 O446 1.232 . S
O446 C445 1.232 . S
C447 O439 1.260 . S
C447 O440 1.257 . S
C448 C449 1.391 . S
C448 C450 1.394 . S
C448 H464 0.931 . S
C449 C448 1.391 . S
C449 C453 1.376 . S
C450 C448 1.394 . S
C450 C451 1.369 . S
C450 C454 1.531 . S
C451 C450 1.369 . S
C451 C452 1.410 . S
C451 C459 1.503 . S
C452 C451 1.410 . S
C452 C453 1.392 . S
C452 C455 1.511 . S
C453 C449 1.376 . S
C453 C452 1.392 . S
C453 H465 0.929 . S
C454 C450 1.531 . S
C454 H466 0.960 . S
C454 H467 0.962 . S
C454 H468 0.960 . S
C455 C452 1.511 . S
C455 H469 0.961 . S
C455 H470 0.961 . S
C455 H471 0.961 . S
C456 C457 1.370 . S
C456 C458 1.363 . S
C456 H472 0.931 . S
C457 C456 1.370 . S
C457 C461 1.408 . S
C458 C456 1.363 . S
C458 C459 1.370 . S
C458 C462 1.524 . S
C459 C451 1.503 . S
C459 C458 1.370 . S
C459 C460 1.403 . S
C460 C459 1.403 . S
C460 C461 1.404 . S
C460 C463 1.539 . S
C461 C457 1.408 . S
C461 C460 1.404 . S
C461 H473 0.930 . S
C462 C458 1.524 . S
C462 H474 0.956 . S
C462 H475 0.961 . S
C462 H476 0.961 . S
C463 C460 1.539 . S
C463 H477 0.958 . S
C463 H478 0.961 . S
C463 H479 0.960 . S
H464 C448 0.931 . S
H465 C453 0.929 . S
H466 C454 0.960 . S
H467 C454 0.962 . S
H468 C454 0.960 . S
H469 C455 0.961 . S
H470 C455 0.961 . S
H471 C455 0.961 . S
H472 C456 0.931 . S
H473 C461 0.930 . S
H474 C462 0.956 . S
H475 C462 0.961 . S
H476 C462 0.961 . S
H477 C463 0.958 . S
H478 C463 0.961 . S
H479 C463 0.960 . S
C480 C481 1.391 . S
C480 C482 1.394 . S
C480 H496 0.931 . S
C481 C480 1.391 . S
C481 C485 1.376 . S
C482 C480 1.394 . S
C482 C483 1.369 . S
C482 C486 1.531 . S
C483 C482 1.369 . S
C483 C484 1.410 . S
C483 C491 1.503 . S
C484 C483 1.410 . S
C484 C485 1.392 . S
C484 C487 1.511 . S
C485 C481 1.376 . S
C485 C484 1.392 . S
C485 H497 0.929 . S
C486 C482 1.531 . S
C486 H498 0.960 . S
C486 H499 0.962 . S
C486 H500 0.960 . S
C487 C484 1.511 . S
C487 H501 0.961 . S
C487 H502 0.961 . S
C487 H503 0.961 . S
C488 C489 1.370 . S
C488 C490 1.363 . S
C488 H504 0.931 . S
C489 C488 1.370 . S
C489 C493 1.408 . S
C490 C488 1.363 . S
C490 C491 1.370 . S
C490 C494 1.524 . S
C491 C483 1.503 . S
C491 C490 1.370 . S
C491 C492 1.403 . S
C492 C491 1.403 . S
C492 C493 1.404 . S
C492 C495 1.539 . S
C493 C489 1.408 . S
C493 C492 1.404 . S
C493 H505 0.930 . S
C494 C490 1.524 . S
C494 H506 0.956 . S
C494 H507 0.961 . S
C494 H508 0.961 . S
C495 C492 1.539 . S
C495 H509 0.958 . S
C495 H510 0.961 . S
C495 H511 0.960 . S
H496 C480 0.931 . S
H497 C485 0.929 . S
H498 C486 0.960 . S
H499 C486 0.962 . S
H500 C486 0.960 . S
H501 C487 0.961 . S
H502 C487 0.961 . S
H503 C487 0.961 . S
H504 C488 0.931 . S
H505 C493 0.930 . S
H506 C494 0.956 . S
H507 C494 0.961 . S
H508 C494 0.961 . S
H509 C495 0.958 . S
H510 C495 0.961 . S
H511 C495 0.960 . S
C512 C513 1.391 . S
C512 C514 1.394 . S
C512 H528 0.931 . S
C513 C512 1.391 . S
C513 C517 1.376 . S
C514 C512 1.394 . S
C514 C515 1.369 . S
C514 C518 1.531 . S
C515 C514 1.369 . S
C515 C516 1.410 . S
C515 C523 1.503 . S
C516 C515 1.410 . S
C516 C517 1.392 . S
C516 C519 1.511 . S
C517 C513 1.376 . S
C517 C516 1.392 . S
C517 H529 0.929 . S
C518 C514 1.531 . S
C518 H530 0.960 . S
C518 H531 0.962 . S
C518 H532 0.960 . S
C519 C516 1.511 . S
C519 H533 0.961 . S
C519 H534 0.961 . S
C519 H535 0.961 . S
C520 C521 1.370 . S
C520 C522 1.363 . S
C520 H536 0.931 . S
C521 C520 1.370 . S
C521 C525 1.408 . S
C522 C520 1.363 . S
C522 C523 1.370 . S
C522 C526 1.524 . S
C523 C515 1.503 . S
C523 C522 1.370 . S
C523 C524 1.403 . S
C524 C523 1.403 . S
C524 C525 1.404 . S
C524 C527 1.539 . S
C525 C521 1.408 . S
C525 C524 1.404 . S
C525 H537 0.930 . S
C526 C522 1.524 . S
C526 H538 0.956 . S
C526 H539 0.961 . S
C526 H540 0.961 . S
C527 C524 1.539 . S
C527 H541 0.958 . S
C527 H542 0.961 . S
C527 H543 0.960 . S
H528 C512 0.931 . S
H529 C517 0.929 . S
H530 C518 0.960 . S
H531 C518 0.962 . S
H532 C518 0.960 . S
H533 C519 0.961 . S
H534 C519 0.961 . S
H535 C519 0.961 . S
H536 C520 0.931 . S
H537 C525 0.930 . S
H538 C526 0.956 . S
H539 C526 0.961 . S
H540 C526 0.961 . S
H541 C527 0.958 . S
H542 C527 0.961 . S
H543 C527 0.960 . S
C544 C545 1.391 . S
C544 C546 1.394 . S
C544 H560 0.931 . S
C545 C544 1.391 . S
C545 C549 1.376 . S
C546 C544 1.394 . S
C546 C547 1.369 . S
C546 C550 1.531 . S
C547 C546 1.369 . S
C547 C548 1.410 . S
C547 C555 1.503 . S
C548 C547 1.410 . S
C548 C549 1.392 . S
C548 C551 1.511 . S
C549 C545 1.376 . S
C549 C548 1.392 . S
C549 H561 0.929 . S
C550 C546 1.531 . S
C550 H562 0.960 . S
C550 H563 0.962 . S
C550 H564 0.960 . S
C551 C548 1.511 . S
C551 H565 0.961 . S
C551 H566 0.961 . S
C551 H567 0.961 . S
C552 C553 1.370 . S
C552 C554 1.363 . S
C552 H568 0.931 . S
C553 C552 1.370 . S
C553 C557 1.408 . S
C554 C552 1.363 . S
C554 C555 1.370 . S
C554 C558 1.524 . S
C555 C547 1.503 . S
C555 C554 1.370 . S
C555 C556 1.403 . S
C556 C555 1.403 . S
C556 C557 1.404 . S
C556 C559 1.539 . S
C557 C553 1.408 . S
C557 C556 1.404 . S
C557 H569 0.930 . S
C558 C554 1.524 . S
C558 H570 0.956 . S
C558 H571 0.961 . S
C558 H572 0.961 . S
C559 C556 1.539 . S
C559 H573 0.958 . S
C559 H574 0.961 . S
C559 H575 0.960 . S
H560 C544 0.931 . S
H561 C549 0.929 . S
H562 C550 0.960 . S
H563 C550 0.962 . S
H564 C550 0.960 . S
H565 C551 0.961 . S
H566 C551 0.961 . S
H567 C551 0.961 . S
H568 C552 0.931 . S
H569 C557 0.930 . S
H570 C558 0.956 . S
H571 C558 0.961 . S
H572 C558 0.961 . S
H573 C559 0.958 . S
H574 C559 0.961 . S
H575 C559 0.960 . S
C576 C577 1.391 . S
C576 C578 1.394 . S
C576 H592 0.931 . S
C577 C576 1.391 . S
C577 C581 1.376 . S
C578 C576 1.394 . S
C578 C579 1.369 . S
C578 C582 1.531 . S
C579 C578 1.369 . S
C579 C580 1.410 . S
C579 C587 1.503 . S
C580 C579 1.410 . S
C580 C581 1.392 . S
C580 C583 1.511 . S
C581 C577 1.376 . S
C581 C580 1.392 . S
C581 H593 0.929 . S
C582 C578 1.531 . S
C582 H594 0.960 . S
C582 H595 0.962 . S
C582 H596 0.960 . S
C583 C580 1.511 . S
C583 H597 0.961 . S
C583 H598 0.961 . S
C583 H599 0.961 . S
C584 C585 1.370 . S
C584 C586 1.363 . S
C584 H600 0.931 . S
C585 C584 1.370 . S
C585 C589 1.408 . S
C586 C584 1.363 . S
C586 C587 1.370 . S
C586 C590 1.524 . S
C587 C579 1.503 . S
C587 C586 1.370 . S
C587 C588 1.403 . S
C588 C587 1.403 . S
C588 C589 1.404 . S
C588 C591 1.539 . S
C589 C585 1.408 . S
C589 C588 1.404 . S
C589 H601 0.930 . S
C590 C586 1.524 . S
C590 H602 0.956 . S
C590 H603 0.961 . S
C590 H604 0.961 . S
C591 C588 1.539 . S
C591 H605 0.958 . S
C591 H606 0.961 . S
C591 H607 0.960 . S
H592 C576 0.931 . S
H593 C581 0.929 . S
H594 C582 0.960 . S
H595 C582 0.962 . S
H596 C582 0.960 . S
H597 C583 0.961 . S
H598 C583 0.961 . S
H599 C583 0.961 . S
H600 C584 0.931 . S
H601 C589 0.930 . S
H602 C590 0.956 . S
H603 C590 0.961 . S
H604 C590 0.961 . S
H605 C591 0.958 . S
H606 C591 0.961 . S
H607 C591 0.960 . S
C608 C609 1.391 . S
C608 C610 1.394 . S
C608 H624 0.931 . S
C609 C608 1.391 . S
C609 C613 1.376 . S
C610 C608 1.394 . S
C610 C611 1.369 . S
C610 C614 1.531 . S
C611 C610 1.369 . S
C611 C612 1.410 . S
C611 C619 1.503 . S
C612 C611 1.410 . S
C612 C613 1.392 . S
C612 C615 1.511 . S
C613 C609 1.376 . S
C613 C612 1.392 . S
C613 H625 0.929 . S
C614 C610 1.531 . S
C614 H626 0.960 . S
C614 H627 0.962 . S
C614 H628 0.960 . S
C615 C612 1.511 . S
C615 H629 0.961 . S
C615 H630 0.961 . S
C615 H631 0.961 . S
C616 C617 1.370 . S
C616 C618 1.363 . S
C616 H632 0.931 . S
C617 C616 1.370 . S
C617 C621 1.408 . S
C618 C616 1.363 . S
C618 C619 1.370 . S
C618 C622 1.524 . S
C619 C611 1.503 . S
C619 C618 1.370 . S
C619 C620 1.403 . S
C620 C619 1.403 . S
C620 C621 1.404 . S
C620 C623 1.539 . S
C621 C617 1.408 . S
C621 C620 1.404 . S
C621 H633 0.930 . S
C622 C618 1.524 . S
C622 H634 0.956 . S
C622 H635 0.961 . S
C622 H636 0.961 . S
C623 C620 1.539 . S
C623 H637 0.958 . S
C623 H638 0.961 . S
C623 H639 0.960 . S
H624 C608 0.931 . S
H625 C613 0.929 . S
H626 C614 0.960 . S
H627 C614 0.962 . S
H628 C614 0.960 . S
H629 C615 0.961 . S
H630 C615 0.961 . S
H631 C615 0.961 . S
H632 C616 0.931 . S
H633 C621 0.930 . S
H634 C622 0.956 . S
H635 C622 0.961 . S
H636 C622 0.961 . S
H637 C623 0.958 . S
H638 C623 0.961 . S
H639 C623 0.960 . S
C640 C641 1.391 . S
C640 C642 1.394 . S
C640 H656 0.931 . S
C641 C640 1.391 . S
C641 C645 1.376 . S
C642 C640 1.394 . S
C642 C643 1.369 . S
C642 C646 1.531 . S
C643 C642 1.369 . S
C643 C644 1.410 . S
C643 C651 1.503 . S
C644 C643 1.410 . S
C644 C645 1.392 . S
C644 C647 1.511 . S
C645 C641 1.376 . S
C645 C644 1.392 . S
C645 H657 0.929 . S
C646 C642 1.531 . S
C646 H658 0.960 . S
C646 H659 0.962 . S
C646 H660 0.960 . S
C647 C644 1.511 . S
C647 H661 0.961 . S
C647 H662 0.961 . S
C647 H663 0.961 . S
C648 C649 1.370 . S
C648 C650 1.363 . S
C648 H664 0.931 . S
C649 C648 1.370 . S
C649 C653 1.408 . S
C650 C648 1.363 . S
C650 C651 1.370 . S
C650 C654 1.524 . S
C651 C643 1.503 . S
C651 C650 1.370 . S
C651 C652 1.403 . S
C652 C651 1.403 . S
C652 C653 1.404 . S
C652 C655 1.539 . S
C653 C649 1.408 . S
C653 C652 1.404 . S
C653 H665 0.930 . S
C654 C650 1.524 . S
C654 H666 0.956 . S
C654 H667 0.961 . S
C654 H668 0.961 . S
C655 C652 1.539 . S
C655 H669 0.958 . S
C655 H670 0.961 . S
C655 H671 0.960 . S
H656 C640 0.931 . S
H657 C645 0.929 . S
H658 C646 0.960 . S
H659 C646 0.962 . S
H660 C646 0.960 . S
H661 C647 0.961 . S
H662 C647 0.961 . S
H663 C647 0.961 . S
H664 C648 0.931 . S
H665 C653 0.930 . S
H666 C654 0.956 . S
H667 C654 0.961 . S
H668 C654 0.961 . S
H669 C655 0.958 . S
H670 C655 0.961 . S
H671 C655 0.960 . S
C672 C673 1.391 . S
C672 C674 1.394 . S
C672 H688 0.931 . S
C673 C672 1.391 . S
C673 C677 1.376 . S
C674 C672 1.394 . S
C674 C675 1.369 . S
C674 C678 1.531 . S
C675 C674 1.369 . S
C675 C676 1.410 . S
C675 C683 1.503 . S
C676 C675 1.410 . S
C676 C677 1.392 . S
C676 C679 1.511 . S
C677 C673 1.376 . S
C677 C676 1.392 . S
C677 H689 0.929 . S
C678 C674 1.531 . S
C678 H690 0.960 . S
C678 H691 0.962 . S
C678 H692 0.960 . S
C679 C676 1.511 . S
C679 H693 0.961 . S
C679 H694 0.961 . S
C679 H695 0.961 . S
C680 C681 1.370 . S
C680 C682 1.363 . S
C680 H696 0.931 . S
C681 C680 1.370 . S
C681 C685 1.408 . S
C682 C680 1.363 . S
C682 C683 1.370 . S
C682 C686 1.524 . S
C683 C675 1.503 . S
C683 C682 1.370 . S
C683 C684 1.403 . S
C684 C683 1.403 . S
C684 C685 1.404 . S
C684 C687 1.539 . S
C685 C681 1.408 . S
C685 C684 1.404 . S
C685 H697 0.930 . S
C686 C682 1.524 . S
C686 H698 0.956 . S
C686 H699 0.961 . S
C686 H700 0.961 . S
C687 C684 1.539 . S
C687 H701 0.958 . S
C687 H702 0.961 . S
C687 H703 0.960 . S
H688 C672 0.931 . S
H689 C677 0.929 . S
H690 C678 0.960 . S
H691 C678 0.962 . S
H692 C678 0.960 . S
H693 C679 0.961 . S
H694 C679 0.961 . S
H695 C679 0.961 . S
H696 C680 0.931 . S
H697 C685 0.930 . S
H698 C686 0.956 . S
H699 C686 0.961 . S
H700 C686 0.961 . S
H701 C687 0.958 . S
H702 C687 0.961 . S
H703 C687 0.960 . S
C704 C705 1.391 . S
C704 C706 1.394 . S
C704 H720 0.931 . S
C705 C704 1.391 . S
C705 C709 1.376 . S
C706 C704 1.394 . S
C706 C707 1.369 . S
C706 C710 1.531 . S
C707 C706 1.369 . S
C707 C708 1.410 . S
C707 C715 1.503 . S
C708 C707 1.410 . S
C708 C709 1.392 . S
C708 C711 1.511 . S
C709 C705 1.376 . S
C709 C708 1.392 . S
C709 H721 0.929 . S
C710 C706 1.531 . S
C710 H722 0.960 . S
C710 H723 0.962 . S
C710 H724 0.960 . S
C711 C708 1.511 . S
C711 H725 0.961 . S
C711 H726 0.961 . S
C711 H727 0.961 . S
C712 C713 1.370 . S
C712 C714 1.363 . S
C712 H728 0.931 . S
C713 C712 1.370 . S
C713 C717 1.408 . S
C714 C712 1.363 . S
C714 C715 1.370 . S
C714 C718 1.524 . S
C715 C707 1.503 . S
C715 C714 1.370 . S
C715 C716 1.403 . S
C716 C715 1.403 . S
C716 C717 1.404 . S
C716 C719 1.539 . S
C717 C713 1.408 . S
C717 C716 1.404 . S
C717 H729 0.930 . S
C718 C714 1.524 . S
C718 H730 0.956 . S
C718 H731 0.961 . S
C718 H732 0.961 . S
C719 C716 1.539 . S
C719 H733 0.958 . S
C719 H734 0.961 . S
C719 H735 0.960 . S
H720 C704 0.931 . S
H721 C709 0.929 . S
H722 C710 0.960 . S
H723 C710 0.962 . S
H724 C710 0.960 . S
H725 C711 0.961 . S
H726 C711 0.961 . S
H727 C711 0.961 . S
H728 C712 0.931 . S
H729 C717 0.930 . S
H730 C718 0.956 . S
H731 C718 0.961 . S
H732 C718 0.961 . S
H733 C719 0.958 . S
H734 C719 0.961 . S
H735 C719 0.960 . S
C736 C737 1.391 . S
C736 C738 1.394 . S
C736 H752 0.931 . S
C737 C736 1.391 . S
C737 C741 1.376 . S
C738 C736 1.394 . S
C738 C739 1.369 . S
C738 C742 1.531 . S
C739 C738 1.369 . S
C739 C740 1.410 . S
C739 C747 1.503 . S
C740 C739 1.410 . S
C740 C741 1.392 . S
C740 C743 1.511 . S
C741 C737 1.376 . S
C741 C740 1.392 . S
C741 H753 0.929 . S
C742 C738 1.531 . S
C742 H754 0.960 . S
C742 H755 0.962 . S
C742 H756 0.960 . S
C743 C740 1.511 . S
C743 H757 0.961 . S
C743 H758 0.961 . S
C743 H759 0.961 . S
C744 C745 1.370 . S
C744 C746 1.363 . S
C744 H760 0.931 . S
C745 C744 1.370 . S
C745 C749 1.408 . S
C746 C744 1.363 . S
C746 C747 1.370 . S
C746 C750 1.524 . S
C747 C739 1.503 . S
C747 C746 1.370 . S
C747 C748 1.403 . S
C748 C747 1.403 . S
C748 C749 1.404 . S
C748 C751 1.539 . S
C749 C745 1.408 . S
C749 C748 1.404 . S
C749 H761 0.930 . S
C750 C746 1.524 . S
C750 H762 0.956 . S
C750 H763 0.961 . S
C750 H764 0.961 . S
C751 C748 1.539 . S
C751 H765 0.958 . S
C751 H766 0.961 . S
C751 H767 0.960 . S
H752 C736 0.931 . S
H753 C741 0.929 . S
H754 C742 0.960 . S
H755 C742 0.962 . S
H756 C742 0.960 . S
H757 C743 0.961 . S
H758 C743 0.961 . S
H759 C743 0.961 . S
H760 C744 0.931 . S
H761 C749 0.930 . S
H762 C750 0.956 . S
H763 C750 0.961 . S
H764 C750 0.961 . S
H765 C751 0.958 . S
H766 C751 0.961 . S
H767 C751 0.960 . S
C768 C769 1.391 . S
C768 C770 1.394 . S
C768 H784 0.931 . S
C769 C768 1.391 . S
C769 C773 1.376 . S
C770 C768 1.394 . S
C770 C771 1.369 . S
C770 C774 1.531 . S
C771 C770 1.369 . S
C771 C772 1.410 . S
C771 C779 1.503 . S
C772 C771 1.410 . S
C772 C773 1.392 . S
C772 C775 1.511 . S
C773 C769 1.376 . S
C773 C772 1.392 . S
C773 H785 0.929 . S
C774 C770 1.531 . S
C774 H786 0.960 . S
C774 H787 0.962 . S
C774 H788 0.960 . S
C775 C772 1.511 . S
C775 H789 0.961 . S
C775 H790 0.961 . S
C775 H791 0.961 . S
C776 C777 1.370 . S
C776 C778 1.363 . S
C776 H792 0.931 . S
C777 C776 1.370 . S
C777 C781 1.408 . S
C778 C776 1.363 . S
C778 C779 1.370 . S
C778 C782 1.524 . S
C779 C771 1.503 . S
C779 C778 1.370 . S
C779 C780 1.403 . S
C780 C779 1.403 . S
C780 C781 1.404 . S
C780 C783 1.539 . S
C781 C777 1.408 . S
C781 C780 1.404 . S
C781 H793 0.930 . S
C782 C778 1.524 . S
C782 H794 0.956 . S
C782 H795 0.961 . S
C782 H796 0.961 . S
C783 C780 1.539 . S
C783 H797 0.958 . S
C783 H798 0.961 . S
C783 H799 0.960 . S
H784 C768 0.931 . S
H785 C773 0.929 . S
H786 C774 0.960 . S
H787 C774 0.962 . S
H788 C774 0.960 . S
H789 C775 0.961 . S
H790 C775 0.961 . S
H791 C775 0.961 . S
H792 C776 0.931 . S
H793 C781 0.930 . S
H794 C782 0.956 . S
H795 C782 0.961 . S
H796 C782 0.961 . S
H797 C783 0.958 . S
H798 C783 0.961 . S
H799 C783 0.960 . S
C800 C801 1.391 . S
C800 C802 1.394 . S
C800 H816 0.931 . S
C801 C800 1.391 . S
C801 C805 1.376 . S
C802 C800 1.394 . S
C802 C803 1.369 . S
C802 C806 1.531 . S
C803 C802 1.369 . S
C803 C804 1.410 . S
C803 C811 1.503 . S
C804 C803 1.410 . S
C804 C805 1.392 . S
C804 C807 1.511 . S
C805 C801 1.376 . S
C805 C804 1.392 . S
C805 H817 0.929 . S
C806 C802 1.531 . S
C806 H818 0.960 . S
C806 H819 0.962 . S
C806 H820 0.960 . S
C807 C804 1.511 . S
C807 H821 0.961 . S
C807 H822 0.961 . S
C807 H823 0.961 . S
C808 C809 1.370 . S
C808 C810 1.363 . S
C808 H824 0.931 . S
C809 C808 1.370 . S
C809 C813 1.408 . S
C810 C808 1.363 . S
C810 C811 1.370 . S
C810 C814 1.524 . S
C811 C803 1.503 . S
C811 C810 1.370 . S
C811 C812 1.403 . S
C812 C811 1.403 . S
C812 C813 1.404 . S
C812 C815 1.539 . S
C813 C809 1.408 . S
C813 C812 1.404 . S
C813 H825 0.930 . S
C814 C810 1.524 . S
C814 H826 0.956 . S
C814 H827 0.961 . S
C814 H828 0.961 . S
C815 C812 1.539 . S
C815 H829 0.958 . S
C815 H830 0.961 . S
C815 H831 0.960 . S
H816 C800 0.931 . S
H817 C805 0.929 . S
H818 C806 0.960 . S
H819 C806 0.962 . S
H820 C806 0.960 . S
H821 C807 0.961 . S
H822 C807 0.961 . S
H823 C807 0.961 . S
H824 C808 0.931 . S
H825 C813 0.930 . S
H826 C814 0.956 . S
H827 C814 0.961 . S
H828 C814 0.961 . S
H829 C815 0.958 . S
H830 C815 0.961 . S
H831 C815 0.960 . S
C832 C833 1.391 . S
C832 C834 1.394 . S
C832 H848 0.931 . S
C833 C832 1.391 . S
C833 C837 1.376 . S
C834 C832 1.394 . S
C834 C835 1.369 . S
C834 C838 1.531 . S
C835 C834 1.369 . S
C835 C836 1.410 . S
C835 C843 1.503 . S
C836 C835 1.410 . S
C836 C837 1.392 . S
C836 C839 1.511 . S
C837 C833 1.376 . S
C837 C836 1.392 . S
C837 H849 0.929 . S
C838 C834 1.531 . S
C838 H850 0.960 . S
C838 H851 0.962 . S
C838 H852 0.960 . S
C839 C836 1.511 . S
C839 H853 0.961 . S
C839 H854 0.961 . S
C839 H855 0.961 . S
C840 C841 1.370 . S
C840 C842 1.363 . S
C840 H856 0.931 . S
C841 C840 1.370 . S
C841 C845 1.408 . S
C842 C840 1.363 . S
C842 C843 1.370 . S
C842 C846 1.524 . S
C843 C835 1.503 . S
C843 C842 1.370 . S
C843 C844 1.403 . S
C844 C843 1.403 . S
C844 C845 1.404 . S
C844 C847 1.539 . S
C845 C841 1.408 . S
C845 C844 1.404 . S
C845 H857 0.930 . S
C846 C842 1.524 . S
C846 H858 0.956 . S
C846 H859 0.961 . S
C846 H860 0.961 . S
C847 C844 1.539 . S
C847 H861 0.958 . S
C847 H862 0.961 . S
C847 H863 0.960 . S
H848 C832 0.931 . S
H849 C837 0.929 . S
H850 C838 0.960 . S
H851 C838 0.962 . S
H852 C838 0.960 . S
H853 C839 0.961 . S
H854 C839 0.961 . S
H855 C839 0.961 . S
H856 C840 0.931 . S
H857 C845 0.930 . S
H858 C846 0.956 . S
H859 C846 0.961 . S
H860 C846 0.961 . S
H861 C847 0.958 . S
H862 C847 0.961 . S
H863 C847 0.960 . S
C864 C865 1.391 . S
C864 C866 1.394 . S
C864 H880 0.931 . S
C865 C864 1.391 . S
C865 C869 1.376 . S
C866 C864 1.394 . S
C866 C867 1.369 . S
C866 C870 1.531 . S
C867 C866 1.369 . S
C867 C868 1.410 . S
C867 C875 1.503 . S
C868 C867 1.410 . S
C868 C869 1.392 . S
C868 C871 1.511 . S
C869 C865 1.376 . S
C869 C868 1.392 . S
C869 H881 0.929 . S
C870 C866 1.531 . S
C870 H882 0.960 . S
C870 H883 0.962 . S
C870 H884 0.960 . S
C871 C868 1.511 . S
C871 H885 0.961 . S
C871 H886 0.961 . S
C871 H887 0.961 . S
C872 C873 1.370 . S
C872 C874 1.363 . S
C872 H888 0.931 . S
C873 C872 1.370 . S
C873 C877 1.408 . S
C874 C872 1.363 . S
C874 C875 1.370 . S
C874 C878 1.524 . S
C875 C867 1.503 . S
C875 C874 1.370 . S
C875 C876 1.403 . S
C876 C875 1.403 . S
C876 C877 1.404 . S
C876 C879 1.539 . S
C877 C873 1.408 . S
C877 C876 1.404 . S
C877 H889 0.930 . S
C878 C874 1.524 . S
C878 H890 0.956 . S
C878 H891 0.961 . S
C878 H892 0.961 . S
C879 C876 1.539 . S
C879 H893 0.958 . S
C879 H894 0.961 . S
C879 H895 0.960 . S
H880 C864 0.931 . S
H881 C869 0.929 . S
H882 C870 0.960 . S
H883 C870 0.962 . S
H884 C870 0.960 . S
H885 C871 0.961 . S
H886 C871 0.961 . S
H887 C871 0.961 . S
H888 C872 0.931 . S
H889 C877 0.930 . S
H890 C878 0.956 . S
H891 C878 0.961 . S
H892 C878 0.961 . S
H893 C879 0.958 . S
H894 C879 0.961 . S
H895 C879 0.960 . S
C896 C897 1.391 . S
C896 C898 1.394 . S
C896 H912 0.931 . S
C897 C896 1.391 . S
C897 C901 1.376 . S
C898 C896 1.394 . S
C898 C899 1.369 . S
C898 C902 1.531 . S
C899 C898 1.369 . S
C899 C900 1.410 . S
C899 C907 1.503 . S
C900 C899 1.410 . S
C900 C901 1.392 . S
C900 C903 1.511 . S
C901 C897 1.376 . S
C901 C900 1.392 . S
C901 H913 0.929 . S
C902 C898 1.531 . S
C902 H914 0.960 . S
C902 H915 0.962 . S
C902 H916 0.960 . S
C903 C900 1.511 . S
C903 H917 0.961 . S
C903 H918 0.961 . S
C903 H919 0.961 . S
C904 C905 1.370 . S
C904 C906 1.363 . S
C904 H920 0.931 . S
C905 C904 1.370 . S
C905 C909 1.408 . S
C906 C904 1.363 . S
C906 C907 1.370 . S
C906 C910 1.524 . S
C907 C899 1.503 . S
C907 C906 1.370 . S
C907 C908 1.403 . S
C908 C907 1.403 . S
C908 C909 1.404 . S
C908 C911 1.539 . S
C909 C905 1.408 . S
C909 C908 1.404 . S
C909 H921 0.930 . S
C910 C906 1.524 . S
C910 H922 0.956 . S
C910 H923 0.961 . S
C910 H924 0.961 . S
C911 C908 1.539 . S
C911 H925 0.958 . S
C911 H926 0.961 . S
C911 H927 0.960 . S
H912 C896 0.931 . S
H913 C901 0.929 . S
H914 C902 0.960 . S
H915 C902 0.962 . S
H916 C902 0.960 . S
H917 C903 0.961 . S
H918 C903 0.961 . S
H919 C903 0.961 . S
H920 C904 0.931 . S
H921 C909 0.930 . S
H922 C910 0.956 . S
H923 C910 0.961 . S
H924 C910 0.961 . S
H925 C911 0.958 . S
H926 C911 0.961 . S
H927 C911 0.960 . S
C928 C929 1.391 . S
C928 C930 1.394 . S
C928 H944 0.931 . S
C929 C928 1.391 . S
C929 C933 1.376 . S
C930 C928 1.394 . S
C930 C931 1.369 . S
C930 C934 1.531 . S
C931 C930 1.369 . S
C931 C932 1.410 . S
C931 C939 1.503 . S
C932 C931 1.410 . S
C932 C933 1.392 . S
C932 C935 1.511 . S
C933 C929 1.376 . S
C933 C932 1.392 . S
C933 H945 0.929 . S
C934 C930 1.531 . S
C934 H946 0.960 . S
C934 H947 0.962 . S
C934 H948 0.960 . S
C935 C932 1.511 . S
C935 H949 0.961 . S
C935 H950 0.961 . S
C935 H951 0.961 . S
C936 C937 1.370 . S
C936 C938 1.363 . S
C936 H952 0.931 . S
C937 C936 1.370 . S
C937 C941 1.408 . S
C938 C936 1.363 . S
C938 C939 1.370 . S
C938 C942 1.524 . S
C939 C931 1.503 . S
C939 C938 1.370 . S
C939 C940 1.403 . S
C940 C939 1.403 . S
C940 C941 1.404 . S
C940 C943 1.539 . S
C941 C937 1.408 . S
C941 C940 1.404 . S
C941 H953 0.930 . S
C942 C938 1.524 . S
C942 H954 0.956 . S
C942 H955 0.961 . S
C942 H956 0.961 . S
C943 C940 1.539 . S
C943 H957 0.958 . S
C943 H958 0.961 . S
C943 H959 0.960 . S
H944 C928 0.931 . S
H945 C933 0.929 . S
H946 C934 0.960 . S
H947 C934 0.962 . S
H948 C934 0.960 . S
H949 C935 0.961 . S
H950 C935 0.961 . S
H951 C935 0.961 . S
H952 C936 0.931 . S
H953 C941 0.930 . S
H954 C942 0.956 . S
H955 C942 0.961 . S
H956 C942 0.961 . S
H957 C943 0.958 . S
H958 C943 0.961 . S
H959 C943 0.960 . S
C960 C961 1.391 . S
C960 C962 1.394 . S
C960 H976 0.931 . S
C961 C960 1.391 . S
C961 C965 1.376 . S
C962 C960 1.394 . S
C962 C963 1.369 . S
C962 C966 1.531 1_565 S
C963 C962 1.369 . S
C963 C964 1.410 . S
C963 C971 1.503 1_565 S
C964 C963 1.410 . S
C964 C965 1.392 . S
C964 C967 1.511 . S
C965 C961 1.376 . S
C965 C964 1.392 . S
C965 H977 0.929 . S
C966 C962 1.531 1_545 S
C966 H978 0.960 . S
C966 H979 0.962 . S
C966 H980 0.960 . S
C967 C964 1.511 . S
C967 H981 0.961 . S
C967 H982 0.961 . S
C967 H983 0.961 . S
C968 C969 1.370 . S
C968 C970 1.363 . S
C968 H984 0.931 . S
C969 C968 1.370 . S
C969 C973 1.408 . S
C970 C968 1.363 . S
C970 C971 1.370 . S
C970 C974 1.524 . S
C971 C963 1.503 1_545 S
C971 C970 1.370 . S
C971 C972 1.403 . S
C972 C971 1.403 . S
C972 C973 1.404 . S
C972 C975 1.541 1_545 S
C973 C969 1.408 . S
C973 C972 1.404 . S
C973 H985 0.930 . S
C974 C970 1.524 . S
C974 H986 0.956 . S
C974 H987 1.001 . S
C974 H988 0.961 . S
C975 C972 1.541 1_565 S
C975 H989 0.959 1_565 S
C975 H990 0.961 1_565 S
C975 H991 0.957 . S
H976 C960 0.931 . S
H977 C965 0.929 . S
H978 C966 0.960 . S
H979 C966 0.962 . S
H980 C966 0.960 . S
H981 C967 0.961 . S
H982 C967 0.961 . S
H983 C967 0.961 . S
H984 C968 0.931 . S
H985 C973 0.930 . S
H986 C974 0.956 . S
H987 C974 1.001 . S
H988 C974 0.961 . S
H989 C975 0.959 1_545 S
H990 C975 0.961 1_545 S
H991 C975 0.957 . S
C992 C993 1.391 . S
C992 C994 1.394 1_655 S
C992 H1008 0.931 . S
C993 C992 1.391 . S
C993 C997 1.376 . S
C994 C992 1.394 1_455 S
C994 C995 1.369 1_455 S
C994 C998 1.531 . S
C995 C994 1.369 1_655 S
C995 C996 1.410 . S
C995 C1003 1.503 1_655 S
C996 C995 1.410 . S
C996 C997 1.392 . S
C996 C999 1.511 . S
C997 C993 1.376 . S
C997 C996 1.392 . S
C997 H1009 0.929 . S
C998 C994 1.531 . S
C998 H1010 0.960 . S
C998 H1011 0.962 . S
C998 H1012 0.960 . S
C999 C996 1.511 . S
C999 H1013 0.961 . S
C999 H1014 0.961 . S
C999 H1015 0.961 . S
C1000 C1001 1.370 . S
C1000 C1002 1.363 . S
C1000 H1016 0.931 . S
C1001 C1000 1.370 . S
C1001 C1005 1.408 . S
C1002 C1000 1.363 . S
C1002 C1003 1.370 . S
C1002 C1006 1.524 . S
C1003 C995 1.503 1_455 S
C1003 C1002 1.370 . S
C1003 C1004 1.403 . S
C1004 C1003 1.403 . S
C1004 C1005 1.404 . S
C1004 C1007 1.539 1_455 S
C1005 C1001 1.408 . S
C1005 C1004 1.404 . S
C1005 H1017 0.930 . S
C1006 C1002 1.524 . S
C1006 H1018 0.956 . S
C1006 H1019 0.961 1_455 S
C1006 H1020 0.961 . S
C1007 C1004 1.539 1_655 S
C1007 H1021 0.958 1_655 S
C1007 H1022 0.961 . S
C1007 H1023 0.960 . S
H1008 C992 0.931 . S
H1009 C997 0.929 . S
H1010 C998 0.960 . S
H1011 C998 0.962 . S
H1012 C998 0.960 . S
H1013 C999 0.961 . S
H1014 C999 0.961 . S
H1015 C999 0.961 . S
H1016 C1000 0.931 . S
H1017 C1005 0.930 . S
H1018 C1006 0.956 . S
H1019 C1006 0.961 1_655 S
H1020 C1006 0.961 . S
H1021 C1007 0.958 1_455 S
H1022 C1007 0.961 . S
H1023 C1007 0.960 . S
C1024 C1025 1.391 . S
C1024 C1026 1.394 . S
C1024 H1040 0.931 . S
C1025 C1024 1.391 . S
C1025 C1029 1.396 . S
C1026 C1024 1.394 . S
C1026 C1027 1.369 . S
C1026 C1030 1.531 . S
C1027 C1026 1.369 . S
C1027 C1028 1.410 1_556 S
C1027 C1035 1.503 1_556 S
C1028 C1027 1.410 1_554 S
C1028 C1029 1.386 1_554 S
C1028 C1031 1.511 . S
C1029 C1025 1.396 . S
C1029 C1028 1.386 1_556 S
C1029 H1041 0.916 1_556 S
C1030 C1026 1.531 . S
C1030 H1042 0.960 . S
C1030 H1043 0.962 . S
C1030 H1044 0.960 . S
C1031 C1028 1.511 . S
C1031 H1045 0.961 . S
C1031 H1046 0.961 . S
C1031 H1047 0.961 . S
C1032 C1033 1.370 . S
C1032 C1034 1.363 . S
C1032 H1048 0.931 . S
C1033 C1032 1.370 . S
C1033 C1037 1.408 . S
C1034 C1032 1.363 . S
C1034 C1035 1.370 . S
C1034 C1038 1.524 . S
C1035 C1027 1.503 1_554 S
C1035 C1034 1.370 . S
C1035 C1036 1.403 1_554 S
C1036 C1035 1.403 1_556 S
C1036 C1037 1.404 1_556 S
C1036 C1039 1.539 . S
C1037 C1033 1.408 . S
C1037 C1036 1.404 1_554 S
C1037 H1049 0.930 1_554 S
C1038 C1034 1.524 . S
C1038 H1050 0.956 . S
C1038 H1051 0.961 . S
C1038 H1052 0.961 . S
C1039 C1036 1.539 . S
C1039 H1053 0.958 . S
C1039 H1054 0.961 . S
C1039 H1055 0.960 . S
H1040 C1024 0.931 . S
H1041 C1029 0.916 1_554 S
H1042 C1030 0.960 . S
H1043 C1030 0.962 . S
H1044 C1030 0.960 . S
H1045 C1031 0.961 . S
H1046 C1031 0.961 . S
H1047 C1031 0.961 . S
H1048 C1032 0.931 . S
H1049 C1037 0.930 1_556 S
H1050 C1038 0.956 . S
H1051 C1038 0.961 . S
H1052 C1038 0.961 . S
H1053 C1039 0.958 . S
H1054 C1039 0.961 . S
H1055 C1039 0.960 . S
C1056 C1057 1.391 1_554 S
C1056 C1058 1.394 . S
C1056 H1072 0.931 . S
C1057 C1056 1.391 1_556 S
C1057 C1061 1.376 . S
C1058 C1056 1.394 . S
C1058 C1059 1.369 1_554 S
C1058 C1062 1.531 . S
C1059 C1058 1.369 1_556 S
C1059 C1060 1.407 1_455 S
C1059 C1067 1.503 1_446 S
C1060 C1059 1.407 1_655 S
C1060 C1061 1.383 1_655 S
C1060 C1063 1.522 . S
C1061 C1057 1.376 . S
C1061 C1060 1.383 1_455 S
C1061 H1073 0.929 . S
C1062 C1058 1.531 . S
C1062 H1074 0.960 . S
C1062 H1075 1.020 . S
C1062 H1076 0.960 . S
C1063 C1060 1.522 . S
C1063 H1077 0.961 . S
C1063 H1078 0.961 1_545 S
C1063 H1079 0.961 . S
C1064 C1065 1.370 . S
C1064 C1066 1.375 . S
C1064 H1080 0.931 . S
C1065 C1064 1.370 . S
C1065 C1069 1.408 . S
C1066 C1064 1.375 . S
C1066 C1067 1.380 . S
C1066 C1070 1.503 1_654 S
C1067 C1059 1.503 1_664 S
C1067 C1066 1.380 . S
C1067 C1068 1.403 . S
C1068 C1067 1.403 . S
C1068 C1069 1.404 . S
C1068 C1071 1.539 1_565 S
C1069 C1065 1.408 . S
C1069 C1068 1.404 . S
C1069 H1081 0.930 . S
C1070 C1066 1.503 1_456 S
C1070 H1082 0.956 . S
C1070 H1083 0.961 . S
C1070 H1084 0.961 . S
C1071 C1068 1.539 1_545 S
C1071 H1085 0.958 . S
C1071 H1086 0.961 . S
C1071 H1087 0.960 . S
H1072 C1056 0.931 . S
H1073 C1061 0.929 . S
H1074 C1062 0.960 . S
H1075 C1062 1.020 . S
H1076 C1062 0.960 . S
H1077 C1063 0.961 . S
H1078 C1063 0.961 1_565 S
H1079 C1063 0.961 . S
H1080 C1064 0.931 . S
H1081 C1069 0.930 . S
H1082 C1070 0.956 . S
H1083 C1070 0.961 . S
H1084 C1070 0.961 . S
H1085 C1071 0.958 . S
H1086 C1071 0.961 . S
H1087 C1071 0.960 . S
C1088 C1089 1.391 . S
C1088 C1090 1.394 . S
C1088 H1104 0.931 . S
C1089 C1088 1.391 . S
C1089 C1093 1.376 . S
C1090 C1088 1.394 . S
C1090 C1091 1.369 . S
C1090 C1094 1.531 . S
C1091 C1090 1.369 . S
C1091 C1092 1.410 . S
C1091 C1099 1.503 1_545 S
C1092 C1091 1.410 . S
C1092 C1093 1.392 . S
C1092 C1095 1.511 1_545 S
C1093 C1089 1.376 . S
C1093 C1092 1.392 . S
C1093 H1105 0.929 . S
C1094 C1090 1.531 . S
C1094 H1106 0.960 . S
C1094 H1107 0.962 . S
C1094 H1108 0.960 . S
C1095 C1092 1.511 1_565 S
C1095 H1109 0.961 . S
C1095 H1110 0.961 . S
C1095 H1111 0.961 . S
C1096 C1097 1.370 . S
C1096 C1098 1.363 . S
C1096 H1112 0.931 . S
C1097 C1096 1.370 . S
C1097 C1101 1.408 . S
C1098 C1096 1.363 . S
C1098 C1099 1.370 . S
C1098 C1102 1.524 1_565 S
C1099 C1091 1.503 1_565 S
C1099 C1098 1.370 . S
C1099 C1100 1.403 . S
C1100 C1099 1.403 . S
C1100 C1101 1.404 . S
C1100 C1103 1.539 . S
C1101 C1097 1.408 . S
C1101 C1100 1.404 . S
C1101 H1113 0.930 . S
C1102 C1098 1.524 1_545 S
C1102 H1114 0.956 . S
C1102 H1115 0.961 . S
C1102 H1116 0.961 . S
C1103 C1100 1.539 . S
C1103 H1117 0.958 . S
C1103 H1118 0.961 . S
C1103 H1119 0.960 . S
H1104 C1088 0.931 . S
H1105 C1093 0.929 . S
H1106 C1094 0.960 . S
H1107 C1094 0.962 . S
H1108 C1094 0.960 . S
H1109 C1095 0.961 . S
H1110 C1095 0.961 . S
H1111 C1095 0.961 . S
H1112 C1096 0.931 . S
H1113 C1101 0.930 . S
H1114 C1102 0.956 . S
H1115 C1102 0.961 . S
H1116 C1102 0.961 . S
H1117 C1103 0.958 . S
H1118 C1103 0.961 . S
H1119 C1103 0.960 . S
C1120 C1121 1.391 . S
C1120 C1122 1.394 1_455 S
C1120 H1136 0.931 . S
C1121 C1120 1.391 . S
C1121 C1125 1.376 . S
C1122 C1120 1.394 1_655 S
C1122 C1123 1.369 1_655 S
C1122 C1126 1.531 . S
C1123 C1122 1.369 1_455 S
C1123 C1124 1.410 . S
C1123 C1131 1.503 1_455 S
C1124 C1123 1.410 . S
C1124 C1125 1.392 . S
C1124 C1127 1.511 . S
C1125 C1121 1.376 . S
C1125 C1124 1.392 . S
C1125 H1137 0.929 . S
C1126 C1122 1.531 . S
C1126 H1138 0.960 . S
C1126 H1139 0.962 . S
C1126 H1140 0.960 . S
C1127 C1124 1.511 . S
C1127 H1141 0.961 . S
C1127 H1142 0.961 . S
C1127 H1143 0.961 . S
C1128 C1129 1.370 . S
C1128 C1130 1.363 . S
C1128 H1144 0.931 . S
C1129 C1128 1.370 . S
C1129 C1133 1.408 . S
C1130 C1128 1.363 . S
C1130 C1131 1.370 . S
C1130 C1134 1.524 . S
C1131 C1123 1.503 1_655 S
C1131 C1130 1.370 . S
C1131 C1132 1.403 . S
C1132 C1131 1.403 . S
C1132 C1133 1.404 . S
C1132 C1135 1.539 1_655 S
C1133 C1129 1.408 . S
C1133 C1132 1.404 . S
C1133 H1145 0.930 . S
C1134 C1130 1.524 . S
C1134 H1146 0.956 . S
C1134 H1147 0.961 1_655 S
C1134 H1148 0.961 . S
C1135 C1132 1.539 1_455 S
C1135 H1149 0.958 1_455 S
C1135 H1150 0.961 . S
C1135 H1151 0.960 . S
H1136 C1120 0.931 . S
H1137 C1125 0.929 . S
H1138 C1126 0.960 . S
H1139 C1126 0.962 . S
H1140 C1126 0.960 . S
H1141 C1127 0.961 . S
H1142 C1127 0.961 . S
H1143 C1127 0.961 . S
H1144 C1128 0.931 . S
H1145 C1133 0.930 . S
H1146 C1134 0.956 . S
H1147 C1134 0.961 1_455 S
H1148 C1134 0.961 . S
H1149 C1135 0.958 1_655 S
H1150 C1135 0.961 . S
H1151 C1135 0.960 . S
C1152 C1153 1.391 . S
C1152 C1154 1.394 . S
C1152 H1168 0.931 . S
C1153 C1152 1.391 . S
C1153 C1157 1.376 . S
C1154 C1152 1.394 . S
C1154 C1155 1.369 . S
C1154 C1158 1.531 . S
C1155 C1154 1.369 . S
C1155 C1156 1.410 . S
C1155 C1163 1.500 1_556 S
C1156 C1155 1.410 . S
C1156 C1157 1.392 . S
C1156 C1159 1.511 . S
C1157 C1153 1.376 . S
C1157 C1156 1.392 . S
C1157 H1169 0.929 . S
C1158 C1154 1.531 . S
C1158 H1170 0.960 . S
C1158 H1171 0.962 . S
C1158 H1172 0.960 . S
C1159 C1156 1.511 . S
C1159 H1173 0.961 1_556 S
C1159 H1174 0.961 1_556 S
C1159 H1175 0.961 . S
C1160 C1161 1.370 . S
C1160 C1162 1.363 . S
C1160 H1176 0.931 . S
C1161 C1160 1.370 . S
C1161 C1165 1.408 1_554 S
C1162 C1160 1.363 . S
C1162 C1163 1.379 . S
C1162 C1166 1.524 . S
C1163 C1155 1.500 1_554 S
C1163 C1162 1.379 . S
C1163 C1164 1.397 1_554 S
C1164 C1163 1.397 1_556 S
C1164 C1165 1.404 . S
C1164 C1167 1.539 . S
C1165 C1161 1.408 1_556 S
C1165 C1164 1.404 . S
C1165 H1177 0.930 . S
C1166 C1162 1.524 . S
C1166 H1178 0.956 . S
C1166 H1179 0.961 . S
C1166 H1180 0.961 . S
C1167 C1164 1.539 . S
C1167 H1181 0.958 . S
C1167 H1182 0.961 . S
C1167 H1183 0.960 . S
H1168 C1152 0.931 . S
H1169 C1157 0.929 . S
H1170 C1158 0.960 . S
H1171 C1158 0.962 . S
H1172 C1158 0.960 . S
H1173 C1159 0.961 1_554 S
H1174 C1159 0.961 1_554 S
H1175 C1159 0.961 . S
H1176 C1160 0.931 . S
H1177 C1165 0.930 . S
H1178 C1166 0.956 . S
H1179 C1166 0.961 . S
H1180 C1166 0.961 . S
H1181 C1167 0.958 . S
H1182 C1167 0.961 . S
H1183 C1167 0.960 . S
C1184 C1185 1.391 . S
C1184 C1186 1.394 . S
C1184 H1200 0.931 . S
C1185 C1184 1.391 . S
C1185 C1189 1.376 . S
C1186 C1184 1.394 . S
C1186 C1187 1.369 . S
C1186 C1190 1.531 . S
C1187 C1186 1.369 . S
C1187 C1188 1.410 . S
C1187 C1195 1.503 . S
C1188 C1187 1.410 . S
C1188 C1189 1.392 . S
C1188 C1191 1.511 . S
C1189 C1185 1.376 . S
C1189 C1188 1.392 . S
C1189 H1201 0.929 . S
C1190 C1186 1.531 . S
C1190 H1202 0.960 . S
C1190 H1203 0.962 . S
C1190 H1204 0.960 . S
C1191 C1188 1.511 . S
C1191 H1205 0.961 . S
C1191 H1206 0.961 . S
C1191 H1207 0.961 . S
C1192 C1193 1.370 . S
C1192 C1194 1.363 . S
C1192 H1208 0.931 . S
C1193 C1192 1.370 . S
C1193 C1197 1.408 . S
C1194 C1192 1.363 . S
C1194 C1195 1.370 . S
C1194 C1198 1.524 . S
C1195 C1187 1.503 . S
C1195 C1194 1.370 . S
C1195 C1196 1.403 . S
C1196 C1195 1.403 . S
C1196 C1197 1.404 . S
C1196 C1199 1.539 . S
C1197 C1193 1.408 . S
C1197 C1196 1.404 . S
C1197 H1209 0.930 . S
C1198 C1194 1.524 . S
C1198 H1210 0.956 . S
C1198 H1211 0.961 . S
C1198 H1212 0.961 . S
C1199 C1196 1.539 . S
C1199 H1213 0.958 . S
C1199 H1214 0.961 . S
C1199 H1215 0.960 . S
H1200 C1184 0.931 . S
H1201 C1189 0.929 . S
H1202 C1190 0.960 . S
H1203 C1190 0.962 . S
H1204 C1190 0.960 . S
H1205 C1191 0.961 . S
H1206 C1191 0.961 . S
H1207 C1191 0.961 . S
H1208 C1192 0.931 . S
H1209 C1197 0.930 . S
H1210 C1198 0.956 . S
H1211 C1198 0.961 . S
H1212 C1198 0.961 . S
H1213 C1199 0.958 . S
H1214 C1199 0.961 . S
H1215 C1199 0.960 . S
C1216 C1217 1.391 . S
C1216 C1218 1.394 . S
C1216 H1232 0.931 . S
C1217 C1216 1.391 . S
C1217 C1221 1.376 . S
C1218 C1216 1.394 . S
C1218 C1219 1.369 . S
C1218 C1222 1.531 . S
C1219 C1218 1.369 . S
C1219 C1220 1.410 . S
C1219 C1227 1.503 . S
C1220 C1219 1.410 . S
C1220 C1221 1.392 . S
C1220 C1223 1.511 . S
C1221 C1217 1.376 . S
C1221 C1220 1.392 . S
C1221 H1233 0.929 . S
C1222 C1218 1.531 . S
C1222 H1234 0.960 . S
C1222 H1235 0.962 . S
C1222 H1236 0.960 . S
C1223 C1220 1.511 . S
C1223 H1237 0.961 . S
C1223 H1238 0.961 . S
C1223 H1239 0.961 . S
C1224 C1225 1.370 . S
C1224 C1226 1.363 . S
C1224 H1240 0.931 . S
C1225 C1224 1.370 . S
C1225 C1229 1.408 . S
C1226 C1224 1.363 . S
C1226 C1227 1.370 . S
C1226 C1230 1.524 . S
C1227 C1219 1.503 . S
C1227 C1226 1.370 . S
C1227 C1228 1.403 . S
C1228 C1227 1.403 . S
C1228 C1229 1.404 . S
C1228 C1231 1.539 . S
C1229 C1225 1.408 . S
C1229 C1228 1.404 . S
C1229 H1241 0.930 . S
C1230 C1226 1.524 . S
C1230 H1242 0.956 . S
C1230 H1243 0.961 . S
C1230 H1244 0.961 . S
C1231 C1228 1.539 . S
C1231 H1245 0.958 . S
C1231 H1246 0.961 . S
C1231 H1247 0.960 . S
H1232 C1216 0.931 . S
H1233 C1221 0.929 . S
H1234 C1222 0.960 . S
H1235 C1222 0.962 . S
H1236 C1222 0.960 . S
H1237 C1223 0.961 . S
H1238 C1223 0.961 . S
H1239 C1223 0.961 . S
H1240 C1224 0.931 . S
H1241 C1229 0.930 . S
H1242 C1230 0.956 . S
H1243 C1230 0.961 . S
H1244 C1230 0.961 . S
H1245 C1231 0.958 . S
H1246 C1231 0.961 . S
H1247 C1231 0.960 . S
C1248 C1249 1.391 . S
C1248 C1250 1.394 1_655 S
C1248 H1264 0.931 . S
C1249 C1248 1.391 . S
C1249 C1253 1.376 . S
C1250 C1248 1.394 1_455 S
C1250 C1251 1.369 1_455 S
C1250 C1254 1.531 . S
C1251 C1250 1.369 1_655 S
C1251 C1252 1.410 . S
C1251 C1259 1.503 1_655 S
C1252 C1251 1.410 . S
C1252 C1253 1.392 . S
C1252 C1255 1.511 . S
C1253 C1249 1.376 . S
C1253 C1252 1.392 . S
C1253 H1265 0.929 . S
C1254 C1250 1.531 . S
C1254 H1266 0.960 . S
C1254 H1267 0.962 . S
C1254 H1268 0.960 . S
C1255 C1252 1.511 . S
C1255 H1269 0.961 . S
C1255 H1270 0.961 . S
C1255 H1271 0.961 . S
C1256 C1257 1.370 . S
C1256 C1258 1.363 . S
C1256 H1272 0.931 . S
C1257 C1256 1.370 . S
C1257 C1261 1.408 . S
C1258 C1256 1.363 . S
C1258 C1259 1.370 . S
C1258 C1262 1.524 1_455 S
C1259 C1251 1.503 1_455 S
C1259 C1258 1.370 . S
C1259 C1260 1.403 . S
C1260 C1259 1.403 . S
C1260 C1261 1.404 . S
C1260 C1263 1.539 . S
C1261 C1257 1.408 . S
C1261 C1260 1.404 . S
C1261 H1273 0.930 . S
C1262 C1258 1.524 1_655 S
C1262 H1274 0.956 . S
C1262 H1275 0.961 . S
C1262 H1276 0.961 . S
C1263 C1260 1.539 . S
C1263 H1277 0.958 . S
C1263 H1278 0.961 . S
C1263 H1279 0.960 . S
H1264 C1248 0.931 . S
H1265 C1253 0.929 . S
H1266 C1254 0.960 . S
H1267 C1254 0.962 . S
H1268 C1254 0.960 . S
H1269 C1255 0.961 . S
H1270 C1255 0.961 . S
H1271 C1255 0.961 . S
H1272 C1256 0.931 . S
H1273 C1261 0.930 . S
H1274 C1262 0.956 . S
H1275 C1262 0.961 . S
H1276 C1262 0.961 . S
H1277 C1263 0.958 . S
H1278 C1263 0.961 . S
H1279 C1263 0.960 . S
C1280 C1281 1.391 . S
C1280 C1282 1.394 . S
C1280 H1296 0.931 . S
C1281 C1280 1.391 . S
C1281 C1285 1.376 . S
C1282 C1280 1.394 . S
C1282 C1283 1.369 . S
C1282 C1286 1.531 . S
C1283 C1282 1.369 . S
C1283 C1284 1.410 . S
C1283 C1291 1.503 . S
C1284 C1283 1.410 . S
C1284 C1285 1.392 . S
C1284 C1287 1.511 . S
C1285 C1281 1.376 . S
C1285 C1284 1.392 . S
C1285 H1297 0.929 . S
C1286 C1282 1.531 . S
C1286 H1298 0.960 . S
C1286 H1299 0.962 . S
C1286 H1300 0.960 . S
C1287 C1284 1.511 . S
C1287 H1301 0.961 . S
C1287 H1302 0.961 . S
C1287 H1303 0.961 . S
C1288 C1289 1.370 . S
C1288 C1290 1.363 . S
C1288 H1304 0.931 . S
C1289 C1288 1.370 . S
C1289 C1293 1.408 . S
C1290 C1288 1.363 . S
C1290 C1291 1.370 . S
C1290 C1294 1.524 . S
C1291 C1283 1.503 . S
C1291 C1290 1.370 . S
C1291 C1292 1.403 . S
C1292 C1291 1.403 . S
C1292 C1293 1.404 . S
C1292 C1295 1.539 . S
C1293 C1289 1.408 . S
C1293 C1292 1.404 . S
C1293 H1305 0.930 . S
C1294 C1290 1.524 . S
C1294 H1306 0.956 . S
C1294 H1307 0.961 . S
C1294 H1308 0.961 . S
C1295 C1292 1.539 . S
C1295 H1309 0.958 . S
C1295 H1310 0.961 . S
C1295 H1311 0.960 . S
H1296 C1280 0.931 . S
H1297 C1285 0.929 . S
H1298 C1286 0.960 . S
H1299 C1286 0.962 . S
H1300 C1286 0.960 . S
H1301 C1287 0.961 . S
H1302 C1287 0.961 . S
H1303 C1287 0.961 . S
H1304 C1288 0.931 . S
H1305 C1293 0.930 . S
H1306 C1294 0.956 . S
H1307 C1294 0.961 . S
H1308 C1294 0.961 . S
H1309 C1295 0.958 . S
H1310 C1295 0.961 . S
H1311 C1295 0.960 . S
C1312 C1313 1.391 . S
C1312 C1314 1.394 . S
C1312 H1328 0.931 . S
C1313 C1312 1.391 . S
C1313 C1317 1.376 . S
C1314 C1312 1.394 . S
C1314 C1315 1.369 . S
C1314 C1318 1.531 . S
C1315 C1314 1.369 . S
C1315 C1316 1.410 . S
C1315 C1323 1.503 . S
C1316 C1315 1.410 . S
C1316 C1317 1.392 . S
C1316 C1319 1.511 . S
C1317 C1313 1.376 . S
C1317 C1316 1.392 . S
C1317 H1329 0.929 . S
C1318 C1314 1.531 . S
C1318 H1330 0.960 . S
C1318 H1331 0.962 . S
C1318 H1332 0.960 . S
C1319 C1316 1.511 . S
C1319 H1333 0.961 . S
C1319 H1334 0.961 . S
C1319 H1335 0.961 . S
C1320 C1321 1.370 . S
C1320 C1322 1.363 . S
C1320 H1336 0.931 . S
C1321 C1320 1.370 . S
C1321 C1325 1.408 . S
C1322 C1320 1.363 . S
C1322 C1323 1.370 . S
C1322 C1326 1.524 . S
C1323 C1315 1.503 . S
C1323 C1322 1.370 . S
C1323 C1324 1.403 . S
C1324 C1323 1.403 . S
C1324 C1325 1.404 . S
C1324 C1327 1.539 . S
C1325 C1321 1.408 . S
C1325 C1324 1.404 . S
C1325 H1337 0.930 . S
C1326 C1322 1.524 . S
C1326 H1338 0.956 . S
C1326 H1339 0.961 . S
C1326 H1340 0.961 . S
C1327 C1324 1.539 . S
C1327 H1341 0.958 . S
C1327 H1342 0.961 . S
C1327 H1343 0.960 . S
H1328 C1312 0.931 . S
H1329 C1317 0.929 . S
H1330 C1318 0.960 . S
H1331 C1318 0.962 . S
H1332 C1318 0.960 . S
H1333 C1319 0.961 . S
H1334 C1319 0.961 . S
H1335 C1319 0.961 . S
H1336 C1320 0.931 . S
H1337 C1325 0.930 . S
H1338 C1326 0.956 . S
H1339 C1326 0.961 . S
H1340 C1326 0.961 . S
H1341 C1327 0.958 . S
H1342 C1327 0.961 . S
H1343 C1327 0.960 . S
C1344 C1345 1.391 . S
C1344 C1346 1.394 . S
C1344 H1360 0.931 . S
C1345 C1344 1.391 . S
C1345 C1349 1.376 . S
C1346 C1344 1.394 . S
C1346 C1347 1.369 . S
C1346 C1350 1.531 . S
C1347 C1346 1.369 . S
C1347 C1348 1.410 . S
C1347 C1355 1.503 . S
C1348 C1347 1.410 . S
C1348 C1349 1.392 . S
C1348 C1351 1.511 . S
C1349 C1345 1.376 . S
C1349 C1348 1.392 . S
C1349 H1361 0.929 . S
C1350 C1346 1.531 . S
C1350 H1362 0.960 . S
C1350 H1363 0.962 . S
C1350 H1364 0.960 . S
C1351 C1348 1.511 . S
C1351 H1365 0.961 . S
C1351 H1366 0.961 . S
C1351 H1367 0.961 . S
C1352 C1353 1.370 . S
C1352 C1354 1.363 . S
C1352 H1368 0.931 . S
C1353 C1352 1.370 . S
C1353 C1357 1.408 . S
C1354 C1352 1.363 . S
C1354 C1355 1.370 . S
C1354 C1358 1.524 . S
C1355 C1347 1.503 . S
C1355 C1354 1.370 . S
C1355 C1356 1.403 . S
C1356 C1355 1.403 . S
C1356 C1357 1.404 . S
C1356 C1359 1.539 . S
C1357 C1353 1.408 . S
C1357 C1356 1.404 . S
C1357 H1369 0.930 . S
C1358 C1354 1.524 . S
C1358 H1370 0.956 . S
C1358 H1371 0.961 . S
C1358 H1372 0.961 . S
C1359 C1356 1.539 . S
C1359 H1373 0.958 . S
C1359 H1374 0.961 . S
C1359 H1375 0.960 . S
H1360 C1344 0.931 . S
H1361 C1349 0.929 . S
H1362 C1350 0.960 . S
H1363 C1350 0.962 . S
H1364 C1350 0.960 . S
H1365 C1351 0.961 . S
H1366 C1351 0.961 . S
H1367 C1351 0.961 . S
H1368 C1352 0.931 . S
H1369 C1357 0.930 . S
H1370 C1358 0.956 . S
H1371 C1358 0.961 . S
H1372 C1358 0.961 . S
H1373 C1359 0.958 . S
H1374 C1359 0.961 . S
H1375 C1359 0.960 . S
C1376 C1377 1.391 . S
C1376 C1378 1.394 . S
C1376 H1392 0.931 . S
C1377 C1376 1.391 . S
C1377 C1381 1.376 . S
C1378 C1376 1.394 . S
C1378 C1379 1.369 . S
C1378 C1382 1.531 . S
C1379 C1378 1.369 . S
C1379 C1380 1.410 . S
C1379 C1387 1.503 1_545 S
C1380 C1379 1.410 . S
C1380 C1381 1.392 . S
C1380 C1383 1.511 . S
C1381 C1377 1.376 . S
C1381 C1380 1.392 . S
C1381 H1393 0.929 . S
C1382 C1378 1.531 . S
C1382 H1394 0.960 . S
C1382 H1395 0.962 . S
C1382 H1396 0.960 . S
C1383 C1380 1.511 . S
C1383 H1397 0.961 . S
C1383 H1398 0.961 1_545 S
C1383 H1399 0.961 . S
C1384 C1385 1.370 . S
C1384 C1386 1.363 . S
C1384 H1400 0.931 . S
C1385 C1384 1.370 . S
C1385 C1389 1.408 . S
C1386 C1384 1.363 . S
C1386 C1387 1.370 . S
C1386 C1390 1.524 . S
C1387 C1379 1.503 1_565 S
C1387 C1386 1.370 . S
C1387 C1388 1.403 . S
C1388 C1387 1.403 . S
C1388 C1389 1.404 . S
C1388 C1391 1.539 1_565 S
C1389 C1385 1.408 . S
C1389 C1388 1.404 . S
C1389 H1401 0.930 . S
C1390 C1386 1.524 . S
C1390 H1402 0.956 . S
C1390 H1403 0.961 . S
C1390 H1404 0.961 . S
C1391 C1388 1.539 1_545 S
C1391 H1405 0.958 . S
C1391 H1406 0.961 . S
C1391 H1407 0.960 . S
H1392 C1376 0.931 . S
H1393 C1381 0.929 . S
H1394 C1382 0.960 . S
H1395 C1382 0.962 . S
H1396 C1382 0.960 . S
H1397 C1383 0.961 . S
H1398 C1383 0.961 1_565 S
H1399 C1383 0.961 . S
H1400 C1384 0.931 . S
H1401 C1389 0.930 . S
H1402 C1390 0.956 . S
H1403 C1390 0.961 . S
H1404 C1390 0.961 . S
H1405 C1391 0.958 . S
H1406 C1391 0.961 . S
H1407 C1391 0.960 . S
C1408 C1409 1.391 . S
C1408 C1410 1.394 . S
C1408 H1424 0.931 . S
C1409 C1408 1.391 . S
C1409 C1413 1.376 . S
C1410 C1408 1.394 . S
C1410 C1411 1.369 . S
C1410 C1414 1.531 . S
C1411 C1410 1.369 . S
C1411 C1412 1.410 . S
C1411 C1419 1.503 . S
C1412 C1411 1.410 . S
C1412 C1413 1.392 . S
C1412 C1415 1.511 . S
C1413 C1409 1.376 . S
C1413 C1412 1.392 . S
C1413 H1425 0.929 . S
C1414 C1410 1.531 . S
C1414 H1426 0.960 . S
C1414 H1427 0.962 . S
C1414 H1428 0.960 . S
C1415 C1412 1.511 . S
C1415 H1429 0.961 . S
C1415 H1430 0.961 . S
C1415 H1431 0.961 . S
C1416 C1417 1.370 . S
C1416 C1418 1.363 . S
C1416 H1432 0.931 . S
C1417 C1416 1.370 . S
C1417 C1421 1.408 . S
C1418 C1416 1.363 . S
C1418 C1419 1.370 . S
C1418 C1422 1.524 . S
C1419 C1411 1.503 . S
C1419 C1418 1.370 . S
C1419 C1420 1.403 . S
C1420 C1419 1.403 . S
C1420 C1421 1.404 . S
C1420 C1423 1.539 . S
C1421 C1417 1.408 . S
C1421 C1420 1.404 . S
C1421 H1433 0.930 . S
C1422 C1418 1.524 . S
C1422 H1434 0.956 . S
C1422 H1435 0.961 . S
C1422 H1436 0.961 . S
C1423 C1420 1.539 . S
C1423 H1437 0.958 . S
C1423 H1438 0.961 . S
C1423 H1439 0.960 . S
H1424 C1408 0.931 . S
H1425 C1413 0.929 . S
H1426 C1414 0.960 . S
H1427 C1414 0.962 . S
H1428 C1414 0.960 . S
H1429 C1415 0.961 . S
H1430 C1415 0.961 . S
H1431 C1415 0.961 . S
H1432 C1416 0.931 . S
H1433 C1421 0.930 . S
H1434 C1422 0.956 . S
H1435 C1422 0.961 . S
H1436 C1422 0.961 . S
H1437 C1423 0.958 . S
H1438 C1423 0.961 . S
H1439 C1423 0.960 . S
C1440 C1441 1.391 . S
C1440 C1442 1.394 . S
C1440 H1456 0.931 . S
C1441 C1440 1.391 . S
C1441 C1445 1.376 . S
C1442 C1440 1.394 . S
C1442 C1443 1.369 . S
C1442 C1446 1.531 . S
C1443 C1442 1.369 . S
C1443 C1444 1.410 . S
C1443 C1451 1.496 1_554 S
C1444 C1443 1.410 . S
C1444 C1445 1.392 . S
C1444 C1447 1.511 1_554 S
C1445 C1441 1.376 . S
C1445 C1444 1.392 . S
C1445 H1457 0.929 . S
C1446 C1442 1.531 . S
C1446 H1458 0.960 . S
C1446 H1459 0.962 . S
C1446 H1460 0.960 . S
C1447 C1444 1.511 1_556 S
C1447 H1461 0.961 . S
C1447 H1462 0.961 . S
C1447 H1463 0.961 1_556 S
C1448 C1449 1.370 . S
C1448 C1450 1.363 . S
C1448 H1464 0.931 . S
C1449 C1448 1.370 . S
C1449 C1453 1.408 1_556 S
C1450 C1448 1.363 . S
C1450 C1451 1.389 . S
C1450 C1454 1.524 . S
C1451 C1443 1.496 1_556 S
C1451 C1450 1.389 . S
C1451 C1452 1.391 1_556 S
C1452 C1451 1.391 1_554 S
C1452 C1453 1.404 . S
C1452 C1455 1.539 . S
C1453 C1449 1.408 1_554 S
C1453 C1452 1.404 . S
C1453 H1465 0.930 . S
C1454 C1450 1.524 . S
C1454 H1466 0.956 . S
C1454 H1467 0.961 . S
C1454 H1468 0.961 . S
C1455 C1452 1.539 . S
C1455 H1469 0.958 . S
C1455 H1470 0.961 . S
C1455 H1471 0.960 . S
H1456 C1440 0.931 . S
H1457 C1445 0.929 . S
H1458 C1446 0.960 . S
H1459 C1446 0.962 . S
H1460 C1446 0.960 . S
H1461 C1447 0.961 . S
H1462 C1447 0.961 . S
H1463 C1447 0.961 1_554 S
H1464 C1448 0.931 . S
H1465 C1453 0.930 . S
H1466 C1454 0.956 . S
H1467 C1454 0.961 . S
H1468 C1454 0.961 . S
H1469 C1455 0.958 . S
H1470 C1455 0.961 . S
H1471 C1455 0.960 . S
C1472 C1473 1.391 . S
C1472 C1474 1.394 . S
C1472 H1488 0.931 . S
C1473 C1472 1.391 . S
C1473 C1477 1.376 . S
C1474 C1472 1.394 . S
C1474 C1475 1.369 . S
C1474 C1478 1.531 . S
C1475 C1474 1.369 . S
C1475 C1476 1.410 . S
C1475 C1483 1.503 . S
C1476 C1475 1.410 . S
C1476 C1477 1.392 . S
C1476 C1479 1.511 . S
C1477 C1473 1.376 . S
C1477 C1476 1.392 . S
C1477 H1489 0.929 . S
C1478 C1474 1.531 . S
C1478 H1490 0.960 . S
C1478 H1491 0.962 . S
C1478 H1492 0.960 . S
C1479 C1476 1.511 . S
C1479 H1493 0.961 . S
C1479 H1494 0.961 . S
C1479 H1495 0.961 . S
C1480 C1481 1.370 . S
C1480 C1482 1.363 . S
C1480 H1496 0.931 . S
C1481 C1480 1.370 . S
C1481 C1485 1.408 . S
C1482 C1480 1.363 . S
C1482 C1483 1.370 . S
C1482 C1486 1.524 . S
C1483 C1475 1.503 . S
C1483 C1482 1.370 . S
C1483 C1484 1.403 . S
C1484 C1483 1.403 . S
C1484 C1485 1.404 . S
C1484 C1487 1.539 . S
C1485 C1481 1.408 . S
C1485 C1484 1.404 . S
C1485 H1497 0.930 . S
C1486 C1482 1.524 . S
C1486 H1498 0.956 . S
C1486 H1499 0.961 . S
C1486 H1500 0.961 . S
C1487 C1484 1.539 . S
C1487 H1501 0.958 . S
C1487 H1502 0.961 . S
C1487 H1503 0.960 . S
H1488 C1472 0.931 . S
H1489 C1477 0.929 . S
H1490 C1478 0.960 . S
H1491 C1478 0.962 . S
H1492 C1478 0.960 . S
H1493 C1479 0.961 . S
H1494 C1479 0.961 . S
H1495 C1479 0.961 . S
H1496 C1480 0.931 . S
H1497 C1485 0.930 . S
H1498 C1486 0.956 . S
H1499 C1486 0.961 . S
H1500 C1486 0.961 . S
H1501 C1487 0.958 . S
H1502 C1487 0.961 . S
H1503 C1487 0.960 . S
C1504 C1505 1.426 . S
C1504 C1506 1.394 . S
C1504 H1520 0.896 1_556 S
C1505 C1504 1.426 . S
C1505 C1509 1.376 . S
C1506 C1504 1.394 . S
C1506 C1507 1.369 . S
C1506 C1510 1.531 1_556 S
C1507 C1506 1.369 . S
C1507 C1508 1.410 . S
C1507 C1515 1.503 . S
C1508 C1507 1.410 . S
C1508 C1509 1.392 . S
C1508 C1511 1.511 . S
C1509 C1505 1.376 . S
C1509 C1508 1.392 . S
C1509 H1521 0.929 . S
C1510 C1506 1.531 1_554 S
C1510 H1522 0.960 . S
C1510 H1523 0.962 . S
C1510 H1524 0.960 . S
C1511 C1508 1.511 . S
C1511 H1525 0.961 . S
C1511 H1526 0.961 . S
C1511 H1527 0.961 . S
C1512 C1513 1.370 . S
C1512 C1514 1.363 . S
C1512 H1528 0.931 . S
C1513 C1512 1.370 . S
C1513 C1517 1.408 . S
C1514 C1512 1.363 . S
C1514 C1515 1.370 . S
C1514 C1518 1.524 . S
C1515 C1507 1.503 . S
C1515 C1514 1.370 . S
C1515 C1516 1.403 . S
C1516 C1515 1.403 . S
C1516 C1517 1.404 . S
C1516 C1519 1.539 . S
C1517 C1513 1.408 . S
C1517 C1516 1.404 . S
C1517 H1529 0.930 . S
C1518 C1514 1.524 . S
C1518 H1530 0.956 . S
C1518 H1531 0.961 . S
C1518 H1532 0.961 . S
C1519 C1516 1.539 . S
C1519 H1533 0.958 . S
C1519 H1534 0.961 . S
C1519 H1535 0.960 . S
H1520 C1504 0.896 1_554 S
H1521 C1509 0.929 . S
H1522 C1510 0.960 . S
H1523 C1510 0.962 . S
H1524 C1510 0.960 . S
H1525 C1511 0.961 . S
H1526 C1511 0.961 . S
H1527 C1511 0.961 . S
H1528 C1512 0.931 . S
H1529 C1517 0.930 . S
H1530 C1518 0.956 . S
H1531 C1518 0.961 . S
H1532 C1518 0.961 . S
H1533 C1519 0.958 . S
H1534 C1519 0.961 . S
H1535 C1519 0.960 . S
C1536 C1537 1.391 . S
C1536 C1538 1.394 . S
C1536 H1552 0.931 . S
C1537 C1536 1.391 . S
C1537 C1541 1.376 . S
C1538 C1536 1.394 . S
C1538 C1539 1.369 . S
C1538 C1542 1.531 . S
C1539 C1538 1.369 . S
C1539 C1540 1.410 . S
C1539 C1547 1.503 . S
C1540 C1539 1.410 . S
C1540 C1541 1.392 . S
C1540 C1543 1.511 . S
C1541 C1537 1.376 . S
C1541 C1540 1.392 . S
C1541 H1553 0.929 . S
C1542 C1538 1.531 . S
C1542 H1554 0.960 . S
C1542 H1555 0.962 . S
C1542 H1556 0.960 . S
C1543 C1540 1.511 . S
C1543 H1557 0.961 . S
C1543 H1558 0.961 . S
C1543 H1559 0.961 . S
C1544 C1545 1.370 . S
C1544 C1546 1.363 . S
C1544 H1560 0.931 . S
C1545 C1544 1.370 . S
C1545 C1549 1.408 . S
C1546 C1544 1.363 . S
C1546 C1547 1.370 . S
C1546 C1550 1.524 . S
C1547 C1539 1.503 . S
C1547 C1546 1.370 . S
C1547 C1548 1.403 . S
C1548 C1547 1.403 . S
C1548 C1549 1.404 . S
C1548 C1551 1.539 . S
C1549 C1545 1.408 . S
C1549 C1548 1.404 . S
C1549 H1561 0.930 . S
C1550 C1546 1.524 . S
C1550 H1562 0.956 . S
C1550 H1563 0.961 . S
C1550 H1564 0.961 . S
C1551 C1548 1.539 . S
C1551 H1565 0.958 . S
C1551 H1566 0.961 . S
C1551 H1567 0.960 . S
H1552 C1536 0.931 . S
H1553 C1541 0.929 . S
H1554 C1542 0.960 . S
H1555 C1542 0.962 . S
H1556 C1542 0.960 . S
H1557 C1543 0.961 . S
H1558 C1543 0.961 . S
H1559 C1543 0.961 . S
H1560 C1544 0.931 . S
H1561 C1549 0.930 . S
H1562 C1550 0.956 . S
H1563 C1550 0.961 . S
H1564 C1550 0.961 . S
H1565 C1551 0.958 . S
H1566 C1551 0.961 . S
H1567 C1551 0.960 . S
C1568 C1569 1.391 . S
C1568 C1570 1.394 . S
C1568 H1584 0.931 1_554 S
C1569 C1568 1.391 . S
C1569 C1573 1.376 . S
C1570 C1568 1.394 . S
C1570 C1571 1.369 . S
C1570 C1574 1.531 1_554 S
C1571 C1570 1.369 . S
C1571 C1572 1.410 . S
C1571 C1579 1.503 . S
C1572 C1571 1.410 . S
C1572 C1573 1.392 . S
C1572 C1575 1.511 . S
C1573 C1569 1.376 . S
C1573 C1572 1.392 . S
C1573 H1585 0.929 . S
C1574 C1570 1.531 1_556 S
C1574 H1586 0.960 . S
C1574 H1587 0.960 . S
C1574 H1588 0.960 . S
C1575 C1572 1.511 . S
C1575 H1589 0.961 . S
C1575 H1590 0.961 . S
C1575 H1591 0.961 . S
C1576 C1577 1.370 . S
C1576 C1578 1.363 . S
C1576 H1592 0.931 . S
C1577 C1576 1.370 . S
C1577 C1581 1.408 . S
C1578 C1576 1.363 . S
C1578 C1579 1.370 . S
C1578 C1582 1.524 . S
C1579 C1571 1.503 . S
C1579 C1578 1.370 . S
C1579 C1580 1.403 . S
C1580 C1579 1.403 . S
C1580 C1581 1.404 . S
C1580 C1583 1.539 1_554 S
C1581 C1577 1.408 . S
C1581 C1580 1.404 . S
C1581 H1593 0.930 1_554 S
C1582 C1578 1.524 . S
C1582 H1594 0.956 . S
C1582 H1595 0.961 . S
C1582 H1596 0.961 . S
C1583 C1580 1.539 1_556 S
C1583 H1597 0.958 . S
C1583 H1598 0.961 . S
C1583 H1599 0.960 . S
H1584 C1568 0.931 1_556 S
H1585 C1573 0.929 . S
H1586 C1574 0.960 . S
H1587 C1574 0.960 . S
H1588 C1574 0.960 . S
H1589 C1575 0.961 . S
H1590 C1575 0.961 . S
H1591 C1575 0.961 . S
H1592 C1576 0.931 . S
H1593 C1581 0.930 1_556 S
H1594 C1582 0.956 . S
H1595 C1582 0.961 . S
H1596 C1582 0.961 . S
H1597 C1583 0.958 . S
H1598 C1583 0.961 . S
H1599 C1583 0.960 . S
C1600 C1601 1.391 . S
C1600 C1602 1.394 . S
C1600 H1616 0.931 . S
C1601 C1600 1.391 . S
C1601 C1605 1.376 . S
C1602 C1600 1.394 . S
C1602 C1603 1.369 . S
C1602 C1606 1.531 . S
C1603 C1602 1.369 . S
C1603 C1604 1.410 . S
C1603 C1611 1.503 . S
C1604 C1603 1.410 . S
C1604 C1605 1.392 . S
C1604 C1607 1.511 . S
C1605 C1601 1.376 . S
C1605 C1604 1.392 . S
C1605 H1617 0.929 . S
C1606 C1602 1.531 . S
C1606 H1618 0.960 . S
C1606 H1619 0.962 . S
C1606 H1620 0.960 . S
C1607 C1604 1.511 . S
C1607 H1621 0.961 . S
C1607 H1622 0.961 . S
C1607 H1623 0.961 . S
C1608 C1609 1.370 . S
C1608 C1610 1.363 . S
C1608 H1624 0.931 . S
C1609 C1608 1.370 . S
C1609 C1613 1.408 . S
C1610 C1608 1.363 . S
C1610 C1611 1.370 . S
C1610 C1614 1.524 . S
C1611 C1603 1.503 . S
C1611 C1610 1.370 . S
C1611 C1612 1.403 . S
C1612 C1611 1.403 . S
C1612 C1613 1.404 . S
C1612 C1615 1.539 . S
C1613 C1609 1.408 . S
C1613 C1612 1.404 . S
C1613 H1625 0.930 . S
C1614 C1610 1.524 . S
C1614 H1626 0.956 . S
C1614 H1627 0.961 . S
C1614 H1628 0.961 . S
C1615 C1612 1.539 . S
C1615 H1629 0.958 . S
C1615 H1630 0.961 . S
C1615 H1631 0.960 . S
H1616 C1600 0.931 . S
H1617 C1605 0.929 . S
H1618 C1606 0.960 . S
H1619 C1606 0.962 . S
H1620 C1606 0.960 . S
H1621 C1607 0.961 . S
H1622 C1607 0.961 . S
H1623 C1607 0.961 . S
H1624 C1608 0.931 . S
H1625 C1613 0.930 . S
H1626 C1614 0.956 . S
H1627 C1614 0.961 . S
H1628 C1614 0.961 . S
H1629 C1615 0.958 . S
H1630 C1615 0.961 . S
H1631 C1615 0.960 . S
C1632 C1633 1.391 . S
C1632 C1634 1.394 . S
C1632 H1648 0.931 . S
C1633 C1632 1.391 . S
C1633 C1637 1.376 . S
C1634 C1632 1.394 . S
C1634 C1635 1.369 . S
C1634 C1638 1.531 . S
C1635 C1634 1.369 . S
C1635 C1636 1.410 . S
C1635 C1643 1.503 . S
C1636 C1635 1.410 . S
C1636 C1637 1.392 . S
C1636 C1639 1.511 . S
C1637 C1633 1.376 . S
C1637 C1636 1.392 . S
C1637 H1649 0.929 . S
C1638 C1634 1.531 . S
C1638 H1650 0.960 . S
C1638 H1651 0.962 . S
C1638 H1652 0.960 . S
C1639 C1636 1.511 . S
C1639 H1653 0.961 . S
C1639 H1654 0.961 . S
C1639 H1655 0.961 . S
C1640 C1641 1.370 . S
C1640 C1642 1.363 . S
C1640 H1656 0.931 . S
C1641 C1640 1.370 . S
C1641 C1645 1.408 . S
C1642 C1640 1.363 . S
C1642 C1643 1.370 . S
C1642 C1646 1.524 . S
C1643 C1635 1.503 . S
C1643 C1642 1.370 . S
C1643 C1644 1.403 . S
C1644 C1643 1.403 . S
C1644 C1645 1.404 . S
C1644 C1647 1.539 . S
C1645 C1641 1.408 . S
C1645 C1644 1.404 . S
C1645 H1657 0.930 . S
C1646 C1642 1.524 . S
C1646 H1658 0.956 . S
C1646 H1659 0.961 . S
C1646 H1660 0.961 . S
C1647 C1644 1.539 . S
C1647 H1661 0.958 . S
C1647 H1662 0.961 . S
C1647 H1663 0.960 . S
H1648 C1632 0.931 . S
H1649 C1637 0.929 . S
H1650 C1638 0.960 . S
H1651 C1638 0.962 . S
H1652 C1638 0.960 . S
H1653 C1639 0.961 . S
H1654 C1639 0.961 . S
H1655 C1639 0.961 . S
H1656 C1640 0.931 . S
H1657 C1645 0.930 . S
H1658 C1646 0.956 . S
H1659 C1646 0.961 . S
H1660 C1646 0.961 . S
H1661 C1647 0.958 . S
H1662 C1647 0.961 . S
H1663 C1647 0.960 . S
C1664 C1665 1.391 . S
C1664 C1666 1.394 . S
C1664 H1680 0.931 . S
C1665 C1664 1.391 . S
C1665 C1669 1.376 . S
C1666 C1664 1.394 . S
C1666 C1667 1.369 . S
C1666 C1670 1.531 . S
C1667 C1666 1.369 . S
C1667 C1668 1.410 . S
C1667 C1675 1.503 . S
C1668 C1667 1.410 . S
C1668 C1669 1.392 . S
C1668 C1671 1.511 . S
C1669 C1665 1.376 . S
C1669 C1668 1.392 . S
C1669 H1681 0.929 . S
C1670 C1666 1.531 . S
C1670 H1682 0.960 . S
C1670 H1683 0.962 . S
C1670 H1684 0.960 . S
C1671 C1668 1.511 . S
C1671 H1685 0.961 . S
C1671 H1686 0.961 . S
C1671 H1687 0.961 . S
C1672 C1673 1.370 . S
C1672 C1674 1.363 . S
C1672 H1688 0.931 . S
C1673 C1672 1.370 . S
C1673 C1677 1.408 . S
C1674 C1672 1.363 . S
C1674 C1675 1.370 . S
C1674 C1678 1.524 . S
C1675 C1667 1.503 . S
C1675 C1674 1.370 . S
C1675 C1676 1.403 . S
C1676 C1675 1.403 . S
C1676 C1677 1.404 . S
C1676 C1679 1.539 . S
C1677 C1673 1.408 . S
C1677 C1676 1.404 . S
C1677 H1689 0.930 . S
C1678 C1674 1.524 . S
C1678 H1690 0.956 . S
C1678 H1691 0.961 . S
C1678 H1692 0.961 . S
C1679 C1676 1.539 . S
C1679 H1693 0.958 . S
C1679 H1694 0.961 . S
C1679 H1695 0.960 . S
H1680 C1664 0.931 . S
H1681 C1669 0.929 . S
H1682 C1670 0.960 . S
H1683 C1670 0.962 . S
H1684 C1670 0.960 . S
H1685 C1671 0.961 . S
H1686 C1671 0.961 . S
H1687 C1671 0.961 . S
H1688 C1672 0.931 . S
H1689 C1677 0.930 . S
H1690 C1678 0.956 . S
H1691 C1678 0.961 . S
H1692 C1678 0.961 . S
H1693 C1679 0.958 . S
H1694 C1679 0.961 . S
H1695 C1679 0.960 . S
C1696 C1697 1.391 . S
C1696 C1698 1.394 . S
C1696 H1712 0.931 . S
C1697 C1696 1.391 . S
C1697 C1701 1.376 . S
C1698 C1696 1.394 . S
C1698 C1699 1.369 . S
C1698 C1702 1.531 . S
C1699 C1698 1.369 . S
C1699 C1700 1.410 . S
C1699 C1707 1.503 . S
C1700 C1699 1.410 . S
C1700 C1701 1.392 . S
C1700 C1703 1.511 . S
C1701 C1697 1.376 . S
C1701 C1700 1.392 . S
C1701 H1713 0.929 . S
C1702 C1698 1.531 . S
C1702 H1714 0.960 . S
C1702 H1715 0.962 . S
C1702 H1716 0.960 . S
C1703 C1700 1.511 . S
C1703 H1717 0.961 . S
C1703 H1718 0.961 . S
C1703 H1719 0.961 . S
C1704 C1705 1.370 . S
C1704 C1706 1.363 . S
C1704 H1720 0.931 . S
C1705 C1704 1.370 . S
C1705 C1709 1.408 . S
C1706 C1704 1.363 . S
C1706 C1707 1.370 . S
C1706 C1710 1.524 . S
C1707 C1699 1.503 . S
C1707 C1706 1.370 . S
C1707 C1708 1.403 . S
C1708 C1707 1.403 . S
C1708 C1709 1.404 . S
C1708 C1711 1.539 . S
C1709 C1705 1.408 . S
C1709 C1708 1.404 . S
C1709 H1721 0.930 . S
C1710 C1706 1.524 . S
C1710 H1722 0.956 . S
C1710 H1723 0.961 . S
C1710 H1724 0.961 . S
C1711 C1708 1.539 . S
C1711 H1725 0.958 . S
C1711 H1726 0.961 . S
C1711 H1727 0.960 . S
H1712 C1696 0.931 . S
H1713 C1701 0.929 . S
H1714 C1702 0.960 . S
H1715 C1702 0.962 . S
H1716 C1702 0.960 . S
H1717 C1703 0.961 . S
H1718 C1703 0.961 . S
H1719 C1703 0.961 . S
H1720 C1704 0.931 . S
H1721 C1709 0.930 . S
H1722 C1710 0.956 . S
H1723 C1710 0.961 . S
H1724 C1710 0.961 . S
H1725 C1711 0.958 . S
H1726 C1711 0.961 . S
H1727 C1711 0.960 . S
C1728 C1729 1.391 . S
C1728 C1730 1.394 . S
C1728 H1744 0.931 . S
C1729 C1728 1.391 . S
C1729 C1733 1.376 . S
C1730 C1728 1.394 . S
C1730 C1731 1.369 . S
C1730 C1734 1.531 . S
C1731 C1730 1.369 . S
C1731 C1732 1.410 . S
C1731 C1739 1.503 . S
C1732 C1731 1.410 . S
C1732 C1733 1.392 . S
C1732 C1735 1.511 . S
C1733 C1729 1.376 . S
C1733 C1732 1.392 . S
C1733 H1745 0.929 . S
C1734 C1730 1.531 . S
C1734 H1746 0.960 . S
C1734 H1747 0.962 . S
C1734 H1748 0.960 . S
C1735 C1732 1.511 . S
C1735 H1749 0.961 . S
C1735 H1750 0.961 . S
C1735 H1751 0.961 . S
C1736 C1737 1.370 . S
C1736 C1738 1.363 . S
C1736 H1752 0.931 . S
C1737 C1736 1.370 . S
C1737 C1741 1.408 . S
C1738 C1736 1.363 . S
C1738 C1739 1.370 . S
C1738 C1742 1.524 . S
C1739 C1731 1.503 . S
C1739 C1738 1.370 . S
C1739 C1740 1.403 . S
C1740 C1739 1.403 . S
C1740 C1741 1.404 . S
C1740 C1743 1.539 . S
C1741 C1737 1.408 . S
C1741 C1740 1.404 . S
C1741 H1753 0.930 . S
C1742 C1738 1.524 . S
C1742 H1754 0.956 . S
C1742 H1755 0.961 . S
C1742 H1756 0.961 . S
C1743 C1740 1.539 . S
C1743 H1757 0.958 . S
C1743 H1758 0.961 . S
C1743 H1759 0.960 . S
H1744 C1728 0.931 . S
H1745 C1733 0.929 . S
H1746 C1734 0.960 . S
H1747 C1734 0.962 . S
H1748 C1734 0.960 . S
H1749 C1735 0.961 . S
H1750 C1735 0.961 . S
H1751 C1735 0.961 . S
H1752 C1736 0.931 . S
H1753 C1741 0.930 . S
H1754 C1742 0.956 . S
H1755 C1742 0.961 . S
H1756 C1742 0.961 . S
H1757 C1743 0.958 . S
H1758 C1743 0.961 . S
H1759 C1743 0.960 . S
C1760 C1761 1.391 . S
C1760 C1762 1.394 . S
C1760 H1776 0.931 . S
C1761 C1760 1.391 . S
C1761 C1765 1.376 . S
C1762 C1760 1.394 . S
C1762 C1763 1.369 . S
C1762 C1766 1.531 . S
C1763 C1762 1.369 . S
C1763 C1764 1.410 . S
C1763 C1771 1.503 . S
C1764 C1763 1.410 . S
C1764 C1765 1.392 . S
C1764 C1767 1.511 . S
C1765 C1761 1.376 . S
C1765 C1764 1.392 . S
C1765 H1777 0.929 . S
C1766 C1762 1.531 . S
C1766 H1778 0.960 . S
C1766 H1779 0.962 . S
C1766 H1780 0.960 . S
C1767 C1764 1.511 . S
C1767 H1781 0.961 . S
C1767 H1782 0.961 . S
C1767 H1783 0.961 . S
C1768 C1769 1.370 . S
C1768 C1770 1.363 . S
C1768 H1784 0.931 . S
C1769 C1768 1.370 . S
C1769 C1773 1.408 . S
C1770 C1768 1.363 . S
C1770 C1771 1.370 . S
C1770 C1774 1.524 . S
C1771 C1763 1.503 . S
C1771 C1770 1.370 . S
C1771 C1772 1.403 . S
C1772 C1771 1.403 . S
C1772 C1773 1.404 . S
C1772 C1775 1.539 . S
C1773 C1769 1.408 . S
C1773 C1772 1.404 . S
C1773 H1785 0.930 . S
C1774 C1770 1.524 . S
C1774 H1786 0.956 . S
C1774 H1787 0.961 . S
C1774 H1788 0.961 . S
C1775 C1772 1.539 . S
C1775 H1789 0.958 . S
C1775 H1790 0.961 . S
C1775 H1791 0.960 . S
H1776 C1760 0.931 . S
H1777 C1765 0.929 . S
H1778 C1766 0.960 . S
H1779 C1766 0.962 . S
H1780 C1766 0.960 . S
H1781 C1767 0.961 . S
H1782 C1767 0.961 . S
H1783 C1767 0.961 . S
H1784 C1768 0.931 . S
H1785 C1773 0.930 . S
H1786 C1774 0.956 . S
H1787 C1774 0.961 . S
H1788 C1774 0.961 . S
H1789 C1775 0.958 . S
H1790 C1775 0.961 . S
H1791 C1775 0.960 . S
C1792 C1793 1.391 . S
C1792 C1794 1.394 . S
C1792 H1808 0.931 . S
C1793 C1792 1.391 . S
C1793 C1797 1.376 . S
C1794 C1792 1.394 . S
C1794 C1795 1.369 . S
C1794 C1798 1.531 . S
C1795 C1794 1.369 . S
C1795 C1796 1.410 . S
C1795 C1803 1.503 . S
C1796 C1795 1.410 . S
C1796 C1797 1.392 . S
C1796 C1799 1.511 . S
C1797 C1793 1.376 . S
C1797 C1796 1.392 . S
C1797 H1809 0.929 . S
C1798 C1794 1.531 . S
C1798 H1810 0.960 . S
C1798 H1811 0.962 . S
C1798 H1812 0.960 . S
C1799 C1796 1.511 . S
C1799 H1813 0.961 . S
C1799 H1814 0.961 . S
C1799 H1815 0.961 . S
C1800 C1801 1.370 . S
C1800 C1802 1.363 . S
C1800 H1816 0.931 . S
C1801 C1800 1.370 . S
C1801 C1805 1.408 . S
C1802 C1800 1.363 . S
C1802 C1803 1.370 . S
C1802 C1806 1.524 . S
C1803 C1795 1.503 . S
C1803 C1802 1.370 . S
C1803 C1804 1.403 . S
C1804 C1803 1.403 . S
C1804 C1805 1.404 . S
C1804 C1807 1.539 . S
C1805 C1801 1.408 . S
C1805 C1804 1.404 . S
C1805 H1817 0.930 . S
C1806 C1802 1.524 . S
C1806 H1818 0.956 . S
C1806 H1819 0.961 . S
C1806 H1820 0.961 . S
C1807 C1804 1.539 . S
C1807 H1821 0.958 . S
C1807 H1822 0.961 . S
C1807 H1823 0.960 . S
H1808 C1792 0.931 . S
H1809 C1797 0.929 . S
H1810 C1798 0.960 . S
H1811 C1798 0.962 . S
H1812 C1798 0.960 . S
H1813 C1799 0.961 . S
H1814 C1799 0.961 . S
H1815 C1799 0.961 . S
H1816 C1800 0.931 . S
H1817 C1805 0.930 . S
H1818 C1806 0.956 . S
H1819 C1806 0.961 . S
H1820 C1806 0.961 . S
H1821 C1807 0.958 . S
H1822 C1807 0.961 . S
H1823 C1807 0.960 . S
C1824 C1825 1.391 . S
C1824 C1826 1.394 . S
C1824 H1840 0.931 . S
C1825 C1824 1.391 . S
C1825 C1829 1.376 . S
C1826 C1824 1.394 . S
C1826 C1827 1.369 . S
C1826 C1830 1.531 . S
C1827 C1826 1.369 . S
C1827 C1828 1.410 . S
C1827 C1835 1.503 . S
C1828 C1827 1.410 . S
C1828 C1829 1.392 . S
C1828 C1831 1.511 . S
C1829 C1825 1.376 . S
C1829 C1828 1.392 . S
C1829 H1841 0.929 . S
C1830 C1826 1.531 . S
C1830 H1842 0.960 . S
C1830 H1843 0.962 . S
C1830 H1844 0.960 . S
C1831 C1828 1.511 . S
C1831 H1845 0.961 . S
C1831 H1846 0.961 . S
C1831 H1847 0.961 . S
C1832 C1833 1.370 . S
C1832 C1834 1.363 . S
C1832 H1848 0.931 . S
C1833 C1832 1.370 . S
C1833 C1837 1.408 . S
C1834 C1832 1.363 . S
C1834 C1835 1.370 . S
C1834 C1838 1.524 . S
C1835 C1827 1.503 . S
C1835 C1834 1.370 . S
C1835 C1836 1.403 . S
C1836 C1835 1.403 . S
C1836 C1837 1.404 . S
C1836 C1839 1.539 . S
C1837 C1833 1.408 . S
C1837 C1836 1.404 . S
C1837 H1849 0.930 . S
C1838 C1834 1.524 . S
C1838 H1850 0.956 . S
C1838 H1851 0.961 . S
C1838 H1852 0.961 . S
C1839 C1836 1.539 . S
C1839 H1853 0.958 . S
C1839 H1854 0.961 . S
C1839 H1855 0.960 . S
H1840 C1824 0.931 . S
H1841 C1829 0.929 . S
H1842 C1830 0.960 . S
H1843 C1830 0.962 . S
H1844 C1830 0.960 . S
H1845 C1831 0.961 . S
H1846 C1831 0.961 . S
H1847 C1831 0.961 . S
H1848 C1832 0.931 . S
H1849 C1837 0.930 . S
H1850 C1838 0.956 . S
H1851 C1838 0.961 . S
H1852 C1838 0.961 . S
H1853 C1839 0.958 . S
H1854 C1839 0.961 . S
H1855 C1839 0.960 . S
C1856 C1857 1.391 . S
C1856 C1858 1.394 . S
C1856 H1872 0.931 . S
C1857 C1856 1.391 . S
C1857 C1861 1.376 . S
C1858 C1856 1.394 . S
C1858 C1859 1.369 . S
C1858 C1862 1.531 . S
C1859 C1858 1.369 . S
C1859 C1860 1.410 . S
C1859 C1867 1.503 . S
C1860 C1859 1.410 . S
C1860 C1861 1.392 . S
C1860 C1863 1.511 . S
C1861 C1857 1.376 . S
C1861 C1860 1.392 . S
C1861 H1873 0.929 . S
C1862 C1858 1.531 . S
C1862 H1874 0.960 . S
C1862 H1875 0.962 . S
C1862 H1876 0.960 . S
C1863 C1860 1.511 . S
C1863 H1877 0.961 . S
C1863 H1878 0.961 . S
C1863 H1879 0.961 . S
C1864 C1865 1.370 . S
C1864 C1866 1.363 . S
C1864 H1880 0.931 . S
C1865 C1864 1.370 . S
C1865 C1869 1.408 . S
C1866 C1864 1.363 . S
C1866 C1867 1.370 . S
C1866 C1870 1.524 . S
C1867 C1859 1.503 . S
C1867 C1866 1.370 . S
C1867 C1868 1.403 . S
C1868 C1867 1.403 . S
C1868 C1869 1.404 . S
C1868 C1871 1.539 . S
C1869 C1865 1.408 . S
C1869 C1868 1.404 . S
C1869 H1881 0.930 . S
C1870 C1866 1.524 . S
C1870 H1882 0.956 . S
C1870 H1883 0.961 . S
C1870 H1884 0.961 . S
C1871 C1868 1.539 . S
C1871 H1885 0.958 . S
C1871 H1886 0.961 . S
C1871 H1887 0.960 . S
H1872 C1856 0.931 . S
H1873 C1861 0.929 . S
H1874 C1862 0.960 . S
H1875 C1862 0.962 . S
H1876 C1862 0.960 . S
H1877 C1863 0.961 . S
H1878 C1863 0.961 . S
H1879 C1863 0.961 . S
H1880 C1864 0.931 . S
H1881 C1869 0.930 . S
H1882 C1870 0.956 . S
H1883 C1870 0.961 . S
H1884 C1870 0.961 . S
H1885 C1871 0.958 . S
H1886 C1871 0.961 . S
H1887 C1871 0.960 . S
C1888 C1889 1.391 . S
C1888 C1890 1.394 . S
C1888 H1904 0.931 1_556 S
C1889 C1888 1.391 . S
C1889 C1893 1.376 . S
C1890 C1888 1.394 . S
C1890 C1891 1.369 . S
C1890 C1894 1.531 1_556 S
C1891 C1890 1.369 . S
C1891 C1892 1.410 . S
C1891 C1899 1.503 . S
C1892 C1891 1.410 . S
C1892 C1893 1.392 . S
C1892 C1895 1.511 . S
C1893 C1889 1.376 . S
C1893 C1892 1.392 . S
C1893 H1905 0.929 . S
C1894 C1890 1.531 1_554 S
C1894 H1906 0.960 . S
C1894 H1907 0.962 . S
C1894 H1908 0.960 . S
C1895 C1892 1.511 . S
C1895 H1909 0.961 . S
C1895 H1910 0.961 . S
C1895 H1911 0.961 . S
C1896 C1897 1.370 . S
C1896 C1898 1.363 . S
C1896 H1912 0.931 . S
C1897 C1896 1.370 . S
C1897 C1901 1.408 . S
C1898 C1896 1.363 . S
C1898 C1899 1.370 . S
C1898 C1902 1.524 . S
C1899 C1891 1.503 . S
C1899 C1898 1.370 . S
C1899 C1900 1.403 . S
C1900 C1899 1.403 . S
C1900 C1901 1.404 . S
C1900 C1903 1.539 1_556 S
C1901 C1897 1.408 . S
C1901 C1900 1.404 . S
C1901 H1913 0.930 1_556 S
C1902 C1898 1.524 . S
C1902 H1914 0.956 . S
C1902 H1915 0.961 . S
C1902 H1916 0.961 . S
C1903 C1900 1.539 1_554 S
C1903 H1917 0.958 . S
C1903 H1918 0.961 . S
C1903 H1919 0.960 . S
H1904 C1888 0.931 1_554 S
H1905 C1893 0.929 . S
H1906 C1894 0.960 . S
H1907 C1894 0.962 . S
H1908 C1894 0.960 . S
H1909 C1895 0.961 . S
H1910 C1895 0.961 . S
H1911 C1895 0.961 . S
H1912 C1896 0.931 . S
H1913 C1901 0.930 1_554 S
H1914 C1902 0.956 . S
H1915 C1902 0.961 . S
H1916 C1902 0.961 . S
H1917 C1903 0.958 . S
H1918 C1903 0.961 . S
H1919 C1903 0.960 . S
C1920 C1921 1.391 . S
C1920 C1922 1.394 . S
C1920 H1936 0.931 . S
C1921 C1920 1.391 . S
C1921 C1925 1.376 . S
C1922 C1920 1.394 . S
C1922 C1923 1.369 . S
C1922 C1926 1.531 . S
C1923 C1922 1.369 . S
C1923 C1924 1.410 . S
C1923 C1931 1.503 . S
C1924 C1923 1.410 . S
C1924 C1925 1.392 . S
C1924 C1927 1.511 . S
C1925 C1921 1.376 . S
C1925 C1924 1.392 . S
C1925 H1937 0.929 . S
C1926 C1922 1.531 . S
C1926 H1938 0.960 . S
C1926 H1939 0.962 . S
C1926 H1940 0.960 . S
C1927 C1924 1.511 . S
C1927 H1941 0.961 . S
C1927 H1942 0.961 . S
C1927 H1943 0.961 . S
C1928 C1929 1.370 . S
C1928 C1930 1.363 . S
C1928 H1944 0.931 . S
C1929 C1928 1.370 . S
C1929 C1933 1.408 . S
C1930 C1928 1.363 . S
C1930 C1931 1.370 . S
C1930 C1934 1.524 . S
C1931 C1923 1.503 . S
C1931 C1930 1.370 . S
C1931 C1932 1.403 . S
C1932 C1931 1.403 . S
C1932 C1933 1.404 . S
C1932 C1935 1.539 . S
C1933 C1929 1.408 . S
C1933 C1932 1.404 . S
C1933 H1945 0.930 . S
C1934 C1930 1.524 . S
C1934 H1946 0.956 . S
C1934 H1947 0.961 . S
C1934 H1948 0.961 . S
C1935 C1932 1.539 . S
C1935 H1949 0.958 . S
C1935 H1950 0.961 . S
C1935 H1951 0.960 . S
H1936 C1920 0.931 . S
H1937 C1925 0.929 . S
H1938 C1926 0.960 . S
H1939 C1926 0.962 . S
H1940 C1926 0.960 . S
H1941 C1927 0.961 . S
H1942 C1927 0.961 . S
H1943 C1927 0.961 . S
H1944 C1928 0.931 . S
H1945 C1933 0.930 . S
H1946 C1934 0.956 . S
H1947 C1934 0.961 . S
H1948 C1934 0.961 . S
H1949 C1935 0.958 . S
H1950 C1935 0.961 . S
H1951 C1935 0.960 . S
C1952 C1953 1.391 . S
C1952 C1954 1.394 . S
C1952 H1968 0.931 1_554 S
C1953 C1952 1.391 . S
C1953 C1957 1.376 . S
C1954 C1952 1.394 . S
C1954 C1955 1.369 . S
C1954 C1958 1.531 1_554 S
C1955 C1954 1.369 . S
C1955 C1956 1.410 . S
C1955 C1963 1.503 . S
C1956 C1955 1.410 . S
C1956 C1957 1.392 . S
C1956 C1959 1.511 . S
C1957 C1953 1.376 . S
C1957 C1956 1.392 . S
C1957 H1969 0.929 . S
C1958 C1954 1.531 1_556 S
C1958 H1970 0.960 . S
C1958 H1971 0.962 . S
C1958 H1972 0.960 . S
C1959 C1956 1.511 . S
C1959 H1973 0.961 . S
C1959 H1974 0.961 . S
C1959 H1975 0.961 . S
C1960 C1961 1.370 . S
C1960 C1962 1.363 . S
C1960 H1976 0.931 . S
C1961 C1960 1.370 . S
C1961 C1965 1.408 . S
C1962 C1960 1.363 . S
C1962 C1963 1.370 . S
C1962 C1966 1.524 . S
C1963 C1955 1.503 . S
C1963 C1962 1.370 . S
C1963 C1964 1.403 . S
C1964 C1963 1.403 . S
C1964 C1965 1.404 . S
C1964 C1967 1.539 . S
C1965 C1961 1.408 . S
C1965 C1964 1.404 . S
C1965 H1977 0.930 . S
C1966 C1962 1.524 . S
C1966 H1978 0.956 . S
C1966 H1979 0.961 . S
C1966 H1980 0.961 . S
C1967 C1964 1.539 . S
C1967 H1981 0.958 . S
C1967 H1982 0.961 . S
C1967 H1983 0.960 . S
H1968 C1952 0.931 1_556 S
H1969 C1957 0.929 . S
H1970 C1958 0.960 . S
H1971 C1958 0.962 . S
H1972 C1958 0.960 . S
H1973 C1959 0.961 . S
H1974 C1959 0.961 . S
H1975 C1959 0.961 . S
H1976 C1960 0.931 . S
H1977 C1965 0.930 . S
H1978 C1966 0.956 . S
H1979 C1966 0.961 . S
H1980 C1966 0.961 . S
H1981 C1967 0.958 . S
H1982 C1967 0.961 . S
H1983 C1967 0.960 . S
C1984 C1985 1.391 . S
C1984 C1986 1.394 . S
C1984 H2000 0.931 1_655 S
C1985 C1984 1.391 . S
C1985 C1989 1.376 . S
C1986 C1984 1.394 . S
C1986 C1987 1.369 . S
C1986 C1990 1.531 . S
C1987 C1986 1.369 . S
C1987 C1988 1.410 . S
C1987 C1995 1.503 . S
C1988 C1987 1.410 . S
C1988 C1989 1.392 . S
C1988 C1991 1.511 . S
C1989 C1985 1.376 . S
C1989 C1988 1.392 . S
C1989 H2001 0.929 . S
C1990 C1986 1.531 . S
C1990 H2002 0.960 . S
C1990 H2003 0.962 . S
C1990 H2004 0.960 . S
C1991 C1988 1.511 . S
C1991 H2005 0.961 . S
C1991 H2006 0.961 . S
C1991 H2007 0.961 . S
C1992 C1993 1.370 . S
C1992 C1994 1.363 . S
C1992 H2008 0.931 . S
C1993 C1992 1.370 . S
C1993 C1997 1.408 . S
C1994 C1992 1.363 . S
C1994 C1995 1.370 . S
C1994 C1998 1.524 . S
C1995 C1987 1.503 . S
C1995 C1994 1.370 . S
C1995 C1996 1.403 . S
C1996 C1995 1.403 . S
C1996 C1997 1.404 . S
C1996 C1999 1.539 . S
C1997 C1993 1.408 . S
C1997 C1996 1.404 . S
C1997 H2009 0.930 . S
C1998 C1994 1.524 . S
C1998 H2010 0.956 . S
C1998 H2011 0.961 . S
C1998 H2012 0.961 . S
C1999 C1996 1.539 . S
C1999 H2013 0.958 . S
C1999 H2014 0.961 . S
C1999 H2015 0.960 . S
H2000 C1984 0.931 1_455 S
H2001 C1989 0.929 . S
H2002 C1990 0.960 . S
H2003 C1990 0.962 . S
H2004 C1990 0.960 . S
H2005 C1991 0.961 . S
H2006 C1991 0.961 . S
H2007 C1991 0.961 . S
H2008 C1992 0.931 . S
H2009 C1997 0.930 . S
H2010 C1998 0.956 . S
H2011 C1998 0.961 . S
H2012 C1998 0.961 . S
H2013 C1999 0.958 . S
H2014 C1999 0.961 . S
H2015 C1999 0.960 . S
C2016 C2017 1.391 . S
C2016 C2018 1.394 . S
C2016 H2032 0.931 . S
C2017 C2016 1.391 . S
C2017 C2021 1.376 . S
C2018 C2016 1.394 . S
C2018 C2019 1.369 . S
C2018 C2022 1.531 . S
C2019 C2018 1.369 . S
C2019 C2020 1.410 . S
C2019 C2027 1.503 . S
C2020 C2019 1.410 . S
C2020 C2021 1.392 . S
C2020 C2023 1.511 . S
C2021 C2017 1.376 . S
C2021 C2020 1.392 . S
C2021 H2033 0.929 . S
C2022 C2018 1.531 . S
C2022 H2034 0.960 . S
C2022 H2035 0.962 . S
C2022 H2036 0.960 . S
C2023 C2020 1.511 . S
C2023 H2037 0.961 . S
C2023 H2038 0.961 . S
C2023 H2039 0.961 . S
C2024 C2025 1.370 . S
C2024 C2026 1.363 . S
C2024 H2040 0.931 . S
C2025 C2024 1.370 . S
C2025 C2029 1.408 . S
C2026 C2024 1.363 . S
C2026 C2027 1.370 . S
C2026 C2030 1.524 . S
C2027 C2019 1.503 . S
C2027 C2026 1.370 . S
C2027 C2028 1.403 . S
C2028 C2027 1.403 . S
C2028 C2029 1.404 . S
C2028 C2031 1.539 . S
C2029 C2025 1.408 . S
C2029 C2028 1.404 . S
C2029 H2041 0.930 . S
C2030 C2026 1.524 . S
C2030 H2042 0.956 . S
C2030 H2043 0.961 . S
C2030 H2044 0.961 . S
C2031 C2028 1.539 . S
C2031 H2045 0.958 . S
C2031 H2046 0.961 . S
C2031 H2047 0.960 . S
H2032 C2016 0.931 . S
H2033 C2021 0.929 . S
H2034 C2022 0.960 . S
H2035 C2022 0.962 . S
H2036 C2022 0.960 . S
H2037 C2023 0.961 . S
H2038 C2023 0.961 . S
H2039 C2023 0.961 . S
H2040 C2024 0.931 . S
H2041 C2029 0.930 . S
H2042 C2030 0.956 . S
H2043 C2030 0.961 . S
H2044 C2030 0.961 . S
H2045 C2031 0.958 . S
H2046 C2031 0.961 . S
H2047 C2031 0.960 . S
C2048 C2049 1.391 . S
C2048 C2050 1.394 . S
C2048 H2064 0.931 . S
C2049 C2048 1.391 . S
C2049 C2053 1.376 . S
C2050 C2048 1.394 . S
C2050 C2051 1.369 . S
C2050 C2054 1.531 . S
C2051 C2050 1.369 . S
C2051 C2052 1.410 . S
C2051 C2059 1.503 . S
C2052 C2051 1.410 . S
C2052 C2053 1.392 . S
C2052 C2055 1.511 . S
C2053 C2049 1.376 . S
C2053 C2052 1.392 . S
C2053 H2065 0.929 . S
C2054 C2050 1.531 . S
C2054 H2066 0.960 . S
C2054 H2067 0.962 . S
C2054 H2068 0.960 . S
C2055 C2052 1.511 . S
C2055 H2069 0.961 . S
C2055 H2070 0.961 . S
C2055 H2071 0.961 . S
C2056 C2057 1.370 . S
C2056 C2058 1.363 . S
C2056 H2072 0.931 . S
C2057 C2056 1.370 . S
C2057 C2061 1.408 . S
C2058 C2056 1.363 . S
C2058 C2059 1.370 . S
C2058 C2062 1.524 . S
C2059 C2051 1.503 . S
C2059 C2058 1.370 . S
C2059 C2060 1.403 . S
C2060 C2059 1.403 . S
C2060 C2061 1.404 . S
C2060 C2063 1.539 . S
C2061 C2057 1.408 . S
C2061 C2060 1.404 . S
C2061 H2073 0.930 . S
C2062 C2058 1.524 . S
C2062 H2074 0.956 . S
C2062 H2075 0.961 . S
C2062 H2076 0.961 . S
C2063 C2060 1.539 . S
C2063 H2077 0.958 . S
C2063 H2078 0.961 . S
C2063 H2079 0.960 . S
H2064 C2048 0.931 . S
H2065 C2053 0.929 . S
H2066 C2054 0.960 . S
H2067 C2054 0.962 . S
H2068 C2054 0.960 . S
H2069 C2055 0.961 . S
H2070 C2055 0.961 . S
H2071 C2055 0.961 . S
H2072 C2056 0.931 . S
H2073 C2061 0.930 . S
H2074 C2062 0.956 . S
H2075 C2062 0.961 . S
H2076 C2062 0.961 . S
H2077 C2063 0.958 . S
H2078 C2063 0.961 . S
H2079 C2063 0.960 . S
C2080 C2081 1.391 . S
C2080 C2082 1.394 . S
C2080 H2096 0.931 . S
C2081 C2080 1.391 . S
C2081 C2085 1.376 . S
C2082 C2080 1.394 . S
C2082 C2083 1.369 . S
C2082 C2086 1.531 . S
C2083 C2082 1.369 . S
C2083 C2084 1.410 . S
C2083 C2091 1.503 . S
C2084 C2083 1.410 . S
C2084 C2085 1.392 . S
C2084 C2087 1.511 . S
C2085 C2081 1.376 . S
C2085 C2084 1.392 . S
C2085 H2097 0.929 . S
C2086 C2082 1.531 . S
C2086 H2098 0.960 . S
C2086 H2099 0.962 . S
C2086 H2100 0.960 . S
C2087 C2084 1.511 . S
C2087 H2101 0.961 . S
C2087 H2102 0.961 . S
C2087 H2103 0.961 . S
C2088 C2089 1.370 . S
C2088 C2090 1.363 . S
C2088 H2104 0.931 . S
C2089 C2088 1.370 . S
C2089 C2093 1.408 . S
C2090 C2088 1.363 . S
C2090 C2091 1.370 . S
C2090 C2094 1.524 . S
C2091 C2083 1.503 . S
C2091 C2090 1.370 . S
C2091 C2092 1.403 . S
C2092 C2091 1.403 . S
C2092 C2093 1.404 . S
C2092 C2095 1.539 . S
C2093 C2089 1.408 . S
C2093 C2092 1.404 . S
C2093 H2105 0.930 . S
C2094 C2090 1.524 . S
C2094 H2106 0.956 . S
C2094 H2107 0.961 . S
C2094 H2108 0.961 . S
C2095 C2092 1.539 . S
C2095 H2109 0.958 . S
C2095 H2110 0.961 . S
C2095 H2111 0.960 . S
H2096 C2080 0.931 . S
H2097 C2085 0.929 . S
H2098 C2086 0.960 . S
H2099 C2086 0.962 . S
H2100 C2086 0.960 . S
H2101 C2087 0.961 . S
H2102 C2087 0.961 . S
H2103 C2087 0.961 . S
H2104 C2088 0.931 . S
H2105 C2093 0.930 . S
H2106 C2094 0.956 . S
H2107 C2094 0.961 . S
H2108 C2094 0.961 . S
H2109 C2095 0.958 . S
H2110 C2095 0.961 . S
H2111 C2095 0.960 . S
C2112 C2113 1.391 . S
C2112 C2114 1.394 . S
C2112 H2128 0.931 . S
C2113 C2112 1.391 . S
C2113 C2117 1.376 . S
C2114 C2112 1.394 . S
C2114 C2115 1.369 . S
C2114 C2118 1.531 . S
C2115 C2114 1.369 . S
C2115 C2116 1.410 . S
C2115 C2123 1.503 . S
C2116 C2115 1.410 . S
C2116 C2117 1.392 . S
C2116 C2119 1.511 . S
C2117 C2113 1.376 . S
C2117 C2116 1.392 . S
C2117 H2129 0.929 . S
C2118 C2114 1.531 . S
C2118 H2130 0.960 . S
C2118 H2131 0.962 . S
C2118 H2132 0.960 . S
C2119 C2116 1.511 . S
C2119 H2133 0.961 . S
C2119 H2134 0.961 . S
C2119 H2135 0.961 . S
C2120 C2121 1.370 . S
C2120 C2122 1.363 . S
C2120 H2136 0.931 . S
C2121 C2120 1.370 . S
C2121 C2125 1.408 . S
C2122 C2120 1.363 . S
C2122 C2123 1.370 . S
C2122 C2126 1.524 . S
C2123 C2115 1.503 . S
C2123 C2122 1.370 . S
C2123 C2124 1.403 . S
C2124 C2123 1.403 . S
C2124 C2125 1.404 . S
C2124 C2127 1.539 . S
C2125 C2121 1.408 . S
C2125 C2124 1.404 . S
C2125 H2137 0.930 . S
C2126 C2122 1.524 . S
C2126 H2138 0.956 . S
C2126 H2139 0.961 . S
C2126 H2140 0.961 . S
C2127 C2124 1.539 . S
C2127 H2141 0.958 . S
C2127 H2142 0.961 . S
C2127 H2143 0.960 . S
H2128 C2112 0.931 . S
H2129 C2117 0.929 . S
H2130 C2118 0.960 . S
H2131 C2118 0.962 . S
H2132 C2118 0.960 . S
H2133 C2119 0.961 . S
H2134 C2119 0.961 . S
H2135 C2119 0.961 . S
H2136 C2120 0.931 . S
H2137 C2125 0.930 . S
H2138 C2126 0.956 . S
H2139 C2126 0.961 . S
H2140 C2126 0.961 . S
H2141 C2127 0.958 . S
H2142 C2127 0.961 . S
H2143 C2127 0.960 . S
C2144 C2145 1.391 . S
C2144 C2146 1.394 . S
C2144 H2160 0.931 . S
C2145 C2144 1.391 . S
C2145 C2149 1.376 . S
C2146 C2144 1.394 . S
C2146 C2147 1.369 . S
C2146 C2150 1.531 . S
C2147 C2146 1.369 . S
C2147 C2148 1.410 . S
C2147 C2155 1.503 . S
C2148 C2147 1.410 . S
C2148 C2149 1.392 . S
C2148 C2151 1.511 . S
C2149 C2145 1.376 . S
C2149 C2148 1.392 . S
C2149 H2161 0.929 . S
C2150 C2146 1.531 . S
C2150 H2162 0.960 . S
C2150 H2163 0.962 . S
C2150 H2164 0.960 . S
C2151 C2148 1.511 . S
C2151 H2165 0.961 . S
C2151 H2166 0.961 . S
C2151 H2167 0.961 . S
C2152 C2153 1.370 . S
C2152 C2154 1.363 . S
C2152 H2168 0.931 . S
C2153 C2152 1.370 . S
C2153 C2157 1.408 . S
C2154 C2152 1.363 . S
C2154 C2155 1.370 . S
C2154 C2158 1.524 . S
C2155 C2147 1.503 . S
C2155 C2154 1.370 . S
C2155 C2156 1.403 . S
C2156 C2155 1.403 . S
C2156 C2157 1.404 . S
C2156 C2159 1.539 . S
C2157 C2153 1.408 . S
C2157 C2156 1.404 . S
C2157 H2169 0.930 . S
C2158 C2154 1.524 . S
C2158 H2170 0.956 . S
C2158 H2171 0.961 . S
C2158 H2172 0.961 . S
C2159 C2156 1.539 . S
C2159 H2173 0.958 . S
C2159 H2174 0.961 . S
C2159 H2175 0.960 . S
H2160 C2144 0.931 . S
H2161 C2149 0.929 . S
H2162 C2150 0.960 . S
H2163 C2150 0.962 . S
H2164 C2150 0.960 . S
H2165 C2151 0.961 . S
H2166 C2151 0.961 . S
H2167 C2151 0.961 . S
H2168 C2152 0.931 . S
H2169 C2157 0.930 . S
H2170 C2158 0.956 . S
H2171 C2158 0.961 . S
H2172 C2158 0.961 . S
H2173 C2159 0.958 . S
H2174 C2159 0.961 . S
H2175 C2159 0.960 . S
C2176 C2177 1.391 . S
C2176 C2178 1.394 . S
C2176 H2192 0.931 . S
C2177 C2176 1.391 . S
C2177 C2181 1.376 . S
C2178 C2176 1.394 . S
C2178 C2179 1.369 . S
C2178 C2182 1.531 . S
C2179 C2178 1.369 . S
C2179 C2180 1.410 . S
C2179 C2187 1.503 . S
C2180 C2179 1.410 . S
C2180 C2181 1.392 . S
C2180 C2183 1.511 . S
C2181 C2177 1.376 . S
C2181 C2180 1.392 . S
C2181 H2193 0.929 . S
C2182 C2178 1.531 . S
C2182 H2194 0.960 . S
C2182 H2195 0.962 . S
C2182 H2196 0.960 . S
C2183 C2180 1.511 . S
C2183 H2197 0.961 . S
C2183 H2198 0.961 . S
C2183 H2199 0.961 . S
C2184 C2185 1.370 . S
C2184 C2186 1.363 . S
C2184 H2200 0.931 . S
C2185 C2184 1.370 . S
C2185 C2189 1.408 . S
C2186 C2184 1.363 . S
C2186 C2187 1.370 . S
C2186 C2190 1.524 . S
C2187 C2179 1.503 . S
C2187 C2186 1.370 . S
C2187 C2188 1.403 . S
C2188 C2187 1.403 . S
C2188 C2189 1.404 . S
C2188 C2191 1.539 . S
C2189 C2185 1.408 . S
C2189 C2188 1.404 . S
C2189 H2201 0.930 . S
C2190 C2186 1.524 . S
C2190 H2202 0.956 . S
C2190 H2203 0.961 . S
C2190 H2204 0.961 . S
C2191 C2188 1.539 . S
C2191 H2205 0.958 . S
C2191 H2206 0.961 . S
C2191 H2207 0.960 . S
H2192 C2176 0.931 . S
H2193 C2181 0.929 . S
H2194 C2182 0.960 . S
H2195 C2182 0.962 . S
H2196 C2182 0.960 . S
H2197 C2183 0.961 . S
H2198 C2183 0.961 . S
H2199 C2183 0.961 . S
H2200 C2184 0.931 . S
H2201 C2189 0.930 . S
H2202 C2190 0.956 . S
H2203 C2190 0.961 . S
H2204 C2190 0.961 . S
H2205 C2191 0.958 . S
H2206 C2191 0.961 . S
H2207 C2191 0.960 . S
C2208 C2209 1.391 . S
C2208 C2210 1.394 . S
C2208 H2224 0.931 . S
C2209 C2208 1.391 . S
C2209 C2213 1.376 . S
C2210 C2208 1.394 . S
C2210 C2211 1.369 . S
C2210 C2214 1.531 . S
C2211 C2210 1.369 . S
C2211 C2212 1.410 . S
C2211 C2219 1.503 . S
C2212 C2211 1.410 . S
C2212 C2213 1.392 . S
C2212 C2215 1.511 . S
C2213 C2209 1.376 . S
C2213 C2212 1.392 . S
C2213 H2225 0.929 . S
C2214 C2210 1.531 . S
C2214 H2226 0.960 . S
C2214 H2227 0.962 . S
C2214 H2228 0.960 . S
C2215 C2212 1.511 . S
C2215 H2229 0.961 . S
C2215 H2230 0.961 . S
C2215 H2231 0.961 . S
C2216 C2217 1.370 . S
C2216 C2218 1.363 . S
C2216 H2232 0.931 . S
C2217 C2216 1.370 . S
C2217 C2221 1.408 . S
C2218 C2216 1.363 . S
C2218 C2219 1.370 . S
C2218 C2222 1.524 . S
C2219 C2211 1.503 . S
C2219 C2218 1.370 . S
C2219 C2220 1.403 . S
C2220 C2219 1.403 . S
C2220 C2221 1.404 . S
C2220 C2223 1.539 . S
C2221 C2217 1.408 . S
C2221 C2220 1.404 . S
C2221 H2233 0.930 . S
C2222 C2218 1.524 . S
C2222 H2234 0.956 . S
C2222 H2235 0.961 . S
C2222 H2236 0.961 . S
C2223 C2220 1.539 . S
C2223 H2237 0.958 . S
C2223 H2238 0.961 . S
C2223 H2239 0.960 . S
H2224 C2208 0.931 . S
H2225 C2213 0.929 . S
H2226 C2214 0.960 . S
H2227 C2214 0.962 . S
H2228 C2214 0.960 . S
H2229 C2215 0.961 . S
H2230 C2215 0.961 . S
H2231 C2215 0.961 . S
H2232 C2216 0.931 . S
H2233 C2221 0.930 . S
H2234 C2222 0.956 . S
H2235 C2222 0.961 . S
H2236 C2222 0.961 . S
H2237 C2223 0.958 . S
H2238 C2223 0.961 . S
H2239 C2223 0.960 . S
C2240 C2241 1.391 . S
C2240 C2242 1.394 . S
C2240 H2256 0.931 . S
C2241 C2240 1.391 . S
C2241 C2245 1.376 . S
C2242 C2240 1.394 . S
C2242 C2243 1.369 . S
C2242 C2246 1.531 . S
C2243 C2242 1.369 . S
C2243 C2244 1.410 . S
C2243 C2251 1.503 . S
C2244 C2243 1.410 . S
C2244 C2245 1.392 . S
C2244 C2247 1.511 . S
C2245 C2241 1.376 . S
C2245 C2244 1.392 . S
C2245 H2257 0.929 1_655 S
C2246 C2242 1.531 . S
C2246 H2258 0.960 . S
C2246 H2259 0.962 . S
C2246 H2260 0.960 . S
C2247 C2244 1.511 . S
C2247 H2261 0.961 . S
C2247 H2262 0.961 . S
C2247 H2263 0.961 . S
C2248 C2249 1.370 . S
C2248 C2250 1.363 . S
C2248 H2264 0.931 . S
C2249 C2248 1.370 . S
C2249 C2253 1.408 . S
C2250 C2248 1.363 . S
C2250 C2251 1.370 . S
C2250 C2254 1.524 . S
C2251 C2243 1.503 . S
C2251 C2250 1.370 . S
C2251 C2252 1.403 . S
C2252 C2251 1.403 . S
C2252 C2253 1.404 . S
C2252 C2255 1.539 . S
C2253 C2249 1.408 . S
C2253 C2252 1.404 . S
C2253 H2265 0.930 . S
C2254 C2250 1.524 . S
C2254 H2266 0.956 . S
C2254 H2267 0.961 . S
C2254 H2268 0.961 . S
C2255 C2252 1.539 . S
C2255 H2269 0.958 . S
C2255 H2270 0.961 . S
C2255 H2271 0.960 . S
H2256 C2240 0.931 . S
H2257 C2245 0.929 1_455 S
H2258 C2246 0.960 . S
H2259 C2246 0.962 . S
H2260 C2246 0.960 . S
H2261 C2247 0.961 . S
H2262 C2247 0.961 . S
H2263 C2247 0.961 . S
H2264 C2248 0.931 . S
H2265 C2253 0.930 . S
H2266 C2254 0.956 . S
H2267 C2254 0.961 . S
H2268 C2254 0.961 . S
H2269 C2255 0.958 . S
H2270 C2255 0.961 . S
H2271 C2255 0.960 . S
C2272 C2273 1.391 . S
C2272 C2274 1.394 . S
C2272 H2288 0.931 . S
C2273 C2272 1.391 . S
C2273 C2277 1.376 . S
C2274 C2272 1.394 . S
C2274 C2275 1.369 . S
C2274 C2278 1.531 . S
C2275 C2274 1.369 . S
C2275 C2276 1.410 . S
C2275 C2283 1.503 . S
C2276 C2275 1.410 . S
C2276 C2277 1.392 . S
C2276 C2279 1.511 . S
C2277 C2273 1.376 . S
C2277 C2276 1.392 . S
C2277 H2289 0.929 . S
C2278 C2274 1.531 . S
C2278 H2290 0.960 . S
C2278 H2291 0.962 . S
C2278 H2292 0.960 . S
C2279 C2276 1.511 . S
C2279 H2293 0.961 . S
C2279 H2294 0.961 . S
C2279 H2295 0.961 . S
C2280 C2281 1.370 . S
C2280 C2282 1.363 . S
C2280 H2296 0.931 . S
C2281 C2280 1.370 . S
C2281 C2285 1.408 . S
C2282 C2280 1.363 . S
C2282 C2283 1.370 . S
C2282 C2286 1.524 . S
C2283 C2275 1.503 . S
C2283 C2282 1.370 . S
C2283 C2284 1.403 . S
C2284 C2283 1.403 . S
C2284 C2285 1.404 . S
C2284 C2287 1.539 . S
C2285 C2281 1.408 . S
C2285 C2284 1.404 . S
C2285 H2297 0.930 . S
C2286 C2282 1.524 . S
C2286 H2298 0.956 . S
C2286 H2299 0.961 . S
C2286 H2300 0.961 . S
C2287 C2284 1.539 . S
C2287 H2301 0.958 . S
C2287 H2302 0.961 . S
C2287 H2303 0.960 . S
H2288 C2272 0.931 . S
H2289 C2277 0.929 . S
H2290 C2278 0.960 . S
H2291 C2278 0.962 . S
H2292 C2278 0.960 . S
H2293 C2279 0.961 . S
H2294 C2279 0.961 . S
H2295 C2279 0.961 . S
H2296 C2280 0.931 . S
H2297 C2285 0.930 . S
H2298 C2286 0.956 . S
H2299 C2286 0.961 . S
H2300 C2286 0.961 . S
H2301 C2287 0.958 . S
H2302 C2287 0.961 . S
H2303 C2287 0.960 . S
C2304 C2305 1.391 . S
C2304 C2306 1.394 . S
C2304 H2320 0.931 . S
C2305 C2304 1.391 . S
C2305 C2309 1.376 . S
C2306 C2304 1.394 . S
C2306 C2307 1.369 . S
C2306 C2310 1.531 . S
C2307 C2306 1.369 . S
C2307 C2308 1.410 . S
C2307 C2315 1.503 . S
C2308 C2307 1.410 . S
C2308 C2309 1.392 . S
C2308 C2311 1.511 . S
C2309 C2305 1.376 . S
C2309 C2308 1.392 . S
C2309 H2321 0.929 1_655 S
C2310 C2306 1.531 . S
C2310 H2322 0.960 . S
C2310 H2323 0.962 . S
C2310 H2324 0.960 . S
C2311 C2308 1.511 . S
C2311 H2325 0.961 . S
C2311 H2326 0.961 . S
C2311 H2327 0.961 . S
C2312 C2313 1.370 . S
C2312 C2314 1.363 . S
C2312 H2328 0.931 . S
C2313 C2312 1.370 . S
C2313 C2317 1.408 . S
C2314 C2312 1.363 . S
C2314 C2315 1.370 . S
C2314 C2318 1.524 . S
C2315 C2307 1.503 . S
C2315 C2314 1.370 . S
C2315 C2316 1.403 . S
C2316 C2315 1.403 . S
C2316 C2317 1.404 . S
C2316 C2319 1.539 . S
C2317 C2313 1.408 . S
C2317 C2316 1.404 . S
C2317 H2329 0.930 . S
C2318 C2314 1.524 . S
C2318 H2330 0.956 . S
C2318 H2331 0.961 . S
C2318 H2332 0.961 . S
C2319 C2316 1.539 . S
C2319 H2333 0.958 . S
C2319 H2334 0.961 . S
C2319 H2335 0.960 . S
H2320 C2304 0.931 . S
H2321 C2309 0.929 1_455 S
H2322 C2310 0.960 . S
H2323 C2310 0.962 . S
H2324 C2310 0.960 . S
H2325 C2311 0.961 . S
H2326 C2311 0.961 . S
H2327 C2311 0.961 . S
H2328 C2312 0.931 . S
H2329 C2317 0.930 . S
H2330 C2318 0.956 . S
H2331 C2318 0.961 . S
H2332 C2318 0.961 . S
H2333 C2319 0.958 . S
H2334 C2319 0.961 . S
H2335 C2319 0.960 . S
C2336 C2337 1.391 . S
C2336 C2338 1.394 . S
C2336 H2352 0.931 . S
C2337 C2336 1.391 . S
C2337 C2341 1.376 . S
C2338 C2336 1.394 . S
C2338 C2339 1.369 . S
C2338 C2342 1.531 . S
C2339 C2338 1.369 . S
C2339 C2340 1.410 . S
C2339 C2347 1.503 . S
C2340 C2339 1.410 . S
C2340 C2341 1.392 . S
C2340 C2343 1.511 . S
C2341 C2337 1.376 . S
C2341 C2340 1.392 . S
C2341 H2353 0.929 . S
C2342 C2338 1.531 . S
C2342 H2354 0.960 . S
C2342 H2355 0.962 . S
C2342 H2356 0.960 . S
C2343 C2340 1.511 . S
C2343 H2357 0.961 . S
C2343 H2358 0.961 . S
C2343 H2359 0.961 . S
C2344 C2345 1.370 . S
C2344 C2346 1.363 . S
C2344 H2360 0.931 . S
C2345 C2344 1.370 . S
C2345 C2349 1.408 . S
C2346 C2344 1.363 . S
C2346 C2347 1.370 . S
C2346 C2350 1.524 . S
C2347 C2339 1.503 . S
C2347 C2346 1.370 . S
C2347 C2348 1.403 . S
C2348 C2347 1.403 . S
C2348 C2349 1.404 . S
C2348 C2351 1.539 . S
C2349 C2345 1.408 . S
C2349 C2348 1.404 . S
C2349 H2361 0.930 . S
C2350 C2346 1.524 . S
C2350 H2362 0.956 . S
C2350 H2363 0.961 . S
C2350 H2364 0.961 . S
C2351 C2348 1.539 . S
C2351 H2365 0.958 . S
C2351 H2366 0.961 . S
C2351 H2367 0.960 . S
H2352 C2336 0.931 . S
H2353 C2341 0.929 . S
H2354 C2342 0.960 . S
H2355 C2342 0.962 . S
H2356 C2342 0.960 . S
H2357 C2343 0.961 . S
H2358 C2343 0.961 . S
H2359 C2343 0.961 . S
H2360 C2344 0.931 . S
H2361 C2349 0.930 . S
H2362 C2350 0.956 . S
H2363 C2350 0.961 . S
H2364 C2350 0.961 . S
H2365 C2351 0.958 . S
H2366 C2351 0.961 . S
H2367 C2351 0.960 . S
C2368 C2369 1.391 . S
C2368 C2370 1.394 . S
C2368 H2384 0.931 1_455 S
C2369 C2368 1.391 . S
C2369 C2373 1.376 . S
C2370 C2368 1.394 . S
C2370 C2371 1.369 . S
C2370 C2374 1.531 . S
C2371 C2370 1.369 . S
C2371 C2372 1.410 . S
C2371 C2379 1.503 . S
C2372 C2371 1.410 . S
C2372 C2373 1.392 . S
C2372 C2375 1.511 . S
C2373 C2369 1.376 . S
C2373 C2372 1.392 . S
C2373 H2385 0.929 . S
C2374 C2370 1.531 . S
C2374 H2386 0.960 . S
C2374 H2387 0.962 . S
C2374 H2388 0.960 . S
C2375 C2372 1.511 . S
C2375 H2389 0.961 . S
C2375 H2390 0.961 . S
C2375 H2391 0.961 . S
C2376 C2377 1.370 . S
C2376 C2378 1.363 . S
C2376 H2392 0.931 . S
C2377 C2376 1.370 . S
C2377 C2381 1.408 . S
C2378 C2376 1.363 . S
C2378 C2379 1.370 . S
C2378 C2382 1.524 . S
C2379 C2371 1.503 . S
C2379 C2378 1.370 . S
C2379 C2380 1.403 . S
C2380 C2379 1.403 . S
C2380 C2381 1.404 . S
C2380 C2383 1.539 . S
C2381 C2377 1.408 . S
C2381 C2380 1.404 . S
C2381 H2393 0.930 . S
C2382 C2378 1.524 . S
C2382 H2394 0.956 . S
C2382 H2395 0.961 . S
C2382 H2396 0.961 . S
C2383 C2380 1.539 . S
C2383 H2397 0.958 . S
C2383 H2398 0.961 . S
C2383 H2399 0.960 . S
H2384 C2368 0.931 1_655 S
H2385 C2373 0.929 . S
H2386 C2374 0.960 . S
H2387 C2374 0.962 . S
H2388 C2374 0.960 . S
H2389 C2375 0.961 . S
H2390 C2375 0.961 . S
H2391 C2375 0.961 . S
H2392 C2376 0.931 . S
H2393 C2381 0.930 . S
H2394 C2382 0.956 . S
H2395 C2382 0.961 . S
H2396 C2382 0.961 . S
H2397 C2383 0.958 . S
H2398 C2383 0.961 . S
H2399 C2383 0.960 . S
C2400 C2401 1.391 . S
C2400 C2402 1.394 . S
C2400 H2416 0.931 . S
C2401 C2400 1.391 . S
C2401 C2405 1.376 . S
C2402 C2400 1.394 . S
C2402 C2403 1.369 . S
C2402 C2406 1.531 . S
C2403 C2402 1.369 . S
C2403 C2404 1.410 . S
C2403 C2411 1.503 . S
C2404 C2403 1.410 . S
C2404 C2405 1.392 . S
C2404 C2407 1.511 . S
C2405 C2401 1.376 . S
C2405 C2404 1.392 . S
C2405 H2417 0.929 . S
C2406 C2402 1.531 . S
C2406 H2418 0.960 . S
C2406 H2419 0.962 . S
C2406 H2420 0.960 . S
C2407 C2404 1.511 . S
C2407 H2421 0.961 . S
C2407 H2422 0.961 . S
C2407 H2423 0.961 . S
C2408 C2409 1.370 . S
C2408 C2410 1.363 . S
C2408 H2424 0.931 . S
C2409 C2408 1.370 . S
C2409 C2413 1.408 . S
C2410 C2408 1.363 . S
C2410 C2411 1.370 . S
C2410 C2414 1.524 . S
C2411 C2403 1.503 . S
C2411 C2410 1.370 . S
C2411 C2412 1.403 . S
C2412 C2411 1.403 . S
C2412 C2413 1.404 . S
C2412 C2415 1.539 . S
C2413 C2409 1.408 . S
C2413 C2412 1.404 . S
C2413 H2425 0.930 . S
C2414 C2410 1.524 . S
C2414 H2426 0.956 . S
C2414 H2427 0.961 . S
C2414 H2428 0.961 . S
C2415 C2412 1.539 . S
C2415 H2429 0.958 . S
C2415 H2430 0.961 . S
C2415 H2431 0.960 . S
H2416 C2400 0.931 . S
H2417 C2405 0.929 . S
H2418 C2406 0.960 . S
H2419 C2406 0.962 . S
H2420 C2406 0.960 . S
H2421 C2407 0.961 . S
H2422 C2407 0.961 . S
H2423 C2407 0.961 . S
H2424 C2408 0.931 . S
H2425 C2413 0.930 . S
H2426 C2414 0.956 . S
H2427 C2414 0.961 . S
H2428 C2414 0.961 . S
H2429 C2415 0.958 . S
H2430 C2415 0.961 . S
H2431 C2415 0.960 . S
C2432 C2433 1.391 . S
C2432 C2434 1.394 . S
C2432 H2448 0.953 . S
C2433 C2432 1.391 . S
C2433 C2437 1.376 . S
C2434 C2432 1.394 . S
C2434 C2435 1.369 . S
C2434 C2438 1.531 . S
C2435 C2434 1.369 . S
C2435 C2436 1.410 . S
C2435 C2443 1.503 . S
C2436 C2435 1.410 . S
C2436 C2437 1.392 . S
C2436 C2439 1.511 . S
C2437 C2433 1.376 . S
C2437 C2436 1.392 . S
C2437 H2449 0.929 . S
C2438 C2434 1.531 . S
C2438 H2450 0.960 . S
C2438 H2451 0.962 . S
C2438 H2452 0.960 . S
C2439 C2436 1.511 . S
C2439 H2453 0.961 . S
C2439 H2454 0.961 . S
C2439 H2455 0.961 . S
C2440 C2441 1.370 . S
C2440 C2442 1.363 . S
C2440 H2456 0.931 . S
C2441 C2440 1.370 . S
C2441 C2445 1.408 . S
C2442 C2440 1.363 . S
C2442 C2443 1.370 . S
C2442 C2446 1.524 . S
C2443 C2435 1.503 . S
C2443 C2442 1.370 . S
C2443 C2444 1.403 . S
C2444 C2443 1.403 . S
C2444 C2445 1.404 . S
C2444 C2447 1.539 . S
C2445 C2441 1.408 . S
C2445 C2444 1.404 . S
C2445 H2457 0.930 . S
C2446 C2442 1.524 . S
C2446 H2458 0.956 . S
C2446 H2459 0.961 . S
C2446 H2460 0.961 . S
C2447 C2444 1.539 . S
C2447 H2461 0.958 . S
C2447 H2462 0.961 . S
C2447 H2463 0.960 . S
H2448 C2432 0.953 . S
H2449 C2437 0.929 . S
H2450 C2438 0.960 . S
H2451 C2438 0.962 . S
H2452 C2438 0.960 . S
H2453 C2439 0.961 . S
H2454 C2439 0.961 . S
H2455 C2439 0.961 . S
H2456 C2440 0.931 . S
H2457 C2445 0.930 . S
H2458 C2446 0.956 . S
H2459 C2446 0.961 . S
H2460 C2446 0.961 . S
H2461 C2447 0.958 . S
H2462 C2447 0.961 . S
H2463 C2447 0.960 . S
C2464 C2465 1.391 . S
C2464 C2466 1.394 . S
C2464 H2480 0.931 . S
C2465 C2464 1.391 . S
C2465 C2469 1.376 . S
C2466 C2464 1.394 . S
C2466 C2467 1.369 . S
C2466 C2470 1.531 . S
C2467 C2466 1.369 . S
C2467 C2468 1.410 . S
C2467 C2475 1.503 . S
C2468 C2467 1.410 . S
C2468 C2469 1.392 . S
C2468 C2471 1.511 . S
C2469 C2465 1.376 . S
C2469 C2468 1.392 . S
C2469 H2481 0.929 . S
C2470 C2466 1.531 . S
C2470 H2482 0.960 . S
C2470 H2483 0.962 . S
C2470 H2484 0.960 . S
C2471 C2468 1.511 . S
C2471 H2485 0.961 . S
C2471 H2486 0.961 . S
C2471 H2487 0.961 . S
C2472 C2473 1.370 . S
C2472 C2474 1.363 . S
C2472 H2488 0.931 . S
C2473 C2472 1.370 . S
C2473 C2477 1.408 . S
C2474 C2472 1.363 . S
C2474 C2475 1.370 . S
C2474 C2478 1.524 . S
C2475 C2467 1.503 . S
C2475 C2474 1.370 . S
C2475 C2476 1.403 . S
C2476 C2475 1.403 . S
C2476 C2477 1.404 . S
C2476 C2479 1.539 . S
C2477 C2473 1.408 . S
C2477 C2476 1.404 . S
C2477 H2489 0.930 . S
C2478 C2474 1.524 . S
C2478 H2490 0.956 . S
C2478 H2491 0.961 . S
C2478 H2492 0.961 . S
C2479 C2476 1.539 . S
C2479 H2493 0.958 . S
C2479 H2494 0.961 . S
C2479 H2495 0.960 . S
H2480 C2464 0.931 . S
H2481 C2469 0.929 . S
H2482 C2470 0.960 . S
H2483 C2470 0.962 . S
H2484 C2470 0.960 . S
H2485 C2471 0.961 . S
H2486 C2471 0.961 . S
H2487 C2471 0.961 . S
H2488 C2472 0.931 . S
H2489 C2477 0.930 . S
H2490 C2478 0.956 . S
H2491 C2478 0.961 . S
H2492 C2478 0.961 . S
H2493 C2479 0.958 . S
H2494 C2479 0.961 . S
H2495 C2479 0.960 . S
C449 C50 0.915 . S
C457 C8 0.856 . S
C481 C36 0.774 . S
C489 C22 0.865 . S
C513 C106 0.870 . S
C521 C64 0.883 . S
C545 C92 0.854 . S
C553 C78 0.821 . S
C577 C120 0.776 . S
C585 C162 0.877 . S
C609 C134 0.926 . S
C617 C148 0.845 . S
C641 C218 0.845 . S
C649 C176 0.822 . S
C673 C190 0.902 . S
C681 C204 0.824 . S
C705 C232 0.794 . S
C713 C274 0.847 . S
C737 C246 0.928 . S
C745 C260 0.841 . S
C769 C330 0.803 . S
C777 C288 0.882 . S
C801 C316 0.836 . S
C809 C302 0.885 . S
C833 C386 0.825 . S
C841 C344 0.833 . S
C865 C358 0.778 . S
C873 C372 0.859 . S
C897 C400 0.820 . S
C905 C442 0.827 . S
C929 C414 0.817 . S
C937 C428 0.828 . S
C961 C287 1.198 . S
C969 C7 1.170 . S
C993 C189 1.138 . S
C1001 C21 1.192 . S
C1025 C35 1.198 . S
C1033 C427 1.170 . S
C1057 C49 1.158 . S
C1065 C105 1.182 . S
C1089 C231 1.210 . S
C1097 C63 1.164 . S
C1121 C133 1.210 . S
C1129 C77 1.164 . S
C1153 C371 1.212 . S
C1161 C91 1.163 . S
C1185 C119 1.138 . S
C1193 C399 1.193 . S
C1217 C315 1.208 . S
C1225 C147 1.165 . S
C1249 C217 1.145 . S
C1257 C161 1.192 . S
C1281 C343 1.208 . S
C1289 C175 1.165 . S
C1313 C203 1.142 . S
C1321 C259 1.190 . S
C1345 C413 1.211 . S
C1353 C245 1.164 . S
C1377 C273 1.159 . S
C1385 C329 1.182 . S
C1409 C357 1.143 . S
C1417 C301 1.190 . S
C1441 C441 1.208 . S
C1449 C385 1.165 . S
C1473 C27 1.319 . S
C1481 C13 1.313 . S
C1505 C41 1.343 . S
C1513 C55 1.319 . S
C1537 C69 1.288 . S
C1545 C83 1.325 . S
C1569 C111 1.288 . S
C1577 C97 1.326 . S
C1601 C125 1.345 . S
C1609 C139 1.341 . S
C1633 C153 1.339 . S
C1641 C167 1.342 . S
C1665 C195 1.290 . S
C1673 C181 1.321 . S
C1697 C209 1.358 . S
C1705 C223 1.324 . S
C1729 C237 1.336 . S
C1737 C251 1.342 . S
C1761 C265 1.347 . S
C1769 C279 1.341 . S
C1793 C293 1.359 . S
C1801 C307 1.330 . S
C1825 C335 1.353 . S
C1833 C321 1.336 . S
C1857 C363 1.317 . S
C1865 C349 1.312 . S
C1889 C377 1.317 . S
C1897 C391 1.312 . S
C1921 C405 1.359 . S
C1929 C419 1.330 . S
C1953 C447 1.306 . S
C1961 C433 1.339 . S
C1985 C11 1.445 1_655 S
C1993 C277 1.444 . S
C2017 C25 1.436 . S
C2025 C263 1.448 . S
C2049 C249 1.431 . S
C2057 C39 1.450 1_655 S
C2081 C53 1.451 . S
C2089 C235 1.441 . S
C2113 C333 1.441 . S
C2121 C67 1.445 1_455 S
C2145 C81 1.454 . S
C2153 C319 1.441 . S
C2177 C305 1.449 . S
C2185 C95 1.442 1_455 S
C2209 C109 1.445 . S
C2217 C291 1.444 . S
C2241 C123 1.443 1_655 S
C2249 C389 1.447 . S
C2273 C137 1.444 . S
C2281 C375 1.447 . S
C2305 C151 1.437 1_655 S
C2313 C361 1.449 . S
C2337 C347 1.441 . S
C2345 C165 1.445 . S
C2369 C179 1.435 1_455 S
C2377 C445 1.448 . S
C2401 C193 1.425 . S
C2409 C431 1.453 . S
C2433 C207 1.452 1_455 S
C2441 C417 1.441 . S
C2465 C403 1.435 . S
C2473 C221 1.450 . S
