# Generated by pormake.
# Topology uns, (4)-cn, num edge types: 1
# Building blocks:
#     Node 0, Type 0, BuildingBlock: MUDLON_clean_sbu_0, # of connection points: 4
#     Node 1, Type 0, BuildingBlock: MUDLON_clean_sbu_0, # of connection points: 4
#     Node 2, Type 0, BuildingBlock: MUDLON_clean_sbu_0, # of connection points: 4
#     Node 3, Type 0, BuildingBlock: MUDLON_clean_sbu_0, # of connection points: 4
#     Node 4, Type 0, BuildingBlock: MUDLON_clean_sbu_0, # of connection points: 4
#     Node 5, Type 0, BuildingBlock: MUDLON_clean_sbu_0, # of connection points: 4
#     Node 6, Type 0, BuildingBlock: MUDLON_clean_sbu_0, # of connection points: 4
#     Node 7, Type 0, BuildingBlock: MUDLON_clean_sbu_0, # of connection points: 4
#     Node 8, Type 0, BuildingBlock: MUDLON_clean_sbu_0, # of connection points: 4
#     Node 9, Type 0, BuildingBlock: MUDLON_clean_sbu_0, # of connection points: 4
#     Node 10, Type 0, BuildingBlock: MUDLON_clean_sbu_0, # of connection points: 4
#     Node 11, Type 0, BuildingBlock: MUDLON_clean_sbu_0, # of connection points: 4
#     Node 12, Type 0, BuildingBlock: MUDLON_clean_sbu_0, # of connection points: 4
#     Node 13, Type 0, BuildingBlock: MUDLON_clean_sbu_0, # of connection points: 4
#     Node 14, Type 0, BuildingBlock: MUDLON_clean_sbu_0, # of connection points: 4
#     Node 15, Type 0, BuildingBlock: MUDLON_clean_sbu_0, # of connection points: 4
#     Node 16, Type 0, BuildingBlock: MUDLON_clean_sbu_0, # of connection points: 4
#     Node 17, Type 0, BuildingBlock: MUDLON_clean_sbu_0, # of connection points: 4
#     Node 18, Type 0, BuildingBlock: MUDLON_clean_sbu_0, # of connection points: 4
#     Node 19, Type 0, BuildingBlock: MUDLON_clean_sbu_0, # of connection points: 4
#     Node 20, Type 0, BuildingBlock: MUDLON_clean_sbu_0, # of connection points: 4
#     Node 21, Type 0, BuildingBlock: MUDLON_clean_sbu_0, # of connection points: 4
#     Node 22, Type 0, BuildingBlock: MUDLON_clean_sbu_0, # of connection points: 4
#     Node 23, Type 0, BuildingBlock: MUDLON_clean_sbu_0, # of connection points: 4
#     Node 24, Type 0, BuildingBlock: MUDLON_clean_sbu_0, # of connection points: 4
#     Node 25, Type 0, BuildingBlock: MUDLON_clean_sbu_0, # of connection points: 4
#     Node 26, Type 0, BuildingBlock: MUDLON_clean_sbu_0, # of connection points: 4
#     Node 27, Type 0, BuildingBlock: MUDLON_clean_sbu_0, # of connection points: 4
#     Node 28, Type 0, BuildingBlock: MUDLON_clean_sbu_0, # of connection points: 4
#     Node 29, Type 0, BuildingBlock: MUDLON_clean_sbu_0, # of connection points: 4
#     Node 30, Type 0, BuildingBlock: MUDLON_clean_sbu_0, # of connection points: 4
#     Node 31, Type 0, BuildingBlock: MUDLON_clean_sbu_0, # of connection points: 4
#     Node 32, Type 0, BuildingBlock: MUDLON_clean_sbu_0, # of connection points: 4
#     Node 33, Type 0, BuildingBlock: MUDLON_clean_sbu_0, # of connection points: 4
#     Node 34, Type 0, BuildingBlock: MUDLON_clean_sbu_0, # of connection points: 4
#     Node 35, Type 0, BuildingBlock: MUDLON_clean_sbu_0, # of connection points: 4
#     Edge 36, Type (0, 0), BuildingBlock: AJUNOK_clean_linker_0, # of connection points: 2
#     Edge 37, Type (0, 0), BuildingBlock: AJUNOK_clean_linker_0, # of connection points: 2
#     Edge 38, Type (0, 0), BuildingBlock: AJUNOK_clean_linker_0, # of connection points: 2
#     Edge 39, Type (0, 0), BuildingBlock: AJUNOK_clean_linker_0, # of connection points: 2
#     Edge 40, Type (0, 0), BuildingBlock: AJUNOK_clean_linker_0, # of connection points: 2
#     Edge 41, Type (0, 0), BuildingBlock: AJUNOK_clean_linker_0, # of connection points: 2
#     Edge 42, Type (0, 0), BuildingBlock: AJUNOK_clean_linker_0, # of connection points: 2
#     Edge 43, Type (0, 0), BuildingBlock: AJUNOK_clean_linker_0, # of connection points: 2
#     Edge 44, Type (0, 0), BuildingBlock: AJUNOK_clean_linker_0, # of connection points: 2
#     Edge 45, Type (0, 0), BuildingBlock: AJUNOK_clean_linker_0, # of connection points: 2
#     Edge 46, Type (0, 0), BuildingBlock: AJUNOK_clean_linker_0, # of connection points: 2
#     Edge 47, Type (0, 0), BuildingBlock: AJUNOK_clean_linker_0, # of connection points: 2
#     Edge 48, Type (0, 0), BuildingBlock: AJUNOK_clean_linker_0, # of connection points: 2
#     Edge 49, Type (0, 0), BuildingBlock: AJUNOK_clean_linker_0, # of connection points: 2
#     Edge 50, Type (0, 0), BuildingBlock: AJUNOK_clean_linker_0, # of connection points: 2
#     Edge 51, Type (0, 0), BuildingBlock: AJUNOK_clean_linker_0, # of connection points: 2
#     Edge 52, Type (0, 0), BuildingBlock: AJUNOK_clean_linker_0, # of connection points: 2
#     Edge 53, Type (0, 0), BuildingBlock: AJUNOK_clean_linker_0, # of connection points: 2
#     Edge 54, Type (0, 0), BuildingBlock: AJUNOK_clean_linker_0, # of connection points: 2
#     Edge 55, Type (0, 0), BuildingBlock: AJUNOK_clean_linker_0, # of connection points: 2
#     Edge 56, Type (0, 0), BuildingBlock: AJUNOK_clean_linker_0, # of connection points: 2
#     Edge 57, Type (0, 0), BuildingBlock: AJUNOK_clean_linker_0, # of connection points: 2
#     Edge 58, Type (0, 0), BuildingBlock: AJUNOK_clean_linker_0, # of connection points: 2
#     Edge 59, Type (0, 0), BuildingBlock: AJUNOK_clean_linker_0, # of connection points: 2
#     Edge 60, Type (0, 0), BuildingBlock: AJUNOK_clean_linker_0, # of connection points: 2
#     Edge 61, Type (0, 0), BuildingBlock: AJUNOK_clean_linker_0, # of connection points: 2
#     Edge 62, Type (0, 0), BuildingBlock: AJUNOK_clean_linker_0, # of connection points: 2
#     Edge 63, Type (0, 0), BuildingBlock: AJUNOK_clean_linker_0, # of connection points: 2
#     Edge 64, Type (0, 0), BuildingBlock: AJUNOK_clean_linker_0, # of connection points: 2
#     Edge 65, Type (0, 0), BuildingBlock: AJUNOK_clean_linker_0, # of connection points: 2
#     Edge 66, Type (0, 0), BuildingBlock: AJUNOK_clean_linker_0, # of connection points: 2
#     Edge 67, Type (0, 0), BuildingBlock: AJUNOK_clean_linker_0, # of connection points: 2
#     Edge 68, Type (0, 0), BuildingBlock: AJUNOK_clean_linker_0, # of connection points: 2
#     Edge 69, Type (0, 0), BuildingBlock: AJUNOK_clean_linker_0, # of connection points: 2
#     Edge 70, Type (0, 0), BuildingBlock: AJUNOK_clean_linker_0, # of connection points: 2
#     Edge 71, Type (0, 0), BuildingBlock: AJUNOK_clean_linker_0, # of connection points: 2
#     Edge 72, Type (0, 0), BuildingBlock: AJUNOK_clean_linker_0, # of connection points: 2
#     Edge 73, Type (0, 0), BuildingBlock: AJUNOK_clean_linker_0, # of connection points: 2
#     Edge 74, Type (0, 0), BuildingBlock: AJUNOK_clean_linker_0, # of connection points: 2
#     Edge 75, Type (0, 0), BuildingBlock: AJUNOK_clean_linker_0, # of connection points: 2
#     Edge 76, Type (0, 0), BuildingBlock: AJUNOK_clean_linker_0, # of connection points: 2
#     Edge 77, Type (0, 0), BuildingBlock: AJUNOK_clean_linker_0, # of connection points: 2
#     Edge 78, Type (0, 0), BuildingBlock: AJUNOK_clean_linker_0, # of connection points: 2
#     Edge 79, Type (0, 0), BuildingBlock: AJUNOK_clean_linker_0, # of connection points: 2
#     Edge 80, Type (0, 0), BuildingBlock: AJUNOK_clean_linker_0, # of connection points: 2
#     Edge 81, Type (0, 0), BuildingBlock: AJUNOK_clean_linker_0, # of connection points: 2
#     Edge 82, Type (0, 0), BuildingBlock: AJUNOK_clean_linker_0, # of connection points: 2
#     Edge 83, Type (0, 0), BuildingBlock: AJUNOK_clean_linker_0, # of connection points: 2
#     Edge 84, Type (0, 0), BuildingBlock: AJUNOK_clean_linker_0, # of connection points: 2
#     Edge 85, Type (0, 0), BuildingBlock: AJUNOK_clean_linker_0, # of connection points: 2
#     Edge 86, Type (0, 0), BuildingBlock: AJUNOK_clean_linker_0, # of connection points: 2
#     Edge 87, Type (0, 0), BuildingBlock: AJUNOK_clean_linker_0, # of connection points: 2
#     Edge 88, Type (0, 0), BuildingBlock: AJUNOK_clean_linker_0, # of connection points: 2
#     Edge 89, Type (0, 0), BuildingBlock: AJUNOK_clean_linker_0, # of connection points: 2
#     Edge 90, Type (0, 0), BuildingBlock: AJUNOK_clean_linker_0, # of connection points: 2
#     Edge 91, Type (0, 0), BuildingBlock: AJUNOK_clean_linker_0, # of connection points: 2
#     Edge 92, Type (0, 0), BuildingBlock: AJUNOK_clean_linker_0, # of connection points: 2
#     Edge 93, Type (0, 0), BuildingBlock: AJUNOK_clean_linker_0, # of connection points: 2
#     Edge 94, Type (0, 0), BuildingBlock: AJUNOK_clean_linker_0, # of connection points: 2
#     Edge 95, Type (0, 0), BuildingBlock: AJUNOK_clean_linker_0, # of connection points: 2
#     Edge 96, Type (0, 0), BuildingBlock: AJUNOK_clean_linker_0, # of connection points: 2
#     Edge 97, Type (0, 0), BuildingBlock: AJUNOK_clean_linker_0, # of connection points: 2
#     Edge 98, Type (0, 0), BuildingBlock: AJUNOK_clean_linker_0, # of connection points: 2
#     Edge 99, Type (0, 0), BuildingBlock: AJUNOK_clean_linker_0, # of connection points: 2
#     Edge 100, Type (0, 0), BuildingBlock: AJUNOK_clean_linker_0, # of connection points: 2
#     Edge 101, Type (0, 0), BuildingBlock: AJUNOK_clean_linker_0, # of connection points: 2
#     Edge 102, Type (0, 0), BuildingBlock: AJUNOK_clean_linker_0, # of connection points: 2
#     Edge 103, Type (0, 0), BuildingBlock: AJUNOK_clean_linker_0, # of connection points: 2
#     Edge 104, Type (0, 0), BuildingBlock: AJUNOK_clean_linker_0, # of connection points: 2
#     Edge 105, Type (0, 0), BuildingBlock: AJUNOK_clean_linker_0, # of connection points: 2
#     Edge 106, Type (0, 0), BuildingBlock: AJUNOK_clean_linker_0, # of connection points: 2
#     Edge 107, Type (0, 0), BuildingBlock: AJUNOK_clean_linker_0, # of connection points: 2
# Relax obj value: 0.027
# Max RMSD: 0.174
# Mean RMSD: 0.174
data_MOF--net-uns--node1-MUDLON_clean_sbu_0--edge1-AJUNOK_clean_linker_0
_symmetry_space_group_name_H-M    P1
_symmetry_Int_Tables_number       1
_symmetry_cell_setting            triclinic
loop_
_symmetry_equiv_pos_as_xyz
'x, y, z'
_cell_length_a     43.8088
_cell_length_b     43.914116
_cell_length_c     43.306976
_cell_angle_alpha  89.875053
_cell_angle_beta   89.8028
_cell_angle_gamma 120.06523
loop_
_atom_site_label
_atom_site_type_symbol
_atom_site_fract_x
_atom_site_fract_y
_atom_site_fract_z
_atom_type_partial_charge
Mg0 Mg 0.28068 0.1983 0.07109 0.0
C1 C 0.33474 0.26826 0.09051 0.0
O2 O 0.31492 0.25348 0.11497 0.0
C3 C 0.24209 0.12725 0.045 0.0
O4 O 0.22097 0.12924 0.06547 0.0
C5 C 0.32053 0.18468 0.11891 0.0
O6 O 0.33972 0.1914 0.09373 0.0
O7 O 0.29081 0.18337 0.11682 0.0
O8 O 0.32734 0.25052 0.06559 0.0
O9 O 0.23522 0.20685 0.06541 0.0
C10 C 0.24011 0.23508 0.0523 0.0
O11 O 0.27242 0.25908 0.04469 0.0
O12 O 0.27191 0.15481 0.04015 0.0
Mg13 Mg 0.83668 0.09419 0.0683 0.0
C14 C 0.80449 0.01985 0.04572 0.0
O15 O 0.78373 0.03036 0.03389 0.0
C16 C 0.84817 0.14541 0.1178 0.0
O17 O 0.83785 0.1567 0.09412 0.0
C18 C 0.88859 0.11829 0.01349 0.0
O19 O 0.87349 0.08412 0.00963 0.0
O20 O 0.8772 0.12994 0.03495 0.0
O21 O 0.83 0.04124 0.06275 0.0
O22 O 0.78302 0.08542 0.06505 0.0
C23 C 0.76507 0.07203 0.08967 0.0
O24 O 0.78069 0.06677 0.11324 0.0
O25 O 0.85227 0.11886 0.11391 0.0
Mg26 Mg 0.93289 0.73898 0.06884 0.0
C27 C 0.99822 0.78303 0.03587 0.0
O28 O 0.97678 0.75744 0.01752 0.0
C29 C 0.87197 0.69754 0.10924 0.0
O30 O 0.86326 0.68307 0.08178 0.0
C31 C 0.90988 0.77885 0.02738 0.0
O32 O 0.93795 0.80409 0.04089 0.0
O33 O 0.90088 0.74699 0.03369 0.0
O34 O 0.98723 0.78382 0.06306 0.0
O35 O 0.94242 0.69477 0.06457 0.0
C36 C 0.95247 0.68764 0.08984 0.0
O37 O 0.95343 0.70523 0.11467 0.0
O38 O 0.9021 0.72526 0.11223 0.0
Mg39 Mg 0.21353 0.28409 0.44592 0.0
C40 C 0.24581 0.24074 0.46738 0.0
O41 O 0.27059 0.27269 0.47467 0.0
C42 C 0.19786 0.32165 0.39779 0.0
O43 O 0.20882 0.34306 0.42153 0.0
C44 C 0.15206 0.25338 0.49121 0.0
O45 O 0.15327 0.22515 0.48329 0.0
O46 O 0.17562 0.28309 0.48034 0.0
O47 O 0.21847 0.23694 0.45345 0.0
O48 O 0.26783 0.32866 0.44398 0.0
C49 C 0.28225 0.33059 0.41782 0.0
O50 O 0.26379 0.30682 0.39692 0.0
O51 O 0.1945 0.29121 0.40114 0.0
Mg52 Mg 0.75549 0.93795 0.44854 0.0
C53 C 0.79993 0.01343 0.46934 0.0
O54 O 0.76806 1.00635 0.47728 0.0
C55 C 0.71521 0.88381 0.40237 0.0
O56 O 0.69504 0.8748 0.42711 0.0
C57 C 0.78571 0.90772 0.49446 0.0
O58 O 0.81411 0.93762 0.48738 0.0
O59 O 0.75633 0.90125 0.48282 0.0
O60 O 0.80336 0.98987 0.45508 0.0
O61 O 0.71128 0.94783 0.45004 0.0
C62 C 0.70639 0.95946 0.42461 0.0
O63 O 0.7273 0.96363 0.4012 0.0
O64 O 0.74596 0.91093 0.40397 0.0
Mg65 Mg 0.09863 0.82638 0.45112 0.0
C66 C 0.08 0.75634 0.42977 0.0
O67 O 0.07439 0.77172 0.40618 0.0
C68 C 0.12788 0.88845 0.4961 0.0
O69 O 0.09688 0.88516 0.49085 0.0
C70 C 0.15183 0.84073 0.40387 0.0
O71 O 0.16233 0.83213 0.42913 0.0
O72 O 0.12376 0.8427 0.4054 0.0
O73 O 0.09203 0.77382 0.45462 0.0
O74 O 0.04394 0.81354 0.46006 0.0
C75 C 0.0275 0.82999 0.45462 0.0
O76 O 0.04385 0.86029 0.43993 0.0
O77 O 0.13504 0.86631 0.4839 0.0
Mg78 Mg 0.75348 0.82586 0.95102 0.0
C79 C 0.82677 0.82696 0.95879 0.0
O80 O 0.84268 0.85825 0.94576 0.0
C81 C 0.71759 0.84145 0.90146 0.0
O82 O 0.69755 0.83473 0.92608 0.0
C83 C 0.78505 0.88707 0.99728 0.0
O84 O 0.81204 0.88199 0.99479 0.0
O85 O 0.75669 0.86636 0.983 0.0
O86 O 0.79338 0.81075 0.9619 0.0
O87 O 0.70627 0.77411 0.95387 0.0
C88 C 0.70154 0.75662 0.92912 0.0
O89 O 0.7238 0.77168 0.90612 0.0
O90 O 0.74687 0.84198 0.90448 0.0
Mg91 Mg 0.20484 0.93271 0.9567 0.0
C92 C 0.27698 0.95686 0.93649 0.0
O93 O 0.26096 0.96108 0.91269 0.0
C94 C 0.13207 0.88619 0.97851 0.0
O95 O 0.12944 0.8993 0.952 0.0
C96 C 0.19623 0.88203 0.90816 0.0
O97 O 0.20661 0.87213 0.93271 0.0
O98 O 0.1912 0.90816 0.91077 0.0
O99 O 0.25935 0.94411 0.96139 0.0
O100 O 0.20984 0.9847 0.96394 0.0
C101 C 0.20821 0.99138 0.99234 0.0
O102 O 0.20246 0.96702 0.01291 0.0
O103 O 0.16289 0.8953 0.98834 0.0
Mg104 Mg 0.09779 0.28272 0.95226 0.0
C105 C 0.02225 0.21151 0.94997 0.0
O106 O 0.02906 0.20644 0.92149 0.0
C107 C 0.11654 0.28942 0.8815 0.0
O108 O 0.08282 0.27702 0.87655 0.0
C109 C 0.12876 0.25333 0.99691 0.0
O110 O 0.10081 0.22506 0.98655 0.0
O111 O 0.13424 0.28334 0.9877 0.0
O112 O 0.04533 0.2381 0.96478 0.0
O113 O 0.08757 0.3267 0.94717 0.0
C114 C 0.0613 0.31753 0.92931 0.0
O115 O 0.0433 0.2845 0.92076 0.0
O116 O 0.12708 0.28951 0.90889 0.0
Mg117 Mg 0.83575 0.75201 0.56648 0.0
C118 C 0.80204 0.79418 0.54709 0.0
O119 O 0.77997 0.76275 0.53636 0.0
C120 C 0.85232 0.71184 0.61142 0.0
O121 O 0.84214 0.6923 0.58648 0.0
C122 C 0.89474 0.7882 0.51946 0.0
O123 O 0.88941 0.81403 0.52736 0.0
O124 O 0.87458 0.75773 0.53099 0.0
O125 O 0.82851 0.79818 0.56266 0.0
O126 O 0.78217 0.70682 0.56416 0.0
C127 C 0.76562 0.70011 0.58985 0.0
O128 O 0.78228 0.71943 0.61388 0.0
O129 O 0.85424 0.74182 0.6103 0.0
Mg130 Mg 0.28549 0.09375 0.56957 0.0
C131 C 0.35037 0.08202 0.55517 0.0
O132 O 0.35012 0.09078 0.52618 0.0
C133 C 0.25753 0.12625 0.52462 0.0
O134 O 0.22856 0.09813 0.53401 0.0
C135 C 0.32399 0.14605 0.61698 0.0
O136 O 0.34545 0.15524 0.5931 0.0
O137 O 0.29287 0.11981 0.61406 0.0
O138 O 0.32828 0.08224 0.57404 0.0
O139 O 0.23773 0.042 0.56239 0.0
C140 C 0.24174 0.01966 0.54668 0.0
O141 O 0.27358 0.02856 0.53701 0.0
O142 O 0.28704 0.13107 0.53456 0.0
Mg143 Mg 0.94634 0.20287 0.5687 0.0
C144 C 0.02167 0.23564 0.54586 0.0
O145 O 1.01256 0.25843 0.53652 0.0
C146 C 0.89262 0.18967 0.61601 0.0
O147 O 0.88288 0.19976 0.59118 0.0
C148 C 0.91473 0.13988 0.52562 0.0
O149 O 0.94331 0.13988 0.53469 0.0
O150 O 0.90953 0.16442 0.53514 0.0
O151 O 0.99926 0.20892 0.56147 0.0
O152 O 0.95525 0.25646 0.566 0.0
C153 C 0.96645 0.27342 0.5912 0.0
O154 O 0.97063 0.25734 0.61503 0.0
O155 O 0.9199 0.1863 0.61403 0.0
Mg156 Mg 0.95499 0.53267 0.40312 0.0
C157 C 1.00512 0.60432 0.42411 0.0
O158 O 0.98598 0.58854 0.44869 0.0
C159 C 0.92385 0.46919 0.36079 0.0
O160 O 0.89502 0.4686 0.37021 0.0
C161 C 0.99612 0.52077 0.45009 0.0
O162 O 1.01592 0.53067 0.4251 0.0
O163 O 0.96534 0.51704 0.44829 0.0
O164 O 0.99906 0.58657 0.39935 0.0
O165 O 0.9071 0.53667 0.39676 0.0
C166 C 0.9105 0.56375 0.38258 0.0
O167 O 0.94231 0.58846 0.37441 0.0
O168 O 0.95357 0.49432 0.36973 0.0
Mg169 Mg 0.50575 0.42632 0.40566 0.0
C170 C 0.47456 0.35275 0.38073 0.0
O171 O 0.45334 0.36316 0.36988 0.0
C172 C 0.51501 0.47667 0.45387 0.0
O173 O 0.50475 0.48626 0.42904 0.0
C174 C 0.5496 0.46307 0.34512 0.0
O175 O 0.52238 0.43898 0.32981 0.0
O176 O 0.54793 0.46397 0.37447 0.0
O177 O 0.5 0.37381 0.39801 0.0
O178 O 0.45177 0.41677 0.4058 0.0
C179 C 0.43054 0.41638 0.38574 0.0
O180 O 0.44095 0.42422 0.35688 0.0
O181 O 0.51997 0.45045 0.45166 0.0
Mg182 Mg 0.6037 0.08073 0.40265 0.0
C183 C 0.67779 0.12244 0.3806 0.0
O184 O 0.66412 0.09335 0.3644 0.0
C185 C 0.54562 0.03262 0.44276 0.0
O186 O 0.53907 0.01872 0.41504 0.0
C187 C 0.56323 0.08515 0.3433 0.0
O188 O 0.57207 0.06415 0.3293 0.0
O189 O 0.5722 0.09361 0.37129 0.0
O190 O 0.65816 0.12609 0.40043 0.0
O191 O 0.6125 0.03658 0.39452 0.0
C192 C 0.62472 0.03006 0.41879 0.0
O193 O 0.62767 0.04808 0.44388 0.0
O194 O 0.57313 0.06282 0.44611 0.0
Mg195 Mg 0.87553 0.61401 0.77954 0.0
C196 C 0.88107 0.55703 0.81328 0.0
O197 O 0.86867 0.56945 0.83434 0.0
C198 C 0.8688 0.65519 0.72895 0.0
O199 O 0.87509 0.67475 0.75366 0.0
C200 C 0.82158 0.60577 0.83389 0.0
O201 O 0.84777 0.61725 0.85355 0.0
O202 O 0.82754 0.60406 0.80526 0.0
O203 O 0.88532 0.56952 0.78597 0.0
O204 O 0.92674 0.66131 0.78701 0.0
C205 C 0.95108 0.65946 0.80126 0.0
O206 O 0.94278 0.63123 0.81778 0.0
O207 O 0.86635 0.62513 0.73213 0.0
Mg208 Mg 0.42565 0.26846 0.78126 0.0
C209 C 0.46762 0.34242 0.80489 0.0
O210 O 0.43579 0.33224 0.81545 0.0
C211 C 0.38352 0.21782 0.73394 0.0
O212 O 0.36527 0.20699 0.75975 0.0
C213 C 0.44841 0.23422 0.83375 0.0
O214 O 0.46107 0.26426 0.84842 0.0
O215 O 0.43134 0.22959 0.80876 0.0
O216 O 0.47219 0.32104 0.78825 0.0
O217 O 0.37988 0.2753 0.78745 0.0
C218 C 0.37496 0.289 0.76333 0.0
O219 O 0.39699 0.29693 0.74004 0.0
O220 O 0.41422 0.24508 0.73501 0.0
Mg221 Mg 0.76914 0.16251 0.78411 0.0
C222 C 0.74936 0.09198 0.76303 0.0
O223 O 0.74445 0.10771 0.73933 0.0
C224 C 0.79671 0.22877 0.81946 0.0
O225 O 0.77065 0.22679 0.80298 0.0
C226 C 0.82198 0.17549 0.735 0.0
O227 O 0.83328 0.16566 0.75899 0.0
O228 O 0.79479 0.17877 0.7385 0.0
O229 O 0.76131 0.10936 0.78796 0.0
O230 O 0.71569 0.15527 0.79042 0.0
C231 C 0.69242 0.12792 0.80478 0.0
O232 O 0.70029 0.10384 0.81284 0.0
O233 O 0.80326 0.20361 0.81732 0.0
Mg234 Mg 0.42408 0.16155 0.281 0.0
C235 C 0.47126 0.12778 0.2823 0.0
O236 O 0.44478 0.10293 0.26686 0.0
C237 C 0.38364 0.17673 0.23571 0.0
O238 O 0.36538 0.16879 0.26154 0.0
C239 C 0.45588 0.22254 0.32672 0.0
O240 O 0.48384 0.21998 0.32035 0.0
O241 O 0.42645 0.20032 0.3147 0.0
O242 O 0.47106 0.15612 0.28829 0.0
O243 O 0.38 0.10745 0.28514 0.0
C244 C 0.36952 0.0906 0.25978 0.0
O245 O 0.38452 0.10709 0.23395 0.0
O246 O 0.41345 0.17804 0.23619 0.0
Mg247 Mg 0.87332 0.26511 0.28514 0.0
C248 C 0.94487 0.28803 0.26247 0.0
O249 O 0.9289 0.29345 0.23927 0.0
C250 C 0.81174 0.23374 0.3314 0.0
O251 O 0.81432 0.26453 0.3268 0.0
C252 C 0.86104 0.21304 0.23742 0.0
O253 O 0.87107 0.20294 0.26207 0.0
O254 O 0.85734 0.24 0.23971 0.0
O255 O 0.92718 0.27421 0.28712 0.0
O256 O 0.87926 0.3177 0.29215 0.0
C257 C 0.90729 0.34061 0.30569 0.0
O258 O 0.93066 0.33179 0.3138 0.0
O259 O 0.83426 0.22752 0.3184 0.0
Mg260 Mg 0.76439 0.60855 0.28463 0.0
C261 C 0.68361 0.55982 0.28433 0.0
O262 O 0.68516 0.58559 0.26767 0.0
C263 C 0.77853 0.6235 0.21402 0.0
O264 O 0.74532 0.61539 0.21337 0.0
C265 C 0.79565 0.57635 0.32756 0.0
O266 O 0.76666 0.54792 0.31904 0.0
O267 O 0.80122 0.60613 0.31769 0.0
O268 O 0.71231 0.56107 0.29205 0.0
O269 O 0.75243 0.65057 0.29253 0.0
C270 C 0.76234 0.67666 0.27426 0.0
O271 O 0.78562 0.68215 0.25263 0.0
O272 O 0.79138 0.62034 0.23937 0.0
Mg273 Mg 0.5022 0.08184 0.90692 0.0
C274 C 0.48506 0.12897 0.87323 0.0
O275 O 0.47853 0.10294 0.85447 0.0
C276 C 0.51343 0.04154 0.95569 0.0
O277 O 0.5026 0.02032 0.93181 0.0
C278 C 0.5657 0.11362 0.86395 0.0
O279 O 0.56613 0.14197 0.8742 0.0
O280 O 0.5408 0.08364 0.87297 0.0
O281 O 0.49688 0.1286 0.9 0.0
O282 O 0.44759 0.03876 0.9038 0.0
C283 C 0.4298 0.03381 0.92857 0.0
O284 O 0.4459 0.05345 0.95262 0.0
O285 O 0.51782 0.07236 0.9523 0.0
Mg286 Mg 0.95378 0.4261 0.90476 0.0
C287 C 0.99993 0.39851 0.88246 0.0
O288 O 0.9717 0.3792 0.86581 0.0
C289 C 0.93813 0.46703 0.8514 0.0
O290 O 0.94607 0.45021 0.83075 0.0
C291 C 0.99338 0.47413 0.95544 0.0
O292 O 1.01255 0.48881 0.93059 0.0
O293 O 0.96413 0.44547 0.95232 0.0
O294 O 1.00229 0.42506 0.89632 0.0
O295 O 0.91175 0.37101 0.89759 0.0
C296 C 0.8851 0.36358 0.88081 0.0
O297 O 0.88053 0.38938 0.87117 0.0
O298 O 0.94121 0.46233 0.88003 0.0
Mg299 Mg 0.60741 0.53425 0.90354 0.0
C300 C 0.67535 0.55736 0.87157 0.0
O301 O 0.65575 0.56216 0.85143 0.0
C302 C 0.5536 0.52213 0.95072 0.0
O303 O 0.54393 0.53228 0.92588 0.0
C304 C 0.57931 0.47264 0.85844 0.0
O305 O 0.60969 0.47516 0.86525 0.0
O306 O 0.57198 0.49491 0.87004 0.0
O307 O 0.66162 0.54385 0.89771 0.0
O308 O 0.61541 0.58711 0.89858 0.0
C309 C 0.62687 0.60513 0.92321 0.0
O310 O 0.63107 0.58997 0.94773 0.0
O311 O 0.58073 0.51852 0.94877 0.0
Mg312 Mg 0.61976 0.86852 0.73668 0.0
C313 C 0.67296 0.93969 0.75789 0.0
O314 O 0.65511 0.92405 0.78307 0.0
C315 C 0.5887 0.80325 0.69594 0.0
O316 O 0.55963 0.80207 0.70552 0.0
C317 C 0.65942 0.85367 0.78325 0.0
O318 O 0.67841 0.86172 0.75783 0.0
O319 O 0.62966 0.85241 0.78202 0.0
O320 O 0.66491 0.92205 0.73289 0.0
O321 O 0.57238 0.87369 0.72887 0.0
C322 C 0.57595 0.90391 0.72318 0.0
O323 O 0.6076 0.93168 0.72475 0.0
O324 O 0.61828 0.82933 0.70402 0.0
Mg325 Mg 0.16801 0.76296 0.73875 0.0
C326 C 0.13773 0.68907 0.715 0.0
O327 O 0.11447 0.69766 0.70583 0.0
C328 C 0.1813 0.81398 0.78835 0.0
O329 O 0.16828 0.82366 0.76554 0.0
C330 C 0.22866 0.79465 0.69271 0.0
O331 O 0.22745 0.76501 0.69993 0.0
O332 O 0.20528 0.80064 0.70425 0.0
O333 O 0.16401 0.7114 0.7308 0.0
O334 O 0.11288 0.75065 0.74209 0.0
C335 C 0.09956 0.73399 0.76728 0.0
O336 O 0.11974 0.72744 0.78523 0.0
O337 O 0.18675 0.78836 0.7838 0.0
Mg338 Mg 0.27176 0.40874 0.73779 0.0
C339 C 0.34739 0.45136 0.71775 0.0
O340 O 0.33721 0.42015 0.70612 0.0
C341 C 0.2123 0.36559 0.77885 0.0
O342 O 0.20367 0.35048 0.75164 0.0
C343 C 0.2436 0.44453 0.69665 0.0
O344 O 0.27017 0.47156 0.71007 0.0
O345 O 0.23822 0.41379 0.70283 0.0
O346 O 0.32522 0.45558 0.73376 0.0
O347 O 0.28111 0.36456 0.73368 0.0
C348 C 0.29145 0.3573 0.75869 0.0
O349 O 0.29278 0.37473 0.78374 0.0
O350 O 0.24136 0.39462 0.78118 0.0
Mg351 Mg 0.54229 0.94422 0.11966 0.0
C352 C 0.57816 0.90364 0.13809 0.0
O353 O 0.60081 0.93559 0.1473 0.0
C354 C 0.52823 0.98467 0.07364 0.0
O355 O 0.53779 1.00395 0.09874 0.0
C356 C 0.47391 0.90501 0.15189 0.0
O357 O 0.47533 0.8825 0.13283 0.0
O358 O 0.5006 0.93601 0.15299 0.0
O359 O 0.55029 0.89857 0.12428 0.0
O360 O 0.59539 0.99015 0.12314 0.0
C361 C 0.61261 0.99668 0.09781 0.0
O362 O 0.59675 0.97686 0.07381 0.0
O363 O 0.52547 0.95435 0.07502 0.0
Mg364 Mg 0.08515 0.59819 0.12088 0.0
C365 C 0.1232 0.66439 0.15452 0.0
O366 O 0.09299 0.6453 0.16896 0.0
C367 C 0.04837 0.54485 0.07376 0.0
O368 O 0.02924 0.53322 0.09906 0.0
C369 C 0.09222 0.56059 0.18097 0.0
O370 O 0.08456 0.58121 0.19708 0.0
O371 O 0.09225 0.56207 0.15158 0.0
O372 O 0.12911 0.65172 0.13023 0.0
O373 O 0.03856 0.60443 0.12382 0.0
C374 C 0.03353 0.61654 0.0987 0.0
O375 O 0.05529 0.62263 0.07553 0.0
O376 O 0.07748 0.57395 0.07516 0.0
Mg377 Mg 0.43097 0.49023 0.11975 0.0
C378 C 0.41057 0.41983 0.09732 0.0
O379 O 0.40433 0.43536 0.07423 0.0
C380 C 0.46335 0.55379 0.16209 0.0
O381 O 0.43394 0.55285 0.15433 0.0
C382 C 0.48168 0.50457 0.06955 0.0
O383 O 0.49349 0.49499 0.09335 0.0
O384 O 0.45405 0.50702 0.07335 0.0
O385 O 0.42397 0.43744 0.12189 0.0
O386 O 0.37718 0.479 0.13128 0.0
C387 C 0.35937 0.49269 0.1215 0.0
O388 O 0.37341 0.51774 0.10056 0.0
O389 O 0.46885 0.52964 0.15204 0.0
Mg390 Mg 0.09131 0.49683 0.6187 0.0
C391 C 0.13444 0.46234 0.63617 0.0
O392 O 0.10235 0.43535 0.63871 0.0
C393 C 0.0529 0.50962 0.56925 0.0
O394 O 0.0318 0.5005 0.59338 0.0
C395 C 0.12273 0.56004 0.6615 0.0
O396 O 0.15107 0.55859 0.65411 0.0
O397 O 0.09303 0.53632 0.65107 0.0
O398 O 0.13841 0.49164 0.62656 0.0
O399 O 0.0463 0.4433 0.62212 0.0
C400 C 0.04036 0.42553 0.59736 0.0
O401 O 0.05992 0.4412 0.57294 0.0
O402 O 0.08321 0.5126 0.57273 0.0
Mg403 Mg 0.54122 0.5989 0.62144 0.0
C404 C 0.61298 0.62212 0.59888 0.0
O405 O 0.59682 0.6265 0.57525 0.0
C406 C 0.47774 0.56553 0.66518 0.0
O407 O 0.47769 0.5945 0.65763 0.0
C408 C 0.52932 0.54723 0.57237 0.0
O409 O 0.54004 0.53654 0.59619 0.0
O410 O 0.52523 0.57385 0.57588 0.0
O411 O 0.59537 0.60882 0.62366 0.0
O412 O 0.54644 0.65128 0.62878 0.0
C413 C 0.57397 0.6742 0.64294 0.0
O414 O 0.5973 0.66552 0.65157 0.0
O415 O 0.5025 0.56105 0.65474 0.0
Mg416 Mg 0.43474 0.95132 0.61778 0.0
C417 C 0.35941 0.90813 0.63919 0.0
O418 O 0.36889 0.93975 0.64947 0.0
C419 C 0.45602 0.95161 0.54771 0.0
O420 O 0.42365 0.92561 0.54368 0.0
C421 C 0.46711 0.91951 0.65887 0.0
O422 O 0.44328 0.89194 0.64374 0.0
O423 O 0.46903 0.94913 0.65396 0.0
O424 O 0.38175 0.9041 0.62323 0.0
O425 O 0.42484 0.99567 0.61664 0.0
C426 C 0.41029 0.99586 0.59121 0.0
O427 O 0.40265 0.97039 0.57153 0.0
O428 O 0.46605 0.96321 0.57488 0.0
Mg429 Mg 0.1684 0.41914 0.23384 0.0
C430 C 0.13483 0.46696 0.23855 0.0
O431 O 0.11304 0.44272 0.25795 0.0
C432 C 0.18318 0.37875 0.2798 0.0
O433 O 0.17418 0.35967 0.25458 0.0
C434 C 0.22537 0.45304 0.18397 0.0
O435 O 0.21603 0.47701 0.18687 0.0
O436 O 0.2087 0.42467 0.19971 0.0
O437 O 0.16087 0.46489 0.22777 0.0
O438 O 0.11459 0.37427 0.22983 0.0
C439 C 0.09765 0.36394 0.25534 0.0
O440 O 0.11391 0.37964 0.28087 0.0
O441 O 0.18527 0.40881 0.27853 0.0
Mg442 Mg 0.62255 0.75758 0.23666 0.0
C443 C 0.66829 0.7334 0.2611 0.0
O444 O 0.6435 0.72551 0.28189 0.0
C445 C 0.59343 0.79046 0.19266 0.0
O446 O 0.56426 0.76195 0.20112 0.0
C447 C 0.6608 0.8099 0.28516 0.0
O448 O 0.68245 0.82052 0.26137 0.0
O449 O 0.63023 0.78292 0.28182 0.0
O450 O 0.66713 0.74839 0.23624 0.0
O451 O 0.57502 0.70568 0.22948 0.0
C452 C 0.57869 0.68235 0.21509 0.0
O453 O 0.6106 0.68986 0.20684 0.0
O454 O 0.62274 0.79496 0.20273 0.0
Mg455 Mg 0.27597 0.86667 0.23654 0.0
C456 C 0.33604 0.86156 0.20714 0.0
O457 O 0.30952 0.83986 0.18975 0.0
C458 C 0.22423 0.85618 0.28575 0.0
O459 O 0.21272 0.86527 0.26141 0.0
C460 C 0.22439 0.79435 0.21633 0.0
O461 O 0.23109 0.79063 0.2452 0.0
O462 O 0.23958 0.82523 0.20471 0.0
O463 O 0.32968 0.87505 0.23056 0.0
O464 O 0.28478 0.91984 0.23106 0.0
C465 C 0.29943 0.93838 0.25492 0.0
O466 O 0.30602 0.92342 0.27827 0.0
O467 O 0.25147 0.85297 0.28262 0.0
C468 C 0.36761 0.18198 0.14978 0.0
C469 C 0.33539 0.182 0.14913 0.0
C470 C 0.38335 0.18098 0.1777 0.0
C471 C 0.36762 0.17995 0.20634 0.0
H472 H 0.38098 0.18274 0.12846 0.0
H473 H 0.40787 0.18061 0.17674 0.0
S474 S 0.28374 0.18069 0.21773 0.0
N475 N 0.28872 0.18163 0.17989 0.0
N476 N 0.31807 0.17982 0.23226 0.0
C477 C 0.33549 0.18023 0.20609 0.0
C478 C 0.31945 0.18119 0.17759 0.0
C479 C 0.84862 0.19229 0.1513 0.0
C480 C 0.85223 0.16221 0.14861 0.0
C481 C 0.851 0.20823 0.17998 0.0
C482 C 0.85709 0.19483 0.20735 0.0
H483 H 0.84386 0.20379 0.13104 0.0
H484 H 0.84829 0.23142 0.1806 0.0
S485 S 0.86774 0.11608 0.21327 0.0
N486 N 0.86177 0.11941 0.17609 0.0
N487 N 0.86618 0.14907 0.22986 0.0
C488 C 0.86058 0.16462 0.20504 0.0
C489 C 0.85822 0.14843 0.17578 0.0
C490 C 0.83854 0.66481 0.19118 0.0
C491 C 0.80212 0.64144 0.18697 0.0
C492 C 0.86085 0.68377 0.16624 0.0
C493 C 0.84778 0.67972 0.13597 0.0
H494 H 0.84988 0.66896 0.21403 0.0
H495 H 0.88864 0.7012 0.17064 0.0
S496 S 0.75454 0.62176 0.11241 0.0
N497 N 0.75418 0.61558 0.15005 0.0
N498 N 0.79582 0.65053 0.10336 0.0
C499 C 0.81143 0.65636 0.13148 0.0
C500 C 0.78873 0.63745 0.15688 0.0
C501 C 0.19569 0.36812 0.36553 0.0
C502 C 0.19285 0.3347 0.36742 0.0
C503 C 0.19295 0.38228 0.33725 0.0
C504 C 0.1873 0.36373 0.30947 0.0
H505 H 0.2002 0.38374 0.38612 0.0
H506 H 0.19516 0.40798 0.33727 0.0
S507 S 0.17822 0.27516 0.30147 0.0
N508 N 0.18418 0.28347 0.33879 0.0
N509 N 0.17908 0.30984 0.28572 0.0
C510 C 0.18439 0.3302 0.31098 0.0
C511 C 0.1871 0.31576 0.33986 0.0
C512 C 0.70688 0.8589 0.3172 0.0
C513 C 0.67338 0.82825 0.31538 0.0
C514 C 0.72036 0.87639 0.34531 0.0
C515 C 0.70098 0.86404 0.37295 0.0
H516 H 0.72306 0.86966 0.29669 0.0
H517 H 0.74612 0.89992 0.34524 0.0
S518 S 0.61208 0.78442 0.38113 0.0
N519 N 0.62134 0.78609 0.34399 0.0
N520 N 0.64641 0.81866 0.39671 0.0
C521 C 0.66744 0.8333 0.37153 0.0
C522 C 0.65371 0.81552 0.34284 0.0
C523 C 0.15879 0.85192 0.34649 0.0
C524 C 0.17117 0.84524 0.37417 0.0
C525 C 0.17599 0.85511 0.3182 0.0
C526 C 0.20631 0.8517 0.3162 0.0
H527 H 0.13551 0.85458 0.34658 0.0
H528 H 0.16525 0.86031 0.29767 0.0
S529 S 0.24978 0.83432 0.38184 0.0
N530 N 0.21608 0.83548 0.39768 0.0
N531 N 0.24802 0.84138 0.34463 0.0
C532 C 0.21903 0.84503 0.34368 0.0
C533 C 0.20156 0.84186 0.37253 0.0
C534 C 0.65781 0.84822 0.84122 0.0
C535 C 0.67433 0.84956 0.81295 0.0
C536 C 0.67235 0.84614 0.86948 0.0
C537 C 0.70412 0.84528 0.87087 0.0
H538 H 0.63356 0.84915 0.84163 0.0
H539 H 0.65839 0.8452 0.89047 0.0
S540 S 0.75747 0.84694 0.80348 0.0
N541 N 0.72414 0.84908 0.78818 0.0
N542 N 0.75123 0.84521 0.8412 0.0
C543 C 0.72086 0.84639 0.8428 0.0
C544 C 0.70604 0.84848 0.81394 0.0
C545 C 0.18376 0.87605 0.8511 0.0
C546 C 0.19263 0.86417 0.87793 0.0
C547 C 0.18079 0.85999 0.82237 0.0
C548 C 0.18659 0.83129 0.81907 0.0
H549 H 0.17904 0.89799 0.85219 0.0
H550 H 0.17368 0.8702 0.80259 0.0
S551 S 0.21064 0.78991 0.88205 0.0
N552 N 0.20737 0.82169 0.89919 0.0
N553 N 0.20177 0.79177 0.84532 0.0
C554 C 0.19568 0.81923 0.84564 0.0
C555 C 0.19867 0.83554 0.87497 0.0
C556 C 0.13105 0.30157 0.82517 0.0
C557 C 0.14242 0.30801 0.85602 0.0
C558 C 0.15382 0.32056 0.80069 0.0
C559 C 0.18891 0.34732 0.80586 0.0
H560 H 0.1042 0.2817 0.8198 0.0
H561 H 0.14357 0.31429 0.77742 0.0
S562 S 0.23204 0.37487 0.88232 0.0
N563 N 0.19152 0.3432 0.89041 0.0
N564 N 0.23406 0.37908 0.84435 0.0
C565 C 0.20074 0.35415 0.83658 0.0
C566 C 0.17764 0.33442 0.86161 0.0
C567 C 0.86361 0.71587 0.66861 0.0
C568 C 0.85812 0.69749 0.64075 0.0
C569 C 0.86706 0.70193 0.69674 0.0
C570 C 0.86519 0.66892 0.6984 0.0
H571 H 0.86479 0.74111 0.66885 0.0
H572 H 0.871 0.71725 0.71743 0.0
S573 S 0.85257 0.61055 0.63199 0.0
N574 N 0.85202 0.64466 0.61654 0.0
N575 N 0.85842 0.61865 0.66935 0.0
C576 C 0.86021 0.65042 0.67068 0.0
C577 C 0.85672 0.66464 0.64195 0.0
C578 C 0.38709 0.21011 0.67674 0.0
C579 C 0.36751 0.1994 0.70437 0.0
C580 C 0.37249 0.19308 0.6487 0.0
C581 C 0.33758 0.16459 0.64695 0.0
H582 H 0.41406 0.23173 0.6767 0.0
H583 H 0.389 0.20229 0.62824 0.0
S584 S 0.27445 0.12683 0.71242 0.0
N585 N 0.31071 0.15874 0.728 0.0
N586 N 0.28355 0.12699 0.67539 0.0
C587 C 0.31747 0.1539 0.6743 0.0
C588 C 0.33235 0.17119 0.70292 0.0
C589 C 0.88686 0.17974 0.67361 0.0
C590 C 0.87366 0.18534 0.64594 0.0
C591 C 0.8702 0.17707 0.70211 0.0
C592 C 0.83953 0.17989 0.70433 0.0
H593 H 0.91047 0.17765 0.67338 0.0
H594 H 0.8816 0.17272 0.72262 0.0
S595 S 0.79359 0.19386 0.63871 0.0
N596 N 0.82741 0.19312 0.62263 0.0
N597 N 0.79641 0.18815 0.67605 0.0
C598 C 0.82594 0.18538 0.67685 0.0
C599 C 0.84286 0.18805 0.64777 0.0
C600 C 0.99207 0.51211 0.50772 0.0
C601 C 1.0109 0.5172 0.48002 0.0
C602 C 1.00616 0.5102 0.53628 0.0
C603 C 0.03973 0.51328 0.53851 0.0
H604 H 0.96629 0.50984 0.50747 0.0
H605 H 0.99038 0.50621 0.55681 0.0
S606 S 0.09975 0.52617 0.47283 0.0
N607 N 0.06503 0.52481 0.45667 0.0
N608 N 0.09126 0.52125 0.51024 0.0
C609 C 0.05885 0.51827 0.511 0.0
C610 C 0.04451 0.52018 0.48185 0.0
C611 C 0.52717 0.48376 0.51105 0.0
C612 C 0.51879 0.49529 0.48374 0.0
C613 C 0.53004 0.50047 0.53943 0.0
C614 C 0.52467 0.52953 0.54189 0.0
H615 H 0.53149 0.46154 0.51061 0.0
H616 H 0.53669 0.49044 0.55964 0.0
S617 S 0.50216 0.57034 0.47733 0.0
N618 N 0.50512 0.53795 0.46109 0.0
N619 N 0.51054 0.56905 0.51427 0.0
C620 C 0.5162 0.54133 0.51479 0.0
C621 C 0.51329 0.52434 0.48584 0.0
C622 C 0.53255 0.02256 0.49998 0.0
C623 C 0.52238 1.01195 0.46928 0.0
C624 C 0.51145 1.0025 0.52509 0.0
C625 C 0.47913 0.97097 0.52067 0.0
H626 H 0.55713 0.04645 0.50473 0.0
H627 H 0.52048 1.01212 0.54819 0.0
S628 S 0.44023 0.93149 0.44483 0.0
N629 N 0.47745 0.96758 0.43599 0.0
N630 N 0.43824 0.93022 0.48289 0.0
C631 C 0.46873 0.96003 0.49007 0.0
C632 C 0.49018 0.9804 0.46454 0.0
C633 C 0.51383 0.99432 0.98819 0.0
C634 C 0.51797 0.02826 0.98609 0.0
C635 C 0.51675 0.9803 0.01648 0.0
C636 C 0.52389 0.99955 0.04403 0.0
H637 H 0.50823 0.97821 0.96777 0.0
H638 H 0.51354 0.95419 0.01665 0.0
S639 S 0.53663 0.08963 0.0514 0.0
N640 N 0.52937 0.08069 0.01427 0.0
N641 N 0.5348 0.05459 0.06734 0.0
C642 C 0.528 0.03355 0.04231 0.0
C643 C 0.52509 0.04785 0.01343 0.0
C644 C 0.03867 0.52337 0.98781 0.0
C645 C 1.00669 0.49101 0.9861 0.0
C646 C 0.05225 0.54025 0.01612 0.0
C647 C 0.03449 0.52556 0.04409 0.0
H648 H 0.05346 0.53608 0.96702 0.0
H649 H 0.07668 0.56524 0.01595 0.0
S650 S 0.95029 0.4406 0.05271 0.0
N651 N 0.95806 0.44457 0.01519 0.0
N652 N 0.98336 0.47596 0.06831 0.0
C653 C 1.00266 0.49294 0.04281 0.0
C654 C 0.98882 0.47578 0.01392 0.0
C655 C 0.54582 0.50848 1.00766 0.0
C656 C 0.53442 0.51739 0.98058 0.0
C657 C 0.52877 0.5048 0.03611 0.0
C658 C 0.49947 0.50984 0.0389 0.0
H659 H 0.56822 0.50437 1.007 0.0
H660 H 0.53876 0.49779 0.05611 0.0
S661 S 0.45897 0.53369 0.97508 0.0
N662 N 0.49169 0.53132 0.95849 0.0
N663 N 0.4599 0.52436 0.01188 0.0
C664 C 0.48776 0.51881 0.01204 0.0
C665 C 0.50512 0.52257 0.98298 0.0
C666 C 0.24072 0.0579 0.99024 0.0
C667 C 0.21411 0.02607 1.00315 0.0
C668 C 0.24963 0.09065 1.00359 0.0
C669 C 0.23179 0.09275 0.02999 0.0
H670 H 0.25573 0.05745 0.97049 0.0
H671 H 0.27085 0.11441 0.99336 0.0
S672 S 0.15826 0.01671 0.07112 0.0
N673 N 0.16906 0.99875 0.04283 0.0
N674 N 0.18497 0.05953 0.0675 0.0
C675 C 0.20423 0.06096 0.04227 0.0
C676 C 0.19563 0.02787 0.02898 0.0
C677 C 0.97742 0.19803 0.99211 0.0
C678 C 0.9873 0.18757 0.96482 0.0
C679 C 0.94503 0.1761 1.00699 0.0
C680 C 0.92113 0.14246 0.99554 0.0
H681 H 0.99492 0.22345 1.00224 0.0
H682 H 0.93916 0.18531 0.02815 0.0
S683 S 0.93327 0.10278 0.92416 0.0
N684 N 0.96959 0.14153 0.92638 0.0
N685 N 0.90911 0.10027 0.95445 0.0
C686 C 0.93033 0.13186 0.96798 0.0
C687 C 0.96321 0.15437 0.95263 0.0
C688 C 0.90388 0.82312 0.99525 0.0
C689 C 0.88856 0.7885 1.00692 0.0
C690 C 0.88408 0.83475 0.97871 0.0
C691 C 0.84783 0.81246 0.97332 0.0
H692 H 0.93144 0.84182 0.99941 0.0
H693 H 0.89718 0.86191 0.97104 0.0
S694 S 0.79527 0.71845 0.99692 0.0
N695 N 0.83519 0.73132 0.01024 0.0
N696 N 0.79782 0.75313 0.97946 0.0
C697 C 0.83236 0.77732 0.98387 0.0
C698 C 0.85272 0.76536 1.00051 0.0
C699 C 0.08162 0.27248 0.52182 0.0
C700 C 0.05653 0.24043 0.53574 0.0
C701 C 0.11311 0.27703 0.50885 0.0
C702 C 0.12095 0.24964 0.50895 0.0
H703 H 0.0766 0.2942 0.5202 0.0
H704 H 0.13078 0.30185 0.49762 0.0
S705 S 0.06588 0.16146 0.54502 0.0
N706 N 0.04309 0.18162 0.55073 0.0
N707 N 0.10203 0.18997 0.52638 0.0
C708 C 0.09687 0.21793 0.52403 0.0
C709 C 0.06481 0.21338 0.53741 0.0
C710 C 0.76547 0.81774 0.52415 0.0
C711 C 0.79734 0.82441 0.53799 0.0
C712 C 0.76133 0.84495 0.51156 0.0
C713 C 0.78897 0.88014 0.512 0.0
H714 H 0.74366 0.79104 0.52219 0.0
H715 H 0.73667 0.83805 0.5003 0.0
S716 S 0.87667 0.91242 0.54829 0.0
N717 N 0.85614 0.86938 0.55349 0.0
N718 N 0.84853 0.9205 0.52985 0.0
C719 C 0.82042 0.88746 0.52716 0.0
C720 C 0.82455 0.85967 0.54015 0.0
C721 C 0.21824 0.95985 0.52341 0.0
C722 C 0.21146 0.98492 0.53727 0.0
C723 C 0.191 0.9282 0.51142 0.0
C724 C 0.15563 0.92015 0.51253 0.0
H725 H 0.24503 0.96493 0.52114 0.0
H726 H 0.19801 0.91047 0.50027 0.0
S727 S 0.12309 0.97541 0.54867 0.0
N728 N 0.16628 0.99839 0.55314 0.0
N729 N 0.11505 0.93906 0.53063 0.0
C730 C 0.14823 0.94432 0.52747 0.0
C731 C 0.17608 0.97658 0.53984 0.0
C732 C 0.76312 0.92869 0.00979 0.0
C733 C 0.78916 0.91913 0.01314 0.0
C734 C 0.768 0.96068 0.02132 0.0
C735 C 0.79908 0.98462 0.03692 0.0
H736 H 0.7391 0.91188 0.99727 0.0
H737 H 0.74737 0.96695 0.01731 0.0
S738 S 0.8743 0.97102 0.05436 0.0
N739 N 0.84643 0.93542 0.03515 0.0
N740 N 0.85544 0.9954 0.05677 0.0
C741 C 0.82471 0.97476 0.0417 0.0
C742 C 0.81981 0.94214 0.02982 0.0
C743 C 0.06836 0.84055 0.97731 0.0
C744 C 0.09911 0.86012 0.99484 0.0
C745 C 0.03627 0.81629 0.9911 0.0
C746 C 0.03296 0.81067 0.02325 0.0
H747 H 0.06904 0.84369 0.95245 0.0
H748 H 1.01368 0.80188 0.97621 0.0
S749 S 0.10514 0.85568 0.08004 0.0
N750 N 0.12421 0.87247 0.0464 0.0
N751 N 0.06338 0.82711 0.0725 0.0
C752 C 0.0633 0.83033 0.04132 0.0
C753 C 0.09646 0.85484 0.02709 0.0
C754 C 0.19056 0.27743 0.0169 0.0
C755 C 0.15553 0.24952 0.01527 0.0
C756 C 0.21725 0.27275 0.03006 0.0
C757 C 0.21016 0.24003 0.04242 0.0
H758 H 0.19782 0.30275 1.00675 0.0
H759 H 0.24394 0.29488 0.02968 0.0
S760 S 0.12194 0.15955 0.04732 0.0
N761 N 0.11462 0.18867 0.02975 0.0
N762 N 0.16467 0.18006 0.05442 0.0
C763 C 0.17488 0.21246 0.04255 0.0
C764 C 0.14768 0.21715 0.02899 0.0
C765 C 0.94578 0.82947 0.48589 0.0
C766 C 0.92615 0.7961 0.5 0.0
C767 C 0.97764 0.8396 0.47026 0.0
C768 C 0.99159 0.81694 0.46818 0.0
H769 H 0.93695 0.84846 0.48748 0.0
H770 H 0.992 0.86593 0.46066 0.0
S771 S 0.94914 0.7254 0.49866 0.0
N772 N 0.92199 0.73944 0.50893 0.0
N773 N 0.98178 0.7584 0.47975 0.0
C774 C 0.97152 0.7829 0.48105 0.0
C775 C 0.93889 0.7725 0.49685 0.0
C776 C 0.281 0.21576 0.49092 0.0
C777 C 0.24893 0.21003 0.47819 0.0
C778 C 0.28407 0.18831 0.50453 0.0
C779 C 0.25512 0.15385 0.50625 0.0
H780 H 0.30391 0.24194 0.49113 0.0
H781 H 0.30903 0.19453 0.51481 0.0
S782 S 0.16601 0.12389 0.47385 0.0
N783 N 0.18826 0.16649 0.4663 0.0
N784 N 0.19385 0.11502 0.49181 0.0
C785 C 0.2233 0.14738 0.49236 0.0
C786 C 0.22025 0.17536 0.47835 0.0
C787 C 0.82549 0.07406 0.4916 0.0
C788 C 0.83088 0.04716 0.47986 0.0
C789 C 0.85298 0.10452 0.50508 0.0
C790 C 0.88717 0.10945 0.50771 0.0
H791 H 0.79949 0.07128 0.49107 0.0
H792 H 0.84696 0.12376 0.51448 0.0
S793 S 0.91622 0.04841 0.47837 0.0
N794 N 0.87381 0.02865 0.47004 0.0
N795 N 0.92542 0.08566 0.49536 0.0
C796 C 0.89335 0.08345 0.49489 0.0
C797 C 0.86531 0.05245 0.48097 0.0
C798 C 0.88757 0.41109 0.33404 0.0
C799 C 0.92103 0.43875 0.34297 0.0
C800 C 0.88339 0.38015 0.32047 0.0
C801 C 0.91247 0.37542 0.31545 0.0
H802 H 0.86411 0.41279 0.33838 0.0
H803 H 0.85699 0.35919 0.31516 0.0
S804 S 1.00624 0.44119 0.3311 0.0
N805 N 0.98415 0.46032 0.34308 0.0
N806 N 0.97632 0.40239 0.31781 0.0
C807 C 0.94626 0.40355 0.32276 0.0
C808 C 0.95055 0.43512 0.33641 0.0
C809 C 0.61587 0.49845 0.34349 0.0
C810 C 0.58332 0.48712 0.3287 0.0
C811 C 0.64814 0.52058 0.32846 0.0
C812 C 0.64928 0.53306 0.29825 0.0
H813 H 0.61646 0.48993 0.36687 0.0
H814 H 0.67238 0.52885 0.34102 0.0
S815 S 0.5717 0.51113 0.24915 0.0
N816 N 0.55443 0.48948 0.2817 0.0
N817 N 0.61489 0.53205 0.25396 0.0
C818 C 0.61696 0.52188 0.28316 0.0
C819 C 0.5841 0.49866 0.29821 0.0
C820 C 0.52295 0.08118 0.30019 0.0
C821 C 0.5421 0.09833 0.32687 0.0
C822 C 0.50117 0.0917 0.28539 0.0
C823 C 0.49795 0.12023 0.29626 0.0
H824 H 0.52394 0.05874 0.29109 0.0
H825 H 0.48622 0.07687 0.26551 0.0
S826 S 0.54457 0.17581 0.36395 0.0
N827 N 0.55773 0.14658 0.36264 0.0
N828 N 0.51731 0.16652 0.33467 0.0
C829 C 0.51804 0.13851 0.32221 0.0
C830 C 0.53988 0.12751 0.33754 0.0
C831 C 0.72343 0.57567 0.8321 0.0
C832 C 0.71268 0.56851 0.86326 0.0
C833 C 0.75844 0.58763 0.82305 0.0
C834 C 0.78468 0.59345 0.84473 0.0
H835 H 0.70459 0.57199 0.81429 0.0
H836 H 0.76496 0.59261 0.79872 0.0
S837 S 0.77065 0.57868 0.92942 0.0
N838 N 0.73129 0.56793 0.91595 0.0
N839 N 0.79719 0.59069 0.89908 0.0
C840 C 0.77438 0.58637 0.87606 0.0
C841 C 0.73845 0.5738 0.88527 0.0
C842 C 0.46355 0.20342 0.87516 0.0
C843 C 0.4579 0.20755 0.84379 0.0
C844 C 0.47295 0.17846 0.88467 0.0
C845 C 0.47738 0.15696 0.86311 0.0
H846 H 0.4602 0.21922 0.89255 0.0
H847 H 0.47619 0.17562 0.9091 0.0
S848 S 0.47043 0.16099 0.77781 0.0
N849 N 0.46041 0.19011 0.79105 0.0
N850 N 0.47842 0.14397 0.80862 0.0
C851 C 0.47303 0.16186 0.83158 0.0
C852 C 0.46319 0.18691 0.82201 0.0
C853 C 0.82974 0.3193 0.85458 0.0
C854 C 0.8616 0.32719 0.86895 0.0
C855 C 0.80875 0.28709 0.83973 0.0
C856 C 0.81859 0.26107 0.83826 0.0
H857 H 0.82112 0.33851 0.85416 0.0
H858 H 0.78488 0.28304 0.82866 0.0
S859 S 0.89869 0.26753 0.87372 0.0
N860 N 0.90125 0.30541 0.88211 0.0
N861 N 0.86186 0.24489 0.85395 0.0
C862 C 0.84978 0.26797 0.8535 0.0
C863 C 0.87121 0.30094 0.86888 0.0
C864 C 0.43315 0.26259 0.34274 0.0
C865 C 0.45978 0.25365 0.34416 0.0
C866 C 0.43791 0.29401 0.35558 0.0
C867 C 0.46941 0.31793 0.3707 0.0
H868 H 0.40881 0.24584 0.33061 0.0
H869 H 0.41682 0.29991 0.35295 0.0
S870 S 0.54611 0.3054 0.3836 0.0
N871 N 0.518 0.27023 0.36403 0.0
N872 N 0.52674 0.3291 0.38819 0.0
C873 C 0.49561 0.30854 0.37367 0.0
C874 C 0.49086 0.27654 0.36039 0.0
C875 C 0.72362 0.18659 0.37469 0.0
C876 C 0.71429 0.151 0.37305 0.0
C877 C 0.75585 0.21325 0.36236 0.0
C878 C 0.78025 0.20548 0.34815 0.0
H879 H 0.70516 0.19378 0.38408 0.0
H880 H 0.76108 0.2401 0.36307 0.0
S881 S 0.77025 0.11656 0.34204 0.0
N882 N 0.73348 0.10963 0.35895 0.0
N883 N 0.79384 0.15944 0.33615 0.0
C884 C 0.77209 0.17012 0.34825 0.0
C885 C 0.73921 0.14301 0.36055 0.0
C886 C 0.88508 0.59912 0.36065 0.0
C887 C 0.87957 0.56677 0.37246 0.0
C888 C 0.85758 0.60232 0.34746 0.0
C889 C 0.82324 0.57324 0.34522 0.0
H890 H 0.91118 0.6222 0.36087 0.0
H891 H 0.86369 0.62761 0.33796 0.0
S892 S 0.79384 0.48319 0.37513 0.0
N893 N 0.8364 0.50554 0.38293 0.0
N894 N 0.78471 0.51137 0.35814 0.0
C895 C 0.81694 0.54103 0.35819 0.0
C896 C 0.84501 0.53784 0.37181 0.0
C897 C 0.60114 0.08806 0.84167 0.0
C898 C 0.59597 0.11702 0.84515 0.0
C899 C 0.63168 0.09167 0.82743 0.0
C900 C 0.65836 0.12432 0.81573 0.0
H901 H 0.5821 0.06259 0.85106 0.0
H902 H 0.63474 0.06871 0.82633 0.0
S903 S 0.65621 0.20774 0.81609 0.0
N904 N 0.61916 0.1791 0.83347 0.0
N905 N 0.67626 0.18569 0.80673 0.0
C906 C 0.65272 0.15311 0.81758 0.0
C907 C 0.62168 0.14951 0.83228 0.0
C908 C 0.92696 0.50218 0.8112 0.0
C909 C 0.92292 0.48938 0.84172 0.0
C910 C 0.91281 0.52337 0.80187 0.0
C911 C 0.89372 0.53237 0.82259 0.0
H912 H 0.94162 0.49623 0.79445 0.0
H913 H 0.91735 0.53316 0.77835 0.0
S914 S 0.87305 0.50309 0.90451 0.0
N915 N 0.89673 0.48586 0.89216 0.0
N916 N 0.86998 0.52491 0.87477 0.0
C917 C 0.88869 0.51886 0.85295 0.0
C918 C 0.90332 0.49764 0.86247 0.0
C919 C 0.51663 0.43287 0.84209 0.0
C920 C 0.55218 0.44152 0.84103 0.0
C921 C 0.48989 0.40145 0.82934 0.0
C922 C 0.49739 0.37727 0.81468 0.0
H923 H 0.50909 0.44985 0.8539 0.0
H924 H 0.4629 0.39576 0.83171 0.0
S925 S 0.58662 0.38911 0.80259 0.0
N926 N 0.59379 0.4245 0.82183 0.0
N927 N 0.5435 0.36559 0.7978 0.0
C928 C 0.533 0.3864 0.81198 0.0
C929 C 0.56033 0.41841 0.82518 0.0
C930 C 0.54954 0.71374 0.65636 0.0
C931 C 0.57876 0.70898 0.65249 0.0
C932 C 0.55326 0.74478 0.6694 0.0
C933 C 0.58641 0.77257 0.67887 0.0
H934 H 0.52334 0.69278 0.6505 0.0
H935 H 0.52969 0.74652 0.67279 0.0
S936 S 0.67193 0.77484 0.67034 0.0
N937 N 0.64249 0.73598 0.65679 0.0
N938 N 0.64944 0.79404 0.681 0.0
C939 C 0.6161 0.76883 0.67357 0.0
C940 C 0.61227 0.73716 0.66051 0.0
C941 C 0.26792 0.85769 0.67613 0.0
C942 C 0.2597 0.82237 0.67508 0.0
C943 C 0.29952 0.88483 0.66342 0.0
C944 C 0.32434 0.87799 0.64883 0.0
H945 H 0.25051 0.86472 0.68795 0.0
H946 H 0.30486 0.9116 0.66582 0.0
S947 S 0.31382 0.78959 0.63681 0.0
N948 N 0.27789 0.78174 0.65591 0.0
N949 N 0.337 0.83268 0.63207 0.0
C950 C 0.31561 0.84261 0.64614 0.0
C951 C 0.28346 0.8149 0.65925 0.0
C952 C 0.18532 0.42066 0.66966 0.0
C953 C 0.21808 0.44971 0.6777 0.0
C954 C 0.15918 0.4251 0.65513 0.0
C955 C 0.1646 0.45879 0.64777 0.0
H956 H 0.17921 0.39421 0.67559 0.0
H957 H 0.13409 0.40179 0.65038 0.0
S958 S 0.24701 0.54352 0.66108 0.0
N959 N 0.25542 0.51348 0.67503 0.0
N960 N 0.20633 0.52165 0.64778 0.0
C961 C 0.19785 0.48801 0.65425 0.0
C962 C 0.2245 0.48352 0.6692 0.0
C963 C 0.3781 0.84998 0.17748 0.0
C964 C 0.37271 0.87232 0.19712 0.0
C965 C 0.41111 0.86057 0.16409 0.0
C966 C 0.44042 0.89427 0.1693 0.0
H967 H 0.35636 0.82416 0.17182 0.0
H968 H 0.41321 0.84225 0.14875 0.0
S969 S 0.44096 0.96248 0.22022 0.0
N970 N 0.39998 0.92934 0.22238 0.0
N971 N 0.46208 0.94949 0.19685 0.0
C972 C 0.4358 0.9166 0.18974 0.0
C973 C 0.40202 0.90557 0.20374 0.0
C974 C 0.13593 0.5054 0.19503 0.0
C975 C 0.1258 0.49289 0.22546 0.0
C976 C 0.12467 0.52689 0.18087 0.0
C977 C 0.10335 0.53745 0.19669 0.0
H978 H 0.15187 0.4977 0.18163 0.0
H979 H 0.13293 0.53542 0.1573 0.0
S980 S 0.07087 0.51335 0.27735 0.0
N981 N 0.09376 0.49336 0.27123 0.0
N982 N 0.07345 0.53447 0.24497 0.0
C983 C 0.09378 0.52589 0.22742 0.0
C984 C 0.10474 0.50344 0.24167 0.0
C985 C 0.55365 0.62189 0.19257 0.0
C986 C 0.54787 0.64821 0.20516 0.0
C987 C 0.52603 0.59089 0.17995 0.0
C988 C 0.4913 0.5848 0.1791 0.0
H989 H 0.57999 0.62552 0.19179 0.0
H990 H 0.53228 0.57212 0.16983 0.0
S991 S 0.46122 0.6438 0.21144 0.0
N992 N 0.50411 0.66485 0.21781 0.0
N993 N 0.45225 0.60681 0.19409 0.0
C994 C 0.48482 0.6102 0.19279 0.0
C995 C 0.51301 0.64176 0.20582 0.0
C996 C 0.10189 0.62922 0.69148 0.0
C997 C 0.13388 0.65483 0.70481 0.0
C998 C 0.09805 0.59809 0.67876 0.0
C999 C 0.12614 0.59118 0.67854 0.0
H1000 H 0.07962 0.63349 0.69023 0.0
H1001 H 0.07316 0.57988 0.6681 0.0
S1002 S 0.21471 0.64825 0.71268 0.0
N1003 N 0.19356 0.67001 0.71865 0.0
N1004 N 0.18655 0.61173 0.69474 0.0
C1005 C 0.1579 0.61591 0.69288 0.0
C1006 C 0.16171 0.64759 0.70602 0.0
C1007 C 0.38872 0.51575 0.70678 0.0
C1008 C 0.38279 0.48125 0.70896 0.0
C1009 C 0.42006 0.54304 0.69373 0.0
C1010 C 0.44697 0.53709 0.68252 0.0
H1011 H 0.36834 0.52142 0.71384 0.0
H1012 H 0.42266 0.56881 0.69157 0.0
S1013 S 0.44621 0.45222 0.68664 0.0
N1014 N 0.40785 0.44331 0.70151 0.0
N1015 N 0.46651 0.49435 0.67727 0.0
C1016 C 0.44216 0.5031 0.6863 0.0
C1017 C 0.41018 0.4753 0.69939 0.0
C1018 C 0.51606 0.87869 0.69852 0.0
C1019 C 0.54625 0.90784 0.71074 0.0
C1020 C 0.49019 0.8827 0.68284 0.0
C1021 C 0.49317 0.91602 0.67873 0.0
H1022 H 0.51297 0.85266 0.69997 0.0
H1023 H 0.4681 0.85942 0.67311 0.0
S1024 S 0.56514 1.00041 0.70945 0.0
N1025 N 0.57607 0.97098 0.71993 0.0
N1026 N 0.52763 0.97837 0.69057 0.0
C1027 C 0.52233 0.94516 0.69223 0.0
C1028 C 0.54875 0.9411 0.70814 0.0
C1029 C 0.27569 0.44281 0.17076 0.0
C1030 C 0.25749 0.46115 0.16541 0.0
C1031 C 0.30812 0.45277 0.15608 0.0
C1032 C 0.32373 0.48135 0.13515 0.0
H1033 H 0.26544 0.42126 0.18721 0.0
H1034 H 0.32131 0.43818 0.16163 0.0
S1035 S 0.28525 0.53621 0.11102 0.0
N1036 N 0.25653 0.50803 0.13615 0.0
N1037 N 0.31703 0.52651 0.1086 0.0
C1038 C 0.30508 0.49904 0.1287 0.0
C1039 C 0.27217 0.48903 0.14379 0.0
C1040 C 0.55442 0.83971 0.15092 0.0
C1041 C 0.58342 0.87391 0.14752 0.0
C1042 C 0.55825 0.81263 0.16438 0.0
C1043 C 0.59127 0.8185 0.17482 0.0
H1044 H 0.52825 0.83413 0.14447 0.0
H1045 H 0.53479 0.78714 0.16748 0.0
S1046 S 0.67637 0.90236 0.16738 0.0
N1047 N 0.64692 0.91133 0.15293 0.0
N1048 N 0.65409 0.86063 0.17801 0.0
C1049 C 0.62082 0.85209 0.16982 0.0
C1050 C 0.61689 0.87969 0.15627 0.0
C1051 C 0.17195 0.73409 0.21535 0.0
C1052 C 0.19871 0.76267 0.19885 0.0
C1053 C 0.14798 0.70287 0.20057 0.0
C1054 C 0.14993 0.69832 0.16859 0.0
H1055 H 0.16932 0.73582 0.24008 0.0
H1056 H 0.12794 0.68186 0.2146 0.0
S1057 S 0.21527 0.76497 0.11455 0.0
N1058 N 0.22576 0.78462 0.14852 0.0
N1059 N 0.18097 0.72533 0.1207 0.0
C1060 C 0.17665 0.72658 0.15164 0.0
C1061 C 0.20086 0.7589 0.16674 0.0
C1062 C 0.3672 0.32729 0.0649 0.0
C1063 C 0.36069 0.30641 0.09139 0.0
C1064 C 0.38525 0.36412 0.06689 0.0
C1065 C 0.39768 0.38148 0.09538 0.0
H1066 H 0.35637 0.31518 0.04283 0.0
H1067 H 0.38805 0.37899 0.04604 0.0
S1068 S 0.39272 0.33854 0.17058 0.0
N1069 N 0.372 0.30558 0.14626 0.0
N1070 N 0.406 0.37473 0.14995 0.0
C1071 C 0.39391 0.36089 0.12156 0.0
C1072 C 0.37535 0.32337 0.11956 0.0
C1073 C 0.67209 0.0295 0.12248 0.0
C1074 C 0.65111 0.02178 0.096 0.0
C1075 C 0.70901 0.04741 0.12023 0.0
C1076 C 0.72647 0.05856 0.09145 0.0
H1077 H 0.65997 0.01994 0.14492 0.0
H1078 H 0.72392 0.05133 0.1412 0.0
S1079 S 0.68349 0.04946 0.01569 0.0
N1080 N 0.65041 0.03012 0.04048 0.0
N1081 N 0.71974 0.0638 0.03631 0.0
C1082 C 0.70582 0.05327 0.06507 0.0
C1083 C 0.66818 0.03484 0.06734 0.0
C1084 C 0.9766 0.6559 0.12031 0.0
C1085 C 0.96752 0.66386 0.09134 0.0
C1086 C 0.99599 0.63846 0.12272 0.0
C1087 C 1.00729 0.62844 0.09623 0.0
H1088 H 0.9699 0.66443 0.14144 0.0
H1089 H 1.00379 0.63457 0.14543 0.0
S1090 S 0.98601 0.6381 0.01506 0.0
N1091 N 0.96805 0.65665 0.03574 0.0
N1092 N 1.00441 0.62392 0.04017 0.0
C1093 C 0.9963 0.63399 0.0672 0.0
C1094 C 0.97642 0.65162 0.06477 0.0
C1095 C 0.33088 0.36289 0.37949 0.0
C1096 C 0.31952 0.35722 0.41057 0.0
C1097 C 0.36658 0.38398 0.37151 0.0
C1098 C 0.39257 0.40006 0.39429 0.0
H1099 H 0.31213 0.35003 0.36104 0.0
H1100 H 0.37394 0.38613 0.34736 0.0
S1101 S 0.3765 0.39732 0.47887 0.0
N1102 N 0.33691 0.37225 0.46409 0.0
N1103 N 0.40407 0.41181 0.44923 0.0
C1104 C 0.38139 0.3964 0.42539 0.0
C1105 C 0.3449 0.37506 0.43349 0.0
C1106 C 0.64697 0.99565 0.44722 0.0
C1107 C 0.64003 1.0066 0.41876 0.0
C1108 C 0.66682 0.97869 0.44883 0.0
C1109 C 0.68081 0.9722 0.42205 0.0
H1110 H 0.63807 1.00134 0.46867 0.0
H1111 H 0.67258 0.97214 0.47138 0.0
S1112 S 0.66679 0.99184 0.34146 0.0
N1113 N 0.64608 1.00689 0.36297 0.0
N1114 N 0.68333 0.97497 0.36581 0.0
C1115 C 0.67225 0.98107 0.39325 0.0
C1116 C 0.65183 0.99821 0.39164 0.0
C1117 C 0.05593 0.69743 0.45519 0.0
C1118 C 0.06723 0.71809 0.42825 0.0
C1119 C 0.03745 0.66057 0.45358 0.0
C1120 C 0.02977 0.64293 0.42499 0.0
H1121 H 0.05958 0.70969 0.47759 0.0
H1122 H 0.02793 0.64586 0.47495 0.0
S1123 S 0.0587 0.68523 0.34797 0.0
N1124 N 0.07321 0.71842 0.37234 0.0
N1125 N 0.03858 0.64923 0.36935 0.0
C1126 C 0.0433 0.66335 0.39804 0.0
C1127 C 0.06195 0.70089 0.39967 0.0
C1128 C 0.64834 0.66096 0.95271 0.0
C1129 C 0.63953 0.64342 0.92406 0.0
C1130 C 0.66607 0.69777 0.9544 0.0
C1131 C 0.67592 0.71845 0.92747 0.0
H1132 H 0.64287 0.64622 0.97408 0.0
H1133 H 0.67402 0.71002 0.97686 0.0
S1134 S 0.65412 0.68571 0.847 0.0
N1135 N 0.63824 0.64969 0.86834 0.0
N1136 N 0.67165 0.71887 0.87148 0.0
C1137 C 0.66489 0.70129 0.8988 0.0
C1138 C 0.64663 0.66378 0.89709 0.0
C1139 C 0.33655 0.98363 0.96119 0.0
C1140 C 0.31561 0.97086 0.93466 0.0
C1141 C 0.3735 1.00258 0.95899 0.0
C1142 C 0.39102 1.00928 0.93021 0.0
H1143 H 0.32437 0.98059 0.98366 0.0
H1144 H 0.38838 0.01307 0.98003 0.0
S1145 S 0.34808 0.97682 0.85425 0.0
N1146 N 0.31498 0.96282 0.87903 0.0
N1147 N 0.38431 0.99827 0.87496 0.0
C1148 C 0.37036 0.99452 0.90374 0.0
C1149 C 0.33272 0.97541 0.90596 0.0
C1150 C 0.03246 0.33368 0.88821 0.0
C1151 C 0.05142 0.34265 0.91609 0.0
C1152 C 1.01838 0.35364 0.87635 0.0
C1153 C 0.02239 0.38349 0.89187 0.0
H1154 H 0.02744 0.31028 0.87571 0.0
H1155 H 1.00277 0.34452 0.85551 0.0
S1156 S 0.07319 0.42061 0.96412 0.0
N1157 N 0.07631 0.38522 0.95755 0.0
N1158 N 0.04961 0.42293 0.93548 0.0
C1159 C 0.04336 0.39424 0.91877 0.0
C1160 C 0.05791 0.37378 0.93083 0.0
C1161 C 0.70588 0.66602 0.56575 0.0
C1162 C 0.72712 0.67496 0.59218 0.0
C1163 C 0.66896 0.64738 0.56816 0.0
C1164 C 0.65175 0.63665 0.59706 0.0
H1165 H 0.71774 0.67502 0.54315 0.0
H1166 H 0.65383 0.64244 0.54718 0.0
S1167 S 0.69547 0.64923 0.67294 0.0
N1168 N 0.72833 0.66846 0.64794 0.0
N1169 N 0.65903 0.63344 0.65238 0.0
C1170 C 0.6727 0.64333 0.62347 0.0
C1171 C 0.71033 0.66251 0.62104 0.0
C1172 C 0.38243 0.04973 0.54291 0.0
C1173 C 0.37127 0.06551 0.56499 0.0
C1174 C 0.39652 0.02862 0.55185 0.0
C1175 C 0.40053 0.02275 0.58321 0.0
H1176 H 0.37858 0.05212 0.51852 0.0
H1177 H 0.40334 0.01588 0.5339 0.0
S1178 S 0.37974 0.06178 0.65012 0.0
N1179 N 0.36834 0.07657 0.61974 0.0
N1180 N 0.39518 0.03705 0.63635 0.0
C1181 C 0.39178 0.04028 0.60553 0.0
C1182 C 0.37702 0.06155 0.59646 0.0
C1183 C 1.00825 0.36934 0.56784 0.0
C1184 C 1.01592 0.38688 0.59647 0.0
C1185 C 0.99023 0.33251 0.56613 0.0
C1186 C 0.97938 0.31172 0.59302 0.0
H1187 H 1.01741 0.38416 0.54648 0.0
H1188 H 0.98649 0.32038 0.54366 0.0
S1189 S 0.98826 0.34425 0.67347 0.0
N1190 N 1.00774 0.38034 0.65215 0.0
N1191 N 0.97392 0.31116 0.64901 0.0
C1192 C 0.98471 0.32879 0.62169 0.0
C1193 C 1.00291 0.36633 0.62341 0.0
C1194 C 1.01477 0.68553 0.81385 0.0
C1195 C 0.98888 0.68431 0.79404 0.0
C1196 C 0.05042 0.70303 0.80533 0.0
C1197 C 0.06197 0.7199 0.7764 0.0
H1198 H 1.00732 0.67175 0.8358 0.0
H1199 H 0.06891 0.70217 0.82135 0.0
S1200 S 1.00515 0.7272 0.71694 0.0
N1201 N 0.9775 0.70381 0.74492 0.0
N1202 N 0.04469 0.73651 0.7288 0.0
C1203 C 0.03665 0.7206 0.75695 0.0
C1204 C 1.00012 0.70289 0.76579 0.0
C1205 C 0.31712 0.32617 0.7878 0.0
C1206 C 0.30698 0.33399 0.7593 0.0
C1207 C 0.3372 0.3094 0.78917 0.0
C1208 C 0.34811 0.30004 0.76208 0.0
H1209 H 0.31077 0.33434 0.80931 0.0
H1210 H 0.34588 0.30561 0.81152 0.0
S1211 S 0.32409 0.30948 0.68188 0.0
N1212 N 0.30605 0.32721 0.70352 0.0
N1213 N 0.34376 0.29579 0.70608 0.0
C1214 C 0.33606 0.30538 0.73356 0.0
C1215 C 0.31547 0.32228 0.73216 0.0
C1216 C 0.70639 0.99612 0.78703 0.0
C1217 C 0.6979 0.97831 0.7585 0.0
C1218 C 0.72512 0.033 0.78851 0.0
C1219 C 0.73595 0.05356 0.7615 0.0
H1220 H 0.69733 0.98155 0.80851 0.0
H1221 H 0.72942 0.04537 0.81092 0.0
S1222 S 0.72523 0.02022 0.68118 0.0
N1223 N 0.70538 0.98434 0.70274 0.0
N1224 N 0.74055 0.05353 0.70547 0.0
C1225 C 0.72983 0.03617 0.73292 0.0
C1226 C 0.71086 0.9986 0.73141 0.0
C1227 C 0.32585 0.9949 0.28417 0.0
C1228 C 0.31205 0.97671 0.25624 0.0
C1229 C 0.34241 0.03167 0.28567 0.0
C1230 C 0.34603 0.05182 0.25925 0.0
H1231 H 0.325 0.98078 0.30499 0.0
H1232 H 0.35402 0.04439 0.30735 0.0
S1233 S 0.31007 0.01703 0.18145 0.0
N1234 N 0.29988 0.98163 0.2023 0.0
N1235 N 0.33094 0.05072 0.20504 0.0
C1236 C 0.33031 0.03391 0.23163 0.0
C1237 C 0.31332 0.99639 0.23014 0.0
C1238 C 1.00131 0.31597 0.23221 0.0
C1239 C 0.98357 0.30204 0.2605 0.0
C1240 C 0.03826 0.33405 0.23019 0.0
C1241 C 0.059 0.33911 0.25642 0.0
H1242 H 0.98664 0.31407 0.21152 0.0
H1243 H 0.05057 0.34568 0.20824 0.0
S1244 S 0.02577 0.30361 0.33507 0.0
N1245 N 0.98976 0.29144 0.31463 0.0
N1246 N 0.05909 0.32529 0.3109 0.0
C1247 C 0.04163 0.32332 0.28442 0.0
C1248 C 1.00397 0.30481 0.28644 0.0
C1249 C 0.74106 0.71199 0.24543 0.0
C1250 C 0.74225 0.69563 0.27309 0.0
C1251 C 0.71794 0.72519 0.24198 0.0
C1252 C 0.69522 0.72271 0.26611 0.0
H1253 H 0.75694 0.71324 0.22571 0.0
H1254 H 0.7171 0.73634 0.21989 0.0
S1255 S 0.69172 0.6867 0.34473 0.0
N1256 N 0.72118 0.68077 0.32597 0.0
N1257 N 0.67814 0.70583 0.31984 0.0
C1258 C 0.69768 0.70825 0.29451 0.0
C1259 C 0.72106 0.69466 0.29791 0.0
loop_
_geom_bond_atom_site_label_1
_geom_bond_atom_site_label_2
_geom_bond_distance
_geom_bond_site_symmetry_2
_ccdc_geom_bond_type
Mg0 O7 2.141 . S
Mg0 O8 2.048 . S
Mg0 O9 2.048 . S
Mg0 O12 2.141 . S
C1 O2 1.313 . S
C1 O8 1.195 . S
O2 C1 1.313 . S
C3 O4 1.245 . S
C3 O12 1.289 . S
O4 C3 1.245 . S
C5 O6 1.245 . S
C5 O7 1.289 . S
O6 C5 1.245 . S
O7 Mg0 2.141 . S
O7 C5 1.289 . S
O8 Mg0 2.048 . S
O8 C1 1.195 . S
O9 Mg0 2.048 . S
O9 C10 1.195 . S
C10 O9 1.195 . S
C10 O11 1.313 . S
O11 C10 1.313 . S
O12 Mg0 2.141 . S
O12 C3 1.289 . S
Mg13 O20 2.141 . S
Mg13 O21 2.048 . S
Mg13 O22 2.048 . S
Mg13 O25 2.141 . S
C14 O15 1.313 . S
C14 O21 1.195 . S
O15 C14 1.313 . S
C16 O17 1.245 . S
C16 O25 1.289 . S
O17 C16 1.245 . S
C18 O19 1.245 . S
C18 O20 1.289 . S
O19 C18 1.245 . S
O20 Mg13 2.141 . S
O20 C18 1.289 . S
O21 Mg13 2.048 . S
O21 C14 1.195 . S
O22 Mg13 2.048 . S
O22 C23 1.195 . S
C23 O22 1.195 . S
C23 O24 1.313 . S
O24 C23 1.313 . S
O25 Mg13 2.141 . S
O25 C16 1.289 . S
Mg26 O33 2.141 . S
Mg26 O34 2.048 . S
Mg26 O35 2.048 . S
Mg26 O38 2.141 . S
C27 O28 1.313 . S
C27 O34 1.195 . S
O28 C27 1.313 . S
C29 O30 1.245 . S
C29 O38 1.289 . S
O30 C29 1.245 . S
C31 O32 1.245 . S
C31 O33 1.289 . S
O32 C31 1.245 . S
O33 Mg26 2.141 . S
O33 C31 1.289 . S
O34 Mg26 2.048 . S
O34 C27 1.195 . S
O35 Mg26 2.048 . S
O35 C36 1.195 . S
C36 O35 1.195 . S
C36 O37 1.313 . S
O37 C36 1.313 . S
O38 Mg26 2.141 . S
O38 C29 1.289 . S
Mg39 O46 2.141 . S
Mg39 O47 2.048 . S
Mg39 O48 2.048 . S
Mg39 O51 2.141 . S
C40 O41 1.313 . S
C40 O47 1.195 . S
O41 C40 1.313 . S
C42 O43 1.245 . S
C42 O51 1.289 . S
O43 C42 1.245 . S
C44 O45 1.245 . S
C44 O46 1.289 . S
O45 C44 1.245 . S
O46 Mg39 2.141 . S
O46 C44 1.289 . S
O47 Mg39 2.048 . S
O47 C40 1.195 . S
O48 Mg39 2.048 . S
O48 C49 1.195 . S
C49 O48 1.195 . S
C49 O50 1.313 . S
O50 C49 1.313 . S
O51 Mg39 2.141 . S
O51 C42 1.289 . S
Mg52 O59 2.141 . S
Mg52 O60 2.048 . S
Mg52 O61 2.048 . S
Mg52 O64 2.141 . S
C53 O54 1.313 . S
C53 O60 1.195 . S
O54 C53 1.313 . S
C55 O56 1.245 . S
C55 O64 1.289 . S
O56 C55 1.245 . S
C57 O58 1.245 . S
C57 O59 1.289 . S
O58 C57 1.245 . S
O59 Mg52 2.141 . S
O59 C57 1.289 . S
O60 Mg52 2.048 . S
O60 C53 1.195 . S
O61 Mg52 2.048 . S
O61 C62 1.195 . S
C62 O61 1.195 . S
C62 O63 1.313 . S
O63 C62 1.313 . S
O64 Mg52 2.141 . S
O64 C55 1.289 . S
Mg65 O72 2.141 . S
Mg65 O73 2.048 . S
Mg65 O74 2.048 . S
Mg65 O77 2.141 . S
C66 O67 1.313 . S
C66 O73 1.195 . S
O67 C66 1.313 . S
C68 O69 1.245 . S
C68 O77 1.289 . S
O69 C68 1.245 . S
C70 O71 1.245 . S
C70 O72 1.289 . S
O71 C70 1.245 . S
O72 Mg65 2.141 . S
O72 C70 1.289 . S
O73 Mg65 2.048 . S
O73 C66 1.195 . S
O74 Mg65 2.048 . S
O74 C75 1.195 . S
C75 O74 1.195 . S
C75 O76 1.313 1_455 S
O76 C75 1.313 1_655 S
O77 Mg65 2.141 . S
O77 C68 1.289 . S
Mg78 O85 2.141 . S
Mg78 O86 2.048 . S
Mg78 O87 2.048 . S
Mg78 O90 2.141 . S
C79 O80 1.313 . S
C79 O86 1.195 . S
O80 C79 1.313 . S
C81 O82 1.245 . S
C81 O90 1.289 . S
O82 C81 1.245 . S
C83 O84 1.245 . S
C83 O85 1.289 . S
O84 C83 1.245 . S
O85 Mg78 2.141 . S
O85 C83 1.289 . S
O86 Mg78 2.048 . S
O86 C79 1.195 . S
O87 Mg78 2.048 . S
O87 C88 1.195 . S
C88 O87 1.195 . S
C88 O89 1.313 . S
O89 C88 1.313 . S
O90 Mg78 2.141 . S
O90 C81 1.289 . S
Mg91 O98 2.141 . S
Mg91 O99 2.048 . S
Mg91 O100 2.048 . S
Mg91 O103 2.141 . S
C92 O93 1.313 . S
C92 O99 1.195 . S
O93 C92 1.313 . S
C94 O95 1.245 . S
C94 O103 1.289 . S
O95 C94 1.245 . S
C96 O97 1.245 . S
C96 O98 1.289 . S
O97 C96 1.245 . S
O98 Mg91 2.141 . S
O98 C96 1.289 . S
O99 Mg91 2.048 . S
O99 C92 1.195 . S
O100 Mg91 2.048 . S
O100 C101 1.195 . S
C101 O100 1.195 . S
C101 O102 1.313 . S
O102 C101 1.313 . S
O103 Mg91 2.141 . S
O103 C94 1.289 . S
Mg104 O111 2.141 . S
Mg104 O112 2.048 . S
Mg104 O113 2.048 . S
Mg104 O116 2.141 . S
C105 O106 1.313 1_455 S
C105 O112 1.195 . S
O106 C105 1.313 1_655 S
C107 O108 1.245 . S
C107 O116 1.289 . S
O108 C107 1.245 . S
C109 O110 1.245 . S
C109 O111 1.289 . S
O110 C109 1.245 . S
O111 Mg104 2.141 . S
O111 C109 1.289 . S
O112 Mg104 2.048 . S
O112 C105 1.195 . S
O113 Mg104 2.048 . S
O113 C114 1.195 . S
C114 O113 1.195 . S
C114 O115 1.313 . S
O115 C114 1.313 . S
O116 Mg104 2.141 . S
O116 C107 1.289 . S
Mg117 O124 2.141 . S
Mg117 O125 2.048 . S
Mg117 O126 2.048 . S
Mg117 O129 2.141 . S
C118 O119 1.313 . S
C118 O125 1.195 . S
O119 C118 1.313 . S
C120 O121 1.245 . S
C120 O129 1.289 . S
O121 C120 1.245 . S
C122 O123 1.245 . S
C122 O124 1.289 . S
O123 C122 1.245 . S
O124 Mg117 2.141 . S
O124 C122 1.289 . S
O125 Mg117 2.048 . S
O125 C118 1.195 . S
O126 Mg117 2.048 . S
O126 C127 1.195 . S
C127 O126 1.195 . S
C127 O128 1.313 . S
O128 C127 1.313 . S
O129 Mg117 2.141 . S
O129 C120 1.289 . S
Mg130 O137 2.141 . S
Mg130 O138 2.048 . S
Mg130 O139 2.048 . S
Mg130 O142 2.141 . S
C131 O132 1.313 . S
C131 O138 1.195 . S
O132 C131 1.313 . S
C133 O134 1.245 . S
C133 O142 1.289 . S
O134 C133 1.245 . S
C135 O136 1.245 . S
C135 O137 1.289 . S
O136 C135 1.245 . S
O137 Mg130 2.141 . S
O137 C135 1.289 . S
O138 Mg130 2.048 . S
O138 C131 1.195 . S
O139 Mg130 2.048 . S
O139 C140 1.195 . S
C140 O139 1.195 . S
C140 O141 1.313 . S
O141 C140 1.313 . S
O142 Mg130 2.141 . S
O142 C133 1.289 . S
Mg143 O150 2.141 . S
Mg143 O151 2.048 . S
Mg143 O152 2.048 . S
Mg143 O155 2.141 . S
C144 O145 1.313 1_655 S
C144 O151 1.195 . S
O145 C144 1.313 1_455 S
C146 O147 1.245 . S
C146 O155 1.289 . S
O147 C146 1.245 . S
C148 O149 1.245 . S
C148 O150 1.289 . S
O149 C148 1.245 . S
O150 Mg143 2.141 . S
O150 C148 1.289 . S
O151 Mg143 2.048 . S
O151 C144 1.195 . S
O152 Mg143 2.048 . S
O152 C153 1.195 . S
C153 O152 1.195 . S
C153 O154 1.313 . S
O154 C153 1.313 . S
O155 Mg143 2.141 . S
O155 C146 1.289 . S
Mg156 O163 2.141 . S
Mg156 O164 2.048 . S
Mg156 O165 2.048 . S
Mg156 O168 2.141 . S
C157 O158 1.313 . S
C157 O164 1.195 . S
O158 C157 1.313 . S
C159 O160 1.245 . S
C159 O168 1.289 . S
O160 C159 1.245 . S
C161 O162 1.245 . S
C161 O163 1.289 . S
O162 C161 1.245 . S
O163 Mg156 2.141 . S
O163 C161 1.289 . S
O164 Mg156 2.048 . S
O164 C157 1.195 . S
O165 Mg156 2.048 . S
O165 C166 1.195 . S
C166 O165 1.195 . S
C166 O167 1.313 . S
O167 C166 1.313 . S
O168 Mg156 2.141 . S
O168 C159 1.289 . S
Mg169 O176 2.141 . S
Mg169 O177 2.048 . S
Mg169 O178 2.048 . S
Mg169 O181 2.141 . S
C170 O171 1.313 . S
C170 O177 1.195 . S
O171 C170 1.313 . S
C172 O173 1.245 . S
C172 O181 1.289 . S
O173 C172 1.245 . S
C174 O175 1.245 . S
C174 O176 1.289 . S
O175 C174 1.245 . S
O176 Mg169 2.141 . S
O176 C174 1.289 . S
O177 Mg169 2.048 . S
O177 C170 1.195 . S
O178 Mg169 2.048 . S
O178 C179 1.195 . S
C179 O178 1.195 . S
C179 O180 1.313 . S
O180 C179 1.313 . S
O181 Mg169 2.141 . S
O181 C172 1.289 . S
Mg182 O189 2.141 . S
Mg182 O190 2.048 . S
Mg182 O191 2.048 . S
Mg182 O194 2.141 . S
C183 O184 1.313 . S
C183 O190 1.195 . S
O184 C183 1.313 . S
C185 O186 1.245 . S
C185 O194 1.289 . S
O186 C185 1.245 . S
C187 O188 1.245 . S
C187 O189 1.289 . S
O188 C187 1.245 . S
O189 Mg182 2.141 . S
O189 C187 1.289 . S
O190 Mg182 2.048 . S
O190 C183 1.195 . S
O191 Mg182 2.048 . S
O191 C192 1.195 . S
C192 O191 1.195 . S
C192 O193 1.313 . S
O193 C192 1.313 . S
O194 Mg182 2.141 . S
O194 C185 1.289 . S
Mg195 O202 2.141 . S
Mg195 O203 2.048 . S
Mg195 O204 2.048 . S
Mg195 O207 2.141 . S
C196 O197 1.313 . S
C196 O203 1.195 . S
O197 C196 1.313 . S
C198 O199 1.245 . S
C198 O207 1.289 . S
O199 C198 1.245 . S
C200 O201 1.245 . S
C200 O202 1.289 . S
O201 C200 1.245 . S
O202 Mg195 2.141 . S
O202 C200 1.289 . S
O203 Mg195 2.048 . S
O203 C196 1.195 . S
O204 Mg195 2.048 . S
O204 C205 1.195 . S
C205 O204 1.195 . S
C205 O206 1.313 . S
O206 C205 1.313 . S
O207 Mg195 2.141 . S
O207 C198 1.289 . S
Mg208 O215 2.141 . S
Mg208 O216 2.048 . S
Mg208 O217 2.048 . S
Mg208 O220 2.141 . S
C209 O210 1.313 . S
C209 O216 1.195 . S
O210 C209 1.313 . S
C211 O212 1.245 . S
C211 O220 1.289 . S
O212 C211 1.245 . S
C213 O214 1.245 . S
C213 O215 1.289 . S
O214 C213 1.245 . S
O215 Mg208 2.141 . S
O215 C213 1.289 . S
O216 Mg208 2.048 . S
O216 C209 1.195 . S
O217 Mg208 2.048 . S
O217 C218 1.195 . S
C218 O217 1.195 . S
C218 O219 1.313 . S
O219 C218 1.313 . S
O220 Mg208 2.141 . S
O220 C211 1.289 . S
Mg221 O228 2.141 . S
Mg221 O229 2.048 . S
Mg221 O230 2.048 . S
Mg221 O233 2.141 . S
C222 O223 1.313 . S
C222 O229 1.195 . S
O223 C222 1.313 . S
C224 O225 1.245 . S
C224 O233 1.289 . S
O225 C224 1.245 . S
C226 O227 1.245 . S
C226 O228 1.289 . S
O227 C226 1.245 . S
O228 Mg221 2.141 . S
O228 C226 1.289 . S
O229 Mg221 2.048 . S
O229 C222 1.195 . S
O230 Mg221 2.048 . S
O230 C231 1.195 . S
C231 O230 1.195 . S
C231 O232 1.313 . S
O232 C231 1.313 . S
O233 Mg221 2.141 . S
O233 C224 1.289 . S
Mg234 O241 2.141 . S
Mg234 O242 2.048 . S
Mg234 O243 2.048 . S
Mg234 O246 2.141 . S
C235 O236 1.313 . S
C235 O242 1.195 . S
O236 C235 1.313 . S
C237 O238 1.245 . S
C237 O246 1.289 . S
O238 C237 1.245 . S
C239 O240 1.245 . S
C239 O241 1.289 . S
O240 C239 1.245 . S
O241 Mg234 2.141 . S
O241 C239 1.289 . S
O242 Mg234 2.048 . S
O242 C235 1.195 . S
O243 Mg234 2.048 . S
O243 C244 1.195 . S
C244 O243 1.195 . S
C244 O245 1.313 . S
O245 C244 1.313 . S
O246 Mg234 2.141 . S
O246 C237 1.289 . S
Mg247 O254 2.141 . S
Mg247 O255 2.048 . S
Mg247 O256 2.048 . S
Mg247 O259 2.141 . S
C248 O249 1.313 . S
C248 O255 1.195 . S
O249 C248 1.313 . S
C250 O251 1.245 . S
C250 O259 1.289 . S
O251 C250 1.245 . S
C252 O253 1.245 . S
C252 O254 1.289 . S
O253 C252 1.245 . S
O254 Mg247 2.141 . S
O254 C252 1.289 . S
O255 Mg247 2.048 . S
O255 C248 1.195 . S
O256 Mg247 2.048 . S
O256 C257 1.195 . S
C257 O256 1.195 . S
C257 O258 1.313 . S
O258 C257 1.313 . S
O259 Mg247 2.141 . S
O259 C250 1.289 . S
Mg260 O267 2.141 . S
Mg260 O268 2.048 . S
Mg260 O269 2.048 . S
Mg260 O272 2.141 . S
C261 O262 1.313 . S
C261 O268 1.195 . S
O262 C261 1.313 . S
C263 O264 1.245 . S
C263 O272 1.289 . S
O264 C263 1.245 . S
C265 O266 1.245 . S
C265 O267 1.289 . S
O266 C265 1.245 . S
O267 Mg260 2.141 . S
O267 C265 1.289 . S
O268 Mg260 2.048 . S
O268 C261 1.195 . S
O269 Mg260 2.048 . S
O269 C270 1.195 . S
C270 O269 1.195 . S
C270 O271 1.313 . S
O271 C270 1.313 . S
O272 Mg260 2.141 . S
O272 C263 1.289 . S
Mg273 O280 2.141 . S
Mg273 O281 2.048 . S
Mg273 O282 2.048 . S
Mg273 O285 2.141 . S
C274 O275 1.313 . S
C274 O281 1.195 . S
O275 C274 1.313 . S
C276 O277 1.245 . S
C276 O285 1.289 . S
O277 C276 1.245 . S
C278 O279 1.245 . S
C278 O280 1.289 . S
O279 C278 1.245 . S
O280 Mg273 2.141 . S
O280 C278 1.289 . S
O281 Mg273 2.048 . S
O281 C274 1.195 . S
O282 Mg273 2.048 . S
O282 C283 1.195 . S
C283 O282 1.195 . S
C283 O284 1.313 . S
O284 C283 1.313 . S
O285 Mg273 2.141 . S
O285 C276 1.289 . S
Mg286 O293 2.141 . S
Mg286 O294 2.048 . S
Mg286 O295 2.048 . S
Mg286 O298 2.141 . S
C287 O288 1.313 . S
C287 O294 1.195 . S
O288 C287 1.313 . S
C289 O290 1.245 . S
C289 O298 1.289 . S
O290 C289 1.245 . S
C291 O292 1.245 . S
C291 O293 1.289 . S
O292 C291 1.245 . S
O293 Mg286 2.141 . S
O293 C291 1.289 . S
O294 Mg286 2.048 . S
O294 C287 1.195 . S
O295 Mg286 2.048 . S
O295 C296 1.195 . S
C296 O295 1.195 . S
C296 O297 1.313 . S
O297 C296 1.313 . S
O298 Mg286 2.141 . S
O298 C289 1.289 . S
Mg299 O306 2.141 . S
Mg299 O307 2.048 . S
Mg299 O308 2.048 . S
Mg299 O311 2.141 . S
C300 O301 1.313 . S
C300 O307 1.195 . S
O301 C300 1.313 . S
C302 O303 1.245 . S
C302 O311 1.289 . S
O303 C302 1.245 . S
C304 O305 1.245 . S
C304 O306 1.289 . S
O305 C304 1.245 . S
O306 Mg299 2.141 . S
O306 C304 1.289 . S
O307 Mg299 2.048 . S
O307 C300 1.195 . S
O308 Mg299 2.048 . S
O308 C309 1.195 . S
C309 O308 1.195 . S
C309 O310 1.313 . S
O310 C309 1.313 . S
O311 Mg299 2.141 . S
O311 C302 1.289 . S
Mg312 O319 2.141 . S
Mg312 O320 2.048 . S
Mg312 O321 2.048 . S
Mg312 O324 2.141 . S
C313 O314 1.313 . S
C313 O320 1.195 . S
O314 C313 1.313 . S
C315 O316 1.245 . S
C315 O324 1.289 . S
O316 C315 1.245 . S
C317 O318 1.245 . S
C317 O319 1.289 . S
O318 C317 1.245 . S
O319 Mg312 2.141 . S
O319 C317 1.289 . S
O320 Mg312 2.048 . S
O320 C313 1.195 . S
O321 Mg312 2.048 . S
O321 C322 1.195 . S
C322 O321 1.195 . S
C322 O323 1.313 . S
O323 C322 1.313 . S
O324 Mg312 2.141 . S
O324 C315 1.289 . S
Mg325 O332 2.141 . S
Mg325 O333 2.048 . S
Mg325 O334 2.048 . S
Mg325 O337 2.141 . S
C326 O327 1.313 . S
C326 O333 1.195 . S
O327 C326 1.313 . S
C328 O329 1.245 . S
C328 O337 1.289 . S
O329 C328 1.245 . S
C330 O331 1.245 . S
C330 O332 1.289 . S
O331 C330 1.245 . S
O332 Mg325 2.141 . S
O332 C330 1.289 . S
O333 Mg325 2.048 . S
O333 C326 1.195 . S
O334 Mg325 2.048 . S
O334 C335 1.195 . S
C335 O334 1.195 . S
C335 O336 1.313 . S
O336 C335 1.313 . S
O337 Mg325 2.141 . S
O337 C328 1.289 . S
Mg338 O345 2.141 . S
Mg338 O346 2.048 . S
Mg338 O347 2.048 . S
Mg338 O350 2.141 . S
C339 O340 1.313 . S
C339 O346 1.195 . S
O340 C339 1.313 . S
C341 O342 1.245 . S
C341 O350 1.289 . S
O342 C341 1.245 . S
C343 O344 1.245 . S
C343 O345 1.289 . S
O344 C343 1.245 . S
O345 Mg338 2.141 . S
O345 C343 1.289 . S
O346 Mg338 2.048 . S
O346 C339 1.195 . S
O347 Mg338 2.048 . S
O347 C348 1.195 . S
C348 O347 1.195 . S
C348 O349 1.313 . S
O349 C348 1.313 . S
O350 Mg338 2.141 . S
O350 C341 1.289 . S
Mg351 O358 2.141 . S
Mg351 O359 2.048 . S
Mg351 O360 2.048 . S
Mg351 O363 2.141 . S
C352 O353 1.313 . S
C352 O359 1.195 . S
O353 C352 1.313 . S
C354 O355 1.245 . S
C354 O363 1.289 . S
O355 C354 1.245 . S
C356 O357 1.245 . S
C356 O358 1.289 . S
O357 C356 1.245 . S
O358 Mg351 2.141 . S
O358 C356 1.289 . S
O359 Mg351 2.048 . S
O359 C352 1.195 . S
O360 Mg351 2.048 . S
O360 C361 1.195 . S
C361 O360 1.195 . S
C361 O362 1.313 . S
O362 C361 1.313 . S
O363 Mg351 2.141 . S
O363 C354 1.289 . S
Mg364 O371 2.141 . S
Mg364 O372 2.048 . S
Mg364 O373 2.048 . S
Mg364 O376 2.141 . S
C365 O366 1.313 . S
C365 O372 1.195 . S
O366 C365 1.313 . S
C367 O368 1.245 . S
C367 O376 1.289 . S
O368 C367 1.245 . S
C369 O370 1.245 . S
C369 O371 1.289 . S
O370 C369 1.245 . S
O371 Mg364 2.141 . S
O371 C369 1.289 . S
O372 Mg364 2.048 . S
O372 C365 1.195 . S
O373 Mg364 2.048 . S
O373 C374 1.195 . S
C374 O373 1.195 . S
C374 O375 1.313 . S
O375 C374 1.313 . S
O376 Mg364 2.141 . S
O376 C367 1.289 . S
Mg377 O384 2.141 . S
Mg377 O385 2.048 . S
Mg377 O386 2.048 . S
Mg377 O389 2.141 . S
C378 O379 1.313 . S
C378 O385 1.195 . S
O379 C378 1.313 . S
C380 O381 1.245 . S
C380 O389 1.289 . S
O381 C380 1.245 . S
C382 O383 1.245 . S
C382 O384 1.289 . S
O383 C382 1.245 . S
O384 Mg377 2.141 . S
O384 C382 1.289 . S
O385 Mg377 2.048 . S
O385 C378 1.195 . S
O386 Mg377 2.048 . S
O386 C387 1.195 . S
C387 O386 1.195 . S
C387 O388 1.313 . S
O388 C387 1.313 . S
O389 Mg377 2.141 . S
O389 C380 1.289 . S
Mg390 O397 2.141 . S
Mg390 O398 2.048 . S
Mg390 O399 2.048 . S
Mg390 O402 2.141 . S
C391 O392 1.313 . S
C391 O398 1.195 . S
O392 C391 1.313 . S
C393 O394 1.245 . S
C393 O402 1.289 . S
O394 C393 1.245 . S
C395 O396 1.245 . S
C395 O397 1.289 . S
O396 C395 1.245 . S
O397 Mg390 2.141 . S
O397 C395 1.289 . S
O398 Mg390 2.048 . S
O398 C391 1.195 . S
O399 Mg390 2.048 . S
O399 C400 1.195 . S
C400 O399 1.195 . S
C400 O401 1.313 . S
O401 C400 1.313 . S
O402 Mg390 2.141 . S
O402 C393 1.289 . S
Mg403 O410 2.141 . S
Mg403 O411 2.048 . S
Mg403 O412 2.048 . S
Mg403 O415 2.141 . S
C404 O405 1.313 . S
C404 O411 1.195 . S
O405 C404 1.313 . S
C406 O407 1.245 . S
C406 O415 1.289 . S
O407 C406 1.245 . S
C408 O409 1.245 . S
C408 O410 1.289 . S
O409 C408 1.245 . S
O410 Mg403 2.141 . S
O410 C408 1.289 . S
O411 Mg403 2.048 . S
O411 C404 1.195 . S
O412 Mg403 2.048 . S
O412 C413 1.195 . S
C413 O412 1.195 . S
C413 O414 1.313 . S
O414 C413 1.313 . S
O415 Mg403 2.141 . S
O415 C406 1.289 . S
Mg416 O423 2.141 . S
Mg416 O424 2.048 . S
Mg416 O425 2.048 . S
Mg416 O428 2.141 . S
C417 O418 1.313 . S
C417 O424 1.195 . S
O418 C417 1.313 . S
C419 O420 1.245 . S
C419 O428 1.289 . S
O420 C419 1.245 . S
C421 O422 1.245 . S
C421 O423 1.289 . S
O422 C421 1.245 . S
O423 Mg416 2.141 . S
O423 C421 1.289 . S
O424 Mg416 2.048 . S
O424 C417 1.195 . S
O425 Mg416 2.048 . S
O425 C426 1.195 . S
C426 O425 1.195 . S
C426 O427 1.313 . S
O427 C426 1.313 . S
O428 Mg416 2.141 . S
O428 C419 1.289 . S
Mg429 O436 2.141 . S
Mg429 O437 2.048 . S
Mg429 O438 2.048 . S
Mg429 O441 2.141 . S
C430 O431 1.313 . S
C430 O437 1.195 . S
O431 C430 1.313 . S
C432 O433 1.245 . S
C432 O441 1.289 . S
O433 C432 1.245 . S
C434 O435 1.245 . S
C434 O436 1.289 . S
O435 C434 1.245 . S
O436 Mg429 2.141 . S
O436 C434 1.289 . S
O437 Mg429 2.048 . S
O437 C430 1.195 . S
O438 Mg429 2.048 . S
O438 C439 1.195 . S
C439 O438 1.195 . S
C439 O440 1.313 . S
O440 C439 1.313 . S
O441 Mg429 2.141 . S
O441 C432 1.289 . S
Mg442 O449 2.141 . S
Mg442 O450 2.048 . S
Mg442 O451 2.048 . S
Mg442 O454 2.141 . S
C443 O444 1.313 . S
C443 O450 1.195 . S
O444 C443 1.313 . S
C445 O446 1.245 . S
C445 O454 1.289 . S
O446 C445 1.245 . S
C447 O448 1.245 . S
C447 O449 1.289 . S
O448 C447 1.245 . S
O449 Mg442 2.141 . S
O449 C447 1.289 . S
O450 Mg442 2.048 . S
O450 C443 1.195 . S
O451 Mg442 2.048 . S
O451 C452 1.195 . S
C452 O451 1.195 . S
C452 O453 1.313 . S
O453 C452 1.313 . S
O454 Mg442 2.141 . S
O454 C445 1.289 . S
Mg455 O462 2.141 . S
Mg455 O463 2.048 . S
Mg455 O464 2.048 . S
Mg455 O467 2.141 . S
C456 O457 1.313 . S
C456 O463 1.195 . S
O457 C456 1.313 . S
C458 O459 1.245 . S
C458 O467 1.289 . S
O459 C458 1.245 . S
C460 O461 1.245 . S
C460 O462 1.289 . S
O461 C460 1.245 . S
O462 Mg455 2.141 . S
O462 C460 1.289 . S
O463 Mg455 2.048 . S
O463 C456 1.195 . S
O464 Mg455 2.048 . S
O464 C465 1.195 . S
C465 O464 1.195 . S
C465 O466 1.313 . S
O466 C465 1.313 . S
O467 Mg455 2.141 . S
O467 C458 1.289 . S
C468 C469 1.369 . S
C468 C470 1.419 . S
C468 H472 0.930 . S
C469 C468 1.369 . S
C469 C478 1.429 . S
C470 C468 1.419 . S
C470 C471 1.363 . S
C470 H473 0.929 . S
C471 C470 1.363 . S
C471 C477 1.428 . S
H472 C468 0.930 . S
H473 C470 0.929 . S
S474 N475 1.613 . S
S474 N476 1.610 . S
N475 S474 1.613 . S
N475 C478 1.350 . S
N476 S474 1.610 . S
N476 C477 1.351 . S
C477 C471 1.428 . S
C477 N476 1.351 . S
C477 C478 1.434 . S
C478 C469 1.429 . S
C478 N475 1.350 . S
C478 C477 1.434 . S
C479 C480 1.369 . S
C479 C481 1.419 . S
C479 H483 0.930 . S
C480 C479 1.369 . S
C480 C489 1.429 . S
C481 C479 1.419 . S
C481 C482 1.363 . S
C481 H484 0.929 . S
C482 C481 1.363 . S
C482 C488 1.428 . S
H483 C479 0.930 . S
H484 C481 0.929 . S
S485 N486 1.613 . S
S485 N487 1.610 . S
N486 S485 1.613 . S
N486 C489 1.350 . S
N487 S485 1.610 . S
N487 C488 1.351 . S
C488 C482 1.428 . S
C488 N487 1.351 . S
C488 C489 1.434 . S
C489 C480 1.429 . S
C489 N486 1.350 . S
C489 C488 1.434 . S
C490 C491 1.369 . S
C490 C492 1.419 . S
C490 H494 0.930 . S
C491 C490 1.369 . S
C491 C500 1.429 . S
C492 C490 1.419 . S
C492 C493 1.363 . S
C492 H495 0.929 . S
C493 C492 1.363 . S
C493 C499 1.428 . S
H494 C490 0.930 . S
H495 C492 0.929 . S
S496 N497 1.613 . S
S496 N498 1.610 . S
N497 S496 1.613 . S
N497 C500 1.350 . S
N498 S496 1.610 . S
N498 C499 1.351 . S
C499 C493 1.428 . S
C499 N498 1.351 . S
C499 C500 1.434 . S
C500 C491 1.429 . S
C500 N497 1.350 . S
C500 C499 1.434 . S
C501 C502 1.369 . S
C501 C503 1.419 . S
C501 H505 0.930 . S
C502 C501 1.369 . S
C502 C511 1.429 . S
C503 C501 1.419 . S
C503 C504 1.363 . S
C503 H506 0.929 . S
C504 C503 1.363 . S
C504 C510 1.428 . S
H505 C501 0.930 . S
H506 C503 0.929 . S
S507 N508 1.613 . S
S507 N509 1.610 . S
N508 S507 1.613 . S
N508 C511 1.350 . S
N509 S507 1.610 . S
N509 C510 1.351 . S
C510 C504 1.428 . S
C510 N509 1.351 . S
C510 C511 1.434 . S
C511 C502 1.429 . S
C511 N508 1.350 . S
C511 C510 1.434 . S
C512 C513 1.369 . S
C512 C514 1.419 . S
C512 H516 0.930 . S
C513 C512 1.369 . S
C513 C522 1.429 . S
C514 C512 1.419 . S
C514 C515 1.363 . S
C514 H517 0.929 . S
C515 C514 1.363 . S
C515 C521 1.428 . S
H516 C512 0.930 . S
H517 C514 0.929 . S
S518 N519 1.613 . S
S518 N520 1.610 . S
N519 S518 1.613 . S
N519 C522 1.350 . S
N520 S518 1.610 . S
N520 C521 1.351 . S
C521 C515 1.428 . S
C521 N520 1.351 . S
C521 C522 1.434 . S
C522 C513 1.429 . S
C522 N519 1.350 . S
C522 C521 1.434 . S
C523 C524 1.369 . S
C523 C525 1.419 . S
C523 H527 0.930 . S
C524 C523 1.369 . S
C524 C533 1.429 . S
C525 C523 1.419 . S
C525 C526 1.363 . S
C525 H528 0.929 . S
C526 C525 1.363 . S
C526 C532 1.428 . S
H527 C523 0.930 . S
H528 C525 0.929 . S
S529 N530 1.613 . S
S529 N531 1.610 . S
N530 S529 1.613 . S
N530 C533 1.350 . S
N531 S529 1.610 . S
N531 C532 1.351 . S
C532 C526 1.428 . S
C532 N531 1.351 . S
C532 C533 1.434 . S
C533 C524 1.429 . S
C533 N530 1.350 . S
C533 C532 1.434 . S
C534 C535 1.369 . S
C534 C536 1.419 . S
C534 H538 0.930 . S
C535 C534 1.369 . S
C535 C544 1.429 . S
C536 C534 1.419 . S
C536 C537 1.363 . S
C536 H539 0.929 . S
C537 C536 1.363 . S
C537 C543 1.428 . S
H538 C534 0.930 . S
H539 C536 0.929 . S
S540 N541 1.613 . S
S540 N542 1.610 . S
N541 S540 1.613 . S
N541 C544 1.350 . S
N542 S540 1.610 . S
N542 C543 1.351 . S
C543 C537 1.428 . S
C543 N542 1.351 . S
C543 C544 1.434 . S
C544 C535 1.429 . S
C544 N541 1.350 . S
C544 C543 1.434 . S
C545 C546 1.369 . S
C545 C547 1.419 . S
C545 H549 0.930 . S
C546 C545 1.369 . S
C546 C555 1.429 . S
C547 C545 1.419 . S
C547 C548 1.363 . S
C547 H550 0.929 . S
C548 C547 1.363 . S
C548 C554 1.428 . S
H549 C545 0.930 . S
H550 C547 0.929 . S
S551 N552 1.613 . S
S551 N553 1.610 . S
N552 S551 1.613 . S
N552 C555 1.350 . S
N553 S551 1.610 . S
N553 C554 1.351 . S
C554 C548 1.428 . S
C554 N553 1.351 . S
C554 C555 1.434 . S
C555 C546 1.429 . S
C555 N552 1.350 . S
C555 C554 1.434 . S
C556 C557 1.369 . S
C556 C558 1.419 . S
C556 H560 0.930 . S
C557 C556 1.369 . S
C557 C566 1.429 . S
C558 C556 1.419 . S
C558 C559 1.363 . S
C558 H561 0.929 . S
C559 C558 1.363 . S
C559 C565 1.428 . S
H560 C556 0.930 . S
H561 C558 0.929 . S
S562 N563 1.613 . S
S562 N564 1.610 . S
N563 S562 1.613 . S
N563 C566 1.350 . S
N564 S562 1.610 . S
N564 C565 1.351 . S
C565 C559 1.428 . S
C565 N564 1.351 . S
C565 C566 1.434 . S
C566 C557 1.429 . S
C566 N563 1.350 . S
C566 C565 1.434 . S
C567 C568 1.369 . S
C567 C569 1.419 . S
C567 H571 0.930 . S
C568 C567 1.369 . S
C568 C577 1.429 . S
C569 C567 1.419 . S
C569 C570 1.363 . S
C569 H572 0.929 . S
C570 C569 1.363 . S
C570 C576 1.428 . S
H571 C567 0.930 . S
H572 C569 0.929 . S
S573 N574 1.613 . S
S573 N575 1.610 . S
N574 S573 1.613 . S
N574 C577 1.350 . S
N575 S573 1.610 . S
N575 C576 1.351 . S
C576 C570 1.428 . S
C576 N575 1.351 . S
C576 C577 1.434 . S
C577 C568 1.429 . S
C577 N574 1.350 . S
C577 C576 1.434 . S
C578 C579 1.369 . S
C578 C580 1.419 . S
C578 H582 0.930 . S
C579 C578 1.369 . S
C579 C588 1.429 . S
C580 C578 1.419 . S
C580 C581 1.363 . S
C580 H583 0.929 . S
C581 C580 1.363 . S
C581 C587 1.428 . S
H582 C578 0.930 . S
H583 C580 0.929 . S
S584 N585 1.613 . S
S584 N586 1.610 . S
N585 S584 1.613 . S
N585 C588 1.350 . S
N586 S584 1.610 . S
N586 C587 1.351 . S
C587 C581 1.428 . S
C587 N586 1.351 . S
C587 C588 1.434 . S
C588 C579 1.429 . S
C588 N585 1.350 . S
C588 C587 1.434 . S
C589 C590 1.369 . S
C589 C591 1.419 . S
C589 H593 0.930 . S
C590 C589 1.369 . S
C590 C599 1.429 . S
C591 C589 1.419 . S
C591 C592 1.363 . S
C591 H594 0.929 . S
C592 C591 1.363 . S
C592 C598 1.428 . S
H593 C589 0.930 . S
H594 C591 0.929 . S
S595 N596 1.613 . S
S595 N597 1.610 . S
N596 S595 1.613 . S
N596 C599 1.350 . S
N597 S595 1.610 . S
N597 C598 1.351 . S
C598 C592 1.428 . S
C598 N597 1.351 . S
C598 C599 1.434 . S
C599 C590 1.429 . S
C599 N596 1.350 . S
C599 C598 1.434 . S
C600 C601 1.369 . S
C600 C602 1.419 1_655 S
C600 H604 0.930 . S
C601 C600 1.369 . S
C601 C610 1.429 . S
C602 C600 1.419 1_455 S
C602 C603 1.363 . S
C602 H605 0.929 . S
C603 C602 1.363 . S
C603 C609 1.428 . S
H604 C600 0.930 . S
H605 C602 0.929 . S
S606 N607 1.613 1_455 S
S606 N608 1.610 . S
N607 S606 1.613 1_655 S
N607 C610 1.350 . S
N608 S606 1.610 . S
N608 C609 1.351 . S
C609 C603 1.428 . S
C609 N608 1.351 . S
C609 C610 1.434 1_455 S
C610 C601 1.429 . S
C610 N607 1.350 . S
C610 C609 1.434 1_655 S
C611 C612 1.369 . S
C611 C613 1.419 . S
C611 H615 0.930 . S
C612 C611 1.369 . S
C612 C621 1.429 . S
C613 C611 1.419 . S
C613 C614 1.363 . S
C613 H616 0.929 . S
C614 C613 1.363 . S
C614 C620 1.428 . S
H615 C611 0.930 . S
H616 C613 0.929 . S
S617 N618 1.613 . S
S617 N619 1.610 . S
N618 S617 1.613 . S
N618 C621 1.350 . S
N619 S617 1.610 . S
N619 C620 1.351 . S
C620 C614 1.428 . S
C620 N619 1.351 . S
C620 C621 1.434 . S
C621 C612 1.429 . S
C621 N618 1.350 . S
C621 C620 1.434 . S
C622 C623 1.369 . S
C622 C624 1.419 1_545 S
C622 H626 0.930 . S
C623 C622 1.369 . S
C623 C632 1.429 . S
C624 C622 1.419 1_565 S
C624 C625 1.363 . S
C624 H627 0.929 . S
C625 C624 1.363 . S
C625 C631 1.428 . S
H626 C622 0.930 . S
H627 C624 0.929 . S
S628 N629 1.613 . S
S628 N630 1.624 . S
N629 S628 1.613 . S
N629 C632 1.350 . S
N630 S628 1.624 . S
N630 C631 1.338 1_545 S
C631 C625 1.428 . S
C631 N630 1.338 1_565 S
C631 C632 1.434 1_565 S
C632 C623 1.429 . S
C632 N629 1.350 . S
C632 C631 1.434 1_545 S
C633 C634 1.369 1_565 S
C633 C635 1.419 1_556 S
C633 H637 0.930 . S
C634 C633 1.369 1_545 S
C634 C643 1.429 . S
C635 C633 1.419 1_554 S
C635 C636 1.363 . S
C635 H638 0.929 . S
C636 C635 1.363 . S
C636 C642 1.428 1_565 S
H637 C633 0.930 . S
H638 C635 0.929 . S
S639 N640 1.613 1_554 S
S639 N641 1.610 . S
N640 S639 1.613 1_556 S
N640 C643 1.350 . S
N641 S639 1.610 . S
N641 C642 1.351 . S
C642 C636 1.428 1_545 S
C642 N641 1.351 . S
C642 C643 1.434 1_554 S
C643 C634 1.429 . S
C643 N640 1.350 . S
C643 C642 1.434 1_556 S
C644 C645 1.369 . S
C644 C646 1.419 1_656 S
C644 H648 0.930 . S
C645 C644 1.369 . S
C645 C654 1.450 . S
C646 C644 1.419 1_454 S
C646 C647 1.363 . S
C646 H649 0.929 . S
C647 C646 1.363 . S
C647 C653 1.428 . S
H648 C644 0.930 . S
H649 C646 0.929 . S
S650 N651 1.617 . S
S650 N652 1.611 1_655 S
N651 S650 1.617 . S
N651 C654 1.347 1_554 S
N652 S650 1.611 1_455 S
N652 C653 1.351 . S
C653 C647 1.428 . S
C653 N652 1.351 . S
C653 C654 1.412 1_454 S
C654 C645 1.450 . S
C654 N651 1.347 1_556 S
C654 C653 1.412 1_656 S
C655 C656 1.369 . S
C655 C657 1.419 . S
C655 H659 0.930 . S
C656 C655 1.369 . S
C656 C665 1.429 1_556 S
C657 C655 1.419 . S
C657 C658 1.363 1_556 S
C657 H660 0.929 . S
C658 C657 1.363 1_554 S
C658 C664 1.428 . S
H659 C655 0.930 . S
H660 C657 0.929 . S
S661 N662 1.613 . S
S661 N663 1.610 . S
N662 S661 1.613 . S
N662 C665 1.350 . S
N663 S661 1.610 . S
N663 C664 1.351 . S
C664 C658 1.428 . S
C664 N663 1.351 . S
C664 C665 1.434 . S
C665 C656 1.429 1_554 S
C665 N662 1.350 . S
C665 C664 1.434 . S
C666 C667 1.369 . S
C666 C668 1.419 . S
C666 H670 0.930 . S
C667 C666 1.369 . S
C667 C676 1.429 1_556 S
C668 C666 1.419 . S
C668 C669 1.363 1_556 S
C668 H671 0.929 . S
C669 C668 1.363 1_554 S
C669 C675 1.428 . S
H670 C666 0.930 . S
H671 C668 0.929 . S
S672 N673 1.613 1_545 S
S672 N674 1.610 . S
N673 S672 1.613 1_565 S
N673 C676 1.350 1_565 S
N674 S672 1.610 . S
N674 C675 1.351 . S
C675 C669 1.428 . S
C675 N674 1.351 . S
C675 C676 1.434 . S
C676 C667 1.429 1_554 S
C676 N673 1.350 1_545 S
C676 C675 1.434 . S
C677 C678 1.369 1_554 S
C677 C679 1.419 . S
C677 H681 0.930 . S
C678 C677 1.369 1_556 S
C678 C687 1.429 . S
C679 C677 1.419 . S
C679 C680 1.363 . S
C679 H682 0.929 . S
C680 C679 1.363 . S
C680 C686 1.428 1_554 S
H681 C677 0.930 . S
H682 C679 0.929 . S
S683 N684 1.613 . S
S683 N685 1.610 . S
N684 S683 1.613 . S
N684 C687 1.350 . S
N685 S683 1.610 . S
N685 C686 1.351 . S
C686 C680 1.428 1_556 S
C686 N685 1.351 . S
C686 C687 1.434 . S
C687 C678 1.429 . S
C687 N684 1.350 . S
C687 C686 1.434 . S
C688 C689 1.369 . S
C688 C690 1.419 1_554 S
C688 H692 0.930 1_554 S
C689 C688 1.369 . S
C689 C698 1.429 . S
C690 C688 1.419 1_556 S
C690 C691 1.363 . S
C690 H693 0.929 . S
C691 C690 1.363 . S
C691 C697 1.428 1_556 S
H692 C688 0.930 1_556 S
H693 C690 0.929 . S
S694 N695 1.613 . S
S694 N696 1.610 . S
N695 S694 1.613 . S
N695 C698 1.350 . S
N696 S694 1.610 . S
N696 C697 1.351 . S
C697 C691 1.428 1_554 S
C697 N696 1.351 . S
C697 C698 1.434 . S
C698 C689 1.429 . S
C698 N695 1.350 . S
C698 C697 1.434 . S
C699 C700 1.369 . S
C699 C701 1.419 . S
C699 H703 0.930 . S
C700 C699 1.369 . S
C700 C709 1.429 . S
C701 C699 1.419 . S
C701 C702 1.363 . S
C701 H704 0.929 . S
C702 C701 1.363 . S
C702 C708 1.428 . S
H703 C699 0.930 . S
H704 C701 0.929 . S
S705 N706 1.613 . S
S705 N707 1.610 . S
N706 S705 1.613 . S
N706 C709 1.350 . S
N707 S705 1.610 . S
N707 C708 1.351 . S
C708 C702 1.428 . S
C708 N707 1.351 . S
C708 C709 1.434 . S
C709 C700 1.429 . S
C709 N706 1.350 . S
C709 C708 1.434 . S
C710 C711 1.369 . S
C710 C712 1.419 . S
C710 H714 0.930 . S
C711 C710 1.369 . S
C711 C720 1.429 . S
C712 C710 1.419 . S
C712 C713 1.363 . S
C712 H715 0.929 . S
C713 C712 1.363 . S
C713 C719 1.428 . S
H714 C710 0.930 . S
H715 C712 0.929 . S
S716 N717 1.613 . S
S716 N718 1.610 . S
N717 S716 1.613 . S
N717 C720 1.350 . S
N718 S716 1.610 . S
N718 C719 1.351 . S
C719 C713 1.428 . S
C719 N718 1.351 . S
C719 C720 1.434 . S
C720 C711 1.429 . S
C720 N717 1.350 . S
C720 C719 1.434 . S
C721 C722 1.369 . S
C721 C723 1.419 . S
C721 H725 0.930 . S
C722 C721 1.369 . S
C722 C731 1.429 . S
C723 C721 1.419 . S
C723 C724 1.363 . S
C723 H726 0.929 . S
C724 C723 1.363 . S
C724 C730 1.428 . S
H725 C721 0.930 . S
H726 C723 0.929 . S
S727 N728 1.613 . S
S727 N729 1.610 . S
N728 S727 1.613 . S
N728 C731 1.350 . S
N729 S727 1.610 . S
N729 C730 1.351 . S
C730 C724 1.428 . S
C730 N729 1.351 . S
C730 C731 1.434 . S
C731 C722 1.429 . S
C731 N728 1.350 . S
C731 C730 1.434 . S
C732 C733 1.369 . S
C732 C734 1.419 . S
C732 H736 0.930 . S
C733 C732 1.369 . S
C733 C742 1.429 . S
C734 C732 1.419 . S
C734 C735 1.363 1_556 S
C734 H737 0.929 . S
C735 C734 1.363 1_554 S
C735 C741 1.428 . S
H736 C732 0.930 . S
H737 C734 0.929 . S
S738 N739 1.613 . S
S738 N740 1.610 . S
N739 S738 1.613 . S
N739 C742 1.350 1_554 S
N740 S738 1.610 . S
N740 C741 1.351 . S
C741 C735 1.428 . S
C741 N740 1.351 . S
C741 C742 1.434 1_554 S
C742 C733 1.429 . S
C742 N739 1.350 1_556 S
C742 C741 1.434 1_556 S
C743 C744 1.369 . S
C743 C745 1.419 . S
C743 H747 0.930 . S
C744 C743 1.369 . S
C744 C753 1.429 . S
C745 C743 1.419 . S
C745 C746 1.363 1_556 S
C745 H748 0.929 1_556 S
C746 C745 1.363 1_554 S
C746 C752 1.423 1_554 S
H747 C743 0.930 . S
H748 C745 0.929 1_554 S
S749 N750 1.613 . S
S749 N751 1.610 1_556 S
N750 S749 1.613 . S
N750 C753 1.350 . S
N751 S749 1.610 1_554 S
N751 C752 1.346 1_554 S
C752 C746 1.423 1_556 S
C752 N751 1.346 1_556 S
C752 C753 1.445 . S
C753 C744 1.429 . S
C753 N750 1.350 . S
C753 C752 1.445 . S
C754 C755 1.369 . S
C754 C756 1.419 1_556 S
C754 H758 0.930 1_556 S
C755 C754 1.369 . S
C755 C764 1.429 . S
C756 C754 1.419 1_554 S
C756 C757 1.363 . S
C756 H759 0.929 . S
C757 C756 1.363 . S
C757 C763 1.428 1_554 S
H758 C754 0.930 1_554 S
H759 C756 0.929 . S
S760 N761 1.613 . S
S760 N762 1.610 . S
N761 S760 1.613 . S
N761 C764 1.350 . S
N762 S760 1.610 . S
N762 C763 1.351 . S
C763 C757 1.428 1_556 S
C763 N762 1.351 . S
C763 C764 1.434 . S
C764 C755 1.429 . S
C764 N761 1.350 . S
C764 C763 1.434 . S
C765 C766 1.369 . S
C765 C767 1.419 . S
C765 H769 0.930 . S
C766 C765 1.369 . S
C766 C775 1.429 . S
C767 C765 1.419 . S
C767 C768 1.363 . S
C767 H770 0.929 . S
C768 C767 1.363 . S
C768 C774 1.428 . S
H769 C765 0.930 . S
H770 C767 0.929 . S
S771 N772 1.613 . S
S771 N773 1.610 . S
N772 S771 1.613 . S
N772 C775 1.350 . S
N773 S771 1.610 . S
N773 C774 1.351 . S
C774 C768 1.428 . S
C774 N773 1.351 . S
C774 C775 1.434 . S
C775 C766 1.429 . S
C775 N772 1.350 . S
C775 C774 1.434 . S
C776 C777 1.369 . S
C776 C778 1.419 . S
C776 H780 0.930 . S
C777 C776 1.369 . S
C777 C786 1.429 . S
C778 C776 1.419 . S
C778 C779 1.363 . S
C778 H781 0.929 . S
C779 C778 1.363 . S
C779 C785 1.428 . S
H780 C776 0.930 . S
H781 C778 0.929 . S
S782 N783 1.613 . S
S782 N784 1.610 . S
N783 S782 1.613 . S
N783 C786 1.350 . S
N784 S782 1.610 . S
N784 C785 1.351 . S
C785 C779 1.428 . S
C785 N784 1.351 . S
C785 C786 1.434 . S
C786 C777 1.429 . S
C786 N783 1.350 . S
C786 C785 1.434 . S
C787 C788 1.369 . S
C787 C789 1.419 . S
C787 H791 0.930 . S
C788 C787 1.369 . S
C788 C797 1.429 . S
C789 C787 1.419 . S
C789 C790 1.363 . S
C789 H792 0.929 . S
C790 C789 1.363 . S
C790 C796 1.428 . S
H791 C787 0.930 . S
H792 C789 0.929 . S
S793 N794 1.613 . S
S793 N795 1.610 1_565 S
N794 S793 1.613 . S
N794 C797 1.350 1_565 S
N795 S793 1.610 1_545 S
N795 C796 1.351 . S
C796 C790 1.428 . S
C796 N795 1.351 . S
C796 C797 1.434 . S
C797 C788 1.429 . S
C797 N794 1.350 1_545 S
C797 C796 1.434 . S
C798 C799 1.369 . S
C798 C800 1.419 . S
C798 H802 0.930 . S
C799 C798 1.369 . S
C799 C808 1.429 . S
C800 C798 1.419 . S
C800 C801 1.363 . S
C800 H803 0.929 . S
C801 C800 1.363 . S
C801 C807 1.428 . S
H802 C798 0.930 . S
H803 C800 0.929 . S
S804 N805 1.613 . S
S804 N806 1.610 . S
N805 S804 1.613 . S
N805 C808 1.350 . S
N806 S804 1.610 . S
N806 C807 1.351 . S
C807 C801 1.428 . S
C807 N806 1.351 . S
C807 C808 1.434 . S
C808 C799 1.429 . S
C808 N805 1.350 . S
C808 C807 1.434 . S
C809 C810 1.369 . S
C809 C811 1.419 . S
C809 H813 0.930 . S
C810 C809 1.369 . S
C810 C819 1.429 . S
C811 C809 1.419 . S
C811 C812 1.363 . S
C811 H814 0.929 . S
C812 C811 1.363 . S
C812 C818 1.428 . S
H813 C809 0.930 . S
H814 C811 0.929 . S
S815 N816 1.613 . S
S815 N817 1.610 . S
N816 S815 1.613 . S
N816 C819 1.350 . S
N817 S815 1.610 . S
N817 C818 1.351 . S
C818 C812 1.428 . S
C818 N817 1.351 . S
C818 C819 1.434 . S
C819 C810 1.429 . S
C819 N816 1.350 . S
C819 C818 1.434 . S
C820 C821 1.369 . S
C820 C822 1.419 . S
C820 H824 0.930 . S
C821 C820 1.369 . S
C821 C830 1.429 . S
C822 C820 1.419 . S
C822 C823 1.363 . S
C822 H825 0.929 . S
C823 C822 1.363 . S
C823 C829 1.428 . S
H824 C820 0.930 . S
H825 C822 0.929 . S
S826 N827 1.613 . S
S826 N828 1.610 . S
N827 S826 1.613 . S
N827 C830 1.350 . S
N828 S826 1.610 . S
N828 C829 1.351 . S
C829 C823 1.428 . S
C829 N828 1.351 . S
C829 C830 1.434 . S
C830 C821 1.429 . S
C830 N827 1.350 . S
C830 C829 1.434 . S
C831 C832 1.369 . S
C831 C833 1.419 . S
C831 H835 0.930 . S
C832 C831 1.369 . S
C832 C841 1.429 . S
C833 C831 1.419 . S
C833 C834 1.363 . S
C833 H836 0.929 . S
C834 C833 1.363 . S
C834 C840 1.428 . S
H835 C831 0.930 . S
H836 C833 0.929 . S
S837 N838 1.613 . S
S837 N839 1.610 . S
N838 S837 1.613 . S
N838 C841 1.350 . S
N839 S837 1.610 . S
N839 C840 1.351 . S
C840 C834 1.428 . S
C840 N839 1.351 . S
C840 C841 1.434 . S
C841 C832 1.429 . S
C841 N838 1.350 . S
C841 C840 1.434 . S
C842 C843 1.369 . S
C842 C844 1.419 . S
C842 H846 0.930 . S
C843 C842 1.369 . S
C843 C852 1.429 . S
C844 C842 1.419 . S
C844 C845 1.363 . S
C844 H847 0.929 . S
C845 C844 1.363 . S
C845 C851 1.428 . S
H846 C842 0.930 . S
H847 C844 0.929 . S
S848 N849 1.613 . S
S848 N850 1.610 . S
N849 S848 1.613 . S
N849 C852 1.350 . S
N850 S848 1.610 . S
N850 C851 1.351 . S
C851 C845 1.428 . S
C851 N850 1.351 . S
C851 C852 1.434 . S
C852 C843 1.429 . S
C852 N849 1.350 . S
C852 C851 1.434 . S
C853 C854 1.369 . S
C853 C855 1.419 . S
C853 H857 0.930 . S
C854 C853 1.369 . S
C854 C863 1.429 . S
C855 C853 1.419 . S
C855 C856 1.363 . S
C855 H858 0.929 . S
C856 C855 1.363 . S
C856 C862 1.428 . S
H857 C853 0.930 . S
H858 C855 0.929 . S
S859 N860 1.613 . S
S859 N861 1.610 . S
N860 S859 1.613 . S
N860 C863 1.350 . S
N861 S859 1.610 . S
N861 C862 1.351 . S
C862 C856 1.428 . S
C862 N861 1.351 . S
C862 C863 1.434 . S
C863 C854 1.429 . S
C863 N860 1.350 . S
C863 C862 1.434 . S
C864 C865 1.369 . S
C864 C866 1.419 . S
C864 H868 0.930 . S
C865 C864 1.369 . S
C865 C874 1.429 . S
C866 C864 1.419 . S
C866 C867 1.363 . S
C866 H869 0.929 . S
C867 C866 1.363 . S
C867 C873 1.428 . S
H868 C864 0.930 . S
H869 C866 0.929 . S
S870 N871 1.613 . S
S870 N872 1.610 . S
N871 S870 1.613 . S
N871 C874 1.350 . S
N872 S870 1.610 . S
N872 C873 1.351 . S
C873 C867 1.428 . S
C873 N872 1.351 . S
C873 C874 1.434 . S
C874 C865 1.429 . S
C874 N871 1.350 . S
C874 C873 1.434 . S
C875 C876 1.369 . S
C875 C877 1.419 . S
C875 H879 0.930 . S
C876 C875 1.369 . S
C876 C885 1.429 . S
C877 C875 1.419 . S
C877 C878 1.363 . S
C877 H880 0.929 . S
C878 C877 1.363 . S
C878 C884 1.428 . S
H879 C875 0.930 . S
H880 C877 0.929 . S
S881 N882 1.613 . S
S881 N883 1.610 . S
N882 S881 1.613 . S
N882 C885 1.350 . S
N883 S881 1.610 . S
N883 C884 1.351 . S
C884 C878 1.428 . S
C884 N883 1.351 . S
C884 C885 1.434 . S
C885 C876 1.429 . S
C885 N882 1.350 . S
C885 C884 1.434 . S
C886 C887 1.369 . S
C886 C888 1.419 . S
C886 H890 0.930 . S
C887 C886 1.369 . S
C887 C896 1.429 . S
C888 C886 1.419 . S
C888 C889 1.363 . S
C888 H891 0.929 . S
C889 C888 1.363 . S
C889 C895 1.428 . S
H890 C886 0.930 . S
H891 C888 0.929 . S
S892 N893 1.613 . S
S892 N894 1.610 . S
N893 S892 1.613 . S
N893 C896 1.350 . S
N894 S892 1.610 . S
N894 C895 1.351 . S
C895 C889 1.428 . S
C895 N894 1.351 . S
C895 C896 1.434 . S
C896 C887 1.429 . S
C896 N893 1.350 . S
C896 C895 1.434 . S
C897 C898 1.369 . S
C897 C899 1.419 . S
C897 H901 0.930 . S
C898 C897 1.369 . S
C898 C907 1.429 . S
C899 C897 1.419 . S
C899 C900 1.363 . S
C899 H902 0.929 . S
C900 C899 1.363 . S
C900 C906 1.428 . S
H901 C897 0.930 . S
H902 C899 0.929 . S
S903 N904 1.613 . S
S903 N905 1.610 . S
N904 S903 1.613 . S
N904 C907 1.350 . S
N905 S903 1.610 . S
N905 C906 1.351 . S
C906 C900 1.428 . S
C906 N905 1.351 . S
C906 C907 1.434 . S
C907 C898 1.429 . S
C907 N904 1.350 . S
C907 C906 1.434 . S
C908 C909 1.369 . S
C908 C910 1.419 . S
C908 H912 0.930 . S
C909 C908 1.369 . S
C909 C918 1.429 . S
C910 C908 1.419 . S
C910 C911 1.363 . S
C910 H913 0.929 . S
C911 C910 1.363 . S
C911 C917 1.428 . S
H912 C908 0.930 . S
H913 C910 0.929 . S
S914 N915 1.613 . S
S914 N916 1.610 . S
N915 S914 1.613 . S
N915 C918 1.350 . S
N916 S914 1.610 . S
N916 C917 1.351 . S
C917 C911 1.428 . S
C917 N916 1.351 . S
C917 C918 1.434 . S
C918 C909 1.429 . S
C918 N915 1.350 . S
C918 C917 1.434 . S
C919 C920 1.369 . S
C919 C921 1.419 . S
C919 H923 0.930 . S
C920 C919 1.369 . S
C920 C929 1.429 . S
C921 C919 1.419 . S
C921 C922 1.363 . S
C921 H924 0.929 . S
C922 C921 1.363 . S
C922 C928 1.428 . S
H923 C919 0.930 . S
H924 C921 0.929 . S
S925 N926 1.613 . S
S925 N927 1.610 . S
N926 S925 1.613 . S
N926 C929 1.350 . S
N927 S925 1.610 . S
N927 C928 1.351 . S
C928 C922 1.428 . S
C928 N927 1.351 . S
C928 C929 1.434 . S
C929 C920 1.429 . S
C929 N926 1.350 . S
C929 C928 1.434 . S
C930 C931 1.369 . S
C930 C932 1.419 . S
C930 H934 0.930 . S
C931 C930 1.369 . S
C931 C940 1.429 . S
C932 C930 1.419 . S
C932 C933 1.363 . S
C932 H935 0.929 . S
C933 C932 1.363 . S
C933 C939 1.428 . S
H934 C930 0.930 . S
H935 C932 0.929 . S
S936 N937 1.613 . S
S936 N938 1.610 . S
N937 S936 1.613 . S
N937 C940 1.350 . S
N938 S936 1.610 . S
N938 C939 1.351 . S
C939 C933 1.428 . S
C939 N938 1.351 . S
C939 C940 1.434 . S
C940 C931 1.429 . S
C940 N937 1.350 . S
C940 C939 1.434 . S
C941 C942 1.369 . S
C941 C943 1.419 . S
C941 H945 0.930 . S
C942 C941 1.369 . S
C942 C951 1.429 . S
C943 C941 1.419 . S
C943 C944 1.363 . S
C943 H946 0.929 . S
C944 C943 1.363 . S
C944 C950 1.428 . S
H945 C941 0.930 . S
H946 C943 0.929 . S
S947 N948 1.613 . S
S947 N949 1.610 . S
N948 S947 1.613 . S
N948 C951 1.350 . S
N949 S947 1.610 . S
N949 C950 1.351 . S
C950 C944 1.428 . S
C950 N949 1.351 . S
C950 C951 1.434 . S
C951 C942 1.429 . S
C951 N948 1.350 . S
C951 C950 1.434 . S
C952 C953 1.369 . S
C952 C954 1.419 . S
C952 H956 0.930 . S
C953 C952 1.369 . S
C953 C962 1.429 . S
C954 C952 1.419 . S
C954 C955 1.363 . S
C954 H957 0.929 . S
C955 C954 1.363 . S
C955 C961 1.428 . S
H956 C952 0.930 . S
H957 C954 0.929 . S
S958 N959 1.613 . S
S958 N960 1.610 . S
N959 S958 1.613 . S
N959 C962 1.350 . S
N960 S958 1.610 . S
N960 C961 1.351 . S
C961 C955 1.428 . S
C961 N960 1.351 . S
C961 C962 1.434 . S
C962 C953 1.429 . S
C962 N959 1.350 . S
C962 C961 1.434 . S
C963 C964 1.369 . S
C963 C965 1.419 . S
C963 H967 0.930 . S
C964 C963 1.369 . S
C964 C973 1.429 . S
C965 C963 1.419 . S
C965 C966 1.363 . S
C965 H968 0.929 . S
C966 C965 1.363 . S
C966 C972 1.428 . S
H967 C963 0.930 . S
H968 C965 0.929 . S
S969 N970 1.613 . S
S969 N971 1.610 . S
N970 S969 1.613 . S
N970 C973 1.350 . S
N971 S969 1.610 . S
N971 C972 1.351 . S
C972 C966 1.428 . S
C972 N971 1.351 . S
C972 C973 1.434 . S
C973 C964 1.429 . S
C973 N970 1.350 . S
C973 C972 1.434 . S
C974 C975 1.369 . S
C974 C976 1.419 . S
C974 H978 0.930 . S
C975 C974 1.369 . S
C975 C984 1.429 . S
C976 C974 1.419 . S
C976 C977 1.363 . S
C976 H979 0.929 . S
C977 C976 1.363 . S
C977 C983 1.428 . S
H978 C974 0.930 . S
H979 C976 0.929 . S
S980 N981 1.613 . S
S980 N982 1.610 . S
N981 S980 1.613 . S
N981 C984 1.350 . S
N982 S980 1.610 . S
N982 C983 1.351 . S
C983 C977 1.428 . S
C983 N982 1.351 . S
C983 C984 1.434 . S
C984 C975 1.429 . S
C984 N981 1.350 . S
C984 C983 1.434 . S
C985 C986 1.369 . S
C985 C987 1.419 . S
C985 H989 0.930 . S
C986 C985 1.369 . S
C986 C995 1.429 . S
C987 C985 1.419 . S
C987 C988 1.363 . S
C987 H990 0.929 . S
C988 C987 1.363 . S
C988 C994 1.428 . S
H989 C985 0.930 . S
H990 C987 0.929 . S
S991 N992 1.613 . S
S991 N993 1.610 . S
N992 S991 1.613 . S
N992 C995 1.350 . S
N993 S991 1.610 . S
N993 C994 1.351 . S
C994 C988 1.428 . S
C994 N993 1.351 . S
C994 C995 1.434 . S
C995 C986 1.429 . S
C995 N992 1.350 . S
C995 C994 1.434 . S
C996 C997 1.369 . S
C996 C998 1.419 . S
C996 H1000 0.930 . S
C997 C996 1.369 . S
C997 C1006 1.429 . S
C998 C996 1.419 . S
C998 C999 1.363 . S
C998 H1001 0.929 . S
C999 C998 1.363 . S
C999 C1005 1.428 . S
H1000 C996 0.930 . S
H1001 C998 0.929 . S
S1002 N1003 1.613 . S
S1002 N1004 1.610 . S
N1003 S1002 1.613 . S
N1003 C1006 1.350 . S
N1004 S1002 1.610 . S
N1004 C1005 1.351 . S
C1005 C999 1.428 . S
C1005 N1004 1.351 . S
C1005 C1006 1.434 . S
C1006 C997 1.429 . S
C1006 N1003 1.350 . S
C1006 C1005 1.434 . S
C1007 C1008 1.369 . S
C1007 C1009 1.419 . S
C1007 H1011 0.930 . S
C1008 C1007 1.369 . S
C1008 C1017 1.429 . S
C1009 C1007 1.419 . S
C1009 C1010 1.363 . S
C1009 H1012 0.929 . S
C1010 C1009 1.363 . S
C1010 C1016 1.428 . S
H1011 C1007 0.930 . S
H1012 C1009 0.929 . S
S1013 N1014 1.613 . S
S1013 N1015 1.610 . S
N1014 S1013 1.613 . S
N1014 C1017 1.350 . S
N1015 S1013 1.610 . S
N1015 C1016 1.351 . S
C1016 C1010 1.428 . S
C1016 N1015 1.351 . S
C1016 C1017 1.434 . S
C1017 C1008 1.429 . S
C1017 N1014 1.350 . S
C1017 C1016 1.434 . S
C1018 C1019 1.369 . S
C1018 C1020 1.419 . S
C1018 H1022 0.930 . S
C1019 C1018 1.369 . S
C1019 C1028 1.429 . S
C1020 C1018 1.419 . S
C1020 C1021 1.363 . S
C1020 H1023 0.929 . S
C1021 C1020 1.363 . S
C1021 C1027 1.428 . S
H1022 C1018 0.930 . S
H1023 C1020 0.929 . S
S1024 N1025 1.613 . S
S1024 N1026 1.610 . S
N1025 S1024 1.613 . S
N1025 C1028 1.350 . S
N1026 S1024 1.610 . S
N1026 C1027 1.351 . S
C1027 C1021 1.428 . S
C1027 N1026 1.351 . S
C1027 C1028 1.434 . S
C1028 C1019 1.429 . S
C1028 N1025 1.350 . S
C1028 C1027 1.434 . S
C1029 C1030 1.369 . S
C1029 C1031 1.419 . S
C1029 H1033 0.930 . S
C1030 C1029 1.369 . S
C1030 C1039 1.429 . S
C1031 C1029 1.419 . S
C1031 C1032 1.363 . S
C1031 H1034 0.929 . S
C1032 C1031 1.363 . S
C1032 C1038 1.428 . S
H1033 C1029 0.930 . S
H1034 C1031 0.929 . S
S1035 N1036 1.613 . S
S1035 N1037 1.610 . S
N1036 S1035 1.613 . S
N1036 C1039 1.350 . S
N1037 S1035 1.610 . S
N1037 C1038 1.351 . S
C1038 C1032 1.428 . S
C1038 N1037 1.351 . S
C1038 C1039 1.434 . S
C1039 C1030 1.429 . S
C1039 N1036 1.350 . S
C1039 C1038 1.434 . S
C1040 C1041 1.369 . S
C1040 C1042 1.419 . S
C1040 H1044 0.930 . S
C1041 C1040 1.369 . S
C1041 C1050 1.429 . S
C1042 C1040 1.419 . S
C1042 C1043 1.363 . S
C1042 H1045 0.929 . S
C1043 C1042 1.363 . S
C1043 C1049 1.428 . S
H1044 C1040 0.930 . S
H1045 C1042 0.929 . S
S1046 N1047 1.613 . S
S1046 N1048 1.610 . S
N1047 S1046 1.613 . S
N1047 C1050 1.350 . S
N1048 S1046 1.610 . S
N1048 C1049 1.351 . S
C1049 C1043 1.428 . S
C1049 N1048 1.351 . S
C1049 C1050 1.434 . S
C1050 C1041 1.429 . S
C1050 N1047 1.350 . S
C1050 C1049 1.434 . S
C1051 C1052 1.369 . S
C1051 C1053 1.419 . S
C1051 H1055 0.930 . S
C1052 C1051 1.369 . S
C1052 C1061 1.429 . S
C1053 C1051 1.419 . S
C1053 C1054 1.363 . S
C1053 H1056 0.929 . S
C1054 C1053 1.363 . S
C1054 C1060 1.428 . S
H1055 C1051 0.930 . S
H1056 C1053 0.929 . S
S1057 N1058 1.613 . S
S1057 N1059 1.610 . S
N1058 S1057 1.613 . S
N1058 C1061 1.350 . S
N1059 S1057 1.610 . S
N1059 C1060 1.351 . S
C1060 C1054 1.428 . S
C1060 N1059 1.351 . S
C1060 C1061 1.434 . S
C1061 C1052 1.429 . S
C1061 N1058 1.350 . S
C1061 C1060 1.434 . S
C1062 C1063 1.369 . S
C1062 C1064 1.419 . S
C1062 H1066 0.930 . S
C1063 C1062 1.369 . S
C1063 C1072 1.429 . S
C1064 C1062 1.419 . S
C1064 C1065 1.363 . S
C1064 H1067 0.929 . S
C1065 C1064 1.363 . S
C1065 C1071 1.428 . S
H1066 C1062 0.930 . S
H1067 C1064 0.929 . S
S1068 N1069 1.613 . S
S1068 N1070 1.610 . S
N1069 S1068 1.613 . S
N1069 C1072 1.350 . S
N1070 S1068 1.610 . S
N1070 C1071 1.351 . S
C1071 C1065 1.428 . S
C1071 N1070 1.351 . S
C1071 C1072 1.434 . S
C1072 C1063 1.429 . S
C1072 N1069 1.350 . S
C1072 C1071 1.434 . S
C1073 C1074 1.369 . S
C1073 C1075 1.419 . S
C1073 H1077 0.930 . S
C1074 C1073 1.369 . S
C1074 C1083 1.429 . S
C1075 C1073 1.419 . S
C1075 C1076 1.363 . S
C1075 H1078 0.929 . S
C1076 C1075 1.363 . S
C1076 C1082 1.428 1_565 S
H1077 C1073 0.930 . S
H1078 C1075 0.929 . S
S1079 N1080 1.613 1_545 S
S1079 N1081 1.610 . S
N1080 S1079 1.613 1_565 S
N1080 C1083 1.350 . S
N1081 S1079 1.610 . S
N1081 C1082 1.351 . S
C1082 C1076 1.428 1_545 S
C1082 N1081 1.351 . S
C1082 C1083 1.434 1_545 S
C1083 C1074 1.429 . S
C1083 N1080 1.350 . S
C1083 C1082 1.434 1_565 S
C1084 C1085 1.369 1_655 S
C1084 C1086 1.419 1_655 S
C1084 H1088 0.930 . S
C1085 C1084 1.369 1_455 S
C1085 C1094 1.429 . S
C1086 C1084 1.419 1_455 S
C1086 C1087 1.363 . S
C1086 H1089 0.929 1_455 S
C1087 C1086 1.363 . S
C1087 C1093 1.428 . S
H1088 C1084 0.930 . S
H1089 C1086 0.929 1_655 S
S1090 N1091 1.613 . S
S1090 N1092 1.610 . S
N1091 S1090 1.613 . S
N1091 C1094 1.350 . S
N1092 S1090 1.610 . S
N1092 C1093 1.351 . S
C1093 C1087 1.428 . S
C1093 N1092 1.351 . S
C1093 C1094 1.434 . S
C1094 C1085 1.429 . S
C1094 N1091 1.350 . S
C1094 C1093 1.434 . S
C1095 C1096 1.369 . S
C1095 C1097 1.419 . S
C1095 H1099 0.930 . S
C1096 C1095 1.369 . S
C1096 C1105 1.429 . S
C1097 C1095 1.419 . S
C1097 C1098 1.363 . S
C1097 H1100 0.929 . S
C1098 C1097 1.363 . S
C1098 C1104 1.428 . S
H1099 C1095 0.930 . S
H1100 C1097 0.929 . S
S1101 N1102 1.613 . S
S1101 N1103 1.610 . S
N1102 S1101 1.613 . S
N1102 C1105 1.350 . S
N1103 S1101 1.610 . S
N1103 C1104 1.351 . S
C1104 C1098 1.428 . S
C1104 N1103 1.351 . S
C1104 C1105 1.434 . S
C1105 C1096 1.429 . S
C1105 N1102 1.350 . S
C1105 C1104 1.434 . S
C1106 C1107 1.369 . S
C1106 C1108 1.419 . S
C1106 H1110 0.930 . S
C1107 C1106 1.369 . S
C1107 C1116 1.429 . S
C1108 C1106 1.419 . S
C1108 C1109 1.363 . S
C1108 H1111 0.929 . S
C1109 C1108 1.363 . S
C1109 C1115 1.428 1_545 S
H1110 C1106 0.930 . S
H1111 C1108 0.929 . S
S1112 N1113 1.613 . S
S1112 N1114 1.610 . S
N1113 S1112 1.613 . S
N1113 C1116 1.350 1_565 S
N1114 S1112 1.610 . S
N1114 C1115 1.351 . S
C1115 C1109 1.428 1_565 S
C1115 N1114 1.351 . S
C1115 C1116 1.434 1_565 S
C1116 C1107 1.429 . S
C1116 N1113 1.350 1_545 S
C1116 C1115 1.434 1_545 S
C1117 C1118 1.369 . S
C1117 C1119 1.419 . S
C1117 H1121 0.930 . S
C1118 C1117 1.369 . S
C1118 C1127 1.429 1_655 S
C1119 C1117 1.419 . S
C1119 C1120 1.363 . S
C1119 H1122 0.929 . S
C1120 C1119 1.363 . S
C1120 C1126 1.428 . S
H1121 C1117 0.930 . S
H1122 C1119 0.929 . S
S1123 N1124 1.613 . S
S1123 N1125 1.610 1_455 S
N1124 S1123 1.613 . S
N1124 C1127 1.350 . S
N1125 S1123 1.610 1_655 S
N1125 C1126 1.351 . S
C1126 C1120 1.428 . S
C1126 N1125 1.351 . S
C1126 C1127 1.434 1_655 S
C1127 C1118 1.429 1_455 S
C1127 N1124 1.350 . S
C1127 C1126 1.434 1_455 S
C1128 C1129 1.369 . S
C1128 C1130 1.419 . S
C1128 H1132 0.930 . S
C1129 C1128 1.369 . S
C1129 C1138 1.429 . S
C1130 C1128 1.419 . S
C1130 C1131 1.363 . S
C1130 H1133 0.929 . S
C1131 C1130 1.363 . S
C1131 C1137 1.428 . S
H1132 C1128 0.930 . S
H1133 C1130 0.929 . S
S1134 N1135 1.613 . S
S1134 N1136 1.610 . S
N1135 S1134 1.613 . S
N1135 C1138 1.350 . S
N1136 S1134 1.610 . S
N1136 C1137 1.351 . S
C1137 C1131 1.428 . S
C1137 N1136 1.351 . S
C1137 C1138 1.434 . S
C1138 C1129 1.429 . S
C1138 N1135 1.350 . S
C1138 C1137 1.434 . S
C1139 C1140 1.369 . S
C1139 C1141 1.419 . S
C1139 H1143 0.930 . S
C1140 C1139 1.369 . S
C1140 C1149 1.429 1_545 S
C1141 C1139 1.419 . S
C1141 C1142 1.363 . S
C1141 H1144 0.929 . S
C1142 C1141 1.363 . S
C1142 C1148 1.428 . S
H1143 C1139 0.930 . S
H1144 C1141 0.929 . S
S1145 N1146 1.613 . S
S1145 N1147 1.610 . S
N1146 S1145 1.613 . S
N1146 C1149 1.350 . S
N1147 S1145 1.610 . S
N1147 C1148 1.351 1_565 S
C1148 C1142 1.428 . S
C1148 N1147 1.351 1_545 S
C1148 C1149 1.434 1_545 S
C1149 C1140 1.429 1_565 S
C1149 N1146 1.350 . S
C1149 C1148 1.434 1_565 S
C1150 C1151 1.369 . S
C1150 C1152 1.419 . S
C1150 H1154 0.917 1_655 S
C1151 C1150 1.369 . S
C1151 C1160 1.429 . S
C1152 C1150 1.419 . S
C1152 C1153 1.363 . S
C1152 H1155 0.929 . S
C1153 C1152 1.363 . S
C1153 C1159 1.428 . S
H1154 C1150 0.917 1_455 S
H1155 C1152 0.929 . S
S1156 N1157 1.613 . S
S1156 N1158 1.610 . S
N1157 S1156 1.613 . S
N1157 C1160 1.350 . S
N1158 S1156 1.610 . S
N1158 C1159 1.351 . S
C1159 C1153 1.428 . S
C1159 N1158 1.351 . S
C1159 C1160 1.434 . S
C1160 C1151 1.429 . S
C1160 N1157 1.350 . S
C1160 C1159 1.434 . S
C1161 C1162 1.369 . S
C1161 C1163 1.419 . S
C1161 H1165 0.930 . S
C1162 C1161 1.369 . S
C1162 C1171 1.429 . S
C1163 C1161 1.419 . S
C1163 C1164 1.363 . S
C1163 H1166 0.929 . S
C1164 C1163 1.363 . S
C1164 C1170 1.428 . S
H1165 C1161 0.930 . S
H1166 C1163 0.929 . S
S1167 N1168 1.613 . S
S1167 N1169 1.610 . S
N1168 S1167 1.613 . S
N1168 C1171 1.350 . S
N1169 S1167 1.610 . S
N1169 C1170 1.351 . S
C1170 C1164 1.428 . S
C1170 N1169 1.351 . S
C1170 C1171 1.434 . S
C1171 C1162 1.429 . S
C1171 N1168 1.350 . S
C1171 C1170 1.434 . S
C1172 C1173 1.369 . S
C1172 C1174 1.419 . S
C1172 H1176 0.930 1_565 S
C1173 C1172 1.369 . S
C1173 C1182 1.429 . S
C1174 C1172 1.419 . S
C1174 C1175 1.363 . S
C1174 H1177 0.929 . S
C1175 C1174 1.363 . S
C1175 C1181 1.428 . S
H1176 C1172 0.930 1_545 S
H1177 C1174 0.929 . S
S1178 N1179 1.613 . S
S1178 N1180 1.610 . S
N1179 S1178 1.613 . S
N1179 C1182 1.350 . S
N1180 S1178 1.610 . S
N1180 C1181 1.351 . S
C1181 C1175 1.428 . S
C1181 N1180 1.351 . S
C1181 C1182 1.434 . S
C1182 C1173 1.429 . S
C1182 N1179 1.350 . S
C1182 C1181 1.434 . S
C1183 C1184 1.369 . S
C1183 C1185 1.419 . S
C1183 H1187 0.930 . S
C1184 C1183 1.369 . S
C1184 C1193 1.429 . S
C1185 C1183 1.419 . S
C1185 C1186 1.363 . S
C1185 H1188 0.929 . S
C1186 C1185 1.363 . S
C1186 C1192 1.428 . S
H1187 C1183 0.930 . S
H1188 C1185 0.929 . S
S1189 N1190 1.613 . S
S1189 N1191 1.610 1_455 S
N1190 S1189 1.613 . S
N1190 C1193 1.350 . S
N1191 S1189 1.610 1_655 S
N1191 C1192 1.351 1_655 S
C1192 C1186 1.428 . S
C1192 N1191 1.351 1_455 S
C1192 C1193 1.434 . S
C1193 C1184 1.429 . S
C1193 N1190 1.350 . S
C1193 C1192 1.434 . S
C1194 C1195 1.369 . S
C1194 C1196 1.419 1_655 S
C1194 H1198 0.930 . S
C1195 C1194 1.369 . S
C1195 C1204 1.429 . S
C1196 C1194 1.419 1_455 S
C1196 C1197 1.363 . S
C1196 H1199 0.929 . S
C1197 C1196 1.363 . S
C1197 C1203 1.428 . S
H1198 C1194 0.930 . S
H1199 C1196 0.929 . S
S1200 N1201 1.613 1_455 S
S1200 N1202 1.610 . S
N1201 S1200 1.613 1_655 S
N1201 C1204 1.350 . S
N1202 S1200 1.610 . S
N1202 C1203 1.351 . S
C1203 C1197 1.428 . S
C1203 N1202 1.351 . S
C1203 C1204 1.434 1_455 S
C1204 C1195 1.429 . S
C1204 N1201 1.350 . S
C1204 C1203 1.434 1_655 S
C1205 C1206 1.369 . S
C1205 C1207 1.419 . S
C1205 H1209 0.930 . S
C1206 C1205 1.369 . S
C1206 C1215 1.429 . S
C1207 C1205 1.419 . S
C1207 C1208 1.363 . S
C1207 H1210 0.929 . S
C1208 C1207 1.363 . S
C1208 C1214 1.428 . S
H1209 C1205 0.930 . S
H1210 C1207 0.929 . S
S1211 N1212 1.613 . S
S1211 N1213 1.610 . S
N1212 S1211 1.613 . S
N1212 C1215 1.350 . S
N1213 S1211 1.610 . S
N1213 C1214 1.351 . S
C1214 C1208 1.428 . S
C1214 N1213 1.351 . S
C1214 C1215 1.434 . S
C1215 C1206 1.429 . S
C1215 N1212 1.350 . S
C1215 C1214 1.434 . S
C1216 C1217 1.369 . S
C1216 C1218 1.419 1_565 S
C1216 H1220 0.930 . S
C1217 C1216 1.369 . S
C1217 C1226 1.429 . S
C1218 C1216 1.419 1_545 S
C1218 C1219 1.363 . S
C1218 H1221 0.929 . S
C1219 C1218 1.363 . S
C1219 C1225 1.428 . S
H1220 C1216 0.930 . S
H1221 C1218 0.929 . S
S1222 N1223 1.613 . S
S1222 N1224 1.610 1_565 S
N1223 S1222 1.613 . S
N1223 C1226 1.350 . S
N1224 S1222 1.610 1_545 S
N1224 C1225 1.351 . S
C1225 C1219 1.428 . S
C1225 N1224 1.351 . S
C1225 C1226 1.434 1_545 S
C1226 C1217 1.429 . S
C1226 N1223 1.350 . S
C1226 C1225 1.434 1_565 S
C1227 C1228 1.369 . S
C1227 C1229 1.419 1_565 S
C1227 H1231 0.930 . S
C1228 C1227 1.369 . S
C1228 C1237 1.429 . S
C1229 C1227 1.419 1_545 S
C1229 C1230 1.363 . S
C1229 H1232 0.929 . S
C1230 C1229 1.363 . S
C1230 C1236 1.428 . S
H1231 C1227 0.930 . S
H1232 C1229 0.929 . S
S1233 N1234 1.613 . S
S1233 N1235 1.610 1_565 S
N1234 S1233 1.613 . S
N1234 C1237 1.350 . S
N1235 S1233 1.610 1_545 S
N1235 C1236 1.351 . S
C1236 C1230 1.428 . S
C1236 N1235 1.351 . S
C1236 C1237 1.434 1_545 S
C1237 C1228 1.429 . S
C1237 N1234 1.350 . S
C1237 C1236 1.434 1_565 S
C1238 C1239 1.369 . S
C1238 C1240 1.419 1_655 S
C1238 H1242 0.930 . S
C1239 C1238 1.369 . S
C1239 C1248 1.429 . S
C1240 C1238 1.419 1_455 S
C1240 C1241 1.363 . S
C1240 H1243 0.929 . S
C1241 C1240 1.363 . S
C1241 C1247 1.428 . S
H1242 C1238 0.930 . S
H1243 C1240 0.929 . S
S1244 N1245 1.613 1_455 S
S1244 N1246 1.610 . S
N1245 S1244 1.613 1_655 S
N1245 C1248 1.350 . S
N1246 S1244 1.610 . S
N1246 C1247 1.351 . S
C1247 C1241 1.428 . S
C1247 N1246 1.351 . S
C1247 C1248 1.434 1_455 S
C1248 C1239 1.429 . S
C1248 N1245 1.350 . S
C1248 C1247 1.434 1_655 S
C1249 C1250 1.369 . S
C1249 C1251 1.419 . S
C1249 H1253 0.930 . S
C1250 C1249 1.369 . S
C1250 C1259 1.429 . S
C1251 C1249 1.419 . S
C1251 C1252 1.363 . S
C1251 H1254 0.929 . S
C1252 C1251 1.363 . S
C1252 C1258 1.428 . S
H1253 C1249 0.930 . S
H1254 C1251 0.929 . S
S1255 N1256 1.613 . S
S1255 N1257 1.610 . S
N1256 S1255 1.613 . S
N1256 C1259 1.350 . S
N1257 S1255 1.610 . S
N1257 C1258 1.351 . S
C1258 C1252 1.428 . S
C1258 N1257 1.351 . S
C1258 C1259 1.434 . S
C1259 C1250 1.429 . S
C1259 N1256 1.350 . S
C1259 C1258 1.434 . S
C469 C5 1.631 . S
C471 C237 1.625 . S
C480 C16 1.670 . S
C482 C252 1.670 . S
C491 C263 1.625 . S
C493 C29 1.670 . S
C502 C42 1.670 . S
C504 C432 1.629 . S
C513 C447 1.670 . S
C515 C55 1.671 . S
C524 C70 1.624 . S
C526 C458 1.630 . S
C535 C317 1.624 . S
C537 C81 1.630 . S
C546 C96 1.671 . S
C548 C328 1.670 . S
C557 C107 1.630 . S
C559 C341 1.671 . S
C568 C120 1.629 . S
C570 C198 1.670 . S
C579 C211 1.670 . S
C581 C135 1.671 . S
C590 C146 1.629 . S
C592 C226 1.627 . S
C601 C161 1.628 . S
C603 C393 1.627 . S
C612 C172 1.670 . S
C614 C408 1.670 . S
C623 C185 1.671 . S
C625 C419 1.628 . S
C634 C276 1.627 . S
C636 C354 1.670 . S
C645 C291 1.670 . S
C647 C367 1.671 . S
C656 C302 1.624 . S
C658 C382 1.630 . S
C667 C101 1.597 1_545 S
C669 C3 1.596 . S
C678 C105 1.584 1_655 S
C680 C18 1.523 . S
C689 C31 1.523 . S
C691 C79 1.588 . S
C700 C144 1.588 1_455 S
C702 C44 1.524 . S
C711 C118 1.586 . S
C713 C57 1.521 . S
C722 C140 1.598 1_565 S
C724 C68 1.596 . S
C733 C83 1.596 . S
C735 C14 1.598 1_565 S
C744 C94 1.528 . S
C746 C27 1.598 1_455 S
C755 C109 1.597 . S
C757 C10 1.587 . S
C766 C122 1.596 . S
C768 C75 1.588 1_655 S
C777 C40 1.598 . S
C779 C133 1.528 . S
C788 C53 1.597 1_545 S
C790 C148 1.596 . S
C799 C159 1.595 . S
C801 C257 1.598 . S
C810 C174 1.522 . S
C812 C261 1.585 . S
C821 C187 1.525 . S
C823 C235 1.588 . S
C832 C300 1.588 . S
C834 C200 1.525 . S
C843 C213 1.527 . S
C845 C274 1.585 . S
C854 C296 1.598 . S
C856 C224 1.595 . S
C865 C239 1.596 . S
C867 C170 1.598 . S
C876 C183 1.597 . S
C878 C250 1.527 . S
C887 C166 1.588 . S
C889 C265 1.595 . S
C898 C278 1.596 . S
C900 C231 1.588 . S
C909 C289 1.527 . S
C911 C196 1.598 . S
C920 C304 1.597 . S
C922 C209 1.598 . S
C931 C413 1.597 . S
C933 C315 1.595 . S
C942 C330 1.520 . S
C944 C417 1.585 . S
C953 C343 1.521 . S
C955 C391 1.587 . S
C964 C456 1.589 . S
C966 C356 1.527 . S
C975 C430 1.585 . S
C977 C369 1.522 . S
C986 C452 1.598 . S
C988 C380 1.596 . S
C997 C326 1.599 . S
C999 C395 1.596 . S
C1008 C339 1.598 . S
C1010 C406 1.529 . S
C1019 C322 1.586 . S
C1021 C421 1.595 . S
C1030 C434 1.596 . S
C1032 C387 1.585 . S
C1041 C352 1.597 . S
C1043 C445 1.521 . S
C1052 C460 1.595 . S
C1054 C365 1.598 . S
C1063 C1 1.766 . S
C1065 C378 1.760 . S
C1074 C361 1.680 . S
C1076 C23 1.685 1_565 S
C1085 C36 1.686 1_455 S
C1087 C374 1.683 . S
C1096 C49 1.678 . S
C1098 C179 1.688 . S
C1107 C192 1.686 . S
C1109 C62 1.680 1_545 S
C1118 C66 1.766 1_655 S
C1120 C157 1.760 . S
C1129 C309 1.759 . S
C1131 C88 1.765 . S
C1140 C92 1.680 1_545 S
C1142 C283 1.764 . S
C1151 C114 1.759 1_655 S
C1153 C287 1.687 . S
C1162 C127 1.762 . S
C1164 C404 1.685 . S
C1173 C131 1.688 1_565 S
C1175 C426 1.760 . S
C1184 C400 1.759 . S
C1186 C153 1.765 1_455 S
C1195 C205 1.688 . S
C1197 C335 1.681 . S
C1206 C348 1.685 . S
C1208 C218 1.683 . S
C1217 C313 1.761 . S
C1219 C222 1.764 . S
C1228 C465 1.761 . S
C1230 C244 1.764 . S
C1239 C248 1.688 . S
C1241 C439 1.761 . S
C1250 C270 1.761 . S
C1252 C443 1.684 . S
