# Generated by pormake.
# Topology wjd, (6)-cn, num edge types: 1
# Building blocks:
#     Node 0, Type 0, BuildingBlock: BETDAH_clean_sbu_0, # of connection points: 6
#     Node 1, Type 0, BuildingBlock: BETDAH_clean_sbu_0, # of connection points: 6
#     Node 2, Type 0, BuildingBlock: BETDAH_clean_sbu_0, # of connection points: 6
#     Node 3, Type 0, BuildingBlock: BETDAH_clean_sbu_0, # of connection points: 6
#     Node 4, Type 0, BuildingBlock: BETDAH_clean_sbu_0, # of connection points: 6
#     Node 5, Type 0, BuildingBlock: BETDAH_clean_sbu_0, # of connection points: 6
#     Node 6, Type 0, BuildingBlock: BETDAH_clean_sbu_0, # of connection points: 6
#     Node 7, Type 0, BuildingBlock: BETDAH_clean_sbu_0, # of connection points: 6
#     Node 8, Type 0, BuildingBlock: BETDAH_clean_sbu_0, # of connection points: 6
#     Node 9, Type 0, BuildingBlock: BETDAH_clean_sbu_0, # of connection points: 6
#     Node 10, Type 0, BuildingBlock: BETDAH_clean_sbu_0, # of connection points: 6
#     Node 11, Type 0, BuildingBlock: BETDAH_clean_sbu_0, # of connection points: 6
#     Edge 12, Type (0, 0), BuildingBlock: CIFDUS_clean_linker_0, # of connection points: 2
#     Edge 13, Type (0, 0), BuildingBlock: CIFDUS_clean_linker_0, # of connection points: 2
#     Edge 14, Type (0, 0), BuildingBlock: CIFDUS_clean_linker_0, # of connection points: 2
#     Edge 15, Type (0, 0), BuildingBlock: CIFDUS_clean_linker_0, # of connection points: 2
#     Edge 16, Type (0, 0), BuildingBlock: CIFDUS_clean_linker_0, # of connection points: 2
#     Edge 17, Type (0, 0), BuildingBlock: CIFDUS_clean_linker_0, # of connection points: 2
#     Edge 18, Type (0, 0), BuildingBlock: CIFDUS_clean_linker_0, # of connection points: 2
#     Edge 19, Type (0, 0), BuildingBlock: CIFDUS_clean_linker_0, # of connection points: 2
#     Edge 20, Type (0, 0), BuildingBlock: CIFDUS_clean_linker_0, # of connection points: 2
#     Edge 21, Type (0, 0), BuildingBlock: CIFDUS_clean_linker_0, # of connection points: 2
#     Edge 22, Type (0, 0), BuildingBlock: CIFDUS_clean_linker_0, # of connection points: 2
#     Edge 23, Type (0, 0), BuildingBlock: CIFDUS_clean_linker_0, # of connection points: 2
#     Edge 24, Type (0, 0), BuildingBlock: CIFDUS_clean_linker_0, # of connection points: 2
#     Edge 25, Type (0, 0), BuildingBlock: CIFDUS_clean_linker_0, # of connection points: 2
#     Edge 26, Type (0, 0), BuildingBlock: CIFDUS_clean_linker_0, # of connection points: 2
#     Edge 27, Type (0, 0), BuildingBlock: CIFDUS_clean_linker_0, # of connection points: 2
#     Edge 28, Type (0, 0), BuildingBlock: CIFDUS_clean_linker_0, # of connection points: 2
#     Edge 29, Type (0, 0), BuildingBlock: CIFDUS_clean_linker_0, # of connection points: 2
#     Edge 30, Type (0, 0), BuildingBlock: CIFDUS_clean_linker_0, # of connection points: 2
#     Edge 31, Type (0, 0), BuildingBlock: CIFDUS_clean_linker_0, # of connection points: 2
#     Edge 32, Type (0, 0), BuildingBlock: CIFDUS_clean_linker_0, # of connection points: 2
#     Edge 33, Type (0, 0), BuildingBlock: CIFDUS_clean_linker_0, # of connection points: 2
#     Edge 34, Type (0, 0), BuildingBlock: CIFDUS_clean_linker_0, # of connection points: 2
#     Edge 35, Type (0, 0), BuildingBlock: CIFDUS_clean_linker_0, # of connection points: 2
#     Edge 36, Type (0, 0), BuildingBlock: CIFDUS_clean_linker_0, # of connection points: 2
#     Edge 37, Type (0, 0), BuildingBlock: CIFDUS_clean_linker_0, # of connection points: 2
#     Edge 38, Type (0, 0), BuildingBlock: CIFDUS_clean_linker_0, # of connection points: 2
#     Edge 39, Type (0, 0), BuildingBlock: CIFDUS_clean_linker_0, # of connection points: 2
#     Edge 40, Type (0, 0), BuildingBlock: CIFDUS_clean_linker_0, # of connection points: 2
#     Edge 41, Type (0, 0), BuildingBlock: CIFDUS_clean_linker_0, # of connection points: 2
#     Edge 42, Type (0, 0), BuildingBlock: CIFDUS_clean_linker_0, # of connection points: 2
#     Edge 43, Type (0, 0), BuildingBlock: CIFDUS_clean_linker_0, # of connection points: 2
#     Edge 44, Type (0, 0), BuildingBlock: CIFDUS_clean_linker_0, # of connection points: 2
#     Edge 45, Type (0, 0), BuildingBlock: CIFDUS_clean_linker_0, # of connection points: 2
#     Edge 46, Type (0, 0), BuildingBlock: CIFDUS_clean_linker_0, # of connection points: 2
#     Edge 47, Type (0, 0), BuildingBlock: CIFDUS_clean_linker_0, # of connection points: 2
# Relax obj value: 0.107
# Max RMSD: 0.228
# Mean RMSD: 0.228
data_MOF--net-wjd--node1-BETDAH_clean_sbu_0--edge1-CIFDUS_clean_linker_0
_symmetry_space_group_name_H-M    P1
_symmetry_Int_Tables_number       1
_symmetry_cell_setting            triclinic
loop_
_symmetry_equiv_pos_as_xyz
'x, y, z'
_cell_length_a     36.612518
_cell_length_b     36.573796
_cell_length_c     43.993858
_cell_angle_alpha  89.905456
_cell_angle_beta   90.169973
_cell_angle_gamma 120.0748
loop_
_atom_site_label
_atom_site_type_symbol
_atom_site_fract_x
_atom_site_fract_y
_atom_site_fract_z
_atom_type_partial_charge
Ho0 Ho 0.38614 0.18538 0.13457 0.0
Ho1 Ho 0.33855 0.09766 0.16159 0.0
C2 C 0.4376 0.1392 0.15439 0.0
C3 C 0.43542 0.26495 0.12154 0.0
C4 C 0.47153 0.30595 0.13213 0.0
C5 C 0.46372 0.33607 0.1459 0.0
C6 C 0.49671 0.37711 0.15186 0.0
C7 C 0.53857 0.38942 0.14408 0.0
C8 C 0.54662 0.35889 0.13119 0.0
C9 C 0.51352 0.31776 0.12516 0.0
C10 C 0.3465 0.1208 0.0937 0.0
C11 C 0.28838 0.14784 0.14462 0.0
C12 C 0.28557 1.01893 0.17291 0.0
C13 C 0.23949 0.98988 0.17037 0.0
C14 C 0.21001 1.00148 0.17989 0.0
C15 C 0.16657 0.97208 0.17908 0.0
C16 C 0.15194 0.93058 0.16884 0.0
C17 C 0.18158 0.91986 0.15811 0.0
C18 C 0.22478 0.94913 0.15892 0.0
C19 C 0.37805 0.15972 0.20364 0.0
O20 O 0.43786 0.17549 0.15347 0.0
O21 O 0.40165 0.10265 0.15391 0.0
O22 O 0.44246 0.23498 0.11247 0.0
O23 O 0.39986 0.2501 0.13626 0.0
O24 O 0.35312 0.15862 0.08914 0.0
O25 O 0.36592 0.12134 0.11729 0.0
O26 O 0.28578 0.1108 0.14926 0.0
O27 O 0.32499 0.18274 0.14162 0.0
O28 O 0.29861 0.04877 0.19339 0.0
O29 O 0.30636 0.03207 0.14738 0.0
O30 O 0.37626 0.12336 0.20419 0.0
O31 O 0.35845 0.16131 0.18031 0.0
H32 H 0.43178 0.32838 0.15124 0.0
H33 H 0.48927 0.39944 0.1622 0.0
H34 H 0.57833 0.36724 0.12457 0.0
H35 H 0.52072 0.29569 0.11409 0.0
H36 H 0.22053 0.03291 0.18859 0.0
H37 H 0.14462 0.98133 0.18751 0.0
H38 H 0.17137 0.88845 0.14949 0.0
H39 H 0.24683 0.93962 0.15112 0.0
Ho40 Ho 0.79803 0.72111 0.42325 0.0
Ho41 Ho 0.83569 0.66499 0.44831 0.0
C42 C 0.8993 0.76168 0.4323 0.0
C43 C 0.76958 0.77294 0.42483 0.0
C44 C 0.78494 0.81731 0.41678 0.0
C45 C 0.82776 0.84514 0.41043 0.0
C46 C 0.84246 0.88822 0.40571 0.0
C47 C 0.8145 0.90403 0.40718 0.0
C48 C 0.77155 0.87569 0.41318 0.0
C49 C 0.75698 0.83281 0.41792 0.0
C50 C 0.82807 0.69592 0.37635 0.0
C51 C 0.73997 0.61989 0.42364 0.0
C52 C 0.86138 0.61261 0.46199 0.0
C53 C 0.86305 0.57493 0.45224 0.0
C54 C 0.83431 0.54568 0.4313 0.0
C55 C 0.83663 0.50966 0.42349 0.0
C56 C 0.86774 0.50238 0.43646 0.0
C57 C 0.8966 0.53224 0.45715 0.0
C58 C 0.89427 0.56805 0.46487 0.0
C59 C 0.81438 0.70715 0.48938 0.0
O60 O 0.86712 0.7688 0.43133 0.0
O61 O 0.89413 0.72338 0.43475 0.0
O62 O 0.76144 0.74631 0.40241 0.0
O63 O 0.78956 0.7673 0.44741 0.0
O64 O 0.81076 0.71922 0.37327 0.0
O65 O 0.82866 0.6881 0.40424 0.0
O66 O 0.77478 0.61758 0.4265 0.0
O67 O 0.74006 0.65623 0.42552 0.0
O68 O 0.82484 0.60751 0.47052 0.0
O69 O 0.88386 0.64731 0.44639 0.0
O70 O 0.84482 0.69934 0.49345 0.0
O71 O 0.79501 0.68863 0.46563 0.0
H72 H 0.84987 0.83367 0.40964 0.0
H73 H 0.87562 0.90909 0.40093 0.0
H74 H 0.74925 0.88683 0.41503 0.0
H75 H 0.72396 0.81189 0.42319 0.0
H76 H 0.81005 0.55053 0.42119 0.0
H77 H 0.81411 0.48758 0.40727 0.0
H78 H 0.92043 0.52747 0.46808 0.0
H79 H 0.91666 0.59022 0.48115 0.0
Ho80 Ho 0.86716 0.21226 0.12736 0.0
Ho81 Ho 0.95248 0.24562 0.15433 0.0
C82 C 0.91998 0.31064 0.14337 0.0
C83 C 0.79163 0.19221 0.10929 0.0
C84 C 0.75285 0.19162 0.12004 0.0
C85 C 0.72403 0.15991 0.13972 0.0
C86 C 0.68582 0.15777 0.1474 0.0
C87 C 0.67546 0.18722 0.13556 0.0
C88 C 0.70457 0.21912 0.11614 0.0
C89 C 0.74263 0.2212 0.10845 0.0
C90 C 0.9301 0.2246 0.08771 0.0
C91 C 0.88742 0.14452 0.15161 0.0
C92 C 0.03019 0.26647 0.16522 0.0
C93 C 0.05948 0.2503 0.16146 0.0
C94 C 0.04634 0.20977 0.14986 0.0
C95 C 0.07593 0.19661 0.145 0.0
C96 C 0.11898 0.22404 0.15137 0.0
C97 C 0.13149 0.26413 0.16364 0.0
C98 C 0.10207 0.27707 0.1686 0.0
C99 C 0.89649 0.24206 0.19546 0.0
O100 O 0.88213 0.27675 0.14223 0.0
O101 O 0.95441 0.30729 0.14416 0.0
O102 O 0.82504 0.22907 0.10451 0.0
O103 O 0.80111 0.16541 0.12141 0.0
O104 O 0.89226 0.19248 0.08652 0.0
O105 O 0.93158 0.24815 0.1087 0.0
O106 O 0.92756 0.1745 0.14876 0.0
O107 O 0.85736 0.154 0.14956 0.0
O108 O 1.01772 0.27631 0.14024 0.0
O109 O 0.99975 0.24726 0.18494 0.0
O110 O 0.93596 0.27101 0.1944 0.0
O111 O 0.88841 0.21405 0.17539 0.0
H112 H 0.73063 0.13632 0.14889 0.0
H113 H 0.6644 0.13302 0.16262 0.0
H114 H 0.69747 0.24192 0.10613 0.0
H115 H 0.76373 0.24556 0.09283 0.0
H116 H 1.0135 0.1887 0.14413 0.0
H117 H 0.0654 0.16562 0.13544 0.0
H118 H 0.16427 0.28573 0.16924 0.0
H119 H 0.11275 0.30839 0.17763 0.0
Ho120 Ho 0.32939 0.09221 0.42161 0.0
Ho121 Ho 0.38451 0.18775 0.44512 0.0
C122 C 0.28561 0.15018 0.4324 0.0
C123 C 0.28045 1.0114 0.42401 0.0
C124 C 0.2348 0.98186 0.42109 0.0
C125 C 0.20521 0.99129 0.43369 0.0
C126 C 0.16223 0.96108 0.43355 0.0
C127 C 0.14806 0.921 0.42067 0.0
C128 C 0.17767 0.91255 0.4068 0.0
C129 C 0.22063 0.94265 0.40714 0.0
C130 C 0.35372 0.14665 0.3741 0.0
C131 C 0.4314 0.13752 0.42227 0.0
C132 C 0.43575 0.26746 0.45427 0.0
C133 C 0.47499 0.30469 0.44308 0.0
C134 C 0.47246 0.33591 0.42604 0.0
C135 C 0.50891 0.37382 0.41859 0.0
C136 C 0.54885 0.38165 0.42821 0.0
C137 C 0.55145 0.34989 0.44459 0.0
C138 C 0.51498 0.31191 0.45198 0.0
C139 C 0.34551 0.1251 0.48714 0.0
O140 O 0.27999 0.11136 0.43046 0.0
O141 O 0.32334 0.1843 0.43478 0.0
O142 O 0.30077 0.03101 0.3993 0.0
O143 O 0.2921 0.03603 0.44785 0.0
O144 O 0.33126 0.10588 0.37139 0.0
O145 O 0.36101 0.15537 0.40197 0.0
O146 O 0.4334 0.17449 0.42583 0.0
O147 O 0.39511 0.10093 0.42278 0.0
O148 O 0.43879 0.2375 0.46847 0.0
O149 O 0.40236 0.25278 0.43672 0.0
O150 O 0.35276 0.16328 0.4912 0.0
O151 O 0.36302 0.12419 0.46297 0.0
H152 H 0.21539 0.02151 0.44448 0.0
H153 H 0.14038 0.96854 0.44461 0.0
H154 H 0.16772 0.88231 0.39613 0.0
H155 H 0.24293 0.9349 0.39714 0.0
H156 H 0.4421 0.33155 0.41912 0.0
H157 H 0.5057 0.39724 0.40559 0.0
H158 H 0.58157 0.35497 0.45276 0.0
H159 H 0.51812 0.28883 0.46547 0.0
Ho160 Ho 0.84943 0.67007 0.13695 0.0
Ho161 Ho 0.80143 0.71565 0.1619 0.0
C162 C 0.7515 0.61433 0.15896 0.0
C163 C 0.88202 0.62419 0.1214 0.0
C164 C 0.88354 0.58565 0.12852 0.0
C165 C 0.85777 0.55692 0.15082 0.0
C166 C 0.85969 0.52013 0.15637 0.0
C167 C 0.8874 0.5115 0.13969 0.0
C168 C 0.91348 0.54091 0.11769 0.0
C169 C 0.91155 0.57755 0.11222 0.0
C170 C 0.8241 0.70964 0.09656 0.0
C171 C 0.90466 0.76532 0.1571 0.0
C172 C 0.77281 0.76729 0.15973 0.0
C173 C 0.79437 0.81409 0.16132 0.0
C174 C 0.82905 0.83949 0.1425 0.0
C175 C 0.84835 0.88355 0.14332 0.0
C176 C 0.83398 0.90356 0.16334 0.0
C177 C 0.8002 0.87802 0.18296 0.0
C178 C 0.78049 0.83384 0.1818 0.0
C179 C 0.8319 0.6923 0.20943 0.0
O180 O 0.78868 0.61676 0.15536 0.0
O181 O 0.74698 0.64832 0.15911 0.0
O182 O 0.8468 0.61935 0.10997 0.0
O183 O 0.8994 0.65511 0.14107 0.0
O184 O 0.85899 0.70903 0.09385 0.0
O185 O 0.80448 0.68772 0.11905 0.0
O186 O 0.86998 0.76836 0.15571 0.0
O187 O 0.90352 0.72892 0.15447 0.0
O188 O 0.77226 0.74735 0.18463 0.0
O189 O 0.78058 0.75158 0.13555 0.0
O190 O 0.8095 0.71057 0.21203 0.0
O191 O 0.83578 0.6864 0.18158 0.0
H192 H 0.83607 0.5628 0.16374 0.0
H193 H 0.83945 0.49843 0.17371 0.0
H194 H 0.93462 0.5351 0.10404 0.0
H195 H 0.93166 0.59941 0.09488 0.0
H196 H 0.84114 0.8254 0.12683 0.0
H197 H 0.87385 0.90179 0.12761 0.0
H198 H 0.78877 0.89209 0.19924 0.0
H199 H 0.75424 0.81509 0.19684 0.0
Ho200 Ho 0.95491 0.25304 0.41174 0.0
Ho201 Ho 0.86459 0.21069 0.43505 0.0
C202 C 0.90111 0.15089 0.42095 0.0
C203 C 0.03473 0.27987 0.40481 0.0
C204 C 0.0642 0.2637 0.4086 0.0
C205 C 0.05252 0.22553 0.42379 0.0
C206 C 0.08201 0.21209 0.42815 0.0
C207 C 0.12368 0.23674 0.41754 0.0
C208 C 0.13466 0.27434 0.40169 0.0
C209 C 0.10529 0.28764 0.39732 0.0
C210 C 0.89682 0.23625 0.36782 0.0
C211 C 0.91259 0.31014 0.41937 0.0
C212 C 0.78482 0.1805 0.44632 0.0
C213 C 0.74702 0.1836 0.43802 0.0
C214 C 0.71525 0.1522 0.4197 0.0
C215 C 0.67711 0.15151 0.41458 0.0
C216 C 0.66951 0.18204 0.42783 0.0
C217 C 0.70168 0.21394 0.44573 0.0
C218 C 0.73987 0.21467 0.45081 0.0
C219 C 0.92669 0.23104 0.4773 0.0
O220 O 0.939 0.18523 0.42095 0.0
O221 O 0.86641 0.15303 0.42275 0.0
O222 O 1.00707 0.26337 0.38282 0.0
O223 O 1.01851 0.28523 0.42969 0.0
O224 O 0.93412 0.26965 0.36873 0.0
O225 O 0.89263 0.21228 0.38996 0.0
O226 O 0.87612 0.27421 0.41939 0.0
O227 O 0.94908 0.31065 0.42019 0.0
O228 O 0.81518 0.21134 0.46179 0.0
O229 O 0.79912 0.16483 0.42601 0.0
O230 O 0.88932 0.19811 0.47941 0.0
O231 O 0.92709 0.25248 0.45507 0.0
H232 H 1.02088 0.20649 0.43263 0.0
H233 H 0.07258 0.18312 0.44058 0.0
H234 H 0.16623 0.29376 0.39276 0.0
H235 H 0.11487 0.31701 0.38539 0.0
H236 H 0.71946 0.12745 0.40983 0.0
H237 H 0.65347 0.12681 0.40034 0.0
H238 H 0.69689 0.23768 0.45671 0.0
H239 H 0.76328 0.23895 0.46543 0.0
Ho240 Ho 0.09751 0.32202 0.64755 0.0
Ho241 Ho 0.19299 0.37666 0.62657 0.0
C242 C 0.15857 0.28084 0.64479 0.0
C243 C 1.01826 0.26799 0.64043 0.0
C244 C 0.99069 0.22204 0.64408 0.0
C245 C 0.964 0.19927 0.61984 0.0
C246 C 0.94173 0.1552 0.62015 0.0
C247 C 0.94541 0.13289 0.64486 0.0
C248 C 0.97124 0.15568 0.66961 0.0
C249 C 0.99411 0.19999 0.6691 0.0
C250 C 0.14828 0.34492 0.69692 0.0
C251 C 0.14166 0.42317 0.6479 0.0
C252 C 0.27168 0.42825 0.61429 0.0
C253 C 0.31072 0.46657 0.62356 0.0
C254 C 0.31105 0.49545 0.64467 0.0
C255 C 0.34921 0.53191 0.65226 0.0
C256 C 0.38752 0.53991 0.63888 0.0
C257 C 0.38664 0.51052 0.61788 0.0
C258 C 0.34871 0.4743 0.6104 0.0
C259 C 0.13278 0.33667 0.58286 0.0
O260 O 0.1195 0.27418 0.64253 0.0
O261 O 0.1921 0.31893 0.64311 0.0
O262 O 0.03319 0.29174 0.6648 0.0
O263 O 0.04666 0.27812 0.61931 0.0
O264 O 0.10737 0.32241 0.69811 0.0
O265 O 0.15952 0.35402 0.66955 0.0
O266 O 0.17872 0.42498 0.64592 0.0
O267 O 0.10508 0.38706 0.64579 0.0
O268 O 0.2407 0.43275 0.60367 0.0
O269 O 0.25874 0.39484 0.63153 0.0
O270 O 0.16976 0.34021 0.58195 0.0
O271 O 0.13066 0.35508 0.60623 0.0
H272 H 0.96136 0.21567 0.60014 0.0
H273 H 0.92159 0.13852 0.60098 0.0
H274 H 0.97464 0.13921 0.68893 0.0
H275 H 1.01515 0.21687 0.6878 0.0
H276 H 0.28195 0.4899 0.65513 0.0
H277 H 0.34874 0.5537 0.66867 0.0
H278 H 0.41519 0.51591 0.60663 0.0
H279 H 0.349 0.4524 0.59396 0.0
Ho280 Ho 0.22558 0.85456 0.94382 0.0
Ho281 Ho 0.26149 0.95031 0.92435 0.0
C282 C 0.3221 0.91017 0.92146 0.0
C283 C 0.2026 0.77577 0.95224 0.0
C284 C 0.20355 0.73864 0.9396 0.0
C285 C 0.16962 0.70868 0.92194 0.0
C286 C 0.16683 0.67031 0.91399 0.0
C287 C 0.19776 0.6608 0.92367 0.0
C288 C 0.2324 0.69136 0.94052 0.0
C289 C 0.23519 0.72973 0.94846 0.0
C290 C 0.24745 0.91338 0.98884 0.0
C291 C 0.15991 0.88573 0.9313 0.0
C292 C 0.28359 0.02863 0.93229 0.0
C293 C 0.2643 0.05533 0.92811 0.0
C294 C 0.26158 0.07704 0.95348 0.0
C295 C 0.2395 0.0989 0.95177 0.0
C296 C 0.22005 0.09998 0.9245 0.0
C297 C 0.22371 0.07925 0.89876 0.0
C298 C 0.24534 0.05669 0.90061 0.0
C299 C 0.23345 0.90023 0.87446 0.0
O300 O 0.28754 0.87239 0.92187 0.0
O301 O 0.32098 0.94572 0.9255 0.0
O302 O 0.23757 0.80711 0.96334 0.0
O303 O 0.17952 0.78853 0.93802 0.0
O304 O 0.21556 0.87529 0.99058 0.0
O305 O 0.26602 0.91711 0.96418 0.0
O306 O 0.19159 0.92537 0.93249 0.0
O307 O 0.16597 0.85309 0.93161 0.0
O308 O 0.29466 1.01529 0.90819 0.0
O309 O 0.26485 0.99929 0.9529 0.0
O310 O 0.2504 0.94107 0.87373 0.0
O311 O 0.23248 0.88895 0.90171 0.0
H312 H 0.14437 0.71422 0.91505 0.0
H313 H 0.14003 0.6478 0.90067 0.0
H314 H 0.25655 0.68496 0.94873 0.0
H315 H 0.26138 0.75171 0.96252 0.0
H316 H 0.27578 0.07625 0.97495 0.0
H317 H 0.23779 0.11516 0.9718 0.0
H318 H 0.20903 0.07969 0.87746 0.0
H319 H 0.24654 0.03977 0.88081 0.0
Ho320 Ho 0.72337 0.7891 0.66315 0.0
Ho321 Ho 0.67678 0.83262 0.64113 0.0
C322 C 0.77219 0.89146 0.65673 0.0
C323 C 0.77808 0.76445 0.66923 0.0
C324 C 0.82394 0.78291 0.66306 0.0
C325 C 0.83785 0.77722 0.63462 0.0
C326 C 0.88073 0.79232 0.62934 0.0
C327 C 0.91088 0.81339 0.65236 0.0
C328 C 0.89719 0.8202 0.6805 0.0
C329 C 0.8542 0.80495 0.68585 0.0
C330 C 0.68239 0.8043 0.70816 0.0
C331 C 0.62441 0.73255 0.65514 0.0
C332 C 0.62749 0.86307 0.62929 0.0
C333 C 0.58637 0.85963 0.63716 0.0
C334 C 0.5856 0.8904 0.65586 0.0
C335 C 0.54801 0.89082 0.66073 0.0
C336 C 0.51013 0.86065 0.64682 0.0
C337 C 0.51076 0.82933 0.62855 0.0
C338 C 0.54839 0.82888 0.62373 0.0
C339 C 0.7188 0.81403 0.59807 0.0
O340 O 0.77549 0.85712 0.65468 0.0
O341 O 0.73542 0.88951 0.65616 0.0
O342 O 0.76746 0.78107 0.69138 0.0
O343 O 0.75319 0.7553 0.64562 0.0
O344 O 0.68565 0.77064 0.70598 0.0
O345 O 0.70215 0.82899 0.68633 0.0
O346 O 0.62418 0.76862 0.65565 0.0
O347 O 0.66019 0.73179 0.65418 0.0
O348 O 0.62742 0.83265 0.61364 0.0
O349 O 0.65703 0.87829 0.65004 0.0
O350 O 0.71775 0.84894 0.59839 0.0
O351 O 0.6969 0.79137 0.61958 0.0
H352 H 0.81554 0.76042 0.61652 0.0
H353 H 0.89025 0.78692 0.60729 0.0
H354 H 0.91951 0.83585 0.69881 0.0
H355 H 0.84462 0.80969 0.70808 0.0
H356 H 0.61436 0.91489 0.66626 0.0
H357 H 0.54876 0.91504 0.67528 0.0
H358 H 0.48242 0.80588 0.61711 0.0
H359 H 0.54784 0.80507 0.60882 0.0
Ho360 Ho 0.19214 0.3706 0.93548 0.0
Ho361 Ho 0.09607 0.31859 0.91341 0.0
C362 C 0.14238 0.41989 0.91654 0.0
C363 C 0.27142 0.42137 0.94685 0.0
C364 C 0.30969 0.46119 0.93768 0.0
C365 C 0.31566 0.50084 0.94627 0.0
C366 C 0.35443 0.53768 0.94129 0.0
C367 C 0.38825 0.53582 0.92767 0.0
C368 C 0.38174 0.49625 0.91828 0.0
C369 C 0.34304 0.45943 0.92333 0.0
C370 C 0.13108 0.32699 0.97785 0.0
C371 C 0.15481 0.27533 0.91461 0.0
C372 C 1.01575 0.26727 0.91678 0.0
C373 C 0.98759 0.2211 0.9131 0.0
C374 C 0.98993 0.19225 0.93309 0.0
C375 C 0.9612 0.14899 0.93082 0.0
C376 C 0.9296 0.1334 0.90835 0.0
C377 C 0.92837 0.16216 0.8876 0.0
C378 C 0.95688 0.20553 0.89008 0.0
C379 C 0.1482 0.34635 0.86475 0.0
O380 O 0.179 0.42081 0.91854 0.0
O381 O 0.10535 0.38419 0.91755 0.0
O382 O 0.24082 0.42383 0.96032 0.0
O383 O 0.25762 0.38904 0.92837 0.0
O384 O 0.1689 0.33264 0.97949 0.0
O385 O 0.12943 0.3476 0.95563 0.0
O386 O 0.11604 0.26913 0.91784 0.0
O387 O 0.18906 0.31292 0.91647 0.0
O388 O 0.03403 0.28921 0.89227 0.0
O389 O 0.04104 0.27947 0.94031 0.0
O390 O 0.10735 0.32458 0.86277 0.0
O391 O 0.15839 0.35171 0.89246 0.0
H392 H 0.29089 0.50339 0.95774 0.0
H393 H 0.35833 0.56746 0.94919 0.0
H394 H 0.40676 0.4936 0.90731 0.0
H395 H 0.33962 0.42933 0.91675 0.0
H396 H 1.01335 0.20302 0.95098 0.0
H397 H 0.96287 0.128 0.94745 0.0
H398 H 0.90493 0.15124 0.86966 0.0
H399 H 0.95448 0.22699 0.87428 0.0
Ho400 Ho 0.26161 0.95207 0.6562 0.0
Ho401 Ho 0.218 0.85631 0.63457 0.0
C402 C 0.15875 0.89478 0.6484 0.0
C403 C 0.28995 0.0322 0.65153 0.0
C404 C 0.27279 0.06077 0.65671 0.0
C405 C 0.24075 0.05891 0.63784 0.0
C406 C 0.22711 0.08815 0.64106 0.0
C407 C 0.245 0.11998 0.66326 0.0
C408 C 0.27601 0.12091 0.68283 0.0
C409 C 0.28988 0.09175 0.67948 0.0
C410 C 0.23184 0.90072 0.70521 0.0
C411 C 0.31705 0.90592 0.65408 0.0
C412 C 0.18662 0.77661 0.62335 0.0
C413 C 0.1873 0.73754 0.63014 0.0
C414 C 0.21561 0.73617 0.65103 0.0
C415 C 0.21426 0.69777 0.65702 0.0
C416 C 0.18448 0.66022 0.64228 0.0
C417 C 0.15638 0.66217 0.62137 0.0
C418 C 0.15779 0.70036 0.61544 0.0
C419 C 0.24031 0.91755 0.59148 0.0
O420 O 0.19261 0.93324 0.64935 0.0
O421 O 0.16131 0.86016 0.64655 0.0
O422 O 0.29747 1.01534 0.67538 0.0
O423 O 0.27292 1.00547 0.62908 0.0
O424 O 0.25159 0.94166 0.70663 0.0
O425 O 0.22946 0.88966 0.67775 0.0
O426 O 0.28144 0.86913 0.65147 0.0
O427 O 0.31805 0.94284 0.65358 0.0
O428 O 0.21851 0.80647 0.60834 0.0
O429 O 0.17243 0.79122 0.64463 0.0
O430 O 0.20606 0.88104 0.59013 0.0
O431 O 0.26047 0.91864 0.61487 0.0
H432 H 0.22681 0.03554 0.61994 0.0
H433 H 0.2037 0.08676 0.62527 0.0
H434 H 0.29008 0.14462 0.70049 0.0
H435 H 0.31456 0.09393 0.69433 0.0
H436 H 0.23853 0.76462 0.66269 0.0
H437 H 0.23624 0.6974 0.67337 0.0
H438 H 0.13366 0.63427 0.6091 0.0
H439 H 0.13571 0.70085 0.5992 0.0
Ho440 Ho 0.674 0.82643 0.94897 0.0
Ho441 Ho 0.72867 0.78352 0.93071 0.0
C442 C 0.62729 0.72732 0.93124 0.0
C443 C 0.62266 0.85511 0.95693 0.0
C444 C 0.58459 0.85538 0.94531 0.0
C445 C 0.58909 0.892 0.93124 0.0
C446 C 0.55368 0.89533 0.92362 0.0
C447 C 0.5127 0.86218 0.93002 0.0
C448 C 0.50821 0.82516 0.94356 0.0
C449 C 0.54366 0.82182 0.95115 0.0
C450 C 0.71383 0.80776 0.9938 0.0
C451 C 0.77039 0.88605 0.93032 0.0
C452 C 0.77986 0.75516 0.93937 0.0
C453 C 0.82367 0.76681 0.93254 0.0
C454 C 0.8388 0.74076 0.94312 0.0
C455 C 0.88134 0.75296 0.93986 0.0
C456 C 0.90977 0.7916 0.92591 0.0
C457 C 0.89436 0.8176 0.9151 0.0
C458 C 0.85161 0.8053 0.91841 0.0
C459 C 0.70323 0.80697 0.88021 0.0
O460 O 0.62574 0.76281 0.93096 0.0
O461 O 0.66315 0.72684 0.93503 0.0
O462 O 0.61807 0.82092 0.97023 0.0
O463 O 0.65703 0.87429 0.94053 0.0
O464 O 0.71063 0.8415 0.99388 0.0
O465 O 0.6953 0.7864 0.97079 0.0
O466 O 0.77696 0.85363 0.93346 0.0
O467 O 0.73244 0.88184 0.93172 0.0
O468 O 0.75285 0.74275 0.9167 0.0
O469 O 0.77591 0.78073 0.95807 0.0
O470 O 0.72555 0.78831 0.87966 0.0
O471 O 0.69665 0.81213 0.90753 0.0
H472 H 0.62019 0.91868 0.9268 0.0
H473 H 0.55849 0.92407 0.91288 0.0
H474 H 0.47727 0.79914 0.94927 0.0
H475 H 0.53893 0.79339 0.96236 0.0
H476 H 0.81786 0.71135 0.95463 0.0
H477 H 0.89215 0.73251 0.94901 0.0
H478 H 0.91529 0.84738 0.90407 0.0
H479 H 0.84051 0.8261 0.91046 0.0
H480 H 0.11798 0.14992 0.16422 0.0
H481 H 0.19324 0.27214 0.12232 0.0
H482 H 0.25075 0.25784 0.1148 0.0
H483 H 0.28166 0.21337 0.1231 0.0
H484 H 0.20844 0.09098 0.16507 0.0
H485 H 0.14794 0.10222 0.16907 0.0
C486 C 0.14678 0.17309 0.15308 0.0
C487 C 0.15157 0.21237 0.14431 0.0
C488 C 0.18013 0.16473 0.14894 0.0
C489 C 0.18907 0.24207 0.12988 0.0
C490 C 0.22194 0.23387 0.12546 0.0
C491 C 0.25244 0.18892 0.13301 0.0
C492 C 0.24984 0.1516 0.14413 0.0
C493 C 0.21817 0.19577 0.13546 0.0
C494 C 0.21141 0.12007 0.15641 0.0
C495 C 0.17685 0.12659 0.15881 0.0
H496 H 0.07687 0.92754 0.41448 0.0
H497 H 0.11835 0.83824 0.43407 0.0
H498 H 0.0455 0.78198 0.43937 0.0
H499 H 0.97073 0.75793 0.43879 0.0
H500 H 0.92701 0.84568 0.4204 0.0
H501 H 1.00027 0.903 0.41491 0.0
C502 C 0.06993 0.89581 0.42007 0.0
C503 C 0.10317 0.88713 0.42349 0.0
C504 C 1.0277 0.86341 0.42349 0.0
C505 C 0.09353 0.84574 0.43057 0.0
C506 C 0.05184 0.81354 0.4339 0.0
C507 C 0.97692 0.78952 0.43356 0.0
C508 C 0.94325 0.79735 0.42991 0.0
C509 C 1.01878 0.82201 0.43037 0.0
C510 C 0.95226 0.83869 0.42335 0.0
C511 C 0.99415 0.87145 0.42014 0.0
H512 H 0.93428 0.10399 0.14827 0.0
H513 H 0.80964 0.08295 0.16831 0.0
H514 H 0.78319 1.00819 0.1743 0.0
H515 H 0.79312 0.94773 0.17112 0.0
H516 H 0.91693 0.96572 0.1534 0.0
H517 H 0.94537 0.04194 0.14877 0.0
C518 C 0.90149 0.08304 0.15419 0.0
C519 C 0.8741 0.09943 0.15741 0.0
C520 C 0.88592 0.03918 0.15772 0.0
C521 C 0.83162 0.07162 0.16521 0.0
C522 C 0.81622 0.02856 0.16873 0.0
C523 C 0.82656 0.96815 0.16693 0.0
C524 C 0.85258 0.95054 0.16261 0.0
C525 C 0.84283 1.01189 0.16466 0.0
C526 C 0.89573 0.978 0.15639 0.0
C527 C 0.91218 0.02178 0.15391 0.0
H528 H 0.28596 0.22326 0.44308 0.0
H529 H 0.20218 0.09291 0.41867 0.0
H530 H 0.14383 0.10738 0.41319 0.0
H531 H 0.11772 0.15868 0.41281 0.0
H532 H 0.20373 0.28855 0.43726 0.0
H533 H 0.26002 0.27253 0.44502 0.0
C534 C 0.255 0.19774 0.4366 0.0
C535 C 0.24877 0.15706 0.43104 0.0
C536 C 0.22192 0.20634 0.43328 0.0
C537 C 0.20807 0.12456 0.42304 0.0
C538 C 0.17469 0.13287 0.41982 0.0
C539 C 0.14869 0.1833 0.42011 0.0
C540 C 0.15655 0.22498 0.42398 0.0
C541 C 0.18136 0.17385 0.42452 0.0
C542 C 0.19693 0.25648 0.43345 0.0
C543 C 0.22917 0.24731 0.43806 0.0
H544 H 0.08133 0.9357 0.15365 0.0
H545 H 0.12034 0.85078 0.18995 0.0
H546 H 0.04735 0.79386 0.19138 0.0
H547 H 0.97342 0.76677 0.18006 0.0
H548 H 0.93141 0.84895 0.14348 0.0
H549 H 1.00437 0.90861 0.14516 0.0
C550 C 0.07371 0.90482 0.16211 0.0
C551 C 0.10652 0.89738 0.17111 0.0
C552 C 0.03119 0.87177 0.16288 0.0
C553 C 0.09601 0.85718 0.18213 0.0
C554 C 0.05419 0.82461 0.18317 0.0
C555 C 0.98002 0.79774 0.17246 0.0
C556 C 0.94706 0.80323 0.16123 0.0
C557 C 1.02171 0.83134 0.17314 0.0
C558 C 0.95619 0.84382 0.15217 0.0
C559 C 0.99796 0.87784 0.15297 0.0
H560 H 0.88688 0.97187 0.42952 0.0
H561 H 0.77603 0.93934 0.37546 0.0
H562 H 0.79488 1.01326 0.3737 0.0
H563 H 0.83932 0.08592 0.39056 0.0
H564 H 0.95156 0.12094 0.4432 0.0
H565 H 0.93628 0.04732 0.44193 0.0
C566 C 0.86729 0.98107 0.4169 0.0
C567 C 0.82957 0.94986 0.40315 0.0
C568 C 0.87845 0.02396 0.41584 0.0
C569 C 0.80457 0.96244 0.38691 0.0
C570 C 0.81543 1.00476 0.38575 0.0
C571 C 0.86062 0.07749 0.40163 0.0
C572 C 0.89608 0.10846 0.4174 0.0
C573 C 0.85164 0.03554 0.40073 0.0
C574 C 0.92396 0.09747 0.43103 0.0
C575 C 0.91508 0.05541 0.4304 0.0
H576 H 0.16713 0.11258 0.6552 0.0
H577 H 0.29791 0.20418 0.67298 0.0
H578 H 0.28177 0.261 0.67055 0.0
H579 H 0.23221 0.28536 0.66039 0.0
H580 H 0.10164 0.19552 0.64071 0.0
H581 H 0.11623 0.13735 0.64659 0.0
C582 C 0.19212 0.14498 0.6585 0.0
C583 C 0.23376 0.1539 0.66427 0.0
C584 C 0.1828 0.17786 0.65645 0.0
C585 C 0.26551 0.19609 0.669 0.0
C586 C 0.25641 0.22876 0.66731 0.0
C587 C 0.20676 0.2531 0.65732 0.0
C588 C 0.16596 0.24492 0.64971 0.0
C589 C 0.21538 0.22007 0.66059 0.0
C590 C 0.13339 0.20278 0.6464 0.0
C591 C 0.14175 0.16953 0.64973 0.0
H592 H 0.09054 0.811 0.91746 0.0
H593 H 0.12941 0.94007 0.94073 0.0
H594 H 0.05552 0.92296 0.93985 0.0
H595 H 0.97939 0.87004 0.93481 0.0
H596 H 0.94251 0.74169 0.91056 0.0
H597 H 1.0162 0.75992 0.90978 0.0
C598 C 0.08308 0.83558 0.92237 0.0
C599 C 0.11561 0.87671 0.92948 0.0
C600 C 0.04075 0.82555 0.92181 0.0
C601 C 0.10508 0.90811 0.9353 0.0
C602 C 0.06279 0.8983 0.93485 0.0
C603 C 0.98752 0.84622 0.92894 0.0
C604 C 0.95523 0.80436 0.92311 0.0
C605 C 0.03028 0.85697 0.9284 0.0
C606 C 0.96648 0.77389 0.91576 0.0
C607 C 1.00869 0.78432 0.91515 0.0
H608 H 0.83655 0.93734 0.61764 0.0
H609 H 0.78906 0.93958 0.7066 0.0
H610 H 0.84214 1.01407 0.71243 0.0
H611 H 0.89634 0.08054 0.68976 0.0
H612 H 0.94076 0.08027 0.5992 0.0
H613 H 0.89508 1.00351 0.59633 0.0
C614 C 0.83882 0.95405 0.63854 0.0
C615 C 0.80956 0.93318 0.66187 0.0
C616 C 0.86844 0.99747 0.64119 0.0
C617 C 0.81175 0.95511 0.68858 0.0
C618 C 0.84188 0.99774 0.69182 0.0
C619 C 0.89659 0.06352 0.66966 0.0
C620 C 0.92159 0.08598 0.64467 0.0
C621 C 0.86955 1.01958 0.66792 0.0
C622 C 0.92131 0.06363 0.6186 0.0
C623 C 0.89528 1.01975 0.61696 0.0
H624 H 0.12598 0.20248 0.94672 0.0
H625 H 0.2005 0.27007 0.86886 0.0
H626 H 0.22349 0.21828 0.86263 0.0
H627 H 0.22923 0.15886 0.88302 0.0
H628 H 0.15973 0.09451 0.96349 0.0
H629 H 0.12793 0.13951 0.96512 0.0
C630 C 0.14636 0.20503 0.92801 0.0
C631 C 0.1614 0.23962 0.90814 0.0
C632 C 0.1609 0.17608 0.92537 0.0
C633 C 0.18851 0.24342 0.88431 0.0
C634 C 0.20181 0.21399 0.88084 0.0
C635 C 0.20648 0.15421 0.90052 0.0
C636 C 0.19696 0.12365 0.92316 0.0
C637 C 0.18926 0.18094 0.90178 0.0
C638 C 0.16782 0.1182 0.94598 0.0
C639 C 0.14961 0.14386 0.9469 0.0
H640 H 0.08699 0.82701 0.62865 0.0
H641 H 0.13331 0.94939 0.66991 0.0
H642 H 0.06059 0.93564 0.67437 0.0
H643 H 0.9832 0.88692 0.66822 0.0
H644 H 0.93936 0.76508 0.6265 0.0
H645 H 1.01181 0.7807 0.62048 0.0
C646 C 0.08137 0.85084 0.63865 0.0
C647 C 0.11559 0.88901 0.64927 0.0
C648 C 0.0398 0.84274 0.64106 0.0
C649 C 0.10758 0.91973 0.66159 0.0
C650 C 0.06597 0.91177 0.66425 0.0
C651 C 0.98961 0.86388 0.6578 0.0
C652 C 0.95573 0.82486 0.64776 0.0
C653 C 0.03172 0.8731 0.65437 0.0
C654 C 0.96465 0.79553 0.63404 0.0
C655 C 1.00613 0.80432 0.63076 0.0
H656 H 0.93781 0.0638 0.91941 0.0
H657 H 0.84562 0.1006 0.89733 0.0
H658 H 0.78949 0.02737 0.90024 0.0
H659 H 0.76573 0.95405 0.91188 0.0
H660 H 0.85575 0.91537 0.93602 0.0
H661 H 0.91357 0.98837 0.92967 0.0
C662 C 0.90544 0.05581 0.91529 0.0
C663 C 0.89617 0.08795 0.90809 0.0
C664 C 0.87287 1.0134 0.9176 0.0
C665 C 0.85401 0.07674 0.90237 0.0
C666 C 0.82171 0.03481 0.90432 0.0
C667 C 0.79795 0.96132 0.91582 0.0
C668 C 0.80628 0.92925 0.92482 0.0
C669 C 0.83071 1.00308 0.91233 0.0
C670 C 0.84838 0.93943 0.92922 0.0
C671 C 0.88142 0.98118 0.92564 0.0
H672 H 0.31739 0.17143 0.33182 0.0
H673 H 0.43439 0.17785 0.35613 0.0
H674 H 0.45708 0.19088 0.30304 0.0
H675 H 0.43526 0.18251 0.24905 0.0
H676 H 0.31838 0.17674 0.2248 0.0
H677 H 0.30429 0.18243 0.27835 0.0
C678 C 0.34882 0.1781 0.32565 0.0
C679 C 0.37437 0.17402 0.34774 0.0
C680 C 0.36115 0.18465 0.29492 0.0
C681 C 0.41461 0.18168 0.33955 0.0
C682 C 0.42723 0.18837 0.30907 0.0
C683 C 0.40766 0.1844 0.25547 0.0
C684 C 0.37771 0.17882 0.23314 0.0
C685 C 0.39962 0.18732 0.28639 0.0
C686 C 0.34197 0.18116 0.24159 0.0
C687 C 0.33368 0.18395 0.27228 0.0
H688 H 0.89463 0.73309 0.33843 0.0
H689 H 0.77787 0.61753 0.35406 0.0
H690 H 0.77387 0.59908 0.30025 0.0
H691 H 0.79376 0.62625 0.24784 0.0
H692 H 0.90971 0.74261 0.23225 0.0
H693 H 0.92496 0.74983 0.28674 0.0
C694 C 0.86967 0.70275 0.33029 0.0
C695 C 0.8367 0.67654 0.35008 0.0
C696 C 0.86716 0.69296 0.29912 0.0
C697 C 0.80393 0.63779 0.33929 0.0
C698 C 0.80133 0.62759 0.30839 0.0
C699 C 0.82361 0.65171 0.25627 0.0
C700 C 0.85073 0.68374 0.23614 0.0
C701 C 0.83137 0.65627 0.28783 0.0
C702 C 0.88878 0.71722 0.24729 0.0
C703 C 0.89708 0.72174 0.27856 0.0
H704 H 0.86805 0.17499 0.23417 0.0
H705 H 0.87884 0.29693 0.22219 0.0
H706 H 0.87086 0.30223 0.27676 0.0
H707 H 0.87859 0.28018 0.32788 0.0
H708 H 0.87055 0.15968 0.34091 0.0
H709 H 0.85903 0.14528 0.28626 0.0
C710 C 0.86642 0.2016 0.24346 0.0
C711 C 0.87394 0.23556 0.22436 0.0
C712 C 0.86352 0.20516 0.27518 0.0
C713 C 0.87277 0.27037 0.23657 0.0
C714 C 0.86878 0.27365 0.26781 0.0
C715 C 0.87262 0.25008 0.31882 0.0
C716 C 0.87577 0.22123 0.33812 0.0
C717 C 0.86681 0.24249 0.28742 0.0
C718 C 0.86809 0.1823 0.32638 0.0
C719 C 0.86194 0.17428 0.29507 0.0
H720 H 0.17587 0.41121 0.73517 0.0
H721 H 0.17485 0.29441 0.72059 0.0
H722 H 0.18633 0.28954 0.77486 0.0
H723 H 0.17656 0.30862 0.82673 0.0
H724 H 0.17454 0.42383 0.84147 0.0
H725 H 0.18566 0.4402 0.78719 0.0
C726 C 0.18067 0.38609 0.74373 0.0
C727 C 0.1749 0.35337 0.72404 0.0
C728 C 0.18583 0.38285 0.7752 0.0
C729 C 0.17993 0.32027 0.73535 0.0
C730 C 0.18582 0.31716 0.76647 0.0
C731 C 0.1811 0.33848 0.81822 0.0
C732 C 0.17512 0.3652 0.83794 0.0
C733 C 0.18604 0.34684 0.78678 0.0
C734 C 0.17983 0.40324 0.8267 0.0
C735 C 0.18547 0.41221 0.79556 0.0
H736 H 0.16863 0.87479 0.83519 0.0
H737 H 0.2847 0.87465 0.8503 0.0
H738 H 0.28976 0.86371 0.79594 0.0
H739 H 0.27031 0.87302 0.74373 0.0
H740 H 0.1551 0.87496 0.72887 0.0
H741 H 0.13952 0.86491 0.78323 0.0
C742 C 0.19373 0.87001 0.82671 0.0
C743 C 0.22607 0.87514 0.84661 0.0
C744 C 0.19683 0.86472 0.79529 0.0
C745 C 0.25907 0.87 0.83542 0.0
C746 C 0.26226 0.86439 0.80424 0.0
C747 C 0.24061 0.86867 0.75226 0.0
C748 C 0.21361 0.87423 0.73238 0.0
C749 C 0.23263 0.86425 0.78379 0.0
C750 C 0.17586 0.8699 0.74371 0.0
C751 C 0.16734 0.8649 0.7749 0.0
H752 H 0.62725 0.75929 0.75254 0.0
H753 H 0.73321 0.88211 0.73268 0.0
H754 H 0.74434 0.89847 0.78693 0.0
H755 H 0.73342 0.87079 0.83953 0.0
H756 H 0.62723 0.7481 0.85921 0.0
H757 H 0.60576 0.73894 0.80579 0.0
C758 C 0.6517 0.79023 0.76014 0.0
C759 C 0.67978 0.81926 0.73879 0.0
C760 C 0.65804 0.79917 0.79141 0.0
C761 C 0.71128 0.8593 0.74873 0.0
C762 C 0.71787 0.86848 0.7798 0.0
C763 C 0.70439 0.8431 0.83227 0.0
C764 C 0.68166 0.81027 0.85308 0.0
C765 C 0.69283 0.83776 0.80136 0.0
C766 C 0.64469 0.774 0.84353 0.0
C767 C 0.63279 0.76852 0.81292 0.0
H768 H 0.31824 0.99116 0.98888 0.0
H769 H 0.2064 0.91223 0.04116 0.0
H770 H 0.22691 0.96934 0.07826 0.0
H771 H 0.27626 0.04285 0.09522 0.0
H772 H 0.3847 0.12307 0.04042 0.0
H773 H 0.36505 0.06522 1.00413 0.0
C774 C 0.29805 0.98657 1.0082 0.0
C775 C 0.26043 0.94758 1.01193 0.0
C776 C 0.30917 1.02016 1.0287 0.0
C777 C 0.23527 0.94195 1.03754 0.0
C778 C 0.24692 0.97471 0.05869 0.0
C779 C 0.29547 0.04751 0.07529 0.0
C780 C 0.33199 0.08702 0.07047 0.0
C781 C 0.28365 1.01411 0.05439 0.0
C782 C 0.35636 0.093 0.04442 0.0
C783 C 0.34526 0.05984 1.02383 0.0
H784 H 0.83064 0.78754 0.49984 0.0
H785 H 0.75714 0.6595 0.53203 0.0
H786 H 0.72195 0.68149 0.56901 0.0
H787 H 0.70956 0.73634 0.59048 0.0
H788 H 0.77983 0.864 0.55685 0.0
H789 H 0.818 0.84302 0.52162 0.0
C790 C 0.8069 0.76459 0.51501 0.0
C791 C 0.79632 0.72192 0.51327 0.0
C792 C 0.78588 0.77736 0.53563 0.0
C793 C 0.76581 0.69248 0.5331 0.0
C794 C 0.74556 0.70503 0.5541 0.0
C795 C 0.73341 0.75967 0.57556 0.0
C796 C 0.74192 0.80176 0.57636 0.0
C797 C 0.75493 0.74725 0.55531 0.0
C798 C 0.77259 0.83143 0.55663 0.0
C799 C 0.79452 0.81943 0.53657 0.0
H800 H 0.0652 0.24741 0.98762 0.0
H801 H 0.127 0.37375 1.02374 0.0
H802 H 0.07115 0.35264 0.06173 0.0
H803 H 1.00254 0.29967 0.08247 0.0
H804 H 0.93706 0.17423 0.04445 0.0
H805 H 0.99568 0.19345 1.00899 0.0
C806 C 0.0663 0.27006 1.00396 0.0
C807 C 0.10007 0.31204 1.00301 0.0
C808 C 0.03307 0.25795 1.02502 0.0
C809 C 0.10147 0.34124 1.02426 0.0
C810 C 0.06938 0.32922 0.04581 0.0
C811 C 1.00115 0.27639 0.06656 0.0
C812 C 0.96542 0.23549 0.06616 0.0
C813 C 0.03467 0.2879 0.04606 0.0
C814 C 0.96407 0.20591 0.04518 0.0
C815 C 0.99767 0.21692 1.02495 0.0
H816 H 0.26557 0.0603 0.4972 0.0
H817 H 0.39373 0.11452 0.52891 0.0
H818 H 0.37264 0.05515 0.56401 0.0
H819 H 0.31831 0.98617 0.5841 0.0
H820 H 0.19052 0.9298 0.55097 0.0
H821 H 0.21087 0.99062 0.51736 0.0
C822 C 0.28867 0.05912 0.51204 0.0
C823 C 0.3311 0.09178 0.51072 0.0
C824 C 0.27645 0.02407 0.53146 0.0
C825 C 0.36087 0.08992 0.52982 0.0
C826 C 0.34885 0.05581 0.54968 0.0
C827 C 0.29491 0.98726 0.56954 0.0
C828 C 0.25286 0.95362 0.5702 0.0
C829 C 0.30686 0.02242 0.55041 0.0
C830 C 0.22303 0.95527 0.55095 0.0
C831 C 0.23464 0.99019 0.53186 0.0
H832 H 0.84143 0.78954 0.08245 0.0
H833 H 0.7602 0.65863 0.05937 0.0
H834 H 0.71903 0.67751 1.02553 0.0
H835 H 0.70393 0.73066 1.00436 0.0
H836 H 0.78067 0.86129 1.0302 0.0
H837 H 0.82482 0.8433 0.06197 0.0
C838 C 0.81492 0.76541 0.06974 0.0
C839 C 0.80407 0.72282 0.07301 0.0
C840 C 0.79007 0.77642 0.05142 0.0
C841 C 0.76942 0.69162 0.05679 0.0
C842 C 0.74567 0.70239 0.03771 0.0
C843 C 0.73026 0.7552 1.01704 0.0
C844 C 0.73911 0.79728 1.01487 0.0
C845 C 0.75525 0.74454 1.03522 0.0
C846 C 0.77313 0.82867 1.03157 0.0
C847 C 0.79856 0.8184 0.04953 0.0
H848 H 0.05935 0.33806 0.57869 0.0
H849 H 0.12833 0.28505 0.53621 0.0
H850 H 0.06985 0.24595 0.50046 0.0
H851 H 0.99837 0.2266 0.48138 0.0
H852 H 0.92852 0.27684 0.52605 0.0
H853 H 0.98706 0.31579 0.56171 0.0
C854 C 0.06143 0.31761 0.56179 0.0
C855 C 0.09797 0.31403 0.56044 0.0
C856 C 1.02705 0.29404 0.54213 0.0
C857 C 0.10049 0.28814 0.53794 0.0
C858 C 0.06692 0.26557 0.51761 0.0
C859 C 0.99587 0.24551 0.49932 0.0
C860 C 0.95906 0.24843 0.50152 0.0
C861 C 0.02987 0.268 0.51963 0.0
C862 C 0.95626 0.27356 0.5244 0.0
C863 C 0.98989 0.29614 0.54453 0.0
H864 H 0.5971 0.1163 0.13973 0.0
H865 H 0.66091 0.25217 0.14759 0.0
H866 H 0.59349 0.24899 0.15543 0.0
H867 H 0.51635 0.2083 0.15778 0.0
H868 H 0.45176 0.07237 0.15029 0.0
H869 H 0.51955 0.07497 0.14526 0.0
C870 C 0.59637 0.14519 0.14363 0.0
C871 C 0.63425 0.18448 0.14273 0.0
C872 C 0.55728 0.14317 0.1482 0.0
C873 C 0.63238 0.22155 0.14754 0.0
C874 C 0.59378 0.21977 0.15221 0.0
C875 C 0.51694 0.1791 0.15531 0.0
C876 C 0.47877 0.14018 0.1543 0.0
C877 C 0.556 0.18083 0.15217 0.0
C878 C 0.48049 0.1028 0.15116 0.0
C879 C 0.51931 0.10427 0.14817 0.0
H880 H 0.72934 0.5424 0.4112 0.0
H881 H 0.65934 0.6061 0.42946 0.0
H882 H 0.59365 0.53802 0.43077 0.0
H883 H 0.55711 0.4602 0.43105 0.0
H884 H 0.6277 0.39716 0.41256 0.0
H885 H 0.69228 0.46535 0.40753 0.0
C886 C 0.69973 0.54159 0.41524 0.0
C887 C 0.69945 0.57945 0.42052 0.0
C888 C 0.66222 0.50237 0.41633 0.0
C889 C 0.6606 0.57757 0.42534 0.0
C890 C 0.62301 0.53858 0.42626 0.0
C891 C 0.58643 0.46129 0.42535 0.0
C892 C 0.58744 0.42337 0.42249 0.0
C893 C 0.62356 0.50073 0.42239 0.0
C894 C 0.62599 0.42566 0.41548 0.0
C895 C 0.66295 0.46469 0.41242 0.0
H896 H 0.85504 0.32549 0.15003 0.0
H897 H 0.99043 0.39 0.13961 0.0
H898 H 0.9926 0.45812 0.13905 0.0
H899 H 0.95536 0.49895 0.13966 0.0
H900 H 0.81965 0.43267 0.14868 0.0
H901 H 0.81854 0.36567 0.15215 0.0
C902 C 0.8852 0.35435 0.14768 0.0
C903 C 0.92255 0.35248 0.14463 0.0
C904 C 0.88614 0.39317 0.14724 0.0
C905 C 0.9612 0.39042 0.14194 0.0
C906 C 0.96242 0.42938 0.14157 0.0
C907 C 0.92551 0.46984 0.14232 0.0
C908 C 0.88761 0.47108 0.14388 0.0
C909 C 0.92498 0.43109 0.14386 0.0
C910 C 0.84936 0.43299 0.14785 0.0
C911 C 0.84863 0.39451 0.14957 0.0
H912 H 0.5103 0.20598 0.41656 0.0
H913 H 0.44471 0.06985 0.42283 0.0
H914 H 0.51234 0.0715 0.424 0.0
H915 H 0.59019 0.11194 0.42651 0.0
H916 H 0.655 0.24801 0.41977 0.0
H917 H 0.5875 0.24585 0.41605 0.0
C918 C 0.51056 0.1765 0.41796 0.0
C919 C 0.47216 0.1378 0.41976 0.0
C920 C 0.54955 0.17769 0.41893 0.0
C921 C 0.47356 0.10011 0.42138 0.0
C922 C 0.51231 0.10104 0.4222 0.0
C923 C 0.58968 0.14114 0.42375 0.0
C924 C 0.62797 0.18015 0.4237 0.0
C925 C 0.55055 0.1397 0.42143 0.0
C926 C 0.62629 0.21758 0.4205 0.0
C927 C 0.5876 0.21637 0.41815 0.0
H928 H 0.61956 0.41854 0.16377 0.0
H929 H 0.53568 0.46181 0.13304 0.0
H930 H 0.59253 0.53512 0.13739 0.0
H931 H 0.66781 0.58747 0.14708 0.0
H932 H 0.75135 0.54302 0.17659 0.0
H933 H 0.69334 0.47042 0.1755 0.0
C934 C 0.61368 0.44395 0.15794 0.0
C935 C 0.5732 0.43433 0.14804 0.0
C936 C 0.6467 0.48622 0.16023 0.0
C937 C 0.56624 0.46799 0.14107 0.0
C938 C 0.5989 0.51009 0.14338 0.0
C939 C 0.67314 0.56196 0.15372 0.0
C940 C 0.71413 0.571 0.16177 0.0
C941 C 0.63946 0.51969 0.15266 0.0
C942 C 0.72036 0.53727 0.17006 0.0
C943 C 0.68712 0.49553 0.16942 0.0
H944 H 0.93748 0.49407 0.42858 0.0
H945 H 0.80128 0.42185 0.42948 0.0
H946 H 0.80336 0.35679 0.42238 0.0
H947 H 0.84351 0.31986 0.41906 0.0
H948 H 0.97976 0.39133 0.42004 0.0
H949 H 0.97785 0.45707 0.42359 0.0
C950 C 0.9082 0.46411 0.42732 0.0
C951 C 0.86925 0.4631 0.42971 0.0
C952 C 0.9096 0.42657 0.42377 0.0
C953 C 0.83171 0.4239 0.42737 0.0
C954 C 0.83286 0.38653 0.42356 0.0
C955 C 0.87292 0.34976 0.41984 0.0
C956 C 0.91179 0.35044 0.4194 0.0
C957 C 0.8716 0.38743 0.42215 0.0
C958 C 0.9494 0.38968 0.42039 0.0
C959 C 0.94832 0.42735 0.42246 0.0
H960 H 0.11511 0.58131 0.6475 0.0
H961 H 0.25132 0.64688 0.64885 0.0
H962 H 0.24978 0.57958 0.65313 0.0
H963 H 0.21017 0.50225 0.65277 0.0
H964 H 0.07392 0.43607 0.64943 0.0
H965 H 0.07521 0.50354 0.64948 0.0
C966 C 0.1445 0.58093 0.64867 0.0
C967 C 0.18331 0.6193 0.64762 0.0
C968 C 0.14341 0.54198 0.65059 0.0
C969 C 0.221 0.61807 0.64987 0.0
C970 C 0.22015 0.57949 0.65208 0.0
C971 C 0.18061 0.50235 0.65228 0.0
C972 C 0.14195 0.46385 0.65087 0.0
C973 C 0.18158 0.54126 0.65195 0.0
C974 C 0.10414 0.46501 0.65043 0.0
C975 C 0.10486 0.50366 0.65038 0.0
H976 H 0.33478 0.84569 0.90529 0.0
H977 H 0.402 0.9763 0.93345 0.0
H978 H 0.46742 0.97364 0.93715 0.0
H979 H 0.50403 0.93224 0.93662 0.0
H980 H 0.4357 0.80163 0.90832 0.0
H981 H 0.37213 0.80623 0.90104 0.0
C982 C 0.36375 0.87384 0.91197 0.0
C983 C 0.3632 0.91111 0.91929 0.0
C984 C 0.40102 0.87188 0.91451 0.0
C985 C 0.40133 0.94722 0.9276 0.0
C986 C 0.43875 0.94561 0.92993 0.0
C987 C 0.47548 0.90494 0.92837 0.0
C988 C 0.47482 0.86642 0.92341 0.0
C989 C 0.43878 0.90782 0.92406 0.0
C990 C 0.43716 0.83139 0.913 0.0
C991 C 0.40075 0.83407 0.90861 0.0
H992 H 0.54556 0.72278 0.65582 0.0
H993 H 0.61056 0.6516 0.65421 0.0
H994 H 0.54296 0.58578 0.651 0.0
H995 H 0.46562 0.54861 0.6465 0.0
H996 H 0.40107 0.62017 0.64622 0.0
H997 H 0.46826 0.68551 0.65304 0.0
C998 C 0.54509 0.69291 0.65497 0.0
C999 C 0.58331 0.69232 0.65512 0.0
C1000 C 0.5061 0.65516 0.65288 0.0
C1001 C 0.58179 0.65316 0.65405 0.0
C1002 C 0.54308 0.61544 0.65219 0.0
C1003 C 0.46619 0.57849 0.64783 0.0
C1004 C 0.42816 0.57931 0.64564 0.0
C1005 C 0.50508 0.6161 0.65119 0.0
C1006 C 0.42961 0.61836 0.64812 0.0
C1007 C 0.46813 0.65585 0.65177 0.0
H1008 H 0.12577 0.58341 0.92616 0.0
H1009 H 0.25928 0.64285 0.90771 0.0
H1010 H 0.25317 0.57364 0.90226 0.0
H1011 H 0.21104 0.49671 0.90533 0.0
H1012 H 0.07742 0.43641 0.92356 0.0
H1013 H 0.08236 0.50562 0.92565 0.0
C1014 C 0.15343 0.5813 0.9204 0.0
C1015 C 0.19305 0.61849 0.91763 0.0
C1016 C 0.1497 0.54126 0.91724 0.0
C1017 C 0.22856 0.61491 0.91053 0.0
C1018 C 0.22506 0.5753 0.90724 0.0
C1019 C 0.18281 0.49849 0.90958 0.0
C1020 C 0.14393 0.46123 0.91456 0.0
C1021 C 0.18595 0.53831 0.91104 0.0
C1022 C 0.10775 0.46443 0.91967 0.0
C1023 C 0.11061 0.50407 0.921 0.0
H1024 H 0.32695 0.83688 0.65783 0.0
H1025 H 0.39823 0.97316 0.65352 0.0
H1026 H 0.46396 0.97121 0.65179 0.0
H1027 H 0.50106 0.93068 0.64874 0.0
H1028 H 0.42936 0.79448 0.65361 0.0
H1029 H 0.36405 0.79672 0.6574 0.0
C1030 C 0.3568 0.86631 0.65672 0.0
C1031 C 0.35736 0.90516 0.6557 0.0
C1032 C 0.39453 0.86497 0.65548 0.0
C1033 C 0.39659 0.94278 0.65437 0.0
C1034 C 0.43429 0.94169 0.65326 0.0
C1035 C 0.47127 0.90145 0.65109 0.0
C1036 C 0.47041 0.86241 0.65068 0.0
C1037 C 0.43363 0.90294 0.65344 0.0
C1038 C 0.43118 0.82496 0.6533 0.0
C1039 C 0.39373 0.82621 0.65567 0.0
H1040 H 0.55046 0.71696 0.91648 0.0
H1041 H 0.61215 0.64651 0.94025 0.0
H1042 H 0.54392 0.58095 0.94007 0.0
H1043 H 0.4663 0.54432 0.93619 0.0
H1044 H 0.40541 0.61534 0.9118 0.0
H1045 H 0.47386 0.68006 0.9097 0.0
C1046 C 0.5492 0.68731 0.92149 0.0
C1047 C 0.58657 0.68688 0.92858 0.0
C1048 C 0.50988 0.64982 0.92155 0.0
C1049 C 0.58405 0.64794 0.93472 0.0
C1050 C 0.54496 0.6104 0.93474 0.0
C1051 C 0.46796 0.57379 0.92991 0.0
C1052 C 0.43046 0.57478 0.92438 0.0
C1053 C 0.50759 0.61104 0.92857 0.0
C1054 C 0.43348 0.61356 0.91671 0.0
C1055 C 0.4727 0.65063 0.91532 0.0
loop_
_geom_bond_atom_site_label_1
_geom_bond_atom_site_label_2
_geom_bond_distance
_geom_bond_site_symmetry_2
_ccdc_geom_bond_type
Ho0 C3 2.811 . S
Ho0 O20 2.322 . S
Ho0 O22 2.378 . S
Ho0 O23 2.524 . S
Ho0 O24 2.381 . S
Ho0 O25 2.669 . S
Ho0 O27 2.346 . S
Ho0 O31 2.305 . S
Ho1 C12 2.811 . S
Ho1 O21 2.346 . S
Ho1 O25 2.305 . S
Ho1 O26 2.322 . S
Ho1 O28 2.378 . S
Ho1 O29 2.524 . S
Ho1 O30 2.381 . S
Ho1 O31 2.669 . S
C2 O20 1.259 . S
C2 O21 1.268 . S
C3 Ho0 2.811 . S
C3 C4 1.488 . S
C3 O22 1.215 . S
C3 O23 1.289 . S
C4 C3 1.488 . S
C4 C5 1.348 . S
C4 C9 1.413 . S
C5 C4 1.348 . S
C5 C6 1.442 . S
C5 H32 0.930 . S
C6 C5 1.442 . S
C6 C7 1.381 . S
C6 H33 0.931 . S
C7 C6 1.381 . S
C7 C8 1.321 . S
C8 C7 1.321 . S
C8 C9 1.403 . S
C8 H34 0.934 . S
C9 C4 1.413 . S
C9 C8 1.403 . S
C9 H35 0.930 . S
C10 O24 1.275 . S
C10 O25 1.256 . S
C11 O26 1.259 . S
C11 O27 1.268 . S
C12 Ho1 2.811 . S
C12 C13 1.488 1_545 S
C12 O28 1.215 . S
C12 O29 1.289 . S
C13 C12 1.488 1_565 S
C13 C14 1.348 . S
C13 C18 1.413 . S
C14 C13 1.348 . S
C14 C15 1.442 . S
C14 H36 0.930 . S
C15 C14 1.442 . S
C15 C16 1.381 . S
C15 H37 0.931 . S
C16 C15 1.381 . S
C16 C17 1.321 . S
C17 C16 1.321 . S
C17 C18 1.403 . S
C17 H38 0.934 . S
C18 C13 1.413 . S
C18 C17 1.403 . S
C18 H39 0.930 . S
C19 O30 1.275 . S
C19 O31 1.256 . S
O20 Ho0 2.322 . S
O20 C2 1.259 . S
O21 Ho1 2.346 . S
O21 C2 1.268 . S
O22 Ho0 2.378 . S
O22 C3 1.215 . S
O23 Ho0 2.524 . S
O23 C3 1.289 . S
O24 Ho0 2.381 . S
O24 C10 1.275 . S
O25 Ho0 2.669 . S
O25 Ho1 2.305 . S
O25 C10 1.256 . S
O26 Ho1 2.322 . S
O26 C11 1.259 . S
O27 Ho0 2.346 . S
O27 C11 1.268 . S
O28 Ho1 2.378 . S
O28 C12 1.215 . S
O29 Ho1 2.524 . S
O29 C12 1.289 . S
O30 Ho1 2.381 . S
O30 C19 1.275 . S
O31 Ho0 2.305 . S
O31 Ho1 2.669 . S
O31 C19 1.256 . S
H32 C5 0.930 . S
H33 C6 0.931 . S
H34 C8 0.934 . S
H35 C9 0.930 . S
H36 C14 0.930 . S
H37 C15 0.931 . S
H38 C17 0.934 . S
H39 C18 0.930 . S
Ho40 C43 2.811 . S
Ho40 O60 2.322 . S
Ho40 O62 2.378 . S
Ho40 O63 2.524 . S
Ho40 O64 2.381 . S
Ho40 O65 2.669 . S
Ho40 O67 2.346 . S
Ho40 O71 2.305 . S
Ho41 C52 2.811 . S
Ho41 O61 2.346 . S
Ho41 O65 2.305 . S
Ho41 O66 2.322 . S
Ho41 O68 2.378 . S
Ho41 O69 2.524 . S
Ho41 O70 2.381 . S
Ho41 O71 2.669 . S
C42 O60 1.259 . S
C42 O61 1.268 . S
C43 Ho40 2.811 . S
C43 C44 1.488 . S
C43 O62 1.215 . S
C43 O63 1.289 . S
C44 C43 1.488 . S
C44 C45 1.348 . S
C44 C49 1.413 . S
C45 C44 1.348 . S
C45 C46 1.442 . S
C45 H72 0.930 . S
C46 C45 1.442 . S
C46 C47 1.381 . S
C46 H73 0.931 . S
C47 C46 1.381 . S
C47 C48 1.321 . S
C48 C47 1.321 . S
C48 C49 1.403 . S
C48 H74 0.934 . S
C49 C44 1.413 . S
C49 C48 1.403 . S
C49 H75 0.930 . S
C50 O64 1.275 . S
C50 O65 1.256 . S
C51 O66 1.259 . S
C51 O67 1.268 . S
C52 Ho41 2.811 . S
C52 C53 1.488 . S
C52 O68 1.215 . S
C52 O69 1.289 . S
C53 C52 1.488 . S
C53 C54 1.348 . S
C53 C58 1.413 . S
C54 C53 1.348 . S
C54 C55 1.442 . S
C54 H76 0.930 . S
C55 C54 1.442 . S
C55 C56 1.381 . S
C55 H77 0.931 . S
C56 C55 1.381 . S
C56 C57 1.321 . S
C57 C56 1.321 . S
C57 C58 1.403 . S
C57 H78 0.934 . S
C58 C53 1.413 . S
C58 C57 1.403 . S
C58 H79 0.930 . S
C59 O70 1.275 . S
C59 O71 1.256 . S
O60 Ho40 2.322 . S
O60 C42 1.259 . S
O61 Ho41 2.346 . S
O61 C42 1.268 . S
O62 Ho40 2.378 . S
O62 C43 1.215 . S
O63 Ho40 2.524 . S
O63 C43 1.289 . S
O64 Ho40 2.381 . S
O64 C50 1.275 . S
O65 Ho40 2.669 . S
O65 Ho41 2.305 . S
O65 C50 1.256 . S
O66 Ho41 2.322 . S
O66 C51 1.259 . S
O67 Ho40 2.346 . S
O67 C51 1.268 . S
O68 Ho41 2.378 . S
O68 C52 1.215 . S
O69 Ho41 2.524 . S
O69 C52 1.289 . S
O70 Ho41 2.381 . S
O70 C59 1.275 . S
O71 Ho40 2.305 . S
O71 Ho41 2.669 . S
O71 C59 1.256 . S
H72 C45 0.930 . S
H73 C46 0.931 . S
H74 C48 0.934 . S
H75 C49 0.930 . S
H76 C54 0.930 . S
H77 C55 0.931 . S
H78 C57 0.934 . S
H79 C58 0.930 . S
Ho80 C83 2.811 . S
Ho80 O100 2.322 . S
Ho80 O102 2.378 . S
Ho80 O103 2.524 . S
Ho80 O104 2.381 . S
Ho80 O105 2.669 . S
Ho80 O107 2.346 . S
Ho80 O111 2.305 . S
Ho81 C92 2.811 . S
Ho81 O101 2.346 . S
Ho81 O105 2.305 . S
Ho81 O106 2.322 . S
Ho81 O108 2.378 . S
Ho81 O109 2.524 . S
Ho81 O110 2.381 . S
Ho81 O111 2.669 . S
C82 O100 1.259 . S
C82 O101 1.268 . S
C83 Ho80 2.811 . S
C83 C84 1.488 . S
C83 O102 1.215 . S
C83 O103 1.289 . S
C84 C83 1.488 . S
C84 C85 1.348 . S
C84 C89 1.413 . S
C85 C84 1.348 . S
C85 C86 1.442 . S
C85 H112 0.930 . S
C86 C85 1.442 . S
C86 C87 1.381 . S
C86 H113 0.931 . S
C87 C86 1.381 . S
C87 C88 1.321 . S
C88 C87 1.321 . S
C88 C89 1.403 . S
C88 H114 0.934 . S
C89 C84 1.413 . S
C89 C88 1.403 . S
C89 H115 0.930 . S
C90 O104 1.275 . S
C90 O105 1.256 . S
C91 O106 1.259 . S
C91 O107 1.268 . S
C92 Ho81 2.811 . S
C92 C93 1.488 1_655 S
C92 O108 1.215 . S
C92 O109 1.289 . S
C93 C92 1.488 1_455 S
C93 C94 1.348 . S
C93 C98 1.413 . S
C94 C93 1.348 . S
C94 C95 1.442 . S
C94 H116 0.930 . S
C95 C94 1.442 . S
C95 C96 1.381 . S
C95 H117 0.931 . S
C96 C95 1.381 . S
C96 C97 1.321 . S
C97 C96 1.321 . S
C97 C98 1.403 . S
C97 H118 0.934 . S
C98 C93 1.413 . S
C98 C97 1.403 . S
C98 H119 0.930 . S
C99 O110 1.275 . S
C99 O111 1.256 . S
O100 Ho80 2.322 . S
O100 C82 1.259 . S
O101 Ho81 2.346 . S
O101 C82 1.268 . S
O102 Ho80 2.378 . S
O102 C83 1.215 . S
O103 Ho80 2.524 . S
O103 C83 1.289 . S
O104 Ho80 2.381 . S
O104 C90 1.275 . S
O105 Ho80 2.669 . S
O105 Ho81 2.305 . S
O105 C90 1.256 . S
O106 Ho81 2.322 . S
O106 C91 1.259 . S
O107 Ho80 2.346 . S
O107 C91 1.268 . S
O108 Ho81 2.378 . S
O108 C92 1.215 . S
O109 Ho81 2.524 . S
O109 C92 1.289 . S
O110 Ho81 2.381 . S
O110 C99 1.275 . S
O111 Ho80 2.305 . S
O111 Ho81 2.669 . S
O111 C99 1.256 . S
H112 C85 0.930 . S
H113 C86 0.931 . S
H114 C88 0.934 . S
H115 C89 0.930 . S
H116 C94 0.930 . S
H117 C95 0.931 . S
H118 C97 0.934 . S
H119 C98 0.930 . S
Ho120 C123 2.811 . S
Ho120 O140 2.322 . S
Ho120 O142 2.378 . S
Ho120 O143 2.524 . S
Ho120 O144 2.381 . S
Ho120 O145 2.669 . S
Ho120 O147 2.346 . S
Ho120 O151 2.305 . S
Ho121 C132 2.811 . S
Ho121 O141 2.346 . S
Ho121 O145 2.305 . S
Ho121 O146 2.322 . S
Ho121 O148 2.378 . S
Ho121 O149 2.524 . S
Ho121 O150 2.381 . S
Ho121 O151 2.669 . S
C122 O140 1.259 . S
C122 O141 1.268 . S
C123 Ho120 2.811 . S
C123 C124 1.488 1_545 S
C123 O142 1.215 . S
C123 O143 1.289 . S
C124 C123 1.488 1_565 S
C124 C125 1.348 . S
C124 C129 1.413 . S
C125 C124 1.348 . S
C125 C126 1.442 . S
C125 H152 0.930 . S
C126 C125 1.442 . S
C126 C127 1.381 . S
C126 H153 0.931 . S
C127 C126 1.381 . S
C127 C128 1.321 . S
C128 C127 1.321 . S
C128 C129 1.403 . S
C128 H154 0.934 . S
C129 C124 1.413 . S
C129 C128 1.403 . S
C129 H155 0.930 . S
C130 O144 1.275 . S
C130 O145 1.256 . S
C131 O146 1.259 . S
C131 O147 1.268 . S
C132 Ho121 2.811 . S
C132 C133 1.488 . S
C132 O148 1.215 . S
C132 O149 1.289 . S
C133 C132 1.488 . S
C133 C134 1.348 . S
C133 C138 1.413 . S
C134 C133 1.348 . S
C134 C135 1.442 . S
C134 H156 0.930 . S
C135 C134 1.442 . S
C135 C136 1.381 . S
C135 H157 0.931 . S
C136 C135 1.381 . S
C136 C137 1.321 . S
C137 C136 1.321 . S
C137 C138 1.403 . S
C137 H158 0.934 . S
C138 C133 1.413 . S
C138 C137 1.403 . S
C138 H159 0.930 . S
C139 O150 1.275 . S
C139 O151 1.256 . S
O140 Ho120 2.322 . S
O140 C122 1.259 . S
O141 Ho121 2.346 . S
O141 C122 1.268 . S
O142 Ho120 2.378 . S
O142 C123 1.215 . S
O143 Ho120 2.524 . S
O143 C123 1.289 . S
O144 Ho120 2.381 . S
O144 C130 1.275 . S
O145 Ho120 2.669 . S
O145 Ho121 2.305 . S
O145 C130 1.256 . S
O146 Ho121 2.322 . S
O146 C131 1.259 . S
O147 Ho120 2.346 . S
O147 C131 1.268 . S
O148 Ho121 2.378 . S
O148 C132 1.215 . S
O149 Ho121 2.524 . S
O149 C132 1.289 . S
O150 Ho121 2.381 . S
O150 C139 1.275 . S
O151 Ho120 2.305 . S
O151 Ho121 2.669 . S
O151 C139 1.256 . S
H152 C125 0.930 . S
H153 C126 0.931 . S
H154 C128 0.934 . S
H155 C129 0.930 . S
H156 C134 0.930 . S
H157 C135 0.931 . S
H158 C137 0.934 . S
H159 C138 0.930 . S
Ho160 C163 2.811 . S
Ho160 O180 2.322 . S
Ho160 O182 2.378 . S
Ho160 O183 2.524 . S
Ho160 O184 2.381 . S
Ho160 O185 2.669 . S
Ho160 O187 2.346 . S
Ho160 O191 2.305 . S
Ho161 C172 2.811 . S
Ho161 O181 2.346 . S
Ho161 O185 2.305 . S
Ho161 O186 2.322 . S
Ho161 O188 2.378 . S
Ho161 O189 2.524 . S
Ho161 O190 2.381 . S
Ho161 O191 2.669 . S
C162 O180 1.259 . S
C162 O181 1.268 . S
C163 Ho160 2.811 . S
C163 C164 1.488 . S
C163 O182 1.215 . S
C163 O183 1.289 . S
C164 C163 1.488 . S
C164 C165 1.348 . S
C164 C169 1.413 . S
C165 C164 1.348 . S
C165 C166 1.442 . S
C165 H192 0.930 . S
C166 C165 1.442 . S
C166 C167 1.381 . S
C166 H193 0.931 . S
C167 C166 1.381 . S
C167 C168 1.321 . S
C168 C167 1.321 . S
C168 C169 1.403 . S
C168 H194 0.934 . S
C169 C164 1.413 . S
C169 C168 1.403 . S
C169 H195 0.930 . S
C170 O184 1.275 . S
C170 O185 1.256 . S
C171 O186 1.259 . S
C171 O187 1.268 . S
C172 Ho161 2.811 . S
C172 C173 1.488 . S
C172 O188 1.215 . S
C172 O189 1.289 . S
C173 C172 1.488 . S
C173 C174 1.348 . S
C173 C178 1.413 . S
C174 C173 1.348 . S
C174 C175 1.442 . S
C174 H196 0.930 . S
C175 C174 1.442 . S
C175 C176 1.381 . S
C175 H197 0.931 . S
C176 C175 1.381 . S
C176 C177 1.321 . S
C177 C176 1.321 . S
C177 C178 1.403 . S
C177 H198 0.934 . S
C178 C173 1.413 . S
C178 C177 1.403 . S
C178 H199 0.930 . S
C179 O190 1.275 . S
C179 O191 1.256 . S
O180 Ho160 2.322 . S
O180 C162 1.259 . S
O181 Ho161 2.346 . S
O181 C162 1.268 . S
O182 Ho160 2.378 . S
O182 C163 1.215 . S
O183 Ho160 2.524 . S
O183 C163 1.289 . S
O184 Ho160 2.381 . S
O184 C170 1.275 . S
O185 Ho160 2.669 . S
O185 Ho161 2.305 . S
O185 C170 1.256 . S
O186 Ho161 2.322 . S
O186 C171 1.259 . S
O187 Ho160 2.346 . S
O187 C171 1.268 . S
O188 Ho161 2.378 . S
O188 C172 1.215 . S
O189 Ho161 2.524 . S
O189 C172 1.289 . S
O190 Ho161 2.381 . S
O190 C179 1.275 . S
O191 Ho160 2.305 . S
O191 Ho161 2.669 . S
O191 C179 1.256 . S
H192 C165 0.930 . S
H193 C166 0.931 . S
H194 C168 0.934 . S
H195 C169 0.930 . S
H196 C174 0.930 . S
H197 C175 0.931 . S
H198 C177 0.934 . S
H199 C178 0.930 . S
Ho200 C203 2.811 . S
Ho200 O220 2.322 . S
Ho200 O222 2.378 . S
Ho200 O223 2.524 . S
Ho200 O224 2.381 . S
Ho200 O225 2.669 . S
Ho200 O227 2.346 . S
Ho200 O231 2.305 . S
Ho201 C212 2.811 . S
Ho201 O221 2.346 . S
Ho201 O225 2.305 . S
Ho201 O226 2.322 . S
Ho201 O228 2.378 . S
Ho201 O229 2.524 . S
Ho201 O230 2.381 . S
Ho201 O231 2.669 . S
C202 O220 1.259 . S
C202 O221 1.268 . S
C203 Ho200 2.811 . S
C203 C204 1.488 1_655 S
C203 O222 1.215 . S
C203 O223 1.289 . S
C204 C203 1.488 1_455 S
C204 C205 1.348 . S
C204 C209 1.413 . S
C205 C204 1.348 . S
C205 C206 1.442 . S
C205 H232 0.930 . S
C206 C205 1.442 . S
C206 C207 1.381 . S
C206 H233 0.931 . S
C207 C206 1.381 . S
C207 C208 1.321 . S
C208 C207 1.321 . S
C208 C209 1.403 . S
C208 H234 0.934 . S
C209 C204 1.413 . S
C209 C208 1.403 . S
C209 H235 0.930 . S
C210 O224 1.275 . S
C210 O225 1.256 . S
C211 O226 1.259 . S
C211 O227 1.268 . S
C212 Ho201 2.811 . S
C212 C213 1.488 . S
C212 O228 1.215 . S
C212 O229 1.289 . S
C213 C212 1.488 . S
C213 C214 1.348 . S
C213 C218 1.413 . S
C214 C213 1.348 . S
C214 C215 1.442 . S
C214 H236 0.930 . S
C215 C214 1.442 . S
C215 C216 1.381 . S
C215 H237 0.931 . S
C216 C215 1.381 . S
C216 C217 1.321 . S
C217 C216 1.321 . S
C217 C218 1.403 . S
C217 H238 0.934 . S
C218 C213 1.413 . S
C218 C217 1.403 . S
C218 H239 0.930 . S
C219 O230 1.275 . S
C219 O231 1.256 . S
O220 Ho200 2.322 . S
O220 C202 1.259 . S
O221 Ho201 2.346 . S
O221 C202 1.268 . S
O222 Ho200 2.378 . S
O222 C203 1.215 . S
O223 Ho200 2.524 . S
O223 C203 1.289 . S
O224 Ho200 2.381 . S
O224 C210 1.275 . S
O225 Ho200 2.669 . S
O225 Ho201 2.305 . S
O225 C210 1.256 . S
O226 Ho201 2.322 . S
O226 C211 1.259 . S
O227 Ho200 2.346 . S
O227 C211 1.268 . S
O228 Ho201 2.378 . S
O228 C212 1.215 . S
O229 Ho201 2.524 . S
O229 C212 1.289 . S
O230 Ho201 2.381 . S
O230 C219 1.275 . S
O231 Ho200 2.305 . S
O231 Ho201 2.669 . S
O231 C219 1.256 . S
H232 C205 0.930 . S
H233 C206 0.931 . S
H234 C208 0.934 . S
H235 C209 0.930 . S
H236 C214 0.930 . S
H237 C215 0.931 . S
H238 C217 0.934 . S
H239 C218 0.930 . S
Ho240 C243 2.811 . S
Ho240 O260 2.322 . S
Ho240 O262 2.378 . S
Ho240 O263 2.524 . S
Ho240 O264 2.381 . S
Ho240 O265 2.669 . S
Ho240 O267 2.346 . S
Ho240 O271 2.305 . S
Ho241 C252 2.811 . S
Ho241 O261 2.346 . S
Ho241 O265 2.305 . S
Ho241 O266 2.322 . S
Ho241 O268 2.378 . S
Ho241 O269 2.524 . S
Ho241 O270 2.381 . S
Ho241 O271 2.669 . S
C242 O260 1.259 . S
C242 O261 1.268 . S
C243 Ho240 2.811 . S
C243 C244 1.488 1_455 S
C243 O262 1.215 . S
C243 O263 1.289 . S
C244 C243 1.488 1_655 S
C244 C245 1.348 . S
C244 C249 1.413 . S
C245 C244 1.348 . S
C245 C246 1.442 . S
C245 H272 0.930 . S
C246 C245 1.442 . S
C246 C247 1.381 . S
C246 H273 0.931 . S
C247 C246 1.381 . S
C247 C248 1.321 . S
C248 C247 1.321 . S
C248 C249 1.403 . S
C248 H274 0.934 . S
C249 C244 1.413 . S
C249 C248 1.403 . S
C249 H275 0.930 . S
C250 O264 1.275 . S
C250 O265 1.256 . S
C251 O266 1.259 . S
C251 O267 1.268 . S
C252 Ho241 2.811 . S
C252 C253 1.488 . S
C252 O268 1.215 . S
C252 O269 1.289 . S
C253 C252 1.488 . S
C253 C254 1.348 . S
C253 C258 1.413 . S
C254 C253 1.348 . S
C254 C255 1.442 . S
C254 H276 0.930 . S
C255 C254 1.442 . S
C255 C256 1.381 . S
C255 H277 0.931 . S
C256 C255 1.381 . S
C256 C257 1.321 . S
C257 C256 1.321 . S
C257 C258 1.403 . S
C257 H278 0.934 . S
C258 C253 1.413 . S
C258 C257 1.403 . S
C258 H279 0.930 . S
C259 O270 1.275 . S
C259 O271 1.256 . S
O260 Ho240 2.322 . S
O260 C242 1.259 . S
O261 Ho241 2.346 . S
O261 C242 1.268 . S
O262 Ho240 2.378 . S
O262 C243 1.215 . S
O263 Ho240 2.524 . S
O263 C243 1.289 . S
O264 Ho240 2.381 . S
O264 C250 1.275 . S
O265 Ho240 2.669 . S
O265 Ho241 2.305 . S
O265 C250 1.256 . S
O266 Ho241 2.322 . S
O266 C251 1.259 . S
O267 Ho240 2.346 . S
O267 C251 1.268 . S
O268 Ho241 2.378 . S
O268 C252 1.215 . S
O269 Ho241 2.524 . S
O269 C252 1.289 . S
O270 Ho241 2.381 . S
O270 C259 1.275 . S
O271 Ho240 2.305 . S
O271 Ho241 2.669 . S
O271 C259 1.256 . S
H272 C245 0.930 . S
H273 C246 0.931 . S
H274 C248 0.934 . S
H275 C249 0.930 . S
H276 C254 0.930 . S
H277 C255 0.931 . S
H278 C257 0.934 . S
H279 C258 0.930 . S
Ho280 C283 2.811 . S
Ho280 O300 2.322 . S
Ho280 O302 2.378 . S
Ho280 O303 2.524 . S
Ho280 O304 2.381 . S
Ho280 O305 2.669 . S
Ho280 O307 2.346 . S
Ho280 O311 2.305 . S
Ho281 C292 2.811 . S
Ho281 O301 2.346 . S
Ho281 O305 2.305 . S
Ho281 O306 2.322 . S
Ho281 O308 2.378 . S
Ho281 O309 2.524 . S
Ho281 O310 2.381 . S
Ho281 O311 2.669 . S
C282 O300 1.259 . S
C282 O301 1.268 . S
C283 Ho280 2.811 . S
C283 C284 1.488 . S
C283 O302 1.215 . S
C283 O303 1.289 . S
C284 C283 1.488 . S
C284 C285 1.348 . S
C284 C289 1.413 . S
C285 C284 1.348 . S
C285 C286 1.442 . S
C285 H312 0.930 . S
C286 C285 1.442 . S
C286 C287 1.381 . S
C286 H313 0.931 . S
C287 C286 1.381 . S
C287 C288 1.321 . S
C288 C287 1.321 . S
C288 C289 1.403 . S
C288 H314 0.934 . S
C289 C284 1.413 . S
C289 C288 1.403 . S
C289 H315 0.930 . S
C290 O304 1.275 . S
C290 O305 1.256 . S
C291 O306 1.259 . S
C291 O307 1.268 . S
C292 Ho281 2.811 . S
C292 C293 1.488 1_565 S
C292 O308 1.215 . S
C292 O309 1.289 . S
C293 C292 1.488 1_545 S
C293 C294 1.348 . S
C293 C298 1.413 . S
C294 C293 1.348 . S
C294 C295 1.442 . S
C294 H316 0.930 . S
C295 C294 1.442 . S
C295 C296 1.381 . S
C295 H317 0.931 . S
C296 C295 1.381 . S
C296 C297 1.321 . S
C297 C296 1.321 . S
C297 C298 1.403 . S
C297 H318 0.934 . S
C298 C293 1.413 . S
C298 C297 1.403 . S
C298 H319 0.930 . S
C299 O310 1.275 . S
C299 O311 1.256 . S
O300 Ho280 2.322 . S
O300 C282 1.259 . S
O301 Ho281 2.346 . S
O301 C282 1.268 . S
O302 Ho280 2.378 . S
O302 C283 1.215 . S
O303 Ho280 2.524 . S
O303 C283 1.289 . S
O304 Ho280 2.381 . S
O304 C290 1.275 . S
O305 Ho280 2.669 . S
O305 Ho281 2.305 . S
O305 C290 1.256 . S
O306 Ho281 2.322 . S
O306 C291 1.259 . S
O307 Ho280 2.346 . S
O307 C291 1.268 . S
O308 Ho281 2.378 . S
O308 C292 1.215 . S
O309 Ho281 2.524 . S
O309 C292 1.289 . S
O310 Ho281 2.381 . S
O310 C299 1.275 . S
O311 Ho280 2.305 . S
O311 Ho281 2.669 . S
O311 C299 1.256 . S
H312 C285 0.930 . S
H313 C286 0.931 . S
H314 C288 0.934 . S
H315 C289 0.930 . S
H316 C294 0.930 . S
H317 C295 0.931 . S
H318 C297 0.934 . S
H319 C298 0.930 . S
Ho320 C323 2.811 . S
Ho320 O340 2.322 . S
Ho320 O342 2.378 . S
Ho320 O343 2.524 . S
Ho320 O344 2.381 . S
Ho320 O345 2.669 . S
Ho320 O347 2.346 . S
Ho320 O351 2.305 . S
Ho321 C332 2.811 . S
Ho321 O341 2.346 . S
Ho321 O345 2.305 . S
Ho321 O346 2.322 . S
Ho321 O348 2.378 . S
Ho321 O349 2.524 . S
Ho321 O350 2.381 . S
Ho321 O351 2.669 . S
C322 O340 1.259 . S
C322 O341 1.268 . S
C323 Ho320 2.811 . S
C323 C324 1.488 . S
C323 O342 1.215 . S
C323 O343 1.289 . S
C324 C323 1.488 . S
C324 C325 1.348 . S
C324 C329 1.413 . S
C325 C324 1.348 . S
C325 C326 1.442 . S
C325 H352 0.930 . S
C326 C325 1.442 . S
C326 C327 1.381 . S
C326 H353 0.931 . S
C327 C326 1.381 . S
C327 C328 1.321 . S
C328 C327 1.321 . S
C328 C329 1.403 . S
C328 H354 0.934 . S
C329 C324 1.413 . S
C329 C328 1.403 . S
C329 H355 0.930 . S
C330 O344 1.275 . S
C330 O345 1.256 . S
C331 O346 1.259 . S
C331 O347 1.268 . S
C332 Ho321 2.811 . S
C332 C333 1.488 . S
C332 O348 1.215 . S
C332 O349 1.289 . S
C333 C332 1.488 . S
C333 C334 1.348 . S
C333 C338 1.413 . S
C334 C333 1.348 . S
C334 C335 1.442 . S
C334 H356 0.930 . S
C335 C334 1.442 . S
C335 C336 1.381 . S
C335 H357 0.931 . S
C336 C335 1.381 . S
C336 C337 1.321 . S
C337 C336 1.321 . S
C337 C338 1.403 . S
C337 H358 0.934 . S
C338 C333 1.413 . S
C338 C337 1.403 . S
C338 H359 0.930 . S
C339 O350 1.275 . S
C339 O351 1.256 . S
O340 Ho320 2.322 . S
O340 C322 1.259 . S
O341 Ho321 2.346 . S
O341 C322 1.268 . S
O342 Ho320 2.378 . S
O342 C323 1.215 . S
O343 Ho320 2.524 . S
O343 C323 1.289 . S
O344 Ho320 2.381 . S
O344 C330 1.275 . S
O345 Ho320 2.669 . S
O345 Ho321 2.305 . S
O345 C330 1.256 . S
O346 Ho321 2.322 . S
O346 C331 1.259 . S
O347 Ho320 2.346 . S
O347 C331 1.268 . S
O348 Ho321 2.378 . S
O348 C332 1.215 . S
O349 Ho321 2.524 . S
O349 C332 1.289 . S
O350 Ho321 2.381 . S
O350 C339 1.275 . S
O351 Ho320 2.305 . S
O351 Ho321 2.669 . S
O351 C339 1.256 . S
H352 C325 0.930 . S
H353 C326 0.931 . S
H354 C328 0.934 . S
H355 C329 0.930 . S
H356 C334 0.930 . S
H357 C335 0.931 . S
H358 C337 0.934 . S
H359 C338 0.930 . S
Ho360 C363 2.811 . S
Ho360 O380 2.322 . S
Ho360 O382 2.378 . S
Ho360 O383 2.524 . S
Ho360 O384 2.381 . S
Ho360 O385 2.669 . S
Ho360 O387 2.346 . S
Ho360 O391 2.305 . S
Ho361 C372 2.811 . S
Ho361 O381 2.346 . S
Ho361 O385 2.305 . S
Ho361 O386 2.322 . S
Ho361 O388 2.378 . S
Ho361 O389 2.524 . S
Ho361 O390 2.381 . S
Ho361 O391 2.669 . S
C362 O380 1.259 . S
C362 O381 1.268 . S
C363 Ho360 2.811 . S
C363 C364 1.488 . S
C363 O382 1.215 . S
C363 O383 1.289 . S
C364 C363 1.488 . S
C364 C365 1.348 . S
C364 C369 1.413 . S
C365 C364 1.348 . S
C365 C366 1.442 . S
C365 H392 0.930 . S
C366 C365 1.442 . S
C366 C367 1.381 . S
C366 H393 0.931 . S
C367 C366 1.381 . S
C367 C368 1.321 . S
C368 C367 1.321 . S
C368 C369 1.403 . S
C368 H394 0.934 . S
C369 C364 1.413 . S
C369 C368 1.403 . S
C369 H395 0.930 . S
C370 O384 1.275 . S
C370 O385 1.256 . S
C371 O386 1.259 . S
C371 O387 1.268 . S
C372 Ho361 2.811 . S
C372 C373 1.488 1_455 S
C372 O388 1.215 . S
C372 O389 1.289 . S
C373 C372 1.488 1_655 S
C373 C374 1.348 . S
C373 C378 1.413 . S
C374 C373 1.348 . S
C374 C375 1.442 . S
C374 H396 0.930 . S
C375 C374 1.442 . S
C375 C376 1.381 . S
C375 H397 0.931 . S
C376 C375 1.381 . S
C376 C377 1.321 . S
C377 C376 1.321 . S
C377 C378 1.403 . S
C377 H398 0.934 . S
C378 C373 1.413 . S
C378 C377 1.403 . S
C378 H399 0.930 . S
C379 O390 1.275 . S
C379 O391 1.256 . S
O380 Ho360 2.322 . S
O380 C362 1.259 . S
O381 Ho361 2.346 . S
O381 C362 1.268 . S
O382 Ho360 2.378 . S
O382 C363 1.215 . S
O383 Ho360 2.524 . S
O383 C363 1.289 . S
O384 Ho360 2.381 . S
O384 C370 1.275 . S
O385 Ho360 2.669 . S
O385 Ho361 2.305 . S
O385 C370 1.256 . S
O386 Ho361 2.322 . S
O386 C371 1.259 . S
O387 Ho360 2.346 . S
O387 C371 1.268 . S
O388 Ho361 2.378 . S
O388 C372 1.215 . S
O389 Ho361 2.524 . S
O389 C372 1.289 . S
O390 Ho361 2.381 . S
O390 C379 1.275 . S
O391 Ho360 2.305 . S
O391 Ho361 2.669 . S
O391 C379 1.256 . S
H392 C365 0.930 . S
H393 C366 0.931 . S
H394 C368 0.934 . S
H395 C369 0.930 . S
H396 C374 0.930 . S
H397 C375 0.931 . S
H398 C377 0.934 . S
H399 C378 0.930 . S
Ho400 C403 2.811 . S
Ho400 O420 2.322 . S
Ho400 O422 2.378 . S
Ho400 O423 2.524 . S
Ho400 O424 2.381 . S
Ho400 O425 2.669 . S
Ho400 O427 2.346 . S
Ho400 O431 2.305 . S
Ho401 C412 2.811 . S
Ho401 O421 2.346 . S
Ho401 O425 2.305 . S
Ho401 O426 2.322 . S
Ho401 O428 2.378 . S
Ho401 O429 2.524 . S
Ho401 O430 2.381 . S
Ho401 O431 2.669 . S
C402 O420 1.259 . S
C402 O421 1.268 . S
C403 Ho400 2.811 . S
C403 C404 1.488 1_565 S
C403 O422 1.215 . S
C403 O423 1.289 . S
C404 C403 1.488 1_545 S
C404 C405 1.348 . S
C404 C409 1.413 . S
C405 C404 1.348 . S
C405 C406 1.442 . S
C405 H432 0.930 . S
C406 C405 1.442 . S
C406 C407 1.381 . S
C406 H433 0.931 . S
C407 C406 1.381 . S
C407 C408 1.321 . S
C408 C407 1.321 . S
C408 C409 1.403 . S
C408 H434 0.934 . S
C409 C404 1.413 . S
C409 C408 1.403 . S
C409 H435 0.930 . S
C410 O424 1.275 . S
C410 O425 1.256 . S
C411 O426 1.259 . S
C411 O427 1.268 . S
C412 Ho401 2.811 . S
C412 C413 1.488 . S
C412 O428 1.215 . S
C412 O429 1.289 . S
C413 C412 1.488 . S
C413 C414 1.348 . S
C413 C418 1.413 . S
C414 C413 1.348 . S
C414 C415 1.442 . S
C414 H436 0.930 . S
C415 C414 1.442 . S
C415 C416 1.381 . S
C415 H437 0.931 . S
C416 C415 1.381 . S
C416 C417 1.321 . S
C417 C416 1.321 . S
C417 C418 1.403 . S
C417 H438 0.934 . S
C418 C413 1.413 . S
C418 C417 1.403 . S
C418 H439 0.930 . S
C419 O430 1.275 . S
C419 O431 1.256 . S
O420 Ho400 2.322 . S
O420 C402 1.259 . S
O421 Ho401 2.346 . S
O421 C402 1.268 . S
O422 Ho400 2.378 . S
O422 C403 1.215 . S
O423 Ho400 2.524 . S
O423 C403 1.289 . S
O424 Ho400 2.381 . S
O424 C410 1.275 . S
O425 Ho400 2.669 . S
O425 Ho401 2.305 . S
O425 C410 1.256 . S
O426 Ho401 2.322 . S
O426 C411 1.259 . S
O427 Ho400 2.346 . S
O427 C411 1.268 . S
O428 Ho401 2.378 . S
O428 C412 1.215 . S
O429 Ho401 2.524 . S
O429 C412 1.289 . S
O430 Ho401 2.381 . S
O430 C419 1.275 . S
O431 Ho400 2.305 . S
O431 Ho401 2.669 . S
O431 C419 1.256 . S
H432 C405 0.930 . S
H433 C406 0.931 . S
H434 C408 0.934 . S
H435 C409 0.930 . S
H436 C414 0.930 . S
H437 C415 0.931 . S
H438 C417 0.934 . S
H439 C418 0.930 . S
Ho440 C443 2.811 . S
Ho440 O460 2.322 . S
Ho440 O462 2.378 . S
Ho440 O463 2.524 . S
Ho440 O464 2.381 . S
Ho440 O465 2.669 . S
Ho440 O467 2.346 . S
Ho440 O471 2.305 . S
Ho441 C452 2.811 . S
Ho441 O461 2.346 . S
Ho441 O465 2.305 . S
Ho441 O466 2.322 . S
Ho441 O468 2.378 . S
Ho441 O469 2.524 . S
Ho441 O470 2.381 . S
Ho441 O471 2.669 . S
C442 O460 1.259 . S
C442 O461 1.268 . S
C443 Ho440 2.811 . S
C443 C444 1.488 . S
C443 O462 1.215 . S
C443 O463 1.289 . S
C444 C443 1.488 . S
C444 C445 1.348 . S
C444 C449 1.413 . S
C445 C444 1.348 . S
C445 C446 1.442 . S
C445 H472 0.930 . S
C446 C445 1.442 . S
C446 C447 1.381 . S
C446 H473 0.931 . S
C447 C446 1.381 . S
C447 C448 1.321 . S
C448 C447 1.321 . S
C448 C449 1.403 . S
C448 H474 0.934 . S
C449 C444 1.413 . S
C449 C448 1.403 . S
C449 H475 0.930 . S
C450 O464 1.275 . S
C450 O465 1.256 . S
C451 O466 1.259 . S
C451 O467 1.268 . S
C452 Ho441 2.811 . S
C452 C453 1.488 . S
C452 O468 1.215 . S
C452 O469 1.289 . S
C453 C452 1.488 . S
C453 C454 1.348 . S
C453 C458 1.413 . S
C454 C453 1.348 . S
C454 C455 1.442 . S
C454 H476 0.930 . S
C455 C454 1.442 . S
C455 C456 1.381 . S
C455 H477 0.931 . S
C456 C455 1.381 . S
C456 C457 1.321 . S
C457 C456 1.321 . S
C457 C458 1.403 . S
C457 H478 0.934 . S
C458 C453 1.413 . S
C458 C457 1.403 . S
C458 H479 0.930 . S
C459 O470 1.275 . S
C459 O471 1.256 . S
O460 Ho440 2.322 . S
O460 C442 1.259 . S
O461 Ho441 2.346 . S
O461 C442 1.268 . S
O462 Ho440 2.378 . S
O462 C443 1.215 . S
O463 Ho440 2.524 . S
O463 C443 1.289 . S
O464 Ho440 2.381 . S
O464 C450 1.275 . S
O465 Ho440 2.669 . S
O465 Ho441 2.305 . S
O465 C450 1.256 . S
O466 Ho441 2.322 . S
O466 C451 1.259 . S
O467 Ho440 2.346 . S
O467 C451 1.268 . S
O468 Ho441 2.378 . S
O468 C452 1.215 . S
O469 Ho441 2.524 . S
O469 C452 1.289 . S
O470 Ho441 2.381 . S
O470 C459 1.275 . S
O471 Ho440 2.305 . S
O471 Ho441 2.669 . S
O471 C459 1.256 . S
H472 C445 0.930 . S
H473 C446 0.931 . S
H474 C448 0.934 . S
H475 C449 0.930 . S
H476 C454 0.930 . S
H477 C455 0.931 . S
H478 C457 0.934 . S
H479 C458 0.930 . S
H480 C486 0.930 . S
H481 C489 0.930 . S
H482 C490 0.930 . S
H483 C491 0.930 . S
H484 C494 0.930 . S
H485 C495 0.930 . S
C486 H480 0.930 . S
C486 C487 1.355 . S
C486 C488 1.415 . S
C487 C486 1.355 . S
C487 C489 1.419 . S
C488 C486 1.415 . S
C488 C493 1.425 . S
C488 C495 1.409 . S
C489 H481 0.930 . S
C489 C487 1.419 . S
C489 C490 1.362 . S
C490 H482 0.930 . S
C490 C489 1.362 . S
C490 C493 1.409 . S
C491 H483 0.930 . S
C491 C492 1.355 . S
C491 C493 1.415 . S
C492 C491 1.355 . S
C492 C494 1.419 . S
C493 C488 1.425 . S
C493 C490 1.409 . S
C493 C491 1.415 . S
C494 H484 0.930 . S
C494 C492 1.419 . S
C494 C495 1.362 . S
C495 H485 0.930 . S
C495 C488 1.409 . S
C495 C494 1.362 . S
H496 C502 0.930 . S
H497 C505 0.930 . S
H498 C506 0.930 . S
H499 C507 0.930 . S
H500 C510 0.930 . S
H501 C511 0.930 . S
C502 H496 0.930 . S
C502 C503 1.355 . S
C502 C504 1.415 1_455 S
C503 C502 1.355 . S
C503 C505 1.419 . S
C504 C502 1.415 1_655 S
C504 C509 1.425 . S
C504 C511 1.409 . S
C505 H497 0.930 . S
C505 C503 1.419 . S
C505 C506 1.362 . S
C506 H498 0.930 . S
C506 C505 1.362 . S
C506 C509 1.409 1_455 S
C507 H499 0.930 . S
C507 C508 1.355 . S
C507 C509 1.415 . S
C508 C507 1.355 . S
C508 C510 1.419 . S
C509 C504 1.425 . S
C509 C506 1.409 1_655 S
C509 C507 1.415 . S
C510 H500 0.930 . S
C510 C508 1.419 . S
C510 C511 1.362 . S
C511 H501 0.930 . S
C511 C504 1.409 . S
C511 C510 1.362 . S
H512 C518 0.930 . S
H513 C521 0.930 . S
H514 C522 0.930 . S
H515 C523 0.930 . S
H516 C526 0.930 . S
H517 C527 0.930 . S
C518 H512 0.930 . S
C518 C519 1.355 . S
C518 C520 1.415 . S
C519 C518 1.355 . S
C519 C521 1.419 . S
C520 C518 1.415 . S
C520 C525 1.425 . S
C520 C527 1.409 . S
C521 H513 0.930 . S
C521 C519 1.419 . S
C521 C522 1.362 . S
C522 H514 0.930 . S
C522 C521 1.362 . S
C522 C525 1.409 . S
C523 H515 0.930 . S
C523 C524 1.355 . S
C523 C525 1.415 1_565 S
C524 C523 1.355 . S
C524 C526 1.419 . S
C525 C520 1.425 . S
C525 C522 1.409 . S
C525 C523 1.415 1_545 S
C526 H516 0.930 . S
C526 C524 1.419 . S
C526 C527 1.362 1_565 S
C527 H517 0.930 . S
C527 C520 1.409 . S
C527 C526 1.362 1_545 S
H528 C534 0.930 . S
H529 C537 0.930 . S
H530 C538 0.930 . S
H531 C539 0.930 . S
H532 C542 0.930 . S
H533 C543 0.930 . S
C534 H528 0.930 . S
C534 C535 1.355 . S
C534 C536 1.415 . S
C535 C534 1.355 . S
C535 C537 1.419 . S
C536 C534 1.415 . S
C536 C541 1.425 . S
C536 C543 1.409 . S
C537 H529 0.930 . S
C537 C535 1.419 . S
C537 C538 1.362 . S
C538 H530 0.930 . S
C538 C537 1.362 . S
C538 C541 1.409 . S
C539 H531 0.930 . S
C539 C540 1.355 . S
C539 C541 1.415 . S
C540 C539 1.355 . S
C540 C542 1.419 . S
C541 C536 1.425 . S
C541 C538 1.409 . S
C541 C539 1.415 . S
C542 H532 0.930 . S
C542 C540 1.419 . S
C542 C543 1.362 . S
C543 H533 0.930 . S
C543 C536 1.409 . S
C543 C542 1.362 . S
H544 C550 0.930 . S
H545 C553 0.930 . S
H546 C554 0.930 . S
H547 C555 0.930 . S
H548 C558 0.930 . S
H549 C559 0.943 . S
C550 H544 0.930 . S
C550 C551 1.355 . S
C550 C552 1.415 1_455 S
C551 C550 1.355 . S
C551 C553 1.419 . S
C552 C550 1.415 1_655 S
C552 C557 1.425 . S
C552 C559 1.409 . S
C553 H545 0.930 . S
C553 C551 1.419 . S
C553 C554 1.362 1_455 S
C554 H546 0.930 . S
C554 C553 1.362 1_655 S
C554 C557 1.409 . S
C555 H547 0.930 . S
C555 C556 1.355 . S
C555 C557 1.415 . S
C556 C555 1.355 . S
C556 C558 1.419 . S
C557 C552 1.425 . S
C557 C554 1.409 . S
C557 C555 1.415 . S
C558 H548 0.930 . S
C558 C556 1.419 . S
C558 C559 1.362 . S
C559 H549 0.943 . S
C559 C552 1.409 . S
C559 C558 1.362 . S
H560 C566 0.930 . S
H561 C569 0.930 . S
H562 C570 0.930 . S
H563 C571 0.930 . S
H564 C574 0.930 . S
H565 C575 0.930 . S
C566 H560 0.930 . S
C566 C567 1.355 . S
C566 C568 1.415 1_565 S
C567 C566 1.355 . S
C567 C569 1.419 . S
C568 C566 1.415 1_545 S
C568 C573 1.425 . S
C568 C575 1.409 . S
C569 H561 0.930 . S
C569 C567 1.419 . S
C569 C570 1.362 1_565 S
C570 H562 0.930 . S
C570 C569 1.362 1_545 S
C570 C573 1.409 . S
C571 H563 0.930 . S
C571 C572 1.355 . S
C571 C573 1.415 . S
C572 C571 1.355 . S
C572 C574 1.419 . S
C573 C568 1.425 . S
C573 C570 1.409 . S
C573 C571 1.415 . S
C574 H564 0.930 . S
C574 C572 1.419 . S
C574 C575 1.362 . S
C575 H565 0.930 . S
C575 C568 1.409 . S
C575 C574 1.362 . S
H576 C582 0.930 . S
H577 C585 0.930 . S
H578 C586 0.930 . S
H579 C587 0.930 . S
H580 C590 0.930 . S
H581 C591 0.930 . S
C582 H576 0.930 . S
C582 C583 1.355 . S
C582 C584 1.415 . S
C583 C582 1.355 . S
C583 C585 1.419 . S
C584 C582 1.415 . S
C584 C589 1.425 . S
C584 C591 1.409 . S
C585 H577 0.930 . S
C585 C583 1.419 . S
C585 C586 1.362 . S
C586 H578 0.930 . S
C586 C585 1.362 . S
C586 C589 1.409 . S
C587 H579 0.930 . S
C587 C588 1.355 . S
C587 C589 1.415 . S
C588 C587 1.355 . S
C588 C590 1.419 . S
C589 C584 1.425 . S
C589 C586 1.409 . S
C589 C587 1.415 . S
C590 H580 0.930 . S
C590 C588 1.419 . S
C590 C591 1.362 . S
C591 H581 0.930 . S
C591 C584 1.409 . S
C591 C590 1.362 . S
H592 C598 0.930 . S
H593 C601 0.930 . S
H594 C602 0.930 . S
H595 C603 0.930 . S
H596 C606 0.930 . S
H597 C607 0.930 . S
C598 H592 0.930 . S
C598 C599 1.355 . S
C598 C600 1.415 . S
C599 C598 1.355 . S
C599 C601 1.419 . S
C600 C598 1.415 . S
C600 C605 1.425 . S
C600 C607 1.409 1_455 S
C601 H593 0.930 . S
C601 C599 1.419 . S
C601 C602 1.362 . S
C602 H594 0.930 . S
C602 C601 1.362 . S
C602 C605 1.409 . S
C603 H595 0.930 . S
C603 C604 1.355 . S
C603 C605 1.415 1_655 S
C604 C603 1.355 . S
C604 C606 1.419 . S
C605 C600 1.425 . S
C605 C602 1.409 . S
C605 C603 1.415 1_455 S
C606 H596 0.930 . S
C606 C604 1.419 . S
C606 C607 1.362 . S
C607 H597 0.930 . S
C607 C600 1.409 1_655 S
C607 C606 1.362 . S
H608 C614 0.930 . S
H609 C617 0.930 . S
H610 C618 0.930 . S
H611 C619 0.930 . S
H612 C622 0.930 . S
H613 C623 0.924 1_565 S
C614 H608 0.930 . S
C614 C615 1.355 . S
C614 C616 1.415 . S
C615 C614 1.355 . S
C615 C617 1.419 . S
C616 C614 1.415 . S
C616 C621 1.425 . S
C616 C623 1.409 1_565 S
C617 H609 0.930 . S
C617 C615 1.419 . S
C617 C618 1.362 . S
C618 H610 0.930 . S
C618 C617 1.362 . S
C618 C621 1.409 . S
C619 H611 0.930 . S
C619 C620 1.355 . S
C619 C621 1.415 1_545 S
C620 C619 1.355 . S
C620 C622 1.419 . S
C621 C616 1.425 . S
C621 C618 1.409 . S
C621 C619 1.415 1_565 S
C622 H612 0.930 . S
C622 C620 1.419 . S
C622 C623 1.362 . S
C623 H613 0.924 1_545 S
C623 C616 1.409 1_545 S
C623 C622 1.362 . S
H624 C630 0.930 . S
H625 C633 0.930 . S
H626 C634 0.930 . S
H627 C635 0.930 . S
H628 C638 0.930 . S
H629 C639 0.930 . S
C630 H624 0.930 . S
C630 C631 1.355 . S
C630 C632 1.415 . S
C631 C630 1.355 . S
C631 C633 1.419 . S
C632 C630 1.415 . S
C632 C637 1.425 . S
C632 C639 1.409 . S
C633 H625 0.930 . S
C633 C631 1.419 . S
C633 C634 1.362 . S
C634 H626 0.930 . S
C634 C633 1.362 . S
C634 C637 1.409 . S
C635 H627 0.930 . S
C635 C636 1.355 . S
C635 C637 1.415 . S
C636 C635 1.355 . S
C636 C638 1.419 . S
C637 C632 1.425 . S
C637 C634 1.409 . S
C637 C635 1.415 . S
C638 H628 0.930 . S
C638 C636 1.419 . S
C638 C639 1.362 . S
C639 H629 0.930 . S
C639 C632 1.409 . S
C639 C638 1.362 . S
H640 C646 0.930 . S
H641 C649 0.930 . S
H642 C650 0.930 . S
H643 C651 0.930 . S
H644 C654 0.930 . S
H645 C655 0.930 . S
C646 H640 0.930 . S
C646 C647 1.355 . S
C646 C648 1.415 . S
C647 C646 1.355 . S
C647 C649 1.419 . S
C648 C646 1.415 . S
C648 C653 1.425 . S
C648 C655 1.409 1_455 S
C649 H641 0.930 . S
C649 C647 1.419 . S
C649 C650 1.362 . S
C650 H642 0.930 . S
C650 C649 1.362 . S
C650 C653 1.409 . S
C651 H643 0.930 . S
C651 C652 1.355 . S
C651 C653 1.415 1_655 S
C652 C651 1.355 . S
C652 C654 1.419 . S
C653 C648 1.425 . S
C653 C650 1.409 . S
C653 C651 1.415 1_455 S
C654 H644 0.930 . S
C654 C652 1.419 . S
C654 C655 1.362 . S
C655 H645 0.930 . S
C655 C648 1.409 1_655 S
C655 C654 1.362 . S
H656 C662 0.930 . S
H657 C665 0.930 . S
H658 C666 0.930 . S
H659 C667 0.930 . S
H660 C670 0.930 . S
H661 C671 0.930 . S
C662 H656 0.930 . S
C662 C663 1.355 . S
C662 C664 1.415 1_545 S
C663 C662 1.355 . S
C663 C665 1.419 . S
C664 C662 1.415 1_565 S
C664 C669 1.425 . S
C664 C671 1.409 . S
C665 H657 0.930 . S
C665 C663 1.419 . S
C665 C666 1.362 . S
C666 H658 0.930 . S
C666 C665 1.362 . S
C666 C669 1.409 1_545 S
C667 H659 0.930 . S
C667 C668 1.355 . S
C667 C669 1.415 . S
C668 C667 1.355 . S
C668 C670 1.419 . S
C669 C664 1.425 . S
C669 C666 1.409 1_565 S
C669 C667 1.415 . S
C670 H660 0.930 . S
C670 C668 1.419 . S
C670 C671 1.362 . S
C671 H661 0.930 . S
C671 C664 1.409 . S
C671 C670 1.362 . S
H672 C678 0.930 . S
H673 C681 0.930 . S
H674 C682 0.930 . S
H675 C683 0.930 . S
H676 C686 0.930 . S
H677 C687 0.930 . S
C678 H672 0.930 . S
C678 C679 1.355 . S
C678 C680 1.415 . S
C679 C678 1.355 . S
C679 C681 1.419 . S
C680 C678 1.415 . S
C680 C685 1.425 . S
C680 C687 1.409 . S
C681 H673 0.930 . S
C681 C679 1.419 . S
C681 C682 1.362 . S
C682 H674 0.930 . S
C682 C681 1.362 . S
C682 C685 1.409 . S
C683 H675 0.930 . S
C683 C684 1.355 . S
C683 C685 1.415 . S
C684 C683 1.355 . S
C684 C686 1.419 . S
C685 C680 1.425 . S
C685 C682 1.409 . S
C685 C683 1.415 . S
C686 H676 0.930 . S
C686 C684 1.419 . S
C686 C687 1.362 . S
C687 H677 0.930 . S
C687 C680 1.409 . S
C687 C686 1.362 . S
H688 C694 0.930 . S
H689 C697 0.930 . S
H690 C698 0.930 . S
H691 C699 0.930 . S
H692 C702 0.930 . S
H693 C703 0.930 . S
C694 H688 0.930 . S
C694 C695 1.355 . S
C694 C696 1.415 . S
C695 C694 1.355 . S
C695 C697 1.419 . S
C696 C694 1.415 . S
C696 C701 1.425 . S
C696 C703 1.409 . S
C697 H689 0.930 . S
C697 C695 1.419 . S
C697 C698 1.362 . S
C698 H690 0.930 . S
C698 C697 1.362 . S
C698 C701 1.409 . S
C699 H691 0.930 . S
C699 C700 1.355 . S
C699 C701 1.415 . S
C700 C699 1.355 . S
C700 C702 1.419 . S
C701 C696 1.425 . S
C701 C698 1.409 . S
C701 C699 1.415 . S
C702 H692 0.930 . S
C702 C700 1.419 . S
C702 C703 1.362 . S
C703 H693 0.930 . S
C703 C696 1.409 . S
C703 C702 1.362 . S
H704 C710 0.930 . S
H705 C713 0.930 . S
H706 C714 0.930 . S
H707 C715 0.930 . S
H708 C718 0.930 . S
H709 C719 0.930 . S
C710 H704 0.930 . S
C710 C711 1.355 . S
C710 C712 1.415 . S
C711 C710 1.355 . S
C711 C713 1.419 . S
C712 C710 1.415 . S
C712 C717 1.425 . S
C712 C719 1.409 . S
C713 H705 0.930 . S
C713 C711 1.419 . S
C713 C714 1.362 . S
C714 H706 0.930 . S
C714 C713 1.362 . S
C714 C717 1.409 . S
C715 H707 0.930 . S
C715 C716 1.355 . S
C715 C717 1.415 . S
C716 C715 1.355 . S
C716 C718 1.419 . S
C717 C712 1.425 . S
C717 C714 1.409 . S
C717 C715 1.415 . S
C718 H708 0.930 . S
C718 C716 1.419 . S
C718 C719 1.362 . S
C719 H709 0.930 . S
C719 C712 1.409 . S
C719 C718 1.362 . S
H720 C726 0.930 . S
H721 C729 0.930 . S
H722 C730 0.930 . S
H723 C731 0.930 . S
H724 C734 0.930 . S
H725 C735 0.930 . S
C726 H720 0.930 . S
C726 C727 1.355 . S
C726 C728 1.415 . S
C727 C726 1.355 . S
C727 C729 1.419 . S
C728 C726 1.415 . S
C728 C733 1.425 . S
C728 C735 1.409 . S
C729 H721 0.930 . S
C729 C727 1.419 . S
C729 C730 1.362 . S
C730 H722 0.930 . S
C730 C729 1.362 . S
C730 C733 1.409 . S
C731 H723 0.930 . S
C731 C732 1.355 . S
C731 C733 1.415 . S
C732 C731 1.355 . S
C732 C734 1.419 . S
C733 C728 1.425 . S
C733 C730 1.409 . S
C733 C731 1.415 . S
C734 H724 0.930 . S
C734 C732 1.419 . S
C734 C735 1.362 . S
C735 H725 0.930 . S
C735 C728 1.409 . S
C735 C734 1.362 . S
H736 C742 0.930 . S
H737 C745 0.930 . S
H738 C746 0.930 . S
H739 C747 0.930 . S
H740 C750 0.930 . S
H741 C751 0.930 . S
C742 H736 0.930 . S
C742 C743 1.355 . S
C742 C744 1.415 . S
C743 C742 1.355 . S
C743 C745 1.419 . S
C744 C742 1.415 . S
C744 C749 1.425 . S
C744 C751 1.409 . S
C745 H737 0.930 . S
C745 C743 1.419 . S
C745 C746 1.362 . S
C746 H738 0.930 . S
C746 C745 1.362 . S
C746 C749 1.409 . S
C747 H739 0.930 . S
C747 C748 1.355 . S
C747 C749 1.415 . S
C748 C747 1.355 . S
C748 C750 1.419 . S
C749 C744 1.425 . S
C749 C746 1.409 . S
C749 C747 1.415 . S
C750 H740 0.930 . S
C750 C748 1.419 . S
C750 C751 1.362 . S
C751 H741 0.930 . S
C751 C744 1.409 . S
C751 C750 1.362 . S
H752 C758 0.930 . S
H753 C761 0.930 . S
H754 C762 0.930 . S
H755 C763 0.930 . S
H756 C766 0.930 . S
H757 C767 0.930 . S
C758 H752 0.930 . S
C758 C759 1.355 . S
C758 C760 1.415 . S
C759 C758 1.355 . S
C759 C761 1.419 . S
C760 C758 1.415 . S
C760 C765 1.425 . S
C760 C767 1.409 . S
C761 H753 0.930 . S
C761 C759 1.419 . S
C761 C762 1.362 . S
C762 H754 0.930 . S
C762 C761 1.362 . S
C762 C765 1.409 . S
C763 H755 0.930 . S
C763 C764 1.355 . S
C763 C765 1.415 . S
C764 C763 1.355 . S
C764 C766 1.419 . S
C765 C760 1.425 . S
C765 C762 1.409 . S
C765 C763 1.415 . S
C766 H756 0.930 . S
C766 C764 1.419 . S
C766 C767 1.362 . S
C767 H757 0.930 . S
C767 C760 1.409 . S
C767 C766 1.362 . S
H768 C774 0.930 . S
H769 C777 0.930 . S
H770 C778 0.930 . S
H771 C779 0.930 . S
H772 C782 0.930 . S
H773 C783 0.930 . S
C774 H768 0.930 . S
C774 C775 1.355 . S
C774 C776 1.415 1_565 S
C775 C774 1.355 . S
C775 C777 1.419 1_556 S
C776 C774 1.415 1_545 S
C776 C781 1.425 1_546 S
C776 C783 1.409 . S
C777 H769 0.930 . S
C777 C775 1.419 1_554 S
C777 C778 1.362 . S
C778 H770 0.930 . S
C778 C777 1.362 . S
C778 C781 1.409 . S
C779 H771 0.930 . S
C779 C780 1.355 . S
C779 C781 1.415 1_545 S
C780 C779 1.355 . S
C780 C782 1.419 1_554 S
C781 C776 1.425 1_564 S
C781 C778 1.409 . S
C781 C779 1.415 1_565 S
C782 H772 0.930 . S
C782 C780 1.419 1_556 S
C782 C783 1.362 . S
C783 H773 0.930 . S
C783 C776 1.409 . S
C783 C782 1.362 . S
H784 C790 0.930 . S
H785 C793 0.930 . S
H786 C794 0.930 . S
H787 C795 0.930 . S
H788 C798 0.930 . S
H789 C799 0.930 . S
C790 H784 0.930 . S
C790 C791 1.355 . S
C790 C792 1.415 . S
C791 C790 1.355 . S
C791 C793 1.419 . S
C792 C790 1.415 . S
C792 C797 1.425 . S
C792 C799 1.409 . S
C793 H785 0.930 . S
C793 C791 1.419 . S
C793 C794 1.362 . S
C794 H786 0.930 . S
C794 C793 1.362 . S
C794 C797 1.409 . S
C795 H787 0.930 . S
C795 C796 1.355 . S
C795 C797 1.415 . S
C796 C795 1.355 . S
C796 C798 1.419 . S
C797 C792 1.425 . S
C797 C794 1.409 . S
C797 C795 1.415 . S
C798 H788 0.930 . S
C798 C796 1.419 . S
C798 C799 1.362 . S
C799 H789 0.930 . S
C799 C792 1.409 . S
C799 C798 1.362 . S
H800 C806 0.930 1_554 S
H801 C809 0.930 . S
H802 C810 0.930 . S
H803 C811 0.930 1_556 S
H804 C814 0.930 . S
H805 C815 0.930 . S
C806 H800 0.930 1_556 S
C806 C807 1.355 . S
C806 C808 1.415 1_556 S
C807 C806 1.355 . S
C807 C809 1.419 . S
C808 C806 1.415 1_554 S
C808 C813 1.425 1_454 S
C808 C815 1.409 . S
C809 H801 0.930 . S
C809 C807 1.419 . S
C809 C810 1.362 1_455 S
C810 H802 0.930 . S
C810 C809 1.362 1_655 S
C810 C813 1.409 . S
C811 H803 0.930 1_554 S
C811 C812 1.355 . S
C811 C813 1.415 1_554 S
C812 C811 1.355 . S
C812 C814 1.419 . S
C813 C808 1.425 1_656 S
C813 C810 1.409 . S
C813 C811 1.415 1_556 S
C814 H804 0.930 . S
C814 C812 1.419 . S
C814 C815 1.362 1_655 S
C815 H805 0.930 . S
C815 C808 1.409 . S
C815 C814 1.362 1_455 S
H816 C822 0.930 . S
H817 C825 0.930 . S
H818 C826 0.930 . S
H819 C827 0.930 . S
H820 C830 0.930 . S
H821 C831 0.930 . S
C822 H816 0.930 . S
C822 C823 1.355 . S
C822 C824 1.415 1_545 S
C823 C822 1.355 . S
C823 C825 1.419 . S
C824 C822 1.415 1_565 S
C824 C829 1.425 1_565 S
C824 C831 1.409 . S
C825 H817 0.930 . S
C825 C823 1.419 . S
C825 C826 1.362 . S
C826 H818 0.930 . S
C826 C825 1.362 . S
C826 C829 1.409 . S
C827 H819 0.930 . S
C827 C828 1.355 . S
C827 C829 1.415 1_565 S
C828 C827 1.355 . S
C828 C830 1.419 . S
C829 C824 1.425 1_545 S
C829 C826 1.409 . S
C829 C827 1.415 1_545 S
C830 H820 0.930 . S
C830 C828 1.419 . S
C830 C831 1.362 . S
C831 H821 0.930 . S
C831 C824 1.409 . S
C831 C830 1.362 . S
H832 C838 0.930 . S
H833 C841 0.930 . S
H834 C842 0.930 . S
H835 C843 0.930 . S
H836 C846 0.930 . S
H837 C847 0.930 . S
C838 H832 0.930 . S
C838 C839 1.355 . S
C838 C840 1.415 1_554 S
C839 C838 1.355 . S
C839 C841 1.419 . S
C840 C838 1.415 1_556 S
C840 C845 1.425 1_556 S
C840 C847 1.409 . S
C841 H833 0.930 . S
C841 C839 1.419 . S
C841 C842 1.362 . S
C842 H834 0.930 . S
C842 C841 1.362 . S
C842 C845 1.409 . S
C843 H835 0.930 . S
C843 C844 1.355 . S
C843 C845 1.415 1_556 S
C844 C843 1.355 . S
C844 C846 1.419 . S
C845 C840 1.425 1_554 S
C845 C842 1.409 . S
C845 C843 1.415 1_554 S
C846 H836 0.930 . S
C846 C844 1.419 . S
C846 C847 1.362 . S
C847 H837 0.930 . S
C847 C840 1.409 . S
C847 C846 1.362 . S
H848 C854 0.930 . S
H849 C857 0.930 . S
H850 C858 0.930 . S
H851 C859 0.930 . S
H852 C862 0.930 . S
H853 C863 0.930 . S
C854 H848 0.930 . S
C854 C855 1.355 . S
C854 C856 1.415 1_455 S
C855 C854 1.355 . S
C855 C857 1.419 . S
C856 C854 1.415 1_655 S
C856 C861 1.425 1_655 S
C856 C863 1.409 . S
C857 H849 0.930 . S
C857 C855 1.419 . S
C857 C858 1.362 . S
C858 H850 0.930 . S
C858 C857 1.362 . S
C858 C861 1.409 . S
C859 H851 0.930 . S
C859 C860 1.355 . S
C859 C861 1.415 1_655 S
C860 C859 1.355 . S
C860 C862 1.419 . S
C861 C856 1.425 1_455 S
C861 C858 1.409 . S
C861 C859 1.415 1_455 S
C862 H852 0.930 . S
C862 C860 1.419 . S
C862 C863 1.362 . S
C863 H853 0.930 . S
C863 C856 1.409 . S
C863 C862 1.362 . S
H864 C870 0.930 . S
H865 C873 0.930 . S
H866 C874 0.930 . S
H867 C875 0.930 . S
H868 C878 0.930 . S
H869 C879 0.930 . S
C870 H864 0.930 . S
C870 C871 1.355 . S
C870 C872 1.415 . S
C871 C870 1.355 . S
C871 C873 1.419 . S
C872 C870 1.415 . S
C872 C877 1.425 . S
C872 C879 1.409 . S
C873 H865 0.930 . S
C873 C871 1.419 . S
C873 C874 1.362 . S
C874 H866 0.930 . S
C874 C873 1.362 . S
C874 C877 1.409 . S
C875 H867 0.930 . S
C875 C876 1.355 . S
C875 C877 1.415 . S
C876 C875 1.355 . S
C876 C878 1.419 . S
C877 C872 1.425 . S
C877 C874 1.409 . S
C877 C875 1.415 . S
C878 H868 0.930 . S
C878 C876 1.419 . S
C878 C879 1.362 . S
C879 H869 0.930 . S
C879 C872 1.409 . S
C879 C878 1.362 . S
H880 C886 0.930 . S
H881 C889 0.930 . S
H882 C890 0.930 . S
H883 C891 0.930 . S
H884 C894 0.930 . S
H885 C895 0.930 . S
C886 H880 0.930 . S
C886 C887 1.355 . S
C886 C888 1.415 . S
C887 C886 1.355 . S
C887 C889 1.419 . S
C888 C886 1.415 . S
C888 C893 1.425 . S
C888 C895 1.409 . S
C889 H881 0.930 . S
C889 C887 1.419 . S
C889 C890 1.362 . S
C890 H882 0.930 . S
C890 C889 1.362 . S
C890 C893 1.409 . S
C891 H883 0.930 . S
C891 C892 1.355 . S
C891 C893 1.415 . S
C892 C891 1.355 . S
C892 C894 1.419 . S
C893 C888 1.425 . S
C893 C890 1.409 . S
C893 C891 1.415 . S
C894 H884 0.930 . S
C894 C892 1.419 . S
C894 C895 1.362 . S
C895 H885 0.930 . S
C895 C888 1.409 . S
C895 C894 1.362 . S
H896 C902 0.930 . S
H897 C905 0.930 . S
H898 C906 0.930 . S
H899 C907 0.930 . S
H900 C910 0.930 . S
H901 C911 0.930 . S
C902 H896 0.930 . S
C902 C903 1.355 . S
C902 C904 1.415 . S
C903 C902 1.355 . S
C903 C905 1.419 . S
C904 C902 1.415 . S
C904 C909 1.425 . S
C904 C911 1.409 . S
C905 H897 0.930 . S
C905 C903 1.419 . S
C905 C906 1.362 . S
C906 H898 0.930 . S
C906 C905 1.362 . S
C906 C909 1.409 . S
C907 H899 0.930 . S
C907 C908 1.355 . S
C907 C909 1.415 . S
C908 C907 1.355 . S
C908 C910 1.419 . S
C909 C904 1.425 . S
C909 C906 1.409 . S
C909 C907 1.415 . S
C910 H900 0.930 . S
C910 C908 1.419 . S
C910 C911 1.362 . S
C911 H901 0.930 . S
C911 C904 1.409 . S
C911 C910 1.362 . S
H912 C918 0.930 . S
H913 C921 0.930 . S
H914 C922 0.930 . S
H915 C923 0.930 . S
H916 C926 0.930 . S
H917 C927 0.930 . S
C918 H912 0.930 . S
C918 C919 1.355 . S
C918 C920 1.415 . S
C919 C918 1.355 . S
C919 C921 1.419 . S
C920 C918 1.415 . S
C920 C925 1.425 . S
C920 C927 1.409 . S
C921 H913 0.930 . S
C921 C919 1.419 . S
C921 C922 1.362 . S
C922 H914 0.930 . S
C922 C921 1.362 . S
C922 C925 1.409 . S
C923 H915 0.930 . S
C923 C924 1.355 . S
C923 C925 1.415 . S
C924 C923 1.355 . S
C924 C926 1.419 . S
C925 C920 1.425 . S
C925 C922 1.409 . S
C925 C923 1.415 . S
C926 H916 0.930 . S
C926 C924 1.419 . S
C926 C927 1.362 . S
C927 H917 0.930 . S
C927 C920 1.409 . S
C927 C926 1.362 . S
H928 C934 0.930 . S
H929 C937 0.930 . S
H930 C938 0.930 . S
H931 C939 0.930 . S
H932 C942 0.930 . S
H933 C943 0.930 . S
C934 H928 0.930 . S
C934 C935 1.355 . S
C934 C936 1.415 . S
C935 C934 1.355 . S
C935 C937 1.419 . S
C936 C934 1.415 . S
C936 C941 1.425 . S
C936 C943 1.409 . S
C937 H929 0.930 . S
C937 C935 1.419 . S
C937 C938 1.362 . S
C938 H930 0.930 . S
C938 C937 1.362 . S
C938 C941 1.409 . S
C939 H931 0.930 . S
C939 C940 1.355 . S
C939 C941 1.415 . S
C940 C939 1.355 . S
C940 C942 1.419 . S
C941 C936 1.425 . S
C941 C938 1.409 . S
C941 C939 1.415 . S
C942 H932 0.930 . S
C942 C940 1.419 . S
C942 C943 1.362 . S
C943 H933 0.930 . S
C943 C936 1.409 . S
C943 C942 1.362 . S
H944 C950 0.930 . S
H945 C953 0.930 . S
H946 C954 0.930 . S
H947 C955 0.930 . S
H948 C958 0.930 . S
H949 C959 0.930 . S
C950 H944 0.930 . S
C950 C951 1.355 . S
C950 C952 1.415 . S
C951 C950 1.355 . S
C951 C953 1.419 . S
C952 C950 1.415 . S
C952 C957 1.425 . S
C952 C959 1.409 . S
C953 H945 0.930 . S
C953 C951 1.419 . S
C953 C954 1.362 . S
C954 H946 0.930 . S
C954 C953 1.362 . S
C954 C957 1.409 . S
C955 H947 0.930 . S
C955 C956 1.355 . S
C955 C957 1.415 . S
C956 C955 1.355 . S
C956 C958 1.419 . S
C957 C952 1.425 . S
C957 C954 1.409 . S
C957 C955 1.415 . S
C958 H948 0.930 . S
C958 C956 1.419 . S
C958 C959 1.362 . S
C959 H949 0.930 . S
C959 C952 1.409 . S
C959 C958 1.362 . S
H960 C966 0.930 . S
H961 C969 0.930 . S
H962 C970 0.930 . S
H963 C971 0.930 . S
H964 C974 0.930 . S
H965 C975 0.930 . S
C966 H960 0.930 . S
C966 C967 1.355 . S
C966 C968 1.415 . S
C967 C966 1.355 . S
C967 C969 1.419 . S
C968 C966 1.415 . S
C968 C973 1.425 . S
C968 C975 1.409 . S
C969 H961 0.930 . S
C969 C967 1.419 . S
C969 C970 1.362 . S
C970 H962 0.930 . S
C970 C969 1.362 . S
C970 C973 1.409 . S
C971 H963 0.930 . S
C971 C972 1.355 . S
C971 C973 1.415 . S
C972 C971 1.355 . S
C972 C974 1.419 . S
C973 C968 1.425 . S
C973 C970 1.409 . S
C973 C971 1.415 . S
C974 H964 0.930 . S
C974 C972 1.419 . S
C974 C975 1.362 . S
C975 H965 0.930 . S
C975 C968 1.409 . S
C975 C974 1.362 . S
H976 C982 0.930 . S
H977 C985 0.930 . S
H978 C986 0.930 . S
H979 C987 0.930 . S
H980 C990 0.930 . S
H981 C991 0.930 . S
C982 H976 0.930 . S
C982 C983 1.355 . S
C982 C984 1.415 . S
C983 C982 1.355 . S
C983 C985 1.419 . S
C984 C982 1.415 . S
C984 C989 1.425 . S
C984 C991 1.409 . S
C985 H977 0.930 . S
C985 C983 1.419 . S
C985 C986 1.362 . S
C986 H978 0.930 . S
C986 C985 1.362 . S
C986 C989 1.409 . S
C987 H979 0.930 . S
C987 C988 1.355 . S
C987 C989 1.415 . S
C988 C987 1.355 . S
C988 C990 1.419 . S
C989 C984 1.425 . S
C989 C986 1.409 . S
C989 C987 1.415 . S
C990 H980 0.930 . S
C990 C988 1.419 . S
C990 C991 1.362 . S
C991 H981 0.930 . S
C991 C984 1.409 . S
C991 C990 1.362 . S
H992 C998 0.930 . S
H993 C1001 0.930 . S
H994 C1002 0.930 . S
H995 C1003 0.930 . S
H996 C1006 0.930 . S
H997 C1007 0.930 . S
C998 H992 0.930 . S
C998 C999 1.355 . S
C998 C1000 1.415 . S
C999 C998 1.355 . S
C999 C1001 1.419 . S
C1000 C998 1.415 . S
C1000 C1005 1.425 . S
C1000 C1007 1.409 . S
C1001 H993 0.930 . S
C1001 C999 1.419 . S
C1001 C1002 1.362 . S
C1002 H994 0.930 . S
C1002 C1001 1.362 . S
C1002 C1005 1.409 . S
C1003 H995 0.930 . S
C1003 C1004 1.355 . S
C1003 C1005 1.415 . S
C1004 C1003 1.355 . S
C1004 C1006 1.419 . S
C1005 C1000 1.425 . S
C1005 C1002 1.409 . S
C1005 C1003 1.415 . S
C1006 H996 0.930 . S
C1006 C1004 1.419 . S
C1006 C1007 1.362 . S
C1007 H997 0.930 . S
C1007 C1000 1.409 . S
C1007 C1006 1.362 . S
H1008 C1014 0.930 . S
H1009 C1017 0.930 . S
H1010 C1018 0.930 . S
H1011 C1019 0.930 . S
H1012 C1022 0.930 . S
H1013 C1023 0.930 . S
C1014 H1008 0.930 . S
C1014 C1015 1.355 . S
C1014 C1016 1.415 . S
C1015 C1014 1.355 . S
C1015 C1017 1.419 . S
C1016 C1014 1.415 . S
C1016 C1021 1.425 . S
C1016 C1023 1.409 . S
C1017 H1009 0.930 . S
C1017 C1015 1.419 . S
C1017 C1018 1.362 . S
C1018 H1010 0.930 . S
C1018 C1017 1.362 . S
C1018 C1021 1.409 . S
C1019 H1011 0.930 . S
C1019 C1020 1.355 . S
C1019 C1021 1.415 . S
C1020 C1019 1.355 . S
C1020 C1022 1.419 . S
C1021 C1016 1.425 . S
C1021 C1018 1.409 . S
C1021 C1019 1.415 . S
C1022 H1012 0.930 . S
C1022 C1020 1.419 . S
C1022 C1023 1.362 . S
C1023 H1013 0.930 . S
C1023 C1016 1.409 . S
C1023 C1022 1.362 . S
H1024 C1030 0.930 . S
H1025 C1033 0.930 . S
H1026 C1034 0.930 . S
H1027 C1035 0.930 . S
H1028 C1038 0.930 . S
H1029 C1039 0.930 . S
C1030 H1024 0.930 . S
C1030 C1031 1.355 . S
C1030 C1032 1.415 . S
C1031 C1030 1.355 . S
C1031 C1033 1.419 . S
C1032 C1030 1.415 . S
C1032 C1037 1.425 . S
C1032 C1039 1.409 . S
C1033 H1025 0.930 . S
C1033 C1031 1.419 . S
C1033 C1034 1.362 . S
C1034 H1026 0.930 . S
C1034 C1033 1.362 . S
C1034 C1037 1.409 . S
C1035 H1027 0.930 . S
C1035 C1036 1.355 . S
C1035 C1037 1.415 . S
C1036 C1035 1.355 . S
C1036 C1038 1.419 . S
C1037 C1032 1.425 . S
C1037 C1034 1.409 . S
C1037 C1035 1.415 . S
C1038 H1028 0.930 . S
C1038 C1036 1.419 . S
C1038 C1039 1.362 . S
C1039 H1029 0.930 . S
C1039 C1032 1.409 . S
C1039 C1038 1.362 . S
H1040 C1046 0.930 . S
H1041 C1049 0.930 . S
H1042 C1050 0.930 . S
H1043 C1051 0.930 . S
H1044 C1054 0.930 . S
H1045 C1055 0.930 . S
C1046 H1040 0.930 . S
C1046 C1047 1.355 . S
C1046 C1048 1.415 . S
C1047 C1046 1.355 . S
C1047 C1049 1.419 . S
C1048 C1046 1.415 . S
C1048 C1053 1.425 . S
C1048 C1055 1.409 . S
C1049 H1041 0.930 . S
C1049 C1047 1.419 . S
C1049 C1050 1.362 . S
C1050 H1042 0.930 . S
C1050 C1049 1.362 . S
C1050 C1053 1.409 . S
C1051 H1043 0.930 . S
C1051 C1052 1.355 . S
C1051 C1053 1.415 . S
C1052 C1051 1.355 . S
C1052 C1054 1.419 . S
C1053 C1048 1.425 . S
C1053 C1050 1.409 . S
C1053 C1051 1.415 . S
C1054 H1044 0.930 . S
C1054 C1052 1.419 . S
C1054 C1055 1.362 . S
C1055 H1045 0.930 . S
C1055 C1048 1.409 . S
C1055 C1054 1.362 . S
C487 C96 1.350 . S
C492 C11 1.306 . S
C503 C127 1.340 . S
C508 C42 1.273 . S
C519 C91 1.303 . S
C524 C176 1.364 . S
C535 C122 1.359 . S
C540 C207 1.382 . S
C551 C16 1.361 . S
C556 C171 1.297 . S
C567 C47 1.380 . S
C572 C202 1.341 . S
C583 C407 1.374 . S
C588 C242 1.351 . S
C599 C291 1.284 . S
C604 C456 1.342 . S
C615 C322 1.281 . S
C620 C247 1.341 . S
C631 C371 1.271 . S
C636 C296 1.343 . S
C647 C402 1.329 . S
C652 C327 1.360 . S
C663 C376 1.378 . S
C668 C451 1.356 . S
C679 C130 1.727 . S
C684 C19 1.671 . S
C695 C50 1.688 . S
C700 C179 1.711 . S
C711 C99 1.737 . S
C716 C210 1.660 . S
C727 C250 1.716 . S
C732 C379 1.683 . S
C743 C299 1.695 . S
C748 C410 1.703 . S
C759 C330 1.676 . S
C764 C459 1.722 . S
C775 C290 2.420 . S
C780 C10 2.420 . S
C791 C59 2.398 . S
C796 C339 2.399 . S
C807 C370 2.391 . S
C812 C90 2.391 . S
C823 C139 2.419 . S
C828 C419 2.419 . S
C839 C170 2.395 . S
C844 C450 2.395 . S
C855 C259 2.418 . S
C860 C219 2.417 . S
C871 C87 1.802 . S
C876 C2 1.819 . S
C887 C51 1.818 . S
C892 C136 1.793 . S
C903 C82 1.793 . S
C908 C167 1.796 . S
C919 C131 1.819 . S
C924 C216 1.802 . S
C935 C7 1.753 . S
C940 C162 1.775 . S
C951 C56 1.793 . S
C956 C211 1.790 . S
C967 C416 1.802 . S
C972 C251 1.800 . S
C983 C282 1.803 . S
C988 C447 1.804 . S
C999 C331 1.811 . S
C1004 C256 1.807 . S
C1015 C287 1.780 . S
C1020 C362 1.812 . S
C1031 C411 1.819 . S
C1036 C336 1.801 . S
C1047 C442 1.774 . S
C1052 C367 1.755 . S
