# Generated by pormake.
# Topology ukk, (4)-cn, num edge types: 1
# Building blocks:
#     Node 0, Type 0, BuildingBlock: GALJAG_clean_sbu_0, # of connection points: 4
#     Node 1, Type 0, BuildingBlock: GALJAG_clean_sbu_0, # of connection points: 4
#     Node 2, Type 0, BuildingBlock: GALJAG_clean_sbu_0, # of connection points: 4
#     Node 3, Type 0, BuildingBlock: GALJAG_clean_sbu_0, # of connection points: 4
#     Node 4, Type 0, BuildingBlock: GALJAG_clean_sbu_0, # of connection points: 4
#     Node 5, Type 0, BuildingBlock: GALJAG_clean_sbu_0, # of connection points: 4
#     Node 6, Type 0, BuildingBlock: GALJAG_clean_sbu_0, # of connection points: 4
#     Node 7, Type 0, BuildingBlock: GALJAG_clean_sbu_0, # of connection points: 4
#     Node 8, Type 0, BuildingBlock: GALJAG_clean_sbu_0, # of connection points: 4
#     Node 9, Type 0, BuildingBlock: GALJAG_clean_sbu_0, # of connection points: 4
#     Node 10, Type 0, BuildingBlock: GALJAG_clean_sbu_0, # of connection points: 4
#     Node 11, Type 0, BuildingBlock: GALJAG_clean_sbu_0, # of connection points: 4
#     Node 12, Type 0, BuildingBlock: GALJAG_clean_sbu_0, # of connection points: 4
#     Node 13, Type 0, BuildingBlock: GALJAG_clean_sbu_0, # of connection points: 4
#     Node 14, Type 0, BuildingBlock: GALJAG_clean_sbu_0, # of connection points: 4
#     Node 15, Type 0, BuildingBlock: GALJAG_clean_sbu_0, # of connection points: 4
#     Edge 16, Type (0, 0), BuildingBlock: MIFKUJ_clean_linker_0, # of connection points: 2
#     Edge 17, Type (0, 0), BuildingBlock: MIFKUJ_clean_linker_0, # of connection points: 2
#     Edge 18, Type (0, 0), BuildingBlock: MIFKUJ_clean_linker_0, # of connection points: 2
#     Edge 19, Type (0, 0), BuildingBlock: MIFKUJ_clean_linker_0, # of connection points: 2
#     Edge 20, Type (0, 0), BuildingBlock: MIFKUJ_clean_linker_0, # of connection points: 2
#     Edge 21, Type (0, 0), BuildingBlock: MIFKUJ_clean_linker_0, # of connection points: 2
#     Edge 22, Type (0, 0), BuildingBlock: MIFKUJ_clean_linker_0, # of connection points: 2
#     Edge 23, Type (0, 0), BuildingBlock: MIFKUJ_clean_linker_0, # of connection points: 2
#     Edge 24, Type (0, 0), BuildingBlock: MIFKUJ_clean_linker_0, # of connection points: 2
#     Edge 25, Type (0, 0), BuildingBlock: MIFKUJ_clean_linker_0, # of connection points: 2
#     Edge 26, Type (0, 0), BuildingBlock: MIFKUJ_clean_linker_0, # of connection points: 2
#     Edge 27, Type (0, 0), BuildingBlock: MIFKUJ_clean_linker_0, # of connection points: 2
#     Edge 28, Type (0, 0), BuildingBlock: MIFKUJ_clean_linker_0, # of connection points: 2
#     Edge 29, Type (0, 0), BuildingBlock: MIFKUJ_clean_linker_0, # of connection points: 2
#     Edge 30, Type (0, 0), BuildingBlock: MIFKUJ_clean_linker_0, # of connection points: 2
#     Edge 31, Type (0, 0), BuildingBlock: MIFKUJ_clean_linker_0, # of connection points: 2
#     Edge 32, Type (0, 0), BuildingBlock: MIFKUJ_clean_linker_0, # of connection points: 2
#     Edge 33, Type (0, 0), BuildingBlock: MIFKUJ_clean_linker_0, # of connection points: 2
#     Edge 34, Type (0, 0), BuildingBlock: MIFKUJ_clean_linker_0, # of connection points: 2
#     Edge 35, Type (0, 0), BuildingBlock: MIFKUJ_clean_linker_0, # of connection points: 2
#     Edge 36, Type (0, 0), BuildingBlock: MIFKUJ_clean_linker_0, # of connection points: 2
#     Edge 37, Type (0, 0), BuildingBlock: MIFKUJ_clean_linker_0, # of connection points: 2
#     Edge 38, Type (0, 0), BuildingBlock: MIFKUJ_clean_linker_0, # of connection points: 2
#     Edge 39, Type (0, 0), BuildingBlock: MIFKUJ_clean_linker_0, # of connection points: 2
#     Edge 40, Type (0, 0), BuildingBlock: MIFKUJ_clean_linker_0, # of connection points: 2
#     Edge 41, Type (0, 0), BuildingBlock: MIFKUJ_clean_linker_0, # of connection points: 2
#     Edge 42, Type (0, 0), BuildingBlock: MIFKUJ_clean_linker_0, # of connection points: 2
#     Edge 43, Type (0, 0), BuildingBlock: MIFKUJ_clean_linker_0, # of connection points: 2
#     Edge 44, Type (0, 0), BuildingBlock: MIFKUJ_clean_linker_0, # of connection points: 2
#     Edge 45, Type (0, 0), BuildingBlock: MIFKUJ_clean_linker_0, # of connection points: 2
#     Edge 46, Type (0, 0), BuildingBlock: MIFKUJ_clean_linker_0, # of connection points: 2
#     Edge 47, Type (0, 0), BuildingBlock: MIFKUJ_clean_linker_0, # of connection points: 2
# Relax obj value: 0.105
# Max RMSD: 0.246
# Mean RMSD: 0.246
data_MOF--net-ukk--node1-GALJAG_clean_sbu_0--edge1-MIFKUJ_clean_linker_0
_symmetry_space_group_name_H-M    P1
_symmetry_Int_Tables_number       1
_symmetry_cell_setting            triclinic
loop_
_symmetry_equiv_pos_as_xyz
'x, y, z'
_cell_length_a     69.322343
_cell_length_b     69.404039
_cell_length_c     23.962975
_cell_angle_alpha  89.954826
_cell_angle_beta   90.002175
_cell_angle_gamma 90.022666
loop_
_atom_site_label
_atom_site_type_symbol
_atom_site_fract_x
_atom_site_fract_y
_atom_site_fract_z
_atom_type_partial_charge
In0 In 0.35469 0.10994 0.14107 0.0
O1 O 0.34614 0.10029 0.05354 0.0
O2 O 0.32534 0.09809 0.11879 0.0
C3 C 0.39202 0.1198 0.12953 0.0
C4 C 0.34016 0.1457 0.14906 0.0
C5 C 0.35739 0.08029 0.21305 0.0
O6 O 0.38331 0.10987 0.09308 0.0
O7 O 0.38188 0.12455 0.17101 0.0
O8 O 0.347 0.09484 0.22352 0.0
O9 O 0.36619 0.08093 0.16702 0.0
C10 C 0.32908 0.09596 0.06761 0.0
O11 O 0.34388 0.13763 0.1032 0.0
O12 O 0.34353 0.13558 0.19196 0.0
In13 In 0.1141 0.64818 0.87659 0.0
O14 O 0.10744 0.65825 0.96511 0.0
O15 O 0.10813 0.67909 0.8994 0.0
C16 C 0.11643 0.60956 0.87782 0.0
C17 C 0.15162 0.65743 0.86968 0.0
C18 C 0.08266 0.6504 0.81171 0.0
O19 O 0.11116 0.61891 0.92059 0.0
O20 O 0.12049 0.61975 0.83578 0.0
O21 O 0.09942 0.65312 0.79202 0.0
O22 O 0.08202 0.64696 0.86345 0.0
C23 C 0.10604 0.67579 0.9509 0.0
O24 O 0.14002 0.66135 0.83038 0.0
O25 O 0.14425 0.64864 0.91052 0.0
In26 In 0.64455 0.89057 0.15163 0.0
O27 O 0.66324 0.86685 0.19155 0.0
O28 O 0.64098 0.85884 0.1349 0.0
C29 C 0.64758 0.92118 0.21961 0.0
C30 C 0.66925 0.8985 0.06826 0.0
C31 C 0.60584 0.88851 0.15193 0.0
O32 O 0.64869 0.90412 0.23799 0.0
O33 O 0.64517 0.92261 0.16758 0.0
O34 O 0.61507 0.89339 0.1085 0.0
O35 O 0.61617 0.88506 0.19415 0.0
C36 C 0.65452 0.85347 0.1662 0.0
O37 O 0.65146 0.89576 0.05924 0.0
O38 O 0.67424 0.89746 0.11877 0.0
In39 In 0.88425 0.35163 0.86122 0.0
O40 O 0.85842 0.34011 0.81122 0.0
O41 O 0.85539 0.3448 0.89882 0.0
C42 C 0.91604 0.35122 0.79741 0.0
C43 C 0.89578 0.32442 0.93287 0.0
C44 C 0.8778 0.38978 0.86704 0.0
O45 O 0.89979 0.34626 0.77787 0.0
O46 O 0.91591 0.35645 0.84781 0.0
O47 O 0.88433 0.38045 0.90833 0.0
O48 O 0.87473 0.37984 0.82391 0.0
C49 C 0.84762 0.3394 0.85388 0.0
O50 O 0.89373 0.34184 0.9477 0.0
O51 O 0.8921 0.32098 0.88217 0.0
In52 In 0.3541 0.38736 0.13327 0.0
O53 O 0.34208 0.36069 0.08811 0.0
O54 O 0.34887 0.35893 0.17485 0.0
C55 C 0.35736 0.41679 0.06126 0.0
C56 C 0.32689 0.40052 0.20311 0.0
C57 C 0.39173 0.37906 0.14028 0.0
O58 O 0.34675 0.40239 0.05045 0.0
O59 O 0.36582 0.41626 0.10786 0.0
O60 O 0.38305 0.38783 0.17932 0.0
O61 O 0.38139 0.37477 0.09866 0.0
C62 C 0.34284 0.35038 0.13182 0.0
O63 O 0.34415 0.39797 0.2188 0.0
O64 O 0.32377 0.39715 0.15216 0.0
In65 In 0.38796 0.64439 0.87789 0.0
O66 O 0.3642 0.65765 0.93279 0.0
O67 O 0.36024 0.65638 0.84447 0.0
C68 C 0.41937 0.63929 0.94224 0.0
C69 C 0.40013 0.67023 0.80246 0.0
C70 C 0.37628 0.60752 0.86914 0.0
O71 O 0.405 0.64888 0.95935 0.0
O72 O 0.41778 0.63278 0.89333 0.0
O73 O 0.38672 0.61534 0.83219 0.0
O74 O 0.37172 0.61836 0.90922 0.0
C75 C 0.35352 0.66133 0.89116 0.0
O76 O 0.39453 0.65352 0.7887 0.0
O77 O 0.40055 0.67339 0.85438 0.0
In78 In 0.64865 0.61492 0.0997 0.0
O79 O 0.66233 0.64199 0.06085 0.0
O80 O 0.64293 0.64524 0.12897 0.0
C81 C 0.65351 0.5872 0.02297 0.0
C82 C 0.67622 0.60538 0.17363 0.0
C83 C 0.61006 0.61179 0.10819 0.0
O84 O 0.65161 0.6047 0.00908 0.0
O85 O 0.65341 0.58405 0.07484 0.0
O86 O 0.62078 0.61181 0.15096 0.0
O87 O 0.61882 0.61331 0.06228 0.0
C88 C 0.65403 0.65329 0.09454 0.0
O89 O 0.65851 0.60265 0.18383 0.0
O90 O 0.67976 0.61292 0.12682 0.0
In91 In 0.60671 0.36245 0.87904 0.0
O92 O 0.63338 0.34961 0.92193 0.0
O93 O 0.63574 0.35924 0.8378 0.0
C94 C 0.57769 0.35947 0.95255 0.0
C95 C 0.59479 0.33564 0.80661 0.0
C96 C 0.60986 0.40105 0.8738 0.0
O97 O 0.59507 0.357 0.96718 0.0
O98 O 0.57522 0.36351 0.90168 0.0
O99 O 0.60376 0.39131 0.83285 0.0
O100 O 0.61415 0.39131 0.91645 0.0
C101 C 0.64394 0.35162 0.87923 0.0
O102 O 0.59633 0.3532 0.79288 0.0
O103 O 0.59898 0.33186 0.85672 0.0
In104 In 0.8584 0.60846 0.61728 0.0
O105 O 0.85056 0.59814 0.52964 0.0
O106 O 0.83072 0.59292 0.59594 0.0
C107 C 0.8951 0.62073 0.60837 0.0
C108 C 0.8407 0.64283 0.62169 0.0
C109 C 0.86302 0.58035 0.69332 0.0
O110 O 0.8878 0.60933 0.57295 0.0
O111 O 0.88384 0.62586 0.6469 0.0
O112 O 0.85168 0.59434 0.7016 0.0
O113 O 0.87177 0.5807 0.64716 0.0
C114 C 0.83432 0.59155 0.54446 0.0
O115 O 0.84443 0.63333 0.6655 0.0
O116 O 0.84571 0.63486 0.57672 0.0
In117 In 0.61217 0.14851 0.3668 0.0
O118 O 0.63885 0.15961 0.31997 0.0
O119 O 0.64047 0.155 0.40803 0.0
C120 C 0.58168 0.14576 0.29823 0.0
C121 C 0.59956 0.17697 0.43257 0.0
C122 C 0.62015 0.1109 0.37761 0.0
O123 O 0.59728 0.15357 0.2823 0.0
O124 O 0.58177 0.13958 0.34777 0.0
O125 O 0.61167 0.12017 0.416 0.0
O126 O 0.62429 0.12063 0.3347 0.0
C127 C 0.64903 0.16014 0.36397 0.0
O128 O 0.60091 0.15978 0.45007 0.0
O129 O 0.60417 0.17946 0.38208 0.0
In130 In 0.1476 0.38059 0.67954 0.0
O131 O 0.16823 0.36156 0.73062 0.0
O132 O 0.14621 0.34815 0.68238 0.0
C133 C 0.14602 0.41464 0.73351 0.0
C134 C 0.17338 0.38498 0.59651 0.0
C135 C 0.1096 0.37403 0.66863 0.0
O136 O 0.14822 0.39893 0.75944 0.0
O137 O 0.14504 0.41302 0.68123 0.0
O138 O 0.1201 0.3781 0.627 0.0
O139 O 0.11831 0.37348 0.71492 0.0
C140 C 0.16046 0.34608 0.71439 0.0
O141 O 0.1555 0.38349 0.58685 0.0
O142 O 0.17794 0.38449 0.6474 0.0
In143 In 0.37568 0.85097 0.33156 0.0
O144 O 0.35589 0.83102 0.28091 0.0
O145 O 0.34428 0.85716 0.31183 0.0
C146 C 0.41008 0.84917 0.27896 0.0
C147 C 0.37765 0.82537 0.41598 0.0
C148 C 0.37317 0.88893 0.35272 0.0
O149 O 0.39441 0.85052 0.25223 0.0
O150 O 0.40816 0.84806 0.33115 0.0
O151 O 0.36768 0.87646 0.38787 0.0
O152 O 0.37975 0.88218 0.30768 0.0
C153 C 0.34121 0.84155 0.28668 0.0
O154 O 0.38076 0.84312 0.42357 0.0
O155 O 0.37364 0.8208 0.36647 0.0
In156 In 0.85174 0.88344 0.60013 0.0
O157 O 0.84059 0.89376 0.68494 0.0
O158 O 0.82027 0.88587 0.62192 0.0
C159 C 0.89052 0.88178 0.60391 0.0
C160 C 0.84398 0.84563 0.59578 0.0
C161 C 0.8475 0.91333 0.53018 0.0
O162 O 0.88073 0.8866 0.64631 0.0
O163 O 0.88071 0.87813 0.56089 0.0
O164 O 0.84614 0.8961 0.51333 0.0
O165 O 0.85091 0.91526 0.58162 0.0
C166 C 0.82304 0.89171 0.67117 0.0
O167 O 0.84071 0.85663 0.55464 0.0
O168 O 0.85135 0.85374 0.63781 0.0
In169 In 0.88876 0.13664 0.36701 0.0
O170 O 0.89871 0.14726 0.28158 0.0
O171 O 0.89961 0.16667 0.35073 0.0
C172 C 0.87808 0.09963 0.35748 0.0
C173 C 0.85316 0.15141 0.37574 0.0
C174 C 0.92008 0.13226 0.43156 0.0
O175 O 0.88638 0.10839 0.31776 0.0
O176 O 0.87549 0.10953 0.40099 0.0
O177 O 0.90503 0.1405 0.44974 0.0
O178 O 0.91902 0.12632 0.38187 0.0
C179 C 0.90244 0.16407 0.2992 0.0
O180 O 0.864 0.14966 0.41808 0.0
O181 O 0.86043 0.14586 0.33025 0.0
In182 In 0.153 0.12397 0.58804 0.0
O183 O 0.16084 0.11811 0.67924 0.0
O184 O 0.18343 0.11981 0.61909 0.0
C185 C 0.11439 0.12556 0.59049 0.0
C186 C 0.16207 0.16092 0.56689 0.0
C187 C 0.15444 0.09059 0.53167 0.0
O188 O 0.12428 0.12448 0.63485 0.0
O189 O 0.12405 0.12613 0.54577 0.0
O190 O 0.15746 0.10652 0.50728 0.0
O191 O 0.15139 0.0918 0.58341 0.0
C192 C 0.17876 0.11722 0.66941 0.0
O193 O 0.17029 0.1473 0.54108 0.0
O194 O 0.14926 0.15576 0.60107 0.0
In195 In 0.12107 0.85853 0.41886 0.0
O196 O 0.14309 0.84119 0.47043 0.0
O197 O 0.15313 0.86379 0.41802 0.0
C198 C 0.08713 0.8553 0.47307 0.0
C199 C 0.11918 0.83224 0.33669 0.0
C200 C 0.12244 0.89697 0.4071 0.0
O201 O 0.10301 0.85581 0.49902 0.0
O202 O 0.08859 0.85598 0.42067 0.0
O203 O 0.12259 0.8858 0.36535 0.0
O204 O 0.12148 0.88867 0.45396 0.0
C205 C 0.15739 0.85026 0.45082 0.0
O206 O 0.11678 0.85002 0.32722 0.0
O207 O 0.12215 0.82797 0.3871 0.0
H208 H 0.39245 0.91698 0.29764 0.0
H209 H 0.38852 0.95172 0.30651 0.0
H210 H 0.34612 0.94325 0.436 0.0
H211 H 0.35023 0.90811 0.42775 0.0
H212 H 0.33427 0.96828 0.34807 0.0
H213 H 0.38583 0.96312 0.47586 0.0
H214 H 0.417 0.95174 0.51273 0.0
H215 H 0.44658 0.97867 0.37594 0.0
H216 H 0.41558 0.98998 0.3377 0.0
H217 H 0.33509 0.07119 0.30431 0.0
H218 H 0.33635 0.04128 0.35945 0.0
H219 H 0.38415 0.0215 0.25938 0.0
H220 H 0.38303 0.05106 0.20495 0.0
H221 H 0.38954 0.01314 0.36895 0.0
H222 H 0.33761 0.00856 0.22985 0.0
H223 H 0.30667 0.01879 0.18843 0.0
H224 H 0.27817 0.00951 0.34529 0.0
H225 H 0.30903 -0.00056 0.38777 0.0
C226 C 0.38245 0.92248 0.3285 0.0
C227 C 0.37162 0.90988 0.36197 0.0
C228 C 0.3803 0.94234 0.33375 0.0
C229 C 0.36717 0.95004 0.37228 0.0
C230 C 0.35643 0.93754 0.40633 0.0
C231 C 0.35881 0.91755 0.40166 0.0
C232 C 0.36399 0.97114 0.37297 0.0
C233 C 0.34616 0.97822 0.35443 0.0
C234 C 0.37954 0.98403 0.38096 0.0
C235 C 0.39832 0.97739 0.40386 0.0
C236 C 0.39897 0.96653 0.45343 0.0
C237 C 0.41662 0.9601 0.47461 0.0
C238 C 0.43376 0.96447 0.44669 0.0
C239 C 0.43329 0.97532 0.39756 0.0
C240 C 0.41568 0.98178 0.37618 0.0
C241 C 0.346 0.06053 0.29476 0.0
C242 C 0.35886 0.06336 0.25011 0.0
C243 C 0.34669 0.04348 0.32615 0.0
C244 C 0.3603 0.02914 0.31332 0.0
C245 C 0.37359 0.03239 0.27022 0.0
C246 C 0.37285 0.04926 0.23886 0.0
C247 C 0.36018 0.01005 0.3411 0.0
C248 C 0.37742 0.00335 0.36493 0.0
C249 C 0.34412 0.9975 0.33771 0.0
C250 C 0.32563 0.00352 0.31214 0.0
C251 C 0.32476 0.00886 0.25558 0.0
C252 C 0.30725 0.0146 0.2319 0.0
C253 C 0.29048 0.01487 0.26426 0.0
C254 C 0.29118 0.00934 0.32033 0.0
C255 C 0.30867 0.00362 0.34422 0.0
H256 H 0.27693 0.01931 0.24586 0.0
H257 H 0.44741 0.95947 0.46315 0.0
H258 H 0.07954 0.64598 0.69814 0.0
H259 H 0.04966 0.64137 0.64453 0.0
H260 H 0.01633 0.64974 0.79473 0.0
H261 H 0.04591 0.65376 0.84818 0.0
H262 H 0.00499 0.61849 0.74443 0.0
H263 H 0.01938 0.68399 0.68779 0.0
H264 H 0.03926 0.70965 0.6457 0.0
H265 H 0.03949 0.67939 0.48947 0.0
H266 H 0.0198 0.65341 0.53089 0.0
H267 H 0.91226 0.64619 0.67813 0.0
H268 H 0.94668 0.65177 0.69046 0.0
H269 H 0.95908 0.61392 0.55257 0.0
H270 H 0.92433 0.60798 0.5401 0.0
H271 H 0.98316 0.65572 0.57919 0.0
H272 H 0.96671 0.59024 0.64075 0.0
H273 H 0.94446 0.56736 0.68632 0.0
H274 H 0.94703 0.60035 0.83766 0.0
H275 H 0.96902 0.62361 0.79258 0.0
C276 C 0.06579 0.64709 0.71935 0.0
C277 C 0.06501 0.65009 0.77732 0.0
C278 C 0.04875 0.64447 0.68874 0.0
C279 C 0.03073 0.64512 0.71566 0.0
C280 C 0.03004 0.64895 0.77312 0.0
C281 C 0.04697 0.65132 0.80363 0.0
C282 C 0.01249 0.64084 0.68563 0.0
C283 C 0.00036 0.6266 0.70809 0.0
C284 C 0.00651 0.65106 0.63742 0.0
C285 C 0.01835 0.66665 0.61262 0.0
C286 C 0.02382 0.68272 0.6446 0.0
C287 C 0.03502 0.69734 0.62084 0.0
C288 C 0.04069 0.69612 0.565 0.0
C289 C 0.03512 0.6803 0.53275 0.0
C290 C 0.02394 0.66563 0.55634 0.0
C291 C 0.92222 0.63932 0.64959 0.0
C292 C 0.91562 0.62643 0.60861 0.0
C293 C 0.94188 0.64263 0.65652 0.0
C294 C 0.95532 0.63323 0.62249 0.0
C295 C 0.94883 0.62138 0.57893 0.0
C296 C 0.92904 0.61795 0.57207 0.0
C297 C 0.97583 0.63373 0.63888 0.0
C298 C 0.98823 0.64725 0.61431 0.0
C299 C 0.98212 0.62299 0.68547 0.0
C300 C 0.96938 0.60872 0.71317 0.0
C301 C 0.96242 0.59267 0.68362 0.0
C302 C 0.94987 0.57963 0.70936 0.0
C303 C 0.9443 0.58242 0.76482 0.0
C304 C 0.95134 0.59821 0.7947 0.0
C305 C 0.96386 0.61132 0.76909 0.0
H306 H 0.93456 0.57232 0.78465 0.0
H307 H 0.04935 0.70745 0.54667 0.0
H308 H 0.65867 0.9571 0.19004 0.0
H309 H 0.65663 0.98648 0.24572 0.0
H310 H 0.63481 0.95374 0.38516 0.0
H311 H 0.63734 0.92397 0.32968 0.0
H312 H 0.61172 0.98752 0.34685 0.0
H313 H 0.6748 0.97131 0.40882 0.0
H314 H 0.70847 0.96038 0.39937 0.0
H315 H 0.72114 0.00896 0.29454 0.0
H316 H 0.68747 0.02003 0.30258 0.0
H317 H 0.60769 0.0844 0.45501 0.0
H318 H 0.61437 0.04957 0.45543 0.0
H319 H 0.64978 0.0563 0.30859 0.0
H320 H 0.64329 0.09073 0.30806 0.0
H321 H 0.66634 0.03204 0.38271 0.0
H322 H 0.60336 0.04217 0.29752 0.0
H323 H 0.56949 0.05307 0.29636 0.0
H324 H 0.55673 0.01619 0.43554 0.0
H325 H 0.59061 0.00522 0.43782 0.0
C326 C 0.65374 0.9561 0.23286 0.0
C327 C 0.64816 0.93833 0.25567 0.0
C328 C 0.65264 0.97286 0.26463 0.0
C329 C 0.64565 0.97221 0.31951 0.0
C330 C 0.64034 0.95444 0.34293 0.0
C331 C 0.64186 0.93752 0.31138 0.0
C332 C 0.64263 0.99051 0.3497 0.0
C333 C 0.62364 0.99708 0.35659 0.0
C334 C 0.65822 0.00302 0.36113 0.0
C335 C 0.67855 0.99647 0.3562 0.0
C336 C 0.68472 0.9796 0.38342 0.0
C337 C 0.70382 0.97338 0.37836 0.0
C338 C 0.71693 0.98396 0.34635 0.0
C339 C 0.71097 0.00078 0.31937 0.0
C340 C 0.69188 0.00706 0.32425 0.0
C341 C 0.61704 0.0784 0.42326 0.0
C342 C 0.62485 0.09021 0.38125 0.0
C343 C 0.62082 0.05856 0.4235 0.0
C344 C 0.63252 0.05037 0.38192 0.0
C345 C 0.6408 0.06231 0.34123 0.0
C346 C 0.63695 0.08199 0.34076 0.0
C347 C 0.63544 0.02928 0.37768 0.0
C348 C 0.65441 0.02224 0.37535 0.0
C349 C 0.61984 0.01643 0.36948 0.0
C350 C 0.59955 0.02311 0.3684 0.0
C351 C 0.59337 0.03653 0.3282 0.0
C352 C 0.57417 0.04269 0.32725 0.0
C353 C 0.56099 0.03539 0.36601 0.0
C354 C 0.56697 0.02188 0.40567 0.0
C355 C 0.58616 0.01568 0.40681 0.0
H356 H 0.54613 0.04016 0.36518 0.0
H357 H 0.73171 0.97912 0.34249 0.0
H358 H 0.08579 0.37848 0.57781 0.0
H359 H 0.05101 0.37152 0.57314 0.0
H360 H 0.05212 0.35273 0.74477 0.0
H361 H 0.0865 0.35966 0.74977 0.0
H362 H 0.03144 0.32805 0.67772 0.0
H363 H 0.03714 0.39695 0.71383 0.0
H364 H 0.04761 0.42998 0.69121 0.0
H365 H 0.0161 0.42773 0.53704 0.0
H366 H 0.00562 0.39452 0.55858 0.0
H367 H 0.95195 0.34867 0.83975 0.0
H368 H 0.9825 0.34891 0.78964 0.0
H369 H 0.95216 0.35312 0.63299 0.0
H370 H 0.9211 0.35244 0.68345 0.0
H371 H 0.9848 0.38185 0.6581 0.0
H372 H 0.97213 0.31472 0.64173 0.0
H373 H 0.96131 0.28276 0.67407 0.0
H374 H 0.00586 0.28235 0.79855 0.0
H375 H 0.01679 0.31442 0.76751 0.0
C376 C 0.07856 0.3728 0.61437 0.0
C377 C 0.08881 0.36969 0.66423 0.0
C378 C 0.05875 0.36883 0.61163 0.0
C379 C 0.04903 0.36157 0.65859 0.0
C380 C 0.05937 0.35819 0.70793 0.0
C381 C 0.079 0.36229 0.71083 0.0
C382 C 0.02794 0.35815 0.65835 0.0
C383 C 0.0212 0.33974 0.67278 0.0
C384 C 0.01456 0.37329 0.65038 0.0
C385 C 0.02085 0.39319 0.63739 0.0
C386 C 0.0326 0.40344 0.67487 0.0
C387 C 0.03851 0.4222 0.6623 0.0
C388 C 0.0326 0.43093 0.61259 0.0
C389 C 0.02072 0.42093 0.57544 0.0
C390 C 0.01479 0.40214 0.58781 0.0
C391 C 0.95171 0.34953 0.7946 0.0
C392 C 0.93419 0.35058 0.76541 0.0
C393 C 0.96917 0.3496 0.76605 0.0
C394 C 0.96952 0.35095 0.70774 0.0
C395 C 0.95209 0.352 0.67807 0.0
C396 C 0.93445 0.35155 0.7068 0.0
C397 C 0.98846 0.35194 0.67959 0.0
C398 C 0.99488 0.36992 0.6603 0.0
C399 C 0.0016 0.33645 0.6837 0.0
C400 C 0.99526 0.31703 0.70229 0.0
C401 C 0.97956 0.30787 0.67621 0.0
C402 C 0.97342 0.28972 0.69429 0.0
C403 C 0.98289 0.28053 0.73835 0.0
C404 C 0.99855 0.28947 0.76436 0.0
C405 C 0.00476 0.30762 0.74645 0.0
H406 H 0.9781 0.26649 0.75231 0.0
H407 H 0.03718 0.44547 0.60294 0.0
H408 H 0.33088 0.43268 0.98983 0.0
H409 H 0.33406 0.46337 0.9395 0.0
H410 H 0.39299 0.46823 0.99637 0.0
H411 H 0.38942 0.43834 0.0488 0.0
H412 H 0.37634 0.49921 0.01828 0.0
H413 H 0.37936 0.4603 0.85419 0.0
H414 H 0.36887 0.43547 0.78716 0.0
H415 H 0.31649 0.46678 0.75688 0.0
H416 H 0.32655 0.49168 0.82431 0.0
H417 H 0.39157 0.57858 0.80496 0.0
H418 H 0.38733 0.54378 0.81961 0.0
H419 H 0.34546 0.5553 0.94841 0.0
H420 H 0.34973 0.58984 0.93454 0.0
H421 H 0.356 0.51584 0.82563 0.0
H422 H 0.36054 0.53121 0.06214 0.0
H423 H 0.37375 0.55609 0.125 0.0
H424 H 0.41708 0.57021 0.0036 0.0
H425 H 0.40438 0.54517 0.94057 0.0
C426 C 0.34457 0.44021 0.99058 0.0
C427 C 0.35985 0.43335 0.02348 0.0
C428 C 0.34644 0.45768 0.96164 0.0
C429 C 0.36379 0.46819 0.96405 0.0
C430 C 0.37939 0.46056 0.99423 0.0
C431 C 0.37737 0.44346 0.02411 0.0
C432 C 0.36525 0.48801 0.9406 0.0
C433 C 0.37199 0.50268 0.97597 0.0
C434 C 0.35974 0.49272 0.88525 0.0
C435 C 0.35364 0.47777 0.8447 0.0
C436 C 0.36554 0.46182 0.83357 0.0
C437 C 0.35968 0.44774 0.79544 0.0
C438 C 0.34201 0.44952 0.76788 0.0
C439 C 0.33017 0.46541 0.7783 0.0
C440 C 0.33595 0.47952 0.81643 0.0
C441 C 0.38111 0.57364 0.83535 0.0
C442 C 0.37121 0.58687 0.86929 0.0
C443 C 0.37865 0.55379 0.84349 0.0
C444 C 0.36628 0.54704 0.88557 0.0
C445 C 0.35521 0.56025 0.91608 0.0
C446 C 0.35772 0.57998 0.90823 0.0
C447 C 0.36688 0.52665 0.90364 0.0
C448 C 0.36047 0.51207 0.86762 0.0
C449 C 0.37321 0.5218 0.95793 0.0
C450 C 0.38136 0.53645 0.99643 0.0
C451 C 0.37296 0.53954 0.04905 0.0
C452 C 0.38036 0.55367 0.08469 0.0
C453 C 0.3962 0.56477 0.06822 0.0
C454 C 0.40478 0.56165 0.01625 0.0
C455 C 0.39748 0.54749 0.98056 0.0
H456 H 0.40184 0.57576 0.09577 0.0
H457 H 0.3375 0.43862 0.73837 0.0
H458 H 0.44979 0.61694 0.9137 0.0
H459 H 0.47893 0.6106 0.96687 0.0
H460 H 0.45795 0.64642 0.1008 0.0
H461 H 0.42843 0.65305 0.04689 0.0
H462 H 0.49559 0.6542 0.07525 0.0
H463 H 0.46017 0.59853 0.12268 0.0
H464 H 0.43892 0.57053 0.10784 0.0
H465 H 0.48092 0.54522 0.99859 0.0
H466 H 0.50242 0.57312 0.01251 0.0
H467 H 0.58627 0.62344 0.19313 0.0
H468 H 0.55088 0.62616 0.18967 0.0
H469 H 0.55093 0.60109 0.025 0.0
H470 H 0.58606 0.59879 0.02774 0.0
H471 H 0.5205 0.58753 0.09606 0.0
H472 H 0.55133 0.64754 0.03443 0.0
H473 H 0.57229 0.6758 0.04929 0.0
H474 H 0.53779 0.69284 0.18966 0.0
H475 H 0.51679 0.66448 0.17605 0.0
C476 C 0.45126 0.62345 0.95456 0.0
C477 C 0.4368 0.6355 0.97612 0.0
C478 C 0.4679 0.61967 0.98515 0.0
C479 C 0.47049 0.62774 0.03827 0.0
C480 C 0.45615 0.63992 0.06006 0.0
C481 C 0.43933 0.64368 0.02931 0.0
C482 C 0.48876 0.62399 0.06872 0.0
C483 C 0.50082 0.63962 0.08149 0.0
C484 C 0.49563 0.60497 0.0767 0.0
C485 C 0.4829 0.58798 0.06855 0.0
C486 C 0.46485 0.58703 0.09529 0.0
C487 C 0.45276 0.57117 0.08707 0.0
C488 C 0.45853 0.55613 0.05216 0.0
C489 C 0.47647 0.55688 0.02563 0.0
C490 C 0.48865 0.57269 0.03384 0.0
C491 C 0.57863 0.6182 0.15674 0.0
C492 C 0.58882 0.61102 0.11053 0.0
C493 C 0.55848 0.6198 0.15477 0.0
C494 C 0.54834 0.61388 0.10698 0.0
C495 C 0.55848 0.60568 0.0623 0.0
C496 C 0.57853 0.60445 0.0638 0.0
C497 C 0.52744 0.61771 0.10041 0.0
C498 C 0.51497 0.60208 0.09188 0.0
C499 C 0.52014 0.63671 0.09685 0.0
C500 C 0.53267 0.65378 0.10472 0.0
C501 C 0.54833 0.65722 0.06875 0.0
C502 C 0.56019 0.67327 0.07689 0.0
C503 C 0.55642 0.68607 0.12052 0.0
C504 C 0.54073 0.68289 0.15598 0.0
C505 C 0.52884 0.66683 0.14809 0.0
H506 H 0.56561 0.69849 0.12675 0.0
H507 H 0.44911 0.54389 0.04571 0.0
H508 H 0.60767 0.42546 0.78357 0.0
H509 H 0.61336 0.46048 0.78327 0.0
H510 H 0.62317 0.45889 0.96102 0.0
H511 H 0.61758 0.42429 0.96161 0.0
H512 H 0.59983 0.48888 0.93046 0.0
H513 H 0.66045 0.45897 0.87129 0.0
H514 H 0.68042 0.43951 0.80745 0.0
H515 H 0.66617 0.4774 0.6718 0.0
H516 H 0.64591 0.49695 0.73481 0.0
H517 H 0.66519 0.55061 0.04153 0.0
H518 H 0.65711 0.52234 0.98599 0.0
H519 H 0.63213 0.55873 0.85934 0.0
H520 H 0.64022 0.58737 0.91514 0.0
H521 H 0.65799 0.51574 0.83773 0.0
H522 H 0.59851 0.54748 0.90318 0.0
H523 H 0.58133 0.56699 0.97342 0.0
H524 H 0.59515 0.52537 0.09993 0.0
H525 H 0.61254 0.5057 0.03038 0.0
C526 C 0.61091 0.43268 0.82252 0.0
C527 C 0.61224 0.42218 0.8726 0.0
C528 C 0.61419 0.45262 0.82226 0.0
C529 C 0.6187 0.46224 0.87213 0.0
C530 C 0.61961 0.45177 0.92213 0.0
C531 C 0.61649 0.43196 0.92235 0.0
C532 C 0.62317 0.48309 0.8734 0.0
C533 C 0.6123 0.49484 0.90917 0.0
C534 C 0.6393 0.49098 0.84515 0.0
C535 C 0.65148 0.47924 0.8075 0.0
C536 C 0.66145 0.46304 0.82774 0.0
C537 C 0.67284 0.45202 0.79174 0.0
C538 C 0.67451 0.45717 0.73555 0.0
C539 C 0.66483 0.47339 0.71529 0.0
C540 C 0.65339 0.48445 0.75111 0.0
C541 C 0.65853 0.55268 0.00106 0.0
C542 C 0.65311 0.57112 0.98288 0.0
C543 C 0.65402 0.53653 0.96928 0.0
C544 C 0.64397 0.53853 0.9189 0.0
C545 C 0.64001 0.557 0.89805 0.0
C546 C 0.64462 0.57329 0.92993 0.0
C547 C 0.63476 0.52124 0.89511 0.0
C548 C 0.64488 0.51007 0.85623 0.0
C549 C 0.61789 0.51382 0.92022 0.0
C550 C 0.60686 0.5252 0.9617 0.0
C551 C 0.59792 0.54254 0.94603 0.0
C552 C 0.58815 0.55362 0.9857 0.0
C553 C 0.5872 0.54746 0.04116 0.0
C554 C 0.5959 0.53013 0.05697 0.0
C555 C 0.60567 0.51898 0.01742 0.0
H556 H 0.57969 0.5561 0.07184 0.0
H557 H 0.68334 0.44863 0.70775 0.0
H558 H 0.41191 0.3599 0.06126 0.0
H559 H 0.44616 0.35283 0.05959 0.0
H560 H 0.45309 0.3799 0.22043 0.0
H561 H 0.41839 0.38742 0.22192 0.0
H562 H 0.48026 0.39182 0.1489 0.0
H563 H 0.45882 0.33106 0.20936 0.0
H564 H 0.43821 0.30216 0.21395 0.0
H565 H 0.45402 0.28734 0.04617 0.0
H566 H 0.47448 0.31631 0.04013 0.0
H567 H 0.57746 0.36365 0.06649 0.0
H568 H 0.54894 0.36325 0.128 0.0
H569 H 0.51274 0.35064 0.98623 0.0
H570 H 0.54081 0.35146 0.92504 0.0
H571 H 0.50463 0.32823 0.08599 0.0
H572 H 0.51678 0.39503 0.02259 0.0
H573 H 0.53707 0.42419 0.01792 0.0
H574 H 0.53895 0.42661 0.19692 0.0
H575 H 0.51885 0.39728 0.20253 0.0
C576 C 0.42062 0.36424 0.09662 0.0
C577 C 0.41246 0.37422 0.14175 0.0
C578 C 0.44023 0.36002 0.09585 0.0
C579 C 0.45216 0.36545 0.14045 0.0
C580 C 0.44409 0.37539 0.18587 0.0
C581 C 0.42432 0.37967 0.18666 0.0
C582 C 0.4732 0.36188 0.13626 0.0
C583 C 0.48573 0.37777 0.13703 0.0
C584 C 0.48041 0.34353 0.121 0.0
C585 C 0.46823 0.32592 0.12434 0.0
C586 C 0.45785 0.3217 0.17332 0.0
C587 C 0.44618 0.30529 0.17618 0.0
C588 C 0.44482 0.29292 0.1304 0.0
C589 C 0.45512 0.29692 0.08165 0.0
C590 C 0.4668 0.31332 0.07854 0.0
C591 C 0.5634 0.36059 0.04884 0.0
C592 C 0.56124 0.35771 0.9911 0.0
C593 C 0.5472 0.36036 0.08387 0.0
C594 C 0.52881 0.35686 0.06151 0.0
C595 C 0.52684 0.35324 0.00427 0.0
C596 C 0.54286 0.35384 0.96933 0.0
C597 C 0.51114 0.35833 0.09572 0.0
C598 C 0.4993 0.34204 0.10044 0.0
C599 C 0.50461 0.37623 0.1165 0.0
C600 C 0.51657 0.39386 0.11298 0.0
C601 C 0.52167 0.4017 0.06092 0.0
C602 C 0.5331 0.41827 0.0581 0.0
C603 C 0.53936 0.42721 0.10709 0.0
C604 C 0.53414 0.41964 0.15901 0.0
C605 C 0.52273 0.40305 0.16203 0.0
H606 H 0.5482 0.44004 0.10484 0.0
H607 H 0.43577 0.28022 0.13269 0.0
H608 H 0.86318 0.41136 0.78297 0.0
H609 H 0.85904 0.44609 0.77972 0.0
H610 H 0.87993 0.45071 0.94887 0.0
H611 H 0.88448 0.41558 0.95204 0.0
H612 H 0.83803 0.4713 0.83532 0.0
H613 H 0.90526 0.49407 0.95574 0.0
H614 H 0.9369 0.4812 0.98493 0.0
H615 H 0.93814 0.44452 0.84071 0.0
H616 H 0.90663 0.45735 0.81045 0.0
H617 H 0.84187 0.57243 0.78746 0.0
H618 H 0.84359 0.54315 0.8449 0.0
H619 H 0.89081 0.52247 0.74403 0.0
H620 H 0.88936 0.55157 0.68754 0.0
H621 H 0.89624 0.51256 0.85052 0.0
H622 H 0.84393 0.51057 0.71408 0.0
H623 H 0.81365 0.52226 0.67185 0.0
H624 H 0.78446 0.51516 0.82861 0.0
H625 H 0.81468 0.50365 0.8719 0.0
C626 C 0.86681 0.41969 0.81971 0.0
C627 C 0.87431 0.41076 0.86763 0.0
C628 C 0.8643 0.43957 0.81792 0.0
C629 C 0.86922 0.45103 0.86395 0.0
C630 C 0.87617 0.44214 0.9127 0.0
C631 C 0.87875 0.42211 0.91449 0.0
C632 C 0.86807 0.47229 0.85831 0.0
C633 C 0.85066 0.48041 0.83976 0.0
C634 C 0.88453 0.48419 0.8639 0.0
C635 C 0.90351 0.47646 0.88136 0.0
C636 C 0.91231 0.48327 0.93031 0.0
C637 C 0.93022 0.47599 0.94701 0.0
C638 C 0.93948 0.46199 0.91482 0.0
C639 C 0.93091 0.4553 0.86573 0.0
C640 C 0.91302 0.46256 0.84882 0.0
C641 C 0.85282 0.56176 0.77833 0.0
C642 C 0.8653 0.56412 0.73258 0.0
C643 C 0.85379 0.54507 0.81111 0.0
C644 C 0.8672 0.53054 0.79837 0.0
C645 C 0.88038 0.53348 0.75477 0.0
C646 C 0.87942 0.55007 0.72217 0.0
C647 C 0.8664 0.51135 0.82553 0.0
C648 C 0.8834 0.50364 0.84829 0.0
C649 C 0.84971 0.49966 0.82234 0.0
C650 C 0.83158 0.50652 0.79636 0.0
C651 C 0.83108 0.51164 0.7396 0.0
C652 C 0.81393 0.51821 0.71547 0.0
C653 C 0.79716 0.51952 0.74758 0.0
C654 C 0.79748 0.5142 0.80384 0.0
C655 C 0.81461 0.50766 0.8282 0.0
H656 H 0.78389 0.52459 0.72883 0.0
H657 H 0.95333 0.45636 0.92784 0.0
H658 H 0.54875 0.1268 0.32393 0.0
H659 H 0.51958 0.12386 0.26847 0.0
H660 H 0.54567 0.15735 0.13685 0.0
H661 H 0.57529 0.16051 0.193 0.0
H662 H 0.50799 0.16887 0.16212 0.0
H663 H 0.54002 0.11076 0.11408 0.0
H664 H 0.55888 0.08132 0.13248 0.0
H665 H 0.51292 0.05904 0.23386 0.0
H666 H 0.49388 0.08846 0.21674 0.0
H667 H 0.4187 0.1076 0.05268 0.0
H668 H 0.4535 0.1143 0.05289 0.0
H669 H 0.44646 0.14977 0.19931 0.0
H670 H 0.41195 0.14343 0.19879 0.0
H671 H 0.47861 0.10451 0.13148 0.0
H672 H 0.47859 0.18456 0.20623 0.0
H673 H 0.45936 0.21393 0.19035 0.0
H674 H 0.44155 0.19247 0.03048 0.0
H675 H 0.46091 0.16309 0.04491 0.0
C676 C 0.54841 0.1335 0.28311 0.0
C677 C 0.56435 0.14385 0.26275 0.0
C678 C 0.53172 0.13172 0.25131 0.0
C679 C 0.53056 0.14014 0.19822 0.0
C680 C 0.54636 0.15064 0.17762 0.0
C681 C 0.56323 0.15239 0.20959 0.0
C682 C 0.5124 0.13821 0.16604 0.0
C683 C 0.50163 0.15484 0.15444 0.0
C684 C 0.50435 0.11987 0.15488 0.0
C685 C 0.51552 0.10186 0.1641 0.0
C686 C 0.53394 0.09961 0.14041 0.0
C687 C 0.54468 0.08292 0.15064 0.0
C688 C 0.53711 0.06833 0.18434 0.0
C689 C 0.51876 0.07035 0.20769 0.0
C690 C 0.50796 0.08701 0.19761 0.0
C691 C 0.42459 0.11708 0.08428 0.0
C692 C 0.41265 0.12493 0.12586 0.0
C693 C 0.44444 0.12088 0.08439 0.0
C694 C 0.45256 0.13273 0.12569 0.0
C695 C 0.44051 0.14093 0.16629 0.0
C696 C 0.42077 0.13714 0.16624 0.0
C697 C 0.47377 0.13517 0.13041 0.0
C698 C 0.48511 0.11859 0.13713 0.0
C699 C 0.48235 0.15357 0.13663 0.0
C700 C 0.47122 0.17156 0.12675 0.0
C701 C 0.47075 0.18617 0.16741 0.0
C702 C 0.45978 0.20281 0.15871 0.0
C703 C 0.44925 0.20506 0.10944 0.0
C704 C 0.44971 0.1907 0.06865 0.0
C705 C 0.46067 0.17404 0.07709 0.0
H706 H 0.4407 0.21791 0.10292 0.0
H707 H 0.54546 0.05544 0.19235 0.0
H708 H 0.11368 0.58359 0.96441 0.0
H709 H 0.11631 0.54826 0.95823 0.0
H710 H 0.12445 0.55273 0.78022 0.0
H711 H 0.12196 0.58762 0.786 0.0
H712 H 0.09759 0.52498 0.81 0.0
H713 H 0.16224 0.54634 0.8638 0.0
H714 H 0.18543 0.56197 0.92739 0.0
H715 H 0.16915 0.52307 0.05867 0.0
H716 H 0.14566 0.50737 0.99596 0.0
H717 H 0.14442 0.44967 0.68395 0.0
H718 H 0.13716 0.48057 0.72702 0.0
H719 H 0.13422 0.45336 0.8887 0.0
H720 H 0.14176 0.42208 0.84553 0.0
H721 H 0.15314 0.48937 0.89026 0.0
H722 H 0.09324 0.46378 0.8285 0.0
H723 H 0.07081 0.44797 0.76311 0.0
H724 H 0.07769 0.49467 0.64717 0.0
H725 H 0.1004 0.51062 0.71144 0.0
C726 C 0.11598 0.57696 0.92407 0.0
C727 C 0.11764 0.58834 0.8757 0.0
C728 C 0.11752 0.55684 0.92063 0.0
C729 C 0.12057 0.54793 0.86874 0.0
C730 C 0.12201 0.55932 0.8206 0.0
C731 C 0.12066 0.57928 0.82405 0.0
C732 C 0.12253 0.52678 0.86323 0.0
C733 C 0.10967 0.51715 0.82773 0.0
C734 C 0.13791 0.51645 0.88799 0.0
C735 C 0.15203 0.52587 0.92549 0.0
C736 C 0.16348 0.54124 0.90638 0.0
C737 C 0.1767 0.55009 0.94222 0.0
C738 C 0.17871 0.54357 0.9971 0.0
C739 C 0.16754 0.52814 0.0162 0.0
C740 C 0.15428 0.51927 0.98054 0.0
C741 C 0.14239 0.45022 0.72875 0.0
C742 C 0.14348 0.43343 0.76133 0.0
C743 C 0.13817 0.46789 0.75328 0.0
C744 C 0.13475 0.46916 0.81085 0.0
C745 C 0.13666 0.45261 0.84411 0.0
C746 C 0.14097 0.43481 0.81945 0.0
C747 C 0.1287 0.48786 0.83487 0.0
C748 C 0.14071 0.497 0.87387 0.0
C749 C 0.11248 0.49779 0.81342 0.0
C750 C 0.09859 0.48837 0.77482 0.0
C751 C 0.09005 0.47063 0.78894 0.0
C752 C 0.07728 0.46165 0.75206 0.0
C753 C 0.07283 0.47031 0.701 0.0
C754 C 0.08113 0.48799 0.68676 0.0
C755 C 0.09393 0.49702 0.72346 0.0
H756 H 0.06295 0.46334 0.67247 0.0
H757 H 0.18896 0.55043 0.02478 0.0
H758 H 0.41883 0.85793 0.16991 0.0
H759 H 0.45087 0.86587 0.13218 0.0
H760 H 0.47643 0.85318 0.29213 0.0
H761 H 0.44478 0.84527 0.32979 0.0
H762 H 0.48573 0.88951 0.25182 0.0
H763 H 0.48269 0.82328 0.18515 0.0
H764 H 0.46849 0.79669 0.13067 0.0
H765 H 0.47522 0.82952 0.97996 0.0
H766 H 0.48924 0.85643 0.03372 0.0
H767 H 0.58437 0.87847 0.2417 0.0
H768 H 0.54968 0.87379 0.24678 0.0
H769 H 0.54429 0.88858 0.07259 0.0
H770 H 0.57948 0.89311 0.06691 0.0
H771 H 0.52228 0.85653 0.10172 0.0
H772 H 0.52989 0.92068 0.16591 0.0
H773 H 0.54435 0.94732 0.21957 0.0
H774 H 0.52846 0.91951 0.37294 0.0
H775 H 0.51417 0.89254 0.32026 0.0
C776 C 0.43136 0.85649 0.19658 0.0
C777 C 0.4293 0.8511 0.25289 0.0
C778 C 0.44961 0.86105 0.17503 0.0
C779 C 0.46597 0.86026 0.20957 0.0
C780 C 0.46397 0.85404 0.26495 0.0
C781 C 0.44586 0.84946 0.28634 0.0
C782 C 0.4851 0.86699 0.19011 0.0
C783 C 0.49375 0.88229 0.21906 0.0
C784 C 0.49518 0.85812 0.14571 0.0
C785 C 0.48677 0.84195 0.11353 0.0
C786 C 0.48097 0.8249 0.14047 0.0
C787 C 0.47299 0.80976 0.10971 0.0
C788 C 0.47089 0.81144 0.05191 0.0
C789 C 0.47681 0.82825 0.02474 0.0
C790 C 0.48478 0.84345 0.05533 0.0
C791 C 0.57587 0.88083 0.20437 0.0
C792 C 0.58465 0.88629 0.15395 0.0
C793 C 0.556 0.87819 0.20741 0.0
C794 C 0.54436 0.88111 0.16029 0.0
C795 C 0.55303 0.88635 0.1095 0.0
C796 C 0.57307 0.88901 0.10639 0.0
C797 C 0.52321 0.87845 0.16532 0.0
C798 C 0.51413 0.86406 0.1336 0.0
C799 C 0.5126 0.88824 0.20702 0.0
C800 C 0.52101 0.90454 0.23905 0.0
C801 C 0.52958 0.92018 0.21109 0.0
C802 C 0.53773 0.93535 0.24134 0.0
C803 C 0.53734 0.9351 0.29963 0.0
C804 C 0.52875 0.91969 0.32778 0.0
C805 C 0.52058 0.90447 0.29774 0.0
H806 H 0.54367 0.94685 0.32297 0.0
H807 H 0.46472 0.7997 0.02817 0.0
H808 H 0.85336 0.91494 0.4171 0.0
H809 H 0.85441 0.94415 0.3588 0.0
H810 H 0.83911 0.97859 0.50189 0.0
H811 H 0.83838 0.94975 0.56003 0.0
H812 H 0.81992 0.98955 0.40143 0.0
H813 H 0.88462 0.97347 0.47226 0.0
H814 H 0.91278 0.95191 0.48016 0.0
H815 H 0.91887 0.95163 0.30181 0.0
H816 H 0.89055 0.97301 0.29291 0.0
H817 H 0.8572 0.08025 0.43463 0.0
H818 H 0.84792 0.04653 0.43418 0.0
H819 H 0.87529 0.03897 0.27394 0.0
H820 H 0.88491 0.07313 0.27439 0.0
H821 H 0.88559 0.01102 0.34716 0.0
H822 H 0.8266 0.03593 0.28173 0.0
H823 H 0.79887 0.05806 0.2759 0.0
H824 H 0.78148 0.04204 0.44152 0.0
H825 H 0.80926 0.02004 0.44879 0.0
C826 C 0.84992 0.92874 0.43567 0.0
C827 C 0.84593 0.93017 0.49303 0.0
C828 C 0.85054 0.94535 0.40245 0.0
C829 C 0.84685 0.96348 0.42617 0.0
C830 C 0.8419 0.96472 0.48278 0.0
C831 C 0.84161 0.94826 0.516 0.0
C832 C 0.84978 0.98153 0.39449 0.0
C833 C 0.8342 0.99426 0.38894 0.0
C834 C 0.86832 0.98732 0.37644 0.0
C835 C 0.88535 0.97458 0.38187 0.0
C836 C 0.89187 0.96867 0.43473 0.0
C837 C 0.90787 0.95651 0.4394 0.0
C838 C 0.91756 0.95035 0.3915 0.0
C839 C 0.91131 0.95638 0.33885 0.0
C840 C 0.89529 0.9685 0.33397 0.0
C841 C 0.86114 0.07152 0.39895 0.0
C842 C 0.87182 0.07933 0.35456 0.0
C843 C 0.85566 0.05224 0.39852 0.0
C844 C 0.86059 0.04029 0.35355 0.0
C845 C 0.87117 0.04801 0.30878 0.0
C846 C 0.87665 0.06747 0.30909 0.0
C847 C 0.85585 0.01949 0.35671 0.0
C848 C 0.8711 0.0062 0.35712 0.0
C849 C 0.83696 0.01318 0.36988 0.0
C850 C 0.82008 0.02631 0.36577 0.0
C851 C 0.81693 0.03719 0.31705 0.0
C852 C 0.80118 0.04972 0.31348 0.0
C853 C 0.78842 0.05146 0.35831 0.0
C854 C 0.79136 0.04066 0.40679 0.0
C855 C 0.80709 0.02812 0.4106 0.0
H856 H 0.77625 0.06117 0.35547 0.0
H857 H 0.92995 0.94094 0.39519 0.0
H858 H 0.92708 0.14303 0.54035 0.0
H859 H 0.95771 0.14011 0.5915 0.0
H860 H 0.98398 0.1142 0.44651 0.0
H861 H 0.95367 0.1166 0.39635 0.0
H862 H 0.99492 0.09566 0.53606 0.0
H863 H 0.98883 0.16321 0.48098 0.0
H864 H 0.97322 0.19515 0.48123 0.0
H865 H 0.97865 0.19792 0.65957 0.0
H866 H 0.99409 0.16586 0.66036 0.0
H867 H 0.09115 0.11995 0.50114 0.0
H868 H 0.056 0.11935 0.49887 0.0
H869 H 0.05411 0.13086 0.67559 0.0
H870 H 0.08963 0.13119 0.67847 0.0
H871 H 0.02852 0.15461 0.60138 0.0
H872 H 0.04262 0.08921 0.64772 0.0
H873 H 0.06008 0.05839 0.63986 0.0
H874 H 0.04082 0.0523 0.47051 0.0
H875 H 0.02349 0.08325 0.47701 0.0
C876 C 0.9394 0.13658 0.51976 0.0
C877 C 0.93801 0.13009 0.46433 0.0
C878 C 0.95687 0.13497 0.54891 0.0
C879 C 0.97319 0.12702 0.52274 0.0
C880 C 0.9716 0.12026 0.46779 0.0
C881 C 0.95424 0.12174 0.43899 0.0
C882 C 0.9923 0.12619 0.5506 0.0
C883 C 0.00221 0.10854 0.55067 0.0
C884 C 0.00166 0.14286 0.57133 0.0
C885 C 0.99234 0.16206 0.57081 0.0
C886 C 0.98654 0.17057 0.52027 0.0
C887 C 0.97775 0.1887 0.52021 0.0
C888 C 0.97487 0.19852 0.57041 0.0
C889 C 0.98083 0.19026 0.62075 0.0
C890 C 0.9896 0.17212 0.62103 0.0
C891 C 0.08331 0.12237 0.5396 0.0
C892 C 0.09311 0.1256 0.59001 0.0
C893 C 0.06324 0.12196 0.53824 0.0
C894 C 0.05254 0.12492 0.58712 0.0
C895 C 0.06219 0.12849 0.63753 0.0
C896 C 0.0824 0.12863 0.63909 0.0
C897 C 0.03126 0.12431 0.58406 0.0
C898 C 0.02098 0.14163 0.58868 0.0
C899 C 0.02161 0.1074 0.56679 0.0
C900 C 0.0318 0.08861 0.56285 0.0
C901 C 0.0422 0.08137 0.60869 0.0
C902 C 0.05206 0.06386 0.60448 0.0
C903 C 0.05157 0.0534 0.5547 0.0
C904 C 0.04117 0.06041 0.50906 0.0
C905 C 0.0313 0.07792 0.51302 0.0
H906 H 0.05923 0.03986 0.55151 0.0
H907 H 0.96808 0.21256 0.57028 0.0
H908 H 0.11757 0.92306 0.4899 0.0
H909 H 0.1216 0.95785 0.48506 0.0
H910 H 0.13506 0.95379 0.30969 0.0
H911 H 0.13105 0.91858 0.31429 0.0
H912 H 0.16093 0.9771 0.36965 0.0
H913 H 0.09339 0.973 0.34261 0.0
H914 H 0.06034 0.96122 0.35934 0.0
H915 H 0.06166 0.98454 0.52519 0.0
H916 H 0.09483 0.9962 0.50985 0.0
H917 H 0.15891 0.08269 0.41945 0.0
H918 H 0.15287 0.05158 0.3728 0.0
H919 H 0.13963 0.02579 0.53205 0.0
H920 H 0.14583 0.05624 0.57845 0.0
H921 H 0.11082 0.02069 0.44633 0.0
H922 H 0.18052 0.01634 0.47939 0.0
H923 H 0.2142 0.02683 0.46595 0.0
H924 H 0.20847 0.01921 0.2889 0.0
H925 H 0.17463 0.00891 0.30131 0.0
C926 C 0.12125 0.92952 0.45014 0.0
C927 C 0.12396 0.91812 0.40244 0.0
C928 C 0.12347 0.94943 0.44737 0.0
C929 C 0.1284 0.95841 0.39686 0.0
C930 C 0.13113 0.94711 0.34896 0.0
C931 C 0.12878 0.92707 0.35162 0.0
C932 C 0.1313 0.97955 0.39598 0.0
C933 C 0.14982 0.98679 0.38475 0.0
C934 C 0.11679 0.99214 0.41577 0.0
C935 C 0.09666 0.98545 0.42504 0.0
C936 C 0.08668 0.97554 0.38275 0.0
C937 C 0.06791 0.96888 0.392 0.0
C938 C 0.05891 0.97211 0.44331 0.0
C939 C 0.06864 0.98206 0.48544 0.0
C940 C 0.08742 0.98874 0.47644 0.0
C941 C 0.15494 0.07028 0.44434 0.0
C942 C 0.15277 0.07191 0.50253 0.0
C943 C 0.15146 0.0526 0.41772 0.0
C944 C 0.14562 0.03652 0.44909 0.0
C945 C 0.14395 0.0381 0.50712 0.0
C946 C 0.14759 0.05553 0.53358 0.0
C947 C 0.14065 0.01791 0.42285 0.0
C948 C 0.12169 0.01118 0.42901 0.0
C949 C 0.15474 0.00584 0.39854 0.0
C950 C 0.17498 0.01217 0.39117 0.0
C951 C 0.18637 0.01713 0.43755 0.0
C952 C 0.2055 0.02298 0.43014 0.0
C953 C 0.21344 0.02377 0.37658 0.0
C954 C 0.20228 0.01865 0.33034 0.0
C955 C 0.18313 0.01281 0.33753 0.0
H956 H 0.22827 0.02828 0.37093 0.0
H957 H 0.0444 0.96691 0.45043 0.0
H958 H 0.91316 0.87333 0.51525 0.0
H959 H 0.94771 0.86743 0.51399 0.0
H960 H 0.95089 0.87924 0.69041 0.0
H961 H 0.91586 0.88533 0.69206 0.0
H962 H 0.98156 0.89604 0.6248 0.0
H963 H 0.95294 0.83447 0.65573 0.0
H964 H 0.92945 0.80834 0.64001 0.0
H965 H 0.94982 0.80172 0.47191 0.0
H966 H 0.97323 0.82801 0.4863 0.0
H967 H 0.07893 0.86144 0.58385 0.0
H968 H 0.04677 0.86417 0.62652 0.0
H969 H 0.02056 0.85201 0.46708 0.0
H970 H 0.05235 0.84923 0.42466 0.0
H971 H 0.00275 0.83271 0.55087 0.0
H972 H 0.02535 0.89798 0.5131 0.0
H973 H 0.04787 0.92528 0.52344 0.0
H974 H 0.03849 0.92532 0.70059 0.0
H975 H 0.01605 0.89787 0.69128 0.0
C976 C 0.92113 0.87478 0.55389 0.0
C977 C 0.91174 0.87964 0.6039 0.0
C978 C 0.94091 0.87135 0.55308 0.0
C979 C 0.95179 0.87258 0.60226 0.0
C980 C 0.94268 0.87812 0.65209 0.0
C981 C 0.92272 0.88156 0.65297 0.0
C982 C 0.97256 0.86757 0.60042 0.0
C983 C 0.98629 0.88204 0.61015 0.0
C984 C 0.97866 0.84934 0.58071 0.0
C985 C 0.96482 0.83327 0.5721 0.0
C986 C 0.95235 0.82751 0.61532 0.0
C987 C 0.93905 0.81266 0.60665 0.0
C988 C 0.93813 0.80339 0.55499 0.0
C989 C 0.95056 0.80891 0.51193 0.0
C990 C 0.96387 0.82376 0.52036 0.0
C991 C 0.06627 0.85911 0.55824 0.0
C992 C 0.06812 0.85518 0.50092 0.0
C993 C 0.04795 0.86076 0.58255 0.0
C994 C 0.03128 0.85842 0.54986 0.0
C995 C 0.0332 0.85383 0.49314 0.0
C996 C 0.0514 0.85231 0.46889 0.0
C997 C 0.01168 0.8614 0.5731 0.0
C998 C 0.99814 0.84652 0.56731 0.0
C999 C 0.00578 0.87926 0.59604 0.0
C1000 C 0.01923 0.89574 0.6016 0.0
C1001 C 0.02822 0.90372 0.55429 0.0
C1002 C 0.04093 0.91923 0.55995 0.0
C1003 C 0.04466 0.92698 0.61266 0.0
C1004 C 0.03562 0.91927 0.6598 0.0
C1005 C 0.0229 0.90375 0.65436 0.0
H1006 H 0.05451 0.939 0.61696 0.0
H1007 H 0.92781 0.79191 0.54834 0.0
H1008 H 0.32969 0.32731 0.04648 0.0
H1009 H 0.32496 0.29217 0.04952 0.0
H1010 H 0.3416 0.29167 0.22294 0.0
H1011 H 0.34618 0.32642 0.22047 0.0
H1012 H 0.36186 0.26541 0.15833 0.0
H1013 H 0.29622 0.28527 0.19156 0.0
H1014 H 0.26595 0.30239 0.17022 0.0
H1015 H 0.26062 0.27091 0.0168 0.0
H1016 H 0.29103 0.25378 0.03686 0.0
H1017 H 0.34243 0.17025 0.23786 0.0
H1018 H 0.3385 0.20535 0.23545 0.0
H1019 H 0.32132 0.20221 0.06269 0.0
H1020 H 0.32525 0.1672 0.06476 0.0
H1021 H 0.30075 0.23016 0.12307 0.0
H1022 H 0.36602 0.21084 0.08721 0.0
H1023 H 0.39646 0.19361 0.10589 0.0
H1024 H 0.40297 0.22433 0.26019 0.0
H1025 H 0.3724 0.24155 0.24283 0.0
C1026 C 0.33211 0.31968 0.0853 0.0
C1027 C 0.33837 0.32958 0.13313 0.0
C1028 C 0.32938 0.29967 0.08702 0.0
C1029 C 0.33298 0.28939 0.13649 0.0
C1030 C 0.33882 0.29935 0.18437 0.0
C1031 C 0.34139 0.31923 0.18283 0.0
C1032 C 0.33168 0.26812 0.1383 0.0
C1033 C 0.34845 0.25772 0.15126 0.0
C1034 C 0.31429 0.25812 0.12755 0.0
C1035 C 0.29602 0.26841 0.11539 0.0
C1036 C 0.2887 0.28213 0.153 0.0
C1037 C 0.27149 0.29181 0.14119 0.0
C1038 C 0.2614 0.28779 0.09209 0.0
C1039 C 0.26847 0.27404 0.05476 0.0
C1040 C 0.28569 0.26433 0.06634 0.0
C1041 C 0.33737 0.17702 0.19983 0.0
C1042 C 0.33437 0.1661 0.15133 0.0
C1043 C 0.3352 0.19703 0.19842 0.0
C1044 C 0.3299 0.20633 0.14863 0.0
C1045 C 0.32548 0.19529 0.10141 0.0
C1046 C 0.32781 0.17533 0.10263 0.0
C1047 C 0.33085 0.22756 0.14416 0.0
C1048 C 0.31412 0.2379 0.13028 0.0
C1049 C 0.34833 0.23756 0.15361 0.0
C1050 C 0.36679 0.22732 0.16404 0.0
C1051 C 0.37385 0.2138 0.12537 0.0
C1052 C 0.39114 0.20405 0.13567 0.0
C1053 C 0.4016 0.20781 0.18431 0.0
C1054 C 0.39482 0.2214 0.2226 0.0
C1055 C 0.37752 0.23116 0.21255 0.0
H1056 H 0.41495 0.20023 0.19227 0.0
H1057 H 0.24807 0.29528 0.08304 0.0
H1058 H 0.17736 0.65172 0.9531 0.0
H1059 H 0.21137 0.66018 0.95502 0.0
H1060 H 0.20677 0.68421 0.78944 0.0
H1061 H 0.17237 0.67554 0.787 0.0
H1062 H 0.23743 0.66054 0.79939 0.0
H1063 H 0.21283 0.71382 0.90064 0.0
H1064 H 0.19333 0.73067 0.97142 0.0
H1065 H 0.22422 0.70166 0.10206 0.0
H1066 H 0.24372 0.68439 0.03207 0.0
H1067 H 0.33496 0.68224 0.81293 0.0
H1068 H 0.3007 0.69028 0.81017 0.0
H1069 H 0.29326 0.66524 0.97367 0.0
H1070 H 0.32794 0.65812 0.97773 0.0
H1071 H 0.26833 0.69511 0.95719 0.0
H1072 H 0.28773 0.63764 0.8554 0.0
H1073 H 0.30738 0.62042 0.78557 0.0
H1074 H 0.28582 0.65761 0.65654 0.0
H1075 H 0.26619 0.67517 0.7258 0.0
C1076 C 0.1835 0.65889 0.91706 0.0
C1077 C 0.1722 0.66293 0.86978 0.0
C1078 C 0.20294 0.66388 0.91848 0.0
C1079 C 0.21154 0.67314 0.87282 0.0
C1080 C 0.20034 0.67722 0.82534 0.0
C1081 C 0.18075 0.67224 0.82393 0.0
C1082 C 0.23253 0.67718 0.87388 0.0
C1083 C 0.24414 0.66853 0.83312 0.0
C1084 C 0.24131 0.68728 0.91858 0.0
C1085 C 0.22968 0.69771 0.96098 0.0
C1086 C 0.21539 0.71092 0.94444 0.0
C1087 C 0.20434 0.72057 0.98444 0.0
C1088 C 0.20752 0.71722 0.0412 0.0
C1089 C 0.22178 0.70424 0.05807 0.0
C1090 C 0.23285 0.69454 0.01824 0.0
C1091 C 0.32611 0.67903 0.84901 0.0
C1092 C 0.33396 0.66943 0.89533 0.0
C1093 C 0.30654 0.68354 0.84728 0.0
C1094 C 0.29434 0.67786 0.891 0.0
C1095 C 0.30242 0.66965 0.93932 0.0
C1096 C 0.32219 0.66556 0.94162 0.0
C1097 C 0.27311 0.67816 0.88332 0.0
C1098 C 0.26153 0.68752 0.92289 0.0
C1099 C 0.26428 0.66868 0.83761 0.0
C1100 C 0.27562 0.65778 0.79576 0.0
C1101 C 0.28722 0.64215 0.81214 0.0
C1102 C 0.29835 0.63234 0.77269 0.0
C1103 C 0.29787 0.63793 0.71667 0.0
C1104 C 0.28618 0.6533 0.69995 0.0
C1105 C 0.27503 0.66317 0.73925 0.0
H1106 H 0.30652 0.63034 0.6862 0.0
H1107 H 0.19895 0.72471 0.0721 0.0
H1108 H 0.63025 0.82321 0.16509 0.0
H1109 H 0.63859 0.78906 0.15929 0.0
H1110 H 0.69907 0.80345 0.16586 0.0
H1111 H 0.6907 0.8379 0.1739 0.0
H1112 H 0.67853 0.7776 0.06516 0.0
H1113 H 0.69463 0.78195 0.25973 0.0
H1114 H 0.68955 0.79225 0.35707 0.0
H1115 H 0.63603 0.76115 0.36233 0.0
H1116 H 0.64063 0.75092 0.26467 0.0
H1117 H 0.68506 0.67321 0.05285 0.0
H1118 H 0.6927 0.70736 0.06858 0.0
H1119 H 0.639 0.71426 0.1576 0.0
H1120 H 0.63169 0.68031 0.14358 0.0
H1121 H 0.66686 0.72972 0.21514 0.0
H1122 H 0.64683 0.73077 0.02052 0.0
H1123 H 0.64886 0.72181 0.92109 0.0
H1124 H 0.70682 0.74354 0.91361 0.0
H1125 H 0.7052 0.75241 0.01325 0.0
C1126 C 0.64531 0.81906 0.16645 0.0
C1127 C 0.65985 0.83304 0.17023 0.0
C1128 C 0.65005 0.79962 0.16303 0.0
C1129 C 0.6694 0.79386 0.1621 0.0
C1130 C 0.68405 0.80773 0.1668 0.0
C1131 C 0.67927 0.82728 0.17172 0.0
C1132 C 0.67375 0.77332 0.15302 0.0
C1133 C 0.67663 0.76702 0.09808 0.0
C1134 C 0.67076 0.75973 0.19592 0.0
C1135 C 0.66792 0.76579 0.25472 0.0
C1136 C 0.68169 0.77746 0.28145 0.0
C1137 C 0.67891 0.78326 0.33673 0.0
C1138 C 0.66246 0.77739 0.36583 0.0
C1139 C 0.64876 0.76569 0.33973 0.0
C1140 C 0.65146 0.75987 0.28443 0.0
C1141 C 0.67483 0.68215 0.07513 0.0
C1142 C 0.65782 0.67417 0.09713 0.0
C1143 C 0.67921 0.70161 0.08419 0.0
C1144 C 0.66646 0.71337 0.11453 0.0
C1145 C 0.64919 0.70545 0.13472 0.0
C1146 C 0.64496 0.68606 0.12637 0.0
C1147 C 0.67088 0.73386 0.12667 0.0
C1148 C 0.66952 0.74015 0.18227 0.0
C1149 C 0.675 0.74744 0.08415 0.0
C1150 C 0.676 0.74198 0.02446 0.0
C1151 C 0.66007 0.73346 0.99779 0.0
C1152 C 0.66113 0.72844 0.94138 0.0
C1153 C 0.67799 0.73203 0.91111 0.0
C1154 C 0.6938 0.74071 0.93715 0.0
C1155 C 0.69282 0.74573 0.99357 0.0
H1156 H 0.67878 0.72815 0.86743 0.0
H1157 H 0.66034 0.78188 0.40864 0.0
H1158 H 0.6671 0.3509 0.78796 0.0
H1159 H 0.70135 0.34309 0.78381 0.0
H1160 H 0.70137 0.33124 0.96058 0.0
H1161 H 0.66689 0.3392 0.96515 0.0
H1162 H 0.73011 0.35579 0.92946 0.0
H1163 H 0.70583 0.2948 0.86804 0.0
H1164 H 0.68586 0.27317 0.8104 0.0
H1165 H 0.71483 0.2929 0.66268 0.0
H1166 H 0.7348 0.31487 0.71932 0.0
H1167 H 0.82577 0.32737 0.94064 0.0
H1168 H 0.79082 0.32356 0.94304 0.0
H1169 H 0.78786 0.33603 0.76684 0.0
H1170 H 0.82315 0.3394 0.7639 0.0
H1171 H 0.76042 0.30903 0.7996 0.0
H1172 H 0.78198 0.37171 0.85652 0.0
H1173 H 0.8015 0.39477 0.91071 0.0
H1174 H 0.77679 0.3734 0.063 0.0
H1175 H 0.75734 0.34998 0.0097 0.0
C1176 C 0.67434 0.34649 0.82595 0.0
C1177 C 0.66437 0.34576 0.87701 0.0
C1178 C 0.69388 0.34188 0.82338 0.0
C1179 C 0.70384 0.3364 0.87175 0.0
C1180 C 0.69388 0.33536 0.92273 0.0
C1181 C 0.67423 0.33989 0.9253 0.0
C1182 C 0.72496 0.33326 0.86954 0.0
C1183 C 0.73671 0.34526 0.90198 0.0
C1184 C 0.73354 0.32001 0.8321 0.0
C1185 C 0.72174 0.30659 0.79795 0.0
C1186 C 0.70787 0.29462 0.82323 0.0
C1187 C 0.69657 0.28228 0.79074 0.0
C1188 C 0.69908 0.28166 0.73293 0.0
C1189 C 0.71292 0.29337 0.70748 0.0
C1190 C 0.72426 0.30576 0.73977 0.0
C1191 C 0.81772 0.32894 0.90213 0.0
C1192 C 0.82708 0.33397 0.85222 0.0
C1193 C 0.79776 0.32675 0.90359 0.0
C1194 C 0.78673 0.32993 0.85541 0.0
C1195 C 0.79613 0.33359 0.80453 0.0
C1196 C 0.81624 0.33556 0.8029 0.0
C1197 C 0.76548 0.33147 0.85985 0.0
C1198 C 0.75375 0.31933 0.8276 0.0
C1199 C 0.75682 0.34477 0.89702 0.0
C1200 C 0.76836 0.35896 0.92917 0.0
C1201 C 0.78082 0.37183 0.90159 0.0
C1202 C 0.79185 0.38498 0.93213 0.0
C1203 C 0.79042 0.38552 0.99027 0.0
C1204 C 0.7779 0.37294 0.01797 0.0
C1205 C 0.76686 0.35974 0.98761 0.0
H1206 H 0.79897 0.39571 0.01385 0.0
H1207 H 0.69031 0.2721 0.70784 0.0
H1208 H 0.82464 0.6622 0.53505 0.0
H1209 H 0.81836 0.69676 0.52949 0.0
H1210 H 0.83416 0.70301 0.70269 0.0
H1211 H 0.84011 0.66824 0.70882 0.0
H1212 H 0.80521 0.72828 0.67208 0.0
H1213 H 0.86772 0.70859 0.60524 0.0
H1214 H 0.89007 0.68949 0.54742 0.0
H1215 H 0.86426 0.71249 0.3987 0.0
H1216 H 0.84154 0.7315 0.45573 0.0
H1217 H 0.84654 0.82101 0.68346 0.0
H1218 H 0.83952 0.78661 0.6849 0.0
H1219 H 0.82387 0.78877 0.51075 0.0
H1220 H 0.83096 0.82345 0.50893 0.0
H1221 H 0.84909 0.75944 0.53532 0.0
H1222 H 0.78926 0.78296 0.60633 0.0
H1223 H 0.7682 0.80234 0.66727 0.0
H1224 H 0.79022 0.77283 0.81134 0.0
H1225 H 0.81164 0.75346 0.75135 0.0
C1226 C 0.82634 0.67087 0.57231 0.0
C1227 C 0.83316 0.66266 0.62215 0.0
C1228 C 0.82275 0.6906 0.56905 0.0
C1229 C 0.82622 0.70247 0.61531 0.0
C1230 C 0.83148 0.69407 0.66645 0.0
C1231 C 0.8349 0.67424 0.6699 0.0
C1232 C 0.82665 0.72366 0.60852 0.0
C1233 C 0.81483 0.73514 0.64241 0.0
C1234 C 0.83901 0.73254 0.56908 0.0
C1235 C 0.85279 0.72129 0.53472 0.0
C1236 C 0.86672 0.70946 0.5602 0.0
C1237 C 0.87946 0.69866 0.52759 0.0
C1238 C 0.87855 0.69973 0.46942 0.0
C1239 C 0.86492 0.71165 0.44376 0.0
C1240 C 0.85211 0.72244 0.4762 0.0
C1241 C 0.84152 0.81422 0.64546 0.0
C1242 C 0.83933 0.8249 0.596 0.0
C1243 C 0.83737 0.79458 0.64649 0.0
C1244 C 0.83092 0.78522 0.59815 0.0
C1245 C 0.82871 0.79581 0.54859 0.0
C1246 C 0.83277 0.81556 0.54759 0.0
C1247 C 0.82771 0.76415 0.59906 0.0
C1248 C 0.83915 0.75264 0.56427 0.0
C1249 C 0.81515 0.75532 0.63806 0.0
C1250 C 0.80217 0.76684 0.67431 0.0
C1251 C 0.78972 0.78069 0.65104 0.0
C1252 C 0.7777 0.79166 0.68541 0.0
C1253 C 0.7779 0.78884 0.74314 0.0
C1254 C 0.79009 0.775 0.76661 0.0
C1255 C 0.80216 0.764 0.73242 0.0
H1256 H 0.76858 0.79735 0.76969 0.0
H1257 H 0.88842 0.69136 0.44422 0.0
H1258 H 0.83008 0.16095 0.28866 0.0
H1259 H 0.79568 0.16801 0.29071 0.0
H1260 H 0.796 0.16405 0.47042 0.0
H1261 H 0.83066 0.15674 0.46858 0.0
H1262 H 0.7684 0.14167 0.42396 0.0
H1263 H 0.78841 0.20731 0.40657 0.0
H1264 H 0.80679 0.23438 0.36636 0.0
H1265 H 0.77925 0.22545 0.20798 0.0
H1266 H 0.76081 0.19819 0.24712 0.0
H1267 H 0.67144 0.16584 0.45511 0.0
H1268 H 0.70635 0.16969 0.45844 0.0
H1269 H 0.70869 0.16912 0.2786 0.0
H1270 H 0.67344 0.16538 0.27483 0.0
H1271 H 0.73489 0.19562 0.32841 0.0
H1272 H 0.717 0.12898 0.34261 0.0
H1273 H 0.69905 0.1012 0.38044 0.0
H1274 H 0.72348 0.11134 0.54245 0.0
H1275 H 0.74134 0.1394 0.50576 0.0
C1276 C 0.82291 0.16186 0.32875 0.0
C1277 C 0.83301 0.15817 0.3785 0.0
C1278 C 0.80326 0.16603 0.32984 0.0
C1279 C 0.79329 0.16668 0.38071 0.0
C1280 C 0.80346 0.16367 0.43071 0.0
C1281 C 0.82323 0.15956 0.42966 0.0
C1282 C 0.77201 0.16868 0.38085 0.0
C1283 C 0.76109 0.1537 0.40418 0.0
C1284 C 0.7625 0.18403 0.35323 0.0
C1285 C 0.77332 0.20061 0.32971 0.0
C1286 C 0.78634 0.21105 0.36308 0.0
C1287 C 0.79676 0.22644 0.34049 0.0
C1288 C 0.79423 0.23159 0.2846 0.0
C1289 C 0.7812 0.22143 0.25126 0.0
C1290 C 0.77072 0.20604 0.27367 0.0
C1291 C 0.67931 0.16679 0.41614 0.0
C1292 C 0.66975 0.16506 0.36465 0.0
C1293 C 0.69926 0.16901 0.41818 0.0
C1294 C 0.7101 0.16939 0.36883 0.0
C1295 C 0.70054 0.16881 0.31716 0.0
C1296 C 0.68045 0.16663 0.31505 0.0
C1297 C 0.73142 0.16867 0.37182 0.0
C1298 C 0.74228 0.18377 0.3488 0.0
C1299 C 0.74096 0.15336 0.39944 0.0
C1300 C 0.73034 0.13642 0.42157 0.0
C1301 C 0.71841 0.12539 0.38641 0.0
C1302 C 0.70828 0.10958 0.40763 0.0
C1303 C 0.71009 0.10454 0.46385 0.0
C1304 C 0.72207 0.11528 0.49893 0.0
C1305 C 0.73221 0.13113 0.47795 0.0
H1306 H 0.70224 0.09229 0.4802 0.0
H1307 H 0.80236 0.24348 0.26715 0.0
H1308 H 0.19839 0.33614 0.71097 0.0
H1309 H 0.21068 0.30349 0.69372 0.0
H1310 H 0.15349 0.28053 0.71841 0.0
H1311 H 0.14116 0.31302 0.73403 0.0
H1312 H 0.18527 0.25483 0.7522 0.0
H1313 H 0.16076 0.29475 0.59353 0.0
H1314 H 0.16258 0.32632 0.54623 0.0
H1315 H 0.2234 0.31859 0.52077 0.0
H1316 H 0.22193 0.28706 0.56872 0.0
H1317 H 0.14 0.19214 0.58585 0.0
H1318 H 0.15133 0.22437 0.60933 0.0
H1319 H 0.20964 0.20774 0.56967 0.0
H1320 H 0.19827 0.17514 0.54554 0.0
H1321 H 0.19089 0.25239 0.54555 0.0
H1322 H 0.21055 0.20481 0.68333 0.0
H1323 H 0.20516 0.17455 0.73514 0.0
H1324 H 0.15281 0.19755 0.80389 0.0
H1325 H 0.15772 0.22781 0.7516 0.0
C1326 C 0.18869 0.32399 0.71532 0.0
C1327 C 0.16885 0.32694 0.72354 0.0
C1328 C 0.19571 0.3054 0.70534 0.0
C1329 C 0.18294 0.28968 0.70449 0.0
C1330 C 0.16357 0.29247 0.71924 0.0
C1331 C 0.15652 0.31101 0.72799 0.0
C1332 C 0.18822 0.27142 0.67679 0.0
C1333 C 0.18715 0.25424 0.70729 0.0
C1334 C 0.19065 0.27072 0.61815 0.0
C1335 C 0.19124 0.28862 0.58455 0.0
C1336 C 0.17448 0.29974 0.57738 0.0
C1337 C 0.17546 0.31765 0.55077 0.0
C1338 C 0.19311 0.32448 0.53071 0.0
C1339 C 0.20975 0.31329 0.53649 0.0
C1340 C 0.20885 0.29538 0.56328 0.0
C1341 C 0.15513 0.19552 0.58013 0.0
C1342 C 0.1683 0.18118 0.5644 0.0
C1343 C 0.16158 0.21393 0.59344 0.0
C1344 C 0.1813 0.21829 0.59169 0.0
C1345 C 0.19434 0.20459 0.57096 0.0
C1346 C 0.18783 0.18604 0.55715 0.0
C1347 C 0.18792 0.23577 0.62107 0.0
C1348 C 0.19056 0.25286 0.59078 0.0
C1349 C 0.18713 0.23638 0.68008 0.0
C1350 C 0.18448 0.21854 0.71341 0.0
C1351 C 0.19786 0.20338 0.70933 0.0
C1352 C 0.19488 0.18623 0.73875 0.0
C1353 C 0.17864 0.18412 0.77275 0.0
C1354 C 0.16539 0.1992 0.77756 0.0
C1355 C 0.16828 0.21637 0.7481 0.0
H1356 H 0.17634 0.17082 0.7954 0.0
H1357 H 0.19388 0.33846 0.51072 0.0
H1358 H 0.1896 0.87146 0.43508 0.0
H1359 H 0.22136 0.85896 0.411 0.0
H1360 H 0.20243 0.80131 0.44959 0.0
H1361 H 0.17031 0.81379 0.4737 0.0
H1362 H 0.24877 0.81939 0.46949 0.0
H1363 H 0.19887 0.79845 0.34044 0.0
H1364 H 0.16727 0.8039 0.29596 0.0
H1365 H 0.18864 0.85579 0.22037 0.0
H1366 H 0.22022 0.85096 0.266 0.0
H1367 H 0.32855 0.80454 0.2947 0.0
H1368 H 0.29542 0.795 0.31713 0.0
H1369 H 0.27617 0.85309 0.286 0.0
H1370 H 0.30925 0.86278 0.26495 0.0
H1371 H 0.24745 0.82251 0.26225 0.0
H1372 H 0.29316 0.84615 0.40711 0.0
H1373 H 0.32475 0.84295 0.45376 0.0
H1374 H 0.31121 0.78458 0.49861 0.0
H1375 H 0.27967 0.78735 0.45116 0.0
C1376 C 0.19239 0.85622 0.44065 0.0
C1377 C 0.17747 0.84355 0.45554 0.0
C1378 C 0.21055 0.84911 0.427 0.0
C1379 C 0.21408 0.82923 0.42792 0.0
C1380 C 0.19992 0.81671 0.4488 0.0
C1381 C 0.18162 0.82386 0.46265 0.0
C1382 C 0.23087 0.82197 0.39646 0.0
C1383 C 0.24842 0.81923 0.42423 0.0
C1384 C 0.23035 0.82202 0.33741 0.0
C1385 C 0.21185 0.82441 0.30697 0.0
C1386 C 0.19679 0.81109 0.31463 0.0
C1387 C 0.17885 0.81411 0.28944 0.0
C1388 C 0.17591 0.83023 0.25553 0.0
C1389 C 0.19093 0.84333 0.24669 0.0
C1390 C 0.20885 0.84047 0.27229 0.0
C1391 C 0.3171 0.81503 0.28993 0.0
C1392 C 0.3214 0.83445 0.27867 0.0
C1393 C 0.2982 0.80956 0.30291 0.0
C1394 C 0.28345 0.8234 0.30381 0.0
C1395 C 0.28736 0.84219 0.28539 0.0
C1396 C 0.30626 0.84774 0.27348 0.0
C1397 C 0.26542 0.81992 0.33521 0.0
C1398 C 0.24769 0.82127 0.30738 0.0
C1399 C 0.26576 0.81819 0.39416 0.0
C1400 C 0.28416 0.81691 0.42537 0.0
C1401 C 0.29694 0.83264 0.42693 0.0
C1402 C 0.31484 0.83089 0.45337 0.0
C1403 C 0.31999 0.81356 0.47908 0.0
C1404 C 0.3072 0.79798 0.47863 0.0
C1405 C 0.28932 0.79963 0.45196 0.0
H1406 H 0.33388 0.81221 0.4994 0.0
H1407 H 0.16203 0.8325 0.23593 0.0
H1408 H 0.21759 0.11516 0.65581 0.0
H1409 H 0.24187 0.1075 0.72594 0.0
H1410 H 0.19733 0.10185 0.85067 0.0
H1411 H 0.17282 0.1098 0.78042 0.0
H1412 H 0.22787 0.12257 0.88835 0.0
H1413 H 0.21855 0.06205 0.79684 0.0
H1414 H 0.21592 0.04009 0.71638 0.0
H1415 H 0.27438 0.05285 0.67001 0.0
H1416 H 0.27728 0.07512 0.74975 0.0
H1417 H 0.29174 0.08643 0.08919 0.0
H1418 H 0.26512 0.08539 0.02249 0.0
H1419 H 0.30505 0.09503 0.88726 0.0
H1420 H 0.33185 0.09595 0.95382 0.0
H1421 H 0.27519 0.06987 0.85876 0.0
H1422 H 0.28357 0.13233 0.94302 0.0
H1423 H 0.28678 0.1548 0.02217 0.0
H1424 H 0.23037 0.13889 0.08023 0.0
H1425 H 0.22697 0.11607 0.00189 0.0
C1426 C 0.21292 0.11229 0.69815 0.0
C1427 C 0.1933 0.11298 0.71264 0.0
C1428 C 0.22682 0.1078 0.7381 0.0
C1429 C 0.22137 0.10377 0.79324 0.0
C1430 C 0.20181 0.10479 0.80818 0.0
C1431 C 0.18784 0.10931 0.7681 0.0
C1432 C 0.23626 0.09897 0.83531 0.0
C1433 C 0.23796 0.1108 0.88246 0.0
C1434 C 0.24971 0.08389 0.82683 0.0
C1435 C 0.24808 0.07037 0.77909 0.0
C1436 C 0.23081 0.06028 0.76928 0.0
C1437 C 0.22927 0.04776 0.72382 0.0
C1438 C 0.24496 0.0451 0.68804 0.0
C1439 C 0.26223 0.05493 0.69774 0.0
C1440 C 0.26384 0.06748 0.74311 0.0
C1441 C 0.29492 0.0879 0.04513 0.0
C1442 C 0.31383 0.09153 0.02669 0.0
C1443 C 0.2797 0.08734 0.00714 0.0
C1444 C 0.28312 0.09049 0.95018 0.0
C1445 C 0.30214 0.09264 0.93114 0.0
C1446 C 0.31742 0.09318 0.96918 0.0
C1447 C 0.26678 0.09351 0.91145 0.0
C1448 C 0.26489 0.08144 0.86492 0.0
C1449 C 0.25319 0.10843 0.92027 0.0
C1450 C 0.2551 0.12234 0.96697 0.0
C1451 C 0.27191 0.13352 0.97291 0.0
C1452 C 0.27376 0.14633 0.01759 0.0
C1453 C 0.25881 0.14823 0.05628 0.0
C1454 C 0.24195 0.13737 0.05027 0.0
C1455 C 0.24005 0.1245 0.00574 0.0
H1456 H 0.26026 0.15816 0.09085 0.0
H1457 H 0.24374 0.03541 0.65286 0.0
H1458 H 0.12853 0.7945 0.34768 0.0
H1459 H 0.1263 0.76922 0.27753 0.0
H1460 H 0.1062 0.81069 0.15659 0.0
H1461 H 0.10839 0.83627 0.22717 0.0
H1462 H 0.08377 0.77824 0.15882 0.0
H1463 H 0.15062 0.79232 0.13879 0.0
H1464 H 0.18419 0.79862 0.16753 0.0
H1465 H 0.18703 0.74297 0.24544 0.0
H1466 H 0.1535 0.73625 0.21665 0.0
H1467 H 0.09632 0.71299 0.92919 0.0
H1468 H 0.09724 0.74022 0.99382 0.0
H1469 H 0.11295 0.70186 0.12801 0.0
H1470 H 0.11188 0.67444 0.06355 0.0
H1471 H 0.13782 0.73399 0.11426 0.0
H1472 H 0.06987 0.72046 0.12941 0.0
H1473 H 0.03704 0.71482 0.09336 0.0
H1474 H 0.03681 0.77109 0.01873 0.0
H1475 H 0.06977 0.77696 0.05368 0.0
C1476 C 0.12371 0.7983 0.30609 0.0
C1477 C 0.11853 0.81733 0.29291 0.0
C1478 C 0.12257 0.78384 0.26594 0.0
C1479 C 0.11622 0.78811 0.21177 0.0
C1480 C 0.11117 0.80714 0.1982 0.0
C1481 C 0.11245 0.8217 0.23842 0.0
C1482 C 0.11401 0.77235 0.17064 0.0
C1483 C 0.09566 0.76876 0.14823 0.0
C1484 C 0.12945 0.75981 0.15772 0.0
C1485 C 0.1495 0.76386 0.17599 0.0
C1486 C 0.15836 0.78148 0.16236 0.0
C1487 C 0.17741 0.78508 0.17839 0.0
C1488 C 0.1877 0.77125 0.20853 0.0
C1489 C 0.17902 0.75369 0.22221 0.0
C1490 C 0.16003 0.74993 0.20578 0.0
C1491 C 0.09965 0.71031 0.97268 0.0
C1492 C 0.10405 0.69162 0.99144 0.0
C1493 C 0.10014 0.72587 0.0095 0.0
C1494 C 0.10517 0.72301 0.06556 0.0
C1495 C 0.10904 0.7043 0.0848 0.0
C1496 C 0.10832 0.68867 0.0481 0.0
C1497 C 0.10753 0.73973 0.10314 0.0
C1498 C 0.12595 0.74351 0.12475 0.0
C1499 C 0.0922 0.75256 0.11464 0.0
C1500 C 0.07237 0.74907 0.09367 0.0
C1501 C 0.0629 0.73156 0.10487 0.0
C1502 C 0.04424 0.72834 0.08473 0.0
C1503 C 0.03486 0.74257 0.05364 0.0
C1504 C 0.0441 0.76007 0.04275 0.0
C1505 C 0.06276 0.76336 0.06276 0.0
H1506 H 0.02042 0.74005 0.03809 0.0
H1507 H 0.20241 0.77413 0.22121 0.0
H1508 H 0.66497 0.89213 0.9562 0.0
H1509 H 0.69026 0.8937 0.88463 0.0
H1510 H 0.73104 0.9131 0.00843 0.0
H1511 H 0.70597 0.91146 0.07992 0.0
H1512 H 0.73478 0.93256 0.90715 0.0
H1513 H 0.73062 0.86771 0.97686 0.0
H1514 H 0.71424 0.83722 0.00025 0.0
H1515 H 0.69895 0.82935 0.82812 0.0
H1516 H 0.71497 0.86 0.80384 0.0
H1517 H 0.82418 0.90599 0.77788 0.0
H1518 H 0.7969 0.90992 0.8422 0.0
H1519 H 0.75808 0.88864 0.71575 0.0
H1520 H 0.7851 0.8847 0.65159 0.0
H1521 H 0.7526 0.87089 0.81605 0.0
H1522 H 0.75834 0.93532 0.74585 0.0
H1523 H 0.77511 0.96569 0.72345 0.0
H1524 H 0.78799 0.97419 0.89697 0.0
H1525 H 0.77153 0.9437 0.92033 0.0
C1526 C 0.67925 0.897 0.96786 0.0
C1527 C 0.68357 0.90153 0.02359 0.0
C1528 C 0.69368 0.89784 0.92709 0.0
C1529 C 0.71254 0.90336 0.94148 0.0
C1530 C 0.71659 0.90881 0.99653 0.0
C1531 C 0.70227 0.90778 0.03732 0.0
C1532 C 0.72839 0.90228 0.90023 0.0
C1533 C 0.73879 0.91907 0.88747 0.0
C1534 C 0.73342 0.88471 0.87419 0.0
C1535 C 0.72378 0.86627 0.88865 0.0
C1536 C 0.7236 0.85958 0.94408 0.0
C1537 C 0.71441 0.84225 0.95749 0.0
C1538 C 0.7055 0.83138 0.91573 0.0
C1539 C 0.70581 0.83781 0.86044 0.0
C1540 C 0.71495 0.85516 0.84683 0.0
C1541 C 0.80981 0.90229 0.76379 0.0
C1542 C 0.80677 0.89504 0.70977 0.0
C1543 C 0.79425 0.90459 0.80043 0.0
C1544 C 0.77547 0.89964 0.78357 0.0
C1545 C 0.77245 0.89253 0.72956 0.0
C1546 C 0.78792 0.89035 0.69292 0.0
C1547 C 0.759 0.90119 0.82269 0.0
C1548 C 0.74852 0.88444 0.8353 0.0
C1549 C 0.75397 0.91878 0.84865 0.0
C1550 C 0.76388 0.93712 0.83476 0.0
C1551 C 0.7649 0.94357 0.77918 0.0
C1552 C 0.77432 0.96082 0.76632 0.0
C1553 C 0.78266 0.97183 0.80874 0.0
C1554 C 0.78155 0.96563 0.86414 0.0
C1555 C 0.77217 0.94837 0.87722 0.0
H1556 H 0.78993 0.98519 0.7987 0.0
H1557 H 0.69841 0.81796 0.92618 0.0
H1558 H 0.91139 0.20071 0.32956 0.0
H1559 H 0.91543 0.22856 0.2685 0.0
H1560 H 0.90934 0.19197 0.12417 0.0
H1561 H 0.90534 0.16387 0.18523 0.0
H1562 H 0.93731 0.22146 0.11082 0.0
H1563 H 0.87109 0.21397 0.16884 0.0
H1564 H 0.84498 0.20993 0.23781 0.0
H1565 H 0.86036 0.26373 0.31414 0.0
H1566 H 0.88676 0.26796 0.2461 0.0
H1567 H 0.90165 0.28664 0.90853 0.0
H1568 H 0.90799 0.26037 0.97357 0.0
H1569 H 0.90846 0.30069 0.11055 0.0
H1570 H 0.90182 0.32714 0.04545 0.0
H1571 H 0.88557 0.27037 0.13171 0.0
H1572 H 0.95007 0.27933 0.06709 0.0
H1573 H 0.97587 0.28323 0.99717 0.0
H1574 H 0.96369 0.22691 0.932 0.0
H1575 H 0.93762 0.22277 0.00102 0.0
C1576 C 0.91123 0.1985 0.28482 0.0
C1577 C 0.90781 0.18015 0.26208 0.0
C1578 C 0.91354 0.21444 0.25005 0.0
C1579 C 0.91239 0.21232 0.19198 0.0
C1580 C 0.91022 0.19386 0.16897 0.0
C1581 C 0.9079 0.17785 0.20383 0.0
C1582 C 0.91169 0.22956 0.15578 0.0
C1583 C 0.92595 0.23211 0.11494 0.0
C1584 C 0.89705 0.24359 0.16222 0.0
C1585 C 0.88104 0.24117 0.20278 0.0
C1586 C 0.869 0.22487 0.2006 0.0
C1587 C 0.85413 0.22255 0.23947 0.0
C1588 C 0.85106 0.23653 0.28043 0.0
C1589 C 0.86279 0.2529 0.28245 0.0
C1590 C 0.8777 0.25527 0.24373 0.0
C1591 C 0.9033 0.28997 0.95242 0.0
C1592 C 0.90118 0.30893 0.972 0.0
C1593 C 0.90705 0.27494 0.9895 0.0
C1594 C 0.90889 0.2786 0.04681 0.0
C1595 C 0.90715 0.29759 0.06641 0.0
C1596 C 0.90339 0.31266 0.02924 0.0
C1597 C 0.9112 0.26237 0.0864 0.0
C1598 C 0.89713 0.25991 0.12786 0.0
C1599 C 0.92598 0.24845 0.08032 0.0
C1600 C 0.94177 0.25081 0.039 0.0
C1601 C 0.95279 0.26783 0.0376 0.0
C1602 C 0.96748 0.27007 0.99816 0.0
C1603 C 0.97139 0.25534 0.96008 0.0
C1604 C 0.96064 0.23831 0.96149 0.0
C1605 C 0.94592 0.236 0.00082 0.0
H1606 H 0.98276 0.25712 0.92955 0.0
H1607 H 0.83959 0.23469 0.31058 0.0
H1608 H 0.16775 0.39097 0.48449 0.0
H1609 H 0.19262 0.39638 0.4133 0.0
H1610 H 0.23689 0.38927 0.53829 0.0
H1611 H 0.21224 0.38429 0.60932 0.0
H1612 H 0.24394 0.42018 0.47704 0.0
H1613 H 0.22756 0.35318 0.43835 0.0
H1614 H 0.20609 0.32607 0.41377 0.0
H1615 H 0.18835 0.3557 0.26515 0.0
H1616 H 0.20992 0.38285 0.28832 0.0
H1617 H 0.32806 0.40099 0.31713 0.0
H1618 H 0.30048 0.4021 0.38069 0.0
H1619 H 0.26211 0.41006 0.24073 0.0
H1620 H 0.28957 0.40859 0.17699 0.0
H1621 H 0.25002 0.38149 0.30409 0.0
H1622 H 0.26994 0.44629 0.33611 0.0
H1623 H 0.29256 0.47265 0.35796 0.0
H1624 H 0.30347 0.4478 0.51904 0.0
H1625 H 0.28111 0.42113 0.49787 0.0
C1626 C 0.18279 0.39048 0.49656 0.0
C1627 C 0.18806 0.38733 0.55244 0.0
C1628 C 0.19699 0.39349 0.45589 0.0
C1629 C 0.21663 0.39317 0.47048 0.0
C1630 C 0.22184 0.38971 0.52613 0.0
C1631 C 0.20772 0.38682 0.56667 0.0
C1632 C 0.2319 0.39696 0.42853 0.0
C1633 C 0.24538 0.41161 0.43942 0.0
C1634 C 0.23341 0.38623 0.3786 0.0
C1635 C 0.22016 0.37011 0.36537 0.0
C1636 C 0.21896 0.35397 0.40066 0.0
C1637 C 0.20682 0.33858 0.38693 0.0
C1638 C 0.19574 0.33925 0.33827 0.0
C1639 C 0.19689 0.35523 0.30294 0.0
C1640 C 0.20912 0.37058 0.3162 0.0
C1641 C 0.31379 0.40341 0.30006 0.0
C1642 C 0.31095 0.40462 0.24214 0.0
C1643 C 0.29804 0.40407 0.3364 0.0
C1644 C 0.27921 0.40619 0.31545 0.0
C1645 C 0.27649 0.40834 0.25778 0.0
C1646 C 0.2922 0.40758 0.22146 0.0
C1647 C 0.26231 0.40446 0.35309 0.0
C1648 C 0.2485 0.39022 0.34138 0.0
C1649 C 0.26051 0.41558 0.40223 0.0
C1650 C 0.27395 0.43162 0.4152 0.0
C1651 C 0.27727 0.44636 0.37603 0.0
C1652 C 0.29003 0.46138 0.38833 0.0
C1653 C 0.29947 0.46188 0.43981 0.0
C1654 C 0.29615 0.44738 0.47916 0.0
C1655 C 0.28342 0.43233 0.46706 0.0
H1656 H 0.30934 0.47351 0.44925 0.0
H1657 H 0.18633 0.32734 0.3278 0.0
H1658 H 0.39215 0.82978 0.52164 0.0
H1659 H 0.39708 0.80441 0.59167 0.0
H1660 H 0.37202 0.76267 0.47971 0.0
H1661 H 0.36693 0.78783 0.41015 0.0
H1662 H 0.35934 0.75762 0.58524 0.0
H1663 H 0.42041 0.76677 0.49186 0.0
H1664 H 0.44842 0.78562 0.45946 0.0
H1665 H 0.46246 0.80009 0.62887 0.0
H1666 H 0.43435 0.78153 0.66223 0.0
H1667 H 0.3917 0.66943 0.69137 0.0
H1668 H 0.38955 0.6971 0.6284 0.0
H1669 H 0.4113 0.73425 0.75814 0.0
H1670 H 0.41343 0.70664 0.82157 0.0
H1671 H 0.42581 0.74306 0.64992 0.0
H1672 H 0.36515 0.73437 0.74359 0.0
H1673 H 0.33709 0.71592 0.77731 0.0
H1674 H 0.32261 0.70058 0.60885 0.0
H1675 H 0.3506 0.71907 0.5741 0.0
C1676 C 0.38755 0.81522 0.51231 0.0
C1677 C 0.37934 0.81072 0.46033 0.0
C1678 C 0.39045 0.80075 0.55215 0.0
C1679 C 0.38515 0.78162 0.54051 0.0
C1680 C 0.37627 0.77731 0.48946 0.0
C1681 C 0.37345 0.7917 0.44968 0.0
C1682 C 0.38927 0.76586 0.5805 0.0
C1683 C 0.3739 0.75436 0.59898 0.0
C1684 C 0.40821 0.76187 0.59944 0.0
C1685 C 0.42516 0.77295 0.57948 0.0
C1686 C 0.42938 0.77411 0.52217 0.0
C1687 C 0.44529 0.78471 0.50364 0.0
C1688 C 0.45718 0.7941 0.54207 0.0
C1689 C 0.45322 0.79284 0.59914 0.0
C1690 C 0.4373 0.78228 0.61788 0.0
C1691 C 0.39646 0.68339 0.7061 0.0
C1692 C 0.40261 0.68591 0.76147 0.0
C1693 C 0.39511 0.69919 0.67021 0.0
C1694 C 0.39998 0.71771 0.68904 0.0
C1695 C 0.40741 0.72006 0.743 0.0
C1696 C 0.40862 0.70428 0.77911 0.0
C1697 C 0.39593 0.73473 0.65374 0.0
C1698 C 0.41127 0.74644 0.63632 0.0
C1699 C 0.37696 0.73898 0.6358 0.0
C1700 C 0.36006 0.72794 0.65633 0.0
C1701 C 0.35605 0.72696 0.71378 0.0
C1702 C 0.34014 0.71652 0.73306 0.0
C1703 C 0.32814 0.70695 0.69529 0.0
C1704 C 0.33195 0.70796 0.63808 0.0
C1705 C 0.34779 0.71848 0.61854 0.0
H1706 H 0.31587 0.69881 0.71032 0.0
H1707 H 0.46949 0.8023 0.52765 0.0
H1708 H 0.71479 0.60883 0.15645 0.0
H1709 H 0.74087 0.60067 0.2204 0.0
H1710 H 0.69935 0.58168 0.34278 0.0
H1711 H 0.67298 0.59003 0.27873 0.0
H1712 H 0.72669 0.60525 0.38745 0.0
H1713 H 0.72613 0.54892 0.27299 0.0
H1714 H 0.72599 0.53072 0.18466 0.0
H1715 H 0.78091 0.55502 0.14081 0.0
H1716 H 0.78126 0.57359 0.22851 0.0
H1717 H 0.79982 0.57465 0.56774 0.0
H1718 H 0.77251 0.57079 0.50431 0.0
H1719 H 0.80735 0.59151 0.36769 0.0
H1720 H 0.83488 0.59513 0.43086 0.0
H1721 H 0.78177 0.56343 0.33406 0.0
H1722 H 0.7806 0.6225 0.4396 0.0
H1723 H 0.78133 0.64186 0.52585 0.0
H1724 H 0.72995 0.61359 0.58368 0.0
H1725 H 0.72911 0.59383 0.49809 0.0
C1726 C 0.71117 0.60284 0.19687 0.0
C1727 C 0.69183 0.60006 0.21263 0.0
C1728 C 0.72611 0.59806 0.23324 0.0
C1729 C 0.72206 0.5903 0.286 0.0
C1730 C 0.70276 0.58755 0.30205 0.0
C1731 C 0.68774 0.59231 0.26551 0.0
C1732 C 0.73806 0.58602 0.32509 0.0
C1733 C 0.73851 0.59575 0.37633 0.0
C1734 C 0.75373 0.57403 0.30984 0.0
C1735 C 0.75365 0.56275 0.25722 0.0
C1736 C 0.73812 0.55049 0.24435 0.0
C1737 C 0.73801 0.54009 0.19441 0.0
C1738 C 0.75341 0.54174 0.15711 0.0
C1739 C 0.76898 0.55376 0.16974 0.0
C1740 C 0.76916 0.56421 0.2196 0.0
C1741 C 0.80181 0.57795 0.52392 0.0
C1742 C 0.81939 0.58544 0.50431 0.0
C1743 C 0.78618 0.57577 0.48778 0.0
C1744 C 0.78781 0.58126 0.43162 0.0
C1745 C 0.80578 0.58728 0.41098 0.0
C1746 C 0.82149 0.58935 0.4471 0.0
C1747 C 0.77038 0.58274 0.39608 0.0
C1748 C 0.76974 0.57261 0.34551 0.0
C1749 C 0.75458 0.5945 0.41162 0.0
C1750 C 0.75492 0.60654 0.46277 0.0
C1751 C 0.76954 0.62032 0.4709 0.0
C1752 C 0.76997 0.63137 0.51963 0.0
C1753 C 0.75572 0.62892 0.56028 0.0
C1754 C 0.74099 0.61545 0.55219 0.0
C1755 C 0.74053 0.60432 0.50359 0.0
H1756 H 0.75607 0.63748 0.59799 0.0
H1757 H 0.7533 0.53368 0.11846 0.0
H1758 H 0.58799 0.17597 0.54187 0.0
H1759 H 0.58279 0.20364 0.60377 0.0
H1760 H 0.59509 0.24238 0.46749 0.0
H1761 H 0.60014 0.21496 0.40554 0.0
H1762 H 0.61688 0.24953 0.56303 0.0
H1763 H 0.55066 0.23915 0.51137 0.0
H1764 H 0.52088 0.22015 0.49963 0.0
H1765 H 0.5192 0.20912 0.6759 0.0
H1766 H 0.54916 0.22783 0.6886 0.0
H1767 H 0.59505 0.33779 0.69292 0.0
H1768 H 0.59167 0.31094 0.62722 0.0
H1769 H 0.58058 0.27215 0.76423 0.0
H1770 H 0.58412 0.29883 0.83012 0.0
H1771 H 0.55725 0.26512 0.66839 0.0
H1772 H 0.62339 0.27332 0.72108 0.0
H1773 H 0.65357 0.29138 0.73609 0.0
H1774 H 0.65615 0.30502 0.56145 0.0
H1775 H 0.62575 0.28732 0.54557 0.0
C1776 C 0.58931 0.19039 0.52503 0.0
C1777 C 0.59453 0.19332 0.46901 0.0
C1778 C 0.58631 0.20615 0.56031 0.0
C1779 C 0.58857 0.22501 0.54004 0.0
C1780 C 0.5933 0.22793 0.48383 0.0
C1781 C 0.59613 0.21224 0.44853 0.0
C1782 C 0.58724 0.24171 0.57803 0.0
C1783 C 0.60375 0.25313 0.58538 0.0
C1784 C 0.57028 0.24597 0.60836 0.0
C1785 C 0.55227 0.23472 0.60085 0.0
C1786 C 0.54405 0.23252 0.54757 0.0
C1787 C 0.52711 0.22184 0.54075 0.0
C1788 C 0.51818 0.21339 0.58696 0.0
C1789 C 0.52615 0.21565 0.64013 0.0
C1790 C 0.5431 0.2263 0.64716 0.0
C1791 C 0.59153 0.32361 0.70888 0.0
C1792 C 0.59001 0.32031 0.76652 0.0
C1793 C 0.58965 0.30832 0.67142 0.0
C1794 C 0.58605 0.2896 0.69112 0.0
C1795 C 0.58335 0.28651 0.74836 0.0
C1796 C 0.58547 0.30173 0.78587 0.0
C1797 C 0.5868 0.27302 0.65265 0.0
C1798 C 0.5703 0.26158 0.6456 0.0
C1799 C 0.60385 0.26856 0.62294 0.0
C1800 C 0.62215 0.27921 0.63225 0.0
C1801 C 0.63028 0.28034 0.68596 0.0
C1802 C 0.64745 0.29049 0.69463 0.0
C1803 C 0.65675 0.2994 0.64978 0.0
C1804 C 0.64891 0.29815 0.59617 0.0
C1805 C 0.6317 0.28807 0.58731 0.0
H1806 H 0.67005 0.30722 0.65656 0.0
H1807 H 0.50507 0.20513 0.5816 0.0
loop_
_geom_bond_atom_site_label_1
_geom_bond_atom_site_label_2
_geom_bond_distance
_geom_bond_site_symmetry_2
_ccdc_geom_bond_type
In0 O1 2.294 . S
In0 O2 2.326 . S
In0 O6 2.266 . S
In0 O7 2.326 . S
In0 O8 2.266 . S
In0 O9 2.326 . S
In0 O11 2.294 . S
In0 O12 2.326 . S
O1 In0 2.294 . S
O1 C10 1.240 . S
O2 In0 2.326 . S
O2 C10 1.252 . S
C3 O6 1.252 . S
C3 O7 1.260 . S
C4 O11 1.240 . S
C4 O12 1.252 . S
C5 O8 1.252 . S
C5 O9 1.260 . S
O6 In0 2.266 . S
O6 C3 1.252 . S
O7 In0 2.326 . S
O7 C3 1.260 . S
O8 In0 2.266 . S
O8 C5 1.252 . S
O9 In0 2.326 . S
O9 C5 1.260 . S
C10 O1 1.240 . S
C10 O2 1.252 . S
O11 In0 2.294 . S
O11 C4 1.240 . S
O12 In0 2.326 . S
O12 C4 1.252 . S
In13 O14 2.294 . S
In13 O15 2.326 . S
In13 O19 2.266 . S
In13 O20 2.326 . S
In13 O21 2.266 . S
In13 O22 2.326 . S
In13 O24 2.294 . S
In13 O25 2.326 . S
O14 In13 2.294 . S
O14 C23 1.240 . S
O15 In13 2.326 . S
O15 C23 1.252 . S
C16 O19 1.252 . S
C16 O20 1.260 . S
C17 O24 1.240 . S
C17 O25 1.252 . S
C18 O21 1.252 . S
C18 O22 1.260 . S
O19 In13 2.266 . S
O19 C16 1.252 . S
O20 In13 2.326 . S
O20 C16 1.260 . S
O21 In13 2.266 . S
O21 C18 1.252 . S
O22 In13 2.326 . S
O22 C18 1.260 . S
C23 O14 1.240 . S
C23 O15 1.252 . S
O24 In13 2.294 . S
O24 C17 1.240 . S
O25 In13 2.326 . S
O25 C17 1.252 . S
In26 O27 2.294 . S
In26 O28 2.326 . S
In26 O32 2.266 . S
In26 O33 2.326 . S
In26 O34 2.266 . S
In26 O35 2.326 . S
In26 O37 2.294 . S
In26 O38 2.326 . S
O27 In26 2.294 . S
O27 C36 1.240 . S
O28 In26 2.326 . S
O28 C36 1.252 . S
C29 O32 1.252 . S
C29 O33 1.260 . S
C30 O37 1.240 . S
C30 O38 1.252 . S
C31 O34 1.252 . S
C31 O35 1.260 . S
O32 In26 2.266 . S
O32 C29 1.252 . S
O33 In26 2.326 . S
O33 C29 1.260 . S
O34 In26 2.266 . S
O34 C31 1.252 . S
O35 In26 2.326 . S
O35 C31 1.260 . S
C36 O27 1.240 . S
C36 O28 1.252 . S
O37 In26 2.294 . S
O37 C30 1.240 . S
O38 In26 2.326 . S
O38 C30 1.252 . S
In39 O40 2.294 . S
In39 O41 2.326 . S
In39 O45 2.266 . S
In39 O46 2.326 . S
In39 O47 2.266 . S
In39 O48 2.326 . S
In39 O50 2.294 . S
In39 O51 2.326 . S
O40 In39 2.294 . S
O40 C49 1.240 . S
O41 In39 2.326 . S
O41 C49 1.252 . S
C42 O45 1.252 . S
C42 O46 1.260 . S
C43 O50 1.240 . S
C43 O51 1.252 . S
C44 O47 1.252 . S
C44 O48 1.260 . S
O45 In39 2.266 . S
O45 C42 1.252 . S
O46 In39 2.326 . S
O46 C42 1.260 . S
O47 In39 2.266 . S
O47 C44 1.252 . S
O48 In39 2.326 . S
O48 C44 1.260 . S
C49 O40 1.240 . S
C49 O41 1.252 . S
O50 In39 2.294 . S
O50 C43 1.240 . S
O51 In39 2.326 . S
O51 C43 1.252 . S
In52 O53 2.294 . S
In52 O54 2.326 . S
In52 O58 2.266 . S
In52 O59 2.326 . S
In52 O60 2.266 . S
In52 O61 2.326 . S
In52 O63 2.294 . S
In52 O64 2.326 . S
O53 In52 2.294 . S
O53 C62 1.240 . S
O54 In52 2.326 . S
O54 C62 1.252 . S
C55 O58 1.252 . S
C55 O59 1.260 . S
C56 O63 1.240 . S
C56 O64 1.252 . S
C57 O60 1.252 . S
C57 O61 1.260 . S
O58 In52 2.266 . S
O58 C55 1.252 . S
O59 In52 2.326 . S
O59 C55 1.260 . S
O60 In52 2.266 . S
O60 C57 1.252 . S
O61 In52 2.326 . S
O61 C57 1.260 . S
C62 O53 1.240 . S
C62 O54 1.252 . S
O63 In52 2.294 . S
O63 C56 1.240 . S
O64 In52 2.326 . S
O64 C56 1.252 . S
In65 O66 2.294 . S
In65 O67 2.326 . S
In65 O71 2.266 . S
In65 O72 2.326 . S
In65 O73 2.266 . S
In65 O74 2.326 . S
In65 O76 2.294 . S
In65 O77 2.326 . S
O66 In65 2.294 . S
O66 C75 1.240 . S
O67 In65 2.326 . S
O67 C75 1.252 . S
C68 O71 1.252 . S
C68 O72 1.260 . S
C69 O76 1.240 . S
C69 O77 1.252 . S
C70 O73 1.252 . S
C70 O74 1.260 . S
O71 In65 2.266 . S
O71 C68 1.252 . S
O72 In65 2.326 . S
O72 C68 1.260 . S
O73 In65 2.266 . S
O73 C70 1.252 . S
O74 In65 2.326 . S
O74 C70 1.260 . S
C75 O66 1.240 . S
C75 O67 1.252 . S
O76 In65 2.294 . S
O76 C69 1.240 . S
O77 In65 2.326 . S
O77 C69 1.252 . S
In78 O79 2.294 . S
In78 O80 2.326 . S
In78 O84 2.266 . S
In78 O85 2.326 . S
In78 O86 2.266 . S
In78 O87 2.326 . S
In78 O89 2.294 . S
In78 O90 2.326 . S
O79 In78 2.294 . S
O79 C88 1.240 . S
O80 In78 2.326 . S
O80 C88 1.252 . S
C81 O84 1.252 . S
C81 O85 1.260 . S
C82 O89 1.240 . S
C82 O90 1.252 . S
C83 O86 1.252 . S
C83 O87 1.260 . S
O84 In78 2.266 . S
O84 C81 1.252 . S
O85 In78 2.326 . S
O85 C81 1.260 . S
O86 In78 2.266 . S
O86 C83 1.252 . S
O87 In78 2.326 . S
O87 C83 1.260 . S
C88 O79 1.240 . S
C88 O80 1.252 . S
O89 In78 2.294 . S
O89 C82 1.240 . S
O90 In78 2.326 . S
O90 C82 1.252 . S
In91 O92 2.294 . S
In91 O93 2.326 . S
In91 O97 2.266 . S
In91 O98 2.326 . S
In91 O99 2.266 . S
In91 O100 2.326 . S
In91 O102 2.294 . S
In91 O103 2.326 . S
O92 In91 2.294 . S
O92 C101 1.240 . S
O93 In91 2.326 . S
O93 C101 1.252 . S
C94 O97 1.252 . S
C94 O98 1.260 . S
C95 O102 1.240 . S
C95 O103 1.252 . S
C96 O99 1.252 . S
C96 O100 1.260 . S
O97 In91 2.266 . S
O97 C94 1.252 . S
O98 In91 2.326 . S
O98 C94 1.260 . S
O99 In91 2.266 . S
O99 C96 1.252 . S
O100 In91 2.326 . S
O100 C96 1.260 . S
C101 O92 1.240 . S
C101 O93 1.252 . S
O102 In91 2.294 . S
O102 C95 1.240 . S
O103 In91 2.326 . S
O103 C95 1.252 . S
In104 O105 2.294 . S
In104 O106 2.326 . S
In104 O110 2.266 . S
In104 O111 2.326 . S
In104 O112 2.266 . S
In104 O113 2.326 . S
In104 O115 2.294 . S
In104 O116 2.326 . S
O105 In104 2.294 . S
O105 C114 1.240 . S
O106 In104 2.326 . S
O106 C114 1.252 . S
C107 O110 1.252 . S
C107 O111 1.260 . S
C108 O115 1.240 . S
C108 O116 1.252 . S
C109 O112 1.252 . S
C109 O113 1.260 . S
O110 In104 2.266 . S
O110 C107 1.252 . S
O111 In104 2.326 . S
O111 C107 1.260 . S
O112 In104 2.266 . S
O112 C109 1.252 . S
O113 In104 2.326 . S
O113 C109 1.260 . S
C114 O105 1.240 . S
C114 O106 1.252 . S
O115 In104 2.294 . S
O115 C108 1.240 . S
O116 In104 2.326 . S
O116 C108 1.252 . S
In117 O118 2.294 . S
In117 O119 2.326 . S
In117 O123 2.266 . S
In117 O124 2.326 . S
In117 O125 2.266 . S
In117 O126 2.326 . S
In117 O128 2.294 . S
In117 O129 2.326 . S
O118 In117 2.294 . S
O118 C127 1.240 . S
O119 In117 2.326 . S
O119 C127 1.252 . S
C120 O123 1.252 . S
C120 O124 1.260 . S
C121 O128 1.240 . S
C121 O129 1.252 . S
C122 O125 1.252 . S
C122 O126 1.260 . S
O123 In117 2.266 . S
O123 C120 1.252 . S
O124 In117 2.326 . S
O124 C120 1.260 . S
O125 In117 2.266 . S
O125 C122 1.252 . S
O126 In117 2.326 . S
O126 C122 1.260 . S
C127 O118 1.240 . S
C127 O119 1.252 . S
O128 In117 2.294 . S
O128 C121 1.240 . S
O129 In117 2.326 . S
O129 C121 1.252 . S
In130 O131 2.294 . S
In130 O132 2.326 . S
In130 O136 2.266 . S
In130 O137 2.326 . S
In130 O138 2.266 . S
In130 O139 2.326 . S
In130 O141 2.294 . S
In130 O142 2.326 . S
O131 In130 2.294 . S
O131 C140 1.240 . S
O132 In130 2.326 . S
O132 C140 1.252 . S
C133 O136 1.252 . S
C133 O137 1.260 . S
C134 O141 1.240 . S
C134 O142 1.252 . S
C135 O138 1.252 . S
C135 O139 1.260 . S
O136 In130 2.266 . S
O136 C133 1.252 . S
O137 In130 2.326 . S
O137 C133 1.260 . S
O138 In130 2.266 . S
O138 C135 1.252 . S
O139 In130 2.326 . S
O139 C135 1.260 . S
C140 O131 1.240 . S
C140 O132 1.252 . S
O141 In130 2.294 . S
O141 C134 1.240 . S
O142 In130 2.326 . S
O142 C134 1.252 . S
In143 O144 2.294 . S
In143 O145 2.326 . S
In143 O149 2.266 . S
In143 O150 2.326 . S
In143 O151 2.266 . S
In143 O152 2.326 . S
In143 O154 2.294 . S
In143 O155 2.326 . S
O144 In143 2.294 . S
O144 C153 1.240 . S
O145 In143 2.326 . S
O145 C153 1.252 . S
C146 O149 1.252 . S
C146 O150 1.260 . S
C147 O154 1.240 . S
C147 O155 1.252 . S
C148 O151 1.252 . S
C148 O152 1.260 . S
O149 In143 2.266 . S
O149 C146 1.252 . S
O150 In143 2.326 . S
O150 C146 1.260 . S
O151 In143 2.266 . S
O151 C148 1.252 . S
O152 In143 2.326 . S
O152 C148 1.260 . S
C153 O144 1.240 . S
C153 O145 1.252 . S
O154 In143 2.294 . S
O154 C147 1.240 . S
O155 In143 2.326 . S
O155 C147 1.252 . S
In156 O157 2.294 . S
In156 O158 2.326 . S
In156 O162 2.266 . S
In156 O163 2.326 . S
In156 O164 2.266 . S
In156 O165 2.326 . S
In156 O167 2.294 . S
In156 O168 2.326 . S
O157 In156 2.294 . S
O157 C166 1.240 . S
O158 In156 2.326 . S
O158 C166 1.252 . S
C159 O162 1.252 . S
C159 O163 1.260 . S
C160 O167 1.240 . S
C160 O168 1.252 . S
C161 O164 1.252 . S
C161 O165 1.260 . S
O162 In156 2.266 . S
O162 C159 1.252 . S
O163 In156 2.326 . S
O163 C159 1.260 . S
O164 In156 2.266 . S
O164 C161 1.252 . S
O165 In156 2.326 . S
O165 C161 1.260 . S
C166 O157 1.240 . S
C166 O158 1.252 . S
O167 In156 2.294 . S
O167 C160 1.240 . S
O168 In156 2.326 . S
O168 C160 1.252 . S
In169 O170 2.294 . S
In169 O171 2.326 . S
In169 O175 2.266 . S
In169 O176 2.326 . S
In169 O177 2.266 . S
In169 O178 2.326 . S
In169 O180 2.294 . S
In169 O181 2.326 . S
O170 In169 2.294 . S
O170 C179 1.240 . S
O171 In169 2.326 . S
O171 C179 1.252 . S
C172 O175 1.252 . S
C172 O176 1.260 . S
C173 O180 1.240 . S
C173 O181 1.252 . S
C174 O177 1.252 . S
C174 O178 1.260 . S
O175 In169 2.266 . S
O175 C172 1.252 . S
O176 In169 2.326 . S
O176 C172 1.260 . S
O177 In169 2.266 . S
O177 C174 1.252 . S
O178 In169 2.326 . S
O178 C174 1.260 . S
C179 O170 1.240 . S
C179 O171 1.252 . S
O180 In169 2.294 . S
O180 C173 1.240 . S
O181 In169 2.326 . S
O181 C173 1.252 . S
In182 O183 2.294 . S
In182 O184 2.326 . S
In182 O188 2.266 . S
In182 O189 2.326 . S
In182 O190 2.266 . S
In182 O191 2.326 . S
In182 O193 2.294 . S
In182 O194 2.326 . S
O183 In182 2.294 . S
O183 C192 1.240 . S
O184 In182 2.326 . S
O184 C192 1.252 . S
C185 O188 1.252 . S
C185 O189 1.260 . S
C186 O193 1.240 . S
C186 O194 1.252 . S
C187 O190 1.252 . S
C187 O191 1.260 . S
O188 In182 2.266 . S
O188 C185 1.252 . S
O189 In182 2.326 . S
O189 C185 1.260 . S
O190 In182 2.266 . S
O190 C187 1.252 . S
O191 In182 2.326 . S
O191 C187 1.260 . S
C192 O183 1.240 . S
C192 O184 1.252 . S
O193 In182 2.294 . S
O193 C186 1.240 . S
O194 In182 2.326 . S
O194 C186 1.252 . S
In195 O196 2.294 . S
In195 O197 2.326 . S
In195 O201 2.266 . S
In195 O202 2.326 . S
In195 O203 2.266 . S
In195 O204 2.326 . S
In195 O206 2.294 . S
In195 O207 2.326 . S
O196 In195 2.294 . S
O196 C205 1.240 . S
O197 In195 2.326 . S
O197 C205 1.252 . S
C198 O201 1.252 . S
C198 O202 1.260 . S
C199 O206 1.240 . S
C199 O207 1.252 . S
C200 O203 1.252 . S
C200 O204 1.260 . S
O201 In195 2.266 . S
O201 C198 1.252 . S
O202 In195 2.326 . S
O202 C198 1.260 . S
O203 In195 2.266 . S
O203 C200 1.252 . S
O204 In195 2.326 . S
O204 C200 1.260 . S
C205 O196 1.240 . S
C205 O197 1.252 . S
O206 In195 2.294 . S
O206 C199 1.240 . S
O207 In195 2.326 . S
O207 C199 1.252 . S
H208 C226 0.951 . S
H209 C228 0.951 . S
H210 C230 0.950 . S
H211 C231 0.950 . S
H212 C233 0.950 . S
H213 C236 0.950 . S
H214 C237 0.950 . S
H215 C239 0.950 . S
H216 C240 0.950 . S
H217 C241 0.951 . S
H218 C243 0.951 . S
H219 C245 0.950 . S
H220 C246 0.950 . S
H221 C248 0.950 . S
H222 C251 0.950 . S
H223 C252 0.950 . S
H224 C254 0.950 . S
H225 C255 0.950 . S
C226 H208 0.951 . S
C226 C227 1.366 . S
C226 C228 1.388 . S
C227 C226 1.366 . S
C227 C231 1.385 . S
C228 H209 0.951 . S
C228 C226 1.388 . S
C228 C229 1.366 . S
C229 C228 1.366 . S
C229 C230 1.414 . S
C229 C232 1.499 . S
C230 H210 0.950 . S
C230 C229 1.414 . S
C230 C231 1.374 . S
C231 H211 0.950 . S
C231 C227 1.385 . S
C231 C230 1.374 . S
C232 C229 1.499 . S
C232 C233 1.373 . S
C232 C234 1.389 . S
C233 H212 0.950 . S
C233 C232 1.373 . S
C233 C249 1.377 . S
C234 C232 1.389 . S
C234 C235 1.524 . S
C234 C248 1.377 1_565 S
C235 C234 1.524 . S
C235 C236 1.397 . S
C235 C240 1.363 . S
C236 H213 0.950 . S
C236 C235 1.397 . S
C236 C237 1.334 . S
C237 H214 0.950 . S
C237 C236 1.334 . S
C237 C238 1.287 . S
C238 C237 1.287 . S
C238 C239 1.524 . S
C238 H257 0.913 . S
C239 H215 0.950 . S
C239 C238 1.524 . S
C239 C240 1.415 . S
C240 H216 0.950 . S
C240 C235 1.363 . S
C240 C239 1.415 . S
C241 H217 0.951 . S
C241 C242 1.366 . S
C241 C243 1.388 . S
C242 C241 1.366 . S
C242 C246 1.385 . S
C243 H218 0.951 . S
C243 C241 1.388 . S
C243 C244 1.366 . S
C244 C243 1.366 . S
C244 C245 1.414 . S
C244 C247 1.499 . S
C245 H219 0.950 . S
C245 C244 1.414 . S
C245 C246 1.374 . S
C246 H220 0.950 . S
C246 C242 1.385 . S
C246 C245 1.374 . S
C247 C244 1.499 . S
C247 C248 1.373 . S
C247 C249 1.389 1_545 S
C248 H221 0.950 . S
C248 C234 1.377 1_545 S
C248 C247 1.373 . S
C249 C233 1.377 . S
C249 C247 1.389 1_565 S
C249 C250 1.524 . S
C250 C249 1.524 . S
C250 C251 1.397 1_565 S
C250 C255 1.363 . S
C251 H222 0.950 . S
C251 C250 1.397 1_545 S
C251 C252 1.334 . S
C252 H223 0.950 . S
C252 C251 1.334 . S
C252 C253 1.287 . S
C253 C252 1.287 . S
C253 C254 1.524 1_545 S
C253 H256 0.999 . S
C254 H224 0.950 . S
C254 C253 1.524 1_565 S
C254 C255 1.415 . S
C255 H225 0.950 . S
C255 C250 1.363 . S
C255 C254 1.415 . S
H256 C253 0.999 . S
H257 C238 0.913 . S
H258 C276 0.951 . S
H259 C278 0.951 . S
H260 C280 0.950 . S
H261 C281 0.950 . S
H262 C283 0.950 1_455 S
H263 C286 0.950 . S
H264 C287 0.950 . S
H265 C289 0.950 . S
H266 C290 0.950 . S
H267 C291 0.951 . S
H268 C293 0.951 . S
H269 C295 0.950 . S
H270 C296 0.950 . S
H271 C298 0.950 . S
H272 C301 0.950 . S
H273 C302 0.950 . S
H274 C304 0.950 . S
H275 C305 0.950 . S
C276 H258 0.951 . S
C276 C277 1.366 . S
C276 C278 1.388 . S
C277 C276 1.366 . S
C277 C281 1.385 . S
C278 H259 0.951 . S
C278 C276 1.388 . S
C278 C279 1.366 . S
C279 C278 1.366 . S
C279 C280 1.414 . S
C279 C282 1.499 . S
C280 H260 0.950 . S
C280 C279 1.414 . S
C280 C281 1.374 . S
C281 H261 0.950 . S
C281 C277 1.385 . S
C281 C280 1.374 . S
C282 C279 1.499 . S
C282 C283 1.373 1_455 S
C282 C284 1.389 . S
C283 H262 0.950 1_655 S
C283 C282 1.373 1_655 S
C283 C299 1.377 . S
C284 C282 1.389 . S
C284 C285 1.524 . S
C284 C298 1.377 1_455 S
C285 C284 1.524 . S
C285 C286 1.397 . S
C285 C290 1.363 . S
C286 H263 0.950 . S
C286 C285 1.397 . S
C286 C287 1.334 . S
C287 H264 0.950 . S
C287 C286 1.334 . S
C287 C288 1.287 . S
C288 C287 1.287 . S
C288 C289 1.524 . S
C288 H307 0.913 . S
C289 H265 0.950 . S
C289 C288 1.524 . S
C289 C290 1.415 . S
C290 H266 0.950 . S
C290 C285 1.363 . S
C290 C289 1.415 . S
C291 H267 0.951 . S
C291 C292 1.366 . S
C291 C293 1.388 . S
C292 C291 1.366 . S
C292 C296 1.385 . S
C293 H268 0.951 . S
C293 C291 1.388 . S
C293 C294 1.366 . S
C294 C293 1.366 . S
C294 C295 1.414 . S
C294 C297 1.499 . S
C295 H269 0.950 . S
C295 C294 1.414 . S
C295 C296 1.374 . S
C296 H270 0.950 . S
C296 C292 1.385 . S
C296 C295 1.374 . S
C297 C294 1.499 . S
C297 C298 1.373 . S
C297 C299 1.389 . S
C298 H271 0.950 . S
C298 C284 1.377 1_655 S
C298 C297 1.373 . S
C299 C283 1.377 . S
C299 C297 1.389 . S
C299 C300 1.524 . S
C300 C299 1.524 . S
C300 C301 1.397 . S
C300 C305 1.363 . S
C301 H272 0.950 . S
C301 C300 1.397 . S
C301 C302 1.334 . S
C302 H273 0.950 . S
C302 C301 1.334 . S
C302 C303 1.287 . S
C303 C302 1.287 . S
C303 C304 1.524 . S
C303 H306 0.999 . S
C304 H274 0.950 . S
C304 C303 1.524 . S
C304 C305 1.415 . S
C305 H275 0.950 . S
C305 C300 1.363 . S
C305 C304 1.415 . S
H306 C303 0.999 . S
H307 C288 0.913 . S
H308 C326 0.951 . S
H309 C328 0.951 . S
H310 C330 0.950 . S
H311 C331 0.950 . S
H312 C333 0.950 . S
H313 C336 0.950 . S
H314 C337 0.950 . S
H315 C339 0.963 . S
H316 C340 0.950 . S
H317 C341 0.951 . S
H318 C343 0.951 . S
H319 C345 0.950 . S
H320 C346 0.950 . S
H321 C348 0.950 . S
H322 C351 0.950 . S
H323 C352 0.950 . S
H324 C354 0.950 . S
H325 C355 0.950 . S
C326 H308 0.951 . S
C326 C327 1.366 . S
C326 C328 1.388 . S
C327 C326 1.366 . S
C327 C331 1.385 . S
C328 H309 0.951 . S
C328 C326 1.388 . S
C328 C329 1.366 . S
C329 C328 1.366 . S
C329 C330 1.414 . S
C329 C332 1.499 . S
C330 H310 0.950 . S
C330 C329 1.414 . S
C330 C331 1.374 . S
C331 H311 0.950 . S
C331 C327 1.385 . S
C331 C330 1.374 . S
C332 C329 1.499 . S
C332 C333 1.373 . S
C332 C334 1.389 1_565 S
C333 H312 0.950 . S
C333 C332 1.373 . S
C333 C349 1.377 1_565 S
C334 C332 1.389 1_545 S
C334 C335 1.524 1_545 S
C334 C348 1.377 . S
C335 C334 1.524 1_565 S
C335 C336 1.397 . S
C335 C340 1.363 1_565 S
C336 H313 0.950 . S
C336 C335 1.397 . S
C336 C337 1.334 . S
C337 H314 0.950 . S
C337 C336 1.334 . S
C337 C338 1.287 . S
C338 C337 1.287 . S
C338 C339 1.501 1_565 S
C338 H357 0.913 . S
C339 H315 0.963 . S
C339 C338 1.501 1_545 S
C339 C340 1.423 . S
C340 H316 0.950 . S
C340 C335 1.363 1_545 S
C340 C339 1.423 . S
C341 H317 0.951 . S
C341 C342 1.366 . S
C341 C343 1.388 . S
C342 C341 1.366 . S
C342 C346 1.385 . S
C343 H318 0.951 . S
C343 C341 1.388 . S
C343 C344 1.366 . S
C344 C343 1.366 . S
C344 C345 1.414 . S
C344 C347 1.499 . S
C345 H319 0.950 . S
C345 C344 1.414 . S
C345 C346 1.374 . S
C346 H320 0.950 . S
C346 C342 1.385 . S
C346 C345 1.374 . S
C347 C344 1.499 . S
C347 C348 1.373 . S
C347 C349 1.389 . S
C348 H321 0.950 . S
C348 C334 1.377 . S
C348 C347 1.373 . S
C349 C333 1.377 1_545 S
C349 C347 1.389 . S
C349 C350 1.524 . S
C350 C349 1.524 . S
C350 C351 1.397 . S
C350 C355 1.363 . S
C351 H322 0.950 . S
C351 C350 1.397 . S
C351 C352 1.334 . S
C352 H323 0.950 . S
C352 C351 1.334 . S
C352 C353 1.287 . S
C353 C352 1.287 . S
C353 C354 1.524 . S
C353 H356 0.999 . S
C354 H324 0.950 . S
C354 C353 1.524 . S
C354 C355 1.415 . S
C355 H325 0.950 . S
C355 C350 1.363 . S
C355 C354 1.415 . S
H356 C353 0.999 . S
H357 C338 0.913 . S
H358 C376 0.951 . S
H359 C378 0.951 . S
H360 C380 0.950 . S
H361 C381 0.950 . S
H362 C383 0.950 . S
H363 C386 0.950 . S
H364 C387 0.950 . S
H365 C389 0.950 . S
H366 C390 0.950 . S
H367 C391 0.951 . S
H368 C393 0.951 . S
H369 C395 0.950 . S
H370 C396 0.950 . S
H371 C398 0.950 . S
H372 C401 0.950 . S
H373 C402 0.950 . S
H374 C404 0.952 . S
H375 C405 0.950 . S
C376 H358 0.951 . S
C376 C377 1.366 . S
C376 C378 1.388 . S
C377 C376 1.366 . S
C377 C381 1.385 . S
C378 H359 0.951 . S
C378 C376 1.388 . S
C378 C379 1.366 . S
C379 C378 1.366 . S
C379 C380 1.414 . S
C379 C382 1.499 . S
C380 H360 0.950 . S
C380 C379 1.414 . S
C380 C381 1.374 . S
C381 H361 0.950 . S
C381 C377 1.385 . S
C381 C380 1.374 . S
C382 C379 1.499 . S
C382 C383 1.373 . S
C382 C384 1.389 . S
C383 H362 0.950 . S
C383 C382 1.373 . S
C383 C399 1.377 . S
C384 C382 1.389 . S
C384 C385 1.524 . S
C384 C398 1.377 1_455 S
C385 C384 1.524 . S
C385 C386 1.397 . S
C385 C390 1.363 . S
C386 H363 0.950 . S
C386 C385 1.397 . S
C386 C387 1.334 . S
C387 H364 0.950 . S
C387 C386 1.334 . S
C387 C388 1.287 . S
C388 C387 1.287 . S
C388 C389 1.524 . S
C388 H407 0.913 . S
C389 H365 0.950 . S
C389 C388 1.524 . S
C389 C390 1.415 . S
C390 H366 0.950 . S
C390 C385 1.363 . S
C390 C389 1.415 . S
C391 H367 0.951 . S
C391 C392 1.366 . S
C391 C393 1.388 . S
C392 C391 1.366 . S
C392 C396 1.385 . S
C393 H368 0.951 . S
C393 C391 1.388 . S
C393 C394 1.366 . S
C394 C393 1.366 . S
C394 C395 1.414 . S
C394 C397 1.499 . S
C395 H369 0.950 . S
C395 C394 1.414 . S
C395 C396 1.374 . S
C396 H370 0.950 . S
C396 C392 1.385 . S
C396 C395 1.374 . S
C397 C394 1.499 . S
C397 C398 1.373 . S
C397 C399 1.389 1_655 S
C398 H371 0.950 . S
C398 C384 1.377 1_655 S
C398 C397 1.373 . S
C399 C383 1.377 . S
C399 C397 1.389 1_455 S
C399 C400 1.524 1_455 S
C400 C399 1.524 1_655 S
C400 C401 1.397 . S
C400 C405 1.363 1_655 S
C401 H372 0.950 . S
C401 C400 1.397 . S
C401 C402 1.334 . S
C402 H373 0.950 . S
C402 C401 1.334 . S
C402 C403 1.287 . S
C403 C402 1.287 . S
C403 C404 1.519 1_655 S
C403 H406 0.999 . S
C404 H374 0.952 . S
C404 C403 1.519 1_455 S
C404 C405 1.417 . S
C405 H375 0.950 . S
C405 C400 1.363 1_455 S
C405 C404 1.417 . S
H406 C403 0.999 . S
H407 C388 0.913 . S
H408 C426 0.951 . S
H409 C428 0.951 . S
H410 C430 0.950 . S
H411 C431 0.950 . S
H412 C433 0.950 . S
H413 C436 0.950 . S
H414 C437 0.950 . S
H415 C439 0.950 . S
H416 C440 0.950 . S
H417 C441 0.951 . S
H418 C443 0.951 . S
H419 C445 0.950 . S
H420 C446 0.950 . S
H421 C448 0.950 . S
H422 C451 0.950 . S
H423 C452 0.950 . S
H424 C454 0.950 . S
H425 C455 0.950 . S
C426 H408 0.951 . S
C426 C427 1.366 . S
C426 C428 1.388 1_554 S
C427 C426 1.366 . S
C427 C431 1.385 . S
C428 H409 0.951 . S
C428 C426 1.388 1_556 S
C428 C429 1.366 . S
C429 C428 1.366 . S
C429 C430 1.414 1_556 S
C429 C432 1.499 . S
C430 H410 0.950 . S
C430 C429 1.414 1_554 S
C430 C431 1.374 . S
C431 H411 0.950 . S
C431 C427 1.385 . S
C431 C430 1.374 . S
C432 C429 1.499 . S
C432 C433 1.373 1_556 S
C432 C434 1.389 . S
C433 H412 0.950 . S
C433 C432 1.373 1_554 S
C433 C449 1.377 . S
C434 C432 1.389 . S
C434 C435 1.524 . S
C434 C448 1.377 . S
C435 C434 1.524 . S
C435 C436 1.397 . S
C435 C440 1.363 . S
C436 H413 0.950 . S
C436 C435 1.397 . S
C436 C437 1.334 . S
C437 H414 0.950 . S
C437 C436 1.334 . S
C437 C438 1.287 . S
C438 C437 1.287 . S
C438 C439 1.524 . S
C438 H457 0.913 . S
C439 H415 0.950 . S
C439 C438 1.524 . S
C439 C440 1.415 . S
C440 H416 0.950 . S
C440 C435 1.363 . S
C440 C439 1.415 . S
C441 H417 0.951 . S
C441 C442 1.366 . S
C441 C443 1.388 . S
C442 C441 1.366 . S
C442 C446 1.385 . S
C443 H418 0.951 . S
C443 C441 1.388 . S
C443 C444 1.366 . S
C444 C443 1.366 . S
C444 C445 1.414 . S
C444 C447 1.499 . S
C445 H419 0.950 . S
C445 C444 1.414 . S
C445 C446 1.374 . S
C446 H420 0.950 . S
C446 C442 1.385 . S
C446 C445 1.374 . S
C447 C444 1.499 . S
C447 C448 1.373 . S
C447 C449 1.389 1_556 S
C448 H421 0.950 . S
C448 C434 1.377 . S
C448 C447 1.373 . S
C449 C433 1.377 . S
C449 C447 1.389 1_554 S
C449 C450 1.524 . S
C450 C449 1.524 . S
C450 C451 1.397 . S
C450 C455 1.363 . S
C451 H422 0.950 . S
C451 C450 1.397 . S
C451 C452 1.334 . S
C452 H423 0.950 . S
C452 C451 1.334 . S
C452 C453 1.287 . S
C453 C452 1.287 . S
C453 C454 1.524 . S
C453 H456 0.999 . S
C454 H424 0.950 . S
C454 C453 1.524 . S
C454 C455 1.415 . S
C455 H425 0.950 . S
C455 C450 1.363 . S
C455 C454 1.415 . S
H456 C453 0.999 . S
H457 C438 0.913 . S
H458 C476 0.951 . S
H459 C478 0.951 . S
H460 C480 0.950 . S
H461 C481 0.950 . S
H462 C483 0.950 . S
H463 C486 0.950 . S
H464 C487 0.950 . S
H465 C489 0.950 1_556 S
H466 C490 0.950 . S
H467 C491 0.951 . S
H468 C493 0.951 . S
H469 C495 0.950 1_556 S
H470 C496 0.950 . S
H471 C498 0.950 . S
H472 C501 0.950 . S
H473 C502 0.950 . S
H474 C504 0.950 . S
H475 C505 0.950 . S
C476 H458 0.951 . S
C476 C477 1.366 . S
C476 C478 1.388 . S
C477 C476 1.366 . S
C477 C481 1.385 1_556 S
C478 H459 0.951 . S
C478 C476 1.388 . S
C478 C479 1.366 1_556 S
C479 C478 1.366 1_554 S
C479 C480 1.414 . S
C479 C482 1.499 . S
C480 H460 0.950 . S
C480 C479 1.414 . S
C480 C481 1.374 . S
C481 H461 0.950 . S
C481 C477 1.385 1_554 S
C481 C480 1.374 . S
C482 C479 1.499 . S
C482 C483 1.373 . S
C482 C484 1.389 . S
C483 H462 0.950 . S
C483 C482 1.373 . S
C483 C499 1.377 . S
C484 C482 1.389 . S
C484 C485 1.524 . S
C484 C498 1.377 . S
C485 C484 1.524 . S
C485 C486 1.397 . S
C485 C490 1.363 1_554 S
C486 H463 0.950 . S
C486 C485 1.397 . S
C486 C487 1.334 . S
C487 H464 0.950 . S
C487 C486 1.334 . S
C487 C488 1.287 . S
C488 C487 1.287 . S
C488 C489 1.524 . S
C488 H507 0.913 . S
C489 H465 0.950 1_554 S
C489 C488 1.524 . S
C489 C490 1.415 1_554 S
C490 H466 0.950 . S
C490 C485 1.363 1_556 S
C490 C489 1.415 1_556 S
C491 H467 0.951 . S
C491 C492 1.366 . S
C491 C493 1.388 . S
C492 C491 1.366 . S
C492 C496 1.385 . S
C493 H468 0.951 . S
C493 C491 1.388 . S
C493 C494 1.366 . S
C494 C493 1.366 . S
C494 C495 1.414 . S
C494 C497 1.499 . S
C495 H469 0.950 1_554 S
C495 C494 1.414 . S
C495 C496 1.374 . S
C496 H470 0.950 . S
C496 C492 1.385 . S
C496 C495 1.374 . S
C497 C494 1.499 . S
C497 C498 1.373 . S
C497 C499 1.389 . S
C498 H471 0.950 . S
C498 C484 1.377 . S
C498 C497 1.373 . S
C499 C483 1.377 . S
C499 C497 1.389 . S
C499 C500 1.524 . S
C500 C499 1.524 . S
C500 C501 1.397 1_554 S
C500 C505 1.363 . S
C501 H472 0.950 . S
C501 C500 1.397 1_556 S
C501 C502 1.334 . S
C502 H473 0.950 . S
C502 C501 1.334 . S
C502 C503 1.287 1_556 S
C503 C502 1.287 1_554 S
C503 C504 1.524 . S
C503 H506 0.999 . S
C504 H474 0.950 . S
C504 C503 1.524 . S
C504 C505 1.415 . S
C505 H475 0.950 . S
C505 C500 1.363 . S
C505 C504 1.415 . S
H506 C503 0.999 . S
H507 C488 0.913 . S
H508 C526 0.951 . S
H509 C528 0.951 . S
H510 C530 0.950 1_554 S
H511 C531 0.950 . S
H512 C533 0.950 . S
H513 C536 0.950 . S
H514 C537 0.950 . S
H515 C539 0.950 . S
H516 C540 0.950 . S
H517 C541 0.951 . S
H518 C543 0.951 . S
H519 C545 0.950 . S
H520 C546 0.950 . S
H521 C548 0.950 . S
H522 C551 0.950 . S
H523 C552 0.950 . S
H524 C554 0.950 . S
H525 C555 0.950 . S
C526 H508 0.951 . S
C526 C527 1.366 . S
C526 C528 1.388 . S
C527 C526 1.366 . S
C527 C531 1.385 . S
C528 H509 0.951 . S
C528 C526 1.388 . S
C528 C529 1.366 . S
C529 C528 1.366 . S
C529 C530 1.414 . S
C529 C532 1.499 . S
C530 H510 0.950 1_556 S
C530 C529 1.414 . S
C530 C531 1.374 . S
C531 H511 0.950 . S
C531 C527 1.385 . S
C531 C530 1.374 . S
C532 C529 1.499 . S
C532 C533 1.373 1_556 S
C532 C534 1.389 . S
C533 H512 0.950 . S
C533 C532 1.373 1_554 S
C533 C549 1.377 . S
C534 C532 1.389 . S
C534 C535 1.524 . S
C534 C548 1.377 . S
C535 C534 1.524 . S
C535 C536 1.397 . S
C535 C540 1.363 . S
C536 H513 0.950 . S
C536 C535 1.397 . S
C536 C537 1.334 . S
C537 H514 0.950 . S
C537 C536 1.334 . S
C537 C538 1.287 . S
C538 C537 1.287 . S
C538 C539 1.524 . S
C538 H557 0.913 . S
C539 H515 0.950 . S
C539 C538 1.524 . S
C539 C540 1.415 . S
C540 H516 0.950 . S
C540 C535 1.363 . S
C540 C539 1.415 . S
C541 H517 0.951 . S
C541 C542 1.366 . S
C541 C543 1.388 . S
C542 C541 1.366 . S
C542 C546 1.385 1_554 S
C543 H518 0.951 . S
C543 C541 1.388 . S
C543 C544 1.366 1_554 S
C544 C543 1.366 1_556 S
C544 C545 1.414 . S
C544 C547 1.499 . S
C545 H519 0.950 . S
C545 C544 1.414 . S
C545 C546 1.374 . S
C546 H520 0.950 . S
C546 C542 1.385 1_556 S
C546 C545 1.374 . S
C547 C544 1.499 . S
C547 C548 1.373 . S
C547 C549 1.389 1_556 S
C548 H521 0.950 . S
C548 C534 1.377 . S
C548 C547 1.373 . S
C549 C533 1.377 . S
C549 C547 1.389 1_554 S
C549 C550 1.524 . S
C550 C549 1.524 . S
C550 C551 1.397 . S
C550 C555 1.363 . S
C551 H522 0.950 . S
C551 C550 1.397 . S
C551 C552 1.334 . S
C552 H523 0.950 . S
C552 C551 1.334 . S
C552 C553 1.287 . S
C553 C552 1.287 . S
C553 C554 1.524 . S
C553 H556 0.999 . S
C554 H524 0.950 . S
C554 C553 1.524 . S
C554 C555 1.415 . S
C555 H525 0.950 . S
C555 C550 1.363 . S
C555 C554 1.415 . S
H556 C553 0.999 . S
H557 C538 0.913 . S
H558 C576 0.951 . S
H559 C578 0.951 1_556 S
H560 C580 0.950 . S
H561 C581 0.950 . S
H562 C583 0.950 . S
H563 C586 0.950 . S
H564 C587 0.950 . S
H565 C589 0.950 . S
H566 C590 0.950 . S
H567 C591 0.951 . S
H568 C593 0.951 . S
H569 C595 0.950 . S
H570 C596 0.950 . S
H571 C598 0.950 1_556 S
H572 C601 0.950 . S
H573 C602 0.950 . S
H574 C604 0.950 . S
H575 C605 0.950 . S
C576 H558 0.951 . S
C576 C577 1.366 . S
C576 C578 1.388 . S
C577 C576 1.366 . S
C577 C581 1.385 . S
C578 H559 0.951 1_554 S
C578 C576 1.388 . S
C578 C579 1.366 . S
C579 C578 1.366 . S
C579 C580 1.414 . S
C579 C582 1.499 . S
C580 H560 0.950 . S
C580 C579 1.414 . S
C580 C581 1.374 . S
C581 H561 0.950 . S
C581 C577 1.385 . S
C581 C580 1.374 . S
C582 C579 1.499 . S
C582 C583 1.373 . S
C582 C584 1.389 . S
C583 H562 0.950 . S
C583 C582 1.373 . S
C583 C599 1.377 . S
C584 C582 1.389 . S
C584 C585 1.524 . S
C584 C598 1.377 . S
C585 C584 1.524 . S
C585 C586 1.397 . S
C585 C590 1.363 1_554 S
C586 H563 0.950 . S
C586 C585 1.397 . S
C586 C587 1.334 . S
C587 H564 0.950 . S
C587 C586 1.334 . S
C587 C588 1.287 . S
C588 C587 1.287 . S
C588 C589 1.524 1_554 S
C588 H607 0.913 . S
C589 H565 0.950 . S
C589 C588 1.524 1_556 S
C589 C590 1.415 . S
C590 H566 0.950 . S
C590 C585 1.363 1_556 S
C590 C589 1.415 . S
C591 H567 0.951 . S
C591 C592 1.366 1_554 S
C591 C593 1.388 . S
C592 C591 1.366 1_556 S
C592 C596 1.385 . S
C593 H568 0.951 . S
C593 C591 1.388 . S
C593 C594 1.366 . S
C594 C593 1.366 . S
C594 C595 1.414 1_554 S
C594 C597 1.499 . S
C595 H569 0.950 . S
C595 C594 1.414 1_556 S
C595 C596 1.374 . S
C596 H570 0.950 . S
C596 C592 1.385 . S
C596 C595 1.374 . S
C597 C594 1.499 . S
C597 C598 1.373 . S
C597 C599 1.389 . S
C598 H571 0.950 1_554 S
C598 C584 1.377 . S
C598 C597 1.373 . S
C599 C583 1.377 . S
C599 C597 1.389 . S
C599 C600 1.524 . S
C600 C599 1.524 . S
C600 C601 1.397 1_554 S
C600 C605 1.363 . S
C601 H572 0.950 . S
C601 C600 1.397 1_556 S
C601 C602 1.334 . S
C602 H573 0.950 . S
C602 C601 1.334 . S
C602 C603 1.287 1_556 S
C603 C602 1.287 1_554 S
C603 C604 1.524 . S
C603 H606 0.999 . S
C604 H574 0.950 . S
C604 C603 1.524 . S
C604 C605 1.415 . S
C605 H575 0.950 . S
C605 C600 1.363 . S
C605 C604 1.415 . S
H606 C603 0.999 . S
H607 C588 0.913 . S
H608 C626 0.951 . S
H609 C628 0.951 . S
H610 C630 0.950 . S
H611 C631 0.950 . S
H612 C633 0.950 . S
H613 C636 0.950 . S
H614 C637 0.950 . S
H615 C639 0.950 . S
H616 C640 0.950 . S
H617 C641 0.951 . S
H618 C643 0.951 . S
H619 C645 0.950 . S
H620 C646 0.950 . S
H621 C648 0.950 . S
H622 C651 0.950 . S
H623 C652 0.950 . S
H624 C654 0.950 . S
H625 C655 0.950 . S
C626 H608 0.951 . S
C626 C627 1.366 . S
C626 C628 1.388 . S
C627 C626 1.366 . S
C627 C631 1.385 . S
C628 H609 0.951 . S
C628 C626 1.388 . S
C628 C629 1.366 . S
C629 C628 1.366 . S
C629 C630 1.414 . S
C629 C632 1.499 . S
C630 H610 0.950 . S
C630 C629 1.414 . S
C630 C631 1.374 . S
C631 H611 0.950 . S
C631 C627 1.385 . S
C631 C630 1.374 . S
C632 C629 1.499 . S
C632 C633 1.373 . S
C632 C634 1.389 . S
C633 H612 0.950 . S
C633 C632 1.373 . S
C633 C649 1.377 . S
C634 C632 1.389 . S
C634 C635 1.524 . S
C634 C648 1.377 . S
C635 C634 1.524 . S
C635 C636 1.397 . S
C635 C640 1.363 . S
C636 H613 0.950 . S
C636 C635 1.397 . S
C636 C637 1.334 . S
C637 H614 0.950 . S
C637 C636 1.334 . S
C637 C638 1.287 . S
C638 C637 1.287 . S
C638 C639 1.524 . S
C638 H657 0.913 . S
C639 H615 0.950 . S
C639 C638 1.524 . S
C639 C640 1.415 . S
C640 H616 0.950 . S
C640 C635 1.363 . S
C640 C639 1.415 . S
C641 H617 0.951 . S
C641 C642 1.366 . S
C641 C643 1.388 . S
C642 C641 1.366 . S
C642 C646 1.385 . S
C643 H618 0.951 . S
C643 C641 1.388 . S
C643 C644 1.366 . S
C644 C643 1.366 . S
C644 C645 1.414 . S
C644 C647 1.499 . S
C645 H619 0.950 . S
C645 C644 1.414 . S
C645 C646 1.374 . S
C646 H620 0.950 . S
C646 C642 1.385 . S
C646 C645 1.374 . S
C647 C644 1.499 . S
C647 C648 1.373 . S
C647 C649 1.389 . S
C648 H621 0.950 . S
C648 C634 1.377 . S
C648 C647 1.373 . S
C649 C633 1.377 . S
C649 C647 1.389 . S
C649 C650 1.524 . S
C650 C649 1.524 . S
C650 C651 1.397 . S
C650 C655 1.363 . S
C651 H622 0.950 . S
C651 C650 1.397 . S
C651 C652 1.334 . S
C652 H623 0.950 . S
C652 C651 1.334 . S
C652 C653 1.287 . S
C653 C652 1.287 . S
C653 C654 1.524 . S
C653 H656 0.999 . S
C654 H624 0.950 . S
C654 C653 1.524 . S
C654 C655 1.415 . S
C655 H625 0.950 . S
C655 C650 1.363 . S
C655 C654 1.415 . S
H656 C653 0.999 . S
H657 C638 0.913 . S
H658 C676 0.951 . S
H659 C678 0.951 . S
H660 C680 0.950 . S
H661 C681 0.950 . S
H662 C683 0.950 . S
H663 C686 0.950 . S
H664 C687 0.950 . S
H665 C689 0.950 . S
H666 C690 0.950 . S
H667 C691 0.951 . S
H668 C693 0.951 . S
H669 C695 0.950 . S
H670 C696 0.950 . S
H671 C698 0.950 . S
H672 C701 0.950 . S
H673 C702 0.950 . S
H674 C704 0.950 . S
H675 C705 0.950 . S
C676 H658 0.951 . S
C676 C677 1.366 . S
C676 C678 1.388 . S
C677 C676 1.366 . S
C677 C681 1.385 . S
C678 H659 0.951 . S
C678 C676 1.388 . S
C678 C679 1.366 . S
C679 C678 1.366 . S
C679 C680 1.414 . S
C679 C682 1.499 . S
C680 H660 0.950 . S
C680 C679 1.414 . S
C680 C681 1.374 . S
C681 H661 0.950 . S
C681 C677 1.385 . S
C681 C680 1.374 . S
C682 C679 1.499 . S
C682 C683 1.373 . S
C682 C684 1.389 . S
C683 H662 0.950 . S
C683 C682 1.373 . S
C683 C699 1.377 . S
C684 C682 1.389 . S
C684 C685 1.524 . S
C684 C698 1.377 . S
C685 C684 1.524 . S
C685 C686 1.397 . S
C685 C690 1.363 . S
C686 H663 0.950 . S
C686 C685 1.397 . S
C686 C687 1.334 . S
C687 H664 0.950 . S
C687 C686 1.334 . S
C687 C688 1.287 . S
C688 C687 1.287 . S
C688 C689 1.524 . S
C688 H707 0.913 . S
C689 H665 0.950 . S
C689 C688 1.524 . S
C689 C690 1.415 . S
C690 H666 0.950 . S
C690 C685 1.363 . S
C690 C689 1.415 . S
C691 H667 0.951 . S
C691 C692 1.366 . S
C691 C693 1.388 . S
C692 C691 1.366 . S
C692 C696 1.385 . S
C693 H668 0.951 . S
C693 C691 1.388 . S
C693 C694 1.366 . S
C694 C693 1.366 . S
C694 C695 1.414 . S
C694 C697 1.499 . S
C695 H669 0.950 . S
C695 C694 1.414 . S
C695 C696 1.374 . S
C696 H670 0.950 . S
C696 C692 1.385 . S
C696 C695 1.374 . S
C697 C694 1.499 . S
C697 C698 1.373 . S
C697 C699 1.389 . S
C698 H671 0.950 . S
C698 C684 1.377 . S
C698 C697 1.373 . S
C699 C683 1.377 . S
C699 C697 1.389 . S
C699 C700 1.524 . S
C700 C699 1.524 . S
C700 C701 1.397 . S
C700 C705 1.363 . S
C701 H672 0.950 . S
C701 C700 1.397 . S
C701 C702 1.334 . S
C702 H673 0.950 . S
C702 C701 1.334 . S
C702 C703 1.287 . S
C703 C702 1.287 . S
C703 C704 1.524 . S
C703 H706 0.999 . S
C704 H674 0.950 . S
C704 C703 1.524 . S
C704 C705 1.415 . S
C705 H675 0.950 . S
C705 C700 1.363 . S
C705 C704 1.415 . S
H706 C703 0.999 . S
H707 C688 0.913 . S
H708 C726 0.951 . S
H709 C728 0.951 . S
H710 C730 0.950 . S
H711 C731 0.950 . S
H712 C733 0.950 . S
H713 C736 0.950 . S
H714 C737 0.950 . S
H715 C739 0.950 1_554 S
H716 C740 0.950 . S
H717 C741 0.951 . S
H718 C743 0.951 . S
H719 C745 0.950 . S
H720 C746 0.950 . S
H721 C748 0.950 . S
H722 C751 0.950 . S
H723 C752 0.950 . S
H724 C754 0.950 . S
H725 C755 0.950 . S
C726 H708 0.951 . S
C726 C727 1.366 . S
C726 C728 1.388 . S
C727 C726 1.366 . S
C727 C731 1.385 . S
C728 H709 0.951 . S
C728 C726 1.388 . S
C728 C729 1.366 . S
C729 C728 1.366 . S
C729 C730 1.414 . S
C729 C732 1.499 . S
C730 H710 0.950 . S
C730 C729 1.414 . S
C730 C731 1.374 . S
C731 H711 0.950 . S
C731 C727 1.385 . S
C731 C730 1.374 . S
C732 C729 1.499 . S
C732 C733 1.373 . S
C732 C734 1.389 . S
C733 H712 0.950 . S
C733 C732 1.373 . S
C733 C749 1.377 . S
C734 C732 1.389 . S
C734 C735 1.524 . S
C734 C748 1.377 . S
C735 C734 1.524 . S
C735 C736 1.397 . S
C735 C740 1.363 . S
C736 H713 0.950 . S
C736 C735 1.397 . S
C736 C737 1.334 . S
C737 H714 0.950 . S
C737 C736 1.334 . S
C737 C738 1.287 . S
C738 C737 1.287 . S
C738 C739 1.524 . S
C738 H757 0.913 1_556 S
C739 H715 0.950 1_556 S
C739 C738 1.524 . S
C739 C740 1.415 . S
C740 H716 0.950 . S
C740 C735 1.363 . S
C740 C739 1.415 . S
C741 H717 0.951 . S
C741 C742 1.366 . S
C741 C743 1.388 . S
C742 C741 1.366 . S
C742 C746 1.385 . S
C743 H718 0.951 . S
C743 C741 1.388 . S
C743 C744 1.366 . S
C744 C743 1.366 . S
C744 C745 1.414 . S
C744 C747 1.499 . S
C745 H719 0.950 . S
C745 C744 1.414 . S
C745 C746 1.374 . S
C746 H720 0.950 . S
C746 C742 1.385 . S
C746 C745 1.374 . S
C747 C744 1.499 . S
C747 C748 1.373 . S
C747 C749 1.389 . S
C748 H721 0.950 . S
C748 C734 1.377 . S
C748 C747 1.373 . S
C749 C733 1.377 . S
C749 C747 1.389 . S
C749 C750 1.524 . S
C750 C749 1.524 . S
C750 C751 1.397 . S
C750 C755 1.363 . S
C751 H722 0.950 . S
C751 C750 1.397 . S
C751 C752 1.334 . S
C752 H723 0.950 . S
C752 C751 1.334 . S
C752 C753 1.287 . S
C753 C752 1.287 . S
C753 C754 1.524 . S
C753 H756 0.999 . S
C754 H724 0.950 . S
C754 C753 1.524 . S
C754 C755 1.415 . S
C755 H725 0.950 . S
C755 C750 1.363 . S
C755 C754 1.415 . S
H756 C753 0.999 . S
H757 C738 0.913 1_554 S
H758 C776 0.951 . S
H759 C778 0.951 . S
H760 C780 0.950 . S
H761 C781 0.950 . S
H762 C783 0.950 . S
H763 C786 0.950 . S
H764 C787 0.950 . S
H765 C789 0.950 . S
H766 C790 0.950 . S
H767 C791 0.951 . S
H768 C793 0.951 . S
H769 C795 0.950 . S
H770 C796 0.950 . S
H771 C798 0.950 . S
H772 C801 0.950 . S
H773 C802 0.950 . S
H774 C804 0.950 . S
H775 C805 0.950 . S
C776 H758 0.951 . S
C776 C777 1.366 . S
C776 C778 1.388 . S
C777 C776 1.366 . S
C777 C781 1.385 . S
C778 H759 0.951 . S
C778 C776 1.388 . S
C778 C779 1.366 . S
C779 C778 1.366 . S
C779 C780 1.414 . S
C779 C782 1.499 . S
C780 H760 0.950 . S
C780 C779 1.414 . S
C780 C781 1.374 . S
C781 H761 0.950 . S
C781 C777 1.385 . S
C781 C780 1.374 . S
C782 C779 1.499 . S
C782 C783 1.373 . S
C782 C784 1.389 . S
C783 H762 0.950 . S
C783 C782 1.373 . S
C783 C799 1.377 . S
C784 C782 1.389 . S
C784 C785 1.524 . S
C784 C798 1.377 . S
C785 C784 1.524 . S
C785 C786 1.397 . S
C785 C790 1.363 . S
C786 H763 0.950 . S
C786 C785 1.397 . S
C786 C787 1.334 . S
C787 H764 0.950 . S
C787 C786 1.334 . S
C787 C788 1.287 . S
C788 C787 1.287 . S
C788 C789 1.524 . S
C788 H807 0.913 . S
C789 H765 0.950 . S
C789 C788 1.524 . S
C789 C790 1.415 . S
C790 H766 0.950 . S
C790 C785 1.363 . S
C790 C789 1.415 . S
C791 H767 0.951 . S
C791 C792 1.366 . S
C791 C793 1.388 . S
C792 C791 1.366 . S
C792 C796 1.385 . S
C793 H768 0.951 . S
C793 C791 1.388 . S
C793 C794 1.366 . S
C794 C793 1.366 . S
C794 C795 1.414 . S
C794 C797 1.499 . S
C795 H769 0.950 . S
C795 C794 1.414 . S
C795 C796 1.374 . S
C796 H770 0.950 . S
C796 C792 1.385 . S
C796 C795 1.374 . S
C797 C794 1.499 . S
C797 C798 1.373 . S
C797 C799 1.389 . S
C798 H771 0.950 . S
C798 C784 1.377 . S
C798 C797 1.373 . S
C799 C783 1.377 . S
C799 C797 1.389 . S
C799 C800 1.524 . S
C800 C799 1.524 . S
C800 C801 1.397 . S
C800 C805 1.363 . S
C801 H772 0.950 . S
C801 C800 1.397 . S
C801 C802 1.334 . S
C802 H773 0.950 . S
C802 C801 1.334 . S
C802 C803 1.287 . S
C803 C802 1.287 . S
C803 C804 1.524 . S
C803 H806 0.999 . S
C804 H774 0.950 . S
C804 C803 1.524 . S
C804 C805 1.415 . S
C805 H775 0.950 . S
C805 C800 1.363 . S
C805 C804 1.415 . S
H806 C803 0.999 . S
H807 C788 0.913 . S
H808 C826 0.951 . S
H809 C828 0.951 . S
H810 C830 0.950 . S
H811 C831 0.950 . S
H812 C833 0.950 1_565 S
H813 C836 0.950 . S
H814 C837 0.950 . S
H815 C839 0.950 . S
H816 C840 0.950 . S
H817 C841 0.951 . S
H818 C843 0.951 . S
H819 C845 0.950 . S
H820 C846 0.950 . S
H821 C848 0.950 . S
H822 C851 0.950 . S
H823 C852 0.950 . S
H824 C854 0.950 . S
H825 C855 0.950 . S
C826 H808 0.951 . S
C826 C827 1.366 . S
C826 C828 1.388 . S
C827 C826 1.366 . S
C827 C831 1.385 . S
C828 H809 0.951 . S
C828 C826 1.388 . S
C828 C829 1.366 . S
C829 C828 1.366 . S
C829 C830 1.414 . S
C829 C832 1.499 . S
C830 H810 0.950 . S
C830 C829 1.414 . S
C830 C831 1.374 . S
C831 H811 0.950 . S
C831 C827 1.385 . S
C831 C830 1.374 . S
C832 C829 1.499 . S
C832 C833 1.373 1_565 S
C832 C834 1.389 . S
C833 H812 0.950 1_545 S
C833 C832 1.373 1_545 S
C833 C849 1.377 . S
C834 C832 1.389 . S
C834 C835 1.524 . S
C834 C848 1.377 1_565 S
C835 C834 1.524 . S
C835 C836 1.397 . S
C835 C840 1.363 . S
C836 H813 0.950 . S
C836 C835 1.397 . S
C836 C837 1.334 . S
C837 H814 0.950 . S
C837 C836 1.334 . S
C837 C838 1.287 . S
C838 C837 1.287 . S
C838 C839 1.524 . S
C838 H857 0.913 . S
C839 H815 0.950 . S
C839 C838 1.524 . S
C839 C840 1.415 . S
C840 H816 0.950 . S
C840 C835 1.363 . S
C840 C839 1.415 . S
C841 H817 0.951 . S
C841 C842 1.366 . S
C841 C843 1.388 . S
C842 C841 1.366 . S
C842 C846 1.385 . S
C843 H818 0.951 . S
C843 C841 1.388 . S
C843 C844 1.366 . S
C844 C843 1.366 . S
C844 C845 1.414 . S
C844 C847 1.499 . S
C845 H819 0.950 . S
C845 C844 1.414 . S
C845 C846 1.374 . S
C846 H820 0.950 . S
C846 C842 1.385 . S
C846 C845 1.374 . S
C847 C844 1.499 . S
C847 C848 1.373 . S
C847 C849 1.389 . S
C848 H821 0.950 . S
C848 C834 1.377 1_545 S
C848 C847 1.373 . S
C849 C833 1.377 . S
C849 C847 1.389 . S
C849 C850 1.524 . S
C850 C849 1.524 . S
C850 C851 1.397 . S
C850 C855 1.363 . S
C851 H822 0.950 . S
C851 C850 1.397 . S
C851 C852 1.334 . S
C852 H823 0.950 . S
C852 C851 1.334 . S
C852 C853 1.287 . S
C853 C852 1.287 . S
C853 C854 1.524 . S
C853 H856 0.999 . S
C854 H824 0.950 . S
C854 C853 1.524 . S
C854 C855 1.415 . S
C855 H825 0.950 . S
C855 C850 1.363 . S
C855 C854 1.415 . S
H856 C853 0.999 . S
H857 C838 0.913 . S
H858 C876 0.951 . S
H859 C878 0.951 . S
H860 C880 0.950 . S
H861 C881 0.950 . S
H862 C883 0.938 1_655 S
H863 C886 0.950 . S
H864 C887 0.950 . S
H865 C889 0.950 . S
H866 C890 0.950 . S
H867 C891 0.951 . S
H868 C893 0.951 . S
H869 C895 0.950 . S
H870 C896 0.950 . S
H871 C898 0.950 . S
H872 C901 0.950 . S
H873 C902 0.950 . S
H874 C904 0.950 . S
H875 C905 0.950 . S
C876 H858 0.951 . S
C876 C877 1.366 . S
C876 C878 1.388 . S
C877 C876 1.366 . S
C877 C881 1.385 . S
C878 H859 0.951 . S
C878 C876 1.388 . S
C878 C879 1.366 . S
C879 C878 1.366 . S
C879 C880 1.414 . S
C879 C882 1.499 . S
C880 H860 0.950 . S
C880 C879 1.414 . S
C880 C881 1.374 . S
C881 H861 0.950 . S
C881 C877 1.385 . S
C881 C880 1.374 . S
C882 C879 1.499 . S
C882 C883 1.357 1_655 S
C882 C884 1.418 . S
C883 H862 0.938 1_455 S
C883 C882 1.357 1_455 S
C883 C899 1.405 . S
C884 C882 1.418 . S
C884 C885 1.552 . S
C884 C898 1.319 1_655 S
C885 C884 1.552 . S
C885 C886 1.397 . S
C885 C890 1.363 . S
C886 H863 0.950 . S
C886 C885 1.397 . S
C886 C887 1.334 . S
C887 H864 0.950 . S
C887 C886 1.334 . S
C887 C888 1.287 . S
C888 C887 1.287 . S
C888 C889 1.524 . S
C888 H907 0.913 . S
C889 H865 0.950 . S
C889 C888 1.524 . S
C889 C890 1.415 . S
C890 H866 0.950 . S
C890 C885 1.363 . S
C890 C889 1.415 . S
C891 H867 0.951 . S
C891 C892 1.366 . S
C891 C893 1.388 . S
C892 C891 1.366 . S
C892 C896 1.385 . S
C893 H868 0.951 . S
C893 C891 1.388 . S
C893 C894 1.366 . S
C894 C893 1.366 . S
C894 C895 1.414 . S
C894 C897 1.499 . S
C895 H869 0.950 . S
C895 C894 1.414 . S
C895 C896 1.374 . S
C896 H870 0.950 . S
C896 C892 1.385 . S
C896 C895 1.374 . S
C897 C894 1.499 . S
C897 C898 1.373 . S
C897 C899 1.389 . S
C898 H871 0.950 . S
C898 C884 1.319 1_455 S
C898 C897 1.373 . S
C899 C883 1.405 . S
C899 C897 1.389 . S
C899 C900 1.524 . S
C900 C899 1.524 . S
C900 C901 1.397 . S
C900 C905 1.363 . S
C901 H872 0.950 . S
C901 C900 1.397 . S
C901 C902 1.334 . S
C902 H873 0.950 . S
C902 C901 1.334 . S
C902 C903 1.287 . S
C903 C902 1.287 . S
C903 C904 1.524 . S
C903 H906 0.999 . S
C904 H874 0.950 . S
C904 C903 1.524 . S
C904 C905 1.415 . S
C905 H875 0.950 . S
C905 C900 1.363 . S
C905 C904 1.415 . S
H906 C903 0.999 . S
H907 C888 0.913 . S
H908 C926 0.951 . S
H909 C928 0.951 . S
H910 C930 0.950 . S
H911 C931 0.950 . S
H912 C933 0.950 . S
H913 C936 0.950 . S
H914 C937 0.950 . S
H915 C939 0.950 . S
H916 C940 0.950 . S
H917 C941 0.951 . S
H918 C943 0.951 . S
H919 C945 0.950 . S
H920 C946 0.950 . S
H921 C948 0.950 . S
H922 C951 0.950 . S
H923 C952 0.950 . S
H924 C954 0.950 . S
H925 C955 0.950 . S
C926 H908 0.951 . S
C926 C927 1.366 . S
C926 C928 1.388 . S
C927 C926 1.366 . S
C927 C931 1.385 . S
C928 H909 0.951 . S
C928 C926 1.388 . S
C928 C929 1.366 . S
C929 C928 1.366 . S
C929 C930 1.414 . S
C929 C932 1.499 . S
C930 H910 0.950 . S
C930 C929 1.414 . S
C930 C931 1.374 . S
C931 H911 0.950 . S
C931 C927 1.385 . S
C931 C930 1.374 . S
C932 C929 1.499 . S
C932 C933 1.373 . S
C932 C934 1.389 . S
C933 H912 0.950 . S
C933 C932 1.373 . S
C933 C949 1.377 . S
C934 C932 1.389 . S
C934 C935 1.524 . S
C934 C948 1.377 1_565 S
C935 C934 1.524 . S
C935 C936 1.397 . S
C935 C940 1.363 . S
C936 H913 0.950 . S
C936 C935 1.397 . S
C936 C937 1.334 . S
C937 H914 0.950 . S
C937 C936 1.334 . S
C937 C938 1.287 . S
C938 C937 1.287 . S
C938 C939 1.524 . S
C938 H957 0.913 . S
C939 H915 0.950 . S
C939 C938 1.524 . S
C939 C940 1.415 . S
C940 H916 0.950 . S
C940 C935 1.363 . S
C940 C939 1.415 . S
C941 H917 0.951 . S
C941 C942 1.366 . S
C941 C943 1.388 . S
C942 C941 1.366 . S
C942 C946 1.385 . S
C943 H918 0.951 . S
C943 C941 1.388 . S
C943 C944 1.366 . S
C944 C943 1.366 . S
C944 C945 1.414 . S
C944 C947 1.499 . S
C945 H919 0.950 . S
C945 C944 1.414 . S
C945 C946 1.374 . S
C946 H920 0.950 . S
C946 C942 1.385 . S
C946 C945 1.374 . S
C947 C944 1.499 . S
C947 C948 1.373 . S
C947 C949 1.389 1_545 S
C948 H921 0.950 . S
C948 C934 1.377 1_545 S
C948 C947 1.373 . S
C949 C933 1.377 . S
C949 C947 1.389 1_565 S
C949 C950 1.522 1_565 S
C950 C949 1.522 1_545 S
C950 C951 1.402 . S
C950 C955 1.359 1_545 S
C951 H922 0.950 . S
C951 C950 1.402 . S
C951 C952 1.334 . S
C952 H923 0.950 . S
C952 C951 1.334 . S
C952 C953 1.287 . S
C953 C952 1.287 . S
C953 C954 1.524 1_545 S
C953 H956 0.999 . S
C954 H924 0.950 . S
C954 C953 1.524 1_565 S
C954 C955 1.415 . S
C955 H925 0.950 . S
C955 C950 1.359 1_565 S
C955 C954 1.415 . S
H956 C953 0.999 . S
H957 C938 0.913 . S
H958 C976 0.951 . S
H959 C978 0.951 . S
H960 C980 0.950 . S
H961 C981 0.950 . S
H962 C983 0.950 . S
H963 C986 0.950 . S
H964 C987 0.950 . S
H965 C989 0.950 . S
H966 C990 0.950 . S
H967 C991 0.951 . S
H968 C993 0.951 . S
H969 C995 0.950 . S
H970 C996 0.950 . S
H971 C998 0.950 1_455 S
H972 C1001 0.950 . S
H973 C1002 0.950 . S
H974 C1004 0.950 . S
H975 C1005 0.950 . S
C976 H958 0.951 . S
C976 C977 1.366 . S
C976 C978 1.388 . S
C977 C976 1.366 . S
C977 C981 1.385 . S
C978 H959 0.951 . S
C978 C976 1.388 . S
C978 C979 1.366 . S
C979 C978 1.366 . S
C979 C980 1.414 . S
C979 C982 1.499 . S
C980 H960 0.950 . S
C980 C979 1.414 . S
C980 C981 1.374 . S
C981 H961 0.950 . S
C981 C977 1.385 . S
C981 C980 1.374 . S
C982 C979 1.499 . S
C982 C983 1.373 . S
C982 C984 1.389 . S
C983 H962 0.950 . S
C983 C982 1.373 . S
C983 C999 1.377 1_655 S
C984 C982 1.389 . S
C984 C985 1.524 . S
C984 C998 1.377 . S
C985 C984 1.524 . S
C985 C986 1.397 . S
C985 C990 1.363 . S
C986 H963 0.950 . S
C986 C985 1.397 . S
C986 C987 1.334 . S
C987 H964 0.950 . S
C987 C986 1.334 . S
C987 C988 1.287 . S
C988 C987 1.287 . S
C988 C989 1.524 . S
C988 H1007 0.913 . S
C989 H965 0.950 . S
C989 C988 1.524 . S
C989 C990 1.415 . S
C990 H966 0.950 . S
C990 C985 1.363 . S
C990 C989 1.415 . S
C991 H967 0.951 . S
C991 C992 1.366 . S
C991 C993 1.388 . S
C992 C991 1.366 . S
C992 C996 1.385 . S
C993 H968 0.951 . S
C993 C991 1.388 . S
C993 C994 1.366 . S
C994 C993 1.366 . S
C994 C995 1.414 . S
C994 C997 1.499 . S
C995 H969 0.950 . S
C995 C994 1.414 . S
C995 C996 1.374 . S
C996 H970 0.950 . S
C996 C992 1.385 . S
C996 C995 1.374 . S
C997 C994 1.499 . S
C997 C998 1.373 1_455 S
C997 C999 1.389 . S
C998 H971 0.950 1_655 S
C998 C984 1.377 . S
C998 C997 1.373 1_655 S
C999 C983 1.377 1_455 S
C999 C997 1.389 . S
C999 C1000 1.524 . S
C1000 C999 1.524 . S
C1000 C1001 1.397 . S
C1000 C1005 1.363 . S
C1001 H972 0.950 . S
C1001 C1000 1.397 . S
C1001 C1002 1.334 . S
C1002 H973 0.950 . S
C1002 C1001 1.334 . S
C1002 C1003 1.287 . S
C1003 C1002 1.287 . S
C1003 C1004 1.524 . S
C1003 H1006 0.999 . S
C1004 H974 0.950 . S
C1004 C1003 1.524 . S
C1004 C1005 1.415 . S
C1005 H975 0.950 . S
C1005 C1000 1.363 . S
C1005 C1004 1.415 . S
H1006 C1003 0.999 . S
H1007 C988 0.913 . S
H1008 C1026 0.951 . S
H1009 C1028 0.951 . S
H1010 C1030 0.950 . S
H1011 C1031 0.950 . S
H1012 C1033 0.950 . S
H1013 C1036 0.950 . S
H1014 C1037 0.950 . S
H1015 C1039 0.950 . S
H1016 C1040 0.950 . S
H1017 C1041 0.951 . S
H1018 C1043 0.951 . S
H1019 C1045 0.950 . S
H1020 C1046 0.950 . S
H1021 C1048 0.950 . S
H1022 C1051 0.950 . S
H1023 C1052 0.950 . S
H1024 C1054 0.950 . S
H1025 C1055 0.950 . S
C1026 H1008 0.951 . S
C1026 C1027 1.366 . S
C1026 C1028 1.388 . S
C1027 C1026 1.366 . S
C1027 C1031 1.385 . S
C1028 H1009 0.951 . S
C1028 C1026 1.388 . S
C1028 C1029 1.366 . S
C1029 C1028 1.366 . S
C1029 C1030 1.414 . S
C1029 C1032 1.499 . S
C1030 H1010 0.950 . S
C1030 C1029 1.414 . S
C1030 C1031 1.374 . S
C1031 H1011 0.950 . S
C1031 C1027 1.385 . S
C1031 C1030 1.374 . S
C1032 C1029 1.499 . S
C1032 C1033 1.373 . S
C1032 C1034 1.389 . S
C1033 H1012 0.950 . S
C1033 C1032 1.373 . S
C1033 C1049 1.377 . S
C1034 C1032 1.389 . S
C1034 C1035 1.524 . S
C1034 C1048 1.377 . S
C1035 C1034 1.524 . S
C1035 C1036 1.397 . S
C1035 C1040 1.363 . S
C1036 H1013 0.950 . S
C1036 C1035 1.397 . S
C1036 C1037 1.334 . S
C1037 H1014 0.950 . S
C1037 C1036 1.334 . S
C1037 C1038 1.287 . S
C1038 C1037 1.287 . S
C1038 C1039 1.524 . S
C1038 H1057 0.913 . S
C1039 H1015 0.950 . S
C1039 C1038 1.524 . S
C1039 C1040 1.415 . S
C1040 H1016 0.950 . S
C1040 C1035 1.363 . S
C1040 C1039 1.415 . S
C1041 H1017 0.951 . S
C1041 C1042 1.366 . S
C1041 C1043 1.388 . S
C1042 C1041 1.366 . S
C1042 C1046 1.385 . S
C1043 H1018 0.951 . S
C1043 C1041 1.388 . S
C1043 C1044 1.366 . S
C1044 C1043 1.366 . S
C1044 C1045 1.414 . S
C1044 C1047 1.499 . S
C1045 H1019 0.950 . S
C1045 C1044 1.414 . S
C1045 C1046 1.374 . S
C1046 H1020 0.950 . S
C1046 C1042 1.385 . S
C1046 C1045 1.374 . S
C1047 C1044 1.499 . S
C1047 C1048 1.373 . S
C1047 C1049 1.389 . S
C1048 H1021 0.950 . S
C1048 C1034 1.377 . S
C1048 C1047 1.373 . S
C1049 C1033 1.377 . S
C1049 C1047 1.389 . S
C1049 C1050 1.524 . S
C1050 C1049 1.524 . S
C1050 C1051 1.397 . S
C1050 C1055 1.363 . S
C1051 H1022 0.950 . S
C1051 C1050 1.397 . S
C1051 C1052 1.334 . S
C1052 H1023 0.950 . S
C1052 C1051 1.334 . S
C1052 C1053 1.287 . S
C1053 C1052 1.287 . S
C1053 C1054 1.524 . S
C1053 H1056 0.999 . S
C1054 H1024 0.950 . S
C1054 C1053 1.524 . S
C1054 C1055 1.415 . S
C1055 H1025 0.950 . S
C1055 C1050 1.363 . S
C1055 C1054 1.415 . S
H1056 C1053 0.999 . S
H1057 C1038 0.913 . S
H1058 C1076 0.951 . S
H1059 C1078 0.951 . S
H1060 C1080 0.950 . S
H1061 C1081 0.950 . S
H1062 C1083 0.950 . S
H1063 C1086 0.950 . S
H1064 C1087 0.950 . S
H1065 C1089 0.950 . S
H1066 C1090 0.950 1_554 S
H1067 C1091 0.951 . S
H1068 C1093 0.951 . S
H1069 C1095 0.950 . S
H1070 C1096 0.950 1_554 S
H1071 C1098 0.950 . S
H1072 C1101 0.950 . S
H1073 C1102 0.950 . S
H1074 C1104 0.950 . S
H1075 C1105 0.950 . S
C1076 H1058 0.951 . S
C1076 C1077 1.366 . S
C1076 C1078 1.388 . S
C1077 C1076 1.366 . S
C1077 C1081 1.385 . S
C1078 H1059 0.951 . S
C1078 C1076 1.388 . S
C1078 C1079 1.366 . S
C1079 C1078 1.366 . S
C1079 C1080 1.414 . S
C1079 C1082 1.499 . S
C1080 H1060 0.950 . S
C1080 C1079 1.414 . S
C1080 C1081 1.374 . S
C1081 H1061 0.950 . S
C1081 C1077 1.385 . S
C1081 C1080 1.374 . S
C1082 C1079 1.499 . S
C1082 C1083 1.373 . S
C1082 C1084 1.389 . S
C1083 H1062 0.950 . S
C1083 C1082 1.373 . S
C1083 C1099 1.377 . S
C1084 C1082 1.389 . S
C1084 C1085 1.524 . S
C1084 C1098 1.377 . S
C1085 C1084 1.524 . S
C1085 C1086 1.397 . S
C1085 C1090 1.363 . S
C1086 H1063 0.950 . S
C1086 C1085 1.397 . S
C1086 C1087 1.334 . S
C1087 H1064 0.950 . S
C1087 C1086 1.334 . S
C1087 C1088 1.287 . S
C1088 C1087 1.287 . S
C1088 C1089 1.524 1_556 S
C1088 H1107 0.913 1_556 S
C1089 H1065 0.950 . S
C1089 C1088 1.524 1_554 S
C1089 C1090 1.415 1_554 S
C1090 H1066 0.950 1_556 S
C1090 C1085 1.363 . S
C1090 C1089 1.415 1_556 S
C1091 H1067 0.951 . S
C1091 C1092 1.366 . S
C1091 C1093 1.388 . S
C1092 C1091 1.366 . S
C1092 C1096 1.385 . S
C1093 H1068 0.951 . S
C1093 C1091 1.388 . S
C1093 C1094 1.366 . S
C1094 C1093 1.366 . S
C1094 C1095 1.414 . S
C1094 C1097 1.499 . S
C1095 H1069 0.950 . S
C1095 C1094 1.414 . S
C1095 C1096 1.374 . S
C1096 H1070 0.950 1_556 S
C1096 C1092 1.385 . S
C1096 C1095 1.374 . S
C1097 C1094 1.499 . S
C1097 C1098 1.373 . S
C1097 C1099 1.389 . S
C1098 H1071 0.950 . S
C1098 C1084 1.377 . S
C1098 C1097 1.373 . S
C1099 C1083 1.377 . S
C1099 C1097 1.389 . S
C1099 C1100 1.524 . S
C1100 C1099 1.524 . S
C1100 C1101 1.397 . S
C1100 C1105 1.363 . S
C1101 H1072 0.950 . S
C1101 C1100 1.397 . S
C1101 C1102 1.334 . S
C1102 H1073 0.950 . S
C1102 C1101 1.334 . S
C1102 C1103 1.287 . S
C1103 C1102 1.287 . S
C1103 C1104 1.524 . S
C1103 H1106 0.999 . S
C1104 H1074 0.950 . S
C1104 C1103 1.524 . S
C1104 C1105 1.415 . S
C1105 H1075 0.950 . S
C1105 C1100 1.363 . S
C1105 C1104 1.415 . S
H1106 C1103 0.999 . S
H1107 C1088 0.913 1_554 S
H1108 C1126 0.951 . S
H1109 C1128 0.951 . S
H1110 C1130 0.950 . S
H1111 C1131 0.950 . S
H1112 C1133 0.950 . S
H1113 C1136 0.950 . S
H1114 C1137 0.950 . S
H1115 C1139 0.950 . S
H1116 C1140 0.950 . S
H1117 C1141 0.951 . S
H1118 C1143 0.951 . S
H1119 C1145 0.950 . S
H1120 C1146 0.950 . S
H1121 C1148 0.950 . S
H1122 C1151 0.950 1_554 S
H1123 C1152 0.950 . S
H1124 C1154 0.950 . S
H1125 C1155 0.950 1_554 S
C1126 H1108 0.951 . S
C1126 C1127 1.366 . S
C1126 C1128 1.388 . S
C1127 C1126 1.366 . S
C1127 C1131 1.385 . S
C1128 H1109 0.951 . S
C1128 C1126 1.388 . S
C1128 C1129 1.366 . S
C1129 C1128 1.366 . S
C1129 C1130 1.414 . S
C1129 C1132 1.499 . S
C1130 H1110 0.950 . S
C1130 C1129 1.414 . S
C1130 C1131 1.374 . S
C1131 H1111 0.950 . S
C1131 C1127 1.385 . S
C1131 C1130 1.374 . S
C1132 C1129 1.499 . S
C1132 C1133 1.373 . S
C1132 C1134 1.389 . S
C1133 H1112 0.950 . S
C1133 C1132 1.373 . S
C1133 C1149 1.377 . S
C1134 C1132 1.389 . S
C1134 C1135 1.524 . S
C1134 C1148 1.377 . S
C1135 C1134 1.524 . S
C1135 C1136 1.397 . S
C1135 C1140 1.363 . S
C1136 H1113 0.950 . S
C1136 C1135 1.397 . S
C1136 C1137 1.334 . S
C1137 H1114 0.950 . S
C1137 C1136 1.334 . S
C1137 C1138 1.287 . S
C1138 C1137 1.287 . S
C1138 C1139 1.524 . S
C1138 H1157 0.913 . S
C1139 H1115 0.950 . S
C1139 C1138 1.524 . S
C1139 C1140 1.415 . S
C1140 H1116 0.950 . S
C1140 C1135 1.363 . S
C1140 C1139 1.415 . S
C1141 H1117 0.951 . S
C1141 C1142 1.366 . S
C1141 C1143 1.388 . S
C1142 C1141 1.366 . S
C1142 C1146 1.385 . S
C1143 H1118 0.951 . S
C1143 C1141 1.388 . S
C1143 C1144 1.366 . S
C1144 C1143 1.366 . S
C1144 C1145 1.414 . S
C1144 C1147 1.499 . S
C1145 H1119 0.950 . S
C1145 C1144 1.414 . S
C1145 C1146 1.374 . S
C1146 H1120 0.950 . S
C1146 C1142 1.385 . S
C1146 C1145 1.374 . S
C1147 C1144 1.499 . S
C1147 C1148 1.373 . S
C1147 C1149 1.389 . S
C1148 H1121 0.950 . S
C1148 C1134 1.377 . S
C1148 C1147 1.373 . S
C1149 C1133 1.377 . S
C1149 C1147 1.389 . S
C1149 C1150 1.524 . S
C1150 C1149 1.524 . S
C1150 C1151 1.397 1_554 S
C1150 C1155 1.363 1_554 S
C1151 H1122 0.950 1_556 S
C1151 C1150 1.397 1_556 S
C1151 C1152 1.334 . S
C1152 H1123 0.950 . S
C1152 C1151 1.334 . S
C1152 C1153 1.287 . S
C1153 C1152 1.287 . S
C1153 C1154 1.524 . S
C1153 H1156 0.999 . S
C1154 H1124 0.950 . S
C1154 C1153 1.524 . S
C1154 C1155 1.415 . S
C1155 H1125 0.950 1_556 S
C1155 C1150 1.363 1_556 S
C1155 C1154 1.415 . S
H1156 C1153 0.999 . S
H1157 C1138 0.913 . S
H1158 C1176 0.951 . S
H1159 C1178 0.951 . S
H1160 C1180 0.950 . S
H1161 C1181 0.950 1_554 S
H1162 C1183 0.950 . S
H1163 C1186 0.950 . S
H1164 C1187 0.950 . S
H1165 C1189 0.950 . S
H1166 C1190 0.950 . S
H1167 C1191 0.951 . S
H1168 C1193 0.951 . S
H1169 C1195 0.950 . S
H1170 C1196 0.950 . S
H1171 C1198 0.950 . S
H1172 C1201 0.950 . S
H1173 C1202 0.950 . S
H1174 C1204 0.950 . S
H1175 C1205 0.950 . S
C1176 H1158 0.951 . S
C1176 C1177 1.366 . S
C1176 C1178 1.388 . S
C1177 C1176 1.366 . S
C1177 C1181 1.385 . S
C1178 H1159 0.951 . S
C1178 C1176 1.388 . S
C1178 C1179 1.366 . S
C1179 C1178 1.366 . S
C1179 C1180 1.414 . S
C1179 C1182 1.499 . S
C1180 H1160 0.950 . S
C1180 C1179 1.414 . S
C1180 C1181 1.374 . S
C1181 H1161 0.950 1_556 S
C1181 C1177 1.385 . S
C1181 C1180 1.374 . S
C1182 C1179 1.499 . S
C1182 C1183 1.373 . S
C1182 C1184 1.389 . S
C1183 H1162 0.950 . S
C1183 C1182 1.373 . S
C1183 C1199 1.377 . S
C1184 C1182 1.389 . S
C1184 C1185 1.524 . S
C1184 C1198 1.377 . S
C1185 C1184 1.524 . S
C1185 C1186 1.397 . S
C1185 C1190 1.363 . S
C1186 H1163 0.950 . S
C1186 C1185 1.397 . S
C1186 C1187 1.334 . S
C1187 H1164 0.950 . S
C1187 C1186 1.334 . S
C1187 C1188 1.287 . S
C1188 C1187 1.287 . S
C1188 C1189 1.524 . S
C1188 H1207 0.913 . S
C1189 H1165 0.950 . S
C1189 C1188 1.524 . S
C1189 C1190 1.415 . S
C1190 H1166 0.950 . S
C1190 C1185 1.363 . S
C1190 C1189 1.415 . S
C1191 H1167 0.951 . S
C1191 C1192 1.366 . S
C1191 C1193 1.388 . S
C1192 C1191 1.366 . S
C1192 C1196 1.385 . S
C1193 H1168 0.951 . S
C1193 C1191 1.388 . S
C1193 C1194 1.366 . S
C1194 C1193 1.366 . S
C1194 C1195 1.414 . S
C1194 C1197 1.499 . S
C1195 H1169 0.950 . S
C1195 C1194 1.414 . S
C1195 C1196 1.374 . S
C1196 H1170 0.950 . S
C1196 C1192 1.385 . S
C1196 C1195 1.374 . S
C1197 C1194 1.499 . S
C1197 C1198 1.373 . S
C1197 C1199 1.389 . S
C1198 H1171 0.950 . S
C1198 C1184 1.377 . S
C1198 C1197 1.373 . S
C1199 C1183 1.377 . S
C1199 C1197 1.389 . S
C1199 C1200 1.524 . S
C1200 C1199 1.524 . S
C1200 C1201 1.397 . S
C1200 C1205 1.363 . S
C1201 H1172 0.950 . S
C1201 C1200 1.397 . S
C1201 C1202 1.334 . S
C1202 H1173 0.950 . S
C1202 C1201 1.334 . S
C1202 C1203 1.287 . S
C1203 C1202 1.287 . S
C1203 C1204 1.524 . S
C1203 H1206 0.999 . S
C1204 H1174 0.950 . S
C1204 C1203 1.524 . S
C1204 C1205 1.415 . S
C1205 H1175 0.950 . S
C1205 C1200 1.363 . S
C1205 C1204 1.415 . S
H1206 C1203 0.999 . S
H1207 C1188 0.913 . S
H1208 C1226 0.951 . S
H1209 C1228 0.951 . S
H1210 C1230 0.950 . S
H1211 C1231 0.950 . S
H1212 C1233 0.950 . S
H1213 C1236 0.950 . S
H1214 C1237 0.950 . S
H1215 C1239 0.950 . S
H1216 C1240 0.950 . S
H1217 C1241 0.951 . S
H1218 C1243 0.951 . S
H1219 C1245 0.950 . S
H1220 C1246 0.950 . S
H1221 C1248 0.950 . S
H1222 C1251 0.950 . S
H1223 C1252 0.950 . S
H1224 C1254 0.950 . S
H1225 C1255 0.950 . S
C1226 H1208 0.951 . S
C1226 C1227 1.366 . S
C1226 C1228 1.388 . S
C1227 C1226 1.366 . S
C1227 C1231 1.385 . S
C1228 H1209 0.951 . S
C1228 C1226 1.388 . S
C1228 C1229 1.366 . S
C1229 C1228 1.366 . S
C1229 C1230 1.414 . S
C1229 C1232 1.499 . S
C1230 H1210 0.950 . S
C1230 C1229 1.414 . S
C1230 C1231 1.374 . S
C1231 H1211 0.950 . S
C1231 C1227 1.385 . S
C1231 C1230 1.374 . S
C1232 C1229 1.499 . S
C1232 C1233 1.373 . S
C1232 C1234 1.389 . S
C1233 H1212 0.950 . S
C1233 C1232 1.373 . S
C1233 C1249 1.377 . S
C1234 C1232 1.389 . S
C1234 C1235 1.524 . S
C1234 C1248 1.377 . S
C1235 C1234 1.524 . S
C1235 C1236 1.397 . S
C1235 C1240 1.363 . S
C1236 H1213 0.950 . S
C1236 C1235 1.397 . S
C1236 C1237 1.334 . S
C1237 H1214 0.950 . S
C1237 C1236 1.334 . S
C1237 C1238 1.287 . S
C1238 C1237 1.287 . S
C1238 C1239 1.524 . S
C1238 H1257 0.913 . S
C1239 H1215 0.950 . S
C1239 C1238 1.524 . S
C1239 C1240 1.415 . S
C1240 H1216 0.950 . S
C1240 C1235 1.363 . S
C1240 C1239 1.415 . S
C1241 H1217 0.951 . S
C1241 C1242 1.366 . S
C1241 C1243 1.388 . S
C1242 C1241 1.366 . S
C1242 C1246 1.385 . S
C1243 H1218 0.951 . S
C1243 C1241 1.388 . S
C1243 C1244 1.366 . S
C1244 C1243 1.366 . S
C1244 C1245 1.414 . S
C1244 C1247 1.499 . S
C1245 H1219 0.950 . S
C1245 C1244 1.414 . S
C1245 C1246 1.374 . S
C1246 H1220 0.950 . S
C1246 C1242 1.385 . S
C1246 C1245 1.374 . S
C1247 C1244 1.499 . S
C1247 C1248 1.373 . S
C1247 C1249 1.389 . S
C1248 H1221 0.950 . S
C1248 C1234 1.377 . S
C1248 C1247 1.373 . S
C1249 C1233 1.377 . S
C1249 C1247 1.389 . S
C1249 C1250 1.524 . S
C1250 C1249 1.524 . S
C1250 C1251 1.397 . S
C1250 C1255 1.363 . S
C1251 H1222 0.950 . S
C1251 C1250 1.397 . S
C1251 C1252 1.334 . S
C1252 H1223 0.950 . S
C1252 C1251 1.334 . S
C1252 C1253 1.287 . S
C1253 C1252 1.287 . S
C1253 C1254 1.524 . S
C1253 H1256 0.999 . S
C1254 H1224 0.950 . S
C1254 C1253 1.524 . S
C1254 C1255 1.415 . S
C1255 H1225 0.950 . S
C1255 C1250 1.363 . S
C1255 C1254 1.415 . S
H1256 C1253 0.999 . S
H1257 C1238 0.913 . S
H1258 C1276 0.951 . S
H1259 C1278 0.951 . S
H1260 C1280 0.950 . S
H1261 C1281 0.950 . S
H1262 C1283 0.950 . S
H1263 C1286 0.950 . S
H1264 C1287 0.950 . S
H1265 C1289 0.950 . S
H1266 C1290 0.950 . S
H1267 C1291 0.951 . S
H1268 C1293 0.951 . S
H1269 C1295 0.950 . S
H1270 C1296 0.950 . S
H1271 C1298 0.950 . S
H1272 C1301 0.950 . S
H1273 C1302 0.950 . S
H1274 C1304 0.950 . S
H1275 C1305 0.950 . S
C1276 H1258 0.951 . S
C1276 C1277 1.366 . S
C1276 C1278 1.388 . S
C1277 C1276 1.366 . S
C1277 C1281 1.385 . S
C1278 H1259 0.951 . S
C1278 C1276 1.388 . S
C1278 C1279 1.366 . S
C1279 C1278 1.366 . S
C1279 C1280 1.414 . S
C1279 C1282 1.499 . S
C1280 H1260 0.950 . S
C1280 C1279 1.414 . S
C1280 C1281 1.374 . S
C1281 H1261 0.950 . S
C1281 C1277 1.385 . S
C1281 C1280 1.374 . S
C1282 C1279 1.499 . S
C1282 C1283 1.373 . S
C1282 C1284 1.389 . S
C1283 H1262 0.950 . S
C1283 C1282 1.373 . S
C1283 C1299 1.377 . S
C1284 C1282 1.389 . S
C1284 C1285 1.524 . S
C1284 C1298 1.377 . S
C1285 C1284 1.524 . S
C1285 C1286 1.397 . S
C1285 C1290 1.363 . S
C1286 H1263 0.950 . S
C1286 C1285 1.397 . S
C1286 C1287 1.334 . S
C1287 H1264 0.950 . S
C1287 C1286 1.334 . S
C1287 C1288 1.287 . S
C1288 C1287 1.287 . S
C1288 C1289 1.524 . S
C1288 H1307 0.913 . S
C1289 H1265 0.950 . S
C1289 C1288 1.524 . S
C1289 C1290 1.415 . S
C1290 H1266 0.950 . S
C1290 C1285 1.363 . S
C1290 C1289 1.415 . S
C1291 H1267 0.951 . S
C1291 C1292 1.366 . S
C1291 C1293 1.388 . S
C1292 C1291 1.366 . S
C1292 C1296 1.385 . S
C1293 H1268 0.951 . S
C1293 C1291 1.388 . S
C1293 C1294 1.366 . S
C1294 C1293 1.366 . S
C1294 C1295 1.414 . S
C1294 C1297 1.499 . S
C1295 H1269 0.950 . S
C1295 C1294 1.414 . S
C1295 C1296 1.374 . S
C1296 H1270 0.950 . S
C1296 C1292 1.385 . S
C1296 C1295 1.374 . S
C1297 C1294 1.499 . S
C1297 C1298 1.373 . S
C1297 C1299 1.389 . S
C1298 H1271 0.950 . S
C1298 C1284 1.377 . S
C1298 C1297 1.373 . S
C1299 C1283 1.377 . S
C1299 C1297 1.389 . S
C1299 C1300 1.524 . S
C1300 C1299 1.524 . S
C1300 C1301 1.397 . S
C1300 C1305 1.363 . S
C1301 H1272 0.950 . S
C1301 C1300 1.397 . S
C1301 C1302 1.334 . S
C1302 H1273 0.950 . S
C1302 C1301 1.334 . S
C1302 C1303 1.287 . S
C1303 C1302 1.287 . S
C1303 C1304 1.524 . S
C1303 H1306 0.999 . S
C1304 H1274 0.950 . S
C1304 C1303 1.524 . S
C1304 C1305 1.415 . S
C1305 H1275 0.950 . S
C1305 C1300 1.363 . S
C1305 C1304 1.415 . S
H1306 C1303 0.999 . S
H1307 C1288 0.913 . S
H1308 C1326 0.951 . S
H1309 C1328 0.951 . S
H1310 C1330 0.950 . S
H1311 C1331 0.950 . S
H1312 C1333 0.950 . S
H1313 C1336 0.950 . S
H1314 C1337 0.950 . S
H1315 C1339 0.950 . S
H1316 C1340 0.950 . S
H1317 C1341 0.951 . S
H1318 C1343 0.951 . S
H1319 C1345 0.950 . S
H1320 C1346 0.950 . S
H1321 C1348 0.950 . S
H1322 C1351 0.950 . S
H1323 C1352 0.950 . S
H1324 C1354 0.950 . S
H1325 C1355 0.950 . S
C1326 H1308 0.951 . S
C1326 C1327 1.366 . S
C1326 C1328 1.388 . S
C1327 C1326 1.366 . S
C1327 C1331 1.385 . S
C1328 H1309 0.951 . S
C1328 C1326 1.388 . S
C1328 C1329 1.366 . S
C1329 C1328 1.366 . S
C1329 C1330 1.414 . S
C1329 C1332 1.499 . S
C1330 H1310 0.950 . S
C1330 C1329 1.414 . S
C1330 C1331 1.374 . S
C1331 H1311 0.950 . S
C1331 C1327 1.385 . S
C1331 C1330 1.374 . S
C1332 C1329 1.499 . S
C1332 C1333 1.373 . S
C1332 C1334 1.389 . S
C1333 H1312 0.950 . S
C1333 C1332 1.373 . S
C1333 C1349 1.377 . S
C1334 C1332 1.389 . S
C1334 C1335 1.524 . S
C1334 C1348 1.377 . S
C1335 C1334 1.524 . S
C1335 C1336 1.397 . S
C1335 C1340 1.363 . S
C1336 H1313 0.950 . S
C1336 C1335 1.397 . S
C1336 C1337 1.334 . S
C1337 H1314 0.950 . S
C1337 C1336 1.334 . S
C1337 C1338 1.287 . S
C1338 C1337 1.287 . S
C1338 C1339 1.524 . S
C1338 H1357 0.913 . S
C1339 H1315 0.950 . S
C1339 C1338 1.524 . S
C1339 C1340 1.415 . S
C1340 H1316 0.950 . S
C1340 C1335 1.363 . S
C1340 C1339 1.415 . S
C1341 H1317 0.951 . S
C1341 C1342 1.366 . S
C1341 C1343 1.388 . S
C1342 C1341 1.366 . S
C1342 C1346 1.385 . S
C1343 H1318 0.951 . S
C1343 C1341 1.388 . S
C1343 C1344 1.366 . S
C1344 C1343 1.366 . S
C1344 C1345 1.414 . S
C1344 C1347 1.499 . S
C1345 H1319 0.950 . S
C1345 C1344 1.414 . S
C1345 C1346 1.374 . S
C1346 H1320 0.950 . S
C1346 C1342 1.385 . S
C1346 C1345 1.374 . S
C1347 C1344 1.499 . S
C1347 C1348 1.373 . S
C1347 C1349 1.389 . S
C1348 H1321 0.950 . S
C1348 C1334 1.377 . S
C1348 C1347 1.373 . S
C1349 C1333 1.377 . S
C1349 C1347 1.389 . S
C1349 C1350 1.524 . S
C1350 C1349 1.524 . S
C1350 C1351 1.397 . S
C1350 C1355 1.363 . S
C1351 H1322 0.950 . S
C1351 C1350 1.397 . S
C1351 C1352 1.334 . S
C1352 H1323 0.950 . S
C1352 C1351 1.334 . S
C1352 C1353 1.287 . S
C1353 C1352 1.287 . S
C1353 C1354 1.524 . S
C1353 H1356 0.999 . S
C1354 H1324 0.950 . S
C1354 C1353 1.524 . S
C1354 C1355 1.415 . S
C1355 H1325 0.950 . S
C1355 C1350 1.363 . S
C1355 C1354 1.415 . S
H1356 C1353 0.999 . S
H1357 C1338 0.913 . S
H1358 C1376 0.951 . S
H1359 C1378 0.951 . S
H1360 C1380 0.950 . S
H1361 C1381 0.950 . S
H1362 C1383 0.950 . S
H1363 C1386 0.950 . S
H1364 C1387 0.950 . S
H1365 C1389 0.950 . S
H1366 C1390 0.950 . S
H1367 C1391 0.951 . S
H1368 C1393 0.951 . S
H1369 C1395 0.950 . S
H1370 C1396 0.950 . S
H1371 C1398 0.950 . S
H1372 C1401 0.950 . S
H1373 C1402 0.950 . S
H1374 C1404 0.950 . S
H1375 C1405 0.950 . S
C1376 H1358 0.951 . S
C1376 C1377 1.366 . S
C1376 C1378 1.388 . S
C1377 C1376 1.366 . S
C1377 C1381 1.385 . S
C1378 H1359 0.951 . S
C1378 C1376 1.388 . S
C1378 C1379 1.366 . S
C1379 C1378 1.366 . S
C1379 C1380 1.414 . S
C1379 C1382 1.499 . S
C1380 H1360 0.950 . S
C1380 C1379 1.414 . S
C1380 C1381 1.374 . S
C1381 H1361 0.950 . S
C1381 C1377 1.385 . S
C1381 C1380 1.374 . S
C1382 C1379 1.499 . S
C1382 C1383 1.373 . S
C1382 C1384 1.389 . S
C1383 H1362 0.950 . S
C1383 C1382 1.373 . S
C1383 C1399 1.377 . S
C1384 C1382 1.389 . S
C1384 C1385 1.524 . S
C1384 C1398 1.377 . S
C1385 C1384 1.524 . S
C1385 C1386 1.397 . S
C1385 C1390 1.363 . S
C1386 H1363 0.950 . S
C1386 C1385 1.397 . S
C1386 C1387 1.334 . S
C1387 H1364 0.950 . S
C1387 C1386 1.334 . S
C1387 C1388 1.287 . S
C1388 C1387 1.287 . S
C1388 C1389 1.524 . S
C1388 H1407 0.913 . S
C1389 H1365 0.950 . S
C1389 C1388 1.524 . S
C1389 C1390 1.415 . S
C1390 H1366 0.950 . S
C1390 C1385 1.363 . S
C1390 C1389 1.415 . S
C1391 H1367 0.951 . S
C1391 C1392 1.366 . S
C1391 C1393 1.388 . S
C1392 C1391 1.366 . S
C1392 C1396 1.385 . S
C1393 H1368 0.951 . S
C1393 C1391 1.388 . S
C1393 C1394 1.366 . S
C1394 C1393 1.366 . S
C1394 C1395 1.414 . S
C1394 C1397 1.499 . S
C1395 H1369 0.950 . S
C1395 C1394 1.414 . S
C1395 C1396 1.374 . S
C1396 H1370 0.950 . S
C1396 C1392 1.385 . S
C1396 C1395 1.374 . S
C1397 C1394 1.499 . S
C1397 C1398 1.373 . S
C1397 C1399 1.389 . S
C1398 H1371 0.950 . S
C1398 C1384 1.377 . S
C1398 C1397 1.373 . S
C1399 C1383 1.377 . S
C1399 C1397 1.389 . S
C1399 C1400 1.524 . S
C1400 C1399 1.524 . S
C1400 C1401 1.397 . S
C1400 C1405 1.363 . S
C1401 H1372 0.950 . S
C1401 C1400 1.397 . S
C1401 C1402 1.334 . S
C1402 H1373 0.950 . S
C1402 C1401 1.334 . S
C1402 C1403 1.287 . S
C1403 C1402 1.287 . S
C1403 C1404 1.524 . S
C1403 H1406 0.999 . S
C1404 H1374 0.950 . S
C1404 C1403 1.524 . S
C1404 C1405 1.415 . S
C1405 H1375 0.950 . S
C1405 C1400 1.363 . S
C1405 C1404 1.415 . S
H1406 C1403 0.999 . S
H1407 C1388 0.913 . S
H1408 C1426 0.951 . S
H1409 C1428 0.951 . S
H1410 C1430 0.950 . S
H1411 C1431 0.950 . S
H1412 C1433 0.950 . S
H1413 C1436 0.950 . S
H1414 C1437 0.950 . S
H1415 C1439 0.950 . S
H1416 C1440 0.950 . S
H1417 C1441 0.951 . S
H1418 C1443 0.951 . S
H1419 C1445 0.950 . S
H1420 C1446 0.950 . S
H1421 C1448 0.950 . S
H1422 C1451 0.950 1_556 S
H1423 C1452 0.950 . S
H1424 C1454 0.950 . S
H1425 C1455 0.950 . S
C1426 H1408 0.951 . S
C1426 C1427 1.366 . S
C1426 C1428 1.388 . S
C1427 C1426 1.366 . S
C1427 C1431 1.385 . S
C1428 H1409 0.951 . S
C1428 C1426 1.388 . S
C1428 C1429 1.366 . S
C1429 C1428 1.366 . S
C1429 C1430 1.414 . S
C1429 C1432 1.499 . S
C1430 H1410 0.950 . S
C1430 C1429 1.414 . S
C1430 C1431 1.374 . S
C1431 H1411 0.950 . S
C1431 C1427 1.385 . S
C1431 C1430 1.374 . S
C1432 C1429 1.499 . S
C1432 C1433 1.373 . S
C1432 C1434 1.389 . S
C1433 H1412 0.950 . S
C1433 C1432 1.373 . S
C1433 C1449 1.377 . S
C1434 C1432 1.389 . S
C1434 C1435 1.524 . S
C1434 C1448 1.377 . S
C1435 C1434 1.524 . S
C1435 C1436 1.397 . S
C1435 C1440 1.363 . S
C1436 H1413 0.950 . S
C1436 C1435 1.397 . S
C1436 C1437 1.334 . S
C1437 H1414 0.950 . S
C1437 C1436 1.334 . S
C1437 C1438 1.287 . S
C1438 C1437 1.287 . S
C1438 C1439 1.524 . S
C1438 H1457 0.913 . S
C1439 H1415 0.950 . S
C1439 C1438 1.524 . S
C1439 C1440 1.415 . S
C1440 H1416 0.950 . S
C1440 C1435 1.363 . S
C1440 C1439 1.415 . S
C1441 H1417 0.951 . S
C1441 C1442 1.366 . S
C1441 C1443 1.388 . S
C1442 C1441 1.366 . S
C1442 C1446 1.385 1_554 S
C1443 H1418 0.951 . S
C1443 C1441 1.388 . S
C1443 C1444 1.366 1_554 S
C1444 C1443 1.366 1_556 S
C1444 C1445 1.414 . S
C1444 C1447 1.499 . S
C1445 H1419 0.950 . S
C1445 C1444 1.414 . S
C1445 C1446 1.374 . S
C1446 H1420 0.950 . S
C1446 C1442 1.385 1_556 S
C1446 C1445 1.374 . S
C1447 C1444 1.499 . S
C1447 C1448 1.373 . S
C1447 C1449 1.389 . S
C1448 H1421 0.950 . S
C1448 C1434 1.377 . S
C1448 C1447 1.373 . S
C1449 C1433 1.377 . S
C1449 C1447 1.389 . S
C1449 C1450 1.524 . S
C1450 C1449 1.524 . S
C1450 C1451 1.397 1_556 S
C1450 C1455 1.363 1_556 S
C1451 H1422 0.950 1_554 S
C1451 C1450 1.397 1_554 S
C1451 C1452 1.334 . S
C1452 H1423 0.950 . S
C1452 C1451 1.334 . S
C1452 C1453 1.287 . S
C1453 C1452 1.287 . S
C1453 C1454 1.524 . S
C1453 H1456 0.999 . S
C1454 H1424 0.950 . S
C1454 C1453 1.524 . S
C1454 C1455 1.415 . S
C1455 H1425 0.950 . S
C1455 C1450 1.363 1_554 S
C1455 C1454 1.415 . S
H1456 C1453 0.999 . S
H1457 C1438 0.913 . S
H1458 C1476 0.951 . S
H1459 C1478 0.951 . S
H1460 C1480 0.950 . S
H1461 C1481 0.950 . S
H1462 C1483 0.950 . S
H1463 C1486 0.950 . S
H1464 C1487 0.950 . S
H1465 C1489 0.950 . S
H1466 C1490 0.950 . S
H1467 C1491 0.951 . S
H1468 C1493 0.951 1_556 S
H1469 C1495 0.950 . S
H1470 C1496 0.950 . S
H1471 C1498 0.950 . S
H1472 C1501 0.950 . S
H1473 C1502 0.950 . S
H1474 C1504 0.950 . S
H1475 C1505 0.950 . S
C1476 H1458 0.951 . S
C1476 C1477 1.366 . S
C1476 C1478 1.388 . S
C1477 C1476 1.366 . S
C1477 C1481 1.385 . S
C1478 H1459 0.951 . S
C1478 C1476 1.388 . S
C1478 C1479 1.366 . S
C1479 C1478 1.366 . S
C1479 C1480 1.414 . S
C1479 C1482 1.499 . S
C1480 H1460 0.950 . S
C1480 C1479 1.414 . S
C1480 C1481 1.374 . S
C1481 H1461 0.950 . S
C1481 C1477 1.385 . S
C1481 C1480 1.374 . S
C1482 C1479 1.499 . S
C1482 C1483 1.373 . S
C1482 C1484 1.389 . S
C1483 H1462 0.950 . S
C1483 C1482 1.373 . S
C1483 C1499 1.377 . S
C1484 C1482 1.389 . S
C1484 C1485 1.524 . S
C1484 C1498 1.377 . S
C1485 C1484 1.524 . S
C1485 C1486 1.397 . S
C1485 C1490 1.363 . S
C1486 H1463 0.950 . S
C1486 C1485 1.397 . S
C1486 C1487 1.334 . S
C1487 H1464 0.950 . S
C1487 C1486 1.334 . S
C1487 C1488 1.287 . S
C1488 C1487 1.287 . S
C1488 C1489 1.524 . S
C1488 H1507 0.913 . S
C1489 H1465 0.950 . S
C1489 C1488 1.524 . S
C1489 C1490 1.415 . S
C1490 H1466 0.950 . S
C1490 C1485 1.363 . S
C1490 C1489 1.415 . S
C1491 H1467 0.951 . S
C1491 C1492 1.366 . S
C1491 C1493 1.388 1_556 S
C1492 C1491 1.366 . S
C1492 C1496 1.385 1_556 S
C1493 H1468 0.951 1_554 S
C1493 C1491 1.388 1_554 S
C1493 C1494 1.366 . S
C1494 C1493 1.366 . S
C1494 C1495 1.414 . S
C1494 C1497 1.499 . S
C1495 H1469 0.950 . S
C1495 C1494 1.414 . S
C1495 C1496 1.374 . S
C1496 H1470 0.950 . S
C1496 C1492 1.385 1_554 S
C1496 C1495 1.374 . S
C1497 C1494 1.499 . S
C1497 C1498 1.373 . S
C1497 C1499 1.389 . S
C1498 H1471 0.950 . S
C1498 C1484 1.377 . S
C1498 C1497 1.373 . S
C1499 C1483 1.377 . S
C1499 C1497 1.389 . S
C1499 C1500 1.524 . S
C1500 C1499 1.524 . S
C1500 C1501 1.397 . S
C1500 C1505 1.363 . S
C1501 H1472 0.950 . S
C1501 C1500 1.397 . S
C1501 C1502 1.334 . S
C1502 H1473 0.950 . S
C1502 C1501 1.334 . S
C1502 C1503 1.287 . S
C1503 C1502 1.287 . S
C1503 C1504 1.524 . S
C1503 H1506 0.999 . S
C1504 H1474 0.950 . S
C1504 C1503 1.524 . S
C1504 C1505 1.415 . S
C1505 H1475 0.950 . S
C1505 C1500 1.363 . S
C1505 C1504 1.415 . S
H1506 C1503 0.999 . S
H1507 C1488 0.913 . S
H1508 C1526 0.951 1_554 S
H1509 C1528 0.951 . S
H1510 C1530 0.950 . S
H1511 C1531 0.950 . S
H1512 C1533 0.950 . S
H1513 C1536 0.950 . S
H1514 C1537 0.950 . S
H1515 C1539 0.950 . S
H1516 C1540 0.950 . S
H1517 C1541 0.951 . S
H1518 C1543 0.951 . S
H1519 C1545 0.950 . S
H1520 C1546 0.950 . S
H1521 C1548 0.950 . S
H1522 C1551 0.950 . S
H1523 C1552 0.950 . S
H1524 C1554 0.950 . S
H1525 C1555 0.950 . S
C1526 H1508 0.951 1_556 S
C1526 C1527 1.366 1_556 S
C1526 C1528 1.388 . S
C1527 C1526 1.366 1_554 S
C1527 C1531 1.385 . S
C1528 H1509 0.951 . S
C1528 C1526 1.388 . S
C1528 C1529 1.366 . S
C1529 C1528 1.366 . S
C1529 C1530 1.414 . S
C1529 C1532 1.499 . S
C1530 H1510 0.950 . S
C1530 C1529 1.414 . S
C1530 C1531 1.374 1_556 S
C1531 H1511 0.950 . S
C1531 C1527 1.385 . S
C1531 C1530 1.374 1_554 S
C1532 C1529 1.499 . S
C1532 C1533 1.373 . S
C1532 C1534 1.389 . S
C1533 H1512 0.950 . S
C1533 C1532 1.373 . S
C1533 C1549 1.377 . S
C1534 C1532 1.389 . S
C1534 C1535 1.524 . S
C1534 C1548 1.377 . S
C1535 C1534 1.524 . S
C1535 C1536 1.397 1_556 S
C1535 C1540 1.363 . S
C1536 H1513 0.950 . S
C1536 C1535 1.397 1_554 S
C1536 C1537 1.334 . S
C1537 H1514 0.950 . S
C1537 C1536 1.334 . S
C1537 C1538 1.287 . S
C1538 C1537 1.287 . S
C1538 C1539 1.524 1_554 S
C1538 H1557 0.913 . S
C1539 H1515 0.950 . S
C1539 C1538 1.524 1_556 S
C1539 C1540 1.415 . S
C1540 H1516 0.950 . S
C1540 C1535 1.363 . S
C1540 C1539 1.415 . S
C1541 H1517 0.951 . S
C1541 C1542 1.366 . S
C1541 C1543 1.388 . S
C1542 C1541 1.366 . S
C1542 C1546 1.385 . S
C1543 H1518 0.951 . S
C1543 C1541 1.388 . S
C1543 C1544 1.366 . S
C1544 C1543 1.366 . S
C1544 C1545 1.414 . S
C1544 C1547 1.499 . S
C1545 H1519 0.950 . S
C1545 C1544 1.414 . S
C1545 C1546 1.374 . S
C1546 H1520 0.950 . S
C1546 C1542 1.385 . S
C1546 C1545 1.374 . S
C1547 C1544 1.499 . S
C1547 C1548 1.373 . S
C1547 C1549 1.389 . S
C1548 H1521 0.950 . S
C1548 C1534 1.377 . S
C1548 C1547 1.373 . S
C1549 C1533 1.377 . S
C1549 C1547 1.389 . S
C1549 C1550 1.524 . S
C1550 C1549 1.524 . S
C1550 C1551 1.397 . S
C1550 C1555 1.363 . S
C1551 H1522 0.950 . S
C1551 C1550 1.397 . S
C1551 C1552 1.334 . S
C1552 H1523 0.950 . S
C1552 C1551 1.334 . S
C1552 C1553 1.287 . S
C1553 C1552 1.287 . S
C1553 C1554 1.524 . S
C1553 H1556 0.999 . S
C1554 H1524 0.950 . S
C1554 C1553 1.524 . S
C1554 C1555 1.415 . S
C1555 H1525 0.950 . S
C1555 C1550 1.363 . S
C1555 C1554 1.415 . S
H1556 C1553 0.999 . S
H1557 C1538 0.913 . S
H1558 C1576 0.951 . S
H1559 C1578 0.951 . S
H1560 C1580 0.950 . S
H1561 C1581 0.950 . S
H1562 C1583 0.950 . S
H1563 C1586 0.950 . S
H1564 C1587 0.950 . S
H1565 C1589 0.950 . S
H1566 C1590 0.950 . S
H1567 C1591 0.951 . S
H1568 C1593 0.951 . S
H1569 C1595 0.950 . S
H1570 C1596 0.950 . S
H1571 C1598 0.950 . S
H1572 C1601 0.950 . S
H1573 C1602 0.950 . S
H1574 C1604 0.939 1_556 S
H1575 C1605 0.950 . S
C1576 H1558 0.951 . S
C1576 C1577 1.366 . S
C1576 C1578 1.388 . S
C1577 C1576 1.366 . S
C1577 C1581 1.385 . S
C1578 H1559 0.951 . S
C1578 C1576 1.388 . S
C1578 C1579 1.366 . S
C1579 C1578 1.366 . S
C1579 C1580 1.414 . S
C1579 C1582 1.499 . S
C1580 H1560 0.950 . S
C1580 C1579 1.414 . S
C1580 C1581 1.374 . S
C1581 H1561 0.950 . S
C1581 C1577 1.385 . S
C1581 C1580 1.374 . S
C1582 C1579 1.499 . S
C1582 C1583 1.373 . S
C1582 C1584 1.389 . S
C1583 H1562 0.950 . S
C1583 C1582 1.373 . S
C1583 C1599 1.377 . S
C1584 C1582 1.389 . S
C1584 C1585 1.524 . S
C1584 C1598 1.377 . S
C1585 C1584 1.524 . S
C1585 C1586 1.397 . S
C1585 C1590 1.363 . S
C1586 H1563 0.950 . S
C1586 C1585 1.397 . S
C1586 C1587 1.334 . S
C1587 H1564 0.950 . S
C1587 C1586 1.334 . S
C1587 C1588 1.287 . S
C1588 C1587 1.287 . S
C1588 C1589 1.524 . S
C1588 H1607 0.913 . S
C1589 H1565 0.950 . S
C1589 C1588 1.524 . S
C1589 C1590 1.415 . S
C1590 H1566 0.950 . S
C1590 C1585 1.363 . S
C1590 C1589 1.415 . S
C1591 H1567 0.951 . S
C1591 C1592 1.366 . S
C1591 C1593 1.388 . S
C1592 C1591 1.366 . S
C1592 C1596 1.385 1_556 S
C1593 H1568 0.951 . S
C1593 C1591 1.388 . S
C1593 C1594 1.366 1_556 S
C1594 C1593 1.366 1_554 S
C1594 C1595 1.414 . S
C1594 C1597 1.499 . S
C1595 H1569 0.950 . S
C1595 C1594 1.414 . S
C1595 C1596 1.374 . S
C1596 H1570 0.950 . S
C1596 C1592 1.385 1_554 S
C1596 C1595 1.374 . S
C1597 C1594 1.499 . S
C1597 C1598 1.373 . S
C1597 C1599 1.389 . S
C1598 H1571 0.950 . S
C1598 C1584 1.377 . S
C1598 C1597 1.373 . S
C1599 C1583 1.377 . S
C1599 C1597 1.389 . S
C1599 C1600 1.524 . S
C1600 C1599 1.524 . S
C1600 C1601 1.397 . S
C1600 C1605 1.363 . S
C1601 H1572 0.950 . S
C1601 C1600 1.397 . S
C1601 C1602 1.334 . S
C1602 H1573 0.950 . S
C1602 C1601 1.334 . S
C1602 C1603 1.287 . S
C1603 C1602 1.287 . S
C1603 C1604 1.524 . S
C1603 H1606 0.999 . S
C1604 H1574 0.939 1_554 S
C1604 C1603 1.524 . S
C1604 C1605 1.415 . S
C1605 H1575 0.950 . S
C1605 C1600 1.363 . S
C1605 C1604 1.415 . S
H1606 C1603 0.999 . S
H1607 C1588 0.913 . S
H1608 C1626 0.951 . S
H1609 C1628 0.951 . S
H1610 C1630 0.950 . S
H1611 C1631 0.950 . S
H1612 C1633 0.950 . S
H1613 C1636 0.950 . S
H1614 C1637 0.950 . S
H1615 C1639 0.950 . S
H1616 C1640 0.950 . S
H1617 C1641 0.951 . S
H1618 C1643 0.951 . S
H1619 C1645 0.950 . S
H1620 C1646 0.950 . S
H1621 C1648 0.950 . S
H1622 C1651 0.950 . S
H1623 C1652 0.950 . S
H1624 C1654 0.950 . S
H1625 C1655 0.950 . S
C1626 H1608 0.951 . S
C1626 C1627 1.366 . S
C1626 C1628 1.388 . S
C1627 C1626 1.366 . S
C1627 C1631 1.385 . S
C1628 H1609 0.951 . S
C1628 C1626 1.388 . S
C1628 C1629 1.366 . S
C1629 C1628 1.366 . S
C1629 C1630 1.414 . S
C1629 C1632 1.499 . S
C1630 H1610 0.950 . S
C1630 C1629 1.414 . S
C1630 C1631 1.374 . S
C1631 H1611 0.950 . S
C1631 C1627 1.385 . S
C1631 C1630 1.374 . S
C1632 C1629 1.499 . S
C1632 C1633 1.373 . S
C1632 C1634 1.389 . S
C1633 H1612 0.950 . S
C1633 C1632 1.373 . S
C1633 C1649 1.377 . S
C1634 C1632 1.389 . S
C1634 C1635 1.524 . S
C1634 C1648 1.377 . S
C1635 C1634 1.524 . S
C1635 C1636 1.397 . S
C1635 C1640 1.363 . S
C1636 H1613 0.950 . S
C1636 C1635 1.397 . S
C1636 C1637 1.334 . S
C1637 H1614 0.950 . S
C1637 C1636 1.334 . S
C1637 C1638 1.287 . S
C1638 C1637 1.287 . S
C1638 C1639 1.524 . S
C1638 H1657 0.913 . S
C1639 H1615 0.950 . S
C1639 C1638 1.524 . S
C1639 C1640 1.415 . S
C1640 H1616 0.950 . S
C1640 C1635 1.363 . S
C1640 C1639 1.415 . S
C1641 H1617 0.951 . S
C1641 C1642 1.366 . S
C1641 C1643 1.388 . S
C1642 C1641 1.366 . S
C1642 C1646 1.385 . S
C1643 H1618 0.951 . S
C1643 C1641 1.388 . S
C1643 C1644 1.366 . S
C1644 C1643 1.366 . S
C1644 C1645 1.414 . S
C1644 C1647 1.499 . S
C1645 H1619 0.950 . S
C1645 C1644 1.414 . S
C1645 C1646 1.374 . S
C1646 H1620 0.950 . S
C1646 C1642 1.385 . S
C1646 C1645 1.374 . S
C1647 C1644 1.499 . S
C1647 C1648 1.373 . S
C1647 C1649 1.389 . S
C1648 H1621 0.950 . S
C1648 C1634 1.377 . S
C1648 C1647 1.373 . S
C1649 C1633 1.377 . S
C1649 C1647 1.389 . S
C1649 C1650 1.524 . S
C1650 C1649 1.524 . S
C1650 C1651 1.397 . S
C1650 C1655 1.363 . S
C1651 H1622 0.950 . S
C1651 C1650 1.397 . S
C1651 C1652 1.334 . S
C1652 H1623 0.950 . S
C1652 C1651 1.334 . S
C1652 C1653 1.287 . S
C1653 C1652 1.287 . S
C1653 C1654 1.524 . S
C1653 H1656 0.999 . S
C1654 H1624 0.950 . S
C1654 C1653 1.524 . S
C1654 C1655 1.415 . S
C1655 H1625 0.950 . S
C1655 C1650 1.363 . S
C1655 C1654 1.415 . S
H1656 C1653 0.999 . S
H1657 C1638 0.913 . S
H1658 C1676 0.951 . S
H1659 C1678 0.951 . S
H1660 C1680 0.950 . S
H1661 C1681 0.950 . S
H1662 C1683 0.950 . S
H1663 C1686 0.950 . S
H1664 C1687 0.950 . S
H1665 C1689 0.950 . S
H1666 C1690 0.950 . S
H1667 C1691 0.951 . S
H1668 C1693 0.951 . S
H1669 C1695 0.950 . S
H1670 C1696 0.950 . S
H1671 C1698 0.950 . S
H1672 C1701 0.950 . S
H1673 C1702 0.950 . S
H1674 C1704 0.950 . S
H1675 C1705 0.950 . S
C1676 H1658 0.951 . S
C1676 C1677 1.366 . S
C1676 C1678 1.388 . S
C1677 C1676 1.366 . S
C1677 C1681 1.385 . S
C1678 H1659 0.951 . S
C1678 C1676 1.388 . S
C1678 C1679 1.366 . S
C1679 C1678 1.366 . S
C1679 C1680 1.414 . S
C1679 C1682 1.499 . S
C1680 H1660 0.950 . S
C1680 C1679 1.414 . S
C1680 C1681 1.374 . S
C1681 H1661 0.950 . S
C1681 C1677 1.385 . S
C1681 C1680 1.374 . S
C1682 C1679 1.499 . S
C1682 C1683 1.373 . S
C1682 C1684 1.389 . S
C1683 H1662 0.950 . S
C1683 C1682 1.373 . S
C1683 C1699 1.377 . S
C1684 C1682 1.389 . S
C1684 C1685 1.524 . S
C1684 C1698 1.377 . S
C1685 C1684 1.524 . S
C1685 C1686 1.397 . S
C1685 C1690 1.363 . S
C1686 H1663 0.950 . S
C1686 C1685 1.397 . S
C1686 C1687 1.334 . S
C1687 H1664 0.950 . S
C1687 C1686 1.334 . S
C1687 C1688 1.287 . S
C1688 C1687 1.287 . S
C1688 C1689 1.524 . S
C1688 H1707 0.913 . S
C1689 H1665 0.950 . S
C1689 C1688 1.524 . S
C1689 C1690 1.415 . S
C1690 H1666 0.950 . S
C1690 C1685 1.363 . S
C1690 C1689 1.415 . S
C1691 H1667 0.951 . S
C1691 C1692 1.366 . S
C1691 C1693 1.388 . S
C1692 C1691 1.366 . S
C1692 C1696 1.385 . S
C1693 H1668 0.951 . S
C1693 C1691 1.388 . S
C1693 C1694 1.366 . S
C1694 C1693 1.366 . S
C1694 C1695 1.414 . S
C1694 C1697 1.499 . S
C1695 H1669 0.950 . S
C1695 C1694 1.414 . S
C1695 C1696 1.374 . S
C1696 H1670 0.950 . S
C1696 C1692 1.385 . S
C1696 C1695 1.374 . S
C1697 C1694 1.499 . S
C1697 C1698 1.373 . S
C1697 C1699 1.389 . S
C1698 H1671 0.950 . S
C1698 C1684 1.377 . S
C1698 C1697 1.373 . S
C1699 C1683 1.377 . S
C1699 C1697 1.389 . S
C1699 C1700 1.524 . S
C1700 C1699 1.524 . S
C1700 C1701 1.397 . S
C1700 C1705 1.363 . S
C1701 H1672 0.950 . S
C1701 C1700 1.397 . S
C1701 C1702 1.334 . S
C1702 H1673 0.950 . S
C1702 C1701 1.334 . S
C1702 C1703 1.287 . S
C1703 C1702 1.287 . S
C1703 C1704 1.524 . S
C1703 H1706 0.999 . S
C1704 H1674 0.950 . S
C1704 C1703 1.524 . S
C1704 C1705 1.415 . S
C1705 H1675 0.950 . S
C1705 C1700 1.363 . S
C1705 C1704 1.415 . S
H1706 C1703 0.999 . S
H1707 C1688 0.913 . S
H1708 C1726 0.951 . S
H1709 C1728 0.951 . S
H1710 C1730 0.950 . S
H1711 C1731 0.950 . S
H1712 C1733 0.950 . S
H1713 C1736 0.950 . S
H1714 C1737 0.950 . S
H1715 C1739 0.950 . S
H1716 C1740 0.950 . S
H1717 C1741 0.951 . S
H1718 C1743 0.951 . S
H1719 C1745 0.950 . S
H1720 C1746 0.950 . S
H1721 C1748 0.950 . S
H1722 C1751 0.950 . S
H1723 C1752 0.950 . S
H1724 C1754 0.950 . S
H1725 C1755 0.950 . S
C1726 H1708 0.951 . S
C1726 C1727 1.366 . S
C1726 C1728 1.388 . S
C1727 C1726 1.366 . S
C1727 C1731 1.385 . S
C1728 H1709 0.951 . S
C1728 C1726 1.388 . S
C1728 C1729 1.366 . S
C1729 C1728 1.366 . S
C1729 C1730 1.414 . S
C1729 C1732 1.499 . S
C1730 H1710 0.950 . S
C1730 C1729 1.414 . S
C1730 C1731 1.374 . S
C1731 H1711 0.950 . S
C1731 C1727 1.385 . S
C1731 C1730 1.374 . S
C1732 C1729 1.499 . S
C1732 C1733 1.373 . S
C1732 C1734 1.389 . S
C1733 H1712 0.950 . S
C1733 C1732 1.373 . S
C1733 C1749 1.377 . S
C1734 C1732 1.389 . S
C1734 C1735 1.524 . S
C1734 C1748 1.377 . S
C1735 C1734 1.524 . S
C1735 C1736 1.397 . S
C1735 C1740 1.363 . S
C1736 H1713 0.950 . S
C1736 C1735 1.397 . S
C1736 C1737 1.334 . S
C1737 H1714 0.950 . S
C1737 C1736 1.334 . S
C1737 C1738 1.287 . S
C1738 C1737 1.287 . S
C1738 C1739 1.524 . S
C1738 H1757 0.913 . S
C1739 H1715 0.950 . S
C1739 C1738 1.524 . S
C1739 C1740 1.415 . S
C1740 H1716 0.950 . S
C1740 C1735 1.363 . S
C1740 C1739 1.415 . S
C1741 H1717 0.951 . S
C1741 C1742 1.366 . S
C1741 C1743 1.388 . S
C1742 C1741 1.366 . S
C1742 C1746 1.385 . S
C1743 H1718 0.951 . S
C1743 C1741 1.388 . S
C1743 C1744 1.366 . S
C1744 C1743 1.366 . S
C1744 C1745 1.414 . S
C1744 C1747 1.499 . S
C1745 H1719 0.950 . S
C1745 C1744 1.414 . S
C1745 C1746 1.374 . S
C1746 H1720 0.950 . S
C1746 C1742 1.385 . S
C1746 C1745 1.374 . S
C1747 C1744 1.499 . S
C1747 C1748 1.373 . S
C1747 C1749 1.389 . S
C1748 H1721 0.950 . S
C1748 C1734 1.377 . S
C1748 C1747 1.373 . S
C1749 C1733 1.377 . S
C1749 C1747 1.389 . S
C1749 C1750 1.524 . S
C1750 C1749 1.524 . S
C1750 C1751 1.397 . S
C1750 C1755 1.363 . S
C1751 H1722 0.950 . S
C1751 C1750 1.397 . S
C1751 C1752 1.334 . S
C1752 H1723 0.950 . S
C1752 C1751 1.334 . S
C1752 C1753 1.287 . S
C1753 C1752 1.287 . S
C1753 C1754 1.524 . S
C1753 H1756 0.999 . S
C1754 H1724 0.950 . S
C1754 C1753 1.524 . S
C1754 C1755 1.415 . S
C1755 H1725 0.950 . S
C1755 C1750 1.363 . S
C1755 C1754 1.415 . S
H1756 C1753 0.999 . S
H1757 C1738 0.913 . S
H1758 C1776 0.951 . S
H1759 C1778 0.951 . S
H1760 C1780 0.950 . S
H1761 C1781 0.950 . S
H1762 C1783 0.950 . S
H1763 C1786 0.950 . S
H1764 C1787 0.950 . S
H1765 C1789 0.950 . S
H1766 C1790 0.950 . S
H1767 C1791 0.951 . S
H1768 C1793 0.951 . S
H1769 C1795 0.950 . S
H1770 C1796 0.950 . S
H1771 C1798 0.950 . S
H1772 C1801 0.950 . S
H1773 C1802 0.950 . S
H1774 C1804 0.950 . S
H1775 C1805 0.950 . S
C1776 H1758 0.951 . S
C1776 C1777 1.366 . S
C1776 C1778 1.388 . S
C1777 C1776 1.366 . S
C1777 C1781 1.385 . S
C1778 H1759 0.951 . S
C1778 C1776 1.388 . S
C1778 C1779 1.366 . S
C1779 C1778 1.366 . S
C1779 C1780 1.414 . S
C1779 C1782 1.499 . S
C1780 H1760 0.950 . S
C1780 C1779 1.414 . S
C1780 C1781 1.374 . S
C1781 H1761 0.950 . S
C1781 C1777 1.385 . S
C1781 C1780 1.374 . S
C1782 C1779 1.499 . S
C1782 C1783 1.373 . S
C1782 C1784 1.389 . S
C1783 H1762 0.950 . S
C1783 C1782 1.373 . S
C1783 C1799 1.377 . S
C1784 C1782 1.389 . S
C1784 C1785 1.524 . S
C1784 C1798 1.377 . S
C1785 C1784 1.524 . S
C1785 C1786 1.397 . S
C1785 C1790 1.363 . S
C1786 H1763 0.950 . S
C1786 C1785 1.397 . S
C1786 C1787 1.334 . S
C1787 H1764 0.950 . S
C1787 C1786 1.334 . S
C1787 C1788 1.287 . S
C1788 C1787 1.287 . S
C1788 C1789 1.524 . S
C1788 H1807 0.913 . S
C1789 H1765 0.950 . S
C1789 C1788 1.524 . S
C1789 C1790 1.415 . S
C1790 H1766 0.950 . S
C1790 C1785 1.363 . S
C1790 C1789 1.415 . S
C1791 H1767 0.951 . S
C1791 C1792 1.366 . S
C1791 C1793 1.388 . S
C1792 C1791 1.366 . S
C1792 C1796 1.385 . S
C1793 H1768 0.951 . S
C1793 C1791 1.388 . S
C1793 C1794 1.366 . S
C1794 C1793 1.366 . S
C1794 C1795 1.414 . S
C1794 C1797 1.499 . S
C1795 H1769 0.950 . S
C1795 C1794 1.414 . S
C1795 C1796 1.374 . S
C1796 H1770 0.950 . S
C1796 C1792 1.385 . S
C1796 C1795 1.374 . S
C1797 C1794 1.499 . S
C1797 C1798 1.373 . S
C1797 C1799 1.389 . S
C1798 H1771 0.950 . S
C1798 C1784 1.377 . S
C1798 C1797 1.373 . S
C1799 C1783 1.377 . S
C1799 C1797 1.389 . S
C1799 C1800 1.524 . S
C1800 C1799 1.524 . S
C1800 C1801 1.397 . S
C1800 C1805 1.363 . S
C1801 H1772 0.950 . S
C1801 C1800 1.397 . S
C1801 C1802 1.334 . S
C1802 H1773 0.950 . S
C1802 C1801 1.334 . S
C1802 C1803 1.287 . S
C1803 C1802 1.287 . S
C1803 C1804 1.524 . S
C1803 H1806 0.999 . S
C1804 H1774 0.950 . S
C1804 C1803 1.524 . S
C1804 C1805 1.415 . S
C1805 H1775 0.950 . S
C1805 C1800 1.363 . S
C1805 C1804 1.415 . S
H1806 C1803 0.999 . S
H1807 C1788 0.913 . S
C227 C148 1.316 . S
C242 C5 1.299 . S
C277 C18 1.298 . S
C292 C107 1.316 . S
C327 C29 1.298 . S
C342 C122 1.316 . S
C377 C135 1.316 . S
C392 C42 1.298 . S
C427 C55 1.298 . S
C442 C70 1.316 . S
C477 C68 1.299 . S
C492 C83 1.316 . S
C527 C96 1.316 . S
C542 C81 1.299 . S
C577 C57 1.316 . S
C592 C94 1.299 . S
C627 C44 1.316 . S
C642 C109 1.299 . S
C677 C120 1.299 . S
C692 C3 1.316 . S
C727 C16 1.316 . S
C742 C133 1.299 . S
C777 C146 1.298 . S
C792 C31 1.316 . S
C827 C161 1.299 . S
C842 C172 1.316 . S
C877 C174 1.298 . S
C892 C185 1.316 . S
C927 C200 1.316 . S
C942 C187 1.299 . S
C977 C159 1.317 . S
C992 C198 1.299 . S
C1027 C62 0.941 . S
C1042 C4 0.942 . S
C1077 C17 0.941 . S
C1092 C75 0.942 . S
C1127 C36 0.940 . S
C1142 C88 0.940 . S
C1177 C101 0.940 . S
C1192 C49 0.941 . S
C1227 C108 0.941 . S
C1242 C160 0.941 . S
C1277 C173 0.940 . S
C1292 C127 0.941 . S
C1327 C140 0.942 . S
C1342 C186 0.942 . S
C1377 C205 0.941 . S
C1392 C153 0.942 . S
C1427 C192 1.573 . S
C1442 C10 1.573 . S
C1477 C199 1.573 . S
C1492 C23 1.573 . S
C1527 C30 1.573 . S
C1542 C166 1.573 . S
C1577 C179 1.573 . S
C1592 C43 1.573 . S
C1627 C134 1.572 . S
C1642 C56 1.572 . S
C1677 C147 1.572 . S
C1692 C69 1.572 . S
C1727 C82 1.572 . S
C1742 C114 1.572 . S
C1777 C121 1.572 . S
C1792 C95 1.572 . S
