# Generated by pormake.
# Topology uog, (4)-cn, num edge types: 1
# Building blocks:
#     Node 0, Type 0, BuildingBlock: ESEHIV_clean_sbu_0, # of connection points: 4
#     Node 1, Type 0, BuildingBlock: ESEHIV_clean_sbu_0, # of connection points: 4
#     Node 2, Type 0, BuildingBlock: ESEHIV_clean_sbu_0, # of connection points: 4
#     Node 3, Type 0, BuildingBlock: ESEHIV_clean_sbu_0, # of connection points: 4
#     Node 4, Type 0, BuildingBlock: ESEHIV_clean_sbu_0, # of connection points: 4
#     Node 5, Type 0, BuildingBlock: ESEHIV_clean_sbu_0, # of connection points: 4
#     Edge 6, Type (0, 0), BuildingBlock: TEMPAE_clean_linker_10, # of connection points: 2
#     Edge 7, Type (0, 0), BuildingBlock: TEMPAE_clean_linker_10, # of connection points: 2
#     Edge 8, Type (0, 0), BuildingBlock: TEMPAE_clean_linker_10, # of connection points: 2
#     Edge 9, Type (0, 0), BuildingBlock: TEMPAE_clean_linker_10, # of connection points: 2
#     Edge 10, Type (0, 0), BuildingBlock: TEMPAE_clean_linker_10, # of connection points: 2
#     Edge 11, Type (0, 0), BuildingBlock: TEMPAE_clean_linker_10, # of connection points: 2
#     Edge 12, Type (0, 0), BuildingBlock: TEMPAE_clean_linker_10, # of connection points: 2
#     Edge 13, Type (0, 0), BuildingBlock: TEMPAE_clean_linker_10, # of connection points: 2
#     Edge 14, Type (0, 0), BuildingBlock: TEMPAE_clean_linker_10, # of connection points: 2
#     Edge 15, Type (0, 0), BuildingBlock: TEMPAE_clean_linker_10, # of connection points: 2
#     Edge 16, Type (0, 0), BuildingBlock: TEMPAE_clean_linker_10, # of connection points: 2
#     Edge 17, Type (0, 0), BuildingBlock: TEMPAE_clean_linker_10, # of connection points: 2
# Relax obj value: 0.017
# Max RMSD: 0.205
# Mean RMSD: 0.149
data_MOF--net-uog--node1-ESEHIV_clean_sbu_0--edge1-TEMPAE_clean_linker_10
_symmetry_space_group_name_H-M    P1
_symmetry_Int_Tables_number       1
_symmetry_cell_setting            triclinic
loop_
_symmetry_equiv_pos_as_xyz
'x, y, z'
_cell_length_a     29.131499
_cell_length_b     34.652272
_cell_length_c     45.118811
_cell_angle_alpha  90.028381
_cell_angle_beta   90.007586
_cell_angle_gamma 114.75949
loop_
_atom_site_label
_atom_site_type_symbol
_atom_site_fract_x
_atom_site_fract_y
_atom_site_fract_z
_atom_type_partial_charge
Cu0 Cu 0.57473 0.28169 0.17305 0.0
N1 N 0.53521 0.31189 0.16802 0.0
N2 N 0.51497 0.36741 0.16812 0.0
C3 C 0.54352 0.34949 0.18058 0.0
C4 C 0.48709 0.33952 0.14722 0.0
C5 C 0.49988 0.30549 0.1471 0.0
O6 O 0.60814 0.29597 0.21132 0.0
C7 C 0.63215 0.32531 0.12274 0.0
O8 O 0.62094 0.35652 0.13139 0.0
H9 H 0.57197 0.3644 0.19736 0.0
H10 H 0.487 0.27944 0.13146 0.0
N11 N 0.53428 0.22341 0.17328 0.0
N12 N 0.5137 0.15369 0.17367 0.0
C13 C 0.55134 0.19302 0.17611 0.0
C14 C 0.48404 0.20263 0.16914 0.0
C15 C 0.47125 0.15952 0.16922 0.0
C16 C 0.64431 0.33101 0.21852 0.0
O17 O 0.66488 0.36058 0.19832 0.0
H18 H 0.59085 0.19969 0.17903 0.0
H19 H 0.45851 0.21764 0.166 0.0
O20 O 0.61975 0.29249 0.13908 0.0
H21 H 0.46208 0.34475 0.13159 0.0
H22 H 0.43372 0.13444 0.16629 0.0
Cu23 Cu 0.32596 0.59937 0.51645 0.0
N24 N 0.33712 0.63299 0.48246 0.0
N25 N 0.34553 0.65455 0.43528 0.0
C26 C 0.34375 0.62368 0.45419 0.0
C27 C 0.33979 0.68422 0.45233 0.0
C28 C 0.33446 0.67078 0.48132 0.0
O29 O 0.36339 0.56346 0.51329 0.0
C30 C 0.22252 0.54658 0.53867 0.0
O31 O 0.24164 0.53241 0.56021 0.0
H32 H 0.3457 0.59438 0.44755 0.0
H33 H 0.32802 0.68701 0.50026 0.0
N34 N 0.3532 0.63595 0.54869 0.0
N35 N 0.36918 0.66441 0.59418 0.0
C36 C 0.33814 0.63152 0.57726 0.0
C37 C 0.39493 0.67275 0.54755 0.0
C38 C 0.4048 0.69037 0.57542 0.0
C39 C 0.40914 0.58148 0.50418 0.0
O40 O 0.42726 0.62163 0.49635 0.0
H41 H 0.30565 0.60455 0.58553 0.0
H42 H 0.41672 0.68593 0.52773 0.0
O43 O 0.25184 0.5715 0.51927 0.0
H44 H 0.33948 0.7136 0.44442 0.0
H45 H 0.43543 0.72043 0.58125 0.0
Cu46 Cu 0.75451 0.27983 0.85929 0.0
N47 N 0.73566 0.22163 0.86343 0.0
N48 N 0.6874 0.15164 0.86427 0.0
C49 C 0.69009 0.19041 0.85707 0.0
C50 C 0.73336 0.15901 0.87546 0.0
C51 C 0.76294 0.20217 0.87498 0.0
O52 O 0.73641 0.3011 0.8952 0.0
C53 C 0.73128 0.32643 0.81449 0.0
O54 O 0.75286 0.35894 0.83243 0.0
H55 H 0.65904 0.19633 0.84834 0.0
H56 H 0.80132 0.2183 0.88299 0.0
N57 N 0.82421 0.30859 0.8553 0.0
N58 N 0.90024 0.36337 0.85414 0.0
C59 C 0.85104 0.34996 0.86148 0.0
C60 C 0.85732 0.29504 0.84362 0.0
C61 C 0.90437 0.32878 0.84295 0.0
C62 C 0.69344 0.28367 0.90768 0.0
O63 O 0.65673 0.25205 0.89432 0.0
H64 H 0.83412 0.37015 0.87005 0.0
H65 H 0.8477 0.26322 0.83549 0.0
O66 O 0.7251 0.2896 0.82307 0.0
H67 H 0.74489 0.13506 0.88362 0.0
H68 H 0.9387 0.3279 0.83454 0.0
Cu69 Cu 0.49427 0.75204 0.17297 0.0
N70 N 0.53492 0.72309 0.16684 0.0
N71 N 0.55729 0.66883 0.16502 0.0
C72 C 0.52693 0.68468 0.17781 0.0
C73 C 0.58593 0.69881 0.14552 0.0
C74 C 0.57186 0.7321 0.1466 0.0
O75 O 0.46163 0.73622 0.2113 0.0
C76 C 0.43528 0.70807 0.12328 0.0
O77 O 0.44673 0.67693 0.13177 0.0
H78 H 0.49674 0.6673 0.19312 0.0
H79 H 0.5855 0.75975 0.13238 0.0
N80 N 0.53355 0.81052 0.17383 0.0
N81 N 0.55287 0.88003 0.17436 0.0
C82 C 0.51551 0.84042 0.17554 0.0
C83 C 0.58411 0.83193 0.17178 0.0
C84 C 0.59613 0.8749 0.17191 0.0
C85 C 0.42526 0.70105 0.21798 0.0
O86 O 0.40416 0.67241 0.19725 0.0
H87 H 0.47564 0.83321 0.17689 0.0
H88 H 0.61042 0.81743 0.17018 0.0
O89 O 0.44839 0.74113 0.13945 0.0
H90 H 0.61364 0.69619 0.13065 0.0
H91 H 0.6337 0.90038 0.17053 0.0
Cu92 Cu 0.74469 0.43148 0.51696 0.0
N93 N 0.73241 0.39678 0.48341 0.0
N94 N 0.72287 0.37438 0.43638 0.0
C95 C 0.72511 0.40558 0.45513 0.0
C96 C 0.72899 0.345 0.45354 0.0
C97 C 0.73497 0.35894 0.48245 0.0
O98 O 0.70722 0.46732 0.51335 0.0
C99 C 0.84844 0.48545 0.53804 0.0
O100 O 0.82955 0.50087 0.55896 0.0
H101 H 0.72312 0.4348 0.44836 0.0
H102 H 0.74188 0.34307 0.50144 0.0
N103 N 0.71837 0.39644 0.55003 0.0
N104 N 0.70196 0.37229 0.59656 0.0
C105 C 0.73348 0.40328 0.57858 0.0
C106 C 0.67624 0.35983 0.55005 0.0
C107 C 0.66599 0.34491 0.57864 0.0
C108 C 0.66099 0.44859 0.50517 0.0
O109 O 0.64269 0.40797 0.49859 0.0
H110 H 0.76584 0.43096 0.58619 0.0
H111 H 0.65396 0.34533 0.53061 0.0
O112 O 0.81888 0.45938 0.51923 0.0
H113 H 0.72924 0.31554 0.44573 0.0
H114 H 0.63453 0.31612 0.58572 0.0
Cu115 Cu 0.30516 0.74885 0.86065 0.0
N116 N 0.32558 0.80749 0.86369 0.0
N117 N 0.37535 0.87721 0.8642 0.0
C118 C 0.37173 0.838 0.85749 0.0
C119 C 0.32941 0.87088 0.87488 0.0
C120 C 0.29895 0.82791 0.87465 0.0
O121 O 0.32299 0.72881 0.89711 0.0
C122 C 0.32552 0.75044 0.80092 0.0
O123 O 0.30291 0.77622 0.80184 0.0
H124 H 0.4025 0.83124 0.8493 0.0
H125 H 0.26048 0.81257 0.8826 0.0
N126 N 0.23532 0.7205 0.8571 0.0
N127 N 0.15949 0.66552 0.8557 0.0
C128 C 0.20901 0.67874 0.86214 0.0
C129 C 0.20157 0.73445 0.84696 0.0
C130 C 0.15462 0.70058 0.84615 0.0
C131 C 0.36668 0.74535 0.90882 0.0
O132 O 0.40386 0.77513 0.89441 0.0
H133 H 0.22651 0.65824 0.86924 0.0
H134 H 0.21061 0.76664 0.83989 0.0
O135 O 0.33313 0.7352 0.82516 0.0
H136 H 0.31851 0.8954 0.88262 0.0
H137 H 0.11985 0.7017 0.83881 0.0
C138 C 0.55326 0.10871 0.19364 0.0
C139 C 0.51842 0.11397 0.17449 0.0
C140 C 0.55878 0.07037 0.19442 0.0
C141 C 0.52941 0.03679 0.17517 0.0
C142 C 0.49427 0.042 0.15571 0.0
C143 C 0.48886 0.08041 0.15582 0.0
C144 C 0.59595 0.06577 0.21588 0.0
C145 C 0.46293 1.00725 0.13447 0.0
C146 C 0.57855 0.95367 0.15719 0.0
C147 C 0.54743 0.91944 0.17484 0.0
C148 C 0.57285 0.99195 0.15691 0.0
C149 C 0.53579 0.99634 0.17518 0.0
C150 C 0.50471 0.96202 0.19336 0.0
C151 C 0.51058 0.92383 0.19273 0.0
C152 C 0.60608 0.0275 0.1368 0.0
C153 C 0.46545 0.96574 0.21358 0.0
H154 H 0.57572 0.1345 0.2083 0.0
H155 H 0.46237 0.08465 0.14077 0.0
H156 H 0.57628 0.03791 0.23048 0.0
H157 H 0.62539 0.05996 0.20356 0.0
H158 H 0.61479 0.09444 0.22997 0.0
H159 H 0.4376 1.01647 0.12062 0.0
H160 H 0.4881 0.99928 0.11963 0.0
H161 H 0.43949 0.97799 0.14692 0.0
H162 H 0.60663 0.9501 0.1431 0.0
H163 H 0.48689 0.8975 0.20661 0.0
H164 H 0.62842 0.05622 0.15008 0.0
H165 H 0.5823 0.03613 0.1213 0.0
H166 H 0.63256 0.01877 0.12365 0.0
H167 H 0.48365 0.99292 0.22896 0.0
H168 H 0.44519 0.93647 0.22684 0.0
H169 H 0.43734 0.97218 0.20034 0.0
C170 C 0.48543 0.57462 0.48427 0.0
C171 C 0.44348 0.55948 0.50336 0.0
C172 C 0.52127 0.55728 0.48439 0.0
C173 C 0.51592 0.52435 0.50454 0.0
C174 C 0.47345 0.50865 0.52379 0.0
C175 C 0.43746 0.52609 0.52277 0.0
C176 C 0.56499 0.57431 0.4629 0.0
C177 C 0.46652 0.47392 0.54584 0.0
C178 C 0.58233 0.4528 0.48665 0.0
C179 C 0.62638 0.47035 0.50401 0.0
C180 C 0.54646 0.47011 0.48656 0.0
C181 C 0.55404 0.50563 0.50468 0.0
C182 C 0.59861 0.52378 0.52217 0.0
C183 C 0.63447 0.50618 0.52142 0.0
C184 C 0.50034 0.45026 0.46701 0.0
C185 C 0.60799 0.56139 0.54202 0.0
H186 H 0.49034 0.60029 0.46908 0.0
H187 H 0.40552 0.51454 0.53781 0.0
H188 H 0.60126 0.58772 0.47523 0.0
H189 H 0.56527 0.54813 0.44884 0.0
H190 H 0.56324 0.59942 0.44825 0.0
H191 H 0.43216 0.46574 0.55967 0.0
H192 H 0.46365 0.44489 0.53406 0.0
H193 H 0.49998 0.48401 0.56063 0.0
H194 H 0.57576 0.42523 0.47299 0.0
H195 H 0.66807 0.51969 0.53512 0.0
H196 H 0.49837 0.4744 0.45153 0.0
H197 H 0.46559 0.4387 0.48074 0.0
H198 H 0.50041 0.42319 0.45383 0.0
H199 H 0.60949 0.58871 0.5286 0.0
H200 H 0.64386 0.57134 0.55467 0.0
H201 H 0.57629 0.55344 0.55793 0.0
C202 C 0.98067 0.42026 0.83679 0.0
C203 C 0.93878 0.40637 0.85585 0.0
C204 C 1.01705 0.46256 0.8373 0.0
C205 C 1.01126 0.49178 0.85722 0.0
C206 C 0.9695 0.47793 0.87678 0.0
C207 C 0.93397 0.4354 0.87597 0.0
C208 C 0.06134 0.47613 0.81624 0.0
C209 C 0.96203 0.50817 0.89834 0.0
C210 C 0.12687 0.59265 0.87593 0.0
C211 C 0.12114 0.62241 0.85692 0.0
C212 C 0.09138 0.55009 0.87631 0.0
C213 C 0.04874 0.53696 0.85745 0.0
C214 C 0.04207 0.5669 0.83863 0.0
C215 C 0.07841 0.60923 0.83854 0.0
C216 C 0.0998 0.51908 0.89669 0.0
C217 C 0.99686 0.5541 0.81833 0.0
H218 H 0.98455 0.39836 0.82094 0.0
H219 H 0.90235 0.4249 0.89117 0.0
H220 H 0.06062 0.50104 0.80106 0.0
H221 H 0.09734 0.49018 0.82882 0.0
H222 H 0.06115 0.44924 0.80274 0.0
H223 H 0.92764 0.49231 0.91216 0.0
H224 H 0.99529 0.52234 0.91319 0.0
H225 H 0.95881 0.53467 0.88607 0.0
H226 H 0.15917 0.60261 0.89062 0.0
H227 H 0.07383 0.63173 0.82355 0.0
H228 H 0.10239 0.49303 0.88351 0.0
H229 H 0.06723 0.50439 0.91196 0.0
H230 H 0.13482 0.53444 0.91008 0.0
H231 H 0.99683 0.52972 0.80237 0.0
H232 H 0.99649 0.58146 0.80567 0.0
H233 H 0.96143 0.53962 0.83139 0.0
C234 C 0.13318 0.50637 0.55735 0.0
C235 C 0.16728 0.53642 0.53794 0.0
C236 C 0.08136 0.49785 0.55744 0.0
C237 C 0.06298 0.52022 0.5379 0.0
C238 C 0.09721 0.55056 0.51826 0.0
C239 C 0.14864 0.55809 0.51839 0.0
C240 C 0.04624 0.46488 0.57851 0.0
C241 C 0.0796 0.57545 0.49721 0.0
C242 C 0.92227 0.47323 0.51845 0.0
C243 C 0.90368 0.49558 0.53743 0.0
C244 C 0.97369 0.48074 0.51851 0.0
C245 C 1.00797 0.51174 0.5378 0.0
C246 C 0.98963 0.53479 0.55677 0.0
C247 C 0.93783 0.52631 0.55648 0.0
C248 C 0.99127 0.45515 0.49806 0.0
C249 C 1.0248 0.56845 0.57745 0.0
H250 H 0.14695 0.48941 0.57254 0.0
H251 H 0.17446 0.58158 0.50339 0.0
H252 H 1.0283 0.4797 0.5937 0.0
H253 H 1.01543 0.43976 0.56591 0.0
H254 H 0.06612 0.44976 0.59199 0.0
H255 H 0.11093 0.5982 0.48352 0.0
H256 H 0.05006 0.55342 0.48221 0.0
H257 H 0.0623 0.59343 0.50988 0.0
H258 H 0.89642 0.44923 0.50373 0.0
H259 H 0.9241 0.5438 0.57125 0.0
H260 H 1.00858 0.4376 0.51117 0.0
H261 H 1.0208 0.47667 0.48284 0.0
H262 H 0.95992 0.43195 0.48459 0.0
H263 H 0.04272 0.55414 0.59303 0.0
H264 H 1.00494 0.58403 0.5905 0.0
H265 H 0.0556 0.59314 0.56459 0.0
C266 C 0.45949 0.92156 0.84294 0.0
C267 C 0.41989 0.91697 0.86239 0.0
C268 C 0.50378 0.9595 0.84182 0.0
C269 C 0.50854 0.99386 0.86043 0.0
C270 C 0.46848 0.98977 0.87975 0.0
C271 C 0.42482 0.95141 0.88057 0.0
C272 C 0.54572 0.96264 0.82095 0.0
C273 C 0.47202 0.02574 0.89989 0.0
C274 C 0.63879 0.0775 0.88097 0.0
C275 C 0.64359 0.11139 0.8623 0.0
C276 C 0.59553 0.03882 0.88014 0.0
C277 C 0.55582 0.03386 0.86029 0.0
C278 C 0.56062 0.06759 0.84106 0.0
C279 C 0.60447 0.10585 0.84222 0.0
C280 C 0.59192 1.00353 0.90095 0.0
C281 C 0.51907 0.06353 0.81959 0.0
H282 H 0.45589 0.89553 0.82847 0.0
H283 H 0.395 0.9482 0.89598 0.0
H284 H 0.55461 0.98989 0.80566 0.0
H285 H 0.58058 0.9686 0.83375 0.0
H286 H 0.53582 0.9333 0.80759 0.0
H287 H 0.43686 0.01801 0.91287 0.0
H288 H 0.50397 0.03331 0.91557 0.0
H289 H 0.47977 0.0548 0.88667 0.0
H290 H 0.6683 0.08145 0.89682 0.0
H291 H 0.60804 0.13144 0.82734 0.0
H292 H 0.5842 0.97402 0.88826 0.0
H293 H 0.55992 0.99652 0.9165 0.0
H294 H 0.62703 1.01172 0.91408 0.0
H295 H 0.5104 0.03562 0.80495 0.0
H296 H 0.52922 0.09227 0.80556 0.0
H297 H 0.48401 0.05816 0.83198 0.0
C298 C 0.5365 0.60369 0.19466 0.0
C299 C 0.5537 0.62622 0.1681 0.0
C300 C 0.52985 0.56128 0.19732 0.0
C301 C 0.54056 0.54091 0.1728 0.0
C302 C 0.55864 0.56365 0.14609 0.0
C303 C 0.56502 0.60598 0.14408 0.0
C304 C 0.51086 0.53814 0.22622 0.0
C305 C 0.57033 0.543 0.11939 0.0
C306 C 0.5656 0.44255 0.18188 0.0
C307 C 0.51973 0.41025 0.17226 0.0
C308 C 0.57227 0.48503 0.18326 0.0
C309 C 0.53223 0.49559 0.17469 0.0
C310 C 0.48528 0.46304 0.166 0.0
C311 C 0.47958 0.42078 0.16494 0.0
C312 C 0.62289 0.51882 0.19272 0.0
C313 C 0.44159 0.47302 0.15679 0.0
H314 H 0.5282 0.61928 0.21338 0.0
H315 H 0.57747 0.6228 0.12333 0.0
H316 H 0.47435 0.51026 0.22258 0.0
H317 H 0.53797 0.52596 0.23478 0.0
H318 H 0.50533 0.5588 0.24339 0.0
H319 H 0.58514 0.56535 0.10049 0.0
H320 H 0.59866 0.53065 0.12529 0.0
H321 H 0.53564 0.51551 0.11207 0.0
H322 H 0.59715 0.43503 0.18722 0.0
H323 H 0.44383 0.39598 0.15795 0.0
H324 H 0.61786 0.5392 0.21024 0.0
H325 H 0.64137 0.53966 0.17359 0.0
H326 H 0.64858 0.50504 0.20121 0.0
H327 H 0.43348 0.49181 0.17428 0.0
H328 H 0.40666 0.44387 0.1524 0.0
H329 H 0.45173 0.49268 0.13638 0.0
C330 C 0.72907 0.32168 0.95538 0.0
C331 C 0.68695 0.29534 0.93859 0.0
C332 C 0.72429 0.32962 0.98552 0.0
C333 C 0.67615 0.31119 0.99916 0.0
C334 C 0.63326 0.28571 0.9821 0.0
C335 C 0.63921 0.27793 0.95209 0.0
C336 C 0.77096 0.35675 1.00296 0.0
C337 C 0.58115 0.26594 0.99571 0.0
C338 C 0.66216 0.29167 0.08233 0.0
C339 C 0.65022 0.32486 0.09201 0.0
C340 C 0.67258 0.28779 0.05233 0.0
C341 C 0.67055 0.31754 0.03144 0.0
C342 C 0.6605 0.35204 0.04125 0.0
C343 C 0.65075 0.35541 0.07141 0.0
C344 C 0.68395 0.25091 0.04284 0.0
C345 C 0.65777 0.38435 0.0197 0.0
H346 H 0.76619 0.33518 0.94522 0.0
H347 H 0.60645 0.25767 0.9393 0.0
H348 H 0.76571 0.38332 1.01385 0.0
H349 H 0.77735 0.33746 0.02076 0.0
H350 H 0.8053 0.37015 0.98883 0.0
H351 H 0.55141 0.24854 0.97915 0.0
H352 H 0.58014 0.24341 1.01343 0.0
H353 H 0.57198 0.29085 1.00614 0.0
H354 H 0.66205 0.268 0.09806 0.0
H355 H 0.64149 0.38115 0.0786 0.0
H356 H 0.7193 0.26247 0.02963 0.0
H357 H 0.65303 0.2292 0.02844 0.0
H358 H 0.68798 0.23249 0.06203 0.0
H359 H 0.69251 0.39775 1.00598 0.0
H360 H 0.65298 0.41086 0.03109 0.0
H361 H 0.62541 0.36863 1.0044 0.0
C362 C 0.36851 0.654 0.25759 0.0
C363 C 0.40981 0.69167 0.24949 0.0
C364 C 0.35489 0.64459 0.28754 0.0
C365 C 0.3835 0.67335 0.30988 0.0
C366 C 0.42522 0.71134 0.30181 0.0
C367 C 0.43769 0.7201 0.27179 0.0
C368 C 0.30988 0.60395 0.29528 0.0
C369 C 0.45686 0.7428 0.32493 0.0
C370 C 0.32902 0.67636 0.38584 0.0
C371 C 0.35172 0.65592 0.40352 0.0
C372 C 0.33738 0.68068 0.35515 0.0
C373 C 0.36961 0.66448 0.34176 0.0
C374 C 0.39139 0.6426 0.35933 0.0
C375 C 0.38197 0.6384 0.39 0.0
C376 C 0.31291 0.70376 0.3372 0.0
C377 C 0.42627 0.62513 0.34594 0.0
H378 H 0.34677 0.63183 0.24055 0.0
H379 H 0.46982 0.74921 0.26585 0.0
H380 H 0.32174 0.58425 0.3101 0.0
H381 H 0.28152 0.61134 0.30753 0.0
H382 H 0.29152 0.58495 0.27533 0.0
H383 H 0.48869 0.77046 0.31503 0.0
H384 H 0.43297 0.75465 0.33781 0.0
H385 H 0.47254 0.72696 0.34078 0.0
H386 H 0.30483 0.68924 0.39609 0.0
H387 H 0.39981 0.6228 0.40359 0.0
H388 H 0.2926 0.6842 0.31791 0.0
H389 H 0.34244 0.73379 0.3284 0.0
H390 H 0.28581 0.71152 0.35051 0.0
H391 H 0.40795 0.60463 0.32662 0.0
H392 H 0.43726 0.60637 0.36214 0.0
H393 H 0.46107 0.65172 0.33774 0.0
C394 C 0.71432 0.30193 0.76178 0.0
C395 C 0.72136 0.33341 0.78311 0.0
C396 C 0.71039 0.30955 0.73153 0.0
C397 C 0.71264 0.34937 0.72233 0.0
C398 C 0.718 0.38078 0.74382 0.0
C399 C 0.72274 0.37257 0.77393 0.0
C400 C 0.70524 0.27533 0.70932 0.0
C401 C 0.71953 0.42331 0.73496 0.0
C402 C 0.75192 0.38199 0.64242 0.0
C403 C 0.70497 0.36907 0.6283 0.0
C404 C 0.75505 0.3764 0.67311 0.0
C405 C 0.71013 0.35812 0.69014 0.0
C406 C 0.6627 0.34639 0.67611 0.0
C407 C 0.6607 0.35168 0.64535 0.0
C408 C 0.80633 0.38882 0.68714 0.0
C409 C 0.614 0.32759 0.69351 0.0
H410 H 0.71355 0.27167 0.76859 0.0
H411 H 0.72805 0.39703 0.79027 0.0
H412 H 0.67042 0.26701 0.69596 0.0
H413 H 0.73771 0.28727 0.69375 0.0
H414 H 0.70375 0.24601 0.72008 0.0
H415 H 0.72106 0.44341 0.75446 0.0
H416 H 0.75317 0.44065 0.72091 0.0
H417 H 0.6857 0.41872 0.72156 0.0
H418 H 0.78614 0.39515 0.62926 0.0
H419 H 0.62438 0.34231 0.63458 0.0
H420 H 0.80897 0.36024 0.69656 0.0
H421 H 0.81157 0.4113 0.70568 0.0
H422 H 0.83765 0.40385 0.67103 0.0
H423 H 0.6089 0.2965 0.70295 0.0
H424 H 0.58051 0.32274 0.67964 0.0
H425 H 0.61548 0.34866 0.71236 0.0
C426 C 0.42222 0.75145 0.95263 0.0
C427 C 0.37393 0.7346 0.93981 0.0
C428 C 0.42907 0.74435 0.98263 0.0
C429 C 0.38656 0.72012 1.00035 0.0
C430 C 0.33783 0.7023 0.98742 0.0
C431 C 0.33211 0.70958 0.95729 0.0
C432 C 0.48177 0.76349 0.99551 0.0
C433 C 0.29155 0.67647 1.00558 0.0
C434 C 0.4135 0.67667 0.07243 0.0
C435 C 0.41592 0.70807 0.09284 0.0
C436 C 0.40254 0.6795 0.04241 0.0
C437 C 0.39325 0.71435 0.03256 0.0
C438 C 0.39309 0.745 0.0533 0.0
C439 C 0.40462 0.74159 0.08316 0.0
C440 C 0.40318 0.64621 0.021 0.0
C441 C 0.38265 0.78231 0.04376 0.0
H442 H 0.45475 0.7707 0.93932 0.0
H443 H 0.29458 0.69652 0.94764 0.0
H444 H 0.48421 0.78661 1.01314 0.0
H445 H 0.49049 0.73832 1.00592 0.0
H446 H 0.51102 0.78005 0.97852 0.0
H447 H 0.25656 0.66349 0.99196 0.0
H448 H 0.29623 0.64967 0.0165 0.0
H449 H 0.28676 0.69658 0.02339 0.0
H450 H 0.4222 0.65064 0.07962 0.0
H451 H 0.40618 0.76591 0.09876 0.0
H452 H 0.43501 0.66093 1.00522 0.0
H453 H 0.36783 0.63317 1.00778 0.0
H454 H 0.40748 0.61955 0.03246 0.0
H455 H 0.4133 0.80321 0.02889 0.0
H456 H 0.38006 0.80149 0.0629 0.0
H457 H 0.34679 0.77112 0.03105 0.0
C458 C 0.73953 0.35276 0.38688 0.0
C459 C 0.71631 0.37269 0.40464 0.0
C460 C 0.73134 0.34862 0.35615 0.0
C461 C 0.69861 0.36436 0.34282 0.0
C462 C 0.67602 0.38548 0.36051 0.0
C463 C 0.68541 0.38964 0.3912 0.0
C464 C 0.75675 0.32643 0.33807 0.0
C465 C 0.64048 0.40233 0.34722 0.0
C466 C 0.70045 0.37709 0.25879 0.0
C467 C 0.65973 0.33935 0.25013 0.0
C468 C 0.71374 0.38571 0.28886 0.0
C469 C 0.68536 0.35607 0.31079 0.0
C470 C 0.64432 0.31793 0.30215 0.0
C471 C 0.63219 0.30997 0.27201 0.0
C472 C 0.75808 0.42652 0.29717 0.0
C473 C 0.6129 0.28556 0.32481 0.0
H474 H 0.76416 0.34029 0.39709 0.0
H475 H 0.66716 0.40481 0.40486 0.0
H476 H 0.7278 0.29642 0.32885 0.0
H477 H 0.77718 0.34659 0.31905 0.0
H478 H 0.78395 0.31881 0.35139 0.0
H479 H 0.62836 0.42012 0.36362 0.0
H480 H 0.65881 0.4236 0.32827 0.0
H481 H 0.60637 0.37551 0.33851 0.0
H482 H 0.72194 0.4 0.24208 0.0
H483 H 0.60052 0.28078 0.26564 0.0
H484 H 0.7865 0.41933 0.30953 0.0
H485 H 0.74539 0.4456 0.31207 0.0
H486 H 0.77664 0.44606 0.27748 0.0
H487 H 0.63715 0.27399 0.33761 0.0
H488 H 0.58173 0.25779 0.3145 0.0
H489 H 0.59633 0.3005 0.34081 0.0
C490 C 0.33508 0.75872 0.74607 0.0
C491 C 0.33727 0.73685 0.7718 0.0
C492 C 0.34184 0.74475 0.71792 0.0
C493 C 0.35073 0.70774 0.71529 0.0
C494 C 0.35397 0.68588 0.74118 0.0
C495 C 0.34741 0.70081 0.76919 0.0
C496 C 0.33872 0.76933 0.69092 0.0
C497 C 0.36322 0.64623 0.73925 0.0
C498 C 0.31776 0.65482 0.63958 0.0
C499 C 0.36498 0.67157 0.62543 0.0
C500 C 0.31286 0.66475 0.66931 0.0
C501 C 0.3562 0.69215 0.68526 0.0
C502 C 0.40421 0.70766 0.6715 0.0
C503 C 0.40801 0.69711 0.64184 0.0
C504 C 0.26099 0.64737 0.68323 0.0
C505 C 0.45137 0.73685 0.68771 0.0
H506 H 0.32753 0.78672 0.74786 0.0
H507 H 0.34887 0.6836 0.78896 0.0
H508 H 0.374 0.77939 0.67775 0.0
H509 H 0.30711 0.7487 0.67649 0.0
H510 H 0.33275 0.79802 0.69681 0.0
H511 H 0.36646 0.63376 0.76146 0.0
H512 H 0.33173 0.62116 0.72705 0.0
H513 H 0.39838 0.65279 0.72663 0.0
H514 H 0.28428 0.63526 0.62713 0.0
H515 H 0.44481 0.70939 0.63137 0.0
H516 H 0.24963 0.67374 0.68731 0.0
H517 H 0.26151 0.63265 0.70498 0.0
H518 H 0.23196 0.62335 0.66893 0.0
H519 H 0.44935 0.76754 0.69238 0.0
H520 H 0.48625 0.74333 0.67475 0.0
H521 H 0.45431 0.72285 0.70935 0.0
loop_
_geom_bond_atom_site_label_1
_geom_bond_atom_site_label_2
_geom_bond_distance
_geom_bond_site_symmetry_2
_ccdc_geom_bond_type
Cu0 N1 1.999 . S
Cu0 O6 1.974 . S
Cu0 N11 1.985 . S
Cu0 O20 1.959 . S
N1 Cu0 1.999 . S
N1 C3 1.263 . S
N1 C5 1.389 . S
N2 C3 1.358 . S
N2 C4 1.400 . S
C3 N1 1.263 . S
C3 N2 1.358 . S
C3 H9 0.930 . S
C4 N2 1.400 . S
C4 C5 1.351 . S
C4 H21 0.930 . S
C5 N1 1.389 . S
C5 C4 1.351 . S
C5 H10 0.930 . S
O6 Cu0 1.974 . S
O6 C16 1.282 . S
C7 O8 1.261 . S
C7 O20 1.251 . S
O8 C7 1.261 . S
H9 C3 0.930 . S
H10 C5 0.930 . S
N11 Cu0 1.985 . S
N11 C13 1.335 . S
N11 C14 1.390 . S
N12 C13 1.345 . S
N12 C15 1.336 . S
C13 N11 1.335 . S
C13 N12 1.345 . S
C13 H18 0.930 . S
C14 N11 1.390 . S
C14 C15 1.346 . S
C14 H19 0.930 . S
C15 N12 1.336 . S
C15 C14 1.346 . S
C15 H22 0.929 . S
C16 O6 1.282 . S
C16 O17 1.216 . S
O17 C16 1.216 . S
H18 C13 0.930 . S
H19 C14 0.930 . S
O20 Cu0 1.959 . S
O20 C7 1.251 . S
H21 C4 0.930 . S
H22 C15 0.929 . S
Cu23 N24 1.999 . S
Cu23 O29 1.974 . S
Cu23 N34 1.985 . S
Cu23 O43 1.959 . S
N24 Cu23 1.999 . S
N24 C26 1.263 . S
N24 C28 1.389 . S
N25 C26 1.358 . S
N25 C27 1.400 . S
C26 N24 1.263 . S
C26 N25 1.358 . S
C26 H32 0.930 . S
C27 N25 1.400 . S
C27 C28 1.351 . S
C27 H44 0.930 . S
C28 N24 1.389 . S
C28 C27 1.351 . S
C28 H33 0.930 . S
O29 Cu23 1.974 . S
O29 C39 1.282 . S
C30 O31 1.261 . S
C30 O43 1.251 . S
O31 C30 1.261 . S
H32 C26 0.930 . S
H33 C28 0.930 . S
N34 Cu23 1.985 . S
N34 C36 1.335 . S
N34 C37 1.390 . S
N35 C36 1.345 . S
N35 C38 1.336 . S
C36 N34 1.335 . S
C36 N35 1.345 . S
C36 H41 0.930 . S
C37 N34 1.390 . S
C37 C38 1.346 . S
C37 H42 0.930 . S
C38 N35 1.336 . S
C38 C37 1.346 . S
C38 H45 0.929 . S
C39 O29 1.282 . S
C39 O40 1.216 . S
O40 C39 1.216 . S
H41 C36 0.930 . S
H42 C37 0.930 . S
O43 Cu23 1.959 . S
O43 C30 1.251 . S
H44 C27 0.930 . S
H45 C38 0.929 . S
Cu46 N47 1.999 . S
Cu46 O52 1.974 . S
Cu46 N57 1.985 . S
Cu46 O66 1.959 . S
N47 Cu46 1.999 . S
N47 C49 1.263 . S
N47 C51 1.389 . S
N48 C49 1.358 . S
N48 C50 1.400 . S
C49 N47 1.263 . S
C49 N48 1.358 . S
C49 H55 0.930 . S
C50 N48 1.400 . S
C50 C51 1.351 . S
C50 H67 0.930 . S
C51 N47 1.389 . S
C51 C50 1.351 . S
C51 H56 0.930 . S
O52 Cu46 1.974 . S
O52 C62 1.282 . S
C53 O54 1.261 . S
C53 O66 1.251 . S
O54 C53 1.261 . S
H55 C49 0.930 . S
H56 C51 0.930 . S
N57 Cu46 1.985 . S
N57 C59 1.335 . S
N57 C60 1.390 . S
N58 C59 1.345 . S
N58 C61 1.336 . S
C59 N57 1.335 . S
C59 N58 1.345 . S
C59 H64 0.930 . S
C60 N57 1.390 . S
C60 C61 1.346 . S
C60 H65 0.930 . S
C61 N58 1.336 . S
C61 C60 1.346 . S
C61 H68 0.929 . S
C62 O52 1.282 . S
C62 O63 1.216 . S
O63 C62 1.216 . S
H64 C59 0.930 . S
H65 C60 0.930 . S
O66 Cu46 1.959 . S
O66 C53 1.251 . S
H67 C50 0.930 . S
H68 C61 0.929 . S
Cu69 N70 1.999 . S
Cu69 O75 1.974 . S
Cu69 N80 1.985 . S
Cu69 O89 1.959 . S
N70 Cu69 1.999 . S
N70 C72 1.263 . S
N70 C74 1.389 . S
N71 C72 1.358 . S
N71 C73 1.400 . S
C72 N70 1.263 . S
C72 N71 1.358 . S
C72 H78 0.930 . S
C73 N71 1.400 . S
C73 C74 1.351 . S
C73 H90 0.930 . S
C74 N70 1.389 . S
C74 C73 1.351 . S
C74 H79 0.930 . S
O75 Cu69 1.974 . S
O75 C85 1.282 . S
C76 O77 1.261 . S
C76 O89 1.251 . S
O77 C76 1.261 . S
H78 C72 0.930 . S
H79 C74 0.930 . S
N80 Cu69 1.985 . S
N80 C82 1.335 . S
N80 C83 1.390 . S
N81 C82 1.345 . S
N81 C84 1.336 . S
C82 N80 1.335 . S
C82 N81 1.345 . S
C82 H87 0.930 . S
C83 N80 1.390 . S
C83 C84 1.346 . S
C83 H88 0.930 . S
C84 N81 1.336 . S
C84 C83 1.346 . S
C84 H91 0.929 . S
C85 O75 1.282 . S
C85 O86 1.216 . S
O86 C85 1.216 . S
H87 C82 0.930 . S
H88 C83 0.930 . S
O89 Cu69 1.959 . S
O89 C76 1.251 . S
H90 C73 0.930 . S
H91 C84 0.929 . S
Cu92 N93 1.999 . S
Cu92 O98 1.974 . S
Cu92 N103 1.985 . S
Cu92 O112 1.959 . S
N93 Cu92 1.999 . S
N93 C95 1.263 . S
N93 C97 1.389 . S
N94 C95 1.358 . S
N94 C96 1.400 . S
C95 N93 1.263 . S
C95 N94 1.358 . S
C95 H101 0.930 . S
C96 N94 1.400 . S
C96 C97 1.351 . S
C96 H113 0.930 . S
C97 N93 1.389 . S
C97 C96 1.351 . S
C97 H102 0.930 . S
O98 Cu92 1.974 . S
O98 C108 1.282 . S
C99 O100 1.261 . S
C99 O112 1.251 . S
O100 C99 1.261 . S
H101 C95 0.930 . S
H102 C97 0.930 . S
N103 Cu92 1.985 . S
N103 C105 1.335 . S
N103 C106 1.390 . S
N104 C105 1.345 . S
N104 C107 1.336 . S
C105 N103 1.335 . S
C105 N104 1.345 . S
C105 H110 0.930 . S
C106 N103 1.390 . S
C106 C107 1.346 . S
C106 H111 0.930 . S
C107 N104 1.336 . S
C107 C106 1.346 . S
C107 H114 0.929 . S
C108 O98 1.282 . S
C108 O109 1.216 . S
O109 C108 1.216 . S
H110 C105 0.930 . S
H111 C106 0.930 . S
O112 Cu92 1.959 . S
O112 C99 1.251 . S
H113 C96 0.930 . S
H114 C107 0.929 . S
Cu115 N116 1.999 . S
Cu115 O121 1.974 . S
Cu115 N126 1.985 . S
Cu115 O135 1.959 . S
N116 Cu115 1.999 . S
N116 C118 1.263 . S
N116 C120 1.389 . S
N117 C118 1.358 . S
N117 C119 1.400 . S
C118 N116 1.263 . S
C118 N117 1.358 . S
C118 H124 0.930 . S
C119 N117 1.400 . S
C119 C120 1.351 . S
C119 H136 0.930 . S
C120 N116 1.389 . S
C120 C119 1.351 . S
C120 H125 0.930 . S
O121 Cu115 1.974 . S
O121 C131 1.282 . S
C122 O123 1.261 . S
C122 O135 1.251 . S
O123 C122 1.261 . S
H124 C118 0.930 . S
H125 C120 0.930 . S
N126 Cu115 1.985 . S
N126 C128 1.335 . S
N126 C129 1.390 . S
N127 C128 1.345 . S
N127 C130 1.336 . S
C128 N126 1.335 . S
C128 N127 1.345 . S
C128 H133 0.930 . S
C129 N126 1.390 . S
C129 C130 1.346 . S
C129 H134 0.930 . S
C130 N127 1.336 . S
C130 C129 1.346 . S
C130 H137 0.929 . S
C131 O121 1.282 . S
C131 O132 1.216 . S
O132 C131 1.216 . S
H133 C128 0.930 . S
H134 C129 0.930 . S
O135 Cu115 1.959 . S
O135 C122 1.251 . S
H136 C119 0.930 . S
H137 C130 0.929 . S
C138 C139 1.391 . S
C138 C140 1.394 . S
C138 H154 0.931 . S
C139 C138 1.391 . S
C139 C143 1.376 . S
C140 C138 1.394 . S
C140 C141 1.369 . S
C140 C144 1.531 . S
C141 C140 1.369 . S
C141 C142 1.410 . S
C141 C149 1.503 1_545 S
C142 C141 1.410 . S
C142 C143 1.392 . S
C142 C145 1.511 1_545 S
C143 C139 1.376 . S
C143 C142 1.392 . S
C143 H155 0.929 . S
C144 C140 1.531 . S
C144 H156 0.960 . S
C144 H157 0.962 . S
C144 H158 0.960 . S
C145 C142 1.511 1_565 S
C145 H159 0.961 1_565 S
C145 H160 0.961 . S
C145 H161 0.961 . S
C146 C147 1.370 . S
C146 C148 1.363 . S
C146 H162 0.931 . S
C147 C146 1.370 . S
C147 C151 1.408 . S
C148 C146 1.363 . S
C148 C149 1.370 . S
C148 C152 1.524 . S
C149 C141 1.503 1_565 S
C149 C148 1.370 . S
C149 C150 1.403 . S
C150 C149 1.403 . S
C150 C151 1.404 . S
C150 C153 1.539 . S
C151 C147 1.408 . S
C151 C150 1.404 . S
C151 H163 0.930 . S
C152 C148 1.524 . S
C152 H164 0.956 1_565 S
C152 H165 0.961 1_565 S
C152 H166 0.961 . S
C153 C150 1.539 . S
C153 H167 0.958 . S
C153 H168 0.961 . S
C153 H169 0.960 . S
H154 C138 0.931 . S
H155 C143 0.929 . S
H156 C144 0.960 . S
H157 C144 0.962 . S
H158 C144 0.960 . S
H159 C145 0.961 1_545 S
H160 C145 0.961 . S
H161 C145 0.961 . S
H162 C146 0.931 . S
H163 C151 0.930 . S
H164 C152 0.956 1_545 S
H165 C152 0.961 1_545 S
H166 C152 0.961 . S
H167 C153 0.958 . S
H168 C153 0.961 . S
H169 C153 0.960 . S
C170 C171 1.391 . S
C170 C172 1.394 . S
C170 H186 0.931 . S
C171 C170 1.391 . S
C171 C175 1.376 . S
C172 C170 1.394 . S
C172 C173 1.369 . S
C172 C176 1.531 . S
C173 C172 1.369 . S
C173 C174 1.410 . S
C173 C181 1.503 . S
C174 C173 1.410 . S
C174 C175 1.392 . S
C174 C177 1.511 . S
C175 C171 1.376 . S
C175 C174 1.392 . S
C175 H187 0.929 . S
C176 C172 1.531 . S
C176 H188 0.960 . S
C176 H189 0.962 . S
C176 H190 0.960 . S
C177 C174 1.511 . S
C177 H191 0.961 . S
C177 H192 0.961 . S
C177 H193 0.961 . S
C178 C179 1.370 . S
C178 C180 1.363 . S
C178 H194 0.931 . S
C179 C178 1.370 . S
C179 C183 1.408 . S
C180 C178 1.363 . S
C180 C181 1.370 . S
C180 C184 1.524 . S
C181 C173 1.503 . S
C181 C180 1.370 . S
C181 C182 1.403 . S
C182 C181 1.403 . S
C182 C183 1.404 . S
C182 C185 1.539 . S
C183 C179 1.408 . S
C183 C182 1.404 . S
C183 H195 0.930 . S
C184 C180 1.524 . S
C184 H196 0.956 . S
C184 H197 0.961 . S
C184 H198 0.961 . S
C185 C182 1.539 . S
C185 H199 0.958 . S
C185 H200 0.961 . S
C185 H201 0.960 . S
H186 C170 0.931 . S
H187 C175 0.929 . S
H188 C176 0.960 . S
H189 C176 0.962 . S
H190 C176 0.960 . S
H191 C177 0.961 . S
H192 C177 0.961 . S
H193 C177 0.961 . S
H194 C178 0.931 . S
H195 C183 0.930 . S
H196 C184 0.956 . S
H197 C184 0.961 . S
H198 C184 0.961 . S
H199 C185 0.958 . S
H200 C185 0.961 . S
H201 C185 0.960 . S
C202 C203 1.391 . S
C202 C204 1.394 . S
C202 H218 0.931 . S
C203 C202 1.391 . S
C203 C207 1.376 . S
C204 C202 1.394 . S
C204 C205 1.369 . S
C204 C208 1.531 1_655 S
C205 C204 1.369 . S
C205 C206 1.410 . S
C205 C213 1.503 1_655 S
C206 C205 1.410 . S
C206 C207 1.392 . S
C206 C209 1.511 . S
C207 C203 1.376 . S
C207 C206 1.392 . S
C207 H219 0.929 . S
C208 C204 1.531 1_455 S
C208 H220 0.960 . S
C208 H221 0.962 . S
C208 H222 0.960 . S
C209 C206 1.511 . S
C209 H223 0.961 . S
C209 H224 0.961 . S
C209 H225 0.961 . S
C210 C211 1.370 . S
C210 C212 1.363 . S
C210 H226 0.931 . S
C211 C210 1.370 . S
C211 C215 1.408 . S
C212 C210 1.363 . S
C212 C213 1.370 . S
C212 C216 1.524 . S
C213 C205 1.503 1_455 S
C213 C212 1.370 . S
C213 C214 1.403 . S
C214 C213 1.403 . S
C214 C215 1.404 . S
C214 C217 1.539 1_455 S
C215 C211 1.408 . S
C215 C214 1.404 . S
C215 H227 0.930 . S
C216 C212 1.524 . S
C216 H228 0.956 . S
C216 H229 0.961 . S
C216 H230 0.961 . S
C217 C214 1.539 1_655 S
C217 H231 0.958 . S
C217 H232 0.961 . S
C217 H233 0.960 . S
H218 C202 0.931 . S
H219 C207 0.929 . S
H220 C208 0.960 . S
H221 C208 0.962 . S
H222 C208 0.960 . S
H223 C209 0.961 . S
H224 C209 0.961 . S
H225 C209 0.961 . S
H226 C210 0.931 . S
H227 C215 0.930 . S
H228 C216 0.956 . S
H229 C216 0.961 . S
H230 C216 0.961 . S
H231 C217 0.958 . S
H232 C217 0.961 . S
H233 C217 0.960 . S
C234 C235 1.391 . S
C234 C236 1.394 . S
C234 H250 0.931 . S
C235 C234 1.391 . S
C235 C239 1.376 . S
C236 C234 1.394 . S
C236 C237 1.369 . S
C236 C240 1.531 . S
C237 C236 1.369 . S
C237 C238 1.410 . S
C237 C245 1.503 1_455 S
C238 C237 1.410 . S
C238 C239 1.392 . S
C238 C241 1.511 . S
C239 C235 1.376 . S
C239 C238 1.392 . S
C239 H251 0.929 . S
C240 C236 1.531 . S
C240 H252 0.960 1_455 S
C240 H253 0.962 . S
C240 H254 0.960 . S
C241 C238 1.511 . S
C241 H255 0.961 . S
C241 H256 0.961 . S
C241 H257 0.961 . S
C242 C243 1.370 . S
C242 C244 1.363 . S
C242 H258 0.931 . S
C243 C242 1.370 . S
C243 C247 1.408 . S
C244 C242 1.363 . S
C244 C245 1.370 . S
C244 C248 1.524 . S
C245 C237 1.503 1_655 S
C245 C244 1.370 . S
C245 C246 1.403 . S
C246 C245 1.403 . S
C246 C247 1.404 . S
C246 C249 1.539 . S
C247 C243 1.408 . S
C247 C246 1.404 . S
C247 H259 0.930 . S
C248 C244 1.524 . S
C248 H260 0.956 . S
C248 H261 0.968 . S
C248 H262 0.961 . S
C249 C246 1.539 . S
C249 H263 0.958 . S
C249 H264 0.961 . S
C249 H265 0.960 1_655 S
H250 C234 0.931 . S
H251 C239 0.929 . S
H252 C240 0.960 1_655 S
H253 C240 0.962 . S
H254 C240 0.960 . S
H255 C241 0.961 . S
H256 C241 0.961 . S
H257 C241 0.961 . S
H258 C242 0.931 . S
H259 C247 0.930 . S
H260 C248 0.956 . S
H261 C248 0.968 . S
H262 C248 0.961 . S
H263 C249 0.958 . S
H264 C249 0.961 . S
H265 C249 0.960 1_455 S
C266 C267 1.391 . S
C266 C268 1.394 . S
C266 H282 0.931 . S
C267 C266 1.391 . S
C267 C271 1.376 . S
C268 C266 1.394 . S
C268 C269 1.369 . S
C268 C272 1.531 . S
C269 C268 1.369 . S
C269 C270 1.410 . S
C269 C277 1.503 1_565 S
C270 C269 1.410 . S
C270 C271 1.392 . S
C270 C273 1.512 1_565 S
C271 C267 1.376 . S
C271 C270 1.392 . S
C271 H283 0.929 . S
C272 C268 1.531 . S
C272 H284 0.960 . S
C272 H285 0.962 . S
C272 H286 0.960 . S
C273 C270 1.512 1_545 S
C273 H287 0.961 1_545 S
C273 H288 0.961 . S
C273 H289 0.960 . S
C274 C275 1.370 . S
C274 C276 1.363 . S
C274 H290 0.931 . S
C275 C274 1.370 . S
C275 C279 1.408 . S
C276 C274 1.363 . S
C276 C277 1.370 . S
C276 C280 1.539 . S
C277 C269 1.503 1_545 S
C277 C276 1.370 . S
C277 C278 1.403 . S
C278 C277 1.403 . S
C278 C279 1.404 . S
C278 C281 1.539 . S
C279 C275 1.408 . S
C279 C278 1.404 . S
C279 H291 0.930 . S
C280 C276 1.539 . S
C280 H292 0.941 1_545 S
C280 H293 0.960 1_545 S
C280 H294 0.963 . S
C281 C278 1.539 . S
C281 H295 0.958 . S
C281 H296 0.961 . S
C281 H297 0.960 . S
H282 C266 0.931 . S
H283 C271 0.929 . S
H284 C272 0.960 . S
H285 C272 0.962 . S
H286 C272 0.960 . S
H287 C273 0.961 1_565 S
H288 C273 0.961 . S
H289 C273 0.960 . S
H290 C274 0.931 . S
H291 C279 0.930 . S
H292 C280 0.941 1_565 S
H293 C280 0.960 1_565 S
H294 C280 0.963 . S
H295 C281 0.958 . S
H296 C281 0.961 . S
H297 C281 0.960 . S
C298 C299 1.391 . S
C298 C300 1.394 . S
C298 H314 0.931 . S
C299 C298 1.391 . S
C299 C303 1.376 . S
C300 C298 1.394 . S
C300 C301 1.369 . S
C300 C304 1.531 . S
C301 C300 1.369 . S
C301 C302 1.410 . S
C301 C309 1.503 . S
C302 C301 1.410 . S
C302 C303 1.392 . S
C302 C305 1.511 . S
C303 C299 1.376 . S
C303 C302 1.392 . S
C303 H315 0.929 . S
C304 C300 1.531 . S
C304 H316 0.960 . S
C304 H317 0.962 . S
C304 H318 0.960 . S
C305 C302 1.511 . S
C305 H319 0.961 . S
C305 H320 0.961 . S
C305 H321 0.961 . S
C306 C307 1.370 . S
C306 C308 1.363 . S
C306 H322 0.931 . S
C307 C306 1.370 . S
C307 C311 1.408 . S
C308 C306 1.363 . S
C308 C309 1.370 . S
C308 C312 1.524 . S
C309 C301 1.503 . S
C309 C308 1.370 . S
C309 C310 1.403 . S
C310 C309 1.403 . S
C310 C311 1.404 . S
C310 C313 1.539 . S
C311 C307 1.408 . S
C311 C310 1.404 . S
C311 H323 0.930 . S
C312 C308 1.524 . S
C312 H324 0.956 . S
C312 H325 0.961 . S
C312 H326 0.961 . S
C313 C310 1.539 . S
C313 H327 0.958 . S
C313 H328 0.961 . S
C313 H329 0.960 . S
H314 C298 0.931 . S
H315 C303 0.929 . S
H316 C304 0.960 . S
H317 C304 0.962 . S
H318 C304 0.960 . S
H319 C305 0.961 . S
H320 C305 0.961 . S
H321 C305 0.961 . S
H322 C306 0.931 . S
H323 C311 0.930 . S
H324 C312 0.956 . S
H325 C312 0.961 . S
H326 C312 0.961 . S
H327 C313 0.958 . S
H328 C313 0.961 . S
H329 C313 0.960 . S
C330 C331 1.391 . S
C330 C332 1.394 . S
C330 H346 0.931 . S
C331 C330 1.391 . S
C331 C335 1.376 . S
C332 C330 1.394 . S
C332 C333 1.369 . S
C332 C336 1.531 1_556 S
C333 C332 1.369 . S
C333 C334 1.410 . S
C333 C341 1.503 1_556 S
C334 C333 1.410 . S
C334 C335 1.392 . S
C334 C337 1.511 . S
C335 C331 1.376 . S
C335 C334 1.392 . S
C335 H347 0.929 . S
C336 C332 1.531 1_554 S
C336 H348 0.960 . S
C336 H349 0.962 . S
C336 H350 0.960 . S
C337 C334 1.511 . S
C337 H351 0.961 . S
C337 H352 0.961 . S
C337 H353 0.961 . S
C338 C339 1.370 . S
C338 C340 1.363 . S
C338 H354 0.931 . S
C339 C338 1.370 . S
C339 C343 1.408 . S
C340 C338 1.363 . S
C340 C341 1.370 . S
C340 C344 1.524 . S
C341 C333 1.503 1_554 S
C341 C340 1.370 . S
C341 C342 1.403 . S
C342 C341 1.403 . S
C342 C343 1.404 . S
C342 C345 1.539 . S
C343 C339 1.408 . S
C343 C342 1.404 . S
C343 H355 0.930 . S
C344 C340 1.524 . S
C344 H356 0.956 . S
C344 H357 0.961 1_554 S
C344 H358 0.961 . S
C345 C342 1.539 . S
C345 H359 0.958 . S
C345 H360 0.961 . S
C345 H361 0.960 1_554 S
H346 C330 0.931 . S
H347 C335 0.929 . S
H348 C336 0.960 . S
H349 C336 0.962 . S
H350 C336 0.960 . S
H351 C337 0.961 . S
H352 C337 0.961 . S
H353 C337 0.961 . S
H354 C338 0.931 . S
H355 C343 0.930 . S
H356 C344 0.956 . S
H357 C344 0.961 1_556 S
H358 C344 0.961 . S
H359 C345 0.958 . S
H360 C345 0.961 . S
H361 C345 0.960 1_556 S
C362 C363 1.391 . S
C362 C364 1.394 . S
C362 H378 0.931 . S
C363 C362 1.391 . S
C363 C367 1.376 . S
C364 C362 1.394 . S
C364 C365 1.369 . S
C364 C368 1.531 . S
C365 C364 1.369 . S
C365 C366 1.410 . S
C365 C373 1.503 . S
C366 C365 1.410 . S
C366 C367 1.392 . S
C366 C369 1.511 . S
C367 C363 1.376 . S
C367 C366 1.392 . S
C367 H379 0.929 . S
C368 C364 1.531 . S
C368 H380 0.960 . S
C368 H381 0.962 . S
C368 H382 0.960 . S
C369 C366 1.511 . S
C369 H383 0.961 . S
C369 H384 0.961 . S
C369 H385 0.961 . S
C370 C371 1.370 . S
C370 C372 1.363 . S
C370 H386 0.931 . S
C371 C370 1.370 . S
C371 C375 1.408 . S
C372 C370 1.363 . S
C372 C373 1.370 . S
C372 C376 1.524 . S
C373 C365 1.503 . S
C373 C372 1.370 . S
C373 C374 1.403 . S
C374 C373 1.403 . S
C374 C375 1.404 . S
C374 C377 1.539 . S
C375 C371 1.408 . S
C375 C374 1.404 . S
C375 H387 0.930 . S
C376 C372 1.524 . S
C376 H388 0.956 . S
C376 H389 0.961 . S
C376 H390 0.961 . S
C377 C374 1.539 . S
C377 H391 0.958 . S
C377 H392 0.961 . S
C377 H393 0.960 . S
H378 C362 0.931 . S
H379 C367 0.929 . S
H380 C368 0.960 . S
H381 C368 0.962 . S
H382 C368 0.960 . S
H383 C369 0.961 . S
H384 C369 0.961 . S
H385 C369 0.961 . S
H386 C370 0.931 . S
H387 C375 0.930 . S
H388 C376 0.956 . S
H389 C376 0.961 . S
H390 C376 0.961 . S
H391 C377 0.958 . S
H392 C377 0.961 . S
H393 C377 0.960 . S
C394 C395 1.391 . S
C394 C396 1.394 . S
C394 H410 0.931 . S
C395 C394 1.391 . S
C395 C399 1.376 . S
C396 C394 1.394 . S
C396 C397 1.369 . S
C396 C400 1.531 . S
C397 C396 1.369 . S
C397 C398 1.410 . S
C397 C405 1.503 . S
C398 C397 1.410 . S
C398 C399 1.392 . S
C398 C401 1.511 . S
C399 C395 1.376 . S
C399 C398 1.392 . S
C399 H411 0.929 . S
C400 C396 1.531 . S
C400 H412 0.960 . S
C400 H413 0.962 . S
C400 H414 0.960 . S
C401 C398 1.511 . S
C401 H415 0.961 . S
C401 H416 0.961 . S
C401 H417 0.961 . S
C402 C403 1.370 . S
C402 C404 1.363 . S
C402 H418 0.931 . S
C403 C402 1.370 . S
C403 C407 1.408 . S
C404 C402 1.363 . S
C404 C405 1.370 . S
C404 C408 1.524 . S
C405 C397 1.503 . S
C405 C404 1.370 . S
C405 C406 1.403 . S
C406 C405 1.403 . S
C406 C407 1.404 . S
C406 C409 1.539 . S
C407 C403 1.408 . S
C407 C406 1.404 . S
C407 H419 0.930 . S
C408 C404 1.524 . S
C408 H420 0.956 . S
C408 H421 0.961 . S
C408 H422 0.961 . S
C409 C406 1.539 . S
C409 H423 0.958 . S
C409 H424 0.961 . S
C409 H425 0.960 . S
H410 C394 0.931 . S
H411 C399 0.929 . S
H412 C400 0.960 . S
H413 C400 0.962 . S
H414 C400 0.960 . S
H415 C401 0.961 . S
H416 C401 0.961 . S
H417 C401 0.961 . S
H418 C402 0.931 . S
H419 C407 0.930 . S
H420 C408 0.956 . S
H421 C408 0.961 . S
H422 C408 0.961 . S
H423 C409 0.958 . S
H424 C409 0.961 . S
H425 C409 0.960 . S
C426 C427 1.391 . S
C426 C428 1.394 . S
C426 H442 0.931 . S
C427 C426 1.391 . S
C427 C431 1.376 . S
C428 C426 1.394 . S
C428 C429 1.369 . S
C428 C432 1.531 . S
C429 C428 1.369 . S
C429 C430 1.410 . S
C429 C437 1.503 1_556 S
C430 C429 1.410 . S
C430 C431 1.392 . S
C430 C433 1.511 1_556 S
C431 C427 1.376 . S
C431 C430 1.392 . S
C431 H443 0.929 . S
C432 C428 1.531 . S
C432 H444 0.960 . S
C432 H445 0.962 . S
C432 H446 0.960 . S
C433 C430 1.511 1_554 S
C433 H447 0.961 . S
C433 H448 0.961 . S
C433 H449 0.961 . S
C434 C435 1.370 . S
C434 C436 1.363 . S
C434 H450 0.931 . S
C435 C434 1.370 . S
C435 C439 1.408 . S
C436 C434 1.363 . S
C436 C437 1.370 . S
C436 C440 1.524 . S
C437 C429 1.503 1_554 S
C437 C436 1.370 . S
C437 C438 1.403 . S
C438 C437 1.403 . S
C438 C439 1.404 . S
C438 C441 1.539 . S
C439 C435 1.408 . S
C439 C438 1.404 . S
C439 H451 0.930 . S
C440 C436 1.524 . S
C440 H452 0.956 1_554 S
C440 H453 0.961 1_554 S
C440 H454 0.961 . S
C441 C438 1.539 . S
C441 H455 0.958 . S
C441 H456 0.961 . S
C441 H457 0.960 . S
H442 C426 0.931 . S
H443 C431 0.929 . S
H444 C432 0.960 . S
H445 C432 0.962 . S
H446 C432 0.960 . S
H447 C433 0.961 . S
H448 C433 0.961 . S
H449 C433 0.961 . S
H450 C434 0.931 . S
H451 C439 0.930 . S
H452 C440 0.956 1_556 S
H453 C440 0.961 1_556 S
H454 C440 0.961 . S
H455 C441 0.958 . S
H456 C441 0.961 . S
H457 C441 0.960 . S
C458 C459 1.391 . S
C458 C460 1.394 . S
C458 H474 0.931 . S
C459 C458 1.391 . S
C459 C463 1.376 . S
C460 C458 1.394 . S
C460 C461 1.369 . S
C460 C464 1.531 . S
C461 C460 1.369 . S
C461 C462 1.410 . S
C461 C469 1.503 . S
C462 C461 1.410 . S
C462 C463 1.392 . S
C462 C465 1.511 . S
C463 C459 1.376 . S
C463 C462 1.392 . S
C463 H475 0.929 . S
C464 C460 1.531 . S
C464 H476 0.960 . S
C464 H477 0.962 . S
C464 H478 0.960 . S
C465 C462 1.511 . S
C465 H479 0.961 . S
C465 H480 0.961 . S
C465 H481 0.961 . S
C466 C467 1.370 . S
C466 C468 1.363 . S
C466 H482 0.931 . S
C467 C466 1.370 . S
C467 C471 1.408 . S
C468 C466 1.363 . S
C468 C469 1.370 . S
C468 C472 1.524 . S
C469 C461 1.503 . S
C469 C468 1.370 . S
C469 C470 1.403 . S
C470 C469 1.403 . S
C470 C471 1.404 . S
C470 C473 1.539 . S
C471 C467 1.408 . S
C471 C470 1.404 . S
C471 H483 0.930 . S
C472 C468 1.524 . S
C472 H484 0.956 . S
C472 H485 0.961 . S
C472 H486 0.961 . S
C473 C470 1.539 . S
C473 H487 0.958 . S
C473 H488 0.961 . S
C473 H489 0.960 . S
H474 C458 0.931 . S
H475 C463 0.929 . S
H476 C464 0.960 . S
H477 C464 0.962 . S
H478 C464 0.960 . S
H479 C465 0.961 . S
H480 C465 0.961 . S
H481 C465 0.961 . S
H482 C466 0.931 . S
H483 C471 0.930 . S
H484 C472 0.956 . S
H485 C472 0.961 . S
H486 C472 0.961 . S
H487 C473 0.958 . S
H488 C473 0.961 . S
H489 C473 0.960 . S
C490 C491 1.391 . S
C490 C492 1.394 . S
C490 H506 0.931 . S
C491 C490 1.391 . S
C491 C495 1.376 . S
C492 C490 1.394 . S
C492 C493 1.369 . S
C492 C496 1.531 . S
C493 C492 1.369 . S
C493 C494 1.410 . S
C493 C501 1.503 . S
C494 C493 1.410 . S
C494 C495 1.392 . S
C494 C497 1.511 . S
C495 C491 1.376 . S
C495 C494 1.392 . S
C495 H507 0.929 . S
C496 C492 1.531 . S
C496 H508 0.960 . S
C496 H509 0.962 . S
C496 H510 0.960 . S
C497 C494 1.511 . S
C497 H511 0.961 . S
C497 H512 0.961 . S
C497 H513 0.961 . S
C498 C499 1.370 . S
C498 C500 1.363 . S
C498 H514 0.931 . S
C499 C498 1.370 . S
C499 C503 1.408 . S
C500 C498 1.363 . S
C500 C501 1.370 . S
C500 C504 1.524 . S
C501 C493 1.503 . S
C501 C500 1.370 . S
C501 C502 1.403 . S
C502 C501 1.403 . S
C502 C503 1.404 . S
C502 C505 1.539 . S
C503 C499 1.408 . S
C503 C502 1.404 . S
C503 H515 0.930 . S
C504 C500 1.524 . S
C504 H516 0.956 . S
C504 H517 0.961 . S
C504 H518 0.961 . S
C505 C502 1.539 . S
C505 H519 0.958 . S
C505 H520 0.961 . S
C505 H521 0.960 . S
H506 C490 0.931 . S
H507 C495 0.929 . S
H508 C496 0.960 . S
H509 C496 0.962 . S
H510 C496 0.960 . S
H511 C497 0.961 . S
H512 C497 0.961 . S
H513 C497 0.961 . S
H514 C498 0.931 . S
H515 C503 0.930 . S
H516 C504 0.956 . S
H517 C504 0.961 . S
H518 C504 0.961 . S
H519 C505 0.958 . S
H520 C505 0.961 . S
H521 C505 0.960 . S
C139 N12 1.446 . S
C147 N81 1.462 . S
C171 C39 1.716 . S
C179 C108 1.684 . S
C203 N58 1.363 . S
C211 N127 1.356 . S
C235 C30 1.793 . S
C243 C99 1.779 . S
C267 N117 1.451 . S
C275 N48 1.490 . S
C299 N71 1.377 . S
C307 N2 1.355 . S
C331 C62 1.830 . S
C339 C7 1.896 . S
C363 C85 1.902 . S
C371 N25 1.827 . S
C395 C53 1.946 . S
C403 N104 1.917 . S
C427 C131 1.872 . S
C435 C76 1.901 . S
C459 N94 1.793 . S
C467 C16 1.908 . S
C491 C122 1.931 . S
C499 N35 1.917 . S
