# Generated by pormake.
# Topology ukk, (4)-cn, num edge types: 1
# Building blocks:
#     Node 0, Type 0, BuildingBlock: NAWXER_clean_sbu_0, # of connection points: 4
#     Node 1, Type 0, BuildingBlock: NAWXER_clean_sbu_0, # of connection points: 4
#     Node 2, Type 0, BuildingBlock: NAWXER_clean_sbu_0, # of connection points: 4
#     Node 3, Type 0, BuildingBlock: NAWXER_clean_sbu_0, # of connection points: 4
#     Node 4, Type 0, BuildingBlock: NAWXER_clean_sbu_0, # of connection points: 4
#     Node 5, Type 0, BuildingBlock: NAWXER_clean_sbu_0, # of connection points: 4
#     Node 6, Type 0, BuildingBlock: NAWXER_clean_sbu_0, # of connection points: 4
#     Node 7, Type 0, BuildingBlock: NAWXER_clean_sbu_0, # of connection points: 4
#     Node 8, Type 0, BuildingBlock: NAWXER_clean_sbu_0, # of connection points: 4
#     Node 9, Type 0, BuildingBlock: NAWXER_clean_sbu_0, # of connection points: 4
#     Node 10, Type 0, BuildingBlock: NAWXER_clean_sbu_0, # of connection points: 4
#     Node 11, Type 0, BuildingBlock: NAWXER_clean_sbu_0, # of connection points: 4
#     Node 12, Type 0, BuildingBlock: NAWXER_clean_sbu_0, # of connection points: 4
#     Node 13, Type 0, BuildingBlock: NAWXER_clean_sbu_0, # of connection points: 4
#     Node 14, Type 0, BuildingBlock: NAWXER_clean_sbu_0, # of connection points: 4
#     Node 15, Type 0, BuildingBlock: NAWXER_clean_sbu_0, # of connection points: 4
#     Edge 16, Type (0, 0), BuildingBlock: EYOCIG_clean_linker_4, # of connection points: 2
#     Edge 17, Type (0, 0), BuildingBlock: EYOCIG_clean_linker_4, # of connection points: 2
#     Edge 18, Type (0, 0), BuildingBlock: EYOCIG_clean_linker_4, # of connection points: 2
#     Edge 19, Type (0, 0), BuildingBlock: EYOCIG_clean_linker_4, # of connection points: 2
#     Edge 20, Type (0, 0), BuildingBlock: EYOCIG_clean_linker_4, # of connection points: 2
#     Edge 21, Type (0, 0), BuildingBlock: EYOCIG_clean_linker_4, # of connection points: 2
#     Edge 22, Type (0, 0), BuildingBlock: EYOCIG_clean_linker_4, # of connection points: 2
#     Edge 23, Type (0, 0), BuildingBlock: EYOCIG_clean_linker_4, # of connection points: 2
#     Edge 24, Type (0, 0), BuildingBlock: EYOCIG_clean_linker_4, # of connection points: 2
#     Edge 25, Type (0, 0), BuildingBlock: EYOCIG_clean_linker_4, # of connection points: 2
#     Edge 26, Type (0, 0), BuildingBlock: EYOCIG_clean_linker_4, # of connection points: 2
#     Edge 27, Type (0, 0), BuildingBlock: EYOCIG_clean_linker_4, # of connection points: 2
#     Edge 28, Type (0, 0), BuildingBlock: EYOCIG_clean_linker_4, # of connection points: 2
#     Edge 29, Type (0, 0), BuildingBlock: EYOCIG_clean_linker_4, # of connection points: 2
#     Edge 30, Type (0, 0), BuildingBlock: EYOCIG_clean_linker_4, # of connection points: 2
#     Edge 31, Type (0, 0), BuildingBlock: EYOCIG_clean_linker_4, # of connection points: 2
#     Edge 32, Type (0, 0), BuildingBlock: EYOCIG_clean_linker_4, # of connection points: 2
#     Edge 33, Type (0, 0), BuildingBlock: EYOCIG_clean_linker_4, # of connection points: 2
#     Edge 34, Type (0, 0), BuildingBlock: EYOCIG_clean_linker_4, # of connection points: 2
#     Edge 35, Type (0, 0), BuildingBlock: EYOCIG_clean_linker_4, # of connection points: 2
#     Edge 36, Type (0, 0), BuildingBlock: EYOCIG_clean_linker_4, # of connection points: 2
#     Edge 37, Type (0, 0), BuildingBlock: EYOCIG_clean_linker_4, # of connection points: 2
#     Edge 38, Type (0, 0), BuildingBlock: EYOCIG_clean_linker_4, # of connection points: 2
#     Edge 39, Type (0, 0), BuildingBlock: EYOCIG_clean_linker_4, # of connection points: 2
#     Edge 40, Type (0, 0), BuildingBlock: EYOCIG_clean_linker_4, # of connection points: 2
#     Edge 41, Type (0, 0), BuildingBlock: EYOCIG_clean_linker_4, # of connection points: 2
#     Edge 42, Type (0, 0), BuildingBlock: EYOCIG_clean_linker_4, # of connection points: 2
#     Edge 43, Type (0, 0), BuildingBlock: EYOCIG_clean_linker_4, # of connection points: 2
#     Edge 44, Type (0, 0), BuildingBlock: EYOCIG_clean_linker_4, # of connection points: 2
#     Edge 45, Type (0, 0), BuildingBlock: EYOCIG_clean_linker_4, # of connection points: 2
#     Edge 46, Type (0, 0), BuildingBlock: EYOCIG_clean_linker_4, # of connection points: 2
#     Edge 47, Type (0, 0), BuildingBlock: EYOCIG_clean_linker_4, # of connection points: 2
# Relax obj value: 0.021
# Max RMSD: 0.113
# Mean RMSD: 0.113
data_MOF--net-ukk--node1-NAWXER_clean_sbu_0--edge1-EYOCIG_clean_linker_4
_symmetry_space_group_name_H-M    P1
_symmetry_Int_Tables_number       1
_symmetry_cell_setting            triclinic
loop_
_symmetry_equiv_pos_as_xyz
'x, y, z'
_cell_length_a     45.993484
_cell_length_b     45.992006
_cell_length_c     9.4437432
_cell_angle_alpha  89.987196
_cell_angle_beta   90.029986
_cell_angle_gamma 90.016024
loop_
_atom_site_label
_atom_site_type_symbol
_atom_site_fract_x
_atom_site_fract_y
_atom_site_fract_z
_atom_type_partial_charge
C0 C 0.36668 0.17799 0.13229 0.0
C1 C 0.37029 0.06572 0.18669 0.0
O2 O 0.37467 0.16279 0.02745 0.0
Zn3 Zn 0.37722 0.11943 0.01474 0.0
O4 O 0.35962 0.16652 0.24925 0.0
Zn5 Zn 0.35766 0.12442 0.29537 0.0
O6 O 0.40206 0.12591 0.32554 0.0
O7 O 0.4164 0.12175 0.10298 0.0
O8 O 0.36147 0.08095 0.29017 0.0
O9 O 0.37679 0.07731 0.06911 0.0
O10 O 0.3347 0.11919 0.97374 0.0
O11 O 0.3179 0.12374 0.19169 0.0
C12 C 0.42223 0.12414 0.23354 0.0
C13 C 0.31354 0.12171 0.05866 0.0
C14 C 0.12349 0.57722 0.79143 0.0
C15 C 0.12247 0.68596 0.96485 0.0
O16 O 0.12179 0.5832 0.92203 0.0
Zn17 Zn 0.11999 0.62255 1.00721 0.0
O18 O 0.125 0.59729 0.69864 0.0
Zn19 Zn 0.12379 0.64184 0.72647 0.0
O20 O 0.16593 0.63991 0.76665 0.0
O21 O 0.1634 0.6253 0.9896 0.0
O22 O 0.12395 0.68155 0.83165 0.0
O23 O 0.11991 0.66486 0.05013 0.0
O24 O 0.07767 0.62306 0.95384 0.0
O25 O 0.08048 0.63828 0.73229 0.0
C26 C 0.17802 0.63315 0.88245 0.0
C27 C 0.06565 0.62945 0.83704 0.0
C28 C 0.57743 0.87549 0.23436 0.0
C29 C 0.68623 0.87685 0.05956 0.0
O30 O 0.59764 0.87367 0.3262 0.0
Zn31 Zn 0.64197 0.87514 0.29562 0.0
O32 O 0.58322 0.87786 0.10372 0.0
Zn33 Zn 0.62252 0.88028 0.01557 0.0
O34 O 0.62513 0.83684 0.02843 0.0
O35 O 0.64002 0.8331 0.25057 0.0
O36 O 0.66517 0.87994 0.97421 0.0
O37 O 0.68173 0.87506 0.19251 0.0
O38 O 0.63842 0.91855 0.29152 0.0
O39 O 0.62302 0.92243 0.07065 0.0
C40 C 0.63316 0.82164 0.13335 0.0
C41 C 0.62953 0.93389 0.18856 0.0
C42 C 0.87645 0.42231 0.78531 0.0
C43 C 0.8778 0.31364 0.96251 0.0
O44 O 0.8784 0.41668 0.9163 0.0
Zn45 Zn 0.88016 0.37748 1.0063 0.0
O46 O 0.87448 0.402 0.69416 0.0
Zn47 Zn 0.87511 0.35768 0.72597 0.0
O48 O 0.83304 0.35992 0.77201 0.0
O49 O 0.83682 0.375 0.99374 0.0
O50 O 0.87581 0.31795 0.82945 0.0
O51 O 0.8802 0.33485 0.04736 0.0
O52 O 0.92234 0.37619 0.95314 0.0
O53 O 0.91857 0.36078 0.73221 0.0
C54 C 0.8216 0.36706 0.88885 0.0
C55 C 0.93389 0.36924 0.83609 0.0
C56 C 0.42214 0.37596 0.03519 0.0
C57 C 0.3134 0.37793 0.21131 0.0
O58 O 0.4018 0.37426 0.94396 0.0
Zn59 Zn 0.35751 0.37559 0.97525 0.0
O60 O 0.41652 0.37801 0.16618 0.0
Zn61 Zn 0.37726 0.3799 0.25568 0.0
O62 O 0.3748 0.33639 0.23982 0.0
O63 O 0.35964 0.3336 0.0178 0.0
O64 O 0.33457 0.38024 0.29652 0.0
O65 O 0.31778 0.37609 0.07832 0.0
O66 O 0.36132 0.41884 0.98018 0.0
O67 O 0.37682 0.42218 0.20116 0.0
C68 C 0.36683 0.32163 0.13326 0.0
C69 C 0.37028 0.43391 0.08385 0.0
C70 C 0.37661 0.57724 0.9839 0.0
C71 C 0.37734 0.68589 0.80715 0.0
O72 O 0.37824 0.58303 0.85304 0.0
Zn73 Zn 0.37995 0.62224 0.76502 0.0
O74 O 0.3747 0.59744 0.07575 0.0
Zn75 Zn 0.37532 0.64189 0.04492 0.0
O76 O 0.33317 0.63975 1.00019 0.0
O77 O 0.33663 0.62486 0.77806 0.0
O78 O 0.37562 0.68164 0.94041 0.0
O79 O 0.37994 0.66467 0.72266 0.0
O80 O 0.42221 0.62297 0.81745 0.0
O81 O 0.41878 0.63834 0.03851 0.0
C82 C 0.32156 0.63287 0.88328 0.0
C83 C 0.43391 0.62953 0.93472 0.0
C84 C 0.68633 0.62198 0.20993 0.0
C85 C 0.57725 0.62294 0.03771 0.0
O86 O 0.68166 0.62366 0.07706 0.0
Zn87 Zn 0.64176 0.62409 0.97489 0.0
O88 O 0.66534 0.61976 0.29619 0.0
Zn89 Zn 0.62262 0.61995 0.25616 0.0
O90 O 0.62373 0.57756 0.20286 0.0
O91 O 0.63886 0.58087 0.98132 0.0
O92 O 0.58317 0.62139 0.16855 0.0
O93 O 0.59736 0.6247 0.94546 0.0
O94 O 0.63991 0.66611 0.01699 0.0
O95 O 0.62526 0.66343 0.23977 0.0
C96 C 0.6305 0.56577 0.08597 0.0
C97 C 0.63314 0.67813 0.13287 0.0
C98 C 0.62402 0.42223 0.98242 0.0
C99 C 0.62289 0.31324 0.81086 0.0
O100 O 0.62184 0.41624 0.85192 0.0
Zn101 Zn 0.61973 0.37685 0.76486 0.0
O102 O 0.6255 0.40217 0.07516 0.0
Zn103 Zn 0.62398 0.35774 0.04643 0.0
O104 O 0.66601 0.35987 1.00445 0.0
O105 O 0.66318 0.37454 0.78165 0.0
O106 O 0.62437 0.31788 0.94381 0.0
O107 O 0.62015 0.3342 0.72474 0.0
O108 O 0.57743 0.37597 0.81792 0.0
O109 O 0.58063 0.36088 0.03955 0.0
C110 C 0.67795 0.36684 0.88865 0.0
C111 C 0.56559 0.36933 0.93474 0.0
C112 C 0.8667 0.67806 0.63885 0.0
C113 C 0.87005 0.56568 0.68489 0.0
O114 O 0.87472 0.66343 0.53205 0.0
Zn115 Zn 0.87732 0.61997 0.51513 0.0
O116 O 0.85969 0.66598 0.75426 0.0
Zn117 Zn 0.85771 0.62388 0.79563 0.0
O118 O 0.90217 0.62479 0.82556 0.0
O119 O 0.91659 0.62138 0.60282 0.0
O120 O 0.86121 0.58056 0.78943 0.0
O121 O 0.87665 0.57766 0.56831 0.0
O122 O 0.83485 0.61952 0.47292 0.0
O123 O 0.818 0.62352 0.69103 0.0
C124 C 0.92238 0.623 0.73372 0.0
C125 C 0.81366 0.62179 0.55787 0.0
C126 C 0.62288 0.07724 0.2893 0.0
C127 C 0.62291 0.18611 0.46319 0.0
O128 O 0.62117 0.08316 0.42003 0.0
Zn129 Zn 0.61959 0.12259 0.50603 0.0
O130 O 0.6248 0.09735 0.19698 0.0
Zn131 Zn 0.62429 0.14187 0.2257 0.0
O132 O 0.66625 0.13964 0.26644 0.0
O133 O 0.6631 0.12499 0.48914 0.0
O134 O 0.62454 0.18161 0.33014 0.0
O135 O 0.62001 0.16506 0.54863 0.0
O136 O 0.57733 0.12386 0.45046 0.0
O137 O 0.58106 0.13915 0.22932 0.0
C138 C 0.67802 0.13269 0.38269 0.0
C139 C 0.56577 0.13069 0.33309 0.0
C140 C 0.0774 0.37576 0.73556 0.0
C141 C 0.18609 0.37795 0.55921 0.0
O142 O 0.09773 0.37397 0.82674 0.0
Zn143 Zn 0.14208 0.37521 0.79617 0.0
O144 O 0.08301 0.378 0.60465 0.0
Zn145 Zn 0.12232 0.38012 0.51643 0.0
O146 O 0.12525 0.33654 0.53173 0.0
O147 O 0.14031 0.33328 0.75378 0.0
O148 O 0.1649 0.38044 0.47419 0.0
O149 O 0.18173 0.37588 0.69217 0.0
O150 O 0.13886 0.41838 0.79376 0.0
O151 O 0.12326 0.42236 0.57319 0.0
C152 C 0.13337 0.32157 0.63742 0.0
C153 C 0.1301 0.43377 0.69089 0.0
C154 C 0.37671 0.92232 0.28715 0.0
C155 C 0.37735 0.8132 0.45941 0.0
O156 O 0.3784 0.91639 0.41796 0.0
Zn157 Zn 0.37992 0.87693 0.50594 0.0
O158 O 0.37481 0.90221 0.19492 0.0
Zn159 Zn 0.37542 0.85783 0.22484 0.0
O160 O 0.33346 0.85987 0.26706 0.0
O161 O 0.33641 0.8745 0.48981 0.0
O162 O 0.37564 0.81794 0.32663 0.0
O163 O 0.37984 0.83415 0.54583 0.0
O164 O 0.42224 0.8758 0.45171 0.0
O165 O 0.41865 0.86067 0.23024 0.0
C166 C 0.32158 0.86674 0.38307 0.0
C167 C 0.43389 0.86904 0.3345 0.0
C168 C 0.81353 0.87684 0.71302 0.0
C169 C 0.92233 0.87648 0.53723 0.0
O170 O 0.81796 0.87503 0.58001 0.0
Zn171 Zn 0.85769 0.87496 0.47638 0.0
O172 O 0.83463 0.87995 0.79807 0.0
Zn173 Zn 0.87722 0.88037 0.75582 0.0
O174 O 0.87638 0.92252 0.69991 0.0
O175 O 0.86093 0.91833 0.47921 0.0
O176 O 0.9166 0.87839 0.66814 0.0
O177 O 0.90207 0.87439 0.44577 0.0
O178 O 0.85987 0.83292 0.52106 0.0
O179 O 0.87464 0.83694 0.74324 0.0
C180 C 0.86976 0.93381 0.58172 0.0
C181 C 0.86672 0.8216 0.63864 0.0
C182 C 0.87648 0.07722 0.48098 0.0
C183 C 0.87795 0.18622 0.30978 0.0
O184 O 0.87829 0.08331 0.3505 0.0
Zn185 Zn 0.88011 0.12267 0.26429 0.0
O186 O 0.87457 0.09721 0.57393 0.0
Zn187 Zn 0.87523 0.14172 0.54542 0.0
O188 O 0.8331 0.13958 0.50019 0.0
O189 O 0.83681 0.12488 0.27784 0.0
O190 O 0.87602 0.1816 0.44263 0.0
O191 O 0.88033 0.16522 0.2238 0.0
O192 O 0.92223 0.12304 0.31934 0.0
O193 O 0.91862 0.13814 0.54082 0.0
C194 C 0.82161 0.13261 0.3831 0.0
C195 C 0.93382 0.12939 0.43719 0.0
C196 C 0.18631 0.12184 0.71054 0.0
C197 C 0.07715 0.12312 0.54111 0.0
O198 O 0.18154 0.12379 0.57782 0.0
Zn199 Zn 0.1416 0.12455 0.47563 0.0
O200 O 0.16539 0.1194 0.79704 0.0
Zn201 Zn 0.12281 0.11958 0.75665 0.0
O202 O 0.12372 0.07734 0.70083 0.0
O203 O 0.13876 0.08127 0.4794 0.0
O204 O 0.08332 0.12136 0.67153 0.0
O205 O 0.09708 0.12505 0.44792 0.0
O206 O 0.13998 0.16659 0.51961 0.0
O207 O 0.12554 0.16303 0.74241 0.0
C208 C 0.13036 0.06589 0.58302 0.0
C209 C 0.1334 0.17814 0.63693 0.0
C210 C 0.12384 0.92231 0.48039 0.0
C211 C 0.12243 0.81307 0.31257 0.0
O212 O 0.12172 0.91602 0.35025 0.0
Zn213 Zn 0.11952 0.87664 0.26374 0.0
O214 O 0.12552 0.90245 0.57415 0.0
Zn215 Zn 0.12427 0.85801 0.54571 0.0
O216 O 0.16639 0.86005 0.49952 0.0
O217 O 0.16285 0.87457 0.27676 0.0
O218 O 0.12406 0.81793 0.4453 0.0
O219 O 0.11982 0.8339 0.22569 0.0
O220 O 0.0773 0.87636 0.31617 0.0
O221 O 0.0808 0.86156 0.53818 0.0
C222 C 0.17797 0.86688 0.3825 0.0
C223 C 0.06563 0.87009 0.43385 0.0
C224 C 0.37804 0.97836 0.22659 0.0
C225 C 0.37733 0.95241 0.2455 0.0
C226 C 0.37664 0.00895 0.21386 0.0
C227 C 0.37364 0.0349 0.20299 0.0
C228 C 0.00891 0.62302 0.80967 0.0
C229 C 0.03482 0.62594 0.82246 0.0
C230 C 0.97836 0.62173 0.79476 0.0
C231 C 0.95242 0.62241 0.77567 0.0
C232 C 0.62298 0.99057 0.21825 0.0
C233 C 0.62607 0.96466 0.20617 0.0
C234 C 0.62155 0.02116 0.23068 0.0
C235 C 0.62227 0.04714 0.24821 0.0
C236 C 0.02147 0.37489 0.79803 0.0
C237 C 0.0474 0.37515 0.7784 0.0
C238 C 0.99089 0.37345 0.81094 0.0
C239 C 0.96484 0.37143 0.82104 0.0
C240 C 0.3768 0.49063 0.05596 0.0
C241 C 0.37375 0.46471 0.0676 0.0
C242 C 0.37817 0.52121 0.04348 0.0
C243 C 0.37735 0.54718 0.02562 0.0
C244 C 0.49068 0.62315 0.96221 0.0
C245 C 0.46474 0.62614 0.9507 0.0
C246 C 0.52124 0.62172 0.97633 0.0
C247 C 0.54717 0.62237 0.996 0.0
C248 C 0.6253 0.4783 0.04189 0.0
C249 C 0.62484 0.45236 0.02287 0.0
C250 C 0.62656 0.50883 0.05772 0.0
C251 C 0.62832 0.53483 0.07123 0.0
C252 C 0.47804 0.37551 0.97188 0.0
C253 C 0.45213 0.37559 0.99216 0.0
C254 C 0.50861 0.37406 0.95845 0.0
C255 C 0.53465 0.37184 0.94855 0.0
C256 C 0.87732 0.47823 0.72223 0.0
C257 C 0.8768 0.45231 0.74219 0.0
C258 C 0.87597 0.50881 0.70902 0.0
C259 C 0.8732 0.5348 0.69889 0.0
C260 C 0.50884 0.12651 0.3056 0.0
C261 C 0.53486 0.12848 0.31726 0.0
C262 C 0.47827 0.12516 0.2927 0.0
C263 C 0.4523 0.12485 0.27473 0.0
C264 C 0.12338 0.52108 0.73463 0.0
C265 C 0.12354 0.54709 0.75127 0.0
C266 C 0.1248 0.49052 0.72187 0.0
C267 C 0.12729 0.46458 0.70872 0.0
C268 C 0.49086 0.87312 0.3083 0.0
C269 C 0.46482 0.8712 0.31944 0.0
C270 C 0.52143 0.87449 0.29503 0.0
C271 C 0.54737 0.8748 0.27605 0.0
C272 C 0.87598 0.99048 0.55003 0.0
C273 C 0.87304 0.96457 0.56307 0.0
C274 C 0.87744 0.02106 0.53752 0.0
C275 C 0.87688 0.04707 0.5209 0.0
C276 C 0.99046 0.12311 0.46931 0.0
C277 C 0.96459 0.12596 0.45434 0.0
C278 C 0.02099 0.12189 0.48422 0.0
C279 C 0.04698 0.12257 0.50146 0.0
C280 C 0.12453 0.97853 0.5362 0.0
C281 C 0.12434 0.95253 0.51901 0.0
C282 C 0.12583 0.00907 0.55126 0.0
C283 C 0.12789 0.03502 0.56593 0.0
C284 C 0.97826 0.87763 0.47438 0.0
C285 C 0.95235 0.87698 0.49455 0.0
C286 C 0.00883 0.87624 0.46039 0.0
C287 C 0.03479 0.87336 0.4494 0.0
C288 C 0.36415 0.26493 0.13428 0.0
C289 C 0.36584 0.29084 0.14101 0.0
C290 C 0.36399 0.23468 0.12168 0.0
C291 C 0.36563 0.20873 0.12001 0.0
C292 C 0.23468 0.6365 0.88441 0.0
C293 C 0.20879 0.63455 0.8903 0.0
C294 C 0.26493 0.63648 0.8725 0.0
C295 C 0.29085 0.63443 0.87106 0.0
C296 C 0.63692 0.76502 0.12268 0.0
C297 C 0.63477 0.79094 0.12068 0.0
C298 C 0.63685 0.73478 0.13515 0.0
C299 C 0.63472 0.70889 0.14115 0.0
C300 C 0.73466 0.36462 0.88721 0.0
C301 C 0.70874 0.36606 0.88099 0.0
C302 C 0.76491 0.36461 0.89931 0.0
C303 C 0.79086 0.36614 0.90097 0.0
C304 C 0.86344 0.73474 0.63768 0.0
C305 C 0.86538 0.70884 0.63117 0.0
C306 C 0.86335 0.76498 0.65037 0.0
C307 C 0.86532 0.79091 0.65202 0.0
C308 C 0.76494 0.13507 0.37262 0.0
C309 C 0.79089 0.13354 0.37093 0.0
C310 C 0.7347 0.13503 0.38504 0.0
C311 C 0.70879 0.1335 0.39135 0.0
C312 C 0.13743 0.26497 0.63295 0.0
C313 C 0.13509 0.29084 0.62726 0.0
C314 C 0.13754 0.23473 0.64616 0.0
C315 C 0.13522 0.20884 0.64904 0.0
C316 C 0.23464 0.864 0.37239 0.0
C317 C 0.2087 0.86571 0.37075 0.0
C318 C 0.26489 0.86403 0.38466 0.0
C319 C 0.2908 0.86572 0.39116 0.0
C320 C 0.23769 0.1234 0.83756 0.0
C321 C 0.21546 0.12292 0.76826 0.0
C322 C 0.26255 0.12338 0.92791 0.0
C323 C 0.2846 0.12286 0.9986 0.0
C324 C 0.1254 0.76164 0.1865 0.0
C325 C 0.12429 0.78391 0.25533 0.0
C326 C 0.12545 0.73681 0.09608 0.0
C327 C 0.12434 0.71486 0.02485 0.0
C328 C 0.73741 0.87305 0.93132 0.0
C329 C 0.71519 0.8745 1.0004 0.0
C330 C 0.76244 0.87306 0.84217 0.0
C331 C 0.78461 0.87451 0.77267 0.0
C332 C 0.87647 0.23753 0.18187 0.0
C333 C 0.87692 0.21531 0.25129 0.0
C334 C 0.87644 0.26249 0.09222 0.0
C335 C 0.87684 0.28466 0.02241 0.0
C336 C 0.23724 0.37647 0.42987 0.0
C337 C 0.21508 0.37691 0.49964 0.0
C338 C 0.26218 0.37647 0.34011 0.0
C339 C 0.28438 0.37692 0.27062 0.0
C340 C 0.37485 0.76168 0.58526 0.0
C341 C 0.37576 0.78404 0.51697 0.0
C342 C 0.3748 0.73673 0.67509 0.0
C343 C 0.37571 0.71475 0.74624 0.0
C344 C 0.73776 0.6236 0.33689 0.0
C345 C 0.71548 0.62307 0.26789 0.0
C346 C 0.76266 0.62356 0.42701 0.0
C347 C 0.78471 0.62297 0.49773 0.0
C348 C 0.6265 0.23713 0.59292 0.0
C349 C 0.62514 0.21506 0.52262 0.0
C350 C 0.62648 0.26201 0.68307 0.0
C351 C 0.6251 0.2842 0.75248 0.0
loop_
_geom_bond_atom_site_label_1
_geom_bond_atom_site_label_2
_geom_bond_distance
_geom_bond_site_symmetry_2
_ccdc_geom_bond_type
C0 O2 1.247 . S
C0 O4 1.258 . S
C1 O8 1.247 . S
C1 O9 1.258 . S
O2 C0 1.247 . S
O2 Zn3 2.028 . S
Zn3 O2 2.028 . S
Zn3 O7 2.035 . S
Zn3 O9 2.035 . S
Zn3 O10 2.028 1_554 S
O4 C0 1.258 . S
O4 Zn5 2.035 . S
Zn5 O4 2.035 . S
Zn5 O6 2.028 . S
Zn5 O8 2.028 . S
Zn5 O11 2.035 . S
O6 Zn5 2.028 . S
O6 C12 1.247 . S
O7 Zn3 2.035 . S
O7 C12 1.258 . S
O8 C1 1.247 . S
O8 Zn5 2.028 . S
O9 C1 1.258 . S
O9 Zn3 2.035 . S
O10 Zn3 2.028 1_556 S
O10 C13 1.247 1_556 S
O11 Zn5 2.035 . S
O11 C13 1.258 . S
C12 O6 1.247 . S
C12 O7 1.258 . S
C13 O10 1.247 1_554 S
C13 O11 1.258 . S
C14 O16 1.247 . S
C14 O18 1.258 . S
C15 O22 1.247 . S
C15 O23 1.258 1_556 S
O16 C14 1.247 . S
O16 Zn17 2.028 . S
Zn17 O16 2.028 . S
Zn17 O21 2.035 . S
Zn17 O23 2.035 1_556 S
Zn17 O24 2.028 . S
O18 C14 1.258 . S
O18 Zn19 2.035 . S
Zn19 O18 2.035 . S
Zn19 O20 2.028 . S
Zn19 O22 2.028 . S
Zn19 O25 2.035 . S
O20 Zn19 2.028 . S
O20 C26 1.247 . S
O21 Zn17 2.035 . S
O21 C26 1.258 . S
O22 C15 1.247 . S
O22 Zn19 2.028 . S
O23 C15 1.258 1_554 S
O23 Zn17 2.035 1_554 S
O24 Zn17 2.028 . S
O24 C27 1.247 . S
O25 Zn19 2.035 . S
O25 C27 1.258 . S
C26 O20 1.247 . S
C26 O21 1.258 . S
C27 O24 1.247 . S
C27 O25 1.258 . S
C28 O30 1.247 . S
C28 O32 1.258 . S
C29 O36 1.247 1_554 S
C29 O37 1.258 . S
O30 C28 1.247 . S
O30 Zn31 2.028 . S
Zn31 O30 2.028 . S
Zn31 O35 2.035 . S
Zn31 O37 2.035 . S
Zn31 O38 2.028 . S
O32 C28 1.258 . S
O32 Zn33 2.035 . S
Zn33 O32 2.035 . S
Zn33 O34 2.028 . S
Zn33 O36 2.028 1_554 S
Zn33 O39 2.035 . S
O34 Zn33 2.028 . S
O34 C40 1.247 . S
O35 Zn31 2.035 . S
O35 C40 1.258 . S
O36 C29 1.247 1_556 S
O36 Zn33 2.028 1_556 S
O37 C29 1.258 . S
O37 Zn31 2.035 . S
O38 Zn31 2.028 . S
O38 C41 1.247 . S
O39 Zn33 2.035 . S
O39 C41 1.258 . S
C40 O34 1.247 . S
C40 O35 1.258 . S
C41 O38 1.247 . S
C41 O39 1.258 . S
C42 O44 1.247 . S
C42 O46 1.258 . S
C43 O50 1.247 . S
C43 O51 1.258 1_556 S
O44 C42 1.247 . S
O44 Zn45 2.028 . S
Zn45 O44 2.028 . S
Zn45 O49 2.035 . S
Zn45 O51 2.035 1_556 S
Zn45 O52 2.028 . S
O46 C42 1.258 . S
O46 Zn47 2.035 . S
Zn47 O46 2.035 . S
Zn47 O48 2.028 . S
Zn47 O50 2.028 . S
Zn47 O53 2.035 . S
O48 Zn47 2.028 . S
O48 C54 1.247 . S
O49 Zn45 2.035 . S
O49 C54 1.258 . S
O50 C43 1.247 . S
O50 Zn47 2.028 . S
O51 C43 1.258 1_554 S
O51 Zn45 2.035 1_554 S
O52 Zn45 2.028 . S
O52 C55 1.247 . S
O53 Zn47 2.035 . S
O53 C55 1.258 . S
C54 O48 1.247 . S
C54 O49 1.258 . S
C55 O52 1.247 . S
C55 O53 1.258 . S
C56 O58 1.247 1_554 S
C56 O60 1.258 . S
C57 O64 1.247 . S
C57 O65 1.258 . S
O58 C56 1.247 1_556 S
O58 Zn59 2.028 . S
Zn59 O58 2.028 . S
Zn59 O63 2.035 1_556 S
Zn59 O65 2.035 1_556 S
Zn59 O66 2.028 . S
O60 C56 1.258 . S
O60 Zn61 2.035 . S
Zn61 O60 2.035 . S
Zn61 O62 2.028 . S
Zn61 O64 2.028 . S
Zn61 O67 2.035 . S
O62 Zn61 2.028 . S
O62 C68 1.247 . S
O63 Zn59 2.035 1_554 S
O63 C68 1.258 . S
O64 C57 1.247 . S
O64 Zn61 2.028 . S
O65 C57 1.258 . S
O65 Zn59 2.035 1_554 S
O66 Zn59 2.028 . S
O66 C69 1.247 1_556 S
O67 Zn61 2.035 . S
O67 C69 1.258 . S
C68 O62 1.247 . S
C68 O63 1.258 . S
C69 O66 1.247 1_554 S
C69 O67 1.258 . S
C70 O72 1.247 . S
C70 O74 1.258 1_556 S
C71 O78 1.247 . S
C71 O79 1.258 . S
O72 C70 1.247 . S
O72 Zn73 2.028 . S
Zn73 O72 2.028 . S
Zn73 O77 2.035 . S
Zn73 O79 2.035 . S
Zn73 O80 2.028 . S
O74 C70 1.258 1_554 S
O74 Zn75 2.035 . S
Zn75 O74 2.035 . S
Zn75 O76 2.028 1_554 S
Zn75 O78 2.028 1_554 S
Zn75 O81 2.035 . S
O76 Zn75 2.028 1_556 S
O76 C82 1.247 . S
O77 Zn73 2.035 . S
O77 C82 1.258 . S
O78 C71 1.247 . S
O78 Zn75 2.028 1_556 S
O79 C71 1.258 . S
O79 Zn73 2.035 . S
O80 Zn73 2.028 . S
O80 C83 1.247 . S
O81 Zn75 2.035 . S
O81 C83 1.258 1_554 S
C82 O76 1.247 . S
C82 O77 1.258 . S
C83 O80 1.247 . S
C83 O81 1.258 1_556 S
C84 O86 1.247 . S
C84 O88 1.258 . S
C85 O92 1.247 . S
C85 O93 1.258 1_554 S
O86 C84 1.247 . S
O86 Zn87 2.028 1_554 S
Zn87 O86 2.028 1_556 S
Zn87 O91 2.035 . S
Zn87 O93 2.035 . S
Zn87 O94 2.028 1_556 S
O88 C84 1.258 . S
O88 Zn89 2.035 . S
Zn89 O88 2.035 . S
Zn89 O90 2.028 . S
Zn89 O92 2.028 . S
Zn89 O95 2.035 . S
O90 Zn89 2.028 . S
O90 C96 1.247 . S
O91 Zn87 2.035 . S
O91 C96 1.258 1_556 S
O92 C85 1.247 . S
O92 Zn89 2.028 . S
O93 C85 1.258 1_556 S
O93 Zn87 2.035 . S
O94 Zn87 2.028 1_554 S
O94 C97 1.247 . S
O95 Zn89 2.035 . S
O95 C97 1.258 . S
C96 O90 1.247 . S
C96 O91 1.258 1_554 S
C97 O94 1.247 . S
C97 O95 1.258 . S
C98 O100 1.247 . S
C98 O102 1.258 1_556 S
C99 O106 1.247 . S
C99 O107 1.258 . S
O100 C98 1.247 . S
O100 Zn101 2.028 . S
Zn101 O100 2.028 . S
Zn101 O105 2.035 . S
Zn101 O107 2.035 . S
Zn101 O108 2.028 . S
O102 C98 1.258 1_554 S
O102 Zn103 2.035 . S
Zn103 O102 2.035 . S
Zn103 O104 2.028 1_554 S
Zn103 O106 2.028 1_554 S
Zn103 O109 2.035 . S
O104 Zn103 2.028 1_556 S
O104 C110 1.247 . S
O105 Zn101 2.035 . S
O105 C110 1.258 . S
O106 C99 1.247 . S
O106 Zn103 2.028 1_556 S
O107 C99 1.258 . S
O107 Zn101 2.035 . S
O108 Zn101 2.028 . S
O108 C111 1.247 . S
O109 Zn103 2.035 . S
O109 C111 1.258 1_554 S
C110 O104 1.247 . S
C110 O105 1.258 . S
C111 O108 1.247 . S
C111 O109 1.258 1_556 S
C112 O114 1.247 . S
C112 O116 1.258 . S
C113 O120 1.247 . S
C113 O121 1.258 . S
O114 C112 1.247 . S
O114 Zn115 2.028 . S
Zn115 O114 2.028 . S
Zn115 O119 2.035 . S
Zn115 O121 2.035 . S
Zn115 O122 2.028 . S
O116 C112 1.258 . S
O116 Zn117 2.035 . S
Zn117 O116 2.035 . S
Zn117 O118 2.028 . S
Zn117 O120 2.028 . S
Zn117 O123 2.035 . S
O118 Zn117 2.028 . S
O118 C124 1.247 . S
O119 Zn115 2.035 . S
O119 C124 1.258 . S
O120 C113 1.247 . S
O120 Zn117 2.028 . S
O121 C113 1.258 . S
O121 Zn115 2.035 . S
O122 Zn115 2.028 . S
O122 C125 1.247 . S
O123 Zn117 2.035 . S
O123 C125 1.258 . S
C124 O118 1.247 . S
C124 O119 1.258 . S
C125 O122 1.247 . S
C125 O123 1.258 . S
C126 O128 1.247 . S
C126 O130 1.258 . S
C127 O134 1.247 . S
C127 O135 1.258 . S
O128 C126 1.247 . S
O128 Zn129 2.028 . S
Zn129 O128 2.028 . S
Zn129 O133 2.035 . S
Zn129 O135 2.035 . S
Zn129 O136 2.028 . S
O130 C126 1.258 . S
O130 Zn131 2.035 . S
Zn131 O130 2.035 . S
Zn131 O132 2.028 . S
Zn131 O134 2.028 . S
Zn131 O137 2.035 . S
O132 Zn131 2.028 . S
O132 C138 1.247 . S
O133 Zn129 2.035 . S
O133 C138 1.258 . S
O134 C127 1.247 . S
O134 Zn131 2.028 . S
O135 C127 1.258 . S
O135 Zn129 2.035 . S
O136 Zn129 2.028 . S
O136 C139 1.247 . S
O137 Zn131 2.035 . S
O137 C139 1.258 . S
C138 O132 1.247 . S
C138 O133 1.258 . S
C139 O136 1.247 . S
C139 O137 1.258 . S
C140 O142 1.247 . S
C140 O144 1.258 . S
C141 O148 1.247 . S
C141 O149 1.258 . S
O142 C140 1.247 . S
O142 Zn143 2.028 . S
Zn143 O142 2.028 . S
Zn143 O147 2.035 . S
Zn143 O149 2.035 . S
Zn143 O150 2.028 . S
O144 C140 1.258 . S
O144 Zn145 2.035 . S
Zn145 O144 2.035 . S
Zn145 O146 2.028 . S
Zn145 O148 2.028 . S
Zn145 O151 2.035 . S
O146 Zn145 2.028 . S
O146 C152 1.247 . S
O147 Zn143 2.035 . S
O147 C152 1.258 . S
O148 C141 1.247 . S
O148 Zn145 2.028 . S
O149 C141 1.258 . S
O149 Zn143 2.035 . S
O150 Zn143 2.028 . S
O150 C153 1.247 . S
O151 Zn145 2.035 . S
O151 C153 1.258 . S
C152 O146 1.247 . S
C152 O147 1.258 . S
C153 O150 1.247 . S
C153 O151 1.258 . S
C154 O156 1.247 . S
C154 O158 1.258 . S
C155 O162 1.247 . S
C155 O163 1.258 . S
O156 C154 1.247 . S
O156 Zn157 2.028 . S
Zn157 O156 2.028 . S
Zn157 O161 2.035 . S
Zn157 O163 2.035 . S
Zn157 O164 2.028 . S
O158 C154 1.258 . S
O158 Zn159 2.035 . S
Zn159 O158 2.035 . S
Zn159 O160 2.028 . S
Zn159 O162 2.028 . S
Zn159 O165 2.035 . S
O160 Zn159 2.028 . S
O160 C166 1.247 . S
O161 Zn157 2.035 . S
O161 C166 1.258 . S
O162 C155 1.247 . S
O162 Zn159 2.028 . S
O163 C155 1.258 . S
O163 Zn157 2.035 . S
O164 Zn157 2.028 . S
O164 C167 1.247 . S
O165 Zn159 2.035 . S
O165 C167 1.258 . S
C166 O160 1.247 . S
C166 O161 1.258 . S
C167 O164 1.247 . S
C167 O165 1.258 . S
C168 O170 1.247 . S
C168 O172 1.258 . S
C169 O176 1.247 . S
C169 O177 1.258 . S
O170 C168 1.247 . S
O170 Zn171 2.028 . S
Zn171 O170 2.028 . S
Zn171 O175 2.035 . S
Zn171 O177 2.035 . S
Zn171 O178 2.028 . S
O172 C168 1.258 . S
O172 Zn173 2.035 . S
Zn173 O172 2.035 . S
Zn173 O174 2.028 . S
Zn173 O176 2.028 . S
Zn173 O179 2.035 . S
O174 Zn173 2.028 . S
O174 C180 1.247 . S
O175 Zn171 2.035 . S
O175 C180 1.258 . S
O176 C169 1.247 . S
O176 Zn173 2.028 . S
O177 C169 1.258 . S
O177 Zn171 2.035 . S
O178 Zn171 2.028 . S
O178 C181 1.247 . S
O179 Zn173 2.035 . S
O179 C181 1.258 . S
C180 O174 1.247 . S
C180 O175 1.258 . S
C181 O178 1.247 . S
C181 O179 1.258 . S
C182 O184 1.247 . S
C182 O186 1.258 . S
C183 O190 1.247 . S
C183 O191 1.258 . S
O184 C182 1.247 . S
O184 Zn185 2.028 . S
Zn185 O184 2.028 . S
Zn185 O189 2.035 . S
Zn185 O191 2.035 . S
Zn185 O192 2.028 . S
O186 C182 1.258 . S
O186 Zn187 2.035 . S
Zn187 O186 2.035 . S
Zn187 O188 2.028 . S
Zn187 O190 2.028 . S
Zn187 O193 2.035 . S
O188 Zn187 2.028 . S
O188 C194 1.247 . S
O189 Zn185 2.035 . S
O189 C194 1.258 . S
O190 C183 1.247 . S
O190 Zn187 2.028 . S
O191 C183 1.258 . S
O191 Zn185 2.035 . S
O192 Zn185 2.028 . S
O192 C195 1.247 . S
O193 Zn187 2.035 . S
O193 C195 1.258 . S
C194 O188 1.247 . S
C194 O189 1.258 . S
C195 O192 1.247 . S
C195 O193 1.258 . S
C196 O198 1.247 . S
C196 O200 1.258 . S
C197 O204 1.247 . S
C197 O205 1.258 . S
O198 C196 1.247 . S
O198 Zn199 2.028 . S
Zn199 O198 2.028 . S
Zn199 O203 2.035 . S
Zn199 O205 2.035 . S
Zn199 O206 2.028 . S
O200 C196 1.258 . S
O200 Zn201 2.035 . S
Zn201 O200 2.035 . S
Zn201 O202 2.028 . S
Zn201 O204 2.028 . S
Zn201 O207 2.035 . S
O202 Zn201 2.028 . S
O202 C208 1.247 . S
O203 Zn199 2.035 . S
O203 C208 1.258 . S
O204 C197 1.247 . S
O204 Zn201 2.028 . S
O205 C197 1.258 . S
O205 Zn199 2.035 . S
O206 Zn199 2.028 . S
O206 C209 1.247 . S
O207 Zn201 2.035 . S
O207 C209 1.258 . S
C208 O202 1.247 . S
C208 O203 1.258 . S
C209 O206 1.247 . S
C209 O207 1.258 . S
C210 O212 1.247 . S
C210 O214 1.258 . S
C211 O218 1.247 . S
C211 O219 1.258 . S
O212 C210 1.247 . S
O212 Zn213 2.028 . S
Zn213 O212 2.028 . S
Zn213 O217 2.035 . S
Zn213 O219 2.035 . S
Zn213 O220 2.028 . S
O214 C210 1.258 . S
O214 Zn215 2.035 . S
Zn215 O214 2.035 . S
Zn215 O216 2.028 . S
Zn215 O218 2.028 . S
Zn215 O221 2.035 . S
O216 Zn215 2.028 . S
O216 C222 1.247 . S
O217 Zn213 2.035 . S
O217 C222 1.258 . S
O218 C211 1.247 . S
O218 Zn215 2.028 . S
O219 C211 1.258 . S
O219 Zn213 2.035 . S
O220 Zn213 2.028 . S
O220 C223 1.247 . S
O221 Zn215 2.035 . S
O221 C223 1.258 . S
C222 O216 1.247 . S
C222 O217 1.258 . S
C223 O220 1.247 . S
C223 O221 1.258 . S
C224 C225 1.170 . S
C224 C226 1.380 1_565 S
C225 C224 1.170 . S
C226 C224 1.380 1_545 S
C226 C227 1.170 . S
C227 C226 1.170 . S
C228 C229 1.170 . S
C228 C230 1.380 1_455 S
C229 C228 1.170 . S
C230 C228 1.380 1_655 S
C230 C231 1.170 . S
C231 C230 1.170 . S
C232 C233 1.170 . S
C232 C234 1.380 1_565 S
C233 C232 1.170 . S
C234 C232 1.380 1_545 S
C234 C235 1.170 . S
C235 C234 1.170 . S
C236 C237 1.170 . S
C236 C238 1.380 1_455 S
C237 C236 1.170 . S
C238 C236 1.380 1_655 S
C238 C239 1.170 . S
C239 C238 1.170 . S
C240 C241 1.170 . S
C240 C242 1.380 . S
C241 C240 1.170 . S
C242 C240 1.380 . S
C242 C243 1.170 . S
C243 C242 1.170 . S
C244 C245 1.170 . S
C244 C246 1.380 . S
C245 C244 1.170 . S
C246 C244 1.380 . S
C246 C247 1.170 . S
C247 C246 1.170 . S
C248 C249 1.170 . S
C248 C250 1.380 . S
C249 C248 1.170 . S
C250 C248 1.380 . S
C250 C251 1.170 . S
C251 C250 1.170 . S
C252 C253 1.170 . S
C252 C254 1.380 . S
C253 C252 1.170 . S
C254 C252 1.380 . S
C254 C255 1.170 . S
C255 C254 1.170 . S
C256 C257 1.170 . S
C256 C258 1.380 . S
C257 C256 1.170 . S
C258 C256 1.380 . S
C258 C259 1.170 . S
C259 C258 1.170 . S
C260 C261 1.170 . S
C260 C262 1.380 . S
C261 C260 1.170 . S
C262 C260 1.380 . S
C262 C263 1.170 . S
C263 C262 1.170 . S
C264 C265 1.170 . S
C264 C266 1.380 . S
C265 C264 1.170 . S
C266 C264 1.380 . S
C266 C267 1.170 . S
C267 C266 1.170 . S
C268 C269 1.170 . S
C268 C270 1.380 . S
C269 C268 1.170 . S
C270 C268 1.380 . S
C270 C271 1.170 . S
C271 C270 1.170 . S
C272 C273 1.170 . S
C272 C274 1.380 1_565 S
C273 C272 1.170 . S
C274 C272 1.380 1_545 S
C274 C275 1.170 . S
C275 C274 1.170 . S
C276 C277 1.170 . S
C276 C278 1.380 1_655 S
C277 C276 1.170 . S
C278 C276 1.380 1_455 S
C278 C279 1.170 . S
C279 C278 1.170 . S
C280 C281 1.170 . S
C280 C282 1.380 1_565 S
C281 C280 1.170 . S
C282 C280 1.380 1_545 S
C282 C283 1.170 . S
C283 C282 1.170 . S
C284 C285 1.170 . S
C284 C286 1.380 1_655 S
C285 C284 1.170 . S
C286 C284 1.380 1_455 S
C286 C287 1.170 . S
C287 C286 1.170 . S
C288 C289 1.170 . S
C288 C290 1.380 . S
C289 C288 1.170 . S
C290 C288 1.380 . S
C290 C291 1.170 . S
C291 C290 1.170 . S
C292 C293 1.170 . S
C292 C294 1.380 . S
C293 C292 1.170 . S
C294 C292 1.380 . S
C294 C295 1.170 . S
C295 C294 1.170 . S
C296 C297 1.170 . S
C296 C298 1.380 . S
C297 C296 1.170 . S
C298 C296 1.380 . S
C298 C299 1.170 . S
C299 C298 1.170 . S
C300 C301 1.170 . S
C300 C302 1.380 . S
C301 C300 1.170 . S
C302 C300 1.380 . S
C302 C303 1.170 . S
C303 C302 1.170 . S
C304 C305 1.170 . S
C304 C306 1.380 . S
C305 C304 1.170 . S
C306 C304 1.380 . S
C306 C307 1.170 . S
C307 C306 1.170 . S
C308 C309 1.170 . S
C308 C310 1.380 . S
C309 C308 1.170 . S
C310 C308 1.380 . S
C310 C311 1.170 . S
C311 C310 1.170 . S
C312 C313 1.170 . S
C312 C314 1.380 . S
C313 C312 1.170 . S
C314 C312 1.380 . S
C314 C315 1.170 . S
C315 C314 1.170 . S
C316 C317 1.170 . S
C316 C318 1.380 . S
C317 C316 1.170 . S
C318 C316 1.380 . S
C318 C319 1.170 . S
C319 C318 1.170 . S
C320 C321 1.170 . S
C320 C322 1.380 . S
C321 C320 1.170 . S
C322 C320 1.380 . S
C322 C323 1.170 . S
C323 C322 1.170 . S
C324 C325 1.170 . S
C324 C326 1.380 . S
C325 C324 1.170 . S
C326 C324 1.380 . S
C326 C327 1.170 . S
C327 C326 1.170 . S
C328 C329 1.170 . S
C328 C330 1.380 . S
C329 C328 1.170 . S
C330 C328 1.380 . S
C330 C331 1.170 . S
C331 C330 1.170 . S
C332 C333 1.170 . S
C332 C334 1.380 . S
C333 C332 1.170 . S
C334 C332 1.380 . S
C334 C335 1.170 . S
C335 C334 1.170 . S
C336 C337 1.170 . S
C336 C338 1.380 . S
C337 C336 1.170 . S
C338 C336 1.380 . S
C338 C339 1.170 . S
C339 C338 1.170 . S
C340 C341 1.170 . S
C340 C342 1.380 . S
C341 C340 1.170 . S
C342 C340 1.380 . S
C342 C343 1.170 . S
C343 C342 1.170 . S
C344 C345 1.170 . S
C344 C346 1.380 . S
C345 C344 1.170 . S
C346 C344 1.380 . S
C346 C347 1.170 . S
C347 C346 1.170 . S
C348 C349 1.170 . S
C348 C350 1.380 . S
C349 C348 1.170 . S
C350 C348 1.380 . S
C350 C351 1.170 . S
C351 C350 1.170 . S
C225 C154 1.546 . S
C227 C1 1.553 . S
C229 C27 1.551 . S
C231 C124 1.544 . S
C233 C41 1.553 . S
C235 C126 1.542 . S
C237 C140 1.540 . S
C239 C55 1.545 . S
C241 C69 1.553 . S
C243 C70 1.544 1_554 S
C245 C83 1.551 . S
C247 C85 1.544 1_556 S
C249 C98 1.528 1_554 S
C251 C96 1.545 . S
C253 C56 1.543 1_556 S
C255 C111 1.546 . S
C257 C42 1.545 . S
C259 C113 1.551 . S
C261 C139 1.547 . S
C263 C12 1.531 . S
C265 C14 1.530 . S
C267 C153 1.549 . S
C269 C167 1.546 . S
C271 C28 1.535 . S
C273 C180 1.552 . S
C275 C182 1.536 . S
C277 C195 1.553 . S
C279 C197 1.534 . S
C281 C210 1.526 . S
C283 C208 1.547 . S
C285 C169 1.545 . S
C287 C223 1.550 . S
C289 C68 1.428 . S
C291 C0 1.447 . S
C293 C26 1.434 . S
C295 C82 1.446 . S
C297 C40 1.448 . S
C299 C97 1.431 . S
C301 C110 1.428 . S
C303 C54 1.440 . S
C305 C112 1.430 . S
C307 C181 1.448 . S
C309 C194 1.440 . S
C311 C138 1.429 . S
C313 C152 1.436 . S
C315 C209 1.445 . S
C317 C222 1.443 . S
C319 C166 1.430 . S
C321 C196 1.681 . S
C323 C13 1.670 1_556 S
C325 C211 1.687 . S
C327 C15 1.672 1_554 S
C329 C29 1.678 1_556 S
C331 C168 1.677 . S
C333 C183 1.672 . S
C335 C43 1.669 1_554 S
C337 C141 1.674 . S
C339 C57 1.676 . S
C341 C155 1.685 . S
C343 C71 1.670 . S
C345 C84 1.684 . S
C347 C125 1.668 . S
C349 C127 1.681 . S
C351 C99 1.687 . S
