# Generated by pormake.
# Topology umc, (4)-cn, num edge types: 1
# Building blocks:
#     Node 0, Type 0, BuildingBlock: MUDLON_clean_sbu_0, # of connection points: 4
#     Node 1, Type 0, BuildingBlock: MUDLON_clean_sbu_0, # of connection points: 4
#     Node 2, Type 0, BuildingBlock: MUDLON_clean_sbu_0, # of connection points: 4
#     Node 3, Type 0, BuildingBlock: MUDLON_clean_sbu_0, # of connection points: 4
#     Node 4, Type 0, BuildingBlock: MUDLON_clean_sbu_0, # of connection points: 4
#     Node 5, Type 0, BuildingBlock: MUDLON_clean_sbu_0, # of connection points: 4
#     Node 6, Type 0, BuildingBlock: MUDLON_clean_sbu_0, # of connection points: 4
#     Node 7, Type 0, BuildingBlock: MUDLON_clean_sbu_0, # of connection points: 4
#     Node 8, Type 0, BuildingBlock: MUDLON_clean_sbu_0, # of connection points: 4
#     Node 9, Type 0, BuildingBlock: MUDLON_clean_sbu_0, # of connection points: 4
#     Node 10, Type 0, BuildingBlock: MUDLON_clean_sbu_0, # of connection points: 4
#     Node 11, Type 0, BuildingBlock: MUDLON_clean_sbu_0, # of connection points: 4
#     Node 12, Type 0, BuildingBlock: MUDLON_clean_sbu_0, # of connection points: 4
#     Node 13, Type 0, BuildingBlock: MUDLON_clean_sbu_0, # of connection points: 4
#     Node 14, Type 0, BuildingBlock: MUDLON_clean_sbu_0, # of connection points: 4
#     Node 15, Type 0, BuildingBlock: MUDLON_clean_sbu_0, # of connection points: 4
#     Edge 16, Type (0, 0), BuildingBlock: OJICUG_clean_linker_0, # of connection points: 2
#     Edge 17, Type (0, 0), BuildingBlock: OJICUG_clean_linker_0, # of connection points: 2
#     Edge 18, Type (0, 0), BuildingBlock: OJICUG_clean_linker_0, # of connection points: 2
#     Edge 19, Type (0, 0), BuildingBlock: OJICUG_clean_linker_0, # of connection points: 2
#     Edge 20, Type (0, 0), BuildingBlock: OJICUG_clean_linker_0, # of connection points: 2
#     Edge 21, Type (0, 0), BuildingBlock: OJICUG_clean_linker_0, # of connection points: 2
#     Edge 22, Type (0, 0), BuildingBlock: OJICUG_clean_linker_0, # of connection points: 2
#     Edge 23, Type (0, 0), BuildingBlock: OJICUG_clean_linker_0, # of connection points: 2
#     Edge 24, Type (0, 0), BuildingBlock: OJICUG_clean_linker_0, # of connection points: 2
#     Edge 25, Type (0, 0), BuildingBlock: OJICUG_clean_linker_0, # of connection points: 2
#     Edge 26, Type (0, 0), BuildingBlock: OJICUG_clean_linker_0, # of connection points: 2
#     Edge 27, Type (0, 0), BuildingBlock: OJICUG_clean_linker_0, # of connection points: 2
#     Edge 28, Type (0, 0), BuildingBlock: OJICUG_clean_linker_0, # of connection points: 2
#     Edge 29, Type (0, 0), BuildingBlock: OJICUG_clean_linker_0, # of connection points: 2
#     Edge 30, Type (0, 0), BuildingBlock: OJICUG_clean_linker_0, # of connection points: 2
#     Edge 31, Type (0, 0), BuildingBlock: OJICUG_clean_linker_0, # of connection points: 2
#     Edge 32, Type (0, 0), BuildingBlock: OJICUG_clean_linker_0, # of connection points: 2
#     Edge 33, Type (0, 0), BuildingBlock: OJICUG_clean_linker_0, # of connection points: 2
#     Edge 34, Type (0, 0), BuildingBlock: OJICUG_clean_linker_0, # of connection points: 2
#     Edge 35, Type (0, 0), BuildingBlock: OJICUG_clean_linker_0, # of connection points: 2
#     Edge 36, Type (0, 0), BuildingBlock: OJICUG_clean_linker_0, # of connection points: 2
#     Edge 37, Type (0, 0), BuildingBlock: OJICUG_clean_linker_0, # of connection points: 2
#     Edge 38, Type (0, 0), BuildingBlock: OJICUG_clean_linker_0, # of connection points: 2
#     Edge 39, Type (0, 0), BuildingBlock: OJICUG_clean_linker_0, # of connection points: 2
#     Edge 40, Type (0, 0), BuildingBlock: OJICUG_clean_linker_0, # of connection points: 2
#     Edge 41, Type (0, 0), BuildingBlock: OJICUG_clean_linker_0, # of connection points: 2
#     Edge 42, Type (0, 0), BuildingBlock: OJICUG_clean_linker_0, # of connection points: 2
#     Edge 43, Type (0, 0), BuildingBlock: OJICUG_clean_linker_0, # of connection points: 2
#     Edge 44, Type (0, 0), BuildingBlock: OJICUG_clean_linker_0, # of connection points: 2
#     Edge 45, Type (0, 0), BuildingBlock: OJICUG_clean_linker_0, # of connection points: 2
#     Edge 46, Type (0, 0), BuildingBlock: OJICUG_clean_linker_0, # of connection points: 2
#     Edge 47, Type (0, 0), BuildingBlock: OJICUG_clean_linker_0, # of connection points: 2
# Relax obj value: 0.000
# Max RMSD: 0.076
# Mean RMSD: 0.076
data_MOF--net-umc--node1-MUDLON_clean_sbu_0--edge1-OJICUG_clean_linker_0
_symmetry_space_group_name_H-M    P1
_symmetry_Int_Tables_number       1
_symmetry_cell_setting            triclinic
loop_
_symmetry_equiv_pos_as_xyz
'x, y, z'
_cell_length_a     42.886739
_cell_length_b     11.141762
_cell_length_c     44.112194
_cell_angle_alpha  90.1253
_cell_angle_beta   90.053162
_cell_angle_gamma 90.186356
loop_
_atom_site_label
_atom_site_type_symbol
_atom_site_fract_x
_atom_site_fract_y
_atom_site_fract_z
_atom_type_partial_charge
Mg0 Mg 0.39125 0.96885 0.40176 0.0
C1 C 0.3668 0.847 0.4595 0.0
O2 O 0.34243 0.91474 0.45421 0.0
C3 C 0.38412 0.00651 0.33686 0.0
O4 O 0.38699 0.11378 0.34901 0.0
C5 C 0.32794 0.07259 0.4016 0.0
O6 O 0.32356 0.96227 0.39185 0.0
O7 O 0.35553 0.1061 0.40842 0.0
O8 O 0.38819 0.84086 0.43952 0.0
O9 O 0.44 0.02662 0.40416 0.0
C10 C 0.45961 0.94071 0.40467 0.0
O11 O 0.449 0.82997 0.40383 0.0
O12 O 0.38481 0.91546 0.35438 0.0
Mg13 Mg 0.66103 0.00972 0.40507 0.0
C14 C 0.68424 0.13565 0.46245 0.0
O15 O 0.70929 0.0722 0.45671 0.0
C16 C 0.66238 0.97788 0.33987 0.0
O17 O 0.65874 0.87032 0.35154 0.0
C18 C 0.72578 0.93485 0.39898 0.0
O19 O 0.7241 0.04233 0.38688 0.0
O20 O 0.70098 0.88892 0.40998 0.0
O21 O 0.66254 0.1385 0.4427 0.0
O22 O 0.61332 0.94067 0.40791 0.0
C23 C 0.59337 0.02514 0.40612 0.0
O24 O 0.60367 0.13576 0.40328 0.0
O25 O 0.66418 0.06737 0.3579 0.0
Mg26 Mg 0.38674 0.016 0.14073 0.0
C27 C 0.39842 0.17394 0.08547 0.0
O28 O 0.42736 0.14224 0.09086 0.0
C29 C 0.38023 0.96762 0.20568 0.0
O30 O 0.38474 0.86207 0.19311 0.0
C31 C 0.32574 0.91595 0.12121 0.0
O32 O 0.32353 0.03067 0.1149 0.0
O33 O 0.35142 0.87636 0.13187 0.0
O34 O 0.37761 0.14841 0.10503 0.0
O35 O 0.43695 0.97628 0.1388 0.0
C36 C 0.4531 0.05315 0.15355 0.0
O37 O 0.43836 0.13946 0.16789 0.0
O38 O 0.37877 0.0595 0.1885 0.0
Mg39 Mg 0.65561 0.99034 0.14349 0.0
C40 C 0.64887 0.82663 0.0885 0.0
O41 O 0.61915 0.8456 0.09379 0.0
C42 C 0.6667 0.02928 0.20907 0.0
O43 O 0.66921 0.13735 0.19746 0.0
C44 C 0.71801 0.09387 0.13501 0.0
O45 O 0.72232 0.97718 0.13503 0.0
O46 O 0.6902 0.13343 0.13725 0.0
O47 O 0.66879 0.86294 0.10792 0.0
O48 O 0.60571 0.02941 0.13686 0.0
C49 C 0.58836 0.0575 0.15917 0.0
O50 O 0.60125 0.07654 0.18575 0.0
O51 O 0.6616 0.94102 0.19121 0.0
Mg52 Mg 0.65994 0.00055 0.64511 0.0
C53 C 0.65155 0.14898 0.58767 0.0
O54 O 0.62228 0.11977 0.59231 0.0
C55 C 0.66518 0.95974 0.71006 0.0
O56 O 0.66071 0.85339 0.69784 0.0
C57 C 0.72179 0.89597 0.63849 0.0
O58 O 0.72677 0.01194 0.64121 0.0
O59 O 0.69375 0.8578 0.63878 0.0
O60 O 0.67163 0.12356 0.60796 0.0
O61 O 0.61099 0.94836 0.64185 0.0
C62 C 0.59141 0.02957 0.64887 0.0
O63 O 0.6019 0.13572 0.65709 0.0
O64 O 0.66658 0.05072 0.69257 0.0
Mg65 Mg 0.38981 0.97231 0.64293 0.0
C66 C 0.39876 0.82687 0.58489 0.0
O67 O 0.42796 0.85657 0.58984 0.0
C68 C 0.38484 0.01304 0.70774 0.0
O69 O 0.38939 0.11891 0.69541 0.0
C70 C 0.32769 0.07462 0.63692 0.0
O71 O 0.32309 0.95836 0.63936 0.0
O72 O 0.35562 0.11402 0.63707 0.0
O73 O 0.37855 0.85062 0.60519 0.0
O74 O 0.4387 0.02563 0.64026 0.0
C75 C 0.45819 0.94417 0.64728 0.0
O76 O 0.44758 0.83773 0.65498 0.0
O77 O 0.38325 0.92157 0.69032 0.0
Mg78 Mg 0.66015 0.96367 0.90607 0.0
C79 C 0.68274 0.83755 0.96349 0.0
O80 O 0.70793 0.90117 0.95808 0.0
C81 C 0.66609 0.00163 0.84117 0.0
O82 O 0.66401 0.109 0.85338 0.0
C83 C 0.72399 0.06383 0.90553 0.0
O84 O 0.72757 0.95625 0.89378 0.0
O85 O 0.69679 0.09643 0.91363 0.0
O86 O 0.6613 0.83433 0.94348 0.0
O87 O 0.61243 0.02922 0.9081 0.0
C88 C 0.59213 0.94547 0.90712 0.0
O89 O 0.60182 0.83392 0.90528 0.0
O90 O 0.6656 0.9106 0.85868 0.0
Mg91 Mg 0.39122 0.02166 0.90386 0.0
C92 C 0.36756 0.15664 0.95987 0.0
O93 O 0.34203 0.09534 0.95415 0.0
C94 C 0.38472 0.97749 0.83895 0.0
O95 O 0.3869 0.87087 0.85144 0.0
C96 C 0.32787 0.91608 0.90414 0.0
O97 O 0.32358 0.02119 0.89135 0.0
O98 O 0.3553 0.88737 0.91248 0.0
O99 O 0.38956 0.155 0.94048 0.0
O100 O 0.43912 0.95834 0.90651 0.0
C101 C 0.45937 0.04227 0.90583 0.0
O102 O 0.44966 0.15371 0.9038 0.0
O103 O 0.38535 0.06963 0.8562 0.0
Mg104 Mg 0.88858 0.47437 0.40499 0.0
C105 C 0.86378 0.34055 0.45992 0.0
O106 O 0.83913 0.40653 0.45427 0.0
C107 C 0.89663 0.49758 0.33884 0.0
O108 O 0.91312 0.58684 0.35002 0.0
C109 C 0.84512 0.69161 0.39724 0.0
O110 O 0.86484 0.71936 0.37561 0.0
O111 O 0.85072 0.60135 0.41394 0.0
O112 O 0.88571 0.33816 0.44049 0.0
O113 O 0.93695 0.53471 0.40952 0.0
C114 C 0.95635 0.44832 0.40802 0.0
O115 O 0.94544 0.33885 0.40442 0.0
O116 O 0.8837 0.42435 0.35719 0.0
Mg117 Mg 0.15832 0.49351 0.40608 0.0
C118 C 0.18337 0.61667 0.46336 0.0
O119 O 0.20718 0.54557 0.45844 0.0
C120 C 0.16216 0.45632 0.34121 0.0
O121 O 0.15847 0.3495 0.35328 0.0
C122 C 0.22176 0.39148 0.40451 0.0
O123 O 0.22582 0.50277 0.39549 0.0
O124 O 0.19434 0.35684 0.41157 0.0
O125 O 0.16205 0.62361 0.44331 0.0
O126 O 0.10966 0.43606 0.40904 0.0
C127 C 0.09039 0.52307 0.40922 0.0
O128 O 0.10143 0.63311 0.40801 0.0
O129 O 0.16335 0.54718 0.35884 0.0
Mg130 Mg 0.89233 0.49449 0.143 0.0
C131 C 0.86835 0.62524 0.08661 0.0
O132 O 0.84321 0.56142 0.09206 0.0
C133 C 0.88427 0.45885 0.20835 0.0
O134 O 0.88108 0.35114 0.19654 0.0
C135 C 0.82746 0.39924 0.14381 0.0
O136 O 0.8246 0.50706 0.15561 0.0
O137 O 0.85453 0.36409 0.13577 0.0
O138 O 0.89014 0.62658 0.10627 0.0
O139 O 0.94081 0.43398 0.13976 0.0
C140 C 0.9605 0.52019 0.14069 0.0
O141 O 0.94989 0.63034 0.14304 0.0
O142 O 0.88852 0.54754 0.19054 0.0
Mg143 Mg 0.16232 0.4624 0.14531 0.0
C144 C 0.18716 0.32928 0.08967 0.0
O145 O 0.21304 0.3864 0.09661 0.0
C146 C 0.16502 0.49884 0.21023 0.0
O147 O 0.16374 0.60625 0.19805 0.0
C148 C 0.20913 0.65209 0.11861 0.0
O149 O 0.18986 0.66028 0.09554 0.0
O150 O 0.20214 0.58475 0.14083 0.0
O151 O 0.16462 0.33136 0.10843 0.0
O152 O 0.11434 0.52783 0.14131 0.0
C153 C 0.09449 0.44216 0.14185 0.0
O154 O 0.10489 0.3318 0.14431 0.0
O155 O 0.16509 0.40777 0.19263 0.0
Mg156 Mg 0.15935 0.49602 0.64554 0.0
C157 C 0.15105 0.64557 0.58823 0.0
O158 O 0.12164 0.61885 0.593 0.0
C159 C 0.16636 0.45837 0.71059 0.0
O160 O 0.16306 0.35055 0.69886 0.0
C161 C 0.22135 0.39336 0.63865 0.0
O162 O 0.22604 0.50954 0.64128 0.0
O163 O 0.19342 0.35408 0.63916 0.0
O164 O 0.17106 0.61876 0.60845 0.0
O165 O 0.1104 0.44321 0.64226 0.0
C166 C 0.09068 0.52402 0.64921 0.0
O167 O 0.10101 0.6303 0.65753 0.0
O168 O 0.16627 0.54841 0.69276 0.0
Mg169 Mg 0.88892 0.46687 0.64302 0.0
C170 C 0.89656 0.31999 0.58504 0.0
O171 O 0.926 0.34695 0.58973 0.0
C172 C 0.88353 0.50354 0.70809 0.0
O173 O 0.88747 0.61089 0.6964 0.0
C174 C 0.82713 0.57236 0.63737 0.0
O175 O 0.82214 0.4563 0.63968 0.0
O176 O 0.85518 0.6104 0.63756 0.0
O177 O 0.87669 0.34615 0.60545 0.0
O178 O 0.93796 0.5185 0.64008 0.0
C179 C 0.95749 0.43684 0.64685 0.0
O180 O 0.94694 0.33017 0.65442 0.0
O181 O 0.88246 0.41354 0.69017 0.0
Mg182 Mg 0.16244 0.47493 0.90642 0.0
C183 C 0.15482 0.32685 0.96414 0.0
O184 O 0.12537 0.35249 0.95936 0.0
C185 C 0.16747 0.50973 0.84139 0.0
O186 O 0.16294 0.61688 0.85306 0.0
C187 C 0.22351 0.58893 0.91524 0.0
O188 O 0.22927 0.47359 0.91764 0.0
O189 O 0.19543 0.62243 0.91124 0.0
O190 O 0.1748 0.35527 0.94402 0.0
O191 O 0.11327 0.52337 0.90918 0.0
C192 C 0.09393 0.4407 0.90223 0.0
O193 O 0.10471 0.33462 0.89456 0.0
O194 O 0.16903 0.42027 0.85934 0.0
Mg195 Mg 0.89208 0.49063 0.90392 0.0
C196 C 0.90092 0.63957 0.96154 0.0
O197 O 0.9302 0.61164 0.9567 0.0
C198 C 0.8854 0.4538 0.83889 0.0
O199 O 0.8892 0.34632 0.8505 0.0
C200 C 0.83048 0.3827 0.91337 0.0
O201 O 0.82546 0.49879 0.91512 0.0
O202 O 0.85831 0.34617 0.90948 0.0
O203 O 0.88072 0.61277 0.94141 0.0
O204 O 0.94106 0.43953 0.9068 0.0
C205 C 0.96063 0.52131 0.89989 0.0
O206 O 0.95012 0.62724 0.89185 0.0
O207 O 0.88509 0.54382 0.85683 0.0
C208 C 0.34994 0.81977 0.51351 0.0
C209 C 0.3731 0.80772 0.49111 0.0
H210 H 0.33969 0.83279 0.56092 0.0
C211 C 0.40353 0.77795 0.50022 0.0
H212 H 0.32618 0.84142 0.5073 0.0
C213 C 0.41131 0.77359 0.53104 0.0
C214 C 0.38881 0.79792 0.55341 0.0
H215 H 0.42193 0.76722 0.48364 0.0
H216 H 0.43545 0.75909 0.53724 0.0
C217 C 0.35768 0.81449 0.54434 0.0
C218 C 0.63932 0.20501 0.53399 0.0
C219 C 0.6617 0.17955 0.55641 0.0
H220 H 0.62897 0.21385 0.48657 0.0
C221 C 0.69288 0.16357 0.54749 0.0
H222 H 0.61514 0.21917 0.54008 0.0
C223 C 0.70081 0.16 0.5167 0.0
C224 C 0.67777 0.17304 0.4942 0.0
H225 H 0.71078 0.1445 0.56413 0.0
H226 H 0.72462 0.1388 0.51058 0.0
C227 C 0.64728 0.20222 0.50323 0.0
C228 C 0.35796 0.19331 0.04456 0.0
C229 C 0.38919 0.20482 0.05394 0.0
H230 H 0.32651 0.17065 1.00724 0.0
C231 C 0.41219 0.22519 0.03179 0.0
H232 H 0.33957 0.17844 0.06095 0.0
C233 C 0.40466 0.22129 1.00091 0.0
C234 C 0.37397 0.1961 0.99151 0.0
H235 H 0.43643 0.23583 0.03821 0.0
H236 H 0.42335 0.22867 0.98451 0.0
C237 C 0.35046 0.1886 1.01367 0.0
C238 C 0.69865 0.81412 1.01787 0.0
C239 C 0.67581 0.80075 0.99517 0.0
H240 H 0.70822 0.83048 0.06534 0.0
C241 C 0.64516 0.77199 1.00392 0.0
H242 H 0.72257 0.83493 1.01196 0.0
C243 C 0.63689 0.76978 0.03463 0.0
C244 C 0.6591 0.79574 0.05724 0.0
H245 H 0.627 0.76014 0.98709 0.0
H246 H 0.61263 0.75587 0.04049 0.0
C247 C 0.69041 0.81139 0.04857 0.0
C248 C 0.85504 0.3108 0.54487 0.0
C249 C 0.88612 0.29121 0.55372 0.0
H250 H 0.82341 0.34018 0.50805 0.0
C251 C 0.90823 0.26378 0.53123 0.0
H252 H 0.83734 0.33147 0.56158 0.0
C253 C 0.90021 0.26816 0.50049 0.0
C254 C 0.86993 0.30106 0.49155 0.0
H255 H 0.93231 0.24681 0.53726 0.0
H256 H 0.91839 0.25486 0.4838 0.0
C257 C 0.84705 0.31605 0.5141 0.0
C258 C 0.13912 0.69906 0.53432 0.0
C259 C 0.16133 0.67332 0.55686 0.0
H260 H 0.12877 0.70413 0.48687 0.0
C261 C 0.1924 0.65358 0.54804 0.0
H262 H 0.11505 0.71607 0.54034 0.0
C263 C 0.20026 0.64606 0.51729 0.0
C264 C 0.17728 0.65902 0.49475 0.0
H265 H 0.21019 0.63428 0.56477 0.0
H266 H 0.22389 0.62171 0.51128 0.0
C267 C 0.14702 0.69248 0.50358 0.0
C268 C 0.91339 0.69536 1.01526 0.0
C269 C 0.89092 0.67045 0.99283 0.0
H270 H 0.92381 0.70342 0.06268 0.0
C271 C 0.85968 0.65537 1.00173 0.0
H272 H 0.93762 0.70894 1.00918 0.0
C273 C 0.85176 0.65179 0.03251 0.0
C274 C 0.87487 0.66384 0.05501 0.0
H275 H 0.8417 0.63691 0.98508 0.0
H276 H 0.82788 0.63109 0.03861 0.0
C277 C 0.90544 0.6925 0.04602 0.0
C278 C 0.20402 0.31322 0.03527 0.0
C279 C 0.18101 0.29545 0.05757 0.0
H280 H 0.21397 0.33518 0.98801 0.0
C281 C 0.15064 0.26483 0.04818 0.0
H282 H 0.22772 0.33583 0.04165 0.0
C283 C 0.14274 0.26494 1.0174 0.0
C284 C 0.16503 0.29485 0.99528 0.0
H285 H 0.13236 0.24935 0.06465 0.0
H286 H 0.11864 0.24917 1.01112 0.0
C287 C 0.19613 0.31266 1.00443 0.0
C288 C 0.5382 0.09934 0.40549 0.0
C289 C 0.55919 0.00232 0.40653 0.0
H290 H 0.49053 0.15657 0.40415 0.0
C291 C 0.54708 0.8852 0.40745 0.0
H292 H 0.54665 0.19099 0.40481 0.0
C293 C 0.51478 0.86565 0.40703 0.0
C294 C 0.49381 0.96273 0.40573 0.0
H295 H 0.56253 0.80855 0.40826 0.0
H296 H 0.50628 0.77405 0.40759 0.0
C297 C 0.50594 0.07983 0.40512 0.0
C298 C 0.50345 0.11468 0.17739 0.0
C299 C 0.48773 0.05087 0.15444 0.0
H300 H 0.54717 0.16687 0.19675 0.0
C301 C 0.50546 0.99125 0.13225 0.0
H302 H 0.49058 0.16176 0.19485 0.0
C303 C 0.53824 -0.0038 0.13304 0.0
C304 C 0.55383 0.05906 0.15634 0.0
H305 H 0.49403 0.94222 0.11413 0.0
H306 H 0.55136 0.94889 0.11581 0.0
C307 C 0.53598 0.11792 0.17847 0.0
C308 C 0.53639 0.10418 0.64726 0.0
C309 C 0.55737 0.00728 0.64738 0.0
H310 H 0.48862 0.1605 0.6467 0.0
C311 C 0.54545 0.88984 0.64663 0.0
H312 H 0.54485 0.19588 0.64766 0.0
C313 C 0.51323 0.86973 0.64648 0.0
C314 C 0.49224 0.96661 0.64655 0.0
H315 H 0.56099 0.8134 0.64674 0.0
H316 H 0.50477 0.77802 0.6463 0.0
C317 C 0.50417 0.08408 0.6466 0.0
C318 C 0.53647 0.87589 0.90745 0.0
C319 C 0.5582 0.97098 0.90749 0.0
H320 H 0.48835 0.82334 0.90698 0.0
C321 C 0.5471 0.08935 0.90746 0.0
H322 H 0.54419 0.78344 0.90752 0.0
C323 C 0.51503 0.11205 0.9071 0.0
C324 C 0.4933 0.01694 0.90683 0.0
H325 H 0.56316 0.16457 0.90749 0.0
H326 H 0.5073 0.20449 0.90691 0.0
C327 C 0.5044 0.89859 0.90716 0.0
C328 C 1.01111 0.36969 0.40871 0.0
C329 C 0.9906 0.46825 0.40938 0.0
H330 H 0.05852 0.30913 0.40823 0.0
C331 C 1.00324 0.58449 0.41073 0.0
H332 H 1.00221 0.27869 0.40774 0.0
C333 C 0.03561 0.60174 0.41098 0.0
C334 C 0.05612 0.50319 0.40994 0.0
H335 H 0.98816 0.66227 0.41128 0.0
H336 H 0.04452 0.69274 0.41177 0.0
C337 C 0.04346 0.38692 0.40903 0.0
C338 C 0.04796 0.57982 0.14032 0.0
C339 C 0.06026 0.46327 0.14053 0.0
H340 H 1.00699 0.68895 0.1402 0.0
C341 C 0.0394 0.36515 0.14005 0.0
H342 H 0.06327 0.65731 0.14067 0.0
C343 C 1.00708 0.38302 0.13974 0.0
C344 C 0.99476 0.49953 0.13997 0.0
H345 H 0.04801 0.27387 0.14012 0.0
H346 H 0.99178 0.30548 0.13964 0.0
C347 C 1.01562 0.5977 0.14009 0.0
C348 C 1.01263 0.36309 0.64615 0.0
C349 C 0.99155 0.45968 0.64625 0.0
H350 H 0.06045 0.30741 0.64661 0.0
C351 C 1.00338 0.5773 0.64652 0.0
H352 H 1.00425 0.27129 0.6458 0.0
C353 C 0.03558 0.59782 0.6474 0.0
C354 C 0.05666 0.50123 0.64751 0.0
H355 H 0.98777 0.65353 0.64665 0.0
H356 H 0.04395 0.68963 0.64797 0.0
C357 C 0.04484 0.38364 0.64652 0.0
C358 C 0.03893 0.36416 0.90267 0.0
C359 C 0.05984 0.46179 0.90276 0.0
H360 H 0.9912 0.30615 0.90209 0.0
C361 C 0.04782 0.57883 0.90264 0.0
H362 H 0.04746 0.27277 0.90289 0.0
C363 C 1.0156 0.59777 0.90177 0.0
C364 C 0.99468 0.50015 0.9015 0.0
H365 H 0.06331 0.65583 0.90265 0.0
H366 H 1.00708 0.68917 0.90133 0.0
C367 C 1.00669 0.38313 0.9023 0.0
C368 C 0.27939 0.35602 0.40591 0.0
C369 C 0.24883 0.30939 0.40587 0.0
H370 H 0.32839 0.318 0.40509 0.0
C371 C 0.24461 0.18444 0.40584 0.0
H372 H 0.28341 0.45205 0.4061 0.0
C373 C 0.27039 0.10785 0.40483 0.0
C374 C 0.30094 0.15451 0.40437 0.0
H375 H 0.2214 0.14584 0.40575 0.0
H376 H 0.26635 0.01186 0.40422 0.0
C377 C 0.30518 0.27938 0.40544 0.0
C378 C 0.7608 0.76661 0.41648 0.0
C379 C 0.75628 0.87224 0.3997 0.0
H380 H 0.79265 0.62739 0.42938 0.0
C381 C 0.78159 0.92006 0.38336 0.0
H382 H 0.74185 0.72792 0.42944 0.0
C383 C 0.81049 0.86283 0.38326 0.0
C384 C 0.81504 0.75657 0.39968 0.0
H385 H 0.77904 0.00139 0.3702 0.0
H386 H 0.82921 0.90151 0.36997 0.0
C387 C 0.78997 0.70962 0.4166 0.0
C388 C 0.26416 0.67893 0.13739 0.0
C389 C 0.23965 0.71555 0.11825 0.0
H390 H 0.31101 0.71134 0.15282 0.0
C391 C 0.24468 0.81289 0.09869 0.0
H392 H 0.26115 0.60335 0.15252 0.0
C393 C 0.27308 0.87503 0.09908 0.0
C394 C 0.29739 0.83996 0.11859 0.0
H395 H 0.2264 0.84307 0.08359 0.0
H396 H 0.27586 0.95193 0.08433 0.0
C397 C 0.29285 0.73984 0.13736 0.0
C398 C 0.77548 0.12852 0.12907 0.0
C399 C 0.74557 0.17499 0.13499 0.0
H400 H 0.82469 0.16229 0.12703 0.0
C401 C 0.74279 0.29685 0.14262 0.0
H402 H 0.77849 0.03499 0.12304 0.0
C403 C 0.76939 0.36956 0.14514 0.0
C404 C 0.79936 0.32239 0.13985 0.0
H405 H 0.72017 0.33541 0.14741 0.0
H406 H 0.76643 0.46272 0.15155 0.0
C407 C 0.80204 0.20141 0.13135 0.0
C408 C 0.74405 0.68802 0.63605 0.0
C409 C 0.74861 0.81279 0.63662 0.0
H410 H 0.76522 0.51456 0.63575 0.0
C411 C 0.77931 0.85813 0.63629 0.0
H412 H 0.72075 0.65018 0.63625 0.0
C413 C 0.80486 0.78046 0.63601 0.0
C414 C 0.8003 0.65567 0.63607 0.0
H415 H 0.78368 0.95392 0.63663 0.0
H416 H 0.82816 0.81827 0.63618 0.0
C417 C 0.7696 0.61035 0.6358 0.0
C418 C 0.24423 0.18638 0.63607 0.0
C419 C 0.24841 0.31135 0.63658 0.0
H420 H 0.26595 0.01392 0.63566 0.0
C421 C 0.27896 0.35809 0.63601 0.0
H422 H 0.22105 0.14749 0.63645 0.0
C423 C 0.30475 0.28161 0.63555 0.0
C424 C 0.30058 0.15663 0.63569 0.0
H425 H 0.28304 0.45406 0.63628 0.0
H426 H 0.32793 0.32051 0.63556 0.0
C427 C 0.27002 0.1099 0.63564 0.0
C428 C 0.74767 0.26416 0.9181 0.0
C429 C 0.75137 0.14406 0.90917 0.0
H430 H 0.76976 0.43334 0.92655 0.0
C431 C 0.78159 0.10129 0.90312 0.0
H432 H 0.72475 0.29981 0.923 0.0
C433 C 0.80747 0.17757 0.90534 0.0
C434 C 0.80366 0.29853 0.91345 0.0
H435 H 0.7853 0.00893 0.89636 0.0
H436 H 0.83034 0.1424 0.90001 0.0
C437 C 0.77351 0.34062 0.92012 0.0
C438 C 0.24513 0.79484 0.90548 0.0
C439 C 0.24977 0.67554 0.91455 0.0
H440 H 0.26617 0.96401 0.89493 0.0
C441 C 0.28022 0.63725 0.92138 0.0
H442 H 0.22201 0.82708 0.9 0.0
C443 C 0.30556 0.71572 0.91856 0.0
C444 C 0.30104 0.83401 0.90864 0.0
H445 H 0.28461 0.5459 0.92854 0.0
H446 H 0.32874 0.68293 0.9236 0.0
C447 C 0.27051 0.87309 0.90245 0.0
C448 C 0.37939 0.09877 0.28524 0.0
C449 C 0.38128 -0.00497 0.30339 0.0
H450 H 0.37739 0.17197 0.24036 0.0
C451 C 0.38135 0.88237 0.28911 0.0
H452 H 0.37914 0.18725 0.29545 0.0
C453 C 0.38033 0.87386 0.25742 0.0
C454 C 0.37914 0.97777 0.23926 0.0
H455 H 0.38272 0.8008 0.30235 0.0
H456 H 0.38093 0.7855 0.24716 0.0
C457 C 0.3783 0.09026 0.25359 0.0
C458 C 0.67062 0.11562 0.26154 0.0
C459 C 0.66697 0.01465 0.24253 0.0
H460 H 0.67195 0.1838 0.30705 0.0
C461 C 0.66239 0.90179 0.25587 0.0
H462 H 0.67419 0.20417 0.25206 0.0
C463 C 0.66111 0.89038 0.28744 0.0
C464 C 0.66431 0.99157 0.30644 0.0
H465 H 0.65945 0.82233 0.24196 0.0
H466 H 0.65733 0.80194 0.29691 0.0
C467 C 0.66927 0.10425 0.29312 0.0
C468 C 0.66894 0.09311 0.78932 0.0
C469 C 0.66757 0.98974 0.80766 0.0
H470 H 0.66941 0.16524 0.74427 0.0
C471 C 0.66663 0.87679 0.79356 0.0
H472 H 0.66981 0.18178 0.7994 0.0
C473 C 0.66637 0.86758 0.7619 0.0
C474 C 0.66712 0.97105 0.74356 0.0
H475 H 0.66559 0.79551 0.80695 0.0
H476 H 0.66521 0.77896 0.75182 0.0
C477 C 0.66876 0.08389 0.75766 0.0
C478 C 0.38375 0.09974 0.79108 0.0
C479 C 0.38301 0.9875 0.80541 0.0
H480 H 0.38482 0.19557 0.74916 0.0
C481 C 0.3816 0.8832 0.78729 0.0
H482 H 0.38479 0.18171 0.80429 0.0
C483 C 0.38159 0.89088 0.7556 0.0
C484 C 0.38305 0.00307 0.74127 0.0
H485 H 0.38089 0.79504 0.79756 0.0
H486 H 0.38094 0.80891 0.74236 0.0
C487 C 0.38381 0.10741 0.75941 0.0
C488 C 0.89766 0.5768 0.25519 0.0
C489 C 0.88547 0.47243 0.24179 0.0
H490 H 0.91104 0.66574 0.2962 0.0
C491 C 0.8761 0.37704 0.26067 0.0
H492 H 0.9052 0.65158 0.24133 0.0
C493 C 0.87929 0.38514 0.29221 0.0
C494 C 0.89229 0.48827 0.30554 0.0
H495 H 0.86652 0.2953 0.25106 0.0
H496 H 0.87207 0.30992 0.30608 0.0
C497 C 0.9012 0.58434 0.28667 0.0
C498 C 0.16362 0.36456 0.28927 0.0
C499 C 0.16403 0.46795 0.30775 0.0
H500 H 0.1637 0.29269 0.24413 0.0
C501 C 0.16561 0.58093 0.29385 0.0
H502 H 0.1625 0.27585 0.29921 0.0
C503 C 0.16627 0.59031 0.26222 0.0
C504 C 0.16543 0.48697 0.24374 0.0
H505 H 0.16599 0.6622 0.30737 0.0
H506 H 0.1672 0.67904 0.25228 0.0
C507 C 0.16434 0.37393 0.25765 0.0
C508 C 0.16871 0.5979 0.78916 0.0
C509 C 0.16913 0.49577 0.80796 0.0
H510 H 0.16767 0.66672 0.74381 0.0
C511 C 0.17002 0.38182 0.79439 0.0
H512 H 0.16816 0.68729 0.79883 0.0
C513 C 0.16969 0.37027 0.76278 0.0
C514 C 0.16856 0.47236 0.744 0.0
H515 H 0.17039 0.30146 0.80816 0.0
H516 H 0.1699 0.28087 0.7531 0.0
C517 C 0.16848 0.58636 0.75756 0.0
C518 C 0.88215 0.59237 0.76037 0.0
C519 C 0.88206 0.48998 0.74154 0.0
H520 H 0.88312 0.66179 0.80575 0.0
C521 C 0.8817 0.37616 0.75507 0.0
H522 H 0.8823 0.68167 0.75072 0.0
C523 C 0.88222 0.36502 0.78667 0.0
C524 C 0.88302 0.4674 0.80549 0.0
H525 H 0.88159 0.2956 0.74128 0.0
H526 H 0.8824 0.27572 0.79631 0.0
C527 C 0.88258 0.58123 0.79197 0.0
loop_
_geom_bond_atom_site_label_1
_geom_bond_atom_site_label_2
_geom_bond_distance
_geom_bond_site_symmetry_2
_ccdc_geom_bond_type
Mg0 O7 2.141 . S
Mg0 O8 2.048 . S
Mg0 O9 2.048 1_545 S
Mg0 O12 2.142 . S
C1 O2 1.313 . S
C1 O8 1.195 . S
O2 C1 1.313 . S
C3 O4 1.245 . S
C3 O12 1.293 . S
O4 C3 1.245 . S
C5 O6 1.245 . S
C5 O7 1.289 . S
O6 C5 1.245 . S
O7 Mg0 2.141 . S
O7 C5 1.289 . S
O8 Mg0 2.048 . S
O8 C1 1.195 . S
O9 Mg0 2.048 1_565 S
O9 C10 1.195 1_565 S
C10 O9 1.195 1_545 S
C10 O11 1.313 . S
O11 C10 1.313 . S
O12 Mg0 2.142 . S
O12 C3 1.293 . S
Mg13 O20 2.141 . S
Mg13 O21 2.048 . S
Mg13 O22 2.048 1_565 S
Mg13 O25 2.142 . S
C14 O15 1.313 . S
C14 O21 1.195 . S
O15 C14 1.313 . S
C16 O17 1.245 . S
C16 O25 1.292 . S
O17 C16 1.245 . S
C18 O19 1.245 . S
C18 O20 1.289 . S
O19 C18 1.245 . S
O20 Mg13 2.141 . S
O20 C18 1.289 . S
O21 Mg13 2.048 . S
O21 C14 1.195 . S
O22 Mg13 2.048 1_545 S
O22 C23 1.195 1_545 S
C23 O22 1.195 1_565 S
C23 O24 1.313 . S
O24 C23 1.313 . S
O25 Mg13 2.142 . S
O25 C16 1.292 . S
Mg26 O33 2.141 . S
Mg26 O34 2.048 . S
Mg26 O35 2.048 1_565 S
Mg26 O38 2.142 . S
C27 O28 1.313 . S
C27 O34 1.195 . S
O28 C27 1.313 . S
C29 O30 1.245 . S
C29 O38 1.293 . S
O30 C29 1.245 . S
C31 O32 1.245 . S
C31 O33 1.289 . S
O32 C31 1.245 . S
O33 Mg26 2.141 . S
O33 C31 1.289 . S
O34 Mg26 2.048 . S
O34 C27 1.195 . S
O35 Mg26 2.048 1_545 S
O35 C36 1.195 1_545 S
C36 O35 1.195 1_565 S
C36 O37 1.313 . S
O37 C36 1.313 . S
O38 Mg26 2.142 . S
O38 C29 1.293 . S
Mg39 O46 2.141 . S
Mg39 O47 2.048 . S
Mg39 O48 2.048 1_545 S
Mg39 O51 2.142 . S
C40 O41 1.313 . S
C40 O47 1.195 . S
O41 C40 1.313 . S
C42 O43 1.245 . S
C42 O51 1.292 . S
O43 C42 1.245 . S
C44 O45 1.245 . S
C44 O46 1.289 . S
O45 C44 1.245 . S
O46 Mg39 2.141 . S
O46 C44 1.289 . S
O47 Mg39 2.048 . S
O47 C40 1.195 . S
O48 Mg39 2.048 1_565 S
O48 C49 1.195 1_565 S
C49 O48 1.195 1_545 S
C49 O50 1.313 . S
O50 C49 1.313 . S
O51 Mg39 2.142 . S
O51 C42 1.292 . S
Mg52 O59 2.141 . S
Mg52 O60 2.048 . S
Mg52 O61 2.048 . S
Mg52 O64 2.141 . S
C53 O54 1.313 1_565 S
C53 O60 1.195 . S
O54 C53 1.313 1_545 S
C55 O56 1.245 1_565 S
C55 O64 1.289 . S
O56 C55 1.245 1_545 S
C57 O58 1.245 . S
C57 O59 1.289 . S
O58 C57 1.245 . S
O59 Mg52 2.141 . S
O59 C57 1.289 . S
O60 Mg52 2.048 . S
O60 C53 1.195 . S
O61 Mg52 2.048 . S
O61 C62 1.195 . S
C62 O61 1.195 . S
C62 O63 1.313 1_565 S
O63 C62 1.313 1_545 S
O64 Mg52 2.141 . S
O64 C55 1.289 . S
Mg65 O72 2.141 . S
Mg65 O73 2.048 . S
Mg65 O74 2.048 . S
Mg65 O77 2.141 . S
C66 O67 1.313 1_545 S
C66 O73 1.195 . S
O67 C66 1.313 1_565 S
C68 O69 1.245 1_545 S
C68 O77 1.289 . S
O69 C68 1.245 1_565 S
C70 O71 1.245 . S
C70 O72 1.289 . S
O71 C70 1.245 . S
O72 Mg65 2.141 . S
O72 C70 1.289 . S
O73 Mg65 2.048 . S
O73 C66 1.195 . S
O74 Mg65 2.048 . S
O74 C75 1.195 . S
C75 O74 1.195 . S
C75 O76 1.313 1_545 S
O76 C75 1.313 1_565 S
O77 Mg65 2.141 . S
O77 C68 1.289 . S
Mg78 O85 2.141 . S
Mg78 O86 2.048 . S
Mg78 O87 2.048 . S
Mg78 O90 2.141 . S
C79 O80 1.313 1_545 S
C79 O86 1.195 . S
O80 C79 1.313 1_565 S
C81 O82 1.245 1_545 S
C81 O90 1.289 . S
O82 C81 1.245 1_565 S
C83 O84 1.245 . S
C83 O85 1.289 . S
O84 C83 1.245 . S
O85 Mg78 2.141 . S
O85 C83 1.289 . S
O86 Mg78 2.048 . S
O86 C79 1.195 . S
O87 Mg78 2.048 . S
O87 C88 1.195 . S
C88 O87 1.195 . S
C88 O89 1.313 1_545 S
O89 C88 1.313 1_565 S
O90 Mg78 2.141 . S
O90 C81 1.289 . S
Mg91 O98 2.141 . S
Mg91 O99 2.048 . S
Mg91 O100 2.048 . S
Mg91 O103 2.141 . S
C92 O93 1.313 1_565 S
C92 O99 1.195 . S
O93 C92 1.313 1_545 S
C94 O95 1.245 1_565 S
C94 O103 1.289 . S
O95 C94 1.245 1_545 S
C96 O97 1.245 . S
C96 O98 1.289 . S
O97 C96 1.245 . S
O98 Mg91 2.141 . S
O98 C96 1.289 . S
O99 Mg91 2.048 . S
O99 C92 1.195 . S
O100 Mg91 2.048 . S
O100 C101 1.195 . S
C101 O100 1.195 . S
C101 O102 1.313 1_565 S
O102 C101 1.313 1_545 S
O103 Mg91 2.141 . S
O103 C94 1.289 . S
Mg104 O111 2.141 . S
Mg104 O112 2.048 . S
Mg104 O113 2.048 . S
Mg104 O116 2.141 . S
C105 O106 1.313 . S
C105 O112 1.195 . S
O106 C105 1.313 . S
C107 O108 1.245 . S
C107 O116 1.289 . S
O108 C107 1.245 . S
C109 O110 1.245 . S
C109 O111 1.289 . S
O110 C109 1.245 . S
O111 Mg104 2.141 . S
O111 C109 1.289 . S
O112 Mg104 2.048 . S
O112 C105 1.195 . S
O113 Mg104 2.048 . S
O113 C114 1.195 . S
C114 O113 1.195 . S
C114 O115 1.313 . S
O115 C114 1.313 . S
O116 Mg104 2.141 . S
O116 C107 1.289 . S
Mg117 O124 2.141 . S
Mg117 O125 2.048 . S
Mg117 O126 2.048 . S
Mg117 O129 2.141 . S
C118 O119 1.313 . S
C118 O125 1.195 . S
O119 C118 1.313 . S
C120 O121 1.245 . S
C120 O129 1.289 . S
O121 C120 1.245 . S
C122 O123 1.245 . S
C122 O124 1.289 . S
O123 C122 1.245 . S
O124 Mg117 2.141 . S
O124 C122 1.289 . S
O125 Mg117 2.048 . S
O125 C118 1.195 . S
O126 Mg117 2.048 . S
O126 C127 1.195 . S
C127 O126 1.195 . S
C127 O128 1.313 . S
O128 C127 1.313 . S
O129 Mg117 2.141 . S
O129 C120 1.289 . S
Mg130 O137 2.141 . S
Mg130 O138 2.048 . S
Mg130 O139 2.048 . S
Mg130 O142 2.141 . S
C131 O132 1.313 . S
C131 O138 1.195 . S
O132 C131 1.313 . S
C133 O134 1.245 . S
C133 O142 1.289 . S
O134 C133 1.245 . S
C135 O136 1.245 . S
C135 O137 1.289 . S
O136 C135 1.245 . S
O137 Mg130 2.141 . S
O137 C135 1.289 . S
O138 Mg130 2.048 . S
O138 C131 1.195 . S
O139 Mg130 2.048 . S
O139 C140 1.195 . S
C140 O139 1.195 . S
C140 O141 1.313 . S
O141 C140 1.313 . S
O142 Mg130 2.141 . S
O142 C133 1.289 . S
Mg143 O150 2.141 . S
Mg143 O151 2.048 . S
Mg143 O152 2.048 . S
Mg143 O155 2.141 . S
C144 O145 1.313 . S
C144 O151 1.195 . S
O145 C144 1.313 . S
C146 O147 1.245 . S
C146 O155 1.289 . S
O147 C146 1.245 . S
C148 O149 1.245 . S
C148 O150 1.289 . S
O149 C148 1.245 . S
O150 Mg143 2.141 . S
O150 C148 1.289 . S
O151 Mg143 2.048 . S
O151 C144 1.195 . S
O152 Mg143 2.048 . S
O152 C153 1.195 . S
C153 O152 1.195 . S
C153 O154 1.313 . S
O154 C153 1.313 . S
O155 Mg143 2.141 . S
O155 C146 1.289 . S
Mg156 O163 2.141 . S
Mg156 O164 2.048 . S
Mg156 O165 2.048 . S
Mg156 O168 2.141 . S
C157 O158 1.313 . S
C157 O164 1.195 . S
O158 C157 1.313 . S
C159 O160 1.245 . S
C159 O168 1.289 . S
O160 C159 1.245 . S
C161 O162 1.245 . S
C161 O163 1.289 . S
O162 C161 1.245 . S
O163 Mg156 2.141 . S
O163 C161 1.289 . S
O164 Mg156 2.048 . S
O164 C157 1.195 . S
O165 Mg156 2.048 . S
O165 C166 1.195 . S
C166 O165 1.195 . S
C166 O167 1.313 . S
O167 C166 1.313 . S
O168 Mg156 2.141 . S
O168 C159 1.289 . S
Mg169 O176 2.141 . S
Mg169 O177 2.048 . S
Mg169 O178 2.048 . S
Mg169 O181 2.141 . S
C170 O171 1.313 . S
C170 O177 1.195 . S
O171 C170 1.313 . S
C172 O173 1.245 . S
C172 O181 1.289 . S
O173 C172 1.245 . S
C174 O175 1.245 . S
C174 O176 1.289 . S
O175 C174 1.245 . S
O176 Mg169 2.141 . S
O176 C174 1.289 . S
O177 Mg169 2.048 . S
O177 C170 1.195 . S
O178 Mg169 2.048 . S
O178 C179 1.195 . S
C179 O178 1.195 . S
C179 O180 1.313 . S
O180 C179 1.313 . S
O181 Mg169 2.141 . S
O181 C172 1.289 . S
Mg182 O189 2.141 . S
Mg182 O190 2.048 . S
Mg182 O191 2.048 . S
Mg182 O194 2.141 . S
C183 O184 1.313 . S
C183 O190 1.195 . S
O184 C183 1.313 . S
C185 O186 1.245 . S
C185 O194 1.289 . S
O186 C185 1.245 . S
C187 O188 1.245 . S
C187 O189 1.289 . S
O188 C187 1.245 . S
O189 Mg182 2.141 . S
O189 C187 1.289 . S
O190 Mg182 2.048 . S
O190 C183 1.195 . S
O191 Mg182 2.048 . S
O191 C192 1.195 . S
C192 O191 1.195 . S
C192 O193 1.313 . S
O193 C192 1.313 . S
O194 Mg182 2.141 . S
O194 C185 1.289 . S
Mg195 O202 2.141 . S
Mg195 O203 2.048 . S
Mg195 O204 2.048 . S
Mg195 O207 2.141 . S
C196 O197 1.313 . S
C196 O203 1.195 . S
O197 C196 1.313 . S
C198 O199 1.245 . S
C198 O207 1.289 . S
O199 C198 1.245 . S
C200 O201 1.245 . S
C200 O202 1.289 . S
O201 C200 1.245 . S
O202 Mg195 2.141 . S
O202 C200 1.289 . S
O203 Mg195 2.048 . S
O203 C196 1.195 . S
O204 Mg195 2.048 . S
O204 C205 1.195 . S
C205 O204 1.195 . S
C205 O206 1.313 . S
O206 C205 1.313 . S
O207 Mg195 2.141 . S
O207 C198 1.289 . S
C208 C209 1.387 . S
C208 H212 0.950 . S
C208 C217 1.390 . S
C209 C208 1.387 . S
C209 C211 1.387 . S
H210 C217 0.950 . S
C211 C209 1.387 . S
C211 C213 1.390 . S
C211 H215 0.950 . S
H212 C208 0.950 . S
C213 C211 1.390 . S
C213 C214 1.387 . S
C213 H216 0.950 . S
C214 C213 1.387 . S
C214 C217 1.387 . S
H215 C211 0.950 . S
H216 C213 0.950 . S
C217 C208 1.390 . S
C217 H210 0.950 . S
C217 C214 1.387 . S
C218 C219 1.387 . S
C218 H222 0.950 . S
C218 C227 1.390 . S
C219 C218 1.387 . S
C219 C221 1.387 . S
H220 C227 0.950 . S
C221 C219 1.387 . S
C221 C223 1.390 . S
C221 H225 0.950 . S
H222 C218 0.950 . S
C223 C221 1.390 . S
C223 C224 1.387 . S
C223 H226 0.950 . S
C224 C223 1.387 . S
C224 C227 1.387 . S
H225 C221 0.950 . S
H226 C223 0.950 . S
C227 C218 1.390 . S
C227 H220 0.950 . S
C227 C224 1.387 . S
C228 C229 1.387 . S
C228 H232 0.950 1_565 S
C228 C237 1.390 1_554 S
C229 C228 1.387 . S
C229 C231 1.387 . S
H230 C237 0.950 1_545 S
C231 C229 1.387 . S
C231 C233 1.390 1_554 S
C231 H235 0.950 . S
H232 C228 0.950 1_545 S
C233 C231 1.390 1_556 S
C233 C234 1.387 . S
C233 H236 0.950 . S
C234 C233 1.387 . S
C234 C237 1.387 . S
H235 C231 0.950 . S
H236 C233 0.950 . S
C237 C228 1.390 1_556 S
C237 H230 0.950 1_565 S
C237 C234 1.387 . S
C238 C239 1.387 . S
C238 H242 0.950 . S
C238 C247 1.390 1_556 S
C239 C238 1.387 . S
C239 C241 1.387 . S
H240 C247 0.950 . S
C241 C239 1.387 . S
C241 C243 1.390 1_556 S
C241 H245 0.950 . S
H242 C238 0.950 . S
C243 C241 1.390 1_554 S
C243 C244 1.387 . S
C243 H246 0.950 . S
C244 C243 1.387 . S
C244 C247 1.387 . S
H245 C241 0.950 . S
H246 C243 0.950 . S
C247 C238 1.390 1_554 S
C247 H240 0.950 . S
C247 C244 1.387 . S
C248 C249 1.387 . S
C248 H252 0.950 . S
C248 C257 1.390 . S
C249 C248 1.387 . S
C249 C251 1.387 . S
H250 C257 0.950 . S
C251 C249 1.387 . S
C251 C253 1.390 . S
C251 H255 0.950 . S
H252 C248 0.950 . S
C253 C251 1.390 . S
C253 C254 1.387 . S
C253 H256 0.950 . S
C254 C253 1.387 . S
C254 C257 1.387 . S
H255 C251 0.950 . S
H256 C253 0.950 . S
C257 C248 1.390 . S
C257 H250 0.950 . S
C257 C254 1.387 . S
C258 C259 1.387 . S
C258 H262 0.950 . S
C258 C267 1.390 . S
C259 C258 1.387 . S
C259 C261 1.387 . S
H260 C267 0.950 . S
C261 C259 1.387 . S
C261 C263 1.390 . S
C261 H265 0.950 . S
H262 C258 0.950 . S
C263 C261 1.390 . S
C263 C264 1.387 . S
C263 H266 0.950 . S
C264 C263 1.387 . S
C264 C267 1.387 . S
H265 C261 0.950 . S
H266 C263 0.950 . S
C267 C258 1.390 . S
C267 H260 0.950 . S
C267 C264 1.387 . S
C268 C269 1.387 . S
C268 H272 0.950 . S
C268 C277 1.390 1_556 S
C269 C268 1.387 . S
C269 C271 1.387 . S
H270 C277 0.950 . S
C271 C269 1.387 . S
C271 C273 1.390 1_556 S
C271 H275 0.950 . S
H272 C268 0.950 . S
C273 C271 1.390 1_554 S
C273 C274 1.387 . S
C273 H276 0.950 . S
C274 C273 1.387 . S
C274 C277 1.387 . S
H275 C271 0.950 . S
H276 C273 0.950 . S
C277 C268 1.390 1_554 S
C277 H270 0.950 . S
C277 C274 1.387 . S
C278 C279 1.387 . S
C278 H282 0.950 . S
C278 C287 1.390 1_554 S
C279 C278 1.387 . S
C279 C281 1.387 . S
H280 C287 0.950 . S
C281 C279 1.387 . S
C281 C283 1.390 1_554 S
C281 H285 0.950 . S
H282 C278 0.950 . S
C283 C281 1.390 1_556 S
C283 C284 1.387 . S
C283 H286 0.950 . S
C284 C283 1.387 . S
C284 C287 1.387 . S
H285 C281 0.950 . S
H286 C283 0.950 . S
C287 C278 1.390 1_556 S
C287 H280 0.950 . S
C287 C284 1.387 . S
C288 C289 1.387 . S
C288 H292 0.950 . S
C288 C297 1.390 1_565 S
C289 C288 1.387 . S
C289 C291 1.387 . S
H290 C297 0.950 . S
C291 C289 1.387 . S
C291 C293 1.390 1_565 S
C291 H295 0.950 . S
H292 C288 0.950 . S
C293 C291 1.390 1_545 S
C293 C294 1.387 . S
C293 H296 0.950 . S
C294 C293 1.387 . S
C294 C297 1.387 . S
H295 C291 0.950 . S
H296 C293 0.950 . S
C297 C288 1.390 1_545 S
C297 H290 0.950 . S
C297 C294 1.387 . S
C298 C299 1.387 . S
C298 H302 0.950 . S
C298 C307 1.390 1_565 S
C299 C298 1.387 . S
C299 C301 1.387 . S
H300 C307 0.950 . S
C301 C299 1.387 . S
C301 C303 1.390 1_565 S
C301 H305 0.950 . S
H302 C298 0.950 . S
C303 C301 1.390 1_545 S
C303 C304 1.387 . S
C303 H306 0.950 . S
C304 C303 1.387 . S
C304 C307 1.387 . S
H305 C301 0.950 . S
H306 C303 0.950 . S
C307 C298 1.390 1_545 S
C307 H300 0.950 . S
C307 C304 1.387 . S
C308 C309 1.387 . S
C308 H312 0.950 . S
C308 C317 1.390 1_565 S
C309 C308 1.387 . S
C309 C311 1.387 . S
H310 C317 0.950 . S
C311 C309 1.387 . S
C311 C313 1.390 1_565 S
C311 H315 0.950 . S
H312 C308 0.950 . S
C313 C311 1.390 1_545 S
C313 C314 1.387 . S
C313 H316 0.950 . S
C314 C313 1.387 . S
C314 C317 1.387 . S
H315 C311 0.950 . S
H316 C313 0.950 . S
C317 C308 1.390 1_545 S
C317 H310 0.950 . S
C317 C314 1.387 . S
C318 C319 1.387 . S
C318 H322 0.950 . S
C318 C327 1.390 1_545 S
C319 C318 1.387 . S
C319 C321 1.387 . S
H320 C327 0.950 . S
C321 C319 1.387 . S
C321 C323 1.390 1_545 S
C321 H325 0.950 . S
H322 C318 0.950 . S
C323 C321 1.390 1_565 S
C323 C324 1.387 . S
C323 H326 0.950 . S
C324 C323 1.387 . S
C324 C327 1.387 . S
H325 C321 0.950 . S
H326 C323 0.950 . S
C327 C318 1.390 1_565 S
C327 H320 0.950 . S
C327 C324 1.387 . S
C328 C329 1.387 . S
C328 H332 0.950 . S
C328 C337 1.390 1_655 S
C329 C328 1.387 . S
C329 C331 1.387 . S
H330 C337 0.950 . S
C331 C329 1.387 . S
C331 C333 1.390 1_655 S
C331 H335 0.950 . S
H332 C328 0.950 . S
C333 C331 1.390 1_455 S
C333 C334 1.387 . S
C333 H336 0.950 . S
C334 C333 1.387 . S
C334 C337 1.387 . S
H335 C331 0.950 . S
H336 C333 0.950 . S
C337 C328 1.390 1_455 S
C337 H330 0.950 . S
C337 C334 1.387 . S
C338 C339 1.387 . S
C338 H342 0.950 . S
C338 C347 1.390 1_455 S
C339 C338 1.387 . S
C339 C341 1.387 . S
H340 C347 0.950 . S
C341 C339 1.387 . S
C341 C343 1.390 1_455 S
C341 H345 0.950 . S
H342 C338 0.950 . S
C343 C341 1.390 1_655 S
C343 C344 1.387 . S
C343 H346 0.950 . S
C344 C343 1.387 . S
C344 C347 1.387 . S
H345 C341 0.950 . S
H346 C343 0.950 . S
C347 C338 1.390 1_655 S
C347 H340 0.950 . S
C347 C344 1.387 . S
C348 C349 1.387 . S
C348 H352 0.950 . S
C348 C357 1.390 1_655 S
C349 C348 1.387 . S
C349 C351 1.387 . S
H350 C357 0.950 . S
C351 C349 1.387 . S
C351 C353 1.390 1_655 S
C351 H355 0.950 . S
H352 C348 0.950 . S
C353 C351 1.390 1_455 S
C353 C354 1.387 . S
C353 H356 0.950 . S
C354 C353 1.387 . S
C354 C357 1.387 . S
H355 C351 0.950 . S
H356 C353 0.950 . S
C357 C348 1.390 1_455 S
C357 H350 0.950 . S
C357 C354 1.387 . S
C358 C359 1.387 . S
C358 H362 0.950 . S
C358 C367 1.390 1_455 S
C359 C358 1.387 . S
C359 C361 1.387 . S
H360 C367 0.950 . S
C361 C359 1.387 . S
C361 C363 1.390 1_455 S
C361 H365 0.950 . S
H362 C358 0.950 . S
C363 C361 1.390 1_655 S
C363 C364 1.387 . S
C363 H366 0.950 . S
C364 C363 1.387 . S
C364 C367 1.387 . S
H365 C361 0.950 . S
H366 C363 0.950 . S
C367 C358 1.390 1_655 S
C367 H360 0.950 . S
C367 C364 1.387 . S
C368 C369 1.387 . S
C368 H372 0.950 . S
C368 C377 1.390 . S
C369 C368 1.387 . S
C369 C371 1.387 . S
H370 C377 0.950 . S
C371 C369 1.387 . S
C371 C373 1.390 . S
C371 H375 0.950 . S
H372 C368 0.950 . S
C373 C371 1.390 . S
C373 C374 1.387 . S
C373 H376 0.950 . S
C374 C373 1.387 . S
C374 C377 1.387 . S
H375 C371 0.950 . S
H376 C373 0.950 . S
C377 C368 1.390 . S
C377 H370 0.950 . S
C377 C374 1.387 . S
C378 C379 1.387 . S
C378 H382 0.950 . S
C378 C387 1.390 . S
C379 C378 1.387 . S
C379 C381 1.387 . S
H380 C387 0.950 . S
C381 C379 1.387 . S
C381 C383 1.390 . S
C381 H385 0.950 . S
H382 C378 0.950 . S
C383 C381 1.390 . S
C383 C384 1.387 . S
C383 H386 0.950 . S
C384 C383 1.387 . S
C384 C387 1.387 . S
H385 C381 0.950 . S
H386 C383 0.950 . S
C387 C378 1.390 . S
C387 H380 0.950 . S
C387 C384 1.387 . S
C388 C389 1.387 . S
C388 H392 0.950 . S
C388 C397 1.390 . S
C389 C388 1.387 . S
C389 C391 1.387 . S
H390 C397 0.950 . S
C391 C389 1.387 . S
C391 C393 1.390 . S
C391 H395 0.950 . S
H392 C388 0.950 . S
C393 C391 1.390 . S
C393 C394 1.387 . S
C393 H396 0.950 . S
C394 C393 1.387 . S
C394 C397 1.387 . S
H395 C391 0.950 . S
H396 C393 0.950 . S
C397 C388 1.390 . S
C397 H390 0.950 . S
C397 C394 1.387 . S
C398 C399 1.387 . S
C398 H402 0.950 . S
C398 C407 1.390 . S
C399 C398 1.387 . S
C399 C401 1.387 . S
H400 C407 0.950 . S
C401 C399 1.387 . S
C401 C403 1.390 . S
C401 H405 0.950 . S
H402 C398 0.950 . S
C403 C401 1.390 . S
C403 C404 1.387 . S
C403 H406 0.950 . S
C404 C403 1.387 . S
C404 C407 1.387 . S
H405 C401 0.950 . S
H406 C403 0.950 . S
C407 C398 1.390 . S
C407 H400 0.950 . S
C407 C404 1.387 . S
C408 C409 1.387 . S
C408 H412 0.950 . S
C408 C417 1.390 . S
C409 C408 1.387 . S
C409 C411 1.387 . S
H410 C417 0.950 . S
C411 C409 1.387 . S
C411 C413 1.390 . S
C411 H415 0.950 . S
H412 C408 0.950 . S
C413 C411 1.390 . S
C413 C414 1.387 . S
C413 H416 0.950 . S
C414 C413 1.387 . S
C414 C417 1.387 . S
H415 C411 0.950 . S
H416 C413 0.950 . S
C417 C408 1.390 . S
C417 H410 0.950 . S
C417 C414 1.387 . S
C418 C419 1.387 . S
C418 H422 0.950 . S
C418 C427 1.390 . S
C419 C418 1.387 . S
C419 C421 1.387 . S
H420 C427 0.950 . S
C421 C419 1.387 . S
C421 C423 1.390 . S
C421 H425 0.950 . S
H422 C418 0.950 . S
C423 C421 1.390 . S
C423 C424 1.387 . S
C423 H426 0.950 . S
C424 C423 1.387 . S
C424 C427 1.387 . S
H425 C421 0.950 . S
H426 C423 0.950 . S
C427 C418 1.390 . S
C427 H420 0.950 . S
C427 C424 1.387 . S
C428 C429 1.387 . S
C428 H432 0.950 . S
C428 C437 1.390 . S
C429 C428 1.387 . S
C429 C431 1.387 . S
H430 C437 0.950 . S
C431 C429 1.387 . S
C431 C433 1.390 . S
C431 H435 0.950 . S
H432 C428 0.950 . S
C433 C431 1.390 . S
C433 C434 1.387 . S
C433 H436 0.950 . S
C434 C433 1.387 . S
C434 C437 1.387 . S
H435 C431 0.950 . S
H436 C433 0.950 . S
C437 C428 1.390 . S
C437 H430 0.950 . S
C437 C434 1.387 . S
C438 C439 1.387 . S
C438 H442 0.950 . S
C438 C447 1.390 . S
C439 C438 1.387 . S
C439 C441 1.387 . S
H440 C447 0.950 . S
C441 C439 1.387 . S
C441 C443 1.390 . S
C441 H445 0.950 . S
H442 C438 0.950 . S
C443 C441 1.390 . S
C443 C444 1.387 . S
C443 H446 0.950 . S
C444 C443 1.387 . S
C444 C447 1.387 . S
H445 C441 0.950 . S
H446 C443 0.950 . S
C447 C438 1.390 . S
C447 H440 0.950 . S
C447 C444 1.387 . S
C448 C449 1.387 . S
C448 H452 0.950 . S
C448 C457 1.390 1_545 S
C449 C448 1.387 . S
C449 C451 1.387 . S
H450 C457 0.950 . S
C451 C449 1.387 . S
C451 C453 1.390 1_545 S
C451 H455 0.950 . S
H452 C448 0.950 . S
C453 C451 1.390 1_565 S
C453 C454 1.387 . S
C453 H456 0.950 . S
C454 C453 1.387 . S
C454 C457 1.387 . S
H455 C451 0.950 . S
H456 C453 0.950 . S
C457 C448 1.390 1_565 S
C457 H450 0.950 . S
C457 C454 1.387 . S
C458 C459 1.387 . S
C458 H462 0.950 . S
C458 C467 1.390 1_545 S
C459 C458 1.387 . S
C459 C461 1.387 . S
H460 C467 0.950 . S
C461 C459 1.387 . S
C461 C463 1.390 1_545 S
C461 H465 0.950 . S
H462 C458 0.950 . S
C463 C461 1.390 1_565 S
C463 C464 1.387 . S
C463 H466 0.950 . S
C464 C463 1.387 . S
C464 C467 1.387 . S
H465 C461 0.950 . S
H466 C463 0.950 . S
C467 C458 1.390 1_565 S
C467 H460 0.950 . S
C467 C464 1.387 . S
C468 C469 1.387 . S
C468 H472 0.950 . S
C468 C477 1.390 1_545 S
C469 C468 1.387 . S
C469 C471 1.387 . S
H470 C477 0.950 . S
C471 C469 1.387 . S
C471 C473 1.390 1_545 S
C471 H475 0.950 . S
H472 C468 0.950 . S
C473 C471 1.390 1_565 S
C473 C474 1.387 . S
C473 H476 0.950 . S
C474 C473 1.387 . S
C474 C477 1.387 . S
H475 C471 0.950 . S
H476 C473 0.950 . S
C477 C468 1.390 1_565 S
C477 H470 0.950 . S
C477 C474 1.387 . S
C478 C479 1.387 . S
C478 H482 0.950 . S
C478 C487 1.390 1_565 S
C479 C478 1.387 . S
C479 C481 1.387 . S
H480 C487 0.950 . S
C481 C479 1.387 . S
C481 C483 1.390 1_565 S
C481 H485 0.950 . S
H482 C478 0.950 . S
C483 C481 1.390 1_545 S
C483 C484 1.387 . S
C483 H486 0.950 . S
C484 C483 1.387 . S
C484 C487 1.387 . S
H485 C481 0.950 . S
H486 C483 0.950 . S
C487 C478 1.390 1_545 S
C487 H480 0.950 . S
C487 C484 1.387 . S
C488 C489 1.387 . S
C488 H492 0.950 . S
C488 C497 1.390 . S
C489 C488 1.387 . S
C489 C491 1.387 . S
H490 C497 0.950 . S
C491 C489 1.387 . S
C491 C493 1.390 . S
C491 H495 0.950 . S
H492 C488 0.950 . S
C493 C491 1.390 . S
C493 C494 1.387 . S
C493 H496 0.950 . S
C494 C493 1.387 . S
C494 C497 1.387 . S
H495 C491 0.950 . S
H496 C493 0.950 . S
C497 C488 1.390 . S
C497 H490 0.950 . S
C497 C494 1.387 . S
C498 C499 1.387 . S
C498 H502 0.950 . S
C498 C507 1.390 . S
C499 C498 1.387 . S
C499 C501 1.387 . S
H500 C507 0.950 . S
C501 C499 1.387 . S
C501 C503 1.390 . S
C501 H505 0.950 . S
H502 C498 0.950 . S
C503 C501 1.390 . S
C503 C504 1.387 . S
C503 H506 0.950 . S
C504 C503 1.387 . S
C504 C507 1.387 . S
H505 C501 0.950 . S
H506 C503 0.950 . S
C507 C498 1.390 . S
C507 H500 0.950 . S
C507 C504 1.387 . S
C508 C509 1.387 . S
C508 H512 0.950 . S
C508 C517 1.390 . S
C509 C508 1.387 . S
C509 C511 1.387 . S
H510 C517 0.950 . S
C511 C509 1.387 . S
C511 C513 1.390 . S
C511 H515 0.950 . S
H512 C508 0.950 . S
C513 C511 1.390 . S
C513 C514 1.387 . S
C513 H516 0.950 . S
C514 C513 1.387 . S
C514 C517 1.387 . S
H515 C511 0.950 . S
H516 C513 0.950 . S
C517 C508 1.390 . S
C517 H510 0.950 . S
C517 C514 1.387 . S
C518 C519 1.387 . S
C518 H522 0.950 . S
C518 C527 1.390 . S
C519 C518 1.387 . S
C519 C521 1.387 . S
H520 C527 0.950 . S
C521 C519 1.387 . S
C521 C523 1.390 . S
C521 H525 0.950 . S
H522 C518 0.950 . S
C523 C521 1.390 . S
C523 C524 1.387 . S
C523 H526 0.950 . S
C524 C523 1.387 . S
C524 C527 1.387 . S
H525 C521 0.950 . S
H526 C523 0.950 . S
C527 C518 1.390 . S
C527 H520 0.950 . S
C527 C524 1.387 . S
C209 C1 1.520 . S
C214 C66 1.509 . S
C219 C53 1.510 . S
C224 C14 1.521 . S
C229 C27 1.520 . S
C234 C92 1.509 . S
C239 C79 1.509 . S
C244 C40 1.520 . S
C249 C170 1.509 . S
C254 C105 1.520 . S
C259 C157 1.510 . S
C264 C118 1.521 . S
C269 C196 1.510 . S
C274 C131 1.521 . S
C279 C144 1.520 . S
C284 C183 1.509 . S
C289 C23 1.510 . S
C294 C10 1.510 . S
C299 C36 1.507 . S
C304 C49 1.507 . S
C309 C62 1.535 . S
C314 C75 1.535 . S
C319 C88 1.535 . S
C324 C101 1.535 . S
C329 C114 1.507 . S
C334 C127 1.507 . S
C339 C153 1.510 . S
C344 C140 1.510 . S
C349 C179 1.535 . S
C354 C166 1.535 . S
C359 C192 1.535 . S
C364 C205 1.535 . S
C369 C122 1.499 . S
C374 C5 1.499 . S
C379 C18 1.499 . S
C384 C109 1.499 . S
C389 C148 1.499 . S
C394 C31 1.499 . S
C399 C44 1.502 . S
C404 C135 1.502 . S
C409 C57 1.536 . S
C414 C174 1.536 . S
C419 C161 1.536 . S
C424 C70 1.536 . S
C429 C83 1.536 . S
C434 C200 1.536 . S
C439 C187 1.536 . S
C444 C96 1.536 . S
C449 C3 1.540 . S
C454 C29 1.540 . S
C459 C42 1.539 . S
C464 C16 1.539 . S
C469 C81 1.502 . S
C474 C55 1.502 . S
C479 C94 1.502 . S
C484 C68 1.502 . S
C489 C133 1.540 . S
C494 C107 1.540 . S
C499 C120 1.539 . S
C504 C146 1.539 . S
C509 C185 1.502 . S
C514 C159 1.502 . S
C519 C172 1.502 . S
C524 C198 1.502 . S
