# Generated by pormake.
# Topology una, (4)-cn, num edge types: 1
# Building blocks:
#     Node 0, Type 0, BuildingBlock: AZAVOO_clean_sbu_0, # of connection points: 4
#     Node 1, Type 0, BuildingBlock: AZAVOO_clean_sbu_0, # of connection points: 4
#     Node 2, Type 0, BuildingBlock: AZAVOO_clean_sbu_0, # of connection points: 4
#     Node 3, Type 0, BuildingBlock: AZAVOO_clean_sbu_0, # of connection points: 4
#     Node 4, Type 0, BuildingBlock: AZAVOO_clean_sbu_0, # of connection points: 4
#     Node 5, Type 0, BuildingBlock: AZAVOO_clean_sbu_0, # of connection points: 4
#     Node 6, Type 0, BuildingBlock: AZAVOO_clean_sbu_0, # of connection points: 4
#     Node 7, Type 0, BuildingBlock: AZAVOO_clean_sbu_0, # of connection points: 4
#     Node 8, Type 0, BuildingBlock: AZAVOO_clean_sbu_0, # of connection points: 4
#     Node 9, Type 0, BuildingBlock: AZAVOO_clean_sbu_0, # of connection points: 4
#     Node 10, Type 0, BuildingBlock: AZAVOO_clean_sbu_0, # of connection points: 4
#     Node 11, Type 0, BuildingBlock: AZAVOO_clean_sbu_0, # of connection points: 4
#     Edge 12, Type (0, 0), BuildingBlock: TEMPAE_clean_linker_10, # of connection points: 2
#     Edge 13, Type (0, 0), BuildingBlock: TEMPAE_clean_linker_10, # of connection points: 2
#     Edge 14, Type (0, 0), BuildingBlock: TEMPAE_clean_linker_10, # of connection points: 2
#     Edge 15, Type (0, 0), BuildingBlock: TEMPAE_clean_linker_10, # of connection points: 2
#     Edge 16, Type (0, 0), BuildingBlock: TEMPAE_clean_linker_10, # of connection points: 2
#     Edge 17, Type (0, 0), BuildingBlock: TEMPAE_clean_linker_10, # of connection points: 2
#     Edge 18, Type (0, 0), BuildingBlock: TEMPAE_clean_linker_10, # of connection points: 2
#     Edge 19, Type (0, 0), BuildingBlock: TEMPAE_clean_linker_10, # of connection points: 2
#     Edge 20, Type (0, 0), BuildingBlock: TEMPAE_clean_linker_10, # of connection points: 2
#     Edge 21, Type (0, 0), BuildingBlock: TEMPAE_clean_linker_10, # of connection points: 2
#     Edge 22, Type (0, 0), BuildingBlock: TEMPAE_clean_linker_10, # of connection points: 2
#     Edge 23, Type (0, 0), BuildingBlock: TEMPAE_clean_linker_10, # of connection points: 2
#     Edge 24, Type (0, 0), BuildingBlock: TEMPAE_clean_linker_10, # of connection points: 2
#     Edge 25, Type (0, 0), BuildingBlock: TEMPAE_clean_linker_10, # of connection points: 2
#     Edge 26, Type (0, 0), BuildingBlock: TEMPAE_clean_linker_10, # of connection points: 2
#     Edge 27, Type (0, 0), BuildingBlock: TEMPAE_clean_linker_10, # of connection points: 2
#     Edge 28, Type (0, 0), BuildingBlock: TEMPAE_clean_linker_10, # of connection points: 2
#     Edge 29, Type (0, 0), BuildingBlock: TEMPAE_clean_linker_10, # of connection points: 2
#     Edge 30, Type (0, 0), BuildingBlock: TEMPAE_clean_linker_10, # of connection points: 2
#     Edge 31, Type (0, 0), BuildingBlock: TEMPAE_clean_linker_10, # of connection points: 2
#     Edge 32, Type (0, 0), BuildingBlock: TEMPAE_clean_linker_10, # of connection points: 2
#     Edge 33, Type (0, 0), BuildingBlock: TEMPAE_clean_linker_10, # of connection points: 2
#     Edge 34, Type (0, 0), BuildingBlock: TEMPAE_clean_linker_10, # of connection points: 2
#     Edge 35, Type (0, 0), BuildingBlock: TEMPAE_clean_linker_10, # of connection points: 2
# Relax obj value: 0.178
# Max RMSD: 0.208
# Mean RMSD: 0.204
data_MOF--net-una--node1-AZAVOO_clean_sbu_0--edge1-TEMPAE_clean_linker_10
_symmetry_space_group_name_H-M    P1
_symmetry_Int_Tables_number       1
_symmetry_cell_setting            triclinic
loop_
_symmetry_equiv_pos_as_xyz
'x, y, z'
_cell_length_a     58.5714
_cell_length_b     56.121958
_cell_length_c     21.984531
_cell_angle_alpha  89.866293
_cell_angle_beta   89.979374
_cell_angle_gamma 121.42593
loop_
_atom_site_label
_atom_site_type_symbol
_atom_site_fract_x
_atom_site_fract_y
_atom_site_fract_z
_atom_type_partial_charge
Mg0 Mg 0.15047 0.44934 0.00534 0.0
O1 O 0.15353 0.48419 0.06527 0.0
O2 O 0.19346 0.50607 0.11047 0.0
Mg3 Mg 0.21583 0.48469 0.08076 0.0
C4 C 0.17076 0.50327 0.10009 0.0
C5 C 0.1044 0.42758 0.91545 0.0
O6 O 0.11886 0.41767 0.89465 0.0
O7 O 0.17824 0.48209 0.93615 0.0
O8 O 0.21768 0.50083 0.98416 0.0
O9 O 0.13636 0.41854 0.0833 0.0
O10 O 0.1785 0.44662 0.05538 0.0
C11 C 0.20361 0.49902 0.93797 0.0
C12 C 0.16147 0.42727 0.09057 0.0
O13 O 0.11267 0.44333 0.9618 0.0
Mg14 Mg 0.67509 0.08956 0.25902 0.0
O15 O 0.69328 0.11312 0.17133 0.0
O16 O 0.66995 0.08813 0.09107 0.0
Mg17 Mg 0.6339 0.04837 0.13083 0.0
C18 C 0.68972 0.11005 0.11415 0.0
C19 C 0.716 0.1283 0.35389 0.0
O20 O 0.70871 0.10372 0.37702 0.0
O21 O 0.64286 0.10093 0.25411 0.0
O22 O 0.61841 0.07417 0.17639 0.0
O23 O 0.69809 0.0683 0.24589 0.0
O24 O 0.6567 0.0517 0.21345 0.0
C25 C 0.62281 0.09182 0.21833 0.0
C26 C 0.67765 0.0498 0.21513 0.0
O27 O 0.70439 0.12966 0.30655 0.0
Mg28 Mg 0.58779 0.72247 0.35753 0.0
O29 O 0.54371 0.68809 0.3704 0.0
O30 O 0.52287 0.70656 0.41816 0.0
Mg31 Mg 0.55288 0.75299 0.43214 0.0
C32 C 0.52279 0.68578 0.39436 0.0
C33 C 0.58721 0.66975 0.31479 0.0
O34 O 0.57503 0.66138 0.36762 0.0
O35 O 0.57682 0.74134 0.27881 0.0
O36 O 0.55646 0.75993 0.32885 0.0
O37 O 0.59725 0.71378 0.45108 0.0
O38 O 0.58514 0.74425 0.42955 0.0
C39 C 0.56497 0.75509 0.27966 0.0
C40 C 0.59093 0.7315 0.46941 0.0
O41 O 0.59423 0.69405 0.29574 0.0
Mg42 Mg 0.84581 0.5451 0.53017 0.0
O43 O 0.84633 0.51032 0.58438 0.0
O44 O 0.80737 0.48645 0.63414 0.0
Mg45 Mg 0.78246 0.50607 0.61474 0.0
C46 C 0.83028 0.49053 0.61987 0.0
C47 C 0.90376 0.56018 0.50523 0.0
O48 O 0.90285 0.55909 0.56495 0.0
O49 O 0.81668 0.51279 0.46284 0.0
O50 O 0.77822 0.49243 0.51522 0.0
O51 O 0.86225 0.57538 0.60795 0.0
O52 O 0.81932 0.54512 0.59145 0.0
C53 C 0.79142 0.49561 0.46646 0.0
C54 C 0.83757 0.56433 0.62485 0.0
O55 O 0.88261 0.55395 0.47609 0.0
Mg56 Mg 0.31472 0.90314 0.75779 0.0
O57 O 0.29821 0.87773 0.67165 0.0
O58 O 0.32182 0.90146 0.59017 0.0
Mg59 Mg 0.35691 0.94241 0.6277 0.0
C60 C 0.30229 0.87968 0.61456 0.0
C61 C 0.26108 0.85069 0.79422 0.0
O62 O 0.25382 0.86035 0.74842 0.0
O63 O 0.34771 0.89264 0.75936 0.0
O64 O 0.3722 0.918 0.67978 0.0
O65 O 0.29182 0.92435 0.73741 0.0
O66 O 0.33339 0.94005 0.708 0.0
C67 C 0.36796 0.90138 0.72409 0.0
C68 C 0.31278 0.9425 0.70729 0.0
O69 O 0.28549 0.8639 0.81062 0.0
Mg70 Mg 0.43121 0.29906 0.84594 0.0
O71 O 0.47569 0.33273 0.85795 0.0
O72 O 0.49589 0.31234 0.90067 0.0
Mg73 Mg 0.46532 0.266 0.91394 0.0
C74 C 0.4965 0.33385 0.87941 0.0
C75 C 0.40248 0.31958 0.76252 0.0
O76 O 0.38385 0.2932 0.7705 0.0
O77 O 0.44097 0.28058 0.76444 0.0
O78 O 0.46038 0.26002 0.81068 0.0
O79 O 0.42197 0.30602 0.94156 0.0
O80 O 0.43391 0.27597 0.91555 0.0
C81 C 0.45188 0.26591 0.76286 0.0
C82 C 0.42815 0.28785 0.95742 0.0
O83 O 0.42524 0.32878 0.78684 0.0
Mg84 Mg 0.58858 0.90434 0.80814 0.0
O85 O 0.57911 0.88258 0.9002 0.0
O86 O 0.58234 0.91129 0.97427 0.0
Mg87 Mg 0.58944 0.95083 0.92589 0.0
C88 C 0.57835 0.88781 0.95624 0.0
C89 C 0.58288 0.84659 0.78454 0.0
O90 O 0.59592 0.85293 0.83631 0.0
O91 O 0.54607 0.89629 0.80483 0.0
O92 O 0.54896 0.92571 0.8771 0.0
O93 O 0.63209 0.92278 0.82805 0.0
O94 O 0.60923 0.94297 0.85036 0.0
C95 C 0.53569 0.90741 0.83632 0.0
C96 C 0.63105 0.9428 0.85439 0.0
O97 O 0.57636 0.86314 0.7621 0.0
Mg98 Mg 0.70719 0.56028 0.04509 0.0
O99 O 0.67564 0.52662 0.98287 0.0
O100 O 0.69347 0.50504 0.93533 0.0
Mg101 Mg 0.73689 0.52532 0.9667 0.0
C102 C 0.67372 0.50804 0.94633 0.0
C103 C 0.68262 0.58142 0.13577 0.0
O104 O 0.70707 0.59164 0.15623 0.0
O105 O 0.7013 0.52628 0.11163 0.0
O106 O 0.72148 0.50739 0.06183 0.0
O107 O 0.7242 0.59194 0.96902 0.0
O108 O 0.73799 0.56335 0.99476 0.0
C109 C 0.70907 0.50882 0.10822 0.0
C110 C 0.74038 0.58303 0.96051 0.0
O111 O 0.67525 0.56581 0.08922 0.0
Mg112 Mg 0.13214 0.70724 0.22393 0.0
O113 O 0.14483 0.67561 0.20482 0.0
O114 O 0.18596 0.69848 0.16498 0.0
Mg115 Mg 0.20049 0.74498 0.16311 0.0
C116 C 0.1651 0.67591 0.18247 0.0
C117 C 0.08085 0.68178 0.29927 0.0
O118 O 0.08794 0.70809 0.29378 0.0
O119 O 0.15821 0.72259 0.30936 0.0
O120 O 0.19906 0.74557 0.26705 0.0
O121 O 0.11874 0.70437 0.12648 0.0
O122 O 0.15907 0.73504 0.16123 0.0
C123 C 0.18372 0.73732 0.3136 0.0
C124 C 0.1428 0.72507 0.11638 0.0
O125 O 0.09567 0.67396 0.27568 0.0
Mg126 Mg 0.40801 0.10137 0.30857 0.0
O127 O 0.4203 0.12624 0.39654 0.0
O128 O 0.41908 0.10007 0.47443 0.0
Mg129 Mg 0.40983 0.05856 0.43248 0.0
C130 C 0.4228 0.12299 0.45295 0.0
C131 C 0.41495 0.15955 0.27659 0.0
O132 O 0.40421 0.15618 0.33077 0.0
O133 O 0.45028 0.10852 0.30064 0.0
O134 O 0.44869 0.08125 0.37688 0.0
O135 O 0.36482 0.08332 0.3344 0.0
O136 O 0.38855 0.06416 0.35697 0.0
C137 C 0.46109 0.09797 0.33273 0.0
C138 C 0.36655 0.06386 0.36168 0.0
O139 O 0.41931 0.14112 0.25583 0.0
Mg140 Mg 0.30272 0.4534 0.5147 0.0
O141 O 0.33937 0.48935 0.46599 0.0
O142 O 0.32546 0.51417 0.41569 0.0
Mg143 Mg 0.28051 0.49411 0.42879 0.0
C144 C 0.34397 0.50992 0.43203 0.0
C145 C 0.34409 0.43654 0.54342 0.0
O146 O 0.34508 0.43786 0.48371 0.0
O147 O 0.30419 0.48452 0.58355 0.0
O148 O 0.28769 0.50602 0.52933 0.0
O149 O 0.29059 0.42466 0.43389 0.0
O150 O 0.27785 0.45482 0.45098 0.0
C151 C 0.29643 0.50196 0.57912 0.0
C152 C 0.27751 0.43624 0.41653 0.0
O153 O 0.32921 0.44324 0.57126 0.0
Mg154 Mg 0.86343 0.2806 0.71781 0.0
O155 O 0.85353 0.31508 0.70729 0.0
O156 O 0.81214 0.29528 0.66942 0.0
Mg157 Mg 0.79491 0.24862 0.65848 0.0
C158 C 0.8338 0.31667 0.68787 0.0
C159 C 0.91761 0.33385 0.75054 0.0
O160 O 0.91222 0.34165 0.69882 0.0
O161 O 0.83704 0.26348 0.80311 0.0
O162 O 0.79632 0.24401 0.76123 0.0
O163 O 0.87729 0.28661 0.6199 0.0
O164 O 0.83587 0.2577 0.65168 0.0
C165 C 0.81151 0.24977 0.80742 0.0
C166 C 0.85239 0.26913 0.60742 0.0
O167 O 0.90084 0.30988 0.77205 0.0
C168 C 0.16483 0.41532 0.19818 0.0
C169 C 0.17138 0.4161 0.13685 0.0
C170 C 0.18006 0.41208 0.24314 0.0
C171 C 0.20193 0.40938 0.22555 0.0
C172 C 0.20642 0.40691 0.1634 0.0
C173 C 0.19122 0.41061 0.11972 0.0
C174 C 0.17457 0.41456 0.30914 0.0
C175 C 0.22915 0.40352 0.14271 0.0
C176 C 0.26315 0.44956 0.32401 0.0
C177 C 0.26187 0.42845 0.36034 0.0
C178 C 0.24408 0.44338 0.2789 0.0
C179 C 0.22323 0.41531 0.27006 0.0
C180 C 0.22283 0.39364 0.30411 0.0
C181 C 0.24232 0.40052 0.34914 0.0
C182 C 0.24563 0.46711 0.24261 0.0
C183 C 0.20107 0.3635 0.29542 0.0
H184 H 0.14945 0.41961 0.21108 0.0
H185 H 0.19599 0.41095 0.0719 0.0
H186 H 0.17592 0.39889 0.33719 0.0
H187 H 0.1899 0.43556 0.32606 0.0
H188 H 0.15452 0.41179 0.31572 0.0
H189 H 0.22662 0.39639 0.09474 0.0
H190 H 0.24826 0.42389 0.1462 0.0
H191 H 0.23083 0.38838 0.17201 0.0
H192 H 0.27861 0.47109 0.33233 0.0
H193 H 0.24126 0.38428 0.37802 0.0
H194 H 0.22751 0.46818 0.25116 0.0
H195 H 0.24626 0.46347 0.19323 0.0
H196 H 0.26352 0.48764 0.25432 0.0
H197 H 0.18209 0.36002 0.31488 0.0
H198 H 0.20596 0.34901 0.31817 0.0
H199 H 0.19758 0.35823 0.24637 0.0
C200 C 0.8197 0.26357 0.53041 0.0
C201 C 0.84211 0.26205 0.54528 0.0
C202 C 0.80174 0.24618 0.4858 0.0
C203 C 0.80669 0.22713 0.45536 0.0
C204 C 0.83147 0.22877 0.46366 0.0
C205 C 0.84899 0.24626 0.50919 0.0
C206 C 0.77574 0.24539 0.47821 0.0
C207 C 0.83788 0.20947 0.4305 0.0
C208 C 0.74614 0.1542 0.44024 0.0
C209 C 0.73891 0.15383 0.37953 0.0
C210 C 0.76823 0.17799 0.4651 0.0
C211 C 0.78386 0.20178 0.4278 0.0
C212 C 0.77687 0.20142 0.36611 0.0
C213 C 0.75423 0.17748 0.34279 0.0
C214 C 0.77467 0.17771 0.5316 0.0
C215 C 0.79344 0.22609 0.32473 0.0
H216 H 0.81472 0.27621 0.55804 0.0
H217 H 0.86639 0.24514 0.52092 0.0
H218 H 0.76939 0.24233 0.42994 0.0
H219 H 0.75984 0.22753 0.50465 0.0
H220 H 0.77728 0.26483 0.49505 0.0
H221 H 0.85972 0.21763 0.43064 0.0
H222 H 0.82756 0.18877 0.45334 0.0
H223 H 0.83077 0.20634 0.38277 0.0
H224 H 0.73429 0.13594 0.46861 0.0
H225 H 0.74888 0.17705 0.29543 0.0
H226 H 0.77451 0.19495 0.55585 0.0
H227 H 0.79502 0.18111 0.53636 0.0
H228 H 0.76021 0.1577 0.55439 0.0
H229 H 0.79535 0.24526 0.34419 0.0
H230 H 0.78473 0.22283 0.27841 0.0
H231 H 0.81395 0.22985 0.3208 0.0
C232 C 0.56438 0.72557 0.56139 0.0
C233 C 0.58945 0.73705 0.53364 0.0
C234 C 0.56119 0.73787 0.61361 0.0
C235 C 0.5835 0.76258 0.63679 0.0
C236 C 0.60931 0.77246 0.6122 0.0
C237 C 0.61196 0.75945 0.5607 0.0
C238 C 0.53352 0.72619 0.63968 0.0
C239 C 0.63363 0.7988 0.63532 0.0
C240 C 0.57404 0.82127 0.68636 0.0
C241 C 0.57918 0.82257 0.74884 0.0
C242 C 0.57433 0.80102 0.6499 0.0
C243 C 0.57933 0.78122 0.67686 0.0
C244 C 0.58267 0.78119 0.74056 0.0
C245 C 0.58287 0.80213 0.77584 0.0
C246 C 0.57079 0.80188 0.58196 0.0
C247 C 0.5872 0.75989 0.77109 0.0
H248 H 0.54697 0.70839 0.53958 0.0
H249 H 0.63123 0.76846 0.53821 0.0
H250 H 0.53419 0.72777 0.69003 0.0
H251 H 0.52491 0.7384 0.62213 0.0
H252 H 0.51994 0.704 0.6266 0.0
H253 H 0.65252 0.8014 0.61728 0.0
H254 H 0.63249 0.81713 0.621 0.0
H255 H 0.63434 0.79879 0.6857 0.0
H256 H 0.5711 0.83695 0.66526 0.0
H257 H 0.58652 0.80285 0.82434 0.0
H258 H 0.55434 0.78132 0.56572 0.0
H259 H 0.58934 0.80636 0.55817 0.0
H260 H 0.56622 0.81805 0.56859 0.0
H261 H 0.57356 0.73875 0.75226 0.0
H262 H 0.58415 0.75926 0.82109 0.0
H263 H 0.608 0.76521 0.76242 0.0
C264 C 0.84047 0.60182 0.69059 0.0
C265 C 0.82995 0.57339 0.67958 0.0
C266 C 0.82946 0.61039 0.73613 0.0
C267 C 0.80769 0.58993 0.77108 0.0
C268 C 0.79799 0.56122 0.7618 0.0
C269 C 0.80928 0.55336 0.71609 0.0
C270 C 0.84033 0.64113 0.74503 0.0
C271 C 0.77519 0.53869 0.79911 0.0
C272 C 0.78552 0.59708 0.92572 0.0
C273 C 0.76058 0.59356 0.91225 0.0
C274 C 0.8029 0.59949 0.87937 0.0
C275 C 0.79479 0.59782 0.81825 0.0
C276 C 0.77092 0.5974 0.80447 0.0
C277 C 0.75396 0.59535 0.85208 0.0
C278 C 0.82834 0.60037 0.89608 0.0
C279 C 0.76183 0.59593 0.73968 0.0
H280 H 0.85634 0.61725 0.66165 0.0
H281 H 0.80163 0.53142 0.70821 0.0
H282 H 0.82546 0.64622 0.72853 0.0
H283 H 0.84374 0.64662 0.79399 0.0
H284 H 0.85938 0.65433 0.71991 0.0
H285 H 0.77028 0.51739 0.78626 0.0
H286 H 0.78037 0.54181 0.84815 0.0
H287 H 0.75701 0.53989 0.793 0.0
H288 H 0.79065 0.59602 0.97267 0.0
H289 H 0.73462 0.59262 0.84198 0.0
H290 H 0.84502 0.61461 0.86543 0.0
H291 H 0.82518 0.57918 0.8911 0.0
H292 H 0.83434 0.60722 0.94383 0.0
H293 H 0.77886 0.61041 0.7101 0.0
H294 H 0.74593 0.60105 0.73617 0.0
H295 H 0.75371 0.57446 0.72214 0.0
C296 C 0.24833 0.8156 0.87765 0.0
C297 C 0.2407 0.82614 0.82907 0.0
C298 C 0.22908 0.79462 0.91565 0.0
C299 C 0.20158 0.78408 0.90496 0.0
C300 C 0.19372 0.79318 0.85343 0.0
C301 C 0.2134 0.81411 0.81598 0.0
C302 C 0.23829 0.78522 0.96981 0.0
C303 C 0.16462 0.78234 0.84034 0.0
C304 C 0.15407 0.72352 0.00745 0.0
C305 C 0.15211 0.73815 0.05658 0.0
C306 C 0.16895 0.73799 0.95546 0.0
C307 C 0.18182 0.76751 0.95329 0.0
C308 C 0.1781 0.78191 0.00131 0.0
C309 C 0.16349 0.76703 0.05258 0.0
C310 C 0.17245 0.72196 0.9051 0.0
C311 C 0.19113 0.8133 0.00066 0.0
H312 H 0.26938 0.82446 0.88748 0.0
H313 H 0.20731 0.82187 0.778 0.0
H314 H 0.23467 0.79352 0.01211 0.0
H315 H 0.22674 0.76211 0.97337 0.0
H316 H 0.25994 0.7926 0.96725 0.0
H317 H 0.16161 0.78765 0.79348 0.0
H318 H 0.15239 0.75935 0.84637 0.0
H319 H 0.15705 0.79171 0.87296 0.0
H320 H 0.14553 0.70117 0.01131 0.0
H321 H 0.16195 0.7782 0.09106 0.0
H322 H 0.19271 0.725 0.90819 0.0
H323 H 0.17082 0.72976 0.85988 0.0
H324 H 0.15746 0.69923 0.90812 0.0
H325 H 0.21316 0.82327 0.0043 0.0
H326 H 0.18414 0.82089 0.03879 0.0
H327 H 0.18689 0.82033 0.95721 0.0
C328 C 0.42167 0.20715 0.26399 0.0
C329 C 0.41978 0.18335 0.23808 0.0
C330 C 0.4248 0.22919 0.22724 0.0
C331 C 0.42537 0.22696 0.16324 0.0
C332 C 0.4238 0.20311 0.13702 0.0
C333 C 0.42134 0.18176 0.17481 0.0
C334 C 0.42717 0.25464 0.25676 0.0
C335 C 0.42404 0.19974 0.06886 0.0
C336 C 0.40403 0.2622 0.04994 0.0
C337 C 0.42837 0.28001 0.02081 0.0
C338 C 0.40292 0.24635 0.10056 0.0
C339 C 0.42684 0.24892 0.12262 0.0
C340 C 0.45177 0.26932 0.0973 0.0
C341 C 0.45218 0.2843 0.04577 0.0
C342 C 0.37591 0.22462 0.12564 0.0
C343 C 0.47778 0.27334 0.12063 0.0
H344 H 0.4207 0.20855 0.313 0.0
H345 H 0.41978 0.16337 0.15457 0.0
H346 H 0.44495 0.27389 0.23882 0.0
H347 H 0.40936 0.25589 0.24556 0.0
H348 H 0.42884 0.25426 0.30705 0.0
H349 H 0.42226 0.17972 0.05587 0.0
H350 H 0.40724 0.20058 0.04791 0.0
H351 H 0.44287 0.21714 0.04925 0.0
H352 H 0.38563 0.25864 0.02966 0.0
H353 H 0.47097 0.298 0.02261 0.0
H354 H 0.37615 0.22448 0.17605 0.0
H355 H 0.37094 0.20364 0.11008 0.0
H356 H 0.35983 0.22813 0.11015 0.0
H357 H 0.47779 0.27254 0.17106 0.0
H358 H 0.49522 0.29355 0.1052 0.0
H359 H 0.48028 0.25627 0.10345 0.0
C360 C 0.18159 0.54323 0.1693 0.0
C361 C 0.16566 0.5249 0.12301 0.0
C362 C 0.17969 0.56637 0.18498 0.0
C363 C 0.16177 0.57158 0.15286 0.0
C364 C 0.1447 0.55241 0.10823 0.0
C365 C 0.14668 0.52917 0.09422 0.0
C366 C 0.19781 0.58601 0.2338 0.0
C367 C 0.12552 0.55736 0.0725 0.0
C368 C 0.14622 0.6256 0.20985 0.0
C369 C 0.16431 0.64922 0.1758 0.0
C370 C 0.1454 0.60024 0.20367 0.0
C371 C 0.16271 0.59836 0.16165 0.0
C372 C 0.18089 0.6221 0.12697 0.0
C373 C 0.18162 0.64728 0.13485 0.0
C374 C 0.12608 0.5755 0.24215 0.0
C375 C 0.1994 0.62085 0.08095 0.0
H376 H 0.19613 0.53994 0.19216 0.0
H377 H 0.13433 0.51519 0.05826 0.0
H378 H 0.21321 0.60603 0.21274 0.0
H379 H 0.18623 0.59078 0.26625 0.0
H380 H 0.20812 0.57725 0.25951 0.0
H381 H 0.11202 0.5393 0.04321 0.0
H382 H 0.11313 0.56158 0.1036 0.0
H383 H 0.13701 0.57605 0.0431 0.0
H384 H 0.1329 0.627 0.24188 0.0
H385 H 0.19551 0.66537 0.10806 0.0
H386 H 0.13715 0.56802 0.26915 0.0
H387 H 0.1119 0.55801 0.21255 0.0
H388 H 0.11443 0.58058 0.27379 0.0
H389 H 0.21266 0.61498 0.1038 0.0
H390 H 0.21207 0.64108 0.05704 0.0
H391 H 0.18755 0.60454 0.04658 0.0
C392 C 0.57813 0.0857 0.1972 0.0
C393 C 0.60262 0.09988 0.22833 0.0
C394 C 0.55723 0.08997 0.21156 0.0
C395 C 0.56094 0.10925 0.2576 0.0
C396 C 0.58622 0.12516 0.28611 0.0
C397 C 0.60672 0.12012 0.27154 0.0
C398 C 0.53053 0.07232 0.18042 0.0
C399 C 0.59115 0.14639 0.33439 0.0
C400 C 0.50387 0.12285 0.27162 0.0
C401 C 0.48812 0.10352 0.31695 0.0
C402 C 0.5285 0.12621 0.25391 0.0
C403 C 0.53728 0.10951 0.28145 0.0
C404 C 0.52193 0.09076 0.32866 0.0
C405 C 0.49775 0.08817 0.34606 0.0
C406 C 0.54465 0.14688 0.20435 0.0
C407 C 0.53035 0.07232 0.35891 0.0
H408 H 0.57471 0.07015 0.16342 0.0
H409 H 0.62567 0.13146 0.29531 0.0
H410 H 0.51562 0.05747 0.21375 0.0
H411 H 0.52308 0.08559 0.16303 0.0
H412 H 0.53161 0.06016 0.1419 0.0
H413 H 0.6128 0.16033 0.34425 0.0
H414 H 0.58283 0.15936 0.32025 0.0
H415 H 0.58086 0.13546 0.37705 0.0
H416 H 0.49677 0.135 0.24924 0.0
H417 H 0.48591 0.07324 0.38132 0.0
H418 H 0.54361 0.1355 0.16226 0.0
H419 H 0.56602 0.15965 0.21763 0.0
H420 H 0.53721 0.16103 0.19391 0.0
H421 H 0.53049 0.05781 0.32491 0.0
H422 H 0.51679 0.05976 0.39679 0.0
H423 H 0.55095 0.08515 0.37709 0.0
C424 C 0.37713 0.5508 0.36992 0.0
C425 C 0.37193 0.53135 0.41622 0.0
C426 C 0.4029 0.57409 0.36109 0.0
C427 C 0.4239 0.5782 0.39996 0.0
C428 C 0.41918 0.55771 0.44415 0.0
C429 C 0.39324 0.53439 0.45153 0.0
C430 C 0.40722 0.59521 0.31273 0.0
C431 C 0.44104 0.56137 0.48658 0.0
C432 C 0.49507 0.63575 0.36121 0.0
C433 C 0.4977 0.65805 0.39583 0.0
C434 C 0.47124 0.60949 0.36229 0.0
C435 C 0.4497 0.60542 0.39927 0.0
C436 C 0.4524 0.62772 0.43492 0.0
C437 C 0.47628 0.65376 0.43253 0.0
C438 C 0.46897 0.58625 0.3233 0.0
C439 C 0.42996 0.62416 0.47543 0.0
H440 H 0.36083 0.54839 0.3419 0.0
H441 H 0.3894 0.51945 0.48738 0.0
H442 H 0.41031 0.61447 0.33467 0.0
H443 H 0.42542 0.60111 0.2857 0.0
H444 H 0.38989 0.58723 0.28135 0.0
H445 H 0.43512 0.54206 0.51287 0.0
H446 H 0.45961 0.56748 0.46086 0.0
H447 H 0.44579 0.57842 0.51915 0.0
H448 H 0.51152 0.63887 0.3327 0.0
H449 H 0.47818 0.67075 0.45988 0.0
H450 H 0.45271 0.57979 0.28954 0.0
H451 H 0.4636 0.5677 0.3518 0.0
H452 H 0.48785 0.59252 0.29858 0.0
H453 H 0.41214 0.61879 0.44749 0.0
H454 H 0.43561 0.64332 0.50182 0.0
H455 H 0.42405 0.60668 0.5078 0.0
C456 C 0.85507 0.46562 0.60724 0.0
C457 C 0.8371 0.4699 0.64064 0.0
C458 C 0.85796 0.44279 0.61981 0.0
C459 C 0.84284 0.42414 0.66748 0.0
C460 C 0.82641 0.42973 0.7045 0.0
C461 C 0.82356 0.45241 0.69032 0.0
C462 C 0.87555 0.43745 0.57901 0.0
C463 C 0.81036 0.41065 0.75649 0.0
C464 C 0.81861 0.34758 0.64698 0.0
C465 C 0.83636 0.34431 0.68373 0.0
C466 C 0.82084 0.37354 0.64087 0.0
C467 C 0.8411 0.39684 0.67298 0.0
C468 C 0.85907 0.39376 0.71042 0.0
C469 C 0.85662 0.36752 0.71501 0.0
C470 C 0.80146 0.37601 0.59983 0.0
C471 C 0.88067 0.41807 0.74593 0.0
H472 H 0.86563 0.47907 0.56882 0.0
H473 H 0.80994 0.45585 0.7169 0.0
H474 H 0.88822 0.43213 0.60627 0.0
H475 H 0.86279 0.41933 0.54923 0.0
H476 H 0.8887 0.45574 0.5497 0.0
H477 H 0.80184 0.42009 0.78623 0.0
H478 H 0.79363 0.39077 0.73811 0.0
H479 H 0.82295 0.40549 0.78455 0.0
H480 H 0.80308 0.32986 0.62209 0.0
H481 H 0.8704 0.36514 0.74354 0.0
H482 H 0.8126 0.39229 0.56472 0.0
H483 H 0.78961 0.38252 0.62673 0.0
H484 H 0.7874 0.35606 0.57658 0.0
H485 H 0.89375 0.43548 0.71464 0.0
H486 H 0.89326 0.41231 0.77236 0.0
H487 H 0.87147 0.426 0.77784 0.0
C488 C 0.38674 0.87821 0.78796 0.0
C489 C 0.38861 0.89425 0.73697 0.0
C490 C 0.40815 0.87489 0.8044 0.0
C491 C 0.43201 0.88823 0.76952 0.0
C492 C 0.43331 0.90291 0.71598 0.0
C493 C 0.41158 0.90555 0.70018 0.0
C494 C 0.40579 0.85847 0.86096 0.0
C495 C 0.45842 0.91764 0.67762 0.0
C496 C 0.49925 0.91771 0.84597 0.0
C497 C 0.50798 0.90038 0.82355 0.0
C498 C 0.47409 0.91317 0.83071 0.0
C499 C 0.45689 0.89043 0.79281 0.0
C500 C 0.46492 0.87195 0.77255 0.0
C501 C 0.49053 0.87731 0.78762 0.0
C502 C 0.46652 0.93366 0.85266 0.0
C503 C 0.44686 0.84711 0.73325 0.0
H504 H 0.36899 0.8691 0.81631 0.0
H505 H 0.41321 0.91768 0.6602 0.0
H506 H 0.41394 0.8448 0.85282 0.0
H507 H 0.41767 0.87308 0.89807 0.0
H508 H 0.38471 0.84539 0.8766 0.0
H509 H 0.45538 0.92608 0.63464 0.0
H510 H 0.47461 0.93524 0.70379 0.0
H511 H 0.46538 0.90323 0.66617 0.0
H512 H 0.51251 0.93559 0.87379 0.0
H513 H 0.49698 0.86363 0.77067 0.0
H514 H 0.44688 0.92247 0.87617 0.0
H515 H 0.46453 0.94479 0.81314 0.0
H516 H 0.48158 0.94942 0.88432 0.0
H517 H 0.42625 0.83559 0.75211 0.0
H518 H 0.45421 0.8325 0.72913 0.0
H519 H 0.44571 0.85436 0.68701 0.0
C520 C 0.52643 0.38347 0.84468 0.0
C521 C 0.52208 0.36105 0.88167 0.0
C522 C 0.55068 0.40933 0.84728 0.0
C523 C 0.57076 0.41292 0.8886 0.0
C524 C 0.56641 0.39038 0.92612 0.0
C525 C 0.54225 0.3647 0.92183 0.0
C526 C 0.55482 0.43277 0.8059 0.0
C527 C 0.58715 0.39345 0.97149 0.0
C528 C 0.64439 0.46828 0.87691 0.0
C529 C 0.64697 0.48692 0.92264 0.0
C530 C 0.61928 0.44511 0.86192 0.0
C531 C 0.59629 0.44026 0.89411 0.0
C532 C 0.59851 0.45999 0.93738 0.0
C533 C 0.6238 0.48321 0.95077 0.0
C534 C 0.61763 0.42486 0.81449 0.0
C535 C 0.57453 0.45549 0.9731 0.0
H536 H 0.51097 0.38074 0.8133 0.0
H537 H 0.53899 0.34758 0.95093 0.0
H538 H 0.55797 0.4508 0.83337 0.0
H539 H 0.57308 0.44009 0.77792 0.0
H540 H 0.53755 0.42636 0.77508 0.0
H541 H 0.5805 0.37396 -0.00222 0.0
H542 H 0.60606 0.39925 0.94762 0.0
H543 H 0.59166 0.41048 0.00393 0.0
H544 H 0.66214 0.47115 0.85441 0.0
H545 H 0.62553 0.49749 0.98613 0.0
H546 H 0.60061 0.41888 0.78324 0.0
H547 H 0.61407 0.40552 0.83714 0.0
H548 H 0.63632 0.43369 0.78727 0.0
H549 H 0.55746 0.44991 0.94236 0.0
H550 H 0.57899 0.47426 -0.00038 0.0
H551 H 0.5681 0.43781 0.00521 0.0
C552 C 0.28721 0.53571 0.63058 0.0
C553 C 0.29274 0.51423 0.63488 0.0
C554 C 0.27617 0.54213 0.67987 0.0
C555 C 0.2702 0.52634 0.73401 0.0
C556 C 0.27845 0.5068 0.74069 0.0
C557 C 0.2899 0.50118 0.69109 0.0
C558 C 0.26882 0.56402 0.67187 0.0
C559 C 0.27277 0.48975 0.79814 0.0
C560 C 0.24504 0.53488 0.8847 0.0
C561 C 0.2182 0.51298 0.8816 0.0
C562 C 0.26194 0.54203 0.83405 0.0
C563 C 0.25174 0.52656 0.77985 0.0
C564 C 0.22392 0.50703 0.77429 0.0
C565 C 0.20737 0.50065 0.8253 0.0
C566 C 0.29119 0.56403 0.84074 0.0
C567 C 0.21214 0.4904 0.71676 0.0
H568 H 0.28991 0.54634 0.58752 0.0
H569 H 0.29438 0.48478 0.69498 0.0
H570 H 0.24765 0.55383 0.65721 0.0
H571 H 0.27093 0.57516 0.71509 0.0
H572 H 0.28143 0.57953 0.63648 0.0
H573 H 0.28237 0.47712 0.79775 0.0
H574 H 0.27997 0.50354 0.83854 0.0
H575 H 0.25084 0.47536 0.80332 0.0
H576 H 0.25337 0.54497 0.92791 0.0
H577 H 0.18658 0.48395 0.82243 0.0
H578 H 0.2995 0.57589 0.79777 0.0
H579 H 0.30256 0.55382 0.85205 0.0
H580 H 0.29443 0.57889 0.87783 0.0
H581 H 0.21909 0.50435 0.67643 0.0
H582 H 0.18991 0.47846 0.71748 0.0
H583 H 0.21896 0.47541 0.71127 0.0
C584 C 0.72664 0.15951 0.09793 0.0
C585 C 0.70943 0.13273 0.0741 0.0
C586 C 0.7455 0.18135 0.06095 0.0
C587 C 0.74741 0.17621 -0.0012 0.0
C588 C 0.73044 0.1491 0.97468 0.0
C589 C 0.7115 0.12772 0.01254 0.0
C590 C 0.76298 0.21003 0.08808 0.0
C591 C 0.73213 0.14274 0.9087 0.0
C592 C 0.77304 0.23248 0.87814 0.0
C593 C 0.79833 0.23666 0.86552 0.0
C594 C 0.75693 0.21418 0.92434 0.0
C595 C 0.76619 0.19935 0.95793 0.0
C596 C 0.79247 0.20494 0.94823 0.0
C597 C 0.80839 0.2238 0.90229 0.0
C598 C 0.72929 0.20932 0.93427 0.0
C599 C 0.80299 0.18944 0.98301 0.0
H600 H 0.72513 0.16358 0.14549 0.0
H601 H 0.69848 0.10702 0.99403 0.0
H602 H 0.78438 0.21771 0.07938 0.0
H603 H 0.75852 0.22496 0.06605 0.0
H604 H 0.75993 0.21023 0.13792 0.0
H605 H 0.71851 0.12028 0.89788 0.0
H606 H 0.72686 0.15521 0.87913 0.0
H607 H 0.75291 0.14872 0.89722 0.0
H608 H 0.76531 0.24253 0.84979 0.0
H609 H 0.82783 0.22679 0.89211 0.0
H610 H 0.72554 0.2102 0.98344 0.0
H611 H 0.71408 0.18819 0.91785 0.0
H612 H 0.72642 0.2249 0.90977 0.0
H613 H 0.79931 0.18955 0.03246 0.0
H614 H 0.82476 0.19854 0.97545 0.0
H615 H 0.79222 0.1673 0.96819 0.0
C616 C 0.58424 0.77944 0.18089 0.0
C617 C 0.56341 0.76871 0.22361 0.0
C618 C 0.58566 0.79722 0.13402 0.0
C619 C 0.56545 0.80383 0.12922 0.0
C620 C 0.54342 0.79144 0.16971 0.0
C621 C 0.54283 0.77428 0.21687 0.0
C622 C 0.60962 0.8103 0.09211 0.0
C623 C 0.52112 0.79737 0.16507 0.0
C624 C 0.58334 0.87371 0.06098 0.0
C625 C 0.57395 0.86622 0.00131 0.0
C626 C 0.58092 0.85361 0.10284 0.0
C627 C 0.5683 0.82527 0.0849 0.0
C628 C 0.55831 0.8175 0.02506 0.0
C629 C 0.56147 0.83812 0.9838 0.0
C630 C 0.59222 0.86278 0.16602 0.0
C631 C 0.54428 0.78744 0.00464 0.0
H632 H 0.6003 0.77538 0.18633 0.0
H633 H 0.5266 0.76584 0.24967 0.0
H634 H 0.60314 0.80742 0.04392 0.0
H635 H 0.62182 0.83312 0.10058 0.0
H636 H 0.6225 0.80138 0.09879 0.0
H637 H 0.50406 0.78371 0.19559 0.0
H638 H 0.52879 0.81943 0.17744 0.0
H639 H 0.51367 0.79442 0.11763 0.0
H640 H 0.59323 0.89543 0.07453 0.0
H641 H 0.55406 0.83219 0.93775 0.0
H642 H 0.60706 0.85662 0.17542 0.0
H643 H 0.57602 0.85219 0.20029 0.0
H644 H 0.60207 0.88571 0.17219 0.0
H645 H 0.55792 0.77937 0.00899 0.0
H646 H 0.53737 0.78485 0.95672 0.0
H647 H 0.52673 0.77436 0.0343 0.0
C648 C 0.74862 0.46289 0.41309 0.0
C649 C 0.77602 0.4833 0.41004 0.0
C650 C 0.7319 0.4575 0.36276 0.0
C651 C 0.74286 0.47333 0.30904 0.0
C652 C 0.77096 0.49136 0.30348 0.0
C653 C 0.78726 0.49586 0.35398 0.0
C654 C 0.70228 0.43688 0.36933 0.0
C655 C 0.78358 0.50838 0.24652 0.0
C656 C 0.71153 0.47023 0.15786 0.0
C657 C 0.70844 0.49333 0.16313 0.0
C658 C 0.71963 0.46087 0.20782 0.0
C659 C 0.72537 0.47547 0.26341 0.0
C660 C 0.71904 0.49648 0.2708 0.0
C661 C 0.71031 0.50495 0.22052 0.0
C662 C 0.72458 0.43727 0.19915 0.0
C663 C 0.72451 0.51236 0.32971 0.0
H664 H 0.73986 0.45253 0.45596 0.0
H665 H 0.80846 0.51133 0.35093 0.0
H666 H 0.69227 0.44799 0.38475 0.0
H667 H 0.69319 0.42659 0.32542 0.0
H668 H 0.69826 0.4206 0.40374 0.0
H669 H 0.80578 0.51962 0.24779 0.0
H670 H 0.77656 0.49479 0.20581 0.0
H671 H 0.77753 0.52401 0.24114 0.0
H672 H 0.70946 0.46072 0.11373 0.0
H673 H 0.70766 0.5226 0.22498 0.0
H674 H 0.72056 0.42495 0.24159 0.0
H675 H 0.74582 0.44595 0.18646 0.0
H676 H 0.71192 0.42309 0.1621 0.0
H677 H 0.7159 0.49772 0.36871 0.0
H678 H 0.71611 0.52612 0.32977 0.0
H679 H 0.74645 0.52551 0.33694 0.0
C680 C 0.18579 0.76134 0.41006 0.0
C681 C 0.19638 0.74931 0.37253 0.0
C682 C 0.20144 0.78016 0.45602 0.0
C683 C 0.22797 0.78643 0.46513 0.0
C684 C 0.23765 0.77206 0.43137 0.0
C685 C 0.22184 0.75392 0.38486 0.0
C686 C 0.19046 0.79521 0.49074 0.0
C687 C 0.26551 0.77752 0.44097 0.0
C688 C 0.28109 0.8596 0.51398 0.0
C689 C 0.28344 0.85585 0.57614 0.0
C690 C 0.2627 0.83722 0.47771 0.0
C691 C 0.24667 0.81035 0.50407 0.0
C692 C 0.24907 0.80638 0.56672 0.0
C693 C 0.26727 0.82924 0.60213 0.0
C694 C 0.26042 0.84236 0.41114 0.0
C695 C 0.23269 0.77797 0.59613 0.0
H696 H 0.16621 0.75801 0.40006 0.0
H697 H 0.22998 0.74451 0.35583 0.0
H698 H 0.19475 0.79579 0.54002 0.0
H699 H 0.20039 0.81714 0.47451 0.0
H700 H 0.16852 0.78528 0.48449 0.0
H701 H 0.26841 0.76167 0.41803 0.0
H702 H 0.28038 0.79839 0.42238 0.0
H703 H 0.26973 0.77762 0.49019 0.0
H704 H 0.29334 0.88015 0.49381 0.0
H705 H 0.26907 0.82616 0.6502 0.0
H706 H 0.2394 0.83556 0.40001 0.0
H707 H 0.26601 0.82985 0.3828 0.0
H708 H 0.27346 0.8647 0.39835 0.0
H709 H 0.21105 0.7695 0.58888 0.0
H710 H 0.23645 0.77857 0.6458 0.0
H711 H 0.23749 0.76323 0.57463 0.0
C712 C 0.42961 0.24114 0.66682 0.0
C713 C 0.45166 0.2519 0.70597 0.0
C714 C 0.42601 0.22212 0.62091 0.0
C715 C 0.44524 0.21427 0.61337 0.0
C716 C 0.46862 0.22691 0.64955 0.0
C717 C 0.47139 0.24532 0.69595 0.0
C718 C 0.40066 0.20887 0.58367 0.0
C719 C 0.48995 0.2197 0.6418 0.0
C720 C 0.42214 0.14137 0.55598 0.0
C721 C 0.42934 0.1464 0.49445 0.0
C722 C 0.42694 0.16329 0.59491 0.0
C723 C 0.43974 0.19096 0.57198 0.0
C724 C 0.44744 0.19622 0.5101 0.0
C725 C 0.44193 0.17384 0.47193 0.0
C726 C 0.41804 0.15677 0.66048 0.0
C727 C 0.46159 0.22547 0.4843 0.0
H728 H 0.4142 0.24598 0.67488 0.0
H729 H 0.48854 0.25376 0.72603 0.0
H730 H 0.40529 0.20962 0.53454 0.0
H731 H 0.38783 0.18654 0.59661 0.0
H732 H 0.38909 0.21924 0.59073 0.0
H733 H 0.50837 0.23399 0.66779 0.0
H734 H 0.4822 0.19805 0.65793 0.0
H735 H 0.49527 0.22058 0.59307 0.0
H736 H 0.41216 0.12018 0.57343 0.0
H737 H 0.44769 0.17787 0.42441 0.0
H738 H 0.40434 0.16429 0.67135 0.0
H739 H 0.4356 0.16786 0.69101 0.0
H740 H 0.40761 0.13406 0.67064 0.0
H741 H 0.44908 0.2348 0.49052 0.0
H742 H 0.46619 0.22601 0.43511 0.0
H743 H 0.48057 0.23884 0.50921 0.0
C744 C 0.06815 0.39905 0.84086 0.0
C745 C 0.0777 0.41807 0.88922 0.0
C746 C 0.04201 0.38766 0.81902 0.0
C747 C 0.025 0.39557 0.84602 0.0
C748 C 0.0348 0.41555 0.89334 0.0
C749 C 0.06106 0.42655 0.91448 0.0
C750 C 0.03233 0.36645 0.76835 0.0
C751 C 0.01729 0.42463 0.92287 0.0
C752 C 0.96316 0.37714 0.7539 0.0
C753 C 0.94411 0.35135 0.77956 0.0
C754 C 0.98933 0.39247 0.77683 0.0
C755 C 0.9966 0.38171 0.82647 0.0
C756 C 0.97712 0.35636 0.85437 0.0
C757 C 0.9511 0.34151 0.83065 0.0
C758 C 0.00949 0.41955 0.74622 0.0
C759 C 0.98409 0.34423 0.90752 0.0
H760 H 0.08088 0.39245 0.82088 0.0
H761 H 0.06831 0.44132 0.95175 0.0
H762 H 0.01572 0.34602 0.78512 0.0
H763 H 0.02438 0.37303 0.7303 0.0
H764 H 0.04842 0.36349 0.75045 0.0
H765 H 0.02854 0.44195 0.95566 0.0
H766 H 0.00829 0.43148 0.88778 0.0
H767 H 1.00059 0.40672 0.94742 0.0
H768 H 0.95789 0.38502 0.71468 0.0
H769 H 0.93648 0.32169 0.85101 0.0
H770 H 0.02472 0.41687 0.72246 0.0
H771 H 0.02015 0.43626 0.7805 0.0
H772 H 1.00003 0.4265 0.71248 0.0
H773 H 0.99853 0.33825 0.8926 0.0
H774 H 0.96621 0.32548 0.92694 0.0
H775 H 0.99388 0.36004 0.94394 0.0
C776 C 0.66255 0.95099 0.93924 0.0
C777 C 0.65124 0.96134 0.89885 0.0
C778 C 0.67471 0.96537 0.9933 0.0
C779 C 0.67539 0.99043 0.00646 0.0
C780 C 0.66704 0.00255 0.96187 0.0
C781 C 0.65491 0.98772 0.90869 0.0
C782 C 0.68406 0.95215 0.03884 0.0
C783 C 0.66786 0.02954 0.97335 0.0
C784 C 0.65596 0.00584 0.15688 0.0
C785 C 0.67948 0.0305 0.17312 0.0
C786 C 0.6552 0.99064 0.10587 0.0
C787 C 0.67855 1.00062 0.06994 0.0
C788 C 0.7031 0.02375 0.09008 0.0
C789 C 0.7033 0.03854 0.14182 0.0
C790 C 0.62865 0.96568 0.08691 0.0
C791 C 0.72856 0.03452 0.05405 0.0
H792 H 0.65973 0.93055 0.93156 0.0
H793 H 0.64639 0.99579 0.8769 0.0
H794 H 0.70125 0.96819 0.06572 0.0
H795 H 0.66749 0.93905 0.0709 0.0
H796 H 0.6899 0.93848 0.016 0.0
H797 H 0.66397 0.03789 0.93133 0.0
H798 H 0.6524 0.02588 0.00758 0.0
H799 H 0.68757 0.04563 0.99185 0.0
H800 H 0.63764 0.99943 0.1818 0.0
H801 H 0.72157 0.0576 0.15455 0.0
H802 H 0.63101 0.94798 0.07422 0.0
H803 H 0.62103 0.97121 0.04637 0.0
H804 H 0.61338 0.95862 0.12354 0.0
H805 H 0.72942 0.01719 0.03228 0.0
H806 H 0.74647 0.0466 0.08327 0.0
H807 H 0.72936 0.04861 0.01751 0.0
C808 C 0.67431 0.60906 0.21165 0.0
C809 C 0.66505 0.59023 0.16295 0.0
C810 C 0.65902 0.6196 0.23475 0.0
C811 C 0.63379 0.61103 0.2087 0.0
C812 C 0.62389 0.5913 0.1609 0.0
C813 C 0.63967 0.58114 0.13848 0.0
C814 C 0.67026 0.64057 0.28594 0.0
C815 C 0.59698 0.58154 0.13235 0.0
C816 C 0.58985 0.62683 0.30595 0.0
C817 C 0.59589 0.65273 0.28226 0.0
C818 C 0.60095 0.61221 0.28044 0.0
C819 C 0.61851 0.6238 0.23015 0.0
C820 C 0.62347 0.64914 0.2039 0.0
C821 C 0.61205 0.66328 0.23023 0.0
C822 C 0.59501 0.58511 0.30934 0.0
C823 C 0.642 0.6621 0.15005 0.0
H824 H 0.69384 0.61612 0.23099 0.0
H825 H 0.63233 0.56652 0.10094 0.0
H826 H 0.67314 0.66077 0.27023 0.0
H827 H 0.65597 0.63325 0.32459 0.0
H828 H 0.68974 0.64426 0.30265 0.0
H829 H 0.59132 0.56462 0.09869 0.0
H830 H 0.58124 0.57388 0.16792 0.0
H831 H 0.5974 0.59932 0.10905 0.0
H832 H 0.57719 0.61839 0.34585 0.0
H833 H 0.61668 0.68318 0.21134 0.0
H834 H 0.61323 0.58827 0.33243 0.0
H835 H 0.58943 0.56885 0.27416 0.0
H836 H 0.5786 0.57729 0.34338 0.0
H837 H 0.66275 0.66893 0.16385 0.0
H838 H 0.64183 0.68047 0.13165 0.0
H839 H 0.63631 0.64655 0.11317 0.0
C840 C 0.03972 0.67082 0.35684 0.0
C841 C 0.05548 0.66157 0.33022 0.0
C842 C 0.01523 0.65203 0.38471 0.0
C843 C 0.00619 0.62321 0.38601 0.0
C844 C 0.02207 0.61369 0.35971 0.0
C845 C 0.04657 0.633 0.33214 0.0
C846 C 0.99892 0.66304 0.41246 0.0
C847 C 0.01306 0.58311 0.36023 0.0
C848 C 0.9535 0.58245 0.50643 0.0
C849 C 0.92979 0.57251 0.47318 0.0
C850 C 0.9786 0.59779 0.47801 0.0
C851 C 0.98001 0.60326 0.41482 0.0
C852 C 0.95616 0.59185 0.38038 0.0
C853 C 0.93132 0.57661 0.40998 0.0
C854 C 0.00357 0.60949 0.51628 0.0
C855 C 0.95684 0.59704 0.31279 0.0
H856 H 0.04643 0.69284 0.35568 0.0
H857 H 0.05862 0.62567 0.31161 0.0
H858 H 0.97909 0.65329 0.39 0.0
H859 H 0.99532 0.6574 0.4614 0.0
H860 H 0.00891 0.68609 0.40816 0.0
H861 H 0.02791 0.57914 0.33866 0.0
H862 H 0.00957 0.57519 0.40769 0.0
H863 H 0.99377 0.57091 0.33572 0.0
H864 H 0.95254 0.57921 0.55521 0.0
H865 H 0.91311 0.56884 0.38383 0.0
H866 H 0.01338 0.63253 0.51896 0.0
H867 H 0.01809 0.60495 0.4951 0.0
H868 H 0.99919 0.60088 0.56326 0.0
H869 H 0.96417 0.61942 0.30446 0.0
H870 H 0.93678 0.58428 0.29159 0.0
H871 H 0.9709 0.59233 0.28984 0.0
C872 C 0.34167 0.01718 0.40857 0.0
C873 C 0.34621 0.04419 0.40479 0.0
C874 C 0.32882 1.00022 0.45909 0.0
C875 C 0.32073 0.01082 0.50748 0.0
C876 C 0.32263 0.03692 0.50077 0.0
C877 C 0.33542 0.05343 0.44909 0.0
C878 C 0.32685 0.97233 0.46365 0.0
C879 C 0.31376 0.04871 0.55069 0.0
C880 C 0.28956 0.95742 0.63448 0.0
C881 C 0.31266 0.96319 0.66611 0.0
C882 C 0.29121 0.97444 0.58544 0.0
C883 C 0.31648 0.99754 0.56834 0.0
C884 C 0.33926 0.00488 0.60435 0.0
C885 C 0.33705 0.98753 0.65256 0.0
C886 C 0.26638 0.9663 0.54906 0.0
C887 C 0.36659 0.02955 0.58851 0.0
H888 H 0.34988 0.01004 0.37384 0.0
H889 H 0.33902 0.07441 0.44613 0.0
H890 H 0.34197 0.9739 0.49648 0.0
H891 H 0.30686 0.95602 0.48063 0.0
H892 H 0.33046 0.96551 0.41914 0.0
H893 H 0.30959 0.06457 0.53271 0.0
H894 H 0.29562 0.03199 0.57405 0.0
H895 H 0.32992 0.05898 0.58503 0.0
H896 H 0.27064 0.93863 0.64512 0.0
H897 H 0.35484 0.99223 0.67776 0.0
H898 H 0.26565 0.95396 0.50894 0.0
H899 H 0.26648 0.985 0.5322 0.0
H900 H 0.24796 0.95326 0.5764 0.0
H901 H 0.37388 0.02512 0.54592 0.0
H902 H 0.3815 0.03418 0.6249 0.0
H903 H 0.36555 0.04848 0.58051 0.0
C904 C 0.37143 0.41407 0.54495 0.0
C905 C 0.3572 0.42389 0.57682 0.0
C906 C 0.38117 0.39898 0.57466 0.0
C907 C 0.37663 0.39363 0.63781 0.0
C908 C 0.36343 0.40464 0.6708 0.0
C909 C 0.35386 0.41964 0.63991 0.0
C910 C 0.39525 0.38769 0.53793 0.0
C911 C 0.35835 0.39953 0.73828 0.0
C912 C 0.37146 0.32795 0.7008 0.0
C913 C 0.39646 0.33854 0.7286 0.0
C914 C 0.36491 0.34565 0.6707 0.0
C915 C 0.38379 0.37472 0.66841 0.0
C916 C 0.4092 0.38555 0.69571 0.0
C917 C 0.41526 0.36732 0.72542 0.0
C918 C 0.33763 0.33326 0.64185 0.0
C919 C 0.42983 0.41642 0.6942 0.0
H920 H 0.37425 0.41737 0.49625 0.0
H921 H 0.34302 0.42726 0.665 0.0
H922 H 0.41451 0.39326 0.55959 0.0
H923 H 0.38273 0.36456 0.53657 0.0
H924 H 0.39925 0.39571 0.49046 0.0
H925 H 0.34987 0.41147 0.75816 0.0
H926 H 0.34412 0.37697 0.74675 0.0
H927 H 0.37719 0.40538 0.76241 0.0
H928 H 0.35683 0.30575 0.70287 0.0
H929 H 0.43463 0.3757 0.74684 0.0
H930 H 0.33977 0.33855 0.5927 0.0
H931 H 0.32662 0.3423 0.66299 0.0
H932 H 0.3254 0.31018 0.6468 0.0
H933 H 0.43415 0.42397 0.64646 0.0
H934 H 0.44887 0.42145 0.71641 0.0
H935 H 0.4219 0.42813 0.71758 0.0
loop_
_geom_bond_atom_site_label_1
_geom_bond_atom_site_label_2
_geom_bond_distance
_geom_bond_site_symmetry_2
_ccdc_geom_bond_type
Mg0 O1 2.028 . S
Mg0 O7 1.986 1_554 S
Mg0 O9 2.114 . S
Mg0 O10 2.251 . S
Mg0 O13 2.016 . S
O1 Mg0 2.028 . S
O1 C4 1.250 . S
O2 Mg3 2.028 . S
O2 C4 1.248 . S
Mg3 O2 2.028 . S
Mg3 O8 2.032 1_554 S
Mg3 O10 2.079 . S
C4 O1 1.250 . S
C4 O2 1.248 . S
C5 O6 1.264 . S
C5 O13 1.249 1_556 S
O6 C5 1.264 . S
O7 Mg0 1.986 1_556 S
O7 C11 1.246 . S
O8 Mg3 2.032 1_556 S
O8 C11 1.259 . S
O9 Mg0 2.114 . S
O9 C12 1.252 . S
O10 Mg0 2.251 . S
O10 Mg3 2.079 . S
O10 C12 1.273 . S
C11 O7 1.246 . S
C11 O8 1.259 . S
C12 O9 1.252 . S
C12 O10 1.273 . S
O13 Mg0 2.016 . S
O13 C5 1.249 1_554 S
Mg14 O15 2.028 . S
Mg14 O21 1.986 . S
Mg14 O23 2.114 . S
Mg14 O24 2.251 . S
Mg14 O27 2.010 . S
O15 Mg14 2.028 . S
O15 C18 1.250 . S
O16 Mg17 2.028 . S
O16 C18 1.248 . S
Mg17 O16 2.028 . S
Mg17 O22 2.032 . S
Mg17 O24 2.079 . S
C18 O15 1.250 . S
C18 O16 1.248 . S
C19 O20 1.264 . S
C19 O27 1.249 . S
O20 C19 1.264 . S
O21 Mg14 1.986 . S
O21 C25 1.246 . S
O22 Mg17 2.032 . S
O22 C25 1.259 . S
O23 Mg14 2.114 . S
O23 C26 1.252 . S
O24 Mg14 2.251 . S
O24 Mg17 2.079 . S
O24 C26 1.273 . S
C25 O21 1.246 . S
C25 O22 1.259 . S
C26 O23 1.252 . S
C26 O24 1.273 . S
O27 Mg14 2.010 . S
O27 C19 1.249 . S
Mg28 O29 2.028 . S
Mg28 O35 1.986 . S
Mg28 O37 2.114 . S
Mg28 O38 2.251 . S
Mg28 O41 2.010 . S
O29 Mg28 2.028 . S
O29 C32 1.250 . S
O30 Mg31 2.028 . S
O30 C32 1.248 . S
Mg31 O30 2.028 . S
Mg31 O36 2.032 . S
Mg31 O38 2.079 . S
C32 O29 1.250 . S
C32 O30 1.248 . S
C33 O34 1.264 . S
C33 O41 1.249 . S
O34 C33 1.264 . S
O35 Mg28 1.986 . S
O35 C39 1.246 . S
O36 Mg31 2.032 . S
O36 C39 1.259 . S
O37 Mg28 2.114 . S
O37 C40 1.252 . S
O38 Mg28 2.251 . S
O38 Mg31 2.079 . S
O38 C40 1.273 . S
C39 O35 1.246 . S
C39 O36 1.259 . S
C40 O37 1.252 . S
C40 O38 1.273 . S
O41 Mg28 2.010 . S
O41 C33 1.249 . S
Mg42 O43 2.028 . S
Mg42 O49 1.986 . S
Mg42 O51 2.114 . S
Mg42 O52 2.251 . S
Mg42 O55 2.010 . S
O43 Mg42 2.028 . S
O43 C46 1.250 . S
O44 Mg45 2.028 . S
O44 C46 1.248 . S
Mg45 O44 2.028 . S
Mg45 O50 2.032 . S
Mg45 O52 2.079 . S
C46 O43 1.250 . S
C46 O44 1.248 . S
C47 O48 1.264 . S
C47 O55 1.249 . S
O48 C47 1.264 . S
O49 Mg42 1.986 . S
O49 C53 1.246 . S
O50 Mg45 2.032 . S
O50 C53 1.259 . S
O51 Mg42 2.114 . S
O51 C54 1.252 . S
O52 Mg42 2.251 . S
O52 Mg45 2.079 . S
O52 C54 1.273 . S
C53 O49 1.246 . S
C53 O50 1.259 . S
C54 O51 1.252 . S
C54 O52 1.273 . S
O55 Mg42 2.010 . S
O55 C47 1.249 . S
Mg56 O57 2.028 . S
Mg56 O63 1.986 . S
Mg56 O65 2.114 . S
Mg56 O66 2.251 . S
Mg56 O69 2.010 . S
O57 Mg56 2.028 . S
O57 C60 1.250 . S
O58 Mg59 2.028 . S
O58 C60 1.248 . S
Mg59 O58 2.028 . S
Mg59 O64 2.032 . S
Mg59 O66 2.079 . S
C60 O57 1.250 . S
C60 O58 1.248 . S
C61 O62 1.264 . S
C61 O69 1.249 . S
O62 C61 1.264 . S
O63 Mg56 1.986 . S
O63 C67 1.246 . S
O64 Mg59 2.032 . S
O64 C67 1.259 . S
O65 Mg56 2.114 . S
O65 C68 1.252 . S
O66 Mg56 2.251 . S
O66 Mg59 2.079 . S
O66 C68 1.273 . S
C67 O63 1.246 . S
C67 O64 1.259 . S
C68 O65 1.252 . S
C68 O66 1.273 . S
O69 Mg56 2.010 . S
O69 C61 1.249 . S
Mg70 O71 2.028 . S
Mg70 O77 1.986 . S
Mg70 O79 2.114 . S
Mg70 O80 2.251 . S
Mg70 O83 2.010 . S
O71 Mg70 2.028 . S
O71 C74 1.250 . S
O72 Mg73 2.028 . S
O72 C74 1.248 . S
Mg73 O72 2.028 . S
Mg73 O78 2.032 . S
Mg73 O80 2.079 . S
C74 O71 1.250 . S
C74 O72 1.248 . S
C75 O76 1.264 . S
C75 O83 1.249 . S
O76 C75 1.264 . S
O77 Mg70 1.986 . S
O77 C81 1.246 . S
O78 Mg73 2.032 . S
O78 C81 1.259 . S
O79 Mg70 2.114 . S
O79 C82 1.252 . S
O80 Mg70 2.251 . S
O80 Mg73 2.079 . S
O80 C82 1.273 . S
C81 O77 1.246 . S
C81 O78 1.259 . S
C82 O79 1.252 . S
C82 O80 1.273 . S
O83 Mg70 2.010 . S
O83 C75 1.249 . S
Mg84 O85 2.028 . S
Mg84 O91 1.986 . S
Mg84 O93 2.114 . S
Mg84 O94 2.251 . S
Mg84 O97 2.010 . S
O85 Mg84 2.028 . S
O85 C88 1.250 . S
O86 Mg87 2.028 . S
O86 C88 1.248 . S
Mg87 O86 2.028 . S
Mg87 O92 2.032 . S
Mg87 O94 2.079 . S
C88 O85 1.250 . S
C88 O86 1.248 . S
C89 O90 1.264 . S
C89 O97 1.249 . S
O90 C89 1.264 . S
O91 Mg84 1.986 . S
O91 C95 1.246 . S
O92 Mg87 2.032 . S
O92 C95 1.259 . S
O93 Mg84 2.114 . S
O93 C96 1.252 . S
O94 Mg84 2.251 . S
O94 Mg87 2.079 . S
O94 C96 1.273 . S
C95 O91 1.246 . S
C95 O92 1.259 . S
C96 O93 1.252 . S
C96 O94 1.273 . S
O97 Mg84 2.010 . S
O97 C89 1.249 . S
Mg98 O99 2.028 . S
Mg98 O105 1.986 . S
Mg98 O107 2.114 1_554 S
Mg98 O108 2.251 1_554 S
Mg98 O111 2.010 . S
O99 Mg98 2.028 . S
O99 C102 1.250 . S
O100 Mg101 2.028 . S
O100 C102 1.248 . S
Mg101 O100 2.028 . S
Mg101 O106 2.032 . S
Mg101 O108 2.079 1_554 S
C102 O99 1.250 . S
C102 O100 1.248 . S
C103 O104 1.264 . S
C103 O111 1.249 . S
O104 C103 1.264 . S
O105 Mg98 1.986 . S
O105 C109 1.246 . S
O106 Mg101 2.032 . S
O106 C109 1.259 . S
O107 Mg98 2.114 1_556 S
O107 C110 1.252 . S
O108 Mg98 2.251 1_556 S
O108 Mg101 2.079 1_556 S
O108 C110 1.273 . S
C109 O105 1.246 . S
C109 O106 1.259 . S
C110 O107 1.252 . S
C110 O108 1.273 . S
O111 Mg98 2.010 . S
O111 C103 1.249 . S
Mg112 O113 2.028 . S
Mg112 O119 1.986 . S
Mg112 O121 2.114 . S
Mg112 O122 2.251 . S
Mg112 O125 2.010 . S
O113 Mg112 2.028 . S
O113 C116 1.250 . S
O114 Mg115 2.028 . S
O114 C116 1.248 . S
Mg115 O114 2.028 . S
Mg115 O120 2.032 . S
Mg115 O122 2.079 . S
C116 O113 1.250 . S
C116 O114 1.248 . S
C117 O118 1.264 . S
C117 O125 1.249 . S
O118 C117 1.264 . S
O119 Mg112 1.986 . S
O119 C123 1.246 . S
O120 Mg115 2.032 . S
O120 C123 1.259 . S
O121 Mg112 2.114 . S
O121 C124 1.252 . S
O122 Mg112 2.251 . S
O122 Mg115 2.079 . S
O122 C124 1.273 . S
C123 O119 1.246 . S
C123 O120 1.259 . S
C124 O121 1.252 . S
C124 O122 1.273 . S
O125 Mg112 2.010 . S
O125 C117 1.249 . S
Mg126 O127 2.028 . S
Mg126 O133 1.986 . S
Mg126 O135 2.114 . S
Mg126 O136 2.251 . S
Mg126 O139 2.010 . S
O127 Mg126 2.028 . S
O127 C130 1.250 . S
O128 Mg129 2.028 . S
O128 C130 1.248 . S
Mg129 O128 2.028 . S
Mg129 O134 2.032 . S
Mg129 O136 2.079 . S
C130 O127 1.250 . S
C130 O128 1.248 . S
C131 O132 1.264 . S
C131 O139 1.249 . S
O132 C131 1.264 . S
O133 Mg126 1.986 . S
O133 C137 1.246 . S
O134 Mg129 2.032 . S
O134 C137 1.259 . S
O135 Mg126 2.114 . S
O135 C138 1.252 . S
O136 Mg126 2.251 . S
O136 Mg129 2.079 . S
O136 C138 1.273 . S
C137 O133 1.246 . S
C137 O134 1.259 . S
C138 O135 1.252 . S
C138 O136 1.273 . S
O139 Mg126 2.010 . S
O139 C131 1.249 . S
Mg140 O141 2.028 . S
Mg140 O147 1.986 . S
Mg140 O149 2.114 . S
Mg140 O150 2.251 . S
Mg140 O153 2.010 . S
O141 Mg140 2.028 . S
O141 C144 1.250 . S
O142 Mg143 2.028 . S
O142 C144 1.248 . S
Mg143 O142 2.028 . S
Mg143 O148 2.032 . S
Mg143 O150 2.079 . S
C144 O141 1.250 . S
C144 O142 1.248 . S
C145 O146 1.264 . S
C145 O153 1.249 . S
O146 C145 1.264 . S
O147 Mg140 1.986 . S
O147 C151 1.246 . S
O148 Mg143 2.032 . S
O148 C151 1.259 . S
O149 Mg140 2.114 . S
O149 C152 1.252 . S
O150 Mg140 2.251 . S
O150 Mg143 2.079 . S
O150 C152 1.273 . S
C151 O147 1.246 . S
C151 O148 1.259 . S
C152 O149 1.252 . S
C152 O150 1.273 . S
O153 Mg140 2.010 . S
O153 C145 1.249 . S
Mg154 O155 2.028 . S
Mg154 O161 1.986 . S
Mg154 O163 2.114 . S
Mg154 O164 2.251 . S
Mg154 O167 2.010 . S
O155 Mg154 2.028 . S
O155 C158 1.250 . S
O156 Mg157 2.028 . S
O156 C158 1.248 . S
Mg157 O156 2.028 . S
Mg157 O162 2.032 . S
Mg157 O164 2.079 . S
C158 O155 1.250 . S
C158 O156 1.248 . S
C159 O160 1.264 . S
C159 O167 1.249 . S
O160 C159 1.264 . S
O161 Mg154 1.986 . S
O161 C165 1.246 . S
O162 Mg157 2.032 . S
O162 C165 1.259 . S
O163 Mg154 2.114 . S
O163 C166 1.252 . S
O164 Mg154 2.251 . S
O164 Mg157 2.079 . S
O164 C166 1.273 . S
C165 O161 1.246 . S
C165 O162 1.259 . S
C166 O163 1.252 . S
C166 O164 1.273 . S
O167 Mg154 2.010 . S
O167 C159 1.249 . S
C168 C169 1.391 . S
C168 C170 1.394 . S
C168 H184 0.931 . S
C169 C168 1.391 . S
C169 C173 1.376 . S
C170 C168 1.394 . S
C170 C171 1.369 . S
C170 C174 1.531 . S
C171 C170 1.369 . S
C171 C172 1.410 . S
C171 C179 1.503 . S
C172 C171 1.410 . S
C172 C173 1.392 . S
C172 C175 1.511 . S
C173 C169 1.376 . S
C173 C172 1.392 . S
C173 H185 0.929 . S
C174 C170 1.531 . S
C174 H186 0.960 . S
C174 H187 0.962 . S
C174 H188 0.960 . S
C175 C172 1.511 . S
C175 H189 0.961 . S
C175 H190 0.961 . S
C175 H191 0.961 . S
C176 C177 1.370 . S
C176 C178 1.363 . S
C176 H192 0.931 . S
C177 C176 1.370 . S
C177 C181 1.408 . S
C178 C176 1.363 . S
C178 C179 1.370 . S
C178 C182 1.524 . S
C179 C171 1.503 . S
C179 C178 1.370 . S
C179 C180 1.403 . S
C180 C179 1.403 . S
C180 C181 1.404 . S
C180 C183 1.539 . S
C181 C177 1.408 . S
C181 C180 1.404 . S
C181 H193 0.930 . S
C182 C178 1.524 . S
C182 H194 0.956 . S
C182 H195 0.961 . S
C182 H196 0.961 . S
C183 C180 1.539 . S
C183 H197 0.958 . S
C183 H198 0.961 . S
C183 H199 0.960 . S
H184 C168 0.931 . S
H185 C173 0.929 . S
H186 C174 0.960 . S
H187 C174 0.962 . S
H188 C174 0.960 . S
H189 C175 0.961 . S
H190 C175 0.961 . S
H191 C175 0.961 . S
H192 C176 0.931 . S
H193 C181 0.930 . S
H194 C182 0.956 . S
H195 C182 0.961 . S
H196 C182 0.961 . S
H197 C183 0.958 . S
H198 C183 0.961 . S
H199 C183 0.960 . S
C200 C201 1.391 . S
C200 C202 1.394 . S
C200 H216 0.931 . S
C201 C200 1.391 . S
C201 C205 1.376 . S
C202 C200 1.394 . S
C202 C203 1.369 . S
C202 C206 1.531 . S
C203 C202 1.369 . S
C203 C204 1.410 . S
C203 C211 1.503 . S
C204 C203 1.410 . S
C204 C205 1.392 . S
C204 C207 1.511 . S
C205 C201 1.376 . S
C205 C204 1.392 . S
C205 H217 0.929 . S
C206 C202 1.531 . S
C206 H218 0.960 . S
C206 H219 0.962 . S
C206 H220 0.960 . S
C207 C204 1.511 . S
C207 H221 0.961 . S
C207 H222 0.961 . S
C207 H223 0.961 . S
C208 C209 1.370 . S
C208 C210 1.363 . S
C208 H224 0.931 . S
C209 C208 1.370 . S
C209 C213 1.408 . S
C210 C208 1.363 . S
C210 C211 1.370 . S
C210 C214 1.524 . S
C211 C203 1.503 . S
C211 C210 1.370 . S
C211 C212 1.403 . S
C212 C211 1.403 . S
C212 C213 1.404 . S
C212 C215 1.539 . S
C213 C209 1.408 . S
C213 C212 1.404 . S
C213 H225 0.930 . S
C214 C210 1.524 . S
C214 H226 0.956 . S
C214 H227 0.961 . S
C214 H228 0.961 . S
C215 C212 1.539 . S
C215 H229 0.958 . S
C215 H230 0.961 . S
C215 H231 0.960 . S
H216 C200 0.931 . S
H217 C205 0.929 . S
H218 C206 0.960 . S
H219 C206 0.962 . S
H220 C206 0.960 . S
H221 C207 0.961 . S
H222 C207 0.961 . S
H223 C207 0.961 . S
H224 C208 0.931 . S
H225 C213 0.930 . S
H226 C214 0.956 . S
H227 C214 0.961 . S
H228 C214 0.961 . S
H229 C215 0.958 . S
H230 C215 0.961 . S
H231 C215 0.960 . S
C232 C233 1.391 . S
C232 C234 1.394 . S
C232 H248 0.931 . S
C233 C232 1.391 . S
C233 C237 1.376 . S
C234 C232 1.394 . S
C234 C235 1.369 . S
C234 C238 1.531 . S
C235 C234 1.369 . S
C235 C236 1.410 . S
C235 C243 1.503 . S
C236 C235 1.410 . S
C236 C237 1.392 . S
C236 C239 1.511 . S
C237 C233 1.376 . S
C237 C236 1.392 . S
C237 H249 0.929 . S
C238 C234 1.531 . S
C238 H250 0.960 . S
C238 H251 0.962 . S
C238 H252 0.960 . S
C239 C236 1.511 . S
C239 H253 0.961 . S
C239 H254 0.961 . S
C239 H255 0.961 . S
C240 C241 1.370 . S
C240 C242 1.363 . S
C240 H256 0.931 . S
C241 C240 1.370 . S
C241 C245 1.408 . S
C242 C240 1.363 . S
C242 C243 1.370 . S
C242 C246 1.524 . S
C243 C235 1.503 . S
C243 C242 1.370 . S
C243 C244 1.403 . S
C244 C243 1.403 . S
C244 C245 1.404 . S
C244 C247 1.539 . S
C245 C241 1.408 . S
C245 C244 1.404 . S
C245 H257 0.930 . S
C246 C242 1.524 . S
C246 H258 0.956 . S
C246 H259 0.961 . S
C246 H260 0.961 . S
C247 C244 1.539 . S
C247 H261 0.958 . S
C247 H262 0.961 . S
C247 H263 0.960 . S
H248 C232 0.931 . S
H249 C237 0.929 . S
H250 C238 0.960 . S
H251 C238 0.962 . S
H252 C238 0.960 . S
H253 C239 0.961 . S
H254 C239 0.961 . S
H255 C239 0.961 . S
H256 C240 0.931 . S
H257 C245 0.930 . S
H258 C246 0.956 . S
H259 C246 0.961 . S
H260 C246 0.961 . S
H261 C247 0.958 . S
H262 C247 0.961 . S
H263 C247 0.960 . S
C264 C265 1.391 . S
C264 C266 1.394 . S
C264 H280 0.931 . S
C265 C264 1.391 . S
C265 C269 1.376 . S
C266 C264 1.394 . S
C266 C267 1.369 . S
C266 C270 1.531 . S
C267 C266 1.369 . S
C267 C268 1.410 . S
C267 C275 1.503 . S
C268 C267 1.410 . S
C268 C269 1.392 . S
C268 C271 1.511 . S
C269 C265 1.376 . S
C269 C268 1.392 . S
C269 H281 0.929 . S
C270 C266 1.531 . S
C270 H282 0.960 . S
C270 H283 0.962 . S
C270 H284 0.960 . S
C271 C268 1.511 . S
C271 H285 0.961 . S
C271 H286 0.961 . S
C271 H287 0.961 . S
C272 C273 1.370 . S
C272 C274 1.363 . S
C272 H288 0.931 . S
C273 C272 1.370 . S
C273 C277 1.408 . S
C274 C272 1.363 . S
C274 C275 1.370 . S
C274 C278 1.524 . S
C275 C267 1.503 . S
C275 C274 1.370 . S
C275 C276 1.403 . S
C276 C275 1.403 . S
C276 C277 1.404 . S
C276 C279 1.539 . S
C277 C273 1.408 . S
C277 C276 1.404 . S
C277 H289 0.930 . S
C278 C274 1.524 . S
C278 H290 0.956 . S
C278 H291 0.961 . S
C278 H292 0.961 . S
C279 C276 1.539 . S
C279 H293 0.958 . S
C279 H294 0.961 . S
C279 H295 0.960 . S
H280 C264 0.931 . S
H281 C269 0.929 . S
H282 C270 0.960 . S
H283 C270 0.962 . S
H284 C270 0.960 . S
H285 C271 0.961 . S
H286 C271 0.961 . S
H287 C271 0.961 . S
H288 C272 0.931 . S
H289 C277 0.930 . S
H290 C278 0.956 . S
H291 C278 0.961 . S
H292 C278 0.961 . S
H293 C279 0.958 . S
H294 C279 0.961 . S
H295 C279 0.960 . S
C296 C297 1.391 . S
C296 C298 1.394 . S
C296 H312 0.931 . S
C297 C296 1.391 . S
C297 C301 1.376 . S
C298 C296 1.394 . S
C298 C299 1.369 . S
C298 C302 1.531 1_556 S
C299 C298 1.369 . S
C299 C300 1.410 . S
C299 C307 1.503 1_556 S
C300 C299 1.410 . S
C300 C301 1.392 . S
C300 C303 1.511 . S
C301 C297 1.376 . S
C301 C300 1.392 . S
C301 H313 0.929 . S
C302 C298 1.531 1_554 S
C302 H314 0.960 . S
C302 H315 0.962 . S
C302 H316 0.960 . S
C303 C300 1.511 . S
C303 H317 0.961 . S
C303 H318 0.961 . S
C303 H319 0.961 . S
C304 C305 1.370 . S
C304 C306 1.363 . S
C304 H320 0.931 . S
C305 C304 1.370 . S
C305 C309 1.408 . S
C306 C304 1.363 . S
C306 C307 1.370 . S
C306 C310 1.524 1_554 S
C307 C299 1.503 1_554 S
C307 C306 1.370 . S
C307 C308 1.403 . S
C308 C307 1.403 . S
C308 C309 1.404 . S
C308 C311 1.539 . S
C309 C305 1.408 . S
C309 C308 1.404 . S
C309 H321 0.930 . S
C310 C306 1.524 1_556 S
C310 H322 0.956 . S
C310 H323 0.961 . S
C310 H324 0.961 . S
C311 C308 1.539 . S
C311 H325 0.958 . S
C311 H326 0.961 . S
C311 H327 0.960 . S
H312 C296 0.931 . S
H313 C301 0.929 . S
H314 C302 0.960 . S
H315 C302 0.962 . S
H316 C302 0.960 . S
H317 C303 0.961 . S
H318 C303 0.961 . S
H319 C303 0.961 . S
H320 C304 0.931 . S
H321 C309 0.930 . S
H322 C310 0.956 . S
H323 C310 0.961 . S
H324 C310 0.961 . S
H325 C311 0.958 . S
H326 C311 0.961 . S
H327 C311 0.960 . S
C328 C329 1.391 . S
C328 C330 1.394 . S
C328 H344 0.931 . S
C329 C328 1.391 . S
C329 C333 1.376 . S
C330 C328 1.394 . S
C330 C331 1.369 . S
C330 C334 1.531 . S
C331 C330 1.369 . S
C331 C332 1.410 . S
C331 C339 1.503 . S
C332 C331 1.410 . S
C332 C333 1.392 . S
C332 C335 1.511 . S
C333 C329 1.376 . S
C333 C332 1.392 . S
C333 H345 0.929 . S
C334 C330 1.531 . S
C334 H346 0.960 . S
C334 H347 0.962 . S
C334 H348 0.960 . S
C335 C332 1.511 . S
C335 H349 0.961 . S
C335 H350 0.961 . S
C335 H351 0.961 . S
C336 C337 1.370 . S
C336 C338 1.363 1_556 S
C336 H352 0.931 . S
C337 C336 1.370 . S
C337 C341 1.408 1_556 S
C338 C336 1.363 1_554 S
C338 C339 1.370 . S
C338 C342 1.524 . S
C339 C331 1.503 . S
C339 C338 1.370 . S
C339 C340 1.403 . S
C340 C339 1.403 . S
C340 C341 1.404 . S
C340 C343 1.539 . S
C341 C337 1.408 1_554 S
C341 C340 1.404 . S
C341 H353 0.930 . S
C342 C338 1.524 . S
C342 H354 0.956 . S
C342 H355 0.961 . S
C342 H356 0.961 . S
C343 C340 1.539 . S
C343 H357 0.958 . S
C343 H358 0.961 . S
C343 H359 0.960 . S
H344 C328 0.931 . S
H345 C333 0.929 . S
H346 C334 0.960 . S
H347 C334 0.962 . S
H348 C334 0.960 . S
H349 C335 0.961 . S
H350 C335 0.961 . S
H351 C335 0.961 . S
H352 C336 0.931 . S
H353 C341 0.930 . S
H354 C342 0.956 . S
H355 C342 0.961 . S
H356 C342 0.961 . S
H357 C343 0.958 . S
H358 C343 0.961 . S
H359 C343 0.960 . S
C360 C361 1.391 . S
C360 C362 1.394 . S
C360 H376 0.931 . S
C361 C360 1.391 . S
C361 C365 1.376 . S
C362 C360 1.394 . S
C362 C363 1.369 . S
C362 C366 1.531 . S
C363 C362 1.369 . S
C363 C364 1.410 . S
C363 C371 1.503 . S
C364 C363 1.410 . S
C364 C365 1.392 . S
C364 C367 1.511 . S
C365 C361 1.376 . S
C365 C364 1.392 . S
C365 H377 0.929 . S
C366 C362 1.531 . S
C366 H378 0.960 . S
C366 H379 0.962 . S
C366 H380 0.960 . S
C367 C364 1.511 . S
C367 H381 0.961 . S
C367 H382 0.961 . S
C367 H383 0.961 . S
C368 C369 1.370 . S
C368 C370 1.363 . S
C368 H384 0.931 . S
C369 C368 1.370 . S
C369 C373 1.408 . S
C370 C368 1.363 . S
C370 C371 1.370 . S
C370 C374 1.524 . S
C371 C363 1.503 . S
C371 C370 1.370 . S
C371 C372 1.403 . S
C372 C371 1.403 . S
C372 C373 1.404 . S
C372 C375 1.539 . S
C373 C369 1.408 . S
C373 C372 1.404 . S
C373 H385 0.930 . S
C374 C370 1.524 . S
C374 H386 0.956 . S
C374 H387 0.961 . S
C374 H388 0.961 . S
C375 C372 1.539 . S
C375 H389 0.958 . S
C375 H390 0.961 . S
C375 H391 0.960 . S
H376 C360 0.931 . S
H377 C365 0.929 . S
H378 C366 0.960 . S
H379 C366 0.962 . S
H380 C366 0.960 . S
H381 C367 0.961 . S
H382 C367 0.961 . S
H383 C367 0.961 . S
H384 C368 0.931 . S
H385 C373 0.930 . S
H386 C374 0.956 . S
H387 C374 0.961 . S
H388 C374 0.961 . S
H389 C375 0.958 . S
H390 C375 0.961 . S
H391 C375 0.960 . S
C392 C393 1.391 . S
C392 C394 1.394 . S
C392 H408 0.931 . S
C393 C392 1.391 . S
C393 C397 1.376 . S
C394 C392 1.394 . S
C394 C395 1.369 . S
C394 C398 1.531 . S
C395 C394 1.369 . S
C395 C396 1.410 . S
C395 C403 1.503 . S
C396 C395 1.410 . S
C396 C397 1.392 . S
C396 C399 1.511 . S
C397 C393 1.376 . S
C397 C396 1.392 . S
C397 H409 0.929 . S
C398 C394 1.531 . S
C398 H410 0.960 . S
C398 H411 0.962 . S
C398 H412 0.960 . S
C399 C396 1.511 . S
C399 H413 0.961 . S
C399 H414 0.961 . S
C399 H415 0.961 . S
C400 C401 1.370 . S
C400 C402 1.363 . S
C400 H416 0.931 . S
C401 C400 1.370 . S
C401 C405 1.408 . S
C402 C400 1.363 . S
C402 C403 1.370 . S
C402 C406 1.524 . S
C403 C395 1.503 . S
C403 C402 1.370 . S
C403 C404 1.403 . S
C404 C403 1.403 . S
C404 C405 1.404 . S
C404 C407 1.539 . S
C405 C401 1.408 . S
C405 C404 1.404 . S
C405 H417 0.930 . S
C406 C402 1.524 . S
C406 H418 0.956 . S
C406 H419 0.961 . S
C406 H420 0.961 . S
C407 C404 1.539 . S
C407 H421 0.958 . S
C407 H422 0.961 . S
C407 H423 0.960 . S
H408 C392 0.931 . S
H409 C397 0.929 . S
H410 C398 0.960 . S
H411 C398 0.962 . S
H412 C398 0.960 . S
H413 C399 0.961 . S
H414 C399 0.961 . S
H415 C399 0.961 . S
H416 C400 0.931 . S
H417 C405 0.930 . S
H418 C406 0.956 . S
H419 C406 0.961 . S
H420 C406 0.961 . S
H421 C407 0.958 . S
H422 C407 0.961 . S
H423 C407 0.960 . S
C424 C425 1.391 . S
C424 C426 1.394 . S
C424 H440 0.931 . S
C425 C424 1.391 . S
C425 C429 1.376 . S
C426 C424 1.394 . S
C426 C427 1.369 . S
C426 C430 1.531 . S
C427 C426 1.369 . S
C427 C428 1.410 . S
C427 C435 1.503 . S
C428 C427 1.410 . S
C428 C429 1.392 . S
C428 C431 1.511 . S
C429 C425 1.376 . S
C429 C428 1.392 . S
C429 H441 0.929 . S
C430 C426 1.531 . S
C430 H442 0.960 . S
C430 H443 0.962 . S
C430 H444 0.960 . S
C431 C428 1.511 . S
C431 H445 0.961 . S
C431 H446 0.961 . S
C431 H447 0.961 . S
C432 C433 1.370 . S
C432 C434 1.363 . S
C432 H448 0.931 . S
C433 C432 1.370 . S
C433 C437 1.408 . S
C434 C432 1.363 . S
C434 C435 1.370 . S
C434 C438 1.524 . S
C435 C427 1.503 . S
C435 C434 1.370 . S
C435 C436 1.403 . S
C436 C435 1.403 . S
C436 C437 1.404 . S
C436 C439 1.539 . S
C437 C433 1.408 . S
C437 C436 1.404 . S
C437 H449 0.930 . S
C438 C434 1.524 . S
C438 H450 0.956 . S
C438 H451 0.961 . S
C438 H452 0.961 . S
C439 C436 1.539 . S
C439 H453 0.958 . S
C439 H454 0.961 . S
C439 H455 0.960 . S
H440 C424 0.931 . S
H441 C429 0.929 . S
H442 C430 0.960 . S
H443 C430 0.962 . S
H444 C430 0.960 . S
H445 C431 0.961 . S
H446 C431 0.961 . S
H447 C431 0.961 . S
H448 C432 0.931 . S
H449 C437 0.930 . S
H450 C438 0.956 . S
H451 C438 0.961 . S
H452 C438 0.961 . S
H453 C439 0.958 . S
H454 C439 0.961 . S
H455 C439 0.960 . S
C456 C457 1.391 . S
C456 C458 1.394 . S
C456 H472 0.931 . S
C457 C456 1.391 . S
C457 C461 1.376 . S
C458 C456 1.394 . S
C458 C459 1.369 . S
C458 C462 1.531 . S
C459 C458 1.369 . S
C459 C460 1.410 . S
C459 C467 1.503 . S
C460 C459 1.410 . S
C460 C461 1.392 . S
C460 C463 1.511 . S
C461 C457 1.376 . S
C461 C460 1.392 . S
C461 H473 0.929 . S
C462 C458 1.531 . S
C462 H474 0.960 . S
C462 H475 0.962 . S
C462 H476 0.960 . S
C463 C460 1.511 . S
C463 H477 0.961 . S
C463 H478 0.961 . S
C463 H479 0.961 . S
C464 C465 1.370 . S
C464 C466 1.363 . S
C464 H480 0.931 . S
C465 C464 1.370 . S
C465 C469 1.408 . S
C466 C464 1.363 . S
C466 C467 1.370 . S
C466 C470 1.524 . S
C467 C459 1.503 . S
C467 C466 1.370 . S
C467 C468 1.403 . S
C468 C467 1.403 . S
C468 C469 1.404 . S
C468 C471 1.539 . S
C469 C465 1.408 . S
C469 C468 1.404 . S
C469 H481 0.930 . S
C470 C466 1.524 . S
C470 H482 0.956 . S
C470 H483 0.961 . S
C470 H484 0.961 . S
C471 C468 1.539 . S
C471 H485 0.958 . S
C471 H486 0.961 . S
C471 H487 0.960 . S
H472 C456 0.931 . S
H473 C461 0.929 . S
H474 C462 0.960 . S
H475 C462 0.962 . S
H476 C462 0.960 . S
H477 C463 0.961 . S
H478 C463 0.961 . S
H479 C463 0.961 . S
H480 C464 0.931 . S
H481 C469 0.930 . S
H482 C470 0.956 . S
H483 C470 0.961 . S
H484 C470 0.961 . S
H485 C471 0.958 . S
H486 C471 0.961 . S
H487 C471 0.960 . S
C488 C489 1.391 . S
C488 C490 1.394 . S
C488 H504 0.931 . S
C489 C488 1.391 . S
C489 C493 1.376 . S
C490 C488 1.394 . S
C490 C491 1.369 . S
C490 C494 1.531 . S
C491 C490 1.369 . S
C491 C492 1.410 . S
C491 C499 1.503 . S
C492 C491 1.410 . S
C492 C493 1.392 . S
C492 C495 1.511 . S
C493 C489 1.376 . S
C493 C492 1.392 . S
C493 H505 0.929 . S
C494 C490 1.531 . S
C494 H506 0.960 . S
C494 H507 0.962 . S
C494 H508 0.960 . S
C495 C492 1.511 . S
C495 H509 0.961 . S
C495 H510 0.961 . S
C495 H511 0.961 . S
C496 C497 1.370 . S
C496 C498 1.363 . S
C496 H512 0.931 . S
C497 C496 1.370 . S
C497 C501 1.408 . S
C498 C496 1.363 . S
C498 C499 1.370 . S
C498 C502 1.524 . S
C499 C491 1.503 . S
C499 C498 1.370 . S
C499 C500 1.403 . S
C500 C499 1.403 . S
C500 C501 1.404 . S
C500 C503 1.539 . S
C501 C497 1.408 . S
C501 C500 1.404 . S
C501 H513 0.930 . S
C502 C498 1.524 . S
C502 H514 0.956 . S
C502 H515 0.961 . S
C502 H516 0.961 . S
C503 C500 1.539 . S
C503 H517 0.958 . S
C503 H518 0.961 . S
C503 H519 0.960 . S
H504 C488 0.931 . S
H505 C493 0.929 . S
H506 C494 0.960 . S
H507 C494 0.962 . S
H508 C494 0.960 . S
H509 C495 0.961 . S
H510 C495 0.961 . S
H511 C495 0.961 . S
H512 C496 0.931 . S
H513 C501 0.930 . S
H514 C502 0.956 . S
H515 C502 0.961 . S
H516 C502 0.961 . S
H517 C503 0.958 . S
H518 C503 0.961 . S
H519 C503 0.960 . S
C520 C521 1.391 . S
C520 C522 1.394 . S
C520 H536 0.931 . S
C521 C520 1.391 . S
C521 C525 1.376 . S
C522 C520 1.394 . S
C522 C523 1.369 . S
C522 C526 1.531 . S
C523 C522 1.369 . S
C523 C524 1.410 . S
C523 C531 1.503 . S
C524 C523 1.410 . S
C524 C525 1.392 . S
C524 C527 1.511 . S
C525 C521 1.376 . S
C525 C524 1.392 . S
C525 H537 0.929 . S
C526 C522 1.531 . S
C526 H538 0.960 . S
C526 H539 0.962 . S
C526 H540 0.960 . S
C527 C524 1.511 . S
C527 H541 0.961 . S
C527 H542 0.961 . S
C527 H543 0.961 . S
C528 C529 1.377 . S
C528 C530 1.363 . S
C528 H544 0.931 . S
C529 C528 1.377 . S
C529 C533 1.404 1_556 S
C530 C528 1.363 . S
C530 C531 1.370 . S
C530 C534 1.524 . S
C531 C523 1.503 . S
C531 C530 1.370 . S
C531 C532 1.403 1_556 S
C532 C531 1.403 1_554 S
C532 C533 1.404 . S
C532 C535 1.539 . S
C533 C529 1.404 1_554 S
C533 C532 1.404 . S
C533 H545 0.930 . S
C534 C530 1.524 . S
C534 H546 0.956 . S
C534 H547 0.961 . S
C534 H548 0.961 . S
C535 C532 1.539 . S
C535 H549 0.958 . S
C535 H550 0.961 . S
C535 H551 0.960 . S
H536 C520 0.931 . S
H537 C525 0.929 . S
H538 C526 0.960 . S
H539 C526 0.962 . S
H540 C526 0.960 . S
H541 C527 0.961 . S
H542 C527 0.961 . S
H543 C527 0.961 . S
H544 C528 0.931 . S
H545 C533 0.930 . S
H546 C534 0.956 . S
H547 C534 0.961 . S
H548 C534 0.961 . S
H549 C535 0.958 . S
H550 C535 0.961 . S
H551 C535 0.960 . S
C552 C553 1.391 . S
C552 C554 1.394 . S
C552 H568 0.931 . S
C553 C552 1.391 . S
C553 C557 1.376 . S
C554 C552 1.394 . S
C554 C555 1.369 . S
C554 C558 1.531 . S
C555 C554 1.369 . S
C555 C556 1.410 . S
C555 C563 1.503 . S
C556 C555 1.410 . S
C556 C557 1.392 . S
C556 C559 1.511 . S
C557 C553 1.376 . S
C557 C556 1.392 . S
C557 H569 0.929 . S
C558 C554 1.531 . S
C558 H570 0.960 . S
C558 H571 0.962 . S
C558 H572 0.960 . S
C559 C556 1.511 . S
C559 H573 0.961 . S
C559 H574 0.961 . S
C559 H575 0.961 . S
C560 C561 1.370 . S
C560 C562 1.363 . S
C560 H576 0.931 . S
C561 C560 1.370 . S
C561 C565 1.408 . S
C562 C560 1.363 . S
C562 C563 1.370 . S
C562 C566 1.524 . S
C563 C555 1.503 . S
C563 C562 1.370 . S
C563 C564 1.403 . S
C564 C563 1.403 . S
C564 C565 1.404 . S
C564 C567 1.539 . S
C565 C561 1.408 . S
C565 C564 1.404 . S
C565 H577 0.930 . S
C566 C562 1.524 . S
C566 H578 0.956 . S
C566 H579 0.961 . S
C566 H580 0.961 . S
C567 C564 1.539 . S
C567 H581 0.958 . S
C567 H582 0.961 . S
C567 H583 0.960 . S
H568 C552 0.931 . S
H569 C557 0.929 . S
H570 C558 0.960 . S
H571 C558 0.962 . S
H572 C558 0.960 . S
H573 C559 0.961 . S
H574 C559 0.961 . S
H575 C559 0.961 . S
H576 C560 0.931 . S
H577 C565 0.930 . S
H578 C566 0.956 . S
H579 C566 0.961 . S
H580 C566 0.961 . S
H581 C567 0.958 . S
H582 C567 0.961 . S
H583 C567 0.960 . S
C584 C585 1.391 . S
C584 C586 1.394 . S
C584 H600 0.931 . S
C585 C584 1.391 . S
C585 C589 1.376 . S
C586 C584 1.394 . S
C586 C587 1.369 . S
C586 C590 1.531 . S
C587 C586 1.369 . S
C587 C588 1.410 . S
C587 C595 1.503 1_554 S
C588 C587 1.410 . S
C588 C589 1.392 . S
C588 C591 1.511 . S
C589 C585 1.376 . S
C589 C588 1.392 . S
C589 H601 0.929 . S
C590 C586 1.531 . S
C590 H602 0.960 . S
C590 H603 0.962 1_554 S
C590 H604 0.960 . S
C591 C588 1.511 . S
C591 H605 0.961 . S
C591 H606 0.961 1_554 S
C591 H607 0.961 . S
C592 C593 1.370 . S
C592 C594 1.363 . S
C592 H608 0.931 . S
C593 C592 1.370 . S
C593 C597 1.408 . S
C594 C592 1.363 . S
C594 C595 1.370 . S
C594 C598 1.524 . S
C595 C587 1.503 1_556 S
C595 C594 1.370 . S
C595 C596 1.403 . S
C596 C595 1.403 . S
C596 C597 1.404 . S
C596 C599 1.539 1_556 S
C597 C593 1.408 . S
C597 C596 1.404 . S
C597 H609 0.930 . S
C598 C594 1.524 . S
C598 H610 0.956 . S
C598 H611 0.961 . S
C598 H612 0.961 . S
C599 C596 1.539 1_554 S
C599 H613 0.958 . S
C599 H614 0.961 . S
C599 H615 0.960 . S
H600 C584 0.931 . S
H601 C589 0.929 . S
H602 C590 0.960 . S
H603 C590 0.962 1_556 S
H604 C590 0.960 . S
H605 C591 0.961 . S
H606 C591 0.961 1_556 S
H607 C591 0.961 . S
H608 C592 0.931 . S
H609 C597 0.930 . S
H610 C598 0.956 . S
H611 C598 0.961 . S
H612 C598 0.961 . S
H613 C599 0.958 . S
H614 C599 0.961 . S
H615 C599 0.960 . S
C616 C617 1.391 . S
C616 C618 1.394 . S
C616 H632 0.931 . S
C617 C616 1.391 . S
C617 C621 1.376 . S
C618 C616 1.394 . S
C618 C619 1.369 . S
C618 C622 1.531 . S
C619 C618 1.369 . S
C619 C620 1.410 . S
C619 C627 1.503 . S
C620 C619 1.410 . S
C620 C621 1.392 . S
C620 C623 1.511 . S
C621 C617 1.376 . S
C621 C620 1.392 . S
C621 H633 0.929 . S
C622 C618 1.531 . S
C622 H634 0.960 1_554 S
C622 H635 0.962 . S
C622 H636 0.960 . S
C623 C620 1.511 . S
C623 H637 0.961 . S
C623 H638 0.961 . S
C623 H639 0.961 . S
C624 C625 1.370 . S
C624 C626 1.363 1_556 S
C624 H640 0.931 . S
C625 C624 1.370 . S
C625 C629 1.408 . S
C626 C624 1.363 1_554 S
C626 C627 1.370 . S
C626 C630 1.524 . S
C627 C619 1.503 . S
C627 C626 1.370 . S
C627 C628 1.403 . S
C628 C627 1.403 . S
C628 C629 1.404 1_554 S
C628 C631 1.539 . S
C629 C625 1.408 . S
C629 C628 1.404 1_556 S
C629 H641 0.930 . S
C630 C626 1.524 . S
C630 H642 0.956 . S
C630 H643 0.961 . S
C630 H644 0.961 . S
C631 C628 1.539 . S
C631 H645 0.958 . S
C631 H646 0.961 . S
C631 H647 0.960 . S
H632 C616 0.931 . S
H633 C621 0.929 . S
H634 C622 0.960 1_556 S
H635 C622 0.962 . S
H636 C622 0.960 . S
H637 C623 0.961 . S
H638 C623 0.961 . S
H639 C623 0.961 . S
H640 C624 0.931 . S
H641 C629 0.930 . S
H642 C630 0.956 . S
H643 C630 0.961 . S
H644 C630 0.961 . S
H645 C631 0.958 . S
H646 C631 0.961 . S
H647 C631 0.960 . S
C648 C649 1.391 . S
C648 C650 1.394 . S
C648 H664 0.931 . S
C649 C648 1.391 . S
C649 C653 1.376 . S
C650 C648 1.394 . S
C650 C651 1.369 . S
C650 C654 1.531 . S
C651 C650 1.369 . S
C651 C652 1.410 . S
C651 C659 1.503 . S
C652 C651 1.410 . S
C652 C653 1.392 . S
C652 C655 1.511 . S
C653 C649 1.376 . S
C653 C652 1.392 . S
C653 H665 0.929 . S
C654 C650 1.531 . S
C654 H666 0.960 . S
C654 H667 0.962 . S
C654 H668 0.960 . S
C655 C652 1.511 . S
C655 H669 0.961 . S
C655 H670 0.961 . S
C655 H671 0.961 . S
C656 C657 1.370 . S
C656 C658 1.363 . S
C656 H672 0.931 . S
C657 C656 1.370 . S
C657 C661 1.408 . S
C658 C656 1.363 . S
C658 C659 1.370 . S
C658 C662 1.524 . S
C659 C651 1.503 . S
C659 C658 1.370 . S
C659 C660 1.403 . S
C660 C659 1.403 . S
C660 C661 1.404 . S
C660 C663 1.539 . S
C661 C657 1.408 . S
C661 C660 1.404 . S
C661 H673 0.930 . S
C662 C658 1.524 . S
C662 H674 0.956 . S
C662 H675 0.961 . S
C662 H676 0.961 . S
C663 C660 1.539 . S
C663 H677 0.958 . S
C663 H678 0.961 . S
C663 H679 0.960 . S
H664 C648 0.931 . S
H665 C653 0.929 . S
H666 C654 0.960 . S
H667 C654 0.962 . S
H668 C654 0.960 . S
H669 C655 0.961 . S
H670 C655 0.961 . S
H671 C655 0.961 . S
H672 C656 0.931 . S
H673 C661 0.930 . S
H674 C662 0.956 . S
H675 C662 0.961 . S
H676 C662 0.961 . S
H677 C663 0.958 . S
H678 C663 0.961 . S
H679 C663 0.960 . S
C680 C681 1.391 . S
C680 C682 1.394 . S
C680 H696 0.931 . S
C681 C680 1.391 . S
C681 C685 1.376 . S
C682 C680 1.394 . S
C682 C683 1.369 . S
C682 C686 1.531 . S
C683 C682 1.369 . S
C683 C684 1.410 . S
C683 C691 1.503 . S
C684 C683 1.410 . S
C684 C685 1.392 . S
C684 C687 1.511 . S
C685 C681 1.376 . S
C685 C684 1.392 . S
C685 H697 0.929 . S
C686 C682 1.531 . S
C686 H698 0.960 . S
C686 H699 0.962 . S
C686 H700 0.960 . S
C687 C684 1.511 . S
C687 H701 0.961 . S
C687 H702 0.961 . S
C687 H703 0.961 . S
C688 C689 1.370 . S
C688 C690 1.363 . S
C688 H704 0.931 . S
C689 C688 1.370 . S
C689 C693 1.408 . S
C690 C688 1.363 . S
C690 C691 1.370 . S
C690 C694 1.524 . S
C691 C683 1.503 . S
C691 C690 1.370 . S
C691 C692 1.403 . S
C692 C691 1.403 . S
C692 C693 1.404 . S
C692 C695 1.539 . S
C693 C689 1.408 . S
C693 C692 1.404 . S
C693 H705 0.930 . S
C694 C690 1.524 . S
C694 H706 0.956 . S
C694 H707 0.961 . S
C694 H708 0.961 . S
C695 C692 1.539 . S
C695 H709 0.958 . S
C695 H710 0.961 . S
C695 H711 0.960 . S
H696 C680 0.931 . S
H697 C685 0.929 . S
H698 C686 0.960 . S
H699 C686 0.962 . S
H700 C686 0.960 . S
H701 C687 0.961 . S
H702 C687 0.961 . S
H703 C687 0.961 . S
H704 C688 0.931 . S
H705 C693 0.930 . S
H706 C694 0.956 . S
H707 C694 0.961 . S
H708 C694 0.961 . S
H709 C695 0.958 . S
H710 C695 0.961 . S
H711 C695 0.960 . S
C712 C713 1.391 . S
C712 C714 1.394 . S
C712 H728 0.931 . S
C713 C712 1.391 . S
C713 C717 1.376 . S
C714 C712 1.394 . S
C714 C715 1.369 . S
C714 C718 1.531 . S
C715 C714 1.369 . S
C715 C716 1.410 . S
C715 C723 1.503 . S
C716 C715 1.410 . S
C716 C717 1.392 . S
C716 C719 1.511 . S
C717 C713 1.376 . S
C717 C716 1.392 . S
C717 H729 0.929 . S
C718 C714 1.531 . S
C718 H730 0.960 . S
C718 H731 0.962 . S
C718 H732 0.960 . S
C719 C716 1.511 . S
C719 H733 0.961 . S
C719 H734 0.961 . S
C719 H735 0.961 . S
C720 C721 1.370 . S
C720 C722 1.363 . S
C720 H736 0.931 . S
C721 C720 1.370 . S
C721 C725 1.408 . S
C722 C720 1.363 . S
C722 C723 1.370 . S
C722 C726 1.524 . S
C723 C715 1.503 . S
C723 C722 1.370 . S
C723 C724 1.403 . S
C724 C723 1.403 . S
C724 C725 1.404 . S
C724 C727 1.539 . S
C725 C721 1.408 . S
C725 C724 1.404 . S
C725 H737 0.930 . S
C726 C722 1.524 . S
C726 H738 0.956 . S
C726 H739 0.961 . S
C726 H740 0.961 . S
C727 C724 1.539 . S
C727 H741 0.958 . S
C727 H742 0.961 . S
C727 H743 0.960 . S
H728 C712 0.931 . S
H729 C717 0.929 . S
H730 C718 0.960 . S
H731 C718 0.962 . S
H732 C718 0.960 . S
H733 C719 0.961 . S
H734 C719 0.961 . S
H735 C719 0.961 . S
H736 C720 0.931 . S
H737 C725 0.930 . S
H738 C726 0.956 . S
H739 C726 0.961 . S
H740 C726 0.961 . S
H741 C727 0.958 . S
H742 C727 0.961 . S
H743 C727 0.960 . S
C744 C745 1.391 . S
C744 C746 1.394 . S
C744 H760 0.931 . S
C745 C744 1.391 . S
C745 C749 1.376 . S
C746 C744 1.394 . S
C746 C747 1.369 . S
C746 C750 1.531 . S
C747 C746 1.369 . S
C747 C748 1.410 . S
C747 C755 1.503 1_455 S
C748 C747 1.410 . S
C748 C749 1.392 . S
C748 C751 1.511 1_455 S
C749 C745 1.376 . S
C749 C748 1.392 . S
C749 H761 0.929 1_556 S
C750 C746 1.531 . S
C750 H762 0.960 . S
C750 H763 0.962 . S
C750 H764 0.960 . S
C751 C748 1.511 1_655 S
C751 H765 0.961 1_655 S
C751 H766 0.961 . S
C751 H767 0.961 . S
C752 C753 1.370 . S
C752 C754 1.363 . S
C752 H768 0.931 . S
C753 C752 1.370 . S
C753 C757 1.408 . S
C754 C752 1.363 . S
C754 C755 1.370 . S
C754 C758 1.524 1_655 S
C755 C747 1.503 1_655 S
C755 C754 1.370 . S
C755 C756 1.403 . S
C756 C755 1.403 . S
C756 C757 1.404 . S
C756 C759 1.539 . S
C757 C753 1.408 . S
C757 C756 1.404 . S
C757 H769 0.930 . S
C758 C754 1.524 1_455 S
C758 H770 0.956 . S
C758 H771 0.961 . S
C758 H772 0.961 . S
C759 C756 1.539 . S
C759 H773 0.958 . S
C759 H774 0.961 . S
C759 H775 0.960 . S
H760 C744 0.931 . S
H761 C749 0.929 1_554 S
H762 C750 0.960 . S
H763 C750 0.962 . S
H764 C750 0.960 . S
H765 C751 0.961 1_455 S
H766 C751 0.961 . S
H767 C751 0.961 . S
H768 C752 0.931 . S
H769 C757 0.930 . S
H770 C758 0.956 . S
H771 C758 0.961 . S
H772 C758 0.961 . S
H773 C759 0.958 . S
H774 C759 0.961 . S
H775 C759 0.960 . S
C776 C777 1.391 . S
C776 C778 1.394 . S
C776 H792 0.931 . S
C777 C776 1.391 . S
C777 C781 1.376 . S
C778 C776 1.394 . S
C778 C779 1.369 1_556 S
C778 C782 1.531 1_565 S
C779 C778 1.369 1_554 S
C779 C780 1.410 . S
C779 C787 1.503 1_565 S
C780 C779 1.410 . S
C780 C781 1.392 1_554 S
C780 C783 1.511 . S
C781 C777 1.376 . S
C781 C780 1.392 1_556 S
C781 H793 0.929 . S
C782 C778 1.531 1_545 S
C782 H794 0.960 . S
C782 H795 0.962 . S
C782 H796 0.960 . S
C783 C780 1.511 . S
C783 H797 0.961 . S
C783 H798 0.961 . S
C783 H799 0.961 . S
C784 C785 1.370 . S
C784 C786 1.363 . S
C784 H800 0.931 . S
C785 C784 1.370 . S
C785 C789 1.408 . S
C786 C784 1.363 . S
C786 C787 1.370 . S
C786 C790 1.524 1_545 S
C787 C779 1.503 1_545 S
C787 C786 1.370 . S
C787 C788 1.403 . S
C788 C787 1.403 . S
C788 C789 1.404 . S
C788 C791 1.539 1_554 S
C789 C785 1.408 . S
C789 C788 1.404 . S
C789 H801 0.930 . S
C790 C786 1.524 1_565 S
C790 H802 0.956 . S
C790 H803 0.961 . S
C790 H804 0.961 . S
C791 C788 1.539 1_556 S
C791 H805 0.958 . S
C791 H806 0.961 . S
C791 H807 0.960 . S
H792 C776 0.931 . S
H793 C781 0.929 . S
H794 C782 0.960 . S
H795 C782 0.962 . S
H796 C782 0.960 . S
H797 C783 0.961 . S
H798 C783 0.961 . S
H799 C783 0.961 . S
H800 C784 0.931 . S
H801 C789 0.930 . S
H802 C790 0.956 . S
H803 C790 0.961 . S
H804 C790 0.961 . S
H805 C791 0.958 . S
H806 C791 0.961 . S
H807 C791 0.960 . S
C808 C809 1.391 . S
C808 C810 1.394 . S
C808 H824 0.931 . S
C809 C808 1.391 . S
C809 C813 1.376 . S
C810 C808 1.394 . S
C810 C811 1.369 . S
C810 C814 1.531 . S
C811 C810 1.369 . S
C811 C812 1.410 . S
C811 C819 1.503 . S
C812 C811 1.410 . S
C812 C813 1.392 . S
C812 C815 1.511 . S
C813 C809 1.376 . S
C813 C812 1.392 . S
C813 H825 0.929 . S
C814 C810 1.531 . S
C814 H826 0.960 . S
C814 H827 0.962 . S
C814 H828 0.960 . S
C815 C812 1.511 . S
C815 H829 0.961 . S
C815 H830 0.961 . S
C815 H831 0.961 . S
C816 C817 1.370 . S
C816 C818 1.363 . S
C816 H832 0.931 . S
C817 C816 1.370 . S
C817 C821 1.408 . S
C818 C816 1.363 . S
C818 C819 1.370 . S
C818 C822 1.524 . S
C819 C811 1.503 . S
C819 C818 1.370 . S
C819 C820 1.403 . S
C820 C819 1.403 . S
C820 C821 1.404 . S
C820 C823 1.539 . S
C821 C817 1.408 . S
C821 C820 1.404 . S
C821 H833 0.930 . S
C822 C818 1.524 . S
C822 H834 0.956 . S
C822 H835 0.961 . S
C822 H836 0.961 . S
C823 C820 1.539 . S
C823 H837 0.958 . S
C823 H838 0.961 . S
C823 H839 0.960 . S
H824 C808 0.931 . S
H825 C813 0.929 . S
H826 C814 0.960 . S
H827 C814 0.962 . S
H828 C814 0.960 . S
H829 C815 0.961 . S
H830 C815 0.961 . S
H831 C815 0.961 . S
H832 C816 0.931 . S
H833 C821 0.930 . S
H834 C822 0.956 . S
H835 C822 0.961 . S
H836 C822 0.961 . S
H837 C823 0.958 . S
H838 C823 0.961 . S
H839 C823 0.960 . S
C840 C841 1.391 . S
C840 C842 1.394 . S
C840 H856 0.931 . S
C841 C840 1.391 . S
C841 C845 1.376 . S
C842 C840 1.394 . S
C842 C843 1.369 . S
C842 C846 1.531 . S
C843 C842 1.369 . S
C843 C844 1.410 . S
C843 C851 1.503 1_455 S
C844 C843 1.410 . S
C844 C845 1.392 . S
C844 C847 1.510 . S
C845 C841 1.376 . S
C845 C844 1.392 . S
C845 H857 0.929 . S
C846 C842 1.531 . S
C846 H858 0.960 1_455 S
C846 H859 0.962 . S
C846 H860 0.960 . S
C847 C844 1.510 . S
C847 H861 0.985 . S
C847 H862 0.951 1_455 S
C847 H863 0.949 1_455 S
C848 C849 1.370 . S
C848 C850 1.363 . S
C848 H864 0.931 . S
C849 C848 1.370 . S
C849 C853 1.408 . S
C850 C848 1.363 . S
C850 C851 1.370 . S
C850 C854 1.524 1_655 S
C851 C843 1.503 1_655 S
C851 C850 1.370 . S
C851 C852 1.403 . S
C852 C851 1.403 . S
C852 C853 1.404 . S
C852 C855 1.539 . S
C853 C849 1.408 . S
C853 C852 1.404 . S
C853 H865 0.930 . S
C854 C850 1.524 1_455 S
C854 H866 0.956 . S
C854 H867 0.961 . S
C854 H868 0.961 . S
C855 C852 1.539 . S
C855 H869 0.958 . S
C855 H870 0.961 . S
C855 H871 0.960 . S
H856 C840 0.931 . S
H857 C845 0.929 . S
H858 C846 0.960 1_655 S
H859 C846 0.962 . S
H860 C846 0.960 . S
H861 C847 0.985 . S
H862 C847 0.951 1_655 S
H863 C847 0.949 1_655 S
H864 C848 0.931 . S
H865 C853 0.930 . S
H866 C854 0.956 . S
H867 C854 0.961 . S
H868 C854 0.961 . S
H869 C855 0.958 . S
H870 C855 0.961 . S
H871 C855 0.960 . S
C872 C873 1.391 . S
C872 C874 1.394 . S
C872 H888 0.931 . S
C873 C872 1.391 . S
C873 C877 1.376 . S
C874 C872 1.394 . S
C874 C875 1.369 . S
C874 C878 1.531 1_545 S
C875 C874 1.369 . S
C875 C876 1.410 . S
C875 C883 1.503 1_545 S
C876 C875 1.410 . S
C876 C877 1.392 . S
C876 C879 1.511 . S
C877 C873 1.376 . S
C877 C876 1.392 . S
C877 H889 0.929 . S
C878 C874 1.531 1_565 S
C878 H890 0.960 . S
C878 H891 0.962 . S
C878 H892 0.960 . S
C879 C876 1.511 . S
C879 H893 0.961 . S
C879 H894 0.961 . S
C879 H895 0.961 . S
C880 C881 1.370 . S
C880 C882 1.363 . S
C880 H896 0.931 . S
C881 C880 1.370 . S
C881 C885 1.408 . S
C882 C880 1.363 . S
C882 C883 1.370 . S
C882 C886 1.524 1_565 S
C883 C875 1.503 1_565 S
C883 C882 1.370 . S
C883 C884 1.403 . S
C884 C883 1.403 . S
C884 C885 1.404 . S
C884 C887 1.539 . S
C885 C881 1.408 . S
C885 C884 1.404 . S
C885 H897 0.930 . S
C886 C882 1.524 1_545 S
C886 H898 0.956 . S
C886 H899 0.961 . S
C886 H900 0.961 . S
C887 C884 1.539 . S
C887 H901 0.958 . S
C887 H902 0.961 . S
C887 H903 0.960 . S
H888 C872 0.931 . S
H889 C877 0.929 . S
H890 C878 0.960 . S
H891 C878 0.962 . S
H892 C878 0.960 . S
H893 C879 0.961 . S
H894 C879 0.961 . S
H895 C879 0.961 . S
H896 C880 0.931 . S
H897 C885 0.930 . S
H898 C886 0.956 . S
H899 C886 0.961 . S
H900 C886 0.961 . S
H901 C887 0.958 . S
H902 C887 0.961 . S
H903 C887 0.960 . S
C904 C905 1.391 . S
C904 C906 1.394 . S
C904 H920 0.931 . S
C905 C904 1.391 . S
C905 C909 1.376 . S
C906 C904 1.394 . S
C906 C907 1.369 . S
C906 C910 1.531 . S
C907 C906 1.369 . S
C907 C908 1.410 . S
C907 C915 1.503 . S
C908 C907 1.410 . S
C908 C909 1.392 . S
C908 C911 1.511 . S
C909 C905 1.376 . S
C909 C908 1.392 . S
C909 H921 0.929 . S
C910 C906 1.531 . S
C910 H922 0.960 . S
C910 H923 0.962 . S
C910 H924 0.960 . S
C911 C908 1.511 . S
C911 H925 0.961 . S
C911 H926 0.961 . S
C911 H927 0.961 . S
C912 C913 1.370 . S
C912 C914 1.363 . S
C912 H928 0.931 . S
C913 C912 1.370 . S
C913 C917 1.408 . S
C914 C912 1.363 . S
C914 C915 1.370 . S
C914 C918 1.524 . S
C915 C907 1.503 . S
C915 C914 1.370 . S
C915 C916 1.403 . S
C916 C915 1.403 . S
C916 C917 1.404 . S
C916 C919 1.539 . S
C917 C913 1.408 . S
C917 C916 1.404 . S
C917 H929 0.930 . S
C918 C914 1.524 . S
C918 H930 0.956 . S
C918 H931 0.961 . S
C918 H932 0.961 . S
C919 C916 1.539 . S
C919 H933 0.958 . S
C919 H934 0.961 . S
C919 H935 0.960 . S
H920 C904 0.931 . S
H921 C909 0.929 . S
H922 C910 0.960 . S
H923 C910 0.962 . S
H924 C910 0.960 . S
H925 C911 0.961 . S
H926 C911 0.961 . S
H927 C911 0.961 . S
H928 C912 0.931 . S
H929 C917 0.930 . S
H930 C918 0.956 . S
H931 C918 0.961 . S
H932 C918 0.961 . S
H933 C919 0.958 . S
H934 C919 0.961 . S
H935 C919 0.960 . S
C169 C12 1.242 . S
C177 C152 1.248 . S
C201 C166 1.188 . S
C209 C19 1.101 . S
C233 C40 1.193 . S
C241 C89 1.103 . S
C265 C54 1.229 . S
C273 C110 1.249 . S
C297 C61 1.029 . S
C305 C124 1.182 . S
C329 C131 1.090 . S
C337 C82 1.176 . S
C361 C4 1.567 . S
C369 C116 1.541 . S
C393 C25 1.504 . S
C401 C137 1.497 . S
C425 C144 1.567 . S
C433 C32 1.541 . S
C457 C46 1.574 . S
C465 C158 1.556 . S
C489 C67 1.513 . S
C497 C95 1.502 . S
C521 C74 1.526 . S
C529 C102 1.560 1_556 S
C553 C151 0.891 . S
C561 C11 0.863 . S
C585 C18 0.978 . S
C593 C165 0.959 . S
C617 C39 0.941 . S
C625 C88 0.938 . S
C649 C53 0.893 . S
C657 C109 0.862 . S
C681 C123 0.959 . S
C689 C60 0.948 . S
C713 C81 0.941 . S
C721 C130 0.938 . S
C745 C5 1.299 . S
C753 C159 1.313 . S
C777 C96 1.443 . S
C785 C26 1.425 . S
C809 C103 1.315 . S
C817 C33 1.318 . S
C841 C117 1.341 . S
C849 C47 1.302 . S
C873 C138 1.438 . S
C881 C68 1.426 . S
C905 C145 1.352 . S
C913 C75 1.353 . S
