# Generated by pormake.
# Topology bcu-l, (5)-cn, num edge types: 1
# Building blocks:
#     Node 0, Type 0, BuildingBlock: XOMCOT_clean_sbu_0, # of connection points: 5
#     Node 1, Type 0, BuildingBlock: XOMCOT_clean_sbu_0, # of connection points: 5
#     Node 2, Type 0, BuildingBlock: XOMCOT_clean_sbu_0, # of connection points: 5
#     Node 3, Type 0, BuildingBlock: XOMCOT_clean_sbu_0, # of connection points: 5
#     Node 4, Type 0, BuildingBlock: XOMCOT_clean_sbu_0, # of connection points: 5
#     Node 5, Type 0, BuildingBlock: XOMCOT_clean_sbu_0, # of connection points: 5
#     Node 6, Type 0, BuildingBlock: XOMCOT_clean_sbu_0, # of connection points: 5
#     Node 7, Type 0, BuildingBlock: XOMCOT_clean_sbu_0, # of connection points: 5
#     Node 8, Type 0, BuildingBlock: XOMCOT_clean_sbu_0, # of connection points: 5
#     Node 9, Type 0, BuildingBlock: XOMCOT_clean_sbu_0, # of connection points: 5
#     Node 10, Type 0, BuildingBlock: XOMCOT_clean_sbu_0, # of connection points: 5
#     Node 11, Type 0, BuildingBlock: XOMCOT_clean_sbu_0, # of connection points: 5
#     Node 12, Type 0, BuildingBlock: XOMCOT_clean_sbu_0, # of connection points: 5
#     Node 13, Type 0, BuildingBlock: XOMCOT_clean_sbu_0, # of connection points: 5
#     Node 14, Type 0, BuildingBlock: XOMCOT_clean_sbu_0, # of connection points: 5
#     Node 15, Type 0, BuildingBlock: XOMCOT_clean_sbu_0, # of connection points: 5
#     Node 16, Type 0, BuildingBlock: XOMCOT_clean_sbu_0, # of connection points: 5
#     Node 17, Type 0, BuildingBlock: XOMCOT_clean_sbu_0, # of connection points: 5
#     Node 18, Type 0, BuildingBlock: XOMCOT_clean_sbu_0, # of connection points: 5
#     Node 19, Type 0, BuildingBlock: XOMCOT_clean_sbu_0, # of connection points: 5
#     Node 20, Type 0, BuildingBlock: XOMCOT_clean_sbu_0, # of connection points: 5
#     Node 21, Type 0, BuildingBlock: XOMCOT_clean_sbu_0, # of connection points: 5
#     Node 22, Type 0, BuildingBlock: XOMCOT_clean_sbu_0, # of connection points: 5
#     Node 23, Type 0, BuildingBlock: XOMCOT_clean_sbu_0, # of connection points: 5
#     Node 24, Type 0, BuildingBlock: XOMCOT_clean_sbu_0, # of connection points: 5
#     Node 25, Type 0, BuildingBlock: XOMCOT_clean_sbu_0, # of connection points: 5
#     Node 26, Type 0, BuildingBlock: XOMCOT_clean_sbu_0, # of connection points: 5
#     Node 27, Type 0, BuildingBlock: XOMCOT_clean_sbu_0, # of connection points: 5
#     Node 28, Type 0, BuildingBlock: XOMCOT_clean_sbu_0, # of connection points: 5
#     Node 29, Type 0, BuildingBlock: XOMCOT_clean_sbu_0, # of connection points: 5
#     Node 30, Type 0, BuildingBlock: XOMCOT_clean_sbu_0, # of connection points: 5
#     Node 31, Type 0, BuildingBlock: XOMCOT_clean_sbu_0, # of connection points: 5
#     Node 32, Type 0, BuildingBlock: XOMCOT_clean_sbu_0, # of connection points: 5
#     Node 33, Type 0, BuildingBlock: XOMCOT_clean_sbu_0, # of connection points: 5
#     Node 34, Type 0, BuildingBlock: XOMCOT_clean_sbu_0, # of connection points: 5
#     Node 35, Type 0, BuildingBlock: XOMCOT_clean_sbu_0, # of connection points: 5
#     Node 36, Type 0, BuildingBlock: XOMCOT_clean_sbu_0, # of connection points: 5
#     Node 37, Type 0, BuildingBlock: XOMCOT_clean_sbu_0, # of connection points: 5
#     Node 38, Type 0, BuildingBlock: XOMCOT_clean_sbu_0, # of connection points: 5
#     Node 39, Type 0, BuildingBlock: XOMCOT_clean_sbu_0, # of connection points: 5
#     Node 40, Type 0, BuildingBlock: XOMCOT_clean_sbu_0, # of connection points: 5
#     Node 41, Type 0, BuildingBlock: XOMCOT_clean_sbu_0, # of connection points: 5
#     Node 42, Type 0, BuildingBlock: XOMCOT_clean_sbu_0, # of connection points: 5
#     Node 43, Type 0, BuildingBlock: XOMCOT_clean_sbu_0, # of connection points: 5
#     Node 44, Type 0, BuildingBlock: XOMCOT_clean_sbu_0, # of connection points: 5
#     Node 45, Type 0, BuildingBlock: XOMCOT_clean_sbu_0, # of connection points: 5
#     Node 46, Type 0, BuildingBlock: XOMCOT_clean_sbu_0, # of connection points: 5
#     Node 47, Type 0, BuildingBlock: XOMCOT_clean_sbu_0, # of connection points: 5
#     Edge 48, Type (0, 0), BuildingBlock: XIVTED_clean_linker_0, # of connection points: 2
#     Edge 49, Type (0, 0), BuildingBlock: XIVTED_clean_linker_0, # of connection points: 2
#     Edge 50, Type (0, 0), BuildingBlock: XIVTED_clean_linker_0, # of connection points: 2
#     Edge 51, Type (0, 0), BuildingBlock: XIVTED_clean_linker_0, # of connection points: 2
#     Edge 52, Type (0, 0), BuildingBlock: XIVTED_clean_linker_0, # of connection points: 2
#     Edge 53, Type (0, 0), BuildingBlock: XIVTED_clean_linker_0, # of connection points: 2
#     Edge 54, Type (0, 0), BuildingBlock: XIVTED_clean_linker_0, # of connection points: 2
#     Edge 55, Type (0, 0), BuildingBlock: XIVTED_clean_linker_0, # of connection points: 2
#     Edge 56, Type (0, 0), BuildingBlock: XIVTED_clean_linker_0, # of connection points: 2
#     Edge 57, Type (0, 0), BuildingBlock: XIVTED_clean_linker_0, # of connection points: 2
#     Edge 58, Type (0, 0), BuildingBlock: XIVTED_clean_linker_0, # of connection points: 2
#     Edge 59, Type (0, 0), BuildingBlock: XIVTED_clean_linker_0, # of connection points: 2
#     Edge 60, Type (0, 0), BuildingBlock: XIVTED_clean_linker_0, # of connection points: 2
#     Edge 61, Type (0, 0), BuildingBlock: XIVTED_clean_linker_0, # of connection points: 2
#     Edge 62, Type (0, 0), BuildingBlock: XIVTED_clean_linker_0, # of connection points: 2
#     Edge 63, Type (0, 0), BuildingBlock: XIVTED_clean_linker_0, # of connection points: 2
#     Edge 64, Type (0, 0), BuildingBlock: XIVTED_clean_linker_0, # of connection points: 2
#     Edge 65, Type (0, 0), BuildingBlock: XIVTED_clean_linker_0, # of connection points: 2
#     Edge 66, Type (0, 0), BuildingBlock: XIVTED_clean_linker_0, # of connection points: 2
#     Edge 67, Type (0, 0), BuildingBlock: XIVTED_clean_linker_0, # of connection points: 2
#     Edge 68, Type (0, 0), BuildingBlock: XIVTED_clean_linker_0, # of connection points: 2
#     Edge 69, Type (0, 0), BuildingBlock: XIVTED_clean_linker_0, # of connection points: 2
#     Edge 70, Type (0, 0), BuildingBlock: XIVTED_clean_linker_0, # of connection points: 2
#     Edge 71, Type (0, 0), BuildingBlock: XIVTED_clean_linker_0, # of connection points: 2
#     Edge 72, Type (0, 0), BuildingBlock: XIVTED_clean_linker_0, # of connection points: 2
#     Edge 73, Type (0, 0), BuildingBlock: XIVTED_clean_linker_0, # of connection points: 2
#     Edge 74, Type (0, 0), BuildingBlock: XIVTED_clean_linker_0, # of connection points: 2
#     Edge 75, Type (0, 0), BuildingBlock: XIVTED_clean_linker_0, # of connection points: 2
#     Edge 76, Type (0, 0), BuildingBlock: XIVTED_clean_linker_0, # of connection points: 2
#     Edge 77, Type (0, 0), BuildingBlock: XIVTED_clean_linker_0, # of connection points: 2
#     Edge 78, Type (0, 0), BuildingBlock: XIVTED_clean_linker_0, # of connection points: 2
#     Edge 79, Type (0, 0), BuildingBlock: XIVTED_clean_linker_0, # of connection points: 2
#     Edge 80, Type (0, 0), BuildingBlock: XIVTED_clean_linker_0, # of connection points: 2
#     Edge 81, Type (0, 0), BuildingBlock: XIVTED_clean_linker_0, # of connection points: 2
#     Edge 82, Type (0, 0), BuildingBlock: XIVTED_clean_linker_0, # of connection points: 2
#     Edge 83, Type (0, 0), BuildingBlock: XIVTED_clean_linker_0, # of connection points: 2
#     Edge 84, Type (0, 0), BuildingBlock: XIVTED_clean_linker_0, # of connection points: 2
#     Edge 85, Type (0, 0), BuildingBlock: XIVTED_clean_linker_0, # of connection points: 2
#     Edge 86, Type (0, 0), BuildingBlock: XIVTED_clean_linker_0, # of connection points: 2
#     Edge 87, Type (0, 0), BuildingBlock: XIVTED_clean_linker_0, # of connection points: 2
#     Edge 88, Type (0, 0), BuildingBlock: XIVTED_clean_linker_0, # of connection points: 2
#     Edge 89, Type (0, 0), BuildingBlock: XIVTED_clean_linker_0, # of connection points: 2
#     Edge 90, Type (0, 0), BuildingBlock: XIVTED_clean_linker_0, # of connection points: 2
#     Edge 91, Type (0, 0), BuildingBlock: XIVTED_clean_linker_0, # of connection points: 2
#     Edge 92, Type (0, 0), BuildingBlock: XIVTED_clean_linker_0, # of connection points: 2
#     Edge 93, Type (0, 0), BuildingBlock: XIVTED_clean_linker_0, # of connection points: 2
#     Edge 94, Type (0, 0), BuildingBlock: XIVTED_clean_linker_0, # of connection points: 2
#     Edge 95, Type (0, 0), BuildingBlock: XIVTED_clean_linker_0, # of connection points: 2
#     Edge 96, Type (0, 0), BuildingBlock: XIVTED_clean_linker_0, # of connection points: 2
#     Edge 97, Type (0, 0), BuildingBlock: XIVTED_clean_linker_0, # of connection points: 2
#     Edge 98, Type (0, 0), BuildingBlock: XIVTED_clean_linker_0, # of connection points: 2
#     Edge 99, Type (0, 0), BuildingBlock: XIVTED_clean_linker_0, # of connection points: 2
#     Edge 100, Type (0, 0), BuildingBlock: XIVTED_clean_linker_0, # of connection points: 2
#     Edge 101, Type (0, 0), BuildingBlock: XIVTED_clean_linker_0, # of connection points: 2
#     Edge 102, Type (0, 0), BuildingBlock: XIVTED_clean_linker_0, # of connection points: 2
#     Edge 103, Type (0, 0), BuildingBlock: XIVTED_clean_linker_0, # of connection points: 2
#     Edge 104, Type (0, 0), BuildingBlock: XIVTED_clean_linker_0, # of connection points: 2
#     Edge 105, Type (0, 0), BuildingBlock: XIVTED_clean_linker_0, # of connection points: 2
#     Edge 106, Type (0, 0), BuildingBlock: XIVTED_clean_linker_0, # of connection points: 2
#     Edge 107, Type (0, 0), BuildingBlock: XIVTED_clean_linker_0, # of connection points: 2
#     Edge 108, Type (0, 0), BuildingBlock: XIVTED_clean_linker_0, # of connection points: 2
#     Edge 109, Type (0, 0), BuildingBlock: XIVTED_clean_linker_0, # of connection points: 2
#     Edge 110, Type (0, 0), BuildingBlock: XIVTED_clean_linker_0, # of connection points: 2
#     Edge 111, Type (0, 0), BuildingBlock: XIVTED_clean_linker_0, # of connection points: 2
#     Edge 112, Type (0, 0), BuildingBlock: XIVTED_clean_linker_0, # of connection points: 2
#     Edge 113, Type (0, 0), BuildingBlock: XIVTED_clean_linker_0, # of connection points: 2
#     Edge 114, Type (0, 0), BuildingBlock: XIVTED_clean_linker_0, # of connection points: 2
#     Edge 115, Type (0, 0), BuildingBlock: XIVTED_clean_linker_0, # of connection points: 2
#     Edge 116, Type (0, 0), BuildingBlock: XIVTED_clean_linker_0, # of connection points: 2
#     Edge 117, Type (0, 0), BuildingBlock: XIVTED_clean_linker_0, # of connection points: 2
#     Edge 118, Type (0, 0), BuildingBlock: XIVTED_clean_linker_0, # of connection points: 2
#     Edge 119, Type (0, 0), BuildingBlock: XIVTED_clean_linker_0, # of connection points: 2
#     Edge 120, Type (0, 0), BuildingBlock: XIVTED_clean_linker_0, # of connection points: 2
#     Edge 121, Type (0, 0), BuildingBlock: XIVTED_clean_linker_0, # of connection points: 2
#     Edge 122, Type (0, 0), BuildingBlock: XIVTED_clean_linker_0, # of connection points: 2
#     Edge 123, Type (0, 0), BuildingBlock: XIVTED_clean_linker_0, # of connection points: 2
#     Edge 124, Type (0, 0), BuildingBlock: XIVTED_clean_linker_0, # of connection points: 2
#     Edge 125, Type (0, 0), BuildingBlock: XIVTED_clean_linker_0, # of connection points: 2
#     Edge 126, Type (0, 0), BuildingBlock: XIVTED_clean_linker_0, # of connection points: 2
#     Edge 127, Type (0, 0), BuildingBlock: XIVTED_clean_linker_0, # of connection points: 2
#     Edge 128, Type (0, 0), BuildingBlock: XIVTED_clean_linker_0, # of connection points: 2
#     Edge 129, Type (0, 0), BuildingBlock: XIVTED_clean_linker_0, # of connection points: 2
#     Edge 130, Type (0, 0), BuildingBlock: XIVTED_clean_linker_0, # of connection points: 2
#     Edge 131, Type (0, 0), BuildingBlock: XIVTED_clean_linker_0, # of connection points: 2
#     Edge 132, Type (0, 0), BuildingBlock: XIVTED_clean_linker_0, # of connection points: 2
#     Edge 133, Type (0, 0), BuildingBlock: XIVTED_clean_linker_0, # of connection points: 2
#     Edge 134, Type (0, 0), BuildingBlock: XIVTED_clean_linker_0, # of connection points: 2
#     Edge 135, Type (0, 0), BuildingBlock: XIVTED_clean_linker_0, # of connection points: 2
#     Edge 136, Type (0, 0), BuildingBlock: XIVTED_clean_linker_0, # of connection points: 2
#     Edge 137, Type (0, 0), BuildingBlock: XIVTED_clean_linker_0, # of connection points: 2
#     Edge 138, Type (0, 0), BuildingBlock: XIVTED_clean_linker_0, # of connection points: 2
#     Edge 139, Type (0, 0), BuildingBlock: XIVTED_clean_linker_0, # of connection points: 2
#     Edge 140, Type (0, 0), BuildingBlock: XIVTED_clean_linker_0, # of connection points: 2
#     Edge 141, Type (0, 0), BuildingBlock: XIVTED_clean_linker_0, # of connection points: 2
#     Edge 142, Type (0, 0), BuildingBlock: XIVTED_clean_linker_0, # of connection points: 2
#     Edge 143, Type (0, 0), BuildingBlock: XIVTED_clean_linker_0, # of connection points: 2
#     Edge 144, Type (0, 0), BuildingBlock: XIVTED_clean_linker_0, # of connection points: 2
#     Edge 145, Type (0, 0), BuildingBlock: XIVTED_clean_linker_0, # of connection points: 2
#     Edge 146, Type (0, 0), BuildingBlock: XIVTED_clean_linker_0, # of connection points: 2
#     Edge 147, Type (0, 0), BuildingBlock: XIVTED_clean_linker_0, # of connection points: 2
#     Edge 148, Type (0, 0), BuildingBlock: XIVTED_clean_linker_0, # of connection points: 2
#     Edge 149, Type (0, 0), BuildingBlock: XIVTED_clean_linker_0, # of connection points: 2
#     Edge 150, Type (0, 0), BuildingBlock: XIVTED_clean_linker_0, # of connection points: 2
#     Edge 151, Type (0, 0), BuildingBlock: XIVTED_clean_linker_0, # of connection points: 2
#     Edge 152, Type (0, 0), BuildingBlock: XIVTED_clean_linker_0, # of connection points: 2
#     Edge 153, Type (0, 0), BuildingBlock: XIVTED_clean_linker_0, # of connection points: 2
#     Edge 154, Type (0, 0), BuildingBlock: XIVTED_clean_linker_0, # of connection points: 2
#     Edge 155, Type (0, 0), BuildingBlock: XIVTED_clean_linker_0, # of connection points: 2
#     Edge 156, Type (0, 0), BuildingBlock: XIVTED_clean_linker_0, # of connection points: 2
#     Edge 157, Type (0, 0), BuildingBlock: XIVTED_clean_linker_0, # of connection points: 2
#     Edge 158, Type (0, 0), BuildingBlock: XIVTED_clean_linker_0, # of connection points: 2
#     Edge 159, Type (0, 0), BuildingBlock: XIVTED_clean_linker_0, # of connection points: 2
#     Edge 160, Type (0, 0), BuildingBlock: XIVTED_clean_linker_0, # of connection points: 2
#     Edge 161, Type (0, 0), BuildingBlock: XIVTED_clean_linker_0, # of connection points: 2
#     Edge 162, Type (0, 0), BuildingBlock: XIVTED_clean_linker_0, # of connection points: 2
#     Edge 163, Type (0, 0), BuildingBlock: XIVTED_clean_linker_0, # of connection points: 2
#     Edge 164, Type (0, 0), BuildingBlock: XIVTED_clean_linker_0, # of connection points: 2
#     Edge 165, Type (0, 0), BuildingBlock: XIVTED_clean_linker_0, # of connection points: 2
#     Edge 166, Type (0, 0), BuildingBlock: XIVTED_clean_linker_0, # of connection points: 2
#     Edge 167, Type (0, 0), BuildingBlock: XIVTED_clean_linker_0, # of connection points: 2
# Relax obj value: 0.274
# Max RMSD: 0.240
# Mean RMSD: 0.238
data_MOF--net-bcu-l--node1-XOMCOT_clean_sbu_0--edge1-XIVTED_clean_linker_0
_symmetry_space_group_name_H-M    P1
_symmetry_Int_Tables_number       1
_symmetry_cell_setting            triclinic
loop_
_symmetry_equiv_pos_as_xyz
'x, y, z'
_cell_length_a     66.535078
_cell_length_b     66.580656
_cell_length_c     66.556659
_cell_angle_alpha  90.007545
_cell_angle_beta   90.293395
_cell_angle_gamma 89.908306
loop_
_atom_site_label
_atom_site_type_symbol
_atom_site_fract_x
_atom_site_fract_y
_atom_site_fract_z
_atom_type_partial_charge
Co0 Co 0.02997 0.18863 0.38127 0.0
C1 C 0.06045 0.15634 0.37175 0.0
C2 C 0.06819 0.17404 0.39749 0.0
C3 C 0.08196 0.15886 0.39581 0.0
N4 N 0.05501 0.17316 0.38202 0.0
N5 N 0.07714 0.14761 0.37971 0.0
H6 H 0.05185 0.14995 0.3595 0.0
H7 H 0.0671 0.18405 0.4102 0.0
C8 C 0.05908 0.22017 0.39483 0.0
O9 O 0.07033 0.21391 0.3799 0.0
N10 N 1.005 0.20321 0.38205 0.0
C11 C 0.99089 0.20532 0.36764 0.0
C12 C 0.97417 0.21418 0.37611 0.0
C13 C 0.99677 0.21051 0.39895 0.0
N14 N 0.97791 0.21733 0.39585 0.0
C15 C 0.04152 0.19295 0.33951 0.0
C16 C 0.03712 0.23428 0.33842 0.0
C17 C 0.04152 0.22414 0.32058 0.0
C18 C 0.04368 0.20318 0.32119 0.0
C19 C 0.03456 0.22352 0.35616 0.0
N20 N 0.0372 0.20313 0.35679 0.0
H21 H 0.04244 0.17679 0.33959 0.0
H22 H 0.02974 0.23163 0.36934 0.0
H23 H 0.99241 0.20019 0.3523 0.0
H24 H 1.00414 0.20972 0.41345 0.0
O25 O 0.01612 0.16633 0.36885 0.0
O26 O 0.01902 0.17077 0.40168 0.0
O27 O 0.0426 0.21088 0.39865 0.0
C28 C 0.0115 0.16035 0.3868 0.0
H29 H 0.09374 0.15544 0.40656 0.0
H30 H 0.96027 0.21768 0.36836 0.0
H31 H 0.03469 0.25038 0.3385 0.0
H32 H 0.04671 0.19478 0.3076 0.0
Co33 Co 0.84674 0.02782 0.3934 0.0
C34 C 0.87943 0.05996 0.38842 0.0
C35 C 0.86698 0.05692 0.41789 0.0
C36 C 0.88212 0.07066 0.41883 0.0
N37 N 0.86464 0.05046 0.39883 0.0
N38 N 0.89007 0.07278 0.40039 0.0
H39 H 0.88285 0.05714 0.37283 0.0
H40 H 0.85873 0.05124 0.43063 0.0
C41 C 0.82032 0.05827 0.41231 0.0
O42 O 0.8291 0.07064 0.39973 0.0
N43 N 0.82959 1.00483 0.38996 0.0
C44 C 0.8258 0.99385 0.37339 0.0
C45 C 0.81478 0.97721 0.37899 0.0
C46 C 0.82116 0.99481 0.40526 0.0
N47 N 0.81196 0.97784 0.3991 0.0
C48 C 0.84336 0.04358 0.35297 0.0
C49 C 0.80179 0.04426 0.35227 0.0
C50 C 0.81202 0.04654 0.3341 0.0
C51 C 0.83314 0.04657 0.33465 0.0
C52 C 0.81248 0.04085 0.37005 0.0
N53 N 0.83308 0.04047 0.37042 0.0
H54 H 0.8595 0.04213 0.35275 0.0
H55 H 0.80395 0.03667 0.38313 0.0
H56 H 0.83112 0.99739 0.35847 0.0
H57 H 0.82272 0.99946 0.42076 0.0
O58 O 0.86755 0.0143 0.37871 0.0
O59 O 0.86349 0.01143 0.41148 0.0
O60 O 0.82599 0.03981 0.41276 0.0
C61 C 0.87322 1.00592 0.39538 0.0
H62 H 0.8876 0.07773 0.43244 0.0
H63 H 0.80954 0.96548 0.36903 0.0
H64 H 0.78553 0.04346 0.35257 0.0
H65 H 0.84169 0.04806 0.32093 0.0
Co66 Co 0.99566 0.83483 0.3803 0.0
C67 C 0.02832 0.81615 0.40361 0.0
C68 C 0.01356 0.79466 0.38448 0.0
C69 C 0.02749 0.78469 0.39618 0.0
N70 N 0.01407 0.81433 0.38928 0.0
N71 N 0.03671 0.79828 0.40804 0.0
H72 H 0.03182 0.83003 0.41134 0.0
H73 H 1.00332 0.78797 0.37375 0.0
C74 C 0.02133 0.8718 0.37558 0.0
O75 O 0.01008 0.87701 0.36019 0.0
N76 N 0.97671 0.85583 0.37172 0.0
C77 C 0.97077 0.86038 0.35283 0.0
C78 C 0.958 0.87651 0.35331 0.0
C79 C 0.96725 0.86964 0.38345 0.0
N80 N 0.95557 0.88242 0.37253 0.0
C81 C 0.99211 0.81939 0.34036 0.0
C82 C 0.03227 0.8219 0.33049 0.0
C83 C 0.01929 0.81125 0.31766 0.0
C84 C 0.99887 0.81053 0.32262 0.0
C85 C 0.02481 0.83086 0.34805 0.0
N86 N 1.00487 0.82959 0.35287 0.0
H87 H 0.97651 0.81749 0.34433 0.0
H88 H 0.03545 0.83741 0.35842 0.0
H89 H 0.97598 0.85351 0.33921 0.0
H90 H 0.96904 0.87039 0.39959 0.0
O91 O 0.97411 0.81548 0.38069 0.0
O92 O 0.98316 0.83365 0.40694 0.0
O93 O 0.01747 0.85569 0.38533 0.0
C94 C 0.97192 0.81931 0.39962 0.0
H95 H 0.03044 0.76869 0.39623 0.0
H96 H 0.9517 0.88379 0.34019 0.0
H97 H 0.04822 0.82265 0.32742 0.0
H98 H 0.98831 0.80209 0.31352 0.0
Co99 Co 0.18987 0.99564 0.38401 0.0
C100 C 0.2095 0.02732 0.40879 0.0
C101 C 0.20836 0.03533 0.37767 0.0
C102 C 0.21521 0.05158 0.38839 0.0
N103 N 0.20504 0.01987 0.39037 0.0
N104 N 0.21578 0.04659 0.408 0.0
H105 H 0.20699 0.01936 0.42269 0.0
H106 H 0.20484 0.03542 0.36181 0.0
C107 C 0.14832 0.01508 0.37348 0.0
O108 O 0.14015 0.99901 0.36548 0.0
N109 N 0.17418 0.97179 0.37793 0.0
C110 C 0.17982 0.95662 0.36579 0.0
C111 C 0.16527 0.94192 0.36618 0.0
C112 C 0.15648 0.96588 0.38593 0.0
N113 N 0.15052 0.94782 0.37872 0.0
C114 C 0.21807 0.99643 0.35251 0.0
C115 C 0.19222 1.00019 0.32012 0.0
C116 C 0.21292 0.99822 0.31667 0.0
C117 C 0.22583 0.99645 0.33318 0.0
C118 C 0.18493 0.99974 0.33994 0.0
N119 N 0.19788 0.99793 0.35587 0.0
H120 H 0.22849 0.9954 0.36495 0.0
H121 H 0.16899 1.00043 0.34227 0.0
H122 H 0.19361 0.95623 0.35726 0.0
H123 H 0.14812 0.97464 0.39676 0.0
O124 O 0.21199 0.97881 0.39229 0.0
O125 O 0.18822 0.98924 0.41285 0.0
O126 O 0.16622 0.01465 0.38061 0.0
C127 C 0.20509 0.97946 0.41036 0.0
H128 H 0.21888 0.06613 0.3822 0.0
H129 H 0.16529 0.92814 0.35754 0.0
H130 H 0.18178 1.00154 0.30765 0.0
H131 H 0.24194 0.99523 0.33117 0.0
Co132 Co 0.03024 0.83994 0.64855 0.0
C133 C 1.00158 0.81282 0.6263 0.0
C134 C 0.98989 0.82432 0.65397 0.0
C135 C 0.9751 0.81352 0.64464 0.0
N136 N 1.00666 0.82376 0.6427 0.0
N137 N 0.98237 0.8062 0.62723 0.0
H138 H 0.01137 0.81027 0.61369 0.0
H139 H 0.98816 0.83288 0.66766 0.0
C140 C 0.0097 0.88177 0.65445 0.0
O141 O 0.0252 0.89046 0.66306 0.0
N142 N 0.05353 0.8566 0.65452 0.0
C143 C 0.06705 0.85297 0.6692 0.0
C144 C 0.08062 0.8685 0.66985 0.0
C145 C 0.05965 0.87394 0.64577 0.0
N146 N 0.07592 0.8818 0.65527 0.0
C147 C 0.02739 0.81401 0.68169 0.0
C148 C 0.02296 0.84155 0.71237 0.0
C149 C 0.02447 0.82102 0.71705 0.0
C150 C 0.02648 0.80728 0.70138 0.0
C151 C 0.02423 0.8478 0.69215 0.0
N152 N 0.02654 0.83399 0.6771 0.0
H153 H 0.02874 0.80292 0.66994 0.0
H154 H 0.02383 0.8636 0.68883 0.0
H155 H 0.06679 0.84012 0.67914 0.0
H156 H 0.05171 0.88122 0.63354 0.0
O157 O 0.04793 0.81767 0.64326 0.0
O158 O 0.03796 0.83915 0.62 0.0
O159 O 0.01063 0.86345 0.64867 0.0
C160 C 0.04812 0.82293 0.62461 0.0
H161 H 0.95982 0.81214 0.64993 0.0
H162 H 0.09283 0.87011 0.68054 0.0
H163 H 0.02138 0.85261 0.72419 0.0
H164 H 0.02736 0.79129 0.70433 0.0
Co165 Co 0.18411 0.02793 0.65524 0.0
C166 C 0.14762 0.05471 0.65653 0.0
C167 C 0.17503 0.07037 0.66317 0.0
C168 C 0.15923 0.0836 0.66513 0.0
N169 N 0.16782 0.05215 0.65805 0.0
N170 N 0.14204 0.07377 0.6609 0.0
H171 H 0.13708 0.04289 0.65291 0.0
H172 H 0.19074 0.07375 0.6657 0.0
C173 C 0.2061 0.04383 0.61876 0.0
O174 O 0.19364 0.03434 0.6067 0.0
N175 N 0.20025 1.00394 0.65243 0.0
C176 C 0.20638 0.99158 0.66727 0.0
C177 C 0.21583 0.97524 0.65883 0.0
C178 C 0.2057 0.99483 0.63521 0.0
N179 N 0.21535 0.9773 0.63865 0.0
C180 C 0.19118 0.03729 0.69691 0.0
C181 C 0.2326 0.03985 0.69416 0.0
C182 C 0.22375 0.04102 0.7132 0.0
C183 C 0.20269 0.03999 0.71441 0.0
C184 C 0.22061 0.03699 0.67712 0.0
N185 N 0.20018 0.03555 0.67861 0.0
H186 H 0.17503 0.03602 0.69807 0.0
H187 H 0.22799 0.03482 0.66287 0.0
H188 H 0.20384 0.99409 0.68311 0.0
H189 H 0.20192 1.00042 0.62047 0.0
O190 O 0.16406 0.01216 0.6687 0.0
O191 O 0.16503 0.01651 0.63578 0.0
O192 O 0.20347 0.04332 0.63772 0.0
C193 C 0.15667 0.00772 0.65118 0.0
H194 H 0.16026 0.09926 0.66937 0.0
H195 H 0.22254 0.96285 0.66698 0.0
H196 H 0.24877 0.04009 0.69247 0.0
H197 H 0.19518 0.04093 0.72878 0.0
Co198 Co 0.99363 0.18725 0.65005 0.0
C199 C 0.02223 0.21702 0.6316 0.0
C200 C 0.03721 0.19086 0.64281 0.0
C201 C 0.05101 0.20237 0.63307 0.0
N202 N 0.019 0.19996 0.64227 0.0
N203 N 0.04165 0.21874 0.62581 0.0
H204 H 0.01059 0.22756 0.62736 0.0
H205 H 0.04049 0.17616 0.64874 0.0
C206 C 0.0114 0.14802 0.6643 0.0
O207 O 1.00146 0.15005 0.68119 0.0
N208 N 0.96834 0.17344 0.65674 0.0
C209 C 0.95036 0.18192 0.66092 0.0
C210 C 0.93589 0.1672 0.66209 0.0
C211 C 0.96408 0.15356 0.65465 0.0
N212 N 0.9445 0.1493 0.65819 0.0
C213 C 0.98612 0.20429 0.68881 0.0
C214 C 0.02395 0.19923 0.70515 0.0
C215 C 0.0103 0.21181 0.71509 0.0
C216 C 0.99094 0.21364 0.70701 0.0
C217 C 0.01837 0.1898 0.68708 0.0
N218 N 0.99976 0.19282 0.67862 0.0
H219 H 0.97178 0.20779 0.68226 0.0
H220 H 0.02947 0.1807 0.67979 0.0
H221 H 0.94744 0.19783 0.66207 0.0
H222 H 0.97472 0.14247 0.64949 0.0
O223 O 0.97911 0.21189 0.64525 0.0
O224 O 0.98444 0.18911 0.62181 0.0
O225 O 0.00846 0.16049 0.64992 0.0
C226 C 0.9765 0.2064 0.62678 0.0
H227 H 0.06644 0.19815 0.63019 0.0
H228 H 0.92014 0.16962 0.66526 0.0
H229 H 0.03904 0.19716 0.71096 0.0
H230 H 0.97995 0.22345 0.7139 0.0
Co231 Co 0.83146 0.99433 0.64852 0.0
C232 C 0.80854 0.02414 0.62372 0.0
C233 C 0.80898 0.03168 0.65501 0.0
C234 C 0.80055 0.04737 0.64466 0.0
N235 N 0.8138 0.01684 0.64204 0.0
N236 N 0.80042 0.04272 0.62498 0.0
H237 H 0.81192 0.01686 0.60964 0.0
H238 H 0.81261 0.03194 0.67084 0.0
C239 C 0.87092 0.01698 0.65939 0.0
O240 O 0.87934 1.00146 0.66821 0.0
N241 N 0.84948 0.97213 0.65498 0.0
C242 C 0.84511 0.95693 0.66758 0.0
C243 C 0.86077 0.94341 0.66764 0.0
C244 C 0.86764 0.96733 0.64711 0.0
N245 N 0.87502 0.94999 0.65492 0.0
C246 C 0.80261 0.99185 0.67924 0.0
C247 C 0.82648 0.99874 0.71254 0.0
C248 C 0.80601 0.99428 0.71526 0.0
C249 C 0.79414 0.99099 0.69823 0.0
C250 C 0.83459 0.99914 0.69298 0.0
N251 N 0.8226 0.9957 0.67657 0.0
H252 H 0.79278 0.98974 0.66647 0.0
H253 H 0.85037 1.00196 0.69123 0.0
H254 H 0.83136 0.95565 0.67608 0.0
H255 H 0.8753 0.97634 0.63599 0.0
O256 O 0.8116 0.97499 0.64012 0.0
O257 O 0.83395 0.9881 0.61961 0.0
O258 O 0.85318 0.01569 0.65192 0.0
C259 C 0.81858 0.97616 0.62213 0.0
H260 H 0.79564 0.06148 0.65106 0.0
H261 H 0.86175 0.92991 0.67665 0.0
H262 H 0.83617 1.00148 0.72537 0.0
H263 H 0.77818 0.98807 0.69952 0.0
Co264 Co 0.37682 0.03054 0.18871 0.0
C265 C 0.38494 1.0011 0.22205 0.0
C266 C 0.3855 0.98722 0.193 0.0
C267 C 0.38963 0.97285 0.20708 0.0
N268 N 0.38225 1.00502 0.20223 0.0
N269 N 0.38939 0.98153 0.2253 0.0
H270 H 0.38407 0.01222 0.23384 0.0
H271 H 0.38527 0.98448 0.17704 0.0
C272 C 0.36488 0.01268 0.14876 0.0
O273 O 0.34789 0.02275 0.14942 0.0
N274 N 0.37241 0.05602 0.17442 0.0
C275 C 0.36971 0.07447 0.18248 0.0
C276 C 0.3699 0.08868 0.1674 0.0
C277 C 0.37493 0.0596 0.15451 0.0
N278 N 0.37307 0.07925 0.14981 0.0
C279 C 0.33681 0.04037 0.20059 0.0
C280 C 0.32042 1.00258 0.19601 0.0
C281 C 0.30936 0.01724 0.20638 0.0
C282 C 0.3176 0.03653 0.20796 0.0
C283 C 0.33965 1.00707 0.18881 0.0
N284 N 0.3479 0.02573 0.19147 0.0
H285 H 0.34331 0.05477 0.20381 0.0
H286 H 0.34814 0.99518 0.18186 0.0
H287 H 0.36837 0.07769 0.19833 0.0
H288 H 0.37931 0.04843 0.14365 0.0
O289 O 0.38019 0.04454 0.21382 0.0
O290 O 0.40503 0.03824 0.19276 0.0
O291 O 0.37848 0.0157 0.16209 0.0
C292 C 0.39919 0.04582 0.20991 0.0
H293 H 0.39359 0.95736 0.20407 0.0
H294 H 0.36807 0.10473 0.16927 0.0
H295 H 0.31464 0.98749 0.19419 0.0
H296 H 0.30997 0.04828 0.21622 0.0
Co297 Co 1.00097 0.39015 0.19285 0.0
C298 C 0.02989 0.40358 0.22506 0.0
C299 C 0.04457 0.3976 0.19712 0.0
C300 C 0.05866 0.40426 0.21051 0.0
N301 N 0.02641 0.39676 0.20615 0.0
N302 N 0.04945 0.40813 0.228 0.0
H303 H 0.01849 0.40567 0.23636 0.0
H304 H 0.04771 0.39414 0.18164 0.0
C305 C 0.01783 0.37805 0.15268 0.0
O306 O 1.00698 0.3616 0.15364 0.0
N307 N 0.97549 0.38459 0.17886 0.0
C308 C 0.95754 0.38015 0.1872 0.0
C309 C 0.9429 0.37996 0.17249 0.0
C310 C 0.97107 0.38789 0.15919 0.0
N311 N 0.95145 0.38474 0.15484 0.0
C312 C 0.99336 0.35029 0.20691 0.0
C313 C 0.03122 0.33466 0.20051 0.0
C314 C 0.01767 0.32372 0.21226 0.0
C315 C 0.99829 0.33145 0.21475 0.0
C316 C 0.02556 0.35336 0.19262 0.0
N317 N 1.00695 0.36139 0.19633 0.0
H318 H 0.97905 0.35651 0.21092 0.0
H319 H 0.03662 0.36158 0.1843 0.0
H320 H 0.95483 0.37807 0.20304 0.0
H321 H 0.98164 0.39358 0.14835 0.0
O322 O 0.987 0.39349 0.2179 0.0
O323 O 0.99212 0.41818 0.19639 0.0
O324 O 0.01566 0.39171 0.16606 0.0
C325 C 0.98483 0.41234 0.21366 0.0
H326 H 0.07433 0.40716 0.20731 0.0
H327 H 0.92712 0.37678 0.1747 0.0
H328 H 0.04634 0.32916 0.19805 0.0
H329 H 0.98741 0.32376 0.22404 0.0
Co330 Co 0.65068 1.00176 0.19603 0.0
C331 C 0.6353 0.02799 0.22958 0.0
C332 C 0.63888 0.04412 0.20194 0.0
C333 C 0.63195 0.0572 0.21612 0.0
N334 N 0.64142 0.02575 0.21027 0.0
N335 N 0.62964 0.04713 0.23343 0.0
H336 H 0.63482 0.01602 0.24054 0.0
H337 H 0.64176 0.04815 0.18654 0.0
C338 C 0.66448 0.02135 0.1578 0.0
O339 O 0.68161 0.01167 0.15972 0.0
N340 N 0.65901 0.97761 0.18105 0.0
C341 C 0.66457 0.9597 0.18888 0.0
C342 C 0.66608 0.9457 0.17376 0.0
C343 C 0.65646 0.97375 0.16111 0.0
N344 N 0.66099 0.95448 0.15623 0.0
C345 C 0.68984 0.99594 0.2134 0.0
C346 C 0.70294 0.03512 0.21045 0.0
C347 C 0.71401 0.02167 0.22242 0.0
C348 C 0.70755 1.00169 0.2232 0.0
C349 C 0.68542 0.02863 0.20054 0.0
N350 N 0.67865 0.00928 0.20243 0.0
H351 H 0.68443 0.98105 0.21618 0.0
H352 H 0.67689 0.03958 0.19217 0.0
H353 H 0.66624 0.95637 0.20467 0.0
H354 H 0.65024 0.98436 0.15048 0.0
O355 O 0.64635 0.98571 0.21959 0.0
O356 O 0.62305 0.99128 0.19646 0.0
O357 O 0.6502 0.01791 0.17013 0.0
C358 C 0.62813 0.98268 0.21341 0.0
H359 H 0.62817 0.07286 0.21373 0.0
H360 H 0.67016 0.93008 0.17568 0.0
H361 H 0.70741 0.0507 0.20927 0.0
H362 H 0.71528 0.99081 0.23257 0.0
Co363 Co 0.03208 0.64149 0.18517 0.0
C364 C 0.06116 0.64857 0.15139 0.0
C365 C 0.06796 0.62249 0.16897 0.0
C366 C 0.08023 0.62251 0.15256 0.0
N367 N 0.05625 0.63905 0.16877 0.0
N368 N 0.07584 0.63871 0.14124 0.0
H369 H 0.05299 0.66126 0.14533 0.0
H370 H 0.06661 0.61014 0.17939 0.0
C371 C 0.0627 0.62816 0.21519 0.0
O372 O 0.07385 0.64241 0.20735 0.0
N373 N 0.00777 0.64266 0.20063 0.0
C374 C 0.99497 0.65823 0.20245 0.0
C375 C 0.97858 0.65193 0.21332 0.0
C376 C 0.99899 0.62709 0.20998 0.0
N377 N 0.98113 0.63233 0.21791 0.0
C378 C 0.04457 0.68337 0.18759 0.0
C379 C 0.04232 0.68549 0.22907 0.0
C380 C 0.04583 0.70318 0.21834 0.0
C381 C 0.047 0.70202 0.19729 0.0
C382 C 0.03948 0.66746 0.21888 0.0
N383 N 0.0409 0.66631 0.19839 0.0
H384 H 0.04459 0.68287 0.1714 0.0
H385 H 0.03504 0.65454 0.22758 0.0
H386 H 0.99726 0.67298 0.19605 0.0
H387 H 1.00553 0.61222 0.21084 0.0
O388 O 0.01774 0.65322 0.16272 0.0
O389 O 0.01958 0.62059 0.16887 0.0
O390 O 0.04525 0.62467 0.20757 0.0
C391 C 0.01235 0.63512 0.1578 0.0
H392 H 0.09085 0.61081 0.14873 0.0
H393 H 0.9656 0.66095 0.21715 0.0
H394 H 0.04059 0.68574 0.24524 0.0
H395 H 0.04933 0.71543 0.18841 0.0
Co396 Co 0.39248 0.99555 0.83904 0.0
C397 C 0.39832 0.02633 0.80659 0.0
C398 C 0.4176 0.03016 0.83235 0.0
C399 C 0.4212 0.04554 0.81926 0.0
N400 N 0.40304 0.01834 0.82469 0.0
N401 N 0.4091 0.04317 0.80319 0.0
H402 H 0.38712 0.02026 0.79642 0.0
H403 H 0.42517 0.0277 0.84655 0.0
C404 C 0.38153 0.01654 0.87752 0.0
O405 O 0.36417 1.00716 0.87706 0.0
N406 N 0.38324 0.97224 0.85458 0.0
C407 C 0.37516 0.95497 0.84753 0.0
C408 C 0.37204 0.94196 0.86328 0.0
C409 C 0.38623 0.96865 0.87447 0.0
N410 N 0.379 0.95058 0.88021 0.0
C411 C 0.35181 0.99265 0.82487 0.0
C412 C 0.34231 0.03292 0.82771 0.0
C413 C 0.32882 0.01997 0.81789 0.0
C414 C 0.33361 0.99954 0.81704 0.0
C415 C 0.3603 0.02527 0.83581 0.0
N416 N 0.36504 1.00529 0.83417 0.0
H417 H 0.35579 0.97737 0.82184 0.0
H418 H 0.37099 0.03569 0.84225 0.0
H419 H 0.37255 0.95141 0.83191 0.0
H420 H 0.3938 0.97884 0.88462 0.0
O421 O 0.39448 0.97936 0.81521 0.0
O422 O 0.41927 0.98319 0.83712 0.0
O423 O 0.395 0.01233 0.86448 0.0
C424 C 0.4129 0.97545 0.82019 0.0
H425 H 0.43213 0.05743 0.82116 0.0
H426 H 0.36581 0.92698 0.86226 0.0
H427 H 0.33932 0.04889 0.82852 0.0
H428 H 0.32405 0.98907 0.80901 0.0
Co429 Co 0.02546 0.38608 0.84524 0.0
C430 C 0.05712 0.37819 0.87719 0.0
C431 C 0.06412 0.4027 0.8577 0.0
C432 C 0.07813 0.40218 0.87273 0.0
N433 N 0.05116 0.3873 0.8598 0.0
N434 N 0.07369 0.38705 0.8854 0.0
H435 H 0.04864 0.36648 0.88452 0.0
H436 H 0.06273 0.41476 0.84695 0.0
C437 C 0.05384 0.39756 0.81264 0.0
O438 O 0.0646 0.38227 0.81913 0.0
N439 N 0.99978 0.38625 0.83162 0.0
C440 C 0.98585 0.37161 0.83121 0.0
C441 C 0.96871 0.37905 0.82211 0.0
C442 C 0.99097 0.40239 0.82313 0.0
N443 N 0.97194 0.39846 0.81716 0.0
C444 C 0.03645 0.34375 0.84228 0.0
C445 C 0.03035 0.34125 0.80116 0.0
C446 C 0.03499 0.32368 0.8117 0.0
C447 C 0.03798 0.32499 0.83258 0.0
C448 C 0.0284 0.35939 0.8114 0.0
N449 N 0.03187 0.36073 0.83165 0.0
H450 H 0.03816 0.34445 0.85839 0.0
H451 H 0.02344 0.37236 0.80297 0.0
H452 H 0.98782 0.35679 0.83758 0.0
H453 H 0.99832 0.41679 0.82168 0.0
O454 O 0.01249 0.37526 0.86878 0.0
O455 O 0.0155 0.40772 0.86221 0.0
O456 O 0.03749 0.40212 0.82182 0.0
C457 C 0.00844 0.39366 0.87387 0.0
H458 H 0.09011 0.41298 0.87455 0.0
H459 H 0.95477 0.37098 0.81993 0.0
H460 H 0.02734 0.34084 0.78515 0.0
H461 H 0.04125 0.31165 0.84131 0.0
Co462 Co 0.64321 0.03877 0.84863 0.0
C463 C 0.6279 0.01185 0.81552 0.0
C464 C 0.61207 0.0098 0.84356 0.0
C465 C 0.6024 0.99796 0.8299 0.0
N466 N 0.62798 0.01854 0.8347 0.0
N467 N 0.61224 0.99926 0.81237 0.0
H468 H 0.63845 0.01653 0.80412 0.0
H469 H 0.60738 0.01249 0.85886 0.0
C470 C 0.65657 0.01594 0.88592 0.0
O471 O 0.67342 0.02617 0.88643 0.0
N472 N 0.65727 0.05923 0.86435 0.0
C473 C 0.67418 0.06971 0.86046 0.0
C474 C 0.6788 0.08153 0.87681 0.0
C475 C 0.65162 0.06539 0.8829 0.0
N476 N 0.66466 0.07876 0.89094 0.0
C477 C 0.67818 0.03897 0.82404 0.0
C478 C 0.69325 1.00149 0.83329 0.0
C479 C 0.70414 0.01392 0.82019 0.0
C480 C 0.6961 0.0327 0.81542 0.0
C481 C 0.67529 0.00861 0.84199 0.0
N482 N 0.66845 0.02764 0.83808 0.0
H483 H 0.67235 0.05332 0.81936 0.0
H484 H 0.66678 0.99858 0.8514 0.0
H485 H 0.68294 0.06916 0.84696 0.0
H486 H 0.63862 0.05956 0.89067 0.0
O487 O 0.63845 0.05762 0.8272 0.0
O488 O 0.61763 0.05335 0.85249 0.0
O489 O 0.64322 0.01984 0.87256 0.0
C490 C 0.62158 0.06224 0.83546 0.0
H491 H 0.58899 0.98916 0.8325 0.0
H492 H 0.69159 0.09147 0.87817 0.0
H493 H 0.69854 0.9865 0.83678 0.0
H494 H 0.7034 0.04244 0.80466 0.0
Co495 Co 0.99445 0.65174 0.83588 0.0
C496 C 0.03135 0.63419 0.81943 0.0
C497 C 0.02159 0.65948 0.80184 0.0
C498 C 0.03847 0.65139 0.79309 0.0
N499 N 0.01734 0.64879 0.81846 0.0
N500 N 0.04453 0.63546 0.80413 0.0
H501 H 0.03157 0.62262 0.83085 0.0
H502 H 0.01274 0.67193 0.79622 0.0
C503 C 0.01665 0.65841 0.87503 0.0
O504 O 1.00526 0.67416 0.87851 0.0
N505 N 0.97092 0.65393 0.85351 0.0
C506 C 0.95199 0.65831 0.8474 0.0
C507 C 0.939 0.65627 0.86321 0.0
C508 C 0.96882 0.64861 0.87312 0.0
N509 N 0.94954 0.65024 0.87942 0.0
C510 C 0.98374 0.6928 0.82842 0.0
C511 C 0.0219 0.70849 0.83266 0.0
C512 C 1.00698 0.72042 0.82353 0.0
C513 C 0.9875 0.71248 0.82222 0.0
C514 C 0.01754 0.68876 0.83851 0.0
N515 N 0.9987 0.68089 0.83596 0.0
H516 H 0.96914 0.68667 0.82527 0.0
H517 H 0.02983 0.67932 0.84343 0.0
H518 H 0.94751 0.66205 0.83224 0.0
H519 H 0.98078 0.64272 0.88244 0.0
O520 O 0.97716 0.65049 0.81256 0.0
O521 O 0.98721 0.62388 0.82977 0.0
O522 O 0.01336 0.64746 0.85955 0.0
C523 C 0.97726 0.6311 0.81441 0.0
H524 H 0.04518 0.65627 0.77914 0.0
H525 H 0.92295 0.65891 0.86278 0.0
H526 H 0.03716 0.71389 0.83427 0.0
H527 H 0.97547 0.72072 0.81491 0.0
Co528 Co 0.19213 0.37741 0.03563 0.0
C529 C 0.22349 0.39764 0.00972 0.0
C530 C 0.20863 0.3727 0.99565 0.0
C531 C 0.22237 0.38028 0.98244 0.0
N532 N 0.20934 0.38337 0.01287 0.0
N533 N 0.23172 0.39593 0.99123 0.0
H534 H 0.22787 0.40888 0.02057 0.0
H535 H 0.19869 0.36016 0.99286 0.0
C536 C 0.15161 0.36817 0.01405 0.0
O537 O 0.14398 0.35826 0.02923 0.0
N538 N 0.17455 0.37118 0.05808 0.0
C539 C 0.17785 0.35664 0.07179 0.0
C540 C 0.16163 0.35565 0.08445 0.0
C541 C 0.15666 0.3795 0.06321 0.0
N542 N 0.14822 0.36988 0.07901 0.0
C543 C 0.22 0.3458 0.03479 0.0
C544 C 0.19476 0.31335 0.02961 0.0
C545 C 0.21542 0.31 0.0325 0.0
C546 C 0.22802 0.32656 0.03483 0.0
C547 C 0.18718 0.33313 0.02997 0.0
N548 N 0.19982 0.34911 0.03276 0.0
H549 H 0.23026 0.35823 0.03646 0.0
H550 H 0.1713 0.33529 0.02849 0.0
H551 H 0.19097 0.34704 0.07227 0.0
H552 H 0.14944 0.39144 0.05481 0.0
O553 O 0.2129 0.38408 0.0547 0.0
O554 O 0.19121 0.40618 0.04263 0.0
O555 O 0.16925 0.37586 0.01516 0.0
C556 C 0.20661 0.40243 0.05435 0.0
H557 H 0.22497 0.37495 0.96731 0.0
H558 H 0.15964 0.34498 0.09655 0.0
H559 H 0.18457 0.30083 0.02765 0.0
H560 H 0.24411 0.32466 0.03665 0.0
Co561 Co 0.19054 0.65051 0.99357 0.0
C562 C 0.22477 0.64355 0.02281 0.0
C563 C 0.1969 0.6491 0.03771 0.0
C564 C 0.2111 0.64469 0.05195 0.0
N565 N 0.20533 0.64884 0.01923 0.0
N566 N 0.22857 0.641 0.04264 0.0
H567 H 0.23582 0.64082 0.01129 0.0
H568 H 0.18129 0.65175 0.04101 0.0
C569 C 0.15113 0.66087 0.01356 0.0
O570 O 0.15082 0.67826 1.00425 0.0
N571 N 0.17519 0.6508 0.96809 0.0
C572 C 0.18282 0.64882 0.94938 0.0
C573 C 0.1674 0.64787 0.93559 0.0
C574 C 0.15495 0.65052 0.96514 0.0
N575 N 0.14985 0.64894 0.94548 0.0
C576 C 0.19601 0.68981 0.97751 0.0
C577 C 0.19924 0.70997 0.01357 0.0
C578 C 0.20649 0.71927 0.99612 0.0
C579 C 0.20337 0.70939 0.97779 0.0
C580 C 0.19126 0.6905 0.01254 0.0
N581 N 0.19085 0.68006 0.9948 0.0
H582 H 0.19633 0.68207 0.96338 0.0
H583 H 0.18635 0.68371 0.02629 0.0
H584 H 0.19861 0.64818 0.94572 0.0
H585 H 0.14397 0.65054 0.97695 0.0
O586 O 0.21527 0.64842 0.97924 0.0
O587 O 0.19744 0.62209 0.98855 0.0
O588 O 0.16461 0.64776 0.00935 0.0
C589 C 0.2136 0.62906 0.97984 0.0
H590 H 0.20842 0.6429 0.06789 0.0
H591 H 0.16904 0.64659 0.91947 0.0
H592 H 0.2009 0.71698 0.02815 0.0
H593 H 0.20789 0.71612 0.96371 0.0
Co594 Co 0.38528 0.18949 0.9963 0.0
C595 C 0.3892 0.22422 0.02491 0.0
C596 C 0.40625 0.19812 0.03349 0.0
C597 C 0.40961 0.21279 0.04745 0.0
N598 N 0.39314 0.20499 0.0196 0.0
N599 N 0.39894 0.22911 0.04211 0.0
H600 H 0.37995 0.23445 0.01622 0.0
H601 H 0.41378 0.18376 0.03293 0.0
C602 C 0.3748 0.15097 0.01764 0.0
O603 O 0.35802 0.15018 0.00717 0.0
N604 N 0.37878 0.17312 0.97256 0.0
C605 C 0.37392 0.18 0.95403 0.0
C606 C 0.37427 0.16437 0.94053 0.0
C607 C 0.38269 0.15329 0.96967 0.0
N608 N 0.37972 0.14757 0.95037 0.0
C609 C 0.34417 0.20032 0.98918 0.0
C610 C 0.33141 0.19782 0.0285 0.0
C611 C 0.31831 0.20605 0.01404 0.0
C612 C 0.32487 0.20678 0.99408 0.0
C613 C 0.35071 0.19145 0.02292 0.0
N614 N 0.35696 0.1928 1.00341 0.0
H615 H 0.34919 0.2028 0.9741 0.0
H616 H 0.36093 0.18631 0.0345 0.0
H617 H 0.37138 0.19553 0.95009 0.0
H618 H 0.38892 0.14342 0.98098 0.0
O619 O 0.38729 0.21309 0.97982 0.0
O620 O 0.41279 0.19264 0.98626 0.0
O621 O 0.38787 0.16453 0.01377 0.0
C622 C 0.40615 0.20896 0.9775 0.0
H623 H 0.42001 0.21201 0.06 0.0
H624 H 0.37124 0.16539 0.92457 0.0
H625 H 0.3271 0.19693 0.04414 0.0
H626 H 0.31572 0.2136 0.98243 0.0
Co627 Co 0.8408 0.38544 0.99873 0.0
C628 C 0.81907 0.39987 0.03461 0.0
C629 C 0.80574 0.37316 0.02233 0.0
C630 C 0.79426 0.37952 0.03821 0.0
N631 N 0.82143 0.38575 0.02027 0.0
N632 N 0.80257 0.39635 0.04585 0.0
H633 H 0.82887 0.41272 0.03637 0.0
H634 H 0.80245 0.36064 0.01251 0.0
C635 C 0.87924 0.38019 0.02235 0.0
O636 O 0.88434 0.36575 0.0099 0.0
N637 N 0.86001 0.38566 0.97632 0.0
C638 C 0.85521 0.38158 0.95696 0.0
C639 C 0.87135 0.38547 0.94486 0.0
C640 C 0.87921 0.39263 0.9754 0.0
N641 N 0.88646 0.39231 0.95641 0.0
C642 C 0.83564 0.34477 0.98585 0.0
C643 C 0.83945 0.32752 0.02337 0.0
C644 C 0.8304 0.31624 0.00792 0.0
C645 C 0.82946 0.32494 0.98872 0.0
C646 C 0.84498 0.3475 0.01997 0.0
N647 N 0.84251 0.35618 1.00147 0.0
H648 H 0.8327 0.35144 0.97144 0.0
H649 H 0.84928 0.35646 0.0328 0.0
H650 H 0.84066 0.37685 0.95153 0.0
H651 H 0.8875 0.39869 0.988 0.0
O652 O 0.81876 0.3863 0.97996 0.0
O653 O 0.83352 0.41329 0.99252 0.0
O654 O 0.86291 0.39001 0.01943 0.0
C655 C 0.81949 0.40573 0.98102 0.0
H656 H 0.78026 0.37287 0.04307 0.0
H657 H 0.87194 0.38353 0.92872 0.0
H658 H 0.84102 0.32152 0.0384 0.0
H659 H 0.82236 0.31728 0.97624 0.0
Co660 Co 0.65417 0.84072 1.00171 0.0
C661 C 0.63037 0.81463 0.02981 0.0
C662 C 0.65979 0.82203 0.04073 0.0
C663 C 0.64977 0.81215 0.05559 0.0
N664 N 0.64786 0.82346 0.02437 0.0
N665 N 0.63121 0.80743 0.04886 0.0
H666 H 0.6171 0.81421 0.02044 0.0
H667 H 0.67441 0.82893 0.04232 0.0
C668 C 0.66349 0.8808 0.02401 0.0
O669 O 0.67285 0.88899 0.00877 0.0
N670 N 0.66047 0.85847 0.97941 0.0
C671 C 0.67301 0.85413 0.96417 0.0
C672 C 0.67257 0.8697 0.95052 0.0
C673 C 0.65221 0.87647 0.97458 0.0
N674 N 0.65967 0.88379 0.95718 0.0
C675 C 0.68552 0.81245 1.00223 0.0
C676 C 0.71833 0.83721 0.00756 0.0
C677 C 0.72143 0.81648 1.00487 0.0
C678 C 0.70467 0.80417 1.00237 0.0
C679 C 0.69859 0.84509 0.00701 0.0
N680 N 0.68244 0.83264 1.00433 0.0
H681 H 0.67295 0.80235 1.00055 0.0
H682 H 0.69652 0.86102 0.00839 0.0
H683 H 0.68175 0.84049 0.96296 0.0
H684 H 0.64102 0.88405 0.9836 0.0
O685 O 0.64724 0.82023 0.98251 0.0
O686 O 0.62532 0.84203 0.99437 0.0
O687 O 0.65615 0.86306 0.02265 0.0
C688 C 0.62896 0.82668 0.98265 0.0
H689 H 0.65546 0.80984 0.07066 0.0
H690 H 0.68133 0.87075 0.9369 0.0
H691 H 0.73099 0.84723 0.00955 0.0
H692 H 0.70634 0.78807 1.0006 0.0
Co693 Co 0.84137 0.64501 0.03492 0.0
C694 C 0.82207 0.62627 0.99964 0.0
C695 C 0.80567 0.65229 0.00946 0.0
C696 C 0.7957 0.64395 0.99332 0.0
N697 N 0.82236 0.64138 0.01317 0.0
N698 N 0.80598 0.62757 0.98725 0.0
H699 H 0.83328 0.61448 0.99903 0.0
H700 H 0.80091 0.66519 0.0181 0.0
C701 C 0.87935 0.65146 0.01158 0.0
O702 O 0.88305 0.66702 0.02317 0.0
N703 N 0.86053 0.64767 0.05741 0.0
C704 C 0.85566 0.65268 0.07649 0.0
C705 C 0.8719 0.64964 0.08892 0.0
C706 C 0.87983 0.64098 0.05889 0.0
N707 N 0.88711 0.64237 0.07788 0.0
C708 C 0.83446 0.68634 0.04497 0.0
C709 C 0.83566 0.70112 1.00626 0.0
C710 C 0.82757 0.71336 0.02144 0.0
C711 C 0.82783 0.7059 0.04113 0.0
C712 C 0.84218 0.68155 0.01076 0.0
N713 N 0.84102 0.67409 0.02989 0.0
H714 H 0.83239 0.6806 0.05987 0.0
H715 H 0.84643 0.67186 0.99847 0.0
H716 H 0.84094 0.65712 0.08158 0.0
H717 H 0.88807 0.6341 0.04674 0.0
O718 O 0.81939 0.64443 0.05348 0.0
O719 O 0.8358 0.61734 0.04348 0.0
O720 O 0.86392 0.64048 0.0149 0.0
C721 C 0.82131 0.62507 0.0542 0.0
H722 H 0.78161 0.64912 0.98696 0.0
H723 H 0.87238 0.65216 0.10499 0.0
H724 H 0.83599 0.70617 0.9908 0.0
H725 H 0.82139 0.7144 0.05338 0.0
Co726 Co 0.3805 0.8392 0.03193 0.0
C727 C 0.39141 0.8041 1.00577 0.0
C728 C 0.38673 0.83102 0.98872 0.0
C729 C 0.39193 0.816 0.97573 0.0
N730 N 0.38601 0.82366 0.00765 0.0
N731 N 0.39496 0.79916 0.98642 0.0
H732 H 0.39322 0.79376 0.01817 0.0
H733 H 0.38416 0.8464 0.98432 0.0
C734 C 0.37021 0.87861 0.01191 0.0
O735 O 0.35358 0.87918 0.02247 0.0
N736 N 0.37571 0.85522 0.05628 0.0
C737 C 0.3697 0.84836 0.07441 0.0
C738 C 0.36769 0.86422 0.08746 0.0
C739 C 0.37861 0.8752 0.05923 0.0
N740 N 0.37324 0.88108 0.07789 0.0
C741 C 0.34027 0.82703 0.04074 0.0
C742 C 0.32371 0.83328 1.00321 0.0
C743 C 0.31246 0.82285 0.01759 0.0
C744 C 0.32082 0.82035 0.03674 0.0
C745 C 0.34315 0.83994 0.00792 0.0
N746 N 0.35149 0.83658 0.0265 0.0
H747 H 0.34673 0.82286 0.05491 0.0
H748 H 0.35158 0.84708 0.99619 0.0
H749 H 0.36727 0.83282 0.07832 0.0
H750 H 0.38446 0.88541 0.04811 0.0
O751 O 0.38298 0.81537 0.04812 0.0
O752 O 0.40855 0.83505 0.04064 0.0
O753 O 0.38315 0.86469 0.01514 0.0
C754 C 0.40201 0.81901 0.04986 0.0
H755 H 0.39447 0.81761 0.95975 0.0
H756 H 0.36276 0.86342 0.10292 0.0
H757 H 0.31785 0.83563 0.98818 0.0
H758 H 0.31304 0.81186 0.04819 0.0
Co759 Co 0.65566 0.19494 0.03936 0.0
C760 C 0.64101 0.22893 0.01321 0.0
C761 C 0.65546 0.20552 0.99651 0.0
C762 C 0.64918 0.21997 0.9833 0.0
N763 N 0.65061 0.21107 0.01539 0.0
N764 N 0.64005 0.23466 0.99372 0.0
H765 H 0.63457 0.2375 0.02538 0.0
H766 H 0.66241 0.19155 0.99221 0.0
C767 C 0.66685 0.15479 0.02055 0.0
O768 O 0.68197 0.15281 0.03319 0.0
N769 N 0.66055 0.17835 0.0632 0.0
C770 C 0.67114 0.18359 0.07973 0.0
C771 C 0.67257 0.16737 0.0924 0.0
C772 C 0.6548 0.15909 0.06667 0.0
N773 N 0.66243 0.15193 0.08416 0.0
C774 C 0.69293 0.21422 0.04859 0.0
C775 C 0.71572 0.20015 0.01712 0.0
C776 C 0.72412 0.21456 0.03005 0.0
C777 C 0.71239 0.22137 0.04604 0.0
C778 C 0.69602 0.19324 0.02029 0.0
N779 N 0.68472 0.20011 0.03606 0.0
H780 H 0.6843 0.22109 0.06032 0.0
H781 H 0.68994 0.18307 0.00935 0.0
H782 H 0.67755 0.19813 0.08268 0.0
H783 H 0.64598 0.1502 0.05627 0.0
O784 O 0.64986 0.21755 0.05646 0.0
O785 O 0.62687 0.19609 0.04596 0.0
O786 O 0.65538 0.17019 0.02153 0.0
C787 C 0.63123 0.21208 0.05645 0.0
H788 H 0.65024 0.21918 0.96709 0.0
H789 H 0.68067 0.16685 0.10654 0.0
H790 H 0.72409 0.19457 1.00437 0.0
H791 H 0.71772 0.23306 0.05603 0.0
Co792 Co 0.53362 0.68531 0.89137 0.0
C793 C 0.56348 0.65253 0.88236 0.0
C794 C 0.57104 0.66986 0.90841 0.0
C795 C 0.58378 0.65375 0.90753 0.0
N796 N 0.55849 0.66962 0.89241 0.0
N797 N 0.57893 0.6426 0.89135 0.0
H798 H 0.55485 0.64644 0.86997 0.0
H799 H 0.56996 0.67997 0.92104 0.0
C800 C 0.56325 0.71615 0.90517 0.0
O801 O 0.57425 0.70965 0.89015 0.0
N802 N 0.50868 0.70001 0.8915 0.0
C803 C 0.49531 0.70207 0.87639 0.0
C804 C 0.4783 0.71116 0.88386 0.0
C805 C 0.49966 0.70753 0.90791 0.0
N806 N 0.48102 0.71447 0.90373 0.0
C807 C 0.54421 0.68939 0.84921 0.0
C808 C 0.53825 0.7305 0.84821 0.0
C809 C 0.54014 0.72023 0.82998 0.0
C810 C 0.54393 0.69947 0.83059 0.0
C811 C 0.53842 0.71997 0.86625 0.0
N812 N 0.54106 0.69958 0.86675 0.0
H813 H 0.54545 0.67324 0.84932 0.0
H814 H 0.5347 0.72817 0.87972 0.0
H815 H 0.49757 0.69684 0.86118 0.0
H816 H 0.50633 0.70697 0.92275 0.0
O817 O 0.51972 0.66289 0.87919 0.0
O818 O 0.52236 0.66787 0.91199 0.0
O819 O 0.54638 0.7075 0.90878 0.0
C820 C 0.515 0.6572 0.89722 0.0
H821 H 0.59499 0.64988 0.91873 0.0
H822 H 0.46493 0.71481 0.8753 0.0
H823 H 0.53539 0.74652 0.84851 0.0
H824 H 0.54527 0.69092 0.81682 0.0
Co825 Co 0.34888 0.52941 0.88447 0.0
C826 C 0.3841 0.5567 0.8911 0.0
C827 C 0.36465 0.56854 0.86826 0.0
C828 C 0.38046 0.58158 0.87085 0.0
N829 N 0.3666 0.5529 0.88115 0.0
N830 N 0.39269 0.57408 0.88511 0.0
H831 H 0.39049 0.54709 0.90258 0.0
H832 H 0.35233 0.57097 0.85795 0.0
C833 C 0.32531 0.56202 0.90495 0.0
O834 O 0.32999 0.57383 0.88997 0.0
N835 N 0.33203 0.50616 0.88806 0.0
C836 C 0.32691 0.49257 0.87397 0.0
C837 C 0.31584 0.47764 0.88294 0.0
C838 C 0.32408 0.49939 0.90539 0.0
N839 N 0.31409 0.48195 0.90269 0.0
C840 C 0.33861 0.53759 0.84336 0.0
C841 C 0.2976 0.54104 0.8488 0.0
C842 C 0.30508 0.54078 0.82911 0.0
C843 C 0.32597 0.53937 0.8266 0.0
C844 C 0.31078 0.53924 0.86519 0.0
N845 N 0.3311 0.53774 0.86243 0.0
H846 H 0.35456 0.53567 0.841 0.0
H847 H 0.30443 0.53771 0.88 0.0
H848 H 0.33115 0.49336 0.85832 0.0
H849 H 0.32611 0.50675 0.91976 0.0
O850 O 0.36724 0.51344 0.86884 0.0
O851 O 0.36893 0.51647 0.90185 0.0
O852 O 0.33196 0.54397 0.90543 0.0
C853 C 0.376 0.50829 0.88551 0.0
H854 H 0.38295 0.59543 0.86273 0.0
H855 H 0.30954 0.46463 0.87549 0.0
H856 H 0.28158 0.54147 0.85155 0.0
H857 H 0.33253 0.53919 0.81174 0.0
Co858 Co 0.49936 0.33694 0.883 0.0
C859 C 0.53391 0.31944 0.90467 0.0
C860 C 0.52537 0.30138 0.87924 0.0
C861 C 0.54146 0.29236 0.88867 0.0
N862 N 0.52093 0.3185 0.88908 0.0
N863 N 0.54669 0.30369 0.90464 0.0
H864 H 0.53397 0.33131 0.91578 0.0
H865 H 0.51738 0.29578 0.8662 0.0
C866 C 0.5222 0.3752 0.87621 0.0
O867 O 0.51128 0.37786 0.85991 0.0
N868 N 0.47703 0.35554 0.87763 0.0
C869 C 0.45925 0.35074 0.86898 0.0
C870 C 0.44699 0.36732 0.86864 0.0
C871 C 0.47459 0.37492 0.88367 0.0
N872 N 0.4566 0.38254 0.87781 0.0
C873 C 0.49322 0.32665 0.84139 0.0
C874 C 0.53307 0.32925 0.83036 0.0
C875 C 0.51955 0.31955 0.81737 0.0
C876 C 0.49924 0.31909 0.82278 0.0
C877 C 0.52637 0.33687 0.84879 0.0
N878 N 0.50666 0.3351 0.85446 0.0
H879 H 0.47811 0.32361 0.84592 0.0
H880 H 0.53753 0.34227 0.8593 0.0
H881 H 0.45477 0.33597 0.86409 0.0
H882 H 0.48561 0.38332 0.89218 0.0
O883 O 0.48087 0.3147 0.88363 0.0
O884 O 0.48928 0.33278 0.91026 0.0
O885 O 0.51877 0.3601 0.88765 0.0
C886 C 0.47934 0.31756 0.90283 0.0
H887 H 0.54845 0.27829 0.88447 0.0
H888 H 0.43186 0.36801 0.8626 0.0
H889 H 0.54894 0.32988 0.82689 0.0
H890 H 0.4883 0.31129 0.81356 0.0
Co891 Co 0.69504 0.49572 0.87774 0.0
C892 C 0.72938 0.52349 0.88832 0.0
C893 C 0.70334 0.53942 0.87804 0.0
C894 C 0.71743 0.55316 0.8839 0.0
N895 N 0.71074 0.52061 0.88033 0.0
N896 N 0.73375 0.54323 0.89054 0.0
H897 H 0.7393 0.51157 0.8932 0.0
H898 H 0.68832 0.54331 0.87327 0.0
C899 C 0.65649 0.51666 0.86482 0.0
O900 O 0.65644 0.50687 0.84769 0.0
N901 N 0.67871 0.47097 0.87642 0.0
C902 C 0.68579 0.45192 0.87739 0.0
C903 C 0.67008 0.43871 0.87893 0.0
C904 C 0.65843 0.46878 0.87796 0.0
N905 N 0.65283 0.44926 0.87934 0.0
C906 C 0.70488 0.47929 0.83955 0.0
C907 C 0.70722 0.51475 0.81834 0.0
C908 C 0.71614 0.49744 0.81019 0.0
C909 C 0.71365 0.47936 0.82059 0.0
C910 C 0.69802 0.51391 0.8373 0.0
N911 N 0.69786 0.49649 0.84827 0.0
H912 H 0.70555 0.46549 0.84779 0.0
H913 H 0.6919 0.52758 0.84327 0.0
H914 H 0.70144 0.44761 0.87738 0.0
H915 H 0.64792 0.48105 0.87919 0.0
O916 O 0.7188 0.48005 0.88236 0.0
O917 O 0.699 0.49097 0.90666 0.0
O918 O 0.66973 0.51273 0.8783 0.0
C919 C 0.71495 0.48078 0.9014 0.0
H920 H 0.71525 0.56927 0.88463 0.0
H921 H 0.67129 0.42252 0.87983 0.0
H922 H 0.7084 0.5291 0.81081 0.0
H923 H 0.71958 0.46539 0.81474 0.0
Co924 Co 0.52941 0.33691 0.1475 0.0
C925 C 0.49229 0.32063 0.12997 0.0
C926 C 0.50236 0.30263 0.15486 0.0
C927 C 0.48519 0.29414 0.14696 0.0
N928 N 0.5066 0.31934 0.14432 0.0
N929 N 0.47893 0.30545 0.13128 0.0
H930 H 0.49188 0.33227 0.11863 0.0
H931 H 0.51132 0.29685 0.16718 0.0
C932 C 0.50716 0.37602 0.15349 0.0
O933 O 0.51823 0.37941 0.16954 0.0
N934 N 0.55288 0.35474 0.14978 0.0
C935 C 0.57193 0.34876 0.15388 0.0
C936 C 0.5849 0.3645 0.15112 0.0
C937 C 0.55489 0.37422 0.14397 0.0
N938 N 0.57421 0.38051 0.14499 0.0
C939 C 0.54006 0.32995 0.18844 0.0
C940 C 0.50176 0.33224 0.20397 0.0
C941 C 0.51692 0.32308 0.21567 0.0
C942 C 0.53644 0.32283 0.20779 0.0
C943 C 0.50601 0.339 0.18444 0.0
N944 N 0.52491 0.33719 0.17659 0.0
H945 H 0.55478 0.32754 0.1824 0.0
H946 H 0.49365 0.34395 0.17506 0.0
H947 H 0.57653 0.33367 0.15771 0.0
H948 H 0.54287 0.38337 0.13798 0.0
O949 O 0.54676 0.31382 0.14711 0.0
O950 O 0.53739 0.33035 0.11984 0.0
O951 O 0.51052 0.36049 0.14264 0.0
C952 C 0.54747 0.31541 0.12774 0.0
H953 H 0.47834 0.28025 0.15185 0.0
H954 H 0.60105 0.36415 0.15317 0.0
H955 H 0.48647 0.33324 0.20932 0.0
H956 H 0.54875 0.31564 0.21568 0.0
Co957 Co 0.68135 0.52658 0.14429 0.0
C958 C 0.64872 0.55778 0.15249 0.0
C959 C 0.66035 0.55766 0.1225 0.0
C960 C 0.6452 0.57149 0.1234 0.0
N961 N 0.66313 0.54933 0.14076 0.0
N962 N 0.63779 0.57171 0.14219 0.0
H963 H 0.64583 0.55356 0.16787 0.0
H964 H 0.66839 0.55337 0.10909 0.0
C965 C 0.70717 0.55886 0.12734 0.0
O966 O 0.69865 0.57049 0.14081 0.0
N967 N 0.69901 0.50369 0.14653 0.0
C968 C 0.70146 0.49136 0.1624 0.0
C969 C 0.71527 0.47677 0.15737 0.0
C970 C 0.71119 0.4965 0.13211 0.0
N971 N 0.72138 0.48007 0.13834 0.0
C972 C 0.68419 0.53734 0.18636 0.0
C973 C 0.7257 0.53878 0.18662 0.0
C974 C 0.71574 0.53683 0.20494 0.0
C975 C 0.69465 0.5371 0.20482 0.0
C976 C 0.71486 0.53862 0.16872 0.0
N977 N 0.69431 0.5374 0.1685 0.0
H978 H 0.66812 0.53525 0.18651 0.0
H979 H 0.72344 0.53688 0.15515 0.0
H980 H 0.69374 0.49289 0.17658 0.0
H981 H 0.71218 0.50291 0.11721 0.0
O982 O 0.66015 0.51137 0.15694 0.0
O983 O 0.66582 0.51198 0.12421 0.0
O984 O 0.70189 0.54037 0.12616 0.0
C985 C 0.65534 0.50494 0.13913 0.0
H986 H 0.6394 0.58009 0.11082 0.0
H987 H 0.72047 0.46474 0.16703 0.0
H988 H 0.74198 0.5385 0.18601 0.0
H989 H 0.68638 0.53532 0.21868 0.0
Co990 Co 0.49346 0.69435 0.15252 0.0
C991 C 0.51928 0.72867 0.13836 0.0
C992 C 0.53665 0.70349 0.14852 0.0
C993 C 0.54959 0.71789 0.14186 0.0
N994 N 0.51751 0.71018 0.14679 0.0
N995 N 0.53872 0.73363 0.13539 0.0
H996 H 0.50681 0.73819 0.13405 0.0
H997 H 0.54128 0.68877 0.15343 0.0
C998 C 0.5134 0.6544 0.16269 0.0
O999 O 0.50231 0.65276 0.17889 0.0
N1000 N 0.46947 0.67793 0.15741 0.0
C1001 C 0.45125 0.68442 0.16354 0.0
C1002 C 0.43769 0.66887 0.16247 0.0
C1003 C 0.46634 0.65847 0.15205 0.0
N1004 N 0.44718 0.65251 0.15532 0.0
C1005 C 0.48511 0.7098 0.19177 0.0
C1006 C 0.52217 0.70231 0.20893 0.0
C1007 C 0.50902 0.71547 0.21876 0.0
C1008 C 0.48994 0.71843 0.21032 0.0
C1009 C 0.51663 0.69372 0.19047 0.0
N1010 N 0.49852 0.69807 0.18154 0.0
H1011 H 0.47111 0.71417 0.18499 0.0
H1012 H 0.52762 0.68456 0.18309 0.0
H1013 H 0.44748 0.69967 0.16748 0.0
H1014 H 0.47747 0.64908 0.14492 0.0
O1015 O 0.4767 0.71773 0.14885 0.0
O1016 O 0.48517 0.69721 0.12422 0.0
O1017 O 0.51077 0.66922 0.15068 0.0
C1018 C 0.47544 0.71328 0.12995 0.0
H1019 H 0.56576 0.71646 0.14072 0.0
H1020 H 0.42194 0.66964 0.16638 0.0
H1021 H 0.53701 0.69933 0.21501 0.0
H1022 H 0.47931 0.72867 0.21715 0.0
Co1023 Co 0.33554 0.49911 0.14569 0.0
C1024 C 0.31815 0.53547 0.12727 0.0
C1025 C 0.30203 0.52692 0.15382 0.0
C1026 C 0.29288 0.54358 0.14562 0.0
N1027 N 0.31803 0.52207 0.14247 0.0
N1028 N 0.30298 0.54887 0.1289 0.0
H1029 H 0.32892 0.53522 0.11514 0.0
H1030 H 0.29713 0.51867 0.16691 0.0
C1031 C 0.37495 0.52092 0.15116 0.0
O1032 O 0.37872 0.5095 0.16684 0.0
N1033 N 0.35311 0.47536 0.14818 0.0
C1034 C 0.3468 0.45667 0.15302 0.0
C1035 C 0.36249 0.44338 0.15157 0.0
C1036 C 0.37275 0.47276 0.14316 0.0
N1037 N 0.37886 0.45344 0.14547 0.0
C1038 C 0.3298 0.48961 0.18727 0.0
C1039 C 0.33499 0.52803 0.20198 0.0
C1040 C 0.32678 0.51338 0.21473 0.0
C1041 C 0.3249 0.49379 0.20722 0.0
C1042 C 0.33952 0.52325 0.182 0.0
N1043 N 0.33662 0.50425 0.17468 0.0
H1044 H 0.32633 0.4749 0.18162 0.0
H1045 H 0.34385 0.5353 0.17206 0.0
H1046 H 0.33161 0.45256 0.15688 0.0
H1047 H 0.38228 0.48437 0.13711 0.0
O1048 O 0.31211 0.48213 0.1457 0.0
O1049 O 0.32836 0.49086 0.11822 0.0
O1050 O 0.35922 0.51772 0.14041 0.0
C1051 C 0.31324 0.48135 0.12628 0.0
H1052 H 0.27936 0.55077 0.15107 0.0
H1053 H 0.36191 0.42745 0.15479 0.0
H1054 H 0.33694 0.54337 0.207 0.0
H1055 H 0.31819 0.48198 0.21611 0.0
Co1056 Co 0.88787 0.53306 0.68569 0.0
C1057 C 0.89284 0.504 0.71997 0.0
C1058 C 0.9107 0.49696 0.69407 0.0
C1059 C 0.91437 0.48271 0.70843 0.0
N1060 N 0.89692 0.51005 0.70101 0.0
N1061 N 0.90318 0.4871 0.72461 0.0
H1062 H 0.88282 0.51179 0.7301 0.0
H1063 H 0.91822 0.49813 0.67979 0.0
C1064 C 0.87739 0.51069 0.64744 0.0
O1065 O 0.85984 0.51977 0.64709 0.0
N1066 N 0.88015 0.5566 0.66948 0.0
C1067 C 0.87521 0.57497 0.67661 0.0
C1068 C 0.87404 0.58841 0.66102 0.0
C1069 C 0.88268 0.5596 0.64944 0.0
N1070 N 0.87877 0.57881 0.64388 0.0
C1071 C 0.84691 0.53913 0.69706 0.0
C1072 C 0.83552 0.4993 0.69716 0.0
C1073 C 0.82246 0.51367 0.70547 0.0
C1074 C 0.82821 0.53385 0.70472 0.0
C1075 C 0.85413 0.50531 0.68928 0.0
N1076 N 0.85983 0.52505 0.68962 0.0
H1077 H 0.85146 0.55445 0.69876 0.0
H1078 H 0.86443 0.4939 0.68403 0.0
H1079 H 0.8734 0.57885 0.69225 0.0
H1080 H 0.88848 0.54842 0.63923 0.0
O1081 O 0.88993 0.54956 0.70931 0.0
O1082 O 0.9151 0.54413 0.68837 0.0
O1083 O 0.89056 0.51565 0.66065 0.0
C1084 C 0.90858 0.55263 0.70483 0.0
H1085 H 0.9251 0.4705 0.70746 0.0
H1086 H 0.87036 0.60419 0.66231 0.0
H1087 H 0.83176 0.48349 0.69743 0.0
H1088 H 0.81904 0.54546 0.71146 0.0
Co1089 Co 0.50211 0.8784 0.69049 0.0
C1090 C 0.53019 0.89311 0.72287 0.0
C1091 C 0.54591 0.87976 0.69841 0.0
C1092 C 0.55972 0.88846 0.71088 0.0
N1093 N 0.52716 0.88229 0.70583 0.0
N1094 N 0.54987 0.8972 0.7261 0.0
H1095 H 0.51832 0.89913 0.7321 0.0
H1096 H 0.54968 0.87387 0.68387 0.0
C1097 C 0.52237 0.86795 0.65124 0.0
O1098 O 0.51193 0.85124 0.65009 0.0
N1099 N 0.47727 0.87576 0.67431 0.0
C1100 C 0.4583 0.8743 0.68143 0.0
C1101 C 0.44478 0.87579 0.66583 0.0
C1102 C 0.47466 0.8788 0.65424 0.0
N1103 N 0.45504 0.87859 0.64871 0.0
C1104 C 0.48917 0.83923 0.70143 0.0
C1105 C 0.52637 0.82099 0.70221 0.0
C1106 C 0.51076 0.81245 0.71345 0.0
C1107 C 0.4916 0.82098 0.71139 0.0
C1108 C 0.52305 0.83901 0.69166 0.0
N1109 N 0.50502 0.84894 0.69283 0.0
H1110 H 0.47479 0.84639 0.70264 0.0
H1111 H 0.53545 0.84521 0.68357 0.0
H1112 H 0.45423 0.87296 0.69706 0.0
H1113 H 0.48656 0.88237 0.64392 0.0
O1114 O 0.48641 0.8815 0.7145 0.0
O1115 O 0.49529 0.90687 0.69514 0.0
O1116 O 0.51886 0.8806 0.66526 0.0
C1117 C 0.48568 0.90061 0.71105 0.0
H1118 H 0.57557 0.89018 0.70771 0.0
H1119 H 0.42858 0.87516 0.66705 0.0
H1120 H 0.54138 0.8147 0.70263 0.0
H1121 H 0.4787 0.81449 0.71882 0.0
Co1122 Co 0.14255 0.49848 0.68919 0.0
C1123 C 0.13241 0.52641 0.72299 0.0
C1124 C 0.1189 0.53473 0.69474 0.0
C1125 C 0.11349 0.54868 0.70882 0.0
N1126 N 0.131 0.52096 0.70346 0.0
N1127 N 0.12197 0.54348 0.72644 0.0
H1128 H 0.14089 0.51826 0.73427 0.0
H1129 H 0.11408 0.53456 0.67921 0.0
C1130 C 0.15796 0.52095 0.65344 0.0
O1131 O 0.17531 0.51188 0.65621 0.0
N1132 N 0.15286 0.47553 0.67373 0.0
C1133 C 0.15802 0.45728 0.68107 0.0
C1134 C 0.15998 0.44388 0.6655 0.0
C1135 C 0.15106 0.47249 0.65359 0.0
N1136 N 0.15555 0.45338 0.64818 0.0
C1137 C 0.18194 0.49368 0.70641 0.0
C1138 C 0.19144 0.53397 0.70876 0.0
C1139 C 0.20395 0.52 0.71852 0.0
C1140 C 0.19924 0.49961 0.71671 0.0
C1141 C 0.17438 0.52732 0.69814 0.0
N1142 N 0.16955 0.50733 0.69733 0.0
H1143 H 0.1779 0.47815 0.70719 0.0
H1144 H 0.16446 0.5384 0.69154 0.0
H1145 H 0.15888 0.45329 0.69677 0.0
H1146 H 0.14506 0.48348 0.64322 0.0
O1147 O 0.1379 0.48146 0.71197 0.0
O1148 O 0.11555 0.48665 0.68775 0.0
O1149 O 0.14286 0.51607 0.66421 0.0
C1150 C 0.12013 0.47797 0.70481 0.0
H1151 H 0.10373 0.56151 0.70646 0.0
H1152 H 0.1636 0.42809 0.66694 0.0
H1153 H 0.19447 0.54991 0.70979 0.0
H1154 H 0.20811 0.48829 0.72441 0.0
Co1155 Co 0.52812 0.14684 0.68865 0.0
C1156 C 0.55757 0.15271 0.65483 0.0
C1157 C 0.5639 0.12697 0.67305 0.0
C1158 C 0.57622 0.12641 0.65667 0.0
N1159 N 0.55244 0.14371 0.67245 0.0
N1160 N 0.57213 0.14238 0.64494 0.0
H1161 H 0.54961 0.16537 0.64842 0.0
H1162 H 0.5623 0.11486 0.68371 0.0
C1163 C 0.55802 0.13307 0.71922 0.0
O1164 O 0.56956 0.14694 0.71125 0.0
N1165 N 0.50359 0.14865 0.7038 0.0
C1166 C 0.49102 0.16445 0.70538 0.0
C1167 C 0.47354 0.15802 0.71439 0.0
C1168 C 0.49364 0.1329 0.71151 0.0
N1169 N 0.47518 0.13813 0.71802 0.0
C1170 C 0.54202 0.18817 0.69083 0.0
C1171 C 0.53909 0.19103 0.73221 0.0
C1172 C 0.5435 0.20837 0.72126 0.0
C1173 C 0.545 0.20685 0.70027 0.0
C1174 C 0.5357 0.17296 0.72224 0.0
N1175 N 0.53747 0.17146 0.70181 0.0
H1176 H 0.54238 0.1874 0.67465 0.0
H1177 H 0.53067 0.16031 0.73103 0.0
H1178 H 0.49401 0.17933 0.69962 0.0
H1179 H 0.49963 0.11778 0.71172 0.0
O1180 O 0.51449 0.15904 0.66618 0.0
O1181 O 0.5151 0.12633 0.672 0.0
O1182 O 0.5406 0.1298 0.71138 0.0
C1183 C 0.50853 0.14122 0.66098 0.0
H1184 H 0.58661 0.11441 0.65313 0.0
H1185 H 0.46034 0.16709 0.71721 0.0
H1186 H 0.53713 0.19164 0.74835 0.0
H1187 H 0.54805 0.22001 0.69124 0.0
Co1188 Co 0.88058 0.49764 0.33927 0.0
C1189 C 0.89357 0.52947 0.30943 0.0
C1190 C 0.87987 0.54182 0.33563 0.0
C1191 C 0.88653 0.55728 0.32413 0.0
N1192 N 0.88376 0.5241 0.32649 0.0
N1193 N 0.89567 0.54969 0.30784 0.0
H1194 H 0.90016 0.51897 0.29902 0.0
H1195 H 0.87372 0.5439 0.35039 0.0
C1196 C 0.86744 0.51453 0.37932 0.0
O1197 O 0.85099 0.50365 0.3786 0.0
N1198 N 0.87845 0.47151 0.35312 0.0
C1199 C 0.87825 0.45301 0.3447 0.0
C1200 C 0.87869 0.43861 0.3596 0.0
C1201 C 0.87977 0.46777 0.37318 0.0
N1202 N 0.87954 0.44792 0.37755 0.0
C1203 C 0.84255 0.48393 0.32528 0.0
C1204 C 0.82165 0.51957 0.32848 0.0
C1205 C 0.81394 0.50453 0.31584 0.0
C1206 C 0.82404 0.48604 0.31557 0.0
C1207 C 0.84008 0.51661 0.33846 0.0
N1208 N 0.85111 0.4994 0.33573 0.0
H1209 H 0.85075 0.47029 0.32266 0.0
H1210 H 0.84553 0.52867 0.34759 0.0
H1211 H 0.87825 0.44996 0.32876 0.0
H1212 H 0.882 0.4791 0.38452 0.0
O1213 O 0.88549 0.48453 0.31394 0.0
O1214 O 0.90948 0.49247 0.33554 0.0
O1215 O 0.88106 0.51219 0.36603 0.0
C1216 C 0.90448 0.48459 0.31822 0.0
H1217 H 0.88545 0.57298 0.32817 0.0
H1218 H 0.87846 0.42252 0.35735 0.0
H1219 H 0.81429 0.53402 0.32968 0.0
H1220 H 0.81839 0.47355 0.30679 0.0
Co1221 Co 0.52309 0.88912 0.34643 0.0
C1222 C 0.55277 0.88234 0.38036 0.0
C1223 C 0.55781 0.90929 0.36358 0.0
C1224 C 0.57054 0.90927 0.37976 0.0
N1225 N 0.54693 0.8922 0.3634 0.0
N1226 N 0.56729 0.8925 0.39056 0.0
H1227 H 0.5455 0.86902 0.38604 0.0
H1228 H 0.55571 0.92178 0.35342 0.0
C1229 C 0.5545 0.90233 0.31768 0.0
O1230 O 0.56528 0.88794 0.32597 0.0
N1231 N 0.49905 0.88731 0.33032 0.0
C1232 C 0.48618 0.87178 0.32929 0.0
C1233 C 0.46912 0.87802 0.3193 0.0
C1234 C 0.48972 0.90277 0.32117 0.0
N1235 N 0.4713 0.89758 0.3143 0.0
C1236 C 0.53457 0.84701 0.34557 0.0
C1237 C 0.534 0.84386 0.3041 0.0
C1238 C 0.53592 0.8263 0.31547 0.0
C1239 C 0.53634 0.82799 0.3365 0.0
C1240 C 0.5317 0.86232 0.31367 0.0
N1241 N 0.53225 0.86395 0.33419 0.0
H1242 H 0.53375 0.84788 0.36171 0.0
H1243 H 0.52813 0.87518 0.30444 0.0
H1244 H 0.48864 0.85725 0.33617 0.0
H1245 H 0.49612 0.91766 0.32025 0.0
O1246 O 0.50847 0.87795 0.36881 0.0
O1247 O 0.51013 0.9104 0.36177 0.0
O1248 O 0.53662 0.90559 0.32418 0.0
C1249 C 0.50282 0.89614 0.37302 0.0
H1250 H 0.58083 0.92123 0.38367 0.0
H1251 H 0.4558 0.86905 0.31679 0.0
H1252 H 0.53289 0.84322 0.28787 0.0
H1253 H 0.53744 0.81472 0.34584 0.0
Co1254 Co 0.15971 0.54186 0.34199 0.0
C1255 C 0.13745 0.51427 0.31376 0.0
C1256 C 0.16738 0.5045 0.32078 0.0
C1257 C 0.15839 0.49004 0.30935 0.0
N1258 N 0.15452 0.51997 0.32337 0.0
N1259 N 0.13957 0.49609 0.30489 0.0
H1260 H 0.12363 0.52277 0.31377 0.0
H1261 H 0.18201 0.50311 0.32776 0.0
C1262 C 0.16764 0.51808 0.38135 0.0
O1263 O 0.17518 0.53341 0.39118 0.0
N1264 N 0.16531 0.56353 0.36088 0.0
C1265 C 0.18005 0.57719 0.35862 0.0
C1266 C 0.18063 0.58939 0.37523 0.0
C1267 C 0.15639 0.56831 0.37855 0.0
N1268 N 0.16589 0.58378 0.38782 0.0
C1269 C 0.19232 0.54489 0.31535 0.0
C1270 C 0.22341 0.5332 0.3404 0.0
C1271 C 0.2276 0.53824 0.32036 0.0
C1272 C 0.21173 0.54416 0.30791 0.0
C1273 C 0.20352 0.53456 0.34751 0.0
N1274 N 0.18821 0.54022 0.33489 0.0
H1275 H 0.18038 0.54866 0.305 0.0
H1276 H 0.20062 0.531 0.36297 0.0
H1277 H 0.19011 0.57801 0.34594 0.0
H1278 H 0.14415 0.55987 0.38506 0.0
O1279 O 0.15248 0.56184 0.32238 0.0
O1280 O 0.13069 0.54796 0.34302 0.0
O1281 O 0.16177 0.51989 0.36311 0.0
C1282 C 0.13409 0.56051 0.32832 0.0
H1283 H 0.16487 0.47559 0.30566 0.0
H1284 H 0.19144 0.6012 0.37815 0.0
H1285 H 0.23536 0.52847 0.35046 0.0
H1286 H 0.21423 0.54772 0.29223 0.0
Co1287 Co 0.48569 0.1485 0.33668 0.0
C1288 C 0.5225 0.13011 0.32054 0.0
C1289 C 0.51281 0.15503 0.30237 0.0
C1290 C 0.52964 0.14669 0.29378 0.0
N1291 N 0.50858 0.14483 0.31931 0.0
N1292 N 0.53562 0.131 0.30516 0.0
H1293 H 0.52279 0.11881 0.33222 0.0
H1294 H 0.504 0.16736 0.29643 0.0
C1295 C 0.50828 0.15825 0.37511 0.0
O1296 O 0.49711 0.17437 0.37748 0.0
N1297 N 0.46221 0.15141 0.35436 0.0
C1298 C 0.44307 0.15453 0.3482 0.0
C1299 C 0.43044 0.15398 0.36447 0.0
C1300 C 0.46062 0.14832 0.37451 0.0
N1301 N 0.44145 0.15018 0.38105 0.0
C1302 C 0.47358 0.18829 0.32621 0.0
C1303 C 0.51085 0.20616 0.32932 0.0
C1304 C 0.49536 0.21672 0.31939 0.0
C1305 C 0.47637 0.20758 0.31853 0.0
C1306 C 0.5075 0.18661 0.3365 0.0
N1307 N 0.48906 0.17769 0.3346 0.0
H1308 H 0.45929 0.18126 0.32358 0.0
H1309 H 0.5202 0.17814 0.3421 0.0
H1310 H 0.43824 0.1565 0.33281 0.0
H1311 H 0.47288 0.1438 0.38418 0.0
O1312 O 0.46856 0.14523 0.31343 0.0
O1313 O 0.47893 0.12014 0.33262 0.0
O1314 O 0.50481 0.14622 0.36048 0.0
C1315 C 0.46921 0.12602 0.31656 0.0
H1316 H 0.53648 0.15128 0.27979 0.0
H1317 H 0.41431 0.15614 0.36409 0.0
H1318 H 0.52577 0.21244 0.33076 0.0
H1319 H 0.46391 0.21449 0.31065 0.0
Co1320 Co 0.69264 0.87599 0.53071 0.0
C1321 C 0.72587 0.88483 0.50153 0.0
C1322 C 0.69788 0.87902 0.48667 0.0
C1323 C 0.71177 0.88393 0.47242 0.0
N1324 N 0.70662 0.87922 0.50507 0.0
N1325 N 0.72931 0.88775 0.48173 0.0
H1326 H 0.73701 0.88754 0.51308 0.0
H1327 H 0.68219 0.87644 0.48348 0.0
C1328 C 0.65131 0.86764 0.5131 0.0
O1329 O 0.65017 0.85095 0.52358 0.0
N1330 N 0.67815 0.8736 0.55629 0.0
C1331 C 0.68616 0.87031 0.57474 0.0
C1332 C 0.67116 0.87092 0.58891 0.0
C1333 C 0.65835 0.87689 0.55988 0.0
N1334 N 0.65367 0.87488 0.5795 0.0
C1335 C 0.70227 0.83573 0.5418 0.0
C1336 C 0.69258 0.81723 0.50598 0.0
C1337 C 0.70304 0.80615 0.52061 0.0
C1338 C 0.70734 0.81559 0.53894 0.0
C1339 C 0.68792 0.83745 0.5094 0.0
N1340 N 0.69296 0.84669 0.52711 0.0
H1341 H 0.7073 0.84279 0.55544 0.0
H1342 H 0.68068 0.84556 0.49745 0.0
H1343 H 0.70192 0.86797 0.57796 0.0
H1344 H 0.64753 0.88162 0.54875 0.0
O1345 O 0.71781 0.87773 0.54502 0.0
O1346 O 0.69913 0.9041 0.5375 0.0
O1347 O 0.66621 0.8796 0.51557 0.0
C1348 C 0.71548 0.89703 0.54594 0.0
H1349 H 0.70878 0.88605 0.45655 0.0
H1350 H 0.67297 0.8685 0.60491 0.0
H1351 H 0.68862 0.81058 0.49165 0.0
H1352 H 0.71585 0.808 0.55059 0.0
Co1353 Co 0.68331 0.14828 0.49333 0.0
C1354 C 0.71867 0.1357 0.51872 0.0
C1355 C 0.69328 0.1439 0.53659 0.0
C1356 C 0.70817 0.13719 0.54918 0.0
N1357 N 0.69981 0.14343 0.51737 0.0
N1358 N 0.72402 0.1319 0.53795 0.0
H1359 H 0.72813 0.13217 0.50605 0.0
H1360 H 0.67842 0.14811 0.54147 0.0
C1361 C 0.6459 0.16153 0.5154 0.0
O1362 O 0.646 0.17853 0.50539 0.0
N1363 N 0.66628 0.15196 0.46923 0.0
C1364 C 0.67289 0.15288 0.45005 0.0
C1365 C 0.65686 0.15237 0.43703 0.0
C1366 C 0.64597 0.15033 0.46728 0.0
N1367 N 0.63991 0.15075 0.44781 0.0
C1368 C 0.69426 0.18752 0.47993 0.0
C1369 C 0.69742 0.20551 0.51713 0.0
C1370 C 0.70614 0.21511 0.50053 0.0
C1371 C 0.70323 0.20635 0.4816 0.0
C1372 C 0.6879 0.18683 0.51469 0.0
N1373 N 0.68728 0.17745 0.49636 0.0
H1374 H 0.69457 0.18049 0.46546 0.0
H1375 H 0.68193 0.1797 0.52783 0.0
H1376 H 0.68842 0.15331 0.44546 0.0
H1377 H 0.6358 0.14766 0.47957 0.0
O1378 O 0.7063 0.14391 0.47658 0.0
O1379 O 0.68604 0.1196 0.48653 0.0
O1380 O 0.6586 0.14769 0.51115 0.0
C1381 C 0.70191 0.12497 0.47632 0.0
H1382 H 0.70698 0.13507 0.56526 0.0
H1383 H 0.65764 0.15285 0.4208 0.0
H1384 H 0.69894 0.21165 0.53211 0.0
H1385 H 0.70891 0.21337 0.46811 0.0
Co1386 Co 0.87468 0.69168 0.49009 0.0
C1387 C 0.89462 0.72259 0.51669 0.0
C1388 C 0.87041 0.70669 0.53073 0.0
C1389 C 0.87836 0.71978 0.54444 0.0
N1390 N 0.88034 0.70852 0.51321 0.0
N1391 N 0.89355 0.72979 0.53566 0.0
H1392 H 0.90565 0.72736 0.50586 0.0
H1393 H 0.85839 0.69615 0.53352 0.0
C1394 C 0.87194 0.64973 0.51094 0.0
O1395 O 0.86259 0.64081 0.49603 0.0
N1396 N 0.86871 0.67456 0.4672 0.0
C1397 C 0.85334 0.67753 0.45428 0.0
C1398 C 0.85207 0.66134 0.44155 0.0
C1399 C 0.87733 0.65708 0.4614 0.0
N1400 N 0.86693 0.64832 0.4462 0.0
C1401 C 0.83996 0.71523 0.49471 0.0
C1402 C 0.81162 0.68545 0.50006 0.0
C1403 C 0.80547 0.70558 0.49925 0.0
C1404 C 0.8199 0.72049 0.4967 0.0
C1405 C 0.83211 0.68074 0.4978 0.0
N1406 N 0.84601 0.69561 0.49512 0.0
H1407 H 0.8508 0.72712 0.49283 0.0
H1408 H 0.83646 0.66525 0.49767 0.0
H1409 H 0.84316 0.6902 0.45465 0.0
H1410 H 0.88987 0.65013 0.46917 0.0
O1411 O 0.87748 0.71385 0.47177 0.0
O1412 O 0.90275 0.69444 0.48118 0.0
O1413 O 0.8771 0.66824 0.50975 0.0
C1414 C 0.89644 0.7098 0.47063 0.0
H1415 H 0.87381 0.72124 0.55996 0.0
H1416 H 0.84057 0.65894 0.43024 0.0
H1417 H 0.80071 0.67355 0.50194 0.0
H1418 H 0.81565 0.73621 0.49616 0.0
Co1419 Co 0.33747 0.88861 0.50084 0.0
C1420 C 0.30299 0.89491 0.52931 0.0
C1421 C 0.3305 0.88844 0.5448 0.0
C1422 C 0.31595 0.89202 0.5588 0.0
N1423 N 0.32251 0.88995 0.52613 0.0
N1424 N 0.29871 0.89624 0.5491 0.0
H1425 H 0.29218 0.89816 0.51759 0.0
H1426 H 0.34607 0.88577 0.54842 0.0
C1427 C 0.37892 0.88117 0.51886 0.0
O1428 O 0.38139 0.86577 0.50677 0.0
N1429 N 0.35274 0.88811 0.4756 0.0
C1430 C 0.34522 0.88511 0.45691 0.0
C1431 C 0.36014 0.888 0.44296 0.0
C1432 C 0.37217 0.89347 0.47243 0.0
N1433 N 0.37711 0.89313 0.45274 0.0
C1434 C 0.3283 0.84878 0.48804 0.0
C1435 C 0.33679 0.82952 0.52375 0.0
C1436 C 0.32514 0.81947 0.50929 0.0
C1437 C 0.32185 0.82903 0.49084 0.0
C1438 C 0.34301 0.8493 0.52031 0.0
N1439 N 0.33798 0.85915 0.50293 0.0
H1440 H 0.32367 0.85621 0.47446 0.0
H1441 H 0.35084 0.8568 0.53228 0.0
H1442 H 0.32975 0.88172 0.45333 0.0
H1443 H 0.38238 0.89854 0.48399 0.0
O1444 O 0.3126 0.89037 0.48596 0.0
O1445 O 0.33026 0.91679 0.49536 0.0
O1446 O 0.36322 0.89226 0.51717 0.0
C1447 C 0.31425 0.90974 0.48634 0.0
H1448 H 0.31822 0.89287 0.5749 0.0
H1449 H 0.35861 0.88645 0.42683 0.0
H1450 H 0.34011 0.82259 0.53811 0.0
H1451 H 0.31277 0.82207 0.47923 0.0
Co1452 Co 0.14137 0.34483 0.49211 0.0
C1453 C 0.12088 0.31281 0.5174 0.0
C1454 C 0.1126 0.34326 0.5239 0.0
C1455 C 0.10054 0.33095 0.53488 0.0
N1456 N 0.12558 0.33213 0.513 0.0
N1457 N 0.10567 0.3119 0.53079 0.0
H1458 H 0.12732 0.29975 0.51032 0.0
H1459 H 0.11104 0.35939 0.52301 0.0
C1460 C 0.1548 0.38433 0.51379 0.0
O1461 O 0.16707 0.39024 0.49961 0.0
N1462 N 0.15569 0.35903 0.47119 0.0
C1463 C 0.17155 0.35304 0.46018 0.0
C1464 C 0.17614 0.36805 0.44658 0.0
C1465 C 0.15049 0.3772 0.46375 0.0
N1466 N 0.16299 0.38331 0.44905 0.0
C1467 C 0.16714 0.31122 0.49776 0.0
C1468 C 0.20139 0.33084 0.51046 0.0
C1469 C 0.20251 0.3102 0.50614 0.0
C1470 C 0.18489 0.30043 0.50023 0.0
C1471 C 0.18309 0.34125 0.50771 0.0
N1472 N 0.1662 0.33145 0.50113 0.0
H1473 H 0.15437 0.30314 0.49206 0.0
H1474 H 0.183 0.3572 0.50999 0.0
H1475 H 0.17929 0.33885 0.46192 0.0
H1476 H 0.13799 0.38596 0.46933 0.0
O1477 O 0.1338 0.32471 0.47284 0.0
O1478 O 0.11552 0.35166 0.47901 0.0
O1479 O 0.14499 0.36786 0.5121 0.0
C1480 C 0.11755 0.33467 0.46936 0.0
H1481 H 0.08858 0.33559 0.54485 0.0
H1482 H 0.1885 0.36796 0.43607 0.0
H1483 H 0.2147 0.33902 0.51506 0.0
H1484 H 0.18486 0.28447 0.49704 0.0
Co1485 Co 0.33672 0.14202 0.53968 0.0
C1486 C 0.29865 0.13308 0.51712 0.0
C1487 C 0.32501 0.11927 0.50459 0.0
C1488 C 0.30873 0.11322 0.4936 0.0
N1489 N 0.31887 0.13194 0.51912 0.0
N1490 N 0.29227 0.12185 0.50143 0.0
H1491 H 0.28888 0.14114 0.52729 0.0
H1492 H 0.34015 0.11374 0.50284 0.0
C1493 C 0.37356 0.15357 0.5153 0.0
O1494 O 0.3766 0.16922 0.52692 0.0
N1495 N 0.35587 0.15115 0.5602 0.0
C1496 C 0.35724 0.16914 0.56954 0.0
C1497 C 0.37446 0.16963 0.58097 0.0
C1498 C 0.37251 0.14096 0.56637 0.0
N1499 N 0.38413 0.15199 0.57896 0.0
C1500 C 0.31648 0.17917 0.54639 0.0
C1501 C 0.32087 0.19553 0.50861 0.0
C1502 C 0.30915 0.20588 0.52281 0.0
C1503 C 0.30719 0.19739 0.54191 0.0
C1504 C 0.33023 0.17725 0.51386 0.0
N1505 N 0.32838 0.16947 0.53279 0.0
H1506 H 0.31393 0.17284 0.56107 0.0
H1507 H 0.33807 0.16898 0.50234 0.0
H1508 H 0.34726 0.18171 0.56782 0.0
H1509 H 0.37655 0.12619 0.56091 0.0
O1510 O 0.31658 0.13733 0.55985 0.0
O1511 O 0.33837 0.11439 0.55004 0.0
O1512 O 0.359 0.14158 0.51889 0.0
C1513 C 0.32278 0.11898 0.56099 0.0
H1514 H 0.30874 0.10241 0.48144 0.0
H1515 H 0.37975 0.18227 0.58976 0.0
H1516 H 0.32247 0.20125 0.49348 0.0
H1517 H 0.29776 0.2043 0.5532 0.0
Co1518 Co 0.88097 0.33475 0.53116 0.0
C1519 C 0.88932 0.29854 0.50525 0.0
C1520 C 0.87974 0.32398 0.48804 0.0
C1521 C 0.88383 0.30865 0.47505 0.0
N1522 N 0.88272 0.31775 0.50718 0.0
N1523 N 0.88998 0.29272 0.4858 0.0
H1524 H 0.89432 0.28917 0.51756 0.0
H1525 H 0.87598 0.33899 0.48332 0.0
C1526 C 0.8734 0.37441 0.50929 0.0
O1527 O 0.85766 0.37791 0.52063 0.0
N1528 N 0.87983 0.35218 0.55511 0.0
C1529 C 0.87679 0.34606 0.57425 0.0
C1530 C 0.87821 0.3622 0.58705 0.0
C1531 C 0.88368 0.37217 0.55691 0.0
N1532 N 0.8824 0.37866 0.57615 0.0
C1533 C 0.84132 0.32541 0.54423 0.0
C1534 C 0.82164 0.33125 0.50817 0.0
C1535 C 0.812 0.32016 0.5232 0.0
C1536 C 0.82174 0.31822 0.54177 0.0
C1537 C 0.84125 0.33831 0.51129 0.0
N1538 N 0.8514 0.33448 0.52884 0.0
H1539 H 0.84888 0.32187 0.55808 0.0
H1540 H 0.84831 0.34586 0.49899 0.0
H1541 H 0.87411 0.33078 0.57895 0.0
H1542 H 0.88823 0.3818 0.54473 0.0
O1543 O 0.8831 0.31138 0.5482 0.0
O1544 O 0.90934 0.32839 0.53755 0.0
O1545 O 0.8845 0.359 0.51269 0.0
C1546 C 0.90244 0.31341 0.54817 0.0
H1547 H 0.88391 0.30966 0.45881 0.0
H1548 H 0.8762 0.36188 0.60318 0.0
H1549 H 0.81452 0.33361 0.49369 0.0
H1550 H 0.81506 0.30968 0.55386 0.0
Co1551 Co 0.15131 0.69703 0.53831 0.0
C1552 C 0.14146 0.73233 0.51191 0.0
C1553 C 0.14902 0.70631 0.49469 0.0
C1554 C 0.14312 0.72118 0.48171 0.0
N1555 N 0.14828 0.71321 0.51381 0.0
N1556 N 0.13813 0.73743 0.49255 0.0
H1557 H 0.13774 0.74209 0.5243 0.0
H1558 H 0.15247 0.69114 0.49018 0.0
C1559 C 0.16271 0.65827 0.51781 0.0
O1560 O 0.17898 0.65757 0.52908 0.0
N1561 N 0.15333 0.6804 0.56279 0.0
C1562 C 0.1557 0.68712 0.58185 0.0
C1563 C 0.15649 0.67109 0.59484 0.0
C1564 C 0.15128 0.66017 0.56492 0.0
N1565 N 0.15372 0.65417 0.5842 0.0
C1566 C 0.19083 0.70642 0.55242 0.0
C1567 C 0.20986 0.70636 0.51573 0.0
C1568 C 0.21958 0.71542 0.53217 0.0
C1569 C 0.21024 0.71406 0.55093 0.0
C1570 C 0.1906 0.69809 0.51805 0.0
N1571 N 0.18075 0.6991 0.53607 0.0
H1572 H 0.18348 0.70815 0.56657 0.0
H1573 H 0.18344 0.69183 0.50499 0.0
H1574 H 0.15679 0.70269 0.5863 0.0
H1575 H 0.148 0.64988 0.55284 0.0
O1576 O 0.14789 0.72079 0.55442 0.0
O1577 O 0.12272 0.70169 0.54424 0.0
O1578 O 0.14957 0.67201 0.52079 0.0
C1579 C 0.12866 0.71776 0.55391 0.0
H1580 H 0.14073 0.7195 0.46569 0.0
H1581 H 0.15873 0.6718 0.61095 0.0
H1582 H 0.21639 0.7067 0.50088 0.0
H1583 H 0.21727 0.72003 0.56436 0.0
H1584 H 0.08251 0.3168 0.48086 0.0
H1585 H 0.08826 0.24655 0.38405 0.0
H1586 H 0.11964 0.32824 0.4294 0.0
H1587 H 0.04304 0.23754 0.4294 0.0
H1588 H 0.09814 0.27757 0.40032 0.0
H1589 H 0.06532 0.28995 0.46199 0.0
C1590 C 0.08632 0.31436 0.46524 0.0
C1591 C 0.10213 0.32516 0.45646 0.0
C1592 C 0.086 0.26895 0.4068 0.0
C1593 C 0.08335 0.29377 0.43516 0.0
C1594 C 0.08039 0.25102 0.39753 0.0
C1595 C 0.06487 0.23913 0.40541 0.0
C1596 C 0.07628 0.27527 0.42438 0.0
C1597 C 0.05517 0.24609 0.42284 0.0
C1598 C 0.07677 0.29876 0.4546 0.0
C1599 C 0.10719 0.32065 0.43655 0.0
N1600 N 0.06115 0.26361 0.43185 0.0
N1601 N 0.09802 0.30525 0.4267 0.0
H1602 H 0.71969 0.13218 0.44099 0.0
H1603 H 0.79389 0.03754 0.43746 0.0
H1604 H 0.7158 0.0869 0.48706 0.0
H1605 H 0.80528 0.09613 0.4122 0.0
H1606 H 0.76279 0.05108 0.45275 0.0
H1607 H 0.74733 0.11398 0.4258 0.0
C1608 C 0.72444 0.11812 0.44772 0.0
C1609 C 0.71538 0.11107 0.4653 0.0
C1610 C 0.77225 0.06085 0.4439 0.0
C1611 C 0.74779 0.09022 0.44821 0.0
C1612 C 0.79001 0.05319 0.43523 0.0
C1613 C 0.80231 0.06566 0.42342 0.0
C1614 C 0.7667 0.08097 0.4404 0.0
C1615 C 0.79642 0.08579 0.42102 0.0
C1616 C 0.74041 0.10779 0.43913 0.0
C1617 C 0.72225 0.09274 0.47336 0.0
N1618 N 0.77913 0.09266 0.42924 0.0
N1619 N 0.73827 0.08299 0.46486 0.0
H1620 H 0.88713 0.72848 0.43588 0.0
H1621 H 0.97811 0.80727 0.43891 0.0
H1622 H 0.9348 0.72364 0.47968 0.0
H1623 H 0.93876 0.79866 0.38802 0.0
H1624 H 0.96109 0.77929 0.4562 0.0
H1625 H 0.90502 0.75589 0.41967 0.0
C1626 C 0.90161 0.73299 0.44189 0.0
C1627 C 0.90956 0.72359 0.45904 0.0
C1628 C 0.95609 0.78369 0.44133 0.0
C1629 C 0.93003 0.75568 0.44082 0.0
C1630 C 0.96558 0.79986 0.4316 0.0
C1631 C 0.95967 0.80548 0.41208 0.0
C1632 C 0.94047 0.77326 0.43153 0.0
C1633 C 0.94372 0.79497 0.4031 0.0
C1634 C 0.91179 0.74878 0.43269 0.0
C1635 C 0.92829 0.73026 0.46629 0.0
N1636 N 0.93473 0.77948 0.41285 0.0
N1637 N 0.93781 0.74607 0.45728 0.0
H1638 H 0.1997 0.94703 0.4354 0.0
H1639 H 0.31378 0.95046 0.47699 0.0
H1640 H 0.24093 0.99478 0.42155 0.0
H1641 H 0.27635 0.89763 0.4772 0.0
H1642 H 0.28559 0.96953 0.46204 0.0
H1643 H 0.22573 0.93149 0.45681 0.0
C1644 C 0.214 0.95455 0.4374 0.0
C1645 C 0.21812 0.97232 0.42698 0.0
C1646 C 0.28358 0.95377 0.46549 0.0
C1647 C 0.24815 0.95448 0.45092 0.0
C1648 C 0.29967 0.94291 0.47402 0.0
C1649 C 0.29757 0.92235 0.47815 0.0
C1650 C 0.26519 0.94405 0.46135 0.0
C1651 C 0.27884 0.91338 0.47405 0.0
C1652 C 0.22896 0.94559 0.4494 0.0
C1653 C 0.23712 0.98117 0.42958 0.0
N1654 N 0.26349 0.92421 0.46592 0.0
N1655 N 0.25144 0.97215 0.44118 0.0
H1656 H 0.03915 0.78367 0.6208 0.0
H1657 H 0.13789 0.75666 0.56175 0.0
H1658 H 0.07714 0.82945 0.59566 0.0
H1659 H 0.08817 0.71524 0.564 0.0
H1660 H 0.11638 0.783 0.57517 0.0
H1661 H 0.0567 0.75827 0.60091 0.0
C1662 C 0.05097 0.78842 0.61072 0.0
C1663 C 0.05658 0.80873 0.6097 0.0
C1664 C 0.11007 0.76823 0.57263 0.0
C1665 C 0.07727 0.77953 0.58739 0.0
C1666 C 0.12239 0.75304 0.5651 0.0
C1667 C 0.1149 0.73354 0.56187 0.0
C1668 C 0.09007 0.76397 0.57749 0.0
C1669 C 0.09462 0.72998 0.56631 0.0
C1670 C 0.06099 0.77388 0.59941 0.0
C1671 C 0.07217 0.81401 0.59667 0.0
N1672 N 0.08297 0.74497 0.57416 0.0
N1673 N 0.08221 0.79944 0.58626 0.0
H1674 H 0.23109 0.07011 0.63828 0.0
H1675 H 0.30993 0.08197 0.54795 0.0
H1676 H 0.22313 0.04061 0.58108 0.0
H1677 H 0.30528 0.12341 0.59741 0.0
H1678 H 0.28204 0.06235 0.56227 0.0
H1679 H 0.26163 0.0859 0.62562 0.0
C1680 C 0.23571 0.06696 0.62302 0.0
C1681 C 0.22431 0.0541 0.6107 0.0
C1682 C 0.28741 0.07552 0.57018 0.0
C1683 C 0.25971 0.07202 0.59613 0.0
C1684 C 0.30354 0.08651 0.5622 0.0
C1685 C 0.31016 0.10414 0.57172 0.0
C1686 C 0.27799 0.08212 0.5879 0.0
C1687 C 0.30083 0.10976 0.58974 0.0
C1688 C 0.25322 0.07599 0.6158 0.0
C1689 C 0.23125 0.05058 0.59107 0.0
N1690 N 0.28528 0.09885 0.59721 0.0
N1691 N 0.2485 0.05943 0.58441 0.0
H1692 H 0.98396 0.21584 0.58666 0.0
H1693 H 0.89215 0.29411 0.58216 0.0
H1694 H 0.94425 0.22905 0.63586 0.0
H1695 H 0.94078 0.29834 0.53986 0.0
H1696 H 0.90994 0.26738 0.59964 0.0
H1697 H 0.9672 0.24261 0.56675 0.0
C1698 C 0.97148 0.22404 0.5931 0.0
C1699 C 0.96533 0.22004 0.61289 0.0
C1700 C 0.91693 0.27415 0.58664 0.0
C1701 C 0.94634 0.25071 0.59042 0.0
C1702 C 0.90674 0.28952 0.57662 0.0
C1703 C 0.91502 0.2987 0.5596 0.0
C1704 C 0.9356 0.26739 0.57956 0.0
C1705 C 0.93398 0.29191 0.55312 0.0
C1706 C 0.96212 0.23948 0.58185 0.0
C1707 C 0.94944 0.23149 0.62066 0.0
N1708 N 0.94359 0.27654 0.56302 0.0
N1709 N 0.94055 0.24612 0.60947 0.0
H1710 H 0.74655 0.88375 0.56877 0.0
H1711 H 0.79907 0.99051 0.58828 0.0
H1712 H 0.72135 0.93861 0.54503 0.0
H1713 H 0.8126 0.93619 0.62077 0.0
H1714 H 0.7741 0.97186 0.56809 0.0
H1715 H 0.77367 0.90279 0.58394 0.0
C1716 C 0.74666 0.89989 0.56673 0.0
C1717 C 0.73144 0.90954 0.55563 0.0
C1718 C 0.78284 0.96397 0.57937 0.0
C1719 C 0.76303 0.93174 0.57316 0.0
C1720 C 0.79734 0.97453 0.59067 0.0
C1721 C 0.80824 0.96476 0.60597 0.0
C1722 C 0.77935 0.94351 0.58337 0.0
C1723 C 0.80482 0.94421 0.60889 0.0
C1724 C 0.76228 0.9108 0.57546 0.0
C1725 C 0.73262 0.93054 0.5536 0.0
N1726 N 0.79074 0.93434 0.59779 0.0
N1727 N 0.74816 0.94096 0.56228 0.0
H1728 H 0.45463 0.08743 0.32146 0.0
H1729 H 0.433 0.06915 0.20402 0.0
H1730 H 0.46539 0.13273 0.27652 0.0
H1731 H 0.39614 0.04342 0.25042 0.0
H1732 H 0.45226 0.0872 0.2302 0.0
H1733 H 0.43996 0.06572 0.29514 0.0
C1734 C 0.45404 0.09273 0.30609 0.0
C1735 C 0.46096 0.112 0.30123 0.0
C1736 C 0.4401 0.07737 0.23458 0.0
C1737 C 0.4448 0.08717 0.27107 0.0
C1738 C 0.42924 0.067 0.21968 0.0
C1739 C 0.41293 0.05485 0.22505 0.0
C1740 C 0.43489 0.07514 0.25495 0.0
C1741 C 0.40854 0.05272 0.2456 0.0
C1742 C 0.44568 0.08039 0.2911 0.0
C1743 C 0.45992 0.1181 0.281 0.0
N1744 N 0.41944 0.0627 0.25977 0.0
N1745 N 0.45208 0.10575 0.2667 0.0
H1746 H 0.98533 0.40746 0.25408 0.0
H1747 H 0.90018 0.48591 0.27773 0.0
H1748 H 0.96356 0.44794 0.20831 0.0
H1749 H 0.94167 0.46636 0.3237 0.0
H1750 H 0.92197 0.47131 0.25214 0.0
H1751 H 0.9686 0.42764 0.27961 0.0
C1752 C 0.97713 0.42073 0.24937 0.0
C1753 C 0.97585 0.42598 0.22893 0.0
C1754 C 0.92648 0.4704 0.26777 0.0
C1755 C 0.95619 0.44904 0.25834 0.0
C1756 C 0.91401 0.47866 0.28245 0.0
C1757 C 0.91907 0.47732 0.30296 0.0
C1758 C 0.94399 0.46015 0.27354 0.0
C1759 C 0.93721 0.46781 0.30811 0.0
C1760 C 0.96764 0.43229 0.26404 0.0
C1761 C 0.96501 0.44337 0.22385 0.0
N1762 N 0.94885 0.45928 0.29352 0.0
N1763 N 0.95531 0.4541 0.23842 0.0
H1764 H 0.58667 0.98508 0.21912 0.0
H1765 H 0.59094 0.89621 0.30064 0.0
H1766 H 0.63933 0.9512 0.23613 0.0
H1767 H 0.53879 0.93459 0.29569 0.0
H1768 H 0.60666 0.91451 0.27368 0.0
H1769 H 0.56685 0.96526 0.24354 0.0
C1770 C 0.59395 0.97328 0.22769 0.0
C1771 C 0.61469 0.96977 0.2256 0.0
C1772 C 0.59179 0.91909 0.27838 0.0
C1773 C 0.5923 0.94727 0.25344 0.0
C1774 C 0.5827 0.90857 0.29391 0.0
C1775 C 0.56348 0.91389 0.30073 0.0
C1776 C 0.58179 0.93532 0.26928 0.0
C1777 C 0.55368 0.93002 0.29105 0.0
C1778 C 0.58271 0.96213 0.24172 0.0
C1779 C 0.62344 0.95453 0.23727 0.0
N1780 N 0.56298 0.94024 0.27584 0.0
N1781 N 0.61228 0.94396 0.25056 0.0
H1782 H 0.1364 0.59921 0.31727 0.0
H1783 H 0.04768 0.59444 0.23505 0.0
H1784 H 0.09717 0.54795 0.31313 0.0
H1785 H 0.09463 0.63899 0.23822 0.0
H1786 H 0.0616 0.57873 0.26583 0.0
H1787 H 0.11642 0.61622 0.29176 0.0
C1788 C 0.12322 0.59171 0.31128 0.0
C1789 C 0.11848 0.57215 0.31736 0.0
C1790 C 0.06872 0.592 0.25974 0.0
C1791 C 0.09577 0.59129 0.2872 0.0
C1792 C 0.06082 0.60094 0.24217 0.0
C1793 C 0.07009 0.61798 0.23381 0.0
C1794 C 0.08581 0.60036 0.26911 0.0
C1795 C 0.08701 0.62579 0.2438 0.0
C1796 C 0.11189 0.60135 0.29649 0.0
C1797 C 0.1013 0.56309 0.30895 0.0
N1798 N 0.09422 0.61697 0.26074 0.0
N1799 N 0.09071 0.57261 0.29402 0.0
H1800 H 0.40109 0.94309 0.79895 0.0
H1801 H 0.49507 0.93921 0.7242 0.0
H1802 H 0.45252 0.98117 0.80865 0.0
H1803 H 0.45237 0.89124 0.73182 0.0
H1804 H 0.47872 0.95752 0.75214 0.0
H1805 H 0.41888 0.92614 0.7719 0.0
C1806 C 0.41633 0.94766 0.79556 0.0
C1807 C 0.42543 0.96335 0.80628 0.0
C1808 C 0.47293 0.94304 0.74754 0.0
C1809 C 0.44587 0.94433 0.77464 0.0
C1810 C 0.48206 0.93274 0.73145 0.0
C1811 C 0.47494 0.91375 0.72555 0.0
C1812 C 0.45642 0.93436 0.75749 0.0
C1813 C 0.45833 0.90585 0.73577 0.0
C1814 C 0.42648 0.93804 0.78001 0.0
C1815 C 0.44512 0.96885 0.80101 0.0
N1816 N 0.44968 0.91615 0.75106 0.0
N1817 N 0.45465 0.95948 0.7854 0.0
H1818 H 0.08525 0.38771 0.78873 0.0
H1819 H 0.08053 0.4839 0.71611 0.0
H1820 H 0.03905 0.4328 0.7952 0.0
H1821 H 0.12975 0.44202 0.72047 0.0
H1822 H 0.06196 0.46377 0.74117 0.0
H1823 H 0.09847 0.40571 0.76019 0.0
C1824 C 0.07782 0.40147 0.78419 0.0
C1825 C 0.06108 0.4088 0.79469 0.0
C1826 C 0.07668 0.45886 0.73634 0.0
C1827 C 0.07644 0.42984 0.76145 0.0
C1828 C 0.08714 0.47018 0.72188 0.0
C1829 C 0.10661 0.46445 0.7161 0.0
C1830 C 0.08578 0.4417 0.74483 0.0
C1831 C 0.11475 0.44689 0.72441 0.0
C1832 C 0.08543 0.4118 0.76773 0.0
C1833 C 0.05207 0.42665 0.78768 0.0
N1834 N 0.10437 0.43625 0.73829 0.0
N1835 N 0.05995 0.43666 0.77156 0.0
H1836 H 0.59141 0.14216 0.74096 0.0
H1837 H 0.58283 0.05445 0.82282 0.0
H1838 H 0.54087 0.1016 0.74116 0.0
H1839 H 0.62964 0.09893 0.82055 0.0
H1840 H 0.56495 0.07235 0.79551 0.0
H1841 H 0.60363 0.12712 0.77168 0.0
C1842 C 0.58281 0.12997 0.7474 0.0
C1843 C 0.56508 0.1231 0.73814 0.0
C1844 C 0.57887 0.07845 0.80136 0.0
C1845 C 0.57929 0.10549 0.77409 0.0
C1846 C 0.5889 0.06843 0.81716 0.0
C1847 C 0.60756 0.07548 0.82422 0.0
C1848 C 0.58767 0.09554 0.79257 0.0
C1849 C 0.61517 0.09316 0.81579 0.0
C1850 C 0.58984 0.12138 0.76517 0.0
C1851 C 0.55467 0.10734 0.74762 0.0
N1852 N 0.60532 0.10243 0.80044 0.0
N1853 N 0.562 0.09896 0.76501 0.0
H1854 H 0.98483 0.59143 0.80432 0.0
H1855 H 0.89772 0.58788 0.72139 0.0
H1856 H 0.9477 0.6422 0.78847 0.0
H1857 H 0.94673 0.54556 0.72009 0.0
H1858 H 0.91484 0.60648 0.74795 0.0
H1859 H 0.96982 0.57247 0.77608 0.0
C1860 C 0.97338 0.59849 0.79508 0.0
C1861 C 0.96742 0.6184 0.79884 0.0
C1862 C 0.92207 0.59328 0.74176 0.0
C1863 C 0.95037 0.59694 0.76656 0.0
C1864 C 0.91232 0.58271 0.72649 0.0
C1865 C 0.92096 0.56535 0.71831 0.0
C1866 C 0.94049 0.58625 0.74942 0.0
C1867 C 0.93977 0.55913 0.72574 0.0
C1868 C 0.965 0.58776 0.77886 0.0
C1869 C 0.95276 0.62691 0.7862 0.0
N1870 N 0.94884 0.56945 0.74108 0.0
N1871 N 0.94472 0.61615 0.77079 0.0
H1872 H 0.21874 0.39944 0.09283 0.0
H1873 H 0.30344 0.48423 0.08569 0.0
H1874 H 0.22179 0.43908 0.04181 0.0
H1875 H 0.28624 0.4545 0.14053 0.0
H1876 H 0.27512 0.46751 0.06829 0.0
H1877 H 0.24407 0.41963 0.10996 0.0
C1878 C 0.22444 0.41275 0.08543 0.0
C1879 C 0.21795 0.41772 0.06599 0.0
C1880 C 0.27759 0.46473 0.08414 0.0
C1881 C 0.24785 0.44062 0.08523 0.0
C1882 C 0.29386 0.47411 0.09402 0.0
C1883 C 0.29732 0.47071 0.1146 0.0
C1884 C 0.2649 0.45173 0.0949 0.0
C1885 C 0.28425 0.45763 0.12468 0.0
C1886 C 0.23908 0.42421 0.09514 0.0
C1887 C 0.22615 0.43492 0.05693 0.0
N1888 N 0.2688 0.44863 0.11477 0.0
N1889 N 0.24092 0.44561 0.06651 0.0
H1890 H 0.2961 0.54068 0.92546 0.0
H1891 H 0.25133 0.64168 0.97304 0.0
H1892 H 0.31986 0.60032 0.9173 0.0
H1893 H 0.21481 0.58831 0.96892 0.0
H1894 H 0.27897 0.62381 0.95798 0.0
H1895 H 0.26873 0.55504 0.94605 0.0
C1896 C 0.29578 0.5567 0.92831 0.0
C1897 C 0.31031 0.56936 0.91969 0.0
C1898 C 0.26499 0.61585 0.96028 0.0
C1899 C 0.2792 0.58575 0.94304 0.0
C1900 C 0.24905 0.6261 0.96893 0.0
C1901 C 0.23047 0.61664 0.97199 0.0
C1902 C 0.26263 0.5958 0.95432 0.0
C1903 C 0.22881 0.59624 0.9667 0.0
C1904 C 0.28008 0.56487 0.93988 0.0
C1905 C 0.30901 0.58999 0.92358 0.0
N1906 N 0.24467 0.58649 0.9579 0.0
N1907 N 0.29384 0.59746 0.9349 0.0
H1908 H 0.48543 0.307 0.94259 0.0
H1909 H 0.39552 0.22761 0.94313 0.0
H1910 H 0.44838 0.29389 0.89093 0.0
H1911 H 0.44463 0.22283 0.98531 0.0
H1912 H 0.4133 0.25438 0.9257 0.0
H1913 H 0.46897 0.27924 0.96081 0.0
C1914 C 0.47363 0.29853 0.93522 0.0
C1915 C 0.46816 0.30285 0.91526 0.0
C1916 C 0.42037 0.2474 0.93863 0.0
C1917 C 0.44949 0.27111 0.93583 0.0
C1918 C 0.41025 0.23203 0.94854 0.0
C1919 C 0.41873 0.2228 0.96552 0.0
C1920 C 0.43903 0.25407 0.94594 0.0
C1921 C 0.43775 0.22932 0.97204 0.0
C1922 C 0.46444 0.28256 0.94551 0.0
C1923 C 0.45305 0.29115 0.90629 0.0
N1924 N 0.44721 0.24475 0.96236 0.0
N1925 N 0.44424 0.27595 0.91663 0.0
H1926 H 0.79745 0.3939 0.94901 0.0
H1927 H 0.72582 0.49033 0.94076 0.0
H1928 H 0.80689 0.44498 0.98777 0.0
H1929 H 0.73563 0.44704 0.89361 0.0
H1930 H 0.75174 0.47294 0.9613 0.0
H1931 H 0.77108 0.41216 0.93154 0.0
C1932 C 0.79402 0.40907 0.95381 0.0
C1933 C 0.80451 0.41795 0.96981 0.0
C1934 C 0.74804 0.46729 0.94649 0.0
C1935 C 0.77389 0.43911 0.9498 0.0
C1936 C 0.73314 0.47704 0.9349 0.0
C1937 C 0.7285 0.47002 0.91551 0.0
C1938 C 0.75794 0.45031 0.93864 0.0
C1939 C 0.73867 0.45298 0.90846 0.0
C1940 C 0.7789 0.41953 0.94379 0.0
C1941 C 0.79931 0.43767 0.97534 0.0
N1942 N 0.75275 0.44376 0.91997 0.0
N1943 N 0.78424 0.44762 0.96539 0.0
H1944 H 0.59393 0.74099 0.89519 0.0
H1945 H 0.59203 0.81051 0.99346 0.0
H1946 H 0.54852 0.73327 0.94058 0.0
H1947 H 0.63269 0.81687 0.94374 0.0
H1948 H 0.57346 0.78463 0.97427 0.0
H1949 H 0.60623 0.77033 0.9127 0.0
C1950 C 0.5865 0.7454 0.90894 0.0
C1951 C 0.57021 0.73434 0.91643 0.0
C1952 C 0.58618 0.79203 0.96743 0.0
C1953 C 0.5845 0.7686 0.93695 0.0
C1954 C 0.59663 0.80698 0.97829 0.0
C1955 C 0.61388 0.81596 0.97011 0.0
C1956 C 0.5931 0.7861 0.94834 0.0
C1957 C 0.61943 0.81044 0.95058 0.0
C1958 C 0.59354 0.76237 0.91897 0.0
C1959 C 0.56119 0.74122 0.93427 0.0
N1960 N 0.60925 0.79588 0.94053 0.0
N1961 N 0.56855 0.75781 0.94403 0.0
H1962 H 0.79903 0.63851 0.08515 0.0
H1963 H 0.73302 0.53906 0.1012 0.0
H1964 H 0.81019 0.58489 0.05058 0.0
H1965 H 0.7207 0.59734 0.12678 0.0
H1966 H 0.7623 0.55357 0.0838 0.0
H1967 H 0.77212 0.62147 0.10256 0.0
C1968 C 0.79589 0.62301 0.08129 0.0
C1969 C 0.80685 0.61318 0.06627 0.0
C1970 C 0.7531 0.5631 0.09321 0.0
C1971 C 0.77547 0.59338 0.08619 0.0
C1972 C 0.73635 0.55487 0.10308 0.0
C1973 C 0.7243 0.56697 0.11552 0.0
C1974 C 0.75784 0.58353 0.09592 0.0
C1975 C 0.72944 0.58732 0.11745 0.0
C1976 C 0.78039 0.61326 0.09124 0.0
C1977 C 0.80214 0.59301 0.06212 0.0
N1978 N 0.74572 0.59484 0.10787 0.0
N1979 N 0.78666 0.58377 0.07193 0.0
H1980 H 0.44098 0.73273 0.13825 0.0
H1981 H 0.44195 0.80778 0.04411 0.0
H1982 H 0.4848 0.72588 0.09131 0.0
H1983 H 0.39063 0.79715 0.08189 0.0
H1984 H 0.46024 0.78082 0.06228 0.0
H1985 H 0.42433 0.75887 0.11871 0.0
C1986 C 0.44694 0.73657 0.12362 0.0
C1987 C 0.46413 0.7269 0.11629 0.0
C1988 C 0.445 0.78452 0.06657 0.0
C1989 C 0.44535 0.75748 0.09383 0.0
C1990 C 0.43468 0.80004 0.05639 0.0
C1991 C 0.41478 0.80482 0.06159 0.0
C1992 C 0.4354 0.77402 0.0822 0.0
C1993 C 0.40593 0.79404 0.07735 0.0
C1994 C 0.43746 0.7516 0.11246 0.0
C1995 C 0.47133 0.7327 0.09732 0.0
N1996 N 0.41626 0.77932 0.08705 0.0
N1997 N 0.46202 0.74777 0.08678 0.0
H1998 H 0.59283 0.22336 0.04457 0.0
H1999 H 0.57833 0.29299 0.14162 0.0
H2000 H 0.63647 0.23045 0.09208 0.0
H2001 H 0.54365 0.30355 0.08771 0.0
H2002 H 0.59681 0.26672 0.12448 0.0
H2003 H 0.57148 0.249 0.061 0.0
C2004 C 0.59766 0.22995 0.05866 0.0
C2005 C 0.61631 0.22464 0.06714 0.0
C2006 C 0.58524 0.27475 0.11625 0.0
C2007 C 0.5923 0.25396 0.08573 0.0
C2008 C 0.57463 0.28983 0.12606 0.0
C2009 C 0.55943 0.3006 0.11609 0.0
C2010 C 0.58065 0.27002 0.0962 0.0
C2011 C 0.5554 0.29575 0.0959 0.0
C2012 C 0.58565 0.24474 0.06785 0.0
C2013 C 0.62215 0.234 0.0851 0.0
N2014 N 0.56588 0.2807 0.0866 0.0
N2015 N 0.61023 0.24807 0.09376 0.0
H2016 H 0.99125 0.80043 0.58737 0.0
H2017 H 0.8832 0.75531 0.56521 0.0
H2018 H 0.94747 0.78601 0.6329 0.0
H2019 H 0.9334 0.73665 0.52891 0.0
H2020 H 0.90596 0.77491 0.58612 0.0
H2021 H 0.97 0.78331 0.5624 0.0
C2022 C 0.97733 0.7937 0.59222 0.0
C2023 C 0.97105 0.7951 0.61236 0.0
C2024 C 0.91201 0.76662 0.57351 0.0
C2025 C 0.94664 0.77607 0.58379 0.0
C2026 C 0.89904 0.75544 0.56158 0.0
C2027 C 0.9065 0.74395 0.54563 0.0
C2028 C 0.93265 0.76648 0.56945 0.0
C2029 C 0.9271 0.74521 0.54118 0.0
C2030 C 0.96521 0.78403 0.57791 0.0
C2031 C 0.95278 0.78601 0.61759 0.0
N2032 N 0.9396 0.75615 0.55321 0.0
N2033 N 0.9412 0.77711 0.60341 0.0
H2034 H 0.27624 0.92774 0.53616 0.0
H2035 H 0.22255 0.93732 0.64301 0.0
H2036 H 0.28189 0.88424 0.58376 0.0
H2037 H 0.22653 0.98596 0.60033 0.0
H2038 H 0.23847 0.9151 0.61867 0.0
H2039 H 0.25158 0.94623 0.55636 0.0
C2040 C 0.27183 0.9218 0.55062 0.0
C2041 C 0.28117 0.90458 0.55846 0.0
C2042 C 0.23572 0.93061 0.61458 0.0
C2043 C 0.25339 0.92569 0.5817 0.0
C2044 C 0.22675 0.94336 0.62854 0.0
C2045 C 0.22343 0.96367 0.62388 0.0
C2046 C 0.24147 0.93816 0.59577 0.0
C2047 C 0.22873 0.97045 0.60462 0.0
C2048 C 0.25796 0.93244 0.56223 0.0
C2049 C 0.27515 0.8976 0.57736 0.0
N2050 N 0.23764 0.95777 0.59134 0.0
N2051 N 0.2618 0.90828 0.58842 0.0
H2052 H 0.08064 0.22981 0.6239 0.0
H2053 H 0.06607 0.30453 0.53221 0.0
H2054 H 0.02293 0.23917 0.59551 0.0
H2055 H 0.12374 0.28134 0.5504 0.0
H2056 H 0.04962 0.28056 0.55465 0.0
H2057 H 0.0964 0.24962 0.5976 0.0
C2058 C 0.07126 0.23608 0.61213 0.0
C2059 C 0.05044 0.23268 0.61185 0.0
C2060 C 0.06585 0.28039 0.55348 0.0
C2061 C 0.06844 0.2555 0.58164 0.0
C2062 C 0.07518 0.29393 0.54061 0.0
C2063 C 0.0962 0.29475 0.53957 0.0
C2064 C 0.07769 0.26788 0.56568 0.0
C2065 C 0.10749 0.28094 0.55074 0.0
C2066 C 0.0803 0.24732 0.59706 0.0
C2067 C 0.03899 0.24154 0.59644 0.0
N2068 N 0.09809 0.26825 0.56364 0.0
N2069 N 0.04816 0.25255 0.58192 0.0
H2070 H 0.73794 0.09613 0.52449 0.0
H2071 H 0.80456 0.08305 0.62396 0.0
H2072 H 0.74771 0.14204 0.56899 0.0
H2073 H 0.78328 0.03273 0.58914 0.0
H2074 H 0.79086 0.10587 0.59881 0.0
H2075 H 0.76147 0.07401 0.5428 0.0
C2076 C 0.74559 0.10172 0.53775 0.0
C2077 C 0.74101 0.12083 0.54537 0.0
C2078 C 0.78927 0.08985 0.59653 0.0
C2079 C 0.76751 0.09581 0.56636 0.0
C2080 C 0.797 0.07681 0.61096 0.0
C2081 C 0.79458 0.05599 0.60887 0.0
C2082 C 0.77889 0.0821 0.57985 0.0
C2083 C 0.78528 0.0487 0.59136 0.0
C2084 C 0.7588 0.08909 0.54829 0.0
C2085 C 0.75092 0.12737 0.56275 0.0
N2086 N 0.77747 0.06177 0.57761 0.0
N2087 N 0.76359 0.11485 0.57274 0.0
H2088 H 0.87703 0.27068 0.45452 0.0
H2089 H 0.98786 0.23346 0.43213 0.0
H2090 H 0.92588 0.27687 0.49671 0.0
H2091 H 0.93698 0.21901 0.39428 0.0
H2092 H 0.96498 0.2467 0.45728 0.0
H2093 H 0.89778 0.2483 0.43413 0.0
C2094 C 0.89199 0.2668 0.45972 0.0
C2095 C 0.89984 0.27561 0.47719 0.0
C2096 C 0.9588 0.24047 0.44355 0.0
C2097 C 0.92393 0.25062 0.45373 0.0
C2098 C 0.97188 0.23285 0.42912 0.0
C2099 C 0.96442 0.22513 0.4109 0.0
C2100 C 0.93804 0.24059 0.43974 0.0
C2101 C 0.94352 0.22511 0.40787 0.0
C2102 C 0.90388 0.25417 0.44805 0.0
C2103 C 0.91929 0.27025 0.48337 0.0
N2104 N 0.93109 0.23284 0.42207 0.0
N2105 N 0.93084 0.25839 0.47143 0.0
H2106 H 0.80395 0.93859 0.39036 0.0
H2107 H 0.75175 0.91832 0.49659 0.0
H2108 H 0.79779 0.98326 0.43703 0.0
H2109 H 0.74456 0.87961 0.44518 0.0
H2110 H 0.77507 0.93913 0.47723 0.0
H2111 H 0.78744 0.91422 0.41215 0.0
C2112 C 0.79914 0.94335 0.40511 0.0
C2113 C 0.80229 0.96314 0.41174 0.0
C2114 C 0.76862 0.9259 0.47028 0.0
C2115 C 0.78371 0.93511 0.43694 0.0
C2116 C 0.75553 0.91391 0.48141 0.0
C2117 C 0.74616 0.89736 0.47236 0.0
C2118 C 0.77239 0.92118 0.45005 0.0
C2119 C 0.75135 0.89241 0.45256 0.0
C2120 C 0.78985 0.92935 0.41762 0.0
C2121 C 0.79599 0.9682 0.43124 0.0
N2122 N 0.76398 0.90437 0.44198 0.0
N2123 N 0.78699 0.95431 0.4431 0.0
H2124 H 0.10244 0.74908 0.5076 0.0
H2125 H 0.07288 0.81597 0.41244 0.0
H2126 H 0.14453 0.76066 0.46007 0.0
H2127 H 0.03379 0.77143 0.43802 0.0
H2128 H 0.09919 0.80645 0.43699 0.0
H2129 H 0.07707 0.76899 0.4895 0.0
C2130 C 0.10654 0.7565 0.49374 0.0
C2131 C 0.12548 0.75328 0.48518 0.0
C2132 C 0.08471 0.79904 0.43737 0.0
C2133 C 0.09676 0.77583 0.46455 0.0
C2134 C 0.06983 0.80443 0.42348 0.0
C2135 C 0.05144 0.79422 0.42326 0.0
C2136 C 0.08078 0.78381 0.45138 0.0
C2137 C 0.04796 0.77938 0.43771 0.0
C2138 C 0.09206 0.76764 0.48337 0.0
C2139 C 0.13002 0.76286 0.46702 0.0
N2140 N 0.06252 0.7746 0.45125 0.0
N2141 N 0.11568 0.77362 0.45715 0.0
H2142 H 0.27062 0.0909 0.51493 0.0
H2143 H 0.21466 0.0875 0.40903 0.0
H2144 H 0.27043 0.13952 0.4725 0.0
H2145 H 0.22827 0.03546 0.44539 0.0
H2146 H 0.22623 0.10904 0.43636 0.0
H2147 H 0.24515 0.07353 0.49462 0.0
C2148 C 0.26433 0.09835 0.50185 0.0
C2149 C 0.27235 0.11664 0.49534 0.0
C2150 C 0.22644 0.09291 0.43842 0.0
C2151 C 0.24411 0.09668 0.47161 0.0
C2152 C 0.22003 0.08054 0.42273 0.0
C2153 C 0.22088 0.05954 0.42467 0.0
C2154 C 0.23375 0.08427 0.45625 0.0
C2155 C 0.22737 0.05152 0.44312 0.0
C2156 C 0.25012 0.08833 0.49008 0.0
C2157 C 0.26432 0.12552 0.47803 0.0
N2158 N 0.23377 0.06388 0.45809 0.0
N2159 N 0.25089 0.11529 0.4665 0.0
H2160 H 0.53214 0.93131 0.73984 0.0
H2161 H 0.63316 0.97108 0.79228 0.0
H2162 H 0.58763 0.89774 0.74125 0.0
H2163 H 0.57677 1.00268 0.79368 0.0
H2164 H 0.61807 0.94607 0.7696 0.0
H2165 H 0.54884 0.95877 0.75758 0.0
C2166 C 0.54773 0.92956 0.74421 0.0
C2167 C 0.5585 0.91217 0.73913 0.0
C2168 C 0.6091 0.95871 0.77451 0.0
C2169 C 0.57791 0.94379 0.75889 0.0
C2170 C 0.61783 0.9731 0.7871 0.0
C2171 C 0.60613 0.98885 0.79459 0.0
C2172 C 0.58854 0.96019 0.76958 0.0
C2173 C 0.58619 0.9907 0.78801 0.0
C2174 C 0.55737 0.94537 0.75406 0.0
C2175 C 0.57883 0.91094 0.74478 0.0
N2176 N 0.57792 0.9764 0.77607 0.0
N2177 N 0.5879 0.92655 0.75431 0.0
H2178 H 0.04577 0.5954 0.81207 0.0
H2179 H 0.13566 0.5801 0.73543 0.0
H2180 H 0.07909 0.64345 0.78445 0.0
H2181 H 0.09956 0.53164 0.75784 0.0
H2182 H 0.12103 0.60253 0.76057 0.0
H2183 H 0.07038 0.57132 0.79921 0.0
C2184 C 0.05847 0.60094 0.80364 0.0
C2185 C 0.06022 0.62144 0.79903 0.0
C2186 C 0.11664 0.58687 0.76044 0.0
C2187 C 0.08835 0.59397 0.78418 0.0
C2188 C 0.12519 0.57408 0.74628 0.0
C2189 C 0.11883 0.55412 0.74482 0.0
C2190 C 0.10124 0.5797 0.7729 0.0
C2191 C 0.10494 0.54695 0.7588 0.0
C2192 C 0.07248 0.58717 0.79623 0.0
C2193 C 0.07693 0.62774 0.78795 0.0
N2194 N 0.09625 0.55985 0.77205 0.0
N2195 N 0.09021 0.61405 0.78074 0.0
H2196 H 0.44533 0.14802 0.74385 0.0
H2197 H 0.4192 0.03322 0.76531 0.0
H2198 H 0.47056 0.09817 0.71106 0.0
H2199 H 0.40113 0.08255 0.80283 0.0
H2200 H 0.43049 0.05731 0.73975 0.0
H2201 H 0.42211 0.12489 0.76021 0.0
C2202 C 0.44583 0.13226 0.7399 0.0
C2203 C 0.46022 0.12498 0.7264 0.0
C2204 C 0.42352 0.06289 0.75332 0.0
C2205 C 0.43375 0.09836 0.74513 0.0
C2206 C 0.41686 0.04914 0.76771 0.0
C2207 C 0.4093 0.05608 0.78602 0.0
C2208 C 0.4226 0.0836 0.75747 0.0
C2209 C 0.4069 0.07679 0.78879 0.0
C2210 C 0.43259 0.11903 0.74927 0.0
C2211 C 0.46014 0.10437 0.72183 0.0
N2212 N 0.41381 0.08986 0.77481 0.0
N2213 N 0.44728 0.09176 0.73134 0.0
H2214 H 0.97148 0.43928 0.81981 0.0
H2215 H 0.89116 0.44949 0.73163 0.0
H2216 H 0.94025 0.38915 0.793 0.0
H2217 H 0.92071 0.5001 0.75875 0.0
H2218 H 0.90407 0.42787 0.75851 0.0
H2219 H 0.94934 0.46225 0.80154 0.0
C2220 C 0.95997 0.43307 0.81011 0.0
C2221 C 0.95799 0.41219 0.8077 0.0
C2222 C 0.90734 0.44379 0.75899 0.0
C2223 C 0.93234 0.43849 0.7869 0.0
C2224 C 0.89974 0.45611 0.7438 0.0
C2225 C 0.90474 0.47651 0.74325 0.0
C2226 C 0.92048 0.4519 0.77346 0.0
C2227 C 0.91632 0.48446 0.75896 0.0
C2228 C 0.94719 0.44622 0.79981 0.0
C2229 C 0.94239 0.40508 0.79534 0.0
N2230 N 0.92415 0.47206 0.77326 0.0
N2231 N 0.93034 0.41819 0.78525 0.0
H2232 H 0.53581 0.09045 0.30966 0.0
H2233 H 0.64024 0.0815 0.25143 0.0
H2234 H 0.57187 0.14033 0.29 0.0
H2235 H 0.59808 0.03268 0.25463 0.0
H2236 H 0.61947 0.10083 0.27465 0.0
H2237 H 0.56202 0.06722 0.29772 0.0
C2238 C 0.54942 0.09648 0.30318 0.0
C2239 C 0.55168 0.11728 0.30059 0.0
C2240 C 0.61489 0.08574 0.27065 0.0
C2241 C 0.58159 0.091 0.28711 0.0
C2242 C 0.62683 0.07469 0.25756 0.0
C2243 C 0.62073 0.05562 0.2511 0.0
C2244 C 0.59651 0.07778 0.27715 0.0
C2245 C 0.60326 0.04735 0.25938 0.0
C2246 C 0.56428 0.08326 0.29632 0.0
C2247 C 0.56947 0.12438 0.29199 0.0
N2248 N 0.59149 0.05865 0.27173 0.0
N2249 N 0.58368 0.11129 0.28551 0.0
H2250 H 0.9113 0.58697 0.31364 0.0
H2251 H 0.97565 0.592 0.2142 0.0
H2252 H 0.90866 0.53859 0.27037 0.0
H2253 H 0.95623 0.64396 0.24764 0.0
H2254 H 0.95399 0.57083 0.2352 0.0
H2255 H 0.93075 0.60649 0.29049 0.0
C2256 C 0.91445 0.58043 0.29915 0.0
C2257 C 0.90774 0.56109 0.29391 0.0
C2258 C 0.9544 0.58688 0.23777 0.0
C2259 C 0.93095 0.58364 0.26721 0.0
C2260 C 0.96684 0.59894 0.22594 0.0
C2261 C 0.96781 0.61976 0.22929 0.0
C2262 C 0.94317 0.59574 0.25319 0.0
C2263 C 0.95585 0.62804 0.24445 0.0
C2264 C 0.92579 0.59168 0.2859 0.0
C2265 C 0.91338 0.55341 0.27507 0.0
N2266 N 0.94419 0.61599 0.25592 0.0
N2267 N 0.92473 0.56472 0.26235 0.0
H2268 H 0.43882 0.8861 0.29216 0.0
H2269 H 0.4142 0.99669 0.25398 0.0
H2270 H 0.4699 0.93863 0.31429 0.0
H2271 H 0.38042 0.94409 0.23729 0.0
H2272 H 0.43194 0.9768 0.27963 0.0
H2273 H 0.41496 0.90783 0.275 0.0
C2274 C 0.4406 0.90218 0.29361 0.0
C2275 C 0.45665 0.91041 0.3046 0.0
C2276 C 0.42036 0.9697 0.27063 0.0
C2277 C 0.42933 0.93558 0.28459 0.0
C2278 C 0.41012 0.98111 0.25617 0.0
C2279 C 0.39606 0.97187 0.24343 0.0
C2280 C 0.41644 0.949 0.27222 0.0
C2281 C 0.3914 0.95162 0.24667 0.0
C2282 C 0.42692 0.91464 0.28373 0.0
C2283 C 0.45812 0.93148 0.30566 0.0
N2284 N 0.40175 0.94079 0.26054 0.0
N2285 N 0.44475 0.94332 0.29564 0.0
H2286 H 0.14689 0.46789 0.27684 0.0
H2287 H 0.03543 0.44045 0.24858 0.0
H2288 H 0.09858 0.49703 0.30866 0.0
H2289 H 0.08523 0.39933 0.24424 0.0
H2290 H 0.0563 0.46268 0.26979 0.0
H2291 H 0.12295 0.44489 0.26197 0.0
C2292 C 0.13121 0.4694 0.2808 0.0
C2293 C 0.12484 0.48417 0.29437 0.0
C2294 C 0.06242 0.44855 0.26457 0.0
C2295 C 0.09708 0.45783 0.27707 0.0
C2296 C 0.05051 0.43583 0.25268 0.0
C2297 C 0.05883 0.41823 0.24458 0.0
C2298 C 0.08267 0.44352 0.26803 0.0
C2299 C 0.07845 0.41292 0.25005 0.0
C2300 C 0.11751 0.45621 0.2723 0.0
C2301 C 0.10414 0.48584 0.2983 0.0
N2302 N 0.0898 0.42565 0.26115 0.0
N2303 N 0.0909 0.47276 0.28966 0.0
H2304 H 0.75148 0.57837 0.88161 0.0
H2305 H 0.80927 0.58687 0.9871 0.0
H2306 H 0.75288 0.5297 0.92425 0.0
H2307 H 0.78903 0.6372 0.95167 0.0
H2308 H 0.79597 0.56393 0.9612 0.0
H2309 H 0.77333 0.59793 0.90373 0.0
C2310 C 0.75674 0.57168 0.89551 0.0
C2311 C 0.75017 0.55253 0.90124 0.0
C2312 C 0.79467 0.58 0.95904 0.0
C2313 C 0.77501 0.57491 0.92682 0.0
C2314 C 0.80232 0.59306 0.97372 0.0
C2315 C 0.80008 0.61392 0.97152 0.0
C2316 C 0.78506 0.58795 0.94194 0.0
C2317 C 0.79082 0.62121 0.95402 0.0
C2318 C 0.76912 0.58287 0.90817 0.0
C2319 C 0.75762 0.54442 0.91929 0.0
N2320 N 0.78365 0.60828 0.93995 0.0
N2321 N 0.76944 0.55579 0.93163 0.0
H2322 H 0.80445 0.43703 0.04874 0.0
H2323 H 0.72948 0.44031 0.14255 0.0
H2324 H 0.78074 0.38433 0.07781 0.0
H2325 H 0.745 0.49256 0.10759 0.0
H2326 H 0.75186 0.42008 0.12174 0.0
H2327 H 0.78656 0.45808 0.07304 0.0
C2328 C 0.79573 0.42989 0.06042 0.0
C2329 C 0.79395 0.40891 0.06119 0.0
C2330 C 0.75044 0.43599 0.11866 0.0
C2331 C 0.77332 0.43284 0.08887 0.0
C2332 C 0.73774 0.44758 0.13063 0.0
C2333 C 0.73523 0.46815 0.12674 0.0
C2334 C 0.76082 0.44502 0.10272 0.0
C2335 C 0.7462 0.4767 0.11091 0.0
C2336 C 0.7854 0.4419 0.07418 0.0
C2337 C 0.78227 0.40045 0.07651 0.0
N2338 N 0.75847 0.46509 0.09946 0.0
N2339 N 0.77235 0.41243 0.08968 0.0
H2340 H 0.59051 0.80696 0.04126 0.0
H2341 H 0.56921 0.7566 0.14777 0.0
H2342 H 0.63554 0.7867 0.08374 0.0
H2343 H 0.528 0.74766 0.09855 0.0
H2344 H 0.58988 0.77787 0.12632 0.0
H2345 H 0.56443 0.79285 0.06319 0.0
C2346 C 0.59502 0.79964 0.05507 0.0
C2347 C 0.61543 0.79841 0.0607 0.0
C2348 C 0.57613 0.77159 0.12025 0.0
C2349 C 0.58563 0.78288 0.08595 0.0
C2350 C 0.56428 0.75968 0.13254 0.0
C2351 C 0.54707 0.75038 0.12481 0.0
C2352 C 0.57086 0.77407 0.09995 0.0
C2353 C 0.5412 0.7547 0.10498 0.0
C2354 C 0.58008 0.79173 0.0676 0.0
C2355 C 0.62017 0.78869 0.07886 0.0
N2356 N 0.55331 0.76602 0.093 0.0
N2357 N 0.60544 0.7815 0.0908 0.0
H2358 H 0.30622 0.5485 0.0882 0.0
H2359 H 0.24443 0.65122 0.07842 0.0
H2360 H 0.28689 0.58494 0.13802 0.0
H2361 H 0.25122 0.60976 0.02925 0.0
H2362 H 0.26752 0.63088 0.09856 0.0
H2363 H 0.29305 0.57406 0.06491 0.0
C2364 C 0.29952 0.56204 0.09421 0.0
C2365 C 0.29742 0.56456 0.11505 0.0
C2366 C 0.26427 0.62634 0.08326 0.0
C2367 C 0.28244 0.59377 0.08862 0.0
C2368 C 0.25119 0.63802 0.07175 0.0
C2369 C 0.24578 0.63202 0.05228 0.0
C2370 C 0.2719 0.60835 0.07533 0.0
C2371 C 0.25505 0.61488 0.04421 0.0
C2372 C 0.29194 0.57655 0.08094 0.0
C2373 C 0.2885 0.58229 0.12208 0.0
N2374 N 0.26742 0.60341 0.05591 0.0
N2375 N 0.28127 0.59613 0.10892 0.0
H2376 H 0.38446 0.23944 0.07802 0.0
H2377 H 0.4764 0.31418 0.09143 0.0
H2378 H 0.42048 0.26058 0.02901 0.0
H2379 H 0.4442 0.28629 0.14004 0.0
H2380 H 0.45058 0.30233 0.06793 0.0
H2381 H 0.39966 0.2648 0.09994 0.0
C2382 C 0.39491 0.25016 0.07171 0.0
C2383 C 0.40118 0.24816 0.05178 0.0
C2384 C 0.449 0.29909 0.08378 0.0
C2385 C 0.41949 0.2764 0.07682 0.0
C2386 C 0.4637 0.3059 0.09722 0.0
C2387 C 0.46262 0.3009 0.11769 0.0
C2388 C 0.43308 0.28725 0.09088 0.0
C2389 C 0.44586 0.29006 0.12433 0.0
C2390 C 0.40384 0.2644 0.08424 0.0
C2391 C 0.41514 0.26194 0.04428 0.0
N2392 N 0.43189 0.28343 0.11095 0.0
N2393 N 0.42421 0.27523 0.05693 0.0
H2394 H 0.29561 0.49493 0.93671 0.0
H2395 H 0.26028 0.38369 0.96543 0.0
H2396 H 0.31009 0.44154 0.90305 0.0
H2397 H 0.23744 0.43624 0.99551 0.0
H2398 H 0.28246 0.4049 0.94572 0.0
H2399 H 0.27772 0.47404 0.96125 0.0
C2400 C 0.29517 0.47882 0.93458 0.0
C2401 C 0.30419 0.46997 0.91771 0.0
C2402 C 0.27272 0.41189 0.95668 0.0
C2403 C 0.28386 0.44605 0.94564 0.0
C2404 C 0.26004 0.39975 0.96794 0.0
C2405 C 0.24678 0.40826 0.98187 0.0
C2406 C 0.27215 0.43281 0.95922 0.0
C2407 C 0.24742 0.42912 0.98487 0.0
C2408 C 0.2849 0.46693 0.94852 0.0
C2409 C 0.30305 0.44905 0.9156 0.0
N2410 N 0.25974 0.44076 0.97344 0.0
N2411 N 0.29307 0.43785 0.92934 0.0
H2412 H 0.60446 0.25064 1.00588 0.0
H2413 H 0.58396 0.29067 0.89651 0.0
H2414 H 0.65052 0.2557 0.96089 0.0
H2415 H 0.54446 0.30594 0.94523 0.0
H2416 H 0.60909 0.27913 0.92078 0.0
H2417 H 0.58282 0.27283 0.98562 0.0
C2418 C 0.6102 0.25688 0.99203 0.0
C2419 C 0.62913 0.25108 0.98481 0.0
C2420 C 0.59507 0.28526 0.92628 0.0
C2421 C 0.60449 0.27598 0.9615 0.0
C2422 C 0.58075 0.29174 0.91241 0.0
C2423 C 0.56222 0.29911 0.91897 0.0
C2424 C 0.59064 0.28567 0.9469 0.0
C2425 C 0.55869 0.30037 0.9397 0.0
C2426 C 0.59784 0.26942 0.98042 0.0
C2427 C 0.63585 0.25946 0.96673 0.0
N2428 N 0.57265 0.29335 0.953 0.0
N2429 N 0.62344 0.2712 0.95555 0.0
H2430 H 0.4404 0.71752 0.89925 0.0
H2431 H 0.42649 0.77847 1.00181 0.0
H2432 H 0.48893 0.73062 0.94056 0.0
H2433 H 0.38426 0.77988 0.95259 0.0
H2434 H 0.44644 0.75336 0.98353 0.0
H2435 H 0.41701 0.73357 0.9223 0.0
C2436 C 0.44621 0.72375 0.91311 0.0
C2437 C 0.46682 0.72293 0.91773 0.0
C2438 C 0.43258 0.75887 0.97692 0.0
C2439 C 0.43992 0.741 0.94444 0.0
C2440 C 0.42113 0.77297 0.98744 0.0
C2441 C 0.40387 0.78121 0.97853 0.0
C2442 C 0.42655 0.75298 0.95752 0.0
C2443 C 0.39761 0.77389 0.95979 0.0
C2444 C 0.43277 0.73277 0.92636 0.0
C2445 C 0.47324 0.7308 0.93629 0.0
N2446 N 0.40904 0.76033 0.94979 0.0
N2447 N 0.45987 0.73963 0.94888 0.0
H2448 H 0.16274 0.05202 0.38416 0.0
H2449 H 0.06001 0.11279 0.3661 0.0
H2450 H 0.10916 0.02312 0.36156 0.0
H2451 H 0.11672 0.13961 0.3822 0.0
H2452 H 0.07706 0.07999 0.36293 0.0
H2453 H 0.14545 0.08414 0.383 0.0
C2454 C 0.14728 0.05236 0.37897 0.0
C2455 C 0.13743 0.03468 0.37301 0.0
C2456 C 0.08577 0.09312 0.36696 0.0
C2457 C 0.11733 0.07188 0.37159 0.0
C2458 C 0.07607 0.11185 0.36858 0.0
C2459 C 0.08695 0.12892 0.37457 0.0
C2460 C 0.10645 0.09155 0.37135 0.0
C2461 C 0.10771 0.1268 0.37783 0.0
C2462 C 0.13739 0.07084 0.37823 0.0
C2463 C 0.11738 0.03631 0.36634 0.0
N2464 N 0.11669 0.10855 0.37633 0.0
N2465 N 0.10796 0.05456 0.36588 0.0
H2466 H 0.9888 0.15301 0.42024 0.0
H2467 H 0.91913 0.06739 0.37167 0.0
H2468 H 0.99797 0.13258 0.35948 0.0
H2469 H 0.90068 0.10709 0.41938 0.0
H2470 H 0.9503 0.08722 0.36826 0.0
H2471 H 0.9594 0.13108 0.42257 0.0
C2472 C 0.98489 0.14362 0.40753 0.0
C2473 C 0.99588 0.14466 0.38965 0.0
C2474 C 0.93934 0.0915 0.37944 0.0
C2475 C 0.962 0.11963 0.39209 0.0
C2476 C 0.92149 0.0803 0.38127 0.0
C2477 C 0.90732 0.08532 0.39606 0.0
C2478 C 0.94307 0.10765 0.39264 0.0
C2479 C 0.91131 0.10223 0.40814 0.0
C2480 C 0.96795 0.13125 0.40877 0.0
C2481 C 0.98989 0.13227 0.37356 0.0
N2482 N 0.92877 0.11256 0.40631 0.0
N2483 N 0.97335 0.12029 0.37512 0.0
H2484 H 0.95782 0.90357 0.40811 0.0
H2485 H 0.89435 0.99316 0.36311 0.0
H2486 H 0.92514 0.90049 0.35196 0.0
H2487 H 0.88603 0.98026 0.42608 0.0
H2488 H 0.91475 0.96306 0.36 0.0
H2489 H 0.93888 0.93444 0.41649 0.0
C2490 C 0.9467 0.90918 0.3976 0.0
C2491 C 0.94355 0.89948 0.37901 0.0
C2492 C 0.90863 0.96688 0.37456 0.0
C2493 C 0.9223 0.93489 0.38838 0.0
C2494 C 0.897 0.98416 0.37643 0.0
C2495 C 0.8882 0.98925 0.39487 0.0
C2496 C 0.91186 0.95446 0.39127 0.0
C2497 C 0.89246 0.9769 0.41156 0.0
C2498 C 0.93595 0.92681 0.40241 0.0
C2499 C 0.92881 0.90759 0.3661 0.0
N2500 N 0.90396 0.95995 0.40937 0.0
N2501 N 0.91907 0.92483 0.37088 0.0
H2502 H 0.11346 0.96441 0.38282 0.0
H2503 H 0.05652 0.85882 0.39321 0.0
H2504 H 0.14463 0.90765 0.38178 0.0
H2505 H 0.02859 0.91136 0.36734 0.0
H2506 H 0.08805 0.87774 0.39671 0.0
H2507 H 0.08133 0.9463 0.38483 0.0
C2508 C 0.11355 0.94815 0.38336 0.0
C2509 C 0.13173 0.93751 0.38206 0.0
C2510 C 0.07494 0.88514 0.39044 0.0
C2511 C 0.09509 0.91671 0.38443 0.0
C2512 C 0.05691 0.87441 0.38856 0.0
C2513 C 0.03989 0.8835 0.3799 0.0
C2514 C 0.07587 0.90523 0.38399 0.0
C2515 C 0.04136 0.90371 0.37398 0.0
C2516 C 0.09523 0.93783 0.38435 0.0
C2517 C 0.13095 0.91642 0.38258 0.0
N2518 N 0.05898 0.91389 0.37616 0.0
N2519 N 0.11298 0.90672 0.38375 0.0
H2520 H 0.13215 0.9946 0.68076 0.0
H2521 H 0.0839 0.90189 0.62035 0.0
H2522 H 0.14535 0.98475 0.61816 0.0
H2523 H 0.08827 0.90665 0.68477 0.0
H2524 H 0.10122 0.93464 0.61737 0.0
H2525 H 0.11023 0.96544 0.68039 0.0
C2526 C 0.13024 0.98643 0.6668 0.0
C2527 C 0.14077 0.9921 0.6495 0.0
C2528 C 0.09827 0.92848 0.63212 0.0
C2529 C 0.11566 0.95817 0.64904 0.0
C2530 C 0.08834 0.90989 0.63382 0.0
C2531 C 0.08486 0.90144 0.65284 0.0
C2532 C 0.10433 0.9388 0.6496 0.0
C2533 C 0.09094 0.91239 0.66982 0.0
C2534 C 0.11774 0.96965 0.66663 0.0
C2535 C 0.1375 0.98094 0.63183 0.0
N2536 N 0.10029 0.93038 0.66779 0.0
N2537 N 0.12537 0.96435 0.63209 0.0
H2538 H 0.12695 0.0971 0.69032 0.0
H2539 H 0.03067 0.13337 0.63076 0.0
H2540 H 0.11165 0.06961 0.63374 0.0
H2541 H 0.03189 0.13064 0.69551 0.0
H2542 H 0.06153 0.11295 0.62995 0.0
H2543 H 0.09362 0.11288 0.6912 0.0
C2544 C 0.11649 0.09437 0.67811 0.0
C2545 C 0.122 0.08204 0.66196 0.0
C2546 C 0.05485 0.11663 0.64429 0.0
C2547 C 0.08396 0.10034 0.66263 0.0
C2548 C 0.03725 0.12828 0.64478 0.0
C2549 C 0.02858 0.13368 0.66323 0.0
C2550 C 0.06414 0.11082 0.66239 0.0
C2551 C 0.03789 0.12675 0.68093 0.0
C2552 C 0.09747 0.10329 0.67864 0.0
C2553 C 0.10787 0.07891 0.64651 0.0
N2554 N 0.05528 0.11598 0.68007 0.0
N2555 N 0.08958 0.08824 0.64706 0.0
H2556 H 0.96099 0.11232 0.66482 0.0
H2557 H 0.85681 0.05374 0.64663 0.0
H2558 H 0.9051 0.1417 0.64974 0.0
H2559 H 0.91015 0.02504 0.67019 0.0
H2560 H 0.87494 0.08565 0.64563 0.0
H2561 H 0.94345 0.0799 0.6646 0.0
C2562 C 0.94509 0.11199 0.66132 0.0
C2563 C 0.93456 0.1299 0.65738 0.0
C2564 C 0.88271 0.07239 0.65102 0.0
C2565 C 0.91428 0.09271 0.65719 0.0
C2566 C 0.87235 0.05409 0.65157 0.0
C2567 C 0.88189 0.03655 0.65855 0.0
C2568 C 0.90289 0.0733 0.65737 0.0
C2569 C 0.90209 0.03811 0.66475 0.0
C2570 C 0.93504 0.09345 0.66133 0.0
C2571 C 0.91386 0.12843 0.65316 0.0
N2572 N 0.91188 0.05608 0.66399 0.0
N2573 N 0.90447 0.11025 0.65316 0.0
H2574 H 1.00205 0.92214 0.6603 0.0
H2575 H 0.8828 0.91022 0.65268 0.0
H2576 H 0.97268 0.86662 0.64426 0.0
H2577 H 0.91141 0.96814 0.65036 0.0
H2578 H 0.91579 0.89408 0.65094 0.0
H2579 H 0.96944 0.9394 0.6582 0.0
C2580 C 0.98881 0.91357 0.65628 0.0
C2581 C 0.99022 0.89282 0.65251 0.0
C2582 C 0.91493 0.91032 0.65063 0.0
C2583 C 0.95274 0.91254 0.65024 0.0
C2584 C 0.89608 0.91954 0.65166 0.0
C2585 C 0.89434 0.94055 0.65166 0.0
C2586 C 0.9324 0.92215 0.64996 0.0
C2587 C 0.91207 0.9519 0.65021 0.0
C2588 C 0.97019 0.92347 0.65503 0.0
C2589 C 0.97246 0.88259 0.64731 0.0
N2590 N 0.93038 0.94257 0.64966 0.0
N2591 N 0.95454 0.89248 0.6465 0.0
H2592 H 0.40159 0.15536 0.04892 0.0
H2593 H 0.36077 0.06344 0.11425 0.0
H2594 H 0.35299 0.11762 0.02842 0.0
H2595 H 0.38888 0.11561 0.14038 0.0
H2596 H 0.36264 0.07944 0.08102 0.0
H2597 H 0.40222 0.13703 0.08066 0.0
C2598 C 0.39121 0.14307 0.05091 0.0
C2599 C 0.37713 0.13819 0.03589 0.0
C2600 C 0.36844 0.08734 0.09403 0.0
C2601 C 0.37784 0.11699 0.07242 0.0
C2602 C 0.36748 0.07819 0.11295 0.0
C2603 C 0.37462 0.08825 0.13012 0.0
C2604 C 0.37697 0.10653 0.09218 0.0
C2605 C 0.38301 0.10742 0.12761 0.0
C2606 C 0.39151 0.13268 0.06916 0.0
C2607 C 0.36405 0.12203 0.03955 0.0
N2608 N 0.38404 0.11588 0.10901 0.0
N2609 N 0.36472 0.11202 0.05742 0.0
H2610 H 0.91744 0.36702 0.03078 0.0
H2611 H 0.91272 0.39555 0.14724 0.0
H2612 H 0.86823 0.4002 0.05673 0.0
H2613 H 0.96751 0.37731 0.11809 0.0
H2614 H 0.8958 0.39629 0.1145 0.0
H2615 H 0.93574 0.36977 0.06267 0.0
C2616 C 0.91052 0.37503 0.04313 0.0
C2617 C 0.89122 0.38338 0.04102 0.0
C2618 C 0.91156 0.39224 0.11522 0.0
C2619 C 0.91207 0.38635 0.07776 0.0
C2620 C 0.9212 0.3917 0.13395 0.0
C2621 C 0.94158 0.38628 0.13547 0.0
C2622 C 0.92224 0.38707 0.0978 0.0
C2623 C 0.95185 0.38171 0.11764 0.0
C2624 C 0.92101 0.3766 0.06134 0.0
C2625 C 0.88308 0.3936 0.05759 0.0
N2626 N 0.94205 0.38202 0.09961 0.0
N2627 N 0.89344 0.39462 0.07527 0.0
H2628 H 0.64999 0.86705 0.06049 0.0
H2629 H 0.66629 0.97141 0.1193 0.0
H2630 H 0.67347 0.92021 0.03197 0.0
H2631 H 0.65303 0.91517 0.14842 0.0
H2632 H 0.66606 0.954 0.0867 0.0
H2633 H 0.64828 0.8854 0.09226 0.0
C2634 C 0.65474 0.8826 0.06084 0.0
C2635 C 0.66195 0.89201 0.04341 0.0
C2636 C 0.66317 0.94549 0.10024 0.0
C2637 C 0.65996 0.91327 0.08001 0.0
C2638 C 0.66318 0.95547 0.11885 0.0
C2639 C 0.65983 0.94477 0.13673 0.0
C2640 C 0.65957 0.92467 0.09942 0.0
C2641 C 0.65603 0.92404 0.13516 0.0
C2642 C 0.65379 0.89309 0.07906 0.0
C2643 C 0.66788 0.91225 0.04497 0.0
N2644 N 0.656 0.91474 0.11694 0.0
N2645 N 0.66674 0.92217 0.06288 0.0
H2646 H 0.08044 0.67486 0.12238 0.0
H2647 H 0.14369 0.62538 0.03299 0.0
H2648 H 0.08881 0.61113 0.11424 0.0
H2649 H 0.12673 0.68796 0.03293 0.0
H2650 H 0.12314 0.62024 0.06279 0.0
H2651 H 0.09657 0.68055 0.0896 0.0
C2652 C 0.0855 0.6621 0.11368 0.0
C2653 C 0.08361 0.64253 0.12133 0.0
C2654 C 0.12373 0.63509 0.0562 0.0
C2655 C 0.10213 0.64886 0.08397 0.0
C2656 C 0.13548 0.63802 0.03911 0.0
C2657 C 0.13697 0.65712 0.03037 0.0
C2658 C 0.11351 0.65142 0.06488 0.0
C2659 C 0.12598 0.67294 0.03909 0.0
C2660 C 0.09475 0.66533 0.09502 0.0
C2661 C 0.09044 0.62652 0.10936 0.0
N2662 N 0.11488 0.66979 0.05596 0.0
N2663 N 0.09947 0.63005 0.09147 0.0
H2664 H 0.34057 0.89941 0.99241 0.0
H2665 H 0.40853 0.95097 0.90868 0.0
H2666 H 0.40436 0.88785 0.99035 0.0
H2667 H 0.34817 0.93063 0.89711 0.0
H2668 H 0.40729 0.93482 0.94209 0.0
H2669 H 0.34316 0.91829 0.96104 0.0
C2670 C 0.35521 0.9011 0.98557 0.0
C2671 C 0.37228 0.89198 0.9941 0.0
C2672 C 0.39433 0.93399 0.93221 0.0
C2673 C 0.3753 0.91376 0.95808 0.0
C2674 C 0.39499 0.94327 0.91327 0.0
C2675 C 0.37844 0.94203 0.90014 0.0
C2676 C 0.37679 0.92395 0.93822 0.0
C2677 C 0.36129 0.93177 0.90672 0.0
C2678 C 0.35662 0.91177 0.96756 0.0
C2679 C 0.3908 0.89459 0.98432 0.0
N2680 N 0.36084 0.92327 0.9253 0.0
N2681 N 0.39184 0.90529 0.96685 0.0
H2682 H 0.07217 0.35325 0.90915 0.0
H2683 H 0.15864 0.39362 0.98257 0.0
H2684 H 0.0978 0.41277 0.90647 0.0
H2685 H 0.1177 0.34742 1.00204 0.0
H2686 H 0.13908 0.3973 0.95168 0.0
H2687 H 0.09063 0.34767 0.94094 0.0
C2688 C 0.08156 0.36513 0.91509 0.0
C2689 C 0.08358 0.38338 0.90461 0.0
C2690 C 0.13433 0.38635 0.96271 0.0
C2691 C 0.10494 0.37695 0.94078 0.0
C2692 C 0.14555 0.3842 0.98037 0.0
C2693 C 0.13978 0.37029 0.99508 0.0
C2694 C 0.11727 0.37432 0.95941 0.0
C2695 C 0.12263 0.35847 0.99122 0.0
C2696 C 0.09212 0.3619 0.93322 0.0
C2697 C 0.09605 0.39818 0.91327 0.0
N2698 N 0.11202 0.36069 0.97373 0.0
N2699 N 0.10626 0.39456 0.93059 0.0
H2700 H 0.69672 0.08696 0.91467 0.0
H2701 H 0.63509 0.1509 0.99432 0.0
H2702 H 0.63211 0.09083 0.9124 0.0
H2703 H 0.69451 0.12766 1.00645 0.0
H2704 H 0.6337 0.13055 0.96365 0.0
H2705 H 0.69645 0.10355 0.94745 0.0
C2706 C 0.68246 0.09134 0.9211 0.0
C2707 C 0.66441 0.08763 0.91074 0.0
C2708 C 0.64694 0.12975 0.97315 0.0
C2709 C 0.66396 0.10675 0.94832 0.0
C2710 C 0.64778 0.14138 0.99066 0.0
C2711 C 0.66497 0.14103 1.00303 0.0
C2712 C 0.66356 0.11794 0.96772 0.0
C2713 C 0.68092 0.1284 0.99746 0.0
C2714 C 0.6823 0.10069 0.93988 0.0
C2715 C 0.64633 0.09335 0.91993 0.0
N2716 N 0.67992 0.11756 0.98013 0.0
N2717 N 0.64657 0.10285 0.93809 0.0
H2718 H 0.91626 0.66754 1.0029 0.0
H2719 H 0.91356 0.63363 0.88818 0.0
H2720 H 0.87095 0.62799 0.9786 0.0
H2721 H 0.96652 0.65891 0.91568 0.0
H2722 H 0.8979 0.63131 0.92125 0.0
H2723 H 0.93507 0.66454 0.9715 0.0
C2724 C 0.91034 0.65807 0.99104 0.0
C2725 C 0.89192 0.64805 0.99343 0.0
C2726 C 0.91303 0.63718 0.92016 0.0
C2727 C 0.91335 0.64475 0.95725 0.0
C2728 C 0.92195 0.63856 0.90125 0.0
C2729 C 0.94134 0.64658 0.89916 0.0
C2730 C 0.92338 0.64418 0.93721 0.0
C2731 C 0.9516 0.65255 0.91665 0.0
C2732 C 0.92113 0.65634 0.97311 0.0
C2733 C 0.88507 0.63596 0.97751 0.0
N2734 N 0.9424 0.65149 0.93491 0.0
N2735 N 0.89565 0.63484 0.96006 0.0
H2736 H 0.12303 0.34002 0.08938 0.0
H2737 H 0.04354 0.40974 0.14499 0.0
H2738 H 0.12758 0.40448 0.08684 0.0
H2739 H 0.03178 0.34831 0.12799 0.0
H2740 H 0.07439 0.40888 0.12481 0.0
H2741 H 0.09 0.34321 0.10483 0.0
C2742 C 0.11702 0.35489 0.0921 0.0
C2743 C 0.12814 0.37201 0.08695 0.0
C2744 C 0.06489 0.39571 0.12532 0.0
C2745 C 0.09014 0.37585 0.10484 0.0
C2746 C 0.04725 0.39617 0.13683 0.0
C2747 C 0.035 0.37903 0.13835 0.0
C2748 C 0.07048 0.37789 0.11545 0.0
C2749 C 0.04066 0.3619 0.12739 0.0
C2750 C 0.09808 0.35672 0.10082 0.0
C2751 C 0.11946 0.39092 0.09056 0.0
N2752 N 0.05802 0.36171 0.11667 0.0
N2753 N 0.10107 0.39236 0.09953 0.0
H2754 H 0.02762 0.67697 0.91034 0.0
H2755 H 0.13835 0.62991 0.91121 0.0
H2756 H 0.04773 0.63212 0.86813 0.0
H2757 H 0.11567 0.66658 0.95947 0.0
H2758 H 0.10517 0.63063 0.89539 0.0
H2759 H 0.05935 0.67328 0.92881 0.0
C2760 C 0.0386 0.6662 0.90504 0.0
C2761 C 0.03493 0.65487 0.88758 0.0
C2762 C 0.10737 0.63845 0.90949 0.0
C2763 C 0.0715 0.65074 0.9086 0.0
C2764 C 0.12639 0.63814 0.9185 0.0
C2765 C 0.12991 0.64832 0.93667 0.0
C2766 C 0.09163 0.64918 0.91855 0.0
C2767 C 0.11365 0.65844 0.94554 0.0
C2768 C 0.05675 0.66412 0.91561 0.0
C2769 C 0.0498 0.64117 0.88149 0.0
N2770 N 0.09529 0.65876 0.93632 0.0
N2771 N 0.06743 0.63963 0.89186 0.0
H2772 H 0.39605 0.13921 0.91417 0.0
H2773 H 0.36069 0.02563 0.91187 0.0
H2774 H 0.37014 0.11127 0.96632 0.0
H2775 H 0.40785 0.04798 0.87371 0.0
H2776 H 0.36235 0.05685 0.93143 0.0
H2777 H 0.39883 0.10619 0.89821 0.0
C2778 C 0.391 0.12607 0.92228 0.0
C2779 C 0.38278 0.12797 0.94156 0.0
C2780 C 0.37251 0.05478 0.91894 0.0
C2781 C 0.3857 0.09007 0.92329 0.0
C2782 C 0.37157 0.03697 0.90774 0.0
C2783 C 0.38416 0.03412 0.89109 0.0
C2784 C 0.38581 0.07007 0.91318 0.0
C2785 C 0.39793 0.0494 0.88646 0.0
C2786 C 0.39268 0.10721 0.91321 0.0
C2787 C 0.37665 0.11041 0.95148 0.0
N2788 N 0.39818 0.06679 0.89724 0.0
N2789 N 0.37796 0.09222 0.94213 0.0
H2790 H 0.98351 0.42618 0.87821 0.0
H2791 H 0.92229 0.37877 0.97047 0.0
H2792 H 0.99985 0.37014 0.90638 0.0
H2793 H 0.89535 0.41648 0.92523 0.0
H2794 H 0.95496 0.38216 0.9534 0.0
H2795 H 0.95537 0.4294 0.90177 0.0
C2796 C 0.98151 0.41483 0.88968 0.0
C2797 C 0.994 0.39784 0.8903 0.0
C2798 C 0.94196 0.39001 0.94746 0.0
C2799 C 0.96186 0.40141 0.91726 0.0
C2800 C 0.92343 0.38822 0.95728 0.0
C2801 C 0.90621 0.39738 0.9492 0.0
C2802 C 0.94327 0.40133 0.92965 0.0
C2803 C 0.90833 0.4092 0.93187 0.0
C2804 C 0.96536 0.41659 0.90301 0.0
C2805 C 0.99052 0.38344 0.90532 0.0
N2806 N 0.92646 0.4108 0.92265 0.0
N2807 N 0.97475 0.3855 0.91814 0.0
H2808 H 0.65175 0.891 0.91804 0.0
H2809 H 0.67471 1.00715 0.92213 0.0
H2810 H 0.65997 0.92042 0.97507 0.0
H2811 H 0.6341 0.98244 0.87791 0.0
H2812 H 0.67313 0.97529 0.94083 0.0
H2813 H 0.64879 0.924 0.90173 0.0
C2814 C 0.65274 0.90447 0.92711 0.0
C2815 C 0.65594 0.90305 0.94791 0.0
C2816 C 0.66442 0.97698 0.92714 0.0
C2817 C 0.65317 0.94082 0.92935 0.0
C2818 C 0.66535 0.99511 0.91644 0.0
C2819 C 0.65448 0.99753 0.89845 0.0
C2820 C 0.653 0.96094 0.91949 0.0
C2821 C 0.64262 0.98136 0.89177 0.0
C2822 C 0.65103 0.92325 0.91785 0.0
C2823 C 0.65725 0.92094 0.95903 0.0
N2824 N 0.64244 0.9637 0.9021 0.0
N2825 N 0.65617 0.93911 0.94958 0.0
H2826 H 0.98488 0.60457 0.15513 0.0
H2827 H 0.92337 0.65317 0.06299 0.0
H2828 H 1.00359 0.65891 0.12545 0.0
H2829 H 0.89534 0.62001 0.11072 0.0
H2830 H 0.95624 0.64847 0.07975 0.0
H2831 H 0.95539 0.60314 0.13277 0.0
C2832 C 0.98306 0.6159 0.14358 0.0
C2833 C 0.99668 0.6319 0.14217 0.0
C2834 C 0.94291 0.64195 0.08635 0.0
C2835 C 0.96304 0.63034 0.11656 0.0
C2836 C 0.92426 0.6445 0.07673 0.0
C2837 C 0.90671 0.63699 0.08555 0.0
C2838 C 0.94401 0.63146 0.10469 0.0
C2839 C 0.90855 0.62609 0.10353 0.0
C2840 C 0.96616 0.61517 0.13095 0.0
C2841 C 0.99342 0.64635 0.12709 0.0
N2842 N 0.92682 0.62365 0.1125 0.0
N2843 N 0.97693 0.64526 0.11491 0.0
H2844 H 0.39945 0.9934 0.13677 0.0
H2845 H 0.34246 0.89699 0.09856 0.0
H2846 H 0.33502 0.99237 0.12915 0.0
H2847 H 0.40105 0.91087 0.07525 0.0
H2848 H 0.34058 0.9307 0.1132 0.0
H2849 H 0.40176 0.96226 0.11701 0.0
C2850 C 0.38583 0.9868 0.13072 0.0
C2851 C 0.367 0.99554 0.13462 0.0
C2852 C 0.35381 0.92645 0.10478 0.0
C2853 C 0.36955 0.95975 0.1125 0.0
C2854 C 0.35492 0.90722 0.09656 0.0
C2855 C 0.37194 0.90121 0.08576 0.0
C2856 C 0.37006 0.9397 0.10267 0.0
C2857 C 0.38766 0.91504 0.08342 0.0
C2858 C 0.38718 0.96907 0.11945 0.0
C2859 C 0.34986 0.98627 0.12646 0.0
N2860 N 0.38649 0.9336 0.09207 0.0
N2861 N 0.35152 0.96875 0.11609 0.0
H2862 H 0.69423 0.13131 0.0984 0.0
H2863 H 0.6308 0.04316 0.14699 0.0
H2864 H 0.63064 0.12633 0.08726 0.0
H2865 H 0.69453 0.03887 0.13602 0.0
H2866 H 0.62963 0.07377 0.1264 0.0
H2867 H 0.69412 0.09793 0.11365 0.0
C2868 C 0.68023 0.12307 0.09913 0.0
C2869 C 0.66241 0.13158 0.09166 0.0
C2870 C 0.64379 0.06595 0.12831 0.0
C2871 C 0.66205 0.09333 0.10937 0.0
C2872 C 0.6445 0.04848 0.14008 0.0
C2873 C 0.66282 0.03839 0.14337 0.0
C2874 C 0.66159 0.07361 0.12003 0.0
C2875 C 0.68005 0.04605 0.13398 0.0
C2876 C 0.68017 0.10398 0.10775 0.0
C2877 C 0.64469 0.12022 0.09281 0.0
N2878 N 0.67905 0.06327 0.12301 0.0
N2879 N 0.64488 0.10175 0.10177 0.0
H2880 H 0.59147 0.61492 0.91841 0.0
H2881 H 0.63229 0.5361 0.83719 0.0
H2882 H 0.58435 0.62472 0.85475 0.0
H2883 H 0.64806 0.53582 0.90016 0.0
H2884 H 0.61101 0.56575 0.843 0.0
H2885 H 0.60814 0.58321 0.91162 0.0
C2886 C 0.59348 0.61043 0.90293 0.0
C2887 C 0.58686 0.6228 0.88711 0.0
C2888 C 0.61903 0.55908 0.85553 0.0
C2889 C 0.60598 0.58599 0.87915 0.0
C2890 C 0.6311 0.54209 0.85227 0.0
C2891 C 0.64204 0.53341 0.86821 0.0
C2892 C 0.61772 0.56734 0.87491 0.0
C2893 C 0.64 0.54195 0.88738 0.0
C2894 C 0.60296 0.59219 0.89905 0.0
C2895 C 0.58931 0.61572 0.86737 0.0
N2896 N 0.62816 0.55837 0.89015 0.0
N2897 N 0.59885 0.59784 0.86392 0.0
H2898 H 0.43003 0.55926 0.87936 0.0
H2899 H 0.48577 0.65545 0.92599 0.0
H2900 H 0.39779 0.60934 0.90432 0.0
H2901 H 0.50842 0.62379 0.87433 0.0
H2902 H 0.45649 0.6329 0.92629 0.0
H2903 H 0.46193 0.57723 0.88546 0.0
C2904 C 0.42979 0.57382 0.8866 0.0
C2905 C 0.41142 0.58285 0.89151 0.0
C2906 C 0.46809 0.63068 0.91515 0.0
C2907 C 0.44756 0.60339 0.89858 0.0
C2908 C 0.48488 0.64339 0.91509 0.0
C2909 C 0.49957 0.64142 0.90016 0.0
C2910 C 0.4662 0.61563 0.90043 0.0
C2911 C 0.49743 0.62579 0.88612 0.0
C2912 C 0.44788 0.58411 0.88993 0.0
C2913 C 0.41174 0.60192 0.90048 0.0
N2914 N 0.48109 0.61351 0.88659 0.0
N2915 N 0.42951 0.61155 0.90378 0.0
H2916 H 0.39491 0.49267 0.85301 0.0
H2917 H 0.45648 0.40652 0.9111 0.0
H2918 H 0.39319 0.48771 0.9176 0.0
H2919 H 0.43871 0.40428 0.84886 0.0
H2920 H 0.43941 0.43946 0.91419 0.0
H2921 H 0.41745 0.46395 0.85174 0.0
C2922 C 0.39943 0.48567 0.86701 0.0
C2923 C 0.39192 0.49256 0.88544 0.0
C2924 C 0.43945 0.43179 0.89984 0.0
C2925 C 0.41786 0.45924 0.88405 0.0
C2926 C 0.44928 0.41314 0.89806 0.0
C2927 C 0.4489 0.40272 0.87971 0.0
C2928 C 0.42957 0.44012 0.88303 0.0
C2929 C 0.43921 0.41177 0.86329 0.0
C2930 C 0.4123 0.46916 0.86625 0.0
C2931 C 0.39855 0.48287 0.90306 0.0
N2932 N 0.43 0.42986 0.86533 0.0
N2933 N 0.41104 0.46657 0.90194 0.0
H2934 H 0.55343 0.36946 0.90286 0.0
H2935 H 0.61779 0.46368 0.86359 0.0
H2936 H 0.53208 0.41041 0.85723 0.0
H2937 H 0.64218 0.41567 0.89972 0.0
H2938 H 0.58467 0.44733 0.86485 0.0
H2939 H 0.58436 0.38917 0.90566 0.0
C2940 C 0.5551 0.38273 0.8936 0.0
C2941 C 0.5401 0.38819 0.87971 0.0
C2942 C 0.59727 0.44045 0.87259 0.0
C2943 C 0.57565 0.41085 0.88278 0.0
C2944 C 0.61613 0.44985 0.87197 0.0
C2945 C 0.63285 0.44094 0.88137 0.0
C2946 C 0.59505 0.42212 0.88289 0.0
C2947 C 0.62983 0.42291 0.89194 0.0
C2948 C 0.57284 0.39394 0.89514 0.0
C2949 C 0.54324 0.40553 0.86807 0.0
N2950 N 0.6114 0.41412 0.89237 0.0
N2951 N 0.56065 0.41617 0.86981 0.0
H2952 H 0.56042 0.41678 0.15732 0.0
H2953 H 0.65196 0.47764 0.10847 0.0
H2954 H 0.60702 0.38847 0.12269 0.0
H2955 H 0.62432 0.49542 0.16417 0.0
H2956 H 0.62953 0.44838 0.10708 0.0
H2957 H 0.5778 0.44926 0.15347 0.0
C2958 C 0.57406 0.41754 0.14855 0.0
C2959 C 0.58238 0.40001 0.14036 0.0
C2960 C 0.62821 0.45887 0.11945 0.0
C2961 C 0.60219 0.43687 0.13578 0.0
C2962 C 0.64091 0.47562 0.12018 0.0
C2963 C 0.64006 0.48892 0.13651 0.0
C2964 C 0.61431 0.45561 0.13494 0.0
C2965 C 0.62556 0.48546 0.15138 0.0
C2966 C 0.58403 0.43596 0.14648 0.0
C2967 C 0.60022 0.40167 0.12932 0.0
N2968 N 0.61327 0.46915 0.15026 0.0
N2969 N 0.60953 0.41974 0.12734 0.0
H2970 H 0.6082 0.56228 0.16914 0.0
H2971 H 0.54133 0.65568 0.13269 0.0
H2972 H 0.62839 0.60887 0.12911 0.0
H2973 H 0.5259 0.6222 0.18594 0.0
H2974 H 0.57178 0.63571 0.12952 0.0
H2975 H 0.57711 0.58177 0.175 0.0
C2976 C 0.60625 0.57668 0.16184 0.0
C2977 C 0.62082 0.58382 0.1484 0.0
C2978 C 0.56177 0.63266 0.14193 0.0
C2979 C 0.58528 0.60588 0.15464 0.0
C2980 C 0.54424 0.64404 0.14369 0.0
C2981 C 0.53097 0.64079 0.15969 0.0
C2982 C 0.56621 0.61765 0.15614 0.0
C2983 C 0.53568 0.62531 0.17338 0.0
C2984 C 0.58846 0.58772 0.16505 0.0
C2985 C 0.61742 0.60254 0.13923 0.0
N2986 N 0.55291 0.61431 0.17131 0.0
N2987 N 0.60005 0.61274 0.14236 0.0
H2988 H 0.46491 0.61591 0.15969 0.0
H2989 H 0.36498 0.55493 0.12988 0.0
H2990 H 0.4091 0.64442 0.14296 0.0
H2991 H 0.41271 0.52925 0.16574 0.0
H2992 H 0.38363 0.58662 0.12861 0.0
H2993 H 0.44857 0.58294 0.15618 0.0
C2994 C 0.44931 0.61522 0.15504 0.0
C2995 C 0.43832 0.63296 0.15176 0.0
C2996 C 0.3901 0.57399 0.1366 0.0
C2997 C 0.41955 0.59533 0.14762 0.0
C2998 C 0.37953 0.55581 0.1372 0.0
C2999 C 0.38724 0.53934 0.14798 0.0
C3000 C 0.40868 0.57572 0.14662 0.0
C3001 C 0.40612 0.54154 0.15733 0.0
C3002 C 0.43996 0.59643 0.15317 0.0
C3003 C 0.41807 0.63117 0.14591 0.0
N3004 N 0.41616 0.55935 0.15645 0.0
N3005 N 0.40937 0.61276 0.14401 0.0
H3006 H 0.47573 0.36913 0.12748 0.0
H3007 H 0.41499 0.46967 0.15573 0.0
H3008 H 0.49835 0.41311 0.16947 0.0
H3009 H 0.38768 0.41715 0.12957 0.0
H3010 H 0.44775 0.45228 0.15541 0.0
H3011 H 0.44552 0.38964 0.12274 0.0
C3012 C 0.47449 0.38321 0.13553 0.0
C3013 C 0.48963 0.3893 0.14899 0.0
C3014 C 0.4346 0.44467 0.14955 0.0
C3015 C 0.45493 0.41296 0.14359 0.0
C3016 C 0.41598 0.45464 0.14957 0.0
C3017 C 0.3986 0.44479 0.14276 0.0
C3018 C 0.43587 0.42481 0.14238 0.0
C3019 C 0.40067 0.42521 0.13514 0.0
C3020 C 0.45716 0.39489 0.13288 0.0
C3021 C 0.48705 0.40772 0.15904 0.0
N3022 N 0.41888 0.41589 0.13518 0.0
N3023 N 0.47004 0.41885 0.15618 0.0
H3024 H 0.88719 0.66406 0.54661 0.0
H3025 H 0.87222 0.56093 0.60757 0.0
H3026 H 0.864 0.61 0.51928 0.0
H3027 H 0.88835 0.6174 0.63492 0.0
H3028 H 0.8722 0.57746 0.57451 0.0
H3029 H 0.89064 0.64611 0.57844 0.0
C3030 C 0.88292 0.64838 0.54723 0.0
C3031 C 0.8752 0.63861 0.53015 0.0
C3032 C 0.8758 0.58619 0.58777 0.0
C3033 C 0.8791 0.61785 0.56681 0.0
C3034 C 0.87594 0.57673 0.60662 0.0
C3035 C 0.88009 0.58781 0.62412 0.0
C3036 C 0.88003 0.60686 0.58637 0.0
C3037 C 0.88468 0.6083 0.62196 0.0
C3038 C 0.88486 0.63812 0.56548 0.0
C3039 C 0.86994 0.61823 0.53201 0.0
N3040 N 0.88448 0.61712 0.60353 0.0
N3041 N 0.87193 0.60856 0.54998 0.0
H3042 H 0.37607 0.90852 0.54972 0.0
H3043 H 0.46988 0.86563 0.61294 0.0
H3044 H 0.41336 0.86004 0.52823 0.0
H3045 H 0.42038 0.8979 0.63922 0.0
H3046 H 0.45327 0.86824 0.57986 0.0
H3047 H 0.39621 0.90972 0.5805 0.0
C3048 C 0.3886 0.89824 0.55132 0.0
C3049 C 0.39278 0.88396 0.53635 0.0
C3050 C 0.44613 0.87485 0.59287 0.0
C3051 C 0.41611 0.8854 0.57173 0.0
C3052 C 0.45566 0.87347 0.6117 0.0
C3053 C 0.44643 0.88142 0.62889 0.0
C3054 C 0.42741 0.88458 0.59117 0.0
C3055 C 0.4279 0.89131 0.62644 0.0
C3056 C 0.40008 0.89891 0.56899 0.0
C3057 C 0.40943 0.87121 0.53937 0.0
N3058 N 0.41905 0.89262 0.60801 0.0
N3059 N 0.42041 0.87217 0.55671 0.0
H3060 H 0.14446 0.41514 0.63958 0.0
H3061 H 0.16944 0.42217 0.52227 0.0
H3062 H 0.16295 0.47051 0.61173 0.0
H3063 H 0.13789 0.37263 0.54945 0.0
H3064 H 0.16858 0.43993 0.5546 0.0
H3065 H 0.14343 0.39916 0.60664 0.0
C3066 C 0.14838 0.42395 0.62651 0.0
C3067 C 0.15396 0.4442 0.6285 0.0
C3068 C 0.16176 0.42522 0.55342 0.0
C3069 C 0.15277 0.42586 0.59042 0.0
C3070 C 0.16227 0.41503 0.53497 0.0
C3071 C 0.15372 0.39581 0.53303 0.0
C3072 C 0.15284 0.41606 0.57019 0.0
C3073 C 0.14461 0.3874 0.55008 0.0
C3074 C 0.14767 0.41482 0.60763 0.0
C3075 C 0.1585 0.45491 0.61089 0.0
N3076 N 0.14454 0.39749 0.56787 0.0
N3077 N 0.15798 0.44558 0.59261 0.0
H3078 H 0.62278 0.19015 0.53433 0.0
H3079 H 0.58401 0.1137 0.61859 0.0
H3080 H 0.63824 0.12724 0.53686 0.0
H3081 H 0.57787 0.17787 0.62498 0.0
H3082 H 0.60009 0.11859 0.58633 0.0
H3083 H 0.60281 0.18606 0.56499 0.0
C3084 C 0.62181 0.17542 0.54116 0.0
C3085 C 0.63226 0.159 0.53292 0.0
C3086 C 0.59527 0.13167 0.5947 0.0
C3087 C 0.6094 0.15427 0.56809 0.0
C3088 C 0.58613 0.12891 0.61328 0.0
C3089 C 0.57992 0.14544 0.62486 0.0
C3090 C 0.5983 0.15115 0.58731 0.0
C3091 C 0.58248 0.16471 0.61665 0.0
C3092 C 0.61047 0.17315 0.55874 0.0
C3093 C 0.63051 0.14034 0.54259 0.0
N3094 N 0.59162 0.16707 0.59843 0.0
N3095 N 0.61937 0.13853 0.55958 0.0
H3096 H 0.86468 0.46273 0.41258 0.0
H3097 H 0.90017 0.36796 0.47848 0.0
H3098 H 0.89571 0.41167 0.38767 0.0
H3099 H 0.85417 0.40929 0.49791 0.0
H3100 H 0.90277 0.38655 0.44688 0.0
H3101 H 0.86467 0.44606 0.44548 0.0
C3102 C 0.87166 0.4481 0.41405 0.0
C3103 C 0.88015 0.43859 0.39724 0.0
C3104 C 0.89218 0.39161 0.4581 0.0
C3105 C 0.88024 0.41939 0.43498 0.0
C3106 C 0.89073 0.38104 0.47624 0.0
C3107 C 0.87679 0.3869 0.49095 0.0
C3108 C 0.87983 0.40842 0.45461 0.0
C3109 C 0.86506 0.40409 0.48705 0.0
C3110 C 0.87154 0.43854 0.43283 0.0
C3111 C 0.88878 0.4195 0.40009 0.0
N3112 N 0.86683 0.41419 0.46931 0.0
N3113 N 0.88865 0.41059 0.41853 0.0
H3114 H 0.64443 0.90297 0.49316 0.0
H3115 H 0.57411 0.85578 0.40775 0.0
H3116 H 0.62453 0.84138 0.49569 0.0
H3117 H 0.58107 0.91938 0.41798 0.0
H3118 H 0.59273 0.84933 0.43925 0.0
H3119 H 0.62193 0.90864 0.46463 0.0
C3120 C 0.6352 0.89067 0.48783 0.0
C3121 C 0.63636 0.8717 0.49692 0.0
C3122 C 0.59004 0.86468 0.43457 0.0
C3123 C 0.61066 0.87799 0.4639 0.0
C3124 C 0.57937 0.86835 0.41664 0.0
C3125 C 0.57635 0.88813 0.40991 0.0
C3126 C 0.59777 0.88092 0.44574 0.0
C3127 C 0.58352 0.90386 0.42211 0.0
C3128 C 0.62232 0.89391 0.47151 0.0
C3129 C 0.62403 0.8563 0.48926 0.0
N3130 N 0.59398 0.89992 0.43921 0.0
N3131 N 0.61184 0.85972 0.47307 0.0
H3132 H 0.13145 0.65499 0.49049 0.0
H3133 H 0.19513 0.58701 0.41551 0.0
H3134 H 0.18951 0.6298 0.50509 0.0
H3135 H 0.13191 0.5973 0.40618 0.0
H3136 H 0.19281 0.60273 0.44857 0.0
H3137 H 0.13052 0.63425 0.45996 0.0
C3138 C 0.14389 0.64496 0.48745 0.0
C3139 C 0.16065 0.64428 0.50042 0.0
C3140 C 0.17933 0.60143 0.43949 0.0
C3141 C 0.15973 0.62064 0.46535 0.0
C3142 C 0.18069 0.59247 0.4206 0.0
C3143 C 0.16371 0.59091 0.40816 0.0
C3144 C 0.16088 0.60933 0.44598 0.0
C3145 C 0.1453 0.59815 0.41543 0.0
C3146 C 0.14333 0.63311 0.47 0.0
C3147 C 0.1763 0.63096 0.49561 0.0
N3148 N 0.1444 0.60732 0.43379 0.0
N3149 N 0.17553 0.61989 0.47845 0.0
H3150 H 0.45925 0.16264 0.41584 0.0
H3151 H 0.36587 0.12841 0.48352 0.0
H3152 H 0.40597 0.1341 0.39249 0.0
H3153 H 0.40823 0.17317 0.50367 0.0
H3154 H 0.38378 0.12602 0.4518 0.0
H3155 H 0.44416 0.16236 0.44964 0.0
C3156 C 0.44452 0.15609 0.41788 0.0
C3157 C 0.43381 0.14847 0.4013 0.0
C3158 C 0.38926 0.13631 0.46317 0.0
C3159 C 0.41649 0.14805 0.43982 0.0
C3160 C 0.37906 0.13762 0.48143 0.0
C3161 C 0.38543 0.15106 0.49644 0.0
C3162 C 0.40619 0.14838 0.45974 0.0
C3163 C 0.40267 0.16265 0.49256 0.0
C3164 C 0.43585 0.15607 0.43711 0.0
C3165 C 0.41467 0.14033 0.40477 0.0
N3166 N 0.41243 0.16106 0.47462 0.0
N3167 N 0.40669 0.14031 0.42355 0.0
H3168 H 0.53392 0.84582 0.61825 0.0
H3169 H 0.64415 0.89051 0.61581 0.0
H3170 H 0.55127 0.89719 0.65389 0.0
H3171 H 0.61841 0.86163 0.5638 0.0
H3172 H 0.61093 0.89064 0.63164 0.0
H3173 H 0.56524 0.84911 0.59921 0.0
C3174 C 0.54417 0.85789 0.62197 0.0
C3175 C 0.53995 0.87112 0.63786 0.0
C3176 C 0.61251 0.88441 0.61669 0.0
C3177 C 0.576 0.87469 0.61637 0.0
C3178 C 0.63147 0.88425 0.60773 0.0
C3179 C 0.634 0.87606 0.58848 0.0
C3180 C 0.59602 0.87589 0.60656 0.0
C3181 C 0.61703 0.86823 0.57859 0.0
C3182 C 0.56205 0.85975 0.61109 0.0
C3183 C 0.55387 0.88651 0.64191 0.0
N3184 N 0.5988 0.8681 0.58783 0.0
N3185 N 0.57135 0.88767 0.63147 0.0
H3186 H 0.62881 0.1307 0.41426 0.0
H3187 H 0.51878 0.17832 0.40978 0.0
H3188 H 0.60528 0.16696 0.46234 0.0
H3189 H 0.53882 0.13091 0.37043 0.0
H3190 H 0.54982 0.17457 0.42946 0.0
H3191 H 0.59572 0.13069 0.39826 0.0
C3192 C 0.61659 0.13859 0.4215 0.0
C3193 C 0.61984 0.14896 0.43959 0.0
C3194 C 0.54732 0.16487 0.41664 0.0
C3195 C 0.58173 0.14918 0.42121 0.0
C3196 C 0.52959 0.167 0.40536 0.0
C3197 C 0.52613 0.15496 0.38833 0.0
C3198 C 0.56186 0.15074 0.41075 0.0
C3199 C 0.54074 0.14054 0.3834 0.0
C3200 C 0.59765 0.13853 0.41239 0.0
C3201 C 0.60338 0.15873 0.44844 0.0
N3202 N 0.55798 0.13898 0.39442 0.0
N3203 N 0.58508 0.15882 0.43904 0.0
H3204 H 0.9009 0.62669 0.4388 0.0
H3205 H 0.83816 0.52971 0.40387 0.0
H3206 H 0.83624 0.62319 0.43777 0.0
H3207 H 0.89983 0.53923 0.38649 0.0
H3208 H 0.83907 0.56122 0.42264 0.0
H3209 H 0.90244 0.59217 0.42531 0.0
C3210 C 0.88709 0.61861 0.43584 0.0
C3211 C 0.86843 0.62789 0.43908 0.0
C3212 C 0.85248 0.55632 0.41488 0.0
C3213 C 0.87001 0.58852 0.42405 0.0
C3214 C 0.85202 0.53822 0.40426 0.0
C3215 C 0.86889 0.53181 0.39342 0.0
C3216 C 0.86997 0.56814 0.41483 0.0
C3217 C 0.88641 0.54361 0.39452 0.0
C3218 C 0.88795 0.599 0.42812 0.0
C3219 C 0.85093 0.61678 0.43508 0.0
N3220 N 0.88646 0.56125 0.4049 0.0
N3221 N 0.85216 0.59776 0.42782 0.0
H3222 H 0.41367 0.88213 0.46725 0.0
H3223 H 0.47445 0.92604 0.37324 0.0
H3224 H 0.38474 0.91229 0.41765 0.0
H3225 H 0.49394 0.87368 0.40612 0.0
H3226 H 0.44447 0.92787 0.39463 0.0
H3227 H 0.44614 0.88555 0.44999 0.0
C3228 C 0.41423 0.88976 0.45289 0.0
C3229 C 0.3965 0.89683 0.4438 0.0
C3230 C 0.45549 0.91619 0.39734 0.0
C3231 C 0.43349 0.90096 0.4241 0.0
C3232 C 0.47268 0.91525 0.38528 0.0
C3233 C 0.48671 0.89969 0.38794 0.0
C3234 C 0.4525 0.9017 0.41239 0.0
C3235 C 0.48348 0.88589 0.40356 0.0
C3236 C 0.43269 0.89159 0.44301 0.0
C3237 C 0.39802 0.90644 0.42507 0.0
N3238 N 0.46674 0.8872 0.41518 0.0
N3239 N 0.41616 0.90825 0.41586 0.0
H3240 H 0.15329 0.41932 0.46543 0.0
H3241 H 0.16432 0.48114 0.36331 0.0
H3242 H 0.17336 0.39172 0.41049 0.0
H3243 H 0.16904 0.50909 0.42164 0.0
H3244 H 0.16314 0.44818 0.37965 0.0
H3245 H 0.15434 0.45223 0.44895 0.0
C3246 C 0.15776 0.42017 0.44984 0.0
C3247 C 0.16319 0.40272 0.4393 0.0
C3248 C 0.16446 0.46153 0.38885 0.0
C3249 C 0.1644 0.44038 0.4203 0.0
C3250 C 0.16505 0.48038 0.37956 0.0
C3251 C 0.16681 0.49798 0.39112 0.0
C3252 C 0.16525 0.4602 0.4099 0.0
C3253 C 0.16777 0.49597 0.41212 0.0
C3254 C 0.1585 0.43897 0.44049 0.0
C3255 C 0.16916 0.40478 0.41919 0.0
N3256 N 0.16683 0.47747 0.42083 0.0
N3257 N 0.16947 0.42323 0.4103 0.0
H3258 H 0.39703 0.11668 0.59548 0.0
H3259 H 0.50123 0.16695 0.63027 0.0
H3260 H 0.41588 0.17691 0.58157 0.0
H3261 H 0.48048 0.11102 0.65528 0.0
H3262 H 0.47252 0.16722 0.60749 0.0
H3263 H 0.42946 0.11105 0.61295 0.0
C3264 C 0.40811 0.12857 0.59586 0.0
C3265 C 0.40372 0.14736 0.58726 0.0
C3266 C 0.47424 0.15473 0.61777 0.0
C3267 C 0.44068 0.14109 0.60702 0.0
C3268 C 0.49075 0.15452 0.63076 0.0
C3269 C 0.49324 0.139 0.64479 0.0
C3270 C 0.4598 0.13939 0.61882 0.0
C3271 C 0.47918 0.12324 0.64462 0.0
C3272 C 0.42652 0.12542 0.60589 0.0
C3273 C 0.41851 0.16232 0.58824 0.0
N3274 N 0.46289 0.12396 0.63202 0.0
N3275 N 0.43619 0.15888 0.59794 0.0
H3276 H 0.90729 0.48225 0.65023 0.0
H3277 H 0.8684 0.41322 0.55936 0.0
H3278 H 0.85534 0.49815 0.61458 0.0
H3279 H 0.9005 0.39015 0.61078 0.0
H3280 H 0.86878 0.4469 0.57482 0.0
H3281 H 0.91036 0.45107 0.63118 0.0
C3282 C 0.89666 0.47938 0.63825 0.0
C3283 C 0.88092 0.49292 0.6342 0.0
C3284 C 0.87589 0.43448 0.5826 0.0
C3285 C 0.88447 0.45702 0.61211 0.0
C3286 C 0.87581 0.41533 0.57373 0.0
C3287 C 0.88438 0.39888 0.58385 0.0
C3288 C 0.88499 0.43725 0.60153 0.0
C3289 C 0.89359 0.40239 0.60256 0.0
C3290 C 0.89838 0.46146 0.62741 0.0
C3291 C 0.86764 0.48817 0.61837 0.0
N3292 N 0.89369 0.42113 0.61074 0.0
N3293 N 0.86969 0.47064 0.60793 0.0
H3294 H 0.12431 0.53979 0.6379 0.0
H3295 H 0.18188 0.6392 0.60917 0.0
H3296 H 0.18904 0.54344 0.63908 0.0
H3297 H 0.12775 0.62333 0.57727 0.0
H3298 H 0.18295 0.60546 0.62389 0.0
H3299 H 0.12322 0.57146 0.61879 0.0
C3300 C 0.13828 0.5471 0.63398 0.0
C3301 C 0.1568 0.53887 0.64009 0.0
C3302 C 0.17088 0.60928 0.61358 0.0
C3303 C 0.1556 0.57527 0.61871 0.0
C3304 C 0.17024 0.62852 0.60527 0.0
C3305 C 0.15473 0.63398 0.59201 0.0
C3306 C 0.1556 0.59545 0.60905 0.0
C3307 C 0.14001 0.61959 0.58735 0.0
C3308 C 0.13763 0.56513 0.62306 0.0
C3309 C 0.17442 0.54909 0.63463 0.0
N3310 N 0.14063 0.60102 0.59609 0.0
N3311 N 0.17336 0.56683 0.62454 0.0
H3312 H 0.06361 0.2576 0.31232 0.0
H3313 H 0.99759 0.28806 0.21774 0.0
H3314 H 0.02046 0.2172 0.28578 0.0
H3315 H 0.0523 0.3188 0.23407 0.0
H3316 H 1.00625 0.26122 0.24147 0.0
H3317 H 0.06056 0.27948 0.28293 0.0
C3318 C 0.05373 0.2532 0.30011 0.0
C3319 C 0.04225 0.2356 0.30146 0.0
C3320 C 0.01652 0.27367 0.23962 0.0
C3321 C 0.03833 0.26077 0.26792 0.0
C3322 C 0.01157 0.28901 0.22611 0.0
C3323 C 0.0242 0.30576 0.22396 0.0
C3324 C 0.03407 0.27522 0.25135 0.0
C3325 C 0.04218 0.30613 0.2351 0.0
C3326 C 0.05198 0.26568 0.28333 0.0
C3327 C 0.02966 0.23059 0.28525 0.0
N3328 N 0.04642 0.29128 0.24851 0.0
N3329 N 0.02778 0.24327 0.26928 0.0
H3330 H 0.71589 0.05562 0.2458 0.0
H3331 H 0.81964 0.02483 0.29987 0.0
H3332 H 0.75035 1.00314 0.22981 0.0
H3333 H 0.77763 0.06749 0.32453 0.0
H3334 H 0.79772 0.02102 0.27039 0.0
H3335 H 0.7416 0.06431 0.27079 0.0
C3336 C 0.72904 0.04612 0.24725 0.0
C3337 C 0.73087 0.02856 0.23568 0.0
C3338 C 0.79341 0.03139 0.28214 0.0
C3339 C 0.76036 0.03835 0.26451 0.0
C3340 C 0.80603 0.03372 0.2989 0.0
C3341 C 0.80047 0.04647 0.31477 0.0
C3342 C 0.77514 0.04199 0.28109 0.0
C3343 C 0.78245 0.05736 0.31276 0.0
C3344 C 0.74364 0.051 0.26167 0.0
C3345 C 0.74817 0.01669 0.23851 0.0
N3346 N 0.77043 0.05482 0.29633 0.0
N3347 N 0.76216 0.02175 0.25265 0.0
H3348 H 0.02485 0.73781 0.21013 0.0
H3349 H 0.05315 0.78767 0.3163 0.0
H3350 H 0.06731 0.71249 0.25224 0.0
H3351 H 1.00275 0.80664 0.27991 0.0
H3352 H 0.06294 0.76426 0.28978 0.0
H3353 H 0.02113 0.76713 0.23222 0.0
C3354 C 0.03375 0.73865 0.22378 0.0
C3355 C 0.04632 0.72263 0.22941 0.0
C3356 C 0.04986 0.77371 0.28748 0.0
C3357 C 0.04197 0.75598 0.25488 0.0
C3358 C 0.04435 0.78723 0.30258 0.0
C3359 C 0.027 0.79911 0.30045 0.0
C3360 C 0.038 0.77201 0.27002 0.0
C3361 C 0.01607 0.7976 0.28236 0.0
C3362 C 0.03148 0.75529 0.23648 0.0
C3363 C 0.05731 0.72441 0.24741 0.0
N3364 N 0.02166 0.78422 0.26794 0.0
N3365 N 0.05477 0.74066 0.25954 0.0
H3366 H 0.2752 0.04014 0.21206 0.0
H3367 H 0.23663 0.96931 0.30044 0.0
H3368 H 0.30122 0.98263 0.22716 0.0
H3369 H 0.20982 0.02671 0.28693 0.0
H3370 H 0.2566 0.97169 0.26987 0.0
H3371 H 0.24786 0.03351 0.23563 0.0
C3372 C 0.27507 0.02602 0.22012 0.0
C3373 C 0.29077 0.01204 0.21772 0.0
C3374 C 0.24616 0.98367 0.27334 0.0
C3375 C 0.25939 1.00434 0.24473 0.0
C3376 C 0.2347 0.98226 0.29076 0.0
C3377 C 0.22167 0.99789 0.29622 0.0
C3378 C 0.24485 1.001 0.26135 0.0
C3379 C 0.21968 0.01433 0.28318 0.0
C3380 C 0.2594 0.02222 0.23354 0.0
C3381 C 0.2895 0.99384 0.22833 0.0
N3382 N 0.2314 0.01562 0.26648 0.0
N3383 N 0.27428 0.99066 0.24149 0.0
H3384 H 0.99391 0.82234 0.74463 0.0
H3385 H 0.04191 0.73009 0.80381 0.0
H3386 H 0.05419 0.80046 0.73597 0.0
H3387 H 0.98363 0.75463 0.81839 0.0
H3388 H 0.04816 0.75891 0.78247 0.0
H3389 H 0.99123 0.80122 0.77486 0.0
C3390 C 1.00679 0.8136 0.7495 0.0
C3391 C 0.02429 0.8131 0.73787 0.0
C3392 C 0.03408 0.75818 0.79051 0.0
C3393 C 0.02123 0.78857 0.77197 0.0
C3394 C 0.03053 0.7417 0.80296 0.0
C3395 C 0.01208 0.73962 0.81295 0.0
C3396 C 0.01901 0.77273 0.78766 0.0
C3397 C 0.9979 0.75521 0.81069 0.0
C3398 C 1.00521 0.8014 0.76662 0.0
C3399 C 0.04044 0.80124 0.74457 0.0
N3400 N 1.00154 0.77092 0.79809 0.0
N3401 N 0.03843 0.7893 0.76098 0.0
H3402 H 0.32662 0.05243 0.79254 0.0
H3403 H 0.21892 0.02049 0.74865 0.0
H3404 H 0.2907 1.00436 0.81667 0.0
H3405 H 0.25826 0.06287 0.71964 0.0
H3406 H 0.24239 0.01873 0.77698 0.0
H3407 H 0.29913 0.06079 0.76936 0.0
C3408 C 0.31278 0.04393 0.7933 0.0
C3409 C 0.31103 0.02757 0.80649 0.0
C3410 C 0.24581 0.02857 0.76451 0.0
C3411 C 0.2796 0.03684 0.77974 0.0
C3412 C 0.23231 0.02971 0.74837 0.0
C3413 C 0.23666 0.04174 0.7316 0.0
C3414 C 0.26382 0.03956 0.76399 0.0
C3415 C 0.25443 0.05314 0.73207 0.0
C3416 C 0.29716 0.04858 0.77991 0.0
C3417 C 0.29281 0.01693 0.80658 0.0
N3418 N 0.26739 0.05167 0.74789 0.0
N3419 N 0.2779 0.02163 0.79332 0.0
H3420 H 0.98973 0.21961 0.75005 0.0
H3421 H 0.05675 0.31411 0.77839 0.0
H3422 H 0.04484 0.23386 0.71941 0.0
H3423 H 0.01329 0.28948 0.8193 0.0
H3424 H 0.05309 0.28436 0.75706 0.0
H3425 H 0.99822 0.24444 0.77594 0.0
C3426 C 1.00373 0.22778 0.74889 0.0
C3427 C 0.01656 0.22464 0.73246 0.0
C3428 C 0.04457 0.28526 0.77085 0.0
C3429 C 0.02626 0.25333 0.76197 0.0
C3430 C 0.04668 0.30224 0.78303 0.0
C3431 C 0.03534 0.30423 0.80065 0.0
C3432 C 0.03067 0.27027 0.77603 0.0
C3433 C 0.02243 0.28844 0.80592 0.0
C3434 C 0.0086 0.24193 0.76372 0.0
C3435 C 0.03457 0.23562 0.73185 0.0
N3436 N 0.02021 0.27227 0.79352 0.0
N3437 N 0.03873 0.24963 0.74619 0.0
H3438 H 0.78171 0.96489 0.7301 0.0
H3439 H 0.73897 0.03528 0.81695 0.0
H3440 H 0.80744 0.02218 0.74577 0.0
H3441 H 0.71252 0.97855 0.80041 0.0
H3442 H 0.76749 0.02805 0.79511 0.0
H3443 H 0.76004 0.96688 0.75958 0.0
C3444 C 0.78304 0.97775 0.73999 0.0
C3445 C 0.79627 0.99351 0.73535 0.0
C3446 C 0.75564 0.01701 0.79644 0.0
C3447 C 0.77123 0.99603 0.7691 0.0
C3448 C 0.73934 0.02112 0.80894 0.0
C3449 C 0.7232 0.00759 0.81034 0.0
C3450 C 0.75584 0.99927 0.78504 0.0
C3451 C 0.72461 0.98939 0.79981 0.0
C3452 C 0.77062 0.9789 0.75681 0.0
C3453 C 0.79749 0.0097 0.74878 0.0
N3454 N 0.74048 0.9859 0.78738 0.0
N3455 N 0.78491 0.0107 0.76487 0.0
H3456 H 0.28242 0.20707 0.99304 0.0
H3457 H 0.23793 0.29401 0.06261 0.0
H3458 H 0.31013 0.22824 0.04787 0.0
H3459 H 0.21454 0.2804 1.0037 0.0
H3460 H 0.25965 0.26447 0.06071 0.0
H3461 H 0.25336 0.22856 0.99978 0.0
C3462 C 0.28235 0.21604 1.00662 0.0
C3463 C 0.29901 0.216 0.01973 0.0
C3464 C 0.24955 0.26768 0.0483 0.0
C3465 C 0.26557 0.24053 0.02762 0.0
C3466 C 0.23707 0.28447 0.04944 0.0
C3467 C 0.22455 0.28968 0.03323 0.0
C3468 C 0.24973 0.25605 0.0307 0.0
C3469 C 0.22396 0.27684 0.01653 0.0
C3470 C 0.26568 0.22826 0.01047 0.0
C3471 C 0.29772 0.22761 0.03732 0.0
N3472 N 0.23664 0.26076 0.01554 0.0
N3473 N 0.28145 0.23953 0.0406 0.0
H3474 H 0.27794 0.81886 0.03995 0.0
H3475 H 0.23853 0.72893 0.97217 0.0
H3476 H 0.30402 0.80191 0.98318 0.0
H3477 H 0.20464 0.75154 0.02262 0.0
H3478 H 0.26112 0.75716 0.97513 0.0
H3479 H 0.24975 0.79615 0.03319 0.0
C3480 C 0.2776 0.81059 0.02593 0.0
C3481 C 0.2935 0.81221 0.01219 0.0
C3482 C 0.24862 0.75615 0.98544 0.0
C3483 C 0.26133 0.7861 1.00443 0.0
C3484 C 0.23545 0.74002 0.98365 0.0
C3485 C 0.21933 0.7377 0.99707 0.0
C3486 C 0.24608 0.77011 1.00099 0.0
C3487 C 0.21691 0.75243 0.01205 0.0
C3488 C 0.26148 0.79766 0.02208 0.0
C3489 C 0.29211 0.80131 0.99418 0.0
N3490 N 0.23023 0.76789 0.01372 0.0
N3491 N 0.27649 0.78857 0.99097 0.0
H3492 H 0.74119 0.22492 0.99377 0.0
H3493 H 0.81194 0.30469 0.04312 0.0
H3494 H 0.75257 0.2263 0.05768 0.0
H3495 H 0.82295 0.28378 0.98263 0.0
H3496 H 0.7902 0.27607 0.04852 0.0
H3497 H 0.77088 0.246 0.98867 0.0
C3498 C 0.75012 0.22924 0.00671 0.0
C3499 C 0.74406 0.22407 0.02624 0.0
C3500 C 0.7976 0.2776 0.03414 0.0
C3501 C 0.77778 0.24864 0.02048 0.0
C3502 C 0.81029 0.29395 0.03103 0.0
C3503 C 0.81944 0.29703 0.01226 0.0
C3504 C 0.79351 0.26431 0.0183 0.0
C3505 C 0.81592 0.28254 0.99719 0.0
C3506 C 0.76703 0.24139 1.00377 0.0
C3507 C 0.75625 0.23035 0.04239 0.0
N3508 N 0.80297 0.26705 1.00041 0.0
N3509 N 0.77225 0.24257 0.03918 0.0
H3510 H 0.82498 0.74825 0.04402 0.0
H3511 H 0.73732 0.79391 0.97492 0.0
H3512 H 0.80444 0.72221 0.98816 0.0
H3513 H 0.75088 0.81637 0.03414 0.0
H3514 H 0.7666 0.77182 0.97696 0.0
H3515 H 0.80243 0.77681 0.03833 0.0
C3516 C 0.81592 0.74855 0.03046 0.0
C3517 C 0.81659 0.7325 0.01668 0.0
C3518 C 0.76344 0.78177 0.98943 0.0
C3519 C 0.7908 0.76547 0.00999 0.0
C3520 C 0.74679 0.79449 0.9882 0.0
C3521 C 0.74166 0.80695 1.0044 0.0
C3522 C 0.77506 0.78126 0.0071 0.0
C3523 C 0.7544 0.80708 0.02128 0.0
C3524 C 0.80308 0.76496 0.02721 0.0
C3525 C 0.80473 0.73414 0.99919 0.0
N3526 N 0.77037 0.79419 0.02232 0.0
N3527 N 0.79227 0.75015 0.99648 0.0
H3528 H 0.56101 0.72007 0.79388 0.0
H3529 H 0.49244 0.80869 0.74991 0.0
H3530 H 0.50859 0.74496 0.82252 0.0
H3531 H 0.5384 0.78074 0.71372 0.0
H3532 H 0.49883 0.78458 0.77612 0.0
H3533 H 0.55368 0.7409 0.76396 0.0
C3534 C 0.54792 0.72976 0.79382 0.0
C3535 C 0.53562 0.73108 0.81088 0.0
C3536 C 0.50747 0.78346 0.76242 0.0
C3537 C 0.52719 0.75482 0.77693 0.0
C3538 C 0.50365 0.79722 0.74717 0.0
C3539 C 0.51455 0.79669 0.72914 0.0
C3540 C 0.5226 0.76896 0.7601 0.0
C3541 C 0.52956 0.78183 0.72727 0.0
C3542 C 0.54379 0.74167 0.7768 0.0
C3543 C 0.51881 0.74381 0.80996 0.0
N3544 N 0.53318 0.76858 0.74258 0.0
N3545 N 0.51521 0.75517 0.79344 0.0
H3546 H 0.2696 0.56165 0.82337 0.0
H3547 H 0.24186 0.50405 0.72125 0.0
H3548 H 0.30854 0.51873 0.7944 0.0
H3549 H 0.20408 0.54982 0.74713 0.0
H3550 H 0.26736 0.51098 0.74687 0.0
H3551 H 0.24616 0.55897 0.79497 0.0
C3552 C 0.27328 0.55171 0.81105 0.0
C3553 C 0.29115 0.5404 0.81139 0.0
C3554 C 0.2536 0.51968 0.74687 0.0
C3555 C 0.26433 0.53731 0.77869 0.0
C3556 C 0.23902 0.51573 0.73221 0.0
C3557 C 0.22074 0.5263 0.73206 0.0
C3558 C 0.24988 0.53422 0.76172 0.0
C3559 C 0.21799 0.54139 0.74657 0.0
C3560 C 0.25992 0.55027 0.79476 0.0
C3561 C 0.29515 0.52797 0.79479 0.0
N3562 N 0.23228 0.54474 0.76093 0.0
N3563 N 0.28184 0.52668 0.77926 0.0
H3564 H 0.56587 0.2175 0.75451 0.0
H3565 H 0.50245 0.31565 0.77975 0.0
H3566 H 0.52326 0.24338 0.71293 0.0
H3567 H 0.55257 0.29497 0.81558 0.0
H3568 H 0.51141 0.29118 0.75377 0.0
H3569 H 0.56313 0.24745 0.77558 0.0
C3570 C 0.55618 0.22969 0.74967 0.0
C3571 C 0.54473 0.22794 0.73199 0.0
C3572 C 0.52065 0.29222 0.76717 0.0
C3573 C 0.54116 0.2622 0.75626 0.0
C3574 C 0.51551 0.30617 0.78204 0.0
C3575 C 0.5267 0.30736 0.79997 0.0
C3576 C 0.53697 0.27914 0.77032 0.0
C3577 C 0.54358 0.29478 0.80199 0.0
C3578 C 0.55458 0.24679 0.76171 0.0
C3579 C 0.53243 0.24418 0.72639 0.0
N3580 N 0.54801 0.28107 0.78751 0.0
N3581 N 0.53072 0.2605 0.73864 0.0
H3582 H 0.8182 0.48223 0.73173 0.0
H3583 H 0.7131 0.52116 0.77596 0.0
H3584 H 0.78547 0.53234 0.70656 0.0
H3585 H 0.75075 0.47603 0.80376 0.0
H3586 H 0.73706 0.52309 0.74809 0.0
H3587 H 0.79068 0.47657 0.75513 0.0
C3588 C 0.80505 0.49179 0.73079 0.0
C3589 C 0.80429 0.50789 0.71719 0.0
C3590 C 0.7399 0.51263 0.76023 0.0
C3591 C 0.77277 0.50179 0.74443 0.0
C3592 C 0.72627 0.51159 0.77622 0.0
C3593 C 0.72969 0.4983 0.79231 0.0
C3594 C 0.75711 0.50032 0.7603 0.0
C3595 C 0.74704 0.48618 0.7916 0.0
C3596 C 0.78939 0.4887 0.74436 0.0
C3597 C 0.78688 0.51994 0.71699 0.0
N3598 N 0.76001 0.48752 0.77599 0.0
N3599 N 0.77192 0.51677 0.73051 0.0
H3600 H 0.53077 0.2299 0.30196 0.0
H3601 H 0.48165 0.30375 0.22629 0.0
H3602 H 0.46884 0.24779 0.31036 0.0
H3603 H 0.54161 0.31567 0.24864 0.0
H3604 H 0.47636 0.28114 0.25458 0.0
H3605 H 0.53546 0.2589 0.28016 0.0
C3606 C 0.51818 0.23996 0.29965 0.0
C3607 C 0.49923 0.23591 0.30809 0.0
C3608 C 0.49058 0.28892 0.25333 0.0
C3609 C 0.50453 0.26891 0.28221 0.0
C3610 C 0.49363 0.30205 0.2372 0.0
C3611 C 0.51229 0.31167 0.2346 0.0
C3612 C 0.50639 0.28489 0.26676 0.0
C3613 C 0.52721 0.30822 0.24937 0.0
C3614 C 0.52092 0.2565 0.28699 0.0
C3615 C 0.48357 0.24963 0.30384 0.0
N3616 N 0.52409 0.29485 0.26451 0.0
N3617 N 0.48646 0.26521 0.29093 0.0
H3618 H 0.74266 0.50658 0.20766 0.0
H3619 H 0.78013 0.529 0.32016 0.0
H3620 H 0.71576 0.55339 0.24334 0.0
H3621 H 0.80968 0.49001 0.27761 0.0
H3622 H 0.75437 0.53644 0.29451 0.0
H3623 H 0.76461 0.49804 0.2356 0.0
C3624 C 0.74141 0.51511 0.22147 0.0
C3625 C 0.72763 0.53098 0.22303 0.0
C3626 C 0.76644 0.52612 0.29097 0.0
C3627 C 0.75293 0.52122 0.25545 0.0
C3628 C 0.78121 0.52189 0.30558 0.0
C3629 C 0.79713 0.5086 0.3013 0.0
C3630 C 0.76759 0.51698 0.27197 0.0
C3631 C 0.79755 0.49986 0.28207 0.0
C3632 C 0.75397 0.51021 0.23749 0.0
C3633 C 0.72631 0.54115 0.24149 0.0
N3634 N 0.78312 0.5042 0.26829 0.0
N3635 N 0.73898 0.53623 0.25699 0.0
H3636 H 0.54505 0.73474 0.22384 0.0
H3637 H 0.51162 0.79399 0.32322 0.0
H3638 H 0.48819 0.7252 0.25317 0.0
H3639 H 0.55844 0.81396 0.28345 0.0
H3640 H 0.50698 0.76406 0.3021 0.0
H3641 H 0.55414 0.75892 0.24999 0.0
C3642 C 0.53463 0.73739 0.236 0.0
C3643 C 0.51577 0.72792 0.23621 0.0
C3644 C 0.51846 0.77486 0.29817 0.0
C3645 C 0.52604 0.75589 0.26617 0.0
C3646 C 0.52124 0.79183 0.31032 0.0
C3647 C 0.53541 0.8065 0.30505 0.0
C3648 C 0.53008 0.77243 0.28074 0.0
C3649 C 0.54727 0.80308 0.28798 0.0
C3650 C 0.53976 0.75137 0.25084 0.0
C3651 C 0.50279 0.73228 0.25225 0.0
N3652 N 0.54429 0.78648 0.27642 0.0
N3653 N 0.50811 0.746 0.26651 0.0
H3654 H 0.32443 0.49059 0.24951 0.0
H3655 H 0.24816 0.56762 0.30108 0.0
H3656 H 0.3079 0.54859 0.2254 0.0
H3657 H 0.25259 0.50542 0.31838 0.0
H3658 H 0.27688 0.56315 0.27879 0.0
H3659 H 0.30445 0.49792 0.27942 0.0
C3660 C 0.31683 0.50494 0.2505 0.0
C3661 C 0.31776 0.51884 0.23458 0.0
C3662 C 0.27187 0.55053 0.28771 0.0
C3663 C 0.29511 0.52743 0.26911 0.0
C3664 C 0.25557 0.55313 0.30054 0.0
C3665 C 0.24796 0.53683 0.31147 0.0
C3666 C 0.28057 0.53143 0.28559 0.0
C3667 C 0.25808 0.51836 0.31024 0.0
C3668 C 0.30549 0.50912 0.26768 0.0
C3669 C 0.30793 0.53738 0.23716 0.0
N3670 N 0.27369 0.51605 0.29724 0.0
N3671 N 0.29693 0.54101 0.25393 0.0
H3672 H 0.70827 0.77378 0.54613 0.0
H3673 H 0.78179 0.71933 0.46909 0.0
H3674 H 0.71802 0.79234 0.48477 0.0
H3675 H 0.78201 0.70768 0.53272 0.0
H3676 H 0.75119 0.73936 0.47294 0.0
H3677 H 0.72839 0.74366 0.53982 0.0
C3678 C 0.71439 0.77146 0.53126 0.0
C3679 C 0.71168 0.78594 0.51608 0.0
C3680 C 0.75759 0.73203 0.48602 0.0
C3681 C 0.73451 0.75127 0.50872 0.0
C3682 C 0.7749 0.72044 0.48377 0.0
C3683 C 0.78425 0.71183 0.50061 0.0
C3684 C 0.74976 0.73531 0.50532 0.0
C3685 C 0.77505 0.71396 0.51938 0.0
C3686 C 0.7258 0.75419 0.52767 0.0
C3687 C 0.71955 0.78172 0.49698 0.0
N3688 N 0.75846 0.72579 0.52131 0.0
N3689 N 0.73079 0.76495 0.49395 0.0
H3690 H 0.73972 0.2241 0.47851 0.0
H3691 H 0.77919 0.31319 0.54762 0.0
H3692 H 0.70475 0.24635 0.52836 0.0
H3693 H 0.80282 0.29937 0.48894 0.0
H3694 H 0.7517 0.28934 0.54152 0.0
H3695 H 0.76275 0.25183 0.48272 0.0
C3696 C 0.73654 0.23499 0.49015 0.0
C3697 C 0.71986 0.23282 0.50288 0.0
C3698 C 0.76276 0.29178 0.5299 0.0
C3699 C 0.7471 0.26467 0.50827 0.0
C3700 C 0.77849 0.30535 0.53337 0.0
C3701 C 0.79344 0.30832 0.51879 0.0
C3702 C 0.76211 0.28089 0.51183 0.0
C3703 C 0.7916 0.29784 0.50056 0.0
C3704 C 0.74994 0.25084 0.49265 0.0
C3705 C 0.71737 0.2472 0.51821 0.0
N3706 N 0.77643 0.2845 0.49772 0.0
N3707 N 0.73089 0.26243 0.52055 0.0
H3708 H 0.30676 0.81023 0.54472 0.0
H3709 H 0.25104 0.71129 0.50498 0.0
H3710 H 0.31711 0.78641 0.48533 0.0
H3711 H 0.23007 0.74934 0.5532 0.0
H3712 H 0.27949 0.73426 0.50025 0.0
H3713 H 0.28381 0.78264 0.55131 0.0
C3714 C 0.30461 0.79896 0.53318 0.0
C3715 C 0.3139 0.80078 0.51438 0.0
C3716 C 0.2687 0.73732 0.51199 0.0
C3717 C 0.28704 0.76922 0.52173 0.0
C3718 C 0.25238 0.72428 0.51467 0.0
C3719 C 0.238 0.7281 0.52967 0.0
C3720 C 0.27081 0.75418 0.52452 0.0
C3721 C 0.24085 0.74518 0.54183 0.0
C3722 C 0.29126 0.78329 0.53689 0.0
C3723 C 0.31009 0.78578 0.49994 0.0
N3724 N 0.25683 0.75746 0.53899 0.0
N3725 N 0.29683 0.7707 0.50386 0.0
H3726 H 0.23182 0.30992 0.5357 0.0
H3727 H 0.28814 0.21457 0.48812 0.0
H3728 H 0.2169 0.28382 0.47825 0.0
H3729 H 0.30319 0.23948 0.54611 0.0
H3730 H 0.26506 0.24265 0.48241 0.0
H3731 H 0.26085 0.28712 0.5381 0.0
C3732 C 0.23481 0.29962 0.52348 0.0
C3733 C 0.22171 0.29858 0.50691 0.0
C3734 C 0.27356 0.24211 0.49632 0.0
C3735 C 0.25479 0.27234 0.50956 0.0
C3736 C 0.28691 0.22612 0.49951 0.0
C3737 C 0.29752 0.22446 0.51772 0.0
C3738 C 0.27071 0.2566 0.51145 0.0
C3739 C 0.29505 0.23988 0.53199 0.0
C3740 C 0.25131 0.28652 0.52489 0.0
C3741 C 0.22633 0.28488 0.49151 0.0
N3742 N 0.2818 0.25514 0.52865 0.0
N3743 N 0.24231 0.27225 0.49329 0.0
loop_
_geom_bond_atom_site_label_1
_geom_bond_atom_site_label_2
_geom_bond_distance
_geom_bond_site_symmetry_2
_ccdc_geom_bond_type
Co0 N4 2.148 . S
Co0 N10 2.128 1_455 S
Co0 N20 2.194 . S
Co0 O25 2.351 1_455 S
Co0 O26 2.155 1_455 S
Co0 O27 2.096 . S
C1 N4 1.301 . S
C1 N5 1.328 . S
C1 H6 0.930 . S
C2 C3 1.333 . S
C2 N4 1.317 . S
C2 H7 0.930 . S
C3 C2 1.333 . S
C3 N5 1.350 . S
C3 H29 0.931 . S
N4 Co0 2.148 . S
N4 C1 1.301 . S
N4 C2 1.317 . S
N5 C1 1.328 . S
N5 C3 1.350 . S
H6 C1 0.930 . S
H7 C2 0.930 . S
C8 O9 1.224 . S
C8 O27 1.247 . S
O9 C8 1.224 . S
N10 Co0 2.128 1_655 S
N10 C11 1.355 . S
N10 C13 1.311 . S
C11 N10 1.355 . S
C11 C12 1.363 . S
C11 H23 0.929 . S
C12 C11 1.363 . S
C12 N14 1.375 . S
C12 H30 0.931 . S
C13 N10 1.311 . S
C13 N14 1.347 . S
C13 H24 0.929 . S
N14 C12 1.375 . S
N14 C13 1.347 . S
C15 C18 1.365 . S
C15 N20 1.328 . S
C15 H21 0.929 1_455 S
C16 C17 1.362 . S
C16 C19 1.378 . S
C16 H31 0.929 . S
C17 C16 1.362 . S
C17 C18 1.366 . S
C18 C15 1.365 . S
C18 C17 1.366 . S
C18 H32 0.930 1_455 S
C19 C16 1.378 . S
C19 N20 1.315 . S
C19 H22 0.930 . S
N20 Co0 2.194 . S
N20 C15 1.328 . S
N20 C19 1.315 . S
H21 C15 0.929 1_655 S
H22 C19 0.930 . S
H23 C11 0.929 . S
H24 C13 0.929 . S
O25 Co0 2.351 1_655 S
O25 C28 1.244 . S
O26 Co0 2.155 1_655 S
O26 C28 1.240 . S
O27 Co0 2.096 . S
O27 C8 1.247 . S
C28 O25 1.244 . S
C28 O26 1.240 . S
H29 C3 0.931 . S
H30 C12 0.931 . S
H31 C16 0.929 . S
H32 C18 0.930 1_655 S
Co33 N37 2.148 . S
Co33 N43 2.128 1_545 S
Co33 N53 2.194 . S
Co33 O58 2.351 1_545 S
Co33 O59 2.155 1_545 S
Co33 O60 2.096 . S
C34 N37 1.301 . S
C34 N38 1.328 . S
C34 H39 0.930 . S
C35 C36 1.333 . S
C35 N37 1.317 . S
C35 H40 0.930 . S
C36 C35 1.333 . S
C36 N38 1.350 . S
C36 H62 0.931 . S
N37 Co33 2.148 . S
N37 C34 1.301 . S
N37 C35 1.317 . S
N38 C34 1.328 . S
N38 C36 1.350 . S
H39 C34 0.930 . S
H40 C35 0.930 . S
C41 O42 1.224 . S
C41 O60 1.247 . S
O42 C41 1.224 . S
N43 Co33 2.128 1_565 S
N43 C44 1.355 . S
N43 C46 1.311 . S
C44 N43 1.355 . S
C44 C45 1.363 . S
C44 H56 0.929 . S
C45 C44 1.363 . S
C45 N47 1.375 . S
C45 H63 0.931 . S
C46 N43 1.311 . S
C46 N47 1.347 . S
C46 H57 0.929 . S
N47 C45 1.375 . S
N47 C46 1.347 . S
C48 C51 1.365 . S
C48 N53 1.328 . S
C48 H54 0.905 1_545 S
C49 C50 1.362 . S
C49 C52 1.378 . S
C49 H64 0.929 . S
C50 C49 1.362 . S
C50 C51 1.366 . S
C51 C48 1.365 . S
C51 C50 1.366 . S
C51 H65 0.930 1_545 S
C52 C49 1.378 . S
C52 N53 1.315 . S
C52 H55 0.930 . S
N53 Co33 2.194 . S
N53 C48 1.328 . S
N53 C52 1.315 . S
H54 C48 0.905 1_565 S
H55 C52 0.930 . S
H56 C44 0.929 . S
H57 C46 0.929 . S
O58 Co33 2.351 1_565 S
O58 C61 1.244 . S
O59 Co33 2.155 1_565 S
O59 C61 1.240 . S
O60 Co33 2.096 . S
O60 C41 1.247 . S
C61 O58 1.244 . S
C61 O59 1.240 . S
H62 C36 0.931 . S
H63 C45 0.931 . S
H64 C49 0.929 . S
H65 C51 0.930 1_565 S
Co66 N70 2.148 . S
Co66 N76 2.128 1_455 S
Co66 N86 2.194 . S
Co66 O91 2.351 1_455 S
Co66 O92 2.155 1_455 S
Co66 O93 2.096 . S
C67 N70 1.301 . S
C67 N71 1.328 . S
C67 H72 0.930 . S
C68 C69 1.333 . S
C68 N70 1.317 . S
C68 H73 0.930 . S
C69 C68 1.333 . S
C69 N71 1.350 . S
C69 H95 0.931 . S
N70 Co66 2.148 . S
N70 C67 1.301 . S
N70 C68 1.317 . S
N71 C67 1.328 . S
N71 C69 1.350 . S
H72 C67 0.930 . S
H73 C68 0.930 . S
C74 O75 1.224 . S
C74 O93 1.247 . S
O75 C74 1.224 . S
N76 Co66 2.128 1_655 S
N76 C77 1.355 . S
N76 C79 1.311 . S
C77 N76 1.355 . S
C77 C78 1.363 . S
C77 H89 0.929 . S
C78 C77 1.363 . S
C78 N80 1.375 . S
C78 H96 0.931 . S
C79 N76 1.311 . S
C79 N80 1.347 . S
C79 H90 0.929 . S
N80 C78 1.375 . S
N80 C79 1.347 . S
C81 C84 1.365 . S
C81 N86 1.328 1_655 S
C81 H87 0.929 . S
C82 C83 1.362 . S
C82 C85 1.378 . S
C82 H97 0.929 . S
C83 C82 1.362 . S
C83 C84 1.366 1_455 S
C84 C81 1.365 . S
C84 C83 1.366 1_655 S
C84 H98 0.930 . S
C85 C82 1.378 . S
C85 N86 1.315 . S
C85 H88 0.930 . S
N86 Co66 2.194 . S
N86 C81 1.328 1_455 S
N86 C85 1.315 . S
H87 C81 0.929 . S
H88 C85 0.930 . S
H89 C77 0.929 . S
H90 C79 0.929 . S
O91 Co66 2.351 1_655 S
O91 C94 1.244 . S
O92 Co66 2.155 1_655 S
O92 C94 1.240 . S
O93 Co66 2.096 . S
O93 C74 1.247 . S
C94 O91 1.244 . S
C94 O92 1.240 . S
H95 C69 0.931 . S
H96 C78 0.931 . S
H97 C82 0.929 . S
H98 C84 0.930 . S
Co99 N103 2.148 . S
Co99 N109 2.128 1_545 S
Co99 N119 2.194 . S
Co99 O124 2.351 1_545 S
Co99 O125 2.155 1_545 S
Co99 O126 2.096 . S
C100 N103 1.301 . S
C100 N104 1.328 . S
C100 H105 0.930 . S
C101 C102 1.333 . S
C101 N103 1.317 . S
C101 H106 0.930 . S
C102 C101 1.333 . S
C102 N104 1.350 . S
C102 H128 0.931 . S
N103 Co99 2.148 . S
N103 C100 1.301 . S
N103 C101 1.317 . S
N104 C100 1.328 . S
N104 C102 1.350 . S
H105 C100 0.930 . S
H106 C101 0.930 . S
C107 O108 1.224 . S
C107 O126 1.247 . S
O108 C107 1.224 . S
N109 Co99 2.128 1_565 S
N109 C110 1.355 . S
N109 C112 1.311 . S
C110 N109 1.355 . S
C110 C111 1.363 . S
C110 H122 0.929 . S
C111 C110 1.363 . S
C111 N113 1.375 . S
C111 H129 0.931 . S
C112 N109 1.311 . S
C112 N113 1.347 . S
C112 H123 0.929 . S
N113 C111 1.375 . S
N113 C112 1.347 . S
C114 C117 1.365 . S
C114 N119 1.328 1_565 S
C114 H120 0.929 . S
C115 C116 1.362 . S
C115 C118 1.378 . S
C115 H130 0.929 . S
C116 C115 1.362 . S
C116 C117 1.366 1_545 S
C117 C114 1.365 . S
C117 C116 1.366 1_565 S
C117 H131 0.930 . S
C118 C115 1.378 . S
C118 N119 1.315 . S
C118 H121 0.930 . S
N119 Co99 2.194 . S
N119 C114 1.328 1_545 S
N119 C118 1.315 . S
H120 C114 0.929 . S
H121 C118 0.930 . S
H122 C110 0.929 . S
H123 C112 0.929 . S
O124 Co99 2.351 1_565 S
O124 C127 1.244 . S
O125 Co99 2.155 1_565 S
O125 C127 1.240 . S
O126 Co99 2.096 . S
O126 C107 1.247 . S
C127 O124 1.244 . S
C127 O125 1.240 . S
H128 C102 0.931 . S
H129 C111 0.931 . S
H130 C115 0.929 . S
H131 C117 0.930 . S
Co132 N136 2.148 1_455 S
Co132 N142 2.128 . S
Co132 N152 2.194 . S
Co132 O157 2.351 . S
Co132 O158 2.155 . S
Co132 O159 2.085 1_455 S
C133 N136 1.301 . S
C133 N137 1.328 . S
C133 H138 0.930 . S
C134 C135 1.333 . S
C134 N136 1.317 . S
C134 H139 0.930 . S
C135 C134 1.333 . S
C135 N137 1.350 . S
C135 H161 0.931 . S
N136 Co132 2.148 1_655 S
N136 C133 1.301 . S
N136 C134 1.317 . S
N137 C133 1.328 . S
N137 C135 1.350 . S
H138 C133 0.930 . S
H139 C134 0.930 . S
C140 O141 1.224 . S
C140 O159 1.261 . S
O141 C140 1.224 . S
N142 Co132 2.128 . S
N142 C143 1.355 . S
N142 C145 1.311 . S
C143 N142 1.355 . S
C143 C144 1.363 . S
C143 H155 0.929 . S
C144 C143 1.363 . S
C144 N146 1.375 . S
C144 H162 0.931 . S
C145 N142 1.311 . S
C145 N146 1.347 . S
C145 H156 0.929 . S
N146 C144 1.375 . S
N146 C145 1.347 . S
C147 C150 1.365 . S
C147 N152 1.328 . S
C147 H153 0.929 . S
C148 C149 1.357 1_655 S
C148 C151 1.377 1_655 S
C148 H163 0.935 . S
C149 C148 1.357 1_455 S
C149 C150 1.366 . S
C150 C147 1.365 . S
C150 C149 1.366 . S
C150 H164 0.930 . S
C151 C148 1.377 1_455 S
C151 N152 1.325 . S
C151 H154 0.920 1_455 S
N152 Co132 2.194 . S
N152 C147 1.328 . S
N152 C151 1.325 . S
H153 C147 0.929 . S
H154 C151 0.920 1_655 S
H155 C143 0.929 . S
H156 C145 0.929 . S
O157 Co132 2.351 . S
O157 C160 1.244 . S
O158 Co132 2.155 . S
O158 C160 1.240 . S
O159 Co132 2.085 1_655 S
O159 C140 1.261 . S
C160 O157 1.244 . S
C160 O158 1.240 . S
H161 C135 0.931 . S
H162 C144 0.931 . S
H163 C148 0.935 . S
H164 C150 0.930 . S
Co165 N169 2.148 . S
Co165 N175 2.128 1_545 S
Co165 N185 2.194 . S
Co165 O190 2.351 1_545 S
Co165 O191 2.155 1_545 S
Co165 O192 2.096 . S
C166 N169 1.301 . S
C166 N170 1.328 . S
C166 H171 0.930 . S
C167 C168 1.333 . S
C167 N169 1.317 . S
C167 H172 0.930 . S
C168 C167 1.333 . S
C168 N170 1.350 . S
C168 H194 0.931 . S
N169 Co165 2.148 . S
N169 C166 1.301 . S
N169 C167 1.317 . S
N170 C166 1.328 . S
N170 C168 1.350 . S
H171 C166 0.930 . S
H172 C167 0.930 . S
C173 O174 1.224 . S
C173 O192 1.247 . S
O174 C173 1.224 . S
N175 Co165 2.128 1_565 S
N175 C176 1.355 . S
N175 C178 1.311 . S
C176 N175 1.355 . S
C176 C177 1.363 . S
C176 H188 0.929 . S
C177 C176 1.363 . S
C177 N179 1.375 . S
C177 H195 0.931 . S
C178 N175 1.311 . S
C178 N179 1.347 . S
C178 H189 0.929 . S
N179 C177 1.375 . S
N179 C178 1.347 . S
C180 C183 1.365 . S
C180 N185 1.328 . S
C180 H186 0.929 1_545 S
C181 C182 1.362 . S
C181 C184 1.378 . S
C181 H196 0.929 . S
C182 C181 1.362 . S
C182 C183 1.366 . S
C183 C180 1.365 . S
C183 C182 1.366 . S
C183 H197 0.930 1_545 S
C184 C181 1.378 . S
C184 N185 1.315 . S
C184 H187 0.930 . S
N185 Co165 2.194 . S
N185 C180 1.328 . S
N185 C184 1.315 . S
H186 C180 0.929 1_565 S
H187 C184 0.930 . S
H188 C176 0.929 . S
H189 C178 0.929 . S
O190 Co165 2.351 1_565 S
O190 C193 1.244 . S
O191 Co165 2.155 1_565 S
O191 C193 1.240 . S
O192 Co165 2.096 . S
O192 C173 1.247 . S
C193 O190 1.244 . S
C193 O191 1.240 . S
H194 C168 0.931 . S
H195 C177 0.931 . S
H196 C181 0.929 . S
H197 C183 0.930 1_565 S
Co198 N202 2.148 . S
Co198 N208 2.128 1_455 S
Co198 N218 2.194 . S
Co198 O223 2.351 1_455 S
Co198 O224 2.155 1_455 S
Co198 O225 2.096 . S
C199 N202 1.301 . S
C199 N203 1.328 . S
C199 H204 0.930 . S
C200 C201 1.333 . S
C200 N202 1.317 . S
C200 H205 0.930 . S
C201 C200 1.333 . S
C201 N203 1.350 . S
C201 H227 0.931 . S
N202 Co198 2.148 . S
N202 C199 1.301 . S
N202 C200 1.317 . S
N203 C199 1.328 . S
N203 C201 1.350 . S
H204 C199 0.930 . S
H205 C200 0.930 . S
C206 O207 1.224 . S
C206 O225 1.247 . S
O207 C206 1.224 . S
N208 Co198 2.128 1_655 S
N208 C209 1.355 . S
N208 C211 1.311 . S
C209 N208 1.355 . S
C209 C210 1.363 . S
C209 H221 0.929 . S
C210 C209 1.363 . S
C210 N212 1.375 . S
C210 H228 0.931 . S
C211 N208 1.311 . S
C211 N212 1.347 . S
C211 H222 0.929 . S
N212 C210 1.375 . S
N212 C211 1.347 . S
C213 C216 1.365 . S
C213 N218 1.321 1_655 S
C213 H219 0.937 . S
C214 C215 1.362 . S
C214 C217 1.378 . S
C214 H229 0.929 . S
C215 C214 1.362 . S
C215 C216 1.352 1_455 S
C216 C213 1.365 . S
C216 C215 1.352 1_655 S
C216 H230 0.946 . S
C217 C214 1.378 . S
C217 N218 1.315 . S
C217 H220 0.930 . S
N218 Co198 2.194 . S
N218 C213 1.321 1_455 S
N218 C217 1.315 . S
H219 C213 0.937 . S
H220 C217 0.930 . S
H221 C209 0.929 . S
H222 C211 0.929 . S
O223 Co198 2.351 1_655 S
O223 C226 1.244 . S
O224 Co198 2.155 1_655 S
O224 C226 1.240 . S
O225 Co198 2.096 . S
O225 C206 1.247 . S
C226 O223 1.244 . S
C226 O224 1.240 . S
H227 C201 0.931 . S
H228 C210 0.931 . S
H229 C214 0.929 . S
H230 C216 0.946 . S
Co231 N235 2.148 . S
Co231 N241 2.128 1_545 S
Co231 N251 2.194 . S
Co231 O256 2.351 1_545 S
Co231 O257 2.155 1_545 S
Co231 O258 2.096 . S
C232 N235 1.301 . S
C232 N236 1.328 . S
C232 H237 0.930 . S
C233 C234 1.333 . S
C233 N235 1.317 . S
C233 H238 0.930 . S
C234 C233 1.333 . S
C234 N236 1.350 . S
C234 H260 0.931 . S
N235 Co231 2.148 . S
N235 C232 1.301 . S
N235 C233 1.317 . S
N236 C232 1.328 . S
N236 C234 1.350 . S
H237 C232 0.930 . S
H238 C233 0.930 . S
C239 O240 1.224 . S
C239 O258 1.247 . S
O240 C239 1.224 . S
N241 Co231 2.128 1_565 S
N241 C242 1.355 . S
N241 C244 1.311 . S
C242 N241 1.355 . S
C242 C243 1.363 . S
C242 H254 0.929 . S
C243 C242 1.363 . S
C243 N245 1.375 . S
C243 H261 0.931 . S
C244 N241 1.311 . S
C244 N245 1.347 . S
C244 H255 0.929 . S
N245 C243 1.375 . S
N245 C244 1.347 . S
C246 C249 1.365 . S
C246 N251 1.328 1_565 S
C246 H252 0.929 . S
C247 C248 1.362 . S
C247 C250 1.378 . S
C247 H262 0.929 . S
C248 C247 1.362 . S
C248 C249 1.366 1_545 S
C249 C246 1.365 . S
C249 C248 1.366 1_565 S
C249 H263 0.930 . S
C250 C247 1.378 . S
C250 N251 1.315 . S
C250 H253 0.930 . S
N251 Co231 2.194 . S
N251 C246 1.328 1_545 S
N251 C250 1.315 . S
H252 C246 0.929 . S
H253 C250 0.930 . S
H254 C242 0.929 . S
H255 C244 0.929 . S
O256 Co231 2.351 1_565 S
O256 C259 1.244 . S
O257 Co231 2.155 1_565 S
O257 C259 1.240 . S
O258 Co231 2.096 . S
O258 C239 1.247 . S
C259 O256 1.244 . S
C259 O257 1.240 . S
H260 C234 0.931 . S
H261 C243 0.931 . S
H262 C247 0.929 . S
H263 C249 0.930 . S
Co264 N268 2.148 1_545 S
Co264 N274 2.128 . S
Co264 N284 2.194 . S
Co264 O289 2.351 . S
Co264 O290 2.155 . S
Co264 O291 2.101 . S
C265 N268 1.301 . S
C265 N269 1.328 . S
C265 H270 0.930 . S
C266 C267 1.333 . S
C266 N268 1.317 . S
C266 H271 0.930 . S
C267 C266 1.333 . S
C267 N269 1.350 . S
C267 H293 0.931 . S
N268 Co264 2.148 1_565 S
N268 C265 1.301 . S
N268 C266 1.317 . S
N269 C265 1.328 . S
N269 C267 1.350 . S
H270 C265 0.930 . S
H271 C266 0.930 . S
C272 O273 1.224 . S
C272 O291 1.240 1_565 S
O273 C272 1.224 . S
N274 Co264 2.128 . S
N274 C275 1.355 . S
N274 C277 1.311 . S
C275 N274 1.355 . S
C275 C276 1.363 . S
C275 H287 0.929 . S
C276 C275 1.363 . S
C276 N278 1.375 . S
C276 H294 0.931 . S
C277 N274 1.311 . S
C277 N278 1.347 . S
C277 H288 0.929 . S
N278 C276 1.375 . S
N278 C277 1.347 . S
C279 C282 1.365 . S
C279 N284 1.328 . S
C279 H285 0.929 . S
C280 C281 1.376 . S
C280 C283 1.379 . S
C280 H295 0.915 1_545 S
C281 C280 1.376 . S
C281 C282 1.366 . S
C282 C279 1.365 . S
C282 C281 1.366 . S
C282 H296 0.930 . S
C283 C280 1.379 . S
C283 N284 1.315 . S
C283 H286 0.930 1_545 S
N284 Co264 2.194 . S
N284 C279 1.328 . S
N284 C283 1.315 . S
H285 C279 0.929 . S
H286 C283 0.930 1_565 S
H287 C275 0.929 . S
H288 C277 0.929 . S
O289 Co264 2.351 . S
O289 C292 1.244 . S
O290 Co264 2.155 . S
O290 C292 1.240 . S
O291 Co264 2.101 . S
O291 C272 1.240 1_545 S
C292 O289 1.244 . S
C292 O290 1.240 . S
H293 C267 0.931 . S
H294 C276 0.931 . S
H295 C280 0.915 1_565 S
H296 C282 0.930 . S
Co297 N301 2.148 . S
Co297 N307 2.128 1_455 S
Co297 N317 2.194 . S
Co297 O322 2.351 1_455 S
Co297 O323 2.155 1_455 S
Co297 O324 2.096 . S
C298 N301 1.301 . S
C298 N302 1.328 . S
C298 H303 0.930 . S
C299 C300 1.333 . S
C299 N301 1.317 . S
C299 H304 0.930 . S
C300 C299 1.333 . S
C300 N302 1.350 . S
C300 H326 0.931 . S
N301 Co297 2.148 . S
N301 C298 1.301 . S
N301 C299 1.317 . S
N302 C298 1.328 . S
N302 C300 1.350 . S
H303 C298 0.930 . S
H304 C299 0.930 . S
C305 O306 1.224 . S
C305 O324 1.247 . S
O306 C305 1.224 . S
N307 Co297 2.128 1_655 S
N307 C308 1.355 . S
N307 C310 1.311 . S
C308 N307 1.355 . S
C308 C309 1.363 . S
C308 H320 0.929 . S
C309 C308 1.363 . S
C309 N311 1.375 . S
C309 H327 0.931 . S
C310 N307 1.311 . S
C310 N311 1.347 . S
C310 H321 0.929 . S
N311 C309 1.375 . S
N311 C310 1.347 . S
C312 C315 1.365 . S
C312 N317 1.328 1_655 S
C312 H318 0.929 . S
C313 C314 1.362 . S
C313 C316 1.378 . S
C313 H328 0.929 . S
C314 C313 1.362 . S
C314 C315 1.366 1_455 S
C315 C312 1.365 . S
C315 C314 1.366 1_655 S
C315 H329 0.930 . S
C316 C313 1.378 . S
C316 N317 1.315 . S
C316 H319 0.930 . S
N317 Co297 2.194 . S
N317 C312 1.328 1_455 S
N317 C316 1.315 . S
H318 C312 0.929 . S
H319 C316 0.930 . S
H320 C308 0.929 . S
H321 C310 0.929 . S
O322 Co297 2.351 1_655 S
O322 C325 1.244 . S
O323 Co297 2.155 1_655 S
O323 C325 1.240 . S
O324 Co297 2.096 . S
O324 C305 1.247 . S
C325 O322 1.244 . S
C325 O323 1.240 . S
H326 C300 0.931 . S
H327 C309 0.931 . S
H328 C313 0.929 . S
H329 C315 0.930 . S
Co330 N334 2.148 . S
Co330 N340 2.128 1_545 S
Co330 N350 2.194 . S
Co330 O355 2.351 1_545 S
Co330 O356 2.155 1_545 S
Co330 O357 2.096 . S
C331 N334 1.301 . S
C331 N335 1.328 . S
C331 H336 0.930 . S
C332 C333 1.333 . S
C332 N334 1.317 . S
C332 H337 0.930 . S
C333 C332 1.333 . S
C333 N335 1.350 . S
C333 H359 0.931 . S
N334 Co330 2.148 . S
N334 C331 1.301 . S
N334 C332 1.317 . S
N335 C331 1.328 . S
N335 C333 1.350 . S
H336 C331 0.930 . S
H337 C332 0.930 . S
C338 O339 1.224 . S
C338 O357 1.247 . S
O339 C338 1.224 . S
N340 Co330 2.128 1_565 S
N340 C341 1.355 . S
N340 C343 1.311 . S
C341 N340 1.355 . S
C341 C342 1.363 . S
C341 H353 0.929 . S
C342 C341 1.363 . S
C342 N344 1.375 . S
C342 H360 0.931 . S
C343 N340 1.311 . S
C343 N344 1.347 . S
C343 H354 0.929 . S
N344 C342 1.375 . S
N344 C343 1.347 . S
C345 C348 1.365 . S
C345 N350 1.331 1_565 S
C345 H351 0.927 . S
C346 C347 1.362 . S
C346 C349 1.378 . S
C346 H361 0.929 . S
C347 C346 1.362 . S
C347 C348 1.359 1_545 S
C348 C345 1.365 . S
C348 C347 1.359 1_565 S
C348 H362 0.937 . S
C349 C346 1.378 . S
C349 N350 1.315 . S
C349 H352 0.930 . S
N350 Co330 2.194 . S
N350 C345 1.331 1_545 S
N350 C349 1.315 . S
H351 C345 0.927 . S
H352 C349 0.930 . S
H353 C341 0.929 . S
H354 C343 0.929 . S
O355 Co330 2.351 1_565 S
O355 C358 1.244 . S
O356 Co330 2.155 1_565 S
O356 C358 1.240 . S
O357 Co330 2.096 . S
O357 C338 1.247 . S
C358 O355 1.244 . S
C358 O356 1.240 . S
H359 C333 0.931 . S
H360 C342 0.931 . S
H361 C346 0.929 . S
H362 C348 0.937 . S
Co363 N367 2.148 . S
Co363 N373 2.128 1_455 S
Co363 N383 2.194 . S
Co363 O388 2.351 1_455 S
Co363 O389 2.155 1_455 S
Co363 O390 2.096 . S
C364 N367 1.301 . S
C364 N368 1.328 . S
C364 H369 0.930 . S
C365 C366 1.333 . S
C365 N367 1.317 . S
C365 H370 0.930 . S
C366 C365 1.333 . S
C366 N368 1.350 . S
C366 H392 0.931 . S
N367 Co363 2.148 . S
N367 C364 1.301 . S
N367 C365 1.317 . S
N368 C364 1.328 . S
N368 C366 1.350 . S
H369 C364 0.930 . S
H370 C365 0.930 . S
C371 O372 1.224 . S
C371 O390 1.247 . S
O372 C371 1.224 . S
N373 Co363 2.128 1_655 S
N373 C374 1.355 . S
N373 C376 1.311 . S
C374 N373 1.355 . S
C374 C375 1.363 . S
C374 H386 0.929 . S
C375 C374 1.363 . S
C375 N377 1.375 . S
C375 H393 0.931 . S
C376 N373 1.311 . S
C376 N377 1.347 . S
C376 H387 0.929 . S
N377 C375 1.375 . S
N377 C376 1.347 . S
C378 C381 1.365 . S
C378 N383 1.328 . S
C378 H384 0.929 1_455 S
C379 C380 1.362 . S
C379 C382 1.378 . S
C379 H394 0.929 . S
C380 C379 1.362 . S
C380 C381 1.366 . S
C381 C378 1.365 . S
C381 C380 1.366 . S
C381 H395 0.930 1_455 S
C382 C379 1.378 . S
C382 N383 1.315 . S
C382 H385 0.930 . S
N383 Co363 2.194 . S
N383 C378 1.328 . S
N383 C382 1.315 . S
H384 C378 0.929 1_655 S
H385 C382 0.930 . S
H386 C374 0.929 . S
H387 C376 0.929 . S
O388 Co363 2.351 1_655 S
O388 C391 1.244 . S
O389 Co363 2.155 1_655 S
O389 C391 1.240 . S
O390 Co363 2.096 . S
O390 C371 1.247 . S
C391 O388 1.244 . S
C391 O389 1.240 . S
H392 C366 0.931 . S
H393 C375 0.931 . S
H394 C379 0.929 . S
H395 C381 0.930 1_655 S
Co396 N400 2.148 . S
Co396 N406 2.128 1_545 S
Co396 N416 2.194 . S
Co396 O421 2.351 1_545 S
Co396 O422 2.155 1_545 S
Co396 O423 2.096 . S
C397 N400 1.301 . S
C397 N401 1.328 . S
C397 H402 0.930 . S
C398 C399 1.333 . S
C398 N400 1.317 . S
C398 H403 0.930 . S
C399 C398 1.333 . S
C399 N401 1.350 . S
C399 H425 0.931 . S
N400 Co396 2.148 . S
N400 C397 1.301 . S
N400 C398 1.317 . S
N401 C397 1.328 . S
N401 C399 1.350 . S
H402 C397 0.930 . S
H403 C398 0.930 . S
C404 O405 1.224 . S
C404 O423 1.247 . S
O405 C404 1.224 . S
N406 Co396 2.128 1_565 S
N406 C407 1.355 . S
N406 C409 1.311 . S
C407 N406 1.355 . S
C407 C408 1.363 . S
C407 H419 0.929 . S
C408 C407 1.363 . S
C408 N410 1.375 . S
C408 H426 0.931 . S
C409 N406 1.311 . S
C409 N410 1.347 . S
C409 H420 0.929 . S
N410 C408 1.375 . S
N410 C409 1.347 . S
C411 C414 1.365 . S
C411 N416 1.328 1_565 S
C411 H417 0.929 . S
C412 C413 1.362 . S
C412 C415 1.378 . S
C412 H427 0.929 . S
C413 C412 1.362 . S
C413 C414 1.366 1_545 S
C414 C411 1.365 . S
C414 C413 1.366 1_565 S
C414 H428 0.930 . S
C415 C412 1.378 . S
C415 N416 1.315 . S
C415 H418 0.930 . S
N416 Co396 2.194 . S
N416 C411 1.328 1_545 S
N416 C415 1.315 . S
H417 C411 0.929 . S
H418 C415 0.930 . S
H419 C407 0.929 . S
H420 C409 0.929 . S
O421 Co396 2.351 1_565 S
O421 C424 1.244 . S
O422 Co396 2.155 1_565 S
O422 C424 1.240 . S
O423 Co396 2.096 . S
O423 C404 1.247 . S
C424 O421 1.244 . S
C424 O422 1.240 . S
H425 C399 0.931 . S
H426 C408 0.931 . S
H427 C412 0.929 . S
H428 C414 0.930 . S
Co429 N433 2.148 . S
Co429 N439 2.128 1_455 S
Co429 N449 2.194 . S
Co429 O454 2.351 1_455 S
Co429 O455 2.155 1_455 S
Co429 O456 2.096 . S
C430 N433 1.301 . S
C430 N434 1.328 . S
C430 H435 0.930 . S
C431 C432 1.333 . S
C431 N433 1.317 . S
C431 H436 0.930 . S
C432 C431 1.333 . S
C432 N434 1.350 . S
C432 H458 0.931 . S
N433 Co429 2.148 . S
N433 C430 1.301 . S
N433 C431 1.317 . S
N434 C430 1.328 . S
N434 C432 1.350 . S
H435 C430 0.930 . S
H436 C431 0.930 . S
C437 O438 1.224 . S
C437 O456 1.247 . S
O438 C437 1.224 . S
N439 Co429 2.128 1_655 S
N439 C440 1.355 . S
N439 C442 1.311 . S
C440 N439 1.355 . S
C440 C441 1.363 . S
C440 H452 0.929 . S
C441 C440 1.363 . S
C441 N443 1.375 . S
C441 H459 0.931 . S
C442 N439 1.311 . S
C442 N443 1.347 . S
C442 H453 0.929 . S
N443 C441 1.375 . S
N443 C442 1.347 . S
C444 C447 1.365 . S
C444 N449 1.328 . S
C444 H450 0.929 1_455 S
C445 C446 1.362 . S
C445 C448 1.378 . S
C445 H460 0.929 . S
C446 C445 1.362 . S
C446 C447 1.366 . S
C447 C444 1.365 . S
C447 C446 1.366 . S
C447 H461 0.930 1_455 S
C448 C445 1.378 . S
C448 N449 1.315 . S
C448 H451 0.930 . S
N449 Co429 2.194 . S
N449 C444 1.328 . S
N449 C448 1.315 . S
H450 C444 0.929 1_655 S
H451 C448 0.930 . S
H452 C440 0.929 . S
H453 C442 0.929 . S
O454 Co429 2.351 1_655 S
O454 C457 1.244 . S
O455 Co429 2.155 1_655 S
O455 C457 1.240 . S
O456 Co429 2.096 . S
O456 C437 1.247 . S
C457 O454 1.244 . S
C457 O455 1.240 . S
H458 C432 0.931 . S
H459 C441 0.931 . S
H460 C445 0.929 . S
H461 C447 0.930 1_655 S
Co462 N466 2.148 1_545 S
Co462 N472 2.128 . S
Co462 N482 2.194 . S
Co462 O487 2.351 . S
Co462 O488 2.155 . S
Co462 O489 2.079 1_545 S
C463 N466 1.301 . S
C463 N467 1.328 . S
C463 H468 0.930 . S
C464 C465 1.333 . S
C464 N466 1.317 . S
C464 H469 0.930 . S
C465 C464 1.333 . S
C465 N467 1.350 . S
C465 H491 0.931 . S
N466 Co462 2.148 1_565 S
N466 C463 1.301 . S
N466 C464 1.317 . S
N467 C463 1.328 . S
N467 C465 1.350 . S
H468 C463 0.930 . S
H469 C464 0.930 . S
C470 O471 1.224 . S
C470 O489 1.269 . S
O471 C470 1.224 . S
N472 Co462 2.128 . S
N472 C473 1.355 . S
N472 C475 1.311 . S
C473 N472 1.355 . S
C473 C474 1.363 . S
C473 H485 0.929 . S
C474 C473 1.363 . S
C474 N476 1.375 . S
C474 H492 0.931 . S
C475 N472 1.311 . S
C475 N476 1.347 . S
C475 H486 0.929 . S
N476 C474 1.375 . S
N476 C475 1.347 . S
C477 C480 1.365 . S
C477 N482 1.328 . S
C477 H483 0.929 . S
C478 C479 1.341 1_565 S
C478 C481 1.377 . S
C478 H493 0.953 . S
C479 C478 1.341 1_545 S
C479 C480 1.366 . S
C480 C477 1.365 . S
C480 C479 1.366 . S
C480 H494 0.930 . S
C481 C478 1.377 . S
C481 N482 1.318 1_565 S
C481 H484 0.927 . S
N482 Co462 2.194 . S
N482 C477 1.328 . S
N482 C481 1.318 1_545 S
H483 C477 0.929 . S
H484 C481 0.927 . S
H485 C473 0.929 . S
H486 C475 0.929 . S
O487 Co462 2.351 . S
O487 C490 1.244 . S
O488 Co462 2.155 . S
O488 C490 1.240 . S
O489 Co462 2.079 1_565 S
O489 C470 1.269 . S
C490 O487 1.244 . S
C490 O488 1.240 . S
H491 C465 0.931 . S
H492 C474 0.931 . S
H493 C478 0.953 . S
H494 C480 0.930 . S
Co495 N499 2.148 . S
Co495 N505 2.128 1_455 S
Co495 N515 2.194 . S
Co495 O520 2.351 1_455 S
Co495 O521 2.155 1_455 S
Co495 O522 2.096 . S
C496 N499 1.301 . S
C496 N500 1.328 . S
C496 H501 0.930 . S
C497 C498 1.333 . S
C497 N499 1.317 . S
C497 H502 0.930 . S
C498 C497 1.333 . S
C498 N500 1.350 . S
C498 H524 0.931 . S
N499 Co495 2.148 . S
N499 C496 1.301 . S
N499 C497 1.317 . S
N500 C496 1.328 . S
N500 C498 1.350 . S
H501 C496 0.930 . S
H502 C497 0.930 . S
C503 O504 1.224 . S
C503 O522 1.247 . S
O504 C503 1.224 . S
N505 Co495 2.128 1_655 S
N505 C506 1.355 . S
N505 C508 1.311 . S
C506 N505 1.355 . S
C506 C507 1.363 . S
C506 H518 0.929 . S
C507 C506 1.363 . S
C507 N509 1.375 . S
C507 H525 0.931 . S
C508 N505 1.311 . S
C508 N509 1.347 . S
C508 H519 0.929 . S
N509 C507 1.375 . S
N509 C508 1.347 . S
C510 C513 1.365 . S
C510 N515 1.328 1_655 S
C510 H516 0.929 . S
C511 C512 1.362 . S
C511 C514 1.378 . S
C511 H526 0.929 . S
C512 C511 1.362 . S
C512 C513 1.366 1_455 S
C513 C510 1.365 . S
C513 C512 1.366 1_655 S
C513 H527 0.930 . S
C514 C511 1.378 . S
C514 N515 1.315 . S
C514 H517 0.930 . S
N515 Co495 2.194 . S
N515 C510 1.328 1_455 S
N515 C514 1.315 . S
H516 C510 0.929 . S
H517 C514 0.930 . S
H518 C506 0.929 . S
H519 C508 0.929 . S
O520 Co495 2.351 1_655 S
O520 C523 1.244 . S
O521 Co495 2.155 1_655 S
O521 C523 1.240 . S
O522 Co495 2.096 . S
O522 C503 1.247 . S
C523 O520 1.244 . S
C523 O521 1.240 . S
H524 C498 0.931 . S
H525 C507 0.931 . S
H526 C511 0.929 . S
H527 C513 0.930 . S
Co528 N532 2.148 1_554 S
Co528 N538 2.128 . S
Co528 N548 2.194 . S
Co528 O553 2.351 . S
Co528 O554 2.155 . S
Co528 O555 2.096 . S
C529 N532 1.301 . S
C529 N533 1.328 . S
C529 H534 0.930 . S
C530 C531 1.333 . S
C530 N532 1.317 . S
C530 H535 0.930 . S
C531 C530 1.333 . S
C531 N533 1.350 . S
C531 H557 0.931 . S
N532 Co528 2.148 1_556 S
N532 C529 1.301 . S
N532 C530 1.317 . S
N533 C529 1.328 . S
N533 C531 1.350 . S
H534 C529 0.930 . S
H535 C530 0.930 . S
C536 O537 1.224 . S
C536 O555 1.247 1_556 S
O537 C536 1.224 . S
N538 Co528 2.128 . S
N538 C539 1.355 . S
N538 C541 1.311 . S
C539 N538 1.355 . S
C539 C540 1.363 . S
C539 H551 0.929 . S
C540 C539 1.363 . S
C540 N542 1.375 . S
C540 H558 0.931 . S
C541 N538 1.311 . S
C541 N542 1.347 . S
C541 H552 0.929 . S
N542 C540 1.375 . S
N542 C541 1.347 . S
C543 C546 1.365 . S
C543 N548 1.328 . S
C543 H549 0.929 . S
C544 C545 1.362 . S
C544 C547 1.378 . S
C544 H559 0.929 1_554 S
C545 C544 1.362 . S
C545 C546 1.366 . S
C546 C543 1.365 . S
C546 C545 1.366 . S
C546 H560 0.930 . S
C547 C544 1.378 . S
C547 N548 1.315 . S
C547 H550 0.930 1_554 S
N548 Co528 2.194 . S
N548 C543 1.328 . S
N548 C547 1.315 . S
H549 C543 0.929 . S
H550 C547 0.930 1_556 S
H551 C539 0.929 . S
H552 C541 0.929 . S
O553 Co528 2.351 . S
O553 C556 1.244 . S
O554 Co528 2.155 . S
O554 C556 1.240 . S
O555 Co528 2.096 . S
O555 C536 1.247 1_554 S
C556 O553 1.244 . S
C556 O554 1.240 . S
H557 C531 0.931 . S
H558 C540 0.931 . S
H559 C544 0.929 1_556 S
H560 C546 0.930 . S
Co561 N565 2.148 . S
Co561 N571 2.128 1_554 S
Co561 N581 2.194 . S
Co561 O586 2.351 1_554 S
Co561 O587 2.155 1_554 S
Co561 O588 2.096 . S
C562 N565 1.301 . S
C562 N566 1.328 . S
C562 H567 0.930 . S
C563 C564 1.333 . S
C563 N565 1.317 . S
C563 H568 0.930 . S
C564 C563 1.333 . S
C564 N566 1.350 . S
C564 H590 0.931 . S
N565 Co561 2.148 . S
N565 C562 1.301 . S
N565 C563 1.317 . S
N566 C562 1.328 . S
N566 C564 1.350 . S
H567 C562 0.930 . S
H568 C563 0.930 . S
C569 O570 1.224 . S
C569 O588 1.247 . S
O570 C569 1.224 . S
N571 Co561 2.128 1_556 S
N571 C572 1.355 . S
N571 C574 1.311 . S
C572 N571 1.355 . S
C572 C573 1.363 . S
C572 H584 0.929 . S
C573 C572 1.363 . S
C573 N575 1.375 . S
C573 H591 0.931 . S
C574 N571 1.311 . S
C574 N575 1.347 . S
C574 H585 0.929 . S
N575 C573 1.375 . S
N575 C574 1.347 . S
C576 C579 1.365 . S
C576 N581 1.350 . S
C576 H582 0.909 1_554 S
C577 C578 1.362 . S
C577 C580 1.378 . S
C577 H592 0.929 . S
C578 C577 1.362 . S
C578 C579 1.381 . S
C579 C576 1.365 . S
C579 C578 1.381 . S
C579 H593 0.915 1_554 S
C580 C577 1.378 . S
C580 N581 1.315 . S
C580 H583 0.930 . S
N581 Co561 2.194 . S
N581 C576 1.350 . S
N581 C580 1.315 . S
H582 C576 0.909 1_556 S
H583 C580 0.930 . S
H584 C572 0.929 . S
H585 C574 0.929 . S
O586 Co561 2.351 1_556 S
O586 C589 1.244 . S
O587 Co561 2.155 1_556 S
O587 C589 1.240 . S
O588 Co561 2.096 . S
O588 C569 1.247 . S
C589 O586 1.244 . S
C589 O587 1.240 . S
H590 C564 0.931 . S
H591 C573 0.931 . S
H592 C577 0.929 . S
H593 C579 0.915 1_556 S
Co594 N598 2.148 . S
Co594 N604 2.128 1_554 S
Co594 N614 2.194 . S
Co594 O619 2.351 1_554 S
Co594 O620 2.155 1_554 S
Co594 O621 2.096 . S
C595 N598 1.301 . S
C595 N599 1.328 . S
C595 H600 0.930 . S
C596 C597 1.333 . S
C596 N598 1.317 . S
C596 H601 0.930 . S
C597 C596 1.333 . S
C597 N599 1.350 . S
C597 H623 0.931 . S
N598 Co594 2.148 . S
N598 C595 1.301 . S
N598 C596 1.317 . S
N599 C595 1.328 . S
N599 C597 1.350 . S
H600 C595 0.930 . S
H601 C596 0.930 . S
C602 O603 1.224 . S
C602 O621 1.247 . S
O603 C602 1.224 . S
N604 Co594 2.128 1_556 S
N604 C605 1.355 . S
N604 C607 1.311 . S
C605 N604 1.355 . S
C605 C606 1.363 . S
C605 H617 0.929 . S
C606 C605 1.363 . S
C606 N608 1.375 . S
C606 H624 0.931 . S
C607 N604 1.311 . S
C607 N608 1.347 . S
C607 H618 0.929 . S
N608 C606 1.375 . S
N608 C607 1.347 . S
C609 C612 1.365 . S
C609 N614 1.328 1_556 S
C609 H615 0.929 . S
C610 C611 1.362 . S
C610 C613 1.378 . S
C610 H625 0.929 . S
C611 C610 1.362 . S
C611 C612 1.366 1_554 S
C612 C609 1.365 . S
C612 C611 1.366 1_556 S
C612 H626 0.930 . S
C613 C610 1.378 . S
C613 N614 1.315 . S
C613 H616 0.930 . S
N614 Co594 2.194 . S
N614 C609 1.328 1_554 S
N614 C613 1.315 . S
H615 C609 0.929 . S
H616 C613 0.930 . S
H617 C605 0.929 . S
H618 C607 0.929 . S
O619 Co594 2.351 1_556 S
O619 C622 1.244 . S
O620 Co594 2.155 1_556 S
O620 C622 1.240 . S
O621 Co594 2.096 . S
O621 C602 1.247 . S
C622 O619 1.244 . S
C622 O620 1.240 . S
H623 C597 0.931 . S
H624 C606 0.931 . S
H625 C610 0.929 . S
H626 C612 0.930 . S
Co627 N631 2.148 . S
Co627 N637 2.128 1_554 S
Co627 N647 2.194 . S
Co627 O652 2.351 1_554 S
Co627 O653 2.155 1_554 S
Co627 O654 2.096 . S
C628 N631 1.301 . S
C628 N632 1.328 . S
C628 H633 0.930 . S
C629 C630 1.333 . S
C629 N631 1.317 . S
C629 H634 0.930 . S
C630 C629 1.333 . S
C630 N632 1.350 . S
C630 H656 0.931 . S
N631 Co627 2.148 . S
N631 C628 1.301 . S
N631 C629 1.317 . S
N632 C628 1.328 . S
N632 C630 1.350 . S
H633 C628 0.930 . S
H634 C629 0.930 . S
C635 O636 1.224 . S
C635 O654 1.247 . S
O636 C635 1.224 . S
N637 Co627 2.128 1_556 S
N637 C638 1.355 . S
N637 C640 1.311 . S
C638 N637 1.355 . S
C638 C639 1.363 . S
C638 H650 0.929 . S
C639 C638 1.363 . S
C639 N641 1.375 . S
C639 H657 0.931 . S
C640 N637 1.311 . S
C640 N641 1.347 . S
C640 H651 0.929 . S
N641 C639 1.375 . S
N641 C640 1.347 . S
C642 C645 1.365 . S
C642 N647 1.328 1_556 S
C642 H648 0.929 . S
C643 C644 1.362 . S
C643 C646 1.378 . S
C643 H658 0.929 . S
C644 C643 1.362 . S
C644 C645 1.366 1_554 S
C645 C642 1.365 . S
C645 C644 1.366 1_556 S
C645 H659 0.930 . S
C646 C643 1.378 . S
C646 N647 1.315 . S
C646 H649 0.930 . S
N647 Co627 2.194 . S
N647 C642 1.328 1_554 S
N647 C646 1.315 . S
H648 C642 0.929 . S
H649 C646 0.930 . S
H650 C638 0.929 . S
H651 C640 0.929 . S
O652 Co627 2.351 1_556 S
O652 C655 1.244 . S
O653 Co627 2.155 1_556 S
O653 C655 1.240 . S
O654 Co627 2.096 . S
O654 C635 1.247 . S
C655 O652 1.244 . S
C655 O653 1.240 . S
H656 C630 0.931 . S
H657 C639 0.931 . S
H658 C643 0.929 . S
H659 C645 0.930 . S
Co660 N664 2.148 . S
Co660 N670 2.128 1_554 S
Co660 N680 2.194 . S
Co660 O685 2.351 1_554 S
Co660 O686 2.155 1_554 S
Co660 O687 2.096 . S
C661 N664 1.301 . S
C661 N665 1.328 . S
C661 H666 0.930 . S
C662 C663 1.333 . S
C662 N664 1.317 . S
C662 H667 0.930 . S
C663 C662 1.333 . S
C663 N665 1.350 . S
C663 H689 0.931 . S
N664 Co660 2.148 . S
N664 C661 1.301 . S
N664 C662 1.317 . S
N665 C661 1.328 . S
N665 C663 1.350 . S
H666 C661 0.930 . S
H667 C662 0.930 . S
C668 O669 1.224 . S
C668 O687 1.247 . S
O669 C668 1.224 . S
N670 Co660 2.128 1_556 S
N670 C671 1.355 . S
N670 C673 1.311 . S
C671 N670 1.355 . S
C671 C672 1.363 . S
C671 H683 0.929 . S
C672 C671 1.363 . S
C672 N674 1.375 . S
C672 H690 0.931 . S
C673 N670 1.311 . S
C673 N674 1.347 . S
C673 H684 0.929 . S
N674 C672 1.375 . S
N674 C673 1.347 . S
C675 C678 1.365 . S
C675 N680 1.328 1_556 S
C675 H681 0.930 . S
C676 C677 1.362 . S
C676 C679 1.378 . S
C676 H691 0.929 . S
C677 C676 1.362 . S
C677 C678 1.357 1_554 S
C678 C675 1.365 . S
C678 C677 1.357 1_556 S
C678 H692 0.940 . S
C679 C676 1.378 . S
C679 N680 1.315 . S
C679 H682 0.930 . S
N680 Co660 2.194 . S
N680 C675 1.328 1_554 S
N680 C679 1.315 . S
H681 C675 0.930 . S
H682 C679 0.930 . S
H683 C671 0.929 . S
H684 C673 0.929 . S
O685 Co660 2.351 1_556 S
O685 C688 1.244 . S
O686 Co660 2.155 1_556 S
O686 C688 1.240 . S
O687 Co660 2.096 . S
O687 C668 1.247 . S
C688 O685 1.244 . S
C688 O686 1.240 . S
H689 C663 0.931 . S
H690 C672 0.931 . S
H691 C676 0.929 . S
H692 C678 0.940 . S
Co693 N697 2.148 1_554 S
Co693 N703 2.128 . S
Co693 N713 2.194 . S
Co693 O718 2.351 . S
Co693 O719 2.155 . S
Co693 O720 2.096 . S
C694 N697 1.301 . S
C694 N698 1.328 . S
C694 H699 0.930 . S
C695 C696 1.333 . S
C695 N697 1.317 . S
C695 H700 0.930 . S
C696 C695 1.333 . S
C696 N698 1.350 . S
C696 H722 0.931 . S
N697 Co693 2.148 1_556 S
N697 C694 1.301 . S
N697 C695 1.317 . S
N698 C694 1.328 . S
N698 C696 1.350 . S
H699 C694 0.930 . S
H700 C695 0.930 . S
C701 O702 1.224 . S
C701 O720 1.247 1_556 S
O702 C701 1.224 . S
N703 Co693 2.128 . S
N703 C704 1.355 . S
N703 C706 1.311 . S
C704 N703 1.355 . S
C704 C705 1.363 . S
C704 H716 0.929 . S
C705 C704 1.363 . S
C705 N707 1.375 . S
C705 H723 0.931 . S
C706 N703 1.311 . S
C706 N707 1.347 . S
C706 H717 0.929 . S
N707 C705 1.375 . S
N707 C706 1.347 . S
C708 C711 1.365 . S
C708 N713 1.328 . S
C708 H714 0.929 . S
C709 C710 1.362 . S
C709 C712 1.378 . S
C709 H724 0.929 1_554 S
C710 C709 1.362 . S
C710 C711 1.366 . S
C711 C708 1.365 . S
C711 C710 1.366 . S
C711 H725 0.930 . S
C712 C709 1.378 . S
C712 N713 1.315 . S
C712 H715 0.930 1_554 S
N713 Co693 2.194 . S
N713 C708 1.328 . S
N713 C712 1.315 . S
H714 C708 0.929 . S
H715 C712 0.930 1_556 S
H716 C704 0.929 . S
H717 C706 0.929 . S
O718 Co693 2.351 . S
O718 C721 1.244 . S
O719 Co693 2.155 . S
O719 C721 1.240 . S
O720 Co693 2.096 . S
O720 C701 1.247 1_554 S
C721 O718 1.244 . S
C721 O719 1.240 . S
H722 C696 0.931 . S
H723 C705 0.931 . S
H724 C709 0.929 1_556 S
H725 C711 0.930 . S
Co726 N730 2.148 1_554 S
Co726 N736 2.128 . S
Co726 N746 2.194 . S
Co726 O751 2.351 . S
Co726 O752 2.155 . S
Co726 O753 2.096 . S
C727 N730 1.301 . S
C727 N731 1.328 . S
C727 H732 0.970 . S
C728 C729 1.333 . S
C728 N730 1.317 . S
C728 H733 0.930 . S
C729 C728 1.333 . S
C729 N731 1.350 . S
C729 H755 0.931 . S
N730 Co726 2.148 1_556 S
N730 C727 1.301 . S
N730 C728 1.317 . S
N731 C727 1.328 . S
N731 C729 1.350 . S
H732 C727 0.970 . S
H733 C728 0.930 . S
C734 O735 1.224 . S
C734 O753 1.247 1_556 S
O735 C734 1.224 . S
N736 Co726 2.128 . S
N736 C737 1.355 . S
N736 C739 1.311 . S
C737 N736 1.355 . S
C737 C738 1.363 . S
C737 H749 0.929 . S
C738 C737 1.363 . S
C738 N740 1.375 . S
C738 H756 0.931 . S
C739 N736 1.311 . S
C739 N740 1.347 . S
C739 H750 0.929 . S
N740 C738 1.375 . S
N740 C739 1.347 . S
C741 C744 1.365 . S
C741 N746 1.328 . S
C741 H747 0.929 . S
C742 C743 1.362 . S
C742 C745 1.378 . S
C742 H757 0.929 1_554 S
C743 C742 1.362 . S
C743 C744 1.366 . S
C744 C741 1.365 . S
C744 C743 1.366 . S
C744 H758 0.930 . S
C745 C742 1.378 . S
C745 N746 1.315 . S
C745 H748 0.930 1_554 S
N746 Co726 2.194 . S
N746 C741 1.328 . S
N746 C745 1.315 . S
H747 C741 0.929 . S
H748 C745 0.930 1_556 S
H749 C737 0.929 . S
H750 C739 0.929 . S
O751 Co726 2.351 . S
O751 C754 1.244 . S
O752 Co726 2.155 . S
O752 C754 1.240 . S
O753 Co726 2.096 . S
O753 C734 1.247 1_554 S
C754 O751 1.244 . S
C754 O752 1.240 . S
H755 C729 0.931 . S
H756 C738 0.931 . S
H757 C742 0.929 1_556 S
H758 C744 0.930 . S
Co759 N763 2.148 1_554 S
Co759 N769 2.128 . S
Co759 N779 2.194 . S
Co759 O784 2.351 . S
Co759 O785 2.155 . S
Co759 O786 2.111 . S
C760 N763 1.301 . S
C760 N764 1.328 . S
C760 H765 0.930 . S
C761 C762 1.333 . S
C761 N763 1.317 . S
C761 H766 0.930 . S
C762 C761 1.333 . S
C762 N764 1.350 . S
C762 H788 0.931 . S
N763 Co759 2.148 1_556 S
N763 C760 1.301 . S
N763 C761 1.317 . S
N764 C760 1.328 . S
N764 C762 1.350 . S
H765 C760 0.930 . S
H766 C761 0.930 . S
C767 O768 1.224 . S
C767 O786 1.226 1_556 S
O768 C767 1.224 . S
N769 Co759 2.128 . S
N769 C770 1.355 . S
N769 C772 1.311 . S
C770 N769 1.355 . S
C770 C771 1.363 . S
C770 H782 0.929 . S
C771 C770 1.363 . S
C771 N773 1.375 . S
C771 H789 0.931 . S
C772 N769 1.311 . S
C772 N773 1.347 . S
C772 H783 0.929 . S
N773 C771 1.375 . S
N773 C772 1.347 . S
C774 C777 1.365 . S
C774 N779 1.328 . S
C774 H780 0.929 . S
C775 C776 1.377 . S
C775 C778 1.379 . S
C775 H790 0.914 1_554 S
C776 C775 1.377 . S
C776 C777 1.366 . S
C777 C774 1.365 . S
C777 C776 1.366 . S
C777 H791 0.930 . S
C778 C775 1.379 . S
C778 N779 1.315 . S
C778 H781 0.930 1_554 S
N779 Co759 2.194 . S
N779 C774 1.328 . S
N779 C778 1.315 . S
H780 C774 0.929 . S
H781 C778 0.930 1_556 S
H782 C770 0.929 . S
H783 C772 0.929 . S
O784 Co759 2.351 . S
O784 C787 1.244 . S
O785 Co759 2.155 . S
O785 C787 1.240 . S
O786 Co759 2.111 . S
O786 C767 1.226 1_554 S
C787 O784 1.244 . S
C787 O785 1.240 . S
H788 C762 0.931 . S
H789 C771 0.931 . S
H790 C775 0.914 1_556 S
H791 C777 0.930 . S
Co792 N796 2.148 . S
Co792 N802 2.128 . S
Co792 N812 2.194 . S
Co792 O817 2.351 . S
Co792 O818 2.155 . S
Co792 O819 2.096 . S
C793 N796 1.301 . S
C793 N797 1.328 . S
C793 H798 0.930 . S
C794 C795 1.333 . S
C794 N796 1.317 . S
C794 H799 0.930 . S
C795 C794 1.333 . S
C795 N797 1.350 . S
C795 H821 0.931 . S
N796 Co792 2.148 . S
N796 C793 1.301 . S
N796 C794 1.317 . S
N797 C793 1.328 . S
N797 C795 1.350 . S
H798 C793 0.930 . S
H799 C794 0.930 . S
C800 O801 1.224 . S
C800 O819 1.247 . S
O801 C800 1.224 . S
N802 Co792 2.128 . S
N802 C803 1.355 . S
N802 C805 1.311 . S
C803 N802 1.355 . S
C803 C804 1.363 . S
C803 H815 0.929 . S
C804 C803 1.363 . S
C804 N806 1.375 . S
C804 H822 0.931 . S
C805 N802 1.311 . S
C805 N806 1.347 . S
C805 H816 0.929 . S
N806 C804 1.375 . S
N806 C805 1.347 . S
C807 C810 1.365 . S
C807 N812 1.328 . S
C807 H813 0.929 . S
C808 C809 1.362 . S
C808 C811 1.378 . S
C808 H823 0.929 . S
C809 C808 1.362 . S
C809 C810 1.366 . S
C810 C807 1.365 . S
C810 C809 1.366 . S
C810 H824 0.930 . S
C811 C808 1.378 . S
C811 N812 1.315 . S
C811 H814 0.930 . S
N812 Co792 2.194 . S
N812 C807 1.328 . S
N812 C811 1.315 . S
H813 C807 0.929 . S
H814 C811 0.930 . S
H815 C803 0.929 . S
H816 C805 0.929 . S
O817 Co792 2.351 . S
O817 C820 1.244 . S
O818 Co792 2.155 . S
O818 C820 1.240 . S
O819 Co792 2.096 . S
O819 C800 1.247 . S
C820 O817 1.244 . S
C820 O818 1.240 . S
H821 C795 0.931 . S
H822 C804 0.931 . S
H823 C808 0.929 . S
H824 C810 0.930 . S
Co825 N829 2.148 . S
Co825 N835 2.128 . S
Co825 N845 2.194 . S
Co825 O850 2.351 . S
Co825 O851 2.155 . S
Co825 O852 2.096 . S
C826 N829 1.301 . S
C826 N830 1.328 . S
C826 H831 0.930 . S
C827 C828 1.333 . S
C827 N829 1.317 . S
C827 H832 0.930 . S
C828 C827 1.333 . S
C828 N830 1.350 . S
C828 H854 0.931 . S
N829 Co825 2.148 . S
N829 C826 1.301 . S
N829 C827 1.317 . S
N830 C826 1.328 . S
N830 C828 1.350 . S
H831 C826 0.930 . S
H832 C827 0.930 . S
C833 O834 1.224 . S
C833 O852 1.247 . S
O834 C833 1.224 . S
N835 Co825 2.128 . S
N835 C836 1.355 . S
N835 C838 1.311 . S
C836 N835 1.355 . S
C836 C837 1.363 . S
C836 H848 0.929 . S
C837 C836 1.363 . S
C837 N839 1.375 . S
C837 H855 0.931 . S
C838 N835 1.311 . S
C838 N839 1.347 . S
C838 H849 0.929 . S
N839 C837 1.375 . S
N839 C838 1.347 . S
C840 C843 1.365 . S
C840 N845 1.328 . S
C840 H846 0.929 . S
C841 C842 1.362 . S
C841 C844 1.378 . S
C841 H856 0.929 . S
C842 C841 1.362 . S
C842 C843 1.366 . S
C843 C840 1.365 . S
C843 C842 1.366 . S
C843 H857 0.930 . S
C844 C841 1.378 . S
C844 N845 1.315 . S
C844 H847 0.930 . S
N845 Co825 2.194 . S
N845 C840 1.328 . S
N845 C844 1.315 . S
H846 C840 0.929 . S
H847 C844 0.930 . S
H848 C836 0.929 . S
H849 C838 0.929 . S
O850 Co825 2.351 . S
O850 C853 1.244 . S
O851 Co825 2.155 . S
O851 C853 1.240 . S
O852 Co825 2.096 . S
O852 C833 1.247 . S
C853 O850 1.244 . S
C853 O851 1.240 . S
H854 C828 0.931 . S
H855 C837 0.931 . S
H856 C841 0.929 . S
H857 C843 0.930 . S
Co858 N862 2.148 . S
Co858 N868 2.128 . S
Co858 N878 2.194 . S
Co858 O883 2.351 . S
Co858 O884 2.155 . S
Co858 O885 2.096 . S
C859 N862 1.301 . S
C859 N863 1.328 . S
C859 H864 0.930 . S
C860 C861 1.333 . S
C860 N862 1.317 . S
C860 H865 0.930 . S
C861 C860 1.333 . S
C861 N863 1.350 . S
C861 H887 0.931 . S
N862 Co858 2.148 . S
N862 C859 1.301 . S
N862 C860 1.317 . S
N863 C859 1.328 . S
N863 C861 1.350 . S
H864 C859 0.930 . S
H865 C860 0.930 . S
C866 O867 1.224 . S
C866 O885 1.247 . S
O867 C866 1.224 . S
N868 Co858 2.128 . S
N868 C869 1.355 . S
N868 C871 1.311 . S
C869 N868 1.355 . S
C869 C870 1.363 . S
C869 H881 0.929 . S
C870 C869 1.363 . S
C870 N872 1.375 . S
C870 H888 0.931 . S
C871 N868 1.311 . S
C871 N872 1.347 . S
C871 H882 0.929 . S
N872 C870 1.375 . S
N872 C871 1.347 . S
C873 C876 1.365 . S
C873 N878 1.328 . S
C873 H879 0.929 . S
C874 C875 1.362 . S
C874 C877 1.378 . S
C874 H889 0.929 . S
C875 C874 1.362 . S
C875 C876 1.366 . S
C876 C873 1.365 . S
C876 C875 1.366 . S
C876 H890 0.930 . S
C877 C874 1.378 . S
C877 N878 1.315 . S
C877 H880 0.930 . S
N878 Co858 2.194 . S
N878 C873 1.328 . S
N878 C877 1.315 . S
H879 C873 0.929 . S
H880 C877 0.930 . S
H881 C869 0.929 . S
H882 C871 0.929 . S
O883 Co858 2.351 . S
O883 C886 1.244 . S
O884 Co858 2.155 . S
O884 C886 1.240 . S
O885 Co858 2.096 . S
O885 C866 1.247 . S
C886 O883 1.244 . S
C886 O884 1.240 . S
H887 C861 0.931 . S
H888 C870 0.931 . S
H889 C874 0.929 . S
H890 C876 0.930 . S
Co891 N895 2.148 . S
Co891 N901 2.128 . S
Co891 N911 2.194 . S
Co891 O916 2.351 . S
Co891 O917 2.155 . S
Co891 O918 2.096 . S
C892 N895 1.301 . S
C892 N896 1.328 . S
C892 H897 0.930 . S
C893 C894 1.333 . S
C893 N895 1.317 . S
C893 H898 0.930 . S
C894 C893 1.333 . S
C894 N896 1.350 . S
C894 H920 0.931 . S
N895 Co891 2.148 . S
N895 C892 1.301 . S
N895 C893 1.317 . S
N896 C892 1.328 . S
N896 C894 1.350 . S
H897 C892 0.930 . S
H898 C893 0.930 . S
C899 O900 1.224 . S
C899 O918 1.247 . S
O900 C899 1.224 . S
N901 Co891 2.128 . S
N901 C902 1.355 . S
N901 C904 1.311 . S
C902 N901 1.355 . S
C902 C903 1.363 . S
C902 H914 0.929 . S
C903 C902 1.363 . S
C903 N905 1.375 . S
C903 H921 0.931 . S
C904 N901 1.311 . S
C904 N905 1.347 . S
C904 H915 0.929 . S
N905 C903 1.375 . S
N905 C904 1.347 . S
C906 C909 1.365 . S
C906 N911 1.328 . S
C906 H912 0.929 . S
C907 C908 1.362 . S
C907 C910 1.378 . S
C907 H922 0.929 . S
C908 C907 1.362 . S
C908 C909 1.366 . S
C909 C906 1.365 . S
C909 C908 1.366 . S
C909 H923 0.930 . S
C910 C907 1.378 . S
C910 N911 1.315 . S
C910 H913 0.930 . S
N911 Co891 2.194 . S
N911 C906 1.328 . S
N911 C910 1.315 . S
H912 C906 0.929 . S
H913 C910 0.930 . S
H914 C902 0.929 . S
H915 C904 0.929 . S
O916 Co891 2.351 . S
O916 C919 1.244 . S
O917 Co891 2.155 . S
O917 C919 1.240 . S
O918 Co891 2.096 . S
O918 C899 1.247 . S
C919 O916 1.244 . S
C919 O917 1.240 . S
H920 C894 0.931 . S
H921 C903 0.931 . S
H922 C907 0.929 . S
H923 C909 0.930 . S
Co924 N928 2.148 . S
Co924 N934 2.128 . S
Co924 N944 2.194 . S
Co924 O949 2.351 . S
Co924 O950 2.155 . S
Co924 O951 2.096 . S
C925 N928 1.301 . S
C925 N929 1.328 . S
C925 H930 0.930 . S
C926 C927 1.333 . S
C926 N928 1.317 . S
C926 H931 0.930 . S
C927 C926 1.333 . S
C927 N929 1.350 . S
C927 H953 0.931 . S
N928 Co924 2.148 . S
N928 C925 1.301 . S
N928 C926 1.317 . S
N929 C925 1.328 . S
N929 C927 1.350 . S
H930 C925 0.930 . S
H931 C926 0.930 . S
C932 O933 1.224 . S
C932 O951 1.247 . S
O933 C932 1.224 . S
N934 Co924 2.128 . S
N934 C935 1.355 . S
N934 C937 1.311 . S
C935 N934 1.355 . S
C935 C936 1.363 . S
C935 H947 0.929 . S
C936 C935 1.363 . S
C936 N938 1.375 . S
C936 H954 0.931 . S
C937 N934 1.311 . S
C937 N938 1.347 . S
C937 H948 0.929 . S
N938 C936 1.375 . S
N938 C937 1.347 . S
C939 C942 1.365 . S
C939 N944 1.328 . S
C939 H945 0.929 . S
C940 C941 1.362 . S
C940 C943 1.378 . S
C940 H955 0.929 . S
C941 C940 1.362 . S
C941 C942 1.366 . S
C942 C939 1.365 . S
C942 C941 1.366 . S
C942 H956 0.930 . S
C943 C940 1.378 . S
C943 N944 1.315 . S
C943 H946 0.930 . S
N944 Co924 2.194 . S
N944 C939 1.328 . S
N944 C943 1.315 . S
H945 C939 0.929 . S
H946 C943 0.930 . S
H947 C935 0.929 . S
H948 C937 0.929 . S
O949 Co924 2.351 . S
O949 C952 1.244 . S
O950 Co924 2.155 . S
O950 C952 1.240 . S
O951 Co924 2.096 . S
O951 C932 1.247 . S
C952 O949 1.244 . S
C952 O950 1.240 . S
H953 C927 0.931 . S
H954 C936 0.931 . S
H955 C940 0.929 . S
H956 C942 0.930 . S
Co957 N961 2.148 . S
Co957 N967 2.128 . S
Co957 N977 2.194 . S
Co957 O982 2.351 . S
Co957 O983 2.155 . S
Co957 O984 2.096 . S
C958 N961 1.301 . S
C958 N962 1.328 . S
C958 H963 0.930 . S
C959 C960 1.333 . S
C959 N961 1.317 . S
C959 H964 0.930 . S
C960 C959 1.333 . S
C960 N962 1.350 . S
C960 H986 0.931 . S
N961 Co957 2.148 . S
N961 C958 1.301 . S
N961 C959 1.317 . S
N962 C958 1.328 . S
N962 C960 1.350 . S
H963 C958 0.930 . S
H964 C959 0.930 . S
C965 O966 1.224 . S
C965 O984 1.247 . S
O966 C965 1.224 . S
N967 Co957 2.128 . S
N967 C968 1.355 . S
N967 C970 1.311 . S
C968 N967 1.355 . S
C968 C969 1.363 . S
C968 H980 0.929 . S
C969 C968 1.363 . S
C969 N971 1.375 . S
C969 H987 0.931 . S
C970 N967 1.311 . S
C970 N971 1.347 . S
C970 H981 0.929 . S
N971 C969 1.375 . S
N971 C970 1.347 . S
C972 C975 1.365 . S
C972 N977 1.328 . S
C972 H978 0.929 . S
C973 C974 1.362 . S
C973 C976 1.378 . S
C973 H988 0.929 . S
C974 C973 1.362 . S
C974 C975 1.366 . S
C975 C972 1.365 . S
C975 C974 1.366 . S
C975 H989 0.930 . S
C976 C973 1.378 . S
C976 N977 1.315 . S
C976 H979 0.930 . S
N977 Co957 2.194 . S
N977 C972 1.328 . S
N977 C976 1.315 . S
H978 C972 0.929 . S
H979 C976 0.930 . S
H980 C968 0.929 . S
H981 C970 0.929 . S
O982 Co957 2.351 . S
O982 C985 1.244 . S
O983 Co957 2.155 . S
O983 C985 1.240 . S
O984 Co957 2.096 . S
O984 C965 1.247 . S
C985 O982 1.244 . S
C985 O983 1.240 . S
H986 C960 0.931 . S
H987 C969 0.931 . S
H988 C973 0.929 . S
H989 C975 0.930 . S
Co990 N994 2.148 . S
Co990 N1000 2.128 . S
Co990 N1010 2.194 . S
Co990 O1015 2.351 . S
Co990 O1016 2.155 . S
Co990 O1017 2.096 . S
C991 N994 1.301 . S
C991 N995 1.328 . S
C991 H996 0.930 . S
C992 C993 1.333 . S
C992 N994 1.317 . S
C992 H997 0.930 . S
C993 C992 1.333 . S
C993 N995 1.350 . S
C993 H1019 0.931 . S
N994 Co990 2.148 . S
N994 C991 1.301 . S
N994 C992 1.317 . S
N995 C991 1.328 . S
N995 C993 1.350 . S
H996 C991 0.930 . S
H997 C992 0.930 . S
C998 O999 1.224 . S
C998 O1017 1.247 . S
O999 C998 1.224 . S
N1000 Co990 2.128 . S
N1000 C1001 1.355 . S
N1000 C1003 1.311 . S
C1001 N1000 1.355 . S
C1001 C1002 1.363 . S
C1001 H1013 0.929 . S
C1002 C1001 1.363 . S
C1002 N1004 1.375 . S
C1002 H1020 0.931 . S
C1003 N1000 1.311 . S
C1003 N1004 1.347 . S
C1003 H1014 0.929 . S
N1004 C1002 1.375 . S
N1004 C1003 1.347 . S
C1005 C1008 1.365 . S
C1005 N1010 1.328 . S
C1005 H1011 0.929 . S
C1006 C1007 1.362 . S
C1006 C1009 1.378 . S
C1006 H1021 0.929 . S
C1007 C1006 1.362 . S
C1007 C1008 1.366 . S
C1008 C1005 1.365 . S
C1008 C1007 1.366 . S
C1008 H1022 0.930 . S
C1009 C1006 1.378 . S
C1009 N1010 1.315 . S
C1009 H1012 0.930 . S
N1010 Co990 2.194 . S
N1010 C1005 1.328 . S
N1010 C1009 1.315 . S
H1011 C1005 0.929 . S
H1012 C1009 0.930 . S
H1013 C1001 0.929 . S
H1014 C1003 0.929 . S
O1015 Co990 2.351 . S
O1015 C1018 1.244 . S
O1016 Co990 2.155 . S
O1016 C1018 1.240 . S
O1017 Co990 2.096 . S
O1017 C998 1.247 . S
C1018 O1015 1.244 . S
C1018 O1016 1.240 . S
H1019 C993 0.931 . S
H1020 C1002 0.931 . S
H1021 C1006 0.929 . S
H1022 C1008 0.930 . S
Co1023 N1027 2.148 . S
Co1023 N1033 2.128 . S
Co1023 N1043 2.194 . S
Co1023 O1048 2.351 . S
Co1023 O1049 2.155 . S
Co1023 O1050 2.096 . S
C1024 N1027 1.301 . S
C1024 N1028 1.328 . S
C1024 H1029 0.930 . S
C1025 C1026 1.333 . S
C1025 N1027 1.317 . S
C1025 H1030 0.930 . S
C1026 C1025 1.333 . S
C1026 N1028 1.350 . S
C1026 H1052 0.931 . S
N1027 Co1023 2.148 . S
N1027 C1024 1.301 . S
N1027 C1025 1.317 . S
N1028 C1024 1.328 . S
N1028 C1026 1.350 . S
H1029 C1024 0.930 . S
H1030 C1025 0.930 . S
C1031 O1032 1.224 . S
C1031 O1050 1.247 . S
O1032 C1031 1.224 . S
N1033 Co1023 2.128 . S
N1033 C1034 1.355 . S
N1033 C1036 1.311 . S
C1034 N1033 1.355 . S
C1034 C1035 1.363 . S
C1034 H1046 0.929 . S
C1035 C1034 1.363 . S
C1035 N1037 1.375 . S
C1035 H1053 0.931 . S
C1036 N1033 1.311 . S
C1036 N1037 1.347 . S
C1036 H1047 0.929 . S
N1037 C1035 1.375 . S
N1037 C1036 1.347 . S
C1038 C1041 1.365 . S
C1038 N1043 1.328 . S
C1038 H1044 0.929 . S
C1039 C1040 1.362 . S
C1039 C1042 1.378 . S
C1039 H1054 0.929 . S
C1040 C1039 1.362 . S
C1040 C1041 1.366 . S
C1041 C1038 1.365 . S
C1041 C1040 1.366 . S
C1041 H1055 0.930 . S
C1042 C1039 1.378 . S
C1042 N1043 1.315 . S
C1042 H1045 0.930 . S
N1043 Co1023 2.194 . S
N1043 C1038 1.328 . S
N1043 C1042 1.315 . S
H1044 C1038 0.929 . S
H1045 C1042 0.930 . S
H1046 C1034 0.929 . S
H1047 C1036 0.929 . S
O1048 Co1023 2.351 . S
O1048 C1051 1.244 . S
O1049 Co1023 2.155 . S
O1049 C1051 1.240 . S
O1050 Co1023 2.096 . S
O1050 C1031 1.247 . S
C1051 O1048 1.244 . S
C1051 O1049 1.240 . S
H1052 C1026 0.931 . S
H1053 C1035 0.931 . S
H1054 C1039 0.929 . S
H1055 C1041 0.930 . S
Co1056 N1060 2.148 . S
Co1056 N1066 2.128 . S
Co1056 N1076 2.194 . S
Co1056 O1081 2.351 . S
Co1056 O1082 2.155 . S
Co1056 O1083 2.096 . S
C1057 N1060 1.301 . S
C1057 N1061 1.328 . S
C1057 H1062 0.930 . S
C1058 C1059 1.333 . S
C1058 N1060 1.317 . S
C1058 H1063 0.930 . S
C1059 C1058 1.333 . S
C1059 N1061 1.350 . S
C1059 H1085 0.931 . S
N1060 Co1056 2.148 . S
N1060 C1057 1.301 . S
N1060 C1058 1.317 . S
N1061 C1057 1.328 . S
N1061 C1059 1.350 . S
H1062 C1057 0.930 . S
H1063 C1058 0.930 . S
C1064 O1065 1.224 . S
C1064 O1083 1.247 . S
O1065 C1064 1.224 . S
N1066 Co1056 2.128 . S
N1066 C1067 1.355 . S
N1066 C1069 1.311 . S
C1067 N1066 1.355 . S
C1067 C1068 1.363 . S
C1067 H1079 0.929 . S
C1068 C1067 1.363 . S
C1068 N1070 1.375 . S
C1068 H1086 0.931 . S
C1069 N1066 1.311 . S
C1069 N1070 1.347 . S
C1069 H1080 0.929 . S
N1070 C1068 1.375 . S
N1070 C1069 1.347 . S
C1071 C1074 1.365 . S
C1071 N1076 1.328 . S
C1071 H1077 0.929 . S
C1072 C1073 1.362 . S
C1072 C1075 1.378 . S
C1072 H1087 0.929 . S
C1073 C1072 1.362 . S
C1073 C1074 1.366 . S
C1074 C1071 1.365 . S
C1074 C1073 1.366 . S
C1074 H1088 0.930 . S
C1075 C1072 1.378 . S
C1075 N1076 1.315 . S
C1075 H1078 0.930 . S
N1076 Co1056 2.194 . S
N1076 C1071 1.328 . S
N1076 C1075 1.315 . S
H1077 C1071 0.929 . S
H1078 C1075 0.930 . S
H1079 C1067 0.929 . S
H1080 C1069 0.929 . S
O1081 Co1056 2.351 . S
O1081 C1084 1.244 . S
O1082 Co1056 2.155 . S
O1082 C1084 1.240 . S
O1083 Co1056 2.096 . S
O1083 C1064 1.247 . S
C1084 O1081 1.244 . S
C1084 O1082 1.240 . S
H1085 C1059 0.931 . S
H1086 C1068 0.931 . S
H1087 C1072 0.929 . S
H1088 C1074 0.930 . S
Co1089 N1093 2.148 . S
Co1089 N1099 2.128 . S
Co1089 N1109 2.194 . S
Co1089 O1114 2.351 . S
Co1089 O1115 2.155 . S
Co1089 O1116 2.096 . S
C1090 N1093 1.301 . S
C1090 N1094 1.328 . S
C1090 H1095 0.930 . S
C1091 C1092 1.333 . S
C1091 N1093 1.317 . S
C1091 H1096 0.930 . S
C1092 C1091 1.333 . S
C1092 N1094 1.350 . S
C1092 H1118 0.931 . S
N1093 Co1089 2.148 . S
N1093 C1090 1.301 . S
N1093 C1091 1.317 . S
N1094 C1090 1.328 . S
N1094 C1092 1.350 . S
H1095 C1090 0.930 . S
H1096 C1091 0.930 . S
C1097 O1098 1.224 . S
C1097 O1116 1.247 . S
O1098 C1097 1.224 . S
N1099 Co1089 2.128 . S
N1099 C1100 1.355 . S
N1099 C1102 1.311 . S
C1100 N1099 1.355 . S
C1100 C1101 1.363 . S
C1100 H1112 0.929 . S
C1101 C1100 1.363 . S
C1101 N1103 1.375 . S
C1101 H1119 0.931 . S
C1102 N1099 1.311 . S
C1102 N1103 1.347 . S
C1102 H1113 0.929 . S
N1103 C1101 1.375 . S
N1103 C1102 1.347 . S
C1104 C1107 1.365 . S
C1104 N1109 1.328 . S
C1104 H1110 0.929 . S
C1105 C1106 1.362 . S
C1105 C1108 1.378 . S
C1105 H1120 0.929 . S
C1106 C1105 1.362 . S
C1106 C1107 1.366 . S
C1107 C1104 1.365 . S
C1107 C1106 1.366 . S
C1107 H1121 0.930 . S
C1108 C1105 1.378 . S
C1108 N1109 1.315 . S
C1108 H1111 0.930 . S
N1109 Co1089 2.194 . S
N1109 C1104 1.328 . S
N1109 C1108 1.315 . S
H1110 C1104 0.929 . S
H1111 C1108 0.930 . S
H1112 C1100 0.929 . S
H1113 C1102 0.929 . S
O1114 Co1089 2.351 . S
O1114 C1117 1.244 . S
O1115 Co1089 2.155 . S
O1115 C1117 1.240 . S
O1116 Co1089 2.096 . S
O1116 C1097 1.247 . S
C1117 O1114 1.244 . S
C1117 O1115 1.240 . S
H1118 C1092 0.931 . S
H1119 C1101 0.931 . S
H1120 C1105 0.929 . S
H1121 C1107 0.930 . S
Co1122 N1126 2.148 . S
Co1122 N1132 2.128 . S
Co1122 N1142 2.194 . S
Co1122 O1147 2.351 . S
Co1122 O1148 2.155 . S
Co1122 O1149 2.096 . S
C1123 N1126 1.301 . S
C1123 N1127 1.328 . S
C1123 H1128 0.930 . S
C1124 C1125 1.333 . S
C1124 N1126 1.317 . S
C1124 H1129 0.930 . S
C1125 C1124 1.333 . S
C1125 N1127 1.350 . S
C1125 H1151 0.931 . S
N1126 Co1122 2.148 . S
N1126 C1123 1.301 . S
N1126 C1124 1.317 . S
N1127 C1123 1.328 . S
N1127 C1125 1.350 . S
H1128 C1123 0.930 . S
H1129 C1124 0.930 . S
C1130 O1131 1.224 . S
C1130 O1149 1.247 . S
O1131 C1130 1.224 . S
N1132 Co1122 2.128 . S
N1132 C1133 1.355 . S
N1132 C1135 1.311 . S
C1133 N1132 1.355 . S
C1133 C1134 1.363 . S
C1133 H1145 0.929 . S
C1134 C1133 1.363 . S
C1134 N1136 1.375 . S
C1134 H1152 0.931 . S
C1135 N1132 1.311 . S
C1135 N1136 1.347 . S
C1135 H1146 0.929 . S
N1136 C1134 1.375 . S
N1136 C1135 1.347 . S
C1137 C1140 1.365 . S
C1137 N1142 1.328 . S
C1137 H1143 0.929 . S
C1138 C1139 1.362 . S
C1138 C1141 1.378 . S
C1138 H1153 0.929 . S
C1139 C1138 1.362 . S
C1139 C1140 1.366 . S
C1140 C1137 1.365 . S
C1140 C1139 1.366 . S
C1140 H1154 0.930 . S
C1141 C1138 1.378 . S
C1141 N1142 1.315 . S
C1141 H1144 0.930 . S
N1142 Co1122 2.194 . S
N1142 C1137 1.328 . S
N1142 C1141 1.315 . S
H1143 C1137 0.929 . S
H1144 C1141 0.930 . S
H1145 C1133 0.929 . S
H1146 C1135 0.929 . S
O1147 Co1122 2.351 . S
O1147 C1150 1.244 . S
O1148 Co1122 2.155 . S
O1148 C1150 1.240 . S
O1149 Co1122 2.096 . S
O1149 C1130 1.247 . S
C1150 O1147 1.244 . S
C1150 O1148 1.240 . S
H1151 C1125 0.931 . S
H1152 C1134 0.931 . S
H1153 C1138 0.929 . S
H1154 C1140 0.930 . S
Co1155 N1159 2.148 . S
Co1155 N1165 2.128 . S
Co1155 N1175 2.194 . S
Co1155 O1180 2.351 . S
Co1155 O1181 2.155 . S
Co1155 O1182 2.096 . S
C1156 N1159 1.301 . S
C1156 N1160 1.328 . S
C1156 H1161 0.930 . S
C1157 C1158 1.333 . S
C1157 N1159 1.317 . S
C1157 H1162 0.930 . S
C1158 C1157 1.333 . S
C1158 N1160 1.350 . S
C1158 H1184 0.931 . S
N1159 Co1155 2.148 . S
N1159 C1156 1.301 . S
N1159 C1157 1.317 . S
N1160 C1156 1.328 . S
N1160 C1158 1.350 . S
H1161 C1156 0.930 . S
H1162 C1157 0.930 . S
C1163 O1164 1.224 . S
C1163 O1182 1.247 . S
O1164 C1163 1.224 . S
N1165 Co1155 2.128 . S
N1165 C1166 1.355 . S
N1165 C1168 1.311 . S
C1166 N1165 1.355 . S
C1166 C1167 1.363 . S
C1166 H1178 0.929 . S
C1167 C1166 1.363 . S
C1167 N1169 1.375 . S
C1167 H1185 0.931 . S
C1168 N1165 1.311 . S
C1168 N1169 1.347 . S
C1168 H1179 0.929 . S
N1169 C1167 1.375 . S
N1169 C1168 1.347 . S
C1170 C1173 1.365 . S
C1170 N1175 1.328 . S
C1170 H1176 0.929 . S
C1171 C1172 1.362 . S
C1171 C1174 1.378 . S
C1171 H1186 0.929 . S
C1172 C1171 1.362 . S
C1172 C1173 1.366 . S
C1173 C1170 1.365 . S
C1173 C1172 1.366 . S
C1173 H1187 0.930 . S
C1174 C1171 1.378 . S
C1174 N1175 1.315 . S
C1174 H1177 0.930 . S
N1175 Co1155 2.194 . S
N1175 C1170 1.328 . S
N1175 C1174 1.315 . S
H1176 C1170 0.929 . S
H1177 C1174 0.930 . S
H1178 C1166 0.929 . S
H1179 C1168 0.929 . S
O1180 Co1155 2.351 . S
O1180 C1183 1.244 . S
O1181 Co1155 2.155 . S
O1181 C1183 1.240 . S
O1182 Co1155 2.096 . S
O1182 C1163 1.247 . S
C1183 O1180 1.244 . S
C1183 O1181 1.240 . S
H1184 C1158 0.931 . S
H1185 C1167 0.931 . S
H1186 C1171 0.929 . S
H1187 C1173 0.930 . S
Co1188 N1192 2.148 . S
Co1188 N1198 2.128 . S
Co1188 N1208 2.194 . S
Co1188 O1213 2.351 . S
Co1188 O1214 2.155 . S
Co1188 O1215 2.096 . S
C1189 N1192 1.301 . S
C1189 N1193 1.328 . S
C1189 H1194 0.930 . S
C1190 C1191 1.333 . S
C1190 N1192 1.317 . S
C1190 H1195 0.930 . S
C1191 C1190 1.333 . S
C1191 N1193 1.350 . S
C1191 H1217 0.931 . S
N1192 Co1188 2.148 . S
N1192 C1189 1.301 . S
N1192 C1190 1.317 . S
N1193 C1189 1.328 . S
N1193 C1191 1.350 . S
H1194 C1189 0.930 . S
H1195 C1190 0.930 . S
C1196 O1197 1.224 . S
C1196 O1215 1.247 . S
O1197 C1196 1.224 . S
N1198 Co1188 2.128 . S
N1198 C1199 1.355 . S
N1198 C1201 1.311 . S
C1199 N1198 1.355 . S
C1199 C1200 1.363 . S
C1199 H1211 0.929 . S
C1200 C1199 1.363 . S
C1200 N1202 1.375 . S
C1200 H1218 0.931 . S
C1201 N1198 1.311 . S
C1201 N1202 1.347 . S
C1201 H1212 0.929 . S
N1202 C1200 1.375 . S
N1202 C1201 1.347 . S
C1203 C1206 1.365 . S
C1203 N1208 1.328 . S
C1203 H1209 0.929 . S
C1204 C1205 1.362 . S
C1204 C1207 1.378 . S
C1204 H1219 0.929 . S
C1205 C1204 1.362 . S
C1205 C1206 1.366 . S
C1206 C1203 1.365 . S
C1206 C1205 1.366 . S
C1206 H1220 0.930 . S
C1207 C1204 1.378 . S
C1207 N1208 1.315 . S
C1207 H1210 0.930 . S
N1208 Co1188 2.194 . S
N1208 C1203 1.328 . S
N1208 C1207 1.315 . S
H1209 C1203 0.929 . S
H1210 C1207 0.930 . S
H1211 C1199 0.929 . S
H1212 C1201 0.929 . S
O1213 Co1188 2.351 . S
O1213 C1216 1.244 . S
O1214 Co1188 2.155 . S
O1214 C1216 1.240 . S
O1215 Co1188 2.096 . S
O1215 C1196 1.247 . S
C1216 O1213 1.244 . S
C1216 O1214 1.240 . S
H1217 C1191 0.931 . S
H1218 C1200 0.931 . S
H1219 C1204 0.929 . S
H1220 C1206 0.930 . S
Co1221 N1225 2.148 . S
Co1221 N1231 2.128 . S
Co1221 N1241 2.194 . S
Co1221 O1246 2.351 . S
Co1221 O1247 2.155 . S
Co1221 O1248 2.096 . S
C1222 N1225 1.301 . S
C1222 N1226 1.328 . S
C1222 H1227 0.930 . S
C1223 C1224 1.333 . S
C1223 N1225 1.317 . S
C1223 H1228 0.930 . S
C1224 C1223 1.333 . S
C1224 N1226 1.350 . S
C1224 H1250 0.931 . S
N1225 Co1221 2.148 . S
N1225 C1222 1.301 . S
N1225 C1223 1.317 . S
N1226 C1222 1.328 . S
N1226 C1224 1.350 . S
H1227 C1222 0.930 . S
H1228 C1223 0.930 . S
C1229 O1230 1.224 . S
C1229 O1248 1.247 . S
O1230 C1229 1.224 . S
N1231 Co1221 2.128 . S
N1231 C1232 1.355 . S
N1231 C1234 1.311 . S
C1232 N1231 1.355 . S
C1232 C1233 1.363 . S
C1232 H1244 0.929 . S
C1233 C1232 1.363 . S
C1233 N1235 1.375 . S
C1233 H1251 0.931 . S
C1234 N1231 1.311 . S
C1234 N1235 1.347 . S
C1234 H1245 0.929 . S
N1235 C1233 1.375 . S
N1235 C1234 1.347 . S
C1236 C1239 1.365 . S
C1236 N1241 1.328 . S
C1236 H1242 0.929 . S
C1237 C1238 1.362 . S
C1237 C1240 1.378 . S
C1237 H1252 0.929 . S
C1238 C1237 1.362 . S
C1238 C1239 1.366 . S
C1239 C1236 1.365 . S
C1239 C1238 1.366 . S
C1239 H1253 0.930 . S
C1240 C1237 1.378 . S
C1240 N1241 1.315 . S
C1240 H1243 0.930 . S
N1241 Co1221 2.194 . S
N1241 C1236 1.328 . S
N1241 C1240 1.315 . S
H1242 C1236 0.929 . S
H1243 C1240 0.930 . S
H1244 C1232 0.929 . S
H1245 C1234 0.929 . S
O1246 Co1221 2.351 . S
O1246 C1249 1.244 . S
O1247 Co1221 2.155 . S
O1247 C1249 1.240 . S
O1248 Co1221 2.096 . S
O1248 C1229 1.247 . S
C1249 O1246 1.244 . S
C1249 O1247 1.240 . S
H1250 C1224 0.931 . S
H1251 C1233 0.931 . S
H1252 C1237 0.929 . S
H1253 C1239 0.930 . S
Co1254 N1258 2.148 . S
Co1254 N1264 2.128 . S
Co1254 N1274 2.194 . S
Co1254 O1279 2.351 . S
Co1254 O1280 2.155 . S
Co1254 O1281 2.096 . S
C1255 N1258 1.301 . S
C1255 N1259 1.328 . S
C1255 H1260 0.930 . S
C1256 C1257 1.333 . S
C1256 N1258 1.317 . S
C1256 H1261 0.930 . S
C1257 C1256 1.333 . S
C1257 N1259 1.350 . S
C1257 H1283 0.931 . S
N1258 Co1254 2.148 . S
N1258 C1255 1.301 . S
N1258 C1256 1.317 . S
N1259 C1255 1.328 . S
N1259 C1257 1.350 . S
H1260 C1255 0.930 . S
H1261 C1256 0.930 . S
C1262 O1263 1.224 . S
C1262 O1281 1.247 . S
O1263 C1262 1.224 . S
N1264 Co1254 2.128 . S
N1264 C1265 1.355 . S
N1264 C1267 1.311 . S
C1265 N1264 1.355 . S
C1265 C1266 1.363 . S
C1265 H1277 0.929 . S
C1266 C1265 1.363 . S
C1266 N1268 1.375 . S
C1266 H1284 0.931 . S
C1267 N1264 1.311 . S
C1267 N1268 1.347 . S
C1267 H1278 0.929 . S
N1268 C1266 1.375 . S
N1268 C1267 1.347 . S
C1269 C1272 1.365 . S
C1269 N1274 1.328 . S
C1269 H1275 0.929 . S
C1270 C1271 1.362 . S
C1270 C1273 1.378 . S
C1270 H1285 0.929 . S
C1271 C1270 1.362 . S
C1271 C1272 1.366 . S
C1272 C1269 1.365 . S
C1272 C1271 1.366 . S
C1272 H1286 0.930 . S
C1273 C1270 1.378 . S
C1273 N1274 1.315 . S
C1273 H1276 0.930 . S
N1274 Co1254 2.194 . S
N1274 C1269 1.328 . S
N1274 C1273 1.315 . S
H1275 C1269 0.929 . S
H1276 C1273 0.930 . S
H1277 C1265 0.929 . S
H1278 C1267 0.929 . S
O1279 Co1254 2.351 . S
O1279 C1282 1.244 . S
O1280 Co1254 2.155 . S
O1280 C1282 1.240 . S
O1281 Co1254 2.096 . S
O1281 C1262 1.247 . S
C1282 O1279 1.244 . S
C1282 O1280 1.240 . S
H1283 C1257 0.931 . S
H1284 C1266 0.931 . S
H1285 C1270 0.929 . S
H1286 C1272 0.930 . S
Co1287 N1291 2.148 . S
Co1287 N1297 2.128 . S
Co1287 N1307 2.194 . S
Co1287 O1312 2.351 . S
Co1287 O1313 2.155 . S
Co1287 O1314 2.096 . S
C1288 N1291 1.301 . S
C1288 N1292 1.328 . S
C1288 H1293 0.930 . S
C1289 C1290 1.333 . S
C1289 N1291 1.317 . S
C1289 H1294 0.930 . S
C1290 C1289 1.333 . S
C1290 N1292 1.350 . S
C1290 H1316 0.931 . S
N1291 Co1287 2.148 . S
N1291 C1288 1.301 . S
N1291 C1289 1.317 . S
N1292 C1288 1.328 . S
N1292 C1290 1.350 . S
H1293 C1288 0.930 . S
H1294 C1289 0.930 . S
C1295 O1296 1.224 . S
C1295 O1314 1.247 . S
O1296 C1295 1.224 . S
N1297 Co1287 2.128 . S
N1297 C1298 1.355 . S
N1297 C1300 1.311 . S
C1298 N1297 1.355 . S
C1298 C1299 1.363 . S
C1298 H1310 0.929 . S
C1299 C1298 1.363 . S
C1299 N1301 1.375 . S
C1299 H1317 0.931 . S
C1300 N1297 1.311 . S
C1300 N1301 1.347 . S
C1300 H1311 0.929 . S
N1301 C1299 1.375 . S
N1301 C1300 1.347 . S
C1302 C1305 1.365 . S
C1302 N1307 1.328 . S
C1302 H1308 0.929 . S
C1303 C1304 1.362 . S
C1303 C1306 1.378 . S
C1303 H1318 0.929 . S
C1304 C1303 1.362 . S
C1304 C1305 1.366 . S
C1305 C1302 1.365 . S
C1305 C1304 1.366 . S
C1305 H1319 0.930 . S
C1306 C1303 1.378 . S
C1306 N1307 1.315 . S
C1306 H1309 0.930 . S
N1307 Co1287 2.194 . S
N1307 C1302 1.328 . S
N1307 C1306 1.315 . S
H1308 C1302 0.929 . S
H1309 C1306 0.930 . S
H1310 C1298 0.929 . S
H1311 C1300 0.929 . S
O1312 Co1287 2.351 . S
O1312 C1315 1.244 . S
O1313 Co1287 2.155 . S
O1313 C1315 1.240 . S
O1314 Co1287 2.096 . S
O1314 C1295 1.247 . S
C1315 O1312 1.244 . S
C1315 O1313 1.240 . S
H1316 C1290 0.931 . S
H1317 C1299 0.931 . S
H1318 C1303 0.929 . S
H1319 C1305 0.930 . S
Co1320 N1324 2.148 . S
Co1320 N1330 2.128 . S
Co1320 N1340 2.194 . S
Co1320 O1345 2.351 . S
Co1320 O1346 2.155 . S
Co1320 O1347 2.096 . S
C1321 N1324 1.301 . S
C1321 N1325 1.328 . S
C1321 H1326 0.930 . S
C1322 C1323 1.333 . S
C1322 N1324 1.317 . S
C1322 H1327 0.930 . S
C1323 C1322 1.333 . S
C1323 N1325 1.350 . S
C1323 H1349 0.931 . S
N1324 Co1320 2.148 . S
N1324 C1321 1.301 . S
N1324 C1322 1.317 . S
N1325 C1321 1.328 . S
N1325 C1323 1.350 . S
H1326 C1321 0.930 . S
H1327 C1322 0.930 . S
C1328 O1329 1.224 . S
C1328 O1347 1.247 . S
O1329 C1328 1.224 . S
N1330 Co1320 2.128 . S
N1330 C1331 1.355 . S
N1330 C1333 1.311 . S
C1331 N1330 1.355 . S
C1331 C1332 1.363 . S
C1331 H1343 0.929 . S
C1332 C1331 1.363 . S
C1332 N1334 1.375 . S
C1332 H1350 0.931 . S
C1333 N1330 1.311 . S
C1333 N1334 1.347 . S
C1333 H1344 0.929 . S
N1334 C1332 1.375 . S
N1334 C1333 1.347 . S
C1335 C1338 1.365 . S
C1335 N1340 1.328 . S
C1335 H1341 0.929 . S
C1336 C1337 1.362 . S
C1336 C1339 1.378 . S
C1336 H1351 0.929 . S
C1337 C1336 1.362 . S
C1337 C1338 1.366 . S
C1338 C1335 1.365 . S
C1338 C1337 1.366 . S
C1338 H1352 0.930 . S
C1339 C1336 1.378 . S
C1339 N1340 1.315 . S
C1339 H1342 0.930 . S
N1340 Co1320 2.194 . S
N1340 C1335 1.328 . S
N1340 C1339 1.315 . S
H1341 C1335 0.929 . S
H1342 C1339 0.930 . S
H1343 C1331 0.929 . S
H1344 C1333 0.929 . S
O1345 Co1320 2.351 . S
O1345 C1348 1.244 . S
O1346 Co1320 2.155 . S
O1346 C1348 1.240 . S
O1347 Co1320 2.096 . S
O1347 C1328 1.247 . S
C1348 O1345 1.244 . S
C1348 O1346 1.240 . S
H1349 C1323 0.931 . S
H1350 C1332 0.931 . S
H1351 C1336 0.929 . S
H1352 C1338 0.930 . S
Co1353 N1357 2.148 . S
Co1353 N1363 2.128 . S
Co1353 N1373 2.194 . S
Co1353 O1378 2.351 . S
Co1353 O1379 2.155 . S
Co1353 O1380 2.096 . S
C1354 N1357 1.301 . S
C1354 N1358 1.328 . S
C1354 H1359 0.930 . S
C1355 C1356 1.333 . S
C1355 N1357 1.317 . S
C1355 H1360 0.930 . S
C1356 C1355 1.333 . S
C1356 N1358 1.350 . S
C1356 H1382 0.931 . S
N1357 Co1353 2.148 . S
N1357 C1354 1.301 . S
N1357 C1355 1.317 . S
N1358 C1354 1.328 . S
N1358 C1356 1.350 . S
H1359 C1354 0.930 . S
H1360 C1355 0.930 . S
C1361 O1362 1.224 . S
C1361 O1380 1.247 . S
O1362 C1361 1.224 . S
N1363 Co1353 2.128 . S
N1363 C1364 1.355 . S
N1363 C1366 1.311 . S
C1364 N1363 1.355 . S
C1364 C1365 1.363 . S
C1364 H1376 0.929 . S
C1365 C1364 1.363 . S
C1365 N1367 1.375 . S
C1365 H1383 0.931 . S
C1366 N1363 1.311 . S
C1366 N1367 1.347 . S
C1366 H1377 0.929 . S
N1367 C1365 1.375 . S
N1367 C1366 1.347 . S
C1368 C1371 1.365 . S
C1368 N1373 1.328 . S
C1368 H1374 0.929 . S
C1369 C1370 1.362 . S
C1369 C1372 1.378 . S
C1369 H1384 0.929 . S
C1370 C1369 1.362 . S
C1370 C1371 1.366 . S
C1371 C1368 1.365 . S
C1371 C1370 1.366 . S
C1371 H1385 0.930 . S
C1372 C1369 1.378 . S
C1372 N1373 1.315 . S
C1372 H1375 0.930 . S
N1373 Co1353 2.194 . S
N1373 C1368 1.328 . S
N1373 C1372 1.315 . S
H1374 C1368 0.929 . S
H1375 C1372 0.930 . S
H1376 C1364 0.929 . S
H1377 C1366 0.929 . S
O1378 Co1353 2.351 . S
O1378 C1381 1.244 . S
O1379 Co1353 2.155 . S
O1379 C1381 1.240 . S
O1380 Co1353 2.096 . S
O1380 C1361 1.247 . S
C1381 O1378 1.244 . S
C1381 O1379 1.240 . S
H1382 C1356 0.931 . S
H1383 C1365 0.931 . S
H1384 C1369 0.929 . S
H1385 C1371 0.930 . S
Co1386 N1390 2.148 . S
Co1386 N1396 2.128 . S
Co1386 N1406 2.194 . S
Co1386 O1411 2.351 . S
Co1386 O1412 2.155 . S
Co1386 O1413 2.096 . S
C1387 N1390 1.301 . S
C1387 N1391 1.328 . S
C1387 H1392 0.930 . S
C1388 C1389 1.333 . S
C1388 N1390 1.317 . S
C1388 H1393 0.930 . S
C1389 C1388 1.333 . S
C1389 N1391 1.350 . S
C1389 H1415 0.931 . S
N1390 Co1386 2.148 . S
N1390 C1387 1.301 . S
N1390 C1388 1.317 . S
N1391 C1387 1.328 . S
N1391 C1389 1.350 . S
H1392 C1387 0.930 . S
H1393 C1388 0.930 . S
C1394 O1395 1.224 . S
C1394 O1413 1.247 . S
O1395 C1394 1.224 . S
N1396 Co1386 2.128 . S
N1396 C1397 1.355 . S
N1396 C1399 1.311 . S
C1397 N1396 1.355 . S
C1397 C1398 1.363 . S
C1397 H1409 0.929 . S
C1398 C1397 1.363 . S
C1398 N1400 1.375 . S
C1398 H1416 0.931 . S
C1399 N1396 1.311 . S
C1399 N1400 1.347 . S
C1399 H1410 0.929 . S
N1400 C1398 1.375 . S
N1400 C1399 1.347 . S
C1401 C1404 1.365 . S
C1401 N1406 1.328 . S
C1401 H1407 0.929 . S
C1402 C1403 1.362 . S
C1402 C1405 1.378 . S
C1402 H1417 0.929 . S
C1403 C1402 1.362 . S
C1403 C1404 1.366 . S
C1404 C1401 1.365 . S
C1404 C1403 1.366 . S
C1404 H1418 0.930 . S
C1405 C1402 1.378 . S
C1405 N1406 1.315 . S
C1405 H1408 0.930 . S
N1406 Co1386 2.194 . S
N1406 C1401 1.328 . S
N1406 C1405 1.315 . S
H1407 C1401 0.929 . S
H1408 C1405 0.930 . S
H1409 C1397 0.929 . S
H1410 C1399 0.929 . S
O1411 Co1386 2.351 . S
O1411 C1414 1.244 . S
O1412 Co1386 2.155 . S
O1412 C1414 1.240 . S
O1413 Co1386 2.096 . S
O1413 C1394 1.247 . S
C1414 O1411 1.244 . S
C1414 O1412 1.240 . S
H1415 C1389 0.931 . S
H1416 C1398 0.931 . S
H1417 C1402 0.929 . S
H1418 C1404 0.930 . S
Co1419 N1423 2.148 . S
Co1419 N1429 2.128 . S
Co1419 N1439 2.194 . S
Co1419 O1444 2.351 . S
Co1419 O1445 2.155 . S
Co1419 O1446 2.096 . S
C1420 N1423 1.301 . S
C1420 N1424 1.328 . S
C1420 H1425 0.930 . S
C1421 C1422 1.333 . S
C1421 N1423 1.317 . S
C1421 H1426 0.930 . S
C1422 C1421 1.333 . S
C1422 N1424 1.350 . S
C1422 H1448 0.931 . S
N1423 Co1419 2.148 . S
N1423 C1420 1.301 . S
N1423 C1421 1.317 . S
N1424 C1420 1.328 . S
N1424 C1422 1.350 . S
H1425 C1420 0.930 . S
H1426 C1421 0.930 . S
C1427 O1428 1.224 . S
C1427 O1446 1.247 . S
O1428 C1427 1.224 . S
N1429 Co1419 2.128 . S
N1429 C1430 1.355 . S
N1429 C1432 1.311 . S
C1430 N1429 1.355 . S
C1430 C1431 1.363 . S
C1430 H1442 0.929 . S
C1431 C1430 1.363 . S
C1431 N1433 1.375 . S
C1431 H1449 0.931 . S
C1432 N1429 1.311 . S
C1432 N1433 1.347 . S
C1432 H1443 0.929 . S
N1433 C1431 1.375 . S
N1433 C1432 1.347 . S
C1434 C1437 1.365 . S
C1434 N1439 1.328 . S
C1434 H1440 0.929 . S
C1435 C1436 1.362 . S
C1435 C1438 1.378 . S
C1435 H1450 0.929 . S
C1436 C1435 1.362 . S
C1436 C1437 1.366 . S
C1437 C1434 1.365 . S
C1437 C1436 1.366 . S
C1437 H1451 0.930 . S
C1438 C1435 1.378 . S
C1438 N1439 1.315 . S
C1438 H1441 0.930 . S
N1439 Co1419 2.194 . S
N1439 C1434 1.328 . S
N1439 C1438 1.315 . S
H1440 C1434 0.929 . S
H1441 C1438 0.930 . S
H1442 C1430 0.929 . S
H1443 C1432 0.929 . S
O1444 Co1419 2.351 . S
O1444 C1447 1.244 . S
O1445 Co1419 2.155 . S
O1445 C1447 1.240 . S
O1446 Co1419 2.096 . S
O1446 C1427 1.247 . S
C1447 O1444 1.244 . S
C1447 O1445 1.240 . S
H1448 C1422 0.931 . S
H1449 C1431 0.931 . S
H1450 C1435 0.929 . S
H1451 C1437 0.930 . S
Co1452 N1456 2.148 . S
Co1452 N1462 2.128 . S
Co1452 N1472 2.194 . S
Co1452 O1477 2.351 . S
Co1452 O1478 2.155 . S
Co1452 O1479 2.096 . S
C1453 N1456 1.301 . S
C1453 N1457 1.328 . S
C1453 H1458 0.930 . S
C1454 C1455 1.333 . S
C1454 N1456 1.317 . S
C1454 H1459 0.930 . S
C1455 C1454 1.333 . S
C1455 N1457 1.350 . S
C1455 H1481 0.931 . S
N1456 Co1452 2.148 . S
N1456 C1453 1.301 . S
N1456 C1454 1.317 . S
N1457 C1453 1.328 . S
N1457 C1455 1.350 . S
H1458 C1453 0.930 . S
H1459 C1454 0.930 . S
C1460 O1461 1.224 . S
C1460 O1479 1.247 . S
O1461 C1460 1.224 . S
N1462 Co1452 2.128 . S
N1462 C1463 1.355 . S
N1462 C1465 1.311 . S
C1463 N1462 1.355 . S
C1463 C1464 1.363 . S
C1463 H1475 0.929 . S
C1464 C1463 1.363 . S
C1464 N1466 1.375 . S
C1464 H1482 0.931 . S
C1465 N1462 1.311 . S
C1465 N1466 1.347 . S
C1465 H1476 0.929 . S
N1466 C1464 1.375 . S
N1466 C1465 1.347 . S
C1467 C1470 1.365 . S
C1467 N1472 1.328 . S
C1467 H1473 0.929 . S
C1468 C1469 1.362 . S
C1468 C1471 1.378 . S
C1468 H1483 0.929 . S
C1469 C1468 1.362 . S
C1469 C1470 1.366 . S
C1470 C1467 1.365 . S
C1470 C1469 1.366 . S
C1470 H1484 0.930 . S
C1471 C1468 1.378 . S
C1471 N1472 1.315 . S
C1471 H1474 0.930 . S
N1472 Co1452 2.194 . S
N1472 C1467 1.328 . S
N1472 C1471 1.315 . S
H1473 C1467 0.929 . S
H1474 C1471 0.930 . S
H1475 C1463 0.929 . S
H1476 C1465 0.929 . S
O1477 Co1452 2.351 . S
O1477 C1480 1.244 . S
O1478 Co1452 2.155 . S
O1478 C1480 1.240 . S
O1479 Co1452 2.096 . S
O1479 C1460 1.247 . S
C1480 O1477 1.244 . S
C1480 O1478 1.240 . S
H1481 C1455 0.931 . S
H1482 C1464 0.931 . S
H1483 C1468 0.929 . S
H1484 C1470 0.930 . S
Co1485 N1489 2.148 . S
Co1485 N1495 2.128 . S
Co1485 N1505 2.194 . S
Co1485 O1510 2.351 . S
Co1485 O1511 2.155 . S
Co1485 O1512 2.096 . S
C1486 N1489 1.301 . S
C1486 N1490 1.328 . S
C1486 H1491 0.930 . S
C1487 C1488 1.333 . S
C1487 N1489 1.317 . S
C1487 H1492 0.930 . S
C1488 C1487 1.333 . S
C1488 N1490 1.350 . S
C1488 H1514 0.931 . S
N1489 Co1485 2.148 . S
N1489 C1486 1.301 . S
N1489 C1487 1.317 . S
N1490 C1486 1.328 . S
N1490 C1488 1.350 . S
H1491 C1486 0.930 . S
H1492 C1487 0.930 . S
C1493 O1494 1.224 . S
C1493 O1512 1.247 . S
O1494 C1493 1.224 . S
N1495 Co1485 2.128 . S
N1495 C1496 1.355 . S
N1495 C1498 1.311 . S
C1496 N1495 1.355 . S
C1496 C1497 1.363 . S
C1496 H1508 0.929 . S
C1497 C1496 1.363 . S
C1497 N1499 1.375 . S
C1497 H1515 0.931 . S
C1498 N1495 1.311 . S
C1498 N1499 1.347 . S
C1498 H1509 0.929 . S
N1499 C1497 1.375 . S
N1499 C1498 1.347 . S
C1500 C1503 1.365 . S
C1500 N1505 1.328 . S
C1500 H1506 0.929 . S
C1501 C1502 1.362 . S
C1501 C1504 1.378 . S
C1501 H1516 0.929 . S
C1502 C1501 1.362 . S
C1502 C1503 1.366 . S
C1503 C1500 1.365 . S
C1503 C1502 1.366 . S
C1503 H1517 0.930 . S
C1504 C1501 1.378 . S
C1504 N1505 1.315 . S
C1504 H1507 0.930 . S
N1505 Co1485 2.194 . S
N1505 C1500 1.328 . S
N1505 C1504 1.315 . S
H1506 C1500 0.929 . S
H1507 C1504 0.930 . S
H1508 C1496 0.929 . S
H1509 C1498 0.929 . S
O1510 Co1485 2.351 . S
O1510 C1513 1.244 . S
O1511 Co1485 2.155 . S
O1511 C1513 1.240 . S
O1512 Co1485 2.096 . S
O1512 C1493 1.247 . S
C1513 O1510 1.244 . S
C1513 O1511 1.240 . S
H1514 C1488 0.931 . S
H1515 C1497 0.931 . S
H1516 C1501 0.929 . S
H1517 C1503 0.930 . S
Co1518 N1522 2.148 . S
Co1518 N1528 2.128 . S
Co1518 N1538 2.194 . S
Co1518 O1543 2.351 . S
Co1518 O1544 2.155 . S
Co1518 O1545 2.096 . S
C1519 N1522 1.301 . S
C1519 N1523 1.328 . S
C1519 H1524 0.930 . S
C1520 C1521 1.333 . S
C1520 N1522 1.317 . S
C1520 H1525 0.930 . S
C1521 C1520 1.333 . S
C1521 N1523 1.350 . S
C1521 H1547 0.931 . S
N1522 Co1518 2.148 . S
N1522 C1519 1.301 . S
N1522 C1520 1.317 . S
N1523 C1519 1.328 . S
N1523 C1521 1.350 . S
H1524 C1519 0.930 . S
H1525 C1520 0.930 . S
C1526 O1527 1.224 . S
C1526 O1545 1.247 . S
O1527 C1526 1.224 . S
N1528 Co1518 2.128 . S
N1528 C1529 1.355 . S
N1528 C1531 1.311 . S
C1529 N1528 1.355 . S
C1529 C1530 1.363 . S
C1529 H1541 0.929 . S
C1530 C1529 1.363 . S
C1530 N1532 1.375 . S
C1530 H1548 0.931 . S
C1531 N1528 1.311 . S
C1531 N1532 1.347 . S
C1531 H1542 0.929 . S
N1532 C1530 1.375 . S
N1532 C1531 1.347 . S
C1533 C1536 1.365 . S
C1533 N1538 1.328 . S
C1533 H1539 0.929 . S
C1534 C1535 1.362 . S
C1534 C1537 1.378 . S
C1534 H1549 0.929 . S
C1535 C1534 1.362 . S
C1535 C1536 1.366 . S
C1536 C1533 1.365 . S
C1536 C1535 1.366 . S
C1536 H1550 0.930 . S
C1537 C1534 1.378 . S
C1537 N1538 1.315 . S
C1537 H1540 0.930 . S
N1538 Co1518 2.194 . S
N1538 C1533 1.328 . S
N1538 C1537 1.315 . S
H1539 C1533 0.929 . S
H1540 C1537 0.930 . S
H1541 C1529 0.929 . S
H1542 C1531 0.929 . S
O1543 Co1518 2.351 . S
O1543 C1546 1.244 . S
O1544 Co1518 2.155 . S
O1544 C1546 1.240 . S
O1545 Co1518 2.096 . S
O1545 C1526 1.247 . S
C1546 O1543 1.244 . S
C1546 O1544 1.240 . S
H1547 C1521 0.931 . S
H1548 C1530 0.931 . S
H1549 C1534 0.929 . S
H1550 C1536 0.930 . S
Co1551 N1555 2.148 . S
Co1551 N1561 2.128 . S
Co1551 N1571 2.194 . S
Co1551 O1576 2.351 . S
Co1551 O1577 2.155 . S
Co1551 O1578 2.096 . S
C1552 N1555 1.301 . S
C1552 N1556 1.328 . S
C1552 H1557 0.930 . S
C1553 C1554 1.333 . S
C1553 N1555 1.317 . S
C1553 H1558 0.930 . S
C1554 C1553 1.333 . S
C1554 N1556 1.350 . S
C1554 H1580 0.931 . S
N1555 Co1551 2.148 . S
N1555 C1552 1.301 . S
N1555 C1553 1.317 . S
N1556 C1552 1.328 . S
N1556 C1554 1.350 . S
H1557 C1552 0.930 . S
H1558 C1553 0.930 . S
C1559 O1560 1.224 . S
C1559 O1578 1.247 . S
O1560 C1559 1.224 . S
N1561 Co1551 2.128 . S
N1561 C1562 1.355 . S
N1561 C1564 1.311 . S
C1562 N1561 1.355 . S
C1562 C1563 1.363 . S
C1562 H1574 0.929 . S
C1563 C1562 1.363 . S
C1563 N1565 1.375 . S
C1563 H1581 0.931 . S
C1564 N1561 1.311 . S
C1564 N1565 1.347 . S
C1564 H1575 0.929 . S
N1565 C1563 1.375 . S
N1565 C1564 1.347 . S
C1566 C1569 1.365 . S
C1566 N1571 1.328 . S
C1566 H1572 0.929 . S
C1567 C1568 1.362 . S
C1567 C1570 1.378 . S
C1567 H1582 0.929 . S
C1568 C1567 1.362 . S
C1568 C1569 1.366 . S
C1569 C1566 1.365 . S
C1569 C1568 1.366 . S
C1569 H1583 0.930 . S
C1570 C1567 1.378 . S
C1570 N1571 1.315 . S
C1570 H1573 0.930 . S
N1571 Co1551 2.194 . S
N1571 C1566 1.328 . S
N1571 C1570 1.315 . S
H1572 C1566 0.929 . S
H1573 C1570 0.930 . S
H1574 C1562 0.929 . S
H1575 C1564 0.929 . S
O1576 Co1551 2.351 . S
O1576 C1579 1.244 . S
O1577 Co1551 2.155 . S
O1577 C1579 1.240 . S
O1578 Co1551 2.096 . S
O1578 C1559 1.247 . S
C1579 O1576 1.244 . S
C1579 O1577 1.240 . S
H1580 C1554 0.931 . S
H1581 C1563 0.931 . S
H1582 C1567 0.929 . S
H1583 C1569 0.930 . S
H1584 C1590 0.930 . S
H1585 C1594 0.930 . S
H1586 C1599 0.929 . S
H1587 C1597 0.929 . S
H1588 C1592 0.929 . S
H1589 C1598 0.929 . S
C1590 H1584 0.930 . S
C1590 C1591 1.367 . S
C1590 C1598 1.378 . S
C1591 C1590 1.367 . S
C1591 C1599 1.433 . S
C1592 H1588 0.929 . S
C1592 C1594 1.378 . S
C1592 C1596 1.350 . S
C1593 C1596 1.463 . S
C1593 C1598 1.350 . S
C1593 N1601 1.427 . S
C1594 H1585 0.930 . S
C1594 C1592 1.378 . S
C1594 C1595 1.367 . S
C1595 C1594 1.367 . S
C1595 C1597 1.433 . S
C1596 C1592 1.350 . S
C1596 C1593 1.463 . S
C1596 N1600 1.427 . S
C1597 H1587 0.929 . S
C1597 C1595 1.433 . S
C1597 N1600 1.384 . S
C1598 H1589 0.929 . S
C1598 C1590 1.378 . S
C1598 C1593 1.350 . S
C1599 H1586 0.929 . S
C1599 C1591 1.433 . S
C1599 N1601 1.384 . S
N1600 C1596 1.427 . S
N1600 C1597 1.384 . S
N1601 C1593 1.427 . S
N1601 C1599 1.384 . S
H1602 C1608 0.930 . S
H1603 C1612 0.930 . S
H1604 C1617 0.929 . S
H1605 C1615 0.929 . S
H1606 C1610 0.929 . S
H1607 C1616 0.929 . S
C1608 H1602 0.930 . S
C1608 C1609 1.367 . S
C1608 C1616 1.378 . S
C1609 C1608 1.367 . S
C1609 C1617 1.433 . S
C1610 H1606 0.929 . S
C1610 C1612 1.378 . S
C1610 C1614 1.350 . S
C1611 C1614 1.463 . S
C1611 C1616 1.350 . S
C1611 N1619 1.427 . S
C1612 H1603 0.930 . S
C1612 C1610 1.378 . S
C1612 C1613 1.367 . S
C1613 C1612 1.367 . S
C1613 C1615 1.433 . S
C1614 C1610 1.350 . S
C1614 C1611 1.463 . S
C1614 N1618 1.427 . S
C1615 H1605 0.929 . S
C1615 C1613 1.433 . S
C1615 N1618 1.384 . S
C1616 H1607 0.929 . S
C1616 C1608 1.378 . S
C1616 C1611 1.350 . S
C1617 H1604 0.929 . S
C1617 C1609 1.433 . S
C1617 N1619 1.384 . S
N1618 C1614 1.427 . S
N1618 C1615 1.384 . S
N1619 C1611 1.427 . S
N1619 C1617 1.384 . S
H1620 C1626 0.930 . S
H1621 C1630 0.930 . S
H1622 C1635 0.929 . S
H1623 C1633 0.929 . S
H1624 C1628 0.929 . S
H1625 C1634 0.929 . S
C1626 H1620 0.930 . S
C1626 C1627 1.367 . S
C1626 C1634 1.378 . S
C1627 C1626 1.367 . S
C1627 C1635 1.433 . S
C1628 H1624 0.929 . S
C1628 C1630 1.378 . S
C1628 C1632 1.350 . S
C1629 C1632 1.463 . S
C1629 C1634 1.350 . S
C1629 N1637 1.427 . S
C1630 H1621 0.930 . S
C1630 C1628 1.378 . S
C1630 C1631 1.367 . S
C1631 C1630 1.367 . S
C1631 C1633 1.433 . S
C1632 C1628 1.350 . S
C1632 C1629 1.463 . S
C1632 N1636 1.427 . S
C1633 H1623 0.929 . S
C1633 C1631 1.433 . S
C1633 N1636 1.384 . S
C1634 H1625 0.929 . S
C1634 C1626 1.378 . S
C1634 C1629 1.350 . S
C1635 H1622 0.929 . S
C1635 C1627 1.433 . S
C1635 N1637 1.384 . S
N1636 C1632 1.427 . S
N1636 C1633 1.384 . S
N1637 C1629 1.427 . S
N1637 C1635 1.384 . S
H1638 C1644 0.930 . S
H1639 C1648 0.930 . S
H1640 C1653 0.929 . S
H1641 C1651 0.929 . S
H1642 C1646 0.929 . S
H1643 C1652 0.929 . S
C1644 H1638 0.930 . S
C1644 C1645 1.367 . S
C1644 C1652 1.378 . S
C1645 C1644 1.367 . S
C1645 C1653 1.433 . S
C1646 H1642 0.929 . S
C1646 C1648 1.378 . S
C1646 C1650 1.350 . S
C1647 C1650 1.463 . S
C1647 C1652 1.350 . S
C1647 N1655 1.427 . S
C1648 H1639 0.930 . S
C1648 C1646 1.378 . S
C1648 C1649 1.367 . S
C1649 C1648 1.367 . S
C1649 C1651 1.433 . S
C1650 C1646 1.350 . S
C1650 C1647 1.463 . S
C1650 N1654 1.427 . S
C1651 H1641 0.929 . S
C1651 C1649 1.433 . S
C1651 N1654 1.384 . S
C1652 H1643 0.929 . S
C1652 C1644 1.378 . S
C1652 C1647 1.350 . S
C1653 H1640 0.929 . S
C1653 C1645 1.433 . S
C1653 N1655 1.384 . S
N1654 C1650 1.427 . S
N1654 C1651 1.384 . S
N1655 C1647 1.427 . S
N1655 C1653 1.384 . S
H1656 C1662 0.930 . S
H1657 C1666 0.930 . S
H1658 C1671 0.929 . S
H1659 C1669 0.929 . S
H1660 C1664 0.929 . S
H1661 C1670 0.929 . S
C1662 H1656 0.930 . S
C1662 C1663 1.367 . S
C1662 C1670 1.378 . S
C1663 C1662 1.367 . S
C1663 C1671 1.433 . S
C1664 H1660 0.929 . S
C1664 C1666 1.378 . S
C1664 C1668 1.350 . S
C1665 C1668 1.463 . S
C1665 C1670 1.350 . S
C1665 N1673 1.427 . S
C1666 H1657 0.930 . S
C1666 C1664 1.378 . S
C1666 C1667 1.367 . S
C1667 C1666 1.367 . S
C1667 C1669 1.433 . S
C1668 C1664 1.350 . S
C1668 C1665 1.463 . S
C1668 N1672 1.427 . S
C1669 H1659 0.929 . S
C1669 C1667 1.433 . S
C1669 N1672 1.384 . S
C1670 H1661 0.929 . S
C1670 C1662 1.378 . S
C1670 C1665 1.350 . S
C1671 H1658 0.929 . S
C1671 C1663 1.433 . S
C1671 N1673 1.384 . S
N1672 C1668 1.427 . S
N1672 C1669 1.384 . S
N1673 C1665 1.427 . S
N1673 C1671 1.384 . S
H1674 C1680 0.930 . S
H1675 C1684 0.930 . S
H1676 C1689 0.929 . S
H1677 C1687 0.929 . S
H1678 C1682 0.929 . S
H1679 C1688 0.929 . S
C1680 H1674 0.930 . S
C1680 C1681 1.367 . S
C1680 C1688 1.378 . S
C1681 C1680 1.367 . S
C1681 C1689 1.433 . S
C1682 H1678 0.929 . S
C1682 C1684 1.378 . S
C1682 C1686 1.350 . S
C1683 C1686 1.463 . S
C1683 C1688 1.350 . S
C1683 N1691 1.427 . S
C1684 H1675 0.930 . S
C1684 C1682 1.378 . S
C1684 C1685 1.367 . S
C1685 C1684 1.367 . S
C1685 C1687 1.433 . S
C1686 C1682 1.350 . S
C1686 C1683 1.463 . S
C1686 N1690 1.427 . S
C1687 H1677 0.929 . S
C1687 C1685 1.433 . S
C1687 N1690 1.384 . S
C1688 H1679 0.929 . S
C1688 C1680 1.378 . S
C1688 C1683 1.350 . S
C1689 H1676 0.929 . S
C1689 C1681 1.433 . S
C1689 N1691 1.384 . S
N1690 C1686 1.427 . S
N1690 C1687 1.384 . S
N1691 C1683 1.427 . S
N1691 C1689 1.384 . S
H1692 C1698 0.930 . S
H1693 C1702 0.930 . S
H1694 C1707 0.929 . S
H1695 C1705 0.929 . S
H1696 C1700 0.929 . S
H1697 C1706 0.929 . S
C1698 H1692 0.930 . S
C1698 C1699 1.367 . S
C1698 C1706 1.378 . S
C1699 C1698 1.367 . S
C1699 C1707 1.433 . S
C1700 H1696 0.929 . S
C1700 C1702 1.378 . S
C1700 C1704 1.350 . S
C1701 C1704 1.463 . S
C1701 C1706 1.350 . S
C1701 N1709 1.427 . S
C1702 H1693 0.930 . S
C1702 C1700 1.378 . S
C1702 C1703 1.367 . S
C1703 C1702 1.367 . S
C1703 C1705 1.433 . S
C1704 C1700 1.350 . S
C1704 C1701 1.463 . S
C1704 N1708 1.427 . S
C1705 H1695 0.929 . S
C1705 C1703 1.433 . S
C1705 N1708 1.384 . S
C1706 H1697 0.929 . S
C1706 C1698 1.378 . S
C1706 C1701 1.350 . S
C1707 H1694 0.929 . S
C1707 C1699 1.433 . S
C1707 N1709 1.384 . S
N1708 C1704 1.427 . S
N1708 C1705 1.384 . S
N1709 C1701 1.427 . S
N1709 C1707 1.384 . S
H1710 C1716 0.930 . S
H1711 C1720 0.930 . S
H1712 C1725 0.929 . S
H1713 C1723 0.929 . S
H1714 C1718 0.929 . S
H1715 C1724 0.929 . S
C1716 H1710 0.930 . S
C1716 C1717 1.367 . S
C1716 C1724 1.378 . S
C1717 C1716 1.367 . S
C1717 C1725 1.433 . S
C1718 H1714 0.929 . S
C1718 C1720 1.378 . S
C1718 C1722 1.350 . S
C1719 C1722 1.463 . S
C1719 C1724 1.350 . S
C1719 N1727 1.427 . S
C1720 H1711 0.930 . S
C1720 C1718 1.378 . S
C1720 C1721 1.367 . S
C1721 C1720 1.367 . S
C1721 C1723 1.433 . S
C1722 C1718 1.350 . S
C1722 C1719 1.463 . S
C1722 N1726 1.427 . S
C1723 H1713 0.929 . S
C1723 C1721 1.433 . S
C1723 N1726 1.384 . S
C1724 H1715 0.929 . S
C1724 C1716 1.378 . S
C1724 C1719 1.350 . S
C1725 H1712 0.929 . S
C1725 C1717 1.433 . S
C1725 N1727 1.384 . S
N1726 C1722 1.427 . S
N1726 C1723 1.384 . S
N1727 C1719 1.427 . S
N1727 C1725 1.384 . S
H1728 C1734 0.930 . S
H1729 C1738 0.930 . S
H1730 C1743 0.929 . S
H1731 C1741 0.929 . S
H1732 C1736 0.929 . S
H1733 C1742 0.929 . S
C1734 H1728 0.930 . S
C1734 C1735 1.367 . S
C1734 C1742 1.378 . S
C1735 C1734 1.367 . S
C1735 C1743 1.433 . S
C1736 H1732 0.929 . S
C1736 C1738 1.378 . S
C1736 C1740 1.350 . S
C1737 C1740 1.463 . S
C1737 C1742 1.350 . S
C1737 N1745 1.427 . S
C1738 H1729 0.930 . S
C1738 C1736 1.378 . S
C1738 C1739 1.367 . S
C1739 C1738 1.367 . S
C1739 C1741 1.433 . S
C1740 C1736 1.350 . S
C1740 C1737 1.463 . S
C1740 N1744 1.427 . S
C1741 H1731 0.929 . S
C1741 C1739 1.433 . S
C1741 N1744 1.384 . S
C1742 H1733 0.929 . S
C1742 C1734 1.378 . S
C1742 C1737 1.350 . S
C1743 H1730 0.929 . S
C1743 C1735 1.433 . S
C1743 N1745 1.384 . S
N1744 C1740 1.427 . S
N1744 C1741 1.384 . S
N1745 C1737 1.427 . S
N1745 C1743 1.384 . S
H1746 C1752 0.930 . S
H1747 C1756 0.930 . S
H1748 C1761 0.929 . S
H1749 C1759 0.929 . S
H1750 C1754 0.929 . S
H1751 C1760 0.929 . S
C1752 H1746 0.930 . S
C1752 C1753 1.367 . S
C1752 C1760 1.378 . S
C1753 C1752 1.367 . S
C1753 C1761 1.433 . S
C1754 H1750 0.929 . S
C1754 C1756 1.378 . S
C1754 C1758 1.350 . S
C1755 C1758 1.463 . S
C1755 C1760 1.350 . S
C1755 N1763 1.427 . S
C1756 H1747 0.930 . S
C1756 C1754 1.378 . S
C1756 C1757 1.367 . S
C1757 C1756 1.367 . S
C1757 C1759 1.433 . S
C1758 C1754 1.350 . S
C1758 C1755 1.463 . S
C1758 N1762 1.427 . S
C1759 H1749 0.929 . S
C1759 C1757 1.433 . S
C1759 N1762 1.384 . S
C1760 H1751 0.929 . S
C1760 C1752 1.378 . S
C1760 C1755 1.350 . S
C1761 H1748 0.929 . S
C1761 C1753 1.433 . S
C1761 N1763 1.384 . S
N1762 C1758 1.427 . S
N1762 C1759 1.384 . S
N1763 C1755 1.427 . S
N1763 C1761 1.384 . S
H1764 C1770 0.930 . S
H1765 C1774 0.930 . S
H1766 C1779 0.929 . S
H1767 C1777 0.929 . S
H1768 C1772 0.929 . S
H1769 C1778 0.929 . S
C1770 H1764 0.930 . S
C1770 C1771 1.367 . S
C1770 C1778 1.378 . S
C1771 C1770 1.367 . S
C1771 C1779 1.433 . S
C1772 H1768 0.929 . S
C1772 C1774 1.378 . S
C1772 C1776 1.350 . S
C1773 C1776 1.463 . S
C1773 C1778 1.350 . S
C1773 N1781 1.427 . S
C1774 H1765 0.930 . S
C1774 C1772 1.378 . S
C1774 C1775 1.367 . S
C1775 C1774 1.367 . S
C1775 C1777 1.433 . S
C1776 C1772 1.350 . S
C1776 C1773 1.463 . S
C1776 N1780 1.427 . S
C1777 H1767 0.929 . S
C1777 C1775 1.433 . S
C1777 N1780 1.384 . S
C1778 H1769 0.929 . S
C1778 C1770 1.378 . S
C1778 C1773 1.350 . S
C1779 H1766 0.929 . S
C1779 C1771 1.433 . S
C1779 N1781 1.384 . S
N1780 C1776 1.427 . S
N1780 C1777 1.384 . S
N1781 C1773 1.427 . S
N1781 C1779 1.384 . S
H1782 C1788 0.930 . S
H1783 C1792 0.930 . S
H1784 C1797 0.929 . S
H1785 C1795 0.929 . S
H1786 C1790 0.929 . S
H1787 C1796 0.929 . S
C1788 H1782 0.930 . S
C1788 C1789 1.367 . S
C1788 C1796 1.378 . S
C1789 C1788 1.367 . S
C1789 C1797 1.433 . S
C1790 H1786 0.929 . S
C1790 C1792 1.378 . S
C1790 C1794 1.350 . S
C1791 C1794 1.463 . S
C1791 C1796 1.350 . S
C1791 N1799 1.427 . S
C1792 H1783 0.930 . S
C1792 C1790 1.378 . S
C1792 C1793 1.367 . S
C1793 C1792 1.367 . S
C1793 C1795 1.433 . S
C1794 C1790 1.350 . S
C1794 C1791 1.463 . S
C1794 N1798 1.427 . S
C1795 H1785 0.929 . S
C1795 C1793 1.433 . S
C1795 N1798 1.384 . S
C1796 H1787 0.929 . S
C1796 C1788 1.378 . S
C1796 C1791 1.350 . S
C1797 H1784 0.929 . S
C1797 C1789 1.433 . S
C1797 N1799 1.384 . S
N1798 C1794 1.427 . S
N1798 C1795 1.384 . S
N1799 C1791 1.427 . S
N1799 C1797 1.384 . S
H1800 C1806 0.930 . S
H1801 C1810 0.930 . S
H1802 C1815 0.929 . S
H1803 C1813 0.929 . S
H1804 C1808 0.929 . S
H1805 C1814 0.929 . S
C1806 H1800 0.930 . S
C1806 C1807 1.367 . S
C1806 C1814 1.378 . S
C1807 C1806 1.367 . S
C1807 C1815 1.433 . S
C1808 H1804 0.929 . S
C1808 C1810 1.378 . S
C1808 C1812 1.350 . S
C1809 C1812 1.463 . S
C1809 C1814 1.350 . S
C1809 N1817 1.427 . S
C1810 H1801 0.930 . S
C1810 C1808 1.378 . S
C1810 C1811 1.367 . S
C1811 C1810 1.367 . S
C1811 C1813 1.433 . S
C1812 C1808 1.350 . S
C1812 C1809 1.463 . S
C1812 N1816 1.427 . S
C1813 H1803 0.929 . S
C1813 C1811 1.433 . S
C1813 N1816 1.384 . S
C1814 H1805 0.929 . S
C1814 C1806 1.378 . S
C1814 C1809 1.350 . S
C1815 H1802 0.929 . S
C1815 C1807 1.433 . S
C1815 N1817 1.384 . S
N1816 C1812 1.427 . S
N1816 C1813 1.384 . S
N1817 C1809 1.427 . S
N1817 C1815 1.384 . S
H1818 C1824 0.930 . S
H1819 C1828 0.930 . S
H1820 C1833 0.929 . S
H1821 C1831 0.929 . S
H1822 C1826 0.929 . S
H1823 C1832 0.929 . S
C1824 H1818 0.930 . S
C1824 C1825 1.367 . S
C1824 C1832 1.378 . S
C1825 C1824 1.367 . S
C1825 C1833 1.433 . S
C1826 H1822 0.929 . S
C1826 C1828 1.378 . S
C1826 C1830 1.350 . S
C1827 C1830 1.463 . S
C1827 C1832 1.350 . S
C1827 N1835 1.427 . S
C1828 H1819 0.930 . S
C1828 C1826 1.378 . S
C1828 C1829 1.367 . S
C1829 C1828 1.367 . S
C1829 C1831 1.433 . S
C1830 C1826 1.350 . S
C1830 C1827 1.463 . S
C1830 N1834 1.427 . S
C1831 H1821 0.929 . S
C1831 C1829 1.433 . S
C1831 N1834 1.384 . S
C1832 H1823 0.929 . S
C1832 C1824 1.378 . S
C1832 C1827 1.350 . S
C1833 H1820 0.929 . S
C1833 C1825 1.433 . S
C1833 N1835 1.384 . S
N1834 C1830 1.427 . S
N1834 C1831 1.384 . S
N1835 C1827 1.427 . S
N1835 C1833 1.384 . S
H1836 C1842 0.930 . S
H1837 C1846 0.930 . S
H1838 C1851 0.929 . S
H1839 C1849 0.929 . S
H1840 C1844 0.929 . S
H1841 C1850 0.929 . S
C1842 H1836 0.930 . S
C1842 C1843 1.367 . S
C1842 C1850 1.378 . S
C1843 C1842 1.367 . S
C1843 C1851 1.433 . S
C1844 H1840 0.929 . S
C1844 C1846 1.378 . S
C1844 C1848 1.350 . S
C1845 C1848 1.463 . S
C1845 C1850 1.350 . S
C1845 N1853 1.427 . S
C1846 H1837 0.930 . S
C1846 C1844 1.378 . S
C1846 C1847 1.367 . S
C1847 C1846 1.367 . S
C1847 C1849 1.433 . S
C1848 C1844 1.350 . S
C1848 C1845 1.463 . S
C1848 N1852 1.427 . S
C1849 H1839 0.929 . S
C1849 C1847 1.433 . S
C1849 N1852 1.384 . S
C1850 H1841 0.929 . S
C1850 C1842 1.378 . S
C1850 C1845 1.350 . S
C1851 H1838 0.929 . S
C1851 C1843 1.433 . S
C1851 N1853 1.384 . S
N1852 C1848 1.427 . S
N1852 C1849 1.384 . S
N1853 C1845 1.427 . S
N1853 C1851 1.384 . S
H1854 C1860 0.930 . S
H1855 C1864 0.930 . S
H1856 C1869 0.929 . S
H1857 C1867 0.929 . S
H1858 C1862 0.929 . S
H1859 C1868 0.929 . S
C1860 H1854 0.930 . S
C1860 C1861 1.367 . S
C1860 C1868 1.378 . S
C1861 C1860 1.367 . S
C1861 C1869 1.433 . S
C1862 H1858 0.929 . S
C1862 C1864 1.378 . S
C1862 C1866 1.350 . S
C1863 C1866 1.463 . S
C1863 C1868 1.350 . S
C1863 N1871 1.427 . S
C1864 H1855 0.930 . S
C1864 C1862 1.378 . S
C1864 C1865 1.367 . S
C1865 C1864 1.367 . S
C1865 C1867 1.433 . S
C1866 C1862 1.350 . S
C1866 C1863 1.463 . S
C1866 N1870 1.427 . S
C1867 H1857 0.929 . S
C1867 C1865 1.433 . S
C1867 N1870 1.384 . S
C1868 H1859 0.929 . S
C1868 C1860 1.378 . S
C1868 C1863 1.350 . S
C1869 H1856 0.929 . S
C1869 C1861 1.433 . S
C1869 N1871 1.384 . S
N1870 C1866 1.427 . S
N1870 C1867 1.384 . S
N1871 C1863 1.427 . S
N1871 C1869 1.384 . S
H1872 C1878 0.930 . S
H1873 C1882 0.930 . S
H1874 C1887 0.929 . S
H1875 C1885 0.929 . S
H1876 C1880 0.929 . S
H1877 C1886 0.929 . S
C1878 H1872 0.930 . S
C1878 C1879 1.367 . S
C1878 C1886 1.378 . S
C1879 C1878 1.367 . S
C1879 C1887 1.433 . S
C1880 H1876 0.929 . S
C1880 C1882 1.378 . S
C1880 C1884 1.350 . S
C1881 C1884 1.463 . S
C1881 C1886 1.350 . S
C1881 N1889 1.427 . S
C1882 H1873 0.930 . S
C1882 C1880 1.378 . S
C1882 C1883 1.367 . S
C1883 C1882 1.367 . S
C1883 C1885 1.433 . S
C1884 C1880 1.350 . S
C1884 C1881 1.463 . S
C1884 N1888 1.427 . S
C1885 H1875 0.929 . S
C1885 C1883 1.433 . S
C1885 N1888 1.384 . S
C1886 H1877 0.929 . S
C1886 C1878 1.378 . S
C1886 C1881 1.350 . S
C1887 H1874 0.929 . S
C1887 C1879 1.433 . S
C1887 N1889 1.384 . S
N1888 C1884 1.427 . S
N1888 C1885 1.384 . S
N1889 C1881 1.427 . S
N1889 C1887 1.384 . S
H1890 C1896 0.930 . S
H1891 C1900 0.930 . S
H1892 C1905 0.929 . S
H1893 C1903 0.929 . S
H1894 C1898 0.929 . S
H1895 C1904 0.929 . S
C1896 H1890 0.930 . S
C1896 C1897 1.367 . S
C1896 C1904 1.378 . S
C1897 C1896 1.367 . S
C1897 C1905 1.433 . S
C1898 H1894 0.929 . S
C1898 C1900 1.378 . S
C1898 C1902 1.350 . S
C1899 C1902 1.463 . S
C1899 C1904 1.350 . S
C1899 N1907 1.427 . S
C1900 H1891 0.930 . S
C1900 C1898 1.378 . S
C1900 C1901 1.367 . S
C1901 C1900 1.367 . S
C1901 C1903 1.433 . S
C1902 C1898 1.350 . S
C1902 C1899 1.463 . S
C1902 N1906 1.427 . S
C1903 H1893 0.929 . S
C1903 C1901 1.433 . S
C1903 N1906 1.384 . S
C1904 H1895 0.929 . S
C1904 C1896 1.378 . S
C1904 C1899 1.350 . S
C1905 H1892 0.929 . S
C1905 C1897 1.433 . S
C1905 N1907 1.384 . S
N1906 C1902 1.427 . S
N1906 C1903 1.384 . S
N1907 C1899 1.427 . S
N1907 C1905 1.384 . S
H1908 C1914 0.930 . S
H1909 C1918 0.930 . S
H1910 C1923 0.929 . S
H1911 C1921 0.929 . S
H1912 C1916 0.929 . S
H1913 C1922 0.929 . S
C1914 H1908 0.930 . S
C1914 C1915 1.367 . S
C1914 C1922 1.378 . S
C1915 C1914 1.367 . S
C1915 C1923 1.433 . S
C1916 H1912 0.929 . S
C1916 C1918 1.378 . S
C1916 C1920 1.350 . S
C1917 C1920 1.463 . S
C1917 C1922 1.350 . S
C1917 N1925 1.427 . S
C1918 H1909 0.930 . S
C1918 C1916 1.378 . S
C1918 C1919 1.367 . S
C1919 C1918 1.367 . S
C1919 C1921 1.433 . S
C1920 C1916 1.350 . S
C1920 C1917 1.463 . S
C1920 N1924 1.427 . S
C1921 H1911 0.929 . S
C1921 C1919 1.433 . S
C1921 N1924 1.384 . S
C1922 H1913 0.929 . S
C1922 C1914 1.378 . S
C1922 C1917 1.350 . S
C1923 H1910 0.929 . S
C1923 C1915 1.433 . S
C1923 N1925 1.384 . S
N1924 C1920 1.427 . S
N1924 C1921 1.384 . S
N1925 C1917 1.427 . S
N1925 C1923 1.384 . S
H1926 C1932 0.930 . S
H1927 C1936 0.930 . S
H1928 C1941 0.929 . S
H1929 C1939 0.929 . S
H1930 C1934 0.929 . S
H1931 C1940 0.929 . S
C1932 H1926 0.930 . S
C1932 C1933 1.367 . S
C1932 C1940 1.378 . S
C1933 C1932 1.367 . S
C1933 C1941 1.433 . S
C1934 H1930 0.929 . S
C1934 C1936 1.378 . S
C1934 C1938 1.350 . S
C1935 C1938 1.463 . S
C1935 C1940 1.350 . S
C1935 N1943 1.427 . S
C1936 H1927 0.930 . S
C1936 C1934 1.378 . S
C1936 C1937 1.367 . S
C1937 C1936 1.367 . S
C1937 C1939 1.433 . S
C1938 C1934 1.350 . S
C1938 C1935 1.463 . S
C1938 N1942 1.427 . S
C1939 H1929 0.929 . S
C1939 C1937 1.433 . S
C1939 N1942 1.384 . S
C1940 H1931 0.929 . S
C1940 C1932 1.378 . S
C1940 C1935 1.350 . S
C1941 H1928 0.929 . S
C1941 C1933 1.433 . S
C1941 N1943 1.384 . S
N1942 C1938 1.427 . S
N1942 C1939 1.384 . S
N1943 C1935 1.427 . S
N1943 C1941 1.384 . S
H1944 C1950 0.930 . S
H1945 C1954 0.930 . S
H1946 C1959 0.929 . S
H1947 C1957 0.929 . S
H1948 C1952 0.929 . S
H1949 C1958 0.929 . S
C1950 H1944 0.930 . S
C1950 C1951 1.367 . S
C1950 C1958 1.378 . S
C1951 C1950 1.367 . S
C1951 C1959 1.433 . S
C1952 H1948 0.929 . S
C1952 C1954 1.378 . S
C1952 C1956 1.350 . S
C1953 C1956 1.463 . S
C1953 C1958 1.350 . S
C1953 N1961 1.427 . S
C1954 H1945 0.930 . S
C1954 C1952 1.378 . S
C1954 C1955 1.367 . S
C1955 C1954 1.367 . S
C1955 C1957 1.433 . S
C1956 C1952 1.350 . S
C1956 C1953 1.463 . S
C1956 N1960 1.427 . S
C1957 H1947 0.929 . S
C1957 C1955 1.433 . S
C1957 N1960 1.384 . S
C1958 H1949 0.929 . S
C1958 C1950 1.378 . S
C1958 C1953 1.350 . S
C1959 H1946 0.929 . S
C1959 C1951 1.433 . S
C1959 N1961 1.384 . S
N1960 C1956 1.427 . S
N1960 C1957 1.384 . S
N1961 C1953 1.427 . S
N1961 C1959 1.384 . S
H1962 C1968 0.930 . S
H1963 C1972 0.930 . S
H1964 C1977 0.929 . S
H1965 C1975 0.929 . S
H1966 C1970 0.929 . S
H1967 C1976 0.929 . S
C1968 H1962 0.930 . S
C1968 C1969 1.367 . S
C1968 C1976 1.378 . S
C1969 C1968 1.367 . S
C1969 C1977 1.433 . S
C1970 H1966 0.929 . S
C1970 C1972 1.378 . S
C1970 C1974 1.350 . S
C1971 C1974 1.463 . S
C1971 C1976 1.350 . S
C1971 N1979 1.427 . S
C1972 H1963 0.930 . S
C1972 C1970 1.378 . S
C1972 C1973 1.367 . S
C1973 C1972 1.367 . S
C1973 C1975 1.433 . S
C1974 C1970 1.350 . S
C1974 C1971 1.463 . S
C1974 N1978 1.427 . S
C1975 H1965 0.929 . S
C1975 C1973 1.433 . S
C1975 N1978 1.384 . S
C1976 H1967 0.929 . S
C1976 C1968 1.378 . S
C1976 C1971 1.350 . S
C1977 H1964 0.929 . S
C1977 C1969 1.433 . S
C1977 N1979 1.384 . S
N1978 C1974 1.427 . S
N1978 C1975 1.384 . S
N1979 C1971 1.427 . S
N1979 C1977 1.384 . S
H1980 C1986 0.930 . S
H1981 C1990 0.930 . S
H1982 C1995 0.929 . S
H1983 C1993 0.929 . S
H1984 C1988 0.929 . S
H1985 C1994 0.929 . S
C1986 H1980 0.930 . S
C1986 C1987 1.367 . S
C1986 C1994 1.378 . S
C1987 C1986 1.367 . S
C1987 C1995 1.433 . S
C1988 H1984 0.929 . S
C1988 C1990 1.378 . S
C1988 C1992 1.350 . S
C1989 C1992 1.463 . S
C1989 C1994 1.350 . S
C1989 N1997 1.427 . S
C1990 H1981 0.930 . S
C1990 C1988 1.378 . S
C1990 C1991 1.367 . S
C1991 C1990 1.367 . S
C1991 C1993 1.433 . S
C1992 C1988 1.350 . S
C1992 C1989 1.463 . S
C1992 N1996 1.427 . S
C1993 H1983 0.929 . S
C1993 C1991 1.433 . S
C1993 N1996 1.384 . S
C1994 H1985 0.929 . S
C1994 C1986 1.378 . S
C1994 C1989 1.350 . S
C1995 H1982 0.929 . S
C1995 C1987 1.433 . S
C1995 N1997 1.384 . S
N1996 C1992 1.427 . S
N1996 C1993 1.384 . S
N1997 C1989 1.427 . S
N1997 C1995 1.384 . S
H1998 C2004 0.930 . S
H1999 C2008 0.930 . S
H2000 C2013 0.929 . S
H2001 C2011 0.929 . S
H2002 C2006 0.929 . S
H2003 C2012 0.929 . S
C2004 H1998 0.930 . S
C2004 C2005 1.367 . S
C2004 C2012 1.378 . S
C2005 C2004 1.367 . S
C2005 C2013 1.433 . S
C2006 H2002 0.929 . S
C2006 C2008 1.378 . S
C2006 C2010 1.350 . S
C2007 C2010 1.463 . S
C2007 C2012 1.350 . S
C2007 N2015 1.427 . S
C2008 H1999 0.930 . S
C2008 C2006 1.378 . S
C2008 C2009 1.367 . S
C2009 C2008 1.367 . S
C2009 C2011 1.433 . S
C2010 C2006 1.350 . S
C2010 C2007 1.463 . S
C2010 N2014 1.427 . S
C2011 H2001 0.929 . S
C2011 C2009 1.433 . S
C2011 N2014 1.384 . S
C2012 H2003 0.929 . S
C2012 C2004 1.378 . S
C2012 C2007 1.350 . S
C2013 H2000 0.929 . S
C2013 C2005 1.433 . S
C2013 N2015 1.384 . S
N2014 C2010 1.427 . S
N2014 C2011 1.384 . S
N2015 C2007 1.427 . S
N2015 C2013 1.384 . S
H2016 C2022 0.930 . S
H2017 C2026 0.930 . S
H2018 C2031 0.929 . S
H2019 C2029 0.929 . S
H2020 C2024 0.929 . S
H2021 C2030 0.929 . S
C2022 H2016 0.930 . S
C2022 C2023 1.367 . S
C2022 C2030 1.378 . S
C2023 C2022 1.367 . S
C2023 C2031 1.433 . S
C2024 H2020 0.929 . S
C2024 C2026 1.378 . S
C2024 C2028 1.350 . S
C2025 C2028 1.463 . S
C2025 C2030 1.350 . S
C2025 N2033 1.427 . S
C2026 H2017 0.930 . S
C2026 C2024 1.378 . S
C2026 C2027 1.367 . S
C2027 C2026 1.367 . S
C2027 C2029 1.433 . S
C2028 C2024 1.350 . S
C2028 C2025 1.463 . S
C2028 N2032 1.427 . S
C2029 H2019 0.929 . S
C2029 C2027 1.433 . S
C2029 N2032 1.384 . S
C2030 H2021 0.929 . S
C2030 C2022 1.378 . S
C2030 C2025 1.350 . S
C2031 H2018 0.929 . S
C2031 C2023 1.433 . S
C2031 N2033 1.384 . S
N2032 C2028 1.427 . S
N2032 C2029 1.384 . S
N2033 C2025 1.427 . S
N2033 C2031 1.384 . S
H2034 C2040 0.930 . S
H2035 C2044 0.930 . S
H2036 C2049 0.929 . S
H2037 C2047 0.929 . S
H2038 C2042 0.929 . S
H2039 C2048 0.929 . S
C2040 H2034 0.930 . S
C2040 C2041 1.367 . S
C2040 C2048 1.378 . S
C2041 C2040 1.367 . S
C2041 C2049 1.433 . S
C2042 H2038 0.929 . S
C2042 C2044 1.378 . S
C2042 C2046 1.350 . S
C2043 C2046 1.463 . S
C2043 C2048 1.350 . S
C2043 N2051 1.427 . S
C2044 H2035 0.930 . S
C2044 C2042 1.378 . S
C2044 C2045 1.367 . S
C2045 C2044 1.367 . S
C2045 C2047 1.433 . S
C2046 C2042 1.350 . S
C2046 C2043 1.463 . S
C2046 N2050 1.427 . S
C2047 H2037 0.929 . S
C2047 C2045 1.433 . S
C2047 N2050 1.384 . S
C2048 H2039 0.929 . S
C2048 C2040 1.378 . S
C2048 C2043 1.350 . S
C2049 H2036 0.929 . S
C2049 C2041 1.433 . S
C2049 N2051 1.384 . S
N2050 C2046 1.427 . S
N2050 C2047 1.384 . S
N2051 C2043 1.427 . S
N2051 C2049 1.384 . S
H2052 C2058 0.930 . S
H2053 C2062 0.930 . S
H2054 C2067 0.929 . S
H2055 C2065 0.929 . S
H2056 C2060 0.929 . S
H2057 C2066 0.929 . S
C2058 H2052 0.930 . S
C2058 C2059 1.367 . S
C2058 C2066 1.378 . S
C2059 C2058 1.367 . S
C2059 C2067 1.433 . S
C2060 H2056 0.929 . S
C2060 C2062 1.378 . S
C2060 C2064 1.350 . S
C2061 C2064 1.463 . S
C2061 C2066 1.350 . S
C2061 N2069 1.427 . S
C2062 H2053 0.930 . S
C2062 C2060 1.378 . S
C2062 C2063 1.367 . S
C2063 C2062 1.367 . S
C2063 C2065 1.433 . S
C2064 C2060 1.350 . S
C2064 C2061 1.463 . S
C2064 N2068 1.427 . S
C2065 H2055 0.929 . S
C2065 C2063 1.433 . S
C2065 N2068 1.384 . S
C2066 H2057 0.929 . S
C2066 C2058 1.378 . S
C2066 C2061 1.350 . S
C2067 H2054 0.929 . S
C2067 C2059 1.433 . S
C2067 N2069 1.384 . S
N2068 C2064 1.427 . S
N2068 C2065 1.384 . S
N2069 C2061 1.427 . S
N2069 C2067 1.384 . S
H2070 C2076 0.930 . S
H2071 C2080 0.930 . S
H2072 C2085 0.929 . S
H2073 C2083 0.929 . S
H2074 C2078 0.929 . S
H2075 C2084 0.929 . S
C2076 H2070 0.930 . S
C2076 C2077 1.367 . S
C2076 C2084 1.378 . S
C2077 C2076 1.367 . S
C2077 C2085 1.433 . S
C2078 H2074 0.929 . S
C2078 C2080 1.378 . S
C2078 C2082 1.350 . S
C2079 C2082 1.463 . S
C2079 C2084 1.350 . S
C2079 N2087 1.427 . S
C2080 H2071 0.930 . S
C2080 C2078 1.378 . S
C2080 C2081 1.367 . S
C2081 C2080 1.367 . S
C2081 C2083 1.433 . S
C2082 C2078 1.350 . S
C2082 C2079 1.463 . S
C2082 N2086 1.427 . S
C2083 H2073 0.929 . S
C2083 C2081 1.433 . S
C2083 N2086 1.384 . S
C2084 H2075 0.929 . S
C2084 C2076 1.378 . S
C2084 C2079 1.350 . S
C2085 H2072 0.929 . S
C2085 C2077 1.433 . S
C2085 N2087 1.384 . S
N2086 C2082 1.427 . S
N2086 C2083 1.384 . S
N2087 C2079 1.427 . S
N2087 C2085 1.384 . S
H2088 C2094 0.930 . S
H2089 C2098 0.930 . S
H2090 C2103 0.929 . S
H2091 C2101 0.929 . S
H2092 C2096 0.929 . S
H2093 C2102 0.929 . S
C2094 H2088 0.930 . S
C2094 C2095 1.367 . S
C2094 C2102 1.378 . S
C2095 C2094 1.367 . S
C2095 C2103 1.433 . S
C2096 H2092 0.929 . S
C2096 C2098 1.378 . S
C2096 C2100 1.350 . S
C2097 C2100 1.463 . S
C2097 C2102 1.350 . S
C2097 N2105 1.427 . S
C2098 H2089 0.930 . S
C2098 C2096 1.378 . S
C2098 C2099 1.367 . S
C2099 C2098 1.367 . S
C2099 C2101 1.433 . S
C2100 C2096 1.350 . S
C2100 C2097 1.463 . S
C2100 N2104 1.427 . S
C2101 H2091 0.929 . S
C2101 C2099 1.433 . S
C2101 N2104 1.384 . S
C2102 H2093 0.929 . S
C2102 C2094 1.378 . S
C2102 C2097 1.350 . S
C2103 H2090 0.929 . S
C2103 C2095 1.433 . S
C2103 N2105 1.384 . S
N2104 C2100 1.427 . S
N2104 C2101 1.384 . S
N2105 C2097 1.427 . S
N2105 C2103 1.384 . S
H2106 C2112 0.930 . S
H2107 C2116 0.930 . S
H2108 C2121 0.929 . S
H2109 C2119 0.929 . S
H2110 C2114 0.929 . S
H2111 C2120 0.929 . S
C2112 H2106 0.930 . S
C2112 C2113 1.367 . S
C2112 C2120 1.378 . S
C2113 C2112 1.367 . S
C2113 C2121 1.433 . S
C2114 H2110 0.929 . S
C2114 C2116 1.378 . S
C2114 C2118 1.350 . S
C2115 C2118 1.463 . S
C2115 C2120 1.350 . S
C2115 N2123 1.427 . S
C2116 H2107 0.930 . S
C2116 C2114 1.378 . S
C2116 C2117 1.367 . S
C2117 C2116 1.367 . S
C2117 C2119 1.433 . S
C2118 C2114 1.350 . S
C2118 C2115 1.463 . S
C2118 N2122 1.427 . S
C2119 H2109 0.929 . S
C2119 C2117 1.433 . S
C2119 N2122 1.384 . S
C2120 H2111 0.929 . S
C2120 C2112 1.378 . S
C2120 C2115 1.350 . S
C2121 H2108 0.929 . S
C2121 C2113 1.433 . S
C2121 N2123 1.384 . S
N2122 C2118 1.427 . S
N2122 C2119 1.384 . S
N2123 C2115 1.427 . S
N2123 C2121 1.384 . S
H2124 C2130 0.930 . S
H2125 C2134 0.930 . S
H2126 C2139 0.929 . S
H2127 C2137 0.929 . S
H2128 C2132 0.929 . S
H2129 C2138 0.929 . S
C2130 H2124 0.930 . S
C2130 C2131 1.367 . S
C2130 C2138 1.378 . S
C2131 C2130 1.367 . S
C2131 C2139 1.433 . S
C2132 H2128 0.929 . S
C2132 C2134 1.378 . S
C2132 C2136 1.350 . S
C2133 C2136 1.463 . S
C2133 C2138 1.350 . S
C2133 N2141 1.427 . S
C2134 H2125 0.930 . S
C2134 C2132 1.378 . S
C2134 C2135 1.367 . S
C2135 C2134 1.367 . S
C2135 C2137 1.433 . S
C2136 C2132 1.350 . S
C2136 C2133 1.463 . S
C2136 N2140 1.427 . S
C2137 H2127 0.929 . S
C2137 C2135 1.433 . S
C2137 N2140 1.384 . S
C2138 H2129 0.929 . S
C2138 C2130 1.378 . S
C2138 C2133 1.350 . S
C2139 H2126 0.929 . S
C2139 C2131 1.433 . S
C2139 N2141 1.384 . S
N2140 C2136 1.427 . S
N2140 C2137 1.384 . S
N2141 C2133 1.427 . S
N2141 C2139 1.384 . S
H2142 C2148 0.930 . S
H2143 C2152 0.930 . S
H2144 C2157 0.929 . S
H2145 C2155 0.929 . S
H2146 C2150 0.929 . S
H2147 C2156 0.929 . S
C2148 H2142 0.930 . S
C2148 C2149 1.367 . S
C2148 C2156 1.378 . S
C2149 C2148 1.367 . S
C2149 C2157 1.433 . S
C2150 H2146 0.929 . S
C2150 C2152 1.378 . S
C2150 C2154 1.350 . S
C2151 C2154 1.463 . S
C2151 C2156 1.350 . S
C2151 N2159 1.427 . S
C2152 H2143 0.930 . S
C2152 C2150 1.378 . S
C2152 C2153 1.367 . S
C2153 C2152 1.367 . S
C2153 C2155 1.433 . S
C2154 C2150 1.350 . S
C2154 C2151 1.463 . S
C2154 N2158 1.427 . S
C2155 H2145 0.929 . S
C2155 C2153 1.433 . S
C2155 N2158 1.384 . S
C2156 H2147 0.929 . S
C2156 C2148 1.378 . S
C2156 C2151 1.350 . S
C2157 H2144 0.929 . S
C2157 C2149 1.433 . S
C2157 N2159 1.384 . S
N2158 C2154 1.427 . S
N2158 C2155 1.384 . S
N2159 C2151 1.427 . S
N2159 C2157 1.384 . S
H2160 C2166 0.930 . S
H2161 C2170 0.930 . S
H2162 C2175 0.929 . S
H2163 C2173 0.929 . S
H2164 C2168 0.929 . S
H2165 C2174 0.929 . S
C2166 H2160 0.930 . S
C2166 C2167 1.367 . S
C2166 C2174 1.378 . S
C2167 C2166 1.367 . S
C2167 C2175 1.433 . S
C2168 H2164 0.929 . S
C2168 C2170 1.378 . S
C2168 C2172 1.350 . S
C2169 C2172 1.463 . S
C2169 C2174 1.350 . S
C2169 N2177 1.427 . S
C2170 H2161 0.930 . S
C2170 C2168 1.378 . S
C2170 C2171 1.367 . S
C2171 C2170 1.367 . S
C2171 C2173 1.433 . S
C2172 C2168 1.350 . S
C2172 C2169 1.463 . S
C2172 N2176 1.427 . S
C2173 H2163 0.929 . S
C2173 C2171 1.433 . S
C2173 N2176 1.384 . S
C2174 H2165 0.929 . S
C2174 C2166 1.378 . S
C2174 C2169 1.350 . S
C2175 H2162 0.929 . S
C2175 C2167 1.433 . S
C2175 N2177 1.384 . S
N2176 C2172 1.427 . S
N2176 C2173 1.384 . S
N2177 C2169 1.427 . S
N2177 C2175 1.384 . S
H2178 C2184 0.930 . S
H2179 C2188 0.930 . S
H2180 C2193 0.929 . S
H2181 C2191 0.929 . S
H2182 C2186 0.929 . S
H2183 C2192 0.929 . S
C2184 H2178 0.930 . S
C2184 C2185 1.367 . S
C2184 C2192 1.378 . S
C2185 C2184 1.367 . S
C2185 C2193 1.433 . S
C2186 H2182 0.929 . S
C2186 C2188 1.378 . S
C2186 C2190 1.350 . S
C2187 C2190 1.463 . S
C2187 C2192 1.350 . S
C2187 N2195 1.427 . S
C2188 H2179 0.930 . S
C2188 C2186 1.378 . S
C2188 C2189 1.367 . S
C2189 C2188 1.367 . S
C2189 C2191 1.433 . S
C2190 C2186 1.350 . S
C2190 C2187 1.463 . S
C2190 N2194 1.427 . S
C2191 H2181 0.929 . S
C2191 C2189 1.433 . S
C2191 N2194 1.384 . S
C2192 H2183 0.929 . S
C2192 C2184 1.378 . S
C2192 C2187 1.350 . S
C2193 H2180 0.929 . S
C2193 C2185 1.433 . S
C2193 N2195 1.384 . S
N2194 C2190 1.427 . S
N2194 C2191 1.384 . S
N2195 C2187 1.427 . S
N2195 C2193 1.384 . S
H2196 C2202 0.930 . S
H2197 C2206 0.930 . S
H2198 C2211 0.929 . S
H2199 C2209 0.929 . S
H2200 C2204 0.929 . S
H2201 C2210 0.929 . S
C2202 H2196 0.930 . S
C2202 C2203 1.367 . S
C2202 C2210 1.378 . S
C2203 C2202 1.367 . S
C2203 C2211 1.433 . S
C2204 H2200 0.929 . S
C2204 C2206 1.378 . S
C2204 C2208 1.350 . S
C2205 C2208 1.463 . S
C2205 C2210 1.350 . S
C2205 N2213 1.427 . S
C2206 H2197 0.930 . S
C2206 C2204 1.378 . S
C2206 C2207 1.367 . S
C2207 C2206 1.367 . S
C2207 C2209 1.433 . S
C2208 C2204 1.350 . S
C2208 C2205 1.463 . S
C2208 N2212 1.427 . S
C2209 H2199 0.929 . S
C2209 C2207 1.433 . S
C2209 N2212 1.384 . S
C2210 H2201 0.929 . S
C2210 C2202 1.378 . S
C2210 C2205 1.350 . S
C2211 H2198 0.929 . S
C2211 C2203 1.433 . S
C2211 N2213 1.384 . S
N2212 C2208 1.427 . S
N2212 C2209 1.384 . S
N2213 C2205 1.427 . S
N2213 C2211 1.384 . S
H2214 C2220 0.930 . S
H2215 C2224 0.930 . S
H2216 C2229 0.929 . S
H2217 C2227 0.929 . S
H2218 C2222 0.929 . S
H2219 C2228 0.929 . S
C2220 H2214 0.930 . S
C2220 C2221 1.367 . S
C2220 C2228 1.378 . S
C2221 C2220 1.367 . S
C2221 C2229 1.433 . S
C2222 H2218 0.929 . S
C2222 C2224 1.378 . S
C2222 C2226 1.350 . S
C2223 C2226 1.463 . S
C2223 C2228 1.350 . S
C2223 N2231 1.427 . S
C2224 H2215 0.930 . S
C2224 C2222 1.378 . S
C2224 C2225 1.367 . S
C2225 C2224 1.367 . S
C2225 C2227 1.433 . S
C2226 C2222 1.350 . S
C2226 C2223 1.463 . S
C2226 N2230 1.427 . S
C2227 H2217 0.929 . S
C2227 C2225 1.433 . S
C2227 N2230 1.384 . S
C2228 H2219 0.929 . S
C2228 C2220 1.378 . S
C2228 C2223 1.350 . S
C2229 H2216 0.929 . S
C2229 C2221 1.433 . S
C2229 N2231 1.384 . S
N2230 C2226 1.427 . S
N2230 C2227 1.384 . S
N2231 C2223 1.427 . S
N2231 C2229 1.384 . S
H2232 C2238 0.930 . S
H2233 C2242 0.930 . S
H2234 C2247 0.929 . S
H2235 C2245 0.929 . S
H2236 C2240 0.929 . S
H2237 C2246 0.929 . S
C2238 H2232 0.930 . S
C2238 C2239 1.367 . S
C2238 C2246 1.378 . S
C2239 C2238 1.367 . S
C2239 C2247 1.433 . S
C2240 H2236 0.929 . S
C2240 C2242 1.378 . S
C2240 C2244 1.350 . S
C2241 C2244 1.463 . S
C2241 C2246 1.350 . S
C2241 N2249 1.427 . S
C2242 H2233 0.930 . S
C2242 C2240 1.378 . S
C2242 C2243 1.367 . S
C2243 C2242 1.367 . S
C2243 C2245 1.433 . S
C2244 C2240 1.350 . S
C2244 C2241 1.463 . S
C2244 N2248 1.427 . S
C2245 H2235 0.929 . S
C2245 C2243 1.433 . S
C2245 N2248 1.384 . S
C2246 H2237 0.929 . S
C2246 C2238 1.378 . S
C2246 C2241 1.350 . S
C2247 H2234 0.929 . S
C2247 C2239 1.433 . S
C2247 N2249 1.384 . S
N2248 C2244 1.427 . S
N2248 C2245 1.384 . S
N2249 C2241 1.427 . S
N2249 C2247 1.384 . S
H2250 C2256 0.930 . S
H2251 C2260 0.930 . S
H2252 C2265 0.929 . S
H2253 C2263 0.929 . S
H2254 C2258 0.929 . S
H2255 C2264 0.929 . S
C2256 H2250 0.930 . S
C2256 C2257 1.367 . S
C2256 C2264 1.378 . S
C2257 C2256 1.367 . S
C2257 C2265 1.433 . S
C2258 H2254 0.929 . S
C2258 C2260 1.378 . S
C2258 C2262 1.350 . S
C2259 C2262 1.463 . S
C2259 C2264 1.350 . S
C2259 N2267 1.427 . S
C2260 H2251 0.930 . S
C2260 C2258 1.378 . S
C2260 C2261 1.367 . S
C2261 C2260 1.367 . S
C2261 C2263 1.433 . S
C2262 C2258 1.350 . S
C2262 C2259 1.463 . S
C2262 N2266 1.427 . S
C2263 H2253 0.929 . S
C2263 C2261 1.433 . S
C2263 N2266 1.384 . S
C2264 H2255 0.929 . S
C2264 C2256 1.378 . S
C2264 C2259 1.350 . S
C2265 H2252 0.929 . S
C2265 C2257 1.433 . S
C2265 N2267 1.384 . S
N2266 C2262 1.427 . S
N2266 C2263 1.384 . S
N2267 C2259 1.427 . S
N2267 C2265 1.384 . S
H2268 C2274 0.930 . S
H2269 C2278 0.930 . S
H2270 C2283 0.929 . S
H2271 C2281 0.929 . S
H2272 C2276 0.929 . S
H2273 C2282 0.929 . S
C2274 H2268 0.930 . S
C2274 C2275 1.367 . S
C2274 C2282 1.378 . S
C2275 C2274 1.367 . S
C2275 C2283 1.433 . S
C2276 H2272 0.929 . S
C2276 C2278 1.378 . S
C2276 C2280 1.350 . S
C2277 C2280 1.463 . S
C2277 C2282 1.350 . S
C2277 N2285 1.427 . S
C2278 H2269 0.930 . S
C2278 C2276 1.378 . S
C2278 C2279 1.367 . S
C2279 C2278 1.367 . S
C2279 C2281 1.433 . S
C2280 C2276 1.350 . S
C2280 C2277 1.463 . S
C2280 N2284 1.427 . S
C2281 H2271 0.929 . S
C2281 C2279 1.433 . S
C2281 N2284 1.384 . S
C2282 H2273 0.929 . S
C2282 C2274 1.378 . S
C2282 C2277 1.350 . S
C2283 H2270 0.929 . S
C2283 C2275 1.433 . S
C2283 N2285 1.384 . S
N2284 C2280 1.427 . S
N2284 C2281 1.384 . S
N2285 C2277 1.427 . S
N2285 C2283 1.384 . S
H2286 C2292 0.930 . S
H2287 C2296 0.930 . S
H2288 C2301 0.929 . S
H2289 C2299 0.929 . S
H2290 C2294 0.929 . S
H2291 C2300 0.929 . S
C2292 H2286 0.930 . S
C2292 C2293 1.367 . S
C2292 C2300 1.378 . S
C2293 C2292 1.367 . S
C2293 C2301 1.433 . S
C2294 H2290 0.929 . S
C2294 C2296 1.378 . S
C2294 C2298 1.350 . S
C2295 C2298 1.463 . S
C2295 C2300 1.350 . S
C2295 N2303 1.427 . S
C2296 H2287 0.930 . S
C2296 C2294 1.378 . S
C2296 C2297 1.367 . S
C2297 C2296 1.367 . S
C2297 C2299 1.433 . S
C2298 C2294 1.350 . S
C2298 C2295 1.463 . S
C2298 N2302 1.427 . S
C2299 H2289 0.929 . S
C2299 C2297 1.433 . S
C2299 N2302 1.384 . S
C2300 H2291 0.929 . S
C2300 C2292 1.378 . S
C2300 C2295 1.350 . S
C2301 H2288 0.929 . S
C2301 C2293 1.433 . S
C2301 N2303 1.384 . S
N2302 C2298 1.427 . S
N2302 C2299 1.384 . S
N2303 C2295 1.427 . S
N2303 C2301 1.384 . S
H2304 C2310 0.930 . S
H2305 C2314 0.930 . S
H2306 C2319 0.929 . S
H2307 C2317 0.929 . S
H2308 C2312 0.929 . S
H2309 C2318 0.929 . S
C2310 H2304 0.930 . S
C2310 C2311 1.367 . S
C2310 C2318 1.378 . S
C2311 C2310 1.367 . S
C2311 C2319 1.433 . S
C2312 H2308 0.929 . S
C2312 C2314 1.378 . S
C2312 C2316 1.350 . S
C2313 C2316 1.463 . S
C2313 C2318 1.350 . S
C2313 N2321 1.427 . S
C2314 H2305 0.930 . S
C2314 C2312 1.378 . S
C2314 C2315 1.367 . S
C2315 C2314 1.367 . S
C2315 C2317 1.433 . S
C2316 C2312 1.350 . S
C2316 C2313 1.463 . S
C2316 N2320 1.427 . S
C2317 H2307 0.929 . S
C2317 C2315 1.433 . S
C2317 N2320 1.384 . S
C2318 H2309 0.929 . S
C2318 C2310 1.378 . S
C2318 C2313 1.350 . S
C2319 H2306 0.929 . S
C2319 C2311 1.433 . S
C2319 N2321 1.384 . S
N2320 C2316 1.427 . S
N2320 C2317 1.384 . S
N2321 C2313 1.427 . S
N2321 C2319 1.384 . S
H2322 C2328 0.930 . S
H2323 C2332 0.930 . S
H2324 C2337 0.929 . S
H2325 C2335 0.929 . S
H2326 C2330 0.929 . S
H2327 C2336 0.929 . S
C2328 H2322 0.930 . S
C2328 C2329 1.367 . S
C2328 C2336 1.378 . S
C2329 C2328 1.367 . S
C2329 C2337 1.433 . S
C2330 H2326 0.929 . S
C2330 C2332 1.378 . S
C2330 C2334 1.350 . S
C2331 C2334 1.463 . S
C2331 C2336 1.350 . S
C2331 N2339 1.427 . S
C2332 H2323 0.930 . S
C2332 C2330 1.378 . S
C2332 C2333 1.367 . S
C2333 C2332 1.367 . S
C2333 C2335 1.433 . S
C2334 C2330 1.350 . S
C2334 C2331 1.463 . S
C2334 N2338 1.427 . S
C2335 H2325 0.929 . S
C2335 C2333 1.433 . S
C2335 N2338 1.384 . S
C2336 H2327 0.929 . S
C2336 C2328 1.378 . S
C2336 C2331 1.350 . S
C2337 H2324 0.929 . S
C2337 C2329 1.433 . S
C2337 N2339 1.384 . S
N2338 C2334 1.427 . S
N2338 C2335 1.384 . S
N2339 C2331 1.427 . S
N2339 C2337 1.384 . S
H2340 C2346 0.930 . S
H2341 C2350 0.930 . S
H2342 C2355 0.929 . S
H2343 C2353 0.929 . S
H2344 C2348 0.929 . S
H2345 C2354 0.929 . S
C2346 H2340 0.930 . S
C2346 C2347 1.367 . S
C2346 C2354 1.378 . S
C2347 C2346 1.367 . S
C2347 C2355 1.433 . S
C2348 H2344 0.929 . S
C2348 C2350 1.378 . S
C2348 C2352 1.350 . S
C2349 C2352 1.463 . S
C2349 C2354 1.350 . S
C2349 N2357 1.427 . S
C2350 H2341 0.930 . S
C2350 C2348 1.378 . S
C2350 C2351 1.367 . S
C2351 C2350 1.367 . S
C2351 C2353 1.433 . S
C2352 C2348 1.350 . S
C2352 C2349 1.463 . S
C2352 N2356 1.427 . S
C2353 H2343 0.929 . S
C2353 C2351 1.433 . S
C2353 N2356 1.384 . S
C2354 H2345 0.929 . S
C2354 C2346 1.378 . S
C2354 C2349 1.350 . S
C2355 H2342 0.929 . S
C2355 C2347 1.433 . S
C2355 N2357 1.384 . S
N2356 C2352 1.427 . S
N2356 C2353 1.384 . S
N2357 C2349 1.427 . S
N2357 C2355 1.384 . S
H2358 C2364 0.930 . S
H2359 C2368 0.930 . S
H2360 C2373 0.929 . S
H2361 C2371 0.929 . S
H2362 C2366 0.929 . S
H2363 C2372 0.929 . S
C2364 H2358 0.930 . S
C2364 C2365 1.367 . S
C2364 C2372 1.378 . S
C2365 C2364 1.367 . S
C2365 C2373 1.433 . S
C2366 H2362 0.929 . S
C2366 C2368 1.378 . S
C2366 C2370 1.350 . S
C2367 C2370 1.463 . S
C2367 C2372 1.350 . S
C2367 N2375 1.427 . S
C2368 H2359 0.930 . S
C2368 C2366 1.378 . S
C2368 C2369 1.367 . S
C2369 C2368 1.367 . S
C2369 C2371 1.433 . S
C2370 C2366 1.350 . S
C2370 C2367 1.463 . S
C2370 N2374 1.427 . S
C2371 H2361 0.929 . S
C2371 C2369 1.433 . S
C2371 N2374 1.384 . S
C2372 H2363 0.929 . S
C2372 C2364 1.378 . S
C2372 C2367 1.350 . S
C2373 H2360 0.929 . S
C2373 C2365 1.433 . S
C2373 N2375 1.384 . S
N2374 C2370 1.427 . S
N2374 C2371 1.384 . S
N2375 C2367 1.427 . S
N2375 C2373 1.384 . S
H2376 C2382 0.930 . S
H2377 C2386 0.930 . S
H2378 C2391 0.929 . S
H2379 C2389 0.929 . S
H2380 C2384 0.929 . S
H2381 C2390 0.929 . S
C2382 H2376 0.930 . S
C2382 C2383 1.367 . S
C2382 C2390 1.378 . S
C2383 C2382 1.367 . S
C2383 C2391 1.433 . S
C2384 H2380 0.929 . S
C2384 C2386 1.378 . S
C2384 C2388 1.350 . S
C2385 C2388 1.463 . S
C2385 C2390 1.350 . S
C2385 N2393 1.427 . S
C2386 H2377 0.930 . S
C2386 C2384 1.378 . S
C2386 C2387 1.367 . S
C2387 C2386 1.367 . S
C2387 C2389 1.433 . S
C2388 C2384 1.350 . S
C2388 C2385 1.463 . S
C2388 N2392 1.427 . S
C2389 H2379 0.929 . S
C2389 C2387 1.433 . S
C2389 N2392 1.384 . S
C2390 H2381 0.929 . S
C2390 C2382 1.378 . S
C2390 C2385 1.350 . S
C2391 H2378 0.929 . S
C2391 C2383 1.433 . S
C2391 N2393 1.384 . S
N2392 C2388 1.427 . S
N2392 C2389 1.384 . S
N2393 C2385 1.427 . S
N2393 C2391 1.384 . S
H2394 C2400 0.930 . S
H2395 C2404 0.930 . S
H2396 C2409 0.929 . S
H2397 C2407 0.929 . S
H2398 C2402 0.929 . S
H2399 C2408 0.929 . S
C2400 H2394 0.930 . S
C2400 C2401 1.367 . S
C2400 C2408 1.378 . S
C2401 C2400 1.367 . S
C2401 C2409 1.433 . S
C2402 H2398 0.929 . S
C2402 C2404 1.378 . S
C2402 C2406 1.350 . S
C2403 C2406 1.463 . S
C2403 C2408 1.350 . S
C2403 N2411 1.427 . S
C2404 H2395 0.930 . S
C2404 C2402 1.378 . S
C2404 C2405 1.367 . S
C2405 C2404 1.367 . S
C2405 C2407 1.433 . S
C2406 C2402 1.350 . S
C2406 C2403 1.463 . S
C2406 N2410 1.427 . S
C2407 H2397 0.929 . S
C2407 C2405 1.433 . S
C2407 N2410 1.384 . S
C2408 H2399 0.929 . S
C2408 C2400 1.378 . S
C2408 C2403 1.350 . S
C2409 H2396 0.929 . S
C2409 C2401 1.433 . S
C2409 N2411 1.384 . S
N2410 C2406 1.427 . S
N2410 C2407 1.384 . S
N2411 C2403 1.427 . S
N2411 C2409 1.384 . S
H2412 C2418 0.930 . S
H2413 C2422 0.930 . S
H2414 C2427 0.929 . S
H2415 C2425 0.929 . S
H2416 C2420 0.929 . S
H2417 C2426 0.929 . S
C2418 H2412 0.930 . S
C2418 C2419 1.367 . S
C2418 C2426 1.378 . S
C2419 C2418 1.367 . S
C2419 C2427 1.433 . S
C2420 H2416 0.929 . S
C2420 C2422 1.378 . S
C2420 C2424 1.350 . S
C2421 C2424 1.463 . S
C2421 C2426 1.350 . S
C2421 N2429 1.427 . S
C2422 H2413 0.930 . S
C2422 C2420 1.378 . S
C2422 C2423 1.367 . S
C2423 C2422 1.367 . S
C2423 C2425 1.433 . S
C2424 C2420 1.350 . S
C2424 C2421 1.463 . S
C2424 N2428 1.427 . S
C2425 H2415 0.929 . S
C2425 C2423 1.433 . S
C2425 N2428 1.384 . S
C2426 H2417 0.929 . S
C2426 C2418 1.378 . S
C2426 C2421 1.350 . S
C2427 H2414 0.929 . S
C2427 C2419 1.433 . S
C2427 N2429 1.384 . S
N2428 C2424 1.427 . S
N2428 C2425 1.384 . S
N2429 C2421 1.427 . S
N2429 C2427 1.384 . S
H2430 C2436 0.930 . S
H2431 C2440 0.930 . S
H2432 C2445 0.929 . S
H2433 C2443 0.929 . S
H2434 C2438 0.929 . S
H2435 C2444 0.929 . S
C2436 H2430 0.930 . S
C2436 C2437 1.367 . S
C2436 C2444 1.378 . S
C2437 C2436 1.367 . S
C2437 C2445 1.433 . S
C2438 H2434 0.929 . S
C2438 C2440 1.378 . S
C2438 C2442 1.350 . S
C2439 C2442 1.463 . S
C2439 C2444 1.350 . S
C2439 N2447 1.427 . S
C2440 H2431 0.930 . S
C2440 C2438 1.378 . S
C2440 C2441 1.367 . S
C2441 C2440 1.367 . S
C2441 C2443 1.433 . S
C2442 C2438 1.350 . S
C2442 C2439 1.463 . S
C2442 N2446 1.427 . S
C2443 H2433 0.929 . S
C2443 C2441 1.433 . S
C2443 N2446 1.384 . S
C2444 H2435 0.929 . S
C2444 C2436 1.378 . S
C2444 C2439 1.350 . S
C2445 H2432 0.929 . S
C2445 C2437 1.433 . S
C2445 N2447 1.384 . S
N2446 C2442 1.427 . S
N2446 C2443 1.384 . S
N2447 C2439 1.427 . S
N2447 C2445 1.384 . S
H2448 C2454 0.930 . S
H2449 C2458 0.930 . S
H2450 C2463 0.929 . S
H2451 C2461 0.929 . S
H2452 C2456 0.929 . S
H2453 C2462 0.929 . S
C2454 H2448 0.930 . S
C2454 C2455 1.367 . S
C2454 C2462 1.378 . S
C2455 C2454 1.367 . S
C2455 C2463 1.433 . S
C2456 H2452 0.929 . S
C2456 C2458 1.378 . S
C2456 C2460 1.350 . S
C2457 C2460 1.463 . S
C2457 C2462 1.350 . S
C2457 N2465 1.427 . S
C2458 H2449 0.930 . S
C2458 C2456 1.378 . S
C2458 C2459 1.367 . S
C2459 C2458 1.367 . S
C2459 C2461 1.433 . S
C2460 C2456 1.350 . S
C2460 C2457 1.463 . S
C2460 N2464 1.427 . S
C2461 H2451 0.929 . S
C2461 C2459 1.433 . S
C2461 N2464 1.384 . S
C2462 H2453 0.929 . S
C2462 C2454 1.378 . S
C2462 C2457 1.350 . S
C2463 H2450 0.929 . S
C2463 C2455 1.433 . S
C2463 N2465 1.384 . S
N2464 C2460 1.427 . S
N2464 C2461 1.384 . S
N2465 C2457 1.427 . S
N2465 C2463 1.384 . S
H2466 C2472 0.930 . S
H2467 C2476 0.930 . S
H2468 C2481 0.929 . S
H2469 C2479 0.929 . S
H2470 C2474 0.929 . S
H2471 C2480 0.929 . S
C2472 H2466 0.930 . S
C2472 C2473 1.367 . S
C2472 C2480 1.378 . S
C2473 C2472 1.367 . S
C2473 C2481 1.433 . S
C2474 H2470 0.929 . S
C2474 C2476 1.378 . S
C2474 C2478 1.350 . S
C2475 C2478 1.463 . S
C2475 C2480 1.350 . S
C2475 N2483 1.427 . S
C2476 H2467 0.930 . S
C2476 C2474 1.378 . S
C2476 C2477 1.367 . S
C2477 C2476 1.367 . S
C2477 C2479 1.433 . S
C2478 C2474 1.350 . S
C2478 C2475 1.463 . S
C2478 N2482 1.427 . S
C2479 H2469 0.929 . S
C2479 C2477 1.433 . S
C2479 N2482 1.384 . S
C2480 H2471 0.929 . S
C2480 C2472 1.378 . S
C2480 C2475 1.350 . S
C2481 H2468 0.929 . S
C2481 C2473 1.433 . S
C2481 N2483 1.384 . S
N2482 C2478 1.427 . S
N2482 C2479 1.384 . S
N2483 C2475 1.427 . S
N2483 C2481 1.384 . S
H2484 C2490 0.930 . S
H2485 C2494 0.930 . S
H2486 C2499 0.929 . S
H2487 C2497 0.929 . S
H2488 C2492 0.929 . S
H2489 C2498 0.929 . S
C2490 H2484 0.930 . S
C2490 C2491 1.367 . S
C2490 C2498 1.378 . S
C2491 C2490 1.367 . S
C2491 C2499 1.433 . S
C2492 H2488 0.929 . S
C2492 C2494 1.378 . S
C2492 C2496 1.350 . S
C2493 C2496 1.463 . S
C2493 C2498 1.350 . S
C2493 N2501 1.427 . S
C2494 H2485 0.930 . S
C2494 C2492 1.378 . S
C2494 C2495 1.367 . S
C2495 C2494 1.367 . S
C2495 C2497 1.433 . S
C2496 C2492 1.350 . S
C2496 C2493 1.463 . S
C2496 N2500 1.427 . S
C2497 H2487 0.929 . S
C2497 C2495 1.433 . S
C2497 N2500 1.384 . S
C2498 H2489 0.929 . S
C2498 C2490 1.378 . S
C2498 C2493 1.350 . S
C2499 H2486 0.929 . S
C2499 C2491 1.433 . S
C2499 N2501 1.384 . S
N2500 C2496 1.427 . S
N2500 C2497 1.384 . S
N2501 C2493 1.427 . S
N2501 C2499 1.384 . S
H2502 C2508 0.930 . S
H2503 C2512 0.930 . S
H2504 C2517 0.929 . S
H2505 C2515 0.929 . S
H2506 C2510 0.929 . S
H2507 C2516 0.929 . S
C2508 H2502 0.930 . S
C2508 C2509 1.367 . S
C2508 C2516 1.378 . S
C2509 C2508 1.367 . S
C2509 C2517 1.433 . S
C2510 H2506 0.929 . S
C2510 C2512 1.378 . S
C2510 C2514 1.350 . S
C2511 C2514 1.463 . S
C2511 C2516 1.350 . S
C2511 N2519 1.427 . S
C2512 H2503 0.930 . S
C2512 C2510 1.378 . S
C2512 C2513 1.367 . S
C2513 C2512 1.367 . S
C2513 C2515 1.433 . S
C2514 C2510 1.350 . S
C2514 C2511 1.463 . S
C2514 N2518 1.427 . S
C2515 H2505 0.929 . S
C2515 C2513 1.433 . S
C2515 N2518 1.384 . S
C2516 H2507 0.929 . S
C2516 C2508 1.378 . S
C2516 C2511 1.350 . S
C2517 H2504 0.929 . S
C2517 C2509 1.433 . S
C2517 N2519 1.384 . S
N2518 C2514 1.427 . S
N2518 C2515 1.384 . S
N2519 C2511 1.427 . S
N2519 C2517 1.384 . S
H2520 C2526 0.930 . S
H2521 C2530 0.930 . S
H2522 C2535 0.929 . S
H2523 C2533 0.929 . S
H2524 C2528 0.929 . S
H2525 C2534 0.929 . S
C2526 H2520 0.930 . S
C2526 C2527 1.367 . S
C2526 C2534 1.378 . S
C2527 C2526 1.367 . S
C2527 C2535 1.433 . S
C2528 H2524 0.929 . S
C2528 C2530 1.378 . S
C2528 C2532 1.350 . S
C2529 C2532 1.463 . S
C2529 C2534 1.350 . S
C2529 N2537 1.427 . S
C2530 H2521 0.930 . S
C2530 C2528 1.378 . S
C2530 C2531 1.367 . S
C2531 C2530 1.367 . S
C2531 C2533 1.433 . S
C2532 C2528 1.350 . S
C2532 C2529 1.463 . S
C2532 N2536 1.427 . S
C2533 H2523 0.929 . S
C2533 C2531 1.433 . S
C2533 N2536 1.384 . S
C2534 H2525 0.929 . S
C2534 C2526 1.378 . S
C2534 C2529 1.350 . S
C2535 H2522 0.929 . S
C2535 C2527 1.433 . S
C2535 N2537 1.384 . S
N2536 C2532 1.427 . S
N2536 C2533 1.384 . S
N2537 C2529 1.427 . S
N2537 C2535 1.384 . S
H2538 C2544 0.930 . S
H2539 C2548 0.930 . S
H2540 C2553 0.929 . S
H2541 C2551 0.929 . S
H2542 C2546 0.929 . S
H2543 C2552 0.929 . S
C2544 H2538 0.930 . S
C2544 C2545 1.367 . S
C2544 C2552 1.378 . S
C2545 C2544 1.367 . S
C2545 C2553 1.433 . S
C2546 H2542 0.929 . S
C2546 C2548 1.378 . S
C2546 C2550 1.350 . S
C2547 C2550 1.463 . S
C2547 C2552 1.350 . S
C2547 N2555 1.427 . S
C2548 H2539 0.930 . S
C2548 C2546 1.378 . S
C2548 C2549 1.367 . S
C2549 C2548 1.367 . S
C2549 C2551 1.433 . S
C2550 C2546 1.350 . S
C2550 C2547 1.463 . S
C2550 N2554 1.427 . S
C2551 H2541 0.929 . S
C2551 C2549 1.433 . S
C2551 N2554 1.384 . S
C2552 H2543 0.929 . S
C2552 C2544 1.378 . S
C2552 C2547 1.350 . S
C2553 H2540 0.929 . S
C2553 C2545 1.433 . S
C2553 N2555 1.384 . S
N2554 C2550 1.427 . S
N2554 C2551 1.384 . S
N2555 C2547 1.427 . S
N2555 C2553 1.384 . S
H2556 C2562 0.930 . S
H2557 C2566 0.930 . S
H2558 C2571 0.929 . S
H2559 C2569 0.929 . S
H2560 C2564 0.929 . S
H2561 C2570 0.929 . S
C2562 H2556 0.930 . S
C2562 C2563 1.367 . S
C2562 C2570 1.378 . S
C2563 C2562 1.367 . S
C2563 C2571 1.433 . S
C2564 H2560 0.929 . S
C2564 C2566 1.378 . S
C2564 C2568 1.350 . S
C2565 C2568 1.463 . S
C2565 C2570 1.350 . S
C2565 N2573 1.427 . S
C2566 H2557 0.930 . S
C2566 C2564 1.378 . S
C2566 C2567 1.367 . S
C2567 C2566 1.367 . S
C2567 C2569 1.433 . S
C2568 C2564 1.350 . S
C2568 C2565 1.463 . S
C2568 N2572 1.427 . S
C2569 H2559 0.929 . S
C2569 C2567 1.433 . S
C2569 N2572 1.384 . S
C2570 H2561 0.929 . S
C2570 C2562 1.378 . S
C2570 C2565 1.350 . S
C2571 H2558 0.929 . S
C2571 C2563 1.433 . S
C2571 N2573 1.384 . S
N2572 C2568 1.427 . S
N2572 C2569 1.384 . S
N2573 C2565 1.427 . S
N2573 C2571 1.384 . S
H2574 C2580 0.930 . S
H2575 C2584 0.930 . S
H2576 C2589 0.929 . S
H2577 C2587 0.929 . S
H2578 C2582 0.929 . S
H2579 C2588 0.929 . S
C2580 H2574 0.930 . S
C2580 C2581 1.367 . S
C2580 C2588 1.378 . S
C2581 C2580 1.367 . S
C2581 C2589 1.433 . S
C2582 H2578 0.929 . S
C2582 C2584 1.378 . S
C2582 C2586 1.350 . S
C2583 C2586 1.463 . S
C2583 C2588 1.350 . S
C2583 N2591 1.427 . S
C2584 H2575 0.930 . S
C2584 C2582 1.378 . S
C2584 C2585 1.367 . S
C2585 C2584 1.367 . S
C2585 C2587 1.433 . S
C2586 C2582 1.350 . S
C2586 C2583 1.463 . S
C2586 N2590 1.427 . S
C2587 H2577 0.929 . S
C2587 C2585 1.433 . S
C2587 N2590 1.384 . S
C2588 H2579 0.929 . S
C2588 C2580 1.378 . S
C2588 C2583 1.350 . S
C2589 H2576 0.929 . S
C2589 C2581 1.433 . S
C2589 N2591 1.384 . S
N2590 C2586 1.427 . S
N2590 C2587 1.384 . S
N2591 C2583 1.427 . S
N2591 C2589 1.384 . S
H2592 C2598 0.930 . S
H2593 C2602 0.930 . S
H2594 C2607 0.929 . S
H2595 C2605 0.929 . S
H2596 C2600 0.929 . S
H2597 C2606 0.929 . S
C2598 H2592 0.930 . S
C2598 C2599 1.367 . S
C2598 C2606 1.378 . S
C2599 C2598 1.367 . S
C2599 C2607 1.433 . S
C2600 H2596 0.929 . S
C2600 C2602 1.378 . S
C2600 C2604 1.350 . S
C2601 C2604 1.463 . S
C2601 C2606 1.350 . S
C2601 N2609 1.427 . S
C2602 H2593 0.930 . S
C2602 C2600 1.378 . S
C2602 C2603 1.367 . S
C2603 C2602 1.367 . S
C2603 C2605 1.433 . S
C2604 C2600 1.350 . S
C2604 C2601 1.463 . S
C2604 N2608 1.427 . S
C2605 H2595 0.929 . S
C2605 C2603 1.433 . S
C2605 N2608 1.384 . S
C2606 H2597 0.929 . S
C2606 C2598 1.378 . S
C2606 C2601 1.350 . S
C2607 H2594 0.929 . S
C2607 C2599 1.433 . S
C2607 N2609 1.384 . S
N2608 C2604 1.427 . S
N2608 C2605 1.384 . S
N2609 C2601 1.427 . S
N2609 C2607 1.384 . S
H2610 C2616 0.930 . S
H2611 C2620 0.930 . S
H2612 C2625 0.929 . S
H2613 C2623 0.929 . S
H2614 C2618 0.929 . S
H2615 C2624 0.929 . S
C2616 H2610 0.930 . S
C2616 C2617 1.367 . S
C2616 C2624 1.378 . S
C2617 C2616 1.367 . S
C2617 C2625 1.433 . S
C2618 H2614 0.929 . S
C2618 C2620 1.378 . S
C2618 C2622 1.350 . S
C2619 C2622 1.463 . S
C2619 C2624 1.350 . S
C2619 N2627 1.427 . S
C2620 H2611 0.930 . S
C2620 C2618 1.378 . S
C2620 C2621 1.367 . S
C2621 C2620 1.367 . S
C2621 C2623 1.433 . S
C2622 C2618 1.350 . S
C2622 C2619 1.463 . S
C2622 N2626 1.427 . S
C2623 H2613 0.929 . S
C2623 C2621 1.433 . S
C2623 N2626 1.384 . S
C2624 H2615 0.929 . S
C2624 C2616 1.378 . S
C2624 C2619 1.350 . S
C2625 H2612 0.929 . S
C2625 C2617 1.433 . S
C2625 N2627 1.384 . S
N2626 C2622 1.427 . S
N2626 C2623 1.384 . S
N2627 C2619 1.427 . S
N2627 C2625 1.384 . S
H2628 C2634 0.930 . S
H2629 C2638 0.930 . S
H2630 C2643 0.929 . S
H2631 C2641 0.929 . S
H2632 C2636 0.929 . S
H2633 C2642 0.929 . S
C2634 H2628 0.930 . S
C2634 C2635 1.367 . S
C2634 C2642 1.378 . S
C2635 C2634 1.367 . S
C2635 C2643 1.433 . S
C2636 H2632 0.929 . S
C2636 C2638 1.378 . S
C2636 C2640 1.350 . S
C2637 C2640 1.463 . S
C2637 C2642 1.350 . S
C2637 N2645 1.427 . S
C2638 H2629 0.930 . S
C2638 C2636 1.378 . S
C2638 C2639 1.367 . S
C2639 C2638 1.367 . S
C2639 C2641 1.433 . S
C2640 C2636 1.350 . S
C2640 C2637 1.463 . S
C2640 N2644 1.427 . S
C2641 H2631 0.929 . S
C2641 C2639 1.433 . S
C2641 N2644 1.384 . S
C2642 H2633 0.929 . S
C2642 C2634 1.378 . S
C2642 C2637 1.350 . S
C2643 H2630 0.929 . S
C2643 C2635 1.433 . S
C2643 N2645 1.384 . S
N2644 C2640 1.427 . S
N2644 C2641 1.384 . S
N2645 C2637 1.427 . S
N2645 C2643 1.384 . S
H2646 C2652 0.930 . S
H2647 C2656 0.930 . S
H2648 C2661 0.929 . S
H2649 C2659 0.929 . S
H2650 C2654 0.929 . S
H2651 C2660 0.929 . S
C2652 H2646 0.930 . S
C2652 C2653 1.367 . S
C2652 C2660 1.378 . S
C2653 C2652 1.367 . S
C2653 C2661 1.433 . S
C2654 H2650 0.929 . S
C2654 C2656 1.378 . S
C2654 C2658 1.350 . S
C2655 C2658 1.463 . S
C2655 C2660 1.350 . S
C2655 N2663 1.427 . S
C2656 H2647 0.930 . S
C2656 C2654 1.378 . S
C2656 C2657 1.367 . S
C2657 C2656 1.367 . S
C2657 C2659 1.433 . S
C2658 C2654 1.350 . S
C2658 C2655 1.463 . S
C2658 N2662 1.427 . S
C2659 H2649 0.929 . S
C2659 C2657 1.433 . S
C2659 N2662 1.384 . S
C2660 H2651 0.929 . S
C2660 C2652 1.378 . S
C2660 C2655 1.350 . S
C2661 H2648 0.929 . S
C2661 C2653 1.433 . S
C2661 N2663 1.384 . S
N2662 C2658 1.427 . S
N2662 C2659 1.384 . S
N2663 C2655 1.427 . S
N2663 C2661 1.384 . S
H2664 C2670 0.930 . S
H2665 C2674 0.930 . S
H2666 C2679 0.929 . S
H2667 C2677 0.929 . S
H2668 C2672 0.929 . S
H2669 C2678 0.929 . S
C2670 H2664 0.930 . S
C2670 C2671 1.367 . S
C2670 C2678 1.378 . S
C2671 C2670 1.367 . S
C2671 C2679 1.433 . S
C2672 H2668 0.929 . S
C2672 C2674 1.378 . S
C2672 C2676 1.350 . S
C2673 C2676 1.463 . S
C2673 C2678 1.350 . S
C2673 N2681 1.427 . S
C2674 H2665 0.930 . S
C2674 C2672 1.378 . S
C2674 C2675 1.367 . S
C2675 C2674 1.367 . S
C2675 C2677 1.433 . S
C2676 C2672 1.350 . S
C2676 C2673 1.463 . S
C2676 N2680 1.427 . S
C2677 H2667 0.929 . S
C2677 C2675 1.433 . S
C2677 N2680 1.384 . S
C2678 H2669 0.929 . S
C2678 C2670 1.378 . S
C2678 C2673 1.350 . S
C2679 H2666 0.929 . S
C2679 C2671 1.433 . S
C2679 N2681 1.384 . S
N2680 C2676 1.427 . S
N2680 C2677 1.384 . S
N2681 C2673 1.427 . S
N2681 C2679 1.384 . S
H2682 C2688 0.930 . S
H2683 C2692 0.930 . S
H2684 C2697 0.929 . S
H2685 C2695 0.929 . S
H2686 C2690 0.929 . S
H2687 C2696 0.929 . S
C2688 H2682 0.930 . S
C2688 C2689 1.367 . S
C2688 C2696 1.378 . S
C2689 C2688 1.367 . S
C2689 C2697 1.433 . S
C2690 H2686 0.929 . S
C2690 C2692 1.378 . S
C2690 C2694 1.350 . S
C2691 C2694 1.463 . S
C2691 C2696 1.350 . S
C2691 N2699 1.427 . S
C2692 H2683 0.930 . S
C2692 C2690 1.378 . S
C2692 C2693 1.367 . S
C2693 C2692 1.367 . S
C2693 C2695 1.433 . S
C2694 C2690 1.350 . S
C2694 C2691 1.463 . S
C2694 N2698 1.427 . S
C2695 H2685 0.929 . S
C2695 C2693 1.433 . S
C2695 N2698 1.384 . S
C2696 H2687 0.929 . S
C2696 C2688 1.378 . S
C2696 C2691 1.350 . S
C2697 H2684 0.929 . S
C2697 C2689 1.433 . S
C2697 N2699 1.384 . S
N2698 C2694 1.427 . S
N2698 C2695 1.384 . S
N2699 C2691 1.427 . S
N2699 C2697 1.384 . S
H2700 C2706 0.930 . S
H2701 C2710 0.930 . S
H2702 C2715 0.929 . S
H2703 C2713 0.929 . S
H2704 C2708 0.929 . S
H2705 C2714 0.929 . S
C2706 H2700 0.930 . S
C2706 C2707 1.367 . S
C2706 C2714 1.378 . S
C2707 C2706 1.367 . S
C2707 C2715 1.433 . S
C2708 H2704 0.929 . S
C2708 C2710 1.378 . S
C2708 C2712 1.350 . S
C2709 C2712 1.463 . S
C2709 C2714 1.350 . S
C2709 N2717 1.427 . S
C2710 H2701 0.930 . S
C2710 C2708 1.378 . S
C2710 C2711 1.367 . S
C2711 C2710 1.367 . S
C2711 C2713 1.433 . S
C2712 C2708 1.350 . S
C2712 C2709 1.463 . S
C2712 N2716 1.427 . S
C2713 H2703 0.929 . S
C2713 C2711 1.433 . S
C2713 N2716 1.384 . S
C2714 H2705 0.929 . S
C2714 C2706 1.378 . S
C2714 C2709 1.350 . S
C2715 H2702 0.929 . S
C2715 C2707 1.433 . S
C2715 N2717 1.384 . S
N2716 C2712 1.427 . S
N2716 C2713 1.384 . S
N2717 C2709 1.427 . S
N2717 C2715 1.384 . S
H2718 C2724 0.930 . S
H2719 C2728 0.930 . S
H2720 C2733 0.929 . S
H2721 C2731 0.929 . S
H2722 C2726 0.929 . S
H2723 C2732 0.929 . S
C2724 H2718 0.930 . S
C2724 C2725 1.367 . S
C2724 C2732 1.378 . S
C2725 C2724 1.367 . S
C2725 C2733 1.433 . S
C2726 H2722 0.929 . S
C2726 C2728 1.378 . S
C2726 C2730 1.350 . S
C2727 C2730 1.463 . S
C2727 C2732 1.350 . S
C2727 N2735 1.427 . S
C2728 H2719 0.930 . S
C2728 C2726 1.378 . S
C2728 C2729 1.367 . S
C2729 C2728 1.367 . S
C2729 C2731 1.433 . S
C2730 C2726 1.350 . S
C2730 C2727 1.463 . S
C2730 N2734 1.427 . S
C2731 H2721 0.929 . S
C2731 C2729 1.433 . S
C2731 N2734 1.384 . S
C2732 H2723 0.929 . S
C2732 C2724 1.378 . S
C2732 C2727 1.350 . S
C2733 H2720 0.929 . S
C2733 C2725 1.433 . S
C2733 N2735 1.384 . S
N2734 C2730 1.427 . S
N2734 C2731 1.384 . S
N2735 C2727 1.427 . S
N2735 C2733 1.384 . S
H2736 C2742 0.930 . S
H2737 C2746 0.930 . S
H2738 C2751 0.929 . S
H2739 C2749 0.929 . S
H2740 C2744 0.929 . S
H2741 C2750 0.929 . S
C2742 H2736 0.930 . S
C2742 C2743 1.367 . S
C2742 C2750 1.378 . S
C2743 C2742 1.367 . S
C2743 C2751 1.433 . S
C2744 H2740 0.929 . S
C2744 C2746 1.378 . S
C2744 C2748 1.350 . S
C2745 C2748 1.463 . S
C2745 C2750 1.350 . S
C2745 N2753 1.427 . S
C2746 H2737 0.930 . S
C2746 C2744 1.378 . S
C2746 C2747 1.367 . S
C2747 C2746 1.367 . S
C2747 C2749 1.433 . S
C2748 C2744 1.350 . S
C2748 C2745 1.463 . S
C2748 N2752 1.427 . S
C2749 H2739 0.929 . S
C2749 C2747 1.433 . S
C2749 N2752 1.384 . S
C2750 H2741 0.929 . S
C2750 C2742 1.378 . S
C2750 C2745 1.350 . S
C2751 H2738 0.929 . S
C2751 C2743 1.433 . S
C2751 N2753 1.384 . S
N2752 C2748 1.427 . S
N2752 C2749 1.384 . S
N2753 C2745 1.427 . S
N2753 C2751 1.384 . S
H2754 C2760 0.930 . S
H2755 C2764 0.930 . S
H2756 C2769 0.929 . S
H2757 C2767 0.929 . S
H2758 C2762 0.929 . S
H2759 C2768 0.929 . S
C2760 H2754 0.930 . S
C2760 C2761 1.367 . S
C2760 C2768 1.378 . S
C2761 C2760 1.367 . S
C2761 C2769 1.433 . S
C2762 H2758 0.929 . S
C2762 C2764 1.378 . S
C2762 C2766 1.350 . S
C2763 C2766 1.463 . S
C2763 C2768 1.350 . S
C2763 N2771 1.427 . S
C2764 H2755 0.930 . S
C2764 C2762 1.378 . S
C2764 C2765 1.367 . S
C2765 C2764 1.367 . S
C2765 C2767 1.433 . S
C2766 C2762 1.350 . S
C2766 C2763 1.463 . S
C2766 N2770 1.427 . S
C2767 H2757 0.929 . S
C2767 C2765 1.433 . S
C2767 N2770 1.384 . S
C2768 H2759 0.929 . S
C2768 C2760 1.378 . S
C2768 C2763 1.350 . S
C2769 H2756 0.929 . S
C2769 C2761 1.433 . S
C2769 N2771 1.384 . S
N2770 C2766 1.427 . S
N2770 C2767 1.384 . S
N2771 C2763 1.427 . S
N2771 C2769 1.384 . S
H2772 C2778 0.930 . S
H2773 C2782 0.930 . S
H2774 C2787 0.929 . S
H2775 C2785 0.929 . S
H2776 C2780 0.929 . S
H2777 C2786 0.929 . S
C2778 H2772 0.930 . S
C2778 C2779 1.367 . S
C2778 C2786 1.378 . S
C2779 C2778 1.367 . S
C2779 C2787 1.433 . S
C2780 H2776 0.929 . S
C2780 C2782 1.378 . S
C2780 C2784 1.350 . S
C2781 C2784 1.463 . S
C2781 C2786 1.350 . S
C2781 N2789 1.427 . S
C2782 H2773 0.930 . S
C2782 C2780 1.378 . S
C2782 C2783 1.367 . S
C2783 C2782 1.367 . S
C2783 C2785 1.433 . S
C2784 C2780 1.350 . S
C2784 C2781 1.463 . S
C2784 N2788 1.427 . S
C2785 H2775 0.929 . S
C2785 C2783 1.433 . S
C2785 N2788 1.384 . S
C2786 H2777 0.929 . S
C2786 C2778 1.378 . S
C2786 C2781 1.350 . S
C2787 H2774 0.929 . S
C2787 C2779 1.433 . S
C2787 N2789 1.384 . S
N2788 C2784 1.427 . S
N2788 C2785 1.384 . S
N2789 C2781 1.427 . S
N2789 C2787 1.384 . S
H2790 C2796 0.930 . S
H2791 C2800 0.930 . S
H2792 C2805 0.929 . S
H2793 C2803 0.929 . S
H2794 C2798 0.929 . S
H2795 C2804 0.929 . S
C2796 H2790 0.930 . S
C2796 C2797 1.367 . S
C2796 C2804 1.378 . S
C2797 C2796 1.367 . S
C2797 C2805 1.433 . S
C2798 H2794 0.929 . S
C2798 C2800 1.378 . S
C2798 C2802 1.350 . S
C2799 C2802 1.463 . S
C2799 C2804 1.350 . S
C2799 N2807 1.427 . S
C2800 H2791 0.930 . S
C2800 C2798 1.378 . S
C2800 C2801 1.367 . S
C2801 C2800 1.367 . S
C2801 C2803 1.433 . S
C2802 C2798 1.350 . S
C2802 C2799 1.463 . S
C2802 N2806 1.427 . S
C2803 H2793 0.929 . S
C2803 C2801 1.433 . S
C2803 N2806 1.384 . S
C2804 H2795 0.929 . S
C2804 C2796 1.378 . S
C2804 C2799 1.350 . S
C2805 H2792 0.929 . S
C2805 C2797 1.433 . S
C2805 N2807 1.384 . S
N2806 C2802 1.427 . S
N2806 C2803 1.384 . S
N2807 C2799 1.427 . S
N2807 C2805 1.384 . S
H2808 C2814 0.930 . S
H2809 C2818 0.930 . S
H2810 C2823 0.929 . S
H2811 C2821 0.929 . S
H2812 C2816 0.929 . S
H2813 C2822 0.929 . S
C2814 H2808 0.930 . S
C2814 C2815 1.367 . S
C2814 C2822 1.378 . S
C2815 C2814 1.367 . S
C2815 C2823 1.433 . S
C2816 H2812 0.929 . S
C2816 C2818 1.378 . S
C2816 C2820 1.350 . S
C2817 C2820 1.463 . S
C2817 C2822 1.350 . S
C2817 N2825 1.427 . S
C2818 H2809 0.930 . S
C2818 C2816 1.378 . S
C2818 C2819 1.367 . S
C2819 C2818 1.367 . S
C2819 C2821 1.433 . S
C2820 C2816 1.350 . S
C2820 C2817 1.463 . S
C2820 N2824 1.427 . S
C2821 H2811 0.929 . S
C2821 C2819 1.433 . S
C2821 N2824 1.384 . S
C2822 H2813 0.929 . S
C2822 C2814 1.378 . S
C2822 C2817 1.350 . S
C2823 H2810 0.929 . S
C2823 C2815 1.433 . S
C2823 N2825 1.384 . S
N2824 C2820 1.427 . S
N2824 C2821 1.384 . S
N2825 C2817 1.427 . S
N2825 C2823 1.384 . S
H2826 C2832 0.930 . S
H2827 C2836 0.930 . S
H2828 C2841 0.929 . S
H2829 C2839 0.929 . S
H2830 C2834 0.929 . S
H2831 C2840 0.929 . S
C2832 H2826 0.930 . S
C2832 C2833 1.367 . S
C2832 C2840 1.378 . S
C2833 C2832 1.367 . S
C2833 C2841 1.433 . S
C2834 H2830 0.929 . S
C2834 C2836 1.378 . S
C2834 C2838 1.350 . S
C2835 C2838 1.463 . S
C2835 C2840 1.350 . S
C2835 N2843 1.427 . S
C2836 H2827 0.930 . S
C2836 C2834 1.378 . S
C2836 C2837 1.367 . S
C2837 C2836 1.367 . S
C2837 C2839 1.433 . S
C2838 C2834 1.350 . S
C2838 C2835 1.463 . S
C2838 N2842 1.427 . S
C2839 H2829 0.929 . S
C2839 C2837 1.433 . S
C2839 N2842 1.384 . S
C2840 H2831 0.929 . S
C2840 C2832 1.378 . S
C2840 C2835 1.350 . S
C2841 H2828 0.929 . S
C2841 C2833 1.433 . S
C2841 N2843 1.384 . S
N2842 C2838 1.427 . S
N2842 C2839 1.384 . S
N2843 C2835 1.427 . S
N2843 C2841 1.384 . S
H2844 C2850 0.930 . S
H2845 C2854 0.930 . S
H2846 C2859 0.929 . S
H2847 C2857 0.929 . S
H2848 C2852 0.929 . S
H2849 C2858 0.929 . S
C2850 H2844 0.930 . S
C2850 C2851 1.367 . S
C2850 C2858 1.378 . S
C2851 C2850 1.367 . S
C2851 C2859 1.433 . S
C2852 H2848 0.929 . S
C2852 C2854 1.378 . S
C2852 C2856 1.350 . S
C2853 C2856 1.463 . S
C2853 C2858 1.350 . S
C2853 N2861 1.427 . S
C2854 H2845 0.930 . S
C2854 C2852 1.378 . S
C2854 C2855 1.367 . S
C2855 C2854 1.367 . S
C2855 C2857 1.433 . S
C2856 C2852 1.350 . S
C2856 C2853 1.463 . S
C2856 N2860 1.427 . S
C2857 H2847 0.929 . S
C2857 C2855 1.433 . S
C2857 N2860 1.384 . S
C2858 H2849 0.929 . S
C2858 C2850 1.378 . S
C2858 C2853 1.350 . S
C2859 H2846 0.929 . S
C2859 C2851 1.433 . S
C2859 N2861 1.384 . S
N2860 C2856 1.427 . S
N2860 C2857 1.384 . S
N2861 C2853 1.427 . S
N2861 C2859 1.384 . S
H2862 C2868 0.930 . S
H2863 C2872 0.930 . S
H2864 C2877 0.929 . S
H2865 C2875 0.929 . S
H2866 C2870 0.929 . S
H2867 C2876 0.929 . S
C2868 H2862 0.930 . S
C2868 C2869 1.367 . S
C2868 C2876 1.378 . S
C2869 C2868 1.367 . S
C2869 C2877 1.433 . S
C2870 H2866 0.929 . S
C2870 C2872 1.378 . S
C2870 C2874 1.350 . S
C2871 C2874 1.463 . S
C2871 C2876 1.350 . S
C2871 N2879 1.427 . S
C2872 H2863 0.930 . S
C2872 C2870 1.378 . S
C2872 C2873 1.367 . S
C2873 C2872 1.367 . S
C2873 C2875 1.433 . S
C2874 C2870 1.350 . S
C2874 C2871 1.463 . S
C2874 N2878 1.427 . S
C2875 H2865 0.929 . S
C2875 C2873 1.433 . S
C2875 N2878 1.384 . S
C2876 H2867 0.929 . S
C2876 C2868 1.378 . S
C2876 C2871 1.350 . S
C2877 H2864 0.929 . S
C2877 C2869 1.433 . S
C2877 N2879 1.384 . S
N2878 C2874 1.427 . S
N2878 C2875 1.384 . S
N2879 C2871 1.427 . S
N2879 C2877 1.384 . S
H2880 C2886 0.930 . S
H2881 C2890 0.930 . S
H2882 C2895 0.929 . S
H2883 C2893 0.929 . S
H2884 C2888 0.929 . S
H2885 C2894 0.929 . S
C2886 H2880 0.930 . S
C2886 C2887 1.367 . S
C2886 C2894 1.378 . S
C2887 C2886 1.367 . S
C2887 C2895 1.433 . S
C2888 H2884 0.929 . S
C2888 C2890 1.378 . S
C2888 C2892 1.350 . S
C2889 C2892 1.463 . S
C2889 C2894 1.350 . S
C2889 N2897 1.427 . S
C2890 H2881 0.930 . S
C2890 C2888 1.378 . S
C2890 C2891 1.367 . S
C2891 C2890 1.367 . S
C2891 C2893 1.433 . S
C2892 C2888 1.350 . S
C2892 C2889 1.463 . S
C2892 N2896 1.427 . S
C2893 H2883 0.929 . S
C2893 C2891 1.433 . S
C2893 N2896 1.384 . S
C2894 H2885 0.929 . S
C2894 C2886 1.378 . S
C2894 C2889 1.350 . S
C2895 H2882 0.929 . S
C2895 C2887 1.433 . S
C2895 N2897 1.384 . S
N2896 C2892 1.427 . S
N2896 C2893 1.384 . S
N2897 C2889 1.427 . S
N2897 C2895 1.384 . S
H2898 C2904 0.930 . S
H2899 C2908 0.930 . S
H2900 C2913 0.929 . S
H2901 C2911 0.929 . S
H2902 C2906 0.929 . S
H2903 C2912 0.929 . S
C2904 H2898 0.930 . S
C2904 C2905 1.367 . S
C2904 C2912 1.378 . S
C2905 C2904 1.367 . S
C2905 C2913 1.433 . S
C2906 H2902 0.929 . S
C2906 C2908 1.378 . S
C2906 C2910 1.350 . S
C2907 C2910 1.463 . S
C2907 C2912 1.350 . S
C2907 N2915 1.427 . S
C2908 H2899 0.930 . S
C2908 C2906 1.378 . S
C2908 C2909 1.367 . S
C2909 C2908 1.367 . S
C2909 C2911 1.433 . S
C2910 C2906 1.350 . S
C2910 C2907 1.463 . S
C2910 N2914 1.427 . S
C2911 H2901 0.929 . S
C2911 C2909 1.433 . S
C2911 N2914 1.384 . S
C2912 H2903 0.929 . S
C2912 C2904 1.378 . S
C2912 C2907 1.350 . S
C2913 H2900 0.929 . S
C2913 C2905 1.433 . S
C2913 N2915 1.384 . S
N2914 C2910 1.427 . S
N2914 C2911 1.384 . S
N2915 C2907 1.427 . S
N2915 C2913 1.384 . S
H2916 C2922 0.930 . S
H2917 C2926 0.930 . S
H2918 C2931 0.929 . S
H2919 C2929 0.929 . S
H2920 C2924 0.929 . S
H2921 C2930 0.929 . S
C2922 H2916 0.930 . S
C2922 C2923 1.367 . S
C2922 C2930 1.378 . S
C2923 C2922 1.367 . S
C2923 C2931 1.433 . S
C2924 H2920 0.929 . S
C2924 C2926 1.378 . S
C2924 C2928 1.350 . S
C2925 C2928 1.463 . S
C2925 C2930 1.350 . S
C2925 N2933 1.427 . S
C2926 H2917 0.930 . S
C2926 C2924 1.378 . S
C2926 C2927 1.367 . S
C2927 C2926 1.367 . S
C2927 C2929 1.433 . S
C2928 C2924 1.350 . S
C2928 C2925 1.463 . S
C2928 N2932 1.427 . S
C2929 H2919 0.929 . S
C2929 C2927 1.433 . S
C2929 N2932 1.384 . S
C2930 H2921 0.929 . S
C2930 C2922 1.378 . S
C2930 C2925 1.350 . S
C2931 H2918 0.929 . S
C2931 C2923 1.433 . S
C2931 N2933 1.384 . S
N2932 C2928 1.427 . S
N2932 C2929 1.384 . S
N2933 C2925 1.427 . S
N2933 C2931 1.384 . S
H2934 C2940 0.930 . S
H2935 C2944 0.930 . S
H2936 C2949 0.929 . S
H2937 C2947 0.929 . S
H2938 C2942 0.929 . S
H2939 C2948 0.929 . S
C2940 H2934 0.930 . S
C2940 C2941 1.367 . S
C2940 C2948 1.378 . S
C2941 C2940 1.367 . S
C2941 C2949 1.433 . S
C2942 H2938 0.929 . S
C2942 C2944 1.378 . S
C2942 C2946 1.350 . S
C2943 C2946 1.463 . S
C2943 C2948 1.350 . S
C2943 N2951 1.427 . S
C2944 H2935 0.930 . S
C2944 C2942 1.378 . S
C2944 C2945 1.367 . S
C2945 C2944 1.367 . S
C2945 C2947 1.433 . S
C2946 C2942 1.350 . S
C2946 C2943 1.463 . S
C2946 N2950 1.427 . S
C2947 H2937 0.929 . S
C2947 C2945 1.433 . S
C2947 N2950 1.384 . S
C2948 H2939 0.929 . S
C2948 C2940 1.378 . S
C2948 C2943 1.350 . S
C2949 H2936 0.929 . S
C2949 C2941 1.433 . S
C2949 N2951 1.384 . S
N2950 C2946 1.427 . S
N2950 C2947 1.384 . S
N2951 C2943 1.427 . S
N2951 C2949 1.384 . S
H2952 C2958 0.930 . S
H2953 C2962 0.930 . S
H2954 C2967 0.929 . S
H2955 C2965 0.929 . S
H2956 C2960 0.929 . S
H2957 C2966 0.929 . S
C2958 H2952 0.930 . S
C2958 C2959 1.367 . S
C2958 C2966 1.378 . S
C2959 C2958 1.367 . S
C2959 C2967 1.433 . S
C2960 H2956 0.929 . S
C2960 C2962 1.378 . S
C2960 C2964 1.350 . S
C2961 C2964 1.463 . S
C2961 C2966 1.350 . S
C2961 N2969 1.427 . S
C2962 H2953 0.930 . S
C2962 C2960 1.378 . S
C2962 C2963 1.367 . S
C2963 C2962 1.367 . S
C2963 C2965 1.433 . S
C2964 C2960 1.350 . S
C2964 C2961 1.463 . S
C2964 N2968 1.427 . S
C2965 H2955 0.929 . S
C2965 C2963 1.433 . S
C2965 N2968 1.384 . S
C2966 H2957 0.929 . S
C2966 C2958 1.378 . S
C2966 C2961 1.350 . S
C2967 H2954 0.929 . S
C2967 C2959 1.433 . S
C2967 N2969 1.384 . S
N2968 C2964 1.427 . S
N2968 C2965 1.384 . S
N2969 C2961 1.427 . S
N2969 C2967 1.384 . S
H2970 C2976 0.930 . S
H2971 C2980 0.930 . S
H2972 C2985 0.929 . S
H2973 C2983 0.929 . S
H2974 C2978 0.929 . S
H2975 C2984 0.929 . S
C2976 H2970 0.930 . S
C2976 C2977 1.367 . S
C2976 C2984 1.378 . S
C2977 C2976 1.367 . S
C2977 C2985 1.433 . S
C2978 H2974 0.929 . S
C2978 C2980 1.378 . S
C2978 C2982 1.350 . S
C2979 C2982 1.463 . S
C2979 C2984 1.350 . S
C2979 N2987 1.427 . S
C2980 H2971 0.930 . S
C2980 C2978 1.378 . S
C2980 C2981 1.367 . S
C2981 C2980 1.367 . S
C2981 C2983 1.433 . S
C2982 C2978 1.350 . S
C2982 C2979 1.463 . S
C2982 N2986 1.427 . S
C2983 H2973 0.929 . S
C2983 C2981 1.433 . S
C2983 N2986 1.384 . S
C2984 H2975 0.929 . S
C2984 C2976 1.378 . S
C2984 C2979 1.350 . S
C2985 H2972 0.929 . S
C2985 C2977 1.433 . S
C2985 N2987 1.384 . S
N2986 C2982 1.427 . S
N2986 C2983 1.384 . S
N2987 C2979 1.427 . S
N2987 C2985 1.384 . S
H2988 C2994 0.930 . S
H2989 C2998 0.930 . S
H2990 C3003 0.929 . S
H2991 C3001 0.929 . S
H2992 C2996 0.929 . S
H2993 C3002 0.929 . S
C2994 H2988 0.930 . S
C2994 C2995 1.367 . S
C2994 C3002 1.378 . S
C2995 C2994 1.367 . S
C2995 C3003 1.433 . S
C2996 H2992 0.929 . S
C2996 C2998 1.378 . S
C2996 C3000 1.350 . S
C2997 C3000 1.463 . S
C2997 C3002 1.350 . S
C2997 N3005 1.427 . S
C2998 H2989 0.930 . S
C2998 C2996 1.378 . S
C2998 C2999 1.367 . S
C2999 C2998 1.367 . S
C2999 C3001 1.433 . S
C3000 C2996 1.350 . S
C3000 C2997 1.463 . S
C3000 N3004 1.427 . S
C3001 H2991 0.929 . S
C3001 C2999 1.433 . S
C3001 N3004 1.384 . S
C3002 H2993 0.929 . S
C3002 C2994 1.378 . S
C3002 C2997 1.350 . S
C3003 H2990 0.929 . S
C3003 C2995 1.433 . S
C3003 N3005 1.384 . S
N3004 C3000 1.427 . S
N3004 C3001 1.384 . S
N3005 C2997 1.427 . S
N3005 C3003 1.384 . S
H3006 C3012 0.930 . S
H3007 C3016 0.930 . S
H3008 C3021 0.929 . S
H3009 C3019 0.929 . S
H3010 C3014 0.929 . S
H3011 C3020 0.929 . S
C3012 H3006 0.930 . S
C3012 C3013 1.367 . S
C3012 C3020 1.378 . S
C3013 C3012 1.367 . S
C3013 C3021 1.433 . S
C3014 H3010 0.929 . S
C3014 C3016 1.378 . S
C3014 C3018 1.350 . S
C3015 C3018 1.463 . S
C3015 C3020 1.350 . S
C3015 N3023 1.427 . S
C3016 H3007 0.930 . S
C3016 C3014 1.378 . S
C3016 C3017 1.367 . S
C3017 C3016 1.367 . S
C3017 C3019 1.433 . S
C3018 C3014 1.350 . S
C3018 C3015 1.463 . S
C3018 N3022 1.427 . S
C3019 H3009 0.929 . S
C3019 C3017 1.433 . S
C3019 N3022 1.384 . S
C3020 H3011 0.929 . S
C3020 C3012 1.378 . S
C3020 C3015 1.350 . S
C3021 H3008 0.929 . S
C3021 C3013 1.433 . S
C3021 N3023 1.384 . S
N3022 C3018 1.427 . S
N3022 C3019 1.384 . S
N3023 C3015 1.427 . S
N3023 C3021 1.384 . S
H3024 C3030 0.930 . S
H3025 C3034 0.930 . S
H3026 C3039 0.929 . S
H3027 C3037 0.929 . S
H3028 C3032 0.929 . S
H3029 C3038 0.929 . S
C3030 H3024 0.930 . S
C3030 C3031 1.367 . S
C3030 C3038 1.378 . S
C3031 C3030 1.367 . S
C3031 C3039 1.433 . S
C3032 H3028 0.929 . S
C3032 C3034 1.378 . S
C3032 C3036 1.350 . S
C3033 C3036 1.463 . S
C3033 C3038 1.350 . S
C3033 N3041 1.427 . S
C3034 H3025 0.930 . S
C3034 C3032 1.378 . S
C3034 C3035 1.367 . S
C3035 C3034 1.367 . S
C3035 C3037 1.433 . S
C3036 C3032 1.350 . S
C3036 C3033 1.463 . S
C3036 N3040 1.427 . S
C3037 H3027 0.929 . S
C3037 C3035 1.433 . S
C3037 N3040 1.384 . S
C3038 H3029 0.929 . S
C3038 C3030 1.378 . S
C3038 C3033 1.350 . S
C3039 H3026 0.929 . S
C3039 C3031 1.433 . S
C3039 N3041 1.384 . S
N3040 C3036 1.427 . S
N3040 C3037 1.384 . S
N3041 C3033 1.427 . S
N3041 C3039 1.384 . S
H3042 C3048 0.930 . S
H3043 C3052 0.930 . S
H3044 C3057 0.929 . S
H3045 C3055 0.929 . S
H3046 C3050 0.929 . S
H3047 C3056 0.929 . S
C3048 H3042 0.930 . S
C3048 C3049 1.367 . S
C3048 C3056 1.378 . S
C3049 C3048 1.367 . S
C3049 C3057 1.433 . S
C3050 H3046 0.929 . S
C3050 C3052 1.378 . S
C3050 C3054 1.350 . S
C3051 C3054 1.463 . S
C3051 C3056 1.350 . S
C3051 N3059 1.427 . S
C3052 H3043 0.930 . S
C3052 C3050 1.378 . S
C3052 C3053 1.367 . S
C3053 C3052 1.367 . S
C3053 C3055 1.433 . S
C3054 C3050 1.350 . S
C3054 C3051 1.463 . S
C3054 N3058 1.427 . S
C3055 H3045 0.929 . S
C3055 C3053 1.433 . S
C3055 N3058 1.384 . S
C3056 H3047 0.929 . S
C3056 C3048 1.378 . S
C3056 C3051 1.350 . S
C3057 H3044 0.929 . S
C3057 C3049 1.433 . S
C3057 N3059 1.384 . S
N3058 C3054 1.427 . S
N3058 C3055 1.384 . S
N3059 C3051 1.427 . S
N3059 C3057 1.384 . S
H3060 C3066 0.930 . S
H3061 C3070 0.930 . S
H3062 C3075 0.929 . S
H3063 C3073 0.929 . S
H3064 C3068 0.929 . S
H3065 C3074 0.929 . S
C3066 H3060 0.930 . S
C3066 C3067 1.367 . S
C3066 C3074 1.378 . S
C3067 C3066 1.367 . S
C3067 C3075 1.433 . S
C3068 H3064 0.929 . S
C3068 C3070 1.378 . S
C3068 C3072 1.350 . S
C3069 C3072 1.463 . S
C3069 C3074 1.350 . S
C3069 N3077 1.427 . S
C3070 H3061 0.930 . S
C3070 C3068 1.378 . S
C3070 C3071 1.367 . S
C3071 C3070 1.367 . S
C3071 C3073 1.433 . S
C3072 C3068 1.350 . S
C3072 C3069 1.463 . S
C3072 N3076 1.427 . S
C3073 H3063 0.929 . S
C3073 C3071 1.433 . S
C3073 N3076 1.384 . S
C3074 H3065 0.929 . S
C3074 C3066 1.378 . S
C3074 C3069 1.350 . S
C3075 H3062 0.929 . S
C3075 C3067 1.433 . S
C3075 N3077 1.384 . S
N3076 C3072 1.427 . S
N3076 C3073 1.384 . S
N3077 C3069 1.427 . S
N3077 C3075 1.384 . S
H3078 C3084 0.930 . S
H3079 C3088 0.930 . S
H3080 C3093 0.929 . S
H3081 C3091 0.929 . S
H3082 C3086 0.929 . S
H3083 C3092 0.929 . S
C3084 H3078 0.930 . S
C3084 C3085 1.367 . S
C3084 C3092 1.378 . S
C3085 C3084 1.367 . S
C3085 C3093 1.433 . S
C3086 H3082 0.929 . S
C3086 C3088 1.378 . S
C3086 C3090 1.350 . S
C3087 C3090 1.463 . S
C3087 C3092 1.350 . S
C3087 N3095 1.427 . S
C3088 H3079 0.930 . S
C3088 C3086 1.378 . S
C3088 C3089 1.367 . S
C3089 C3088 1.367 . S
C3089 C3091 1.433 . S
C3090 C3086 1.350 . S
C3090 C3087 1.463 . S
C3090 N3094 1.427 . S
C3091 H3081 0.929 . S
C3091 C3089 1.433 . S
C3091 N3094 1.384 . S
C3092 H3083 0.929 . S
C3092 C3084 1.378 . S
C3092 C3087 1.350 . S
C3093 H3080 0.929 . S
C3093 C3085 1.433 . S
C3093 N3095 1.384 . S
N3094 C3090 1.427 . S
N3094 C3091 1.384 . S
N3095 C3087 1.427 . S
N3095 C3093 1.384 . S
H3096 C3102 0.930 . S
H3097 C3106 0.930 . S
H3098 C3111 0.929 . S
H3099 C3109 0.929 . S
H3100 C3104 0.929 . S
H3101 C3110 0.929 . S
C3102 H3096 0.930 . S
C3102 C3103 1.367 . S
C3102 C3110 1.378 . S
C3103 C3102 1.367 . S
C3103 C3111 1.433 . S
C3104 H3100 0.929 . S
C3104 C3106 1.378 . S
C3104 C3108 1.350 . S
C3105 C3108 1.463 . S
C3105 C3110 1.350 . S
C3105 N3113 1.427 . S
C3106 H3097 0.930 . S
C3106 C3104 1.378 . S
C3106 C3107 1.367 . S
C3107 C3106 1.367 . S
C3107 C3109 1.433 . S
C3108 C3104 1.350 . S
C3108 C3105 1.463 . S
C3108 N3112 1.427 . S
C3109 H3099 0.929 . S
C3109 C3107 1.433 . S
C3109 N3112 1.384 . S
C3110 H3101 0.929 . S
C3110 C3102 1.378 . S
C3110 C3105 1.350 . S
C3111 H3098 0.929 . S
C3111 C3103 1.433 . S
C3111 N3113 1.384 . S
N3112 C3108 1.427 . S
N3112 C3109 1.384 . S
N3113 C3105 1.427 . S
N3113 C3111 1.384 . S
H3114 C3120 0.930 . S
H3115 C3124 0.930 . S
H3116 C3129 0.929 . S
H3117 C3127 0.929 . S
H3118 C3122 0.929 . S
H3119 C3128 0.929 . S
C3120 H3114 0.930 . S
C3120 C3121 1.367 . S
C3120 C3128 1.378 . S
C3121 C3120 1.367 . S
C3121 C3129 1.433 . S
C3122 H3118 0.929 . S
C3122 C3124 1.378 . S
C3122 C3126 1.350 . S
C3123 C3126 1.463 . S
C3123 C3128 1.350 . S
C3123 N3131 1.427 . S
C3124 H3115 0.930 . S
C3124 C3122 1.378 . S
C3124 C3125 1.367 . S
C3125 C3124 1.367 . S
C3125 C3127 1.433 . S
C3126 C3122 1.350 . S
C3126 C3123 1.463 . S
C3126 N3130 1.427 . S
C3127 H3117 0.929 . S
C3127 C3125 1.433 . S
C3127 N3130 1.384 . S
C3128 H3119 0.929 . S
C3128 C3120 1.378 . S
C3128 C3123 1.350 . S
C3129 H3116 0.929 . S
C3129 C3121 1.433 . S
C3129 N3131 1.384 . S
N3130 C3126 1.427 . S
N3130 C3127 1.384 . S
N3131 C3123 1.427 . S
N3131 C3129 1.384 . S
H3132 C3138 0.930 . S
H3133 C3142 0.930 . S
H3134 C3147 0.929 . S
H3135 C3145 0.929 . S
H3136 C3140 0.929 . S
H3137 C3146 0.929 . S
C3138 H3132 0.930 . S
C3138 C3139 1.367 . S
C3138 C3146 1.378 . S
C3139 C3138 1.367 . S
C3139 C3147 1.433 . S
C3140 H3136 0.929 . S
C3140 C3142 1.378 . S
C3140 C3144 1.350 . S
C3141 C3144 1.463 . S
C3141 C3146 1.350 . S
C3141 N3149 1.427 . S
C3142 H3133 0.930 . S
C3142 C3140 1.378 . S
C3142 C3143 1.367 . S
C3143 C3142 1.367 . S
C3143 C3145 1.433 . S
C3144 C3140 1.350 . S
C3144 C3141 1.463 . S
C3144 N3148 1.427 . S
C3145 H3135 0.929 . S
C3145 C3143 1.433 . S
C3145 N3148 1.384 . S
C3146 H3137 0.929 . S
C3146 C3138 1.378 . S
C3146 C3141 1.350 . S
C3147 H3134 0.929 . S
C3147 C3139 1.433 . S
C3147 N3149 1.384 . S
N3148 C3144 1.427 . S
N3148 C3145 1.384 . S
N3149 C3141 1.427 . S
N3149 C3147 1.384 . S
H3150 C3156 0.930 . S
H3151 C3160 0.930 . S
H3152 C3165 0.929 . S
H3153 C3163 0.929 . S
H3154 C3158 0.929 . S
H3155 C3164 0.929 . S
C3156 H3150 0.930 . S
C3156 C3157 1.367 . S
C3156 C3164 1.378 . S
C3157 C3156 1.367 . S
C3157 C3165 1.433 . S
C3158 H3154 0.929 . S
C3158 C3160 1.378 . S
C3158 C3162 1.350 . S
C3159 C3162 1.463 . S
C3159 C3164 1.350 . S
C3159 N3167 1.427 . S
C3160 H3151 0.930 . S
C3160 C3158 1.378 . S
C3160 C3161 1.367 . S
C3161 C3160 1.367 . S
C3161 C3163 1.433 . S
C3162 C3158 1.350 . S
C3162 C3159 1.463 . S
C3162 N3166 1.427 . S
C3163 H3153 0.929 . S
C3163 C3161 1.433 . S
C3163 N3166 1.384 . S
C3164 H3155 0.929 . S
C3164 C3156 1.378 . S
C3164 C3159 1.350 . S
C3165 H3152 0.929 . S
C3165 C3157 1.433 . S
C3165 N3167 1.384 . S
N3166 C3162 1.427 . S
N3166 C3163 1.384 . S
N3167 C3159 1.427 . S
N3167 C3165 1.384 . S
H3168 C3174 0.930 . S
H3169 C3178 0.930 . S
H3170 C3183 0.929 . S
H3171 C3181 0.929 . S
H3172 C3176 0.929 . S
H3173 C3182 0.929 . S
C3174 H3168 0.930 . S
C3174 C3175 1.367 . S
C3174 C3182 1.378 . S
C3175 C3174 1.367 . S
C3175 C3183 1.433 . S
C3176 H3172 0.929 . S
C3176 C3178 1.378 . S
C3176 C3180 1.350 . S
C3177 C3180 1.463 . S
C3177 C3182 1.350 . S
C3177 N3185 1.427 . S
C3178 H3169 0.930 . S
C3178 C3176 1.378 . S
C3178 C3179 1.367 . S
C3179 C3178 1.367 . S
C3179 C3181 1.433 . S
C3180 C3176 1.350 . S
C3180 C3177 1.463 . S
C3180 N3184 1.427 . S
C3181 H3171 0.929 . S
C3181 C3179 1.433 . S
C3181 N3184 1.384 . S
C3182 H3173 0.929 . S
C3182 C3174 1.378 . S
C3182 C3177 1.350 . S
C3183 H3170 0.929 . S
C3183 C3175 1.433 . S
C3183 N3185 1.384 . S
N3184 C3180 1.427 . S
N3184 C3181 1.384 . S
N3185 C3177 1.427 . S
N3185 C3183 1.384 . S
H3186 C3192 0.930 . S
H3187 C3196 0.930 . S
H3188 C3201 0.929 . S
H3189 C3199 0.929 . S
H3190 C3194 0.929 . S
H3191 C3200 0.929 . S
C3192 H3186 0.930 . S
C3192 C3193 1.367 . S
C3192 C3200 1.378 . S
C3193 C3192 1.367 . S
C3193 C3201 1.433 . S
C3194 H3190 0.929 . S
C3194 C3196 1.378 . S
C3194 C3198 1.350 . S
C3195 C3198 1.463 . S
C3195 C3200 1.350 . S
C3195 N3203 1.427 . S
C3196 H3187 0.930 . S
C3196 C3194 1.378 . S
C3196 C3197 1.367 . S
C3197 C3196 1.367 . S
C3197 C3199 1.433 . S
C3198 C3194 1.350 . S
C3198 C3195 1.463 . S
C3198 N3202 1.427 . S
C3199 H3189 0.929 . S
C3199 C3197 1.433 . S
C3199 N3202 1.384 . S
C3200 H3191 0.929 . S
C3200 C3192 1.378 . S
C3200 C3195 1.350 . S
C3201 H3188 0.929 . S
C3201 C3193 1.433 . S
C3201 N3203 1.384 . S
N3202 C3198 1.427 . S
N3202 C3199 1.384 . S
N3203 C3195 1.427 . S
N3203 C3201 1.384 . S
H3204 C3210 0.930 . S
H3205 C3214 0.930 . S
H3206 C3219 0.929 . S
H3207 C3217 0.929 . S
H3208 C3212 0.929 . S
H3209 C3218 0.929 . S
C3210 H3204 0.930 . S
C3210 C3211 1.367 . S
C3210 C3218 1.378 . S
C3211 C3210 1.367 . S
C3211 C3219 1.433 . S
C3212 H3208 0.929 . S
C3212 C3214 1.378 . S
C3212 C3216 1.350 . S
C3213 C3216 1.463 . S
C3213 C3218 1.350 . S
C3213 N3221 1.427 . S
C3214 H3205 0.930 . S
C3214 C3212 1.378 . S
C3214 C3215 1.367 . S
C3215 C3214 1.367 . S
C3215 C3217 1.433 . S
C3216 C3212 1.350 . S
C3216 C3213 1.463 . S
C3216 N3220 1.427 . S
C3217 H3207 0.929 . S
C3217 C3215 1.433 . S
C3217 N3220 1.384 . S
C3218 H3209 0.929 . S
C3218 C3210 1.378 . S
C3218 C3213 1.350 . S
C3219 H3206 0.929 . S
C3219 C3211 1.433 . S
C3219 N3221 1.384 . S
N3220 C3216 1.427 . S
N3220 C3217 1.384 . S
N3221 C3213 1.427 . S
N3221 C3219 1.384 . S
H3222 C3228 0.930 . S
H3223 C3232 0.930 . S
H3224 C3237 0.929 . S
H3225 C3235 0.929 . S
H3226 C3230 0.929 . S
H3227 C3236 0.929 . S
C3228 H3222 0.930 . S
C3228 C3229 1.367 . S
C3228 C3236 1.378 . S
C3229 C3228 1.367 . S
C3229 C3237 1.433 . S
C3230 H3226 0.929 . S
C3230 C3232 1.378 . S
C3230 C3234 1.350 . S
C3231 C3234 1.463 . S
C3231 C3236 1.350 . S
C3231 N3239 1.427 . S
C3232 H3223 0.930 . S
C3232 C3230 1.378 . S
C3232 C3233 1.367 . S
C3233 C3232 1.367 . S
C3233 C3235 1.433 . S
C3234 C3230 1.350 . S
C3234 C3231 1.463 . S
C3234 N3238 1.427 . S
C3235 H3225 0.929 . S
C3235 C3233 1.433 . S
C3235 N3238 1.384 . S
C3236 H3227 0.929 . S
C3236 C3228 1.378 . S
C3236 C3231 1.350 . S
C3237 H3224 0.929 . S
C3237 C3229 1.433 . S
C3237 N3239 1.384 . S
N3238 C3234 1.427 . S
N3238 C3235 1.384 . S
N3239 C3231 1.427 . S
N3239 C3237 1.384 . S
H3240 C3246 0.930 . S
H3241 C3250 0.930 . S
H3242 C3255 0.929 . S
H3243 C3253 0.929 . S
H3244 C3248 0.929 . S
H3245 C3254 0.929 . S
C3246 H3240 0.930 . S
C3246 C3247 1.367 . S
C3246 C3254 1.378 . S
C3247 C3246 1.367 . S
C3247 C3255 1.433 . S
C3248 H3244 0.929 . S
C3248 C3250 1.378 . S
C3248 C3252 1.350 . S
C3249 C3252 1.463 . S
C3249 C3254 1.350 . S
C3249 N3257 1.427 . S
C3250 H3241 0.930 . S
C3250 C3248 1.378 . S
C3250 C3251 1.367 . S
C3251 C3250 1.367 . S
C3251 C3253 1.433 . S
C3252 C3248 1.350 . S
C3252 C3249 1.463 . S
C3252 N3256 1.427 . S
C3253 H3243 0.929 . S
C3253 C3251 1.433 . S
C3253 N3256 1.384 . S
C3254 H3245 0.929 . S
C3254 C3246 1.378 . S
C3254 C3249 1.350 . S
C3255 H3242 0.929 . S
C3255 C3247 1.433 . S
C3255 N3257 1.384 . S
N3256 C3252 1.427 . S
N3256 C3253 1.384 . S
N3257 C3249 1.427 . S
N3257 C3255 1.384 . S
H3258 C3264 0.930 . S
H3259 C3268 0.930 . S
H3260 C3273 0.929 . S
H3261 C3271 0.929 . S
H3262 C3266 0.929 . S
H3263 C3272 0.929 . S
C3264 H3258 0.930 . S
C3264 C3265 1.367 . S
C3264 C3272 1.378 . S
C3265 C3264 1.367 . S
C3265 C3273 1.433 . S
C3266 H3262 0.929 . S
C3266 C3268 1.378 . S
C3266 C3270 1.350 . S
C3267 C3270 1.463 . S
C3267 C3272 1.350 . S
C3267 N3275 1.427 . S
C3268 H3259 0.930 . S
C3268 C3266 1.378 . S
C3268 C3269 1.367 . S
C3269 C3268 1.367 . S
C3269 C3271 1.433 . S
C3270 C3266 1.350 . S
C3270 C3267 1.463 . S
C3270 N3274 1.427 . S
C3271 H3261 0.929 . S
C3271 C3269 1.433 . S
C3271 N3274 1.384 . S
C3272 H3263 0.929 . S
C3272 C3264 1.378 . S
C3272 C3267 1.350 . S
C3273 H3260 0.929 . S
C3273 C3265 1.433 . S
C3273 N3275 1.384 . S
N3274 C3270 1.427 . S
N3274 C3271 1.384 . S
N3275 C3267 1.427 . S
N3275 C3273 1.384 . S
H3276 C3282 0.930 . S
H3277 C3286 0.930 . S
H3278 C3291 0.929 . S
H3279 C3289 0.929 . S
H3280 C3284 0.929 . S
H3281 C3290 0.929 . S
C3282 H3276 0.930 . S
C3282 C3283 1.367 . S
C3282 C3290 1.378 . S
C3283 C3282 1.367 . S
C3283 C3291 1.433 . S
C3284 H3280 0.929 . S
C3284 C3286 1.378 . S
C3284 C3288 1.350 . S
C3285 C3288 1.463 . S
C3285 C3290 1.350 . S
C3285 N3293 1.427 . S
C3286 H3277 0.930 . S
C3286 C3284 1.378 . S
C3286 C3287 1.367 . S
C3287 C3286 1.367 . S
C3287 C3289 1.433 . S
C3288 C3284 1.350 . S
C3288 C3285 1.463 . S
C3288 N3292 1.427 . S
C3289 H3279 0.929 . S
C3289 C3287 1.433 . S
C3289 N3292 1.384 . S
C3290 H3281 0.929 . S
C3290 C3282 1.378 . S
C3290 C3285 1.350 . S
C3291 H3278 0.929 . S
C3291 C3283 1.433 . S
C3291 N3293 1.384 . S
N3292 C3288 1.427 . S
N3292 C3289 1.384 . S
N3293 C3285 1.427 . S
N3293 C3291 1.384 . S
H3294 C3300 0.930 . S
H3295 C3304 0.930 . S
H3296 C3309 0.929 . S
H3297 C3307 0.929 . S
H3298 C3302 0.929 . S
H3299 C3308 0.929 . S
C3300 H3294 0.930 . S
C3300 C3301 1.367 . S
C3300 C3308 1.378 . S
C3301 C3300 1.367 . S
C3301 C3309 1.433 . S
C3302 H3298 0.929 . S
C3302 C3304 1.378 . S
C3302 C3306 1.350 . S
C3303 C3306 1.463 . S
C3303 C3308 1.350 . S
C3303 N3311 1.427 . S
C3304 H3295 0.930 . S
C3304 C3302 1.378 . S
C3304 C3305 1.367 . S
C3305 C3304 1.367 . S
C3305 C3307 1.433 . S
C3306 C3302 1.350 . S
C3306 C3303 1.463 . S
C3306 N3310 1.427 . S
C3307 H3297 0.929 . S
C3307 C3305 1.433 . S
C3307 N3310 1.384 . S
C3308 H3299 0.929 . S
C3308 C3300 1.378 . S
C3308 C3303 1.350 . S
C3309 H3296 0.929 . S
C3309 C3301 1.433 . S
C3309 N3311 1.384 . S
N3310 C3306 1.427 . S
N3310 C3307 1.384 . S
N3311 C3303 1.427 . S
N3311 C3309 1.384 . S
H3312 C3318 0.930 . S
H3313 C3322 0.930 . S
H3314 C3327 0.929 . S
H3315 C3325 0.929 . S
H3316 C3320 0.929 . S
H3317 C3326 0.929 . S
C3318 H3312 0.930 . S
C3318 C3319 1.367 . S
C3318 C3326 1.378 . S
C3319 C3318 1.367 . S
C3319 C3327 1.433 1_455 S
C3320 H3316 0.929 . S
C3320 C3322 1.378 . S
C3320 C3324 1.350 1_655 S
C3321 C3324 1.463 . S
C3321 C3326 1.350 . S
C3321 N3329 1.427 1_455 S
C3322 H3313 0.930 . S
C3322 C3320 1.378 . S
C3322 C3323 1.367 1_655 S
C3323 C3322 1.367 1_455 S
C3323 C3325 1.433 . S
C3324 C3320 1.350 1_455 S
C3324 C3321 1.463 . S
C3324 N3328 1.427 . S
C3325 H3315 0.929 . S
C3325 C3323 1.433 . S
C3325 N3328 1.384 . S
C3326 H3317 0.929 . S
C3326 C3318 1.378 . S
C3326 C3321 1.350 . S
C3327 H3314 0.929 . S
C3327 C3319 1.433 1_655 S
C3327 N3329 1.384 . S
N3328 C3324 1.427 . S
N3328 C3325 1.384 . S
N3329 C3321 1.427 1_655 S
N3329 C3327 1.384 . S
H3330 C3336 0.930 . S
H3331 C3340 0.930 . S
H3332 C3345 0.929 . S
H3333 C3343 0.929 . S
H3334 C3338 0.929 . S
H3335 C3344 0.929 . S
C3336 H3330 0.930 . S
C3336 C3337 1.367 . S
C3336 C3344 1.378 . S
C3337 C3336 1.367 . S
C3337 C3345 1.433 1_545 S
C3338 H3334 0.929 . S
C3338 C3340 1.378 . S
C3338 C3342 1.350 1_565 S
C3339 C3342 1.463 . S
C3339 C3344 1.350 . S
C3339 N3347 1.427 1_545 S
C3340 H3331 0.930 . S
C3340 C3338 1.378 . S
C3340 C3341 1.367 1_565 S
C3341 C3340 1.367 1_545 S
C3341 C3343 1.433 . S
C3342 C3338 1.350 1_545 S
C3342 C3339 1.463 . S
C3342 N3346 1.427 . S
C3343 H3333 0.929 . S
C3343 C3341 1.433 . S
C3343 N3346 1.384 . S
C3344 H3335 0.929 . S
C3344 C3336 1.378 . S
C3344 C3339 1.350 . S
C3345 H3332 0.929 . S
C3345 C3337 1.433 1_565 S
C3345 N3347 1.384 . S
N3346 C3342 1.427 . S
N3346 C3343 1.384 . S
N3347 C3339 1.427 1_565 S
N3347 C3345 1.384 . S
H3348 C3354 0.930 . S
H3349 C3358 0.930 . S
H3350 C3363 0.929 . S
H3351 C3361 0.929 . S
H3352 C3356 0.929 . S
H3353 C3362 0.929 . S
C3354 H3348 0.930 . S
C3354 C3355 1.367 1_655 S
C3354 C3362 1.378 . S
C3355 C3354 1.367 1_455 S
C3355 C3363 1.433 . S
C3356 H3352 0.929 . S
C3356 C3358 1.378 . S
C3356 C3360 1.350 . S
C3357 C3360 1.463 . S
C3357 C3362 1.350 1_455 S
C3357 N3365 1.427 . S
C3358 H3349 0.930 . S
C3358 C3356 1.378 . S
C3358 C3359 1.367 . S
C3359 C3358 1.367 . S
C3359 C3361 1.433 1_455 S
C3360 C3356 1.350 . S
C3360 C3357 1.463 . S
C3360 N3364 1.427 1_455 S
C3361 H3351 0.929 . S
C3361 C3359 1.433 1_655 S
C3361 N3364 1.384 . S
C3362 H3353 0.929 . S
C3362 C3354 1.378 . S
C3362 C3357 1.350 1_655 S
C3363 H3350 0.929 . S
C3363 C3355 1.433 . S
C3363 N3365 1.384 . S
N3364 C3360 1.427 1_655 S
N3364 C3361 1.384 . S
N3365 C3357 1.427 . S
N3365 C3363 1.384 . S
H3366 C3372 0.930 . S
H3367 C3376 0.930 . S
H3368 C3381 0.929 . S
H3369 C3379 0.929 . S
H3370 C3374 0.929 . S
H3371 C3380 0.929 . S
C3372 H3366 0.930 . S
C3372 C3373 1.367 . S
C3372 C3380 1.378 . S
C3373 C3372 1.367 . S
C3373 C3381 1.433 1_545 S
C3374 H3370 0.929 . S
C3374 C3376 1.378 . S
C3374 C3378 1.350 1_565 S
C3375 C3378 1.463 . S
C3375 C3380 1.350 . S
C3375 N3383 1.427 1_545 S
C3376 H3367 0.930 . S
C3376 C3374 1.378 . S
C3376 C3377 1.367 1_565 S
C3377 C3376 1.367 1_545 S
C3377 C3379 1.433 . S
C3378 C3374 1.350 1_545 S
C3378 C3375 1.463 . S
C3378 N3382 1.427 . S
C3379 H3369 0.929 . S
C3379 C3377 1.433 . S
C3379 N3382 1.384 . S
C3380 H3371 0.929 . S
C3380 C3372 1.378 . S
C3380 C3375 1.350 . S
C3381 H3368 0.929 . S
C3381 C3373 1.433 1_565 S
C3381 N3383 1.384 . S
N3382 C3378 1.427 . S
N3382 C3379 1.384 . S
N3383 C3375 1.427 1_565 S
N3383 C3381 1.384 . S
H3384 C3390 0.930 . S
H3385 C3394 0.930 . S
H3386 C3399 0.929 . S
H3387 C3397 0.929 . S
H3388 C3392 0.929 . S
H3389 C3398 0.929 . S
C3390 H3384 0.930 . S
C3390 C3391 1.367 1_655 S
C3390 C3398 1.378 . S
C3391 C3390 1.367 1_455 S
C3391 C3399 1.433 . S
C3392 H3388 0.929 . S
C3392 C3394 1.378 . S
C3392 C3396 1.350 . S
C3393 C3396 1.463 . S
C3393 C3398 1.350 1_455 S
C3393 N3401 1.427 . S
C3394 H3385 0.930 . S
C3394 C3392 1.378 . S
C3394 C3395 1.367 . S
C3395 C3394 1.367 . S
C3395 C3397 1.433 1_455 S
C3396 C3392 1.350 . S
C3396 C3393 1.463 . S
C3396 N3400 1.427 1_455 S
C3397 H3387 0.929 . S
C3397 C3395 1.433 1_655 S
C3397 N3400 1.384 . S
C3398 H3389 0.929 . S
C3398 C3390 1.378 . S
C3398 C3393 1.350 1_655 S
C3399 H3386 0.929 . S
C3399 C3391 1.433 . S
C3399 N3401 1.384 . S
N3400 C3396 1.427 1_655 S
N3400 C3397 1.384 . S
N3401 C3393 1.427 . S
N3401 C3399 1.384 . S
H3402 C3408 0.930 . S
H3403 C3412 0.930 . S
H3404 C3417 0.929 . S
H3405 C3415 0.929 . S
H3406 C3410 0.929 . S
H3407 C3416 0.929 . S
C3408 H3402 0.930 . S
C3408 C3409 1.367 . S
C3408 C3416 1.378 . S
C3409 C3408 1.367 . S
C3409 C3417 1.433 1_545 S
C3410 H3406 0.929 . S
C3410 C3412 1.378 . S
C3410 C3414 1.350 1_565 S
C3411 C3414 1.463 . S
C3411 C3416 1.350 . S
C3411 N3419 1.427 1_545 S
C3412 H3403 0.930 . S
C3412 C3410 1.378 . S
C3412 C3413 1.367 1_565 S
C3413 C3412 1.367 1_545 S
C3413 C3415 1.433 . S
C3414 C3410 1.350 1_545 S
C3414 C3411 1.463 . S
C3414 N3418 1.427 . S
C3415 H3405 0.929 . S
C3415 C3413 1.433 . S
C3415 N3418 1.384 . S
C3416 H3407 0.929 . S
C3416 C3408 1.378 . S
C3416 C3411 1.350 . S
C3417 H3404 0.929 . S
C3417 C3409 1.433 1_565 S
C3417 N3419 1.384 . S
N3418 C3414 1.427 . S
N3418 C3415 1.384 . S
N3419 C3411 1.427 1_565 S
N3419 C3417 1.384 . S
H3420 C3426 0.930 . S
H3421 C3430 0.930 . S
H3422 C3435 0.929 . S
H3423 C3433 0.929 . S
H3424 C3428 0.929 . S
H3425 C3434 0.929 . S
C3426 H3420 0.930 . S
C3426 C3427 1.367 1_655 S
C3426 C3434 1.378 . S
C3427 C3426 1.367 1_455 S
C3427 C3435 1.433 . S
C3428 H3424 0.929 . S
C3428 C3430 1.378 . S
C3428 C3432 1.350 . S
C3429 C3432 1.463 . S
C3429 C3434 1.350 1_455 S
C3429 N3437 1.427 . S
C3430 H3421 0.930 . S
C3430 C3428 1.378 . S
C3430 C3431 1.367 . S
C3431 C3430 1.367 . S
C3431 C3433 1.433 1_455 S
C3432 C3428 1.350 . S
C3432 C3429 1.463 . S
C3432 N3436 1.427 1_455 S
C3433 H3423 0.929 . S
C3433 C3431 1.433 1_655 S
C3433 N3436 1.384 . S
C3434 H3425 0.929 . S
C3434 C3426 1.378 . S
C3434 C3429 1.350 1_655 S
C3435 H3422 0.929 . S
C3435 C3427 1.433 . S
C3435 N3437 1.384 . S
N3436 C3432 1.427 1_655 S
N3436 C3433 1.384 . S
N3437 C3429 1.427 . S
N3437 C3435 1.384 . S
H3438 C3444 0.930 . S
H3439 C3448 0.930 . S
H3440 C3453 0.929 . S
H3441 C3451 0.929 . S
H3442 C3446 0.929 . S
H3443 C3452 0.929 . S
C3444 H3438 0.930 . S
C3444 C3445 1.367 1_565 S
C3444 C3452 1.378 . S
C3445 C3444 1.367 1_545 S
C3445 C3453 1.433 . S
C3446 H3442 0.929 . S
C3446 C3448 1.378 . S
C3446 C3450 1.350 . S
C3447 C3450 1.463 . S
C3447 C3452 1.350 1_545 S
C3447 N3455 1.427 . S
C3448 H3439 0.930 . S
C3448 C3446 1.378 . S
C3448 C3449 1.367 . S
C3449 C3448 1.367 . S
C3449 C3451 1.433 1_545 S
C3450 C3446 1.350 . S
C3450 C3447 1.463 . S
C3450 N3454 1.427 1_545 S
C3451 H3441 0.929 . S
C3451 C3449 1.433 1_565 S
C3451 N3454 1.384 . S
C3452 H3443 0.929 . S
C3452 C3444 1.378 . S
C3452 C3447 1.350 1_565 S
C3453 H3440 0.929 . S
C3453 C3445 1.433 . S
C3453 N3455 1.384 . S
N3454 C3450 1.427 1_565 S
N3454 C3451 1.384 . S
N3455 C3447 1.427 . S
N3455 C3453 1.384 . S
H3456 C3462 0.930 . S
H3457 C3466 0.930 . S
H3458 C3471 0.929 . S
H3459 C3469 0.929 . S
H3460 C3464 0.929 . S
H3461 C3470 0.929 . S
C3462 H3456 0.930 . S
C3462 C3463 1.367 1_556 S
C3462 C3470 1.378 . S
C3463 C3462 1.367 1_554 S
C3463 C3471 1.433 . S
C3464 H3460 0.929 . S
C3464 C3466 1.378 . S
C3464 C3468 1.350 . S
C3465 C3468 1.463 . S
C3465 C3470 1.350 1_554 S
C3465 N3473 1.427 . S
C3466 H3457 0.930 . S
C3466 C3464 1.378 . S
C3466 C3467 1.367 . S
C3467 C3466 1.367 . S
C3467 C3469 1.433 1_554 S
C3468 C3464 1.350 . S
C3468 C3465 1.463 . S
C3468 N3472 1.427 1_554 S
C3469 H3459 0.929 . S
C3469 C3467 1.433 1_556 S
C3469 N3472 1.384 . S
C3470 H3461 0.929 . S
C3470 C3462 1.378 . S
C3470 C3465 1.350 1_556 S
C3471 H3458 0.929 . S
C3471 C3463 1.433 . S
C3471 N3473 1.384 . S
N3472 C3468 1.427 1_556 S
N3472 C3469 1.384 . S
N3473 C3465 1.427 . S
N3473 C3471 1.384 . S
H3474 C3480 0.930 . S
H3475 C3484 0.930 . S
H3476 C3489 0.929 . S
H3477 C3487 0.929 . S
H3478 C3482 0.929 . S
H3479 C3488 0.929 . S
C3480 H3474 0.930 . S
C3480 C3481 1.367 . S
C3480 C3488 1.378 . S
C3481 C3480 1.367 . S
C3481 C3489 1.433 . S
C3482 H3478 0.929 . S
C3482 C3484 1.378 . S
C3482 C3486 1.350 . S
C3483 C3486 1.463 . S
C3483 C3488 1.350 . S
C3483 N3491 1.427 . S
C3484 H3475 0.930 . S
C3484 C3482 1.378 . S
C3484 C3485 1.367 . S
C3485 C3484 1.367 . S
C3485 C3487 1.433 . S
C3486 C3482 1.350 . S
C3486 C3483 1.463 . S
C3486 N3490 1.427 . S
C3487 H3477 0.929 . S
C3487 C3485 1.433 . S
C3487 N3490 1.384 . S
C3488 H3479 0.929 . S
C3488 C3480 1.378 . S
C3488 C3483 1.350 . S
C3489 H3476 0.929 . S
C3489 C3481 1.433 . S
C3489 N3491 1.384 . S
N3490 C3486 1.427 . S
N3490 C3487 1.384 . S
N3491 C3483 1.427 . S
N3491 C3489 1.384 . S
H3492 C3498 0.930 . S
H3493 C3502 0.930 . S
H3494 C3507 0.929 . S
H3495 C3505 0.929 . S
H3496 C3500 0.929 . S
H3497 C3506 0.929 . S
C3498 H3492 0.930 . S
C3498 C3499 1.367 1_556 S
C3498 C3506 1.378 . S
C3499 C3498 1.367 1_554 S
C3499 C3507 1.433 . S
C3500 H3496 0.929 . S
C3500 C3502 1.378 . S
C3500 C3504 1.350 . S
C3501 C3504 1.463 . S
C3501 C3506 1.350 1_554 S
C3501 N3509 1.427 . S
C3502 H3493 0.930 . S
C3502 C3500 1.378 . S
C3502 C3503 1.367 . S
C3503 C3502 1.367 . S
C3503 C3505 1.433 1_554 S
C3504 C3500 1.350 . S
C3504 C3501 1.463 . S
C3504 N3508 1.427 1_554 S
C3505 H3495 0.929 . S
C3505 C3503 1.433 1_556 S
C3505 N3508 1.384 . S
C3506 H3497 0.929 . S
C3506 C3498 1.378 . S
C3506 C3501 1.350 1_556 S
C3507 H3494 0.929 . S
C3507 C3499 1.433 . S
C3507 N3509 1.384 . S
N3508 C3504 1.427 1_556 S
N3508 C3505 1.384 . S
N3509 C3501 1.427 . S
N3509 C3507 1.384 . S
H3510 C3516 0.930 . S
H3511 C3520 0.930 . S
H3512 C3525 0.929 . S
H3513 C3523 0.929 . S
H3514 C3518 0.929 . S
H3515 C3524 0.929 . S
C3516 H3510 0.930 . S
C3516 C3517 1.367 . S
C3516 C3524 1.378 . S
C3517 C3516 1.367 . S
C3517 C3525 1.433 1_554 S
C3518 H3514 0.929 . S
C3518 C3520 1.378 . S
C3518 C3522 1.350 1_556 S
C3519 C3522 1.463 . S
C3519 C3524 1.350 . S
C3519 N3527 1.427 1_554 S
C3520 H3511 0.930 . S
C3520 C3518 1.378 . S
C3520 C3521 1.367 1_556 S
C3521 C3520 1.367 1_554 S
C3521 C3523 1.433 . S
C3522 C3518 1.350 1_554 S
C3522 C3519 1.463 . S
C3522 N3526 1.427 . S
C3523 H3513 0.929 . S
C3523 C3521 1.433 . S
C3523 N3526 1.384 . S
C3524 H3515 0.929 . S
C3524 C3516 1.378 . S
C3524 C3519 1.350 . S
C3525 H3512 0.929 . S
C3525 C3517 1.433 1_556 S
C3525 N3527 1.384 . S
N3526 C3522 1.427 . S
N3526 C3523 1.384 . S
N3527 C3519 1.427 1_556 S
N3527 C3525 1.384 . S
H3528 C3534 0.930 . S
H3529 C3538 0.930 . S
H3530 C3543 0.929 . S
H3531 C3541 0.929 . S
H3532 C3536 0.929 . S
H3533 C3542 0.929 . S
C3534 H3528 0.930 . S
C3534 C3535 1.367 . S
C3534 C3542 1.378 . S
C3535 C3534 1.367 . S
C3535 C3543 1.433 . S
C3536 H3532 0.929 . S
C3536 C3538 1.378 . S
C3536 C3540 1.350 . S
C3537 C3540 1.463 . S
C3537 C3542 1.350 . S
C3537 N3545 1.427 . S
C3538 H3529 0.930 . S
C3538 C3536 1.378 . S
C3538 C3539 1.367 . S
C3539 C3538 1.367 . S
C3539 C3541 1.433 . S
C3540 C3536 1.350 . S
C3540 C3537 1.463 . S
C3540 N3544 1.427 . S
C3541 H3531 0.929 . S
C3541 C3539 1.433 . S
C3541 N3544 1.384 . S
C3542 H3533 0.929 . S
C3542 C3534 1.378 . S
C3542 C3537 1.350 . S
C3543 H3530 0.929 . S
C3543 C3535 1.433 . S
C3543 N3545 1.384 . S
N3544 C3540 1.427 . S
N3544 C3541 1.384 . S
N3545 C3537 1.427 . S
N3545 C3543 1.384 . S
H3546 C3552 0.930 . S
H3547 C3556 0.930 . S
H3548 C3561 0.929 . S
H3549 C3559 0.929 . S
H3550 C3554 0.929 . S
H3551 C3560 0.929 . S
C3552 H3546 0.930 . S
C3552 C3553 1.367 . S
C3552 C3560 1.378 . S
C3553 C3552 1.367 . S
C3553 C3561 1.433 . S
C3554 H3550 0.929 . S
C3554 C3556 1.378 . S
C3554 C3558 1.350 . S
C3555 C3558 1.463 . S
C3555 C3560 1.350 . S
C3555 N3563 1.427 . S
C3556 H3547 0.930 . S
C3556 C3554 1.378 . S
C3556 C3557 1.367 . S
C3557 C3556 1.367 . S
C3557 C3559 1.433 . S
C3558 C3554 1.350 . S
C3558 C3555 1.463 . S
C3558 N3562 1.427 . S
C3559 H3549 0.929 . S
C3559 C3557 1.433 . S
C3559 N3562 1.384 . S
C3560 H3551 0.929 . S
C3560 C3552 1.378 . S
C3560 C3555 1.350 . S
C3561 H3548 0.929 . S
C3561 C3553 1.433 . S
C3561 N3563 1.384 . S
N3562 C3558 1.427 . S
N3562 C3559 1.384 . S
N3563 C3555 1.427 . S
N3563 C3561 1.384 . S
H3564 C3570 0.930 . S
H3565 C3574 0.930 . S
H3566 C3579 0.929 . S
H3567 C3577 0.929 . S
H3568 C3572 0.929 . S
H3569 C3578 0.929 . S
C3570 H3564 0.930 . S
C3570 C3571 1.367 . S
C3570 C3578 1.378 . S
C3571 C3570 1.367 . S
C3571 C3579 1.433 . S
C3572 H3568 0.929 . S
C3572 C3574 1.378 . S
C3572 C3576 1.350 . S
C3573 C3576 1.463 . S
C3573 C3578 1.350 . S
C3573 N3581 1.427 . S
C3574 H3565 0.930 . S
C3574 C3572 1.378 . S
C3574 C3575 1.367 . S
C3575 C3574 1.367 . S
C3575 C3577 1.433 . S
C3576 C3572 1.350 . S
C3576 C3573 1.463 . S
C3576 N3580 1.427 . S
C3577 H3567 0.929 . S
C3577 C3575 1.433 . S
C3577 N3580 1.384 . S
C3578 H3569 0.929 . S
C3578 C3570 1.378 . S
C3578 C3573 1.350 . S
C3579 H3566 0.929 . S
C3579 C3571 1.433 . S
C3579 N3581 1.384 . S
N3580 C3576 1.427 . S
N3580 C3577 1.384 . S
N3581 C3573 1.427 . S
N3581 C3579 1.384 . S
H3582 C3588 0.930 . S
H3583 C3592 0.930 . S
H3584 C3597 0.929 . S
H3585 C3595 0.929 . S
H3586 C3590 0.929 . S
H3587 C3596 0.929 . S
C3588 H3582 0.930 . S
C3588 C3589 1.367 . S
C3588 C3596 1.378 . S
C3589 C3588 1.367 . S
C3589 C3597 1.433 . S
C3590 H3586 0.929 . S
C3590 C3592 1.378 . S
C3590 C3594 1.350 . S
C3591 C3594 1.463 . S
C3591 C3596 1.350 . S
C3591 N3599 1.427 . S
C3592 H3583 0.930 . S
C3592 C3590 1.378 . S
C3592 C3593 1.367 . S
C3593 C3592 1.367 . S
C3593 C3595 1.433 . S
C3594 C3590 1.350 . S
C3594 C3591 1.463 . S
C3594 N3598 1.427 . S
C3595 H3585 0.929 . S
C3595 C3593 1.433 . S
C3595 N3598 1.384 . S
C3596 H3587 0.929 . S
C3596 C3588 1.378 . S
C3596 C3591 1.350 . S
C3597 H3584 0.929 . S
C3597 C3589 1.433 . S
C3597 N3599 1.384 . S
N3598 C3594 1.427 . S
N3598 C3595 1.384 . S
N3599 C3591 1.427 . S
N3599 C3597 1.384 . S
H3600 C3606 0.930 . S
H3601 C3610 0.930 . S
H3602 C3615 0.929 . S
H3603 C3613 0.929 . S
H3604 C3608 0.929 . S
H3605 C3614 0.929 . S
C3606 H3600 0.930 . S
C3606 C3607 1.367 . S
C3606 C3614 1.378 . S
C3607 C3606 1.367 . S
C3607 C3615 1.433 . S
C3608 H3604 0.929 . S
C3608 C3610 1.378 . S
C3608 C3612 1.350 . S
C3609 C3612 1.463 . S
C3609 C3614 1.350 . S
C3609 N3617 1.427 . S
C3610 H3601 0.930 . S
C3610 C3608 1.378 . S
C3610 C3611 1.367 . S
C3611 C3610 1.367 . S
C3611 C3613 1.433 . S
C3612 C3608 1.350 . S
C3612 C3609 1.463 . S
C3612 N3616 1.427 . S
C3613 H3603 0.929 . S
C3613 C3611 1.433 . S
C3613 N3616 1.384 . S
C3614 H3605 0.929 . S
C3614 C3606 1.378 . S
C3614 C3609 1.350 . S
C3615 H3602 0.929 . S
C3615 C3607 1.433 . S
C3615 N3617 1.384 . S
N3616 C3612 1.427 . S
N3616 C3613 1.384 . S
N3617 C3609 1.427 . S
N3617 C3615 1.384 . S
H3618 C3624 0.930 . S
H3619 C3628 0.930 . S
H3620 C3633 0.929 . S
H3621 C3631 0.929 . S
H3622 C3626 0.929 . S
H3623 C3632 0.929 . S
C3624 H3618 0.930 . S
C3624 C3625 1.367 . S
C3624 C3632 1.378 . S
C3625 C3624 1.367 . S
C3625 C3633 1.433 . S
C3626 H3622 0.929 . S
C3626 C3628 1.378 . S
C3626 C3630 1.350 . S
C3627 C3630 1.463 . S
C3627 C3632 1.350 . S
C3627 N3635 1.427 . S
C3628 H3619 0.930 . S
C3628 C3626 1.378 . S
C3628 C3629 1.367 . S
C3629 C3628 1.367 . S
C3629 C3631 1.433 . S
C3630 C3626 1.350 . S
C3630 C3627 1.463 . S
C3630 N3634 1.427 . S
C3631 H3621 0.929 . S
C3631 C3629 1.433 . S
C3631 N3634 1.384 . S
C3632 H3623 0.929 . S
C3632 C3624 1.378 . S
C3632 C3627 1.350 . S
C3633 H3620 0.929 . S
C3633 C3625 1.433 . S
C3633 N3635 1.384 . S
N3634 C3630 1.427 . S
N3634 C3631 1.384 . S
N3635 C3627 1.427 . S
N3635 C3633 1.384 . S
H3636 C3642 0.930 . S
H3637 C3646 0.930 . S
H3638 C3651 0.929 . S
H3639 C3649 0.929 . S
H3640 C3644 0.929 . S
H3641 C3650 0.929 . S
C3642 H3636 0.930 . S
C3642 C3643 1.367 . S
C3642 C3650 1.378 . S
C3643 C3642 1.367 . S
C3643 C3651 1.433 . S
C3644 H3640 0.929 . S
C3644 C3646 1.378 . S
C3644 C3648 1.350 . S
C3645 C3648 1.463 . S
C3645 C3650 1.350 . S
C3645 N3653 1.427 . S
C3646 H3637 0.930 . S
C3646 C3644 1.378 . S
C3646 C3647 1.367 . S
C3647 C3646 1.367 . S
C3647 C3649 1.433 . S
C3648 C3644 1.350 . S
C3648 C3645 1.463 . S
C3648 N3652 1.427 . S
C3649 H3639 0.929 . S
C3649 C3647 1.433 . S
C3649 N3652 1.384 . S
C3650 H3641 0.929 . S
C3650 C3642 1.378 . S
C3650 C3645 1.350 . S
C3651 H3638 0.929 . S
C3651 C3643 1.433 . S
C3651 N3653 1.384 . S
N3652 C3648 1.427 . S
N3652 C3649 1.384 . S
N3653 C3645 1.427 . S
N3653 C3651 1.384 . S
H3654 C3660 0.930 . S
H3655 C3664 0.930 . S
H3656 C3669 0.929 . S
H3657 C3667 0.929 . S
H3658 C3662 0.929 . S
H3659 C3668 0.929 . S
C3660 H3654 0.930 . S
C3660 C3661 1.367 . S
C3660 C3668 1.378 . S
C3661 C3660 1.367 . S
C3661 C3669 1.433 . S
C3662 H3658 0.929 . S
C3662 C3664 1.378 . S
C3662 C3666 1.350 . S
C3663 C3666 1.463 . S
C3663 C3668 1.350 . S
C3663 N3671 1.427 . S
C3664 H3655 0.930 . S
C3664 C3662 1.378 . S
C3664 C3665 1.367 . S
C3665 C3664 1.367 . S
C3665 C3667 1.433 . S
C3666 C3662 1.350 . S
C3666 C3663 1.463 . S
C3666 N3670 1.427 . S
C3667 H3657 0.929 . S
C3667 C3665 1.433 . S
C3667 N3670 1.384 . S
C3668 H3659 0.929 . S
C3668 C3660 1.378 . S
C3668 C3663 1.350 . S
C3669 H3656 0.929 . S
C3669 C3661 1.433 . S
C3669 N3671 1.384 . S
N3670 C3666 1.427 . S
N3670 C3667 1.384 . S
N3671 C3663 1.427 . S
N3671 C3669 1.384 . S
H3672 C3678 0.930 . S
H3673 C3682 0.930 . S
H3674 C3687 0.929 . S
H3675 C3685 0.929 . S
H3676 C3680 0.929 . S
H3677 C3686 0.929 . S
C3678 H3672 0.930 . S
C3678 C3679 1.367 . S
C3678 C3686 1.378 . S
C3679 C3678 1.367 . S
C3679 C3687 1.433 . S
C3680 H3676 0.929 . S
C3680 C3682 1.378 . S
C3680 C3684 1.350 . S
C3681 C3684 1.463 . S
C3681 C3686 1.350 . S
C3681 N3689 1.427 . S
C3682 H3673 0.930 . S
C3682 C3680 1.378 . S
C3682 C3683 1.367 . S
C3683 C3682 1.367 . S
C3683 C3685 1.433 . S
C3684 C3680 1.350 . S
C3684 C3681 1.463 . S
C3684 N3688 1.427 . S
C3685 H3675 0.929 . S
C3685 C3683 1.433 . S
C3685 N3688 1.384 . S
C3686 H3677 0.929 . S
C3686 C3678 1.378 . S
C3686 C3681 1.350 . S
C3687 H3674 0.929 . S
C3687 C3679 1.433 . S
C3687 N3689 1.384 . S
N3688 C3684 1.427 . S
N3688 C3685 1.384 . S
N3689 C3681 1.427 . S
N3689 C3687 1.384 . S
H3690 C3696 0.930 . S
H3691 C3700 0.930 . S
H3692 C3705 0.929 . S
H3693 C3703 0.929 . S
H3694 C3698 0.929 . S
H3695 C3704 0.929 . S
C3696 H3690 0.930 . S
C3696 C3697 1.367 . S
C3696 C3704 1.378 . S
C3697 C3696 1.367 . S
C3697 C3705 1.433 . S
C3698 H3694 0.929 . S
C3698 C3700 1.378 . S
C3698 C3702 1.350 . S
C3699 C3702 1.463 . S
C3699 C3704 1.350 . S
C3699 N3707 1.427 . S
C3700 H3691 0.930 . S
C3700 C3698 1.378 . S
C3700 C3701 1.367 . S
C3701 C3700 1.367 . S
C3701 C3703 1.433 . S
C3702 C3698 1.350 . S
C3702 C3699 1.463 . S
C3702 N3706 1.427 . S
C3703 H3693 0.929 . S
C3703 C3701 1.433 . S
C3703 N3706 1.384 . S
C3704 H3695 0.929 . S
C3704 C3696 1.378 . S
C3704 C3699 1.350 . S
C3705 H3692 0.929 . S
C3705 C3697 1.433 . S
C3705 N3707 1.384 . S
N3706 C3702 1.427 . S
N3706 C3703 1.384 . S
N3707 C3699 1.427 . S
N3707 C3705 1.384 . S
H3708 C3714 0.930 . S
H3709 C3718 0.930 . S
H3710 C3723 0.929 . S
H3711 C3721 0.929 . S
H3712 C3716 0.929 . S
H3713 C3722 0.929 . S
C3714 H3708 0.930 . S
C3714 C3715 1.367 . S
C3714 C3722 1.378 . S
C3715 C3714 1.367 . S
C3715 C3723 1.433 . S
C3716 H3712 0.929 . S
C3716 C3718 1.378 . S
C3716 C3720 1.350 . S
C3717 C3720 1.463 . S
C3717 C3722 1.350 . S
C3717 N3725 1.427 . S
C3718 H3709 0.930 . S
C3718 C3716 1.378 . S
C3718 C3719 1.367 . S
C3719 C3718 1.367 . S
C3719 C3721 1.433 . S
C3720 C3716 1.350 . S
C3720 C3717 1.463 . S
C3720 N3724 1.427 . S
C3721 H3711 0.929 . S
C3721 C3719 1.433 . S
C3721 N3724 1.384 . S
C3722 H3713 0.929 . S
C3722 C3714 1.378 . S
C3722 C3717 1.350 . S
C3723 H3710 0.929 . S
C3723 C3715 1.433 . S
C3723 N3725 1.384 . S
N3724 C3720 1.427 . S
N3724 C3721 1.384 . S
N3725 C3717 1.427 . S
N3725 C3723 1.384 . S
H3726 C3732 0.930 . S
H3727 C3736 0.930 . S
H3728 C3741 0.929 . S
H3729 C3739 0.929 . S
H3730 C3734 0.929 . S
H3731 C3740 0.929 . S
C3732 H3726 0.930 . S
C3732 C3733 1.367 . S
C3732 C3740 1.378 . S
C3733 C3732 1.367 . S
C3733 C3741 1.433 . S
C3734 H3730 0.929 . S
C3734 C3736 1.378 . S
C3734 C3738 1.350 . S
C3735 C3738 1.463 . S
C3735 C3740 1.350 . S
C3735 N3743 1.427 . S
C3736 H3727 0.930 . S
C3736 C3734 1.378 . S
C3736 C3737 1.367 . S
C3737 C3736 1.367 . S
C3737 C3739 1.433 . S
C3738 C3734 1.350 . S
C3738 C3735 1.463 . S
C3738 N3742 1.427 . S
C3739 H3729 0.929 . S
C3739 C3737 1.433 . S
C3739 N3742 1.384 . S
C3740 H3731 0.929 . S
C3740 C3732 1.378 . S
C3740 C3735 1.350 . S
C3741 H3728 0.929 . S
C3741 C3733 1.433 . S
C3741 N3743 1.384 . S
N3742 C3738 1.427 . S
N3742 C3739 1.384 . S
N3743 C3735 1.427 . S
N3743 C3741 1.384 . S
C1591 C1480 2.172 . S
C1595 C8 2.143 . S
C1609 C1381 2.146 . S
C1613 C41 2.117 . S
C1627 C1414 2.159 . S
C1631 C94 2.162 . S
C1645 C127 2.119 . S
C1649 C1447 2.118 . S
C1663 C160 2.120 . S
C1667 C1579 2.122 . S
C1681 C173 2.110 . S
C1685 C1513 2.140 . S
C1699 C226 2.168 . S
C1703 C1546 2.166 . S
C1717 C1348 2.143 . S
C1721 C259 2.145 . S
C1735 C1315 2.130 . S
C1739 C292 2.130 . S
C1753 C325 2.177 . S
C1757 C1216 2.179 . S
C1771 C358 2.185 . S
C1775 C1229 2.155 . S
C1789 C1282 2.146 . S
C1793 C371 2.119 . S
C1807 C424 2.179 . S
C1811 C1117 2.180 . S
C1825 C437 2.150 . S
C1829 C1150 2.180 . S
C1843 C1163 2.118 . S
C1847 C490 2.148 . S
C1861 C523 2.129 . S
C1865 C1084 2.126 . S
C1879 C556 2.143 . S
C1883 C1051 2.145 . S
C1897 C833 2.117 . S
C1901 C589 2.147 . S
C1915 C886 2.163 . S
C1919 C622 2.160 . S
C1933 C655 2.113 . S
C1937 C919 2.116 . S
C1951 C800 2.143 . S
C1955 C688 2.172 . S
C1969 C721 2.136 . S
C1973 C965 2.111 . S
C1987 C1018 2.171 . S
C1991 C754 2.173 . S
C2005 C787 2.127 . S
C2009 C952 2.124 . S
C2023 N137 0.880 . S
C2027 N1391 0.880 . S
C2041 N1424 0.899 . S
C2045 N179 0.906 . S
C2059 N203 0.892 . S
C2063 N1457 0.892 . S
C2077 N1358 0.879 . S
C2081 N236 0.879 . S
C2095 N1523 0.920 . S
C2099 N14 0.933 . S
C2113 N47 0.918 . S
C2117 N1325 0.910 . S
C2131 N1556 0.852 . S
C2135 N71 0.852 . S
C2149 N1490 0.889 . S
C2153 N104 0.890 . S
C2167 N1094 0.881 . S
C2171 N467 0.881 . S
C2185 N500 0.856 . S
C2189 N1127 0.856 . S
C2203 N1169 0.898 . S
C2207 N401 0.880 . S
C2221 N443 0.905 . S
C2225 N1061 0.880 . S
C2239 N1292 0.873 . S
C2243 N335 0.873 . S
C2257 N1193 0.878 . S
C2261 N377 0.901 . S
C2275 N1235 0.907 . S
C2279 N269 0.899 . S
C2293 N1259 0.887 . S
C2297 N302 0.887 . S
C2311 N896 0.867 . S
C2315 N698 0.867 . S
C2329 N632 0.905 . S
C2333 N971 0.913 . S
C2347 N665 0.884 . S
C2351 N995 0.884 . S
C2365 N1028 0.893 . S
C2369 N566 0.893 . S
C2383 N599 0.869 . S
C2387 N929 0.869 . S
C2401 N839 0.922 . S
C2405 N533 0.911 . S
C2419 N764 0.852 . S
C2423 N863 0.852 . S
C2437 N806 0.923 . S
C2441 N731 0.913 . S
C2455 C107 1.720 . S
C2459 N5 1.597 . S
C2473 C28 1.696 . S
C2477 N38 1.561 . S
C2491 N80 1.716 . S
C2495 C61 1.760 . S
C2509 N113 1.706 . S
C2513 C74 1.739 . S
C2527 C193 1.715 . S
C2531 N146 1.659 . S
C2545 N170 1.553 . S
C2549 C206 1.680 . S
C2563 N212 1.742 . S
C2567 C239 1.773 . S
C2581 C140 1.749 . S
C2585 N245 1.706 . S
C2599 C602 1.725 . S
C2603 N278 1.701 . S
C2617 C635 1.779 . S
C2621 N311 1.737 . S
C2635 C668 1.724 . S
C2639 N344 1.692 . S
C2653 N368 1.586 . S
C2657 C569 1.710 . S
C2671 C734 1.765 . S
C2675 N410 1.737 . S
C2689 N434 1.602 . S
C2693 C536 1.727 . S
C2707 N476 1.672 . S
C2711 C767 1.700 . S
C2725 C701 1.747 . S
C2729 N509 1.705 . S
C2743 N542 1.689 . S
C2747 C305 1.726 . S
C2761 C503 1.724 . S
C2765 N575 1.681 . S
C2779 N608 1.676 . S
C2783 C404 1.718 . S
C2797 C457 1.712 . S
C2801 N641 1.678 . S
C2815 N674 1.654 . S
C2819 C470 1.693 . S
C2833 C391 1.693 . S
C2837 N707 1.650 . S
C2851 C272 1.743 . S
C2855 N740 1.707 . S
C2869 N773 1.668 . S
C2873 C338 1.701 . S
C2887 N797 1.584 . S
C2891 C899 1.720 . S
C2905 N830 1.556 . S
C2909 C820 1.704 . S
C2923 C853 1.760 . S
C2927 N872 1.709 . S
C2941 C866 1.748 . S
C2945 N905 1.709 . S
C2959 N938 1.673 . S
C2963 C985 1.712 . S
C2977 N962 1.539 . S
C2981 C998 1.669 . S
C2995 N1004 1.737 . S
C2999 C1031 1.770 . S
C3013 C932 1.746 . S
C3017 N1037 1.714 . S
C3031 C1394 1.725 . S
C3035 N1070 1.701 . S
C3049 C1427 1.782 . S
C3053 N1103 1.750 . S
C3067 N1136 1.685 . S
C3071 C1460 1.731 . S
C3085 C1361 1.701 . S
C3089 N1160 1.566 . S
C3103 N1202 1.742 . S
C3107 C1526 1.772 . S
C3121 C1328 1.727 . S
C3125 N1226 1.603 . S
C3139 C1559 1.705 . S
C3143 N1268 1.666 . S
C3157 N1301 1.714 . S
C3161 C1493 1.744 . S
C3175 C1097 1.722 . S
C3179 N1334 1.682 . S
C3193 N1367 1.684 . S
C3197 C1295 1.726 . S
C3211 N1400 1.675 . S
C3215 C1196 1.714 . S
C3229 N1433 1.679 . S
C3233 C1249 1.714 . S
C3247 N1466 1.659 . S
C3251 C1262 1.686 . S
C3265 N1499 1.637 . S
C3269 C1183 1.690 . S
C3283 C1064 1.735 . S
C3287 N1532 1.712 . S
C3301 C1130 1.702 . S
C3305 N1565 1.663 . S
C3319 C17 0.847 . S
C3323 C314 0.854 . S
C3337 C347 0.874 . S
C3341 C50 0.890 . S
C3355 C380 0.858 . S
C3359 C83 0.855 . S
C3373 C281 0.850 . S
C3377 C116 0.837 . S
C3391 C149 0.860 . S
C3395 C512 0.848 . S
C3409 C413 0.843 . S
C3413 C182 0.856 . S
C3427 C215 0.846 . S
C3431 C446 0.852 . S
C3445 C248 0.904 . S
C3449 C479 0.903 . S
C3463 C611 0.847 . S
C3467 C545 0.838 . S
C3481 C743 0.889 . S
C3485 C578 0.872 . S
C3499 C776 0.854 . S
C3503 C644 0.865 . S
C3517 C710 0.925 . S
C3521 C677 0.916 . S
C3535 C809 0.855 . S
C3539 C1106 0.837 . S
C3553 C842 0.887 . S
C3557 C1139 0.883 . S
C3571 C1172 0.860 . S
C3575 C875 0.858 . S
C3589 C1073 0.834 . S
C3593 C908 0.850 . S
C3607 C1304 0.861 . S
C3611 C941 0.848 . S
C3625 C974 0.849 . S
C3629 C1205 0.858 . S
C3643 C1007 0.852 . S
C3647 C1238 0.847 . S
C3661 C1040 0.908 . S
C3665 C1271 0.898 . S
C3679 C1337 0.845 . S
C3683 C1403 0.840 . S
C3697 C1370 0.872 . S
C3701 C1535 0.889 . S
C3715 C1436 0.854 . S
C3719 C1568 0.870 . S
C3733 C1469 0.920 . S
C3737 C1502 0.916 . S
