# Generated by pormake.
# Topology uku, (4)-cn, num edge types: 1
# Building blocks:
#     Node 0, Type 0, BuildingBlock: ESEHIV_clean_sbu_0, # of connection points: 4
#     Node 1, Type 0, BuildingBlock: ESEHIV_clean_sbu_0, # of connection points: 4
#     Node 2, Type 0, BuildingBlock: ESEHIV_clean_sbu_0, # of connection points: 4
#     Node 3, Type 0, BuildingBlock: ESEHIV_clean_sbu_0, # of connection points: 4
#     Node 4, Type 0, BuildingBlock: ESEHIV_clean_sbu_0, # of connection points: 4
#     Node 5, Type 0, BuildingBlock: ESEHIV_clean_sbu_0, # of connection points: 4
#     Node 6, Type 0, BuildingBlock: ESEHIV_clean_sbu_0, # of connection points: 4
#     Node 7, Type 0, BuildingBlock: ESEHIV_clean_sbu_0, # of connection points: 4
#     Node 8, Type 0, BuildingBlock: ESEHIV_clean_sbu_0, # of connection points: 4
#     Node 9, Type 0, BuildingBlock: ESEHIV_clean_sbu_0, # of connection points: 4
#     Node 10, Type 0, BuildingBlock: ESEHIV_clean_sbu_0, # of connection points: 4
#     Node 11, Type 0, BuildingBlock: ESEHIV_clean_sbu_0, # of connection points: 4
#     Edge 12, Type (0, 0), BuildingBlock: CIFDUS_clean_linker_0, # of connection points: 2
#     Edge 13, Type (0, 0), BuildingBlock: CIFDUS_clean_linker_0, # of connection points: 2
#     Edge 14, Type (0, 0), BuildingBlock: CIFDUS_clean_linker_0, # of connection points: 2
#     Edge 15, Type (0, 0), BuildingBlock: CIFDUS_clean_linker_0, # of connection points: 2
#     Edge 16, Type (0, 0), BuildingBlock: CIFDUS_clean_linker_0, # of connection points: 2
#     Edge 17, Type (0, 0), BuildingBlock: CIFDUS_clean_linker_0, # of connection points: 2
#     Edge 18, Type (0, 0), BuildingBlock: CIFDUS_clean_linker_0, # of connection points: 2
#     Edge 19, Type (0, 0), BuildingBlock: CIFDUS_clean_linker_0, # of connection points: 2
#     Edge 20, Type (0, 0), BuildingBlock: CIFDUS_clean_linker_0, # of connection points: 2
#     Edge 21, Type (0, 0), BuildingBlock: CIFDUS_clean_linker_0, # of connection points: 2
#     Edge 22, Type (0, 0), BuildingBlock: CIFDUS_clean_linker_0, # of connection points: 2
#     Edge 23, Type (0, 0), BuildingBlock: CIFDUS_clean_linker_0, # of connection points: 2
#     Edge 24, Type (0, 0), BuildingBlock: CIFDUS_clean_linker_0, # of connection points: 2
#     Edge 25, Type (0, 0), BuildingBlock: CIFDUS_clean_linker_0, # of connection points: 2
#     Edge 26, Type (0, 0), BuildingBlock: CIFDUS_clean_linker_0, # of connection points: 2
#     Edge 27, Type (0, 0), BuildingBlock: CIFDUS_clean_linker_0, # of connection points: 2
#     Edge 28, Type (0, 0), BuildingBlock: CIFDUS_clean_linker_0, # of connection points: 2
#     Edge 29, Type (0, 0), BuildingBlock: CIFDUS_clean_linker_0, # of connection points: 2
#     Edge 30, Type (0, 0), BuildingBlock: CIFDUS_clean_linker_0, # of connection points: 2
#     Edge 31, Type (0, 0), BuildingBlock: CIFDUS_clean_linker_0, # of connection points: 2
#     Edge 32, Type (0, 0), BuildingBlock: CIFDUS_clean_linker_0, # of connection points: 2
#     Edge 33, Type (0, 0), BuildingBlock: CIFDUS_clean_linker_0, # of connection points: 2
#     Edge 34, Type (0, 0), BuildingBlock: CIFDUS_clean_linker_0, # of connection points: 2
#     Edge 35, Type (0, 0), BuildingBlock: CIFDUS_clean_linker_0, # of connection points: 2
# Relax obj value: 0.124
# Max RMSD: 0.258
# Mean RMSD: 0.258
data_MOF--net-uku--node1-ESEHIV_clean_sbu_0--edge1-CIFDUS_clean_linker_0
_symmetry_space_group_name_H-M    P1
_symmetry_Int_Tables_number       1
_symmetry_cell_setting            triclinic
loop_
_symmetry_equiv_pos_as_xyz
'x, y, z'
_cell_length_a     42.397818
_cell_length_b     42.33536
_cell_length_c     42.193482
_cell_angle_alpha  89.964272
_cell_angle_beta   90.108712
_cell_angle_gamma 89.965764
loop_
_atom_site_label
_atom_site_type_symbol
_atom_site_fract_x
_atom_site_fract_y
_atom_site_fract_z
_atom_type_partial_charge
Cu0 Cu 0.10121 0.12575 0.66548 0.0
N1 N 0.14428 0.1192 0.67148 0.0
N2 N 0.18919 0.1105 0.69808 0.0
C3 C 0.15833 0.11828 0.70006 0.0
C4 C 0.19463 0.10634 0.66679 0.0
C5 C 0.16684 0.11156 0.65047 0.0
O6 O 0.08817 0.15631 0.69725 0.0
C7 C 0.0522 0.08137 0.67785 0.0
O8 O 0.03395 0.10625 0.68111 0.0
H9 H 0.14566 0.12214 0.72195 0.0
H10 H 0.16321 0.10916 0.62522 0.0
N11 N 0.0918 0.13995 0.62442 0.0
N12 N 0.06481 0.1493 0.57971 0.0
C13 C 0.06365 0.13794 0.60963 0.0
C14 C 0.11139 0.15325 0.60319 0.0
C15 C 0.09485 0.15893 0.57557 0.0
C16 C 0.09572 0.18523 0.6939 0.0
O17 O 0.11001 0.19409 0.66777 0.0
H18 H 0.04285 0.12781 0.62041 0.0
H19 H 0.13597 0.15854 0.6075 0.0
O20 O 0.08128 0.08518 0.67179 0.0
H21 H 0.21697 0.09981 0.65633 0.0
H22 H 0.10411 0.16971 0.55426 0.0
Cu23 Cu 0.90327 0.87768 0.66111 0.0
N24 N 0.86058 0.88589 0.66678 0.0
N25 N 0.81553 0.89294 0.6932 0.0
C26 C 0.84562 0.88268 0.69464 0.0
C27 C 0.81141 0.90305 0.66309 0.0
C28 C 0.83934 0.89863 0.6468 0.0
O29 O 0.91351 0.84568 0.69245 0.0
C30 C 0.95465 0.92008 0.67213 0.0
O31 O 0.97279 0.89492 0.67121 0.0
H32 H 0.8571 0.87416 0.71592 0.0
H33 H 0.84406 0.90496 0.62242 0.0
N34 N 0.91126 0.8627 0.62029 0.0
N35 N 0.93648 0.8517 0.5752 0.0
C36 C 0.93538 0.8705 0.60102 0.0
C37 C 0.89647 0.83846 0.60601 0.0
C38 C 0.91207 0.83151 0.57825 0.0
C39 C 0.93078 0.82152 0.68792 0.0
O40 O 0.9464 0.81867 0.66122 0.0
H41 H 0.95282 0.8883 0.60665 0.0
H42 H 0.87663 0.82582 0.6159 0.0
O43 O 0.92506 0.91706 0.66852 0.0
H44 H 0.7899 0.9131 0.65359 0.0
H45 H 0.90647 0.81254 0.56199 0.0
Cu46 Cu 0.09529 0.88639 0.35283 0.0
N47 N 0.13716 0.89507 0.34272 0.0
N48 N 0.17837 0.90792 0.31228 0.0
C49 C 0.14727 0.90116 0.31317 0.0
C50 C 0.18823 0.90588 0.3427 0.0
C51 C 0.16268 0.89805 0.36146 0.0
O52 O 0.0836 0.84843 0.32995 0.0
C53 C 0.04212 0.92709 0.33988 0.0
O54 O 0.02383 0.90296 0.34659 0.0
H55 H 0.13198 0.90044 0.29268 0.0
H56 H 0.16265 0.89511 0.38692 0.0
N57 N 0.09033 0.87816 0.39602 0.0
N58 N 0.06714 0.87287 0.44323 0.0
C59 C 0.06692 0.88818 0.41514 0.0
C60 C 0.10596 0.856 0.41268 0.0
C61 C 0.09167 0.85264 0.4418 0.0
C62 C 0.07806 0.84734 0.30036 0.0
O63 O 0.07678 0.87378 0.28409 0.0
H64 H 0.04883 0.90473 0.40787 0.0
H65 H 0.1253 0.84204 0.40358 0.0
O66 O 0.07187 0.92376 0.34076 0.0
H67 H 0.212 0.91021 0.35096 0.0
H68 H 0.09809 0.83584 0.46007 0.0
Cu69 Cu 0.90221 0.13699 0.35157 0.0
N70 N 0.85876 0.1305 0.3515 0.0
N71 N 0.81048 0.12019 0.33289 0.0
C72 C 0.84106 0.1251 0.32554 0.0
C73 C 0.80892 0.12261 0.36476 0.0
C74 C 0.83881 0.12876 0.37619 0.0
O75 O 0.91107 0.16802 0.3186 0.0
C76 C 0.94927 0.09118 0.3352 0.0
O77 O 0.96831 0.11531 0.33109 0.0
H78 H 0.85048 0.12508 0.30172 0.0
H79 H 0.84554 0.1314 0.40078 0.0
N80 N 0.91585 0.15108 0.3914 0.0
N81 N 0.94497 0.15707 0.4353 0.0
C82 C 0.94236 0.1425 0.40691 0.0
C83 C 0.90131 0.17189 0.41053 0.0
C84 C 0.91911 0.17552 0.43768 0.0
C85 C 0.93082 0.1905 0.32144 0.0
O86 O 0.94834 0.19217 0.3471 0.0
H87 H 0.95925 0.12572 0.39767 0.0
H88 H 0.87934 0.1837 0.40503 0.0
O89 O 0.92079 0.09611 0.34307 0.0
H90 H 0.78783 0.11962 0.37884 0.0
H91 H 0.91376 0.19102 0.45735 0.0
Cu92 Cu 0.66868 0.09196 0.12887 0.0
N93 N 0.6769 0.13479 0.12352 0.0
N94 N 0.70714 0.17784 0.11961 0.0
C95 C 0.70617 0.14663 0.12593 0.0
C96 C 0.67705 0.18594 0.11273 0.0
C97 C 0.65839 0.15923 0.11516 0.0
O98 O 0.69635 0.07858 0.16302 0.0
C99 C 0.68455 0.04267 0.08569 0.0
O100 O 0.68534 0.02431 0.1108 0.0
H101 H 0.72652 0.13214 0.13127 0.0
H102 H 0.63332 0.15767 0.11062 0.0
N103 N 0.62656 0.08348 0.13876 0.0
N104 N 0.58155 0.05641 0.14419 0.0
C105 C 0.61196 0.05552 0.13471 0.0
C106 C 0.60471 0.10282 0.15128 0.0
C107 C 0.5769 0.08622 0.15461 0.0
C108 C 0.69197 0.09123 0.19002 0.0
O109 O 0.66731 0.10963 0.19393 0.0
H110 H 0.62339 0.03503 0.12465 0.0
H111 H 0.60879 0.12718 0.15781 0.0
O112 O 0.67866 0.07189 0.08902 0.0
H113 H 0.66904 0.20938 0.10636 0.0
H114 H 0.55516 0.09527 0.16449 0.0
Cu115 Cu 0.34953 0.90276 0.12881 0.0
N116 N 0.34013 0.86081 0.11941 0.0
N117 N 0.30966 0.82 0.10542 0.0
C118 C 0.31056 0.85061 0.11423 0.0
C119 C 0.34008 0.81045 0.10524 0.0
C120 C 0.35888 0.8358 0.1137 0.0
O121 O 0.32691 0.91336 0.16726 0.0
C122 C 0.3326 0.95606 0.08962 0.0
O123 O 0.33685 0.97398 0.11467 0.0
H124 H 0.29006 0.8656 0.11673 0.0
H125 H 0.38436 0.83613 0.11478 0.0
N126 N 0.39255 0.90965 0.13563 0.0
N127 N 0.43812 0.93598 0.14037 0.0
C128 C 0.4081 0.93673 0.12958 0.0
C129 C 0.41342 0.89101 0.15076 0.0
C130 C 0.4416 0.90711 0.15357 0.0
C131 C 0.29784 0.9207 0.16794 0.0
O132 O 0.2824 0.92414 0.14114 0.0
H133 H 0.39733 0.95681 0.11802 0.0
H134 H 0.40814 0.86786 0.16021 0.0
O135 O 0.33614 0.92636 0.0919 0.0
H136 H 0.34824 0.78716 0.0986 0.0
H137 H 0.46249 0.89869 0.16569 0.0
Cu138 Cu 0.65827 0.89623 0.88184 0.0
N139 N 0.6592 0.85303 0.89015 0.0
N140 N 0.67952 0.80572 0.90247 0.0
C141 C 0.68533 0.83685 0.89823 0.0
C142 C 0.64824 0.80246 0.89686 0.0
C143 C 0.6358 0.83166 0.88938 0.0
O144 O 0.68904 0.90358 0.84867 0.0
C145 C 0.67722 0.94567 0.92396 0.0
O146 O 0.67823 0.96379 0.89869 0.0
H147 H 0.70808 0.84803 0.90102 0.0
H148 H 0.61148 0.83683 0.88363 0.0
N149 N 0.61811 0.90947 0.86894 0.0
N150 N 0.57511 0.93947 0.86239 0.0
C151 C 0.6032 0.93634 0.87728 0.0
C152 C 0.59891 0.8952 0.84797 0.0
C153 C 0.5723 0.91354 0.84401 0.0
C154 C 0.68586 0.92316 0.826 0.0
O155 O 0.66123 0.94199 0.82536 0.0
H156 H 0.61285 0.95331 0.89381 0.0
H157 H 0.60422 0.87332 0.83587 0.0
O158 O 0.66967 0.91678 0.92108 0.0
H159 H 0.63516 0.78055 0.89748 0.0
H160 H 0.55288 0.90865 0.82807 0.0
Cu161 Cu 0.34942 0.10065 0.88279 0.0
N162 N 0.34125 0.14334 0.88924 0.0
N163 N 0.31079 0.18508 0.89985 0.0
C164 C 0.31164 0.15427 0.89191 0.0
C165 C 0.34127 0.19409 0.90199 0.0
C166 C 0.3601 0.16811 0.89568 0.0
O167 O 0.31978 0.08769 0.8501 0.0
C168 C 0.33253 0.05223 0.9271 0.0
O169 O 0.32821 0.03395 0.90232 0.0
H170 H 0.29105 0.13951 0.88867 0.0
H171 H 0.38555 0.16714 0.89694 0.0
N172 N 0.3912 0.09199 0.87161 0.0
N173 N 0.43556 0.06426 0.8645 0.0
C174 C 0.40526 0.06357 0.87428 0.0
C175 C 0.41331 0.11139 0.8596 0.0
C176 C 0.44078 0.09436 0.85533 0.0
C177 C 0.32743 0.07938 0.82216 0.0
O178 O 0.3573 0.07528 0.8151 0.0
H179 H 0.39347 0.04283 0.88343 0.0
H180 H 0.40966 0.13604 0.85402 0.0
O181 O 0.34102 0.0807 0.92308 0.0
H182 H 0.34935 0.21732 0.90896 0.0
H183 H 0.46264 0.10326 0.8456 0.0
Cu184 Cu 0.12383 0.65295 0.10773 0.0
N185 N 0.11308 0.66525 0.14874 0.0
N186 N 0.09878 0.69862 0.18725 0.0
C187 C 0.1108 0.69561 0.1578 0.0
C188 C 0.09353 0.66875 0.19723 0.0
C189 C 0.10219 0.6482 0.1733 0.0
O190 O 0.16325 0.67369 0.09732 0.0
C191 C 0.08713 0.66715 0.05176 0.0
O192 O 0.11202 0.65967 0.03484 0.0
H193 H 0.11731 0.71514 0.14267 0.0
H194 H 0.09954 0.6228 0.17336 0.0
N195 N 0.12912 0.60923 0.1041 0.0
N196 N 0.13246 0.56124 0.08201 0.0
C197 C 0.12364 0.59168 0.07803 0.0
C198 C 0.14182 0.58928 0.1254 0.0
C199 C 0.14379 0.55965 0.11192 0.0
C200 C 0.16484 0.70232 0.08836 0.0
O201 O 0.13862 0.71803 0.08301 0.0
H202 H 0.11371 0.60118 0.05643 0.0
H203 H 0.14998 0.59602 0.14874 0.0
O204 O 0.08862 0.66623 0.0818 0.0
H205 H 0.08301 0.6622 0.21963 0.0
H206 H 0.15393 0.53889 0.12293 0.0
Cu207 Cu 0.12454 0.35535 0.90398 0.0
N208 N 0.10784 0.34955 0.86343 0.0
N209 N 0.0961 0.32762 0.81671 0.0
C210 C 0.10958 0.32331 0.84543 0.0
C211 C 0.08552 0.35769 0.81669 0.0
C212 C 0.09267 0.3711 0.84559 0.0
O213 O 0.16404 0.33216 0.90688 0.0
C214 C 0.07519 0.31939 0.93322 0.0
O215 O 0.07764 0.30003 0.90904 0.0
H216 H 0.12122 0.30179 0.85293 0.0
H217 H 0.08755 0.39502 0.85298 0.0
N218 N 0.13322 0.39805 0.91061 0.0
N219 N 0.13713 0.44521 0.93426 0.0
C220 C 0.12733 0.41493 0.93703 0.0
C221 C 0.14727 0.41817 0.89044 0.0
C222 C 0.14967 0.44726 0.9049 0.0
C223 C 0.16639 0.3038 0.91653 0.0
O224 O 0.14112 0.28908 0.92669 0.0
H225 H 0.1159 0.40516 0.95773 0.0
H226 H 0.15542 0.41199 0.86697 0.0
O227 O 0.09358 0.34303 0.93544 0.0
H228 H 0.0735 0.36916 0.79717 0.0
H229 H 0.16043 0.4681 0.89475 0.0
Cu230 Cu 0.88075 0.6566 0.90565 0.0
N231 N 0.88703 0.66278 0.86247 0.0
N232 N 0.89492 0.68987 0.81772 0.0
C233 C 0.88583 0.69121 0.84832 0.0
C234 C 0.90213 0.65924 0.81243 0.0
C235 C 0.89724 0.64254 0.84016 0.0
O236 O 0.85167 0.68979 0.91871 0.0
C237 C 0.92654 0.67096 0.95311 0.0
O238 O 0.90246 0.67994 0.97047 0.0
H239 H 0.8798 0.71272 0.86076 0.0
H240 H 0.90174 0.61769 0.84407 0.0
N241 N 0.86482 0.61633 0.91427 0.0
N242 N 0.85184 0.57246 0.94065 0.0
C243 C 0.86848 0.59964 0.94126 0.0
C244 C 0.84558 0.59894 0.89584 0.0
C245 C 0.83736 0.57195 0.91215 0.0
C246 C 0.82219 0.6852 0.92227 0.0
O247 O 0.81111 0.65629 0.92106 0.0
H248 H 0.88216 0.60778 0.96135 0.0
H249 H 0.83743 0.60589 0.87255 0.0
O250 O 0.92172 0.66065 0.92528 0.0
H251 H 0.91065 0.64963 0.79027 0.0
H252 H 0.82181 0.55345 0.9038 0.0
Cu253 Cu 0.88588 0.35333 0.09767 0.0
N254 N 0.90441 0.34347 0.13679 0.0
N255 N 0.91522 0.31578 0.18081 0.0
C256 C 0.89311 0.32356 0.15899 0.0
C257 C 0.94117 0.33226 0.17237 0.0
C258 C 0.93445 0.34919 0.14526 0.0
O259 O 0.84974 0.32594 0.09014 0.0
C260 C 0.93639 0.32709 0.0603 0.0
O261 O 0.93436 0.30165 0.07797 0.0
H262 H 0.86959 0.31376 0.15815 0.0
H263 H 0.95094 0.36292 0.13141 0.0
N264 N 0.87175 0.39506 0.09624 0.0
N265 N 0.86389 0.44303 0.07548 0.0
C266 C 0.88315 0.41767 0.07691 0.0
C267 C 0.84447 0.40659 0.10766 0.0
C268 C 0.8395 0.4362 0.09481 0.0
C269 C 0.8506 0.2963 0.09502 0.0
O270 O 0.87735 0.28295 0.10322 0.0
H271 H 0.90376 0.41451 0.06212 0.0
H272 H 0.82829 0.3935 0.12248 0.0
O273 O 0.91752 0.35001 0.06474 0.0
H274 H 0.96409 0.3305 0.18357 0.0
H275 H 0.8189 0.45092 0.09822 0.0
H276 H 0.94058 0.16132 0.4989 0.0
H277 H 0.00659 0.14621 0.42282 0.0
H278 H 0.04988 0.14246 0.46101 0.0
H279 H 0.06911 0.14404 0.51615 0.0
H280 H 0.00292 0.15816 0.59227 0.0
H281 H 0.95962 0.16172 0.55408 0.0
C282 C 0.96447 0.15738 0.4907 0.0
C283 C 0.97033 0.15418 0.45802 0.0
C284 C 0.98922 0.15505 0.51284 0.0
C285 C 1.00137 0.1485 0.44781 0.0
C286 C 0.02617 0.14652 0.46965 0.0
C287 C 0.04523 0.14809 0.52433 0.0
C288 C 0.0393 0.15096 0.55704 0.0
C289 C 0.0204 0.14986 0.50222 0.0
C290 C 0.00811 0.15562 0.56729 0.0
C291 C 0.98336 0.1578 0.54544 0.0
H292 H 0.04156 0.82405 0.47443 0.0
H293 H 0.03925 0.92537 0.4662 0.0
H294 H 0.99875 0.92818 0.50764 0.0
H295 H 0.96362 0.9013 0.54609 0.0
H296 H 0.96387 0.79969 0.55114 0.0
H297 H 0.00552 0.79727 0.5112 0.0
C298 C 0.03233 0.84672 0.48197 0.0
C299 C 0.04353 0.87451 0.46767 0.0
C300 C 0.00862 0.84799 0.50513 0.0
C301 C 0.03092 0.90373 0.477 0.0
C302 C 0.00786 0.9053 0.50067 0.0
C303 C 0.97297 0.87874 0.5384 0.0
C304 C 0.96081 0.85071 0.55146 0.0
C305 C 0.99648 0.87755 0.51489 0.0
C306 C 0.97272 0.82151 0.54116 0.0
C307 C 0.9966 0.82015 0.51845 0.0
H308 H 0.50169 0.93124 0.14263 0.0
H309 H 0.42559 0.99885 0.13804 0.0
H310 H 0.46338 0.04213 0.13843 0.0
H311 H 0.51808 0.06106 0.14052 0.0
H312 H 0.59419 0.99363 0.14651 0.0
H313 H 0.55644 0.95022 0.14518 0.0
C314 C 0.49333 0.95542 0.14194 0.0
C315 C 0.46072 0.96157 0.14022 0.0
C316 C 0.51525 0.98036 0.14241 0.0
C317 C 0.45045 0.99319 0.13887 0.0
C318 C 0.47209 0.01807 0.13933 0.0
C319 C 0.52643 0.03691 0.14182 0.0
C320 C 0.55903 0.03078 0.14359 0.0
C321 C 0.50454 0.01196 0.14117 0.0
C322 C 0.56935 0.99918 0.14471 0.0
C323 C 0.54772 0.97427 0.14414 0.0
H324 H 0.51196 0.93735 0.85541 0.0
H325 H 0.58934 1.0008 0.87387 0.0
H326 H 0.5528 0.0454 0.8761 0.0
H327 H 0.4987 0.06654 0.87228 0.0
H328 H 0.42141 1.00286 0.85426 0.0
H329 H 0.45795 0.95829 0.85229 0.0
C330 C 0.52083 0.96096 0.85973 0.0
C331 C 0.55337 0.96567 0.8644 0.0
C332 C 0.49966 0.9865 0.86106 0.0
C333 C 0.56441 0.9964 0.87053 0.0
C334 C 0.54353 0.02197 0.87161 0.0
C335 C 0.48993 0.04293 0.86772 0.0
C336 C 0.45736 0.03808 0.86339 0.0
C337 C 0.5111 0.01733 0.86681 0.0
C338 C 0.44629 0.00723 0.85801 0.0
C339 C 0.4672 0.98174 0.85672 0.0
H340 H 0.13411 0.43848 0.99805 0.0
H341 H 0.13574 0.50832 0.92352 0.0
H342 H 0.13418 0.55048 0.96277 0.0
H343 H 0.13342 0.56767 0.0182 0.0
H344 H 0.13052 0.49809 0.09291 0.0
H345 H 0.13146 0.45578 0.05364 0.0
C346 C 0.13375 0.46288 0.99031 0.0
C347 C 0.13519 0.47005 0.95771 0.0
C348 C 0.13274 0.48714 0.01309 0.0
C349 C 0.13516 0.50196 0.94834 0.0
C350 C 0.13408 0.52616 0.97082 0.0
C351 C 0.13255 0.54332 0.026 0.0
C352 C 0.13192 0.53625 0.05863 0.0
C353 C 0.13302 0.51905 1.00326 0.0
C354 C 0.13141 0.50436 0.06806 0.0
C355 C 0.13179 0.48009 0.04557 0.0
H356 H 0.89775 0.55151 0.97952 0.0
H357 H 0.79895 0.5417 0.95775 0.0
H358 H 0.79339 0.50185 0.99938 0.0
H359 H 0.81706 0.46845 0.04085 0.0
H360 H 0.91654 0.47524 0.06029 0.0
H361 H 0.92161 0.51762 0.02095 0.0
C362 C 0.87503 0.54075 0.98415 0.0
C363 C 0.84879 0.54948 0.96566 0.0
C364 C 0.87221 0.51732 0.00769 0.0
C365 C 0.81951 0.53511 0.97152 0.0
C366 C 0.81631 0.51244 0.99538 0.0
C367 C 0.83972 0.47956 0.03672 0.0
C368 C 0.86636 0.46905 0.05361 0.0
C369 C 0.84253 0.5032 0.01347 0.0
C370 C 0.89576 0.48306 0.04755 0.0
C371 C 0.89862 0.50722 0.02508 0.0
H372 H 0.24404 0.07738 0.69804 0.0
H373 H 0.18406 0.1347 0.75744 0.0
H374 H 0.2201 0.1275 0.8017 0.0
H375 H 0.26959 0.10685 0.82328 0.0
H376 H 0.33162 0.05251 0.7634 0.0
H377 H 0.29387 0.05674 0.71966 0.0
C378 C 0.23888 0.08855 0.72051 0.0
C379 C 0.21108 0.10648 0.72414 0.0
C380 C 0.26009 0.08479 0.74593 0.0
C381 C 0.20484 0.12034 0.75381 0.0
C382 C 0.22559 0.11639 0.77923 0.0
C383 C 0.27471 0.09555 0.8008 0.0
C384 C 0.30333 0.07923 0.79668 0.0
C385 C 0.25331 0.09876 0.77555 0.0
C386 C 0.30974 0.06516 0.76722 0.0
C387 C 0.28821 0.06766 0.74217 0.0
H388 H 0.73417 0.88206 0.81664 0.0
H389 H 0.68808 0.96295 0.7748 0.0
H390 H 0.72382 0.96039 0.72946 0.0
H391 H 0.76822 0.93497 0.7016 0.0
H392 H 0.81321 0.85357 0.74351 0.0
H393 H 0.77787 0.85661 0.78889 0.0
C394 C 0.73198 0.89928 0.79772 0.0
C395 C 0.70847 0.92271 0.79922 0.0
C396 C 0.75238 0.89751 0.77162 0.0
C397 C 0.70596 0.94468 0.77433 0.0
C398 C 0.72635 0.94319 0.74832 0.0
C399 C 0.77005 0.91772 0.7205 0.0
C400 C 0.79344 0.89415 0.71914 0.0
C401 C 0.74956 0.9196 0.74663 0.0
C402 C 0.79574 0.87222 0.7441 0.0
C403 C 0.77545 0.87386 0.77004 0.0
H404 H 0.23615 0.93533 0.17819 0.0
H405 H 0.32118 0.90663 0.22677 0.0
H406 H 0.29195 0.90151 0.27625 0.0
H407 H 0.2415 0.90145 0.30489 0.0
H408 H 0.15685 0.93133 0.25634 0.0
H409 H 0.18664 0.93935 0.20784 0.0
C410 C 0.24839 0.92825 0.19965 0.0
C411 C 0.28078 0.92115 0.1986 0.0
C412 C 0.23142 0.92515 0.22806 0.0
C413 C 0.29624 0.91218 0.22676 0.0
C414 C 0.27951 0.90913 0.25512 0.0
C415 C 0.2296 0.91015 0.2839 0.0
C416 C 0.19676 0.91518 0.28437 0.0
C417 C 0.24697 0.91501 0.25594 0.0
C418 C 0.18187 0.92638 0.25668 0.0
C419 C 0.19896 0.93124 0.22887 0.0
H420 H 0.68766 0.11305 0.25028 0.0
H421 H 0.75164 0.0666 0.18591 0.0
H422 H 0.79398 0.07057 0.22514 0.0
H423 H 0.81358 0.09017 0.27655 0.0
H424 H 0.74946 0.13707 0.34032 0.0
H425 H 0.70637 0.12978 0.30259 0.0
C426 C 0.71078 0.10349 0.24489 0.0
C427 C 0.71648 0.08972 0.21508 0.0
C428 C 0.73505 0.10612 0.2674 0.0
C429 C 0.74655 0.07728 0.20865 0.0
C430 C 0.77084 0.07971 0.23102 0.0
C431 C 0.7902 0.09886 0.28213 0.0
C432 C 0.78483 0.11439 0.31114 0.0
C433 C 0.76551 0.09463 0.26023 0.0
C434 C 0.75422 0.12489 0.3183 0.0
C435 C 0.72959 0.12086 0.29665 0.0
H436 H 0.71596 0.2325 0.08714 0.0
H437 H 0.76163 0.16756 0.15154 0.0
H438 H 0.81022 0.19765 0.14812 0.0
H439 H 0.84017 0.24202 0.12687 0.0
H440 H 0.79461 0.30941 0.06524 0.0
H441 H 0.74555 0.27891 0.06774 0.0
C442 C 0.73639 0.22511 0.1007 0.0
C443 C 0.73507 0.19739 0.11915 0.0
C444 C 0.7644 0.24289 0.09902 0.0
C445 C 0.76199 0.18824 0.13647 0.0
C446 C 0.78986 0.20556 0.13471 0.0
C447 C 0.81959 0.24993 0.11375 0.0
C448 C 0.82111 0.27768 0.09556 0.0
C449 C 0.79143 0.23271 0.11585 0.0
C450 C 0.79405 0.28799 0.07927 0.0
C451 C 0.766 0.27059 0.08075 0.0
H452 H 0.17604 0.76417 0.07502 0.0
H453 H 0.22302 0.67783 0.10233 0.0
H454 H 0.27265 0.70641 0.10849 0.0
H455 H 0.30186 0.75673 0.10995 0.0
H456 H 0.25447 0.84273 0.08236 0.0
H457 H 0.20599 0.81352 0.0728 0.0
C458 C 0.19718 0.75148 0.08198 0.0
C459 C 0.19565 0.71892 0.0884 0.0
C460 C 0.22559 0.7681 0.08585 0.0
C461 C 0.2234 0.70292 0.09732 0.0
C462 C 0.25183 0.71927 0.10096 0.0
C463 C 0.28107 0.769 0.10143 0.0
C464 C 0.28182 0.80201 0.09743 0.0
C465 C 0.25309 0.75199 0.09586 0.0
C466 C 0.2545 0.8175 0.08647 0.0
C467 C 0.22673 0.80077 0.08075 0.0
H468 H 0.7589 0.68379 0.93265 0.0
H469 H 0.83547 0.74754 0.91145 0.0
H470 H 0.79799 0.79078 0.90438 0.0
H471 H 0.74355 0.80936 0.90025 0.0
H472 H 0.66694 0.7459 0.92274 0.0
H473 H 0.70451 0.70367 0.93273 0.0
C474 C 0.76747 0.70722 0.92683 0.0
C475 C 0.79998 0.71229 0.92241 0.0
C476 C 0.74577 0.73197 0.92253 0.0
C477 C 0.81061 0.74289 0.91506 0.0
C478 C 0.78916 0.76763 0.91082 0.0
C479 C 0.73481 0.78657 0.90776 0.0
C480 C 0.70206 0.78112 0.91024 0.0
C481 C 0.75663 0.76229 0.9139 0.0
C482 C 0.69174 0.75098 0.91987 0.0
C483 C 0.71331 0.7267 0.92585 0.0
H484 H 0.30255 0.24783 0.89137 0.0
H485 H 0.25606 0.16334 0.92416 0.0
H486 H 0.20768 0.19291 0.93319 0.0
H487 H 0.17787 0.2422 0.93023 0.0
H488 H 0.2235 0.32712 0.89714 0.0
H489 H 0.27288 0.29813 0.89024 0.0
C490 C 0.28192 0.23604 0.90079 0.0
C491 C 0.28289 0.20334 0.9067 0.0
C492 C 0.25395 0.25325 0.9059 0.0
C493 C 0.25584 0.18832 0.91874 0.0
C494 C 0.22816 0.20526 0.92412 0.0
C495 C 0.19863 0.25448 0.9217 0.0
C496 C 0.19688 0.28678 0.91416 0.0
C497 C 0.22683 0.23764 0.91747 0.0
C498 C 0.2241 0.30224 0.9031 0.0
C499 C 0.25238 0.28566 0.89909 0.0
H500 H 0.07466 0.83636 0.23683 0.0
H501 H 0.08144 0.78848 0.32695 0.0
H502 H 0.0873 0.7379 0.29988 0.0
H503 H 0.09413 0.70764 0.25057 0.0
H504 H 0.08688 0.75581 0.16064 0.0
H505 H 0.078 0.80569 0.1877 0.0
C506 C 0.07704 0.81485 0.2506 0.0
C507 C 0.07777 0.81636 0.2839 0.0
C508 C 0.0808 0.78581 0.2349 0.0
C509 C 0.08089 0.78813 0.30129 0.0
C510 C 0.08435 0.75914 0.28582 0.0
C511 C 0.09022 0.72894 0.23687 0.0
C512 C 0.09171 0.72781 0.20355 0.0
C513 C 0.08491 0.75775 0.25262 0.0
C514 C 0.08673 0.75586 0.18627 0.0
C515 C 0.08136 0.7845 0.20174 0.0
H516 H 0.09888 0.24915 0.69069 0.0
H517 H 0.08406 0.17251 0.75644 0.0
H518 H 0.08277 0.20998 0.80054 0.0
H519 H 0.088 0.26459 0.82067 0.0
H520 H 0.10136 0.34095 0.75446 0.0
H521 H 0.10099 0.30363 0.71032 0.0
C522 C 0.09516 0.24064 0.71464 0.0
C523 C 0.09174 0.20805 0.72024 0.0
C524 C 0.09433 0.2623 0.73984 0.0
C525 C 0.08666 0.19747 0.75142 0.0
C526 C 0.08609 0.21887 0.77669 0.0
C527 C 0.09087 0.27294 0.79656 0.0
C528 C 0.09488 0.30545 0.79083 0.0
C529 C 0.0903 0.25132 0.77123 0.0
C530 C 0.09804 0.31609 0.75945 0.0
C531 C 0.09796 0.29474 0.73422 0.0
H532 H 0.93585 0.69578 0.76893 0.0
H533 H 0.8607 0.74369 0.81823 0.0
H534 H 0.86659 0.78939 0.78361 0.0
H535 H 0.89228 0.81549 0.73893 0.0
H536 H 0.96657 0.76758 0.68824 0.0
H537 H 0.96185 0.72221 0.72384 0.0
C538 C 0.92058 0.71608 0.77189 0.0
C539 C 0.8979 0.71625 0.79625 0.0
C540 C 0.92405 0.74239 0.75178 0.0
C541 C 0.87861 0.74303 0.8 0.0
C542 C 0.88189 0.76917 0.78013 0.0
C543 C 0.90768 0.79527 0.73577 0.0
C544 C 0.92982 0.79504 0.71094 0.0
C545 C 0.90454 0.76913 0.75599 0.0
C546 C 0.94936 0.76846 0.70715 0.0
C547 C 0.9466 0.74244 0.72745 0.0
H548 H 0.89379 0.19773 0.26892 0.0
H549 H 0.97127 0.24072 0.31947 0.0
H550 H 0.97266 0.28373 0.28096 0.0
H551 H 0.9516 0.30953 0.23322 0.0
H552 H 0.87479 0.26585 0.18219 0.0
H553 H 0.87306 0.22333 0.22092 0.0
C554 C 0.91111 0.21641 0.27147 0.0
C555 C 0.93244 0.21584 0.2971 0.0
C556 C 0.91169 0.24126 0.24931 0.0
C557 C 0.95458 0.24042 0.30001 0.0
C558 C 0.95536 0.26513 0.27801 0.0
C559 C 0.93458 0.29067 0.23041 0.0
C560 C 0.91332 0.29125 0.20468 0.0
C561 C 0.93397 0.26585 0.2526 0.0
C562 C 0.89114 0.26663 0.20187 0.0
C563 C 0.8903 0.24199 0.22393 0.0
H564 H 0.99041 0.06445 0.68239 0.0
H565 H 0.08429 0.02545 0.67588 0.0
H566 H 0.06258 0.97213 0.67479 0.0
H567 H 0.01684 0.93652 0.67355 0.0
H568 H 0.92297 0.97574 0.67905 0.0
H569 H 0.94482 0.02882 0.68275 0.0
C570 C 0.00615 0.0443 0.68096 0.0
C571 C 0.03891 0.04903 0.67912 0.0
C572 C 0.99352 0.01364 0.68003 0.0
C573 C 0.05894 0.02258 0.67721 0.0
C574 C 0.04656 0.99202 0.67657 0.0
C575 C 1.00116 0.95665 0.67575 0.0
C576 C 0.96832 0.95207 0.67589 0.0
C577 C 0.01387 0.98726 0.67762 0.0
C578 C 0.94837 0.9785 0.67873 0.0
C579 C 0.96082 0.00894 0.68086 0.0
H580 H 0.00929 0.07154 0.32294 0.0
H581 H 0.91593 0.03665 0.34374 0.0
H582 H 0.93592 0.98267 0.34516 0.0
H583 H 0.98047 0.94549 0.34363 0.0
H584 H 0.07388 0.98061 0.32334 0.0
H585 H 0.05323 0.03408 0.31842 0.0
C586 C 0.99325 0.05214 0.32753 0.0
C587 C 0.96121 0.05828 0.33344 0.0
C588 C 0.00492 0.02106 0.32855 0.0
C589 C 0.94077 0.03273 0.33925 0.0
C590 C 0.95217 1.00177 0.34011 0.0
C591 C 0.99626 0.96478 0.33783 0.0
C592 C 0.02871 0.95896 0.33412 0.0
C593 C 0.98429 0.99568 0.33527 0.0
C594 C 0.0488 0.98432 0.32655 0.0
C595 C 0.03704 0.01501 0.32374 0.0
H596 H 0.68416 0.00755 0.9404 0.0
H597 H 0.68165 0.91342 0.97977 0.0
H598 H 0.68588 0.93499 0.03314 0.0
H599 H 0.68701 0.98061 0.06893 0.0
H600 H 0.68816 0.07482 0.02971 0.0
H601 H 0.688 0.05315 0.97618 0.0
C602 C 0.68484 0.99174 0.96063 0.0
C603 C 0.68238 0.95894 0.95603 0.0
C604 C 0.68691 0.0043 0.99139 0.0
C605 C 0.68329 0.9388 0.98256 0.0
C606 C 0.68571 0.95109 0.01316 0.0
C607 C 0.68756 0.99641 0.04869 0.0
C608 C 0.68741 0.02928 0.0534 0.0
C609 C 0.68704 0.98382 0.0179 0.0
C610 C 0.68809 0.04939 0.02684 0.0
C611 C 0.68797 0.03704 0.99616 0.0
H612 H 0.33589 0.01817 0.07273 0.0
H613 H 0.31731 0.92524 0.035 0.0
H614 H 0.31385 0.94697 0.98162 0.0
H615 H 0.31962 0.99172 0.94508 0.0
H616 H 0.33917 0.08452 0.98269 0.0
H617 H 0.33855 0.06348 0.03645 0.0
C618 C 0.3307 1.00273 0.05289 0.0
C619 C 0.32711 0.97011 0.05791 0.0
C620 C 0.32914 0.0153 0.02208 0.0
C621 C 0.32042 0.95044 0.03186 0.0
C622 C 0.31846 0.96282 1.00125 0.0
C623 C 0.32349 0.0074 0.96503 0.0
C624 C 0.32969 0.03959 0.95974 0.0
C625 C 0.32338 0.99512 0.99599 0.0
C626 C 0.33455 0.05957 0.98596 0.0
C627 C 0.33421 0.04758 0.01679 0.0
H628 H 0.94549 0.68934 0.012 0.0
H629 H 0.98085 0.65348 0.92312 0.0
H630 H 0.03408 0.65132 0.94496 0.0
H631 H 0.07025 0.65679 0.99023 0.0
H632 H 0.03453 0.69165 0.07936 0.0
H633 H 0.98206 0.69728 0.05637 0.0
C634 C 0.96485 0.68123 0.99733 0.0
C635 C 0.95906 0.6714 0.96605 0.0
C636 C 0.99545 0.67982 0.01009 0.0
C637 C 0.98452 0.66106 0.94736 0.0
C638 C 0.01504 0.65981 0.95981 0.0
C639 C 0.05108 0.66599 1.0045 0.0
C640 C 0.05632 0.6736 0.0365 0.0
C641 C 0.02074 0.66876 0.99127 0.0
C642 C 0.03114 0.68539 0.05469 0.0
C643 C 1.00107 0.68859 0.0416 0.0
H644 H 0.04551 0.3649 0.96652 0.0
H645 H 0.04791 0.26411 0.95218 0.0
H646 H 0.00554 0.25727 0.99104 0.0
H647 H 0.96751 0.28031 0.02892 0.0
H648 H 0.96283 0.3816 0.03942 0.0
H649 H 0.00629 0.38793 1.00218 0.0
C650 C 0.03686 0.34142 0.97206 0.0
C651 C 0.04994 0.31501 0.95683 0.0
C652 C 0.012 0.33781 0.99362 0.0
C653 C 0.03817 0.28478 0.9637 0.0
C654 C 0.01399 0.28088 0.9859 0.0
C655 C 0.97607 0.30371 0.023 0.0
C656 C 0.96208 0.33042 0.03695 0.0
C657 C 1.00067 0.30726 1.00096 0.0
C658 C 0.97311 0.36067 0.02887 0.0
C659 C 0.99804 0.36432 0.00767 0.0
loop_
_geom_bond_atom_site_label_1
_geom_bond_atom_site_label_2
_geom_bond_distance
_geom_bond_site_symmetry_2
_ccdc_geom_bond_type
Cu0 N1 1.999 . S
Cu0 O6 1.974 . S
Cu0 N11 1.985 . S
Cu0 O20 1.959 . S
N1 Cu0 1.999 . S
N1 C3 1.263 . S
N1 C5 1.389 . S
N2 C3 1.358 . S
N2 C4 1.400 . S
C3 N1 1.263 . S
C3 N2 1.358 . S
C3 H9 0.930 . S
C4 N2 1.400 . S
C4 C5 1.351 . S
C4 H21 0.930 . S
C5 N1 1.389 . S
C5 C4 1.351 . S
C5 H10 0.930 . S
O6 Cu0 1.974 . S
O6 C16 1.282 . S
C7 O8 1.261 . S
C7 O20 1.251 . S
O8 C7 1.261 . S
H9 C3 0.930 . S
H10 C5 0.930 . S
N11 Cu0 1.985 . S
N11 C13 1.335 . S
N11 C14 1.390 . S
N12 C13 1.345 . S
N12 C15 1.336 . S
C13 N11 1.335 . S
C13 N12 1.345 . S
C13 H18 0.930 . S
C14 N11 1.390 . S
C14 C15 1.346 . S
C14 H19 0.930 . S
C15 N12 1.336 . S
C15 C14 1.346 . S
C15 H22 0.929 . S
C16 O6 1.282 . S
C16 O17 1.216 . S
O17 C16 1.216 . S
H18 C13 0.930 . S
H19 C14 0.930 . S
O20 Cu0 1.959 . S
O20 C7 1.251 . S
H21 C4 0.930 . S
H22 C15 0.929 . S
Cu23 N24 1.999 . S
Cu23 O29 1.974 . S
Cu23 N34 1.985 . S
Cu23 O43 1.959 . S
N24 Cu23 1.999 . S
N24 C26 1.263 . S
N24 C28 1.389 . S
N25 C26 1.358 . S
N25 C27 1.400 . S
C26 N24 1.263 . S
C26 N25 1.358 . S
C26 H32 0.930 . S
C27 N25 1.400 . S
C27 C28 1.351 . S
C27 H44 0.930 . S
C28 N24 1.389 . S
C28 C27 1.351 . S
C28 H33 0.930 . S
O29 Cu23 1.974 . S
O29 C39 1.282 . S
C30 O31 1.261 . S
C30 O43 1.251 . S
O31 C30 1.261 . S
H32 C26 0.930 . S
H33 C28 0.930 . S
N34 Cu23 1.985 . S
N34 C36 1.335 . S
N34 C37 1.390 . S
N35 C36 1.345 . S
N35 C38 1.336 . S
C36 N34 1.335 . S
C36 N35 1.345 . S
C36 H41 0.930 . S
C37 N34 1.390 . S
C37 C38 1.346 . S
C37 H42 0.930 . S
C38 N35 1.336 . S
C38 C37 1.346 . S
C38 H45 0.929 . S
C39 O29 1.282 . S
C39 O40 1.216 . S
O40 C39 1.216 . S
H41 C36 0.930 . S
H42 C37 0.930 . S
O43 Cu23 1.959 . S
O43 C30 1.251 . S
H44 C27 0.930 . S
H45 C38 0.929 . S
Cu46 N47 1.999 . S
Cu46 O52 1.974 . S
Cu46 N57 1.985 . S
Cu46 O66 1.959 . S
N47 Cu46 1.999 . S
N47 C49 1.263 . S
N47 C51 1.389 . S
N48 C49 1.358 . S
N48 C50 1.400 . S
C49 N47 1.263 . S
C49 N48 1.358 . S
C49 H55 0.930 . S
C50 N48 1.400 . S
C50 C51 1.351 . S
C50 H67 0.930 . S
C51 N47 1.389 . S
C51 C50 1.351 . S
C51 H56 0.930 . S
O52 Cu46 1.974 . S
O52 C62 1.282 . S
C53 O54 1.261 . S
C53 O66 1.251 . S
O54 C53 1.261 . S
H55 C49 0.930 . S
H56 C51 0.930 . S
N57 Cu46 1.985 . S
N57 C59 1.335 . S
N57 C60 1.390 . S
N58 C59 1.345 . S
N58 C61 1.336 . S
C59 N57 1.335 . S
C59 N58 1.345 . S
C59 H64 0.930 . S
C60 N57 1.390 . S
C60 C61 1.346 . S
C60 H65 0.930 . S
C61 N58 1.336 . S
C61 C60 1.346 . S
C61 H68 0.929 . S
C62 O52 1.282 . S
C62 O63 1.216 . S
O63 C62 1.216 . S
H64 C59 0.930 . S
H65 C60 0.930 . S
O66 Cu46 1.959 . S
O66 C53 1.251 . S
H67 C50 0.930 . S
H68 C61 0.929 . S
Cu69 N70 1.999 . S
Cu69 O75 1.974 . S
Cu69 N80 1.985 . S
Cu69 O89 1.959 . S
N70 Cu69 1.999 . S
N70 C72 1.263 . S
N70 C74 1.389 . S
N71 C72 1.358 . S
N71 C73 1.400 . S
C72 N70 1.263 . S
C72 N71 1.358 . S
C72 H78 0.930 . S
C73 N71 1.400 . S
C73 C74 1.351 . S
C73 H90 0.930 . S
C74 N70 1.389 . S
C74 C73 1.351 . S
C74 H79 0.930 . S
O75 Cu69 1.974 . S
O75 C85 1.282 . S
C76 O77 1.261 . S
C76 O89 1.251 . S
O77 C76 1.261 . S
H78 C72 0.930 . S
H79 C74 0.930 . S
N80 Cu69 1.985 . S
N80 C82 1.335 . S
N80 C83 1.390 . S
N81 C82 1.345 . S
N81 C84 1.336 . S
C82 N80 1.335 . S
C82 N81 1.345 . S
C82 H87 0.930 . S
C83 N80 1.390 . S
C83 C84 1.346 . S
C83 H88 0.930 . S
C84 N81 1.336 . S
C84 C83 1.346 . S
C84 H91 0.929 . S
C85 O75 1.282 . S
C85 O86 1.216 . S
O86 C85 1.216 . S
H87 C82 0.930 . S
H88 C83 0.930 . S
O89 Cu69 1.959 . S
O89 C76 1.251 . S
H90 C73 0.930 . S
H91 C84 0.929 . S
Cu92 N93 1.999 . S
Cu92 O98 1.974 . S
Cu92 N103 1.985 . S
Cu92 O112 1.959 . S
N93 Cu92 1.999 . S
N93 C95 1.263 . S
N93 C97 1.389 . S
N94 C95 1.358 . S
N94 C96 1.400 . S
C95 N93 1.263 . S
C95 N94 1.358 . S
C95 H101 0.930 . S
C96 N94 1.400 . S
C96 C97 1.351 . S
C96 H113 0.930 . S
C97 N93 1.389 . S
C97 C96 1.351 . S
C97 H102 0.930 . S
O98 Cu92 1.974 . S
O98 C108 1.282 . S
C99 O100 1.261 . S
C99 O112 1.251 . S
O100 C99 1.261 . S
H101 C95 0.930 . S
H102 C97 0.930 . S
N103 Cu92 1.985 . S
N103 C105 1.335 . S
N103 C106 1.390 . S
N104 C105 1.345 . S
N104 C107 1.336 . S
C105 N103 1.335 . S
C105 N104 1.345 . S
C105 H110 0.930 . S
C106 N103 1.390 . S
C106 C107 1.346 . S
C106 H111 0.930 . S
C107 N104 1.336 . S
C107 C106 1.346 . S
C107 H114 0.929 . S
C108 O98 1.282 . S
C108 O109 1.216 . S
O109 C108 1.216 . S
H110 C105 0.930 . S
H111 C106 0.930 . S
O112 Cu92 1.959 . S
O112 C99 1.251 . S
H113 C96 0.930 . S
H114 C107 0.929 . S
Cu115 N116 1.999 . S
Cu115 O121 1.974 . S
Cu115 N126 1.985 . S
Cu115 O135 1.959 . S
N116 Cu115 1.999 . S
N116 C118 1.263 . S
N116 C120 1.389 . S
N117 C118 1.358 . S
N117 C119 1.400 . S
C118 N116 1.263 . S
C118 N117 1.358 . S
C118 H124 0.930 . S
C119 N117 1.400 . S
C119 C120 1.351 . S
C119 H136 0.930 . S
C120 N116 1.389 . S
C120 C119 1.351 . S
C120 H125 0.930 . S
O121 Cu115 1.974 . S
O121 C131 1.282 . S
C122 O123 1.261 . S
C122 O135 1.251 . S
O123 C122 1.261 . S
H124 C118 0.930 . S
H125 C120 0.930 . S
N126 Cu115 1.985 . S
N126 C128 1.335 . S
N126 C129 1.390 . S
N127 C128 1.345 . S
N127 C130 1.336 . S
C128 N126 1.335 . S
C128 N127 1.345 . S
C128 H133 0.930 . S
C129 N126 1.390 . S
C129 C130 1.346 . S
C129 H134 0.930 . S
C130 N127 1.336 . S
C130 C129 1.346 . S
C130 H137 0.929 . S
C131 O121 1.282 . S
C131 O132 1.216 . S
O132 C131 1.216 . S
H133 C128 0.930 . S
H134 C129 0.930 . S
O135 Cu115 1.959 . S
O135 C122 1.251 . S
H136 C119 0.930 . S
H137 C130 0.929 . S
Cu138 N139 1.999 . S
Cu138 O144 1.974 . S
Cu138 N149 1.985 . S
Cu138 O158 1.959 . S
N139 Cu138 1.999 . S
N139 C141 1.263 . S
N139 C143 1.389 . S
N140 C141 1.358 . S
N140 C142 1.400 . S
C141 N139 1.263 . S
C141 N140 1.358 . S
C141 H147 0.930 . S
C142 N140 1.400 . S
C142 C143 1.351 . S
C142 H159 0.930 . S
C143 N139 1.389 . S
C143 C142 1.351 . S
C143 H148 0.930 . S
O144 Cu138 1.974 . S
O144 C154 1.282 . S
C145 O146 1.261 . S
C145 O158 1.251 . S
O146 C145 1.261 . S
H147 C141 0.930 . S
H148 C143 0.930 . S
N149 Cu138 1.985 . S
N149 C151 1.335 . S
N149 C152 1.390 . S
N150 C151 1.345 . S
N150 C153 1.336 . S
C151 N149 1.335 . S
C151 N150 1.345 . S
C151 H156 0.930 . S
C152 N149 1.390 . S
C152 C153 1.346 . S
C152 H157 0.930 . S
C153 N150 1.336 . S
C153 C152 1.346 . S
C153 H160 0.929 . S
C154 O144 1.282 . S
C154 O155 1.216 . S
O155 C154 1.216 . S
H156 C151 0.930 . S
H157 C152 0.930 . S
O158 Cu138 1.959 . S
O158 C145 1.251 . S
H159 C142 0.930 . S
H160 C153 0.929 . S
Cu161 N162 1.999 . S
Cu161 O167 1.974 . S
Cu161 N172 1.985 . S
Cu161 O181 1.959 . S
N162 Cu161 1.999 . S
N162 C164 1.263 . S
N162 C166 1.389 . S
N163 C164 1.358 . S
N163 C165 1.400 . S
C164 N162 1.263 . S
C164 N163 1.358 . S
C164 H170 0.930 . S
C165 N163 1.400 . S
C165 C166 1.351 . S
C165 H182 0.930 . S
C166 N162 1.389 . S
C166 C165 1.351 . S
C166 H171 0.930 . S
O167 Cu161 1.974 . S
O167 C177 1.282 . S
C168 O169 1.261 . S
C168 O181 1.251 . S
O169 C168 1.261 . S
H170 C164 0.930 . S
H171 C166 0.930 . S
N172 Cu161 1.985 . S
N172 C174 1.335 . S
N172 C175 1.390 . S
N173 C174 1.345 . S
N173 C176 1.336 . S
C174 N172 1.335 . S
C174 N173 1.345 . S
C174 H179 0.930 . S
C175 N172 1.390 . S
C175 C176 1.346 . S
C175 H180 0.930 . S
C176 N173 1.336 . S
C176 C175 1.346 . S
C176 H183 0.929 . S
C177 O167 1.282 . S
C177 O178 1.216 . S
O178 C177 1.216 . S
H179 C174 0.930 . S
H180 C175 0.930 . S
O181 Cu161 1.959 . S
O181 C168 1.251 . S
H182 C165 0.930 . S
H183 C176 0.929 . S
Cu184 N185 1.999 . S
Cu184 O190 1.974 . S
Cu184 N195 1.985 . S
Cu184 O204 1.959 . S
N185 Cu184 1.999 . S
N185 C187 1.263 . S
N185 C189 1.389 . S
N186 C187 1.358 . S
N186 C188 1.400 . S
C187 N185 1.263 . S
C187 N186 1.358 . S
C187 H193 0.930 . S
C188 N186 1.400 . S
C188 C189 1.351 . S
C188 H205 0.930 . S
C189 N185 1.389 . S
C189 C188 1.351 . S
C189 H194 0.930 . S
O190 Cu184 1.974 . S
O190 C200 1.282 . S
C191 O192 1.261 . S
C191 O204 1.251 . S
O192 C191 1.261 . S
H193 C187 0.930 . S
H194 C189 0.930 . S
N195 Cu184 1.985 . S
N195 C197 1.335 . S
N195 C198 1.390 . S
N196 C197 1.345 . S
N196 C199 1.336 . S
C197 N195 1.335 . S
C197 N196 1.345 . S
C197 H202 0.930 . S
C198 N195 1.390 . S
C198 C199 1.346 . S
C198 H203 0.930 . S
C199 N196 1.336 . S
C199 C198 1.346 . S
C199 H206 0.929 . S
C200 O190 1.282 . S
C200 O201 1.216 . S
O201 C200 1.216 . S
H202 C197 0.930 . S
H203 C198 0.930 . S
O204 Cu184 1.959 . S
O204 C191 1.251 . S
H205 C188 0.930 . S
H206 C199 0.929 . S
Cu207 N208 1.999 . S
Cu207 O213 1.974 . S
Cu207 N218 1.985 . S
Cu207 O227 1.959 . S
N208 Cu207 1.999 . S
N208 C210 1.263 . S
N208 C212 1.389 . S
N209 C210 1.358 . S
N209 C211 1.400 . S
C210 N208 1.263 . S
C210 N209 1.358 . S
C210 H216 0.930 . S
C211 N209 1.400 . S
C211 C212 1.351 . S
C211 H228 0.930 . S
C212 N208 1.389 . S
C212 C211 1.351 . S
C212 H217 0.930 . S
O213 Cu207 1.974 . S
O213 C223 1.282 . S
C214 O215 1.261 . S
C214 O227 1.251 . S
O215 C214 1.261 . S
H216 C210 0.930 . S
H217 C212 0.930 . S
N218 Cu207 1.985 . S
N218 C220 1.335 . S
N218 C221 1.390 . S
N219 C220 1.345 . S
N219 C222 1.336 . S
C220 N218 1.335 . S
C220 N219 1.345 . S
C220 H225 0.930 . S
C221 N218 1.390 . S
C221 C222 1.346 . S
C221 H226 0.930 . S
C222 N219 1.336 . S
C222 C221 1.346 . S
C222 H229 0.929 . S
C223 O213 1.282 . S
C223 O224 1.216 . S
O224 C223 1.216 . S
H225 C220 0.930 . S
H226 C221 0.930 . S
O227 Cu207 1.959 . S
O227 C214 1.251 . S
H228 C211 0.930 . S
H229 C222 0.929 . S
Cu230 N231 1.999 . S
Cu230 O236 1.974 . S
Cu230 N241 1.985 . S
Cu230 O250 1.959 . S
N231 Cu230 1.999 . S
N231 C233 1.263 . S
N231 C235 1.389 . S
N232 C233 1.358 . S
N232 C234 1.400 . S
C233 N231 1.263 . S
C233 N232 1.358 . S
C233 H239 0.930 . S
C234 N232 1.400 . S
C234 C235 1.351 . S
C234 H251 0.930 . S
C235 N231 1.389 . S
C235 C234 1.351 . S
C235 H240 0.930 . S
O236 Cu230 1.974 . S
O236 C246 1.282 . S
C237 O238 1.261 . S
C237 O250 1.251 . S
O238 C237 1.261 . S
H239 C233 0.930 . S
H240 C235 0.930 . S
N241 Cu230 1.985 . S
N241 C243 1.335 . S
N241 C244 1.390 . S
N242 C243 1.345 . S
N242 C245 1.336 . S
C243 N241 1.335 . S
C243 N242 1.345 . S
C243 H248 0.930 . S
C244 N241 1.390 . S
C244 C245 1.346 . S
C244 H249 0.930 . S
C245 N242 1.336 . S
C245 C244 1.346 . S
C245 H252 0.929 . S
C246 O236 1.282 . S
C246 O247 1.216 . S
O247 C246 1.216 . S
H248 C243 0.930 . S
H249 C244 0.930 . S
O250 Cu230 1.959 . S
O250 C237 1.251 . S
H251 C234 0.930 . S
H252 C245 0.929 . S
Cu253 N254 1.999 . S
Cu253 O259 1.974 . S
Cu253 N264 1.985 . S
Cu253 O273 1.959 . S
N254 Cu253 1.999 . S
N254 C256 1.263 . S
N254 C258 1.389 . S
N255 C256 1.358 . S
N255 C257 1.400 . S
C256 N254 1.263 . S
C256 N255 1.358 . S
C256 H262 0.930 . S
C257 N255 1.400 . S
C257 C258 1.351 . S
C257 H274 0.930 . S
C258 N254 1.389 . S
C258 C257 1.351 . S
C258 H263 0.930 . S
O259 Cu253 1.974 . S
O259 C269 1.282 . S
C260 O261 1.261 . S
C260 O273 1.251 . S
O261 C260 1.261 . S
H262 C256 0.930 . S
H263 C258 0.930 . S
N264 Cu253 1.985 . S
N264 C266 1.335 . S
N264 C267 1.390 . S
N265 C266 1.345 . S
N265 C268 1.336 . S
C266 N264 1.335 . S
C266 N265 1.345 . S
C266 H271 0.930 . S
C267 N264 1.390 . S
C267 C268 1.346 . S
C267 H272 0.930 . S
C268 N265 1.336 . S
C268 C267 1.346 . S
C268 H275 0.929 . S
C269 O259 1.282 . S
C269 O270 1.216 . S
O270 C269 1.216 . S
H271 C266 0.930 . S
H272 C267 0.930 . S
O273 Cu253 1.959 . S
O273 C260 1.251 . S
H274 C257 0.930 . S
H275 C268 0.929 . S
H276 C282 0.930 . S
H277 C285 0.930 . S
H278 C286 0.930 . S
H279 C287 0.930 . S
H280 C290 0.930 . S
H281 C291 0.930 . S
C282 H276 0.930 . S
C282 C283 1.355 . S
C282 C284 1.415 . S
C283 C282 1.355 . S
C283 C285 1.419 1_655 S
C284 C282 1.415 . S
C284 C289 1.425 1_655 S
C284 C291 1.409 . S
C285 H277 0.930 . S
C285 C283 1.419 1_455 S
C285 C286 1.362 . S
C286 H278 0.930 . S
C286 C285 1.362 . S
C286 C289 1.409 . S
C287 H279 0.930 . S
C287 C288 1.355 . S
C287 C289 1.415 . S
C288 C287 1.355 . S
C288 C290 1.419 1_455 S
C289 C284 1.425 1_455 S
C289 C286 1.409 . S
C289 C287 1.415 . S
C290 H280 0.930 . S
C290 C288 1.419 1_655 S
C290 C291 1.362 . S
C291 H281 0.930 . S
C291 C284 1.409 . S
C291 C290 1.362 . S
H292 C298 0.930 . S
H293 C301 0.930 . S
H294 C302 0.930 . S
H295 C303 0.930 . S
H296 C306 0.930 . S
H297 C307 0.930 . S
C298 H292 0.930 . S
C298 C299 1.355 . S
C298 C300 1.415 1_455 S
C299 C298 1.355 . S
C299 C301 1.419 . S
C300 C298 1.415 1_655 S
C300 C305 1.425 1_655 S
C300 C307 1.409 . S
C301 H293 0.930 . S
C301 C299 1.419 . S
C301 C302 1.362 . S
C302 H294 0.930 . S
C302 C301 1.362 . S
C302 C305 1.409 . S
C303 H295 0.930 . S
C303 C304 1.355 . S
C303 C305 1.415 1_655 S
C304 C303 1.355 . S
C304 C306 1.419 . S
C305 C300 1.425 1_455 S
C305 C302 1.409 . S
C305 C303 1.415 1_455 S
C306 H296 0.930 . S
C306 C304 1.419 . S
C306 C307 1.362 . S
C307 H297 0.930 . S
C307 C300 1.409 . S
C307 C306 1.362 . S
H308 C314 0.930 . S
H309 C317 0.930 . S
H310 C318 0.930 . S
H311 C319 0.930 . S
H312 C322 0.930 . S
H313 C323 0.930 . S
C314 H308 0.930 . S
C314 C315 1.355 . S
C314 C316 1.415 . S
C315 C314 1.355 . S
C315 C317 1.419 1_565 S
C316 C314 1.415 . S
C316 C321 1.425 1_565 S
C316 C323 1.409 . S
C317 H309 0.930 . S
C317 C315 1.419 1_545 S
C317 C318 1.362 . S
C318 H310 0.930 . S
C318 C317 1.362 . S
C318 C321 1.409 . S
C319 H311 0.930 . S
C319 C320 1.355 . S
C319 C321 1.415 . S
C320 C319 1.355 . S
C320 C322 1.419 1_545 S
C321 C316 1.425 1_545 S
C321 C318 1.409 . S
C321 C319 1.415 . S
C322 H312 0.930 . S
C322 C320 1.419 1_565 S
C322 C323 1.362 . S
C323 H313 0.930 . S
C323 C316 1.409 . S
C323 C322 1.362 . S
H324 C330 0.930 . S
H325 C333 0.930 . S
H326 C334 0.930 . S
H327 C335 0.930 . S
H328 C338 0.930 . S
H329 C339 0.930 . S
C330 H324 0.930 . S
C330 C331 1.355 . S
C330 C332 1.415 . S
C331 C330 1.355 . S
C331 C333 1.419 1_565 S
C332 C330 1.415 . S
C332 C337 1.425 1_565 S
C332 C339 1.409 . S
C333 H325 0.930 . S
C333 C331 1.419 1_545 S
C333 C334 1.362 . S
C334 H326 0.930 . S
C334 C333 1.362 . S
C334 C337 1.409 . S
C335 H327 0.930 . S
C335 C336 1.355 . S
C335 C337 1.415 . S
C336 C335 1.355 . S
C336 C338 1.419 1_545 S
C337 C332 1.425 1_545 S
C337 C334 1.409 . S
C337 C335 1.415 . S
C338 H328 0.930 . S
C338 C336 1.419 1_565 S
C338 C339 1.362 . S
C339 H329 0.930 . S
C339 C332 1.409 . S
C339 C338 1.362 . S
H340 C346 0.928 . S
H341 C349 0.930 . S
H342 C350 0.930 . S
H343 C351 0.928 . S
H344 C354 0.930 . S
H345 C355 0.930 . S
C346 H340 0.928 . S
C346 C347 1.357 1_554 S
C346 C348 1.414 . S
C347 C346 1.357 1_556 S
C347 C349 1.419 . S
C348 C346 1.414 . S
C348 C353 1.425 1_554 S
C348 C355 1.409 . S
C349 H341 0.930 . S
C349 C347 1.419 . S
C349 C350 1.362 . S
C350 H342 0.930 . S
C350 C349 1.362 . S
C350 C353 1.409 . S
C351 H343 0.928 . S
C351 C352 1.357 1_556 S
C351 C353 1.414 . S
C352 C351 1.357 1_554 S
C352 C354 1.419 . S
C353 C348 1.425 1_556 S
C353 C350 1.409 . S
C353 C351 1.414 . S
C354 H344 0.930 . S
C354 C352 1.419 . S
C354 C355 1.362 . S
C355 H345 0.930 . S
C355 C348 1.409 . S
C355 C354 1.362 . S
H356 C362 0.930 . S
H357 C365 0.930 . S
H358 C366 0.930 . S
H359 C367 0.930 . S
H360 C370 0.930 . S
H361 C371 0.930 . S
C362 H356 0.930 . S
C362 C363 1.355 . S
C362 C364 1.415 . S
C363 C362 1.355 . S
C363 C365 1.419 . S
C364 C362 1.415 . S
C364 C369 1.425 1_556 S
C364 C371 1.409 1_556 S
C365 H357 0.930 . S
C365 C363 1.419 . S
C365 C366 1.362 . S
C366 H358 0.930 . S
C366 C365 1.362 . S
C366 C369 1.409 1_556 S
C367 H359 0.930 . S
C367 C368 1.355 . S
C367 C369 1.415 . S
C368 C367 1.355 . S
C368 C370 1.419 . S
C369 C364 1.425 1_554 S
C369 C366 1.409 1_554 S
C369 C367 1.415 . S
C370 H360 0.930 . S
C370 C368 1.419 . S
C370 C371 1.362 . S
C371 H361 0.930 . S
C371 C364 1.409 1_554 S
C371 C370 1.362 . S
H372 C378 0.930 . S
H373 C381 0.930 . S
H374 C382 0.930 . S
H375 C383 0.930 . S
H376 C386 0.930 . S
H377 C387 0.930 . S
C378 H372 0.930 . S
C378 C379 1.355 . S
C378 C380 1.415 . S
C379 C378 1.355 . S
C379 C381 1.419 . S
C380 C378 1.415 . S
C380 C385 1.425 . S
C380 C387 1.409 . S
C381 H373 0.930 . S
C381 C379 1.419 . S
C381 C382 1.362 . S
C382 H374 0.930 . S
C382 C381 1.362 . S
C382 C385 1.409 . S
C383 H375 0.930 . S
C383 C384 1.355 . S
C383 C385 1.415 . S
C384 C383 1.355 . S
C384 C386 1.419 . S
C385 C380 1.425 . S
C385 C382 1.409 . S
C385 C383 1.415 . S
C386 H376 0.930 . S
C386 C384 1.419 . S
C386 C387 1.362 . S
C387 H377 0.930 . S
C387 C380 1.409 . S
C387 C386 1.362 . S
H388 C394 0.930 . S
H389 C397 0.930 . S
H390 C398 0.930 . S
H391 C399 0.930 . S
H392 C402 0.930 . S
H393 C403 0.930 . S
C394 H388 0.930 . S
C394 C395 1.355 . S
C394 C396 1.415 . S
C395 C394 1.355 . S
C395 C397 1.419 . S
C396 C394 1.415 . S
C396 C401 1.425 . S
C396 C403 1.409 . S
C397 H389 0.930 . S
C397 C395 1.419 . S
C397 C398 1.362 . S
C398 H390 0.930 . S
C398 C397 1.362 . S
C398 C401 1.409 . S
C399 H391 0.930 . S
C399 C400 1.355 . S
C399 C401 1.415 . S
C400 C399 1.355 . S
C400 C402 1.419 . S
C401 C396 1.425 . S
C401 C398 1.409 . S
C401 C399 1.415 . S
C402 H392 0.930 . S
C402 C400 1.419 . S
C402 C403 1.362 . S
C403 H393 0.930 . S
C403 C396 1.409 . S
C403 C402 1.362 . S
H404 C410 0.930 . S
H405 C413 0.930 . S
H406 C414 0.930 . S
H407 C415 0.930 . S
H408 C418 0.930 . S
H409 C419 0.930 . S
C410 H404 0.930 . S
C410 C411 1.355 . S
C410 C412 1.415 . S
C411 C410 1.355 . S
C411 C413 1.419 . S
C412 C410 1.415 . S
C412 C417 1.425 . S
C412 C419 1.409 . S
C413 H405 0.930 . S
C413 C411 1.419 . S
C413 C414 1.362 . S
C414 H406 0.930 . S
C414 C413 1.362 . S
C414 C417 1.409 . S
C415 H407 0.930 . S
C415 C416 1.355 . S
C415 C417 1.415 . S
C416 C415 1.355 . S
C416 C418 1.419 . S
C417 C412 1.425 . S
C417 C414 1.409 . S
C417 C415 1.415 . S
C418 H408 0.930 . S
C418 C416 1.419 . S
C418 C419 1.362 . S
C419 H409 0.930 . S
C419 C412 1.409 . S
C419 C418 1.362 . S
H420 C426 0.930 . S
H421 C429 0.930 . S
H422 C430 0.930 . S
H423 C431 0.930 . S
H424 C434 0.930 . S
H425 C435 0.930 . S
C426 H420 0.930 . S
C426 C427 1.355 . S
C426 C428 1.415 . S
C427 C426 1.355 . S
C427 C429 1.419 . S
C428 C426 1.415 . S
C428 C433 1.425 . S
C428 C435 1.409 . S
C429 H421 0.930 . S
C429 C427 1.419 . S
C429 C430 1.362 . S
C430 H422 0.930 . S
C430 C429 1.362 . S
C430 C433 1.409 . S
C431 H423 0.930 . S
C431 C432 1.355 . S
C431 C433 1.415 . S
C432 C431 1.355 . S
C432 C434 1.419 . S
C433 C428 1.425 . S
C433 C430 1.409 . S
C433 C431 1.415 . S
C434 H424 0.930 . S
C434 C432 1.419 . S
C434 C435 1.362 . S
C435 H425 0.930 . S
C435 C428 1.409 . S
C435 C434 1.362 . S
H436 C442 0.930 . S
H437 C445 0.930 . S
H438 C446 0.930 . S
H439 C447 0.930 . S
H440 C450 0.930 . S
H441 C451 0.930 . S
C442 H436 0.930 . S
C442 C443 1.355 . S
C442 C444 1.415 . S
C443 C442 1.355 . S
C443 C445 1.419 . S
C444 C442 1.415 . S
C444 C449 1.425 . S
C444 C451 1.409 . S
C445 H437 0.930 . S
C445 C443 1.419 . S
C445 C446 1.362 . S
C446 H438 0.930 . S
C446 C445 1.362 . S
C446 C449 1.409 . S
C447 H439 0.930 . S
C447 C448 1.355 . S
C447 C449 1.415 . S
C448 C447 1.355 . S
C448 C450 1.419 . S
C449 C444 1.425 . S
C449 C446 1.409 . S
C449 C447 1.415 . S
C450 H440 0.930 . S
C450 C448 1.419 . S
C450 C451 1.362 . S
C451 H441 0.930 . S
C451 C444 1.409 . S
C451 C450 1.362 . S
H452 C458 0.930 . S
H453 C461 0.930 . S
H454 C462 0.930 . S
H455 C463 0.930 . S
H456 C466 0.930 . S
H457 C467 0.930 . S
C458 H452 0.930 . S
C458 C459 1.355 . S
C458 C460 1.415 . S
C459 C458 1.355 . S
C459 C461 1.419 . S
C460 C458 1.415 . S
C460 C465 1.425 . S
C460 C467 1.409 . S
C461 H453 0.930 . S
C461 C459 1.419 . S
C461 C462 1.362 . S
C462 H454 0.930 . S
C462 C461 1.362 . S
C462 C465 1.409 . S
C463 H455 0.930 . S
C463 C464 1.355 . S
C463 C465 1.415 . S
C464 C463 1.355 . S
C464 C466 1.419 . S
C465 C460 1.425 . S
C465 C462 1.409 . S
C465 C463 1.415 . S
C466 H456 0.930 . S
C466 C464 1.419 . S
C466 C467 1.362 . S
C467 H457 0.930 . S
C467 C460 1.409 . S
C467 C466 1.362 . S
H468 C474 0.930 . S
H469 C477 0.930 . S
H470 C478 0.930 . S
H471 C479 0.930 . S
H472 C482 0.930 . S
H473 C483 0.930 . S
C474 H468 0.930 . S
C474 C475 1.355 . S
C474 C476 1.415 . S
C475 C474 1.355 . S
C475 C477 1.419 . S
C476 C474 1.415 . S
C476 C481 1.425 . S
C476 C483 1.409 . S
C477 H469 0.930 . S
C477 C475 1.419 . S
C477 C478 1.362 . S
C478 H470 0.930 . S
C478 C477 1.362 . S
C478 C481 1.409 . S
C479 H471 0.930 . S
C479 C480 1.355 . S
C479 C481 1.415 . S
C480 C479 1.355 . S
C480 C482 1.419 . S
C481 C476 1.425 . S
C481 C478 1.409 . S
C481 C479 1.415 . S
C482 H472 0.930 . S
C482 C480 1.419 . S
C482 C483 1.362 . S
C483 H473 0.930 . S
C483 C476 1.409 . S
C483 C482 1.362 . S
H484 C490 0.930 . S
H485 C493 0.930 . S
H486 C494 0.930 . S
H487 C495 0.930 . S
H488 C498 0.930 . S
H489 C499 0.930 . S
C490 H484 0.930 . S
C490 C491 1.355 . S
C490 C492 1.415 . S
C491 C490 1.355 . S
C491 C493 1.419 . S
C492 C490 1.415 . S
C492 C497 1.425 . S
C492 C499 1.409 . S
C493 H485 0.930 . S
C493 C491 1.419 . S
C493 C494 1.362 . S
C494 H486 0.930 . S
C494 C493 1.362 . S
C494 C497 1.409 . S
C495 H487 0.930 . S
C495 C496 1.355 . S
C495 C497 1.415 . S
C496 C495 1.355 . S
C496 C498 1.419 . S
C497 C492 1.425 . S
C497 C494 1.409 . S
C497 C495 1.415 . S
C498 H488 0.930 . S
C498 C496 1.419 . S
C498 C499 1.362 . S
C499 H489 0.930 . S
C499 C492 1.409 . S
C499 C498 1.362 . S
H500 C506 0.930 . S
H501 C509 0.930 . S
H502 C510 0.930 . S
H503 C511 0.930 . S
H504 C514 0.930 . S
H505 C515 0.930 . S
C506 H500 0.930 . S
C506 C507 1.355 . S
C506 C508 1.415 . S
C507 C506 1.355 . S
C507 C509 1.419 . S
C508 C506 1.415 . S
C508 C513 1.425 . S
C508 C515 1.409 . S
C509 H501 0.930 . S
C509 C507 1.419 . S
C509 C510 1.362 . S
C510 H502 0.930 . S
C510 C509 1.362 . S
C510 C513 1.409 . S
C511 H503 0.930 . S
C511 C512 1.355 . S
C511 C513 1.415 . S
C512 C511 1.355 . S
C512 C514 1.419 . S
C513 C508 1.425 . S
C513 C510 1.409 . S
C513 C511 1.415 . S
C514 H504 0.930 . S
C514 C512 1.419 . S
C514 C515 1.362 . S
C515 H505 0.930 . S
C515 C508 1.409 . S
C515 C514 1.362 . S
H516 C522 0.930 . S
H517 C525 0.930 . S
H518 C526 0.930 . S
H519 C527 0.930 . S
H520 C530 0.930 . S
H521 C531 0.930 . S
C522 H516 0.930 . S
C522 C523 1.355 . S
C522 C524 1.415 . S
C523 C522 1.355 . S
C523 C525 1.419 . S
C524 C522 1.415 . S
C524 C529 1.425 . S
C524 C531 1.409 . S
C525 H517 0.930 . S
C525 C523 1.419 . S
C525 C526 1.362 . S
C526 H518 0.930 . S
C526 C525 1.362 . S
C526 C529 1.409 . S
C527 H519 0.930 . S
C527 C528 1.355 . S
C527 C529 1.415 . S
C528 C527 1.355 . S
C528 C530 1.419 . S
C529 C524 1.425 . S
C529 C526 1.409 . S
C529 C527 1.415 . S
C530 H520 0.930 . S
C530 C528 1.419 . S
C530 C531 1.362 . S
C531 H521 0.930 . S
C531 C524 1.409 . S
C531 C530 1.362 . S
H532 C538 0.930 . S
H533 C541 0.930 . S
H534 C542 0.930 . S
H535 C543 0.930 . S
H536 C546 0.930 . S
H537 C547 0.930 . S
C538 H532 0.930 . S
C538 C539 1.355 . S
C538 C540 1.415 . S
C539 C538 1.355 . S
C539 C541 1.419 . S
C540 C538 1.415 . S
C540 C545 1.425 . S
C540 C547 1.409 . S
C541 H533 0.930 . S
C541 C539 1.419 . S
C541 C542 1.362 . S
C542 H534 0.930 . S
C542 C541 1.362 . S
C542 C545 1.409 . S
C543 H535 0.930 . S
C543 C544 1.355 . S
C543 C545 1.415 . S
C544 C543 1.355 . S
C544 C546 1.419 . S
C545 C540 1.425 . S
C545 C542 1.409 . S
C545 C543 1.415 . S
C546 H536 0.930 . S
C546 C544 1.419 . S
C546 C547 1.362 . S
C547 H537 0.930 . S
C547 C540 1.409 . S
C547 C546 1.362 . S
H548 C554 0.930 . S
H549 C557 0.930 . S
H550 C558 0.930 . S
H551 C559 0.930 . S
H552 C562 0.930 . S
H553 C563 0.930 . S
C554 H548 0.930 . S
C554 C555 1.355 . S
C554 C556 1.415 . S
C555 C554 1.355 . S
C555 C557 1.419 . S
C556 C554 1.415 . S
C556 C561 1.425 . S
C556 C563 1.409 . S
C557 H549 0.930 . S
C557 C555 1.419 . S
C557 C558 1.362 . S
C558 H550 0.930 . S
C558 C557 1.362 . S
C558 C561 1.409 . S
C559 H551 0.930 . S
C559 C560 1.355 . S
C559 C561 1.415 . S
C560 C559 1.355 . S
C560 C562 1.419 . S
C561 C556 1.425 . S
C561 C558 1.409 . S
C561 C559 1.415 . S
C562 H552 0.930 . S
C562 C560 1.419 . S
C562 C563 1.362 . S
C563 H553 0.930 . S
C563 C556 1.409 . S
C563 C562 1.362 . S
H564 C570 0.930 . S
H565 C573 0.930 . S
H566 C574 0.930 . S
H567 C575 0.930 . S
H568 C578 0.930 . S
H569 C579 0.930 . S
C570 H564 0.930 . S
C570 C571 1.355 . S
C570 C572 1.415 1_455 S
C571 C570 1.355 . S
C571 C573 1.419 . S
C572 C570 1.415 1_655 S
C572 C577 1.425 1_645 S
C572 C579 1.409 . S
C573 H565 0.930 . S
C573 C571 1.419 . S
C573 C574 1.362 1_545 S
C574 H566 0.930 . S
C574 C573 1.362 1_565 S
C574 C577 1.409 . S
C575 H567 0.930 . S
C575 C576 1.355 . S
C575 C577 1.415 1_655 S
C576 C575 1.355 . S
C576 C578 1.419 . S
C577 C572 1.425 1_465 S
C577 C574 1.409 . S
C577 C575 1.415 1_455 S
C578 H568 0.930 . S
C578 C576 1.419 . S
C578 C579 1.362 1_565 S
C579 H569 0.930 . S
C579 C572 1.409 . S
C579 C578 1.362 1_545 S
H580 C586 0.930 . S
H581 C589 0.934 . S
H582 C590 0.930 . S
H583 C591 0.930 . S
H584 C594 0.934 . S
H585 C595 0.930 . S
C586 H580 0.930 . S
C586 C587 1.355 . S
C586 C588 1.415 1_655 S
C587 C586 1.355 . S
C587 C589 1.419 . S
C588 C586 1.415 1_455 S
C588 C593 1.425 1_445 S
C588 C595 1.409 . S
C589 H581 0.934 . S
C589 C587 1.419 . S
C589 C590 1.362 1_545 S
C590 H582 0.930 . S
C590 C589 1.362 1_565 S
C590 C593 1.409 . S
C591 H583 0.930 . S
C591 C592 1.355 . S
C591 C593 1.415 1_455 S
C592 C591 1.355 . S
C592 C594 1.419 . S
C593 C588 1.425 1_665 S
C593 C590 1.409 . S
C593 C591 1.415 1_655 S
C594 H584 0.934 . S
C594 C592 1.419 . S
C594 C595 1.362 1_565 S
C595 H585 0.930 . S
C595 C588 1.409 . S
C595 C594 1.362 1_545 S
H596 C602 0.930 . S
H597 C605 0.930 . S
H598 C606 0.930 . S
H599 C607 0.930 . S
H600 C610 0.930 . S
H601 C611 0.930 . S
C602 H596 0.930 . S
C602 C603 1.355 . S
C602 C604 1.415 1_565 S
C603 C602 1.355 . S
C603 C605 1.419 . S
C604 C602 1.415 1_545 S
C604 C609 1.425 1_546 S
C604 C611 1.409 . S
C605 H597 0.930 . S
C605 C603 1.419 . S
C605 C606 1.362 1_556 S
C606 H598 0.930 . S
C606 C605 1.362 1_554 S
C606 C609 1.409 . S
C607 H599 0.930 . S
C607 C608 1.355 . S
C607 C609 1.415 1_545 S
C608 C607 1.355 . S
C608 C610 1.419 . S
C609 C604 1.425 1_564 S
C609 C606 1.409 . S
C609 C607 1.415 1_565 S
C610 H600 0.930 . S
C610 C608 1.419 . S
C610 C611 1.362 1_554 S
C611 H601 0.930 . S
C611 C604 1.409 . S
C611 C610 1.362 1_556 S
H612 C618 0.930 . S
H613 C621 0.924 1_556 S
H614 C622 0.930 . S
H615 C623 0.930 . S
H616 C626 0.924 1_554 S
H617 C627 0.930 . S
C618 H612 0.930 . S
C618 C619 1.355 . S
C618 C620 1.415 1_565 S
C619 C618 1.355 . S
C619 C621 1.419 . S
C620 C618 1.415 1_545 S
C620 C625 1.425 1_544 S
C620 C627 1.409 . S
C621 H613 0.924 1_554 S
C621 C619 1.419 . S
C621 C622 1.362 1_554 S
C622 H614 0.930 . S
C622 C621 1.362 1_556 S
C622 C625 1.409 . S
C623 H615 0.930 . S
C623 C624 1.355 . S
C623 C625 1.415 1_545 S
C624 C623 1.355 . S
C624 C626 1.419 . S
C625 C620 1.425 1_566 S
C625 C622 1.409 . S
C625 C623 1.415 1_565 S
C626 H616 0.924 1_556 S
C626 C624 1.419 . S
C626 C627 1.362 1_556 S
C627 H617 0.930 . S
C627 C620 1.409 . S
C627 C626 1.362 1_554 S
H628 C634 0.930 . S
H629 C637 0.930 . S
H630 C638 0.930 1_455 S
H631 C639 0.930 . S
H632 C642 0.930 . S
H633 C643 0.930 1_655 S
C634 H628 0.930 . S
C634 C635 1.355 . S
C634 C636 1.415 . S
C635 C634 1.355 . S
C635 C637 1.419 . S
C636 C634 1.415 . S
C636 C641 1.425 1_656 S
C636 C643 1.409 1_656 S
C637 H629 0.930 . S
C637 C635 1.419 . S
C637 C638 1.362 . S
C638 H630 0.930 1_655 S
C638 C637 1.362 . S
C638 C641 1.409 1_656 S
C639 H631 0.930 . S
C639 C640 1.355 . S
C639 C641 1.415 . S
C640 C639 1.355 . S
C640 C642 1.419 . S
C641 C636 1.425 1_454 S
C641 C638 1.409 1_454 S
C641 C639 1.415 . S
C642 H632 0.930 . S
C642 C640 1.419 . S
C642 C643 1.362 . S
C643 H633 0.930 1_455 S
C643 C636 1.409 1_454 S
C643 C642 1.362 . S
H644 C650 0.930 . S
H645 C653 0.930 . S
H646 C654 0.926 1_554 S
H647 C655 0.930 . S
H648 C658 0.930 . S
H649 C659 0.926 1_556 S
C650 H644 0.930 . S
C650 C651 1.355 . S
C650 C652 1.415 1_455 S
C651 C650 1.355 . S
C651 C653 1.419 . S
C652 C650 1.415 1_655 S
C652 C657 1.425 1_656 S
C652 C659 1.407 1_556 S
C653 H645 0.930 . S
C653 C651 1.419 . S
C653 C654 1.368 . S
C654 H646 0.926 1_556 S
C654 C653 1.368 . S
C654 C657 1.407 1_556 S
C655 H647 0.930 . S
C655 C656 1.355 . S
C655 C657 1.415 1_655 S
C656 C655 1.355 . S
C656 C658 1.419 . S
C657 C652 1.425 1_454 S
C657 C654 1.407 1_554 S
C657 C655 1.415 1_455 S
C658 H648 0.930 . S
C658 C656 1.419 . S
C658 C659 1.368 . S
C659 H649 0.926 1_554 S
C659 C652 1.407 1_554 S
C659 C658 1.368 . S
C283 N81 1.205 . S
C288 N12 1.222 . S
C299 N58 1.224 . S
C304 N35 1.187 . S
C315 N127 1.208 . S
C320 N104 1.220 . S
C331 N150 1.219 . S
C336 N173 1.209 . S
C347 N219 1.201 . S
C352 N196 1.194 . S
C363 N242 1.186 . S
C368 N265 1.221 . S
C379 N2 1.560 . S
C384 C177 1.485 . S
C395 C154 1.424 . S
C400 N25 1.551 . S
C411 C131 1.465 . S
C416 N48 1.565 . S
C427 C108 1.415 . S
C432 N71 1.490 . S
C443 N94 1.557 . S
C448 C269 1.435 . S
C459 C200 1.414 . S
C464 N117 1.546 . S
C475 C246 1.472 . S
C480 N140 1.526 . S
C491 N163 1.551 . S
C496 C223 1.487 . S
C507 C62 1.450 . S
C512 N186 1.562 . S
C523 C16 1.450 . S
C528 N209 1.507 . S
C539 N232 1.514 . S
C544 C39 1.378 . S
C555 C85 1.405 . S
C560 N255 1.540 . S
C571 C7 2.072 . S
C576 C30 2.068 . S
C587 C76 2.055 . S
C592 C53 2.076 . S
C603 C145 2.075 . S
C608 C99 2.064 . S
C619 C122 2.058 . S
C624 C168 2.076 . S
C635 C237 2.075 . S
C640 C191 2.046 . S
C651 C214 2.018 . S
C656 C260 2.042 . S
