# Generated by pormake.
# Topology gis, (4)-cn, num edge types: 1
# Building blocks:
#     Node 0, Type 0, BuildingBlock: KUFVIS_clean_sbu_0, # of connection points: 4
#     Node 1, Type 0, BuildingBlock: KUFVIS_clean_sbu_0, # of connection points: 4
#     Node 2, Type 0, BuildingBlock: KUFVIS_clean_sbu_0, # of connection points: 4
#     Node 3, Type 0, BuildingBlock: KUFVIS_clean_sbu_0, # of connection points: 4
#     Node 4, Type 0, BuildingBlock: KUFVIS_clean_sbu_0, # of connection points: 4
#     Node 5, Type 0, BuildingBlock: KUFVIS_clean_sbu_0, # of connection points: 4
#     Node 6, Type 0, BuildingBlock: KUFVIS_clean_sbu_0, # of connection points: 4
#     Node 7, Type 0, BuildingBlock: KUFVIS_clean_sbu_0, # of connection points: 4
#     Node 8, Type 0, BuildingBlock: KUFVIS_clean_sbu_0, # of connection points: 4
#     Node 9, Type 0, BuildingBlock: KUFVIS_clean_sbu_0, # of connection points: 4
#     Node 10, Type 0, BuildingBlock: KUFVIS_clean_sbu_0, # of connection points: 4
#     Node 11, Type 0, BuildingBlock: KUFVIS_clean_sbu_0, # of connection points: 4
#     Node 12, Type 0, BuildingBlock: KUFVIS_clean_sbu_0, # of connection points: 4
#     Node 13, Type 0, BuildingBlock: KUFVIS_clean_sbu_0, # of connection points: 4
#     Node 14, Type 0, BuildingBlock: KUFVIS_clean_sbu_0, # of connection points: 4
#     Node 15, Type 0, BuildingBlock: KUFVIS_clean_sbu_0, # of connection points: 4
#     Edge 16, Type (0, 0), BuildingBlock: OJICUG_clean_linker_0, # of connection points: 2
#     Edge 17, Type (0, 0), BuildingBlock: OJICUG_clean_linker_0, # of connection points: 2
#     Edge 18, Type (0, 0), BuildingBlock: OJICUG_clean_linker_0, # of connection points: 2
#     Edge 19, Type (0, 0), BuildingBlock: OJICUG_clean_linker_0, # of connection points: 2
#     Edge 20, Type (0, 0), BuildingBlock: OJICUG_clean_linker_0, # of connection points: 2
#     Edge 21, Type (0, 0), BuildingBlock: OJICUG_clean_linker_0, # of connection points: 2
#     Edge 22, Type (0, 0), BuildingBlock: OJICUG_clean_linker_0, # of connection points: 2
#     Edge 23, Type (0, 0), BuildingBlock: OJICUG_clean_linker_0, # of connection points: 2
#     Edge 24, Type (0, 0), BuildingBlock: OJICUG_clean_linker_0, # of connection points: 2
#     Edge 25, Type (0, 0), BuildingBlock: OJICUG_clean_linker_0, # of connection points: 2
#     Edge 26, Type (0, 0), BuildingBlock: OJICUG_clean_linker_0, # of connection points: 2
#     Edge 27, Type (0, 0), BuildingBlock: OJICUG_clean_linker_0, # of connection points: 2
#     Edge 28, Type (0, 0), BuildingBlock: OJICUG_clean_linker_0, # of connection points: 2
#     Edge 29, Type (0, 0), BuildingBlock: OJICUG_clean_linker_0, # of connection points: 2
#     Edge 30, Type (0, 0), BuildingBlock: OJICUG_clean_linker_0, # of connection points: 2
#     Edge 31, Type (0, 0), BuildingBlock: OJICUG_clean_linker_0, # of connection points: 2
#     Edge 32, Type (0, 0), BuildingBlock: OJICUG_clean_linker_0, # of connection points: 2
#     Edge 33, Type (0, 0), BuildingBlock: OJICUG_clean_linker_0, # of connection points: 2
#     Edge 34, Type (0, 0), BuildingBlock: OJICUG_clean_linker_0, # of connection points: 2
#     Edge 35, Type (0, 0), BuildingBlock: OJICUG_clean_linker_0, # of connection points: 2
#     Edge 36, Type (0, 0), BuildingBlock: OJICUG_clean_linker_0, # of connection points: 2
#     Edge 37, Type (0, 0), BuildingBlock: OJICUG_clean_linker_0, # of connection points: 2
#     Edge 38, Type (0, 0), BuildingBlock: OJICUG_clean_linker_0, # of connection points: 2
#     Edge 39, Type (0, 0), BuildingBlock: OJICUG_clean_linker_0, # of connection points: 2
#     Edge 40, Type (0, 0), BuildingBlock: OJICUG_clean_linker_0, # of connection points: 2
#     Edge 41, Type (0, 0), BuildingBlock: OJICUG_clean_linker_0, # of connection points: 2
#     Edge 42, Type (0, 0), BuildingBlock: OJICUG_clean_linker_0, # of connection points: 2
#     Edge 43, Type (0, 0), BuildingBlock: OJICUG_clean_linker_0, # of connection points: 2
#     Edge 44, Type (0, 0), BuildingBlock: OJICUG_clean_linker_0, # of connection points: 2
#     Edge 45, Type (0, 0), BuildingBlock: OJICUG_clean_linker_0, # of connection points: 2
#     Edge 46, Type (0, 0), BuildingBlock: OJICUG_clean_linker_0, # of connection points: 2
#     Edge 47, Type (0, 0), BuildingBlock: OJICUG_clean_linker_0, # of connection points: 2
# Relax obj value: 0.089
# Max RMSD: 0.143
# Mean RMSD: 0.139
data_MOF--net-gis--node1-KUFVIS_clean_sbu_0--edge1-OJICUG_clean_linker_0
_symmetry_space_group_name_H-M    P1
_symmetry_Int_Tables_number       1
_symmetry_cell_setting            triclinic
loop_
_symmetry_equiv_pos_as_xyz
'x, y, z'
_cell_length_a     36.564765
_cell_length_b     39.009665
_cell_length_c     27.958122
_cell_angle_alpha  90.796032
_cell_angle_beta   90.371387
_cell_angle_gamma 89.746864
loop_
_atom_site_label
_atom_site_type_symbol
_atom_site_fract_x
_atom_site_fract_y
_atom_site_fract_z
_atom_type_partial_charge
Mn0 Mn 0.13829 0.61161 0.10863 0.0
Mn1 Mn 0.09911 0.65344 0.20213 0.0
C2 C 0.07626 0.62242 0.10717 0.0
C3 C 0.15682 0.55947 0.07305 0.0
C4 C 0.14205 0.68956 0.12498 0.0
O5 O 0.17724 0.60906 0.16089 0.0
O6 O 0.1475 0.63437 0.22224 0.0
C7 C 0.08647 0.59374 0.26395 0.0
N8 N 0.07324 0.62153 0.24037 0.0
C9 C 0.01247 0.61179 0.2696 0.0
C10 C 0.0255 0.58321 0.2945 0.0
C11 C 0.06264 0.57411 0.29154 0.0
C12 C 0.03754 0.63047 0.24287 0.0
H13 H 0.11499 0.58662 0.26169 0.0
C14 C 0.1754 0.61882 0.20462 0.0
O15 O 0.17095 0.58845 0.06028 0.0
O16 O 0.13335 0.56082 0.1075 0.0
N17 N 0.05211 0.67319 0.189 0.0
C18 C 0.04334 0.69977 0.15989 0.0
C19 C 0.00677 0.71076 0.15665 0.0
C20 C 0.9799 0.69527 0.18458 0.0
C21 C 0.98965 0.66833 0.21478 0.0
C22 C 0.02641 0.65806 0.21604 0.0
H23 H 0.0639 0.71188 0.13841 0.0
O24 O 0.0938 0.61543 0.06809 0.0
O25 O 0.0954 0.62204 0.14671 0.0
O26 O 0.14934 0.6632 0.09885 0.0
O27 O 0.12438 0.68836 0.16421 0.0
C28 C 0.96408 0.65036 0.24224 0.0
C29 C 0.97548 0.62209 0.26959 0.0
H30 H 0.00718 0.56791 0.31564 0.0
H31 H 0.07287 0.55198 0.31045 0.0
H32 H 0.9991 0.73062 0.13198 0.0
H33 H 0.95173 0.70375 0.18175 0.0
H34 H 0.93546 0.65766 0.24182 0.0
H35 H 0.95547 0.60814 0.28996 0.0
Mn36 Mn 0.66429 0.89438 0.37344 0.0
Mn37 Mn 0.64227 0.85674 0.47764 0.0
C38 C 0.6624 0.83512 0.37598 0.0
C39 C 0.70809 0.91696 0.32281 0.0
C40 C 0.58658 0.89001 0.41172 0.0
O41 O 0.66876 0.93335 0.42233 0.0
O42 O 0.65978 0.90433 0.49024 0.0
C43 C 0.71567 0.85244 0.52224 0.0
N44 N 0.68417 0.83694 0.50762 0.0
C45 C 0.70331 0.78309 0.54062 0.0
C46 C 0.73594 0.79849 0.55628 0.0
C47 C 0.74219 0.83328 0.54689 0.0
C48 C 0.67787 0.8035 0.51639 0.0
H49 H 0.72037 0.87923 0.51528 0.0
C50 C 0.66694 0.93193 0.46783 0.0
O51 O 0.67386 0.92547 0.31871 0.0
O52 O 0.71702 0.89714 0.3579 0.0
N53 N 0.6243 0.81089 0.47232 0.0
C54 C 0.59283 0.79938 0.45136 0.0
C55 C 0.58319 0.76473 0.45552 0.0
C56 C 0.60564 0.74247 0.48188 0.0
C57 C 0.6377 0.75502 0.50357 0.0
C58 C 0.64589 0.78978 0.49818 0.0
H59 H 0.57534 0.81647 0.43143 0.0
O60 O 0.6611 0.85144 0.33598 0.0
O61 O 0.66626 0.85414 0.41464 0.0
O62 O 0.60798 0.89729 0.37741 0.0
O63 O 0.59719 0.8758 0.45022 0.0
C64 C 0.66249 0.73417 0.52891 0.0
C65 C 0.69529 0.74819 0.54736 0.0
H66 H 0.7565 0.78378 0.57519 0.0
H67 H 0.76734 0.84531 0.55874 0.0
H68 H 0.5585 0.75521 0.43852 0.0
H69 H 0.59827 0.71571 0.48466 0.0
H70 H 0.65694 0.70718 0.53361 0.0
H71 H 0.7144 0.73177 0.5661 0.0
Mn72 Mn 0.36526 0.38768 0.59706 0.0
Mn73 Mn 0.39013 0.36617 0.70648 0.0
C74 C 0.42815 0.37177 0.60684 0.0
C75 C 0.35231 0.43681 0.55183 0.0
C76 C 0.33825 0.32453 0.64144 0.0
O77 O 0.32326 0.40123 0.6428 0.0
O78 O 0.3612 0.40885 0.7035 0.0
C79 C 0.4371 0.42619 0.73028 0.0
N80 N 0.43242 0.39167 0.72782 0.0
C81 C 0.49953 0.38478 0.76206 0.0
C82 C 0.50188 0.42132 0.75622 0.0
C83 C 0.47107 0.44074 0.74279 0.0
C84 C 0.45875 0.37034 0.74222 0.0
H85 H 0.41525 0.4432 0.71958 0.0
C86 C 0.32944 0.41173 0.6854 0.0
O87 O 0.33675 0.40763 0.54226 0.0
O88 O 0.37604 0.43718 0.58643 0.0
N89 N 0.41749 0.32405 0.71804 0.0
C90 C 0.4073 0.2912 0.70855 0.0
C91 C 0.42169 0.26303 0.7336 0.0
C92 C 0.45076 0.26582 0.76635 0.0
C93 C 0.46794 0.29713 0.77392 0.0
C94 C 0.44597 0.33033 0.74695 0.0
H95 H 0.38882 0.28601 0.67995 0.0
O96 O 0.41366 0.37498 0.56467 0.0
O97 O 0.40444 0.37503 0.64084 0.0
O98 O 0.34768 0.33815 0.60184 0.0
O99 O 0.34706 0.33777 0.68275 0.0
C100 C 0.50993 0.29754 0.80066 0.0
C101 C 0.53564 0.33407 0.80357 0.0
H102 H 0.52615 0.43621 0.76373 0.0
H103 H 0.47373 0.46833 0.7413 0.0
H104 H 0.41049 0.23791 0.72594 0.0
H105 H 0.46192 0.24284 0.78221 0.0
H106 H 0.52102 0.27411 0.81517 0.0
H107 H 0.56219 0.33279 0.82178 0.0
Mn108 Mn 0.85945 0.11469 0.89583 0.0
Mn109 Mn 0.88655 0.15342 0.79515 0.0
C110 C 0.92114 0.12603 0.88673 0.0
C111 C 0.84411 0.0647 0.93535 0.0
C112 C 0.85048 0.19066 0.87904 0.0
O113 O 0.81475 0.11196 0.85135 0.0
O114 O 0.83858 0.13153 0.78283 0.0
C115 C 0.89257 0.10015 0.71871 0.0
N116 N 0.90958 0.12411 0.74686 0.0
C117 C 0.96088 0.12511 0.68092 0.0
C118 C 0.94024 0.10086 0.65601 0.0
C119 C 0.90749 0.08836 0.67501 0.0
C120 C 0.94202 0.13698 0.73414 0.0
H121 H 0.86638 0.09012 0.72905 0.0
C122 C 0.81252 0.11839 0.8067 0.0
O123 O 0.83207 0.09442 0.94982 0.0
O124 O 0.86364 0.06385 0.8968 0.0
N125 N 0.93235 0.17582 0.80528 0.0
C126 C 0.9391 0.20281 0.83527 0.0
C127 C 0.97358 0.21772 0.83886 0.0
C128 C 0.00254 0.20848 0.80906 0.0
C129 C 0.99758 0.1844 0.76993 0.0
C130 C 0.95746 0.16426 0.7746 0.0
H131 H 0.91852 0.21222 0.8594 0.0
O132 O 0.90757 0.11908 0.92812 0.0
O133 O 0.89852 0.12347 0.84991 0.0
O134 O 0.8499 0.16621 0.90874 0.0
O135 O 0.86197 0.18713 0.83649 0.0
C136 C 0.02905 0.16691 0.688 0.0
C137 C 0.00164 0.13811 0.65778 0.0
H138 H 0.94977 0.09095 0.62193 0.0
H139 H 0.89246 0.06931 0.65447 0.0
H140 H 0.97794 0.237 0.86643 0.0
H141 H 0.02731 0.22235 0.81669 0.0
H142 H 0.05453 0.17484 0.67117 0.0
H143 H 0.01043 0.12809 0.62346 0.0
Mn144 Mn 0.17187 0.39418 0.87097 0.0
Mn145 Mn 0.14771 0.35454 0.97272 0.0
C146 C 0.17693 0.33469 0.87336 0.0
C147 C 0.21549 0.41931 0.82242 0.0
C148 C 0.09264 0.38212 0.90117 0.0
O149 O 0.17206 0.43343 0.91972 0.0
O150 O 0.15881 0.40399 0.98592 0.0
C151 C 0.21723 0.35843 0.02724 0.0
N152 N 0.18871 0.33975 0.00961 0.0
C153 C 0.20848 0.28963 0.05195 0.0
C154 C 0.23807 0.30834 0.07076 0.0
C155 C 0.24254 0.34284 0.05818 0.0
C156 C 0.18404 0.30659 0.0216 0.0
H157 H 0.22042 0.38504 0.01796 0.0
C158 C 0.16677 0.43193 0.96468 0.0
O159 O 0.18089 0.42557 0.81635 0.0
O160 O 0.2247 0.40052 0.85846 0.0
N161 N 0.1356 0.30706 0.96729 0.0
C162 C 0.10878 0.29165 0.94075 0.0
C163 C 0.10197 0.25655 0.94661 0.0
C164 C 0.12252 0.23784 0.98005 0.0
C165 C 0.15016 0.25426 0.00671 0.0
C166 C 0.15559 0.2893 0.99945 0.0
H167 H 0.09278 0.30605 0.91529 0.0
O168 O 0.1735 0.35113 0.8337 0.0
O169 O 0.17666 0.35375 0.91257 0.0
O170 O 0.11528 0.39357 0.87078 0.0
O171 O 0.10263 0.36766 0.93959 0.0
C172 C 0.1736 0.23696 0.0386 0.0
C173 C 0.20277 0.25462 0.06114 0.0
H174 H 0.25775 0.29638 0.09444 0.0
H175 H 0.26535 0.3574 0.07245 0.0
H176 H 0.08092 0.24395 0.92549 0.0
H177 H 0.11739 0.21073 0.9842 0.0
H178 H 0.17006 0.20986 0.04502 0.0
H179 H 0.22111 0.24084 0.0847 0.0
Mn180 Mn 0.85805 0.89512 0.09602 0.0
Mn181 Mn 0.87627 0.87455 0.20783 0.0
C182 C 0.91983 0.87847 0.10906 0.0
C183 C 0.8482 0.94384 0.05025 0.0
C184 C 0.83352 0.8315 0.13613 0.0
O185 O 0.81325 0.90781 0.13795 0.0
O186 O 0.85212 0.91849 0.19503 0.0
C187 C 0.92485 0.93254 0.23533 0.0
N188 N 0.91895 0.8982 0.23184 0.0
C189 C 0.98649 0.88889 0.26356 0.0
C190 C 0.98997 0.92541 0.25851 0.0
C191 C 0.9595 0.94591 0.24717 0.0
C192 C 0.94498 0.87574 0.24414 0.0
H193 H 0.90337 0.95041 0.22626 0.0
C194 C 0.81956 0.91942 0.17982 0.0
O195 O 0.83264 0.91494 0.03933 0.0
O196 O 0.86941 0.9445 0.08759 0.0
N197 N 0.89797 0.83152 0.22882 0.0
C198 C 0.87852 0.80271 0.23897 0.0
C199 C 0.89437 0.77371 0.26046 0.0
C200 C 0.93022 0.77319 0.27814 0.0
C201 C 0.95144 0.80254 0.2773 0.0
C202 C 0.93054 0.83617 0.24987 0.0
H203 H 0.84971 0.80149 0.23082 0.0
O204 O 0.90674 0.88311 0.06649 0.0
O205 O 0.89545 0.87985 0.14276 0.0
O206 O 0.84223 0.84619 0.0974 0.0
O207 O 0.83477 0.84692 0.17764 0.0
C208 C 0.99378 0.80155 0.30281 0.0
C209 C 0.02084 0.83712 0.30505 0.0
H210 H 0.01488 0.93947 0.26548 0.0
H211 H 0.96299 0.97344 0.24659 0.0
H212 H 0.87771 0.75109 0.26467 0.0
H213 H 0.94079 0.75013 0.29442 0.0
H214 H 0.00362 0.77812 0.31877 0.0
H215 H 0.04729 0.83503 0.32334 0.0
Mn216 Mn 0.3556 0.61046 0.40509 0.0
Mn217 Mn 0.38202 0.64043 0.29814 0.0
C218 C 0.41914 0.60995 0.39461 0.0
C219 C 0.33558 0.56105 0.44436 0.0
C220 C 0.35638 0.68583 0.3811 0.0
O221 O 0.30862 0.61474 0.36484 0.0
O222 O 0.33585 0.61461 0.29407 0.0
C223 C 0.40776 0.57378 0.2723 0.0
N224 N 0.40571 0.60769 0.26257 0.0
C225 C 0.47598 0.60304 0.23509 0.0
C226 C 0.47293 0.56785 0.24861 0.0
C227 C 0.43933 0.55411 0.26311 0.0
C228 C 0.43303 0.62492 0.24266 0.0
H229 H 0.3853 0.56186 0.29069 0.0
C230 C 0.3073 0.61268 0.31946 0.0
O231 O 0.3276 0.59156 0.46068 0.0
O232 O 0.35252 0.55949 0.40401 0.0
N233 N 0.42564 0.66594 0.2867 0.0
C234 C 0.45231 0.66529 0.32821 0.0
C235 C 0.49549 0.67496 0.32569 0.0
C236 C 0.51769 0.70004 0.24309 0.0
C237 C 0.47539 0.69729 0.2026 0.0
C238 C 0.43041 0.67124 0.23215 0.0
H239 H 0.44046 0.66632 0.3631 0.0
O240 O 0.40424 0.60603 0.43576 0.0
O241 O 0.39586 0.61569 0.35903 0.0
O242 O 0.35559 0.66322 0.41414 0.0
O243 O 0.36009 0.6786 0.33635 0.0
C244 C 0.51095 0.68136 0.18074 0.0
C245 C 0.52254 0.64339 0.19233 0.0
H246 H 0.49552 0.54988 0.24838 0.0
H247 H 0.43871 0.52725 0.27233 0.0
H248 H 0.50828 0.67546 0.36091 0.0
H249 H 0.54328 0.71438 0.2348 0.0
H250 H 0.5273 0.69596 0.15562 0.0
H251 H 0.54969 0.63848 0.17681 0.0
Mn252 Mn 0.63396 0.11066 0.60947 0.0
Mn253 Mn 0.60022 0.1513 0.70714 0.0
C254 C 0.57156 0.11939 0.61517 0.0
C255 C 0.65348 0.05951 0.57313 0.0
C256 C 0.63951 0.18767 0.62663 0.0
O257 O 0.67618 0.11009 0.65718 0.0
O258 O 0.6486 0.13066 0.72355 0.0
C259 C 0.58789 0.09181 0.7694 0.0
N260 N 0.57467 0.11993 0.74657 0.0
C261 C 0.51433 0.1109 0.77766 0.0
C262 C 0.52735 0.082 0.80184 0.0
C263 C 0.56429 0.0724 0.79762 0.0
C264 C 0.53923 0.12946 0.75048 0.0
H265 H 0.61622 0.08425 0.76601 0.0
C266 C 0.67619 0.11751 0.70181 0.0
O267 O 0.66486 0.08903 0.5584 0.0
O268 O 0.63158 0.0598 0.60942 0.0
N269 N 0.55351 0.17237 0.69674 0.0
C270 C 0.54469 0.19932 0.6683 0.0
C271 C 0.50818 0.21053 0.66579 0.0
C272 C 0.48143 0.19457 0.69334 0.0
C273 C 0.49136 0.16777 0.72365 0.0
C274 C 0.52806 0.15736 0.72429 0.0
H275 H 0.5651 0.21149 0.64667 0.0
O276 O 0.58657 0.11253 0.57421 0.0
O277 O 0.59353 0.1201 0.65208 0.0
O278 O 0.64263 0.16208 0.59794 0.0
O279 O 0.62557 0.18583 0.66834 0.0
C280 C 0.46595 0.1499 0.75148 0.0
C281 C 0.47744 0.12152 0.77856 0.0
H282 H 0.50916 0.06679 0.82331 0.0
H283 H 0.57449 0.05001 0.81593 0.0
H284 H 0.50035 0.23076 0.64173 0.0
H285 H 0.45318 0.20236 0.68977 0.0
H286 H 0.43737 0.15734 0.75154 0.0
H287 H 0.45755 0.10765 0.79922 0.0
Mn288 Mn 0.87389 0.40859 0.8908 0.0
Mn289 Mn 0.90747 0.36734 0.79346 0.0
C290 C 0.93604 0.39842 0.88606 0.0
C291 C 0.85552 0.46007 0.92691 0.0
C292 C 0.86799 0.33137 0.87408 0.0
O293 O 0.83182 0.41007 0.84298 0.0
O294 O 0.85872 0.38746 0.7775 0.0
C295 C 0.91853 0.42729 0.73165 0.0
N296 N 0.93231 0.39922 0.75402 0.0
C297 C 0.99239 0.40948 0.72291 0.0
C298 C 0.97879 0.43834 0.69919 0.0
C299 C 0.9417 0.44731 0.70365 0.0
C300 C 0.96792 0.39034 0.74997 0.0
H301 H 0.89009 0.4344 0.73525 0.0
C302 C 0.83148 0.40161 0.79874 0.0
O303 O 0.84324 0.43085 0.94155 0.0
O304 O 0.8776 0.45929 0.89083 0.0
N305 N 0.9545 0.34664 0.80288 0.0
C306 C 0.96374 0.31911 0.83 0.0
C307 C 0.00038 0.30813 0.8316 0.0
C308 C 0.02678 0.32489 0.8044 0.0
C309 C 0.0164 0.35223 0.77533 0.0
C310 C 0.97961 0.36234 0.77552 0.0
H311 H 0.94356 0.30629 0.85129 0.0
O312 O 0.92083 0.40568 0.92673 0.0
O313 O 0.91446 0.39831 0.8487 0.0
O314 O 0.86401 0.35733 0.90197 0.0
O315 O 0.88279 0.33267 0.83278 0.0
C316 C 0.04142 0.37076 0.74776 0.0
C317 C 0.02941 0.39935 0.72151 0.0
H318 H 0.99664 0.45399 0.67783 0.0
H319 H 0.93104 0.46967 0.6857 0.0
H320 H 0.0086 0.28746 0.85465 0.0
H321 H 0.05512 0.31716 0.80709 0.0
H322 H 0.07007 0.36359 0.74714 0.0
H323 H 0.04899 0.41367 0.70093 0.0
Mn324 Mn 0.33613 0.11932 0.64174 0.0
Mn325 Mn 0.35657 0.15198 0.53404 0.0
C326 C 0.33035 0.17852 0.63327 0.0
C327 C 0.29323 0.09556 0.69286 0.0
C328 C 0.41418 0.1303 0.60641 0.0
O329 O 0.33668 0.07724 0.5985 0.0
O330 O 0.34585 0.10152 0.52739 0.0
C331 C 0.28511 0.144 0.48505 0.0
N332 N 0.31406 0.16393 0.49807 0.0
C333 C 0.2918 0.21084 0.45096 0.0
C334 C 0.26175 0.19078 0.4368 0.0
C335 C 0.25833 0.15727 0.45408 0.0
C336 C 0.31771 0.19614 0.48156 0.0
H337 H 0.2827 0.11814 0.498 0.0
C338 C 0.34018 0.07519 0.55333 0.0
O339 O 0.32803 0.09075 0.69977 0.0
O340 O 0.28359 0.11261 0.65538 0.0
N341 N 0.36832 0.19958 0.53218 0.0
C342 C 0.39586 0.2169 0.55481 0.0
C343 C 0.40195 0.25143 0.54386 0.0
C344 C 0.37983 0.26768 0.50959 0.0
C345 C 0.35142 0.24936 0.4871 0.0
C346 C 0.34691 0.21492 0.4991 0.0
H347 H 0.41286 0.20449 0.58118 0.0
O348 O 0.33405 0.16397 0.67429 0.0
O349 O 0.32996 0.15735 0.59594 0.0
O350 O 0.39273 0.12119 0.63981 0.0
O351 O 0.4028 0.1414 0.56638 0.0
C352 C 0.32638 0.26432 0.45493 0.0
C353 C 0.29659 0.24508 0.43688 0.0
H354 H 0.24094 0.20098 0.41312 0.0
H355 H 0.23517 0.14169 0.44343 0.0
H356 H 0.42357 0.26553 0.56187 0.0
H357 H 0.3843 0.29444 0.50173 0.0
H358 H 0.32922 0.29088 0.44484 0.0
H359 H 0.27709 0.2571 0.41303 0.0
Mn360 Mn 0.64081 0.61543 0.39532 0.0
Mn361 Mn 0.60147 0.63914 0.29117 0.0
C362 C 0.57724 0.62112 0.3915 0.0
C363 C 0.66149 0.57082 0.44345 0.0
C364 C 0.64289 0.68839 0.35739 0.0
O365 O 0.68159 0.60687 0.34707 0.0
O366 O 0.64999 0.61788 0.2798 0.0
C367 C 0.59761 0.57156 0.23902 0.0
N368 N 0.57857 0.59843 0.25884 0.0
C369 C 0.52835 0.58386 0.19168 0.0
C370 C 0.55133 0.55795 0.17579 0.0
C371 C 0.5841 0.55116 0.2005 0.0
C372 C 0.5435 0.60277 0.24662 0.0
H373 H 0.62476 0.56563 0.25176 0.0
C374 C 0.67876 0.60754 0.30163 0.0
O375 O 0.67327 0.60192 0.45023 0.0
O376 O 0.63871 0.56573 0.40854 0.0
N377 N 0.55472 0.66455 0.29754 0.0
C378 C 0.55038 0.70441 0.31652 0.0
C379 C 0.51025 0.73171 0.31347 0.0
C380 C 0.46857 0.71394 0.28242 0.0
C381 C 0.48551 0.65576 0.25352 0.0
C382 C 0.52802 0.63844 0.27383 0.0
H383 H 0.57287 0.71576 0.33543 0.0
O384 O 0.59473 0.62261 0.43191 0.0
O385 O 0.59761 0.61683 0.35371 0.0
O386 O 0.64947 0.66783 0.39171 0.0
O387 O 0.62612 0.67927 0.31916 0.0
C388 C 0.46518 0.63647 0.17397 0.0
C389 C 0.49132 0.59924 0.15477 0.0
H390 H 0.54463 0.5436 0.14354 0.0
H391 H 0.60134 0.53061 0.18705 0.0
H392 H 0.48524 0.72913 0.29976 0.0
H393 H 0.4407 0.72711 0.2713 0.0
H394 H 0.44418 0.64752 0.15095 0.0
H395 H 0.48565 0.58718 0.12047 0.0
Mn396 Mn 0.13845 0.90904 0.11132 0.0
Mn397 Mn 0.10672 0.86656 0.20718 0.0
C398 C 0.07655 0.89634 0.1163 0.0
C399 C 0.15298 0.96059 0.07385 0.0
C400 C 0.14546 0.83142 0.12406 0.0
O401 O 0.18098 0.91322 0.15934 0.0
O402 O 0.15542 0.88606 0.22122 0.0
C403 C 0.10247 0.92056 0.28286 0.0
N404 N 0.08497 0.89632 0.25578 0.0
C405 C 0.03486 0.89609 0.32301 0.0
C406 C 0.05626 0.92008 0.3473 0.0
C407 C 0.08858 0.93249 0.32705 0.0
C408 C 0.05245 0.88409 0.26914 0.0
H409 H 0.12816 0.93084 0.27109 0.0
C410 C 0.18157 0.9028 0.20249 0.0
O411 O 0.16691 0.93154 0.05963 0.0
O412 O 0.13199 0.95991 0.11099 0.0
N413 N 0.0597 0.84615 0.19636 0.0
C414 C 0.05142 0.82012 0.16537 0.0
C415 C 0.01645 0.80572 0.16319 0.0
C416 C 0.98879 0.81389 0.19577 0.0
C417 C 0.99532 0.83747 0.23501 0.0
C418 C 0.03571 0.85722 0.22889 0.0
H419 H 0.07121 0.81122 0.13956 0.0
O420 O 0.09152 0.90337 0.07578 0.0
O421 O 0.0978 0.89848 0.15417 0.0
O422 O 0.15091 0.85769 0.09828 0.0
O423 O 0.1296 0.83282 0.16432 0.0
C424 C 0.96601 0.85538 0.31811 0.0
C425 C 0.99444 0.88364 0.34743 0.0
H426 H 0.04751 0.93005 0.38171 0.0
H427 H 0.10405 0.95161 0.34687 0.0
H428 H 0.01072 0.78739 0.13486 0.0
H429 H 0.96362 0.79995 0.18996 0.0
H430 H 0.94068 0.84803 0.33584 0.0
H431 H 0.98648 0.89374 0.38205 0.0
Mn432 Mn 0.84231 0.62623 0.12489 0.0
Mn433 Mn 0.86097 0.66508 0.02081 0.0
C434 C 0.84133 0.68515 0.12167 0.0
C435 C 0.79851 0.60241 0.17405 0.0
C436 C 0.91983 0.63656 0.08652 0.0
O437 O 0.83904 0.58696 0.07664 0.0
O438 O 0.84935 0.6158 0.00903 0.0
C439 C 0.78612 0.66066 0.98038 0.0
N440 N 0.81538 0.67994 0.99428 0.0
C441 C 0.78401 0.73215 0.97394 0.0
C442 C 0.75362 0.71284 0.95912 0.0
C443 C 0.75467 0.67694 0.96244 0.0
C444 C 0.81449 0.71451 0.99177 0.0
H445 H 0.78674 0.63308 0.98312 0.0
C446 C 0.8424 0.58812 0.03135 0.0
O447 O 0.83295 0.59501 0.17997 0.0
O448 O 0.78989 0.62217 0.13895 0.0
N449 N 0.87286 0.71278 0.02531 0.0
C450 C 0.90555 0.72737 0.0372 0.0
C451 C 0.90965 0.76307 0.03415 0.0
C452 C 0.8803 0.78332 0.01813 0.0
C453 C 0.84743 0.76759 0.00421 0.0
C454 C 0.84514 0.73186 0.00747 0.0
H455 H 0.92817 0.71198 0.04959 0.0
O456 O 0.84404 0.66989 0.16233 0.0
O457 O 0.83832 0.66545 0.08388 0.0
O458 O 0.89848 0.62567 0.11915 0.0
O459 O 0.90858 0.65127 0.0484 0.0
C460 C 0.81702 0.78589 0.98657 0.0
C461 C 0.78526 0.7682 0.97167 0.0
H462 H 0.72934 0.72529 0.94517 0.0
H463 H 0.73128 0.66186 0.95124 0.0
H464 H 0.93526 0.77495 0.04445 0.0
H465 H 0.88345 0.81087 0.0162 0.0
H466 H 0.81786 0.81356 0.98406 0.0
H467 H 0.76208 0.78254 0.9581 0.0
Mn468 Mn 0.13932 0.1301 0.91074 0.0
Mn469 Mn 0.11721 0.14956 0.79925 0.0
C470 C 0.07793 0.14859 0.89763 0.0
C471 C 0.14793 0.08296 0.96073 0.0
C472 C 0.1703 0.19043 0.86293 0.0
O473 O 0.18116 0.11289 0.86735 0.0
O474 O 0.14529 0.10633 0.80382 0.0
C475 C 0.06889 0.0905 0.7754 0.0
N476 N 0.07439 0.12492 0.77769 0.0
C477 C 0.00792 0.13311 0.74181 0.0
C478 C 0.00455 0.09667 0.74804 0.0
C479 C 0.03467 0.07666 0.76246 0.0
C480 C 0.04876 0.14676 0.76251 0.0
H481 H 0.09022 0.07311 0.78664 0.0
C482 C 0.17612 0.10236 0.82444 0.0
O483 O 0.16528 0.11151 0.96848 0.0
O484 O 0.12539 0.08204 0.92485 0.0
N485 N 0.09096 0.19217 0.78699 0.0
C486 C 0.10137 0.22482 0.79739 0.0
C487 C 0.08787 0.2533 0.77219 0.0
C488 C 0.05954 0.25098 0.73821 0.0
C489 C 0.04187 0.21997 0.72997 0.0
C490 C 0.06261 0.18643 0.75769 0.0
H491 H 0.11926 0.22955 0.82687 0.0
O492 O 0.09146 0.14677 0.94052 0.0
O493 O 0.10178 0.1418 0.86475 0.0
O494 O 0.1597 0.17833 0.90294 0.0
O495 O 0.16096 0.17694 0.82215 0.0
C496 C 0.00027 0.22033 0.70215 0.0
C497 C 0.97368 0.18434 0.69891 0.0
H498 H 0.98001 0.08228 0.74013 0.0
H499 H 0.03128 0.04915 0.7642 0.0
H500 H 0.09913 0.27825 0.7807 0.0
H501 H 0.0491 0.27416 0.7221 0.0
H502 H 0.98995 0.24394 0.68725 0.0
H503 H 0.94743 0.18611 0.68006 0.0
Mn504 Mn 0.64763 0.40483 0.60526 0.0
Mn505 Mn 0.62068 0.36669 0.70633 0.0
C506 C 0.58554 0.39448 0.61513 0.0
C507 C 0.66484 0.45433 0.56525 0.0
C508 C 0.65624 0.32895 0.6225 0.0
O509 O 0.69261 0.40679 0.64947 0.0
O510 O 0.66854 0.38877 0.71867 0.0
C511 C 0.61446 0.41993 0.7827 0.0
N512 N 0.59757 0.39581 0.75471 0.0
C513 C 0.54725 0.39348 0.82185 0.0
C514 C 0.56769 0.41802 0.84648 0.0
C515 C 0.59988 0.43125 0.82684 0.0
C516 C 0.56559 0.38227 0.76804 0.0
H517 H 0.64033 0.43042 0.7719 0.0
C518 C 0.69481 0.40107 0.69433 0.0
O519 O 0.67573 0.42413 0.55126 0.0
O520 O 0.6449 0.45592 0.60348 0.0
N521 N 0.57503 0.34406 0.69617 0.0
C522 C 0.56825 0.31746 0.66552 0.0
C523 C 0.53407 0.3019 0.66264 0.0
C524 C 0.50559 0.31 0.69377 0.0
C525 C 0.5107 0.33385 0.73316 0.0
C526 C 0.5502 0.35488 0.72769 0.0
H527 H 0.58851 0.30886 0.64042 0.0
O528 O 0.59902 0.40125 0.57358 0.0
O529 O 0.60855 0.39671 0.65159 0.0
O530 O 0.65609 0.35312 0.59239 0.0
O531 O 0.64547 0.33287 0.6653 0.0
C532 C 0.48003 0.35025 0.81603 0.0
C533 C 0.50718 0.37948 0.84587 0.0
H534 H 0.55844 0.42757 0.88089 0.0
H535 H 0.61478 0.45048 0.84722 0.0
H536 H 0.52962 0.28284 0.63478 0.0
H537 H 0.48111 0.29551 0.6868 0.0
H538 H 0.45498 0.34174 0.83337 0.0
H539 H 0.49866 0.38915 0.8805 0.0
Mn540 Mn 0.3524 0.8909 0.38117 0.0
Mn541 Mn 0.37643 0.8655 0.49152 0.0
C542 C 0.35679 0.83263 0.39614 0.0
C543 C 0.30492 0.9073 0.33033 0.0
C544 C 0.43062 0.89226 0.4187 0.0
O545 O 0.34777 0.93473 0.42158 0.0
O546 O 0.3573 0.91369 0.49511 0.0
C547 C 0.30296 0.8642 0.5351 0.0
N548 N 0.33454 0.8477 0.52303 0.0
C549 C 0.31305 0.7948 0.55572 0.0
C550 C 0.28038 0.81128 0.56883 0.0
C551 C 0.2753 0.84612 0.55841 0.0
C552 C 0.33968 0.81418 0.53276 0.0
H553 H 0.2989 0.89092 0.52688 0.0
C554 C 0.34939 0.93843 0.46698 0.0
O555 O 0.33848 0.91583 0.32117 0.0
O556 O 0.29935 0.8905 0.36917 0.0
N557 N 0.39543 0.81976 0.49402 0.0
C558 C 0.42827 0.80756 0.47828 0.0
C559 C 0.43738 0.77296 0.4852 0.0
C560 C 0.41286 0.7514 0.50871 0.0
C561 C 0.37958 0.76473 0.52552 0.0
C562 C 0.37207 0.79946 0.51781 0.0
H563 H 0.44722 0.824 0.46016 0.0
O564 O 0.35651 0.84396 0.35284 0.0
O565 O 0.35298 0.85592 0.42978 0.0
O566 O 0.40853 0.8952 0.38328 0.0
O567 O 0.42087 0.88265 0.46033 0.0
C568 C 0.35331 0.7448 0.54896 0.0
C569 C 0.32005 0.75981 0.564 0.0
H570 H 0.25892 0.79738 0.58664 0.0
H571 H 0.2501 0.85897 0.5682 0.0
H572 H 0.46317 0.7629 0.47226 0.0
H573 H 0.41983 0.72465 0.51359 0.0
H574 H 0.35827 0.71784 0.55525 0.0
H575 H 0.29995 0.74417 0.58165 0.0
C576 C 0.1802 0.77795 0.13708 0.0
C577 C 0.15593 0.79652 0.10799 0.0
H578 H 0.19519 0.72874 0.16447 0.0
C579 C 0.13288 0.77838 0.07626 0.0
H580 H 0.19749 0.79129 0.16282 0.0
C581 C 0.13155 0.74236 0.07725 0.0
C582 C 0.15324 0.72413 0.11 0.0
H583 H 0.11299 0.79203 0.05475 0.0
H584 H 0.11089 0.72913 0.05615 0.0
C585 C 0.17878 0.74213 0.1382 0.0
C586 C 0.49107 0.90854 0.45236 0.0
C587 C 0.47011 0.89868 0.41229 0.0
H588 H 0.54434 0.91416 0.48286 0.0
C589 C 0.48801 0.8912 0.36891 0.0
H590 H 0.47812 0.91503 0.48606 0.0
C591 C 0.52645 0.8908 0.36704 0.0
C592 C 0.54714 0.89789 0.40855 0.0
H593 H 0.47248 0.88347 0.33748 0.0
H594 H 0.53984 0.8827 0.33432 0.0
C595 C 0.52904 0.90811 0.45051 0.0
C596 C 0.31308 0.27195 0.59735 0.0
C597 C 0.3226 0.28905 0.6404 0.0
H598 H 0.30025 0.22316 0.56431 0.0
C599 C 0.32359 0.26954 0.6822 0.0
H600 H 0.30845 0.28628 0.56497 0.0
C601 C 0.32628 0.23391 0.67898 0.0
C602 C 0.32307 0.21647 0.63455 0.0
H603 H 0.32799 0.28163 0.71687 0.0
H604 H 0.33221 0.22028 0.71162 0.0
C605 C 0.31089 0.23581 0.59565 0.0
C606 C 0.0132 0.16725 0.9151 0.0
C607 C 0.03763 0.14561 0.89045 0.0
H608 H 0.95715 0.17741 0.93396 0.0
C609 C 0.02319 0.11629 0.86771 0.0
H610 H 0.02342 0.18854 0.9365 0.0
C611 C 0.98533 0.11135 0.8628 0.0
C612 C 0.96082 0.13413 0.88474 0.0
H613 H 0.04129 0.0958 0.85714 0.0
H614 H 0.97529 0.08842 0.84492 0.0
C615 C 0.97532 0.16087 0.91355 0.0
C616 C 0.19943 0.27798 0.90768 0.0
C617 C 0.18545 0.29728 0.8698 0.0
H618 H 0.2039 0.2274 0.9373 0.0
C619 C 0.18158 0.28049 0.82512 0.0
H620 H 0.20998 0.29065 0.93916 0.0
C621 C 0.18489 0.24492 0.82117 0.0
C622 C 0.18723 0.22521 0.86277 0.0
H623 H 0.17429 0.29452 0.79326 0.0
H624 H 0.17948 0.233 0.78664 0.0
C625 C 0.19815 0.24194 0.9054 0.0
C626 C 0.97565 0.90672 0.14187 0.0
C627 C 0.95999 0.87935 0.11619 0.0
H628 H 0.02479 0.93237 0.1649 0.0
C629 C 0.98299 0.85916 0.08711 0.0
H630 H 0.95832 0.92645 0.15645 0.0
C631 C 0.0209 0.86493 0.08679 0.0
C632 C 0.03671 0.88978 0.11746 0.0
H633 H 0.97154 0.83958 0.06366 0.0
H634 H 0.03803 0.84932 0.06362 0.0
C635 C 0.01362 0.91107 0.14439 0.0
C636 C 0.3873 0.74185 0.37521 0.0
C637 C 0.35834 0.72279 0.39393 0.0
H638 H 0.40976 0.79143 0.36267 0.0
C639 C 0.33068 0.74012 0.41942 0.0
H640 H 0.40902 0.72917 0.35554 0.0
C641 C 0.33105 0.77622 0.4233 0.0
C642 C 0.35963 0.79516 0.40303 0.0
H643 H 0.30787 0.72605 0.43377 0.0
H644 H 0.30824 0.78936 0.44007 0.0
C645 C 0.38786 0.77748 0.37951 0.0
C646 C 0.51468 0.14611 0.58547 0.0
C647 C 0.53158 0.12369 0.6174 0.0
H648 H 0.46485 0.16647 0.55816 0.0
C649 C 0.50977 0.10286 0.64623 0.0
H650 H 0.53093 0.16176 0.56203 0.0
C651 C 0.47141 0.10556 0.64436 0.0
C652 C 0.4545 0.12848 0.61263 0.0
H653 H 0.52235 0.08426 0.66963 0.0
H654 H 0.4551 0.08919 0.66669 0.0
C655 C 0.47673 0.1487 0.58335 0.0
C656 C 0.82174 0.24645 0.86263 0.0
C657 C 0.84296 0.22643 0.89375 0.0
H658 H 0.81333 0.29596 0.83223 0.0
C659 C 0.86664 0.24299 0.92641 0.0
H660 H 0.80376 0.23425 0.8366 0.0
C661 C 0.87227 0.27853 0.92371 0.0
C662 C 0.85413 0.29767 0.88849 0.0
H663 H 0.88404 0.22806 0.9498 0.0
H664 H 0.89334 0.29033 0.94573 0.0
C665 C 0.82748 0.2817 0.85977 0.0
C666 C 0.6356 0.74839 0.32941 0.0
C667 C 0.65172 0.72556 0.36197 0.0
H668 H 0.6233 0.79995 0.31178 0.0
C669 C 0.67496 0.73916 0.39776 0.0
H670 H 0.62002 0.73937 0.29874 0.0
C671 C 0.67989 0.77493 0.40207 0.0
C672 C 0.65917 0.79737 0.37364 0.0
H673 H 0.68944 0.72233 0.42191 0.0
H674 H 0.69957 0.78495 0.42759 0.0
C675 C 0.63796 0.78351 0.33636 0.0
C676 C 0.86967 0.74155 0.13522 0.0
C677 C 0.83902 0.72256 0.12136 0.0
H678 H 0.89234 0.79144 0.14521 0.0
C679 C 0.80543 0.73936 0.11369 0.0
H680 H 0.89565 0.72896 0.14188 0.0
C681 C 0.80275 0.77504 0.12001 0.0
C682 C 0.83376 0.79394 0.13356 0.0
H683 H 0.78128 0.72483 0.1038 0.0
H684 H 0.77681 0.78782 0.11395 0.0
C685 C 0.8675 0.77707 0.1385 0.0
C686 C 0.64043 0.27639 0.57502 0.0
C687 C 0.66366 0.29303 0.60817 0.0
H688 H 0.61441 0.22888 0.55482 0.0
C689 C 0.68471 0.27305 0.63953 0.0
H690 H 0.62317 0.29128 0.55138 0.0
C691 C 0.6793 0.23773 0.64199 0.0
C692 C 0.65312 0.22161 0.61267 0.0
H693 H 0.7024 0.28527 0.66588 0.0
H694 H 0.69335 0.22348 0.66964 0.0
C695 C 0.63513 0.24076 0.57732 0.0
C696 C 0.03733 0.40934 0.86158 0.0
C697 C 0.05255 0.38534 0.89322 0.0
H698 H 0.98788 0.43258 0.83459 0.0
C699 C 0.02879 0.36511 0.92037 0.0
H700 H 0.0548 0.42564 0.84068 0.0
C701 C 0.99103 0.36896 0.91662 0.0
C702 C 0.97582 0.39256 0.88489 0.0
H703 H 0.03931 0.34636 0.9452 0.0
H704 H 0.97357 0.3534 0.93866 0.0
C705 C 0.99915 0.41319 0.85788 0.0
C706 C 0.51904 0.59311 0.36197 0.0
C707 C 0.53701 0.61674 0.39228 0.0
H708 H 0.46763 0.57023 0.34261 0.0
C709 C 0.51654 0.63338 0.4282 0.0
H710 H 0.53457 0.57675 0.33796 0.0
C711 C 0.47842 0.63056 0.42881 0.0
C712 C 0.45992 0.61044 0.39421 0.0
H713 H 0.5298 0.65012 0.45418 0.0
H714 H 0.46321 0.64533 0.45515 0.0
C715 C 0.48079 0.58981 0.36346 0.0
C716 C 0.52135 0.40873 0.64087 0.0
C717 C 0.54571 0.3864 0.61764 0.0
H718 H 0.46537 0.42397 0.64843 0.0
C719 C 0.53083 0.35996 0.58861 0.0
H720 H 0.53155 0.43138 0.65929 0.0
C721 C 0.4929 0.35353 0.58768 0.0
C722 C 0.46865 0.37476 0.61335 0.0
H723 H 0.54874 0.34368 0.56742 0.0
H724 H 0.48248 0.3325 0.56593 0.0
C725 C 0.48338 0.40373 0.63672 0.0
C726 C 0.02161 0.64828 0.06956 0.0
C727 C 0.03639 0.62697 0.10468 0.0
H728 H 0.97357 0.66815 0.03646 0.0
C729 C 0.01287 0.6073 0.13258 0.0
H730 H 0.03935 0.66287 0.04663 0.0
C731 C 0.97486 0.61051 0.12728 0.0
C732 C 0.95993 0.63268 0.0929 0.0
H733 H 0.02387 0.58939 0.15825 0.0
H734 H 0.95726 0.59542 0.14971 0.0
C735 C 0.98386 0.65121 0.0638 0.0
C736 C 0.17843 0.52606 1.00067 0.0
C737 C 0.16404 0.52662 0.04719 0.0
H738 H 0.1904 0.49589 0.93788 0.0
C739 C 0.15315 0.49551 0.06737 0.0
H740 H 0.18691 0.54961 0.98403 0.0
C741 C 0.15534 0.46476 0.0412 0.0
C742 C 0.16806 0.46426 0.99379 0.0
H743 H 0.14204 0.495 0.10318 0.0
H744 H 0.14586 0.44152 0.05777 0.0
C745 C 0.18022 0.49526 0.97414 0.0
C746 C 0.72557 0.92441 0.23709 0.0
C747 C 0.73522 0.92509 0.2859 0.0
H748 H 0.74484 0.9216 0.1646 0.0
C749 C 0.7721 0.92814 0.29889 0.0
H750 H 0.69722 0.92171 0.22623 0.0
C751 C 0.79908 0.92868 0.26395 0.0
C752 C 0.78992 0.92522 0.21508 0.0
H753 H 0.78022 0.9287 0.33624 0.0
H754 H 0.82736 0.92987 0.27564 0.0
C755 C 0.75278 0.92413 0.20187 0.0
C756 C 0.34596 0.50078 0.54824 0.0
C757 C 0.34326 0.46852 0.52535 0.0
H758 H 0.34387 0.55548 0.54089 0.0
C759 C 0.33324 0.46712 0.47679 0.0
H760 H 0.35332 0.50265 0.58578 0.0
C761 C 0.32851 0.49741 0.4509 0.0
C762 C 0.33239 0.52969 0.47344 0.0
H763 H 0.3309 0.44265 0.45824 0.0
H764 H 0.32304 0.4956 0.41282 0.0
C765 C 0.34006 0.53104 0.52272 0.0
C766 C 0.71087 0.11446 0.77974 0.0
C767 C 0.71064 0.11289 0.72937 0.0
H768 H 0.74332 0.11672 0.84392 0.0
C769 C 0.7441 0.10939 0.70535 0.0
H770 H 0.68553 0.11688 0.79939 0.0
C771 C 0.77707 0.10961 0.73079 0.0
C772 C 0.77744 0.1128 0.78097 0.0
H773 H 0.74502 0.10804 0.66665 0.0
H774 H 0.80236 0.10834 0.7109 0.0
C775 C 0.74395 0.11415 0.80531 0.0
C776 C 0.85522 0.52399 0.92984 0.0
C777 C 0.84721 0.49282 0.95191 0.0
H778 H 0.8594 0.57835 0.93711 0.0
C779 C 0.83426 0.49338 0.99912 0.0
H780 H 0.86501 0.5244 0.89336 0.0
C781 C 0.83137 0.52446 0.02463 0.0
C782 C 0.84098 0.55558 0.00317 0.0
H783 H 0.82788 0.46973 0.01705 0.0
H784 H 0.82261 0.52395 0.06155 0.0
C785 C 0.85193 0.55498 0.95501 0.0
C786 C 0.24372 0.09439 0.81048 0.0
C787 C 0.20735 0.09082 0.79447 0.0
H788 H 0.30019 0.09783 0.79031 0.0
C789 C 0.20096 0.08162 0.74626 0.0
H790 H 0.24964 0.10135 0.84736 0.0
C791 C 0.22969 0.08014 0.71376 0.0
C792 C 0.26556 0.08698 0.72885 0.0
H793 H 0.17339 0.07815 0.73265 0.0
H794 H 0.22353 0.07582 0.6762 0.0
C795 C 0.2727 0.09226 0.77786 0.0
C796 C 0.67586 0.50941 0.45657 0.0
C797 C 0.6705 0.54246 0.47577 0.0
H798 H 0.67947 0.45567 0.47021 0.0
C799 C 0.6677 0.54683 0.52553 0.0
H800 H 0.67786 0.50544 0.41824 0.0
C801 C 0.66747 0.51819 0.5553 0.0
C802 C 0.67106 0.48492 0.53576 0.0
H803 H 0.66307 0.57207 0.54103 0.0
H804 H 0.66312 0.52196 0.5933 0.0
C805 C 0.67674 0.48096 0.48635 0.0
C806 C 0.23848 0.90981 0.31483 0.0
C807 C 0.27401 0.91324 0.29716 0.0
H808 H 0.18211 0.90371 0.29925 0.0
C809 C 0.27894 0.91755 0.24771 0.0
H810 H 0.23366 0.90684 0.35276 0.0
C811 C 0.24873 0.916 0.21627 0.0
C812 C 0.21346 0.90993 0.2341 0.0
H813 H 0.30615 0.92015 0.23317 0.0
H814 H 0.25321 0.91771 0.17813 0.0
C815 C 0.20875 0.90801 0.28387 0.0
C816 C 0.67462 0.02669 0.50034 0.0
C817 C 0.66255 0.02696 0.54798 0.0
H818 H 0.68555 0.99643 0.43736 0.0
C819 C 0.65603 0.99559 0.57032 0.0
H820 H 0.67988 0.0505 0.48219 0.0
C821 C 0.65966 0.96468 0.54499 0.0
C822 C 0.66941 0.96434 0.49635 0.0
H823 H 0.64701 0.99494 0.60713 0.0
H824 H 0.65312 0.94116 0.56313 0.0
C825 C 0.6778 0.99569 0.47466 0.0
C826 C 0.30722 0.4302 0.76599 0.0
C827 C 0.29927 0.42261 0.71761 0.0
H828 H 0.28661 0.43521 0.83723 0.0
C829 C 0.26244 0.42084 0.70302 0.0
H830 H 0.33521 0.43224 0.77861 0.0
C831 C 0.23439 0.42349 0.73694 0.0
C832 C 0.24289 0.4274 0.78586 0.0
H833 H 0.25536 0.41519 0.66608 0.0
H834 H 0.20638 0.41948 0.72539 0.0
C835 C 0.27938 0.43211 0.79976 0.0
C836 C 0.84078 0.03663 0.01463 0.0
C837 C 0.83991 0.0338 0.96452 0.0
H838 H 0.84501 0.01007 0.08111 0.0
C839 C 0.83916 1.0011 0.94288 0.0
H840 H 0.84176 0.06156 0.03215 0.0
C841 C 0.83999 0.97167 0.97095 0.0
C842 C 0.84295 0.97457 0.02093 0.0
H843 H 0.83863 0.99831 0.90427 0.0
H844 H 0.84008 0.9467 0.95349 0.0
C845 C 0.84291 0.00725 0.04258 0.0
C846 C 0.2402 0.59933 0.21747 0.0
C847 C 0.20774 0.61319 0.2363 0.0
H848 H 0.29663 0.58773 0.22916 0.0
C849 C 0.20723 0.62311 0.28503 0.0
H850 H 0.24169 0.59106 0.18038 0.0
C851 C 0.23898 0.62095 0.31338 0.0
C852 C 0.27192 0.60902 0.2935 0.0
H853 H 0.18262 0.63359 0.30098 0.0
H854 H 0.23817 0.63025 0.35005 0.0
C855 C 0.27181 0.59736 0.2456 0.0
C856 C 0.34155 0.03584 0.48042 0.0
C857 C 0.33944 0.04029 0.5304 0.0
H858 H 0.34593 1.00052 0.42118 0.0
C859 C 0.33835 0.01076 0.55883 0.0
H860 H 0.34232 0.05785 0.45727 0.0
C861 C 0.3406 0.97789 0.53818 0.0
C862 C 0.34374 0.9734 0.48836 0.0
H863 H 0.33664 0.01293 0.59742 0.0
H864 H 0.34044 0.95596 0.56152 0.0
C865 C 0.34353 1.00285 0.45968 0.0
C866 C 0.7341 0.58935 0.1911 0.0
C867 C 0.76995 0.59313 0.20826 0.0
H868 H 0.67735 0.59041 0.20717 0.0
C869 C 0.77615 0.59577 0.25783 0.0
H870 H 0.72866 0.58714 0.15303 0.0
C871 C 0.74644 0.59808 0.28934 0.0
C872 C 0.71038 0.59774 0.2714 0.0
H873 H 0.80363 0.59908 0.2718 0.0
H874 H 0.75172 0.60261 0.32706 0.0
C875 C 0.70468 0.59151 0.22225 0.0
C876 C 0.15463 0.0248 0.06802 0.0
C877 C 0.15687 0.99228 0.04578 0.0
H878 H 0.15128 0.07937 0.05836 0.0
C879 C 0.15887 0.9902 0.99568 0.0
H880 H 0.15288 0.0271 0.1066 0.0
C881 C 0.15662 0.01987 0.96825 0.0
C882 C 0.15367 0.0523 0.99038 0.0
H883 H 0.16023 0.9655 0.97755 0.0
H884 H 0.15669 0.01745 0.92959 0.0
C885 C 0.15374 0.05464 0.04053 0.0
C886 C 0.76348 0.40409 0.69538 0.0
C887 C 0.73006 0.40648 0.71978 0.0
H888 H 0.82186 0.40048 0.70118 0.0
C889 C 0.73062 0.41057 0.76985 0.0
H890 H 0.76397 0.40081 0.65685 0.0
C891 C 0.76366 0.4107 0.79517 0.0
C892 C 0.79701 0.40621 0.77115 0.0
H893 H 0.70538 0.41266 0.78977 0.0
H894 H 0.76286 0.41278 0.83382 0.0
C895 C 0.79662 0.40369 0.72084 0.0
loop_
_geom_bond_atom_site_label_1
_geom_bond_atom_site_label_2
_geom_bond_distance
_geom_bond_site_symmetry_2
_ccdc_geom_bond_type
Mn0 O5 2.095 . S
Mn0 O15 2.162 . S
Mn0 O16 2.297 . S
Mn0 O24 2.385 . S
Mn0 O25 2.209 . S
Mn0 O26 2.094 . S
Mn1 O6 2.121 . S
Mn1 N8 2.257 . S
Mn1 N17 2.282 . S
Mn1 O25 2.215 . S
Mn1 O27 2.117 . S
C2 O24 1.234 . S
C2 O25 1.283 . S
C3 O15 1.281 . S
C3 O16 1.236 . S
C4 O26 1.240 . S
C4 O27 1.264 . S
O5 Mn0 2.095 . S
O5 C14 1.250 . S
O6 Mn1 2.121 . S
O6 C14 1.258 . S
C7 N8 1.326 . S
C7 C11 1.460 . S
C7 H13 0.929 . S
N8 Mn1 2.257 . S
N8 C7 1.326 . S
N8 C12 1.362 . S
C9 C10 1.258 . S
C9 C12 1.431 . S
C9 C29 1.449 . S
C10 C9 1.258 . S
C10 C11 1.477 . S
C10 H30 0.931 . S
C11 C7 1.460 . S
C11 C10 1.477 . S
C11 H31 0.930 . S
C12 N8 1.362 . S
C12 C9 1.431 . S
C12 C22 1.476 . S
H13 C7 0.929 . S
C14 O5 1.250 . S
C14 O6 1.258 . S
O15 Mn0 2.162 . S
O15 C3 1.281 . S
O16 Mn0 2.297 . S
O16 C3 1.236 . S
N17 Mn1 2.282 . S
N17 C18 1.328 . S
N17 C22 1.318 . S
C18 N17 1.328 . S
C18 C19 1.457 . S
C18 H23 0.929 . S
C19 C18 1.457 . S
C19 C20 1.291 . S
C19 H32 0.931 . S
C20 C19 1.291 . S
C20 C21 1.373 . S
C20 H33 0.929 1_455 S
C21 C20 1.373 . S
C21 C22 1.396 . S
C21 C28 1.403 1_455 S
C22 C12 1.476 . S
C22 N17 1.318 . S
C22 C21 1.396 . S
H23 C18 0.929 . S
O24 Mn0 2.385 . S
O24 C2 1.234 . S
O25 Mn0 2.209 . S
O25 Mn1 2.215 . S
O25 C2 1.283 . S
O26 Mn0 2.094 . S
O26 C4 1.240 . S
O27 Mn1 2.117 . S
O27 C4 1.264 . S
C28 C21 1.403 1_655 S
C28 C29 1.399 1_655 S
C28 H34 0.929 . S
C29 C9 1.449 . S
C29 C28 1.399 1_455 S
C29 H35 0.930 1_455 S
H30 C10 0.931 . S
H31 C11 0.930 . S
H32 C19 0.931 . S
H33 C20 0.929 1_655 S
H34 C28 0.929 . S
H35 C29 0.930 1_655 S
Mn36 O41 2.095 . S
Mn36 O51 2.162 . S
Mn36 O52 2.297 . S
Mn36 O60 2.385 . S
Mn36 O61 2.209 . S
Mn36 O62 2.094 . S
Mn37 O42 2.121 . S
Mn37 N44 2.257 . S
Mn37 N53 2.282 . S
Mn37 O61 2.215 . S
Mn37 O63 2.117 . S
C38 O60 1.234 . S
C38 O61 1.283 . S
C39 O51 1.281 . S
C39 O52 1.236 . S
C40 O62 1.240 . S
C40 O63 1.264 . S
O41 Mn36 2.095 . S
O41 C50 1.250 . S
O42 Mn37 2.121 . S
O42 C50 1.258 . S
C43 N44 1.326 . S
C43 C47 1.460 . S
C43 H49 0.929 . S
N44 Mn37 2.257 . S
N44 C43 1.326 . S
N44 C48 1.362 . S
C45 C46 1.258 . S
C45 C48 1.431 . S
C45 C65 1.449 . S
C46 C45 1.258 . S
C46 C47 1.477 . S
C46 H66 0.931 . S
C47 C43 1.460 . S
C47 C46 1.477 . S
C47 H67 0.930 . S
C48 N44 1.362 . S
C48 C45 1.431 . S
C48 C58 1.476 . S
H49 C43 0.929 . S
C50 O41 1.250 . S
C50 O42 1.258 . S
O51 Mn36 2.162 . S
O51 C39 1.281 . S
O52 Mn36 2.297 . S
O52 C39 1.236 . S
N53 Mn37 2.282 . S
N53 C54 1.328 . S
N53 C58 1.318 . S
C54 N53 1.328 . S
C54 C55 1.457 . S
C54 H59 0.929 . S
C55 C54 1.457 . S
C55 C56 1.291 . S
C55 H68 0.931 . S
C56 C55 1.291 . S
C56 C57 1.373 . S
C56 H69 0.929 . S
C57 C56 1.373 . S
C57 C58 1.396 . S
C57 C64 1.403 . S
C58 C48 1.476 . S
C58 N53 1.318 . S
C58 C57 1.396 . S
H59 C54 0.929 . S
O60 Mn36 2.385 . S
O60 C38 1.234 . S
O61 Mn36 2.209 . S
O61 Mn37 2.215 . S
O61 C38 1.283 . S
O62 Mn36 2.094 . S
O62 C40 1.240 . S
O63 Mn37 2.117 . S
O63 C40 1.264 . S
C64 C57 1.403 . S
C64 C65 1.399 . S
C64 H70 0.929 . S
C65 C45 1.449 . S
C65 C64 1.399 . S
C65 H71 0.930 . S
H66 C46 0.931 . S
H67 C47 0.930 . S
H68 C55 0.931 . S
H69 C56 0.929 . S
H70 C64 0.929 . S
H71 C65 0.930 . S
Mn72 O77 2.095 . S
Mn72 O87 2.162 . S
Mn72 O88 2.297 . S
Mn72 O96 2.385 . S
Mn72 O97 2.209 . S
Mn72 O98 2.094 . S
Mn73 O78 2.121 . S
Mn73 N80 2.257 . S
Mn73 N89 2.282 . S
Mn73 O97 2.215 . S
Mn73 O99 2.117 . S
C74 O96 1.234 . S
C74 O97 1.283 . S
C75 O87 1.281 . S
C75 O88 1.236 . S
C76 O98 1.240 . S
C76 O99 1.264 . S
O77 Mn72 2.095 . S
O77 C86 1.250 . S
O78 Mn73 2.121 . S
O78 C86 1.258 . S
C79 N80 1.326 . S
C79 C83 1.460 . S
C79 H85 0.929 . S
N80 Mn73 2.257 . S
N80 C79 1.326 . S
N80 C84 1.362 . S
C81 C82 1.258 . S
C81 C84 1.431 . S
C81 C101 1.449 . S
C82 C81 1.258 . S
C82 C83 1.477 . S
C82 H102 0.931 . S
C83 C79 1.460 . S
C83 C82 1.477 . S
C83 H103 0.930 . S
C84 N80 1.362 . S
C84 C81 1.431 . S
C84 C94 1.476 . S
H85 C79 0.929 . S
C86 O77 1.250 . S
C86 O78 1.258 . S
O87 Mn72 2.162 . S
O87 C75 1.281 . S
O88 Mn72 2.297 . S
O88 C75 1.236 . S
N89 Mn73 2.282 . S
N89 C90 1.328 . S
N89 C94 1.318 . S
C90 N89 1.328 . S
C90 C91 1.457 . S
C90 H95 0.929 . S
C91 C90 1.457 . S
C91 C92 1.291 . S
C91 H104 0.931 . S
C92 C91 1.291 . S
C92 C93 1.373 . S
C92 H105 0.929 . S
C93 C92 1.373 . S
C93 C94 1.396 . S
C93 C100 1.403 . S
C94 C84 1.476 . S
C94 N89 1.318 . S
C94 C93 1.396 . S
H95 C90 0.929 . S
O96 Mn72 2.385 . S
O96 C74 1.234 . S
O97 Mn72 2.209 . S
O97 Mn73 2.215 . S
O97 C74 1.283 . S
O98 Mn72 2.094 . S
O98 C76 1.240 . S
O99 Mn73 2.117 . S
O99 C76 1.264 . S
C100 C93 1.403 . S
C100 C101 1.399 . S
C100 H106 0.929 . S
C101 C81 1.449 . S
C101 C100 1.399 . S
C101 H107 0.930 . S
H102 C82 0.931 . S
H103 C83 0.930 . S
H104 C91 0.931 . S
H105 C92 0.929 . S
H106 C100 0.929 . S
H107 C101 0.930 . S
Mn108 O113 2.095 . S
Mn108 O123 2.162 . S
Mn108 O124 2.297 . S
Mn108 O132 2.385 . S
Mn108 O133 2.209 . S
Mn108 O134 2.094 . S
Mn109 O114 2.121 . S
Mn109 N116 2.257 . S
Mn109 N125 2.282 . S
Mn109 O133 2.215 . S
Mn109 O135 2.117 . S
C110 O132 1.234 . S
C110 O133 1.283 . S
C111 O123 1.281 . S
C111 O124 1.236 . S
C112 O134 1.240 . S
C112 O135 1.264 . S
O113 Mn108 2.095 . S
O113 C122 1.250 . S
O114 Mn109 2.121 . S
O114 C122 1.258 . S
C115 N116 1.326 . S
C115 C119 1.460 . S
C115 H121 0.929 . S
N116 Mn109 2.257 . S
N116 C115 1.326 . S
N116 C120 1.362 . S
C117 C118 1.258 . S
C117 C120 1.431 . S
C117 C137 1.449 1_655 S
C118 C117 1.258 . S
C118 C119 1.477 . S
C118 H138 0.931 . S
C119 C115 1.460 . S
C119 C118 1.477 . S
C119 H139 0.930 . S
C120 N116 1.362 . S
C120 C117 1.431 . S
C120 C130 1.476 . S
H121 C115 0.929 . S
C122 O113 1.250 . S
C122 O114 1.258 . S
O123 Mn108 2.162 . S
O123 C111 1.281 . S
O124 Mn108 2.297 . S
O124 C111 1.236 . S
N125 Mn109 2.282 . S
N125 C126 1.328 . S
N125 C130 1.318 . S
C126 N125 1.328 . S
C126 C127 1.457 . S
C126 H131 0.929 . S
C127 C126 1.457 . S
C127 C128 1.291 1_655 S
C127 H140 0.931 . S
C128 C127 1.291 1_455 S
C128 C129 1.373 1_455 S
C128 H141 0.929 . S
C129 C128 1.373 1_655 S
C129 C130 1.396 . S
C129 C136 1.403 1_655 S
C130 C120 1.476 . S
C130 N125 1.318 . S
C130 C129 1.396 . S
H131 C126 0.929 . S
O132 Mn108 2.385 . S
O132 C110 1.234 . S
O133 Mn108 2.209 . S
O133 Mn109 2.215 . S
O133 C110 1.283 . S
O134 Mn108 2.094 . S
O134 C112 1.240 . S
O135 Mn109 2.117 . S
O135 C112 1.264 . S
C136 C129 1.403 1_455 S
C136 C137 1.399 . S
C136 H142 0.929 . S
C137 C117 1.449 1_455 S
C137 C136 1.399 . S
C137 H143 0.930 . S
H138 C118 0.931 . S
H139 C119 0.930 . S
H140 C127 0.931 . S
H141 C128 0.929 . S
H142 C136 0.929 . S
H143 C137 0.930 . S
Mn144 O149 2.095 . S
Mn144 O159 2.162 . S
Mn144 O160 2.297 . S
Mn144 O168 2.385 . S
Mn144 O169 2.209 . S
Mn144 O170 2.094 . S
Mn145 O150 2.121 . S
Mn145 N152 2.257 1_556 S
Mn145 N161 2.282 . S
Mn145 O169 2.215 . S
Mn145 O171 2.117 . S
C146 O168 1.234 . S
C146 O169 1.283 . S
C147 O159 1.281 . S
C147 O160 1.236 . S
C148 O170 1.240 . S
C148 O171 1.264 . S
O149 Mn144 2.095 . S
O149 C158 1.250 . S
O150 Mn145 2.121 . S
O150 C158 1.258 . S
C151 N152 1.326 . S
C151 C155 1.460 . S
C151 H157 0.929 . S
N152 Mn145 2.257 1_554 S
N152 C151 1.326 . S
N152 C156 1.362 . S
C153 C154 1.258 . S
C153 C156 1.431 . S
C153 C173 1.449 . S
C154 C153 1.258 . S
C154 C155 1.477 . S
C154 H174 0.931 . S
C155 C151 1.460 . S
C155 C154 1.477 . S
C155 H175 0.930 . S
C156 N152 1.362 . S
C156 C153 1.431 . S
C156 C166 1.476 . S
H157 C151 0.929 . S
C158 O149 1.250 . S
C158 O150 1.258 . S
O159 Mn144 2.162 . S
O159 C147 1.281 . S
O160 Mn144 2.297 . S
O160 C147 1.236 . S
N161 Mn145 2.282 . S
N161 C162 1.328 . S
N161 C166 1.318 1_556 S
C162 N161 1.328 . S
C162 C163 1.457 . S
C162 H167 0.929 . S
C163 C162 1.457 . S
C163 C164 1.291 . S
C163 H176 0.931 . S
C164 C163 1.291 . S
C164 C165 1.373 1_556 S
C164 H177 0.929 . S
C165 C164 1.373 1_554 S
C165 C166 1.396 . S
C165 C172 1.403 . S
C166 C156 1.476 . S
C166 N161 1.318 1_554 S
C166 C165 1.396 . S
H167 C162 0.929 . S
O168 Mn144 2.385 . S
O168 C146 1.234 . S
O169 Mn144 2.209 . S
O169 Mn145 2.215 . S
O169 C146 1.283 . S
O170 Mn144 2.094 . S
O170 C148 1.240 . S
O171 Mn145 2.117 . S
O171 C148 1.264 . S
C172 C165 1.403 . S
C172 C173 1.399 . S
C172 H178 0.929 . S
C173 C153 1.449 . S
C173 C172 1.399 . S
C173 H179 0.930 . S
H174 C154 0.931 . S
H175 C155 0.930 . S
H176 C163 0.931 . S
H177 C164 0.929 . S
H178 C172 0.929 . S
H179 C173 0.930 . S
Mn180 O185 2.095 . S
Mn180 O195 2.162 . S
Mn180 O196 2.297 . S
Mn180 O204 2.385 . S
Mn180 O205 2.209 . S
Mn180 O206 2.094 . S
Mn181 O186 2.121 . S
Mn181 N188 2.257 . S
Mn181 N197 2.282 . S
Mn181 O205 2.215 . S
Mn181 O207 2.117 . S
C182 O204 1.234 . S
C182 O205 1.283 . S
C183 O195 1.281 . S
C183 O196 1.236 . S
C184 O206 1.240 . S
C184 O207 1.264 . S
O185 Mn180 2.095 . S
O185 C194 1.250 . S
O186 Mn181 2.121 . S
O186 C194 1.258 . S
C187 N188 1.326 . S
C187 C191 1.460 . S
C187 H193 0.929 . S
N188 Mn181 2.257 . S
N188 C187 1.326 . S
N188 C192 1.362 . S
C189 C190 1.258 . S
C189 C192 1.431 . S
C189 C209 1.449 1_655 S
C190 C189 1.258 . S
C190 C191 1.477 . S
C190 H210 0.931 . S
C191 C187 1.460 . S
C191 C190 1.477 . S
C191 H211 0.930 . S
C192 N188 1.362 . S
C192 C189 1.431 . S
C192 C202 1.476 . S
H193 C187 0.929 . S
C194 O185 1.250 . S
C194 O186 1.258 . S
O195 Mn180 2.162 . S
O195 C183 1.281 . S
O196 Mn180 2.297 . S
O196 C183 1.236 . S
N197 Mn181 2.282 . S
N197 C198 1.328 . S
N197 C202 1.318 . S
C198 N197 1.328 . S
C198 C199 1.457 . S
C198 H203 0.929 . S
C199 C198 1.457 . S
C199 C200 1.291 1_655 S
C199 H212 0.931 . S
C200 C199 1.291 1_455 S
C200 C201 1.374 1_455 S
C200 H213 0.929 . S
C201 C200 1.374 1_655 S
C201 C202 1.393 . S
C201 C208 1.405 1_655 S
C202 C192 1.476 . S
C202 N197 1.318 . S
C202 C201 1.393 . S
H203 C198 0.929 . S
O204 Mn180 2.385 . S
O204 C182 1.234 . S
O205 Mn180 2.209 . S
O205 Mn181 2.215 . S
O205 C182 1.283 . S
O206 Mn180 2.094 . S
O206 C184 1.240 . S
O207 Mn181 2.117 . S
O207 C184 1.264 . S
C208 C201 1.405 1_455 S
C208 C209 1.399 . S
C208 H214 0.929 . S
C209 C189 1.449 1_455 S
C209 C208 1.399 . S
C209 H215 0.930 . S
H210 C190 0.931 . S
H211 C191 0.930 . S
H212 C199 0.931 . S
H213 C200 0.929 . S
H214 C208 0.929 . S
H215 C209 0.930 . S
Mn216 O221 2.095 . S
Mn216 O231 2.162 . S
Mn216 O232 2.297 . S
Mn216 O240 2.385 . S
Mn216 O241 2.209 . S
Mn216 O242 2.094 . S
Mn217 O222 2.121 . S
Mn217 N224 2.257 . S
Mn217 N233 2.282 . S
Mn217 O241 2.215 . S
Mn217 O243 2.117 . S
C218 O240 1.234 . S
C218 O241 1.283 . S
C219 O231 1.281 . S
C219 O232 1.236 . S
C220 O242 1.240 . S
C220 O243 1.264 . S
O221 Mn216 2.095 . S
O221 C230 1.250 . S
O222 Mn217 2.121 . S
O222 C230 1.258 . S
C223 N224 1.326 . S
C223 C227 1.460 . S
C223 H229 0.929 . S
N224 Mn217 2.257 . S
N224 C223 1.326 . S
N224 C228 1.362 . S
C225 C226 1.258 . S
C225 C228 1.431 . S
C225 C245 1.449 . S
C226 C225 1.258 . S
C226 C227 1.477 . S
C226 H246 0.931 . S
C227 C223 1.460 . S
C227 C226 1.477 . S
C227 H247 0.930 . S
C228 N224 1.362 . S
C228 C225 1.431 . S
C228 C238 1.476 . S
H229 C223 0.929 . S
C230 O221 1.250 . S
C230 O222 1.258 . S
O231 Mn216 2.162 . S
O231 C219 1.281 . S
O232 Mn216 2.297 . S
O232 C219 1.236 . S
N233 Mn217 2.282 . S
N233 C234 1.328 . S
N233 C238 1.318 . S
C234 N233 1.328 . S
C234 C235 1.457 . S
C234 H239 0.929 . S
C235 C234 1.457 . S
C235 C236 1.291 . S
C235 H248 0.931 . S
C236 C235 1.291 . S
C236 C237 1.373 . S
C236 H249 0.929 . S
C237 C236 1.373 . S
C237 C238 1.396 . S
C237 C244 1.403 . S
C238 C228 1.476 . S
C238 N233 1.318 . S
C238 C237 1.396 . S
H239 C234 0.929 . S
O240 Mn216 2.385 . S
O240 C218 1.234 . S
O241 Mn216 2.209 . S
O241 Mn217 2.215 . S
O241 C218 1.283 . S
O242 Mn216 2.094 . S
O242 C220 1.240 . S
O243 Mn217 2.117 . S
O243 C220 1.264 . S
C244 C237 1.403 . S
C244 C245 1.399 . S
C244 H250 0.929 . S
C245 C225 1.449 . S
C245 C244 1.399 . S
C245 H251 0.930 . S
H246 C226 0.931 . S
H247 C227 0.930 . S
H248 C235 0.931 . S
H249 C236 0.929 . S
H250 C244 0.929 . S
H251 C245 0.930 . S
Mn252 O257 2.095 . S
Mn252 O267 2.162 . S
Mn252 O268 2.297 . S
Mn252 O276 2.385 . S
Mn252 O277 2.209 . S
Mn252 O278 2.094 . S
Mn253 O258 2.121 . S
Mn253 N260 2.257 . S
Mn253 N269 2.282 . S
Mn253 O277 2.215 . S
Mn253 O279 2.117 . S
C254 O276 1.234 . S
C254 O277 1.283 . S
C255 O267 1.281 . S
C255 O268 1.236 . S
C256 O278 1.240 . S
C256 O279 1.264 . S
O257 Mn252 2.095 . S
O257 C266 1.250 . S
O258 Mn253 2.121 . S
O258 C266 1.258 . S
C259 N260 1.326 . S
C259 C263 1.460 . S
C259 H265 0.929 . S
N260 Mn253 2.257 . S
N260 C259 1.326 . S
N260 C264 1.362 . S
C261 C262 1.258 . S
C261 C264 1.431 . S
C261 C281 1.449 . S
C262 C261 1.258 . S
C262 C263 1.477 . S
C262 H282 0.931 . S
C263 C259 1.460 . S
C263 C262 1.477 . S
C263 H283 0.930 . S
C264 N260 1.362 . S
C264 C261 1.431 . S
C264 C274 1.476 . S
H265 C259 0.929 . S
C266 O257 1.250 . S
C266 O258 1.258 . S
O267 Mn252 2.162 . S
O267 C255 1.281 . S
O268 Mn252 2.297 . S
O268 C255 1.236 . S
N269 Mn253 2.282 . S
N269 C270 1.328 . S
N269 C274 1.318 . S
C270 N269 1.328 . S
C270 C271 1.457 . S
C270 H275 0.929 . S
C271 C270 1.457 . S
C271 C272 1.291 . S
C271 H284 0.931 . S
C272 C271 1.291 . S
C272 C273 1.373 . S
C272 H285 0.929 . S
C273 C272 1.373 . S
C273 C274 1.396 . S
C273 C280 1.403 . S
C274 C264 1.476 . S
C274 N269 1.318 . S
C274 C273 1.396 . S
H275 C270 0.929 . S
O276 Mn252 2.385 . S
O276 C254 1.234 . S
O277 Mn252 2.209 . S
O277 Mn253 2.215 . S
O277 C254 1.283 . S
O278 Mn252 2.094 . S
O278 C256 1.240 . S
O279 Mn253 2.117 . S
O279 C256 1.264 . S
C280 C273 1.403 . S
C280 C281 1.399 . S
C280 H286 0.929 . S
C281 C261 1.449 . S
C281 C280 1.399 . S
C281 H287 0.930 . S
H282 C262 0.931 . S
H283 C263 0.930 . S
H284 C271 0.931 . S
H285 C272 0.929 . S
H286 C280 0.929 . S
H287 C281 0.930 . S
Mn288 O293 2.095 . S
Mn288 O303 2.162 . S
Mn288 O304 2.297 . S
Mn288 O312 2.385 . S
Mn288 O313 2.209 . S
Mn288 O314 2.094 . S
Mn289 O294 2.121 . S
Mn289 N296 2.257 . S
Mn289 N305 2.282 . S
Mn289 O313 2.215 . S
Mn289 O315 2.117 . S
C290 O312 1.234 . S
C290 O313 1.283 . S
C291 O303 1.281 . S
C291 O304 1.236 . S
C292 O314 1.240 . S
C292 O315 1.264 . S
O293 Mn288 2.095 . S
O293 C302 1.250 . S
O294 Mn289 2.121 . S
O294 C302 1.258 . S
C295 N296 1.326 . S
C295 C299 1.460 . S
C295 H301 0.929 . S
N296 Mn289 2.257 . S
N296 C295 1.326 . S
N296 C300 1.362 . S
C297 C298 1.258 . S
C297 C300 1.431 . S
C297 C317 1.449 . S
C298 C297 1.258 . S
C298 C299 1.477 . S
C298 H318 0.931 . S
C299 C295 1.460 . S
C299 C298 1.477 . S
C299 H319 0.930 . S
C300 N296 1.362 . S
C300 C297 1.431 . S
C300 C310 1.476 . S
H301 C295 0.929 . S
C302 O293 1.250 . S
C302 O294 1.258 . S
O303 Mn288 2.162 . S
O303 C291 1.281 . S
O304 Mn288 2.297 . S
O304 C291 1.236 . S
N305 Mn289 2.282 . S
N305 C306 1.328 . S
N305 C310 1.318 . S
C306 N305 1.328 . S
C306 C307 1.457 . S
C306 H311 0.929 . S
C307 C306 1.457 . S
C307 C308 1.291 . S
C307 H320 0.931 . S
C308 C307 1.291 . S
C308 C309 1.373 . S
C308 H321 0.929 1_655 S
C309 C308 1.373 . S
C309 C310 1.396 . S
C309 C316 1.403 1_655 S
C310 C300 1.476 . S
C310 N305 1.318 . S
C310 C309 1.396 . S
H311 C306 0.929 . S
O312 Mn288 2.385 . S
O312 C290 1.234 . S
O313 Mn288 2.209 . S
O313 Mn289 2.215 . S
O313 C290 1.283 . S
O314 Mn288 2.094 . S
O314 C292 1.240 . S
O315 Mn289 2.117 . S
O315 C292 1.264 . S
C316 C309 1.403 1_455 S
C316 C317 1.399 1_455 S
C316 H322 0.929 . S
C317 C297 1.449 . S
C317 C316 1.399 1_655 S
C317 H323 0.930 1_655 S
H318 C298 0.931 . S
H319 C299 0.930 . S
H320 C307 0.931 . S
H321 C308 0.929 1_455 S
H322 C316 0.929 . S
H323 C317 0.930 1_455 S
Mn324 O329 2.095 . S
Mn324 O339 2.162 . S
Mn324 O340 2.297 . S
Mn324 O348 2.385 . S
Mn324 O349 2.209 . S
Mn324 O350 2.094 . S
Mn325 O330 2.121 . S
Mn325 N332 2.257 . S
Mn325 N341 2.282 . S
Mn325 O349 2.215 . S
Mn325 O351 2.117 . S
C326 O348 1.234 . S
C326 O349 1.283 . S
C327 O339 1.281 . S
C327 O340 1.236 . S
C328 O350 1.240 . S
C328 O351 1.264 . S
O329 Mn324 2.095 . S
O329 C338 1.250 . S
O330 Mn325 2.121 . S
O330 C338 1.258 . S
C331 N332 1.326 . S
C331 C335 1.460 . S
C331 H337 0.929 . S
N332 Mn325 2.257 . S
N332 C331 1.326 . S
N332 C336 1.362 . S
C333 C334 1.258 . S
C333 C336 1.431 . S
C333 C353 1.449 . S
C334 C333 1.258 . S
C334 C335 1.477 . S
C334 H354 0.931 . S
C335 C331 1.460 . S
C335 C334 1.477 . S
C335 H355 0.930 . S
C336 N332 1.362 . S
C336 C333 1.431 . S
C336 C346 1.476 . S
H337 C331 0.929 . S
C338 O329 1.250 . S
C338 O330 1.258 . S
O339 Mn324 2.162 . S
O339 C327 1.281 . S
O340 Mn324 2.297 . S
O340 C327 1.236 . S
N341 Mn325 2.282 . S
N341 C342 1.328 . S
N341 C346 1.318 . S
C342 N341 1.328 . S
C342 C343 1.457 . S
C342 H347 0.929 . S
C343 C342 1.457 . S
C343 C344 1.291 . S
C343 H356 0.931 . S
C344 C343 1.291 . S
C344 C345 1.373 . S
C344 H357 0.929 . S
C345 C344 1.373 . S
C345 C346 1.396 . S
C345 C352 1.403 . S
C346 C336 1.476 . S
C346 N341 1.318 . S
C346 C345 1.396 . S
H347 C342 0.929 . S
O348 Mn324 2.385 . S
O348 C326 1.234 . S
O349 Mn324 2.209 . S
O349 Mn325 2.215 . S
O349 C326 1.283 . S
O350 Mn324 2.094 . S
O350 C328 1.240 . S
O351 Mn325 2.117 . S
O351 C328 1.264 . S
C352 C345 1.403 . S
C352 C353 1.399 . S
C352 H358 0.929 . S
C353 C333 1.449 . S
C353 C352 1.399 . S
C353 H359 0.930 . S
H354 C334 0.931 . S
H355 C335 0.930 . S
H356 C343 0.931 . S
H357 C344 0.929 . S
H358 C352 0.929 . S
H359 C353 0.930 . S
Mn360 O365 2.095 . S
Mn360 O375 2.162 . S
Mn360 O376 2.297 . S
Mn360 O384 2.385 . S
Mn360 O385 2.209 . S
Mn360 O386 2.094 . S
Mn361 O366 2.121 . S
Mn361 N368 2.257 . S
Mn361 N377 2.282 . S
Mn361 O385 2.215 . S
Mn361 O387 2.117 . S
C362 O384 1.234 . S
C362 O385 1.283 . S
C363 O375 1.281 . S
C363 O376 1.236 . S
C364 O386 1.240 . S
C364 O387 1.264 . S
O365 Mn360 2.095 . S
O365 C374 1.250 . S
O366 Mn361 2.121 . S
O366 C374 1.258 . S
C367 N368 1.326 . S
C367 C371 1.460 . S
C367 H373 0.929 . S
N368 Mn361 2.257 . S
N368 C367 1.326 . S
N368 C372 1.362 . S
C369 C370 1.258 . S
C369 C372 1.431 . S
C369 C389 1.449 . S
C370 C369 1.258 . S
C370 C371 1.477 . S
C370 H390 0.931 . S
C371 C367 1.460 . S
C371 C370 1.477 . S
C371 H391 0.930 . S
C372 N368 1.362 . S
C372 C369 1.431 . S
C372 C382 1.476 . S
H373 C367 0.929 . S
C374 O365 1.250 . S
C374 O366 1.258 . S
O375 Mn360 2.162 . S
O375 C363 1.281 . S
O376 Mn360 2.297 . S
O376 C363 1.236 . S
N377 Mn361 2.282 . S
N377 C378 1.328 . S
N377 C382 1.318 . S
C378 N377 1.328 . S
C378 C379 1.457 . S
C378 H383 0.929 . S
C379 C378 1.457 . S
C379 C380 1.291 . S
C379 H392 0.931 . S
C380 C379 1.291 . S
C380 C381 1.373 . S
C380 H393 0.929 . S
C381 C380 1.373 . S
C381 C382 1.396 . S
C381 C388 1.403 . S
C382 C372 1.476 . S
C382 N377 1.318 . S
C382 C381 1.396 . S
H383 C378 0.929 . S
O384 Mn360 2.385 . S
O384 C362 1.234 . S
O385 Mn360 2.209 . S
O385 Mn361 2.215 . S
O385 C362 1.283 . S
O386 Mn360 2.094 . S
O386 C364 1.240 . S
O387 Mn361 2.117 . S
O387 C364 1.264 . S
C388 C381 1.403 . S
C388 C389 1.399 . S
C388 H394 0.929 . S
C389 C369 1.449 . S
C389 C388 1.399 . S
C389 H395 0.930 . S
H390 C370 0.931 . S
H391 C371 0.930 . S
H392 C379 0.931 . S
H393 C380 0.929 . S
H394 C388 0.929 . S
H395 C389 0.930 . S
Mn396 O401 2.095 . S
Mn396 O411 2.162 . S
Mn396 O412 2.297 . S
Mn396 O420 2.385 . S
Mn396 O421 2.209 . S
Mn396 O422 2.094 . S
Mn397 O402 2.121 . S
Mn397 N404 2.257 . S
Mn397 N413 2.282 . S
Mn397 O421 2.215 . S
Mn397 O423 2.117 . S
C398 O420 1.234 . S
C398 O421 1.283 . S
C399 O411 1.281 . S
C399 O412 1.236 . S
C400 O422 1.240 . S
C400 O423 1.264 . S
O401 Mn396 2.095 . S
O401 C410 1.250 . S
O402 Mn397 2.121 . S
O402 C410 1.258 . S
C403 N404 1.326 . S
C403 C407 1.460 . S
C403 H409 0.929 . S
N404 Mn397 2.257 . S
N404 C403 1.326 . S
N404 C408 1.362 . S
C405 C406 1.258 . S
C405 C408 1.431 . S
C405 C425 1.449 1_455 S
C406 C405 1.258 . S
C406 C407 1.477 . S
C406 H426 0.931 . S
C407 C403 1.460 . S
C407 C406 1.477 . S
C407 H427 0.930 . S
C408 N404 1.362 . S
C408 C405 1.431 . S
C408 C418 1.476 . S
H409 C403 0.929 . S
C410 O401 1.250 . S
C410 O402 1.258 . S
O411 Mn396 2.162 . S
O411 C399 1.281 . S
O412 Mn396 2.297 . S
O412 C399 1.236 . S
N413 Mn397 2.282 . S
N413 C414 1.328 . S
N413 C418 1.318 . S
C414 N413 1.328 . S
C414 C415 1.457 . S
C414 H419 0.929 . S
C415 C414 1.457 . S
C415 C416 1.291 1_455 S
C415 H428 0.931 . S
C416 C415 1.291 1_655 S
C416 C417 1.373 . S
C416 H429 0.929 . S
C417 C416 1.373 . S
C417 C418 1.396 1_655 S
C417 C424 1.403 . S
C418 C408 1.476 . S
C418 N413 1.318 . S
C418 C417 1.396 1_455 S
H419 C414 0.929 . S
O420 Mn396 2.385 . S
O420 C398 1.234 . S
O421 Mn396 2.209 . S
O421 Mn397 2.215 . S
O421 C398 1.283 . S
O422 Mn396 2.094 . S
O422 C400 1.240 . S
O423 Mn397 2.117 . S
O423 C400 1.264 . S
C424 C417 1.403 . S
C424 C425 1.399 . S
C424 H430 0.929 . S
C425 C405 1.449 1_655 S
C425 C424 1.399 . S
C425 H431 0.930 . S
H426 C406 0.931 . S
H427 C407 0.930 . S
H428 C415 0.931 . S
H429 C416 0.929 . S
H430 C424 0.929 . S
H431 C425 0.930 . S
Mn432 O437 2.095 . S
Mn432 O447 2.162 . S
Mn432 O448 2.297 . S
Mn432 O456 2.385 . S
Mn432 O457 2.209 . S
Mn432 O458 2.094 . S
Mn433 O438 2.121 . S
Mn433 N440 2.257 1_554 S
Mn433 N449 2.282 . S
Mn433 O457 2.215 . S
Mn433 O459 2.117 . S
C434 O456 1.234 . S
C434 O457 1.283 . S
C435 O447 1.281 . S
C435 O448 1.236 . S
C436 O458 1.240 . S
C436 O459 1.264 . S
O437 Mn432 2.095 . S
O437 C446 1.250 . S
O438 Mn433 2.121 . S
O438 C446 1.258 . S
C439 N440 1.326 . S
C439 C443 1.460 . S
C439 H445 0.929 . S
N440 Mn433 2.257 1_556 S
N440 C439 1.326 . S
N440 C444 1.362 . S
C441 C442 1.258 . S
C441 C444 1.431 . S
C441 C461 1.449 . S
C442 C441 1.258 . S
C442 C443 1.477 . S
C442 H462 0.931 . S
C443 C439 1.460 . S
C443 C442 1.477 . S
C443 H463 0.930 . S
C444 N440 1.362 . S
C444 C441 1.431 . S
C444 C454 1.476 . S
H445 C439 0.929 . S
C446 O437 1.250 . S
C446 O438 1.258 . S
O447 Mn432 2.162 . S
O447 C435 1.281 . S
O448 Mn432 2.297 . S
O448 C435 1.236 . S
N449 Mn433 2.282 . S
N449 C450 1.328 . S
N449 C454 1.318 1_554 S
C450 N449 1.328 . S
C450 C451 1.457 . S
C450 H455 0.929 . S
C451 C450 1.457 . S
C451 C452 1.291 . S
C451 H464 0.931 . S
C452 C451 1.291 . S
C452 C453 1.373 1_554 S
C452 H465 0.929 . S
C453 C452 1.373 1_556 S
C453 C454 1.396 . S
C453 C460 1.403 . S
C454 C444 1.476 . S
C454 N449 1.318 1_556 S
C454 C453 1.396 . S
H455 C450 0.929 . S
O456 Mn432 2.385 . S
O456 C434 1.234 . S
O457 Mn432 2.209 . S
O457 Mn433 2.215 . S
O457 C434 1.283 . S
O458 Mn432 2.094 . S
O458 C436 1.240 . S
O459 Mn433 2.117 . S
O459 C436 1.264 . S
C460 C453 1.403 . S
C460 C461 1.399 . S
C460 H466 0.929 . S
C461 C441 1.449 . S
C461 C460 1.399 . S
C461 H467 0.930 . S
H462 C442 0.931 . S
H463 C443 0.930 . S
H464 C451 0.931 . S
H465 C452 0.929 . S
H466 C460 0.929 . S
H467 C461 0.930 . S
Mn468 O473 2.095 . S
Mn468 O483 2.162 . S
Mn468 O484 2.297 . S
Mn468 O492 2.385 . S
Mn468 O493 2.209 . S
Mn468 O494 2.094 . S
Mn469 O474 2.121 . S
Mn469 N476 2.257 . S
Mn469 N485 2.282 . S
Mn469 O493 2.215 . S
Mn469 O495 2.117 . S
C470 O492 1.234 . S
C470 O493 1.283 . S
C471 O483 1.281 . S
C471 O484 1.236 . S
C472 O494 1.240 . S
C472 O495 1.264 . S
O473 Mn468 2.095 . S
O473 C482 1.250 . S
O474 Mn469 2.121 . S
O474 C482 1.258 . S
C475 N476 1.326 . S
C475 C479 1.460 . S
C475 H481 0.929 . S
N476 Mn469 2.257 . S
N476 C475 1.326 . S
N476 C480 1.362 . S
C477 C478 1.258 . S
C477 C480 1.431 . S
C477 C497 1.449 1_455 S
C478 C477 1.258 . S
C478 C479 1.477 . S
C478 H498 0.931 . S
C479 C475 1.460 . S
C479 C478 1.477 . S
C479 H499 0.930 . S
C480 N476 1.362 . S
C480 C477 1.431 . S
C480 C490 1.476 . S
H481 C475 0.929 . S
C482 O473 1.250 . S
C482 O474 1.258 . S
O483 Mn468 2.162 . S
O483 C471 1.281 . S
O484 Mn468 2.297 . S
O484 C471 1.236 . S
N485 Mn469 2.282 . S
N485 C486 1.328 . S
N485 C490 1.318 . S
C486 N485 1.328 . S
C486 C487 1.457 . S
C486 H491 0.929 . S
C487 C486 1.457 . S
C487 C488 1.291 1_455 S
C487 H500 0.931 . S
C488 C487 1.291 1_655 S
C488 C489 1.371 1_655 S
C488 H501 0.929 . S
C489 C488 1.371 1_455 S
C489 C490 1.402 . S
C489 C496 1.399 1_455 S
C490 C480 1.476 . S
C490 N485 1.318 . S
C490 C489 1.402 . S
H491 C486 0.929 . S
O492 Mn468 2.385 . S
O492 C470 1.234 . S
O493 Mn468 2.209 . S
O493 Mn469 2.215 . S
O493 C470 1.283 . S
O494 Mn468 2.094 . S
O494 C472 1.240 . S
O495 Mn469 2.117 . S
O495 C472 1.264 . S
C496 C489 1.399 1_655 S
C496 C497 1.399 . S
C496 H502 0.929 . S
C497 C477 1.449 1_655 S
C497 C496 1.399 . S
C497 H503 0.930 . S
H498 C478 0.931 . S
H499 C479 0.930 . S
H500 C487 0.931 . S
H501 C488 0.929 . S
H502 C496 0.929 . S
H503 C497 0.930 . S
Mn504 O509 2.095 . S
Mn504 O519 2.162 . S
Mn504 O520 2.297 . S
Mn504 O528 2.385 . S
Mn504 O529 2.209 . S
Mn504 O530 2.094 . S
Mn505 O510 2.121 . S
Mn505 N512 2.257 . S
Mn505 N521 2.282 . S
Mn505 O529 2.215 . S
Mn505 O531 2.117 . S
C506 O528 1.234 . S
C506 O529 1.283 . S
C507 O519 1.281 . S
C507 O520 1.236 . S
C508 O530 1.240 . S
C508 O531 1.264 . S
O509 Mn504 2.095 . S
O509 C518 1.250 . S
O510 Mn505 2.121 . S
O510 C518 1.258 . S
C511 N512 1.326 . S
C511 C515 1.460 . S
C511 H517 0.929 . S
N512 Mn505 2.257 . S
N512 C511 1.326 . S
N512 C516 1.362 . S
C513 C514 1.258 . S
C513 C516 1.431 . S
C513 C533 1.449 . S
C514 C513 1.258 . S
C514 C515 1.477 . S
C514 H534 0.931 . S
C515 C511 1.460 . S
C515 C514 1.477 . S
C515 H535 0.930 . S
C516 N512 1.362 . S
C516 C513 1.431 . S
C516 C526 1.476 . S
H517 C511 0.929 . S
C518 O509 1.250 . S
C518 O510 1.258 . S
O519 Mn504 2.162 . S
O519 C507 1.281 . S
O520 Mn504 2.297 . S
O520 C507 1.236 . S
N521 Mn505 2.282 . S
N521 C522 1.328 . S
N521 C526 1.318 . S
C522 N521 1.328 . S
C522 C523 1.457 . S
C522 H527 0.929 . S
C523 C522 1.457 . S
C523 C524 1.291 . S
C523 H536 0.931 . S
C524 C523 1.291 . S
C524 C525 1.373 . S
C524 H537 0.929 . S
C525 C524 1.373 . S
C525 C526 1.396 . S
C525 C532 1.403 . S
C526 C516 1.476 . S
C526 N521 1.318 . S
C526 C525 1.396 . S
H527 C522 0.929 . S
O528 Mn504 2.385 . S
O528 C506 1.234 . S
O529 Mn504 2.209 . S
O529 Mn505 2.215 . S
O529 C506 1.283 . S
O530 Mn504 2.094 . S
O530 C508 1.240 . S
O531 Mn505 2.117 . S
O531 C508 1.264 . S
C532 C525 1.403 . S
C532 C533 1.399 . S
C532 H538 0.929 . S
C533 C513 1.449 . S
C533 C532 1.399 . S
C533 H539 0.930 . S
H534 C514 0.931 . S
H535 C515 0.930 . S
H536 C523 0.931 . S
H537 C524 0.929 . S
H538 C532 0.929 . S
H539 C533 0.930 . S
Mn540 O545 2.095 . S
Mn540 O555 2.162 . S
Mn540 O556 2.297 . S
Mn540 O564 2.385 . S
Mn540 O565 2.209 . S
Mn540 O566 2.094 . S
Mn541 O546 2.121 . S
Mn541 N548 2.257 . S
Mn541 N557 2.282 . S
Mn541 O565 2.215 . S
Mn541 O567 2.117 . S
C542 O564 1.234 . S
C542 O565 1.283 . S
C543 O555 1.281 . S
C543 O556 1.236 . S
C544 O566 1.240 . S
C544 O567 1.264 . S
O545 Mn540 2.095 . S
O545 C554 1.250 . S
O546 Mn541 2.121 . S
O546 C554 1.258 . S
C547 N548 1.326 . S
C547 C551 1.460 . S
C547 H553 0.929 . S
N548 Mn541 2.257 . S
N548 C547 1.326 . S
N548 C552 1.362 . S
C549 C550 1.258 . S
C549 C552 1.431 . S
C549 C569 1.449 . S
C550 C549 1.258 . S
C550 C551 1.477 . S
C550 H570 0.931 . S
C551 C547 1.460 . S
C551 C550 1.477 . S
C551 H571 0.930 . S
C552 N548 1.362 . S
C552 C549 1.431 . S
C552 C562 1.476 . S
H553 C547 0.929 . S
C554 O545 1.250 . S
C554 O546 1.258 . S
O555 Mn540 2.162 . S
O555 C543 1.281 . S
O556 Mn540 2.297 . S
O556 C543 1.236 . S
N557 Mn541 2.282 . S
N557 C558 1.328 . S
N557 C562 1.318 . S
C558 N557 1.328 . S
C558 C559 1.457 . S
C558 H563 0.929 . S
C559 C558 1.457 . S
C559 C560 1.291 . S
C559 H572 0.931 . S
C560 C559 1.291 . S
C560 C561 1.373 . S
C560 H573 0.929 . S
C561 C560 1.373 . S
C561 C562 1.396 . S
C561 C568 1.403 . S
C562 C552 1.476 . S
C562 N557 1.318 . S
C562 C561 1.396 . S
H563 C558 0.929 . S
O564 Mn540 2.385 . S
O564 C542 1.234 . S
O565 Mn540 2.209 . S
O565 Mn541 2.215 . S
O565 C542 1.283 . S
O566 Mn540 2.094 . S
O566 C544 1.240 . S
O567 Mn541 2.117 . S
O567 C544 1.264 . S
C568 C561 1.403 . S
C568 C569 1.399 . S
C568 H574 0.929 . S
C569 C549 1.449 . S
C569 C568 1.399 . S
C569 H575 0.930 . S
H570 C550 0.931 . S
H571 C551 0.930 . S
H572 C559 0.931 . S
H573 C560 0.929 . S
H574 C568 0.929 . S
H575 C569 0.930 . S
C576 C577 1.387 . S
C576 H580 0.950 . S
C576 C585 1.390 . S
C577 C576 1.387 . S
C577 C579 1.387 . S
H578 C585 0.950 . S
C579 C577 1.387 . S
C579 C581 1.390 . S
C579 H583 0.950 . S
H580 C576 0.950 . S
C581 C579 1.390 . S
C581 C582 1.387 . S
C581 H584 0.950 . S
C582 C581 1.387 . S
C582 C585 1.387 . S
H583 C579 0.950 . S
H584 C581 0.950 . S
C585 C576 1.390 . S
C585 H578 0.950 . S
C585 C582 1.387 . S
C586 C587 1.387 . S
C586 H590 0.950 . S
C586 C595 1.390 . S
C587 C586 1.387 . S
C587 C589 1.387 . S
H588 C595 0.950 . S
C589 C587 1.387 . S
C589 C591 1.390 . S
C589 H593 0.950 . S
H590 C586 0.950 . S
C591 C589 1.390 . S
C591 C592 1.387 . S
C591 H594 0.950 . S
C592 C591 1.387 . S
C592 C595 1.387 . S
H593 C589 0.950 . S
H594 C591 0.950 . S
C595 C586 1.390 . S
C595 H588 0.950 . S
C595 C592 1.387 . S
C596 C597 1.387 . S
C596 H600 0.950 . S
C596 C605 1.390 . S
C597 C596 1.387 . S
C597 C599 1.387 . S
H598 C605 0.950 . S
C599 C597 1.387 . S
C599 C601 1.390 . S
C599 H603 0.950 . S
H600 C596 0.950 . S
C601 C599 1.390 . S
C601 C602 1.387 . S
C601 H604 0.950 . S
C602 C601 1.387 . S
C602 C605 1.387 . S
H603 C599 0.950 . S
H604 C601 0.950 . S
C605 C596 1.390 . S
C605 H598 0.950 . S
C605 C602 1.387 . S
C606 C607 1.387 . S
C606 H610 0.950 . S
C606 C615 1.390 1_455 S
C607 C606 1.387 . S
C607 C609 1.387 . S
H608 C615 0.950 . S
C609 C607 1.387 . S
C609 C611 1.390 1_455 S
C609 H613 0.950 . S
H610 C606 0.950 . S
C611 C609 1.390 1_655 S
C611 C612 1.387 . S
C611 H614 0.950 . S
C612 C611 1.387 . S
C612 C615 1.387 . S
H613 C609 0.950 . S
H614 C611 0.950 . S
C615 C606 1.390 1_655 S
C615 H608 0.950 . S
C615 C612 1.387 . S
C616 C617 1.387 . S
C616 H620 0.950 . S
C616 C625 1.390 . S
C617 C616 1.387 . S
C617 C619 1.387 . S
H618 C625 0.950 . S
C619 C617 1.387 . S
C619 C621 1.390 . S
C619 H623 0.950 . S
H620 C616 0.950 . S
C621 C619 1.390 . S
C621 C622 1.387 . S
C621 H624 0.950 . S
C622 C621 1.387 . S
C622 C625 1.387 . S
H623 C619 0.950 . S
H624 C621 0.950 . S
C625 C616 1.390 . S
C625 H618 0.950 . S
C625 C622 1.387 . S
C626 C627 1.387 . S
C626 H630 0.950 . S
C626 C635 1.390 1_655 S
C627 C626 1.387 . S
C627 C629 1.387 . S
H628 C635 0.950 . S
C629 C627 1.387 . S
C629 C631 1.390 1_655 S
C629 H633 0.950 . S
H630 C626 0.950 . S
C631 C629 1.390 1_455 S
C631 C632 1.387 . S
C631 H634 0.950 . S
C632 C631 1.387 . S
C632 C635 1.387 . S
H633 C629 0.950 . S
H634 C631 0.950 . S
C635 C626 1.390 1_455 S
C635 H628 0.950 . S
C635 C632 1.387 . S
C636 C637 1.387 . S
C636 H640 0.950 . S
C636 C645 1.390 . S
C637 C636 1.387 . S
C637 C639 1.387 . S
H638 C645 0.950 . S
C639 C637 1.387 . S
C639 C641 1.390 . S
C639 H643 0.950 . S
H640 C636 0.950 . S
C641 C639 1.390 . S
C641 C642 1.387 . S
C641 H644 0.950 . S
C642 C641 1.387 . S
C642 C645 1.387 . S
H643 C639 0.950 . S
H644 C641 0.950 . S
C645 C636 1.390 . S
C645 H638 0.950 . S
C645 C642 1.387 . S
C646 C647 1.387 . S
C646 H650 0.950 . S
C646 C655 1.390 . S
C647 C646 1.387 . S
C647 C649 1.387 . S
H648 C655 0.950 . S
C649 C647 1.387 . S
C649 C651 1.390 . S
C649 H653 0.950 . S
H650 C646 0.950 . S
C651 C649 1.390 . S
C651 C652 1.387 . S
C651 H654 0.950 . S
C652 C651 1.387 . S
C652 C655 1.387 . S
H653 C649 0.950 . S
H654 C651 0.950 . S
C655 C646 1.390 . S
C655 H648 0.950 . S
C655 C652 1.387 . S
C656 C657 1.387 . S
C656 H660 0.950 . S
C656 C665 1.390 . S
C657 C656 1.387 . S
C657 C659 1.387 . S
H658 C665 0.950 . S
C659 C657 1.387 . S
C659 C661 1.390 . S
C659 H663 0.950 . S
H660 C656 0.950 . S
C661 C659 1.390 . S
C661 C662 1.387 . S
C661 H664 0.950 . S
C662 C661 1.387 . S
C662 C665 1.387 . S
H663 C659 0.950 . S
H664 C661 0.950 . S
C665 C656 1.390 . S
C665 H658 0.950 . S
C665 C662 1.387 . S
C666 C667 1.387 . S
C666 H670 0.950 . S
C666 C675 1.390 . S
C667 C666 1.387 . S
C667 C669 1.387 . S
H668 C675 0.950 . S
C669 C667 1.387 . S
C669 C671 1.390 . S
C669 H673 0.950 . S
H670 C666 0.950 . S
C671 C669 1.390 . S
C671 C672 1.387 . S
C671 H674 0.950 . S
C672 C671 1.387 . S
C672 C675 1.387 . S
H673 C669 0.950 . S
H674 C671 0.950 . S
C675 C666 1.390 . S
C675 H668 0.950 . S
C675 C672 1.387 . S
C676 C677 1.387 . S
C676 H680 0.950 . S
C676 C685 1.390 . S
C677 C676 1.387 . S
C677 C679 1.387 . S
H678 C685 0.950 . S
C679 C677 1.387 . S
C679 C681 1.390 . S
C679 H683 0.950 . S
H680 C676 0.950 . S
C681 C679 1.390 . S
C681 C682 1.387 . S
C681 H684 0.950 . S
C682 C681 1.387 . S
C682 C685 1.387 . S
H683 C679 0.950 . S
H684 C681 0.950 . S
C685 C676 1.390 . S
C685 H678 0.950 . S
C685 C682 1.387 . S
C686 C687 1.387 . S
C686 H690 0.950 . S
C686 C695 1.390 . S
C687 C686 1.387 . S
C687 C689 1.387 . S
H688 C695 0.950 . S
C689 C687 1.387 . S
C689 C691 1.390 . S
C689 H693 0.950 . S
H690 C686 0.950 . S
C691 C689 1.390 . S
C691 C692 1.387 . S
C691 H694 0.950 . S
C692 C691 1.387 . S
C692 C695 1.387 . S
H693 C689 0.950 . S
H694 C691 0.950 . S
C695 C686 1.390 . S
C695 H688 0.950 . S
C695 C692 1.387 . S
C696 C697 1.387 . S
C696 H700 0.950 . S
C696 C705 1.390 1_455 S
C697 C696 1.387 . S
C697 C699 1.387 . S
H698 C705 0.950 . S
C699 C697 1.387 . S
C699 C701 1.390 1_455 S
C699 H703 0.950 . S
H700 C696 0.950 . S
C701 C699 1.390 1_655 S
C701 C702 1.387 . S
C701 H704 0.950 . S
C702 C701 1.387 . S
C702 C705 1.387 . S
H703 C699 0.950 . S
H704 C701 0.950 . S
C705 C696 1.390 1_655 S
C705 H698 0.950 . S
C705 C702 1.387 . S
C706 C707 1.387 . S
C706 H710 0.950 . S
C706 C715 1.390 . S
C707 C706 1.387 . S
C707 C709 1.387 . S
H708 C715 0.950 . S
C709 C707 1.387 . S
C709 C711 1.390 . S
C709 H713 0.950 . S
H710 C706 0.950 . S
C711 C709 1.390 . S
C711 C712 1.387 . S
C711 H714 0.950 . S
C712 C711 1.387 . S
C712 C715 1.387 . S
H713 C709 0.950 . S
H714 C711 0.950 . S
C715 C706 1.390 . S
C715 H708 0.950 . S
C715 C712 1.387 . S
C716 C717 1.387 . S
C716 H720 0.950 . S
C716 C725 1.390 . S
C717 C716 1.387 . S
C717 C719 1.387 . S
H718 C725 0.950 . S
C719 C717 1.387 . S
C719 C721 1.390 . S
C719 H723 0.950 . S
H720 C716 0.950 . S
C721 C719 1.390 . S
C721 C722 1.387 . S
C721 H724 0.950 . S
C722 C721 1.387 . S
C722 C725 1.387 . S
H723 C719 0.950 . S
H724 C721 0.950 . S
C725 C716 1.390 . S
C725 H718 0.950 . S
C725 C722 1.387 . S
C726 C727 1.387 . S
C726 H730 0.950 . S
C726 C735 1.390 1_455 S
C727 C726 1.387 . S
C727 C729 1.387 . S
H728 C735 0.950 . S
C729 C727 1.387 . S
C729 C731 1.390 1_455 S
C729 H733 0.950 . S
H730 C726 0.950 . S
C731 C729 1.390 1_655 S
C731 C732 1.387 . S
C731 H734 0.950 . S
C732 C731 1.387 . S
C732 C735 1.387 . S
H733 C729 0.950 . S
H734 C731 0.950 . S
C735 C726 1.390 1_655 S
C735 H728 0.950 . S
C735 C732 1.387 . S
C736 C737 1.387 1_556 S
C736 H740 0.950 . S
C736 C745 1.390 . S
C737 C736 1.387 1_554 S
C737 C739 1.387 . S
H738 C745 0.950 . S
C739 C737 1.387 . S
C739 C741 1.383 1_554 S
C739 H743 0.950 . S
H740 C736 0.950 . S
C741 C739 1.383 1_556 S
C741 C742 1.397 . S
C741 H744 0.947 1_556 S
C742 C741 1.397 . S
C742 C745 1.387 . S
H743 C739 0.950 . S
H744 C741 0.947 1_554 S
C745 C736 1.390 . S
C745 H738 0.950 . S
C745 C742 1.387 . S
C746 C747 1.387 . S
C746 H750 0.950 . S
C746 C755 1.390 . S
C747 C746 1.387 . S
C747 C749 1.387 . S
H748 C755 0.950 . S
C749 C747 1.387 . S
C749 C751 1.390 . S
C749 H753 0.950 . S
H750 C746 0.950 . S
C751 C749 1.390 . S
C751 C752 1.387 . S
C751 H754 0.950 . S
C752 C751 1.387 . S
C752 C755 1.387 . S
H753 C749 0.950 . S
H754 C751 0.950 . S
C755 C746 1.390 . S
C755 H748 0.950 . S
C755 C752 1.387 . S
C756 C757 1.387 . S
C756 H760 0.950 . S
C756 C765 1.390 . S
C757 C756 1.387 . S
C757 C759 1.387 . S
H758 C765 0.950 . S
C759 C757 1.387 . S
C759 C761 1.390 . S
C759 H763 0.950 . S
H760 C756 0.950 . S
C761 C759 1.390 . S
C761 C762 1.387 . S
C761 H764 0.950 . S
C762 C761 1.387 . S
C762 C765 1.387 . S
H763 C759 0.950 . S
H764 C761 0.950 . S
C765 C756 1.390 . S
C765 H758 0.950 . S
C765 C762 1.387 . S
C766 C767 1.387 . S
C766 H770 0.950 . S
C766 C775 1.390 . S
C767 C766 1.387 . S
C767 C769 1.387 . S
H768 C775 0.950 . S
C769 C767 1.387 . S
C769 C771 1.390 . S
C769 H773 0.950 . S
H770 C766 0.950 . S
C771 C769 1.390 . S
C771 C772 1.387 . S
C771 H774 0.950 . S
C772 C771 1.387 . S
C772 C775 1.387 . S
H773 C769 0.950 . S
H774 C771 0.950 . S
C775 C766 1.390 . S
C775 H768 0.950 . S
C775 C772 1.387 . S
C776 C777 1.387 . S
C776 H780 0.950 . S
C776 C785 1.390 . S
C777 C776 1.387 . S
C777 C779 1.387 1_556 S
H778 C785 0.950 . S
C779 C777 1.387 1_554 S
C779 C781 1.390 . S
C779 H783 0.950 . S
H780 C776 0.950 . S
C781 C779 1.390 . S
C781 C782 1.387 . S
C781 H784 0.950 . S
C782 C781 1.387 . S
C782 C785 1.387 1_554 S
H783 C779 0.950 . S
H784 C781 0.950 . S
C785 C776 1.390 . S
C785 H778 0.950 . S
C785 C782 1.387 1_556 S
C786 C787 1.387 . S
C786 H790 0.950 . S
C786 C795 1.390 . S
C787 C786 1.387 . S
C787 C789 1.387 . S
H788 C795 0.950 . S
C789 C787 1.387 . S
C789 C791 1.390 . S
C789 H793 0.950 . S
H790 C786 0.950 . S
C791 C789 1.390 . S
C791 C792 1.387 . S
C791 H794 0.950 . S
C792 C791 1.387 . S
C792 C795 1.387 . S
H793 C789 0.950 . S
H794 C791 0.950 . S
C795 C786 1.390 . S
C795 H788 0.950 . S
C795 C792 1.387 . S
C796 C797 1.387 . S
C796 H800 0.950 . S
C796 C805 1.390 . S
C797 C796 1.387 . S
C797 C799 1.387 . S
H798 C805 0.950 . S
C799 C797 1.387 . S
C799 C801 1.390 . S
C799 H803 0.950 . S
H800 C796 0.950 . S
C801 C799 1.390 . S
C801 C802 1.387 . S
C801 H804 0.950 . S
C802 C801 1.387 . S
C802 C805 1.387 . S
H803 C799 0.950 . S
H804 C801 0.950 . S
C805 C796 1.390 . S
C805 H798 0.950 . S
C805 C802 1.387 . S
C806 C807 1.387 . S
C806 H810 0.950 . S
C806 C815 1.390 . S
C807 C806 1.387 . S
C807 C809 1.387 . S
H808 C815 0.950 . S
C809 C807 1.387 . S
C809 C811 1.390 . S
C809 H813 0.950 . S
H810 C806 0.950 . S
C811 C809 1.390 . S
C811 C812 1.387 . S
C811 H814 0.950 . S
C812 C811 1.387 . S
C812 C815 1.387 . S
H813 C809 0.950 . S
H814 C811 0.950 . S
C815 C806 1.390 . S
C815 H808 0.950 . S
C815 C812 1.387 . S
C816 C817 1.387 . S
C816 H820 0.950 . S
C816 C825 1.390 1_545 S
C817 C816 1.387 . S
C817 C819 1.387 . S
H818 C825 0.950 . S
C819 C817 1.387 . S
C819 C821 1.390 1_545 S
C819 H823 0.950 . S
H820 C816 0.950 . S
C821 C819 1.390 1_565 S
C821 C822 1.387 . S
C821 H824 0.950 . S
C822 C821 1.387 . S
C822 C825 1.387 . S
H823 C819 0.950 . S
H824 C821 0.950 . S
C825 C816 1.390 1_565 S
C825 H818 0.950 . S
C825 C822 1.387 . S
C826 C827 1.387 . S
C826 H830 0.950 . S
C826 C835 1.390 . S
C827 C826 1.387 . S
C827 C829 1.387 . S
H828 C835 0.950 . S
C829 C827 1.387 . S
C829 C831 1.390 . S
C829 H833 0.950 . S
H830 C826 0.950 . S
C831 C829 1.390 . S
C831 C832 1.387 . S
C831 H834 0.950 . S
C832 C831 1.387 . S
C832 C835 1.387 . S
H833 C829 0.950 . S
H834 C831 0.950 . S
C835 C826 1.390 . S
C835 H828 0.950 . S
C835 C832 1.387 . S
C836 C837 1.387 . S
C836 H840 0.950 . S
C836 C845 1.390 1_546 S
C837 C836 1.387 . S
C837 C839 1.387 . S
H838 C845 0.950 . S
C839 C837 1.387 . S
C839 C841 1.390 1_546 S
C839 H843 0.950 . S
H840 C836 0.950 . S
C841 C839 1.390 1_564 S
C841 C842 1.387 . S
C841 H844 0.950 . S
C842 C841 1.387 . S
C842 C845 1.387 . S
H843 C839 0.950 . S
H844 C841 0.950 . S
C845 C836 1.390 1_564 S
C845 H838 0.950 . S
C845 C842 1.387 . S
C846 C847 1.387 . S
C846 H850 0.950 . S
C846 C855 1.390 . S
C847 C846 1.387 . S
C847 C849 1.387 . S
H848 C855 0.950 . S
C849 C847 1.387 . S
C849 C851 1.390 . S
C849 H853 0.950 . S
H850 C846 0.950 . S
C851 C849 1.390 . S
C851 C852 1.387 . S
C851 H854 0.950 . S
C852 C851 1.387 . S
C852 C855 1.387 . S
H853 C849 0.950 . S
H854 C851 0.950 . S
C855 C846 1.390 . S
C855 H848 0.950 . S
C855 C852 1.387 . S
C856 C857 1.387 . S
C856 H860 0.950 . S
C856 C865 1.390 1_545 S
C857 C856 1.387 . S
C857 C859 1.387 . S
H858 C865 0.950 . S
C859 C857 1.387 . S
C859 C861 1.390 1_545 S
C859 H863 0.950 . S
H860 C856 0.950 . S
C861 C859 1.390 1_565 S
C861 C862 1.387 . S
C861 H864 0.950 . S
C862 C861 1.387 . S
C862 C865 1.387 . S
H863 C859 0.950 . S
H864 C861 0.950 . S
C865 C856 1.390 1_565 S
C865 H858 0.950 . S
C865 C862 1.387 . S
C866 C867 1.387 . S
C866 H870 0.950 . S
C866 C875 1.390 . S
C867 C866 1.387 . S
C867 C869 1.387 . S
H868 C875 0.950 . S
C869 C867 1.387 . S
C869 C871 1.390 . S
C869 H873 0.950 . S
H870 C866 0.950 . S
C871 C869 1.390 . S
C871 C872 1.387 . S
C871 H874 0.950 . S
C872 C871 1.387 . S
C872 C875 1.387 . S
H873 C869 0.950 . S
H874 C871 0.950 . S
C875 C866 1.390 . S
C875 H868 0.950 . S
C875 C872 1.387 . S
C876 C877 1.387 . S
C876 H880 0.950 . S
C876 C885 1.390 1_564 S
C877 C876 1.387 . S
C877 C879 1.387 . S
H878 C885 0.950 . S
C879 C877 1.387 . S
C879 C881 1.390 1_564 S
C879 H883 0.950 . S
H880 C876 0.950 . S
C881 C879 1.390 1_546 S
C881 C882 1.387 . S
C881 H884 0.950 . S
C882 C881 1.387 . S
C882 C885 1.387 . S
H883 C879 0.950 . S
H884 C881 0.950 . S
C885 C876 1.390 1_546 S
C885 H878 0.950 . S
C885 C882 1.387 . S
C886 C887 1.387 . S
C886 H890 0.950 . S
C886 C895 1.390 . S
C887 C886 1.387 . S
C887 C889 1.387 . S
H888 C895 0.950 . S
C889 C887 1.387 . S
C889 C891 1.390 . S
C889 H893 0.950 . S
H890 C886 0.950 . S
C891 C889 1.390 . S
C891 C892 1.387 . S
C891 H894 0.950 . S
C892 C891 1.387 . S
C892 C895 1.387 . S
H893 C889 0.950 . S
H894 C891 0.950 . S
C895 C886 1.390 . S
C895 H888 0.950 . S
C895 C892 1.387 . S
C577 C400 1.330 . S
C582 C4 1.317 . S
C587 C544 1.329 . S
C592 C40 1.323 . S
C597 C76 1.447 . S
C602 C326 1.442 . S
C607 C470 1.450 . S
C612 C110 1.441 . S
C617 C146 1.388 . S
C622 C472 1.390 . S
C627 C182 1.402 . S
C632 C398 1.390 . S
C637 C220 1.472 . S
C642 C542 1.444 . S
C647 C254 1.445 . S
C652 C328 1.451 . S
C657 C112 1.355 . S
C662 C292 1.346 . S
C667 C364 1.356 . S
C672 C38 1.340 . S
C677 C434 1.379 . S
C682 C184 1.377 . S
C687 C508 1.365 . S
C692 C256 1.352 . S
C697 C148 1.419 . S
C702 C290 1.415 . S
C707 C362 1.484 . S
C712 C218 1.485 . S
C717 C506 1.451 . S
C722 C74 1.465 . S
C727 C2 1.409 . S
C732 C436 1.411 . S
C737 C3 1.307 . S
C742 C158 1.273 . S
C747 C39 1.350 . S
C752 C194 1.293 . S
C757 C75 1.392 . S
C762 C219 1.394 . S
C767 C266 1.285 . S
C772 C122 1.282 . S
C777 C291 1.287 . S
C782 C446 1.254 . S
C787 C482 1.351 . S
C792 C327 1.399 . S
C797 C363 1.330 . S
C802 C507 1.332 . S
C807 C543 1.324 . S
C812 C410 1.260 . S
C817 C255 1.256 . S
C822 C50 1.213 . S
C827 C86 1.337 . S
C832 C147 1.388 . S
C837 C111 1.335 . S
C842 C183 1.331 . S
C847 C14 1.321 . S
C852 C230 1.344 . S
C857 C338 1.321 . S
C862 C554 1.295 . S
C867 C435 1.380 . S
C872 C374 1.329 . S
C877 C399 1.324 . S
C882 C471 1.321 . S
C887 C518 1.294 . S
C892 C302 1.290 . S
